# Generated by pormake.
# Topology vbn, (6)-cn, num edge types: 1
# Building blocks:
#     Node 0, Type 0, BuildingBlock: VOLQOD_clean_sbu_1, # of connection points: 6
#     Node 1, Type 0, BuildingBlock: VOLQOD_clean_sbu_1, # of connection points: 6
#     Node 2, Type 0, BuildingBlock: VOLQOD_clean_sbu_1, # of connection points: 6
#     Node 3, Type 0, BuildingBlock: VOLQOD_clean_sbu_1, # of connection points: 6
#     Node 4, Type 0, BuildingBlock: VOLQOD_clean_sbu_1, # of connection points: 6
#     Node 5, Type 0, BuildingBlock: VOLQOD_clean_sbu_1, # of connection points: 6
#     Node 6, Type 0, BuildingBlock: VOLQOD_clean_sbu_1, # of connection points: 6
#     Node 7, Type 0, BuildingBlock: VOLQOD_clean_sbu_1, # of connection points: 6
#     Edge 8, Type (0, 0), BuildingBlock: XUDNAN_clean_linker_2, # of connection points: 2
#     Edge 9, Type (0, 0), BuildingBlock: XUDNAN_clean_linker_2, # of connection points: 2
#     Edge 10, Type (0, 0), BuildingBlock: XUDNAN_clean_linker_2, # of connection points: 2
#     Edge 11, Type (0, 0), BuildingBlock: XUDNAN_clean_linker_2, # of connection points: 2
#     Edge 12, Type (0, 0), BuildingBlock: XUDNAN_clean_linker_2, # of connection points: 2
#     Edge 13, Type (0, 0), BuildingBlock: XUDNAN_clean_linker_2, # of connection points: 2
#     Edge 14, Type (0, 0), BuildingBlock: XUDNAN_clean_linker_2, # of connection points: 2
#     Edge 15, Type (0, 0), BuildingBlock: XUDNAN_clean_linker_2, # of connection points: 2
#     Edge 16, Type (0, 0), BuildingBlock: XUDNAN_clean_linker_2, # of connection points: 2
#     Edge 17, Type (0, 0), BuildingBlock: XUDNAN_clean_linker_2, # of connection points: 2
#     Edge 18, Type (0, 0), BuildingBlock: XUDNAN_clean_linker_2, # of connection points: 2
#     Edge 19, Type (0, 0), BuildingBlock: XUDNAN_clean_linker_2, # of connection points: 2
#     Edge 20, Type (0, 0), BuildingBlock: XUDNAN_clean_linker_2, # of connection points: 2
#     Edge 21, Type (0, 0), BuildingBlock: XUDNAN_clean_linker_2, # of connection points: 2
#     Edge 22, Type (0, 0), BuildingBlock: XUDNAN_clean_linker_2, # of connection points: 2
#     Edge 23, Type (0, 0), BuildingBlock: XUDNAN_clean_linker_2, # of connection points: 2
#     Edge 24, Type (0, 0), BuildingBlock: XUDNAN_clean_linker_2, # of connection points: 2
#     Edge 25, Type (0, 0), BuildingBlock: XUDNAN_clean_linker_2, # of connection points: 2
#     Edge 26, Type (0, 0), BuildingBlock: XUDNAN_clean_linker_2, # of connection points: 2
#     Edge 27, Type (0, 0), BuildingBlock: XUDNAN_clean_linker_2, # of connection points: 2
#     Edge 28, Type (0, 0), BuildingBlock: XUDNAN_clean_linker_2, # of connection points: 2
#     Edge 29, Type (0, 0), BuildingBlock: XUDNAN_clean_linker_2, # of connection points: 2
#     Edge 30, Type (0, 0), BuildingBlock: XUDNAN_clean_linker_2, # of connection points: 2
#     Edge 31, Type (0, 0), BuildingBlock: XUDNAN_clean_linker_2, # of connection points: 2
# Relax obj value: 0.302
# Max RMSD: 0.245
# Mean RMSD: 0.245
data_MOF--net-vbn--node1-VOLQOD_clean_sbu_1--edge1-XUDNAN_clean_linker_2
_symmetry_space_group_name_H-M    P1
_symmetry_Int_Tables_number       1
_symmetry_cell_setting            triclinic
loop_
_symmetry_equiv_pos_as_xyz
'x, y, z'
_cell_length_a     27.102701
_cell_length_b     29.271225
_cell_length_c     48.86482
_cell_angle_alpha  90.059817
_cell_angle_beta   89.985959
_cell_angle_gamma 90.032281
loop_
_atom_site_label
_atom_site_type_symbol
_atom_site_fract_x
_atom_site_fract_y
_atom_site_fract_z
_atom_type_partial_charge
O0 O 0.40293 0.34922 0.45382 0.0
Zn1 Zn 0.38494 0.28956 0.43749 0.0
O2 O 0.37813 0.29657 0.39868 0.0
Zn3 Zn 0.30919 0.29166 0.38771 0.0
Zn4 Zn 0.40766 0.35388 0.38806 0.0
Zn5 Zn 0.41598 0.24941 0.3816 0.0
O6 O 0.29889 0.23091 0.36728 0.0
O7 O 0.37151 0.19649 0.37337 0.0
O8 O 0.32103 0.27314 0.45525 0.0
O9 O 0.26719 0.28673 0.42183 0.0
O10 O 0.28685 0.3504 0.36763 0.0
O11 O 0.35509 0.39218 0.37219 0.0
O12 O 0.45467 0.34646 0.3567 0.0
O13 O 0.44186 0.24871 0.44732 0.0
O14 O 0.44366 0.27334 0.34623 0.0
O15 O 0.47184 0.23064 0.40644 0.0
C16 C 0.42489 0.38482 0.44532 0.0
C17 C 0.32629 0.19526 0.36621 0.0
C18 C 0.31065 0.38781 0.36439 0.0
C19 C 0.27684 0.27747 0.44675 0.0
C20 C 0.45971 0.31301 0.34023 0.0
C21 C 0.47559 0.23126 0.43245 0.0
O22 O 0.435 0.39012 0.42004 0.0
O23 O 0.11704 0.13818 0.95393 0.0
Zn24 Zn 0.15029 0.19573 0.94187 0.0
O25 O 0.14283 0.20085 0.90267 0.0
Zn26 Zn 0.20596 0.20497 0.88453 0.0
Zn27 Zn 0.10488 0.15056 0.88808 0.0
Zn28 Zn 0.10518 0.25467 0.89599 0.0
O29 O 0.21129 0.26722 0.86516 0.0
O30 O 0.1506 0.30559 0.88578 0.0
O31 O 0.22277 0.19693 0.95359 0.0
O32 O 0.25937 0.20339 0.91306 0.0
O33 O 0.21846 0.14735 0.86135 0.0
O34 O 0.15074 0.10688 0.87055 0.0
O35 O 0.0598 0.17076 0.8575 0.0
O36 O 0.10864 0.2425 0.96197 0.0
O37 O 0.06347 0.24575 0.863 0.0
O38 O 0.0617 0.26897 0.92834 0.0
C39 C 0.08172 0.11489 0.94376 0.0
C40 C 0.18884 0.30475 0.87054 0.0
C41 C 0.19324 0.11047 0.85974 0.0
C42 C 0.2618 0.19983 0.93902 0.0
C43 C 0.04867 0.21095 0.84976 0.0
C44 C 0.0702 0.26361 0.95377 0.0
O45 O 0.06917 0.1184 0.91869 0.0
O46 O 0.89464 0.1417 0.54953 0.0
Zn47 Zn 0.882 0.20658 0.55718 0.0
O48 O 0.87368 0.21248 0.59603 0.0
Zn49 Zn 0.80416 0.22388 0.60477 0.0
Zn50 Zn 0.90116 0.15883 0.61427 0.0
Zn51 Zn 0.91338 0.26251 0.60711 0.0
O52 O 0.79698 0.28887 0.62134 0.0
O53 O 0.87229 0.31669 0.61355 0.0
O54 O 0.82024 0.22093 0.53649 0.0
O55 O 0.76411 0.22349 0.56961 0.0
O56 O 0.77726 0.17015 0.62791 0.0
O57 O 0.84487 0.12717 0.63121 0.0
O58 O 0.94541 0.1744 0.64678 0.0
O59 O 0.94192 0.24027 0.54296 0.0
O60 O 0.9435 0.24966 0.64285 0.0
O61 O 0.96735 0.2754 0.58058 0.0
C62 C 0.91569 0.109 0.56195 0.0
C63 C 0.82785 0.32211 0.6212 0.0
C64 C 0.79935 0.13386 0.63589 0.0
C65 C 0.77548 0.2235 0.54427 0.0
C66 C 0.95516 0.21407 0.65614 0.0
C67 C 0.97344 0.26475 0.55558 0.0
O68 O 0.9287 0.11228 0.587 0.0
O69 O 0.62599 0.34514 0.03732 0.0
Zn70 Zn 0.65193 0.2883 0.05551 0.0
O71 O 0.64384 0.29373 0.09484 0.0
Zn72 Zn 0.70508 0.28329 0.1143 0.0
Zn73 Zn 0.61874 0.35327 0.10352 0.0
Zn74 Zn 0.59473 0.25093 0.10673 0.0
O75 O 0.7026 0.22086 0.1339 0.0
O76 O 0.62832 0.19561 0.12142 0.0
O77 O 0.72484 0.27964 0.04507 0.0
O78 O 0.75903 0.27875 0.08642 0.0
O79 O 0.72387 0.33991 0.13738 0.0
O80 O 0.67264 0.39088 0.11877 0.0
O81 O 0.57006 0.3505 0.13404 0.0
O82 O 0.60493 0.24021 0.04039 0.0
O83 O 0.5557 0.27641 0.13832 0.0
O84 O 0.55127 0.23419 0.07473 0.0
C85 C 0.59913 0.37822 0.04544 0.0
C86 C 0.66994 0.1892 0.13292 0.0
C87 C 0.70935 0.38111 0.13385 0.0
C88 C 0.76297 0.27765 0.06045 0.0
C89 C 0.54986 0.31733 0.14652 0.0
C90 C 0.56262 0.22838 0.04961 0.0
O91 O 0.5901 0.38446 0.07073 0.0
O92 O 0.58033 0.66088 0.54431 0.0
Zn93 Zn 0.61113 0.72151 0.55443 0.0
O94 O 0.62395 0.72461 0.59314 0.0
Zn95 Zn 0.6933 0.73006 0.6019 0.0
Zn96 Zn 0.59815 0.67031 0.60839 0.0
Zn97 Zn 0.58767 0.7732 0.60985 0.0
O98 O 0.70487 0.79135 0.62195 0.0
O99 O 0.63284 0.82619 0.6144 0.0
O100 O 0.67469 0.72825 0.53305 0.0
O101 O 0.73095 0.73251 0.56618 0.0
O102 O 0.71816 0.67109 0.62087 0.0
O103 O 0.65248 0.62728 0.61354 0.0
O104 O 0.57274 0.68085 0.64569 0.0
O105 O 0.55784 0.7667 0.54457 0.0
O106 O 0.56589 0.75611 0.64839 0.0
O107 O 0.53037 0.78893 0.58546 0.0
C108 C 0.55224 0.63515 0.55844 0.0
C109 C 0.67779 0.8273 0.62202 0.0
C110 C 0.69729 0.63179 0.62056 0.0
C111 C 0.71956 0.73117 0.54085 0.0
C112 C 0.56321 0.7167 0.65933 0.0
C113 C 0.52545 0.78627 0.55952 0.0
O114 O 0.54934 0.6395 0.58429 0.0
O115 O 0.87211 0.86458 0.04132 0.0
Zn116 Zn 0.85018 0.80132 0.05426 0.0
O117 O 0.85742 0.79613 0.09408 0.0
Zn118 Zn 0.79501 0.7867 0.11278 0.0
Zn119 Zn 0.88679 0.85073 0.10781 0.0
Zn120 Zn 0.90191 0.74705 0.10334 0.0
O121 O 0.79488 0.7247 0.13246 0.0
O122 O 0.86238 0.69255 0.11486 0.0
O123 O 0.77776 0.79049 0.04289 0.0
O124 O 0.74315 0.78244 0.0839 0.0
O125 O 0.77412 0.84274 0.13581 0.0
O126 O 0.83685 0.88856 0.12629 0.0
O127 O 0.93879 0.83892 0.13533 0.0
O128 O 0.89955 0.75865 0.03589 0.0
O129 O 0.94463 0.76346 0.13596 0.0
O130 O 0.94482 0.73254 0.07061 0.0
C131 C 0.8995 0.8939 0.05328 0.0
C132 C 0.82232 0.68969 0.12844 0.0
C133 C 0.79487 0.88194 0.13705 0.0
C134 C 0.73963 0.78438 0.05793 0.0
C135 C 0.95646 0.80249 0.14543 0.0
C136 C 0.93746 0.73752 0.04499 0.0
O137 O 0.91182 0.88958 0.07821 0.0
O138 O 0.08408 0.85223 0.45326 0.0
Zn139 Zn 0.11297 0.79343 0.43984 0.0
O140 O 0.12339 0.79532 0.40087 0.0
Zn141 Zn 0.19271 0.79238 0.39135 0.0
Zn142 Zn 0.09353 0.84987 0.38758 0.0
Zn143 Zn 0.08815 0.74594 0.38411 0.0
O144 O 0.206 0.73094 0.3718 0.0
O145 O 0.13483 0.69414 0.37864 0.0
O146 O 0.17685 0.78509 0.46002 0.0
O147 O 0.2321 0.79117 0.42649 0.0
O148 O 0.21381 0.85162 0.37119 0.0
O149 O 0.14601 0.89355 0.37743 0.0
O150 O 0.05966 0.83926 0.35214 0.0
O151 O 0.05928 0.74833 0.44943 0.0
O152 O 0.06414 0.76429 0.34648 0.0
O153 O 0.03091 0.72863 0.40837 0.0
C154 C 0.05432 0.87919 0.44132 0.0
C155 C 0.18005 0.69424 0.37143 0.0
C156 C 0.19055 0.88963 0.36958 0.0
C157 C 0.22145 0.78746 0.45182 0.0
C158 C 0.05388 0.8039 0.33738 0.0
C159 C 0.0262 0.73013 0.43434 0.0
O160 O 0.04898 0.87876 0.41543 0.0
O161 O 0.38151 0.62268 0.94873 0.0
Zn162 Zn 0.35278 0.68539 0.93911 0.0
O163 O 0.35896 0.69696 0.89966 0.0
Zn164 Zn 0.29509 0.70337 0.88231 0.0
Zn165 Zn 0.39364 0.64742 0.88278 0.0
Zn166 Zn 0.39796 0.75121 0.89284 0.0
O167 O 0.28984 0.76587 0.86374 0.0
O168 O 0.35327 0.80289 0.88256 0.0
O169 O 0.28014 0.69076 0.95179 0.0
O170 O 0.2439 0.70272 0.91163 0.0
O171 O 0.27796 0.64775 0.85842 0.0
O172 O 0.34788 0.60866 0.86154 0.0
O173 O 0.44554 0.66781 0.85699 0.0
O174 O 0.39856 0.72854 0.95936 0.0
O175 O 0.4434 0.74326 0.86028 0.0
O176 O 0.43922 0.76518 0.92635 0.0
C177 C 0.41187 0.598 0.93525 0.0
C178 C 0.31362 0.80287 0.86848 0.0
C179 C 0.30381 0.61237 0.8531 0.0
C180 C 0.24128 0.6974 0.93745 0.0
C181 C 0.45989 0.70699 0.84923 0.0
C182 C 0.43349 0.75479 0.95151 0.0
O183 O 0.42247 0.60674 0.91049 0.0
H184 H 0.28056 0.92801 0.38243 0.0
H185 H 0.14971 0.9465 0.33274 0.0
H186 H 0.17572 0.02504 0.3218 0.0
H187 H 0.2776 0.03264 0.41276 0.0
H188 H 0.34311 0.04324 0.41342 0.0
H189 H 0.32043 0.98552 0.41299 0.0
H190 H 0.37173 0.96814 0.36951 0.0
H191 H 0.39528 0.02576 0.37001 0.0
H192 H 0.36515 0.00407 0.33979 0.0
H193 H 0.20651 0.10496 0.32341 0.0
H194 H 0.24507 0.17951 0.33405 0.0
H195 H 0.35768 0.1102 0.38149 0.0
C196 C 0.25882 0.94798 0.36821 0.0
C197 C 0.21358 0.9311 0.35805 0.0
C198 C 0.18481 0.95876 0.34044 0.0
C199 C 0.19924 0.00343 0.33414 0.0
C200 C 0.24277 0.02005 0.34549 0.0
C201 C 0.27272 0.99303 0.36177 0.0
C202 C 0.31495 0.02088 0.37353 0.0
C203 C 0.31392 0.02054 0.40503 0.0
C204 C 0.36473 0.00369 0.36254 0.0
C205 C 0.30274 0.06786 0.36227 0.0
C206 C 0.26114 0.06656 0.346 0.0
C207 C 0.23991 0.10631 0.33552 0.0
C208 C 0.26183 0.14853 0.34179 0.0
C209 C 0.30472 0.15065 0.35823 0.0
C210 C 0.3256 0.10961 0.36828 0.0
H211 H 0.15404 0.39069 0.88143 0.0
H212 H 0.2649 0.31857 0.83399 0.0
H213 H 0.2961 0.39244 0.81662 0.0
H214 H 0.13255 0.48569 0.8323 0.0
H215 H 0.126 0.5269 0.8595 0.0
H216 H 0.10768 0.46837 0.86491 0.0
H217 H 0.16543 0.46328 0.90711 0.0
H218 H 0.18316 0.52178 0.90204 0.0
H219 H 0.22972 0.47787 0.90335 0.0
H220 H 0.3219 0.47364 0.80938 0.0
H221 H 0.34454 0.55458 0.816 0.0
H222 H 0.21593 0.57421 0.86722 0.0
C223 C 0.1843 0.39019 0.86696 0.0
C224 C 0.20686 0.34863 0.859 0.0
C225 C 0.24689 0.34983 0.84037 0.0
C226 C 0.2646 0.39165 0.83022 0.0
C227 C 0.24165 0.43196 0.83869 0.0
C228 C 0.20239 0.4315 0.8567 0.0
C229 C 0.18757 0.47949 0.86499 0.0
C230 C 0.13534 0.49076 0.85481 0.0
C231 C 0.19177 0.48596 0.89621 0.0
C232 C 0.22605 0.50713 0.84978 0.0
C233 C 0.25624 0.47909 0.83425 0.0
C234 C 0.29782 0.49602 0.82089 0.0
C235 C 0.31026 0.54211 0.82462 0.0
C236 C 0.28124 0.57078 0.84153 0.0
C237 C 0.23748 0.55351 0.85326 0.0
H238 H 0.66276 0.54463 0.61671 0.0
H239 H 0.79337 0.62226 0.63908 0.0
H240 H 0.83794 0.54959 0.64739 0.0
H241 H 0.6791 0.44955 0.6648 0.0
H242 H 0.65698 0.40819 0.64035 0.0
H243 H 0.63407 0.46597 0.63951 0.0
H244 H 0.66023 0.47295 0.58867 0.0
H245 H 0.68309 0.41532 0.58931 0.0
H246 H 0.7233 0.46138 0.57921 0.0
H247 H 0.86952 0.46887 0.64927 0.0
H248 H 0.88793 0.38737 0.64234 0.0
H249 H 0.73627 0.36292 0.61791 0.0
C250 C 0.70052 0.54675 0.62384 0.0
C251 C 0.72452 0.58938 0.62742 0.0
C252 C 0.77416 0.59013 0.63634 0.0
C253 C 0.79961 0.54903 0.6412 0.0
C254 C 0.77475 0.50771 0.63712 0.0
C255 C 0.72629 0.50638 0.6286 0.0
C256 C 0.70896 0.45791 0.62337 0.0
C257 C 0.66731 0.44463 0.6432 0.0
C258 C 0.69298 0.45154 0.59337 0.0
C259 C 0.75576 0.43186 0.62958 0.0
C260 C 0.79302 0.46121 0.63786 0.0
C261 C 0.84051 0.44563 0.64308 0.0
C262 C 0.85055 0.39924 0.639 0.0
C263 C 0.81342 0.36879 0.6296 0.0
C264 C 0.76508 0.38518 0.62556 0.0
H265 H 0.76048 0.14859 0.14063 0.0
H266 H 0.60318 0.12399 0.14777 0.0
H267 H 0.6192 0.04289 0.15783 0.0
H268 H 0.78668 0.0519 0.10477 0.0
H269 H 0.84551 0.04024 0.12046 0.0
H270 H 0.82254 0.09774 0.11938 0.0
H271 H 0.83064 0.10376 0.17212 0.0
H272 H 0.85378 0.04606 0.17335 0.0
H273 H 0.80081 0.06193 0.19354 0.0
H274 H 0.65113 0.96228 0.15934 0.0
H275 H 0.69668 0.89009 0.15165 0.0
H276 H 0.83294 0.96723 0.1447 0.0
C277 C 0.72956 0.1265 0.14533 0.0
C278 C 0.68064 0.14278 0.14358 0.0
C279 C 0.64105 0.11238 0.14904 0.0
C280 C 0.64976 0.0662 0.15492 0.0
C281 C 0.69832 0.05076 0.1555 0.0
C282 C 0.73763 0.08011 0.1511 0.0
C283 C 0.7858 0.05404 0.14969 0.0
C284 C 0.8116 0.06141 0.12193 0.0
C285 C 0.81976 0.06724 0.17361 0.0
C286 C 0.76715 0.00546 0.15268 0.0
C287 C 0.71672 0.00417 0.1565 0.0
C288 C 0.69083 0.96284 0.157 0.0
C289 C 0.71699 0.92192 0.15267 0.0
C290 C 0.76843 0.92275 0.14769 0.0
C291 C 0.79371 0.96512 0.14873 0.0
H292 H 0.71389 0.09625 0.61669 0.0
H293 H 0.82809 0.08006 0.67787 0.0
H294 H 0.8036 0.99975 0.68451 0.0
H295 H 0.62183 0.01119 0.64873 0.0
H296 H 0.60344 0.99187 0.61521 0.0
H297 H 0.62166 0.05051 0.62035 0.0
H298 H 0.68648 0.04162 0.58181 0.0
H299 H 0.66986 0.98271 0.57711 0.0
H300 H 0.73293 0.99778 0.58457 0.0
H301 H 0.78116 0.91803 0.67629 0.0
H302 H 0.75111 0.84294 0.65973 0.0
H303 H 0.6496 0.91197 0.60505 0.0
C304 C 0.73145 0.07657 0.63272 0.0
C305 C 0.77222 0.09446 0.64714 0.0
C306 C 0.79615 0.06709 0.667 0.0
C307 C 0.78275 0.02132 0.67076 0.0
C308 C 0.74488 0.00353 0.65473 0.0
C309 C 0.71846 0.0306 0.63669 0.0
C310 C 0.68303 1.00194 0.61988 0.0
C311 C 0.6293 0.01463 0.62645 0.0
C312 C 0.69376 0.00629 0.58903 0.0
C313 C 0.69549 0.95459 0.63031 0.0
C314 C 0.73116 0.95616 0.65045 0.0
C315 C 0.75212 0.91639 0.66112 0.0
C316 C 0.73532 0.87393 0.6514 0.0
C317 C 0.69774 0.87169 0.63138 0.0
C318 C 0.67772 0.91264 0.6208 0.0
H319 H 0.85621 0.60627 0.11171 0.0
H320 H 0.75242 0.6699 0.16758 0.0
H321 H 0.72399 0.59341 0.18225 0.0
H322 H 0.77647 0.52348 0.08837 0.0
H323 H 0.82247 0.47944 0.08466 0.0
H324 H 0.84011 0.53846 0.08241 0.0
H325 H 0.90419 0.52593 0.12108 0.0
H326 H 0.88609 0.4668 0.12366 0.0
H327 H 0.88435 0.50302 0.1535 0.0
H328 H 0.69961 0.51116 0.18635 0.0
H329 H 0.67558 0.4315 0.17611 0.0
H330 H 0.79452 0.42118 0.11743 0.0
C331 C 0.82837 0.60422 0.12756 0.0
C332 C 0.8069 0.64417 0.13873 0.0
C333 C 0.76958 0.63984 0.15883 0.0
C334 C 0.7535 0.59651 0.16744 0.0
C335 C 0.77513 0.55782 0.15578 0.0
C336 C 0.8116 0.56134 0.13614 0.0
C337 C 0.82446 0.51503 0.1242 0.0
C338 C 0.81529 0.51407 0.09309 0.0
C339 C 0.87796 0.50193 0.13103 0.0
C340 C 0.78819 0.48494 0.13941 0.0
C341 C 0.76089 0.51013 0.15804 0.0
C342 C 0.7216 0.49088 0.17241 0.0
C343 C 0.70846 0.4455 0.16668 0.0
C344 C 0.73451 0.41992 0.14682 0.0
C345 C 0.77576 0.4394 0.13369 0.0
H346 H 0.22148 0.42539 0.37856 0.0
H347 H 0.35025 0.44564 0.32746 0.0
H348 H 0.32594 0.52568 0.31962 0.0
H349 H 0.13693 0.50805 0.34006 0.0
H350 H 0.10915 0.52686 0.37164 0.0
H351 H 0.13067 0.46885 0.36828 0.0
H352 H 0.18453 0.47981 0.41155 0.0
H353 H 0.16426 0.53803 0.41471 0.0
H354 H 0.22923 0.52544 0.41248 0.0
H355 H 0.29801 0.6064 0.32516 0.0
H356 H 0.26144 0.68047 0.33886 0.0
H357 H 0.14947 0.60838 0.38538 0.0
C358 C 0.24287 0.44605 0.36451 0.0
C359 C 0.28718 0.42923 0.35317 0.0
C360 C 0.31572 0.45781 0.33595 0.0
C361 C 0.30233 0.50338 0.33147 0.0
C362 C 0.26004 0.51991 0.34423 0.0
C363 C 0.23 0.49192 0.3599 0.0
C364 C 0.18943 0.51943 0.37353 0.0
C365 C 0.13852 0.50494 0.36272 0.0
C366 C 0.19207 0.51543 0.40492 0.0
C367 C 0.20274 0.56721 0.36405 0.0
C368 C 0.24343 0.56676 0.34707 0.0
C369 C 0.26529 0.60714 0.33785 0.0
C370 C 0.24459 0.64906 0.34591 0.0
C371 C 0.20233 0.65024 0.36289 0.0
C372 C 0.18119 0.60863 0.37189 0.0
H373 H 0.28236 0.07214 0.87126 0.0
H374 H 0.14852 0.05258 0.82435 0.0
H375 H 0.17175 0.97238 0.81554 0.0
H376 H 0.36312 0.98707 0.83173 0.0
H377 H 0.39219 0.96867 0.86301 0.0
H378 H 0.37188 0.02701 0.85942 0.0
H379 H 0.32021 0.01864 0.9037 0.0
H380 H 0.33935 0.9602 0.90717 0.0
H381 H 0.27457 0.97395 0.90592 0.0
H382 H 0.20021 0.89178 0.81972 0.0
H383 H 0.23441 0.81757 0.83441 0.0
H384 H 0.34914 0.88866 0.87958 0.0
C385 C 0.25957 0.05158 0.85782 0.0
C386 C 0.21438 0.06861 0.84783 0.0
C387 C 0.18384 0.04022 0.83162 0.0
C388 C 0.19669 0.99462 0.82659 0.0
C389 C 0.24017 0.9779 0.838 0.0
C390 C 0.2716 0.00566 0.85297 0.0
C391 C 0.31226 0.97785 0.86622 0.0
C392 C 0.36287 0.99093 0.85438 0.0
C393 C 0.31149 0.98297 0.8976 0.0
C394 C 0.29736 0.9301 0.85748 0.0
C395 C 0.2562 0.93089 0.84085 0.0
C396 C 0.23315 0.89075 0.83221 0.0
C397 C 0.25266 0.84872 0.84082 0.0
C398 C 0.29462 0.84711 0.85806 0.0
C399 C 0.31743 0.88853 0.86611 0.0
H400 H 0.4819 0.46219 0.43799 0.0
H401 H 0.39551 0.38838 0.49854 0.0
H402 H 0.41498 0.44692 0.53283 0.0
H403 H 0.57813 0.4956 0.48345 0.0
H404 H 0.58687 0.55126 0.46846 0.0
H405 H 0.56407 0.50485 0.44783 0.0
H406 H 0.48753 0.5532 0.43472 0.0
H407 H 0.51006 0.59974 0.45542 0.0
H408 H 0.44925 0.57687 0.46138 0.0
H409 H 0.44494 0.5109 0.56103 0.0
H410 H 0.487 0.57633 0.58234 0.0
H411 H 0.55502 0.60947 0.50425 0.0
C412 C 0.46686 0.45854 0.45841 0.0
C413 C 0.43718 0.42065 0.46551 0.0
C414 C 0.41848 0.41696 0.49254 0.0
C415 C 0.42909 0.45016 0.51221 0.0
C416 C 0.45845 0.48691 0.5046 0.0
C417 C 0.47727 0.4914 0.47845 0.0
C418 C 0.50957 0.53351 0.47619 0.0
C419 C 0.56281 0.52051 0.46854 0.0
C420 C 0.48778 0.56786 0.45571 0.0
C421 C 0.50639 0.55138 0.50526 0.0
C422 C 0.4763 0.52413 0.52116 0.0
C423 C 0.46845 0.53273 0.54882 0.0
C424 C 0.49258 0.56999 0.56072 0.0
C425 C 0.52435 0.59806 0.54499 0.0
C426 C 0.53078 0.58883 0.5168 0.0
H427 H 0.92213 0.90389 -0.00155 0.0
H428 H 0.91792 0.97604 0.07612 0.0
H429 H 0.95845 0.04219 0.05502 0.0
H430 H 0.03939 0.93896 0.97944 0.0
H431 H 0.02699 0.94647 0.94348 0.0
H432 H 0.99107 0.90649 0.96312 0.0
H433 H 0.91051 0.94736 0.94856 0.0
H434 H 0.94616 0.98718 0.92853 0.0
H435 H 0.90415 0.00792 0.9543 0.0
H436 H 0.00866 0.09505 0.02864 0.0
H437 H 0.06111 0.13682 0.99613 0.0
H438 H 0.03244 0.0339 0.93405 0.0
C439 C 0.92854 0.93419 0.01068 0.0
C440 C 0.91711 0.93492 0.03889 0.0
C441 C 0.92679 0.97471 0.05451 0.0
C442 C 0.94959 0.01255 0.04271 0.0
C443 C 0.96221 0.01024 0.0152 0.0
C444 C 0.95158 0.97256 -0.00084 0.0
C445 C 0.97246 0.97836 0.97053 0.0
C446 C 0.00968 0.94031 0.96376 0.0
C447 C 0.93083 0.98033 0.94922 0.0
C448 C 0.99783 0.02433 0.97348 0.0
C449 C 0.99109 0.04195 -0.00054 0.0
C450 C 0.01361 0.08215 0.00806 0.0
C451 C 0.04373 0.10531 0.98955 0.0
C452 C 0.05079 0.08841 0.96269 0.0
C453 C 0.02717 0.04764 0.95443 0.0
H454 H 0.99414 0.04895 0.56437 0.0
H455 H 0.85535 0.07557 0.52309 0.0
H456 H 0.87293 0.01439 0.4901 0.0
H457 H 0.06339 0.03293 0.50658 0.0
H458 H 0.1013 0.98685 0.51903 0.0
H459 H 0.07494 0.02704 0.54274 0.0
H460 H 0.03322 0.96106 0.56947 0.0
H461 H 0.06024 0.92048 0.54609 0.0
H462 H 0.99445 0.92099 0.55146 0.0
H463 H 0.91037 0.96138 0.45735 0.0
H464 H 0.96292 0.91147 0.42895 0.0
H465 H 0.07681 0.91569 0.49136 0.0
C466 C 0.96684 0.04061 0.54897 0.0
C467 C 0.92351 0.06684 0.54617 0.0
C468 C 0.88895 0.0559 0.52542 0.0
C469 C 0.89845 0.02114 0.50664 0.0
C470 C 0.94249 0.99728 0.50902 0.0
C471 C 0.97584 0.00577 0.52988 0.0
C472 C 0.02212 0.97736 0.52619 0.0
C473 C 0.06813 0.00788 0.52347 0.0
C474 C 0.02782 0.94292 0.5497 0.0
C475 C 0.01022 0.95342 0.49947 0.0
C476 C 0.96395 0.96529 0.49006 0.0
C477 C 0.94625 0.95086 0.46473 0.0
C478 C 0.97649 0.92299 0.44864 0.0
C479 C 0.02364 0.9097 0.45808 0.0
C480 C 0.04054 0.92489 0.48389 0.0
H481 H 0.42815 0.58144 0.99023 0.0
H482 H 0.45305 0.52598 0.90888 0.0
H483 H 0.50318 0.46433 0.92848 0.0
H484 H 0.54846 0.56039 0.01551 0.0
H485 H 0.52931 0.54432 0.04949 0.0
H486 H 0.49209 0.58302 0.02966 0.0
H487 H 0.41637 0.52976 0.03532 0.0
H488 H 0.4532 0.49118 0.05549 0.0
H489 H 0.42128 0.47051 0.02558 0.0
H490 H 0.55458 0.41201 0.95564 0.0
H491 H 0.59999 0.36727 0.98994 0.0
H492 H 0.54238 0.45497 0.0543 0.0
C493 C 0.44341 0.5558 0.97667 0.0
C494 C 0.43679 0.5586 0.94804 0.0
C495 C 0.45788 0.52474 0.93087 0.0
C496 C 0.48642 0.48951 0.94178 0.0
C497 C 0.49351 0.48844 0.96991 0.0
C498 C 0.47232 0.52023 0.98724 0.0
C499 C 0.48717 0.51145 0.01669 0.0
C500 C 0.51597 0.55222 0.02852 0.0
C501 C 0.4418 0.50004 0.03431 0.0
C502 C 0.52022 0.47009 0.013 0.0
C503 C 0.52334 0.4576 0.98581 0.0
C504 C 0.55225 0.42114 0.97706 0.0
C505 C 0.57812 0.39609 0.99672 0.0
C506 C 0.57479 0.40751 0.02485 0.0
C507 C 0.54567 0.4453 0.03298 0.0
H508 H 0.51788 0.25425 0.18417 0.0
H509 H 0.5329 0.40029 0.17057 0.0
H510 H 0.51252 0.41461 0.21891 0.0
H511 H 0.41505 0.26232 0.23407 0.0
H512 H 0.43853 0.21538 0.25404 0.0
H513 H 0.44931 0.21717 0.21767 0.0
H514 H 0.54326 0.20998 0.22653 0.0
H515 H 0.53293 0.20939 0.26292 0.0
H516 H 0.57361 0.25136 0.2481 0.0
H517 H 0.49982 0.41287 0.26942 0.0
H518 H 0.48287 0.39599 0.31786 0.0
H519 H 0.47506 0.25112 0.29871 0.0
C520 C 0.5155 0.28933 0.19112 0.0
C521 C 0.52707 0.32612 0.17352 0.0
C522 C 0.52413 0.37149 0.18359 0.0
C523 C 0.51284 0.38002 0.21108 0.0
C524 C 0.50411 0.34287 0.22816 0.0
C525 C 0.50419 0.29849 0.2185 0.0
C526 C 0.49488 0.26469 0.24138 0.0
C527 C 0.44656 0.23835 0.2365 0.0
C528 C 0.53879 0.23194 0.24493 0.0
C529 C 0.49044 0.29703 0.26545 0.0
C530 C 0.49612 0.34192 0.25736 0.0
C531 C 0.49471 0.37789 0.27598 0.0
C532 C 0.48548 0.36786 0.30352 0.0
C533 C 0.47752 0.3222 0.31216 0.0
C534 C 0.48099 0.28636 0.29283 0.0
H535 H 0.02449 0.14658 0.8105 0.0
H536 H 0.022 0.29246 0.82743 0.0
H537 H 0.00041 0.30754 0.77957 0.0
H538 H 0.07807 0.15239 0.74557 0.0
H539 H 0.04117 0.10826 0.72993 0.0
H540 H 0.05261 0.10714 0.76623 0.0
H541 H 0.95868 0.10567 0.776 0.0
H542 H 0.94693 0.10563 0.7397 0.0
H543 H 0.91962 0.14889 0.76116 0.0
H544 H 0.99034 0.30842 0.7299 0.0
H545 H 0.97412 0.29498 0.68134 0.0
H546 H 0.97693 0.14821 0.69529 0.0
C547 C 0.01811 0.18159 0.80431 0.0
C548 C 0.02535 0.21833 0.82277 0.0
C549 C 0.01693 0.26368 0.81376 0.0
C550 C 0.00488 0.27271 0.78654 0.0
C551 C 0.00053 0.23603 0.76863 0.0
C552 C 0.00539 0.1913 0.77713 0.0
C553 C 0.99862 0.15851 0.75329 0.0
C554 C 0.04541 0.12989 0.74849 0.0
C555 C 0.95325 0.12787 0.75781 0.0
C556 C 0.99024 0.19205 0.73009 0.0
C557 C 0.99219 0.2365 0.73956 0.0
C558 C 0.9877 0.2738 0.72224 0.0
C559 C 0.97881 0.26564 0.69457 0.0
C560 C 0.97365 0.22044 0.68439 0.0
C561 C 0.98052 0.1831 0.70238 0.0
H562 H 0.46035 0.77227 0.80899 0.0
H563 H 0.52887 0.6451 0.83409 0.0
H564 H 0.56879 0.63854 0.78903 0.0
H565 H 0.42897 0.7379 0.74481 0.0
H566 H 0.4414 0.79069 0.72713 0.0
H567 H 0.42583 0.79153 0.76292 0.0
H568 H 0.50658 0.83499 0.77408 0.0
H569 H 0.52203 0.83526 0.73819 0.0
H570 H 0.56485 0.8121 0.76274 0.0
H571 H 0.58823 0.63763 0.74038 0.0
H572 H 0.59532 0.6467 0.69068 0.0
H573 H 0.51623 0.77557 0.69539 0.0
C574 C 0.4855 0.74418 0.80532 0.0
C575 C 0.49199 0.70934 0.82499 0.0
C576 C 0.52372 0.67219 0.81927 0.0
C577 C 0.54654 0.6682 0.79377 0.0
C578 C 0.53743 0.70177 0.77429 0.0
C579 C 0.50848 0.73954 0.77976 0.0
C580 C 0.50111 0.76817 0.75417 0.0
C581 C 0.44606 0.77228 0.74684 0.0
C582 C 0.52509 0.81544 0.7575 0.0
C583 C 0.52863 0.7394 0.73333 0.0
C584 C 0.54943 0.70148 0.74558 0.0
C585 C 0.57312 0.66767 0.73058 0.0
C586 C 0.57638 0.67294 0.70228 0.0
C587 C 0.55627 0.71187 0.68914 0.0
C588 C 0.53231 0.74572 0.70494 0.0
H589 H 0.96981 0.73765 0.18548 0.0
H590 H 0.00626 0.8773 0.16331 0.0
H591 H 0.03819 0.89085 0.20969 0.0
H592 H 0.92549 0.76092 0.24977 0.0
H593 H 0.95049 0.71151 0.26683 0.0
H594 H 0.93737 0.70926 0.23076 0.0
H595 H 0.02761 0.68586 0.22044 0.0
H596 H 0.04083 0.68692 0.25659 0.0
H597 H 0.07755 0.72046 0.23331 0.0
H598 H 0.05304 0.89373 0.2591 0.0
H599 H 0.06314 0.88263 0.30851 0.0
H600 H 0.02047 0.74016 0.29983 0.0
C601 C 0.98625 0.77048 0.19011 0.0
C602 C 0.9856 0.80644 0.1708 0.0
C603 C 0.00635 0.8493 0.1778 0.0
C604 C 0.02453 0.85738 0.20409 0.0
C605 C 0.02219 0.82209 0.22308 0.0
C606 C 0.00472 0.77915 0.21639 0.0
C607 C 0.00382 0.74827 0.24133 0.0
C608 C 0.95116 0.73153 0.24752 0.0
C609 C 0.03959 0.70799 0.2377 0.0
C610 C 0.02189 0.78117 0.26313 0.0
C611 C 0.03212 0.8235 0.25201 0.0
C612 C 0.04615 0.86052 0.26803 0.0
C613 C 0.0512 0.85391 0.29618 0.0
C614 C 0.04263 0.81046 0.30808 0.0
C615 C 0.02756 0.77365 0.29129 0.0
H616 H 0.49999 0.23556 0.48695 0.0
H617 H 0.55931 0.19968 0.40717 0.0
H618 H 0.64215 0.19207 0.42751 0.0
H619 H 0.59739 0.30425 0.50771 0.0
H620 H 0.5969 0.28683 0.54308 0.0
H621 H 0.54102 0.28431 0.52324 0.0
H622 H 0.5312 0.19829 0.53449 0.0
H623 H 0.58658 0.2007 0.55484 0.0
H624 H 0.58142 0.15964 0.52747 0.0
H625 H 0.71963 0.19701 0.45525 0.0
H626 H 0.78553 0.20553 0.48959 0.0
H627 H 0.67576 0.23728 0.55156 0.0
C628 C 0.53007 0.22493 0.47383 0.0
C629 C 0.52297 0.21818 0.44541 0.0
C630 C 0.56362 0.20485 0.42899 0.0
C631 C 0.61092 0.20061 0.44034 0.0
C632 C 0.6169 0.20941 0.46817 0.0
C633 C 0.57748 0.22048 0.48481 0.0
C634 C 0.59421 0.23005 0.51386 0.0
C635 C 0.58163 0.27928 0.52246 0.0
C636 C 0.57204 0.19508 0.53385 0.0
C637 C 0.64935 0.22356 0.5108 0.0
C638 C 0.66163 0.21172 0.48427 0.0
C639 C 0.71043 0.20568 0.47618 0.0
C640 C 0.74764 0.21097 0.49583 0.0
C641 C 0.73592 0.22203 0.52334 0.0
C642 C 0.686 0.22864 0.53077 0.0
H643 H 0.9719 0.28014 0.94392 0.0
H644 H 0.07948 0.26952 0.00944 0.0
H645 H 0.0124 0.27436 0.04344 0.0
H646 H 0.88557 0.35848 0.97956 0.0
H647 H 0.83199 0.33047 0.96554 0.0
H648 H 0.88886 0.3315 0.94643 0.0
H649 H 0.88656 0.24322 0.94306 0.0
H650 H 0.8302 0.24179 0.96254 0.0
H651 H 0.8831 0.20975 0.97396 0.0
H652 H 0.93422 0.27326 0.07008 0.0
H653 H 0.84991 0.27128 0.08833 0.0
H654 H 0.79124 0.28176 0.00579 0.0
C655 C 0.98155 0.28024 0.96542 0.0
C656 C 0.03118 0.27494 0.97399 0.0
C657 C 0.04192 0.27393 0.00235 0.0
C658 C 0.00402 0.27652 0.02183 0.0
C659 C 0.95548 0.2801 0.01267 0.0
C660 C 0.94407 0.28245 0.98518 0.0
C661 C 0.88855 0.28365 0.98085 0.0
C662 C 0.87282 0.32871 0.9673 0.0
C663 C 0.8711 0.24213 0.96411 0.0
C664 C 0.87057 0.28097 0.01022 0.0
C665 C 0.90994 0.27907 0.02816 0.0
C666 C 0.9031 0.27521 0.05625 0.0
C667 C 0.85483 0.27393 0.0664 0.0
C668 C 0.81354 0.27646 0.04856 0.0
C669 C 0.82179 0.27978 0.02001 0.0
H670 H 0.0004 0.25152 0.5017 0.0
H671 H 0.05457 0.30257 0.57968 0.0
H672 H 0.13748 0.31102 0.55998 0.0
H673 H 0.10466 0.18666 0.48421 0.0
H674 H 0.10388 0.20035 0.44825 0.0
H675 H 0.0473 0.20082 0.46758 0.0
H676 H 0.03084 0.2845 0.45296 0.0
H677 H 0.08697 0.28406 0.4332 0.0
H678 H 0.07745 0.32733 0.45894 0.0
H679 H 0.21569 0.30605 0.534 0.0
H680 H 0.28349 0.29925 0.50067 0.0
H681 H 0.17914 0.25596 0.43838 0.0
C682 C 0.02948 0.26528 0.51448 0.0
C683 C 0.02089 0.27622 0.54228 0.0
C684 C 0.06004 0.29401 0.55833 0.0
C685 C 0.10742 0.29877 0.54738 0.0
C686 C 0.11497 0.28625 0.52025 0.0
C687 C 0.07703 0.27085 0.50377 0.0
C688 C 0.09553 0.25961 0.47526 0.0
C689 C 0.08735 0.20884 0.46844 0.0
C690 C 0.07126 0.29074 0.45382 0.0
C691 C 0.14991 0.27038 0.47854 0.0
C692 C 0.16025 0.28522 0.50476 0.0
C693 C 0.20806 0.29511 0.51327 0.0
C694 C 0.24635 0.29072 0.49426 0.0
C695 C 0.23648 0.27718 0.46697 0.0
C696 C 0.18761 0.26669 0.45908 0.0
H697 H 0.46263 0.22175 0.05855 0.0
H698 H 0.57469 0.20309 0.99598 0.0
H699 H 0.50952 0.18907 0.96176 0.0
H700 H 0.37366 0.13636 0.03176 0.0
H701 H 0.32116 0.17126 0.04045 0.0
H702 H 0.37665 0.17452 0.06069 0.0
H703 H 0.38015 0.26188 0.05257 0.0
H704 H 0.32509 0.25888 0.03207 0.0
H705 H 0.38057 0.28347 0.01803 0.0
H706 H 0.43299 0.18468 0.93357 0.0
H707 H 0.35003 0.18686 0.91328 0.0
H708 H 0.28638 0.20849 0.99386 0.0
C709 C 0.4736 0.21349 0.03781 0.0
C710 C 0.52398 0.21319 0.03005 0.0
C711 C 0.5365 0.20328 0.00252 0.0
C712 C 0.4997 0.19528 0.9829 0.0
C713 C 0.45047 0.1972 0.9911 0.0
C714 C 0.43729 0.20565 0.01792 0.0
C715 C 0.38161 0.20868 0.02094 0.0
C716 C 0.36213 0.17041 0.03956 0.0
C717 C 0.36596 0.25604 0.03153 0.0
C718 C 0.3656 0.2015 0.99151 0.0
C719 C 0.406 0.19473 0.97471 0.0
C720 C 0.40105 0.18942 0.94656 0.0
C721 C 0.35363 0.19098 0.93521 0.0
C722 C 0.31143 0.1978 0.95193 0.0
C723 C 0.31771 0.20283 0.98053 0.0
H724 H 0.49894 0.78033 0.50541 0.0
H725 H 0.44295 0.819 0.58548 0.0
H726 H 0.35917 0.82521 0.56623 0.0
H727 H 0.41493 0.85405 0.46499 0.0
H728 H 0.40903 0.81181 0.43832 0.0
H729 H 0.46527 0.81561 0.45785 0.0
H730 H 0.45697 0.72997 0.47047 0.0
H731 H 0.40021 0.72608 0.45151 0.0
H732 H 0.40161 0.71016 0.48712 0.0
H733 H 0.28034 0.81774 0.53977 0.0
H734 H 0.21301 0.80697 0.5064 0.0
H735 H 0.32065 0.7747 0.44343 0.0
C736 C 0.46939 0.79133 0.51881 0.0
C737 C 0.47768 0.79916 0.547 0.0
C738 C 0.43771 0.81299 0.5638 0.0
C739 C 0.38988 0.81642 0.55309 0.0
C740 C 0.38272 0.80641 0.5255 0.0
C741 C 0.4215 0.79505 0.50845 0.0
C742 C 0.4036 0.78412 0.47983 0.0
C743 C 0.42444 0.81846 0.45902 0.0
C744 C 0.41636 0.73465 0.47178 0.0
C745 C 0.34858 0.79021 0.4836 0.0
C746 C 0.3373 0.80291 0.51011 0.0
C747 C 0.28875 0.80846 0.51884 0.0
C748 C 0.25075 0.80187 0.49978 0.0
C749 C 0.26155 0.79013 0.47228 0.0
C750 C 0.3112 0.78399 0.46424 0.0
H751 H 0.03588 0.72175 0.05533 0.0
H752 H 0.92721 0.72247 0.99006 0.0
H753 H 0.99307 0.70736 0.9564 0.0
H754 H 0.12743 0.78125 0.01915 0.0
H755 H 0.179 0.7499 0.03288 0.0
H756 H 0.12312 0.75537 0.05253 0.0
H757 H 0.11687 0.66736 0.05649 0.0
H758 H 0.17303 0.66156 0.03703 0.0
H759 H 0.11765 0.63294 0.02587 0.0
H760 H 0.06989 0.69829 0.92961 0.0
H761 H 0.15342 0.69498 0.91059 0.0
H762 H 0.21502 0.70132 0.99264 0.0
C763 C 0.02577 0.71754 0.03404 0.0
C764 C 0.97616 0.72281 0.02536 0.0
C765 C 0.96476 0.71833 0.99722 0.0
C766 C 0.00195 0.7097 0.97795 0.0
C767 C 0.05048 0.70578 0.98709 0.0
C768 C 0.06261 0.70937 0.01443 0.0
C769 C 0.11821 0.70681 0.01845 0.0
C770 C 0.13809 0.75096 0.03152 0.0
C771 C 0.13226 0.66465 0.03547 0.0
C772 C 0.13542 0.70197 0.989 0.0
C773 C 0.0955 0.70114 0.97139 0.0
C774 C 0.10142 0.69855 0.9432 0.0
C775 C 0.14931 0.6969 0.93261 0.0
C776 C 0.19123 0.69795 0.95005 0.0
C777 C 0.18395 0.70016 0.97874 0.0
H778 H 0.99766 0.74119 0.48785 0.0
H779 H 0.94453 0.69442 0.40877 0.0
H780 H 0.86019 0.68898 0.42754 0.0
H781 H 0.91453 0.67078 0.53012 0.0
H782 H 0.90706 0.71545 0.5552 0.0
H783 H 0.96374 0.71104 0.53611 0.0
H784 H 0.95348 0.79503 0.52037 0.0
H785 H 0.89628 0.79946 0.5389 0.0
H786 H 0.89793 0.81184 0.50279 0.0
H787 H 0.78022 0.69622 0.45368 0.0
H788 H 0.71221 0.70716 0.48669 0.0
H789 H 0.81812 0.74883 0.54857 0.0
C790 C 0.96866 0.72861 0.4746 0.0
C791 C 0.97797 0.71809 0.4468 0.0
C792 C 0.93855 0.70244 0.43016 0.0
C793 C 0.8904 0.69946 0.44059 0.0
C794 C 0.88226 0.71198 0.46775 0.0
C795 C 0.92044 0.72551 0.48464 0.0
C796 C 0.90168 0.73881 0.51274 0.0
C797 C 0.92301 0.70712 0.53485 0.0
C798 C 0.91302 0.78927 0.51905 0.0
C799 C 0.84688 0.73108 0.50894 0.0
C800 C 0.83636 0.7158 0.48282 0.0
C801 C 0.78808 0.70769 0.47428 0.0
C802 C 0.74965 0.71435 0.49314 0.0
C803 C 0.75972 0.72876 0.52028 0.0
C804 C 0.80908 0.73758 0.52805 0.0
H805 H 0.71113 0.78973 0.0032 0.0
H806 H 0.65325 0.77246 0.08555 0.0
H807 H 0.56913 0.77002 0.06734 0.0
H808 H 0.61076 0.86122 0.97785 0.0
H809 H 0.60976 0.83514 0.94442 0.0
H810 H 0.66648 0.83736 0.96363 0.0
H811 H 0.6754 0.74947 0.95964 0.0
H812 H 0.61906 0.74712 0.94018 0.0
H813 H 0.62543 0.71329 0.97077 0.0
H814 H 0.49136 0.76656 0.04101 0.0
H815 H 0.42457 0.75789 0.00715 0.0
H816 H 0.53022 0.77811 0.94144 0.0
C817 C 0.68077 0.7855 0.01737 0.0
C818 C 0.68926 0.78141 0.04587 0.0
C819 C 0.64823 0.77576 0.06365 0.0
C820 C 0.6 0.77451 0.05355 0.0
C821 C 0.59287 0.77899 0.02554 0.0
C822 C 0.63194 0.78411 0.0076 0.0
C823 C 0.61354 0.78636 0.97827 0.0
C824 C 0.62588 0.83279 0.96528 0.0
C825 C 0.6346 0.74669 0.96121 0.0
C826 C 0.5583 0.7811 0.98266 0.0
C827 C 0.54732 0.77726 0.01015 0.0
C828 C 0.49934 0.76991 0.0194 0.0
C829 C 0.46161 0.76512 2e-05 0.0
C830 C 0.47194 0.76779 0.97166 0.0
C831 C 0.52088 0.77689 0.96298 0.0
loop_
_geom_bond_atom_site_label_1
_geom_bond_atom_site_label_2
_geom_bond_distance
_geom_bond_site_symmetry_2
_ccdc_geom_bond_type
O0 Zn1 1.953 . S
O0 C16 1.225 . S
Zn1 O0 1.953 . S
Zn1 O2 1.949 . S
Zn1 O8 1.919 . S
Zn1 O13 1.924 . S
O2 Zn1 1.949 . S
O2 Zn3 1.923 . S
O2 Zn4 1.950 . S
O2 Zn5 1.945 . S
Zn3 O2 1.923 . S
Zn3 O6 1.933 . S
Zn3 O9 1.941 . S
Zn3 O10 1.965 . S
Zn4 O2 1.950 . S
Zn4 O11 1.938 . S
Zn4 O12 1.906 . S
Zn4 O22 1.953 . S
Zn5 O2 1.945 . S
Zn5 O7 1.932 . S
Zn5 O14 1.977 . S
Zn5 O15 1.910 . S
O6 Zn3 1.933 . S
O6 C17 1.226 . S
O7 Zn5 1.932 . S
O7 C17 1.307 . S
O8 Zn1 1.919 . S
O8 C19 1.253 . S
O9 Zn3 1.941 . S
O9 C19 1.283 . S
O10 Zn3 1.965 . S
O10 C18 1.303 . S
O11 Zn4 1.938 . S
O11 C18 1.247 . S
O12 Zn4 1.906 . S
O12 C20 1.304 . S
O13 Zn1 1.924 . S
O13 C21 1.311 . S
O14 Zn5 1.977 . S
O14 C20 1.272 . S
O15 Zn5 1.910 . S
O15 C21 1.231 . S
C16 O0 1.225 . S
C16 O22 1.298 . S
C17 O6 1.226 . S
C17 O7 1.307 . S
C18 O10 1.303 . S
C18 O11 1.247 . S
C19 O8 1.253 . S
C19 O9 1.283 . S
C20 O12 1.304 . S
C20 O14 1.272 . S
C21 O13 1.311 . S
C21 O15 1.231 . S
O22 Zn4 1.953 . S
O22 C16 1.298 . S
O23 Zn24 1.953 . S
O23 C39 1.225 . S
Zn24 O23 1.953 . S
Zn24 O25 1.949 . S
Zn24 O31 1.919 . S
Zn24 O36 1.924 . S
O25 Zn24 1.949 . S
O25 Zn26 1.923 . S
O25 Zn27 1.950 . S
O25 Zn28 1.945 . S
Zn26 O25 1.923 . S
Zn26 O29 1.933 . S
Zn26 O32 1.941 . S
Zn26 O33 1.965 . S
Zn27 O25 1.950 . S
Zn27 O34 1.938 . S
Zn27 O35 1.906 . S
Zn27 O45 1.953 . S
Zn28 O25 1.945 . S
Zn28 O30 1.932 . S
Zn28 O37 1.977 . S
Zn28 O38 1.910 . S
O29 Zn26 1.933 . S
O29 C40 1.226 . S
O30 Zn28 1.932 . S
O30 C40 1.307 . S
O31 Zn24 1.919 . S
O31 C42 1.253 . S
O32 Zn26 1.941 . S
O32 C42 1.283 . S
O33 Zn26 1.965 . S
O33 C41 1.303 . S
O34 Zn27 1.938 . S
O34 C41 1.247 . S
O35 Zn27 1.906 . S
O35 C43 1.304 . S
O36 Zn24 1.924 . S
O36 C44 1.311 . S
O37 Zn28 1.977 . S
O37 C43 1.272 . S
O38 Zn28 1.910 . S
O38 C44 1.231 . S
C39 O23 1.225 . S
C39 O45 1.298 . S
C40 O29 1.226 . S
C40 O30 1.307 . S
C41 O33 1.303 . S
C41 O34 1.247 . S
C42 O31 1.253 . S
C42 O32 1.283 . S
C43 O35 1.304 . S
C43 O37 1.272 . S
C44 O36 1.311 . S
C44 O38 1.231 . S
O45 Zn27 1.953 . S
O45 C39 1.298 . S
O46 Zn47 1.953 . S
O46 C62 1.225 . S
Zn47 O46 1.953 . S
Zn47 O48 1.949 . S
Zn47 O54 1.919 . S
Zn47 O59 1.924 . S
O48 Zn47 1.949 . S
O48 Zn49 1.923 . S
O48 Zn50 1.950 . S
O48 Zn51 1.945 . S
Zn49 O48 1.923 . S
Zn49 O52 1.933 . S
Zn49 O55 1.941 . S
Zn49 O56 1.965 . S
Zn50 O48 1.950 . S
Zn50 O57 1.938 . S
Zn50 O58 1.906 . S
Zn50 O68 1.953 . S
Zn51 O48 1.945 . S
Zn51 O53 1.932 . S
Zn51 O60 1.977 . S
Zn51 O61 1.910 . S
O52 Zn49 1.933 . S
O52 C63 1.226 . S
O53 Zn51 1.932 . S
O53 C63 1.307 . S
O54 Zn47 1.919 . S
O54 C65 1.253 . S
O55 Zn49 1.941 . S
O55 C65 1.283 . S
O56 Zn49 1.965 . S
O56 C64 1.303 . S
O57 Zn50 1.938 . S
O57 C64 1.247 . S
O58 Zn50 1.906 . S
O58 C66 1.304 . S
O59 Zn47 1.924 . S
O59 C67 1.311 . S
O60 Zn51 1.977 . S
O60 C66 1.272 . S
O61 Zn51 1.910 . S
O61 C67 1.231 . S
C62 O46 1.225 . S
C62 O68 1.298 . S
C63 O52 1.226 . S
C63 O53 1.307 . S
C64 O56 1.303 . S
C64 O57 1.247 . S
C65 O54 1.253 . S
C65 O55 1.283 . S
C66 O58 1.304 . S
C66 O60 1.272 . S
C67 O59 1.311 . S
C67 O61 1.231 . S
O68 Zn50 1.953 . S
O68 C62 1.298 . S
O69 Zn70 1.953 . S
O69 C85 1.225 . S
Zn70 O69 1.953 . S
Zn70 O71 1.949 . S
Zn70 O77 1.919 . S
Zn70 O82 1.924 . S
O71 Zn70 1.949 . S
O71 Zn72 1.923 . S
O71 Zn73 1.950 . S
O71 Zn74 1.945 . S
Zn72 O71 1.923 . S
Zn72 O75 1.933 . S
Zn72 O78 1.941 . S
Zn72 O79 1.965 . S
Zn73 O71 1.950 . S
Zn73 O80 1.938 . S
Zn73 O81 1.906 . S
Zn73 O91 1.953 . S
Zn74 O71 1.945 . S
Zn74 O76 1.932 . S
Zn74 O83 1.977 . S
Zn74 O84 1.910 . S
O75 Zn72 1.933 . S
O75 C86 1.226 . S
O76 Zn74 1.932 . S
O76 C86 1.307 . S
O77 Zn70 1.919 . S
O77 C88 1.253 . S
O78 Zn72 1.941 . S
O78 C88 1.283 . S
O79 Zn72 1.965 . S
O79 C87 1.303 . S
O80 Zn73 1.938 . S
O80 C87 1.247 . S
O81 Zn73 1.906 . S
O81 C89 1.304 . S
O82 Zn70 1.924 . S
O82 C90 1.311 . S
O83 Zn74 1.977 . S
O83 C89 1.272 . S
O84 Zn74 1.910 . S
O84 C90 1.231 . S
C85 O69 1.225 . S
C85 O91 1.298 . S
C86 O75 1.226 . S
C86 O76 1.307 . S
C87 O79 1.303 . S
C87 O80 1.247 . S
C88 O77 1.253 . S
C88 O78 1.283 . S
C89 O81 1.304 . S
C89 O83 1.272 . S
C90 O82 1.311 . S
C90 O84 1.231 . S
O91 Zn73 1.953 . S
O91 C85 1.298 . S
O92 Zn93 1.953 . S
O92 C108 1.225 . S
Zn93 O92 1.953 . S
Zn93 O94 1.949 . S
Zn93 O100 1.919 . S
Zn93 O105 1.924 . S
O94 Zn93 1.949 . S
O94 Zn95 1.923 . S
O94 Zn96 1.950 . S
O94 Zn97 1.945 . S
Zn95 O94 1.923 . S
Zn95 O98 1.933 . S
Zn95 O101 1.941 . S
Zn95 O102 1.965 . S
Zn96 O94 1.950 . S
Zn96 O103 1.938 . S
Zn96 O104 1.906 . S
Zn96 O114 1.953 . S
Zn97 O94 1.945 . S
Zn97 O99 1.932 . S
Zn97 O106 1.977 . S
Zn97 O107 1.910 . S
O98 Zn95 1.933 . S
O98 C109 1.226 . S
O99 Zn97 1.932 . S
O99 C109 1.307 . S
O100 Zn93 1.919 . S
O100 C111 1.253 . S
O101 Zn95 1.941 . S
O101 C111 1.283 . S
O102 Zn95 1.965 . S
O102 C110 1.303 . S
O103 Zn96 1.938 . S
O103 C110 1.247 . S
O104 Zn96 1.906 . S
O104 C112 1.304 . S
O105 Zn93 1.924 . S
O105 C113 1.311 . S
O106 Zn97 1.977 . S
O106 C112 1.272 . S
O107 Zn97 1.910 . S
O107 C113 1.231 . S
C108 O92 1.225 . S
C108 O114 1.298 . S
C109 O98 1.226 . S
C109 O99 1.307 . S
C110 O102 1.303 . S
C110 O103 1.247 . S
C111 O100 1.253 . S
C111 O101 1.283 . S
C112 O104 1.304 . S
C112 O106 1.272 . S
C113 O105 1.311 . S
C113 O107 1.231 . S
O114 Zn96 1.953 . S
O114 C108 1.298 . S
O115 Zn116 1.953 . S
O115 C131 1.225 . S
Zn116 O115 1.953 . S
Zn116 O117 1.949 . S
Zn116 O123 1.919 . S
Zn116 O128 1.924 . S
O117 Zn116 1.949 . S
O117 Zn118 1.923 . S
O117 Zn119 1.950 . S
O117 Zn120 1.945 . S
Zn118 O117 1.923 . S
Zn118 O121 1.933 . S
Zn118 O124 1.941 . S
Zn118 O125 1.965 . S
Zn119 O117 1.950 . S
Zn119 O126 1.938 . S
Zn119 O127 1.906 . S
Zn119 O137 1.953 . S
Zn120 O117 1.945 . S
Zn120 O122 1.932 . S
Zn120 O129 1.977 . S
Zn120 O130 1.910 . S
O121 Zn118 1.933 . S
O121 C132 1.226 . S
O122 Zn120 1.932 . S
O122 C132 1.307 . S
O123 Zn116 1.919 . S
O123 C134 1.253 . S
O124 Zn118 1.941 . S
O124 C134 1.283 . S
O125 Zn118 1.965 . S
O125 C133 1.303 . S
O126 Zn119 1.938 . S
O126 C133 1.247 . S
O127 Zn119 1.906 . S
O127 C135 1.304 . S
O128 Zn116 1.924 . S
O128 C136 1.311 . S
O129 Zn120 1.977 . S
O129 C135 1.272 . S
O130 Zn120 1.910 . S
O130 C136 1.231 . S
C131 O115 1.225 . S
C131 O137 1.298 . S
C132 O121 1.226 . S
C132 O122 1.307 . S
C133 O125 1.303 . S
C133 O126 1.247 . S
C134 O123 1.253 . S
C134 O124 1.283 . S
C135 O127 1.304 . S
C135 O129 1.272 . S
C136 O128 1.311 . S
C136 O130 1.231 . S
O137 Zn119 1.953 . S
O137 C131 1.298 . S
O138 Zn139 1.953 . S
O138 C154 1.225 . S
Zn139 O138 1.953 . S
Zn139 O140 1.949 . S
Zn139 O146 1.919 . S
Zn139 O151 1.924 . S
O140 Zn139 1.949 . S
O140 Zn141 1.923 . S
O140 Zn142 1.950 . S
O140 Zn143 1.945 . S
Zn141 O140 1.923 . S
Zn141 O144 1.933 . S
Zn141 O147 1.941 . S
Zn141 O148 1.965 . S
Zn142 O140 1.950 . S
Zn142 O149 1.938 . S
Zn142 O150 1.906 . S
Zn142 O160 1.953 . S
Zn143 O140 1.945 . S
Zn143 O145 1.932 . S
Zn143 O152 1.977 . S
Zn143 O153 1.910 . S
O144 Zn141 1.933 . S
O144 C155 1.226 . S
O145 Zn143 1.932 . S
O145 C155 1.307 . S
O146 Zn139 1.919 . S
O146 C157 1.253 . S
O147 Zn141 1.941 . S
O147 C157 1.283 . S
O148 Zn141 1.965 . S
O148 C156 1.303 . S
O149 Zn142 1.938 . S
O149 C156 1.247 . S
O150 Zn142 1.906 . S
O150 C158 1.304 . S
O151 Zn139 1.924 . S
O151 C159 1.311 . S
O152 Zn143 1.977 . S
O152 C158 1.272 . S
O153 Zn143 1.910 . S
O153 C159 1.231 . S
C154 O138 1.225 . S
C154 O160 1.298 . S
C155 O144 1.226 . S
C155 O145 1.307 . S
C156 O148 1.303 . S
C156 O149 1.247 . S
C157 O146 1.253 . S
C157 O147 1.283 . S
C158 O150 1.304 . S
C158 O152 1.272 . S
C159 O151 1.311 . S
C159 O153 1.231 . S
O160 Zn142 1.953 . S
O160 C154 1.298 . S
O161 Zn162 1.953 . S
O161 C177 1.225 . S
Zn162 O161 1.953 . S
Zn162 O163 1.949 . S
Zn162 O169 1.919 . S
Zn162 O174 1.924 . S
O163 Zn162 1.949 . S
O163 Zn164 1.923 . S
O163 Zn165 1.950 . S
O163 Zn166 1.945 . S
Zn164 O163 1.923 . S
Zn164 O167 1.933 . S
Zn164 O170 1.941 . S
Zn164 O171 1.965 . S
Zn165 O163 1.950 . S
Zn165 O172 1.938 . S
Zn165 O173 1.906 . S
Zn165 O183 1.953 . S
Zn166 O163 1.945 . S
Zn166 O168 1.932 . S
Zn166 O175 1.977 . S
Zn166 O176 1.910 . S
O167 Zn164 1.933 . S
O167 C178 1.226 . S
O168 Zn166 1.932 . S
O168 C178 1.307 . S
O169 Zn162 1.919 . S
O169 C180 1.253 . S
O170 Zn164 1.941 . S
O170 C180 1.283 . S
O171 Zn164 1.965 . S
O171 C179 1.303 . S
O172 Zn165 1.938 . S
O172 C179 1.247 . S
O173 Zn165 1.906 . S
O173 C181 1.304 . S
O174 Zn162 1.924 . S
O174 C182 1.311 . S
O175 Zn166 1.977 . S
O175 C181 1.272 . S
O176 Zn166 1.910 . S
O176 C182 1.231 . S
C177 O161 1.225 . S
C177 O183 1.298 . S
C178 O167 1.226 . S
C178 O168 1.307 . S
C179 O171 1.303 . S
C179 O172 1.247 . S
C180 O169 1.253 . S
C180 O170 1.283 . S
C181 O173 1.304 . S
C181 O175 1.272 . S
C182 O174 1.311 . S
C182 O176 1.231 . S
O183 Zn165 1.953 . S
O183 C177 1.298 . S
H184 C196 0.930 . S
H185 C198 0.930 . S
H186 C199 0.930 . S
H187 C203 0.959 . S
H188 C203 0.959 . S
H189 C203 0.961 . S
H190 C204 0.960 . S
H191 C204 0.961 . S
H192 C204 0.959 . S
H193 C207 0.929 . S
H194 C208 0.931 . S
H195 C210 0.930 . S
C196 H184 0.930 . S
C196 C197 1.399 . S
C196 C201 1.399 1_565 S
C197 C196 1.399 . S
C197 C198 1.376 . S
C198 H185 0.930 . S
C198 C197 1.376 . S
C198 C199 1.388 1_565 S
C199 H186 0.930 . S
C199 C198 1.388 1_545 S
C199 C200 1.390 . S
C200 C199 1.390 . S
C200 C201 1.394 . S
C200 C206 1.465 . S
C201 C196 1.399 1_545 S
C201 C200 1.394 . S
C201 C202 1.516 . S
C202 C201 1.516 . S
C202 C203 1.502 . S
C202 C204 1.561 . S
C202 C205 1.526 . S
C203 H187 0.959 . S
C203 H188 0.959 . S
C203 H189 0.961 . S
C203 C202 1.502 . S
C204 H190 0.960 . S
C204 H191 0.961 . S
C204 H192 0.959 . S
C204 C202 1.561 . S
C205 C202 1.526 . S
C205 C206 1.396 . S
C205 C210 1.390 . S
C206 C200 1.465 . S
C206 C205 1.396 . S
C206 C207 1.399 . S
C207 H193 0.929 . S
C207 C206 1.399 . S
C207 C208 1.385 . S
C208 H194 0.931 . S
C208 C207 1.385 . S
C208 C209 1.389 . S
C209 C208 1.389 . S
C209 C210 1.387 . S
C210 H195 0.930 . S
C210 C205 1.390 . S
C210 C209 1.387 . S
H211 C223 0.930 . S
H212 C225 0.930 . S
H213 C226 0.930 . S
H214 C230 0.959 . S
H215 C230 0.959 . S
H216 C230 0.961 . S
H217 C231 0.960 . S
H218 C231 0.961 . S
H219 C231 0.959 . S
H220 C234 0.929 . S
H221 C235 0.931 . S
H222 C237 0.930 . S
C223 H211 0.930 . S
C223 C224 1.399 . S
C223 C228 1.399 . S
C224 C223 1.399 . S
C224 C225 1.376 . S
C225 H212 0.930 . S
C225 C224 1.376 . S
C225 C226 1.388 . S
C226 H213 0.930 . S
C226 C225 1.388 . S
C226 C227 1.390 . S
C227 C226 1.390 . S
C227 C228 1.394 . S
C227 C233 1.465 . S
C228 C223 1.399 . S
C228 C227 1.394 . S
C228 C229 1.516 . S
C229 C228 1.516 . S
C229 C230 1.502 . S
C229 C231 1.561 . S
C229 C232 1.526 . S
C230 H214 0.959 . S
C230 H215 0.959 . S
C230 H216 0.961 . S
C230 C229 1.502 . S
C231 H217 0.960 . S
C231 H218 0.961 . S
C231 H219 0.959 . S
C231 C229 1.561 . S
C232 C229 1.526 . S
C232 C233 1.396 . S
C232 C237 1.390 . S
C233 C227 1.465 . S
C233 C232 1.396 . S
C233 C234 1.399 . S
C234 H220 0.929 . S
C234 C233 1.399 . S
C234 C235 1.385 . S
C235 H221 0.931 . S
C235 C234 1.385 . S
C235 C236 1.389 . S
C236 C235 1.389 . S
C236 C237 1.387 . S
C237 H222 0.930 . S
C237 C232 1.390 . S
C237 C236 1.387 . S
H238 C250 0.930 . S
H239 C252 0.930 . S
H240 C253 0.930 . S
H241 C257 0.959 . S
H242 C257 0.959 . S
H243 C257 0.961 . S
H244 C258 0.960 . S
H245 C258 0.961 . S
H246 C258 0.959 . S
H247 C261 0.929 . S
H248 C262 0.931 . S
H249 C264 0.930 . S
C250 H238 0.930 . S
C250 C251 1.399 . S
C250 C255 1.399 . S
C251 C250 1.399 . S
C251 C252 1.376 . S
C252 H239 0.930 . S
C252 C251 1.376 . S
C252 C253 1.388 . S
C253 H240 0.930 . S
C253 C252 1.388 . S
C253 C254 1.390 . S
C254 C253 1.390 . S
C254 C255 1.394 . S
C254 C260 1.465 . S
C255 C250 1.399 . S
C255 C254 1.394 . S
C255 C256 1.516 . S
C256 C255 1.516 . S
C256 C257 1.502 . S
C256 C258 1.561 . S
C256 C259 1.526 . S
C257 H241 0.959 . S
C257 H242 0.959 . S
C257 H243 0.961 . S
C257 C256 1.502 . S
C258 H244 0.960 . S
C258 H245 0.961 . S
C258 H246 0.959 . S
C258 C256 1.561 . S
C259 C256 1.526 . S
C259 C260 1.396 . S
C259 C264 1.390 . S
C260 C254 1.465 . S
C260 C259 1.396 . S
C260 C261 1.399 . S
C261 H247 0.929 . S
C261 C260 1.399 . S
C261 C262 1.385 . S
C262 H248 0.931 . S
C262 C261 1.385 . S
C262 C263 1.389 . S
C263 C262 1.389 . S
C263 C264 1.387 . S
C264 H249 0.930 . S
C264 C259 1.390 . S
C264 C263 1.387 . S
H265 C277 0.930 . S
H266 C279 0.930 . S
H267 C280 0.930 . S
H268 C284 0.959 . S
H269 C284 0.959 . S
H270 C284 0.961 . S
H271 C285 0.960 . S
H272 C285 0.961 . S
H273 C285 0.959 . S
H274 C288 0.929 . S
H275 C289 0.931 . S
H276 C291 0.930 . S
C277 H265 0.930 . S
C277 C278 1.399 . S
C277 C282 1.399 . S
C278 C277 1.399 . S
C278 C279 1.376 . S
C279 H266 0.930 . S
C279 C278 1.376 . S
C279 C280 1.388 . S
C280 H267 0.930 . S
C280 C279 1.388 . S
C280 C281 1.390 . S
C281 C280 1.390 . S
C281 C282 1.394 . S
C281 C287 1.465 . S
C282 C277 1.399 . S
C282 C281 1.394 . S
C282 C283 1.516 . S
C283 C282 1.516 . S
C283 C284 1.502 . S
C283 C285 1.561 . S
C283 C286 1.526 . S
C284 H268 0.959 . S
C284 H269 0.959 . S
C284 H270 0.961 . S
C284 C283 1.502 . S
C285 H271 0.960 . S
C285 H272 0.961 . S
C285 H273 0.959 . S
C285 C283 1.561 . S
C286 C283 1.526 . S
C286 C287 1.396 . S
C286 C291 1.390 1_545 S
C287 C281 1.465 . S
C287 C286 1.396 . S
C287 C288 1.399 . S
C288 H274 0.929 . S
C288 C287 1.399 . S
C288 C289 1.385 1_545 S
C289 H275 0.931 . S
C289 C288 1.385 1_565 S
C289 C290 1.389 . S
C290 C289 1.389 . S
C290 C291 1.387 . S
C291 H276 0.930 . S
C291 C286 1.390 1_565 S
C291 C290 1.387 . S
H292 C304 0.930 . S
H293 C306 0.930 . S
H294 C307 0.930 . S
H295 C311 0.959 . S
H296 C311 0.959 . S
H297 C311 0.961 . S
H298 C312 0.960 . S
H299 C312 0.961 . S
H300 C312 0.959 . S
H301 C315 0.929 . S
H302 C316 0.931 . S
H303 C318 0.930 . S
C304 H292 0.930 . S
C304 C305 1.399 . S
C304 C309 1.399 1_545 S
C305 C304 1.399 . S
C305 C306 1.376 . S
C306 H293 0.930 . S
C306 C305 1.376 . S
C306 C307 1.388 1_545 S
C307 H294 0.930 . S
C307 C306 1.388 1_565 S
C307 C308 1.390 . S
C308 C307 1.390 . S
C308 C309 1.394 . S
C308 C314 1.465 . S
C309 C304 1.399 1_565 S
C309 C308 1.394 . S
C309 C310 1.516 . S
C310 C309 1.516 . S
C310 C311 1.502 . S
C310 C312 1.561 . S
C310 C313 1.526 . S
C311 H295 0.959 . S
C311 H296 0.959 . S
C311 H297 0.961 . S
C311 C310 1.502 . S
C312 H298 0.960 . S
C312 H299 0.961 . S
C312 H300 0.959 . S
C312 C310 1.561 . S
C313 C310 1.526 . S
C313 C314 1.396 . S
C313 C318 1.390 . S
C314 C308 1.465 . S
C314 C313 1.396 . S
C314 C315 1.399 . S
C315 H301 0.929 . S
C315 C314 1.399 . S
C315 C316 1.385 . S
C316 H302 0.931 . S
C316 C315 1.385 . S
C316 C317 1.389 . S
C317 C316 1.389 . S
C317 C318 1.387 . S
C318 H303 0.930 . S
C318 C313 1.390 . S
C318 C317 1.387 . S
H319 C331 0.930 . S
H320 C333 0.930 . S
H321 C334 0.930 . S
H322 C338 0.959 . S
H323 C338 0.959 . S
H324 C338 0.961 . S
H325 C339 0.960 . S
H326 C339 0.961 . S
H327 C339 0.959 . S
H328 C342 0.929 . S
H329 C343 0.931 . S
H330 C345 0.930 . S
C331 H319 0.930 . S
C331 C332 1.399 . S
C331 C336 1.399 . S
C332 C331 1.399 . S
C332 C333 1.376 . S
C333 H320 0.930 . S
C333 C332 1.376 . S
C333 C334 1.388 . S
C334 H321 0.930 . S
C334 C333 1.388 . S
C334 C335 1.390 . S
C335 C334 1.390 . S
C335 C336 1.394 . S
C335 C341 1.465 . S
C336 C331 1.399 . S
C336 C335 1.394 . S
C336 C337 1.516 . S
C337 C336 1.516 . S
C337 C338 1.502 . S
C337 C339 1.561 . S
C337 C340 1.526 . S
C338 H322 0.959 . S
C338 H323 0.959 . S
C338 H324 0.961 . S
C338 C337 1.502 . S
C339 H325 0.960 . S
C339 H326 0.961 . S
C339 H327 0.959 . S
C339 C337 1.561 . S
C340 C337 1.526 . S
C340 C341 1.396 . S
C340 C345 1.390 . S
C341 C335 1.465 . S
C341 C340 1.396 . S
C341 C342 1.399 . S
C342 H328 0.929 . S
C342 C341 1.399 . S
C342 C343 1.385 . S
C343 H329 0.931 . S
C343 C342 1.385 . S
C343 C344 1.389 . S
C344 C343 1.389 . S
C344 C345 1.387 . S
C345 H330 0.930 . S
C345 C340 1.390 . S
C345 C344 1.387 . S
H346 C358 0.930 . S
H347 C360 0.930 . S
H348 C361 0.930 . S
H349 C365 0.959 . S
H350 C365 0.959 . S
H351 C365 0.961 . S
H352 C366 0.960 . S
H353 C366 0.961 . S
H354 C366 0.959 . S
H355 C369 0.929 . S
H356 C370 0.931 . S
H357 C372 0.930 . S
C358 H346 0.930 . S
C358 C359 1.399 . S
C358 C363 1.399 . S
C359 C358 1.399 . S
C359 C360 1.376 . S
C360 H347 0.930 . S
C360 C359 1.376 . S
C360 C361 1.388 . S
C361 H348 0.930 . S
C361 C360 1.388 . S
C361 C362 1.390 . S
C362 C361 1.390 . S
C362 C363 1.394 . S
C362 C368 1.465 . S
C363 C358 1.399 . S
C363 C362 1.394 . S
C363 C364 1.516 . S
C364 C363 1.516 . S
C364 C365 1.502 . S
C364 C366 1.561 . S
C364 C367 1.526 . S
C365 H349 0.959 . S
C365 H350 0.959 . S
C365 H351 0.961 . S
C365 C364 1.502 . S
C366 H352 0.960 . S
C366 H353 0.961 . S
C366 H354 0.959 . S
C366 C364 1.561 . S
C367 C364 1.526 . S
C367 C368 1.396 . S
C367 C372 1.390 . S
C368 C362 1.465 . S
C368 C367 1.396 . S
C368 C369 1.399 . S
C369 H355 0.929 . S
C369 C368 1.399 . S
C369 C370 1.385 . S
C370 H356 0.931 . S
C370 C369 1.385 . S
C370 C371 1.389 . S
C371 C370 1.389 . S
C371 C372 1.387 . S
C372 H357 0.930 . S
C372 C367 1.390 . S
C372 C371 1.387 . S
H373 C385 0.930 . S
H374 C387 0.930 . S
H375 C388 0.930 . S
H376 C392 0.959 . S
H377 C392 0.959 . S
H378 C392 0.961 . S
H379 C393 0.960 . S
H380 C393 0.961 . S
H381 C393 0.959 . S
H382 C396 0.929 . S
H383 C397 0.931 . S
H384 C399 0.930 . S
C385 H373 0.930 . S
C385 C386 1.399 . S
C385 C390 1.399 1_545 S
C386 C385 1.399 . S
C386 C387 1.376 . S
C387 H374 0.930 . S
C387 C386 1.376 . S
C387 C388 1.388 1_545 S
C388 H375 0.930 . S
C388 C387 1.388 1_565 S
C388 C389 1.390 . S
C389 C388 1.390 . S
C389 C390 1.394 . S
C389 C395 1.465 . S
C390 C385 1.399 1_565 S
C390 C389 1.394 . S
C390 C391 1.516 . S
C391 C390 1.516 . S
C391 C392 1.502 . S
C391 C393 1.561 . S
C391 C394 1.526 . S
C392 H376 0.959 . S
C392 H377 0.959 . S
C392 H378 0.961 . S
C392 C391 1.502 . S
C393 H379 0.960 . S
C393 H380 0.961 . S
C393 H381 0.959 . S
C393 C391 1.561 . S
C394 C391 1.526 . S
C394 C395 1.396 . S
C394 C399 1.390 . S
C395 C389 1.465 . S
C395 C394 1.396 . S
C395 C396 1.399 . S
C396 H382 0.929 . S
C396 C395 1.399 . S
C396 C397 1.385 . S
C397 H383 0.931 . S
C397 C396 1.385 . S
C397 C398 1.389 . S
C398 C397 1.389 . S
C398 C399 1.387 . S
C399 H384 0.930 . S
C399 C394 1.390 . S
C399 C398 1.387 . S
H400 C412 0.930 . S
H401 C414 0.930 . S
H402 C415 0.930 . S
H403 C419 0.959 . S
H404 C419 0.959 . S
H405 C419 0.961 . S
H406 C420 0.960 . S
H407 C420 0.961 . S
H408 C420 0.959 . S
H409 C423 0.929 . S
H410 C424 0.931 . S
H411 C426 0.930 . S
C412 H400 0.930 . S
C412 C413 1.399 . S
C412 C417 1.399 . S
C413 C412 1.399 . S
C413 C414 1.376 . S
C414 H401 0.930 . S
C414 C413 1.376 . S
C414 C415 1.388 . S
C415 H402 0.930 . S
C415 C414 1.388 . S
C415 C416 1.390 . S
C416 C415 1.390 . S
C416 C417 1.394 . S
C416 C422 1.465 . S
C417 C412 1.399 . S
C417 C416 1.394 . S
C417 C418 1.516 . S
C418 C417 1.516 . S
C418 C419 1.502 . S
C418 C420 1.561 . S
C418 C421 1.526 . S
C419 H403 0.959 . S
C419 H404 0.959 . S
C419 H405 0.961 . S
C419 C418 1.502 . S
C420 H406 0.960 . S
C420 H407 0.961 . S
C420 H408 0.959 . S
C420 C418 1.561 . S
C421 C418 1.526 . S
C421 C422 1.396 . S
C421 C426 1.390 . S
C422 C416 1.465 . S
C422 C421 1.396 . S
C422 C423 1.399 . S
C423 H409 0.929 . S
C423 C422 1.399 . S
C423 C424 1.385 . S
C424 H410 0.931 . S
C424 C423 1.385 . S
C424 C425 1.389 . S
C425 C424 1.389 . S
C425 C426 1.387 . S
C426 H411 0.930 . S
C426 C421 1.390 . S
C426 C425 1.387 . S
H427 C439 0.930 . S
H428 C441 0.930 . S
H429 C442 0.930 . S
H430 C446 0.959 1_455 S
H431 C446 0.959 . S
H432 C446 0.961 . S
H433 C447 0.960 . S
H434 C447 0.961 . S
H435 C447 0.959 1_545 S
H436 C450 0.929 1_554 S
H437 C451 0.931 . S
H438 C453 0.930 . S
C439 H427 0.930 . S
C439 C440 1.399 . S
C439 C444 1.399 . S
C440 C439 1.399 . S
C440 C441 1.376 . S
C441 H428 0.930 . S
C441 C440 1.376 . S
C441 C442 1.388 1_665 S
C442 H429 0.930 . S
C442 C441 1.388 1_445 S
C442 C443 1.390 1_455 S
C443 C442 1.390 1_655 S
C443 C444 1.394 1_545 S
C443 C449 1.465 1_654 S
C444 C439 1.399 . S
C444 C443 1.394 1_565 S
C444 C445 1.516 1_554 S
C445 C444 1.516 1_556 S
C445 C446 1.502 . S
C445 C447 1.561 . S
C445 C448 1.517 1_665 S
C446 H430 0.959 1_655 S
C446 H431 0.959 . S
C446 H432 0.961 . S
C446 C445 1.502 . S
C447 H433 0.960 . S
C447 H434 0.961 . S
C447 H435 0.959 1_565 S
C447 C445 1.561 . S
C448 C445 1.517 1_445 S
C448 C449 1.401 . S
C448 C453 1.394 . S
C449 C443 1.465 1_456 S
C449 C448 1.401 . S
C449 C450 1.399 . S
C450 H436 0.929 1_556 S
C450 C449 1.399 . S
C450 C451 1.385 . S
C451 H437 0.931 . S
C451 C450 1.385 . S
C451 C452 1.389 . S
C452 C451 1.389 . S
C452 C453 1.387 . S
C453 H438 0.930 . S
C453 C448 1.394 . S
C453 C452 1.387 . S
H454 C466 0.930 1_455 S
H455 C468 0.930 . S
H456 C469 0.930 . S
H457 C473 0.959 . S
H458 C473 0.959 . S
H459 C473 0.961 . S
H460 C474 0.960 . S
H461 C474 0.961 . S
H462 C474 0.959 1_655 S
H463 C477 0.929 1_545 S
H464 C478 0.931 1_655 S
H465 C480 0.930 . S
C466 H454 0.930 1_655 S
C466 C467 1.399 . S
C466 C471 1.399 . S
C467 C466 1.399 . S
C467 C468 1.376 . S
C468 H455 0.930 . S
C468 C467 1.376 . S
C468 C469 1.388 . S
C469 H456 0.930 . S
C469 C468 1.388 . S
C469 C470 1.390 . S
C470 C469 1.390 . S
C470 C471 1.394 . S
C470 C476 1.465 1_545 S
C471 C466 1.399 . S
C471 C470 1.394 . S
C471 C472 1.516 1_645 S
C472 C471 1.516 1_465 S
C472 C473 1.502 . S
C472 C474 1.561 . S
C472 C475 1.526 . S
C473 H457 0.959 . S
C473 H458 0.959 . S
C473 H459 0.961 . S
C473 C472 1.502 . S
C474 H460 0.960 . S
C474 H461 0.961 . S
C474 H462 0.959 1_455 S
C474 C472 1.561 . S
C475 C472 1.526 . S
C475 C476 1.396 1_455 S
C475 C480 1.390 . S
C476 C470 1.465 1_565 S
C476 C475 1.396 1_655 S
C476 C477 1.399 . S
C477 H463 0.929 1_565 S
C477 C476 1.399 . S
C477 C478 1.385 1_655 S
C478 H464 0.931 1_455 S
C478 C477 1.385 1_455 S
C478 C479 1.389 . S
C479 C478 1.389 . S
C479 C480 1.387 . S
C480 H465 0.930 . S
C480 C475 1.390 . S
C480 C479 1.387 . S
H481 C493 0.930 . S
H482 C495 0.930 . S
H483 C496 0.930 . S
H484 C500 0.959 1_556 S
H485 C500 0.959 . S
H486 C500 0.961 . S
H487 C501 0.960 . S
H488 C501 0.961 . S
H489 C501 0.959 . S
H490 C504 0.929 . S
H491 C505 0.931 . S
H492 C507 0.930 . S
C493 H481 0.930 . S
C493 C494 1.399 . S
C493 C498 1.399 . S
C494 C493 1.399 . S
C494 C495 1.376 . S
C495 H482 0.930 . S
C495 C494 1.376 . S
C495 C496 1.388 . S
C496 H483 0.930 . S
C496 C495 1.388 . S
C496 C497 1.390 . S
C497 C496 1.390 . S
C497 C498 1.394 . S
C497 C503 1.465 1_556 S
C498 C493 1.399 . S
C498 C497 1.394 . S
C498 C499 1.516 1_556 S
C499 C498 1.516 1_554 S
C499 C500 1.502 . S
C499 C501 1.561 . S
C499 C502 1.526 . S
C500 H484 0.959 1_554 S
C500 H485 0.959 . S
C500 H486 0.961 . S
C500 C499 1.502 . S
C501 H487 0.960 . S
C501 H488 0.961 . S
C501 H489 0.959 . S
C501 C499 1.561 . S
C502 C499 1.526 . S
C502 C503 1.396 . S
C502 C507 1.390 . S
C503 C497 1.465 1_554 S
C503 C502 1.396 . S
C503 C504 1.399 . S
C504 H490 0.929 . S
C504 C503 1.399 . S
C504 C505 1.385 . S
C505 H491 0.931 . S
C505 C504 1.385 . S
C505 C506 1.389 . S
C506 C505 1.389 . S
C506 C507 1.387 . S
C507 H492 0.930 . S
C507 C502 1.390 . S
C507 C506 1.387 . S
H508 C520 0.930 . S
H509 C522 0.930 . S
H510 C523 0.930 . S
H511 C527 0.959 . S
H512 C527 0.959 . S
H513 C527 0.961 . S
H514 C528 0.960 . S
H515 C528 0.961 . S
H516 C528 0.959 . S
H517 C531 0.929 . S
H518 C532 0.931 . S
H519 C534 0.930 . S
C520 H508 0.930 . S
C520 C521 1.399 . S
C520 C525 1.399 . S
C521 C520 1.399 . S
C521 C522 1.376 . S
C522 H509 0.930 . S
C522 C521 1.376 . S
C522 C523 1.388 . S
C523 H510 0.930 . S
C523 C522 1.388 . S
C523 C524 1.390 . S
C524 C523 1.390 . S
C524 C525 1.394 . S
C524 C530 1.465 . S
C525 C520 1.399 . S
C525 C524 1.394 . S
C525 C526 1.516 . S
C526 C525 1.516 . S
C526 C527 1.502 . S
C526 C528 1.561 . S
C526 C529 1.526 . S
C527 H511 0.959 . S
C527 H512 0.959 . S
C527 H513 0.961 . S
C527 C526 1.502 . S
C528 H514 0.960 . S
C528 H515 0.961 . S
C528 H516 0.959 . S
C528 C526 1.561 . S
C529 C526 1.526 . S
C529 C530 1.396 . S
C529 C534 1.390 . S
C530 C524 1.465 . S
C530 C529 1.396 . S
C530 C531 1.399 . S
C531 H517 0.929 . S
C531 C530 1.399 . S
C531 C532 1.385 . S
C532 H518 0.931 . S
C532 C531 1.385 . S
C532 C533 1.389 . S
C533 C532 1.389 . S
C533 C534 1.387 . S
C534 H519 0.930 . S
C534 C529 1.390 . S
C534 C533 1.387 . S
H535 C547 0.930 . S
H536 C549 0.930 . S
H537 C550 0.930 . S
H538 C554 0.959 . S
H539 C554 0.959 . S
H540 C554 0.961 . S
H541 C555 0.960 . S
H542 C555 0.961 . S
H543 C555 0.959 . S
H544 C558 0.929 . S
H545 C559 0.931 . S
H546 C561 0.930 . S
C547 H535 0.930 . S
C547 C548 1.399 . S
C547 C552 1.399 . S
C548 C547 1.399 . S
C548 C549 1.376 . S
C549 H536 0.930 . S
C549 C548 1.376 . S
C549 C550 1.388 1_455 S
C550 H537 0.930 . S
C550 C549 1.388 1_655 S
C550 C551 1.390 . S
C551 C550 1.390 . S
C551 C552 1.394 1_655 S
C551 C557 1.465 . S
C552 C547 1.399 . S
C552 C551 1.394 1_455 S
C552 C553 1.516 . S
C553 C552 1.516 . S
C553 C554 1.502 . S
C553 C555 1.561 1_455 S
C553 C556 1.526 1_455 S
C554 H538 0.959 . S
C554 H539 0.959 . S
C554 H540 0.961 . S
C554 C553 1.502 . S
C555 H541 0.960 . S
C555 H542 0.961 . S
C555 H543 0.959 . S
C555 C553 1.561 1_655 S
C556 C553 1.526 1_655 S
C556 C557 1.396 . S
C556 C561 1.390 . S
C557 C551 1.465 . S
C557 C556 1.396 . S
C557 C558 1.399 . S
C558 H544 0.929 . S
C558 C557 1.399 . S
C558 C559 1.385 . S
C559 H545 0.931 . S
C559 C558 1.385 . S
C559 C560 1.389 . S
C560 C559 1.389 . S
C560 C561 1.387 . S
C561 H546 0.930 . S
C561 C556 1.390 . S
C561 C560 1.387 . S
H562 C574 0.930 . S
H563 C576 0.930 . S
H564 C577 0.930 . S
H565 C581 0.959 . S
H566 C581 0.959 . S
H567 C581 0.961 . S
H568 C582 0.960 . S
H569 C582 0.961 . S
H570 C582 0.959 . S
H571 C585 0.929 . S
H572 C586 0.931 . S
H573 C588 0.930 . S
C574 H562 0.930 . S
C574 C575 1.399 . S
C574 C579 1.399 . S
C575 C574 1.399 . S
C575 C576 1.376 . S
C576 H563 0.930 . S
C576 C575 1.376 . S
C576 C577 1.388 . S
C577 H564 0.930 . S
C577 C576 1.388 . S
C577 C578 1.390 . S
C578 C577 1.390 . S
C578 C579 1.394 . S
C578 C584 1.465 . S
C579 C574 1.399 . S
C579 C578 1.394 . S
C579 C580 1.516 . S
C580 C579 1.516 . S
C580 C581 1.502 . S
C580 C582 1.561 . S
C580 C583 1.526 . S
C581 H565 0.959 . S
C581 H566 0.959 . S
C581 H567 0.961 . S
C581 C580 1.502 . S
C582 H568 0.960 . S
C582 H569 0.961 . S
C582 H570 0.959 . S
C582 C580 1.561 . S
C583 C580 1.526 . S
C583 C584 1.396 . S
C583 C588 1.390 . S
C584 C578 1.465 . S
C584 C583 1.396 . S
C584 C585 1.399 . S
C585 H571 0.929 . S
C585 C584 1.399 . S
C585 C586 1.385 . S
C586 H572 0.931 . S
C586 C585 1.385 . S
C586 C587 1.389 . S
C587 C586 1.389 . S
C587 C588 1.387 . S
C588 H573 0.930 . S
C588 C583 1.390 . S
C588 C587 1.387 . S
H589 C601 0.930 . S
H590 C603 0.933 . S
H591 C604 0.930 . S
H592 C608 0.959 . S
H593 C608 0.959 . S
H594 C608 0.961 . S
H595 C609 0.960 . S
H596 C609 0.961 . S
H597 C609 0.959 . S
H598 C612 0.929 . S
H599 C613 0.931 . S
H600 C615 0.930 . S
C601 H589 0.930 . S
C601 C602 1.399 . S
C601 C606 1.399 . S
C602 C601 1.399 . S
C602 C603 1.376 . S
C603 H590 0.933 . S
C603 C602 1.376 . S
C603 C604 1.388 1_655 S
C604 H591 0.930 . S
C604 C603 1.388 1_455 S
C604 C605 1.390 . S
C605 C604 1.390 . S
C605 C606 1.394 1_455 S
C605 C611 1.465 . S
C606 C601 1.399 . S
C606 C605 1.394 1_655 S
C606 C607 1.516 . S
C607 C606 1.516 . S
C607 C608 1.502 . S
C607 C609 1.561 1_655 S
C607 C610 1.526 1_655 S
C608 H592 0.959 . S
C608 H593 0.959 . S
C608 H594 0.961 . S
C608 C607 1.502 . S
C609 H595 0.960 . S
C609 H596 0.961 . S
C609 H597 0.959 . S
C609 C607 1.561 1_455 S
C610 C607 1.526 1_455 S
C610 C611 1.396 . S
C610 C615 1.390 . S
C611 C605 1.465 . S
C611 C610 1.396 . S
C611 C612 1.399 . S
C612 H598 0.929 . S
C612 C611 1.399 . S
C612 C613 1.385 . S
C613 H599 0.931 . S
C613 C612 1.385 . S
C613 C614 1.389 . S
C614 C613 1.389 . S
C614 C615 1.387 . S
C615 H600 0.930 . S
C615 C610 1.390 . S
C615 C614 1.387 . S
H616 C628 0.930 . S
H617 C630 0.930 . S
H618 C631 0.930 . S
H619 C635 0.959 . S
H620 C635 0.959 . S
H621 C635 0.961 . S
H622 C636 0.960 . S
H623 C636 0.961 . S
H624 C636 0.959 . S
H625 C639 0.929 . S
H626 C640 0.931 . S
H627 C642 0.930 . S
C628 H616 0.930 . S
C628 C629 1.399 . S
C628 C633 1.399 . S
C629 C628 1.399 . S
C629 C630 1.376 . S
C630 H617 0.930 . S
C630 C629 1.376 . S
C630 C631 1.388 . S
C631 H618 0.930 . S
C631 C630 1.388 . S
C631 C632 1.390 . S
C632 C631 1.390 . S
C632 C633 1.394 . S
C632 C638 1.465 . S
C633 C628 1.399 . S
C633 C632 1.394 . S
C633 C634 1.516 . S
C634 C633 1.516 . S
C634 C635 1.502 . S
C634 C636 1.561 . S
C634 C637 1.526 . S
C635 H619 0.959 . S
C635 H620 0.959 . S
C635 H621 0.961 . S
C635 C634 1.502 . S
C636 H622 0.960 . S
C636 H623 0.961 . S
C636 H624 0.959 . S
C636 C634 1.561 . S
C637 C634 1.526 . S
C637 C638 1.396 . S
C637 C642 1.390 . S
C638 C632 1.465 . S
C638 C637 1.396 . S
C638 C639 1.399 . S
C639 H625 0.929 . S
C639 C638 1.399 . S
C639 C640 1.385 . S
C640 H626 0.931 . S
C640 C639 1.385 . S
C640 C641 1.389 . S
C641 C640 1.389 . S
C641 C642 1.387 . S
C642 H627 0.930 . S
C642 C637 1.390 . S
C642 C641 1.387 . S
H643 C655 0.930 . S
H644 C657 0.930 . S
H645 C658 0.930 . S
H646 C662 0.959 . S
H647 C662 0.959 . S
H648 C662 0.961 . S
H649 C663 0.960 . S
H650 C663 0.961 . S
H651 C663 0.959 . S
H652 C666 0.929 . S
H653 C667 0.931 . S
H654 C669 0.931 1_556 S
C655 H643 0.930 . S
C655 C656 1.399 . S
C655 C660 1.399 . S
C656 C655 1.399 . S
C656 C657 1.376 . S
C657 H644 0.930 . S
C657 C656 1.376 . S
C657 C658 1.388 . S
C658 H645 0.930 . S
C658 C657 1.388 . S
C658 C659 1.390 . S
C659 C658 1.390 . S
C659 C660 1.394 . S
C659 C665 1.473 . S
C660 C655 1.399 . S
C660 C659 1.394 . S
C660 C661 1.516 . S
C661 C660 1.516 . S
C661 C662 1.502 . S
C661 C663 1.561 . S
C661 C664 1.526 . S
C662 H646 0.959 . S
C662 H647 0.959 . S
C662 H648 0.961 . S
C662 C661 1.502 . S
C663 H649 0.960 . S
C663 H650 0.961 . S
C663 H651 0.959 . S
C663 C661 1.561 . S
C664 C661 1.526 . S
C664 C665 1.400 . S
C664 C669 1.390 1_556 S
C665 C659 1.473 . S
C665 C664 1.400 . S
C665 C666 1.388 1_556 S
C666 H652 0.929 . S
C666 C665 1.388 1_554 S
C666 C667 1.385 . S
C667 H653 0.931 . S
C667 C666 1.385 . S
C667 C668 1.389 . S
C668 C667 1.389 . S
C668 C669 1.387 . S
C669 H654 0.931 1_554 S
C669 C664 1.390 1_554 S
C669 C668 1.387 . S
H670 C682 0.930 . S
H671 C684 0.930 . S
H672 C685 0.930 . S
H673 C689 0.959 . S
H674 C689 0.959 . S
H675 C689 0.961 . S
H676 C690 0.960 . S
H677 C690 0.961 . S
H678 C690 0.959 . S
H679 C693 0.929 . S
H680 C694 0.931 . S
H681 C696 0.930 . S
C682 H670 0.930 . S
C682 C683 1.399 . S
C682 C687 1.399 . S
C683 C682 1.399 . S
C683 C684 1.376 . S
C684 H671 0.930 . S
C684 C683 1.376 . S
C684 C685 1.388 . S
C685 H672 0.930 . S
C685 C684 1.388 . S
C685 C686 1.390 . S
C686 C685 1.390 . S
C686 C687 1.394 . S
C686 C692 1.465 . S
C687 C682 1.399 . S
C687 C686 1.394 . S
C687 C688 1.516 . S
C688 C687 1.516 . S
C688 C689 1.502 . S
C688 C690 1.561 . S
C688 C691 1.526 . S
C689 H673 0.959 . S
C689 H674 0.959 . S
C689 H675 0.961 . S
C689 C688 1.502 . S
C690 H676 0.960 . S
C690 H677 0.961 . S
C690 H678 0.959 . S
C690 C688 1.561 . S
C691 C688 1.526 . S
C691 C692 1.396 . S
C691 C696 1.390 . S
C692 C686 1.465 . S
C692 C691 1.396 . S
C692 C693 1.399 . S
C693 H679 0.929 . S
C693 C692 1.399 . S
C693 C694 1.385 . S
C694 H680 0.931 . S
C694 C693 1.385 . S
C694 C695 1.389 . S
C695 C694 1.389 . S
C695 C696 1.387 . S
C696 H681 0.930 . S
C696 C691 1.390 . S
C696 C695 1.387 . S
H697 C709 0.930 . S
H698 C711 0.930 . S
H699 C712 0.930 . S
H700 C716 0.959 . S
H701 C716 0.959 . S
H702 C716 0.961 . S
H703 C717 0.965 . S
H704 C717 0.961 . S
H705 C717 0.959 . S
H706 C720 0.929 . S
H707 C721 0.931 . S
H708 C723 0.930 . S
C709 H697 0.930 . S
C709 C710 1.399 . S
C709 C714 1.399 . S
C710 C709 1.399 . S
C710 C711 1.376 . S
C711 H698 0.930 . S
C711 C710 1.376 . S
C711 C712 1.388 . S
C712 H699 0.930 . S
C712 C711 1.388 . S
C712 C713 1.390 . S
C713 C712 1.390 . S
C713 C714 1.394 . S
C713 C719 1.462 1_554 S
C714 C709 1.399 . S
C714 C713 1.394 . S
C714 C715 1.516 . S
C715 C714 1.516 . S
C715 C716 1.502 . S
C715 C717 1.561 1_554 S
C715 C718 1.528 . S
C716 H700 0.959 . S
C716 H701 0.959 . S
C716 H702 0.961 . S
C716 C715 1.502 . S
C717 H703 0.965 . S
C717 H704 0.961 . S
C717 H705 0.959 . S
C717 C715 1.561 1_556 S
C718 C715 1.528 . S
C718 C719 1.396 1_554 S
C718 C723 1.387 1_554 S
C719 C713 1.462 1_556 S
C719 C718 1.396 1_556 S
C719 C720 1.402 . S
C720 H706 0.929 . S
C720 C719 1.402 . S
C720 C721 1.385 . S
C721 H707 0.931 . S
C721 C720 1.385 . S
C721 C722 1.389 . S
C722 C721 1.389 . S
C722 C723 1.387 . S
C723 H708 0.930 . S
C723 C718 1.387 1_556 S
C723 C722 1.387 . S
H724 C736 0.930 . S
H725 C738 0.930 . S
H726 C739 0.930 . S
H727 C743 0.959 . S
H728 C743 0.959 . S
H729 C743 0.961 . S
H730 C744 0.960 . S
H731 C744 0.961 . S
H732 C744 0.959 . S
H733 C747 0.929 . S
H734 C748 0.931 . S
H735 C750 0.930 . S
C736 H724 0.930 . S
C736 C737 1.399 . S
C736 C741 1.399 . S
C737 C736 1.399 . S
C737 C738 1.376 . S
C738 H725 0.930 . S
C738 C737 1.376 . S
C738 C739 1.388 . S
C739 H726 0.930 . S
C739 C738 1.388 . S
C739 C740 1.390 . S
C740 C739 1.390 . S
C740 C741 1.394 . S
C740 C746 1.465 . S
C741 C736 1.399 . S
C741 C740 1.394 . S
C741 C742 1.516 . S
C742 C741 1.516 . S
C742 C743 1.502 . S
C742 C744 1.561 . S
C742 C745 1.526 . S
C743 H727 0.959 . S
C743 H728 0.959 . S
C743 H729 0.961 . S
C743 C742 1.502 . S
C744 H730 0.960 . S
C744 H731 0.961 . S
C744 H732 0.959 . S
C744 C742 1.561 . S
C745 C742 1.526 . S
C745 C746 1.396 . S
C745 C750 1.390 . S
C746 C740 1.465 . S
C746 C745 1.396 . S
C746 C747 1.399 . S
C747 H733 0.929 . S
C747 C746 1.399 . S
C747 C748 1.385 . S
C748 H734 0.931 . S
C748 C747 1.385 . S
C748 C749 1.389 . S
C749 C748 1.389 . S
C749 C750 1.387 . S
C750 H735 0.930 . S
C750 C745 1.390 . S
C750 C749 1.387 . S
H751 C763 0.930 . S
H752 C765 0.930 . S
H753 C766 0.930 1_556 S
H754 C770 0.959 . S
H755 C770 0.959 . S
H756 C770 0.961 . S
H757 C771 0.960 . S
H758 C771 0.961 . S
H759 C771 0.959 . S
H760 C774 0.929 . S
H761 C775 0.931 . S
H762 C777 0.930 1_554 S
C763 H751 0.930 . S
C763 C764 1.399 . S
C763 C768 1.399 . S
C764 C763 1.399 . S
C764 C765 1.376 . S
C765 H752 0.930 . S
C765 C764 1.376 . S
C765 C766 1.388 . S
C766 H753 0.930 1_554 S
C766 C765 1.388 . S
C766 C767 1.390 . S
C767 C766 1.390 . S
C767 C768 1.394 . S
C767 C773 1.465 1_554 S
C768 C763 1.399 . S
C768 C767 1.394 . S
C768 C769 1.516 . S
C769 C768 1.516 . S
C769 C770 1.502 . S
C769 C771 1.561 . S
C769 C772 1.526 . S
C770 H754 0.959 . S
C770 H755 0.959 . S
C770 H756 0.961 . S
C770 C769 1.502 . S
C771 H757 0.960 . S
C771 H758 0.961 . S
C771 H759 0.959 . S
C771 C769 1.561 . S
C772 C769 1.526 . S
C772 C773 1.396 1_554 S
C772 C777 1.390 1_554 S
C773 C767 1.465 1_556 S
C773 C772 1.396 1_556 S
C773 C774 1.399 . S
C774 H760 0.929 . S
C774 C773 1.399 . S
C774 C775 1.385 . S
C775 H761 0.931 . S
C775 C774 1.385 . S
C775 C776 1.389 . S
C776 C775 1.389 . S
C776 C777 1.387 . S
C777 H762 0.930 1_556 S
C777 C772 1.390 1_556 S
C777 C776 1.387 . S
H778 C790 0.930 . S
H779 C792 0.930 . S
H780 C793 0.930 . S
H781 C797 0.959 . S
H782 C797 0.959 . S
H783 C797 0.961 . S
H784 C798 0.960 . S
H785 C798 0.961 . S
H786 C798 0.959 . S
H787 C801 0.929 . S
H788 C802 0.931 . S
H789 C804 0.930 . S
C790 H778 0.930 . S
C790 C791 1.399 . S
C790 C795 1.399 . S
C791 C790 1.399 . S
C791 C792 1.376 . S
C792 H779 0.930 . S
C792 C791 1.376 . S
C792 C793 1.388 . S
C793 H780 0.930 . S
C793 C792 1.388 . S
C793 C794 1.390 . S
C794 C793 1.390 . S
C794 C795 1.394 . S
C794 C800 1.465 . S
C795 C790 1.399 . S
C795 C794 1.394 . S
C795 C796 1.516 . S
C796 C795 1.516 . S
C796 C797 1.502 . S
C796 C798 1.561 . S
C796 C799 1.526 . S
C797 H781 0.959 . S
C797 H782 0.959 . S
C797 H783 0.961 . S
C797 C796 1.502 . S
C798 H784 0.960 . S
C798 H785 0.961 . S
C798 H786 0.959 . S
C798 C796 1.561 . S
C799 C796 1.526 . S
C799 C800 1.396 . S
C799 C804 1.390 . S
C800 C794 1.465 . S
C800 C799 1.396 . S
C800 C801 1.399 . S
C801 H787 0.929 . S
C801 C800 1.399 . S
C801 C802 1.385 . S
C802 H788 0.931 . S
C802 C801 1.385 . S
C802 C803 1.389 . S
C803 C802 1.389 . S
C803 C804 1.387 . S
C804 H789 0.930 . S
C804 C799 1.390 . S
C804 C803 1.387 . S
H805 C817 0.917 1_556 S
H806 C819 0.930 . S
H807 C820 0.930 . S
H808 C824 0.959 . S
H809 C824 0.959 . S
H810 C824 0.961 . S
H811 C825 0.960 . S
H812 C825 0.961 . S
H813 C825 0.959 . S
H814 C828 0.929 1_554 S
H815 C829 0.931 . S
H816 C831 0.930 . S
C817 H805 0.917 1_554 S
C817 C818 1.419 . S
C817 C822 1.392 1_554 S
C818 C817 1.419 . S
C818 C819 1.376 . S
C819 H806 0.930 . S
C819 C818 1.376 . S
C819 C820 1.388 . S
C820 H807 0.930 . S
C820 C819 1.388 . S
C820 C821 1.390 . S
C821 C820 1.390 . S
C821 C822 1.394 1_554 S
C821 C827 1.465 1_554 S
C822 C817 1.392 1_556 S
C822 C821 1.394 1_556 S
C822 C823 1.516 . S
C823 C822 1.516 . S
C823 C824 1.502 . S
C823 C825 1.561 . S
C823 C826 1.526 . S
C824 H808 0.959 . S
C824 H809 0.959 . S
C824 H810 0.961 . S
C824 C823 1.502 . S
C825 H811 0.960 . S
C825 H812 0.961 . S
C825 H813 0.959 . S
C825 C823 1.561 . S
C826 C823 1.526 . S
C826 C827 1.396 . S
C826 C831 1.390 . S
C827 C821 1.465 1_556 S
C827 C826 1.396 . S
C827 C828 1.399 . S
C828 H814 0.929 1_556 S
C828 C827 1.399 . S
C828 C829 1.385 . S
C829 H815 0.931 . S
C829 C828 1.385 . S
C829 C830 1.389 . S
C830 C829 1.389 . S
C830 C831 1.387 . S
C831 H816 0.930 . S
C831 C826 1.390 . S
C831 C830 1.387 . S
C197 C156 1.583 . S
C209 C17 1.606 . S
C224 C40 1.580 . S
C236 C179 1.568 . S
C251 C110 1.603 . S
C263 C63 1.595 . S
C278 C86 1.548 . S
C290 C133 1.610 . S
C305 C64 1.568 . S
C317 C109 1.605 . S
C332 C132 1.596 . S
C344 C87 1.587 . S
C359 C18 1.572 . S
C371 C155 1.586 . S
C386 C41 1.569 . S
C398 C178 1.606 . S
C413 C16 0.802 . S
C425 C108 0.909 . S
C440 C131 0.909 . S
C452 C39 0.795 . S
C467 C62 0.810 . S
C479 C154 0.906 . S
C494 C177 0.866 . S
C506 C85 0.827 . S
C521 C89 1.318 . S
C533 C20 1.314 . S
C548 C43 1.321 . S
C560 C66 1.327 . S
C575 C181 1.314 . S
C587 C112 1.315 . S
C602 C135 1.313 . S
C614 C158 1.318 . S
C629 C21 1.653 . S
C641 C65 1.638 . S
C656 C44 1.650 1_655 S
C668 C88 1.629 . S
C683 C67 1.657 1_455 S
C695 C19 1.575 . S
C710 C90 1.656 . S
C722 C42 1.575 . S
C737 C113 1.648 . S
C749 C157 1.634 . S
C764 C136 1.649 1_455 S
C776 C180 1.614 . S
C791 C159 1.662 1_655 S
C803 C111 1.601 . S
C818 C134 1.587 . S
C830 C182 1.654 . S
