# Generated by pormake.
# Topology wjd, (6)-cn, num edge types: 1
# Building blocks:
#     Node 0, Type 0, BuildingBlock: CUKXOW_clean_sbu_0, # of connection points: 6
#     Node 1, Type 0, BuildingBlock: CUKXOW_clean_sbu_0, # of connection points: 6
#     Node 2, Type 0, BuildingBlock: CUKXOW_clean_sbu_0, # of connection points: 6
#     Node 3, Type 0, BuildingBlock: CUKXOW_clean_sbu_0, # of connection points: 6
#     Node 4, Type 0, BuildingBlock: CUKXOW_clean_sbu_0, # of connection points: 6
#     Node 5, Type 0, BuildingBlock: CUKXOW_clean_sbu_0, # of connection points: 6
#     Node 6, Type 0, BuildingBlock: CUKXOW_clean_sbu_0, # of connection points: 6
#     Node 7, Type 0, BuildingBlock: CUKXOW_clean_sbu_0, # of connection points: 6
#     Node 8, Type 0, BuildingBlock: CUKXOW_clean_sbu_0, # of connection points: 6
#     Node 9, Type 0, BuildingBlock: CUKXOW_clean_sbu_0, # of connection points: 6
#     Node 10, Type 0, BuildingBlock: CUKXOW_clean_sbu_0, # of connection points: 6
#     Node 11, Type 0, BuildingBlock: CUKXOW_clean_sbu_0, # of connection points: 6
#     Edge 12, Type (0, 0), BuildingBlock: TEMPAE_clean_linker_10, # of connection points: 2
#     Edge 13, Type (0, 0), BuildingBlock: TEMPAE_clean_linker_10, # of connection points: 2
#     Edge 14, Type (0, 0), BuildingBlock: TEMPAE_clean_linker_10, # of connection points: 2
#     Edge 15, Type (0, 0), BuildingBlock: TEMPAE_clean_linker_10, # of connection points: 2
#     Edge 16, Type (0, 0), BuildingBlock: TEMPAE_clean_linker_10, # of connection points: 2
#     Edge 17, Type (0, 0), BuildingBlock: TEMPAE_clean_linker_10, # of connection points: 2
#     Edge 18, Type (0, 0), BuildingBlock: TEMPAE_clean_linker_10, # of connection points: 2
#     Edge 19, Type (0, 0), BuildingBlock: TEMPAE_clean_linker_10, # of connection points: 2
#     Edge 20, Type (0, 0), BuildingBlock: TEMPAE_clean_linker_10, # of connection points: 2
#     Edge 21, Type (0, 0), BuildingBlock: TEMPAE_clean_linker_10, # of connection points: 2
#     Edge 22, Type (0, 0), BuildingBlock: TEMPAE_clean_linker_10, # of connection points: 2
#     Edge 23, Type (0, 0), BuildingBlock: TEMPAE_clean_linker_10, # of connection points: 2
#     Edge 24, Type (0, 0), BuildingBlock: TEMPAE_clean_linker_10, # of connection points: 2
#     Edge 25, Type (0, 0), BuildingBlock: TEMPAE_clean_linker_10, # of connection points: 2
#     Edge 26, Type (0, 0), BuildingBlock: TEMPAE_clean_linker_10, # of connection points: 2
#     Edge 27, Type (0, 0), BuildingBlock: TEMPAE_clean_linker_10, # of connection points: 2
#     Edge 28, Type (0, 0), BuildingBlock: TEMPAE_clean_linker_10, # of connection points: 2
#     Edge 29, Type (0, 0), BuildingBlock: TEMPAE_clean_linker_10, # of connection points: 2
#     Edge 30, Type (0, 0), BuildingBlock: TEMPAE_clean_linker_10, # of connection points: 2
#     Edge 31, Type (0, 0), BuildingBlock: TEMPAE_clean_linker_10, # of connection points: 2
#     Edge 32, Type (0, 0), BuildingBlock: TEMPAE_clean_linker_10, # of connection points: 2
#     Edge 33, Type (0, 0), BuildingBlock: TEMPAE_clean_linker_10, # of connection points: 2
#     Edge 34, Type (0, 0), BuildingBlock: TEMPAE_clean_linker_10, # of connection points: 2
#     Edge 35, Type (0, 0), BuildingBlock: TEMPAE_clean_linker_10, # of connection points: 2
#     Edge 36, Type (0, 0), BuildingBlock: TEMPAE_clean_linker_10, # of connection points: 2
#     Edge 37, Type (0, 0), BuildingBlock: TEMPAE_clean_linker_10, # of connection points: 2
#     Edge 38, Type (0, 0), BuildingBlock: TEMPAE_clean_linker_10, # of connection points: 2
#     Edge 39, Type (0, 0), BuildingBlock: TEMPAE_clean_linker_10, # of connection points: 2
#     Edge 40, Type (0, 0), BuildingBlock: TEMPAE_clean_linker_10, # of connection points: 2
#     Edge 41, Type (0, 0), BuildingBlock: TEMPAE_clean_linker_10, # of connection points: 2
#     Edge 42, Type (0, 0), BuildingBlock: TEMPAE_clean_linker_10, # of connection points: 2
#     Edge 43, Type (0, 0), BuildingBlock: TEMPAE_clean_linker_10, # of connection points: 2
#     Edge 44, Type (0, 0), BuildingBlock: TEMPAE_clean_linker_10, # of connection points: 2
#     Edge 45, Type (0, 0), BuildingBlock: TEMPAE_clean_linker_10, # of connection points: 2
#     Edge 46, Type (0, 0), BuildingBlock: TEMPAE_clean_linker_10, # of connection points: 2
#     Edge 47, Type (0, 0), BuildingBlock: TEMPAE_clean_linker_10, # of connection points: 2
# Relax obj value: 0.060
# Max RMSD: 0.159
# Mean RMSD: 0.159
data_MOF--net-wjd--node1-CUKXOW_clean_sbu_0--edge1-TEMPAE_clean_linker_10
_symmetry_space_group_name_H-M    P1
_symmetry_Int_Tables_number       1
_symmetry_cell_setting            triclinic
loop_
_symmetry_equiv_pos_as_xyz
'x, y, z'
_cell_length_a     32.389066
_cell_length_b     32.366299
_cell_length_c     57.520239
_cell_angle_alpha  89.977661
_cell_angle_beta   90.110999
_cell_angle_gamma 119.95564
loop_
_atom_site_label
_atom_site_type_symbol
_atom_site_fract_x
_atom_site_fract_y
_atom_site_fract_z
_atom_type_partial_charge
Tb0 Tb 0.38384 0.13148 0.12312 0.0
C1 C 0.31957 0.11315 0.07912 0.0
Tb2 Tb 0.30642 0.1616 0.1232 0.0
O3 O 0.33212 0.0552 0.11818 0.0
O4 O 0.31198 0.10142 0.13276 0.0
O5 O 0.36374 0.12751 0.08634 0.0
C6 C 0.23178 0.17484 0.12963 0.0
O7 O 0.28796 0.1166 0.09241 0.0
C8 C 0.39305 0.22682 0.10962 0.0
C9 C 0.35992 0.166 0.17057 0.0
O10 O 0.25912 0.18774 0.11153 0.0
O11 O 0.24631 0.15425 0.1442 0.0
O12 O 0.35436 0.22574 0.1029 0.0
O13 O 0.38146 0.19524 0.12476 0.0
O14 O 0.32902 0.17533 0.15969 0.0
O15 O 0.38503 0.1492 0.15987 0.0
C16 C 0.47068 0.14194 0.12093 0.0
O17 O 0.43602 0.11087 0.13384 0.0
O18 O 0.45613 0.16654 0.10917 0.0
C19 C 0.29629 0.05969 0.12517 0.0
Tb20 Tb 0.87651 0.71742 0.39506 0.0
C21 C 0.83214 0.66674 0.34722 0.0
Tb22 Tb 0.77403 0.63316 0.39427 0.0
O23 O 0.90604 0.66987 0.39451 0.0
O24 O 0.83956 0.64654 0.40901 0.0
O25 O 0.86131 0.708 0.35764 0.0
C26 C 0.69731 0.54565 0.39355 0.0
O27 O 0.79776 0.63032 0.35881 0.0
C28 C 0.7824 0.71722 0.3876 0.0
C29 C 0.81225 0.69353 0.43996 0.0
O30 O 0.69877 0.58367 0.40172 0.0
O31 O 0.7389 0.55699 0.38534 0.0
O32 O 0.74346 0.68051 0.39491 0.0
O33 O 0.81065 0.70356 0.38133 0.0
O34 O 0.78356 0.65033 0.43125 0.0
O35 O 0.84984 0.72673 0.42848 0.0
C36 C 0.96066 0.79844 0.3946 0.0
O37 O 0.92374 0.79174 0.40653 0.0
O38 O 0.94975 0.75999 0.38311 0.0
C39 C 0.86833 0.63339 0.4026 0.0
Tb40 Tb 0.88789 0.25183 0.1251 0.0
C41 C 0.90767 0.21271 0.07845 0.0
Tb42 Tb 0.86038 0.14596 0.12188 0.0
O43 O 0.95486 0.27129 0.14376 0.0
O44 O 0.92309 0.2124 0.12182 0.0
O45 O 0.89518 0.24277 0.08748 0.0
C46 C 0.85102 0.05907 0.12461 0.0
O47 O 0.90423 0.17626 0.09076 0.0
C48 C 0.79171 0.1647 0.11216 0.0
C49 C 0.86338 0.19281 0.17147 0.0
O50 O 0.84455 0.07799 0.10609 0.0
O51 O 0.86319 0.08924 0.14165 0.0
O52 O 0.79381 0.12861 0.10387 0.0
O53 O 0.82441 0.18467 0.1269 0.0
O54 O 0.86037 0.15592 0.1597 0.0
O55 O 0.87032 0.23279 0.16143 0.0
C56 C 0.87706 0.32836 0.12106 0.0
O57 O 0.91744 0.3289 0.11957 0.0
O58 O 0.84337 0.28504 0.12487 0.0
C59 C 0.95525 0.23308 0.13677 0.0
Tb60 Tb 0.30243 0.16218 0.3926 0.0
C61 C 0.35457 0.16908 0.34558 0.0
Tb62 Tb 0.38557 0.14119 0.39293 0.0
O63 O 0.35202 0.2373 0.38549 0.0
O64 O 0.3743 0.19693 0.40436 0.0
O65 O 0.31402 0.16069 0.35544 0.0
C66 C 0.47312 0.15283 0.39482 0.0
O67 O 0.38986 0.16914 0.35757 0.0
C68 C 0.30008 0.06635 0.38883 0.0
C69 C 0.32145 0.11569 0.43729 0.0
O70 O 0.43814 0.12091 0.38237 0.0
O71 O 0.45873 0.17807 0.40602 0.0
O72 O 0.3362 0.06414 0.39737 0.0
O73 O 0.31469 0.10762 0.38108 0.0
O74 O 0.36403 0.12658 0.42911 0.0
O75 O 0.29045 0.12313 0.42542 0.0
C76 C 0.2222 0.16616 0.3938 0.0
O77 O 0.25633 0.18521 0.40902 0.0
O78 O 0.2329 0.14423 0.37815 0.0
C79 C 0.38814 0.23669 0.39479 0.0
Tb80 Tb 0.76765 0.63237 0.12477 0.0
C81 C 0.80424 0.69938 0.08159 0.0
Tb82 Tb 0.87096 0.71567 0.12552 0.0
O83 O 0.73818 0.68067 0.12249 0.0
O84 O 0.80439 0.70282 0.13777 0.0
O85 O 0.77439 0.65532 0.08874 0.0
C86 C 0.95453 0.79668 0.12341 0.0
O87 O 0.84116 0.73039 0.09432 0.0
C88 C 0.86145 0.63073 0.12114 0.0
C89 C 0.82622 0.66118 0.17221 0.0
O90 O 0.93292 0.76869 0.10596 0.0
O91 O 0.929 0.77927 0.14197 0.0
O92 O 0.89852 0.66692 0.13004 0.0
O93 O 0.83466 0.64463 0.11256 0.0
O94 O 0.85895 0.70189 0.16268 0.0
O95 O 0.79018 0.62708 0.16015 0.0
C96 C 0.69332 0.54387 0.12231 0.0
O97 O 0.69437 0.57879 0.13395 0.0
O98 O 0.7341 0.55881 0.1122 0.0
C99 C 0.77645 0.71688 0.13104 0.0
Tb100 Tb 0.85334 0.14057 0.39619 0.0
C101 C 0.85639 0.18651 0.34693 0.0
Tb102 Tb 0.87919 0.24907 0.39214 0.0
O103 O 0.78867 0.12479 0.41586 0.0
O104 O 0.81784 0.18024 0.3925 0.0
O105 O 0.86259 0.15447 0.3587 0.0
C106 C 0.86328 0.32185 0.39581 0.0
O107 O 0.85405 0.2223 0.35708 0.0
C108 C 0.95368 0.23746 0.3863 0.0
C109 C 0.90517 0.21139 0.43783 0.0
O110 O 0.88308 0.31376 0.37803 0.0
O111 O 0.85299 0.28933 0.41154 0.0
O112 O 0.95708 0.27943 0.3857 0.0
O113 O 0.91076 0.20791 0.38968 0.0
O114 O 0.89278 0.2418 0.42903 0.0
O115 O 0.89775 0.17219 0.42678 0.0
C116 C 0.8444 0.05422 0.39312 0.0
O117 O 0.86924 0.08609 0.4087 0.0
O118 O 0.82449 0.07092 0.37929 0.0
C119 C 0.78654 0.16114 0.40781 0.0
Tb120 Tb 0.16743 0.29586 0.62324 0.0
C121 C 0.17974 0.35119 0.66987 0.0
Tb122 Tb 0.15028 0.3821 0.62332 0.0
O123 O 0.24494 0.34188 0.62554 0.0
O124 O 0.20332 0.36751 0.61123 0.0
O125 O 0.16658 0.30896 0.66035 0.0
C126 C 0.16323 0.47028 0.62224 0.0
O127 O 0.18329 0.38763 0.65753 0.0
C128 C 0.07395 0.29803 0.6296 0.0
C129 C 0.11786 0.31477 0.57992 0.0
O130 O 0.13863 0.43813 0.63777 0.0
O131 O 0.18007 0.45258 0.60725 0.0
O132 O 0.07215 0.33464 0.62143 0.0
O133 O 0.11596 0.31175 0.63582 0.0
O134 O 0.13336 0.35909 0.58723 0.0
O135 O 0.12281 0.28278 0.59232 0.0
C136 C 0.16602 0.21258 0.62257 0.0
O137 O 0.17052 0.2384 0.60444 0.0
O138 O 0.16165 0.23334 0.6409 0.0
C139 C 0.24437 0.37961 0.61862 0.0
Tb140 Tb 0.25406 0.87982 0.89152 0.0
C141 C 0.21417 0.90553 0.93528 0.0
Tb142 Tb 0.15072 0.86025 0.88984 0.0
O143 O 0.28415 0.95731 0.89533 0.0
O144 O 0.21834 0.91507 0.87932 0.0
O145 O 0.24476 0.89242 0.92781 0.0
C146 C 0.06577 0.85486 0.88901 0.0
O147 O 0.17746 0.90024 0.92251 0.0
C148 C 0.16124 0.78504 0.89273 0.0
C149 C 0.19764 0.8532 0.84367 0.0
O150 O 0.08137 0.839 0.9056 0.0
O151 O 0.0983 0.87448 0.87316 0.0
O152 O 0.12542 0.78492 0.8827 0.0
O153 O 0.1865 0.82474 0.9024 0.0
O154 O 0.16645 0.86361 0.85294 0.0
O155 O 0.23123 0.8513 0.85618 0.0
C156 C 0.32912 0.86699 0.8932 0.0
O157 O 0.32705 0.90034 0.88157 0.0
O158 O 0.28904 0.84105 0.90386 0.0
C159 C 0.24619 0.95624 0.88706 0.0
Tb160 Tb 0.72622 0.8737 0.62222 0.0
C161 C 0.67563 0.83339 0.67106 0.0
Tb162 Tb 0.64102 0.76526 0.62718 0.0
O163 O 0.67962 0.90243 0.61089 0.0
O164 O 0.65344 0.83198 0.61649 0.0
O165 O 0.71569 0.86324 0.65989 0.0
C166 C 0.55304 0.69044 0.62684 0.0
O167 O 0.63885 0.79649 0.6607 0.0
C168 C 0.72774 0.77944 0.6324 0.0
C169 C 0.70523 0.79866 0.58168 0.0
O170 O 0.58526 0.69878 0.64259 0.0
O171 O 0.57057 0.7241 0.61132 0.0
O172 O 0.69097 0.73766 0.62789 0.0
O173 O 0.71302 0.808 0.63656 0.0
O174 O 0.66376 0.76715 0.59123 0.0
O175 O 0.73602 0.84045 0.59122 0.0
C176 C 0.80683 0.95744 0.62415 0.0
O177 O 0.79741 0.9244 0.60875 0.0
O178 O 0.77125 0.94291 0.63839 0.0
C179 C 0.64073 0.86141 0.61146 0.0
Tb180 Tb 0.14454 0.38527 0.89292 0.0
C181 C 0.11899 0.31969 0.93605 0.0
Tb182 Tb 0.16661 0.30332 0.8917 0.0
O183 O 0.06683 0.33706 0.89321 0.0
O184 O 0.11213 0.31523 0.87939 0.0
O185 O 0.13655 0.36469 0.92941 0.0
C186 C 0.17283 0.22407 0.89321 0.0
O187 O 0.12168 0.2877 0.92261 0.0
C188 C 0.2402 0.38895 0.89712 0.0
C189 C 0.17343 0.35741 0.84476 0.0
O190 O 0.18297 0.25395 0.91023 0.0
O191 O 0.15853 0.23843 0.8755 0.0
O192 O 0.24215 0.35415 0.88722 0.0
O193 O 0.19938 0.37371 0.90571 0.0
O194 O 0.1711 0.31907 0.85458 0.0
O195 O 0.16588 0.38853 0.85644 0.0
C196 C 0.15793 0.47379 0.89421 0.0
O197 O 0.18985 0.46266 0.88838 0.0
O198 O 0.11843 0.43506 0.89905 0.0
C199 C 0.06979 0.30085 0.88549 0.0
Tb200 Tb 0.15054 0.85253 0.62258 0.0
C201 C 0.19516 0.84005 0.66911 0.0
Tb202 Tb 0.25637 0.87525 0.6229 0.0
O203 O 0.12216 0.77544 0.62292 0.0
O204 O 0.18991 0.8209 0.61008 0.0
O205 O 0.16236 0.84824 0.6597 0.0
C206 C 0.3326 0.864 0.62102 0.0
O207 O 0.23147 0.84277 0.6571 0.0
C208 C 0.24453 0.94878 0.62997 0.0
C209 C 0.21931 0.9075 0.57996 0.0
O210 O 0.3259 0.88985 0.63619 0.0
O211 O 0.29667 0.84507 0.60677 0.0
O212 O 0.28447 0.9528 0.62268 0.0
O213 O 0.21687 0.90598 0.63548 0.0
O214 O 0.25172 0.89699 0.58765 0.0
O215 O 0.17969 0.89713 0.59149 0.0
C216 C 0.06726 0.85117 0.62267 0.0
O217 O 0.08892 0.84839 0.60428 0.0
O218 O 0.09266 0.85511 0.64085 0.0
C219 C 0.16201 0.7788 0.61654 0.0
Tb220 Tb 0.64182 0.76854 0.89292 0.0
C221 C 0.69995 0.80885 0.93987 0.0
Tb222 Tb 0.71973 0.87531 0.89603 0.0
O223 O 0.69054 0.74972 0.87504 0.0
O224 O 0.71596 0.8089 0.89672 0.0
O225 O 0.658 0.77782 0.93056 0.0
C226 C 0.79768 0.96158 0.89303 0.0
O227 O 0.73266 0.84579 0.92773 0.0
C228 C 0.63203 0.85541 0.90497 0.0
C229 C 0.67489 0.82773 0.84649 0.0
O230 O 0.77002 0.94487 0.91099 0.0
O231 O 0.78157 0.92963 0.87668 0.0
O232 O 0.66954 0.89233 0.91325 0.0
O233 O 0.64555 0.83558 0.89062 0.0
O234 O 0.70852 0.86504 0.8582 0.0
O235 O 0.64259 0.78748 0.85659 0.0
C236 C 0.55493 0.69211 0.89728 0.0
O237 O 0.59463 0.69113 0.897 0.0
O238 O 0.56441 0.7358 0.89508 0.0
C239 C 0.72842 0.78842 0.8822 0.0
C240 C 0.03702 0.25509 0.15084 0.0
C241 C 0.99409 0.22231 0.14018 0.0
C242 C 0.07585 0.24698 0.1514 0.0
C243 C 0.07129 0.20504 0.14116 0.0
C244 C 0.02712 0.17083 0.13141 0.0
C245 C 0.98916 0.17996 0.131 0.0
C246 C 0.12235 0.28423 0.162 0.0
C247 C 0.02053 0.12556 0.12038 0.0
C248 C 0.18078 0.20748 0.11601 0.0
C249 C 0.1912 0.18296 0.13297 0.0
C250 C 0.14231 0.21552 0.11868 0.0
C251 C 0.11353 0.19858 0.13883 0.0
C252 C 0.12406 0.17396 0.1561 0.0
C253 C 0.16287 0.16644 0.15296 0.0
C254 C 0.13216 0.24171 0.0998 0.0
C255 C 0.09396 0.15506 0.17771 0.0
H256 H 0.04085 0.28783 0.15797 0.0
H257 H 0.95587 0.15435 0.12287 0.0
H258 H 0.13561 0.26753 0.17458 0.0
H259 H 0.14962 0.30092 0.14816 0.0
H260 H 0.11891 0.31268 0.17104 0.0
H261 H 0.98271 0.10048 0.11578 0.0
H262 H 0.0422 0.13446 0.1043 0.0
H263 H 0.03311 0.10715 0.13227 0.0
H264 H 0.20269 0.22034 0.10054 0.0
H265 H 0.17088 0.14739 0.16608 0.0
H266 H 0.13317 0.2739 0.10714 0.0
H267 H 0.09585 0.21861 0.09269 0.0
H268 H 0.15812 0.25284 0.08528 0.0
H269 H 0.09257 0.1844 0.18696 0.0
H270 H 0.10781 0.13808 0.18984 0.0
H271 H 0.05686 0.12835 0.17285 0.0
C272 C 0.21475 0.0328 0.3782 0.0
C273 C 0.2495 0.0297 0.39136 0.0
C274 C 0.16639 0.99829 0.38024 0.0
C275 C 0.15255 0.95968 0.3958 0.0
C276 C 0.18749 0.9573 0.40972 0.0
C277 C 0.23568 0.99226 0.40722 0.0
C278 C 0.13041 1.00223 0.36506 0.0
C279 C 0.17418 0.91712 0.42676 0.0
C280 C 0.02069 0.87939 0.40981 0.0
C281 C 1.00866 0.8411 0.39467 0.0
C282 C 0.0675 0.91852 0.41045 0.0
C283 C 0.10263 0.91915 0.39553 0.0
C284 C 0.09018 0.88077 0.38001 0.0
C285 C 0.04346 0.84228 0.37982 0.0
C286 C 0.07954 0.95883 0.42723 0.0
C287 C 0.12635 0.88011 0.36369 0.0
H288 H 0.22553 0.06163 0.36583 0.0
H289 H 0.26254 0.99024 0.41764 0.0
H290 H 0.11615 0.97323 0.35193 0.0
H291 H 0.09988 0.99791 0.37562 0.0
H292 H 0.14616 0.03698 0.35583 0.0
H293 H 0.20481 0.92291 0.43781 0.0
H294 H 0.14487 0.9131 0.43821 0.0
H295 H 0.16105 0.88309 0.41715 0.0
H296 H 0.99379 0.87844 0.42134 0.0
H297 H 0.03425 0.81275 0.36805 0.0
H298 H 0.09443 0.9931 0.41767 0.0
H299 H 0.10734 0.9621 0.4396 0.0
H300 H 0.04799 0.95349 0.43728 0.0
H301 H 0.14161 0.91204 0.35232 0.0
H302 H 0.11072 0.84779 0.35251 0.0
H303 H 0.15619 0.88143 0.37381 0.0
C304 C 0.8347 0.9871 0.14774 0.0
C305 C 0.84261 0.00994 0.12618 0.0
C306 C 0.82349 0.93921 0.14919 0.0
C307 C 0.82138 0.91413 0.12861 0.0
C308 C 0.83064 0.93766 0.10688 0.0
C309 C 0.84054 0.98508 0.1059 0.0
C310 C 0.813 0.91518 0.17265 0.0
C311 C 0.83011 0.91271 0.08466 0.0
C312 C 0.8343 0.80404 0.13412 0.0
C313 C 0.78739 0.76705 0.13087 0.0
C314 C 0.84599 0.852 0.13324 0.0
C315 C 0.80947 0.86329 0.12974 0.0
C316 C 0.76173 0.82596 0.12683 0.0
C317 C 0.75136 0.77825 0.1271 0.0
C318 C 0.89753 0.89053 0.13566 0.0
C319 C 0.72162 0.83644 0.12346 0.0
H320 H 0.836 1.00627 0.16343 0.0
H321 H 0.8469 1.00284 0.08921 0.0
H322 H 0.77664 0.88352 0.17262 0.0
H323 H 0.83833 0.90233 0.1763 0.0
H324 H 0.81548 0.93941 0.18693 0.0
H325 H 0.83895 0.93621 0.0692 0.0
H326 H 0.85613 0.89999 0.08591 0.0
H327 H 0.79442 0.88095 0.08202 0.0
H328 H 0.8621 0.79546 0.13692 0.0
H329 H 0.71499 0.74968 0.1246 0.0
H330 H 0.9019 0.91347 0.15085 0.0
H331 H 0.90879 0.91372 0.12003 0.0
H332 H 0.92172 0.87571 0.13785 0.0
H333 H 0.72147 0.85908 0.13791 0.0
H334 H 0.68623 0.80343 0.12269 0.0
H335 H 0.72703 0.85667 0.10711 0.0
C336 C 0.15568 0.16575 0.37193 0.0
C337 C 0.18098 0.17361 0.39277 0.0
C338 C 0.11892 0.17656 0.37003 0.0
C339 C 0.10648 0.19444 0.38964 0.0
C340 C 0.13111 0.20113 0.41092 0.0
C341 C 0.16859 0.19124 0.41214 0.0
C342 C 0.09401 0.16973 0.34695 0.0
C343 C 0.11796 0.21887 0.43236 0.0
C344 C 0.03985 0.26261 0.38195 0.0
C345 C 0.99284 0.22673 0.38604 0.0
C346 C 0.07726 0.25242 0.3826 0.0
C347 C 0.06726 0.20557 0.38799 0.0
C348 C 0.01972 0.16931 0.39207 0.0
C349 C 0.98309 0.18026 0.39066 0.0
C350 C 0.12742 0.29175 0.37762 0.0
C351 C 1.00758 0.11918 0.39843 0.0
H352 H 0.16556 0.15243 0.35689 0.0
H353 H 0.18819 0.19725 0.42827 0.0
H354 H 0.09761 0.20404 0.34108 0.0
H355 H 0.10863 0.15642 0.33326 0.0
H356 H 0.05539 0.14402 0.34881 0.0
H357 H 0.13743 0.2178 0.44807 0.0
H358 H 0.1261 0.25611 0.42964 0.0
H359 H 0.07914 0.19696 0.43561 0.0
H360 H 0.04737 0.29855 0.37826 0.0
H361 H 0.94677 0.1525 0.39358 0.0
H362 H 0.14303 0.28074 0.36341 0.0
H363 H 0.15009 0.29854 0.39323 0.0
H364 H 0.12886 0.32557 0.37255 0.0
H365 H 0.01968 0.10387 0.38458 0.0
H366 H 0.96873 0.09519 0.40111 0.0
H367 H 0.02655 0.11985 0.41464 0.0
C368 C 0.23251 0.97568 0.11793 0.0
C369 C 0.24557 0.02279 0.12341 0.0
C370 C 0.18432 0.94012 0.1167 0.0
C371 C 0.14854 0.95228 0.1207 0.0
C372 C 0.16167 1.00025 0.12526 0.0
C373 C 0.21007 0.03479 0.12685 0.0
C374 C 0.17165 0.88944 0.11148 0.0
C375 C 0.12461 0.01508 0.12842 0.0
C376 C 0.02308 0.86063 0.1016 0.0
C377 C 1.00263 0.83872 0.12277 0.0
C378 C 0.07001 0.89899 0.10068 0.0
C379 C 0.09753 0.91443 0.12135 0.0
C380 C 0.07663 0.89261 0.14282 0.0
C381 C 0.02913 0.85545 0.1433 0.0
C382 C 0.08997 0.92139 0.07737 0.0
C383 C 0.10492 0.90742 0.16519 0.0
H384 H 0.25998 0.96646 0.11497 0.0
H385 H 0.22012 0.07131 0.13057 0.0
H386 H 0.14968 0.86559 0.12579 0.0
H387 H 0.15003 0.87712 0.09534 0.0
H388 H 0.2037 0.8857 0.10924 0.0
H389 H 0.14077 0.0543 0.13047 0.0
H390 H 0.10022 1.00339 0.1132 0.0
H391 H 0.1027 0.99742 0.144 0.0
H392 H 1.00244 0.84772 0.08571 0.0
H393 H 1.01329 0.83828 0.15968 0.0
H394 H 0.10423 0.90061 0.06862 0.0
H395 H 0.11901 0.959 0.07892 0.0
H396 H 0.0616 0.92016 0.06601 0.0
H397 H 0.13617 0.90219 0.16364 0.0
H398 H 0.0834 0.88679 0.18039 0.0
H399 H 0.11872 0.94588 0.16852 0.0
C400 C 0.83497 0.80324 0.37821 0.0
C401 C 0.79314 0.76709 0.38831 0.0
C402 C 0.84572 0.85094 0.37891 0.0
C403 C 0.81392 0.86257 0.3901 0.0
C404 C 0.77198 0.82614 0.40064 0.0
C405 C 0.76199 0.77874 0.39953 0.0
C406 C 0.89081 0.88877 0.36751 0.0
C407 C 0.73759 0.83723 0.41305 0.0
C408 C 0.8576 0.99019 0.40922 0.0
C409 C 0.83845 1.00606 0.39184 0.0
C410 C 0.8504 0.94367 0.40875 0.0
C411 C 0.82381 0.91264 0.39034 0.0
C412 C 0.80535 0.92897 0.37248 0.0
C413 C 0.81273 0.97549 0.3735 0.0
C414 C 0.87038 0.92743 0.42819 0.0
C415 C 0.77722 0.89706 0.35245 0.0
H416 H 0.85917 0.7942 0.36962 0.0
H417 H 0.72989 0.75078 0.40757 0.0
H418 H 0.88176 0.90625 0.35337 0.0
H419 H 0.91302 0.91682 0.38031 0.0
H420 H 0.91234 0.87395 0.36008 0.0
H421 H 0.70727 0.80497 0.42087 0.0
H422 H 0.7564 0.86373 0.42704 0.0
H423 H 0.72323 0.85329 0.40071 0.0
H424 H 0.87758 0.0139 0.4234 0.0
H425 H 0.79809 0.98785 0.36 0.0
H426 H 0.89333 0.91413 0.421 0.0
H427 H 0.84084 0.89737 0.43768 0.0
H428 H 0.89161 0.95645 0.44079 0.0
H429 H 0.79839 0.88341 0.34356 0.0
H430 H 0.76697 0.91581 0.33949 0.0
H431 H 0.74434 0.86572 0.35908 0.0
C432 C 0.18441 0.9753 0.63232 0.0
C433 C 0.23133 0.98621 0.62814 0.0
C434 C 0.17082 0.01 0.62998 0.0
C435 C 0.20552 0.05723 0.62403 0.0
C436 C 0.25312 0.06851 0.61978 0.0
C437 C 0.26533 0.03265 0.62164 0.0
C438 C 0.11944 0.99616 0.63403 0.0
C439 C 0.29137 0.11864 0.6138 0.0
C440 C 0.16982 0.14615 0.60238 0.0
C441 C 0.17232 0.17053 0.62292 0.0
C442 C 0.17924 0.10818 0.60252 0.0
C443 C 0.19271 0.09542 0.6236 0.0
C444 C 0.19485 0.11982 0.6444 0.0
C445 C 0.18395 0.15663 0.64385 0.0
C446 C 0.17528 0.08208 0.58013 0.0
C447 C 0.21005 0.10802 0.66713 0.0
H448 H 0.15823 0.93952 0.63736 0.0
H449 H 0.30166 0.04112 0.61829 0.0
H450 H 0.11682 0.01543 0.64939 0.0
H451 H 0.10551 1.00664 0.61886 0.0
H452 H 0.0963 0.95725 0.63698 0.0
H453 H 0.32651 0.12136 0.61077 0.0
H454 H 0.2812 0.13106 0.59797 0.0
H455 H 0.29513 0.1432 0.62815 0.0
H456 H 0.16068 0.15688 0.5862 0.0
H457 H 0.1862 0.17571 0.65972 0.0
H458 H 0.15123 0.04318 0.58254 0.0
H459 H 0.2107 0.08744 0.57517 0.0
H460 H 0.16153 0.09439 0.56557 0.0
H461 H 0.18573 0.07012 0.6717 0.0
H462 H 0.21029 0.13069 0.68169 0.0
H463 H 0.24635 0.11292 0.66535 0.0
C464 C 1.00404 0.86415 0.86762 0.0
C465 C 0.01718 0.84738 0.88712 0.0
C466 C 0.95715 0.85497 0.86486 0.0
C467 C 0.92281 0.82851 0.88206 0.0
C468 C 0.9361 0.81187 0.90191 0.0
C469 C 0.98322 0.8215 0.90419 0.0
C470 C 0.94436 0.8736 0.84358 0.0
C471 C 0.9005 0.78385 0.9207 0.0
C472 C 0.81445 0.84254 0.88939 0.0
C473 C 0.77834 0.80019 0.87953 0.0
C474 C 0.86182 0.85283 0.88969 0.0
C475 C 0.87341 0.81986 0.87989 0.0
C476 C 0.8374 0.77781 0.86909 0.0
C477 C 0.79007 0.76845 0.86901 0.0
C478 C 0.89905 0.8981 0.90135 0.0
C479 C 0.84862 0.74202 0.85835 0.0
H480 H 0.03034 0.88414 0.85439 0.0
H481 H 0.99337 0.80839 0.91924 0.0
H482 H 0.91479 0.84366 0.834 0.0
H483 H 0.93164 0.8983 0.84885 0.0
H484 H 0.97503 0.89275 0.83158 0.0
H485 H 0.91684 0.77462 0.93534 0.0
H486 H 0.88457 0.80471 0.92763 0.0
H487 H 0.87104 0.75041 0.91331 0.0
H488 H 0.80553 0.86726 0.89749 0.0
H489 H 0.76213 0.7357 0.8614 0.0
H490 H 0.92994 0.91823 0.88964 0.0
H491 H 0.91244 0.88902 0.9172 0.0
H492 H 0.88482 0.92172 0.90643 0.0
H493 H 0.87827 0.75991 0.84574 0.0
H494 H 0.81733 0.71279 0.8493 0.0
H495 H 0.86054 0.72619 0.87208 0.0
C496 C 0.85387 0.03731 0.64235 0.0
C497 C 0.84915 1.0056 0.62462 0.0
C498 C 0.8918 0.08441 0.64247 0.0
C499 C 0.92589 0.10028 0.62437 0.0
C500 C 0.92201 0.06793 0.6067 0.0
C501 C 0.88348 0.0209 0.60702 0.0
C502 C 0.89508 0.11737 0.66187 0.0
C503 C 0.95705 0.08263 0.58689 0.0
C504 C 0.99383 0.23468 0.61573 0.0
C505 C 0.03605 0.24765 0.62791 0.0
C506 C 0.95836 0.18652 0.6136 0.0
C507 C 0.96514 0.15082 0.62421 0.0
C508 C 1.00825 0.16383 0.63606 0.0
C509 C 0.04307 0.21212 0.63786 0.0
C510 C 0.91339 0.17389 0.60028 0.0
C511 C 0.01742 0.12673 0.64699 0.0
H512 H 0.82742 0.02549 0.65604 0.0
H513 H 0.87984 0.99643 0.59324 0.0
H514 H 0.93 0.13205 0.67083 0.0
H515 H 0.89285 0.14796 0.6546 0.0
H516 H 0.86632 0.09914 0.67494 0.0
H517 H 0.96358 0.05309 0.5822 0.0
H518 H 0.94134 0.09008 0.57141 0.0
H519 H 0.99173 0.11485 0.59082 0.0
H520 H 0.98868 0.2621 0.60772 0.0
H521 H 0.07572 0.22212 0.64727 0.0
H522 H 0.88308 0.16112 0.61257 0.0
H523 H 0.905 0.14449 0.58786 0.0
H524 H 0.91626 0.20484 0.5905 0.0
H525 H 0.9907 0.10741 0.66078 0.0
H526 H 0.05364 0.14258 0.65473 0.0
H527 H 1.01342 0.10008 0.63371 0.0
C528 C 0.18967 0.16623 0.91387 0.0
C529 C 0.18125 0.18333 0.89307 0.0
C530 C 0.19993 0.12887 0.91376 0.0
C531 C 0.20284 0.10904 0.89229 0.0
C532 C 0.19433 0.1263 0.87125 0.0
C533 C 0.18307 0.16289 0.87192 0.0
C534 C 0.20718 0.11029 0.93657 0.0
C535 C 0.19782 0.1066 0.848 0.0
C536 C 0.2724 0.04293 0.88978 0.0
C537 C 0.23551 0.99545 0.88874 0.0
C538 C 0.26235 0.08042 0.89097 0.0
C539 C 0.2143 0.06988 0.89177 0.0
C540 C 0.17706 0.02182 0.89145 0.0
C541 C 0.18824 0.98535 0.88969 0.0
C542 C 0.30303 0.13126 0.89095 0.0
C543 C 0.1254 1.00885 0.89293 0.0
H544 H 0.18806 0.18196 0.93024 0.0
H545 H 0.17685 0.17634 0.85581 0.0
H546 H 0.18031 0.07193 0.93826 0.0
H547 H 0.24281 0.11327 0.93702 0.0
H548 H 0.20396 0.12968 0.95175 0.0
H549 H 0.19136 0.12478 0.83322 0.0
H550 H 0.23371 0.11061 0.84599 0.0
H551 H 0.1715 0.06794 0.84704 0.0
H552 H 0.30907 0.05078 0.88917 0.0
H553 H 0.15995 0.94878 0.88963 0.0
H554 H 0.30168 0.14998 0.90682 0.0
H555 H 0.29964 0.15059 0.87579 0.0
H556 H 0.33833 0.13342 0.89018 0.0
H557 H 0.11957 0.02493 0.90873 0.0
H558 H 0.10086 0.96966 0.89347 0.0
H559 H 0.11586 0.02348 0.87772 0.0
C560 C 0.99658 0.84713 0.60277 0.0
C561 C 0.01933 0.84585 0.62328 0.0
C562 C 0.94975 0.83919 0.60326 0.0
C563 C 0.92504 0.82877 0.62469 0.0
C564 C 0.94828 0.82813 0.64546 0.0
C565 C 0.99534 0.83722 0.64451 0.0
C566 C 0.9265 0.84126 0.58084 0.0
C567 C 0.92292 0.81632 0.6686 0.0
C568 C 0.81449 0.83948 0.63322 0.0
C569 C 0.77807 0.79221 0.63013 0.0
C570 C 0.86251 0.85234 0.63052 0.0
C571 C 0.8743 0.81666 0.62547 0.0
C572 C 0.83752 0.76874 0.62246 0.0
C573 C 0.78977 0.75721 0.62456 0.0
C574 C 0.90057 0.90401 0.63323 0.0
C575 C 0.8486 0.72948 0.61755 0.0
H576 H 0.01528 0.85406 0.58636 0.0
H577 H 1.01288 0.83611 0.66038 0.0
H578 H 0.89577 0.80557 0.57678 0.0
H579 H 0.91244 0.86611 0.5827 0.0
H580 H 0.95159 0.85301 0.56594 0.0
H581 H 0.94619 0.81765 0.68314 0.0
H582 H 0.91012 0.84161 0.67241 0.0
H583 H 0.89117 0.78004 0.66792 0.0
H584 H 0.80545 0.86641 0.6378 0.0
H585 H 0.76157 0.72062 0.62215 0.0
H586 H 0.92386 0.91603 0.61766 0.0
H587 H 0.92346 0.90813 0.64842 0.0
H588 H 0.88529 0.92774 0.63567 0.0
H589 H 0.87005 0.7375 0.60145 0.0
H590 H 0.81587 0.69414 0.61552 0.0
H591 H 0.87024 0.72725 0.63197 0.0
C592 C 0.98304 0.24032 0.88663 0.0
C593 C 0.03047 0.25079 0.88534 0.0
C594 C 0.94538 0.19286 0.88696 0.0
C595 C 0.95556 0.15504 0.88666 0.0
C596 C 1.00353 0.16558 0.88557 0.0
C597 C 0.04028 0.21333 0.88464 0.0
C598 C 0.89472 0.18317 0.88776 0.0
C599 C 0.01615 0.12653 0.88591 0.0
C600 C 0.85999 0.03669 0.91146 0.0
C601 C 0.83934 0.01005 0.89128 0.0
C602 C 0.89855 0.08349 0.91019 0.0
C603 C 0.91608 0.10458 0.88818 0.0
C604 C 0.89536 0.07766 0.86772 0.0
C605 C 0.85757 0.03042 0.86953 0.0
C606 C 0.9206 0.11039 0.93239 0.0
C607 C 0.91242 0.09912 0.84393 0.0
H608 H 0.97534 0.26929 0.88719 0.0
H609 H 0.07682 0.2214 0.88403 0.0
H610 H 0.87379 0.15918 0.87324 0.0
H611 H 0.87757 0.1647 0.9042 0.0
H612 H 0.89274 0.21639 0.88657 0.0
H613 H 0.05523 0.14077 0.88491 0.0
H614 H 1.00261 0.10536 0.90211 0.0
H615 H 0.99881 0.10178 0.87113 0.0
H616 H 0.8461 0.02081 0.92831 0.0
H617 H 0.84142 0.00986 0.8539 0.0
H618 H 0.91713 0.14275 0.93328 0.0
H619 H 0.95922 0.12238 0.9326 0.0
H620 H 0.90389 0.08844 0.94813 0.0
H621 H 0.90824 0.13093 0.84186 0.0
H622 H 0.89252 0.07349 0.82974 0.0
H623 H 0.95087 0.11125 0.842 0.0
C624 C 0.40284 0.20038 0.30914 0.0
C625 C 0.35844 0.17401 0.31999 0.0
C626 C 0.4064 0.20373 0.28475 0.0
C627 C 0.36471 0.17892 0.27097 0.0
C628 C 0.31981 0.15233 0.28193 0.0
C629 C 0.31719 0.15077 0.30627 0.0
C630 C 0.45472 0.23349 0.27372 0.0
C631 C 0.27462 0.12428 0.26794 0.0
C632 C 0.3583 0.207 0.20724 0.0
C633 C 0.36496 0.17227 0.19609 0.0
C634 C 0.36047 0.21116 0.23161 0.0
C635 C 0.36784 0.17877 0.24512 0.0
C636 C 0.37507 0.14397 0.23388 0.0
C637 C 0.37426 0.14164 0.2095 0.0
C638 C 0.35396 0.2496 0.24292 0.0
C639 C 0.38159 0.10782 0.24759 0.0
H640 H 0.43475 0.21866 0.31971 0.0
H641 H 0.2828 0.12993 0.31458 0.0
H642 H 0.46428 0.21024 0.26367 0.0
H643 H 0.45383 0.2593 0.26132 0.0
H644 H 0.48308 0.25344 0.28683 0.0
H645 H 0.24257 0.10539 0.27914 0.0
H646 H 0.26949 0.14835 0.25607 0.0
H647 H 0.27741 0.09755 0.25699 0.0
H648 H 0.35144 0.23095 0.1969 0.0
H649 H 0.37894 0.11441 0.20096 0.0
H650 H 0.38308 0.26996 0.25558 0.0
H651 H 0.31994 0.23314 0.2527 0.0
H652 H 0.35342 0.27484 0.22999 0.0
H653 H 0.41205 0.12611 0.25977 0.0
H654 H 0.38795 0.08382 0.23622 0.0
H655 H 0.34933 0.08572 0.2582 0.0
C656 C 0.82371 0.62132 0.31068 0.0
C657 C 0.83323 0.66385 0.32163 0.0
C658 C 0.82388 0.61818 0.2863 0.0
C659 C 0.83186 0.65793 0.27262 0.0
C660 C 0.84095 0.70078 0.28369 0.0
C661 C 0.8424 0.70347 0.30806 0.0
C662 C 0.81569 0.57245 0.27518 0.0
C663 C 0.84807 0.74348 0.26981 0.0
C664 C 0.87074 0.67279 0.20934 0.0
C665 C 0.82727 0.65603 0.19767 0.0
C666 C 0.8725 0.67143 0.23373 0.0
C667 C 0.82998 0.65474 0.24673 0.0
C668 C 0.78591 0.63739 0.23493 0.0
C669 C 0.78502 0.63744 0.21051 0.0
C670 C 0.91996 0.6887 0.24559 0.0
C671 C 0.73999 0.62084 0.24809 0.0
H672 H 0.81685 0.59076 0.32122 0.0
H673 H 0.84919 0.73621 0.31654 0.0
H674 H 0.78248 0.55646 0.26471 0.0
H675 H 0.84538 0.57998 0.26314 0.0
H676 H 0.81282 0.54586 0.28824 0.0
H677 H 0.85324 0.77356 0.2811 0.0
H678 H 0.87958 0.75608 0.25836 0.0
H679 H 0.81669 0.73328 0.25844 0.0
H680 H 0.90339 0.68699 0.19936 0.0
H681 H 0.75145 0.62505 0.20147 0.0
H682 H 0.91742 0.66187 0.25839 0.0
H683 H 0.9301 0.72204 0.25529 0.0
H684 H 0.94876 0.69582 0.23301 0.0
H685 H 0.73395 0.59194 0.26037 0.0
H686 H 0.70865 0.60762 0.23634 0.0
H687 H 0.74242 0.65078 0.25857 0.0
C688 C 0.82983 0.1467 0.20826 0.0
C689 C 0.86027 0.18991 0.19712 0.0
C690 C 0.82665 0.14395 0.23266 0.0
C691 C 0.85589 0.185 0.2462 0.0
C692 C 0.88734 0.2285 0.23495 0.0
C693 C 0.88853 0.23059 0.21056 0.0
C694 C 0.79165 0.09731 0.24395 0.0
C695 C 0.92024 0.2727 0.24868 0.0
C696 C 0.8256 0.19716 0.30882 0.0
C697 C 0.8541 0.18351 0.32126 0.0
C698 C 0.82447 0.19608 0.28439 0.0
C699 C 0.85386 0.18267 0.27211 0.0
C700 C 0.88273 0.16886 0.28465 0.0
C701 C 0.88188 0.16869 0.30908 0.0
C702 C 0.79214 0.20969 0.27172 0.0
C703 C 0.91571 0.15581 0.27228 0.0
H704 H 0.80778 0.11526 0.19787 0.0
H705 H 0.91255 0.26391 0.20196 0.0
H706 H 0.81087 0.0845 0.25515 0.0
H707 H 0.76701 0.10258 0.25532 0.0
H708 H 0.77029 0.06919 0.23097 0.0
H709 H 0.9439 0.30314 0.2373 0.0
H710 H 0.89913 0.28352 0.25966 0.0
H711 H 0.94273 0.2651 0.26052 0.0
H712 H 0.80384 0.20833 0.31823 0.0
H713 H 0.90434 0.15862 0.31868 0.0
H714 H 0.76938 0.18133 0.25914 0.0
H715 H 0.81377 0.24286 0.26164 0.0
H716 H 0.7688 0.21555 0.28378 0.0
H717 H 0.89518 0.12565 0.26018 0.0
H718 H 0.93567 0.14567 0.28456 0.0
H719 H 0.94171 0.18646 0.26169 0.0
C720 C 0.21504 0.3989 0.70625 0.0
C721 C 0.18391 0.3554 0.69547 0.0
C722 C 0.21764 0.40286 0.73066 0.0
C723 C 0.18714 0.36283 0.74448 0.0
C724 C 0.15536 0.31899 0.73357 0.0
C725 C 0.15472 0.31564 0.70926 0.0
C726 C 0.25301 0.44975 0.74165 0.0
C727 C 0.12121 0.27581 0.74756 0.0
C728 C 0.21018 0.34952 0.80813 0.0
C729 C 0.18044 0.36312 0.81933 0.0
C730 C 0.21479 0.35183 0.78381 0.0
C731 C 0.18765 0.36644 0.77035 0.0
C732 C 0.1581 0.38091 0.78166 0.0
C733 C 0.15548 0.37983 0.80606 0.0
C734 C 0.24777 0.33749 0.77249 0.0
C735 C 0.12742 0.39526 0.76798 0.0
H736 H 0.23771 0.42963 0.6956 0.0
H737 H 0.13009 0.28211 0.70097 0.0
H738 H 0.23393 0.46426 0.75173 0.0
H739 H 0.27615 0.44426 0.75403 0.0
H740 H 0.27589 0.47667 0.72853 0.0
H741 H 0.09775 0.24485 0.73637 0.0
H742 H 0.1413 0.26513 0.75941 0.0
H743 H 0.0985 0.2846 0.75854 0.0
H744 H 0.22982 0.33698 0.81842 0.0
H745 H 0.13215 0.38997 0.8147 0.0
H746 H 0.27128 0.365 0.75978 0.0
H747 H 0.2266 0.30366 0.76278 0.0
H748 H 0.27033 0.33232 0.78542 0.0
H749 H 0.14953 0.42431 0.75564 0.0
H750 H 0.10789 0.4074 0.77938 0.0
H751 H 0.10105 0.36448 0.75753 0.0
C752 C 0.20345 0.81141 0.8083 0.0
C753 C 0.19693 0.84723 0.81824 0.0
C754 C 0.20165 0.80524 0.78402 0.0
C755 C 0.19507 0.83686 0.76946 0.0
C756 C 0.18928 0.87358 0.77955 0.0
C757 C 0.18938 0.8777 0.80382 0.0
C758 C 0.20631 0.7647 0.77397 0.0
C759 C 0.1838 0.90909 0.76471 0.0
C760 C 0.23809 0.85615 0.7069 0.0
C761 C 0.19496 0.83411 0.69457 0.0
C762 C 0.23872 0.85642 0.7313 0.0
C763 C 0.19518 0.83259 0.74366 0.0
C764 C 0.15163 0.80801 0.73124 0.0
C765 C 0.15198 0.8099 0.70681 0.0
C766 C 0.2858 0.88451 0.74381 0.0
C767 C 0.10458 0.78087 0.74375 0.0
H768 H 0.20882 0.78758 0.81953 0.0
H769 H 0.18472 0.90566 0.81156 0.0
H770 H 0.17525 0.74235 0.76264 0.0
H771 H 0.23864 0.77894 0.76297 0.0
H772 H 0.20862 0.74175 0.78768 0.0
H773 H 0.18153 0.9366 0.77528 0.0
H774 H 0.21451 0.92723 0.75268 0.0
H775 H 0.15116 0.89039 0.7539 0.0
H776 H 0.27136 0.87543 0.69746 0.0
H777 H 0.11862 0.79269 0.69727 0.0
H778 H 0.29046 0.86171 0.75672 0.0
H779 H 0.2863 0.91441 0.7535 0.0
H780 H 0.31657 0.89942 0.73169 0.0
H781 H 0.1065 0.75727 0.75719 0.0
H782 H 0.07477 0.75883 0.73166 0.0
H783 H 0.09644 0.80624 0.75276 0.0
C784 C 0.71705 0.85306 0.70945 0.0
C785 C 0.67487 0.83738 0.69669 0.0
C786 C 0.71676 0.85299 0.73387 0.0
C787 C 0.67347 0.83834 0.74586 0.0
C788 C 0.63105 0.82423 0.73302 0.0
C789 C 0.6321 0.82308 0.70857 0.0
C790 C 0.76249 0.86679 0.7468 0.0
C791 C 0.58447 0.80974 0.74511 0.0
C792 C 0.66141 0.79012 0.80732 0.0
C793 C 0.67364 0.83064 0.82085 0.0
C794 C 0.66142 0.79222 0.78293 0.0
C795 C 0.67233 0.83554 0.77178 0.0
C796 C 0.6836 0.87634 0.78542 0.0
C797 C 0.68498 0.87362 0.8098 0.0
C798 C 0.65082 0.74833 0.76911 0.0
C799 C 0.69406 0.92277 0.77424 0.0
H800 H 0.75012 0.86355 0.70035 0.0
H801 H 0.59948 0.81112 0.69873 0.0
H802 H 0.77093 0.89659 0.75895 0.0
H803 H 0.75814 0.8362 0.75739 0.0
H804 H 0.7932 0.87777 0.7349 0.0
H805 H 0.55576 0.80395 0.73268 0.0
H806 H 0.57288 0.77629 0.75498 0.0
H807 H 0.58908 0.83755 0.75782 0.0
H808 H 0.65312 0.75696 0.81584 0.0
H809 H 0.69411 0.90491 0.82026 0.0
H810 H 0.68132 0.75633 0.75755 0.0
H811 H 0.61925 0.73756 0.75783 0.0
H812 H 0.64393 0.71772 0.78042 0.0
H813 H 0.72665 0.93679 0.76345 0.0
H814 H 0.69931 0.95029 0.78729 0.0
H815 H 0.66433 0.9168 0.76251 0.0
C816 C 0.25498 0.92908 0.9741 0.0
C817 C 0.22511 0.93254 0.95746 0.0
C818 C 0.26933 0.9579 0.99413 0.0
C819 C 0.25435 0.99181 0.9974 0.0
C820 C 0.22333 0.99471 0.98092 0.0
C821 C 0.20902 0.96503 0.9612 0.0
C822 C 0.30034 0.9519 0.01187 0.0
C823 C 0.20641 0.03022 0.98371 0.0
C824 C 0.25828 0.04196 0.05777 0.0
C825 C 0.30242 0.08428 0.05763 0.0
C826 C 0.24283 0.01096 0.03861 0.0
C827 C 0.27086 0.02393 0.01816 0.0
C828 C 0.31488 0.06752 0.01766 0.0
C829 C 0.33072 0.09661 0.03764 0.0
C830 C 0.19647 0.96442 0.04054 0.0
C831 C 0.3452 0.08336 0.99603 0.0
H832 H 0.26737 0.90391 0.97142 0.0
H833 H 0.18651 0.96851 0.94829 0.0
H834 H 0.3349 0.98554 0.01355 0.0
H835 H 0.28285 0.94404 0.02916 0.0
H836 H 0.30746 0.92272 1.00721 0.0
H837 H 0.17748 0.02352 0.97126 0.0
H838 H 0.19311 0.029 1.00159 0.0
H839 H 0.23675 0.06675 0.98078 0.0
H840 H 0.2364 0.03204 0.07327 0.0
H841 H 0.3649 0.1293 0.03753 0.0
H842 H 0.19671 0.93562 0.03021 0.0
H843 H 0.16701 0.96949 0.03406 0.0
H844 H 0.18884 0.95252 0.05893 0.0
H845 H 0.35681 0.05736 0.99164 0.0
H846 H 0.37732 0.11915 0.99809 0.0
H847 H 0.32395 0.08443 0.98111 0.0
C848 C 0.8322 0.7371 0.47813 0.0
C849 C 0.79816 0.70689 0.4619 0.0
C850 C 0.81846 0.75216 0.4982 0.0
C851 C 0.76985 0.73839 0.50148 0.0
C852 C 0.73557 0.70842 0.48489 0.0
C853 C 0.75003 0.69237 0.46556 0.0
C854 C 0.85586 0.78266 0.51589 0.0
C855 C 0.68369 0.69418 0.48724 0.0
C856 C 0.71979 0.73975 0.56109 0.0
C857 C 0.72081 0.78353 0.56086 0.0
C858 C 0.73721 0.72546 0.54224 0.0
C859 C 0.75447 0.75488 0.52228 0.0
C860 C 0.75516 0.79907 0.52191 0.0
C861 C 0.73927 0.81336 0.54146 0.0
C862 C 0.73743 0.67899 0.54375 0.0
C863 C 0.77188 0.83082 0.50073 0.0
H864 H 0.86945 0.74856 0.47523 0.0
H865 H 0.72377 0.6699 0.45275 0.0
H866 H 0.85842 0.81805 0.51716 0.0
H867 H 0.84561 0.76588 0.53333 0.0
H868 H 0.89158 0.78804 0.51143 0.0
H869 H 0.66185 0.67217 0.47237 0.0
H870 H 0.66887 0.67362 0.5035 0.0
H871 H 0.6802 0.72653 0.48841 0.0
H872 H 0.70653 0.71722 0.57637 0.0
H873 H 0.74036 0.84738 0.54143 0.0
H874 H 0.7737 0.68511 0.5401 0.0
H875 H 0.71315 0.65374 0.53043 0.0
H876 H 0.72606 0.662 0.56111 0.0
H877 H 0.80939 0.84145 0.49677 0.0
H878 H 0.7694 0.86358 0.50306 0.0
H879 H 0.75014 0.811 0.4854 0.0
C880 C 0.05394 0.25581 0.95992 0.0
C881 C 0.09051 0.3034 0.95775 0.0
C882 C 0.02366 0.2404 0.97936 0.0
C883 C 0.03017 0.27327 0.99722 0.0
C884 C 0.06785 0.3211 0.99541 0.0
C885 C 0.09717 0.33573 0.97558 0.0
C886 C 0.98369 0.18925 0.98019 0.0
C887 C 0.07724 0.35683 0.01446 0.0
C888 C 0.92759 0.24812 0.0383 0.0
C889 C 0.93715 0.2267 0.05713 0.0
C890 C 0.95705 0.26267 0.01847 0.0
C891 C 0.99803 0.25746 0.01793 0.0
C892 C 1.00806 0.23647 0.03712 0.0
C893 C 0.97717 0.22073 0.05628 0.0
C894 C 0.94408 0.28311 0.998 0.0
C895 C 0.05161 0.23082 0.03747 0.0
H896 H 0.04786 0.23073 0.94603 0.0
H897 H 0.12537 0.37253 0.97403 0.0
H898 H 0.99134 0.16604 0.96894 0.0
H899 H 0.97717 0.17462 0.99809 0.0
H900 H 0.95042 0.18752 0.97394 0.0
H901 H 0.10911 0.39208 0.01088 0.0
H902 H 0.04596 0.36181 0.01652 0.0
H903 H 0.08258 0.34327 0.03127 0.0
H904 H 0.89674 0.25281 0.03895 0.0
H905 H 0.98521 0.20495 0.07099 0.0
H906 H 0.93988 0.26161 0.98221 0.0
H907 H 0.97314 0.31999 0.99448 0.0
H908 H 0.91051 0.28376 1.00089 0.0
H909 H 0.05021 0.20803 0.02273 0.0
H910 H 0.05479 0.21456 0.0539 0.0
H911 H 0.0842 0.26612 0.03527 0.0
C912 C 0.27663 0.09346 0.47505 0.0
C913 C 0.30527 0.08717 0.45885 0.0
C914 C 0.2605 0.06505 0.49521 0.0
C915 C 0.27172 0.02836 0.49864 0.0
C916 C 0.29946 0.02111 0.48189 0.0
C917 C 0.31656 0.05112 0.46245 0.0
C918 C 0.23221 0.07478 0.51301 0.0
C919 C 0.31095 0.98148 0.48443 0.0
C920 C 0.27536 0.98052 0.55842 0.0
C921 C 0.23139 0.93818 0.55925 0.0
C922 C 0.28786 0.01128 0.53926 0.0
C923 C 0.25629 0.99852 0.5201 0.0
C924 C 0.21158 0.95576 0.52093 0.0
C925 C 0.19923 0.9265 0.54078 0.0
C926 C 0.33515 0.05718 0.53945 0.0
C927 C 0.17756 0.9402 0.50058 0.0
H928 H 0.26765 0.12115 0.47216 0.0
H929 H 0.33777 0.04545 0.44965 0.0
H930 H 0.19688 0.04251 0.5156 0.0
H931 H 0.25094 0.08341 0.53002 0.0
H932 H 0.22676 0.1048 0.50785 0.0
H933 H 0.33031 0.97873 0.46912 0.0
H934 H 0.3332 0.9876 0.50014 0.0
H935 H 0.27763 0.94683 0.48676 0.0
H936 H 0.29975 0.98995 0.57299 0.0
H937 H 0.16511 0.89381 0.54159 0.0
H938 H 0.32997 0.08773 0.53516 0.0
H939 H 0.35885 0.05571 0.52598 0.0
H940 H 0.35341 0.06403 0.55656 0.0
H941 H 0.16922 0.9685 0.49598 0.0
H942 H 0.14369 0.90675 0.50422 0.0
H943 H 0.19454 0.9344 0.48514 0.0
C944 C 0.76517 0.68407 0.0424 0.0
C945 C 0.79229 0.7163 0.06001 0.0
C946 C 0.75065 0.69925 0.02267 0.0
C947 C 0.76242 0.74759 0.02076 0.0
C948 C 0.79033 0.78037 0.03837 0.0
C949 C 0.80502 0.76438 0.05771 0.0
C950 C 0.72279 0.66359 1.00382 0.0
C951 C 0.80344 0.8321 0.03733 0.0
C952 C 0.76124 0.79989 0.96171 0.0
C953 C 0.71574 0.79511 0.96118 0.0
C954 C 0.7765 0.78394 0.98079 0.0
C955 C 0.74611 0.76398 1.00022 0.0
C956 C 0.7005 0.76013 1.00003 0.0
C957 C 0.6854 0.77479 0.98026 0.0
C958 C 0.825 0.78799 0.98005 0.0
C959 C 0.66791 0.74097 0.0208 0.0
H960 H 0.75532 0.64689 0.04405 0.0
H961 H 0.8252 0.78938 0.07145 0.0
H962 H 0.68693 0.65975 1.0021 0.0
H963 H 0.74107 0.6765 0.98686 0.0
H964 H 0.71847 0.6279 1.00739 0.0
H965 H 0.83498 0.85463 0.04835 0.0
H966 H 0.8114 0.84631 0.01937 0.0
H967 H 0.7729 0.83541 0.0437 0.0
H968 H 0.78449 0.81477 0.94677 0.0
H969 H 0.65021 0.77101 0.97982 0.0
H970 H 0.821 0.75194 0.98128 0.0
H971 H 0.84678 0.80895 0.99514 0.0
H972 H 0.84469 0.80534 0.96388 0.0
H973 H 0.65887 0.70369 0.02431 0.0
H974 H 0.63431 0.74178 0.01823 0.0
H975 H 0.68641 0.76234 0.03645 0.0
C976 C 0.04773 0.25285 0.55798 0.0
C977 C 0.08805 0.29855 0.55868 0.0
C978 C 0.01615 0.23813 0.53902 0.0
C979 C 0.02614 0.2691 0.51981 0.0
C980 C 0.06768 0.31479 0.52013 0.0
C981 C 0.09758 0.32938 0.53981 0.0
C982 C 0.9719 0.18955 0.53961 0.0
C983 C 0.08076 0.34806 0.49961 0.0
C984 C 0.96969 0.21217 0.46181 0.0
C985 C 0.9341 0.22456 0.4594 0.0
C986 C 0.99978 0.22637 0.48133 0.0
C987 C 0.99381 0.25314 0.49913 0.0
C988 C 0.95715 0.2648 0.49706 0.0
C989 C 0.92822 0.25106 0.47702 0.0
C990 C 0.03903 0.2141 0.4823 0.0
C991 C 0.94836 0.29159 0.51608 0.0
H992 H 0.03999 0.22905 0.57265 0.0
H993 H 0.12877 0.36471 0.54032 0.0
H994 H 0.93979 0.19311 0.5373 0.0
H995 H 0.97253 0.16735 0.52508 0.0
H996 H 0.96855 0.17061 0.5562 0.0
H997 H 0.1149 0.38182 0.50234 0.0
H998 H 0.08392 0.33025 0.48378 0.0
H999 H 0.05225 0.35682 0.49629 0.0
H1000 H 0.97511 0.19254 0.44802 0.0
H1001 H 0.90071 0.26062 0.47522 0.0
H1002 H 0.03184 0.18425 0.47037 0.0
H1003 H 0.04388 0.20403 0.50009 0.0
H1004 H 0.07308 0.24582 0.47705 0.0
H1005 H 0.94274 0.27266 0.53289 0.0
H1006 H 0.91687 0.29563 0.51242 0.0
H1007 H 0.98003 0.32758 0.51818 0.0
C1008 C 0.71212 0.14218 0.09549 0.0
C1009 C 0.74777 0.16792 0.11196 0.0
C1010 C 0.6681 0.14075 0.09644 0.0
C1011 C 0.65963 0.16574 0.11429 0.0
C1012 C 0.69619 0.19315 0.1305 0.0
C1013 C 0.73973 0.19364 0.12923 0.0
C1014 C 0.63013 0.11128 0.07877 0.0
C1015 C 0.68876 0.22059 0.14969 0.0
C1016 C 0.55451 0.1862 0.10665 0.0
C1017 C 0.51922 0.14874 0.11978 0.0
C1018 C 0.60068 0.19278 0.10503 0.0
C1019 C 0.61163 0.16092 0.11672 0.0
C1020 C 0.57621 0.12344 0.13028 0.0
C1021 C 0.53041 0.11786 0.13169 0.0
C1022 C 0.63755 0.23344 0.0906 0.0
C1023 C 0.58654 0.08884 0.14309 0.0
H1024 H 0.71825 0.12221 0.08214 0.0
H1025 H 0.76681 0.21282 0.1423 0.0
H1026 H 0.59914 0.08154 0.08765 0.0
H1027 H 0.61723 0.13334 0.07009 0.0
H1028 H 0.6432 0.09606 0.06527 0.0
H1029 H 0.72206 0.24348 0.15956 0.0
H1030 H 0.67533 0.24344 0.14244 0.0
H1031 H 0.66143 0.19528 0.16197 0.0
H1032 H 0.546 0.21039 0.09758 0.0
H1033 H 0.5032 0.08899 0.14192 0.0
H1034 H 0.64875 0.21912 0.0759 0.0
H1035 H 0.66977 0.25592 0.10121 0.0
H1036 H 0.62397 0.25634 0.08349 0.0
H1037 H 0.59662 0.06943 0.13051 0.0
H1038 H 0.55546 0.06235 0.15331 0.0
H1039 H 0.61716 0.10849 0.15507 0.0
C1040 C 0.6561 0.4589 0.38336 0.0
C1041 C 0.65536 0.49725 0.39427 0.0
C1042 C 0.6156 0.41305 0.3835 0.0
C1043 C 0.57375 0.40556 0.39499 0.0
C1044 C 0.57358 0.44399 0.40668 0.0
C1045 C 0.6143 0.4894 0.40605 0.0
C1046 C 0.6171 0.3731 0.37073 0.0
C1047 C 0.52995 0.43742 0.41941 0.0
C1048 C 0.45007 0.31098 0.37621 0.0
C1049 C 0.43748 0.27681 0.39376 0.0
C1050 C 0.49542 0.35171 0.37567 0.0
C1051 C 0.52876 0.35884 0.39338 0.0
C1052 C 0.51688 0.3234 0.41065 0.0
C1053 C 0.47123 0.2826 0.41061 0.0
C1054 C 0.50687 0.38808 0.35667 0.0
C1055 C 0.55137 0.32969 0.42985 0.0
H1056 H 0.68803 0.46491 0.37438 0.0
H1057 H 0.61385 0.51893 0.41471 0.0
H1058 H 0.60427 0.34133 0.38208 0.0
H1059 H 0.59291 0.36237 0.35546 0.0
H1060 H 0.65354 0.38361 0.36458 0.0
H1061 H 0.53679 0.46999 0.42904 0.0
H1062 H 0.50062 0.42828 0.40682 0.0
H1063 H 0.51745 0.40742 0.4319 0.0
H1064 H 0.42408 0.30618 0.36301 0.0
H1065 H 0.4613 0.25633 0.4243 0.0
H1066 H 0.54155 0.39775 0.3485 0.0
H1067 H 0.51012 0.42111 0.36423 0.0
H1068 H 0.47901 0.3749 0.34293 0.0
H1069 H 0.58721 0.34101 0.42266 0.0
H1070 H 0.53929 0.29641 0.44002 0.0
H1071 H 0.55504 0.35818 0.44184 0.0
C1072 C 0.90578 0.41341 0.11033 0.0
C1073 C 0.86998 0.37002 0.11931 0.0
C1074 C 0.8995 0.45334 0.1091 0.0
C1075 C 0.8569 0.45011 0.11761 0.0
C1076 C 0.82033 0.40602 0.12637 0.0
C1077 C 0.82713 0.36638 0.12687 0.0
C1078 C 0.93895 0.49933 0.09914 0.0
C1079 C 0.77488 0.40119 0.13614 0.0
C1080 C 0.8735 0.5682 0.13923 0.0
C1081 C 0.85423 0.58195 0.12101 0.0
C1082 C 0.87235 0.52434 0.13881 0.0
C1083 C 0.85275 0.49396 0.11929 0.0
C1084 C 0.83186 0.50705 0.10109 0.0
C1085 C 0.83231 0.5508 0.10231 0.0
C1086 C 0.89349 0.51124 0.15899 0.0
C1087 C 0.81122 0.47604 0.07984 0.0
H1088 H 0.93872 0.41615 0.10427 0.0
H1089 H 0.79932 0.33279 0.13381 0.0
H1090 H 0.92444 0.51348 0.08582 0.0
H1091 H 0.95498 0.5265 0.11311 0.0
H1092 H 0.96757 0.49471 0.09112 0.0
H1093 H 0.74846 0.36368 0.14058 0.0
H1094 H 0.78315 0.42321 0.1521 0.0
H1095 H 0.7584 0.41466 0.12355 0.0
H1096 H 0.89007 0.59219 0.15381 0.0
H1097 H 0.81769 0.56165 0.08815 0.0
H1098 H 0.92613 0.51116 0.15325 0.0
H1099 H 0.86797 0.47479 0.16523 0.0
H1100 H 0.90301 0.5365 0.17377 0.0
H1101 H 0.84024 0.47528 0.06997 0.0
H1102 H 0.79289 0.48919 0.06818 0.0
H1103 H 0.78552 0.43881 0.08494 0.0
C1104 C 0.5541 0.19135 0.41274 0.0
C1105 C 0.52099 0.15824 0.39701 0.0
C1106 C 0.59906 0.19553 0.41584 0.0
C1107 C 0.61123 0.16613 0.40275 0.0
C1108 C 0.5782 0.13333 0.38648 0.0
C1109 C 0.53335 0.12963 0.38388 0.0
C1110 C 0.63319 0.23083 0.43337 0.0
C1111 C 0.59011 0.10186 0.37194 0.0
C1112 C 0.74035 0.19917 0.39413 0.0
C1113 C 0.74408 0.16681 0.40899 0.0
C1114 C 0.69783 0.20056 0.39251 0.0
C1115 C 0.65819 0.16899 0.40618 0.0
C1116 C 0.66263 0.138 0.42212 0.0
C1117 C 0.70556 0.13717 0.42327 0.0
C1118 C 0.69469 0.23415 0.3753 0.0
C1119 C 0.62144 0.1044 0.43728 0.0
H1120 H 0.5446 0.2136 0.42288 0.0
H1121 H 0.50783 0.10414 0.37166 0.0
H1122 H 0.64096 0.21165 0.44714 0.0
H1123 H 0.66752 0.25572 0.42489 0.0
H1124 H 0.61879 0.25199 0.44167 0.0
H1125 H 0.56106 0.07925 0.3596 0.0
H1126 H 0.62318 0.12408 0.36189 0.0
H1127 H 0.59689 0.07829 0.3834 0.0
H1128 H 0.77011 0.22221 0.38306 0.0
H1129 H 0.70845 0.11226 0.43483 0.0
H1130 H 0.6799 0.25478 0.38372 0.0
H1131 H 0.67011 0.21325 0.36097 0.0
H1132 H 0.72994 0.25958 0.36771 0.0
H1133 H 0.60699 0.12422 0.4468 0.0
H1134 H 0.63186 0.08554 0.4501 0.0
H1135 H 0.59229 0.07741 0.42626 0.0
C1136 C 0.47685 0.27461 0.12368 0.0
C1137 C 0.4409 0.26957 0.10834 0.0
C1138 C 0.52031 0.3176 0.12513 0.0
C1139 C 0.52806 0.35637 0.11078 0.0
C1140 C 0.49286 0.35056 0.09436 0.0
C1141 C 0.44953 0.30721 0.09342 0.0
C1142 C 0.5568 0.32228 0.14289 0.0
C1143 C 0.50015 0.39078 0.07847 0.0
C1144 C 0.60999 0.48254 0.13241 0.0
C1145 C 0.65179 0.49545 0.11997 0.0
C1146 C 0.56972 0.4371 0.1298 0.0
C1147 C 0.57123 0.40402 0.11418 0.0
C1148 C 0.61363 0.41677 0.10175 0.0
C1149 C 0.65353 0.46235 0.10488 0.0
C1150 C 0.52544 0.4246 0.14366 0.0
C1151 C 0.61658 0.38258 0.0849 0.0
H1152 H 0.47026 0.2456 0.13533 0.0
H1153 H 0.42185 0.30329 0.08148 0.0
H1154 H 0.59247 0.33719 0.13479 0.0
H1155 H 0.55962 0.3474 0.15676 0.0
H1156 H 0.54735 0.28755 0.15106 0.0
H1157 H 0.47141 0.37917 0.06525 0.0
H1158 H 0.50101 0.42004 0.08889 0.0
H1159 H 0.53489 0.4056 0.0694 0.0
H1160 H 0.60869 0.50806 0.14416 0.0
H1161 H 0.68593 0.4723 0.09525 0.0
H1162 H 0.5149 0.392 0.15411 0.0
H1163 H 0.49545 0.41672 0.13171 0.0
H1164 H 0.53056 0.45381 0.15557 0.0
H1165 H 0.60776 0.34879 0.09385 0.0
H1166 H 0.65252 0.39759 0.077 0.0
H1167 H 0.59002 0.37356 0.07079 0.0
C1168 C 0.90183 0.57954 0.39961 0.0
C1169 C 0.86278 0.58539 0.40473 0.0
C1170 C 0.89775 0.53441 0.39984 0.0
C1171 C 0.85294 0.49368 0.40437 0.0
C1172 C 0.81338 0.49932 0.40992 0.0
C1173 C 0.81925 0.54544 0.41075 0.0
C1174 C 0.9414 0.53037 0.39483 0.0
C1175 C 0.76461 0.45672 0.41402 0.0
C1176 C 0.84717 0.3831 0.37865 0.0
C1177 C 0.85561 0.3628 0.39826 0.0
C1178 C 0.8423 0.4237 0.3807 0.0
C1179 C 0.84813 0.44555 0.40274 0.0
C1180 C 0.85545 0.42428 0.42269 0.0
C1181 C 0.85817 0.38253 0.42024 0.0
C1182 C 0.83269 0.44423 0.35915 0.0
C1183 C 0.8635 0.44724 0.44636 0.0
H1184 H 0.93585 0.61044 0.39532 0.0
H1185 H 0.7896 0.5501 0.41561 0.0
H1186 H 0.94626 0.50908 0.40856 0.0
H1187 H 0.93679 0.51159 0.37807 0.0
H1188 H 0.97434 0.56577 0.3938 0.0
H1189 H 0.73824 0.46727 0.41943 0.0
H1190 H 0.75168 0.4355 0.39777 0.0
H1191 H 0.76624 0.43312 0.42752 0.0
H1192 H 0.84448 0.36728 0.3617 0.0
H1193 H 0.86473 0.36668 0.43539 0.0
H1194 H 0.86523 0.47792 0.35431 0.0
H1195 H 0.80407 0.45283 0.3625 0.0
H1196 H 0.82206 0.41934 0.34415 0.0
H1197 H 0.89771 0.48155 0.44635 0.0
H1198 H 0.86486 0.42426 0.46034 0.0
H1199 H 0.83492 0.45542 0.45047 0.0
C1200 C 0.2112 0.74006 0.62296 0.0
C1201 C 0.16956 0.73776 0.61454 0.0
C1202 C 0.21568 0.69904 0.6237 0.0
C1203 C 0.17737 0.65488 0.61592 0.0
C1204 C 0.13582 0.65294 0.60675 0.0
C1205 C 0.13226 0.69434 0.60642 0.0
C1206 C 0.26034 0.70258 0.63386 0.0
C1207 C 0.0944 0.60679 0.59798 0.0
C1208 C 0.19199 0.54815 0.60208 0.0
C1209 C 0.17031 0.51895 0.62143 0.0
C1210 C 0.19624 0.59341 0.60039 0.0
C1211 C 0.17888 0.60992 0.61862 0.0
C1212 C 0.1589 0.58133 0.63867 0.0
C1213 C 0.15454 0.53599 0.63975 0.0
C1214 C 0.2175 0.6227 0.57871 0.0
C1215 C 0.1407 0.59798 0.65866 0.0
H1216 H 0.23908 0.77316 0.6302 0.0
H1217 H 0.09987 0.69263 0.6001 0.0
H1218 H 0.25201 0.68457 0.65103 0.0
H1219 H 0.27388 0.68421 0.62256 0.0
H1220 H 0.28903 0.74021 0.63625 0.0
H1221 H 0.0663 0.6121 0.58979 0.0
H1222 H 0.10692 0.59004 0.58506 0.0
H1223 H 0.07828 0.58138 0.61262 0.0
H1224 H 0.20448 0.53509 0.58795 0.0
H1225 H 0.13823 0.51361 0.65483 0.0
H1226 H 0.24604 0.65922 0.58334 0.0
H1227 H 0.18963 0.6262 0.56913 0.0
H1228 H 0.23257 0.60642 0.56692 0.0
H1229 H 0.16839 0.63412 0.66434 0.0
H1230 H 0.13016 0.57348 0.6738 0.0
H1231 H 0.10927 0.60045 0.65292 0.0
C1232 C 0.41347 0.89276 0.88371 0.0
C1233 C 0.37093 0.86055 0.89476 0.0
C1234 C 0.45418 0.88827 0.8858 0.0
C1235 C 0.45215 0.85063 0.89925 0.0
C1236 C 0.4089 0.81736 0.91005 0.0
C1237 C 0.3687 0.82277 0.90769 0.0
C1238 C 0.49957 0.92422 0.87385 0.0
C1239 C 0.40528 0.77654 0.92434 0.0
C1240 C 0.55125 0.82348 0.8875 0.0
C1241 C 0.58401 0.84983 0.90505 0.0
C1242 C 0.50708 0.82148 0.88604 0.0
C1243 C 0.49582 0.84709 0.90234 0.0
C1244 C 0.52818 0.87251 0.92055 0.0
C1245 C 0.572 0.87362 0.92166 0.0
C1246 C 0.47347 0.79376 0.86645 0.0
C1247 C 0.51728 0.90004 0.93832 0.0
H1248 H 0.4151 0.92187 0.87365 0.0
H1249 H 0.33563 0.79766 0.91613 0.0
H1250 H 0.52796 0.94368 0.88697 0.0
H1251 H 0.51218 0.90571 0.86206 0.0
H1252 H 0.49483 0.95062 0.86356 0.0
H1253 H 0.36853 0.75267 0.93079 0.0
H1254 H 0.41652 0.75509 0.91386 0.0
H1255 H 0.42973 0.79072 0.93948 0.0
H1256 H 0.56081 0.80582 0.87433 0.0
H1257 H 0.59738 0.89402 0.93522 0.0
H1258 H 0.47109 0.81886 0.85412 0.0
H1259 H 0.43708 0.76988 0.87324 0.0
H1260 H 0.48534 0.77187 0.85675 0.0
H1261 H 0.51576 0.9299 0.92967 0.0
H1262 H 0.5445 0.91494 0.95235 0.0
H1263 H 0.48189 0.87673 0.94628 0.0
C1264 C 0.47663 0.63872 0.60598 0.0
C1265 C 0.50473 0.64828 0.62599 0.0
C1266 C 0.43196 0.59705 0.6042 0.0
C1267 C 0.41474 0.56463 0.62305 0.0
C1268 C 0.44215 0.57528 0.6437 0.0
C1269 C 0.48707 0.61681 0.64484 0.0
C1270 C 0.40408 0.58682 0.58182 0.0
C1271 C 0.42462 0.54212 0.66436 0.0
C1272 C 0.28406 0.4676 0.62519 0.0
C1273 C 0.28663 0.42768 0.61797 0.0
C1274 C 0.32531 0.51277 0.62658 0.0
C1275 C 0.37003 0.51785 0.62054 0.0
C1276 C 0.37246 0.47757 0.6128 0.0
C1277 C 0.33078 0.43287 0.6119 0.0
C1278 C 0.32122 0.55455 0.63533 0.0
C1279 C 0.41922 0.48149 0.60582 0.0
H1280 H 0.49018 0.66314 0.59139 0.0
H1281 H 0.50858 0.6244 0.66042 0.0
H1282 H 0.40117 0.55454 0.57349 0.0
H1283 H 0.36733 0.5793 0.5854 0.0
H1284 H 0.42105 0.61693 0.56933 0.0
H1285 H 0.44813 0.55755 0.67979 0.0
H1286 H 0.38804 0.53371 0.66909 0.0
H1287 H 0.42293 0.50799 0.65984 0.0
H1288 H 0.25029 0.46314 0.63085 0.0
H1289 H 0.33271 0.40178 0.60649 0.0
H1290 H 0.33938 0.58528 0.62332 0.0
H1291 H 0.3392 0.56612 0.65247 0.0
H1292 H 0.28351 0.54559 0.63731 0.0
H1293 H 0.43695 0.5095 0.59238 0.0
H1294 H 0.41457 0.44738 0.5989 0.0
H1295 H 0.44345 0.4922 0.62106 0.0
C1296 C 0.15078 0.71102 0.87448 0.0
C1297 C 0.17016 0.7446 0.89243 0.0
C1298 C 0.15504 0.66999 0.87456 0.0
C1299 C 0.17832 0.6618 0.89336 0.0
C1300 C 0.19962 0.69662 0.91113 0.0
C1301 C 0.19552 0.73789 0.91036 0.0
C1302 C 0.13292 0.63451 0.85494 0.0
C1303 C 0.22451 0.68915 0.93153 0.0
C1304 C 0.13018 0.53026 0.90524 0.0
C1305 C 0.16506 0.52254 0.89517 0.0
C1306 C 0.13529 0.57592 0.90569 0.0
C1307 C 0.17589 0.61471 0.89542 0.0
C1308 C 0.21184 0.60729 0.88568 0.0
C1309 C 0.20613 0.56124 0.88582 0.0
C1310 C 0.09655 0.58239 0.91666 0.0
C1311 C 0.25538 0.64751 0.87432 0.0
H1312 H 0.13167 0.71656 0.86043 0.0
H1313 H 0.21032 0.76383 0.92431 0.0
H1314 H 0.15877 0.62457 0.84806 0.0
H1315 H 0.1017 0.60146 0.86152 0.0
H1316 H 0.12091 0.64865 0.84042 0.0
H1317 H 0.24379 0.72175 0.9424 0.0
H1318 H 0.19783 0.65984 0.94255 0.0
H1319 H 0.25026 0.67836 0.92551 0.0
H1320 H 0.09863 0.50046 0.91269 0.0
H1321 H 0.23325 0.55531 0.87809 0.0
H1322 H 0.07842 0.59201 0.9031 0.0
H1323 H 0.1122 0.61204 0.92944 0.0
H1324 H 0.06938 0.54961 0.92562 0.0
H1325 H 0.24463 0.65857 0.85821 0.0
H1326 H 0.28224 0.63707 0.86975 0.0
H1327 H 0.27232 0.67906 0.88595 0.0
C1328 C 0.37852 0.83003 0.60216 0.0
C1329 C 0.37443 0.85726 0.62 0.0
C1330 C 0.41918 0.82521 0.60032 0.0
C1331 C 0.45643 0.84798 0.6168 0.0
C1332 C 0.45156 0.87403 0.63536 0.0
C1333 C 0.41066 0.8785 0.63668 0.0
C1334 C 0.42297 0.79712 0.58032 0.0
C1335 C 0.49021 0.89839 0.65344 0.0
C1336 C 0.55451 0.81614 0.62259 0.0
C1337 C 0.59205 0.85421 0.61082 0.0
C1338 C 0.50948 0.81257 0.62409 0.0
C1339 C 0.50217 0.84811 0.61364 0.0
C1340 C 0.53974 0.88576 0.60112 0.0
C1341 C 0.58428 0.88847 0.6 0.0
C1342 C 0.47052 0.77201 0.6377 0.0
C1343 C 0.5334 0.92411 0.58951 0.0
H1344 H 0.35031 0.81321 0.58935 0.0
H1345 H 0.40736 0.8992 0.65061 0.0
H1346 H 0.4523 0.82145 0.56861 0.0
H1347 H 0.43182 0.77019 0.58683 0.0
H1348 H 0.38948 0.77862 0.57003 0.0
H1349 H 0.47944 0.91419 0.66768 0.0
H1350 H 0.49957 0.87264 0.66107 0.0
H1351 H 0.52285 0.92721 0.64516 0.0
H1352 H 0.5609 0.79044 0.63154 0.0
H1353 H 0.61343 0.91803 0.59097 0.0
H1354 H 0.43665 0.75508 0.62772 0.0
H1355 H 0.46408 0.78604 0.65406 0.0
H1356 H 0.47988 0.74428 0.64218 0.0
H1357 H 0.50193 0.90777 0.57781 0.0
H1358 H 0.56514 0.94915 0.57922 0.0
H1359 H 0.52678 0.94482 0.60288 0.0
C1360 C 0.46674 0.65519 0.89349 0.0
C1361 C 0.50638 0.65051 0.89911 0.0
C1362 C 0.42037 0.61563 0.89403 0.0
C1363 C 0.4135 0.57056 0.90082 0.0
C1364 C 0.45339 0.5662 0.9074 0.0
C1365 C 0.49943 0.60613 0.90619 0.0
C1366 C 0.37908 0.62171 0.88636 0.0
C1367 C 0.44754 0.51902 0.91521 0.0
C1368 C 0.2907 0.46754 0.91692 0.0
C1369 C 0.28026 0.43835 0.89732 0.0
C1370 C 0.3335 0.51161 0.91817 0.0
C1371 C 0.36548 0.52705 0.89909 0.0
C1372 C 0.3531 0.49888 0.87868 0.0
C1373 C 0.31107 0.45454 0.87823 0.0
C1374 C 0.34574 0.54022 0.94036 0.0
C1375 C 0.38518 0.5146 0.85763 0.0
H1376 H 0.47208 0.68959 0.88801 0.0
H1377 H 0.53002 0.6026 0.91074 0.0
H1378 H 0.36432 0.6022 0.8698 0.0
H1379 H 0.34998 0.60621 0.89937 0.0
H1380 H 0.38979 0.65976 0.88366 0.0
H1381 H 0.48135 0.52259 0.92194 0.0
H1382 H 0.42009 0.50325 0.92902 0.0
H1383 H 0.43515 0.49365 0.90041 0.0
H1384 H 0.26684 0.45474 0.93172 0.0
H1385 H 0.3026 0.43202 0.86297 0.0
H1386 H 0.35677 0.57794 0.93659 0.0
H1387 H 0.37637 0.53998 0.94891 0.0
H1388 H 0.31539 0.52568 0.95273 0.0
H1389 H 0.39552 0.55176 0.85287 0.0
H1390 H 0.36791 0.49122 0.84234 0.0
H1391 H 0.41838 0.514 0.86168 0.0
loop_
_geom_bond_atom_site_label_1
_geom_bond_atom_site_label_2
_geom_bond_distance
_geom_bond_site_symmetry_2
_ccdc_geom_bond_type
Tb0 O3 2.453 . S
Tb0 O4 2.596 . S
Tb0 O5 2.374 . S
Tb0 O13 2.343 . S
Tb0 O15 2.353 . S
Tb0 O17 2.427 . S
Tb0 O18 2.513 . S
C1 O5 1.251 . S
C1 O7 1.263 . S
Tb2 O4 2.343 . S
Tb2 O7 2.353 . S
Tb2 O10 2.427 . S
Tb2 O11 2.513 . S
Tb2 O12 2.453 . S
Tb2 O13 2.596 . S
Tb2 O14 2.374 . S
O3 Tb0 2.453 . S
O3 C19 1.245 . S
O4 Tb0 2.596 . S
O4 Tb2 2.343 . S
O4 C19 1.259 . S
O5 Tb0 2.374 . S
O5 C1 1.251 . S
C6 O10 1.275 . S
C6 O11 1.246 . S
O7 C1 1.263 . S
O7 Tb2 2.353 . S
C8 O12 1.245 . S
C8 O13 1.259 . S
C9 O14 1.250 . S
C9 O15 1.263 . S
O10 Tb2 2.427 . S
O10 C6 1.275 . S
O11 Tb2 2.513 . S
O11 C6 1.246 . S
O12 Tb2 2.453 . S
O12 C8 1.245 . S
O13 Tb0 2.343 . S
O13 Tb2 2.596 . S
O13 C8 1.259 . S
O14 Tb2 2.374 . S
O14 C9 1.250 . S
O15 Tb0 2.353 . S
O15 C9 1.263 . S
C16 O17 1.275 . S
C16 O18 1.246 . S
O17 Tb0 2.427 . S
O17 C16 1.275 . S
O18 Tb0 2.513 . S
O18 C16 1.246 . S
C19 O3 1.245 . S
C19 O4 1.259 . S
Tb20 O23 2.453 . S
Tb20 O24 2.596 . S
Tb20 O25 2.374 . S
Tb20 O33 2.343 . S
Tb20 O35 2.353 . S
Tb20 O37 2.427 . S
Tb20 O38 2.513 . S
C21 O25 1.251 . S
C21 O27 1.263 . S
Tb22 O24 2.343 . S
Tb22 O27 2.353 . S
Tb22 O30 2.427 . S
Tb22 O31 2.513 . S
Tb22 O32 2.453 . S
Tb22 O33 2.596 . S
Tb22 O34 2.374 . S
O23 Tb20 2.453 . S
O23 C39 1.245 . S
O24 Tb20 2.596 . S
O24 Tb22 2.343 . S
O24 C39 1.259 . S
O25 Tb20 2.374 . S
O25 C21 1.251 . S
C26 O30 1.275 . S
C26 O31 1.246 . S
O27 C21 1.263 . S
O27 Tb22 2.353 . S
C28 O32 1.245 . S
C28 O33 1.259 . S
C29 O34 1.250 . S
C29 O35 1.263 . S
O30 Tb22 2.427 . S
O30 C26 1.275 . S
O31 Tb22 2.513 . S
O31 C26 1.246 . S
O32 Tb22 2.453 . S
O32 C28 1.245 . S
O33 Tb20 2.343 . S
O33 Tb22 2.596 . S
O33 C28 1.259 . S
O34 Tb22 2.374 . S
O34 C29 1.250 . S
O35 Tb20 2.353 . S
O35 C29 1.263 . S
C36 O37 1.275 . S
C36 O38 1.246 . S
O37 Tb20 2.427 . S
O37 C36 1.275 . S
O38 Tb20 2.513 . S
O38 C36 1.246 . S
C39 O23 1.245 . S
C39 O24 1.259 . S
Tb40 O43 2.453 . S
Tb40 O44 2.596 . S
Tb40 O45 2.374 . S
Tb40 O53 2.343 . S
Tb40 O55 2.353 . S
Tb40 O57 2.427 . S
Tb40 O58 2.513 . S
C41 O45 1.251 . S
C41 O47 1.263 . S
Tb42 O44 2.343 . S
Tb42 O47 2.353 . S
Tb42 O50 2.427 . S
Tb42 O51 2.513 . S
Tb42 O52 2.453 . S
Tb42 O53 2.596 . S
Tb42 O54 2.374 . S
O43 Tb40 2.453 . S
O43 C59 1.245 . S
O44 Tb40 2.596 . S
O44 Tb42 2.343 . S
O44 C59 1.259 . S
O45 Tb40 2.374 . S
O45 C41 1.251 . S
C46 O50 1.275 . S
C46 O51 1.246 . S
O47 C41 1.263 . S
O47 Tb42 2.353 . S
C48 O52 1.245 . S
C48 O53 1.259 . S
C49 O54 1.250 . S
C49 O55 1.263 . S
O50 Tb42 2.427 . S
O50 C46 1.275 . S
O51 Tb42 2.513 . S
O51 C46 1.246 . S
O52 Tb42 2.453 . S
O52 C48 1.245 . S
O53 Tb40 2.343 . S
O53 Tb42 2.596 . S
O53 C48 1.259 . S
O54 Tb42 2.374 . S
O54 C49 1.250 . S
O55 Tb40 2.353 . S
O55 C49 1.263 . S
C56 O57 1.275 . S
C56 O58 1.246 . S
O57 Tb40 2.427 . S
O57 C56 1.275 . S
O58 Tb40 2.513 . S
O58 C56 1.246 . S
C59 O43 1.245 . S
C59 O44 1.259 . S
Tb60 O63 2.453 . S
Tb60 O64 2.596 . S
Tb60 O65 2.374 . S
Tb60 O73 2.343 . S
Tb60 O75 2.353 . S
Tb60 O77 2.427 . S
Tb60 O78 2.513 . S
C61 O65 1.251 . S
C61 O67 1.263 . S
Tb62 O64 2.343 . S
Tb62 O67 2.353 . S
Tb62 O70 2.427 . S
Tb62 O71 2.513 . S
Tb62 O72 2.453 . S
Tb62 O73 2.596 . S
Tb62 O74 2.374 . S
O63 Tb60 2.453 . S
O63 C79 1.245 . S
O64 Tb60 2.596 . S
O64 Tb62 2.343 . S
O64 C79 1.259 . S
O65 Tb60 2.374 . S
O65 C61 1.251 . S
C66 O70 1.275 . S
C66 O71 1.246 . S
O67 C61 1.263 . S
O67 Tb62 2.353 . S
C68 O72 1.245 . S
C68 O73 1.259 . S
C69 O74 1.250 . S
C69 O75 1.263 . S
O70 Tb62 2.427 . S
O70 C66 1.275 . S
O71 Tb62 2.513 . S
O71 C66 1.246 . S
O72 Tb62 2.453 . S
O72 C68 1.245 . S
O73 Tb60 2.343 . S
O73 Tb62 2.596 . S
O73 C68 1.259 . S
O74 Tb62 2.374 . S
O74 C69 1.250 . S
O75 Tb60 2.353 . S
O75 C69 1.263 . S
C76 O77 1.275 . S
C76 O78 1.246 . S
O77 Tb60 2.427 . S
O77 C76 1.275 . S
O78 Tb60 2.513 . S
O78 C76 1.246 . S
C79 O63 1.245 . S
C79 O64 1.259 . S
Tb80 O83 2.453 . S
Tb80 O84 2.596 . S
Tb80 O85 2.374 . S
Tb80 O93 2.343 . S
Tb80 O95 2.353 . S
Tb80 O97 2.427 . S
Tb80 O98 2.513 . S
C81 O85 1.251 . S
C81 O87 1.263 . S
Tb82 O84 2.343 . S
Tb82 O87 2.353 . S
Tb82 O90 2.427 . S
Tb82 O91 2.513 . S
Tb82 O92 2.453 . S
Tb82 O93 2.596 . S
Tb82 O94 2.374 . S
O83 Tb80 2.453 . S
O83 C99 1.245 . S
O84 Tb80 2.596 . S
O84 Tb82 2.343 . S
O84 C99 1.259 . S
O85 Tb80 2.374 . S
O85 C81 1.251 . S
C86 O90 1.275 . S
C86 O91 1.246 . S
O87 C81 1.263 . S
O87 Tb82 2.353 . S
C88 O92 1.245 . S
C88 O93 1.259 . S
C89 O94 1.250 . S
C89 O95 1.263 . S
O90 Tb82 2.427 . S
O90 C86 1.275 . S
O91 Tb82 2.513 . S
O91 C86 1.246 . S
O92 Tb82 2.453 . S
O92 C88 1.245 . S
O93 Tb80 2.343 . S
O93 Tb82 2.596 . S
O93 C88 1.259 . S
O94 Tb82 2.374 . S
O94 C89 1.250 . S
O95 Tb80 2.353 . S
O95 C89 1.263 . S
C96 O97 1.275 . S
C96 O98 1.246 . S
O97 Tb80 2.427 . S
O97 C96 1.275 . S
O98 Tb80 2.513 . S
O98 C96 1.246 . S
C99 O83 1.245 . S
C99 O84 1.259 . S
Tb100 O103 2.453 . S
Tb100 O104 2.596 . S
Tb100 O105 2.374 . S
Tb100 O113 2.343 . S
Tb100 O115 2.353 . S
Tb100 O117 2.427 . S
Tb100 O118 2.513 . S
C101 O105 1.251 . S
C101 O107 1.263 . S
Tb102 O104 2.343 . S
Tb102 O107 2.353 . S
Tb102 O110 2.427 . S
Tb102 O111 2.513 . S
Tb102 O112 2.453 . S
Tb102 O113 2.596 . S
Tb102 O114 2.374 . S
O103 Tb100 2.453 . S
O103 C119 1.245 . S
O104 Tb100 2.596 . S
O104 Tb102 2.343 . S
O104 C119 1.259 . S
O105 Tb100 2.374 . S
O105 C101 1.251 . S
C106 O110 1.275 . S
C106 O111 1.246 . S
O107 C101 1.263 . S
O107 Tb102 2.353 . S
C108 O112 1.245 . S
C108 O113 1.259 . S
C109 O114 1.250 . S
C109 O115 1.263 . S
O110 Tb102 2.427 . S
O110 C106 1.275 . S
O111 Tb102 2.513 . S
O111 C106 1.246 . S
O112 Tb102 2.453 . S
O112 C108 1.245 . S
O113 Tb100 2.343 . S
O113 Tb102 2.596 . S
O113 C108 1.259 . S
O114 Tb102 2.374 . S
O114 C109 1.250 . S
O115 Tb100 2.353 . S
O115 C109 1.263 . S
C116 O117 1.275 . S
C116 O118 1.246 . S
O117 Tb100 2.427 . S
O117 C116 1.275 . S
O118 Tb100 2.513 . S
O118 C116 1.246 . S
C119 O103 1.245 . S
C119 O104 1.259 . S
Tb120 O123 2.453 . S
Tb120 O124 2.596 . S
Tb120 O125 2.374 . S
Tb120 O133 2.343 . S
Tb120 O135 2.353 . S
Tb120 O137 2.427 . S
Tb120 O138 2.513 . S
C121 O125 1.251 . S
C121 O127 1.263 . S
Tb122 O124 2.343 . S
Tb122 O127 2.353 . S
Tb122 O130 2.427 . S
Tb122 O131 2.513 . S
Tb122 O132 2.453 . S
Tb122 O133 2.596 . S
Tb122 O134 2.374 . S
O123 Tb120 2.453 . S
O123 C139 1.245 . S
O124 Tb120 2.596 . S
O124 Tb122 2.343 . S
O124 C139 1.259 . S
O125 Tb120 2.374 . S
O125 C121 1.251 . S
C126 O130 1.275 . S
C126 O131 1.246 . S
O127 C121 1.263 . S
O127 Tb122 2.353 . S
C128 O132 1.245 . S
C128 O133 1.259 . S
C129 O134 1.250 . S
C129 O135 1.263 . S
O130 Tb122 2.427 . S
O130 C126 1.275 . S
O131 Tb122 2.513 . S
O131 C126 1.246 . S
O132 Tb122 2.453 . S
O132 C128 1.245 . S
O133 Tb120 2.343 . S
O133 Tb122 2.596 . S
O133 C128 1.259 . S
O134 Tb122 2.374 . S
O134 C129 1.250 . S
O135 Tb120 2.353 . S
O135 C129 1.263 . S
C136 O137 1.275 . S
C136 O138 1.246 . S
O137 Tb120 2.427 . S
O137 C136 1.275 . S
O138 Tb120 2.513 . S
O138 C136 1.246 . S
C139 O123 1.245 . S
C139 O124 1.259 . S
Tb140 O143 2.453 . S
Tb140 O144 2.596 . S
Tb140 O145 2.374 . S
Tb140 O153 2.343 . S
Tb140 O155 2.353 . S
Tb140 O157 2.427 . S
Tb140 O158 2.513 . S
C141 O145 1.251 . S
C141 O147 1.263 . S
Tb142 O144 2.343 . S
Tb142 O147 2.353 . S
Tb142 O150 2.427 . S
Tb142 O151 2.513 . S
Tb142 O152 2.453 . S
Tb142 O153 2.596 . S
Tb142 O154 2.374 . S
O143 Tb140 2.453 . S
O143 C159 1.245 . S
O144 Tb140 2.596 . S
O144 Tb142 2.343 . S
O144 C159 1.259 . S
O145 Tb140 2.374 . S
O145 C141 1.251 . S
C146 O150 1.275 . S
C146 O151 1.246 . S
O147 C141 1.263 . S
O147 Tb142 2.353 . S
C148 O152 1.245 . S
C148 O153 1.259 . S
C149 O154 1.250 . S
C149 O155 1.263 . S
O150 Tb142 2.427 . S
O150 C146 1.275 . S
O151 Tb142 2.513 . S
O151 C146 1.246 . S
O152 Tb142 2.453 . S
O152 C148 1.245 . S
O153 Tb140 2.343 . S
O153 Tb142 2.596 . S
O153 C148 1.259 . S
O154 Tb142 2.374 . S
O154 C149 1.250 . S
O155 Tb140 2.353 . S
O155 C149 1.263 . S
C156 O157 1.275 . S
C156 O158 1.246 . S
O157 Tb140 2.427 . S
O157 C156 1.275 . S
O158 Tb140 2.513 . S
O158 C156 1.246 . S
C159 O143 1.245 . S
C159 O144 1.259 . S
Tb160 O163 2.453 . S
Tb160 O164 2.596 . S
Tb160 O165 2.374 . S
Tb160 O173 2.343 . S
Tb160 O175 2.353 . S
Tb160 O177 2.427 . S
Tb160 O178 2.513 . S
C161 O165 1.251 . S
C161 O167 1.263 . S
Tb162 O164 2.343 . S
Tb162 O167 2.353 . S
Tb162 O170 2.427 . S
Tb162 O171 2.513 . S
Tb162 O172 2.453 . S
Tb162 O173 2.596 . S
Tb162 O174 2.374 . S
O163 Tb160 2.453 . S
O163 C179 1.245 . S
O164 Tb160 2.596 . S
O164 Tb162 2.343 . S
O164 C179 1.259 . S
O165 Tb160 2.374 . S
O165 C161 1.251 . S
C166 O170 1.275 . S
C166 O171 1.246 . S
O167 C161 1.263 . S
O167 Tb162 2.353 . S
C168 O172 1.245 . S
C168 O173 1.259 . S
C169 O174 1.250 . S
C169 O175 1.263 . S
O170 Tb162 2.427 . S
O170 C166 1.275 . S
O171 Tb162 2.513 . S
O171 C166 1.246 . S
O172 Tb162 2.453 . S
O172 C168 1.245 . S
O173 Tb160 2.343 . S
O173 Tb162 2.596 . S
O173 C168 1.259 . S
O174 Tb162 2.374 . S
O174 C169 1.250 . S
O175 Tb160 2.353 . S
O175 C169 1.263 . S
C176 O177 1.275 . S
C176 O178 1.246 . S
O177 Tb160 2.427 . S
O177 C176 1.275 . S
O178 Tb160 2.513 . S
O178 C176 1.246 . S
C179 O163 1.245 . S
C179 O164 1.259 . S
Tb180 O183 2.453 . S
Tb180 O184 2.596 . S
Tb180 O185 2.374 . S
Tb180 O193 2.343 . S
Tb180 O195 2.353 . S
Tb180 O197 2.427 . S
Tb180 O198 2.513 . S
C181 O185 1.251 . S
C181 O187 1.263 . S
Tb182 O184 2.343 . S
Tb182 O187 2.353 . S
Tb182 O190 2.427 . S
Tb182 O191 2.513 . S
Tb182 O192 2.453 . S
Tb182 O193 2.596 . S
Tb182 O194 2.374 . S
O183 Tb180 2.453 . S
O183 C199 1.245 . S
O184 Tb180 2.596 . S
O184 Tb182 2.343 . S
O184 C199 1.259 . S
O185 Tb180 2.374 . S
O185 C181 1.251 . S
C186 O190 1.275 . S
C186 O191 1.246 . S
O187 C181 1.263 . S
O187 Tb182 2.353 . S
C188 O192 1.245 . S
C188 O193 1.259 . S
C189 O194 1.250 . S
C189 O195 1.263 . S
O190 Tb182 2.427 . S
O190 C186 1.275 . S
O191 Tb182 2.513 . S
O191 C186 1.246 . S
O192 Tb182 2.453 . S
O192 C188 1.245 . S
O193 Tb180 2.343 . S
O193 Tb182 2.596 . S
O193 C188 1.259 . S
O194 Tb182 2.374 . S
O194 C189 1.250 . S
O195 Tb180 2.353 . S
O195 C189 1.263 . S
C196 O197 1.275 . S
C196 O198 1.246 . S
O197 Tb180 2.427 . S
O197 C196 1.275 . S
O198 Tb180 2.513 . S
O198 C196 1.246 . S
C199 O183 1.245 . S
C199 O184 1.259 . S
Tb200 O203 2.453 . S
Tb200 O204 2.596 . S
Tb200 O205 2.374 . S
Tb200 O213 2.343 . S
Tb200 O215 2.353 . S
Tb200 O217 2.427 . S
Tb200 O218 2.513 . S
C201 O205 1.251 . S
C201 O207 1.263 . S
Tb202 O204 2.343 . S
Tb202 O207 2.353 . S
Tb202 O210 2.427 . S
Tb202 O211 2.513 . S
Tb202 O212 2.453 . S
Tb202 O213 2.596 . S
Tb202 O214 2.374 . S
O203 Tb200 2.453 . S
O203 C219 1.245 . S
O204 Tb200 2.596 . S
O204 Tb202 2.343 . S
O204 C219 1.259 . S
O205 Tb200 2.374 . S
O205 C201 1.251 . S
C206 O210 1.275 . S
C206 O211 1.246 . S
O207 C201 1.263 . S
O207 Tb202 2.353 . S
C208 O212 1.245 . S
C208 O213 1.259 . S
C209 O214 1.250 . S
C209 O215 1.263 . S
O210 Tb202 2.427 . S
O210 C206 1.275 . S
O211 Tb202 2.513 . S
O211 C206 1.246 . S
O212 Tb202 2.453 . S
O212 C208 1.245 . S
O213 Tb200 2.343 . S
O213 Tb202 2.596 . S
O213 C208 1.259 . S
O214 Tb202 2.374 . S
O214 C209 1.250 . S
O215 Tb200 2.353 . S
O215 C209 1.263 . S
C216 O217 1.275 . S
C216 O218 1.246 . S
O217 Tb200 2.427 . S
O217 C216 1.275 . S
O218 Tb200 2.513 . S
O218 C216 1.246 . S
C219 O203 1.245 . S
C219 O204 1.259 . S
Tb220 O223 2.453 . S
Tb220 O224 2.596 . S
Tb220 O225 2.374 . S
Tb220 O233 2.343 . S
Tb220 O235 2.353 . S
Tb220 O237 2.427 . S
Tb220 O238 2.513 . S
C221 O225 1.251 . S
C221 O227 1.263 . S
Tb222 O224 2.343 . S
Tb222 O227 2.353 . S
Tb222 O230 2.427 . S
Tb222 O231 2.513 . S
Tb222 O232 2.453 . S
Tb222 O233 2.596 . S
Tb222 O234 2.374 . S
O223 Tb220 2.453 . S
O223 C239 1.245 . S
O224 Tb220 2.596 . S
O224 Tb222 2.343 . S
O224 C239 1.259 . S
O225 Tb220 2.374 . S
O225 C221 1.251 . S
C226 O230 1.275 . S
C226 O231 1.246 . S
O227 C221 1.263 . S
O227 Tb222 2.353 . S
C228 O232 1.245 . S
C228 O233 1.259 . S
C229 O234 1.250 . S
C229 O235 1.263 . S
O230 Tb222 2.427 . S
O230 C226 1.275 . S
O231 Tb222 2.513 . S
O231 C226 1.246 . S
O232 Tb222 2.453 . S
O232 C228 1.245 . S
O233 Tb220 2.343 . S
O233 Tb222 2.596 . S
O233 C228 1.259 . S
O234 Tb222 2.374 . S
O234 C229 1.250 . S
O235 Tb220 2.353 . S
O235 C229 1.263 . S
C236 O237 1.275 . S
C236 O238 1.246 . S
O237 Tb220 2.427 . S
O237 C236 1.275 . S
O238 Tb220 2.513 . S
O238 C236 1.246 . S
C239 O223 1.245 . S
C239 O224 1.259 . S
C240 C241 1.391 1_455 S
C240 C242 1.394 . S
C240 H256 0.931 . S
C241 C240 1.391 1_655 S
C241 C245 1.376 . S
C242 C240 1.394 . S
C242 C243 1.369 . S
C242 C246 1.531 . S
C243 C242 1.369 . S
C243 C244 1.410 1_455 S
C243 C251 1.503 . S
C244 C243 1.410 1_655 S
C244 C245 1.392 . S
C244 C247 1.511 . S
C245 C241 1.376 . S
C245 C244 1.392 . S
C245 H257 0.929 . S
C246 C242 1.531 . S
C246 H258 0.960 . S
C246 H259 0.962 . S
C246 H260 0.960 . S
C247 C244 1.511 . S
C247 H261 0.961 . S
C247 H262 0.961 1_655 S
C247 H263 0.961 . S
C248 C249 1.370 . S
C248 C250 1.363 . S
C248 H264 0.931 . S
C249 C248 1.370 . S
C249 C253 1.408 . S
C250 C248 1.363 . S
C250 C251 1.370 . S
C250 C254 1.524 . S
C251 C243 1.503 . S
C251 C250 1.370 . S
C251 C252 1.403 . S
C252 C251 1.403 . S
C252 C253 1.404 . S
C252 C255 1.539 . S
C253 C249 1.408 . S
C253 C252 1.404 . S
C253 H265 0.930 . S
C254 C250 1.524 . S
C254 H266 0.956 . S
C254 H267 0.961 . S
C254 H268 0.961 . S
C255 C252 1.539 . S
C255 H269 0.958 . S
C255 H270 0.961 . S
C255 H271 0.960 . S
H256 C240 0.931 . S
H257 C245 0.929 . S
H258 C246 0.960 . S
H259 C246 0.962 . S
H260 C246 0.960 . S
H261 C247 0.961 . S
H262 C247 0.961 1_455 S
H263 C247 0.961 . S
H264 C248 0.931 . S
H265 C253 0.930 . S
H266 C254 0.956 . S
H267 C254 0.961 . S
H268 C254 0.961 . S
H269 C255 0.958 . S
H270 C255 0.961 . S
H271 C255 0.960 . S
C272 C273 1.391 . S
C272 C274 1.394 1_545 S
C272 H288 0.931 . S
C273 C272 1.391 . S
C273 C277 1.376 . S
C274 C272 1.394 1_565 S
C274 C275 1.369 . S
C274 C278 1.531 . S
C275 C274 1.369 . S
C275 C276 1.410 . S
C275 C283 1.503 . S
C276 C275 1.410 . S
C276 C277 1.392 1_565 S
C276 C279 1.511 . S
C277 C273 1.376 . S
C277 C276 1.392 1_545 S
C277 H289 0.929 . S
C278 C274 1.531 . S
C278 H290 0.960 . S
C278 H291 0.962 . S
C278 H292 0.960 . S
C279 C276 1.511 . S
C279 H293 0.961 . S
C279 H294 0.961 . S
C279 H295 0.961 . S
C280 C281 1.370 . S
C280 C282 1.363 1_655 S
C280 H296 0.931 . S
C281 C280 1.370 . S
C281 C285 1.408 1_655 S
C282 C280 1.363 1_455 S
C282 C283 1.370 . S
C282 C286 1.524 . S
C283 C275 1.503 . S
C283 C282 1.370 . S
C283 C284 1.403 . S
C284 C283 1.403 . S
C284 C285 1.404 . S
C284 C287 1.539 . S
C285 C281 1.408 1_455 S
C285 C284 1.404 . S
C285 H297 0.930 . S
C286 C282 1.524 . S
C286 H298 0.956 . S
C286 H299 0.961 . S
C286 H300 0.961 . S
C287 C284 1.539 . S
C287 H301 0.958 . S
C287 H302 0.961 . S
C287 H303 0.960 . S
H288 C272 0.931 . S
H289 C277 0.929 . S
H290 C278 0.960 . S
H291 C278 0.962 . S
H292 C278 0.960 . S
H293 C279 0.961 . S
H294 C279 0.961 . S
H295 C279 0.961 . S
H296 C280 0.931 . S
H297 C285 0.930 . S
H298 C286 0.956 . S
H299 C286 0.961 . S
H300 C286 0.961 . S
H301 C287 0.958 . S
H302 C287 0.961 . S
H303 C287 0.960 . S
C304 C305 1.391 . S
C304 C306 1.394 1_545 S
C304 H320 0.931 . S
C305 C304 1.391 . S
C305 C309 1.376 1_545 S
C306 C304 1.394 1_565 S
C306 C307 1.369 . S
C306 C310 1.531 . S
C307 C306 1.369 . S
C307 C308 1.410 . S
C307 C315 1.503 . S
C308 C307 1.410 . S
C308 C309 1.392 . S
C308 C311 1.511 . S
C309 C305 1.376 1_565 S
C309 C308 1.392 . S
C309 H321 0.929 . S
C310 C306 1.531 . S
C310 H322 0.960 . S
C310 H323 0.962 . S
C310 H324 0.960 . S
C311 C308 1.511 . S
C311 H325 0.961 . S
C311 H326 0.961 . S
C311 H327 0.961 . S
C312 C313 1.370 . S
C312 C314 1.363 . S
C312 H328 0.931 . S
C313 C312 1.370 . S
C313 C317 1.408 . S
C314 C312 1.363 . S
C314 C315 1.370 . S
C314 C318 1.524 . S
C315 C307 1.503 . S
C315 C314 1.370 . S
C315 C316 1.403 . S
C316 C315 1.403 . S
C316 C317 1.404 . S
C316 C319 1.539 . S
C317 C313 1.408 . S
C317 C316 1.404 . S
C317 H329 0.930 . S
C318 C314 1.524 . S
C318 H330 0.956 . S
C318 H331 0.961 . S
C318 H332 0.961 . S
C319 C316 1.539 . S
C319 H333 0.958 . S
C319 H334 0.961 . S
C319 H335 0.960 . S
H320 C304 0.931 . S
H321 C309 0.929 . S
H322 C310 0.960 . S
H323 C310 0.962 . S
H324 C310 0.960 . S
H325 C311 0.961 . S
H326 C311 0.961 . S
H327 C311 0.961 . S
H328 C312 0.931 . S
H329 C317 0.930 . S
H330 C318 0.956 . S
H331 C318 0.961 . S
H332 C318 0.961 . S
H333 C319 0.958 . S
H334 C319 0.961 . S
H335 C319 0.960 . S
C336 C337 1.391 . S
C336 C338 1.394 . S
C336 H352 0.931 . S
C337 C336 1.391 . S
C337 C341 1.376 . S
C338 C336 1.394 . S
C338 C339 1.369 . S
C338 C342 1.531 . S
C339 C338 1.369 . S
C339 C340 1.410 . S
C339 C347 1.503 . S
C340 C339 1.410 . S
C340 C341 1.392 . S
C340 C343 1.511 . S
C341 C337 1.376 . S
C341 C340 1.392 . S
C341 H353 0.929 . S
C342 C338 1.531 . S
C342 H354 0.960 . S
C342 H355 0.962 . S
C342 H356 0.960 . S
C343 C340 1.511 . S
C343 H357 0.961 . S
C343 H358 0.961 . S
C343 H359 0.961 . S
C344 C345 1.370 . S
C344 C346 1.363 1_655 S
C344 H360 0.931 . S
C345 C344 1.370 . S
C345 C349 1.408 . S
C346 C344 1.363 1_455 S
C346 C347 1.370 . S
C346 C350 1.524 . S
C347 C339 1.503 . S
C347 C346 1.370 . S
C347 C348 1.403 . S
C348 C347 1.403 . S
C348 C349 1.404 1_455 S
C348 C351 1.539 . S
C349 C345 1.408 . S
C349 C348 1.404 1_655 S
C349 H361 0.930 . S
C350 C346 1.524 . S
C350 H362 0.956 . S
C350 H363 0.961 . S
C350 H364 0.961 . S
C351 C348 1.539 . S
C351 H365 0.958 . S
C351 H366 0.961 . S
C351 H367 0.960 . S
H352 C336 0.931 . S
H353 C341 0.929 . S
H354 C342 0.960 . S
H355 C342 0.962 . S
H356 C342 0.960 . S
H357 C343 0.961 . S
H358 C343 0.961 . S
H359 C343 0.961 . S
H360 C344 0.931 . S
H361 C349 0.930 . S
H362 C350 0.956 . S
H363 C350 0.961 . S
H364 C350 0.961 . S
H365 C351 0.958 . S
H366 C351 0.961 . S
H367 C351 0.960 . S
C368 C369 1.391 1_565 S
C368 C370 1.394 . S
C368 H384 0.931 1_565 S
C369 C368 1.391 1_545 S
C369 C373 1.376 . S
C370 C368 1.394 . S
C370 C371 1.369 . S
C370 C374 1.531 . S
C371 C370 1.369 . S
C371 C372 1.410 . S
C371 C379 1.503 . S
C372 C371 1.410 . S
C372 C373 1.392 1_565 S
C372 C375 1.511 . S
C373 C369 1.376 . S
C373 C372 1.392 1_545 S
C373 H385 0.929 . S
C374 C370 1.531 . S
C374 H386 0.960 . S
C374 H387 0.962 . S
C374 H388 0.960 . S
C375 C372 1.511 . S
C375 H389 0.961 1_565 S
C375 H390 0.961 . S
C375 H391 0.961 . S
C376 C377 1.370 . S
C376 C378 1.363 1_655 S
C376 H392 0.931 . S
C377 C376 1.370 . S
C377 C381 1.408 1_655 S
C378 C376 1.363 1_455 S
C378 C379 1.370 . S
C378 C382 1.524 . S
C379 C371 1.503 . S
C379 C378 1.370 . S
C379 C380 1.403 . S
C380 C379 1.403 . S
C380 C381 1.404 . S
C380 C383 1.539 . S
C381 C377 1.408 1_455 S
C381 C380 1.404 . S
C381 H393 0.930 . S
C382 C378 1.524 . S
C382 H394 0.956 . S
C382 H395 0.961 . S
C382 H396 0.961 . S
C383 C380 1.539 . S
C383 H397 0.958 . S
C383 H398 0.961 . S
C383 H399 0.960 . S
H384 C368 0.931 1_545 S
H385 C373 0.929 . S
H386 C374 0.960 . S
H387 C374 0.962 . S
H388 C374 0.960 . S
H389 C375 0.961 1_545 S
H390 C375 0.961 . S
H391 C375 0.961 . S
H392 C376 0.931 . S
H393 C381 0.930 . S
H394 C382 0.956 . S
H395 C382 0.961 . S
H396 C382 0.961 . S
H397 C383 0.958 . S
H398 C383 0.961 . S
H399 C383 0.960 . S
C400 C401 1.391 . S
C400 C402 1.394 . S
C400 H416 0.931 . S
C401 C400 1.391 . S
C401 C405 1.376 . S
C402 C400 1.394 . S
C402 C403 1.369 . S
C402 C406 1.531 . S
C403 C402 1.369 . S
C403 C404 1.410 . S
C403 C411 1.503 . S
C404 C403 1.410 . S
C404 C405 1.392 . S
C404 C407 1.511 . S
C405 C401 1.376 . S
C405 C404 1.392 . S
C405 H417 0.929 . S
C406 C402 1.531 . S
C406 H418 0.960 . S
C406 H419 0.962 . S
C406 H420 0.960 . S
C407 C404 1.511 . S
C407 H421 0.961 . S
C407 H422 0.961 . S
C407 H423 0.961 . S
C408 C409 1.370 1_565 S
C408 C410 1.363 . S
C408 H424 0.931 1_565 S
C409 C408 1.370 1_545 S
C409 C413 1.408 1_545 S
C410 C408 1.363 . S
C410 C411 1.370 . S
C410 C414 1.524 . S
C411 C403 1.503 . S
C411 C410 1.370 . S
C411 C412 1.403 . S
C412 C411 1.403 . S
C412 C413 1.404 . S
C412 C415 1.539 . S
C413 C409 1.408 1_565 S
C413 C412 1.404 . S
C413 H425 0.930 1_565 S
C414 C410 1.524 . S
C414 H426 0.956 . S
C414 H427 0.961 . S
C414 H428 0.961 . S
C415 C412 1.539 . S
C415 H429 0.958 . S
C415 H430 0.961 . S
C415 H431 0.960 . S
H416 C400 0.931 . S
H417 C405 0.929 . S
H418 C406 0.960 . S
H419 C406 0.962 . S
H420 C406 0.960 . S
H421 C407 0.961 . S
H422 C407 0.961 . S
H423 C407 0.961 . S
H424 C408 0.931 1_545 S
H425 C413 0.930 1_545 S
H426 C414 0.956 . S
H427 C414 0.961 . S
H428 C414 0.961 . S
H429 C415 0.958 . S
H430 C415 0.961 . S
H431 C415 0.960 . S
C432 C433 1.391 . S
C432 C434 1.394 1_565 S
C432 H448 0.931 . S
C433 C432 1.391 . S
C433 C437 1.376 1_565 S
C434 C432 1.394 1_545 S
C434 C435 1.369 . S
C434 C438 1.531 . S
C435 C434 1.369 . S
C435 C436 1.410 . S
C435 C443 1.503 . S
C436 C435 1.410 . S
C436 C437 1.392 . S
C436 C439 1.511 . S
C437 C433 1.376 1_545 S
C437 C436 1.392 . S
C437 H449 0.929 1_545 S
C438 C434 1.531 . S
C438 H450 0.960 . S
C438 H451 0.962 . S
C438 H452 0.970 . S
C439 C436 1.511 . S
C439 H453 0.961 . S
C439 H454 0.961 . S
C439 H455 0.961 . S
C440 C441 1.370 . S
C440 C442 1.363 . S
C440 H456 0.931 . S
C441 C440 1.370 . S
C441 C445 1.408 . S
C442 C440 1.363 . S
C442 C443 1.370 . S
C442 C446 1.524 . S
C443 C435 1.503 . S
C443 C442 1.370 . S
C443 C444 1.403 . S
C444 C443 1.403 . S
C444 C445 1.404 . S
C444 C447 1.539 . S
C445 C441 1.408 . S
C445 C444 1.404 . S
C445 H457 0.930 . S
C446 C442 1.524 . S
C446 H458 0.956 . S
C446 H459 0.961 . S
C446 H460 0.961 . S
C447 C444 1.539 . S
C447 H461 0.958 . S
C447 H462 0.961 . S
C447 H463 0.960 . S
H448 C432 0.931 . S
H449 C437 0.929 1_565 S
H450 C438 0.960 . S
H451 C438 0.962 . S
H452 C438 0.970 . S
H453 C439 0.961 . S
H454 C439 0.961 . S
H455 C439 0.961 . S
H456 C440 0.931 . S
H457 C445 0.930 . S
H458 C446 0.956 . S
H459 C446 0.961 . S
H460 C446 0.961 . S
H461 C447 0.958 . S
H462 C447 0.961 . S
H463 C447 0.960 . S
C464 C465 1.391 1_655 S
C464 C466 1.394 . S
C464 H480 0.931 . S
C465 C464 1.391 1_455 S
C465 C469 1.376 1_455 S
C466 C464 1.394 . S
C466 C467 1.369 . S
C466 C470 1.531 . S
C467 C466 1.369 . S
C467 C468 1.410 . S
C467 C475 1.503 . S
C468 C467 1.410 . S
C468 C469 1.392 . S
C468 C471 1.511 . S
C469 C465 1.376 1_655 S
C469 C468 1.392 . S
C469 H481 0.929 1_655 S
C470 C466 1.531 . S
C470 H482 0.960 . S
C470 H483 0.962 . S
C470 H484 0.960 . S
C471 C468 1.511 . S
C471 H485 0.961 . S
C471 H486 0.961 . S
C471 H487 0.961 . S
C472 C473 1.370 . S
C472 C474 1.363 . S
C472 H488 0.931 . S
C473 C472 1.370 . S
C473 C477 1.408 . S
C474 C472 1.363 . S
C474 C475 1.370 . S
C474 C478 1.524 . S
C475 C467 1.503 . S
C475 C474 1.370 . S
C475 C476 1.403 . S
C476 C475 1.403 . S
C476 C477 1.404 . S
C476 C479 1.539 . S
C477 C473 1.408 . S
C477 C476 1.404 . S
C477 H489 0.930 . S
C478 C474 1.524 . S
C478 H490 0.956 . S
C478 H491 0.961 . S
C478 H492 0.961 . S
C479 C476 1.539 . S
C479 H493 0.958 . S
C479 H494 0.961 . S
C479 H495 0.960 . S
H480 C464 0.931 . S
H481 C469 0.929 1_455 S
H482 C470 0.960 . S
H483 C470 0.962 . S
H484 C470 0.960 . S
H485 C471 0.961 . S
H486 C471 0.961 . S
H487 C471 0.961 . S
H488 C472 0.931 . S
H489 C477 0.930 . S
H490 C478 0.956 . S
H491 C478 0.961 . S
H492 C478 0.961 . S
H493 C479 0.958 . S
H494 C479 0.961 . S
H495 C479 0.960 . S
C496 C497 1.391 1_545 S
C496 C498 1.394 . S
C496 H512 0.931 1_545 S
C497 C496 1.391 1_565 S
C497 C501 1.376 1_565 S
C498 C496 1.394 . S
C498 C499 1.369 . S
C498 C502 1.531 . S
C499 C498 1.369 . S
C499 C500 1.410 . S
C499 C507 1.503 . S
C500 C499 1.410 . S
C500 C501 1.392 . S
C500 C503 1.511 . S
C501 C497 1.376 1_545 S
C501 C500 1.392 . S
C501 H513 0.929 1_545 S
C502 C498 1.531 . S
C502 H514 0.960 . S
C502 H515 0.962 . S
C502 H516 0.960 . S
C503 C500 1.511 . S
C503 H517 0.961 . S
C503 H518 0.961 . S
C503 H519 0.961 . S
C504 C505 1.370 1_655 S
C504 C506 1.363 . S
C504 H520 0.931 . S
C505 C504 1.370 1_455 S
C505 C509 1.408 . S
C506 C504 1.363 . S
C506 C507 1.370 . S
C506 C510 1.524 . S
C507 C499 1.503 . S
C507 C506 1.370 . S
C507 C508 1.403 1_655 S
C508 C507 1.403 1_455 S
C508 C509 1.404 . S
C508 C511 1.539 . S
C509 C505 1.408 . S
C509 C508 1.404 . S
C509 H521 0.930 . S
C510 C506 1.524 . S
C510 H522 0.956 . S
C510 H523 0.961 . S
C510 H524 0.961 . S
C511 C508 1.539 . S
C511 H525 0.958 . S
C511 H526 0.961 . S
C511 H527 0.960 1_455 S
H512 C496 0.931 1_565 S
H513 C501 0.929 1_565 S
H514 C502 0.960 . S
H515 C502 0.962 . S
H516 C502 0.960 . S
H517 C503 0.961 . S
H518 C503 0.961 . S
H519 C503 0.961 . S
H520 C504 0.931 . S
H521 C509 0.930 . S
H522 C510 0.956 . S
H523 C510 0.961 . S
H524 C510 0.961 . S
H525 C511 0.958 . S
H526 C511 0.961 . S
H527 C511 0.960 1_655 S
C528 C529 1.391 . S
C528 C530 1.394 . S
C528 H544 0.931 . S
C529 C528 1.391 . S
C529 C533 1.376 . S
C530 C528 1.394 . S
C530 C531 1.369 . S
C530 C534 1.531 . S
C531 C530 1.369 . S
C531 C532 1.410 . S
C531 C539 1.503 . S
C532 C531 1.410 . S
C532 C533 1.392 . S
C532 C535 1.511 . S
C533 C529 1.376 . S
C533 C532 1.392 . S
C533 H545 0.929 . S
C534 C530 1.531 . S
C534 H546 0.960 . S
C534 H547 0.962 . S
C534 H548 0.960 . S
C535 C532 1.511 . S
C535 H549 0.961 . S
C535 H550 0.961 . S
C535 H551 0.961 . S
C536 C537 1.370 1_545 S
C536 C538 1.363 . S
C536 H552 0.931 . S
C537 C536 1.370 1_565 S
C537 C541 1.408 . S
C538 C536 1.363 . S
C538 C539 1.370 . S
C538 C542 1.524 . S
C539 C531 1.503 . S
C539 C538 1.370 . S
C539 C540 1.403 1_545 S
C540 C539 1.403 1_565 S
C540 C541 1.404 . S
C540 C543 1.539 . S
C541 C537 1.408 . S
C541 C540 1.404 . S
C541 H553 0.930 . S
C542 C538 1.524 . S
C542 H554 0.956 . S
C542 H555 0.961 . S
C542 H556 0.961 . S
C543 C540 1.539 . S
C543 H557 0.958 . S
C543 H558 0.961 . S
C543 H559 0.960 1_565 S
H544 C528 0.931 . S
H545 C533 0.929 . S
H546 C534 0.960 . S
H547 C534 0.962 . S
H548 C534 0.960 . S
H549 C535 0.961 . S
H550 C535 0.961 . S
H551 C535 0.961 . S
H552 C536 0.931 . S
H553 C541 0.930 . S
H554 C542 0.956 . S
H555 C542 0.961 . S
H556 C542 0.961 . S
H557 C543 0.958 . S
H558 C543 0.961 . S
H559 C543 0.960 1_545 S
C560 C561 1.391 1_655 S
C560 C562 1.394 . S
C560 H576 0.931 . S
C561 C560 1.391 1_455 S
C561 C565 1.376 . S
C562 C560 1.394 . S
C562 C563 1.369 . S
C562 C566 1.531 . S
C563 C562 1.369 . S
C563 C564 1.410 . S
C563 C571 1.503 . S
C564 C563 1.410 . S
C564 C565 1.392 1_655 S
C564 C567 1.511 . S
C565 C561 1.376 . S
C565 C564 1.392 1_455 S
C565 H577 0.929 . S
C566 C562 1.531 . S
C566 H578 0.960 . S
C566 H579 0.962 . S
C566 H580 0.960 . S
C567 C564 1.511 . S
C567 H581 0.961 . S
C567 H582 0.961 . S
C567 H583 0.961 . S
C568 C569 1.370 . S
C568 C570 1.363 . S
C568 H584 0.931 . S
C569 C568 1.370 . S
C569 C573 1.408 . S
C570 C568 1.363 . S
C570 C571 1.370 . S
C570 C574 1.524 . S
C571 C563 1.503 . S
C571 C570 1.370 . S
C571 C572 1.403 . S
C572 C571 1.403 . S
C572 C573 1.404 . S
C572 C575 1.539 . S
C573 C569 1.408 . S
C573 C572 1.404 . S
C573 H585 0.930 . S
C574 C570 1.524 . S
C574 H586 0.956 . S
C574 H587 0.961 . S
C574 H588 0.961 . S
C575 C572 1.539 . S
C575 H589 0.958 . S
C575 H590 0.961 . S
C575 H591 0.960 . S
H576 C560 0.931 . S
H577 C565 0.929 . S
H578 C566 0.960 . S
H579 C566 0.962 . S
H580 C566 0.960 . S
H581 C567 0.961 . S
H582 C567 0.961 . S
H583 C567 0.961 . S
H584 C568 0.931 . S
H585 C573 0.930 . S
H586 C574 0.956 . S
H587 C574 0.961 . S
H588 C574 0.961 . S
H589 C575 0.958 . S
H590 C575 0.961 . S
H591 C575 0.960 . S
C592 C593 1.391 1_655 S
C592 C594 1.394 . S
C592 H608 0.931 . S
C593 C592 1.391 1_455 S
C593 C597 1.376 . S
C594 C592 1.394 . S
C594 C595 1.369 . S
C594 C598 1.531 . S
C595 C594 1.369 . S
C595 C596 1.410 1_655 S
C595 C603 1.503 . S
C596 C595 1.410 1_455 S
C596 C597 1.392 . S
C596 C599 1.511 . S
C597 C593 1.376 . S
C597 C596 1.392 . S
C597 H609 0.929 . S
C598 C594 1.531 . S
C598 H610 0.960 . S
C598 H611 0.962 . S
C598 H612 0.960 . S
C599 C596 1.511 . S
C599 H613 0.961 . S
C599 H614 0.961 1_455 S
C599 H615 0.961 . S
C600 C601 1.370 1_545 S
C600 C602 1.363 . S
C600 H616 0.931 . S
C601 C600 1.370 1_565 S
C601 C605 1.408 . S
C602 C600 1.363 . S
C602 C603 1.370 . S
C602 C606 1.524 . S
C603 C595 1.503 . S
C603 C602 1.370 . S
C603 C604 1.403 . S
C604 C603 1.403 . S
C604 C605 1.404 1_545 S
C604 C607 1.539 . S
C605 C601 1.408 . S
C605 C604 1.404 1_565 S
C605 H617 0.930 . S
C606 C602 1.524 . S
C606 H618 0.956 . S
C606 H619 0.961 . S
C606 H620 0.961 . S
C607 C604 1.539 . S
C607 H621 0.958 . S
C607 H622 0.961 . S
C607 H623 0.960 . S
H608 C592 0.931 . S
H609 C597 0.929 . S
H610 C598 0.960 . S
H611 C598 0.962 . S
H612 C598 0.960 . S
H613 C599 0.961 . S
H614 C599 0.961 1_655 S
H615 C599 0.961 . S
H616 C600 0.931 . S
H617 C605 0.930 . S
H618 C606 0.956 . S
H619 C606 0.961 . S
H620 C606 0.961 . S
H621 C607 0.958 . S
H622 C607 0.961 . S
H623 C607 0.960 . S
C624 C625 1.391 . S
C624 C626 1.394 . S
C624 H640 0.931 . S
C625 C624 1.391 . S
C625 C629 1.376 . S
C626 C624 1.394 . S
C626 C627 1.369 . S
C626 C630 1.531 . S
C627 C626 1.369 . S
C627 C628 1.410 . S
C627 C635 1.503 . S
C628 C627 1.410 . S
C628 C629 1.392 . S
C628 C631 1.511 . S
C629 C625 1.376 . S
C629 C628 1.392 . S
C629 H641 0.929 . S
C630 C626 1.531 . S
C630 H642 0.960 . S
C630 H643 0.962 . S
C630 H644 0.960 . S
C631 C628 1.511 . S
C631 H645 0.961 . S
C631 H646 0.961 . S
C631 H647 0.961 . S
C632 C633 1.370 . S
C632 C634 1.363 . S
C632 H648 0.931 . S
C633 C632 1.370 . S
C633 C637 1.408 . S
C634 C632 1.363 . S
C634 C635 1.370 . S
C634 C638 1.524 . S
C635 C627 1.503 . S
C635 C634 1.370 . S
C635 C636 1.403 . S
C636 C635 1.403 . S
C636 C637 1.404 . S
C636 C639 1.539 . S
C637 C633 1.408 . S
C637 C636 1.404 . S
C637 H649 0.930 . S
C638 C634 1.524 . S
C638 H650 0.956 . S
C638 H651 0.961 . S
C638 H652 0.961 . S
C639 C636 1.539 . S
C639 H653 0.958 . S
C639 H654 0.961 . S
C639 H655 0.960 . S
H640 C624 0.931 . S
H641 C629 0.929 . S
H642 C630 0.960 . S
H643 C630 0.962 . S
H644 C630 0.960 . S
H645 C631 0.961 . S
H646 C631 0.961 . S
H647 C631 0.961 . S
H648 C632 0.931 . S
H649 C637 0.930 . S
H650 C638 0.956 . S
H651 C638 0.961 . S
H652 C638 0.961 . S
H653 C639 0.958 . S
H654 C639 0.961 . S
H655 C639 0.960 . S
C656 C657 1.391 . S
C656 C658 1.394 . S
C656 H672 0.931 . S
C657 C656 1.391 . S
C657 C661 1.376 . S
C658 C656 1.394 . S
C658 C659 1.369 . S
C658 C662 1.531 . S
C659 C658 1.369 . S
C659 C660 1.410 . S
C659 C667 1.503 . S
C660 C659 1.410 . S
C660 C661 1.392 . S
C660 C663 1.511 . S
C661 C657 1.376 . S
C661 C660 1.392 . S
C661 H673 0.929 . S
C662 C658 1.531 . S
C662 H674 0.960 . S
C662 H675 0.962 . S
C662 H676 0.960 . S
C663 C660 1.511 . S
C663 H677 0.961 . S
C663 H678 0.961 . S
C663 H679 0.961 . S
C664 C665 1.370 . S
C664 C666 1.363 . S
C664 H680 0.931 . S
C665 C664 1.370 . S
C665 C669 1.408 . S
C666 C664 1.363 . S
C666 C667 1.370 . S
C666 C670 1.524 . S
C667 C659 1.503 . S
C667 C666 1.370 . S
C667 C668 1.403 . S
C668 C667 1.403 . S
C668 C669 1.404 . S
C668 C671 1.539 . S
C669 C665 1.408 . S
C669 C668 1.404 . S
C669 H681 0.930 . S
C670 C666 1.524 . S
C670 H682 0.956 . S
C670 H683 0.961 . S
C670 H684 0.961 . S
C671 C668 1.539 . S
C671 H685 0.958 . S
C671 H686 0.961 . S
C671 H687 0.960 . S
H672 C656 0.931 . S
H673 C661 0.929 . S
H674 C662 0.960 . S
H675 C662 0.962 . S
H676 C662 0.960 . S
H677 C663 0.961 . S
H678 C663 0.961 . S
H679 C663 0.961 . S
H680 C664 0.931 . S
H681 C669 0.930 . S
H682 C670 0.956 . S
H683 C670 0.961 . S
H684 C670 0.961 . S
H685 C671 0.958 . S
H686 C671 0.961 . S
H687 C671 0.960 . S
C688 C689 1.391 . S
C688 C690 1.394 . S
C688 H704 0.931 . S
C689 C688 1.391 . S
C689 C693 1.376 . S
C690 C688 1.394 . S
C690 C691 1.369 . S
C690 C694 1.531 . S
C691 C690 1.369 . S
C691 C692 1.410 . S
C691 C699 1.503 . S
C692 C691 1.410 . S
C692 C693 1.392 . S
C692 C695 1.511 . S
C693 C689 1.376 . S
C693 C692 1.392 . S
C693 H705 0.929 . S
C694 C690 1.531 . S
C694 H706 0.960 . S
C694 H707 0.962 . S
C694 H708 0.960 . S
C695 C692 1.511 . S
C695 H709 0.961 . S
C695 H710 0.961 . S
C695 H711 0.961 . S
C696 C697 1.370 . S
C696 C698 1.363 . S
C696 H712 0.931 . S
C697 C696 1.370 . S
C697 C701 1.408 . S
C698 C696 1.363 . S
C698 C699 1.370 . S
C698 C702 1.524 . S
C699 C691 1.503 . S
C699 C698 1.370 . S
C699 C700 1.403 . S
C700 C699 1.403 . S
C700 C701 1.404 . S
C700 C703 1.539 . S
C701 C697 1.408 . S
C701 C700 1.404 . S
C701 H713 0.930 . S
C702 C698 1.524 . S
C702 H714 0.956 . S
C702 H715 0.961 . S
C702 H716 0.961 . S
C703 C700 1.539 . S
C703 H717 0.958 . S
C703 H718 0.961 . S
C703 H719 0.960 . S
H704 C688 0.931 . S
H705 C693 0.929 . S
H706 C694 0.960 . S
H707 C694 0.962 . S
H708 C694 0.960 . S
H709 C695 0.961 . S
H710 C695 0.961 . S
H711 C695 0.961 . S
H712 C696 0.931 . S
H713 C701 0.930 . S
H714 C702 0.956 . S
H715 C702 0.961 . S
H716 C702 0.961 . S
H717 C703 0.958 . S
H718 C703 0.961 . S
H719 C703 0.960 . S
C720 C721 1.391 . S
C720 C722 1.394 . S
C720 H736 0.931 . S
C721 C720 1.391 . S
C721 C725 1.376 . S
C722 C720 1.394 . S
C722 C723 1.369 . S
C722 C726 1.531 . S
C723 C722 1.369 . S
C723 C724 1.410 . S
C723 C731 1.503 . S
C724 C723 1.410 . S
C724 C725 1.392 . S
C724 C727 1.511 . S
C725 C721 1.376 . S
C725 C724 1.392 . S
C725 H737 0.929 . S
C726 C722 1.531 . S
C726 H738 0.960 . S
C726 H739 0.962 . S
C726 H740 0.960 . S
C727 C724 1.511 . S
C727 H741 0.961 . S
C727 H742 0.961 . S
C727 H743 0.961 . S
C728 C729 1.370 . S
C728 C730 1.363 . S
C728 H744 0.931 . S
C729 C728 1.370 . S
C729 C733 1.408 . S
C730 C728 1.363 . S
C730 C731 1.370 . S
C730 C734 1.524 . S
C731 C723 1.503 . S
C731 C730 1.370 . S
C731 C732 1.403 . S
C732 C731 1.403 . S
C732 C733 1.404 . S
C732 C735 1.539 . S
C733 C729 1.408 . S
C733 C732 1.404 . S
C733 H745 0.930 . S
C734 C730 1.524 . S
C734 H746 0.956 . S
C734 H747 0.961 . S
C734 H748 0.961 . S
C735 C732 1.539 . S
C735 H749 0.958 . S
C735 H750 0.961 . S
C735 H751 0.960 . S
H736 C720 0.931 . S
H737 C725 0.929 . S
H738 C726 0.960 . S
H739 C726 0.962 . S
H740 C726 0.960 . S
H741 C727 0.961 . S
H742 C727 0.961 . S
H743 C727 0.961 . S
H744 C728 0.931 . S
H745 C733 0.930 . S
H746 C734 0.956 . S
H747 C734 0.961 . S
H748 C734 0.961 . S
H749 C735 0.958 . S
H750 C735 0.961 . S
H751 C735 0.960 . S
C752 C753 1.391 . S
C752 C754 1.394 . S
C752 H768 0.931 . S
C753 C752 1.391 . S
C753 C757 1.376 . S
C754 C752 1.394 . S
C754 C755 1.369 . S
C754 C758 1.531 . S
C755 C754 1.369 . S
C755 C756 1.410 . S
C755 C763 1.503 . S
C756 C755 1.410 . S
C756 C757 1.392 . S
C756 C759 1.511 . S
C757 C753 1.376 . S
C757 C756 1.392 . S
C757 H769 0.929 . S
C758 C754 1.531 . S
C758 H770 0.960 . S
C758 H771 0.962 . S
C758 H772 0.960 . S
C759 C756 1.511 . S
C759 H773 0.961 . S
C759 H774 0.961 . S
C759 H775 0.961 . S
C760 C761 1.370 . S
C760 C762 1.363 . S
C760 H776 0.931 . S
C761 C760 1.370 . S
C761 C765 1.408 . S
C762 C760 1.363 . S
C762 C763 1.370 . S
C762 C766 1.524 . S
C763 C755 1.503 . S
C763 C762 1.370 . S
C763 C764 1.403 . S
C764 C763 1.403 . S
C764 C765 1.404 . S
C764 C767 1.539 . S
C765 C761 1.408 . S
C765 C764 1.404 . S
C765 H777 0.930 . S
C766 C762 1.524 . S
C766 H778 0.956 . S
C766 H779 0.961 . S
C766 H780 0.961 . S
C767 C764 1.539 . S
C767 H781 0.958 . S
C767 H782 0.961 . S
C767 H783 0.960 . S
H768 C752 0.931 . S
H769 C757 0.929 . S
H770 C758 0.960 . S
H771 C758 0.962 . S
H772 C758 0.960 . S
H773 C759 0.961 . S
H774 C759 0.961 . S
H775 C759 0.961 . S
H776 C760 0.931 . S
H777 C765 0.930 . S
H778 C766 0.956 . S
H779 C766 0.961 . S
H780 C766 0.961 . S
H781 C767 0.958 . S
H782 C767 0.961 . S
H783 C767 0.960 . S
C784 C785 1.391 . S
C784 C786 1.394 . S
C784 H800 0.931 . S
C785 C784 1.391 . S
C785 C789 1.376 . S
C786 C784 1.394 . S
C786 C787 1.369 . S
C786 C790 1.531 . S
C787 C786 1.369 . S
C787 C788 1.410 . S
C787 C795 1.503 . S
C788 C787 1.410 . S
C788 C789 1.392 . S
C788 C791 1.511 . S
C789 C785 1.376 . S
C789 C788 1.392 . S
C789 H801 0.929 . S
C790 C786 1.531 . S
C790 H802 0.960 . S
C790 H803 0.962 . S
C790 H804 0.960 . S
C791 C788 1.511 . S
C791 H805 0.961 . S
C791 H806 0.961 . S
C791 H807 0.961 . S
C792 C793 1.370 . S
C792 C794 1.363 . S
C792 H808 0.931 . S
C793 C792 1.370 . S
C793 C797 1.408 . S
C794 C792 1.363 . S
C794 C795 1.370 . S
C794 C798 1.524 . S
C795 C787 1.503 . S
C795 C794 1.370 . S
C795 C796 1.403 . S
C796 C795 1.403 . S
C796 C797 1.404 . S
C796 C799 1.539 . S
C797 C793 1.408 . S
C797 C796 1.404 . S
C797 H809 0.930 . S
C798 C794 1.524 . S
C798 H810 0.956 . S
C798 H811 0.961 . S
C798 H812 0.961 . S
C799 C796 1.539 . S
C799 H813 0.958 . S
C799 H814 0.961 . S
C799 H815 0.960 . S
H800 C784 0.931 . S
H801 C789 0.929 . S
H802 C790 0.960 . S
H803 C790 0.962 . S
H804 C790 0.960 . S
H805 C791 0.961 . S
H806 C791 0.961 . S
H807 C791 0.961 . S
H808 C792 0.931 . S
H809 C797 0.930 . S
H810 C798 0.956 . S
H811 C798 0.961 . S
H812 C798 0.961 . S
H813 C799 0.958 . S
H814 C799 0.961 . S
H815 C799 0.960 . S
C816 C817 1.391 . S
C816 C818 1.394 . S
C816 H832 0.931 . S
C817 C816 1.391 . S
C817 C821 1.376 . S
C818 C816 1.394 . S
C818 C819 1.369 . S
C818 C822 1.531 1_556 S
C819 C818 1.369 . S
C819 C820 1.410 . S
C819 C827 1.503 1_566 S
C820 C819 1.410 . S
C820 C821 1.392 . S
C820 C823 1.511 1_565 S
C821 C817 1.376 . S
C821 C820 1.392 . S
C821 H833 0.929 . S
C822 C818 1.531 1_554 S
C822 H834 0.960 . S
C822 H835 0.962 . S
C822 H836 0.960 . S
C823 C820 1.511 1_545 S
C823 H837 0.961 . S
C823 H838 0.961 . S
C823 H839 0.961 . S
C824 C825 1.370 . S
C824 C826 1.363 . S
C824 H840 0.931 . S
C825 C824 1.370 . S
C825 C829 1.408 . S
C826 C824 1.363 . S
C826 C827 1.370 . S
C826 C830 1.524 1_545 S
C827 C819 1.503 1_544 S
C827 C826 1.370 . S
C827 C828 1.403 . S
C828 C827 1.403 . S
C828 C829 1.404 . S
C828 C831 1.539 1_554 S
C829 C825 1.408 . S
C829 C828 1.404 . S
C829 H841 0.930 . S
C830 C826 1.524 1_565 S
C830 H842 0.956 . S
C830 H843 0.961 . S
C830 H844 0.961 . S
C831 C828 1.539 1_556 S
C831 H845 0.958 . S
C831 H846 0.961 . S
C831 H847 0.960 . S
H832 C816 0.931 . S
H833 C821 0.929 . S
H834 C822 0.960 . S
H835 C822 0.962 . S
H836 C822 0.960 . S
H837 C823 0.961 . S
H838 C823 0.961 . S
H839 C823 0.961 . S
H840 C824 0.931 . S
H841 C829 0.930 . S
H842 C830 0.956 . S
H843 C830 0.961 . S
H844 C830 0.961 . S
H845 C831 0.958 . S
H846 C831 0.961 . S
H847 C831 0.960 . S
C848 C849 1.391 . S
C848 C850 1.394 . S
C848 H864 0.931 . S
C849 C848 1.391 . S
C849 C853 1.376 . S
C850 C848 1.394 . S
C850 C851 1.369 . S
C850 C854 1.531 . S
C851 C850 1.369 . S
C851 C852 1.410 . S
C851 C859 1.503 . S
C852 C851 1.410 . S
C852 C853 1.392 . S
C852 C855 1.511 . S
C853 C849 1.376 . S
C853 C852 1.392 . S
C853 H865 0.929 . S
C854 C850 1.531 . S
C854 H866 0.960 . S
C854 H867 0.962 . S
C854 H868 0.960 . S
C855 C852 1.511 . S
C855 H869 0.961 . S
C855 H870 0.961 . S
C855 H871 0.961 . S
C856 C857 1.370 . S
C856 C858 1.363 . S
C856 H872 0.931 . S
C857 C856 1.370 . S
C857 C861 1.408 . S
C858 C856 1.363 . S
C858 C859 1.370 . S
C858 C862 1.524 . S
C859 C851 1.503 . S
C859 C858 1.370 . S
C859 C860 1.403 . S
C860 C859 1.403 . S
C860 C861 1.404 . S
C860 C863 1.539 . S
C861 C857 1.408 . S
C861 C860 1.404 . S
C861 H873 0.930 . S
C862 C858 1.524 . S
C862 H874 0.956 . S
C862 H875 0.961 . S
C862 H876 0.961 . S
C863 C860 1.539 . S
C863 H877 0.958 . S
C863 H878 0.961 . S
C863 H879 0.960 . S
H864 C848 0.931 . S
H865 C853 0.929 . S
H866 C854 0.960 . S
H867 C854 0.962 . S
H868 C854 0.960 . S
H869 C855 0.961 . S
H870 C855 0.961 . S
H871 C855 0.961 . S
H872 C856 0.931 . S
H873 C861 0.930 . S
H874 C862 0.956 . S
H875 C862 0.961 . S
H876 C862 0.961 . S
H877 C863 0.958 . S
H878 C863 0.961 . S
H879 C863 0.960 . S
C880 C881 1.391 . S
C880 C882 1.394 . S
C880 H896 0.931 . S
C881 C880 1.391 . S
C881 C885 1.376 . S
C882 C880 1.394 . S
C882 C883 1.369 . S
C882 C886 1.531 1_455 S
C883 C882 1.369 . S
C883 C884 1.410 . S
C883 C891 1.503 1_456 S
C884 C883 1.410 . S
C884 C885 1.392 . S
C884 C887 1.511 1_556 S
C885 C881 1.376 . S
C885 C884 1.392 . S
C885 H897 0.929 . S
C886 C882 1.531 1_655 S
C886 H898 0.960 . S
C886 H899 0.962 . S
C886 H900 0.960 . S
C887 C884 1.511 1_554 S
C887 H901 0.961 . S
C887 H902 0.961 . S
C887 H903 0.961 . S
C888 C889 1.370 . S
C888 C890 1.363 . S
C888 H904 0.931 . S
C889 C888 1.370 . S
C889 C893 1.408 . S
C890 C888 1.363 . S
C890 C891 1.370 . S
C890 C894 1.524 1_554 S
C891 C883 1.503 1_654 S
C891 C890 1.370 . S
C891 C892 1.403 . S
C892 C891 1.403 . S
C892 C893 1.404 . S
C892 C895 1.539 1_655 S
C893 C889 1.408 . S
C893 C892 1.404 . S
C893 H905 0.930 . S
C894 C890 1.524 1_556 S
C894 H906 0.956 . S
C894 H907 0.961 . S
C894 H908 0.952 1_556 S
C895 C892 1.539 1_455 S
C895 H909 0.958 1_455 S
C895 H910 0.961 . S
C895 H911 0.960 . S
H896 C880 0.931 . S
H897 C885 0.929 . S
H898 C886 0.960 . S
H899 C886 0.962 . S
H900 C886 0.960 . S
H901 C887 0.961 . S
H902 C887 0.961 . S
H903 C887 0.961 . S
H904 C888 0.931 . S
H905 C893 0.930 . S
H906 C894 0.956 . S
H907 C894 0.961 . S
H908 C894 0.952 1_554 S
H909 C895 0.958 1_655 S
H910 C895 0.961 . S
H911 C895 0.960 . S
C912 C913 1.391 . S
C912 C914 1.394 . S
C912 H928 0.931 . S
C913 C912 1.391 . S
C913 C917 1.376 . S
C914 C912 1.394 . S
C914 C915 1.369 . S
C914 C918 1.531 . S
C915 C914 1.369 . S
C915 C916 1.410 . S
C915 C923 1.503 1_545 S
C916 C915 1.410 . S
C916 C917 1.392 . S
C916 C919 1.511 1_545 S
C917 C913 1.376 . S
C917 C916 1.392 . S
C917 H929 0.929 . S
C918 C914 1.531 . S
C918 H930 0.960 . S
C918 H931 0.962 . S
C918 H932 0.960 . S
C919 C916 1.511 1_565 S
C919 H933 0.961 . S
C919 H934 0.961 . S
C919 H935 0.961 . S
C920 C921 1.370 . S
C920 C922 1.363 . S
C920 H936 0.931 . S
C921 C920 1.370 . S
C921 C925 1.408 . S
C922 C920 1.363 . S
C922 C923 1.370 . S
C922 C926 1.524 1_565 S
C923 C915 1.503 1_565 S
C923 C922 1.370 . S
C923 C924 1.403 . S
C924 C923 1.403 . S
C924 C925 1.404 . S
C924 C927 1.539 . S
C925 C921 1.408 . S
C925 C924 1.404 . S
C925 H937 0.930 . S
C926 C922 1.524 1_545 S
C926 H938 0.956 . S
C926 H939 0.961 . S
C926 H940 0.961 . S
C927 C924 1.539 . S
C927 H941 0.958 . S
C927 H942 0.961 . S
C927 H943 0.960 . S
H928 C912 0.931 . S
H929 C917 0.929 . S
H930 C918 0.960 . S
H931 C918 0.962 . S
H932 C918 0.960 . S
H933 C919 0.961 . S
H934 C919 0.961 . S
H935 C919 0.961 . S
H936 C920 0.931 . S
H937 C925 0.930 . S
H938 C926 0.956 . S
H939 C926 0.961 . S
H940 C926 0.961 . S
H941 C927 0.958 . S
H942 C927 0.961 . S
H943 C927 0.960 . S
C944 C945 1.391 . S
C944 C946 1.394 . S
C944 H960 0.931 . S
C945 C944 1.391 . S
C945 C949 1.376 . S
C946 C944 1.394 . S
C946 C947 1.369 . S
C946 C950 1.531 1_554 S
C947 C946 1.369 . S
C947 C948 1.410 . S
C947 C955 1.503 1_554 S
C948 C947 1.410 . S
C948 C949 1.392 . S
C948 C951 1.511 . S
C949 C945 1.376 . S
C949 C948 1.392 . S
C949 H961 0.929 . S
C950 C946 1.531 1_556 S
C950 H962 0.960 . S
C950 H963 0.962 . S
C950 H964 0.960 . S
C951 C948 1.511 . S
C951 H965 0.961 . S
C951 H966 0.961 . S
C951 H967 0.961 . S
C952 C953 1.370 . S
C952 C954 1.363 . S
C952 H968 0.931 . S
C953 C952 1.370 . S
C953 C957 1.408 . S
C954 C952 1.363 . S
C954 C955 1.370 . S
C954 C958 1.524 . S
C955 C947 1.503 1_556 S
C955 C954 1.370 . S
C955 C956 1.403 . S
C956 C955 1.403 . S
C956 C957 1.404 . S
C956 C959 1.539 1_556 S
C957 C953 1.408 . S
C957 C956 1.404 . S
C957 H969 0.930 . S
C958 C954 1.524 . S
C958 H970 0.956 . S
C958 H971 0.961 . S
C958 H972 0.961 . S
C959 C956 1.539 1_554 S
C959 H973 0.958 . S
C959 H974 0.961 . S
C959 H975 0.960 . S
H960 C944 0.931 . S
H961 C949 0.929 . S
H962 C950 0.960 . S
H963 C950 0.962 . S
H964 C950 0.960 . S
H965 C951 0.961 . S
H966 C951 0.961 . S
H967 C951 0.961 . S
H968 C952 0.931 . S
H969 C957 0.930 . S
H970 C958 0.956 . S
H971 C958 0.961 . S
H972 C958 0.961 . S
H973 C959 0.958 . S
H974 C959 0.961 . S
H975 C959 0.960 . S
C976 C977 1.391 . S
C976 C978 1.394 . S
C976 H992 0.931 . S
C977 C976 1.391 . S
C977 C981 1.376 . S
C978 C976 1.394 . S
C978 C979 1.369 . S
C978 C982 1.531 1_455 S
C979 C978 1.369 . S
C979 C980 1.410 . S
C979 C987 1.503 1_455 S
C980 C979 1.410 . S
C980 C981 1.392 . S
C980 C983 1.511 . S
C981 C977 1.376 . S
C981 C980 1.392 . S
C981 H993 0.929 . S
C982 C978 1.531 1_655 S
C982 H994 0.960 . S
C982 H995 0.962 . S
C982 H996 0.960 . S
C983 C980 1.511 . S
C983 H997 0.961 . S
C983 H998 0.961 . S
C983 H999 0.961 . S
C984 C985 1.370 . S
C984 C986 1.363 . S
C984 H1000 0.931 . S
C985 C984 1.370 . S
C985 C989 1.408 . S
C986 C984 1.363 . S
C986 C987 1.370 . S
C986 C990 1.524 1_655 S
C987 C979 1.503 1_655 S
C987 C986 1.370 . S
C987 C988 1.403 . S
C988 C987 1.403 . S
C988 C989 1.404 . S
C988 C991 1.539 . S
C989 C985 1.408 . S
C989 C988 1.404 . S
C989 H1001 0.930 . S
C990 C986 1.524 1_455 S
C990 H1002 0.956 . S
C990 H1003 0.961 . S
C990 H1004 0.961 . S
C991 C988 1.539 . S
C991 H1005 0.958 . S
C991 H1006 0.961 . S
C991 H1007 0.960 . S
H992 C976 0.931 . S
H993 C981 0.929 . S
H994 C982 0.960 . S
H995 C982 0.962 . S
H996 C982 0.960 . S
H997 C983 0.961 . S
H998 C983 0.961 . S
H999 C983 0.961 . S
H1000 C984 0.931 . S
H1001 C989 0.930 . S
H1002 C990 0.956 . S
H1003 C990 0.961 . S
H1004 C990 0.961 . S
H1005 C991 0.958 . S
H1006 C991 0.961 . S
H1007 C991 0.960 . S
C1008 C1009 1.391 . S
C1008 C1010 1.394 . S
C1008 H1024 0.931 . S
C1009 C1008 1.391 . S
C1009 C1013 1.376 . S
C1010 C1008 1.394 . S
C1010 C1011 1.369 . S
C1010 C1014 1.531 . S
C1011 C1010 1.369 . S
C1011 C1012 1.410 . S
C1011 C1019 1.503 . S
C1012 C1011 1.410 . S
C1012 C1013 1.392 . S
C1012 C1015 1.511 . S
C1013 C1009 1.376 . S
C1013 C1012 1.392 . S
C1013 H1025 0.929 . S
C1014 C1010 1.531 . S
C1014 H1026 0.960 . S
C1014 H1027 0.962 . S
C1014 H1028 0.960 . S
C1015 C1012 1.511 . S
C1015 H1029 0.961 . S
C1015 H1030 0.961 . S
C1015 H1031 0.961 . S
C1016 C1017 1.370 . S
C1016 C1018 1.363 . S
C1016 H1032 0.931 . S
C1017 C1016 1.370 . S
C1017 C1021 1.408 . S
C1018 C1016 1.363 . S
C1018 C1019 1.370 . S
C1018 C1022 1.524 . S
C1019 C1011 1.503 . S
C1019 C1018 1.370 . S
C1019 C1020 1.403 . S
C1020 C1019 1.403 . S
C1020 C1021 1.404 . S
C1020 C1023 1.539 . S
C1021 C1017 1.408 . S
C1021 C1020 1.404 . S
C1021 H1033 0.930 . S
C1022 C1018 1.524 . S
C1022 H1034 0.956 . S
C1022 H1035 0.961 . S
C1022 H1036 0.961 . S
C1023 C1020 1.539 . S
C1023 H1037 0.958 . S
C1023 H1038 0.961 . S
C1023 H1039 0.960 . S
H1024 C1008 0.931 . S
H1025 C1013 0.929 . S
H1026 C1014 0.960 . S
H1027 C1014 0.962 . S
H1028 C1014 0.960 . S
H1029 C1015 0.961 . S
H1030 C1015 0.961 . S
H1031 C1015 0.961 . S
H1032 C1016 0.931 . S
H1033 C1021 0.930 . S
H1034 C1022 0.956 . S
H1035 C1022 0.961 . S
H1036 C1022 0.961 . S
H1037 C1023 0.958 . S
H1038 C1023 0.961 . S
H1039 C1023 0.960 . S
C1040 C1041 1.391 . S
C1040 C1042 1.394 . S
C1040 H1056 0.931 . S
C1041 C1040 1.391 . S
C1041 C1045 1.376 . S
C1042 C1040 1.394 . S
C1042 C1043 1.369 . S
C1042 C1046 1.531 . S
C1043 C1042 1.369 . S
C1043 C1044 1.410 . S
C1043 C1051 1.503 . S
C1044 C1043 1.410 . S
C1044 C1045 1.392 . S
C1044 C1047 1.511 . S
C1045 C1041 1.376 . S
C1045 C1044 1.392 . S
C1045 H1057 0.929 . S
C1046 C1042 1.531 . S
C1046 H1058 0.960 . S
C1046 H1059 0.962 . S
C1046 H1060 0.960 . S
C1047 C1044 1.511 . S
C1047 H1061 0.961 . S
C1047 H1062 0.961 . S
C1047 H1063 0.961 . S
C1048 C1049 1.370 . S
C1048 C1050 1.363 . S
C1048 H1064 0.931 . S
C1049 C1048 1.370 . S
C1049 C1053 1.408 . S
C1050 C1048 1.363 . S
C1050 C1051 1.370 . S
C1050 C1054 1.524 . S
C1051 C1043 1.503 . S
C1051 C1050 1.370 . S
C1051 C1052 1.403 . S
C1052 C1051 1.403 . S
C1052 C1053 1.404 . S
C1052 C1055 1.539 . S
C1053 C1049 1.408 . S
C1053 C1052 1.404 . S
C1053 H1065 0.930 . S
C1054 C1050 1.524 . S
C1054 H1066 0.956 . S
C1054 H1067 0.961 . S
C1054 H1068 0.961 . S
C1055 C1052 1.539 . S
C1055 H1069 0.958 . S
C1055 H1070 0.961 . S
C1055 H1071 0.960 . S
H1056 C1040 0.931 . S
H1057 C1045 0.929 . S
H1058 C1046 0.960 . S
H1059 C1046 0.962 . S
H1060 C1046 0.960 . S
H1061 C1047 0.961 . S
H1062 C1047 0.961 . S
H1063 C1047 0.961 . S
H1064 C1048 0.931 . S
H1065 C1053 0.930 . S
H1066 C1054 0.956 . S
H1067 C1054 0.961 . S
H1068 C1054 0.961 . S
H1069 C1055 0.958 . S
H1070 C1055 0.961 . S
H1071 C1055 0.960 . S
C1072 C1073 1.391 . S
C1072 C1074 1.394 . S
C1072 H1088 0.931 . S
C1073 C1072 1.391 . S
C1073 C1077 1.376 . S
C1074 C1072 1.394 . S
C1074 C1075 1.369 . S
C1074 C1078 1.531 . S
C1075 C1074 1.369 . S
C1075 C1076 1.410 . S
C1075 C1083 1.503 . S
C1076 C1075 1.410 . S
C1076 C1077 1.392 . S
C1076 C1079 1.511 . S
C1077 C1073 1.376 . S
C1077 C1076 1.392 . S
C1077 H1089 0.929 . S
C1078 C1074 1.531 . S
C1078 H1090 0.960 . S
C1078 H1091 0.962 . S
C1078 H1092 0.960 . S
C1079 C1076 1.511 . S
C1079 H1093 0.961 . S
C1079 H1094 0.961 . S
C1079 H1095 0.961 . S
C1080 C1081 1.370 . S
C1080 C1082 1.363 . S
C1080 H1096 0.931 . S
C1081 C1080 1.370 . S
C1081 C1085 1.408 . S
C1082 C1080 1.363 . S
C1082 C1083 1.370 . S
C1082 C1086 1.524 . S
C1083 C1075 1.503 . S
C1083 C1082 1.370 . S
C1083 C1084 1.403 . S
C1084 C1083 1.403 . S
C1084 C1085 1.404 . S
C1084 C1087 1.539 . S
C1085 C1081 1.408 . S
C1085 C1084 1.404 . S
C1085 H1097 0.930 . S
C1086 C1082 1.524 . S
C1086 H1098 0.956 . S
C1086 H1099 0.961 . S
C1086 H1100 0.961 . S
C1087 C1084 1.539 . S
C1087 H1101 0.958 . S
C1087 H1102 0.961 . S
C1087 H1103 0.960 . S
H1088 C1072 0.931 . S
H1089 C1077 0.929 . S
H1090 C1078 0.960 . S
H1091 C1078 0.962 . S
H1092 C1078 0.960 . S
H1093 C1079 0.961 . S
H1094 C1079 0.961 . S
H1095 C1079 0.961 . S
H1096 C1080 0.931 . S
H1097 C1085 0.930 . S
H1098 C1086 0.956 . S
H1099 C1086 0.961 . S
H1100 C1086 0.961 . S
H1101 C1087 0.958 . S
H1102 C1087 0.961 . S
H1103 C1087 0.960 . S
C1104 C1105 1.391 . S
C1104 C1106 1.394 . S
C1104 H1120 0.931 . S
C1105 C1104 1.391 . S
C1105 C1109 1.376 . S
C1106 C1104 1.394 . S
C1106 C1107 1.369 . S
C1106 C1110 1.531 . S
C1107 C1106 1.369 . S
C1107 C1108 1.410 . S
C1107 C1115 1.503 . S
C1108 C1107 1.410 . S
C1108 C1109 1.392 . S
C1108 C1111 1.511 . S
C1109 C1105 1.376 . S
C1109 C1108 1.392 . S
C1109 H1121 0.929 . S
C1110 C1106 1.531 . S
C1110 H1122 0.960 . S
C1110 H1123 0.962 . S
C1110 H1124 0.960 . S
C1111 C1108 1.511 . S
C1111 H1125 0.961 . S
C1111 H1126 0.961 . S
C1111 H1127 0.961 . S
C1112 C1113 1.370 . S
C1112 C1114 1.363 . S
C1112 H1128 0.931 . S
C1113 C1112 1.370 . S
C1113 C1117 1.408 . S
C1114 C1112 1.363 . S
C1114 C1115 1.370 . S
C1114 C1118 1.524 . S
C1115 C1107 1.503 . S
C1115 C1114 1.370 . S
C1115 C1116 1.403 . S
C1116 C1115 1.403 . S
C1116 C1117 1.404 . S
C1116 C1119 1.539 . S
C1117 C1113 1.408 . S
C1117 C1116 1.404 . S
C1117 H1129 0.930 . S
C1118 C1114 1.524 . S
C1118 H1130 0.956 . S
C1118 H1131 0.961 . S
C1118 H1132 0.961 . S
C1119 C1116 1.539 . S
C1119 H1133 0.958 . S
C1119 H1134 0.961 . S
C1119 H1135 0.960 . S
H1120 C1104 0.931 . S
H1121 C1109 0.929 . S
H1122 C1110 0.960 . S
H1123 C1110 0.962 . S
H1124 C1110 0.960 . S
H1125 C1111 0.961 . S
H1126 C1111 0.961 . S
H1127 C1111 0.961 . S
H1128 C1112 0.931 . S
H1129 C1117 0.930 . S
H1130 C1118 0.956 . S
H1131 C1118 0.961 . S
H1132 C1118 0.961 . S
H1133 C1119 0.958 . S
H1134 C1119 0.961 . S
H1135 C1119 0.960 . S
C1136 C1137 1.391 . S
C1136 C1138 1.394 . S
C1136 H1152 0.931 . S
C1137 C1136 1.391 . S
C1137 C1141 1.376 . S
C1138 C1136 1.394 . S
C1138 C1139 1.369 . S
C1138 C1142 1.531 . S
C1139 C1138 1.369 . S
C1139 C1140 1.410 . S
C1139 C1147 1.503 . S
C1140 C1139 1.410 . S
C1140 C1141 1.392 . S
C1140 C1143 1.511 . S
C1141 C1137 1.376 . S
C1141 C1140 1.392 . S
C1141 H1153 0.929 . S
C1142 C1138 1.531 . S
C1142 H1154 0.960 . S
C1142 H1155 0.962 . S
C1142 H1156 0.960 . S
C1143 C1140 1.511 . S
C1143 H1157 0.961 . S
C1143 H1158 0.961 . S
C1143 H1159 0.961 . S
C1144 C1145 1.370 . S
C1144 C1146 1.363 . S
C1144 H1160 0.931 . S
C1145 C1144 1.370 . S
C1145 C1149 1.408 . S
C1146 C1144 1.363 . S
C1146 C1147 1.370 . S
C1146 C1150 1.524 . S
C1147 C1139 1.503 . S
C1147 C1146 1.370 . S
C1147 C1148 1.403 . S
C1148 C1147 1.403 . S
C1148 C1149 1.404 . S
C1148 C1151 1.539 . S
C1149 C1145 1.408 . S
C1149 C1148 1.404 . S
C1149 H1161 0.930 . S
C1150 C1146 1.524 . S
C1150 H1162 0.956 . S
C1150 H1163 0.961 . S
C1150 H1164 0.961 . S
C1151 C1148 1.539 . S
C1151 H1165 0.958 . S
C1151 H1166 0.961 . S
C1151 H1167 0.960 . S
H1152 C1136 0.931 . S
H1153 C1141 0.929 . S
H1154 C1142 0.960 . S
H1155 C1142 0.962 . S
H1156 C1142 0.960 . S
H1157 C1143 0.961 . S
H1158 C1143 0.961 . S
H1159 C1143 0.961 . S
H1160 C1144 0.931 . S
H1161 C1149 0.930 . S
H1162 C1150 0.956 . S
H1163 C1150 0.961 . S
H1164 C1150 0.961 . S
H1165 C1151 0.958 . S
H1166 C1151 0.961 . S
H1167 C1151 0.960 . S
C1168 C1169 1.391 . S
C1168 C1170 1.394 . S
C1168 H1184 0.931 . S
C1169 C1168 1.391 . S
C1169 C1173 1.376 . S
C1170 C1168 1.394 . S
C1170 C1171 1.369 . S
C1170 C1174 1.531 . S
C1171 C1170 1.369 . S
C1171 C1172 1.410 . S
C1171 C1179 1.503 . S
C1172 C1171 1.410 . S
C1172 C1173 1.392 . S
C1172 C1175 1.511 . S
C1173 C1169 1.376 . S
C1173 C1172 1.392 . S
C1173 H1185 0.929 . S
C1174 C1170 1.531 . S
C1174 H1186 0.960 . S
C1174 H1187 0.962 . S
C1174 H1188 0.960 . S
C1175 C1172 1.511 . S
C1175 H1189 0.961 . S
C1175 H1190 0.961 . S
C1175 H1191 0.961 . S
C1176 C1177 1.370 . S
C1176 C1178 1.363 . S
C1176 H1192 0.931 . S
C1177 C1176 1.370 . S
C1177 C1181 1.408 . S
C1178 C1176 1.363 . S
C1178 C1179 1.370 . S
C1178 C1182 1.524 . S
C1179 C1171 1.503 . S
C1179 C1178 1.370 . S
C1179 C1180 1.403 . S
C1180 C1179 1.403 . S
C1180 C1181 1.404 . S
C1180 C1183 1.539 . S
C1181 C1177 1.408 . S
C1181 C1180 1.404 . S
C1181 H1193 0.930 . S
C1182 C1178 1.524 . S
C1182 H1194 0.956 . S
C1182 H1195 0.961 . S
C1182 H1196 0.961 . S
C1183 C1180 1.539 . S
C1183 H1197 0.958 . S
C1183 H1198 0.961 . S
C1183 H1199 0.960 . S
H1184 C1168 0.931 . S
H1185 C1173 0.929 . S
H1186 C1174 0.960 . S
H1187 C1174 0.962 . S
H1188 C1174 0.960 . S
H1189 C1175 0.961 . S
H1190 C1175 0.961 . S
H1191 C1175 0.961 . S
H1192 C1176 0.931 . S
H1193 C1181 0.930 . S
H1194 C1182 0.956 . S
H1195 C1182 0.961 . S
H1196 C1182 0.961 . S
H1197 C1183 0.958 . S
H1198 C1183 0.961 . S
H1199 C1183 0.960 . S
C1200 C1201 1.391 . S
C1200 C1202 1.394 . S
C1200 H1216 0.931 . S
C1201 C1200 1.391 . S
C1201 C1205 1.376 . S
C1202 C1200 1.394 . S
C1202 C1203 1.369 . S
C1202 C1206 1.531 . S
C1203 C1202 1.369 . S
C1203 C1204 1.410 . S
C1203 C1211 1.503 . S
C1204 C1203 1.410 . S
C1204 C1205 1.392 . S
C1204 C1207 1.511 . S
C1205 C1201 1.376 . S
C1205 C1204 1.392 . S
C1205 H1217 0.929 . S
C1206 C1202 1.531 . S
C1206 H1218 0.960 . S
C1206 H1219 0.962 . S
C1206 H1220 0.960 . S
C1207 C1204 1.511 . S
C1207 H1221 0.961 . S
C1207 H1222 0.961 . S
C1207 H1223 0.961 . S
C1208 C1209 1.370 . S
C1208 C1210 1.363 . S
C1208 H1224 0.931 . S
C1209 C1208 1.370 . S
C1209 C1213 1.408 . S
C1210 C1208 1.363 . S
C1210 C1211 1.370 . S
C1210 C1214 1.524 . S
C1211 C1203 1.503 . S
C1211 C1210 1.370 . S
C1211 C1212 1.403 . S
C1212 C1211 1.403 . S
C1212 C1213 1.404 . S
C1212 C1215 1.539 . S
C1213 C1209 1.408 . S
C1213 C1212 1.404 . S
C1213 H1225 0.930 . S
C1214 C1210 1.524 . S
C1214 H1226 0.956 . S
C1214 H1227 0.961 . S
C1214 H1228 0.961 . S
C1215 C1212 1.539 . S
C1215 H1229 0.958 . S
C1215 H1230 0.961 . S
C1215 H1231 0.960 . S
H1216 C1200 0.931 . S
H1217 C1205 0.929 . S
H1218 C1206 0.960 . S
H1219 C1206 0.962 . S
H1220 C1206 0.960 . S
H1221 C1207 0.961 . S
H1222 C1207 0.961 . S
H1223 C1207 0.961 . S
H1224 C1208 0.931 . S
H1225 C1213 0.930 . S
H1226 C1214 0.956 . S
H1227 C1214 0.961 . S
H1228 C1214 0.961 . S
H1229 C1215 0.958 . S
H1230 C1215 0.961 . S
H1231 C1215 0.960 . S
C1232 C1233 1.391 . S
C1232 C1234 1.394 . S
C1232 H1248 0.931 . S
C1233 C1232 1.391 . S
C1233 C1237 1.376 . S
C1234 C1232 1.394 . S
C1234 C1235 1.369 . S
C1234 C1238 1.531 . S
C1235 C1234 1.369 . S
C1235 C1236 1.410 . S
C1235 C1243 1.503 . S
C1236 C1235 1.410 . S
C1236 C1237 1.392 . S
C1236 C1239 1.511 . S
C1237 C1233 1.376 . S
C1237 C1236 1.392 . S
C1237 H1249 0.929 . S
C1238 C1234 1.531 . S
C1238 H1250 0.960 . S
C1238 H1251 0.962 . S
C1238 H1252 0.960 . S
C1239 C1236 1.511 . S
C1239 H1253 0.961 . S
C1239 H1254 0.961 . S
C1239 H1255 0.961 . S
C1240 C1241 1.370 . S
C1240 C1242 1.363 . S
C1240 H1256 0.931 . S
C1241 C1240 1.370 . S
C1241 C1245 1.408 . S
C1242 C1240 1.363 . S
C1242 C1243 1.370 . S
C1242 C1246 1.524 . S
C1243 C1235 1.503 . S
C1243 C1242 1.370 . S
C1243 C1244 1.403 . S
C1244 C1243 1.403 . S
C1244 C1245 1.404 . S
C1244 C1247 1.539 . S
C1245 C1241 1.408 . S
C1245 C1244 1.404 . S
C1245 H1257 0.930 . S
C1246 C1242 1.524 . S
C1246 H1258 0.956 . S
C1246 H1259 0.961 . S
C1246 H1260 0.961 . S
C1247 C1244 1.539 . S
C1247 H1261 0.958 . S
C1247 H1262 0.961 . S
C1247 H1263 0.960 . S
H1248 C1232 0.931 . S
H1249 C1237 0.929 . S
H1250 C1238 0.960 . S
H1251 C1238 0.962 . S
H1252 C1238 0.960 . S
H1253 C1239 0.961 . S
H1254 C1239 0.961 . S
H1255 C1239 0.961 . S
H1256 C1240 0.931 . S
H1257 C1245 0.930 . S
H1258 C1246 0.956 . S
H1259 C1246 0.961 . S
H1260 C1246 0.961 . S
H1261 C1247 0.958 . S
H1262 C1247 0.961 . S
H1263 C1247 0.960 . S
C1264 C1265 1.391 . S
C1264 C1266 1.394 . S
C1264 H1280 0.931 . S
C1265 C1264 1.391 . S
C1265 C1269 1.376 . S
C1266 C1264 1.394 . S
C1266 C1267 1.369 . S
C1266 C1270 1.531 . S
C1267 C1266 1.369 . S
C1267 C1268 1.410 . S
C1267 C1275 1.503 . S
C1268 C1267 1.410 . S
C1268 C1269 1.392 . S
C1268 C1271 1.511 . S
C1269 C1265 1.376 . S
C1269 C1268 1.392 . S
C1269 H1281 0.929 . S
C1270 C1266 1.531 . S
C1270 H1282 0.960 . S
C1270 H1283 0.962 . S
C1270 H1284 0.960 . S
C1271 C1268 1.511 . S
C1271 H1285 0.961 . S
C1271 H1286 0.961 . S
C1271 H1287 0.961 . S
C1272 C1273 1.370 . S
C1272 C1274 1.363 . S
C1272 H1288 0.931 . S
C1273 C1272 1.370 . S
C1273 C1277 1.408 . S
C1274 C1272 1.363 . S
C1274 C1275 1.370 . S
C1274 C1278 1.524 . S
C1275 C1267 1.503 . S
C1275 C1274 1.370 . S
C1275 C1276 1.403 . S
C1276 C1275 1.403 . S
C1276 C1277 1.404 . S
C1276 C1279 1.539 . S
C1277 C1273 1.408 . S
C1277 C1276 1.404 . S
C1277 H1289 0.930 . S
C1278 C1274 1.524 . S
C1278 H1290 0.956 . S
C1278 H1291 0.961 . S
C1278 H1292 0.961 . S
C1279 C1276 1.539 . S
C1279 H1293 0.958 . S
C1279 H1294 0.961 . S
C1279 H1295 0.960 . S
H1280 C1264 0.931 . S
H1281 C1269 0.929 . S
H1282 C1270 0.960 . S
H1283 C1270 0.962 . S
H1284 C1270 0.960 . S
H1285 C1271 0.961 . S
H1286 C1271 0.961 . S
H1287 C1271 0.961 . S
H1288 C1272 0.931 . S
H1289 C1277 0.930 . S
H1290 C1278 0.956 . S
H1291 C1278 0.961 . S
H1292 C1278 0.961 . S
H1293 C1279 0.958 . S
H1294 C1279 0.961 . S
H1295 C1279 0.960 . S
C1296 C1297 1.391 . S
C1296 C1298 1.394 . S
C1296 H1312 0.931 . S
C1297 C1296 1.391 . S
C1297 C1301 1.376 . S
C1298 C1296 1.394 . S
C1298 C1299 1.369 . S
C1298 C1302 1.531 . S
C1299 C1298 1.369 . S
C1299 C1300 1.410 . S
C1299 C1307 1.503 . S
C1300 C1299 1.410 . S
C1300 C1301 1.392 . S
C1300 C1303 1.511 . S
C1301 C1297 1.376 . S
C1301 C1300 1.392 . S
C1301 H1313 0.929 . S
C1302 C1298 1.531 . S
C1302 H1314 0.960 . S
C1302 H1315 0.962 . S
C1302 H1316 0.960 . S
C1303 C1300 1.511 . S
C1303 H1317 0.961 . S
C1303 H1318 0.961 . S
C1303 H1319 0.961 . S
C1304 C1305 1.370 . S
C1304 C1306 1.363 . S
C1304 H1320 0.931 . S
C1305 C1304 1.370 . S
C1305 C1309 1.408 . S
C1306 C1304 1.363 . S
C1306 C1307 1.370 . S
C1306 C1310 1.524 . S
C1307 C1299 1.503 . S
C1307 C1306 1.370 . S
C1307 C1308 1.403 . S
C1308 C1307 1.403 . S
C1308 C1309 1.404 . S
C1308 C1311 1.539 . S
C1309 C1305 1.408 . S
C1309 C1308 1.404 . S
C1309 H1321 0.930 . S
C1310 C1306 1.524 . S
C1310 H1322 0.956 . S
C1310 H1323 0.961 . S
C1310 H1324 0.961 . S
C1311 C1308 1.539 . S
C1311 H1325 0.958 . S
C1311 H1326 0.961 . S
C1311 H1327 0.960 . S
H1312 C1296 0.931 . S
H1313 C1301 0.929 . S
H1314 C1302 0.960 . S
H1315 C1302 0.962 . S
H1316 C1302 0.960 . S
H1317 C1303 0.961 . S
H1318 C1303 0.961 . S
H1319 C1303 0.961 . S
H1320 C1304 0.931 . S
H1321 C1309 0.930 . S
H1322 C1310 0.956 . S
H1323 C1310 0.961 . S
H1324 C1310 0.961 . S
H1325 C1311 0.958 . S
H1326 C1311 0.961 . S
H1327 C1311 0.960 . S
C1328 C1329 1.391 . S
C1328 C1330 1.394 . S
C1328 H1344 0.931 . S
C1329 C1328 1.391 . S
C1329 C1333 1.376 . S
C1330 C1328 1.394 . S
C1330 C1331 1.369 . S
C1330 C1334 1.531 . S
C1331 C1330 1.369 . S
C1331 C1332 1.410 . S
C1331 C1339 1.503 . S
C1332 C1331 1.410 . S
C1332 C1333 1.392 . S
C1332 C1335 1.511 . S
C1333 C1329 1.376 . S
C1333 C1332 1.392 . S
C1333 H1345 0.929 . S
C1334 C1330 1.531 . S
C1334 H1346 0.960 . S
C1334 H1347 0.962 . S
C1334 H1348 0.960 . S
C1335 C1332 1.511 . S
C1335 H1349 0.961 . S
C1335 H1350 0.961 . S
C1335 H1351 0.961 . S
C1336 C1337 1.370 . S
C1336 C1338 1.363 . S
C1336 H1352 0.931 . S
C1337 C1336 1.370 . S
C1337 C1341 1.408 . S
C1338 C1336 1.363 . S
C1338 C1339 1.370 . S
C1338 C1342 1.524 . S
C1339 C1331 1.503 . S
C1339 C1338 1.370 . S
C1339 C1340 1.403 . S
C1340 C1339 1.403 . S
C1340 C1341 1.404 . S
C1340 C1343 1.539 . S
C1341 C1337 1.408 . S
C1341 C1340 1.404 . S
C1341 H1353 0.930 . S
C1342 C1338 1.524 . S
C1342 H1354 0.956 . S
C1342 H1355 0.961 . S
C1342 H1356 0.961 . S
C1343 C1340 1.539 . S
C1343 H1357 0.958 . S
C1343 H1358 0.961 . S
C1343 H1359 0.960 . S
H1344 C1328 0.931 . S
H1345 C1333 0.929 . S
H1346 C1334 0.960 . S
H1347 C1334 0.962 . S
H1348 C1334 0.960 . S
H1349 C1335 0.961 . S
H1350 C1335 0.961 . S
H1351 C1335 0.961 . S
H1352 C1336 0.931 . S
H1353 C1341 0.930 . S
H1354 C1342 0.956 . S
H1355 C1342 0.961 . S
H1356 C1342 0.961 . S
H1357 C1343 0.958 . S
H1358 C1343 0.961 . S
H1359 C1343 0.960 . S
C1360 C1361 1.391 . S
C1360 C1362 1.394 . S
C1360 H1376 0.931 . S
C1361 C1360 1.391 . S
C1361 C1365 1.376 . S
C1362 C1360 1.394 . S
C1362 C1363 1.369 . S
C1362 C1366 1.531 . S
C1363 C1362 1.369 . S
C1363 C1364 1.410 . S
C1363 C1371 1.503 . S
C1364 C1363 1.410 . S
C1364 C1365 1.392 . S
C1364 C1367 1.511 . S
C1365 C1361 1.376 . S
C1365 C1364 1.392 . S
C1365 H1377 0.929 . S
C1366 C1362 1.531 . S
C1366 H1378 0.960 . S
C1366 H1379 0.962 . S
C1366 H1380 0.960 . S
C1367 C1364 1.511 . S
C1367 H1381 0.961 . S
C1367 H1382 0.961 . S
C1367 H1383 0.961 . S
C1368 C1369 1.370 . S
C1368 C1370 1.363 . S
C1368 H1384 0.931 . S
C1369 C1368 1.370 . S
C1369 C1373 1.408 . S
C1370 C1368 1.363 . S
C1370 C1371 1.370 . S
C1370 C1374 1.524 . S
C1371 C1363 1.503 . S
C1371 C1370 1.370 . S
C1371 C1372 1.403 . S
C1372 C1371 1.403 . S
C1372 C1373 1.404 . S
C1372 C1375 1.539 . S
C1373 C1369 1.408 . S
C1373 C1372 1.404 . S
C1373 H1385 0.930 . S
C1374 C1370 1.524 . S
C1374 H1386 0.956 . S
C1374 H1387 0.961 . S
C1374 H1388 0.961 . S
C1375 C1372 1.539 . S
C1375 H1389 0.958 . S
C1375 H1390 0.961 . S
C1375 H1391 0.960 . S
H1376 C1360 0.931 . S
H1377 C1365 0.929 . S
H1378 C1366 0.960 . S
H1379 C1366 0.962 . S
H1380 C1366 0.960 . S
H1381 C1367 0.961 . S
H1382 C1367 0.961 . S
H1383 C1367 0.961 . S
H1384 C1368 0.931 . S
H1385 C1373 0.930 . S
H1386 C1374 0.956 . S
H1387 C1374 0.961 . S
H1388 C1374 0.961 . S
H1389 C1375 0.958 . S
H1390 C1375 0.961 . S
H1391 C1375 0.960 . S
C241 C59 1.368 . S
C249 C6 1.366 . S
C273 C68 1.336 . S
C281 C36 1.343 . S
C305 C46 1.336 . S
C313 C99 1.357 . S
C337 C76 1.354 . S
C345 C108 1.372 . S
C369 C19 1.336 . S
C377 C86 1.346 . S
C401 C28 1.340 . S
C409 C116 1.348 . S
C433 C208 1.336 . S
C441 C136 1.344 . S
C465 C146 1.326 . S
C473 C239 1.364 . S
C497 C176 1.386 . S
C505 C128 1.379 . S
C529 C186 1.386 . S
C537 C159 1.379 . S
C561 C216 1.348 . S
C569 C168 1.363 . S
C593 C199 1.363 . S
C601 C226 1.364 . S
C625 C61 1.727 . S
C633 C9 1.746 . S
C657 C21 1.762 . S
C665 C89 1.759 . S
C689 C49 1.729 . S
C697 C101 1.746 . S
C721 C121 1.757 . S
C729 C189 1.757 . S
C753 C149 1.768 . S
C761 C201 1.762 . S
C785 C161 1.762 . S
C793 C229 1.762 . S
C817 C141 1.917 . S
C825 C1 1.937 . S
C849 C29 1.929 . S
C857 C169 1.943 . S
C881 C181 1.946 . S
C889 C41 1.937 . S
C913 C69 1.931 . S
C921 C209 1.943 . S
C945 C81 1.917 . S
C953 C221 1.937 . S
C977 C129 1.916 . S
C985 C109 1.938 . S
C1009 C48 1.510 . S
C1017 C16 1.568 . S
C1041 C26 1.556 . S
C1049 C79 1.487 . S
C1073 C56 1.567 . S
C1081 C88 1.501 . S
C1105 C66 1.560 . S
C1113 C119 1.490 . S
C1137 C8 1.470 . S
C1145 C96 1.561 . S
C1169 C39 1.463 . S
C1177 C106 1.562 . S
C1201 C219 1.481 . S
C1209 C126 1.561 . S
C1233 C156 1.545 . S
C1241 C228 1.483 . S
C1265 C166 1.551 . S
C1273 C139 1.493 . S
C1297 C148 1.528 . S
C1305 C196 1.572 . S
C1329 C206 1.556 . S
C1337 C179 1.487 . S
C1361 C236 1.568 . S
C1369 C188 1.504 . S
