# Generated by pormake.
# Topology fnr, (5)-cn, num edge types: 1
# Building blocks:
#     Node 0, Type 0, BuildingBlock: XOMCOT_clean_sbu_0, # of connection points: 5
#     Node 1, Type 0, BuildingBlock: XOMCOT_clean_sbu_0, # of connection points: 5
#     Node 2, Type 0, BuildingBlock: XOMCOT_clean_sbu_0, # of connection points: 5
#     Node 3, Type 0, BuildingBlock: XOMCOT_clean_sbu_0, # of connection points: 5
#     Node 4, Type 0, BuildingBlock: XOMCOT_clean_sbu_0, # of connection points: 5
#     Node 5, Type 0, BuildingBlock: XOMCOT_clean_sbu_0, # of connection points: 5
#     Node 6, Type 0, BuildingBlock: XOMCOT_clean_sbu_0, # of connection points: 5
#     Node 7, Type 0, BuildingBlock: XOMCOT_clean_sbu_0, # of connection points: 5
#     Node 8, Type 0, BuildingBlock: XOMCOT_clean_sbu_0, # of connection points: 5
#     Node 9, Type 0, BuildingBlock: XOMCOT_clean_sbu_0, # of connection points: 5
#     Node 10, Type 0, BuildingBlock: XOMCOT_clean_sbu_0, # of connection points: 5
#     Node 11, Type 0, BuildingBlock: XOMCOT_clean_sbu_0, # of connection points: 5
#     Edge 12, Type (0, 0), BuildingBlock: ZUJKAS_clean_linker_0, # of connection points: 2
#     Edge 13, Type (0, 0), BuildingBlock: ZUJKAS_clean_linker_0, # of connection points: 2
#     Edge 14, Type (0, 0), BuildingBlock: ZUJKAS_clean_linker_0, # of connection points: 2
#     Edge 15, Type (0, 0), BuildingBlock: ZUJKAS_clean_linker_0, # of connection points: 2
#     Edge 16, Type (0, 0), BuildingBlock: ZUJKAS_clean_linker_0, # of connection points: 2
#     Edge 17, Type (0, 0), BuildingBlock: ZUJKAS_clean_linker_0, # of connection points: 2
#     Edge 18, Type (0, 0), BuildingBlock: ZUJKAS_clean_linker_0, # of connection points: 2
#     Edge 19, Type (0, 0), BuildingBlock: ZUJKAS_clean_linker_0, # of connection points: 2
#     Edge 20, Type (0, 0), BuildingBlock: ZUJKAS_clean_linker_0, # of connection points: 2
#     Edge 21, Type (0, 0), BuildingBlock: ZUJKAS_clean_linker_0, # of connection points: 2
#     Edge 22, Type (0, 0), BuildingBlock: ZUJKAS_clean_linker_0, # of connection points: 2
#     Edge 23, Type (0, 0), BuildingBlock: ZUJKAS_clean_linker_0, # of connection points: 2
#     Edge 24, Type (0, 0), BuildingBlock: ZUJKAS_clean_linker_0, # of connection points: 2
#     Edge 25, Type (0, 0), BuildingBlock: ZUJKAS_clean_linker_0, # of connection points: 2
#     Edge 26, Type (0, 0), BuildingBlock: ZUJKAS_clean_linker_0, # of connection points: 2
#     Edge 27, Type (0, 0), BuildingBlock: ZUJKAS_clean_linker_0, # of connection points: 2
#     Edge 28, Type (0, 0), BuildingBlock: ZUJKAS_clean_linker_0, # of connection points: 2
#     Edge 29, Type (0, 0), BuildingBlock: ZUJKAS_clean_linker_0, # of connection points: 2
#     Edge 30, Type (0, 0), BuildingBlock: ZUJKAS_clean_linker_0, # of connection points: 2
#     Edge 31, Type (0, 0), BuildingBlock: ZUJKAS_clean_linker_0, # of connection points: 2
#     Edge 32, Type (0, 0), BuildingBlock: ZUJKAS_clean_linker_0, # of connection points: 2
#     Edge 33, Type (0, 0), BuildingBlock: ZUJKAS_clean_linker_0, # of connection points: 2
#     Edge 34, Type (0, 0), BuildingBlock: ZUJKAS_clean_linker_0, # of connection points: 2
#     Edge 35, Type (0, 0), BuildingBlock: ZUJKAS_clean_linker_0, # of connection points: 2
#     Edge 36, Type (0, 0), BuildingBlock: ZUJKAS_clean_linker_0, # of connection points: 2
#     Edge 37, Type (0, 0), BuildingBlock: ZUJKAS_clean_linker_0, # of connection points: 2
#     Edge 38, Type (0, 0), BuildingBlock: ZUJKAS_clean_linker_0, # of connection points: 2
#     Edge 39, Type (0, 0), BuildingBlock: ZUJKAS_clean_linker_0, # of connection points: 2
#     Edge 40, Type (0, 0), BuildingBlock: ZUJKAS_clean_linker_0, # of connection points: 2
#     Edge 41, Type (0, 0), BuildingBlock: ZUJKAS_clean_linker_0, # of connection points: 2
# Relax obj value: 0.285
# Max RMSD: 0.220
# Mean RMSD: 0.220
data_MOF--net-fnr--node1-XOMCOT_clean_sbu_0--edge1-ZUJKAS_clean_linker_0
_symmetry_space_group_name_H-M    P1
_symmetry_Int_Tables_number       1
_symmetry_cell_setting            triclinic
loop_
_symmetry_equiv_pos_as_xyz
'x, y, z'
_cell_length_a     51.42497
_cell_length_b     51.490218
_cell_length_c     66.014118
_cell_angle_alpha  90.01881
_cell_angle_beta   90.002608
_cell_angle_gamma 119.96461
loop_
_atom_site_label
_atom_site_type_symbol
_atom_site_fract_x
_atom_site_fract_y
_atom_site_fract_z
_atom_type_partial_charge
Co0 Co 0.40463 0.18117 0.07741 0.0
C1 C 0.35884 0.19374 0.05812 0.0
C2 C 0.38185 0.22288 0.08307 0.0
C3 C 0.36223 0.23089 0.07514 0.0
N4 N 0.37965 0.19929 0.07268 0.0
N5 N 0.34773 0.21266 0.05944 0.0
H6 H 0.35221 0.17666 0.04659 0.0
H7 H 0.39755 0.23461 0.0951 0.0
C8 C 0.46731 0.23391 0.08394 0.0
O9 O 0.47344 0.21802 0.09661 0.0
N10 N 0.42976 0.16333 0.08177 0.0
C11 C 0.42608 0.14239 0.09551 0.0
C12 C 0.44907 0.13618 0.09336 0.0
C13 C 0.45434 0.16871 0.071 0.0
N14 N 0.46702 0.15298 0.07809 0.0
C15 C 0.37567 0.15782 0.11571 0.0
C16 C 0.41308 0.20575 0.13992 0.0
C17 C 0.39042 0.17978 0.14915 0.0
C18 C 0.37121 0.15583 0.13666 0.0
C19 C 0.41675 0.20683 0.11889 0.0
N20 N 0.39895 0.18262 0.10691 0.0
H21 H 0.36053 0.13873 0.10673 0.0
H22 H 0.43348 0.22775 0.11262 0.0
H23 H 0.40821 0.13238 0.10649 0.0
H24 H 0.46327 0.18459 0.05863 0.0
O25 O 0.37115 0.14171 0.07213 0.0
O26 O 0.40321 0.17121 0.04881 0.0
O27 O 0.44107 0.22286 0.07618 0.0
C28 C 0.38024 0.14528 0.05349 0.0
H29 H 0.35991 0.24973 0.07996 0.0
H30 H 0.45289 0.12128 0.10287 0.0
H31 H 0.42827 0.2251 0.14885 0.0
H32 H 0.35278 0.13558 0.14298 0.0
Co33 Co 0.22204 0.41358 0.56443 0.0
C34 C 0.15995 0.36104 0.55519 0.0
C35 C 0.18367 0.38758 0.52935 0.0
C36 C 0.15625 0.36514 0.52302 0.0
N37 N 0.18636 0.38511 0.54949 0.0
N38 N 0.14127 0.34848 0.5392 0.0
H39 H 0.15383 0.3533 0.57056 0.0
H40 H 0.20022 0.4052 0.51987 0.0
C41 C 0.18509 0.4428 0.56042 0.0
O42 O 0.16199 0.41671 0.56524 0.0
N43 N 0.25809 0.44237 0.57816 0.0
C44 C 0.27117 0.43789 0.5944 0.0
C45 C 0.29827 0.4636 0.59778 0.0
C46 C 0.27725 0.47041 0.57178 0.0
N47 N 0.30213 0.48399 0.58347 0.0
C48 C 0.19431 0.3761 0.59903 0.0
C49 C 0.19405 0.42019 0.62275 0.0
C50 C 0.1875 0.39301 0.63186 0.0
C51 C 0.1869 0.37047 0.61957 0.0
C52 C 0.20166 0.42502 0.60229 0.0
N53 N 0.20163 0.40311 0.59056 0.0
H54 H 0.19571 0.35921 0.59015 0.0
H55 H 0.20985 0.44732 0.59643 0.0
H56 H 0.26212 0.41711 0.60278 0.0
H57 H 0.2732 0.4803 0.55857 0.0
O58 O 0.23623 0.38527 0.56427 0.0
O59 O 0.24596 0.41917 0.54039 0.0
O60 O 0.21134 0.44586 0.55948 0.0
C61 C 0.24921 0.39723 0.54718 0.0
H62 H 0.14741 0.36217 0.50778 0.0
H63 H 0.31438 0.46649 0.60937 0.0
H64 H 0.19476 0.43828 0.63156 0.0
H65 H 0.18258 0.34932 0.62597 0.0
Co66 Co 0.82824 0.21932 0.07083 0.0
C67 C 0.80204 0.16327 0.04713 0.0
C68 C 0.82341 0.16035 0.0743 0.0
C69 C 0.81372 0.13437 0.06342 0.0
N70 N 0.81592 0.17833 0.06415 0.0
N71 N 0.80049 0.13628 0.04624 0.0
H72 H 0.79462 0.17253 0.03524 0.0
H73 H 0.83592 0.1661 0.08834 0.0
C74 C 0.77111 0.21962 0.07754 0.0
O75 O 0.78411 0.23534 0.09391 0.0
N76 N 0.84143 0.26119 0.07678 0.0
C77 C 0.86516 0.28101 0.0879 0.0
C78 C 0.86678 0.30847 0.08725 0.0
C79 C 0.83031 0.27762 0.06848 0.0
N80 N 0.84459 0.30618 0.07521 0.0
C81 C 0.84333 0.21885 0.11261 0.0
C82 C 0.78648 0.17818 0.1262 0.0
C83 C 0.81006 0.19142 0.14022 0.0
C84 C 0.83889 0.21149 0.13309 0.0
C85 C 0.79206 0.18601 0.10571 0.0
N86 N 0.81986 0.20772 0.09934 0.0
H87 H 0.86596 0.23287 0.10745 0.0
H88 H 0.77398 0.17446 0.09499 0.0
H89 H 0.88105 0.27661 0.09553 0.0
H90 H 0.81204 0.26887 0.05769 0.0
O91 O 0.86935 0.22864 0.07038 0.0
O92 O 0.84496 0.23181 0.04372 0.0
O93 O 0.78546 0.21084 0.06612 0.0
C94 C 0.8699 0.23524 0.05137 0.0
H95 H 0.81665 0.11572 0.06773 0.0
H96 H 0.88274 0.3284 0.09535 0.0
H97 H 0.76407 0.16162 0.13098 0.0
H98 H 0.85794 0.22173 0.14327 0.0
Co99 Co 0.60857 0.83007 0.57327 0.0
C100 C 0.65675 0.81425 0.56339 0.0
C101 C 0.6447 0.83211 0.53809 0.0
C102 C 0.66684 0.82643 0.53203 0.0
N103 N 0.63835 0.8249 0.55788 0.0
N104 N 0.67433 0.81515 0.54786 0.0
H105 H 0.65694 0.80527 0.57814 0.0
H106 H 0.63377 0.84051 0.52829 0.0
C107 C 0.57606 0.76378 0.56585 0.0
O108 O 0.60031 0.76333 0.57143 0.0
N109 N 0.57895 0.83548 0.58764 0.0
C110 C 0.58257 0.85094 0.60486 0.0
C111 C 0.55569 0.84937 0.60955 0.0
C112 C 0.55027 0.82504 0.58196 0.0
N113 N 0.5354 0.83309 0.5951 0.0
C114 C 0.64483 0.83358 0.60704 0.0
C115 C 0.59842 0.79025 0.62993 0.0
C116 C 0.62603 0.80904 0.63935 0.0
C117 C 0.64976 0.83019 0.62744 0.0
C118 C 0.59441 0.79441 0.60954 0.0
N119 N 0.61731 0.81619 0.59838 0.0
H120 H 0.66269 0.85147 0.59846 0.0
H121 H 0.57207 0.78183 0.6033 0.0
H122 H 0.60329 0.86257 0.61335 0.0
H123 H 0.54051 0.81166 0.5685 0.0
O124 O 0.63708 0.8722 0.57625 0.0
O125 O 0.60479 0.85227 0.55088 0.0
O126 O 0.57597 0.78853 0.56542 0.0
C127 C 0.62638 0.87615 0.55943 0.0
H128 H 0.6759 0.82919 0.51687 0.0
H129 H 0.55162 0.85988 0.62242 0.0
H130 H 0.57948 0.77356 0.63853 0.0
H131 H 0.67134 0.84547 0.63412 0.0
Co132 Co 0.78099 0.59761 0.07537 0.0
C133 C 0.83844 0.64032 0.05429 0.0
C134 C 0.84034 0.60402 0.06875 0.0
C135 C 0.86631 0.62045 0.05801 0.0
N136 N 0.82259 0.61623 0.06646 0.0
N137 N 0.86505 0.64309 0.04881 0.0
H138 H 0.83027 0.65466 0.04866 0.0
H139 H 0.83452 0.58362 0.0768 0.0
C140 C 0.76456 0.53406 0.08557 0.0
O141 O 0.74879 0.53431 0.10116 0.0
N142 N 0.73914 0.57816 0.08357 0.0
C143 C 0.72567 0.58492 0.09856 0.0
C144 C 0.69578 0.56311 0.09923 0.0
C145 C 0.71699 0.5532 0.07483 0.0
N146 N 0.69047 0.54305 0.08439 0.0
C147 C 0.79398 0.62843 0.11351 0.0
C148 C 0.81206 0.59373 0.13433 0.0
C149 C 0.80853 0.61526 0.14504 0.0
C150 C 0.80031 0.63341 0.13419 0.0
C151 C 0.80551 0.5895 0.11364 0.0
N152 N 0.79467 0.60542 0.10366 0.0
H153 H 0.78708 0.64238 0.10572 0.0
H154 H 0.80906 0.57312 0.10603 0.0
H155 H 0.73639 0.60389 0.10861 0.0
H156 H 0.72078 0.54158 0.06253 0.0
O157 O 0.77979 0.63384 0.07011 0.0
O158 O 0.76801 0.5975 0.0478 0.0
O159 O 0.77888 0.5574 0.07453 0.0
C160 C 0.76977 0.62298 0.05219 0.0
H161 H 0.88448 0.61565 0.05662 0.0
H162 H 0.67941 0.56179 0.1101 0.0
H163 H 0.81966 0.58004 0.1419 0.0
H164 H 0.79759 0.6506 0.14171 0.0
Co165 Co 0.18457 0.7877 0.57989 0.0
C166 C 0.20256 0.84619 0.55927 0.0
C167 C 0.23811 0.84743 0.57698 0.0
C168 C 0.24929 0.87395 0.56663 0.0
N169 N 0.20877 0.82979 0.57244 0.0
N170 N 0.22706 0.87311 0.55539 0.0
H171 H 0.1812 0.83821 0.5518 0.0
H172 H 0.25128 0.84111 0.58627 0.0
C173 C 0.22979 0.76844 0.58989 0.0
O174 O 0.21185 0.75096 0.60422 0.0
N175 N 0.1609 0.74545 0.58656 0.0
C176 C 0.13961 0.73118 0.60079 0.0
C177 C 0.12994 0.70093 0.5998 0.0
C178 C 0.16289 0.72361 0.57664 0.0
N179 N 0.14483 0.69629 0.58468 0.0
C180 C 0.1654 0.79891 0.61809 0.0
C181 C 0.21526 0.81089 0.64072 0.0
C182 C 0.18983 0.80777 0.65074 0.0
C183 C 0.16511 0.80284 0.63899 0.0
C184 C 0.21466 0.80698 0.61971 0.0
N185 N 0.18919 0.79906 0.60871 0.0
H186 H 0.14557 0.79427 0.6097 0.0
H187 H 0.23482 0.81 0.61274 0.0
H188 H 0.13153 0.74158 0.61129 0.0
H189 H 0.17868 0.72807 0.56448 0.0
O190 O 0.148 0.78823 0.57457 0.0
O191 O 0.17219 0.77671 0.55182 0.0
O192 O 0.2224 0.78462 0.57933 0.0
C193 C 0.14875 0.77897 0.55643 0.0
H194 H 0.27231 0.89217 0.56691 0.0
H195 H 0.11345 0.6838 0.60962 0.0
H196 H 0.2352 0.81531 0.64904 0.0
H197 H 0.14535 0.80146 0.64589 0.0
Co198 Co 0.82749 0.60375 0.4325 0.0
C199 C 0.80836 0.64294 0.45394 0.0
C200 C 0.77156 0.60452 0.44005 0.0
C201 C 0.76033 0.61952 0.45077 0.0
N202 N 0.80172 0.61899 0.44197 0.0
N203 N 0.78337 0.64353 0.45964 0.0
H204 H 0.83069 0.65889 0.45916 0.0
H205 H 0.75809 0.5837 0.43213 0.0
C206 C 0.78505 0.53912 0.42172 0.0
O207 O 0.80265 0.54191 0.40646 0.0
N208 N 0.85285 0.58773 0.42388 0.0
C209 C 0.87184 0.5948 0.40805 0.0
C210 C 0.88243 0.57491 0.4075 0.0
C211 C 0.8533 0.56462 0.43315 0.0
N212 N 0.87055 0.55587 0.42324 0.0
C213 C 0.84211 0.63435 0.39425 0.0
C214 C 0.7898 0.59614 0.37399 0.0
C215 C 0.81381 0.61856 0.36298 0.0
C216 C 0.83984 0.63851 0.37356 0.0
C217 C 0.79304 0.59279 0.39469 0.0
N218 N 0.81975 0.61046 0.40437 0.0
H219 H 0.86283 0.64957 0.40178 0.0
H220 H 0.77392 0.57555 0.40253 0.0
H221 H 0.87733 0.61245 0.39724 0.0
H222 H 0.8393 0.55293 0.44604 0.0
O223 O 0.86297 0.64196 0.43733 0.0
O224 O 0.84224 0.60537 0.45989 0.0
O225 O 0.79156 0.56157 0.43327 0.0
C226 C 0.86421 0.63189 0.45511 0.0
H227 H 0.73686 0.61294 0.45222 0.0
H228 H 0.89698 0.57396 0.39604 0.0
H229 H 0.76873 0.58101 0.36664 0.0
H230 H 0.85894 0.65642 0.3658 0.0
Co231 Co 0.22267 0.81605 0.93545 0.0
C232 C 0.1594 0.80281 0.94553 0.0
C233 C 0.18641 0.80715 0.97146 0.0
C234 C 0.15924 0.80262 0.97815 0.0
N235 N 0.187 0.80786 0.95099 0.0
N236 N 0.14238 0.79991 0.9619 0.0
H237 H 0.15136 0.80061 0.93019 0.0
H238 H 0.20448 0.8095 0.98106 0.0
C239 C 0.18991 0.74993 0.94132 0.0
O240 O 0.16543 0.75061 0.93669 0.0
N241 N 0.2587 0.82438 0.92122 0.0
C242 C 0.2708 0.84156 0.9047 0.0
C243 C 0.29798 0.8433 0.90079 0.0
C244 C 0.27849 0.81608 0.92722 0.0
N245 N 0.30283 0.82732 0.91504 0.0
C246 C 0.1908 0.82056 0.90147 0.0
C247 C 0.19549 0.77893 0.87767 0.0
C248 C 0.18598 0.79746 0.86867 0.0
C249 C 0.1827 0.81776 0.88107 0.0
C250 C 0.20309 0.78225 0.8982 0.0
N251 N 0.20094 0.80304 0.90988 0.0
H252 H 0.19035 0.838 0.9103 0.0
H253 H 0.21331 0.76993 0.90414 0.0
H254 H 0.26091 0.85259 0.89639 0.0
H255 H 0.27516 0.8024 0.94046 0.0
O256 O 0.23396 0.85775 0.93386 0.0
O257 O 0.24758 0.83803 0.95857 0.0
O258 O 0.21518 0.77434 0.94178 0.0
C259 C 0.24832 0.86164 0.95076 0.0
H260 H 0.15202 0.8006 0.99377 0.0
H261 H 0.31337 0.85623 0.8888 0.0
H262 H 0.19921 0.76351 0.86865 0.0
H263 H 0.17522 0.83241 0.87489 0.0
Co264 Co 0.40565 0.22409 0.43249 0.0
C265 C 0.35398 0.16232 0.44281 0.0
C266 C 0.36762 0.19305 0.46773 0.0
C267 C 0.3442 0.16611 0.47398 0.0
N268 N 0.37391 0.19105 0.44809 0.0
N269 N 0.33578 0.14679 0.4584 0.0
H270 H 0.35354 0.15237 0.42831 0.0
H271 H 0.37962 0.21248 0.47732 0.0
C272 C 0.43342 0.18688 0.44415 0.0
O273 O 0.40771 0.16248 0.44077 0.0
N274 N 0.43701 0.25727 0.41773 0.0
C275 C 0.43443 0.26941 0.40032 0.0
C276 C 0.46196 0.2939 0.39576 0.0
C277 C 0.46581 0.27438 0.42358 0.0
N278 N 0.48162 0.29692 0.41041 0.0
C279 C 0.36969 0.19232 0.39827 0.0
C280 C 0.41465 0.18861 0.37783 0.0
C281 C 0.38843 0.18223 0.3673 0.0
C282 C 0.36529 0.18308 0.37801 0.0
C283 C 0.41816 0.19779 0.39802 0.0
N284 N 0.39607 0.20011 0.40793 0.0
H285 H 0.3525 0.19489 0.40588 0.0
H286 H 0.43977 0.20554 0.405 0.0
H287 H 0.41392 0.26123 0.3917 0.0
H288 H 0.47474 0.27096 0.43753 0.0
O289 O 0.3794 0.24044 0.42854 0.0
O290 O 0.41125 0.25174 0.45412 0.0
O291 O 0.43612 0.21268 0.44152 0.0
C292 C 0.39085 0.25553 0.44513 0.0
H293 H 0.3351 0.1606 0.48918 0.0
H294 H 0.46711 0.30832 0.38268 0.0
H295 H 0.43305 0.1881 0.37022 0.0
H296 H 0.34479 0.17869 0.37046 0.0
Co297 Co 0.18623 0.39833 0.92088 0.0
C298 C 0.20001 0.35104 0.93579 0.0
C299 C 0.23728 0.38754 0.92075 0.0
C300 C 0.2459 0.36759 0.92696 0.0
N301 N 0.20832 0.37717 0.92589 0.0
N302 N 0.2226 0.3447 0.93644 0.0
H303 H 0.1782 0.33705 0.94256 0.0
H304 H 0.25197 0.40881 0.91371 0.0
C305 C 0.23397 0.46154 0.91148 0.0
O306 O 0.21639 0.46221 0.89727 0.0
N307 N 0.16477 0.42019 0.91662 0.0
C308 C 0.14232 0.41476 0.90368 0.0
C309 C 0.13565 0.43748 0.9054 0.0
C310 C 0.17034 0.44537 0.92666 0.0
N311 N 0.15358 0.45698 0.91968 0.0
C312 C 0.16388 0.37224 0.88178 0.0
C313 C 0.21571 0.4053 0.85969 0.0
C314 C 0.18934 0.38539 0.8494 0.0
C315 C 0.16334 0.36826 0.86084 0.0
C316 C 0.21524 0.40866 0.88069 0.0
N317 N 0.18915 0.39336 0.89151 0.0
H318 H 0.14336 0.35863 0.88999 0.0
H319 H 0.23615 0.4238 0.88784 0.0
H320 H 0.13144 0.39594 0.89352 0.0
H321 H 0.18771 0.4559 0.93801 0.0
O322 O 0.1486 0.36234 0.92554 0.0
O323 O 0.17509 0.39515 0.9494 0.0
O324 O 0.22555 0.43772 0.92195 0.0
C325 C 0.15056 0.37073 0.94425 0.0
H326 H 0.26812 0.37036 0.92547 0.0
H327 H 0.11907 0.43958 0.89657 0.0
H328 H 0.23668 0.41823 0.85162 0.0
H329 H 0.14238 0.35242 0.85367 0.0
Co330 Co 0.78426 0.19191 0.42774 0.0
C331 C 0.83828 0.20296 0.45169 0.0
C332 C 0.84988 0.22709 0.42358 0.0
C333 C 0.87591 0.23366 0.43354 0.0
N334 N 0.82618 0.20741 0.43474 0.0
N335 N 0.86858 0.21854 0.45118 0.0
H336 H 0.82544 0.18886 0.46422 0.0
H337 H 0.84854 0.23669 0.40934 0.0
C338 C 0.77698 0.24737 0.42672 0.0
O339 O 0.75056 0.23247 0.41806 0.0
N340 N 0.74236 0.17593 0.42071 0.0
C341 C 0.72854 0.16068 0.40374 0.0
C342 C 0.69877 0.15264 0.40465 0.0
C343 C 0.72038 0.17545 0.43222 0.0
N344 N 0.69373 0.16224 0.42244 0.0
C345 C 0.80309 0.17728 0.39085 0.0
C346 C 0.79464 0.21531 0.36573 0.0
C347 C 0.80104 0.19432 0.35702 0.0
C348 C 0.8062 0.17574 0.36991 0.0
C349 C 0.79159 0.21601 0.38666 0.0
N350 N 0.7948 0.19649 0.39899 0.0
H351 H 0.80638 0.16225 0.40052 0.0
H352 H 0.78556 0.23162 0.39251 0.0
H353 H 0.73919 0.15564 0.39146 0.0
H354 H 0.72427 0.18618 0.44688 0.0
O355 O 0.77563 0.15123 0.43116 0.0
O356 O 0.77221 0.17908 0.45546 0.0
O357 O 0.79247 0.23468 0.43038 0.0
C358 C 0.76874 0.15328 0.44979 0.0
H359 H 0.89852 0.24919 0.42852 0.0
H360 H 0.68214 0.14079 0.39302 0.0
H361 H 0.79132 0.23071 0.3564 0.0
H362 H 0.81133 0.15924 0.36389 0.0
Co363 Co 0.6086 0.7821 0.92374 0.0
C364 C 0.65464 0.84729 0.93197 0.0
C365 C 0.64225 0.81958 0.95844 0.0
C366 C 0.6626 0.8483 0.96401 0.0
N367 N 0.63717 0.81853 0.93827 0.0
N368 N 0.67024 0.86574 0.94744 0.0
H369 H 0.65513 0.85505 0.9167 0.0
H370 H 0.63125 0.80102 0.96884 0.0
C371 C 0.57446 0.8147 0.92844 0.0
O372 O 0.5984 0.83896 0.92206 0.0
N373 N 0.58014 0.74562 0.9103 0.0
C374 C 0.5844 0.73298 0.89371 0.0
C375 C 0.55831 0.70641 0.88988 0.0
C376 C 0.55191 0.72666 0.91647 0.0
N377 N 0.53795 0.70247 0.90426 0.0
C378 C 0.64458 0.8132 0.88944 0.0
C379 C 0.59755 0.80669 0.86553 0.0
C380 C 0.62554 0.81616 0.85648 0.0
C381 C 0.64952 0.8204 0.86886 0.0
C382 C 0.59355 0.79971 0.88611 0.0
N383 N 0.61681 0.80264 0.8978 0.0
H384 H 0.66274 0.81455 0.89848 0.0
H385 H 0.57108 0.78952 0.89216 0.0
H386 H 0.60507 0.74231 0.88514 0.0
H387 H 0.54187 0.73061 0.92965 0.0
O388 O 0.63836 0.76985 0.92224 0.0
O389 O 0.60568 0.75828 0.94727 0.0
O390 O 0.57485 0.79018 0.93019 0.0
C391 C 0.62793 0.75636 0.93944 0.0
H392 H 0.66994 0.85613 0.97931 0.0
H393 H 0.55486 0.69092 0.87771 0.0
H394 H 0.57841 0.80315 0.85656 0.0
H395 H 0.67141 0.82724 0.86248 0.0
H396 H 0.73953 0.24284 0.09528 0.0
H397 H 0.68683 0.22758 0.09078 0.0
H398 H 0.67796 0.16304 0.04572 0.0
H399 H 0.73132 0.17839 0.05008 0.0
H400 H 0.64825 0.19773 0.03613 0.0
H401 H 0.61897 0.14603 0.11242 0.0
H402 H 0.64976 0.1839 0.11248 0.0
H403 H 0.65367 0.15509 0.09984 0.0
C404 C 0.72653 0.22541 0.08435 0.0
C405 C 0.73961 0.21154 0.07323 0.0
C406 C 0.69632 0.21671 0.08182 0.0
C407 C 0.67832 0.19381 0.06821 0.0
C408 C 0.69145 0.18065 0.05642 0.0
H409 H 0.48362 0.11075 0.0805 0.0
H410 H 0.53389 0.11796 0.07515 0.0
C411 C 0.7219 0.18943 0.05892 0.0
C412 C 0.64568 0.1833 0.06702 0.0
H413 H 0.58265 0.15492 0.09634 0.0
C414 C 0.63375 0.18802 0.04918 0.0
C415 C 0.62668 0.17026 0.08397 0.0
C416 C 0.63779 0.16322 0.10321 0.0
C417 C 0.60361 0.18118 0.04815 0.0
C418 C 0.5851 0.16975 0.06552 0.0
C419 C 0.5968 0.16391 0.08305 0.0
C420 C 0.55386 0.16451 0.06628 0.0
C421 C 0.59193 0.18627 0.02848 0.0
C422 C 0.54813 0.18813 0.06288 0.0
C423 C 0.51934 0.18401 0.06589 0.0
C424 C 0.49573 0.15627 0.07263 0.0
C425 C 0.50135 0.13245 0.07549 0.0
C426 C 0.53007 0.13652 0.07237 0.0
H427 H 0.60517 0.18573 0.01535 0.0
H428 H 0.56798 0.16916 0.02612 0.0
H429 H 0.59384 0.20871 0.02882 0.0
H430 H 0.5662 0.21016 0.05871 0.0
H431 H 0.51595 0.20298 0.06389 0.0
H432 H 0.34387 0.51855 0.61151 0.0
H433 H 0.38908 0.56692 0.60597 0.0
H434 H 0.36487 0.5648 0.54321 0.0
H435 H 0.3203 0.51589 0.54837 0.0
H436 H 0.42348 0.58056 0.54764 0.0
H437 H 0.396 0.6484 0.59915 0.0
H438 H 0.39451 0.61664 0.61149 0.0
H439 H 0.3685 0.61092 0.59141 0.0
C440 C 0.34814 0.52825 0.5965 0.0
C441 C 0.32824 0.5132 0.58043 0.0
C442 C 0.37385 0.55613 0.59342 0.0
C443 C 0.38009 0.56973 0.57425 0.0
C444 C 0.36036 0.55484 0.55817 0.0
H445 H 0.52068 0.75587 0.5563 0.0
H446 H 0.47273 0.70884 0.55596 0.0
C447 C 0.3347 0.52692 0.56121 0.0
C448 C 0.4078 0.59893 0.5708 0.0
H449 H 0.44673 0.67124 0.5876 0.0
C450 C 0.42846 0.60047 0.55626 0.0
C451 C 0.41407 0.62501 0.58179 0.0
C452 C 0.39196 0.62533 0.59668 0.0
C453 C 0.45564 0.62714 0.55287 0.0
C454 C 0.4626 0.65278 0.56463 0.0
C455 C 0.44152 0.6515 0.57871 0.0
C456 C 0.49195 0.68093 0.56308 0.0
C457 C 0.47651 0.6276 0.53663 0.0
C458 C 0.51874 0.68086 0.56704 0.0
C459 C 0.54621 0.70767 0.56712 0.0
C460 C 0.54742 0.73517 0.56348 0.0
C461 C 0.5206 0.73511 0.55912 0.0
C462 C 0.49314 0.70825 0.55897 0.0
H463 H 0.46421 0.60999 0.52504 0.0
H464 H 0.4884 0.64973 0.52895 0.0
H465 H 0.49353 0.62316 0.54363 0.0
H466 H 0.51833 0.66016 0.57071 0.0
H467 H 0.56636 0.70687 0.57067 0.0
H468 H 0.88032 0.36655 0.0764 0.0
H469 H 0.86407 0.40383 0.07576 0.0
H470 H 0.77243 0.33354 0.06715 0.0
H471 H 0.78842 0.29612 0.06793 0.0
H472 H 0.78991 0.38565 0.04287 0.0
H473 H 0.81804 0.41259 0.12423 0.0
H474 H 0.84841 0.41582 0.10893 0.0
H475 H 0.81546 0.37975 0.11243 0.0
C476 C 0.85674 0.35905 0.0743 0.0
C477 C 0.83566 0.32836 0.07239 0.0
C478 C 0.8475 0.38035 0.07393 0.0
C479 C 0.81701 0.37133 0.07176 0.0
C480 C 0.79607 0.3409 0.06889 0.0
H481 H 0.73926 0.48103 0.10643 0.0
H482 H 0.74912 0.43954 0.10194 0.0
C483 C 0.80529 0.31957 0.06923 0.0
C484 C 0.80681 0.39349 0.07342 0.0
H485 H 0.80433 0.44361 0.10603 0.0
C486 C 0.79294 0.39829 0.05667 0.0
C487 C 0.81032 0.40947 0.09159 0.0
C488 C 0.82361 0.40403 0.1104 0.0
C489 C 0.78318 0.41934 0.05746 0.0
C490 C 0.78779 0.43616 0.07539 0.0
C491 C 0.80099 0.43079 0.09227 0.0
C492 C 0.77987 0.46007 0.0769 0.0
C493 C 0.7678 0.42318 0.03919 0.0
C494 C 0.79385 0.48528 0.06427 0.0
C495 C 0.78826 0.50898 0.06677 0.0
C496 C 0.76878 0.50802 0.08209 0.0
C497 C 0.75441 0.4825 0.09451 0.0
C498 C 0.76 0.45877 0.09197 0.0
H499 H 0.75844 0.40319 0.02915 0.0
H500 H 0.74938 0.42727 0.04377 0.0
H501 H 0.78438 0.44278 0.03029 0.0
H502 H 0.80976 0.48703 0.05284 0.0
H503 H 0.79979 0.52834 0.05697 0.0
H504 H 0.49946 0.83066 0.62608 0.0
H505 H 0.4471 0.81842 0.62389 0.0
H506 H 0.44839 0.80672 0.55931 0.0
H507 H 0.50079 0.81925 0.56127 0.0
H508 H 0.42266 0.84747 0.60141 0.0
H509 H 0.3742 0.72853 0.57801 0.0
H510 H 0.41146 0.7501 0.58854 0.0
H511 H 0.40467 0.75498 0.5625 0.0
C512 C 0.48874 0.82567 0.61138 0.0
C513 C 0.50444 0.82585 0.59387 0.0
C514 C 0.45873 0.81852 0.61017 0.0
C515 C 0.44374 0.81123 0.59148 0.0
C516 C 0.45934 0.81163 0.57395 0.0
H517 H 0.276 0.80869 0.56596 0.0
H518 H 0.32777 0.81863 0.5654 0.0
C519 C 0.48935 0.81879 0.57513 0.0
C520 C 0.412 0.80395 0.59029 0.0
H521 H 0.34142 0.7485 0.5776 0.0
C522 C 0.40488 0.82584 0.59621 0.0
C523 C 0.38884 0.7756 0.58369 0.0
C524 C 0.39501 0.75081 0.57798 0.0
C525 C 0.37523 0.82025 0.59554 0.0
C526 C 0.35216 0.79215 0.58849 0.0
C527 C 0.35922 0.77014 0.58277 0.0
C528 C 0.32039 0.78485 0.58772 0.0
C529 C 0.36874 0.84425 0.60279 0.0
C530 C 0.29885 0.76183 0.59989 0.0
C531 C 0.26922 0.75598 0.60018 0.0
C532 C 0.26052 0.77295 0.58821 0.0
C533 C 0.28194 0.79528 0.57545 0.0
C534 C 0.3116 0.80114 0.5752 0.0
H535 H 0.38748 0.86157 0.612 0.0
H536 H 0.36551 0.85552 0.58949 0.0
H537 H 0.34789 0.83437 0.61199 0.0
H538 H 0.30514 0.74889 0.60958 0.0
H539 H 0.25329 0.73851 0.6101 0.0
H540 H 0.67115 0.51162 0.04938 0.0
H541 H 0.62977 0.4601 0.04542 0.0
H542 H 0.60905 0.45722 0.10897 0.0
H543 H 0.65015 0.50859 0.11298 0.0
H544 H 0.6255 0.41132 0.0637 0.0
H545 H 0.52649 0.4213 0.084 0.0
H546 H 0.56252 0.45349 0.07819 0.0
H547 H 0.55513 0.43696 0.10306 0.0
C548 C 0.65752 0.50011 0.06244 0.0
C549 C 0.66394 0.51423 0.08149 0.0
C550 C 0.63385 0.47072 0.06015 0.0
C551 C 0.61606 0.4549 0.07684 0.0
C552 C 0.62194 0.4692 0.09576 0.0
H553 H 0.52324 0.26608 0.10064 0.0
H554 H 0.55883 0.31951 0.09687 0.0
C555 C 0.6455 0.49862 0.09804 0.0
C556 C 0.59311 0.42271 0.07493 0.0
H557 H 0.51994 0.37171 0.0853 0.0
C558 C 0.60232 0.4027 0.06817 0.0
C559 C 0.56279 0.4115 0.0805 0.0
C560 C 0.55106 0.43198 0.08664 0.0
C561 C 0.58232 0.37168 0.0676 0.0
C562 C 0.55248 0.36033 0.07439 0.0
C563 C 0.54293 0.38041 0.08034 0.0
C564 C 0.53112 0.32768 0.0761 0.0
C565 C 0.5934 0.35141 0.05973 0.0
C566 C 0.5034 0.31459 0.06603 0.0
C567 C 0.4828 0.28403 0.06832 0.0
C568 C 0.48951 0.26602 0.08082 0.0
C569 C 0.51738 0.27922 0.09082 0.0
C570 C 0.53788 0.30976 0.08857 0.0
H571 H 0.61292 0.36362 0.04944 0.0
H572 H 0.60077 0.34293 0.07269 0.0
H573 H 0.57542 0.33189 0.05148 0.0
H574 H 0.49766 0.32805 0.05643 0.0
H575 H 0.46152 0.27461 0.06043 0.0
H576 H 0.22819 0.50173 0.5546 0.0
H577 H 0.22126 0.54548 0.55555 0.0
H578 H 0.12621 0.48746 0.56478 0.0
H579 H 0.13273 0.44377 0.5634 0.0
H580 H 0.13843 0.53287 0.53792 0.0
H581 H 0.20601 0.5771 0.60822 0.0
H582 H 0.2255 0.5719 0.58745 0.0
H583 H 0.19397 0.53992 0.59876 0.0
C584 C 0.20578 0.49829 0.55662 0.0
C585 C 0.18106 0.46927 0.55912 0.0
C586 C 0.20189 0.52331 0.5573 0.0
C587 C 0.1733 0.51972 0.56063 0.0
C588 C 0.14849 0.49074 0.5623 0.0
H589 H 0.12983 0.64881 0.60951 0.0
H590 H 0.13498 0.60508 0.60238 0.0
C591 C 0.15231 0.46578 0.56155 0.0
C592 C 0.16905 0.54598 0.56311 0.0
H593 H 0.1875 0.60642 0.59347 0.0
C594 C 0.14922 0.54904 0.55002 0.0
C595 C 0.18278 0.56672 0.57912 0.0
C596 C 0.20304 0.56371 0.59433 0.0
C597 C 0.14273 0.57231 0.5525 0.0
C598 C 0.15689 0.59335 0.56829 0.0
C599 C 0.17675 0.59031 0.58134 0.0
C600 C 0.15124 0.61855 0.57179 0.0
C601 C 0.12017 0.57364 0.53856 0.0
C602 C 0.15828 0.64045 0.55686 0.0
C603 C 0.15499 0.66532 0.5608 0.0
C604 C 0.14495 0.669 0.57986 0.0
C605 C 0.13724 0.64661 0.59461 0.0
C606 C 0.14043 0.62169 0.59061 0.0
H607 H 0.10555 0.55172 0.53109 0.0
H608 H 0.10577 0.58041 0.54693 0.0
H609 H 0.13227 0.59049 0.52653 0.0
H610 H 0.1671 0.63875 0.54233 0.0
H611 H 0.1608 0.68191 0.54901 0.0
H612 H 0.86701 0.52922 0.4592 0.0
H613 H 0.85946 0.47881 0.46444 0.0
H614 H 0.86507 0.46912 0.39992 0.0
H615 H 0.87317 0.51953 0.39472 0.0
H616 H 0.81282 0.42917 0.4516 0.0
H617 H 0.91417 0.43368 0.41967 0.0
H618 H 0.91242 0.4671 0.42525 0.0
H619 H 0.89765 0.44732 0.40174 0.0
C620 C 0.86724 0.5165 0.44621 0.0
C621 C 0.87073 0.52832 0.42657 0.0
C622 C 0.86298 0.48775 0.4492 0.0
C623 C 0.86206 0.47024 0.4326 0.0
C624 C 0.86656 0.48244 0.41303 0.0
H625 H 0.75391 0.28264 0.41521 0.0
H626 H 0.77634 0.33661 0.41918 0.0
C627 C 0.87112 0.51129 0.41005 0.0
C628 C 0.8529 0.43818 0.43543 0.0
H629 H 0.86967 0.38444 0.42121 0.0
C630 C 0.82557 0.41952 0.44527 0.0
C631 C 0.86967 0.42552 0.42749 0.0
C632 C 0.90026 0.44455 0.41815 0.0
C633 C 0.81379 0.38843 0.44641 0.0
C634 C 0.82934 0.37551 0.43698 0.0
C635 C 0.85749 0.39429 0.42815 0.0
C636 C 0.81586 0.34257 0.43496 0.0
C637 C 0.7846 0.36975 0.45757 0.0
C638 C 0.83104 0.32799 0.44195 0.0
C639 C 0.8184 0.29698 0.43945 0.0
C640 C 0.79037 0.28007 0.42987 0.0
C641 C 0.77536 0.29485 0.42284 0.0
C642 C 0.78808 0.32575 0.42522 0.0
H643 H 0.78127 0.38308 0.46947 0.0
H644 H 0.76567 0.36193 0.44672 0.0
H645 H 0.78373 0.34984 0.46476 0.0
H646 H 0.85263 0.34059 0.44937 0.0
H647 H 0.83059 0.2863 0.44498 0.0
H648 H 0.32173 0.81231 0.94936 0.0
H649 H 0.36619 0.80752 0.95337 0.0
H650 H 0.38924 0.83166 0.89072 0.0
H651 H 0.34397 0.83518 0.88624 0.0
H652 H 0.39605 0.78422 0.90207 0.0
H653 H 0.45147 0.87698 0.95767 0.0
H654 H 0.41468 0.84819 0.96518 0.0
H655 H 0.41906 0.87063 0.94319 0.0
C656 C 0.33593 0.81629 0.9363 0.0
C657 C 0.32912 0.82427 0.91744 0.0
C658 C 0.36164 0.8139 0.93873 0.0
C659 C 0.38134 0.81979 0.92246 0.0
C660 C 0.37445 0.82725 0.90354 0.0
H661 H 0.56532 0.86207 0.92317 0.0
H662 H 0.51765 0.86151 0.92283 0.0
C663 C 0.34864 0.82949 0.90105 0.0
C664 C 0.4091 0.81809 0.92511 0.0
H665 H 0.4749 0.84812 0.95157 0.0
C666 C 0.4133 0.79816 0.9129 0.0
C667 C 0.43169 0.83652 0.93912 0.0
C668 C 0.42922 0.8595 0.95191 0.0
C669 C 0.43952 0.79619 0.91427 0.0
C670 C 0.46185 0.81421 0.92856 0.0
C671 C 0.4576 0.83407 0.9408 0.0
C672 C 0.49071 0.81436 0.93004 0.0
C673 C 0.44347 0.77557 0.89994 0.0
C674 C 0.49152 0.78817 0.93475 0.0
C675 C 0.51884 0.78835 0.93484 0.0
C676 C 0.54583 0.81482 0.93042 0.0
C677 C 0.54498 0.84125 0.92656 0.0
C678 C 0.51773 0.841 0.92638 0.0
H679 H 0.42785 0.76894 0.88685 0.0
H680 H 0.46682 0.78635 0.8941 0.0
H681 H 0.43879 0.75487 0.90814 0.0
H682 H 0.471 0.76751 0.93809 0.0
H683 H 0.5187 0.76764 0.93798 0.0
H684 H 0.73661 0.53022 0.44443 0.0
H685 H 0.68606 0.48667 0.44388 0.0
H686 H 0.71571 0.44178 0.4026 0.0
H687 H 0.76609 0.48565 0.40254 0.0
H688 H 0.66591 0.43909 0.38924 0.0
H689 H 0.64999 0.40559 0.46993 0.0
H690 H 0.66011 0.44408 0.46664 0.0
H691 H 0.68623 0.43199 0.4596 0.0
C692 C 0.7325 0.51095 0.43543 0.0
C693 C 0.75537 0.5115 0.42343 0.0
C694 C 0.70358 0.48593 0.43525 0.0
C695 C 0.6971 0.46074 0.42338 0.0
C696 C 0.72016 0.46092 0.41189 0.0
H697 H 0.52668 0.29187 0.42768 0.0
H698 H 0.57947 0.33099 0.43049 0.0
C699 C 0.74897 0.48602 0.41189 0.0
C700 C 0.66588 0.43518 0.42173 0.0
H701 H 0.60566 0.38451 0.44942 0.0
C702 C 0.65284 0.427 0.4024 0.0
C703 C 0.64889 0.41911 0.43886 0.0
C704 C 0.66212 0.42542 0.4599 0.0
C705 C 0.62317 0.40369 0.39974 0.0
C706 C 0.60569 0.38865 0.41695 0.0
C707 C 0.61892 0.39631 0.43625 0.0
C708 C 0.57365 0.36495 0.41523 0.0
C709 C 0.61105 0.39518 0.37847 0.0
C710 C 0.55273 0.3711 0.40596 0.0
C711 C 0.52263 0.34874 0.40422 0.0
C712 C 0.51272 0.3199 0.41203 0.0
C713 C 0.53359 0.31393 0.42164 0.0
C714 C 0.56376 0.33624 0.42321 0.0
H715 H 0.62942 0.40208 0.36723 0.0
H716 H 0.59562 0.37064 0.37708 0.0
H717 H 0.59843 0.40678 0.37455 0.0
H718 H 0.55962 0.39331 0.40021 0.0
H719 H 0.507 0.35419 0.3971 0.0
H720 H 0.13974 0.69452 0.94164 0.0
H721 H 0.13684 0.64584 0.9417 0.0
H722 H 0.23331 0.68923 0.94541 0.0
H723 H 0.23651 0.73839 0.94499 0.0
H724 H 0.21055 0.6466 0.9158 0.0
H725 H 0.14751 0.59876 0.98681 0.0
H726 H 0.12894 0.61219 0.97045 0.0
H727 H 0.16509 0.63821 0.98092 0.0
C728 C 0.1604 0.69383 0.94273 0.0
C729 C 0.18838 0.72046 0.94334 0.0
C730 C 0.15866 0.66587 0.94291 0.0
C731 C 0.1848 0.66377 0.94389 0.0
C732 C 0.21281 0.69028 0.9448 0.0
H733 H 0.1767 0.48959 0.95418 0.0
H734 H 0.18644 0.54047 0.96086 0.0
C735 C 0.21459 0.71836 0.94462 0.0
C736 C 0.18277 0.63395 0.94248 0.0
H737 H 0.14782 0.56357 0.96298 0.0
C738 C 0.19713 0.62856 0.92627 0.0
C739 C 0.1656 0.61045 0.95627 0.0
C740 C 0.15117 0.61525 0.97471 0.0
C741 C 0.19375 0.60006 0.92299 0.0
C742 C 0.17505 0.57611 0.93606 0.0
C743 C 0.16177 0.58179 0.95278 0.0
C744 C 0.16847 0.54491 0.93228 0.0
C745 C 0.21025 0.59587 0.90554 0.0
C746 C 0.15448 0.53018 0.91421 0.0
C747 C 0.149 0.50118 0.9103 0.0
C748 C 0.15722 0.48607 0.92443 0.0
C749 C 0.17045 0.5006 0.94281 0.0
C750 C 0.17592 0.52967 0.94671 0.0
H751 H 0.22997 0.61747 0.90085 0.0
H752 H 0.21803 0.57991 0.90951 0.0
H753 H 0.19491 0.58672 0.89235 0.0
H754 H 0.14794 0.54123 0.90302 0.0
H755 H 0.13902 0.49099 0.89593 0.0
H756 H 0.43537 0.13862 0.45928 0.0
H757 H 0.47939 0.13257 0.46275 0.0
H758 H 0.53579 0.22257 0.44047 0.0
H759 H 0.49211 0.22914 0.43777 0.0
H760 H 0.51237 0.13193 0.43357 0.0
H761 H 0.58718 0.2227 0.48553 0.0
H762 H 0.5482 0.21189 0.4823 0.0
H763 H 0.57617 0.23753 0.4648 0.0
C764 C 0.45726 0.15732 0.45552 0.0
C765 C 0.4603 0.18435 0.44828 0.0
C766 C 0.48241 0.15385 0.45752 0.0
C767 C 0.51104 0.17723 0.45215 0.0
C768 C 0.51416 0.20449 0.44532 0.0
H769 H 0.65312 0.16435 0.39763 0.0
H770 H 0.60805 0.16546 0.40733 0.0
C771 C 0.48909 0.20815 0.44363 0.0
C772 C 0.53696 0.17202 0.45151 0.0
H773 H 0.61132 0.20351 0.46334 0.0
C774 C 0.53383 0.14733 0.44042 0.0
C775 C 0.56491 0.19172 0.4607 0.0
C776 C 0.5692 0.21723 0.47418 0.0
C777 C 0.55818 0.1427 0.43738 0.0
C778 C 0.58671 0.16383 0.4451 0.0
C779 C 0.58954 0.18758 0.45714 0.0
C780 C 0.61412 0.16281 0.43955 0.0
C781 C 0.55311 0.11533 0.42572 0.0
C782 C 0.63313 0.16193 0.45448 0.0
C783 C 0.65922 0.1615 0.44894 0.0
C784 C 0.66663 0.16194 0.42838 0.0
C785 C 0.64765 0.16313 0.41355 0.0
C786 C 0.62183 0.16378 0.41908 0.0
H787 H 0.52949 0.09685 0.42712 0.0
H788 H 0.55759 0.12109 0.40941 0.0
H789 H 0.5682 0.10712 0.43105 0.0
H790 H 0.62771 0.16143 0.47039 0.0
H791 H 0.67343 0.16059 0.46068 0.0
H792 H 0.27942 0.46526 0.93525 0.0
H793 H 0.33136 0.50658 0.93688 0.0
H794 H 0.31061 0.55644 0.8937 0.0
H795 H 0.25869 0.51557 0.89215 0.0
H796 H 0.37179 0.52933 0.9048 0.0
H797 H 0.35404 0.61784 0.93863 0.0
H798 H 0.32572 0.57863 0.93919 0.0
H799 H 0.33119 0.60049 0.91671 0.0
C800 C 0.2858 0.48517 0.92629 0.0
C801 C 0.26489 0.48712 0.91358 0.0
C802 C 0.3155 0.50872 0.92721 0.0
C803 C 0.32472 0.5347 0.91559 0.0
C804 C 0.30382 0.53684 0.90309 0.0
H805 H 0.50192 0.66583 0.87447 0.0
H806 H 0.45056 0.62414 0.87808 0.0
C807 C 0.27418 0.51334 0.90213 0.0
C808 C 0.35654 0.55892 0.91564 0.0
H809 H 0.40207 0.63393 0.92377 0.0
C810 C 0.37847 0.55216 0.9091 0.0
C811 C 0.36522 0.58859 0.92147 0.0
C812 C 0.34286 0.59684 0.92958 0.0
C813 C 0.40878 0.5745 0.90768 0.0
C814 C 0.41724 0.60442 0.91264 0.0
C815 C 0.39545 0.61101 0.91975 0.0
C816 C 0.44857 0.62928 0.91049 0.0
C817 C 0.43149 0.56584 0.90101 0.0
C818 C 0.46428 0.64633 0.92744 0.0
C819 C 0.49362 0.67018 0.92542 0.0
C820 C 0.5078 0.67758 0.90636 0.0
C821 C 0.49191 0.66046 0.8894 0.0
C822 C 0.46254 0.63661 0.89144 0.0
H823 H 0.42292 0.54147 0.90305 0.0
H824 H 0.43645 0.57112 0.88468 0.0
H825 H 0.4528 0.57855 0.90958 0.0
H826 H 0.45387 0.64105 0.94227 0.0
H827 H 0.50526 0.68257 0.93885 0.0
H828 H 0.43261 0.21335 0.33957 0.0
H829 H 0.42954 0.20904 0.30278 0.0
H830 H 0.33733 0.13821 0.30718 0.0
H831 H 0.34022 0.14239 0.34425 0.0
H832 H 0.41717 0.16175 0.27775 0.0
H833 H 0.33207 0.19729 0.26849 0.0
H834 H 0.35169 0.20164 0.29203 0.0
H835 H 0.32101 0.16562 0.28487 0.0
C836 C 0.41176 0.1965 0.3328 0.0
C837 C 0.38668 0.17809 0.34491 0.0
C838 C 0.41 0.19422 0.31171 0.0
C839 C 0.38311 0.1736 0.30219 0.0
C840 C 0.35814 0.15473 0.31419 0.0
H841 H 0.37647 0.13111 0.17318 0.0
H842 H 0.37257 0.12784 0.21009 0.0
C843 C 0.35985 0.15706 0.33536 0.0
C844 C 0.38158 0.17216 0.27971 0.0
H845 H 0.34744 0.18305 0.23878 0.0
C846 C 0.40182 0.16626 0.26922 0.0
C847 C 0.36183 0.17848 0.26862 0.0
C848 C 0.34057 0.18639 0.27902 0.0
C849 C 0.40299 0.16664 0.24796 0.0
C850 C 0.38294 0.17252 0.23686 0.0
C851 C 0.36261 0.17831 0.24733 0.0
C852 C 0.38355 0.17388 0.21437 0.0
C853 C 0.42636 0.16173 0.23762 0.0
C854 C 0.38997 0.20053 0.20445 0.0
C855 C 0.3918 0.20238 0.1833 0.0
C856 C 0.38714 0.17753 0.17162 0.0
C857 C 0.37998 0.15063 0.18164 0.0
C858 C 0.37809 0.1488 0.20278 0.0
H859 H 0.4446 0.16504 0.24818 0.0
H860 H 0.41561 0.13839 0.23184 0.0
H861 H 0.43649 0.17719 0.22457 0.0
H862 H 0.39405 0.22011 0.21309 0.0
H863 H 0.39682 0.22328 0.17612 0.0
H864 H 0.14929 0.3427 0.6539 0.0
H865 H 0.14602 0.33729 0.69091 0.0
H866 H 0.21532 0.42966 0.6974 0.0
H867 H 0.21939 0.43513 0.66073 0.0
H868 H 0.19594 0.34996 0.71901 0.0
H869 H 0.14404 0.42039 0.73322 0.0
H870 H 0.1427 0.40389 0.70881 0.0
H871 H 0.17625 0.43704 0.71684 0.0
C872 C 0.16387 0.36184 0.66321 0.0
C873 C 0.18431 0.38947 0.65427 0.0
C874 C 0.16189 0.35872 0.68433 0.0
C875 C 0.18011 0.38322 0.69683 0.0
C876 C 0.20062 0.41067 0.688 0.0
H877 H 0.21795 0.43088 0.82199 0.0
H878 H 0.21508 0.42777 0.78508 0.0
C879 C 0.20275 0.41377 0.66699 0.0
C880 C 0.17856 0.38027 0.71916 0.0
H881 H 0.16444 0.40866 0.76179 0.0
C882 C 0.1887 0.36244 0.72843 0.0
C883 C 0.1692 0.39671 0.73131 0.0
C884 C 0.15718 0.41541 0.72209 0.0
C885 C 0.19094 0.36161 0.74962 0.0
C886 C 0.18221 0.37862 0.76178 0.0
C887 C 0.17128 0.39577 0.75246 0.0
C888 C 0.18506 0.37979 0.78417 0.0
C889 C 0.20378 0.34355 0.75874 0.0
C890 C 0.16923 0.3538 0.79594 0.0
C891 C 0.17113 0.35544 0.81709 0.0
C892 C 0.18868 0.38316 0.82689 0.0
C893 C 0.20464 0.40909 0.81499 0.0
C894 C 0.20281 0.40741 0.79388 0.0
H895 H 0.21616 0.33799 0.74735 0.0
H896 H 0.21921 0.35586 0.77145 0.0
H897 H 0.18519 0.32219 0.76476 0.0
H898 H 0.15499 0.33232 0.78879 0.0
H899 H 0.15874 0.33498 0.82575 0.0
H900 H 0.76174 0.19616 0.33009 0.0
H901 H 0.76121 0.19139 0.2933 0.0
H902 H 0.83834 0.17941 0.29636 0.0
H903 H 0.8393 0.18455 0.33332 0.0
H904 H 0.80776 0.22805 0.26661 0.0
H905 H 0.77829 0.10874 0.26078 0.0
H906 H 0.77315 0.12466 0.28378 0.0
H907 H 0.80987 0.13171 0.27677 0.0
C908 C 0.77877 0.19274 0.32297 0.0
C909 C 0.80073 0.19096 0.33465 0.0
C910 C 0.77827 0.18978 0.30195 0.0
C911 C 0.7995 0.18471 0.29216 0.0
C912 C 0.82139 0.18275 0.3037 0.0
H913 H 0.84407 0.18005 0.16667 0.0
H914 H 0.83963 0.17646 0.20361 0.0
C915 C 0.82194 0.18574 0.32479 0.0
C916 C 0.79942 0.18291 0.26978 0.0
H917 H 0.79117 0.13668 0.23018 0.0
C918 C 0.80397 0.20803 0.25863 0.0
C919 C 0.79452 0.15676 0.25948 0.0
C920 C 0.78842 0.1288 0.27076 0.0
C921 C 0.80424 0.2079 0.2374 0.0
C922 C 0.7993 0.18175 0.22707 0.0
C923 C 0.79478 0.15661 0.2382 0.0
C924 C 0.79985 0.18065 0.2047 0.0
C925 C 0.81053 0.23599 0.22617 0.0
C926 C 0.77835 0.1832 0.1931 0.0
C927 C 0.78087 0.18533 0.172 0.0
C928 C 0.80496 0.18499 0.16221 0.0
C929 C 0.82555 0.18087 0.17384 0.0
C930 C 0.82296 0.17865 0.1949 0.0
H931 H 0.82012 0.25592 0.23627 0.0
H932 H 0.82637 0.24047 0.21345 0.0
H933 H 0.78927 0.23298 0.21973 0.0
H934 H 0.76012 0.18438 0.20043 0.0
H935 H 0.76473 0.18857 0.16345 0.0
H936 H 0.67237 0.85872 0.83381 0.0
H937 H 0.67803 0.85994 0.79682 0.0
H938 H 0.59185 0.77941 0.79173 0.0
H939 H 0.58632 0.77761 0.82847 0.0
H940 H 0.63935 0.77894 0.76925 0.0
H941 H 0.63051 0.88086 0.75504 0.0
H942 H 0.65761 0.88409 0.77359 0.0
H943 H 0.61832 0.8601 0.77848 0.0
C944 C 0.65464 0.84132 0.82478 0.0
C945 C 0.62874 0.81827 0.83407 0.0
C946 C 0.65783 0.84214 0.80368 0.0
C947 C 0.63523 0.81989 0.79157 0.0
C948 C 0.60948 0.79685 0.80081 0.0
H949 H 0.58534 0.80475 0.66753 0.0
H950 H 0.59064 0.80772 0.70429 0.0
C951 C 0.60623 0.79606 0.82181 0.0
C952 C 0.63817 0.82014 0.76925 0.0
H953 H 0.63688 0.85699 0.72662 0.0
C954 C 0.63914 0.79614 0.75989 0.0
C955 C 0.63765 0.84253 0.75716 0.0
C956 C 0.63577 0.86831 0.76647 0.0
C957 C 0.639 0.79361 0.73871 0.0
C958 C 0.63809 0.8158 0.72663 0.0
C959 C 0.63774 0.84012 0.73598 0.0
C960 C 0.63509 0.81301 0.70431 0.0
C961 C 0.6386 0.76666 0.72939 0.0
C962 C 0.65833 0.81485 0.69212 0.0
C963 C 0.65528 0.81292 0.671 0.0
C964 C 0.6289 0.80905 0.66176 0.0
C965 C 0.60567 0.80704 0.67412 0.0
C966 C 0.60877 0.80906 0.69514 0.0
H967 H 0.63441 0.74917 0.74083 0.0
H968 H 0.62106 0.75665 0.71747 0.0
H969 H 0.66061 0.77375 0.72214 0.0
H970 H 0.67895 0.81822 0.69893 0.0
H971 H 0.67357 0.81457 0.6619 0.0
H972 H 0.78978 0.56982 0.1726 0.0
H973 H 0.79277 0.57359 0.2095 0.0
H974 H 0.83757 0.66996 0.20529 0.0
H975 H 0.83486 0.66644 0.16827 0.0
H976 H 0.84286 0.603 0.23493 0.0
H977 H 0.76653 0.64972 0.24309 0.0
H978 H 0.76953 0.63293 0.21985 0.0
H979 H 0.79804 0.6703 0.22653 0.0
C980 C 0.80064 0.59186 0.17948 0.0
C981 C 0.81202 0.61783 0.16745 0.0
C982 C 0.80215 0.59396 0.20059 0.0
C983 C 0.81493 0.62201 0.21014 0.0
C984 C 0.82699 0.64805 0.19823 0.0
H985 H 0.83513 0.66861 0.33882 0.0
H986 H 0.83646 0.67058 0.30171 0.0
C987 C 0.82546 0.64599 0.17708 0.0
C988 C 0.81561 0.62379 0.23257 0.0
H989 H 0.78878 0.64466 0.27305 0.0
C990 C 0.83107 0.61214 0.24327 0.0
C991 C 0.80026 0.63581 0.2434 0.0
C992 C 0.78242 0.6477 0.2327 0.0
C993 C 0.83161 0.61215 0.26453 0.0
C994 C 0.81581 0.62365 0.27536 0.0
C995 C 0.80081 0.63582 0.26468 0.0
C996 C 0.81401 0.62247 0.29778 0.0
C997 C 0.84931 0.60008 0.27522 0.0
C998 C 0.80029 0.59476 0.30781 0.0
C999 C 0.79958 0.59355 0.32895 0.0
C1000 C 0.81245 0.62006 0.34052 0.0
C1001 C 0.82538 0.6478 0.33038 0.0
C1002 C 0.82604 0.64897 0.30919 0.0
H1003 H 0.86636 0.59968 0.26508 0.0
H1004 H 0.86083 0.6137 0.28881 0.0
H1005 H 0.83377 0.57675 0.28022 0.0
H1006 H 0.7904 0.57403 0.29927 0.0
H1007 H 0.78971 0.57182 0.33622 0.0
H1008 H 0.16255 0.74983 0.84214 0.0
H1009 H 0.16185 0.7517 0.80506 0.0
H1010 H 0.20135 0.84775 0.80736 0.0
H1011 H 0.20286 0.84631 0.84425 0.0
H1012 H 0.15122 0.81701 0.77962 0.0
H1013 H 0.23969 0.78596 0.76974 0.0
H1014 H 0.20842 0.76138 0.78548 0.0
H1015 H 0.23335 0.79918 0.79355 0.0
C1016 C 0.17112 0.77137 0.83477 0.0
C1017 C 0.18276 0.7979 0.84626 0.0
C1018 C 0.17067 0.77237 0.81359 0.0
C1019 C 0.18185 0.7999 0.80351 0.0
C1020 C 0.1926 0.82628 0.81488 0.0
H1021 H 0.23473 0.84359 0.67745 0.0
H1022 H 0.23256 0.84232 0.71453 0.0
C1023 C 0.1932 0.82534 0.83601 0.0
C1024 C 0.183 0.80144 0.7811 0.0
H1025 H 0.21701 0.79096 0.73997 0.0
C1026 C 0.16554 0.81128 0.77092 0.0
C1027 C 0.20208 0.79438 0.76987 0.0
C1028 C 0.22218 0.78485 0.78015 0.0
C1029 C 0.16632 0.81381 0.74971 0.0
C1030 C 0.18491 0.80613 0.73846 0.0
C1031 C 0.20269 0.7967 0.74866 0.0
C1032 C 0.18598 0.8074 0.71604 0.0
C1033 C 0.14757 0.82505 0.73951 0.0
C1034 C 0.16059 0.78802 0.70465 0.0
C1035 C 0.16181 0.78847 0.68351 0.0
C1036 C 0.18849 0.80835 0.67328 0.0
C1037 C 0.21391 0.82781 0.68479 0.0
C1038 C 0.21268 0.82724 0.70597 0.0
H1039 H 0.14 0.8364 0.75038 0.0
H1040 H 0.16035 0.84093 0.72712 0.0
H1041 H 0.12736 0.80579 0.73278 0.0
H1042 H 0.13994 0.77213 0.71214 0.0
H1043 H 0.14199 0.77267 0.6752 0.0
H1044 H 0.29145 0.88187 0.98047 0.0
H1045 H 0.31669 0.9317 0.99626 0.0
H1046 H 0.26404 0.95771 0.95953 0.0
H1047 H 0.23997 0.90874 0.94316 0.0
H1048 H 0.3193 0.00165 0.96077 0.0
H1049 H 0.28361 0.96123 0.03924 0.0
H1050 H 0.30532 0.94654 0.02798 0.0
H1051 H 0.26914 0.93669 0.01762 0.0
C1052 C 0.28531 0.89827 0.97583 0.0
C1053 C 0.26367 0.89138 0.96066 0.0
C1054 C 0.29959 0.92668 0.98493 0.0
C1055 C 0.29189 0.94839 0.97939 0.0
C1056 C 0.27042 0.94145 0.96411 0.0
H1057 H 0.32276 0.09942 0.05337 0.0
H1058 H 0.30183 0.05323 0.03355 0.0
C1059 C 0.25659 0.91337 0.95479 0.0
C1060 C 0.30598 0.97836 0.98933 0.0
H1061 H 0.31779 0.01305 0.03524 0.0
C1062 C 0.31891 0.00414 0.97707 0.0
C1063 C 0.30514 0.98169 0.01057 0.0
C1064 C 0.28979 0.95508 0.02461 0.0
C1065 C 0.33075 0.03301 0.98538 0.0
C1066 C 0.33065 0.03636 0.00666 0.0
C1067 C 0.318 0.01059 0.01892 0.0
C1068 C 0.34264 0.06611 0.0167 0.0
C1069 C 0.34223 0.05944 0.97118 0.0
C1070 C 0.37235 0.08926 0.01348 0.0
C1071 C 0.38408 0.11611 0.02445 0.0
C1072 C 0.36656 0.11988 0.0392 0.0
C1073 C 0.33671 0.09709 0.04204 0.0
C1074 C 0.32481 0.07061 0.0308 0.0
H1075 H 0.33227 0.05251 0.95583 0.0
H1076 H 0.33719 0.07669 0.97699 0.0
H1077 H 0.36692 0.06978 0.96963 0.0
H1078 H 0.38688 0.08616 0.00311 0.0
H1079 H 0.40736 0.13312 0.02227 0.0
H1080 H 0.2453 0.34291 0.55113 0.0
H1081 H 0.27354 0.32391 0.53279 0.0
H1082 H 0.32122 0.40756 0.50026 0.0
H1083 H 0.29179 0.42614 0.51796 0.0
H1084 H 0.30666 0.36335 0.47537 0.0
H1085 H 0.35703 0.34219 0.54261 0.0
H1086 H 0.31695 0.32206 0.54459 0.0
H1087 H 0.33693 0.36249 0.54416 0.0
C1088 C 0.26189 0.3573 0.54012 0.0
C1089 C 0.26653 0.38607 0.53605 0.0
C1090 C 0.27822 0.34651 0.52976 0.0
C1091 C 0.30017 0.36459 0.51555 0.0
C1092 C 0.3046 0.39328 0.51129 0.0
H1093 H 0.41966 0.30109 0.47228 0.0
H1094 H 0.40071 0.33159 0.48783 0.0
C1095 C 0.2878 0.40388 0.52139 0.0
C1096 C 0.31763 0.35302 0.50468 0.0
H1097 H 0.3569 0.31652 0.51208 0.0
C1098 C 0.318 0.35348 0.48341 0.0
C1099 C 0.33313 0.3408 0.5151 0.0
C1100 C 0.33629 0.34218 0.53787 0.0
C1101 C 0.33231 0.34092 0.4723 0.0
C1102 C 0.3456 0.32644 0.48273 0.0
C1103 C 0.34632 0.32714 0.504 0.0
C1104 C 0.35807 0.30963 0.47204 0.0
C1105 C 0.33322 0.34366 0.44951 0.0
C1106 C 0.34052 0.28713 0.45797 0.0
C1107 C 0.3516 0.27019 0.44876 0.0
C1108 C 0.38008 0.27478 0.4539 0.0
C1109 C 0.3976 0.2971 0.46806 0.0
C1110 C 0.38678 0.31451 0.47695 0.0
H1111 H 0.33255 0.36399 0.44468 0.0
H1112 H 0.35371 0.34475 0.44311 0.0
H1113 H 0.31322 0.32393 0.44299 0.0
H1114 H 0.31792 0.28211 0.45444 0.0
H1115 H 0.33744 0.25282 0.4381 0.0
H1116 H 0.88085 0.25442 0.01169 0.0
H1117 H 0.92906 0.27595 0.9936 0.0
H1118 H 0.97103 0.26553 0.04714 0.0
H1119 H 0.92338 0.24379 0.06504 0.0
H1120 H 0.98366 0.32707 0.00323 0.0
H1121 H 0.99595 0.22613 0.0038 0.0
H1122 H 0.96083 0.22459 0.00934 0.0
H1123 H 0.98939 0.23622 0.02852 0.0
C1124 C 0.90032 0.25647 0.01948 0.0
C1125 C 0.89822 0.24721 0.03974 0.0
C1126 C 0.92783 0.26884 0.00918 0.0
C1127 C 0.95355 0.27191 0.01894 0.0
C1128 C 0.9514 0.26278 0.03915 0.0
H1129 H 0.14047 0.38883 0.98123 0.0
H1130 H 0.09339 0.36483 1.00066 0.0
C1131 C 0.92408 0.25045 0.04939 0.0
C1132 C 0.98295 0.28545 0.00837 0.0
H1133 H 0.03962 0.2723 0.99527 0.0
C1134 C 0.99586 0.31507 0.00137 0.0
C1135 C 0.99875 0.26969 0.00587 0.0
C1136 C 0.98542 0.2373 0.01209 0.0
C1137 C 0.02432 0.32951 0.99217 0.0
C1138 C 0.04055 0.31408 0.99029 0.0
C1139 C 0.02742 0.2843 0.99705 0.0
C1140 C 0.07013 0.32755 0.97993 0.0
C1141 C 0.03643 0.3609 0.98413 0.0
C1142 C 0.07318 0.31381 0.96247 0.0
C1143 C 0.1 0.3272 0.95157 0.0
C1144 C 0.12447 0.35464 0.95791 0.0
C1145 C 0.12202 0.36768 0.97599 0.0
C1146 C 0.09503 0.35418 0.98695 0.0
H1147 H 0.0185 0.3668 0.98249 0.0
H1148 H 0.05347 0.37709 0.99483 0.0
H1149 H 0.0474 0.36356 0.96919 0.0
H1150 H 0.05441 0.29317 0.95684 0.0
H1151 H 0.10117 0.31648 0.93775 0.0
H1152 H 0.61266 0.89075 0.52266 0.0
H1153 H 0.63729 0.94007 0.50628 0.0
H1154 H 0.69393 0.97844 0.55868 0.0
H1155 H 0.66977 0.92929 0.57502 0.0
H1156 H 0.6441 0.99589 0.51872 0.0
H1157 H 0.75379 0.99999 0.5117 0.0
H1158 H 0.71944 0.96595 0.5177 0.0
H1159 H 0.73881 0.99375 0.53695 0.0
C1160 C 0.63024 0.90974 0.53073 0.0
C1161 C 0.63946 0.90612 0.55004 0.0
C1162 C 0.64425 0.93787 0.52137 0.0
C1163 C 0.66773 0.96276 0.53116 0.0
C1164 C 0.67625 0.95939 0.55072 0.0
H1165 H 0.74714 0.14858 0.4884 0.0
H1166 H 0.72321 0.10343 0.50963 0.0
C1167 C 0.66232 0.93131 0.56006 0.0
C1168 C 0.68383 0.99206 0.52068 0.0
H1169 H 0.7523 0.04326 0.50164 0.0
C1170 C 0.66778 0.00635 0.51503 0.0
C1171 C 0.71465 0.00543 0.51574 0.0
C1172 C 0.7327 0.99044 0.52065 0.0
C1173 C 0.68175 0.03371 0.50451 0.0
C1174 C 0.71265 0.04724 0.49979 0.0
C1175 C 0.72869 0.03297 0.5055 0.0
C1176 C 0.72826 0.07507 0.48764 0.0
C1177 C 0.66315 0.04746 0.49799 0.0
C1178 C 0.73984 0.07426 0.46857 0.0
C1179 C 0.75362 0.09992 0.45653 0.0
C1180 C 0.75623 0.12698 0.46337 0.0
C1181 C 0.74539 0.12802 0.48272 0.0
C1182 C 0.73154 0.10223 0.49479 0.0
H1183 H 0.6387 0.0313 0.49914 0.0
H1184 H 0.66842 0.06692 0.50787 0.0
H1185 H 0.66846 0.05565 0.48213 0.0
H1186 H 0.73766 0.05355 0.46281 0.0
H1187 H 0.76179 0.09839 0.44171 0.0
H1188 H 0.76965 0.67516 0.05851 0.0
H1189 H 0.74611 0.69677 0.03758 0.0
H1190 H 0.72139 0.62632 0.99357 0.0
H1191 H 0.74446 0.60413 0.01468 0.0
H1192 H 0.75598 0.71772 0.99844 0.0
H1193 H 0.641 0.62019 0.00729 0.0
H1194 H 0.67222 0.62504 0.02256 0.0
H1195 H 0.66792 0.61121 0.99706 0.0
C1196 C 0.75942 0.66436 0.0443 0.0
C1197 C 0.75871 0.63781 0.0383 0.0
C1198 C 0.74597 0.67675 0.03236 0.0
C1199 C 0.7315 0.66283 0.01423 0.0
C1200 C 0.73186 0.63703 0.00775 0.0
H1201 H 0.67146 0.74594 0.92494 0.0
H1202 H 0.69617 0.72246 0.94259 0.0
C1203 C 0.74527 0.62454 0.01973 0.0
C1204 C 0.71562 0.67519 0.00244 0.0
H1205 H 0.64637 0.65901 0.98544 0.0
C1206 C 0.73203 0.70488 0.99554 0.0
C1207 C 0.68428 0.65852 0.999 0.0
C1208 C 0.6652 0.62707 0.00701 0.0
C1209 C 0.71799 0.71835 0.9852 0.0
C1210 C 0.68679 0.70145 0.98131 0.0
C1211 C 0.67033 0.67181 0.9883 0.0
C1212 C 0.67076 0.71435 0.97029 0.0
C1213 C 0.73657 0.75081 0.979 0.0
C1214 C 0.6475 0.71657 0.97976 0.0
C1215 C 0.6331 0.72975 0.96963 0.0
C1216 C 0.64173 0.74084 0.94986 0.0
C1217 C 0.66448 0.73784 0.94024 0.0
C1218 C 0.67875 0.72458 0.95033 0.0
H1219 H 0.75791 0.76258 0.98768 0.0
H1220 H 0.74231 0.75202 0.96269 0.0
H1221 H 0.72394 0.76287 0.98126 0.0
H1222 H 0.64088 0.70864 0.99513 0.0
H1223 H 0.61561 0.73171 0.97741 0.0
H1224 H 0.8839 0.61053 0.48596 0.0
H1225 H 0.93259 0.63707 0.50317 0.0
H1226 H 0.95389 0.7177 0.47028 0.0
H1227 H 0.90576 0.6911 0.45267 0.0
H1228 H 0.99883 0.70602 0.46797 0.0
H1229 H 0.96356 0.69792 0.54814 0.0
H1230 H 0.94781 0.66215 0.53581 0.0
H1231 H 0.93772 0.68917 0.52734 0.0
C1232 C 0.8987 0.6341 0.48277 0.0
C1233 C 0.891 0.64878 0.46804 0.0
C1234 C 0.92654 0.64927 0.49262 0.0
C1235 C 0.94688 0.6795 0.48815 0.0
C1236 C 0.93865 0.6944 0.47396 0.0
H1237 H 0.10589 0.79495 0.55794 0.0
H1238 H 0.05819 0.7721 0.53974 0.0
C1239 C 0.91106 0.6792 0.46398 0.0
C1240 C 0.97744 0.69524 0.49724 0.0
H1241 H 0.01523 0.715 0.54223 0.0
C1242 C 1.00241 0.70811 0.48422 0.0
C1243 C 0.98216 0.6982 0.51843 0.0
C1244 C 0.9564 0.68639 0.53325 0.0
C1245 C 0.0319 0.72374 0.49176 0.0
C1246 C 0.03663 0.72597 0.51295 0.0
C1247 C 0.01165 0.71316 0.52597 0.0
C1248 C 0.06715 0.74199 0.52209 0.0
C1249 C 0.0576 0.73832 0.47694 0.0
C1250 C 0.08852 0.73328 0.51788 0.0
C1251 C 0.11615 0.74675 0.52806 0.0
C1252 C 0.12257 0.76875 0.54288 0.0
C1253 C 0.10157 0.77807 0.54658 0.0
C1254 C 0.07422 0.76491 0.53626 0.0
H1255 H 0.05008 0.74203 0.46199 0.0
H1256 H 0.07567 0.76018 0.48275 0.0
H1257 H 0.06716 0.72342 0.47456 0.0
H1258 H 0.0834 0.71522 0.50735 0.0
H1259 H 0.13171 0.73878 0.52517 0.0
H1260 H 0.81782 0.09606 0.03654 0.0
H1261 H 0.79665 0.05752 0.01058 0.0
H1262 H 0.73678 0.08908 0.99213 0.0
H1263 H 0.75729 0.12737 0.01883 0.0
H1264 H 0.70763 0.02905 0.99754 0.0
H1265 H 0.80718 0.06036 0.95011 0.0
H1266 H 0.81551 0.05818 0.97619 0.0
H1267 H 0.80581 0.08581 0.96835 0.0
C1268 C 0.80014 0.09491 0.02704 0.0
C1269 C 0.7891 0.11473 0.02993 0.0
C1270 C 0.7884 0.07312 0.0119 0.0
C1271 C 0.76558 0.07079 0.99907 0.0
C1272 C 0.75468 0.09074 0.00168 0.0
H1273 H 0.65772 0.90461 0.92807 0.0
H1274 H 0.68128 0.95872 0.93496 0.0
C1275 C 0.76646 0.11264 0.0169 0.0
C1276 C 0.75143 0.04557 0.98443 0.0
H1277 H 0.76888 0.00729 0.94984 0.0
C1278 C 0.72078 0.02467 0.98665 0.0
C1279 C 0.76856 0.03996 0.97012 0.0
C1280 C 0.80102 0.06249 0.9659 0.0
C1281 C 0.70745 0.99716 0.97631 0.0
C1282 C 0.72524 0.99058 0.96326 0.0
C1283 C 0.75533 0.01235 0.95991 0.0
C1284 C 0.71431 0.95972 0.95575 0.0
C1285 C 0.67505 0.97441 0.98057 0.0
C1286 C 0.72604 0.94285 0.96438 0.0
C1287 C 0.71271 0.91223 0.96046 0.0
C1288 C 0.68758 0.89793 0.94772 0.0
C1289 C 0.67723 0.91522 0.93782 0.0
C1290 C 0.69048 0.94598 0.94188 0.0
H1291 H 0.66524 0.98198 0.99261 0.0
H1292 H 0.66162 0.97033 0.96656 0.0
H1293 H 0.673 0.95276 0.98527 0.0
H1294 H 0.74444 0.95304 0.97509 0.0
H1295 H 0.72112 0.89934 0.96817 0.0
H1296 H 0.73864 0.63014 0.48627 0.0
H1297 H 0.73064 0.66528 0.50643 0.0
H1298 H 0.81421 0.7385 0.48455 0.0
H1299 H 0.8222 0.70317 0.464 0.0
H1300 H 0.76743 0.71058 0.53685 0.0
H1301 H 0.74716 0.75713 0.46624 0.0
H1302 H 0.74691 0.72197 0.46652 0.0
H1303 H 0.78182 0.75665 0.468 0.0
C1304 C 0.7554 0.65371 0.48579 0.0
C1305 C 0.7808 0.66401 0.47327 0.0
C1306 C 0.75093 0.67371 0.49748 0.0
C1307 C 0.77165 0.70449 0.49682 0.0
C1308 C 0.79783 0.71481 0.48512 0.0
H1309 H 0.72945 0.84215 0.53159 0.0
H1310 H 0.75891 0.81835 0.52272 0.0
C1311 C 0.80244 0.69466 0.47348 0.0
C1312 C 0.76415 0.72558 0.50702 0.0
H1313 H 0.73897 0.77421 0.49703 0.0
C1314 C 0.7616 0.72487 0.52822 0.0
C1315 C 0.75646 0.74405 0.49569 0.0
C1316 C 0.75798 0.74503 0.47284 0.0
C1317 C 0.75117 0.74193 0.53839 0.0
C1318 C 0.74235 0.75953 0.52699 0.0
C1319 C 0.74579 0.76083 0.50582 0.0
C1320 C 0.72791 0.77555 0.53626 0.0
C1321 C 0.74974 0.7409 0.56121 0.0
C1322 C 0.70123 0.75987 0.54753 0.0
C1323 C 0.68471 0.77374 0.55295 0.0
C1324 C 0.6943 0.80325 0.54679 0.0
C1325 C 0.72173 0.81937 0.5365 0.0
C1326 C 0.73846 0.80575 0.5314 0.0
H1327 H 0.76649 0.73557 0.56767 0.0
H1328 H 0.75376 0.76251 0.56767 0.0
H1329 H 0.72716 0.72296 0.56603 0.0
H1330 H 0.69213 0.73636 0.55103 0.0
H1331 H 0.66335 0.76076 0.56056 0.0
H1332 H 0.89509 0.63062 0.02072 0.0
H1333 H 0.93746 0.66657 1.00029 0.0
H1334 H 0.92732 0.73876 0.02458 0.0
H1335 H 0.88453 0.70249 0.04523 0.0
H1336 H 0.94582 0.71585 0.9712 0.0
H1337 H 0.01292 0.75281 0.04252 0.0
H1338 H 0.97802 0.71771 0.04101 0.0
H1339 H 0.97771 0.75237 0.04159 0.0
C1340 C 0.90166 0.65412 0.02152 0.0
C1341 C 0.88693 0.66392 0.03477 0.0
C1342 C 0.92566 0.67457 0.00972 0.0
C1343 C 0.93559 0.70527 0.01104 0.0
C1344 C 0.91994 0.71509 0.02341 0.0
H1345 H 0.12123 0.83167 0.98059 0.0
H1346 H 0.06861 0.81432 0.98887 0.0
C1347 C 0.89557 0.69446 0.03513 0.0
C1348 C 0.96437 0.72669 0.00129 0.0
H1349 H 0.03888 0.76934 0.01203 0.0
C1350 C 0.96618 0.7281 0.98006 0.0
C1351 C 0.9908 0.74256 0.01292 0.0
C1352 C 0.99007 0.74137 0.03578 0.0
C1353 C 0.99399 0.74438 0.97014 0.0
C1354 C 0.02066 0.75879 0.98178 0.0
C1355 C 0.01854 0.75839 0.00303 0.0
C1356 C 0.05117 0.77227 0.97267 0.0
C1357 C 0.99441 0.74571 0.94731 0.0
C1358 C 0.05892 0.75509 0.96009 0.0
C1359 C 0.08895 0.76547 0.95494 0.0
C1360 C 0.11167 0.79278 0.9627 0.0
C1361 C 0.10388 0.81064 0.97436 0.0
C1362 C 0.07389 0.80064 0.97913 0.0
H1363 H 0.97349 0.74425 0.94137 0.0
H1364 H 0.01394 0.76667 0.94161 0.0
H1365 H 0.99567 0.7263 0.94119 0.0
H1366 H 0.04209 0.73279 0.95537 0.0
H1367 H 0.09468 0.75117 0.94627 0.0
H1368 H 0.27527 0.90712 0.53194 0.0
H1369 H 0.28299 0.94849 0.50992 0.0
H1370 H 0.19387 0.93139 0.52377 0.0
H1371 H 0.18599 0.88965 0.54603 0.0
H1372 H 0.24397 0.95053 0.475 0.0
H1373 H 0.25806 0.0208 0.54296 0.0
H1374 H 0.26266 0.9883 0.54437 0.0
H1375 H 0.22589 0.98363 0.54157 0.0
C1376 C 0.25725 0.91205 0.53025 0.0
C1377 C 0.23018 0.89548 0.54094 0.0
C1378 C 0.26159 0.9355 0.51751 0.0
C1379 C 0.23907 0.94303 0.51531 0.0
C1380 C 0.21152 0.92585 0.52531 0.0
H1381 H 0.28037 0.12005 0.47427 0.0
H1382 H 0.25048 0.06738 0.48436 0.0
C1383 C 0.20702 0.90207 0.53796 0.0
C1384 C 0.24585 0.97053 0.50399 0.0
H1385 H 0.26891 0.0444 0.51142 0.0
C1386 C 0.24898 0.97103 0.48285 0.0
C1387 C 0.25235 0.99711 0.51432 0.0
C1388 C 0.24975 0.99776 0.53707 0.0
C1389 C 0.259 0.9977 0.47177 0.0
C1390 C 0.26695 0.02469 0.48222 0.0
C1391 C 0.26279 0.0238 0.50332 0.0
C1392 C 0.28152 0.05454 0.47211 0.0
C1393 C 0.26095 0.99659 0.44902 0.0
C1394 C 0.30834 0.06474 0.46112 0.0
C1395 C 0.32502 0.09472 0.45494 0.0
C1396 C 0.3155 0.1151 0.46007 0.0
C1397 C 0.28798 0.1046 0.47009 0.0
C1398 C 0.27103 0.07459 0.47592 0.0
H1399 H 0.24426 0.97416 0.44307 0.0
H1400 H 0.25718 0.01378 0.4416 0.0
H1401 H 0.28358 1.00072 0.44476 0.0
H1402 H 0.31745 0.0501 0.45846 0.0
H1403 H 0.34648 0.1025 0.44758 0.0
H1404 H 0.24585 0.31209 0.92177 0.0
H1405 H 0.25844 0.2793 0.94106 0.0
H1406 H 0.21777 0.29261 0.99429 0.0
H1407 H 0.20431 0.32473 0.97464 0.0
H1408 H 0.29673 0.29901 0.97135 0.0
H1409 H 0.18983 0.2048 0.99979 0.0
H1410 H 0.19114 0.22933 0.97978 0.0
H1411 H 0.19422 0.24073 0.00586 0.0
C1412 C 0.23881 0.3072 0.93744 0.0
C1413 C 0.22405 0.3208 0.94673 0.0
C1414 C 0.24608 0.28856 0.94848 0.0
C1415 C 0.23902 0.28328 0.96917 0.0
C1416 C 0.22291 0.29569 0.97827 0.0
H1417 H 0.30845 0.23084 0.06957 0.0
H1418 H 0.27972 0.24404 0.04647 0.0
C1419 C 0.21523 0.31408 0.96707 0.0
C1420 C 0.25186 0.26808 0.98151 0.0
H1421 H 0.23486 0.21214 0.01593 0.0
C1422 C 0.28307 0.27972 0.98085 0.0
C1423 C 0.23417 0.24302 0.99406 0.0
C1424 C 0.20045 0.22854 0.9948 0.0
C1425 C 0.29714 0.26764 0.99269 0.0
C1426 C 0.27955 0.24289 0.00545 0.0
C1427 C 0.2483 0.23098 0.00603 0.0
C1428 C 0.29369 0.23077 0.01937 0.0
C1429 C 0.33092 0.28222 0.99202 0.0
C1430 C 0.3103 0.21789 0.01189 0.0
C1431 C 0.32688 0.21036 0.02512 0.0
C1432 C 0.3272 0.2157 0.04603 0.0
C1433 C 0.30909 0.22694 0.05351 0.0
C1434 C 0.29248 0.23431 0.04034 0.0
H1435 H 0.34153 0.30446 0.98446 0.0
H1436 H 0.34029 0.28514 0.00755 0.0
H1437 H 0.3372 0.26762 0.98345 0.0
H1438 H 0.31124 0.2146 0.99576 0.0
H1439 H 0.34061 0.2018 0.01889 0.0
H1440 H 0.11372 0.30812 0.50954 0.0
H1441 H 0.05986 0.27523 0.50536 0.0
H1442 H 0.04458 0.30134 0.5643 0.0
H1443 H 0.0989 0.33539 0.56821 0.0
H1444 H 0.01384 0.22801 0.52551 0.0
H1445 H 0.9998 0.32867 0.52727 0.0
H1446 H 0.03635 0.33194 0.52633 0.0
H1447 H 0.01516 0.32117 0.54948 0.0
C1448 C 0.09892 0.30661 0.52171 0.0
C1449 C 0.11043 0.32475 0.539 0.0
C1450 C 0.06813 0.28764 0.51938 0.0
C1451 C 0.04809 0.2863 0.53431 0.0
C1452 C 0.05961 0.30251 0.55239 0.0
H1453 H 0.86272 0.22089 0.49184 0.0
H1454 H 0.90155 0.23119 0.51745 0.0
C1455 C 0.09063 0.32169 0.55472 0.0
C1456 C 0.01552 0.27035 0.52953 0.0
H1457 H 0.95985 0.28421 0.51495 0.0
C1458 C 1.00174 0.2401 0.52368 0.0
C1459 C 0.99963 0.28609 0.52718 0.0
C1460 C 0.0134 0.31879 0.53276 0.0
C1461 C 0.97352 0.22588 0.51419 0.0
C1462 C 0.95881 0.24236 0.51042 0.0
C1463 C 0.97129 0.2717 0.51786 0.0
C1464 C 0.93352 0.2317 0.49592 0.0
C1465 C 0.96033 0.19379 0.50737 0.0
C1466 C 0.93864 0.22846 0.47544 0.0
C1467 C 0.91681 0.22303 0.46091 0.0
C1468 C 0.88934 0.22053 0.46655 0.0
C1469 C 0.88363 0.22245 0.48717 0.0
C1470 C 0.90575 0.22837 0.50174 0.0
H1471 H 0.9688 0.18164 0.51672 0.0
H1472 H 0.93543 0.18173 0.50816 0.0
H1473 H 0.96697 0.19343 0.49142 0.0
H1474 H 0.9601 0.23151 0.47056 0.0
H1475 H 0.92166 0.22149 0.44513 0.0
loop_
_geom_bond_atom_site_label_1
_geom_bond_atom_site_label_2
_geom_bond_distance
_geom_bond_site_symmetry_2
_ccdc_geom_bond_type
Co0 N4 2.148 . S
Co0 N10 2.128 . S
Co0 N20 2.194 . S
Co0 O25 2.351 . S
Co0 O26 2.155 . S
Co0 O27 2.096 . S
C1 N4 1.301 . S
C1 N5 1.328 . S
C1 H6 0.930 . S
C2 C3 1.333 . S
C2 N4 1.317 . S
C2 H7 0.930 . S
C3 C2 1.333 . S
C3 N5 1.350 . S
C3 H29 0.931 . S
N4 Co0 2.148 . S
N4 C1 1.301 . S
N4 C2 1.317 . S
N5 C1 1.328 . S
N5 C3 1.350 . S
H6 C1 0.930 . S
H7 C2 0.930 . S
C8 O9 1.224 . S
C8 O27 1.247 . S
O9 C8 1.224 . S
N10 Co0 2.128 . S
N10 C11 1.355 . S
N10 C13 1.311 . S
C11 N10 1.355 . S
C11 C12 1.363 . S
C11 H23 0.929 . S
C12 C11 1.363 . S
C12 N14 1.375 . S
C12 H30 0.931 . S
C13 N10 1.311 . S
C13 N14 1.347 . S
C13 H24 0.929 . S
N14 C12 1.375 . S
N14 C13 1.347 . S
C15 C18 1.365 . S
C15 N20 1.328 . S
C15 H21 0.929 . S
C16 C17 1.362 . S
C16 C19 1.378 . S
C16 H31 0.929 . S
C17 C16 1.362 . S
C17 C18 1.366 . S
C18 C15 1.365 . S
C18 C17 1.366 . S
C18 H32 0.930 . S
C19 C16 1.378 . S
C19 N20 1.315 . S
C19 H22 0.930 . S
N20 Co0 2.194 . S
N20 C15 1.328 . S
N20 C19 1.315 . S
H21 C15 0.929 . S
H22 C19 0.930 . S
H23 C11 0.929 . S
H24 C13 0.929 . S
O25 Co0 2.351 . S
O25 C28 1.244 . S
O26 Co0 2.155 . S
O26 C28 1.240 . S
O27 Co0 2.096 . S
O27 C8 1.247 . S
C28 O25 1.244 . S
C28 O26 1.240 . S
H29 C3 0.931 . S
H30 C12 0.931 . S
H31 C16 0.929 . S
H32 C18 0.930 . S
Co33 N37 2.148 . S
Co33 N43 2.128 . S
Co33 N53 2.194 . S
Co33 O58 2.351 . S
Co33 O59 2.155 . S
Co33 O60 2.096 . S
C34 N37 1.301 . S
C34 N38 1.328 . S
C34 H39 0.930 . S
C35 C36 1.333 . S
C35 N37 1.317 . S
C35 H40 0.930 . S
C36 C35 1.333 . S
C36 N38 1.350 . S
C36 H62 0.931 . S
N37 Co33 2.148 . S
N37 C34 1.301 . S
N37 C35 1.317 . S
N38 C34 1.328 . S
N38 C36 1.350 . S
H39 C34 0.930 . S
H40 C35 0.930 . S
C41 O42 1.224 . S
C41 O60 1.247 . S
O42 C41 1.224 . S
N43 Co33 2.128 . S
N43 C44 1.355 . S
N43 C46 1.311 . S
C44 N43 1.355 . S
C44 C45 1.363 . S
C44 H56 0.929 . S
C45 C44 1.363 . S
C45 N47 1.375 . S
C45 H63 0.931 . S
C46 N43 1.311 . S
C46 N47 1.347 . S
C46 H57 0.929 . S
N47 C45 1.375 . S
N47 C46 1.347 . S
C48 C51 1.365 . S
C48 N53 1.328 . S
C48 H54 0.929 . S
C49 C50 1.362 . S
C49 C52 1.378 . S
C49 H64 0.929 . S
C50 C49 1.362 . S
C50 C51 1.366 . S
C51 C48 1.365 . S
C51 C50 1.366 . S
C51 H65 0.930 . S
C52 C49 1.378 . S
C52 N53 1.315 . S
C52 H55 0.930 . S
N53 Co33 2.194 . S
N53 C48 1.328 . S
N53 C52 1.315 . S
H54 C48 0.929 . S
H55 C52 0.930 . S
H56 C44 0.929 . S
H57 C46 0.929 . S
O58 Co33 2.351 . S
O58 C61 1.244 . S
O59 Co33 2.155 . S
O59 C61 1.240 . S
O60 Co33 2.096 . S
O60 C41 1.247 . S
C61 O58 1.244 . S
C61 O59 1.240 . S
H62 C36 0.931 . S
H63 C45 0.931 . S
H64 C49 0.929 . S
H65 C51 0.930 . S
Co66 N70 2.148 . S
Co66 N76 2.128 . S
Co66 N86 2.194 . S
Co66 O91 2.351 . S
Co66 O92 2.155 . S
Co66 O93 2.096 . S
C67 N70 1.301 . S
C67 N71 1.328 . S
C67 H72 0.930 . S
C68 C69 1.333 . S
C68 N70 1.317 . S
C68 H73 0.930 . S
C69 C68 1.333 . S
C69 N71 1.350 . S
C69 H95 0.931 . S
N70 Co66 2.148 . S
N70 C67 1.301 . S
N70 C68 1.317 . S
N71 C67 1.328 . S
N71 C69 1.350 . S
H72 C67 0.930 . S
H73 C68 0.930 . S
C74 O75 1.224 . S
C74 O93 1.247 . S
O75 C74 1.224 . S
N76 Co66 2.128 . S
N76 C77 1.355 . S
N76 C79 1.311 . S
C77 N76 1.355 . S
C77 C78 1.363 . S
C77 H89 0.929 . S
C78 C77 1.363 . S
C78 N80 1.375 . S
C78 H96 0.931 . S
C79 N76 1.311 . S
C79 N80 1.347 . S
C79 H90 0.929 . S
N80 C78 1.375 . S
N80 C79 1.347 . S
C81 C84 1.365 . S
C81 N86 1.328 . S
C81 H87 0.929 . S
C82 C83 1.362 . S
C82 C85 1.378 . S
C82 H97 0.929 . S
C83 C82 1.362 . S
C83 C84 1.366 . S
C84 C81 1.365 . S
C84 C83 1.366 . S
C84 H98 0.930 . S
C85 C82 1.378 . S
C85 N86 1.315 . S
C85 H88 0.930 . S
N86 Co66 2.194 . S
N86 C81 1.328 . S
N86 C85 1.315 . S
H87 C81 0.929 . S
H88 C85 0.930 . S
H89 C77 0.929 . S
H90 C79 0.929 . S
O91 Co66 2.351 . S
O91 C94 1.244 . S
O92 Co66 2.155 . S
O92 C94 1.240 . S
O93 Co66 2.096 . S
O93 C74 1.247 . S
C94 O91 1.244 . S
C94 O92 1.240 . S
H95 C69 0.931 . S
H96 C78 0.931 . S
H97 C82 0.929 . S
H98 C84 0.930 . S
Co99 N103 2.148 . S
Co99 N109 2.128 . S
Co99 N119 2.194 . S
Co99 O124 2.351 . S
Co99 O125 2.155 . S
Co99 O126 2.096 . S
C100 N103 1.301 . S
C100 N104 1.328 . S
C100 H105 0.930 . S
C101 C102 1.333 . S
C101 N103 1.317 . S
C101 H106 0.930 . S
C102 C101 1.333 . S
C102 N104 1.350 . S
C102 H128 0.931 . S
N103 Co99 2.148 . S
N103 C100 1.301 . S
N103 C101 1.317 . S
N104 C100 1.328 . S
N104 C102 1.350 . S
H105 C100 0.930 . S
H106 C101 0.930 . S
C107 O108 1.224 . S
C107 O126 1.247 . S
O108 C107 1.224 . S
N109 Co99 2.128 . S
N109 C110 1.355 . S
N109 C112 1.311 . S
C110 N109 1.355 . S
C110 C111 1.363 . S
C110 H122 0.929 . S
C111 C110 1.363 . S
C111 N113 1.375 . S
C111 H129 0.931 . S
C112 N109 1.311 . S
C112 N113 1.347 . S
C112 H123 0.929 . S
N113 C111 1.375 . S
N113 C112 1.347 . S
C114 C117 1.365 . S
C114 N119 1.328 . S
C114 H120 0.929 . S
C115 C116 1.362 . S
C115 C118 1.378 . S
C115 H130 0.929 . S
C116 C115 1.362 . S
C116 C117 1.366 . S
C117 C114 1.365 . S
C117 C116 1.366 . S
C117 H131 0.930 . S
C118 C115 1.378 . S
C118 N119 1.315 . S
C118 H121 0.930 . S
N119 Co99 2.194 . S
N119 C114 1.328 . S
N119 C118 1.315 . S
H120 C114 0.929 . S
H121 C118 0.930 . S
H122 C110 0.929 . S
H123 C112 0.929 . S
O124 Co99 2.351 . S
O124 C127 1.244 . S
O125 Co99 2.155 . S
O125 C127 1.240 . S
O126 Co99 2.096 . S
O126 C107 1.247 . S
C127 O124 1.244 . S
C127 O125 1.240 . S
H128 C102 0.931 . S
H129 C111 0.931 . S
H130 C115 0.929 . S
H131 C117 0.930 . S
Co132 N136 2.148 . S
Co132 N142 2.128 . S
Co132 N152 2.194 . S
Co132 O157 2.351 . S
Co132 O158 2.155 . S
Co132 O159 2.096 . S
C133 N136 1.301 . S
C133 N137 1.328 . S
C133 H138 0.930 . S
C134 C135 1.333 . S
C134 N136 1.317 . S
C134 H139 0.930 . S
C135 C134 1.333 . S
C135 N137 1.350 . S
C135 H161 0.931 . S
N136 Co132 2.148 . S
N136 C133 1.301 . S
N136 C134 1.317 . S
N137 C133 1.328 . S
N137 C135 1.350 . S
H138 C133 0.930 . S
H139 C134 0.930 . S
C140 O141 1.224 . S
C140 O159 1.247 . S
O141 C140 1.224 . S
N142 Co132 2.128 . S
N142 C143 1.355 . S
N142 C145 1.311 . S
C143 N142 1.355 . S
C143 C144 1.363 . S
C143 H155 0.929 . S
C144 C143 1.363 . S
C144 N146 1.375 . S
C144 H162 0.931 . S
C145 N142 1.311 . S
C145 N146 1.347 . S
C145 H156 0.929 . S
N146 C144 1.375 . S
N146 C145 1.347 . S
C147 C150 1.365 . S
C147 N152 1.328 . S
C147 H153 0.929 . S
C148 C149 1.362 . S
C148 C151 1.378 . S
C148 H163 0.929 . S
C149 C148 1.362 . S
C149 C150 1.366 . S
C150 C147 1.365 . S
C150 C149 1.366 . S
C150 H164 0.930 . S
C151 C148 1.378 . S
C151 N152 1.315 . S
C151 H154 0.930 . S
N152 Co132 2.194 . S
N152 C147 1.328 . S
N152 C151 1.315 . S
H153 C147 0.929 . S
H154 C151 0.930 . S
H155 C143 0.929 . S
H156 C145 0.929 . S
O157 Co132 2.351 . S
O157 C160 1.244 . S
O158 Co132 2.155 . S
O158 C160 1.240 . S
O159 Co132 2.096 . S
O159 C140 1.247 . S
C160 O157 1.244 . S
C160 O158 1.240 . S
H161 C135 0.931 . S
H162 C144 0.931 . S
H163 C148 0.929 . S
H164 C150 0.930 . S
Co165 N169 2.148 . S
Co165 N175 2.128 . S
Co165 N185 2.194 . S
Co165 O190 2.351 . S
Co165 O191 2.155 . S
Co165 O192 2.096 . S
C166 N169 1.301 . S
C166 N170 1.328 . S
C166 H171 0.930 . S
C167 C168 1.333 . S
C167 N169 1.317 . S
C167 H172 0.930 . S
C168 C167 1.333 . S
C168 N170 1.350 . S
C168 H194 0.931 . S
N169 Co165 2.148 . S
N169 C166 1.301 . S
N169 C167 1.317 . S
N170 C166 1.328 . S
N170 C168 1.350 . S
H171 C166 0.930 . S
H172 C167 0.930 . S
C173 O174 1.224 . S
C173 O192 1.247 . S
O174 C173 1.224 . S
N175 Co165 2.128 . S
N175 C176 1.355 . S
N175 C178 1.311 . S
C176 N175 1.355 . S
C176 C177 1.363 . S
C176 H188 0.929 . S
C177 C176 1.363 . S
C177 N179 1.375 . S
C177 H195 0.931 . S
C178 N175 1.311 . S
C178 N179 1.347 . S
C178 H189 0.929 . S
N179 C177 1.375 . S
N179 C178 1.347 . S
C180 C183 1.365 . S
C180 N185 1.328 . S
C180 H186 0.929 . S
C181 C182 1.362 . S
C181 C184 1.378 . S
C181 H196 0.929 . S
C182 C181 1.362 . S
C182 C183 1.366 . S
C183 C180 1.365 . S
C183 C182 1.366 . S
C183 H197 0.930 . S
C184 C181 1.378 . S
C184 N185 1.315 . S
C184 H187 0.930 . S
N185 Co165 2.194 . S
N185 C180 1.328 . S
N185 C184 1.315 . S
H186 C180 0.929 . S
H187 C184 0.930 . S
H188 C176 0.929 . S
H189 C178 0.929 . S
O190 Co165 2.351 . S
O190 C193 1.244 . S
O191 Co165 2.155 . S
O191 C193 1.240 . S
O192 Co165 2.096 . S
O192 C173 1.247 . S
C193 O190 1.244 . S
C193 O191 1.240 . S
H194 C168 0.931 . S
H195 C177 0.931 . S
H196 C181 0.929 . S
H197 C183 0.930 . S
Co198 N202 2.148 . S
Co198 N208 2.128 . S
Co198 N218 2.194 . S
Co198 O223 2.351 . S
Co198 O224 2.155 . S
Co198 O225 2.096 . S
C199 N202 1.301 . S
C199 N203 1.328 . S
C199 H204 0.930 . S
C200 C201 1.333 . S
C200 N202 1.317 . S
C200 H205 0.930 . S
C201 C200 1.333 . S
C201 N203 1.350 . S
C201 H227 0.931 . S
N202 Co198 2.148 . S
N202 C199 1.301 . S
N202 C200 1.317 . S
N203 C199 1.328 . S
N203 C201 1.350 . S
H204 C199 0.930 . S
H205 C200 0.930 . S
C206 O207 1.224 . S
C206 O225 1.247 . S
O207 C206 1.224 . S
N208 Co198 2.128 . S
N208 C209 1.355 . S
N208 C211 1.311 . S
C209 N208 1.355 . S
C209 C210 1.363 . S
C209 H221 0.929 . S
C210 C209 1.363 . S
C210 N212 1.375 . S
C210 H228 0.931 . S
C211 N208 1.311 . S
C211 N212 1.347 . S
C211 H222 0.929 . S
N212 C210 1.375 . S
N212 C211 1.347 . S
C213 C216 1.365 . S
C213 N218 1.328 . S
C213 H219 0.929 . S
C214 C215 1.362 . S
C214 C217 1.378 . S
C214 H229 0.929 . S
C215 C214 1.362 . S
C215 C216 1.366 . S
C216 C213 1.365 . S
C216 C215 1.366 . S
C216 H230 0.930 . S
C217 C214 1.378 . S
C217 N218 1.315 . S
C217 H220 0.930 . S
N218 Co198 2.194 . S
N218 C213 1.328 . S
N218 C217 1.315 . S
H219 C213 0.929 . S
H220 C217 0.930 . S
H221 C209 0.929 . S
H222 C211 0.929 . S
O223 Co198 2.351 . S
O223 C226 1.244 . S
O224 Co198 2.155 . S
O224 C226 1.240 . S
O225 Co198 2.096 . S
O225 C206 1.247 . S
C226 O223 1.244 . S
C226 O224 1.240 . S
H227 C201 0.931 . S
H228 C210 0.931 . S
H229 C214 0.929 . S
H230 C216 0.930 . S
Co231 N235 2.148 . S
Co231 N241 2.128 . S
Co231 N251 2.194 . S
Co231 O256 2.351 . S
Co231 O257 2.155 . S
Co231 O258 2.096 . S
C232 N235 1.301 . S
C232 N236 1.328 . S
C232 H237 0.930 . S
C233 C234 1.333 . S
C233 N235 1.317 . S
C233 H238 0.930 . S
C234 C233 1.333 . S
C234 N236 1.350 . S
C234 H260 0.931 . S
N235 Co231 2.148 . S
N235 C232 1.301 . S
N235 C233 1.317 . S
N236 C232 1.328 . S
N236 C234 1.350 . S
H237 C232 0.930 . S
H238 C233 0.930 . S
C239 O240 1.224 . S
C239 O258 1.247 . S
O240 C239 1.224 . S
N241 Co231 2.128 . S
N241 C242 1.355 . S
N241 C244 1.311 . S
C242 N241 1.355 . S
C242 C243 1.363 . S
C242 H254 0.929 . S
C243 C242 1.363 . S
C243 N245 1.375 . S
C243 H261 0.931 . S
C244 N241 1.311 . S
C244 N245 1.347 . S
C244 H255 0.929 . S
N245 C243 1.375 . S
N245 C244 1.347 . S
C246 C249 1.365 . S
C246 N251 1.328 . S
C246 H252 0.929 . S
C247 C248 1.362 . S
C247 C250 1.378 . S
C247 H262 0.929 . S
C248 C247 1.362 . S
C248 C249 1.366 . S
C249 C246 1.365 . S
C249 C248 1.366 . S
C249 H263 0.930 . S
C250 C247 1.378 . S
C250 N251 1.315 . S
C250 H253 0.930 . S
N251 Co231 2.194 . S
N251 C246 1.328 . S
N251 C250 1.315 . S
H252 C246 0.929 . S
H253 C250 0.930 . S
H254 C242 0.929 . S
H255 C244 0.929 . S
O256 Co231 2.351 . S
O256 C259 1.244 . S
O257 Co231 2.155 . S
O257 C259 1.240 . S
O258 Co231 2.096 . S
O258 C239 1.247 . S
C259 O256 1.244 . S
C259 O257 1.240 . S
H260 C234 0.931 . S
H261 C243 0.931 . S
H262 C247 0.929 . S
H263 C249 0.930 . S
Co264 N268 2.148 . S
Co264 N274 2.128 . S
Co264 N284 2.194 . S
Co264 O289 2.351 . S
Co264 O290 2.155 . S
Co264 O291 2.096 . S
C265 N268 1.301 . S
C265 N269 1.328 . S
C265 H270 0.930 . S
C266 C267 1.333 . S
C266 N268 1.317 . S
C266 H271 0.930 . S
C267 C266 1.333 . S
C267 N269 1.350 . S
C267 H293 0.931 . S
N268 Co264 2.148 . S
N268 C265 1.301 . S
N268 C266 1.317 . S
N269 C265 1.328 . S
N269 C267 1.350 . S
H270 C265 0.930 . S
H271 C266 0.930 . S
C272 O273 1.224 . S
C272 O291 1.247 . S
O273 C272 1.224 . S
N274 Co264 2.128 . S
N274 C275 1.355 . S
N274 C277 1.311 . S
C275 N274 1.355 . S
C275 C276 1.363 . S
C275 H287 0.929 . S
C276 C275 1.363 . S
C276 N278 1.375 . S
C276 H294 0.931 . S
C277 N274 1.311 . S
C277 N278 1.347 . S
C277 H288 0.929 . S
N278 C276 1.375 . S
N278 C277 1.347 . S
C279 C282 1.365 . S
C279 N284 1.328 . S
C279 H285 0.929 . S
C280 C281 1.362 . S
C280 C283 1.378 . S
C280 H295 0.929 . S
C281 C280 1.362 . S
C281 C282 1.366 . S
C282 C279 1.365 . S
C282 C281 1.366 . S
C282 H296 0.930 . S
C283 C280 1.378 . S
C283 N284 1.315 . S
C283 H286 0.930 . S
N284 Co264 2.194 . S
N284 C279 1.328 . S
N284 C283 1.315 . S
H285 C279 0.929 . S
H286 C283 0.930 . S
H287 C275 0.929 . S
H288 C277 0.929 . S
O289 Co264 2.351 . S
O289 C292 1.244 . S
O290 Co264 2.155 . S
O290 C292 1.240 . S
O291 Co264 2.096 . S
O291 C272 1.247 . S
C292 O289 1.244 . S
C292 O290 1.240 . S
H293 C267 0.931 . S
H294 C276 0.931 . S
H295 C280 0.929 . S
H296 C282 0.930 . S
Co297 N301 2.148 . S
Co297 N307 2.128 . S
Co297 N317 2.194 . S
Co297 O322 2.351 . S
Co297 O323 2.155 . S
Co297 O324 2.096 . S
C298 N301 1.301 . S
C298 N302 1.328 . S
C298 H303 0.930 . S
C299 C300 1.333 . S
C299 N301 1.317 . S
C299 H304 0.930 . S
C300 C299 1.333 . S
C300 N302 1.350 . S
C300 H326 0.931 . S
N301 Co297 2.148 . S
N301 C298 1.301 . S
N301 C299 1.317 . S
N302 C298 1.328 . S
N302 C300 1.350 . S
H303 C298 0.930 . S
H304 C299 0.930 . S
C305 O306 1.224 . S
C305 O324 1.247 . S
O306 C305 1.224 . S
N307 Co297 2.128 . S
N307 C308 1.355 . S
N307 C310 1.311 . S
C308 N307 1.355 . S
C308 C309 1.363 . S
C308 H320 0.929 . S
C309 C308 1.363 . S
C309 N311 1.375 . S
C309 H327 0.931 . S
C310 N307 1.311 . S
C310 N311 1.347 . S
C310 H321 0.929 . S
N311 C309 1.375 . S
N311 C310 1.347 . S
C312 C315 1.365 . S
C312 N317 1.328 . S
C312 H318 0.929 . S
C313 C314 1.362 . S
C313 C316 1.378 . S
C313 H328 0.929 . S
C314 C313 1.362 . S
C314 C315 1.366 . S
C315 C312 1.365 . S
C315 C314 1.366 . S
C315 H329 0.930 . S
C316 C313 1.378 . S
C316 N317 1.315 . S
C316 H319 0.930 . S
N317 Co297 2.194 . S
N317 C312 1.328 . S
N317 C316 1.315 . S
H318 C312 0.929 . S
H319 C316 0.930 . S
H320 C308 0.929 . S
H321 C310 0.929 . S
O322 Co297 2.351 . S
O322 C325 1.244 . S
O323 Co297 2.155 . S
O323 C325 1.240 . S
O324 Co297 2.096 . S
O324 C305 1.247 . S
C325 O322 1.244 . S
C325 O323 1.240 . S
H326 C300 0.931 . S
H327 C309 0.931 . S
H328 C313 0.929 . S
H329 C315 0.930 . S
Co330 N334 2.148 . S
Co330 N340 2.128 . S
Co330 N350 2.194 . S
Co330 O355 2.351 . S
Co330 O356 2.155 . S
Co330 O357 2.096 . S
C331 N334 1.301 . S
C331 N335 1.328 . S
C331 H336 0.930 . S
C332 C333 1.333 . S
C332 N334 1.317 . S
C332 H337 0.930 . S
C333 C332 1.333 . S
C333 N335 1.350 . S
C333 H359 0.931 . S
N334 Co330 2.148 . S
N334 C331 1.301 . S
N334 C332 1.317 . S
N335 C331 1.328 . S
N335 C333 1.350 . S
H336 C331 0.930 . S
H337 C332 0.930 . S
C338 O339 1.224 . S
C338 O357 1.247 . S
O339 C338 1.224 . S
N340 Co330 2.128 . S
N340 C341 1.355 . S
N340 C343 1.311 . S
C341 N340 1.355 . S
C341 C342 1.363 . S
C341 H353 0.929 . S
C342 C341 1.363 . S
C342 N344 1.375 . S
C342 H360 0.931 . S
C343 N340 1.311 . S
C343 N344 1.347 . S
C343 H354 0.929 . S
N344 C342 1.375 . S
N344 C343 1.347 . S
C345 C348 1.365 . S
C345 N350 1.328 . S
C345 H351 0.929 . S
C346 C347 1.362 . S
C346 C349 1.378 . S
C346 H361 0.929 . S
C347 C346 1.362 . S
C347 C348 1.366 . S
C348 C345 1.365 . S
C348 C347 1.366 . S
C348 H362 0.930 . S
C349 C346 1.378 . S
C349 N350 1.315 . S
C349 H352 0.930 . S
N350 Co330 2.194 . S
N350 C345 1.328 . S
N350 C349 1.315 . S
H351 C345 0.929 . S
H352 C349 0.930 . S
H353 C341 0.929 . S
H354 C343 0.929 . S
O355 Co330 2.351 . S
O355 C358 1.244 . S
O356 Co330 2.155 . S
O356 C358 1.240 . S
O357 Co330 2.096 . S
O357 C338 1.247 . S
C358 O355 1.244 . S
C358 O356 1.240 . S
H359 C333 0.931 . S
H360 C342 0.931 . S
H361 C346 0.929 . S
H362 C348 0.930 . S
Co363 N367 2.148 . S
Co363 N373 2.128 . S
Co363 N383 2.194 . S
Co363 O388 2.351 . S
Co363 O389 2.155 . S
Co363 O390 2.096 . S
C364 N367 1.301 . S
C364 N368 1.328 . S
C364 H369 0.930 . S
C365 C366 1.333 . S
C365 N367 1.317 . S
C365 H370 0.930 . S
C366 C365 1.333 . S
C366 N368 1.350 . S
C366 H392 0.931 . S
N367 Co363 2.148 . S
N367 C364 1.301 . S
N367 C365 1.317 . S
N368 C364 1.328 . S
N368 C366 1.350 . S
H369 C364 0.930 . S
H370 C365 0.930 . S
C371 O372 1.224 . S
C371 O390 1.247 . S
O372 C371 1.224 . S
N373 Co363 2.128 . S
N373 C374 1.355 . S
N373 C376 1.311 . S
C374 N373 1.355 . S
C374 C375 1.363 . S
C374 H386 0.929 . S
C375 C374 1.363 . S
C375 N377 1.375 . S
C375 H393 0.931 . S
C376 N373 1.311 . S
C376 N377 1.347 . S
C376 H387 0.929 . S
N377 C375 1.375 . S
N377 C376 1.347 . S
C378 C381 1.365 . S
C378 N383 1.328 . S
C378 H384 0.929 . S
C379 C380 1.362 . S
C379 C382 1.378 . S
C379 H394 0.929 . S
C380 C379 1.362 . S
C380 C381 1.366 . S
C381 C378 1.365 . S
C381 C380 1.366 . S
C381 H395 0.930 . S
C382 C379 1.378 . S
C382 N383 1.315 . S
C382 H385 0.930 . S
N383 Co363 2.194 . S
N383 C378 1.328 . S
N383 C382 1.315 . S
H384 C378 0.929 . S
H385 C382 0.930 . S
H386 C374 0.929 . S
H387 C376 0.929 . S
O388 Co363 2.351 . S
O388 C391 1.244 . S
O389 Co363 2.155 . S
O389 C391 1.240 . S
O390 Co363 2.096 . S
O390 C371 1.247 . S
C391 O388 1.244 . S
C391 O389 1.240 . S
H392 C366 0.931 . S
H393 C375 0.931 . S
H394 C379 0.929 . S
H395 C381 0.930 . S
H396 C404 0.929 . S
H397 C406 0.930 . S
H398 C408 0.930 . S
H399 C411 0.929 . S
H400 C414 0.930 . S
H401 C416 0.960 . S
H402 C416 0.960 . S
H403 C416 0.960 . S
C404 H396 0.929 . S
C404 C405 1.377 . S
C404 C406 1.384 . S
C405 C404 1.377 . S
C405 C411 1.390 . S
C406 H397 0.930 . S
C406 C404 1.384 . S
C406 C407 1.372 . S
C407 C406 1.372 . S
C407 C408 1.400 . S
C407 C412 1.490 . S
C408 H398 0.930 . S
C408 C407 1.400 . S
C408 C411 1.386 . S
H409 C425 0.930 . S
H410 C426 0.931 . S
C411 H399 0.929 . S
C411 C405 1.390 . S
C411 C408 1.386 . S
C412 C407 1.490 . S
C412 C414 1.395 . S
C412 C415 1.403 . S
H413 C419 0.930 . S
C414 H400 0.930 . S
C414 C412 1.395 . S
C414 C417 1.403 . S
C415 C412 1.403 . S
C415 C416 1.524 . S
C415 C419 1.400 . S
C416 H401 0.960 . S
C416 H402 0.960 . S
C416 H403 0.960 . S
C416 C415 1.524 . S
C417 C414 1.403 . S
C417 C418 1.392 . S
C417 C421 1.495 . S
C418 C417 1.392 . S
C418 C419 1.385 . S
C418 C420 1.478 . S
C419 H413 0.930 . S
C419 C415 1.400 . S
C419 C418 1.385 . S
C420 C418 1.478 . S
C420 C422 1.381 . S
C420 C426 1.383 . S
C421 C417 1.495 . S
C421 H427 0.959 . S
C421 H428 0.961 . S
C421 H429 0.960 . S
C422 C420 1.381 . S
C422 C423 1.394 . S
C422 H430 0.930 . S
C423 C422 1.394 . S
C423 C424 1.383 . S
C423 H431 0.929 . S
C424 C423 1.383 . S
C424 C425 1.377 . S
C425 H409 0.930 . S
C425 C424 1.377 . S
C425 C426 1.379 . S
C426 H410 0.931 . S
C426 C420 1.383 . S
C426 C425 1.379 . S
H427 C421 0.959 . S
H428 C421 0.961 . S
H429 C421 0.960 . S
H430 C422 0.930 . S
H431 C423 0.929 . S
H432 C440 0.929 . S
H433 C442 0.930 . S
H434 C444 0.930 . S
H435 C447 0.929 . S
H436 C450 0.930 . S
H437 C452 0.960 . S
H438 C452 0.960 . S
H439 C452 0.960 . S
C440 H432 0.929 . S
C440 C441 1.377 . S
C440 C442 1.384 . S
C441 C440 1.377 . S
C441 C447 1.390 . S
C442 H433 0.930 . S
C442 C440 1.384 . S
C442 C443 1.372 . S
C443 C442 1.372 . S
C443 C444 1.400 . S
C443 C448 1.490 . S
C444 H434 0.930 . S
C444 C443 1.400 . S
C444 C447 1.386 . S
H445 C461 0.930 . S
H446 C462 0.931 . S
C447 H435 0.929 . S
C447 C441 1.390 . S
C447 C444 1.386 . S
C448 C443 1.490 . S
C448 C450 1.395 . S
C448 C451 1.403 . S
H449 C455 0.930 . S
C450 H436 0.930 . S
C450 C448 1.395 . S
C450 C453 1.403 . S
C451 C448 1.403 . S
C451 C452 1.524 . S
C451 C455 1.400 . S
C452 H437 0.960 . S
C452 H438 0.960 . S
C452 H439 0.960 . S
C452 C451 1.524 . S
C453 C450 1.403 . S
C453 C454 1.392 . S
C453 C457 1.495 . S
C454 C453 1.392 . S
C454 C455 1.385 . S
C454 C456 1.478 . S
C455 H449 0.930 . S
C455 C451 1.400 . S
C455 C454 1.385 . S
C456 C454 1.478 . S
C456 C458 1.381 . S
C456 C462 1.383 . S
C457 C453 1.495 . S
C457 H463 0.959 . S
C457 H464 0.961 . S
C457 H465 0.960 . S
C458 C456 1.381 . S
C458 C459 1.394 . S
C458 H466 0.930 . S
C459 C458 1.394 . S
C459 C460 1.383 . S
C459 H467 0.929 . S
C460 C459 1.383 . S
C460 C461 1.377 . S
C461 H445 0.930 . S
C461 C460 1.377 . S
C461 C462 1.379 . S
C462 H446 0.931 . S
C462 C456 1.383 . S
C462 C461 1.379 . S
H463 C457 0.959 . S
H464 C457 0.961 . S
H465 C457 0.960 . S
H466 C458 0.930 . S
H467 C459 0.929 . S
H468 C476 0.929 . S
H469 C478 0.930 . S
H470 C480 0.930 . S
H471 C483 0.929 . S
H472 C486 0.930 . S
H473 C488 0.960 . S
H474 C488 0.960 . S
H475 C488 0.960 . S
C476 H468 0.929 . S
C476 C477 1.377 . S
C476 C478 1.384 . S
C477 C476 1.377 . S
C477 C483 1.390 . S
C478 H469 0.930 . S
C478 C476 1.384 . S
C478 C479 1.372 . S
C479 C478 1.372 . S
C479 C480 1.400 . S
C479 C484 1.490 . S
C480 H470 0.930 . S
C480 C479 1.400 . S
C480 C483 1.386 . S
H481 C497 0.930 . S
H482 C498 0.931 . S
C483 H471 0.929 . S
C483 C477 1.390 . S
C483 C480 1.386 . S
C484 C479 1.490 . S
C484 C486 1.395 . S
C484 C487 1.403 . S
H485 C491 0.930 . S
C486 H472 0.930 . S
C486 C484 1.395 . S
C486 C489 1.403 . S
C487 C484 1.403 . S
C487 C488 1.524 . S
C487 C491 1.400 . S
C488 H473 0.960 . S
C488 H474 0.960 . S
C488 H475 0.960 . S
C488 C487 1.524 . S
C489 C486 1.403 . S
C489 C490 1.392 . S
C489 C493 1.495 . S
C490 C489 1.392 . S
C490 C491 1.385 . S
C490 C492 1.478 . S
C491 H485 0.930 . S
C491 C487 1.400 . S
C491 C490 1.385 . S
C492 C490 1.478 . S
C492 C494 1.381 . S
C492 C498 1.383 . S
C493 C489 1.495 . S
C493 H499 0.959 . S
C493 H500 0.961 . S
C493 H501 0.960 . S
C494 C492 1.381 . S
C494 C495 1.394 . S
C494 H502 0.930 . S
C495 C494 1.394 . S
C495 C496 1.383 . S
C495 H503 0.929 . S
C496 C495 1.383 . S
C496 C497 1.377 . S
C497 H481 0.930 . S
C497 C496 1.377 . S
C497 C498 1.379 . S
C498 H482 0.931 . S
C498 C492 1.383 . S
C498 C497 1.379 . S
H499 C493 0.959 . S
H500 C493 0.961 . S
H501 C493 0.960 . S
H502 C494 0.930 . S
H503 C495 0.929 . S
H504 C512 0.929 . S
H505 C514 0.930 . S
H506 C516 0.930 . S
H507 C519 0.929 . S
H508 C522 0.930 . S
H509 C524 0.960 . S
H510 C524 0.960 . S
H511 C524 0.960 . S
C512 H504 0.929 . S
C512 C513 1.377 . S
C512 C514 1.384 . S
C513 C512 1.377 . S
C513 C519 1.390 . S
C514 H505 0.930 . S
C514 C512 1.384 . S
C514 C515 1.372 . S
C515 C514 1.372 . S
C515 C516 1.400 . S
C515 C520 1.490 . S
C516 H506 0.930 . S
C516 C515 1.400 . S
C516 C519 1.386 . S
H517 C533 0.930 . S
H518 C534 0.931 . S
C519 H507 0.929 . S
C519 C513 1.390 . S
C519 C516 1.386 . S
C520 C515 1.490 . S
C520 C522 1.395 . S
C520 C523 1.403 . S
H521 C527 0.930 . S
C522 H508 0.930 . S
C522 C520 1.395 . S
C522 C525 1.403 . S
C523 C520 1.403 . S
C523 C524 1.524 . S
C523 C527 1.400 . S
C524 H509 0.960 . S
C524 H510 0.960 . S
C524 H511 0.960 . S
C524 C523 1.524 . S
C525 C522 1.403 . S
C525 C526 1.392 . S
C525 C529 1.495 . S
C526 C525 1.392 . S
C526 C527 1.385 . S
C526 C528 1.478 . S
C527 H521 0.930 . S
C527 C523 1.400 . S
C527 C526 1.385 . S
C528 C526 1.478 . S
C528 C530 1.381 . S
C528 C534 1.383 . S
C529 C525 1.495 . S
C529 H535 0.959 . S
C529 H536 0.961 . S
C529 H537 0.960 . S
C530 C528 1.381 . S
C530 C531 1.394 . S
C530 H538 0.930 . S
C531 C530 1.394 . S
C531 C532 1.383 . S
C531 H539 0.929 . S
C532 C531 1.383 . S
C532 C533 1.377 . S
C533 H517 0.930 . S
C533 C532 1.377 . S
C533 C534 1.379 . S
C534 H518 0.931 . S
C534 C528 1.383 . S
C534 C533 1.379 . S
H535 C529 0.959 . S
H536 C529 0.961 . S
H537 C529 0.960 . S
H538 C530 0.930 . S
H539 C531 0.929 . S
H540 C548 0.929 . S
H541 C550 0.930 . S
H542 C552 0.930 . S
H543 C555 0.929 . S
H544 C558 0.930 . S
H545 C560 0.960 . S
H546 C560 0.960 . S
H547 C560 0.960 . S
C548 H540 0.929 . S
C548 C549 1.377 . S
C548 C550 1.384 . S
C549 C548 1.377 . S
C549 C555 1.390 . S
C550 H541 0.930 . S
C550 C548 1.384 . S
C550 C551 1.372 . S
C551 C550 1.372 . S
C551 C552 1.400 . S
C551 C556 1.490 . S
C552 H542 0.930 . S
C552 C551 1.400 . S
C552 C555 1.386 . S
H553 C569 0.930 . S
H554 C570 0.931 . S
C555 H543 0.929 . S
C555 C549 1.390 . S
C555 C552 1.386 . S
C556 C551 1.490 . S
C556 C558 1.395 . S
C556 C559 1.403 . S
H557 C563 0.930 . S
C558 H544 0.930 . S
C558 C556 1.395 . S
C558 C561 1.403 . S
C559 C556 1.403 . S
C559 C560 1.524 . S
C559 C563 1.400 . S
C560 H545 0.960 . S
C560 H546 0.960 . S
C560 H547 0.960 . S
C560 C559 1.524 . S
C561 C558 1.403 . S
C561 C562 1.392 . S
C561 C565 1.495 . S
C562 C561 1.392 . S
C562 C563 1.385 . S
C562 C564 1.478 . S
C563 H557 0.930 . S
C563 C559 1.400 . S
C563 C562 1.385 . S
C564 C562 1.478 . S
C564 C566 1.381 . S
C564 C570 1.383 . S
C565 C561 1.495 . S
C565 H571 0.959 . S
C565 H572 0.961 . S
C565 H573 0.960 . S
C566 C564 1.381 . S
C566 C567 1.394 . S
C566 H574 0.930 . S
C567 C566 1.394 . S
C567 C568 1.383 . S
C567 H575 0.929 . S
C568 C567 1.383 . S
C568 C569 1.377 . S
C569 H553 0.930 . S
C569 C568 1.377 . S
C569 C570 1.379 . S
C570 H554 0.931 . S
C570 C564 1.383 . S
C570 C569 1.379 . S
H571 C565 0.959 . S
H572 C565 0.961 . S
H573 C565 0.960 . S
H574 C566 0.930 . S
H575 C567 0.929 . S
H576 C584 0.929 . S
H577 C586 0.930 . S
H578 C588 0.930 . S
H579 C591 0.929 . S
H580 C594 0.930 . S
H581 C596 0.960 . S
H582 C596 0.960 . S
H583 C596 0.960 . S
C584 H576 0.929 . S
C584 C585 1.377 . S
C584 C586 1.384 . S
C585 C584 1.377 . S
C585 C591 1.390 . S
C586 H577 0.930 . S
C586 C584 1.384 . S
C586 C587 1.372 . S
C587 C586 1.372 . S
C587 C588 1.400 . S
C587 C592 1.490 . S
C588 H578 0.930 . S
C588 C587 1.400 . S
C588 C591 1.386 . S
H589 C605 0.930 . S
H590 C606 0.931 . S
C591 H579 0.929 . S
C591 C585 1.390 . S
C591 C588 1.386 . S
C592 C587 1.490 . S
C592 C594 1.395 . S
C592 C595 1.403 . S
H593 C599 0.930 . S
C594 H580 0.930 . S
C594 C592 1.395 . S
C594 C597 1.403 . S
C595 C592 1.403 . S
C595 C596 1.524 . S
C595 C599 1.400 . S
C596 H581 0.960 . S
C596 H582 0.960 . S
C596 H583 0.960 . S
C596 C595 1.524 . S
C597 C594 1.403 . S
C597 C598 1.392 . S
C597 C601 1.495 . S
C598 C597 1.392 . S
C598 C599 1.385 . S
C598 C600 1.478 . S
C599 H593 0.930 . S
C599 C595 1.400 . S
C599 C598 1.385 . S
C600 C598 1.478 . S
C600 C602 1.381 . S
C600 C606 1.383 . S
C601 C597 1.495 . S
C601 H607 0.959 . S
C601 H608 0.961 . S
C601 H609 0.960 . S
C602 C600 1.381 . S
C602 C603 1.394 . S
C602 H610 0.930 . S
C603 C602 1.394 . S
C603 C604 1.383 . S
C603 H611 0.929 . S
C604 C603 1.383 . S
C604 C605 1.377 . S
C605 H589 0.930 . S
C605 C604 1.377 . S
C605 C606 1.379 . S
C606 H590 0.931 . S
C606 C600 1.383 . S
C606 C605 1.379 . S
H607 C601 0.959 . S
H608 C601 0.961 . S
H609 C601 0.960 . S
H610 C602 0.930 . S
H611 C603 0.929 . S
H612 C620 0.929 . S
H613 C622 0.930 . S
H614 C624 0.930 . S
H615 C627 0.929 . S
H616 C630 0.930 . S
H617 C632 0.960 . S
H618 C632 0.960 . S
H619 C632 0.960 . S
C620 H612 0.929 . S
C620 C621 1.377 . S
C620 C622 1.384 . S
C621 C620 1.377 . S
C621 C627 1.390 . S
C622 H613 0.930 . S
C622 C620 1.384 . S
C622 C623 1.372 . S
C623 C622 1.372 . S
C623 C624 1.400 . S
C623 C628 1.490 . S
C624 H614 0.930 . S
C624 C623 1.400 . S
C624 C627 1.386 . S
H625 C641 0.930 . S
H626 C642 0.931 . S
C627 H615 0.929 . S
C627 C621 1.390 . S
C627 C624 1.386 . S
C628 C623 1.490 . S
C628 C630 1.395 . S
C628 C631 1.403 . S
H629 C635 0.930 . S
C630 H616 0.930 . S
C630 C628 1.395 . S
C630 C633 1.403 . S
C631 C628 1.403 . S
C631 C632 1.524 . S
C631 C635 1.400 . S
C632 H617 0.960 . S
C632 H618 0.960 . S
C632 H619 0.960 . S
C632 C631 1.524 . S
C633 C630 1.403 . S
C633 C634 1.392 . S
C633 C637 1.495 . S
C634 C633 1.392 . S
C634 C635 1.385 . S
C634 C636 1.478 . S
C635 H629 0.930 . S
C635 C631 1.400 . S
C635 C634 1.385 . S
C636 C634 1.478 . S
C636 C638 1.381 . S
C636 C642 1.383 . S
C637 C633 1.495 . S
C637 H643 0.959 . S
C637 H644 0.961 . S
C637 H645 0.960 . S
C638 C636 1.381 . S
C638 C639 1.394 . S
C638 H646 0.930 . S
C639 C638 1.394 . S
C639 C640 1.383 . S
C639 H647 0.929 . S
C640 C639 1.383 . S
C640 C641 1.377 . S
C641 H625 0.930 . S
C641 C640 1.377 . S
C641 C642 1.379 . S
C642 H626 0.931 . S
C642 C636 1.383 . S
C642 C641 1.379 . S
H643 C637 0.959 . S
H644 C637 0.961 . S
H645 C637 0.960 . S
H646 C638 0.930 . S
H647 C639 0.929 . S
H648 C656 0.929 . S
H649 C658 0.930 . S
H650 C660 0.930 . S
H651 C663 0.929 . S
H652 C666 0.930 . S
H653 C668 0.960 . S
H654 C668 0.960 . S
H655 C668 0.960 . S
C656 H648 0.929 . S
C656 C657 1.377 . S
C656 C658 1.384 . S
C657 C656 1.377 . S
C657 C663 1.390 . S
C658 H649 0.930 . S
C658 C656 1.384 . S
C658 C659 1.372 . S
C659 C658 1.372 . S
C659 C660 1.400 . S
C659 C664 1.490 . S
C660 H650 0.930 . S
C660 C659 1.400 . S
C660 C663 1.386 . S
H661 C677 0.930 . S
H662 C678 0.931 . S
C663 H651 0.929 . S
C663 C657 1.390 . S
C663 C660 1.386 . S
C664 C659 1.490 . S
C664 C666 1.395 . S
C664 C667 1.403 . S
H665 C671 0.930 . S
C666 H652 0.930 . S
C666 C664 1.395 . S
C666 C669 1.403 . S
C667 C664 1.403 . S
C667 C668 1.524 . S
C667 C671 1.400 . S
C668 H653 0.960 . S
C668 H654 0.960 . S
C668 H655 0.960 . S
C668 C667 1.524 . S
C669 C666 1.403 . S
C669 C670 1.392 . S
C669 C673 1.495 . S
C670 C669 1.392 . S
C670 C671 1.385 . S
C670 C672 1.478 . S
C671 H665 0.930 . S
C671 C667 1.400 . S
C671 C670 1.385 . S
C672 C670 1.478 . S
C672 C674 1.381 . S
C672 C678 1.383 . S
C673 C669 1.495 . S
C673 H679 0.959 . S
C673 H680 0.961 . S
C673 H681 0.960 . S
C674 C672 1.381 . S
C674 C675 1.394 . S
C674 H682 0.930 . S
C675 C674 1.394 . S
C675 C676 1.383 . S
C675 H683 0.929 . S
C676 C675 1.383 . S
C676 C677 1.377 . S
C677 H661 0.930 . S
C677 C676 1.377 . S
C677 C678 1.379 . S
C678 H662 0.931 . S
C678 C672 1.383 . S
C678 C677 1.379 . S
H679 C673 0.959 . S
H680 C673 0.961 . S
H681 C673 0.960 . S
H682 C674 0.930 . S
H683 C675 0.929 . S
H684 C692 0.929 . S
H685 C694 0.930 . S
H686 C696 0.930 . S
H687 C699 0.929 . S
H688 C702 0.930 . S
H689 C704 0.960 . S
H690 C704 0.960 . S
H691 C704 0.960 . S
C692 H684 0.929 . S
C692 C693 1.377 . S
C692 C694 1.384 . S
C693 C692 1.377 . S
C693 C699 1.390 . S
C694 H685 0.930 . S
C694 C692 1.384 . S
C694 C695 1.372 . S
C695 C694 1.372 . S
C695 C696 1.400 . S
C695 C700 1.490 . S
C696 H686 0.930 . S
C696 C695 1.400 . S
C696 C699 1.386 . S
H697 C713 0.930 . S
H698 C714 0.931 . S
C699 H687 0.929 . S
C699 C693 1.390 . S
C699 C696 1.386 . S
C700 C695 1.490 . S
C700 C702 1.395 . S
C700 C703 1.403 . S
H701 C707 0.930 . S
C702 H688 0.930 . S
C702 C700 1.395 . S
C702 C705 1.403 . S
C703 C700 1.403 . S
C703 C704 1.524 . S
C703 C707 1.400 . S
C704 H689 0.960 . S
C704 H690 0.960 . S
C704 H691 0.960 . S
C704 C703 1.524 . S
C705 C702 1.403 . S
C705 C706 1.392 . S
C705 C709 1.495 . S
C706 C705 1.392 . S
C706 C707 1.385 . S
C706 C708 1.478 . S
C707 H701 0.930 . S
C707 C703 1.400 . S
C707 C706 1.385 . S
C708 C706 1.478 . S
C708 C710 1.381 . S
C708 C714 1.383 . S
C709 C705 1.495 . S
C709 H715 0.959 . S
C709 H716 0.961 . S
C709 H717 0.960 . S
C710 C708 1.381 . S
C710 C711 1.394 . S
C710 H718 0.930 . S
C711 C710 1.394 . S
C711 C712 1.383 . S
C711 H719 0.929 . S
C712 C711 1.383 . S
C712 C713 1.377 . S
C713 H697 0.930 . S
C713 C712 1.377 . S
C713 C714 1.379 . S
C714 H698 0.931 . S
C714 C708 1.383 . S
C714 C713 1.379 . S
H715 C709 0.959 . S
H716 C709 0.961 . S
H717 C709 0.960 . S
H718 C710 0.930 . S
H719 C711 0.929 . S
H720 C728 0.929 . S
H721 C730 0.930 . S
H722 C732 0.930 . S
H723 C735 0.929 . S
H724 C738 0.930 . S
H725 C740 0.960 . S
H726 C740 0.960 . S
H727 C740 0.960 . S
C728 H720 0.929 . S
C728 C729 1.377 . S
C728 C730 1.384 . S
C729 C728 1.377 . S
C729 C735 1.390 . S
C730 H721 0.930 . S
C730 C728 1.384 . S
C730 C731 1.372 . S
C731 C730 1.372 . S
C731 C732 1.400 . S
C731 C736 1.490 . S
C732 H722 0.930 . S
C732 C731 1.400 . S
C732 C735 1.386 . S
H733 C749 0.930 . S
H734 C750 0.931 . S
C735 H723 0.929 . S
C735 C729 1.390 . S
C735 C732 1.386 . S
C736 C731 1.490 . S
C736 C738 1.395 . S
C736 C739 1.403 . S
H737 C743 0.930 . S
C738 H724 0.930 . S
C738 C736 1.395 . S
C738 C741 1.403 . S
C739 C736 1.403 . S
C739 C740 1.524 . S
C739 C743 1.400 . S
C740 H725 0.960 . S
C740 H726 0.960 . S
C740 H727 0.960 . S
C740 C739 1.524 . S
C741 C738 1.403 . S
C741 C742 1.392 . S
C741 C745 1.495 . S
C742 C741 1.392 . S
C742 C743 1.385 . S
C742 C744 1.478 . S
C743 H737 0.930 . S
C743 C739 1.400 . S
C743 C742 1.385 . S
C744 C742 1.478 . S
C744 C746 1.381 . S
C744 C750 1.383 . S
C745 C741 1.495 . S
C745 H751 0.959 . S
C745 H752 0.961 . S
C745 H753 0.960 . S
C746 C744 1.381 . S
C746 C747 1.394 . S
C746 H754 0.930 . S
C747 C746 1.394 . S
C747 C748 1.383 . S
C747 H755 0.929 . S
C748 C747 1.383 . S
C748 C749 1.377 . S
C749 H733 0.930 . S
C749 C748 1.377 . S
C749 C750 1.379 . S
C750 H734 0.931 . S
C750 C744 1.383 . S
C750 C749 1.379 . S
H751 C745 0.959 . S
H752 C745 0.961 . S
H753 C745 0.960 . S
H754 C746 0.930 . S
H755 C747 0.929 . S
H756 C764 0.929 . S
H757 C766 0.930 . S
H758 C768 0.930 . S
H759 C771 0.929 . S
H760 C774 0.930 . S
H761 C776 0.960 . S
H762 C776 0.960 . S
H763 C776 0.960 . S
C764 H756 0.929 . S
C764 C765 1.377 . S
C764 C766 1.384 . S
C765 C764 1.377 . S
C765 C771 1.390 . S
C766 H757 0.930 . S
C766 C764 1.384 . S
C766 C767 1.372 . S
C767 C766 1.372 . S
C767 C768 1.400 . S
C767 C772 1.490 . S
C768 H758 0.930 . S
C768 C767 1.400 . S
C768 C771 1.386 . S
H769 C785 0.930 . S
H770 C786 0.931 . S
C771 H759 0.929 . S
C771 C765 1.390 . S
C771 C768 1.386 . S
C772 C767 1.490 . S
C772 C774 1.395 . S
C772 C775 1.403 . S
H773 C779 0.930 . S
C774 H760 0.930 . S
C774 C772 1.395 . S
C774 C777 1.403 . S
C775 C772 1.403 . S
C775 C776 1.524 . S
C775 C779 1.400 . S
C776 H761 0.960 . S
C776 H762 0.960 . S
C776 H763 0.960 . S
C776 C775 1.524 . S
C777 C774 1.403 . S
C777 C778 1.392 . S
C777 C781 1.495 . S
C778 C777 1.392 . S
C778 C779 1.385 . S
C778 C780 1.478 . S
C779 H773 0.930 . S
C779 C775 1.400 . S
C779 C778 1.385 . S
C780 C778 1.478 . S
C780 C782 1.381 . S
C780 C786 1.383 . S
C781 C777 1.495 . S
C781 H787 0.959 . S
C781 H788 0.961 . S
C781 H789 0.960 . S
C782 C780 1.381 . S
C782 C783 1.394 . S
C782 H790 0.930 . S
C783 C782 1.394 . S
C783 C784 1.383 . S
C783 H791 0.929 . S
C784 C783 1.383 . S
C784 C785 1.377 . S
C785 H769 0.930 . S
C785 C784 1.377 . S
C785 C786 1.379 . S
C786 H770 0.931 . S
C786 C780 1.383 . S
C786 C785 1.379 . S
H787 C781 0.959 . S
H788 C781 0.961 . S
H789 C781 0.960 . S
H790 C782 0.930 . S
H791 C783 0.929 . S
H792 C800 0.929 . S
H793 C802 0.930 . S
H794 C804 0.930 . S
H795 C807 0.929 . S
H796 C810 0.930 . S
H797 C812 0.960 . S
H798 C812 0.960 . S
H799 C812 0.960 . S
C800 H792 0.929 . S
C800 C801 1.377 . S
C800 C802 1.384 . S
C801 C800 1.377 . S
C801 C807 1.390 . S
C802 H793 0.930 . S
C802 C800 1.384 . S
C802 C803 1.372 . S
C803 C802 1.372 . S
C803 C804 1.400 . S
C803 C808 1.490 . S
C804 H794 0.930 . S
C804 C803 1.400 . S
C804 C807 1.386 . S
H805 C821 0.930 . S
H806 C822 0.931 . S
C807 H795 0.929 . S
C807 C801 1.390 . S
C807 C804 1.386 . S
C808 C803 1.490 . S
C808 C810 1.395 . S
C808 C811 1.403 . S
H809 C815 0.930 . S
C810 H796 0.930 . S
C810 C808 1.395 . S
C810 C813 1.403 . S
C811 C808 1.403 . S
C811 C812 1.524 . S
C811 C815 1.400 . S
C812 H797 0.960 . S
C812 H798 0.960 . S
C812 H799 0.960 . S
C812 C811 1.524 . S
C813 C810 1.403 . S
C813 C814 1.392 . S
C813 C817 1.495 . S
C814 C813 1.392 . S
C814 C815 1.385 . S
C814 C816 1.478 . S
C815 H809 0.930 . S
C815 C811 1.400 . S
C815 C814 1.385 . S
C816 C814 1.478 . S
C816 C818 1.381 . S
C816 C822 1.383 . S
C817 C813 1.495 . S
C817 H823 0.959 . S
C817 H824 0.961 . S
C817 H825 0.960 . S
C818 C816 1.381 . S
C818 C819 1.394 . S
C818 H826 0.930 . S
C819 C818 1.394 . S
C819 C820 1.383 . S
C819 H827 0.929 . S
C820 C819 1.383 . S
C820 C821 1.377 . S
C821 H805 0.930 . S
C821 C820 1.377 . S
C821 C822 1.379 . S
C822 H806 0.931 . S
C822 C816 1.383 . S
C822 C821 1.379 . S
H823 C817 0.959 . S
H824 C817 0.961 . S
H825 C817 0.960 . S
H826 C818 0.930 . S
H827 C819 0.929 . S
H828 C836 0.929 . S
H829 C838 0.930 . S
H830 C840 0.930 . S
H831 C843 0.929 . S
H832 C846 0.930 . S
H833 C848 0.960 . S
H834 C848 0.960 . S
H835 C848 0.960 . S
C836 H828 0.929 . S
C836 C837 1.377 . S
C836 C838 1.384 . S
C837 C836 1.377 . S
C837 C843 1.390 . S
C838 H829 0.930 . S
C838 C836 1.384 . S
C838 C839 1.372 . S
C839 C838 1.372 . S
C839 C840 1.400 . S
C839 C844 1.490 . S
C840 H830 0.930 . S
C840 C839 1.400 . S
C840 C843 1.386 . S
H841 C857 0.930 . S
H842 C858 0.931 . S
C843 H831 0.929 . S
C843 C837 1.390 . S
C843 C840 1.386 . S
C844 C839 1.490 . S
C844 C846 1.395 . S
C844 C847 1.403 . S
H845 C851 0.930 . S
C846 H832 0.930 . S
C846 C844 1.395 . S
C846 C849 1.403 . S
C847 C844 1.403 . S
C847 C848 1.524 . S
C847 C851 1.400 . S
C848 H833 0.960 . S
C848 H834 0.960 . S
C848 H835 0.960 . S
C848 C847 1.524 . S
C849 C846 1.403 . S
C849 C850 1.392 . S
C849 C853 1.495 . S
C850 C849 1.392 . S
C850 C851 1.385 . S
C850 C852 1.478 . S
C851 H845 0.930 . S
C851 C847 1.400 . S
C851 C850 1.385 . S
C852 C850 1.478 . S
C852 C854 1.381 . S
C852 C858 1.383 . S
C853 C849 1.495 . S
C853 H859 0.959 . S
C853 H860 0.961 . S
C853 H861 0.960 . S
C854 C852 1.381 . S
C854 C855 1.394 . S
C854 H862 0.930 . S
C855 C854 1.394 . S
C855 C856 1.383 . S
C855 H863 0.929 . S
C856 C855 1.383 . S
C856 C857 1.377 . S
C857 H841 0.930 . S
C857 C856 1.377 . S
C857 C858 1.379 . S
C858 H842 0.931 . S
C858 C852 1.383 . S
C858 C857 1.379 . S
H859 C853 0.959 . S
H860 C853 0.961 . S
H861 C853 0.960 . S
H862 C854 0.930 . S
H863 C855 0.929 . S
H864 C872 0.929 . S
H865 C874 0.930 . S
H866 C876 0.930 . S
H867 C879 0.929 . S
H868 C882 0.930 . S
H869 C884 0.960 . S
H870 C884 0.960 . S
H871 C884 0.960 . S
C872 H864 0.929 . S
C872 C873 1.377 . S
C872 C874 1.384 . S
C873 C872 1.377 . S
C873 C879 1.390 . S
C874 H865 0.930 . S
C874 C872 1.384 . S
C874 C875 1.372 . S
C875 C874 1.372 . S
C875 C876 1.400 . S
C875 C880 1.490 . S
C876 H866 0.930 . S
C876 C875 1.400 . S
C876 C879 1.386 . S
H877 C893 0.930 . S
H878 C894 0.931 . S
C879 H867 0.929 . S
C879 C873 1.390 . S
C879 C876 1.386 . S
C880 C875 1.490 . S
C880 C882 1.395 . S
C880 C883 1.403 . S
H881 C887 0.930 . S
C882 H868 0.930 . S
C882 C880 1.395 . S
C882 C885 1.403 . S
C883 C880 1.403 . S
C883 C884 1.524 . S
C883 C887 1.400 . S
C884 H869 0.960 . S
C884 H870 0.960 . S
C884 H871 0.960 . S
C884 C883 1.524 . S
C885 C882 1.403 . S
C885 C886 1.392 . S
C885 C889 1.495 . S
C886 C885 1.392 . S
C886 C887 1.385 . S
C886 C888 1.478 . S
C887 H881 0.930 . S
C887 C883 1.400 . S
C887 C886 1.385 . S
C888 C886 1.478 . S
C888 C890 1.381 . S
C888 C894 1.383 . S
C889 C885 1.495 . S
C889 H895 0.959 . S
C889 H896 0.961 . S
C889 H897 0.960 . S
C890 C888 1.381 . S
C890 C891 1.394 . S
C890 H898 0.930 . S
C891 C890 1.394 . S
C891 C892 1.383 . S
C891 H899 0.929 . S
C892 C891 1.383 . S
C892 C893 1.377 . S
C893 H877 0.930 . S
C893 C892 1.377 . S
C893 C894 1.379 . S
C894 H878 0.931 . S
C894 C888 1.383 . S
C894 C893 1.379 . S
H895 C889 0.959 . S
H896 C889 0.961 . S
H897 C889 0.960 . S
H898 C890 0.930 . S
H899 C891 0.929 . S
H900 C908 0.929 . S
H901 C910 0.930 . S
H902 C912 0.930 . S
H903 C915 0.929 . S
H904 C918 0.930 . S
H905 C920 0.960 . S
H906 C920 0.960 . S
H907 C920 0.960 . S
C908 H900 0.929 . S
C908 C909 1.377 . S
C908 C910 1.384 . S
C909 C908 1.377 . S
C909 C915 1.390 . S
C910 H901 0.930 . S
C910 C908 1.384 . S
C910 C911 1.372 . S
C911 C910 1.372 . S
C911 C912 1.400 . S
C911 C916 1.490 . S
C912 H902 0.930 . S
C912 C911 1.400 . S
C912 C915 1.386 . S
H913 C929 0.930 . S
H914 C930 0.931 . S
C915 H903 0.929 . S
C915 C909 1.390 . S
C915 C912 1.386 . S
C916 C911 1.490 . S
C916 C918 1.395 . S
C916 C919 1.403 . S
H917 C923 0.930 . S
C918 H904 0.930 . S
C918 C916 1.395 . S
C918 C921 1.403 . S
C919 C916 1.403 . S
C919 C920 1.524 . S
C919 C923 1.400 . S
C920 H905 0.960 . S
C920 H906 0.960 . S
C920 H907 0.960 . S
C920 C919 1.524 . S
C921 C918 1.403 . S
C921 C922 1.392 . S
C921 C925 1.495 . S
C922 C921 1.392 . S
C922 C923 1.385 . S
C922 C924 1.478 . S
C923 H917 0.930 . S
C923 C919 1.400 . S
C923 C922 1.385 . S
C924 C922 1.478 . S
C924 C926 1.381 . S
C924 C930 1.383 . S
C925 C921 1.495 . S
C925 H931 0.959 . S
C925 H932 0.961 . S
C925 H933 0.960 . S
C926 C924 1.381 . S
C926 C927 1.394 . S
C926 H934 0.930 . S
C927 C926 1.394 . S
C927 C928 1.383 . S
C927 H935 0.929 . S
C928 C927 1.383 . S
C928 C929 1.377 . S
C929 H913 0.930 . S
C929 C928 1.377 . S
C929 C930 1.379 . S
C930 H914 0.931 . S
C930 C924 1.383 . S
C930 C929 1.379 . S
H931 C925 0.959 . S
H932 C925 0.961 . S
H933 C925 0.960 . S
H934 C926 0.930 . S
H935 C927 0.929 . S
H936 C944 0.929 . S
H937 C946 0.930 . S
H938 C948 0.930 . S
H939 C951 0.929 . S
H940 C954 0.930 . S
H941 C956 0.960 . S
H942 C956 0.960 . S
H943 C956 0.960 . S
C944 H936 0.929 . S
C944 C945 1.377 . S
C944 C946 1.384 . S
C945 C944 1.377 . S
C945 C951 1.390 . S
C946 H937 0.930 . S
C946 C944 1.384 . S
C946 C947 1.372 . S
C947 C946 1.372 . S
C947 C948 1.400 . S
C947 C952 1.490 . S
C948 H938 0.930 . S
C948 C947 1.400 . S
C948 C951 1.386 . S
H949 C965 0.930 . S
H950 C966 0.931 . S
C951 H939 0.929 . S
C951 C945 1.390 . S
C951 C948 1.386 . S
C952 C947 1.490 . S
C952 C954 1.395 . S
C952 C955 1.403 . S
H953 C959 0.930 . S
C954 H940 0.930 . S
C954 C952 1.395 . S
C954 C957 1.403 . S
C955 C952 1.403 . S
C955 C956 1.524 . S
C955 C959 1.400 . S
C956 H941 0.960 . S
C956 H942 0.960 . S
C956 H943 0.960 . S
C956 C955 1.524 . S
C957 C954 1.403 . S
C957 C958 1.392 . S
C957 C961 1.495 . S
C958 C957 1.392 . S
C958 C959 1.385 . S
C958 C960 1.478 . S
C959 H953 0.930 . S
C959 C955 1.400 . S
C959 C958 1.385 . S
C960 C958 1.478 . S
C960 C962 1.381 . S
C960 C966 1.383 . S
C961 C957 1.495 . S
C961 H967 0.959 . S
C961 H968 0.961 . S
C961 H969 0.960 . S
C962 C960 1.381 . S
C962 C963 1.394 . S
C962 H970 0.930 . S
C963 C962 1.394 . S
C963 C964 1.383 . S
C963 H971 0.929 . S
C964 C963 1.383 . S
C964 C965 1.377 . S
C965 H949 0.930 . S
C965 C964 1.377 . S
C965 C966 1.379 . S
C966 H950 0.931 . S
C966 C960 1.383 . S
C966 C965 1.379 . S
H967 C961 0.959 . S
H968 C961 0.961 . S
H969 C961 0.960 . S
H970 C962 0.930 . S
H971 C963 0.929 . S
H972 C980 0.929 . S
H973 C982 0.930 . S
H974 C984 0.930 . S
H975 C987 0.929 . S
H976 C990 0.930 . S
H977 C992 0.960 . S
H978 C992 0.960 . S
H979 C992 0.960 . S
C980 H972 0.929 . S
C980 C981 1.377 . S
C980 C982 1.384 . S
C981 C980 1.377 . S
C981 C987 1.390 . S
C982 H973 0.930 . S
C982 C980 1.384 . S
C982 C983 1.372 . S
C983 C982 1.372 . S
C983 C984 1.400 . S
C983 C988 1.490 . S
C984 H974 0.930 . S
C984 C983 1.400 . S
C984 C987 1.386 . S
H985 C1001 0.930 . S
H986 C1002 0.931 . S
C987 H975 0.929 . S
C987 C981 1.390 . S
C987 C984 1.386 . S
C988 C983 1.490 . S
C988 C990 1.395 . S
C988 C991 1.403 . S
H989 C995 0.930 . S
C990 H976 0.930 . S
C990 C988 1.395 . S
C990 C993 1.403 . S
C991 C988 1.403 . S
C991 C992 1.524 . S
C991 C995 1.400 . S
C992 H977 0.960 . S
C992 H978 0.960 . S
C992 H979 0.960 . S
C992 C991 1.524 . S
C993 C990 1.403 . S
C993 C994 1.392 . S
C993 C997 1.495 . S
C994 C993 1.392 . S
C994 C995 1.385 . S
C994 C996 1.478 . S
C995 H989 0.930 . S
C995 C991 1.400 . S
C995 C994 1.385 . S
C996 C994 1.478 . S
C996 C998 1.381 . S
C996 C1002 1.383 . S
C997 C993 1.495 . S
C997 H1003 0.959 . S
C997 H1004 0.961 . S
C997 H1005 0.960 . S
C998 C996 1.381 . S
C998 C999 1.394 . S
C998 H1006 0.930 . S
C999 C998 1.394 . S
C999 C1000 1.383 . S
C999 H1007 0.929 . S
C1000 C999 1.383 . S
C1000 C1001 1.377 . S
C1001 H985 0.930 . S
C1001 C1000 1.377 . S
C1001 C1002 1.379 . S
C1002 H986 0.931 . S
C1002 C996 1.383 . S
C1002 C1001 1.379 . S
H1003 C997 0.959 . S
H1004 C997 0.961 . S
H1005 C997 0.960 . S
H1006 C998 0.930 . S
H1007 C999 0.929 . S
H1008 C1016 0.929 . S
H1009 C1018 0.930 . S
H1010 C1020 0.930 . S
H1011 C1023 0.929 . S
H1012 C1026 0.930 . S
H1013 C1028 0.960 . S
H1014 C1028 0.960 . S
H1015 C1028 0.960 . S
C1016 H1008 0.929 . S
C1016 C1017 1.377 . S
C1016 C1018 1.384 . S
C1017 C1016 1.377 . S
C1017 C1023 1.390 . S
C1018 H1009 0.930 . S
C1018 C1016 1.384 . S
C1018 C1019 1.372 . S
C1019 C1018 1.372 . S
C1019 C1020 1.400 . S
C1019 C1024 1.490 . S
C1020 H1010 0.930 . S
C1020 C1019 1.400 . S
C1020 C1023 1.386 . S
H1021 C1037 0.930 . S
H1022 C1038 0.931 . S
C1023 H1011 0.929 . S
C1023 C1017 1.390 . S
C1023 C1020 1.386 . S
C1024 C1019 1.490 . S
C1024 C1026 1.395 . S
C1024 C1027 1.403 . S
H1025 C1031 0.930 . S
C1026 H1012 0.930 . S
C1026 C1024 1.395 . S
C1026 C1029 1.403 . S
C1027 C1024 1.403 . S
C1027 C1028 1.524 . S
C1027 C1031 1.400 . S
C1028 H1013 0.960 . S
C1028 H1014 0.960 . S
C1028 H1015 0.960 . S
C1028 C1027 1.524 . S
C1029 C1026 1.403 . S
C1029 C1030 1.392 . S
C1029 C1033 1.495 . S
C1030 C1029 1.392 . S
C1030 C1031 1.385 . S
C1030 C1032 1.478 . S
C1031 H1025 0.930 . S
C1031 C1027 1.400 . S
C1031 C1030 1.385 . S
C1032 C1030 1.478 . S
C1032 C1034 1.381 . S
C1032 C1038 1.383 . S
C1033 C1029 1.495 . S
C1033 H1039 0.959 . S
C1033 H1040 0.961 . S
C1033 H1041 0.960 . S
C1034 C1032 1.381 . S
C1034 C1035 1.394 . S
C1034 H1042 0.930 . S
C1035 C1034 1.394 . S
C1035 C1036 1.383 . S
C1035 H1043 0.929 . S
C1036 C1035 1.383 . S
C1036 C1037 1.377 . S
C1037 H1021 0.930 . S
C1037 C1036 1.377 . S
C1037 C1038 1.379 . S
C1038 H1022 0.931 . S
C1038 C1032 1.383 . S
C1038 C1037 1.379 . S
H1039 C1033 0.959 . S
H1040 C1033 0.961 . S
H1041 C1033 0.960 . S
H1042 C1034 0.930 . S
H1043 C1035 0.929 . S
H1044 C1052 0.929 . S
H1045 C1054 0.930 . S
H1046 C1056 0.930 . S
H1047 C1059 0.929 . S
H1048 C1062 0.930 . S
H1049 C1064 0.960 . S
H1050 C1064 0.960 . S
H1051 C1064 0.960 . S
C1052 H1044 0.929 . S
C1052 C1053 1.377 . S
C1052 C1054 1.384 . S
C1053 C1052 1.377 . S
C1053 C1059 1.390 . S
C1054 H1045 0.930 . S
C1054 C1052 1.384 . S
C1054 C1055 1.372 . S
C1055 C1054 1.372 . S
C1055 C1056 1.400 . S
C1055 C1060 1.490 . S
C1056 H1046 0.930 . S
C1056 C1055 1.400 . S
C1056 C1059 1.386 . S
H1057 C1073 0.930 . S
H1058 C1074 0.931 . S
C1059 H1047 0.929 . S
C1059 C1053 1.390 . S
C1059 C1056 1.386 . S
C1060 C1055 1.490 . S
C1060 C1062 1.395 . S
C1060 C1063 1.403 1_556 S
H1061 C1067 0.930 . S
C1062 H1048 0.930 . S
C1062 C1060 1.395 . S
C1062 C1065 1.403 1_565 S
C1063 C1060 1.403 1_554 S
C1063 C1064 1.524 . S
C1063 C1067 1.400 1_565 S
C1064 H1049 0.960 . S
C1064 H1050 0.960 . S
C1064 H1051 0.960 . S
C1064 C1063 1.524 . S
C1065 C1062 1.403 1_545 S
C1065 C1066 1.392 1_556 S
C1065 C1069 1.495 . S
C1066 C1065 1.392 1_554 S
C1066 C1067 1.385 . S
C1066 C1068 1.478 . S
C1067 H1061 0.930 . S
C1067 C1063 1.400 1_545 S
C1067 C1066 1.385 . S
C1068 C1066 1.478 . S
C1068 C1070 1.381 . S
C1068 C1074 1.383 . S
C1069 C1065 1.495 . S
C1069 H1075 0.959 . S
C1069 H1076 0.961 . S
C1069 H1077 0.960 . S
C1070 C1068 1.381 . S
C1070 C1071 1.394 . S
C1070 H1078 0.930 . S
C1071 C1070 1.394 . S
C1071 C1072 1.383 . S
C1071 H1079 0.929 . S
C1072 C1071 1.383 . S
C1072 C1073 1.377 . S
C1073 H1057 0.930 . S
C1073 C1072 1.377 . S
C1073 C1074 1.379 . S
C1074 H1058 0.931 . S
C1074 C1068 1.383 . S
C1074 C1073 1.379 . S
H1075 C1069 0.959 . S
H1076 C1069 0.961 . S
H1077 C1069 0.960 . S
H1078 C1070 0.930 . S
H1079 C1071 0.929 . S
H1080 C1088 0.929 . S
H1081 C1090 0.930 . S
H1082 C1092 0.930 . S
H1083 C1095 0.929 . S
H1084 C1098 0.930 . S
H1085 C1100 0.960 . S
H1086 C1100 0.960 . S
H1087 C1100 0.960 . S
C1088 H1080 0.929 . S
C1088 C1089 1.377 . S
C1088 C1090 1.384 . S
C1089 C1088 1.377 . S
C1089 C1095 1.390 . S
C1090 H1081 0.930 . S
C1090 C1088 1.384 . S
C1090 C1091 1.372 . S
C1091 C1090 1.372 . S
C1091 C1092 1.400 . S
C1091 C1096 1.490 . S
C1092 H1082 0.930 . S
C1092 C1091 1.400 . S
C1092 C1095 1.386 . S
H1093 C1109 0.930 . S
H1094 C1110 0.931 . S
C1095 H1083 0.929 . S
C1095 C1089 1.390 . S
C1095 C1092 1.386 . S
C1096 C1091 1.490 . S
C1096 C1098 1.395 . S
C1096 C1099 1.403 . S
H1097 C1103 0.930 . S
C1098 H1084 0.930 . S
C1098 C1096 1.395 . S
C1098 C1101 1.403 . S
C1099 C1096 1.403 . S
C1099 C1100 1.524 . S
C1099 C1103 1.400 . S
C1100 H1085 0.960 . S
C1100 H1086 0.960 . S
C1100 H1087 0.960 . S
C1100 C1099 1.524 . S
C1101 C1098 1.403 . S
C1101 C1102 1.392 . S
C1101 C1105 1.495 . S
C1102 C1101 1.392 . S
C1102 C1103 1.385 . S
C1102 C1104 1.478 . S
C1103 H1097 0.930 . S
C1103 C1099 1.400 . S
C1103 C1102 1.385 . S
C1104 C1102 1.478 . S
C1104 C1106 1.381 . S
C1104 C1110 1.383 . S
C1105 C1101 1.495 . S
C1105 H1111 0.959 . S
C1105 H1112 0.961 . S
C1105 H1113 0.960 . S
C1106 C1104 1.381 . S
C1106 C1107 1.394 . S
C1106 H1114 0.930 . S
C1107 C1106 1.394 . S
C1107 C1108 1.383 . S
C1107 H1115 0.929 . S
C1108 C1107 1.383 . S
C1108 C1109 1.377 . S
C1109 H1093 0.930 . S
C1109 C1108 1.377 . S
C1109 C1110 1.379 . S
C1110 H1094 0.931 . S
C1110 C1104 1.383 . S
C1110 C1109 1.379 . S
H1111 C1105 0.959 . S
H1112 C1105 0.961 . S
H1113 C1105 0.960 . S
H1114 C1106 0.930 . S
H1115 C1107 0.929 . S
H1116 C1124 0.929 . S
H1117 C1126 0.930 1_556 S
H1118 C1128 0.930 . S
H1119 C1131 0.929 . S
H1120 C1134 0.930 . S
H1121 C1136 0.960 1_455 S
H1122 C1136 0.960 . S
H1123 C1136 0.960 . S
C1124 H1116 0.929 . S
C1124 C1125 1.377 . S
C1124 C1126 1.384 . S
C1125 C1124 1.377 . S
C1125 C1131 1.390 . S
C1126 H1117 0.930 1_554 S
C1126 C1124 1.384 . S
C1126 C1127 1.372 . S
C1127 C1126 1.372 . S
C1127 C1128 1.400 . S
C1127 C1132 1.490 . S
C1128 H1118 0.930 . S
C1128 C1127 1.400 . S
C1128 C1131 1.386 . S
H1129 C1145 0.930 . S
H1130 C1146 0.905 1_554 S
C1131 H1119 0.929 . S
C1131 C1125 1.390 . S
C1131 C1128 1.386 . S
C1132 C1127 1.490 . S
C1132 C1134 1.395 1_554 S
C1132 C1135 1.403 . S
H1133 C1139 0.941 . S
C1134 H1120 0.930 . S
C1134 C1132 1.395 1_556 S
C1134 C1137 1.403 1_655 S
C1135 C1132 1.403 . S
C1135 C1136 1.524 . S
C1135 C1139 1.432 1_655 S
C1136 H1121 0.960 1_655 S
C1136 H1122 0.960 . S
C1136 H1123 0.960 . S
C1136 C1135 1.524 . S
C1137 C1134 1.403 1_455 S
C1137 C1138 1.392 . S
C1137 C1141 1.495 . S
C1138 C1137 1.392 . S
C1138 C1139 1.347 1_556 S
C1138 C1140 1.478 . S
C1139 H1133 0.941 . S
C1139 C1135 1.432 1_455 S
C1139 C1138 1.347 1_554 S
C1140 C1138 1.478 . S
C1140 C1142 1.381 . S
C1140 C1146 1.383 . S
C1141 C1137 1.495 . S
C1141 H1147 0.959 1_455 S
C1141 H1148 0.961 . S
C1141 H1149 0.960 . S
C1142 C1140 1.381 . S
C1142 C1143 1.394 . S
C1142 H1150 0.930 . S
C1143 C1142 1.394 . S
C1143 C1144 1.383 . S
C1143 H1151 0.929 . S
C1144 C1143 1.383 . S
C1144 C1145 1.377 . S
C1145 H1129 0.930 . S
C1145 C1144 1.377 . S
C1145 C1146 1.379 . S
C1146 H1130 0.905 1_556 S
C1146 C1140 1.383 . S
C1146 C1145 1.379 . S
H1147 C1141 0.959 1_655 S
H1148 C1141 0.961 . S
H1149 C1141 0.960 . S
H1150 C1142 0.930 . S
H1151 C1143 0.929 . S
H1152 C1160 0.929 . S
H1153 C1162 0.930 . S
H1154 C1164 0.930 . S
H1155 C1167 0.929 . S
H1156 C1170 0.930 . S
H1157 C1172 0.960 . S
H1158 C1172 0.960 . S
H1159 C1172 0.960 . S
C1160 H1152 0.929 . S
C1160 C1161 1.377 . S
C1160 C1162 1.384 . S
C1161 C1160 1.377 . S
C1161 C1167 1.390 . S
C1162 H1153 0.930 . S
C1162 C1160 1.384 . S
C1162 C1163 1.372 . S
C1163 C1162 1.372 . S
C1163 C1164 1.400 . S
C1163 C1168 1.490 . S
C1164 H1154 0.930 . S
C1164 C1163 1.400 . S
C1164 C1167 1.386 . S
H1165 C1181 0.930 . S
H1166 C1182 0.931 . S
C1167 H1155 0.929 . S
C1167 C1161 1.390 . S
C1167 C1164 1.386 . S
C1168 C1163 1.490 . S
C1168 C1170 1.395 . S
C1168 C1171 1.403 . S
H1169 C1175 0.930 . S
C1170 H1156 0.930 . S
C1170 C1168 1.395 . S
C1170 C1173 1.403 1_565 S
C1171 C1168 1.403 . S
C1171 C1172 1.524 . S
C1171 C1175 1.400 1_565 S
C1172 H1157 0.960 . S
C1172 H1158 0.960 . S
C1172 H1159 0.960 . S
C1172 C1171 1.524 . S
C1173 C1170 1.403 1_545 S
C1173 C1174 1.392 . S
C1173 C1177 1.495 . S
C1174 C1173 1.392 . S
C1174 C1175 1.385 . S
C1174 C1176 1.478 . S
C1175 H1169 0.930 . S
C1175 C1171 1.400 1_545 S
C1175 C1174 1.385 . S
C1176 C1174 1.478 . S
C1176 C1178 1.381 . S
C1176 C1182 1.383 . S
C1177 C1173 1.495 . S
C1177 H1183 0.959 . S
C1177 H1184 0.961 . S
C1177 H1185 0.960 . S
C1178 C1176 1.381 . S
C1178 C1179 1.394 . S
C1178 H1186 0.930 . S
C1179 C1178 1.394 . S
C1179 C1180 1.383 . S
C1179 H1187 0.929 . S
C1180 C1179 1.383 . S
C1180 C1181 1.377 . S
C1181 H1165 0.930 . S
C1181 C1180 1.377 . S
C1181 C1182 1.379 . S
C1182 H1166 0.931 . S
C1182 C1176 1.383 . S
C1182 C1181 1.379 . S
H1183 C1177 0.959 . S
H1184 C1177 0.961 . S
H1185 C1177 0.960 . S
H1186 C1178 0.930 . S
H1187 C1179 0.929 . S
H1188 C1196 0.929 . S
H1189 C1198 0.930 . S
H1190 C1200 0.930 . S
H1191 C1203 0.929 . S
H1192 C1206 0.930 . S
H1193 C1208 0.960 . S
H1194 C1208 0.960 . S
H1195 C1208 0.960 . S
C1196 H1188 0.929 . S
C1196 C1197 1.377 . S
C1196 C1198 1.384 . S
C1197 C1196 1.377 . S
C1197 C1203 1.390 . S
C1198 H1189 0.930 . S
C1198 C1196 1.384 . S
C1198 C1199 1.372 . S
C1199 C1198 1.372 . S
C1199 C1200 1.400 . S
C1199 C1204 1.490 . S
C1200 H1190 0.930 . S
C1200 C1199 1.400 . S
C1200 C1203 1.386 . S
H1201 C1217 0.930 . S
H1202 C1218 0.931 . S
C1203 H1191 0.929 . S
C1203 C1197 1.390 . S
C1203 C1200 1.386 . S
C1204 C1199 1.490 . S
C1204 C1206 1.395 . S
C1204 C1207 1.403 . S
H1205 C1211 0.930 . S
C1206 H1192 0.930 . S
C1206 C1204 1.395 . S
C1206 C1209 1.403 1_554 S
C1207 C1204 1.403 . S
C1207 C1208 1.524 . S
C1207 C1211 1.400 1_554 S
C1208 H1193 0.960 . S
C1208 H1194 0.960 . S
C1208 H1195 0.960 . S
C1208 C1207 1.524 . S
C1209 C1206 1.403 1_556 S
C1209 C1210 1.392 . S
C1209 C1213 1.495 . S
C1210 C1209 1.392 . S
C1210 C1211 1.385 . S
C1210 C1212 1.478 . S
C1211 H1205 0.930 . S
C1211 C1207 1.400 1_556 S
C1211 C1210 1.385 . S
C1212 C1210 1.478 . S
C1212 C1214 1.381 . S
C1212 C1218 1.383 . S
C1213 C1209 1.495 . S
C1213 H1219 0.959 . S
C1213 H1220 0.961 . S
C1213 H1221 0.960 . S
C1214 C1212 1.381 . S
C1214 C1215 1.394 . S
C1214 H1222 0.919 1_556 S
C1215 C1214 1.394 . S
C1215 C1216 1.383 . S
C1215 H1223 0.929 . S
C1216 C1215 1.383 . S
C1216 C1217 1.377 . S
C1217 H1201 0.930 . S
C1217 C1216 1.377 . S
C1217 C1218 1.379 . S
C1218 H1202 0.931 . S
C1218 C1212 1.383 . S
C1218 C1217 1.379 . S
H1219 C1213 0.959 . S
H1220 C1213 0.961 . S
H1221 C1213 0.960 . S
H1222 C1214 0.919 1_554 S
H1223 C1215 0.929 . S
H1224 C1232 0.929 . S
H1225 C1234 0.930 . S
H1226 C1236 0.930 . S
H1227 C1239 0.929 . S
H1228 C1242 0.929 . S
H1229 C1244 0.960 . S
H1230 C1244 0.960 . S
H1231 C1244 0.960 . S
C1232 H1224 0.929 . S
C1232 C1233 1.377 . S
C1232 C1234 1.384 . S
C1233 C1232 1.377 . S
C1233 C1239 1.390 . S
C1234 H1225 0.930 . S
C1234 C1232 1.384 . S
C1234 C1235 1.372 . S
C1235 C1234 1.372 . S
C1235 C1236 1.400 . S
C1235 C1240 1.490 . S
C1236 H1226 0.930 . S
C1236 C1235 1.400 . S
C1236 C1239 1.386 . S
H1237 C1253 0.930 . S
H1238 C1254 0.931 . S
C1239 H1227 0.929 . S
C1239 C1233 1.390 . S
C1239 C1236 1.386 . S
C1240 C1235 1.490 . S
C1240 C1242 1.432 . S
C1240 C1243 1.403 . S
H1241 C1247 0.930 . S
C1242 H1228 0.929 . S
C1242 C1240 1.432 . S
C1242 C1245 1.369 1_655 S
C1243 C1240 1.403 . S
C1243 C1244 1.524 . S
C1243 C1247 1.400 1_655 S
C1244 H1229 0.960 . S
C1244 H1230 0.960 . S
C1244 H1231 0.960 . S
C1244 C1243 1.524 . S
C1245 C1242 1.369 1_455 S
C1245 C1246 1.392 . S
C1245 C1249 1.495 . S
C1246 C1245 1.392 . S
C1246 C1247 1.385 . S
C1246 C1248 1.478 . S
C1247 H1241 0.930 . S
C1247 C1243 1.400 1_455 S
C1247 C1246 1.385 . S
C1248 C1246 1.478 . S
C1248 C1250 1.381 . S
C1248 C1254 1.383 . S
C1249 C1245 1.495 . S
C1249 H1255 0.959 . S
C1249 H1256 0.961 . S
C1249 H1257 0.960 . S
C1250 C1248 1.381 . S
C1250 C1251 1.394 . S
C1250 H1258 0.930 . S
C1251 C1250 1.394 . S
C1251 C1252 1.383 . S
C1251 H1259 0.929 . S
C1252 C1251 1.383 . S
C1252 C1253 1.377 . S
C1253 H1237 0.930 . S
C1253 C1252 1.377 . S
C1253 C1254 1.379 . S
C1254 H1238 0.931 . S
C1254 C1248 1.383 . S
C1254 C1253 1.379 . S
H1255 C1249 0.959 . S
H1256 C1249 0.961 . S
H1257 C1249 0.960 . S
H1258 C1250 0.930 . S
H1259 C1251 0.929 . S
H1260 C1268 0.929 . S
H1261 C1270 0.930 . S
H1262 C1272 0.930 . S
H1263 C1275 0.929 . S
H1264 C1278 0.930 . S
H1265 C1280 0.960 1_565 S
H1266 C1280 0.960 . S
H1267 C1280 0.960 . S
C1268 H1260 0.929 . S
C1268 C1269 1.377 . S
C1268 C1270 1.384 . S
C1269 C1268 1.377 . S
C1269 C1275 1.390 . S
C1270 H1261 0.930 . S
C1270 C1268 1.384 . S
C1270 C1271 1.372 . S
C1271 C1270 1.372 . S
C1271 C1272 1.400 . S
C1271 C1276 1.490 . S
C1272 H1262 0.930 . S
C1272 C1271 1.400 . S
C1272 C1275 1.386 . S
H1273 C1289 0.930 . S
H1274 C1290 0.931 . S
C1275 H1263 0.929 . S
C1275 C1269 1.390 . S
C1275 C1272 1.386 . S
C1276 C1271 1.490 . S
C1276 C1278 1.395 . S
C1276 C1279 1.403 . S
H1277 C1283 0.930 . S
C1278 H1264 0.930 . S
C1278 C1276 1.395 . S
C1278 C1281 1.403 1_544 S
C1279 C1276 1.403 . S
C1279 C1280 1.524 . S
C1279 C1283 1.400 1_544 S
C1280 H1265 0.960 1_545 S
C1280 H1266 0.960 . S
C1280 H1267 0.960 . S
C1280 C1279 1.524 . S
C1281 C1278 1.403 1_566 S
C1281 C1282 1.392 . S
C1281 C1285 1.495 . S
C1282 C1281 1.392 . S
C1282 C1283 1.385 . S
C1282 C1284 1.478 . S
C1283 H1277 0.930 . S
C1283 C1279 1.400 1_566 S
C1283 C1282 1.385 . S
C1284 C1282 1.478 . S
C1284 C1286 1.381 . S
C1284 C1290 1.383 . S
C1285 C1281 1.495 . S
C1285 H1291 0.959 1_565 S
C1285 H1292 0.961 . S
C1285 H1293 0.960 . S
C1286 C1284 1.381 . S
C1286 C1287 1.394 . S
C1286 H1294 0.930 . S
C1287 C1286 1.394 . S
C1287 C1288 1.383 . S
C1287 H1295 0.929 . S
C1288 C1287 1.383 . S
C1288 C1289 1.377 . S
C1289 H1273 0.930 . S
C1289 C1288 1.377 . S
C1289 C1290 1.379 . S
C1290 H1274 0.931 . S
C1290 C1284 1.383 . S
C1290 C1289 1.379 . S
H1291 C1285 0.959 1_545 S
H1292 C1285 0.961 . S
H1293 C1285 0.960 . S
H1294 C1286 0.930 . S
H1295 C1287 0.929 . S
H1296 C1304 0.929 . S
H1297 C1306 0.930 . S
H1298 C1308 0.930 . S
H1299 C1311 0.929 . S
H1300 C1314 0.930 . S
H1301 C1316 0.960 . S
H1302 C1316 0.960 . S
H1303 C1316 0.960 . S
C1304 H1296 0.929 . S
C1304 C1305 1.377 . S
C1304 C1306 1.384 . S
C1305 C1304 1.377 . S
C1305 C1311 1.390 . S
C1306 H1297 0.930 . S
C1306 C1304 1.384 . S
C1306 C1307 1.372 . S
C1307 C1306 1.372 . S
C1307 C1308 1.400 . S
C1307 C1312 1.490 . S
C1308 H1298 0.930 . S
C1308 C1307 1.400 . S
C1308 C1311 1.386 . S
H1309 C1325 0.930 . S
H1310 C1326 0.931 . S
C1311 H1299 0.929 . S
C1311 C1305 1.390 . S
C1311 C1308 1.386 . S
C1312 C1307 1.490 . S
C1312 C1314 1.395 . S
C1312 C1315 1.403 . S
H1313 C1319 0.930 . S
C1314 H1300 0.930 . S
C1314 C1312 1.395 . S
C1314 C1317 1.403 . S
C1315 C1312 1.403 . S
C1315 C1316 1.524 . S
C1315 C1319 1.400 . S
C1316 H1301 0.960 . S
C1316 H1302 0.960 . S
C1316 H1303 0.960 . S
C1316 C1315 1.524 . S
C1317 C1314 1.403 . S
C1317 C1318 1.392 . S
C1317 C1321 1.495 . S
C1318 C1317 1.392 . S
C1318 C1319 1.385 . S
C1318 C1320 1.478 . S
C1319 H1313 0.930 . S
C1319 C1315 1.400 . S
C1319 C1318 1.385 . S
C1320 C1318 1.478 . S
C1320 C1322 1.381 . S
C1320 C1326 1.383 . S
C1321 C1317 1.495 . S
C1321 H1327 0.959 . S
C1321 H1328 0.961 . S
C1321 H1329 0.960 . S
C1322 C1320 1.381 . S
C1322 C1323 1.394 . S
C1322 H1330 0.930 . S
C1323 C1322 1.394 . S
C1323 C1324 1.383 . S
C1323 H1331 0.929 . S
C1324 C1323 1.383 . S
C1324 C1325 1.377 . S
C1325 H1309 0.930 . S
C1325 C1324 1.377 . S
C1325 C1326 1.379 . S
C1326 H1310 0.931 . S
C1326 C1320 1.383 . S
C1326 C1325 1.379 . S
H1327 C1321 0.959 . S
H1328 C1321 0.961 . S
H1329 C1321 0.960 . S
H1330 C1322 0.930 . S
H1331 C1323 0.929 . S
H1332 C1340 0.929 . S
H1333 C1342 0.930 . S
H1334 C1344 0.930 . S
H1335 C1347 0.929 . S
H1336 C1350 0.930 . S
H1337 C1352 0.960 . S
H1338 C1352 0.960 1_655 S
H1339 C1352 0.960 . S
C1340 H1332 0.929 . S
C1340 C1341 1.377 . S
C1340 C1342 1.384 . S
C1341 C1340 1.377 . S
C1341 C1347 1.390 . S
C1342 H1333 0.930 . S
C1342 C1340 1.384 . S
C1342 C1343 1.372 . S
C1343 C1342 1.372 . S
C1343 C1344 1.400 . S
C1343 C1348 1.490 . S
C1344 H1334 0.930 . S
C1344 C1343 1.400 . S
C1344 C1347 1.386 . S
H1345 C1361 0.930 . S
H1346 C1362 0.931 . S
C1347 H1335 0.929 . S
C1347 C1341 1.390 . S
C1347 C1344 1.386 . S
C1348 C1343 1.490 . S
C1348 C1350 1.395 1_554 S
C1348 C1351 1.403 1_655 S
H1349 C1355 0.930 . S
C1350 H1336 0.930 . S
C1350 C1348 1.395 1_556 S
C1350 C1353 1.403 . S
C1351 C1348 1.403 1_455 S
C1351 C1352 1.524 . S
C1351 C1355 1.400 . S
C1352 H1337 0.960 . S
C1352 H1338 0.960 1_455 S
C1352 H1339 0.960 . S
C1352 C1351 1.524 . S
C1353 C1350 1.403 . S
C1353 C1354 1.392 1_655 S
C1353 C1357 1.495 . S
C1354 C1353 1.392 1_455 S
C1354 C1355 1.385 1_556 S
C1354 C1356 1.478 . S
C1355 H1349 0.930 . S
C1355 C1351 1.400 . S
C1355 C1354 1.385 1_554 S
C1356 C1354 1.478 . S
C1356 C1358 1.381 . S
C1356 C1362 1.383 . S
C1357 C1353 1.495 . S
C1357 H1363 0.959 . S
C1357 H1364 0.961 1_655 S
C1357 H1365 0.960 . S
C1358 C1356 1.381 . S
C1358 C1359 1.394 . S
C1358 H1366 0.930 . S
C1359 C1358 1.394 . S
C1359 C1360 1.383 . S
C1359 H1367 0.929 . S
C1360 C1359 1.383 . S
C1360 C1361 1.377 . S
C1361 H1345 0.930 . S
C1361 C1360 1.377 . S
C1361 C1362 1.379 . S
C1362 H1346 0.931 . S
C1362 C1356 1.383 . S
C1362 C1361 1.379 . S
H1363 C1357 0.959 . S
H1364 C1357 0.961 1_455 S
H1365 C1357 0.960 . S
H1366 C1358 0.930 . S
H1367 C1359 0.929 . S
H1368 C1376 0.929 . S
H1369 C1378 0.930 . S
H1370 C1380 0.930 . S
H1371 C1383 0.929 . S
H1372 C1386 0.930 . S
H1373 C1388 0.960 . S
H1374 C1388 0.960 1_565 S
H1375 C1388 0.960 . S
C1376 H1368 0.929 . S
C1376 C1377 1.377 . S
C1376 C1378 1.384 . S
C1377 C1376 1.377 . S
C1377 C1383 1.390 . S
C1378 H1369 0.930 . S
C1378 C1376 1.384 . S
C1378 C1379 1.372 . S
C1379 C1378 1.372 . S
C1379 C1380 1.400 . S
C1379 C1384 1.490 . S
C1380 H1370 0.930 . S
C1380 C1379 1.400 . S
C1380 C1383 1.386 . S
H1381 C1397 0.930 . S
H1382 C1398 0.931 . S
C1383 H1371 0.929 . S
C1383 C1377 1.390 . S
C1383 C1380 1.386 . S
C1384 C1379 1.490 . S
C1384 C1386 1.395 . S
C1384 C1387 1.403 1_565 S
H1385 C1391 0.930 . S
C1386 H1372 0.930 . S
C1386 C1384 1.395 . S
C1386 C1389 1.403 . S
C1387 C1384 1.403 1_545 S
C1387 C1388 1.524 . S
C1387 C1391 1.400 . S
C1388 H1373 0.960 . S
C1388 H1374 0.960 1_545 S
C1388 H1375 0.960 . S
C1388 C1387 1.524 . S
C1389 C1386 1.403 . S
C1389 C1390 1.392 1_565 S
C1389 C1393 1.495 . S
C1390 C1389 1.392 1_545 S
C1390 C1391 1.385 . S
C1390 C1392 1.478 . S
C1391 H1385 0.930 . S
C1391 C1387 1.400 . S
C1391 C1390 1.385 . S
C1392 C1390 1.478 . S
C1392 C1394 1.381 . S
C1392 C1398 1.383 . S
C1393 C1389 1.495 . S
C1393 H1399 0.959 . S
C1393 H1400 0.940 1_565 S
C1393 H1401 0.960 . S
C1394 C1392 1.381 . S
C1394 C1395 1.394 . S
C1394 H1402 0.930 . S
C1395 C1394 1.394 . S
C1395 C1396 1.383 . S
C1395 H1403 0.929 . S
C1396 C1395 1.383 . S
C1396 C1397 1.377 . S
C1397 H1381 0.930 . S
C1397 C1396 1.377 . S
C1397 C1398 1.379 . S
C1398 H1382 0.931 . S
C1398 C1392 1.383 . S
C1398 C1397 1.379 . S
H1399 C1393 0.959 . S
H1400 C1393 0.940 1_545 S
H1401 C1393 0.960 . S
H1402 C1394 0.930 . S
H1403 C1395 0.929 . S
H1404 C1412 0.929 . S
H1405 C1414 0.930 . S
H1406 C1416 0.930 . S
H1407 C1419 0.929 . S
H1408 C1422 0.930 . S
H1409 C1424 0.960 . S
H1410 C1424 0.960 . S
H1411 C1424 0.960 . S
C1412 H1404 0.929 . S
C1412 C1413 1.377 . S
C1412 C1414 1.384 . S
C1413 C1412 1.377 . S
C1413 C1419 1.390 . S
C1414 H1405 0.930 . S
C1414 C1412 1.384 . S
C1414 C1415 1.372 . S
C1415 C1414 1.372 . S
C1415 C1416 1.400 . S
C1415 C1420 1.490 . S
C1416 H1406 0.930 . S
C1416 C1415 1.400 . S
C1416 C1419 1.386 . S
H1417 C1433 0.930 . S
H1418 C1434 0.931 . S
C1419 H1407 0.929 . S
C1419 C1413 1.390 . S
C1419 C1416 1.386 . S
C1420 C1415 1.490 . S
C1420 C1422 1.395 . S
C1420 C1423 1.403 1_556 S
H1421 C1427 0.930 . S
C1422 H1408 0.930 . S
C1422 C1420 1.395 . S
C1422 C1425 1.403 . S
C1423 C1420 1.403 1_554 S
C1423 C1424 1.524 . S
C1423 C1427 1.400 . S
C1424 H1409 0.960 . S
C1424 H1410 0.960 . S
C1424 H1411 0.960 . S
C1424 C1423 1.524 . S
C1425 C1422 1.403 . S
C1425 C1426 1.392 1_556 S
C1425 C1429 1.495 . S
C1426 C1425 1.392 1_554 S
C1426 C1427 1.385 . S
C1426 C1428 1.478 . S
C1427 H1421 0.930 . S
C1427 C1423 1.400 . S
C1427 C1426 1.385 . S
C1428 C1426 1.478 . S
C1428 C1430 1.381 . S
C1428 C1434 1.383 . S
C1429 C1425 1.495 . S
C1429 H1435 0.959 . S
C1429 H1436 0.961 . S
C1429 H1437 0.960 . S
C1430 C1428 1.381 . S
C1430 C1431 1.394 . S
C1430 H1438 0.930 . S
C1431 C1430 1.394 . S
C1431 C1432 1.383 . S
C1431 H1439 0.929 . S
C1432 C1431 1.383 . S
C1432 C1433 1.377 . S
C1433 H1417 0.930 . S
C1433 C1432 1.377 . S
C1433 C1434 1.379 . S
C1434 H1418 0.931 . S
C1434 C1428 1.383 . S
C1434 C1433 1.379 . S
H1435 C1429 0.959 . S
H1436 C1429 0.961 . S
H1437 C1429 0.960 . S
H1438 C1430 0.930 . S
H1439 C1431 0.929 . S
H1440 C1448 0.929 . S
H1441 C1450 0.930 . S
H1442 C1452 0.930 . S
H1443 C1455 0.929 . S
H1444 C1458 0.930 . S
H1445 C1460 0.960 . S
H1446 C1460 0.960 1_455 S
H1447 C1460 0.960 . S
C1448 H1440 0.929 . S
C1448 C1449 1.377 . S
C1448 C1450 1.384 . S
C1449 C1448 1.377 . S
C1449 C1455 1.390 . S
C1450 H1441 0.930 . S
C1450 C1448 1.384 . S
C1450 C1451 1.372 . S
C1451 C1450 1.372 . S
C1451 C1452 1.400 . S
C1451 C1456 1.490 . S
C1452 H1442 0.930 . S
C1452 C1451 1.400 . S
C1452 C1455 1.386 . S
H1453 C1469 0.930 . S
H1454 C1470 0.931 . S
C1455 H1443 0.929 . S
C1455 C1449 1.390 . S
C1455 C1452 1.386 . S
C1456 C1451 1.490 . S
C1456 C1458 1.395 . S
C1456 C1459 1.403 1_455 S
H1457 C1463 0.930 . S
C1458 H1444 0.930 . S
C1458 C1456 1.395 . S
C1458 C1461 1.403 . S
C1459 C1456 1.403 1_655 S
C1459 C1460 1.524 . S
C1459 C1463 1.400 . S
C1460 H1445 0.960 . S
C1460 H1446 0.960 1_655 S
C1460 H1447 0.960 . S
C1460 C1459 1.524 . S
C1461 C1458 1.403 . S
C1461 C1462 1.392 1_455 S
C1461 C1465 1.495 . S
C1462 C1461 1.392 1_655 S
C1462 C1463 1.385 . S
C1462 C1464 1.478 . S
C1463 H1457 0.930 . S
C1463 C1459 1.400 . S
C1463 C1462 1.385 . S
C1464 C1462 1.478 . S
C1464 C1466 1.381 . S
C1464 C1470 1.383 . S
C1465 C1461 1.495 . S
C1465 H1471 0.959 . S
C1465 H1472 0.959 1_455 S
C1465 H1473 0.960 . S
C1466 C1464 1.381 . S
C1466 C1467 1.394 . S
C1466 H1474 0.930 . S
C1467 C1466 1.394 . S
C1467 C1468 1.383 . S
C1467 H1475 0.929 . S
C1468 C1467 1.383 . S
C1468 C1469 1.377 . S
C1469 H1453 0.930 . S
C1469 C1468 1.377 . S
C1469 C1470 1.379 . S
C1470 H1454 0.931 . S
C1470 C1464 1.383 . S
C1470 C1469 1.379 . S
H1471 C1465 0.959 . S
H1472 C1465 0.959 1_655 S
H1473 C1465 0.960 . S
H1474 C1466 0.930 . S
H1475 C1467 0.929 . S
C405 C74 1.504 . S
C424 N14 1.527 . S
C441 N47 1.540 . S
C460 C107 1.491 . S
C477 N80 1.538 . S
C496 C140 1.526 . S
C513 N113 1.540 . S
C532 C173 1.494 . S
C549 N146 1.536 . S
C568 C8 1.500 . S
C585 C41 1.511 . S
C604 N179 1.532 . S
C621 N212 1.536 . S
C640 C338 1.508 . S
C657 N245 1.536 . S
C676 C371 1.517 . S
C693 C206 1.511 . S
C712 N278 1.537 . S
C729 C239 1.503 . S
C748 N311 1.540 . S
C765 C272 1.511 . S
C784 N344 1.533 . S
C801 C305 1.508 . S
C820 N377 1.524 . S
C837 C281 1.203 . S
C856 C17 1.185 . S
C873 C50 1.199 . S
C892 C314 1.196 . S
C909 C347 1.201 . S
C928 C83 1.191 . S
C945 C380 1.200 . S
C964 C116 1.193 . S
C981 C149 1.199 . S
C1000 C215 1.202 . S
C1017 C248 1.196 . S
C1036 C182 1.214 . S
C1053 C259 1.208 . S
C1072 C28 1.213 . S
C1089 C61 1.207 . S
C1108 C292 1.203 . S
C1125 C94 1.211 . S
C1144 C325 1.189 . S
C1161 C127 1.211 . S
C1180 C358 1.199 . S
C1197 C160 1.205 . S
C1216 C391 1.216 . S
C1233 C226 1.208 . S
C1252 C193 1.214 . S
C1269 N71 1.490 . S
C1288 N368 1.457 . S
C1305 N203 1.480 . S
C1324 N104 1.504 . S
C1341 N137 1.478 . S
C1360 N236 1.517 . S
C1377 N170 1.479 . S
C1396 N269 1.514 . S
C1413 N302 1.493 . S
C1432 N5 1.453 . S
C1449 N38 1.479 . S
C1468 N335 1.515 . S
