# Generated by pormake.
# Topology smc, (6)-cn, num edge types: 1
# Building blocks:
#     Node 0, Type 0, BuildingBlock: INOVEN_clean_sbu_0, # of connection points: 6
#     Node 1, Type 0, BuildingBlock: INOVEN_clean_sbu_0, # of connection points: 6
#     Node 2, Type 0, BuildingBlock: INOVEN_clean_sbu_0, # of connection points: 6
#     Node 3, Type 0, BuildingBlock: INOVEN_clean_sbu_0, # of connection points: 6
#     Node 4, Type 0, BuildingBlock: INOVEN_clean_sbu_0, # of connection points: 6
#     Node 5, Type 0, BuildingBlock: INOVEN_clean_sbu_0, # of connection points: 6
#     Node 6, Type 0, BuildingBlock: INOVEN_clean_sbu_0, # of connection points: 6
#     Node 7, Type 0, BuildingBlock: INOVEN_clean_sbu_0, # of connection points: 6
#     Node 8, Type 0, BuildingBlock: INOVEN_clean_sbu_0, # of connection points: 6
#     Edge 9, Type (0, 0), BuildingBlock: EZIPEK_clean_linker_0, # of connection points: 2
#     Edge 10, Type (0, 0), BuildingBlock: EZIPEK_clean_linker_0, # of connection points: 2
#     Edge 11, Type (0, 0), BuildingBlock: EZIPEK_clean_linker_0, # of connection points: 2
#     Edge 12, Type (0, 0), BuildingBlock: EZIPEK_clean_linker_0, # of connection points: 2
#     Edge 13, Type (0, 0), BuildingBlock: EZIPEK_clean_linker_0, # of connection points: 2
#     Edge 14, Type (0, 0), BuildingBlock: EZIPEK_clean_linker_0, # of connection points: 2
#     Edge 15, Type (0, 0), BuildingBlock: EZIPEK_clean_linker_0, # of connection points: 2
#     Edge 16, Type (0, 0), BuildingBlock: EZIPEK_clean_linker_0, # of connection points: 2
#     Edge 17, Type (0, 0), BuildingBlock: EZIPEK_clean_linker_0, # of connection points: 2
#     Edge 18, Type (0, 0), BuildingBlock: EZIPEK_clean_linker_0, # of connection points: 2
#     Edge 19, Type (0, 0), BuildingBlock: EZIPEK_clean_linker_0, # of connection points: 2
#     Edge 20, Type (0, 0), BuildingBlock: EZIPEK_clean_linker_0, # of connection points: 2
#     Edge 21, Type (0, 0), BuildingBlock: EZIPEK_clean_linker_0, # of connection points: 2
#     Edge 22, Type (0, 0), BuildingBlock: EZIPEK_clean_linker_0, # of connection points: 2
#     Edge 23, Type (0, 0), BuildingBlock: EZIPEK_clean_linker_0, # of connection points: 2
#     Edge 24, Type (0, 0), BuildingBlock: EZIPEK_clean_linker_0, # of connection points: 2
#     Edge 25, Type (0, 0), BuildingBlock: EZIPEK_clean_linker_0, # of connection points: 2
#     Edge 26, Type (0, 0), BuildingBlock: EZIPEK_clean_linker_0, # of connection points: 2
#     Edge 27, Type (0, 0), BuildingBlock: EZIPEK_clean_linker_0, # of connection points: 2
#     Edge 28, Type (0, 0), BuildingBlock: EZIPEK_clean_linker_0, # of connection points: 2
#     Edge 29, Type (0, 0), BuildingBlock: EZIPEK_clean_linker_0, # of connection points: 2
#     Edge 30, Type (0, 0), BuildingBlock: EZIPEK_clean_linker_0, # of connection points: 2
#     Edge 31, Type (0, 0), BuildingBlock: EZIPEK_clean_linker_0, # of connection points: 2
#     Edge 32, Type (0, 0), BuildingBlock: EZIPEK_clean_linker_0, # of connection points: 2
#     Edge 33, Type (0, 0), BuildingBlock: EZIPEK_clean_linker_0, # of connection points: 2
#     Edge 34, Type (0, 0), BuildingBlock: EZIPEK_clean_linker_0, # of connection points: 2
#     Edge 35, Type (0, 0), BuildingBlock: EZIPEK_clean_linker_0, # of connection points: 2
# Relax obj value: 0.179
# Max RMSD: 0.337
# Mean RMSD: 0.337
data_MOF--net-smc--node1-INOVEN_clean_sbu_0--edge1-EZIPEK_clean_linker_0
_symmetry_space_group_name_H-M    P1
_symmetry_Int_Tables_number       1
_symmetry_cell_setting            triclinic
loop_
_symmetry_equiv_pos_as_xyz
'x, y, z'
_cell_length_a     31.520752
_cell_length_b     31.586833
_cell_length_c     28.503882
_cell_angle_alpha  90.021704
_cell_angle_beta   89.911031
_cell_angle_gamma 120.08525
loop_
_atom_site_label
_atom_site_type_symbol
_atom_site_fract_x
_atom_site_fract_y
_atom_site_fract_z
_atom_type_partial_charge
Gd0 Gd 0.06882 0.49263 1.0037 0.0
Gd1 Gd 1.0022 0.39477 0.03467 0.0
C2 C 0.12008 0.43214 0.01016 0.0
C3 C 0.11549 0.58694 0.98888 0.0
C4 C 0.15308 0.63988 0.99411 0.0
C5 C 0.19073 0.66383 0.96067 0.0
C6 C 0.14741 0.66853 0.02876 0.0
C7 C 0.21602 0.74319 0.99681 0.0
C8 C 0.17834 0.71946 0.02997 0.0
C9 C 0.22214 0.71486 0.96226 0.0
C10 C 1.02344 0.42743 0.93021 0.0
C11 C 0.96308 0.46947 0.03125 0.0
C12 C 0.9323 0.30516 0.05047 0.0
C13 C 0.87843 0.27849 0.0427 0.0
C14 C 0.84788 0.24124 0.07404 0.0
C15 C 0.85667 0.29255 1.00748 0.0
C16 C 0.77484 0.23154 0.03474 0.0
C17 C 0.80532 0.26914 1.00345 0.0
C18 C 0.79669 0.21792 0.07007 0.0
C19 C 0.05614 0.44762 0.11056 0.0
O20 O 0.12805 0.47668 0.01653 0.0
O21 O 0.07432 0.39365 0.01341 0.0
O22 O 0.12373 0.5568 0.96432 0.0
O23 O 0.08338 0.56512 0.02229 0.0
O24 O 0.06739 0.46455 0.92958 0.0
O25 O 1.00308 0.42952 0.96789 0.0
O26 O 0.95061 0.42401 0.02204 0.0
O27 O 1.0093 0.50216 0.03541 0.0
O28 O 0.94759 0.34004 0.08138 0.0
O29 O 0.96109 0.31794 0.01393 0.0
O30 O 1.00883 0.42271 0.1088 0.0
O31 O 0.07148 0.45176 0.06862 0.0
H32 H 0.1955 0.6432 0.93285 0.0
H33 H 0.11839 0.65175 0.0546 0.0
H34 H 0.17338 0.74041 0.05733 0.0
H35 H 0.25128 0.73227 0.93659 0.0
H36 H 0.86371 0.23042 0.10202 0.0
H37 H 0.87931 0.32184 0.98338 0.0
H38 H 0.7893 0.28011 0.97578 0.0
H39 H 0.77405 0.18897 0.09445 0.0
Gd40 Gd 0.57206 0.58754 1.00365 0.0
Gd41 Gd 0.67082 0.6234 0.02821 0.0
C42 C 0.63413 0.70159 0.00973 0.0
C43 C 0.47965 0.55798 0.9961 0.0
C44 C 0.42674 0.54131 0.9923 0.0
C45 C 0.39908 0.51059 0.95523 0.0
C46 C 0.40233 0.55029 0.02885 0.0
C47 C 0.3232 0.49653 0.99223 0.0
C48 C 0.35112 0.52871 0.02847 0.0
C49 C 0.34777 0.4879 0.9555 0.0
C50 C 0.63708 0.60602 0.92788 0.0
C51 C 0.59116 0.5037 0.03111 0.0
C52 C 0.75583 0.62934 0.0223 0.0
C53 C 0.77894 0.59896 0.03086 0.0
C54 C 0.81741 0.61416 0.06328 0.0
C55 C 0.76667 0.55755 1.00279 0.0
C56 C 0.83314 0.54994 0.03669 0.0
C57 C 0.79357 0.53344 1.00565 0.0
C58 C 0.84425 0.58977 0.06626 0.0
C59 C 0.63111 0.64245 0.10085 0.0
O60 O 0.59003 0.66379 0.0137 0.0
O61 O 0.67331 0.69585 0.00827 0.0
O62 O 0.51023 0.57798 0.96105 0.0
O63 O 0.49973 0.55639 0.03559 0.0
O64 O 0.59488 0.56636 0.93355 0.0
O65 O 0.64155 0.63172 0.96273 0.0
O66 O 0.63594 0.53997 0.04033 0.0
O67 O 0.55802 0.51292 0.01557 0.0
O68 O 0.74327 0.6467 0.05818 0.0
O69 O 0.72351 0.61411 0.98864 0.0
O70 O 0.67646 0.6687 0.08758 0.0
O71 O 0.60785 0.60184 0.07696 0.0
H72 H 0.41698 0.50235 0.92712 0.0
H73 H 0.42281 0.57329 0.05817 0.0
H74 H 0.33312 0.53602 0.05715 0.0
H75 H 0.32712 0.46314 0.92728 0.0
H76 H 0.82792 0.64601 0.08506 0.0
H77 H 0.73749 0.54473 0.97716 0.0
H78 H 0.78459 0.5029 0.98245 0.0
H79 H 0.87484 0.60308 0.09034 0.0
Gd80 Gd 0.48287 1.00209 1.00015 0.0
Gd81 Gd 0.44489 0.06585 0.02509 0.0
C82 C 0.36785 0.94765 1.00488 0.0
C83 C 0.51395 0.94037 0.99684 0.0
C84 C 0.53172 0.90488 0.99508 0.0
C85 C 0.56133 0.90599 0.95763 0.0
C86 C 0.52373 0.87327 0.03305 0.0
C87 C 0.5753 0.84528 0.99648 0.0
C88 C 0.54495 0.84345 0.03355 0.0
C89 C 0.58322 0.87682 0.95851 0.0
C90 C 0.46798 0.05038 0.92552 0.0
C91 C 0.56245 0.10884 0.02157 0.0
C92 C 0.41893 0.1319 0.02346 0.0
C93 C 0.44724 0.18667 0.0279 0.0
C94 C 0.47146 0.21044 0.06966 0.0
C95 C 0.45134 0.21601 0.98898 0.0
C96 C 0.50128 0.29108 0.03374 0.0
C97 C 0.47797 0.26737 0.99183 0.0
C98 C 0.49813 0.26194 0.07249 0.0
C99 C 0.45881 0.02786 0.10588 0.0
O100 O 0.40594 0.94502 0.99016 0.0
O101 O 0.3725 0.98992 0.02098 0.0
O102 O 0.50873 0.96104 0.95924 0.0
O103 O 0.49956 0.95118 0.03577 0.0
O104 O 0.5056 0.04419 0.92897 0.0
O105 O 0.44148 0.02987 0.96027 0.0
O106 O 0.5272 0.11839 0.01121 0.0
O107 O 0.55132 0.06379 0.02889 0.0
O108 O 0.41368 0.10527 0.06063 0.0
O109 O 0.4277 0.11412 0.98565 0.0
O110 O 0.47552 0.07387 0.09718 0.0
O111 O 0.4434 1.00528 0.06683 0.0
H112 H 0.56876 0.93047 0.92823 0.0
H113 H 0.50152 0.87199 0.06265 0.0
H114 H 0.5381 0.81925 0.06308 0.0
H115 H 0.60634 0.87872 0.92948 0.0
H116 H 0.46985 0.18931 0.10022 0.0
H117 H 0.43375 0.19912 0.95613 0.0
H118 H 0.47984 0.28869 0.96133 0.0
H119 H 0.51595 0.27913 0.10517 0.0
Gd120 Gd 0.73492 0.8333 0.33003 0.0
Gd121 Gd 0.66983 0.73472 0.35865 0.0
C122 C 0.79047 0.77601 0.33825 0.0
C123 C 0.78112 0.92828 0.32194 0.0
C124 C 0.82155 0.98041 0.32171 0.0
C125 C 0.83117 1.00906 0.28121 0.0
C126 C 0.84428 1.00439 0.3635 0.0
C127 C 0.89223 0.08374 0.32258 0.0
C128 C 0.87732 0.05495 0.36418 0.0
C129 C 0.86458 0.05974 0.28194 0.0
C130 C 0.68717 0.76901 0.25695 0.0
C131 C 0.62656 0.80711 0.35855 0.0
C132 C 0.60553 0.64231 0.36441 0.0
C133 C 0.55085 0.61512 0.36219 0.0
C134 C 0.52377 0.5777 0.39481 0.0
C135 C 0.5251 0.6278 0.33002 0.0
C136 C 0.44653 0.565 0.36239 0.0
C137 C 0.47349 0.60288 0.33005 0.0
C138 C 0.47227 0.55289 0.39486 0.0
C139 C 0.71588 0.78599 0.4366 0.0
O140 O 0.79581 0.81919 0.33031 0.0
O141 O 0.74578 0.73748 0.34814 0.0
O142 O 0.77206 0.89931 0.28591 0.0
O143 O 0.76673 0.90485 0.36184 0.0
O144 O 0.73308 0.80265 0.25647 0.0
O145 O 0.66894 0.77223 0.29523 0.0
O146 O 0.61429 0.76073 0.35537 0.0
O147 O 0.67258 0.84121 0.35618 0.0
O148 O 0.62444 0.6704 0.40099 0.0
O149 O 0.62988 0.66289 0.32582 0.0
O150 O 0.66891 0.76185 0.43048 0.0
O151 O 0.73577 0.79177 0.3961 0.0
H152 H 0.81118 0.99262 0.24917 0.0
H153 H 0.83499 0.98453 0.39639 0.0
H154 H 0.88898 0.07082 0.39851 0.0
H155 H 0.86635 0.07965 0.25061 0.0
H156 H 0.54255 0.56775 0.42049 0.0
H157 H 0.54482 0.65709 0.30499 0.0
H158 H 0.45454 0.61298 0.3047 0.0
H159 H 0.45242 0.52395 0.42018 0.0
Gd160 Gd 0.24192 0.92403 0.32892 0.0
Gd161 Gd 0.33971 0.95829 0.35762 0.0
C162 C 0.29909 0.0353 0.33532 0.0
C163 C 0.14802 0.87711 0.31096 0.0
C164 C 0.09594 0.86306 0.32015 0.0
C165 C 0.07148 0.87893 0.28977 0.0
C166 C 0.06816 0.82792 0.35461 0.0
C167 C 0.99314 0.82458 0.3277 0.0
C168 C 1.0174 0.80888 0.35824 0.0
C169 C 1.0207 0.86016 0.29373 0.0
C170 C 0.30748 0.94248 0.25485 0.0
C171 C 0.2652 0.84332 0.35988 0.0
C172 C 0.43151 0.9842 0.36585 0.0
C173 C 0.45901 0.95752 0.36121 0.0
C174 C 0.48469 0.95504 0.40011 0.0
C175 C 0.45549 0.92966 0.3215 0.0
C176 C 0.51329 0.90706 0.35601 0.0
C177 C 0.48101 0.90372 0.31951 0.0
C178 C 0.50954 0.92879 0.39816 0.0
C179 C 0.28937 0.95929 0.43592 0.0
O180 O 0.25605 0.99785 0.34573 0.0
O181 O 0.33827 0.02904 0.33349 0.0
O182 O 0.17859 0.91956 0.29246 0.0
O183 O 0.16949 0.86139 0.33949 0.0
O184 O 0.27153 0.95092 0.25456 0.0
O185 O 0.30439 0.92092 0.29309 0.0
O186 O 0.31067 0.87645 0.34946 0.0
O187 O 0.23267 0.85698 0.36458 0.0
O188 O 0.40095 0.96978 0.40091 0.0
O189 O 0.41362 0.99317 0.32811 0.0
O190 O 0.31654 0.93938 0.43321 0.0
O191 O 0.28246 0.96883 0.39405 0.0
H192 H 0.09147 0.90513 0.26225 0.0
H193 H 0.08539 0.81421 0.37821 0.0
H194 H 0.99699 0.78211 0.38521 0.0
H195 H 1.00284 0.87326 0.27018 0.0
H196 H 0.48476 0.97271 0.43273 0.0
H197 H 0.43224 0.927 0.29236 0.0
H198 H 0.47343 0.88021 0.28959 0.0
H199 H 0.52546 0.92569 0.43056 0.0
Gd200 Gd 0.14841 0.33591 0.34181 0.0
Gd201 Gd 0.11728 0.40506 0.36202 0.0
C202 C 1.03553 0.28884 0.33552 0.0
C203 C 0.18591 0.27978 0.33821 0.0
C204 C 0.20747 0.2476 0.33607 0.0
C205 C 0.23428 0.24806 0.29642 0.0
C206 C 0.20233 0.21688 0.37397 0.0
C207 C 0.24967 0.18717 0.33227 0.0
C208 C 0.22304 0.18671 0.37198 0.0
C209 C 0.25541 0.21829 0.29465 0.0
C210 C 0.136 0.38011 0.26328 0.0
C211 C 0.23311 0.44283 0.3655 0.0
C212 C 0.09387 0.47319 0.36609 0.0
C213 C 0.12091 0.52719 0.36076 0.0
C214 C 0.09907 0.55408 0.37601 0.0
C215 C 0.17006 0.5527 0.34566 0.0
C216 C 0.17437 0.63095 0.36001 0.0
C217 C 0.19634 0.60411 0.34463 0.0
C218 C 0.12554 0.6054 0.37581 0.0
C219 C 0.10948 0.35267 0.44173 0.0
O220 O 0.07098 0.27951 0.34308 0.0
O221 O 0.04416 0.33511 0.33726 0.0
O222 O 0.17873 0.29921 0.30071 0.0
O223 O 0.17193 0.29031 0.37763 0.0
O224 O 0.12096 0.33386 0.26796 0.0
O225 O 0.15695 0.40085 0.30119 0.0
O226 O 0.20019 0.45586 0.35659 0.0
O227 O 0.21927 0.39652 0.36978 0.0
O228 O 0.10705 0.45742 0.40226 0.0
O229 O 0.08687 0.4463 0.32872 0.0
O230 O 0.13181 0.39994 0.43883 0.0
O231 O 0.10004 0.33648 0.40009 0.0
H232 H 0.23905 0.27154 0.26681 0.0
H233 H 0.18184 0.21575 0.40495 0.0
H234 H 0.21779 0.16254 0.40112 0.0
H235 H 0.27545 0.21876 0.26355 0.0
H236 H 0.06169 0.53532 0.3889 0.0
H237 H 0.1884 0.53296 0.33541 0.0
H238 H 0.23396 0.62298 0.33239 0.0
H239 H 0.10783 0.62528 0.38781 0.0
Gd240 Gd 0.40124 0.16242 0.67025 0.0
Gd241 Gd 0.33316 0.06551 0.69356 0.0
C242 C 0.44868 0.09812 0.66967 0.0
C243 C 0.45694 0.25595 0.66335 0.0
C244 C 0.48915 0.30964 0.66066 0.0
C245 C 0.49612 0.33486 0.61836 0.0
C246 C 0.51206 0.33647 0.70107 0.0
C247 C 0.55694 0.41211 0.65498 0.0
C248 C 0.54413 0.38685 0.69848 0.0
C249 C 0.52828 0.38553 0.61582 0.0
C250 C 0.35613 0.10353 0.59254 0.0
C251 C 0.29491 0.14279 0.6932 0.0
C252 C 0.26615 0.97394 0.70131 0.0
C253 C 0.2119 0.94839 0.6991 0.0
C254 C 0.18413 0.90004 0.71516 0.0
C255 C 0.18734 0.97282 0.68398 0.0
C256 C 0.10822 0.90026 0.69924 0.0
C257 C 0.13596 0.94882 0.6836 0.0
C258 C 0.13274 0.87617 0.71529 0.0
C259 C 0.38376 0.11323 0.77308 0.0
O260 O 0.45832 0.14282 0.67739 0.0
O261 O 0.40217 0.06103 0.66998 0.0
O262 O 0.4445 0.22723 0.62674 0.0
O263 O 0.43966 0.23361 0.70337 0.0
O264 O 0.40257 0.13428 0.59726 0.0
O265 O 0.33551 0.10534 0.63005 0.0
O266 O 0.28142 0.09637 0.68686 0.0
O267 O 0.34148 0.17511 0.696 0.0
O268 O 0.29032 0.99309 0.66242 0.0
O269 O 0.2854 1.00321 0.73695 0.0
O270 O 0.33662 0.08959 0.76824 0.0
O271 O 0.40145 0.11754 0.73216 0.0
H272 H 0.47629 0.31546 0.58716 0.0
H273 H 0.5057 0.31849 0.73483 0.0
H274 H 0.55982 0.4057 0.73113 0.0
H275 H 0.52883 0.40225 0.58296 0.0
H276 H 0.20222 0.88073 0.72764 0.0
H277 H 0.20777 1.0104 0.6724 0.0
H278 H 0.11781 0.96795 0.67074 0.0
H279 H 0.11202 0.83853 0.72704 0.0
Gd280 Gd 0.90038 0.24923 0.66955 0.0
Gd281 Gd 1.00699 0.2924 0.68422 0.0
C282 C 0.95832 0.36254 0.65689 0.0
C283 C 0.80507 0.19926 0.6742 0.0
C284 C 0.75331 0.18764 0.66804 0.0
C285 C 0.72414 0.15472 0.63275 0.0
C286 C 0.73035 0.20247 0.70143 0.0
C287 C 0.65035 0.15028 0.66533 0.0
C288 C 0.6795 0.18424 0.6999 0.0
C289 C 0.67336 0.13621 0.63149 0.0
C290 C 0.95565 0.26459 0.58941 0.0
C291 C 0.93701 0.17675 0.69869 0.0
C292 C 0.09946 0.31971 0.68187 0.0
C293 C 0.12549 0.29093 0.68257 0.0
C294 C 0.15898 0.29853 0.71873 0.0
C295 C 0.11592 0.25435 0.64909 0.0
C296 C 0.17408 0.23537 0.68691 0.0
C297 C 0.14004 0.22706 0.65113 0.0
C298 C 0.18297 0.27116 0.72088 0.0
C299 C 0.96301 0.29507 0.76583 0.0
O300 O 0.91461 0.32386 0.66176 0.0
O301 O 0.99928 0.35917 0.65912 0.0
O302 O 0.83006 0.19711 0.63849 0.0
O303 O 0.83271 0.23007 0.70666 0.0
O304 O 0.91639 0.26811 0.59182 0.0
O305 O 0.95986 0.24791 0.62831 0.0
O306 O 0.98021 0.21065 0.68303 0.0
O307 O 0.9035 0.18871 0.70674 0.0
O308 O 0.07633 0.31827 0.72038 0.0
O309 O 0.07452 0.3175 0.64427 0.0
O310 O 0.99304 0.27855 0.76157 0.0
O311 O 0.95203 0.30248 0.72482 0.0
H312 H 0.7403 0.14178 0.60699 0.0
H313 H 0.75138 0.22702 0.72964 0.0
H314 H 0.66271 0.19582 0.72631 0.0
H315 H 0.65179 0.11026 0.60438 0.0
H316 H 0.16669 0.32584 0.74546 0.0
H317 H 0.08982 0.24677 0.62128 0.0
H318 H 0.13253 0.19975 0.62446 0.0
H319 H 0.20902 0.27837 0.74878 0.0
Gd320 Gd 0.81791 0.67288 0.65857 0.0
Gd321 Gd 0.77751 0.73544 0.67857 0.0
C322 C 0.70474 0.61691 0.6701 0.0
C323 C 0.84986 0.61232 0.64793 0.0
C324 C 0.87018 0.57886 0.64452 0.0
C325 C 0.85799 0.54539 0.60732 0.0
C326 C 0.90328 0.58108 0.67885 0.0
C327 C 0.91032 0.51626 0.64008 0.0
C328 C 0.92309 0.55027 0.6766 0.0
C329 C 0.87774 0.51414 0.60523 0.0
C330 C 0.80058 0.71714 0.58223 0.0
C331 C 0.89648 0.77803 0.68646 0.0
C332 C 0.75944 0.80525 0.66175 0.0
C333 C 0.78824 0.85914 0.67057 0.0
C334 C 0.77775 0.8804 0.70872 0.0
C335 C 0.82795 0.89005 0.64154 0.0
C336 C 0.83754 0.96357 0.68124 0.0
C337 C 0.85311 0.94088 0.64788 0.0
C338 C 0.8032 0.93142 0.71493 0.0
C339 C 0.76789 0.69569 0.76288 0.0
O340 O 0.74446 0.61415 0.67549 0.0
O341 O 0.7076 0.66035 0.66342 0.0
O342 O 0.8166 0.61161 0.6199 0.0
O343 O 0.86399 0.64475 0.68148 0.0
O344 O 0.84065 0.71584 0.58769 0.0
O345 O 0.77402 0.69569 0.6165 0.0
O346 O 0.86121 0.78827 0.67892 0.0
O347 O 0.88649 0.73292 0.68745 0.0
O348 O 0.74044 0.77579 0.69779 0.0
O349 O 0.77794 0.78857 0.63077 0.0
O350 O 0.76688 0.73525 0.75448 0.0
O351 O 0.78372 0.6819 0.72712 0.0
H352 H 0.83281 0.54297 0.58023 0.0
H353 H 0.91353 0.60628 0.70805 0.0
H354 H 0.94724 0.55178 0.70439 0.0
H355 H 0.86667 0.48751 0.57722 0.0
H356 H 0.74995 0.8576 0.73405 0.0
H357 H 0.83995 0.87516 0.61365 0.0
H358 H 0.88511 0.96172 0.62625 0.0
H359 H 0.79569 0.9446 0.74695 0.0
C360 C 0.24173 0.43904 0.03102 0.0
C361 C 0.26823 0.47113 0.99333 0.0
C362 C 0.19006 0.45298 0.95763 0.0
C363 C 0.16479 0.42915 0.99922 0.0
N364 N 0.16602 0.39868 0.07568 0.0
N365 N 0.26706 0.51372 0.92333 0.0
C366 C 0.19048 0.42142 0.03575 0.0
C367 C 0.24221 0.47901 0.95689 0.0
N368 N 0.26524 0.42445 0.06163 0.0
N369 N 0.16367 0.45124 0.91905 0.0
H370 H 0.30516 0.53534 0.92265 0.0
H371 H 0.24976 0.52446 0.89887 0.0
H372 H 0.12545 0.43061 0.91889 0.0
H373 H 0.17941 0.465 0.88637 0.0
H374 H 0.24717 0.39809 0.08747 0.0
H375 H 0.3023 0.43535 0.05847 0.0
H376 H 0.18328 0.39829 0.10668 0.0
H377 H 0.12799 0.38111 0.07721 0.0
C378 C 0.58376 0.77631 0.962 0.0
C379 C 0.5977 0.81318 0.9967 0.0
C380 C 0.64805 0.78379 0.0354 0.0
C381 C 0.63529 0.74827 0.99971 0.0
N382 N 0.60222 0.7193 0.9228 0.0
N383 N 0.6515 0.85888 0.06059 0.0
C384 C 0.6073 0.748 0.96068 0.0
C385 C 0.63258 0.81912 0.03161 0.0
N386 N 0.54565 0.76584 0.93236 0.0
N387 N 0.67278 0.7822 0.07401 0.0
H388 H 0.64159 0.88575 0.05837 0.0
H389 H 0.68008 0.86746 0.08393 0.0
H390 H 0.68656 0.75838 0.07645 0.0
H391 H 0.67741 0.80258 0.10425 0.0
H392 H 0.53043 0.73577 0.90993 0.0
H393 H 0.52583 0.78413 0.93337 0.0
H394 H 0.58548 0.72019 0.89162 0.0
H395 H 0.61939 0.69839 0.92106 0.0
C396 C 0.28227 0.88336 0.97956 0.0
C397 C 0.32254 0.89844 0.01044 0.0
C398 C 0.28957 0.8125 0.03548 0.0
C399 C 0.25196 0.79691 1.0015 0.0
N400 N 0.21329 0.81619 0.93887 0.0
N401 N 0.36753 0.87614 0.06391 0.0
C402 C 0.24837 0.83207 0.97299 0.0
C403 C 0.32644 0.86261 0.03777 0.0
N404 N 0.27691 0.91817 0.95628 0.0
N405 N 0.29041 0.77925 0.0657 0.0
H406 H 0.39411 0.91246 0.06884 0.0
H407 H 0.37705 0.85162 0.07797 0.0
H408 H 0.26703 0.74157 0.06288 0.0
H409 H 0.31232 0.78909 0.09556 0.0
H410 H 0.24703 0.91068 0.93524 0.0
H411 H 0.30114 0.95549 0.96094 0.0
H412 H 0.21126 0.83884 0.9136 0.0
H413 H 0.18733 0.77931 0.93421 0.0
C414 C 0.57019 0.37445 0.0094 0.0
C415 C 0.52776 0.34629 0.03702 0.0
C416 C 0.53651 0.42253 0.06983 0.0
C417 C 0.57569 0.45075 0.03823 0.0
N418 N 0.62668 0.45339 0.974 0.0
N419 N 0.46588 0.34352 0.08876 0.0
C420 C 0.5922 0.42669 1.00723 0.0
C421 C 0.50987 0.37033 0.06634 0.0
N422 N 0.5889 0.3498 0.98612 0.0
N423 N 0.52508 0.44591 0.10363 0.0
H424 H 0.44482 0.30553 0.08628 0.0
H425 H 0.44806 0.35905 0.1064 0.0
H426 H 0.54412 0.48391 0.10733 0.0
H427 H 0.50021 0.42776 0.13064 0.0
H428 H 0.62161 0.36633 0.96716 0.0
H429 H 0.62161 0.36633 0.96716 0.0
H430 H 0.6359 0.43798 0.94638 0.0
H431 H 0.64396 0.49144 0.97213 0.0
C432 C 0.64685 0.14456 0.98598 0.0
C433 C 0.61597 0.14705 0.02108 0.0
C434 C 0.68959 0.21114 0.06126 0.0
C435 C 0.72011 0.20418 0.02903 0.0
N436 N 0.72744 0.1589 0.9645 0.0
N437 N 0.60815 0.17952 0.09488 0.0
C438 C 0.69861 0.16962 0.99227 0.0
C439 C 0.63742 0.17984 0.05933 0.0
N440 N 0.62667 0.11895 0.94578 0.0
N441 N 0.71051 0.24827 0.09323 0.0
H442 H 0.57 0.15838 0.09381 0.0
H443 H 0.62163 0.19788 0.12652 0.0
H444 H 0.74834 0.27153 0.09566 0.0
H445 H 0.69045 0.25854 0.1147 0.0
H446 H 0.64702 0.11986 0.91659 0.0
H447 H 0.58926 0.10103 0.93979 0.0
H448 H 0.71344 0.12975 0.94099 0.0
H449 H 0.76548 0.17638 0.96765 0.0
C450 C 0.8919 0.47294 0.06788 0.0
C451 C 0.92655 0.48617 0.03096 0.0
C452 C 0.90194 0.54321 0.9998 0.0
C453 C 0.86537 0.52796 0.03514 0.0
N454 N 0.82003 0.47329 0.09842 0.0
N455 N 0.95787 0.52605 0.95646 0.0
C456 C 0.8587 0.49126 0.0679 0.0
C457 C 0.92965 0.51912 0.99538 0.0
N458 N 0.89213 0.44455 0.10393 0.0
N459 N 0.91116 0.58174 0.97127 0.0
H460 H 0.97808 0.50845 0.9516 0.0
H461 H 0.95768 0.54545 0.92702 0.0
H462 H 0.89124 0.59993 0.97289 0.0
H463 H 0.94103 0.59829 0.94854 0.0
H464 H 0.87185 0.43823 0.13461 0.0
H465 H 0.9153 0.42987 0.10463 0.0
H466 H 0.80986 0.44291 0.11972 0.0
H467 H 0.79574 0.48662 0.10003 0.0
C468 C 0.85252 0.75071 0.31464 0.0
C469 C 0.83846 0.77706 0.34499 0.0
C470 C 0.92512 0.82848 0.36955 0.0
C471 C 0.93964 0.80686 0.33423 0.0
N472 N 0.91818 0.74889 0.27119 0.0
N473 N 0.86215 0.84164 0.40203 0.0
C474 C 0.90355 0.76817 0.30633 0.0
C475 C 0.87508 0.81552 0.37318 0.0
N476 N 0.81708 0.70857 0.29459 0.0
N477 N 0.95932 0.8618 0.39975 0.0
H478 H 0.82583 0.83076 0.40882 0.0
H479 H 0.88687 0.87504 0.41721 0.0
H480 H 0.99689 0.87541 0.39622 0.0
H481 H 0.9505 0.87387 0.43025 0.0
H482 H 0.82425 0.68567 0.27397 0.0
H483 H 0.78026 0.69369 0.30348 0.0
H484 H 0.89444 0.72455 0.2462 0.0
H485 H 0.95491 0.75972 0.26522 0.0
C486 C 0.30953 0.15967 0.3553 0.0
C487 C 0.26837 0.15233 0.32857 0.0
C488 C 0.26246 0.07871 0.29389 0.0
C489 C 0.29913 0.08185 0.32524 0.0
N490 N 0.35821 0.12579 0.38551 0.0
N491 N 0.20136 0.10146 0.27695 0.0
C492 C 0.32338 0.12292 0.35542 0.0
C493 C 0.2441 0.1113 0.2986 0.0
N494 N 0.3357 0.20214 0.38005 0.0
N495 N 0.24457 0.04389 0.25958 0.0
H496 H 0.18601 0.12391 0.27975 0.0
H497 H 0.17853 0.06876 0.2596 0.0
H498 H 0.25503 1.01775 0.25617 0.0
H499 H 0.22274 0.04356 0.23203 0.0
H500 H 0.36861 0.21211 0.397 0.0
H501 H 0.32625 0.22941 0.38093 0.0
H502 H 0.37198 0.15021 0.41343 0.0
H503 H 0.37287 0.10289 0.38247 0.0
C504 C 0.9705 0.22187 0.28749 0.0
C505 C 0.98625 0.24359 0.33222 0.0
C506 C 0.95527 0.16201 0.36583 0.0
C507 C 0.93154 0.1388 0.32334 0.0
N508 N 0.94855 0.15026 0.24023 0.0
N509 N 0.98239 0.2324 0.41553 0.0
C510 C 0.94678 0.16956 0.2825 0.0
C511 C 0.97327 0.21262 0.37181 0.0
N512 N 0.98027 0.25165 0.24952 0.0
N513 N 0.97076 0.13906 0.39601 0.0
H514 H 0.99463 0.26943 0.42005 0.0
H515 H 0.97257 0.21113 0.44595 0.0
H516 H 0.96914 0.1062 0.38712 0.0
H517 H 0.99198 0.15624 0.42558 0.0
H518 H 0.96638 0.23873 0.21615 0.0
H519 H 0.99856 0.28971 0.25291 0.0
H520 H 0.96189 0.17073 0.20961 0.0
H521 H 0.94484 0.11561 0.23771 0.0
C522 C 0.21691 0.76201 0.3196 0.0
C523 C 0.24753 0.78971 0.35757 0.0
C524 C 0.23606 0.71377 0.39368 0.0
C525 C 0.20158 0.68584 0.35812 0.0
N526 N 0.15652 0.6827 0.2887 0.0
N527 N 0.28418 0.79271 0.43227 0.0
C528 C 0.19141 0.70986 0.32143 0.0
C529 C 0.25699 0.76581 0.3948 0.0
N530 N 0.2135 0.78579 0.28094 0.0
N531 N 0.24874 0.69046 0.42641 0.0
H532 H 0.30091 0.83077 0.43351 0.0
H533 H 0.288 0.7775 0.46321 0.0
H534 H 0.23251 0.65249 0.42809 0.0
H535 H 0.27736 0.70859 0.45014 0.0
H536 H 0.19628 0.76825 0.24992 0.0
H537 H 0.23167 0.82382 0.2782 0.0
H538 H 0.14235 0.69744 0.26497 0.0
H539 H 0.1394 0.64466 0.2868 0.0
C540 C 0.31415 0.47619 0.32384 0.0
C541 C 0.28699 0.47873 0.36258 0.0
C542 C 0.36387 0.5434 0.39749 0.0
C543 C 0.39134 0.53673 0.36148 0.0
N544 N 0.39276 0.49202 0.29347 0.0
N545 N 0.28583 0.51154 0.43837 0.0
C546 C 0.36646 0.50202 0.32532 0.0
C547 C 0.31181 0.51175 0.39986 0.0
N548 N 0.28984 0.44991 0.28494 0.0
N549 N 0.3875 0.5808 0.42882 0.0
H550 H 0.24776 0.48988 0.44059 0.0
H551 H 0.30208 0.53031 0.46922 0.0
H552 H 0.42535 0.60448 0.42814 0.0
H553 H 0.3694 0.59092 0.45299 0.0
H554 H 0.30728 0.45084 0.25359 0.0
H555 H 0.25171 0.43069 0.28242 0.0
H556 H 0.37681 0.46313 0.26973 0.0
H557 H 0.43097 0.51002 0.29319 0.0
C558 C 0.5465 0.85575 0.31453 0.0
C559 C 0.54696 0.88475 0.35308 0.0
C560 C 0.59746 0.85871 0.39665 0.0
C561 C 0.59024 0.82425 0.36127 0.0
N562 N 0.55235 0.78604 0.28795 0.0
N563 N 0.6059 0.93755 0.41063 0.0
C564 C 0.56233 0.821 0.32105 0.0
C565 C 0.58139 0.89292 0.38928 0.0
N566 N 0.54221 0.86885 0.26999 0.0
N567 N 0.62052 0.85933 0.43737 0.0
H568 H 0.60274 0.9672 0.39905 0.0
H569 H 0.63446 0.9471 0.43432 0.0
H570 H 0.63248 0.83448 0.44398 0.0
H571 H 0.62305 0.88109 0.46596 0.0
H572 H 0.54533 0.85147 0.24019 0.0
H573 H 0.5453 0.9027 0.26291 0.0
H574 H 0.52883 0.7799 0.25982 0.0
H575 H 0.56359 0.76028 0.29114 0.0
C576 C 0.56545 0.09864 0.70104 0.0
C577 C 0.59577 0.12948 0.66417 0.0
C578 C 0.522 0.11719 0.62301 0.0
C579 C 0.49287 0.09328 0.6629 0.0
N580 N 0.48734 0.0645 0.74193 0.0
N581 N 0.60296 0.17458 0.5934 0.0
C582 C 0.51463 0.08431 0.70231 0.0
C583 C 0.574 0.14014 0.62575 0.0
N584 N 0.58499 0.08243 0.73443 0.0
N585 N 0.49953 0.11879 0.58268 0.0
H586 H 0.64115 0.19357 0.59499 0.0
H587 H 0.5892 0.1878 0.56763 0.0
H588 H 0.46141 0.10099 0.57988 0.0
H589 H 0.51803 0.13274 0.55111 0.0
H590 H 0.56394 0.05648 0.7597 0.0
H591 H 0.62173 0.09166 0.73436 0.0
H592 H 0.50233 0.06297 0.77398 0.0
H593 H 0.44974 0.05182 0.74308 0.0
C594 C 0.92374 0.41227 0.68887 0.0
C595 C 0.95755 0.40974 0.65724 0.0
C596 C 0.96379 0.48077 0.61467 0.0
C597 C 0.92559 0.47854 0.64326 0.0
N598 N 0.86216 0.43524 0.7008 0.0
N599 N 1.01402 0.44478 0.59294 0.0
C600 C 0.90383 0.44251 0.67855 0.0
C601 C 0.97916 0.44524 0.62103 0.0
N602 N 0.91079 0.38585 0.72958 0.0
N603 N 0.98499 0.51679 0.58156 0.0
H604 H 1.02813 0.42174 0.59925 0.0
H605 H 1.02924 0.4668 0.56357 0.0
H606 H 0.97382 0.54238 0.57597 0.0
H607 H 1.01407 0.52241 0.56016 0.0
H608 H 0.89128 0.39083 0.75648 0.0
H609 H 0.92365 0.3625 0.73867 0.0
H610 H 0.84122 0.40546 0.72267 0.0
H611 H 0.84541 0.45585 0.69371 0.0
C612 C 0.65854 0.53275 0.70214 0.0
C613 C 0.65885 0.56798 0.67061 0.0
C614 C 0.60352 0.5003 0.61902 0.0
C615 C 0.59849 0.46549 0.65365 0.0
N616 N 0.64913 0.45259 0.70806 0.0
N617 N 0.62455 0.5837 0.60179 0.0
C618 C 0.63376 0.48273 0.68996 0.0
C619 C 0.62833 0.55121 0.63043 0.0
N620 N 0.68376 0.54714 0.74338 0.0
N621 N 0.59643 0.48709 0.57298 0.0
H622 H 0.64194 0.62101 0.60895 0.0
H623 H 0.59997 0.57263 0.57384 0.0
H624 H 0.59743 0.45621 0.56169 0.0
H625 H 0.60183 0.51136 0.54581 0.0
H626 H 0.67982 0.52259 0.7698 0.0
H627 H 0.70597 0.58361 0.7523 0.0
H628 H 0.67846 0.46446 0.73126 0.0
H629 H 0.63693 0.41757 0.6947 0.0
C630 C 0.89486 0.0511 0.64906 0.0
C631 C 0.86031 1.01966 0.68321 0.0
C632 C 0.88199 0.09275 0.73099 0.0
C633 C 0.92045 0.12288 0.69959 0.0
N634 N 0.97152 0.12511 0.63497 0.0
N635 N 0.80095 1.02294 0.7343 0.0
C636 C 0.92964 0.10038 0.66078 0.0
C637 C 0.84818 0.04332 0.71895 0.0
N638 N 0.88867 0.03744 0.60304 0.0
N639 N 0.8774 0.1115 0.77258 0.0
H640 H 0.77231 0.99314 0.71715 0.0
H641 H 0.78929 0.04044 0.75768 0.0
H642 H 0.90258 0.14706 0.78323 0.0
H643 H 0.85204 0.08993 0.79819 0.0
H644 H 0.91027 0.06076 0.57619 0.0
H645 H 0.85713 1.00624 0.59132 0.0
H646 H 0.98023 0.1085 0.60792 0.0
H647 H 1.00043 0.15915 0.64466 0.0
C648 C 0.98018 0.81782 0.64959 0.0
C649 C 0.94973 0.81648 0.68719 0.0
C650 C 1.0235 0.87622 0.73016 0.0
C651 C 0.0536 0.87299 0.69472 0.0
N652 N 0.061 0.83766 0.62237 0.0
N653 N 0.94217 0.84125 0.76506 0.0
C654 C 1.03199 0.843 0.65487 0.0
C655 C 0.97133 0.84529 0.72783 0.0
N656 N 0.95942 0.79611 0.60794 0.0
N657 N 0.04488 0.90892 0.76598 0.0
H658 H 0.90401 0.82003 0.76386 0.0
H659 H 0.95565 0.85658 0.79785 0.0
H660 H 0.08281 0.93071 0.76953 0.0
H661 H 1.02524 0.91689 0.79033 0.0
H662 H 0.97916 0.79977 0.57742 0.0
H663 H 0.92191 0.77857 0.60266 0.0
H664 H 0.04739 0.81112 0.59619 0.0
H665 H 0.09921 0.85765 0.62318 0.0
C666 C 0.2662 0.19481 0.65273 0.0
C667 C 0.25946 0.1613 0.68931 0.0
C668 C 0.19181 0.17108 0.72061 0.0
C669 C 0.2026 0.20877 0.68729 0.0
N670 N 0.25537 0.26168 0.62604 0.0
N671 N 0.21884 0.12069 0.7608 0.0
C672 C 0.24117 0.2219 0.65446 0.0
C673 C 0.22277 0.14997 0.72384 0.0
N674 N 0.29546 0.19959 0.61527 0.0
N675 N 0.15132 0.15475 0.74855 0.0
H676 H 0.2402 0.1041 0.76372 0.0
H677 H 0.19688 0.11539 0.79003 0.0
H678 H 0.12827 0.16956 0.74734 0.0
H679 H 0.13837 0.12417 0.77016 0.0
H680 H 0.29787 0.21942 0.58522 0.0
H681 H 0.31346 0.17961 0.61202 0.0
H682 H 0.28691 0.27664 0.60542 0.0
H683 H 0.23814 0.28254 0.62606 0.0
C684 C 0.13213 0.45136 0.22014 0.0
C685 C 0.12342 0.40229 0.22131 0.0
C686 C 0.07447 0.38509 0.14893 0.0
C687 C 0.08035 0.433 0.14877 0.0
N688 N 0.11115 0.51024 0.18776 0.0
N689 N 0.10787 0.3342 0.17171 0.0
C690 C 0.10844 0.46577 0.18533 0.0
C691 C 0.10028 0.37228 0.18169 0.0
N692 N 0.16684 0.4857 0.24893 0.0
N693 N 0.04411 0.35086 0.11745 0.0
H694 H 0.13402 0.32903 0.18901 0.0
H695 H 0.09513 0.31309 0.14139 0.0
H696 H 1.03076 0.3595 0.08815 0.0
H697 H 1.03151 0.31358 0.12124 0.0
H698 H 0.17836 0.52281 0.24713 0.0
H699 H 0.18942 0.47858 0.26998 0.0
H700 H 0.12523 0.53363 0.21645 0.0
H701 H 0.09577 0.52222 0.1623 0.0
C702 C 0.6752 0.69096 0.21723 0.0
C703 C 0.6619 0.72781 0.22128 0.0
C704 C 0.60559 0.6894 0.1538 0.0
C705 C 0.62086 0.65421 0.14927 0.0
N706 N 0.65548 0.6111 0.1867 0.0
N707 N 0.60773 0.75698 0.19759 0.0
C708 C 0.64996 0.65124 0.18518 0.0
C709 C 0.62432 0.72489 0.19126 0.0
N710 N 0.71434 0.69542 0.24153 0.0
N711 N 0.57478 0.68994 0.1206 0.0
H712 H 0.6226 0.7848 0.22261 0.0
H713 H 0.57796 0.75487 0.17975 0.0
H714 H 0.55814 0.66184 0.09598 0.0
H715 H 0.56623 0.7176 0.11709 0.0
H716 H 0.72897 0.67267 0.23619 0.0
H717 H 0.73549 0.72517 0.26297 0.0
H718 H 0.6729 0.60404 0.2141 0.0
H719 H 0.63785 0.58257 0.16258 0.0
C720 C 0.42056 0.03673 0.18235 0.0
C721 C 0.42971 1.00666 0.15187 0.0
C722 C 0.36686 0.93475 0.19713 0.0
C723 C 0.35105 0.96457 0.22052 0.0
N724 N 0.36162 0.04593 0.22773 0.0
N725 N 0.42871 0.93064 0.14854 0.0
C726 C 0.37752 1.01597 0.21086 0.0
C727 C 0.40738 0.95632 0.16421 0.0
N728 N 0.45547 0.08475 0.18807 0.0
N729 N 0.34121 0.8853 0.20394 0.0
H730 H 0.45972 0.94677 0.12701 0.0
H731 H 0.41865 0.8955 0.15988 0.0
H732 H 0.312 0.86841 0.22745 0.0
H733 H 0.34654 0.86075 0.18395 0.0
H734 H 0.45245 0.10744 0.2128 0.0
H735 H 0.49078 0.09935 0.1744 0.0
H736 H 0.37638 0.0822 0.21701 0.0
H737 H 0.33099 0.03377 0.24861 0.0
C738 C 0.48027 0.1116 0.8587 0.0
C739 C 0.45025 0.06696 0.8833 0.0
C740 C 0.378 0.06408 0.84703 0.0
C741 C 0.40737 0.10333 0.81578 0.0
N742 N 0.48923 0.16504 0.79306 0.0
N743 N 0.3713 0.99308 0.88547 0.0
C744 C 0.45946 0.12704 0.82179 0.0
C745 C 0.39947 0.04092 0.87258 0.0
N746 N 0.52797 0.14054 0.87186 0.0
N747 N 0.33015 0.05031 0.85533 0.0
H748 H 0.38605 0.97334 0.90083 0.0
H749 H 0.33487 0.97174 0.8749 0.0
H750 H 0.3149 0.07145 0.84507 0.0
H751 H 0.30863 1.02308 0.87951 0.0
H752 H 0.55046 0.17577 0.85898 0.0
H753 H 0.54394 0.13064 0.89844 0.0
H754 H 0.52702 0.17943 0.79115 0.0
H755 H 0.47578 0.18124 0.77015 0.0
C756 C 0.98639 0.34156 0.89222 0.0
C757 C 1.00022 0.39201 0.88906 0.0
C758 C 0.99437 0.38076 0.80331 0.0
C759 C 0.97107 0.32862 0.80755 0.0
N760 N 0.938 0.25989 0.8604 0.0
N761 N 1.00752 0.45642 0.83842 0.0
C762 C 0.96389 0.30927 0.85349 0.0
C763 C 1.00009 0.41027 0.84362 0.0
N764 N 1.00117 0.32543 0.92926 0.0
N765 N 1.01713 0.4032 0.76265 0.0
H766 H 1.01203 0.47894 0.86703 0.0
H767 H 1.00423 0.46988 0.80603 0.0
H768 H 1.02356 0.38428 0.73653 0.0
H769 H 1.03668 0.44112 0.7586 0.0
H770 H 0.99651 0.29037 0.93124 0.0
H771 H 1.0241 0.34957 0.95424 0.0
H772 H 0.9293 0.24445 0.89387 0.0
H773 H 0.92166 0.23507 0.83291 0.0
C774 C 0.68283 0.63934 0.79929 0.0
C775 C 0.73517 0.66367 0.80263 0.0
C776 C 0.72356 0.65812 0.88801 0.0
C777 C 0.67141 0.62395 0.88452 0.0
N778 N 0.60598 0.57459 0.82928 0.0
N779 N 0.80393 0.68685 0.85333 0.0
C780 C 0.65273 0.61119 0.83787 0.0
C781 C 0.75481 0.66869 0.84794 0.0
N782 N 0.66104 0.64607 0.76105 0.0
N783 N 0.74387 0.68529 0.92729 0.0
H784 H 0.82765 0.69596 0.8247 0.0
H785 H 0.81958 0.68807 0.88591 0.0
H786 H 0.72401 0.68458 0.95625 0.0
H787 H 0.7804 0.71322 0.92888 0.0
H788 H 0.62322 0.6314 0.75851 0.0
H789 H 0.68086 0.67229 0.73582 0.0
H790 H 0.59346 0.5627 0.79526 0.0
H791 H 0.58139 0.55293 0.85505 0.0
C792 C 0.70992 0.72519 0.5005 0.0
C793 C 0.73685 0.77236 0.47906 0.0
C794 C 0.80914 0.78554 0.52621 0.0
C795 C 0.78335 0.73579 0.54151 0.0
N796 N 0.71286 0.65558 0.53149 0.0
N797 N 0.8066 0.8528 0.48607 0.0
C798 C 0.73507 0.70499 0.52479 0.0
C799 C 0.78539 0.80401 0.49569 0.0
N800 N 0.65994 0.70154 0.50326 0.0
N801 N 0.85638 0.81498 0.5405 0.0
H802 H 0.78902 0.86683 0.46563 0.0
H803 H 0.8397 0.87956 0.50017 0.0
H804 H 0.87355 0.80315 0.56392 0.0
H805 H 0.87949 0.8499 0.52736 0.0
H806 H 0.63944 0.66848 0.52102 0.0
H807 H 0.63973 0.71872 0.49681 0.0
H808 H 0.67953 0.63107 0.51583 0.0
H809 H 0.73028 0.63888 0.54785 0.0
C810 C 0.27084 0.99057 0.51293 0.0
C811 C 0.30278 0.99794 0.4745 0.0
C812 C 0.36234 0.07885 0.5087 0.0
C813 C 0.33328 0.06954 0.54976 0.0
N814 N 0.25094 1.02442 0.58069 0.0
N815 N 0.3832 0.04802 0.44063 0.0
C816 C 0.28496 0.0274 0.54922 0.0
C817 C 0.34959 0.04171 0.47403 0.0
N818 N 0.2275 0.94737 0.51568 0.0
N819 N 0.39976 0.12533 0.49992 0.0
H820 H 0.37398 0.0272 0.41038 0.0
H821 H 0.42045 0.07354 0.44354 0.0
H822 H 0.40472 0.15554 0.51914 0.0
H823 H 0.421 0.13548 0.46954 0.0
H824 H 0.20501 0.93606 0.54521 0.0
H825 H 0.21561 0.92099 0.48925 0.0
H826 H 0.21422 0.99717 0.58021 0.0
H827 H 0.25751 0.05269 0.60349 0.0
C828 C 1.00049 0.32609 0.52238 0.0
C829 C 0.99468 0.28622 0.55076 0.0
C830 C 0.06716 0.29171 0.50952 0.0
C831 C 0.06988 0.32861 0.47914 0.0
N832 N 1.02501 0.36522 0.44684 0.0
N833 N 1.01518 0.22249 0.55948 0.0
C834 C 1.03262 0.3414 0.4829 0.0
C835 C 1.02623 0.26676 0.54119 0.0
N836 N 0.97679 0.35109 0.53302 0.0
N837 N 0.10338 0.28007 0.508 0.0
H838 H 0.98366 0.20122 0.57917 0.0
H839 H 1.03389 0.20427 0.55039 0.0
H840 H 0.13258 0.29644 0.48435 0.0
H841 H 0.10623 0.25702 0.53234 0.0
H842 H 0.98367 0.38283 0.51539 0.0
H843 H 0.95519 0.3448 0.5625 0.0
H844 H 0.99505 0.37068 0.44529 0.0
H845 H 0.04397 0.37272 0.41536 0.0
loop_
_geom_bond_atom_site_label_1
_geom_bond_atom_site_label_2
_geom_bond_distance
_geom_bond_site_symmetry_2
_ccdc_geom_bond_type
Gd0 C3 2.818 . S
Gd0 O20 2.377 . S
Gd0 O22 2.448 . S
Gd0 O23 2.506 1_556 S
Gd0 O24 2.435 . S
Gd0 O25 2.717 1_455 S
Gd0 O27 2.395 1_456 S
Gd0 O31 2.327 1_556 S
Gd1 C12 2.818 . S
Gd1 O21 2.395 1_655 S
Gd1 O25 2.327 1_554 S
Gd1 O26 2.377 . S
Gd1 O28 2.448 . S
Gd1 O29 2.506 1_554 S
Gd1 O30 2.435 . S
Gd1 O31 2.717 1_655 S
C2 O20 1.240 . S
C2 O21 1.240 1_556 S
C3 Gd0 2.818 . S
C3 C4 1.510 . S
C3 O22 1.249 . S
C3 O23 1.252 1_556 S
C4 C3 1.510 . S
C4 C5 1.404 . S
C4 C6 1.352 1_556 S
C5 C4 1.404 . S
C5 C9 1.389 . S
C5 H32 0.930 . S
C6 C4 1.352 1_554 S
C6 C8 1.374 . S
C6 H33 0.931 . S
C7 C8 1.359 1_556 S
C7 C9 1.364 . S
C8 C6 1.374 . S
C8 C7 1.359 1_554 S
C8 H34 0.931 . S
C9 C5 1.389 . S
C9 C7 1.364 . S
C9 H35 0.931 . S
C10 O24 1.256 1_655 S
C10 O25 1.257 . S
C11 O26 1.240 . S
C11 O27 1.240 . S
C12 Gd1 2.818 . S
C12 C13 1.510 . S
C12 O28 1.249 . S
C12 O29 1.252 1_554 S
C13 C12 1.510 . S
C13 C14 1.404 . S
C13 C15 1.352 1_554 S
C14 C13 1.404 . S
C14 C18 1.389 . S
C14 H36 0.930 . S
C15 C13 1.352 1_556 S
C15 C17 1.374 . S
C15 H37 0.931 . S
C16 C17 1.359 1_554 S
C16 C18 1.364 . S
C17 C15 1.374 . S
C17 C16 1.359 1_556 S
C17 H38 0.931 . S
C18 C14 1.389 . S
C18 C16 1.364 . S
C18 H39 0.931 . S
C19 O30 1.256 1_455 S
C19 O31 1.257 . S
O20 Gd0 2.377 . S
O20 C2 1.240 . S
O21 Gd1 2.395 1_455 S
O21 C2 1.240 1_554 S
O22 Gd0 2.448 . S
O22 C3 1.249 . S
O23 Gd0 2.506 1_554 S
O23 C3 1.252 1_554 S
O24 Gd0 2.435 . S
O24 C10 1.256 1_455 S
O25 Gd0 2.717 1_655 S
O25 Gd1 2.327 1_556 S
O25 C10 1.257 . S
O26 Gd1 2.377 . S
O26 C11 1.240 . S
O27 Gd0 2.395 1_654 S
O27 C11 1.240 . S
O28 Gd1 2.448 . S
O28 C12 1.249 . S
O29 Gd1 2.506 1_556 S
O29 C12 1.252 1_556 S
O30 Gd1 2.435 . S
O30 C19 1.256 1_655 S
O31 Gd0 2.327 1_554 S
O31 Gd1 2.717 1_455 S
O31 C19 1.257 . S
H32 C5 0.930 . S
H33 C6 0.931 . S
H34 C8 0.931 . S
H35 C9 0.931 . S
H36 C14 0.930 . S
H37 C15 0.931 . S
H38 C17 0.931 . S
H39 C18 0.931 . S
Gd40 C43 2.818 . S
Gd40 O60 2.377 . S
Gd40 O62 2.448 . S
Gd40 O63 2.506 1_556 S
Gd40 O64 2.435 . S
Gd40 O65 2.717 . S
Gd40 O67 2.395 1_556 S
Gd40 O71 2.327 1_556 S
Gd41 C52 2.818 . S
Gd41 O61 2.395 . S
Gd41 O65 2.327 1_554 S
Gd41 O66 2.377 . S
Gd41 O68 2.448 . S
Gd41 O69 2.506 1_554 S
Gd41 O70 2.435 . S
Gd41 O71 2.717 . S
C42 O60 1.240 . S
C42 O61 1.240 1_556 S
C43 Gd40 2.818 . S
C43 C44 1.510 . S
C43 O62 1.249 . S
C43 O63 1.252 1_556 S
C44 C43 1.510 . S
C44 C45 1.404 . S
C44 C46 1.352 1_556 S
C45 C44 1.404 . S
C45 C49 1.389 . S
C45 H72 0.930 . S
C46 C44 1.352 1_554 S
C46 C48 1.374 . S
C46 H73 0.931 . S
C47 C48 1.359 1_556 S
C47 C49 1.364 . S
C48 C46 1.374 . S
C48 C47 1.359 1_554 S
C48 H74 0.931 . S
C49 C45 1.389 . S
C49 C47 1.364 . S
C49 H75 0.931 . S
C50 O64 1.256 . S
C50 O65 1.257 . S
C51 O66 1.240 . S
C51 O67 1.240 . S
C52 Gd41 2.818 . S
C52 C53 1.510 . S
C52 O68 1.249 . S
C52 O69 1.252 1_554 S
C53 C52 1.510 . S
C53 C54 1.404 . S
C53 C55 1.352 1_554 S
C54 C53 1.404 . S
C54 C58 1.389 . S
C54 H76 0.930 . S
C55 C53 1.352 1_556 S
C55 C57 1.374 . S
C55 H77 0.931 . S
C56 C57 1.359 1_554 S
C56 C58 1.364 . S
C57 C55 1.374 . S
C57 C56 1.359 1_556 S
C57 H78 0.931 . S
C58 C54 1.389 . S
C58 C56 1.364 . S
C58 H79 0.931 . S
C59 O70 1.256 . S
C59 O71 1.257 . S
O60 Gd40 2.377 . S
O60 C42 1.240 . S
O61 Gd41 2.395 . S
O61 C42 1.240 1_554 S
O62 Gd40 2.448 . S
O62 C43 1.249 . S
O63 Gd40 2.506 1_554 S
O63 C43 1.252 1_554 S
O64 Gd40 2.435 . S
O64 C50 1.256 . S
O65 Gd40 2.717 . S
O65 Gd41 2.327 1_556 S
O65 C50 1.257 . S
O66 Gd41 2.377 . S
O66 C51 1.240 . S
O67 Gd40 2.395 1_554 S
O67 C51 1.240 . S
O68 Gd41 2.448 . S
O68 C52 1.249 . S
O69 Gd41 2.506 1_556 S
O69 C52 1.252 1_556 S
O70 Gd41 2.435 . S
O70 C59 1.256 . S
O71 Gd40 2.327 1_554 S
O71 Gd41 2.717 . S
O71 C59 1.257 . S
H72 C45 0.930 . S
H73 C46 0.931 . S
H74 C48 0.931 . S
H75 C49 0.931 . S
H76 C54 0.930 . S
H77 C55 0.931 . S
H78 C57 0.931 . S
H79 C58 0.931 . S
Gd80 C83 2.818 . S
Gd80 O100 2.377 . S
Gd80 O102 2.448 . S
Gd80 O103 2.506 1_556 S
Gd80 O104 2.435 . S
Gd80 O105 2.717 1_565 S
Gd80 O107 2.395 1_566 S
Gd80 O111 2.327 1_556 S
Gd81 C92 2.818 . S
Gd81 O101 2.395 1_545 S
Gd81 O105 2.327 1_554 S
Gd81 O106 2.377 . S
Gd81 O108 2.448 . S
Gd81 O109 2.506 1_554 S
Gd81 O110 2.435 . S
Gd81 O111 2.717 1_545 S
C82 O100 1.240 . S
C82 O101 1.240 1_556 S
C83 Gd80 2.818 . S
C83 C84 1.510 . S
C83 O102 1.249 . S
C83 O103 1.252 1_556 S
C84 C83 1.510 . S
C84 C85 1.404 . S
C84 C86 1.352 1_556 S
C85 C84 1.404 . S
C85 C89 1.389 . S
C85 H112 0.930 . S
C86 C84 1.352 1_554 S
C86 C88 1.374 . S
C86 H113 0.931 . S
C87 C88 1.359 1_556 S
C87 C89 1.364 . S
C88 C86 1.374 . S
C88 C87 1.359 1_554 S
C88 H114 0.931 . S
C89 C85 1.389 . S
C89 C87 1.364 . S
C89 H115 0.931 . S
C90 O104 1.256 1_545 S
C90 O105 1.257 . S
C91 O106 1.240 . S
C91 O107 1.240 . S
C92 Gd81 2.818 . S
C92 C93 1.510 . S
C92 O108 1.249 . S
C92 O109 1.252 1_554 S
C93 C92 1.510 . S
C93 C94 1.404 . S
C93 C95 1.352 1_554 S
C94 C93 1.404 . S
C94 C98 1.389 . S
C94 H116 0.930 . S
C95 C93 1.352 1_556 S
C95 C97 1.374 . S
C95 H117 0.931 . S
C96 C97 1.359 1_554 S
C96 C98 1.364 . S
C97 C95 1.374 . S
C97 C96 1.359 1_556 S
C97 H118 0.931 . S
C98 C94 1.389 . S
C98 C96 1.364 . S
C98 H119 0.931 . S
C99 O110 1.256 1_565 S
C99 O111 1.257 . S
O100 Gd80 2.377 . S
O100 C82 1.240 . S
O101 Gd81 2.395 1_565 S
O101 C82 1.240 1_554 S
O102 Gd80 2.448 . S
O102 C83 1.249 . S
O103 Gd80 2.506 1_554 S
O103 C83 1.252 1_554 S
O104 Gd80 2.435 . S
O104 C90 1.256 1_565 S
O105 Gd80 2.717 1_545 S
O105 Gd81 2.327 1_556 S
O105 C90 1.257 . S
O106 Gd81 2.377 . S
O106 C91 1.240 . S
O107 Gd80 2.395 1_544 S
O107 C91 1.240 . S
O108 Gd81 2.448 . S
O108 C92 1.249 . S
O109 Gd81 2.506 1_556 S
O109 C92 1.252 1_556 S
O110 Gd81 2.435 . S
O110 C99 1.256 1_545 S
O111 Gd80 2.327 1_554 S
O111 Gd81 2.717 1_565 S
O111 C99 1.257 . S
H112 C85 0.930 . S
H113 C86 0.931 . S
H114 C88 0.931 . S
H115 C89 0.931 . S
H116 C94 0.930 . S
H117 C95 0.931 . S
H118 C97 0.931 . S
H119 C98 0.931 . S
Gd120 C123 2.818 . S
Gd120 O140 2.377 . S
Gd120 O142 2.448 . S
Gd120 O143 2.506 . S
Gd120 O144 2.435 . S
Gd120 O145 2.717 . S
Gd120 O147 2.395 . S
Gd120 O151 2.327 . S
Gd121 C132 2.818 . S
Gd121 O141 2.395 . S
Gd121 O145 2.327 . S
Gd121 O146 2.377 . S
Gd121 O148 2.448 . S
Gd121 O149 2.506 . S
Gd121 O150 2.435 . S
Gd121 O151 2.717 . S
C122 O140 1.240 . S
C122 O141 1.240 . S
C123 Gd120 2.818 . S
C123 C124 1.510 . S
C123 O142 1.249 . S
C123 O143 1.252 . S
C124 C123 1.510 . S
C124 C125 1.404 . S
C124 C126 1.352 . S
C125 C124 1.404 . S
C125 C129 1.389 1_565 S
C125 H152 0.930 . S
C126 C124 1.352 . S
C126 C128 1.374 1_565 S
C126 H153 0.931 . S
C127 C128 1.359 . S
C127 C129 1.364 . S
C128 C126 1.374 1_545 S
C128 C127 1.359 . S
C128 H154 0.931 . S
C129 C125 1.389 1_545 S
C129 C127 1.364 . S
C129 H155 0.931 . S
C130 O144 1.256 . S
C130 O145 1.257 . S
C131 O146 1.240 . S
C131 O147 1.240 . S
C132 Gd121 2.818 . S
C132 C133 1.510 . S
C132 O148 1.249 . S
C132 O149 1.252 . S
C133 C132 1.510 . S
C133 C134 1.404 . S
C133 C135 1.352 . S
C134 C133 1.404 . S
C134 C138 1.389 . S
C134 H156 0.930 . S
C135 C133 1.352 . S
C135 C137 1.374 . S
C135 H157 0.931 . S
C136 C137 1.359 . S
C136 C138 1.364 . S
C137 C135 1.374 . S
C137 C136 1.359 . S
C137 H158 0.931 . S
C138 C134 1.389 . S
C138 C136 1.364 . S
C138 H159 0.931 . S
C139 O150 1.256 . S
C139 O151 1.257 . S
O140 Gd120 2.377 . S
O140 C122 1.240 . S
O141 Gd121 2.395 . S
O141 C122 1.240 . S
O142 Gd120 2.448 . S
O142 C123 1.249 . S
O143 Gd120 2.506 . S
O143 C123 1.252 . S
O144 Gd120 2.435 . S
O144 C130 1.256 . S
O145 Gd120 2.717 . S
O145 Gd121 2.327 . S
O145 C130 1.257 . S
O146 Gd121 2.377 . S
O146 C131 1.240 . S
O147 Gd120 2.395 . S
O147 C131 1.240 . S
O148 Gd121 2.448 . S
O148 C132 1.249 . S
O149 Gd121 2.506 . S
O149 C132 1.252 . S
O150 Gd121 2.435 . S
O150 C139 1.256 . S
O151 Gd120 2.327 . S
O151 Gd121 2.717 . S
O151 C139 1.257 . S
H152 C125 0.930 . S
H153 C126 0.931 . S
H154 C128 0.931 . S
H155 C129 0.931 . S
H156 C134 0.930 . S
H157 C135 0.931 . S
H158 C137 0.931 . S
H159 C138 0.931 . S
Gd160 C163 2.818 . S
Gd160 O180 2.377 . S
Gd160 O182 2.448 . S
Gd160 O183 2.506 . S
Gd160 O184 2.435 . S
Gd160 O185 2.717 . S
Gd160 O187 2.395 . S
Gd160 O191 2.327 . S
Gd161 C172 2.818 . S
Gd161 O181 2.395 . S
Gd161 O185 2.327 . S
Gd161 O186 2.377 . S
Gd161 O188 2.448 . S
Gd161 O189 2.506 . S
Gd161 O190 2.435 . S
Gd161 O191 2.717 . S
C162 O180 1.240 . S
C162 O181 1.240 . S
C163 Gd160 2.818 . S
C163 C164 1.510 . S
C163 O182 1.249 . S
C163 O183 1.252 . S
C164 C163 1.510 . S
C164 C165 1.404 . S
C164 C166 1.352 . S
C165 C164 1.404 . S
C165 C169 1.389 1_455 S
C165 H192 0.930 . S
C166 C164 1.352 . S
C166 C168 1.374 1_455 S
C166 H193 0.931 . S
C167 C168 1.359 . S
C167 C169 1.364 . S
C168 C166 1.374 1_655 S
C168 C167 1.359 . S
C168 H194 0.931 . S
C169 C165 1.389 1_655 S
C169 C167 1.364 . S
C169 H195 0.931 . S
C170 O184 1.256 . S
C170 O185 1.257 . S
C171 O186 1.240 . S
C171 O187 1.240 . S
C172 Gd161 2.818 . S
C172 C173 1.510 . S
C172 O188 1.249 . S
C172 O189 1.252 . S
C173 C172 1.510 . S
C173 C174 1.404 . S
C173 C175 1.352 . S
C174 C173 1.404 . S
C174 C178 1.389 . S
C174 H196 0.930 . S
C175 C173 1.352 . S
C175 C177 1.374 . S
C175 H197 0.931 . S
C176 C177 1.359 . S
C176 C178 1.364 . S
C177 C175 1.374 . S
C177 C176 1.359 . S
C177 H198 0.931 . S
C178 C174 1.389 . S
C178 C176 1.364 . S
C178 H199 0.931 . S
C179 O190 1.256 . S
C179 O191 1.257 . S
O180 Gd160 2.377 . S
O180 C162 1.240 . S
O181 Gd161 2.395 . S
O181 C162 1.240 . S
O182 Gd160 2.448 . S
O182 C163 1.249 . S
O183 Gd160 2.506 . S
O183 C163 1.252 . S
O184 Gd160 2.435 . S
O184 C170 1.256 . S
O185 Gd160 2.717 . S
O185 Gd161 2.327 . S
O185 C170 1.257 . S
O186 Gd161 2.377 . S
O186 C171 1.240 . S
O187 Gd160 2.395 . S
O187 C171 1.240 . S
O188 Gd161 2.448 . S
O188 C172 1.249 . S
O189 Gd161 2.506 . S
O189 C172 1.252 . S
O190 Gd161 2.435 . S
O190 C179 1.256 . S
O191 Gd160 2.327 . S
O191 Gd161 2.717 . S
O191 C179 1.257 . S
H192 C165 0.930 . S
H193 C166 0.931 . S
H194 C168 0.931 . S
H195 C169 0.931 . S
H196 C174 0.930 . S
H197 C175 0.931 . S
H198 C177 0.931 . S
H199 C178 0.931 . S
Gd200 C203 2.818 . S
Gd200 O220 2.377 . S
Gd200 O222 2.448 . S
Gd200 O223 2.506 . S
Gd200 O224 2.435 . S
Gd200 O225 2.717 . S
Gd200 O227 2.395 . S
Gd200 O231 2.327 . S
Gd201 C212 2.818 . S
Gd201 O221 2.395 . S
Gd201 O225 2.327 . S
Gd201 O226 2.377 . S
Gd201 O228 2.448 . S
Gd201 O229 2.506 . S
Gd201 O230 2.435 . S
Gd201 O231 2.717 . S
C202 O220 1.240 . S
C202 O221 1.240 . S
C203 Gd200 2.818 . S
C203 C204 1.510 . S
C203 O222 1.249 . S
C203 O223 1.252 . S
C204 C203 1.510 . S
C204 C205 1.404 . S
C204 C206 1.352 . S
C205 C204 1.404 . S
C205 C209 1.389 . S
C205 H232 0.930 . S
C206 C204 1.352 . S
C206 C208 1.374 . S
C206 H233 0.931 . S
C207 C208 1.359 . S
C207 C209 1.364 . S
C208 C206 1.374 . S
C208 C207 1.359 . S
C208 H234 0.931 . S
C209 C205 1.389 . S
C209 C207 1.364 . S
C209 H235 0.931 . S
C210 O224 1.256 . S
C210 O225 1.257 . S
C211 O226 1.240 . S
C211 O227 1.240 . S
C212 Gd201 2.818 . S
C212 C213 1.510 . S
C212 O228 1.249 . S
C212 O229 1.252 . S
C213 C212 1.510 . S
C213 C214 1.404 . S
C213 C215 1.352 . S
C214 C213 1.404 . S
C214 C218 1.389 . S
C214 H236 0.930 . S
C215 C213 1.352 . S
C215 C217 1.374 . S
C215 H237 0.931 . S
C216 C217 1.359 . S
C216 C218 1.364 . S
C217 C215 1.374 . S
C217 C216 1.359 . S
C217 H238 0.931 . S
C218 C214 1.389 . S
C218 C216 1.364 . S
C218 H239 0.931 . S
C219 O230 1.256 . S
C219 O231 1.257 . S
O220 Gd200 2.377 . S
O220 C202 1.240 . S
O221 Gd201 2.395 . S
O221 C202 1.240 . S
O222 Gd200 2.448 . S
O222 C203 1.249 . S
O223 Gd200 2.506 . S
O223 C203 1.252 . S
O224 Gd200 2.435 . S
O224 C210 1.256 . S
O225 Gd200 2.717 . S
O225 Gd201 2.327 . S
O225 C210 1.257 . S
O226 Gd201 2.377 . S
O226 C211 1.240 . S
O227 Gd200 2.395 . S
O227 C211 1.240 . S
O228 Gd201 2.448 . S
O228 C212 1.249 . S
O229 Gd201 2.506 . S
O229 C212 1.252 . S
O230 Gd201 2.435 . S
O230 C219 1.256 . S
O231 Gd200 2.327 . S
O231 Gd201 2.717 . S
O231 C219 1.257 . S
H232 C205 0.930 . S
H233 C206 0.931 . S
H234 C208 0.931 . S
H235 C209 0.931 . S
H236 C214 0.930 . S
H237 C215 0.931 . S
H238 C217 0.931 . S
H239 C218 0.931 . S
Gd240 C243 2.818 . S
Gd240 O260 2.377 . S
Gd240 O262 2.448 . S
Gd240 O263 2.506 . S
Gd240 O264 2.435 . S
Gd240 O265 2.717 . S
Gd240 O267 2.395 . S
Gd240 O271 2.327 . S
Gd241 C252 2.818 1_545 S
Gd241 O261 2.395 . S
Gd241 O265 2.327 . S
Gd241 O266 2.377 . S
Gd241 O268 2.448 1_545 S
Gd241 O269 2.506 . S
Gd241 O270 2.435 . S
Gd241 O271 2.717 . S
C242 O260 1.240 . S
C242 O261 1.240 . S
C243 Gd240 2.818 . S
C243 C244 1.510 . S
C243 O262 1.249 . S
C243 O263 1.252 . S
C244 C243 1.510 . S
C244 C245 1.404 . S
C244 C246 1.352 . S
C245 C244 1.404 . S
C245 C249 1.389 . S
C245 H272 0.930 . S
C246 C244 1.352 . S
C246 C248 1.374 . S
C246 H273 0.931 . S
C247 C248 1.359 . S
C247 C249 1.364 . S
C248 C246 1.374 . S
C248 C247 1.359 . S
C248 H274 0.931 . S
C249 C245 1.389 . S
C249 C247 1.364 . S
C249 H275 0.931 . S
C250 O264 1.256 . S
C250 O265 1.257 . S
C251 O266 1.240 . S
C251 O267 1.240 . S
C252 Gd241 2.818 1_565 S
C252 C253 1.510 . S
C252 O268 1.249 . S
C252 O269 1.252 1_565 S
C253 C252 1.510 . S
C253 C254 1.404 . S
C253 C255 1.352 . S
C254 C253 1.404 . S
C254 C258 1.389 . S
C254 H276 0.930 . S
C255 C253 1.352 . S
C255 C257 1.374 . S
C255 H277 0.931 . S
C256 C257 1.359 . S
C256 C258 1.364 . S
C257 C255 1.374 . S
C257 C256 1.359 . S
C257 H278 0.931 . S
C258 C254 1.389 . S
C258 C256 1.364 . S
C258 H279 0.931 . S
C259 O270 1.256 . S
C259 O271 1.257 . S
O260 Gd240 2.377 . S
O260 C242 1.240 . S
O261 Gd241 2.395 . S
O261 C242 1.240 . S
O262 Gd240 2.448 . S
O262 C243 1.249 . S
O263 Gd240 2.506 . S
O263 C243 1.252 . S
O264 Gd240 2.435 . S
O264 C250 1.256 . S
O265 Gd240 2.717 . S
O265 Gd241 2.327 . S
O265 C250 1.257 . S
O266 Gd241 2.377 . S
O266 C251 1.240 . S
O267 Gd240 2.395 . S
O267 C251 1.240 . S
O268 Gd241 2.448 1_565 S
O268 C252 1.249 . S
O269 Gd241 2.506 . S
O269 C252 1.252 1_545 S
O270 Gd241 2.435 . S
O270 C259 1.256 . S
O271 Gd240 2.327 . S
O271 Gd241 2.717 . S
O271 C259 1.257 . S
H272 C245 0.930 . S
H273 C246 0.931 . S
H274 C248 0.931 . S
H275 C249 0.931 . S
H276 C254 0.930 . S
H277 C255 0.931 . S
H278 C257 0.931 . S
H279 C258 0.931 . S
Gd280 C283 2.818 . S
Gd280 O300 2.377 . S
Gd280 O302 2.448 . S
Gd280 O303 2.506 . S
Gd280 O304 2.435 . S
Gd280 O305 2.717 . S
Gd280 O307 2.395 . S
Gd280 O311 2.327 . S
Gd281 C292 2.818 1_655 S
Gd281 O301 2.395 . S
Gd281 O305 2.327 . S
Gd281 O306 2.377 . S
Gd281 O308 2.448 1_655 S
Gd281 O309 2.506 1_655 S
Gd281 O310 2.435 . S
Gd281 O311 2.717 . S
C282 O300 1.240 . S
C282 O301 1.240 . S
C283 Gd280 2.818 . S
C283 C284 1.510 . S
C283 O302 1.249 . S
C283 O303 1.252 . S
C284 C283 1.510 . S
C284 C285 1.404 . S
C284 C286 1.352 . S
C285 C284 1.404 . S
C285 C289 1.389 . S
C285 H312 0.930 . S
C286 C284 1.352 . S
C286 C288 1.374 . S
C286 H313 0.931 . S
C287 C288 1.359 . S
C287 C289 1.364 . S
C288 C286 1.374 . S
C288 C287 1.359 . S
C288 H314 0.931 . S
C289 C285 1.389 . S
C289 C287 1.364 . S
C289 H315 0.931 . S
C290 O304 1.256 . S
C290 O305 1.257 . S
C291 O306 1.240 . S
C291 O307 1.240 . S
C292 Gd281 2.818 1_455 S
C292 C293 1.510 . S
C292 O308 1.249 . S
C292 O309 1.252 . S
C293 C292 1.510 . S
C293 C294 1.404 . S
C293 C295 1.352 . S
C294 C293 1.404 . S
C294 C298 1.389 . S
C294 H316 0.930 . S
C295 C293 1.352 . S
C295 C297 1.374 . S
C295 H317 0.931 . S
C296 C297 1.359 . S
C296 C298 1.364 . S
C297 C295 1.374 . S
C297 C296 1.359 . S
C297 H318 0.931 . S
C298 C294 1.389 . S
C298 C296 1.364 . S
C298 H319 0.931 . S
C299 O310 1.256 . S
C299 O311 1.257 . S
O300 Gd280 2.377 . S
O300 C282 1.240 . S
O301 Gd281 2.395 . S
O301 C282 1.240 . S
O302 Gd280 2.448 . S
O302 C283 1.249 . S
O303 Gd280 2.506 . S
O303 C283 1.252 . S
O304 Gd280 2.435 . S
O304 C290 1.256 . S
O305 Gd280 2.717 . S
O305 Gd281 2.327 . S
O305 C290 1.257 . S
O306 Gd281 2.377 . S
O306 C291 1.240 . S
O307 Gd280 2.395 . S
O307 C291 1.240 . S
O308 Gd281 2.448 1_455 S
O308 C292 1.249 . S
O309 Gd281 2.506 1_455 S
O309 C292 1.252 . S
O310 Gd281 2.435 . S
O310 C299 1.256 . S
O311 Gd280 2.327 . S
O311 Gd281 2.717 . S
O311 C299 1.257 . S
H312 C285 0.930 . S
H313 C286 0.931 . S
H314 C288 0.931 . S
H315 C289 0.931 . S
H316 C294 0.930 . S
H317 C295 0.931 . S
H318 C297 0.931 . S
H319 C298 0.931 . S
Gd320 C323 2.818 . S
Gd320 O340 2.377 . S
Gd320 O342 2.448 . S
Gd320 O343 2.506 . S
Gd320 O344 2.435 . S
Gd320 O345 2.717 . S
Gd320 O347 2.395 . S
Gd320 O351 2.327 . S
Gd321 C332 2.818 . S
Gd321 O341 2.395 . S
Gd321 O345 2.327 . S
Gd321 O346 2.377 . S
Gd321 O348 2.448 . S
Gd321 O349 2.506 . S
Gd321 O350 2.435 . S
Gd321 O351 2.717 . S
C322 O340 1.240 . S
C322 O341 1.240 . S
C323 Gd320 2.818 . S
C323 C324 1.510 . S
C323 O342 1.249 . S
C323 O343 1.252 . S
C324 C323 1.510 . S
C324 C325 1.404 . S
C324 C326 1.352 . S
C325 C324 1.404 . S
C325 C329 1.389 . S
C325 H352 0.930 . S
C326 C324 1.352 . S
C326 C328 1.374 . S
C326 H353 0.931 . S
C327 C328 1.359 . S
C327 C329 1.364 . S
C328 C326 1.374 . S
C328 C327 1.359 . S
C328 H354 0.931 . S
C329 C325 1.389 . S
C329 C327 1.364 . S
C329 H355 0.931 . S
C330 O344 1.256 . S
C330 O345 1.257 . S
C331 O346 1.240 . S
C331 O347 1.240 . S
C332 Gd321 2.818 . S
C332 C333 1.510 . S
C332 O348 1.249 . S
C332 O349 1.252 . S
C333 C332 1.510 . S
C333 C334 1.404 . S
C333 C335 1.352 . S
C334 C333 1.404 . S
C334 C338 1.389 . S
C334 H356 0.930 . S
C335 C333 1.352 . S
C335 C337 1.374 . S
C335 H357 0.931 . S
C336 C337 1.359 . S
C336 C338 1.364 . S
C337 C335 1.374 . S
C337 C336 1.359 . S
C337 H358 0.931 . S
C338 C334 1.389 . S
C338 C336 1.364 . S
C338 H359 0.931 . S
C339 O350 1.256 . S
C339 O351 1.257 . S
O340 Gd320 2.377 . S
O340 C322 1.240 . S
O341 Gd321 2.395 . S
O341 C322 1.240 . S
O342 Gd320 2.448 . S
O342 C323 1.249 . S
O343 Gd320 2.506 . S
O343 C323 1.252 . S
O344 Gd320 2.435 . S
O344 C330 1.256 . S
O345 Gd320 2.717 . S
O345 Gd321 2.327 . S
O345 C330 1.257 . S
O346 Gd321 2.377 . S
O346 C331 1.240 . S
O347 Gd320 2.395 . S
O347 C331 1.240 . S
O348 Gd321 2.448 . S
O348 C332 1.249 . S
O349 Gd321 2.506 . S
O349 C332 1.252 . S
O350 Gd321 2.435 . S
O350 C339 1.256 . S
O351 Gd320 2.327 . S
O351 Gd321 2.717 . S
O351 C339 1.257 . S
H352 C325 0.930 . S
H353 C326 0.931 . S
H354 C328 0.931 . S
H355 C329 0.931 . S
H356 C334 0.930 . S
H357 C335 0.931 . S
H358 C337 0.931 . S
H359 C338 0.931 . S
C360 C361 1.363 1_554 S
C360 C366 1.379 . S
C360 N368 1.356 . S
C361 C360 1.363 1_556 S
C361 C367 1.363 . S
C362 C363 1.363 . S
C362 C367 1.379 . S
C362 N369 1.356 . S
C363 C362 1.363 . S
C363 C366 1.363 1_556 S
N364 C366 1.356 . S
N364 H376 0.984 . S
N364 H377 0.985 . S
N365 C367 1.356 . S
N365 H370 0.984 . S
N365 H371 0.985 . S
C366 C360 1.379 . S
C366 C363 1.363 1_554 S
C366 N364 1.356 . S
C367 C361 1.363 . S
C367 C362 1.379 . S
C367 N365 1.356 . S
N368 C360 1.356 . S
N368 H374 0.984 . S
N368 H375 0.984 . S
N369 C362 1.356 . S
N369 H372 0.984 . S
N369 H373 0.985 . S
H370 N365 0.984 . S
H371 N365 0.985 . S
H372 N369 0.984 . S
H373 N369 0.985 . S
H374 N368 0.984 . S
H375 N368 0.984 . S
H376 N364 0.984 . S
H377 N364 0.985 . S
C378 C379 1.363 . S
C378 C384 1.379 . S
C378 N386 1.356 . S
C379 C378 1.363 . S
C379 C385 1.363 1_556 S
C380 C381 1.363 1_554 S
C380 C385 1.379 . S
C380 N387 1.356 . S
C381 C380 1.363 1_556 S
C381 C384 1.363 . S
N382 C384 1.356 . S
N382 H394 0.984 . S
N382 H395 0.985 . S
N383 C385 1.356 . S
N383 H388 0.984 . S
N383 H389 0.985 . S
C384 C378 1.379 . S
C384 C381 1.363 . S
C384 N382 1.356 . S
C385 C379 1.363 1_554 S
C385 C380 1.379 . S
C385 N383 1.356 . S
N386 C378 1.356 . S
N386 H392 0.984 . S
N386 H393 0.984 . S
N387 C380 1.356 . S
N387 H390 0.984 . S
N387 H391 0.985 . S
H388 N383 0.984 . S
H389 N383 0.985 . S
H390 N387 0.984 . S
H391 N387 0.985 . S
H392 N386 0.984 . S
H393 N386 0.984 . S
H394 N382 0.984 . S
H395 N382 0.985 . S
C396 C397 1.363 . S
C396 C402 1.379 . S
C396 N404 1.356 . S
C397 C396 1.363 . S
C397 C403 1.363 1_556 S
C398 C399 1.363 1_554 S
C398 C403 1.379 . S
C398 N405 1.356 . S
C399 C398 1.363 1_556 S
C399 C402 1.363 . S
N400 C402 1.356 . S
N400 H412 0.984 . S
N400 H413 0.985 . S
N401 C403 1.356 . S
N401 H406 0.984 . S
N401 H407 0.985 . S
C402 C396 1.379 . S
C402 C399 1.363 . S
C402 N400 1.356 . S
C403 C397 1.363 1_554 S
C403 C398 1.379 . S
C403 N401 1.356 . S
N404 C396 1.356 . S
N404 H410 0.984 . S
N404 H411 0.984 . S
N405 C398 1.356 . S
N405 H408 0.984 . S
N405 H409 0.985 . S
H406 N401 0.984 . S
H407 N401 0.985 . S
H408 N405 0.984 . S
H409 N405 0.985 . S
H410 N404 0.984 . S
H411 N404 0.984 . S
H412 N400 0.984 . S
H413 N400 0.985 . S
C414 C415 1.363 1_556 S
C414 C420 1.379 . S
C414 N422 1.356 . S
C415 C414 1.363 1_554 S
C415 C421 1.363 . S
C416 C417 1.363 . S
C416 C421 1.379 . S
C416 N423 1.356 . S
C417 C416 1.363 . S
C417 C420 1.363 1_554 S
N418 C420 1.356 . S
N418 H430 0.984 . S
N418 H431 0.985 . S
N419 C421 1.356 . S
N419 H424 0.984 . S
N419 H425 0.985 . S
C420 C414 1.379 . S
C420 C417 1.363 1_556 S
C420 N418 1.356 . S
C421 C415 1.363 . S
C421 C416 1.379 . S
C421 N419 1.356 . S
N422 C414 1.356 . S
N422 H428 0.984 . S
N422 H429 0.984 . S
N423 C416 1.356 . S
N423 H426 0.984 . S
N423 H427 0.985 . S
H424 N419 0.984 . S
H425 N419 0.985 . S
H426 N423 0.984 . S
H427 N423 0.985 . S
H428 N422 0.984 . S
H429 N422 0.984 . S
H430 N418 0.984 . S
H431 N418 0.985 . S
C432 C433 1.363 1_556 S
C432 C438 1.379 . S
C432 N440 1.356 . S
C433 C432 1.363 1_554 S
C433 C439 1.363 . S
C434 C435 1.363 . S
C434 C439 1.379 . S
C434 N441 1.356 . S
C435 C434 1.363 . S
C435 C438 1.363 1_554 S
N436 C438 1.356 . S
N436 H448 0.984 . S
N436 H449 0.985 . S
N437 C439 1.356 . S
N437 H442 0.984 . S
N437 H443 0.985 . S
C438 C432 1.379 . S
C438 C435 1.363 1_556 S
C438 N436 1.356 . S
C439 C433 1.363 . S
C439 C434 1.379 . S
C439 N437 1.356 . S
N440 C432 1.356 . S
N440 H446 0.984 . S
N440 H447 0.984 . S
N441 C434 1.356 . S
N441 H444 0.984 . S
N441 H445 0.985 . S
H442 N437 0.984 . S
H443 N437 0.985 . S
H444 N441 0.984 . S
H445 N441 0.985 . S
H446 N440 0.984 . S
H447 N440 0.984 . S
H448 N436 0.984 . S
H449 N436 0.985 . S
C450 C451 1.363 . S
C450 C456 1.379 . S
C450 N458 1.356 . S
C451 C450 1.363 . S
C451 C457 1.363 1_554 S
C452 C453 1.363 1_556 S
C452 C457 1.379 . S
C452 N459 1.356 . S
C453 C452 1.363 1_554 S
C453 C456 1.363 . S
N454 C456 1.356 . S
N454 H466 0.984 . S
N454 H467 0.985 . S
N455 C457 1.356 . S
N455 H460 0.984 . S
N455 H461 0.985 . S
C456 C450 1.379 . S
C456 C453 1.363 . S
C456 N454 1.356 . S
C457 C451 1.363 1_556 S
C457 C452 1.379 . S
C457 N455 1.356 . S
N458 C450 1.356 . S
N458 H464 0.984 . S
N458 H465 0.984 . S
N459 C452 1.356 . S
N459 H462 0.984 . S
N459 H463 0.985 . S
H460 N455 0.984 . S
H461 N455 0.985 . S
H462 N459 0.984 . S
H463 N459 0.985 . S
H464 N458 0.984 . S
H465 N458 0.984 . S
H466 N454 0.984 . S
H467 N454 0.985 . S
C468 C469 1.363 . S
C468 C474 1.379 . S
C468 N476 1.356 . S
C469 C468 1.363 . S
C469 C475 1.363 . S
C470 C471 1.363 . S
C470 C475 1.379 . S
C470 N477 1.356 . S
C471 C470 1.363 . S
C471 C474 1.363 . S
N472 C474 1.356 . S
N472 H484 0.984 . S
N472 H485 0.985 . S
N473 C475 1.356 . S
N473 H478 0.984 . S
N473 H479 0.985 . S
C474 C468 1.379 . S
C474 C471 1.363 . S
C474 N472 1.356 . S
C475 C469 1.363 . S
C475 C470 1.379 . S
C475 N473 1.356 . S
N476 C468 1.356 . S
N476 H482 0.984 . S
N476 H483 0.984 . S
N477 C470 1.356 . S
N477 H480 0.984 . S
N477 H481 0.985 . S
H478 N473 0.984 . S
H479 N473 0.985 . S
H480 N477 0.984 . S
H481 N477 0.985 . S
H482 N476 0.984 . S
H483 N476 0.984 . S
H484 N472 0.984 . S
H485 N472 0.985 . S
C486 C487 1.363 . S
C486 C492 1.379 . S
C486 N494 1.356 . S
C487 C486 1.363 . S
C487 C493 1.363 . S
C488 C489 1.363 1_565 S
C488 C493 1.379 1_565 S
C488 N495 1.356 . S
C489 C488 1.363 1_545 S
C489 C492 1.363 . S
N490 C492 1.356 . S
N490 H502 0.984 . S
N490 H503 0.985 . S
N491 C493 1.356 1_565 S
N491 H496 0.984 1_565 S
N491 H497 0.985 . S
C492 C486 1.379 . S
C492 C489 1.363 . S
C492 N490 1.356 . S
C493 C487 1.363 . S
C493 C488 1.379 1_545 S
C493 N491 1.356 1_545 S
N494 C486 1.356 . S
N494 H500 0.984 . S
N494 H501 0.984 . S
N495 C488 1.356 . S
N495 H498 0.984 . S
N495 H499 0.985 . S
H496 N491 0.984 1_545 S
H497 N491 0.985 . S
H498 N495 0.984 . S
H499 N495 0.985 . S
H500 N494 0.984 . S
H501 N494 0.984 . S
H502 N490 0.984 . S
H503 N490 0.985 . S
C504 C505 1.363 1_655 S
C504 C510 1.379 . S
C504 N512 1.356 . S
C505 C504 1.363 1_455 S
C505 C511 1.363 . S
C506 C507 1.363 1_455 S
C506 C511 1.379 . S
C506 N513 1.356 . S
C507 C506 1.363 1_655 S
C507 C510 1.363 . S
N508 C510 1.356 . S
N508 H520 0.984 . S
N508 H521 0.985 . S
N509 C511 1.356 . S
N509 H514 0.984 . S
N509 H515 0.985 . S
C510 C504 1.379 . S
C510 C507 1.363 . S
C510 N508 1.356 . S
C511 C505 1.363 . S
C511 C506 1.379 . S
C511 N509 1.356 . S
N512 C504 1.356 . S
N512 H518 0.984 . S
N512 H519 0.984 . S
N513 C506 1.356 . S
N513 H516 0.984 1_455 S
N513 H517 0.985 . S
H514 N509 0.984 . S
H515 N509 0.985 . S
H516 N513 0.984 1_655 S
H517 N513 0.985 . S
H518 N512 0.984 . S
H519 N512 0.984 . S
H520 N508 0.984 . S
H521 N508 0.985 . S
C522 C523 1.363 . S
C522 C528 1.379 . S
C522 N530 1.356 . S
C523 C522 1.363 . S
C523 C529 1.363 . S
C524 C525 1.363 . S
C524 C529 1.379 . S
C524 N531 1.356 . S
C525 C524 1.363 . S
C525 C528 1.363 . S
N526 C528 1.356 . S
N526 H538 0.984 . S
N526 H539 0.985 . S
N527 C529 1.356 . S
N527 H532 0.984 . S
N527 H533 0.985 . S
C528 C522 1.379 . S
C528 C525 1.363 . S
C528 N526 1.356 . S
C529 C523 1.363 . S
C529 C524 1.379 . S
C529 N527 1.356 . S
N530 C522 1.356 . S
N530 H536 0.984 . S
N530 H537 0.984 . S
N531 C524 1.356 . S
N531 H534 0.984 . S
N531 H535 0.985 . S
H532 N527 0.984 . S
H533 N527 0.985 . S
H534 N531 0.984 . S
H535 N531 0.985 . S
H536 N530 0.984 . S
H537 N530 0.984 . S
H538 N526 0.984 . S
H539 N526 0.985 . S
C540 C541 1.363 . S
C540 C546 1.379 . S
C540 N548 1.356 . S
C541 C540 1.363 . S
C541 C547 1.363 . S
C542 C543 1.363 . S
C542 C547 1.379 . S
C542 N549 1.356 . S
C543 C542 1.363 . S
C543 C546 1.363 . S
N544 C546 1.356 . S
N544 H556 0.984 . S
N544 H557 0.985 . S
N545 C547 1.356 . S
N545 H550 0.984 . S
N545 H551 0.985 . S
C546 C540 1.379 . S
C546 C543 1.363 . S
C546 N544 1.356 . S
C547 C541 1.363 . S
C547 C542 1.379 . S
C547 N545 1.356 . S
N548 C540 1.356 . S
N548 H554 0.984 . S
N548 H555 0.984 . S
N549 C542 1.356 . S
N549 H552 0.984 . S
N549 H553 0.985 . S
H550 N545 0.984 . S
H551 N545 0.985 . S
H552 N549 0.984 . S
H553 N549 0.985 . S
H554 N548 0.984 . S
H555 N548 0.984 . S
H556 N544 0.984 . S
H557 N544 0.985 . S
C558 C559 1.363 . S
C558 C564 1.379 . S
C558 N566 1.356 . S
C559 C558 1.363 . S
C559 C565 1.363 . S
C560 C561 1.363 . S
C560 C565 1.379 . S
C560 N567 1.356 . S
C561 C560 1.363 . S
C561 C564 1.363 . S
N562 C564 1.356 . S
N562 H574 0.984 . S
N562 H575 0.985 . S
N563 C565 1.356 . S
N563 H568 0.984 . S
N563 H569 0.985 . S
C564 C558 1.379 . S
C564 C561 1.363 . S
C564 N562 1.356 . S
C565 C559 1.363 . S
C565 C560 1.379 . S
C565 N563 1.356 . S
N566 C558 1.356 . S
N566 H572 0.984 . S
N566 H573 0.984 . S
N567 C560 1.356 . S
N567 H570 0.984 . S
N567 H571 0.985 . S
H568 N563 0.984 . S
H569 N563 0.985 . S
H570 N567 0.984 . S
H571 N567 0.985 . S
H572 N566 0.984 . S
H573 N566 0.984 . S
H574 N562 0.984 . S
H575 N562 0.985 . S
C576 C577 1.363 . S
C576 C582 1.379 . S
C576 N584 1.356 . S
C577 C576 1.363 . S
C577 C583 1.363 . S
C578 C579 1.363 . S
C578 C583 1.379 . S
C578 N585 1.356 . S
C579 C578 1.363 . S
C579 C582 1.363 . S
N580 C582 1.356 . S
N580 H592 0.984 . S
N580 H593 0.985 . S
N581 C583 1.356 . S
N581 H586 0.984 . S
N581 H587 0.985 . S
C582 C576 1.379 . S
C582 C579 1.363 . S
C582 N580 1.356 . S
C583 C577 1.363 . S
C583 C578 1.379 . S
C583 N581 1.356 . S
N584 C576 1.356 . S
N584 H590 0.984 . S
N584 H591 0.984 . S
N585 C578 1.356 . S
N585 H588 0.984 . S
N585 H589 0.985 . S
H586 N581 0.984 . S
H587 N581 0.985 . S
H588 N585 0.984 . S
H589 N585 0.985 . S
H590 N584 0.984 . S
H591 N584 0.984 . S
H592 N580 0.984 . S
H593 N580 0.985 . S
C594 C595 1.363 . S
C594 C600 1.379 . S
C594 N602 1.356 . S
C595 C594 1.363 . S
C595 C601 1.363 . S
C596 C597 1.363 . S
C596 C601 1.379 . S
C596 N603 1.356 . S
C597 C596 1.363 . S
C597 C600 1.363 . S
N598 C600 1.356 . S
N598 H610 0.984 . S
N598 H611 0.985 . S
N599 C601 1.356 . S
N599 H604 0.984 . S
N599 H605 0.985 . S
C600 C594 1.379 . S
C600 C597 1.363 . S
C600 N598 1.356 . S
C601 C595 1.363 . S
C601 C596 1.379 . S
C601 N599 1.356 . S
N602 C594 1.356 . S
N602 H608 0.984 . S
N602 H609 0.984 . S
N603 C596 1.356 . S
N603 H606 0.984 . S
N603 H607 0.985 . S
H604 N599 0.984 . S
H605 N599 0.985 . S
H606 N603 0.984 . S
H607 N603 0.985 . S
H608 N602 0.984 . S
H609 N602 0.984 . S
H610 N598 0.984 . S
H611 N598 0.985 . S
C612 C613 1.363 . S
C612 C618 1.379 . S
C612 N620 1.356 . S
C613 C612 1.363 . S
C613 C619 1.363 . S
C614 C615 1.363 . S
C614 C619 1.379 . S
C614 N621 1.356 . S
C615 C614 1.363 . S
C615 C618 1.363 . S
N616 C618 1.356 . S
N616 H628 0.984 . S
N616 H629 0.985 . S
N617 C619 1.356 . S
N617 H622 0.984 . S
N617 H623 0.985 . S
C618 C612 1.379 . S
C618 C615 1.363 . S
C618 N616 1.356 . S
C619 C613 1.363 . S
C619 C614 1.379 . S
C619 N617 1.356 . S
N620 C612 1.356 . S
N620 H626 0.984 . S
N620 H627 0.984 . S
N621 C614 1.356 . S
N621 H624 0.984 . S
N621 H625 0.985 . S
H622 N617 0.984 . S
H623 N617 0.985 . S
H624 N621 0.984 . S
H625 N621 0.985 . S
H626 N620 0.984 . S
H627 N620 0.984 . S
H628 N616 0.984 . S
H629 N616 0.985 . S
C630 C631 1.363 1_545 S
C630 C636 1.379 . S
C630 N638 1.356 1_545 S
C631 C630 1.363 1_565 S
C631 C637 1.363 1_565 S
C632 C633 1.363 . S
C632 C637 1.379 . S
C632 N639 1.356 . S
C633 C632 1.363 . S
C633 C636 1.363 . S
N634 C636 1.356 . S
N634 H646 0.984 . S
N634 H647 0.985 . S
N635 C637 1.356 1_565 S
N635 H640 0.984 . S
N635 H641 0.989 . S
C636 C630 1.379 . S
C636 C633 1.363 . S
C636 N634 1.356 . S
C637 C631 1.363 1_545 S
C637 C632 1.379 . S
C637 N635 1.356 1_545 S
N638 C630 1.356 1_565 S
N638 H644 0.984 . S
N638 H645 0.984 . S
N639 C632 1.356 . S
N639 H642 0.984 . S
N639 H643 0.985 . S
H640 N635 0.984 . S
H641 N635 0.989 . S
H642 N639 0.984 . S
H643 N639 0.985 . S
H644 N638 0.984 . S
H645 N638 0.984 . S
H646 N634 0.984 . S
H647 N634 0.985 . S
C648 C649 1.363 . S
C648 C654 1.379 . S
C648 N656 1.356 . S
C649 C648 1.363 . S
C649 C655 1.363 . S
C650 C651 1.363 1_655 S
C650 C655 1.379 . S
C650 N657 1.356 1_655 S
C651 C650 1.363 1_455 S
C651 C654 1.363 1_455 S
N652 C654 1.356 1_455 S
N652 H664 0.984 . S
N652 H665 0.985 . S
N653 C655 1.356 . S
N653 H658 0.984 . S
N653 H659 0.985 . S
C654 C648 1.379 . S
C654 C651 1.363 1_655 S
C654 N652 1.356 1_655 S
C655 C649 1.363 . S
C655 C650 1.379 . S
C655 N653 1.356 . S
N656 C648 1.356 . S
N656 H662 0.984 . S
N656 H663 0.984 . S
N657 C650 1.356 1_455 S
N657 H660 0.984 . S
N657 H661 0.985 . S
H658 N653 0.984 . S
H659 N653 0.985 . S
H660 N657 0.984 . S
H661 N657 0.985 . S
H662 N656 0.984 . S
H663 N656 0.984 . S
H664 N652 0.984 . S
H665 N652 0.985 . S
C666 C667 1.363 . S
C666 C672 1.379 . S
C666 N674 1.356 . S
C667 C666 1.363 . S
C667 C673 1.363 . S
C668 C669 1.363 . S
C668 C673 1.379 . S
C668 N675 1.356 . S
C669 C668 1.363 . S
C669 C672 1.363 . S
N670 C672 1.356 . S
N670 H682 0.984 . S
N670 H683 0.985 . S
N671 C673 1.356 . S
N671 H676 0.984 . S
N671 H677 0.985 . S
C672 C666 1.379 . S
C672 C669 1.363 . S
C672 N670 1.356 . S
C673 C667 1.363 . S
C673 C668 1.379 . S
C673 N671 1.356 . S
N674 C666 1.356 . S
N674 H680 0.984 . S
N674 H681 0.984 . S
N675 C668 1.356 . S
N675 H678 0.984 . S
N675 H679 0.985 . S
H676 N671 0.984 . S
H677 N671 0.985 . S
H678 N675 0.984 . S
H679 N675 0.985 . S
H680 N674 0.984 . S
H681 N674 0.984 . S
H682 N670 0.984 . S
H683 N670 0.985 . S
C684 C685 1.363 . S
C684 C690 1.379 . S
C684 N692 1.356 . S
C685 C684 1.363 . S
C685 C691 1.363 . S
C686 C687 1.363 . S
C686 C691 1.379 . S
C686 N693 1.356 . S
C687 C686 1.363 . S
C687 C690 1.363 . S
N688 C690 1.356 . S
N688 H700 0.984 . S
N688 H701 0.985 . S
N689 C691 1.356 . S
N689 H694 0.984 . S
N689 H695 0.985 . S
C690 C684 1.379 . S
C690 C687 1.363 . S
C690 N688 1.356 . S
C691 C685 1.363 . S
C691 C686 1.379 . S
C691 N689 1.356 . S
N692 C684 1.356 . S
N692 H698 0.984 . S
N692 H699 0.984 . S
N693 C686 1.356 . S
N693 H696 0.984 . S
N693 H697 0.985 . S
H694 N689 0.984 . S
H695 N689 0.985 . S
H696 N693 0.984 . S
H697 N693 0.985 . S
H698 N692 0.984 . S
H699 N692 0.984 . S
H700 N688 0.984 . S
H701 N688 0.985 . S
C702 C703 1.363 . S
C702 C708 1.379 . S
C702 N710 1.356 . S
C703 C702 1.363 . S
C703 C709 1.363 . S
C704 C705 1.363 . S
C704 C709 1.379 . S
C704 N711 1.356 . S
C705 C704 1.363 . S
C705 C708 1.363 . S
N706 C708 1.356 . S
N706 H718 0.984 . S
N706 H719 0.985 . S
N707 C709 1.356 . S
N707 H712 0.984 . S
N707 H713 0.985 . S
C708 C702 1.379 . S
C708 C705 1.363 . S
C708 N706 1.356 . S
C709 C703 1.363 . S
C709 C704 1.379 . S
C709 N707 1.356 . S
N710 C702 1.356 . S
N710 H716 0.984 . S
N710 H717 0.984 . S
N711 C704 1.356 . S
N711 H714 0.984 . S
N711 H715 0.985 . S
H712 N707 0.984 . S
H713 N707 0.985 . S
H714 N711 0.984 . S
H715 N711 0.985 . S
H716 N710 0.984 . S
H717 N710 0.984 . S
H718 N706 0.984 . S
H719 N706 0.985 . S
C720 C721 1.363 . S
C720 C726 1.379 . S
C720 N728 1.356 1_565 S
C721 C720 1.363 . S
C721 C727 1.363 . S
C722 C723 1.363 . S
C722 C727 1.379 . S
C722 N729 1.356 . S
C723 C722 1.363 . S
C723 C726 1.363 . S
N724 C726 1.356 . S
N724 H736 0.984 . S
N724 H737 0.985 . S
N725 C727 1.356 . S
N725 H730 0.984 . S
N725 H731 0.985 . S
C726 C720 1.379 . S
C726 C723 1.363 . S
C726 N724 1.356 . S
C727 C721 1.363 . S
C727 C722 1.379 . S
C727 N725 1.356 . S
N728 C720 1.356 1_545 S
N728 H734 0.984 . S
N728 H735 0.984 . S
N729 C722 1.356 . S
N729 H732 0.984 . S
N729 H733 0.985 . S
H730 N725 0.984 . S
H731 N725 0.985 . S
H732 N729 0.984 . S
H733 N729 0.985 . S
H734 N728 0.984 . S
H735 N728 0.984 . S
H736 N724 0.984 . S
H737 N724 0.985 . S
C738 C739 1.363 . S
C738 C744 1.379 . S
C738 N746 1.356 . S
C739 C738 1.363 . S
C739 C745 1.363 . S
C740 C741 1.363 . S
C740 C745 1.379 . S
C740 N747 1.356 . S
C741 C740 1.363 . S
C741 C744 1.363 . S
N742 C744 1.356 . S
N742 H754 0.984 . S
N742 H755 0.985 . S
N743 C745 1.356 1_565 S
N743 H748 0.984 . S
N743 H749 0.985 . S
C744 C738 1.379 . S
C744 C741 1.363 . S
C744 N742 1.356 . S
C745 C739 1.363 . S
C745 C740 1.379 . S
C745 N743 1.356 1_545 S
N746 C738 1.356 . S
N746 H752 0.984 . S
N746 H753 0.984 . S
N747 C740 1.356 . S
N747 H750 0.984 . S
N747 H751 0.985 . S
H748 N743 0.984 . S
H749 N743 0.985 . S
H750 N747 0.984 . S
H751 N747 0.985 . S
H752 N746 0.984 . S
H753 N746 0.984 . S
H754 N742 0.984 . S
H755 N742 0.985 . S
C756 C757 1.363 . S
C756 C762 1.379 . S
C756 N764 1.356 . S
C757 C756 1.363 . S
C757 C763 1.363 . S
C758 C759 1.363 . S
C758 C763 1.379 . S
C758 N765 1.356 . S
C759 C758 1.363 . S
C759 C762 1.363 . S
N760 C762 1.356 . S
N760 H772 0.984 . S
N760 H773 0.985 . S
N761 C763 1.356 . S
N761 H766 0.984 . S
N761 H767 0.985 . S
C762 C756 1.379 . S
C762 C759 1.363 . S
C762 N760 1.356 . S
C763 C757 1.363 . S
C763 C758 1.379 . S
C763 N761 1.356 . S
N764 C756 1.356 . S
N764 H770 0.984 . S
N764 H771 0.984 . S
N765 C758 1.356 . S
N765 H768 0.984 . S
N765 H769 0.985 . S
H766 N761 0.984 . S
H767 N761 0.985 . S
H768 N765 0.984 . S
H769 N765 0.985 . S
H770 N764 0.984 . S
H771 N764 0.984 . S
H772 N760 0.984 . S
H773 N760 0.985 . S
C774 C775 1.363 . S
C774 C780 1.379 . S
C774 N782 1.356 . S
C775 C774 1.363 . S
C775 C781 1.363 . S
C776 C777 1.363 . S
C776 C781 1.379 . S
C776 N783 1.356 . S
C777 C776 1.363 . S
C777 C780 1.363 . S
N778 C780 1.356 . S
N778 H790 0.984 . S
N778 H791 0.985 . S
N779 C781 1.356 . S
N779 H784 0.984 . S
N779 H785 0.985 . S
C780 C774 1.379 . S
C780 C777 1.363 . S
C780 N778 1.356 . S
C781 C775 1.363 . S
C781 C776 1.379 . S
C781 N779 1.356 . S
N782 C774 1.356 . S
N782 H788 0.984 . S
N782 H789 0.984 . S
N783 C776 1.356 . S
N783 H786 0.984 . S
N783 H787 0.985 . S
H784 N779 0.984 . S
H785 N779 0.985 . S
H786 N783 0.984 . S
H787 N783 0.985 . S
H788 N782 0.984 . S
H789 N782 0.984 . S
H790 N778 0.984 . S
H791 N778 0.985 . S
C792 C793 1.363 . S
C792 C798 1.379 . S
C792 N800 1.356 . S
C793 C792 1.363 . S
C793 C799 1.363 . S
C794 C795 1.363 . S
C794 C799 1.379 . S
C794 N801 1.356 . S
C795 C794 1.363 . S
C795 C798 1.363 . S
N796 C798 1.356 . S
N796 H808 0.984 . S
N796 H809 0.985 . S
N797 C799 1.356 . S
N797 H802 0.984 . S
N797 H803 0.985 . S
C798 C792 1.379 . S
C798 C795 1.363 . S
C798 N796 1.356 . S
C799 C793 1.363 . S
C799 C794 1.379 . S
C799 N797 1.356 . S
N800 C792 1.356 . S
N800 H806 0.984 . S
N800 H807 0.984 . S
N801 C794 1.356 . S
N801 H804 0.984 . S
N801 H805 0.985 . S
H802 N797 0.984 . S
H803 N797 0.985 . S
H804 N801 0.984 . S
H805 N801 0.985 . S
H806 N800 0.984 . S
H807 N800 0.984 . S
H808 N796 0.984 . S
H809 N796 0.985 . S
C810 C811 1.363 . S
C810 C816 1.379 1_565 S
C810 N818 1.356 . S
C811 C810 1.363 . S
C811 C817 1.363 1_565 S
C812 C813 1.363 . S
C812 C817 1.379 . S
C812 N819 1.356 . S
C813 C812 1.363 . S
C813 C816 1.363 . S
N814 C816 1.356 . S
N814 H826 0.984 . S
N814 H827 0.985 . S
N815 C817 1.356 1_565 S
N815 H820 0.984 . S
N815 H821 0.985 1_565 S
C816 C810 1.379 1_545 S
C816 C813 1.363 . S
C816 N814 1.356 . S
C817 C811 1.363 1_545 S
C817 C812 1.379 . S
C817 N815 1.356 1_545 S
N818 C810 1.356 . S
N818 H824 0.984 . S
N818 H825 0.984 . S
N819 C812 1.356 . S
N819 H822 0.984 . S
N819 H823 0.985 . S
H820 N815 0.984 . S
H821 N815 0.985 1_545 S
H822 N819 0.984 . S
H823 N819 0.985 . S
H824 N818 0.984 . S
H825 N818 0.984 . S
H826 N814 0.984 . S
H827 N814 0.985 . S
C828 C829 1.363 . S
C828 C834 1.379 1_655 S
C828 N836 1.356 . S
C829 C828 1.363 . S
C829 C835 1.363 . S
C830 C831 1.363 . S
C830 C835 1.379 1_455 S
C830 N837 1.356 . S
C831 C830 1.363 . S
C831 C834 1.363 . S
N832 C834 1.356 . S
N832 H844 0.984 . S
N832 H845 0.985 . S
N833 C835 1.356 . S
N833 H838 0.984 . S
N833 H839 0.985 . S
C834 C828 1.379 1_455 S
C834 C831 1.363 . S
C834 N832 1.356 . S
C835 C829 1.363 . S
C835 C830 1.379 1_655 S
C835 N833 1.356 . S
N836 C828 1.356 . S
N836 H842 0.984 . S
N836 H843 0.984 . S
N837 C830 1.356 . S
N837 H840 0.984 . S
N837 H841 0.985 . S
H838 N833 0.984 . S
H839 N833 0.985 . S
H840 N837 0.984 . S
H841 N837 0.985 . S
H842 N836 0.984 . S
H843 N836 0.984 . S
H844 N832 0.984 . S
H845 N832 0.985 . S
C361 C47 1.688 . S
C363 C2 1.767 . S
C379 C87 1.688 . S
C381 C42 1.767 . S
C397 C82 1.767 . S
C399 C7 1.688 . S
C415 C96 1.567 . S
C417 C51 1.508 . S
C433 C91 1.508 . S
C435 C16 1.567 . S
C451 C11 1.508 . S
C453 C56 1.567 . S
C469 C122 1.767 . S
C471 C167 1.688 . S
C487 C207 1.688 . S
C489 C162 1.767 1_545 S
C505 C202 1.767 . S
C507 C127 1.688 . S
C523 C171 1.508 . S
C525 C216 1.566 . S
C541 C211 1.508 . S
C543 C136 1.567 . S
C559 C176 1.567 . S
C561 C131 1.508 . S
C577 C287 1.688 . S
C579 C242 1.767 . S
C595 C282 1.767 . S
C597 C327 1.688 . S
C613 C322 1.767 . S
C615 C247 1.688 . S
C631 C336 1.566 . S
C633 C291 1.508 . S
C649 C331 1.508 . S
C651 C256 1.566 . S
C667 C251 1.508 . S
C669 C296 1.566 . S
C685 C210 2.727 . S
C687 C19 2.369 . S
C703 C130 2.727 . S
C705 C59 2.369 . S
C721 C99 2.369 . S
C723 C170 2.727 . S
C739 C90 2.727 . S
C741 C259 2.370 . S
C757 C10 2.727 . S
C759 C299 2.369 . S
C775 C339 2.369 . S
C777 C50 2.727 . S
C793 C139 2.369 . S
C795 C330 2.727 . S
C811 C179 2.369 . S
C813 C250 2.727 . S
C829 C290 2.727 . S
C831 C219 2.369 . S
