# Generated by pormake.
# Topology swf, (7)-cn, num edge types: 1
# Building blocks:
#     Node 0, Type 0, BuildingBlock: HICVOG_clean_sbu_0, # of connection points: 7
#     Node 1, Type 0, BuildingBlock: HICVOG_clean_sbu_0, # of connection points: 7
#     Node 2, Type 0, BuildingBlock: HICVOG_clean_sbu_0, # of connection points: 7
#     Node 3, Type 0, BuildingBlock: HICVOG_clean_sbu_0, # of connection points: 7
#     Node 4, Type 0, BuildingBlock: HICVOG_clean_sbu_0, # of connection points: 7
#     Node 5, Type 0, BuildingBlock: HICVOG_clean_sbu_0, # of connection points: 7
#     Node 6, Type 0, BuildingBlock: HICVOG_clean_sbu_0, # of connection points: 7
#     Node 7, Type 0, BuildingBlock: HICVOG_clean_sbu_0, # of connection points: 7
#     Node 8, Type 0, BuildingBlock: HICVOG_clean_sbu_0, # of connection points: 7
#     Node 9, Type 0, BuildingBlock: HICVOG_clean_sbu_0, # of connection points: 7
#     Node 10, Type 0, BuildingBlock: HICVOG_clean_sbu_0, # of connection points: 7
#     Node 11, Type 0, BuildingBlock: HICVOG_clean_sbu_0, # of connection points: 7
#     Edge 12, Type (0, 0), BuildingBlock: XIVTED_clean_linker_0, # of connection points: 2
#     Edge 13, Type (0, 0), BuildingBlock: XIVTED_clean_linker_0, # of connection points: 2
#     Edge 14, Type (0, 0), BuildingBlock: XIVTED_clean_linker_0, # of connection points: 2
#     Edge 15, Type (0, 0), BuildingBlock: XIVTED_clean_linker_0, # of connection points: 2
#     Edge 16, Type (0, 0), BuildingBlock: XIVTED_clean_linker_0, # of connection points: 2
#     Edge 17, Type (0, 0), BuildingBlock: XIVTED_clean_linker_0, # of connection points: 2
#     Edge 18, Type (0, 0), BuildingBlock: XIVTED_clean_linker_0, # of connection points: 2
#     Edge 19, Type (0, 0), BuildingBlock: XIVTED_clean_linker_0, # of connection points: 2
#     Edge 20, Type (0, 0), BuildingBlock: XIVTED_clean_linker_0, # of connection points: 2
#     Edge 21, Type (0, 0), BuildingBlock: XIVTED_clean_linker_0, # of connection points: 2
#     Edge 22, Type (0, 0), BuildingBlock: XIVTED_clean_linker_0, # of connection points: 2
#     Edge 23, Type (0, 0), BuildingBlock: XIVTED_clean_linker_0, # of connection points: 2
#     Edge 24, Type (0, 0), BuildingBlock: XIVTED_clean_linker_0, # of connection points: 2
#     Edge 25, Type (0, 0), BuildingBlock: XIVTED_clean_linker_0, # of connection points: 2
#     Edge 26, Type (0, 0), BuildingBlock: XIVTED_clean_linker_0, # of connection points: 2
#     Edge 27, Type (0, 0), BuildingBlock: XIVTED_clean_linker_0, # of connection points: 2
#     Edge 28, Type (0, 0), BuildingBlock: XIVTED_clean_linker_0, # of connection points: 2
#     Edge 29, Type (0, 0), BuildingBlock: XIVTED_clean_linker_0, # of connection points: 2
#     Edge 30, Type (0, 0), BuildingBlock: XIVTED_clean_linker_0, # of connection points: 2
#     Edge 31, Type (0, 0), BuildingBlock: XIVTED_clean_linker_0, # of connection points: 2
#     Edge 32, Type (0, 0), BuildingBlock: XIVTED_clean_linker_0, # of connection points: 2
#     Edge 33, Type (0, 0), BuildingBlock: XIVTED_clean_linker_0, # of connection points: 2
#     Edge 34, Type (0, 0), BuildingBlock: XIVTED_clean_linker_0, # of connection points: 2
#     Edge 35, Type (0, 0), BuildingBlock: XIVTED_clean_linker_0, # of connection points: 2
#     Edge 36, Type (0, 0), BuildingBlock: XIVTED_clean_linker_0, # of connection points: 2
#     Edge 37, Type (0, 0), BuildingBlock: XIVTED_clean_linker_0, # of connection points: 2
#     Edge 38, Type (0, 0), BuildingBlock: XIVTED_clean_linker_0, # of connection points: 2
#     Edge 39, Type (0, 0), BuildingBlock: XIVTED_clean_linker_0, # of connection points: 2
#     Edge 40, Type (0, 0), BuildingBlock: XIVTED_clean_linker_0, # of connection points: 2
#     Edge 41, Type (0, 0), BuildingBlock: XIVTED_clean_linker_0, # of connection points: 2
#     Edge 42, Type (0, 0), BuildingBlock: XIVTED_clean_linker_0, # of connection points: 2
#     Edge 43, Type (0, 0), BuildingBlock: XIVTED_clean_linker_0, # of connection points: 2
#     Edge 44, Type (0, 0), BuildingBlock: XIVTED_clean_linker_0, # of connection points: 2
#     Edge 45, Type (0, 0), BuildingBlock: XIVTED_clean_linker_0, # of connection points: 2
#     Edge 46, Type (0, 0), BuildingBlock: XIVTED_clean_linker_0, # of connection points: 2
#     Edge 47, Type (0, 0), BuildingBlock: XIVTED_clean_linker_0, # of connection points: 2
#     Edge 48, Type (0, 0), BuildingBlock: XIVTED_clean_linker_0, # of connection points: 2
#     Edge 49, Type (0, 0), BuildingBlock: XIVTED_clean_linker_0, # of connection points: 2
#     Edge 50, Type (0, 0), BuildingBlock: XIVTED_clean_linker_0, # of connection points: 2
#     Edge 51, Type (0, 0), BuildingBlock: XIVTED_clean_linker_0, # of connection points: 2
#     Edge 52, Type (0, 0), BuildingBlock: XIVTED_clean_linker_0, # of connection points: 2
#     Edge 53, Type (0, 0), BuildingBlock: XIVTED_clean_linker_0, # of connection points: 2
# Relax obj value: 0.352
# Max RMSD: 0.195
# Mean RMSD: 0.195
data_MOF--net-swf--node1-HICVOG_clean_sbu_0--edge1-XIVTED_clean_linker_0
_symmetry_space_group_name_H-M    P1
_symmetry_Int_Tables_number       1
_symmetry_cell_setting            triclinic
loop_
_symmetry_equiv_pos_as_xyz
'x, y, z'
_cell_length_a     46.767687
_cell_length_b     46.672815
_cell_length_c     24.531288
_cell_angle_alpha  90.264928
_cell_angle_beta   90.029158
_cell_angle_gamma 119.80585
loop_
_atom_site_label
_atom_site_type_symbol
_atom_site_fract_x
_atom_site_fract_y
_atom_site_fract_z
_atom_type_partial_charge
Zn0 Zn 0.43606 0.12548 0.99074 0.0
C1 C 0.44586 0.19111 0.10992 0.0
N2 N 0.44529 0.20955 0.06687 0.0
C3 C 0.44426 0.19177 1.02144 0.0
N4 N 0.44447 0.16378 1.03681 0.0
N5 N 0.44572 0.16344 0.09097 0.0
C6 C 0.41862 0.08833 0.18809 0.0
O7 O 0.40769 0.08241 0.13759 0.0
O8 O 0.45248 0.14305 0.91589 0.0
Zn9 Zn 0.46543 0.14005 0.12855 0.0
N10 N 0.38924 0.09583 0.99695 0.0
C11 C 0.33638 0.08583 1.02499 0.0
C12 C 0.36894 0.10772 1.01073 0.0
C13 C 0.37846 0.06295 0.99773 0.0
N14 N 0.32565 0.05295 1.02614 0.0
C15 C 0.3459 0.04071 1.01358 0.0
O16 O 0.46936 0.10268 0.09245 0.0
C17 C 0.46772 0.08821 1.04774 0.0
O18 O 0.45793 0.09622 1.00499 0.0
H19 H 0.37819 0.13396 1.01269 0.0
H20 H 0.3954 0.05455 0.9865 0.0
C21 C 0.5224 0.19909 0.16838 0.0
C22 C 0.55416 0.22655 0.16098 0.0
C23 C 0.55939 0.20231 0.07884 0.0
C24 C 0.52858 0.17501 0.08735 0.0
N25 N 0.51064 0.174 0.13162 0.0
N26 N 0.57147 0.22717 0.11588 0.0
H27 H 0.50684 0.19716 0.20219 0.0
C28 C 0.48325 0.16277 0.92166 0.0
O29 O 0.49597 0.16802 0.97086 0.0
O30 O 0.44364 0.11639 0.19922 0.0
H31 H 0.51851 0.15532 1.05762 0.0
H32 H 0.31991 0.09491 1.03603 0.0
H33 H 0.57372 0.20372 1.04332 0.0
Zn34 Zn 0.33296 0.47396 0.96447 0.0
C35 C 0.26597 0.4577 0.08454 0.0
N36 N 0.2464 0.45555 1.04122 0.0
C37 C 0.26556 0.45976 0.9964 0.0
N38 N 0.29559 0.46462 1.01243 0.0
N39 N 0.29561 0.46269 0.06645 0.0
C40 C 0.33672 0.43428 0.16722 0.0
O41 O 0.33508 0.42578 0.11567 0.0
O42 O 0.35538 0.52092 0.93517 0.0
Zn43 Zn 0.33601 0.4847 0.10925 0.0
N44 N 0.31249 0.44273 0.90611 0.0
C45 C 0.26802 0.38986 0.88218 0.0
C46 C 0.28805 0.41244 0.92154 0.0
C47 C 0.31874 0.45104 0.85265 0.0
N48 N 0.27408 0.39805 0.82887 0.0
C49 C 0.29907 0.42795 0.8126 0.0
O50 O 0.37958 0.49014 0.07687 0.0
C51 C 0.39032 0.4816 1.03557 0.0
O52 O 0.37243 0.46992 0.99296 0.0
H53 H 0.28335 0.40643 0.9643 0.0
H54 H 0.33824 0.47544 0.8418 0.0
C55 C 0.3401 0.54142 0.1682 0.0
C56 C 0.3364 0.56961 0.17033 0.0
C57 C 0.32904 0.56704 0.07472 0.0
C58 C 0.33228 0.53907 0.07285 0.0
N59 N 0.33845 0.52707 0.11921 0.0
N60 N 0.33133 0.58178 0.12333 0.0
H61 H 0.34419 0.53095 0.20464 0.0
C62 C 0.3785 0.54447 0.962 0.0
O63 O 0.38653 0.53861 1.01009 0.0
O64 O 0.33417 0.45963 0.17884 0.0
H65 H 0.32878 0.52639 1.03461 0.0
H66 H 0.24796 0.36593 0.89378 0.0
H67 H 0.32435 0.57675 1.03794 0.0
Zn68 Zn 0.87631 0.3285 1.00466 0.0
C69 C 0.81046 0.26895 0.11622 0.0
N70 N 0.79296 0.25121 0.07134 0.0
C71 C 0.81128 0.26955 1.02796 0.0
N72 N 0.83831 0.29751 1.04636 0.0
N73 N 0.83781 0.2973 0.10049 0.0
C74 C 0.92721 0.34158 0.17236 0.0
O75 O 0.93029 0.34916 0.12045 0.0
O76 O 0.86184 0.33674 0.93218 0.0
Zn77 Zn 0.8654 0.33578 0.14839 0.0
N78 N 0.90197 0.30697 0.9981 0.0
C79 C 0.91799 0.2701 1.0355 0.0
C80 C 0.90291 0.28922 1.04118 0.0
C81 C 0.91518 0.30621 0.94944 0.0
N82 N 0.93079 0.26887 0.98653 0.0
C83 C 0.92942 0.28608 0.94288 0.0
O84 O 0.89391 0.38298 0.11607 0.0
C85 C 0.90995 0.39522 0.07215 0.0
O86 O 0.90585 0.37648 1.03145 0.0
H87 H 0.89141 0.28933 0.07931 0.0
H88 H 0.91391 0.32078 0.91638 0.0
C89 C 0.82678 0.32842 0.24537 0.0
C90 C 0.79685 0.32203 0.26924 0.0
C91 C 0.78137 0.33672 0.18613 0.0
C92 C 0.81062 0.34226 0.16242 0.0
N93 N 0.83244 0.33758 0.19216 0.0
N94 N 0.77512 0.32658 0.2386 0.0
H95 H 0.84443 0.32427 0.26735 0.0
C96 C 0.83924 0.34436 0.93356 0.0
O97 O 0.82304 0.3404 0.97921 0.0
O98 O 0.89917 0.33117 0.19474 0.0
H99 H 0.81533 0.34868 0.11977 0.0
H100 H 0.91905 0.25593 0.06942 0.0
H101 H 0.76346 0.33983 0.16283 0.0
Zn102 Zn 0.55483 0.86987 0.13171 0.0
C103 C 0.58193 0.8232 1.02043 0.0
N104 N 0.58128 0.80521 0.06506 0.0
C105 C 0.57828 0.82193 0.10902 0.0
N106 N 0.57641 0.84872 0.09139 0.0
N107 N 0.57881 0.84952 1.03727 0.0
C108 C 0.53311 0.8419 0.92513 0.0
O109 O 0.52296 0.83034 0.97426 0.0
O110 O 0.57883 0.89585 0.20031 0.0
Zn111 Zn 0.58213 0.88615 0.99271 0.0
N112 N 0.51157 0.83272 0.13905 0.0
C113 C 0.46421 0.7975 0.08628 0.0
C114 C 0.49324 0.82723 0.09318 0.0
C115 C 0.50187 0.80986 0.17912 0.0
N116 N 0.45418 0.77476 0.12637 0.0
C117 C 0.47188 0.77986 0.17313 0.0
O118 O 0.55838 0.91233 1.01138 0.0
C119 C 0.54611 0.91848 1.05294 0.0
O120 O 0.54476 0.90434 0.09773 0.0
H121 H 0.5019 0.84538 0.06113 0.0
H122 H 0.51752 0.81541 0.21448 0.0
C123 C 0.6366 0.95115 0.99518 0.0
C124 C 0.66855 0.97566 1.01069 0.0
C125 C 0.68309 0.93406 1.02278 0.0
C126 C 0.65111 0.90989 1.00928 0.0
N127 N 0.62854 0.91891 0.99521 0.0
N128 N 0.69101 0.96623 1.0234 0.0
H129 H 0.61792 0.95723 0.98411 0.0
C130 C 0.60197 0.92455 0.18715 0.0
O131 O 0.61002 0.93039 0.13542 0.0
O132 O 0.56112 0.86778 0.91971 0.0
H133 H 0.64416 0.88416 1.01201 0.0
H134 H 0.44965 0.79255 1.04954 0.0
H135 H 0.70131 0.92727 1.03394 0.0
Zn136 Zn 0.68721 0.53981 0.95918 0.0
C137 C 0.75432 0.55753 0.08213 0.0
N138 N 0.77494 0.56261 1.03882 0.0
C139 C 0.75555 0.55718 0.99359 0.0
N140 N 0.72467 0.54983 1.0091 0.0
N141 N 0.72381 0.55001 0.06329 0.0
C142 C 0.68208 0.57642 0.16581 0.0
O143 O 0.68737 0.58788 0.1158 0.0
O144 O 0.66436 0.49228 0.92975 0.0
Zn145 Zn 0.68153 0.52694 0.10153 0.0
N146 N 0.70785 0.57022 0.90054 0.0
C147 C 0.75119 0.62331 0.87581 0.0
C148 C 0.73155 0.6011 0.91548 0.0
C149 C 0.70186 0.56094 0.84729 0.0
N150 N 0.74543 0.61412 0.82269 0.0
C151 C 0.72111 0.58359 0.80689 0.0
O152 O 0.64073 0.52702 0.06928 0.0
C153 C 0.63059 0.53599 1.02807 0.0
O154 O 0.64809 0.54566 0.98498 0.0
H155 H 0.73596 0.6079 0.95813 0.0
H156 H 0.68285 0.53612 0.83693 0.0
C157 C 0.6652 0.46169 0.14541 0.0
C158 C 0.66548 0.43173 0.14175 0.0
C159 C 0.6816 0.44238 1.04969 0.0
C160 C 0.68316 0.47281 1.05426 0.0
N161 N 0.67404 0.4817 0.10131 0.0
N162 N 0.67295 0.42251 0.09368 0.0
H163 H 0.65925 0.46956 0.18324 0.0
C164 C 0.6393 0.47019 0.95497 0.0
O165 O 0.63019 0.47802 1.00041 0.0
O166 O 0.68195 0.54938 0.17458 0.0
H167 H 0.69189 0.48926 1.0202 0.0
H168 H 0.7707 0.64773 0.88701 0.0
H169 H 0.68809 0.43501 1.01191 0.0
Zn170 Zn 0.16021 0.68292 0.13401 0.0
C171 C 0.21127 0.75418 1.02525 0.0
N172 N 0.23044 0.77075 0.06953 0.0
C173 C 0.2126 0.75244 0.11343 0.0
N174 N 0.18428 0.72544 0.09604 0.0
N175 N 0.18324 0.72694 1.0421 0.0
C176 C 0.17506 0.67451 0.93771 0.0
O177 O 0.18209 0.67244 0.98881 0.0
O178 O 0.1467 0.68638 0.21035 0.0
Zn179 Zn 0.14404 0.69947 0.99756 0.0
N180 N 0.18906 0.6648 0.12779 0.0
C181 C 0.2025 0.62875 0.07988 0.0
C182 C 0.17996 0.63878 0.09333 0.0
C183 C 0.21968 0.68096 0.1501 0.0
N184 N 0.23293 0.64456 0.10267 0.0
C185 C 0.24248 0.67043 0.13794 0.0
O186 O 0.1068 0.65247 1.02065 0.0
C187 C 0.09824 0.63499 0.06368 0.0
O188 O 0.11609 0.64564 0.10611 0.0
H189 H 0.15587 0.62672 0.07457 0.0
H190 H 0.22557 0.70151 0.17685 0.0
C191 C 0.10822 0.7277 0.94622 0.0
C192 C 0.09351 0.74761 0.9458 0.0
C193 C 0.11089 0.76398 1.03687 0.0
C194 C 0.12527 0.74408 1.03731 0.0
N195 N 0.12358 0.72628 0.9921 0.0
N196 N 0.095 0.76503 0.99136 0.0
H197 H 0.10676 0.71279 0.91126 0.0
C198 C 0.12463 0.69476 0.20965 0.0
O199 O 0.11906 0.70577 0.16398 0.0
O200 O 0.15929 0.68954 0.92694 0.0
H201 H 0.13761 0.74277 0.07359 0.0
H202 H 0.19584 0.6084 1.0519 0.0
H203 H 0.11193 0.77814 0.07262 0.0
Zn204 Zn 0.86391 0.5381 0.46235 0.0
C205 C 0.81121 0.55253 0.58152 0.0
N206 N 0.79253 0.55183 0.5378 0.0
C207 C 0.80984 0.55102 0.4932 0.0
N208 N 0.83727 0.55026 0.50942 0.0
N209 N 0.83839 0.55167 0.56351 0.0
C210 C 0.8425 0.51135 0.67882 0.0
O211 O 0.82527 0.49864 0.63407 0.0
O212 O 0.89296 0.57279 0.40821 0.0
Zn213 Zn 0.87831 0.5624 0.60439 0.0
N214 N 0.83124 0.49913 0.42644 0.0
C215 C 0.793 0.47067 0.35523 0.0
C216 C 0.82005 0.49926 0.37544 0.0
C217 C 0.81727 0.47156 0.45763 0.0
N218 N 0.77938 0.44288 0.38601 0.0
C219 C 0.79097 0.44232 0.43678 0.0
O220 O 0.91006 0.54598 0.57843 0.0
C221 C 0.91478 0.53179 0.53769 0.0
O222 O 0.89741 0.52603 0.49473 0.0
H223 H 0.83152 0.52149 0.35135 0.0
H224 H 0.82679 0.47265 0.49826 0.0
C225 C 0.92179 0.62811 0.647 0.0
C226 C 0.93822 0.66274 0.6446 0.0
C227 C 0.91437 0.65981 0.55832 0.0
C228 C 0.89771 0.62551 0.5611 0.0
N229 N 0.90216 0.61024 0.60485 0.0
N230 N 0.93439 0.67769 0.59999 0.0
H231 H 0.92477 0.61546 0.68154 0.0
C232 C 0.91974 0.59589 0.42799 0.0
O233 O 0.92402 0.59782 0.48099 0.0
O234 O 0.86604 0.54112 0.67849 0.0
H235 H 0.88167 0.61129 0.52802 0.0
H236 H 0.78326 0.47036 0.3151 0.0
H237 H 0.91141 0.67213 0.52332 0.0
Zn238 Zn 0.34408 0.85016 0.50826 0.0
C239 C 0.26843 0.81074 0.6136 0.0
N240 N 0.24944 0.79624 0.56817 0.0
C241 C 0.27077 0.81046 0.52528 0.0
N242 N 0.30132 0.83289 0.54452 0.0
N243 N 0.29956 0.83332 0.59851 0.0
C244 C 0.37905 0.83846 0.66828 0.0
O245 O 0.39042 0.85338 0.62168 0.0
O246 O 0.34357 0.87065 0.4347 0.0
Zn247 Zn 0.33476 0.86266 0.64923 0.0
N248 N 0.35132 0.81211 0.51235 0.0
C249 C 0.34464 0.76851 0.57128 0.0
C250 C 0.34145 0.79601 0.56087 0.0
C251 C 0.36274 0.80023 0.47227 0.0
N252 N 0.35651 0.75702 0.53186 0.0
C253 C 0.36516 0.77177 0.48239 0.0
O254 O 0.37586 0.90552 0.62199 0.0
C255 C 0.39452 0.91179 0.58053 0.0
O256 O 0.38516 0.8916 0.5404 0.0
H257 H 0.33145 0.80455 0.59212 0.0
H258 H 0.36973 0.81262 0.43331 0.0
C259 C 0.31171 0.87187 0.75365 0.0
C260 C 0.29034 0.87774 0.78608 0.0
C261 C 0.26946 0.88973 0.70626 0.0
C262 C 0.29122 0.88474 0.67458 0.0
N263 N 0.31152 0.87553 0.69875 0.0
N264 N 0.26968 0.88631 0.76104 0.0
H265 H 0.32784 0.86399 0.77131 0.0
C266 C 0.34096 0.89615 0.44475 0.0
O267 O 0.33409 0.90071 0.49489 0.0
O268 O 0.3541 0.83828 0.68929 0.0
H269 H 0.29114 0.88694 0.63071 0.0
H270 H 0.3375 0.75625 0.61029 0.0
H271 H 0.25267 0.89645 0.68763 0.0
Zn272 Zn 0.44047 0.31322 0.63958 0.0
C273 C 0.44606 0.25378 0.52181 0.0
N274 N 0.44354 0.23446 0.56568 0.0
C275 C 0.4435 0.25209 0.6104 0.0
N276 N 0.44599 0.28118 0.59407 0.0
N277 N 0.44771 0.28249 0.53982 0.0
C278 C 0.41661 0.3306 0.44361 0.0
O279 O 0.40694 0.32771 0.49456 0.0
O280 O 0.45338 0.30972 0.71669 0.0
Zn281 Zn 0.46553 0.32579 0.50218 0.0
N282 N 0.39496 0.30105 0.62798 0.0
C283 C 0.34226 0.26373 0.59061 0.0
C284 C 0.37275 0.27007 0.61075 0.0
C285 C 0.38804 0.326 0.62518 0.0
N286 N 0.33563 0.28886 0.58681 0.0
C287 C 0.35793 0.32016 0.60274 0.0
O288 O 0.47 0.36747 0.5383 0.0
C289 C 0.47257 0.38136 0.58404 0.0
O290 O 0.4666 0.36449 0.62747 0.0
H291 H 0.37908 0.25077 0.61026 0.0
H292 H 0.40628 0.35023 0.63936 0.0
C293 C 0.52801 0.33534 0.4572 0.0
C294 C 0.55954 0.33934 0.46628 0.0
C295 C 0.55617 0.35087 0.5595 0.0
C296 C 0.52498 0.34657 0.55032 0.0
N297 N 0.51129 0.3384 0.49976 0.0
N298 N 0.5727 0.34713 0.51736 0.0
H299 H 0.51692 0.33028 0.41719 0.0
C300 C 0.4823 0.31354 0.71614 0.0
O301 O 0.49665 0.31644 0.66898 0.0
O302 O 0.44134 0.32699 0.43269 0.0
H303 H 0.51125 0.3489 0.58357 0.0
H304 H 0.32433 0.23922 0.57672 0.0
H305 H 0.56712 0.357 0.59975 0.0
Zn306 Zn 0.17103 0.49722 0.47347 0.0
C307 C 0.21128 0.46445 0.5841 0.0
N308 N 0.22969 0.46426 0.5407 0.0
C309 C 0.21494 0.46903 0.49597 0.0
N310 N 0.189 0.4727 0.51219 0.0
N311 N 0.18594 0.46851 0.56581 0.0
C312 C 0.1641 0.5113 0.6633 0.0
O313 O 0.16462 0.51868 0.61176 0.0
O314 O 0.14941 0.47337 0.40227 0.0
Zn315 Zn 0.14434 0.45617 0.6035 0.0
N316 N 0.20939 0.54203 0.4741 0.0
C317 C 0.25269 0.58035 0.53227 0.0
C318 C 0.22335 0.55089 0.52454 0.0
C319 C 0.22453 0.56154 0.43037 0.0
N320 N 0.26811 0.59942 0.48867 0.0
C321 C 0.25526 0.59061 0.43763 0.0
O322 O 0.10916 0.46689 0.57261 0.0
C323 C 0.10781 0.48612 0.53724 0.0
O324 O 0.1311 0.50063 0.50292 0.0
H325 H 0.21256 0.53455 0.55843 0.0
H326 H 0.21332 0.55395 0.39045 0.0
C327 C 0.09528 0.39093 0.63771 0.0
C328 C 0.07977 0.3563 0.63804 0.0
C329 C 0.11938 0.35824 0.57606 0.0
C330 C 0.13443 0.39253 0.57514 0.0
N331 N 0.12252 0.40832 0.60678 0.0
N332 N 0.09249 0.34088 0.60771 0.0
H333 H 0.08615 0.40403 0.66217 0.0
C334 C 0.12578 0.44462 0.41363 0.0
O335 O 0.12277 0.43445 0.46426 0.0
O336 O 0.15568 0.48162 0.67546 0.0
H337 H 0.15539 0.40622 0.54903 0.0
H338 H 0.2637 0.58748 0.57239 0.0
H339 H 0.12889 0.34551 0.55163 0.0
Zn340 Zn 0.68974 0.1566 0.64914 0.0
C341 C 0.75487 0.20883 0.52695 0.0
N342 N 0.7755 0.22409 0.57055 0.0
C343 C 0.75632 0.20947 0.61541 0.0
N344 N 0.72565 0.1858 0.59939 0.0
N345 N 0.72452 0.18544 0.54524 0.0
C346 C 0.68487 0.11873 0.44495 0.0
O347 O 0.69134 0.11424 0.49532 0.0
O348 O 0.66812 0.18019 0.6856 0.0
Zn349 Zn 0.68195 0.16629 0.50732 0.0
N350 N 0.71257 0.14574 0.70271 0.0
C351 C 0.75686 0.13568 0.71908 0.0
C352 C 0.73583 0.13909 0.68306 0.0
C353 C 0.70862 0.14807 0.75711 0.0
N354 N 0.75289 0.13778 0.77338 0.0
C355 C 0.72914 0.1436 0.79379 0.0
O356 O 0.64105 0.12529 0.53942 0.0
C357 C 0.63145 0.10559 0.57982 0.0
O358 O 0.64973 0.11255 0.62205 0.0
H359 H 0.73874 0.13768 0.63957 0.0
H360 H 0.69003 0.15367 0.77123 0.0
C361 C 0.66454 0.21567 0.4662 0.0
C362 C 0.66297 0.24486 0.47337 0.0
C363 C 0.68003 0.2485 0.56489 0.0
C364 C 0.68243 0.22027 0.55737 0.0
N365 N 0.67406 0.20381 0.50876 0.0
N366 N 0.67032 0.26018 0.52274 0.0
H367 H 0.65862 0.20278 0.42743 0.0
C368 C 0.64254 0.17852 0.66414 0.0
O369 O 0.63167 0.16308 0.6175 0.0
O370 O 0.68277 0.14444 0.43467 0.0
H371 H 0.69105 0.21169 0.59056 0.0
H372 H 0.77598 0.13109 0.70415 0.0
H373 H 0.68618 0.26124 0.60377 0.0
Zn374 Zn 0.5508 0.68359 0.50143 0.0
C375 C 0.58147 0.76067 0.60836 0.0
N376 N 0.58222 0.77827 0.56319 0.0
C377 C 0.57658 0.75731 0.51977 0.0
N378 N 0.57228 0.72773 0.5384 0.0
N379 N 0.57551 0.73003 0.59251 0.0
C380 C 0.5351 0.69878 0.71433 0.0
O381 O 0.52425 0.70439 0.6686 0.0
O382 O 0.57149 0.68172 0.42835 0.0
Zn383 Zn 0.57884 0.69685 0.63804 0.0
N384 N 0.50512 0.6718 0.5074 0.0
C385 C 0.46549 0.66077 0.57695 0.0
C386 C 0.49606 0.66586 0.56059 0.0
C387 C 0.48427 0.672 0.46914 0.0
N388 N 0.44472 0.66126 0.53911 0.0
C389 C 0.45306 0.66674 0.4855 0.0
O390 O 0.55408 0.64625 0.6228 0.0
C391 C 0.54653 0.62846 0.58003 0.0
O392 O 0.54757 0.64137 0.5341 0.0
H393 H 0.51295 0.66573 0.59029 0.0
H394 H 0.49177 0.67558 0.42694 0.0
C395 C 0.63161 0.68408 0.62629 0.0
C396 C 0.66182 0.68999 0.60414 0.0
C397 C 0.67807 0.74674 0.59571 0.0
C398 C 0.64752 0.74035 0.61525 0.0
N399 N 0.62488 0.70916 0.63052 0.0
N400 N 0.6844 0.72149 0.59022 0.0
H401 H 0.61306 0.65974 0.63881 0.0
C402 C 0.59713 0.67928 0.43727 0.0
O403 O 0.60877 0.68407 0.48729 0.0
O404 O 0.56114 0.69648 0.71355 0.0
H405 H 0.64155 0.7599 0.61568 0.0
H406 H 0.45825 0.65636 0.61933 0.0
H407 H 0.69628 0.7714 0.5834 0.0
H408 H 0.42722 0.09046 0.29975 0.0
H409 H 0.34775 0.89501 0.33257 0.0
H410 H 0.38058 0.02263 0.16566 0.0
H411 H 0.35647 0.95945 0.46612 0.0
H412 H 0.36576 0.94201 0.2699 0.0
H413 H 0.40739 0.04305 0.36158 0.0
C414 C 0.41271 0.06569 0.28339 0.0
C415 C 0.4054 0.0606 0.22752 0.0
C416 C 0.36354 0.94567 0.31298 0.0
C417 C 0.38327 1.00629 0.29764 0.0
C418 C 0.35331 0.91889 0.34866 0.0
C419 C 0.35037 0.92316 0.40464 0.0
C420 C 0.37152 0.977 0.33366 0.0
C421 C 0.35805 0.95479 0.42327 0.0
C422 C 0.40141 0.03865 0.3186 0.0
C423 C 0.3866 0.02785 0.20851 0.0
N424 N 0.36847 0.98042 0.38807 0.0
N425 N 0.37644 1.00201 0.24332 0.0
H426 H 0.35709 0.38963 0.14883 0.0
H427 H 0.37477 0.35465 0.46175 0.0
H428 H 0.33693 0.4389 0.28005 0.0
H429 H 0.42531 0.33541 0.33189 0.0
H430 H 0.35378 0.37875 0.39571 0.0
H431 H 0.37487 0.363 0.21519 0.0
C432 C 0.3561 0.3947 0.19171 0.0
C433 C 0.34543 0.41667 0.20874 0.0
C434 C 0.36935 0.36916 0.38162 0.0
C435 C 0.36594 0.3859 0.28534 0.0
C436 C 0.38124 0.35515 0.41923 0.0
C437 C 0.4019 0.34286 0.40242 0.0
C438 C 0.3777 0.37057 0.32642 0.0
C439 C 0.4095 0.34452 0.34676 0.0
C440 C 0.36649 0.37954 0.22958 0.0
C441 C 0.34498 0.42224 0.26498 0.0
N442 N 0.39733 0.35802 0.31079 0.0
N443 N 0.35501 0.40688 0.30129 0.0
H444 H 0.06868 0.38731 0.43318 0.0
H445 H 0.99112 0.37479 0.13808 0.0
H446 H 0.12072 0.45714 0.30505 0.0
H447 H 0.93225 0.33079 0.28156 0.0
H448 H 0.04087 0.39678 0.19393 0.0
H449 H 0.02117 0.35845 0.37296 0.0
C450 C 0.07035 0.39642 0.3921 0.0
C451 C 0.0988 0.42496 0.37433 0.0
C452 C 0.01709 0.38209 0.21309 0.0
C453 C 0.04413 0.39171 0.30504 0.0
C454 C 0.98859 0.36932 0.18125 0.0
C455 C 0.9573 0.35101 0.2052 0.0
C456 C 0.01448 0.37626 0.26934 0.0
C457 C 0.95577 0.34484 0.26136 0.0
C458 C 0.04305 0.37992 0.35786 0.0
C459 C 0.09933 0.43538 0.32057 0.0
N460 N 0.98396 0.35752 0.29156 0.0
N461 N 0.07234 0.4188 0.28785 0.0
H462 H 0.59791 0.9233 0.29967 0.0
H463 H 0.67616 0.11894 0.33314 0.0
H464 H 0.63819 0.99024 0.16404 0.0
H465 H 0.67081 0.05576 0.46533 0.0
H466 H 0.65723 0.07158 0.27028 0.0
H467 H 0.61946 0.97115 0.36171 0.0
C468 C 0.6114 0.94796 0.28297 0.0
C469 C 0.61633 0.95264 0.22657 0.0
C470 C 0.66041 0.06825 0.31307 0.0
C471 C 0.64051 1.00751 0.29709 0.0
C472 C 0.6712 0.09527 0.3489 0.0
C473 C 0.67528 0.09148 0.4046 0.0
C474 C 0.65306 0.03712 0.33329 0.0
C475 C 0.6683 0.06007 0.42273 0.0
C476 C 0.62369 0.97527 0.31833 0.0
C477 C 0.63392 0.9853 0.20723 0.0
N478 N 0.65733 0.03417 0.38741 0.0
N479 N 0.64509 0.01138 0.24226 0.0
H480 H 0.67772 0.56808 0.27793 0.0
H481 H 0.58675 0.67314 0.32567 0.0
H482 H 0.66146 0.62091 0.14883 0.0
H483 H 0.63841 0.65462 0.45425 0.0
H484 H 0.60828 0.64853 0.26005 0.0
H485 H 0.65771 0.59404 0.34389 0.0
C486 C 0.6701 0.58516 0.26347 0.0
C487 C 0.67154 0.59244 0.20775 0.0
C488 C 0.61497 0.65004 0.30266 0.0
C489 C 0.64803 0.62169 0.28266 0.0
C490 C 0.60268 0.66408 0.34006 0.0
C491 C 0.61089 0.66621 0.39553 0.0
C492 C 0.63507 0.63742 0.32099 0.0
C493 C 0.63157 0.65383 0.41186 0.0
C494 C 0.6587 0.59998 0.30107 0.0
C495 C 0.66114 0.61471 0.19137 0.0
N496 N 0.64268 0.6398 0.37498 0.0
N497 N 0.64965 0.62828 0.22843 0.0
H498 H 0.96876 0.65976 0.4402 0.0
H499 H 0.09573 0.63635 0.26342 0.0
H500 H 0.93766 0.57315 0.33969 0.0
H501 H 0.09529 0.72821 0.24995 0.0
H502 H 0.04479 0.6137 0.31699 0.0
H503 H 0.02181 0.68679 0.39157 0.0
C504 C 0.97294 0.64674 0.40725 0.0
C505 C 0.94878 0.61446 0.39316 0.0
C506 C 0.05631 0.63902 0.30312 0.0
C507 C 1.00944 0.64429 0.34013 0.0
C508 C 0.08554 0.65209 0.27343 0.0
C509 C 0.09971 0.68423 0.25285 0.0
C510 C 0.04177 0.65854 0.31324 0.0
C511 C 0.08508 0.70337 0.26558 0.0
C512 C 1.00312 0.66202 0.37999 0.0
C513 C 0.95545 0.5983 0.35098 0.0
N514 N 0.05682 0.69026 0.29521 0.0
N515 N 0.98544 0.61319 0.32649 0.0
H516 H 0.77375 0.15768 0.87562 0.0
H517 H 0.63008 1.00585 1.01947 0.0
H518 H 0.66995 0.12001 0.8476 0.0
H519 H 0.73112 0.02791 1.00488 0.0
H520 H 0.64739 0.06275 0.99558 0.0
H521 H 0.76052 0.12839 0.96223 0.0
C522 C 0.74826 0.14429 0.88858 0.0
C523 C 0.72283 0.13985 0.85307 0.0
C524 C 0.66581 0.05522 0.99887 0.0
C525 C 0.70761 0.10608 0.95125 0.0
C526 C 0.6559 0.02249 1.01143 0.0
C527 C 0.67886 0.01132 1.01022 0.0
C528 C 0.69882 0.07687 0.98531 0.0
C529 C 0.71227 0.03493 1.00394 0.0
C530 C 0.74074 0.12758 0.93804 0.0
C531 C 0.69039 0.12332 0.87273 0.0
N532 N 0.72114 0.06638 0.99032 0.0
N533 N 0.68358 0.10604 0.91983 0.0
H534 H 0.66035 0.54516 0.75835 0.0
H535 H 0.72302 0.69696 0.59198 0.0
H536 H 0.76311 0.60883 0.72066 0.0
H537 H 0.62034 0.62159 0.59858 0.0
H538 H 0.73817 0.65485 0.60614 0.0
H539 H 0.64566 0.5581 0.67093 0.0
C540 C 0.68002 0.56079 0.73087 0.0
C541 C 0.71301 0.57762 0.74821 0.0
C542 C 0.71225 0.64733 0.60368 0.0
C543 C 0.69616 0.59376 0.64915 0.0
C544 C 0.70353 0.67154 0.59586 0.0
C545 C 0.67036 0.6634 0.59866 0.0
C546 C 0.68766 0.61493 0.61591 0.0
C547 C 0.64635 0.62973 0.60099 0.0
C548 C 0.67154 0.56844 0.68069 0.0
C549 C 0.73722 0.59683 0.70995 0.0
N550 N 0.65548 0.60687 0.61146 0.0
N551 N 0.72832 0.60549 0.66292 0.0
H552 H 0.10854 0.7511 0.83746 0.0
H553 H 0.92595 0.65651 0.7536 0.0
H554 H 0.0333 0.74234 0.94894 0.0
H555 H 0.99985 0.71506 0.63476 0.0
H556 H 0.96502 0.68783 0.82646 0.0
H557 H 0.07019 0.73927 0.76149 0.0
C558 C 0.08409 0.74718 0.84567 0.0
C559 C 0.07359 0.74692 0.89922 0.0
C560 C 0.97248 0.69418 0.78442 0.0
C561 C 0.02995 0.73319 0.81348 0.0
C562 C 0.9504 0.67612 0.74308 0.0
C563 C 0.96018 0.683 0.68859 0.0
C564 C 1.00462 0.71858 0.77087 0.0
C565 C 0.99173 0.709 0.67657 0.0
C566 C 0.06238 0.74071 0.80249 0.0
C567 C 0.04204 0.7424 0.90805 0.0
N568 N 0.01325 0.7255 0.71757 0.0
N569 N 0.02091 0.73485 0.86558 0.0
H570 H 0.28168 0.99212 1.0031 0.0
H571 H 0.34426 0.89383 0.852 0.0
H572 H 0.37923 1.00565 1.02585 0.0
H573 H 0.24156 0.86653 0.85825 0.0
H574 H 0.35244 0.91955 0.9409 0.0
H575 H 0.26189 0.93481 0.97848 0.0
C576 C 0.29893 0.98301 1.00372 0.0
C577 C 0.33267 1.00448 1.0127 0.0
C578 C 0.3278 0.90702 0.92382 0.0
C579 C 0.31022 0.93884 0.98364 0.0
C580 C 0.32301 0.89199 0.87281 0.0
C581 C 0.29249 0.87956 0.84627 0.0
C582 C 0.30218 0.91037 0.94723 0.0
C583 C 0.26594 0.87742 0.87618 0.0
C584 C 0.28755 0.9501 0.98977 0.0
C585 C 0.35348 0.99078 1.01506 0.0
N586 N 0.27161 0.89383 0.92429 0.0
N587 N 0.34214 0.95909 0.99885 0.0
H588 H 0.39941 0.38802 0.59388 0.0
H589 H 0.25671 0.40304 0.7264 0.0
H590 H 0.29652 0.31332 0.60014 0.0
H591 H 0.36014 0.46293 0.7646 0.0
H592 H 0.2713 0.38866 0.63905 0.0
H593 H 0.38435 0.42992 0.61468 0.0
C594 C 0.37362 0.38032 0.59928 0.0
C595 C 0.34932 0.34671 0.59949 0.0
C596 C 0.29081 0.406 0.66565 0.0
C597 C 0.33204 0.39482 0.6209 0.0
C598 C 0.28251 0.41421 0.71555 0.0
C599 C 0.30722 0.43271 0.75398 0.0
C600 C 0.32393 0.41594 0.65504 0.0
C601 C 0.34018 0.44761 0.73707 0.0
C602 C 0.36505 0.40444 0.61006 0.0
C603 C 0.31623 0.33874 0.60215 0.0
N604 N 0.34763 0.43795 0.68946 0.0
N605 N 0.30859 0.36253 0.61428 0.0
H606 H 0.02559 0.36324 0.65015 0.0
H607 H 0.97969 0.27336 0.92723 0.0
H608 H 0.06836 0.30459 0.70235 0.0
H609 H 0.91158 0.29325 0.83871 0.0
H610 H 1.00979 0.27984 0.84285 0.0
H611 H 0.98119 0.33465 0.71585 0.0
C612 C 0.02539 0.34412 0.6753 0.0
C613 C 0.05087 0.33667 0.67218 0.0
C614 C 0.98796 0.28229 0.84183 0.0
C615 C 1.00054 0.30407 0.74706 0.0
C616 C 0.97081 0.2787 0.89 0.0
C617 C 0.94408 0.28442 0.89059 0.0
C618 C 0.9784 0.29198 0.79431 0.0
C619 C 0.93322 0.29054 0.84091 0.0
C620 C 0.99994 0.32758 0.71231 0.0
C621 C 0.04923 0.31119 0.70435 0.0
N622 N 0.9509 0.29492 0.79491 0.0
N623 N 0.0248 0.29622 0.74154 0.0
H624 H 0.54003 0.9509 0.96252 0.0
H625 H 0.48006 0.05906 0.13479 0.0
H626 H 0.52404 0.9427 0.13616 0.0
H627 H 0.47958 0.05755 0.95906 0.0
H628 H 0.4982 0.01822 0.13489 0.0
H629 H 0.52042 0.99102 0.9594 0.0
C630 C 0.53239 0.95738 1.00006 0.0
C631 C 0.53376 0.94294 1.04972 0.0
C632 C 0.49415 0.02668 0.09616 0.0
C633 C 0.51126 0.9896 1.04635 0.0
C634 C 0.48377 0.05024 0.09598 0.0
C635 C 0.47819 0.06224 1.04678 0.0
C636 C 0.49951 0.01467 1.04675 0.0
C637 C 0.48342 0.04926 0.9981 0.0
C638 C 0.52111 0.98039 0.99817 0.0
C639 C 0.52345 0.95277 0.09678 0.0
N640 N 0.49388 0.02647 0.99933 0.0
N641 N 0.51288 0.97531 0.0939 0.0
H642 H 0.43325 0.49681 0.12248 0.0
H643 H 0.59169 0.53378 0.94099 0.0
H644 H 0.42858 0.48315 0.94811 0.0
H645 H 0.58965 0.52524 0.11603 0.0
H646 H 0.53371 0.52017 0.94256 0.0
H647 H 0.49134 0.51115 0.12072 0.0
C648 C 0.44429 0.49666 0.08375 0.0
C649 C 0.4255 0.48848 1.03541 0.0
C650 C 0.54597 0.52141 0.98068 0.0
C651 C 0.49296 0.50561 1.03302 0.0
C652 C 0.5793 0.52947 0.97987 0.0
C653 C 0.59603 0.53084 1.02846 0.0
C654 C 0.52891 0.51491 1.03051 0.0
C655 C 0.57809 0.52453 0.07741 0.0
C656 C 0.47764 0.50492 0.0828 0.0
C657 C 0.44167 0.48894 0.98659 0.0
N658 N 0.54582 0.51698 0.07715 0.0
N659 N 0.47425 0.49748 0.98665 0.0
H660 H 0.06675 0.596 0.15251 0.0
H661 H 0.94317 0.43253 0.98203 0.0
H662 H 0.06114 0.59465 0.97704 0.0
H663 H 0.93648 0.44144 0.15591 0.0
H664 H 0.98694 0.49065 0.97902 0.0
H665 H 0.02046 0.5393 0.15413 0.0
C666 C 0.05578 0.58394 0.11414 0.0
C667 C 0.06825 0.60068 0.0645 0.0
C668 C 0.97583 0.48 1.01784 0.0
C669 C 0.01462 0.53453 0.06619 0.0
C670 C 0.95069 0.44662 1.01967 0.0
C671 C 0.93565 0.43156 0.06935 0.0
C672 C 0.98672 0.49892 0.06612 0.0
C673 C 0.94691 0.45161 0.11652 0.0
C674 C 0.02915 0.55134 0.11518 0.0
C675 C 0.05255 0.58319 1.0164 0.0
N676 N 0.97167 0.48386 0.11375 0.0
N677 N 0.02692 0.55125 1.01845 0.0
H678 H 0.94716 0.52437 0.6268 0.0
H679 H 0.08586 0.51016 0.45376 0.0
H680 H 0.94633 0.521 0.4512 0.0
H681 H 0.0633 0.47648 0.61969 0.0
H682 H 0.03893 0.52013 0.45387 0.0
H683 H 0.99302 0.51263 0.62701 0.0
C684 C 0.95649 0.52114 0.58822 0.0
C685 C 0.94236 0.52358 0.5389 0.0
C686 C 0.04419 0.51053 0.4903 0.0
C687 C 0.99588 0.51064 0.53889 0.0
C688 C 0.07118 0.5049 0.49036 0.0
C689 C 0.07889 0.49231 0.53676 0.0
C690 C 0.02473 0.50427 0.53736 0.0
C691 C 0.0585 0.486 0.58277 0.0
C692 C 0.98276 0.51436 0.5884 0.0
C693 C 0.95594 0.51913 0.49035 0.0
N694 N 0.03276 0.49225 0.58202 0.0
N695 N 0.98187 0.51322 0.4916 0.0
H696 H 0.43105 0.9511 0.66763 0.0
H697 H 0.59037 0.0751 0.49164 0.0
H698 H 0.43766 0.94026 0.49426 0.0
H699 H 0.59311 0.06805 0.66647 0.0
H700 H 0.53342 0.02893 0.49157 0.0
H701 H 0.48828 0.99692 0.66777 0.0
C702 C 0.44431 0.95844 0.62942 0.0
C703 C 0.42901 0.94145 0.58081 0.0
C704 C 0.54646 0.03734 0.53 0.0
C705 C 0.49535 0.99457 0.58076 0.0
C706 C 0.57916 0.06384 0.53011 0.0
C707 C 0.5971 0.07576 0.57913 0.0
C708 C 0.53082 0.02257 0.57937 0.0
C709 C 0.58071 0.05981 0.62752 0.0
C710 C 0.47722 0.9846 0.62963 0.0
C711 C 0.44806 0.95232 0.53284 0.0
N712 N 0.5487 0.03443 0.62643 0.0
N713 N 0.47987 0.97803 0.53403 0.0
H714 H 0.53867 0.58974 0.67115 0.0
H715 H 0.48362 0.42271 0.4973 0.0
H716 H 0.5298 0.58316 0.49603 0.0
H717 H 0.48618 0.42423 0.67301 0.0
H718 H 0.50126 0.48147 0.49761 0.0
H719 H 0.52077 0.53039 0.67404 0.0
C720 C 0.53299 0.57598 0.63323 0.0
C721 C 0.5358 0.59201 0.58322 0.0
C722 C 0.49805 0.46915 0.53627 0.0
C723 C 0.51513 0.52328 0.58636 0.0
C724 C 0.48792 0.43529 0.53621 0.0
C725 C 0.48336 0.41789 0.58525 0.0
C726 C 0.50398 0.4866 0.58577 0.0
C727 C 0.48933 0.43622 0.63405 0.0
C728 C 0.5227 0.54192 0.63498 0.0
C729 C 0.52805 0.57236 0.53569 0.0
N730 N 0.49933 0.46934 0.63305 0.0
N731 N 0.5182 0.53944 0.5385 0.0
H732 H 0.61781 0.27751 0.15953 0.0
H733 H 0.62126 0.26928 0.47977 0.0
H734 H 0.53107 0.23579 0.2618 0.0
H735 H 0.68303 0.25329 0.36763 0.0
H736 H 0.59931 0.28608 0.40324 0.0
H737 H 0.65172 0.30102 0.24028 0.0
C738 C 0.6056 0.27372 0.19848 0.0
C739 C 0.57156 0.2518 0.20406 0.0
C740 C 0.61857 0.2801 0.39592 0.0
C741 C 0.6104 0.27925 0.29583 0.0
C742 C 0.63076 0.27016 0.43917 0.0
C743 C 0.65308 0.25897 0.42916 0.0
C744 C 0.62958 0.27961 0.34305 0.0
C745 C 0.66513 0.26094 0.3764 0.0
C746 C 0.62515 0.28732 0.24448 0.0
C747 C 0.55732 0.2499 0.25534 0.0
N748 N 0.65296 0.27077 0.33499 0.0
N749 N 0.577 0.26234 0.29978 0.0
H750 H 0.31701 0.54493 0.27358 0.0
H751 H 0.38635 0.63369 0.49893 0.0
H752 H 0.36456 0.63584 0.18248 0.0
H753 H 0.46162 0.6934 0.38213 0.0
H754 H 0.3451 0.61622 0.42674 0.0
H755 H 0.33518 0.57684 0.35792 0.0
C756 C 0.33085 0.57163 0.27146 0.0
C757 C 0.3406 0.58784 0.22129 0.0
C758 C 0.37066 0.63334 0.4173 0.0
C759 C 0.36054 0.62443 0.31704 0.0
C760 C 0.39427 0.6435 0.45837 0.0
C761 C 0.42786 0.66328 0.44575 0.0
C762 C 0.38098 0.6429 0.36362 0.0
C763 C 0.43638 0.67619 0.39304 0.0
C764 C 0.3407 0.5899 0.31959 0.0
C765 C 0.35726 0.62244 0.22053 0.0
N766 N 0.41311 0.66505 0.35346 0.0
N767 N 0.36766 0.63963 0.26784 0.0
H768 H 0.839 0.33516 0.35749 0.0
H769 H 0.72932 0.38773 0.43347 0.0
H770 H 0.73591 0.28628 0.31474 0.0
H771 H 0.82592 0.42265 0.50279 0.0
H772 H 0.71933 0.33148 0.43876 0.0
H773 H 0.82491 0.34122 0.45018 0.0
C774 C 0.81323 0.32476 0.36769 0.0
C775 C 0.78876 0.31282 0.32719 0.0
C776 C 0.74241 0.35127 0.4546 0.0
C777 C 0.77287 0.32182 0.43229 0.0
C778 C 0.74808 0.38352 0.45143 0.0
C779 C 0.77937 0.41011 0.46387 0.0
C780 C 0.7691 0.34624 0.46618 0.0
C781 C 0.80202 0.4031 0.48963 0.0
C782 C 0.80507 0.32821 0.42112 0.0
C783 C 0.75582 0.2982 0.34399 0.0
N784 N 0.79695 0.37185 0.48802 0.0
N785 N 0.74879 0.30412 0.395 0.0
H786 H 0.4131 0.75578 0.4939 0.0
H787 H 0.40896 0.72774 0.17739 0.0
H788 H 0.34242 0.75377 0.37878 0.0
H789 H 0.49834 0.77562 0.27386 0.0
H790 H 0.3775 0.70704 0.26041 0.0
H791 H 0.43601 0.73652 0.42185 0.0
C792 C 0.40215 0.75072 0.45356 0.0
C793 C 0.3769 0.7575 0.44105 0.0
C794 C 0.40409 0.72141 0.26308 0.0
C795 C 0.40158 0.73415 0.36024 0.0
C796 C 0.42229 0.73346 0.21566 0.0
C797 C 0.45621 0.75639 0.21875 0.0
C798 C 0.42001 0.73224 0.31342 0.0
C799 C 0.47194 0.76073 0.26944 0.0
C800 C 0.41489 0.73937 0.41294 0.0
C801 C 0.36281 0.74996 0.38904 0.0
N802 N 0.45351 0.74978 0.31532 0.0
N803 N 0.37562 0.73895 0.35019 0.0
H804 H 0.53976 0.30742 0.36633 0.0
H805 H 0.69141 0.45004 0.24346 0.0
H806 H 0.62645 0.36884 0.46342 0.0
H807 H 0.62539 0.36545 0.14617 0.0
H808 H 0.67364 0.41559 0.32463 0.0
H809 H 0.57405 0.32208 0.28585 0.0
C810 C 0.56602 0.32375 0.37099 0.0
C811 C 0.58 0.33894 0.42102 0.0
C812 C 0.66351 0.4043 0.28544 0.0
C813 C 0.61955 0.35406 0.32957 0.0
C814 C 0.67329 0.42406 0.23943 0.0
C815 C 0.65859 0.41059 0.1891 0.0
C816 C 0.63818 0.37131 0.28087 0.0
C817 C 0.6364 0.37671 0.18496 0.0
C818 C 0.58571 0.33156 0.32504 0.0
C819 C 0.61445 0.35767 0.42517 0.0
N820 N 0.62602 0.35827 0.23076 0.0
N821 N 0.63308 0.36545 0.37959 0.0
H822 H 0.26955 0.71659 0.22436 0.0
H823 H 0.2603 0.57121 0.33426 0.0
H824 H 0.28989 0.65277 0.12329 0.0
H825 H 0.29506 0.65752 0.43714 0.0
H826 H 0.28505 0.60677 0.25624 0.0
H827 H 0.29853 0.70854 0.29848 0.0
C828 C 0.28047 0.70132 0.21677 0.0
C829 C 0.27362 0.68194 0.16925 0.0
C830 C 0.28802 0.61811 0.296 0.0
C831 C 0.30682 0.67281 0.25451 0.0
C832 C 0.27319 0.59771 0.34039 0.0
C833 C 0.27406 0.61154 0.3915 0.0
C834 C 0.30338 0.65256 0.30259 0.0
C835 C 0.29289 0.64597 0.39782 0.0
C836 C 0.29759 0.69707 0.25952 0.0
C837 C 0.29178 0.66568 0.16107 0.0
N838 N 0.30601 0.66544 0.35346 0.0
N839 N 0.30629 0.66005 0.20431 0.0
H840 H 0.43373 0.83728 0.63355 0.0
H841 H 0.46897 0.793 0.92856 0.0
H842 H 0.36577 0.8086 0.76841 0.0
H843 H 0.54447 0.85846 0.81697 0.0
H844 H 0.4278 0.77895 0.85711 0.0
H845 H 0.46985 0.82514 0.68842 0.0
C846 C 0.4261 0.82789 0.67442 0.0
C847 C 0.39723 0.82494 0.69724 0.0
C848 C 0.45348 0.79584 0.84802 0.0
C849 C 0.43829 0.81076 0.75957 0.0
C850 C 0.47704 0.80392 0.88867 0.0
C851 C 0.51002 0.82783 0.87906 0.0
C852 C 0.46307 0.81161 0.79751 0.0
C853 C 0.51914 0.8406 0.8264 0.0
C854 C 0.44673 0.82092 0.70552 0.0
C855 C 0.3882 0.81194 0.74979 0.0
N856 N 0.49561 0.83274 0.78767 0.0
N857 N 0.40901 0.8058 0.77964 0.0
H858 H 0.54078 0.31492 0.726 0.0
H859 H 0.58245 0.4208 0.9975 0.0
H860 H 0.46923 0.3269 0.81955 0.0
H861 H 0.64934 0.44291 0.86243 0.0
H862 H 0.54329 0.36929 0.95266 0.0
H863 H 0.58134 0.343 0.79807 0.0
C864 C 0.53331 0.32269 0.7624 0.0
C865 C 0.50208 0.31994 0.766 0.0
C866 C 0.56685 0.38511 0.93355 0.0
C867 C 0.5482 0.35165 0.84824 0.0
C868 C 0.58923 0.41458 0.95885 0.0
C869 C 0.61882 0.43664 0.93273 0.0
C870 C 0.57427 0.37751 0.88214 0.0
C871 C 0.6265 0.42693 0.88333 0.0
C872 C 0.5565 0.33866 0.80339 0.0
C873 C 0.49336 0.32938 0.81466 0.0
N874 N 0.60407 0.39819 0.85914 0.0
N875 N 0.51666 0.34562 0.8536 0.0
H876 H 0.17662 0.57358 0.64388 0.0
H877 H 0.19483 0.62932 0.9546 0.0
H878 H 0.1667 0.50829 0.77583 0.0
H879 H 0.16587 0.67311 0.82682 0.0
H880 H 0.19581 0.59068 0.88835 0.0
H881 H 0.18383 0.6156 0.70969 0.0
C882 C 0.17611 0.56804 0.68682 0.0
C883 C 0.17068 0.5371 0.70439 0.0
C884 C 0.18946 0.60889 0.87483 0.0
C885 C 0.17915 0.58561 0.78007 0.0
C886 C 0.18907 0.63113 0.91246 0.0
C887 C 0.17996 0.65435 0.89625 0.0
C888 C 0.18115 0.61015 0.82043 0.0
C889 C 0.17282 0.65551 0.84111 0.0
C890 C 0.18017 0.59215 0.72433 0.0
C891 C 0.17057 0.53167 0.76057 0.0
N892 N 0.17351 0.63362 0.80513 0.0
N893 N 0.17468 0.55576 0.7966 0.0
H894 H 0.65654 0.21186 0.7616 0.0
H895 H 0.47016 0.14887 0.81234 0.0
H896 H 0.58362 0.17198 0.63313 0.0
H897 H 0.547 0.21179 0.92525 0.0
H898 H 0.51151 0.16582 0.74017 0.0
H899 H 0.6183 0.221 0.81661 0.0
C900 C 0.6327 0.20554 0.74465 0.0
C901 C 0.62284 0.19025 0.69351 0.0
C902 C 0.5192 0.17644 0.78052 0.0
C903 C 0.57885 0.20018 0.75621 0.0
C904 C 0.49558 0.16671 0.82164 0.0
C905 C 0.50545 0.17794 0.87509 0.0
C906 C 0.55271 0.19714 0.79352 0.0
C907 C 0.53854 0.20159 0.88486 0.0
C908 C 0.61087 0.21083 0.77594 0.0
C909 C 0.59193 0.18311 0.673 0.0
N910 N 0.56112 0.20984 0.84476 0.0
N911 N 0.5707 0.18743 0.70493 0.0
H912 H 0.47454 0.69328 0.72276 0.0
H913 H 0.43676 0.59454 1.00038 0.0
H914 H 0.54781 0.68437 0.81685 0.0
H915 H 0.36737 0.56865 0.86755 0.0
H916 H 0.47564 0.64404 0.95112 0.0
H917 H 0.43459 0.66528 0.79504 0.0
C918 C 0.48251 0.68615 0.75919 0.0
C919 C 0.51422 0.69007 0.76312 0.0
C920 C 0.45162 0.62784 0.93344 0.0
C921 C 0.4687 0.6584 0.84568 0.0
C922 C 0.42938 0.59959 0.96135 0.0
C923 C 0.39911 0.57705 0.93724 0.0
C924 C 0.4433 0.63373 0.88152 0.0
C925 C 0.39073 0.58507 0.88701 0.0
C926 C 0.45963 0.67018 0.80029 0.0
C927 C 0.52334 0.68101 0.81167 0.0
N928 N 0.41296 0.61265 0.86038 0.0
N929 N 0.50041 0.66498 0.85087 0.0
H930 H 0.88716 0.38391 0.86184 0.0
H931 H 0.78705 0.45592 0.71178 0.0
H932 H 0.78727 0.35347 0.90939 0.0
H933 H 0.8913 0.51473 0.74408 0.0
H934 H 0.7845 0.41319 0.77298 0.0
H935 H 0.88688 0.42598 0.80299 0.0
C936 C 0.86492 0.38558 0.85898 0.0
C937 C 0.83716 0.36521 0.8905 0.0
C938 C 0.80779 0.43566 0.76711 0.0
C939 C 0.83687 0.41336 0.82379 0.0
C940 C 0.80925 0.46004 0.73256 0.0
C941 C 0.83939 0.48888 0.72325 0.0
C942 C 0.83687 0.43985 0.79107 0.0
C943 C 0.86752 0.49301 0.75069 0.0
C944 C 0.86497 0.40987 0.82603 0.0
C945 C 0.80917 0.36877 0.88576 0.0
N946 N 0.86568 0.46848 0.78271 0.0
N947 N 0.80968 0.39241 0.8529 0.0
H948 H 0.41575 0.14962 0.19756 0.0
H949 H 0.43195 0.19268 0.47751 0.0
H950 H 0.4743 0.25314 0.16418 0.0
H951 H 0.46273 0.29109 0.42487 0.0
H952 H 0.43197 0.17643 0.38232 0.0
H953 H 0.41664 0.16212 0.29472 0.0
C954 C 0.42988 0.17505 0.21067 0.0
C955 C 0.4462 0.19989 0.17121 0.0
C956 C 0.43839 0.20168 0.39074 0.0
C957 C 0.44631 0.21548 0.2863 0.0
C958 C 0.43863 0.2112 0.4462 0.0
C959 C 0.44692 0.24377 0.46124 0.0
C960 C 0.44671 0.2247 0.34771 0.0
C961 C 0.45546 0.26587 0.41685 0.0
C962 C 0.43004 0.18243 0.26705 0.0
C963 C 0.46165 0.2327 0.19198 0.0
N964 N 0.45525 0.25621 0.36334 0.0
N965 N 0.46132 0.23935 0.24709 0.0
H966 H 0.24574 0.4366 0.44767 0.0
H967 H 0.24189 0.4952 0.13553 0.0
H968 H 0.20842 0.50061 0.40384 0.0
H969 H 0.27072 0.42338 0.17369 0.0
H970 H 0.23154 0.49891 0.23335 0.0
H971 H 0.25805 0.43351 0.35038 0.0
C972 C 0.24009 0.45025 0.41813 0.0
C973 C 0.22516 0.46867 0.43579 0.0
C974 C 0.24028 0.48236 0.22068 0.0
C975 C 0.23958 0.46521 0.32156 0.0
C976 C 0.2461 0.48011 0.16423 0.0
C977 C 0.25795 0.45933 0.14514 0.0
C978 C 0.24593 0.46352 0.25989 0.0
C979 C 0.26279 0.44063 0.1857 0.0
C980 C 0.24706 0.4483 0.36193 0.0
C981 C 0.21887 0.48551 0.39382 0.0
N982 N 0.25692 0.44317 0.2402 0.0
N983 N 0.22591 0.48344 0.33991 0.0
H984 H 0.81638 0.23705 0.47474 0.0
H985 H 0.74923 0.24117 0.16879 0.0
H986 H 0.71517 0.20493 0.43806 0.0
H987 H 0.85053 0.27121 0.20223 0.0
H988 H 0.73636 0.22713 0.26605 0.0
H989 H 0.82972 0.25033 0.37729 0.0
C990 C 0.79668 0.23247 0.44664 0.0
C991 C 0.76401 0.21857 0.4663 0.0
C992 C 0.76148 0.23674 0.25239 0.0
C993 C 0.77948 0.23412 0.3518 0.0
C994 C 0.76889 0.24476 0.19626 0.0
C995 C 0.80134 0.25824 0.17614 0.0
C996 C 0.78648 0.24168 0.29016 0.0
C997 C 0.82535 0.26185 0.21509 0.0
C998 C 0.80441 0.24002 0.39034 0.0
C999 C 0.74025 0.21403 0.42624 0.0
N1000 N 0.81758 0.25389 0.26928 0.0
N1001 N 0.74826 0.22152 0.37209 0.0
H1002 H 0.60617 0.86199 0.20054 0.0
H1003 H 0.54694 0.71661 0.42809 0.0
H1004 H 0.55015 0.75909 0.1589 0.0
H1005 H 0.60245 0.81945 0.46926 0.0
H1006 H 0.54716 0.73104 0.33178 0.0
H1007 H 0.60407 0.84722 0.29736 0.0
C1008 C 0.59258 0.83624 0.21153 0.0
C1009 C 0.57735 0.81216 0.16993 0.0
C1010 C 0.55953 0.75066 0.3615 0.0
C1011 C 0.57605 0.79426 0.28397 0.0
C1012 C 0.55967 0.74223 0.41734 0.0
C1013 C 0.57527 0.7663 0.45881 0.0
C1014 C 0.57518 0.78401 0.34481 0.0
C1015 C 0.59009 0.79945 0.44021 0.0
C1016 C 0.59188 0.82766 0.26746 0.0
C1017 C 0.56213 0.77898 0.18825 0.0
N1018 N 0.58978 0.80708 0.38573 0.0
N1019 N 0.5618 0.77123 0.24286 0.0
H1020 H 0.85054 0.59144 0.41131 0.0
H1021 H 0.71413 0.52158 0.16898 0.0
H1022 H 0.74967 0.51672 0.43591 0.0
H1023 H 0.81564 0.59066 0.13769 0.0
H1024 H 0.72655 0.52075 0.26505 0.0
H1025 H 0.8388 0.593 0.31364 0.0
C1026 C 0.82595 0.57493 0.39627 0.0
C1027 C 0.80149 0.55325 0.43299 0.0
C1028 C 0.74634 0.53635 0.23769 0.0
C1029 C 0.78721 0.55551 0.31868 0.0
C1030 C 0.73901 0.53702 0.18177 0.0
C1031 C 0.76315 0.55661 0.14309 0.0
C1032 C 0.77874 0.55563 0.2575 0.0
C1033 C 0.79558 0.57511 0.1646 0.0
C1034 C 0.81913 0.57609 0.34003 0.0
C1035 C 0.76967 0.53376 0.4102 0.0
N1036 N 0.80224 0.57431 0.2195 0.0
N1037 N 0.76366 0.53523 0.35536 0.0
H1038 H 0.17506 0.75702 0.19653 0.0
H1039 H 0.30987 0.80863 0.44025 0.0
H1040 H 0.27219 0.77189 0.17006 0.0
H1041 H 0.21108 0.78861 0.46853 0.0
H1042 H 0.29709 0.79609 0.34328 0.0
H1043 H 0.18756 0.76852 0.29433 0.0
C1044 C 0.1988 0.76183 0.2113 0.0
C1045 C 0.22179 0.76177 0.17401 0.0
C1046 C 0.27807 0.79452 0.37029 0.0
C1047 C 0.23751 0.77715 0.28848 0.0
C1048 C 0.28556 0.80209 0.42651 0.0
C1049 C 0.26214 0.80077 0.46437 0.0
C1050 C 0.2464 0.78512 0.34975 0.0
C1051 C 0.23045 0.79044 0.44215 0.0
C1052 C 0.20622 0.76904 0.2676 0.0
C1053 C 0.25317 0.77097 0.19631 0.0
N1054 N 0.22375 0.78336 0.38721 0.0
N1055 N 0.25988 0.77795 0.25127 0.0
H1056 H 0.61387 0.75104 0.69777 0.0
H1057 H 0.61293 0.86503 0.93095 0.0
H1058 H 0.55886 0.79982 0.66072 0.0
H1059 H 0.55936 0.76144 0.96748 0.0
H1060 H 0.61235 0.8517 0.83399 0.0
H1061 H 0.61345 0.76412 0.79469 0.0
C1062 C 0.60176 0.76466 0.70916 0.0
C1063 C 0.58545 0.77305 0.66883 0.0
C1064 C 0.60062 0.83175 0.86298 0.0
C1065 C 0.58618 0.78988 0.78361 0.0
C1066 C 0.60084 0.83936 0.91936 0.0
C1067 C 0.585 0.8147 0.9596 0.0
C1068 C 0.586 0.79877 0.84478 0.0
C1069 C 0.57141 0.78184 0.93942 0.0
C1070 C 0.60147 0.77209 0.76554 0.0
C1071 C 0.57137 0.79193 0.68885 0.0
N1072 N 0.57236 0.77501 0.88449 0.0
N1073 N 0.57217 0.79963 0.74377 0.0
H1074 H 0.85136 0.59478 0.66483 0.0
H1075 H 0.72262 0.50887 0.91453 0.0
H1076 H 0.75238 0.51556 0.63985 0.0
H1077 H 0.81195 0.60164 0.93368 0.0
H1078 H 0.73478 0.5086 0.81696 0.0
H1079 H 0.83951 0.5958 0.76231 0.0
C1080 C 0.82713 0.57735 0.67942 0.0
C1081 C 0.80326 0.55476 0.64237 0.0
C1082 C 0.75186 0.52916 0.8421 0.0
C1083 C 0.78895 0.55577 0.75743 0.0
C1084 C 0.74468 0.52947 0.89842 0.0
C1085 C 0.76548 0.55574 0.93368 0.0
C1086 C 0.78072 0.55519 0.81903 0.0
C1087 C 0.7947 0.5808 0.90924 0.0
C1088 C 0.82024 0.57808 0.73584 0.0
C1089 C 0.77196 0.53352 0.66557 0.0
N1090 N 0.80121 0.57994 0.85433 0.0
N1091 N 0.76598 0.53435 0.72067 0.0
H1092 H 0.29753 0.7903 0.69098 0.0
H1093 H 0.17776 0.76977 0.94661 0.0
H1094 H 0.21525 0.80654 0.67518 0.0
H1095 H 0.26532 0.76252 0.96347 0.0
H1096 H 0.18968 0.7817 0.84892 0.0
H1097 H 0.28543 0.77906 0.7887 0.0
C1098 C 0.27713 0.79202 0.70797 0.0
C1099 C 0.25819 0.80044 0.67355 0.0
C1100 C 0.20638 0.77742 0.87361 0.0
C1101 C 0.24292 0.78608 0.78829 0.0
C1102 C 0.1993 0.77017 0.93002 0.0
C1103 C 0.21996 0.76427 0.96478 0.0
C1104 C 0.23462 0.77891 0.84988 0.0
C1105 C 0.24835 0.76676 0.93951 0.0
C1106 C 0.2699 0.78514 0.7643 0.0
C1107 C 0.23089 0.80033 0.69893 0.0
N1108 N 0.25457 0.77356 0.88456 0.0
N1109 N 0.22432 0.79352 0.75389 0.0
H1110 H 0.39449 0.23577 0.69005 0.0
H1111 H 0.49695 0.23348 0.9543 0.0
H1112 H 0.48971 0.24402 0.67171 0.0
H1113 H 0.39128 0.17506 0.94895 0.0
H1114 H 0.49685 0.24656 0.85661 0.0
H1115 H 0.39448 0.22189 0.78687 0.0
C1116 C 0.41546 0.23462 0.70576 0.0
C1117 C 0.44208 0.2412 0.67069 0.0
C1118 C 0.47359 0.23086 0.87663 0.0
C1119 C 0.44264 0.22584 0.78541 0.0
C1120 C 0.47358 0.22345 0.9331 0.0
C1121 C 0.44412 0.20234 0.96141 0.0
C1122 C 0.44376 0.21826 0.84692 0.0
C1123 C 0.41485 0.19071 0.93008 0.0
C1124 C 0.41543 0.22663 0.76187 0.0
C1125 C 0.46835 0.23904 0.69575 0.0
N1126 N 0.41545 0.19886 0.87573 0.0
N1127 N 0.46815 0.23218 0.7507 0.0
H1128 H 0.27226 0.49033 0.63678 0.0
H1129 H 0.20724 0.41697 0.93979 0.0
H1130 H 0.16905 0.43331 0.67349 0.0
H1131 H 0.29979 0.50515 0.91411 0.0
H1132 H 0.19404 0.41701 0.84198 0.0
H1133 H 0.28469 0.48971 0.73459 0.0
C1134 C 0.252 0.47745 0.66486 0.0
C1135 C 0.21921 0.4622 0.64497 0.0
C1136 C 0.21747 0.43629 0.85749 0.0
C1137 C 0.23366 0.46097 0.75984 0.0
C1138 C 0.22504 0.43638 0.91394 0.0
C1139 C 0.25553 0.46054 0.9364 0.0
C1140 C 0.24046 0.46047 0.82164 0.0
C1141 C 0.27697 0.48498 0.89934 0.0
C1142 C 0.25922 0.4773 0.72136 0.0
C1143 C 0.19457 0.44599 0.68517 0.0
N1144 N 0.26935 0.48413 0.84477 0.0
N1145 N 0.20217 0.44566 0.7395 0.0
H1146 H 0.72431 0.22669 0.69298 0.0
H1147 H 0.84897 0.26089 0.94803 0.0
H1148 H 0.81148 0.21873 0.67715 0.0
H1149 H 0.75462 0.25421 0.96675 0.0
H1150 H 0.83749 0.24817 0.85014 0.0
H1151 H 0.736 0.23874 0.79084 0.0
C1152 C 0.74566 0.22684 0.71001 0.0
C1153 C 0.76605 0.22037 0.67556 0.0
C1154 C 0.8192 0.24956 0.87528 0.0
C1155 C 0.78097 0.23602 0.79041 0.0
C1156 C 0.82601 0.25731 0.93175 0.0
C1157 C 0.80332 0.25962 0.96707 0.0
C1158 C 0.78915 0.24392 0.85204 0.0
C1159 C 0.77324 0.25299 0.94229 0.0
C1160 C 0.75267 0.23426 0.76642 0.0
C1161 C 0.79462 0.22322 0.70095 0.0
N1162 N 0.76729 0.24583 0.88725 0.0
N1163 N 0.80101 0.23058 0.75594 0.0
loop_
_geom_bond_atom_site_label_1
_geom_bond_atom_site_label_2
_geom_bond_distance
_geom_bond_site_symmetry_2
_ccdc_geom_bond_type
Zn0 N4 2.020 . S
Zn0 O8 2.019 . S
Zn0 N10 2.119 . S
Zn0 O18 1.975 . S
C1 N2 1.334 . S
C1 N5 1.336 . S
N2 C1 1.334 . S
N2 C3 1.333 1_554 S
C3 N2 1.333 1_556 S
C3 N4 1.336 . S
N4 Zn0 2.020 . S
N4 C3 1.336 . S
N4 N5 1.354 1_556 S
N5 C1 1.336 . S
N5 N4 1.354 1_554 S
N5 Zn9 2.020 . S
C6 O7 1.244 . S
C6 O30 1.257 . S
O7 C6 1.244 . S
O8 Zn0 2.019 . S
O8 C28 1.257 . S
Zn9 N5 2.020 . S
Zn9 O16 1.975 . S
Zn9 N25 2.119 . S
Zn9 O30 2.019 . S
N10 Zn0 2.119 . S
N10 C12 1.334 . S
N10 C13 1.328 . S
C11 C12 1.391 . S
C11 N14 1.329 . S
C11 H32 0.930 . S
C12 N10 1.334 . S
C12 C11 1.391 . S
C12 H19 0.930 . S
C13 N10 1.328 . S
C13 C15 1.392 . S
C13 H20 0.930 . S
N14 C11 1.329 . S
N14 C15 1.331 . S
C15 C13 1.392 . S
C15 N14 1.331 . S
O16 Zn9 1.975 . S
O16 C17 1.252 . S
C17 O16 1.252 . S
C17 O18 1.252 1_554 S
O18 Zn0 1.975 . S
O18 C17 1.252 1_556 S
H19 C12 0.930 . S
H20 C13 0.930 . S
C21 C22 1.392 . S
C21 N25 1.328 . S
C21 H27 0.930 . S
C22 C21 1.392 . S
C22 N26 1.331 . S
C23 C24 1.391 . S
C23 N26 1.329 . S
C23 H33 0.930 . S
C24 C23 1.391 . S
C24 N25 1.334 . S
C24 H31 0.930 . S
N25 Zn9 2.119 . S
N25 C21 1.328 . S
N25 C24 1.334 . S
N26 C22 1.331 . S
N26 C23 1.329 . S
H27 C21 0.930 . S
C28 O8 1.257 . S
C28 O29 1.244 . S
O29 C28 1.244 . S
O30 C6 1.257 . S
O30 Zn9 2.019 . S
H31 C24 0.930 . S
H32 C11 0.930 . S
H33 C23 0.930 . S
Zn34 N38 2.020 . S
Zn34 O42 2.019 . S
Zn34 N44 2.119 . S
Zn34 O52 1.975 . S
C35 N36 1.334 . S
C35 N39 1.336 . S
N36 C35 1.334 . S
N36 C37 1.333 1_554 S
C37 N36 1.333 1_556 S
C37 N38 1.336 . S
N38 Zn34 2.020 . S
N38 C37 1.336 . S
N38 N39 1.354 1_556 S
N39 C35 1.336 . S
N39 N38 1.354 1_554 S
N39 Zn43 2.020 . S
C40 O41 1.244 . S
C40 O64 1.257 . S
O41 C40 1.244 . S
O42 Zn34 2.019 . S
O42 C62 1.257 . S
Zn43 N39 2.020 . S
Zn43 O50 1.975 . S
Zn43 N59 2.119 . S
Zn43 O64 2.019 . S
N44 Zn34 2.119 . S
N44 C46 1.334 . S
N44 C47 1.328 . S
C45 C46 1.391 . S
C45 N48 1.329 . S
C45 H66 0.930 . S
C46 N44 1.334 . S
C46 C45 1.391 . S
C46 H53 0.930 . S
C47 N44 1.328 . S
C47 C49 1.392 . S
C47 H54 0.930 . S
N48 C45 1.329 . S
N48 C49 1.331 . S
C49 C47 1.392 . S
C49 N48 1.331 . S
O50 Zn43 1.975 . S
O50 C51 1.252 . S
C51 O50 1.252 . S
C51 O52 1.252 1_554 S
O52 Zn34 1.975 . S
O52 C51 1.252 1_556 S
H53 C46 0.930 . S
H54 C47 0.930 . S
C55 C56 1.392 . S
C55 N59 1.328 . S
C55 H61 0.930 . S
C56 C55 1.392 . S
C56 N60 1.331 . S
C57 C58 1.391 . S
C57 N60 1.329 . S
C57 H67 0.930 . S
C58 C57 1.391 . S
C58 N59 1.334 . S
C58 H65 0.930 . S
N59 Zn43 2.119 . S
N59 C55 1.328 . S
N59 C58 1.334 . S
N60 C56 1.331 . S
N60 C57 1.329 . S
H61 C55 0.930 . S
C62 O42 1.257 . S
C62 O63 1.244 . S
O63 C62 1.244 . S
O64 C40 1.257 . S
O64 Zn43 2.019 . S
H65 C58 0.930 . S
H66 C45 0.930 . S
H67 C57 0.930 . S
Zn68 N72 2.020 . S
Zn68 O76 2.019 . S
Zn68 N78 2.119 . S
Zn68 O86 1.975 . S
C69 N70 1.334 . S
C69 N73 1.336 . S
N70 C69 1.334 . S
N70 C71 1.333 1_554 S
C71 N70 1.333 1_556 S
C71 N72 1.336 . S
N72 Zn68 2.020 . S
N72 C71 1.336 . S
N72 N73 1.354 1_556 S
N73 C69 1.336 . S
N73 N72 1.354 1_554 S
N73 Zn77 2.020 . S
C74 O75 1.244 . S
C74 O98 1.257 . S
O75 C74 1.244 . S
O76 Zn68 2.019 . S
O76 C96 1.257 . S
Zn77 N73 2.020 . S
Zn77 O84 1.975 . S
Zn77 N93 2.119 . S
Zn77 O98 2.019 . S
N78 Zn68 2.119 . S
N78 C80 1.334 . S
N78 C81 1.328 . S
C79 C80 1.391 . S
C79 N82 1.329 . S
C79 H100 0.930 . S
C80 N78 1.334 . S
C80 C79 1.391 . S
C80 H87 0.930 . S
C81 N78 1.328 . S
C81 C83 1.392 . S
C81 H88 0.930 . S
N82 C79 1.329 . S
N82 C83 1.331 . S
C83 C81 1.392 . S
C83 N82 1.331 . S
O84 Zn77 1.975 . S
O84 C85 1.252 . S
C85 O84 1.252 . S
C85 O86 1.252 1_554 S
O86 Zn68 1.975 . S
O86 C85 1.252 1_556 S
H87 C80 0.930 . S
H88 C81 0.930 . S
C89 C90 1.392 . S
C89 N93 1.328 . S
C89 H95 0.930 . S
C90 C89 1.392 . S
C90 N94 1.331 . S
C91 C92 1.391 . S
C91 N94 1.329 . S
C91 H101 0.930 . S
C92 C91 1.391 . S
C92 N93 1.334 . S
C92 H99 0.930 . S
N93 Zn77 2.119 . S
N93 C89 1.328 . S
N93 C92 1.334 . S
N94 C90 1.331 . S
N94 C91 1.329 . S
H95 C89 0.930 . S
C96 O76 1.257 . S
C96 O97 1.244 . S
O97 C96 1.244 . S
O98 C74 1.257 . S
O98 Zn77 2.019 . S
H99 C92 0.930 . S
H100 C79 0.930 . S
H101 C91 0.930 . S
Zn102 N106 2.020 . S
Zn102 O110 2.019 . S
Zn102 N112 2.119 . S
Zn102 O120 1.975 . S
C103 N104 1.333 1_556 S
C103 N107 1.336 . S
N104 C103 1.333 1_554 S
N104 C105 1.334 . S
C105 N104 1.334 . S
C105 N106 1.336 . S
N106 Zn102 2.020 . S
N106 C105 1.336 . S
N106 N107 1.354 1_554 S
N107 C103 1.336 . S
N107 N106 1.354 1_556 S
N107 Zn111 2.020 . S
C108 O109 1.244 . S
C108 O132 1.257 . S
O109 C108 1.244 . S
O110 Zn102 2.019 . S
O110 C130 1.257 . S
Zn111 N107 2.020 . S
Zn111 O118 1.975 . S
Zn111 N127 2.119 . S
Zn111 O132 2.019 . S
N112 Zn102 2.119 . S
N112 C114 1.334 . S
N112 C115 1.328 . S
C113 C114 1.391 . S
C113 N116 1.329 . S
C113 H134 0.930 . S
C114 N112 1.334 . S
C114 C113 1.391 . S
C114 H121 0.930 . S
C115 N112 1.328 . S
C115 C117 1.392 . S
C115 H122 0.930 . S
N116 C113 1.329 . S
N116 C117 1.331 . S
C117 C115 1.392 . S
C117 N116 1.331 . S
O118 Zn111 1.975 . S
O118 C119 1.252 1_556 S
C119 O118 1.252 1_554 S
C119 O120 1.252 . S
O120 Zn102 1.975 . S
O120 C119 1.252 . S
H121 C114 0.930 . S
H122 C115 0.930 . S
C123 C124 1.392 . S
C123 N127 1.328 . S
C123 H129 0.930 . S
C124 C123 1.392 . S
C124 N128 1.331 . S
C125 C126 1.391 . S
C125 N128 1.329 . S
C125 H135 0.930 . S
C126 C125 1.391 . S
C126 N127 1.334 . S
C126 H133 0.930 . S
N127 Zn111 2.119 . S
N127 C123 1.328 . S
N127 C126 1.334 . S
N128 C124 1.331 . S
N128 C125 1.329 . S
H129 C123 0.930 . S
C130 O110 1.257 . S
C130 O131 1.244 . S
O131 C130 1.244 . S
O132 C108 1.257 . S
O132 Zn111 2.019 . S
H133 C126 0.930 . S
H134 C113 0.930 . S
H135 C125 0.930 . S
Zn136 N140 2.020 . S
Zn136 O144 2.019 . S
Zn136 N146 2.119 . S
Zn136 O154 1.975 . S
C137 N138 1.334 . S
C137 N141 1.336 . S
N138 C137 1.334 . S
N138 C139 1.333 1_554 S
C139 N138 1.333 1_556 S
C139 N140 1.336 . S
N140 Zn136 2.020 . S
N140 C139 1.336 . S
N140 N141 1.354 1_556 S
N141 C137 1.336 . S
N141 N140 1.354 1_554 S
N141 Zn145 2.020 . S
C142 O143 1.244 . S
C142 O166 1.257 . S
O143 C142 1.244 . S
O144 Zn136 2.019 . S
O144 C164 1.257 . S
Zn145 N141 2.020 . S
Zn145 O152 1.975 . S
Zn145 N161 2.119 . S
Zn145 O166 2.019 . S
N146 Zn136 2.119 . S
N146 C148 1.334 . S
N146 C149 1.328 . S
C147 C148 1.391 . S
C147 N150 1.329 . S
C147 H168 0.930 . S
C148 N146 1.334 . S
C148 C147 1.391 . S
C148 H155 0.930 . S
C149 N146 1.328 . S
C149 C151 1.392 . S
C149 H156 0.930 . S
N150 C147 1.329 . S
N150 C151 1.331 . S
C151 C149 1.392 . S
C151 N150 1.331 . S
O152 Zn145 1.975 . S
O152 C153 1.252 . S
C153 O152 1.252 . S
C153 O154 1.252 1_554 S
O154 Zn136 1.975 . S
O154 C153 1.252 1_556 S
H155 C148 0.930 . S
H156 C149 0.930 . S
C157 C158 1.392 . S
C157 N161 1.328 . S
C157 H163 0.930 . S
C158 C157 1.392 . S
C158 N162 1.331 . S
C159 C160 1.391 . S
C159 N162 1.329 . S
C159 H169 0.930 . S
C160 C159 1.391 . S
C160 N161 1.334 . S
C160 H167 0.930 . S
N161 Zn145 2.119 . S
N161 C157 1.328 . S
N161 C160 1.334 . S
N162 C158 1.331 . S
N162 C159 1.329 . S
H163 C157 0.930 . S
C164 O144 1.257 . S
C164 O165 1.244 . S
O165 C164 1.244 . S
O166 C142 1.257 . S
O166 Zn145 2.019 . S
H167 C160 0.930 . S
H168 C147 0.930 . S
H169 C159 0.930 . S
Zn170 N174 2.020 . S
Zn170 O178 2.019 . S
Zn170 N180 2.119 . S
Zn170 O188 1.975 . S
C171 N172 1.333 1_556 S
C171 N175 1.336 . S
N172 C171 1.333 1_554 S
N172 C173 1.334 . S
C173 N172 1.334 . S
C173 N174 1.336 . S
N174 Zn170 2.020 . S
N174 C173 1.336 . S
N174 N175 1.354 1_554 S
N175 C171 1.336 . S
N175 N174 1.354 1_556 S
N175 Zn179 2.020 . S
C176 O177 1.244 . S
C176 O200 1.257 . S
O177 C176 1.244 . S
O178 Zn170 2.019 . S
O178 C198 1.257 . S
Zn179 N175 2.020 . S
Zn179 O186 1.975 . S
Zn179 N195 2.119 . S
Zn179 O200 2.019 . S
N180 Zn170 2.119 . S
N180 C182 1.334 . S
N180 C183 1.328 . S
C181 C182 1.391 . S
C181 N184 1.329 . S
C181 H202 0.930 . S
C182 N180 1.334 . S
C182 C181 1.391 . S
C182 H189 0.930 . S
C183 N180 1.328 . S
C183 C185 1.392 . S
C183 H190 0.930 . S
N184 C181 1.329 . S
N184 C185 1.331 . S
C185 C183 1.392 . S
C185 N184 1.331 . S
O186 Zn179 1.975 . S
O186 C187 1.252 1_556 S
C187 O186 1.252 1_554 S
C187 O188 1.252 . S
O188 Zn170 1.975 . S
O188 C187 1.252 . S
H189 C182 0.930 . S
H190 C183 0.930 . S
C191 C192 1.392 . S
C191 N195 1.328 . S
C191 H197 0.930 . S
C192 C191 1.392 . S
C192 N196 1.331 . S
C193 C194 1.391 . S
C193 N196 1.329 . S
C193 H203 0.930 . S
C194 C193 1.391 . S
C194 N195 1.334 . S
C194 H201 0.930 . S
N195 Zn179 2.119 . S
N195 C191 1.328 . S
N195 C194 1.334 . S
N196 C192 1.331 . S
N196 C193 1.329 . S
H197 C191 0.930 . S
C198 O178 1.257 . S
C198 O199 1.244 . S
O199 C198 1.244 . S
O200 C176 1.257 . S
O200 Zn179 2.019 . S
H201 C194 0.930 . S
H202 C181 0.930 . S
H203 C193 0.930 . S
Zn204 N208 2.020 . S
Zn204 O212 2.019 . S
Zn204 N214 2.119 . S
Zn204 O222 1.975 . S
C205 N206 1.334 . S
C205 N209 1.336 . S
N206 C205 1.334 . S
N206 C207 1.334 . S
C207 N206 1.334 . S
C207 N208 1.336 . S
N208 Zn204 2.020 . S
N208 C207 1.336 . S
N208 N209 1.354 . S
N209 C205 1.336 . S
N209 N208 1.354 . S
N209 Zn213 2.020 . S
C210 O211 1.244 . S
C210 O234 1.257 . S
O211 C210 1.244 . S
O212 Zn204 2.019 . S
O212 C232 1.257 . S
Zn213 N209 2.020 . S
Zn213 O220 1.975 . S
Zn213 N229 2.119 . S
Zn213 O234 2.019 . S
N214 Zn204 2.119 . S
N214 C216 1.334 . S
N214 C217 1.328 . S
C215 C216 1.391 . S
C215 N218 1.329 . S
C215 H236 0.930 . S
C216 N214 1.334 . S
C216 C215 1.391 . S
C216 H223 0.930 . S
C217 N214 1.328 . S
C217 C219 1.392 . S
C217 H224 0.930 . S
N218 C215 1.329 . S
N218 C219 1.331 . S
C219 C217 1.392 . S
C219 N218 1.331 . S
O220 Zn213 1.975 . S
O220 C221 1.252 . S
C221 O220 1.252 . S
C221 O222 1.252 . S
O222 Zn204 1.975 . S
O222 C221 1.252 . S
H223 C216 0.930 . S
H224 C217 0.930 . S
C225 C226 1.392 . S
C225 N229 1.328 . S
C225 H231 0.930 . S
C226 C225 1.392 . S
C226 N230 1.331 . S
C227 C228 1.391 . S
C227 N230 1.329 . S
C227 H237 0.930 . S
C228 C227 1.391 . S
C228 N229 1.334 . S
C228 H235 0.930 . S
N229 Zn213 2.119 . S
N229 C225 1.328 . S
N229 C228 1.334 . S
N230 C226 1.331 . S
N230 C227 1.329 . S
H231 C225 0.930 . S
C232 O212 1.257 . S
C232 O233 1.244 . S
O233 C232 1.244 . S
O234 C210 1.257 . S
O234 Zn213 2.019 . S
H235 C228 0.930 . S
H236 C215 0.930 . S
H237 C227 0.930 . S
Zn238 N242 2.020 . S
Zn238 O246 2.019 . S
Zn238 N248 2.119 . S
Zn238 O256 1.975 . S
C239 N240 1.334 . S
C239 N243 1.336 . S
N240 C239 1.334 . S
N240 C241 1.334 . S
C241 N240 1.334 . S
C241 N242 1.336 . S
N242 Zn238 2.020 . S
N242 C241 1.336 . S
N242 N243 1.354 . S
N243 C239 1.336 . S
N243 N242 1.354 . S
N243 Zn247 2.020 . S
C244 O245 1.244 . S
C244 O268 1.257 . S
O245 C244 1.244 . S
O246 Zn238 2.019 . S
O246 C266 1.257 . S
Zn247 N243 2.020 . S
Zn247 O254 1.975 . S
Zn247 N263 2.119 . S
Zn247 O268 2.019 . S
N248 Zn238 2.119 . S
N248 C250 1.334 . S
N248 C251 1.328 . S
C249 C250 1.391 . S
C249 N252 1.329 . S
C249 H270 0.930 . S
C250 N248 1.334 . S
C250 C249 1.391 . S
C250 H257 0.930 . S
C251 N248 1.328 . S
C251 C253 1.392 . S
C251 H258 0.930 . S
N252 C249 1.329 . S
N252 C253 1.331 . S
C253 C251 1.392 . S
C253 N252 1.331 . S
O254 Zn247 1.975 . S
O254 C255 1.252 . S
C255 O254 1.252 . S
C255 O256 1.252 . S
O256 Zn238 1.975 . S
O256 C255 1.252 . S
H257 C250 0.930 . S
H258 C251 0.930 . S
C259 C260 1.392 . S
C259 N263 1.328 . S
C259 H265 0.930 . S
C260 C259 1.392 . S
C260 N264 1.331 . S
C261 C262 1.391 . S
C261 N264 1.329 . S
C261 H271 0.930 . S
C262 C261 1.391 . S
C262 N263 1.334 . S
C262 H269 0.930 . S
N263 Zn247 2.119 . S
N263 C259 1.328 . S
N263 C262 1.334 . S
N264 C260 1.331 . S
N264 C261 1.329 . S
H265 C259 0.930 . S
C266 O246 1.257 . S
C266 O267 1.244 . S
O267 C266 1.244 . S
O268 C244 1.257 . S
O268 Zn247 2.019 . S
H269 C262 0.930 . S
H270 C249 0.930 . S
H271 C261 0.930 . S
Zn272 N276 2.020 . S
Zn272 O280 2.019 . S
Zn272 N282 2.119 . S
Zn272 O290 1.975 . S
C273 N274 1.334 . S
C273 N277 1.336 . S
N274 C273 1.334 . S
N274 C275 1.334 . S
C275 N274 1.334 . S
C275 N276 1.336 . S
N276 Zn272 2.020 . S
N276 C275 1.336 . S
N276 N277 1.354 . S
N277 C273 1.336 . S
N277 N276 1.354 . S
N277 Zn281 2.020 . S
C278 O279 1.244 . S
C278 O302 1.257 . S
O279 C278 1.244 . S
O280 Zn272 2.019 . S
O280 C300 1.257 . S
Zn281 N277 2.020 . S
Zn281 O288 1.975 . S
Zn281 N297 2.119 . S
Zn281 O302 2.019 . S
N282 Zn272 2.119 . S
N282 C284 1.334 . S
N282 C285 1.328 . S
C283 C284 1.391 . S
C283 N286 1.329 . S
C283 H304 0.930 . S
C284 N282 1.334 . S
C284 C283 1.391 . S
C284 H291 0.930 . S
C285 N282 1.328 . S
C285 C287 1.392 . S
C285 H292 0.930 . S
N286 C283 1.329 . S
N286 C287 1.331 . S
C287 C285 1.392 . S
C287 N286 1.331 . S
O288 Zn281 1.975 . S
O288 C289 1.252 . S
C289 O288 1.252 . S
C289 O290 1.252 . S
O290 Zn272 1.975 . S
O290 C289 1.252 . S
H291 C284 0.930 . S
H292 C285 0.930 . S
C293 C294 1.392 . S
C293 N297 1.328 . S
C293 H299 0.930 . S
C294 C293 1.392 . S
C294 N298 1.331 . S
C295 C296 1.391 . S
C295 N298 1.329 . S
C295 H305 0.930 . S
C296 C295 1.391 . S
C296 N297 1.334 . S
C296 H303 0.930 . S
N297 Zn281 2.119 . S
N297 C293 1.328 . S
N297 C296 1.334 . S
N298 C294 1.331 . S
N298 C295 1.329 . S
H299 C293 0.930 . S
C300 O280 1.257 . S
C300 O301 1.244 . S
O301 C300 1.244 . S
O302 C278 1.257 . S
O302 Zn281 2.019 . S
H303 C296 0.930 . S
H304 C283 0.930 . S
H305 C295 0.930 . S
Zn306 N310 2.020 . S
Zn306 O314 2.019 . S
Zn306 N316 2.119 . S
Zn306 O324 1.975 . S
C307 N308 1.334 . S
C307 N311 1.336 . S
N308 C307 1.334 . S
N308 C309 1.334 . S
C309 N308 1.334 . S
C309 N310 1.336 . S
N310 Zn306 2.020 . S
N310 C309 1.336 . S
N310 N311 1.354 . S
N311 C307 1.336 . S
N311 N310 1.354 . S
N311 Zn315 2.020 . S
C312 O313 1.244 . S
C312 O336 1.257 . S
O313 C312 1.244 . S
O314 Zn306 2.019 . S
O314 C334 1.257 . S
Zn315 N311 2.020 . S
Zn315 O322 1.975 . S
Zn315 N331 2.119 . S
Zn315 O336 2.019 . S
N316 Zn306 2.119 . S
N316 C318 1.334 . S
N316 C319 1.328 . S
C317 C318 1.391 . S
C317 N320 1.329 . S
C317 H338 0.930 . S
C318 N316 1.334 . S
C318 C317 1.391 . S
C318 H325 0.930 . S
C319 N316 1.328 . S
C319 C321 1.392 . S
C319 H326 0.930 . S
N320 C317 1.329 . S
N320 C321 1.331 . S
C321 C319 1.392 . S
C321 N320 1.331 . S
O322 Zn315 1.975 . S
O322 C323 1.252 . S
C323 O322 1.252 . S
C323 O324 1.252 . S
O324 Zn306 1.975 . S
O324 C323 1.252 . S
H325 C318 0.930 . S
H326 C319 0.930 . S
C327 C328 1.392 . S
C327 N331 1.328 . S
C327 H333 0.930 . S
C328 C327 1.392 . S
C328 N332 1.331 . S
C329 C330 1.391 . S
C329 N332 1.329 . S
C329 H339 0.930 . S
C330 C329 1.391 . S
C330 N331 1.334 . S
C330 H337 0.930 . S
N331 Zn315 2.119 . S
N331 C327 1.328 . S
N331 C330 1.334 . S
N332 C328 1.331 . S
N332 C329 1.329 . S
H333 C327 0.930 . S
C334 O314 1.257 . S
C334 O335 1.244 . S
O335 C334 1.244 . S
O336 C312 1.257 . S
O336 Zn315 2.019 . S
H337 C330 0.930 . S
H338 C317 0.930 . S
H339 C329 0.930 . S
Zn340 N344 2.020 . S
Zn340 O348 2.019 . S
Zn340 N350 2.119 . S
Zn340 O358 1.975 . S
C341 N342 1.334 . S
C341 N345 1.336 . S
N342 C341 1.334 . S
N342 C343 1.334 . S
C343 N342 1.334 . S
C343 N344 1.336 . S
N344 Zn340 2.020 . S
N344 C343 1.336 . S
N344 N345 1.354 . S
N345 C341 1.336 . S
N345 N344 1.354 . S
N345 Zn349 2.020 . S
C346 O347 1.244 . S
C346 O370 1.257 . S
O347 C346 1.244 . S
O348 Zn340 2.019 . S
O348 C368 1.257 . S
Zn349 N345 2.020 . S
Zn349 O356 1.975 . S
Zn349 N365 2.119 . S
Zn349 O370 2.019 . S
N350 Zn340 2.119 . S
N350 C352 1.334 . S
N350 C353 1.328 . S
C351 C352 1.391 . S
C351 N354 1.329 . S
C351 H372 0.930 . S
C352 N350 1.334 . S
C352 C351 1.391 . S
C352 H359 0.930 . S
C353 N350 1.328 . S
C353 C355 1.392 . S
C353 H360 0.930 . S
N354 C351 1.329 . S
N354 C355 1.331 . S
C355 C353 1.392 . S
C355 N354 1.331 . S
O356 Zn349 1.975 . S
O356 C357 1.252 . S
C357 O356 1.252 . S
C357 O358 1.252 . S
O358 Zn340 1.975 . S
O358 C357 1.252 . S
H359 C352 0.930 . S
H360 C353 0.930 . S
C361 C362 1.392 . S
C361 N365 1.328 . S
C361 H367 0.930 . S
C362 C361 1.392 . S
C362 N366 1.331 . S
C363 C364 1.391 . S
C363 N366 1.329 . S
C363 H373 0.930 . S
C364 C363 1.391 . S
C364 N365 1.334 . S
C364 H371 0.930 . S
N365 Zn349 2.119 . S
N365 C361 1.328 . S
N365 C364 1.334 . S
N366 C362 1.331 . S
N366 C363 1.329 . S
H367 C361 0.930 . S
C368 O348 1.257 . S
C368 O369 1.244 . S
O369 C368 1.244 . S
O370 C346 1.257 . S
O370 Zn349 2.019 . S
H371 C364 0.930 . S
H372 C351 0.930 . S
H373 C363 0.930 . S
Zn374 N378 2.020 . S
Zn374 O382 2.019 . S
Zn374 N384 2.119 . S
Zn374 O392 1.975 . S
C375 N376 1.334 . S
C375 N379 1.336 . S
N376 C375 1.334 . S
N376 C377 1.334 . S
C377 N376 1.334 . S
C377 N378 1.336 . S
N378 Zn374 2.020 . S
N378 C377 1.336 . S
N378 N379 1.354 . S
N379 C375 1.336 . S
N379 N378 1.354 . S
N379 Zn383 2.020 . S
C380 O381 1.244 . S
C380 O404 1.257 . S
O381 C380 1.244 . S
O382 Zn374 2.019 . S
O382 C402 1.257 . S
Zn383 N379 2.020 . S
Zn383 O390 1.975 . S
Zn383 N399 2.119 . S
Zn383 O404 2.019 . S
N384 Zn374 2.119 . S
N384 C386 1.334 . S
N384 C387 1.328 . S
C385 C386 1.391 . S
C385 N388 1.329 . S
C385 H406 0.930 . S
C386 N384 1.334 . S
C386 C385 1.391 . S
C386 H393 0.930 . S
C387 N384 1.328 . S
C387 C389 1.392 . S
C387 H394 0.930 . S
N388 C385 1.329 . S
N388 C389 1.331 . S
C389 C387 1.392 . S
C389 N388 1.331 . S
O390 Zn383 1.975 . S
O390 C391 1.252 . S
C391 O390 1.252 . S
C391 O392 1.252 . S
O392 Zn374 1.975 . S
O392 C391 1.252 . S
H393 C386 0.930 . S
H394 C387 0.930 . S
C395 C396 1.392 . S
C395 N399 1.328 . S
C395 H401 0.930 . S
C396 C395 1.392 . S
C396 N400 1.331 . S
C397 C398 1.391 . S
C397 N400 1.329 . S
C397 H407 0.930 . S
C398 C397 1.391 . S
C398 N399 1.334 . S
C398 H405 0.930 . S
N399 Zn383 2.119 . S
N399 C395 1.328 . S
N399 C398 1.334 . S
N400 C396 1.331 . S
N400 C397 1.329 . S
H401 C395 0.930 . S
C402 O382 1.257 . S
C402 O403 1.244 . S
O403 C402 1.244 . S
O404 C380 1.257 . S
O404 Zn383 2.019 . S
H405 C398 0.930 . S
H406 C385 0.930 . S
H407 C397 0.930 . S
H408 C414 0.930 . S
H409 C418 0.930 . S
H410 C423 0.929 . S
H411 C421 0.929 . S
H412 C416 0.929 . S
H413 C422 0.929 . S
C414 H408 0.930 . S
C414 C415 1.367 . S
C414 C422 1.378 . S
C415 C414 1.367 . S
C415 C423 1.433 . S
C416 H412 0.929 . S
C416 C418 1.378 . S
C416 C420 1.350 . S
C417 C420 1.463 1_545 S
C417 C422 1.350 . S
C417 N425 1.427 . S
C418 H409 0.930 . S
C418 C416 1.378 . S
C418 C419 1.367 . S
C419 C418 1.367 . S
C419 C421 1.433 . S
C420 C416 1.350 . S
C420 C417 1.463 1_565 S
C420 N424 1.427 . S
C421 H411 0.929 . S
C421 C419 1.433 . S
C421 N424 1.384 . S
C422 H413 0.929 . S
C422 C414 1.378 . S
C422 C417 1.350 . S
C423 H410 0.929 . S
C423 C415 1.433 . S
C423 N425 1.384 . S
N424 C420 1.427 . S
N424 C421 1.384 . S
N425 C417 1.427 . S
N425 C423 1.384 . S
H426 C432 0.930 . S
H427 C436 0.930 . S
H428 C441 0.929 . S
H429 C439 0.929 . S
H430 C434 0.929 . S
H431 C440 0.929 . S
C432 H426 0.930 . S
C432 C433 1.367 . S
C432 C440 1.378 . S
C433 C432 1.367 . S
C433 C441 1.433 . S
C434 H430 0.929 . S
C434 C436 1.378 . S
C434 C438 1.350 . S
C435 C438 1.463 . S
C435 C440 1.350 . S
C435 N443 1.427 . S
C436 H427 0.930 . S
C436 C434 1.378 . S
C436 C437 1.367 . S
C437 C436 1.367 . S
C437 C439 1.433 . S
C438 C434 1.350 . S
C438 C435 1.463 . S
C438 N442 1.427 . S
C439 H429 0.929 . S
C439 C437 1.433 . S
C439 N442 1.384 . S
C440 H431 0.929 . S
C440 C432 1.378 . S
C440 C435 1.350 . S
C441 H428 0.929 . S
C441 C433 1.433 . S
C441 N443 1.384 . S
N442 C438 1.427 . S
N442 C439 1.384 . S
N443 C435 1.427 . S
N443 C441 1.384 . S
H444 C450 0.930 . S
H445 C454 0.930 . S
H446 C459 0.929 . S
H447 C457 0.929 . S
H448 C452 0.929 1_455 S
H449 C458 0.929 1_655 S
C450 H444 0.930 . S
C450 C451 1.367 . S
C450 C458 1.378 . S
C451 C450 1.367 . S
C451 C459 1.433 . S
C452 H448 0.929 1_655 S
C452 C454 1.378 . S
C452 C456 1.350 . S
C453 C456 1.463 1_455 S
C453 C458 1.350 . S
C453 N461 1.427 . S
C454 H445 0.930 . S
C454 C452 1.378 . S
C454 C455 1.367 . S
C455 C454 1.367 . S
C455 C457 1.433 . S
C456 C452 1.350 . S
C456 C453 1.463 1_655 S
C456 N460 1.427 . S
C457 H447 0.929 . S
C457 C455 1.433 . S
C457 N460 1.384 . S
C458 H449 0.929 1_455 S
C458 C450 1.378 . S
C458 C453 1.350 . S
C459 H446 0.929 . S
C459 C451 1.433 . S
C459 N461 1.384 . S
N460 C456 1.427 . S
N460 C457 1.384 . S
N461 C453 1.427 . S
N461 C459 1.384 . S
H462 C468 0.930 . S
H463 C472 0.930 . S
H464 C477 0.929 . S
H465 C475 0.929 . S
H466 C470 0.929 . S
H467 C476 0.929 . S
C468 H462 0.930 . S
C468 C469 1.367 . S
C468 C476 1.378 . S
C469 C468 1.367 . S
C469 C477 1.433 . S
C470 H466 0.929 . S
C470 C472 1.378 . S
C470 C474 1.350 . S
C471 C474 1.463 1_565 S
C471 C476 1.350 . S
C471 N479 1.427 . S
C472 H463 0.930 . S
C472 C470 1.378 . S
C472 C473 1.367 . S
C473 C472 1.367 . S
C473 C475 1.433 . S
C474 C470 1.350 . S
C474 C471 1.463 1_545 S
C474 N478 1.427 . S
C475 H465 0.929 . S
C475 C473 1.433 . S
C475 N478 1.384 . S
C476 H467 0.929 . S
C476 C468 1.378 . S
C476 C471 1.350 . S
C477 H464 0.929 . S
C477 C469 1.433 . S
C477 N479 1.384 . S
N478 C474 1.427 . S
N478 C475 1.384 . S
N479 C471 1.427 . S
N479 C477 1.384 . S
H480 C486 0.930 . S
H481 C490 0.930 . S
H482 C495 0.929 . S
H483 C493 0.929 . S
H484 C488 0.929 . S
H485 C494 0.929 . S
C486 H480 0.930 . S
C486 C487 1.367 . S
C486 C494 1.378 . S
C487 C486 1.367 . S
C487 C495 1.433 . S
C488 H484 0.929 . S
C488 C490 1.378 . S
C488 C492 1.350 . S
C489 C492 1.463 . S
C489 C494 1.350 . S
C489 N497 1.427 . S
C490 H481 0.930 . S
C490 C488 1.378 . S
C490 C491 1.367 . S
C491 C490 1.367 . S
C491 C493 1.433 . S
C492 C488 1.350 . S
C492 C489 1.463 . S
C492 N496 1.427 . S
C493 H483 0.929 . S
C493 C491 1.433 . S
C493 N496 1.384 . S
C494 H485 0.929 . S
C494 C486 1.378 . S
C494 C489 1.350 . S
C495 H482 0.929 . S
C495 C487 1.433 . S
C495 N497 1.384 . S
N496 C492 1.427 . S
N496 C493 1.384 . S
N497 C489 1.427 . S
N497 C495 1.384 . S
H498 C504 0.930 . S
H499 C508 0.930 . S
H500 C513 0.929 . S
H501 C511 0.929 . S
H502 C506 0.929 . S
H503 C512 0.929 . S
C504 H498 0.930 . S
C504 C505 1.367 . S
C504 C512 1.378 . S
C505 C504 1.367 . S
C505 C513 1.433 . S
C506 H502 0.929 . S
C506 C508 1.378 . S
C506 C510 1.350 . S
C507 C510 1.463 1_655 S
C507 C512 1.350 . S
C507 N515 1.427 . S
C508 H499 0.930 . S
C508 C506 1.378 . S
C508 C509 1.367 . S
C509 C508 1.367 . S
C509 C511 1.433 . S
C510 C506 1.350 . S
C510 C507 1.463 1_455 S
C510 N514 1.427 . S
C511 H501 0.929 . S
C511 C509 1.433 . S
C511 N514 1.384 . S
C512 H503 0.929 . S
C512 C504 1.378 . S
C512 C507 1.350 . S
C513 H500 0.929 . S
C513 C505 1.433 . S
C513 N515 1.384 . S
N514 C510 1.427 . S
N514 C511 1.384 . S
N515 C507 1.427 . S
N515 C513 1.384 . S
H516 C522 0.930 . S
H517 C526 0.930 . S
H518 C531 0.929 . S
H519 C529 0.929 . S
H520 C524 0.929 1_545 S
H521 C530 0.929 1_565 S
C522 H516 0.930 . S
C522 C523 1.367 . S
C522 C530 1.378 . S
C523 C522 1.367 . S
C523 C531 1.433 . S
C524 H520 0.929 1_565 S
C524 C526 1.378 . S
C524 C528 1.350 . S
C525 C528 1.463 1_545 S
C525 C530 1.350 . S
C525 N533 1.427 . S
C526 H517 0.930 . S
C526 C524 1.378 . S
C526 C527 1.367 . S
C527 C526 1.367 . S
C527 C529 1.433 . S
C528 C524 1.350 . S
C528 C525 1.463 1_565 S
C528 N532 1.427 . S
C529 H519 0.929 . S
C529 C527 1.433 . S
C529 N532 1.384 . S
C530 H521 0.929 1_545 S
C530 C522 1.378 . S
C530 C525 1.350 . S
C531 H518 0.929 . S
C531 C523 1.433 . S
C531 N533 1.384 . S
N532 C528 1.427 . S
N532 C529 1.384 . S
N533 C525 1.427 . S
N533 C531 1.384 . S
H534 C540 0.930 . S
H535 C544 0.930 . S
H536 C549 0.929 . S
H537 C547 0.929 . S
H538 C542 0.929 . S
H539 C548 0.929 . S
C540 H534 0.930 . S
C540 C541 1.367 . S
C540 C548 1.378 . S
C541 C540 1.367 . S
C541 C549 1.433 . S
C542 H538 0.929 . S
C542 C544 1.378 . S
C542 C546 1.350 . S
C543 C546 1.463 . S
C543 C548 1.350 . S
C543 N551 1.427 . S
C544 H535 0.930 . S
C544 C542 1.378 . S
C544 C545 1.367 . S
C545 C544 1.367 . S
C545 C547 1.433 . S
C546 C542 1.350 . S
C546 C543 1.463 . S
C546 N550 1.427 . S
C547 H537 0.929 . S
C547 C545 1.433 . S
C547 N550 1.384 . S
C548 H539 0.929 . S
C548 C540 1.378 . S
C548 C543 1.350 . S
C549 H536 0.929 . S
C549 C541 1.433 . S
C549 N551 1.384 . S
N550 C546 1.427 . S
N550 C547 1.384 . S
N551 C543 1.427 . S
N551 C549 1.384 . S
H552 C558 0.930 . S
H553 C562 0.930 . S
H554 C567 0.929 . S
H555 C565 0.929 . S
H556 C560 0.929 . S
H557 C566 0.929 . S
C558 H552 0.930 . S
C558 C559 1.367 . S
C558 C566 1.378 . S
C559 C558 1.367 . S
C559 C567 1.433 . S
C560 H556 0.929 . S
C560 C562 1.378 . S
C560 C564 1.350 . S
C561 C564 1.463 1_455 S
C561 C566 1.350 . S
C561 N569 1.427 . S
C562 H553 0.930 . S
C562 C560 1.378 . S
C562 C563 1.367 . S
C563 C562 1.367 . S
C563 C565 1.433 . S
C564 C560 1.350 . S
C564 C561 1.463 1_655 S
C564 N568 1.427 . S
C565 H555 0.929 . S
C565 C563 1.433 . S
C565 N568 1.384 . S
C566 H557 0.929 . S
C566 C558 1.378 . S
C566 C561 1.350 . S
C567 H554 0.929 . S
C567 C559 1.433 . S
C567 N569 1.384 . S
N568 C564 1.427 . S
N568 C565 1.384 . S
N569 C561 1.427 . S
N569 C567 1.384 . S
H570 C576 0.930 . S
H571 C580 0.930 . S
H572 C585 0.929 . S
H573 C583 0.929 . S
H574 C578 0.929 . S
H575 C584 0.929 . S
C576 H570 0.930 . S
C576 C577 1.367 . S
C576 C584 1.378 . S
C577 C576 1.367 . S
C577 C585 1.433 . S
C578 H574 0.929 . S
C578 C580 1.378 . S
C578 C582 1.350 . S
C579 C582 1.463 1_545 S
C579 C584 1.350 . S
C579 N587 1.427 . S
C580 H571 0.930 . S
C580 C578 1.378 . S
C580 C581 1.367 . S
C581 C580 1.367 . S
C581 C583 1.433 . S
C582 C578 1.350 . S
C582 C579 1.463 1_565 S
C582 N586 1.427 . S
C583 H573 0.929 . S
C583 C581 1.433 . S
C583 N586 1.384 . S
C584 H575 0.929 . S
C584 C576 1.378 . S
C584 C579 1.350 . S
C585 H572 0.929 . S
C585 C577 1.433 . S
C585 N587 1.384 . S
N586 C582 1.427 . S
N586 C583 1.384 . S
N587 C579 1.427 . S
N587 C585 1.384 . S
H588 C594 0.930 . S
H589 C598 0.930 . S
H590 C603 0.929 . S
H591 C601 0.929 . S
H592 C596 0.929 . S
H593 C602 0.929 . S
C594 H588 0.930 . S
C594 C595 1.367 . S
C594 C602 1.378 . S
C595 C594 1.367 . S
C595 C603 1.433 . S
C596 H592 0.929 . S
C596 C598 1.378 . S
C596 C600 1.350 . S
C597 C600 1.463 . S
C597 C602 1.350 . S
C597 N605 1.427 . S
C598 H589 0.930 . S
C598 C596 1.378 . S
C598 C599 1.367 . S
C599 C598 1.367 . S
C599 C601 1.433 . S
C600 C596 1.350 . S
C600 C597 1.463 . S
C600 N604 1.427 . S
C601 H591 0.929 . S
C601 C599 1.433 . S
C601 N604 1.384 . S
C602 H593 0.929 . S
C602 C594 1.378 . S
C602 C597 1.350 . S
C603 H590 0.929 . S
C603 C595 1.433 . S
C603 N605 1.384 . S
N604 C600 1.427 . S
N604 C601 1.384 . S
N605 C597 1.427 . S
N605 C603 1.384 . S
H606 C612 0.930 . S
H607 C616 0.930 . S
H608 C621 0.929 . S
H609 C619 0.929 . S
H610 C614 0.929 . S
H611 C620 0.929 . S
C612 H606 0.930 . S
C612 C613 1.367 . S
C612 C620 1.378 . S
C613 C612 1.367 . S
C613 C621 1.433 . S
C614 H610 0.929 . S
C614 C616 1.378 . S
C614 C618 1.350 . S
C615 C618 1.463 1_455 S
C615 C620 1.350 . S
C615 N623 1.427 . S
C616 H607 0.930 . S
C616 C614 1.378 . S
C616 C617 1.367 . S
C617 C616 1.367 . S
C617 C619 1.433 . S
C618 C614 1.350 . S
C618 C615 1.463 1_655 S
C618 N622 1.427 . S
C619 H609 0.929 . S
C619 C617 1.433 . S
C619 N622 1.384 . S
C620 H611 0.929 . S
C620 C612 1.378 . S
C620 C615 1.350 . S
C621 H608 0.929 . S
C621 C613 1.433 . S
C621 N623 1.384 . S
N622 C618 1.427 . S
N622 C619 1.384 . S
N623 C615 1.427 . S
N623 C621 1.384 . S
H624 C630 0.930 . S
H625 C634 0.930 . S
H626 C639 0.929 . S
H627 C637 0.929 . S
H628 C632 0.929 1_565 S
H629 C638 0.929 1_545 S
C630 H624 0.930 . S
C630 C631 1.379 . S
C630 C638 1.378 . S
C631 C630 1.379 . S
C631 C639 1.421 1_556 S
C632 H628 0.929 1_545 S
C632 C634 1.378 . S
C632 C636 1.350 . S
C633 C636 1.463 1_566 S
C633 C638 1.350 . S
C633 N641 1.427 1_556 S
C634 H625 0.930 . S
C634 C632 1.378 . S
C634 C635 1.383 . S
C635 C634 1.383 . S
C635 C637 1.417 1_554 S
C636 C632 1.350 . S
C636 C633 1.463 1_544 S
C636 N640 1.427 1_554 S
C637 H627 0.929 . S
C637 C635 1.417 1_556 S
C637 N640 1.384 . S
C638 H629 0.929 1_565 S
C638 C630 1.378 . S
C638 C633 1.350 . S
C639 H626 0.929 . S
C639 C631 1.421 1_554 S
C639 N641 1.384 . S
N640 C636 1.427 1_556 S
N640 C637 1.384 . S
N641 C633 1.427 1_554 S
N641 C639 1.384 . S
H642 C648 0.930 . S
H643 C652 0.930 . S
H644 C657 0.929 . S
H645 C655 0.929 . S
H646 C650 0.929 . S
H647 C656 0.929 . S
C648 H642 0.930 . S
C648 C649 1.378 . S
C648 C656 1.378 . S
C649 C648 1.378 . S
C649 C657 1.422 1_554 S
C650 H646 0.929 . S
C650 C652 1.378 . S
C650 C654 1.364 . S
C651 C654 1.462 1_554 S
C651 C656 1.350 . S
C651 N659 1.427 1_554 S
C652 H643 0.930 . S
C652 C650 1.378 . S
C652 C653 1.376 . S
C653 C652 1.376 . S
C653 C655 1.424 1_556 S
C654 C650 1.364 . S
C654 C651 1.462 1_556 S
C654 N658 1.413 1_556 S
C655 H645 0.929 . S
C655 C653 1.424 1_554 S
C655 N658 1.384 . S
C656 H647 0.929 . S
C656 C648 1.378 . S
C656 C651 1.350 . S
C657 H644 0.929 . S
C657 C649 1.422 1_556 S
C657 N659 1.384 . S
N658 C654 1.413 1_554 S
N658 C655 1.384 . S
N659 C651 1.427 1_556 S
N659 C657 1.384 . S
H660 C666 0.930 . S
H661 C670 0.930 . S
H662 C675 0.929 . S
H663 C673 0.929 . S
H664 C668 0.929 1_455 S
H665 C674 0.929 1_655 S
C666 H660 0.930 . S
C666 C667 1.378 . S
C666 C674 1.378 . S
C667 C666 1.378 . S
C667 C675 1.422 1_554 S
C668 H664 0.929 1_655 S
C668 C670 1.378 . S
C668 C672 1.364 . S
C669 C672 1.462 1_454 S
C669 C674 1.350 . S
C669 N677 1.427 1_554 S
C670 H661 0.930 . S
C670 C668 1.378 . S
C670 C671 1.375 . S
C671 C670 1.375 . S
C671 C673 1.425 1_556 S
C672 C668 1.364 . S
C672 C669 1.462 1_656 S
C672 N676 1.413 1_556 S
C673 H663 0.929 . S
C673 C671 1.425 1_554 S
C673 N676 1.384 . S
C674 H665 0.929 1_455 S
C674 C666 1.378 . S
C674 C669 1.350 . S
C675 H662 0.929 . S
C675 C667 1.422 1_556 S
C675 N677 1.384 . S
N676 C672 1.413 1_554 S
N676 C673 1.384 . S
N677 C669 1.427 1_556 S
N677 C675 1.384 . S
H678 C684 0.930 . S
H679 C688 0.930 . S
H680 C693 0.929 . S
H681 C691 0.929 . S
H682 C686 0.929 . S
H683 C692 0.929 . S
C684 H678 0.930 . S
C684 C685 1.367 . S
C684 C692 1.378 . S
C685 C684 1.367 . S
C685 C693 1.433 . S
C686 H682 0.929 . S
C686 C688 1.378 . S
C686 C690 1.350 . S
C687 C690 1.463 1_655 S
C687 C692 1.350 . S
C687 N695 1.427 . S
C688 H679 0.930 . S
C688 C686 1.378 . S
C688 C689 1.367 . S
C689 C688 1.367 . S
C689 C691 1.433 . S
C690 C686 1.350 . S
C690 C687 1.463 1_455 S
C690 N694 1.427 . S
C691 H681 0.929 . S
C691 C689 1.433 . S
C691 N694 1.384 . S
C692 H683 0.929 . S
C692 C684 1.378 . S
C692 C687 1.350 . S
C693 H680 0.929 . S
C693 C685 1.433 . S
C693 N695 1.384 . S
N694 C690 1.427 . S
N694 C691 1.384 . S
N695 C687 1.427 . S
N695 C693 1.384 . S
H696 C702 0.930 . S
H697 C706 0.930 . S
H698 C711 0.929 . S
H699 C709 0.929 . S
H700 C704 0.929 1_565 S
H701 C710 0.929 1_545 S
C702 H696 0.930 . S
C702 C703 1.367 . S
C702 C710 1.378 . S
C703 C702 1.367 . S
C703 C711 1.433 . S
C704 H700 0.929 1_545 S
C704 C706 1.378 . S
C704 C708 1.350 . S
C705 C708 1.463 1_565 S
C705 C710 1.350 . S
C705 N713 1.427 . S
C706 H697 0.930 . S
C706 C704 1.378 . S
C706 C707 1.367 . S
C707 C706 1.367 . S
C707 C709 1.433 . S
C708 C704 1.350 . S
C708 C705 1.463 1_545 S
C708 N712 1.427 . S
C709 H699 0.929 . S
C709 C707 1.433 . S
C709 N712 1.384 . S
C710 H701 0.929 1_565 S
C710 C702 1.378 . S
C710 C705 1.350 . S
C711 H698 0.929 . S
C711 C703 1.433 . S
C711 N713 1.384 . S
N712 C708 1.427 . S
N712 C709 1.384 . S
N713 C705 1.427 . S
N713 C711 1.384 . S
H714 C720 0.930 . S
H715 C724 0.930 . S
H716 C729 0.929 . S
H717 C727 0.929 . S
H718 C722 0.929 . S
H719 C728 0.929 . S
C720 H714 0.930 . S
C720 C721 1.367 . S
C720 C728 1.378 . S
C721 C720 1.367 . S
C721 C729 1.433 . S
C722 H718 0.929 . S
C722 C724 1.378 . S
C722 C726 1.350 . S
C723 C726 1.463 . S
C723 C728 1.350 . S
C723 N731 1.427 . S
C724 H715 0.930 . S
C724 C722 1.378 . S
C724 C725 1.367 . S
C725 C724 1.367 . S
C725 C727 1.433 . S
C726 C722 1.350 . S
C726 C723 1.463 . S
C726 N730 1.427 . S
C727 H717 0.929 . S
C727 C725 1.433 . S
C727 N730 1.384 . S
C728 H719 0.929 . S
C728 C720 1.378 . S
C728 C723 1.350 . S
C729 H716 0.929 . S
C729 C721 1.433 . S
C729 N731 1.384 . S
N730 C726 1.427 . S
N730 C727 1.384 . S
N731 C723 1.427 . S
N731 C729 1.384 . S
H732 C738 0.930 . S
H733 C742 0.930 . S
H734 C747 0.929 . S
H735 C745 0.929 . S
H736 C740 0.929 . S
H737 C746 0.929 . S
C738 H732 0.930 . S
C738 C739 1.367 . S
C738 C746 1.378 . S
C739 C738 1.367 . S
C739 C747 1.433 . S
C740 H736 0.929 . S
C740 C742 1.378 . S
C740 C744 1.350 . S
C741 C744 1.463 . S
C741 C746 1.350 . S
C741 N749 1.427 . S
C742 H733 0.930 . S
C742 C740 1.378 . S
C742 C743 1.367 . S
C743 C742 1.367 . S
C743 C745 1.433 . S
C744 C740 1.350 . S
C744 C741 1.463 . S
C744 N748 1.427 . S
C745 H735 0.929 . S
C745 C743 1.433 . S
C745 N748 1.384 . S
C746 H737 0.929 . S
C746 C738 1.378 . S
C746 C741 1.350 . S
C747 H734 0.929 . S
C747 C739 1.433 . S
C747 N749 1.384 . S
N748 C744 1.427 . S
N748 C745 1.384 . S
N749 C741 1.427 . S
N749 C747 1.384 . S
H750 C756 0.930 . S
H751 C760 0.930 . S
H752 C765 0.929 . S
H753 C763 0.929 . S
H754 C758 0.929 . S
H755 C764 0.929 . S
C756 H750 0.930 . S
C756 C757 1.367 . S
C756 C764 1.378 . S
C757 C756 1.367 . S
C757 C765 1.433 . S
C758 H754 0.929 . S
C758 C760 1.378 . S
C758 C762 1.350 . S
C759 C762 1.463 . S
C759 C764 1.350 . S
C759 N767 1.427 . S
C760 H751 0.930 . S
C760 C758 1.378 . S
C760 C761 1.367 . S
C761 C760 1.367 . S
C761 C763 1.433 . S
C762 C758 1.350 . S
C762 C759 1.463 . S
C762 N766 1.427 . S
C763 H753 0.929 . S
C763 C761 1.433 . S
C763 N766 1.384 . S
C764 H755 0.929 . S
C764 C756 1.378 . S
C764 C759 1.350 . S
C765 H752 0.929 . S
C765 C757 1.433 . S
C765 N767 1.384 . S
N766 C762 1.427 . S
N766 C763 1.384 . S
N767 C759 1.427 . S
N767 C765 1.384 . S
H768 C774 0.930 . S
H769 C778 0.930 . S
H770 C783 0.929 . S
H771 C781 0.929 . S
H772 C776 0.929 . S
H773 C782 0.929 . S
C774 H768 0.930 . S
C774 C775 1.367 . S
C774 C782 1.378 . S
C775 C774 1.367 . S
C775 C783 1.433 . S
C776 H772 0.929 . S
C776 C778 1.378 . S
C776 C780 1.350 . S
C777 C780 1.463 . S
C777 C782 1.350 . S
C777 N785 1.427 . S
C778 H769 0.930 . S
C778 C776 1.378 . S
C778 C779 1.367 . S
C779 C778 1.367 . S
C779 C781 1.433 . S
C780 C776 1.350 . S
C780 C777 1.463 . S
C780 N784 1.427 . S
C781 H771 0.929 . S
C781 C779 1.433 . S
C781 N784 1.384 . S
C782 H773 0.929 . S
C782 C774 1.378 . S
C782 C777 1.350 . S
C783 H770 0.929 . S
C783 C775 1.433 . S
C783 N785 1.384 . S
N784 C780 1.427 . S
N784 C781 1.384 . S
N785 C777 1.427 . S
N785 C783 1.384 . S
H786 C792 0.930 . S
H787 C796 0.930 . S
H788 C801 0.929 . S
H789 C799 0.929 . S
H790 C794 0.929 . S
H791 C800 0.929 . S
C792 H786 0.930 . S
C792 C793 1.367 . S
C792 C800 1.378 . S
C793 C792 1.367 . S
C793 C801 1.433 . S
C794 H790 0.929 . S
C794 C796 1.378 . S
C794 C798 1.350 . S
C795 C798 1.463 . S
C795 C800 1.350 . S
C795 N803 1.427 . S
C796 H787 0.930 . S
C796 C794 1.378 . S
C796 C797 1.367 . S
C797 C796 1.367 . S
C797 C799 1.433 . S
C798 C794 1.350 . S
C798 C795 1.463 . S
C798 N802 1.427 . S
C799 H789 0.929 . S
C799 C797 1.433 . S
C799 N802 1.384 . S
C800 H791 0.929 . S
C800 C792 1.378 . S
C800 C795 1.350 . S
C801 H788 0.929 . S
C801 C793 1.433 . S
C801 N803 1.384 . S
N802 C798 1.427 . S
N802 C799 1.384 . S
N803 C795 1.427 . S
N803 C801 1.384 . S
H804 C810 0.930 . S
H805 C814 0.930 . S
H806 C819 0.929 . S
H807 C817 0.929 . S
H808 C812 0.929 . S
H809 C818 0.929 . S
C810 H804 0.930 . S
C810 C811 1.367 . S
C810 C818 1.378 . S
C811 C810 1.367 . S
C811 C819 1.433 . S
C812 H808 0.929 . S
C812 C814 1.378 . S
C812 C816 1.350 . S
C813 C816 1.463 . S
C813 C818 1.350 . S
C813 N821 1.427 . S
C814 H805 0.930 . S
C814 C812 1.378 . S
C814 C815 1.367 . S
C815 C814 1.367 . S
C815 C817 1.433 . S
C816 C812 1.350 . S
C816 C813 1.463 . S
C816 N820 1.427 . S
C817 H807 0.929 . S
C817 C815 1.433 . S
C817 N820 1.384 . S
C818 H809 0.929 . S
C818 C810 1.378 . S
C818 C813 1.350 . S
C819 H806 0.929 . S
C819 C811 1.433 . S
C819 N821 1.384 . S
N820 C816 1.427 . S
N820 C817 1.384 . S
N821 C813 1.427 . S
N821 C819 1.384 . S
H822 C828 0.930 . S
H823 C832 0.930 . S
H824 C837 0.929 . S
H825 C835 0.929 . S
H826 C830 0.929 . S
H827 C836 0.929 . S
C828 H822 0.930 . S
C828 C829 1.367 . S
C828 C836 1.378 . S
C829 C828 1.367 . S
C829 C837 1.433 . S
C830 H826 0.929 . S
C830 C832 1.378 . S
C830 C834 1.350 . S
C831 C834 1.463 . S
C831 C836 1.350 . S
C831 N839 1.427 . S
C832 H823 0.930 . S
C832 C830 1.378 . S
C832 C833 1.367 . S
C833 C832 1.367 . S
C833 C835 1.433 . S
C834 C830 1.350 . S
C834 C831 1.463 . S
C834 N838 1.427 . S
C835 H825 0.929 . S
C835 C833 1.433 . S
C835 N838 1.384 . S
C836 H827 0.929 . S
C836 C828 1.378 . S
C836 C831 1.350 . S
C837 H824 0.929 . S
C837 C829 1.433 . S
C837 N839 1.384 . S
N838 C834 1.427 . S
N838 C835 1.384 . S
N839 C831 1.427 . S
N839 C837 1.384 . S
H840 C846 0.930 . S
H841 C850 0.930 . S
H842 C855 0.929 . S
H843 C853 0.929 . S
H844 C848 0.929 . S
H845 C854 0.929 . S
C846 H840 0.930 . S
C846 C847 1.367 . S
C846 C854 1.378 . S
C847 C846 1.367 . S
C847 C855 1.433 . S
C848 H844 0.929 . S
C848 C850 1.378 . S
C848 C852 1.350 . S
C849 C852 1.463 . S
C849 C854 1.350 . S
C849 N857 1.427 . S
C850 H841 0.930 . S
C850 C848 1.378 . S
C850 C851 1.367 . S
C851 C850 1.367 . S
C851 C853 1.433 . S
C852 C848 1.350 . S
C852 C849 1.463 . S
C852 N856 1.427 . S
C853 H843 0.929 . S
C853 C851 1.433 . S
C853 N856 1.384 . S
C854 H845 0.929 . S
C854 C846 1.378 . S
C854 C849 1.350 . S
C855 H842 0.929 . S
C855 C847 1.433 . S
C855 N857 1.384 . S
N856 C852 1.427 . S
N856 C853 1.384 . S
N857 C849 1.427 . S
N857 C855 1.384 . S
H858 C864 0.930 . S
H859 C868 0.930 . S
H860 C873 0.929 . S
H861 C871 0.929 . S
H862 C866 0.929 . S
H863 C872 0.929 . S
C864 H858 0.930 . S
C864 C865 1.367 . S
C864 C872 1.378 . S
C865 C864 1.367 . S
C865 C873 1.433 . S
C866 H862 0.929 . S
C866 C868 1.378 . S
C866 C870 1.350 . S
C867 C870 1.463 . S
C867 C872 1.350 . S
C867 N875 1.427 . S
C868 H859 0.930 . S
C868 C866 1.378 . S
C868 C869 1.367 . S
C869 C868 1.367 . S
C869 C871 1.433 . S
C870 C866 1.350 . S
C870 C867 1.463 . S
C870 N874 1.427 . S
C871 H861 0.929 . S
C871 C869 1.433 . S
C871 N874 1.384 . S
C872 H863 0.929 . S
C872 C864 1.378 . S
C872 C867 1.350 . S
C873 H860 0.929 . S
C873 C865 1.433 . S
C873 N875 1.384 . S
N874 C870 1.427 . S
N874 C871 1.384 . S
N875 C867 1.427 . S
N875 C873 1.384 . S
H876 C882 0.930 . S
H877 C886 0.930 . S
H878 C891 0.929 . S
H879 C889 0.929 . S
H880 C884 0.929 . S
H881 C890 0.929 . S
C882 H876 0.930 . S
C882 C883 1.367 . S
C882 C890 1.378 . S
C883 C882 1.367 . S
C883 C891 1.433 . S
C884 H880 0.929 . S
C884 C886 1.378 . S
C884 C888 1.350 . S
C885 C888 1.463 . S
C885 C890 1.350 . S
C885 N893 1.427 . S
C886 H877 0.930 . S
C886 C884 1.378 . S
C886 C887 1.367 . S
C887 C886 1.367 . S
C887 C889 1.433 . S
C888 C884 1.350 . S
C888 C885 1.463 . S
C888 N892 1.427 . S
C889 H879 0.929 . S
C889 C887 1.433 . S
C889 N892 1.384 . S
C890 H881 0.929 . S
C890 C882 1.378 . S
C890 C885 1.350 . S
C891 H878 0.929 . S
C891 C883 1.433 . S
C891 N893 1.384 . S
N892 C888 1.427 . S
N892 C889 1.384 . S
N893 C885 1.427 . S
N893 C891 1.384 . S
H894 C900 0.930 . S
H895 C904 0.930 . S
H896 C909 0.929 . S
H897 C907 0.929 . S
H898 C902 0.929 . S
H899 C908 0.929 . S
C900 H894 0.930 . S
C900 C901 1.367 . S
C900 C908 1.378 . S
C901 C900 1.367 . S
C901 C909 1.433 . S
C902 H898 0.929 . S
C902 C904 1.378 . S
C902 C906 1.350 . S
C903 C906 1.463 . S
C903 C908 1.350 . S
C903 N911 1.427 . S
C904 H895 0.930 . S
C904 C902 1.378 . S
C904 C905 1.367 . S
C905 C904 1.367 . S
C905 C907 1.433 . S
C906 C902 1.350 . S
C906 C903 1.463 . S
C906 N910 1.427 . S
C907 H897 0.929 . S
C907 C905 1.433 . S
C907 N910 1.384 . S
C908 H899 0.929 . S
C908 C900 1.378 . S
C908 C903 1.350 . S
C909 H896 0.929 . S
C909 C901 1.433 . S
C909 N911 1.384 . S
N910 C906 1.427 . S
N910 C907 1.384 . S
N911 C903 1.427 . S
N911 C909 1.384 . S
H912 C918 0.930 . S
H913 C922 0.930 . S
H914 C927 0.929 . S
H915 C925 0.929 . S
H916 C920 0.929 . S
H917 C926 0.929 . S
C918 H912 0.930 . S
C918 C919 1.367 . S
C918 C926 1.378 . S
C919 C918 1.367 . S
C919 C927 1.433 . S
C920 H916 0.929 . S
C920 C922 1.378 . S
C920 C924 1.350 . S
C921 C924 1.463 . S
C921 C926 1.350 . S
C921 N929 1.427 . S
C922 H913 0.930 . S
C922 C920 1.378 . S
C922 C923 1.367 . S
C923 C922 1.367 . S
C923 C925 1.433 . S
C924 C920 1.350 . S
C924 C921 1.463 . S
C924 N928 1.427 . S
C925 H915 0.929 . S
C925 C923 1.433 . S
C925 N928 1.384 . S
C926 H917 0.929 . S
C926 C918 1.378 . S
C926 C921 1.350 . S
C927 H914 0.929 . S
C927 C919 1.433 . S
C927 N929 1.384 . S
N928 C924 1.427 . S
N928 C925 1.384 . S
N929 C921 1.427 . S
N929 C927 1.384 . S
H930 C936 0.930 . S
H931 C940 0.930 . S
H932 C945 0.929 . S
H933 C943 0.929 . S
H934 C938 0.929 . S
H935 C944 0.929 . S
C936 H930 0.930 . S
C936 C937 1.367 . S
C936 C944 1.378 . S
C937 C936 1.367 . S
C937 C945 1.433 . S
C938 H934 0.929 . S
C938 C940 1.378 . S
C938 C942 1.350 . S
C939 C942 1.463 . S
C939 C944 1.350 . S
C939 N947 1.427 . S
C940 H931 0.930 . S
C940 C938 1.378 . S
C940 C941 1.367 . S
C941 C940 1.367 . S
C941 C943 1.433 . S
C942 C938 1.350 . S
C942 C939 1.463 . S
C942 N946 1.427 . S
C943 H933 0.929 . S
C943 C941 1.433 . S
C943 N946 1.384 . S
C944 H935 0.929 . S
C944 C936 1.378 . S
C944 C939 1.350 . S
C945 H932 0.929 . S
C945 C937 1.433 . S
C945 N947 1.384 . S
N946 C942 1.427 . S
N946 C943 1.384 . S
N947 C939 1.427 . S
N947 C945 1.384 . S
H948 C954 0.930 . S
H949 C958 0.930 . S
H950 C963 0.929 . S
H951 C961 0.929 . S
H952 C956 0.929 . S
H953 C962 0.929 . S
C954 H948 0.930 . S
C954 C955 1.367 . S
C954 C962 1.378 . S
C955 C954 1.367 . S
C955 C963 1.433 . S
C956 H952 0.929 . S
C956 C958 1.378 . S
C956 C960 1.350 . S
C957 C960 1.463 . S
C957 C962 1.350 . S
C957 N965 1.427 . S
C958 H949 0.930 . S
C958 C956 1.378 . S
C958 C959 1.367 . S
C959 C958 1.367 . S
C959 C961 1.433 . S
C960 C956 1.350 . S
C960 C957 1.463 . S
C960 N964 1.427 . S
C961 H951 0.929 . S
C961 C959 1.433 . S
C961 N964 1.384 . S
C962 H953 0.929 . S
C962 C954 1.378 . S
C962 C957 1.350 . S
C963 H950 0.929 . S
C963 C955 1.433 . S
C963 N965 1.384 . S
N964 C960 1.427 . S
N964 C961 1.384 . S
N965 C957 1.427 . S
N965 C963 1.384 . S
H966 C972 0.930 . S
H967 C976 0.930 . S
H968 C981 0.929 . S
H969 C979 0.929 . S
H970 C974 0.929 . S
H971 C980 0.929 . S
C972 H966 0.930 . S
C972 C973 1.367 . S
C972 C980 1.378 . S
C973 C972 1.367 . S
C973 C981 1.433 . S
C974 H970 0.929 . S
C974 C976 1.378 . S
C974 C978 1.350 . S
C975 C978 1.463 . S
C975 C980 1.350 . S
C975 N983 1.427 . S
C976 H967 0.930 . S
C976 C974 1.378 . S
C976 C977 1.367 . S
C977 C976 1.367 . S
C977 C979 1.433 . S
C978 C974 1.350 . S
C978 C975 1.463 . S
C978 N982 1.427 . S
C979 H969 0.929 . S
C979 C977 1.433 . S
C979 N982 1.384 . S
C980 H971 0.929 . S
C980 C972 1.378 . S
C980 C975 1.350 . S
C981 H968 0.929 . S
C981 C973 1.433 . S
C981 N983 1.384 . S
N982 C978 1.427 . S
N982 C979 1.384 . S
N983 C975 1.427 . S
N983 C981 1.384 . S
H984 C990 0.930 . S
H985 C994 0.930 . S
H986 C999 0.929 . S
H987 C997 0.929 . S
H988 C992 0.929 . S
H989 C998 0.929 . S
C990 H984 0.930 . S
C990 C991 1.367 . S
C990 C998 1.378 . S
C991 C990 1.367 . S
C991 C999 1.433 . S
C992 H988 0.929 . S
C992 C994 1.378 . S
C992 C996 1.350 . S
C993 C996 1.463 . S
C993 C998 1.350 . S
C993 N1001 1.427 . S
C994 H985 0.930 . S
C994 C992 1.378 . S
C994 C995 1.367 . S
C995 C994 1.367 . S
C995 C997 1.433 . S
C996 C992 1.350 . S
C996 C993 1.463 . S
C996 N1000 1.427 . S
C997 H987 0.929 . S
C997 C995 1.433 . S
C997 N1000 1.384 . S
C998 H989 0.929 . S
C998 C990 1.378 . S
C998 C993 1.350 . S
C999 H986 0.929 . S
C999 C991 1.433 . S
C999 N1001 1.384 . S
N1000 C996 1.427 . S
N1000 C997 1.384 . S
N1001 C993 1.427 . S
N1001 C999 1.384 . S
H1002 C1008 0.930 . S
H1003 C1012 0.930 . S
H1004 C1017 0.929 . S
H1005 C1015 0.929 . S
H1006 C1010 0.929 . S
H1007 C1016 0.929 . S
C1008 H1002 0.930 . S
C1008 C1009 1.367 . S
C1008 C1016 1.378 . S
C1009 C1008 1.367 . S
C1009 C1017 1.433 . S
C1010 H1006 0.929 . S
C1010 C1012 1.378 . S
C1010 C1014 1.350 . S
C1011 C1014 1.463 . S
C1011 C1016 1.350 . S
C1011 N1019 1.427 . S
C1012 H1003 0.930 . S
C1012 C1010 1.378 . S
C1012 C1013 1.367 . S
C1013 C1012 1.367 . S
C1013 C1015 1.433 . S
C1014 C1010 1.350 . S
C1014 C1011 1.463 . S
C1014 N1018 1.427 . S
C1015 H1005 0.929 . S
C1015 C1013 1.433 . S
C1015 N1018 1.384 . S
C1016 H1007 0.929 . S
C1016 C1008 1.378 . S
C1016 C1011 1.350 . S
C1017 H1004 0.929 . S
C1017 C1009 1.433 . S
C1017 N1019 1.384 . S
N1018 C1014 1.427 . S
N1018 C1015 1.384 . S
N1019 C1011 1.427 . S
N1019 C1017 1.384 . S
H1020 C1026 0.930 . S
H1021 C1030 0.930 . S
H1022 C1035 0.929 . S
H1023 C1033 0.929 . S
H1024 C1028 0.929 . S
H1025 C1034 0.929 . S
C1026 H1020 0.930 . S
C1026 C1027 1.367 . S
C1026 C1034 1.378 . S
C1027 C1026 1.367 . S
C1027 C1035 1.433 . S
C1028 H1024 0.929 . S
C1028 C1030 1.378 . S
C1028 C1032 1.350 . S
C1029 C1032 1.463 . S
C1029 C1034 1.350 . S
C1029 N1037 1.427 . S
C1030 H1021 0.930 . S
C1030 C1028 1.378 . S
C1030 C1031 1.367 . S
C1031 C1030 1.367 . S
C1031 C1033 1.433 . S
C1032 C1028 1.350 . S
C1032 C1029 1.463 . S
C1032 N1036 1.427 . S
C1033 H1023 0.929 . S
C1033 C1031 1.433 . S
C1033 N1036 1.384 . S
C1034 H1025 0.929 . S
C1034 C1026 1.378 . S
C1034 C1029 1.350 . S
C1035 H1022 0.929 . S
C1035 C1027 1.433 . S
C1035 N1037 1.384 . S
N1036 C1032 1.427 . S
N1036 C1033 1.384 . S
N1037 C1029 1.427 . S
N1037 C1035 1.384 . S
H1038 C1044 0.930 . S
H1039 C1048 0.930 . S
H1040 C1053 0.929 . S
H1041 C1051 0.929 . S
H1042 C1046 0.929 . S
H1043 C1052 0.929 . S
C1044 H1038 0.930 . S
C1044 C1045 1.367 . S
C1044 C1052 1.378 . S
C1045 C1044 1.367 . S
C1045 C1053 1.433 . S
C1046 H1042 0.929 . S
C1046 C1048 1.378 . S
C1046 C1050 1.350 . S
C1047 C1050 1.463 . S
C1047 C1052 1.350 . S
C1047 N1055 1.427 . S
C1048 H1039 0.930 . S
C1048 C1046 1.378 . S
C1048 C1049 1.367 . S
C1049 C1048 1.367 . S
C1049 C1051 1.433 . S
C1050 C1046 1.350 . S
C1050 C1047 1.463 . S
C1050 N1054 1.427 . S
C1051 H1041 0.929 . S
C1051 C1049 1.433 . S
C1051 N1054 1.384 . S
C1052 H1043 0.929 . S
C1052 C1044 1.378 . S
C1052 C1047 1.350 . S
C1053 H1040 0.929 . S
C1053 C1045 1.433 . S
C1053 N1055 1.384 . S
N1054 C1050 1.427 . S
N1054 C1051 1.384 . S
N1055 C1047 1.427 . S
N1055 C1053 1.384 . S
H1056 C1062 0.930 . S
H1057 C1066 0.930 . S
H1058 C1071 0.929 . S
H1059 C1069 0.929 . S
H1060 C1064 0.929 . S
H1061 C1070 0.929 . S
C1062 H1056 0.930 . S
C1062 C1063 1.367 . S
C1062 C1070 1.378 . S
C1063 C1062 1.367 . S
C1063 C1071 1.433 . S
C1064 H1060 0.929 . S
C1064 C1066 1.378 . S
C1064 C1068 1.350 . S
C1065 C1068 1.463 . S
C1065 C1070 1.350 . S
C1065 N1073 1.427 . S
C1066 H1057 0.930 . S
C1066 C1064 1.378 . S
C1066 C1067 1.367 . S
C1067 C1066 1.367 . S
C1067 C1069 1.433 . S
C1068 C1064 1.350 . S
C1068 C1065 1.463 . S
C1068 N1072 1.427 . S
C1069 H1059 0.929 . S
C1069 C1067 1.433 . S
C1069 N1072 1.384 . S
C1070 H1061 0.929 . S
C1070 C1062 1.378 . S
C1070 C1065 1.350 . S
C1071 H1058 0.929 . S
C1071 C1063 1.433 . S
C1071 N1073 1.384 . S
N1072 C1068 1.427 . S
N1072 C1069 1.384 . S
N1073 C1065 1.427 . S
N1073 C1071 1.384 . S
H1074 C1080 0.930 . S
H1075 C1084 0.930 . S
H1076 C1089 0.929 . S
H1077 C1087 0.929 . S
H1078 C1082 0.929 . S
H1079 C1088 0.929 . S
C1080 H1074 0.930 . S
C1080 C1081 1.367 . S
C1080 C1088 1.378 . S
C1081 C1080 1.367 . S
C1081 C1089 1.433 . S
C1082 H1078 0.929 . S
C1082 C1084 1.378 . S
C1082 C1086 1.350 . S
C1083 C1086 1.463 . S
C1083 C1088 1.350 . S
C1083 N1091 1.427 . S
C1084 H1075 0.930 . S
C1084 C1082 1.378 . S
C1084 C1085 1.367 . S
C1085 C1084 1.367 . S
C1085 C1087 1.433 . S
C1086 C1082 1.350 . S
C1086 C1083 1.463 . S
C1086 N1090 1.427 . S
C1087 H1077 0.929 . S
C1087 C1085 1.433 . S
C1087 N1090 1.384 . S
C1088 H1079 0.929 . S
C1088 C1080 1.378 . S
C1088 C1083 1.350 . S
C1089 H1076 0.929 . S
C1089 C1081 1.433 . S
C1089 N1091 1.384 . S
N1090 C1086 1.427 . S
N1090 C1087 1.384 . S
N1091 C1083 1.427 . S
N1091 C1089 1.384 . S
H1092 C1098 0.930 . S
H1093 C1102 0.930 . S
H1094 C1107 0.929 . S
H1095 C1105 0.929 . S
H1096 C1100 0.929 . S
H1097 C1106 0.929 . S
C1098 H1092 0.930 . S
C1098 C1099 1.367 . S
C1098 C1106 1.378 . S
C1099 C1098 1.367 . S
C1099 C1107 1.433 . S
C1100 H1096 0.929 . S
C1100 C1102 1.378 . S
C1100 C1104 1.350 . S
C1101 C1104 1.463 . S
C1101 C1106 1.350 . S
C1101 N1109 1.427 . S
C1102 H1093 0.930 . S
C1102 C1100 1.378 . S
C1102 C1103 1.367 . S
C1103 C1102 1.367 . S
C1103 C1105 1.433 . S
C1104 C1100 1.350 . S
C1104 C1101 1.463 . S
C1104 N1108 1.427 . S
C1105 H1095 0.929 . S
C1105 C1103 1.433 . S
C1105 N1108 1.384 . S
C1106 H1097 0.929 . S
C1106 C1098 1.378 . S
C1106 C1101 1.350 . S
C1107 H1094 0.929 . S
C1107 C1099 1.433 . S
C1107 N1109 1.384 . S
N1108 C1104 1.427 . S
N1108 C1105 1.384 . S
N1109 C1101 1.427 . S
N1109 C1107 1.384 . S
H1110 C1116 0.930 . S
H1111 C1120 0.930 . S
H1112 C1125 0.929 . S
H1113 C1123 0.929 . S
H1114 C1118 0.929 . S
H1115 C1124 0.929 . S
C1116 H1110 0.930 . S
C1116 C1117 1.367 . S
C1116 C1124 1.378 . S
C1117 C1116 1.367 . S
C1117 C1125 1.433 . S
C1118 H1114 0.929 . S
C1118 C1120 1.378 . S
C1118 C1122 1.350 . S
C1119 C1122 1.463 . S
C1119 C1124 1.350 . S
C1119 N1127 1.427 . S
C1120 H1111 0.930 . S
C1120 C1118 1.378 . S
C1120 C1121 1.367 . S
C1121 C1120 1.367 . S
C1121 C1123 1.433 . S
C1122 C1118 1.350 . S
C1122 C1119 1.463 . S
C1122 N1126 1.427 . S
C1123 H1113 0.929 . S
C1123 C1121 1.433 . S
C1123 N1126 1.384 . S
C1124 H1115 0.929 . S
C1124 C1116 1.378 . S
C1124 C1119 1.350 . S
C1125 H1112 0.929 . S
C1125 C1117 1.433 . S
C1125 N1127 1.384 . S
N1126 C1122 1.427 . S
N1126 C1123 1.384 . S
N1127 C1119 1.427 . S
N1127 C1125 1.384 . S
H1128 C1134 0.930 . S
H1129 C1138 0.930 . S
H1130 C1143 0.929 . S
H1131 C1141 0.929 . S
H1132 C1136 0.929 . S
H1133 C1142 0.929 . S
C1134 H1128 0.930 . S
C1134 C1135 1.367 . S
C1134 C1142 1.378 . S
C1135 C1134 1.367 . S
C1135 C1143 1.433 . S
C1136 H1132 0.929 . S
C1136 C1138 1.378 . S
C1136 C1140 1.350 . S
C1137 C1140 1.463 . S
C1137 C1142 1.350 . S
C1137 N1145 1.427 . S
C1138 H1129 0.930 . S
C1138 C1136 1.378 . S
C1138 C1139 1.367 . S
C1139 C1138 1.367 . S
C1139 C1141 1.433 . S
C1140 C1136 1.350 . S
C1140 C1137 1.463 . S
C1140 N1144 1.427 . S
C1141 H1131 0.929 . S
C1141 C1139 1.433 . S
C1141 N1144 1.384 . S
C1142 H1133 0.929 . S
C1142 C1134 1.378 . S
C1142 C1137 1.350 . S
C1143 H1130 0.929 . S
C1143 C1135 1.433 . S
C1143 N1145 1.384 . S
N1144 C1140 1.427 . S
N1144 C1141 1.384 . S
N1145 C1137 1.427 . S
N1145 C1143 1.384 . S
H1146 C1152 0.930 . S
H1147 C1156 0.930 . S
H1148 C1161 0.929 . S
H1149 C1159 0.929 . S
H1150 C1154 0.929 . S
H1151 C1160 0.929 . S
C1152 H1146 0.930 . S
C1152 C1153 1.367 . S
C1152 C1160 1.378 . S
C1153 C1152 1.367 . S
C1153 C1161 1.433 . S
C1154 H1150 0.929 . S
C1154 C1156 1.378 . S
C1154 C1158 1.350 . S
C1155 C1158 1.463 . S
C1155 C1160 1.350 . S
C1155 N1163 1.427 . S
C1156 H1147 0.930 . S
C1156 C1154 1.378 . S
C1156 C1157 1.367 . S
C1157 C1156 1.367 . S
C1157 C1159 1.433 . S
C1158 C1154 1.350 . S
C1158 C1155 1.463 . S
C1158 N1162 1.427 . S
C1159 H1149 0.929 . S
C1159 C1157 1.433 . S
C1159 N1162 1.384 . S
C1160 H1151 0.929 . S
C1160 C1152 1.378 . S
C1160 C1155 1.350 . S
C1161 H1148 0.929 . S
C1161 C1153 1.433 . S
C1161 N1163 1.384 . S
N1162 C1158 1.427 . S
N1162 C1159 1.384 . S
N1163 C1155 1.427 . S
N1163 C1161 1.384 . S
C415 C6 1.027 . S
C419 C266 1.029 . S
C433 C40 1.025 . S
C437 C278 1.013 . S
C451 C334 1.023 . S
C455 C74 1.014 . S
C469 C130 1.030 . S
C473 C346 1.027 . S
C487 C142 1.032 . S
C491 C402 1.023 . S
C505 C232 1.033 . S
C509 C198 1.015 . S
C523 C355 0.494 . S
C527 C124 0.490 . S
C541 C151 0.502 . S
C545 C396 0.513 . S
C559 C192 0.538 . S
C563 C226 0.541 . S
C577 C15 0.539 . S
C581 C260 0.536 . S
C595 C287 0.492 . S
C599 C49 0.500 . S
C613 C328 0.515 . S
C617 C83 0.526 . S
C631 C119 1.185 1_556 S
C635 C17 1.185 . S
C649 C51 1.180 . S
C653 C153 1.180 1_556 S
C667 C187 1.185 . S
C671 C85 1.185 1_556 S
C685 C221 1.182 . S
C689 C323 1.182 . S
C703 C255 1.186 . S
C707 C357 1.186 . S
C721 C391 1.180 . S
C725 C289 1.180 . S
C739 C22 0.509 . S
C743 C362 0.501 . S
C757 C56 0.493 . S
C761 C389 0.500 . S
C775 C90 0.473 . S
C779 C219 0.473 . S
C793 C253 0.486 . S
C797 C117 0.492 . S
C811 C294 0.519 . S
C815 C158 0.522 . S
C829 C185 0.523 . S
C833 C321 0.524 . S
C847 C244 1.081 . S
C851 C108 1.091 . S
C865 C300 1.084 . S
C869 C164 1.085 . S
C883 C312 1.081 . S
C887 C176 1.094 . S
C901 C368 1.088 . S
C905 C28 1.097 . S
C919 C380 1.091 . S
C923 C62 1.083 . S
C937 C96 1.082 . S
C941 C210 1.096 . S
C955 C1 2.963 . S
C959 C273 2.958 . S
C973 C309 2.959 . S
C977 C35 2.958 . S
C991 C341 2.961 . S
C995 C69 2.957 . S
C1009 C105 2.963 . S
C1013 C377 2.959 . S
C1027 C207 2.963 . S
C1031 C137 2.959 . S
C1045 C173 2.963 . S
C1049 C241 2.957 . S
C1063 C375 2.936 . S
C1067 C103 2.939 . S
C1081 C205 2.935 . S
C1085 C139 2.938 . S
C1099 C239 2.935 . S
C1103 C171 2.937 . S
C1117 C275 2.935 . S
C1121 C3 2.939 . S
C1135 C307 2.935 . S
C1139 C37 2.937 . S
C1153 C343 2.935 . S
C1157 C71 2.937 . S
