# Generated by pormake.
# Topology pcb, (4)-cn, num edge types: 1
# Building blocks:
#     Node 0, Type 0, BuildingBlock: TATPOV_clean_sbu_0, # of connection points: 4
#     Node 1, Type 0, BuildingBlock: TATPOV_clean_sbu_0, # of connection points: 4
#     Node 2, Type 0, BuildingBlock: TATPOV_clean_sbu_0, # of connection points: 4
#     Node 3, Type 0, BuildingBlock: TATPOV_clean_sbu_0, # of connection points: 4
#     Node 4, Type 0, BuildingBlock: TATPOV_clean_sbu_0, # of connection points: 4
#     Node 5, Type 0, BuildingBlock: TATPOV_clean_sbu_0, # of connection points: 4
#     Node 6, Type 0, BuildingBlock: TATPOV_clean_sbu_0, # of connection points: 4
#     Node 7, Type 0, BuildingBlock: TATPOV_clean_sbu_0, # of connection points: 4
#     Node 8, Type 0, BuildingBlock: TATPOV_clean_sbu_0, # of connection points: 4
#     Node 9, Type 0, BuildingBlock: TATPOV_clean_sbu_0, # of connection points: 4
#     Node 10, Type 0, BuildingBlock: TATPOV_clean_sbu_0, # of connection points: 4
#     Node 11, Type 0, BuildingBlock: TATPOV_clean_sbu_0, # of connection points: 4
#     Node 12, Type 0, BuildingBlock: TATPOV_clean_sbu_0, # of connection points: 4
#     Node 13, Type 0, BuildingBlock: TATPOV_clean_sbu_0, # of connection points: 4
#     Node 14, Type 0, BuildingBlock: TATPOV_clean_sbu_0, # of connection points: 4
#     Node 15, Type 0, BuildingBlock: TATPOV_clean_sbu_0, # of connection points: 4
#     Edge 16, Type (0, 0), BuildingBlock: XIVTED_clean_linker_0, # of connection points: 2
#     Edge 17, Type (0, 0), BuildingBlock: XIVTED_clean_linker_0, # of connection points: 2
#     Edge 18, Type (0, 0), BuildingBlock: XIVTED_clean_linker_0, # of connection points: 2
#     Edge 19, Type (0, 0), BuildingBlock: XIVTED_clean_linker_0, # of connection points: 2
#     Edge 20, Type (0, 0), BuildingBlock: XIVTED_clean_linker_0, # of connection points: 2
#     Edge 21, Type (0, 0), BuildingBlock: XIVTED_clean_linker_0, # of connection points: 2
#     Edge 22, Type (0, 0), BuildingBlock: XIVTED_clean_linker_0, # of connection points: 2
#     Edge 23, Type (0, 0), BuildingBlock: XIVTED_clean_linker_0, # of connection points: 2
#     Edge 24, Type (0, 0), BuildingBlock: XIVTED_clean_linker_0, # of connection points: 2
#     Edge 25, Type (0, 0), BuildingBlock: XIVTED_clean_linker_0, # of connection points: 2
#     Edge 26, Type (0, 0), BuildingBlock: XIVTED_clean_linker_0, # of connection points: 2
#     Edge 27, Type (0, 0), BuildingBlock: XIVTED_clean_linker_0, # of connection points: 2
#     Edge 28, Type (0, 0), BuildingBlock: XIVTED_clean_linker_0, # of connection points: 2
#     Edge 29, Type (0, 0), BuildingBlock: XIVTED_clean_linker_0, # of connection points: 2
#     Edge 30, Type (0, 0), BuildingBlock: XIVTED_clean_linker_0, # of connection points: 2
#     Edge 31, Type (0, 0), BuildingBlock: XIVTED_clean_linker_0, # of connection points: 2
#     Edge 32, Type (0, 0), BuildingBlock: XIVTED_clean_linker_0, # of connection points: 2
#     Edge 33, Type (0, 0), BuildingBlock: XIVTED_clean_linker_0, # of connection points: 2
#     Edge 34, Type (0, 0), BuildingBlock: XIVTED_clean_linker_0, # of connection points: 2
#     Edge 35, Type (0, 0), BuildingBlock: XIVTED_clean_linker_0, # of connection points: 2
#     Edge 36, Type (0, 0), BuildingBlock: XIVTED_clean_linker_0, # of connection points: 2
#     Edge 37, Type (0, 0), BuildingBlock: XIVTED_clean_linker_0, # of connection points: 2
#     Edge 38, Type (0, 0), BuildingBlock: XIVTED_clean_linker_0, # of connection points: 2
#     Edge 39, Type (0, 0), BuildingBlock: XIVTED_clean_linker_0, # of connection points: 2
#     Edge 40, Type (0, 0), BuildingBlock: XIVTED_clean_linker_0, # of connection points: 2
#     Edge 41, Type (0, 0), BuildingBlock: XIVTED_clean_linker_0, # of connection points: 2
#     Edge 42, Type (0, 0), BuildingBlock: XIVTED_clean_linker_0, # of connection points: 2
#     Edge 43, Type (0, 0), BuildingBlock: XIVTED_clean_linker_0, # of connection points: 2
#     Edge 44, Type (0, 0), BuildingBlock: XIVTED_clean_linker_0, # of connection points: 2
#     Edge 45, Type (0, 0), BuildingBlock: XIVTED_clean_linker_0, # of connection points: 2
#     Edge 46, Type (0, 0), BuildingBlock: XIVTED_clean_linker_0, # of connection points: 2
#     Edge 47, Type (0, 0), BuildingBlock: XIVTED_clean_linker_0, # of connection points: 2
# Relax obj value: 0.184
# Max RMSD: 0.079
# Mean RMSD: 0.079
data_MOF--net-pcb--node1-TATPOV_clean_sbu_0--edge1-XIVTED_clean_linker_0
_symmetry_space_group_name_H-M    P1
_symmetry_Int_Tables_number       1
_symmetry_cell_setting            triclinic
loop_
_symmetry_equiv_pos_as_xyz
'x, y, z'
_cell_length_a     47.038328
_cell_length_b     46.179339
_cell_length_c     46.166043
_cell_angle_alpha  89.793041
_cell_angle_beta   90.153117
_cell_angle_gamma 89.928081
loop_
_atom_site_label
_atom_site_type_symbol
_atom_site_fract_x
_atom_site_fract_y
_atom_site_fract_z
_atom_type_partial_charge
Zn0 Zn 0.13376 0.08115 0.07744 0.0
Zn1 Zn 0.13828 0.11946 0.11917 0.0
O2 O 0.09496 0.11698 0.11933 0.0
O3 O 0.09097 0.08473 0.08446 0.0
O4 O 0.15008 0.1485 0.14942 0.0
O5 O 0.15627 0.05083 0.09807 0.0
O6 O 0.15608 0.08112 0.13471 0.0
C7 C 0.07952 0.1011 0.10316 0.0
C8 C 0.15787 0.13168 0.05577 0.0
O9 O 0.1526 0.13961 0.08163 0.0
O10 O 0.15294 0.10597 0.04803 0.0
C11 C 0.15314 0.14205 0.17604 0.0
O12 O 0.14586 0.11609 0.18506 0.0
C13 C 0.1623 0.05646 0.12412 0.0
Zn14 Zn 0.80924 0.07626 0.09644 0.0
Zn15 Zn 0.80987 0.12078 0.13305 0.0
O16 O 0.85269 0.11612 0.12904 0.0
O17 O 0.85274 0.07932 0.09874 0.0
O18 O 0.80336 0.15415 0.15998 0.0
O19 O 0.78821 0.09907 0.06576 0.0
O20 O 0.79197 0.13618 0.09516 0.0
C21 C 0.86622 0.09778 0.1138 0.0
C22 C 0.78472 0.06075 0.14999 0.0
O23 O 0.79218 0.08665 0.15555 0.0
O24 O 0.78834 0.05065 0.12482 0.0
C25 C 0.80394 0.1516 0.1874 0.0
O26 O 0.81153 0.12676 0.19903 0.0
C27 C 0.78452 0.12573 0.07078 0.0
Zn28 Zn 0.88678 0.87643 0.22033 0.0
Zn29 Zn 0.85094 0.83525 0.22655 0.0
O30 O 0.89035 0.81848 0.23923 0.0
O31 O 0.92026 0.85483 0.23601 0.0
O32 O 0.82329 0.80696 0.2438 0.0
O33 O 0.8674 0.90632 0.24444 0.0
O34 O 0.83347 0.8741 0.24074 0.0
C35 C 0.91545 0.82859 0.24203 0.0
C36 C 0.8585 0.85405 0.16658 0.0
O37 O 0.84721 0.83475 0.1826 0.0
O38 O 0.87479 0.87303 0.17761 0.0
C39 C 0.80034 0.79767 0.23263 0.0
O40 O 0.79359 0.80508 0.20599 0.0
C41 C 0.84158 0.89954 0.24753 0.0
Zn42 Zn 0.11534 0.81316 0.13816 0.0
Zn43 Zn 0.15723 0.79385 0.16999 0.0
O44 O 0.11973 0.77842 0.18904 0.0
O45 O 0.08604 0.78902 0.15761 0.0
O46 O 0.18808 0.77465 0.19348 0.0
O47 O 0.13277 0.79932 0.10121 0.0
O48 O 0.16881 0.7842 0.12771 0.0
C49 C 0.09372 0.77728 0.18111 0.0
C50 C 0.147 0.85792 0.16927 0.0
O51 O 0.16295 0.83699 0.17697 0.0
O52 O 0.12503 0.85332 0.15395 0.0
C53 C 0.19402 0.74819 0.18902 0.0
O54 O 0.17962 0.73389 0.16929 0.0
C55 C 0.15706 0.78772 0.10302 0.0
Zn56 Zn 0.15972 0.9014 0.88994 0.0
Zn57 Zn 0.18302 0.86589 0.85204 0.0
O58 O 0.14166 0.85462 0.84613 0.0
O59 O 0.12147 0.88748 0.87391 0.0
O60 O 0.20395 0.84172 0.82314 0.0
O61 O 0.17825 0.93652 0.87304 0.0
O62 O 0.19216 0.90781 0.83786 0.0
C63 C 0.11949 0.86661 0.85622 0.0
C64 C 0.19377 0.85851 0.91764 0.0
O65 O 0.19757 0.85054 0.89154 0.0
O66 O 0.17854 0.8804 0.92312 0.0
C67 C 0.20911 0.81493 0.82674 0.0
O68 O 0.20027 0.80186 0.85038 0.0
C69 C 0.19 0.93309 0.8487 0.0
Zn70 Zn 0.10384 0.15821 0.81764 0.0
Zn71 Zn 0.14541 0.19043 0.7979 0.0
O72 O 0.10826 0.20854 0.78036 0.0
O73 O 0.07501 0.17729 0.79249 0.0
O74 O 0.17647 0.21479 0.78061 0.0
O75 O 0.11255 0.17389 0.85792 0.0
O76 O 0.15008 0.19705 0.84136 0.0
C77 C 0.08247 0.20003 0.77928 0.0
C78 C 0.14623 0.12375 0.79127 0.0
O79 O 0.1577 0.14847 0.78734 0.0
O80 O 0.12239 0.12182 0.8037 0.0
C81 C 0.17629 0.24224 0.78258 0.0
O82 O 0.1552 0.25504 0.79609 0.0
C83 C 0.13436 0.18937 0.8624 0.0
Zn84 Zn 0.88425 0.19667 0.86582 0.0
Zn85 Zn 0.84376 0.19846 0.82759 0.0
O86 O 0.87836 0.22176 0.81105 0.0
O87 O 0.90937 0.22536 0.84648 0.0
O88 O 0.81272 0.20858 0.79872 0.0
O89 O 0.88668 0.15371 0.85519 0.0
O90 O 0.85063 0.15496 0.82455 0.0
C91 C 0.90194 0.23133 0.82085 0.0
C92 C 0.8341 0.21027 0.89373 0.0
O93 O 0.82528 0.20633 0.8679 0.0
O94 O 0.86039 0.20897 0.89923 0.0
C95 C 0.79555 0.22888 0.80505 0.0
O96 O 0.79803 0.24182 0.83021 0.0
C97 C 0.86996 0.14084 0.83785 0.0
Zn98 Zn 0.90262 0.89036 0.91771 0.0
Zn99 Zn 0.86401 0.86892 0.88932 0.0
O100 O 0.90135 0.8499 0.87453 0.0
O101 O 0.93017 0.85808 0.91096 0.0
O102 O 0.83423 0.84797 0.86575 0.0
O103 O 0.88084 0.8919 0.95426 0.0
O104 O 0.85226 0.86112 0.93265 0.0
C105 C 0.92515 0.84576 0.88712 0.0
C106 C 0.88119 0.93079 0.87734 0.0
O107 O 0.86134 0.91202 0.87606 0.0
O108 O 0.90334 0.92535 0.89199 0.0
C109 C 0.83176 0.85291 0.83874 0.0
O110 O 0.84804 0.87262 0.82666 0.0
C111 C 0.86025 0.87445 0.95545 0.0
Zn112 Zn 0.63063 0.64329 0.68556 0.0
Zn113 Zn 0.67073 0.6767 0.70371 0.0
O114 O 0.6319 0.69727 0.71282 0.0
O115 O 0.59911 0.66449 0.70432 0.0
O116 O 0.69887 0.70228 0.72445 0.0
O117 O 0.64606 0.60805 0.70496 0.0
O118 O 0.68129 0.63569 0.71952 0.0
C119 C 0.60589 0.68938 0.71315 0.0
C120 C 0.66571 0.66865 0.63964 0.0
O121 O 0.68046 0.67868 0.66048 0.0
O122 O 0.64327 0.65428 0.64467 0.0
C123 C 0.70464 0.72801 0.71658 0.0
O124 O 0.69267 0.73858 0.69306 0.0
C125 C 0.66942 0.6109 0.71821 0.0
Zn126 Zn 0.40775 0.71284 0.588 0.0
Zn127 Zn 0.36985 0.72057 0.62843 0.0
O128 O 0.40758 0.73644 0.64555 0.0
O129 O 0.43906 0.7315 0.61085 0.0
O130 O 0.34097 0.73335 0.65746 0.0
O131 O 0.38613 0.73509 0.55763 0.0
O132 O 0.35214 0.73529 0.59006 0.0
C133 C 0.43293 0.73941 0.63627 0.0
C134 C 0.38118 0.65955 0.61135 0.0
O135 O 0.36829 0.67654 0.62853 0.0
O136 O 0.39851 0.66968 0.59285 0.0
C137 C 0.33638 0.72065 0.68144 0.0
O138 O 0.35102 0.69732 0.6882 0.0
C139 C 0.36053 0.74014 0.56426 0.0
Zn140 Zn 0.35698 0.39536 0.5701 0.0
Zn141 Zn 0.3356 0.38673 0.62096 0.0
O142 O 0.37758 0.37718 0.62841 0.0
O143 O 0.39377 0.3767 0.58371 0.0
O144 O 0.31581 0.37534 0.65792 0.0
O145 O 0.35165 0.43795 0.57466 0.0
O146 O 0.33038 0.43133 0.61657 0.0
C147 C 0.39772 0.37274 0.61059 0.0
C148 C 0.31312 0.35636 0.56504 0.0
O149 O 0.31528 0.35843 0.59248 0.0
O150 O 0.32785 0.37248 0.54885 0.0
C151 C 0.32033 0.34937 0.66597 0.0
O152 O 0.33873 0.33371 0.65144 0.0
C153 C 0.33928 0.44826 0.59664 0.0
Zn154 Zn 0.64457 0.42696 0.60312 0.0
Zn155 Zn 0.66443 0.37767 0.62064 0.0
O156 O 0.62186 0.37349 0.62944 0.0
O157 O 0.60677 0.41806 0.62217 0.0
O158 O 0.68177 0.34201 0.63897 0.0
O159 O 0.65112 0.41526 0.56218 0.0
O160 O 0.6711 0.37437 0.57612 0.0
C161 C 0.60204 0.39226 0.63022 0.0
C162 C 0.6876 0.43734 0.64218 0.0
O163 O 0.68499 0.40995 0.64459 0.0
O164 O 0.67352 0.45094 0.6232 0.0
C165 C 0.67505 0.33849 0.66542 0.0
O166 O 0.65705 0.35674 0.67718 0.0
C167 C 0.66321 0.39161 0.55593 0.0
Zn168 Zn 0.59007 0.36834 0.29479 0.0
Zn169 Zn 0.6303 0.32984 0.28944 0.0
O170 O 0.59335 0.30899 0.27578 0.0
O171 O 0.56023 0.34256 0.27784 0.0
O172 O 0.66149 0.3029 0.27717 0.0
O173 O 0.60879 0.39875 0.27039 0.0
O174 O 0.64467 0.36841 0.27175 0.0
C175 C 0.56758 0.31689 0.27207 0.0
C176 C 0.61899 0.35039 0.34923 0.0
O177 O 0.63283 0.33288 0.33337 0.0
O178 O 0.6003 0.36688 0.338 0.0
C179 C 0.67469 0.28461 0.29284 0.0
O180 O 0.66761 0.28137 0.32017 0.0
C181 C 0.6346 0.39324 0.26521 0.0
Zn182 Zn 0.6608 0.56915 0.40941 0.0
Zn183 Zn 0.66161 0.61614 0.37603 0.0
O184 O 0.61856 0.61215 0.37824 0.0
O185 O 0.61746 0.57355 0.4065 0.0
O186 O 0.67009 0.65019 0.34988 0.0
O187 O 0.68173 0.58823 0.44213 0.0
O188 O 0.6782 0.62802 0.41605 0.0
C189 C 0.60452 0.59309 0.39217 0.0
C190 C 0.68585 0.55655 0.35593 0.0
O191 O 0.67882 0.5829 0.35185 0.0
O192 O 0.68175 0.54484 0.38037 0.0
C193 C 0.67683 0.67518 0.35905 0.0
O194 O 0.67583 0.68047 0.38696 0.0
C195 C 0.68528 0.61525 0.43954 0.0
Zn196 Zn 0.33552 0.57334 0.41574 0.0
Zn197 Zn 0.33344 0.59938 0.36468 0.0
O198 O 0.37646 0.60085 0.36949 0.0
O199 O 0.37864 0.5788 0.41189 0.0
O200 O 0.32372 0.61929 0.32711 0.0
O201 O 0.31765 0.53685 0.40079 0.0
O202 O 0.32022 0.55716 0.35771 0.0
C203 C 0.39101 0.59094 0.39064 0.0
C204 C 0.30646 0.62585 0.42051 0.0
O205 O 0.31379 0.6266 0.39398 0.0
O206 O 0.31195 0.60365 0.43565 0.0
C207 C 0.32634 0.6466 0.32487 0.0
O208 O 0.33823 0.66098 0.3462 0.0
C209 C 0.31465 0.53525 0.37361 0.0
Zn210 Zn 0.37358 0.28162 0.37403 0.0
Zn211 Zn 0.33154 0.26457 0.34181 0.0
O212 O 0.36892 0.25078 0.32122 0.0
O213 O 0.4028 0.25893 0.35307 0.0
O214 O 0.30027 0.24613 0.31838 0.0
O215 O 0.35701 0.26545 0.4104 0.0
O216 O 0.32068 0.25208 0.38361 0.0
C217 C 0.395 0.24904 0.32886 0.0
C218 C 0.34163 0.32853 0.34623 0.0
O219 O 0.32551 0.3082 0.33755 0.0
O220 O 0.36383 0.32284 0.36085 0.0
C221 C 0.29073 0.25645 0.29472 0.0
O222 O 0.30177 0.28041 0.28426 0.0
C223 C 0.33273 0.25395 0.4083 0.0
H224 H 0.26256 0.20717 0.31099 0.0
H225 H 0.1731 0.19649 0.16385 0.0
H226 H 0.26628 0.27114 0.24267 0.0
H227 H 0.16931 0.13278 0.23241 0.0
H228 H 0.20403 0.22622 0.19412 0.0
H229 H 0.22574 0.18152 0.28404 0.0
C230 C 0.25559 0.21589 0.29035 0.0
C231 C 0.26771 0.24127 0.27899 0.0
C232 C 0.19625 0.20585 0.20264 0.0
C233 C 0.22544 0.21194 0.24797 0.0
C234 C 0.1785 0.18887 0.18539 0.0
C235 C 0.16876 0.16194 0.19549 0.0
C236 C 0.20445 0.19582 0.23018 0.0
C237 C 0.1764 0.1533 0.22364 0.0
C238 C 0.2345 0.20124 0.27498 0.0
C239 C 0.25767 0.25159 0.2522 0.0
N240 N 0.19398 0.17006 0.23989 0.0
N241 N 0.23724 0.23681 0.23755 0.0
H242 H 0.70408 0.23904 0.31715 0.0
H243 H 0.78836 0.20616 0.17065 0.0
H244 H 0.69794 0.2905 0.23909 0.0
H245 H 0.79047 0.14943 0.24518 0.0
H246 H 0.76083 0.24099 0.19846 0.0
H247 H 0.74058 0.20924 0.29386 0.0
C248 C 0.7105 0.24417 0.29521 0.0
C249 C 0.6977 0.26709 0.27994 0.0
C250 C 0.76751 0.22105 0.20887 0.0
C251 C 0.73945 0.23328 0.25329 0.0
C252 C 0.78333 0.20116 0.193 0.0
C253 C 0.7914 0.17465 0.20547 0.0
C254 C 0.75951 0.21436 0.2374 0.0
C255 C 0.78451 0.16952 0.23463 0.0
C256 C 0.73133 0.22719 0.28195 0.0
C257 C 0.70695 0.27287 0.25162 0.0
N258 N 0.76864 0.18905 0.24952 0.0
N259 N 0.72712 0.25601 0.23921 0.0
H260 H 0.80102 0.79154 0.29134 0.0
H261 H 0.67906 0.6735 0.29966 0.0
H262 H 0.75428 0.76535 0.21523 0.0
H263 H 0.70581 0.72446 0.37304 0.0
H264 H 0.70716 0.70495 0.26791 0.0
H265 H 0.76792 0.76433 0.32135 0.0
C266 C 0.78383 0.77996 0.28089 0.0
C267 C 0.78049 0.78063 0.25068 0.0
C268 C 0.70656 0.70941 0.29092 0.0
C269 C 0.7424 0.74936 0.28507 0.0
C270 C 0.69054 0.69149 0.30906 0.0
C271 C 0.69025 0.69622 0.3391 0.0
C272 C 0.72271 0.73188 0.30299 0.0
C273 C 0.70545 0.71992 0.35006 0.0
C274 C 0.7648 0.7646 0.2981 0.0
C275 C 0.75764 0.76539 0.23843 0.0
N276 N 0.72135 0.73662 0.33206 0.0
N277 N 0.73954 0.75015 0.25568 0.0
H278 H 0.32192 0.70525 0.317 0.0
H279 H 0.21039 0.69133 0.18658 0.0
H280 H 0.29744 0.62387 0.27859 0.0
H281 H 0.22888 0.77154 0.23049 0.0
H282 H 0.24624 0.66706 0.21638 0.0
H283 H 0.29253 0.73064 0.28136 0.0
C284 C 0.31067 0.69271 0.30085 0.0
C285 C 0.31195 0.66234 0.30099 0.0
C286 C 0.24255 0.68999 0.21941 0.0
C287 C 0.27803 0.69131 0.26025 0.0
C288 C 0.22205 0.70388 0.20241 0.0
C289 C 0.21644 0.73349 0.20618 0.0
C290 C 0.25761 0.7058 0.24036 0.0
C291 C 0.23235 0.74865 0.22695 0.0
C292 C 0.29378 0.70724 0.28057 0.0
C293 C 0.29694 0.64729 0.27945 0.0
N294 N 0.25211 0.73461 0.24333 0.0
N295 N 0.28044 0.66191 0.26011 0.0
H296 H 0.30443 0.76955 0.67445 0.0
H297 H 0.2304 0.75961 0.83002 0.0
H298 H 0.32072 0.69988 0.73493 0.0
H299 H 0.22579 0.8342 0.7735 0.0
H300 H 0.25973 0.73493 0.7939 0.0
H301 H 0.27163 0.79096 0.70895 0.0
C302 C 0.30105 0.75867 0.69498 0.0
C303 C 0.31552 0.73295 0.70188 0.0
C304 C 0.2522 0.75666 0.78943 0.0
C305 C 0.27787 0.75748 0.74162 0.0
C306 C 0.23542 0.77074 0.80999 0.0
C307 C 0.22576 0.79907 0.80483 0.0
C308 C 0.25919 0.771 0.76353 0.0
C309 C 0.2329 0.81244 0.7785 0.0
C310 C 0.28231 0.77096 0.71471 0.0
C311 C 0.31013 0.7198 0.72878 0.0
N312 N 0.24919 0.7983 0.7589 0.0
N313 N 0.29177 0.73227 0.74774 0.0
H314 H 0.17968 0.30132 0.77681 0.0
H315 H 0.32521 0.2946 0.68771 0.0
H316 H 0.22535 0.22251 0.75787 0.0
H317 H 0.27448 0.3722 0.69495 0.0
H318 H 0.29211 0.26957 0.71958 0.0
H319 H 0.21709 0.32903 0.75252 0.0
C320 C 0.19762 0.28985 0.7677 0.0
C321 C 0.19926 0.25951 0.76917 0.0
C322 C 0.28828 0.29213 0.7144 0.0
C323 C 0.24214 0.29109 0.7415 0.0
C324 C 0.30725 0.3065 0.69624 0.0
C325 C 0.30246 0.33548 0.68836 0.0
C326 C 0.26423 0.30677 0.72479 0.0
C327 C 0.27892 0.34981 0.70032 0.0
C328 C 0.21895 0.30569 0.75383 0.0
C329 C 0.22305 0.24583 0.75706 0.0
N330 N 0.26051 0.33522 0.71775 0.0
N331 N 0.24348 0.2617 0.74368 0.0
H332 H 0.74849 0.26114 0.81609 0.0
H333 H 0.71871 0.30135 0.65106 0.0
H334 H 0.79445 0.22125 0.74596 0.0
H335 H 0.6642 0.32588 0.72197 0.0
H336 H 0.74544 0.2698 0.68428 0.0
H337 H 0.71618 0.2831 0.78109 0.0
C338 C 0.75165 0.25683 0.79327 0.0
C339 C 0.77431 0.23954 0.78391 0.0
C340 C 0.7274 0.28185 0.69242 0.0
C341 C 0.73748 0.26495 0.7435 0.0
C342 C 0.71214 0.29984 0.67348 0.0
C343 C 0.6894 0.31658 0.68382 0.0
C344 C 0.71992 0.28077 0.72186 0.0
C345 C 0.68176 0.31369 0.71305 0.0
C346 C 0.73313 0.26933 0.77325 0.0
C347 C 0.77723 0.23449 0.75408 0.0
N348 N 0.69714 0.29642 0.73104 0.0
N349 N 0.75923 0.24747 0.73485 0.0
H350 H 0.8171 0.86155 0.7819 0.0
H351 H 0.72649 0.71568 0.77026 0.0
H352 H 0.80163 0.80457 0.85448 0.0
H353 H 0.7259 0.78192 0.70404 0.0
H354 H 0.75672 0.74648 0.80019 0.0
H355 H 0.78608 0.83141 0.75199 0.0
C356 C 0.80712 0.84276 0.79159 0.0
C357 C 0.81201 0.83558 0.82076 0.0
C358 C 0.74996 0.7543 0.77913 0.0
C359 C 0.77664 0.80085 0.78654 0.0
C360 C 0.73278 0.73667 0.76195 0.0
C361 C 0.72361 0.74622 0.73456 0.0
C362 C 0.75828 0.78163 0.76881 0.0
C363 C 0.73241 0.77368 0.72501 0.0
C364 C 0.78939 0.82558 0.77449 0.0
C365 C 0.79845 0.81098 0.83212 0.0
N366 N 0.74931 0.79039 0.74208 0.0
N367 N 0.78152 0.79443 0.81496 0.0
H368 H 0.18832 0.19061 0.88407 0.0
H369 H 0.13329 0.1843 0.04706 0.0
H370 H 0.10051 0.19993 0.90904 0.0
H371 H 0.19636 0.12637 0.01225 0.0
H372 H 0.13283 0.21086 0.00086 0.0
H373 H 0.20165 0.18789 0.9355 0.0
C374 C 0.172 0.1931 0.90038 0.0
C375 C 0.14324 0.19503 0.89247 0.0
C376 C 0.14753 0.19301 0.00383 0.0
C377 C 0.15836 0.19248 0.95084 0.0
C378 C 0.14798 0.17802 0.03016 0.0
C379 C 0.16469 0.15303 0.03316 0.0
C380 C 0.16433 0.18314 0.9808 0.0
C381 C 0.18304 0.14545 0.01055 0.0
C382 C 0.17962 0.19148 0.92961 0.0
C383 C 0.12287 0.19802 0.91436 0.0
N384 N 0.18214 0.16026 0.9851 0.0
N385 N 0.13079 0.19638 0.94263 0.0
H386 H 0.8406 0.23694 0.94588 0.0
H387 H 0.7603 0.11161 0.01866 0.0
H388 H 0.78305 0.18248 0.8979 0.0
H389 H 0.79197 0.18444 0.06729 0.0
H390 H 0.76063 0.14138 0.97487 0.0
H391 H 0.816 0.22388 0.99051 0.0
C392 C 0.82217 0.22293 0.94467 0.0
C393 C 0.81411 0.2104 0.9183 0.0
C394 C 0.76678 0.15114 0.99524 0.0
C395 C 0.78648 0.19448 0.96936 0.0
C396 C 0.76662 0.1341 0.02028 0.0
C397 C 0.77679 0.14533 0.04655 0.0
C398 C 0.7778 0.17938 0.99637 0.0
C399 C 0.78436 0.17472 0.04743 0.0
C400 C 0.80813 0.2154 0.97018 0.0
C401 C 0.79004 0.19248 0.91786 0.0
N402 N 0.78546 0.19051 0.02255 0.0
N403 N 0.77758 0.18434 0.94316 0.0
H404 H 0.84912 0.82249 0.98247 0.0
H405 H 0.85883 0.9023 0.13332 0.0
H406 H 0.84414 0.91492 0.99378 0.0
H407 H 0.84249 0.81052 0.12889 0.0
H408 H 0.85012 0.9063 0.08171 0.0
H409 H 0.84187 0.81613 0.03499 0.0
C410 C 0.84542 0.84133 0.99586 0.0
C411 C 0.84737 0.86927 0.98401 0.0
C412 C 0.84818 0.88522 0.09186 0.0
C413 C 0.83984 0.86232 0.04364 0.0
C414 C 0.85339 0.8829 0.1214 0.0
C415 C 0.85177 0.85597 0.13534 0.0
C416 C 0.84179 0.86033 0.07572 0.0
C417 C 0.84412 0.83167 0.11885 0.0
C418 C 0.84157 0.83774 0.0258 0.0
C419 C 0.84296 0.89303 0.0022 0.0
N420 N 0.83984 0.83431 0.0897 0.0
N421 N 0.83979 0.88903 0.03108 0.0
H422 H 0.21172 0.80381 0.09301 0.0
H423 H 0.18857 0.8 0.92198 0.0
H424 H 0.13869 0.76548 0.05169 0.0
H425 H 0.21721 0.87504 0.96896 0.0
H426 H 0.18918 0.77204 0.9674 0.0
H427 H 0.23214 0.81356 0.04505 0.0
C428 C 0.20064 0.79621 0.07389 0.0
C429 C 0.17341 0.78406 0.07614 0.0
C430 C 0.19635 0.79432 0.96745 0.0
C431 C 0.19661 0.79494 0.02167 0.0
C432 C 0.19618 0.81021 0.94162 0.0
C433 C 0.20265 0.83985 0.94195 0.0
C434 C 0.20368 0.80812 0.99345 0.0
C435 C 0.21193 0.85225 0.96797 0.0
C436 C 0.21219 0.80198 0.04662 0.0
C437 C 0.15967 0.77505 0.05074 0.0
N438 N 0.21192 0.83638 0.9928 0.0
N439 N 0.17127 0.78099 0.02446 0.0
H440 H 0.04612 0.13453 0.13896 0.0
H441 H 0.90133 0.06265 0.08256 0.0
H442 H 0.04126 0.06802 0.0736 0.0
H443 H 0.903 0.13345 0.1434 0.0
H444 H 0.95298 0.06361 0.08075 0.0
H445 H 0.99409 0.1339 0.1425 0.0
C446 C 0.03417 0.11981 0.12538 0.0
C447 C 0.04814 0.10132 0.10593 0.0
C448 C 0.94212 0.07897 0.09454 0.0
C449 C 0.98872 0.10046 0.10992 0.0
C450 C 0.91254 0.07841 0.09561 0.0
C451 C 0.89771 0.09804 0.11313 0.0
C452 C 0.9572 0.09928 0.11112 0.0
C453 C 0.91353 0.11794 0.12955 0.0
C454 C 0.00449 0.11948 0.1274 0.0
C455 C 0.03153 0.08271 0.08888 0.0
N456 N 0.94244 0.11806 0.12814 0.0
N457 N 0.0028 0.08277 0.09131 0.0
H458 H 0.8494 0.95358 0.27044 0.0
H459 H 0.75738 0.0086 0.14647 0.0
H460 H 0.78611 0.89975 0.22969 0.0
H461 H 0.79597 0.06689 0.20784 0.0
H462 H 0.75872 0.97027 0.18292 0.0
H463 H 0.82212 0.99634 0.25646 0.0
C464 C 0.8292 0.95069 0.25949 0.0
C465 C 0.82049 0.92312 0.25041 0.0
C466 C 0.76615 0.99165 0.18879 0.0
C467 C 0.78965 0.972 0.23344 0.0
C468 C 0.76541 0.01356 0.1679 0.0
C469 C 0.77728 0.04074 0.17387 0.0
C470 C 0.7796 0.99676 0.21551 0.0
C471 C 0.78702 0.04609 0.20213 0.0
C472 C 0.81363 0.97517 0.25137 0.0
C473 C 0.79395 0.92064 0.23663 0.0
N474 N 0.78878 0.02404 0.22164 0.0
N475 N 0.77995 0.94483 0.22765 0.0
H476 H 0.92187 0.77213 0.22557 0.0
H477 H 0.08953 0.7887 0.23882 0.0
H478 H 0.96525 0.84164 0.26933 0.0
H479 H 0.04579 0.74694 0.1683 0.0
H480 H 0.04463 0.79067 0.26566 0.0
H481 H 0.96738 0.74658 0.22083 0.0
C482 C 0.94075 0.78148 0.23519 0.0
C483 C 0.93997 0.80926 0.24736 0.0
C484 C 0.04513 0.78007 0.24478 0.0
C485 C 0.99184 0.78027 0.24203 0.0
C486 C 0.07079 0.77867 0.22959 0.0
C487 C 0.07116 0.76801 0.20119 0.0
C488 C 0.01995 0.77048 0.23148 0.0
C489 C 0.04622 0.75562 0.19006 0.0
C490 C 0.96671 0.76697 0.23233 0.0
C491 C 0.96508 0.82045 0.25936 0.0
N492 N 0.02148 0.75765 0.20501 0.0
N493 N 0.99009 0.80613 0.25599 0.0
H494 H 0.14171 0.04281 0.17738 0.0
H495 H 0.2003 0.88103 0.16809 0.0
H496 H 0.20117 0.01437 0.1125 0.0
H497 H 0.11251 0.90312 0.18325 0.0
H498 H 0.21212 0.9329 0.16758 0.0
H499 H 0.14374 0.99448 0.19967 0.0
C500 C 0.15619 0.02682 0.16865 0.0
C501 C 0.1711 0.0323 0.14295 0.0
C502 C 0.19047 0.92623 0.1719 0.0
C503 C 0.17355 0.97751 0.16824 0.0
C504 C 0.18372 0.89677 0.17226 0.0
C505 C 0.15535 0.888 0.17536 0.0
C506 C 0.16877 0.94678 0.1754 0.0
C507 C 0.13457 0.90914 0.18046 0.0
C508 C 0.15714 -0.00073 0.18121 0.0
C509 C 0.18922 0.01078 0.1322 0.0
N510 N 0.14167 0.93764 0.18013 0.0
N511 N 0.1897 0.98412 0.14471 0.0
H512 H 0.94029 0.85657 0.83151 0.0
H513 H 0.10097 0.81112 0.86202 0.0
H514 H 0.96619 0.80956 0.90799 0.0
H515 H 0.07403 0.8964 0.8354 0.0
H516 H 0.05114 0.7948 0.85968 0.0
H517 H 0.98915 0.85353 0.8133 0.0
C518 C 0.9559 0.84426 0.84373 0.0
C519 C 0.94948 0.83357 0.8714 0.0
C520 C 0.05641 0.81679 0.85345 0.0
C521 C 0.00488 0.83003 0.85079 0.0
C522 C 0.08465 0.82607 0.85476 0.0
C523 C 0.09125 0.85514 0.84914 0.0
C524 C 0.03506 0.83659 0.84568 0.0
C525 C 0.06955 0.87388 0.84011 0.0
C526 C 0.98374 0.84279 0.83345 0.0
C527 C 0.97051 0.81824 0.88663 0.0
N528 N 0.0423 0.86431 0.83878 0.0
N529 N 0.99751 0.8173 0.87632 0.0
H530 H 0.21527 0.98249 0.86758 0.0
H531 H 0.12634 0.07443 0.76655 0.0
H532 H 0.17858 0.94331 0.79163 0.0
H533 H 0.20107 0.1114 0.80583 0.0
H534 H 0.14744 0.02622 0.77163 0.0
H535 H 0.21401 0.02959 0.84318 0.0
C536 C 0.20778 0.98373 0.84539 0.0
C537 C 0.1969 0.95913 0.83158 0.0
C538 C 0.15967 0.04492 0.77825 0.0
C539 C 0.1944 0.01295 0.80398 0.0
C540 C 0.14764 0.07241 0.77532 0.0
C541 C 0.16202 0.09678 0.78584 0.0
C542 C 0.18574 0.04177 0.79283 0.0
C543 C 0.18942 0.09308 0.79732 0.0
C544 C 0.20707 0.01058 0.83146 0.0
C545 C 0.18724 0.96182 0.80293 0.0
N546 N 0.20008 0.06594 0.80135 0.0
N547 N 0.1854 0.98846 0.79034 0.0
H548 H 0.07192 0.25683 0.79066 0.0
H549 H 0.91059 0.21932 0.7636 0.0
H550 H 0.04024 0.1838 0.74269 0.0
H551 H 0.94347 0.27024 0.83421 0.0
H552 H 0.95626 0.22439 0.73875 0.0
H553 H 0.02446 0.27886 0.78841 0.0
C554 C 0.05535 0.24618 0.77833 0.0
C555 C 0.0597 0.21833 0.7672 0.0
C556 C 0.95309 0.23539 0.75918 0.0
C557 C 0.00558 0.24296 0.765 0.0
C558 C 0.92695 0.23268 0.77328 0.0
C559 C 0.9236 0.24374 0.80133 0.0
C560 C 0.97579 0.24931 0.77326 0.0
C561 C 0.94549 0.26083 0.81286 0.0
C562 C 0.02821 0.25859 0.7773 0.0
C563 C 0.03751 0.20521 0.75179 0.0
N564 N 0.97091 0.26256 0.79908 0.0
N565 N 0.01121 0.21734 0.75165 0.0
H566 H 0.83288 0.9592 0.85807 0.0
H567 H 0.91728 0.10787 0.84473 0.0
H568 H 0.92402 0.96786 0.86457 0.0
H569 H 0.8278 0.10163 0.82509 0.0
H570 H 0.92003 0.05535 0.84721 0.0
H571 H 0.83008 0.00978 0.84122 0.0
C572 C 0.85228 0.97155 0.85553 0.0
C573 C 0.87867 0.9595 0.86324 0.0
C574 C 0.89978 0.06529 0.84202 0.0
C575 C 0.87566 0.01703 0.84414 0.0
C576 C 0.89823 0.09534 0.84062 0.0
C577 C 0.87224 0.10908 0.83495 0.0
C578 C 0.87502 0.04869 0.83833 0.0
C579 C 0.84826 0.0918 0.82954 0.0
C580 C 0.85068 0.00038 0.84597 0.0
C581 C 0.90315 0.97639 0.85944 0.0
N582 N 0.8501 0.06242 0.83184 0.0
N583 N 0.901 0.00426 0.85047 0.0
H584 H 0.66721 0.66956 0.45357 0.0
H585 H 0.71868 0.65789 0.61822 0.0
H586 H 0.71859 0.59876 0.48535 0.0
H587 H 0.63429 0.68418 0.59267 0.0
H588 H 0.73114 0.6522 0.56674 0.0
H589 H 0.66843 0.69118 0.50203 0.0
C590 C 0.67961 0.65911 0.47044 0.0
C591 C 0.69256 0.63217 0.46561 0.0
C592 C 0.71018 0.65998 0.57251 0.0
C593 C 0.69415 0.65684 0.52071 0.0
C594 C 0.70313 0.66337 0.60173 0.0
C595 C 0.67541 0.67137 0.60947 0.0
C596 C 0.68954 0.66539 0.55113 0.0
C597 C 0.65584 0.67784 0.58744 0.0
C598 C 0.68011 0.67135 0.49807 0.0
C599 C 0.7081 0.61942 0.48832 0.0
N600 N 0.66324 0.67462 0.55922 0.0
N601 N 0.70826 0.63174 0.51502 0.0
H602 H 0.36935 0.75749 0.50814 0.0
H603 H 0.27618 0.63076 0.47071 0.0
H604 H 0.30383 0.72704 0.56586 0.0
H605 H 0.31702 0.68187 0.40449 0.0
H606 H 0.27593 0.6729 0.50234 0.0
H607 H 0.34161 0.74012 0.46711 0.0
C608 C 0.34859 0.74818 0.51214 0.0
C609 C 0.33944 0.74265 0.54053 0.0
C610 C 0.28416 0.67528 0.48058 0.0
C611 C 0.30803 0.72178 0.49375 0.0
C612 C 0.2843 0.65114 0.4625 0.0
C613 C 0.29735 0.65262 0.43528 0.0
C614 C 0.29806 0.70074 0.47169 0.0
C615 C 0.30718 0.67965 0.42556 0.0
C616 C 0.33274 0.7381 0.48864 0.0
C617 C 0.31212 0.73103 0.54436 0.0
N618 N 0.30821 0.70243 0.44412 0.0
N619 N 0.29784 0.71995 0.5213 0.0
H620 H 0.35196 0.23392 0.46039 0.0
H621 H 0.27564 0.35891 0.52033 0.0
H622 H 0.27694 0.26665 0.41763 0.0
H623 H 0.31795 0.29905 0.57778 0.0
H624 H 0.26618 0.31936 0.48683 0.0
H625 H 0.33199 0.24807 0.50691 0.0
C626 C 0.3307 0.24294 0.46096 0.0
C627 C 0.31638 0.24983 0.43517 0.0
C628 C 0.27656 0.31447 0.50724 0.0
C629 C 0.29395 0.26732 0.48808 0.0
C630 C 0.28187 0.33711 0.52638 0.0
C631 C 0.29788 0.33216 0.55152 0.0
C632 C 0.28855 0.28708 0.51273 0.0
C633 C 0.30564 0.30365 0.55844 0.0
C634 C 0.31928 0.25114 0.48755 0.0
C635 C 0.28885 0.26136 0.43705 0.0
N636 N 0.30182 0.28228 0.53861 0.0
N637 N 0.27895 0.27082 0.463 0.0
H638 H 0.60281 0.39398 0.385 0.0
H639 H 0.66911 0.33723 0.5315 0.0
H640 H 0.65249 0.31527 0.384 0.0
H641 H 0.65977 0.42774 0.50972 0.0
H642 H 0.66041 0.32506 0.48022 0.0
H643 H 0.61814 0.40259 0.43447 0.0
C644 C 0.61676 0.37831 0.39525 0.0
C645 C 0.62642 0.35389 0.38022 0.0
C646 C 0.6608 0.34755 0.48678 0.0
C647 C 0.64423 0.3638 0.43716 0.0
C648 C 0.66591 0.35452 0.51592 0.0
C649 C 0.66472 0.38352 0.52497 0.0
C650 C 0.65415 0.36977 0.467 0.0
C651 C 0.66038 0.40506 0.50389 0.0
C652 C 0.62572 0.3834 0.42347 0.0
C653 C 0.64461 0.33443 0.39479 0.0
N654 N 0.65482 0.39772 0.47609 0.0
N655 N 0.65289 0.33973 0.42262 0.0
H656 H 0.55711 0.68073 0.74316 0.0
H657 H 0.43337 0.73799 0.69577 0.0
H658 H 0.60107 0.74398 0.69124 0.0
H659 H 0.48592 0.75891 0.62217 0.0
H660 H 0.47579 0.73833 0.72664 0.0
H661 H 0.51252 0.70579 0.73373 0.0
C662 C 0.55748 0.70079 0.7309 0.0
C663 C 0.58267 0.71024 0.71779 0.0
C664 C 0.47797 0.74323 0.7038 0.0
C665 C 0.53155 0.73875 0.70608 0.0
C666 C 0.45371 0.74335 0.68621 0.0
C667 C 0.45628 0.74753 0.65619 0.0
C668 C 0.50486 0.74721 0.69116 0.0
C669 C 0.4831 0.75477 0.64508 0.0
C670 C 0.53194 0.71519 0.72546 0.0
C671 C 0.58205 0.73608 0.70178 0.0
N672 N 0.50641 0.75389 0.66247 0.0
N673 N 0.55669 0.74889 0.6955 0.0
H674 H 0.39657 0.61996 0.57075 0.0
H675 H 0.33028 0.48088 0.64597 0.0
H676 H 0.34965 0.62789 0.65063 0.0
H677 H 0.34733 0.48838 0.5544 0.0
H678 H 0.33875 0.53329 0.65089 0.0
H679 H 0.38239 0.56952 0.56776 0.0
C680 C 0.38344 0.61105 0.58784 0.0
C681 C 0.37428 0.62826 0.61098 0.0
C682 C 0.3402 0.52338 0.62972 0.0
C683 C 0.35773 0.57021 0.60753 0.0
C684 C 0.33522 0.49357 0.62686 0.0
C685 C 0.33847 0.48015 0.5998 0.0
C686 C 0.34872 0.53955 0.6054 0.0
C687 C 0.34501 0.49762 0.57578 0.0
C688 C 0.37513 0.58224 0.58597 0.0
C689 C 0.35716 0.61539 0.63238 0.0
N690 N 0.35025 0.52623 0.57923 0.0
N691 N 0.34948 0.58702 0.63022 0.0
H692 H 0.56063 0.42508 0.65512 0.0
H693 H 0.43893 0.34125 0.58376 0.0
H694 H 0.57672 0.34009 0.6203 0.0
H695 H 0.42252 0.39119 0.66071 0.0
H696 H 0.48943 0.33964 0.59668 0.0
H697 H 0.50997 0.41333 0.65811 0.0
C698 C 0.55352 0.40375 0.64864 0.0
C699 C 0.57273 0.38358 0.63724 0.0
C700 C 0.47466 0.35034 0.61109 0.0
C701 C 0.51499 0.37032 0.63994 0.0
C702 C 0.44592 0.35135 0.60369 0.0
C703 C 0.42669 0.36655 0.62111 0.0
C704 C 0.48427 0.36545 0.63555 0.0
C705 C 0.43674 0.37924 0.64673 0.0
C706 C 0.52469 0.39702 0.65046 0.0
C707 C 0.56253 0.35622 0.6292 0.0
N708 N 0.46503 0.37906 0.65283 0.0
N709 N 0.53417 0.35061 0.63001 0.0
H710 H 0.64865 0.56293 0.74512 0.0
H711 H 0.72625 0.47999 0.63324 0.0
H712 H 0.72466 0.59783 0.70672 0.0
H713 H 0.68076 0.43513 0.70059 0.0
H714 H 0.73506 0.51996 0.66646 0.0
H715 H 0.66736 0.51414 0.73844 0.0
C716 C 0.66988 0.5603 0.73644 0.0
C717 C 0.68496 0.58429 0.72601 0.0
C718 C 0.72411 0.50095 0.67449 0.0
C719 C 0.70593 0.52858 0.71694 0.0
C720 C 0.7192 0.47808 0.65549 0.0
C721 C 0.70254 0.45452 0.66421 0.0
C722 C 0.71115 0.50072 0.70189 0.0
C723 C 0.69366 0.45306 0.69312 0.0
C724 C 0.68056 0.5324 0.73249 0.0
C725 C 0.71231 0.5798 0.71487 0.0
N726 N 0.69719 0.47637 0.71071 0.0
N727 N 0.72152 0.55238 0.70961 0.0
H728 H 0.39796 0.26425 0.27181 0.0
H729 H 0.5658 0.25947 0.28699 0.0
H730 H 0.44409 0.2195 0.33921 0.0
H731 H 0.51764 0.32624 0.24346 0.0
H732 H 0.52269 0.22974 0.28949 0.0
H733 H 0.44254 0.27052 0.24514 0.0
C734 C 0.41722 0.25447 0.2803 0.0
C735 C 0.41754 0.24181 0.30795 0.0
C736 C 0.52183 0.25051 0.27855 0.0
C737 C 0.46844 0.2493 0.27795 0.0
C738 C 0.54644 0.26742 0.27698 0.0
C739 C 0.54506 0.29558 0.26557 0.0
C740 C 0.49587 0.26184 0.26841 0.0
C741 C 0.51942 0.30484 0.25296 0.0
C742 C 0.4427 0.25834 0.26523 0.0
C743 C 0.44311 0.22977 0.3181 0.0
N744 N 0.49572 0.28823 0.25515 0.0
N745 N 0.46768 0.23434 0.3034 0.0
H746 H 0.69167 0.39605 0.27644 0.0
H747 H 0.67176 0.56428 0.29893 0.0
H748 H 0.62177 0.44687 0.24307 0.0
H749 H 0.71614 0.50601 0.35666 0.0
H750 H 0.6706 0.52614 0.26222 0.0
H751 H 0.71713 0.44072 0.28752 0.0
C752 C 0.68214 0.41653 0.27023 0.0
C753 C 0.65408 0.41779 0.2598 0.0
C754 C 0.68147 0.5221 0.28256 0.0
C755 C 0.68306 0.46882 0.27262 0.0
C756 C 0.68225 0.54386 0.30349 0.0
C757 C 0.69341 0.53797 0.33113 0.0
C758 C 0.69217 0.49449 0.28932 0.0
C759 C 0.70676 0.51118 0.33583 0.0
C760 C 0.69667 0.44204 0.27677 0.0
C761 C 0.64304 0.44496 0.25191 0.0
N762 N 0.70531 0.49022 0.31532 0.0
N763 N 0.65725 0.46948 0.25918 0.0
H764 H 0.56861 0.56039 0.42509 0.0
H765 H 0.42554 0.61919 0.35162 0.0
H766 H 0.56858 0.62664 0.35883 0.0
H767 H 0.42824 0.56687 0.42931 0.0
H768 H 0.47767 0.6207 0.35178 0.0
H769 H 0.51689 0.56077 0.42464 0.0
C770 C 0.55774 0.57504 0.4104 0.0
C771 C 0.57303 0.59351 0.39195 0.0
C772 C 0.46678 0.60899 0.36881 0.0
C773 C 0.51352 0.59401 0.39131 0.0
C774 C 0.43704 0.60807 0.36871 0.0
C775 C 0.42245 0.59284 0.39046 0.0
C776 C 0.48197 0.59438 0.39066 0.0
C777 C 0.43848 0.57889 0.41209 0.0
C778 C 0.52813 0.5753 0.41022 0.0
C779 C 0.55767 0.61207 0.37346 0.0
N780 N 0.4673 0.57991 0.41155 0.0
N781 N 0.52872 0.61178 0.37353 0.0
H782 H 0.37688 0.37297 0.33216 0.0
H783 H 0.33387 0.51557 0.3215 0.0
H784 H 0.289 0.35328 0.34967 0.0
H785 H 0.28584 0.48925 0.39659 0.0
H786 H 0.33693 0.46471 0.30663 0.0
H787 H 0.36481 0.42458 0.33018 0.0
C788 C 0.35495 0.37956 0.33505 0.0
C789 C 0.33386 0.35902 0.34101 0.0
C790 C 0.32521 0.47026 0.32601 0.0
C791 C 0.32002 0.41775 0.33921 0.0
C792 C 0.32319 0.49923 0.33436 0.0
C793 C 0.3099 0.50652 0.36053 0.0
C794 C 0.31348 0.44864 0.34374 0.0
C795 C 0.29658 0.48444 0.37645 0.0
C796 C 0.34805 0.4089 0.3337 0.0
C797 C 0.30578 0.36856 0.34479 0.0
N798 N 0.29888 0.4564 0.36792 0.0
N799 N 0.29976 0.3974 0.3446 0.0
loop_
_geom_bond_atom_site_label_1
_geom_bond_atom_site_label_2
_geom_bond_distance
_geom_bond_site_symmetry_2
_ccdc_geom_bond_type
Zn0 O3 2.031 . S
Zn0 O5 2.049 . S
Zn0 O10 2.067 . S
Zn1 O2 1.962 . S
Zn1 O4 1.986 . S
Zn1 O6 1.996 . S
Zn1 O9 1.943 . S
O2 Zn1 1.962 . S
O2 C7 1.254 . S
O3 Zn0 2.031 . S
O3 C7 1.269 . S
O4 Zn1 1.986 . S
O4 C11 1.262 . S
O5 Zn0 2.049 . S
O5 C13 1.260 . S
O6 Zn1 1.996 . S
O6 C13 1.257 . S
C7 O2 1.254 . S
C7 O3 1.269 . S
C8 O9 1.249 . S
C8 O10 1.270 . S
O9 Zn1 1.943 . S
O9 C8 1.249 . S
O10 Zn0 2.067 . S
O10 C8 1.270 . S
C11 O4 1.262 . S
C11 O12 1.232 . S
O12 C11 1.232 . S
C13 O5 1.260 . S
C13 O6 1.257 . S
Zn14 O17 2.031 . S
Zn14 O19 2.049 . S
Zn14 O24 2.067 . S
Zn15 O16 1.962 . S
Zn15 O18 1.986 . S
Zn15 O20 1.996 . S
Zn15 O23 1.943 . S
O16 Zn15 1.962 . S
O16 C21 1.254 . S
O17 Zn14 2.031 . S
O17 C21 1.269 . S
O18 Zn15 1.986 . S
O18 C25 1.262 . S
O19 Zn14 2.049 . S
O19 C27 1.260 . S
O20 Zn15 1.996 . S
O20 C27 1.257 . S
C21 O16 1.254 . S
C21 O17 1.269 . S
C22 O23 1.249 . S
C22 O24 1.270 . S
O23 Zn15 1.943 . S
O23 C22 1.249 . S
O24 Zn14 2.067 . S
O24 C22 1.270 . S
C25 O18 1.262 . S
C25 O26 1.232 . S
O26 C25 1.232 . S
C27 O19 1.260 . S
C27 O20 1.257 . S
Zn28 O31 2.031 . S
Zn28 O33 2.049 . S
Zn28 O38 2.067 . S
Zn29 O30 1.962 . S
Zn29 O32 1.986 . S
Zn29 O34 1.996 . S
Zn29 O37 1.943 . S
O30 Zn29 1.962 . S
O30 C35 1.254 . S
O31 Zn28 2.031 . S
O31 C35 1.269 . S
O32 Zn29 1.986 . S
O32 C39 1.262 . S
O33 Zn28 2.049 . S
O33 C41 1.260 . S
O34 Zn29 1.996 . S
O34 C41 1.257 . S
C35 O30 1.254 . S
C35 O31 1.269 . S
C36 O37 1.249 . S
C36 O38 1.270 . S
O37 Zn29 1.943 . S
O37 C36 1.249 . S
O38 Zn28 2.067 . S
O38 C36 1.270 . S
C39 O32 1.262 . S
C39 O40 1.232 . S
O40 C39 1.232 . S
C41 O33 1.260 . S
C41 O34 1.257 . S
Zn42 O45 2.031 . S
Zn42 O47 2.049 . S
Zn42 O52 2.067 . S
Zn43 O44 1.962 . S
Zn43 O46 1.986 . S
Zn43 O48 1.996 . S
Zn43 O51 1.943 . S
O44 Zn43 1.962 . S
O44 C49 1.254 . S
O45 Zn42 2.031 . S
O45 C49 1.269 . S
O46 Zn43 1.986 . S
O46 C53 1.262 . S
O47 Zn42 2.049 . S
O47 C55 1.260 . S
O48 Zn43 1.996 . S
O48 C55 1.257 . S
C49 O44 1.254 . S
C49 O45 1.269 . S
C50 O51 1.249 . S
C50 O52 1.270 . S
O51 Zn43 1.943 . S
O51 C50 1.249 . S
O52 Zn42 2.067 . S
O52 C50 1.270 . S
C53 O46 1.262 . S
C53 O54 1.232 . S
O54 C53 1.232 . S
C55 O47 1.260 . S
C55 O48 1.257 . S
Zn56 O59 2.031 . S
Zn56 O61 2.049 . S
Zn56 O66 2.067 . S
Zn57 O58 1.962 . S
Zn57 O60 1.986 . S
Zn57 O62 1.996 . S
Zn57 O65 1.943 . S
O58 Zn57 1.962 . S
O58 C63 1.254 . S
O59 Zn56 2.031 . S
O59 C63 1.269 . S
O60 Zn57 1.986 . S
O60 C67 1.262 . S
O61 Zn56 2.049 . S
O61 C69 1.260 . S
O62 Zn57 1.996 . S
O62 C69 1.257 . S
C63 O58 1.254 . S
C63 O59 1.269 . S
C64 O65 1.249 . S
C64 O66 1.270 . S
O65 Zn57 1.943 . S
O65 C64 1.249 . S
O66 Zn56 2.067 . S
O66 C64 1.270 . S
C67 O60 1.262 . S
C67 O68 1.232 . S
O68 C67 1.232 . S
C69 O61 1.260 . S
C69 O62 1.257 . S
Zn70 O73 2.031 . S
Zn70 O75 2.049 . S
Zn70 O80 2.067 . S
Zn71 O72 1.962 . S
Zn71 O74 1.986 . S
Zn71 O76 1.996 . S
Zn71 O79 1.943 . S
O72 Zn71 1.962 . S
O72 C77 1.254 . S
O73 Zn70 2.031 . S
O73 C77 1.269 . S
O74 Zn71 1.986 . S
O74 C81 1.262 . S
O75 Zn70 2.049 . S
O75 C83 1.260 . S
O76 Zn71 1.996 . S
O76 C83 1.257 . S
C77 O72 1.254 . S
C77 O73 1.269 . S
C78 O79 1.249 . S
C78 O80 1.270 . S
O79 Zn71 1.943 . S
O79 C78 1.249 . S
O80 Zn70 2.067 . S
O80 C78 1.270 . S
C81 O74 1.262 . S
C81 O82 1.232 . S
O82 C81 1.232 . S
C83 O75 1.260 . S
C83 O76 1.257 . S
Zn84 O87 2.031 . S
Zn84 O89 2.049 . S
Zn84 O94 2.067 . S
Zn85 O86 1.962 . S
Zn85 O88 1.986 . S
Zn85 O90 1.996 . S
Zn85 O93 1.943 . S
O86 Zn85 1.962 . S
O86 C91 1.254 . S
O87 Zn84 2.031 . S
O87 C91 1.269 . S
O88 Zn85 1.986 . S
O88 C95 1.262 . S
O89 Zn84 2.049 . S
O89 C97 1.260 . S
O90 Zn85 1.996 . S
O90 C97 1.257 . S
C91 O86 1.254 . S
C91 O87 1.269 . S
C92 O93 1.249 . S
C92 O94 1.270 . S
O93 Zn85 1.943 . S
O93 C92 1.249 . S
O94 Zn84 2.067 . S
O94 C92 1.270 . S
C95 O88 1.262 . S
C95 O96 1.232 . S
O96 C95 1.232 . S
C97 O89 1.260 . S
C97 O90 1.257 . S
Zn98 O101 2.031 . S
Zn98 O103 2.049 . S
Zn98 O108 2.067 . S
Zn99 O100 1.962 . S
Zn99 O102 1.986 . S
Zn99 O104 1.996 . S
Zn99 O107 1.943 . S
O100 Zn99 1.962 . S
O100 C105 1.254 . S
O101 Zn98 2.031 . S
O101 C105 1.269 . S
O102 Zn99 1.986 . S
O102 C109 1.262 . S
O103 Zn98 2.049 . S
O103 C111 1.260 . S
O104 Zn99 1.996 . S
O104 C111 1.257 . S
C105 O100 1.254 . S
C105 O101 1.269 . S
C106 O107 1.249 . S
C106 O108 1.270 . S
O107 Zn99 1.943 . S
O107 C106 1.249 . S
O108 Zn98 2.067 . S
O108 C106 1.270 . S
C109 O102 1.262 . S
C109 O110 1.232 . S
O110 C109 1.232 . S
C111 O103 1.260 . S
C111 O104 1.257 . S
Zn112 O115 2.031 . S
Zn112 O117 2.049 . S
Zn112 O122 2.067 . S
Zn113 O114 1.962 . S
Zn113 O116 1.986 . S
Zn113 O118 1.996 . S
Zn113 O121 1.943 . S
O114 Zn113 1.962 . S
O114 C119 1.254 . S
O115 Zn112 2.031 . S
O115 C119 1.269 . S
O116 Zn113 1.986 . S
O116 C123 1.262 . S
O117 Zn112 2.049 . S
O117 C125 1.260 . S
O118 Zn113 1.996 . S
O118 C125 1.257 . S
C119 O114 1.254 . S
C119 O115 1.269 . S
C120 O121 1.249 . S
C120 O122 1.270 . S
O121 Zn113 1.943 . S
O121 C120 1.249 . S
O122 Zn112 2.067 . S
O122 C120 1.270 . S
C123 O116 1.262 . S
C123 O124 1.232 . S
O124 C123 1.232 . S
C125 O117 1.260 . S
C125 O118 1.257 . S
Zn126 O129 2.031 . S
Zn126 O131 2.049 . S
Zn126 O136 2.067 . S
Zn127 O128 1.962 . S
Zn127 O130 1.986 . S
Zn127 O132 1.996 . S
Zn127 O135 1.943 . S
O128 Zn127 1.962 . S
O128 C133 1.254 . S
O129 Zn126 2.031 . S
O129 C133 1.269 . S
O130 Zn127 1.986 . S
O130 C137 1.262 . S
O131 Zn126 2.049 . S
O131 C139 1.260 . S
O132 Zn127 1.996 . S
O132 C139 1.257 . S
C133 O128 1.254 . S
C133 O129 1.269 . S
C134 O135 1.249 . S
C134 O136 1.270 . S
O135 Zn127 1.943 . S
O135 C134 1.249 . S
O136 Zn126 2.067 . S
O136 C134 1.270 . S
C137 O130 1.262 . S
C137 O138 1.232 . S
O138 C137 1.232 . S
C139 O131 1.260 . S
C139 O132 1.257 . S
Zn140 O143 2.031 . S
Zn140 O145 2.049 . S
Zn140 O150 2.067 . S
Zn141 O142 1.962 . S
Zn141 O144 1.986 . S
Zn141 O146 1.996 . S
Zn141 O149 1.943 . S
O142 Zn141 1.962 . S
O142 C147 1.254 . S
O143 Zn140 2.031 . S
O143 C147 1.269 . S
O144 Zn141 1.986 . S
O144 C151 1.262 . S
O145 Zn140 2.049 . S
O145 C153 1.260 . S
O146 Zn141 1.996 . S
O146 C153 1.257 . S
C147 O142 1.254 . S
C147 O143 1.269 . S
C148 O149 1.249 . S
C148 O150 1.270 . S
O149 Zn141 1.943 . S
O149 C148 1.249 . S
O150 Zn140 2.067 . S
O150 C148 1.270 . S
C151 O144 1.262 . S
C151 O152 1.232 . S
O152 C151 1.232 . S
C153 O145 1.260 . S
C153 O146 1.257 . S
Zn154 O157 2.031 . S
Zn154 O159 2.049 . S
Zn154 O164 2.067 . S
Zn155 O156 1.962 . S
Zn155 O158 1.986 . S
Zn155 O160 1.996 . S
Zn155 O163 1.943 . S
O156 Zn155 1.962 . S
O156 C161 1.254 . S
O157 Zn154 2.031 . S
O157 C161 1.269 . S
O158 Zn155 1.986 . S
O158 C165 1.262 . S
O159 Zn154 2.049 . S
O159 C167 1.260 . S
O160 Zn155 1.996 . S
O160 C167 1.257 . S
C161 O156 1.254 . S
C161 O157 1.269 . S
C162 O163 1.249 . S
C162 O164 1.270 . S
O163 Zn155 1.943 . S
O163 C162 1.249 . S
O164 Zn154 2.067 . S
O164 C162 1.270 . S
C165 O158 1.262 . S
C165 O166 1.232 . S
O166 C165 1.232 . S
C167 O159 1.260 . S
C167 O160 1.257 . S
Zn168 O171 2.031 . S
Zn168 O173 2.049 . S
Zn168 O178 2.067 . S
Zn169 O170 1.962 . S
Zn169 O172 1.986 . S
Zn169 O174 1.996 . S
Zn169 O177 1.943 . S
O170 Zn169 1.962 . S
O170 C175 1.254 . S
O171 Zn168 2.031 . S
O171 C175 1.269 . S
O172 Zn169 1.986 . S
O172 C179 1.262 . S
O173 Zn168 2.049 . S
O173 C181 1.260 . S
O174 Zn169 1.996 . S
O174 C181 1.257 . S
C175 O170 1.254 . S
C175 O171 1.269 . S
C176 O177 1.249 . S
C176 O178 1.270 . S
O177 Zn169 1.943 . S
O177 C176 1.249 . S
O178 Zn168 2.067 . S
O178 C176 1.270 . S
C179 O172 1.262 . S
C179 O180 1.232 . S
O180 C179 1.232 . S
C181 O173 1.260 . S
C181 O174 1.257 . S
Zn182 O185 2.031 . S
Zn182 O187 2.049 . S
Zn182 O192 2.067 . S
Zn183 O184 1.962 . S
Zn183 O186 1.986 . S
Zn183 O188 1.996 . S
Zn183 O191 1.943 . S
O184 Zn183 1.962 . S
O184 C189 1.254 . S
O185 Zn182 2.031 . S
O185 C189 1.269 . S
O186 Zn183 1.986 . S
O186 C193 1.262 . S
O187 Zn182 2.049 . S
O187 C195 1.260 . S
O188 Zn183 1.996 . S
O188 C195 1.257 . S
C189 O184 1.254 . S
C189 O185 1.269 . S
C190 O191 1.249 . S
C190 O192 1.270 . S
O191 Zn183 1.943 . S
O191 C190 1.249 . S
O192 Zn182 2.067 . S
O192 C190 1.270 . S
C193 O186 1.262 . S
C193 O194 1.232 . S
O194 C193 1.232 . S
C195 O187 1.260 . S
C195 O188 1.257 . S
Zn196 O199 2.031 . S
Zn196 O201 2.049 . S
Zn196 O206 2.067 . S
Zn197 O198 1.962 . S
Zn197 O200 1.986 . S
Zn197 O202 1.996 . S
Zn197 O205 1.943 . S
O198 Zn197 1.962 . S
O198 C203 1.254 . S
O199 Zn196 2.031 . S
O199 C203 1.269 . S
O200 Zn197 1.986 . S
O200 C207 1.262 . S
O201 Zn196 2.049 . S
O201 C209 1.260 . S
O202 Zn197 1.996 . S
O202 C209 1.257 . S
C203 O198 1.254 . S
C203 O199 1.269 . S
C204 O205 1.249 . S
C204 O206 1.270 . S
O205 Zn197 1.943 . S
O205 C204 1.249 . S
O206 Zn196 2.067 . S
O206 C204 1.270 . S
C207 O200 1.262 . S
C207 O208 1.232 . S
O208 C207 1.232 . S
C209 O201 1.260 . S
C209 O202 1.257 . S
Zn210 O213 2.031 . S
Zn210 O215 2.049 . S
Zn210 O220 2.067 . S
Zn211 O212 1.962 . S
Zn211 O214 1.986 . S
Zn211 O216 1.996 . S
Zn211 O219 1.943 . S
O212 Zn211 1.962 . S
O212 C217 1.254 . S
O213 Zn210 2.031 . S
O213 C217 1.269 . S
O214 Zn211 1.986 . S
O214 C221 1.262 . S
O215 Zn210 2.049 . S
O215 C223 1.260 . S
O216 Zn211 1.996 . S
O216 C223 1.257 . S
C217 O212 1.254 . S
C217 O213 1.269 . S
C218 O219 1.249 . S
C218 O220 1.270 . S
O219 Zn211 1.943 . S
O219 C218 1.249 . S
O220 Zn210 2.067 . S
O220 C218 1.270 . S
C221 O214 1.262 . S
C221 O222 1.232 . S
O222 C221 1.232 . S
C223 O215 1.260 . S
C223 O216 1.257 . S
H224 C230 0.930 . S
H225 C234 0.930 . S
H226 C239 0.929 . S
H227 C237 0.929 . S
H228 C232 0.929 . S
H229 C238 0.929 . S
C230 H224 0.930 . S
C230 C231 1.367 . S
C230 C238 1.378 . S
C231 C230 1.367 . S
C231 C239 1.433 . S
C232 H228 0.929 . S
C232 C234 1.378 . S
C232 C236 1.350 . S
C233 C236 1.463 . S
C233 C238 1.350 . S
C233 N241 1.427 . S
C234 H225 0.930 . S
C234 C232 1.378 . S
C234 C235 1.367 . S
C235 C234 1.367 . S
C235 C237 1.433 . S
C236 C232 1.350 . S
C236 C233 1.463 . S
C236 N240 1.427 . S
C237 H227 0.929 . S
C237 C235 1.433 . S
C237 N240 1.384 . S
C238 H229 0.929 . S
C238 C230 1.378 . S
C238 C233 1.350 . S
C239 H226 0.929 . S
C239 C231 1.433 . S
C239 N241 1.384 . S
N240 C236 1.427 . S
N240 C237 1.384 . S
N241 C233 1.427 . S
N241 C239 1.384 . S
H242 C248 0.930 . S
H243 C252 0.930 . S
H244 C257 0.929 . S
H245 C255 0.929 . S
H246 C250 0.929 . S
H247 C256 0.929 . S
C248 H242 0.930 . S
C248 C249 1.367 . S
C248 C256 1.378 . S
C249 C248 1.367 . S
C249 C257 1.433 . S
C250 H246 0.929 . S
C250 C252 1.378 . S
C250 C254 1.350 . S
C251 C254 1.463 . S
C251 C256 1.350 . S
C251 N259 1.427 . S
C252 H243 0.930 . S
C252 C250 1.378 . S
C252 C253 1.367 . S
C253 C252 1.367 . S
C253 C255 1.433 . S
C254 C250 1.350 . S
C254 C251 1.463 . S
C254 N258 1.427 . S
C255 H245 0.929 . S
C255 C253 1.433 . S
C255 N258 1.384 . S
C256 H247 0.929 . S
C256 C248 1.378 . S
C256 C251 1.350 . S
C257 H244 0.929 . S
C257 C249 1.433 . S
C257 N259 1.384 . S
N258 C254 1.427 . S
N258 C255 1.384 . S
N259 C251 1.427 . S
N259 C257 1.384 . S
H260 C266 0.930 . S
H261 C270 0.930 . S
H262 C275 0.929 . S
H263 C273 0.929 . S
H264 C268 0.929 . S
H265 C274 0.929 . S
C266 H260 0.930 . S
C266 C267 1.367 . S
C266 C274 1.378 . S
C267 C266 1.367 . S
C267 C275 1.433 . S
C268 H264 0.929 . S
C268 C270 1.378 . S
C268 C272 1.350 . S
C269 C272 1.463 . S
C269 C274 1.350 . S
C269 N277 1.427 . S
C270 H261 0.930 . S
C270 C268 1.378 . S
C270 C271 1.367 . S
C271 C270 1.367 . S
C271 C273 1.433 . S
C272 C268 1.350 . S
C272 C269 1.463 . S
C272 N276 1.427 . S
C273 H263 0.929 . S
C273 C271 1.433 . S
C273 N276 1.384 . S
C274 H265 0.929 . S
C274 C266 1.378 . S
C274 C269 1.350 . S
C275 H262 0.929 . S
C275 C267 1.433 . S
C275 N277 1.384 . S
N276 C272 1.427 . S
N276 C273 1.384 . S
N277 C269 1.427 . S
N277 C275 1.384 . S
H278 C284 0.930 . S
H279 C288 0.930 . S
H280 C293 0.929 . S
H281 C291 0.929 . S
H282 C286 0.929 . S
H283 C292 0.929 . S
C284 H278 0.930 . S
C284 C285 1.367 . S
C284 C292 1.378 . S
C285 C284 1.367 . S
C285 C293 1.433 . S
C286 H282 0.929 . S
C286 C288 1.378 . S
C286 C290 1.350 . S
C287 C290 1.463 . S
C287 C292 1.350 . S
C287 N295 1.427 . S
C288 H279 0.930 . S
C288 C286 1.378 . S
C288 C289 1.367 . S
C289 C288 1.367 . S
C289 C291 1.433 . S
C290 C286 1.350 . S
C290 C287 1.463 . S
C290 N294 1.427 . S
C291 H281 0.929 . S
C291 C289 1.433 . S
C291 N294 1.384 . S
C292 H283 0.929 . S
C292 C284 1.378 . S
C292 C287 1.350 . S
C293 H280 0.929 . S
C293 C285 1.433 . S
C293 N295 1.384 . S
N294 C290 1.427 . S
N294 C291 1.384 . S
N295 C287 1.427 . S
N295 C293 1.384 . S
H296 C302 0.930 . S
H297 C306 0.930 . S
H298 C311 0.929 . S
H299 C309 0.929 . S
H300 C304 0.929 . S
H301 C310 0.929 . S
C302 H296 0.930 . S
C302 C303 1.367 . S
C302 C310 1.378 . S
C303 C302 1.367 . S
C303 C311 1.433 . S
C304 H300 0.929 . S
C304 C306 1.378 . S
C304 C308 1.350 . S
C305 C308 1.463 . S
C305 C310 1.350 . S
C305 N313 1.427 . S
C306 H297 0.930 . S
C306 C304 1.378 . S
C306 C307 1.367 . S
C307 C306 1.367 . S
C307 C309 1.433 . S
C308 C304 1.350 . S
C308 C305 1.463 . S
C308 N312 1.427 . S
C309 H299 0.929 . S
C309 C307 1.433 . S
C309 N312 1.384 . S
C310 H301 0.929 . S
C310 C302 1.378 . S
C310 C305 1.350 . S
C311 H298 0.929 . S
C311 C303 1.433 . S
C311 N313 1.384 . S
N312 C308 1.427 . S
N312 C309 1.384 . S
N313 C305 1.427 . S
N313 C311 1.384 . S
H314 C320 0.930 . S
H315 C324 0.930 . S
H316 C329 0.929 . S
H317 C327 0.929 . S
H318 C322 0.929 . S
H319 C328 0.929 . S
C320 H314 0.930 . S
C320 C321 1.367 . S
C320 C328 1.378 . S
C321 C320 1.367 . S
C321 C329 1.433 . S
C322 H318 0.929 . S
C322 C324 1.378 . S
C322 C326 1.350 . S
C323 C326 1.463 . S
C323 C328 1.350 . S
C323 N331 1.427 . S
C324 H315 0.930 . S
C324 C322 1.378 . S
C324 C325 1.367 . S
C325 C324 1.367 . S
C325 C327 1.433 . S
C326 C322 1.350 . S
C326 C323 1.463 . S
C326 N330 1.427 . S
C327 H317 0.929 . S
C327 C325 1.433 . S
C327 N330 1.384 . S
C328 H319 0.929 . S
C328 C320 1.378 . S
C328 C323 1.350 . S
C329 H316 0.929 . S
C329 C321 1.433 . S
C329 N331 1.384 . S
N330 C326 1.427 . S
N330 C327 1.384 . S
N331 C323 1.427 . S
N331 C329 1.384 . S
H332 C338 0.930 . S
H333 C342 0.930 . S
H334 C347 0.929 . S
H335 C345 0.929 . S
H336 C340 0.929 . S
H337 C346 0.929 . S
C338 H332 0.930 . S
C338 C339 1.367 . S
C338 C346 1.378 . S
C339 C338 1.367 . S
C339 C347 1.433 . S
C340 H336 0.929 . S
C340 C342 1.378 . S
C340 C344 1.350 . S
C341 C344 1.463 . S
C341 C346 1.350 . S
C341 N349 1.427 . S
C342 H333 0.930 . S
C342 C340 1.378 . S
C342 C343 1.367 . S
C343 C342 1.367 . S
C343 C345 1.433 . S
C344 C340 1.350 . S
C344 C341 1.463 . S
C344 N348 1.427 . S
C345 H335 0.929 . S
C345 C343 1.433 . S
C345 N348 1.384 . S
C346 H337 0.929 . S
C346 C338 1.378 . S
C346 C341 1.350 . S
C347 H334 0.929 . S
C347 C339 1.433 . S
C347 N349 1.384 . S
N348 C344 1.427 . S
N348 C345 1.384 . S
N349 C341 1.427 . S
N349 C347 1.384 . S
H350 C356 0.930 . S
H351 C360 0.930 . S
H352 C365 0.929 . S
H353 C363 0.929 . S
H354 C358 0.929 . S
H355 C364 0.929 . S
C356 H350 0.930 . S
C356 C357 1.367 . S
C356 C364 1.378 . S
C357 C356 1.367 . S
C357 C365 1.433 . S
C358 H354 0.929 . S
C358 C360 1.378 . S
C358 C362 1.350 . S
C359 C362 1.463 . S
C359 C364 1.350 . S
C359 N367 1.427 . S
C360 H351 0.930 . S
C360 C358 1.378 . S
C360 C361 1.367 . S
C361 C360 1.367 . S
C361 C363 1.433 . S
C362 C358 1.350 . S
C362 C359 1.463 . S
C362 N366 1.427 . S
C363 H353 0.929 . S
C363 C361 1.433 . S
C363 N366 1.384 . S
C364 H355 0.929 . S
C364 C356 1.378 . S
C364 C359 1.350 . S
C365 H352 0.929 . S
C365 C357 1.433 . S
C365 N367 1.384 . S
N366 C362 1.427 . S
N366 C363 1.384 . S
N367 C359 1.427 . S
N367 C365 1.384 . S
H368 C374 0.930 . S
H369 C378 0.930 . S
H370 C383 0.929 . S
H371 C381 0.929 . S
H372 C376 0.929 . S
H373 C382 0.929 . S
C374 H368 0.930 . S
C374 C375 1.367 . S
C374 C382 1.378 . S
C375 C374 1.367 . S
C375 C383 1.433 . S
C376 H372 0.929 . S
C376 C378 1.378 . S
C376 C380 1.350 . S
C377 C380 1.435 1_556 S
C377 C382 1.364 . S
C377 N385 1.440 . S
C378 H369 0.930 . S
C378 C376 1.378 . S
C378 C379 1.367 . S
C379 C378 1.367 . S
C379 C381 1.433 . S
C380 C376 1.350 . S
C380 C377 1.435 1_554 S
C380 N384 1.427 . S
C381 H371 0.929 . S
C381 C379 1.433 . S
C381 N384 1.384 . S
C382 H373 0.929 . S
C382 C374 1.378 . S
C382 C377 1.364 . S
C383 H370 0.929 . S
C383 C375 1.433 . S
C383 N385 1.384 . S
N384 C380 1.427 . S
N384 C381 1.384 . S
N385 C377 1.440 . S
N385 C383 1.384 . S
H386 C392 0.930 . S
H387 C396 0.930 . S
H388 C401 0.929 . S
H389 C399 0.929 . S
H390 C394 0.929 . S
H391 C400 0.929 . S
C392 H386 0.930 . S
C392 C393 1.367 . S
C392 C400 1.378 . S
C393 C392 1.367 . S
C393 C401 1.433 . S
C394 H390 0.929 . S
C394 C396 1.378 . S
C394 C398 1.361 . S
C395 C398 1.437 1_556 S
C395 C400 1.350 . S
C395 N403 1.427 . S
C396 H387 0.930 . S
C396 C394 1.378 . S
C396 C397 1.367 . S
C397 C396 1.367 . S
C397 C399 1.433 . S
C398 C394 1.361 . S
C398 C395 1.437 1_554 S
C398 N402 1.441 . S
C399 H389 0.929 . S
C399 C397 1.433 . S
C399 N402 1.384 . S
C400 H391 0.929 . S
C400 C392 1.378 . S
C400 C395 1.350 . S
C401 H388 0.929 . S
C401 C393 1.433 . S
C401 N403 1.384 . S
N402 C398 1.441 . S
N402 C399 1.384 . S
N403 C395 1.427 . S
N403 C401 1.384 . S
H404 C410 0.930 . S
H405 C414 0.930 . S
H406 C419 0.929 . S
H407 C417 0.929 . S
H408 C412 0.929 . S
H409 C418 0.929 . S
C410 H404 0.930 . S
C410 C411 1.367 . S
C410 C418 1.378 . S
C411 C410 1.367 . S
C411 C419 1.433 . S
C412 H408 0.929 . S
C412 C414 1.378 . S
C412 C416 1.350 . S
C413 C416 1.433 1_556 S
C413 C418 1.366 . S
C413 N421 1.440 . S
C414 H405 0.930 . S
C414 C412 1.378 . S
C414 C415 1.367 . S
C415 C414 1.367 . S
C415 C417 1.433 . S
C416 C412 1.350 . S
C416 C413 1.433 1_554 S
C416 N420 1.427 . S
C417 H407 0.929 . S
C417 C415 1.433 . S
C417 N420 1.384 . S
C418 H409 0.929 . S
C418 C410 1.378 . S
C418 C413 1.366 . S
C419 H406 0.929 . S
C419 C411 1.433 . S
C419 N421 1.384 . S
N420 C416 1.427 . S
N420 C417 1.384 . S
N421 C413 1.440 . S
N421 C419 1.384 . S
H422 C428 0.930 . S
H423 C432 0.930 . S
H424 C437 0.929 . S
H425 C435 0.929 . S
H426 C430 0.929 . S
H427 C436 0.929 . S
C428 H422 0.930 . S
C428 C429 1.367 . S
C428 C436 1.378 . S
C429 C428 1.367 . S
C429 C437 1.433 . S
C430 H426 0.929 . S
C430 C432 1.378 . S
C430 C434 1.350 . S
C431 C434 1.432 1_554 S
C431 C436 1.367 . S
C431 N439 1.440 . S
C432 H423 0.930 . S
C432 C430 1.378 . S
C432 C433 1.367 . S
C433 C432 1.367 . S
C433 C435 1.433 . S
C434 C430 1.350 . S
C434 C431 1.432 1_556 S
C434 N438 1.427 . S
C435 H425 0.929 . S
C435 C433 1.433 . S
C435 N438 1.384 . S
C436 H427 0.929 . S
C436 C428 1.378 . S
C436 C431 1.367 . S
C437 H424 0.929 . S
C437 C429 1.433 . S
C437 N439 1.384 . S
N438 C434 1.427 . S
N438 C435 1.384 . S
N439 C431 1.440 . S
N439 C437 1.384 . S
H440 C446 0.930 . S
H441 C450 0.930 . S
H442 C455 0.929 . S
H443 C453 0.929 . S
H444 C448 0.929 . S
H445 C454 0.929 . S
C446 H440 0.930 . S
C446 C447 1.367 . S
C446 C454 1.378 . S
C447 C446 1.367 . S
C447 C455 1.433 . S
C448 H444 0.929 . S
C448 C450 1.378 . S
C448 C452 1.350 . S
C449 C452 1.463 1_455 S
C449 C454 1.350 . S
C449 N457 1.427 . S
C450 H441 0.930 . S
C450 C448 1.378 . S
C450 C451 1.367 . S
C451 C450 1.367 . S
C451 C453 1.433 . S
C452 C448 1.350 . S
C452 C449 1.463 1_655 S
C452 N456 1.427 . S
C453 H443 0.929 . S
C453 C451 1.433 . S
C453 N456 1.384 . S
C454 H445 0.929 . S
C454 C446 1.378 . S
C454 C449 1.350 . S
C455 H442 0.929 . S
C455 C447 1.433 . S
C455 N457 1.384 . S
N456 C452 1.427 . S
N456 C453 1.384 . S
N457 C449 1.427 . S
N457 C455 1.384 . S
H458 C464 0.930 . S
H459 C468 0.930 . S
H460 C473 0.929 . S
H461 C471 0.929 . S
H462 C466 0.929 . S
H463 C472 0.929 . S
C464 H458 0.930 . S
C464 C465 1.367 . S
C464 C472 1.378 . S
C465 C464 1.367 . S
C465 C473 1.433 . S
C466 H462 0.929 . S
C466 C468 1.378 . S
C466 C470 1.350 . S
C467 C470 1.436 1_565 S
C467 C472 1.362 . S
C467 N475 1.441 . S
C468 H459 0.930 . S
C468 C466 1.378 . S
C468 C469 1.367 . S
C469 C468 1.367 . S
C469 C471 1.433 . S
C470 C466 1.350 . S
C470 C467 1.436 1_545 S
C470 N474 1.427 . S
C471 H461 0.929 . S
C471 C469 1.433 . S
C471 N474 1.384 . S
C472 H463 0.929 . S
C472 C464 1.378 . S
C472 C467 1.362 . S
C473 H460 0.929 . S
C473 C465 1.433 . S
C473 N475 1.384 . S
N474 C470 1.427 . S
N474 C471 1.384 . S
N475 C467 1.441 . S
N475 C473 1.384 . S
H476 C482 0.930 . S
H477 C486 0.930 . S
H478 C491 0.929 . S
H479 C489 0.929 . S
H480 C484 0.929 . S
H481 C490 0.929 . S
C482 H476 0.930 . S
C482 C483 1.367 . S
C482 C490 1.378 . S
C483 C482 1.367 . S
C483 C491 1.433 . S
C484 H480 0.929 . S
C484 C486 1.378 . S
C484 C488 1.350 . S
C485 C488 1.463 1_655 S
C485 C490 1.350 . S
C485 N493 1.427 . S
C486 H477 0.930 . S
C486 C484 1.378 . S
C486 C487 1.367 . S
C487 C486 1.367 . S
C487 C489 1.433 . S
C488 C484 1.350 . S
C488 C485 1.463 1_455 S
C488 N492 1.427 . S
C489 H479 0.929 . S
C489 C487 1.433 . S
C489 N492 1.384 . S
C490 H481 0.929 . S
C490 C482 1.378 . S
C490 C485 1.350 . S
C491 H478 0.929 . S
C491 C483 1.433 . S
C491 N493 1.384 . S
N492 C488 1.427 . S
N492 C489 1.384 . S
N493 C485 1.427 . S
N493 C491 1.384 . S
H494 C500 0.930 . S
H495 C504 0.930 . S
H496 C509 0.929 . S
H497 C507 0.929 . S
H498 C502 0.929 . S
H499 C508 0.929 . S
C500 H494 0.930 . S
C500 C501 1.367 . S
C500 C508 1.378 . S
C501 C500 1.367 . S
C501 C509 1.433 . S
C502 H498 0.929 . S
C502 C504 1.378 . S
C502 C506 1.350 . S
C503 C506 1.437 1_545 S
C503 C508 1.362 . S
C503 N511 1.441 . S
C504 H495 0.930 . S
C504 C502 1.378 . S
C504 C505 1.367 . S
C505 C504 1.367 . S
C505 C507 1.433 . S
C506 C502 1.350 . S
C506 C503 1.437 1_565 S
C506 N510 1.427 . S
C507 H497 0.929 . S
C507 C505 1.433 . S
C507 N510 1.384 . S
C508 H499 0.929 . S
C508 C500 1.378 . S
C508 C503 1.362 . S
C509 H496 0.929 . S
C509 C501 1.433 . S
C509 N511 1.384 . S
N510 C506 1.427 . S
N510 C507 1.384 . S
N511 C503 1.441 . S
N511 C509 1.384 . S
H512 C518 0.930 . S
H513 C522 0.930 . S
H514 C527 0.929 . S
H515 C525 0.929 . S
H516 C520 0.929 . S
H517 C526 0.929 . S
C518 H512 0.930 . S
C518 C519 1.367 . S
C518 C526 1.378 . S
C519 C518 1.367 . S
C519 C527 1.433 . S
C520 H516 0.929 . S
C520 C522 1.378 . S
C520 C524 1.350 . S
C521 C524 1.463 1_655 S
C521 C526 1.350 . S
C521 N529 1.427 . S
C522 H513 0.930 . S
C522 C520 1.378 . S
C522 C523 1.367 . S
C523 C522 1.367 . S
C523 C525 1.433 . S
C524 C520 1.350 . S
C524 C521 1.463 1_455 S
C524 N528 1.427 . S
C525 H515 0.929 . S
C525 C523 1.433 . S
C525 N528 1.384 . S
C526 H517 0.929 . S
C526 C518 1.378 . S
C526 C521 1.350 . S
C527 H514 0.929 . S
C527 C519 1.433 . S
C527 N529 1.384 . S
N528 C524 1.427 . S
N528 C525 1.384 . S
N529 C521 1.427 . S
N529 C527 1.384 . S
H530 C536 0.930 . S
H531 C540 0.930 . S
H532 C545 0.929 . S
H533 C543 0.929 . S
H534 C538 0.929 . S
H535 C544 0.929 . S
C536 H530 0.930 . S
C536 C537 1.367 . S
C536 C544 1.378 . S
C537 C536 1.367 . S
C537 C545 1.433 . S
C538 H534 0.929 . S
C538 C540 1.378 . S
C538 C542 1.350 . S
C539 C542 1.430 1_565 S
C539 C544 1.369 . S
C539 N547 1.439 . S
C540 H531 0.930 . S
C540 C538 1.378 . S
C540 C541 1.367 . S
C541 C540 1.367 . S
C541 C543 1.433 . S
C542 C538 1.350 . S
C542 C539 1.430 1_545 S
C542 N546 1.427 . S
C543 H533 0.929 . S
C543 C541 1.433 . S
C543 N546 1.384 . S
C544 H535 0.929 . S
C544 C536 1.378 . S
C544 C539 1.369 . S
C545 H532 0.929 . S
C545 C537 1.433 . S
C545 N547 1.384 . S
N546 C542 1.427 . S
N546 C543 1.384 . S
N547 C539 1.439 . S
N547 C545 1.384 . S
H548 C554 0.930 . S
H549 C558 0.930 . S
H550 C563 0.929 . S
H551 C561 0.929 . S
H552 C556 0.929 . S
H553 C562 0.929 . S
C554 H548 0.930 . S
C554 C555 1.367 . S
C554 C562 1.378 . S
C555 C554 1.367 . S
C555 C563 1.433 . S
C556 H552 0.929 . S
C556 C558 1.378 . S
C556 C560 1.350 . S
C557 C560 1.463 1_455 S
C557 C562 1.350 . S
C557 N565 1.427 . S
C558 H549 0.930 . S
C558 C556 1.378 . S
C558 C559 1.367 . S
C559 C558 1.367 . S
C559 C561 1.433 . S
C560 C556 1.350 . S
C560 C557 1.463 1_655 S
C560 N564 1.427 . S
C561 H551 0.929 . S
C561 C559 1.433 . S
C561 N564 1.384 . S
C562 H553 0.929 . S
C562 C554 1.378 . S
C562 C557 1.350 . S
C563 H550 0.929 . S
C563 C555 1.433 . S
C563 N565 1.384 . S
N564 C560 1.427 . S
N564 C561 1.384 . S
N565 C557 1.427 . S
N565 C563 1.384 . S
H566 C572 0.930 . S
H567 C576 0.930 . S
H568 C581 0.929 . S
H569 C579 0.929 . S
H570 C574 0.928 . S
H571 C580 0.929 . S
C572 H566 0.930 . S
C572 C573 1.367 . S
C572 C580 1.378 . S
C573 C572 1.367 . S
C573 C581 1.433 . S
C574 H570 0.928 . S
C574 C576 1.378 . S
C574 C578 1.359 . S
C575 C578 1.439 1_565 S
C575 C580 1.350 . S
C575 N583 1.427 . S
C576 H567 0.930 . S
C576 C574 1.378 . S
C576 C577 1.367 . S
C577 C576 1.367 . S
C577 C579 1.433 . S
C578 C574 1.359 . S
C578 C575 1.439 1_545 S
C578 N582 1.441 . S
C579 H569 0.929 . S
C579 C577 1.433 . S
C579 N582 1.384 . S
C580 H571 0.929 . S
C580 C572 1.378 . S
C580 C575 1.350 . S
C581 H568 0.929 . S
C581 C573 1.433 . S
C581 N583 1.384 . S
N582 C578 1.441 . S
N582 C579 1.384 . S
N583 C575 1.427 . S
N583 C581 1.384 . S
H584 C590 0.930 . S
H585 C594 0.930 . S
H586 C599 0.929 . S
H587 C597 0.929 . S
H588 C592 0.929 . S
H589 C598 0.929 . S
C590 H584 0.930 . S
C590 C591 1.367 . S
C590 C598 1.378 . S
C591 C590 1.367 . S
C591 C599 1.433 . S
C592 H588 0.929 . S
C592 C594 1.378 . S
C592 C596 1.350 . S
C593 C596 1.463 . S
C593 C598 1.350 . S
C593 N601 1.427 . S
C594 H585 0.930 . S
C594 C592 1.378 . S
C594 C595 1.367 . S
C595 C594 1.367 . S
C595 C597 1.433 . S
C596 C592 1.350 . S
C596 C593 1.463 . S
C596 N600 1.427 . S
C597 H587 0.929 . S
C597 C595 1.433 . S
C597 N600 1.384 . S
C598 H589 0.929 . S
C598 C590 1.378 . S
C598 C593 1.350 . S
C599 H586 0.929 . S
C599 C591 1.433 . S
C599 N601 1.384 . S
N600 C596 1.427 . S
N600 C597 1.384 . S
N601 C593 1.427 . S
N601 C599 1.384 . S
H602 C608 0.930 . S
H603 C612 0.930 . S
H604 C617 0.929 . S
H605 C615 0.929 . S
H606 C610 0.929 . S
H607 C616 0.929 . S
C608 H602 0.930 . S
C608 C609 1.367 . S
C608 C616 1.378 . S
C609 C608 1.367 . S
C609 C617 1.433 . S
C610 H606 0.929 . S
C610 C612 1.378 . S
C610 C614 1.350 . S
C611 C614 1.463 . S
C611 C616 1.350 . S
C611 N619 1.427 . S
C612 H603 0.930 . S
C612 C610 1.378 . S
C612 C613 1.367 . S
C613 C612 1.367 . S
C613 C615 1.433 . S
C614 C610 1.350 . S
C614 C611 1.463 . S
C614 N618 1.427 . S
C615 H605 0.929 . S
C615 C613 1.433 . S
C615 N618 1.384 . S
C616 H607 0.929 . S
C616 C608 1.378 . S
C616 C611 1.350 . S
C617 H604 0.929 . S
C617 C609 1.433 . S
C617 N619 1.384 . S
N618 C614 1.427 . S
N618 C615 1.384 . S
N619 C611 1.427 . S
N619 C617 1.384 . S
H620 C626 0.930 . S
H621 C630 0.930 . S
H622 C635 0.929 . S
H623 C633 0.929 . S
H624 C628 0.929 . S
H625 C634 0.929 . S
C626 H620 0.930 . S
C626 C627 1.367 . S
C626 C634 1.378 . S
C627 C626 1.367 . S
C627 C635 1.433 . S
C628 H624 0.929 . S
C628 C630 1.378 . S
C628 C632 1.350 . S
C629 C632 1.463 . S
C629 C634 1.350 . S
C629 N637 1.427 . S
C630 H621 0.930 . S
C630 C628 1.378 . S
C630 C631 1.367 . S
C631 C630 1.367 . S
C631 C633 1.433 . S
C632 C628 1.350 . S
C632 C629 1.463 . S
C632 N636 1.427 . S
C633 H623 0.929 . S
C633 C631 1.433 . S
C633 N636 1.384 . S
C634 H625 0.929 . S
C634 C626 1.378 . S
C634 C629 1.350 . S
C635 H622 0.929 . S
C635 C627 1.433 . S
C635 N637 1.384 . S
N636 C632 1.427 . S
N636 C633 1.384 . S
N637 C629 1.427 . S
N637 C635 1.384 . S
H638 C644 0.930 . S
H639 C648 0.930 . S
H640 C653 0.929 . S
H641 C651 0.929 . S
H642 C646 0.929 . S
H643 C652 0.929 . S
C644 H638 0.930 . S
C644 C645 1.367 . S
C644 C652 1.378 . S
C645 C644 1.367 . S
C645 C653 1.433 . S
C646 H642 0.929 . S
C646 C648 1.378 . S
C646 C650 1.350 . S
C647 C650 1.463 . S
C647 C652 1.350 . S
C647 N655 1.427 . S
C648 H639 0.930 . S
C648 C646 1.378 . S
C648 C649 1.367 . S
C649 C648 1.367 . S
C649 C651 1.433 . S
C650 C646 1.350 . S
C650 C647 1.463 . S
C650 N654 1.427 . S
C651 H641 0.929 . S
C651 C649 1.433 . S
C651 N654 1.384 . S
C652 H643 0.929 . S
C652 C644 1.378 . S
C652 C647 1.350 . S
C653 H640 0.929 . S
C653 C645 1.433 . S
C653 N655 1.384 . S
N654 C650 1.427 . S
N654 C651 1.384 . S
N655 C647 1.427 . S
N655 C653 1.384 . S
H656 C662 0.930 . S
H657 C666 0.930 . S
H658 C671 0.929 . S
H659 C669 0.929 . S
H660 C664 0.929 . S
H661 C670 0.929 . S
C662 H656 0.930 . S
C662 C663 1.367 . S
C662 C670 1.378 . S
C663 C662 1.367 . S
C663 C671 1.433 . S
C664 H660 0.929 . S
C664 C666 1.378 . S
C664 C668 1.350 . S
C665 C668 1.463 . S
C665 C670 1.350 . S
C665 N673 1.427 . S
C666 H657 0.930 . S
C666 C664 1.378 . S
C666 C667 1.367 . S
C667 C666 1.367 . S
C667 C669 1.433 . S
C668 C664 1.350 . S
C668 C665 1.463 . S
C668 N672 1.427 . S
C669 H659 0.929 . S
C669 C667 1.433 . S
C669 N672 1.384 . S
C670 H661 0.929 . S
C670 C662 1.378 . S
C670 C665 1.350 . S
C671 H658 0.929 . S
C671 C663 1.433 . S
C671 N673 1.384 . S
N672 C668 1.427 . S
N672 C669 1.384 . S
N673 C665 1.427 . S
N673 C671 1.384 . S
H674 C680 0.930 . S
H675 C684 0.930 . S
H676 C689 0.929 . S
H677 C687 0.929 . S
H678 C682 0.929 . S
H679 C688 0.929 . S
C680 H674 0.930 . S
C680 C681 1.367 . S
C680 C688 1.378 . S
C681 C680 1.367 . S
C681 C689 1.433 . S
C682 H678 0.929 . S
C682 C684 1.378 . S
C682 C686 1.350 . S
C683 C686 1.463 . S
C683 C688 1.350 . S
C683 N691 1.427 . S
C684 H675 0.930 . S
C684 C682 1.378 . S
C684 C685 1.367 . S
C685 C684 1.367 . S
C685 C687 1.433 . S
C686 C682 1.350 . S
C686 C683 1.463 . S
C686 N690 1.427 . S
C687 H677 0.929 . S
C687 C685 1.433 . S
C687 N690 1.384 . S
C688 H679 0.929 . S
C688 C680 1.378 . S
C688 C683 1.350 . S
C689 H676 0.929 . S
C689 C681 1.433 . S
C689 N691 1.384 . S
N690 C686 1.427 . S
N690 C687 1.384 . S
N691 C683 1.427 . S
N691 C689 1.384 . S
H692 C698 0.930 . S
H693 C702 0.930 . S
H694 C707 0.929 . S
H695 C705 0.929 . S
H696 C700 0.929 . S
H697 C706 0.929 . S
C698 H692 0.930 . S
C698 C699 1.367 . S
C698 C706 1.378 . S
C699 C698 1.367 . S
C699 C707 1.433 . S
C700 H696 0.929 . S
C700 C702 1.378 . S
C700 C704 1.350 . S
C701 C704 1.463 . S
C701 C706 1.350 . S
C701 N709 1.427 . S
C702 H693 0.930 . S
C702 C700 1.378 . S
C702 C703 1.367 . S
C703 C702 1.367 . S
C703 C705 1.433 . S
C704 C700 1.350 . S
C704 C701 1.463 . S
C704 N708 1.427 . S
C705 H695 0.929 . S
C705 C703 1.433 . S
C705 N708 1.384 . S
C706 H697 0.929 . S
C706 C698 1.378 . S
C706 C701 1.350 . S
C707 H694 0.929 . S
C707 C699 1.433 . S
C707 N709 1.384 . S
N708 C704 1.427 . S
N708 C705 1.384 . S
N709 C701 1.427 . S
N709 C707 1.384 . S
H710 C716 0.930 . S
H711 C720 0.930 . S
H712 C725 0.929 . S
H713 C723 0.929 . S
H714 C718 0.929 . S
H715 C724 0.929 . S
C716 H710 0.930 . S
C716 C717 1.367 . S
C716 C724 1.378 . S
C717 C716 1.367 . S
C717 C725 1.433 . S
C718 H714 0.929 . S
C718 C720 1.378 . S
C718 C722 1.350 . S
C719 C722 1.463 . S
C719 C724 1.350 . S
C719 N727 1.427 . S
C720 H711 0.930 . S
C720 C718 1.378 . S
C720 C721 1.367 . S
C721 C720 1.367 . S
C721 C723 1.433 . S
C722 C718 1.350 . S
C722 C719 1.463 . S
C722 N726 1.427 . S
C723 H713 0.929 . S
C723 C721 1.433 . S
C723 N726 1.384 . S
C724 H715 0.929 . S
C724 C716 1.378 . S
C724 C719 1.350 . S
C725 H712 0.929 . S
C725 C717 1.433 . S
C725 N727 1.384 . S
N726 C722 1.427 . S
N726 C723 1.384 . S
N727 C719 1.427 . S
N727 C725 1.384 . S
H728 C734 0.930 . S
H729 C738 0.930 . S
H730 C743 0.929 . S
H731 C741 0.929 . S
H732 C736 0.929 . S
H733 C742 0.929 . S
C734 H728 0.930 . S
C734 C735 1.367 . S
C734 C742 1.378 . S
C735 C734 1.367 . S
C735 C743 1.433 . S
C736 H732 0.929 . S
C736 C738 1.378 . S
C736 C740 1.350 . S
C737 C740 1.463 . S
C737 C742 1.350 . S
C737 N745 1.427 . S
C738 H729 0.930 . S
C738 C736 1.378 . S
C738 C739 1.367 . S
C739 C738 1.367 . S
C739 C741 1.433 . S
C740 C736 1.350 . S
C740 C737 1.463 . S
C740 N744 1.427 . S
C741 H731 0.929 . S
C741 C739 1.433 . S
C741 N744 1.384 . S
C742 H733 0.929 . S
C742 C734 1.378 . S
C742 C737 1.350 . S
C743 H730 0.929 . S
C743 C735 1.433 . S
C743 N745 1.384 . S
N744 C740 1.427 . S
N744 C741 1.384 . S
N745 C737 1.427 . S
N745 C743 1.384 . S
H746 C752 0.930 . S
H747 C756 0.930 . S
H748 C761 0.929 . S
H749 C759 0.929 . S
H750 C754 0.929 . S
H751 C760 0.929 . S
C752 H746 0.930 . S
C752 C753 1.367 . S
C752 C760 1.378 . S
C753 C752 1.367 . S
C753 C761 1.433 . S
C754 H750 0.929 . S
C754 C756 1.378 . S
C754 C758 1.350 . S
C755 C758 1.463 . S
C755 C760 1.350 . S
C755 N763 1.427 . S
C756 H747 0.930 . S
C756 C754 1.378 . S
C756 C757 1.367 . S
C757 C756 1.367 . S
C757 C759 1.433 . S
C758 C754 1.350 . S
C758 C755 1.463 . S
C758 N762 1.427 . S
C759 H749 0.929 . S
C759 C757 1.433 . S
C759 N762 1.384 . S
C760 H751 0.929 . S
C760 C752 1.378 . S
C760 C755 1.350 . S
C761 H748 0.929 . S
C761 C753 1.433 . S
C761 N763 1.384 . S
N762 C758 1.427 . S
N762 C759 1.384 . S
N763 C755 1.427 . S
N763 C761 1.384 . S
H764 C770 0.930 . S
H765 C774 0.930 . S
H766 C779 0.929 . S
H767 C777 0.929 . S
H768 C772 0.929 . S
H769 C778 0.929 . S
C770 H764 0.930 . S
C770 C771 1.367 . S
C770 C778 1.378 . S
C771 C770 1.367 . S
C771 C779 1.433 . S
C772 H768 0.929 . S
C772 C774 1.378 . S
C772 C776 1.350 . S
C773 C776 1.463 . S
C773 C778 1.350 . S
C773 N781 1.427 . S
C774 H765 0.930 . S
C774 C772 1.378 . S
C774 C775 1.367 . S
C775 C774 1.367 . S
C775 C777 1.433 . S
C776 C772 1.350 . S
C776 C773 1.463 . S
C776 N780 1.427 . S
C777 H767 0.929 . S
C777 C775 1.433 . S
C777 N780 1.384 . S
C778 H769 0.929 . S
C778 C770 1.378 . S
C778 C773 1.350 . S
C779 H766 0.929 . S
C779 C771 1.433 . S
C779 N781 1.384 . S
N780 C776 1.427 . S
N780 C777 1.384 . S
N781 C773 1.427 . S
N781 C779 1.384 . S
H782 C788 0.930 . S
H783 C792 0.930 . S
H784 C797 0.929 . S
H785 C795 0.929 . S
H786 C790 0.929 . S
H787 C796 0.929 . S
C788 H782 0.930 . S
C788 C789 1.367 . S
C788 C796 1.378 . S
C789 C788 1.367 . S
C789 C797 1.433 . S
C790 H786 0.929 . S
C790 C792 1.378 . S
C790 C794 1.350 . S
C791 C794 1.463 . S
C791 C796 1.350 . S
C791 N799 1.427 . S
C792 H783 0.930 . S
C792 C790 1.378 . S
C792 C793 1.367 . S
C793 C792 1.367 . S
C793 C795 1.433 . S
C794 C790 1.350 . S
C794 C791 1.463 . S
C794 N798 1.427 . S
C795 H785 0.929 . S
C795 C793 1.433 . S
C795 N798 1.384 . S
C796 H787 0.929 . S
C796 C788 1.378 . S
C796 C791 1.350 . S
C797 H784 0.929 . S
C797 C789 1.433 . S
C797 N799 1.384 . S
N798 C794 1.427 . S
N798 C795 1.384 . S
N799 C791 1.427 . S
N799 C797 1.384 . S
C231 C221 0.996 . S
C235 C11 0.994 . S
C249 C179 0.991 . S
C253 C25 0.995 . S
C267 C39 0.996 . S
C271 C193 0.994 . S
C285 C207 0.989 . S
C289 C53 0.989 . S
C303 C137 0.992 . S
C307 C67 0.989 . S
C321 C81 0.988 . S
C325 C151 0.989 . S
C339 C95 0.990 . S
C343 C165 0.994 . S
C357 C109 0.993 . S
C361 C123 0.996 . S
C375 C83 1.249 . S
C379 C8 1.391 . S
C393 C92 1.387 . S
C397 C27 1.254 . S
C411 C111 1.229 . S
C415 C36 1.391 . S
C429 C55 1.238 . S
C433 C64 1.396 . S
C447 C7 1.374 . S
C451 C21 1.369 . S
C465 C41 1.238 . S
C469 C22 1.385 . S
C483 C35 1.380 . S
C487 C49 1.370 . S
C501 C13 1.241 . S
C505 C50 1.384 . S
C519 C105 1.380 . S
C523 C63 1.368 . S
C537 C69 1.229 . S
C541 C78 1.397 . S
C555 C77 1.367 . S
C559 C91 1.380 . S
C573 C106 1.382 . S
C577 C97 1.255 . S
C591 C195 1.242 . S
C595 C120 1.383 . S
C609 C139 1.236 . S
C613 C204 1.386 . S
C627 C223 1.244 . S
C631 C148 1.383 . S
C645 C176 1.381 . S
C649 C167 1.254 . S
C663 C119 1.380 . S
C667 C133 1.367 . S
C681 C134 1.396 . S
C685 C153 1.227 . S
C699 C161 1.367 . S
C703 C147 1.380 . S
C717 C125 1.230 . S
C721 C162 1.390 . S
C735 C217 1.373 . S
C739 C175 1.378 . S
C753 C181 1.244 . S
C757 C190 1.393 . S
C771 C189 1.367 . S
C775 C203 1.377 . S
C789 C218 1.382 . S
C793 C209 1.255 . S
