# Generated by pormake.
# Topology xfa, (7)-cn, num edge types: 1
# Building blocks:
#     Node 0, Type 0, BuildingBlock: HICVOG_clean_sbu_0, # of connection points: 7
#     Node 1, Type 0, BuildingBlock: HICVOG_clean_sbu_0, # of connection points: 7
#     Node 2, Type 0, BuildingBlock: HICVOG_clean_sbu_0, # of connection points: 7
#     Node 3, Type 0, BuildingBlock: HICVOG_clean_sbu_0, # of connection points: 7
#     Node 4, Type 0, BuildingBlock: HICVOG_clean_sbu_0, # of connection points: 7
#     Node 5, Type 0, BuildingBlock: HICVOG_clean_sbu_0, # of connection points: 7
#     Node 6, Type 0, BuildingBlock: HICVOG_clean_sbu_0, # of connection points: 7
#     Node 7, Type 0, BuildingBlock: HICVOG_clean_sbu_0, # of connection points: 7
#     Edge 8, Type (0, 0), BuildingBlock: UVAHIK_clean_linker_0, # of connection points: 2
#     Edge 9, Type (0, 0), BuildingBlock: UVAHIK_clean_linker_0, # of connection points: 2
#     Edge 10, Type (0, 0), BuildingBlock: UVAHIK_clean_linker_0, # of connection points: 2
#     Edge 11, Type (0, 0), BuildingBlock: UVAHIK_clean_linker_0, # of connection points: 2
#     Edge 12, Type (0, 0), BuildingBlock: UVAHIK_clean_linker_0, # of connection points: 2
#     Edge 13, Type (0, 0), BuildingBlock: UVAHIK_clean_linker_0, # of connection points: 2
#     Edge 14, Type (0, 0), BuildingBlock: UVAHIK_clean_linker_0, # of connection points: 2
#     Edge 15, Type (0, 0), BuildingBlock: UVAHIK_clean_linker_0, # of connection points: 2
#     Edge 16, Type (0, 0), BuildingBlock: UVAHIK_clean_linker_0, # of connection points: 2
#     Edge 17, Type (0, 0), BuildingBlock: UVAHIK_clean_linker_0, # of connection points: 2
#     Edge 18, Type (0, 0), BuildingBlock: UVAHIK_clean_linker_0, # of connection points: 2
#     Edge 19, Type (0, 0), BuildingBlock: UVAHIK_clean_linker_0, # of connection points: 2
#     Edge 20, Type (0, 0), BuildingBlock: UVAHIK_clean_linker_0, # of connection points: 2
#     Edge 21, Type (0, 0), BuildingBlock: UVAHIK_clean_linker_0, # of connection points: 2
#     Edge 22, Type (0, 0), BuildingBlock: UVAHIK_clean_linker_0, # of connection points: 2
#     Edge 23, Type (0, 0), BuildingBlock: UVAHIK_clean_linker_0, # of connection points: 2
#     Edge 24, Type (0, 0), BuildingBlock: UVAHIK_clean_linker_0, # of connection points: 2
#     Edge 25, Type (0, 0), BuildingBlock: UVAHIK_clean_linker_0, # of connection points: 2
#     Edge 26, Type (0, 0), BuildingBlock: UVAHIK_clean_linker_0, # of connection points: 2
#     Edge 27, Type (0, 0), BuildingBlock: UVAHIK_clean_linker_0, # of connection points: 2
#     Edge 28, Type (0, 0), BuildingBlock: UVAHIK_clean_linker_0, # of connection points: 2
#     Edge 29, Type (0, 0), BuildingBlock: UVAHIK_clean_linker_0, # of connection points: 2
#     Edge 30, Type (0, 0), BuildingBlock: UVAHIK_clean_linker_0, # of connection points: 2
#     Edge 31, Type (0, 0), BuildingBlock: UVAHIK_clean_linker_0, # of connection points: 2
#     Edge 32, Type (0, 0), BuildingBlock: UVAHIK_clean_linker_0, # of connection points: 2
#     Edge 33, Type (0, 0), BuildingBlock: UVAHIK_clean_linker_0, # of connection points: 2
#     Edge 34, Type (0, 0), BuildingBlock: UVAHIK_clean_linker_0, # of connection points: 2
#     Edge 35, Type (0, 0), BuildingBlock: UVAHIK_clean_linker_0, # of connection points: 2
# Relax obj value: 0.155
# Max RMSD: 0.217
# Mean RMSD: 0.206
data_MOF--net-xfa--node1-HICVOG_clean_sbu_0--edge1-UVAHIK_clean_linker_0
_symmetry_space_group_name_H-M    P1
_symmetry_Int_Tables_number       1
_symmetry_cell_setting            triclinic
loop_
_symmetry_equiv_pos_as_xyz
'x, y, z'
_cell_length_a     57.638837
_cell_length_b     57.752518
_cell_length_c     21.942866
_cell_angle_alpha  90.115613
_cell_angle_beta   89.773644
_cell_angle_gamma 89.87458
loop_
_atom_site_label
_atom_site_type_symbol
_atom_site_fract_x
_atom_site_fract_y
_atom_site_fract_z
_atom_type_partial_charge
Zn0 Zn 0.09234 0.274 0.33531 0.0
C1 C 0.11304 0.22394 0.21819 0.0
N2 N 0.13362 0.22718 0.24502 0.0
C3 C 0.1284 0.24223 0.28988 0.0
N4 N 0.1056 0.24795 0.29034 0.0
N5 N 0.09595 0.23606 0.24549 0.0
C6 C 0.06323 0.2451 0.10819 0.0
O7 O 0.06663 0.2644 0.13865 0.0
O8 O 0.09238 0.26748 0.42563 0.0
Zn9 Zn 0.06372 0.23079 0.229 0.0
N10 N 0.11206 0.30013 0.3149 0.0
C11 C 0.13112 0.31865 0.23199 0.0
C12 C 0.11638 0.30159 0.25411 0.0
C13 C 0.12161 0.31551 0.35489 0.0
N14 N 0.14087 0.33377 0.27154 0.0
C15 C 0.13654 0.3329 0.33254 0.0
O16 O 0.04276 0.25736 0.25093 0.0
C17 C 0.04199 0.2763 0.2805 0.0
O18 O 0.05929 0.28347 0.31127 0.0
H19 H 0.10856 0.28932 0.22309 0.0
H20 H 0.1181 0.31392 0.40316 0.0
C21 C 0.03378 0.1924 0.26299 0.0
C22 C 0.02696 0.17392 0.30091 0.0
C23 C 0.06122 0.17903 0.3592 0.0
C24 C 0.06777 0.19736 0.322 0.0
N25 N 0.054 0.20374 0.2747 0.0
N26 N 0.04101 0.16787 0.34803 0.0
H27 H 0.02292 0.19819 0.22588 0.0
C28 C 0.08245 0.28131 0.46255 0.0
O29 O 0.07285 0.30028 0.44123 0.0
O30 O 0.06088 0.22632 0.13778 0.0
H31 H 0.0836 0.20664 0.33142 0.0
H32 H 0.13486 0.31985 0.18375 0.0
H33 H 0.07198 0.17383 0.39709 0.0
Zn34 Zn 0.29521 0.5623 0.47504 0.0
C35 C 0.28029 0.6252 0.54396 0.0
N36 N 0.29457 0.63207 0.49895 0.0
C37 C 0.29925 0.61216 0.46988 0.0
N38 N 0.28858 0.59394 0.49584 0.0
N39 N 0.27629 0.60213 0.54222 0.0
C40 C 0.26986 0.57569 0.69889 0.0
O41 O 0.28281 0.56249 0.66364 0.0
O42 O 0.30051 0.56087 0.38404 0.0
Zn43 Zn 0.25025 0.58728 0.58357 0.0
N44 N 0.32252 0.55281 0.51984 0.0
C45 C 0.34795 0.55966 0.60303 0.0
C46 C 0.32919 0.56633 0.56742 0.0
C47 C 0.33393 0.53276 0.50633 0.0
N48 N 0.3593 0.53968 0.58977 0.0
C49 C 0.35296 0.52589 0.54226 0.0
O50 O 0.24319 0.55382 0.55873 0.0
C51 C 0.25108 0.53761 0.52492 0.0
O52 O 0.26959 0.54008 0.49393 0.0
H53 H 0.31985 0.58206 0.57821 0.0
H54 H 0.32779 0.52214 0.46911 0.0
C55 C 0.20751 0.61534 0.5968 0.0
C56 C 0.18984 0.62919 0.57139 0.0
C57 C 0.2049 0.62148 0.47243 0.0
C58 C 0.2223 0.6079 0.49758 0.0
N59 N 0.22346 0.60523 0.55899 0.0
N60 N 0.18923 0.63185 0.50976 0.0
H61 H 0.20893 0.61313 0.64561 0.0
C62 C 0.2834 0.56799 0.35274 0.0
O63 O 0.26453 0.5748 0.38146 0.0
O64 O 0.25434 0.58833 0.6747 0.0
H65 H 0.23511 0.59972 0.46847 0.0
H66 H 0.35339 0.5702 0.64118 0.0
H67 H 0.20391 0.62392 0.42364 0.0
Zn68 Zn 0.93641 0.74817 0.83847 0.0
C69 C 0.91282 0.79929 0.72957 0.0
N70 N 0.89275 0.795 0.75829 0.0
C71 C 0.89917 0.77986 0.80154 0.0
N72 N 0.92214 0.77497 0.79912 0.0
N73 N 0.93069 0.78754 0.75389 0.0
C74 C 0.95763 0.78012 0.6109 0.0
O75 O 0.95146 0.76147 0.64105 0.0
O76 O 0.93566 0.7516 0.92993 0.0
Zn77 Zn 0.96238 0.79341 0.73224 0.0
N78 N 0.91757 0.72216 0.81277 0.0
C79 C 0.90017 0.70493 0.72577 0.0
C80 C 0.91435 0.72169 0.75148 0.0
C81 C 0.9074 0.70613 0.84987 0.0
N82 N 0.88978 0.68917 0.76241 0.0
C83 C 0.89294 0.68909 0.82389 0.0
O84 O 0.98382 0.76727 0.75083 0.0
C85 C 0.98613 0.74835 0.77963 0.0
O86 O 0.96979 0.74019 0.81253 0.0
H87 H 0.92257 0.73455 0.72292 0.0
H88 H 0.91004 0.70701 0.89862 0.0
C89 C 0.9926 0.83194 0.7616 0.0
C90 C 0.99982 0.8509 0.79738 0.0
C91 C 0.96646 0.84619 0.86005 0.0
C92 C 0.95944 0.8275 0.82465 0.0
N93 N 0.9726 0.82068 0.77625 0.0
N94 N 0.98641 0.85736 0.84577 0.0
H95 H 1.00293 0.82577 0.72361 0.0
C96 C 0.94767 0.76738 0.95504 0.0
O97 O 0.95999 0.78131 0.92049 0.0
O98 O 0.96386 0.7979 0.64094 0.0
H99 H 0.94373 0.81831 0.83626 0.0
H100 H 0.89731 0.70448 0.67709 0.0
H101 H 0.95621 0.85173 0.89887 0.0
Zn102 Zn 0.77799 0.43564 0.0914 0.0
C103 C 0.73176 0.40841 0.97467 0.0
N104 N 0.7377 0.38863 0.00232 0.0
C105 C 0.7508 0.39603 0.04895 0.0
N106 N 0.75308 0.41937 0.04911 0.0
N107 N 0.74054 0.42712 0.00293 0.0
C108 C 0.74297 0.45332 0.86059 0.0
O109 O 0.76224 0.44717 0.88805 0.0
O110 O 0.77327 0.43471 0.18249 0.0
Zn111 Zn 0.73183 0.45844 0.98384 0.0
N112 N 0.80622 0.41938 0.06808 0.0
C113 C 0.82792 0.40648 0.98206 0.0
C114 C 0.80826 0.4169 0.00672 0.0
C115 C 0.82317 0.41166 0.1064 0.0
N116 N 0.84491 0.39905 0.01978 0.0
C117 C 0.8433 0.40124 0.08148 0.0
O118 O 0.75671 0.48159 1.0007 0.0
C119 C 0.77522 0.48492 0.03078 0.0
O120 O 0.78373 0.46927 0.06507 0.0
H121 H 0.7947 0.42325 0.97714 0.0
H122 H 0.82125 0.41416 0.15504 0.0
C123 C 0.69115 0.48543 0.01835 0.0
C124 C 0.67223 0.49111 0.05663 0.0
C125 C 0.68094 0.45843 0.11811 0.0
C126 C 0.69958 0.45294 0.08029 0.0
N127 N 0.70442 0.46651 0.03132 0.0
N128 N 0.66782 0.47734 0.1056 0.0
H129 H 0.69572 0.49615 0.97978 0.0
C130 C 0.75742 0.44705 0.20675 0.0
O131 O 0.74449 0.46016 0.17165 0.0
O132 O 0.72582 0.45987 0.89305 0.0
H133 H 0.7103 0.43808 0.09044 0.0
H134 H 0.82978 0.40446 0.93326 0.0
H135 H 0.677 0.44785 0.15743 0.0
Zn136 Zn 0.58868 0.24961 0.40939 0.0
C137 C 0.61088 0.30121 0.52044 0.0
N138 N 0.63083 0.29795 0.49016 0.0
C139 C 0.62496 0.28208 0.44819 0.0
N140 N 0.60237 0.2759 0.45242 0.0
N141 N 0.59354 0.28814 0.49817 0.0
C142 C 0.55747 0.28121 0.64276 0.0
O143 O 0.55812 0.26075 0.61656 0.0
O144 O 0.58832 0.25577 0.3185 0.0
Zn145 Zn 0.56149 0.29325 0.51801 0.0
N146 N 0.60903 0.22386 0.42848 0.0
C147 C 0.63012 0.20619 0.50898 0.0
C148 C 0.61459 0.22286 0.48855 0.0
C149 C 0.61805 0.20837 0.38768 0.0
N150 N 0.6394 0.191 0.46854 0.0
C151 C 0.63381 0.1914 0.40831 0.0
O152 O 0.54133 0.26617 0.49935 0.0
C153 C 0.53955 0.24715 0.47063 0.0
O154 O 0.55596 0.23959 0.43674 0.0
H155 H 0.60717 0.23522 0.52024 0.0
H156 H 0.61349 0.2096 0.34 0.0
C157 C 0.53121 0.3314 0.48376 0.0
C158 C 0.52348 0.34887 0.44384 0.0
C159 C 0.55547 0.34092 0.37842 0.0
C160 C 0.56295 0.32364 0.41776 0.0
N161 N 0.55074 0.31916 0.46955 0.0
N162 N 0.53596 0.35301 0.39218 0.0
H163 H 0.52155 0.32706 0.52453 0.0
C164 C 0.57154 0.26722 0.296 0.0
O165 O 0.55495 0.27459 0.33247 0.0
O166 O 0.55846 0.29919 0.60928 0.0
H167 H 0.57819 0.3136 0.40639 0.0
H168 H 0.63486 0.20537 0.55658 0.0
H169 H 0.56495 0.34457 0.3369 0.0
Zn170 Zn 0.23036 0.06057 0.77183 0.0
C171 C 0.24519 0.12343 0.70339 0.0
N172 N 0.22997 0.13007 0.74667 0.0
C173 C 0.22538 0.11016 0.77536 0.0
N174 N 0.23691 0.09213 0.75076 0.0
N175 N 0.24977 0.10042 0.7057 0.0
C176 C 0.25722 0.07375 0.54939 0.0
O177 O 0.24343 0.06129 0.58399 0.0
O178 O 0.22508 0.05938 0.86315 0.0
Zn179 Zn 0.2764 0.08549 0.666 0.0
N180 N 0.2034 0.05072 0.72584 0.0
C181 C 0.1793 0.05727 0.63977 0.0
C182 C 0.19743 0.06406 0.67734 0.0
C183 C 0.19181 0.03074 0.73851 0.0
N184 N 0.16788 0.03731 0.65192 0.0
C185 C 0.17349 0.02372 0.70033 0.0
O186 O 0.28398 0.05216 0.69286 0.0
C187 C 0.2755 0.03609 0.72596 0.0
O188 O 0.25642 0.03872 0.75439 0.0
H189 H 0.20689 0.07971 0.6672 0.0
H190 H 0.19728 0.02022 0.7766 0.0
C191 C 0.31912 0.11361 0.65352 0.0
C192 C 0.33658 0.12763 0.67924 0.0
C193 C 0.32057 0.12097 0.77764 0.0
C194 C 0.3034 0.10722 0.75219 0.0
N195 N 0.30282 0.10392 0.6909 0.0
N196 N 0.3366 0.13087 0.74075 0.0
H197 H 0.31816 0.11089 0.60479 0.0
C198 C 0.2426 0.0662 0.89336 0.0
O199 O 0.26127 0.07263 0.86333 0.0
O200 O 0.27293 0.0859 0.57443 0.0
H201 H 0.29036 0.09936 0.78097 0.0
H202 H 0.17446 0.06766 0.60085 0.0
H203 H 0.32112 0.12388 0.82633 0.0
Zn204 Zn 0.43672 0.77321 0.91586 0.0
C205 C 0.42511 0.71272 0.00683 0.0
N206 N 0.40593 0.71264 0.97252 0.0
C207 C 0.40898 0.73119 0.93672 0.0
N208 N 0.42896 0.74252 0.94891 0.0
N209 N 0.43923 0.73061 0.99294 0.0
C210 C 0.46336 0.74444 0.14587 0.0
O211 O 0.45508 0.76263 0.11729 0.0
O212 O 0.43942 0.77103 0.82442 0.0
Zn213 Zn 0.47028 0.73419 0.02423 0.0
N214 N 0.41089 0.79342 0.93744 0.0
C215 C 0.38165 0.80134 0.01137 0.0
C216 C 0.40058 0.78839 0.9916 0.0
C217 C 0.40333 0.81148 0.90256 0.0
N218 N 0.37397 0.81913 0.97668 0.0
C219 C 0.38423 0.82486 0.92275 0.0
O220 O 0.48271 0.76615 0.01576 0.0
C221 C 0.48157 0.7853 0.98777 0.0
O222 O 0.46606 0.78929 0.9479 0.0
H223 H 0.40698 0.77427 0.01917 0.0
H224 H 0.41188 0.8151 0.85967 0.0
C225 C 0.50155 0.69483 0.99412 0.0
C226 C 0.51716 0.68363 0.95375 0.0
C227 C 0.51126 0.71373 0.88162 0.0
C228 C 0.49631 0.72486 0.92189 0.0
N229 N 0.49144 0.71516 0.97675 0.0
N230 N 0.52129 0.69354 0.89848 0.0
H231 H 0.49742 0.68762 0.03829 0.0
C232 C 0.44846 0.75321 0.79979 0.0
O233 O 0.45544 0.73612 0.83457 0.0
O234 O 0.47127 0.72763 0.1144 0.0
H235 H 0.48866 0.74131 0.90986 0.0
H236 H 0.37314 0.79736 0.0541 0.0
H237 H 0.51509 0.7212 0.83755 0.0
Zn238 Zn 0.74985 0.93697 0.16445 0.0
C239 C 0.80291 0.91533 0.27007 0.0
N240 N 0.79963 0.89534 0.24039 0.0
C241 C 0.78372 0.90118 0.19853 0.0
N242 N 0.77745 0.92374 0.2025 0.0
N243 N 0.78978 0.93261 0.24771 0.0
C244 C 0.77981 0.96066 0.39063 0.0
O245 O 0.76116 0.95495 0.35982 0.0
O246 O 0.75243 0.93513 0.07279 0.0
Zn247 Zn 0.79459 0.96449 0.26961 0.0
N248 N 0.72406 0.91852 0.1942 0.0
C249 C 0.70914 0.89899 0.28106 0.0
C250 C 0.72638 0.91202 0.25333 0.0
C251 C 0.70483 0.91272 0.1614 0.0
N252 N 0.69005 0.89319 0.24875 0.0
C253 C 0.68707 0.89963 0.18956 0.0
O254 O 0.76853 0.98579 0.24782 0.0
C255 C 0.74982 0.98745 0.2177 0.0
O256 O 0.74203 0.97055 0.18648 0.0
H257 H 0.74153 0.91707 0.27896 0.0
H258 H 0.70335 0.91865 0.11488 0.0
C259 C 0.83344 0.99491 0.24264 0.0
C260 C 0.85256 1.00229 0.20742 0.0
C261 C 0.8483 0.96914 0.14419 0.0
C262 C 0.8294 0.962 0.17889 0.0
N263 N 0.82229 0.97495 0.22734 0.0
N264 N 0.85932 0.98905 0.15906 0.0
H265 H 0.82705 1.00511 0.28057 0.0
C266 C 0.76812 0.94703 0.04667 0.0
O267 O 0.7822 0.95946 0.08036 0.0
O268 O 0.79802 0.96623 0.3612 0.0
H269 H 0.82027 0.94638 0.16655 0.0
H270 H 0.7108 0.89364 0.32806 0.0
H271 H 0.85406 0.95905 0.10538 0.0
C272 C 0.17076 0.35706 0.35875 0.0
C273 C 0.14794 0.35026 0.37226 0.0
C274 C 0.18106 0.37546 0.3897 0.0
C275 C 0.16675 0.42976 0.466 0.0
H276 H 0.23199 0.42864 0.50835 0.0
C277 C 0.21651 0.51204 0.5474 0.0
C278 C 0.23842 0.51523 0.52017 0.0
C279 C 0.20457 0.49103 0.54049 0.0
C280 C 0.21377 0.42931 0.49659 0.0
H281 H 0.11806 0.35726 0.4297 0.0
H282 H 0.13611 0.38985 0.48386 0.0
H283 H 0.21276 0.39291 0.47802 0.0
H284 H 0.26498 0.49854 0.46486 0.0
H285 H 0.24427 0.46239 0.45261 0.0
H286 H 0.16801 0.46637 0.48234 0.0
C287 C 0.14603 0.38069 0.44937 0.0
C288 C 0.20273 0.40879 0.47942 0.0
C289 C 0.13579 0.36192 0.41885 0.0
C290 C 0.24818 0.49681 0.48664 0.0
C291 C 0.23634 0.47591 0.47998 0.0
C292 C 0.17784 0.45037 0.48302 0.0
C293 C 0.16871 0.38782 0.43455 0.0
C294 C 0.17927 0.40886 0.46225 0.0
C295 C 0.21436 0.4727 0.50661 0.0
C296 C 0.20167 0.4505 0.49678 0.0
H297 H 0.18054 0.34843 0.32301 0.0
H298 H 0.19843 0.38063 0.37657 0.0
H299 H 0.14869 0.43043 0.45261 0.0
H300 H 0.20845 0.52584 0.57351 0.0
H301 H 0.18772 0.4891 0.56188 0.0
C302 C 1.01142 0.71293 0.79573 0.0
C303 C 1.00815 0.7352 0.77106 0.0
C304 C 0.03165 0.70019 0.7824 0.0
C305 C 0.07554 0.69535 0.66194 0.0
H306 H 0.11451 0.66384 0.77935 0.0
C307 C 0.16493 0.66358 0.5906 0.0
C308 C 0.17198 0.64133 0.60838 0.0
C309 C 0.14569 0.67414 0.61751 0.0
C310 C 0.10365 0.67233 0.74598 0.0
H311 H 0.02426 0.76183 0.71536 0.0
H312 H 0.059 0.73977 0.69236 0.0
H313 H 0.07884 0.68344 0.81365 0.0
H314 H 0.16493 0.61303 0.67037 0.0
H315 H 0.13079 0.63148 0.7173 0.0
H316 H 0.09983 0.68436 0.59421 0.0
C317 C 0.04589 0.73199 0.72128 0.0
C318 C 0.08326 0.68353 0.76563 0.0
C319 C 0.02592 0.74468 0.73474 0.0
C320 C 0.16 0.63029 0.65611 0.0
C321 C 0.14043 0.64084 0.68283 0.0
C322 C 0.09568 0.68414 0.64239 0.0
C323 C 0.04882 0.70944 0.74381 0.0
C324 C 0.0693 0.69561 0.72385 0.0
C325 C 0.13263 0.66261 0.66237 0.0
C326 C 0.11035 0.67297 0.6842 0.0
H327 H 0.99815 0.70512 0.824 0.0
H328 H 0.03347 0.68284 0.8004 0.0
H329 H 0.06487 0.70402 0.62842 0.0
H330 H 0.17399 0.67263 0.55446 0.0
H331 H 0.14067 0.69121 0.60189 0.0
C332 C 0.77787 0.52445 0.98464 0.0
C333 C 0.78766 0.50725 0.02197 0.0
C334 C 0.79009 0.54462 0.97094 0.0
C335 C 0.83813 0.58284 0.01596 0.0
H336 H 0.83679 0.59953 0.84495 0.0
C337 C 0.89173 0.65895 0.90741 0.0
C338 C 0.88074 0.67113 0.86012 0.0
C339 C 0.88103 0.63948 0.93365 0.0
C340 C 0.83714 0.59536 0.89305 0.0
H341 H 0.81778 0.49844 0.07626 0.0
H342 H 0.83919 0.53399 0.05218 0.0
H343 H 0.8172 0.5647 0.87889 0.0
H344 H 0.84937 0.67353 0.80644 0.0
H345 H 0.83058 0.64037 0.85295 0.0
H346 H 0.858 0.61387 0.02982 0.0
C347 C 0.82197 0.53165 0.03364 0.0
C348 C 0.82593 0.5753 0.91247 0.0
C349 C 0.80972 0.51127 0.04728 0.0
C350 C 0.85841 0.66432 0.84221 0.0
C351 C 0.84771 0.64516 0.86861 0.0
C352 C 0.84934 0.60313 0.99644 0.0
C353 C 0.81246 0.54829 0.99415 0.0
C354 C 0.8259 0.56897 0.97424 0.0
C355 C 0.85915 0.63196 0.91315 0.0
C356 C 0.84858 0.60986 0.93481 0.0
H357 H 0.76086 0.52219 0.96472 0.0
H358 H 0.78206 0.5573 0.94136 0.0
H359 H 0.83842 0.5784 0.06388 0.0
H360 H 0.90904 0.66366 0.9218 0.0
H361 H 0.89034 0.62971 0.96784 0.0
C362 C 0.0197 0.31341 0.29913 0.0
C363 C 0.02051 0.2906 0.27648 0.0
C364 C 0.99982 0.32715 0.29119 0.0
C365 C 0.93697 0.32416 0.25146 0.0
H366 H 0.94625 0.38661 0.19199 0.0
C367 C 0.85979 0.38222 0.17597 0.0
C368 C 0.86307 0.39286 0.11897 0.0
C369 C 0.87859 0.37197 0.20645 0.0
C370 C 0.94333 0.36923 0.20878 0.0
H371 H 1.0006 0.26424 0.22929 0.0
H372 H 0.9663 0.28806 0.21538 0.0
H373 H 0.97958 0.36371 0.22431 0.0
H374 H 0.88882 0.40189 0.05077 0.0
H375 H 0.92126 0.38423 0.10342 0.0
H376 H 0.90083 0.32935 0.23332 0.0
C377 C 0.98088 0.29536 0.23972 0.0
C378 C 0.96245 0.35616 0.22791 0.0
C379 C 1.00072 0.28172 0.24731 0.0
C380 C 0.88563 0.39379 0.09449 0.0
C381 C 0.90433 0.3838 0.12501 0.0
C382 C 0.91784 0.33726 0.23249 0.0
C383 C 0.98022 0.31834 0.26088 0.0
C384 C 0.9596 0.33324 0.24804 0.0
C385 C 0.90106 0.3724 0.18087 0.0
C386 C 0.92085 0.35976 0.20941 0.0
H387 H 0.03459 0.32083 0.3219 0.0
H388 H 0.99984 0.34472 0.30852 0.0
H389 H 0.93409 0.30668 0.26755 0.0
H390 H 0.84262 0.38094 0.19585 0.0
H391 H 0.87548 0.36342 0.24959 0.0
C392 C 0.66814 0.16804 0.37707 0.0
C393 C 0.64482 0.17405 0.36751 0.0
C394 C 0.67827 0.14963 0.3454 0.0
C395 C 0.66383 0.09416 0.2765 0.0
H396 H 0.72788 0.09627 0.22213 0.0
C397 C 0.71431 1.01187 0.19627 0.0
C398 C 0.73675 1.00968 0.22072 0.0
C399 C 0.70192 0.03273 0.20217 0.0
C400 C 0.70999 0.09534 0.23721 0.0
H401 H 0.61385 0.1657 0.31639 0.0
H402 H 0.63161 0.13307 0.26103 0.0
H403 H 0.70826 0.13194 0.25239 0.0
H404 H 0.76381 0.02798 0.26966 0.0
H405 H 0.74235 0.06388 0.28013 0.0
H406 H 0.66589 0.05739 0.26368 0.0
C407 C 0.64204 0.14285 0.29291 0.0
C408 C 0.69873 0.11581 0.25435 0.0
C409 C 0.63196 0.16163 0.32409 0.0
C410 C 0.7466 0.02894 0.25017 0.0
C411 C 0.73432 0.04969 0.25577 0.0
C412 C 0.67515 0.07361 0.25952 0.0
C413 C 0.66525 0.13649 0.30386 0.0
C414 C 0.67575 0.11539 0.27591 0.0
C415 C 0.71179 0.05188 0.23216 0.0
C416 C 0.69861 0.07388 0.24147 0.0
H417 H 0.67846 0.17727 0.41033 0.0
H418 H 0.69607 0.14505 0.35554 0.0
H419 H 0.64617 0.09323 0.29334 0.0
H420 H 0.70618 0.9974 0.17335 0.0
H421 H 0.68464 0.03387 0.1832 0.0
C422 C 0.36647 0.12822 0.59423 0.0
C423 C 0.3549 0.13931 0.64281 0.0
C424 C 0.38627 0.13834 0.5677 0.0
C425 C 0.43243 0.17965 0.60967 0.0
H426 H 0.44752 0.18184 0.43741 0.0
C427 C 0.50078 0.24178 0.52003 0.0
C428 C 0.5181 0.23328 0.48043 0.0
C429 C 0.48126 0.22858 0.53384 0.0
C430 C 0.44363 0.18107 0.48569 0.0
H431 H 0.35396 0.17034 0.69845 0.0
H432 H 0.38775 0.18804 0.65175 0.0
H433 H 0.41193 0.16222 0.47156 0.0
H434 H 0.52779 0.20433 0.42245 0.0
H435 H 0.4932 0.18114 0.44666 0.0
H436 H 0.46364 0.19874 0.62414 0.0
C437 C 0.38217 0.17128 0.63518 0.0
C438 C 0.42328 0.16987 0.50524 0.0
C439 C 0.36267 0.16119 0.66174 0.0
C440 C 0.51486 0.2114 0.45326 0.0
C441 C 0.49505 0.19815 0.46694 0.0
C442 C 0.45255 0.19082 0.59026 0.0
C443 C 0.39473 0.15968 0.58931 0.0
C444 C 0.41716 0.16958 0.56745 0.0
C445 C 0.4783 0.20647 0.50844 0.0
C446 C 0.45814 0.19219 0.52803 0.0
H447 H 0.36102 0.11125 0.57897 0.0
H448 H 0.39553 0.12896 0.53237 0.0
H449 H 0.42869 0.17914 0.65807 0.0
H450 H 0.50242 0.25858 0.54158 0.0
H451 H 0.46848 0.23567 0.56509 0.0
C452 C 0.27728 0.99543 0.76479 0.0
C453 C 0.2883 0.01391 0.73473 0.0
C454 C 0.28937 0.97518 0.77859 0.0
C455 C 0.34133 0.93984 0.74399 0.0
H456 H 0.32892 0.91571 0.90563 0.0
C457 C 0.38904 0.86 0.85432 0.0
C458 C 0.3748 0.84506 0.88862 0.0
C459 C 0.38001 0.88065 0.83 0.0
C460 C 0.33246 0.92205 0.86011 0.0
H461 H 0.32066 0.02501 0.69348 0.0
H462 H 0.34195 0.98936 0.71808 0.0
H463 H 0.31074 0.95162 0.87375 0.0
H464 H 0.33961 0.83952 0.92074 0.0
H465 H 0.32401 0.875 0.87823 0.0
H466 H 0.36312 0.90992 0.73083 0.0
C467 C 0.32382 0.99072 0.73072 0.0
C468 C 0.32201 0.94269 0.84179 0.0
C469 C 0.31163 1.01116 0.71673 0.0
C470 C 0.3512 0.85073 0.89541 0.0
C471 C 0.34224 0.87118 0.87121 0.0
C472 C 0.35188 0.91903 0.76249 0.0
C473 C 0.31292 0.9727 0.76306 0.0
C474 C 0.32585 0.95163 0.78308 0.0
C475 C 0.35661 0.88675 0.8397 0.0
C476 C 0.34712 0.90965 0.82037 0.0
H477 H 0.25926 0.99668 0.77869 0.0
H478 H 0.28023 0.96146 0.80214 0.0
H479 H 0.34467 0.94626 0.69848 0.0
H480 H 0.40736 0.85636 0.8487 0.0
H481 H 0.39155 0.89229 0.80599 0.0
C482 C 0.66305 0.89095 0.09461 0.0
C483 C 0.66515 0.89255 0.15855 0.0
C484 C 0.64274 0.88203 0.06815 0.0
C485 C 0.59807 0.84026 0.10215 0.0
H486 H 0.55731 0.87059 0.98678 0.0
C487 C 0.50806 0.80397 0.06179 0.0
C488 C 0.49963 0.80264 0.00199 0.0
C489 C 0.52762 0.81712 0.07524 0.0
C490 C 0.56869 0.86177 0.01833 0.0
H491 H 0.6467 0.88705 0.24396 0.0
H492 H 0.61207 0.87121 0.19799 0.0
H493 H 0.59357 0.88957 0.01814 0.0
H494 H 0.50437 0.81496 0.90968 0.0
H495 H 0.53922 0.83779 0.93295 0.0
H496 H 0.57384 0.81244 0.10262 0.0
C497 C 0.62611 0.87676 0.16848 0.0
C498 C 0.58939 0.87264 0.0362 0.0
C499 C 0.64609 0.88581 0.19474 0.0
C500 C 0.51048 0.8158 0.95625 0.0
C501 C 0.53043 0.82881 0.96962 0.0
C502 C 0.57768 0.82937 0.084 0.0
C503 C 0.62435 0.87433 0.10513 0.0
C504 C 0.60393 0.86218 0.07948 0.0
C505 C 0.53966 0.82899 0.02903 0.0
C506 C 0.56233 0.84021 0.04327 0.0
H507 H 0.67729 0.89568 0.06493 0.0
H508 H 0.64179 0.88023 0.01908 0.0
H509 H 0.60917 0.83166 0.13483 0.0
H510 H 0.49986 0.79425 0.09815 0.0
H511 H 0.53367 0.81747 0.1219 0.0
C512 C 0.18489 0.10524 0.81227 0.0
C513 C 0.2084 0.1089 0.82515 0.0
C514 C 0.16794 0.1102 0.85632 0.0
C515 C 0.15892 0.12583 0.01956 0.0
H516 H 0.1138 0.16944 0.95623 0.0
C517 C 0.10748 0.18353 0.18324 0.0
C518 C 0.11009 0.20703 0.16898 0.0
C519 C 0.11196 0.16656 0.1391 0.0
C520 C 0.12608 0.15709 0.97461 0.0
H521 H 0.23296 0.11971 0.89363 0.0
H522 H 0.2036 0.12785 0.97116 0.0
H523 H 0.13746 0.14662 0.88578 0.0
H524 H 0.1182 0.23152 0.09779 0.0
H525 H 0.12578 0.20208 0.02031 0.0
H526 H 0.14868 0.13739 0.10828 0.0
C527 C 0.19806 0.12095 0.92767 0.0
C528 C 0.13951 0.14384 0.93426 0.0
C529 C 0.2149 0.1163 0.8834 0.0
C530 C 0.11565 0.21346 0.10922 0.0
C531 C 0.12 0.19655 0.06498 0.0
C532 C 0.14544 0.139 0.05989 0.0
C533 C 0.17433 0.11885 0.91386 0.0
C534 C 0.15672 0.12874 0.9563 0.0
C535 C 0.11925 0.17288 0.08016 0.0
C536 C 0.1295 0.15545 0.03785 0.0
H537 H 0.17955 0.10001 0.76702 0.0
H538 H 0.14982 0.10833 0.84446 0.0
H539 H 0.17188 0.11418 0.03791 0.0
H540 H 0.10363 0.17826 0.22954 0.0
H541 H 0.11102 0.1485 0.15205 0.0
C542 C 0.42058 0.70938 0.11807 0.0
C543 C 0.42608 0.69868 0.06251 0.0
C544 C 0.41268 0.69631 0.16736 0.0
C545 C 0.39931 0.63705 0.22482 0.0
H546 H 0.34315 0.66758 0.28096 0.0
C547 C 0.33864 0.60699 0.4248 0.0
C548 C 0.31488 0.61138 0.41701 0.0
C549 C 0.35455 0.61324 0.3792 0.0
C550 C 0.35866 0.65869 0.26547 0.0
H551 H 0.4281 0.66593 0.01487 0.0
H552 H 0.41384 0.64293 0.10077 0.0
H553 H 0.36921 0.68777 0.21272 0.0
H554 H 0.28877 0.62418 0.35515 0.0
H555 H 0.31629 0.63433 0.27473 0.0
H556 H 0.38818 0.60774 0.27778 0.0
C557 C 0.41649 0.66133 0.10719 0.0
C558 C 0.37387 0.67045 0.22712 0.0
C559 C 0.42473 0.67446 0.05804 0.0
C560 C 0.30703 0.62045 0.36167 0.0
C561 C 0.32281 0.62645 0.31605 0.0
C562 C 0.38405 0.62526 0.26399 0.0
C563 C 0.4092 0.67231 0.16126 0.0
C564 C 0.39436 0.65983 0.20608 0.0
C565 C 0.34681 0.62408 0.3256 0.0
C566 C 0.36339 0.63591 0.284 0.0
H567 H 0.42004 0.72807 0.12152 0.0
H568 H 0.40743 0.70528 0.20859 0.0
H569 H 0.41493 0.6284 0.20921 0.0
H570 H 0.34503 0.60044 0.46782 0.0
H571 H 0.37293 0.61127 0.38794 0.0
C572 C 0.90694 0.80597 0.62005 0.0
C573 C 0.91394 0.81467 0.67664 0.0
C574 C 0.90051 0.82105 0.57353 0.0
C575 C 0.89655 0.88145 0.52003 0.0
H576 H 0.83481 0.86219 0.47209 0.0
C577 C 0.84233 0.91592 0.31487 0.0
C578 C 0.8182 0.91672 0.32314 0.0
C579 C 0.85677 0.90902 0.36276 0.0
C580 C 0.85191 0.868 0.48547 0.0
H581 H 0.92083 0.84565 0.72892 0.0
H582 H 0.90931 0.87231 0.64726 0.0
H583 H 0.85728 0.83799 0.54012 0.0
H584 H 0.79017 0.91187 0.3875 0.0
H585 H 0.81528 0.9008 0.47184 0.0
H586 H 0.89096 0.91151 0.46405 0.0
C587 C 0.90934 0.85386 0.63835 0.0
C588 C 0.86495 0.85392 0.5237 0.0
C589 C 0.91595 0.83867 0.68494 0.0
C590 C 0.8088 0.91215 0.38079 0.0
C591 C 0.82316 0.90546 0.42867 0.0
C592 C 0.88351 0.89551 0.48071 0.0
C593 C 0.90042 0.84511 0.58339 0.0
C594 C 0.88743 0.86036 0.54119 0.0
C595 C 0.84714 0.90255 0.41916 0.0
C596 C 0.86099 0.88892 0.46336 0.0
H597 H 0.90487 0.7875 0.61327 0.0
H598 H 0.89397 0.81386 0.53133 0.0
H599 H 0.91381 0.88684 0.53318 0.0
H600 H 0.84982 0.91879 0.27014 0.0
H601 H 0.87515 0.90676 0.35396 0.0
C602 C 0.60979 0.30871 0.63125 0.0
C603 C 0.60931 0.31742 0.57179 0.0
C604 C 0.61637 0.32295 0.67968 0.0
C605 C 0.63422 0.38288 0.72446 0.0
H606 H 0.68262 0.3494 0.80947 0.0
C607 C 0.72395 0.39648 0.86922 0.0
C608 C 0.71655 0.40847 0.9213 0.0
C609 C 0.70807 0.39012 0.82464 0.0
C610 C 0.66918 0.35902 0.7861 0.0
H611 H 0.61428 0.3478 0.51591 0.0
H612 H 0.62604 0.37277 0.60031 0.0
H613 H 0.6569 0.32863 0.74178 0.0
H614 H 0.68727 0.42459 0.96661 0.0
H615 H 0.6591 0.41321 0.88811 0.0
H616 H 0.64736 0.41347 0.76865 0.0
C617 C 0.62072 0.35519 0.6102 0.0
C618 C 0.65414 0.34705 0.748 0.0
C619 C 0.614 0.34093 0.56183 0.0
C620 C 0.69333 0.41563 0.92615 0.0
C621 C 0.67727 0.40908 0.88146 0.0
C622 C 0.64928 0.39492 0.76341 0.0
C623 C 0.62317 0.34601 0.66913 0.0
C624 C 0.63669 0.3588 0.71589 0.0
C625 C 0.68438 0.39524 0.83197 0.0
C626 C 0.66724 0.38309 0.79334 0.0
H627 H 0.607 0.29044 0.63958 0.0
H628 H 0.61778 0.31544 0.72471 0.0
H629 H 0.62092 0.3924 0.70036 0.0
H630 H 0.74181 0.39076 0.86489 0.0
H631 H 0.71404 0.37979 0.78637 0.0
C632 C 0.08754 0.25381 0.55016 0.0
C633 C 0.08071 0.27565 0.52825 0.0
C634 C 0.08478 0.24821 0.61184 0.0
C635 C 0.05222 0.26678 0.7504 0.0
H636 H 0.09887 0.23136 0.83681 0.0
C637 C 0.05945 0.2668 0.0108 0.0
C638 C 0.06297 0.24563 0.04079 0.0
C639 C 0.06022 0.26804 0.94738 0.0
C640 C 0.08555 0.24098 0.81301 0.0
H641 H 0.06629 0.30895 0.5543 0.0
H642 H 0.06208 0.2995 0.66163 0.0
H643 H 0.10364 0.23865 0.72772 0.0
H644 H 0.07 0.20906 0.02777 0.0
H645 H 0.07188 0.21135 0.91604 0.0
H646 H 0.03459 0.26979 0.8361 0.0
C647 C 0.06894 0.28638 0.63111 0.0
C648 C 0.08825 0.24517 0.7505 0.0
C649 C 0.07154 0.2919 0.56952 0.0
C650 C 0.06715 0.2256 0.00585 0.0
C651 C 0.06834 0.22693 0.94207 0.0
C652 C 0.04966 0.26279 0.81278 0.0
C653 C 0.07526 0.26438 0.65305 0.0
C654 C 0.07181 0.25849 0.71862 0.0
C655 C 0.06484 0.2482 0.91229 0.0
C656 C 0.06647 0.25018 0.84497 0.0
H657 H 0.09464 0.24086 0.5195 0.0
H658 H 0.08967 0.23105 0.62692 0.0
H659 H 0.03887 0.27656 0.72716 0.0
H660 H 0.05616 0.28254 0.03637 0.0
H661 H 0.05772 0.28471 0.92578 0.0
C662 C 0.3035 0.5602 0.25273 0.0
C663 C 0.2848 0.56979 0.28553 0.0
C664 C 0.30428 0.56175 0.18903 0.0
C665 C 0.28084 0.59506 0.05955 0.0
H666 H 0.29291 0.53947 0.96525 0.0
C667 C 0.25879 0.58892 0.80401 0.0
C668 C 0.27361 0.57611 0.76564 0.0
C669 C 0.26208 0.58894 0.8671 0.0
C670 C 0.28988 0.55527 0.99074 0.0
H671 H 0.25257 0.58902 0.27728 0.0
H672 H 0.25399 0.59175 0.16678 0.0
H673 H 0.29589 0.53832 0.07607 0.0
H674 H 0.30385 0.55369 0.76342 0.0
H675 H 0.30983 0.55405 0.8733 0.0
H676 H 0.27479 0.61206 0.97456 0.0
C677 C 0.26806 0.58306 0.19009 0.0
C678 C 0.29158 0.55458 0.0543 0.0
C679 C 0.26717 0.58131 0.25346 0.0
C680 C 0.292 0.5636 0.79172 0.0
C681 C 0.29536 0.56371 0.85482 0.0
C682 C 0.27929 0.59581 0.99603 0.0
C683 C 0.28652 0.57319 0.15707 0.0
C684 C 0.28672 0.57438 0.08943 0.0
C685 C 0.28037 0.57627 0.89339 0.0
C686 C 0.28344 0.57583 0.96081 0.0
H687 H 0.31741 0.55132 0.27618 0.0
H688 H 0.31882 0.55413 0.16478 0.0
H689 H 0.27733 0.6107 0.08537 0.0
H690 H 0.24444 0.59873 0.78541 0.0
H691 H 0.24997 0.59853 0.89535 0.0
C692 C 0.94641 0.76149 0.51264 0.0
C693 C 0.95628 0.78037 0.5435 0.0
C694 C 0.94523 0.76118 0.44916 0.0
C695 C 0.94849 0.79853 0.31196 0.0
H696 H 0.95949 0.7398 0.23063 0.0
C697 C 0.95927 0.78884 0.04962 0.0
C698 C 0.94782 0.77005 0.02221 0.0
C699 C 0.95996 0.79102 0.11311 0.0
C700 C 0.95616 0.75628 0.25267 0.0
H701 H 0.97227 0.81401 0.5318 0.0
H702 H 0.97072 0.81327 0.42039 0.0
H703 H 0.96188 0.74207 0.34114 0.0
H704 H 0.92775 0.73904 0.04004 0.0
H705 H 0.92908 0.74279 0.15075 0.0
H706 H 0.94313 0.81271 0.22281 0.0
C707 C 0.96361 0.79879 0.4455 0.0
C708 C 0.95749 0.75761 0.31611 0.0
C709 C 0.96465 0.79916 0.50932 0.0
C710 C 0.93681 0.75366 0.05966 0.0
C711 C 0.93766 0.75575 0.1231 0.0
C712 C 0.94734 0.79722 0.24829 0.0
C713 C 0.95406 0.77967 0.41461 0.0
C714 C 0.95344 0.77868 0.34672 0.0
C715 C 0.94937 0.77436 0.15056 0.0
C716 C 0.95095 0.77603 0.21803 0.0
H717 H 0.93948 0.74685 0.53751 0.0
H718 H 0.93723 0.74643 0.42718 0.0
H719 H 0.94503 0.81498 0.33396 0.0
H720 H 0.96786 0.80181 0.02208 0.0
H721 H 0.96924 0.80546 0.13292 0.0
C722 C 0.76811 0.43368 0.31165 0.0
C723 C 0.75335 0.44644 0.27345 0.0
C724 C 0.7645 0.43345 0.37469 0.0
C725 C 0.73584 0.46647 0.49912 0.0
H726 H 0.74867 0.41089 0.59203 0.0
C727 C 0.72237 0.46085 0.76155 0.0
C728 C 0.74128 0.45146 0.79342 0.0
C729 C 0.72145 0.45937 0.69781 0.0
C730 C 0.74507 0.42656 0.56669 0.0
H731 H 0.72291 0.46858 0.2715 0.0
H732 H 0.7164 0.46787 0.38131 0.0
H733 H 0.75148 0.40986 0.48117 0.0
H734 H 0.77367 0.43255 0.78353 0.0
H735 H 0.77198 0.42992 0.67308 0.0
H736 H 0.7295 0.48312 0.58502 0.0
C737 C 0.73105 0.4584 0.36273 0.0
C738 C 0.74677 0.42601 0.50315 0.0
C739 C 0.73472 0.45871 0.29967 0.0
C740 C 0.75892 0.44013 0.76044 0.0
C741 C 0.75788 0.43843 0.69708 0.0
C742 C 0.73399 0.46696 0.56273 0.0
C743 C 0.74596 0.44586 0.40113 0.0
C744 C 0.74257 0.44606 0.46854 0.0
C745 C 0.73924 0.44817 0.66494 0.0
C746 C 0.73898 0.44712 0.59726 0.0
H747 H 0.78264 0.42406 0.29296 0.0
H748 H 0.77657 0.42389 0.40281 0.0
H749 H 0.73273 0.48231 0.47412 0.0
H750 H 0.70845 0.46958 0.78572 0.0
H751 H 0.70679 0.46689 0.67425 0.0
C752 C 0.58931 0.26721 0.19107 0.0
C753 C 0.57024 0.27171 0.22955 0.0
C754 C 0.58766 0.27088 0.12811 0.0
C755 C 0.54477 0.27265 0.00534 0.0
H756 H 0.59378 0.30137 0.91046 0.0
C757 C 0.55221 0.26294 0.7449 0.0
C758 C 0.55709 0.2828 0.71025 0.0
C759 C 0.55297 0.26363 0.80845 0.0
C760 C 0.57988 0.2935 0.93647 0.0
H761 H 0.53467 0.28403 0.2321 0.0
H762 H 0.53176 0.29014 0.12247 0.0
H763 H 0.5973 0.29891 0.02162 0.0
H764 H 0.56629 0.31913 0.71544 0.0
H765 H 0.56816 0.32019 0.82716 0.0
H766 H 0.52754 0.26683 0.92039 0.0
C767 C 0.54794 0.28372 0.14091 0.0
C768 C 0.58199 0.2919 0.99996 0.0
C769 C 0.54966 0.28029 0.2038 0.0
C770 C 0.5625 0.30352 0.74082 0.0
C771 C 0.56367 0.3041 0.80468 0.0
C772 C 0.54281 0.27399 0.94198 0.0
C773 C 0.56685 0.2789 0.10226 0.0
C774 C 0.56449 0.28135 0.03505 0.0
C775 C 0.55891 0.28413 0.83911 0.0
C776 C 0.5604 0.28426 0.90676 0.0
H777 H 0.60547 0.26072 0.20951 0.0
H778 H 0.60249 0.26687 0.09947 0.0
H779 H 0.53108 0.26427 0.03099 0.0
H780 H 0.54792 0.2467 0.72292 0.0
H781 H 0.54941 0.24791 0.83364 0.0
C782 C 0.23559 0.06218 0.4551 0.0
C783 C 0.25433 0.0738 0.48228 0.0
C784 C 0.23313 0.06179 0.39167 0.0
C785 C 0.26722 0.06711 0.25061 0.0
H786 H 0.20779 0.07719 0.17261 0.0
C787 C 0.26085 0.07799 0.99156 0.0
C788 C 0.2422 0.06764 0.96082 0.0
C789 C 0.26123 0.07901 0.05506 0.0
C790 C 0.22445 0.07404 0.19367 0.0
H791 H 0.28494 0.09448 0.46405 0.0
H792 H 0.2807 0.09367 0.35347 0.0
H793 H 0.21052 0.07853 0.28377 0.0
H794 H 0.20895 0.05078 0.97283 0.0
H795 H 0.2098 0.0521 0.08434 0.0
H796 H 0.28119 0.06226 0.1612 0.0
C797 C 0.26801 0.08472 0.38123 0.0
C798 C 0.22602 0.07487 0.25736 0.0
C799 C 0.27038 0.08526 0.44463 0.0
C800 C 0.22363 0.05875 0.99519 0.0
C801 C 0.22407 0.05965 0.05908 0.0
C802 C 0.26563 0.06612 0.18717 0.0
C803 C 0.24944 0.07286 0.35399 0.0
C804 C 0.24748 0.07162 0.28648 0.0
C805 C 0.24304 0.06955 0.08982 0.0
C806 C 0.24429 0.06981 0.15772 0.0
H807 H 0.22286 0.05325 0.48279 0.0
H808 H 0.21873 0.05238 0.37207 0.0
H809 H 0.28391 0.06407 0.27167 0.0
H810 H 0.2753 0.08533 0.96658 0.0
H811 H 0.27583 0.08731 0.07691 0.0
C812 C 0.46994 0.72403 0.24557 0.0
C813 C 0.46248 0.74363 0.21315 0.0
C814 C 0.46921 0.72387 0.3094 0.0
C815 C 0.4672 0.76391 0.44101 0.0
H816 H 0.44469 0.71073 0.53092 0.0
C817 C 0.44322 0.76955 0.69511 0.0
C818 C 0.45043 0.75129 0.7328 0.0
C819 C 0.44534 0.76776 0.63186 0.0
C820 C 0.45126 0.72562 0.50643 0.0
H821 H 0.44799 0.77821 0.22221 0.0
H822 H 0.44653 0.77781 0.33259 0.0
H823 H 0.44758 0.70882 0.41981 0.0
H824 H 0.46533 0.71674 0.73363 0.0
H825 H 0.4691 0.71371 0.62316 0.0
H826 H 0.47067 0.78082 0.52725 0.0
C827 C 0.45334 0.76273 0.30911 0.0
C828 C 0.45295 0.7245 0.44286 0.0
C829 C 0.45404 0.76288 0.24568 0.0
C830 C 0.45961 0.73113 0.70586 0.0
C831 C 0.46166 0.72932 0.64256 0.0
C832 C 0.46547 0.76504 0.50435 0.0
C833 C 0.46109 0.74335 0.3418 0.0
C834 C 0.46066 0.74376 0.40944 0.0
C835 C 0.45466 0.74767 0.6049 0.0
C836 C 0.45723 0.74602 0.53773 0.0
H837 H 0.47642 0.70889 0.22171 0.0
H838 H 0.47537 0.7087 0.33339 0.0
H839 H 0.47367 0.77888 0.41668 0.0
H840 H 0.43597 0.78527 0.71443 0.0
H841 H 0.43948 0.78207 0.60397 0.0
C842 C 0.78941 0.95813 0.95129 0.0
C843 C 0.77048 0.94706 0.97939 0.0
C844 C 0.7913 0.95889 0.88775 0.0
C845 C 0.75582 0.95645 0.7495 0.0
H846 H 0.81414 0.94476 0.66612 0.0
C847 C 0.76042 0.94967 0.48837 0.0
C848 C 0.77974 0.95905 0.45804 0.0
C849 C 0.76002 0.94789 0.55178 0.0
C850 C 0.79779 0.9484 0.68868 0.0
H851 H 0.7389 0.92774 0.96268 0.0
H852 H 0.74214 0.92923 0.85173 0.0
H853 H 0.81214 0.94196 0.77711 0.0
H854 H 0.81399 0.97366 0.47068 0.0
H855 H 0.8131 0.97111 0.58188 0.0
H856 H 0.74147 0.96333 0.66176 0.0
C857 C 0.75544 0.93743 0.87896 0.0
C858 C 0.79664 0.9467 0.75229 0.0
C859 C 0.75365 0.93648 0.94251 0.0
C860 C 0.7988 0.96643 0.4927 0.0
C861 C 0.79835 0.9648 0.55644 0.0
C862 C 0.757 0.95834 0.6861 0.0
C863 C 0.7742 0.94878 0.85086 0.0
C864 C 0.77559 0.95057 0.78334 0.0
C865 C 0.77887 0.95561 0.58683 0.0
C866 C 0.77795 0.95417 0.6547 0.0
H867 H 0.80272 0.96639 0.97836 0.0
H868 H 0.80587 0.9679 0.86748 0.0
H869 H 0.73945 0.95997 0.77217 0.0
H870 H 0.74554 0.94351 0.46311 0.0
H871 H 0.74496 0.94021 0.57328 0.0
C872 C 0.24181 0.13289 0.59384 0.0
C873 C 0.25006 0.13894 0.65176 0.0
C874 C 0.23637 0.15009 0.5513 0.0
C875 C 0.21228 0.20804 0.55805 0.0
H876 H 0.21358 0.20376 0.38186 0.0
C877 C 0.1684 0.24932 0.32531 0.0
C878 C 0.14492 0.24592 0.33999 0.0
C879 C 0.18579 0.24311 0.36645 0.0
C880 C 0.21336 0.20554 0.43101 0.0
H881 H 0.26086 0.16743 0.70905 0.0
H882 H 0.25162 0.1975 0.63469 0.0
H883 H 0.2386 0.17853 0.44209 0.0
H884 H 0.12122 0.23446 0.41027 0.0
H885 H 0.15137 0.22463 0.48323 0.0
H886 H 0.18615 0.2342 0.54703 0.0
C887 C 0.2493 0.17951 0.62202 0.0
C888 C 0.22758 0.19094 0.46546 0.0
C889 C 0.25491 0.1623 0.66424 0.0
C890 C 0.13906 0.23838 0.39879 0.0
C891 C 0.15645 0.23231 0.44022 0.0
C892 C 0.19786 0.22246 0.52361 0.0
C893 C 0.23876 0.17366 0.56646 0.0
C894 C 0.22684 0.19165 0.52941 0.0
C895 C 0.18 0.23336 0.42311 0.0
C896 C 0.19785 0.22102 0.45972 0.0
H897 H 0.23674 0.11526 0.58416 0.0
H898 H 0.22806 0.14498 0.5092 0.0
H899 H 0.21103 0.20883 0.60727 0.0
H900 H 0.17336 0.25474 0.27984 0.0
H901 H 0.20376 0.24441 0.35227 0.0
C902 C 0.36895 0.74316 0.91286 0.0
C903 C 0.39131 0.73762 0.89173 0.0
C904 C 0.34959 0.73952 0.87581 0.0
C905 C 0.33028 0.72249 0.72047 0.0
H906 H 0.29035 0.6794 0.80652 0.0
C907 C 0.27057 0.66391 0.58515 0.0
C908 C 0.27593 0.64058 0.59635 0.0
C909 C 0.27634 0.68101 0.62768 0.0
C910 C 0.30107 0.69166 0.782 0.0
H911 H 0.41096 0.72457 0.81492 0.0
H912 H 0.37759 0.71941 0.74913 0.0
H913 H 0.31802 0.7029 0.86343 0.0
H914 H 0.29033 0.61676 0.66194 0.0
H915 H 0.29937 0.64619 0.73732 0.0
H916 H 0.31441 0.71022 0.63869 0.0
C917 C 0.37489 0.72693 0.79388 0.0
C918 C 0.31681 0.70528 0.81459 0.0
C919 C 0.39418 0.73029 0.83124 0.0
C920 C 0.28484 0.63437 0.65339 0.0
C921 C 0.29046 0.65142 0.69619 0.0
C922 C 0.31439 0.70905 0.68795 0.0
C923 C 0.35231 0.73025 0.81695 0.0
C924 C 0.33221 0.72018 0.78393 0.0
C925 C 0.2876 0.67502 0.68213 0.0
C926 C 0.30023 0.69284 0.71811 0.0
H927 H 0.36626 0.74819 0.95998 0.0
H928 H 0.33243 0.74235 0.89473 0.0
H929 H 0.34186 0.73385 0.69564 0.0
H930 H 0.26406 0.66916 0.541 0.0
H931 H 0.27367 0.69902 0.61586 0.0
C932 C 0.88852 0.78291 0.91046 0.0
C933 C 0.88322 0.77459 0.85208 0.0
C934 C 0.87072 0.78837 0.95164 0.0
C935 C 0.81329 0.81295 0.93845 0.0
H936 H 0.81524 0.81371 0.11487 0.0
C937 C 0.77244 0.86202 0.16549 0.0
C938 C 0.7779 0.88489 0.1494 0.0
C939 C 0.7774 0.84374 0.12562 0.0
C940 C 0.81406 0.81334 0.06563 0.0
H941 H 0.85552 0.76339 0.79283 0.0
H942 H 0.8244 0.77268 0.86484 0.0
H943 H 0.84044 0.78719 0.05836 0.0
H944 H 0.79146 0.90671 0.07787 0.0
H945 H 0.79912 0.87511 0.00704 0.0
H946 H 0.78793 0.84007 0.94565 0.0
C947 C 0.84223 0.77507 0.87888 0.0
C948 C 0.82865 0.79825 0.03333 0.0
C949 C 0.86005 0.76945 0.83801 0.0
C950 C 0.786 0.88944 0.09032 0.0
C951 C 0.79081 0.87118 0.05014 0.0
C952 C 0.7989 0.82823 0.97074 0.0
C953 C 0.84733 0.7859 0.93462 0.0
C954 C 0.82888 0.79833 0.96935 0.0
C955 C 0.78792 0.84806 0.06892 0.0
C956 C 0.79958 0.82903 0.03466 0.0
H957 H 0.90603 0.7881 0.9214 0.0
H958 H 0.87525 0.79688 0.99398 0.0
H959 H 0.81325 0.81368 0.88913 0.0
H960 H 0.76659 0.85807 0.21129 0.0
H961 H 0.77471 0.82614 0.14105 0.0
C962 C 0.66416 0.27125 0.41353 0.0
C963 C 0.64111 0.27649 0.39825 0.0
C964 C 0.68227 0.2766 0.37349 0.0
C965 C 0.69757 0.29841 0.21949 0.0
H966 H 0.73801 0.34019 0.30815 0.0
C967 C 0.74481 0.38674 0.15797 0.0
C968 C 0.75453 0.38063 0.10145 0.0
C969 C 0.73814 0.36957 0.1994 0.0
C970 C 0.72711 0.32835 0.28287 0.0
H971 H 0.61873 0.28967 0.32745 0.0
H972 H 0.65018 0.29814 0.2563 0.0
H973 H 0.71116 0.31528 0.36397 0.0
H974 H 0.76687 0.35205 0.04618 0.0
H975 H 0.75529 0.32205 0.1185 0.0
H976 H 0.71281 0.31226 0.13828 0.0
C977 C 0.65435 0.28983 0.29909 0.0
C978 C 0.71183 0.31395 0.31475 0.0
C979 C 0.63622 0.28459 0.33946 0.0
C980 C 0.75972 0.35724 0.08989 0.0
C981 C 0.7528 0.34006 0.13087 0.0
C982 C 0.7131 0.31258 0.18763 0.0
C983 C 0.67761 0.28727 0.31737 0.0
C984 C 0.69644 0.29927 0.28338 0.0
C985 C 0.74075 0.346 0.18444 0.0
C986 C 0.72759 0.32816 0.21892 0.0
H987 H 0.66836 0.26532 0.45901 0.0
H988 H 0.69999 0.27412 0.38844 0.0
H989 H 0.68593 0.28733 0.19412 0.0
H990 H 0.73952 0.4044 0.16688 0.0
H991 H 0.72871 0.37472 0.24006 0.0
C992 C 0.99621 0.15612 0.23395 0.0
C993 C 1.00498 0.16099 0.29227 0.0
C994 C 0.9768 0.14177 0.22707 0.0
C995 C 0.94517 0.0956 0.30948 0.0
H996 H 0.89974 0.10357 0.18143 0.0
C997 C 0.86883 0.03201 0.28026 0.0
C998 C 0.86552 0.02394 0.2204 0.0
C999 C 0.88316 0.05111 0.29148 0.0
C1000 C 0.91233 0.1011 0.21736 0.0
H1001 H 0.99958 0.15558 0.38903 0.0
H1002 H 0.9656 0.13116 0.37717 0.0
H1003 H 0.92986 0.13276 0.19588 0.0
H1004 H 0.87397 0.03019 0.12542 0.0
H1005 H 0.89888 0.06328 0.14504 0.0
H1006 H 0.92787 0.06385 0.33049 0.0
C1007 C 0.97398 0.13782 0.33661 0.0
C1008 C 0.92964 0.11779 0.22552 0.0
C1009 C 0.99343 0.15194 0.34343 0.0
C1010 C 0.87621 0.03588 0.1721 0.0
C1011 C 0.89035 0.05501 0.18327 0.0
C1012 C 0.92784 0.07901 0.3015 0.0
C1013 C 0.96571 0.1321 0.27834 0.0
C1014 C 0.94644 0.11512 0.2713 0.0
C1015 C 0.89435 0.06261 0.24313 0.0
C1016 C 0.91138 0.0814 0.2549 0.0
H1017 H 1.00488 0.16252 0.19353 0.0
H1018 H 0.97109 0.13754 0.18145 0.0
H1019 H 0.95804 0.09269 0.34447 0.0
H1020 H 0.86113 0.02309 0.31865 0.0
H1021 H 0.88577 0.05665 0.33813 0.0
C1022 C 0.4953 0.36927 0.51435 0.0
C1023 C 0.50218 0.36275 0.45519 0.0
C1024 C 0.47652 0.3844 0.5231 0.0
C1025 C 0.44398 0.42976 0.44078 0.0
H1026 H 0.40126 0.42552 0.57714 0.0
C1027 C 0.36897 0.49507 0.47163 0.0
C1028 C 0.36626 0.50422 0.53071 0.0
C1029 C 0.3832 0.47575 0.46143 0.0
C1030 C 0.41312 0.42697 0.53895 0.0
H1031 H 0.49401 0.36606 0.3592 0.0
H1032 H 0.46117 0.39192 0.37448 0.0
H1033 H 0.43051 0.39533 0.56187 0.0
H1034 H 0.37588 0.49972 0.62547 0.0
H1035 H 0.40074 0.4663 0.60753 0.0
H1036 H 0.42689 0.46148 0.41824 0.0
C1037 C 0.47056 0.3859 0.41407 0.0
C1038 C 0.42991 0.4097 0.53028 0.0
C1039 C 0.48935 0.37097 0.40534 0.0
C1040 C 0.37762 0.49321 0.57935 0.0
C1041 C 0.39173 0.47388 0.56918 0.0
C1042 C 0.4272 0.44695 0.44934 0.0
C1043 C 0.46421 0.39324 0.47291 0.0
C1044 C 0.44566 0.41097 0.48129 0.0
C1045 C 0.39498 0.46512 0.51 0.0
C1046 C 0.41169 0.44589 0.49879 0.0
H1047 H 0.50499 0.36355 0.55373 0.0
H1048 H 0.47226 0.38987 0.56903 0.0
H1049 H 0.45609 0.43157 0.40324 0.0
H1050 H 0.36082 0.50324 0.43285 0.0
H1051 H 0.3852 0.46931 0.41532 0.0
C1052 C 0.15493 0.99386 0.76886 0.0
C1053 C 0.16024 1.00201 0.7101 0.0
C1054 C 0.14027 0.97475 0.77663 0.0
C1055 C 0.09403 0.94302 0.69494 0.0
H1056 H 0.10089 0.89856 0.82574 0.0
C1057 C 0.02985 0.86724 0.7251 0.0
C1058 C 0.02146 0.86405 0.78478 0.0
C1059 C 0.04901 0.88156 0.71413 0.0
C1060 C 0.09872 0.91089 0.78908 0.0
H1061 H 0.15527 0.99576 0.61357 0.0
H1062 H 0.13029 0.96229 0.62702 0.0
H1063 H 0.13048 0.92826 0.81063 0.0
H1064 H 0.02719 0.87281 0.87974 0.0
H1065 H 0.06036 0.89774 0.86053 0.0
H1066 H 0.06219 0.92589 0.67379 0.0
C1067 C 0.13687 0.97095 0.6672 0.0
C1068 C 0.11564 0.92796 0.78053 0.0
C1069 C 0.1513 0.9901 0.65948 0.0
C1070 C 0.03312 0.87493 0.83318 0.0
C1071 C 0.0523 0.88909 0.82226 0.0
C1072 C 0.0772 0.92594 0.70333 0.0
C1073 C 0.1307 0.96332 0.72584 0.0
C1074 C 0.1134 0.94438 0.73365 0.0
C1075 C 0.06025 0.89291 0.76254 0.0
C1076 C 0.0792 0.90981 0.75087 0.0
H1077 H 0.16124 1.00282 0.80887 0.0
H1078 H 0.13571 0.96952 0.8225 0.0
H1079 H 0.09144 0.95562 0.65911 0.0
H1080 H 0.02117 0.85943 0.68657 0.0
H1081 H 0.05482 0.88402 0.6676 0.0
C1082 C 0.65203 0.51965 0.98745 0.0
C1083 C 0.65718 0.51168 0.04638 0.0
C1084 C 0.63658 0.53814 0.97904 0.0
C1085 C 0.58946 0.5708 0.05855 0.0
H1086 H 0.5997 0.61519 0.92908 0.0
C1087 C 0.53599 0.6561 0.02899 0.0
C1088 C 0.52992 0.66193 0.96883 0.0
C1089 C 0.55066 0.63717 0.04045 0.0
C1090 C 0.59648 0.60282 0.96516 0.0
H1091 H 0.65049 0.51729 0.14262 0.0
H1092 H 0.62416 0.54974 0.1281 0.0
H1093 H 0.62758 0.58405 0.94461 0.0
H1094 H 0.53367 0.65156 0.87409 0.0
H1095 H 0.55902 0.61888 0.8942 0.0
H1096 H 0.55845 0.58993 0.0794 0.0
C1097 C 0.63153 0.54142 0.08821 0.0
C1098 C 0.61246 0.5849 0.97398 0.0
C1099 C 0.64679 0.52286 0.09655 0.0
C1100 C 0.53816 0.64784 0.92096 0.0
C1101 C 0.55281 0.62911 0.93237 0.0
C1102 C 0.57356 0.58887 0.04998 0.0
C1103 C 0.62601 0.54919 0.02934 0.0
C1104 C 0.60912 0.56854 0.02056 0.0
C1105 C 0.55966 0.62383 0.99204 0.0
C1106 C 0.57679 0.60496 0.00284 0.0
H1107 H 0.6593 0.51118 0.94766 0.0
H1108 H 0.63249 0.54336 0.93296 0.0
H1109 H 0.58608 0.55836 0.09432 0.0
H1110 H 0.53035 0.66667 0.06705 0.0
H1111 H 0.55571 0.63357 0.08697 0.0
loop_
_geom_bond_atom_site_label_1
_geom_bond_atom_site_label_2
_geom_bond_distance
_geom_bond_site_symmetry_2
_ccdc_geom_bond_type
Zn0 N4 2.020 . S
Zn0 O8 2.019 . S
Zn0 N10 2.119 . S
Zn0 O18 1.975 . S
C1 N2 1.334 . S
C1 N5 1.336 . S
N2 C1 1.334 . S
N2 C3 1.334 . S
C3 N2 1.334 . S
C3 N4 1.336 . S
N4 Zn0 2.020 . S
N4 C3 1.336 . S
N4 N5 1.354 . S
N5 C1 1.336 . S
N5 N4 1.354 . S
N5 Zn9 2.020 . S
C6 O7 1.244 . S
C6 O30 1.257 . S
O7 C6 1.244 . S
O8 Zn0 2.019 . S
O8 C28 1.257 . S
Zn9 N5 2.020 . S
Zn9 O16 1.975 . S
Zn9 N25 2.119 . S
Zn9 O30 2.019 . S
N10 Zn0 2.119 . S
N10 C12 1.334 . S
N10 C13 1.328 . S
C11 C12 1.391 . S
C11 N14 1.329 . S
C11 H32 0.930 . S
C12 N10 1.334 . S
C12 C11 1.391 . S
C12 H19 0.930 . S
C13 N10 1.328 . S
C13 C15 1.392 . S
C13 H20 0.930 . S
N14 C11 1.329 . S
N14 C15 1.331 . S
C15 C13 1.392 . S
C15 N14 1.331 . S
O16 Zn9 1.975 . S
O16 C17 1.252 . S
C17 O16 1.252 . S
C17 O18 1.252 . S
O18 Zn0 1.975 . S
O18 C17 1.252 . S
H19 C12 0.930 . S
H20 C13 0.930 . S
C21 C22 1.392 . S
C21 N25 1.328 1_655 S
C21 H27 0.930 1_655 S
C22 C21 1.392 . S
C22 N26 1.331 . S
C23 C24 1.391 1_655 S
C23 N26 1.329 . S
C23 H33 0.930 . S
C24 C23 1.391 1_455 S
C24 N25 1.334 . S
C24 H31 0.930 . S
N25 Zn9 2.119 . S
N25 C21 1.328 1_455 S
N25 C24 1.334 . S
N26 C22 1.331 . S
N26 C23 1.329 . S
H27 C21 0.930 1_455 S
C28 O8 1.257 . S
C28 O29 1.244 . S
O29 C28 1.244 . S
O30 C6 1.257 . S
O30 Zn9 2.019 . S
H31 C24 0.930 . S
H32 C11 0.930 . S
H33 C23 0.930 . S
Zn34 N38 2.020 . S
Zn34 O42 2.019 . S
Zn34 N44 2.119 . S
Zn34 O52 1.975 . S
C35 N36 1.334 . S
C35 N39 1.336 . S
N36 C35 1.334 . S
N36 C37 1.334 . S
C37 N36 1.334 . S
C37 N38 1.336 . S
N38 Zn34 2.020 . S
N38 C37 1.336 . S
N38 N39 1.354 . S
N39 C35 1.336 . S
N39 N38 1.354 . S
N39 Zn43 2.020 . S
C40 O41 1.244 . S
C40 O64 1.257 . S
O41 C40 1.244 . S
O42 Zn34 2.019 . S
O42 C62 1.257 . S
Zn43 N39 2.020 . S
Zn43 O50 1.975 . S
Zn43 N59 2.119 . S
Zn43 O64 2.019 . S
N44 Zn34 2.119 . S
N44 C46 1.334 . S
N44 C47 1.328 . S
C45 C46 1.391 . S
C45 N48 1.329 . S
C45 H66 0.930 . S
C46 N44 1.334 . S
C46 C45 1.391 . S
C46 H53 0.930 . S
C47 N44 1.328 . S
C47 C49 1.392 . S
C47 H54 0.930 . S
N48 C45 1.329 . S
N48 C49 1.331 . S
C49 C47 1.392 . S
C49 N48 1.331 . S
O50 Zn43 1.975 . S
O50 C51 1.252 . S
C51 O50 1.252 . S
C51 O52 1.252 . S
O52 Zn34 1.975 . S
O52 C51 1.252 . S
H53 C46 0.930 . S
H54 C47 0.930 . S
C55 C56 1.392 . S
C55 N59 1.328 . S
C55 H61 0.930 . S
C56 C55 1.392 . S
C56 N60 1.331 . S
C57 C58 1.391 . S
C57 N60 1.329 . S
C57 H67 0.930 . S
C58 C57 1.391 . S
C58 N59 1.334 . S
C58 H65 0.930 . S
N59 Zn43 2.119 . S
N59 C55 1.328 . S
N59 C58 1.334 . S
N60 C56 1.331 . S
N60 C57 1.329 . S
H61 C55 0.930 . S
C62 O42 1.257 . S
C62 O63 1.244 . S
O63 C62 1.244 . S
O64 C40 1.257 . S
O64 Zn43 2.019 . S
H65 C58 0.930 . S
H66 C45 0.930 . S
H67 C57 0.930 . S
Zn68 N72 2.020 . S
Zn68 O76 2.019 . S
Zn68 N78 2.119 . S
Zn68 O86 1.975 . S
C69 N70 1.334 . S
C69 N73 1.336 . S
N70 C69 1.334 . S
N70 C71 1.334 . S
C71 N70 1.334 . S
C71 N72 1.336 . S
N72 Zn68 2.020 . S
N72 C71 1.336 . S
N72 N73 1.354 . S
N73 C69 1.336 . S
N73 N72 1.354 . S
N73 Zn77 2.020 . S
C74 O75 1.244 . S
C74 O98 1.257 . S
O75 C74 1.244 . S
O76 Zn68 2.019 . S
O76 C96 1.257 1_556 S
Zn77 N73 2.020 . S
Zn77 O84 1.975 . S
Zn77 N93 2.119 . S
Zn77 O98 2.019 . S
N78 Zn68 2.119 . S
N78 C80 1.334 . S
N78 C81 1.328 . S
C79 C80 1.391 . S
C79 N82 1.329 . S
C79 H100 0.930 . S
C80 N78 1.334 . S
C80 C79 1.391 . S
C80 H87 0.930 . S
C81 N78 1.328 . S
C81 C83 1.392 . S
C81 H88 0.930 . S
N82 C79 1.329 . S
N82 C83 1.331 . S
C83 C81 1.392 . S
C83 N82 1.331 . S
O84 Zn77 1.975 . S
O84 C85 1.252 . S
C85 O84 1.252 . S
C85 O86 1.252 . S
O86 Zn68 1.975 . S
O86 C85 1.252 . S
H87 C80 0.930 . S
H88 C81 0.930 . S
C89 C90 1.392 . S
C89 N93 1.328 1_455 S
C89 H95 0.925 1_455 S
C90 C89 1.392 . S
C90 N94 1.331 . S
C91 C92 1.391 1_455 S
C91 N94 1.329 . S
C91 H101 0.930 . S
C92 C91 1.391 1_655 S
C92 N93 1.334 . S
C92 H99 0.930 . S
N93 Zn77 2.119 . S
N93 C89 1.328 1_655 S
N93 C92 1.334 . S
N94 C90 1.331 . S
N94 C91 1.329 . S
H95 C89 0.925 1_655 S
C96 O76 1.257 1_554 S
C96 O97 1.244 1_554 S
O97 C96 1.244 1_556 S
O98 C74 1.257 . S
O98 Zn77 2.019 . S
H99 C92 0.930 . S
H100 C79 0.930 . S
H101 C91 0.930 . S
Zn102 N106 2.020 . S
Zn102 O110 2.019 . S
Zn102 N112 2.119 . S
Zn102 O120 1.975 . S
C103 N104 1.345 . S
C103 N107 1.336 . S
N104 C103 1.345 . S
N104 C105 1.323 1_556 S
C105 N104 1.323 1_554 S
C105 N106 1.336 . S
N106 Zn102 2.020 . S
N106 C105 1.336 . S
N106 N107 1.354 1_554 S
N107 C103 1.336 . S
N107 N106 1.354 1_556 S
N107 Zn111 2.020 . S
C108 O109 1.244 . S
C108 O132 1.257 . S
O109 C108 1.244 . S
O110 Zn102 2.019 . S
O110 C130 1.257 . S
Zn111 N107 2.020 . S
Zn111 O118 1.975 . S
Zn111 N127 2.119 . S
Zn111 O132 2.019 . S
N112 Zn102 2.119 . S
N112 C114 1.334 1_554 S
N112 C115 1.328 . S
C113 C114 1.391 . S
C113 N116 1.329 1_556 S
C113 H134 0.930 . S
C114 N112 1.334 1_556 S
C114 C113 1.391 . S
C114 H121 0.930 . S
C115 N112 1.328 . S
C115 C117 1.392 . S
C115 H122 0.930 . S
N116 C113 1.329 1_554 S
N116 C117 1.331 . S
C117 C115 1.392 . S
C117 N116 1.331 . S
O118 Zn111 1.975 . S
O118 C119 1.246 1_556 S
C119 O118 1.246 1_554 S
C119 O120 1.258 . S
O120 Zn102 1.975 . S
O120 C119 1.258 . S
H121 C114 0.930 . S
H122 C115 0.930 . S
C123 C124 1.392 . S
C123 N127 1.328 . S
C123 H129 0.930 . S
C124 C123 1.392 . S
C124 N128 1.331 . S
C125 C126 1.391 . S
C125 N128 1.329 1_554 S
C125 H135 0.930 . S
C126 C125 1.391 . S
C126 N127 1.334 1_554 S
C126 H133 0.930 . S
N127 Zn111 2.119 . S
N127 C123 1.328 . S
N127 C126 1.334 1_556 S
N128 C124 1.331 . S
N128 C125 1.329 1_556 S
H129 C123 0.930 . S
C130 O110 1.257 . S
C130 O131 1.244 . S
O131 C130 1.244 . S
O132 C108 1.257 . S
O132 Zn111 2.019 . S
H133 C126 0.930 . S
H134 C113 0.930 . S
H135 C125 0.930 . S
Zn136 N140 2.020 . S
Zn136 O144 2.019 . S
Zn136 N146 2.119 . S
Zn136 O154 1.975 . S
C137 N138 1.334 . S
C137 N141 1.336 . S
N138 C137 1.334 . S
N138 C139 1.334 . S
C139 N138 1.334 . S
C139 N140 1.336 . S
N140 Zn136 2.020 . S
N140 C139 1.336 . S
N140 N141 1.354 . S
N141 C137 1.336 . S
N141 N140 1.354 . S
N141 Zn145 2.020 . S
C142 O143 1.244 . S
C142 O166 1.257 . S
O143 C142 1.244 . S
O144 Zn136 2.019 . S
O144 C164 1.257 . S
Zn145 N141 2.020 . S
Zn145 O152 1.975 . S
Zn145 N161 2.119 . S
Zn145 O166 2.019 . S
N146 Zn136 2.119 . S
N146 C148 1.334 . S
N146 C149 1.328 . S
C147 C148 1.391 . S
C147 N150 1.329 . S
C147 H168 0.930 . S
C148 N146 1.334 . S
C148 C147 1.391 . S
C148 H155 0.930 . S
C149 N146 1.328 . S
C149 C151 1.392 . S
C149 H156 0.930 . S
N150 C147 1.329 . S
N150 C151 1.331 . S
C151 C149 1.392 . S
C151 N150 1.331 . S
O152 Zn145 1.975 . S
O152 C153 1.252 . S
C153 O152 1.252 . S
C153 O154 1.252 . S
O154 Zn136 1.975 . S
O154 C153 1.252 . S
H155 C148 0.930 . S
H156 C149 0.930 . S
C157 C158 1.392 . S
C157 N161 1.328 . S
C157 H163 0.930 . S
C158 C157 1.392 . S
C158 N162 1.331 . S
C159 C160 1.391 . S
C159 N162 1.329 . S
C159 H169 0.930 . S
C160 C159 1.391 . S
C160 N161 1.334 . S
C160 H167 0.930 . S
N161 Zn145 2.119 . S
N161 C157 1.328 . S
N161 C160 1.334 . S
N162 C158 1.331 . S
N162 C159 1.329 . S
H163 C157 0.930 . S
C164 O144 1.257 . S
C164 O165 1.244 . S
O165 C164 1.244 . S
O166 C142 1.257 . S
O166 Zn145 2.019 . S
H167 C160 0.930 . S
H168 C147 0.930 . S
H169 C159 0.930 . S
Zn170 N174 2.020 . S
Zn170 O178 2.019 . S
Zn170 N180 2.119 . S
Zn170 O188 1.975 . S
C171 N172 1.334 . S
C171 N175 1.336 . S
N172 C171 1.334 . S
N172 C173 1.334 . S
C173 N172 1.334 . S
C173 N174 1.336 . S
N174 Zn170 2.020 . S
N174 C173 1.336 . S
N174 N175 1.354 . S
N175 C171 1.336 . S
N175 N174 1.354 . S
N175 Zn179 2.020 . S
C176 O177 1.244 . S
C176 O200 1.257 . S
O177 C176 1.244 . S
O178 Zn170 2.019 . S
O178 C198 1.257 . S
Zn179 N175 2.020 . S
Zn179 O186 1.975 . S
Zn179 N195 2.119 . S
Zn179 O200 2.019 . S
N180 Zn170 2.119 . S
N180 C182 1.334 . S
N180 C183 1.328 1_545 S
C181 C182 1.391 1_565 S
C181 N184 1.329 . S
C181 H202 0.930 . S
C182 N180 1.334 . S
C182 C181 1.391 1_545 S
C182 H189 0.930 . S
C183 N180 1.328 1_565 S
C183 C185 1.392 . S
C183 H190 0.930 1_565 S
N184 C181 1.329 . S
N184 C185 1.331 . S
C185 C183 1.392 . S
C185 N184 1.331 . S
O186 Zn179 1.975 . S
O186 C187 1.252 . S
C187 O186 1.252 . S
C187 O188 1.252 . S
O188 Zn170 1.975 . S
O188 C187 1.252 . S
H189 C182 0.930 . S
H190 C183 0.930 1_545 S
C191 C192 1.392 . S
C191 N195 1.328 . S
C191 H197 0.930 . S
C192 C191 1.392 . S
C192 N196 1.331 . S
C193 C194 1.391 . S
C193 N196 1.329 . S
C193 H203 0.930 . S
C194 C193 1.391 . S
C194 N195 1.334 . S
C194 H201 0.930 . S
N195 Zn179 2.119 . S
N195 C191 1.328 . S
N195 C194 1.334 . S
N196 C192 1.331 . S
N196 C193 1.329 . S
H197 C191 0.930 . S
C198 O178 1.257 . S
C198 O199 1.244 . S
O199 C198 1.244 . S
O200 C176 1.257 . S
O200 Zn179 2.019 . S
H201 C194 0.930 . S
H202 C181 0.930 . S
H203 C193 0.930 . S
Zn204 N208 2.020 . S
Zn204 O212 2.019 . S
Zn204 N214 2.119 . S
Zn204 O222 1.975 . S
C205 N206 1.345 . S
C205 N209 1.336 . S
N206 C205 1.345 . S
N206 C207 1.323 1_554 S
C207 N206 1.323 1_556 S
C207 N208 1.336 . S
N208 Zn204 2.020 . S
N208 C207 1.336 . S
N208 N209 1.354 1_556 S
N209 C205 1.336 . S
N209 N208 1.354 1_554 S
N209 Zn213 2.020 . S
C210 O211 1.244 . S
C210 O234 1.257 . S
O211 C210 1.244 . S
O212 Zn204 2.019 . S
O212 C232 1.257 . S
Zn213 N209 2.020 . S
Zn213 O220 1.975 . S
Zn213 N229 2.119 . S
Zn213 O234 2.019 . S
N214 Zn204 2.119 . S
N214 C216 1.334 1_556 S
N214 C217 1.328 . S
C215 C216 1.391 . S
C215 N218 1.329 1_554 S
C215 H236 0.930 . S
C216 N214 1.334 1_554 S
C216 C215 1.391 . S
C216 H223 0.930 . S
C217 N214 1.328 . S
C217 C219 1.392 . S
C217 H224 0.930 . S
N218 C215 1.329 1_556 S
N218 C219 1.331 . S
C219 C217 1.392 . S
C219 N218 1.331 . S
O220 Zn213 1.975 . S
O220 C221 1.246 1_554 S
C221 O220 1.246 1_556 S
C221 O222 1.258 . S
O222 Zn204 1.975 . S
O222 C221 1.258 . S
H223 C216 0.930 . S
H224 C217 0.930 . S
C225 C226 1.392 . S
C225 N229 1.328 . S
C225 H231 0.930 . S
C226 C225 1.392 . S
C226 N230 1.331 . S
C227 C228 1.391 . S
C227 N230 1.329 1_556 S
C227 H237 0.930 . S
C228 C227 1.391 . S
C228 N229 1.334 1_556 S
C228 H235 0.930 . S
N229 Zn213 2.119 . S
N229 C225 1.328 . S
N229 C228 1.334 1_554 S
N230 C226 1.331 . S
N230 C227 1.329 1_554 S
H231 C225 0.930 . S
C232 O212 1.257 . S
C232 O233 1.244 . S
O233 C232 1.244 . S
O234 C210 1.257 . S
O234 Zn213 2.019 . S
H235 C228 0.930 . S
H236 C215 0.930 . S
H237 C227 0.930 . S
Zn238 N242 2.020 . S
Zn238 O246 2.019 . S
Zn238 N248 2.119 . S
Zn238 O256 1.975 . S
C239 N240 1.334 . S
C239 N243 1.336 . S
N240 C239 1.334 . S
N240 C241 1.334 . S
C241 N240 1.334 . S
C241 N242 1.336 . S
N242 Zn238 2.020 . S
N242 C241 1.336 . S
N242 N243 1.354 . S
N243 C239 1.336 . S
N243 N242 1.354 . S
N243 Zn247 2.020 . S
C244 O245 1.244 . S
C244 O268 1.257 . S
O245 C244 1.244 . S
O246 Zn238 2.019 . S
O246 C266 1.257 1_554 S
Zn247 N243 2.020 . S
Zn247 O254 1.975 . S
Zn247 N263 2.119 . S
Zn247 O268 2.019 . S
N248 Zn238 2.119 . S
N248 C250 1.334 . S
N248 C251 1.328 . S
C249 C250 1.391 . S
C249 N252 1.329 . S
C249 H270 0.930 . S
C250 N248 1.334 . S
C250 C249 1.391 . S
C250 H257 0.930 . S
C251 N248 1.328 . S
C251 C253 1.392 . S
C251 H258 0.930 . S
N252 C249 1.329 . S
N252 C253 1.331 . S
C253 C251 1.392 . S
C253 N252 1.331 . S
O254 Zn247 1.975 . S
O254 C255 1.252 . S
C255 O254 1.252 . S
C255 O256 1.252 . S
O256 Zn238 1.975 . S
O256 C255 1.252 . S
H257 C250 0.930 . S
H258 C251 0.930 . S
C259 C260 1.392 . S
C259 N263 1.328 1_545 S
C259 H265 0.925 1_545 S
C260 C259 1.392 . S
C260 N264 1.331 . S
C261 C262 1.391 1_545 S
C261 N264 1.329 . S
C261 H271 0.930 . S
C262 C261 1.391 1_565 S
C262 N263 1.334 . S
C262 H269 0.930 . S
N263 Zn247 2.119 . S
N263 C259 1.328 1_565 S
N263 C262 1.334 . S
N264 C260 1.331 . S
N264 C261 1.329 . S
H265 C259 0.925 1_565 S
C266 O246 1.257 1_556 S
C266 O267 1.244 1_556 S
O267 C266 1.244 1_554 S
O268 C244 1.257 . S
O268 Zn247 2.019 . S
H269 C262 0.930 . S
H270 C249 0.930 . S
H271 C261 0.930 . S
C272 C273 1.349 . S
C272 C274 1.327 . S
C272 H297 0.950 . S
C273 C272 1.349 . S
C273 C289 1.349 . S
C274 C272 1.327 . S
C274 C293 1.429 . S
C274 H298 0.950 . S
C275 C292 1.574 . S
C275 C294 1.368 . S
C275 H299 0.949 . S
H276 C280 0.949 . S
C277 C278 1.349 . S
C277 C279 1.327 . S
C277 H300 0.950 . S
C278 C277 1.349 . S
C278 C290 1.349 . S
C279 C277 1.327 . S
C279 C295 1.429 . S
C279 H301 0.950 . S
C280 H276 0.949 . S
C280 C288 1.574 . S
C280 C296 1.368 . S
H281 C289 0.950 . S
H282 C287 0.950 . S
H283 C288 0.949 . S
H284 C290 0.950 . S
H285 C291 0.950 . S
H286 C292 0.949 . S
C287 H282 0.950 . S
C287 C289 1.327 . S
C287 C293 1.429 . S
C288 C280 1.574 . S
C288 H283 0.949 . S
C288 C294 1.368 . S
C289 C273 1.349 . S
C289 H281 0.950 . S
C289 C287 1.327 . S
C290 C278 1.349 . S
C290 H284 0.950 . S
C290 C291 1.327 . S
C291 H285 0.950 . S
C291 C290 1.327 . S
C291 C295 1.429 . S
C292 C275 1.574 . S
C292 H286 0.949 . S
C292 C296 1.368 . S
C293 C274 1.429 . S
C293 C287 1.429 . S
C293 C294 1.523 . S
C294 C275 1.368 . S
C294 C288 1.368 . S
C294 C293 1.523 . S
C295 C279 1.429 . S
C295 C291 1.429 . S
C295 C296 1.523 . S
C296 C280 1.368 . S
C296 C292 1.368 . S
C296 C295 1.523 . S
H297 C272 0.950 . S
H298 C274 0.950 . S
H299 C275 0.949 . S
H300 C277 0.950 . S
H301 C279 0.950 . S
C302 C303 1.349 . S
C302 C304 1.327 . S
C302 H327 0.950 . S
C303 C302 1.349 . S
C303 C319 1.349 . S
C304 C302 1.327 . S
C304 C323 1.429 . S
C304 H328 0.950 . S
C305 C322 1.574 . S
C305 C324 1.368 . S
C305 H329 0.949 . S
H306 C310 0.949 . S
C307 C308 1.349 . S
C307 C309 1.327 . S
C307 H330 0.950 . S
C308 C307 1.349 . S
C308 C320 1.349 . S
C309 C307 1.327 . S
C309 C325 1.429 . S
C309 H331 0.950 . S
C310 H306 0.949 . S
C310 C318 1.574 . S
C310 C326 1.368 . S
H311 C319 0.950 . S
H312 C317 0.950 . S
H313 C318 0.949 . S
H314 C320 0.950 . S
H315 C321 0.950 . S
H316 C322 0.949 . S
C317 H312 0.950 . S
C317 C319 1.327 . S
C317 C323 1.429 . S
C318 C310 1.574 . S
C318 H313 0.949 . S
C318 C324 1.368 . S
C319 C303 1.349 . S
C319 H311 0.950 . S
C319 C317 1.327 . S
C320 C308 1.349 . S
C320 H314 0.950 . S
C320 C321 1.327 . S
C321 H315 0.950 . S
C321 C320 1.327 . S
C321 C325 1.429 . S
C322 C305 1.574 . S
C322 H316 0.949 . S
C322 C326 1.368 . S
C323 C304 1.429 . S
C323 C317 1.429 . S
C323 C324 1.523 . S
C324 C305 1.368 . S
C324 C318 1.368 . S
C324 C323 1.523 . S
C325 C309 1.429 . S
C325 C321 1.429 . S
C325 C326 1.523 . S
C326 C310 1.368 . S
C326 C322 1.368 . S
C326 C325 1.523 . S
H327 C302 0.950 . S
H328 C304 0.950 . S
H329 C305 0.949 . S
H330 C307 0.950 . S
H331 C309 0.950 . S
C332 C333 1.349 . S
C332 C334 1.327 . S
C332 H357 0.950 . S
C333 C332 1.349 . S
C333 C349 1.349 1_556 S
C334 C332 1.327 . S
C334 C353 1.429 . S
C334 H358 0.950 . S
C335 C352 1.572 1_554 S
C335 C354 1.368 1_554 S
C335 H359 0.949 . S
H336 C340 0.949 . S
C337 C338 1.349 . S
C337 C339 1.327 . S
C337 H360 0.950 . S
C338 C337 1.349 . S
C338 C350 1.349 . S
C339 C337 1.327 . S
C339 C355 1.429 . S
C339 H361 0.950 1_556 S
C340 H336 0.949 . S
C340 C348 1.574 . S
C340 C356 1.368 . S
H341 C349 0.950 . S
H342 C347 0.950 . S
H343 C348 0.949 . S
H344 C350 0.950 . S
H345 C351 0.950 . S
H346 C352 0.941 1_554 S
C347 H342 0.950 . S
C347 C349 1.327 . S
C347 C353 1.429 1_554 S
C348 C340 1.574 . S
C348 H343 0.949 . S
C348 C354 1.368 . S
C349 C333 1.349 1_554 S
C349 H341 0.950 . S
C349 C347 1.327 . S
C350 C338 1.349 . S
C350 H344 0.950 . S
C350 C351 1.327 . S
C351 H345 0.950 . S
C351 C350 1.327 . S
C351 C355 1.429 . S
C352 C335 1.572 1_556 S
C352 H346 0.941 1_556 S
C352 C356 1.379 . S
C353 C334 1.429 . S
C353 C347 1.429 1_556 S
C353 C354 1.523 . S
C354 C335 1.368 1_556 S
C354 C348 1.368 . S
C354 C353 1.523 . S
C355 C339 1.429 . S
C355 C351 1.429 . S
C355 C356 1.523 . S
C356 C340 1.368 . S
C356 C352 1.379 . S
C356 C355 1.523 . S
H357 C332 0.950 . S
H358 C334 0.950 . S
H359 C335 0.949 . S
H360 C337 0.950 . S
H361 C339 0.950 1_554 S
C362 C363 1.349 . S
C362 C364 1.327 . S
C362 H387 0.950 1_655 S
C363 C362 1.349 . S
C363 C379 1.349 . S
C364 C362 1.327 . S
C364 C383 1.429 . S
C364 H388 0.950 . S
C365 C382 1.574 . S
C365 C384 1.368 . S
C365 H389 0.949 . S
H366 C370 0.949 . S
C367 C368 1.349 . S
C367 C369 1.327 . S
C367 H390 0.950 . S
C368 C367 1.349 . S
C368 C380 1.349 . S
C369 C367 1.327 . S
C369 C385 1.429 . S
C369 H391 0.950 . S
C370 H366 0.949 . S
C370 C378 1.574 . S
C370 C386 1.368 . S
H371 C379 0.950 . S
H372 C377 0.950 . S
H373 C378 0.949 . S
H374 C380 0.950 . S
H375 C381 0.950 . S
H376 C382 0.949 . S
C377 H372 0.950 . S
C377 C379 1.327 . S
C377 C383 1.429 . S
C378 C370 1.574 . S
C378 H373 0.949 . S
C378 C384 1.368 . S
C379 C363 1.349 . S
C379 H371 0.950 . S
C379 C377 1.327 . S
C380 C368 1.349 . S
C380 H374 0.950 . S
C380 C381 1.327 . S
C381 H375 0.950 . S
C381 C380 1.327 . S
C381 C385 1.429 . S
C382 C365 1.574 . S
C382 H376 0.949 . S
C382 C386 1.368 . S
C383 C364 1.429 . S
C383 C377 1.429 . S
C383 C384 1.523 . S
C384 C365 1.368 . S
C384 C378 1.368 . S
C384 C383 1.523 . S
C385 C369 1.429 . S
C385 C381 1.429 . S
C385 C386 1.523 . S
C386 C370 1.368 . S
C386 C382 1.368 . S
C386 C385 1.523 . S
H387 C362 0.950 1_455 S
H388 C364 0.950 . S
H389 C365 0.949 . S
H390 C367 0.950 . S
H391 C369 0.950 . S
C392 C393 1.349 . S
C392 C394 1.327 . S
C392 H417 0.950 . S
C393 C392 1.349 . S
C393 C409 1.349 . S
C394 C392 1.327 . S
C394 C413 1.429 . S
C394 H418 0.950 . S
C395 C412 1.574 . S
C395 C414 1.368 . S
C395 H419 0.949 . S
H396 C400 0.949 . S
C397 C398 1.349 . S
C397 C399 1.327 . S
C397 H420 0.950 1_545 S
C398 C397 1.349 . S
C398 C410 1.349 . S
C399 C397 1.327 . S
C399 C415 1.429 . S
C399 H421 0.950 . S
C400 H396 0.949 . S
C400 C408 1.574 . S
C400 C416 1.368 . S
H401 C409 0.950 . S
H402 C407 0.950 . S
H403 C408 0.949 . S
H404 C410 0.950 . S
H405 C411 0.950 . S
H406 C412 0.949 . S
C407 H402 0.950 . S
C407 C409 1.327 . S
C407 C413 1.429 . S
C408 C400 1.574 . S
C408 H403 0.949 . S
C408 C414 1.368 . S
C409 C393 1.349 . S
C409 H401 0.950 . S
C409 C407 1.327 . S
C410 C398 1.349 . S
C410 H404 0.950 . S
C410 C411 1.327 . S
C411 H405 0.950 . S
C411 C410 1.327 . S
C411 C415 1.429 . S
C412 C395 1.574 . S
C412 H406 0.949 . S
C412 C416 1.368 . S
C413 C394 1.429 . S
C413 C407 1.429 . S
C413 C414 1.523 . S
C414 C395 1.368 . S
C414 C408 1.368 . S
C414 C413 1.523 . S
C415 C399 1.429 . S
C415 C411 1.429 . S
C415 C416 1.523 . S
C416 C400 1.368 . S
C416 C412 1.368 . S
C416 C415 1.523 . S
H417 C392 0.950 . S
H418 C394 0.950 . S
H419 C395 0.949 . S
H420 C397 0.950 1_565 S
H421 C399 0.950 . S
C422 C423 1.349 . S
C422 C424 1.327 . S
C422 H447 0.950 . S
C423 C422 1.349 . S
C423 C439 1.349 . S
C424 C422 1.327 . S
C424 C443 1.429 . S
C424 H448 0.950 . S
C425 C442 1.574 . S
C425 C444 1.368 . S
C425 H449 0.949 . S
H426 C430 0.949 . S
C427 C428 1.349 . S
C427 C429 1.327 . S
C427 H450 0.950 . S
C428 C427 1.349 . S
C428 C440 1.349 . S
C429 C427 1.327 . S
C429 C445 1.429 . S
C429 H451 0.950 . S
C430 H426 0.949 . S
C430 C438 1.574 . S
C430 C446 1.368 . S
H431 C439 0.950 . S
H432 C437 0.950 . S
H433 C438 0.949 . S
H434 C440 0.950 . S
H435 C441 0.950 . S
H436 C442 0.949 . S
C437 H432 0.950 . S
C437 C439 1.327 . S
C437 C443 1.429 . S
C438 C430 1.574 . S
C438 H433 0.949 . S
C438 C444 1.368 . S
C439 C423 1.349 . S
C439 H431 0.950 . S
C439 C437 1.327 . S
C440 C428 1.349 . S
C440 H434 0.950 . S
C440 C441 1.327 . S
C441 H435 0.950 . S
C441 C440 1.327 . S
C441 C445 1.429 . S
C442 C425 1.574 . S
C442 H436 0.949 . S
C442 C446 1.368 . S
C443 C424 1.429 . S
C443 C437 1.429 . S
C443 C444 1.523 . S
C444 C425 1.368 . S
C444 C438 1.368 . S
C444 C443 1.523 . S
C445 C429 1.429 . S
C445 C441 1.429 . S
C445 C446 1.523 . S
C446 C430 1.368 . S
C446 C442 1.368 . S
C446 C445 1.523 . S
H447 C422 0.950 . S
H448 C424 0.950 . S
H449 C425 0.949 . S
H450 C427 0.950 . S
H451 C429 0.950 . S
C452 C453 1.349 . S
C452 C454 1.327 . S
C452 H477 0.950 . S
C453 C452 1.349 . S
C453 C469 1.349 . S
C454 C452 1.327 . S
C454 C473 1.429 . S
C454 H478 0.950 . S
C455 C472 1.574 . S
C455 C474 1.368 . S
C455 H479 0.949 . S
H456 C460 0.949 . S
C457 C458 1.349 . S
C457 C459 1.327 . S
C457 H480 0.950 . S
C458 C457 1.349 . S
C458 C470 1.349 . S
C459 C457 1.327 . S
C459 C475 1.429 . S
C459 H481 0.950 . S
C460 H456 0.949 . S
C460 C468 1.574 . S
C460 C476 1.368 . S
H461 C469 0.950 1_545 S
H462 C467 0.950 . S
H463 C468 0.949 . S
H464 C470 0.950 . S
H465 C471 0.950 . S
H466 C472 0.949 . S
C467 H462 0.950 . S
C467 C469 1.327 . S
C467 C473 1.429 . S
C468 C460 1.574 . S
C468 H463 0.949 . S
C468 C474 1.368 . S
C469 C453 1.349 . S
C469 H461 0.950 1_565 S
C469 C467 1.327 . S
C470 C458 1.349 . S
C470 H464 0.950 . S
C470 C471 1.327 . S
C471 H465 0.950 . S
C471 C470 1.327 . S
C471 C475 1.429 . S
C472 C455 1.574 . S
C472 H466 0.949 . S
C472 C476 1.368 . S
C473 C454 1.429 . S
C473 C467 1.429 . S
C473 C474 1.523 . S
C474 C455 1.368 . S
C474 C468 1.368 . S
C474 C473 1.523 . S
C475 C459 1.429 . S
C475 C471 1.429 . S
C475 C476 1.523 . S
C476 C460 1.368 . S
C476 C472 1.368 . S
C476 C475 1.523 . S
H477 C452 0.950 . S
H478 C454 0.950 . S
H479 C455 0.949 . S
H480 C457 0.950 . S
H481 C459 0.950 . S
C482 C483 1.349 . S
C482 C484 1.327 . S
C482 H507 0.950 . S
C483 C482 1.349 . S
C483 C499 1.349 . S
C484 C482 1.327 . S
C484 C503 1.429 . S
C484 H508 0.950 1_554 S
C485 C502 1.574 . S
C485 C504 1.368 . S
C485 H509 0.949 . S
H486 C490 0.949 . S
C487 C488 1.349 . S
C487 C489 1.327 . S
C487 H510 0.950 . S
C488 C487 1.349 . S
C488 C500 1.349 1_554 S
C489 C487 1.327 . S
C489 C505 1.429 . S
C489 H511 0.950 . S
C490 H486 0.949 . S
C490 C498 1.574 . S
C490 C506 1.368 1_556 S
H491 C499 0.950 . S
H492 C497 0.950 . S
H493 C498 0.949 . S
H494 C500 0.950 . S
H495 C501 0.950 . S
H496 C502 0.949 . S
C497 H492 0.950 . S
C497 C499 1.327 . S
C497 C503 1.429 . S
C498 C490 1.574 . S
C498 H493 0.949 . S
C498 C504 1.368 1_556 S
C499 C483 1.349 . S
C499 H491 0.950 . S
C499 C497 1.327 . S
C500 C488 1.349 1_556 S
C500 H494 0.950 . S
C500 C501 1.327 . S
C501 H495 0.950 . S
C501 C500 1.327 . S
C501 C505 1.429 1_556 S
C502 C485 1.574 . S
C502 H496 0.949 . S
C502 C506 1.368 . S
C503 C484 1.429 . S
C503 C497 1.429 . S
C503 C504 1.523 . S
C504 C485 1.368 . S
C504 C498 1.368 1_554 S
C504 C503 1.523 . S
C505 C489 1.429 . S
C505 C501 1.429 1_554 S
C505 C506 1.523 . S
C506 C490 1.368 1_554 S
C506 C502 1.368 . S
C506 C505 1.523 . S
H507 C482 0.950 . S
H508 C484 0.950 1_556 S
H509 C485 0.949 . S
H510 C487 0.950 . S
H511 C489 0.950 . S
C512 C513 1.349 . S
C512 C514 1.327 . S
C512 H537 0.950 . S
C513 C512 1.349 . S
C513 C529 1.349 . S
C514 C512 1.327 . S
C514 C533 1.429 . S
C514 H538 0.950 . S
C515 C532 1.574 . S
C515 C534 1.368 1_554 S
C515 H539 0.949 . S
H516 C520 0.949 . S
C517 C518 1.349 . S
C517 C519 1.327 . S
C517 H540 0.950 . S
C518 C517 1.349 . S
C518 C530 1.349 . S
C519 C517 1.327 . S
C519 C535 1.429 . S
C519 H541 0.950 . S
C520 H516 0.949 . S
C520 C528 1.574 . S
C520 C536 1.368 1_556 S
H521 C529 0.950 . S
H522 C527 0.950 . S
H523 C528 0.949 . S
H524 C530 0.950 . S
H525 C531 0.950 . S
H526 C532 0.949 . S
C527 H522 0.950 . S
C527 C529 1.327 . S
C527 C533 1.429 . S
C528 C520 1.574 . S
C528 H523 0.949 . S
C528 C534 1.368 . S
C529 C513 1.349 . S
C529 H521 0.950 . S
C529 C527 1.327 . S
C530 C518 1.349 . S
C530 H524 0.950 . S
C530 C531 1.327 . S
C531 H525 0.950 . S
C531 C530 1.327 . S
C531 C535 1.429 . S
C532 C515 1.574 . S
C532 H526 0.949 . S
C532 C536 1.368 . S
C533 C514 1.429 . S
C533 C527 1.429 . S
C533 C534 1.523 . S
C534 C515 1.368 1_556 S
C534 C528 1.368 . S
C534 C533 1.523 . S
C535 C519 1.429 . S
C535 C531 1.429 . S
C535 C536 1.523 . S
C536 C520 1.368 1_554 S
C536 C532 1.368 . S
C536 C535 1.523 . S
H537 C512 0.950 . S
H538 C514 0.950 . S
H539 C515 0.949 . S
H540 C517 0.950 . S
H541 C519 0.950 . S
C542 C543 1.349 . S
C542 C544 1.327 . S
C542 H567 0.950 . S
C543 C542 1.349 . S
C543 C559 1.349 . S
C544 C542 1.327 . S
C544 C563 1.429 . S
C544 H568 0.950 . S
C545 C562 1.574 . S
C545 C564 1.368 . S
C545 H569 0.949 . S
H546 C550 0.949 . S
C547 C548 1.349 . S
C547 C549 1.327 . S
C547 H570 0.950 . S
C548 C547 1.349 . S
C548 C560 1.349 . S
C549 C547 1.327 . S
C549 C565 1.429 . S
C549 H571 0.950 . S
C550 H546 0.949 . S
C550 C558 1.574 . S
C550 C566 1.368 . S
H551 C559 0.950 . S
H552 C557 0.950 . S
H553 C558 0.949 . S
H554 C560 0.950 . S
H555 C561 0.950 . S
H556 C562 0.949 . S
C557 H552 0.950 . S
C557 C559 1.327 . S
C557 C563 1.429 . S
C558 C550 1.574 . S
C558 H553 0.949 . S
C558 C564 1.368 . S
C559 C543 1.349 . S
C559 H551 0.950 . S
C559 C557 1.327 . S
C560 C548 1.349 . S
C560 H554 0.950 . S
C560 C561 1.327 . S
C561 H555 0.950 . S
C561 C560 1.327 . S
C561 C565 1.429 . S
C562 C545 1.574 . S
C562 H556 0.949 . S
C562 C566 1.368 . S
C563 C544 1.429 . S
C563 C557 1.429 . S
C563 C564 1.523 . S
C564 C545 1.368 . S
C564 C558 1.368 . S
C564 C563 1.523 . S
C565 C549 1.429 . S
C565 C561 1.429 . S
C565 C566 1.523 . S
C566 C550 1.368 . S
C566 C562 1.368 . S
C566 C565 1.523 . S
H567 C542 0.950 . S
H568 C544 0.950 . S
H569 C545 0.949 . S
H570 C547 0.950 . S
H571 C549 0.950 . S
C572 C573 1.349 . S
C572 C574 1.327 . S
C572 H597 0.950 . S
C573 C572 1.349 . S
C573 C589 1.349 . S
C574 C572 1.327 . S
C574 C593 1.429 . S
C574 H598 0.950 . S
C575 C592 1.574 . S
C575 C594 1.368 . S
C575 H599 0.949 . S
H576 C580 0.949 . S
C577 C578 1.349 . S
C577 C579 1.327 . S
C577 H600 0.950 . S
C578 C577 1.349 . S
C578 C590 1.349 . S
C579 C577 1.327 . S
C579 C595 1.429 . S
C579 H601 0.950 . S
C580 H576 0.949 . S
C580 C588 1.574 . S
C580 C596 1.368 . S
H581 C589 0.950 . S
H582 C587 0.950 . S
H583 C588 0.949 . S
H584 C590 0.950 . S
H585 C591 0.950 . S
H586 C592 0.949 . S
C587 H582 0.950 . S
C587 C589 1.327 . S
C587 C593 1.429 . S
C588 C580 1.574 . S
C588 H583 0.949 . S
C588 C594 1.368 . S
C589 C573 1.349 . S
C589 H581 0.950 . S
C589 C587 1.327 . S
C590 C578 1.349 . S
C590 H584 0.950 . S
C590 C591 1.327 . S
C591 H585 0.950 . S
C591 C590 1.327 . S
C591 C595 1.429 . S
C592 C575 1.574 . S
C592 H586 0.949 . S
C592 C596 1.368 . S
C593 C574 1.429 . S
C593 C587 1.429 . S
C593 C594 1.523 . S
C594 C575 1.368 . S
C594 C588 1.368 . S
C594 C593 1.523 . S
C595 C579 1.429 . S
C595 C591 1.429 . S
C595 C596 1.523 . S
C596 C580 1.368 . S
C596 C592 1.368 . S
C596 C595 1.523 . S
H597 C572 0.950 . S
H598 C574 0.950 . S
H599 C575 0.949 . S
H600 C577 0.950 . S
H601 C579 0.950 . S
C602 C603 1.349 . S
C602 C604 1.327 . S
C602 H627 0.950 . S
C603 C602 1.349 . S
C603 C619 1.349 . S
C604 C602 1.327 . S
C604 C623 1.429 . S
C604 H628 0.950 . S
C605 C622 1.574 . S
C605 C624 1.368 . S
C605 H629 0.949 . S
H606 C610 0.949 . S
C607 C608 1.349 . S
C607 C609 1.327 . S
C607 H630 0.950 . S
C608 C607 1.349 . S
C608 C620 1.349 . S
C609 C607 1.327 . S
C609 C625 1.429 . S
C609 H631 0.950 . S
C610 H606 0.949 . S
C610 C618 1.574 . S
C610 C626 1.368 . S
H611 C619 0.950 . S
H612 C617 0.950 . S
H613 C618 0.949 . S
H614 C620 0.950 . S
H615 C621 0.950 . S
H616 C622 0.949 . S
C617 H612 0.950 . S
C617 C619 1.327 . S
C617 C623 1.429 . S
C618 C610 1.574 . S
C618 H613 0.949 . S
C618 C624 1.368 . S
C619 C603 1.349 . S
C619 H611 0.950 . S
C619 C617 1.327 . S
C620 C608 1.349 . S
C620 H614 0.950 . S
C620 C621 1.327 . S
C621 H615 0.950 . S
C621 C620 1.327 . S
C621 C625 1.429 . S
C622 C605 1.574 . S
C622 H616 0.949 . S
C622 C626 1.368 . S
C623 C604 1.429 . S
C623 C617 1.429 . S
C623 C624 1.523 . S
C624 C605 1.368 . S
C624 C618 1.368 . S
C624 C623 1.523 . S
C625 C609 1.429 . S
C625 C621 1.429 . S
C625 C626 1.523 . S
C626 C610 1.368 . S
C626 C622 1.368 . S
C626 C625 1.523 . S
H627 C602 0.950 . S
H628 C604 0.950 . S
H629 C605 0.949 . S
H630 C607 0.950 . S
H631 C609 0.950 . S
C632 C633 1.349 . S
C632 C634 1.327 . S
C632 H657 0.950 . S
C633 C632 1.349 . S
C633 C649 1.349 . S
C634 C632 1.327 . S
C634 C653 1.429 . S
C634 H658 0.950 . S
C635 C652 1.574 . S
C635 C654 1.368 . S
C635 H659 0.949 . S
H636 C640 0.949 . S
C637 C638 1.349 . S
C637 C639 1.327 1_554 S
C637 H660 0.950 . S
C638 C637 1.349 . S
C638 C650 1.349 . S
C639 C637 1.327 1_556 S
C639 C655 1.429 . S
C639 H661 0.950 . S
C640 H636 0.949 . S
C640 C648 1.574 . S
C640 C656 1.368 . S
H641 C649 0.950 . S
H642 C647 0.950 . S
H643 C648 0.949 . S
H644 C650 0.950 . S
H645 C651 0.950 . S
H646 C652 0.949 . S
C647 H642 0.950 . S
C647 C649 1.327 . S
C647 C653 1.429 . S
C648 C640 1.574 . S
C648 H643 0.949 . S
C648 C654 1.368 . S
C649 C633 1.349 . S
C649 H641 0.950 . S
C649 C647 1.327 . S
C650 C638 1.349 . S
C650 H644 0.950 . S
C650 C651 1.327 1_554 S
C651 H645 0.950 . S
C651 C650 1.327 1_556 S
C651 C655 1.429 . S
C652 C635 1.574 . S
C652 H646 0.949 . S
C652 C656 1.368 . S
C653 C634 1.429 . S
C653 C647 1.429 . S
C653 C654 1.523 . S
C654 C635 1.368 . S
C654 C648 1.368 . S
C654 C653 1.523 . S
C655 C639 1.429 . S
C655 C651 1.429 . S
C655 C656 1.523 . S
C656 C640 1.368 . S
C656 C652 1.368 . S
C656 C655 1.523 . S
H657 C632 0.950 . S
H658 C634 0.950 . S
H659 C635 0.949 . S
H660 C637 0.950 . S
H661 C639 0.950 . S
C662 C663 1.349 . S
C662 C664 1.327 . S
C662 H687 0.950 . S
C663 C662 1.349 . S
C663 C679 1.349 . S
C664 C662 1.327 . S
C664 C683 1.429 . S
C664 H688 0.950 . S
C665 C682 1.574 . S
C665 C684 1.368 . S
C665 H689 0.949 . S
H666 C670 0.949 . S
C667 C668 1.349 . S
C667 C669 1.327 . S
C667 H690 0.950 . S
C668 C667 1.349 . S
C668 C680 1.349 . S
C669 C667 1.327 . S
C669 C685 1.429 . S
C669 H691 0.950 . S
C670 H666 0.949 . S
C670 C678 1.574 . S
C670 C686 1.368 . S
H671 C679 0.950 . S
H672 C677 0.950 . S
H673 C678 0.949 . S
H674 C680 0.950 . S
H675 C681 0.950 . S
H676 C682 0.949 . S
C677 H672 0.950 . S
C677 C679 1.327 . S
C677 C683 1.429 . S
C678 C670 1.574 . S
C678 H673 0.949 . S
C678 C684 1.368 . S
C679 C663 1.349 . S
C679 H671 0.950 . S
C679 C677 1.327 . S
C680 C668 1.349 . S
C680 H674 0.950 . S
C680 C681 1.327 . S
C681 H675 0.950 . S
C681 C680 1.327 . S
C681 C685 1.429 . S
C682 C665 1.574 . S
C682 H676 0.949 . S
C682 C686 1.368 . S
C683 C664 1.429 . S
C683 C677 1.429 . S
C683 C684 1.523 . S
C684 C665 1.368 . S
C684 C678 1.368 . S
C684 C683 1.523 . S
C685 C669 1.429 . S
C685 C681 1.429 . S
C685 C686 1.523 1_556 S
C686 C670 1.368 . S
C686 C682 1.368 . S
C686 C685 1.523 1_554 S
H687 C662 0.950 . S
H688 C664 0.950 . S
H689 C665 0.949 . S
H690 C667 0.950 . S
H691 C669 0.950 . S
C692 C693 1.349 . S
C692 C694 1.327 . S
C692 H717 0.950 . S
C693 C692 1.349 . S
C693 C709 1.349 . S
C694 C692 1.327 . S
C694 C713 1.429 . S
C694 H718 0.950 . S
C695 C712 1.574 . S
C695 C714 1.368 . S
C695 H719 0.949 . S
H696 C700 0.949 . S
C697 C698 1.349 . S
C697 C699 1.327 . S
C697 H720 0.950 . S
C698 C697 1.349 . S
C698 C710 1.349 . S
C699 C697 1.327 . S
C699 C715 1.429 . S
C699 H721 0.950 . S
C700 H696 0.949 . S
C700 C708 1.574 . S
C700 C716 1.368 . S
H701 C709 0.950 . S
H702 C707 0.950 . S
H703 C708 0.949 . S
H704 C710 0.950 . S
H705 C711 0.950 . S
H706 C712 0.949 . S
C707 H702 0.950 . S
C707 C709 1.327 . S
C707 C713 1.429 . S
C708 C700 1.574 . S
C708 H703 0.949 . S
C708 C714 1.368 . S
C709 C693 1.349 . S
C709 H701 0.950 . S
C709 C707 1.327 . S
C710 C698 1.349 . S
C710 H704 0.950 . S
C710 C711 1.327 . S
C711 H705 0.950 . S
C711 C710 1.327 . S
C711 C715 1.429 . S
C712 C695 1.574 . S
C712 H706 0.949 . S
C712 C716 1.368 . S
C713 C694 1.429 . S
C713 C707 1.429 . S
C713 C714 1.523 . S
C714 C695 1.368 . S
C714 C708 1.368 . S
C714 C713 1.523 . S
C715 C699 1.429 . S
C715 C711 1.429 . S
C715 C716 1.523 . S
C716 C700 1.368 . S
C716 C712 1.368 . S
C716 C715 1.523 . S
H717 C692 0.950 . S
H718 C694 0.950 . S
H719 C695 0.949 . S
H720 C697 0.950 . S
H721 C699 0.950 . S
C722 C723 1.349 . S
C722 C724 1.327 . S
C722 H747 0.950 . S
C723 C722 1.349 . S
C723 C739 1.349 . S
C724 C722 1.327 . S
C724 C743 1.429 . S
C724 H748 0.950 . S
C725 C742 1.574 . S
C725 C744 1.368 . S
C725 H749 0.949 . S
H726 C730 0.949 . S
C727 C728 1.349 . S
C727 C729 1.327 . S
C727 H750 0.950 . S
C728 C727 1.349 . S
C728 C740 1.349 . S
C729 C727 1.327 . S
C729 C745 1.429 . S
C729 H751 0.950 . S
C730 H726 0.949 . S
C730 C738 1.574 . S
C730 C746 1.368 . S
H731 C739 0.950 . S
H732 C737 0.950 . S
H733 C738 0.949 . S
H734 C740 0.950 . S
H735 C741 0.950 . S
H736 C742 0.949 . S
C737 H732 0.950 . S
C737 C739 1.327 . S
C737 C743 1.429 . S
C738 C730 1.574 . S
C738 H733 0.949 . S
C738 C744 1.368 . S
C739 C723 1.349 . S
C739 H731 0.950 . S
C739 C737 1.327 . S
C740 C728 1.349 . S
C740 H734 0.950 . S
C740 C741 1.327 . S
C741 H735 0.950 . S
C741 C740 1.327 . S
C741 C745 1.429 . S
C742 C725 1.574 . S
C742 H736 0.949 . S
C742 C746 1.368 . S
C743 C724 1.429 . S
C743 C737 1.429 . S
C743 C744 1.523 . S
C744 C725 1.368 . S
C744 C738 1.368 . S
C744 C743 1.523 . S
C745 C729 1.429 . S
C745 C741 1.429 . S
C745 C746 1.523 . S
C746 C730 1.368 . S
C746 C742 1.368 . S
C746 C745 1.523 . S
H747 C722 0.950 . S
H748 C724 0.950 . S
H749 C725 0.949 . S
H750 C727 0.950 . S
H751 C729 0.950 . S
C752 C753 1.349 . S
C752 C754 1.327 . S
C752 H777 0.950 . S
C753 C752 1.349 . S
C753 C769 1.349 . S
C754 C752 1.327 . S
C754 C773 1.429 . S
C754 H778 0.950 . S
C755 C772 1.574 . S
C755 C774 1.368 . S
C755 H779 0.949 . S
H756 C760 0.949 . S
C757 C758 1.349 . S
C757 C759 1.327 . S
C757 H780 0.950 . S
C758 C757 1.349 . S
C758 C770 1.349 . S
C759 C757 1.327 . S
C759 C775 1.429 . S
C759 H781 0.950 . S
C760 H756 0.949 . S
C760 C768 1.574 . S
C760 C776 1.368 . S
H761 C769 0.950 . S
H762 C767 0.950 . S
H763 C768 0.949 . S
H764 C770 0.950 . S
H765 C771 0.950 . S
H766 C772 0.949 . S
C767 H762 0.950 . S
C767 C769 1.327 . S
C767 C773 1.429 . S
C768 C760 1.574 . S
C768 H763 0.949 . S
C768 C774 1.368 . S
C769 C753 1.349 . S
C769 H761 0.950 . S
C769 C767 1.327 . S
C770 C758 1.349 . S
C770 H764 0.950 . S
C770 C771 1.327 . S
C771 H765 0.950 . S
C771 C770 1.327 . S
C771 C775 1.429 . S
C772 C755 1.574 . S
C772 H766 0.949 . S
C772 C776 1.368 . S
C773 C754 1.429 . S
C773 C767 1.429 . S
C773 C774 1.523 1_554 S
C774 C755 1.368 . S
C774 C768 1.368 . S
C774 C773 1.523 1_556 S
C775 C759 1.429 . S
C775 C771 1.429 . S
C775 C776 1.523 . S
C776 C760 1.368 . S
C776 C772 1.368 . S
C776 C775 1.523 . S
H777 C752 0.950 . S
H778 C754 0.950 . S
H779 C755 0.949 . S
H780 C757 0.950 . S
H781 C759 0.950 . S
C782 C783 1.349 . S
C782 C784 1.327 . S
C782 H807 0.950 . S
C783 C782 1.349 . S
C783 C799 1.349 . S
C784 C782 1.327 . S
C784 C803 1.429 . S
C784 H808 0.950 . S
C785 C802 1.574 . S
C785 C804 1.368 . S
C785 H809 0.949 . S
H786 C790 0.949 . S
C787 C788 1.349 . S
C787 C789 1.327 1_556 S
C787 H810 0.950 . S
C788 C787 1.349 . S
C788 C800 1.349 . S
C789 C787 1.327 1_554 S
C789 C805 1.429 . S
C789 H811 0.950 . S
C790 H786 0.949 . S
C790 C798 1.574 . S
C790 C806 1.368 . S
H791 C799 0.950 . S
H792 C797 0.950 . S
H793 C798 0.949 . S
H794 C800 0.950 . S
H795 C801 0.950 . S
H796 C802 0.949 . S
C797 H792 0.950 . S
C797 C799 1.327 . S
C797 C803 1.429 . S
C798 C790 1.574 . S
C798 H793 0.949 . S
C798 C804 1.368 . S
C799 C783 1.349 . S
C799 H791 0.950 . S
C799 C797 1.327 . S
C800 C788 1.349 . S
C800 H794 0.950 . S
C800 C801 1.327 1_556 S
C801 H795 0.950 . S
C801 C800 1.327 1_554 S
C801 C805 1.429 . S
C802 C785 1.574 . S
C802 H796 0.949 . S
C802 C806 1.368 . S
C803 C784 1.429 . S
C803 C797 1.429 . S
C803 C804 1.523 . S
C804 C785 1.368 . S
C804 C798 1.368 . S
C804 C803 1.523 . S
C805 C789 1.429 . S
C805 C801 1.429 . S
C805 C806 1.523 . S
C806 C790 1.368 . S
C806 C802 1.368 . S
C806 C805 1.523 . S
H807 C782 0.950 . S
H808 C784 0.950 . S
H809 C785 0.949 . S
H810 C787 0.950 . S
H811 C789 0.950 . S
C812 C813 1.349 . S
C812 C814 1.327 . S
C812 H837 0.950 . S
C813 C812 1.349 . S
C813 C829 1.349 . S
C814 C812 1.327 . S
C814 C833 1.429 . S
C814 H838 0.950 . S
C815 C832 1.574 . S
C815 C834 1.368 . S
C815 H839 0.949 . S
H816 C820 0.949 . S
C817 C818 1.349 . S
C817 C819 1.327 . S
C817 H840 0.950 . S
C818 C817 1.349 . S
C818 C830 1.349 . S
C819 C817 1.327 . S
C819 C835 1.429 . S
C819 H841 0.950 . S
C820 H816 0.949 . S
C820 C828 1.574 . S
C820 C836 1.368 . S
H821 C829 0.950 . S
H822 C827 0.950 . S
H823 C828 0.949 . S
H824 C830 0.950 . S
H825 C831 0.950 . S
H826 C832 0.949 . S
C827 H822 0.950 . S
C827 C829 1.327 . S
C827 C833 1.429 . S
C828 C820 1.574 . S
C828 H823 0.949 . S
C828 C834 1.368 . S
C829 C813 1.349 . S
C829 H821 0.950 . S
C829 C827 1.327 . S
C830 C818 1.349 . S
C830 H824 0.950 . S
C830 C831 1.327 . S
C831 H825 0.950 . S
C831 C830 1.327 . S
C831 C835 1.429 . S
C832 C815 1.574 . S
C832 H826 0.949 . S
C832 C836 1.368 . S
C833 C814 1.429 . S
C833 C827 1.429 . S
C833 C834 1.523 . S
C834 C815 1.368 . S
C834 C828 1.368 . S
C834 C833 1.523 . S
C835 C819 1.429 . S
C835 C831 1.429 . S
C835 C836 1.523 . S
C836 C820 1.368 . S
C836 C832 1.368 . S
C836 C835 1.523 . S
H837 C812 0.950 . S
H838 C814 0.950 . S
H839 C815 0.949 . S
H840 C817 0.950 . S
H841 C819 0.950 . S
C842 C843 1.349 . S
C842 C844 1.327 . S
C842 H867 0.950 . S
C843 C842 1.349 . S
C843 C859 1.349 . S
C844 C842 1.327 . S
C844 C863 1.429 . S
C844 H868 0.950 . S
C845 C862 1.574 . S
C845 C864 1.368 . S
C845 H869 0.949 . S
H846 C850 0.949 . S
C847 C848 1.349 . S
C847 C849 1.327 . S
C847 H870 0.950 . S
C848 C847 1.349 . S
C848 C860 1.349 . S
C849 C847 1.327 . S
C849 C865 1.429 . S
C849 H871 0.950 . S
C850 H846 0.949 . S
C850 C858 1.574 . S
C850 C866 1.368 . S
H851 C859 0.950 . S
H852 C857 0.950 . S
H853 C858 0.949 . S
H854 C860 0.950 . S
H855 C861 0.950 . S
H856 C862 0.949 . S
C857 H852 0.950 . S
C857 C859 1.327 . S
C857 C863 1.429 . S
C858 C850 1.574 . S
C858 H853 0.949 . S
C858 C864 1.368 . S
C859 C843 1.349 . S
C859 H851 0.950 . S
C859 C857 1.327 . S
C860 C848 1.349 . S
C860 H854 0.950 . S
C860 C861 1.327 . S
C861 H855 0.950 . S
C861 C860 1.327 . S
C861 C865 1.429 . S
C862 C845 1.574 . S
C862 H856 0.949 . S
C862 C866 1.368 . S
C863 C844 1.429 . S
C863 C857 1.429 . S
C863 C864 1.523 . S
C864 C845 1.368 . S
C864 C858 1.368 . S
C864 C863 1.523 . S
C865 C849 1.429 . S
C865 C861 1.429 . S
C865 C866 1.523 . S
C866 C850 1.368 . S
C866 C862 1.368 . S
C866 C865 1.523 . S
H867 C842 0.950 . S
H868 C844 0.950 . S
H869 C845 0.949 . S
H870 C847 0.950 . S
H871 C849 0.950 . S
C872 C873 1.349 . S
C872 C874 1.327 . S
C872 H897 0.950 . S
C873 C872 1.349 . S
C873 C889 1.349 . S
C874 C872 1.327 . S
C874 C893 1.429 . S
C874 H898 0.950 . S
C875 C892 1.574 . S
C875 C894 1.368 . S
C875 H899 0.949 . S
H876 C880 0.949 . S
C877 C878 1.349 . S
C877 C879 1.327 . S
C877 H900 0.950 . S
C878 C877 1.349 . S
C878 C890 1.349 . S
C879 C877 1.327 . S
C879 C895 1.429 . S
C879 H901 0.950 . S
C880 H876 0.949 . S
C880 C888 1.574 . S
C880 C896 1.368 . S
H881 C889 0.950 . S
H882 C887 0.950 . S
H883 C888 0.949 . S
H884 C890 0.950 . S
H885 C891 0.950 . S
H886 C892 0.949 . S
C887 H882 0.950 . S
C887 C889 1.327 . S
C887 C893 1.429 . S
C888 C880 1.574 . S
C888 H883 0.949 . S
C888 C894 1.368 . S
C889 C873 1.349 . S
C889 H881 0.950 . S
C889 C887 1.327 . S
C890 C878 1.349 . S
C890 H884 0.950 . S
C890 C891 1.327 . S
C891 H885 0.950 . S
C891 C890 1.327 . S
C891 C895 1.429 . S
C892 C875 1.574 . S
C892 H886 0.949 . S
C892 C896 1.368 . S
C893 C874 1.429 . S
C893 C887 1.429 . S
C893 C894 1.523 . S
C894 C875 1.368 . S
C894 C888 1.368 . S
C894 C893 1.523 . S
C895 C879 1.429 . S
C895 C891 1.429 . S
C895 C896 1.523 . S
C896 C880 1.368 . S
C896 C892 1.368 . S
C896 C895 1.523 . S
H897 C872 0.950 . S
H898 C874 0.950 . S
H899 C875 0.949 . S
H900 C877 0.950 . S
H901 C879 0.950 . S
C902 C903 1.349 . S
C902 C904 1.327 . S
C902 H927 0.950 . S
C903 C902 1.349 . S
C903 C919 1.349 . S
C904 C902 1.327 . S
C904 C923 1.429 . S
C904 H928 0.950 . S
C905 C922 1.574 . S
C905 C924 1.368 . S
C905 H929 0.949 . S
H906 C910 0.949 . S
C907 C908 1.349 . S
C907 C909 1.327 . S
C907 H930 0.950 . S
C908 C907 1.349 . S
C908 C920 1.349 . S
C909 C907 1.327 . S
C909 C925 1.429 . S
C909 H931 0.950 . S
C910 H906 0.949 . S
C910 C918 1.574 . S
C910 C926 1.368 . S
H911 C919 0.950 . S
H912 C917 0.950 . S
H913 C918 0.949 . S
H914 C920 0.950 . S
H915 C921 0.950 . S
H916 C922 0.949 . S
C917 H912 0.950 . S
C917 C919 1.327 . S
C917 C923 1.429 . S
C918 C910 1.574 . S
C918 H913 0.949 . S
C918 C924 1.368 . S
C919 C903 1.349 . S
C919 H911 0.950 . S
C919 C917 1.327 . S
C920 C908 1.349 . S
C920 H914 0.950 . S
C920 C921 1.327 . S
C921 H915 0.950 . S
C921 C920 1.327 . S
C921 C925 1.429 . S
C922 C905 1.574 . S
C922 H916 0.949 . S
C922 C926 1.368 . S
C923 C904 1.429 . S
C923 C917 1.429 . S
C923 C924 1.523 . S
C924 C905 1.368 . S
C924 C918 1.368 . S
C924 C923 1.523 . S
C925 C909 1.429 . S
C925 C921 1.429 . S
C925 C926 1.523 . S
C926 C910 1.368 . S
C926 C922 1.368 . S
C926 C925 1.523 . S
H927 C902 0.950 . S
H928 C904 0.950 . S
H929 C905 0.949 . S
H930 C907 0.950 . S
H931 C909 0.950 . S
C932 C933 1.349 . S
C932 C934 1.327 . S
C932 H957 0.950 . S
C933 C932 1.349 . S
C933 C949 1.349 . S
C934 C932 1.327 . S
C934 C953 1.429 . S
C934 H958 0.950 . S
C935 C952 1.574 1_556 S
C935 C954 1.368 . S
C935 H959 0.949 . S
H936 C940 0.949 . S
C937 C938 1.349 . S
C937 C939 1.327 . S
C937 H960 0.950 . S
C938 C937 1.349 . S
C938 C950 1.349 . S
C939 C937 1.327 . S
C939 C955 1.429 . S
C939 H961 0.950 . S
C940 H936 0.949 . S
C940 C948 1.574 1_554 S
C940 C956 1.368 . S
H941 C949 0.950 . S
H942 C947 0.950 . S
H943 C948 0.949 . S
H944 C950 0.950 . S
H945 C951 0.950 . S
H946 C952 0.949 . S
C947 H942 0.950 . S
C947 C949 1.327 . S
C947 C953 1.429 . S
C948 C940 1.574 1_556 S
C948 H943 0.949 . S
C948 C954 1.368 . S
C949 C933 1.349 . S
C949 H941 0.950 . S
C949 C947 1.327 . S
C950 C938 1.349 . S
C950 H944 0.950 . S
C950 C951 1.327 . S
C951 H945 0.950 . S
C951 C950 1.327 . S
C951 C955 1.429 . S
C952 C935 1.574 1_554 S
C952 H946 0.949 . S
C952 C956 1.368 . S
C953 C934 1.429 . S
C953 C947 1.429 . S
C953 C954 1.523 . S
C954 C935 1.368 . S
C954 C948 1.368 . S
C954 C953 1.523 . S
C955 C939 1.429 . S
C955 C951 1.429 . S
C955 C956 1.523 . S
C956 C940 1.368 . S
C956 C952 1.368 . S
C956 C955 1.523 . S
H957 C932 0.950 . S
H958 C934 0.950 . S
H959 C935 0.949 . S
H960 C937 0.950 . S
H961 C939 0.950 . S
C962 C963 1.349 . S
C962 C964 1.327 . S
C962 H987 0.950 . S
C963 C962 1.349 . S
C963 C979 1.349 . S
C964 C962 1.327 . S
C964 C983 1.429 . S
C964 H988 0.950 . S
C965 C982 1.574 . S
C965 C984 1.368 . S
C965 H989 0.949 . S
H966 C970 0.949 . S
C967 C968 1.349 . S
C967 C969 1.327 . S
C967 H990 0.950 . S
C968 C967 1.349 . S
C968 C980 1.349 . S
C969 C967 1.327 . S
C969 C985 1.429 . S
C969 H991 0.950 . S
C970 H966 0.949 . S
C970 C978 1.574 . S
C970 C986 1.368 . S
H971 C979 0.950 . S
H972 C977 0.950 . S
H973 C978 0.949 . S
H974 C980 0.950 . S
H975 C981 0.950 . S
H976 C982 0.949 . S
C977 H972 0.950 . S
C977 C979 1.327 . S
C977 C983 1.429 . S
C978 C970 1.574 . S
C978 H973 0.949 . S
C978 C984 1.368 . S
C979 C963 1.349 . S
C979 H971 0.950 . S
C979 C977 1.327 . S
C980 C968 1.349 . S
C980 H974 0.950 . S
C980 C981 1.327 . S
C981 H975 0.950 . S
C981 C980 1.327 . S
C981 C985 1.429 . S
C982 C965 1.574 . S
C982 H976 0.949 . S
C982 C986 1.368 . S
C983 C964 1.429 . S
C983 C977 1.429 . S
C983 C984 1.523 . S
C984 C965 1.368 . S
C984 C978 1.368 . S
C984 C983 1.523 . S
C985 C969 1.429 . S
C985 C981 1.429 . S
C985 C986 1.523 . S
C986 C970 1.368 . S
C986 C982 1.368 . S
C986 C985 1.523 . S
H987 C962 0.950 . S
H988 C964 0.950 . S
H989 C965 0.949 . S
H990 C967 0.950 . S
H991 C969 0.950 . S
C992 C993 1.349 . S
C992 C994 1.327 . S
C992 H1017 0.950 . S
C993 C992 1.349 . S
C993 C1009 1.349 . S
C994 C992 1.327 . S
C994 C1013 1.429 . S
C994 H1018 0.950 . S
C995 C1012 1.574 . S
C995 C1014 1.368 . S
C995 H1019 0.949 . S
H996 C1000 0.949 . S
C997 C998 1.349 . S
C997 C999 1.327 . S
C997 H1020 0.950 . S
C998 C997 1.349 . S
C998 C1010 1.349 . S
C999 C997 1.327 . S
C999 C1015 1.429 . S
C999 H1021 0.950 . S
C1000 H996 0.949 . S
C1000 C1008 1.574 . S
C1000 C1016 1.368 . S
H1001 C1009 0.950 . S
H1002 C1007 0.950 . S
H1003 C1008 0.949 . S
H1004 C1010 0.950 . S
H1005 C1011 0.950 . S
H1006 C1012 0.949 . S
C1007 H1002 0.950 . S
C1007 C1009 1.327 . S
C1007 C1013 1.429 . S
C1008 C1000 1.574 . S
C1008 H1003 0.949 . S
C1008 C1014 1.368 . S
C1009 C993 1.349 . S
C1009 H1001 0.950 . S
C1009 C1007 1.327 . S
C1010 C998 1.349 . S
C1010 H1004 0.950 . S
C1010 C1011 1.327 . S
C1011 H1005 0.950 . S
C1011 C1010 1.327 . S
C1011 C1015 1.429 . S
C1012 C995 1.574 . S
C1012 H1006 0.949 . S
C1012 C1016 1.368 . S
C1013 C994 1.429 . S
C1013 C1007 1.429 . S
C1013 C1014 1.523 . S
C1014 C995 1.368 . S
C1014 C1008 1.368 . S
C1014 C1013 1.523 . S
C1015 C999 1.429 . S
C1015 C1011 1.429 . S
C1015 C1016 1.523 . S
C1016 C1000 1.368 . S
C1016 C1012 1.368 . S
C1016 C1015 1.523 . S
H1017 C992 0.950 . S
H1018 C994 0.950 . S
H1019 C995 0.949 . S
H1020 C997 0.950 . S
H1021 C999 0.950 . S
C1022 C1023 1.349 . S
C1022 C1024 1.327 . S
C1022 H1047 0.950 . S
C1023 C1022 1.349 . S
C1023 C1039 1.349 . S
C1024 C1022 1.327 . S
C1024 C1043 1.429 . S
C1024 H1048 0.950 . S
C1025 C1042 1.574 . S
C1025 C1044 1.368 . S
C1025 H1049 0.949 . S
H1026 C1030 0.949 . S
C1027 C1028 1.349 . S
C1027 C1029 1.327 . S
C1027 H1050 0.950 . S
C1028 C1027 1.349 . S
C1028 C1040 1.349 . S
C1029 C1027 1.327 . S
C1029 C1045 1.429 . S
C1029 H1051 0.950 . S
C1030 H1026 0.949 . S
C1030 C1038 1.574 . S
C1030 C1046 1.368 . S
H1031 C1039 0.950 . S
H1032 C1037 0.950 . S
H1033 C1038 0.949 . S
H1034 C1040 0.950 . S
H1035 C1041 0.950 . S
H1036 C1042 0.949 . S
C1037 H1032 0.950 . S
C1037 C1039 1.327 . S
C1037 C1043 1.429 . S
C1038 C1030 1.574 . S
C1038 H1033 0.949 . S
C1038 C1044 1.368 . S
C1039 C1023 1.349 . S
C1039 H1031 0.950 . S
C1039 C1037 1.327 . S
C1040 C1028 1.349 . S
C1040 H1034 0.950 . S
C1040 C1041 1.327 . S
C1041 H1035 0.950 . S
C1041 C1040 1.327 . S
C1041 C1045 1.429 . S
C1042 C1025 1.574 . S
C1042 H1036 0.949 . S
C1042 C1046 1.368 . S
C1043 C1024 1.429 . S
C1043 C1037 1.429 . S
C1043 C1044 1.523 . S
C1044 C1025 1.368 . S
C1044 C1038 1.368 . S
C1044 C1043 1.523 . S
C1045 C1029 1.429 . S
C1045 C1041 1.429 . S
C1045 C1046 1.523 . S
C1046 C1030 1.368 . S
C1046 C1042 1.368 . S
C1046 C1045 1.523 . S
H1047 C1022 0.950 . S
H1048 C1024 0.950 . S
H1049 C1025 0.949 . S
H1050 C1027 0.950 . S
H1051 C1029 0.950 . S
C1052 C1053 1.349 . S
C1052 C1054 1.327 . S
C1052 H1077 0.950 . S
C1053 C1052 1.349 . S
C1053 C1069 1.349 . S
C1054 C1052 1.327 . S
C1054 C1073 1.429 . S
C1054 H1078 0.950 . S
C1055 C1072 1.574 . S
C1055 C1074 1.368 . S
C1055 H1079 0.949 . S
H1056 C1060 0.949 . S
C1057 C1058 1.349 . S
C1057 C1059 1.327 . S
C1057 H1080 0.950 . S
C1058 C1057 1.349 . S
C1058 C1070 1.349 . S
C1059 C1057 1.327 . S
C1059 C1075 1.429 . S
C1059 H1081 0.950 . S
C1060 H1056 0.949 . S
C1060 C1068 1.574 . S
C1060 C1076 1.368 . S
H1061 C1069 0.950 . S
H1062 C1067 0.950 . S
H1063 C1068 0.949 . S
H1064 C1070 0.950 . S
H1065 C1071 0.950 . S
H1066 C1072 0.949 . S
C1067 H1062 0.950 . S
C1067 C1069 1.327 . S
C1067 C1073 1.429 . S
C1068 C1060 1.574 . S
C1068 H1063 0.949 . S
C1068 C1074 1.368 . S
C1069 C1053 1.349 . S
C1069 H1061 0.950 . S
C1069 C1067 1.327 . S
C1070 C1058 1.349 . S
C1070 H1064 0.950 . S
C1070 C1071 1.327 . S
C1071 H1065 0.950 . S
C1071 C1070 1.327 . S
C1071 C1075 1.429 . S
C1072 C1055 1.574 . S
C1072 H1066 0.949 . S
C1072 C1076 1.368 . S
C1073 C1054 1.429 . S
C1073 C1067 1.429 . S
C1073 C1074 1.523 . S
C1074 C1055 1.368 . S
C1074 C1068 1.368 . S
C1074 C1073 1.523 . S
C1075 C1059 1.429 . S
C1075 C1071 1.429 . S
C1075 C1076 1.523 . S
C1076 C1060 1.368 . S
C1076 C1072 1.368 . S
C1076 C1075 1.523 . S
H1077 C1052 0.950 . S
H1078 C1054 0.950 . S
H1079 C1055 0.949 . S
H1080 C1057 0.950 . S
H1081 C1059 0.950 . S
C1082 C1083 1.349 . S
C1082 C1084 1.327 . S
C1082 H1107 0.950 . S
C1083 C1082 1.349 . S
C1083 C1099 1.349 . S
C1084 C1082 1.327 . S
C1084 C1103 1.429 . S
C1084 H1108 0.950 . S
C1085 C1102 1.574 . S
C1085 C1104 1.368 1_554 S
C1085 H1109 0.949 . S
H1086 C1090 0.949 . S
C1087 C1088 1.349 . S
C1087 C1089 1.327 . S
C1087 H1110 0.950 . S
C1088 C1087 1.349 . S
C1088 C1100 1.349 . S
C1089 C1087 1.327 . S
C1089 C1105 1.429 . S
C1089 H1111 0.950 . S
C1090 H1086 0.949 . S
C1090 C1098 1.574 . S
C1090 C1106 1.368 1_556 S
H1091 C1099 0.950 1_554 S
H1092 C1097 0.950 1_554 S
H1093 C1098 0.949 . S
H1094 C1100 0.950 1_556 S
H1095 C1101 0.950 1_556 S
H1096 C1102 0.949 . S
C1097 H1092 0.950 1_556 S
C1097 C1099 1.327 . S
C1097 C1103 1.429 . S
C1098 C1090 1.574 . S
C1098 H1093 0.949 . S
C1098 C1104 1.368 . S
C1099 C1083 1.349 . S
C1099 H1091 0.950 1_556 S
C1099 C1097 1.327 . S
C1100 C1088 1.349 . S
C1100 H1094 0.950 1_554 S
C1100 C1101 1.327 . S
C1101 H1095 0.950 1_554 S
C1101 C1100 1.327 . S
C1101 C1105 1.429 . S
C1102 C1085 1.574 . S
C1102 H1096 0.949 . S
C1102 C1106 1.368 . S
C1103 C1084 1.429 . S
C1103 C1097 1.429 . S
C1103 C1104 1.523 . S
C1104 C1085 1.368 1_556 S
C1104 C1098 1.368 . S
C1104 C1103 1.523 . S
C1105 C1089 1.429 . S
C1105 C1101 1.429 . S
C1105 C1106 1.523 . S
C1106 C1090 1.368 1_554 S
C1106 C1102 1.368 . S
C1106 C1105 1.523 . S
H1107 C1082 0.950 . S
H1108 C1084 0.950 . S
H1109 C1085 0.949 . S
H1110 C1087 0.950 . S
H1111 C1089 0.950 . S
C273 C15 1.703 . S
C278 C51 1.739 . S
C303 C85 1.631 1_455 S
C308 C56 1.568 . S
C333 C119 1.587 1_556 S
C338 C83 1.517 . S
C363 C17 1.796 1_655 S
C368 C117 1.789 . S
C393 C151 1.568 . S
C398 C255 1.631 1_545 S
C423 C192 1.703 . S
C428 C153 1.739 . S
C453 C187 1.796 1_565 S
C458 C219 1.789 . S
C483 C253 1.518 . S
C488 C221 1.587 1_554 S
C513 C173 2.682 . S
C518 C1 2.682 . S
C543 C205 2.434 . S
C548 C37 2.436 . S
C573 C69 2.688 . S
C578 C239 2.688 . S
C603 C137 2.438 . S
C608 C103 2.432 . S
C633 C28 1.157 . S
C638 C6 1.159 . S
C663 C62 1.161 . S
C668 C40 1.159 . S
C693 C74 1.166 . S
C698 C96 1.166 . S
C723 C130 1.166 . S
C728 C108 1.165 . S
C753 C164 1.159 . S
C758 C142 1.161 . S
C783 C176 1.157 . S
C788 C198 1.159 . S
C813 C210 1.165 . S
C818 C232 1.166 . S
C843 C266 1.166 . S
C848 C244 1.166 . S
C873 C171 1.182 . S
C878 C3 1.182 . S
C903 C207 1.294 . S
C908 C35 1.295 . S
C933 C71 1.075 . S
C938 C241 1.075 . S
C963 C139 1.294 . S
C968 C105 1.295 . S
C993 C22 1.452 . S
C998 C260 1.459 . S
C1023 C158 1.407 . S
C1028 C49 1.407 . S
C1053 C185 1.452 . S
C1058 C90 1.459 . S
C1083 C124 1.731 . S
C1088 C226 1.730 . S
