# Generated by pormake.
# Topology lcs, (4)-cn, num edge types: 1
# Building blocks:
#     Node 0, Type 0, BuildingBlock: CEKHIL_clean_sbu_0, # of connection points: 4
#     Node 1, Type 0, BuildingBlock: CEKHIL_clean_sbu_0, # of connection points: 4
#     Node 2, Type 0, BuildingBlock: CEKHIL_clean_sbu_0, # of connection points: 4
#     Node 3, Type 0, BuildingBlock: CEKHIL_clean_sbu_0, # of connection points: 4
#     Node 4, Type 0, BuildingBlock: CEKHIL_clean_sbu_0, # of connection points: 4
#     Node 5, Type 0, BuildingBlock: CEKHIL_clean_sbu_0, # of connection points: 4
#     Node 6, Type 0, BuildingBlock: CEKHIL_clean_sbu_0, # of connection points: 4
#     Node 7, Type 0, BuildingBlock: CEKHIL_clean_sbu_0, # of connection points: 4
#     Node 8, Type 0, BuildingBlock: CEKHIL_clean_sbu_0, # of connection points: 4
#     Node 9, Type 0, BuildingBlock: CEKHIL_clean_sbu_0, # of connection points: 4
#     Node 10, Type 0, BuildingBlock: CEKHIL_clean_sbu_0, # of connection points: 4
#     Node 11, Type 0, BuildingBlock: CEKHIL_clean_sbu_0, # of connection points: 4
#     Node 12, Type 0, BuildingBlock: CEKHIL_clean_sbu_0, # of connection points: 4
#     Node 13, Type 0, BuildingBlock: CEKHIL_clean_sbu_0, # of connection points: 4
#     Node 14, Type 0, BuildingBlock: CEKHIL_clean_sbu_0, # of connection points: 4
#     Node 15, Type 0, BuildingBlock: CEKHIL_clean_sbu_0, # of connection points: 4
#     Node 16, Type 0, BuildingBlock: CEKHIL_clean_sbu_0, # of connection points: 4
#     Node 17, Type 0, BuildingBlock: CEKHIL_clean_sbu_0, # of connection points: 4
#     Node 18, Type 0, BuildingBlock: CEKHIL_clean_sbu_0, # of connection points: 4
#     Node 19, Type 0, BuildingBlock: CEKHIL_clean_sbu_0, # of connection points: 4
#     Node 20, Type 0, BuildingBlock: CEKHIL_clean_sbu_0, # of connection points: 4
#     Node 21, Type 0, BuildingBlock: CEKHIL_clean_sbu_0, # of connection points: 4
#     Node 22, Type 0, BuildingBlock: CEKHIL_clean_sbu_0, # of connection points: 4
#     Node 23, Type 0, BuildingBlock: CEKHIL_clean_sbu_0, # of connection points: 4
#     Edge 24, Type (0, 0), None
#     Edge 25, Type (0, 0), None
#     Edge 26, Type (0, 0), None
#     Edge 27, Type (0, 0), None
#     Edge 28, Type (0, 0), None
#     Edge 29, Type (0, 0), None
#     Edge 30, Type (0, 0), None
#     Edge 31, Type (0, 0), None
#     Edge 32, Type (0, 0), None
#     Edge 33, Type (0, 0), None
#     Edge 34, Type (0, 0), None
#     Edge 35, Type (0, 0), None
#     Edge 36, Type (0, 0), None
#     Edge 37, Type (0, 0), None
#     Edge 38, Type (0, 0), None
#     Edge 39, Type (0, 0), None
#     Edge 40, Type (0, 0), None
#     Edge 41, Type (0, 0), None
#     Edge 42, Type (0, 0), None
#     Edge 43, Type (0, 0), None
#     Edge 44, Type (0, 0), None
#     Edge 45, Type (0, 0), None
#     Edge 46, Type (0, 0), None
#     Edge 47, Type (0, 0), None
#     Edge 48, Type (0, 0), None
#     Edge 49, Type (0, 0), None
#     Edge 50, Type (0, 0), None
#     Edge 51, Type (0, 0), None
#     Edge 52, Type (0, 0), None
#     Edge 53, Type (0, 0), None
#     Edge 54, Type (0, 0), None
#     Edge 55, Type (0, 0), None
#     Edge 56, Type (0, 0), None
#     Edge 57, Type (0, 0), None
#     Edge 58, Type (0, 0), None
#     Edge 59, Type (0, 0), None
#     Edge 60, Type (0, 0), None
#     Edge 61, Type (0, 0), None
#     Edge 62, Type (0, 0), None
#     Edge 63, Type (0, 0), None
#     Edge 64, Type (0, 0), None
#     Edge 65, Type (0, 0), None
#     Edge 66, Type (0, 0), None
#     Edge 67, Type (0, 0), None
#     Edge 68, Type (0, 0), None
#     Edge 69, Type (0, 0), None
#     Edge 70, Type (0, 0), None
#     Edge 71, Type (0, 0), None
# Relax obj value: 0.005
# Max RMSD: 0.028
# Mean RMSD: 0.024
data_MOF--net-lcs--node1-CEKHIL_clean_sbu_0--edge1-none
_symmetry_space_group_name_H-M    P1
_symmetry_Int_Tables_number       1
_symmetry_cell_setting            triclinic
loop_
_symmetry_equiv_pos_as_xyz
'x, y, z'
_cell_length_a     21.755566
_cell_length_b     21.220389
_cell_length_c     21.214878
_cell_angle_alpha  91.730451
_cell_angle_beta   89.720172
_cell_angle_gamma 90.615679
loop_
_atom_site_label
_atom_site_type_symbol
_atom_site_fract_x
_atom_site_fract_y
_atom_site_fract_z
_atom_type_partial_charge
Co0 Co 1.02284 0.28479 0.40114 0.0
O1 O 0.94784 0.32972 0.39033 0.0
O2 O 0.9683 0.27364 0.47375 0.0
C3 C 0.08396 0.36747 0.37318 0.0
O4 O 0.09747 0.23554 0.4294 0.0
Co5 Co 0.11272 0.26528 0.28652 0.0
O6 O 0.16673 0.22806 0.34983 0.0
C7 C 1.00409 0.17973 0.30206 0.0
C8 C 0.93165 0.31194 0.44582 0.0
C9 C 0.14943 0.21767 0.406 0.0
O10 O 0.98883 0.20487 0.3561 0.0
O11 O 0.04609 0.2028 0.26673 0.0
O12 O 0.06342 0.36388 0.4304 0.0
O13 O 0.06402 0.32445 0.33427 0.0
Co14 Co 0.04693 0.75724 0.65206 0.0
O15 O 0.12643 0.72134 0.6724 0.0
O16 O 0.07547 0.70012 0.58467 0.0
C17 C 0.07605 0.85545 0.68157 0.0
O18 O 0.96651 0.78867 0.61138 0.0
Co19 Co 0.96731 0.83269 0.75137 0.0
O20 O 0.92456 0.86296 0.67592 0.0
C21 C 0.96411 0.69214 0.74535 0.0
C22 C 0.1254 0.69352 0.61728 0.0
C23 C 0.92677 0.83254 0.62332 0.0
O24 O 0.99919 0.68826 0.69599 0.0
O25 O 0.95167 0.74382 0.77515 0.0
O26 O 0.08975 0.83365 0.62547 0.0
O27 O 0.04803 0.81756 0.71812 0.0
Co28 Co 0.52285 0.78478 0.90116 0.0
O29 O 0.44786 0.82971 0.89034 0.0
O30 O 0.46832 0.77363 0.97377 0.0
C31 C 0.58397 0.86746 0.87319 0.0
O32 O 0.59749 0.73553 0.92941 0.0
Co33 Co 0.61274 0.76528 0.78653 0.0
O34 O 0.66674 0.72805 0.84983 0.0
C35 C 0.50411 0.67973 0.80207 0.0
C36 C 0.43167 0.81193 0.94584 0.0
C37 C 0.64945 0.71766 0.90601 0.0
O38 O 0.48885 0.70486 0.85611 0.0
O39 O 0.5461 0.7028 0.76673 0.0
O40 O 0.56344 0.86387 0.93042 0.0
O41 O 0.56403 0.82444 0.83429 0.0
Co42 Co 0.54694 0.25723 0.15206 0.0
O43 O 0.62644 0.22133 0.1724 0.0
O44 O 0.57547 0.20012 0.08467 0.0
C45 C 0.57607 0.35544 0.18157 0.0
O46 O 0.46652 0.28867 0.11139 0.0
Co47 Co 0.46733 0.33269 0.25138 0.0
O48 O 0.42458 0.36296 0.17593 0.0
C49 C 0.46411 0.19214 0.24535 0.0
C50 C 0.62541 0.19351 0.11727 0.0
C51 C 0.42678 0.33254 0.12332 0.0
O52 O 0.49919 0.18826 0.19599 0.0
O53 O 0.45167 0.24383 0.27515 0.0
O54 O 0.58976 0.33365 0.12547 0.0
O55 O 0.54805 0.31756 0.21812 0.0
Co56 Co 0.03057 0.78941 0.14882 0.0
O57 O 0.10082 0.84369 0.16377 0.0
O58 O 0.08198 0.79082 0.07418 0.0
C59 C 0.96349 0.85982 0.19219 0.0
O60 O 0.96463 0.73116 0.11182 0.0
Co61 Co 0.93963 0.7432 0.25108 0.0
O62 O 0.88825 0.7123 0.18032 0.0
C63 C 0.05553 0.67373 0.22172 0.0
C64 C 0.11602 0.83122 0.10547 0.0
C65 C 0.91244 0.70683 0.12588 0.0
O66 O 0.07404 0.71382 0.18127 0.0
O67 O 1.00555 0.67843 0.25345 0.0
O68 O 0.98183 0.86441 0.13414 0.0
O69 O 0.98672 0.81446 0.2228 0.0
Co70 Co 0.50807 0.76043 0.38863 0.0
O71 O 0.43268 0.71443 0.36814 0.0
O72 O 0.47335 0.71836 0.46269 0.0
C73 C 0.47921 0.85012 0.34129 0.0
O74 O 0.5853 0.80644 0.42751 0.0
Co75 Co 0.59411 0.79963 0.28246 0.0
O76 O 0.64654 0.83862 0.34858 0.0
C77 C 0.59562 0.66858 0.31949 0.0
C78 C 0.42846 0.69882 0.42638 0.0
C79 C 0.63521 0.83344 0.40701 0.0
O80 O 0.55789 0.68288 0.36448 0.0
O81 O 0.61348 0.70758 0.27843 0.0
O82 O 0.46244 0.83772 0.39827 0.0
O83 O 0.50911 0.80571 0.31148 0.0
Co84 Co 0.53057 0.28941 0.64883 0.0
O85 O 0.60082 0.34369 0.66382 0.0
O86 O 0.58201 0.29082 0.57421 0.0
C87 C 0.46348 0.35982 0.69219 0.0
O88 O 0.46465 0.23116 0.61181 0.0
Co89 Co 0.4396 0.24319 0.75105 0.0
O90 O 0.38823 0.21233 0.68027 0.0
C91 C 0.55551 0.17372 0.72173 0.0
C92 C 0.61604 0.33123 0.60552 0.0
C93 C 0.41244 0.20685 0.62584 0.0
O94 O 0.57404 0.21382 0.68129 0.0
O95 O 0.50552 0.17841 0.75343 0.0
O96 O 0.48183 0.36441 0.63415 0.0
O97 O 0.4867 0.31446 0.7228 0.0
Co98 Co 1.0081 0.26042 0.88864 0.0
O99 O 0.9327 0.21442 0.86814 0.0
O100 O 0.97338 0.21835 0.96269 0.0
C101 C 0.97924 0.35011 0.84129 0.0
O102 O 0.08533 0.30643 0.92751 0.0
Co103 Co 0.09413 0.29961 0.78247 0.0
O104 O 0.14656 0.33862 0.84859 0.0
C105 C 0.09564 0.16857 0.8195 0.0
C106 C 0.92848 0.19882 0.92639 0.0
C107 C 0.13524 0.33344 0.90702 0.0
O108 O 0.05792 0.18287 0.86449 0.0
O109 O 0.11351 0.20757 0.77844 0.0
O110 O 0.96246 0.33771 0.89827 0.0
O111 O 1.00914 0.3057 0.81148 0.0
Co112 Co 0.40888 0.99891 0.29184 0.0
O113 O 0.39376 0.91655 0.32404 0.0
O114 O 0.48143 0.94584 0.28022 0.0
C115 C 0.37015 0.04979 0.37956 0.0
O116 O 0.44239 0.08159 0.25699 0.0
Co117 Co 0.30036 0.09477 0.27834 0.0
O118 O 0.37054 0.1543 0.28068 0.0
C119 C 0.32638 0.99694 0.17658 0.0
C120 C 0.45033 0.90344 0.31035 0.0
C121 C 0.42451 0.13913 0.26274 0.0
O122 O 0.37331 0.97373 0.20493 0.0
O123 O 0.29292 0.04081 0.20068 0.0
O124 O 0.42644 0.03032 0.37901 0.0
O125 O 0.33892 0.0351 0.33009 0.0
Co126 Co 0.27233 0.13973 0.49318 0.0
O127 O 0.20497 0.12591 0.43532 0.0
O128 O 0.22729 0.2167 0.48507 0.0
C129 C 0.34282 0.08862 0.43067 0.0
O130 O 0.336 0.1767 0.55323 0.0
Co131 Co 0.34686 0.03658 0.55471 0.0
O132 O 0.40345 0.10477 0.58326 0.0
C133 C 0.22701 0.07491 0.61006 0.0
C134 C 0.19276 0.18519 0.4455 0.0
C135 C 0.38479 0.16118 0.58192 0.0
O136 O 0.2195 0.11552 0.56706 0.0
O137 O 0.27318 0.03813 0.61197 0.0
O138 O 0.32858 0.14694 0.42161 0.0
O139 O 0.31266 0.0618 0.47524 0.0
Co140 Co 0.15825 1.00798 0.79118 0.0
O141 O 0.14396 0.97301 0.87377 0.0
O142 O 0.22981 0.96284 0.81827 0.0
C143 C 0.11919 0.10417 0.81454 0.0
O144 O 0.19356 0.03697 0.70784 0.0
Co145 Co 0.058 0.05596 0.70177 0.0
O146 O 0.12594 0.08823 0.64903 0.0
C147 C 0.08739 0.92021 0.70233 0.0
C148 C 0.19932 0.9508 0.86926 0.0
C149 C 0.1797 0.06792 0.65884 0.0
O150 O 0.1259 0.92968 0.74738 0.0
O151 O 0.05471 0.9633 0.67882 0.0
O152 O 0.17511 0.09075 0.8303 0.0
O153 O 0.08737 0.05888 0.78841 0.0
Co154 Co 0.28571 0.88338 1.00388 0.0
O155 O 0.36325 0.89786 0.96307 0.0
O156 O 0.33803 0.80941 1.00985 0.0
C157 C 0.22959 0.92118 0.92249 0.0
O158 O 0.20865 0.85 0.04812 0.0
Co159 Co 0.1965 0.99553 0.03282 0.0
O160 O 0.14417 0.93028 0.07106 0.0
C161 C 0.30572 0.97625 0.11267 0.0
C162 C 0.37725 0.84053 0.97597 0.0
C163 C 0.15907 0.87255 0.07297 0.0
O164 O 0.31665 0.92102 0.08813 0.0
O165 O 0.26835 0.01476 0.08827 0.0
O166 O 0.24935 0.8637 0.92021 0.0
O167 O 0.24736 0.95449 0.97062 0.0
Co168 Co 0.30398 0.39162 0.01607 0.0
O169 O 0.38023 0.41049 0.05988 0.0
O170 O 0.33762 0.31601 0.05417 0.0
C171 C 0.33054 0.4438 0.92765 0.0
O172 O 0.22517 0.35394 0.97217 0.0
Co173 Co 0.21678 0.4976 0.98539 0.0
O174 O 0.16221 0.43268 0.94701 0.0
C175 C 0.22705 0.46034 0.11608 0.0
C176 C 0.38253 0.35196 0.07487 0.0
C177 C 0.17413 0.37431 0.94888 0.0
O178 O 0.25844 0.41257 0.09697 0.0
O179 O 0.20895 0.50292 0.07939 0.0
O180 O 0.34723 0.38621 0.93628 0.0
O181 O 0.30186 0.47086 0.97467 0.0
Co182 Co 0.75733 0.12782 0.02246 0.0
O183 O 0.67894 0.10841 0.06281 0.0
O184 O 0.73122 0.19671 0.07934 0.0
C185 C 0.72198 0.09618 0.92694 0.0
O186 O 0.83828 0.16698 0.98628 0.0
Co187 Co 0.8326 0.02699 0.94649 0.0
O188 O 0.88301 0.09853 0.91734 0.0
C189 C 0.84063 0.0376 0.08675 0.0
C190 C 0.68107 0.16424 0.0889 0.0
C191 C 0.88094 0.15222 0.94553 0.0
O192 O 0.806 0.08648 0.09037 0.0
O193 O 0.8517 1.00629 0.03548 0.0
O194 O 0.7113 0.1526 0.94916 0.0
O195 O 0.75201 0.0599 0.96292 0.0
Co196 Co 0.14204 0.54221 0.2824 0.0
O197 O 0.15108 0.62441 0.24616 0.0
O198 O 0.06528 0.56662 0.24856 0.0
C199 C 0.18998 0.57115 0.37152 0.0
O200 O 0.11093 0.45872 0.31733 0.0
Co201 Co 0.24623 0.45628 0.31805 0.0
O202 O 0.18504 0.40835 0.36767 0.0
C203 C 0.21443 0.46897 0.18372 0.0
C204 C 0.09256 0.61924 0.23512 0.0
C205 C 0.1289 0.41529 0.35373 0.0
O206 O 0.16725 0.50133 0.20015 0.0
O207 O 0.25336 0.44855 0.22314 0.0
O208 O 0.13213 0.58262 0.36417 0.0
O209 O 0.21857 0.54354 0.32471 0.0
Co210 Co 0.80397 0.89162 0.51607 0.0
O211 O 0.88022 0.91048 0.55988 0.0
O212 O 0.8376 0.816 0.55417 0.0
C213 C 0.83053 0.9438 0.42765 0.0
O214 O 0.72515 0.85394 0.47217 0.0
Co215 Co 0.71676 0.9976 0.48539 0.0
O216 O 0.66219 0.93268 0.44701 0.0
C217 C 0.72703 0.96033 0.61607 0.0
C218 C 0.88252 0.85195 0.57487 0.0
C219 C 0.67411 0.87431 0.44887 0.0
O220 O 0.75842 0.91256 0.59696 0.0
O221 O 0.70893 1.00292 0.57939 0.0
O222 O 0.84721 0.88621 0.43628 0.0
O223 O 0.80184 0.97086 0.47466 0.0
Co224 Co 0.89906 0.99957 0.2793 0.0
O225 O 0.91561 0.96721 0.36101 0.0
O226 O 0.82717 1.00893 0.33468 0.0
C227 C 0.93623 0.91303 0.22708 0.0
O228 O 0.86468 0.03308 0.19709 0.0
Co229 Co 1.00539 0.01588 0.18008 0.0
O230 O 0.93462 1.00542 0.12301 0.0
C231 C 0.98116 0.11695 0.27899 0.0
C232 C 0.8589 0.97849 0.37557 0.0
C233 C 0.88093 0.02311 0.13916 0.0
O234 O 0.93502 0.08717 0.30377 0.0
O235 O 1.01338 0.09414 0.23322 0.0
O236 O 0.88056 0.91263 0.24897 0.0
O237 O 0.96839 0.96261 0.2408 0.0
Co238 Co 0.25731 0.62782 0.52246 0.0
O239 O 0.17894 0.60841 0.56283 0.0
O240 O 0.23121 0.69671 0.57934 0.0
C241 C 0.22194 0.59616 0.42697 0.0
O242 O 0.33826 0.66698 0.48627 0.0
Co243 Co 0.33259 0.52699 0.44649 0.0
O244 O 0.38299 0.59853 0.41732 0.0
C245 C 0.34063 0.53761 0.58675 0.0
C246 C 0.18106 0.66424 0.58891 0.0
C247 C 0.38092 0.65222 0.44552 0.0
O248 O 0.306 0.58649 0.59037 0.0
O249 O 0.3517 0.5063 0.53548 0.0
O250 O 0.21128 0.6526 0.44917 0.0
O251 O 0.25199 0.55988 0.46294 0.0
Co252 Co 0.39906 0.49958 0.7793 0.0
O253 O 0.41562 0.46721 0.861 0.0
O254 O 0.32718 0.50893 0.83469 0.0
C255 C 0.43622 0.41303 0.72708 0.0
O256 O 0.36468 0.53309 0.69709 0.0
Co257 Co 0.50539 0.51588 0.68007 0.0
O258 O 0.43462 0.50544 0.62301 0.0
C259 C 0.48117 0.61695 0.77899 0.0
C260 C 0.35891 0.47849 0.87558 0.0
C261 C 0.38093 0.52312 0.63916 0.0
O262 O 0.43503 0.58717 0.80377 0.0
O263 O 0.51339 0.59413 0.73322 0.0
O264 O 0.38056 0.41264 0.74897 0.0
O265 O 0.46839 0.46261 0.74079 0.0
Co266 Co 0.64203 0.04221 0.78241 0.0
O267 O 0.65107 0.1244 0.74615 0.0
O268 O 0.56526 0.06661 0.74858 0.0
C269 C 0.69 0.07117 0.8715 0.0
O270 O 0.61093 0.95872 0.81735 0.0
Co271 Co 0.74624 0.95628 0.81805 0.0
O272 O 0.68506 0.90834 0.86767 0.0
C273 C 0.71441 0.96897 0.68372 0.0
C274 C 0.59254 0.11923 0.73513 0.0
C275 C 0.62891 0.91528 0.85375 0.0
O276 O 0.66723 1.00132 0.70015 0.0
O277 O 0.75335 0.94856 0.72314 0.0
O278 O 0.63214 0.08262 0.86417 0.0
O279 O 0.71857 0.04354 0.82469 0.0
Co280 Co 0.77235 0.63972 0.99319 0.0
O281 O 0.705 0.6259 0.93533 0.0
O282 O 0.7273 0.71669 0.98508 0.0
C283 C 0.84289 0.58862 0.93068 0.0
O284 O 0.83601 0.67669 0.05324 0.0
Co285 Co 0.84685 0.53655 0.05471 0.0
O286 O 0.90342 0.60474 0.08333 0.0
C287 C 0.72701 0.57489 0.11006 0.0
C288 C 0.69278 0.68518 0.94551 0.0
C289 C 0.88478 0.66116 0.08197 0.0
O290 O 0.71952 0.61551 0.06707 0.0
O291 O 0.77318 0.5381 0.11198 0.0
O292 O 0.8286 0.64693 0.92163 0.0
O293 O 0.81269 0.5618 0.97523 0.0
Co294 Co 0.90891 0.4989 0.79184 0.0
O295 O 0.89379 0.41654 0.82403 0.0
O296 O 0.98146 0.44583 0.78022 0.0
C297 C 0.8702 0.54979 0.87956 0.0
O298 O 0.94241 0.58158 0.75699 0.0
Co299 Co 0.80038 0.59474 0.77834 0.0
O300 O 0.87055 0.65428 0.78067 0.0
C301 C 0.82642 0.49694 0.67656 0.0
C302 C 0.95036 0.40343 0.81035 0.0
C303 C 0.92452 0.63911 0.76274 0.0
O304 O 0.87334 0.47372 0.70492 0.0
O305 O 0.79296 0.54081 0.70066 0.0
O306 O 0.92649 0.5303 0.879 0.0
O307 O 0.83895 0.53508 0.8301 0.0
Co308 Co 0.7857 0.38338 0.50388 0.0
O309 O 0.86322 0.39787 0.46306 0.0
O310 O 0.83801 0.30941 0.50983 0.0
C311 C 0.72952 0.42119 0.42253 0.0
O312 O 0.70864 0.35 0.54814 0.0
Co313 Co 0.69654 0.49555 0.5329 0.0
O314 O 0.64423 0.43031 0.57118 0.0
C315 C 0.80579 0.47626 0.61264 0.0
C316 C 0.87723 0.34053 0.47595 0.0
C317 C 0.65909 0.37256 0.57304 0.0
O318 O 0.81665 0.421 0.58814 0.0
O319 O 0.76849 0.51481 0.5882 0.0
O320 O 0.74932 0.36372 0.42022 0.0
O321 O 0.74734 0.45449 0.47065 0.0
Co322 Co 0.65823 0.50799 0.29119 0.0
O323 O 0.64391 0.47303 0.37377 0.0
O324 O 0.72979 0.46285 0.3183 0.0
C325 C 0.61917 0.60419 0.31453 0.0
O326 O 0.69356 0.53697 0.20785 0.0
Co327 Co 0.558 0.55595 0.20175 0.0
O328 O 0.62594 0.58822 0.14902 0.0
C329 C 0.5874 0.42021 0.20233 0.0
C330 C 0.69928 0.45083 0.36929 0.0
C331 C 0.6797 0.56791 0.15884 0.0
O332 O 0.6259 0.42968 0.24739 0.0
O333 O 0.55472 0.46329 0.17881 0.0
O334 O 0.67509 0.59077 0.3303 0.0
O335 O 0.58736 0.55889 0.2884 0.0
loop_
_geom_bond_atom_site_label_1
_geom_bond_atom_site_label_2
_geom_bond_distance
_geom_bond_site_symmetry_2
_ccdc_geom_bond_type
Co0 O1 2.229 . S
Co0 O2 2.100 . S
Co0 O4 1.993 1_655 S
Co0 O10 2.026 . S
Co0 O12 2.132 1_655 S
Co0 O13 2.238 1_655 S
O1 Co0 2.229 . S
O1 C8 1.247 . S
O2 Co0 2.100 . S
O2 C8 1.261 . S
C3 O12 1.247 . S
C3 O13 1.272 . S
O4 Co0 1.993 1_455 S
O4 C9 1.259 . S
Co5 O6 2.061 . S
Co5 O11 2.052 . S
Co5 O13 2.135 . S
O6 Co5 2.061 . S
O6 C9 1.235 . S
C7 O10 1.238 . S
C7 O11 1.241 1_655 S
C8 O1 1.247 . S
C8 O2 1.261 . S
C9 O4 1.259 . S
C9 O6 1.235 . S
O10 Co0 2.026 . S
O10 C7 1.238 . S
O11 Co5 2.052 . S
O11 C7 1.241 1_455 S
O12 Co0 2.132 1_455 S
O12 C3 1.247 . S
O13 Co0 2.238 1_455 S
O13 C3 1.272 . S
O13 Co5 2.135 . S
Co14 O15 2.216 . S
Co14 O16 2.091 . S
Co14 O18 2.004 1_455 S
Co14 O24 2.021 1_455 S
Co14 O26 2.137 . S
Co14 O27 2.244 . S
O15 Co14 2.216 . S
O15 C22 1.247 . S
O16 Co14 2.091 . S
O16 C22 1.261 . S
C17 O26 1.247 . S
C17 O27 1.272 . S
O18 Co14 2.004 1_655 S
O18 C23 1.259 . S
Co19 O20 2.061 . S
Co19 O25 2.052 . S
Co19 O27 2.135 1_655 S
O20 Co19 2.061 . S
O20 C23 1.235 . S
C21 O24 1.238 . S
C21 O25 1.241 . S
C22 O15 1.247 . S
C22 O16 1.261 . S
C23 O18 1.259 . S
C23 O20 1.235 . S
O24 Co14 2.021 1_655 S
O24 C21 1.238 . S
O25 Co19 2.052 . S
O25 C21 1.241 . S
O26 Co14 2.137 . S
O26 C17 1.247 . S
O27 Co14 2.244 . S
O27 C17 1.272 . S
O27 Co19 2.135 1_455 S
Co28 O29 2.216 . S
Co28 O30 2.091 . S
Co28 O32 2.004 . S
Co28 O38 2.021 . S
Co28 O40 2.137 . S
Co28 O41 2.244 . S
O29 Co28 2.216 . S
O29 C36 1.247 . S
O30 Co28 2.091 . S
O30 C36 1.261 . S
C31 O40 1.247 . S
C31 O41 1.272 . S
O32 Co28 2.004 . S
O32 C37 1.259 . S
Co33 O34 2.061 . S
Co33 O39 2.052 . S
Co33 O41 2.135 . S
O34 Co33 2.061 . S
O34 C37 1.235 . S
C35 O38 1.238 . S
C35 O39 1.241 . S
C36 O29 1.247 . S
C36 O30 1.261 . S
C37 O32 1.259 . S
C37 O34 1.235 . S
O38 Co28 2.021 . S
O38 C35 1.238 . S
O39 Co33 2.052 . S
O39 C35 1.241 . S
O40 Co28 2.137 . S
O40 C31 1.247 . S
O41 Co28 2.244 . S
O41 C31 1.272 . S
O41 Co33 2.135 . S
Co42 O43 2.216 . S
Co42 O44 2.091 . S
Co42 O46 2.004 . S
Co42 O52 2.021 . S
Co42 O54 2.137 . S
Co42 O55 2.244 . S
O43 Co42 2.216 . S
O43 C50 1.247 . S
O44 Co42 2.091 . S
O44 C50 1.261 . S
C45 O54 1.247 . S
C45 O55 1.272 . S
O46 Co42 2.004 . S
O46 C51 1.259 . S
Co47 O48 2.061 . S
Co47 O53 2.052 . S
Co47 O55 2.135 . S
O48 Co47 2.061 . S
O48 C51 1.235 . S
C49 O52 1.238 . S
C49 O53 1.241 . S
C50 O43 1.247 . S
C50 O44 1.261 . S
C51 O46 1.259 . S
C51 O48 1.235 . S
O52 Co42 2.021 . S
O52 C49 1.238 . S
O53 Co47 2.052 . S
O53 C49 1.241 . S
O54 Co42 2.137 . S
O54 C45 1.247 . S
O55 Co42 2.244 . S
O55 C45 1.272 . S
O55 Co47 2.135 . S
Co56 O57 2.216 . S
Co56 O58 2.091 . S
Co56 O60 2.004 1_455 S
Co56 O66 2.021 . S
Co56 O68 2.137 1_455 S
Co56 O69 2.244 1_455 S
O57 Co56 2.216 . S
O57 C64 1.247 . S
O58 Co56 2.091 . S
O58 C64 1.261 . S
C59 O68 1.247 . S
C59 O69 1.272 . S
O60 Co56 2.004 1_655 S
O60 C65 1.259 . S
Co61 O62 2.061 . S
Co61 O67 2.052 1_655 S
Co61 O69 2.135 . S
O62 Co61 2.061 . S
O62 C65 1.235 . S
C63 O66 1.238 . S
C63 O67 1.241 . S
C64 O57 1.247 . S
C64 O58 1.261 . S
C65 O60 1.259 . S
C65 O62 1.235 . S
O66 Co56 2.021 . S
O66 C63 1.238 . S
O67 Co61 2.052 1_455 S
O67 C63 1.241 . S
O68 Co56 2.137 1_655 S
O68 C59 1.247 . S
O69 Co56 2.244 1_655 S
O69 C59 1.272 . S
O69 Co61 2.135 . S
Co70 O71 2.216 . S
Co70 O72 2.091 . S
Co70 O74 2.004 . S
Co70 O80 2.021 . S
Co70 O82 2.137 . S
Co70 O83 2.244 . S
O71 Co70 2.216 . S
O71 C78 1.247 . S
O72 Co70 2.091 . S
O72 C78 1.261 . S
C73 O82 1.247 . S
C73 O83 1.272 . S
O74 Co70 2.004 . S
O74 C79 1.259 . S
Co75 O76 2.061 . S
Co75 O81 2.052 . S
Co75 O83 2.135 . S
O76 Co75 2.061 . S
O76 C79 1.235 . S
C77 O80 1.238 . S
C77 O81 1.241 . S
C78 O71 1.247 . S
C78 O72 1.261 . S
C79 O74 1.259 . S
C79 O76 1.235 . S
O80 Co70 2.021 . S
O80 C77 1.238 . S
O81 Co75 2.052 . S
O81 C77 1.241 . S
O82 Co70 2.137 . S
O82 C73 1.247 . S
O83 Co70 2.244 . S
O83 C73 1.272 . S
O83 Co75 2.135 . S
Co84 O85 2.216 . S
Co84 O86 2.091 . S
Co84 O88 2.004 . S
Co84 O94 2.021 . S
Co84 O96 2.137 . S
Co84 O97 2.244 . S
O85 Co84 2.216 . S
O85 C92 1.247 . S
O86 Co84 2.091 . S
O86 C92 1.261 . S
C87 O96 1.247 . S
C87 O97 1.272 . S
O88 Co84 2.004 . S
O88 C93 1.259 . S
Co89 O90 2.061 . S
Co89 O95 2.052 . S
Co89 O97 2.135 . S
O90 Co89 2.061 . S
O90 C93 1.235 . S
C91 O94 1.238 . S
C91 O95 1.241 . S
C92 O85 1.247 . S
C92 O86 1.261 . S
C93 O88 1.259 . S
C93 O90 1.235 . S
O94 Co84 2.021 . S
O94 C91 1.238 . S
O95 Co89 2.052 . S
O95 C91 1.241 . S
O96 Co84 2.137 . S
O96 C87 1.247 . S
O97 Co84 2.244 . S
O97 C87 1.272 . S
O97 Co89 2.135 . S
Co98 O99 2.216 . S
Co98 O100 2.091 . S
Co98 O102 2.004 1_655 S
Co98 O108 2.021 1_655 S
Co98 O110 2.137 . S
Co98 O111 2.244 . S
O99 Co98 2.216 . S
O99 C106 1.247 . S
O100 Co98 2.091 . S
O100 C106 1.261 . S
C101 O110 1.247 . S
C101 O111 1.272 . S
O102 Co98 2.004 1_455 S
O102 C107 1.259 . S
Co103 O104 2.061 . S
Co103 O109 2.052 . S
Co103 O111 2.135 1_455 S
O104 Co103 2.061 . S
O104 C107 1.235 . S
C105 O108 1.238 . S
C105 O109 1.241 . S
C106 O99 1.247 . S
C106 O100 1.261 . S
C107 O102 1.259 . S
C107 O104 1.235 . S
O108 Co98 2.021 1_455 S
O108 C105 1.238 . S
O109 Co103 2.052 . S
O109 C105 1.241 . S
O110 Co98 2.137 . S
O110 C101 1.247 . S
O111 Co98 2.244 . S
O111 C101 1.272 . S
O111 Co103 2.135 1_655 S
Co112 O113 2.216 . S
Co112 O114 2.091 . S
Co112 O116 2.004 1_565 S
Co112 O122 2.021 . S
Co112 O124 2.137 1_565 S
Co112 O125 2.244 1_565 S
O113 Co112 2.216 . S
O113 C120 1.247 . S
O114 Co112 2.091 . S
O114 C120 1.261 . S
C115 O124 1.247 . S
C115 O125 1.272 . S
O116 Co112 2.004 1_545 S
O116 C121 1.259 . S
Co117 O118 2.061 . S
Co117 O123 2.052 . S
Co117 O125 2.135 . S
O118 Co117 2.061 . S
O118 C121 1.235 . S
C119 O122 1.238 . S
C119 O123 1.241 1_565 S
C120 O113 1.247 . S
C120 O114 1.261 . S
C121 O116 1.259 . S
C121 O118 1.235 . S
O122 Co112 2.021 . S
O122 C119 1.238 . S
O123 Co117 2.052 . S
O123 C119 1.241 1_545 S
O124 Co112 2.137 1_545 S
O124 C115 1.247 . S
O125 Co112 2.244 1_545 S
O125 C115 1.272 . S
O125 Co117 2.135 . S
Co126 O127 2.216 . S
Co126 O128 2.091 . S
Co126 O130 2.004 . S
Co126 O136 2.021 . S
Co126 O138 2.137 . S
Co126 O139 2.244 . S
O127 Co126 2.216 . S
O127 C134 1.247 . S
O128 Co126 2.091 . S
O128 C134 1.261 . S
C129 O138 1.247 . S
C129 O139 1.272 . S
O130 Co126 2.004 . S
O130 C135 1.259 . S
Co131 O132 2.061 . S
Co131 O137 2.052 . S
Co131 O139 2.135 . S
O132 Co131 2.061 . S
O132 C135 1.235 . S
C133 O136 1.238 . S
C133 O137 1.241 . S
C134 O127 1.247 . S
C134 O128 1.261 . S
C135 O130 1.259 . S
C135 O132 1.235 . S
O136 Co126 2.021 . S
O136 C133 1.238 . S
O137 Co131 2.052 . S
O137 C133 1.241 . S
O138 Co126 2.137 . S
O138 C129 1.247 . S
O139 Co126 2.244 . S
O139 C129 1.272 . S
O139 Co131 2.135 . S
Co140 O141 2.216 1_545 S
Co140 O142 2.091 1_545 S
Co140 O144 2.004 . S
Co140 O150 2.021 1_545 S
Co140 O152 2.137 . S
Co140 O153 2.244 . S
O141 Co140 2.216 1_565 S
O141 C148 1.247 . S
O142 Co140 2.091 1_565 S
O142 C148 1.261 . S
C143 O152 1.247 . S
C143 O153 1.272 . S
O144 Co140 2.004 . S
O144 C149 1.259 . S
Co145 O146 2.061 . S
Co145 O151 2.052 1_545 S
Co145 O153 2.135 . S
O146 Co145 2.061 . S
O146 C149 1.235 . S
C147 O150 1.238 . S
C147 O151 1.241 . S
C148 O141 1.247 . S
C148 O142 1.261 . S
C149 O144 1.259 . S
C149 O146 1.235 . S
O150 Co140 2.021 1_565 S
O150 C147 1.238 . S
O151 Co145 2.052 1_565 S
O151 C147 1.241 . S
O152 Co140 2.137 . S
O152 C143 1.247 . S
O153 Co140 2.244 . S
O153 C143 1.272 . S
O153 Co145 2.135 . S
Co154 O155 2.222 . S
Co154 O156 2.094 . S
Co154 O158 2.000 1_556 S
Co154 O164 2.009 1_556 S
Co154 O166 2.149 . S
Co154 O167 2.247 . S
O155 Co154 2.222 . S
O155 C162 1.247 . S
O156 Co154 2.094 . S
O156 C162 1.261 . S
C157 O166 1.247 . S
C157 O167 1.272 . S
O158 Co154 2.000 1_554 S
O158 C163 1.259 . S
Co159 O160 2.061 . S
Co159 O165 2.052 . S
Co159 O167 2.135 1_554 S
O160 Co159 2.061 . S
O160 C163 1.235 . S
C161 O164 1.238 . S
C161 O165 1.241 . S
C162 O155 1.247 . S
C162 O156 1.261 . S
C163 O158 1.259 . S
C163 O160 1.235 . S
O164 Co154 2.009 1_554 S
O164 C161 1.238 . S
O165 Co159 2.052 . S
O165 C161 1.241 . S
O166 Co154 2.149 . S
O166 C157 1.247 . S
O167 Co154 2.247 . S
O167 C157 1.272 . S
O167 Co159 2.135 1_556 S
Co168 O169 2.216 . S
Co168 O170 2.091 . S
Co168 O172 2.004 1_554 S
Co168 O178 2.021 . S
Co168 O180 2.137 1_554 S
Co168 O181 2.244 1_554 S
O169 Co168 2.216 . S
O169 C176 1.247 . S
O170 Co168 2.091 . S
O170 C176 1.261 . S
C171 O180 1.247 . S
C171 O181 1.272 . S
O172 Co168 2.004 1_556 S
O172 C177 1.259 . S
Co173 O174 2.061 . S
Co173 O179 2.052 1_556 S
Co173 O181 2.135 . S
O174 Co173 2.061 . S
O174 C177 1.235 . S
C175 O178 1.238 . S
C175 O179 1.241 . S
C176 O169 1.247 . S
C176 O170 1.261 . S
C177 O172 1.259 . S
C177 O174 1.235 . S
O178 Co168 2.021 . S
O178 C175 1.238 . S
O179 Co173 2.052 1_554 S
O179 C175 1.241 . S
O180 Co168 2.137 1_556 S
O180 C171 1.247 . S
O181 Co168 2.244 1_556 S
O181 C171 1.272 . S
O181 Co173 2.135 . S
Co182 O183 2.216 . S
Co182 O184 2.091 . S
Co182 O186 2.004 1_554 S
Co182 O192 2.021 . S
Co182 O194 2.137 1_554 S
Co182 O195 2.244 1_554 S
O183 Co182 2.216 . S
O183 C190 1.247 . S
O184 Co182 2.091 . S
O184 C190 1.261 . S
C185 O194 1.247 . S
C185 O195 1.272 . S
O186 Co182 2.004 1_556 S
O186 C191 1.259 . S
Co187 O188 2.061 . S
Co187 O193 2.052 1_556 S
Co187 O195 2.135 . S
O188 Co187 2.061 . S
O188 C191 1.235 . S
C189 O192 1.238 . S
C189 O193 1.241 . S
C190 O183 1.247 . S
C190 O184 1.261 . S
C191 O186 1.259 . S
C191 O188 1.235 . S
O192 Co182 2.021 . S
O192 C189 1.238 . S
O193 Co187 2.052 1_554 S
O193 C189 1.241 . S
O194 Co182 2.137 1_556 S
O194 C185 1.247 . S
O195 Co182 2.244 1_556 S
O195 C185 1.272 . S
O195 Co187 2.135 . S
Co196 O197 2.216 . S
Co196 O198 2.091 . S
Co196 O200 2.004 . S
Co196 O206 2.021 . S
Co196 O208 2.137 . S
Co196 O209 2.244 . S
O197 Co196 2.216 . S
O197 C204 1.247 . S
O198 Co196 2.091 . S
O198 C204 1.261 . S
C199 O208 1.247 . S
C199 O209 1.272 . S
O200 Co196 2.004 . S
O200 C205 1.259 . S
Co201 O202 2.061 . S
Co201 O207 2.052 . S
Co201 O209 2.135 . S
O202 Co201 2.061 . S
O202 C205 1.235 . S
C203 O206 1.238 . S
C203 O207 1.241 . S
C204 O197 1.247 . S
C204 O198 1.261 . S
C205 O200 1.259 . S
C205 O202 1.235 . S
O206 Co196 2.021 . S
O206 C203 1.238 . S
O207 Co201 2.052 . S
O207 C203 1.241 . S
O208 Co196 2.137 . S
O208 C199 1.247 . S
O209 Co196 2.244 . S
O209 C199 1.272 . S
O209 Co201 2.135 . S
Co210 O211 2.216 . S
Co210 O212 2.091 . S
Co210 O214 2.004 . S
Co210 O220 2.021 . S
Co210 O222 2.137 . S
Co210 O223 2.244 . S
O211 Co210 2.216 . S
O211 C218 1.247 . S
O212 Co210 2.091 . S
O212 C218 1.261 . S
C213 O222 1.247 . S
C213 O223 1.272 . S
O214 Co210 2.004 . S
O214 C219 1.259 . S
Co215 O216 2.061 . S
Co215 O221 2.052 . S
Co215 O223 2.135 . S
O216 Co215 2.061 . S
O216 C219 1.235 . S
C217 O220 1.238 . S
C217 O221 1.241 . S
C218 O211 1.247 . S
C218 O212 1.261 . S
C219 O214 1.259 . S
C219 O216 1.235 . S
O220 Co210 2.021 . S
O220 C217 1.238 . S
O221 Co215 2.052 . S
O221 C217 1.241 . S
O222 Co210 2.137 . S
O222 C213 1.247 . S
O223 Co210 2.244 . S
O223 C213 1.272 . S
O223 Co215 2.135 . S
Co224 O225 2.216 . S
Co224 O226 2.091 . S
Co224 O228 2.004 1_565 S
Co224 O234 2.021 1_565 S
Co224 O236 2.137 . S
Co224 O237 2.244 . S
O225 Co224 2.216 . S
O225 C232 1.247 . S
O226 Co224 2.091 . S
O226 C232 1.261 . S
C227 O236 1.247 . S
C227 O237 1.272 . S
O228 Co224 2.004 1_545 S
O228 C233 1.259 . S
Co229 O230 2.061 . S
Co229 O235 2.052 . S
Co229 O237 2.135 1_545 S
O230 Co229 2.061 . S
O230 C233 1.235 . S
C231 O234 1.238 . S
C231 O235 1.241 . S
C232 O225 1.247 . S
C232 O226 1.261 . S
C233 O228 1.259 . S
C233 O230 1.235 . S
O234 Co224 2.021 1_545 S
O234 C231 1.238 . S
O235 Co229 2.052 . S
O235 C231 1.241 . S
O236 Co224 2.137 . S
O236 C227 1.247 . S
O237 Co224 2.244 . S
O237 C227 1.272 . S
O237 Co229 2.135 1_565 S
Co238 O239 2.216 . S
Co238 O240 2.091 . S
Co238 O242 2.004 . S
Co238 O248 2.021 . S
Co238 O250 2.137 . S
Co238 O251 2.244 . S
O239 Co238 2.216 . S
O239 C246 1.247 . S
O240 Co238 2.091 . S
O240 C246 1.261 . S
C241 O250 1.247 . S
C241 O251 1.272 . S
O242 Co238 2.004 . S
O242 C247 1.259 . S
Co243 O244 2.061 . S
Co243 O249 2.052 . S
Co243 O251 2.135 . S
O244 Co243 2.061 . S
O244 C247 1.235 . S
C245 O248 1.238 . S
C245 O249 1.241 . S
C246 O239 1.247 . S
C246 O240 1.261 . S
C247 O242 1.259 . S
C247 O244 1.235 . S
O248 Co238 2.021 . S
O248 C245 1.238 . S
O249 Co243 2.052 . S
O249 C245 1.241 . S
O250 Co238 2.137 . S
O250 C241 1.247 . S
O251 Co238 2.244 . S
O251 C241 1.272 . S
O251 Co243 2.135 . S
Co252 O253 2.216 . S
Co252 O254 2.091 . S
Co252 O256 2.004 . S
Co252 O262 2.021 . S
Co252 O264 2.137 . S
Co252 O265 2.244 . S
O253 Co252 2.216 . S
O253 C260 1.247 . S
O254 Co252 2.091 . S
O254 C260 1.261 . S
C255 O264 1.247 . S
C255 O265 1.272 . S
O256 Co252 2.004 . S
O256 C261 1.259 . S
Co257 O258 2.061 . S
Co257 O263 2.052 . S
Co257 O265 2.135 . S
O258 Co257 2.061 . S
O258 C261 1.235 . S
C259 O262 1.238 . S
C259 O263 1.241 . S
C260 O253 1.247 . S
C260 O254 1.261 . S
C261 O256 1.259 . S
C261 O258 1.235 . S
O262 Co252 2.021 . S
O262 C259 1.238 . S
O263 Co257 2.052 . S
O263 C259 1.241 . S
O264 Co252 2.137 . S
O264 C255 1.247 . S
O265 Co252 2.244 . S
O265 C255 1.272 . S
O265 Co257 2.135 . S
Co266 O267 2.216 . S
Co266 O268 2.091 . S
Co266 O270 2.004 1_545 S
Co266 O276 2.021 1_545 S
Co266 O278 2.137 . S
Co266 O279 2.244 . S
O267 Co266 2.216 . S
O267 C274 1.247 . S
O268 Co266 2.091 . S
O268 C274 1.261 . S
C269 O278 1.247 . S
C269 O279 1.272 . S
O270 Co266 2.004 1_565 S
O270 C275 1.259 . S
Co271 O272 2.061 . S
Co271 O277 2.052 . S
Co271 O279 2.135 1_565 S
O272 Co271 2.061 . S
O272 C275 1.235 . S
C273 O276 1.238 . S
C273 O277 1.241 . S
C274 O267 1.247 . S
C274 O268 1.261 . S
C275 O270 1.259 . S
C275 O272 1.235 . S
O276 Co266 2.021 1_565 S
O276 C273 1.238 . S
O277 Co271 2.052 . S
O277 C273 1.241 . S
O278 Co266 2.137 . S
O278 C269 1.247 . S
O279 Co266 2.244 . S
O279 C269 1.272 . S
O279 Co271 2.135 1_545 S
Co280 O281 2.216 . S
Co280 O282 2.091 . S
Co280 O284 2.004 1_556 S
Co280 O290 2.021 1_556 S
Co280 O292 2.137 . S
Co280 O293 2.244 . S
O281 Co280 2.216 . S
O281 C288 1.247 . S
O282 Co280 2.091 . S
O282 C288 1.261 . S
C283 O292 1.247 . S
C283 O293 1.272 . S
O284 Co280 2.004 1_554 S
O284 C289 1.259 . S
Co285 O286 2.061 . S
Co285 O291 2.052 . S
Co285 O293 2.135 1_554 S
O286 Co285 2.061 . S
O286 C289 1.235 . S
C287 O290 1.238 . S
C287 O291 1.241 . S
C288 O281 1.247 . S
C288 O282 1.261 . S
C289 O284 1.259 . S
C289 O286 1.235 . S
O290 Co280 2.021 1_554 S
O290 C287 1.238 . S
O291 Co285 2.052 . S
O291 C287 1.241 . S
O292 Co280 2.137 . S
O292 C283 1.247 . S
O293 Co280 2.244 . S
O293 C283 1.272 . S
O293 Co285 2.135 1_556 S
Co294 O295 2.216 . S
Co294 O296 2.091 . S
Co294 O298 2.004 . S
Co294 O304 2.021 . S
Co294 O306 2.137 . S
Co294 O307 2.244 . S
O295 Co294 2.216 . S
O295 C302 1.247 . S
O296 Co294 2.091 . S
O296 C302 1.261 . S
C297 O306 1.247 . S
C297 O307 1.272 . S
O298 Co294 2.004 . S
O298 C303 1.259 . S
Co299 O300 2.061 . S
Co299 O305 2.052 . S
Co299 O307 2.135 . S
O300 Co299 2.061 . S
O300 C303 1.235 . S
C301 O304 1.238 . S
C301 O305 1.241 . S
C302 O295 1.247 . S
C302 O296 1.261 . S
C303 O298 1.259 . S
C303 O300 1.235 . S
O304 Co294 2.021 . S
O304 C301 1.238 . S
O305 Co299 2.052 . S
O305 C301 1.241 . S
O306 Co294 2.137 . S
O306 C297 1.247 . S
O307 Co294 2.244 . S
O307 C297 1.272 . S
O307 Co299 2.135 . S
Co308 O309 2.216 . S
Co308 O310 2.091 . S
Co308 O312 2.004 . S
Co308 O318 2.021 . S
Co308 O320 2.137 . S
Co308 O321 2.244 . S
O309 Co308 2.216 . S
O309 C316 1.247 . S
O310 Co308 2.091 . S
O310 C316 1.261 . S
C311 O320 1.247 . S
C311 O321 1.272 . S
O312 Co308 2.004 . S
O312 C317 1.259 . S
Co313 O314 2.061 . S
Co313 O319 2.052 . S
Co313 O321 2.135 . S
O314 Co313 2.061 . S
O314 C317 1.235 . S
C315 O318 1.238 . S
C315 O319 1.241 . S
C316 O309 1.247 . S
C316 O310 1.261 . S
C317 O312 1.259 . S
C317 O314 1.235 . S
O318 Co308 2.021 . S
O318 C315 1.238 . S
O319 Co313 2.052 . S
O319 C315 1.241 . S
O320 Co308 2.137 . S
O320 C311 1.247 . S
O321 Co308 2.244 . S
O321 C311 1.272 . S
O321 Co313 2.135 . S
Co322 O323 2.216 . S
Co322 O324 2.091 . S
Co322 O326 2.004 . S
Co322 O332 2.021 . S
Co322 O334 2.137 . S
Co322 O335 2.244 . S
O323 Co322 2.216 . S
O323 C330 1.247 . S
O324 Co322 2.091 . S
O324 C330 1.261 . S
C325 O334 1.247 . S
C325 O335 1.272 . S
O326 Co322 2.004 . S
O326 C331 1.259 . S
Co327 O328 2.061 . S
Co327 O333 2.052 . S
Co327 O335 2.135 . S
O328 Co327 2.061 . S
O328 C331 1.235 . S
C329 O332 1.238 . S
C329 O333 1.241 . S
C330 O323 1.247 . S
C330 O324 1.261 . S
C331 O326 1.259 . S
C331 O328 1.235 . S
O332 Co322 2.021 . S
O332 C329 1.238 . S
O333 Co327 2.052 . S
O333 C329 1.241 . S
O334 Co322 2.137 . S
O334 C325 1.247 . S
O335 Co322 2.244 . S
O335 C325 1.272 . S
O335 Co327 2.135 . S
C205 C3 1.536 . S
C23 C218 1.496 . S
C259 C35 1.459 . S
C50 C190 1.501 . S
C204 C63 1.586 . S
C79 C219 1.492 . S
C87 C255 1.539 . S
C106 C191 1.497 . S
C129 C115 1.544 . S
C149 C133 1.680 . S
C148 C157 1.503 . S
C161 C119 1.452 . S
C176 C51 1.496 . S
C59 C227 1.539 . S
C246 C22 1.501 . S
C21 C303 1.453 . S
C134 C9 1.416 . S
C329 C45 1.456 . S
C162 C36 1.408 . S
C302 C101 1.472 . S
C135 C93 1.436 . S
C77 C325 1.449 . S
C64 C163 1.401 . S
C217 C273 1.505 . S
C232 C213 1.467 . S
C189 C233 1.460 . S
C269 C185 1.457 . S
C37 C288 1.416 . S
C143 C105 1.449 . S
C8 C316 1.408 . S
C275 C31 1.536 . S
C7 C231 1.459 . S
C274 C91 1.586 . S
C177 C107 1.492 . S
C78 C247 1.497 . S
C297 C283 1.544 . S
C331 C287 1.680 . S
C311 C330 1.503 . S
C301 C315 1.452 . S
C121 C49 1.453 . S
C17 C147 1.456 . S
C73 C120 1.472 . S
C289 C65 1.436 . S
C92 C317 1.401 . S
C175 C203 1.505 . S
C260 C171 1.467 . S
C245 C261 1.460 . S
C199 C241 1.457 . S
