# Generated by pormake.
# Topology sxi, (6)-cn, num edge types: 1
# Building blocks:
#     Node 0, Type 0, BuildingBlock: OJICUG_clean_sbu_0, # of connection points: 6
#     Node 1, Type 0, BuildingBlock: OJICUG_clean_sbu_0, # of connection points: 6
#     Node 2, Type 0, BuildingBlock: OJICUG_clean_sbu_0, # of connection points: 6
#     Node 3, Type 0, BuildingBlock: OJICUG_clean_sbu_0, # of connection points: 6
#     Node 4, Type 0, BuildingBlock: OJICUG_clean_sbu_0, # of connection points: 6
#     Node 5, Type 0, BuildingBlock: OJICUG_clean_sbu_0, # of connection points: 6
#     Node 6, Type 0, BuildingBlock: OJICUG_clean_sbu_0, # of connection points: 6
#     Node 7, Type 0, BuildingBlock: OJICUG_clean_sbu_0, # of connection points: 6
#     Node 8, Type 0, BuildingBlock: OJICUG_clean_sbu_0, # of connection points: 6
#     Node 9, Type 0, BuildingBlock: OJICUG_clean_sbu_0, # of connection points: 6
#     Node 10, Type 0, BuildingBlock: OJICUG_clean_sbu_0, # of connection points: 6
#     Node 11, Type 0, BuildingBlock: OJICUG_clean_sbu_0, # of connection points: 6
#     Node 12, Type 0, BuildingBlock: OJICUG_clean_sbu_0, # of connection points: 6
#     Node 13, Type 0, BuildingBlock: OJICUG_clean_sbu_0, # of connection points: 6
#     Node 14, Type 0, BuildingBlock: OJICUG_clean_sbu_0, # of connection points: 6
#     Node 15, Type 0, BuildingBlock: OJICUG_clean_sbu_0, # of connection points: 6
#     Node 16, Type 0, BuildingBlock: OJICUG_clean_sbu_0, # of connection points: 6
#     Node 17, Type 0, BuildingBlock: OJICUG_clean_sbu_0, # of connection points: 6
#     Node 18, Type 0, BuildingBlock: OJICUG_clean_sbu_0, # of connection points: 6
#     Node 19, Type 0, BuildingBlock: OJICUG_clean_sbu_0, # of connection points: 6
#     Node 20, Type 0, BuildingBlock: OJICUG_clean_sbu_0, # of connection points: 6
#     Node 21, Type 0, BuildingBlock: OJICUG_clean_sbu_0, # of connection points: 6
#     Node 22, Type 0, BuildingBlock: OJICUG_clean_sbu_0, # of connection points: 6
#     Node 23, Type 0, BuildingBlock: OJICUG_clean_sbu_0, # of connection points: 6
#     Edge 24, Type (0, 0), BuildingBlock: EZIPEK_clean_linker_0, # of connection points: 2
#     Edge 25, Type (0, 0), BuildingBlock: EZIPEK_clean_linker_0, # of connection points: 2
#     Edge 26, Type (0, 0), BuildingBlock: EZIPEK_clean_linker_0, # of connection points: 2
#     Edge 27, Type (0, 0), BuildingBlock: EZIPEK_clean_linker_0, # of connection points: 2
#     Edge 28, Type (0, 0), BuildingBlock: EZIPEK_clean_linker_0, # of connection points: 2
#     Edge 29, Type (0, 0), BuildingBlock: EZIPEK_clean_linker_0, # of connection points: 2
#     Edge 30, Type (0, 0), BuildingBlock: EZIPEK_clean_linker_0, # of connection points: 2
#     Edge 31, Type (0, 0), BuildingBlock: EZIPEK_clean_linker_0, # of connection points: 2
#     Edge 32, Type (0, 0), BuildingBlock: EZIPEK_clean_linker_0, # of connection points: 2
#     Edge 33, Type (0, 0), BuildingBlock: EZIPEK_clean_linker_0, # of connection points: 2
#     Edge 34, Type (0, 0), BuildingBlock: EZIPEK_clean_linker_0, # of connection points: 2
#     Edge 35, Type (0, 0), BuildingBlock: EZIPEK_clean_linker_0, # of connection points: 2
#     Edge 36, Type (0, 0), BuildingBlock: EZIPEK_clean_linker_0, # of connection points: 2
#     Edge 37, Type (0, 0), BuildingBlock: EZIPEK_clean_linker_0, # of connection points: 2
#     Edge 38, Type (0, 0), BuildingBlock: EZIPEK_clean_linker_0, # of connection points: 2
#     Edge 39, Type (0, 0), BuildingBlock: EZIPEK_clean_linker_0, # of connection points: 2
#     Edge 40, Type (0, 0), BuildingBlock: EZIPEK_clean_linker_0, # of connection points: 2
#     Edge 41, Type (0, 0), BuildingBlock: EZIPEK_clean_linker_0, # of connection points: 2
#     Edge 42, Type (0, 0), BuildingBlock: EZIPEK_clean_linker_0, # of connection points: 2
#     Edge 43, Type (0, 0), BuildingBlock: EZIPEK_clean_linker_0, # of connection points: 2
#     Edge 44, Type (0, 0), BuildingBlock: EZIPEK_clean_linker_0, # of connection points: 2
#     Edge 45, Type (0, 0), BuildingBlock: EZIPEK_clean_linker_0, # of connection points: 2
#     Edge 46, Type (0, 0), BuildingBlock: EZIPEK_clean_linker_0, # of connection points: 2
#     Edge 47, Type (0, 0), BuildingBlock: EZIPEK_clean_linker_0, # of connection points: 2
#     Edge 48, Type (0, 0), BuildingBlock: EZIPEK_clean_linker_0, # of connection points: 2
#     Edge 49, Type (0, 0), BuildingBlock: EZIPEK_clean_linker_0, # of connection points: 2
#     Edge 50, Type (0, 0), BuildingBlock: EZIPEK_clean_linker_0, # of connection points: 2
#     Edge 51, Type (0, 0), BuildingBlock: EZIPEK_clean_linker_0, # of connection points: 2
#     Edge 52, Type (0, 0), BuildingBlock: EZIPEK_clean_linker_0, # of connection points: 2
#     Edge 53, Type (0, 0), BuildingBlock: EZIPEK_clean_linker_0, # of connection points: 2
#     Edge 54, Type (0, 0), BuildingBlock: EZIPEK_clean_linker_0, # of connection points: 2
#     Edge 55, Type (0, 0), BuildingBlock: EZIPEK_clean_linker_0, # of connection points: 2
#     Edge 56, Type (0, 0), BuildingBlock: EZIPEK_clean_linker_0, # of connection points: 2
#     Edge 57, Type (0, 0), BuildingBlock: EZIPEK_clean_linker_0, # of connection points: 2
#     Edge 58, Type (0, 0), BuildingBlock: EZIPEK_clean_linker_0, # of connection points: 2
#     Edge 59, Type (0, 0), BuildingBlock: EZIPEK_clean_linker_0, # of connection points: 2
#     Edge 60, Type (0, 0), BuildingBlock: EZIPEK_clean_linker_0, # of connection points: 2
#     Edge 61, Type (0, 0), BuildingBlock: EZIPEK_clean_linker_0, # of connection points: 2
#     Edge 62, Type (0, 0), BuildingBlock: EZIPEK_clean_linker_0, # of connection points: 2
#     Edge 63, Type (0, 0), BuildingBlock: EZIPEK_clean_linker_0, # of connection points: 2
#     Edge 64, Type (0, 0), BuildingBlock: EZIPEK_clean_linker_0, # of connection points: 2
#     Edge 65, Type (0, 0), BuildingBlock: EZIPEK_clean_linker_0, # of connection points: 2
#     Edge 66, Type (0, 0), BuildingBlock: EZIPEK_clean_linker_0, # of connection points: 2
#     Edge 67, Type (0, 0), BuildingBlock: EZIPEK_clean_linker_0, # of connection points: 2
#     Edge 68, Type (0, 0), BuildingBlock: EZIPEK_clean_linker_0, # of connection points: 2
#     Edge 69, Type (0, 0), BuildingBlock: EZIPEK_clean_linker_0, # of connection points: 2
#     Edge 70, Type (0, 0), BuildingBlock: EZIPEK_clean_linker_0, # of connection points: 2
#     Edge 71, Type (0, 0), BuildingBlock: EZIPEK_clean_linker_0, # of connection points: 2
#     Edge 72, Type (0, 0), BuildingBlock: EZIPEK_clean_linker_0, # of connection points: 2
#     Edge 73, Type (0, 0), BuildingBlock: EZIPEK_clean_linker_0, # of connection points: 2
#     Edge 74, Type (0, 0), BuildingBlock: EZIPEK_clean_linker_0, # of connection points: 2
#     Edge 75, Type (0, 0), BuildingBlock: EZIPEK_clean_linker_0, # of connection points: 2
#     Edge 76, Type (0, 0), BuildingBlock: EZIPEK_clean_linker_0, # of connection points: 2
#     Edge 77, Type (0, 0), BuildingBlock: EZIPEK_clean_linker_0, # of connection points: 2
#     Edge 78, Type (0, 0), BuildingBlock: EZIPEK_clean_linker_0, # of connection points: 2
#     Edge 79, Type (0, 0), BuildingBlock: EZIPEK_clean_linker_0, # of connection points: 2
#     Edge 80, Type (0, 0), BuildingBlock: EZIPEK_clean_linker_0, # of connection points: 2
#     Edge 81, Type (0, 0), BuildingBlock: EZIPEK_clean_linker_0, # of connection points: 2
#     Edge 82, Type (0, 0), BuildingBlock: EZIPEK_clean_linker_0, # of connection points: 2
#     Edge 83, Type (0, 0), BuildingBlock: EZIPEK_clean_linker_0, # of connection points: 2
#     Edge 84, Type (0, 0), BuildingBlock: EZIPEK_clean_linker_0, # of connection points: 2
#     Edge 85, Type (0, 0), BuildingBlock: EZIPEK_clean_linker_0, # of connection points: 2
#     Edge 86, Type (0, 0), BuildingBlock: EZIPEK_clean_linker_0, # of connection points: 2
#     Edge 87, Type (0, 0), BuildingBlock: EZIPEK_clean_linker_0, # of connection points: 2
#     Edge 88, Type (0, 0), BuildingBlock: EZIPEK_clean_linker_0, # of connection points: 2
#     Edge 89, Type (0, 0), BuildingBlock: EZIPEK_clean_linker_0, # of connection points: 2
#     Edge 90, Type (0, 0), BuildingBlock: EZIPEK_clean_linker_0, # of connection points: 2
#     Edge 91, Type (0, 0), BuildingBlock: EZIPEK_clean_linker_0, # of connection points: 2
#     Edge 92, Type (0, 0), BuildingBlock: EZIPEK_clean_linker_0, # of connection points: 2
#     Edge 93, Type (0, 0), BuildingBlock: EZIPEK_clean_linker_0, # of connection points: 2
#     Edge 94, Type (0, 0), BuildingBlock: EZIPEK_clean_linker_0, # of connection points: 2
#     Edge 95, Type (0, 0), BuildingBlock: EZIPEK_clean_linker_0, # of connection points: 2
# Relax obj value: 0.447
# Max RMSD: 0.271
# Mean RMSD: 0.271
data_MOF--net-sxi--node1-OJICUG_clean_sbu_0--edge1-EZIPEK_clean_linker_0
_symmetry_space_group_name_H-M    P1
_symmetry_Int_Tables_number       1
_symmetry_cell_setting            triclinic
loop_
_symmetry_equiv_pos_as_xyz
'x, y, z'
_cell_length_a     36.312782
_cell_length_b     36.250513
_cell_length_c     36.252135
_cell_angle_alpha  89.965902
_cell_angle_beta   89.913539
_cell_angle_gamma 90.035353
loop_
_atom_site_label
_atom_site_type_symbol
_atom_site_fract_x
_atom_site_fract_y
_atom_site_fract_z
_atom_type_partial_charge
Sc0 Sc 0.98694 0.28913 0.41051 0.0
Sc1 Sc 0.06888 0.32216 0.36799 0.0
Sc2 Sc 0.01145 0.38163 0.4172 0.0
O3 O 0.02232 0.33067 0.3983 0.0
C4 C 0.93624 0.35558 0.3854 0.0
C5 C 0.01416 0.26124 0.33239 0.0
C6 C 0.04348 0.39841 0.33522 0.0
C7 C 0.06651 0.25668 0.42728 0.0
C8 C 0.97802 0.33493 0.48396 0.0
C9 C 0.09483 0.38424 0.42718 0.0
O10 O 0.94092 0.32115 0.39091 0.0
O11 O 0.04417 0.27973 0.33164 0.0
O12 O 0.02919 0.40631 0.36625 0.0
O13 O 0.0316 0.25626 0.43068 0.0
O14 O 0.98992 0.3648 0.47018 0.0
O15 O 0.10069 0.3637 0.39911 0.0
O16 O 0.97644 0.30514 0.4661 0.0
O17 O 0.08428 0.27918 0.40663 0.0
O18 O 0.06357 0.38643 0.4423 0.0
O19 O 0.99064 0.2645 0.3578 0.0
O20 O 0.95956 0.38018 0.39297 0.0
O21 O 0.05632 0.3662 0.32856 0.0
Sc22 Sc 0.94829 0.74311 0.64606 0.0
Sc23 Sc 0.91408 0.82609 0.61202 0.0
Sc24 Sc 0.85731 0.76353 0.65388 0.0
O25 O 0.90674 0.77699 0.63696 0.0
C26 C 0.88211 0.69057 0.622 0.0
C27 C 0.9762 0.77426 0.57524 0.0
C28 C 0.84439 0.79918 0.57249 0.0
C29 C 0.97691 0.82361 0.66925 0.0
C30 C 0.90639 0.72878 0.71891 0.0
C31 C 0.84883 0.84198 0.66925 0.0
O32 O 0.91523 0.69574 0.63247 0.0
O33 O 0.96513 0.80697 0.58289 0.0
O34 O 0.8335 0.78767 0.6041 0.0
O35 O 0.98324 0.78964 0.6617 0.0
O36 O 0.87553 0.73484 0.70339 0.0
O37 O 0.86428 0.85086 0.63873 0.0
O38 O 0.93697 0.73509 0.70334 0.0
O39 O 0.94897 0.84135 0.65733 0.0
O40 O 0.85851 0.81283 0.68528 0.0
O41 O 0.96048 0.74663 0.58908 0.0
O42 O 0.8573 0.71477 0.62314 0.0
O43 O 0.8775 0.81029 0.56738 0.0
Sc44 Sc 0.48364 0.70575 0.91271 0.0
Sc45 Sc 0.41105 0.66741 0.85983 0.0
Sc46 Sc 0.4782 0.61126 0.90012 0.0
O47 O 0.45727 0.66171 0.89063 0.0
C48 C 0.54731 0.65477 0.88102 0.0
C49 C 0.46324 0.73625 0.8337 0.0
C50 C 0.44412 0.59674 0.81927 0.0
C51 C 0.39994 0.72865 0.92207 0.0
C52 C 0.49785 0.65152 0.97656 0.0
C53 C 0.3947 0.59985 0.91677 0.0
O54 O 0.53659 0.68333 0.89834 0.0
O55 O 0.43571 0.71444 0.82785 0.0
O56 O 0.4625 0.58873 0.8478 0.0
O57 O 0.43389 0.73247 0.92916 0.0
O58 O 0.49962 0.62426 0.95462 0.0
O59 O 0.38394 0.62282 0.89192 0.0
O60 O 0.48661 0.68295 0.96675 0.0
O61 O 0.38746 0.70567 0.89879 0.0
O62 O 0.42822 0.59436 0.92489 0.0
O63 O 0.48333 0.73434 0.86206 0.0
O64 O 0.52731 0.62712 0.87443 0.0
O65 O 0.42651 0.62717 0.81702 0.0
Sc66 Sc 0.54907 0.26142 0.14789 0.0
Sc67 Sc 0.57794 0.17537 0.11699 0.0
Sc68 Sc 0.63906 0.23519 0.15569 0.0
O69 O 0.58851 0.22452 0.13985 0.0
C70 C 0.6189 0.30822 0.1212 0.0
C71 C 0.51823 0.22963 0.07856 0.0
C72 C 0.64933 0.1945 0.07624 0.0
C73 C 0.51524 0.1838 0.17389 0.0
C74 C 0.59249 0.27546 0.21961 0.0
C75 C 0.64194 0.15693 0.17576 0.0
O76 O 0.58566 0.30644 0.13272 0.0
O77 O 0.52841 0.19673 0.08685 0.0
O78 O 0.66109 0.20637 0.10731 0.0
O79 O 0.51066 0.21773 0.16484 0.0
O80 O 0.62285 0.26764 0.20376 0.0
O81 O 0.62543 0.14841 0.14566 0.0
O82 O 0.56145 0.26973 0.20486 0.0
O83 O 0.5425 0.16446 0.163 0.0
O84 O 0.63684 0.188 0.19026 0.0
O85 O 0.53509 0.25716 0.09133 0.0
O86 O 0.6413 0.28178 0.1221 0.0
O87 O 0.61537 0.18646 0.07128 0.0
Sc88 Sc 0.53876 0.10996 0.58314 0.0
Sc89 Sc 0.58585 0.17509 0.63272 0.0
Sc90 Sc 0.52023 0.20157 0.56597 0.0
O91 O 0.54806 0.16288 0.59414 0.0
C92 C 0.52217 0.14494 0.50309 0.0
C93 C 0.62023 0.10576 0.58716 0.0
C94 C 0.60222 0.23264 0.56855 0.0
C95 C 0.55356 0.10542 0.66967 0.0
C96 C 0.46127 0.14014 0.58876 0.0
C97 C 0.52318 0.23734 0.64563 0.0
O98 O 0.52237 0.11986 0.5275 0.0
O99 O 0.62099 0.12721 0.61544 0.0
O100 O 0.56887 0.23396 0.55794 0.0
O101 O 0.55242 0.09023 0.63807 0.0
O102 O 0.47021 0.17029 0.57287 0.0
O103 O 0.55343 0.22189 0.65531 0.0
O104 O 0.48369 0.11567 0.59952 0.0
O105 O 0.55885 0.13995 0.67316 0.0
O106 O 0.50724 0.23019 0.61543 0.0
O107 O 0.59343 0.10556 0.56511 0.0
O108 O 0.52846 0.1781 0.51182 0.0
O109 O 0.61406 0.21116 0.5939 0.0
Sc110 Sc 0.13964 0.26827 0.84842 0.0
Sc111 Sc 0.074 0.32436 0.88842 0.0
Sc112 Sc 0.04793 0.2489 0.83479 0.0
O113 O 0.08648 0.28098 0.85701 0.0
C114 C 0.10439 0.2358 0.77428 0.0
C115 C 0.13805 0.34924 0.82896 0.0
C116 C 0.01408 0.32912 0.82473 0.0
C117 C 0.14611 0.29867 0.92873 0.0
C118 C 0.10904 0.19638 0.87159 0.0
C119 C 0.01187 0.26463 0.91303 0.0
O120 O 0.13027 0.23663 0.79783 0.0
O121 O 0.11689 0.35648 0.85689 0.0
O122 O 0.01577 0.29507 0.81633 0.0
O123 O 0.16084 0.29551 0.89715 0.0
O124 O 0.07988 0.20183 0.85254 0.0
O125 O 0.02969 0.29469 0.91916 0.0
O126 O 0.13214 0.22091 0.87985 0.0
O127 O 0.11224 0.30693 0.93126 0.0
O128 O 0.01709 0.24503 0.88464 0.0
O129 O 0.14503 0.31677 0.81811 0.0
O130 O 0.07293 0.24873 0.78133 0.0
O131 O 0.03351 0.34393 0.84988 0.0
Sc132 Sc 0.97484 0.88959 0.10428 0.0
Sc133 Sc 0.91633 0.82409 0.13936 0.0
Sc134 Sc 0.9953 0.79845 0.0913 0.0
O135 O 0.96154 0.83654 0.11133 0.0
C136 C 0.01063 0.85405 0.03225 0.0
C137 C 0.89638 0.88762 0.07758 0.0
C138 C 0.91611 0.76482 0.07489 0.0
C139 C 0.93705 0.89689 0.18105 0.0
C140 C 0.04447 0.85879 0.133 0.0
C141 C 0.97414 0.76197 0.16722 0.0
O142 O 0.01041 0.87935 0.05661 0.0
O143 O 0.88685 0.86704 0.10532 0.0
O144 O 0.95082 0.7657 0.07019 0.0
O145 O 0.94228 0.9112 0.14961 0.0
O146 O 0.04151 0.83086 0.11152 0.0
O147 O 0.9431 0.77866 0.17087 0.0
O148 O 0.0188 0.88109 0.14001 0.0
O149 O 0.9321 0.86222 0.18372 0.0
O150 O -0.00356 0.76865 0.14128 0.0
O151 O 0.92958 0.8952 0.06995 0.0
O152 O -0.00354 0.82304 0.03832 0.0
O153 O 0.89922 0.78442 0.09865 0.0
Sc154 Sc 0.36244 0.72897 0.34557 0.0
Sc155 Sc 0.41872 0.6664 0.38957 0.0
Sc156 Sc 0.45601 0.73189 0.32904 0.0
O157 O 0.41285 0.70843 0.35435 0.0
C158 C 0.4004 0.75076 0.26828 0.0
C159 C 0.35085 0.64667 0.33414 0.0
C160 C 0.4753 0.64726 0.32465 0.0
C161 C 0.34967 0.69999 0.42775 0.0
C162 C 0.40875 0.79622 0.36588 0.0
C163 C 0.48895 0.71747 0.40846 0.0
O164 O 0.37496 0.75417 0.29218 0.0
O165 O 0.37148 0.63881 0.36203 0.0
O166 O 0.47895 0.68024 0.31343 0.0
O167 O 0.3373 0.70878 0.39623 0.0
O168 O 0.43479 0.78434 0.3453 0.0
O169 O 0.46606 0.69225 0.41803 0.0
O170 O 0.37976 0.77764 0.37258 0.0
O171 O 0.38334 0.69128 0.43158 0.0
O172 O 0.48805 0.73326 0.37749 0.0
O173 O 0.34823 0.67875 0.32015 0.0
O174 O 0.43038 0.73479 0.27585 0.0
O175 O 0.45452 0.63771 0.35137 0.0
Sc176 Sc 0.40241 0.00323 0.3776 0.0
Sc177 Sc 0.36328 0.07645 0.32998 0.0
Sc178 Sc 0.42096 0.01093 0.2854 0.0
O179 O 0.39549 0.031 0.33082 0.0
C180 C 0.48224 0.99247 0.34012 0.0
C181 C 0.4212 0.08635 0.39715 0.0
C182 C 0.42285 0.09596 0.26732 0.0
C183 C 0.32327 0.03648 0.39859 0.0
C184 C 0.39103 0.93924 0.32658 0.0
C185 C 0.3381 0.02539 0.2606 0.0
O186 O 0.45797 0.98492 0.3643 0.0
O187 O 0.39844 0.10122 0.37418 0.0
O188 O 0.43497 0.0635 0.26391 0.0
O189 O 0.34939 0.01379 0.40207 0.0
O190 O 0.41061 0.95465 0.30191 0.0
O191 O 0.32956 0.04896 0.28605 0.0
O192 O 0.3784 0.9567 0.35387 0.0
O193 O 0.32334 0.05988 0.37239 0.0
O194 O 0.36993 0.01134 0.25709 0.0
O195 O 0.42532 0.05161 0.39928 0.0
O196 O 0.47447 0.00918 0.31047 0.0
O197 O 0.39667 0.1045 0.28894 0.0
Sc198 Sc 0.24001 0.1599 0.54011 0.0
Sc199 Sc 0.17187 0.10278 0.58036 0.0
Sc200 Sc 0.23878 0.14646 0.63419 0.0
O201 O 0.21629 0.13618 0.58473 0.0
C202 C 0.30702 0.133 0.58963 0.0
C203 C 0.22531 0.07838 0.5121 0.0
C204 C 0.20766 0.06476 0.65094 0.0
C205 C 0.15606 0.16351 0.51833 0.0
C206 C 0.25392 0.22399 0.59278 0.0
C207 C 0.15506 0.15892 0.64848 0.0
O208 O 0.29396 0.15031 0.5621 0.0
O209 O 0.19854 0.07104 0.53443 0.0
O210 O 0.22542 0.09392 0.65815 0.0
O211 O 0.18939 0.17259 0.51399 0.0
O212 O 0.25884 0.20155 0.61937 0.0
O213 O 0.14464 0.13393 0.62545 0.0
O214 O 0.23921 0.21425 0.56278 0.0
O215 O 0.14528 0.13965 0.54167 0.0
O216 O 0.1883 0.16912 0.6526 0.0
O217 O 0.24283 0.10858 0.51245 0.0
O218 O 0.288 0.12212 0.6166 0.0
O219 O 0.18972 0.06152 0.62088 0.0
Sc220 Sc 0.08375 0.98971 0.78752 0.0
Sc221 Sc 0.13309 0.91525 0.82861 0.0
Sc222 Sc 0.08063 0.97422 0.87973 0.0
O223 O 0.10103 0.96101 0.83131 0.0
C224 C 0.10416 0.04801 0.85062 0.0
C225 C 0.16455 0.96928 0.76394 0.0
C226 C 0.16337 0.94556 0.90186 0.0
C227 C 0.07534 0.90568 0.76323 0.0
C228 C 0.01187 0.00098 0.83174 0.0
C229 C 0.07242 0.89614 0.89075 0.0
O230 O 0.09436 0.04039 0.81758 0.0
O231 O 0.16662 0.93905 0.78248 0.0
O232 O 0.1305 0.95605 0.90854 0.0
O233 O 0.07189 0.94019 0.75746 0.0
O234 O 0.0293 -0.00198 0.86174 0.0
O235 O 0.1042 0.88885 0.87699 0.0
O236 O 0.02613 0.99234 0.80117 0.0
O237 O 0.09484 0.89185 0.78914 0.0
O238 O 0.05439 0.9225 0.87778 0.0
O239 O 0.13787 0.99149 0.76669 0.0
O240 O 0.10549 0.02534 0.87701 0.0
O241 O 0.17248 0.93515 0.86943 0.0
Sc242 Sc 0.23708 0.8326 0.05821 0.0
Sc243 Sc 0.31838 0.87957 0.08109 0.0
Sc244 Sc 0.2689 0.83154 0.14794 0.0
O245 O 0.27454 0.84835 0.09553 0.0
C246 C 0.19139 0.85606 0.13018 0.0
C247 C 0.25407 0.91036 0.026 0.0
C248 C 0.29915 0.91558 0.15747 0.0
C249 C 0.31355 0.82067 0.01725 0.0
C250 C 0.23469 0.76125 0.1051 0.0
C251 C 0.35134 0.82125 0.14061 0.0
O252 O 0.19346 0.84545 0.09667 0.0
O253 O 0.2874 0.91153 0.03796 0.0
O254 O 0.29025 0.8836 0.16935 0.0
O255 O 0.27855 0.81885 0.01796 0.0
O256 O 0.24269 0.77845 0.13472 0.0
O257 O 0.35465 0.85087 0.12142 0.0
O258 O 0.23721 0.776 0.0737 0.0
O259 O 0.33275 0.83914 0.04014 0.0
O260 O 0.32068 0.80549 0.1453 0.0
O261 O 0.23148 0.88624 0.03697 0.0
O262 O 0.21783 0.85673 0.15246 0.0
O263 O 0.30653 0.9208 0.12333 0.0
Sc264 Sc 0.91122 0.49561 0.69528 0.0
Sc265 Sc 0.85929 0.41886 0.67012 0.0
Sc266 Sc 0.91201 0.46413 0.6054 0.0
O267 O 0.89387 0.46001 0.65729 0.0
C268 C 0.89074 0.54283 0.62332 0.0
C269 C 0.83237 0.48322 0.7257 0.0
C270 C 0.82775 0.44049 0.59446 0.0
C271 C 0.91773 0.41638 0.7335 0.0
C272 C 0.98178 0.49743 0.64905 0.0
C273 C 0.91685 0.38207 0.6137 0.0
O274 O 0.90164 0.54019 0.65677 0.0
O275 O 0.83025 0.45008 0.71376 0.0
O276 O 0.8608 0.44194 0.58233 0.0
O277 O 0.92149 0.45146 0.73433 0.0
O278 O 0.96451 0.49017 0.61939 0.0
O279 O 0.88515 0.38189 0.62923 0.0
O280 O 0.96785 0.49196 0.68044 0.0
O281 O 0.8979 0.39932 0.71012 0.0
O282 O 0.93575 0.4113 0.61093 0.0
O283 O 0.85743 0.50517 0.71576 0.0
O284 O 0.88869 0.5164 0.60078 0.0
O285 O 0.82061 0.438 0.62886 0.0
Sc286 Sc 0.77685 0.6656 0.84297 0.0
Sc287 Sc 0.82214 0.61673 0.9114 0.0
Sc288 Sc 0.75333 0.67995 0.93356 0.0
O289 O 0.78382 0.65352 0.89647 0.0
C290 C 0.7533 0.74273 0.87991 0.0
C291 C 0.85967 0.66637 0.84738 0.0
C292 C 0.83254 0.67906 0.97083 0.0
C293 C 0.7941 0.57954 0.83935 0.0
C294 C 0.6988 0.65636 0.8676 0.0
C295 C 0.75677 0.60211 0.97063 0.0
O296 O 0.75407 0.72078 0.85255 0.0
O297 O 0.85981 0.63741 0.86785 0.0
O298 O 0.79873 0.68821 0.97033 0.0
O299 O 0.79486 0.61126 0.82406 0.0
O300 O 0.70579 0.6723 0.89824 0.0
O301 O 0.7881 0.59332 0.95679 0.0
O302 O 0.7228 0.64578 0.84468 0.0
O303 O 0.79916 0.57624 0.87391 0.0
O304 O 0.73922 0.63063 0.96088 0.0
O305 O 0.83112 0.6858 0.84222 0.0
O306 O 0.76514 0.733 0.91104 0.0
O307 O 0.84673 0.65547 0.94903 0.0
Sc308 Sc 0.58192 0.52042 0.10135 0.0
Sc309 Sc 0.62286 0.57845 0.16602 0.0
Sc310 Sc 0.59651 0.48868 0.19028 0.0
O311 O 0.60047 0.52903 0.15274 0.0
C312 C 0.52261 0.47431 0.14749 0.0
C313 C 0.55959 0.60108 0.10794 0.0
C314 C 0.56683 0.5614 0.23057 0.0
C315 C 0.65905 0.5637 0.08912 0.0
C316 C 0.62682 0.44945 0.11748 0.0
C317 C 0.66631 0.52481 0.22215 0.0
O318 O 0.53363 0.48924 0.11773 0.0
O319 O 0.58866 0.60872 0.12616 0.0
O320 O 0.57231 0.52661 0.22957 0.0
O321 O 0.62898 0.54879 0.0787 0.0
O322 O 0.62031 0.45013 0.1521 0.0
O323 O 0.6589 0.55705 0.21014 0.0
O324 O 0.61396 0.47266 0.09507 0.0
O325 O 0.66461 0.57308 0.12277 0.0
O326 O 0.65081 0.49645 0.20959 0.0
O327 O 0.54879 0.56824 0.10381 0.0
O328 O 0.54161 0.47355 0.17657 0.0
O329 O 0.58125 0.58425 0.20783 0.0
Sc330 Sc 0.71997 0.34985 0.34105 0.0
Sc331 Sc 0.6733 0.39281 0.41182 0.0
Sc332 Sc 0.75553 0.34885 0.42957 0.0
O333 O 0.7167 0.36354 0.39424 0.0
C334 C 0.75793 0.27926 0.3794 0.0
C335 C 0.63879 0.34232 0.3484 0.0
C336 C 0.67862 0.32951 0.46923 0.0
C337 C 0.69443 0.43493 0.34073 0.0
C338 C 0.79845 0.37571 0.35692 0.0
C339 C 0.73544 0.41894 0.46961 0.0
O340 O 0.74638 0.29661 0.35106 0.0
O341 O 0.6372 0.37201 0.36733 0.0
O342 O 0.71387 0.33197 0.46975 0.0
O343 O 0.69676 0.40347 0.32465 0.0
O344 O 0.79699 0.36493 0.39046 0.0
O345 O 0.70151 0.41645 0.46073 0.0
O346 O 0.77192 0.37418 0.33464 0.0
O347 O 0.69088 0.43762 0.37579 0.0
O348 O 0.75993 0.4032 0.45081 0.0
O349 O 0.66814 0.32394 0.34599 0.0
O350 O 0.75796 0.29307 0.41142 0.0
O351 O 0.65827 0.34683 0.44626 0.0
Sc352 Sc 0.29318 0.41661 0.01302 0.0
Sc353 Sc 0.32433 0.35725 0.08248 0.0
Sc354 Sc 0.38613 0.40472 0.02758 0.0
O355 O 0.334 0.39261 0.04104 0.0
C356 C 0.35274 0.38934 0.9535 0.0
C357 C 0.25951 0.33772 0.02461 0.0
C358 C 0.39531 0.32061 0.05294 0.0
C359 C 0.26507 0.41978 0.09618 0.0
C360 C 0.34643 0.48056 0.0034 0.0
C361 C 0.39044 0.4103 0.11029 0.0
O362 O 0.32269 0.40517 0.96267 0.0
O363 O 0.27721 0.33071 0.05435 0.0
O364 O 0.40878 0.35258 0.04737 0.0
O365 O 0.26225 0.42835 0.06224 0.0
O366 O 0.37367 0.45851 0.0029 0.0
O367 O 0.37032 0.3814 0.11429 0.0
O368 O 0.31565 0.47111 0.01657 0.0
O369 O 0.28789 0.39621 0.10862 0.0
O370 O 0.39252 0.4282 0.08026 0.0
O371 O 0.26487 0.36629 0.00544 0.0
O372 O 0.37826 0.38078 0.97563 0.0
O373 O 0.36103 0.31602 0.05897 0.0
Sc374 Sc 0.88627 0.08276 0.97539 0.0
Sc375 Sc 0.82656 0.13117 0.9167 0.0
Sc376 Sc 0.79287 0.06612 0.98028 0.0
O377 O 0.83504 0.09361 0.95699 0.0
C378 C 0.84722 0.00378 0.98969 0.0
C379 C 0.89284 0.07677 0.8897 0.0
C380 C 0.76491 0.07055 0.89835 0.0
C381 C 0.89791 0.16812 0.95349 0.0
C382 C 0.8443 0.09096 0.04773 0.0
C383 C 0.76198 0.14818 0.97545 0.0
O384 O 0.87362 0.02653 0.9937 0.0
O385 O 0.86913 0.10249 0.88327 0.0
O386 O 0.76512 0.05615 0.93007 0.0
O387 O 0.90959 0.13674 0.96374 0.0
O388 O 0.81723 0.07373 0.03359 0.0
O389 O 0.78338 0.15981 0.94963 0.0
O390 O 0.87163 0.10148 0.02861 0.0
O391 O 0.86672 0.17094 0.93774 0.0
O392 O 0.76322 0.11561 0.98803 0.0
O393 O 0.90033 0.06448 0.92173 0.0
O394 O 0.81738 0.01298 0.97455 0.0
O395 O 0.78508 0.09779 0.88919 0.0
Sc396 Sc 0.15475 0.5521 0.25735 0.0
Sc397 Sc 0.10801 0.5725 0.17633 0.0
Sc398 Sc 0.15631 0.64001 0.2214 0.0
O399 O 0.13919 0.58792 0.2191 0.0
C400 C 0.13242 0.62656 0.29995 0.0
C401 C 0.07841 0.51875 0.24104 0.0
C402 C 0.07195 0.64721 0.19531 0.0
C403 C 0.1677 0.51062 0.18102 0.0
C404 C 0.22529 0.59877 0.25872 0.0
C405 C 0.16576 0.62976 0.14111 0.0
O406 O 0.14275 0.59284 0.29949 0.0
O407 O 0.07871 0.52814 0.207 0.0
O408 O 0.1046 0.66079 0.19657 0.0
O409 O 0.16758 0.51066 0.21625 0.0
O410 O 0.20793 0.6279 0.24976 0.0
O411 O 0.13401 0.61432 0.13945 0.0
O412 O 0.21146 0.567 0.25563 0.0
O413 O 0.14991 0.53359 0.16119 0.0
O414 O 0.18329 0.63102 0.17097 0.0
O415 O 0.10051 0.53267 0.26402 0.0
O416 O 0.13151 0.64756 0.27231 0.0
O417 O 0.06671 0.61244 0.19304 0.0
Sc418 Sc 0.69868 0.90057 0.50965 0.0
Sc419 Sc 0.66582 0.8643 0.42869 0.0
Sc420 Sc 0.60528 0.90011 0.49443 0.0
O421 O 0.65604 0.88927 0.4766 0.0
C422 C 0.64489 0.85252 0.5556 0.0
C423 C 0.73337 0.83321 0.47102 0.0
C424 C 0.59408 0.82024 0.45778 0.0
C425 C 0.72224 0.93374 0.43636 0.0
C426 C 0.64608 0.96378 0.53556 0.0
C427 C 0.60048 0.92188 0.40991 0.0
O428 O 0.67813 0.85711 0.54464 0.0
O429 O 0.70382 0.82423 0.45442 0.0
O430 O 0.58444 0.84702 0.47811 0.0
O431 O 0.71633 0.94059 0.47045 0.0
O432 O 0.62096 0.95526 0.51272 0.0
O433 O 0.6281 0.90216 0.40009 0.0
O434 O 0.67178 0.94164 0.54332 0.0
O435 O 0.7099 0.90511 0.41932 0.0
O436 O 0.58913 0.92381 0.44305 0.0
O437 O 0.73745 0.86537 0.48305 0.0
O438 O 0.61877 0.87419 0.54593 0.0
O439 O 0.62219 0.82283 0.43654 0.0
Sc440 Sc 0.33482 0.35706 0.72604 0.0
Sc441 Sc 0.3798 0.41726 0.66496 0.0
Sc442 Sc 0.32615 0.45141 0.73888 0.0
O443 O 0.34736 0.40876 0.70992 0.0
C444 C 0.2599 0.39947 0.74953 0.0
C445 C 0.32321 0.35185 0.6415 0.0
C446 C 0.31882 0.47918 0.65619 0.0
C447 C 0.41715 0.34425 0.69367 0.0
C448 C 0.35206 0.39282 0.79975 0.0
C449 C 0.40605 0.48157 0.72183 0.0
O450 O 0.28022 0.37093 0.74752 0.0
O451 O 0.34935 0.37451 0.63384 0.0
O452 O 0.31167 0.48167 0.69039 0.0
O453 O 0.3874 0.33433 0.70936 0.0
O454 O 0.33866 0.42387 0.7902 0.0
O455 O 0.41194 0.46195 0.69282 0.0
O456 O 0.35763 0.36611 0.77818 0.0
O457 O 0.42103 0.37648 0.68013 0.0
O458 O 0.3775 0.47834 0.74151 0.0
O459 O 0.31175 0.34582 0.67399 0.0
O460 O 0.27105 0.43102 0.73994 0.0
O461 O 0.34184 0.45661 0.64273 0.0
Sc462 Sc 0.0979 0.59561 0.51477 0.0
Sc463 Sc 0.1659 0.63506 0.57164 0.0
Sc464 Sc 0.19069 0.59109 0.48903 0.0
O465 O 0.15169 0.60703 0.52537 0.0
C466 C 0.13554 0.52452 0.47782 0.0
C467 C 0.10216 0.57654 0.59771 0.0
C468 C 0.22473 0.56969 0.56649 0.0
C469 C 0.09244 0.67717 0.55004 0.0
C470 C 0.1278 0.63095 0.44237 0.0
C471 C 0.22826 0.66547 0.5164 0.0
O472 O 0.10785 0.54109 0.49141 0.0
O473 O 0.12634 0.60151 0.60484 0.0
O474 O 0.22066 0.56332 0.53212 0.0
O475 O 0.07831 0.64804 0.5364 0.0
O476 O 0.16101 0.61999 0.44659 0.0
O477 O 0.20855 0.67008 0.54529 0.0
O478 O 0.10167 0.622 0.46351 0.0
O479 O 0.12565 0.67822 0.56127 0.0
O480 O 0.22389 0.63854 0.49496 0.0
O481 O 0.09123 0.5693 0.56554 0.0
O482 O 0.16682 0.53929 0.47536 0.0
O483 O 0.20798 0.59522 0.58391 0.0
Sc484 Sc 0.64796 0.95164 0.73692 0.0
Sc485 Sc 0.60098 0.92095 0.81576 0.0
Sc486 Sc 0.63122 0.85967 0.74924 0.0
O487 O 0.62697 0.91093 0.76824 0.0
C488 C 0.61717 0.89558 0.6777 0.0
C489 C 0.57312 0.98533 0.75948 0.0
C490 C 0.55171 0.85358 0.78639 0.0
C491 C 0.66312 0.98155 0.81762 0.0
C492 C 0.70943 0.89572 0.72735 0.0
C493 C 0.65481 0.8513 0.83089 0.0
O494 O 0.63771 0.92265 0.68587 0.0
O495 O 0.57268 0.96973 0.79144 0.0
O496 O 0.57996 0.83953 0.77138 0.0
O497 O 0.66247 0.98584 0.78292 0.0
O498 O 0.6845 0.87107 0.72375 0.0
O499 O 0.63137 0.87521 0.84258 0.0
O500 O 0.70197 0.92767 0.73936 0.0
O501 O 0.64543 0.95616 0.83419 0.0
O502 O 0.65958 0.84363 0.79712 0.0
O503 O 0.59533 0.97644 0.73392 0.0
O504 O 0.60147 0.87688 0.70242 0.0
O505 O 0.55361 0.88522 0.80191 0.0
Sc506 Sc 0.83011 0.03435 0.26716 0.0
Sc507 Sc 0.88509 0.07828 0.33105 0.0
Sc508 Sc 0.85145 0.12685 0.25652 0.0
O509 O 0.85521 0.0804 0.28494 0.0
C510 C 0.86508 0.06417 0.19627 0.0
C511 C 0.90574 0.00563 0.29047 0.0
C512 C 0.92982 0.14134 0.28622 0.0
C513 C 0.8149 0.02733 0.34847 0.0
C514 C 0.77312 0.09467 0.24009 0.0
C515 C 0.83815 0.15067 0.3397 0.0
O516 O 0.86087 0.03627 0.21704 0.0
O517 O 0.91923 0.03546 0.30387 0.0
O518 O 0.90976 0.13806 0.25783 0.0
O519 O 0.79985 0.03217 0.31726 0.0
O520 O 0.79268 0.12127 0.25177 0.0
O521 O 0.84989 0.12092 0.35479 0.0
O522 O 0.78462 0.06165 0.23989 0.0
O523 O 0.84818 0.03684 0.35524 0.0
O524 O 0.84186 0.15815 0.30561 0.0
O525 O 0.87138 2e-05 0.29161 0.0
O526 O 0.85969 0.0973 0.2065 0.0
O527 O 0.92387 0.1222 0.3152 0.0
C528 C 0.88351 0.39897 0.38519 0.0
C529 C 0.90239 0.36871 0.36879 0.0
C530 C 0.85416 0.36185 0.32309 0.0
C531 C 0.83393 0.38805 0.34335 0.0
N532 N 0.83475 0.44401 0.37769 0.0
N533 N 0.91301 0.33178 0.31419 0.0
C534 C 0.85169 0.41203 0.36765 0.0
C535 C 0.89023 0.35348 0.33487 0.0
N536 N 0.89341 0.4125 0.41898 0.0
N537 N 0.83755 0.34303 0.29512 0.0
H538 H 0.94014 0.32619 0.32179 0.0
H539 H 0.90617 0.32221 0.28802 0.0
H540 H 0.81164 0.35061 0.28528 0.0
H541 H 0.84899 0.31998 0.28237 0.0
H542 H 0.87824 0.43256 0.43287 0.0
H543 H 0.91429 0.40113 0.43507 0.0
H544 H 0.84708 0.46368 0.39463 0.0
H545 H 0.80961 0.45166 0.36597 0.0
C546 C 0.90056 0.59889 0.58579 0.0
C547 C 0.87853 0.57844 0.61064 0.0
C548 C 0.84696 0.63287 0.63197 0.0
C549 C 0.87193 0.65384 0.61027 0.0
N550 N 0.9109 0.65828 0.55681 0.0
N551 N 0.82181 0.57225 0.64425 0.0
C552 C 0.89443 0.63712 0.58332 0.0
C553 C 0.84825 0.59428 0.6289 0.0
N554 N 0.92898 0.58253 0.56724 0.0
N555 N 0.825 0.6491 0.65799 0.0
H556 H 0.82279 0.54352 0.64222 0.0
H557 H 0.79739 0.58248 0.65536 0.0
H558 H 0.82252 0.67746 0.66141 0.0
H559 H 0.81043 0.63415 0.67776 0.0
H560 H 0.94855 0.59723 0.55219 0.0
H561 H 0.9341 0.55427 0.56829 0.0
H562 H 0.92587 0.64735 0.53487 0.0
H563 H 0.90638 0.68669 0.55512 0.0
C564 C 0.64356 0.61898 0.87138 0.0
C565 C 0.66063 0.65113 0.85827 0.0
C566 C 0.60151 0.68058 0.84877 0.0
C567 C 0.58563 0.65215 0.87037 0.0
N568 N 0.59214 0.59574 0.9061 0.0
N569 N 0.65785 0.71174 0.83124 0.0
C570 C 0.60651 0.62117 0.88214 0.0
C571 C 0.64015 0.68162 0.84539 0.0
N572 N 0.66319 0.58705 0.87467 0.0
N573 N 0.57971 0.70589 0.83131 0.0
H574 H 0.68617 0.71197 0.82642 0.0
H575 H 0.64476 0.73662 0.82544 0.0
H576 H 0.55102 0.70503 0.83253 0.0
H577 H 0.5898 0.72558 0.81296 0.0
H578 H 0.65107 0.56179 0.88112 0.0
H579 H 0.69089 0.58533 0.86709 0.0
H580 H 0.60749 0.57426 0.9173 0.0
H581 H 0.56609 0.59793 0.91794 0.0
C582 C 0.66028 0.36098 0.134 0.0
C583 C 0.63402 0.34358 0.11053 0.0
C584 C 0.62958 0.39867 0.07301 0.0
C585 C 0.64633 0.41752 0.10245 0.0
N586 N 0.69461 0.41724 0.14676 0.0
N587 N 0.59956 0.34213 0.05365 0.0
C588 C 0.66852 0.39833 0.12743 0.0
C589 C 0.62106 0.36103 0.07811 0.0
N590 N 0.6741 0.34333 0.16433 0.0
N591 N 0.62185 0.41704 0.04112 0.0
H592 H 0.59426 0.31394 0.05633 0.0
H593 H 0.58635 0.3544 0.03134 0.0
H594 H 0.63042 0.44425 0.03709 0.0
H595 H 0.61072 0.40457 0.01781 0.0
H596 H 0.69017 0.35629 0.18422 0.0
H597 H 0.66812 0.31606 0.171 0.0
H598 H 0.71344 0.40486 0.16451 0.0
H599 H 0.69888 0.44539 0.14213 0.0
C600 C 0.40371 0.12158 0.55829 0.0
C601 C 0.42265 0.13132 0.5909 0.0
C602 C 0.36572 0.14031 0.62383 0.0
C603 C 0.34653 0.1286 0.59175 0.0
N604 N 0.3471 0.0986 0.5323 0.0
N605 N 0.42311 0.13827 0.65704 0.0
C606 C 0.36549 0.11609 0.56013 0.0
C607 C 0.40413 0.13632 0.62462 0.0
N608 N 0.42201 0.11848 0.52555 0.0
N609 N 0.34819 0.15846 0.6519 0.0
H610 H 0.45172 0.1365 0.65835 0.0
H611 H 0.41009 0.13825 0.68269 0.0
H612 H 0.32039 0.16544 0.65151 0.0
H613 H 0.36228 0.17054 0.67383 0.0
H614 H 0.40863 0.11705 0.50019 0.0
H615 H 0.45055 0.11975 0.52363 0.0
H616 H 0.3603 0.08717 0.50952 0.0
H617 H 0.31908 0.09238 0.53375 0.0
C618 C 0.09342 0.13813 0.89838 0.0
C619 C 0.11918 0.15877 0.87847 0.0
C620 C 0.14214 0.10396 0.84807 0.0
C621 C 0.11027 0.0857 0.86079 0.0
N622 N 0.05386 0.08513 0.89691 0.0
N623 N 0.17058 0.16278 0.83602 0.0
C624 C 0.08566 0.10235 0.88629 0.0
C625 C 0.14514 0.14203 0.85456 0.0
N626 N 0.07545 0.15374 0.92752 0.0
N627 N 0.16938 0.08492 0.83037 0.0
H628 H 0.17524 0.19055 0.84161 0.0
H629 H 0.18628 0.15261 0.8142 0.0
H630 H 0.16751 0.05677 0.82471 0.0
H631 H 0.19504 0.09635 0.82443 0.0
H632 H 0.05781 0.13914 0.9449 0.0
H633 H 0.08165 0.1805 0.93618 0.0
H634 H 0.03338 0.09801 0.91239 0.0
H635 H 0.04627 0.05912 0.88758 0.0
C636 C 0.09824 0.84246 0.1692 0.0
C637 C 0.08058 0.86826 0.1463 0.0
C638 C 0.13862 0.89727 0.13114 0.0
C639 C 0.1558 0.86537 0.14479 0.0
N640 N 0.15473 0.80967 0.18159 0.0
N641 N 0.08206 0.92333 0.1083 0.0
C642 C 0.13668 0.83909 0.16645 0.0
C643 C 0.10002 0.89757 0.12915 0.0
N644 N 0.07782 0.82065 0.19216 0.0
N645 N 0.15945 0.92636 0.11932 0.0
H646 H 0.0535 0.92516 0.10674 0.0
H647 H 0.09556 0.94214 0.09127 0.0
H648 H 0.18818 0.92602 0.12075 0.0
H649 H 0.14839 0.95174 0.11169 0.0
H650 H 0.08921 0.80266 0.2114 0.0
H651 H 0.04925 0.82338 0.19402 0.0
H652 H 0.14142 0.78731 0.19375 0.0
H653 H 0.18326 0.80672 0.18063 0.0
C654 C 0.43696 0.85615 0.35704 0.0
C655 C 0.40788 0.83612 0.37275 0.0
C656 C 0.36447 0.88298 0.35367 0.0
C657 C 0.39289 0.89932 0.33208 0.0
N658 N 0.45231 0.89065 0.30294 0.0
N659 N 0.34947 0.84002 0.40293 0.0
C660 C 0.42832 0.88317 0.33091 0.0
C661 C 0.37309 0.85267 0.37652 0.0
N662 N 0.47245 0.84701 0.365 0.0
N663 N 0.32944 0.89638 0.35159 0.0
H664 H 0.35762 0.81954 0.42149 0.0
H665 H 0.32416 0.85211 0.40891 0.0
H666 H 0.32285 0.91835 0.33431 0.0
H667 H 0.30686 0.88412 0.3644 0.0
H668 H 0.49481 0.86224 0.35525 0.0
H669 H 0.47852 0.82639 0.38423 0.0
H670 H 0.4771 0.87645 0.29998 0.0
H671 H 0.44484 0.90594 0.27979 0.0
C672 C 0.33323 0.36045 0.89599 0.0
C673 C 0.35875 0.38293 0.91472 0.0
C674 C 0.38699 0.40155 0.85699 0.0
C675 C 0.35687 0.38556 0.8386 0.0
N676 N 0.30052 0.34976 0.83928 0.0
N677 N 0.40881 0.42727 0.91409 0.0
C678 C 0.32998 0.36442 0.85758 0.0
C679 C 0.38593 0.40364 0.89569 0.0
N680 N 0.31226 0.33556 0.91511 0.0
N681 N 0.41655 0.4143 0.83748 0.0
H682 H 0.40909 0.42998 0.94268 0.0
H683 H 0.42578 0.44622 0.90069 0.0
H684 H 0.41783 0.41287 0.80875 0.0
H685 H 0.44107 0.42238 0.84998 0.0
H686 H 0.29528 0.31615 0.90251 0.0
H687 H 0.31463 0.33204 0.94359 0.0
H688 H 0.27769 0.33847 0.85255 0.0
H689 H 0.29779 0.35079 0.81076 0.0
C690 C 0.82142 0.07013 0.10883 0.0
C691 C 0.84811 0.08995 0.08837 0.0
C692 C 0.89267 0.08142 0.13791 0.0
C693 C 0.86667 0.05924 0.15653 0.0
N694 N 0.8108 0.02339 0.15484 0.0
N695 N 0.90239 0.12816 0.09123 0.0
C696 C 0.83268 0.05025 0.14008 0.0
C697 C 0.88223 0.09939 0.10489 0.0
N698 N 0.78495 0.07283 0.10011 0.0
N699 N 0.92685 0.08585 0.15286 0.0
H700 H 0.89212 0.14563 0.07081 0.0
H701 H 0.92658 0.13782 0.1032 0.0
H702 H 0.93414 0.07292 0.17753 0.0
H703 H 0.94845 0.09935 0.13959 0.0
H704 H 0.76405 0.06141 0.11622 0.0
H705 H 0.7755 0.09087 0.0798 0.0
H706 H 0.78653 0.01447 0.14237 0.0
H707 H 0.8192 0.00696 0.17686 0.0
C708 C 0.08984 0.63593 0.35171 0.0
C709 C 0.1241 0.64339 0.33486 0.0
C710 C 0.14801 0.66979 0.39117 0.0
C711 C 0.1187 0.65215 0.40926 0.0
N712 N 0.05324 0.64145 0.40737 0.0
N713 N 0.18313 0.67454 0.33464 0.0
C714 C 0.08638 0.64306 0.3897 0.0
C715 C 0.152 0.66388 0.35303 0.0
N716 N 0.06191 0.6203 0.33189 0.0
N717 N 0.17244 0.69003 0.41132 0.0
H718 H 0.18646 0.67103 0.30631 0.0
H719 H 0.20601 0.68615 0.3474 0.0
H720 H 0.16865 0.69371 0.43966 0.0
H721 H 0.19415 0.70502 0.40002 0.0
H722 H 0.03768 0.61043 0.34367 0.0
H723 H 0.06365 0.61628 0.30342 0.0
H724 H 0.02837 0.63653 0.394 0.0
H725 H 0.05027 0.6494 0.43483 0.0
C726 C 0.66362 0.83155 0.61457 0.0
C727 C 0.63771 0.82706 0.58698 0.0
C728 C 0.59313 0.85658 0.62656 0.0
C729 C 0.62346 0.87578 0.64316 0.0
N730 N 0.69105 0.8819 0.64556 0.0
N731 N 0.5755 0.80644 0.58462 0.0
C732 C 0.66009 0.86356 0.63533 0.0
C733 C 0.60129 0.82884 0.59989 0.0
N734 N 0.68437 0.80296 0.62667 0.0
N735 N 0.5577 0.8658 0.63507 0.0
H736 H 0.58305 0.78736 0.56436 0.0
H737 H 0.54818 0.80546 0.59331 0.0
H738 H 0.55136 0.88736 0.65306 0.0
H739 H 0.53489 0.85371 0.62258 0.0
H740 H 0.70138 0.8056 0.64976 0.0
H741 H 0.68225 0.7769 0.61462 0.0
H742 H 0.7171 0.87127 0.6394 0.0
H743 H 0.69082 0.909 0.65488 0.0
C744 C 0.13307 0.47826 0.42622 0.0
C745 C 0.13211 0.4859 0.46464 0.0
C746 C 0.12402 0.42009 0.47786 0.0
C747 C 0.12159 0.41294 0.43943 0.0
N748 N 0.13949 0.43188 0.37831 0.0
N749 N 0.13906 0.46331 0.52673 0.0
C750 C 0.13159 0.44094 0.414 0.0
C751 C 0.13161 0.45649 0.49044 0.0
N752 N 0.13393 0.5067 0.40142 0.0
N753 N 0.11717 0.39211 0.50215 0.0
H754 H 0.14493 0.48969 0.53658 0.0
H755 H 0.14253 0.44267 0.54639 0.0
H756 H 0.11384 0.36494 0.49329 0.0
H757 H 0.11362 0.39589 0.5304 0.0
H758 H 0.13089 0.50315 0.37309 0.0
H759 H 0.13505 0.53435 0.40934 0.0
H760 H 0.14913 0.45073 0.3589 0.0
H761 H 0.14079 0.40464 0.36932 0.0
C762 C 0.80623 0.89707 0.68245 0.0
C763 C 0.8131 0.85849 0.68187 0.0
C764 C 0.75882 0.84898 0.72044 0.0
C765 C 0.74768 0.88594 0.71545 0.0
N766 N 0.75917 0.94432 0.68429 0.0
N767 N 0.78468 0.79804 0.68799 0.0
C768 C 0.77096 0.91008 0.69455 0.0
C769 C 0.78614 0.83447 0.69727 0.0
N770 N 0.83317 0.92135 0.67245 0.0
N771 N 0.74345 0.8274 0.74722 0.0
H772 H 0.80037 0.78705 0.66671 0.0
H773 H 0.76385 0.78052 0.69736 0.0
H774 H 0.7249 0.83777 0.76654 0.0
H775 H 0.75282 0.80076 0.75278 0.0
H776 H 0.83047 0.94978 0.6758 0.0
H777 H 0.85933 0.91296 0.66411 0.0
H778 H 0.77396 0.961 0.66611 0.0
H779 H 0.73324 0.95471 0.6906 0.0
C780 C 0.35451 0.54389 0.92067 0.0
C781 C 0.36834 0.57631 0.93735 0.0
C782 C 0.36065 0.54866 -0.00122 0.0
C783 C 0.34876 0.51553 0.98195 0.0
N784 N 0.32032 0.48719 0.92895 0.0
N785 N 0.37237 0.61429 0.99127 0.0
C786 C 0.34112 0.51493 0.94348 0.0
C787 C 0.36714 0.58022 0.97625 0.0
N788 N 0.35598 0.53993 0.88324 0.0
N789 N 0.36693 0.54958 0.0359 0.0
H790 H 0.3765 0.63751 0.97473 0.0
H791 H 0.36896 0.61998 0.01922 0.0
H792 H 0.36119 0.5272 0.05312 0.0
H793 H 0.3794 0.57174 0.04922 0.0
H794 H 0.351 0.515 0.86985 0.0
H795 H 0.36408 0.56128 0.8657 0.0
H796 H 0.31191 0.48644 0.9015 0.0
H797 H 0.30742 0.46768 0.94556 0.0
C798 C 0.71088 0.15218 0.1824 0.0
C799 C 0.6753 0.13653 0.18837 0.0
C800 C 0.70391 0.08979 0.22843 0.0
C801 C 0.73918 0.10431 0.21944 0.0
N802 N 0.77541 0.13882 0.17565 0.0
N803 N 0.63877 0.08657 0.21264 0.0
C804 C 0.7423 0.13188 0.19224 0.0
C805 C 0.67211 0.10372 0.20964 0.0
N806 N 0.71538 0.18721 0.16935 0.0
N807 N 0.70054 0.06435 0.25601 0.0
H808 H 0.61506 0.0968 0.20004 0.0
H809 H 0.6353 0.06093 0.22517 0.0
H810 H 0.72317 0.0539 0.27028 0.0
H811 H 0.67527 0.05556 0.2664 0.0
H812 H 0.74101 0.20015 0.16806 0.0
H813 H 0.69385 0.20498 0.1639 0.0
H814 H 0.77834 0.15712 0.15362 0.0
H815 H 0.7988 0.12303 0.18088 0.0
C816 C 0.6617 0.03146 0.53197 0.0
C817 C 0.64721 0.00128 0.5525 0.0
C818 C 0.63783 0.04242 0.6057 0.0
C819 C 0.64481 0.07324 0.58268 0.0
N820 N 0.66969 0.09809 0.52694 0.0
N821 N 0.62359 0.97693 0.60974 0.0
C822 C 0.65976 0.06777 0.54701 0.0
C823 C 0.63654 0.00633 0.58993 0.0
N824 N 0.67716 0.02527 0.49814 0.0
N825 N 0.63183 0.04807 0.64245 0.0
H826 H 0.6227 0.95018 0.59916 0.0
H827 H 0.61176 0.97916 0.63579 0.0
H828 H 0.6339 0.07421 0.65427 0.0
H829 H 0.62852 0.02699 0.66167 0.0
H830 H 0.69086 0.04522 0.48273 0.0
H831 H 0.67788 -0.00076 0.48603 0.0
H832 H 0.67703 0.09763 0.4992 0.0
H833 H 0.66997 0.12437 0.53874 0.0
C834 C 0.19272 0.38248 0.74964 0.0
C835 C 0.22366 0.39678 0.76846 0.0
C836 C 0.18973 0.39502 0.82726 0.0
C837 C 0.15986 0.37772 0.80899 0.0
N838 N 0.12829 0.36463 0.75226 0.0
N839 N 0.24795 0.42743 0.82236 0.0
C840 C 0.15976 0.37539 0.76979 0.0
C841 C 0.2208 0.40686 0.80631 0.0
N842 N 0.19547 0.37424 0.71294 0.0
N843 N 0.18983 0.39734 0.86487 0.0
H844 H 0.27132 0.43618 0.80819 0.0
H845 H 0.2459 0.43865 0.84871 0.0
H846 H 0.16684 0.39121 0.88094 0.0
H847 H 0.21304 0.40408 0.88031 0.0
H848 H 0.1755 0.35983 0.69824 0.0
H849 H 0.21879 0.38057 0.6973 0.0
H850 H 0.12484 0.36505 0.72377 0.0
H851 H 0.10453 0.35758 0.7668 0.0
C852 C 0.8788 0.90699 0.01448 0.0
C853 C 0.86968 0.90658 0.05278 0.0
C854 C 0.83271 0.9624 0.04349 0.0
C855 C 0.84947 0.96729 0.00828 0.0
N856 N 0.88628 0.94341 0.95865 0.0
N857 N 0.83592 0.93312 0.10355 0.0
C858 C 0.8713 0.93894 0.99299 0.0
C859 C 0.84514 0.93346 0.06702 0.0
N860 N 0.89634 0.87729 -0.00064 0.0
N861 N 0.80515 0.98554 0.05454 0.0
H862 H 0.84245 0.91142 0.12115 0.0
H863 H 0.82283 0.95496 0.11678 0.0
H864 H 0.7951 0.00673 0.038 0.0
H865 H 0.78962 0.98143 0.07835 0.0
H866 H 0.90091 0.8741 0.97118 0.0
H867 H 0.90416 0.85451 0.01503 0.0
H868 H 0.90617 0.92597 0.94753 0.0
H869 H 0.87988 0.96582 0.94174 0.0
C870 C 0.29057 0.61451 0.33851 0.0
C871 C 0.32415 0.6198 0.31937 0.0
C872 C 0.29421 0.60532 0.26057 0.0
C873 C 0.26022 0.60207 0.27943 0.0
N874 N 0.22825 0.59113 0.33699 0.0
N875 N 0.36091 0.60879 0.26567 0.0
C876 C 0.25916 0.60244 0.31867 0.0
C877 C 0.32686 0.61109 0.28141 0.0
N878 N 0.28803 0.6235 0.37504 0.0
N879 N 0.29506 0.60399 0.22291 0.0
H880 H 0.38469 0.61159 0.28156 0.0
H881 H 0.36559 0.60052 0.23858 0.0
H882 H 0.27162 0.59884 0.2071 0.0
H883 H 0.31845 0.6098 0.20731 0.0
H884 H 0.26312 0.62563 0.38918 0.0
H885 H 0.31088 0.63052 0.39093 0.0
H886 H 0.22697 0.58784 0.36551 0.0
H887 H 0.20502 0.58134 0.32347 0.0
C888 C 0.45869 0.14482 0.41823 0.0
C889 C 0.44629 0.10753 0.423 0.0
C890 C 0.49954 0.09645 0.46194 0.0
C891 C 0.50631 0.13432 0.46618 0.0
N892 N 0.4946 0.19587 0.44328 0.0
N893 N 0.44787 0.05659 0.46692 0.0
C894 C 0.48667 0.15912 0.44267 0.0
C895 C 0.46467 0.08581 0.45008 0.0
N896 N 0.44486 0.16646 0.39077 0.0
N897 N 0.5246 0.07078 0.4731 0.0
H898 H 0.41982 0.05129 0.46379 0.0
H899 H 0.46064 0.04153 0.48788 0.0
H900 H 0.55118 0.0783 0.48117 0.0
H901 H 0.51974 0.04251 0.47037 0.0
H902 H 0.45646 0.19169 0.38336 0.0
H903 H 0.42281 0.15898 0.37424 0.0
H904 H 0.47772 0.2158 0.43136 0.0
H905 H 0.51848 0.20627 0.45531 0.0
C906 C 0.11875 0.15654 0.70699 0.0
C907 C 0.12891 0.17615 0.67472 0.0
C908 C 0.11807 0.23513 0.70622 0.0
C909 C 0.10977 0.21557 0.73907 0.0
N910 N 0.09167 0.15843 0.76811 0.0
N911 N 0.12832 0.23238 0.63995 0.0
C912 C 0.10665 0.17645 0.73857 0.0
C913 C 0.12499 0.21502 0.67321 0.0
N914 N 0.1228 0.11908 0.70815 0.0
N915 N 0.12086 0.27273 0.70701 0.0
H916 H 0.1327 0.21757 0.61567 0.0
H917 H 0.1234 0.26036 0.63586 0.0
H918 H 0.11516 0.28823 0.73057 0.0
H919 H 0.13072 0.28847 0.68509 0.0
H920 H 0.12096 0.10357 0.73228 0.0
H921 H 0.12981 0.10352 0.68501 0.0
H922 H 0.08565 0.13035 0.76836 0.0
H923 H 0.08197 0.17226 0.79128 0.0
C924 C 0.0644 0.84671 0.94114 0.0
C925 C 0.0604 0.88352 0.92836 0.0
C926 C 0.01754 0.89587 0.9789 0.0
C927 C 0.02618 0.86193 0.99533 0.0
N928 N 0.06413 0.80691 0.99496 0.0
N929 N 0.04605 0.94608 0.94842 0.0
C930 C 0.05138 0.83761 0.97731 0.0
C931 C 0.04053 0.90903 0.95093 0.0
N932 N 0.07939 0.82033 0.91892 0.0
N933 N 0.98774 0.91602 0.98999 0.0
H934 H 0.06867 0.95679 0.93485 0.0
H935 H 0.03294 0.96503 0.96566 0.0
H936 H 0.96891 0.90644 0.00948 0.0
H937 H 0.97966 0.9401 0.97642 0.0
H938 H 0.07968 0.79245 0.92596 0.0
H939 H 0.08848 0.82578 0.8922 0.0
H940 H 0.08498 0.79036 0.98416 0.0
H941 H 0.05661 0.80004 0.02186 0.0
C942 C 0.38756 0.76844 0.16482 0.0
C943 C 0.38107 0.80703 0.16501 0.0
C944 C 0.39424 0.80934 0.23111 0.0
C945 C 0.39685 0.77011 0.232 0.0
N946 N 0.40342 0.71275 0.19886 0.0
N947 N 0.39279 0.86522 0.19405 0.0
C948 C 0.39651 0.74982 0.19841 0.0
C949 C 0.38945 0.8278 0.19679 0.0
N950 N 0.38291 0.74976 0.13246 0.0
N951 N 0.39511 0.82903 0.26318 0.0
H952 H 0.39052 0.879 0.16892 0.0
H953 H 0.40175 0.88204 0.21552 0.0
H954 H 0.40149 0.81731 0.28857 0.0
H955 H 0.38745 0.85664 0.26483 0.0
H956 H 0.3831 0.72119 0.12992 0.0
H957 H 0.37852 0.76377 0.10769 0.0
H958 H 0.40644 0.69668 0.1753 0.0
H959 H 0.40757 0.6979 0.22312 0.0
C960 C 0.92233 0.33559 0.52483 0.0
C961 C 0.96136 0.33566 0.52108 0.0
C962 C 0.96803 0.34582 0.58714 0.0
C963 C 0.92948 0.3513 0.5899 0.0
N964 N 0.86993 0.33428 0.56662 0.0
N965 N 0.0214 0.33387 0.54959 0.0
C966 C 0.90654 0.34025 0.56045 0.0
C967 C 0.98413 0.33791 0.55261 0.0
N968 N 0.90045 0.3335 0.49422 0.0
N969 N 0.99013 0.34998 0.61713 0.0
H970 H 0.03441 0.32775 0.52463 0.0
H971 H 0.03893 0.33604 0.57229 0.0
H972 H 0.97995 0.35551 0.64352 0.0
H973 H 0.97995 0.35551 0.64352 0.0
H974 H 0.87211 0.33782 0.49478 0.0
H975 H 0.91086 0.32985 0.46765 0.0
H976 H 0.85199 0.32403 0.54673 0.0
H977 H 0.85858 0.33506 0.59303 0.0
C978 C 0.90092 0.71338 0.8224 0.0
C979 C 0.8907 0.67578 0.82268 0.0
C980 C 0.90604 0.67132 0.75704 0.0
C981 C 0.90661 0.71046 0.75532 0.0
N982 N 0.90631 0.76937 0.78613 0.0
N983 N 0.88866 0.61692 0.79216 0.0
C984 C 0.90548 0.73174 0.78808 0.0
C985 C 0.89607 0.65384 0.79078 0.0
N986 N 0.90379 0.73158 0.85521 0.0
N987 N 0.91438 0.65109 0.72632 0.0
H988 H 0.88385 0.60313 0.81693 0.0
H989 H 0.88667 0.60011 0.76899 0.0
H990 H 0.92115 0.66321 0.70111 0.0
H991 H 0.91744 0.62254 0.72639 0.0
H992 H 0.91326 0.75858 0.85767 0.0
H993 H 0.89963 0.71792 0.88027 0.0
H994 H 0.90208 0.78654 0.80874 0.0
H995 H 0.90902 0.78357 0.76124 0.0
C996 C 0.50252 0.62426 0.07724 0.0
C997 C 0.54085 0.62884 0.08404 0.0
C998 C 0.54915 0.65503 0.02251 0.0
C999 C 0.51171 0.64721 0.01457 0.0
N1000 N 0.45041 0.6352 0.03677 0.0
N1001 N 0.59507 0.66462 0.06999 0.0
C1002 C 0.48751 0.63563 0.04291 0.0
C1003 C 0.5624 0.64967 0.05897 0.0
N1004 N 0.48111 0.60703 0.10299 0.0
N1005 N 0.57238 0.66628 0.995 0.0
H1006 H 0.60376 0.66398 0.09734 0.0
H1007 H 0.6109 0.68192 0.05336 0.0
H1008 H 0.56349 0.6714 0.96815 0.0
H1009 H 0.60082 0.66808 -0.00177 0.0
H1010 H 0.45419 0.59833 0.09838 0.0
H1011 H 0.49128 0.60025 0.12893 0.0
H1012 H 0.43089 0.6303 0.05725 0.0
H1013 H 0.43897 0.64265 0.01149 0.0
C1014 C 0.59832 0.29446 0.32258 0.0
C1015 C 0.6099 0.33173 0.3216 0.0
C1016 C 0.59665 0.33429 0.25536 0.0
C1017 C 0.59342 0.29525 0.25527 0.0
N1018 N 0.58698 0.23795 0.28828 0.0
N1019 N 0.6151 0.38928 0.28882 0.0
C1020 C 0.5922 0.2753 0.28888 0.0
C1021 C 0.60647 0.3526 0.28866 0.0
N1022 N 0.59458 0.27753 0.35603 0.0
N1023 N 0.59043 0.35365 0.22358 0.0
H1024 H 0.61913 0.40404 0.31312 0.0
H1025 H 0.61867 0.4051 0.26512 0.0
H1026 H 0.58355 0.34091 0.19875 0.0
H1027 H 0.58924 0.38229 0.2222 0.0
H1028 H 0.58428 0.25098 0.35962 0.0
H1029 H 0.59914 0.29179 0.38066 0.0
H1030 H 0.58919 0.22107 0.31138 0.0
H1031 H 0.58171 0.22343 0.26401 0.0
C1032 C 0.48494 0.4165 0.14721 0.0
C1033 C 0.48649 0.45567 0.14824 0.0
C1034 C 0.41923 0.45867 0.14742 0.0
C1035 C 0.4183 0.4209 0.13792 0.0
N1036 N 0.44843 0.36191 0.13409 0.0
N1037 N 0.45587 0.51443 0.15342 0.0
C1038 C 0.45051 0.39897 0.14069 0.0
C1039 C 0.45376 0.4769 0.15024 0.0
N1040 N 0.51643 0.39625 0.15168 0.0
N1041 N 0.38667 0.47692 0.15212 0.0
H1042 H 0.4808 0.52836 0.15663 0.0
H1043 H 0.43331 0.53199 0.15154 0.0
H1044 H 0.36143 0.46325 0.14982 0.0
H1045 H 0.38455 0.50413 0.16098 0.0
H1046 H 0.51679 0.36773 0.15488 0.0
H1047 H 0.54244 0.40811 0.15447 0.0
H1048 H 0.47118 0.34494 0.13004 0.0
H1049 H 0.42342 0.34798 0.13224 0.0
C1050 C 0.97459 0.05878 0.82855 0.0
C1051 C 0.97563 0.01984 0.83278 0.0
C1052 C 0.91237 0.02065 0.85612 0.0
C1053 C 0.91458 0.05959 0.85959 0.0
N1054 N 0.94654 0.11653 0.84762 0.0
N1055 N 0.94522 0.96283 0.84753 0.0
C1056 C 0.94486 0.07902 0.8443 0.0
C1057 C 0.94405 0.00042 0.84492 0.0
N1058 N 0.00254 0.07633 0.81033 0.0
N1059 N 0.88012 0.00329 0.86488 0.0
H1060 H 0.9676 0.94747 0.83797 0.0
H1061 H 0.92487 0.94699 0.86013 0.0
H1062 H 0.85696 0.01791 0.87368 0.0
H1063 H 0.87534 0.97529 0.86077 0.0
H1064 H 0.00223 0.10427 0.80374 0.0
H1065 H 0.02472 0.06217 0.79881 0.0
H1066 H 0.96995 0.13206 0.84178 0.0
H1067 H 0.92466 0.13215 0.85774 0.0
C1068 C 0.1586 0.68863 0.1076 0.0
C1069 C 0.1795 0.65635 0.1131 0.0
C1070 C 0.23661 0.69172 0.10328 0.0
C1071 C 0.21599 0.72478 0.10674 0.0
N1072 N 0.1569 0.75532 0.10982 0.0
N1073 N 0.23706 0.62462 0.10844 0.0
C1074 C 0.17676 0.72341 0.10765 0.0
C1075 C 0.21818 0.65717 0.10736 0.0
N1076 N 0.12147 0.68584 0.10247 0.0
N1077 N 0.27362 0.69353 0.09658 0.0
H1078 H 0.22324 0.59935 0.10978 0.0
H1079 H 0.26562 0.62242 0.1085 0.0
H1080 H 0.28785 0.71848 0.09489 0.0
H1081 H 0.29005 0.67069 0.09107 0.0
H1082 H 0.10457 0.70807 0.09593 0.0
H1083 H 0.1083 0.66036 0.10042 0.0
H1084 H 0.12871 0.75621 0.11501 0.0
H1085 H 0.16903 0.78128 0.10876 0.0
C1086 C 0.54099 -3e-05 0.3753 0.0
C1087 C 0.52077 0.9812 0.34787 0.0
C1088 C 0.56221 0.92813 0.35166 0.0
C1089 C 0.57975 0.94468 0.3826 0.0
N1090 N 0.5932 -0.00027 0.41741 0.0
N1091 N 0.52181 0.93665 0.29901 0.0
C1092 C 0.57178 0.98209 0.39192 0.0
C1093 C 0.53473 0.94832 0.33233 0.0
N1094 N 0.53037 0.03476 0.3852 0.0
N1095 N 0.5693 0.89226 0.34252 0.0
H1096 H 0.50173 0.95115 0.28445 0.0
H1097 H 0.53357 0.915 0.28425 0.0
H1098 H 0.58888 0.87608 0.35578 0.0
H1099 H 0.55412 0.87767 0.32302 0.0
H1100 H 0.54351 0.05085 0.40484 0.0
H1101 H 0.50848 0.04835 0.37242 0.0
H1102 H 0.5897 0.02691 0.4258 0.0
H1103 H 0.61615 0.9873 0.42934 0.0
C1104 C 0.32675 0.29884 0.59745 0.0
C1105 C 0.30598 0.32798 0.61313 0.0
C1106 C 0.24912 0.2918 0.60697 0.0
C1107 C 0.27043 0.26138 0.59496 0.0
N1108 N 0.32633 0.23958 0.56642 0.0
N1109 N 0.24743 0.35747 0.62094 0.0
C1110 C 0.30826 0.26617 0.58604 0.0
C1111 C 0.26695 0.32619 0.61337 0.0
N1112 N 0.36424 0.30136 0.59572 0.0
N1113 N 0.21236 0.28729 0.61377 0.0
H1114 H 0.26056 0.38271 0.62553 0.0
H1115 H 0.21886 0.35921 0.61954 0.0
H1116 H 0.19852 0.26267 0.60825 0.0
H1117 H 0.19592 0.30719 0.62628 0.0
H1118 H 0.38141 0.27914 0.58976 0.0
H1119 H 0.37848 0.32558 0.6016 0.0
H1120 H 0.35303 0.24254 0.55637 0.0
H1121 H 0.3132 0.21593 0.55688 0.0
C1122 C 0.02208 0.55345 0.6577 0.0
C1123 C 0.01834 0.51577 0.64692 0.0
C1124 C 0.08114 0.51639 0.62243 0.0
C1125 C 0.08216 0.55542 0.62666 0.0
N1126 N 0.05653 0.61086 0.65212 0.0
N1127 N 0.04535 0.45955 0.62468 0.0
C1128 C 0.05403 0.57363 0.64667 0.0
C1129 C 0.04858 0.49651 0.63167 0.0
N1130 N 0.99468 0.5702 0.67748 0.0
N1131 N 0.11099 0.49889 0.60771 0.0
H1132 H 0.02253 0.44412 0.63304 0.0
H1133 H 0.06463 0.44396 0.61031 0.0
H1134 H 0.13379 0.51339 0.59817 0.0
H1135 H 0.11416 0.47043 0.60636 0.0
H1136 H -0.00297 0.59619 0.68935 0.0
H1137 H 0.96987 0.55744 0.6841 0.0
H1138 H 0.03513 0.62735 0.66169 0.0
H1139 H 0.08043 0.6257 0.64632 0.0
C1140 C 0.69388 0.77644 0.89162 0.0
C1141 C 0.73052 0.77671 0.87736 0.0
C1142 C 0.71858 0.83706 0.84979 0.0
C1143 C 0.68033 0.8321 0.85622 0.0
N1144 N 0.63089 0.7968 0.88281 0.0
N1145 N 0.7786 0.80809 0.84408 0.0
C1146 C 0.66779 0.80213 0.87773 0.0
C1147 C 0.74331 0.80757 0.85717 0.0
N1148 N 0.68391 0.75177 0.9183 0.0
N1149 N 0.73082 0.86991 0.83594 0.0
H1150 H 0.79772 0.78759 0.85051 0.0
H1151 H 0.78834 0.8278 0.82556 0.0
H1152 H 0.71287 0.89179 0.8307 0.0
H1153 H 0.75856 0.87653 0.83282 0.0
H1154 H 0.65838 0.75224 0.93142 0.0
H1155 H 0.70243 0.73364 0.93049 0.0
H1156 H 0.61979 0.77263 0.89373 0.0
H1157 H 0.61121 0.81582 0.87403 0.0
C1158 C 0.75768 0.2116 0.36427 0.0
C1159 C 0.77739 0.24366 0.3746 0.0
C1160 C 0.83485 0.20786 0.37672 0.0
C1161 C 0.81622 0.17775 0.36068 0.0
N1162 N 0.76037 0.15033 0.33754 0.0
N1163 N 0.83558 0.27364 0.38756 0.0
C1164 C 0.77758 0.17922 0.35454 0.0
C1165 C 0.81617 0.24205 0.3806 0.0
N1166 N 0.72004 0.21206 0.36413 0.0
N1167 N 0.8707 0.20381 0.38738 0.0
H1168 H 0.8233 0.29944 0.39001 0.0
H1169 H 0.86422 0.27494 0.38785 0.0
H1170 H 0.88487 0.17894 0.38431 0.0
H1171 H 0.88515 0.22364 0.40226 0.0
H1172 H 0.70396 0.18859 0.3603 0.0
H1173 H 0.7048 0.23552 0.37085 0.0
H1174 H 0.73335 0.15132 0.32803 0.0
H1175 H 0.77397 0.1258 0.33115 0.0
C1176 C 0.054 0.45252 0.24348 0.0
C1177 C 0.05385 0.4894 0.25683 0.0
C1178 C 0.04658 0.4668 0.31951 0.0
C1179 C 0.04583 0.42931 0.30717 0.0
N1180 N 0.03493 0.38925 0.25474 0.0
N1181 N 0.03173 0.52996 0.30408 0.0
C1182 C 0.04526 0.42283 0.26826 0.0
C1183 C 0.04257 0.49554 0.2935 0.0
N1184 N 0.06316 0.44554 0.2077 0.0
N1185 N 0.05505 0.47577 0.35512 0.0
H1186 H 0.02959 0.55154 0.28507 0.0
H1187 H 0.0215 0.53555 0.33041 0.0
H1188 H 0.06506 0.45689 0.37425 0.0
H1189 H 0.05779 0.503 0.36398 0.0
H1190 H 0.06826 0.41904 0.1978 0.0
H1191 H 0.06672 0.46642 0.18829 0.0
H1192 H 0.03151 0.38416 0.22667 0.0
H1193 H 0.02529 0.36798 0.2715 0.0
C1194 C 0.77793 0.80341 0.55151 0.0
C1195 C 0.81595 0.80104 0.542 0.0
C1196 C 0.79699 0.80697 0.47688 0.0
C1197 C 0.75938 0.80629 0.48756 0.0
N1198 N 0.71629 0.78644 0.53323 0.0
N1199 N 0.8593 0.78848 0.49241 0.0
C1200 C 0.75102 0.79708 0.52412 0.0
C1201 C 0.825 0.79895 0.50361 0.0
N1202 N 0.76692 0.81675 0.5849 0.0
N1203 N 0.8059 0.81654 0.44164 0.0
H1204 H 0.8795 0.77939 0.51063 0.0
H1205 H 0.86603 0.78456 0.46473 0.0
H1206 H 0.78565 0.8211 0.42171 0.0
H1207 H 0.83289 0.82149 0.43313 0.0
H1208 H 0.73939 0.82254 0.59018 0.0
H1209 H 0.78487 0.82842 0.60401 0.0
H1210 H 0.70983 0.77758 0.55975 0.0
H1211 H 0.69585 0.78294 0.51329 0.0
C1212 C 0.42784 0.54736 0.7257 0.0
C1213 C 0.43232 0.50986 0.7361 0.0
C1214 C 0.44449 0.52917 0.79923 0.0
C1215 C 0.44156 0.56737 0.78944 0.0
N1216 N 0.44227 0.61142 0.73914 0.0
N1217 N 0.46034 0.46775 0.77816 0.0
C1218 C 0.43699 0.57618 0.75128 0.0
C1219 C 0.44705 0.50214 0.77106 0.0
N1220 N 0.41339 0.55534 0.69195 0.0
N1221 N 0.44048 0.5177 0.83494 0.0
H1222 H 0.46096 0.44738 0.75776 0.0
H1223 H 0.47394 0.4613 0.80265 0.0
H1224 H 0.4314 0.53476 0.85617 0.0
H1225 H 0.44041 0.48994 0.84236 0.0
H1226 H 0.40533 0.58182 0.68419 0.0
H1227 H 0.4082 0.53474 0.67253 0.0
H1228 H 0.44174 0.61855 0.7113 0.0
H1229 H 0.45141 0.63255 0.75632 0.0
C1230 C 0.6741 0.195 0.00931 0.0
C1231 C 0.67809 0.18593 0.04743 0.0
C1232 C 0.74299 0.1717 0.03578 0.0
C1233 C 0.7373 0.17287 -0.00273 0.0
N1234 N 0.69597 0.18372 0.94668 0.0
N1235 N 0.7143 0.15281 0.09233 0.0
C1236 C 0.70244 0.18435 0.98371 0.0
C1237 C 0.71217 0.1711 0.05953 0.0
N1238 N 0.64409 0.21434 -0.00238 0.0
N1239 N 0.77783 0.16815 0.04943 0.0
H1240 H 0.69093 0.14631 0.10773 0.0
H1241 H 0.7381 0.1396 0.1013 0.0
H1242 H 0.80092 0.16809 0.0322 0.0
H1243 H 0.78357 0.16901 0.07761 0.0
H1244 H 0.64141 0.22421 0.97076 0.0
H1245 H 0.62352 0.22336 0.01555 0.0
H1246 H 0.66994 0.18773 0.93531 0.0
H1247 H 0.71662 0.17738 0.92766 0.0
C1248 C 0.52603 0.02103 0.72488 0.0
C1249 C 0.55361 0.02055 0.75225 0.0
C1250 C 0.57554 0.08126 0.73208 0.0
C1251 C 0.54948 0.08084 0.70273 0.0
N1252 N 0.49165 0.05698 0.68025 0.0
N1253 N 0.59357 0.05553 0.79126 0.0
C1254 C 0.52181 0.05292 0.70229 0.0
C1255 C 0.574 0.05299 0.75932 0.0
N1256 N 0.50551 0.99003 0.71917 0.0
N1257 N 0.60381 0.10616 0.73238 0.0
H1258 H 0.59236 0.03471 0.81106 0.0
H1259 H 0.6072 0.0794 0.79961 0.0
H1260 H 0.60746 0.12649 0.71247 0.0
H1261 H 0.62568 0.10467 0.75087 0.0
H1262 H 0.48792 0.98661 0.69675 0.0
H1263 H 0.50751 0.96715 0.73659 0.0
H1264 H 0.4693 0.03896 0.68066 0.0
H1265 H 0.48743 0.08057 0.66436 0.0
C1266 C 0.19195 0.32678 0.01913 0.0
C1267 C 0.22836 0.31448 0.01181 0.0
C1268 C 0.20533 0.27806 0.95976 0.0
C1269 C 0.17079 0.29657 0.96239 0.0
N1270 N 0.12676 0.32002 0.00673 0.0
N1271 N 0.26975 0.27558 0.97803 0.0
C1272 C 0.16246 0.31528 0.99587 0.0
C1273 C 0.23482 0.28846 0.98351 0.0
N1274 N 0.18605 0.35136 0.04705 0.0
N1275 N 0.20906 0.24912 0.93595 0.0
H1276 H 0.29119 0.28154 0.99626 0.0
H1277 H 0.2778 0.26042 0.95502 0.0
H1278 H 0.18682 0.2387 0.92111 0.0
H1279 H 0.23248 0.23269 0.93422 0.0
H1280 H 0.1614 0.36556 0.05081 0.0
H1281 H 0.2068 0.35888 0.06543 0.0
H1282 H 0.11929 0.3315 0.03197 0.0
H1283 H 0.10474 0.30722 0.9936 0.0
C1284 C 0.94953 0.98428 0.23965 0.0
C1285 C 0.92774 0.97629 0.27113 0.0
C1286 C 0.91486 0.91455 0.2464 0.0
C1287 C 0.93669 0.92204 0.21452 0.0
N1288 N 0.98751 0.95886 0.19114 0.0
N1289 N 0.90604 0.92839 0.31121 0.0
C1290 C 0.95807 0.95531 0.21433 0.0
C1291 C 0.91636 0.93934 0.27677 0.0
N1292 N 0.96103 0.01946 0.23282 0.0
N1293 N 0.89043 0.88591 0.24724 0.0
H1294 H 0.9091 0.94595 0.33381 0.0
H1295 H 0.89941 0.90114 0.31764 0.0
H1296 H 0.88479 0.86906 0.22477 0.0
H1297 H 0.87221 0.88183 0.26913 0.0
H1298 H 0.97331 0.02723 0.20799 0.0
H1299 H 0.95701 0.04114 0.25118 0.0
H1300 H 0.00548 0.98127 0.19204 0.0
H1301 H -0.00307 0.93731 0.17472 0.0
C1302 C 0.26051 0.71598 0.48157 0.0
C1303 C 0.26191 0.68771 0.50833 0.0
C1304 C 0.32435 0.67148 0.48808 0.0
C1305 C 0.32289 0.6991 0.45991 0.0
N1306 N 0.295 0.75684 0.44139 0.0
N1307 N 0.30004 0.65048 0.54702 0.0
C1308 C 0.29268 0.72443 0.46043 0.0
C1309 C 0.2959 0.67015 0.51523 0.0
N1310 N 0.228 0.73371 0.47539 0.0
N1311 N 0.35029 0.6442 0.4874 0.0
H1312 H 0.27892 0.64872 0.56655 0.0
H1313 H 0.32521 0.63947 0.55535 0.0
H1314 H 0.37005 0.64124 0.4669 0.0
H1315 H 0.3497 0.62178 0.5054 0.0
H1316 H 0.22381 0.75161 0.45329 0.0
H1317 H 0.20483 0.72895 0.49184 0.0
H1318 H 0.27495 0.77734 0.44284 0.0
H1319 H 0.31896 0.76498 0.42775 0.0
C1320 C 0.27201 0.03275 0.49282 0.0
C1321 C 0.23941 0.05176 0.48391 0.0
C1322 C 0.25629 0.04682 0.4181 0.0
C1323 C 0.29311 0.03728 0.42784 0.0
N1324 N 0.33609 0.02416 0.47797 0.0
N1325 N 0.19905 0.07577 0.43751 0.0
C1326 C 0.30087 0.03004 0.46608 0.0
C1327 C 0.23087 0.05785 0.44623 0.0
N1328 N 0.27612 0.01946 0.5278 0.0
N1329 N 0.24522 0.0444 0.3822 0.0
H1330 H 0.17943 0.08225 0.45754 0.0
H1331 H 0.19306 0.08534 0.41108 0.0
H1332 H 0.26224 0.03414 0.3614 0.0
H1333 H 0.21805 0.04837 0.37393 0.0
H1334 H 0.2978 0.00243 0.53576 0.0
H1335 H 0.25538 0.02237 0.54759 0.0
H1336 H 0.34306 0.02092 0.50562 0.0
H1337 H 0.35932 0.02725 0.46159 0.0
C1338 C 0.20879 0.01661 0.74594 0.0
C1339 C 0.19345 0.98204 0.73753 0.0
C1340 C 0.20166 0.99698 0.67161 0.0
C1341 C 0.20587 0.03515 0.68057 0.0
N1342 N 0.20526 0.08074 0.7303 0.0
N1343 N 0.17801 0.93725 0.69157 0.0
C1344 C 0.20813 0.04491 0.71886 0.0
C1345 C 0.1913 0.97136 0.7 0.0
N1346 N 0.22046 0.02328 0.78101 0.0
N1347 N 0.20848 0.98494 0.63661 0.0
H1348 H 0.17235 0.9178 0.71207 0.0
H1349 H 0.1715 0.92908 0.6648 0.0
H1350 H 0.21866 0.00223 0.61598 0.0
H1351 H 0.2082 0.95715 0.62932 0.0
H1352 H 0.23427 0.0474 0.78839 0.0
H1353 H 0.21939 0.0028 0.80129 0.0
H1354 H 0.20457 0.08813 0.75804 0.0
H1355 H 0.19786 0.10253 0.71321 0.0
C1356 C 0.22944 0.94584 0.92964 0.0
C1357 C 0.19028 0.94354 0.93417 0.0
C1358 C 0.20103 0.94462 0.00116 0.0
C1359 C 0.2385 0.93532 0.99652 0.0
N1360 N 0.28933 0.92848 0.95428 0.0
N1361 N 0.14143 0.92883 0.97803 0.0
C1362 C 0.2532 0.93673 0.96013 0.0
C1363 C 0.17657 0.94035 0.97105 0.0
N1364 N 0.24413 0.95796 0.89717 0.0
N1365 N 0.18825 0.95367 0.03534 0.0
H1366 H 0.12458 0.91736 0.9579 0.0
H1367 H 0.13148 0.92453 0.00471 0.0
H1368 H 0.20606 0.95612 0.05782 0.0
H1369 H 0.16119 0.96222 0.03991 0.0
H1370 H 0.27225 0.96253 0.89357 0.0
H1371 H 0.2281 0.96791 0.87555 0.0
H1372 H 0.30041 0.92466 0.92802 0.0
H1373 H 0.30774 0.92405 0.97585 0.0
C1374 C 0.2988 0.98528 0.17345 0.0
C1375 C 0.30092 0.94747 0.18502 0.0
C1376 C 0.30038 0.97086 0.2489 0.0
C1377 C 0.31023 0.00645 0.23703 0.0
N1378 N 0.31859 0.04814 0.1864 0.0
N1379 N 0.31327 0.90709 0.23775 0.0
C1380 C 0.30908 0.01391 0.19871 0.0
C1381 C 0.30359 0.9408 0.22396 0.0
N1382 N 0.28542 0.99434 0.13949 0.0
N1383 N 0.29102 0.96534 0.28484 0.0
H1384 H 0.32342 0.88562 0.2217 0.0
H1385 H 0.31712 0.90253 0.26589 0.0
H1386 H 0.2902 0.9871 0.30372 0.0
H1387 H 0.27997 0.94036 0.29391 0.0
H1388 H 0.28166 0.02159 0.13111 0.0
H1389 H 0.27311 0.97521 0.12199 0.0
H1390 H 0.32226 0.05423 0.15852 0.0
H1391 H 0.32425 0.06969 0.20465 0.0
C1392 C 0.7444 0.40954 0.53735 0.0
C1393 C 0.74777 0.43318 0.50629 0.0
C1394 C 0.79482 0.46847 0.53984 0.0
C1395 C 0.79707 0.44004 0.56685 0.0
N1396 N 0.77555 0.38088 0.5889 0.0
N1397 N 0.77643 0.48568 0.47775 0.0
C1398 C 0.77183 0.41014 0.56539 0.0
C1399 C 0.77284 0.4631 0.5077 0.0
N1400 N 0.71521 0.38605 0.53975 0.0
N1401 N 0.81298 0.50096 0.54542 0.0
H1402 H 0.75918 0.48355 0.45482 0.0
H1403 H 0.79735 0.50518 0.47506 0.0
H1404 H 0.82748 0.5063 0.5696 0.0
H1405 H 0.81022 0.52383 0.52824 0.0
H1406 H 0.70948 0.3701 0.56298 0.0
H1407 H 0.69442 0.3861 0.52014 0.0
H1408 H 0.76057 0.35652 0.58615 0.0
H1409 H 0.79588 0.37935 0.60907 0.0
C1410 C 0.78387 0.52558 0.75017 0.0
C1411 C 0.80924 0.4967 0.75685 0.0
C1412 C 0.80879 0.51208 0.82302 0.0
C1413 C 0.79098 0.54599 0.81464 0.0
N1414 N 0.74593 0.57474 0.77553 0.0
N1415 N 0.84514 0.46106 0.79981 0.0
C1416 C 0.77357 0.54955 0.77967 0.0
C1417 C 0.8207 0.48897 0.79352 0.0
N1418 N 0.77138 0.53113 0.71509 0.0
N1419 N 0.81254 0.50076 0.85875 0.0
H1420 H 0.85319 0.44277 0.7792 0.0
H1421 H 0.85885 0.45732 0.82474 0.0
H1422 H 0.79965 0.51394 0.88072 0.0
H1423 H 0.8232 0.47515 0.86614 0.0
H1424 H 0.75629 0.55408 0.70687 0.0
H1425 H 0.77722 0.5127 0.69373 0.0
H1426 H 0.7303 0.57766 0.75169 0.0
H1427 H 0.73591 0.59004 0.79774 0.0
C1428 C 0.67471 0.57685 0.02262 0.0
C1429 C 0.68731 0.57048 0.0593 0.0
C1430 C 0.75102 0.57645 0.0359 0.0
C1431 C 0.73748 0.57958 -0.00073 0.0
N1432 N 0.68748 0.56732 0.95801 0.0
N1433 N 0.7393 0.55325 0.09762 0.0
C1434 C 0.69969 0.57369 0.99294 0.0
C1435 C 0.72609 0.56695 0.06517 0.0
N1436 N 0.63976 0.58909 0.01591 0.0
N1437 N 0.78714 0.5837 0.0431 0.0
H1438 H 0.72233 0.54366 0.11872 0.0
H1439 H 0.76712 0.54755 0.1018 0.0
H1440 H 0.80618 0.58906 0.02225 0.0
H1441 H 0.7975 0.58608 0.0698 0.0
H1442 H 0.6307 0.59624 0.98956 0.0
H1443 H 0.62177 0.59719 0.03681 0.0
H1444 H 0.66023 0.56017 0.9525 0.0
H1445 H 0.70569 0.56501 0.9358 0.0
C1446 C 0.67079 0.49852 0.31924 0.0
C1447 C 0.69636 0.46882 0.31655 0.0
C1448 C 0.71583 0.49143 0.25559 0.0
C1449 C 0.68769 0.51828 0.25658 0.0
N1450 N 0.65133 0.55808 0.29478 0.0
N1451 N 0.75451 0.45007 0.29074 0.0
C1452 C 0.66989 0.52568 0.29056 0.0
C1453 C 0.72261 0.4695 0.28737 0.0
N1454 N 0.64585 0.49978 0.34741 0.0
N1455 N 0.73474 0.48574 0.22355 0.0
H1456 H 0.76142 0.43732 0.31549 0.0
H1457 H 0.77577 0.45106 0.27142 0.0
H1458 H 0.73114 0.50279 0.20059 0.0
H1459 H 0.75251 0.46354 0.21951 0.0
H1460 H 0.62523 0.51956 0.34926 0.0
H1461 H 0.6441 0.48003 0.36812 0.0
H1462 H 0.64044 0.56683 0.31989 0.0
H1463 H 0.65061 0.57795 0.27397 0.0
C1464 C 0.44998 0.23546 0.08487 0.0
C1465 C 0.48148 0.23846 0.06193 0.0
C1466 C 0.44835 0.28489 0.02513 0.0
C1467 C 0.42145 0.28842 0.05356 0.0
N1468 N 0.39924 0.26794 0.11324 0.0
N1469 N 0.51015 0.26502 0.00852 0.0
C1470 C 0.42242 0.26344 0.08386 0.0
C1471 C 0.48016 0.26251 0.03112 0.0
N1472 N 0.44678 0.20618 0.10816 0.0
N1473 N 0.44322 0.30259 0.99227 0.0
H1474 H 0.53277 0.24746 0.01133 0.0
H1475 H 0.51313 0.28522 0.98828 0.0
H1476 H 0.41959 0.31792 0.98663 0.0
H1477 H 0.46032 0.29889 0.96948 0.0
H1478 H 0.4233 0.20086 0.12384 0.0
H1479 H 0.4659 0.1849 0.10783 0.0
H1480 H 0.40185 0.25299 0.13765 0.0
H1481 H 0.37969 0.28885 0.11496 0.0
C1482 C 0.98862 0.22124 0.96196 0.0
C1483 C 0.98161 0.25111 0.9378 0.0
C1484 C 0.91526 0.2361 0.93993 0.0
C1485 C 0.9238 0.20136 0.95627 0.0
N1486 N 0.96321 0.17424 0.00244 0.0
N1487 N 0.93795 0.29189 0.90976 0.0
C1488 C 0.95899 0.19784 0.97338 0.0
C1489 C 0.94462 0.26035 0.92919 0.0
N1490 N 0.02393 0.2147 0.97298 0.0
N1491 N 0.87939 0.24708 0.93744 0.0
H1492 H 0.95875 0.31101 0.90419 0.0
H1493 H 0.91251 0.29873 0.89852 0.0
H1494 H 0.85811 0.23282 0.95047 0.0
H1495 H 0.87107 0.27257 0.92727 0.0
H1496 H 0.032 0.19114 0.98725 0.0
H1497 H 0.04542 0.23279 0.96663 0.0
H1498 H 0.98739 0.17189 0.01762 0.0
H1499 H 0.94086 0.16096 0.01474 0.0
C1500 C 0.01343 0.73315 0.21554 0.0
C1501 C 0.9848 0.72927 0.1896 0.0
C1502 C 0.00898 0.66882 0.17138 0.0
C1503 C 0.03932 0.6732 0.19596 0.0
N1504 N 0.06051 0.70281 0.25171 0.0
N1505 N 0.9464 0.68737 0.1565 0.0
C1506 C 0.0385 0.70336 0.22133 0.0
C1507 C 0.97943 0.69467 0.17266 0.0
N1508 N 0.01711 0.7658 0.23381 0.0
N1509 N 0.00946 0.6423 0.14464 0.0
H1510 H 0.925 0.70663 0.15692 0.0
H1511 H 0.93943 0.66143 0.14623 0.0
H1512 H 0.03158 0.62459 0.14027 0.0
H1513 H 0.98941 0.64054 0.12417 0.0
H1514 H 0.03958 0.77221 0.25044 0.0
H1515 H -0.00222 0.78695 0.23091 0.0
H1516 H 0.05952 0.72264 0.27246 0.0
H1517 H 0.07615 0.67981 0.25835 0.0
C1518 C 0.55485 0.72759 0.42543 0.0
C1519 C 0.51704 0.73274 0.43407 0.0
C1520 C 0.53365 0.78571 0.47281 0.0
C1521 C 0.56979 0.78591 0.45698 0.0
N1522 N 0.61836 0.74553 0.43656 0.0
N1523 N 0.47003 0.76647 0.46643 0.0
C1524 C 0.58162 0.7533 0.43866 0.0
C1525 C 0.50648 0.76122 0.45858 0.0
N1526 N 0.56473 0.69914 0.40281 0.0
N1527 N 0.52578 0.8065 0.50323 0.0
H1528 H 0.44958 0.74807 0.45808 0.0
H1529 H 0.45997 0.79007 0.47937 0.0
H1530 H 0.54577 0.82023 0.51841 0.0
H1531 H 0.50072 0.80516 0.51718 0.0
H1532 H 0.5908 0.69632 0.39117 0.0
H1533 H 0.54594 0.67894 0.39457 0.0
H1534 H 0.62891 0.72111 0.42579 0.0
H1535 H 0.6381 0.76127 0.45028 0.0
C1536 C 0.46549 0.25119 0.67879 0.0
C1537 C 0.5019 0.26213 0.67085 0.0
C1538 C 0.48515 0.32525 0.68962 0.0
C1539 C 0.44698 0.31568 0.68828 0.0
N1540 N 0.40204 0.2682 0.67249 0.0
N1541 N 0.54735 0.31024 0.66934 0.0
C1542 C 0.43735 0.27814 0.68102 0.0
C1543 C 0.51218 0.29938 0.67681 0.0
N1544 N 0.45759 0.21465 0.68275 0.0
N1545 N 0.49576 0.35829 0.70421 0.0
H1546 H 0.56789 0.29138 0.66243 0.0
H1547 H 0.55552 0.3378 0.66874 0.0
H1548 H 0.47715 0.37674 0.71601 0.0
H1549 H 0.52323 0.36545 0.70837 0.0
H1550 H 0.43196 0.20535 0.69185 0.0
H1551 H 0.47809 0.19449 0.68122 0.0
H1552 H 0.39504 0.24161 0.66404 0.0
H1553 H 0.38069 0.28689 0.66859 0.0
C1554 C 0.04282 0.76438 0.58478 0.0
C1555 C 0.01327 0.76603 0.55948 0.0
C1556 C 0.04578 0.72048 0.52142 0.0
C1557 C 0.06881 0.71123 0.55188 0.0
N1558 N 0.08628 0.72426 0.61515 0.0
N1559 N 0.98737 0.74665 0.5019 0.0
C1560 C 0.06719 0.73363 0.5841 0.0
C1561 C 0.01537 0.74477 0.52686 0.0
N1562 N 0.04676 0.79174 0.61013 0.0
N1563 N 0.05353 0.70687 0.48721 0.0
H1564 H 0.9658 0.7655 0.5048 0.0
H1565 H 0.98496 0.72867 0.47961 0.0
H1566 H 0.07702 0.69117 0.48198 0.0
H1567 H 0.03926 0.71481 0.46359 0.0
H1568 H 0.06911 0.7935 0.62807 0.0
H1569 H 0.02973 0.81482 0.60959 0.0
H1570 H 0.08291 0.73798 0.64019 0.0
H1571 H 0.10247 0.70068 0.61729 0.0
C1572 C 0.4668 0.80483 0.82647 0.0
C1573 C 0.47163 0.76928 0.81027 0.0
C1574 C 0.51533 0.7967 0.76632 0.0
C1575 C 0.5173 0.82936 0.78828 0.0
N1576 N 0.47998 0.87061 0.82464 0.0
N1577 N 0.4989 0.73173 0.76315 0.0
C1578 C 0.48842 0.83549 0.81402 0.0
C1579 C 0.49474 0.76558 0.77907 0.0
N1580 N 0.44301 0.80852 0.85545 0.0
N1581 N 0.53131 0.79639 0.7322 0.0
H1582 H 0.48306 0.70902 0.7711 0.0
H1583 H 0.51901 0.72591 0.74348 0.0
H1584 H 0.54286 0.82007 0.72056 0.0
H1585 H 0.52872 0.77456 0.71372 0.0
H1586 H 0.44151 0.83184 0.87212 0.0
H1587 H 0.42568 0.78711 0.86374 0.0
H1588 H 0.45787 0.87724 0.84167 0.0
H1589 H 0.49159 0.8937 0.81208 0.0
C1590 C 0.94737 0.20911 0.27876 0.0
C1591 C 0.95781 0.17203 0.28746 0.0
C1592 C 0.01699 0.19546 0.31131 0.0
C1593 C 0.00508 0.23213 0.30477 0.0
N1594 N 0.96738 0.27244 0.26917 0.0
N1595 N 0.00683 0.12968 0.30171 0.0
C1596 C 0.97331 0.23816 0.28346 0.0
C1597 C 0.99419 0.16512 0.30029 0.0
N1598 N 0.91184 0.21753 0.26959 0.0
N1599 N 0.04926 0.18992 0.32969 0.0
H1600 H 0.99093 0.10729 0.29312 0.0
H1601 H 0.03386 0.12272 0.30819 0.0
H1602 H 0.06681 0.21174 0.33633 0.0
H1603 H 0.05804 0.1643 0.3392 0.0
H1604 H 0.9023 0.24453 0.26726 0.0
H1605 H 0.89075 0.19825 0.26779 0.0
H1606 H 0.94641 0.27821 0.25044 0.0
H1607 H 0.98616 0.29391 0.27329 0.0
C1608 C 0.08535 0.19315 0.44718 0.0
C1609 C 0.08751 0.23203 0.4518 0.0
C1610 C 0.12725 0.22412 0.50566 0.0
C1611 C 0.1288 0.18575 0.49818 0.0
N1612 N 0.11112 0.13312 0.46178 0.0
N1613 N 0.10965 0.28519 0.48524 0.0
C1614 C 0.10797 0.16996 0.46921 0.0
C1615 C 0.10819 0.24771 0.48104 0.0
N1616 N 0.06153 0.17847 0.42196 0.0
N1617 N 0.14316 0.23771 0.53707 0.0
H1618 H 0.09343 0.30344 0.4701 0.0
H1619 H 0.12814 0.29854 0.50261 0.0
H1620 H 0.15749 0.22117 0.55569 0.0
H1621 H 0.13981 0.2646 0.54649 0.0
H1622 H 0.05569 0.15044 0.41997 0.0
H1623 H 0.04551 0.19457 0.40441 0.0
H1624 H 0.10055 0.1206 0.43825 0.0
H1625 H 0.12611 0.11513 0.47842 0.0
C1626 C 0.05496 0.88598 0.70049 0.0
C1627 C 0.05337 0.88103 0.7393 0.0
C1628 C 0.00503 0.83463 0.7314 0.0
C1629 C 0.00343 0.84319 0.6932 0.0
N1630 N 0.02254 0.88197 0.64243 0.0
N1631 N 0.02138 0.85598 0.79234 0.0
C1632 C 0.02711 0.87035 0.678 0.0
C1633 C 0.02721 0.85649 0.75504 0.0
N1634 N 0.08367 0.9049 0.68505 0.0
N1635 N 0.98482 0.80609 0.74536 0.0
H1636 H 0.03571 0.87254 0.81089 0.0
H1637 H -0.00029 0.84175 0.80473 0.0
H1638 H 0.9662 0.79119 0.72954 0.0
H1639 H 0.98837 0.79572 0.77193 0.0
H1640 H 0.08828 0.90626 0.65671 0.0
H1641 H 0.10499 0.91603 0.70072 0.0
H1642 H 0.03653 0.90449 0.63132 0.0
H1643 H 0.00254 0.8712 0.62487 0.0
C1644 C 0.37223 0.74176 0.9835 0.0
C1645 C 0.37387 0.74956 0.94514 0.0
C1646 C 0.33452 0.80373 0.95363 0.0
C1647 C 0.33293 0.79574 0.99186 0.0
N1648 N 0.3415 0.7526 0.04176 0.0
N1649 N 0.35094 0.78273 0.89222 0.0
C1650 C 0.34922 0.76339 0.00641 0.0
C1651 C 0.35307 0.77885 0.92966 0.0
N1652 N 0.39311 0.71399 -0.00186 0.0
N1653 N 0.31934 0.83567 0.94058 0.0
H1654 H 0.36445 0.7652 0.87389 0.0
H1655 H 0.33355 0.80138 0.87911 0.0
H1656 H 0.30468 0.85382 0.95737 0.0
H1657 H 0.32305 0.84538 0.91381 0.0
H1658 H 0.39691 0.71017 0.02636 0.0
H1659 H 0.40834 0.69569 0.98206 0.0
H1660 H 0.34896 0.72705 0.05254 0.0
H1661 H 0.32475 0.7678 0.05954 0.0
C1662 C 0.4824 0.17592 0.23459 0.0
C1663 C 0.48707 0.16532 0.19707 0.0
C1664 C 0.43976 0.11783 0.20483 0.0
C1665 C 0.4398 0.12422 0.24332 0.0
N1666 N 0.46366 0.15696 0.29598 0.0
N1667 N 0.47367 0.12219 0.14779 0.0
C1668 C 0.46128 0.15307 0.25855 0.0
C1669 C 0.46659 0.13527 0.18245 0.0
N1670 N 0.49895 0.20711 0.24769 0.0
N1671 N 0.4138 0.09509 0.18972 0.0
H1672 H 0.49303 0.13381 0.13004 0.0
H1673 H 0.46242 0.09777 0.13767 0.0
H1674 H 0.39347 0.08223 0.20554 0.0
H1675 H 0.41007 0.09214 0.16138 0.0
H1676 H 0.49324 0.21834 0.27351 0.0
H1677 H 0.51654 0.2233 0.23187 0.0
H1678 H 0.48236 0.17445 0.30893 0.0
H1679 H 0.44881 0.14061 0.31437 0.0
C1680 C 0.65023 0.24178 0.51998 0.0
C1681 C 0.62802 0.25681 0.5484 0.0
C1682 C 0.63704 0.31908 0.52383 0.0
C1683 C 0.66081 0.3045 0.49628 0.0
N1684 N 0.69218 0.25237 0.46904 0.0
N1685 N 0.60668 0.30929 0.58266 0.0
C1686 C 0.66844 0.26598 0.49499 0.0
C1687 C 0.62357 0.2954 0.55195 0.0
N1688 N 0.65188 0.20435 0.51544 0.0
N1689 N 0.62619 0.35517 0.52253 0.0
H1690 H 0.59687 0.29233 0.60374 0.0
H1691 H 0.60569 0.33729 0.58898 0.0
H1692 H 0.63529 0.37379 0.50263 0.0
H1693 H 0.60571 0.3661 0.53942 0.0
H1694 H 0.66364 0.19146 0.49265 0.0
H1695 H 0.63958 0.18583 0.53371 0.0
H1696 H 0.70285 0.22573 0.46966 0.0
H1697 H 0.70225 0.26814 0.44725 0.0
C1698 C 0.98027 0.39865 0.75488 0.0
C1699 C 0.94162 0.39417 0.75766 0.0
C1700 C 0.95036 0.34479 0.8028 0.0
C1701 C 0.98875 0.35274 0.80334 0.0
N1702 N 0.03913 0.3926 0.78462 0.0
N1703 N 0.88905 0.36588 0.787 0.0
C1704 C 0.00331 0.38159 0.78119 0.0
C1705 C 0.92636 0.368 0.78237 0.0
N1706 N 0.99526 0.41683 0.72539 0.0
N1707 N 0.93681 0.31485 0.82132 0.0
H1708 H 0.87054 0.38156 0.77167 0.0
H1709 H 0.87651 0.35056 0.80784 0.0
H1710 H 0.95296 0.29798 0.83795 0.0
H1711 H 0.90997 0.30519 0.81827 0.0
H1712 H 0.02346 0.41772 0.72009 0.0
H1713 H 0.97943 0.42685 0.70364 0.0
H1714 H 0.0495 0.41618 0.77181 0.0
H1715 H 0.05784 0.38036 0.8025 0.0
C1716 C 0.90021 0.70324 0.04712 0.0
C1717 C 0.89432 0.742 0.04917 0.0
C1718 C 0.85536 0.73889 0.99448 0.0
C1719 C 0.85659 0.69992 0.99596 0.0
N1720 N 0.87615 0.64431 0.02687 0.0
N1721 N 0.8604 0.79575 0.02814 0.0
C1722 C 0.87806 0.68177 0.02303 0.0
C1723 C 0.86992 0.75952 0.02406 0.0
N1724 N 0.92697 0.68688 0.06788 0.0
N1725 N 0.84184 0.7563 0.96388 0.0
H1726 H 0.87074 0.81277 0.04871 0.0
H1727 H 0.83958 0.80819 0.01278 0.0
H1728 H 0.83298 0.742 0.94056 0.0
H1729 H 0.84362 0.78472 0.95986 0.0
H1730 H 0.93504 0.65952 0.06444 0.0
H1731 H 0.94316 0.70132 0.08661 0.0
H1732 H 0.88789 0.63014 0.04891 0.0
H1733 H 0.86031 0.6276 0.00971 0.0
C1734 C 0.52211 0.59684 0.31809 0.0
C1735 C 0.4937 0.61864 0.30262 0.0
C1736 C 0.50848 0.59604 0.24091 0.0
C1737 C 0.53842 0.57595 0.25602 0.0
N1738 N 0.56518 0.54678 0.30959 0.0
N1739 N 0.4534 0.63227 0.25163 0.0
C1740 C 0.54243 0.57279 0.29482 0.0
C1741 C 0.48481 0.61601 0.26468 0.0
N1742 N 0.5314 0.60092 0.35439 0.0
N1743 N 0.50303 0.59638 0.20364 0.0
H1744 H 0.4358 0.64777 0.26826 0.0
H1745 H 0.44298 0.6282 0.22523 0.0
H1746 H 0.51692 0.57869 0.18571 0.0
H1747 H 0.48558 0.61486 0.19041 0.0
H1748 H 0.55499 0.58941 0.36597 0.0
H1749 H 0.51697 0.61798 0.37248 0.0
H1750 H 0.56516 0.54031 0.33758 0.0
H1751 H 0.58125 0.52907 0.29375 0.0
C1752 C 0.21248 0.42496 0.14062 0.0
C1753 C 0.24303 0.4414 0.12254 0.0
C1754 C 0.22741 0.50155 0.14885 0.0
C1755 C 0.19414 0.48615 0.16246 0.0
N1756 N 0.15393 0.43417 0.17175 0.0
N1757 N 0.28097 0.49455 0.10952 0.0
C1758 C 0.18653 0.44799 0.15884 0.0
C1759 C 0.251 0.47949 0.12685 0.0
N1760 N 0.20852 0.38746 0.14054 0.0
N1761 N 0.23695 0.53691 0.15808 0.0
H1762 H 0.30078 0.47874 0.09593 0.0
H1763 H 0.28562 0.5228 0.10728 0.0
H1764 H 0.22027 0.55403 0.17408 0.0
H1765 H 0.26255 0.54855 0.15245 0.0
H1766 H 0.18875 0.37342 0.15589 0.0
H1767 H 0.22701 0.36987 0.12733 0.0
H1768 H 0.14457 0.40756 0.16649 0.0
H1769 H 0.13501 0.45023 0.18623 0.0
C1770 C 0.75161 0.02977 0.84495 0.0
C1771 C 0.73853 0.05446 0.87206 0.0
C1772 C 0.67541 0.03149 0.86423 0.0
C1773 C 0.6889 0.00531 0.83843 0.0
N1774 N 0.74026 0.97424 0.8098 0.0
N1775 N 0.68852 0.0847 0.90312 0.0
C1776 C 0.7271 0.0033 0.82992 0.0
C1777 C 0.70044 0.05705 0.88035 0.0
N1778 N 0.78748 0.03178 0.8336 0.0
N1779 N 0.63908 0.03091 0.87423 0.0
H1780 H 0.70646 0.10421 0.91433 0.0
H1781 H 0.66106 0.09031 0.90892 0.0
H1782 H 0.62027 0.01205 0.86354 0.0
H1783 H 0.62762 0.04734 0.89471 0.0
H1784 H 0.79807 0.01696 0.81142 0.0
H1785 H 0.80599 0.05104 0.84415 0.0
H1786 H 0.7681 0.96897 0.8055 0.0
H1787 H 0.72343 0.95289 0.80062 0.0
C1788 C 0.80632 0.96995 0.3863 0.0
C1789 C 0.79398 0.00564 0.3759 0.0
C1790 C 0.73404 0.99368 0.40438 0.0
C1791 C 0.74703 0.95881 0.41623 0.0
N1792 N 0.79767 0.9168 0.42568 0.0
N1793 N 0.74985 0.05478 0.38231 0.0
C1794 C 0.78388 0.94792 0.40948 0.0
C1795 C 0.75893 0.01854 0.38726 0.0
N1796 N 0.8384 0.9561 0.37237 0.0
N1797 N 0.69763 0.00236 0.40806 0.0
H1798 H 0.76812 0.07378 0.37079 0.0
H1799 H 0.726 0.06671 0.39294 0.0
H1800 H 0.67868 0.98438 0.42004 0.0
H1801 H 0.68569 0.02581 0.39658 0.0
H1802 H 0.84622 0.92858 0.37498 0.0
H1803 H 0.85605 0.97136 0.35577 0.0
H1804 H 0.82549 0.90981 0.42523 0.0
H1805 H 0.7819 0.89951 0.44231 0.0
C1806 C 0.31128 0.52457 0.60425 0.0
C1807 C 0.29558 0.50045 0.63075 0.0
C1808 C 0.23429 0.52354 0.61681 0.0
C1809 C 0.24926 0.54544 0.58795 0.0
N1810 N 0.30154 0.56203 0.54986 0.0
N1811 N 0.24169 0.46832 0.6531 0.0
C1812 C 0.28761 0.54423 0.58005 0.0
C1813 C 0.25693 0.4973 0.63429 0.0
N1814 N 0.3485 0.53016 0.6034 0.0
N1815 N 0.19875 0.52802 0.62829 0.0
H1816 H 0.25739 0.44722 0.66474 0.0
H1817 H 0.21349 0.46292 0.65334 0.0
H1818 H 0.1807 0.54687 0.61656 0.0
H1819 H 0.18821 0.51531 0.65185 0.0
H1820 H 0.36104 0.55056 0.5875 0.0
H1821 H 0.3667 0.51652 0.62093 0.0
H1822 H 0.32852 0.55858 0.54067 0.0
H1823 H 0.28563 0.57829 0.53237 0.0
loop_
_geom_bond_atom_site_label_1
_geom_bond_atom_site_label_2
_geom_bond_distance
_geom_bond_site_symmetry_2
_ccdc_geom_bond_type
Sc0 O3 2.025 . S
Sc0 O10 2.105 1_455 S
Sc0 O13 2.105 . S
Sc0 O16 2.105 1_455 S
Sc0 O19 2.105 . S
Sc1 O3 2.025 . S
Sc1 O11 2.105 . S
Sc1 O15 2.105 . S
Sc1 O17 2.105 . S
Sc1 O21 2.105 . S
Sc2 O3 2.025 . S
Sc2 O12 2.105 . S
Sc2 O14 2.101 1_455 S
Sc2 O18 2.105 . S
Sc2 O20 2.105 1_455 S
O3 Sc0 2.025 . S
O3 Sc1 2.025 . S
O3 Sc2 2.025 . S
C4 O10 1.268 . S
C4 O20 1.268 . S
C5 O11 1.268 . S
C5 O19 1.268 . S
C6 O12 1.268 . S
C6 O21 1.268 . S
C7 O13 1.268 . S
C7 O17 1.268 . S
C8 O14 1.271 . S
C8 O16 1.268 . S
C9 O15 1.268 . S
C9 O18 1.268 . S
O10 Sc0 2.105 1_655 S
O10 C4 1.268 . S
O11 Sc1 2.105 . S
O11 C5 1.268 . S
O12 Sc2 2.105 . S
O12 C6 1.268 . S
O13 Sc0 2.105 . S
O13 C7 1.268 . S
O14 Sc2 2.101 1_655 S
O14 C8 1.271 . S
O15 Sc1 2.105 . S
O15 C9 1.268 . S
O16 Sc0 2.105 1_655 S
O16 C8 1.268 . S
O17 Sc1 2.105 . S
O17 C7 1.268 . S
O18 Sc2 2.105 . S
O18 C9 1.268 . S
O19 Sc0 2.105 . S
O19 C5 1.268 . S
O20 Sc2 2.105 1_655 S
O20 C4 1.268 . S
O21 Sc1 2.105 . S
O21 C6 1.268 . S
Sc22 O25 2.025 . S
Sc22 O32 2.105 . S
Sc22 O35 2.105 . S
Sc22 O38 2.105 . S
Sc22 O41 2.105 . S
Sc23 O25 2.025 . S
Sc23 O33 2.105 . S
Sc23 O37 2.105 . S
Sc23 O39 2.105 . S
Sc23 O43 2.105 . S
Sc24 O25 2.025 . S
Sc24 O34 2.105 . S
Sc24 O36 2.105 . S
Sc24 O40 2.105 . S
Sc24 O42 2.105 . S
O25 Sc22 2.025 . S
O25 Sc23 2.025 . S
O25 Sc24 2.025 . S
C26 O32 1.268 . S
C26 O42 1.268 . S
C27 O33 1.268 . S
C27 O41 1.268 . S
C28 O34 1.268 . S
C28 O43 1.268 . S
C29 O35 1.268 . S
C29 O39 1.268 . S
C30 O36 1.268 . S
C30 O38 1.268 . S
C31 O37 1.268 . S
C31 O40 1.268 . S
O32 Sc22 2.105 . S
O32 C26 1.268 . S
O33 Sc23 2.105 . S
O33 C27 1.268 . S
O34 Sc24 2.105 . S
O34 C28 1.268 . S
O35 Sc22 2.105 . S
O35 C29 1.268 . S
O36 Sc24 2.105 . S
O36 C30 1.268 . S
O37 Sc23 2.105 . S
O37 C31 1.268 . S
O38 Sc22 2.105 . S
O38 C30 1.268 . S
O39 Sc23 2.105 . S
O39 C29 1.268 . S
O40 Sc24 2.105 . S
O40 C31 1.268 . S
O41 Sc22 2.105 . S
O41 C27 1.268 . S
O42 Sc24 2.105 . S
O42 C26 1.268 . S
O43 Sc23 2.105 . S
O43 C28 1.268 . S
Sc44 O47 2.025 . S
Sc44 O54 2.105 . S
Sc44 O57 2.105 . S
Sc44 O60 2.105 . S
Sc44 O63 2.105 . S
Sc45 O47 2.025 . S
Sc45 O55 2.105 . S
Sc45 O59 2.105 . S
Sc45 O61 2.105 . S
Sc45 O65 2.105 . S
Sc46 O47 2.025 . S
Sc46 O56 2.105 . S
Sc46 O58 2.105 . S
Sc46 O62 2.105 . S
Sc46 O64 2.105 . S
O47 Sc44 2.025 . S
O47 Sc45 2.025 . S
O47 Sc46 2.025 . S
C48 O54 1.268 . S
C48 O64 1.268 . S
C49 O55 1.268 . S
C49 O63 1.268 . S
C50 O56 1.268 . S
C50 O65 1.268 . S
C51 O57 1.268 . S
C51 O61 1.268 . S
C52 O58 1.268 . S
C52 O60 1.268 . S
C53 O59 1.268 . S
C53 O62 1.268 . S
O54 Sc44 2.105 . S
O54 C48 1.268 . S
O55 Sc45 2.105 . S
O55 C49 1.268 . S
O56 Sc46 2.105 . S
O56 C50 1.268 . S
O57 Sc44 2.105 . S
O57 C51 1.268 . S
O58 Sc46 2.105 . S
O58 C52 1.268 . S
O59 Sc45 2.105 . S
O59 C53 1.268 . S
O60 Sc44 2.105 . S
O60 C52 1.268 . S
O61 Sc45 2.105 . S
O61 C51 1.268 . S
O62 Sc46 2.105 . S
O62 C53 1.268 . S
O63 Sc44 2.105 . S
O63 C49 1.268 . S
O64 Sc46 2.105 . S
O64 C48 1.268 . S
O65 Sc45 2.105 . S
O65 C50 1.268 . S
Sc66 O69 2.025 . S
Sc66 O76 2.105 . S
Sc66 O79 2.105 . S
Sc66 O82 2.105 . S
Sc66 O85 2.105 . S
Sc67 O69 2.025 . S
Sc67 O77 2.105 . S
Sc67 O81 2.105 . S
Sc67 O83 2.105 . S
Sc67 O87 2.105 . S
Sc68 O69 2.025 . S
Sc68 O78 2.105 . S
Sc68 O80 2.105 . S
Sc68 O84 2.105 . S
Sc68 O86 2.105 . S
O69 Sc66 2.025 . S
O69 Sc67 2.025 . S
O69 Sc68 2.025 . S
C70 O76 1.268 . S
C70 O86 1.268 . S
C71 O77 1.268 . S
C71 O85 1.268 . S
C72 O78 1.268 . S
C72 O87 1.268 . S
C73 O79 1.268 . S
C73 O83 1.268 . S
C74 O80 1.268 . S
C74 O82 1.268 . S
C75 O81 1.268 . S
C75 O84 1.268 . S
O76 Sc66 2.105 . S
O76 C70 1.268 . S
O77 Sc67 2.105 . S
O77 C71 1.268 . S
O78 Sc68 2.105 . S
O78 C72 1.268 . S
O79 Sc66 2.105 . S
O79 C73 1.268 . S
O80 Sc68 2.105 . S
O80 C74 1.268 . S
O81 Sc67 2.105 . S
O81 C75 1.268 . S
O82 Sc66 2.105 . S
O82 C74 1.268 . S
O83 Sc67 2.105 . S
O83 C73 1.268 . S
O84 Sc68 2.105 . S
O84 C75 1.268 . S
O85 Sc66 2.105 . S
O85 C71 1.268 . S
O86 Sc68 2.105 . S
O86 C70 1.268 . S
O87 Sc67 2.105 . S
O87 C72 1.268 . S
Sc88 O91 2.025 . S
Sc88 O98 2.105 . S
Sc88 O101 2.105 . S
Sc88 O104 2.105 . S
Sc88 O107 2.105 . S
Sc89 O91 2.025 . S
Sc89 O99 2.105 . S
Sc89 O103 2.105 . S
Sc89 O105 2.105 . S
Sc89 O109 2.105 . S
Sc90 O91 2.025 . S
Sc90 O100 2.105 . S
Sc90 O102 2.105 . S
Sc90 O106 2.105 . S
Sc90 O108 2.105 . S
O91 Sc88 2.025 . S
O91 Sc89 2.025 . S
O91 Sc90 2.025 . S
C92 O98 1.268 . S
C92 O108 1.268 . S
C93 O99 1.268 . S
C93 O107 1.268 . S
C94 O100 1.268 . S
C94 O109 1.268 . S
C95 O101 1.268 . S
C95 O105 1.268 . S
C96 O102 1.268 . S
C96 O104 1.268 . S
C97 O103 1.268 . S
C97 O106 1.268 . S
O98 Sc88 2.105 . S
O98 C92 1.268 . S
O99 Sc89 2.105 . S
O99 C93 1.268 . S
O100 Sc90 2.105 . S
O100 C94 1.268 . S
O101 Sc88 2.105 . S
O101 C95 1.268 . S
O102 Sc90 2.105 . S
O102 C96 1.268 . S
O103 Sc89 2.105 . S
O103 C97 1.268 . S
O104 Sc88 2.105 . S
O104 C96 1.268 . S
O105 Sc89 2.105 . S
O105 C95 1.268 . S
O106 Sc90 2.105 . S
O106 C97 1.268 . S
O107 Sc88 2.105 . S
O107 C93 1.268 . S
O108 Sc90 2.105 . S
O108 C92 1.268 . S
O109 Sc89 2.105 . S
O109 C94 1.268 . S
Sc110 O113 2.025 . S
Sc110 O120 2.105 . S
Sc110 O123 2.105 . S
Sc110 O126 2.105 . S
Sc110 O129 2.105 . S
Sc111 O113 2.025 . S
Sc111 O121 2.105 . S
Sc111 O125 2.105 . S
Sc111 O127 2.105 . S
Sc111 O131 2.105 . S
Sc112 O113 2.025 . S
Sc112 O122 2.105 . S
Sc112 O124 2.105 . S
Sc112 O128 2.105 . S
Sc112 O130 2.105 . S
O113 Sc110 2.025 . S
O113 Sc111 2.025 . S
O113 Sc112 2.025 . S
C114 O120 1.268 . S
C114 O130 1.268 . S
C115 O121 1.268 . S
C115 O129 1.268 . S
C116 O122 1.268 . S
C116 O131 1.268 . S
C117 O123 1.268 . S
C117 O127 1.268 . S
C118 O124 1.268 . S
C118 O126 1.268 . S
C119 O125 1.268 . S
C119 O128 1.268 . S
O120 Sc110 2.105 . S
O120 C114 1.268 . S
O121 Sc111 2.105 . S
O121 C115 1.268 . S
O122 Sc112 2.105 . S
O122 C116 1.268 . S
O123 Sc110 2.105 . S
O123 C117 1.268 . S
O124 Sc112 2.105 . S
O124 C118 1.268 . S
O125 Sc111 2.105 . S
O125 C119 1.268 . S
O126 Sc110 2.105 . S
O126 C118 1.268 . S
O127 Sc111 2.105 . S
O127 C117 1.268 . S
O128 Sc112 2.105 . S
O128 C119 1.268 . S
O129 Sc110 2.105 . S
O129 C115 1.268 . S
O130 Sc112 2.105 . S
O130 C114 1.268 . S
O131 Sc111 2.105 . S
O131 C116 1.268 . S
Sc132 O135 2.025 . S
Sc132 O142 2.101 1_655 S
Sc132 O145 2.105 . S
Sc132 O148 2.105 1_655 S
Sc132 O151 2.105 . S
Sc133 O135 2.025 . S
Sc133 O143 2.105 . S
Sc133 O147 2.105 . S
Sc133 O149 2.105 . S
Sc133 O153 2.105 . S
Sc134 O135 2.025 . S
Sc134 O144 2.105 . S
Sc134 O146 2.105 1_655 S
Sc134 O150 2.105 . S
Sc134 O152 2.105 1_655 S
O135 Sc132 2.025 . S
O135 Sc133 2.025 . S
O135 Sc134 2.025 . S
C136 O142 1.271 . S
C136 O152 1.268 . S
C137 O143 1.268 . S
C137 O151 1.268 . S
C138 O144 1.268 . S
C138 O153 1.268 . S
C139 O145 1.268 . S
C139 O149 1.268 . S
C140 O146 1.268 . S
C140 O148 1.268 . S
C141 O147 1.268 . S
C141 O150 1.268 . S
O142 Sc132 2.101 1_455 S
O142 C136 1.271 . S
O143 Sc133 2.105 . S
O143 C137 1.268 . S
O144 Sc134 2.105 . S
O144 C138 1.268 . S
O145 Sc132 2.105 . S
O145 C139 1.268 . S
O146 Sc134 2.105 1_455 S
O146 C140 1.268 . S
O147 Sc133 2.105 . S
O147 C141 1.268 . S
O148 Sc132 2.105 1_455 S
O148 C140 1.268 . S
O149 Sc133 2.105 . S
O149 C139 1.268 . S
O150 Sc134 2.105 . S
O150 C141 1.268 . S
O151 Sc132 2.105 . S
O151 C137 1.268 . S
O152 Sc134 2.105 1_455 S
O152 C136 1.268 . S
O153 Sc133 2.105 . S
O153 C138 1.268 . S
Sc154 O157 2.025 . S
Sc154 O164 2.105 . S
Sc154 O167 2.105 . S
Sc154 O170 2.105 . S
Sc154 O173 2.105 . S
Sc155 O157 2.025 . S
Sc155 O165 2.105 . S
Sc155 O169 2.105 . S
Sc155 O171 2.105 . S
Sc155 O175 2.105 . S
Sc156 O157 2.025 . S
Sc156 O166 2.105 . S
Sc156 O168 2.105 . S
Sc156 O172 2.105 . S
Sc156 O174 2.105 . S
O157 Sc154 2.025 . S
O157 Sc155 2.025 . S
O157 Sc156 2.025 . S
C158 O164 1.268 . S
C158 O174 1.268 . S
C159 O165 1.268 . S
C159 O173 1.268 . S
C160 O166 1.268 . S
C160 O175 1.268 . S
C161 O167 1.268 . S
C161 O171 1.268 . S
C162 O168 1.268 . S
C162 O170 1.268 . S
C163 O169 1.268 . S
C163 O172 1.268 . S
O164 Sc154 2.105 . S
O164 C158 1.268 . S
O165 Sc155 2.105 . S
O165 C159 1.268 . S
O166 Sc156 2.105 . S
O166 C160 1.268 . S
O167 Sc154 2.105 . S
O167 C161 1.268 . S
O168 Sc156 2.105 . S
O168 C162 1.268 . S
O169 Sc155 2.105 . S
O169 C163 1.268 . S
O170 Sc154 2.105 . S
O170 C162 1.268 . S
O171 Sc155 2.105 . S
O171 C161 1.268 . S
O172 Sc156 2.105 . S
O172 C163 1.268 . S
O173 Sc154 2.105 . S
O173 C159 1.268 . S
O174 Sc156 2.105 . S
O174 C158 1.268 . S
O175 Sc155 2.105 . S
O175 C160 1.268 . S
Sc176 O179 2.025 . S
Sc176 O186 2.101 1_545 S
Sc176 O189 2.105 . S
Sc176 O192 2.105 1_545 S
Sc176 O195 2.105 . S
Sc177 O179 2.025 . S
Sc177 O187 2.105 . S
Sc177 O191 2.105 . S
Sc177 O193 2.105 . S
Sc177 O197 2.105 . S
Sc178 O179 2.025 . S
Sc178 O188 2.105 . S
Sc178 O190 2.105 1_545 S
Sc178 O194 2.105 . S
Sc178 O196 2.105 1_545 S
O179 Sc176 2.025 . S
O179 Sc177 2.025 . S
O179 Sc178 2.025 . S
C180 O186 1.271 . S
C180 O196 1.268 . S
C181 O187 1.268 . S
C181 O195 1.268 . S
C182 O188 1.268 . S
C182 O197 1.268 . S
C183 O189 1.268 . S
C183 O193 1.268 . S
C184 O190 1.268 . S
C184 O192 1.268 . S
C185 O191 1.268 . S
C185 O194 1.268 . S
O186 Sc176 2.101 1_565 S
O186 C180 1.271 . S
O187 Sc177 2.105 . S
O187 C181 1.268 . S
O188 Sc178 2.105 . S
O188 C182 1.268 . S
O189 Sc176 2.105 . S
O189 C183 1.268 . S
O190 Sc178 2.105 1_565 S
O190 C184 1.268 . S
O191 Sc177 2.105 . S
O191 C185 1.268 . S
O192 Sc176 2.105 1_565 S
O192 C184 1.268 . S
O193 Sc177 2.105 . S
O193 C183 1.268 . S
O194 Sc178 2.105 . S
O194 C185 1.268 . S
O195 Sc176 2.105 . S
O195 C181 1.268 . S
O196 Sc178 2.105 1_565 S
O196 C180 1.268 . S
O197 Sc177 2.105 . S
O197 C182 1.268 . S
Sc198 O201 2.025 . S
Sc198 O208 2.105 . S
Sc198 O211 2.105 . S
Sc198 O214 2.105 . S
Sc198 O217 2.105 . S
Sc199 O201 2.025 . S
Sc199 O209 2.105 . S
Sc199 O213 2.105 . S
Sc199 O215 2.105 . S
Sc199 O219 2.105 . S
Sc200 O201 2.025 . S
Sc200 O210 2.105 . S
Sc200 O212 2.105 . S
Sc200 O216 2.105 . S
Sc200 O218 2.105 . S
O201 Sc198 2.025 . S
O201 Sc199 2.025 . S
O201 Sc200 2.025 . S
C202 O208 1.268 . S
C202 O218 1.268 . S
C203 O209 1.268 . S
C203 O217 1.268 . S
C204 O210 1.268 . S
C204 O219 1.268 . S
C205 O211 1.268 . S
C205 O215 1.268 . S
C206 O212 1.268 . S
C206 O214 1.268 . S
C207 O213 1.268 . S
C207 O216 1.268 . S
O208 Sc198 2.105 . S
O208 C202 1.268 . S
O209 Sc199 2.105 . S
O209 C203 1.268 . S
O210 Sc200 2.105 . S
O210 C204 1.268 . S
O211 Sc198 2.105 . S
O211 C205 1.268 . S
O212 Sc200 2.105 . S
O212 C206 1.268 . S
O213 Sc199 2.105 . S
O213 C207 1.268 . S
O214 Sc198 2.105 . S
O214 C206 1.268 . S
O215 Sc199 2.105 . S
O215 C205 1.268 . S
O216 Sc200 2.105 . S
O216 C207 1.268 . S
O217 Sc198 2.105 . S
O217 C203 1.268 . S
O218 Sc200 2.105 . S
O218 C202 1.268 . S
O219 Sc199 2.105 . S
O219 C204 1.268 . S
Sc220 O223 2.025 . S
Sc220 O230 2.105 1_565 S
Sc220 O233 2.105 . S
Sc220 O236 2.105 1_565 S
Sc220 O239 2.105 . S
Sc221 O223 2.025 . S
Sc221 O231 2.105 . S
Sc221 O235 2.105 . S
Sc221 O237 2.105 . S
Sc221 O241 2.105 . S
Sc222 O223 2.025 . S
Sc222 O232 2.105 . S
Sc222 O234 2.101 1_565 S
Sc222 O238 2.105 . S
Sc222 O240 2.105 1_565 S
O223 Sc220 2.025 . S
O223 Sc221 2.025 . S
O223 Sc222 2.025 . S
C224 O230 1.268 . S
C224 O240 1.268 . S
C225 O231 1.268 . S
C225 O239 1.268 . S
C226 O232 1.268 . S
C226 O241 1.268 . S
C227 O233 1.268 . S
C227 O237 1.268 . S
C228 O234 1.271 . S
C228 O236 1.268 . S
C229 O235 1.268 . S
C229 O238 1.268 . S
O230 Sc220 2.105 1_545 S
O230 C224 1.268 . S
O231 Sc221 2.105 . S
O231 C225 1.268 . S
O232 Sc222 2.105 . S
O232 C226 1.268 . S
O233 Sc220 2.105 . S
O233 C227 1.268 . S
O234 Sc222 2.101 1_545 S
O234 C228 1.271 . S
O235 Sc221 2.105 . S
O235 C229 1.268 . S
O236 Sc220 2.105 1_545 S
O236 C228 1.268 . S
O237 Sc221 2.105 . S
O237 C227 1.268 . S
O238 Sc222 2.105 . S
O238 C229 1.268 . S
O239 Sc220 2.105 . S
O239 C225 1.268 . S
O240 Sc222 2.105 1_545 S
O240 C224 1.268 . S
O241 Sc221 2.105 . S
O241 C226 1.268 . S
Sc242 O245 2.025 . S
Sc242 O252 2.105 . S
Sc242 O255 2.105 . S
Sc242 O258 2.105 . S
Sc242 O261 2.105 . S
Sc243 O245 2.025 . S
Sc243 O253 2.105 . S
Sc243 O257 2.105 . S
Sc243 O259 2.105 . S
Sc243 O263 2.105 . S
Sc244 O245 2.025 . S
Sc244 O254 2.105 . S
Sc244 O256 2.105 . S
Sc244 O260 2.105 . S
Sc244 O262 2.105 . S
O245 Sc242 2.025 . S
O245 Sc243 2.025 . S
O245 Sc244 2.025 . S
C246 O252 1.268 . S
C246 O262 1.268 . S
C247 O253 1.268 . S
C247 O261 1.268 . S
C248 O254 1.268 . S
C248 O263 1.268 . S
C249 O255 1.268 . S
C249 O259 1.268 . S
C250 O256 1.268 . S
C250 O258 1.268 . S
C251 O257 1.268 . S
C251 O260 1.268 . S
O252 Sc242 2.105 . S
O252 C246 1.268 . S
O253 Sc243 2.105 . S
O253 C247 1.268 . S
O254 Sc244 2.105 . S
O254 C248 1.268 . S
O255 Sc242 2.105 . S
O255 C249 1.268 . S
O256 Sc244 2.105 . S
O256 C250 1.268 . S
O257 Sc243 2.105 . S
O257 C251 1.268 . S
O258 Sc242 2.105 . S
O258 C250 1.268 . S
O259 Sc243 2.105 . S
O259 C249 1.268 . S
O260 Sc244 2.105 . S
O260 C251 1.268 . S
O261 Sc242 2.105 . S
O261 C247 1.268 . S
O262 Sc244 2.105 . S
O262 C246 1.268 . S
O263 Sc243 2.105 . S
O263 C248 1.268 . S
Sc264 O267 2.025 . S
Sc264 O274 2.105 . S
Sc264 O277 2.105 . S
Sc264 O280 2.105 . S
Sc264 O283 2.105 . S
Sc265 O267 2.025 . S
Sc265 O275 2.105 . S
Sc265 O279 2.105 . S
Sc265 O281 2.105 . S
Sc265 O285 2.105 . S
Sc266 O267 2.025 . S
Sc266 O276 2.105 . S
Sc266 O278 2.105 . S
Sc266 O282 2.105 . S
Sc266 O284 2.105 . S
O267 Sc264 2.025 . S
O267 Sc265 2.025 . S
O267 Sc266 2.025 . S
C268 O274 1.268 . S
C268 O284 1.268 . S
C269 O275 1.268 . S
C269 O283 1.268 . S
C270 O276 1.268 . S
C270 O285 1.268 . S
C271 O277 1.268 . S
C271 O281 1.268 . S
C272 O278 1.268 . S
C272 O280 1.268 . S
C273 O279 1.268 . S
C273 O282 1.268 . S
O274 Sc264 2.105 . S
O274 C268 1.268 . S
O275 Sc265 2.105 . S
O275 C269 1.268 . S
O276 Sc266 2.105 . S
O276 C270 1.268 . S
O277 Sc264 2.105 . S
O277 C271 1.268 . S
O278 Sc266 2.105 . S
O278 C272 1.268 . S
O279 Sc265 2.105 . S
O279 C273 1.268 . S
O280 Sc264 2.105 . S
O280 C272 1.268 . S
O281 Sc265 2.105 . S
O281 C271 1.268 . S
O282 Sc266 2.105 . S
O282 C273 1.268 . S
O283 Sc264 2.105 . S
O283 C269 1.268 . S
O284 Sc266 2.105 . S
O284 C268 1.268 . S
O285 Sc265 2.105 . S
O285 C270 1.268 . S
Sc286 O289 2.025 . S
Sc286 O296 2.105 . S
Sc286 O299 2.105 . S
Sc286 O302 2.105 . S
Sc286 O305 2.105 . S
Sc287 O289 2.025 . S
Sc287 O297 2.105 . S
Sc287 O301 2.105 . S
Sc287 O303 2.105 . S
Sc287 O307 2.105 . S
Sc288 O289 2.025 . S
Sc288 O298 2.105 . S
Sc288 O300 2.105 . S
Sc288 O304 2.105 . S
Sc288 O306 2.105 . S
O289 Sc286 2.025 . S
O289 Sc287 2.025 . S
O289 Sc288 2.025 . S
C290 O296 1.268 . S
C290 O306 1.268 . S
C291 O297 1.268 . S
C291 O305 1.268 . S
C292 O298 1.268 . S
C292 O307 1.268 . S
C293 O299 1.268 . S
C293 O303 1.268 . S
C294 O300 1.268 . S
C294 O302 1.268 . S
C295 O301 1.268 . S
C295 O304 1.268 . S
O296 Sc286 2.105 . S
O296 C290 1.268 . S
O297 Sc287 2.105 . S
O297 C291 1.268 . S
O298 Sc288 2.105 . S
O298 C292 1.268 . S
O299 Sc286 2.105 . S
O299 C293 1.268 . S
O300 Sc288 2.105 . S
O300 C294 1.268 . S
O301 Sc287 2.105 . S
O301 C295 1.268 . S
O302 Sc286 2.105 . S
O302 C294 1.268 . S
O303 Sc287 2.105 . S
O303 C293 1.268 . S
O304 Sc288 2.105 . S
O304 C295 1.268 . S
O305 Sc286 2.105 . S
O305 C291 1.268 . S
O306 Sc288 2.105 . S
O306 C290 1.268 . S
O307 Sc287 2.105 . S
O307 C292 1.268 . S
Sc308 O311 2.025 . S
Sc308 O318 2.105 . S
Sc308 O321 2.105 . S
Sc308 O324 2.105 . S
Sc308 O327 2.105 . S
Sc309 O311 2.025 . S
Sc309 O319 2.105 . S
Sc309 O323 2.105 . S
Sc309 O325 2.105 . S
Sc309 O329 2.105 . S
Sc310 O311 2.025 . S
Sc310 O320 2.105 . S
Sc310 O322 2.105 . S
Sc310 O326 2.105 . S
Sc310 O328 2.105 . S
O311 Sc308 2.025 . S
O311 Sc309 2.025 . S
O311 Sc310 2.025 . S
C312 O318 1.268 . S
C312 O328 1.268 . S
C313 O319 1.268 . S
C313 O327 1.268 . S
C314 O320 1.268 . S
C314 O329 1.268 . S
C315 O321 1.268 . S
C315 O325 1.268 . S
C316 O322 1.268 . S
C316 O324 1.268 . S
C317 O323 1.268 . S
C317 O326 1.268 . S
O318 Sc308 2.105 . S
O318 C312 1.268 . S
O319 Sc309 2.105 . S
O319 C313 1.268 . S
O320 Sc310 2.105 . S
O320 C314 1.268 . S
O321 Sc308 2.105 . S
O321 C315 1.268 . S
O322 Sc310 2.105 . S
O322 C316 1.268 . S
O323 Sc309 2.105 . S
O323 C317 1.268 . S
O324 Sc308 2.105 . S
O324 C316 1.268 . S
O325 Sc309 2.105 . S
O325 C315 1.268 . S
O326 Sc310 2.105 . S
O326 C317 1.268 . S
O327 Sc308 2.105 . S
O327 C313 1.268 . S
O328 Sc310 2.105 . S
O328 C312 1.268 . S
O329 Sc309 2.105 . S
O329 C314 1.268 . S
Sc330 O333 2.025 . S
Sc330 O340 2.105 . S
Sc330 O343 2.105 . S
Sc330 O346 2.105 . S
Sc330 O349 2.105 . S
Sc331 O333 2.025 . S
Sc331 O341 2.105 . S
Sc331 O345 2.105 . S
Sc331 O347 2.105 . S
Sc331 O351 2.105 . S
Sc332 O333 2.025 . S
Sc332 O342 2.105 . S
Sc332 O344 2.105 . S
Sc332 O348 2.105 . S
Sc332 O350 2.105 . S
O333 Sc330 2.025 . S
O333 Sc331 2.025 . S
O333 Sc332 2.025 . S
C334 O340 1.268 . S
C334 O350 1.268 . S
C335 O341 1.268 . S
C335 O349 1.268 . S
C336 O342 1.268 . S
C336 O351 1.268 . S
C337 O343 1.268 . S
C337 O347 1.268 . S
C338 O344 1.268 . S
C338 O346 1.268 . S
C339 O345 1.268 . S
C339 O348 1.268 . S
O340 Sc330 2.105 . S
O340 C334 1.268 . S
O341 Sc331 2.105 . S
O341 C335 1.268 . S
O342 Sc332 2.105 . S
O342 C336 1.268 . S
O343 Sc330 2.105 . S
O343 C337 1.268 . S
O344 Sc332 2.105 . S
O344 C338 1.268 . S
O345 Sc331 2.105 . S
O345 C339 1.268 . S
O346 Sc330 2.105 . S
O346 C338 1.268 . S
O347 Sc331 2.105 . S
O347 C337 1.268 . S
O348 Sc332 2.105 . S
O348 C339 1.268 . S
O349 Sc330 2.105 . S
O349 C335 1.268 . S
O350 Sc332 2.105 . S
O350 C334 1.268 . S
O351 Sc331 2.105 . S
O351 C336 1.268 . S
Sc352 O355 2.025 . S
Sc352 O362 2.105 1_554 S
Sc352 O365 2.105 . S
Sc352 O368 2.105 1_554 S
Sc352 O371 2.105 . S
Sc353 O355 2.025 . S
Sc353 O363 2.105 . S
Sc353 O367 2.105 . S
Sc353 O369 2.105 . S
Sc353 O373 2.105 . S
Sc354 O355 2.025 . S
Sc354 O364 2.105 . S
Sc354 O366 2.101 1_554 S
Sc354 O370 2.105 . S
Sc354 O372 2.105 1_554 S
O355 Sc352 2.025 . S
O355 Sc353 2.025 . S
O355 Sc354 2.025 . S
C356 O362 1.268 . S
C356 O372 1.268 . S
C357 O363 1.268 . S
C357 O371 1.268 . S
C358 O364 1.268 . S
C358 O373 1.268 . S
C359 O365 1.268 . S
C359 O369 1.268 . S
C360 O366 1.271 . S
C360 O368 1.268 . S
C361 O367 1.268 . S
C361 O370 1.268 . S
O362 Sc352 2.105 1_556 S
O362 C356 1.268 . S
O363 Sc353 2.105 . S
O363 C357 1.268 . S
O364 Sc354 2.105 . S
O364 C358 1.268 . S
O365 Sc352 2.105 . S
O365 C359 1.268 . S
O366 Sc354 2.101 1_556 S
O366 C360 1.271 . S
O367 Sc353 2.105 . S
O367 C361 1.268 . S
O368 Sc352 2.105 1_556 S
O368 C360 1.268 . S
O369 Sc353 2.105 . S
O369 C359 1.268 . S
O370 Sc354 2.105 . S
O370 C361 1.268 . S
O371 Sc352 2.105 . S
O371 C357 1.268 . S
O372 Sc354 2.105 1_556 S
O372 C356 1.268 . S
O373 Sc353 2.105 . S
O373 C358 1.268 . S
Sc374 O377 2.025 . S
Sc374 O384 2.101 1_556 S
Sc374 O387 2.105 . S
Sc374 O390 2.105 1_556 S
Sc374 O393 2.105 . S
Sc375 O377 2.025 . S
Sc375 O385 2.105 . S
Sc375 O389 2.105 . S
Sc375 O391 2.105 . S
Sc375 O395 2.105 . S
Sc376 O377 2.025 . S
Sc376 O386 2.105 . S
Sc376 O388 2.105 1_556 S
Sc376 O392 2.105 . S
Sc376 O394 2.105 1_556 S
O377 Sc374 2.025 . S
O377 Sc375 2.025 . S
O377 Sc376 2.025 . S
C378 O384 1.271 . S
C378 O394 1.268 . S
C379 O385 1.268 . S
C379 O393 1.268 . S
C380 O386 1.268 . S
C380 O395 1.268 . S
C381 O387 1.268 . S
C381 O391 1.268 . S
C382 O388 1.268 . S
C382 O390 1.268 . S
C383 O389 1.268 . S
C383 O392 1.268 . S
O384 Sc374 2.101 1_554 S
O384 C378 1.271 . S
O385 Sc375 2.105 . S
O385 C379 1.268 . S
O386 Sc376 2.105 . S
O386 C380 1.268 . S
O387 Sc374 2.105 . S
O387 C381 1.268 . S
O388 Sc376 2.105 1_554 S
O388 C382 1.268 . S
O389 Sc375 2.105 . S
O389 C383 1.268 . S
O390 Sc374 2.105 1_554 S
O390 C382 1.268 . S
O391 Sc375 2.105 . S
O391 C381 1.268 . S
O392 Sc376 2.105 . S
O392 C383 1.268 . S
O393 Sc374 2.105 . S
O393 C379 1.268 . S
O394 Sc376 2.105 1_554 S
O394 C378 1.268 . S
O395 Sc375 2.105 . S
O395 C380 1.268 . S
Sc396 O399 2.025 . S
Sc396 O406 2.105 . S
Sc396 O409 2.105 . S
Sc396 O412 2.105 . S
Sc396 O415 2.105 . S
Sc397 O399 2.025 . S
Sc397 O407 2.105 . S
Sc397 O411 2.105 . S
Sc397 O413 2.105 . S
Sc397 O417 2.105 . S
Sc398 O399 2.025 . S
Sc398 O408 2.105 . S
Sc398 O410 2.105 . S
Sc398 O414 2.105 . S
Sc398 O416 2.105 . S
O399 Sc396 2.025 . S
O399 Sc397 2.025 . S
O399 Sc398 2.025 . S
C400 O406 1.268 . S
C400 O416 1.268 . S
C401 O407 1.268 . S
C401 O415 1.268 . S
C402 O408 1.268 . S
C402 O417 1.268 . S
C403 O409 1.268 . S
C403 O413 1.268 . S
C404 O410 1.268 . S
C404 O412 1.268 . S
C405 O411 1.268 . S
C405 O414 1.268 . S
O406 Sc396 2.105 . S
O406 C400 1.268 . S
O407 Sc397 2.105 . S
O407 C401 1.268 . S
O408 Sc398 2.105 . S
O408 C402 1.268 . S
O409 Sc396 2.105 . S
O409 C403 1.268 . S
O410 Sc398 2.105 . S
O410 C404 1.268 . S
O411 Sc397 2.105 . S
O411 C405 1.268 . S
O412 Sc396 2.105 . S
O412 C404 1.268 . S
O413 Sc397 2.105 . S
O413 C403 1.268 . S
O414 Sc398 2.105 . S
O414 C405 1.268 . S
O415 Sc396 2.105 . S
O415 C401 1.268 . S
O416 Sc398 2.105 . S
O416 C400 1.268 . S
O417 Sc397 2.105 . S
O417 C402 1.268 . S
Sc418 O421 2.025 . S
Sc418 O428 2.105 . S
Sc418 O431 2.105 . S
Sc418 O434 2.105 . S
Sc418 O437 2.105 . S
Sc419 O421 2.025 . S
Sc419 O429 2.105 . S
Sc419 O433 2.105 . S
Sc419 O435 2.105 . S
Sc419 O439 2.105 . S
Sc420 O421 2.025 . S
Sc420 O430 2.105 . S
Sc420 O432 2.105 . S
Sc420 O436 2.105 . S
Sc420 O438 2.105 . S
O421 Sc418 2.025 . S
O421 Sc419 2.025 . S
O421 Sc420 2.025 . S
C422 O428 1.268 . S
C422 O438 1.268 . S
C423 O429 1.268 . S
C423 O437 1.268 . S
C424 O430 1.268 . S
C424 O439 1.268 . S
C425 O431 1.268 . S
C425 O435 1.268 . S
C426 O432 1.268 . S
C426 O434 1.268 . S
C427 O433 1.268 . S
C427 O436 1.268 . S
O428 Sc418 2.105 . S
O428 C422 1.268 . S
O429 Sc419 2.105 . S
O429 C423 1.268 . S
O430 Sc420 2.105 . S
O430 C424 1.268 . S
O431 Sc418 2.105 . S
O431 C425 1.268 . S
O432 Sc420 2.105 . S
O432 C426 1.268 . S
O433 Sc419 2.105 . S
O433 C427 1.268 . S
O434 Sc418 2.105 . S
O434 C426 1.268 . S
O435 Sc419 2.105 . S
O435 C425 1.268 . S
O436 Sc420 2.105 . S
O436 C427 1.268 . S
O437 Sc418 2.105 . S
O437 C423 1.268 . S
O438 Sc420 2.105 . S
O438 C422 1.268 . S
O439 Sc419 2.105 . S
O439 C424 1.268 . S
Sc440 O443 2.025 . S
Sc440 O450 2.105 . S
Sc440 O453 2.105 . S
Sc440 O456 2.105 . S
Sc440 O459 2.105 . S
Sc441 O443 2.025 . S
Sc441 O451 2.105 . S
Sc441 O455 2.105 . S
Sc441 O457 2.105 . S
Sc441 O461 2.105 . S
Sc442 O443 2.025 . S
Sc442 O452 2.105 . S
Sc442 O454 2.105 . S
Sc442 O458 2.105 . S
Sc442 O460 2.105 . S
O443 Sc440 2.025 . S
O443 Sc441 2.025 . S
O443 Sc442 2.025 . S
C444 O450 1.268 . S
C444 O460 1.268 . S
C445 O451 1.268 . S
C445 O459 1.268 . S
C446 O452 1.268 . S
C446 O461 1.268 . S
C447 O453 1.268 . S
C447 O457 1.268 . S
C448 O454 1.268 . S
C448 O456 1.268 . S
C449 O455 1.268 . S
C449 O458 1.268 . S
O450 Sc440 2.105 . S
O450 C444 1.268 . S
O451 Sc441 2.105 . S
O451 C445 1.268 . S
O452 Sc442 2.105 . S
O452 C446 1.268 . S
O453 Sc440 2.105 . S
O453 C447 1.268 . S
O454 Sc442 2.105 . S
O454 C448 1.268 . S
O455 Sc441 2.105 . S
O455 C449 1.268 . S
O456 Sc440 2.105 . S
O456 C448 1.268 . S
O457 Sc441 2.105 . S
O457 C447 1.268 . S
O458 Sc442 2.105 . S
O458 C449 1.268 . S
O459 Sc440 2.105 . S
O459 C445 1.268 . S
O460 Sc442 2.105 . S
O460 C444 1.268 . S
O461 Sc441 2.105 . S
O461 C446 1.268 . S
Sc462 O465 2.025 . S
Sc462 O472 2.105 . S
Sc462 O475 2.105 . S
Sc462 O478 2.105 . S
Sc462 O481 2.105 . S
Sc463 O465 2.025 . S
Sc463 O473 2.105 . S
Sc463 O477 2.105 . S
Sc463 O479 2.105 . S
Sc463 O483 2.105 . S
Sc464 O465 2.025 . S
Sc464 O474 2.105 . S
Sc464 O476 2.105 . S
Sc464 O480 2.105 . S
Sc464 O482 2.105 . S
O465 Sc462 2.025 . S
O465 Sc463 2.025 . S
O465 Sc464 2.025 . S
C466 O472 1.268 . S
C466 O482 1.268 . S
C467 O473 1.268 . S
C467 O481 1.268 . S
C468 O474 1.268 . S
C468 O483 1.268 . S
C469 O475 1.268 . S
C469 O479 1.268 . S
C470 O476 1.268 . S
C470 O478 1.268 . S
C471 O477 1.268 . S
C471 O480 1.268 . S
O472 Sc462 2.105 . S
O472 C466 1.268 . S
O473 Sc463 2.105 . S
O473 C467 1.268 . S
O474 Sc464 2.105 . S
O474 C468 1.268 . S
O475 Sc462 2.105 . S
O475 C469 1.268 . S
O476 Sc464 2.105 . S
O476 C470 1.268 . S
O477 Sc463 2.105 . S
O477 C471 1.268 . S
O478 Sc462 2.105 . S
O478 C470 1.268 . S
O479 Sc463 2.105 . S
O479 C469 1.268 . S
O480 Sc464 2.105 . S
O480 C471 1.268 . S
O481 Sc462 2.105 . S
O481 C467 1.268 . S
O482 Sc464 2.105 . S
O482 C466 1.268 . S
O483 Sc463 2.105 . S
O483 C468 1.268 . S
Sc484 O487 2.025 . S
Sc484 O494 2.105 . S
Sc484 O497 2.105 . S
Sc484 O500 2.105 . S
Sc484 O503 2.105 . S
Sc485 O487 2.025 . S
Sc485 O495 2.105 . S
Sc485 O499 2.105 . S
Sc485 O501 2.105 . S
Sc485 O505 2.105 . S
Sc486 O487 2.025 . S
Sc486 O496 2.105 . S
Sc486 O498 2.105 . S
Sc486 O502 2.105 . S
Sc486 O504 2.105 . S
O487 Sc484 2.025 . S
O487 Sc485 2.025 . S
O487 Sc486 2.025 . S
C488 O494 1.268 . S
C488 O504 1.268 . S
C489 O495 1.268 . S
C489 O503 1.268 . S
C490 O496 1.268 . S
C490 O505 1.268 . S
C491 O497 1.268 . S
C491 O501 1.268 . S
C492 O498 1.268 . S
C492 O500 1.268 . S
C493 O499 1.268 . S
C493 O502 1.268 . S
O494 Sc484 2.105 . S
O494 C488 1.268 . S
O495 Sc485 2.105 . S
O495 C489 1.268 . S
O496 Sc486 2.105 . S
O496 C490 1.268 . S
O497 Sc484 2.105 . S
O497 C491 1.268 . S
O498 Sc486 2.105 . S
O498 C492 1.268 . S
O499 Sc485 2.105 . S
O499 C493 1.268 . S
O500 Sc484 2.105 . S
O500 C492 1.268 . S
O501 Sc485 2.105 . S
O501 C491 1.268 . S
O502 Sc486 2.105 . S
O502 C493 1.268 . S
O503 Sc484 2.105 . S
O503 C489 1.268 . S
O504 Sc486 2.105 . S
O504 C488 1.268 . S
O505 Sc485 2.105 . S
O505 C490 1.268 . S
Sc506 O509 2.025 . S
Sc506 O516 2.105 . S
Sc506 O519 2.105 . S
Sc506 O522 2.105 . S
Sc506 O525 2.105 . S
Sc507 O509 2.025 . S
Sc507 O517 2.105 . S
Sc507 O521 2.105 . S
Sc507 O523 2.105 . S
Sc507 O527 2.105 . S
Sc508 O509 2.025 . S
Sc508 O518 2.105 . S
Sc508 O520 2.105 . S
Sc508 O524 2.105 . S
Sc508 O526 2.105 . S
O509 Sc506 2.025 . S
O509 Sc507 2.025 . S
O509 Sc508 2.025 . S
C510 O516 1.268 . S
C510 O526 1.268 . S
C511 O517 1.268 . S
C511 O525 1.268 . S
C512 O518 1.268 . S
C512 O527 1.268 . S
C513 O519 1.268 . S
C513 O523 1.268 . S
C514 O520 1.268 . S
C514 O522 1.268 . S
C515 O521 1.268 . S
C515 O524 1.268 . S
O516 Sc506 2.105 . S
O516 C510 1.268 . S
O517 Sc507 2.105 . S
O517 C511 1.268 . S
O518 Sc508 2.105 . S
O518 C512 1.268 . S
O519 Sc506 2.105 . S
O519 C513 1.268 . S
O520 Sc508 2.105 . S
O520 C514 1.268 . S
O521 Sc507 2.105 . S
O521 C515 1.268 . S
O522 Sc506 2.105 . S
O522 C514 1.268 . S
O523 Sc507 2.105 . S
O523 C513 1.268 . S
O524 Sc508 2.105 . S
O524 C515 1.268 . S
O525 Sc506 2.105 . S
O525 C511 1.268 . S
O526 Sc508 2.105 . S
O526 C510 1.268 . S
O527 Sc507 2.105 . S
O527 C512 1.268 . S
C528 C529 1.363 . S
C528 C534 1.379 . S
C528 N536 1.356 . S
C529 C528 1.363 . S
C529 C535 1.363 . S
C530 C531 1.363 . S
C530 C535 1.379 . S
C530 N537 1.356 . S
C531 C530 1.363 . S
C531 C534 1.363 . S
N532 C534 1.356 . S
N532 H544 0.984 . S
N532 H545 0.985 . S
N533 C535 1.356 . S
N533 H538 0.984 . S
N533 H539 0.985 . S
C534 C528 1.379 . S
C534 C531 1.363 . S
C534 N532 1.356 . S
C535 C529 1.363 . S
C535 C530 1.379 . S
C535 N533 1.356 . S
N536 C528 1.356 . S
N536 H542 0.984 . S
N536 H543 0.984 . S
N537 C530 1.356 . S
N537 H540 0.984 . S
N537 H541 0.985 . S
H538 N533 0.984 . S
H539 N533 0.985 . S
H540 N537 0.984 . S
H541 N537 0.985 . S
H542 N536 0.984 . S
H543 N536 0.984 . S
H544 N532 0.984 . S
H545 N532 0.985 . S
C546 C547 1.363 . S
C546 C552 1.379 . S
C546 N554 1.356 . S
C547 C546 1.363 . S
C547 C553 1.363 . S
C548 C549 1.363 . S
C548 C553 1.379 . S
C548 N555 1.356 . S
C549 C548 1.363 . S
C549 C552 1.363 . S
N550 C552 1.356 . S
N550 H562 0.984 . S
N550 H563 0.985 . S
N551 C553 1.356 . S
N551 H556 0.984 . S
N551 H557 0.985 . S
C552 C546 1.379 . S
C552 C549 1.363 . S
C552 N550 1.356 . S
C553 C547 1.363 . S
C553 C548 1.379 . S
C553 N551 1.356 . S
N554 C546 1.356 . S
N554 H560 0.984 . S
N554 H561 0.984 . S
N555 C548 1.356 . S
N555 H558 0.984 . S
N555 H559 0.985 . S
H556 N551 0.984 . S
H557 N551 0.985 . S
H558 N555 0.984 . S
H559 N555 0.985 . S
H560 N554 0.984 . S
H561 N554 0.984 . S
H562 N550 0.984 . S
H563 N550 0.985 . S
C564 C565 1.363 . S
C564 C570 1.379 . S
C564 N572 1.356 . S
C565 C564 1.363 . S
C565 C571 1.363 . S
C566 C567 1.363 . S
C566 C571 1.379 . S
C566 N573 1.356 . S
C567 C566 1.363 . S
C567 C570 1.363 . S
N568 C570 1.356 . S
N568 H580 0.984 . S
N568 H581 0.985 . S
N569 C571 1.356 . S
N569 H574 0.984 . S
N569 H575 0.985 . S
C570 C564 1.379 . S
C570 C567 1.363 . S
C570 N568 1.356 . S
C571 C565 1.363 . S
C571 C566 1.379 . S
C571 N569 1.356 . S
N572 C564 1.356 . S
N572 H578 0.984 . S
N572 H579 0.984 . S
N573 C566 1.356 . S
N573 H576 0.984 . S
N573 H577 0.985 . S
H574 N569 0.984 . S
H575 N569 0.985 . S
H576 N573 0.984 . S
H577 N573 0.985 . S
H578 N572 0.984 . S
H579 N572 0.984 . S
H580 N568 0.984 . S
H581 N568 0.985 . S
C582 C583 1.363 . S
C582 C588 1.379 . S
C582 N590 1.356 . S
C583 C582 1.363 . S
C583 C589 1.363 . S
C584 C585 1.363 . S
C584 C589 1.379 . S
C584 N591 1.356 . S
C585 C584 1.363 . S
C585 C588 1.363 . S
N586 C588 1.356 . S
N586 H598 0.984 . S
N586 H599 0.985 . S
N587 C589 1.356 . S
N587 H592 0.984 . S
N587 H593 0.985 . S
C588 C582 1.379 . S
C588 C585 1.363 . S
C588 N586 1.356 . S
C589 C583 1.363 . S
C589 C584 1.379 . S
C589 N587 1.356 . S
N590 C582 1.356 . S
N590 H596 0.984 . S
N590 H597 0.984 . S
N591 C584 1.356 . S
N591 H594 0.984 . S
N591 H595 0.985 . S
H592 N587 0.984 . S
H593 N587 0.985 . S
H594 N591 0.984 . S
H595 N591 0.985 . S
H596 N590 0.984 . S
H597 N590 0.984 . S
H598 N586 0.984 . S
H599 N586 0.985 . S
C600 C601 1.363 . S
C600 C606 1.379 . S
C600 N608 1.356 . S
C601 C600 1.363 . S
C601 C607 1.363 . S
C602 C603 1.363 . S
C602 C607 1.379 . S
C602 N609 1.356 . S
C603 C602 1.363 . S
C603 C606 1.363 . S
N604 C606 1.356 . S
N604 H616 0.984 . S
N604 H617 0.985 . S
N605 C607 1.356 . S
N605 H610 0.984 . S
N605 H611 0.985 . S
C606 C600 1.379 . S
C606 C603 1.363 . S
C606 N604 1.356 . S
C607 C601 1.363 . S
C607 C602 1.379 . S
C607 N605 1.356 . S
N608 C600 1.356 . S
N608 H614 0.984 . S
N608 H615 0.984 . S
N609 C602 1.356 . S
N609 H612 0.984 . S
N609 H613 0.985 . S
H610 N605 0.984 . S
H611 N605 0.985 . S
H612 N609 0.984 . S
H613 N609 0.985 . S
H614 N608 0.984 . S
H615 N608 0.984 . S
H616 N604 0.984 . S
H617 N604 0.985 . S
C618 C619 1.363 . S
C618 C624 1.379 . S
C618 N626 1.356 . S
C619 C618 1.363 . S
C619 C625 1.363 . S
C620 C621 1.363 . S
C620 C625 1.379 . S
C620 N627 1.356 . S
C621 C620 1.363 . S
C621 C624 1.363 . S
N622 C624 1.356 . S
N622 H634 0.984 . S
N622 H635 0.985 . S
N623 C625 1.356 . S
N623 H628 0.984 . S
N623 H629 0.985 . S
C624 C618 1.379 . S
C624 C621 1.363 . S
C624 N622 1.356 . S
C625 C619 1.363 . S
C625 C620 1.379 . S
C625 N623 1.356 . S
N626 C618 1.356 . S
N626 H632 0.984 . S
N626 H633 0.984 . S
N627 C620 1.356 . S
N627 H630 0.984 . S
N627 H631 0.985 . S
H628 N623 0.984 . S
H629 N623 0.985 . S
H630 N627 0.984 . S
H631 N627 0.985 . S
H632 N626 0.984 . S
H633 N626 0.984 . S
H634 N622 0.984 . S
H635 N622 0.985 . S
C636 C637 1.363 . S
C636 C642 1.379 . S
C636 N644 1.356 . S
C637 C636 1.363 . S
C637 C643 1.363 . S
C638 C639 1.363 . S
C638 C643 1.379 . S
C638 N645 1.356 . S
C639 C638 1.363 . S
C639 C642 1.363 . S
N640 C642 1.356 . S
N640 H652 0.984 . S
N640 H653 0.985 . S
N641 C643 1.356 . S
N641 H646 0.984 . S
N641 H647 0.985 . S
C642 C636 1.379 . S
C642 C639 1.363 . S
C642 N640 1.356 . S
C643 C637 1.363 . S
C643 C638 1.379 . S
C643 N641 1.356 . S
N644 C636 1.356 . S
N644 H650 0.984 . S
N644 H651 0.984 . S
N645 C638 1.356 . S
N645 H648 0.984 . S
N645 H649 0.985 . S
H646 N641 0.984 . S
H647 N641 0.985 . S
H648 N645 0.984 . S
H649 N645 0.985 . S
H650 N644 0.984 . S
H651 N644 0.984 . S
H652 N640 0.984 . S
H653 N640 0.985 . S
C654 C655 1.363 . S
C654 C660 1.379 . S
C654 N662 1.356 . S
C655 C654 1.363 . S
C655 C661 1.363 . S
C656 C657 1.363 . S
C656 C661 1.379 . S
C656 N663 1.356 . S
C657 C656 1.363 . S
C657 C660 1.363 . S
N658 C660 1.356 . S
N658 H670 0.984 . S
N658 H671 0.985 . S
N659 C661 1.356 . S
N659 H664 0.984 . S
N659 H665 0.985 . S
C660 C654 1.379 . S
C660 C657 1.363 . S
C660 N658 1.356 . S
C661 C655 1.363 . S
C661 C656 1.379 . S
C661 N659 1.356 . S
N662 C654 1.356 . S
N662 H668 0.984 . S
N662 H669 0.984 . S
N663 C656 1.356 . S
N663 H666 0.984 . S
N663 H667 0.985 . S
H664 N659 0.984 . S
H665 N659 0.985 . S
H666 N663 0.984 . S
H667 N663 0.985 . S
H668 N662 0.984 . S
H669 N662 0.984 . S
H670 N658 0.984 . S
H671 N658 0.985 . S
C672 C673 1.363 . S
C672 C678 1.379 . S
C672 N680 1.356 . S
C673 C672 1.363 . S
C673 C679 1.363 . S
C674 C675 1.363 . S
C674 C679 1.379 . S
C674 N681 1.356 . S
C675 C674 1.363 . S
C675 C678 1.363 . S
N676 C678 1.356 . S
N676 H688 0.984 . S
N676 H689 0.985 . S
N677 C679 1.356 . S
N677 H682 0.984 . S
N677 H683 0.985 . S
C678 C672 1.379 . S
C678 C675 1.363 . S
C678 N676 1.356 . S
C679 C673 1.363 . S
C679 C674 1.379 . S
C679 N677 1.356 . S
N680 C672 1.356 . S
N680 H686 0.984 . S
N680 H687 0.984 . S
N681 C674 1.356 . S
N681 H684 0.984 . S
N681 H685 0.985 . S
H682 N677 0.984 . S
H683 N677 0.985 . S
H684 N681 0.984 . S
H685 N681 0.985 . S
H686 N680 0.984 . S
H687 N680 0.984 . S
H688 N676 0.984 . S
H689 N676 0.985 . S
C690 C691 1.363 . S
C690 C696 1.379 . S
C690 N698 1.356 . S
C691 C690 1.363 . S
C691 C697 1.363 . S
C692 C693 1.363 . S
C692 C697 1.379 . S
C692 N699 1.356 . S
C693 C692 1.363 . S
C693 C696 1.363 . S
N694 C696 1.356 . S
N694 H706 0.984 . S
N694 H707 0.985 . S
N695 C697 1.356 . S
N695 H700 0.984 . S
N695 H701 0.985 . S
C696 C690 1.379 . S
C696 C693 1.363 . S
C696 N694 1.356 . S
C697 C691 1.363 . S
C697 C692 1.379 . S
C697 N695 1.356 . S
N698 C690 1.356 . S
N698 H704 0.984 . S
N698 H705 0.984 . S
N699 C692 1.356 . S
N699 H702 0.984 . S
N699 H703 0.985 . S
H700 N695 0.984 . S
H701 N695 0.985 . S
H702 N699 0.984 . S
H703 N699 0.985 . S
H704 N698 0.984 . S
H705 N698 0.984 . S
H706 N694 0.984 . S
H707 N694 0.985 . S
C708 C709 1.363 . S
C708 C714 1.379 . S
C708 N716 1.356 . S
C709 C708 1.363 . S
C709 C715 1.363 . S
C710 C711 1.363 . S
C710 C715 1.379 . S
C710 N717 1.356 . S
C711 C710 1.363 . S
C711 C714 1.363 . S
N712 C714 1.356 . S
N712 H724 0.984 . S
N712 H725 0.985 . S
N713 C715 1.356 . S
N713 H718 0.984 . S
N713 H719 0.985 . S
C714 C708 1.379 . S
C714 C711 1.363 . S
C714 N712 1.356 . S
C715 C709 1.363 . S
C715 C710 1.379 . S
C715 N713 1.356 . S
N716 C708 1.356 . S
N716 H722 0.984 . S
N716 H723 0.984 . S
N717 C710 1.356 . S
N717 H720 0.984 . S
N717 H721 0.985 . S
H718 N713 0.984 . S
H719 N713 0.985 . S
H720 N717 0.984 . S
H721 N717 0.985 . S
H722 N716 0.984 . S
H723 N716 0.984 . S
H724 N712 0.984 . S
H725 N712 0.985 . S
C726 C727 1.363 . S
C726 C732 1.379 . S
C726 N734 1.356 . S
C727 C726 1.363 . S
C727 C733 1.363 . S
C728 C729 1.363 . S
C728 C733 1.379 . S
C728 N735 1.356 . S
C729 C728 1.363 . S
C729 C732 1.363 . S
N730 C732 1.356 . S
N730 H742 0.984 . S
N730 H743 0.985 . S
N731 C733 1.356 . S
N731 H736 0.984 . S
N731 H737 0.985 . S
C732 C726 1.379 . S
C732 C729 1.363 . S
C732 N730 1.356 . S
C733 C727 1.363 . S
C733 C728 1.379 . S
C733 N731 1.356 . S
N734 C726 1.356 . S
N734 H740 0.984 . S
N734 H741 0.984 . S
N735 C728 1.356 . S
N735 H738 0.984 . S
N735 H739 0.985 . S
H736 N731 0.984 . S
H737 N731 0.985 . S
H738 N735 0.984 . S
H739 N735 0.985 . S
H740 N734 0.984 . S
H741 N734 0.984 . S
H742 N730 0.984 . S
H743 N730 0.985 . S
C744 C745 1.363 . S
C744 C750 1.379 . S
C744 N752 1.356 . S
C745 C744 1.363 . S
C745 C751 1.363 . S
C746 C747 1.363 . S
C746 C751 1.379 . S
C746 N753 1.356 . S
C747 C746 1.363 . S
C747 C750 1.363 . S
N748 C750 1.356 . S
N748 H760 0.984 . S
N748 H761 0.985 . S
N749 C751 1.356 . S
N749 H754 0.984 . S
N749 H755 0.985 . S
C750 C744 1.379 . S
C750 C747 1.363 . S
C750 N748 1.356 . S
C751 C745 1.363 . S
C751 C746 1.379 . S
C751 N749 1.356 . S
N752 C744 1.356 . S
N752 H758 0.984 . S
N752 H759 0.984 . S
N753 C746 1.356 . S
N753 H756 0.984 . S
N753 H757 0.985 . S
H754 N749 0.984 . S
H755 N749 0.985 . S
H756 N753 0.984 . S
H757 N753 0.985 . S
H758 N752 0.984 . S
H759 N752 0.984 . S
H760 N748 0.984 . S
H761 N748 0.985 . S
C762 C763 1.363 . S
C762 C768 1.379 . S
C762 N770 1.356 . S
C763 C762 1.363 . S
C763 C769 1.363 . S
C764 C765 1.363 . S
C764 C769 1.379 . S
C764 N771 1.356 . S
C765 C764 1.363 . S
C765 C768 1.363 . S
N766 C768 1.356 . S
N766 H778 0.984 . S
N766 H779 0.985 . S
N767 C769 1.356 . S
N767 H772 0.984 . S
N767 H773 0.985 . S
C768 C762 1.379 . S
C768 C765 1.363 . S
C768 N766 1.356 . S
C769 C763 1.363 . S
C769 C764 1.379 . S
C769 N767 1.356 . S
N770 C762 1.356 . S
N770 H776 0.984 . S
N770 H777 0.984 . S
N771 C764 1.356 . S
N771 H774 0.984 . S
N771 H775 0.985 . S
H772 N767 0.984 . S
H773 N767 0.985 . S
H774 N771 0.984 . S
H775 N771 0.985 . S
H776 N770 0.984 . S
H777 N770 0.984 . S
H778 N766 0.984 . S
H779 N766 0.985 . S
C780 C781 1.363 . S
C780 C786 1.379 . S
C780 N788 1.356 . S
C781 C780 1.363 . S
C781 C787 1.363 . S
C782 C783 1.363 . S
C782 C787 1.379 . S
C782 N789 1.356 1_556 S
C783 C782 1.363 . S
C783 C786 1.363 . S
N784 C786 1.356 . S
N784 H796 0.984 . S
N784 H797 0.985 . S
N785 C787 1.356 . S
N785 H790 0.984 . S
N785 H791 0.985 . S
C786 C780 1.379 . S
C786 C783 1.363 . S
C786 N784 1.356 . S
C787 C781 1.363 . S
C787 C782 1.379 . S
C787 N785 1.356 . S
N788 C780 1.356 . S
N788 H794 0.984 . S
N788 H795 0.984 . S
N789 C782 1.356 1_554 S
N789 H792 0.984 . S
N789 H793 0.985 . S
H790 N785 0.984 . S
H791 N785 0.985 . S
H792 N789 0.984 . S
H793 N789 0.985 . S
H794 N788 0.984 . S
H795 N788 0.984 . S
H796 N784 0.984 . S
H797 N784 0.985 . S
C798 C799 1.363 . S
C798 C804 1.379 . S
C798 N806 1.356 . S
C799 C798 1.363 . S
C799 C805 1.363 . S
C800 C801 1.363 . S
C800 C805 1.379 . S
C800 N807 1.356 . S
C801 C800 1.363 . S
C801 C804 1.363 . S
N802 C804 1.356 . S
N802 H814 0.984 . S
N802 H815 0.985 . S
N803 C805 1.356 . S
N803 H808 0.984 . S
N803 H809 0.985 . S
C804 C798 1.379 . S
C804 C801 1.363 . S
C804 N802 1.356 . S
C805 C799 1.363 . S
C805 C800 1.379 . S
C805 N803 1.356 . S
N806 C798 1.356 . S
N806 H812 0.984 . S
N806 H813 0.984 . S
N807 C800 1.356 . S
N807 H810 0.984 . S
N807 H811 0.985 . S
H808 N803 0.984 . S
H809 N803 0.985 . S
H810 N807 0.984 . S
H811 N807 0.985 . S
H812 N806 0.984 . S
H813 N806 0.984 . S
H814 N802 0.984 . S
H815 N802 0.985 . S
C816 C817 1.363 . S
C816 C822 1.379 . S
C816 N824 1.356 . S
C817 C816 1.363 . S
C817 C823 1.363 . S
C818 C819 1.363 . S
C818 C823 1.379 . S
C818 N825 1.356 . S
C819 C818 1.363 . S
C819 C822 1.363 . S
N820 C822 1.356 . S
N820 H832 0.984 . S
N820 H833 0.985 . S
N821 C823 1.356 1_565 S
N821 H826 0.984 . S
N821 H827 0.985 . S
C822 C816 1.379 . S
C822 C819 1.363 . S
C822 N820 1.356 . S
C823 C817 1.363 . S
C823 C818 1.379 . S
C823 N821 1.356 1_545 S
N824 C816 1.356 . S
N824 H830 0.984 . S
N824 H831 0.984 . S
N825 C818 1.356 . S
N825 H828 0.984 . S
N825 H829 0.985 . S
H826 N821 0.984 . S
H827 N821 0.985 . S
H828 N825 0.984 . S
H829 N825 0.985 . S
H830 N824 0.984 . S
H831 N824 0.984 . S
H832 N820 0.984 . S
H833 N820 0.985 . S
C834 C835 1.363 . S
C834 C840 1.379 . S
C834 N842 1.356 . S
C835 C834 1.363 . S
C835 C841 1.363 . S
C836 C837 1.363 . S
C836 C841 1.379 . S
C836 N843 1.356 . S
C837 C836 1.363 . S
C837 C840 1.363 . S
N838 C840 1.356 . S
N838 H850 0.984 . S
N838 H851 0.985 . S
N839 C841 1.356 . S
N839 H844 0.984 . S
N839 H845 0.985 . S
C840 C834 1.379 . S
C840 C837 1.363 . S
C840 N838 1.356 . S
C841 C835 1.363 . S
C841 C836 1.379 . S
C841 N839 1.356 . S
N842 C834 1.356 . S
N842 H848 0.984 . S
N842 H849 0.984 . S
N843 C836 1.356 . S
N843 H846 0.984 . S
N843 H847 0.985 . S
H844 N839 0.984 . S
H845 N839 0.985 . S
H846 N843 0.984 . S
H847 N843 0.985 . S
H848 N842 0.984 . S
H849 N842 0.984 . S
H850 N838 0.984 . S
H851 N838 0.985 . S
C852 C853 1.363 . S
C852 C858 1.379 . S
C852 N860 1.356 . S
C853 C852 1.363 . S
C853 C859 1.363 . S
C854 C855 1.363 . S
C854 C859 1.379 . S
C854 N861 1.356 1_565 S
C855 C854 1.363 . S
C855 C858 1.363 . S
N856 C858 1.356 1_556 S
N856 H868 0.984 . S
N856 H869 0.985 1_565 S
N857 C859 1.356 . S
N857 H862 0.984 . S
N857 H863 0.985 . S
C858 C852 1.379 . S
C858 C855 1.363 . S
C858 N856 1.356 1_554 S
C859 C853 1.363 . S
C859 C854 1.379 . S
C859 N857 1.356 . S
N860 C852 1.356 . S
N860 H866 0.984 . S
N860 H867 0.984 . S
N861 C854 1.356 1_545 S
N861 H864 0.984 . S
N861 H865 0.985 . S
H862 N857 0.984 . S
H863 N857 0.985 . S
H864 N861 0.984 . S
H865 N861 0.985 . S
H866 N860 0.984 . S
H867 N860 0.984 . S
H868 N856 0.984 . S
H869 N856 0.985 1_545 S
C870 C871 1.363 . S
C870 C876 1.379 . S
C870 N878 1.356 . S
C871 C870 1.363 . S
C871 C877 1.363 . S
C872 C873 1.363 . S
C872 C877 1.379 . S
C872 N879 1.356 . S
C873 C872 1.363 . S
C873 C876 1.363 . S
N874 C876 1.356 . S
N874 H886 0.984 . S
N874 H887 0.985 . S
N875 C877 1.356 . S
N875 H880 0.984 . S
N875 H881 0.985 . S
C876 C870 1.379 . S
C876 C873 1.363 . S
C876 N874 1.356 . S
C877 C871 1.363 . S
C877 C872 1.379 . S
C877 N875 1.356 . S
N878 C870 1.356 . S
N878 H884 0.984 . S
N878 H885 0.984 . S
N879 C872 1.356 . S
N879 H882 0.984 . S
N879 H883 0.985 . S
H880 N875 0.984 . S
H881 N875 0.985 . S
H882 N879 0.984 . S
H883 N879 0.985 . S
H884 N878 0.984 . S
H885 N878 0.984 . S
H886 N874 0.984 . S
H887 N874 0.985 . S
C888 C889 1.363 . S
C888 C894 1.379 . S
C888 N896 1.356 . S
C889 C888 1.363 . S
C889 C895 1.363 . S
C890 C891 1.363 . S
C890 C895 1.379 . S
C890 N897 1.356 . S
C891 C890 1.363 . S
C891 C894 1.363 . S
N892 C894 1.356 . S
N892 H904 0.984 . S
N892 H905 0.985 . S
N893 C895 1.356 . S
N893 H898 0.984 . S
N893 H899 0.985 . S
C894 C888 1.379 . S
C894 C891 1.363 . S
C894 N892 1.356 . S
C895 C889 1.363 . S
C895 C890 1.379 . S
C895 N893 1.356 . S
N896 C888 1.356 . S
N896 H902 0.984 . S
N896 H903 0.984 . S
N897 C890 1.356 . S
N897 H900 0.984 . S
N897 H901 0.985 . S
H898 N893 0.984 . S
H899 N893 0.985 . S
H900 N897 0.984 . S
H901 N897 0.985 . S
H902 N896 0.984 . S
H903 N896 0.984 . S
H904 N892 0.984 . S
H905 N892 0.985 . S
C906 C907 1.363 . S
C906 C912 1.379 . S
C906 N914 1.356 . S
C907 C906 1.363 . S
C907 C913 1.363 . S
C908 C909 1.363 . S
C908 C913 1.379 . S
C908 N915 1.356 . S
C909 C908 1.363 . S
C909 C912 1.363 . S
N910 C912 1.356 . S
N910 H922 0.984 . S
N910 H923 0.985 . S
N911 C913 1.356 . S
N911 H916 0.984 . S
N911 H917 0.985 . S
C912 C906 1.379 . S
C912 C909 1.363 . S
C912 N910 1.356 . S
C913 C907 1.363 . S
C913 C908 1.379 . S
C913 N911 1.356 . S
N914 C906 1.356 . S
N914 H920 0.984 . S
N914 H921 0.984 . S
N915 C908 1.356 . S
N915 H918 0.984 . S
N915 H919 0.985 . S
H916 N911 0.984 . S
H917 N911 0.985 . S
H918 N915 0.984 . S
H919 N915 0.985 . S
H920 N914 0.984 . S
H921 N914 0.984 . S
H922 N910 0.984 . S
H923 N910 0.985 . S
C924 C925 1.363 . S
C924 C930 1.379 . S
C924 N932 1.356 . S
C925 C924 1.363 . S
C925 C931 1.363 . S
C926 C927 1.363 . S
C926 C931 1.379 . S
C926 N933 1.356 1_556 S
C927 C926 1.363 . S
C927 C930 1.363 . S
N928 C930 1.356 1_655 S
N928 H940 0.984 . S
N928 H941 0.985 . S
N929 C931 1.356 . S
N929 H934 0.984 . S
N929 H935 0.985 . S
C930 C924 1.379 . S
C930 C927 1.363 . S
C930 N928 1.356 1_455 S
C931 C925 1.363 . S
C931 C926 1.379 . S
C931 N929 1.356 . S
N932 C924 1.356 . S
N932 H938 0.984 . S
N932 H939 0.984 . S
N933 C926 1.356 1_554 S
N933 H936 0.984 . S
N933 H937 0.985 . S
H934 N929 0.984 . S
H935 N929 0.985 . S
H936 N933 0.984 . S
H937 N933 0.985 . S
H938 N932 0.984 . S
H939 N932 0.984 . S
H940 N928 0.984 . S
H941 N928 0.985 . S
C942 C943 1.363 . S
C942 C948 1.379 . S
C942 N950 1.356 . S
C943 C942 1.363 . S
C943 C949 1.363 . S
C944 C945 1.363 . S
C944 C949 1.379 . S
C944 N951 1.356 . S
C945 C944 1.363 . S
C945 C948 1.363 . S
N946 C948 1.356 . S
N946 H958 0.984 . S
N946 H959 0.985 . S
N947 C949 1.356 . S
N947 H952 0.984 . S
N947 H953 0.985 . S
C948 C942 1.379 . S
C948 C945 1.363 . S
C948 N946 1.356 . S
C949 C943 1.363 . S
C949 C944 1.379 . S
C949 N947 1.356 . S
N950 C942 1.356 . S
N950 H956 0.984 . S
N950 H957 0.984 . S
N951 C944 1.356 . S
N951 H954 0.984 . S
N951 H955 0.985 . S
H952 N947 0.984 . S
H953 N947 0.985 . S
H954 N951 0.984 . S
H955 N951 0.985 . S
H956 N950 0.984 . S
H957 N950 0.984 . S
H958 N946 0.984 . S
H959 N946 0.985 . S
C960 C961 1.363 . S
C960 C966 1.379 . S
C960 N968 1.356 . S
C961 C960 1.363 . S
C961 C967 1.363 . S
C962 C963 1.363 . S
C962 C967 1.379 . S
C962 N969 1.356 . S
C963 C962 1.363 . S
C963 C966 1.363 . S
N964 C966 1.356 . S
N964 H976 0.984 . S
N964 H977 0.985 . S
N965 C967 1.356 1_455 S
N965 H970 0.984 . S
N965 H971 0.985 . S
C966 C960 1.379 . S
C966 C963 1.363 . S
C966 N964 1.356 . S
C967 C961 1.363 . S
C967 C962 1.379 . S
C967 N965 1.356 1_655 S
N968 C960 1.356 . S
N968 H974 0.984 . S
N968 H975 0.984 . S
N969 C962 1.356 . S
N969 H972 0.984 . S
N969 H973 0.985 . S
H970 N965 0.984 . S
H971 N965 0.985 . S
H972 N969 0.984 . S
H973 N969 0.985 . S
H974 N968 0.984 . S
H975 N968 0.984 . S
H976 N964 0.984 . S
H977 N964 0.985 . S
C978 C979 1.363 . S
C978 C984 1.379 . S
C978 N986 1.356 . S
C979 C978 1.363 . S
C979 C985 1.363 . S
C980 C981 1.363 . S
C980 C985 1.379 . S
C980 N987 1.356 . S
C981 C980 1.363 . S
C981 C984 1.363 . S
N982 C984 1.356 . S
N982 H994 0.984 . S
N982 H995 0.985 . S
N983 C985 1.356 . S
N983 H988 0.984 . S
N983 H989 0.985 . S
C984 C978 1.379 . S
C984 C981 1.363 . S
C984 N982 1.356 . S
C985 C979 1.363 . S
C985 C980 1.379 . S
C985 N983 1.356 . S
N986 C978 1.356 . S
N986 H992 0.984 . S
N986 H993 0.984 . S
N987 C980 1.356 . S
N987 H990 0.984 . S
N987 H991 0.985 . S
H988 N983 0.984 . S
H989 N983 0.985 . S
H990 N987 0.984 . S
H991 N987 0.985 . S
H992 N986 0.984 . S
H993 N986 0.984 . S
H994 N982 0.984 . S
H995 N982 0.985 . S
C996 C997 1.363 . S
C996 C1002 1.379 . S
C996 N1004 1.356 . S
C997 C996 1.363 . S
C997 C1003 1.363 . S
C998 C999 1.363 . S
C998 C1003 1.379 . S
C998 N1005 1.356 1_554 S
C999 C998 1.363 . S
C999 C1002 1.363 . S
N1000 C1002 1.356 . S
N1000 H1012 0.984 . S
N1000 H1013 0.985 . S
N1001 C1003 1.356 . S
N1001 H1006 0.984 . S
N1001 H1007 0.985 . S
C1002 C996 1.379 . S
C1002 C999 1.363 . S
C1002 N1000 1.356 . S
C1003 C997 1.363 . S
C1003 C998 1.379 . S
C1003 N1001 1.356 . S
N1004 C996 1.356 . S
N1004 H1010 0.984 . S
N1004 H1011 0.984 . S
N1005 C998 1.356 1_556 S
N1005 H1008 0.984 . S
N1005 H1009 0.985 . S
H1006 N1001 0.984 . S
H1007 N1001 0.985 . S
H1008 N1005 0.984 . S
H1009 N1005 0.985 . S
H1010 N1004 0.984 . S
H1011 N1004 0.984 . S
H1012 N1000 0.984 . S
H1013 N1000 0.985 . S
C1014 C1015 1.363 . S
C1014 C1020 1.379 . S
C1014 N1022 1.356 . S
C1015 C1014 1.363 . S
C1015 C1021 1.363 . S
C1016 C1017 1.363 . S
C1016 C1021 1.379 . S
C1016 N1023 1.356 . S
C1017 C1016 1.363 . S
C1017 C1020 1.363 . S
N1018 C1020 1.356 . S
N1018 H1030 0.984 . S
N1018 H1031 0.985 . S
N1019 C1021 1.356 . S
N1019 H1024 0.984 . S
N1019 H1025 0.985 . S
C1020 C1014 1.379 . S
C1020 C1017 1.363 . S
C1020 N1018 1.356 . S
C1021 C1015 1.363 . S
C1021 C1016 1.379 . S
C1021 N1019 1.356 . S
N1022 C1014 1.356 . S
N1022 H1028 0.984 . S
N1022 H1029 0.984 . S
N1023 C1016 1.356 . S
N1023 H1026 0.984 . S
N1023 H1027 0.985 . S
H1024 N1019 0.984 . S
H1025 N1019 0.985 . S
H1026 N1023 0.984 . S
H1027 N1023 0.985 . S
H1028 N1022 0.984 . S
H1029 N1022 0.984 . S
H1030 N1018 0.984 . S
H1031 N1018 0.985 . S
C1032 C1033 1.363 . S
C1032 C1038 1.379 . S
C1032 N1040 1.356 . S
C1033 C1032 1.363 . S
C1033 C1039 1.363 . S
C1034 C1035 1.363 . S
C1034 C1039 1.379 . S
C1034 N1041 1.356 . S
C1035 C1034 1.363 . S
C1035 C1038 1.363 . S
N1036 C1038 1.356 . S
N1036 H1048 0.984 . S
N1036 H1049 0.985 . S
N1037 C1039 1.356 . S
N1037 H1042 0.984 . S
N1037 H1043 0.985 . S
C1038 C1032 1.379 . S
C1038 C1035 1.363 . S
C1038 N1036 1.356 . S
C1039 C1033 1.363 . S
C1039 C1034 1.379 . S
C1039 N1037 1.356 . S
N1040 C1032 1.356 . S
N1040 H1046 0.984 . S
N1040 H1047 0.984 . S
N1041 C1034 1.356 . S
N1041 H1044 0.984 . S
N1041 H1045 0.985 . S
H1042 N1037 0.984 . S
H1043 N1037 0.985 . S
H1044 N1041 0.984 . S
H1045 N1041 0.985 . S
H1046 N1040 0.984 . S
H1047 N1040 0.984 . S
H1048 N1036 0.984 . S
H1049 N1036 0.985 . S
C1050 C1051 1.363 . S
C1050 C1056 1.379 . S
C1050 N1058 1.356 1_655 S
C1051 C1050 1.363 . S
C1051 C1057 1.363 . S
C1052 C1053 1.363 . S
C1052 C1057 1.379 . S
C1052 N1059 1.356 . S
C1053 C1052 1.363 . S
C1053 C1056 1.363 . S
N1054 C1056 1.356 . S
N1054 H1066 0.984 . S
N1054 H1067 0.985 . S
N1055 C1057 1.356 1_565 S
N1055 H1060 0.984 . S
N1055 H1061 0.985 . S
C1056 C1050 1.379 . S
C1056 C1053 1.363 . S
C1056 N1054 1.356 . S
C1057 C1051 1.363 . S
C1057 C1052 1.379 . S
C1057 N1055 1.356 1_545 S
N1058 C1050 1.356 1_455 S
N1058 H1064 0.984 . S
N1058 H1065 0.984 . S
N1059 C1052 1.356 . S
N1059 H1062 0.984 . S
N1059 H1063 0.985 . S
H1060 N1055 0.984 . S
H1061 N1055 0.985 . S
H1062 N1059 0.984 . S
H1063 N1059 0.985 . S
H1064 N1058 0.984 . S
H1065 N1058 0.984 . S
H1066 N1054 0.984 . S
H1067 N1054 0.985 . S
C1068 C1069 1.363 . S
C1068 C1074 1.379 . S
C1068 N1076 1.356 . S
C1069 C1068 1.363 . S
C1069 C1075 1.363 . S
C1070 C1071 1.363 . S
C1070 C1075 1.379 . S
C1070 N1077 1.356 . S
C1071 C1070 1.363 . S
C1071 C1074 1.363 . S
N1072 C1074 1.356 . S
N1072 H1084 0.984 . S
N1072 H1085 0.985 . S
N1073 C1075 1.356 . S
N1073 H1078 0.984 . S
N1073 H1079 0.985 . S
C1074 C1068 1.379 . S
C1074 C1071 1.363 . S
C1074 N1072 1.356 . S
C1075 C1069 1.363 . S
C1075 C1070 1.379 . S
C1075 N1073 1.356 . S
N1076 C1068 1.356 . S
N1076 H1082 0.984 . S
N1076 H1083 0.984 . S
N1077 C1070 1.356 . S
N1077 H1080 0.984 . S
N1077 H1081 0.985 . S
H1078 N1073 0.984 . S
H1079 N1073 0.985 . S
H1080 N1077 0.984 . S
H1081 N1077 0.985 . S
H1082 N1076 0.984 . S
H1083 N1076 0.984 . S
H1084 N1072 0.984 . S
H1085 N1072 0.985 . S
C1086 C1087 1.363 . S
C1086 C1092 1.379 . S
C1086 N1094 1.356 1_565 S
C1087 C1086 1.363 . S
C1087 C1093 1.363 . S
C1088 C1089 1.363 . S
C1088 C1093 1.379 . S
C1088 N1095 1.356 . S
C1089 C1088 1.363 . S
C1089 C1092 1.363 . S
N1090 C1092 1.356 . S
N1090 H1102 0.984 . S
N1090 H1103 0.985 . S
N1091 C1093 1.356 . S
N1091 H1096 0.984 . S
N1091 H1097 0.985 . S
C1092 C1086 1.379 . S
C1092 C1089 1.363 . S
C1092 N1090 1.356 . S
C1093 C1087 1.363 . S
C1093 C1088 1.379 . S
C1093 N1091 1.356 . S
N1094 C1086 1.356 1_545 S
N1094 H1100 0.984 . S
N1094 H1101 0.984 . S
N1095 C1088 1.356 . S
N1095 H1098 0.984 . S
N1095 H1099 0.985 . S
H1096 N1091 0.984 . S
H1097 N1091 0.985 . S
H1098 N1095 0.984 . S
H1099 N1095 0.985 . S
H1100 N1094 0.984 . S
H1101 N1094 0.984 . S
H1102 N1090 0.984 . S
H1103 N1090 0.985 . S
C1104 C1105 1.363 . S
C1104 C1110 1.379 . S
C1104 N1112 1.356 . S
C1105 C1104 1.363 . S
C1105 C1111 1.363 . S
C1106 C1107 1.363 . S
C1106 C1111 1.379 . S
C1106 N1113 1.356 . S
C1107 C1106 1.363 . S
C1107 C1110 1.363 . S
N1108 C1110 1.356 . S
N1108 H1120 0.984 . S
N1108 H1121 0.985 . S
N1109 C1111 1.356 . S
N1109 H1114 0.984 . S
N1109 H1115 0.985 . S
C1110 C1104 1.379 . S
C1110 C1107 1.363 . S
C1110 N1108 1.356 . S
C1111 C1105 1.363 . S
C1111 C1106 1.379 . S
C1111 N1109 1.356 . S
N1112 C1104 1.356 . S
N1112 H1118 0.984 . S
N1112 H1119 0.984 . S
N1113 C1106 1.356 . S
N1113 H1116 0.984 . S
N1113 H1117 0.985 . S
H1114 N1109 0.984 . S
H1115 N1109 0.985 . S
H1116 N1113 0.984 . S
H1117 N1113 0.985 . S
H1118 N1112 0.984 . S
H1119 N1112 0.984 . S
H1120 N1108 0.984 . S
H1121 N1108 0.985 . S
C1122 C1123 1.363 . S
C1122 C1128 1.379 . S
C1122 N1130 1.356 1_455 S
C1123 C1122 1.363 . S
C1123 C1129 1.363 . S
C1124 C1125 1.363 . S
C1124 C1129 1.379 . S
C1124 N1131 1.356 . S
C1125 C1124 1.363 . S
C1125 C1128 1.363 . S
N1126 C1128 1.356 . S
N1126 H1138 0.984 . S
N1126 H1139 0.985 . S
N1127 C1129 1.356 . S
N1127 H1132 0.984 1_455 S
N1127 H1133 0.985 . S
C1128 C1122 1.379 . S
C1128 C1125 1.363 . S
C1128 N1126 1.356 . S
C1129 C1123 1.363 . S
C1129 C1124 1.379 . S
C1129 N1127 1.356 . S
N1130 C1122 1.356 1_655 S
N1130 H1136 0.984 . S
N1130 H1137 0.984 . S
N1131 C1124 1.356 . S
N1131 H1134 0.984 . S
N1131 H1135 0.985 . S
H1132 N1127 0.984 1_655 S
H1133 N1127 0.985 . S
H1134 N1131 0.984 . S
H1135 N1131 0.985 . S
H1136 N1130 0.984 . S
H1137 N1130 0.984 . S
H1138 N1126 0.984 . S
H1139 N1126 0.985 . S
C1140 C1141 1.363 . S
C1140 C1146 1.379 . S
C1140 N1148 1.356 . S
C1141 C1140 1.363 . S
C1141 C1147 1.363 . S
C1142 C1143 1.363 . S
C1142 C1147 1.379 . S
C1142 N1149 1.356 . S
C1143 C1142 1.363 . S
C1143 C1146 1.363 . S
N1144 C1146 1.356 . S
N1144 H1156 0.984 . S
N1144 H1157 0.985 . S
N1145 C1147 1.356 . S
N1145 H1150 0.984 . S
N1145 H1151 0.985 . S
C1146 C1140 1.379 . S
C1146 C1143 1.363 . S
C1146 N1144 1.356 . S
C1147 C1141 1.363 . S
C1147 C1142 1.379 . S
C1147 N1145 1.356 . S
N1148 C1140 1.356 . S
N1148 H1154 0.984 . S
N1148 H1155 0.984 . S
N1149 C1142 1.356 . S
N1149 H1152 0.984 . S
N1149 H1153 0.985 . S
H1150 N1145 0.984 . S
H1151 N1145 0.985 . S
H1152 N1149 0.984 . S
H1153 N1149 0.985 . S
H1154 N1148 0.984 . S
H1155 N1148 0.984 . S
H1156 N1144 0.984 . S
H1157 N1144 0.985 . S
C1158 C1159 1.363 . S
C1158 C1164 1.379 . S
C1158 N1166 1.356 . S
C1159 C1158 1.363 . S
C1159 C1165 1.363 . S
C1160 C1161 1.363 . S
C1160 C1165 1.379 . S
C1160 N1167 1.356 . S
C1161 C1160 1.363 . S
C1161 C1164 1.363 . S
N1162 C1164 1.356 . S
N1162 H1174 0.984 . S
N1162 H1175 0.985 . S
N1163 C1165 1.356 . S
N1163 H1168 0.984 . S
N1163 H1169 0.985 . S
C1164 C1158 1.379 . S
C1164 C1161 1.363 . S
C1164 N1162 1.356 . S
C1165 C1159 1.363 . S
C1165 C1160 1.379 . S
C1165 N1163 1.356 . S
N1166 C1158 1.356 . S
N1166 H1172 0.984 . S
N1166 H1173 0.984 . S
N1167 C1160 1.356 . S
N1167 H1170 0.984 . S
N1167 H1171 0.985 . S
H1168 N1163 0.984 . S
H1169 N1163 0.985 . S
H1170 N1167 0.984 . S
H1171 N1167 0.985 . S
H1172 N1166 0.984 . S
H1173 N1166 0.984 . S
H1174 N1162 0.984 . S
H1175 N1162 0.985 . S
C1176 C1177 1.363 . S
C1176 C1182 1.379 . S
C1176 N1184 1.356 . S
C1177 C1176 1.363 . S
C1177 C1183 1.363 . S
C1178 C1179 1.363 . S
C1178 C1183 1.379 . S
C1178 N1185 1.356 . S
C1179 C1178 1.363 . S
C1179 C1182 1.363 . S
N1180 C1182 1.356 . S
N1180 H1192 0.984 . S
N1180 H1193 0.985 . S
N1181 C1183 1.356 . S
N1181 H1186 0.984 . S
N1181 H1187 0.985 . S
C1182 C1176 1.379 . S
C1182 C1179 1.363 . S
C1182 N1180 1.356 . S
C1183 C1177 1.363 . S
C1183 C1178 1.379 . S
C1183 N1181 1.356 . S
N1184 C1176 1.356 . S
N1184 H1190 0.984 . S
N1184 H1191 0.984 . S
N1185 C1178 1.356 . S
N1185 H1188 0.984 . S
N1185 H1189 0.985 . S
H1186 N1181 0.984 . S
H1187 N1181 0.985 . S
H1188 N1185 0.984 . S
H1189 N1185 0.985 . S
H1190 N1184 0.984 . S
H1191 N1184 0.984 . S
H1192 N1180 0.984 . S
H1193 N1180 0.985 . S
C1194 C1195 1.363 . S
C1194 C1200 1.379 . S
C1194 N1202 1.356 . S
C1195 C1194 1.363 . S
C1195 C1201 1.363 . S
C1196 C1197 1.363 . S
C1196 C1201 1.379 . S
C1196 N1203 1.356 . S
C1197 C1196 1.363 . S
C1197 C1200 1.363 . S
N1198 C1200 1.356 . S
N1198 H1210 0.984 . S
N1198 H1211 0.985 . S
N1199 C1201 1.356 . S
N1199 H1204 0.984 . S
N1199 H1205 0.985 . S
C1200 C1194 1.379 . S
C1200 C1197 1.363 . S
C1200 N1198 1.356 . S
C1201 C1195 1.363 . S
C1201 C1196 1.379 . S
C1201 N1199 1.356 . S
N1202 C1194 1.356 . S
N1202 H1208 0.984 . S
N1202 H1209 0.984 . S
N1203 C1196 1.356 . S
N1203 H1206 0.984 . S
N1203 H1207 0.985 . S
H1204 N1199 0.984 . S
H1205 N1199 0.985 . S
H1206 N1203 0.984 . S
H1207 N1203 0.985 . S
H1208 N1202 0.984 . S
H1209 N1202 0.984 . S
H1210 N1198 0.984 . S
H1211 N1198 0.985 . S
C1212 C1213 1.363 . S
C1212 C1218 1.379 . S
C1212 N1220 1.356 . S
C1213 C1212 1.363 . S
C1213 C1219 1.363 . S
C1214 C1215 1.363 . S
C1214 C1219 1.379 . S
C1214 N1221 1.356 . S
C1215 C1214 1.363 . S
C1215 C1218 1.363 . S
N1216 C1218 1.356 . S
N1216 H1228 0.984 . S
N1216 H1229 0.985 . S
N1217 C1219 1.356 . S
N1217 H1222 0.984 . S
N1217 H1223 0.985 . S
C1218 C1212 1.379 . S
C1218 C1215 1.363 . S
C1218 N1216 1.356 . S
C1219 C1213 1.363 . S
C1219 C1214 1.379 . S
C1219 N1217 1.356 . S
N1220 C1212 1.356 . S
N1220 H1226 0.984 . S
N1220 H1227 0.984 . S
N1221 C1214 1.356 . S
N1221 H1224 0.984 . S
N1221 H1225 0.985 . S
H1222 N1217 0.984 . S
H1223 N1217 0.985 . S
H1224 N1221 0.984 . S
H1225 N1221 0.985 . S
H1226 N1220 0.984 . S
H1227 N1220 0.984 . S
H1228 N1216 0.984 . S
H1229 N1216 0.985 . S
C1230 C1231 1.363 1_556 S
C1230 C1236 1.379 . S
C1230 N1238 1.356 . S
C1231 C1230 1.363 1_554 S
C1231 C1237 1.363 . S
C1232 C1233 1.363 1_554 S
C1232 C1237 1.379 . S
C1232 N1239 1.356 . S
C1233 C1232 1.363 1_556 S
C1233 C1236 1.363 . S
N1234 C1236 1.356 . S
N1234 H1246 0.984 . S
N1234 H1247 0.985 . S
N1235 C1237 1.356 . S
N1235 H1240 0.984 . S
N1235 H1241 0.985 . S
C1236 C1230 1.379 . S
C1236 C1233 1.363 . S
C1236 N1234 1.356 . S
C1237 C1231 1.363 . S
C1237 C1232 1.379 . S
C1237 N1235 1.356 . S
N1238 C1230 1.356 . S
N1238 H1244 0.984 . S
N1238 H1245 0.984 1_556 S
N1239 C1232 1.356 . S
N1239 H1242 0.984 . S
N1239 H1243 0.985 . S
H1240 N1235 0.984 . S
H1241 N1235 0.985 . S
H1242 N1239 0.984 . S
H1243 N1239 0.985 . S
H1244 N1238 0.984 . S
H1245 N1238 0.984 1_554 S
H1246 N1234 0.984 . S
H1247 N1234 0.985 . S
C1248 C1249 1.363 . S
C1248 C1254 1.379 . S
C1248 N1256 1.356 1_545 S
C1249 C1248 1.363 . S
C1249 C1255 1.363 . S
C1250 C1251 1.363 . S
C1250 C1255 1.379 . S
C1250 N1257 1.356 . S
C1251 C1250 1.363 . S
C1251 C1254 1.363 . S
N1252 C1254 1.356 . S
N1252 H1264 0.984 . S
N1252 H1265 0.985 . S
N1253 C1255 1.356 . S
N1253 H1258 0.984 . S
N1253 H1259 0.985 . S
C1254 C1248 1.379 . S
C1254 C1251 1.363 . S
C1254 N1252 1.356 . S
C1255 C1249 1.363 . S
C1255 C1250 1.379 . S
C1255 N1253 1.356 . S
N1256 C1248 1.356 1_565 S
N1256 H1262 0.984 . S
N1256 H1263 0.984 . S
N1257 C1250 1.356 . S
N1257 H1260 0.984 . S
N1257 H1261 0.985 . S
H1258 N1253 0.984 . S
H1259 N1253 0.985 . S
H1260 N1257 0.984 . S
H1261 N1257 0.985 . S
H1262 N1256 0.984 . S
H1263 N1256 0.984 . S
H1264 N1252 0.984 . S
H1265 N1252 0.985 . S
C1266 C1267 1.363 . S
C1266 C1272 1.379 1_554 S
C1266 N1274 1.356 . S
C1267 C1266 1.363 . S
C1267 C1273 1.363 1_554 S
C1268 C1269 1.363 . S
C1268 C1273 1.379 . S
C1268 N1275 1.356 . S
C1269 C1268 1.363 . S
C1269 C1272 1.363 . S
N1270 C1272 1.356 . S
N1270 H1282 0.984 . S
N1270 H1283 0.985 . S
N1271 C1273 1.356 1_554 S
N1271 H1276 0.984 . S
N1271 H1277 0.985 . S
C1272 C1266 1.379 1_556 S
C1272 C1269 1.363 . S
C1272 N1270 1.356 . S
C1273 C1267 1.363 1_556 S
C1273 C1268 1.379 . S
C1273 N1271 1.356 1_556 S
N1274 C1266 1.356 . S
N1274 H1280 0.984 . S
N1274 H1281 0.984 . S
N1275 C1268 1.356 . S
N1275 H1278 0.984 . S
N1275 H1279 0.985 . S
H1276 N1271 0.984 . S
H1277 N1271 0.985 . S
H1278 N1275 0.984 . S
H1279 N1275 0.985 . S
H1280 N1274 0.984 . S
H1281 N1274 0.984 . S
H1282 N1270 0.984 . S
H1283 N1270 0.985 . S
C1284 C1285 1.363 . S
C1284 C1290 1.379 . S
C1284 N1292 1.356 . S
C1285 C1284 1.363 . S
C1285 C1291 1.363 . S
C1286 C1287 1.363 . S
C1286 C1291 1.379 . S
C1286 N1293 1.356 . S
C1287 C1286 1.363 . S
C1287 C1290 1.363 . S
N1288 C1290 1.356 1_455 S
N1288 H1300 0.984 . S
N1288 H1301 0.985 . S
N1289 C1291 1.356 . S
N1289 H1294 0.984 1_565 S
N1289 H1295 0.985 . S
C1290 C1284 1.379 . S
C1290 C1287 1.363 . S
C1290 N1288 1.356 1_655 S
C1291 C1285 1.363 . S
C1291 C1286 1.379 . S
C1291 N1289 1.356 . S
N1292 C1284 1.356 . S
N1292 H1298 0.984 1_655 S
N1292 H1299 0.984 1_565 S
N1293 C1286 1.356 . S
N1293 H1296 0.984 . S
N1293 H1297 0.985 . S
H1294 N1289 0.984 1_545 S
H1295 N1289 0.985 . S
H1296 N1293 0.984 . S
H1297 N1293 0.985 . S
H1298 N1292 0.984 1_455 S
H1299 N1292 0.984 1_545 S
H1300 N1288 0.984 . S
H1301 N1288 0.985 . S
C1302 C1303 1.363 . S
C1302 C1308 1.379 . S
C1302 N1310 1.356 . S
C1303 C1302 1.363 . S
C1303 C1309 1.363 . S
C1304 C1305 1.363 . S
C1304 C1309 1.379 . S
C1304 N1311 1.356 . S
C1305 C1304 1.363 . S
C1305 C1308 1.363 . S
N1306 C1308 1.356 . S
N1306 H1318 0.984 . S
N1306 H1319 0.985 . S
N1307 C1309 1.356 . S
N1307 H1312 0.984 . S
N1307 H1313 0.985 . S
C1308 C1302 1.379 . S
C1308 C1305 1.363 . S
C1308 N1306 1.356 . S
C1309 C1303 1.363 . S
C1309 C1304 1.379 . S
C1309 N1307 1.356 . S
N1310 C1302 1.356 . S
N1310 H1316 0.984 . S
N1310 H1317 0.984 . S
N1311 C1304 1.356 . S
N1311 H1314 0.984 . S
N1311 H1315 0.985 . S
H1312 N1307 0.984 . S
H1313 N1307 0.985 . S
H1314 N1311 0.984 . S
H1315 N1311 0.985 . S
H1316 N1310 0.984 . S
H1317 N1310 0.984 . S
H1318 N1306 0.984 . S
H1319 N1306 0.985 . S
C1320 C1321 1.363 . S
C1320 C1326 1.379 . S
C1320 N1328 1.356 . S
C1321 C1320 1.363 . S
C1321 C1327 1.363 . S
C1322 C1323 1.363 . S
C1322 C1327 1.379 . S
C1322 N1329 1.356 . S
C1323 C1322 1.363 . S
C1323 C1326 1.363 . S
N1324 C1326 1.356 . S
N1324 H1336 0.984 . S
N1324 H1337 0.985 . S
N1325 C1327 1.356 . S
N1325 H1330 0.984 . S
N1325 H1331 0.985 . S
C1326 C1320 1.379 . S
C1326 C1323 1.363 . S
C1326 N1324 1.356 . S
C1327 C1321 1.363 . S
C1327 C1322 1.379 . S
C1327 N1325 1.356 . S
N1328 C1320 1.356 . S
N1328 H1334 0.984 . S
N1328 H1335 0.984 . S
N1329 C1322 1.356 . S
N1329 H1332 0.984 . S
N1329 H1333 0.985 1_545 S
H1330 N1325 0.984 . S
H1331 N1325 0.985 . S
H1332 N1329 0.984 . S
H1333 N1329 0.985 1_565 S
H1334 N1328 0.984 . S
H1335 N1328 0.984 . S
H1336 N1324 0.984 . S
H1337 N1324 0.985 . S
C1338 C1339 1.363 1_545 S
C1338 C1344 1.379 . S
C1338 N1346 1.356 . S
C1339 C1338 1.363 1_565 S
C1339 C1345 1.363 . S
C1340 C1341 1.339 1_565 S
C1340 C1345 1.394 . S
C1340 N1347 1.358 . S
C1341 C1340 1.339 1_545 S
C1341 C1344 1.363 . S
N1342 C1344 1.356 . S
N1342 H1354 0.984 . S
N1342 H1355 0.985 . S
N1343 C1345 1.356 . S
N1343 H1348 0.984 . S
N1343 H1349 0.985 . S
C1344 C1338 1.379 . S
C1344 C1341 1.363 . S
C1344 N1342 1.356 . S
C1345 C1339 1.363 . S
C1345 C1340 1.394 . S
C1345 N1343 1.356 . S
N1346 C1338 1.356 . S
N1346 H1352 0.984 . S
N1346 H1353 0.984 . S
N1347 C1340 1.358 . S
N1347 H1350 0.984 1_565 S
N1347 H1351 0.985 . S
H1348 N1343 0.984 . S
H1349 N1343 0.985 . S
H1350 N1347 0.984 1_545 S
H1351 N1347 0.985 . S
H1352 N1346 0.984 . S
H1353 N1346 0.984 . S
H1354 N1342 0.984 . S
H1355 N1342 0.985 . S
C1356 C1357 1.363 . S
C1356 C1362 1.379 . S
C1356 N1364 1.356 . S
C1357 C1356 1.363 . S
C1357 C1363 1.363 . S
C1358 C1359 1.363 . S
C1358 C1363 1.379 . S
C1358 N1365 1.356 1_556 S
C1359 C1358 1.363 . S
C1359 C1362 1.363 . S
N1360 C1362 1.356 . S
N1360 H1372 0.984 . S
N1360 H1373 0.985 1_556 S
N1361 C1363 1.356 . S
N1361 H1366 0.984 . S
N1361 H1367 0.985 . S
C1362 C1356 1.379 . S
C1362 C1359 1.363 . S
C1362 N1360 1.356 . S
C1363 C1357 1.363 . S
C1363 C1358 1.379 . S
C1363 N1361 1.356 . S
N1364 C1356 1.356 . S
N1364 H1370 0.984 1_565 S
N1364 H1371 0.984 . S
N1365 C1358 1.356 1_554 S
N1365 H1368 0.984 . S
N1365 H1369 0.985 . S
H1366 N1361 0.984 . S
H1367 N1361 0.985 . S
H1368 N1365 0.984 . S
H1369 N1365 0.985 . S
H1370 N1364 0.984 1_545 S
H1371 N1364 0.984 . S
H1372 N1360 0.984 . S
H1373 N1360 0.985 1_554 S
C1374 C1375 1.363 1_545 S
C1374 C1380 1.379 . S
C1374 N1382 1.356 . S
C1375 C1374 1.363 1_565 S
C1375 C1381 1.363 . S
C1376 C1377 1.363 1_565 S
C1376 C1381 1.379 . S
C1376 N1383 1.356 . S
C1377 C1376 1.363 1_545 S
C1377 C1380 1.363 . S
N1378 C1380 1.356 . S
N1378 H1390 0.984 . S
N1378 H1391 0.985 . S
N1379 C1381 1.356 . S
N1379 H1384 0.984 . S
N1379 H1385 0.985 . S
C1380 C1374 1.379 . S
C1380 C1377 1.363 . S
C1380 N1378 1.356 . S
C1381 C1375 1.363 . S
C1381 C1376 1.379 . S
C1381 N1379 1.356 . S
N1382 C1374 1.356 . S
N1382 H1388 0.984 . S
N1382 H1389 0.984 1_545 S
N1383 C1376 1.356 . S
N1383 H1386 0.984 . S
N1383 H1387 0.985 . S
H1384 N1379 0.984 . S
H1385 N1379 0.985 . S
H1386 N1383 0.984 . S
H1387 N1383 0.985 . S
H1388 N1382 0.984 . S
H1389 N1382 0.984 1_565 S
H1390 N1378 0.984 . S
H1391 N1378 0.985 . S
C1392 C1393 1.363 . S
C1392 C1398 1.379 . S
C1392 N1400 1.356 . S
C1393 C1392 1.363 . S
C1393 C1399 1.363 . S
C1394 C1395 1.363 . S
C1394 C1399 1.379 . S
C1394 N1401 1.356 . S
C1395 C1394 1.363 . S
C1395 C1398 1.363 . S
N1396 C1398 1.356 . S
N1396 H1408 0.984 . S
N1396 H1409 0.985 . S
N1397 C1399 1.356 . S
N1397 H1402 0.984 . S
N1397 H1403 0.985 . S
C1398 C1392 1.379 . S
C1398 C1395 1.363 . S
C1398 N1396 1.356 . S
C1399 C1393 1.363 . S
C1399 C1394 1.379 . S
C1399 N1397 1.356 . S
N1400 C1392 1.356 . S
N1400 H1406 0.984 . S
N1400 H1407 0.984 . S
N1401 C1394 1.356 . S
N1401 H1404 0.984 . S
N1401 H1405 0.985 . S
H1402 N1397 0.984 . S
H1403 N1397 0.985 . S
H1404 N1401 0.984 . S
H1405 N1401 0.985 . S
H1406 N1400 0.984 . S
H1407 N1400 0.984 . S
H1408 N1396 0.984 . S
H1409 N1396 0.985 . S
C1410 C1411 1.363 . S
C1410 C1416 1.379 . S
C1410 N1418 1.356 . S
C1411 C1410 1.363 . S
C1411 C1417 1.363 . S
C1412 C1413 1.363 . S
C1412 C1417 1.379 . S
C1412 N1419 1.356 . S
C1413 C1412 1.363 . S
C1413 C1416 1.363 . S
N1414 C1416 1.356 . S
N1414 H1426 0.984 . S
N1414 H1427 0.985 . S
N1415 C1417 1.356 . S
N1415 H1420 0.984 . S
N1415 H1421 0.985 . S
C1416 C1410 1.379 . S
C1416 C1413 1.363 . S
C1416 N1414 1.356 . S
C1417 C1411 1.363 . S
C1417 C1412 1.379 . S
C1417 N1415 1.356 . S
N1418 C1410 1.356 . S
N1418 H1424 0.984 . S
N1418 H1425 0.984 . S
N1419 C1412 1.356 . S
N1419 H1422 0.984 . S
N1419 H1423 0.985 . S
H1420 N1415 0.984 . S
H1421 N1415 0.985 . S
H1422 N1419 0.984 . S
H1423 N1419 0.985 . S
H1424 N1418 0.984 . S
H1425 N1418 0.984 . S
H1426 N1414 0.984 . S
H1427 N1414 0.985 . S
C1428 C1429 1.363 . S
C1428 C1434 1.379 . S
C1428 N1436 1.356 . S
C1429 C1428 1.363 . S
C1429 C1435 1.363 . S
C1430 C1431 1.363 . S
C1430 C1435 1.379 . S
C1430 N1437 1.356 . S
C1431 C1430 1.363 . S
C1431 C1434 1.363 . S
N1432 C1434 1.356 1_556 S
N1432 H1444 0.984 . S
N1432 H1445 0.985 . S
N1433 C1435 1.356 . S
N1433 H1438 0.984 . S
N1433 H1439 0.985 . S
C1434 C1428 1.379 . S
C1434 C1431 1.363 . S
C1434 N1432 1.356 1_554 S
C1435 C1429 1.363 . S
C1435 C1430 1.379 . S
C1435 N1433 1.356 . S
N1436 C1428 1.356 . S
N1436 H1442 0.984 . S
N1436 H1443 0.984 . S
N1437 C1430 1.356 . S
N1437 H1440 0.984 1_554 S
N1437 H1441 0.985 . S
H1438 N1433 0.984 . S
H1439 N1433 0.985 . S
H1440 N1437 0.984 1_556 S
H1441 N1437 0.985 . S
H1442 N1436 0.984 . S
H1443 N1436 0.984 . S
H1444 N1432 0.984 . S
H1445 N1432 0.985 . S
C1446 C1447 1.363 . S
C1446 C1452 1.379 . S
C1446 N1454 1.356 . S
C1447 C1446 1.363 . S
C1447 C1453 1.363 . S
C1448 C1449 1.363 . S
C1448 C1453 1.379 . S
C1448 N1455 1.356 . S
C1449 C1448 1.363 . S
C1449 C1452 1.363 . S
N1450 C1452 1.356 . S
N1450 H1462 0.984 . S
N1450 H1463 0.985 . S
N1451 C1453 1.356 . S
N1451 H1456 0.984 . S
N1451 H1457 0.985 . S
C1452 C1446 1.379 . S
C1452 C1449 1.363 . S
C1452 N1450 1.356 . S
C1453 C1447 1.363 . S
C1453 C1448 1.379 . S
C1453 N1451 1.356 . S
N1454 C1446 1.356 . S
N1454 H1460 0.984 . S
N1454 H1461 0.984 . S
N1455 C1448 1.356 . S
N1455 H1458 0.984 . S
N1455 H1459 0.985 . S
H1456 N1451 0.984 . S
H1457 N1451 0.985 . S
H1458 N1455 0.984 . S
H1459 N1455 0.985 . S
H1460 N1454 0.984 . S
H1461 N1454 0.984 . S
H1462 N1450 0.984 . S
H1463 N1450 0.985 . S
C1464 C1465 1.363 . S
C1464 C1470 1.379 . S
C1464 N1472 1.356 . S
C1465 C1464 1.363 . S
C1465 C1471 1.363 . S
C1466 C1467 1.363 . S
C1466 C1471 1.379 . S
C1466 N1473 1.356 1_554 S
C1467 C1466 1.363 . S
C1467 C1470 1.363 . S
N1468 C1470 1.356 . S
N1468 H1480 0.984 . S
N1468 H1481 0.985 . S
N1469 C1471 1.356 . S
N1469 H1474 0.984 . S
N1469 H1475 0.985 1_554 S
C1470 C1464 1.379 . S
C1470 C1467 1.363 . S
C1470 N1468 1.356 . S
C1471 C1465 1.363 . S
C1471 C1466 1.379 . S
C1471 N1469 1.356 . S
N1472 C1464 1.356 . S
N1472 H1478 0.984 . S
N1472 H1479 0.984 . S
N1473 C1466 1.356 1_556 S
N1473 H1476 0.985 . S
N1473 H1477 0.985 . S
H1474 N1469 0.984 . S
H1475 N1469 0.985 1_556 S
H1476 N1473 0.985 . S
H1477 N1473 0.985 . S
H1478 N1472 0.984 . S
H1479 N1472 0.984 . S
H1480 N1468 0.984 . S
H1481 N1468 0.985 . S
C1482 C1483 1.363 . S
C1482 C1488 1.379 . S
C1482 N1490 1.356 1_655 S
C1483 C1482 1.363 . S
C1483 C1489 1.363 . S
C1484 C1485 1.363 . S
C1484 C1489 1.379 . S
C1484 N1491 1.356 . S
C1485 C1484 1.363 . S
C1485 C1488 1.363 . S
N1486 C1488 1.356 . S
N1486 H1498 0.984 1_556 S
N1486 H1499 0.985 . S
N1487 C1489 1.356 . S
N1487 H1492 0.984 . S
N1487 H1493 0.985 . S
C1488 C1482 1.379 . S
C1488 C1485 1.363 . S
C1488 N1486 1.356 . S
C1489 C1483 1.363 . S
C1489 C1484 1.379 . S
C1489 N1487 1.356 . S
N1490 C1482 1.356 1_455 S
N1490 H1496 0.984 . S
N1490 H1497 0.984 . S
N1491 C1484 1.356 . S
N1491 H1494 0.984 . S
N1491 H1495 0.985 . S
H1492 N1487 0.984 . S
H1493 N1487 0.985 . S
H1494 N1491 0.984 . S
H1495 N1491 0.985 . S
H1496 N1490 0.984 . S
H1497 N1490 0.984 . S
H1498 N1486 0.984 1_554 S
H1499 N1486 0.985 . S
C1500 C1501 1.363 1_455 S
C1500 C1506 1.379 . S
C1500 N1508 1.356 . S
C1501 C1500 1.363 1_655 S
C1501 C1507 1.363 . S
C1502 C1503 1.363 . S
C1502 C1507 1.379 1_455 S
C1502 N1509 1.356 . S
C1503 C1502 1.363 . S
C1503 C1506 1.363 . S
N1504 C1506 1.356 . S
N1504 H1516 0.984 . S
N1504 H1517 0.985 . S
N1505 C1507 1.356 . S
N1505 H1510 0.984 . S
N1505 H1511 0.985 . S
C1506 C1500 1.379 . S
C1506 C1503 1.363 . S
C1506 N1504 1.356 . S
C1507 C1501 1.363 . S
C1507 C1502 1.379 1_655 S
C1507 N1505 1.356 . S
N1508 C1500 1.356 . S
N1508 H1514 0.984 . S
N1508 H1515 0.984 1_455 S
N1509 C1502 1.356 . S
N1509 H1512 0.984 . S
N1509 H1513 0.985 1_455 S
H1510 N1505 0.984 . S
H1511 N1505 0.985 . S
H1512 N1509 0.984 . S
H1513 N1509 0.985 1_655 S
H1514 N1508 0.984 . S
H1515 N1508 0.984 1_655 S
H1516 N1504 0.984 . S
H1517 N1504 0.985 . S
C1518 C1519 1.363 . S
C1518 C1524 1.379 . S
C1518 N1526 1.356 . S
C1519 C1518 1.363 . S
C1519 C1525 1.363 . S
C1520 C1521 1.363 . S
C1520 C1525 1.379 . S
C1520 N1527 1.356 . S
C1521 C1520 1.363 . S
C1521 C1524 1.363 . S
N1522 C1524 1.356 . S
N1522 H1534 0.984 . S
N1522 H1535 0.985 . S
N1523 C1525 1.356 . S
N1523 H1528 0.984 . S
N1523 H1529 0.985 . S
C1524 C1518 1.379 . S
C1524 C1521 1.363 . S
C1524 N1522 1.356 . S
C1525 C1519 1.363 . S
C1525 C1520 1.379 . S
C1525 N1523 1.356 . S
N1526 C1518 1.356 . S
N1526 H1532 0.984 . S
N1526 H1533 0.984 . S
N1527 C1520 1.356 . S
N1527 H1530 0.984 . S
N1527 H1531 0.985 . S
H1528 N1523 0.984 . S
H1529 N1523 0.985 . S
H1530 N1527 0.984 . S
H1531 N1527 0.985 . S
H1532 N1526 0.984 . S
H1533 N1526 0.984 . S
H1534 N1522 0.984 . S
H1535 N1522 0.985 . S
C1536 C1537 1.363 . S
C1536 C1542 1.379 . S
C1536 N1544 1.356 . S
C1537 C1536 1.363 . S
C1537 C1543 1.363 . S
C1538 C1539 1.363 . S
C1538 C1543 1.379 . S
C1538 N1545 1.356 . S
C1539 C1538 1.363 . S
C1539 C1542 1.363 . S
N1540 C1542 1.356 . S
N1540 H1552 0.984 . S
N1540 H1553 0.985 . S
N1541 C1543 1.356 . S
N1541 H1546 0.984 . S
N1541 H1547 0.985 . S
C1542 C1536 1.379 . S
C1542 C1539 1.363 . S
C1542 N1540 1.356 . S
C1543 C1537 1.363 . S
C1543 C1538 1.379 . S
C1543 N1541 1.356 . S
N1544 C1536 1.356 . S
N1544 H1550 0.984 . S
N1544 H1551 0.984 . S
N1545 C1538 1.356 . S
N1545 H1548 0.984 . S
N1545 H1549 0.985 . S
H1546 N1541 0.984 . S
H1547 N1541 0.985 . S
H1548 N1545 0.984 . S
H1549 N1545 0.985 . S
H1550 N1544 0.984 . S
H1551 N1544 0.984 . S
H1552 N1540 0.984 . S
H1553 N1540 0.985 . S
C1554 C1555 1.363 . S
C1554 C1560 1.379 . S
C1554 N1562 1.356 . S
C1555 C1554 1.363 . S
C1555 C1561 1.363 . S
C1556 C1557 1.363 . S
C1556 C1561 1.379 . S
C1556 N1563 1.356 . S
C1557 C1556 1.363 . S
C1557 C1560 1.363 . S
N1558 C1560 1.356 . S
N1558 H1570 0.984 . S
N1558 H1571 0.985 . S
N1559 C1561 1.356 1_655 S
N1559 H1564 0.984 . S
N1559 H1565 0.985 . S
C1560 C1554 1.379 . S
C1560 C1557 1.363 . S
C1560 N1558 1.356 . S
C1561 C1555 1.363 . S
C1561 C1556 1.379 . S
C1561 N1559 1.356 1_455 S
N1562 C1554 1.356 . S
N1562 H1568 0.984 . S
N1562 H1569 0.984 . S
N1563 C1556 1.356 . S
N1563 H1566 0.984 . S
N1563 H1567 0.985 . S
H1564 N1559 0.984 . S
H1565 N1559 0.985 . S
H1566 N1563 0.984 . S
H1567 N1563 0.985 . S
H1568 N1562 0.984 . S
H1569 N1562 0.984 . S
H1570 N1558 0.984 . S
H1571 N1558 0.985 . S
C1572 C1573 1.363 . S
C1572 C1578 1.379 . S
C1572 N1580 1.356 . S
C1573 C1572 1.363 . S
C1573 C1579 1.363 . S
C1574 C1575 1.363 . S
C1574 C1579 1.379 . S
C1574 N1581 1.356 . S
C1575 C1574 1.363 . S
C1575 C1578 1.363 . S
N1576 C1578 1.356 . S
N1576 H1588 0.984 . S
N1576 H1589 0.985 . S
N1577 C1579 1.356 . S
N1577 H1582 0.984 . S
N1577 H1583 0.985 . S
C1578 C1572 1.379 . S
C1578 C1575 1.363 . S
C1578 N1576 1.356 . S
C1579 C1573 1.363 . S
C1579 C1574 1.379 . S
C1579 N1577 1.356 . S
N1580 C1572 1.356 . S
N1580 H1586 0.984 . S
N1580 H1587 0.984 . S
N1581 C1574 1.356 . S
N1581 H1584 0.984 . S
N1581 H1585 0.985 . S
H1582 N1577 0.984 . S
H1583 N1577 0.985 . S
H1584 N1581 0.984 . S
H1585 N1581 0.985 . S
H1586 N1580 0.984 . S
H1587 N1580 0.984 . S
H1588 N1576 0.984 . S
H1589 N1576 0.985 . S
C1590 C1591 1.363 . S
C1590 C1596 1.379 . S
C1590 N1598 1.356 . S
C1591 C1590 1.363 . S
C1591 C1597 1.363 . S
C1592 C1593 1.363 . S
C1592 C1597 1.379 1_455 S
C1592 N1599 1.356 . S
C1593 C1592 1.363 . S
C1593 C1596 1.363 1_455 S
N1594 C1596 1.356 . S
N1594 H1606 0.984 . S
N1594 H1607 0.985 1_655 S
N1595 C1597 1.356 . S
N1595 H1600 0.984 . S
N1595 H1601 0.985 1_655 S
C1596 C1590 1.379 . S
C1596 C1593 1.363 1_655 S
C1596 N1594 1.356 . S
C1597 C1591 1.363 . S
C1597 C1592 1.379 1_655 S
C1597 N1595 1.356 . S
N1598 C1590 1.356 . S
N1598 H1604 0.984 . S
N1598 H1605 0.984 . S
N1599 C1592 1.356 . S
N1599 H1602 0.984 . S
N1599 H1603 0.985 . S
H1600 N1595 0.984 . S
H1601 N1595 0.985 1_455 S
H1602 N1599 0.984 . S
H1603 N1599 0.985 . S
H1604 N1598 0.984 . S
H1605 N1598 0.984 . S
H1606 N1594 0.984 . S
H1607 N1594 0.985 1_455 S
C1608 C1609 1.363 . S
C1608 C1614 1.379 . S
C1608 N1616 1.356 . S
C1609 C1608 1.363 . S
C1609 C1615 1.363 . S
C1610 C1611 1.363 . S
C1610 C1615 1.379 . S
C1610 N1617 1.356 . S
C1611 C1610 1.363 . S
C1611 C1614 1.363 . S
N1612 C1614 1.356 . S
N1612 H1624 0.984 . S
N1612 H1625 0.985 . S
N1613 C1615 1.356 . S
N1613 H1618 0.984 . S
N1613 H1619 0.985 . S
C1614 C1608 1.379 . S
C1614 C1611 1.363 . S
C1614 N1612 1.356 . S
C1615 C1609 1.363 . S
C1615 C1610 1.379 . S
C1615 N1613 1.356 . S
N1616 C1608 1.356 . S
N1616 H1622 0.984 . S
N1616 H1623 0.984 . S
N1617 C1610 1.356 . S
N1617 H1620 0.984 . S
N1617 H1621 0.985 . S
H1618 N1613 0.984 . S
H1619 N1613 0.985 . S
H1620 N1617 0.984 . S
H1621 N1617 0.985 . S
H1622 N1616 0.984 . S
H1623 N1616 0.984 . S
H1624 N1612 0.984 . S
H1625 N1612 0.985 . S
C1626 C1627 1.363 . S
C1626 C1632 1.379 1_455 S
C1626 N1634 1.356 . S
C1627 C1626 1.363 . S
C1627 C1633 1.363 . S
C1628 C1629 1.363 1_455 S
C1628 C1633 1.379 . S
C1628 N1635 1.356 1_455 S
C1629 C1628 1.363 1_655 S
C1629 C1632 1.363 . S
N1630 C1632 1.356 . S
N1630 H1642 0.984 . S
N1630 H1643 0.985 . S
N1631 C1633 1.356 . S
N1631 H1636 0.984 . S
N1631 H1637 0.985 . S
C1632 C1626 1.379 1_655 S
C1632 C1629 1.363 . S
C1632 N1630 1.356 . S
C1633 C1627 1.363 . S
C1633 C1628 1.379 . S
C1633 N1631 1.356 . S
N1634 C1626 1.356 . S
N1634 H1640 0.984 . S
N1634 H1641 0.984 . S
N1635 C1628 1.356 1_655 S
N1635 H1638 0.984 . S
N1635 H1639 0.985 . S
H1636 N1631 0.984 . S
H1637 N1631 0.985 . S
H1638 N1635 0.984 . S
H1639 N1635 0.985 . S
H1640 N1634 0.984 . S
H1641 N1634 0.984 . S
H1642 N1630 0.984 . S
H1643 N1630 0.985 . S
C1644 C1645 1.387 . S
C1644 C1650 1.361 1_556 S
C1644 N1652 1.358 . S
C1645 C1644 1.387 . S
C1645 C1651 1.363 . S
C1646 C1647 1.363 1_556 S
C1646 C1651 1.379 . S
C1646 N1653 1.356 . S
C1647 C1646 1.363 1_554 S
C1647 C1650 1.363 . S
N1648 C1650 1.356 . S
N1648 H1660 0.984 . S
N1648 H1661 0.985 . S
N1649 C1651 1.356 . S
N1649 H1654 0.984 . S
N1649 H1655 0.985 . S
C1650 C1644 1.361 1_554 S
C1650 C1647 1.363 . S
C1650 N1648 1.356 . S
C1651 C1645 1.363 . S
C1651 C1646 1.379 . S
C1651 N1649 1.356 . S
N1652 C1644 1.358 . S
N1652 H1658 0.984 1_556 S
N1652 H1659 0.984 . S
N1653 C1646 1.356 . S
N1653 H1656 0.984 1_556 S
N1653 H1657 0.985 . S
H1654 N1649 0.984 . S
H1655 N1649 0.985 . S
H1656 N1653 0.984 1_554 S
H1657 N1653 0.985 . S
H1658 N1652 0.984 1_554 S
H1659 N1652 0.984 . S
H1660 N1648 0.984 . S
H1661 N1648 0.985 . S
C1662 C1663 1.363 . S
C1662 C1668 1.379 . S
C1662 N1670 1.356 . S
C1663 C1662 1.363 . S
C1663 C1669 1.363 . S
C1664 C1665 1.363 . S
C1664 C1669 1.379 . S
C1664 N1671 1.356 . S
C1665 C1664 1.363 . S
C1665 C1668 1.363 . S
N1666 C1668 1.356 . S
N1666 H1678 0.984 . S
N1666 H1679 0.985 . S
N1667 C1669 1.356 . S
N1667 H1672 0.984 . S
N1667 H1673 0.985 . S
C1668 C1662 1.379 . S
C1668 C1665 1.363 . S
C1668 N1666 1.356 . S
C1669 C1663 1.363 . S
C1669 C1664 1.379 . S
C1669 N1667 1.356 . S
N1670 C1662 1.356 . S
N1670 H1676 0.984 . S
N1670 H1677 0.984 . S
N1671 C1664 1.356 . S
N1671 H1674 0.984 . S
N1671 H1675 0.985 . S
H1672 N1667 0.984 . S
H1673 N1667 0.985 . S
H1674 N1671 0.984 . S
H1675 N1671 0.985 . S
H1676 N1670 0.984 . S
H1677 N1670 0.984 . S
H1678 N1666 0.984 . S
H1679 N1666 0.985 . S
C1680 C1681 1.363 . S
C1680 C1686 1.379 . S
C1680 N1688 1.356 . S
C1681 C1680 1.363 . S
C1681 C1687 1.363 . S
C1682 C1683 1.363 . S
C1682 C1687 1.379 . S
C1682 N1689 1.356 . S
C1683 C1682 1.363 . S
C1683 C1686 1.363 . S
N1684 C1686 1.356 . S
N1684 H1696 0.984 . S
N1684 H1697 0.985 . S
N1685 C1687 1.356 . S
N1685 H1690 0.984 . S
N1685 H1691 0.985 . S
C1686 C1680 1.379 . S
C1686 C1683 1.363 . S
C1686 N1684 1.356 . S
C1687 C1681 1.363 . S
C1687 C1682 1.379 . S
C1687 N1685 1.356 . S
N1688 C1680 1.356 . S
N1688 H1694 0.984 . S
N1688 H1695 0.984 . S
N1689 C1682 1.356 . S
N1689 H1692 0.984 . S
N1689 H1693 0.985 . S
H1690 N1685 0.984 . S
H1691 N1685 0.985 . S
H1692 N1689 0.984 . S
H1693 N1689 0.985 . S
H1694 N1688 0.984 . S
H1695 N1688 0.984 . S
H1696 N1684 0.984 . S
H1697 N1684 0.985 . S
C1698 C1699 1.363 1_455 S
C1698 C1704 1.379 . S
C1698 N1706 1.356 . S
C1699 C1698 1.363 1_655 S
C1699 C1705 1.363 . S
C1700 C1701 1.363 1_655 S
C1700 C1705 1.379 . S
C1700 N1707 1.356 . S
C1701 C1700 1.363 1_455 S
C1701 C1704 1.363 . S
N1702 C1704 1.356 . S
N1702 H1714 0.984 . S
N1702 H1715 0.985 . S
N1703 C1705 1.356 . S
N1703 H1708 0.984 . S
N1703 H1709 0.985 . S
C1704 C1698 1.379 . S
C1704 C1701 1.363 . S
C1704 N1702 1.356 . S
C1705 C1699 1.363 . S
C1705 C1700 1.379 . S
C1705 N1703 1.356 . S
N1706 C1698 1.356 . S
N1706 H1712 0.984 . S
N1706 H1713 0.984 1_455 S
N1707 C1700 1.356 . S
N1707 H1710 0.984 . S
N1707 H1711 0.985 . S
H1708 N1703 0.984 . S
H1709 N1703 0.985 . S
H1710 N1707 0.984 . S
H1711 N1707 0.985 . S
H1712 N1706 0.984 . S
H1713 N1706 0.984 1_655 S
H1714 N1702 0.984 . S
H1715 N1702 0.985 . S
C1716 C1717 1.363 . S
C1716 C1722 1.379 . S
C1716 N1724 1.356 . S
C1717 C1716 1.363 . S
C1717 C1723 1.363 . S
C1718 C1719 1.363 . S
C1718 C1723 1.379 1_556 S
C1718 N1725 1.356 . S
C1719 C1718 1.363 . S
C1719 C1722 1.363 1_556 S
N1720 C1722 1.358 . S
N1720 H1732 0.989 . S
N1720 H1733 0.978 1_554 S
N1721 C1723 1.356 . S
N1721 H1726 0.984 . S
N1721 H1727 0.985 . S
C1722 C1716 1.379 . S
C1722 C1719 1.363 1_554 S
C1722 N1720 1.358 . S
C1723 C1717 1.363 . S
C1723 C1718 1.379 1_554 S
C1723 N1721 1.356 . S
N1724 C1716 1.356 . S
N1724 H1730 0.984 . S
N1724 H1731 0.984 . S
N1725 C1718 1.356 . S
N1725 H1728 0.984 . S
N1725 H1729 0.985 . S
H1726 N1721 0.984 . S
H1727 N1721 0.985 . S
H1728 N1725 0.984 . S
H1729 N1725 0.985 . S
H1730 N1724 0.984 . S
H1731 N1724 0.984 . S
H1732 N1720 0.989 . S
H1733 N1720 0.978 1_556 S
C1734 C1735 1.363 . S
C1734 C1740 1.379 . S
C1734 N1742 1.356 . S
C1735 C1734 1.363 . S
C1735 C1741 1.363 . S
C1736 C1737 1.363 . S
C1736 C1741 1.379 . S
C1736 N1743 1.356 . S
C1737 C1736 1.363 . S
C1737 C1740 1.363 . S
N1738 C1740 1.356 . S
N1738 H1750 0.984 . S
N1738 H1751 0.985 . S
N1739 C1741 1.356 . S
N1739 H1744 0.984 . S
N1739 H1745 0.985 . S
C1740 C1734 1.379 . S
C1740 C1737 1.363 . S
C1740 N1738 1.356 . S
C1741 C1735 1.363 . S
C1741 C1736 1.379 . S
C1741 N1739 1.356 . S
N1742 C1734 1.356 . S
N1742 H1748 0.984 . S
N1742 H1749 0.984 . S
N1743 C1736 1.356 . S
N1743 H1746 0.984 . S
N1743 H1747 0.985 . S
H1744 N1739 0.984 . S
H1745 N1739 0.985 . S
H1746 N1743 0.984 . S
H1747 N1743 0.985 . S
H1748 N1742 0.984 . S
H1749 N1742 0.984 . S
H1750 N1738 0.984 . S
H1751 N1738 0.985 . S
C1752 C1753 1.363 . S
C1752 C1758 1.379 . S
C1752 N1760 1.356 . S
C1753 C1752 1.363 . S
C1753 C1759 1.363 . S
C1754 C1755 1.363 . S
C1754 C1759 1.379 . S
C1754 N1761 1.356 . S
C1755 C1754 1.363 . S
C1755 C1758 1.363 . S
N1756 C1758 1.356 . S
N1756 H1768 0.984 . S
N1756 H1769 0.985 . S
N1757 C1759 1.356 . S
N1757 H1762 0.984 . S
N1757 H1763 0.985 . S
C1758 C1752 1.379 . S
C1758 C1755 1.363 . S
C1758 N1756 1.356 . S
C1759 C1753 1.363 . S
C1759 C1754 1.379 . S
C1759 N1757 1.356 . S
N1760 C1752 1.356 . S
N1760 H1766 0.984 . S
N1760 H1767 0.984 . S
N1761 C1754 1.356 . S
N1761 H1764 0.984 . S
N1761 H1765 0.985 . S
H1762 N1757 0.984 . S
H1763 N1757 0.985 . S
H1764 N1761 0.984 . S
H1765 N1761 0.985 . S
H1766 N1760 0.984 . S
H1767 N1760 0.984 . S
H1768 N1756 0.984 . S
H1769 N1756 0.985 . S
C1770 C1771 1.363 . S
C1770 C1776 1.379 1_545 S
C1770 N1778 1.356 . S
C1771 C1770 1.363 . S
C1771 C1777 1.363 . S
C1772 C1773 1.350 1_545 S
C1772 C1777 1.397 . S
C1772 N1779 1.346 1_545 S
C1773 C1772 1.350 1_565 S
C1773 C1776 1.363 . S
N1774 C1776 1.356 . S
N1774 H1786 0.984 . S
N1774 H1787 0.985 . S
N1775 C1777 1.356 . S
N1775 H1780 0.984 . S
N1775 H1781 0.985 . S
C1776 C1770 1.379 1_565 S
C1776 C1773 1.363 . S
C1776 N1774 1.356 . S
C1777 C1771 1.363 . S
C1777 C1772 1.397 . S
C1777 N1775 1.356 . S
N1778 C1770 1.356 . S
N1778 H1784 0.984 . S
N1778 H1785 0.984 . S
N1779 C1772 1.346 1_565 S
N1779 H1782 0.984 . S
N1779 H1783 0.985 . S
H1780 N1775 0.984 . S
H1781 N1775 0.985 . S
H1782 N1779 0.984 . S
H1783 N1779 0.985 . S
H1784 N1778 0.984 . S
H1785 N1778 0.984 . S
H1786 N1774 0.984 . S
H1787 N1774 0.985 . S
C1788 C1789 1.363 1_565 S
C1788 C1794 1.379 . S
C1788 N1796 1.356 . S
C1789 C1788 1.363 1_545 S
C1789 C1795 1.363 . S
C1790 C1791 1.363 1_545 S
C1790 C1795 1.379 . S
C1790 N1797 1.356 . S
C1791 C1790 1.363 1_565 S
C1791 C1794 1.363 . S
N1792 C1794 1.356 . S
N1792 H1804 0.984 . S
N1792 H1805 0.985 . S
N1793 C1795 1.356 . S
N1793 H1798 0.984 . S
N1793 H1799 0.985 . S
C1794 C1788 1.379 . S
C1794 C1791 1.363 . S
C1794 N1792 1.356 . S
C1795 C1789 1.363 . S
C1795 C1790 1.379 . S
C1795 N1793 1.356 . S
N1796 C1788 1.356 . S
N1796 H1802 0.984 . S
N1796 H1803 0.984 1_565 S
N1797 C1790 1.356 . S
N1797 H1800 0.984 1_545 S
N1797 H1801 0.985 . S
H1798 N1793 0.984 . S
H1799 N1793 0.985 . S
H1800 N1797 0.984 1_565 S
H1801 N1797 0.985 . S
H1802 N1796 0.984 . S
H1803 N1796 0.984 1_545 S
H1804 N1792 0.984 . S
H1805 N1792 0.985 . S
C1806 C1807 1.363 . S
C1806 C1812 1.379 . S
C1806 N1814 1.356 . S
C1807 C1806 1.363 . S
C1807 C1813 1.363 . S
C1808 C1809 1.363 . S
C1808 C1813 1.379 . S
C1808 N1815 1.356 . S
C1809 C1808 1.363 . S
C1809 C1812 1.363 . S
N1810 C1812 1.356 . S
N1810 H1822 0.984 . S
N1810 H1823 0.985 . S
N1811 C1813 1.356 . S
N1811 H1816 0.984 . S
N1811 H1817 0.985 . S
C1812 C1806 1.379 . S
C1812 C1809 1.363 . S
C1812 N1810 1.356 . S
C1813 C1807 1.363 . S
C1813 C1808 1.379 . S
C1813 N1811 1.356 . S
N1814 C1806 1.356 . S
N1814 H1820 0.984 . S
N1814 H1821 0.984 . S
N1815 C1808 1.356 . S
N1815 H1818 0.984 . S
N1815 H1819 0.985 . S
H1816 N1811 0.984 . S
H1817 N1811 0.985 . S
H1818 N1815 0.984 . S
H1819 N1815 0.985 . S
H1820 N1814 0.984 . S
H1821 N1814 0.984 . S
H1822 N1810 0.984 . S
H1823 N1810 0.985 . S
C529 C4 1.187 . S
C531 C338 1.187 . S
C547 C268 1.187 . S
C549 C26 1.187 . S
C565 C294 1.187 . S
C567 C48 1.187 . S
C583 C70 1.187 . S
C585 C316 1.187 . S
C601 C96 1.187 . S
C603 C202 1.187 . S
C619 C118 1.187 . S
C621 C224 1.187 . S
C637 C140 1.187 . S
C639 C246 1.187 . S
C655 C162 1.187 . S
C657 C184 1.187 . S
C673 C356 1.187 . S
C675 C448 1.187 . S
C691 C382 1.187 . S
C693 C510 1.187 . S
C709 C400 1.187 . S
C711 C470 1.187 . S
C727 C422 1.187 . S
C729 C488 1.187 . S
C745 C466 1.257 . S
C747 C9 1.247 . S
C763 C31 1.247 . S
C765 C492 1.257 . S
C781 C53 1.247 . S
C783 C360 1.257 . S
C799 C75 1.247 . S
C801 C514 1.257 . S
C817 C426 1.257 1_545 S
C819 C93 1.247 . S
C835 C444 1.257 . S
C837 C115 1.247 . S
C853 C137 1.247 . S
C855 C378 1.257 1_565 S
C871 C159 1.247 . S
C873 C404 1.257 . S
C889 C181 1.247 . S
C891 C92 1.257 . S
C907 C207 1.247 . S
C909 C114 1.257 . S
C925 C229 1.247 . S
C927 C136 1.257 1_556 S
C943 C251 1.247 . S
C945 C158 1.257 . S
C961 C8 1.257 . S
C963 C273 1.247 . S
C979 C291 1.247 . S
C981 C30 1.257 . S
C997 C313 1.247 . S
C999 C52 1.257 1_554 S
C1015 C335 1.247 . S
C1017 C74 1.257 . S
C1033 C312 1.257 . S
C1035 C361 1.247 . S
C1051 C228 1.257 1_655 S
C1053 C379 1.247 . S
C1069 C405 1.247 . S
C1071 C250 1.257 . S
C1087 C180 1.257 . S
C1089 C427 1.247 . S
C1105 C445 1.247 . S
C1107 C206 1.257 . S
C1123 C272 1.257 1_455 S
C1125 C467 1.247 . S
C1141 C290 1.257 . S
C1143 C493 1.247 . S
C1159 C334 1.257 . S
C1161 C515 1.247 . S
C1177 C401 1.660 . S
C1179 C6 1.634 . S
C1195 C28 1.634 . S
C1197 C423 1.660 . S
C1213 C449 1.660 . S
C1215 C50 1.634 . S
C1231 C72 1.634 . S
C1233 C383 1.660 . S
C1249 C489 1.660 1_545 S
C1251 C95 1.634 . S
C1267 C357 1.660 . S
C1269 C117 1.634 . S
C1285 C511 1.660 1_565 S
C1287 C139 1.634 . S
C1303 C471 1.660 . S
C1305 C161 1.634 . S
C1321 C203 1.660 . S
C1323 C183 1.634 . S
C1339 C225 1.660 . S
C1341 C204 1.634 . S
C1357 C226 1.634 . S
C1359 C247 1.660 1_556 S
C1375 C248 1.634 . S
C1377 C185 1.660 . S
C1393 C339 1.660 . S
C1395 C270 1.634 . S
C1411 C269 1.660 . S
C1413 C293 1.634 . S
C1429 C315 1.634 . S
C1431 C295 1.660 1_554 S
C1447 C337 1.634 . S
C1449 C317 1.660 . S
C1465 C71 1.660 . S
C1467 C358 1.634 . S
C1483 C119 1.660 1_655 S
C1485 C381 1.634 . S
C1501 C141 1.660 . S
C1503 C402 1.634 . S
C1519 C163 1.660 . S
C1521 C424 1.634 . S
C1537 C97 1.660 . S
C1539 C447 1.634 . S
C1555 C27 1.660 1_455 S
C1557 C469 1.634 . S
C1573 C49 1.660 . S
C1575 C490 1.634 . S
C1591 C512 1.634 . S
C1593 C5 1.660 . S
C1609 C7 1.512 . S
C1611 C205 1.512 . S
C1627 C227 1.512 . S
C1629 C29 1.512 . S
C1645 C51 1.512 . S
C1647 C249 1.512 . S
C1663 C73 1.512 . S
C1665 C182 1.512 . S
C1681 C94 1.512 . S
C1683 C336 1.512 . S
C1699 C271 1.512 . S
C1701 C116 1.512 . S
C1717 C138 1.512 . S
C1719 C292 1.512 . S
C1735 C160 1.512 . S
C1737 C314 1.512 . S
C1753 C359 1.512 . S
C1755 C403 1.512 . S
C1771 C380 1.512 . S
C1773 C491 1.512 . S
C1789 C513 1.512 . S
C1791 C425 1.512 . S
C1807 C446 1.512 . S
C1809 C468 1.512 . S
