# Generated by pormake.
# Topology qtz-e, (6)-cn, num edge types: 1
# Building blocks:
#     Node 0, Type 0, BuildingBlock: LEVNOQ01_clean_sbu_1, # of connection points: 6
#     Node 1, Type 0, BuildingBlock: LEVNOQ01_clean_sbu_1, # of connection points: 6
#     Node 2, Type 0, BuildingBlock: LEVNOQ01_clean_sbu_1, # of connection points: 6
#     Node 3, Type 0, BuildingBlock: LEVNOQ01_clean_sbu_1, # of connection points: 6
#     Node 4, Type 0, BuildingBlock: LEVNOQ01_clean_sbu_1, # of connection points: 6
#     Node 5, Type 0, BuildingBlock: LEVNOQ01_clean_sbu_1, # of connection points: 6
#     Edge 6, Type (0, 0), BuildingBlock: CIFDUS_clean_linker_0, # of connection points: 2
#     Edge 7, Type (0, 0), BuildingBlock: CIFDUS_clean_linker_0, # of connection points: 2
#     Edge 8, Type (0, 0), BuildingBlock: CIFDUS_clean_linker_0, # of connection points: 2
#     Edge 9, Type (0, 0), BuildingBlock: CIFDUS_clean_linker_0, # of connection points: 2
#     Edge 10, Type (0, 0), BuildingBlock: CIFDUS_clean_linker_0, # of connection points: 2
#     Edge 11, Type (0, 0), BuildingBlock: CIFDUS_clean_linker_0, # of connection points: 2
#     Edge 12, Type (0, 0), BuildingBlock: CIFDUS_clean_linker_0, # of connection points: 2
#     Edge 13, Type (0, 0), BuildingBlock: CIFDUS_clean_linker_0, # of connection points: 2
#     Edge 14, Type (0, 0), BuildingBlock: CIFDUS_clean_linker_0, # of connection points: 2
#     Edge 15, Type (0, 0), BuildingBlock: CIFDUS_clean_linker_0, # of connection points: 2
#     Edge 16, Type (0, 0), BuildingBlock: CIFDUS_clean_linker_0, # of connection points: 2
#     Edge 17, Type (0, 0), BuildingBlock: CIFDUS_clean_linker_0, # of connection points: 2
#     Edge 18, Type (0, 0), BuildingBlock: CIFDUS_clean_linker_0, # of connection points: 2
#     Edge 19, Type (0, 0), BuildingBlock: CIFDUS_clean_linker_0, # of connection points: 2
#     Edge 20, Type (0, 0), BuildingBlock: CIFDUS_clean_linker_0, # of connection points: 2
#     Edge 21, Type (0, 0), BuildingBlock: CIFDUS_clean_linker_0, # of connection points: 2
#     Edge 22, Type (0, 0), BuildingBlock: CIFDUS_clean_linker_0, # of connection points: 2
#     Edge 23, Type (0, 0), BuildingBlock: CIFDUS_clean_linker_0, # of connection points: 2
# Relax obj value: 0.331
# Max RMSD: 0.227
# Mean RMSD: 0.227
data_MOF--net-qtz-e--node1-LEVNOQ01_clean_sbu_1--edge1-CIFDUS_clean_linker_0
_symmetry_space_group_name_H-M    P1
_symmetry_Int_Tables_number       1
_symmetry_cell_setting            triclinic
loop_
_symmetry_equiv_pos_as_xyz
'x, y, z'
_cell_length_a     24.871964
_cell_length_b     25.218568
_cell_length_c     28.08731
_cell_angle_alpha  90.081026
_cell_angle_beta   90.26346
_cell_angle_gamma 119.91787
loop_
_atom_site_label
_atom_site_type_symbol
_atom_site_fract_x
_atom_site_fract_y
_atom_site_fract_z
_atom_type_partial_charge
O0 O 0.3304 0.49972 0.03752 0.0
Mg1 Mg 0.3065 0.5411 -0.01739 0.0
O2 O 0.28712 0.40929 0.00185 0.0
Mg3 Mg 0.19068 0.39597 -0.02257 0.0
O4 O 0.21637 0.4935 -0.00479 0.0
O5 O 0.26537 0.5933 0.00418 0.0
O6 O 0.10101 0.38834 0.95124 0.0
O7 O 0.15077 0.3676 0.0544 0.0
Mg8 Mg 0.06675 0.25631 -0.01962 0.0
O9 O 0.15666 0.29703 0.95678 0.0
O10 O 0.01778 0.29656 0.94565 0.0
O11 O 0.07574 0.26983 0.05448 0.0
O12 O 0.09296 0.19801 0.94785 0.0
C13 C 0.28271 0.4689 0.88597 0.0
C14 C 0.33036 0.45077 0.02747 0.0
C15 C 0.21647 0.54125 0.01171 0.0
C16 C 0.04426 0.35424 0.94024 0.0
C17 C 0.11091 0.31962 0.0762 0.0
C18 C 0.1472 0.24485 0.94121 0.0
O19 O 0.31662 0.51568 0.9117 0.0
O20 O 0.23215 0.42402 0.90137 0.0
O21 O 0.76976 0.05032 0.35617 0.0
Mg22 Mg 0.77097 0.04779 0.2801 0.0
O23 O 0.78964 0.14594 0.36956 0.0
Mg24 Mg 0.79521 0.19137 0.29828 0.0
O25 O 0.83246 0.13628 0.26532 0.0
O26 O 0.85338 0.06546 0.24348 0.0
O27 O 0.80086 0.23994 0.22817 0.0
O28 O 0.89972 0.26508 0.31269 0.0
Mg29 Mg 0.82957 0.3161 0.33144 0.0
O30 O 0.74752 0.23863 0.33681 0.0
O31 O 0.84778 0.33523 0.25598 0.0
O32 O 0.88209 0.29422 0.37961 0.0
O33 O 0.76056 0.32842 0.36061 0.0
C34 C 0.66226 0.06595 0.25936 0.0
C35 C 0.77893 0.09389 0.38419 0.0
C36 C 0.8712 0.12282 0.24698 0.0
C37 C 0.82764 0.29752 0.22126 0.0
C38 C 0.92104 0.29401 0.35154 0.0
C39 C 0.72563 0.26988 0.35731 0.0
O40 O 0.68501 0.03175 0.2499 0.0
O41 O 0.69502 0.1186 0.27853 0.0
O42 O 0.51212 0.84387 0.73012 0.0
Mg43 Mg 0.43823 0.78131 0.68633 0.0
O44 O 0.57308 0.87757 0.66946 0.0
Mg45 Mg 0.56765 0.78573 0.65019 0.0
O46 O 0.47272 0.72454 0.68109 0.0
O47 O 0.37861 0.69011 0.70776 0.0
O48 O 0.56197 0.69623 0.62776 0.0
O49 O 0.61589 0.78696 0.72305 0.0
Mg50 Mg 0.70807 0.79732 0.63358 0.0
O51 O 0.66011 0.83981 0.61565 0.0
O52 O 0.65264 0.7034 0.61086 0.0
O53 O 0.71324 0.80904 0.70797 0.0
O54 O 0.75507 0.87544 0.58987 0.0
C55 C 0.47401 0.80393 0.57675 0.0
C56 C 0.54304 0.88702 0.70162 0.0
C57 C 0.42294 0.67967 0.69787 0.0
C58 C 0.59378 0.67217 0.61417 0.0
C59 C 0.67045 0.80037 0.73686 0.0
C60 C 0.70625 0.88073 0.59216 0.0
O61 O 0.44386 0.80702 0.6124 0.0
O62 O 0.51615 0.78885 0.58137 0.0
O63 O 0.93326 0.71749 0.03159 0.0
Mg64 Mg 0.93637 0.71738 0.95518 0.0
O65 O 0.84602 0.62849 0.04318 0.0
Mg66 Mg 0.79754 0.58738 0.97136 0.0
O67 O 0.84548 0.68006 0.93794 0.0
O68 O 0.91001 0.77273 0.91405 0.0
O69 O 0.74861 0.54393 0.90129 0.0
O70 O 0.72015 0.61272 -0.01332 0.0
Mg71 Mg 0.68736 0.5082 0.00284 0.0
O72 O 0.75652 0.48872 0.00775 0.0
O73 O 0.6543 0.50418 0.93045 0.0
O74 O 0.70576 0.57545 0.05661 0.0
O75 O 0.6578 0.42421 0.02923 0.0
C76 C 0.93006 0.5949 0.93295 0.0
C77 C 0.89386 0.67623 0.05896 0.0
C78 C 0.85368 0.7283 0.9163 0.0
C79 C 0.69008 0.5165 0.8949 0.0
C80 C 0.69214 0.60302 0.02601 0.0
C81 C 0.71468 0.43679 0.0258 0.0
O82 O 0.96185 0.65278 0.92745 0.0
O83 O 0.87531 0.56931 0.94977 0.0
O84 O 0.12608 0.65409 0.40207 0.0
Mg85 Mg 0.16805 0.62881 0.34741 0.0
O86 O 0.08156 0.67776 0.34758 0.0
Mg87 Mg 0.17672 0.7572 0.3203 0.0
O88 O 0.23742 0.71538 0.34234 0.0
O89 O 0.25606 0.64079 0.35995 0.0
O90 O 0.26929 0.83101 0.28814 0.0
O91 O 0.1984 0.80384 0.39536 0.0
Mg92 Mg 0.1931 0.89087 0.31174 0.0
O93 O 0.12257 0.80442 0.29573 0.0
O94 O 0.27192 0.91712 0.26862 0.0
O95 O 0.21009 0.89644 0.3851 0.0
O96 O 0.11384 0.88722 0.28559 0.0
C97 C 0.13312 0.64715 0.24185 0.0
C98 C 0.0769 0.64068 0.38 0.0
C99 C 0.27646 0.69852 0.35543 0.0
C100 C 0.2968 0.88382 0.26916 0.0
C101 C 0.21018 0.85581 0.41156 0.0
C102 C 0.0902 0.82879 0.28123 0.0
O103 O 0.13215 0.61215 0.27512 0.0
O104 O 0.15236 0.70396 0.24933 0.0
O105 O 0.22914 0.16841 0.68512 0.0
Mg106 Mg 0.23848 0.18703 0.60998 0.0
O107 O 0.32158 0.17767 0.70178 0.0
Mg108 Mg 0.37824 0.19272 0.63354 0.0
O109 O 0.29303 0.15304 0.59137 0.0
O110 O 0.20016 0.10889 0.56154 0.0
O111 O 0.4386 0.20967 0.56716 0.0
O112 O 0.36277 0.09321 0.63709 0.0
Mg113 Mg 0.48406 0.1726 0.66757 0.0
O114 O 0.46598 0.24109 0.67887 0.0
O115 O 0.49854 0.17234 0.59141 0.0
O116 O 0.40936 0.09939 0.70382 0.0
O117 O 0.55032 0.24426 0.70848 0.0
C118 C 0.35942 0.31345 0.60853 0.0
C119 C 0.26842 0.16842 0.71449 0.0
C120 C 0.25168 0.10921 0.56673 0.0
C121 C 0.47942 0.19421 0.55881 0.0
C122 C 0.37173 0.06651 0.67194 0.0
C123 C 0.51561 0.26857 0.70455 0.0
O124 O 0.30204 0.28341 0.59668 0.0
O125 O 0.38842 0.28697 0.62386 0.0
H126 H 0.1179 0.53844 0.21273 0.0
H127 H 0.12189 0.70074 0.15944 0.0
H128 H 0.13227 0.67208 0.07795 0.0
H129 H 0.16572 0.61424 0.02569 0.0
H130 H 0.18159 0.46606 0.08594 0.0
H131 H 0.13836 0.47535 0.1602 0.0
C132 C 0.11977 0.5672 0.18336 0.0
C133 C 0.12146 0.62284 0.19241 0.0
C134 C 0.12981 0.55267 0.13738 0.0
C135 C 0.12227 0.65846 0.15361 0.0
C136 C 0.12847 0.64219 0.10701 0.0
C137 C 0.15678 0.58235 0.05451 0.0
C138 C 0.17345 0.53687 0.04935 0.0
C139 C 0.13621 0.5914 0.09887 0.0
C140 C 0.16418 0.49745 0.08744 0.0
C141 C 0.14123 0.50426 0.13066 0.0
H142 H 0.5185 0.12739 0.50859 0.0
H143 H 0.51369 0.29594 0.50618 0.0
H144 H 0.5846 0.33172 0.43866 0.0
H145 H 0.65791 0.32044 0.38745 0.0
H146 H 0.66187 0.15135 0.38806 0.0
H147 H 0.57994 0.10958 0.44795 0.0
C148 C 0.53207 0.17136 0.4925 0.0
C149 C 0.51148 0.20928 0.51248 0.0
C150 C 0.57267 0.19151 0.45343 0.0
C151 C 0.52874 0.26589 0.49123 0.0
C152 C 0.56961 0.28653 0.45283 0.0
C153 C 0.63991 0.27395 0.39994 0.0
C154 C 0.66661 0.23944 0.38392 0.0
C155 C 0.5933 0.25052 0.43463 0.0
C156 C 0.64226 0.17898 0.39991 0.0
C157 C 0.59575 0.15525 0.43449 0.0
H158 H 0.39884 0.51269 0.85292 0.0
H159 H 0.20838 0.43069 0.80668 0.0
H160 H 0.24218 0.47618 0.7279 0.0
H161 H 0.32165 0.56835 0.68745 0.0
H162 H 0.51038 0.65879 0.73838 0.0
H163 H 0.48283 0.57955 0.79848 0.0
C164 C 0.36495 0.50285 0.82486 0.0
C165 C 0.30132 0.47119 0.83586 0.0
C166 C 0.38477 0.53176 0.78067 0.0
C167 C 0.25759 0.45638 0.79919 0.0
C168 C 0.27699 0.48287 0.75428 0.0
C169 C 0.35722 0.56872 0.71021 0.0
C170 C 0.41697 0.62044 0.71061 0.0
C171 C 0.33992 0.5253 0.74655 0.0
C172 C 0.46363 0.62 0.73851 0.0
C173 C 0.44756 0.57513 0.7734 0.0
H174 H 0.7314 0.24905 0.16018 0.0
H175 H 0.91704 0.4008 0.17814 0.0
H176 H 0.90186 0.45305 0.11031 0.0
H177 H 0.8292 0.46351 0.05674 0.0
H178 H 0.63933 0.31665 0.04701 0.0
H179 H 0.6625 0.25449 0.1004 0.0
C180 C 0.76914 0.29263 0.14816 0.0
C181 C 0.82516 0.32118 0.17387 0.0
C182 C 0.75869 0.32385 0.11122 0.0
C183 C 0.87348 0.37814 0.15871 0.0
C184 C 0.86462 0.40812 0.12021 0.0
C185 C 0.79343 0.41725 0.06525 0.0
C186 C 0.73258 0.39496 0.04835 0.0
C187 C 0.80641 0.38271 0.09773 0.0
C188 C 0.68648 0.33507 0.05989 0.0
C189 C 0.69962 0.29951 0.09055 0.0
H190 H 0.49285 0.76616 0.49002 0.0
H191 H 0.4121 0.86473 0.55577 0.0
H192 H 0.35532 0.85679 0.48281 0.0
H193 H 0.30842 0.79854 0.4095 0.0
H194 H 0.38169 0.69193 0.34698 0.0
H195 H 0.46341 0.72886 0.40753 0.0
C196 C 0.46426 0.78741 0.4879 0.0
C197 C 0.45471 0.8136 0.52891 0.0
C198 C 0.43 0.78105 0.44609 0.0
C199 C 0.41855 0.84222 0.52523 0.0
C200 C 0.38608 0.83791 0.4834 0.0
C201 C 0.34411 0.78583 0.40786 0.0
C202 C 0.33842 0.74159 0.37474 0.0
C203 C 0.38828 0.80392 0.44476 0.0
C204 C 0.38488 0.72544 0.37274 0.0
C205 C 0.43109 0.74587 0.40779 0.0
H206 H 0.56786 0.45218 0.8686 0.0
H207 H 0.75333 0.52636 0.81323 0.0
H208 H 0.71229 0.4625 0.74244 0.0
H209 H 0.6274 0.3697 0.70631 0.0
H210 H 0.44208 0.29335 0.76111 0.0
H211 H 0.479 0.37436 0.82176 0.0
C212 C 0.59917 0.45546 0.84053 0.0
C213 C 0.66378 0.49209 0.84714 0.0
C214 C 0.57533 0.41751 0.8002 0.0
C215 C 0.70354 0.4973 0.80976 0.0
C216 C 0.68015 0.46061 0.76924 0.0
C217 C 0.59495 0.37214 0.73068 0.0
C218 C 0.53269 0.32556 0.73025 0.0
C219 C 0.61671 0.41798 0.76562 0.0
C220 C 0.49041 0.32897 0.76121 0.0
C221 C 0.51164 0.3749 0.79606 0.0
H222 H 0.41819 0.52045 0.96712 0.0
H223 H 0.38104 0.40317 0.08851 0.0
H224 H 0.49298 0.44628 0.10155 0.0
H225 H 0.59916 0.52319 0.08255 0.0
H226 H 0.63678 0.64302 0.96206 0.0
H227 H 0.52529 0.5958 0.94642 0.0
C228 C 0.43494 0.50316 -0.00448 0.0
C229 C 0.39229 0.45819 0.02646 0.0
C230 C 0.49858 0.53087 0.00438 0.0
C231 C 0.41348 0.43671 0.06382 0.0
C232 C 0.47719 0.46236 0.07178 0.0
C233 C 0.58332 0.53992 0.05321 0.0
C234 C 0.62642 0.58694 0.02359 0.0
C235 C 0.51983 0.51095 0.04332 0.0
C236 C 0.60461 0.60746 -0.01435 0.0
C237 C 0.54107 0.57975 -0.02378 0.0
H238 H 0.06938 0.54703 0.4315 0.0
H239 H 0.00049 0.58544 0.30215 0.0
H240 H 0.96673 0.48204 0.27323 0.0
H241 H 0.95652 0.3812 0.28519 0.0
H242 H 0.01242 0.33952 0.41864 0.0
H243 H 0.06094 0.44708 0.44249 0.0
C244 C 0.04623 0.5327 0.39718 0.0
C245 C 0.03835 0.57451 0.36886 0.0
C246 C 0.02887 0.47418 0.38016 0.0
C247 C 0.00717 0.55451 0.32488 0.0
C248 C -0.01078 0.49586 0.30777 0.0
C249 C 0.98061 0.39607 0.31898 0.0
C250 C 0.97926 0.35245 0.35079 0.0
C251 C 0.00084 0.45581 0.33482 0.0
C252 C 0.01285 0.37241 0.39363 0.0
C253 C 0.03843 0.43334 0.40795 0.0
H254 H 0.44369 0.05028 0.61132 0.0
H255 H 0.30396 0.95859 0.71816 0.0
H256 H 0.34647 0.89183 0.73642 0.0
H257 H 0.43564 0.87665 0.73421 0.0
H258 H 0.58261 0.97593 0.63301 0.0
H259 H 0.52729 0.02636 0.60248 0.0
C260 C 0.421 0.0137 0.63703 0.0
C261 C 0.37118 0.00914 0.66363 0.0
C262 C 0.44962 0.98029 0.65062 0.0
C263 C 0.34207 0.96227 0.69711 0.0
C264 C 0.36749 0.92545 0.70841 0.0
C265 C 0.45605 0.90944 0.70556 0.0
C266 C 0.51401 0.9233 0.6866 0.0
C267 C 0.4237 0.93729 0.68777 0.0
C268 C 0.53878 0.9653 0.64894 0.0
C269 C 0.50672 -0.00663 0.63096 0.0
H270 H 0.47312 0.59902 0.59043 0.0
H271 H 0.64052 0.59528 0.62485 0.0
H272 H 0.58204 0.48346 0.62618 0.0
H273 H 0.48319 0.38787 0.62119 0.0
H274 H 0.31537 0.39094 0.5862 0.0
H275 H 0.37461 0.50259 0.5815 0.0
C276 C 0.49694 0.57365 0.59754 0.0
C277 C 0.56103 0.60524 0.60738 0.0
C278 C 0.46302 0.50958 0.59847 0.0
C279 C 0.59139 0.57196 0.61651 0.0
C280 C 0.55788 0.50811 0.61771 0.0
C281 C 0.45932 0.41271 0.61231 0.0
C282 C 0.39473 0.38092 0.60418 0.0
C283 C 0.49361 0.4766 0.60934 0.0
C284 C 0.36494 0.41414 0.59261 0.0
C285 C 0.39879 0.47796 0.58989 0.0
H286 H 0.09102 0.46866 0.90619 0.0
H287 H 0.91883 0.30996 0.947 0.0
H288 H 0.86669 0.37056 0.94382 0.0
H289 H 0.87377 0.47099 0.93929 0.0
H290 H 0.04805 0.63064 0.90292 0.0
H291 H 0.09585 0.56687 0.89465 0.0
C292 C 0.04174 0.44692 0.91355 0.0
C293 C 0.00892 0.38501 0.92726 0.0
C294 C 0.01282 0.48238 0.91315 0.0
C295 C 0.94505 0.35739 0.93617 0.0
C296 C 0.91545 0.39222 0.93484 0.0
C297 C 0.92207 0.49195 0.92898 0.0
C298 C 0.95746 0.55581 0.92227 0.0
C299 C 0.94946 0.45518 0.92496 0.0
C300 C 0.01979 0.58182 0.90858 0.0
C301 C 0.04717 0.54537 0.90387 0.0
H302 H 0.38447 0.00318 0.26394 0.0
H303 H 0.35477 0.82114 0.24167 0.0
H304 H 0.46614 0.86281 0.23055 0.0
H305 H 0.57247 0.94965 0.2369 0.0
H306 H 0.60136 0.13039 0.26588 0.0
H307 H 0.48984 0.09049 0.26458 0.0
C308 C 0.4022 0.97275 0.25555 0.0
C309 C 0.36163 0.90927 0.25374 0.0
C310 C 0.4663 -0.00327 0.25111 0.0
C311 C 0.38528 0.87026 0.24342 0.0
C312 C 0.44892 0.89401 0.23725 0.0
C313 C 0.55444 0.98051 0.24208 0.0
C314 C 0.59531 0.04285 0.25173 0.0
C315 C 0.49003 0.95701 0.24253 0.0
C316 C 0.57105 0.08213 0.25858 0.0
C317 C 0.5072 0.05938 0.2579 0.0
H318 H 0.31657 0.26585 0.77183 0.0
H319 H 0.19028 0.07143 0.76897 0.0
H320 H 0.15103 0.07707 0.84769 0.0
H321 H 0.13827 0.14024 0.90768 0.0
H322 H 0.2576 0.33622 0.90655 0.0
H323 H 0.31473 0.32754 0.83928 0.0
C324 C 0.28171 0.22468 0.78932 0.0
C325 C 0.25577 0.16841 0.76525 0.0
C326 C 0.25741 0.22898 0.83313 0.0
C327 C 0.21042 0.11508 0.78731 0.0
C328 C 0.18792 0.11847 0.83202 0.0
C329 C 0.1776 0.181 0.89337 0.0
C330 C 0.19218 0.23908 0.91068 0.0
C331 C 0.20876 0.17562 0.85391 0.0
C332 C 0.24432 0.29125 0.89281 0.0
C333 C 0.27696 0.28623 0.85435 0.0
H334 H 0.9105 0.23939 0.21902 0.0
H335 H 0.97372 0.11102 0.24553 0.0
H336 H 0.0728 0.17974 0.20815 0.0
H337 H 0.1262 0.25979 0.14883 0.0
H338 H 0.05447 0.37824 0.11212 0.0
H339 H 0.97714 0.33375 0.17476 0.0
C340 C 0.94675 0.22751 0.21785 0.0
C341 C 0.93441 0.16969 0.23347 0.0
C342 C 0.00267 0.26621 0.19457 0.0
C343 C 0.98169 0.15465 0.23223 0.0
C344 C 0.03847 0.19406 0.21115 0.0
C345 C 0.09586 0.27807 0.15665 0.0
C346 C 0.09573 0.32196 0.12618 0.0
C347 C 0.04764 0.24785 0.18934 0.0
C348 C 0.05629 0.34545 0.13595 0.0
C349 C 0.0107 0.31855 0.17085 0.0
H350 H 0.80032 -0.00471 0.57792 0.0
H351 H 0.60663 0.87506 0.54772 0.0
H352 H 0.60882 0.94385 0.48625 0.0
H353 H 0.67274 0.02156 0.4278 0.0
H354 H 0.86873 0.13697 0.45256 0.0
H355 H 0.85943 0.08838 0.53007 0.0
C356 C 0.75834 -0.01464 0.55871 0.0
C357 C 0.70348 0.92976 0.56634 0.0
C358 C 0.76103 0.02405 0.52202 0.0
C359 C 0.64896 0.91758 0.54242 0.0
C360 C 0.65057 0.95667 0.50683 0.0
C361 C 0.71278 0.03723 0.45116 0.0
C362 C 0.77138 0.08105 0.43493 0.0
C363 C 0.70728 0.00757 0.49426 0.0
C364 C 0.82336 0.10246 0.46483 0.0
C365 C 0.81803 0.07444 0.50876 0.0
H366 H 0.63225 0.70252 0.79302 0.0
H367 H 0.7478 0.89842 0.79037 0.0
H368 H 0.81342 0.89404 0.85352 0.0
H369 H 0.8516 0.83225 0.89374 0.0
H370 H 0.73897 0.63635 0.89264 0.0
H371 H 0.65885 0.64206 0.84668 0.0
C372 C 0.6698 0.74431 0.80823 0.0
C373 C 0.68556 0.80059 0.78732 0.0
C374 C 0.70948 0.74097 0.84229 0.0
C375 C 0.73479 0.85463 0.80646 0.0
C376 C 0.77303 0.85198 0.84183 0.0
C377 C 0.80904 0.79093 0.88406 0.0
C378 C 0.80179 0.73339 0.89527 0.0
C379 C 0.7633 0.79506 0.8574 0.0
C380 C 0.74591 0.68059 0.88359 0.0
C381 C 0.70002 0.68407 0.85739 0.0
H382 H 0.03962 0.7126 0.24603 0.0
H383 H 0.00827 0.86585 0.25674 0.0
H384 H 0.93239 0.82415 0.19241 0.0
H385 H 0.89571 0.75842 0.12116 0.0
H386 H 0.92697 0.60573 0.1092 0.0
H387 H 0.98164 0.63236 0.18596 0.0
C388 C 0.01478 0.73583 0.23525 0.0
C389 C 0.03139 0.79342 0.25465 0.0
C390 C 0.97211 0.71232 0.19729 0.0
C391 C -0.00228 0.82231 0.24125 0.0
C392 C 0.95438 0.79864 0.20432 0.0
C393 C 0.9127 0.72996 0.13638 0.0
C394 C 0.90863 0.68106 0.10986 0.0
C395 C 0.94447 0.74597 0.18007 0.0
C396 C 0.9301 0.64382 0.12943 0.0
C397 C 0.96163 0.65926 0.17306 0.0
H398 H 0.16976 -0.01234 0.56835 0.0
H399 H 0.35391 0.12075 0.5241 0.0
H400 H 0.36758 0.0408 0.48715 0.0
H401 H 0.31687 0.93957 0.45045 0.0
H402 H 0.12726 0.80996 0.48386 0.0
H403 H 0.12658 0.87935 0.54451 0.0
C404 C 0.21305 -0.00137 0.55116 0.0
C405 C 0.2609 0.05978 0.54851 0.0
C406 C 0.21947 0.95243 0.52856 0.0
C407 C 0.31717 0.07386 0.52704 0.0
C408 C 0.32471 0.02812 0.50569 0.0
C409 C 0.27671 0.92537 0.47307 0.0
C410 C 0.22175 0.87109 0.46218 0.0
C411 C 0.27503 0.96788 0.50418 0.0
C412 C 0.16997 0.85204 0.49161 0.0
C413 C 0.1691 0.89249 0.52532 0.0
loop_
_geom_bond_atom_site_label_1
_geom_bond_atom_site_label_2
_geom_bond_distance
_geom_bond_site_symmetry_2
_ccdc_geom_bond_type
O0 Mg1 1.990 . S
O0 C14 1.253 . S
Mg1 O0 1.990 . S
Mg1 O4 2.180 . S
Mg1 O5 2.117 . S
Mg1 O19 2.030 1_554 S
O2 Mg3 2.072 1_554 S
O2 C14 1.260 . S
Mg3 O2 2.072 1_556 S
Mg3 O4 2.099 1_556 S
Mg3 O6 2.079 . S
Mg3 O7 2.072 1_556 S
Mg3 O9 2.099 . S
Mg3 O20 2.079 . S
O4 Mg1 2.180 . S
O4 Mg3 2.099 1_554 S
O4 C15 1.279 . S
O5 Mg1 2.117 . S
O5 C15 1.250 . S
O6 Mg3 2.079 . S
O6 C16 1.264 . S
O7 Mg3 2.072 1_554 S
O7 C17 1.260 . S
Mg8 O9 2.180 . S
Mg8 O10 2.030 . S
Mg8 O11 1.990 1_556 S
Mg8 O12 2.117 . S
O9 Mg3 2.099 . S
O9 Mg8 2.180 . S
O9 C18 1.279 . S
O10 Mg8 2.030 . S
O10 C16 1.248 . S
O11 Mg8 1.990 1_554 S
O11 C17 1.253 . S
O12 Mg8 2.117 . S
O12 C18 1.250 . S
C13 O19 1.248 . S
C13 O20 1.264 . S
C14 O0 1.253 . S
C14 O2 1.260 . S
C15 O4 1.279 . S
C15 O5 1.250 . S
C16 O6 1.264 . S
C16 O10 1.248 . S
C17 O7 1.260 . S
C17 O11 1.253 . S
C18 O9 1.279 . S
C18 O12 1.250 . S
O19 Mg1 2.030 1_556 S
O19 C13 1.248 . S
O20 Mg3 2.079 . S
O20 C13 1.264 . S
O21 Mg22 1.990 . S
O21 C35 1.253 . S
Mg22 O21 1.990 . S
Mg22 O25 2.180 . S
Mg22 O26 2.117 . S
Mg22 O40 2.030 . S
O23 Mg24 2.072 . S
O23 C35 1.260 . S
Mg24 O23 2.072 . S
Mg24 O25 2.099 . S
Mg24 O27 2.079 . S
Mg24 O28 2.072 . S
Mg24 O30 2.099 . S
Mg24 O41 2.079 . S
O25 Mg22 2.180 . S
O25 Mg24 2.099 . S
O25 C36 1.279 . S
O26 Mg22 2.117 . S
O26 C36 1.250 . S
O27 Mg24 2.079 . S
O27 C37 1.264 . S
O28 Mg24 2.072 . S
O28 C38 1.260 . S
Mg29 O30 2.180 . S
Mg29 O31 2.030 . S
Mg29 O32 1.990 . S
Mg29 O33 2.117 . S
O30 Mg24 2.099 . S
O30 Mg29 2.180 . S
O30 C39 1.279 . S
O31 Mg29 2.030 . S
O31 C37 1.248 . S
O32 Mg29 1.990 . S
O32 C38 1.253 . S
O33 Mg29 2.117 . S
O33 C39 1.250 . S
C34 O40 1.248 . S
C34 O41 1.264 . S
C35 O21 1.253 . S
C35 O23 1.260 . S
C36 O25 1.279 . S
C36 O26 1.250 . S
C37 O27 1.264 . S
C37 O31 1.248 . S
C38 O28 1.260 . S
C38 O32 1.253 . S
C39 O30 1.279 . S
C39 O33 1.250 . S
O40 Mg22 2.030 . S
O40 C34 1.248 . S
O41 Mg24 2.079 . S
O41 C34 1.264 . S
O42 Mg43 1.990 . S
O42 C56 1.253 . S
Mg43 O42 1.990 . S
Mg43 O46 2.180 . S
Mg43 O47 2.117 . S
Mg43 O61 2.030 . S
O44 Mg45 2.072 . S
O44 C56 1.260 . S
Mg45 O44 2.072 . S
Mg45 O46 2.099 . S
Mg45 O48 2.079 . S
Mg45 O49 2.072 . S
Mg45 O51 2.099 . S
Mg45 O62 2.079 . S
O46 Mg43 2.180 . S
O46 Mg45 2.099 . S
O46 C57 1.279 . S
O47 Mg43 2.117 . S
O47 C57 1.250 . S
O48 Mg45 2.079 . S
O48 C58 1.264 . S
O49 Mg45 2.072 . S
O49 C59 1.260 . S
Mg50 O51 2.180 . S
Mg50 O52 2.030 . S
Mg50 O53 1.990 . S
Mg50 O54 2.117 . S
O51 Mg45 2.099 . S
O51 Mg50 2.180 . S
O51 C60 1.279 . S
O52 Mg50 2.030 . S
O52 C58 1.248 . S
O53 Mg50 1.990 . S
O53 C59 1.253 . S
O54 Mg50 2.117 . S
O54 C60 1.250 . S
C55 O61 1.248 . S
C55 O62 1.264 . S
C56 O42 1.253 . S
C56 O44 1.260 . S
C57 O46 1.279 . S
C57 O47 1.250 . S
C58 O48 1.264 . S
C58 O52 1.248 . S
C59 O49 1.260 . S
C59 O53 1.253 . S
C60 O51 1.279 . S
C60 O54 1.250 . S
O61 Mg43 2.030 . S
O61 C55 1.248 . S
O62 Mg45 2.079 . S
O62 C55 1.264 . S
O63 Mg64 1.990 1_554 S
O63 C77 1.253 . S
Mg64 O63 1.990 1_556 S
Mg64 O67 2.180 . S
Mg64 O68 2.117 . S
Mg64 O82 2.030 . S
O65 Mg66 2.072 1_554 S
O65 C77 1.260 . S
Mg66 O65 2.072 1_556 S
Mg66 O67 2.099 . S
Mg66 O69 2.079 . S
Mg66 O70 2.072 1_556 S
Mg66 O72 2.099 1_556 S
Mg66 O83 2.079 . S
O67 Mg64 2.180 . S
O67 Mg66 2.099 . S
O67 C78 1.279 . S
O68 Mg64 2.117 . S
O68 C78 1.250 . S
O69 Mg66 2.079 . S
O69 C79 1.264 . S
O70 Mg66 2.072 1_554 S
O70 C80 1.260 . S
Mg71 O72 2.180 . S
Mg71 O73 2.030 1_554 S
Mg71 O74 1.990 . S
Mg71 O75 2.117 . S
O72 Mg66 2.099 1_554 S
O72 Mg71 2.180 . S
O72 C81 1.279 . S
O73 Mg71 2.030 1_556 S
O73 C79 1.248 . S
O74 Mg71 1.990 . S
O74 C80 1.253 . S
O75 Mg71 2.117 . S
O75 C81 1.250 . S
C76 O82 1.248 . S
C76 O83 1.264 . S
C77 O63 1.253 . S
C77 O65 1.260 . S
C78 O67 1.279 . S
C78 O68 1.250 . S
C79 O69 1.264 . S
C79 O73 1.248 . S
C80 O70 1.260 . S
C80 O74 1.253 . S
C81 O72 1.279 . S
C81 O75 1.250 . S
O82 Mg64 2.030 . S
O82 C76 1.248 . S
O83 Mg66 2.079 . S
O83 C76 1.264 . S
O84 Mg85 1.990 . S
O84 C98 1.253 . S
Mg85 O84 1.990 . S
Mg85 O88 2.180 . S
Mg85 O89 2.117 . S
Mg85 O103 2.030 . S
O86 Mg87 2.072 . S
O86 C98 1.260 . S
Mg87 O86 2.072 . S
Mg87 O88 2.099 . S
Mg87 O90 2.079 . S
Mg87 O91 2.072 . S
Mg87 O93 2.099 . S
Mg87 O104 2.079 . S
O88 Mg85 2.180 . S
O88 Mg87 2.099 . S
O88 C99 1.279 . S
O89 Mg85 2.117 . S
O89 C99 1.250 . S
O90 Mg87 2.079 . S
O90 C100 1.264 . S
O91 Mg87 2.072 . S
O91 C101 1.260 . S
Mg92 O93 2.180 . S
Mg92 O94 2.030 . S
Mg92 O95 1.990 . S
Mg92 O96 2.117 . S
O93 Mg87 2.099 . S
O93 Mg92 2.180 . S
O93 C102 1.279 . S
O94 Mg92 2.030 . S
O94 C100 1.248 . S
O95 Mg92 1.990 . S
O95 C101 1.253 . S
O96 Mg92 2.117 . S
O96 C102 1.250 . S
C97 O103 1.248 . S
C97 O104 1.264 . S
C98 O84 1.253 . S
C98 O86 1.260 . S
C99 O88 1.279 . S
C99 O89 1.250 . S
C100 O90 1.264 . S
C100 O94 1.248 . S
C101 O91 1.260 . S
C101 O95 1.253 . S
C102 O93 1.279 . S
C102 O96 1.250 . S
O103 Mg85 2.030 . S
O103 C97 1.248 . S
O104 Mg87 2.079 . S
O104 C97 1.264 . S
O105 Mg106 1.990 . S
O105 C119 1.253 . S
Mg106 O105 1.990 . S
Mg106 O109 2.180 . S
Mg106 O110 2.117 . S
Mg106 O124 2.030 . S
O107 Mg108 2.072 . S
O107 C119 1.260 . S
Mg108 O107 2.072 . S
Mg108 O109 2.099 . S
Mg108 O111 2.079 . S
Mg108 O112 2.072 . S
Mg108 O114 2.099 . S
Mg108 O125 2.079 . S
O109 Mg106 2.180 . S
O109 Mg108 2.099 . S
O109 C120 1.279 . S
O110 Mg106 2.117 . S
O110 C120 1.250 . S
O111 Mg108 2.079 . S
O111 C121 1.264 . S
O112 Mg108 2.072 . S
O112 C122 1.260 . S
Mg113 O114 2.180 . S
Mg113 O115 2.030 . S
Mg113 O116 1.990 . S
Mg113 O117 2.117 . S
O114 Mg108 2.099 . S
O114 Mg113 2.180 . S
O114 C123 1.279 . S
O115 Mg113 2.030 . S
O115 C121 1.248 . S
O116 Mg113 1.990 . S
O116 C122 1.253 . S
O117 Mg113 2.117 . S
O117 C123 1.250 . S
C118 O124 1.248 . S
C118 O125 1.264 . S
C119 O105 1.253 . S
C119 O107 1.260 . S
C120 O109 1.279 . S
C120 O110 1.250 . S
C121 O111 1.264 . S
C121 O115 1.248 . S
C122 O112 1.260 . S
C122 O116 1.253 . S
C123 O114 1.279 . S
C123 O117 1.250 . S
O124 Mg106 2.030 . S
O124 C118 1.248 . S
O125 Mg108 2.079 . S
O125 C118 1.264 . S
H126 C132 0.930 . S
H127 C135 0.930 . S
H128 C136 0.930 . S
H129 C137 0.930 . S
H130 C140 0.930 . S
H131 C141 0.930 . S
C132 H126 0.930 . S
C132 C133 1.355 . S
C132 C134 1.415 . S
C133 C132 1.355 . S
C133 C135 1.419 . S
C134 C132 1.415 . S
C134 C139 1.425 . S
C134 C141 1.409 . S
C135 H127 0.930 . S
C135 C133 1.419 . S
C135 C136 1.362 . S
C136 H128 0.930 . S
C136 C135 1.362 . S
C136 C139 1.409 . S
C137 H129 0.930 . S
C137 C138 1.355 . S
C137 C139 1.415 . S
C138 C137 1.355 . S
C138 C140 1.419 . S
C139 C134 1.425 . S
C139 C136 1.409 . S
C139 C137 1.415 . S
C140 H130 0.930 . S
C140 C138 1.419 . S
C140 C141 1.362 . S
C141 H131 0.930 . S
C141 C134 1.409 . S
C141 C140 1.362 . S
H142 C148 0.930 . S
H143 C151 0.930 . S
H144 C152 0.930 . S
H145 C153 0.930 . S
H146 C156 0.930 . S
H147 C157 0.930 . S
C148 H142 0.930 . S
C148 C149 1.355 . S
C148 C150 1.415 . S
C149 C148 1.355 . S
C149 C151 1.419 . S
C150 C148 1.415 . S
C150 C155 1.425 . S
C150 C157 1.409 . S
C151 H143 0.930 . S
C151 C149 1.419 . S
C151 C152 1.362 . S
C152 H144 0.930 . S
C152 C151 1.362 . S
C152 C155 1.409 . S
C153 H145 0.930 . S
C153 C154 1.355 . S
C153 C155 1.415 . S
C154 C153 1.355 . S
C154 C156 1.419 . S
C155 C150 1.425 . S
C155 C152 1.409 . S
C155 C153 1.415 . S
C156 H146 0.930 . S
C156 C154 1.419 . S
C156 C157 1.362 . S
C157 H147 0.930 . S
C157 C150 1.409 . S
C157 C156 1.362 . S
H158 C164 0.930 . S
H159 C167 0.930 . S
H160 C168 0.930 . S
H161 C169 0.930 . S
H162 C172 0.930 . S
H163 C173 0.930 . S
C164 H158 0.930 . S
C164 C165 1.355 . S
C164 C166 1.415 . S
C165 C164 1.355 . S
C165 C167 1.419 . S
C166 C164 1.415 . S
C166 C171 1.425 . S
C166 C173 1.409 . S
C167 H159 0.930 . S
C167 C165 1.419 . S
C167 C168 1.362 . S
C168 H160 0.930 . S
C168 C167 1.362 . S
C168 C171 1.409 . S
C169 H161 0.930 . S
C169 C170 1.355 . S
C169 C171 1.415 . S
C170 C169 1.355 . S
C170 C172 1.419 . S
C171 C166 1.425 . S
C171 C168 1.409 . S
C171 C169 1.415 . S
C172 H162 0.930 . S
C172 C170 1.419 . S
C172 C173 1.362 . S
C173 H163 0.930 . S
C173 C166 1.409 . S
C173 C172 1.362 . S
H174 C180 0.930 . S
H175 C183 0.930 . S
H176 C184 0.930 . S
H177 C185 0.930 . S
H178 C188 0.930 . S
H179 C189 0.930 . S
C180 H174 0.930 . S
C180 C181 1.355 . S
C180 C182 1.415 . S
C181 C180 1.355 . S
C181 C183 1.419 . S
C182 C180 1.415 . S
C182 C187 1.425 . S
C182 C189 1.409 . S
C183 H175 0.930 . S
C183 C181 1.419 . S
C183 C184 1.362 . S
C184 H176 0.930 . S
C184 C183 1.362 . S
C184 C187 1.409 . S
C185 H177 0.930 . S
C185 C186 1.355 . S
C185 C187 1.415 . S
C186 C185 1.355 . S
C186 C188 1.419 . S
C187 C182 1.425 . S
C187 C184 1.409 . S
C187 C185 1.415 . S
C188 H178 0.930 . S
C188 C186 1.419 . S
C188 C189 1.362 . S
C189 H179 0.930 . S
C189 C182 1.409 . S
C189 C188 1.362 . S
H190 C196 0.930 . S
H191 C199 0.930 . S
H192 C200 0.930 . S
H193 C201 0.930 . S
H194 C204 0.930 . S
H195 C205 0.930 . S
C196 H190 0.930 . S
C196 C197 1.355 . S
C196 C198 1.415 . S
C197 C196 1.355 . S
C197 C199 1.419 . S
C198 C196 1.415 . S
C198 C203 1.425 . S
C198 C205 1.409 . S
C199 H191 0.930 . S
C199 C197 1.419 . S
C199 C200 1.362 . S
C200 H192 0.930 . S
C200 C199 1.362 . S
C200 C203 1.409 . S
C201 H193 0.930 . S
C201 C202 1.355 . S
C201 C203 1.415 . S
C202 C201 1.355 . S
C202 C204 1.419 . S
C203 C198 1.425 . S
C203 C200 1.409 . S
C203 C201 1.415 . S
C204 H194 0.930 . S
C204 C202 1.419 . S
C204 C205 1.362 . S
C205 H195 0.930 . S
C205 C198 1.409 . S
C205 C204 1.362 . S
H206 C212 0.930 . S
H207 C215 0.930 . S
H208 C216 0.930 . S
H209 C217 0.930 . S
H210 C220 0.930 . S
H211 C221 0.930 . S
C212 H206 0.930 . S
C212 C213 1.355 . S
C212 C214 1.415 . S
C213 C212 1.355 . S
C213 C215 1.419 . S
C214 C212 1.415 . S
C214 C219 1.425 . S
C214 C221 1.409 . S
C215 H207 0.930 . S
C215 C213 1.419 . S
C215 C216 1.362 . S
C216 H208 0.930 . S
C216 C215 1.362 . S
C216 C219 1.409 . S
C217 H209 0.930 . S
C217 C218 1.355 . S
C217 C219 1.415 . S
C218 C217 1.355 . S
C218 C220 1.419 . S
C219 C214 1.425 . S
C219 C216 1.409 . S
C219 C217 1.415 . S
C220 H210 0.930 . S
C220 C218 1.419 . S
C220 C221 1.362 . S
C221 H211 0.930 . S
C221 C214 1.409 . S
C221 C220 1.362 . S
H222 C228 0.930 . S
H223 C231 0.930 . S
H224 C232 0.930 . S
H225 C233 0.930 . S
H226 C236 0.930 . S
H227 C237 0.930 . S
C228 H222 0.930 . S
C228 C229 1.355 . S
C228 C230 1.415 . S
C229 C228 1.355 . S
C229 C231 1.419 . S
C230 C228 1.415 . S
C230 C235 1.425 . S
C230 C237 1.409 . S
C231 H223 0.930 . S
C231 C229 1.419 . S
C231 C232 1.362 . S
C232 H224 0.930 . S
C232 C231 1.362 . S
C232 C235 1.409 . S
C233 H225 0.930 . S
C233 C234 1.355 . S
C233 C235 1.415 . S
C234 C233 1.355 . S
C234 C236 1.419 . S
C235 C230 1.425 . S
C235 C232 1.409 . S
C235 C233 1.415 . S
C236 H226 0.930 . S
C236 C234 1.419 . S
C236 C237 1.362 . S
C237 H227 0.930 . S
C237 C230 1.409 . S
C237 C236 1.362 . S
H238 C244 0.930 . S
H239 C247 0.930 . S
H240 C248 0.930 . S
H241 C249 0.930 . S
H242 C252 0.930 . S
H243 C253 0.930 . S
C244 H238 0.930 . S
C244 C245 1.355 . S
C244 C246 1.415 . S
C245 C244 1.355 . S
C245 C247 1.419 1_455 S
C246 C244 1.415 . S
C246 C251 1.425 1_455 S
C246 C253 1.409 . S
C247 H239 0.930 . S
C247 C245 1.419 1_655 S
C247 C248 1.362 . S
C248 H240 0.930 . S
C248 C247 1.362 . S
C248 C251 1.409 . S
C249 H241 0.930 . S
C249 C250 1.355 . S
C249 C251 1.415 . S
C250 C249 1.355 . S
C250 C252 1.419 1_655 S
C251 C246 1.425 1_655 S
C251 C248 1.409 . S
C251 C249 1.415 . S
C252 H242 0.930 . S
C252 C250 1.419 1_455 S
C252 C253 1.362 . S
C253 H243 0.930 . S
C253 C246 1.409 . S
C253 C252 1.362 . S
H254 C260 0.930 . S
H255 C263 0.930 . S
H256 C264 0.930 . S
H257 C265 0.930 . S
H258 C268 0.930 . S
H259 C269 0.930 . S
C260 H254 0.930 . S
C260 C261 1.355 . S
C260 C262 1.415 . S
C261 C260 1.355 . S
C261 C263 1.419 1_545 S
C262 C260 1.415 . S
C262 C267 1.425 1_545 S
C262 C269 1.409 . S
C263 H255 0.930 . S
C263 C261 1.419 1_565 S
C263 C264 1.362 . S
C264 H256 0.930 . S
C264 C263 1.362 . S
C264 C267 1.409 . S
C265 H257 0.930 . S
C265 C266 1.355 . S
C265 C267 1.415 . S
C266 C265 1.355 . S
C266 C268 1.419 1_565 S
C267 C262 1.425 1_565 S
C267 C264 1.409 . S
C267 C265 1.415 . S
C268 H258 0.930 . S
C268 C266 1.419 1_545 S
C268 C269 1.362 . S
C269 H259 0.930 . S
C269 C262 1.409 . S
C269 C268 1.362 . S
H270 C276 0.930 . S
H271 C279 0.930 . S
H272 C280 0.930 . S
H273 C281 0.930 . S
H274 C284 0.930 . S
H275 C285 0.930 . S
C276 H270 0.930 . S
C276 C277 1.355 . S
C276 C278 1.415 . S
C277 C276 1.355 . S
C277 C279 1.419 . S
C278 C276 1.415 . S
C278 C283 1.425 . S
C278 C285 1.409 . S
C279 H271 0.930 . S
C279 C277 1.419 . S
C279 C280 1.362 . S
C280 H272 0.930 . S
C280 C279 1.362 . S
C280 C283 1.409 . S
C281 H273 0.930 . S
C281 C282 1.355 . S
C281 C283 1.415 . S
C282 C281 1.355 . S
C282 C284 1.419 . S
C283 C278 1.425 . S
C283 C280 1.409 . S
C283 C281 1.415 . S
C284 H274 0.930 . S
C284 C282 1.419 . S
C284 C285 1.362 . S
C285 H275 0.930 . S
C285 C278 1.409 . S
C285 C284 1.362 . S
H286 C292 0.930 . S
H287 C295 0.930 . S
H288 C296 0.930 . S
H289 C297 0.930 . S
H290 C300 0.930 . S
H291 C301 0.930 . S
C292 H286 0.930 . S
C292 C293 1.355 . S
C292 C294 1.415 . S
C293 C292 1.355 . S
C293 C295 1.419 1_455 S
C294 C292 1.415 . S
C294 C299 1.425 1_455 S
C294 C301 1.409 . S
C295 H287 0.930 . S
C295 C293 1.419 1_655 S
C295 C296 1.362 . S
C296 H288 0.930 . S
C296 C295 1.362 . S
C296 C299 1.409 . S
C297 H289 0.930 . S
C297 C298 1.355 . S
C297 C299 1.415 . S
C298 C297 1.355 . S
C298 C300 1.419 1_655 S
C299 C294 1.425 1_655 S
C299 C296 1.409 . S
C299 C297 1.415 . S
C300 H290 0.930 . S
C300 C298 1.419 1_455 S
C300 C301 1.362 . S
C301 H291 0.930 . S
C301 C294 1.409 . S
C301 C300 1.362 . S
H302 C308 0.930 . S
H303 C311 0.930 . S
H304 C312 0.930 . S
H305 C313 0.930 . S
H306 C316 0.930 . S
H307 C317 0.930 . S
C308 H302 0.930 . S
C308 C309 1.355 1_545 S
C308 C310 1.415 . S
C309 C308 1.355 1_565 S
C309 C311 1.419 . S
C310 C308 1.415 . S
C310 C315 1.425 1_545 S
C310 C317 1.409 . S
C311 H303 0.930 . S
C311 C309 1.419 . S
C311 C312 1.362 . S
C312 H304 0.930 . S
C312 C311 1.362 . S
C312 C315 1.409 . S
C313 H305 0.930 . S
C313 C314 1.355 1_565 S
C313 C315 1.415 . S
C314 C313 1.355 1_545 S
C314 C316 1.419 . S
C315 C310 1.425 1_565 S
C315 C312 1.409 . S
C315 C313 1.415 . S
C316 H306 0.930 . S
C316 C314 1.419 . S
C316 C317 1.362 . S
C317 H307 0.930 . S
C317 C310 1.409 . S
C317 C316 1.362 . S
H318 C324 0.930 . S
H319 C327 0.930 . S
H320 C328 0.930 . S
H321 C329 0.930 . S
H322 C332 0.930 . S
H323 C333 0.930 . S
C324 H318 0.930 . S
C324 C325 1.355 . S
C324 C326 1.415 . S
C325 C324 1.355 . S
C325 C327 1.419 . S
C326 C324 1.415 . S
C326 C331 1.425 . S
C326 C333 1.409 . S
C327 H319 0.930 . S
C327 C325 1.419 . S
C327 C328 1.362 . S
C328 H320 0.930 . S
C328 C327 1.362 . S
C328 C331 1.409 . S
C329 H321 0.930 . S
C329 C330 1.355 . S
C329 C331 1.415 . S
C330 C329 1.355 . S
C330 C332 1.419 . S
C331 C326 1.425 . S
C331 C328 1.409 . S
C331 C329 1.415 . S
C332 H322 0.930 . S
C332 C330 1.419 . S
C332 C333 1.362 . S
C333 H323 0.930 . S
C333 C326 1.409 . S
C333 C332 1.362 . S
H334 C340 0.930 . S
H335 C343 0.930 . S
H336 C344 0.930 . S
H337 C345 0.930 . S
H338 C348 0.930 . S
H339 C349 0.930 . S
C340 H334 0.930 . S
C340 C341 1.355 . S
C340 C342 1.415 . S
C341 C340 1.355 . S
C341 C343 1.419 . S
C342 C340 1.415 . S
C342 C347 1.425 1_655 S
C342 C349 1.409 . S
C343 H335 0.930 . S
C343 C341 1.419 . S
C343 C344 1.362 1_655 S
C344 H336 0.930 . S
C344 C343 1.362 1_455 S
C344 C347 1.409 . S
C345 H337 0.930 . S
C345 C346 1.355 . S
C345 C347 1.415 . S
C346 C345 1.355 . S
C346 C348 1.419 . S
C347 C342 1.425 1_455 S
C347 C344 1.409 . S
C347 C345 1.415 . S
C348 H338 0.930 . S
C348 C346 1.419 . S
C348 C349 1.362 1_455 S
C349 H339 0.930 . S
C349 C342 1.409 . S
C349 C348 1.362 1_655 S
H350 C356 0.930 . S
H351 C359 0.930 . S
H352 C360 0.930 . S
H353 C361 0.930 . S
H354 C364 0.930 . S
H355 C365 0.930 . S
C356 H350 0.930 . S
C356 C357 1.355 . S
C356 C358 1.415 1_565 S
C357 C356 1.355 . S
C357 C359 1.419 . S
C358 C356 1.415 1_545 S
C358 C363 1.425 1_545 S
C358 C365 1.409 . S
C359 H351 0.930 . S
C359 C357 1.419 . S
C359 C360 1.362 . S
C360 H352 0.930 . S
C360 C359 1.362 . S
C360 C363 1.409 . S
C361 H353 0.930 . S
C361 C362 1.355 . S
C361 C363 1.415 1_545 S
C362 C361 1.355 . S
C362 C364 1.419 . S
C363 C358 1.425 1_565 S
C363 C360 1.409 . S
C363 C361 1.415 1_565 S
C364 H354 0.930 . S
C364 C362 1.419 . S
C364 C365 1.362 . S
C365 H355 0.930 . S
C365 C358 1.409 . S
C365 C364 1.362 . S
H366 C372 0.930 . S
H367 C375 0.930 . S
H368 C376 0.930 . S
H369 C377 0.930 . S
H370 C380 0.930 . S
H371 C381 0.930 . S
C372 H366 0.930 . S
C372 C373 1.355 . S
C372 C374 1.415 . S
C373 C372 1.355 . S
C373 C375 1.419 . S
C374 C372 1.415 . S
C374 C379 1.425 . S
C374 C381 1.409 . S
C375 H367 0.930 . S
C375 C373 1.419 . S
C375 C376 1.362 . S
C376 H368 0.930 . S
C376 C375 1.362 . S
C376 C379 1.409 . S
C377 H369 0.930 . S
C377 C378 1.355 . S
C377 C379 1.415 . S
C378 C377 1.355 . S
C378 C380 1.419 . S
C379 C374 1.425 . S
C379 C376 1.409 . S
C379 C377 1.415 . S
C380 H370 0.930 . S
C380 C378 1.419 . S
C380 C381 1.362 . S
C381 H371 0.930 . S
C381 C374 1.409 . S
C381 C380 1.362 . S
H382 C388 0.930 . S
H383 C391 0.930 . S
H384 C392 0.930 . S
H385 C393 0.930 . S
H386 C396 0.930 . S
H387 C397 0.930 . S
C388 H382 0.930 . S
C388 C389 1.355 . S
C388 C390 1.415 . S
C389 C388 1.355 . S
C389 C391 1.419 . S
C390 C388 1.415 . S
C390 C395 1.425 1_455 S
C390 C397 1.409 . S
C391 H383 0.930 . S
C391 C389 1.419 . S
C391 C392 1.362 1_455 S
C392 H384 0.930 . S
C392 C391 1.362 1_655 S
C392 C395 1.409 . S
C393 H385 0.930 . S
C393 C394 1.355 . S
C393 C395 1.415 . S
C394 C393 1.355 . S
C394 C396 1.419 . S
C395 C390 1.425 1_655 S
C395 C392 1.409 . S
C395 C393 1.415 . S
C396 H386 0.930 . S
C396 C394 1.419 . S
C396 C397 1.362 1_655 S
C397 H387 0.930 . S
C397 C390 1.409 . S
C397 C396 1.362 1_455 S
H398 C404 0.930 . S
H399 C407 0.930 . S
H400 C408 0.930 . S
H401 C409 0.930 . S
H402 C412 0.930 . S
H403 C413 0.930 . S
C404 H398 0.930 . S
C404 C405 1.355 . S
C404 C406 1.415 1_545 S
C405 C404 1.355 . S
C405 C407 1.419 . S
C406 C404 1.415 1_565 S
C406 C411 1.425 1_565 S
C406 C413 1.409 . S
C407 H399 0.930 . S
C407 C405 1.419 . S
C407 C408 1.362 . S
C408 H400 0.930 . S
C408 C407 1.362 . S
C408 C411 1.409 . S
C409 H401 0.930 . S
C409 C410 1.355 . S
C409 C411 1.415 1_565 S
C410 C409 1.355 . S
C410 C412 1.419 . S
C411 C406 1.425 1_545 S
C411 C408 1.409 . S
C411 C409 1.415 1_545 S
C412 H402 0.930 . S
C412 C410 1.419 . S
C412 C413 1.362 . S
C413 H403 0.930 . S
C413 C406 1.409 . S
C413 C412 1.362 . S
C133 C97 1.000 . S
C138 C15 0.856 . S
C149 C121 0.945 . S
C154 C39 0.978 . S
C165 C13 1.018 . S
C170 C57 0.982 . S
C181 C37 0.992 . S
C186 C81 0.845 . S
C197 C55 0.922 . S
C202 C99 0.851 . S
C213 C79 0.989 . S
C218 C123 1.005 . S
C229 C14 1.211 . S
C234 C80 1.208 . S
C245 C98 1.199 . S
C250 C38 1.190 . S
C261 C122 1.209 . S
C266 C56 1.205 . S
C277 C58 1.285 . S
C282 C118 1.302 . S
C293 C16 1.294 . S
C298 C76 1.304 . S
C309 C100 1.282 . S
C314 C34 1.270 . S
C325 C119 1.230 . S
C330 C18 1.159 . S
C341 C36 1.136 . S
C346 C17 1.172 . S
C357 C60 1.188 . S
C362 C35 1.226 . S
C373 C59 1.223 . S
C378 C78 1.194 . S
C389 C102 1.128 . S
C394 C77 1.181 . S
C405 C120 1.200 . S
C410 C101 1.220 . S
