# Generated by pormake.
# Topology wkq, (6)-cn, num edge types: 1
# Building blocks:
#     Node 0, Type 0, BuildingBlock: IZENUY_clean_sbu_0, # of connection points: 6
#     Node 1, Type 0, BuildingBlock: IZENUY_clean_sbu_0, # of connection points: 6
#     Node 2, Type 0, BuildingBlock: IZENUY_clean_sbu_0, # of connection points: 6
#     Node 3, Type 0, BuildingBlock: IZENUY_clean_sbu_0, # of connection points: 6
#     Node 4, Type 0, BuildingBlock: IZENUY_clean_sbu_0, # of connection points: 6
#     Node 5, Type 0, BuildingBlock: IZENUY_clean_sbu_0, # of connection points: 6
#     Node 6, Type 0, BuildingBlock: IZENUY_clean_sbu_0, # of connection points: 6
#     Node 7, Type 0, BuildingBlock: IZENUY_clean_sbu_0, # of connection points: 6
#     Node 8, Type 0, BuildingBlock: IZENUY_clean_sbu_0, # of connection points: 6
#     Node 9, Type 0, BuildingBlock: IZENUY_clean_sbu_0, # of connection points: 6
#     Node 10, Type 0, BuildingBlock: IZENUY_clean_sbu_0, # of connection points: 6
#     Node 11, Type 0, BuildingBlock: IZENUY_clean_sbu_0, # of connection points: 6
#     Edge 12, Type (0, 0), BuildingBlock: AJUNOK_clean_linker_0, # of connection points: 2
#     Edge 13, Type (0, 0), BuildingBlock: AJUNOK_clean_linker_0, # of connection points: 2
#     Edge 14, Type (0, 0), BuildingBlock: AJUNOK_clean_linker_0, # of connection points: 2
#     Edge 15, Type (0, 0), BuildingBlock: AJUNOK_clean_linker_0, # of connection points: 2
#     Edge 16, Type (0, 0), BuildingBlock: AJUNOK_clean_linker_0, # of connection points: 2
#     Edge 17, Type (0, 0), BuildingBlock: AJUNOK_clean_linker_0, # of connection points: 2
#     Edge 18, Type (0, 0), BuildingBlock: AJUNOK_clean_linker_0, # of connection points: 2
#     Edge 19, Type (0, 0), BuildingBlock: AJUNOK_clean_linker_0, # of connection points: 2
#     Edge 20, Type (0, 0), BuildingBlock: AJUNOK_clean_linker_0, # of connection points: 2
#     Edge 21, Type (0, 0), BuildingBlock: AJUNOK_clean_linker_0, # of connection points: 2
#     Edge 22, Type (0, 0), BuildingBlock: AJUNOK_clean_linker_0, # of connection points: 2
#     Edge 23, Type (0, 0), BuildingBlock: AJUNOK_clean_linker_0, # of connection points: 2
#     Edge 24, Type (0, 0), BuildingBlock: AJUNOK_clean_linker_0, # of connection points: 2
#     Edge 25, Type (0, 0), BuildingBlock: AJUNOK_clean_linker_0, # of connection points: 2
#     Edge 26, Type (0, 0), BuildingBlock: AJUNOK_clean_linker_0, # of connection points: 2
#     Edge 27, Type (0, 0), BuildingBlock: AJUNOK_clean_linker_0, # of connection points: 2
#     Edge 28, Type (0, 0), BuildingBlock: AJUNOK_clean_linker_0, # of connection points: 2
#     Edge 29, Type (0, 0), BuildingBlock: AJUNOK_clean_linker_0, # of connection points: 2
#     Edge 30, Type (0, 0), BuildingBlock: AJUNOK_clean_linker_0, # of connection points: 2
#     Edge 31, Type (0, 0), BuildingBlock: AJUNOK_clean_linker_0, # of connection points: 2
#     Edge 32, Type (0, 0), BuildingBlock: AJUNOK_clean_linker_0, # of connection points: 2
#     Edge 33, Type (0, 0), BuildingBlock: AJUNOK_clean_linker_0, # of connection points: 2
#     Edge 34, Type (0, 0), BuildingBlock: AJUNOK_clean_linker_0, # of connection points: 2
#     Edge 35, Type (0, 0), BuildingBlock: AJUNOK_clean_linker_0, # of connection points: 2
#     Edge 36, Type (0, 0), BuildingBlock: AJUNOK_clean_linker_0, # of connection points: 2
#     Edge 37, Type (0, 0), BuildingBlock: AJUNOK_clean_linker_0, # of connection points: 2
#     Edge 38, Type (0, 0), BuildingBlock: AJUNOK_clean_linker_0, # of connection points: 2
#     Edge 39, Type (0, 0), BuildingBlock: AJUNOK_clean_linker_0, # of connection points: 2
#     Edge 40, Type (0, 0), BuildingBlock: AJUNOK_clean_linker_0, # of connection points: 2
#     Edge 41, Type (0, 0), BuildingBlock: AJUNOK_clean_linker_0, # of connection points: 2
#     Edge 42, Type (0, 0), BuildingBlock: AJUNOK_clean_linker_0, # of connection points: 2
#     Edge 43, Type (0, 0), BuildingBlock: AJUNOK_clean_linker_0, # of connection points: 2
#     Edge 44, Type (0, 0), BuildingBlock: AJUNOK_clean_linker_0, # of connection points: 2
#     Edge 45, Type (0, 0), BuildingBlock: AJUNOK_clean_linker_0, # of connection points: 2
#     Edge 46, Type (0, 0), BuildingBlock: AJUNOK_clean_linker_0, # of connection points: 2
#     Edge 47, Type (0, 0), BuildingBlock: AJUNOK_clean_linker_0, # of connection points: 2
# Relax obj value: 0.404
# Max RMSD: 0.286
# Mean RMSD: 0.286
data_MOF--net-wkq--node1-IZENUY_clean_sbu_0--edge1-AJUNOK_clean_linker_0
_symmetry_space_group_name_H-M    P1
_symmetry_Int_Tables_number       1
_symmetry_cell_setting            triclinic
loop_
_symmetry_equiv_pos_as_xyz
'x, y, z'
_cell_length_a     27.27266
_cell_length_b     27.14163
_cell_length_c     26.558081
_cell_angle_alpha  89.949266
_cell_angle_beta   90.152061
_cell_angle_gamma 120.18248
loop_
_atom_site_label
_atom_site_type_symbol
_atom_site_fract_x
_atom_site_fract_y
_atom_site_fract_z
_atom_type_partial_charge
Fe0 Fe 0.26371 0.37519 0.04524 0.0
Fe1 Fe 0.33492 0.50478 0.06028 0.0
O2 O 0.28436 0.44536 0.025 0.0
Fe3 Fe 0.25427 0.45673 0.96988 0.0
O4 O 0.18333 0.3922 0.97755 0.0
O5 O 0.19023 0.35599 0.04949 0.0
O6 O 0.26868 0.39161 0.11209 0.0
C7 C 0.27085 0.43296 0.1357 0.0
C8 C 0.27464 0.37064 0.94023 0.0
O9 O 0.28929 0.48114 0.11516 0.0
C10 C 0.37105 0.54432 0.96561 0.0
O11 O 0.33666 0.38931 0.04423 0.0
O12 O 0.37301 0.4709 0.0838 0.0
O13 O 0.28159 0.41961 0.93114 0.0
O14 O 0.25423 0.34622 0.98173 0.0
C15 C 0.25521 0.5356 0.03575 0.0
O16 O 0.38364 0.5319 0.00769 0.0
O17 O 0.31945 0.5236 0.9525 0.0
C18 C 0.37471 0.42689 0.07212 0.0
O19 O 0.306 0.54999 0.04443 0.0
O20 O 0.22576 0.49473 0.00597 0.0
C21 C 0.16047 0.36145 0.01614 0.0
Fe22 Fe 0.83108 0.24003 0.13099 0.0
Fe23 Fe 0.92382 0.25519 0.2058 0.0
O24 O 0.87347 0.2732 0.18492 0.0
Fe25 Fe 0.86629 0.32607 0.21742 0.0
O26 O 0.79143 0.29533 0.20175 0.0
O27 O 0.76583 0.21212 0.16872 0.0
O28 O 0.82606 0.16979 0.14206 0.0
C29 C 0.83576 0.14945 0.18165 0.0
C30 C 0.8615 0.35699 0.12147 0.0
O31 O 0.87068 0.18174 0.21423 0.0
C32 C 0.98406 0.36731 0.2273 0.0
O33 O 0.89466 0.26668 0.09119 0.0
O34 O 0.94111 0.24143 0.14288 0.0
O35 O 0.88826 0.37089 0.16255 0.0
O36 O 0.82848 0.30449 0.11087 0.0
C37 C 0.87427 0.26611 0.29542 0.0
O38 O 0.98056 0.32854 0.19878 0.0
O39 O 0.93917 0.36608 0.24061 0.0
C40 C 0.93698 0.26079 0.1008 0.0
O41 O 0.91417 0.26443 0.27277 0.0
O42 O 0.84479 0.28389 0.27405 0.0
C43 C 0.75527 0.2431 0.19705 0.0
Fe44 Fe 0.71332 0.90534 0.3719 0.0
Fe45 Fe 0.58464 0.85386 0.3782 0.0
O46 O 0.6447 0.85886 0.34804 0.0
Fe47 Fe 0.63506 0.81738 0.29339 0.0
O48 O 0.69764 0.80858 0.30457 0.0
O49 O 0.72892 0.84877 0.37843 0.0
O50 O 0.69103 0.89205 0.4381 0.0
C51 C 0.64573 0.85451 0.45899 0.0
C52 C 0.72356 0.9237 0.26719 0.0
O53 O 0.59981 0.82774 0.4349 0.0
C54 C 0.55312 0.853 0.28174 0.0
O55 O 0.70293 0.96607 0.36806 0.0
O56 O 0.6202 0.92588 0.40388 0.0
O57 O 0.67545 0.88193 0.25584 0.0
O58 O 0.74624 0.92541 0.3094 0.0
C59 C 0.55064 0.74159 0.35504 0.0
O60 O 0.56643 0.88003 0.3228 0.0
O61 O 0.57065 0.81846 0.27202 0.0
C62 C 0.66748 0.96969 0.39568 0.0
O63 O 0.53801 0.78005 0.36024 0.0
O64 O 0.59336 0.75104 0.3291 0.0
C65 C 0.72627 0.81543 0.34444 0.0
Fe66 Fe 0.85139 0.70942 0.53795 0.0
Fe67 Fe 0.77883 0.58096 0.55881 0.0
O68 O 0.82985 0.63783 0.52168 0.0
Fe69 Fe 0.85918 0.62329 0.4679 0.0
O70 O 0.93019 0.68794 0.47434 0.0
O71 O 0.92405 0.72694 0.54489 0.0
O72 O 0.84424 0.69719 0.60573 0.0
C73 C 0.83955 0.65681 0.63268 0.0
C74 C 0.83986 0.70796 0.433 0.0
O75 O 0.82319 0.60807 0.61427 0.0
C76 C 0.74297 0.53552 0.46526 0.0
O77 O 0.77924 0.69624 0.53347 0.0
O78 O 0.7402 0.61681 0.57683 0.0
O79 O 0.8314 0.65812 0.4269 0.0
O80 O 0.86288 0.73512 0.47293 0.0
C81 C 0.85798 0.54612 0.53577 0.0
O82 O 0.73043 0.54985 0.50622 0.0
O83 O 0.79431 0.5559 0.45226 0.0
C84 C 0.74015 0.66093 0.56187 0.0
O85 O 0.80886 0.53513 0.5484 0.0
O86 O 0.88732 0.58632 0.50553 0.0
C87 C 0.95333 0.7195 0.51253 0.0
Fe88 Fe 0.1766 0.81952 0.70993 0.0
Fe89 Fe 0.23461 0.75011 0.73043 0.0
O90 O 0.22865 0.80138 0.69401 0.0
Fe91 Fe 0.27388 0.83378 0.64142 0.0
O92 O 0.27871 0.90409 0.65056 0.0
O93 O 0.23016 0.89287 0.72014 0.0
O94 O 0.1787 0.80889 0.77768 0.0
C95 C 0.21538 0.80658 0.80494 0.0
C96 C 0.17102 0.81463 0.60471 0.0
O97 O 0.2494 0.79265 0.78676 0.0
C98 C 0.24658 0.71753 0.63636 0.0
O99 O 0.11951 0.74608 0.70137 0.0
O100 O 0.15986 0.70877 0.74636 0.0
O101 O 0.2126 0.80689 0.59877 0.0
O102 O 0.16494 0.83461 0.6455 0.0
C103 C 0.34797 0.83301 0.71189 0.0
O104 O 0.21921 0.70401 0.67693 0.0
O105 O 0.27747 0.76956 0.62387 0.0
C106 C 0.11563 0.70576 0.72837 0.0
O107 O 0.31085 0.78228 0.72194 0.0
O108 O 0.33782 0.86192 0.68063 0.0
C109 C 0.26777 0.9248 0.68913 0.0
Fe110 Fe 0.3993 0.16682 0.87751 0.0
Fe111 Fe 0.52816 0.22197 0.88313 0.0
O112 O 0.46708 0.21574 0.85396 0.0
Fe113 Fe 0.47446 0.25798 0.80038 0.0
O114 O 0.41048 0.26349 0.81352 0.0
O115 O 0.38257 0.2225 0.88759 0.0
O116 O 0.4221 0.17613 0.94357 0.0
C117 C 0.46676 0.21354 0.96541 0.0
C118 C 0.38715 0.15156 0.77305 0.0
O119 O 0.51176 0.24404 0.94131 0.0
C120 C 0.55825 0.22667 0.78592 0.0
O121 O 0.41171 0.10744 0.86952 0.0
O122 O 0.49489 0.14851 0.90537 0.0
O123 O 0.43517 0.19356 0.76172 0.0
O124 O 0.36525 0.14968 0.81547 0.0
C125 C 0.55744 0.33428 0.86368 0.0
O126 O 0.54715 0.19922 0.82645 0.0
O127 O 0.54013 0.26092 0.77793 0.0
C128 C 0.44932 0.10375 0.8943 0.0
O129 O 0.57266 0.2975 0.86802 0.0
O130 O 0.51443 0.32356 0.8373 0.0
C131 C 0.38369 0.25631 0.8545 0.0
Fe132 Fe 0.63283 0.84838 0.8423 0.0
Fe133 Fe 0.70811 0.83819 0.76117 0.0
O134 O 0.64035 0.81892 0.78517 0.0
Fe135 Fe 0.57895 0.76874 0.75176 0.0
O136 O 0.53427 0.79639 0.77382 0.0
O137 O 0.59243 0.87699 0.81097 0.0
O138 O 0.69691 0.92036 0.83252 0.0
C139 C 0.72804 0.94277 0.79389 0.0
C140 C 0.5469 0.72985 0.84669 0.0
O141 O 0.73004 0.9124 0.75931 0.0
C142 C 0.6556 0.72971 0.72971 0.0
O143 O 0.6718 0.82108 0.87733 0.0
O144 O 0.74086 0.84453 0.82303 0.0
O145 O 0.5575 0.71887 0.80322 0.0
O146 O 0.56757 0.78137 0.86153 0.0
C147 C 0.644 0.83536 0.67529 0.0
O148 O 0.69141 0.76468 0.7603 0.0
O149 O 0.61107 0.73142 0.72109 0.0
C150 C 0.71875 0.82562 0.86571 0.0
O151 O 0.68657 0.83584 0.69526 0.0
O152 O 0.59797 0.81662 0.69899 0.0
C153 C 0.54846 0.84689 0.785 0.0
Fe154 Fe 0.90999 0.70387 0.93134 0.0
Fe155 Fe 0.84682 0.57618 0.90799 0.0
O156 O 0.86046 0.63279 0.94898 0.0
Fe157 Fe 0.82442 0.62033 0.00723 0.0
O158 O 0.79483 0.66523 -0.01245 0.0
O159 O 0.87744 0.73616 0.96878 0.0
O160 O 0.86622 0.70051 0.87789 0.0
C161 C 0.84862 0.66115 0.84522 0.0
C162 C 0.93988 0.70061 0.02847 0.0
O163 O 0.8524 0.61697 0.852 0.0
C164 C 0.84799 0.53261 0.00537 0.0
O165 O 0.9516 0.68584 0.89016 0.0
O166 O 0.92121 0.5961 0.90503 0.0
O167 O 0.88753 0.67929 0.03996 0.0
O168 O 0.95548 0.70871 0.98301 0.0
C169 C 0.73886 0.54078 0.94092 0.0
O170 O 0.8376 0.52586 0.95851 0.0
O171 O 0.85035 0.57422 0.02895 0.0
C172 C 0.95669 0.64252 0.88486 0.0
O173 O 0.77261 0.55264 0.90508 0.0
O174 O 0.75693 0.55807 0.9852 0.0
C175 C 0.8249 0.71628 0.97321 0.0
Fe176 Fe 0.31139 0.83446 0.07577 0.0
Fe177 Fe 0.24731 0.80803 0.1762 0.0
O178 O 0.26756 0.84486 0.11797 0.0
Fe179 Fe 0.2417 0.89111 0.10109 0.0
O180 O 0.20281 0.8465 0.04706 0.0
O181 O 0.27593 0.84012 0.02034 0.0
O182 O 0.26207 0.75904 0.07201 0.0
C183 C 0.24128 0.7246 0.10789 0.0
C184 C 0.35097 0.94493 0.05545 0.0
O185 O 0.2445 0.74239 0.15263 0.0
C186 C 0.27488 0.92165 0.19873 0.0
O187 O 0.35378 0.82576 0.12477 0.0
O188 O 0.32077 0.8378 0.19649 0.0
O189 O 0.30133 0.93663 0.06047 0.0
O190 O 0.36375 0.91016 0.07429 0.0
C191 C 0.14745 0.80092 0.14459 0.0
O192 O 0.24856 0.86877 0.21011 0.0
O193 O 0.27991 0.93761 0.15336 0.0
C194 C 0.35935 0.83603 0.17155 0.0
O195 O 0.17225 0.77439 0.15812 0.0
O196 O 0.17647 0.85402 0.13821 0.0
C197 C 0.2264 0.83173 0.01401 0.0
Fe198 Fe 0.4092 0.24115 0.26264 0.0
Fe199 Fe 0.53823 0.30338 0.25434 0.0
O200 O 0.47559 0.25731 0.28817 0.0
Fe201 Fe 0.48138 0.22893 0.34659 0.0
O202 O 0.41682 0.15772 0.33736 0.0
O203 O 0.38165 0.16587 0.26505 0.0
O204 O 0.43078 0.23702 0.19805 0.0
C205 C 0.47172 0.23229 0.18081 0.0
C206 C 0.39892 0.25882 0.36638 0.0
O207 O 0.51767 0.25114 0.205 0.0
C208 C 0.56881 0.34717 0.34793 0.0
O209 O 0.43099 0.31604 0.257 0.0
O210 O 0.50969 0.34045 0.21819 0.0
O211 O 0.44336 0.25863 0.37969 0.0
O212 O 0.37734 0.24169 0.32316 0.0
C213 C 0.56531 0.22577 0.29279 0.0
O214 O 0.55997 0.35643 0.30306 0.0
O215 O 0.54713 0.29623 0.3649 0.0
C216 C 0.46818 0.34734 0.22569 0.0
O217 O 0.5811 0.27639 0.28151 0.0
O218 O 0.52032 0.19705 0.31757 0.0
C219 C 0.38415 0.13565 0.29952 0.0
Fe220 Fe 0.19526 0.36805 0.43771 0.0
Fe221 Fe 0.235 0.49314 0.4152 0.0
O222 O 0.23865 0.44167 0.45347 0.0
Fe223 Fe 0.2847 0.46078 0.50645 0.0
O224 O 0.31708 0.42009 0.48246 0.0
O225 O 0.23755 0.34303 0.47026 0.0
O226 O 0.23597 0.3784 0.3803 0.0
C227 C 0.24444 0.41693 0.34848 0.0
C228 C 0.17433 0.37194 0.53721 0.0
O229 O 0.23167 0.45506 0.35754 0.0
C230 C 0.24721 0.53941 0.51388 0.0
O231 O 0.14285 0.37512 0.4015 0.0
O232 O 0.15843 0.45899 0.42044 0.0
O233 O 0.22816 0.40131 0.54499 0.0
O234 O 0.15396 0.35764 0.49331 0.0
C235 C 0.35129 0.54546 0.43293 0.0
O236 O 0.24052 0.54002 0.46682 0.0
O237 O 0.25944 0.50492 0.53429 0.0
C238 C 0.12812 0.41204 0.39894 0.0
O239 O 0.30932 0.5317 0.40498 0.0
O240 O 0.34572 0.52348 0.47634 0.0
C241 C 0.2906 0.36811 0.47102 0.0
Fe242 Fe 0.77983 0.23165 0.58502 0.0
Fe243 Fe 0.86318 0.27121 0.67277 0.0
O244 O 0.83369 0.22754 0.61866 0.0
Fe245 Fe 0.85646 0.18026 0.59802 0.0
O246 O 0.85282 0.19539 0.53097 0.0
O247 O 0.82556 0.25971 0.53086 0.0
O248 O 0.80238 0.3041 0.60385 0.0
C249 C 0.85241 0.34445 0.60822 0.0
C250 C 0.74707 0.11647 0.56879 0.0
O251 O 0.88686 0.33714 0.63502 0.0
C252 C 0.84524 0.16491 0.70386 0.0
O253 O 0.73263 0.20338 0.63831 0.0
O254 O 0.79549 0.2671 0.69062 0.0
O255 O 0.78497 0.11928 0.59768 0.0
O256 O 0.74635 0.16099 0.55784 0.0
C257 C 0.95895 0.27116 0.6286 0.0
O258 O 0.84017 0.20806 0.71267 0.0
O259 O 0.86385 0.15892 0.66192 0.0
C260 C 0.74436 0.23031 0.67945 0.0
O261 O 0.93586 0.28244 0.66483 0.0
O262 O 0.92964 0.23545 0.59543 0.0
C263 C 0.84898 0.23523 0.50952 0.0
C264 C 0.25574 0.59457 0.10717 0.0
C265 C 0.23464 0.57142 0.05902 0.0
C266 C 0.25162 0.64052 0.12603 0.0
C267 C 0.22657 0.66526 0.09718 0.0
H268 H 0.27933 0.57967 0.12908 0.0
H269 H 0.27297 0.66006 0.16109 0.0
S270 S 0.15349 0.61276 0.97431 0.0
N271 N 0.17938 0.57058 -0.01309 0.0
N272 N 0.17138 0.65719 0.0224 0.0
C273 C 0.19961 0.63847 0.05166 0.0
C274 C 0.20357 0.59133 0.03253 0.0
C275 C 0.65869 0.23499 0.30192 0.0
C276 C 0.60463 0.20548 0.27998 0.0
C277 C 0.70652 0.24277 0.27586 0.0
C278 C 0.70234 0.22071 0.22698 0.0
H279 H 0.66492 0.25791 0.33697 0.0
H280 H 0.74755 0.27004 0.29289 0.0
S281 S 0.56877 0.13033 0.15726 0.0
N282 N 0.5482 0.14719 0.20976 0.0
N283 N 0.63854 0.16034 0.16107 0.0
C284 C 0.64786 0.18522 0.20711 0.0
C285 C 0.59885 0.17789 0.23364 0.0
C286 C 0.40449 0.62019 0.36883 0.0
C287 C 0.40645 0.5915 0.4126 0.0
C288 C 0.45306 0.66431 0.34716 0.0
C289 C 0.50636 0.68369 0.36878 0.0
H290 H 0.36457 0.6099 0.35127 0.0
H291 H 0.44834 0.68616 0.31491 0.0
S292 S 0.53722 0.62611 0.48364 0.0
N293 N 0.46777 0.58585 0.47631 0.0
N294 N 0.55983 0.67235 0.43664 0.0
C295 C 0.5102 0.65582 0.41211 0.0
C296 C 0.46011 0.60922 0.43394 0.0
C297 C 0.90599 0.50292 0.58529 0.0
C298 C 0.87124 0.50042 0.54477 0.0
C299 C 0.9038 0.45295 0.60396 0.0
C300 C 0.86558 0.39912 0.58339 0.0
H301 H 0.93206 0.54293 0.6047 0.0
H302 H 0.92887 0.456 0.63674 0.0
S303 S 0.76823 0.37176 0.47463 0.0
N304 N 0.80141 0.4414 0.48256 0.0
N305 N 0.79478 0.34802 0.51784 0.0
C306 C 0.83307 0.39733 0.54101 0.0
C307 C 0.83652 0.44782 0.52167 0.0
C308 C 0.50398 0.88113 0.72324 0.0
C309 C 0.50738 0.86527 0.77311 0.0
C310 C 0.45353 0.87642 0.70425 0.0
C311 C 0.40485 0.85474 0.73452 0.0
H312 H 0.53893 0.89261 0.6976 0.0
H313 H 0.45116 0.88474 0.66467 0.0
S314 S 0.39463 0.81501 0.86947 0.0
N315 N 0.46016 0.83334 0.85358 0.0
N316 N 0.36553 0.82432 0.81841 0.0
C317 C 0.40957 0.84372 0.78562 0.0
C318 C 0.46085 0.84899 0.80484 0.0
C319 C 0.65953 0.44292 0.95699 0.0
C320 C 0.68037 0.49443 0.93068 0.0
C321 C 0.61692 0.39166 0.93603 0.0
C322 C 0.593 0.3902 0.88847 0.0
H323 H 0.68007 0.44125 -0.00858 0.0
H324 H 0.60488 0.35239 0.95601 0.0
S325 S 0.62666 0.51506 0.80855 0.0
N326 N 0.66955 0.5421 0.85755 0.0
N327 N 0.58833 0.44573 0.81887 0.0
C328 C 0.60931 0.4421 0.8643 0.0
C329 C 0.65331 0.49426 0.8853 0.0
C330 C 0.39602 0.41655 0.16062 0.0
C331 C 0.40384 0.41003 0.10909 0.0
C332 C 0.41899 0.39839 0.1982 0.0
C333 C 0.45244 0.37464 0.1858 0.0
H334 H 0.37038 0.43439 0.17223 0.0
H335 H 0.40955 0.40195 0.23721 0.0
S336 S 0.49138 0.35408 0.05632 0.0
N337 N 0.44966 0.38115 0.04738 0.0
N338 N 0.49631 0.34938 0.11798 0.0
C339 C 0.46348 0.37067 0.13428 0.0
C340 C 0.4382 0.38762 0.09587 0.0
C341 C 0.0663 0.36921 0.26824 0.0
C342 C 1.03209 0.39387 0.2632 0.0
C343 C 0.09643 0.37568 0.31232 0.0
C344 C 0.09594 0.40902 0.35288 0.0
H345 H 0.06622 0.34049 0.23988 0.0
H346 H 0.11931 0.3528 0.31471 0.0
S347 S 1.02624 0.49599 0.35271 0.0
N348 N 1.0074 0.46148 0.29845 0.0
N349 N 0.06725 0.47581 0.38115 0.0
C350 C 0.06756 0.43959 0.34609 0.0
C351 C 1.03527 0.43183 0.3012 0.0
C352 C 0.75837 0.05741 0.50431 0.0
C353 C 0.7224 0.07175 0.53018 0.0
C354 C 0.74202 1.02847 0.45829 0.0
C355 C 0.68861 1.0118 0.43688 0.0
H356 H 0.8006 0.07101 0.51844 0.0
H357 H 0.77088 1.01754 0.44025 0.0
S358 S 0.57847 1.03812 0.49052 0.0
N359 N 0.63141 0.06763 0.5313 0.0
N360 N 0.59938 1.01066 0.4457 0.0
C361 C 0.65193 1.02512 0.46285 0.0
C362 C 0.66903 0.05548 0.50929 0.0
C363 C 0.73 0.74649 0.66726 0.0
C364 C 0.6761 0.70946 0.68763 0.0
C365 C 0.74779 0.73329 0.62251 0.0
C366 C 0.71301 0.6818 0.59701 0.0
H367 H 0.75846 0.78667 0.68548 0.0
H368 H 0.7905 0.76218 0.60952 0.0
S369 S 0.56737 0.5714 0.63332 0.0
N370 N 0.58673 0.62094 0.67722 0.0
N371 N 0.62181 0.59423 0.59452 0.0
C372 C 0.6587 0.64484 0.61641 0.0
C373 C 0.63991 0.65906 0.66135 0.0
C374 C 1.02005 0.68422 0.75559 0.0
C375 C 0.06256 0.66963 0.75661 0.0
C376 C 0.98347 0.67133 0.79626 0.0
C377 C 0.98714 0.64254 0.83908 0.0
H378 H 1.0187 0.71102 0.72598 0.0
H379 H 0.95461 0.68763 0.79551 0.0
S380 S 0.07772 0.57804 0.85249 0.0
N381 N 0.09657 0.61195 0.79801 0.0
N382 N 1.02705 0.58824 0.87492 0.0
C383 C 1.0231 0.61991 0.83721 0.0
C384 C 0.06076 0.63303 0.79558 0.0
C385 C 0.37468 1.00937 0.92591 0.0
C386 C 0.43147 0.05348 0.92747 0.0
C387 C 0.35033 0.97298 0.96688 0.0
C388 C 0.38184 0.9784 0.01078 0.0
H389 H 0.34736 1.0057 0.89469 0.0
H390 H 0.30547 0.942 0.96495 0.0
S391 S 0.53545 0.07666 0.0289 0.0
N392 N 0.52154 0.09333 0.97292 0.0
N393 N 0.47472 1.02377 0.04996 0.0
C394 C 0.4401 1.01728 0.01057 0.0
C395 C 0.46523 0.05495 0.96876 0.0
C396 C 0.50641 0.68111 0.9294 0.0
C397 C 0.50238 0.68207 0.87666 0.0
C398 C 0.46462 0.63558 0.95784 0.0
C399 C 0.41653 0.5901 0.93468 0.0
H400 H 0.54237 0.71544 0.94875 0.0
H401 H 0.4694 0.63672 -0.0016 0.0
S402 S 0.38533 0.57306 0.79776 0.0
N403 N 0.44628 0.63348 0.80242 0.0
N404 N 0.36754 0.54915 0.85589 0.0
C405 C 0.41191 0.59087 0.88204 0.0
C406 C 0.45486 0.63647 0.85305 0.0
C407 C 0.82712 0.43196 0.01723 0.0
C408 C 0.85437 0.48902 0.03375 0.0
C409 C 0.83049 0.38966 0.04508 0.0
C410 C 0.86192 0.40291 0.09019 0.0
H411 H 0.8017 0.41952 0.98319 0.0
H412 H 0.80757 0.34616 0.03147 0.0
S413 S 0.94576 0.54763 0.14693 0.0
N414 N 0.91633 0.55721 0.09636 0.0
N415 N 0.92417 0.47892 0.14804 0.0
C416 C 0.89123 0.46051 0.10594 0.0
C417 C 0.88699 0.50317 0.07799 0.0
C418 C 0.42605 0.86813 0.24543 0.0
C419 C 0.41057 0.84225 0.19772 0.0
C420 C 0.4734 0.87336 0.27128 0.0
C421 C 0.50701 0.85224 0.25089 0.0
H422 H 0.4013 0.88439 0.26315 0.0
H423 H 0.48268 0.89283 0.30826 0.0
S424 S 0.48597 0.78246 0.1263 0.0
N425 N 0.43396 0.79668 0.13035 0.0
N426 N 0.52244 0.80623 0.17913 0.0
C427 C 0.4927 0.82728 0.20277 0.0
C428 C 0.44472 0.82236 0.1762 0.0
C429 C 0.65056 0.44325 0.45843 0.0
C430 C 0.69767 0.48915 0.43489 0.0
C431 C 0.60917 0.39708 0.43026 0.0
C432 C 0.61267 0.39595 0.37749 0.0
H433 H 0.64637 0.4423 0.49902 0.0
H434 H 0.57401 0.36231 0.44988 0.0
S435 S 0.7272 0.50645 0.2979 0.0
N436 N 0.74521 0.53072 0.35594 0.0
N437 N 0.66726 0.44514 0.30289 0.0
C438 C 0.65922 0.44213 0.35356 0.0
C439 C 0.70174 0.48838 0.38228 0.0
C440 C 0.25523 0.67824 0.55338 0.0
C441 C 0.24595 0.67154 0.6056 0.0
C442 C 0.254 0.6347 0.52385 0.0
C443 C 0.24446 0.58313 0.54552 0.0
H444 H 0.26302 0.71722 0.53509 0.0
H445 H 0.26177 0.64208 0.48382 0.0
S446 S 0.21811 0.54446 0.68085 0.0
N447 N 0.22656 0.60901 0.67782 0.0
N448 N 0.22532 0.52805 0.62259 0.0
C449 C 0.23515 0.57598 0.59775 0.0
C450 C 0.23559 0.61988 0.62766 0.0
C451 C 0.60261 0.17755 0.74288 0.0
C452 C 0.60355 0.22852 0.7547 0.0
C453 C 0.64849 0.17837 0.7184 0.0
C454 C 0.69749 0.23022 0.70676 0.0
H455 H 0.56626 0.13682 0.7529 0.0
H456 H 0.64608 0.13828 0.70934 0.0
S457 S 0.72077 0.37529 0.7295 0.0
N458 N 0.65678 0.33204 0.75212 0.0
N459 N 0.74381 0.33369 0.70747 0.0
C460 C 0.69889 0.28145 0.71825 0.0
C461 C 0.65161 0.28057 0.74188 0.0
C462 C 0.34727 0.37231 0.88044 0.0
C463 C 0.29455 0.34155 0.90512 0.0
C464 C 0.3745 0.3442 0.86 0.0
C465 C 0.34991 0.28459 0.86383 0.0
H466 H 0.36967 0.41848 0.88048 0.0
H467 H 0.41677 0.36958 0.84462 0.0
S468 S 0.2081 0.18406 0.91615 0.0
N469 N 0.21555 0.24764 0.92531 0.0
N470 N 0.26674 0.19554 0.88783 0.0
C471 C 0.29526 0.25335 0.88443 0.0
C472 C 0.26756 0.28164 0.90474 0.0
C473 C 1.01727 0.2517 0.06712 0.0
C474 C 0.98561 0.27969 0.06544 0.0
C475 C 0.07211 0.27658 0.04701 0.0
C476 C 0.09789 0.33054 0.02395 0.0
H477 H 1.001 0.21172 0.08718 0.0
H478 H 0.09584 0.25475 0.05223 0.0
S479 S 1.03174 0.41986 0.00559 0.0
N480 N 0.98271 0.36281 0.03537 0.0
N481 N 0.08586 0.40942 -0.00294 0.0
C482 C 0.06521 0.35714 0.01828 0.0
C483 C 1.00904 0.33174 0.03909 0.0
C484 C 0.81132 1.01132 0.23879 0.0
C485 C 0.75246 0.97459 0.23377 0.0
C486 C 0.83838 0.06618 0.21799 0.0
C487 C 0.80796 0.08705 0.19117 0.0
H488 H 0.83637 0.99877 0.26138 0.0
H489 H 0.88328 0.09368 0.22533 0.0
S490 S 0.65377 1.00662 0.16349 0.0
N491 N 0.66504 0.96163 0.19657 0.0
N492 N 0.71628 0.06513 0.15755 0.0
C493 C 0.74983 0.04952 0.18259 0.0
C494 C 0.72201 0.99323 0.20386 0.0
C495 C 0.73555 0.72795 0.3527 0.0
C496 C 0.76085 0.78772 0.35195 0.0
C497 C 0.76384 0.70155 0.37459 0.0
C498 C 0.81811 0.73422 0.39654 0.0
H499 H 0.69208 0.70152 0.3402 0.0
H500 H 0.74116 0.65555 0.37816 0.0
S501 S 0.90605 0.89198 0.39564 0.0
N502 N 0.84593 0.87836 0.36859 0.0
N503 N 0.89871 0.82928 0.40939 0.0
C504 C 0.8455 0.79382 0.39158 0.0
C505 C 0.81695 0.82042 0.36943 0.0
C506 C 0.09632 0.82771 0.56391 0.0
C507 C 0.12538 0.79716 0.56648 0.0
C508 C 1.04252 0.80408 0.54176 0.0
C509 C 1.01555 0.749 0.5209 0.0
H510 H 0.11345 0.86863 0.58254 0.0
H511 H 1.02023 0.82767 0.54402 0.0
S512 S 0.07592 0.65361 0.51276 0.0
N513 N 0.12541 0.7109 0.54208 0.0
N514 N 1.02411 0.66654 0.49987 0.0
C515 C 1.04615 0.71996 0.51897 0.0
C516 C 0.1012 0.74409 0.54186 0.0
C517 C 0.29776 0.06557 0.74499 0.0
C518 C 0.35684 0.10075 0.73969 0.0
C519 C 0.26895 1.01024 0.72518 0.0
C520 C 0.29774 0.98734 0.69893 0.0
H521 H 0.27385 0.07973 0.76718 0.0
H522 H 0.22396 0.98412 0.73269 0.0
S523 S 0.4518 0.0631 0.67088 0.0
N524 N 0.44272 0.10996 0.7031 0.0
N525 N 0.38828 1.00575 0.6655 0.0
C526 C 0.35614 1.02331 0.69006 0.0
C527 C 0.38574 0.08004 0.71049 0.0
C528 C 0.74001 0.72787 0.95507 0.0
C529 C 0.79915 0.75005 0.95359 0.0
C530 C 0.71449 0.75481 0.92943 0.0
C531 C 0.74697 0.80445 0.90058 0.0
H532 H 0.71291 0.68818 0.97448 0.0
H533 H 0.66867 0.73469 0.92982 0.0
S534 S 0.90358 0.88339 0.88814 0.0
N535 N 0.88974 0.82833 0.92414 0.0
N536 N 0.84148 0.87717 0.87535 0.0
C537 C 0.80615 0.82858 0.9008 0.0
C538 C 0.83226 0.80193 0.92746 0.0
C539 C 0.06759 0.71738 0.10032 0.0
C540 C 0.08787 0.76985 0.12539 0.0
C541 C 1.01761 0.69365 0.0713 0.0
C542 C 0.98483 0.7203 0.06753 0.0
H543 H 0.0926 0.69652 0.09999 0.0
H544 H 1.00585 0.6554 0.04974 0.0
S545 S 1.01639 0.85564 0.12876 0.0
N546 N 0.06928 0.8462 0.14629 0.0
N547 N 0.97444 0.80023 0.09317 0.0
C548 C 1.0026 0.77082 0.09469 0.0
C549 C 0.05423 0.79582 0.12333 0.0
C550 C 0.37685 0.04078 0.28523 0.0
C551 C 0.34978 0.07299 0.29132 0.0
C552 C 0.35007 0.98836 0.25897 0.0
C553 C 0.29534 0.96637 0.23825 0.0
H554 H 0.42077 0.05863 0.29651 0.0
H555 H 0.37402 0.9672 0.25149 0.0
S556 S 0.20403 1.03065 0.24898 0.0
N557 N 0.26311 0.07599 0.27858 0.0
N558 N 0.2134 0.97817 0.22955 0.0
C559 C 0.26643 0.99594 0.2475 0.0
C560 C 0.29343 0.04896 0.27409 0.0
C561 C 0.31338 0.2591 0.40024 0.0
C562 C 0.37256 0.28277 0.40031 0.0
C563 C 0.28761 0.28548 0.42568 0.0
C564 C 0.31983 0.33771 0.45146 0.0
H565 H 0.2867 0.22041 0.37922 0.0
H566 H 0.24192 0.26575 0.42303 0.0
S567 S 0.47677 0.41697 0.46409 0.0
N568 N 0.46289 0.36047 0.43002 0.0
N569 N 0.4147 0.411 0.47667 0.0
C570 C 0.37913 0.36112 0.45304 0.0
C571 C 0.40536 0.33346 0.42784 0.0
C572 C 0.10925 0.38384 0.59513 0.0
C573 C 0.13244 0.35042 0.57874 0.0
C574 C 0.05489 0.35873 0.61729 0.0
C575 C 1.02164 0.29924 0.62303 0.0
H576 H 0.1307 0.42885 0.58621 0.0
H577 H 1.03672 0.38537 0.62522 0.0
S578 S 0.06565 0.1939 0.59178 0.0
N579 N 0.12011 0.25571 0.57446 0.0
N580 N 1.01854 0.20854 0.61565 0.0
C581 C 1.04649 0.26619 0.61071 0.0
C582 C 0.10167 0.29173 0.58861 0.0
C583 C 0.77041 0.09634 0.76426 0.0
C584 C 0.82332 0.11637 0.74029 0.0
C585 C 0.74142 0.04177 0.787 0.0
C586 C 0.76461 1.00565 0.78688 0.0
H587 H 0.74905 0.12081 0.76171 0.0
H588 H 0.69875 1.02603 0.80081 0.0
S589 S 0.90612 0.04207 0.73743 0.0
N590 N 0.90049 0.09844 0.72401 0.0
N591 N 0.84696 0.99726 0.76688 0.0
C592 C 0.8197 1.02764 0.76728 0.0
C593 C 0.84877 0.08253 0.74396 0.0
C594 C 0.22263 0.36939 0.26527 0.0
C595 C 0.26003 0.41446 0.29647 0.0
C596 C 0.2257 0.37591 0.21281 0.0
C597 C 0.26559 0.42793 0.19055 0.0
H598 H 0.18892 0.33039 0.28144 0.0
H599 H 0.19579 0.34069 0.18958 0.0
S600 S 0.37979 0.55382 0.25606 0.0
N601 N 0.34314 0.5089 0.30161 0.0
N602 N 0.34802 0.52179 0.2032 0.0
C603 C 0.30517 0.47179 0.22141 0.0
C604 C 0.30281 0.46466 0.27438 0.0
C605 C 0.85592 0.20138 0.42415 0.0
C606 C 0.86192 0.24582 0.45563 0.0
C607 C 0.8607 0.20837 0.37187 0.0
C608 C 0.87069 0.25955 0.34989 0.0
H609 H 0.8456 0.1604 0.43976 0.0
H610 H 0.85495 0.17315 0.34846 0.0
S611 S 0.89922 0.39147 0.41575 0.0
N612 N 0.88645 0.34505 0.46121 0.0
N613 N 0.89256 0.35707 0.36263 0.0
C614 C 0.87931 0.30498 0.3808 0.0
C615 C 0.87567 0.29837 0.43389 0.0
C616 C 0.69302 0.85635 0.59252 0.0
C617 C 0.64463 0.84482 0.62061 0.0
C618 C 0.69293 0.85914 0.54008 0.0
C619 C 0.64434 0.84995 0.51392 0.0
H620 H 0.73106 0.86218 0.61095 0.0
H621 H 0.73085 0.86765 0.51983 0.0
S622 S 0.50872 0.82443 0.56936 0.0
N623 N 0.54817 0.82846 0.61812 0.0
N624 N 0.54816 0.8335 0.51935 0.0
C625 C 0.59624 0.84016 0.54131 0.0
C626 C 0.59641 0.8378 0.59475 0.0
C627 C 0.79569 0.62051 0.76762 0.0
C628 C 0.83582 0.66952 0.79355 0.0
C629 C 0.79737 0.61702 0.71548 0.0
C630 C 0.83859 0.66287 0.6874 0.0
H631 H 0.7659 0.58268 0.78819 0.0
H632 H 0.76698 0.57759 0.69721 0.0
S633 S 0.94681 0.8042 0.73665 0.0
N634 N 0.91341 0.76729 0.78732 0.0
N635 N 0.91553 0.76149 0.68817 0.0
C636 C 0.87523 0.71428 0.71227 0.0
C637 C 0.87381 0.71762 0.76576 0.0
C638 C 0.22138 0.77342 0.88941 0.0
C639 C 0.21029 0.80827 0.85973 0.0
C640 C 0.21578 0.77522 0.94047 0.0
C641 C 0.20404 0.81523 0.96292 0.0
H642 H 0.23452 0.74511 0.87352 0.0
H643 H 0.22779 0.74994 0.96342 0.0
S644 S 0.14288 0.90673 0.89169 0.0
N645 N 0.16603 0.8686 0.86085 0.0
N646 N 0.17161 0.8627 0.89004 0.0
C647 C 0.18726 0.85056 0.93755 0.0
C648 C 0.18737 0.84283 0.88532 0.0
C649 C 0.41845 0.19516 0.04784 0.0
C650 C 0.46877 0.21452 0.0205 0.0
C651 C 0.41938 0.19738 0.10026 0.0
C652 C 0.47068 0.21892 0.12708 0.0
H653 H 0.37826 0.17989 0.02861 0.0
H654 H 0.37983 0.18423 0.11974 0.0
S655 S 0.61304 0.26649 0.07276 0.0
N656 N 0.57032 0.24935 0.02369 0.0
N657 N 0.57236 0.25429 0.12246 0.0
C658 C 0.52087 0.23477 0.10021 0.0
C659 C 0.51988 0.23265 0.04678 0.0
loop_
_geom_bond_atom_site_label_1
_geom_bond_atom_site_label_2
_geom_bond_distance
_geom_bond_site_symmetry_2
_ccdc_geom_bond_type
Fe0 O2 1.918 . S
Fe0 O5 1.997 . S
Fe0 O6 2.002 . S
Fe0 O11 1.976 . S
Fe0 O14 1.996 . S
Fe1 O2 1.918 . S
Fe1 O9 1.997 . S
Fe1 O12 1.996 . S
Fe1 O16 1.976 . S
Fe1 O19 2.002 . S
O2 Fe0 1.918 . S
O2 Fe1 1.918 . S
O2 Fe3 1.918 1_554 S
Fe3 O2 1.918 1_556 S
Fe3 O4 2.002 . S
Fe3 O13 1.976 . S
Fe3 O17 1.996 . S
Fe3 O20 1.997 . S
O4 Fe3 2.002 . S
O4 C21 1.295 1_556 S
O5 Fe0 1.997 . S
O5 C21 1.235 . S
O6 Fe0 2.002 . S
O6 C7 1.295 . S
C7 O6 1.295 . S
C7 O9 1.235 . S
C8 O13 1.287 . S
C8 O14 1.255 1_556 S
O9 Fe1 1.997 . S
O9 C7 1.235 . S
C10 O16 1.287 1_556 S
C10 O17 1.255 . S
O11 Fe0 1.976 . S
O11 C18 1.287 . S
O12 Fe1 1.996 . S
O12 C18 1.255 . S
O13 Fe3 1.976 . S
O13 C8 1.287 . S
O14 Fe0 1.996 . S
O14 C8 1.255 1_554 S
C15 O19 1.295 . S
C15 O20 1.235 1_554 S
O16 Fe1 1.976 . S
O16 C10 1.287 1_554 S
O17 Fe3 1.996 . S
O17 C10 1.255 . S
C18 O11 1.287 . S
C18 O12 1.255 . S
O19 Fe1 2.002 . S
O19 C15 1.295 . S
O20 Fe3 1.997 . S
O20 C15 1.235 1_556 S
C21 O4 1.295 1_554 S
C21 O5 1.235 . S
Fe22 O24 1.918 . S
Fe22 O27 1.997 . S
Fe22 O28 2.002 . S
Fe22 O33 1.976 . S
Fe22 O36 1.996 . S
Fe23 O24 1.918 . S
Fe23 O31 1.997 . S
Fe23 O34 1.996 . S
Fe23 O38 1.976 . S
Fe23 O41 2.002 . S
O24 Fe22 1.918 . S
O24 Fe23 1.918 . S
O24 Fe25 1.918 . S
Fe25 O24 1.918 . S
Fe25 O26 2.002 . S
Fe25 O35 1.976 . S
Fe25 O39 1.996 . S
Fe25 O42 1.997 . S
O26 Fe25 2.002 . S
O26 C43 1.295 . S
O27 Fe22 1.997 . S
O27 C43 1.235 . S
O28 Fe22 2.002 . S
O28 C29 1.295 . S
C29 O28 1.295 . S
C29 O31 1.235 . S
C30 O35 1.287 . S
C30 O36 1.255 . S
O31 Fe23 1.997 . S
O31 C29 1.235 . S
C32 O38 1.287 . S
C32 O39 1.255 . S
O33 Fe22 1.976 . S
O33 C40 1.287 . S
O34 Fe23 1.996 . S
O34 C40 1.255 . S
O35 Fe25 1.976 . S
O35 C30 1.287 . S
O36 Fe22 1.996 . S
O36 C30 1.255 . S
C37 O41 1.295 . S
C37 O42 1.235 . S
O38 Fe23 1.976 . S
O38 C32 1.287 . S
O39 Fe25 1.996 . S
O39 C32 1.255 . S
C40 O33 1.287 . S
C40 O34 1.255 . S
O41 Fe23 2.002 . S
O41 C37 1.295 . S
O42 Fe25 1.997 . S
O42 C37 1.235 . S
C43 O26 1.295 . S
C43 O27 1.235 . S
Fe44 O46 1.918 . S
Fe44 O49 1.997 . S
Fe44 O50 2.002 . S
Fe44 O55 1.976 . S
Fe44 O58 1.996 . S
Fe45 O46 1.918 . S
Fe45 O53 1.997 . S
Fe45 O56 1.996 . S
Fe45 O60 1.976 . S
Fe45 O63 2.002 . S
O46 Fe44 1.918 . S
O46 Fe45 1.918 . S
O46 Fe47 1.918 . S
Fe47 O46 1.918 . S
Fe47 O48 2.002 . S
Fe47 O57 1.976 . S
Fe47 O61 1.996 . S
Fe47 O64 1.997 . S
O48 Fe47 2.002 . S
O48 C65 1.295 . S
O49 Fe44 1.997 . S
O49 C65 1.235 . S
O50 Fe44 2.002 . S
O50 C51 1.295 . S
C51 O50 1.295 . S
C51 O53 1.235 . S
C52 O57 1.287 . S
C52 O58 1.255 . S
O53 Fe45 1.997 . S
O53 C51 1.235 . S
C54 O60 1.287 . S
C54 O61 1.255 . S
O55 Fe44 1.976 . S
O55 C62 1.287 . S
O56 Fe45 1.996 . S
O56 C62 1.255 . S
O57 Fe47 1.976 . S
O57 C52 1.287 . S
O58 Fe44 1.996 . S
O58 C52 1.255 . S
C59 O63 1.295 . S
C59 O64 1.235 . S
O60 Fe45 1.976 . S
O60 C54 1.287 . S
O61 Fe47 1.996 . S
O61 C54 1.255 . S
C62 O55 1.287 . S
C62 O56 1.255 . S
O63 Fe45 2.002 . S
O63 C59 1.295 . S
O64 Fe47 1.997 . S
O64 C59 1.235 . S
C65 O48 1.295 . S
C65 O49 1.235 . S
Fe66 O68 1.918 . S
Fe66 O71 1.997 . S
Fe66 O72 2.002 . S
Fe66 O77 1.976 . S
Fe66 O80 1.996 . S
Fe67 O68 1.918 . S
Fe67 O75 1.997 . S
Fe67 O78 1.996 . S
Fe67 O82 1.976 . S
Fe67 O85 2.002 . S
O68 Fe66 1.918 . S
O68 Fe67 1.918 . S
O68 Fe69 1.918 . S
Fe69 O68 1.918 . S
Fe69 O70 2.002 . S
Fe69 O79 1.976 . S
Fe69 O83 1.996 . S
Fe69 O86 1.997 . S
O70 Fe69 2.002 . S
O70 C87 1.295 . S
O71 Fe66 1.997 . S
O71 C87 1.235 . S
O72 Fe66 2.002 . S
O72 C73 1.295 . S
C73 O72 1.295 . S
C73 O75 1.235 . S
C74 O79 1.287 . S
C74 O80 1.255 . S
O75 Fe67 1.997 . S
O75 C73 1.235 . S
C76 O82 1.287 . S
C76 O83 1.255 . S
O77 Fe66 1.976 . S
O77 C84 1.287 . S
O78 Fe67 1.996 . S
O78 C84 1.255 . S
O79 Fe69 1.976 . S
O79 C74 1.287 . S
O80 Fe66 1.996 . S
O80 C74 1.255 . S
C81 O85 1.295 . S
C81 O86 1.235 . S
O82 Fe67 1.976 . S
O82 C76 1.287 . S
O83 Fe69 1.996 . S
O83 C76 1.255 . S
C84 O77 1.287 . S
C84 O78 1.255 . S
O85 Fe67 2.002 . S
O85 C81 1.295 . S
O86 Fe69 1.997 . S
O86 C81 1.235 . S
C87 O70 1.295 . S
C87 O71 1.235 . S
Fe88 O90 1.918 . S
Fe88 O93 1.997 . S
Fe88 O94 2.002 . S
Fe88 O99 1.976 . S
Fe88 O102 1.996 . S
Fe89 O90 1.918 . S
Fe89 O97 1.997 . S
Fe89 O100 1.996 . S
Fe89 O104 1.976 . S
Fe89 O107 2.002 . S
O90 Fe88 1.918 . S
O90 Fe89 1.918 . S
O90 Fe91 1.918 . S
Fe91 O90 1.918 . S
Fe91 O92 2.002 . S
Fe91 O101 1.976 . S
Fe91 O105 1.996 . S
Fe91 O108 1.997 . S
O92 Fe91 2.002 . S
O92 C109 1.295 . S
O93 Fe88 1.997 . S
O93 C109 1.235 . S
O94 Fe88 2.002 . S
O94 C95 1.295 . S
C95 O94 1.295 . S
C95 O97 1.235 . S
C96 O101 1.287 . S
C96 O102 1.255 . S
O97 Fe89 1.997 . S
O97 C95 1.235 . S
C98 O104 1.287 . S
C98 O105 1.255 . S
O99 Fe88 1.976 . S
O99 C106 1.287 . S
O100 Fe89 1.996 . S
O100 C106 1.255 . S
O101 Fe91 1.976 . S
O101 C96 1.287 . S
O102 Fe88 1.996 . S
O102 C96 1.255 . S
C103 O107 1.295 . S
C103 O108 1.235 . S
O104 Fe89 1.976 . S
O104 C98 1.287 . S
O105 Fe91 1.996 . S
O105 C98 1.255 . S
C106 O99 1.287 . S
C106 O100 1.255 . S
O107 Fe89 2.002 . S
O107 C103 1.295 . S
O108 Fe91 1.997 . S
O108 C103 1.235 . S
C109 O92 1.295 . S
C109 O93 1.235 . S
Fe110 O112 1.918 . S
Fe110 O115 1.997 . S
Fe110 O116 2.002 . S
Fe110 O121 1.976 . S
Fe110 O124 1.996 . S
Fe111 O112 1.918 . S
Fe111 O119 1.997 . S
Fe111 O122 1.996 . S
Fe111 O126 1.976 . S
Fe111 O129 2.002 . S
O112 Fe110 1.918 . S
O112 Fe111 1.918 . S
O112 Fe113 1.918 . S
Fe113 O112 1.918 . S
Fe113 O114 2.002 . S
Fe113 O123 1.976 . S
Fe113 O127 1.996 . S
Fe113 O130 1.997 . S
O114 Fe113 2.002 . S
O114 C131 1.295 . S
O115 Fe110 1.997 . S
O115 C131 1.235 . S
O116 Fe110 2.002 . S
O116 C117 1.295 . S
C117 O116 1.295 . S
C117 O119 1.235 . S
C118 O123 1.287 . S
C118 O124 1.255 . S
O119 Fe111 1.997 . S
O119 C117 1.235 . S
C120 O126 1.287 . S
C120 O127 1.255 . S
O121 Fe110 1.976 . S
O121 C128 1.287 . S
O122 Fe111 1.996 . S
O122 C128 1.255 . S
O123 Fe113 1.976 . S
O123 C118 1.287 . S
O124 Fe110 1.996 . S
O124 C118 1.255 . S
C125 O129 1.295 . S
C125 O130 1.235 . S
O126 Fe111 1.976 . S
O126 C120 1.287 . S
O127 Fe113 1.996 . S
O127 C120 1.255 . S
C128 O121 1.287 . S
C128 O122 1.255 . S
O129 Fe111 2.002 . S
O129 C125 1.295 . S
O130 Fe113 1.997 . S
O130 C125 1.235 . S
C131 O114 1.295 . S
C131 O115 1.235 . S
Fe132 O134 1.918 . S
Fe132 O137 1.997 . S
Fe132 O138 2.002 . S
Fe132 O143 1.976 . S
Fe132 O146 1.996 . S
Fe133 O134 1.918 . S
Fe133 O141 1.997 . S
Fe133 O144 1.996 . S
Fe133 O148 1.976 . S
Fe133 O151 2.002 . S
O134 Fe132 1.918 . S
O134 Fe133 1.918 . S
O134 Fe135 1.918 . S
Fe135 O134 1.918 . S
Fe135 O136 2.002 . S
Fe135 O145 1.976 . S
Fe135 O149 1.996 . S
Fe135 O152 1.997 . S
O136 Fe135 2.002 . S
O136 C153 1.295 . S
O137 Fe132 1.997 . S
O137 C153 1.235 . S
O138 Fe132 2.002 . S
O138 C139 1.295 . S
C139 O138 1.295 . S
C139 O141 1.235 . S
C140 O145 1.287 . S
C140 O146 1.255 . S
O141 Fe133 1.997 . S
O141 C139 1.235 . S
C142 O148 1.287 . S
C142 O149 1.255 . S
O143 Fe132 1.976 . S
O143 C150 1.287 . S
O144 Fe133 1.996 . S
O144 C150 1.255 . S
O145 Fe135 1.976 . S
O145 C140 1.287 . S
O146 Fe132 1.996 . S
O146 C140 1.255 . S
C147 O151 1.295 . S
C147 O152 1.235 . S
O148 Fe133 1.976 . S
O148 C142 1.287 . S
O149 Fe135 1.996 . S
O149 C142 1.255 . S
C150 O143 1.287 . S
C150 O144 1.255 . S
O151 Fe133 2.002 . S
O151 C147 1.295 . S
O152 Fe135 1.997 . S
O152 C147 1.235 . S
C153 O136 1.295 . S
C153 O137 1.235 . S
Fe154 O156 1.918 . S
Fe154 O159 1.997 . S
Fe154 O160 2.002 . S
Fe154 O165 1.976 . S
Fe154 O168 1.996 . S
Fe155 O156 1.918 . S
Fe155 O163 1.997 . S
Fe155 O166 1.996 . S
Fe155 O170 1.976 . S
Fe155 O173 2.002 . S
O156 Fe154 1.918 . S
O156 Fe155 1.918 . S
O156 Fe157 1.918 1_556 S
Fe157 O156 1.918 1_554 S
Fe157 O158 2.002 . S
Fe157 O167 1.976 . S
Fe157 O171 1.996 . S
Fe157 O174 1.997 . S
O158 Fe157 2.002 . S
O158 C175 1.295 1_554 S
O159 Fe154 1.997 . S
O159 C175 1.235 . S
O160 Fe154 2.002 . S
O160 C161 1.295 . S
C161 O160 1.295 . S
C161 O163 1.235 . S
C162 O167 1.287 . S
C162 O168 1.255 1_554 S
O163 Fe155 1.997 . S
O163 C161 1.235 . S
C164 O170 1.287 1_554 S
C164 O171 1.255 . S
O165 Fe154 1.976 . S
O165 C172 1.287 . S
O166 Fe155 1.996 . S
O166 C172 1.255 . S
O167 Fe157 1.976 . S
O167 C162 1.287 . S
O168 Fe154 1.996 . S
O168 C162 1.255 1_556 S
C169 O173 1.295 . S
C169 O174 1.235 1_556 S
O170 Fe155 1.976 . S
O170 C164 1.287 1_556 S
O171 Fe157 1.996 . S
O171 C164 1.255 . S
C172 O165 1.287 . S
C172 O166 1.255 . S
O173 Fe155 2.002 . S
O173 C169 1.295 . S
O174 Fe157 1.997 . S
O174 C169 1.235 1_554 S
C175 O158 1.295 1_556 S
C175 O159 1.235 . S
Fe176 O178 1.918 . S
Fe176 O181 1.997 . S
Fe176 O182 2.002 . S
Fe176 O187 1.976 . S
Fe176 O190 1.996 . S
Fe177 O178 1.918 . S
Fe177 O185 1.997 . S
Fe177 O188 1.996 . S
Fe177 O192 1.976 . S
Fe177 O195 2.002 . S
O178 Fe176 1.918 . S
O178 Fe177 1.918 . S
O178 Fe179 1.918 . S
Fe179 O178 1.918 . S
Fe179 O180 2.002 . S
Fe179 O189 1.976 . S
Fe179 O193 1.996 . S
Fe179 O196 1.997 . S
O180 Fe179 2.002 . S
O180 C197 1.295 . S
O181 Fe176 1.997 . S
O181 C197 1.235 . S
O182 Fe176 2.002 . S
O182 C183 1.295 . S
C183 O182 1.295 . S
C183 O185 1.235 . S
C184 O189 1.287 . S
C184 O190 1.255 . S
O185 Fe177 1.997 . S
O185 C183 1.235 . S
C186 O192 1.287 . S
C186 O193 1.255 . S
O187 Fe176 1.976 . S
O187 C194 1.287 . S
O188 Fe177 1.996 . S
O188 C194 1.255 . S
O189 Fe179 1.976 . S
O189 C184 1.287 . S
O190 Fe176 1.996 . S
O190 C184 1.255 . S
C191 O195 1.295 . S
C191 O196 1.235 . S
O192 Fe177 1.976 . S
O192 C186 1.287 . S
O193 Fe179 1.996 . S
O193 C186 1.255 . S
C194 O187 1.287 . S
C194 O188 1.255 . S
O195 Fe177 2.002 . S
O195 C191 1.295 . S
O196 Fe179 1.997 . S
O196 C191 1.235 . S
C197 O180 1.295 . S
C197 O181 1.235 . S
Fe198 O200 1.918 . S
Fe198 O203 1.997 . S
Fe198 O204 2.002 . S
Fe198 O209 1.976 . S
Fe198 O212 1.996 . S
Fe199 O200 1.918 . S
Fe199 O207 1.997 . S
Fe199 O210 1.996 . S
Fe199 O214 1.976 . S
Fe199 O217 2.002 . S
O200 Fe198 1.918 . S
O200 Fe199 1.918 . S
O200 Fe201 1.918 . S
Fe201 O200 1.918 . S
Fe201 O202 2.002 . S
Fe201 O211 1.976 . S
Fe201 O215 1.996 . S
Fe201 O218 1.997 . S
O202 Fe201 2.002 . S
O202 C219 1.295 . S
O203 Fe198 1.997 . S
O203 C219 1.235 . S
O204 Fe198 2.002 . S
O204 C205 1.295 . S
C205 O204 1.295 . S
C205 O207 1.235 . S
C206 O211 1.287 . S
C206 O212 1.255 . S
O207 Fe199 1.997 . S
O207 C205 1.235 . S
C208 O214 1.287 . S
C208 O215 1.255 . S
O209 Fe198 1.976 . S
O209 C216 1.287 . S
O210 Fe199 1.996 . S
O210 C216 1.255 . S
O211 Fe201 1.976 . S
O211 C206 1.287 . S
O212 Fe198 1.996 . S
O212 C206 1.255 . S
C213 O217 1.295 . S
C213 O218 1.235 . S
O214 Fe199 1.976 . S
O214 C208 1.287 . S
O215 Fe201 1.996 . S
O215 C208 1.255 . S
C216 O209 1.287 . S
C216 O210 1.255 . S
O217 Fe199 2.002 . S
O217 C213 1.295 . S
O218 Fe201 1.997 . S
O218 C213 1.235 . S
C219 O202 1.295 . S
C219 O203 1.235 . S
Fe220 O222 1.918 . S
Fe220 O225 1.997 . S
Fe220 O226 2.002 . S
Fe220 O231 1.976 . S
Fe220 O234 1.996 . S
Fe221 O222 1.918 . S
Fe221 O229 1.997 . S
Fe221 O232 1.996 . S
Fe221 O236 1.976 . S
Fe221 O239 2.002 . S
O222 Fe220 1.918 . S
O222 Fe221 1.918 . S
O222 Fe223 1.918 . S
Fe223 O222 1.918 . S
Fe223 O224 2.002 . S
Fe223 O233 1.976 . S
Fe223 O237 1.996 . S
Fe223 O240 1.997 . S
O224 Fe223 2.002 . S
O224 C241 1.295 . S
O225 Fe220 1.997 . S
O225 C241 1.235 . S
O226 Fe220 2.002 . S
O226 C227 1.295 . S
C227 O226 1.295 . S
C227 O229 1.235 . S
C228 O233 1.287 . S
C228 O234 1.255 . S
O229 Fe221 1.997 . S
O229 C227 1.235 . S
C230 O236 1.287 . S
C230 O237 1.255 . S
O231 Fe220 1.976 . S
O231 C238 1.287 . S
O232 Fe221 1.996 . S
O232 C238 1.255 . S
O233 Fe223 1.976 . S
O233 C228 1.287 . S
O234 Fe220 1.996 . S
O234 C228 1.255 . S
C235 O239 1.295 . S
C235 O240 1.235 . S
O236 Fe221 1.976 . S
O236 C230 1.287 . S
O237 Fe223 1.996 . S
O237 C230 1.255 . S
C238 O231 1.287 . S
C238 O232 1.255 . S
O239 Fe221 2.002 . S
O239 C235 1.295 . S
O240 Fe223 1.997 . S
O240 C235 1.235 . S
C241 O224 1.295 . S
C241 O225 1.235 . S
Fe242 O244 1.918 . S
Fe242 O247 1.997 . S
Fe242 O248 2.002 . S
Fe242 O253 1.976 . S
Fe242 O256 1.996 . S
Fe243 O244 1.918 . S
Fe243 O251 1.997 . S
Fe243 O254 1.996 . S
Fe243 O258 1.976 . S
Fe243 O261 2.002 . S
O244 Fe242 1.918 . S
O244 Fe243 1.918 . S
O244 Fe245 1.918 . S
Fe245 O244 1.918 . S
Fe245 O246 2.002 . S
Fe245 O255 1.976 . S
Fe245 O259 1.996 . S
Fe245 O262 1.997 . S
O246 Fe245 2.002 . S
O246 C263 1.295 . S
O247 Fe242 1.997 . S
O247 C263 1.235 . S
O248 Fe242 2.002 . S
O248 C249 1.295 . S
C249 O248 1.295 . S
C249 O251 1.235 . S
C250 O255 1.287 . S
C250 O256 1.255 . S
O251 Fe243 1.997 . S
O251 C249 1.235 . S
C252 O258 1.287 . S
C252 O259 1.255 . S
O253 Fe242 1.976 . S
O253 C260 1.287 . S
O254 Fe243 1.996 . S
O254 C260 1.255 . S
O255 Fe245 1.976 . S
O255 C250 1.287 . S
O256 Fe242 1.996 . S
O256 C250 1.255 . S
C257 O261 1.295 . S
C257 O262 1.235 . S
O258 Fe243 1.976 . S
O258 C252 1.287 . S
O259 Fe245 1.996 . S
O259 C252 1.255 . S
C260 O253 1.287 . S
C260 O254 1.255 . S
O261 Fe243 2.002 . S
O261 C257 1.295 . S
O262 Fe245 1.997 . S
O262 C257 1.235 . S
C263 O246 1.295 . S
C263 O247 1.235 . S
C264 C265 1.369 . S
C264 C266 1.419 . S
C264 H268 0.930 . S
C265 C264 1.369 . S
C265 C274 1.429 . S
C266 C264 1.419 . S
C266 C267 1.363 . S
C266 H269 0.929 . S
C267 C266 1.363 . S
C267 C273 1.428 . S
H268 C264 0.930 . S
H269 C266 0.929 . S
S270 N271 1.613 . S
S270 N272 1.610 . S
N271 S270 1.613 . S
N271 C274 1.350 . S
N272 S270 1.610 . S
N272 C273 1.351 . S
C273 C267 1.428 . S
C273 N272 1.351 . S
C273 C274 1.434 . S
C274 C265 1.429 . S
C274 N271 1.350 . S
C274 C273 1.434 . S
C275 C276 1.369 . S
C275 C277 1.419 . S
C275 H279 0.930 . S
C276 C275 1.369 . S
C276 C285 1.429 . S
C277 C275 1.419 . S
C277 C278 1.363 . S
C277 H280 0.929 . S
C278 C277 1.363 . S
C278 C284 1.428 . S
H279 C275 0.930 . S
H280 C277 0.929 . S
S281 N282 1.613 . S
S281 N283 1.610 . S
N282 S281 1.613 . S
N282 C285 1.350 . S
N283 S281 1.610 . S
N283 C284 1.351 . S
C284 C278 1.428 . S
C284 N283 1.351 . S
C284 C285 1.434 . S
C285 C276 1.429 . S
C285 N282 1.350 . S
C285 C284 1.434 . S
C286 C287 1.369 . S
C286 C288 1.419 . S
C286 H290 0.930 . S
C287 C286 1.369 . S
C287 C296 1.429 . S
C288 C286 1.419 . S
C288 C289 1.363 . S
C288 H291 0.929 . S
C289 C288 1.363 . S
C289 C295 1.428 . S
H290 C286 0.930 . S
H291 C288 0.929 . S
S292 N293 1.613 . S
S292 N294 1.610 . S
N293 S292 1.613 . S
N293 C296 1.350 . S
N294 S292 1.610 . S
N294 C295 1.351 . S
C295 C289 1.428 . S
C295 N294 1.351 . S
C295 C296 1.434 . S
C296 C287 1.429 . S
C296 N293 1.350 . S
C296 C295 1.434 . S
C297 C298 1.369 . S
C297 C299 1.419 . S
C297 H301 0.930 . S
C298 C297 1.369 . S
C298 C307 1.429 . S
C299 C297 1.419 . S
C299 C300 1.363 . S
C299 H302 0.929 . S
C300 C299 1.363 . S
C300 C306 1.428 . S
H301 C297 0.930 . S
H302 C299 0.929 . S
S303 N304 1.613 . S
S303 N305 1.610 . S
N304 S303 1.613 . S
N304 C307 1.350 . S
N305 S303 1.610 . S
N305 C306 1.351 . S
C306 C300 1.428 . S
C306 N305 1.351 . S
C306 C307 1.434 . S
C307 C298 1.429 . S
C307 N304 1.350 . S
C307 C306 1.434 . S
C308 C309 1.369 . S
C308 C310 1.419 . S
C308 H312 0.930 . S
C309 C308 1.369 . S
C309 C318 1.429 . S
C310 C308 1.419 . S
C310 C311 1.363 . S
C310 H313 0.929 . S
C311 C310 1.363 . S
C311 C317 1.428 . S
H312 C308 0.930 . S
H313 C310 0.929 . S
S314 N315 1.613 . S
S314 N316 1.610 . S
N315 S314 1.613 . S
N315 C318 1.350 . S
N316 S314 1.610 . S
N316 C317 1.351 . S
C317 C311 1.428 . S
C317 N316 1.351 . S
C317 C318 1.434 . S
C318 C309 1.429 . S
C318 N315 1.350 . S
C318 C317 1.434 . S
C319 C320 1.369 . S
C319 C321 1.419 . S
C319 H323 0.930 . S
C320 C319 1.369 . S
C320 C329 1.429 . S
C321 C319 1.419 . S
C321 C322 1.363 . S
C321 H324 0.929 . S
C322 C321 1.363 . S
C322 C328 1.428 . S
H323 C319 0.930 . S
H324 C321 0.929 . S
S325 N326 1.613 . S
S325 N327 1.610 . S
N326 S325 1.613 . S
N326 C329 1.350 . S
N327 S325 1.610 . S
N327 C328 1.351 . S
C328 C322 1.428 . S
C328 N327 1.351 . S
C328 C329 1.434 . S
C329 C320 1.429 . S
C329 N326 1.350 . S
C329 C328 1.434 . S
C330 C331 1.369 . S
C330 C332 1.419 . S
C330 H334 0.930 . S
C331 C330 1.369 . S
C331 C340 1.429 . S
C332 C330 1.419 . S
C332 C333 1.363 . S
C332 H335 0.929 . S
C333 C332 1.363 . S
C333 C339 1.428 . S
H334 C330 0.930 . S
H335 C332 0.929 . S
S336 N337 1.613 . S
S336 N338 1.610 . S
N337 S336 1.613 . S
N337 C340 1.350 . S
N338 S336 1.610 . S
N338 C339 1.351 . S
C339 C333 1.428 . S
C339 N338 1.351 . S
C339 C340 1.434 . S
C340 C331 1.429 . S
C340 N337 1.350 . S
C340 C339 1.434 . S
C341 C342 1.369 1_455 S
C341 C343 1.419 . S
C341 H345 0.930 . S
C342 C341 1.369 1_655 S
C342 C351 1.429 . S
C343 C341 1.419 . S
C343 C344 1.363 . S
C343 H346 0.929 . S
C344 C343 1.363 . S
C344 C350 1.428 1_455 S
H345 C341 0.930 . S
H346 C343 0.929 . S
S347 N348 1.613 . S
S347 N349 1.610 . S
N348 S347 1.613 . S
N348 C351 1.350 . S
N349 S347 1.610 . S
N349 C350 1.351 . S
C350 C344 1.428 1_655 S
C350 N349 1.351 . S
C350 C351 1.434 . S
C351 C342 1.429 . S
C351 N348 1.350 . S
C351 C350 1.434 . S
C352 C353 1.369 . S
C352 C354 1.419 1_545 S
C352 H356 0.930 . S
C353 C352 1.369 . S
C353 C362 1.429 . S
C354 C352 1.419 1_565 S
C354 C355 1.363 . S
C354 H357 0.929 . S
C355 C354 1.363 . S
C355 C361 1.428 . S
H356 C352 0.930 . S
H357 C354 0.929 . S
S358 N359 1.613 1_565 S
S358 N360 1.610 . S
N359 S358 1.613 1_545 S
N359 C362 1.350 . S
N360 S358 1.610 . S
N360 C361 1.351 . S
C361 C355 1.428 . S
C361 N360 1.351 . S
C361 C362 1.434 1_565 S
C362 C353 1.429 . S
C362 N359 1.350 . S
C362 C361 1.434 1_545 S
C363 C364 1.369 . S
C363 C365 1.419 . S
C363 H367 0.930 . S
C364 C363 1.369 . S
C364 C373 1.429 . S
C365 C363 1.419 . S
C365 C366 1.363 . S
C365 H368 0.929 . S
C366 C365 1.363 . S
C366 C372 1.428 . S
H367 C363 0.930 . S
H368 C365 0.929 . S
S369 N370 1.613 . S
S369 N371 1.610 . S
N370 S369 1.613 . S
N370 C373 1.350 . S
N371 S369 1.610 . S
N371 C372 1.351 . S
C372 C366 1.428 . S
C372 N371 1.351 . S
C372 C373 1.434 . S
C373 C364 1.429 . S
C373 N370 1.350 . S
C373 C372 1.434 . S
C374 C375 1.369 1_655 S
C374 C376 1.419 . S
C374 H378 0.930 . S
C375 C374 1.369 1_455 S
C375 C384 1.429 . S
C376 C374 1.419 . S
C376 C377 1.363 . S
C376 H379 0.929 . S
C377 C376 1.363 . S
C377 C383 1.428 1_655 S
H378 C374 0.930 . S
H379 C376 0.929 . S
S380 N381 1.613 . S
S380 N382 1.610 . S
N381 S380 1.613 . S
N381 C384 1.350 . S
N382 S380 1.610 . S
N382 C383 1.351 . S
C383 C377 1.428 1_455 S
C383 N382 1.351 . S
C383 C384 1.434 . S
C384 C375 1.429 . S
C384 N381 1.350 . S
C384 C383 1.434 . S
C385 C386 1.369 1_554 S
C385 C387 1.419 . S
C385 H389 0.930 . S
C386 C385 1.369 1_556 S
C386 C395 1.429 1_545 S
C387 C385 1.419 . S
C387 C388 1.363 1_545 S
C387 H390 0.929 . S
C388 C387 1.363 1_565 S
C388 C394 1.428 1_554 S
H389 C385 0.930 . S
H390 C387 0.929 . S
S391 N392 1.613 . S
S391 N393 1.610 . S
N392 S391 1.613 . S
N392 C395 1.350 . S
N393 S391 1.610 . S
N393 C394 1.351 . S
C394 C388 1.428 1_556 S
C394 N393 1.351 . S
C394 C395 1.434 . S
C395 C386 1.429 1_565 S
C395 N392 1.350 . S
C395 C394 1.434 . S
C396 C397 1.369 . S
C396 C398 1.419 . S
C396 H400 0.930 . S
C397 C396 1.369 . S
C397 C406 1.429 . S
C398 C396 1.419 . S
C398 C399 1.363 . S
C398 H401 0.929 . S
C399 C398 1.363 . S
C399 C405 1.428 . S
H400 C396 0.930 . S
H401 C398 0.929 . S
S402 N403 1.613 . S
S402 N404 1.610 . S
N403 S402 1.613 . S
N403 C406 1.350 . S
N404 S402 1.610 . S
N404 C405 1.351 . S
C405 C399 1.428 . S
C405 N404 1.351 . S
C405 C406 1.434 . S
C406 C397 1.429 . S
C406 N403 1.350 . S
C406 C405 1.434 . S
C407 C408 1.369 . S
C407 C409 1.419 . S
C407 H411 0.930 . S
C408 C407 1.369 . S
C408 C417 1.429 . S
C409 C407 1.419 . S
C409 C410 1.363 . S
C409 H412 0.929 . S
C410 C409 1.363 . S
C410 C416 1.428 . S
H411 C407 0.930 . S
H412 C409 0.929 . S
S413 N414 1.613 . S
S413 N415 1.610 . S
N414 S413 1.613 . S
N414 C417 1.350 . S
N415 S413 1.610 . S
N415 C416 1.351 . S
C416 C410 1.428 . S
C416 N415 1.351 . S
C416 C417 1.434 . S
C417 C408 1.429 . S
C417 N414 1.350 . S
C417 C416 1.434 . S
C418 C419 1.369 . S
C418 C420 1.419 . S
C418 H422 0.930 . S
C419 C418 1.369 . S
C419 C428 1.429 . S
C420 C418 1.419 . S
C420 C421 1.363 . S
C420 H423 0.929 . S
C421 C420 1.363 . S
C421 C427 1.428 . S
H422 C418 0.930 . S
H423 C420 0.929 . S
S424 N425 1.613 . S
S424 N426 1.610 . S
N425 S424 1.613 . S
N425 C428 1.350 . S
N426 S424 1.610 . S
N426 C427 1.351 . S
C427 C421 1.428 . S
C427 N426 1.351 . S
C427 C428 1.434 . S
C428 C419 1.429 . S
C428 N425 1.350 . S
C428 C427 1.434 . S
C429 C430 1.369 . S
C429 C431 1.419 . S
C429 H433 0.930 . S
C430 C429 1.369 . S
C430 C439 1.429 . S
C431 C429 1.419 . S
C431 C432 1.363 . S
C431 H434 0.929 . S
C432 C431 1.363 . S
C432 C438 1.428 . S
H433 C429 0.930 . S
H434 C431 0.929 . S
S435 N436 1.613 . S
S435 N437 1.610 . S
N436 S435 1.613 . S
N436 C439 1.350 . S
N437 S435 1.610 . S
N437 C438 1.351 . S
C438 C432 1.428 . S
C438 N437 1.351 . S
C438 C439 1.434 . S
C439 C430 1.429 . S
C439 N436 1.350 . S
C439 C438 1.434 . S
C440 C441 1.369 . S
C440 C442 1.419 . S
C440 H444 0.930 . S
C441 C440 1.369 . S
C441 C450 1.429 . S
C442 C440 1.419 . S
C442 C443 1.363 . S
C442 H445 0.929 . S
C443 C442 1.363 . S
C443 C449 1.428 . S
H444 C440 0.930 . S
H445 C442 0.929 . S
S446 N447 1.613 . S
S446 N448 1.610 . S
N447 S446 1.613 . S
N447 C450 1.350 . S
N448 S446 1.610 . S
N448 C449 1.351 . S
C449 C443 1.428 . S
C449 N448 1.351 . S
C449 C450 1.434 . S
C450 C441 1.429 . S
C450 N447 1.350 . S
C450 C449 1.434 . S
C451 C452 1.369 . S
C451 C453 1.419 . S
C451 H455 0.930 . S
C452 C451 1.369 . S
C452 C461 1.429 . S
C453 C451 1.419 . S
C453 C454 1.363 . S
C453 H456 0.929 . S
C454 C453 1.363 . S
C454 C460 1.428 . S
H455 C451 0.930 . S
H456 C453 0.929 . S
S457 N458 1.613 . S
S457 N459 1.610 . S
N458 S457 1.613 . S
N458 C461 1.350 . S
N459 S457 1.610 . S
N459 C460 1.351 . S
C460 C454 1.428 . S
C460 N459 1.351 . S
C460 C461 1.434 . S
C461 C452 1.429 . S
C461 N458 1.350 . S
C461 C460 1.434 . S
C462 C463 1.369 . S
C462 C464 1.419 . S
C462 H466 0.930 . S
C463 C462 1.369 . S
C463 C472 1.429 . S
C464 C462 1.419 . S
C464 C465 1.363 . S
C464 H467 0.929 . S
C465 C464 1.363 . S
C465 C471 1.428 . S
H466 C462 0.930 . S
H467 C464 0.929 . S
S468 N469 1.613 . S
S468 N470 1.610 . S
N469 S468 1.613 . S
N469 C472 1.350 . S
N470 S468 1.610 . S
N470 C471 1.351 . S
C471 C465 1.428 . S
C471 N470 1.351 . S
C471 C472 1.434 . S
C472 C463 1.429 . S
C472 N469 1.350 . S
C472 C471 1.434 . S
C473 C474 1.369 . S
C473 C475 1.419 1_655 S
C473 H477 0.930 . S
C474 C473 1.369 . S
C474 C483 1.429 . S
C475 C473 1.419 1_455 S
C475 C476 1.363 . S
C475 H478 0.929 . S
C476 C475 1.363 . S
C476 C482 1.428 . S
H477 C473 0.930 . S
H478 C475 0.929 . S
S479 N480 1.613 1_556 S
S479 N481 1.610 1_655 S
N480 S479 1.613 1_554 S
N480 C483 1.350 . S
N481 S479 1.610 1_455 S
N481 C482 1.351 1_556 S
C482 C476 1.428 . S
C482 N481 1.351 1_554 S
C482 C483 1.434 1_455 S
C483 C474 1.429 . S
C483 N480 1.350 . S
C483 C482 1.434 1_655 S
C484 C485 1.369 . S
C484 C486 1.419 1_565 S
C484 H488 0.930 . S
C485 C484 1.369 . S
C485 C494 1.429 . S
C486 C484 1.419 1_545 S
C486 C487 1.363 . S
C486 H489 0.929 . S
C487 C486 1.363 . S
C487 C493 1.428 . S
H488 C484 0.930 . S
H489 C486 0.929 . S
S490 N491 1.613 1_545 S
S490 N492 1.610 . S
N491 S490 1.613 1_565 S
N491 C494 1.350 . S
N492 S490 1.610 . S
N492 C493 1.351 . S
C493 C487 1.428 . S
C493 N492 1.351 . S
C493 C494 1.434 1_545 S
C494 C485 1.429 . S
C494 N491 1.350 . S
C494 C493 1.434 1_565 S
C495 C496 1.369 . S
C495 C497 1.419 . S
C495 H499 0.930 . S
C496 C495 1.369 . S
C496 C505 1.429 . S
C497 C495 1.419 . S
C497 C498 1.363 . S
C497 H500 0.929 . S
C498 C497 1.363 . S
C498 C504 1.428 . S
H499 C495 0.930 . S
H500 C497 0.929 . S
S501 N502 1.613 . S
S501 N503 1.610 . S
N502 S501 1.613 . S
N502 C505 1.350 . S
N503 S501 1.610 . S
N503 C504 1.351 . S
C504 C498 1.428 . S
C504 N503 1.351 . S
C504 C505 1.434 . S
C505 C496 1.429 . S
C505 N502 1.350 . S
C505 C504 1.434 . S
C506 C507 1.369 . S
C506 C508 1.419 1_455 S
C506 H510 0.930 . S
C507 C506 1.369 . S
C507 C516 1.429 . S
C508 C506 1.419 1_655 S
C508 C509 1.363 . S
C508 H511 0.929 . S
C509 C508 1.363 . S
C509 C515 1.428 . S
H510 C506 0.930 . S
H511 C508 0.929 . S
S512 N513 1.613 . S
S512 N514 1.610 1_455 S
N513 S512 1.613 . S
N513 C516 1.350 . S
N514 S512 1.610 1_655 S
N514 C515 1.351 . S
C515 C509 1.428 . S
C515 N514 1.351 . S
C515 C516 1.434 1_655 S
C516 C507 1.429 . S
C516 N513 1.350 . S
C516 C515 1.434 1_455 S
C517 C518 1.369 . S
C517 C519 1.419 1_545 S
C517 H521 0.930 . S
C518 C517 1.369 . S
C518 C527 1.429 . S
C519 C517 1.419 1_565 S
C519 C520 1.363 . S
C519 H522 0.929 . S
C520 C519 1.363 . S
C520 C526 1.428 1_565 S
H521 C517 0.930 . S
H522 C519 0.929 . S
S523 N524 1.613 . S
S523 N525 1.610 . S
N524 S523 1.613 . S
N524 C527 1.350 . S
N525 S523 1.610 . S
N525 C526 1.351 . S
C526 C520 1.428 1_545 S
C526 N525 1.351 . S
C526 C527 1.434 . S
C527 C518 1.429 . S
C527 N524 1.350 . S
C527 C526 1.434 . S
C528 C529 1.369 . S
C528 C530 1.419 . S
C528 H532 0.930 . S
C529 C528 1.369 . S
C529 C538 1.429 . S
C530 C528 1.419 . S
C530 C531 1.363 . S
C530 H533 0.929 . S
C531 C530 1.363 . S
C531 C537 1.428 . S
H532 C528 0.930 . S
H533 C530 0.929 . S
S534 N535 1.613 . S
S534 N536 1.610 . S
N535 S534 1.613 . S
N535 C538 1.350 . S
N536 S534 1.610 . S
N536 C537 1.351 . S
C537 C531 1.428 . S
C537 N536 1.351 . S
C537 C538 1.434 . S
C538 C529 1.429 . S
C538 N535 1.350 . S
C538 C537 1.434 . S
C539 C540 1.369 . S
C539 C541 1.419 1_455 S
C539 H543 0.930 . S
C540 C539 1.369 . S
C540 C549 1.429 . S
C541 C539 1.419 1_655 S
C541 C542 1.363 . S
C541 H544 0.929 . S
C542 C541 1.363 . S
C542 C548 1.428 . S
H543 C539 0.930 . S
H544 C541 0.929 . S
S545 N546 1.613 . S
S545 N547 1.610 1_455 S
N546 S545 1.613 . S
N546 C549 1.350 . S
N547 S545 1.610 1_655 S
N547 C548 1.351 . S
C548 C542 1.428 . S
C548 N547 1.351 . S
C548 C549 1.434 1_655 S
C549 C540 1.429 . S
C549 N546 1.350 . S
C549 C548 1.434 1_455 S
C550 C551 1.369 . S
C550 C552 1.419 1_545 S
C550 H554 0.930 . S
C551 C550 1.369 . S
C551 C560 1.429 . S
C552 C550 1.419 1_565 S
C552 C553 1.363 . S
C552 H555 0.929 . S
C553 C552 1.363 . S
C553 C559 1.428 . S
H554 C550 0.930 . S
H555 C552 0.929 . S
S556 N557 1.613 1_565 S
S556 N558 1.610 . S
N557 S556 1.613 1_545 S
N557 C560 1.350 . S
N558 S556 1.610 . S
N558 C559 1.351 . S
C559 C553 1.428 . S
C559 N558 1.351 . S
C559 C560 1.434 1_565 S
C560 C551 1.429 . S
C560 N557 1.350 . S
C560 C559 1.434 1_545 S
C561 C562 1.369 . S
C561 C563 1.419 . S
C561 H565 0.930 . S
C562 C561 1.369 . S
C562 C571 1.429 . S
C563 C561 1.419 . S
C563 C564 1.363 . S
C563 H566 0.929 . S
C564 C563 1.363 . S
C564 C570 1.428 . S
H565 C561 0.930 . S
H566 C563 0.929 . S
S567 N568 1.613 . S
S567 N569 1.610 . S
N568 S567 1.613 . S
N568 C571 1.350 . S
N569 S567 1.610 . S
N569 C570 1.351 . S
C570 C564 1.428 . S
C570 N569 1.351 . S
C570 C571 1.434 . S
C571 C562 1.429 . S
C571 N568 1.350 . S
C571 C570 1.434 . S
C572 C573 1.369 . S
C572 C574 1.431 . S
C572 H576 0.930 . S
C573 C572 1.369 . S
C573 C582 1.429 . S
C574 C572 1.431 . S
C574 C575 1.357 1_455 S
C574 H577 0.922 1_455 S
C575 C574 1.357 1_655 S
C575 C581 1.428 . S
H576 C572 0.930 . S
H577 C574 0.922 1_655 S
S578 N579 1.613 1_655 S
S578 N580 1.610 . S
N579 S578 1.613 1_455 S
N579 C582 1.350 . S
N580 S578 1.610 . S
N580 C581 1.351 . S
C581 C575 1.428 . S
C581 N580 1.351 . S
C581 C582 1.434 1_655 S
C582 C573 1.429 . S
C582 N579 1.350 . S
C582 C581 1.434 1_455 S
C583 C584 1.369 . S
C583 C585 1.419 . S
C583 H587 0.930 . S
C584 C583 1.369 . S
C584 C593 1.429 . S
C585 C583 1.419 . S
C585 C586 1.363 1_545 S
C585 H588 0.929 . S
C586 C585 1.363 1_565 S
C586 C592 1.428 . S
H587 C583 0.930 . S
H588 C585 0.929 . S
S589 N590 1.613 1_565 S
S589 N591 1.610 . S
N590 S589 1.613 1_545 S
N590 C593 1.350 . S
N591 S589 1.610 . S
N591 C592 1.351 . S
C592 C586 1.428 . S
C592 N591 1.351 . S
C592 C593 1.434 1_565 S
C593 C584 1.429 . S
C593 N590 1.350 . S
C593 C592 1.434 1_545 S
C594 C595 1.369 . S
C594 C596 1.419 . S
C594 H598 0.930 . S
C595 C594 1.369 . S
C595 C604 1.429 . S
C596 C594 1.419 . S
C596 C597 1.363 . S
C596 H599 0.929 . S
C597 C596 1.363 . S
C597 C603 1.428 . S
H598 C594 0.930 . S
H599 C596 0.929 . S
S600 N601 1.613 . S
S600 N602 1.610 . S
N601 S600 1.613 . S
N601 C604 1.350 . S
N602 S600 1.610 . S
N602 C603 1.351 . S
C603 C597 1.428 . S
C603 N602 1.351 . S
C603 C604 1.434 . S
C604 C595 1.429 . S
C604 N601 1.350 . S
C604 C603 1.434 . S
C605 C606 1.369 . S
C605 C607 1.419 . S
C605 H609 0.930 . S
C606 C605 1.369 . S
C606 C615 1.429 . S
C607 C605 1.419 . S
C607 C608 1.363 . S
C607 H610 0.929 . S
C608 C607 1.363 . S
C608 C614 1.428 . S
H609 C605 0.930 . S
H610 C607 0.929 . S
S611 N612 1.613 . S
S611 N613 1.610 . S
N612 S611 1.613 . S
N612 C615 1.350 . S
N613 S611 1.610 . S
N613 C614 1.351 . S
C614 C608 1.428 . S
C614 N613 1.351 . S
C614 C615 1.434 . S
C615 C606 1.429 . S
C615 N612 1.350 . S
C615 C614 1.434 . S
C616 C617 1.369 . S
C616 C618 1.419 . S
C616 H620 0.930 . S
C617 C616 1.369 . S
C617 C626 1.429 . S
C618 C616 1.419 . S
C618 C619 1.363 . S
C618 H621 0.929 . S
C619 C618 1.363 . S
C619 C625 1.428 . S
H620 C616 0.930 . S
H621 C618 0.929 . S
S622 N623 1.613 . S
S622 N624 1.610 . S
N623 S622 1.613 . S
N623 C626 1.350 . S
N624 S622 1.610 . S
N624 C625 1.351 . S
C625 C619 1.428 . S
C625 N624 1.351 . S
C625 C626 1.434 . S
C626 C617 1.429 . S
C626 N623 1.350 . S
C626 C625 1.434 . S
C627 C628 1.369 . S
C627 C629 1.419 . S
C627 H631 0.930 . S
C628 C627 1.369 . S
C628 C637 1.429 . S
C629 C627 1.419 . S
C629 C630 1.363 . S
C629 H632 0.929 . S
C630 C629 1.363 . S
C630 C636 1.428 . S
H631 C627 0.930 . S
H632 C629 0.929 . S
S633 N634 1.613 . S
S633 N635 1.610 . S
N634 S633 1.613 . S
N634 C637 1.350 . S
N635 S633 1.610 . S
N635 C636 1.351 . S
C636 C630 1.428 . S
C636 N635 1.351 . S
C636 C637 1.434 . S
C637 C628 1.429 . S
C637 N634 1.350 . S
C637 C636 1.434 . S
C638 C639 1.369 . S
C638 C640 1.419 . S
C638 H642 0.930 . S
C639 C638 1.369 . S
C639 C648 1.429 . S
C640 C638 1.419 . S
C640 C641 1.363 . S
C640 H643 0.929 . S
C641 C640 1.363 . S
C641 C647 1.428 . S
H642 C638 0.930 . S
H643 C640 0.929 . S
S644 N645 1.613 . S
S644 N646 1.610 . S
N645 S644 1.613 . S
N645 C648 1.350 . S
N646 S644 1.610 . S
N646 C647 1.351 . S
C647 C641 1.428 . S
C647 N646 1.351 . S
C647 C648 1.434 . S
C648 C639 1.429 . S
C648 N645 1.350 . S
C648 C647 1.434 . S
C649 C650 1.369 . S
C649 C651 1.419 . S
C649 H653 0.930 . S
C650 C649 1.369 . S
C650 C659 1.429 . S
C651 C649 1.419 . S
C651 C652 1.363 . S
C651 H654 0.929 . S
C652 C651 1.363 . S
C652 C658 1.428 . S
H653 C649 0.930 . S
H654 C651 0.929 . S
S655 N656 1.613 . S
S655 N657 1.610 . S
N656 S655 1.613 . S
N656 C659 1.350 . S
N657 S655 1.610 . S
N657 C658 1.351 . S
C658 C652 1.428 . S
C658 N657 1.351 . S
C658 C659 1.434 . S
C659 C650 1.429 . S
C659 N656 1.350 . S
C659 C658 1.434 . S
C265 C15 1.613 . S
C267 C183 1.609 . S
C276 C213 1.612 . S
C278 C43 1.610 . S
C287 C235 1.613 . S
C289 C59 1.608 . S
C298 C81 1.607 . S
C300 C249 1.606 . S
C309 C153 1.608 . S
C311 C103 1.606 . S
C320 C169 1.612 . S
C322 C125 1.610 . S
C331 C18 1.114 . S
C333 C216 1.104 . S
C342 C32 1.105 . S
C344 C238 1.114 . S
C353 C250 1.115 . S
C355 C62 1.108 . S
C364 C142 1.114 . S
C366 C84 1.109 . S
C375 C106 1.105 . S
C377 C172 1.114 . S
C386 C128 1.113 . S
C388 C184 1.104 . S
C397 C140 1.431 . S
C399 C10 1.433 . S
C408 C164 1.433 . S
C410 C30 1.431 . S
C419 C194 1.430 . S
C421 C54 1.433 . S
C430 C76 1.433 . S
C432 C208 1.431 . S
C441 C98 1.430 . S
C443 C230 1.432 . S
C452 C120 1.431 . S
C454 C260 1.430 . S
C463 C8 1.639 . S
C465 C131 1.693 . S
C474 C40 1.644 . S
C476 C21 1.696 . S
C485 C52 1.633 . S
C487 C29 1.696 . S
C496 C65 1.692 . S
C498 C74 1.638 . S
C507 C96 1.634 . S
C509 C87 1.698 . S
C518 C118 1.643 . S
C520 C109 1.697 . S
C529 C175 1.696 . S
C531 C150 1.643 . S
C540 C191 1.695 . S
C542 C162 1.642 . S
C551 C219 1.699 . S
C553 C186 1.641 . S
C562 C206 1.633 . S
C564 C241 1.696 . S
C573 C228 1.639 . S
C575 C257 1.693 . S
C584 C252 1.637 . S
C586 C139 1.693 . S
C595 C227 0.874 . S
C597 C7 0.870 . S
C606 C263 0.876 . S
C608 C37 0.868 . S
C617 C147 0.878 . S
C619 C51 0.866 . S
C628 C161 0.873 . S
C630 C73 0.869 . S
C639 C95 0.878 . S
C641 C197 0.866 1_556 S
C650 C117 0.877 1_554 S
C652 C205 0.867 . S
