# Generated by pormake.
# Topology umr, (4)-cn, num edge types: 1
# Building blocks:
#     Node 0, Type 0, BuildingBlock: QUQFOY_clean_sbu_1, # of connection points: 4
#     Node 1, Type 0, BuildingBlock: QUQFOY_clean_sbu_1, # of connection points: 4
#     Node 2, Type 0, BuildingBlock: QUQFOY_clean_sbu_1, # of connection points: 4
#     Node 3, Type 0, BuildingBlock: QUQFOY_clean_sbu_1, # of connection points: 4
#     Node 4, Type 0, BuildingBlock: QUQFOY_clean_sbu_1, # of connection points: 4
#     Node 5, Type 0, BuildingBlock: QUQFOY_clean_sbu_1, # of connection points: 4
#     Node 6, Type 0, BuildingBlock: QUQFOY_clean_sbu_1, # of connection points: 4
#     Node 7, Type 0, BuildingBlock: QUQFOY_clean_sbu_1, # of connection points: 4
#     Node 8, Type 0, BuildingBlock: QUQFOY_clean_sbu_1, # of connection points: 4
#     Node 9, Type 0, BuildingBlock: QUQFOY_clean_sbu_1, # of connection points: 4
#     Node 10, Type 0, BuildingBlock: QUQFOY_clean_sbu_1, # of connection points: 4
#     Node 11, Type 0, BuildingBlock: QUQFOY_clean_sbu_1, # of connection points: 4
#     Node 12, Type 0, BuildingBlock: QUQFOY_clean_sbu_1, # of connection points: 4
#     Node 13, Type 0, BuildingBlock: QUQFOY_clean_sbu_1, # of connection points: 4
#     Node 14, Type 0, BuildingBlock: QUQFOY_clean_sbu_1, # of connection points: 4
#     Node 15, Type 0, BuildingBlock: QUQFOY_clean_sbu_1, # of connection points: 4
#     Node 16, Type 0, BuildingBlock: QUQFOY_clean_sbu_1, # of connection points: 4
#     Node 17, Type 0, BuildingBlock: QUQFOY_clean_sbu_1, # of connection points: 4
#     Node 18, Type 0, BuildingBlock: QUQFOY_clean_sbu_1, # of connection points: 4
#     Node 19, Type 0, BuildingBlock: QUQFOY_clean_sbu_1, # of connection points: 4
#     Node 20, Type 0, BuildingBlock: QUQFOY_clean_sbu_1, # of connection points: 4
#     Node 21, Type 0, BuildingBlock: QUQFOY_clean_sbu_1, # of connection points: 4
#     Node 22, Type 0, BuildingBlock: QUQFOY_clean_sbu_1, # of connection points: 4
#     Node 23, Type 0, BuildingBlock: QUQFOY_clean_sbu_1, # of connection points: 4
#     Node 24, Type 0, BuildingBlock: QUQFOY_clean_sbu_1, # of connection points: 4
#     Node 25, Type 0, BuildingBlock: QUQFOY_clean_sbu_1, # of connection points: 4
#     Node 26, Type 0, BuildingBlock: QUQFOY_clean_sbu_1, # of connection points: 4
#     Node 27, Type 0, BuildingBlock: QUQFOY_clean_sbu_1, # of connection points: 4
#     Node 28, Type 0, BuildingBlock: QUQFOY_clean_sbu_1, # of connection points: 4
#     Node 29, Type 0, BuildingBlock: QUQFOY_clean_sbu_1, # of connection points: 4
#     Node 30, Type 0, BuildingBlock: QUQFOY_clean_sbu_1, # of connection points: 4
#     Node 31, Type 0, BuildingBlock: QUQFOY_clean_sbu_1, # of connection points: 4
#     Edge 32, Type (0, 0), BuildingBlock: ZUJKAS_clean_linker_0, # of connection points: 2
#     Edge 33, Type (0, 0), BuildingBlock: ZUJKAS_clean_linker_0, # of connection points: 2
#     Edge 34, Type (0, 0), BuildingBlock: ZUJKAS_clean_linker_0, # of connection points: 2
#     Edge 35, Type (0, 0), BuildingBlock: ZUJKAS_clean_linker_0, # of connection points: 2
#     Edge 36, Type (0, 0), BuildingBlock: ZUJKAS_clean_linker_0, # of connection points: 2
#     Edge 37, Type (0, 0), BuildingBlock: ZUJKAS_clean_linker_0, # of connection points: 2
#     Edge 38, Type (0, 0), BuildingBlock: ZUJKAS_clean_linker_0, # of connection points: 2
#     Edge 39, Type (0, 0), BuildingBlock: ZUJKAS_clean_linker_0, # of connection points: 2
#     Edge 40, Type (0, 0), BuildingBlock: ZUJKAS_clean_linker_0, # of connection points: 2
#     Edge 41, Type (0, 0), BuildingBlock: ZUJKAS_clean_linker_0, # of connection points: 2
#     Edge 42, Type (0, 0), BuildingBlock: ZUJKAS_clean_linker_0, # of connection points: 2
#     Edge 43, Type (0, 0), BuildingBlock: ZUJKAS_clean_linker_0, # of connection points: 2
#     Edge 44, Type (0, 0), BuildingBlock: ZUJKAS_clean_linker_0, # of connection points: 2
#     Edge 45, Type (0, 0), BuildingBlock: ZUJKAS_clean_linker_0, # of connection points: 2
#     Edge 46, Type (0, 0), BuildingBlock: ZUJKAS_clean_linker_0, # of connection points: 2
#     Edge 47, Type (0, 0), BuildingBlock: ZUJKAS_clean_linker_0, # of connection points: 2
#     Edge 48, Type (0, 0), BuildingBlock: ZUJKAS_clean_linker_0, # of connection points: 2
#     Edge 49, Type (0, 0), BuildingBlock: ZUJKAS_clean_linker_0, # of connection points: 2
#     Edge 50, Type (0, 0), BuildingBlock: ZUJKAS_clean_linker_0, # of connection points: 2
#     Edge 51, Type (0, 0), BuildingBlock: ZUJKAS_clean_linker_0, # of connection points: 2
#     Edge 52, Type (0, 0), BuildingBlock: ZUJKAS_clean_linker_0, # of connection points: 2
#     Edge 53, Type (0, 0), BuildingBlock: ZUJKAS_clean_linker_0, # of connection points: 2
#     Edge 54, Type (0, 0), BuildingBlock: ZUJKAS_clean_linker_0, # of connection points: 2
#     Edge 55, Type (0, 0), BuildingBlock: ZUJKAS_clean_linker_0, # of connection points: 2
#     Edge 56, Type (0, 0), BuildingBlock: ZUJKAS_clean_linker_0, # of connection points: 2
#     Edge 57, Type (0, 0), BuildingBlock: ZUJKAS_clean_linker_0, # of connection points: 2
#     Edge 58, Type (0, 0), BuildingBlock: ZUJKAS_clean_linker_0, # of connection points: 2
#     Edge 59, Type (0, 0), BuildingBlock: ZUJKAS_clean_linker_0, # of connection points: 2
#     Edge 60, Type (0, 0), BuildingBlock: ZUJKAS_clean_linker_0, # of connection points: 2
#     Edge 61, Type (0, 0), BuildingBlock: ZUJKAS_clean_linker_0, # of connection points: 2
#     Edge 62, Type (0, 0), BuildingBlock: ZUJKAS_clean_linker_0, # of connection points: 2
#     Edge 63, Type (0, 0), BuildingBlock: ZUJKAS_clean_linker_0, # of connection points: 2
#     Edge 64, Type (0, 0), BuildingBlock: ZUJKAS_clean_linker_0, # of connection points: 2
#     Edge 65, Type (0, 0), BuildingBlock: ZUJKAS_clean_linker_0, # of connection points: 2
#     Edge 66, Type (0, 0), BuildingBlock: ZUJKAS_clean_linker_0, # of connection points: 2
#     Edge 67, Type (0, 0), BuildingBlock: ZUJKAS_clean_linker_0, # of connection points: 2
#     Edge 68, Type (0, 0), BuildingBlock: ZUJKAS_clean_linker_0, # of connection points: 2
#     Edge 69, Type (0, 0), BuildingBlock: ZUJKAS_clean_linker_0, # of connection points: 2
#     Edge 70, Type (0, 0), BuildingBlock: ZUJKAS_clean_linker_0, # of connection points: 2
#     Edge 71, Type (0, 0), BuildingBlock: ZUJKAS_clean_linker_0, # of connection points: 2
#     Edge 72, Type (0, 0), BuildingBlock: ZUJKAS_clean_linker_0, # of connection points: 2
#     Edge 73, Type (0, 0), BuildingBlock: ZUJKAS_clean_linker_0, # of connection points: 2
#     Edge 74, Type (0, 0), BuildingBlock: ZUJKAS_clean_linker_0, # of connection points: 2
#     Edge 75, Type (0, 0), BuildingBlock: ZUJKAS_clean_linker_0, # of connection points: 2
#     Edge 76, Type (0, 0), BuildingBlock: ZUJKAS_clean_linker_0, # of connection points: 2
#     Edge 77, Type (0, 0), BuildingBlock: ZUJKAS_clean_linker_0, # of connection points: 2
#     Edge 78, Type (0, 0), BuildingBlock: ZUJKAS_clean_linker_0, # of connection points: 2
#     Edge 79, Type (0, 0), BuildingBlock: ZUJKAS_clean_linker_0, # of connection points: 2
#     Edge 80, Type (0, 0), BuildingBlock: ZUJKAS_clean_linker_0, # of connection points: 2
#     Edge 81, Type (0, 0), BuildingBlock: ZUJKAS_clean_linker_0, # of connection points: 2
#     Edge 82, Type (0, 0), BuildingBlock: ZUJKAS_clean_linker_0, # of connection points: 2
#     Edge 83, Type (0, 0), BuildingBlock: ZUJKAS_clean_linker_0, # of connection points: 2
#     Edge 84, Type (0, 0), BuildingBlock: ZUJKAS_clean_linker_0, # of connection points: 2
#     Edge 85, Type (0, 0), BuildingBlock: ZUJKAS_clean_linker_0, # of connection points: 2
#     Edge 86, Type (0, 0), BuildingBlock: ZUJKAS_clean_linker_0, # of connection points: 2
#     Edge 87, Type (0, 0), BuildingBlock: ZUJKAS_clean_linker_0, # of connection points: 2
#     Edge 88, Type (0, 0), BuildingBlock: ZUJKAS_clean_linker_0, # of connection points: 2
#     Edge 89, Type (0, 0), BuildingBlock: ZUJKAS_clean_linker_0, # of connection points: 2
#     Edge 90, Type (0, 0), BuildingBlock: ZUJKAS_clean_linker_0, # of connection points: 2
#     Edge 91, Type (0, 0), BuildingBlock: ZUJKAS_clean_linker_0, # of connection points: 2
#     Edge 92, Type (0, 0), BuildingBlock: ZUJKAS_clean_linker_0, # of connection points: 2
#     Edge 93, Type (0, 0), BuildingBlock: ZUJKAS_clean_linker_0, # of connection points: 2
#     Edge 94, Type (0, 0), BuildingBlock: ZUJKAS_clean_linker_0, # of connection points: 2
#     Edge 95, Type (0, 0), BuildingBlock: ZUJKAS_clean_linker_0, # of connection points: 2
# Relax obj value: 0.052
# Max RMSD: 0.111
# Mean RMSD: 0.111
data_MOF--net-umr--node1-QUQFOY_clean_sbu_1--edge1-ZUJKAS_clean_linker_0
_symmetry_space_group_name_H-M    P1
_symmetry_Int_Tables_number       1
_symmetry_cell_setting            triclinic
loop_
_symmetry_equiv_pos_as_xyz
'x, y, z'
_cell_length_a     110.31047
_cell_length_b     110.32183
_cell_length_c     36.405154
_cell_angle_alpha  89.998763
_cell_angle_beta   90.004305
_cell_angle_gamma 89.998256
loop_
_atom_site_label
_atom_site_type_symbol
_atom_site_fract_x
_atom_site_fract_y
_atom_site_fract_z
_atom_type_partial_charge
O0 O 0.1654 0.28363 0.15859 0.0
Cd1 Cd 0.1686 0.29453 0.11343 0.0
Cd2 Cd 0.16729 0.27266 0.07949 0.0
O3 O 0.1608 0.26673 0.12957 0.0
O4 O 0.16508 0.31111 0.13211 0.0
O5 O 0.15413 0.30218 0.08899 0.0
C6 C 0.15584 0.31135 0.11046 0.0
C7 C 0.15779 0.26741 0.02455 0.0
C8 C 0.1616 0.27276 0.15921 0.0
C9 C 0.19111 0.28586 0.07636 0.0
O10 O 0.1856 0.27579 0.07324 0.0
O11 O 0.18566 0.29501 0.08967 0.0
O12 O 0.16382 0.25958 0.04349 0.0
O13 O 0.15657 0.27819 0.03794 0.0
O14 O 0.96382 0.91616 0.41065 0.0
Cd15 Cd 0.95303 0.91908 0.36507 0.0
Cd16 Cd 0.97476 0.91725 0.33124 0.0
O17 O 0.98047 0.91074 0.38157 0.0
O18 O 0.93637 0.91542 0.38278 0.0
O19 O 0.94577 0.90444 0.34059 0.0
C20 C 0.93641 0.90611 0.36136 0.0
C21 C 0.98052 0.90785 0.27657 0.0
C22 C 0.97457 0.912 0.4113 0.0
C23 C 0.96192 0.94126 0.32717 0.0
O24 O 0.97193 0.93561 0.32462 0.0
O25 O 0.95265 0.93599 0.3404 0.0
O26 O 0.98818 0.91376 0.29642 0.0
O27 O 0.9696 0.90665 0.28891 0.0
O28 O 0.33661 0.71675 0.65818 0.0
Cd29 Cd 0.33338 0.70563 0.61365 0.0
Cd30 Cd 0.33463 0.72753 0.57815 0.0
O31 O 0.3406 0.73373 0.62866 0.0
O32 O 0.33707 0.68915 0.63281 0.0
O33 O 0.34779 0.69795 0.58892 0.0
C34 C 0.3462 0.68885 0.61075 0.0
C35 C 0.34415 0.73342 0.52378 0.0
C36 C 0.34002 0.72776 0.65847 0.0
C37 C 0.31089 0.71386 0.57545 0.0
O38 O 0.31647 0.72381 0.57059 0.0
O39 O 0.31622 0.70497 0.59074 0.0
O40 O 0.33772 0.7409 0.54277 0.0
O41 O 0.34577 0.72264 0.53684 0.0
O42 O 0.53559 0.0841 0.90505 0.0
Cd43 Cd 0.54623 0.08176 0.85924 0.0
Cd44 Cd 0.52446 0.08451 0.82448 0.0
O45 O 0.51864 0.08918 0.87687 0.0
O46 O 0.56304 0.08554 0.87535 0.0
O47 O 0.55289 0.09678 0.83543 0.0
C48 C 0.56256 0.09505 0.85481 0.0
C49 C 0.51805 0.09522 0.77274 0.0
C50 C 0.52466 0.08772 0.90635 0.0
C51 C 0.53762 0.0605 0.81651 0.0
O52 O 0.52798 0.0666 0.81176 0.0
O53 O 0.54651 0.06499 0.83403 0.0
O54 O 0.51074 0.08844 0.79114 0.0
O55 O 0.52894 0.0966 0.78523 0.0
O56 O 0.16583 0.71369 0.34109 0.0
Cd57 Cd 0.16842 0.70312 0.3872 0.0
Cd58 Cd 0.16648 0.7248 0.42105 0.0
O59 O 0.1604 0.73038 0.36999 0.0
O60 O 0.16421 0.68634 0.37186 0.0
O61 O 0.15341 0.69686 0.41202 0.0
C62 C 0.15481 0.6871 0.3928 0.0
C63 C 0.1569 0.73113 0.47485 0.0
C64 C 0.16175 0.72446 0.34029 0.0
C65 C 0.19046 0.7118 0.4261 0.0
O66 O 0.18475 0.72174 0.4292 0.0
O67 O 0.18531 0.70263 0.41186 0.0
O68 O 0.16304 0.73853 0.45478 0.0
O69 O 0.15554 0.72015 0.46315 0.0
O70 O 0.53358 0.91257 0.59371 0.0
Cd71 Cd 0.54497 0.91643 0.63687 0.0
Cd72 Cd 0.52349 0.91425 0.67533 0.0
O73 O 0.51695 0.90841 0.62484 0.0
O74 O 0.5614 0.91291 0.61706 0.0
O75 O 0.55309 0.90244 0.66239 0.0
C76 C 0.56201 0.90398 0.63985 0.0
C77 C 0.5177 0.90467 0.72977 0.0
C78 C 0.52264 0.90899 0.5945 0.0
C79 C 0.53655 0.93854 0.67608 0.0
O80 O 0.52714 0.9324 0.68375 0.0
O81 O 0.54521 0.9338 0.65805 0.0
O82 O 0.51019 0.91111 0.71095 0.0
O83 O 0.52843 0.90302 0.71644 0.0
O84 O 0.33669 0.2852 0.84249 0.0
Cd85 Cd 0.33396 0.29557 0.8891 0.0
Cd86 Cd 0.33502 0.2736 0.92082 0.0
O87 O 0.3415 0.26812 0.87027 0.0
O88 O 0.33791 0.31242 0.8737 0.0
O89 O 0.3489 0.30209 0.91381 0.0
C90 C 0.34733 0.31182 0.8946 0.0
C91 C 0.3445 0.2681 0.97552 0.0
C92 C 0.34053 0.27434 0.84103 0.0
C93 C 0.31136 0.28684 0.9254 0.0
O94 O 0.31669 0.27664 0.92705 0.0
O95 O 0.31699 0.2961 0.91353 0.0
O96 O 0.33856 0.26033 0.95613 0.0
O97 O 0.34567 0.27896 0.96266 0.0
O98 O 0.96541 0.08713 0.09236 0.0
Cd99 Cd 0.95457 0.08392 0.13766 0.0
Cd100 Cd 0.97663 0.08463 0.17128 0.0
O101 O 0.9824 0.09143 0.12138 0.0
O102 O 0.93797 0.08777 0.11975 0.0
O103 O 0.94721 0.09833 0.16319 0.0
C104 C 0.93791 0.09684 0.14206 0.0
C105 C 0.98299 0.09322 0.22657 0.0
C106 C 0.97633 0.09081 0.09177 0.0
C107 C 0.96297 0.06103 0.17302 0.0
O108 O 0.97315 0.06633 0.17612 0.0
O109 O 0.95386 0.06674 0.16046 0.0
O110 O 0.99032 0.08722 0.20586 0.0
O111 O 0.97208 0.09499 0.21482 0.0
O112 O 0.83378 0.7139 0.84637 0.0
Cd113 Cd 0.83207 0.70382 0.89394 0.0
Cd114 Cd 0.83328 0.72594 0.92397 0.0
O115 O 0.8388 0.73125 0.87217 0.0
O116 O 0.83619 0.68694 0.87912 0.0
O117 O 0.84752 0.69783 0.91696 0.0
C118 C 0.8459 0.68792 0.89866 0.0
C119 C 0.84359 0.73165 0.97705 0.0
C120 C 0.83739 0.7248 0.84355 0.0
C121 C 0.80993 0.71238 0.93294 0.0
O122 O 0.81512 0.72267 0.93321 0.0
O123 O 0.81552 0.70314 0.92078 0.0
O124 O 0.8373 0.73933 0.95839 0.0
O125 O 0.84466 0.72077 0.96423 0.0
O126 O 0.03689 0.0851 0.59724 0.0
Cd127 Cd 0.0471 0.0828 0.64418 0.0
Cd128 Cd 0.02505 0.08453 0.67573 0.0
O129 O 0.01962 0.08997 0.62385 0.0
O130 O 0.06403 0.08646 0.62885 0.0
O131 O 0.05374 0.09785 0.66801 0.0
C132 C 0.0635 0.09603 0.64915 0.0
C133 C 0.01929 0.09497 0.72858 0.0
C134 C 0.02597 0.0887 0.59495 0.0
C135 C 0.03821 0.06077 0.68312 0.0
O136 O 0.02817 0.06637 0.68545 0.0
O137 O 0.04742 0.06599 0.66932 0.0
O138 O 0.01161 0.08867 0.7099 0.0
O139 O 0.03019 0.09596 0.71593 0.0
O140 O 0.66413 0.28745 0.34325 0.0
Cd141 Cd 0.66642 0.29737 0.39091 0.0
Cd142 Cd 0.66549 0.27507 0.42028 0.0
O143 O 0.659 0.27016 0.36919 0.0
O144 O 0.66233 0.3143 0.37674 0.0
O145 O 0.65126 0.30347 0.4154 0.0
C146 C 0.6528 0.31338 0.39704 0.0
C147 C 0.65646 0.26832 0.47442 0.0
C148 C 0.66023 0.27664 0.34057 0.0
C149 C 0.68903 0.28849 0.42635 0.0
O150 O 0.68381 0.27822 0.42648 0.0
O151 O 0.68328 0.29786 0.41589 0.0
O152 O 0.66239 0.26106 0.45326 0.0
O153 O 0.65499 0.27939 0.46364 0.0
O154 O 0.46521 0.91429 0.09659 0.0
Cd155 Cd 0.4547 0.91733 0.14271 0.0
Cd156 Cd 0.47647 0.9159 0.17531 0.0
O157 O 0.48212 0.9093 0.12499 0.0
O158 O 0.43782 0.91385 0.12648 0.0
O159 O 0.4476 0.90261 0.16719 0.0
C160 C 0.43802 0.90444 0.14751 0.0
C161 C 0.48099 0.90614 0.2304 0.0
C162 C 0.47602 0.91031 0.09552 0.0
C163 C 0.46373 0.93981 0.17921 0.0
O164 O 0.47382 0.9343 0.18146 0.0
O165 O 0.45444 0.93433 0.16686 0.0
O166 O 0.48919 0.91182 0.21196 0.0
O167 O 0.47025 0.90538 0.21636 0.0
O168 O 0.83468 0.28508 0.65839 0.0
Cd169 Cd 0.83207 0.29565 0.61218 0.0
Cd170 Cd 0.83345 0.27391 0.5794 0.0
O171 O 0.83979 0.26821 0.62996 0.0
O172 O 0.83591 0.31246 0.62826 0.0
O173 O 0.84703 0.30234 0.58799 0.0
C174 C 0.84536 0.312 0.60747 0.0
C175 C 0.84321 0.26888 0.52472 0.0
C176 C 0.83862 0.27425 0.65948 0.0
C177 C 0.8097 0.28698 0.57457 0.0
O178 O 0.81513 0.27684 0.57249 0.0
O179 O 0.8152 0.29619 0.58729 0.0
O180 O 0.8373 0.26091 0.54344 0.0
O181 O 0.84421 0.27967 0.53827 0.0
O182 O 0.46457 0.08646 0.40792 0.0
Cd183 Cd 0.45425 0.08327 0.36149 0.0
Cd184 Cd 0.47621 0.08468 0.3296 0.0
O185 O 0.48144 0.09172 0.37973 0.0
O186 O 0.43731 0.0869 0.37667 0.0
O187 O 0.4474 0.09794 0.33614 0.0
C188 C 0.4377 0.09623 0.35537 0.0
C189 C 0.48196 0.09353 0.27413 0.0
C190 C 0.47529 0.09068 0.40909 0.0
C191 C 0.46351 0.06071 0.32629 0.0
O192 O 0.4736 0.06624 0.32472 0.0
O193 O 0.4541 0.06621 0.33765 0.0
O194 O 0.48967 0.088 0.29479 0.0
O195 O 0.471 0.09473 0.28616 0.0
O196 O 0.66276 0.71411 0.1596 0.0
Cd197 Cd 0.66627 0.70324 0.1146 0.0
Cd198 Cd 0.66566 0.72526 0.0809 0.0
O199 O 0.65859 0.7311 0.13041 0.0
O200 O 0.66243 0.68668 0.13287 0.0
O201 O 0.65198 0.69571 0.08882 0.0
C202 C 0.6534 0.68651 0.11039 0.0
C203 C 0.65729 0.73138 0.02503 0.0
C204 C 0.65907 0.72502 0.16003 0.0
C205 C 0.68934 0.71172 0.08062 0.0
O206 O 0.68401 0.72186 0.07714 0.0
O207 O 0.6836 0.70257 0.09281 0.0
O208 O 0.66315 0.73882 0.04577 0.0
O209 O 0.65555 0.7205 0.03704 0.0
O210 O 0.03453 0.91394 0.90803 0.0
Cd211 Cd 0.04528 0.91684 0.86256 0.0
Cd212 Cd 0.02322 0.91567 0.82908 0.0
O213 O 0.01726 0.90996 0.88012 0.0
O214 O 0.06189 0.9131 0.88063 0.0
O215 O 0.05267 0.90233 0.83762 0.0
C216 C 0.06196 0.90391 0.85874 0.0
C217 C 0.01726 0.9059 0.77524 0.0
C218 C 0.02349 0.91067 0.90941 0.0
C219 C 0.03689 0.93935 0.82503 0.0
O220 O 0.02687 0.93382 0.82096 0.0
O221 O 0.04589 0.93398 0.83953 0.0
O222 O 0.00977 0.91232 0.79421 0.0
O223 O 0.02809 0.90442 0.78805 0.0
O224 O 0.66507 0.78554 0.65504 0.0
Cd225 Cd 0.66756 0.79615 0.60901 0.0
Cd226 Cd 0.66593 0.77412 0.57607 0.0
O227 O 0.66061 0.76829 0.62767 0.0
O228 O 0.66385 0.81284 0.62639 0.0
O229 O 0.65281 0.80327 0.58473 0.0
C230 C 0.6545 0.81271 0.60513 0.0
C231 C 0.65565 0.76825 0.52301 0.0
C232 C 0.66168 0.77454 0.65683 0.0
C233 C 0.68963 0.78761 0.56954 0.0
O234 O 0.68402 0.77761 0.5663 0.0
O235 O 0.68445 0.79667 0.58433 0.0
O236 O 0.66215 0.7607 0.5415 0.0
O237 O 0.65436 0.77908 0.53598 0.0
O238 O 0.46465 0.41578 0.91042 0.0
Cd239 Cd 0.45429 0.41812 0.86362 0.0
Cd240 Cd 0.47617 0.4168 0.83175 0.0
O241 O 0.48162 0.41061 0.88266 0.0
O242 O 0.43745 0.41395 0.87867 0.0
O243 O 0.44813 0.40296 0.83939 0.0
C244 C 0.4383 0.40444 0.85822 0.0
C245 C 0.48182 0.40694 0.77782 0.0
C246 C 0.47548 0.41185 0.91194 0.0
C247 C 0.46294 0.44044 0.82574 0.0
O248 O 0.47312 0.43508 0.82431 0.0
O249 O 0.45369 0.43491 0.83814 0.0
O250 O 0.48954 0.41303 0.79697 0.0
O251 O 0.47092 0.40587 0.79046 0.0
O252 O 0.836 0.2163 0.15939 0.0
Cd253 Cd 0.83277 0.20525 0.11474 0.0
Cd254 Cd 0.83402 0.22707 0.07939 0.0
O255 O 0.84003 0.23326 0.12989 0.0
O256 O 0.83655 0.18875 0.1335 0.0
O257 O 0.8472 0.19773 0.08975 0.0
C258 C 0.84568 0.18856 0.1114 0.0
C259 C 0.84369 0.23271 0.02507 0.0
C260 C 0.83944 0.22729 0.15969 0.0
C261 C 0.81026 0.21348 0.07665 0.0
O262 O 0.81584 0.22343 0.07174 0.0
O263 O 0.8156 0.2046 0.09194 0.0
O264 O 0.83734 0.24032 0.04381 0.0
O265 O 0.84515 0.22194 0.03832 0.0
O266 O 0.03681 0.5837 0.41096 0.0
Cd267 Cd 0.04675 0.58184 0.36315 0.0
Cd268 Cd 0.02437 0.5826 0.33387 0.0
O269 O 0.01925 0.58826 0.38565 0.0
O270 O 0.06364 0.586 0.37756 0.0
O271 O 0.05272 0.5972 0.33951 0.0
C272 C 0.06266 0.59562 0.3577 0.0
C273 C 0.01796 0.5925 0.28081 0.0
C274 C 0.02585 0.58713 0.41406 0.0
C275 C 0.03827 0.55942 0.32541 0.0
O276 O 0.02792 0.56447 0.32524 0.0
O277 O 0.04749 0.56517 0.33704 0.0
O278 O 0.0106 0.5861 0.30032 0.0
O279 O 0.02891 0.59391 0.29274 0.0
O280 O 0.66536 0.21309 0.84325 0.0
Cd281 Cd 0.66763 0.20292 0.89029 0.0
Cd282 Cd 0.66598 0.22515 0.92185 0.0
O283 O 0.66033 0.2303 0.86995 0.0
O284 O 0.66382 0.186 0.87527 0.0
O285 O 0.65253 0.19646 0.91428 0.0
C286 C 0.65427 0.18665 0.89558 0.0
C287 C 0.65625 0.2322 0.97452 0.0
C288 C 0.66163 0.22397 0.84103 0.0
C289 C 0.68967 0.21173 0.92928 0.0
O290 O 0.68414 0.22181 0.93127 0.0
O291 O 0.6844 0.20253 0.91565 0.0
O292 O 0.66261 0.23929 0.95404 0.0
O293 O 0.65475 0.22113 0.96381 0.0
O294 O 0.03747 0.4138 0.09103 0.0
Cd295 Cd 0.04778 0.41673 0.13757 0.0
Cd296 Cd 0.02529 0.41608 0.16837 0.0
O297 O 0.02004 0.40957 0.11762 0.0
O298 O 0.06453 0.41295 0.1209 0.0
O299 O 0.05492 0.40219 0.16309 0.0
C300 C 0.06439 0.40376 0.14276 0.0
C301 C 0.01818 0.40736 0.22263 0.0
C302 C 0.02652 0.41027 0.08886 0.0
C303 C 0.03907 0.43961 0.17215 0.0
O304 O 0.02884 0.43434 0.17402 0.0
O305 O 0.04832 0.43387 0.16068 0.0
O306 O 0.01116 0.4135 0.20131 0.0
O307 O 0.02922 0.40555 0.21206 0.0
O308 O 0.83658 0.78548 0.34037 0.0
Cd309 Cd 0.83279 0.79634 0.38506 0.0
Cd310 Cd 0.83416 0.77431 0.42002 0.0
O311 O 0.84081 0.76855 0.36982 0.0
O312 O 0.83643 0.81299 0.3672 0.0
O313 O 0.84684 0.80403 0.41153 0.0
C314 C 0.84533 0.81326 0.39015 0.0
C315 C 0.84286 0.76771 0.47494 0.0
C316 C 0.8403 0.77458 0.34011 0.0
C317 C 0.81015 0.78757 0.42103 0.0
O318 O 0.81587 0.7777 0.42588 0.0
O319 O 0.81545 0.79664 0.40663 0.0
O320 O 0.83681 0.76048 0.45406 0.0
O321 O 0.84464 0.77866 0.46352 0.0
O322 O 0.4645 0.58604 0.5902 0.0
Cd323 Cd 0.45383 0.58292 0.63591 0.0
Cd324 Cd 0.47565 0.58421 0.66905 0.0
O325 O 0.48147 0.59067 0.6188 0.0
O326 O 0.43713 0.58679 0.61885 0.0
O327 O 0.44667 0.59741 0.66155 0.0
C328 C 0.43724 0.59592 0.64095 0.0
C329 C 0.48081 0.59387 0.7238 0.0
C330 C 0.47539 0.5898 0.58928 0.0
C331 C 0.4626 0.56033 0.67213 0.0
O332 O 0.47265 0.56586 0.67521 0.0
O333 O 0.45339 0.5658 0.65921 0.0
O334 O 0.48871 0.5879 0.70496 0.0
O335 O 0.47 0.59491 0.71046 0.0
O336 O 0.33618 0.21519 0.34185 0.0
Cd337 Cd 0.33313 0.20462 0.3877 0.0
Cd338 Cd 0.3348 0.22649 0.42142 0.0
O339 O 0.34088 0.23216 0.37046 0.0
O340 O 0.3368 0.18777 0.37165 0.0
O341 O 0.34783 0.19766 0.41265 0.0
C342 C 0.34613 0.18806 0.39298 0.0
C343 C 0.34459 0.23228 0.47541 0.0
C344 C 0.33995 0.22607 0.34093 0.0
C345 C 0.31087 0.21343 0.42578 0.0
O346 O 0.31656 0.22337 0.42941 0.0
O347 O 0.31609 0.20431 0.41144 0.0
O348 O 0.33841 0.23991 0.45618 0.0
O349 O 0.34584 0.22141 0.46273 0.0
O350 O 0.53304 0.58588 0.08993 0.0
Cd351 Cd 0.54379 0.58263 0.13538 0.0
Cd352 Cd 0.52194 0.58395 0.1689 0.0
O353 O 0.51608 0.59044 0.11872 0.0
O354 O 0.56048 0.58622 0.11768 0.0
O355 O 0.5513 0.59699 0.16076 0.0
C356 C 0.56062 0.59534 0.13981 0.0
C357 C 0.51675 0.59357 0.22369 0.0
C358 C 0.52215 0.58964 0.08916 0.0
C359 C 0.53497 0.56004 0.17166 0.0
O360 O 0.52493 0.5656 0.17498 0.0
O361 O 0.54416 0.56548 0.15854 0.0
O362 O 0.50887 0.5876 0.20482 0.0
O363 O 0.52757 0.59463 0.21038 0.0
O364 O 0.16449 0.78505 0.84448 0.0
Cd365 Cd 0.16702 0.79553 0.89089 0.0
Cd366 Cd 0.16608 0.77327 0.92215 0.0
O367 O 0.16007 0.76769 0.87116 0.0
O368 O 0.16341 0.8122 0.87314 0.0
O369 O 0.15223 0.80278 0.91473 0.0
C370 C 0.15399 0.81215 0.89405 0.0
C371 C 0.1564 0.76737 0.97615 0.0
C372 C 0.16101 0.77409 0.8423 0.0
C373 C 0.18958 0.78692 0.92772 0.0
O374 O 0.1843 0.7767 0.92942 0.0
O375 O 0.18395 0.79613 0.91547 0.0
O376 O 0.16264 0.75981 0.95687 0.0
O377 O 0.15507 0.77825 0.96359 0.0
O378 O 0.96272 0.41549 0.59255 0.0
Cd379 Cd 0.95283 0.41758 0.64038 0.0
Cd380 Cd 0.97521 0.41663 0.66968 0.0
O381 O 0.98018 0.41069 0.61804 0.0
O382 O 0.93588 0.41365 0.62606 0.0
O383 O 0.94662 0.40236 0.66433 0.0
C384 C 0.93671 0.40406 0.64613 0.0
C385 C 0.98198 0.40707 0.72293 0.0
C386 C 0.97362 0.41188 0.58957 0.0
C387 C 0.96161 0.44002 0.67731 0.0
O388 O 0.9719 0.43485 0.67754 0.0
O389 O 0.95231 0.43433 0.66603 0.0
O390 O 0.98922 0.41326 0.70239 0.0
O391 O 0.97092 0.40567 0.712 0.0
O392 O 0.33599 0.78641 0.15707 0.0
Cd393 Cd 0.33295 0.79682 0.11075 0.0
Cd394 Cd 0.33416 0.77493 0.07868 0.0
O395 O 0.34087 0.76941 0.12897 0.0
O396 O 0.3366 0.8137 0.1265 0.0
O397 O 0.34768 0.80373 0.08582 0.0
C398 C 0.34596 0.81337 0.10532 0.0
C399 C 0.34361 0.76989 0.02351 0.0
C400 C 0.33992 0.77558 0.15831 0.0
C401 C 0.31031 0.78784 0.07523 0.0
O402 O 0.31577 0.77772 0.07313 0.0
O403 O 0.31588 0.79714 0.08704 0.0
O404 O 0.33788 0.76191 0.04267 0.0
O405 O 0.3446 0.78071 0.03683 0.0
O406 O 0.96383 0.58496 0.91464 0.0
Cd407 Cd 0.95359 0.58242 0.8677 0.0
Cd408 Cd 0.97574 0.58343 0.83636 0.0
O409 O 0.98091 0.58996 0.88716 0.0
O410 O 0.93674 0.58661 0.88249 0.0
O411 O 0.9474 0.59748 0.84289 0.0
C412 C 0.93757 0.59604 0.86173 0.0
C413 C 0.98255 0.59237 0.78212 0.0
C414 C 0.97466 0.58888 0.9163 0.0
C415 C 0.96224 0.55987 0.83123 0.0
O416 O 0.97247 0.56514 0.83006 0.0
O417 O 0.95297 0.56553 0.84291 0.0
O418 O 0.98975 0.58635 0.80322 0.0
O419 O 0.97151 0.59397 0.79298 0.0
O420 O 0.16507 0.21489 0.65808 0.0
Cd421 Cd 0.16805 0.20426 0.61232 0.0
Cd422 Cd 0.16622 0.22598 0.57842 0.0
O423 O 0.16016 0.23176 0.62928 0.0
O424 O 0.16439 0.18743 0.62858 0.0
O425 O 0.15331 0.19729 0.58764 0.0
C426 C 0.15503 0.18771 0.6074 0.0
C427 C 0.15631 0.2313 0.52423 0.0
C428 C 0.16121 0.22574 0.6589 0.0
C429 C 0.19023 0.21311 0.57396 0.0
O430 O 0.18449 0.22302 0.5704 0.0
O431 O 0.18506 0.20396 0.58831 0.0
O432 O 0.16237 0.23914 0.54303 0.0
O433 O 0.15523 0.22049 0.53749 0.0
O434 O 0.5339 0.41558 0.41047 0.0
Cd435 Cd 0.54427 0.418 0.36373 0.0
Cd436 Cd 0.52238 0.41647 0.33184 0.0
O437 O 0.51699 0.4102 0.38271 0.0
O438 O 0.56113 0.41408 0.37913 0.0
O439 O 0.55069 0.40289 0.33979 0.0
C440 C 0.56046 0.40453 0.35879 0.0
C441 C 0.51681 0.40664 0.27778 0.0
C442 C 0.52312 0.41154 0.41199 0.0
C443 C 0.5354 0.44022 0.32586 0.0
O444 O 0.52525 0.43478 0.32455 0.0
O445 O 0.54471 0.43476 0.33813 0.0
O446 O 0.50904 0.41263 0.29706 0.0
O447 O 0.52772 0.40564 0.2904 0.0
H448 H 0.29802 0.30756 0.93621 0.0
H449 H 0.27741 0.30912 0.96102 0.0
H450 H 0.2755 0.2702 0.9696 0.0
H451 H 0.29602 0.26851 0.94497 0.0
H452 H 0.25459 0.28262 0.9351 0.0
H453 H 0.26795 0.30151 0.07113 0.0
H454 H 0.27405 0.30866 0.03069 0.0
H455 H 0.27853 0.29349 0.04206 0.0
C456 C 0.2932 0.29933 0.94323 0.0
C457 C 0.2987 0.28791 0.9387 0.0
C458 C 0.28146 0.30025 0.95758 0.0
C459 C 0.27502 0.28978 0.96747 0.0
C460 C 0.28036 0.27838 0.96226 0.0
H461 H 0.20594 0.26768 0.05239 0.0
H462 H 0.22615 0.2695 0.02585 0.0
C463 C 0.2921 0.27745 0.94819 0.0
C464 C 0.26266 0.29059 0.98317 0.0
H465 H 0.24714 0.29814 0.06104 0.0
C466 C 0.25293 0.28607 0.96255 0.0
C467 C 0.26056 0.29517 0.01886 0.0
C468 C 0.27079 0.29994 0.04224 0.0
C469 C 0.24111 0.28591 0.97683 0.0
C470 C 0.23906 0.29007 0.01309 0.0
C471 C 0.24875 0.2949 0.03334 0.0
C472 C 0.227 0.28903 0.03088 0.0
C473 C 0.23094 0.28133 0.95282 0.0
C474 C 0.22096 0.29935 0.04406 0.0
C475 C 0.20941 0.29833 0.05972 0.0
C476 C 0.20371 0.28695 0.06253 0.0
C477 C 0.20998 0.2766 0.05034 0.0
C478 C 0.22152 0.27763 0.0349 0.0
H479 H 0.23326 0.28207 0.9232 0.0
H480 H 0.22928 0.27162 0.95898 0.0
H481 H 0.22242 0.28643 0.95793 0.0
H482 H 0.22508 0.30823 0.04154 0.0
H483 H 0.20484 0.30649 0.06888 0.0
H484 H 0.94148 0.95517 0.31814 0.0
H485 H 0.94009 0.97527 0.28973 0.0
H486 H 0.9789 0.97585 0.27571 0.0
H487 H 0.98037 0.95576 0.3033 0.0
H488 H 0.95025 0.99728 0.30863 0.0
H489 H 0.96697 0.98264 0.17225 0.0
H490 H 0.96235 0.972 0.20722 0.0
H491 H 0.9772 0.97875 0.20868 0.0
C492 C 0.94972 0.9596 0.30912 0.0
C493 C 0.96103 0.9538 0.3127 0.0
C494 C 0.9489 0.97107 0.29284 0.0
C495 C 0.95936 0.97693 0.27981 0.0
C496 C 0.97068 0.97135 0.28461 0.0
H497 H 0.98104 0.04549 0.19339 0.0
H498 H 0.979 0.02499 0.21797 0.0
C499 C 0.9715 0.95989 0.30066 0.0
C500 C 0.95853 0.98891 0.26146 0.0
H501 H 0.96658 0.00403 0.18327 0.0
C502 C 0.95367 0.99874 0.28105 0.0
C503 C 0.96292 0.99077 0.22535 0.0
C504 C 0.96754 0.98046 0.202 0.0
C505 C 0.95359 0.01048 0.26608 0.0
C506 C 0.9584 0.01239 0.23056 0.0
C507 C 0.96295 0.00252 0.21058 0.0
C508 C 0.95944 0.02467 0.21448 0.0
C509 C 0.94878 0.02086 0.28879 0.0
C510 C 0.9491 0.03118 0.20376 0.0
C511 C 0.95022 0.04291 0.18944 0.0
C512 C 0.96171 0.04832 0.18577 0.0
C513 C 0.97205 0.04164 0.19595 0.0
C514 C 0.97091 0.02991 0.20999 0.0
H515 H 0.94698 0.01815 0.31767 0.0
H516 H 0.95531 0.02852 0.28873 0.0
H517 H 0.94017 0.02417 0.27658 0.0
H518 H 0.94017 0.02721 0.20666 0.0
H519 H 0.94208 0.0478 0.18188 0.0
H520 H 0.20311 0.72894 0.46429 0.0
H521 H 0.22353 0.72738 0.48959 0.0
H522 H 0.22676 0.69114 0.44648 0.0
H523 H 0.20623 0.69258 0.42092 0.0
H524 H 0.23228 0.70884 0.54095 0.0
H525 H 0.25736 0.71013 0.40819 0.0
H526 H 0.24191 0.71538 0.41243 0.0
H527 H 0.2451 0.69944 0.41209 0.0
C528 C 0.20815 0.72064 0.45995 0.0
C529 C 0.20302 0.71089 0.44042 0.0
C530 C 0.21981 0.71976 0.47457 0.0
C531 C 0.22666 0.70918 0.46973 0.0
C532 C 0.22164 0.69943 0.45021 0.0
H533 H 0.29541 0.69451 0.58377 0.0
H534 H 0.27485 0.69239 0.5589 0.0
C535 C 0.20991 0.70026 0.43569 0.0
C536 C 0.23901 0.70844 0.48547 0.0
H537 H 0.269 0.70857 0.46223 0.0
C538 C 0.24033 0.70867 0.52382 0.0
C539 C 0.24944 0.70831 0.46293 0.0
C540 C 0.24848 0.70838 0.4216 0.0
C541 C 0.25184 0.70891 0.54026 0.0
C542 C 0.26227 0.70889 0.51772 0.0
C543 C 0.26096 0.70851 0.47938 0.0
C544 C 0.27461 0.71008 0.5333 0.0
C545 C 0.2528 0.7096 0.58154 0.0
C546 C 0.28127 0.72069 0.52695 0.0
C547 C 0.29295 0.72196 0.54116 0.0
C548 C 0.29828 0.71258 0.5618 0.0
C549 C 0.29157 0.70193 0.56812 0.0
C550 C 0.27982 0.7007 0.554 0.0
H551 H 0.24389 0.71137 0.59472 0.0
H552 H 0.25637 0.70089 0.59225 0.0
H553 H 0.25923 0.71687 0.58972 0.0
H554 H 0.27739 0.72803 0.511 0.0
H555 H 0.29785 0.73027 0.53559 0.0
H556 H 0.55102 0.04126 0.84121 0.0
H557 H 0.55165 0.02074 0.81558 0.0
H558 H 0.52732 0.0318 0.72893 0.0
H559 H 0.52611 0.05204 0.75574 0.0
H560 H 0.52022 0.01156 0.75312 0.0
H561 H 0.5696 0.00725 0.73118 0.0
H562 H 0.56621 0.01029 0.77842 0.0
H563 H 0.56263 0.02143 0.74384 0.0
C564 C 0.54587 0.03929 0.81659 0.0
C565 C 0.5385 0.04822 0.80051 0.0
C566 C 0.54632 0.0276 0.80171 0.0
C567 C 0.53973 0.02473 0.76978 0.0
C568 C 0.5325 0.03374 0.75352 0.0
H569 H 0.54989 0.95718 0.64695 0.0
H570 H 0.55057 0.97828 0.66819 0.0
C571 C 0.53181 0.04531 0.76888 0.0
C572 C 0.53975 0.01222 0.75438 0.0
H573 H 0.5581 0.98885 0.72789 0.0
C574 C 0.52853 0.00666 0.74729 0.0
C575 C 0.55055 0.00584 0.74607 0.0
C576 C 0.56292 0.01157 0.74989 0.0
C577 C 0.52779 0.99492 0.73272 0.0
C578 C 0.53858 0.98825 0.72667 0.0
C579 C 0.54982 0.99387 0.73305 0.0
C580 C 0.53837 0.97543 0.71402 0.0
C581 C 0.51543 0.98996 0.7232 0.0
C582 C 0.5315 0.96675 0.73305 0.0
C583 C 0.53088 0.95481 0.72046 0.0
C584 C 0.53743 0.95119 0.68923 0.0
C585 C 0.54472 0.95974 0.67102 0.0
C586 C 0.54512 0.97178 0.68318 0.0
H587 H 0.5089 0.99737 0.71719 0.0
H588 H 0.51581 0.98385 0.69899 0.0
H589 H 0.51184 0.98479 0.74697 0.0
H590 H 0.52659 0.96919 0.7577 0.0
H591 H 0.52537 0.94838 0.73551 0.0
H592 H 0.70484 0.72989 0.06089 0.0
H593 H 0.72559 0.72802 0.03828 0.0
H594 H 0.72376 0.68921 0.05081 0.0
H595 H 0.7029 0.69096 0.07358 0.0
H596 H 0.74635 0.71626 0.07494 0.0
H597 H 0.73383 0.69546 0.94073 0.0
H598 H 0.72302 0.70368 0.96846 0.0
H599 H 0.72765 0.68872 0.98169 0.0
C600 C 0.70883 0.72094 0.059 0.0
C601 C 0.70217 0.71056 0.06893 0.0
C602 C 0.7207 0.7199 0.0461 0.0
C603 C 0.72613 0.70848 0.04252 0.0
C604 C 0.71965 0.6981 0.053 0.0
H605 H 0.79674 0.69159 0.94402 0.0
H606 H 0.77665 0.68979 0.97226 0.0
C607 C 0.70776 0.69913 0.06617 0.0
C608 C 0.73858 0.70756 0.02757 0.0
H609 H 0.75454 0.69921 0.95127 0.0
C610 C 0.74817 0.71247 0.04801 0.0
C611 C 0.7409 0.70253 0.99254 0.0
C612 C 0.73084 0.69734 0.96931 0.0
C613 C 0.76004 0.71262 0.03416 0.0
C614 C 0.76231 0.70802 0.9985 0.0
C615 C 0.75277 0.70278 0.97851 0.0
C616 C 0.7744 0.70906 0.98091 0.0
C617 C 0.77005 0.71766 0.05794 0.0
C618 C 0.77967 0.7205 0.97561 0.0
C619 C 0.79112 0.72156 0.95964 0.0
C620 C 0.79752 0.7112 0.9482 0.0
C621 C 0.79208 0.69975 0.95258 0.0
C622 C 0.7806 0.6987 0.96874 0.0
H623 H 0.76764 0.71723 0.08755 0.0
H624 H 0.77868 0.71267 0.05364 0.0
H625 H 0.77155 0.72732 0.05079 0.0
H626 H 0.7749 0.72865 0.98386 0.0
H627 H 0.79498 0.73053 0.95642 0.0
H628 H 0.05619 0.95486 0.83333 0.0
H629 H 0.05805 0.97562 0.80983 0.0
H630 H 0.02226 0.97314 0.76293 0.0
H631 H 0.02027 0.95248 0.78619 0.0
H632 H 0.04155 0.98217 0.71428 0.0
H633 H 0.03877 0.00602 0.84887 0.0
H634 H 0.04936 0.99367 0.8452 0.0
H635 H 0.0334 0.99069 0.84265 0.0
C636 C 0.04869 0.95875 0.81815 0.0
C637 C 0.03806 0.95201 0.81177 0.0
C638 C 0.04977 0.97061 0.80483 0.0
C639 C 0.04026 0.9759 0.78486 0.0
C640 C 0.02969 0.9692 0.77834 0.0
H641 H 0.02108 0.04799 0.72102 0.0
H642 H 0.02263 0.0274 0.74523 0.0
C643 C 0.02856 0.9574 0.79178 0.0
C644 C 0.04128 0.98838 0.7703 0.0
H645 H 0.04119 0.01814 0.79607 0.0
C646 C 0.04158 0.99005 0.7321 0.0
C647 C 0.04122 0.9986 0.79373 0.0
C648 C 0.0406 0.99725 0.83492 0.0
C649 C 0.0417 0.00171 0.71663 0.0
C650 C 0.04156 0.01192 0.74004 0.0
C651 C 0.04138 0.01026 0.77826 0.0
C652 C 0.04085 0.02441 0.72533 0.0
C653 C 0.04158 0.00305 0.67539 0.0
C654 C 0.05063 0.02955 0.70627 0.0
C655 C 0.0498 0.04136 0.6924 0.0
C656 C 0.03915 0.0482 0.69732 0.0
C657 C 0.02939 0.04298 0.71654 0.0
C658 C 0.03026 0.03123 0.73054 0.0
H659 H 0.03979 0.9943 0.66127 0.0
H660 H 0.03458 0.00971 0.66685 0.0
H661 H 0.05052 0.0065 0.66607 0.0
H662 H 0.05892 0.02446 0.70229 0.0
H663 H 0.0575 0.04512 0.67784 0.0
H664 H 0.70444 0.27003 0.44421 0.0
H665 H 0.72503 0.27154 0.46837 0.0
H666 H 0.72303 0.31052 0.4629 0.0
H667 H 0.70234 0.30913 0.43864 0.0
H668 H 0.74574 0.28391 0.43458 0.0
H669 H 0.733 0.30241 0.5716 0.0
H670 H 0.72223 0.29474 0.5423 0.0
H671 H 0.72691 0.30992 0.5318 0.0
C672 C 0.70835 0.27894 0.44805 0.0
C673 C 0.7017 0.28947 0.43958 0.0
C674 C 0.72013 0.27978 0.46184 0.0
C675 C 0.72548 0.29113 0.46778 0.0
C676 C 0.71898 0.30167 0.45893 0.0
H677 H 0.796 0.30761 0.56684 0.0
H678 H 0.77572 0.30935 0.53988 0.0
C679 C 0.70719 0.30085 0.44489 0.0
C680 C 0.7379 0.29183 0.48308 0.0
H681 H 0.75378 0.29921 0.56043 0.0
C682 C 0.74753 0.28731 0.46202 0.0
C683 C 0.74017 0.29633 0.51878 0.0
C684 C 0.73006 0.30108 0.54269 0.0
C685 C 0.7594 0.28708 0.47583 0.0
C686 C 0.76163 0.2912 0.51204 0.0
C687 C 0.75204 0.29601 0.53276 0.0
C688 C 0.77378 0.29015 0.52929 0.0
C689 C 0.76946 0.2825 0.45138 0.0
C690 C 0.77927 0.27875 0.53314 0.0
C691 C 0.79084 0.27772 0.54837 0.0
C692 C 0.79713 0.28808 0.5605 0.0
C693 C 0.79143 0.29946 0.55771 0.0
C694 C 0.77985 0.30048 0.54229 0.0
H695 H 0.767 0.28324 0.42186 0.0
H696 H 0.778 0.28759 0.45612 0.0
H697 H 0.77115 0.27279 0.45748 0.0
H698 H 0.77462 0.27062 0.5242 0.0
H699 H 0.79489 0.2688 0.55038 0.0
H700 H 0.48215 0.9548 0.20055 0.0
H701 H 0.48059 0.97541 0.22471 0.0
H702 H 0.44175 0.97424 0.21211 0.0
H703 H 0.44319 0.95356 0.1878 0.0
H704 H 0.46917 0.99645 0.18888 0.0
H705 H 0.44803 0.98384 0.32244 0.0
H706 H 0.45611 0.97301 0.2944 0.0
H707 H 0.44119 0.97785 0.28138 0.0
C708 C 0.47326 0.95891 0.2028 0.0
C709 C 0.46278 0.9525 0.19232 0.0
C710 C 0.4724 0.97069 0.21661 0.0
C711 C 0.46106 0.97626 0.22056 0.0
C712 C 0.45058 0.97001 0.20968 0.0
H713 H 0.44308 0.04689 0.31599 0.0
H714 H 0.44188 0.0265 0.28949 0.0
C715 C 0.45143 0.95823 0.19562 0.0
C716 C 0.46029 0.98867 0.23591 0.0
H717 H 0.45156 0.00461 0.31186 0.0
C718 C 0.46529 0.99826 0.2157 0.0
C719 C 0.45514 0.99097 0.27078 0.0
C720 C 0.44986 0.9809 0.29378 0.0
C721 C 0.46533 0.01014 0.22953 0.0
C722 C 0.46053 0.0124 0.26495 0.0
C723 C 0.45528 0.00284 0.28481 0.0
C724 C 0.46125 0.02456 0.28224 0.0
C725 C 0.47042 0.02016 0.20588 0.0
C726 C 0.47255 0.03009 0.2879 0.0
C727 C 0.47327 0.04172 0.30287 0.0
C728 C 0.4627 0.04803 0.31293 0.0
C729 C 0.4514 0.0423 0.30849 0.0
C730 C 0.45069 0.03066 0.2933 0.0
H731 H 0.47024 0.01768 0.17629 0.0
H732 H 0.46527 0.02872 0.20965 0.0
H733 H 0.48 0.02182 0.21369 0.0
H734 H 0.48084 0.02542 0.28051 0.0
H735 H 0.48213 0.0458 0.30622 0.0
H736 H 0.7023 0.77081 0.53001 0.0
H737 H 0.72266 0.77267 0.50445 0.0
H738 H 0.72569 0.80869 0.54942 0.0
H739 H 0.70523 0.80694 0.57526 0.0
H740 H 0.73131 0.79159 0.45402 0.0
H741 H 0.75636 0.7896 0.58674 0.0
H742 H 0.74094 0.78431 0.58217 0.0
H743 H 0.74406 0.80026 0.58346 0.0
C744 C 0.70728 0.77913 0.53468 0.0
C745 C 0.70213 0.78871 0.55486 0.0
C746 C 0.71891 0.78018 0.5199 0.0
C747 C 0.72568 0.79078 0.52522 0.0
C748 C 0.72062 0.80039 0.54532 0.0
H749 H 0.79447 0.80677 0.41319 0.0
H750 H 0.7738 0.8085 0.43747 0.0
C751 C 0.70893 0.79938 0.55999 0.0
C752 C 0.73802 0.79168 0.50953 0.0
H753 H 0.768 0.79161 0.53285 0.0
C754 C 0.73935 0.79171 0.47118 0.0
C755 C 0.74845 0.79174 0.5321 0.0
C756 C 0.74748 0.7914 0.57343 0.0
C757 C 0.75087 0.79166 0.45476 0.0
C758 C 0.76129 0.7916 0.47734 0.0
C759 C 0.75996 0.79172 0.51568 0.0
C760 C 0.77364 0.79061 0.46177 0.0
C761 C 0.75185 0.79124 0.41345 0.0
C762 C 0.78037 0.78 0.46751 0.0
C763 C 0.79211 0.77896 0.45363 0.0
C764 C 0.79744 0.78857 0.43395 0.0
C765 C 0.79064 0.79919 0.42811 0.0
C766 C 0.77883 0.8002 0.44189 0.0
H767 H 0.74295 0.78954 0.40012 0.0
H768 H 0.7554 0.80004 0.40331 0.0
H769 H 0.7583 0.78405 0.40487 0.0
H770 H 0.77651 0.77251 0.48281 0.0
H771 H 0.79707 0.77066 0.4588 0.0
H772 H 0.48122 0.4555 0.80397 0.0
H773 H 0.4795 0.47574 0.77747 0.0
H774 H 0.44057 0.47393 0.78709 0.0
H775 H 0.44222 0.45372 0.81444 0.0
H776 H 0.46803 0.48219 0.71394 0.0
H777 H 0.44787 0.50678 0.83232 0.0
H778 H 0.45452 0.49191 0.83681 0.0
H779 H 0.43956 0.49361 0.81792 0.0
C780 C 0.47228 0.45943 0.80083 0.0
C781 C 0.46185 0.45299 0.81147 0.0
C782 C 0.47132 0.471 0.78559 0.0
C783 C 0.45992 0.47641 0.78063 0.0
C784 C 0.44948 0.47005 0.79135 0.0
H785 H 0.44201 0.54665 0.68103 0.0
H786 H 0.44056 0.52595 0.70525 0.0
C787 C 0.45043 0.45847 0.80684 0.0
C788 C 0.45907 0.4885 0.76291 0.0
H789 H 0.44998 0.51776 0.77685 0.0
C790 C 0.46406 0.48996 0.7277 0.0
C791 C 0.45383 0.49862 0.78081 0.0
C792 C 0.44873 0.49773 0.81917 0.0
C793 C 0.46409 0.50127 0.71007 0.0
C794 C 0.45907 0.51141 0.72824 0.0
C795 C 0.45379 0.50993 0.76302 0.0
C796 C 0.45989 0.52376 0.71251 0.0
C797 C 0.46951 0.50231 0.67215 0.0
C798 C 0.47123 0.52936 0.70876 0.0
C799 C 0.4721 0.54116 0.69514 0.0
C800 C 0.46162 0.54761 0.68494 0.0
C801 C 0.45025 0.54192 0.68844 0.0
C802 C 0.4494 0.53012 0.70236 0.0
H803 H 0.47025 0.49333 0.65849 0.0
H804 H 0.46399 0.50841 0.65457 0.0
H805 H 0.47875 0.50621 0.67433 0.0
H806 H 0.47942 0.52465 0.71691 0.0
H807 H 0.48099 0.54525 0.69291 0.0
H808 H 0.7053 0.19242 0.92439 0.0
H809 H 0.72572 0.19079 0.95064 0.0
H810 H 0.72262 0.227 0.99404 0.0
H811 H 0.7023 0.22876 0.96802 0.0
H812 H 0.7463 0.20693 0.93725 0.0
H813 H 0.73238 0.2054 0.08377 0.0
H814 H 0.72208 0.20206 0.04654 0.0
H815 H 0.72574 0.2175 0.05753 0.0
C816 C 0.70896 0.20004 0.93953 0.0
C817 C 0.70215 0.21071 0.94414 0.0
C818 C 0.72062 0.19908 0.95449 0.0
C819 C 0.72558 0.20871 0.97469 0.0
C820 C 0.71886 0.2194 0.97904 0.0
H821 H 0.79737 0.22964 0.03537 0.0
H822 H 0.77694 0.22729 0.01066 0.0
C823 C 0.70728 0.22041 0.96391 0.0
C824 C 0.7379 0.20779 0.99056 0.0
H825 H 0.75337 0.20877 0.0718 0.0
C826 C 0.74786 0.20721 0.96666 0.0
C827 C 0.73988 0.20803 0.02894 0.0
C828 C 0.72947 0.20817 0.0558 0.0
C829 C 0.75978 0.20735 0.98015 0.0
C830 C 0.76176 0.20816 0.01846 0.0
C831 C 0.7518 0.20824 0.04243 0.0
C832 C 0.77409 0.20949 0.03398 0.0
C833 C 0.7702 0.20676 0.95335 0.0
C834 C 0.77914 0.20035 0.05598 0.0
C835 C 0.79087 0.20165 0.0702 0.0
C836 C 0.79766 0.21218 0.06297 0.0
C837 C 0.79242 0.22141 0.0415 0.0
C838 C 0.78076 0.22006 0.02714 0.0
H839 H 0.76727 0.2033 0.9261 0.0
H840 H 0.77397 0.21599 0.94948 0.0
H841 H 0.77755 0.20085 0.96403 0.0
H842 H 0.77407 0.19216 0.06175 0.0
H843 H 0.79461 0.19439 0.08669 0.0
H844 H 0.02078 0.45508 0.19094 0.0
H845 H 0.0225 0.47572 0.21446 0.0
H846 H 0.06142 0.47371 0.20602 0.0
H847 H 0.05983 0.45295 0.18236 0.0
H848 H 0.05192 0.48234 0.27598 0.0
H849 H 0.03228 0.5067 0.15662 0.0
H850 H 0.0234 0.49409 0.17248 0.0
H851 H 0.03819 0.49146 0.15335 0.0
C852 C 0.02972 0.45902 0.19377 0.0
C853 C 0.04017 0.45235 0.18465 0.0
C854 C 0.03067 0.47085 0.20709 0.0
C855 C 0.04207 0.47627 0.21158 0.0
C856 C 0.05254 0.46969 0.20252 0.0
H857 H 0.05921 0.54654 0.31343 0.0
H858 H 0.06115 0.5264 0.28573 0.0
C859 C 0.0516 0.45785 0.18892 0.0
C860 C 0.04296 0.48865 0.22708 0.0
H861 H 0.03404 0.51786 0.21235 0.0
C862 C 0.04816 0.49016 0.26196 0.0
C863 C 0.03803 0.49879 0.20866 0.0
C864 C 0.03275 0.49775 0.17056 0.0
C865 C 0.04807 0.50148 0.27967 0.0
C866 C 0.04286 0.51157 0.2616 0.0
C867 C 0.03799 0.5101 0.22624 0.0
C868 C 0.04184 0.52363 0.27938 0.0
C869 C 0.05308 0.50242 0.31813 0.0
C870 C 0.03036 0.52884 0.28451 0.0
C871 C 0.02922 0.54036 0.3 0.0
C872 C 0.03955 0.54695 0.31067 0.0
C873 C 0.05106 0.54168 0.30578 0.0
C874 C 0.05219 0.53014 0.29009 0.0
H875 H 0.0541 0.49338 0.33121 0.0
H876 H 0.06216 0.50673 0.3171 0.0
H877 H 0.04714 0.5081 0.3357 0.0
H878 H 0.02225 0.52398 0.27639 0.0
H879 H 0.02022 0.54412 0.30333 0.0
H880 H 0.29516 0.19422 0.41918 0.0
H881 H 0.27457 0.1926 0.44414 0.0
H882 H 0.27757 0.22862 0.48903 0.0
H883 H 0.29807 0.23037 0.46433 0.0
H884 H 0.26886 0.20968 0.53933 0.0
H885 H 0.24393 0.21173 0.40642 0.0
H886 H 0.25626 0.2011 0.40973 0.0
H887 H 0.25933 0.21706 0.41119 0.0
C888 C 0.29142 0.20182 0.4342 0.0
C889 C 0.29826 0.21244 0.43963 0.0
C890 C 0.27965 0.20088 0.44836 0.0
C891 C 0.27456 0.21052 0.46823 0.0
C892 C 0.28135 0.2211 0.47373 0.0
H893 H 0.20292 0.23012 0.53535 0.0
H894 H 0.22342 0.22848 0.51056 0.0
C895 C 0.29306 0.22208 0.45946 0.0
C896 C 0.26219 0.20963 0.48377 0.0
H897 H 0.23223 0.2096 0.4602 0.0
C898 C 0.26083 0.20956 0.5221 0.0
C899 C 0.25179 0.20957 0.46111 0.0
C900 C 0.2528 0.20994 0.4198 0.0
C901 C 0.2493 0.20954 0.53843 0.0
C902 C 0.2389 0.20956 0.51577 0.0
C903 C 0.24026 0.20951 0.47743 0.0
C904 C 0.22653 0.21038 0.53132 0.0
C905 C 0.24829 0.2099 0.57974 0.0
C906 C 0.22149 0.20071 0.55117 0.0
C907 C 0.20973 0.20159 0.56539 0.0
C908 C 0.20283 0.21218 0.56002 0.0
C909 C 0.20797 0.22185 0.54018 0.0
C910 C 0.21968 0.22093 0.52585 0.0
H911 H 0.25715 0.21174 0.59312 0.0
H912 H 0.24172 0.21698 0.58837 0.0
H913 H 0.24488 0.20104 0.58978 0.0
H914 H 0.22662 0.19245 0.55537 0.0
H915 H 0.20603 0.19397 0.58041 0.0
H916 H 0.556 0.45363 0.31404 0.0
H917 H 0.55744 0.47384 0.2866 0.0
H918 H 0.51848 0.47541 0.27797 0.0
H919 H 0.51696 0.45517 0.30456 0.0
H920 H 0.5297 0.48191 0.21416 0.0
H921 H 0.5501 0.50665 0.33186 0.0
H922 H 0.55845 0.49353 0.3173 0.0
H923 H 0.54356 0.49174 0.33658 0.0
C924 C 0.54773 0.45832 0.30664 0.0
C925 C 0.53636 0.45277 0.31156 0.0
C926 C 0.54857 0.4699 0.2911 0.0
C927 C 0.53806 0.4762 0.28063 0.0
C928 C 0.52671 0.47073 0.28589 0.0
H929 H 0.51661 0.54499 0.19294 0.0
H930 H 0.51823 0.5244 0.21705 0.0
C931 C 0.52586 0.45915 0.30118 0.0
C932 C 0.53879 0.48829 0.26285 0.0
H933 H 0.54783 0.51758 0.27634 0.0
C934 C 0.53368 0.4897 0.22776 0.0
C935 C 0.54404 0.49844 0.28054 0.0
C936 C 0.54926 0.49759 0.31877 0.0
C937 C 0.53357 0.501 0.21006 0.0
C938 C 0.53862 0.51116 0.22801 0.0
C939 C 0.544 0.50973 0.26266 0.0
C940 C 0.53775 0.52349 0.21216 0.0
C941 C 0.52803 0.50199 0.17228 0.0
C942 C 0.54822 0.52983 0.20169 0.0
C943 C 0.54733 0.54162 0.1877 0.0
C944 C 0.53596 0.54732 0.18446 0.0
C945 C 0.52551 0.54088 0.19498 0.0
C946 C 0.5264 0.52909 0.20865 0.0
H947 H 0.52724 0.493 0.15874 0.0
H948 H 0.5188 0.50591 0.17467 0.0
H949 H 0.5335 0.50807 0.15449 0.0
H950 H 0.55706 0.52566 0.20439 0.0
H951 H 0.55556 0.54634 0.18006 0.0
H952 H 0.29667 0.8084 0.06549 0.0
H953 H 0.27586 0.80976 0.04215 0.0
H954 H 0.27439 0.77084 0.03283 0.0
H955 H 0.29511 0.76936 0.05599 0.0
H956 H 0.26717 0.80002 0.97174 0.0
H957 H 0.24348 0.78039 0.09244 0.0
H958 H 0.25862 0.78659 0.09514 0.0
H959 H 0.25621 0.77175 0.07619 0.0
C960 C 0.29189 0.80013 0.05876 0.0
C961 C 0.29755 0.78877 0.06271 0.0
C962 C 0.28002 0.80093 0.04535 0.0
C963 C 0.27357 0.7904 0.03615 0.0
C964 C 0.27916 0.77906 0.04027 0.0
H965 H 0.20479 0.76875 0.94933 0.0
H966 H 0.22518 0.77059 0.97466 0.0
C967 C 0.29103 0.77825 0.05339 0.0
C968 C 0.26113 0.79116 0.0211 0.0
H969 H 0.23199 0.78235 0.03756 0.0
C970 C 0.25943 0.79629 0.98621 0.0
C971 C 0.25109 0.78626 0.04011 0.0
C972 C 0.25237 0.78102 0.07819 0.0
C973 C 0.248 0.7962 0.96912 0.0
C974 C 0.23799 0.79107 0.98784 0.0
C975 C 0.23967 0.78623 0.02317 0.0
C976 C 0.22579 0.79015 0.97088 0.0
C977 C 0.24686 0.80114 0.93062 0.0
C978 C 0.21935 0.80055 0.96022 0.0
C979 C 0.20768 0.79953 0.94541 0.0
C980 C 0.20219 0.78808 0.94141 0.0
C981 C 0.20872 0.7777 0.95201 0.0
C982 C 0.22038 0.77873 0.96658 0.0
H983 H 0.25582 0.80197 0.91692 0.0
H984 H 0.24094 0.79526 0.91356 0.0
H985 H 0.24272 0.8103 0.93176 0.0
H986 H 0.22325 0.80947 0.96398 0.0
H987 H 0.20287 0.80771 0.93781 0.0
H988 H 0.97989 0.45532 0.6976 0.0
H989 H 0.97814 0.47574 0.72296 0.0
H990 H 0.93922 0.47371 0.7145 0.0
H991 H 0.94084 0.4532 0.68905 0.0
H992 H 0.96613 0.49658 0.68951 0.0
H993 H 0.94626 0.48313 0.82411 0.0
H994 H 0.95414 0.4725 0.7949 0.0
H995 H 0.93909 0.47731 0.78337 0.0
C996 C 0.97094 0.45919 0.70105 0.0
C997 C 0.9605 0.45259 0.69137 0.0
C998 C 0.96997 0.47087 0.71554 0.0
C999 C 0.95855 0.47616 0.72098 0.0
C1000 C 0.9481 0.4697 0.71096 0.0
H1001 H 0.94151 0.54645 0.82122 0.0
H1002 H 0.93982 0.52625 0.79356 0.0
C1003 C 0.94906 0.45802 0.69624 0.0
C1004 C 0.95772 0.48849 0.73685 0.0
H1005 H 0.9496 0.50397 0.81429 0.0
C1006 C 0.96246 0.49822 0.71671 0.0
C1007 C 0.95285 0.49058 0.77222 0.0
C1008 C 0.94785 0.48035 0.79518 0.0
C1009 C 0.96259 0.51001 0.73115 0.0
C1010 C 0.95813 0.51205 0.76708 0.0
C1011 C 0.95306 0.50237 0.78683 0.0
C1012 C 0.95911 0.52408 0.78507 0.0
C1013 C 0.96747 0.52019 0.70768 0.0
C1014 C 0.97053 0.52939 0.79038 0.0
C1015 C 0.97153 0.5409 0.80603 0.0
C1016 C 0.96113 0.54731 0.81709 0.0
C1017 C 0.94971 0.54178 0.81294 0.0
C1018 C 0.94872 0.53025 0.79711 0.0
H1019 H 0.96704 0.5179 0.67798 0.0
H1020 H 0.96235 0.52872 0.71237 0.0
H1021 H 0.97711 0.52181 0.71483 0.0
H1022 H 0.9787 0.52466 0.78218 0.0
H1023 H 0.98048 0.54481 0.8091 0.0
H1024 H 0.15767 0.24515 0.99225 0.0
H1025 H 0.15412 0.24048 0.92768 0.0
H1026 H 0.14494 0.27785 0.90699 0.0
H1027 H 0.14864 0.28268 0.97184 0.0
H1028 H 0.13418 0.24358 0.87931 0.0
H1029 H 0.17416 0.27145 0.83897 0.0
H1030 H 0.17125 0.26728 0.88606 0.0
H1031 H 0.16243 0.27897 0.86457 0.0
C1032 C 0.15472 0.25237 0.97416 0.0
C1033 C 0.15357 0.26432 0.9871 0.0
C1034 C 0.15267 0.24967 0.93724 0.0
C1035 C 0.14948 0.25886 0.91244 0.0
C1036 C 0.1476 0.27067 0.9256 0.0
H1037 H 0.1542 0.24921 0.67261 0.0
H1038 H 0.14938 0.25832 0.73231 0.0
C1039 C 0.14963 0.2734 0.96269 0.0
C1040 C 0.14904 0.25604 0.87264 0.0
H1041 H 0.16482 0.25998 0.79282 0.0
C1042 C 0.14076 0.2473 0.86024 0.0
C1043 C 0.15762 0.26092 0.84781 0.0
C1044 C 0.16694 0.27012 0.85987 0.0
C1045 C 0.1411 0.243 0.82395 0.0
C1046 C 0.15009 0.24741 0.7997 0.0
C1047 C 0.15796 0.25661 0.81153 0.0
C1048 C 0.15225 0.24183 0.76323 0.0
C1049 C 0.13196 0.23361 0.8121 0.0
C1050 C 0.15558 0.22958 0.76092 0.0
C1051 C 0.15839 0.22437 0.72703 0.0
C1052 C 0.15797 0.23132 0.69465 0.0
C1053 C 0.15458 0.2436 0.697 0.0
C1054 C 0.15181 0.24882 0.73104 0.0
H1055 H 0.12359 0.23408 0.82904 0.0
H1056 H 0.12946 0.23475 0.78275 0.0
H1057 H 0.13593 0.22444 0.81568 0.0
H1058 H 0.15627 0.22409 0.78551 0.0
H1059 H 0.16099 0.21491 0.72633 0.0
H1060 H 0.99979 0.90467 0.92464 0.0
H1061 H 0.9906 0.90174 0.98544 0.0
H1062 H 0.02535 0.90768 0.03647 0.0
H1063 H 0.03459 0.91066 0.97635 0.0
H1064 H 0.99747 0.88499 0.04714 0.0
H1065 H 0.00189 0.93392 0.08003 0.0
H1066 H 0.00262 0.92818 0.03362 0.0
H1067 H 0.01557 0.92701 0.06337 0.0
C1068 C 0.00549 0.90527 0.9488 0.0
C1069 C 0.01791 0.90804 0.94561 0.0
C1070 C 0.00022 0.90356 0.98346 0.0
C1071 C 0.00729 0.90464 0.01534 0.0
C1072 C 0.01973 0.90696 0.01215 0.0
H1073 H 0.00319 0.90694 0.24737 0.0
H1074 H 0.0086 0.90443 0.18287 0.0
C1075 C 0.02499 0.90866 0.9777 0.0
C1076 C 0.00171 0.90396 0.05225 0.0
H1077 H 0.99751 0.92072 0.12992 0.0
C1078 C 0.99731 0.89281 0.06519 0.0
C1079 C 0.00145 0.91422 0.0755 0.0
C1080 C 0.00553 0.92655 0.06241 0.0
C1081 C 0.9932 0.89153 0.10161 0.0
C1082 C 0.99347 0.90169 0.12525 0.0
C1083 C 0.99744 0.91292 0.11177 0.0
C1084 C 0.99027 0.90092 0.16467 0.0
C1085 C 0.98907 0.8793 0.11508 0.0
C1086 C 0.9782 0.89941 0.17595 0.0
C1087 C 0.97505 0.90083 0.21302 0.0
C1088 C 0.98395 0.90388 0.23915 0.0
C1089 C 0.99611 0.90466 0.22794 0.0
C1090 C 0.99923 0.90322 0.19107 0.0
H1091 H 0.99092 0.872 0.0948 0.0
H1092 H 0.99366 0.87701 0.14135 0.0
H1093 H 0.97917 0.87957 0.12044 0.0
H1094 H 0.97113 0.89778 0.15589 0.0
H1095 H 0.96559 0.90023 0.22078 0.0
H1096 H 0.34354 0.75581 0.4924 0.0
H1097 H 0.34699 0.76089 0.42807 0.0
H1098 H 0.35759 0.72398 0.40606 0.0
H1099 H 0.35399 0.71873 0.47067 0.0
H1100 H 0.36709 0.75871 0.3796 0.0
H1101 H 0.32813 0.72959 0.33822 0.0
H1102 H 0.33088 0.7337 0.38546 0.0
H1103 H 0.3401 0.72238 0.36365 0.0
C1104 C 0.34678 0.74879 0.47408 0.0
C1105 C 0.34835 0.73683 0.48657 0.0
C1106 C 0.34878 0.75172 0.43729 0.0
C1107 C 0.35233 0.74277 0.41219 0.0
C1108 C 0.35465 0.73097 0.42492 0.0
H1109 H 0.34753 0.75234 0.17259 0.0
H1110 H 0.35252 0.74349 0.23247 0.0
C1111 C 0.35267 0.72802 0.46187 0.0
C1112 C 0.35269 0.74574 0.37248 0.0
H1113 H 0.33716 0.74142 0.29237 0.0
C1114 C 0.36066 0.75481 0.36037 0.0
C1115 C 0.3443 0.74063 0.34745 0.0
C1116 C 0.33529 0.73109 0.35919 0.0
C1117 C 0.36023 0.75917 0.32415 0.0
C1118 C 0.35145 0.75448 0.29965 0.0
C1119 C 0.34387 0.74501 0.31124 0.0
C1120 C 0.34923 0.75997 0.26307 0.0
C1121 C 0.36908 0.76887 0.31259 0.0
C1122 C 0.34561 0.77213 0.26047 0.0
C1123 C 0.34272 0.7772 0.22644 0.0
C1124 C 0.34331 0.77019 0.19421 0.0
C1125 C 0.347 0.75801 0.19684 0.0
C1126 C 0.34987 0.75293 0.23101 0.0
H1127 H 0.37743 0.76864 0.32965 0.0
H1128 H 0.37166 0.76786 0.28326 0.0
H1129 H 0.36481 0.7779 0.31626 0.0
H1130 H 0.34475 0.77765 0.28494 0.0
H1131 H 0.33988 0.78659 0.22552 0.0
H1132 H 0.49546 0.09502 0.74263 0.0
H1133 H 0.4901 0.09876 0.67867 0.0
H1134 H 0.52687 0.10967 0.65582 0.0
H1135 H 0.5324 0.10575 0.72002 0.0
H1136 H 0.49185 0.11866 0.62986 0.0
H1137 H 0.52155 0.08015 0.58851 0.0
H1138 H 0.51756 0.08297 0.6358 0.0
H1139 H 0.52867 0.09229 0.61338 0.0
C1140 C 0.50238 0.09843 0.72424 0.0
C1141 C 0.5144 0.09993 0.73631 0.0
C1142 C 0.49929 0.10058 0.68765 0.0
C1143 C 0.50814 0.10425 0.66235 0.0
C1144 C 0.51996 0.10662 0.67481 0.0
H1145 H 0.49834 0.09887 0.42309 0.0
H1146 H 0.50711 0.10421 0.48278 0.0
C1147 C 0.52308 0.10447 0.71155 0.0
C1148 C 0.50508 0.10451 0.62269 0.0
H1149 H 0.50954 0.08895 0.54272 0.0
C1150 C 0.49583 0.11229 0.61064 0.0
C1151 C 0.51029 0.09618 0.59768 0.0
C1152 C 0.52001 0.08734 0.60935 0.0
C1153 C 0.4914 0.11171 0.57451 0.0
C1154 C 0.49622 0.10299 0.55005 0.0
C1155 C 0.50586 0.09562 0.56157 0.0
C1156 C 0.49073 0.10061 0.51355 0.0
C1157 C 0.48149 0.12034 0.56301 0.0
C1158 C 0.47865 0.09671 0.51112 0.0
C1159 C 0.47362 0.09362 0.47718 0.0
C1160 C 0.4806 0.09429 0.4449 0.0
C1161 C 0.4927 0.09827 0.44738 0.0
C1162 C 0.49773 0.10134 0.48144 0.0
H1163 H 0.48156 0.1287 0.58 0.0
H1164 H 0.48241 0.12291 0.53365 0.0
H1165 H 0.47257 0.11587 0.56682 0.0
H1166 H 0.47316 0.09579 0.53564 0.0
H1167 H 0.4643 0.09056 0.47636 0.0
H1168 H 0.15457 0.75064 0.82566 0.0
H1169 H 0.15139 0.7419 0.76439 0.0
H1170 H 0.15805 0.77683 0.71534 0.0
H1171 H 0.16131 0.78561 0.77598 0.0
H1172 H 0.13482 0.74898 0.70439 0.0
H1173 H 0.18351 0.75361 0.66875 0.0
H1174 H 0.17805 0.75436 0.71545 0.0
H1175 H 0.17671 0.7673 0.68571 0.0
C1176 C 0.15529 0.75647 0.80183 0.0
C1177 C 0.15833 0.7688 0.80573 0.0
C1178 C 0.15344 0.75146 0.7669 0.0
C1179 C 0.15465 0.7587 0.73542 0.0
C1180 C 0.15725 0.77107 0.73932 0.0
H1181 H 0.15617 0.75402 0.50253 0.0
H1182 H 0.15379 0.75988 0.56672 0.0
C1183 C 0.15911 0.77607 0.77406 0.0
C1184 C 0.15373 0.75335 0.69823 0.0
H1185 H 0.17002 0.74929 0.61957 0.0
C1186 C 0.14252 0.74891 0.68587 0.0
C1187 C 0.16383 0.75319 0.67435 0.0
C1188 C 0.17624 0.75726 0.68676 0.0
C1189 C 0.14103 0.74482 0.64951 0.0
C1190 C 0.15104 0.74513 0.6253 0.0
C1191 C 0.16233 0.74919 0.63814 0.0
C1192 C 0.15011 0.74171 0.58607 0.0
C1193 C 0.12873 0.74061 0.63678 0.0
C1194 C 0.14843 0.72959 0.57552 0.0
C1195 C 0.14976 0.72619 0.53864 0.0
C1196 C 0.1529 0.73487 0.51196 0.0
C1197 C 0.15381 0.7471 0.52241 0.0
C1198 C 0.15246 0.75047 0.5591 0.0
H1199 H 0.12152 0.74271 0.6571 0.0
H1200 H 0.12637 0.74491 0.61014 0.0
H1201 H 0.12894 0.73065 0.63247 0.0
H1202 H 0.14677 0.72267 0.59602 0.0
H1203 H 0.14906 0.71669 0.53147 0.0
H1204 H 0.46505 0.91023 0.02826 0.0
H1205 H 0.47399 0.90516 0.969 0.0
H1206 H 0.50815 0.89752 0.02172 0.0
H1207 H 0.49929 0.90271 0.08147 0.0
H1208 H 0.51018 0.91266 0.9609 0.0
H1209 H 0.48295 0.87217 0.92597 0.0
H1210 H 0.47371 0.88485 0.93896 0.0
H1211 H 0.48382 0.87816 0.97207 0.0
C1212 C 0.47444 0.9074 0.02743 0.0
C1213 C 0.48144 0.90688 0.0597 0.0
C1214 C 0.47952 0.90439 0.99349 0.0
C1215 C 0.49167 0.90073 0.99102 0.0
C1216 C 0.49871 0.9002 0.0231 0.0
H1217 H 0.53255 0.89507 0.7829 0.0
H1218 H 0.52748 0.89173 0.84776 0.0
C1219 C 0.49363 0.90318 0.05718 0.0
C1220 C 0.49713 0.89832 0.95451 0.0
H1221 H 0.49281 0.88224 0.87541 0.0
C1222 C 0.50657 0.90584 0.94241 0.0
C1223 C 0.49242 0.88939 0.93052 0.0
C1224 C 0.48275 0.8806 0.94265 0.0
C1225 C 0.51089 0.90522 0.90617 0.0
C1226 C 0.50576 0.8967 0.88161 0.0
C1227 C 0.49672 0.88877 0.89426 0.0
C1228 C 0.50864 0.89686 0.84182 0.0
C1229 C 0.5204 0.91419 0.89383 0.0
C1230 C 0.49961 0.90024 0.81674 0.0
C1231 C 0.50245 0.90208 0.77981 0.0
C1232 C 0.51439 0.90053 0.76714 0.0
C1233 C 0.52328 0.89637 0.79182 0.0
C1234 C 0.52042 0.89455 0.82893 0.0
H1235 H 0.52192 0.92146 0.91444 0.0
H1236 H 0.52911 0.90938 0.88946 0.0
H1237 H 0.51773 0.91846 0.86741 0.0
H1238 H 0.49045 0.90202 0.82608 0.0
H1239 H 0.49536 0.90521 0.76151 0.0
H1240 H 0.34451 0.24573 0.00717 0.0
H1241 H 0.34783 0.24086 0.07172 0.0
H1242 H 0.35707 0.27814 0.09364 0.0
H1243 H 0.3536 0.28317 0.02883 0.0
H1244 H 0.36756 0.24375 0.12098 0.0
H1245 H 0.32754 0.27172 0.1603 0.0
H1246 H 0.33066 0.26765 0.11324 0.0
H1247 H 0.33941 0.27927 0.13537 0.0
C1248 C 0.34743 0.25288 0.02552 0.0
C1249 C 0.34865 0.26487 0.01294 0.0
C1250 C 0.34935 0.25007 0.06244 0.0
C1251 C 0.35248 0.25918 0.08756 0.0
C1252 C 0.35445 0.27103 0.07476 0.0
H1253 H 0.34701 0.24952 0.32711 0.0
H1254 H 0.35198 0.25856 0.26745 0.0
C1255 C 0.35254 0.27386 0.03769 0.0
C1256 C 0.35274 0.25628 0.12732 0.0
H1257 H 0.33672 0.26022 0.2067 0.0
C1258 C 0.36093 0.24747 0.13989 0.0
C1259 C 0.34409 0.26117 0.15193 0.0
C1260 C 0.33485 0.27042 0.13967 0.0
C1261 C 0.36046 0.24314 0.17612 0.0
C1262 C 0.35141 0.24759 0.20016 0.0
C1263 C 0.34362 0.25682 0.18816 0.0
C1264 C 0.34915 0.24204 0.23662 0.0
C1265 C 0.36951 0.2337 0.18818 0.0
C1266 C 0.34579 0.2298 0.23897 0.0
C1267 C 0.3429 0.22463 0.27285 0.0
C1268 C 0.34325 0.23161 0.30518 0.0
C1269 C 0.34667 0.24388 0.30278 0.0
C1270 C 0.34953 0.24906 0.26875 0.0
H1271 H 0.37793 0.23413 0.17144 0.0
H1272 H 0.37194 0.23483 0.21758 0.0
H1273 H 0.3655 0.22456 0.1845 0.0
H1274 H 0.34515 0.22429 0.21442 0.0
H1275 H 0.34028 0.21517 0.27359 0.0
H1276 H 0.00266 0.09566 0.57826 0.0
H1277 H 0.99387 0.09861 0.51696 0.0
H1278 H 0.02844 0.09041 0.46771 0.0
H1279 H 0.03727 0.08737 0.5284 0.0
H1280 H 0.00131 0.11454 0.45626 0.0
H1281 H 0.00437 0.0656 0.42237 0.0
H1282 H 0.00543 0.07122 0.46884 0.0
H1283 H 0.01832 0.07202 0.43874 0.0
C1284 C 0.0084 0.09453 0.55438 0.0
C1285 C 0.02065 0.09115 0.55827 0.0
C1286 C 0.00337 0.09625 0.51943 0.0
C1287 C 0.01048 0.09456 0.48789 0.0
C1288 C 0.02277 0.09157 0.49173 0.0
H1289 H 0.00579 0.09273 0.25503 0.0
H1290 H 0.01159 0.09471 0.31939 0.0
C1291 C 0.0278 0.08986 0.52651 0.0
C1292 C 0.00509 0.09548 0.45073 0.0
H1293 H 0.00047 0.07903 0.37265 0.0
C1294 C 0.00098 0.10677 0.43802 0.0
C1295 C 0.0046 0.08529 0.42721 0.0
C1296 C 0.0083 0.07282 0.44001 0.0
C1297 C 0.99691 0.10825 0.40163 0.0
C1298 C 0.9969 0.09814 0.37776 0.0
C1299 C 0.00062 0.08679 0.39096 0.0
C1300 C 0.99354 0.09907 0.33846 0.0
C1301 C 0.99309 0.12063 0.38852 0.0
C1302 C 0.98151 0.10121 0.32772 0.0
C1303 C 0.97814 0.10011 0.29073 0.0
C1304 C 0.98676 0.09674 0.26412 0.0
C1305 C 0.99892 0.09528 0.27483 0.0
C1306 C 0.00226 0.0964 0.31162 0.0
H1307 H 0.99544 0.12785 0.40858 0.0
H1308 H 0.99745 0.12276 0.36178 0.0
H1309 H 0.98313 0.12073 0.38428 0.0
H1310 H 0.97462 0.10312 0.3481 0.0
H1311 H 0.9687 0.10123 0.28337 0.0
H1312 H 0.85329 0.71666 0.0296 0.0
H1313 H 0.85735 0.72177 0.09402 0.0
H1314 H 0.848 0.75904 0.07239 0.0
H1315 H 0.84407 0.75409 0.0082 0.0
H1316 H 0.86814 0.75604 0.12078 0.0
H1317 H 0.82808 0.72841 0.16194 0.0
H1318 H 0.83976 0.72082 0.13634 0.0
H1319 H 0.83095 0.7325 0.11475 0.0
C1320 C 0.85235 0.72599 0.0384 0.0
C1321 C 0.84822 0.73495 0.01389 0.0
C1322 C 0.8546 0.72888 0.07526 0.0
C1323 C 0.85275 0.74074 0.08807 0.0
C1324 C 0.84942 0.74982 0.06309 0.0
H1325 H 0.84137 0.78532 0.27262 0.0
H1326 H 0.8464 0.77597 0.21396 0.0
C1327 C 0.84716 0.74696 0.02639 0.0
C1328 C 0.85324 0.74366 0.12779 0.0
H1329 H 0.83743 0.74001 0.20769 0.0
C1330 C 0.86155 0.75241 0.13996 0.0
C1331 C 0.84464 0.73888 0.15276 0.0
C1332 C 0.83528 0.72969 0.14095 0.0
C1333 C 0.86124 0.7568 0.17615 0.0
C1334 C 0.85222 0.7525 0.20052 0.0
C1335 C 0.84432 0.7433 0.18891 0.0
C1336 C 0.85004 0.75822 0.23679 0.0
C1337 C 0.87044 0.76617 0.18776 0.0
C1338 C 0.85016 0.75129 0.26914 0.0
C1339 C 0.84718 0.75661 0.30289 0.0
C1340 C 0.84391 0.76893 0.30478 0.0
C1341 C 0.84387 0.77583 0.27228 0.0
C1342 C 0.84686 0.77052 0.23868 0.0
H1343 H 0.87885 0.7655 0.17108 0.0
H1344 H 0.86658 0.77535 0.18352 0.0
H1345 H 0.87284 0.76518 0.21723 0.0
H1346 H 0.85246 0.74175 0.26821 0.0
H1347 H 0.84728 0.75103 0.32738 0.0
H1348 H 0.96592 0.09042 0.0237 0.0
H1349 H 0.97533 0.09523 0.96485 0.0
H1350 H 0.0088 0.10393 0.02 0.0
H1351 H 0.9995 0.09897 0.07925 0.0
H1352 H 0.98638 0.11684 0.93955 0.0
H1353 H 0.01888 0.07822 0.94421 0.0
H1354 H 0.00604 0.07923 0.97479 0.0
H1355 H 0.0192 0.08847 0.98256 0.0
C1356 C 0.97528 0.09337 0.02345 0.0
C1357 C 0.98198 0.0942 0.05624 0.0
C1358 C 0.98063 0.09616 0.98975 0.0
C1359 C 0.9928 0.09981 0.98801 0.0
C1360 C 0.99946 0.10095 0.02069 0.0
H1361 H 0.03431 0.10369 0.78246 0.0
H1362 H 0.02891 0.10777 0.84665 0.0
C1363 C 0.99411 0.09814 0.05452 0.0
C1364 C 0.99846 0.10203 0.95171 0.0
H1365 H 0.01886 0.09018 0.89102 0.0
C1366 C 0.99359 0.11111 0.92906 0.0
C1367 C 0.00792 0.0946 0.93818 0.0
C1368 C 0.0133 0.08452 0.96098 0.0
C1369 C 0.99764 0.11269 0.89281 0.0
C1370 C 0.00666 0.10486 0.8787 0.0
C1371 C 0.01196 0.09619 0.90192 0.0
C1372 C 0.00973 0.10449 0.83904 0.0
C1373 C 0.99208 0.1226 0.86977 0.0
C1374 C 0.00072 0.10152 0.81337 0.0
C1375 C 0.00377 0.09918 0.77685 0.0
C1376 C 0.01591 0.09969 0.76523 0.0
C1377 C 0.02487 0.10328 0.79051 0.0
C1378 C 0.0218 0.10558 0.8272 0.0
H1379 H 0.98868 0.13014 0.88719 0.0
H1380 H 0.9987 0.1263 0.84971 0.0
H1381 H 0.98425 0.11886 0.85434 0.0
H1382 H 0.99139 0.10037 0.82197 0.0
H1383 H 0.99666 0.09641 0.75811 0.0
H1384 H 0.64909 0.28233 0.53256 0.0
H1385 H 0.64734 0.27588 0.59691 0.0
H1386 H 0.65415 0.23891 0.56468 0.0
H1387 H 0.65598 0.24522 0.50067 0.0
H1388 H 0.63304 0.25619 0.63579 0.0
H1389 H 0.68296 0.24957 0.63385 0.0
H1390 H 0.6751 0.25846 0.5997 0.0
H1391 H 0.67491 0.24219 0.59721 0.0
C1392 C 0.64991 0.27279 0.53909 0.0
C1393 C 0.65283 0.26431 0.51161 0.0
C1394 C 0.64893 0.26913 0.57584 0.0
C1395 C 0.65083 0.25697 0.58547 0.0
C1396 C 0.65281 0.24837 0.55776 0.0
H1397 H 0.66343 0.21289 0.77419 0.0
H1398 H 0.65984 0.2217 0.71372 0.0
C1399 C 0.65384 0.252 0.52119 0.0
C1400 C 0.65196 0.25333 0.62444 0.0
H1401 H 0.67244 0.24209 0.68586 0.0
C1402 C 0.64165 0.25321 0.64698 0.0
C1403 C 0.66325 0.24955 0.63887 0.0
C1404 C 0.67473 0.25002 0.61633 0.0
C1405 C 0.64225 0.24887 0.68329 0.0
C1406 C 0.65348 0.24472 0.69726 0.0
C1407 C 0.66383 0.2452 0.67497 0.0
C1408 C 0.65472 0.23935 0.73437 0.0
C1409 C 0.63084 0.24835 0.70602 0.0
C1410 C 0.65302 0.24637 0.76609 0.0
C1411 C 0.65509 0.24136 0.80088 0.0
C1412 C 0.65896 0.22925 0.80446 0.0
C1413 C 0.66049 0.22224 0.77253 0.0
C1414 C 0.65843 0.22725 0.7379 0.0
H1415 H 0.62258 0.24973 0.68907 0.0
H1416 H 0.63011 0.23949 0.72034 0.0
H1417 H 0.63114 0.25556 0.72725 0.0
H1418 H 0.65036 0.2558 0.76391 0.0
H1419 H 0.65385 0.24703 0.82488 0.0
H1420 H 0.46493 0.89785 0.28228 0.0
H1421 H 0.46916 0.89395 0.34742 0.0
H1422 H 0.5071 0.90108 0.3288 0.0
H1423 H 0.50301 0.90485 0.26397 0.0
H1424 H 0.50241 0.88118 0.3771 0.0
H1425 H 0.47693 0.92293 0.41569 0.0
H1426 H 0.46894 0.91166 0.38945 0.0
H1427 H 0.48129 0.91979 0.36888 0.0
C1428 C 0.4742 0.89835 0.29194 0.0
C1429 C 0.48362 0.90178 0.26803 0.0
C1430 C 0.47658 0.8962 0.32919 0.0
C1431 C 0.48841 0.89744 0.34301 0.0
C1432 C 0.4979 0.90013 0.31873 0.0
H1433 H 0.53297 0.90719 0.52671 0.0
H1434 H 0.52317 0.90239 0.46862 0.0
C1435 C 0.49554 0.9023 0.28165 0.0
C1436 C 0.49095 0.89686 0.38296 0.0
H1437 H 0.48787 0.91317 0.46217 0.0
C1438 C 0.49907 0.88805 0.39588 0.0
C1439 C 0.48655 0.90581 0.40744 0.0
C1440 C 0.478 0.91565 0.39484 0.0
C1441 C 0.5033 0.88824 0.43226 0.0
C1442 C 0.49947 0.89762 0.45608 0.0
C1443 C 0.49081 0.906 0.44381 0.0
C1444 C 0.50535 0.89973 0.49215 0.0
C1445 C 0.51204 0.87855 0.44461 0.0
C1446 C 0.49854 0.90008 0.52472 0.0
C1447 C 0.50414 0.9029 0.55823 0.0
C1448 C 0.51661 0.90557 0.55957 0.0
C1449 C 0.52336 0.90517 0.52681 0.0
C1450 C 0.51779 0.90231 0.49353 0.0
H1451 H 0.5109 0.8701 0.42833 0.0
H1452 H 0.52146 0.88181 0.44044 0.0
H1453 H 0.51083 0.87639 0.47417 0.0
H1454 H 0.4889 0.89825 0.52416 0.0
H1455 H 0.49867 0.90317 0.58293 0.0
H1456 H 0.8457 0.25104 0.17268 0.0
H1457 H 0.85065 0.26038 0.23196 0.0
H1458 H 0.84545 0.22598 0.28587 0.0
H1459 H 0.84061 0.21657 0.22715 0.0
H1460 H 0.83569 0.26159 0.29347 0.0
H1461 H 0.87798 0.23712 0.32729 0.0
H1462 H 0.87177 0.23752 0.28139 0.0
H1463 H 0.86593 0.22701 0.31482 0.0
C1464 C 0.84572 0.24544 0.19712 0.0
C1465 C 0.84276 0.23304 0.19512 0.0
C1466 C 0.84857 0.2508 0.23094 0.0
C1467 C 0.84865 0.24382 0.2632 0.0
C1468 C 0.84574 0.23147 0.26121 0.0
H1469 H 0.84393 0.24668 0.49208 0.0
H1470 H 0.84748 0.24224 0.42736 0.0
C1471 C 0.84287 0.22612 0.22758 0.0
C1472 C 0.85087 0.24951 0.29951 0.0
H1473 H 0.86729 0.2461 0.37836 0.0
C1474 C 0.84276 0.25842 0.31181 0.0
C1475 C 0.86013 0.24537 0.32329 0.0
C1476 C 0.86952 0.23632 0.3109 0.0
C1477 C 0.84313 0.2627 0.34813 0.0
C1478 C 0.85199 0.25806 0.37253 0.0
C1479 C 0.8605 0.24962 0.35963 0.0
C1480 C 0.8516 0.26076 0.41241 0.0
C1481 C 0.83358 0.27157 0.36074 0.0
C1482 C 0.85321 0.27259 0.42577 0.0
C1483 C 0.85119 0.27518 0.46294 0.0
C1484 C 0.84752 0.26596 0.48723 0.0
C1485 C 0.84667 0.25401 0.47409 0.0
C1486 C 0.84871 0.25144 0.43708 0.0
H1487 H 0.82626 0.27276 0.34009 0.0
H1488 H 0.82944 0.26851 0.38696 0.0
H1489 H 0.83784 0.28054 0.36564 0.0
H1490 H 0.85563 0.27988 0.40724 0.0
H1491 H 0.85195 0.28448 0.47224 0.0
H1492 H 0.50457 0.09364 0.24424 0.0
H1493 H 0.50983 0.09533 0.17938 0.0
H1494 H 0.47244 0.1025 0.15271 0.0
H1495 H 0.46703 0.10084 0.21793 0.0
H1496 H 0.49766 0.07867 0.1276 0.0
H1497 H 0.49323 0.12741 0.08961 0.0
H1498 H 0.49626 0.12266 0.13624 0.0
H1499 H 0.48147 0.12053 0.11696 0.0
C1500 C 0.49748 0.09586 0.22478 0.0
C1501 C 0.48536 0.09702 0.23623 0.0
C1502 C 0.50051 0.09683 0.1877 0.0
C1503 C 0.49152 0.09904 0.16133 0.0
C1504 C 0.47952 0.10091 0.17275 0.0
H1505 H 0.50129 0.095 0.92125 0.0
H1506 H 0.49204 0.09807 0.98191 0.0
C1507 C 0.47646 0.09996 0.21001 0.0
C1508 C 0.4946 0.09785 0.12192 0.0
H1509 H 0.49943 0.11388 0.043 0.0
C1510 C 0.49797 0.08635 0.10902 0.0
C1511 C 0.49483 0.10786 0.09774 0.0
C1512 C 0.49131 0.12036 0.11061 0.0
C1513 C 0.50189 0.08464 0.0728 0.0
C1514 C 0.50269 0.09474 0.04903 0.0
C1515 C 0.49886 0.10618 0.06141 0.0
C1516 C 0.5083 0.09363 0.01223 0.0
C1517 C 0.50526 0.07203 0.06036 0.0
C1518 C 0.52054 0.09036 0.00931 0.0
C1519 C 0.52583 0.08858 0.97493 0.0
C1520 C 0.519 0.09009 0.94262 0.0
C1521 C 0.50679 0.0937 0.94558 0.0
C1522 C 0.5015 0.09549 0.98016 0.0
H1523 H 0.50101 0.06498 0.07791 0.0
H1524 H 0.5025 0.07048 0.03141 0.0
H1525 H 0.51524 0.07092 0.06218 0.0
H1526 H 0.526 0.08906 0.03375 0.0
H1527 H 0.53527 0.08591 0.97379 0.0
H1528 H 0.65781 0.75408 0.99587 0.0
H1529 H 0.65591 0.75968 0.93134 0.0
H1530 H 0.64769 0.7226 0.90349 0.0
H1531 H 0.64951 0.71688 0.96842 0.0
H1532 H 0.67165 0.74852 0.8783 0.0
H1533 H 0.62285 0.74314 0.84256 0.0
H1534 H 0.62792 0.7453 0.88931 0.0
H1535 H 0.63006 0.73095 0.86711 0.0
C1536 C 0.65533 0.74714 0.97622 0.0
C1537 C 0.65389 0.73501 0.98725 0.0
C1538 C 0.65425 0.75037 0.93932 0.0
C1539 C 0.65165 0.74157 0.91268 0.0
C1540 C 0.64955 0.72955 0.92372 0.0
H1541 H 0.6551 0.75105 0.67267 0.0
H1542 H 0.65224 0.74199 0.73368 0.0
C1543 C 0.65061 0.7263 0.96081 0.0
C1544 C 0.65256 0.74484 0.8733 0.0
H1545 H 0.63608 0.74917 0.79489 0.0
C1546 C 0.66388 0.74861 0.86003 0.0
C1547 C 0.64244 0.74478 0.84947 0.0
C1548 C 0.63008 0.7409 0.86266 0.0
C1549 C 0.66533 0.75261 0.82378 0.0
C1550 C 0.65513 0.75305 0.80032 0.0
C1551 C 0.64386 0.74886 0.81308 0.0
C1552 C 0.65596 0.75857 0.76332 0.0
C1553 C 0.67777 0.75642 0.81092 0.0
C1554 C 0.65873 0.77092 0.75989 0.0
C1555 C 0.66039 0.7761 0.7253 0.0
C1556 C 0.65926 0.76904 0.69329 0.0
C1557 C 0.6561 0.75672 0.69675 0.0
C1558 C 0.65443 0.75154 0.73154 0.0
H1559 H 0.68503 0.75254 0.8285 0.0
H1560 H 0.67936 0.75357 0.78207 0.0
H1561 H 0.67848 0.76644 0.81221 0.0
H1562 H 0.65978 0.77653 0.78411 0.0
H1563 H 0.66271 0.78562 0.72375 0.0
H1564 H 0.96432 0.91327 0.47951 0.0
H1565 H 0.97359 0.90827 0.53845 0.0
H1566 H 0.0066 0.89795 0.4833 0.0
H1567 H 0.99744 0.90307 0.42395 0.0
H1568 H 0.98375 0.88602 0.56345 0.0
H1569 H 0.01775 0.92333 0.55928 0.0
H1570 H 0.00482 0.92294 0.52892 0.0
H1571 H 0.01754 0.91316 0.52071 0.0
C1572 C 0.97356 0.90995 0.47978 0.0
C1573 C 0.98016 0.90867 0.44695 0.0
C1574 C 0.97882 0.90705 0.51353 0.0
C1575 C 0.99081 0.90286 0.51526 0.0
C1576 C 0.99739 0.90134 0.48259 0.0
H1577 H 0.03205 0.89698 0.72103 0.0
H1578 H 0.02658 0.89338 0.65662 0.0
C1579 C 0.99212 0.90424 0.44871 0.0
C1580 C 0.99638 0.90038 0.55156 0.0
H1581 H 0.01719 0.91136 0.61245 0.0
C1582 C 0.99116 0.89145 0.57405 0.0
C1583 C 0.0061 0.90742 0.56519 0.0
C1584 C 0.01187 0.91731 0.5425 0.0
C1585 C 0.99515 0.88965 0.61026 0.0
C1586 C 0.00445 0.89712 0.62452 0.0
C1587 C 0.01007 0.90563 0.60144 0.0
C1588 C 0.00752 0.8973 0.6642 0.0
C1589 C 0.98923 0.8799 0.6331 0.0
C1590 C 0.9986 0.90049 0.6899 0.0
C1591 C 0.00169 0.90256 0.72653 0.0
C1592 C 0.01379 0.90154 0.73825 0.0
C1593 C 0.02264 0.89777 0.7129 0.0
C1594 C 0.01954 0.89575 0.67608 0.0
H1595 H 0.98559 0.87251 0.61553 0.0
H1596 H 0.99571 0.87594 0.65315 0.0
H1597 H 0.98152 0.88388 0.64852 0.0
H1598 H 0.98932 0.902 0.68127 0.0
H1599 H 0.99465 0.90548 0.74532 0.0
H1600 H 0.6554 0.74578 0.49212 0.0
H1601 H 0.65151 0.74069 0.42801 0.0
H1602 H 0.64176 0.77784 0.40594 0.0
H1603 H 0.64579 0.78307 0.47031 0.0
H1604 H 0.63131 0.74342 0.37964 0.0
H1605 H 0.67108 0.77139 0.33799 0.0
H1606 H 0.66827 0.76734 0.38524 0.0
H1607 H 0.65934 0.7789 0.36355 0.0
C1608 C 0.65223 0.75285 0.47386 0.0
C1609 C 0.65104 0.76486 0.48622 0.0
C1610 C 0.64999 0.74991 0.43719 0.0
C1611 C 0.64657 0.75893 0.41211 0.0
C1612 C 0.64459 0.77079 0.42479 0.0
H1613 H 0.65196 0.74852 0.17289 0.0
H1614 H 0.6468 0.75776 0.23212 0.0
C1615 C 0.64681 0.77374 0.46161 0.0
C1616 C 0.64609 0.75594 0.37243 0.0
H1617 H 0.66182 0.75964 0.29241 0.0
C1618 C 0.63786 0.74709 0.3604 0.0
C1619 C 0.65464 0.76077 0.34737 0.0
C1620 C 0.66391 0.77007 0.35903 0.0
C1621 C 0.6382 0.74265 0.32426 0.0
C1622 C 0.64716 0.74701 0.29979 0.0
C1623 C 0.65498 0.7563 0.31126 0.0
C1624 C 0.64935 0.7413 0.2635 0.0
C1625 C 0.62908 0.73319 0.3128 0.0
C1626 C 0.6526 0.72902 0.26155 0.0
C1627 C 0.65558 0.72374 0.22791 0.0
C1628 C 0.65546 0.73064 0.19542 0.0
C1629 C 0.65212 0.74294 0.19736 0.0
C1630 C 0.64915 0.74823 0.23115 0.0
H1631 H 0.62067 0.7338 0.32953 0.0
H1632 H 0.62665 0.73413 0.28333 0.0
H1633 H 0.63303 0.72405 0.31709 0.0
H1634 H 0.65312 0.72358 0.28626 0.0
H1635 H 0.65814 0.71426 0.22752 0.0
H1636 H 0.46678 0.39821 0.72396 0.0
H1637 H 0.47207 0.39441 0.65955 0.0
H1638 H 0.50952 0.40244 0.68344 0.0
H1639 H 0.50437 0.4061 0.74753 0.0
H1640 H 0.48159 0.41212 0.61507 0.0
H1641 H 0.51269 0.37287 0.61796 0.0
H1642 H 0.50275 0.37651 0.65583 0.0
H1643 H 0.51702 0.38425 0.65061 0.0
C1644 C 0.47619 0.39883 0.71568 0.0
C1645 C 0.48515 0.40249 0.74082 0.0
C1646 C 0.47919 0.39669 0.67886 0.0
C1647 C 0.49121 0.39802 0.66675 0.0
C1648 C 0.50023 0.4011 0.69225 0.0
H1649 H 0.5338 0.41302 0.47958 0.0
H1650 H 0.52483 0.40834 0.53921 0.0
C1651 C 0.49725 0.40328 0.7289 0.0
C1652 C 0.49418 0.39773 0.62703 0.0
H1653 H 0.51453 0.38623 0.56555 0.0
C1654 C 0.4886 0.40627 0.60397 0.0
C1655 C 0.50335 0.39012 0.61266 0.0
C1656 C 0.50921 0.38034 0.63551 0.0
C1657 C 0.49246 0.40793 0.56756 0.0
C1658 C 0.50204 0.40072 0.55377 0.0
C1659 C 0.50723 0.39179 0.57628 0.0
C1660 C 0.50743 0.40299 0.51714 0.0
C1661 C 0.48673 0.41784 0.54483 0.0
C1662 C 0.50065 0.40139 0.48489 0.0
C1663 C 0.50574 0.4041 0.45064 0.0
C1664 C 0.51772 0.40842 0.44808 0.0
C1665 C 0.52454 0.40977 0.48049 0.0
C1666 C 0.51944 0.40706 0.51463 0.0
H1667 H 0.48102 0.42399 0.56169 0.0
H1668 H 0.4938 0.42331 0.53079 0.0
H1669 H 0.4809 0.4137 0.52341 0.0
H1670 H 0.49142 0.39809 0.48622 0.0
H1671 H 0.50026 0.40287 0.42623 0.0
H1672 H 0.84713 0.25128 0.67303 0.0
H1673 H 0.85199 0.24225 0.73275 0.0
H1674 H 0.84212 0.27562 0.78664 0.0
H1675 H 0.83738 0.28476 0.72733 0.0
H1676 H 0.86413 0.26522 0.81236 0.0
H1677 H 0.82634 0.23175 0.80869 0.0
H1678 H 0.83659 0.23165 0.77031 0.0
H1679 H 0.82699 0.24455 0.77787 0.0
C1680 C 0.846 0.2567 0.69758 0.0
C1681 C 0.84178 0.26873 0.69537 0.0
C1682 C 0.84875 0.25151 0.73168 0.0
C1683 C 0.84728 0.25823 0.76412 0.0
C1684 C 0.8433 0.27028 0.76192 0.0
H1685 H 0.84425 0.25519 0.99432 0.0
H1686 H 0.84781 0.26026 0.9301 0.0
C1687 C 0.84055 0.27547 0.72795 0.0
C1688 C 0.84961 0.25276 0.80064 0.0
H1689 H 0.83825 0.23231 0.86201 0.0
C1690 C 0.85857 0.25793 0.82311 0.0
C1691 C 0.84241 0.24318 0.81447 0.0
C1692 C 0.83248 0.23747 0.7918 0.0
C1693 C 0.86026 0.25404 0.85948 0.0
C1694 C 0.85264 0.2449 0.8739 0.0
C1695 C 0.84409 0.23931 0.85087 0.0
C1696 C 0.85236 0.24196 0.91366 0.0
C1697 C 0.87005 0.25991 0.8823 0.0
C1698 C 0.8538 0.22998 0.92595 0.0
C1699 C 0.85174 0.22703 0.96286 0.0
C1700 C 0.84803 0.236 0.98791 0.0
C1701 C 0.84711 0.24807 0.97577 0.0
C1702 C 0.84923 0.251 0.93904 0.0
H1703 H 0.8775 0.26342 0.86474 0.0
H1704 H 0.86613 0.2677 0.89749 0.0
H1705 H 0.8739 0.25344 0.90255 0.0
H1706 H 0.85612 0.22285 0.90674 0.0
H1707 H 0.85245 0.21764 0.97132 0.0
H1708 H 0.99532 0.59191 0.25103 0.0
H1709 H 0.98976 0.59548 0.1871 0.0
H1710 H 0.02644 0.60642 0.16301 0.0
H1711 H 0.03216 0.6027 0.22715 0.0
H1712 H 0.99139 0.6155 0.13843 0.0
H1713 H 0.02078 0.57693 0.09567 0.0
H1714 H 0.01695 0.57969 0.1431 0.0
H1715 H 0.02804 0.58898 0.12053 0.0
C1716 C 0.00218 0.59527 0.23235 0.0
C1717 C 0.01422 0.59688 0.24407 0.0
C1718 C 0.99898 0.59733 0.19579 0.0
C1719 C 0.00774 0.60099 0.1702 0.0
C1720 C 0.01959 0.60339 0.18225 0.0
H1721 H 0.99778 0.59669 0.93101 0.0
H1722 H 0.00654 0.60155 0.99107 0.0
C1723 C 0.02282 0.60134 0.21894 0.0
C1724 C 0.00453 0.6013 0.13067 0.0
H1725 H 0.00878 0.58596 0.0502 0.0
C1726 C 0.9953 0.60916 0.11898 0.0
C1727 C 0.00965 0.59301 0.10536 0.0
C1728 C 0.01935 0.58409 0.11666 0.0
C1729 C 0.99082 0.60873 0.08289 0.0
C1730 C 0.99556 0.60006 0.05811 0.0
C1731 C 0.00516 0.59258 0.0693 0.0
C1732 C 0.99009 0.59792 0.02148 0.0
C1733 C 0.98096 0.61746 0.07176 0.0
C1734 C 0.97797 0.59415 0.01872 0.0
C1735 C 0.97295 0.59133 0.98456 0.0
C1736 C 0.97997 0.59215 0.95239 0.0
C1737 C 0.99211 0.59598 0.95521 0.0
C1738 C 0.99713 0.59878 0.98948 0.0
H1739 H 0.98107 0.62575 0.08911 0.0
H1740 H 0.9819 0.62017 0.04252 0.0
H1741 H 0.97201 0.61302 0.07535 0.0
H1742 H 0.97246 0.59313 0.04314 0.0
H1743 H 0.96359 0.58839 0.98347 0.0
H1744 H 0.66183 0.28807 0.27421 0.0
H1745 H 0.65816 0.27953 0.21341 0.0
H1746 H 0.64871 0.24522 0.26235 0.0
H1747 H 0.65228 0.25372 0.3236 0.0
H1748 H 0.67086 0.25931 0.18511 0.0
H1749 H 0.62104 0.25136 0.1873 0.0
H1750 H 0.62848 0.26153 0.21902 0.0
H1751 H 0.62953 0.24544 0.22548 0.0
C1752 C 0.65886 0.27874 0.2722 0.0
C1753 C 0.65739 0.27157 0.30384 0.0
C1754 C 0.65675 0.27388 0.23738 0.0
C1755 C 0.65304 0.26179 0.23341 0.0
C1756 C 0.65136 0.25464 0.26487 0.0
H1757 H 0.6484 0.21843 0.0326 0.0
H1758 H 0.64617 0.22517 0.09652 0.0
C1759 C 0.65348 0.25949 0.29982 0.0
C1760 C 0.65189 0.25653 0.19614 0.0
H1761 H 0.63168 0.24484 0.13433 0.0
C1762 C 0.66229 0.25614 0.17404 0.0
C1763 C 0.64072 0.25229 0.18196 0.0
C1764 C 0.62926 0.25272 0.20447 0.0
C1765 C 0.66183 0.25175 0.13797 0.0
C1766 C 0.65061 0.24785 0.12335 0.0
C1767 C 0.64024 0.24792 0.14566 0.0
C1768 C 0.64962 0.24406 0.08447 0.0
C1769 C 0.67337 0.25133 0.11572 0.0
C1770 C 0.65172 0.25254 0.05652 0.0
C1771 C 0.65303 0.24874 0.02019 0.0
C1772 C 0.65218 0.23638 0.01111 0.0
C1773 C 0.64909 0.22801 0.03874 0.0
C1774 C 0.64784 0.23184 0.07525 0.0
H1775 H 0.68156 0.25188 0.13344 0.0
H1776 H 0.67386 0.24287 0.09924 0.0
H1777 H 0.67355 0.25913 0.09649 0.0
H1778 H 0.65297 0.26204 0.06311 0.0
H1779 H 0.65529 0.25543 0.99951 0.0
H1780 H 0.99685 0.40505 0.57185 0.0
H1781 H 0.00532 0.40201 0.51027 0.0
H1782 H 0.97041 0.40971 0.46248 0.0
H1783 H 0.96188 0.41287 0.52357 0.0
H1784 H 0.99812 0.38594 0.45086 0.0
H1785 H 0.99366 0.43462 0.41499 0.0
H1786 H 0.99275 0.42918 0.46168 0.0
H1787 H 0.9799 0.42786 0.43157 0.0
C1788 C 0.99096 0.40605 0.54824 0.0
C1789 C 0.97871 0.40934 0.55266 0.0
C1790 C 0.99581 0.40427 0.51312 0.0
C1791 C 0.98853 0.4058 0.48189 0.0
C1792 C 0.97623 0.40868 0.48625 0.0
H1793 H 0.99502 0.4077 0.2483 0.0
H1794 H 0.98839 0.40559 0.31189 0.0
C1795 C 0.97137 0.41046 0.52124 0.0
C1796 C 0.99378 0.40485 0.44456 0.0
H1797 H 0.99822 0.42115 0.36608 0.0
C1798 C 0.99825 0.39363 0.43233 0.0
C1799 C 0.99401 0.41495 0.42065 0.0
C1800 C 0.98994 0.42737 0.43291 0.0
C1801 C 0.0025 0.39215 0.39616 0.0
C1802 C 0.00236 0.40217 0.37197 0.0
C1803 C 0.99819 0.41344 0.38461 0.0
C1804 C 0.0062 0.40129 0.33306 0.0
C1805 C 0.00676 0.37983 0.38369 0.0
C1806 C 0.01837 0.39921 0.32371 0.0
C1807 C 0.02221 0.40037 0.28718 0.0
C1808 C 0.01393 0.40375 0.25961 0.0
C1809 C 0.00164 0.40515 0.26888 0.0
C1810 C 0.99783 0.40395 0.30523 0.0
H1811 H 0.00413 0.37258 0.40331 0.0
H1812 H 0.00298 0.37763 0.35621 0.0
H1813 H 0.01679 0.37988 0.38134 0.0
H1814 H 0.02501 0.39731 0.34486 0.0
H1815 H 0.03175 0.3993 0.28093 0.0
H1816 H 0.84446 0.74799 0.82606 0.0
H1817 H 0.8475 0.75654 0.76453 0.0
H1818 H 0.83897 0.72188 0.71633 0.0
H1819 H 0.83582 0.7133 0.77731 0.0
H1820 H 0.86339 0.74904 0.70505 0.0
H1821 H 0.81465 0.74572 0.66885 0.0
H1822 H 0.82004 0.74466 0.71557 0.0
H1823 H 0.82102 0.73178 0.68545 0.0
C1824 C 0.84326 0.74218 0.80236 0.0
C1825 C 0.83977 0.72998 0.80664 0.0
C1826 C 0.84504 0.74707 0.76727 0.0
C1827 C 0.84329 0.73988 0.73594 0.0
C1828 C 0.84017 0.72764 0.74017 0.0
H1829 H 0.84242 0.74481 0.50261 0.0
H1830 H 0.84422 0.7388 0.56684 0.0
C1831 C 0.83838 0.72274 0.7751 0.0
C1832 C 0.84438 0.74513 0.69864 0.0
H1833 H 0.82832 0.74962 0.61973 0.0
C1834 C 0.85572 0.7493 0.68643 0.0
C1835 C 0.83432 0.74553 0.6746 0.0
C1836 C 0.82179 0.7418 0.68681 0.0
C1837 C 0.85736 0.75337 0.65012 0.0
C1838 C 0.84738 0.75333 0.62576 0.0
C1839 C 0.83598 0.74951 0.63841 0.0
C1840 C 0.84846 0.75679 0.58659 0.0
C1841 C 0.86978 0.75728 0.63762 0.0
C1842 C 0.85062 0.76886 0.57626 0.0
C1843 C 0.84963 0.77235 0.53935 0.0
C1844 C 0.84636 0.76382 0.51239 0.0
C1845 C 0.8449 0.75162 0.52269 0.0
C1846 C 0.84591 0.74816 0.55941 0.0
H1847 H 0.87692 0.75487 0.65787 0.0
H1848 H 0.87204 0.75305 0.6108 0.0
H1849 H 0.86987 0.76726 0.63381 0.0
H1850 H 0.85244 0.7757 0.5969 0.0
H1851 H 0.85074 0.78182 0.53231 0.0
H1852 H 0.49895 0.59764 0.07606 0.0
H1853 H 0.48975 0.60246 0.01653 0.0
H1854 H 0.52341 0.59387 0.96222 0.0
H1855 H 0.53271 0.58919 0.02131 0.0
H1856 H 0.51224 0.61553 0.93685 0.0
H1857 H 0.4801 0.57658 0.94034 0.0
H1858 H 0.47967 0.5868 0.97878 0.0
H1859 H 0.49288 0.57765 0.97113 0.0
C1860 C 0.50441 0.5968 0.05145 0.0
C1861 C 0.51655 0.59293 0.05347 0.0
C1862 C 0.49912 0.59953 0.01747 0.0
C1863 C 0.50586 0.59839 0.98496 0.0
C1864 C 0.51804 0.5948 0.98699 0.0
H1865 H 0.5032 0.59517 0.75499 0.0
H1866 H 0.50802 0.59895 0.81927 0.0
C1867 C 0.52333 0.59208 0.02084 0.0
C1868 C 0.50029 0.60057 0.9485 0.0
H1869 H 0.48032 0.58847 0.88698 0.0
C1870 C 0.50515 0.60971 0.92607 0.0
C1871 C 0.49098 0.59303 0.93462 0.0
C1872 C 0.48562 0.5829 0.95724 0.0
C1873 C 0.50125 0.61124 0.88965 0.0
C1874 C 0.4924 0.60329 0.87516 0.0
C1875 C 0.4871 0.59456 0.89818 0.0
C1876 C 0.48955 0.60286 0.83537 0.0
C1877 C 0.50678 0.62122 0.86685 0.0
C1878 C 0.47754 0.60386 0.82288 0.0
C1879 C 0.47473 0.60167 0.78594 0.0
C1880 C 0.48388 0.59827 0.76106 0.0
C1881 C 0.49595 0.59778 0.7734 0.0
C1882 C 0.49874 0.60003 0.81016 0.0
H1883 H 0.51 0.62881 0.88441 0.0
H1884 H 0.51473 0.61758 0.85178 0.0
H1885 H 0.50021 0.62483 0.84649 0.0
H1886 H 0.4703 0.60594 0.84196 0.0
H1887 H 0.46534 0.60205 0.77732 0.0
H1888 H 0.35412 0.21748 0.52872 0.0
H1889 H 0.35773 0.22271 0.5933 0.0
H1890 H 0.34792 0.25981 0.57079 0.0
H1891 H 0.34447 0.25474 0.50645 0.0
H1892 H 0.36771 0.25737 0.61985 0.0
H1893 H 0.32823 0.22881 0.66025 0.0
H1894 H 0.34018 0.22138 0.63537 0.0
H1895 H 0.33123 0.23281 0.61307 0.0
C1896 C 0.35298 0.2268 0.53739 0.0
C1897 C 0.34888 0.23567 0.51255 0.0
C1898 C 0.35496 0.22975 0.57434 0.0
C1899 C 0.35285 0.2416 0.58693 0.0
C1900 C 0.34954 0.2506 0.56168 0.0
H1901 H 0.34052 0.28544 0.77393 0.0
H1902 H 0.34532 0.27653 0.71438 0.0
C1903 C 0.34755 0.24767 0.52488 0.0
C1904 C 0.35313 0.24459 0.62663 0.0
H1905 H 0.33737 0.24044 0.70641 0.0
C1906 C 0.36119 0.25356 0.63893 0.0
C1907 C 0.34461 0.23959 0.65147 0.0
C1908 C 0.3355 0.23017 0.63952 0.0
C1909 C 0.36073 0.25791 0.67515 0.0
C1910 C 0.35183 0.25332 0.69945 0.0
C1911 C 0.34416 0.24395 0.68767 0.0
C1912 C 0.34964 0.25879 0.73607 0.0
C1913 C 0.36966 0.26751 0.68692 0.0
C1914 C 0.35021 0.2517 0.76803 0.0
C1915 C 0.34739 0.25675 0.80225 0.0
C1916 C 0.34381 0.26897 0.80503 0.0
C1917 C 0.34327 0.27602 0.77288 0.0
C1918 C 0.34612 0.27097 0.73879 0.0
H1919 H 0.37802 0.26724 0.66991 0.0
H1920 H 0.36547 0.27658 0.68341 0.0
H1921 H 0.37221 0.26642 0.71625 0.0
H1922 H 0.35279 0.24224 0.76646 0.0
H1923 H 0.34788 0.25105 0.82643 0.0
H1924 H 0.46479 0.5892 0.52149 0.0
H1925 H 0.47407 0.59376 0.46226 0.0
H1926 H 0.50774 0.60248 0.51628 0.0
H1927 H 0.49857 0.59778 0.57593 0.0
H1928 H 0.48521 0.61537 0.43645 0.0
H1929 H 0.51737 0.57645 0.44053 0.0
H1930 H 0.5046 0.57757 0.47133 0.0
H1931 H 0.51782 0.58674 0.4788 0.0
C1932 C 0.47417 0.5921 0.52092 0.0
C1933 C 0.48096 0.59302 0.55351 0.0
C1934 C 0.47944 0.59474 0.48699 0.0
C1935 C 0.49162 0.59833 0.48485 0.0
C1936 C 0.49838 0.59955 0.51731 0.0
H1937 H 0.53219 0.60179 0.27727 0.0
H1938 H 0.5272 0.60571 0.34187 0.0
C1939 C 0.49311 0.59689 0.55136 0.0
C1940 C 0.49718 0.60045 0.44833 0.0
H1941 H 0.51717 0.58827 0.38702 0.0
C1942 C 0.49231 0.60955 0.42576 0.0
C1943 C 0.50649 0.5929 0.43457 0.0
C1944 C 0.51186 0.5828 0.45734 0.0
C1945 C 0.49622 0.61103 0.38933 0.0
C1946 C 0.50508 0.60307 0.37497 0.0
C1947 C 0.51038 0.59437 0.39811 0.0
C1948 C 0.50796 0.6026 0.3352 0.0
C1949 C 0.49068 0.62097 0.36638 0.0
C1950 C 0.49878 0.59973 0.30997 0.0
C1951 C 0.5016 0.59747 0.27323 0.0
C1952 C 0.51367 0.59797 0.26094 0.0
C1953 C 0.5228 0.60139 0.28585 0.0
C1954 C 0.51997 0.6036 0.32277 0.0
H1955 H 0.48744 0.62857 0.38383 0.0
H1956 H 0.49726 0.62456 0.34601 0.0
H1957 H 0.48274 0.6173 0.35131 0.0
H1958 H 0.48949 0.59864 0.31903 0.0
H1959 H 0.49435 0.59483 0.2548 0.0
H1960 H 0.16319 0.71421 0.27211 0.0
H1961 H 0.15842 0.72351 0.21304 0.0
H1962 H 0.14815 0.75658 0.26791 0.0
H1963 H 0.15304 0.7474 0.32738 0.0
H1964 H 0.13623 0.73383 0.18765 0.0
H1965 H 0.17381 0.76753 0.1924 0.0
H1966 H 0.17327 0.75459 0.22271 0.0
H1967 H 0.16358 0.76739 0.23083 0.0
C1968 C 0.15993 0.72347 0.27175 0.0
C1969 C 0.15859 0.73008 0.30454 0.0
C1970 C 0.15716 0.72875 0.23792 0.0
C1971 C 0.15305 0.74076 0.23608 0.0
C1972 C 0.15148 0.74735 0.26871 0.0
H1973 H 0.14766 0.78217 0.03058 0.0
H1974 H 0.14403 0.77666 0.09493 0.0
C1975 C 0.15425 0.74207 0.30267 0.0
C1976 C 0.15068 0.74634 0.19974 0.0
H1977 H 0.16189 0.76709 0.13908 0.0
C1978 C 0.14174 0.7412 0.17713 0.0
C1979 C 0.15782 0.75601 0.18623 0.0
C1980 C 0.16772 0.76169 0.20908 0.0
C1981 C 0.14001 0.74522 0.14092 0.0
C1982 C 0.14756 0.75447 0.1268 0.0
C1983 C 0.1561 0.76001 0.14999 0.0
C1984 C 0.14779 0.75759 0.08716 0.0
C1985 C 0.13023 0.7394 0.11796 0.0
C1986 C 0.15091 0.74867 0.06137 0.0
C1987 C 0.153 0.75178 0.02476 0.0
C1988 C 0.15207 0.7639 0.01316 0.0
C1989 C 0.14838 0.77275 0.03862 0.0
C1990 C 0.14634 0.76962 0.0754 0.0
H1991 H 0.1228 0.7358 0.13545 0.0
H1992 H 0.12634 0.74592 0.09793 0.0
H1993 H 0.13417 0.73167 0.10251 0.0
H1994 H 0.15235 0.73937 0.0699 0.0
H1995 H 0.15585 0.74474 0.00589 0.0
H1996 H 0.96797 0.39946 0.78077 0.0
H1997 H 0.97453 0.39713 0.84485 0.0
H1998 H 0.01156 0.40347 0.81228 0.0
H1999 H 0.00513 0.40591 0.74856 0.0
H2000 H 0.99368 0.38237 0.88304 0.0
H2001 H 0.0019 0.43204 0.88275 0.0
H2002 H 0.99288 0.42458 0.84811 0.0
H2003 H 0.00915 0.42395 0.84597 0.0
C2004 C 0.97755 0.40005 0.78715 0.0
C2005 C 0.98602 0.40303 0.75971 0.0
C2006 C 0.98126 0.39874 0.82374 0.0
C2007 C 0.99348 0.40035 0.83325 0.0
C2008 C 0.00206 0.40236 0.80549 0.0
H2009 H 0.03793 0.4109 0.02236 0.0
H2010 H 0.02914 0.40736 0.96184 0.0
C2011 C 0.99836 0.40374 0.76908 0.0
C2012 C 0.99721 0.40122 0.87222 0.0
H2013 H 0.00915 0.42109 0.93426 0.0
C2014 C 0.99697 0.39083 0.89446 0.0
C2015 C 0.00138 0.41232 0.887 0.0
C2016 C 0.00126 0.4239 0.8649 0.0
C2017 C 0.00131 0.39117 0.93082 0.0
C2018 C 0.00585 0.4022 0.94509 0.0
C2019 C 0.00575 0.41263 0.9231 0.0
C2020 C 0.01122 0.40315 0.98226 0.0
C2021 C 0.0014 0.37969 0.9533 0.0
C2022 C 0.00405 0.40189 0.01386 0.0
C2023 C 0.00905 0.40395 0.04868 0.0
C2024 C 0.02129 0.40735 0.05239 0.0
C2025 C 0.02847 0.40833 0.0206 0.0
C2026 C 0.02348 0.40629 0.98594 0.0
H2027 H 0.99957 0.37154 0.93626 0.0
H2028 H 0.01027 0.37854 0.96727 0.0
H2029 H 0.9943 0.38028 0.97483 0.0
H2030 H 0.99452 0.39966 0.01154 0.0
H2031 H 0.00326 0.40312 0.07257 0.0
H2032 H 0.3521 0.78542 0.97047 0.0
H2033 H 0.35568 0.7807 0.90549 0.0
H2034 H 0.34771 0.74307 0.92646 0.0
H2035 H 0.34426 0.74764 0.99116 0.0
H2036 H 0.36748 0.7469 0.87738 0.0
H2037 H 0.32636 0.7733 0.83845 0.0
H2038 H 0.33789 0.78119 0.86384 0.0
H2039 H 0.32955 0.76917 0.88542 0.0
C2040 C 0.35134 0.77611 0.96135 0.0
C2041 C 0.34777 0.76692 0.9859 0.0
C2042 C 0.35331 0.77345 0.92419 0.0
C2043 C 0.35174 0.76158 0.91109 0.0
C2044 C 0.34891 0.7523 0.93598 0.0
H2045 H 0.34117 0.71708 0.726 0.0
H2046 H 0.34585 0.72654 0.78475 0.0
C2047 C 0.34693 0.75494 0.97298 0.0
C2048 C 0.35213 0.75879 0.87127 0.0
H2049 H 0.33589 0.76212 0.79202 0.0
C2050 C 0.36069 0.75036 0.85855 0.0
C2051 C 0.34328 0.76334 0.84674 0.0
C2052 C 0.33368 0.77219 0.85914 0.0
C2053 C 0.36037 0.74605 0.82227 0.0
C2054 C 0.35112 0.75011 0.79834 0.0
C2055 C 0.34296 0.75901 0.81047 0.0
C2056 C 0.34899 0.7444 0.76204 0.0
C2057 C 0.36983 0.73703 0.81008 0.0
C2058 C 0.34892 0.75135 0.72973 0.0
C2059 C 0.34616 0.74596 0.6959 0.0
C2060 C 0.34328 0.73354 0.69391 0.0
C2061 C 0.34337 0.72664 0.72641 0.0
C2062 C 0.34616 0.73202 0.76006 0.0
H2063 H 0.37826 0.73789 0.82657 0.0
H2064 H 0.36626 0.72771 0.81404 0.0
H2065 H 0.37211 0.73822 0.78058 0.0
H2066 H 0.35095 0.76095 0.73074 0.0
H2067 H 0.34615 0.75154 0.67143 0.0
H2068 H 0.00562 0.5924 0.75566 0.0
H2069 H 0.01194 0.59437 0.69174 0.0
H2070 H 0.97505 0.60195 0.65995 0.0
H2071 H 0.96862 0.60009 0.7242 0.0
H2072 H 0.00195 0.57835 0.63868 0.0
H2073 H 0.99543 0.62668 0.59949 0.0
H2074 H 0.99695 0.62189 0.64674 0.0
H2075 H 0.983 0.61937 0.6226 0.0
C2076 C 0.99887 0.59479 0.73527 0.0
C2077 C 0.9866 0.59601 0.74496 0.0
C2078 C 0.00251 0.5959 0.69873 0.0
C2079 C 0.99397 0.59831 0.67114 0.0
C2080 C 0.98181 0.60025 0.6809 0.0
H2081 H 0.00257 0.5937 0.4321 0.0
H2082 H 0.9942 0.59682 0.49379 0.0
C2083 C 0.97815 0.59916 0.71762 0.0
C2084 C 0.99764 0.59727 0.63212 0.0
H2085 H 0.00143 0.61315 0.55239 0.0
C2086 C 0.00183 0.58597 0.61982 0.0
C2087 C 0.99731 0.60717 0.60751 0.0
C2088 C 0.99301 0.61951 0.61962 0.0
C2089 C 0.00587 0.58432 0.58369 0.0
C2090 C 0.00594 0.5943 0.55934 0.0
C2091 C 0.00143 0.60554 0.57125 0.0
C2092 C 0.01109 0.59323 0.52192 0.0
C2093 C 0.00999 0.57187 0.57182 0.0
C2094 C 0.0234 0.59043 0.51738 0.0
C2095 C 0.0282 0.5886 0.48234 0.0
C2096 C 0.02079 0.58961 0.45104 0.0
C2097 C 0.00852 0.59279 0.45562 0.0
C2098 C 0.00372 0.59462 0.49081 0.0
H2099 H 0.00636 0.56467 0.59011 0.0
H2100 H 0.00711 0.56991 0.54319 0.0
H2101 H 0.02003 0.57144 0.57294 0.0
H2102 H 0.02928 0.58952 0.54105 0.0
H2103 H 0.0377 0.58628 0.47988 0.0
H2104 H 0.15457 0.24927 0.17258 0.0
H2105 H 0.14929 0.24019 0.23197 0.0
H2106 H 0.15567 0.27448 0.28542 0.0
H2107 H 0.16083 0.28363 0.22654 0.0
H2108 H 0.16425 0.2386 0.2935 0.0
H2109 H 0.12272 0.26444 0.3268 0.0
H2110 H 0.12893 0.26377 0.28093 0.0
H2111 H 0.13513 0.27411 0.31426 0.0
C2112 C 0.15474 0.2549 0.19695 0.0
C2113 C 0.15812 0.26719 0.19476 0.0
C2114 C 0.15171 0.2497 0.23082 0.0
C2115 C 0.15187 0.25672 0.26298 0.0
C2116 C 0.15519 0.26897 0.26083 0.0
H2117 H 0.15593 0.25359 0.49211 0.0
H2118 H 0.15254 0.25822 0.42744 0.0
C2119 C 0.15825 0.27416 0.22712 0.0
C2120 C 0.14945 0.25115 0.29932 0.0
H2121 H 0.13297 0.25501 0.37786 0.0
C2122 C 0.15725 0.24198 0.31173 0.0
C2123 C 0.14028 0.25557 0.32296 0.0
C2124 C 0.13121 0.26493 0.31044 0.0
C2125 C 0.15667 0.23769 0.34801 0.0
C2126 C 0.1479 0.24257 0.37226 0.0
C2127 C 0.13969 0.2513 0.35925 0.0
C2128 C 0.14809 0.23981 0.41211 0.0
C2129 C 0.16593 0.22853 0.36074 0.0
C2130 C 0.14622 0.22799 0.42526 0.0
C2131 C 0.14816 0.22529 0.46241 0.0
C2132 C 0.15199 0.23439 0.48688 0.0
C2133 C 0.15306 0.24635 0.47397 0.0
C2134 C 0.15111 0.24903 0.43699 0.0
H2135 H 0.1733 0.22721 0.34032 0.0
H2136 H 0.17004 0.23141 0.38719 0.0
H2137 H 0.16141 0.21967 0.36519 0.0
H2138 H 0.14368 0.22078 0.40658 0.0
H2139 H 0.14722 0.21599 0.47152 0.0
H2140 H 0.49426 0.40565 0.24754 0.0
H2141 H 0.48913 0.40214 0.18335 0.0
H2142 H 0.52665 0.39457 0.15916 0.0
H2143 H 0.53192 0.39822 0.22368 0.0
H2144 H 0.51695 0.41234 0.11526 0.0
H2145 H 0.48623 0.37278 0.11691 0.0
H2146 H 0.48179 0.38401 0.14991 0.0
H2147 H 0.49614 0.37639 0.15489 0.0
C2148 C 0.5014 0.40295 0.22882 0.0
C2149 C 0.51351 0.40226 0.24069 0.0
C2150 C 0.49843 0.40086 0.1921 0.0
C2151 C 0.50748 0.39796 0.1665 0.0
C2152 C 0.51951 0.39671 0.17855 0.0
H2153 H 0.49842 0.40343 0.92612 0.0
H2154 H 0.5073 0.3986 0.98605 0.0
C2155 C 0.5225 0.39876 0.21542 0.0
C2156 C 0.5045 0.39779 0.12677 0.0
H2157 H 0.48427 0.3863 0.06492 0.0
C2158 C 0.51 0.40646 0.10397 0.0
C2159 C 0.49541 0.39014 0.11216 0.0
C2160 C 0.48965 0.38023 0.13469 0.0
C2161 C 0.50612 0.40821 0.06762 0.0
C2162 C 0.49662 0.40095 0.0536 0.0
C2163 C 0.49151 0.3919 0.07583 0.0
C2164 C 0.49122 0.40327 0.017 0.0
C2165 C 0.51176 0.41824 0.04519 0.0
C2166 C 0.47917 0.40723 0.01452 0.0
C2167 C 0.47406 0.40997 0.98041 0.0
C2168 C 0.4809 0.40875 0.94801 0.0
C2169 C 0.49292 0.40455 0.95053 0.0
C2170 C 0.49803 0.40182 0.98475 0.0
H2171 H 0.5174 0.4244 0.06224 0.0
H2172 H 0.51764 0.41423 0.02367 0.0
H2173 H 0.50464 0.42369 0.03128 0.0
H2174 H 0.47376 0.4084 0.03911 0.0
H2175 H 0.46476 0.41312 0.97953 0.0
H2176 H 0.15493 0.32938 0.16147 0.0
H2177 H 0.13959 0.34514 0.1681 0.0
H2178 H 0.12176 0.33239 0.06995 0.0
H2179 H 0.13688 0.31624 0.0639 0.0
H2180 H 0.13315 0.36361 0.12695 0.0
H2181 H 0.0939 0.33261 0.14067 0.0
H2182 H 0.10934 0.32728 0.1416 0.0
H2183 H 0.10201 0.33045 0.09848 0.0
C2184 C 0.14777 0.32993 0.14118 0.0
C2185 C 0.14708 0.3215 0.11226 0.0
C2186 C 0.13899 0.33895 0.14505 0.0
C2187 C 0.12936 0.33981 0.12 0.0
C2188 C 0.12889 0.3317 0.09026 0.0
H2189 H 0.08324 0.40271 0.09457 0.0
H2190 H 0.09909 0.3874 0.09076 0.0
C2191 C 0.13761 0.32254 0.08661 0.0
C2192 C 0.11991 0.34926 0.12515 0.0
H2193 H 0.08938 0.35359 0.1339 0.0
C2194 C 0.12358 0.3614 0.12862 0.0
C2195 C 0.10744 0.34638 0.12814 0.0
C2196 C 0.10293 0.33346 0.12743 0.0
C2197 C 0.11515 0.37074 0.13436 0.0
C2198 C 0.10263 0.36792 0.1355 0.0
C2199 C 0.09896 0.35576 0.13269 0.0
C2200 C 0.09317 0.37745 0.13876 0.0
C2201 C 0.11979 0.38348 0.13987 0.0
C2202 C 0.08432 0.37681 0.16648 0.0
C2203 C 0.07506 0.38548 0.16837 0.0
C2204 C 0.07453 0.39496 0.14262 0.0
C2205 C 0.08347 0.39562 0.11514 0.0
C2206 C 0.0926 0.3869 0.11303 0.0
H2207 H 0.12924 0.38349 0.15043 0.0
H2208 H 0.11979 0.38829 0.1131 0.0
H2209 H 0.114 0.38862 0.15936 0.0
H2210 H 0.08452 0.36956 0.18652 0.0
H2211 H 0.06828 0.3847 0.18976 0.0
H2212 H 0.86373 0.81795 0.43885 0.0
H2213 H 0.87856 0.83448 0.43602 0.0
H2214 H 0.86155 0.8479 0.33736 0.0
H2215 H 0.84654 0.83175 0.3407 0.0
H2216 H 0.89502 0.8392 0.38454 0.0
H2217 H 0.86421 0.87859 0.39527 0.0
H2218 H 0.85928 0.86333 0.40484 0.0
H2219 H 0.86001 0.86875 0.35822 0.0
C2220 C 0.86305 0.82454 0.41689 0.0
C2221 C 0.8539 0.82359 0.39018 0.0
C2222 C 0.87155 0.83396 0.41523 0.0
C2223 C 0.87106 0.84257 0.38681 0.0
C2224 C 0.86192 0.8416 0.36014 0.0
H2225 H 0.93223 0.88688 0.31526 0.0
H2226 H 0.91625 0.87156 0.32055 0.0
C2227 C 0.85337 0.83229 0.36199 0.0
C2228 C 0.88043 0.85218 0.38384 0.0
H2229 H 0.88429 0.88271 0.37379 0.0
C2230 C 0.89268 0.84873 0.3825 0.0
C2231 C 0.8774 0.86463 0.38159 0.0
C2232 C 0.86452 0.86906 0.38545 0.0
C2233 C 0.90195 0.85734 0.37835 0.0
C2234 C 0.89888 0.86973 0.37429 0.0
C2235 C 0.88665 0.8732 0.37629 0.0
C2236 C 0.90822 0.87931 0.36951 0.0
C2237 C 0.91495 0.85307 0.3792 0.0
C2238 C 0.90868 0.88908 0.39415 0.0
C2239 C 0.91763 0.89796 0.39071 0.0
C2240 C 0.92635 0.89724 0.36263 0.0
C2241 C 0.9257 0.88763 0.33734 0.0
C2242 C 0.91663 0.87881 0.34055 0.0
H2243 H 0.91582 0.84413 0.39301 0.0
H2244 H 0.9183 0.85204 0.35063 0.0
H2245 H 0.92086 0.85968 0.39365 0.0
H2246 H 0.90226 0.88971 0.41658 0.0
H2247 H 0.91787 0.90523 0.41069 0.0
H2248 H 0.34725 0.67083 0.66181 0.0
H2249 H 0.36252 0.65499 0.66787 0.0
H2250 H 0.38006 0.66767 0.56918 0.0
H2251 H 0.365 0.6839 0.56366 0.0
H2252 H 0.36867 0.63649 0.62609 0.0
H2253 H 0.40817 0.66721 0.63917 0.0
H2254 H 0.39276 0.67264 0.6407 0.0
H2255 H 0.39991 0.66948 0.5973 0.0
C2256 C 0.35433 0.67026 0.64129 0.0
C2257 C 0.35495 0.67868 0.61235 0.0
C2258 C 0.36307 0.66118 0.64483 0.0
C2259 C 0.3726 0.66027 0.61944 0.0
C2260 C 0.37301 0.6684 0.58973 0.0
H2261 H 0.4184 0.5971 0.59271 0.0
H2262 H 0.40261 0.6125 0.58904 0.0
C2263 C 0.36433 0.6776 0.5864 0.0
C2264 C 0.382 0.65075 0.62421 0.0
H2265 H 0.41252 0.64621 0.63228 0.0
C2266 C 0.37826 0.63863 0.62758 0.0
C2267 C 0.3945 0.65354 0.62694 0.0
C2268 C 0.39908 0.66643 0.62623 0.0
C2269 C 0.38665 0.62923 0.63302 0.0
C2270 C 0.39918 0.63196 0.63399 0.0
C2271 C 0.40292 0.6441 0.63122 0.0
C2272 C 0.40859 0.62238 0.63713 0.0
C2273 C 0.38194 0.6165 0.63842 0.0
C2274 C 0.41744 0.62293 0.66488 0.0
C2275 C 0.42664 0.61421 0.66671 0.0
C2276 C 0.42713 0.60476 0.64086 0.0
C2277 C 0.4182 0.60417 0.61335 0.0
C2278 C 0.4091 0.61295 0.61131 0.0
H2279 H 0.37249 0.61653 0.64897 0.0
H2280 H 0.38192 0.61172 0.61162 0.0
H2281 H 0.38771 0.61132 0.65787 0.0
H2282 H 0.41726 0.63016 0.685 0.0
H2283 H 0.43341 0.61494 0.68813 0.0
H2284 H 0.63141 0.1866 0.9251 0.0
H2285 H 0.61592 0.17084 0.91865 0.0
H2286 H 0.64125 0.14853 0.85885 0.0
H2287 H 0.65666 0.1643 0.86448 0.0
H2288 H 0.61957 0.15032 0.82385 0.0
H2289 H 0.61242 0.13844 0.97035 0.0
H2290 H 0.61059 0.15429 0.9606 0.0
H2291 H 0.6252 0.1473 0.95498 0.0
C2292 C 0.63373 0.17826 0.91105 0.0
C2293 C 0.64526 0.1767 0.89534 0.0
C2294 C 0.62487 0.16924 0.90748 0.0
C2295 C 0.62746 0.15845 0.88855 0.0
C2296 C 0.63905 0.15678 0.87356 0.0
H2297 H 0.58463 0.09277 0.88782 0.0
H2298 H 0.60042 0.10816 0.89382 0.0
C2299 C 0.64786 0.1658 0.87692 0.0
C2300 C 0.61796 0.14911 0.8827 0.0
H2301 H 0.59853 0.13009 0.92742 0.0
C2302 C 0.61498 0.14587 0.84649 0.0
C2303 C 0.61207 0.14324 0.91227 0.0
C2304 C 0.61529 0.14589 0.95175 0.0
C2305 C 0.60625 0.13695 0.83901 0.0
C2306 C 0.60014 0.13129 0.86856 0.0
C2307 C 0.60316 0.1345 0.90478 0.0
C2308 C 0.59079 0.12181 0.86269 0.0
C2309 C 0.60385 0.13347 0.79959 0.0
C2310 C 0.58015 0.12433 0.84289 0.0
C2311 C 0.57113 0.1155 0.83911 0.0
C2312 C 0.57253 0.10404 0.85548 0.0
C2313 C 0.58326 0.1015 0.87485 0.0
C2314 C 0.59229 0.1103 0.87841 0.0
H2315 H 0.61145 0.13617 0.78129 0.0
H2316 H 0.60241 0.12355 0.79688 0.0
H2317 H 0.59555 0.13815 0.78989 0.0
H2318 H 0.57869 0.13323 0.83113 0.0
H2319 H 0.56292 0.11777 0.82432 0.0
H2320 H 0.08519 0.59371 0.38796 0.0
H2321 H 0.10054 0.60954 0.39374 0.0
H2322 H 0.07743 0.63444 0.33511 0.0
H2323 H 0.06207 0.61853 0.32853 0.0
H2324 H 0.10118 0.63594 0.31317 0.0
H2325 H 0.09822 0.63779 0.46499 0.0
H2326 H 0.10149 0.62287 0.448 0.0
H2327 H 0.08721 0.62991 0.43717 0.0
C2328 C 0.08339 0.60253 0.37606 0.0
C2329 C 0.07237 0.60489 0.35801 0.0
C2330 C 0.09214 0.61159 0.37967 0.0
C2331 C 0.09 0.62325 0.36571 0.0
C2332 C 0.07921 0.62553 0.34642 0.0
H2333 H 0.13226 0.68739 0.42443 0.0
H2334 H 0.11625 0.67214 0.41793 0.0
C2335 C 0.07046 0.61643 0.34261 0.0
C2336 C 0.09905 0.63303 0.37128 0.0
H2337 H 0.11488 0.6482 0.43759 0.0
C2338 C 0.10413 0.63867 0.34036 0.0
C2339 C 0.10273 0.63675 0.40682 0.0
C2340 C 0.09704 0.63161 0.44115 0.0
C2341 C 0.11304 0.64768 0.34397 0.0
C2342 C 0.11717 0.65095 0.37946 0.0
C2343 C 0.11183 0.64557 0.41041 0.0
C2344 C 0.12704 0.6599 0.38496 0.0
C2345 C 0.11784 0.65372 0.30972 0.0
C2346 C 0.13854 0.65789 0.36962 0.0
C2347 C 0.14767 0.66658 0.37318 0.0
C2348 C 0.14553 0.6774 0.39256 0.0
C2349 C 0.13418 0.67916 0.40932 0.0
C2350 C 0.12502 0.67047 0.40556 0.0
H2351 H 0.1114 0.65282 0.2864 0.0
H2352 H 0.11963 0.66349 0.3145 0.0
H2353 H 0.12647 0.64931 0.30158 0.0
H2354 H 0.14041 0.64965 0.3545 0.0
H2355 H 0.15634 0.66489 0.3602 0.0
H2356 H 0.63508 0.81656 0.55951 0.0
H2357 H 0.61996 0.83279 0.56367 0.0
H2358 H 0.63851 0.84745 0.65805 0.0
H2359 H 0.6538 0.83158 0.65334 0.0
H2360 H 0.6044 0.8377 0.6176 0.0
H2361 H 0.63417 0.87752 0.59802 0.0
H2362 H 0.63921 0.86226 0.58891 0.0
H2363 H 0.63923 0.86811 0.63511 0.0
C2364 C 0.63602 0.82335 0.5808 0.0
C2365 C 0.64569 0.82284 0.6059 0.0
C2366 C 0.62736 0.8326 0.58322 0.0
C2367 C 0.6282 0.84147 0.61081 0.0
C2368 C 0.63784 0.84094 0.6359 0.0
H2369 H 0.56742 0.8855 0.68759 0.0
H2370 H 0.58365 0.87045 0.68162 0.0
C2371 C 0.64655 0.83179 0.63327 0.0
C2372 C 0.6187 0.85094 0.61457 0.0
H2373 H 0.61442 0.88149 0.6222 0.0
C2374 C 0.60658 0.84728 0.61833 0.0
C2375 C 0.62152 0.86346 0.61511 0.0
C2376 C 0.63422 0.86808 0.60868 0.0
C2377 C 0.59722 0.85576 0.62315 0.0
C2378 C 0.60011 0.86825 0.62542 0.0
C2379 C 0.61221 0.87192 0.62108 0.0
C2380 C 0.59066 0.87771 0.63059 0.0
C2381 C 0.58431 0.85125 0.62491 0.0
C2382 C 0.58957 0.88713 0.60493 0.0
C2383 C 0.58049 0.89586 0.6087 0.0
C2384 C 0.57226 0.89533 0.63816 0.0
C2385 C 0.57357 0.8861 0.66445 0.0
C2386 C 0.58276 0.87742 0.66088 0.0
H2387 H 0.58338 0.84213 0.61231 0.0
H2388 H 0.58148 0.85054 0.65407 0.0
H2389 H 0.57803 0.85756 0.61067 0.0
H2390 H 0.59559 0.88759 0.58146 0.0
H2391 H 0.57975 0.90285 0.58792 0.0
H2392 H 0.41592 0.40616 0.88966 0.0
H2393 H 0.40066 0.39025 0.89564 0.0
H2394 H 0.42354 0.36568 0.83491 0.0
H2395 H 0.43879 0.38168 0.8281 0.0
H2396 H 0.39977 0.36405 0.81421 0.0
H2397 H 0.40347 0.36181 0.96584 0.0
H2398 H 0.39997 0.37674 0.94939 0.0
H2399 H 0.41427 0.36988 0.93777 0.0
C2400 C 0.41769 0.3974 0.87733 0.0
C2401 C 0.42861 0.39515 0.85862 0.0
C2402 C 0.40899 0.38828 0.88105 0.0
C2403 C 0.4111 0.37669 0.86657 0.0
C2404 C 0.42178 0.37454 0.84663 0.0
H2405 H 0.36999 0.31186 0.92553 0.0
H2406 H 0.38571 0.3274 0.91884 0.0
C2407 C 0.43048 0.38369 0.84268 0.0
C2408 C 0.40214 0.36683 0.8723 0.0
H2409 H 0.38682 0.35127 0.93888 0.0
C2410 C 0.39698 0.36121 0.84146 0.0
C2411 C 0.39868 0.36297 0.90789 0.0
C2412 C 0.40447 0.36807 0.94212 0.0
C2413 C 0.38821 0.35208 0.84522 0.0
C2414 C 0.38429 0.34866 0.88079 0.0
C2415 C 0.3897 0.35403 0.91164 0.0
C2416 C 0.37459 0.33953 0.88649 0.0
C2417 C 0.38334 0.34607 0.81102 0.0
C2418 C 0.363 0.34137 0.87158 0.0
C2419 C 0.35404 0.33251 0.87523 0.0
C2420 C 0.35643 0.32169 0.8943 0.0
C2421 C 0.36787 0.32009 0.91067 0.0
C2422 C 0.37687 0.32895 0.90679 0.0
H2423 H 0.38966 0.34711 0.78746 0.0
H2424 H 0.3817 0.33625 0.81562 0.0
H2425 H 0.37461 0.35037 0.80333 0.0
H2426 H 0.36093 0.34962 0.8567 0.0
H2427 H 0.3453 0.33408 0.86257 0.0
H2428 H 0.84682 0.17039 0.16191 0.0
H2429 H 0.86229 0.15474 0.16791 0.0
H2430 H 0.8799 0.16794 0.06995 0.0
H2431 H 0.86462 0.18397 0.06449 0.0
H2432 H 0.86886 0.13644 0.12576 0.0
H2433 H 0.9078 0.16778 0.14079 0.0
H2434 H 0.8923 0.17294 0.14206 0.0
H2435 H 0.89962 0.17003 0.09876 0.0
C2436 C 0.85395 0.16996 0.14153 0.0
C2437 C 0.85453 0.17848 0.11284 0.0
C2438 C 0.86281 0.161 0.14503 0.0
C2439 C 0.87241 0.1603 0.11985 0.0
C2440 C 0.87277 0.16851 0.09034 0.0
H2441 H 0.91931 0.09797 0.09297 0.0
H2442 H 0.90333 0.11317 0.0891 0.0
C2443 C 0.86397 0.1776 0.08704 0.0
C2444 C 0.88195 0.15092 0.12465 0.0
H2445 H 0.91251 0.14688 0.1336 0.0
C2446 C 0.8784 0.13873 0.1276 0.0
C2447 C 0.89439 0.15392 0.12785 0.0
C2448 C 0.89876 0.16689 0.12759 0.0
C2449 C 0.88693 0.12946 0.13307 0.0
C2450 C 0.89941 0.13241 0.13451 0.0
C2451 C 0.90296 0.14461 0.13217 0.0
C2452 C 0.90896 0.12297 0.13771 0.0
C2453 C 0.88242 0.11665 0.13799 0.0
C2454 C 0.91768 0.12356 0.16581 0.0
C2455 C 0.927 0.11496 0.16777 0.0
C2456 C 0.92773 0.10559 0.14169 0.0
C2457 C 0.91893 0.10498 0.11379 0.0
C2458 C 0.90973 0.11363 0.11163 0.0
H2459 H 0.87293 0.11648 0.14821 0.0
H2460 H 0.88258 0.11193 0.11107 0.0
H2461 H 0.8882 0.11151 0.15752 0.0
H2462 H 0.91732 0.13073 0.18613 0.0
H2463 H 0.93366 0.11571 0.1895 0.0
H2464 H 0.86883 0.68847 0.92766 0.0
H2465 H 0.88477 0.67317 0.92048 0.0
H2466 H 0.85992 0.65023 0.86107 0.0
H2467 H 0.84405 0.66551 0.86746 0.0
H2468 H 0.88628 0.64938 0.94175 0.0
H2469 H 0.88822 0.65279 0.79002 0.0
H2470 H 0.88031 0.66372 0.8181 0.0
H2471 H 0.8733 0.64946 0.80686 0.0
C2472 C 0.86674 0.68013 0.91327 0.0
C2473 C 0.8552 0.67825 0.89787 0.0
C2474 C 0.87587 0.67142 0.90912 0.0
C2475 C 0.87361 0.6607 0.88947 0.0
C2476 C 0.86196 0.65859 0.87543 0.0
H2477 H 0.91524 0.59439 0.89351 0.0
H2478 H 0.89997 0.61029 0.89923 0.0
C2479 C 0.85287 0.6673 0.87939 0.0
C2480 C 0.88341 0.65168 0.88368 0.0
H2481 H 0.89866 0.63608 0.81704 0.0
C2482 C 0.88904 0.64652 0.91449 0.0
C2483 C 0.88716 0.64812 0.84807 0.0
C2484 C 0.88203 0.6539 0.81386 0.0
C2485 C 0.89806 0.63763 0.9107 0.0
C2486 C 0.90136 0.63362 0.87512 0.0
C2487 C 0.896 0.63904 0.84429 0.0
C2488 C 0.91031 0.62375 0.86944 0.0
C2489 C 0.90407 0.63273 0.94485 0.0
C2490 C 0.92095 0.62585 0.84919 0.0
C2491 C 0.92965 0.6167 0.84543 0.0
C2492 C 0.92785 0.6053 0.86184 0.0
C2493 C 0.91697 0.6031 0.88081 0.0
C2494 C 0.90826 0.61222 0.88438 0.0
H2495 H 0.90314 0.63908 0.96837 0.0
H2496 H 0.89968 0.62405 0.95268 0.0
H2497 H 0.91386 0.63097 0.94011 0.0
H2498 H 0.92265 0.63466 0.83713 0.0
H2499 H 0.93794 0.61868 0.83063 0.0
H2500 H 0.15746 0.1657 0.64066 0.0
H2501 H 0.14221 0.14978 0.6466 0.0
H2502 H 0.11709 0.17116 0.58299 0.0
H2503 H 0.13242 0.18705 0.57621 0.0
H2504 H 0.1203 0.15158 0.67988 0.0
H2505 H 0.1143 0.13829 0.53406 0.0
H2506 H 0.12685 0.14747 0.54944 0.0
H2507 H 0.11219 0.1542 0.54219 0.0
C2508 C 0.14875 0.16696 0.62745 0.0
C2509 C 0.14617 0.17763 0.60785 0.0
C2510 C 0.14003 0.15786 0.63098 0.0
C2511 C 0.12854 0.15923 0.61501 0.0
C2512 C 0.12597 0.16979 0.59493 0.0
H2513 H 0.06374 0.11892 0.67841 0.0
H2514 H 0.0796 0.13429 0.67163 0.0
C2515 C 0.13474 0.17889 0.59117 0.0
C2516 C 0.1191 0.14984 0.62105 0.0
H2517 H 0.10007 0.13032 0.57671 0.0
C2518 C 0.1159 0.1469 0.65732 0.0
C2519 C 0.11346 0.14366 0.59162 0.0
C2520 C 0.11694 0.14596 0.55214 0.0
C2521 C 0.10716 0.138 0.66498 0.0
C2522 C 0.10127 0.13206 0.63553 0.0
C2523 C 0.10453 0.13495 0.59927 0.0
C2524 C 0.09188 0.12262 0.64157 0.0
C2525 C 0.10452 0.13486 0.70453 0.0
C2526 C 0.09346 0.111 0.6267 0.0
C2527 C 0.08438 0.10226 0.63023 0.0
C2528 C 0.07352 0.10495 0.64872 0.0
C2529 C 0.07205 0.11652 0.66432 0.0
C2530 C 0.08112 0.12531 0.66056 0.0
H2531 H 0.11201 0.13771 0.72302 0.0
H2532 H 0.09617 0.13964 0.71339 0.0
H2533 H 0.10303 0.12497 0.70793 0.0
H2534 H 0.10168 0.10873 0.61194 0.0
H2535 H 0.0858 0.09344 0.61787 0.0
H2536 H 0.56044 0.38179 0.32845 0.0
H2537 H 0.57591 0.36603 0.33571 0.0
H2538 H 0.59813 0.39086 0.39764 0.0
H2539 H 0.58267 0.40655 0.39117 0.0
H2540 H 0.59986 0.36488 0.31592 0.0
H2541 H 0.59541 0.36221 0.46732 0.0
H2542 H 0.5846 0.37013 0.43886 0.0
H2543 H 0.5987 0.37724 0.45127 0.0
C2544 C 0.56866 0.38392 0.34339 0.0
C2545 C 0.57028 0.39539 0.35951 0.0
C2546 C 0.57748 0.37489 0.34759 0.0
C2547 C 0.58804 0.37718 0.36798 0.0
C2548 C 0.5899 0.38879 0.38268 0.0
H2549 H 0.65463 0.33587 0.36643 0.0
H2550 H 0.63874 0.35114 0.36039 0.0
C2551 C 0.58109 0.39778 0.37869 0.0
C2552 C 0.59713 0.36746 0.37394 0.0
H2553 H 0.61236 0.35201 0.44094 0.0
C2554 C 0.60255 0.36202 0.34324 0.0
C2555 C 0.60047 0.36357 0.40962 0.0
C2556 C 0.5944 0.3685 0.44365 0.0
C2557 C 0.61148 0.35304 0.34724 0.0
C2558 C 0.61525 0.34959 0.38293 0.0
C2559 C 0.60958 0.35478 0.41362 0.0
C2560 C 0.6251 0.34065 0.38889 0.0
C2561 C 0.61666 0.34722 0.31316 0.0
C2562 C 0.6229 0.32992 0.40855 0.0
C2563 C 0.63203 0.32121 0.41251 0.0
C2564 C 0.64354 0.3231 0.39688 0.0
C2565 C 0.64584 0.33408 0.37852 0.0
C2566 C 0.63674 0.34279 0.37477 0.0
H2567 H 0.61048 0.34824 0.28926 0.0
H2568 H 0.62537 0.35169 0.30613 0.0
H2569 H 0.61843 0.33742 0.31759 0.0
H2570 H 0.614 0.32814 0.41998 0.0
H2571 H 0.62997 0.31285 0.42681 0.0
H2572 H 0.34341 0.83555 0.1374 0.0
H2573 H 0.35867 0.85147 0.14324 0.0
H2574 H 0.384 0.82975 0.0815 0.0
H2575 H 0.36866 0.81386 0.07479 0.0
H2576 H 0.38033 0.84978 0.17754 0.0
H2577 H 0.38727 0.86236 0.03157 0.0
H2578 H 0.3746 0.85328 0.04661 0.0
H2579 H 0.38928 0.84648 0.04038 0.0
C2580 C 0.35217 0.83422 0.12456 0.0
C2581 C 0.35481 0.82345 0.10554 0.0
C2582 C 0.36089 0.84332 0.12803 0.0
C2583 C 0.37245 0.84185 0.11258 0.0
C2584 C 0.37507 0.83119 0.09302 0.0
H2585 H 0.43722 0.88175 0.17802 0.0
H2586 H 0.42119 0.86658 0.17103 0.0
C2587 C 0.3663 0.8221 0.0893 0.0
C2588 C 0.3819 0.85122 0.11872 0.0
H2589 H 0.40137 0.87036 0.07461 0.0
C2590 C 0.3849 0.85432 0.15503 0.0
C2591 C 0.38777 0.85722 0.08935 0.0
C2592 C 0.3845 0.85477 0.04979 0.0
C2593 C 0.39368 0.86318 0.1628 0.0
C2594 C 0.39981 0.86891 0.13343 0.0
C2595 C 0.39673 0.86588 0.09712 0.0
C2596 C 0.40928 0.87825 0.13959 0.0
C2597 C 0.3961 0.86648 0.20235 0.0
C2598 C 0.40799 0.88981 0.12401 0.0
C2599 C 0.41717 0.89843 0.12765 0.0
C2600 C 0.42786 0.89568 0.14697 0.0
C2601 C 0.42905 0.88419 0.16328 0.0
C2602 C 0.41987 0.87552 0.1594 0.0
H2603 H 0.38844 0.86385 0.22048 0.0
H2604 H 0.40431 0.86161 0.21197 0.0
H2605 H 0.39771 0.87637 0.20539 0.0
H2606 H 0.3999 0.89211 0.10861 0.0
H2607 H 0.41597 0.9072 0.11473 0.0
H2608 H 0.9142 0.40632 0.61599 0.0
H2609 H 0.89853 0.39079 0.61072 0.0
H2610 H 0.92131 0.36553 0.66916 0.0
H2611 H 0.93698 0.38114 0.67524 0.0
H2612 H 0.90037 0.36917 0.57525 0.0
H2613 H 0.88914 0.36172 0.7221 0.0
H2614 H 0.89782 0.3746 0.70657 0.0
H2615 H 0.90496 0.36004 0.71168 0.0
C2616 C 0.91583 0.39752 0.62821 0.0
C2617 C 0.92683 0.39497 0.64614 0.0
C2618 C 0.90687 0.38864 0.62506 0.0
C2619 C 0.9087 0.37703 0.63976 0.0
C2620 C 0.91959 0.3745 0.65821 0.0
H2621 H 0.86797 0.3124 0.57626 0.0
H2622 H 0.88344 0.32818 0.58271 0.0
C2623 C 0.92856 0.38341 0.66157 0.0
C2624 C 0.89941 0.36747 0.63413 0.0
H2625 H 0.88065 0.34789 0.67927 0.0
C2626 C 0.89604 0.36453 0.59799 0.0
C2627 C 0.89369 0.36151 0.66382 0.0
C2628 C 0.89648 0.36469 0.70324 0.0
C2629 C 0.88713 0.35576 0.59073 0.0
C2630 C 0.88161 0.34959 0.6204 0.0
C2631 C 0.88495 0.35257 0.65654 0.0
C2632 C 0.87212 0.34024 0.61475 0.0
C2633 C 0.8835 0.35341 0.5514 0.0
C2634 C 0.86067 0.34171 0.63086 0.0
C2635 C 0.85186 0.33268 0.62748 0.0
C2636 C 0.85434 0.32197 0.60794 0.0
C2637 C 0.86575 0.3206 0.59119 0.0
C2638 C 0.87459 0.32962 0.59477 0.0
H2639 H 0.88613 0.36102 0.53308 0.0
H2640 H 0.88816 0.34512 0.54147 0.0
H2641 H 0.87357 0.35196 0.54903 0.0
H2642 H 0.85857 0.34982 0.6464 0.0
H2643 H 0.84318 0.33403 0.64075 0.0
H2644 H 0.34362 0.16595 0.36037 0.0
H2645 H 0.35881 0.14994 0.35502 0.0
H2646 H 0.384 0.17145 0.418 0.0
H2647 H 0.36873 0.18742 0.42421 0.0
H2648 H 0.38068 0.15143 0.32179 0.0
H2649 H 0.38668 0.13881 0.46813 0.0
H2650 H 0.37418 0.148 0.45242 0.0
H2651 H 0.38889 0.15467 0.4594 0.0
C2652 C 0.35233 0.16721 0.37357 0.0
C2653 C 0.35496 0.17795 0.39283 0.0
C2654 C 0.36102 0.15806 0.37037 0.0
C2655 C 0.37251 0.15944 0.38635 0.0
C2656 C 0.37511 0.17007 0.40607 0.0
H2657 H 0.43726 0.11888 0.32448 0.0
H2658 H 0.42132 0.1342 0.33041 0.0
C2659 C 0.36638 0.17921 0.40951 0.0
C2660 C 0.38191 0.14999 0.38069 0.0
H2661 H 0.40094 0.13066 0.42583 0.0
C2662 C 0.38508 0.14685 0.34454 0.0
C2663 C 0.38755 0.14394 0.41037 0.0
C2664 C 0.38409 0.14642 0.44976 0.0
C2665 C 0.39381 0.1379 0.33725 0.0
C2666 C 0.39971 0.13211 0.36693 0.0
C2667 C 0.39647 0.13518 0.40308 0.0
C2668 C 0.40913 0.12267 0.3613 0.0
C2669 C 0.39642 0.13456 0.29783 0.0
C2670 C 0.40764 0.11114 0.3769 0.0
C2671 C 0.41677 0.10243 0.37388 0.0
C2672 C 0.4276 0.10507 0.35515 0.0
C2673 C 0.42898 0.11653 0.33877 0.0
C2674 C 0.41986 0.12528 0.34204 0.0
H2675 H 0.38888 0.13727 0.2793 0.0
H2676 H 0.40472 0.13935 0.28863 0.0
H2677 H 0.39795 0.12466 0.2949 0.0
H2678 H 0.39944 0.10893 0.39188 0.0
H2679 H 0.41541 0.0937 0.38682 0.0
H2680 H 0.63461 0.68201 0.06287 0.0
H2681 H 0.61927 0.66602 0.06775 0.0
H2682 H 0.63661 0.65262 0.16593 0.0
H2683 H 0.65213 0.66823 0.16051 0.0
H2684 H 0.63001 0.63439 0.12349 0.0
H2685 H 0.59124 0.66598 0.13813 0.0
H2686 H 0.59952 0.66819 0.09626 0.0
H2687 H 0.60678 0.67104 0.13971 0.0
C2688 C 0.63518 0.6756 0.08533 0.0
C2689 C 0.64456 0.67643 0.11138 0.0
C2690 C 0.62635 0.66653 0.0883 0.0
C2691 C 0.62661 0.65828 0.11772 0.0
C2692 C 0.63616 0.65891 0.14311 0.0
H2693 H 0.56502 0.6142 0.18709 0.0
H2694 H 0.5815 0.62907 0.18363 0.0
C2695 C 0.64505 0.66786 0.13994 0.0
C2696 C 0.61701 0.64896 0.12229 0.0
H2697 H 0.58642 0.64511 0.131 0.0
C2698 C 0.62048 0.63675 0.12524 0.0
C2699 C 0.60458 0.65204 0.12537 0.0
C2700 C 0.6003 0.66503 0.1251 0.0
C2701 C 0.61189 0.62753 0.13066 0.0
C2702 C 0.59942 0.63055 0.13204 0.0
C2703 C 0.59596 0.64278 0.12964 0.0
C2704 C 0.5898 0.62119 0.13532 0.0
C2705 C 0.61631 0.61469 0.13563 0.0
C2706 C 0.58897 0.61183 0.10935 0.0
C2707 C 0.57969 0.60325 0.11158 0.0
C2708 C 0.57089 0.60398 0.13943 0.0
C2709 C 0.57169 0.61337 0.16541 0.0
C2710 C 0.58108 0.62189 0.16339 0.0
H2711 H 0.6258 0.61446 0.14585 0.0
H2712 H 0.61049 0.60959 0.15517 0.0
H2713 H 0.61612 0.60996 0.10873 0.0
H2714 H 0.59537 0.61128 0.08684 0.0
H2715 H 0.57926 0.59623 0.09083 0.0
H2716 H 0.08028 0.90276 0.90874 0.0
H2717 H 0.09618 0.88753 0.91354 0.0
H2718 H 0.08271 0.86996 0.81585 0.0
H2719 H 0.06642 0.88502 0.8116 0.0
H2720 H 0.08723 0.8538 0.86823 0.0
H2721 H 0.12692 0.88417 0.85643 0.0
H2722 H 0.11707 0.88869 0.89311 0.0
H2723 H 0.11172 0.88919 0.84638 0.0
C2724 C 0.08076 0.89575 0.88798 0.0
C2725 C 0.07212 0.89514 0.85963 0.0
C2726 C 0.08992 0.88707 0.89066 0.0
C2727 C 0.09081 0.87772 0.86466 0.0
C2728 C 0.08225 0.87713 0.83612 0.0
H2729 H 0.15324 0.8305 0.84414 0.0
H2730 H 0.13776 0.84611 0.83738 0.0
C2731 C 0.07297 0.88576 0.83365 0.0
C2732 C 0.10034 0.86827 0.86837 0.0
H2733 H 0.13081 0.86421 0.87913 0.0
C2734 C 0.09677 0.85607 0.87031 0.0
C2735 C 0.11281 0.8712 0.87067 0.0
C2736 C 0.11737 0.88401 0.86614 0.0
C2737 C 0.1053 0.84674 0.87505 0.0
C2738 C 0.11771 0.84973 0.87914 0.0
C2739 C 0.12129 0.86192 0.87661 0.0
C2740 C 0.12722 0.84033 0.88438 0.0
C2741 C 0.10092 0.83378 0.87475 0.0
C2742 C 0.12662 0.832 0.91355 0.0
C2743 C 0.13542 0.82293 0.91725 0.0
C2744 C 0.1451 0.82219 0.89225 0.0
C2745 C 0.14591 0.83082 0.86393 0.0
C2746 C 0.13705 0.83976 0.85999 0.0
H2747 H 0.09199 0.83291 0.86083 0.0
H2748 H 0.1075 0.82774 0.86069 0.0
H2749 H 0.09981 0.83059 0.90345 0.0
H2750 H 0.11932 0.83248 0.93338 0.0
H2751 H 0.1346 0.81646 0.9395 0.0
loop_
_geom_bond_atom_site_label_1
_geom_bond_atom_site_label_2
_geom_bond_distance
_geom_bond_site_symmetry_2
_ccdc_geom_bond_type
O0 Cd1 2.223 . S
O0 C8 1.315 . S
Cd1 O0 2.223 . S
Cd1 O4 2.297 . S
Cd1 O5 2.439 . S
Cd1 O11 2.240 . S
Cd2 O3 2.240 . S
Cd2 O10 2.223 . S
Cd2 O12 2.297 1_554 S
Cd2 O13 2.439 1_554 S
O3 Cd2 2.240 . S
O3 C8 1.279 . S
O4 Cd1 2.297 . S
O4 C6 1.247 . S
O5 Cd1 2.439 . S
O5 C6 1.208 . S
C6 O4 1.247 . S
C6 O5 1.208 . S
C7 O12 1.247 . S
C7 O13 1.208 . S
C8 O0 1.315 . S
C8 O3 1.279 . S
C9 O10 1.315 . S
C9 O11 1.279 . S
O10 Cd2 2.223 . S
O10 C9 1.315 . S
O11 Cd1 2.240 . S
O11 C9 1.279 . S
O12 Cd2 2.297 1_556 S
O12 C7 1.247 . S
O13 Cd2 2.439 1_556 S
O13 C7 1.208 . S
O14 Cd15 2.223 . S
O14 C22 1.315 . S
Cd15 O14 2.223 . S
Cd15 O18 2.297 . S
Cd15 O19 2.439 . S
Cd15 O25 2.240 . S
Cd16 O17 2.240 . S
Cd16 O24 2.223 . S
Cd16 O26 2.297 . S
Cd16 O27 2.439 . S
O17 Cd16 2.240 . S
O17 C22 1.279 . S
O18 Cd15 2.297 . S
O18 C20 1.247 . S
O19 Cd15 2.439 . S
O19 C20 1.208 . S
C20 O18 1.247 . S
C20 O19 1.208 . S
C21 O26 1.247 . S
C21 O27 1.208 . S
C22 O14 1.315 . S
C22 O17 1.279 . S
C23 O24 1.315 . S
C23 O25 1.279 . S
O24 Cd16 2.223 . S
O24 C23 1.315 . S
O25 Cd15 2.240 . S
O25 C23 1.279 . S
O26 Cd16 2.297 . S
O26 C21 1.247 . S
O27 Cd16 2.439 . S
O27 C21 1.208 . S
O28 Cd29 2.223 . S
O28 C36 1.315 . S
Cd29 O28 2.223 . S
Cd29 O32 2.297 . S
Cd29 O33 2.439 . S
Cd29 O39 2.240 . S
Cd30 O31 2.240 . S
Cd30 O38 2.223 . S
Cd30 O40 2.297 . S
Cd30 O41 2.439 . S
O31 Cd30 2.240 . S
O31 C36 1.279 . S
O32 Cd29 2.297 . S
O32 C34 1.247 . S
O33 Cd29 2.439 . S
O33 C34 1.208 . S
C34 O32 1.247 . S
C34 O33 1.208 . S
C35 O40 1.247 . S
C35 O41 1.208 . S
C36 O28 1.315 . S
C36 O31 1.279 . S
C37 O38 1.315 . S
C37 O39 1.279 . S
O38 Cd30 2.223 . S
O38 C37 1.315 . S
O39 Cd29 2.240 . S
O39 C37 1.279 . S
O40 Cd30 2.297 . S
O40 C35 1.247 . S
O41 Cd30 2.439 . S
O41 C35 1.208 . S
O42 Cd43 2.223 . S
O42 C50 1.315 . S
Cd43 O42 2.223 . S
Cd43 O46 2.297 . S
Cd43 O47 2.439 . S
Cd43 O53 2.240 . S
Cd44 O45 2.240 . S
Cd44 O52 2.223 . S
Cd44 O54 2.297 . S
Cd44 O55 2.439 . S
O45 Cd44 2.240 . S
O45 C50 1.279 . S
O46 Cd43 2.297 . S
O46 C48 1.247 . S
O47 Cd43 2.439 . S
O47 C48 1.208 . S
C48 O46 1.247 . S
C48 O47 1.208 . S
C49 O54 1.247 . S
C49 O55 1.208 . S
C50 O42 1.315 . S
C50 O45 1.279 . S
C51 O52 1.315 . S
C51 O53 1.279 . S
O52 Cd44 2.223 . S
O52 C51 1.315 . S
O53 Cd43 2.240 . S
O53 C51 1.279 . S
O54 Cd44 2.297 . S
O54 C49 1.247 . S
O55 Cd44 2.439 . S
O55 C49 1.208 . S
O56 Cd57 2.223 . S
O56 C64 1.315 . S
Cd57 O56 2.223 . S
Cd57 O60 2.297 . S
Cd57 O61 2.439 . S
Cd57 O67 2.240 . S
Cd58 O59 2.240 . S
Cd58 O66 2.223 . S
Cd58 O68 2.297 . S
Cd58 O69 2.439 . S
O59 Cd58 2.240 . S
O59 C64 1.279 . S
O60 Cd57 2.297 . S
O60 C62 1.247 . S
O61 Cd57 2.439 . S
O61 C62 1.208 . S
C62 O60 1.247 . S
C62 O61 1.208 . S
C63 O68 1.247 . S
C63 O69 1.208 . S
C64 O56 1.315 . S
C64 O59 1.279 . S
C65 O66 1.315 . S
C65 O67 1.279 . S
O66 Cd58 2.223 . S
O66 C65 1.315 . S
O67 Cd57 2.240 . S
O67 C65 1.279 . S
O68 Cd58 2.297 . S
O68 C63 1.247 . S
O69 Cd58 2.439 . S
O69 C63 1.208 . S
O70 Cd71 2.223 . S
O70 C78 1.315 . S
Cd71 O70 2.223 . S
Cd71 O74 2.297 . S
Cd71 O75 2.439 . S
Cd71 O81 2.240 . S
Cd72 O73 2.240 . S
Cd72 O80 2.223 . S
Cd72 O82 2.297 . S
Cd72 O83 2.439 . S
O73 Cd72 2.240 . S
O73 C78 1.279 . S
O74 Cd71 2.297 . S
O74 C76 1.247 . S
O75 Cd71 2.439 . S
O75 C76 1.208 . S
C76 O74 1.247 . S
C76 O75 1.208 . S
C77 O82 1.247 . S
C77 O83 1.208 . S
C78 O70 1.315 . S
C78 O73 1.279 . S
C79 O80 1.315 . S
C79 O81 1.279 . S
O80 Cd72 2.223 . S
O80 C79 1.315 . S
O81 Cd71 2.240 . S
O81 C79 1.279 . S
O82 Cd72 2.297 . S
O82 C77 1.247 . S
O83 Cd72 2.439 . S
O83 C77 1.208 . S
O84 Cd85 2.223 . S
O84 C92 1.315 . S
Cd85 O84 2.223 . S
Cd85 O88 2.297 . S
Cd85 O89 2.439 . S
Cd85 O95 2.240 . S
Cd86 O87 2.240 . S
Cd86 O94 2.223 . S
Cd86 O96 2.297 1_556 S
Cd86 O97 2.439 1_556 S
O87 Cd86 2.240 . S
O87 C92 1.279 . S
O88 Cd85 2.297 . S
O88 C90 1.247 . S
O89 Cd85 2.439 . S
O89 C90 1.208 . S
C90 O88 1.247 . S
C90 O89 1.208 . S
C91 O96 1.247 . S
C91 O97 1.208 . S
C92 O84 1.315 . S
C92 O87 1.279 . S
C93 O94 1.315 . S
C93 O95 1.279 . S
O94 Cd86 2.223 . S
O94 C93 1.315 . S
O95 Cd85 2.240 . S
O95 C93 1.279 . S
O96 Cd86 2.297 1_554 S
O96 C91 1.247 . S
O97 Cd86 2.439 1_554 S
O97 C91 1.208 . S
O98 Cd99 2.223 . S
O98 C106 1.315 . S
Cd99 O98 2.223 . S
Cd99 O102 2.297 . S
Cd99 O103 2.439 . S
Cd99 O109 2.240 . S
Cd100 O101 2.240 . S
Cd100 O108 2.223 . S
Cd100 O110 2.297 . S
Cd100 O111 2.439 . S
O101 Cd100 2.240 . S
O101 C106 1.279 . S
O102 Cd99 2.297 . S
O102 C104 1.247 . S
O103 Cd99 2.439 . S
O103 C104 1.208 . S
C104 O102 1.247 . S
C104 O103 1.208 . S
C105 O110 1.247 . S
C105 O111 1.208 . S
C106 O98 1.315 . S
C106 O101 1.279 . S
C107 O108 1.315 . S
C107 O109 1.279 . S
O108 Cd100 2.223 . S
O108 C107 1.315 . S
O109 Cd99 2.240 . S
O109 C107 1.279 . S
O110 Cd100 2.297 . S
O110 C105 1.247 . S
O111 Cd100 2.439 . S
O111 C105 1.208 . S
O112 Cd113 2.223 . S
O112 C120 1.315 . S
Cd113 O112 2.223 . S
Cd113 O116 2.297 . S
Cd113 O117 2.439 . S
Cd113 O123 2.240 . S
Cd114 O115 2.240 . S
Cd114 O122 2.223 . S
Cd114 O124 2.297 1_556 S
Cd114 O125 2.439 1_556 S
O115 Cd114 2.240 . S
O115 C120 1.279 . S
O116 Cd113 2.297 . S
O116 C118 1.247 . S
O117 Cd113 2.439 . S
O117 C118 1.208 . S
C118 O116 1.247 . S
C118 O117 1.208 . S
C119 O124 1.247 . S
C119 O125 1.208 . S
C120 O112 1.315 . S
C120 O115 1.279 . S
C121 O122 1.315 . S
C121 O123 1.279 . S
O122 Cd114 2.223 . S
O122 C121 1.315 . S
O123 Cd113 2.240 . S
O123 C121 1.279 . S
O124 Cd114 2.297 1_554 S
O124 C119 1.247 . S
O125 Cd114 2.439 1_554 S
O125 C119 1.208 . S
O126 Cd127 2.223 . S
O126 C134 1.315 . S
Cd127 O126 2.223 . S
Cd127 O130 2.297 . S
Cd127 O131 2.439 . S
Cd127 O137 2.240 . S
Cd128 O129 2.240 . S
Cd128 O136 2.223 . S
Cd128 O138 2.297 . S
Cd128 O139 2.439 . S
O129 Cd128 2.240 . S
O129 C134 1.279 . S
O130 Cd127 2.297 . S
O130 C132 1.247 . S
O131 Cd127 2.439 . S
O131 C132 1.208 . S
C132 O130 1.247 . S
C132 O131 1.208 . S
C133 O138 1.247 . S
C133 O139 1.208 . S
C134 O126 1.315 . S
C134 O129 1.279 . S
C135 O136 1.315 . S
C135 O137 1.279 . S
O136 Cd128 2.223 . S
O136 C135 1.315 . S
O137 Cd127 2.240 . S
O137 C135 1.279 . S
O138 Cd128 2.297 . S
O138 C133 1.247 . S
O139 Cd128 2.439 . S
O139 C133 1.208 . S
O140 Cd141 2.223 . S
O140 C148 1.315 . S
Cd141 O140 2.223 . S
Cd141 O144 2.297 . S
Cd141 O145 2.439 . S
Cd141 O151 2.240 . S
Cd142 O143 2.240 . S
Cd142 O150 2.223 . S
Cd142 O152 2.297 . S
Cd142 O153 2.439 . S
O143 Cd142 2.240 . S
O143 C148 1.279 . S
O144 Cd141 2.297 . S
O144 C146 1.247 . S
O145 Cd141 2.439 . S
O145 C146 1.208 . S
C146 O144 1.247 . S
C146 O145 1.208 . S
C147 O152 1.247 . S
C147 O153 1.208 . S
C148 O140 1.315 . S
C148 O143 1.279 . S
C149 O150 1.315 . S
C149 O151 1.279 . S
O150 Cd142 2.223 . S
O150 C149 1.315 . S
O151 Cd141 2.240 . S
O151 C149 1.279 . S
O152 Cd142 2.297 . S
O152 C147 1.247 . S
O153 Cd142 2.439 . S
O153 C147 1.208 . S
O154 Cd155 2.223 . S
O154 C162 1.315 . S
Cd155 O154 2.223 . S
Cd155 O158 2.297 . S
Cd155 O159 2.439 . S
Cd155 O165 2.240 . S
Cd156 O157 2.240 . S
Cd156 O164 2.223 . S
Cd156 O166 2.297 . S
Cd156 O167 2.439 . S
O157 Cd156 2.240 . S
O157 C162 1.279 . S
O158 Cd155 2.297 . S
O158 C160 1.247 . S
O159 Cd155 2.439 . S
O159 C160 1.208 . S
C160 O158 1.247 . S
C160 O159 1.208 . S
C161 O166 1.247 . S
C161 O167 1.208 . S
C162 O154 1.315 . S
C162 O157 1.279 . S
C163 O164 1.315 . S
C163 O165 1.279 . S
O164 Cd156 2.223 . S
O164 C163 1.315 . S
O165 Cd155 2.240 . S
O165 C163 1.279 . S
O166 Cd156 2.297 . S
O166 C161 1.247 . S
O167 Cd156 2.439 . S
O167 C161 1.208 . S
O168 Cd169 2.223 . S
O168 C176 1.315 . S
Cd169 O168 2.223 . S
Cd169 O172 2.297 . S
Cd169 O173 2.439 . S
Cd169 O179 2.240 . S
Cd170 O171 2.240 . S
Cd170 O178 2.223 . S
Cd170 O180 2.297 . S
Cd170 O181 2.439 . S
O171 Cd170 2.240 . S
O171 C176 1.279 . S
O172 Cd169 2.297 . S
O172 C174 1.247 . S
O173 Cd169 2.439 . S
O173 C174 1.208 . S
C174 O172 1.247 . S
C174 O173 1.208 . S
C175 O180 1.247 . S
C175 O181 1.208 . S
C176 O168 1.315 . S
C176 O171 1.279 . S
C177 O178 1.315 . S
C177 O179 1.279 . S
O178 Cd170 2.223 . S
O178 C177 1.315 . S
O179 Cd169 2.240 . S
O179 C177 1.279 . S
O180 Cd170 2.297 . S
O180 C175 1.247 . S
O181 Cd170 2.439 . S
O181 C175 1.208 . S
O182 Cd183 2.223 . S
O182 C190 1.315 . S
Cd183 O182 2.223 . S
Cd183 O186 2.297 . S
Cd183 O187 2.439 . S
Cd183 O193 2.240 . S
Cd184 O185 2.240 . S
Cd184 O192 2.223 . S
Cd184 O194 2.297 . S
Cd184 O195 2.439 . S
O185 Cd184 2.240 . S
O185 C190 1.279 . S
O186 Cd183 2.297 . S
O186 C188 1.247 . S
O187 Cd183 2.439 . S
O187 C188 1.208 . S
C188 O186 1.247 . S
C188 O187 1.208 . S
C189 O194 1.247 . S
C189 O195 1.208 . S
C190 O182 1.315 . S
C190 O185 1.279 . S
C191 O192 1.315 . S
C191 O193 1.279 . S
O192 Cd184 2.223 . S
O192 C191 1.315 . S
O193 Cd183 2.240 . S
O193 C191 1.279 . S
O194 Cd184 2.297 . S
O194 C189 1.247 . S
O195 Cd184 2.439 . S
O195 C189 1.208 . S
O196 Cd197 2.223 . S
O196 C204 1.315 . S
Cd197 O196 2.223 . S
Cd197 O200 2.297 . S
Cd197 O201 2.439 . S
Cd197 O207 2.240 . S
Cd198 O199 2.240 . S
Cd198 O206 2.223 . S
Cd198 O208 2.297 1_554 S
Cd198 O209 2.439 1_554 S
O199 Cd198 2.240 . S
O199 C204 1.279 . S
O200 Cd197 2.297 . S
O200 C202 1.247 . S
O201 Cd197 2.439 . S
O201 C202 1.208 . S
C202 O200 1.247 . S
C202 O201 1.208 . S
C203 O208 1.247 . S
C203 O209 1.208 . S
C204 O196 1.315 . S
C204 O199 1.279 . S
C205 O206 1.315 . S
C205 O207 1.279 . S
O206 Cd198 2.223 . S
O206 C205 1.315 . S
O207 Cd197 2.240 . S
O207 C205 1.279 . S
O208 Cd198 2.297 1_556 S
O208 C203 1.247 . S
O209 Cd198 2.439 1_556 S
O209 C203 1.208 . S
O210 Cd211 2.223 . S
O210 C218 1.315 . S
Cd211 O210 2.223 . S
Cd211 O214 2.297 . S
Cd211 O215 2.439 . S
Cd211 O221 2.240 . S
Cd212 O213 2.240 . S
Cd212 O220 2.223 . S
Cd212 O222 2.297 . S
Cd212 O223 2.439 . S
O213 Cd212 2.240 . S
O213 C218 1.279 . S
O214 Cd211 2.297 . S
O214 C216 1.247 . S
O215 Cd211 2.439 . S
O215 C216 1.208 . S
C216 O214 1.247 . S
C216 O215 1.208 . S
C217 O222 1.247 . S
C217 O223 1.208 . S
C218 O210 1.315 . S
C218 O213 1.279 . S
C219 O220 1.315 . S
C219 O221 1.279 . S
O220 Cd212 2.223 . S
O220 C219 1.315 . S
O221 Cd211 2.240 . S
O221 C219 1.279 . S
O222 Cd212 2.297 . S
O222 C217 1.247 . S
O223 Cd212 2.439 . S
O223 C217 1.208 . S
O224 Cd225 2.223 . S
O224 C232 1.315 . S
Cd225 O224 2.223 . S
Cd225 O228 2.297 . S
Cd225 O229 2.439 . S
Cd225 O235 2.240 . S
Cd226 O227 2.240 . S
Cd226 O234 2.223 . S
Cd226 O236 2.297 . S
Cd226 O237 2.439 . S
O227 Cd226 2.240 . S
O227 C232 1.279 . S
O228 Cd225 2.297 . S
O228 C230 1.247 . S
O229 Cd225 2.439 . S
O229 C230 1.208 . S
C230 O228 1.247 . S
C230 O229 1.208 . S
C231 O236 1.247 . S
C231 O237 1.208 . S
C232 O224 1.315 . S
C232 O227 1.279 . S
C233 O234 1.315 . S
C233 O235 1.279 . S
O234 Cd226 2.223 . S
O234 C233 1.315 . S
O235 Cd225 2.240 . S
O235 C233 1.279 . S
O236 Cd226 2.297 . S
O236 C231 1.247 . S
O237 Cd226 2.439 . S
O237 C231 1.208 . S
O238 Cd239 2.223 . S
O238 C246 1.315 . S
Cd239 O238 2.223 . S
Cd239 O242 2.297 . S
Cd239 O243 2.439 . S
Cd239 O249 2.240 . S
Cd240 O241 2.240 . S
Cd240 O248 2.223 . S
Cd240 O250 2.297 . S
Cd240 O251 2.439 . S
O241 Cd240 2.240 . S
O241 C246 1.279 . S
O242 Cd239 2.297 . S
O242 C244 1.247 . S
O243 Cd239 2.439 . S
O243 C244 1.208 . S
C244 O242 1.247 . S
C244 O243 1.208 . S
C245 O250 1.247 . S
C245 O251 1.208 . S
C246 O238 1.315 . S
C246 O241 1.279 . S
C247 O248 1.315 . S
C247 O249 1.279 . S
O248 Cd240 2.223 . S
O248 C247 1.315 . S
O249 Cd239 2.240 . S
O249 C247 1.279 . S
O250 Cd240 2.297 . S
O250 C245 1.247 . S
O251 Cd240 2.439 . S
O251 C245 1.208 . S
O252 Cd253 2.223 . S
O252 C260 1.315 . S
Cd253 O252 2.223 . S
Cd253 O256 2.297 . S
Cd253 O257 2.439 . S
Cd253 O263 2.240 . S
Cd254 O255 2.240 . S
Cd254 O262 2.223 . S
Cd254 O264 2.297 1_554 S
Cd254 O265 2.439 1_554 S
O255 Cd254 2.240 . S
O255 C260 1.279 . S
O256 Cd253 2.297 . S
O256 C258 1.247 . S
O257 Cd253 2.439 . S
O257 C258 1.208 . S
C258 O256 1.247 . S
C258 O257 1.208 . S
C259 O264 1.247 . S
C259 O265 1.208 . S
C260 O252 1.315 . S
C260 O255 1.279 . S
C261 O262 1.315 . S
C261 O263 1.279 . S
O262 Cd254 2.223 . S
O262 C261 1.315 . S
O263 Cd253 2.240 . S
O263 C261 1.279 . S
O264 Cd254 2.297 1_556 S
O264 C259 1.247 . S
O265 Cd254 2.439 1_556 S
O265 C259 1.208 . S
O266 Cd267 2.223 . S
O266 C274 1.315 . S
Cd267 O266 2.223 . S
Cd267 O270 2.297 . S
Cd267 O271 2.439 . S
Cd267 O277 2.240 . S
Cd268 O269 2.240 . S
Cd268 O276 2.223 . S
Cd268 O278 2.297 . S
Cd268 O279 2.439 . S
O269 Cd268 2.240 . S
O269 C274 1.279 . S
O270 Cd267 2.297 . S
O270 C272 1.247 . S
O271 Cd267 2.439 . S
O271 C272 1.208 . S
C272 O270 1.247 . S
C272 O271 1.208 . S
C273 O278 1.247 . S
C273 O279 1.208 . S
C274 O266 1.315 . S
C274 O269 1.279 . S
C275 O276 1.315 . S
C275 O277 1.279 . S
O276 Cd268 2.223 . S
O276 C275 1.315 . S
O277 Cd267 2.240 . S
O277 C275 1.279 . S
O278 Cd268 2.297 . S
O278 C273 1.247 . S
O279 Cd268 2.439 . S
O279 C273 1.208 . S
O280 Cd281 2.223 . S
O280 C288 1.315 . S
Cd281 O280 2.223 . S
Cd281 O284 2.297 . S
Cd281 O285 2.439 . S
Cd281 O291 2.240 . S
Cd282 O283 2.240 . S
Cd282 O290 2.223 . S
Cd282 O292 2.297 1_556 S
Cd282 O293 2.439 1_556 S
O283 Cd282 2.240 . S
O283 C288 1.279 . S
O284 Cd281 2.297 . S
O284 C286 1.247 . S
O285 Cd281 2.439 . S
O285 C286 1.208 . S
C286 O284 1.247 . S
C286 O285 1.208 . S
C287 O292 1.247 . S
C287 O293 1.208 . S
C288 O280 1.315 . S
C288 O283 1.279 . S
C289 O290 1.315 . S
C289 O291 1.279 . S
O290 Cd282 2.223 . S
O290 C289 1.315 . S
O291 Cd281 2.240 . S
O291 C289 1.279 . S
O292 Cd282 2.297 1_554 S
O292 C287 1.247 . S
O293 Cd282 2.439 1_554 S
O293 C287 1.208 . S
O294 Cd295 2.223 . S
O294 C302 1.315 . S
Cd295 O294 2.223 . S
Cd295 O298 2.297 . S
Cd295 O299 2.439 . S
Cd295 O305 2.240 . S
Cd296 O297 2.240 . S
Cd296 O304 2.223 . S
Cd296 O306 2.297 . S
Cd296 O307 2.439 . S
O297 Cd296 2.240 . S
O297 C302 1.279 . S
O298 Cd295 2.297 . S
O298 C300 1.247 . S
O299 Cd295 2.439 . S
O299 C300 1.208 . S
C300 O298 1.247 . S
C300 O299 1.208 . S
C301 O306 1.247 . S
C301 O307 1.208 . S
C302 O294 1.315 . S
C302 O297 1.279 . S
C303 O304 1.315 . S
C303 O305 1.279 . S
O304 Cd296 2.223 . S
O304 C303 1.315 . S
O305 Cd295 2.240 . S
O305 C303 1.279 . S
O306 Cd296 2.297 . S
O306 C301 1.247 . S
O307 Cd296 2.439 . S
O307 C301 1.208 . S
O308 Cd309 2.223 . S
O308 C316 1.315 . S
Cd309 O308 2.223 . S
Cd309 O312 2.297 . S
Cd309 O313 2.439 . S
Cd309 O319 2.240 . S
Cd310 O311 2.240 . S
Cd310 O318 2.223 . S
Cd310 O320 2.297 . S
Cd310 O321 2.439 . S
O311 Cd310 2.240 . S
O311 C316 1.279 . S
O312 Cd309 2.297 . S
O312 C314 1.247 . S
O313 Cd309 2.439 . S
O313 C314 1.208 . S
C314 O312 1.247 . S
C314 O313 1.208 . S
C315 O320 1.247 . S
C315 O321 1.208 . S
C316 O308 1.315 . S
C316 O311 1.279 . S
C317 O318 1.315 . S
C317 O319 1.279 . S
O318 Cd310 2.223 . S
O318 C317 1.315 . S
O319 Cd309 2.240 . S
O319 C317 1.279 . S
O320 Cd310 2.297 . S
O320 C315 1.247 . S
O321 Cd310 2.439 . S
O321 C315 1.208 . S
O322 Cd323 2.223 . S
O322 C330 1.315 . S
Cd323 O322 2.223 . S
Cd323 O326 2.297 . S
Cd323 O327 2.439 . S
Cd323 O333 2.240 . S
Cd324 O325 2.240 . S
Cd324 O332 2.223 . S
Cd324 O334 2.297 . S
Cd324 O335 2.439 . S
O325 Cd324 2.240 . S
O325 C330 1.279 . S
O326 Cd323 2.297 . S
O326 C328 1.247 . S
O327 Cd323 2.439 . S
O327 C328 1.208 . S
C328 O326 1.247 . S
C328 O327 1.208 . S
C329 O334 1.247 . S
C329 O335 1.208 . S
C330 O322 1.315 . S
C330 O325 1.279 . S
C331 O332 1.315 . S
C331 O333 1.279 . S
O332 Cd324 2.223 . S
O332 C331 1.315 . S
O333 Cd323 2.240 . S
O333 C331 1.279 . S
O334 Cd324 2.297 . S
O334 C329 1.247 . S
O335 Cd324 2.439 . S
O335 C329 1.208 . S
O336 Cd337 2.223 . S
O336 C344 1.315 . S
Cd337 O336 2.223 . S
Cd337 O340 2.297 . S
Cd337 O341 2.439 . S
Cd337 O347 2.240 . S
Cd338 O339 2.240 . S
Cd338 O346 2.223 . S
Cd338 O348 2.297 . S
Cd338 O349 2.439 . S
O339 Cd338 2.240 . S
O339 C344 1.279 . S
O340 Cd337 2.297 . S
O340 C342 1.247 . S
O341 Cd337 2.439 . S
O341 C342 1.208 . S
C342 O340 1.247 . S
C342 O341 1.208 . S
C343 O348 1.247 . S
C343 O349 1.208 . S
C344 O336 1.315 . S
C344 O339 1.279 . S
C345 O346 1.315 . S
C345 O347 1.279 . S
O346 Cd338 2.223 . S
O346 C345 1.315 . S
O347 Cd337 2.240 . S
O347 C345 1.279 . S
O348 Cd338 2.297 . S
O348 C343 1.247 . S
O349 Cd338 2.439 . S
O349 C343 1.208 . S
O350 Cd351 2.223 . S
O350 C358 1.315 . S
Cd351 O350 2.223 . S
Cd351 O354 2.297 . S
Cd351 O355 2.439 . S
Cd351 O361 2.240 . S
Cd352 O353 2.240 . S
Cd352 O360 2.223 . S
Cd352 O362 2.297 . S
Cd352 O363 2.439 . S
O353 Cd352 2.240 . S
O353 C358 1.279 . S
O354 Cd351 2.297 . S
O354 C356 1.247 . S
O355 Cd351 2.439 . S
O355 C356 1.208 . S
C356 O354 1.247 . S
C356 O355 1.208 . S
C357 O362 1.247 . S
C357 O363 1.208 . S
C358 O350 1.315 . S
C358 O353 1.279 . S
C359 O360 1.315 . S
C359 O361 1.279 . S
O360 Cd352 2.223 . S
O360 C359 1.315 . S
O361 Cd351 2.240 . S
O361 C359 1.279 . S
O362 Cd352 2.297 . S
O362 C357 1.247 . S
O363 Cd352 2.439 . S
O363 C357 1.208 . S
O364 Cd365 2.223 . S
O364 C372 1.315 . S
Cd365 O364 2.223 . S
Cd365 O368 2.297 . S
Cd365 O369 2.439 . S
Cd365 O375 2.240 . S
Cd366 O367 2.240 . S
Cd366 O374 2.223 . S
Cd366 O376 2.297 1_556 S
Cd366 O377 2.439 1_556 S
O367 Cd366 2.240 . S
O367 C372 1.279 . S
O368 Cd365 2.297 . S
O368 C370 1.247 . S
O369 Cd365 2.439 . S
O369 C370 1.208 . S
C370 O368 1.247 . S
C370 O369 1.208 . S
C371 O376 1.247 . S
C371 O377 1.208 . S
C372 O364 1.315 . S
C372 O367 1.279 . S
C373 O374 1.315 . S
C373 O375 1.279 . S
O374 Cd366 2.223 . S
O374 C373 1.315 . S
O375 Cd365 2.240 . S
O375 C373 1.279 . S
O376 Cd366 2.297 1_554 S
O376 C371 1.247 . S
O377 Cd366 2.439 1_554 S
O377 C371 1.208 . S
O378 Cd379 2.223 . S
O378 C386 1.315 . S
Cd379 O378 2.223 . S
Cd379 O382 2.297 . S
Cd379 O383 2.439 . S
Cd379 O389 2.240 . S
Cd380 O381 2.240 . S
Cd380 O388 2.223 . S
Cd380 O390 2.297 . S
Cd380 O391 2.439 . S
O381 Cd380 2.240 . S
O381 C386 1.279 . S
O382 Cd379 2.297 . S
O382 C384 1.247 . S
O383 Cd379 2.439 . S
O383 C384 1.208 . S
C384 O382 1.247 . S
C384 O383 1.208 . S
C385 O390 1.247 . S
C385 O391 1.208 . S
C386 O378 1.315 . S
C386 O381 1.279 . S
C387 O388 1.315 . S
C387 O389 1.279 . S
O388 Cd380 2.223 . S
O388 C387 1.315 . S
O389 Cd379 2.240 . S
O389 C387 1.279 . S
O390 Cd380 2.297 . S
O390 C385 1.247 . S
O391 Cd380 2.439 . S
O391 C385 1.208 . S
O392 Cd393 2.223 . S
O392 C400 1.315 . S
Cd393 O392 2.223 . S
Cd393 O396 2.297 . S
Cd393 O397 2.439 . S
Cd393 O403 2.240 . S
Cd394 O395 2.240 . S
Cd394 O402 2.223 . S
Cd394 O404 2.297 1_554 S
Cd394 O405 2.439 1_554 S
O395 Cd394 2.240 . S
O395 C400 1.279 . S
O396 Cd393 2.297 . S
O396 C398 1.247 . S
O397 Cd393 2.439 . S
O397 C398 1.208 . S
C398 O396 1.247 . S
C398 O397 1.208 . S
C399 O404 1.247 . S
C399 O405 1.208 . S
C400 O392 1.315 . S
C400 O395 1.279 . S
C401 O402 1.315 . S
C401 O403 1.279 . S
O402 Cd394 2.223 . S
O402 C401 1.315 . S
O403 Cd393 2.240 . S
O403 C401 1.279 . S
O404 Cd394 2.297 1_556 S
O404 C399 1.247 . S
O405 Cd394 2.439 1_556 S
O405 C399 1.208 . S
O406 Cd407 2.223 . S
O406 C414 1.315 . S
Cd407 O406 2.223 . S
Cd407 O410 2.297 . S
Cd407 O411 2.439 . S
Cd407 O417 2.240 . S
Cd408 O409 2.240 . S
Cd408 O416 2.223 . S
Cd408 O418 2.297 . S
Cd408 O419 2.439 . S
O409 Cd408 2.240 . S
O409 C414 1.279 . S
O410 Cd407 2.297 . S
O410 C412 1.247 . S
O411 Cd407 2.439 . S
O411 C412 1.208 . S
C412 O410 1.247 . S
C412 O411 1.208 . S
C413 O418 1.247 . S
C413 O419 1.208 . S
C414 O406 1.315 . S
C414 O409 1.279 . S
C415 O416 1.315 . S
C415 O417 1.279 . S
O416 Cd408 2.223 . S
O416 C415 1.315 . S
O417 Cd407 2.240 . S
O417 C415 1.279 . S
O418 Cd408 2.297 . S
O418 C413 1.247 . S
O419 Cd408 2.439 . S
O419 C413 1.208 . S
O420 Cd421 2.223 . S
O420 C428 1.315 . S
Cd421 O420 2.223 . S
Cd421 O424 2.297 . S
Cd421 O425 2.439 . S
Cd421 O431 2.240 . S
Cd422 O423 2.240 . S
Cd422 O430 2.223 . S
Cd422 O432 2.297 . S
Cd422 O433 2.439 . S
O423 Cd422 2.240 . S
O423 C428 1.279 . S
O424 Cd421 2.297 . S
O424 C426 1.247 . S
O425 Cd421 2.439 . S
O425 C426 1.208 . S
C426 O424 1.247 . S
C426 O425 1.208 . S
C427 O432 1.247 . S
C427 O433 1.208 . S
C428 O420 1.315 . S
C428 O423 1.279 . S
C429 O430 1.315 . S
C429 O431 1.279 . S
O430 Cd422 2.223 . S
O430 C429 1.315 . S
O431 Cd421 2.240 . S
O431 C429 1.279 . S
O432 Cd422 2.297 . S
O432 C427 1.247 . S
O433 Cd422 2.439 . S
O433 C427 1.208 . S
O434 Cd435 2.223 . S
O434 C442 1.315 . S
Cd435 O434 2.223 . S
Cd435 O438 2.297 . S
Cd435 O439 2.439 . S
Cd435 O445 2.240 . S
Cd436 O437 2.240 . S
Cd436 O444 2.223 . S
Cd436 O446 2.297 . S
Cd436 O447 2.439 . S
O437 Cd436 2.240 . S
O437 C442 1.279 . S
O438 Cd435 2.297 . S
O438 C440 1.247 . S
O439 Cd435 2.439 . S
O439 C440 1.208 . S
C440 O438 1.247 . S
C440 O439 1.208 . S
C441 O446 1.247 . S
C441 O447 1.208 . S
C442 O434 1.315 . S
C442 O437 1.279 . S
C443 O444 1.315 . S
C443 O445 1.279 . S
O444 Cd436 2.223 . S
O444 C443 1.315 . S
O445 Cd435 2.240 . S
O445 C443 1.279 . S
O446 Cd436 2.297 . S
O446 C441 1.247 . S
O447 Cd436 2.439 . S
O447 C441 1.208 . S
H448 C456 0.929 . S
H449 C458 0.930 . S
H450 C460 0.930 . S
H451 C463 0.929 . S
H452 C466 0.930 . S
H453 C468 0.960 . S
H454 C468 0.960 . S
H455 C468 0.960 . S
C456 H448 0.929 . S
C456 C457 1.377 . S
C456 C458 1.384 . S
C457 C456 1.377 . S
C457 C463 1.390 1_556 S
C458 H449 0.930 . S
C458 C456 1.384 . S
C458 C459 1.372 . S
C459 C458 1.372 . S
C459 C460 1.400 1_556 S
C459 C464 1.490 . S
C460 H450 0.930 . S
C460 C459 1.400 1_554 S
C460 C463 1.386 . S
H461 C477 0.930 . S
H462 C478 0.931 . S
C463 H451 0.929 . S
C463 C457 1.390 1_554 S
C463 C460 1.386 . S
C464 C459 1.490 . S
C464 C466 1.395 . S
C464 C467 1.403 1_556 S
H465 C471 0.930 . S
C466 H452 0.930 . S
C466 C464 1.395 . S
C466 C469 1.403 . S
C467 C464 1.403 1_554 S
C467 C468 1.524 . S
C467 C471 1.400 . S
C468 H453 0.960 . S
C468 H454 0.960 . S
C468 H455 0.960 . S
C468 C467 1.524 . S
C469 C466 1.403 . S
C469 C470 1.392 1_556 S
C469 C473 1.495 . S
C470 C469 1.392 1_554 S
C470 C471 1.385 . S
C470 C472 1.478 . S
C471 H465 0.930 . S
C471 C467 1.400 . S
C471 C470 1.385 . S
C472 C470 1.478 . S
C472 C474 1.381 1_554 S
C472 C478 1.383 . S
C473 C469 1.495 . S
C473 H479 0.959 . S
C473 H480 0.961 . S
C473 H481 0.960 . S
C474 C472 1.381 1_556 S
C474 C475 1.394 . S
C474 H482 0.930 . S
C475 C474 1.394 . S
C475 C476 1.383 1_556 S
C475 H483 0.929 . S
C476 C475 1.383 1_554 S
C476 C477 1.377 . S
C477 H461 0.930 . S
C477 C476 1.377 . S
C477 C478 1.379 . S
C478 H462 0.931 . S
C478 C472 1.383 . S
C478 C477 1.379 . S
H479 C473 0.959 . S
H480 C473 0.961 . S
H481 C473 0.960 . S
H482 C474 0.930 . S
H483 C475 0.929 . S
H484 C492 0.929 . S
H485 C494 0.930 . S
H486 C496 0.930 . S
H487 C499 0.929 . S
H488 C502 0.930 . S
H489 C504 0.960 . S
H490 C504 0.960 . S
H491 C504 0.960 . S
C492 H484 0.929 . S
C492 C493 1.377 . S
C492 C494 1.384 . S
C493 C492 1.377 . S
C493 C499 1.390 . S
C494 H485 0.930 . S
C494 C492 1.384 . S
C494 C495 1.372 . S
C495 C494 1.372 . S
C495 C496 1.400 . S
C495 C500 1.490 . S
C496 H486 0.930 . S
C496 C495 1.400 . S
C496 C499 1.386 . S
H497 C513 0.930 . S
H498 C514 0.931 . S
C499 H487 0.929 . S
C499 C493 1.390 . S
C499 C496 1.386 . S
C500 C495 1.490 . S
C500 C502 1.395 . S
C500 C503 1.403 . S
H501 C507 0.930 . S
C502 H488 0.930 . S
C502 C500 1.395 . S
C502 C505 1.403 1_565 S
C503 C500 1.403 . S
C503 C504 1.524 . S
C503 C507 1.400 1_565 S
C504 H489 0.960 . S
C504 H490 0.960 . S
C504 H491 0.960 . S
C504 C503 1.524 . S
C505 C502 1.403 1_545 S
C505 C506 1.392 . S
C505 C509 1.495 . S
C506 C505 1.392 . S
C506 C507 1.385 . S
C506 C508 1.478 . S
C507 H501 0.930 . S
C507 C503 1.400 1_545 S
C507 C506 1.385 . S
C508 C506 1.478 . S
C508 C510 1.381 . S
C508 C514 1.383 . S
C509 C505 1.495 . S
C509 H515 0.959 . S
C509 H516 0.961 . S
C509 H517 0.960 . S
C510 C508 1.381 . S
C510 C511 1.394 . S
C510 H518 0.930 . S
C511 C510 1.394 . S
C511 C512 1.383 . S
C511 H519 0.929 . S
C512 C511 1.383 . S
C512 C513 1.377 . S
C513 H497 0.930 . S
C513 C512 1.377 . S
C513 C514 1.379 . S
C514 H498 0.931 . S
C514 C508 1.383 . S
C514 C513 1.379 . S
H515 C509 0.959 . S
H516 C509 0.961 . S
H517 C509 0.960 . S
H518 C510 0.930 . S
H519 C511 0.929 . S
H520 C528 0.929 . S
H521 C530 0.930 . S
H522 C532 0.930 . S
H523 C535 0.929 . S
H524 C538 0.930 . S
H525 C540 0.960 . S
H526 C540 0.960 . S
H527 C540 0.960 . S
C528 H520 0.929 . S
C528 C529 1.377 . S
C528 C530 1.384 . S
C529 C528 1.377 . S
C529 C535 1.390 . S
C530 H521 0.930 . S
C530 C528 1.384 . S
C530 C531 1.372 . S
C531 C530 1.372 . S
C531 C532 1.400 . S
C531 C536 1.490 . S
C532 H522 0.930 . S
C532 C531 1.400 . S
C532 C535 1.386 . S
H533 C549 0.930 . S
H534 C550 0.931 . S
C535 H523 0.929 . S
C535 C529 1.390 . S
C535 C532 1.386 . S
C536 C531 1.490 . S
C536 C538 1.395 . S
C536 C539 1.403 . S
H537 C543 0.930 . S
C538 H524 0.930 . S
C538 C536 1.395 . S
C538 C541 1.403 . S
C539 C536 1.403 . S
C539 C540 1.524 . S
C539 C543 1.400 . S
C540 H525 0.960 . S
C540 H526 0.960 . S
C540 H527 0.960 . S
C540 C539 1.524 . S
C541 C538 1.403 . S
C541 C542 1.392 . S
C541 C545 1.495 . S
C542 C541 1.392 . S
C542 C543 1.385 . S
C542 C544 1.478 . S
C543 H537 0.930 . S
C543 C539 1.400 . S
C543 C542 1.385 . S
C544 C542 1.478 . S
C544 C546 1.381 . S
C544 C550 1.383 . S
C545 C541 1.495 . S
C545 H551 0.959 . S
C545 H552 0.961 . S
C545 H553 0.960 . S
C546 C544 1.381 . S
C546 C547 1.394 . S
C546 H554 0.930 . S
C547 C546 1.394 . S
C547 C548 1.383 . S
C547 H555 0.929 . S
C548 C547 1.383 . S
C548 C549 1.377 . S
C549 H533 0.930 . S
C549 C548 1.377 . S
C549 C550 1.379 . S
C550 H534 0.931 . S
C550 C544 1.383 . S
C550 C549 1.379 . S
H551 C545 0.959 . S
H552 C545 0.961 . S
H553 C545 0.960 . S
H554 C546 0.930 . S
H555 C547 0.929 . S
H556 C564 0.929 . S
H557 C566 0.930 . S
H558 C568 0.930 . S
H559 C571 0.929 . S
H560 C574 0.930 . S
H561 C576 0.960 . S
H562 C576 0.960 . S
H563 C576 0.960 . S
C564 H556 0.929 . S
C564 C565 1.377 . S
C564 C566 1.384 . S
C565 C564 1.377 . S
C565 C571 1.390 . S
C566 H557 0.930 . S
C566 C564 1.384 . S
C566 C567 1.372 . S
C567 C566 1.372 . S
C567 C568 1.400 . S
C567 C572 1.490 . S
C568 H558 0.930 . S
C568 C567 1.400 . S
C568 C571 1.386 . S
H569 C585 0.930 . S
H570 C586 0.931 . S
C571 H559 0.929 . S
C571 C565 1.390 . S
C571 C568 1.386 . S
C572 C567 1.490 . S
C572 C574 1.395 . S
C572 C575 1.403 . S
H573 C579 0.930 . S
C574 H560 0.930 . S
C574 C572 1.395 . S
C574 C577 1.403 1_545 S
C575 C572 1.403 . S
C575 C576 1.524 . S
C575 C579 1.400 1_545 S
C576 H561 0.960 . S
C576 H562 0.960 . S
C576 H563 0.960 . S
C576 C575 1.524 . S
C577 C574 1.403 1_565 S
C577 C578 1.392 . S
C577 C581 1.495 . S
C578 C577 1.392 . S
C578 C579 1.385 . S
C578 C580 1.478 . S
C579 H573 0.930 . S
C579 C575 1.400 1_565 S
C579 C578 1.385 . S
C580 C578 1.478 . S
C580 C582 1.381 . S
C580 C586 1.383 . S
C581 C577 1.495 . S
C581 H587 0.959 . S
C581 H588 0.961 . S
C581 H589 0.960 . S
C582 C580 1.381 . S
C582 C583 1.394 . S
C582 H590 0.930 . S
C583 C582 1.394 . S
C583 C584 1.383 . S
C583 H591 0.929 . S
C584 C583 1.383 . S
C584 C585 1.377 . S
C585 H569 0.930 . S
C585 C584 1.377 . S
C585 C586 1.379 . S
C586 H570 0.931 . S
C586 C580 1.383 . S
C586 C585 1.379 . S
H587 C581 0.959 . S
H588 C581 0.961 . S
H589 C581 0.960 . S
H590 C582 0.930 . S
H591 C583 0.929 . S
H592 C600 0.929 . S
H593 C602 0.930 . S
H594 C604 0.930 . S
H595 C607 0.929 . S
H596 C610 0.930 . S
H597 C612 0.960 . S
H598 C612 0.960 . S
H599 C612 0.960 1_554 S
C600 H592 0.929 . S
C600 C601 1.377 1_556 S
C600 C602 1.384 . S
C601 C600 1.377 1_554 S
C601 C607 1.390 . S
C602 H593 0.930 . S
C602 C600 1.384 . S
C602 C603 1.372 1_556 S
C603 C602 1.372 1_554 S
C603 C604 1.400 . S
C603 C608 1.490 . S
C604 H594 0.930 . S
C604 C603 1.400 . S
C604 C607 1.386 . S
H605 C621 0.930 . S
H606 C622 0.931 . S
C607 H595 0.929 . S
C607 C601 1.390 . S
C607 C604 1.386 . S
C608 C603 1.490 . S
C608 C610 1.395 . S
C608 C611 1.403 1_554 S
H609 C615 0.930 . S
C610 H596 0.930 . S
C610 C608 1.395 . S
C610 C613 1.403 . S
C611 C608 1.403 1_556 S
C611 C612 1.524 . S
C611 C615 1.400 . S
C612 H597 0.960 . S
C612 H598 0.960 . S
C612 H599 0.960 1_556 S
C612 C611 1.524 . S
C613 C610 1.403 . S
C613 C614 1.392 1_554 S
C613 C617 1.495 . S
C614 C613 1.392 1_556 S
C614 C615 1.385 . S
C614 C616 1.478 . S
C615 H609 0.930 . S
C615 C611 1.400 . S
C615 C614 1.385 . S
C616 C614 1.478 . S
C616 C618 1.381 . S
C616 C622 1.383 1_556 S
C617 C613 1.495 . S
C617 H623 0.959 . S
C617 H624 0.961 . S
C617 H625 0.960 1_554 S
C618 C616 1.381 . S
C618 C619 1.394 . S
C618 H626 0.930 . S
C619 C618 1.394 . S
C619 C620 1.383 . S
C619 H627 0.929 . S
C620 C619 1.383 . S
C620 C621 1.377 1_556 S
C621 H605 0.930 . S
C621 C620 1.377 1_554 S
C621 C622 1.379 . S
C622 H606 0.931 . S
C622 C616 1.383 1_554 S
C622 C621 1.379 . S
H623 C617 0.959 . S
H624 C617 0.961 . S
H625 C617 0.960 1_556 S
H626 C618 0.930 . S
H627 C619 0.929 . S
H628 C636 0.929 . S
H629 C638 0.930 . S
H630 C640 0.930 . S
H631 C643 0.929 . S
H632 C646 0.930 . S
H633 C648 0.960 . S
H634 C648 0.960 . S
H635 C648 0.960 . S
C636 H628 0.929 . S
C636 C637 1.377 . S
C636 C638 1.384 . S
C637 C636 1.377 . S
C637 C643 1.390 . S
C638 H629 0.930 . S
C638 C636 1.384 . S
C638 C639 1.372 . S
C639 C638 1.372 . S
C639 C640 1.400 . S
C639 C644 1.490 . S
C640 H630 0.930 . S
C640 C639 1.400 . S
C640 C643 1.386 . S
H641 C657 0.930 . S
H642 C658 0.931 . S
C643 H631 0.929 . S
C643 C637 1.390 . S
C643 C640 1.386 . S
C644 C639 1.490 . S
C644 C646 1.395 . S
C644 C647 1.403 . S
H645 C651 0.930 . S
C646 H632 0.930 . S
C646 C644 1.395 . S
C646 C649 1.403 1_565 S
C647 C644 1.403 . S
C647 C648 1.524 . S
C647 C651 1.400 1_565 S
C648 H633 0.960 . S
C648 H634 0.960 . S
C648 H635 0.960 . S
C648 C647 1.524 . S
C649 C646 1.403 1_545 S
C649 C650 1.392 . S
C649 C653 1.495 . S
C650 C649 1.392 . S
C650 C651 1.385 . S
C650 C652 1.478 . S
C651 H645 0.930 . S
C651 C647 1.400 1_545 S
C651 C650 1.385 . S
C652 C650 1.478 . S
C652 C654 1.381 . S
C652 C658 1.383 . S
C653 C649 1.495 . S
C653 H659 0.959 . S
C653 H660 0.961 . S
C653 H661 0.960 . S
C654 C652 1.381 . S
C654 C655 1.394 . S
C654 H662 0.930 . S
C655 C654 1.394 . S
C655 C656 1.383 . S
C655 H663 0.929 . S
C656 C655 1.383 . S
C656 C657 1.377 . S
C657 H641 0.930 . S
C657 C656 1.377 . S
C657 C658 1.379 . S
C658 H642 0.931 . S
C658 C652 1.383 . S
C658 C657 1.379 . S
H659 C653 0.959 . S
H660 C653 0.961 . S
H661 C653 0.960 . S
H662 C654 0.930 . S
H663 C655 0.929 . S
H664 C672 0.929 . S
H665 C674 0.930 . S
H666 C676 0.930 . S
H667 C679 0.929 . S
H668 C682 0.930 . S
H669 C684 0.960 . S
H670 C684 0.960 . S
H671 C684 0.960 . S
C672 H664 0.929 . S
C672 C673 1.377 . S
C672 C674 1.384 . S
C673 C672 1.377 . S
C673 C679 1.390 . S
C674 H665 0.930 . S
C674 C672 1.384 . S
C674 C675 1.372 . S
C675 C674 1.372 . S
C675 C676 1.400 . S
C675 C680 1.490 . S
C676 H666 0.930 . S
C676 C675 1.400 . S
C676 C679 1.386 . S
H677 C693 0.930 . S
H678 C694 0.931 . S
C679 H667 0.929 . S
C679 C673 1.390 . S
C679 C676 1.386 . S
C680 C675 1.490 . S
C680 C682 1.395 . S
C680 C683 1.403 . S
H681 C687 0.930 . S
C682 H668 0.930 . S
C682 C680 1.395 . S
C682 C685 1.403 . S
C683 C680 1.403 . S
C683 C684 1.524 . S
C683 C687 1.400 . S
C684 H669 0.960 . S
C684 H670 0.960 . S
C684 H671 0.960 . S
C684 C683 1.524 . S
C685 C682 1.403 . S
C685 C686 1.392 . S
C685 C689 1.495 . S
C686 C685 1.392 . S
C686 C687 1.385 . S
C686 C688 1.478 . S
C687 H681 0.930 . S
C687 C683 1.400 . S
C687 C686 1.385 . S
C688 C686 1.478 . S
C688 C690 1.381 . S
C688 C694 1.383 . S
C689 C685 1.495 . S
C689 H695 0.959 . S
C689 H696 0.961 . S
C689 H697 0.960 . S
C690 C688 1.381 . S
C690 C691 1.394 . S
C690 H698 0.930 . S
C691 C690 1.394 . S
C691 C692 1.383 . S
C691 H699 0.929 . S
C692 C691 1.383 . S
C692 C693 1.377 . S
C693 H677 0.930 . S
C693 C692 1.377 . S
C693 C694 1.379 . S
C694 H678 0.931 . S
C694 C688 1.383 . S
C694 C693 1.379 . S
H695 C689 0.959 . S
H696 C689 0.961 . S
H697 C689 0.960 . S
H698 C690 0.930 . S
H699 C691 0.929 . S
H700 C708 0.929 . S
H701 C710 0.930 . S
H702 C712 0.930 . S
H703 C715 0.929 . S
H704 C718 0.930 . S
H705 C720 0.960 . S
H706 C720 0.960 . S
H707 C720 0.960 . S
C708 H700 0.929 . S
C708 C709 1.377 . S
C708 C710 1.384 . S
C709 C708 1.377 . S
C709 C715 1.390 . S
C710 H701 0.930 . S
C710 C708 1.384 . S
C710 C711 1.372 . S
C711 C710 1.372 . S
C711 C712 1.400 . S
C711 C716 1.490 . S
C712 H702 0.930 . S
C712 C711 1.400 . S
C712 C715 1.386 . S
H713 C729 0.930 . S
H714 C730 0.931 . S
C715 H703 0.929 . S
C715 C709 1.390 . S
C715 C712 1.386 . S
C716 C711 1.490 . S
C716 C718 1.395 . S
C716 C719 1.403 . S
H717 C723 0.930 . S
C718 H704 0.930 . S
C718 C716 1.395 . S
C718 C721 1.403 1_565 S
C719 C716 1.403 . S
C719 C720 1.524 . S
C719 C723 1.400 1_565 S
C720 H705 0.960 . S
C720 H706 0.960 . S
C720 H707 0.960 . S
C720 C719 1.524 . S
C721 C718 1.403 1_545 S
C721 C722 1.392 . S
C721 C725 1.495 . S
C722 C721 1.392 . S
C722 C723 1.385 . S
C722 C724 1.478 . S
C723 H717 0.930 . S
C723 C719 1.400 1_545 S
C723 C722 1.385 . S
C724 C722 1.478 . S
C724 C726 1.381 . S
C724 C730 1.383 . S
C725 C721 1.495 . S
C725 H731 0.959 . S
C725 H732 0.961 . S
C725 H733 0.960 . S
C726 C724 1.381 . S
C726 C727 1.394 . S
C726 H734 0.930 . S
C727 C726 1.394 . S
C727 C728 1.383 . S
C727 H735 0.929 . S
C728 C727 1.383 . S
C728 C729 1.377 . S
C729 H713 0.930 . S
C729 C728 1.377 . S
C729 C730 1.379 . S
C730 H714 0.931 . S
C730 C724 1.383 . S
C730 C729 1.379 . S
H731 C725 0.959 . S
H732 C725 0.961 . S
H733 C725 0.960 . S
H734 C726 0.930 . S
H735 C727 0.929 . S
H736 C744 0.929 . S
H737 C746 0.930 . S
H738 C748 0.930 . S
H739 C751 0.929 . S
H740 C754 0.930 . S
H741 C756 0.960 . S
H742 C756 0.960 . S
H743 C756 0.960 . S
C744 H736 0.929 . S
C744 C745 1.377 . S
C744 C746 1.384 . S
C745 C744 1.377 . S
C745 C751 1.390 . S
C746 H737 0.930 . S
C746 C744 1.384 . S
C746 C747 1.372 . S
C747 C746 1.372 . S
C747 C748 1.400 . S
C747 C752 1.490 . S
C748 H738 0.930 . S
C748 C747 1.400 . S
C748 C751 1.386 . S
H749 C765 0.930 . S
H750 C766 0.931 . S
C751 H739 0.929 . S
C751 C745 1.390 . S
C751 C748 1.386 . S
C752 C747 1.490 . S
C752 C754 1.395 . S
C752 C755 1.403 . S
H753 C759 0.930 . S
C754 H740 0.930 . S
C754 C752 1.395 . S
C754 C757 1.403 . S
C755 C752 1.403 . S
C755 C756 1.524 . S
C755 C759 1.400 . S
C756 H741 0.960 . S
C756 H742 0.960 . S
C756 H743 0.960 . S
C756 C755 1.524 . S
C757 C754 1.403 . S
C757 C758 1.392 . S
C757 C761 1.495 . S
C758 C757 1.392 . S
C758 C759 1.385 . S
C758 C760 1.478 . S
C759 H753 0.930 . S
C759 C755 1.400 . S
C759 C758 1.385 . S
C760 C758 1.478 . S
C760 C762 1.381 . S
C760 C766 1.383 . S
C761 C757 1.495 . S
C761 H767 0.959 . S
C761 H768 0.961 . S
C761 H769 0.960 . S
C762 C760 1.381 . S
C762 C763 1.394 . S
C762 H770 0.930 . S
C763 C762 1.394 . S
C763 C764 1.383 . S
C763 H771 0.929 . S
C764 C763 1.383 . S
C764 C765 1.377 . S
C765 H749 0.930 . S
C765 C764 1.377 . S
C765 C766 1.379 . S
C766 H750 0.931 . S
C766 C760 1.383 . S
C766 C765 1.379 . S
H767 C761 0.959 . S
H768 C761 0.961 . S
H769 C761 0.960 . S
H770 C762 0.930 . S
H771 C763 0.929 . S
H772 C780 0.929 . S
H773 C782 0.930 . S
H774 C784 0.930 . S
H775 C787 0.929 . S
H776 C790 0.930 . S
H777 C792 0.960 . S
H778 C792 0.960 . S
H779 C792 0.960 . S
C780 H772 0.929 . S
C780 C781 1.377 . S
C780 C782 1.384 . S
C781 C780 1.377 . S
C781 C787 1.390 . S
C782 H773 0.930 . S
C782 C780 1.384 . S
C782 C783 1.372 . S
C783 C782 1.372 . S
C783 C784 1.400 . S
C783 C788 1.490 . S
C784 H774 0.930 . S
C784 C783 1.400 . S
C784 C787 1.386 . S
H785 C801 0.930 . S
H786 C802 0.931 . S
C787 H775 0.929 . S
C787 C781 1.390 . S
C787 C784 1.386 . S
C788 C783 1.490 . S
C788 C790 1.395 . S
C788 C791 1.403 . S
H789 C795 0.930 . S
C790 H776 0.930 . S
C790 C788 1.395 . S
C790 C793 1.403 . S
C791 C788 1.403 . S
C791 C792 1.524 . S
C791 C795 1.400 . S
C792 H777 0.960 . S
C792 H778 0.960 . S
C792 H779 0.960 . S
C792 C791 1.524 . S
C793 C790 1.403 . S
C793 C794 1.392 . S
C793 C797 1.495 . S
C794 C793 1.392 . S
C794 C795 1.385 . S
C794 C796 1.478 . S
C795 H789 0.930 . S
C795 C791 1.400 . S
C795 C794 1.385 . S
C796 C794 1.478 . S
C796 C798 1.381 . S
C796 C802 1.383 . S
C797 C793 1.495 . S
C797 H803 0.959 . S
C797 H804 0.961 . S
C797 H805 0.960 . S
C798 C796 1.381 . S
C798 C799 1.394 . S
C798 H806 0.930 . S
C799 C798 1.394 . S
C799 C800 1.383 . S
C799 H807 0.929 . S
C800 C799 1.383 . S
C800 C801 1.377 . S
C801 H785 0.930 . S
C801 C800 1.377 . S
C801 C802 1.379 . S
C802 H786 0.931 . S
C802 C796 1.383 . S
C802 C801 1.379 . S
H803 C797 0.959 . S
H804 C797 0.961 . S
H805 C797 0.960 . S
H806 C798 0.930 . S
H807 C799 0.929 . S
H808 C816 0.929 . S
H809 C818 0.930 . S
H810 C820 0.930 . S
H811 C823 0.929 . S
H812 C826 0.930 . S
H813 C828 0.960 . S
H814 C828 0.960 . S
H815 C828 0.960 . S
C816 H808 0.929 . S
C816 C817 1.377 . S
C816 C818 1.384 . S
C817 C816 1.377 . S
C817 C823 1.390 1_556 S
C818 H809 0.930 . S
C818 C816 1.384 . S
C818 C819 1.372 . S
C819 C818 1.372 . S
C819 C820 1.400 1_556 S
C819 C824 1.490 . S
C820 H810 0.930 . S
C820 C819 1.400 1_554 S
C820 C823 1.386 . S
H821 C837 0.930 . S
H822 C838 0.931 . S
C823 H811 0.929 . S
C823 C817 1.390 1_554 S
C823 C820 1.386 . S
C824 C819 1.490 . S
C824 C826 1.395 . S
C824 C827 1.403 1_556 S
H825 C831 0.930 . S
C826 H812 0.930 . S
C826 C824 1.395 . S
C826 C829 1.403 . S
C827 C824 1.403 1_554 S
C827 C828 1.524 . S
C827 C831 1.400 . S
C828 H813 0.960 . S
C828 H814 0.960 . S
C828 H815 0.960 . S
C828 C827 1.524 . S
C829 C826 1.403 . S
C829 C830 1.392 . S
C829 C833 1.495 . S
C830 C829 1.392 . S
C830 C831 1.385 1_556 S
C830 C832 1.478 1_556 S
C831 H825 0.930 . S
C831 C827 1.400 . S
C831 C830 1.385 1_554 S
C832 C830 1.478 1_554 S
C832 C834 1.381 1_554 S
C832 C838 1.383 . S
C833 C829 1.495 . S
C833 H839 0.959 . S
C833 H840 0.961 . S
C833 H841 0.960 . S
C834 C832 1.381 1_556 S
C834 C835 1.394 . S
C834 H842 0.930 . S
C835 C834 1.394 . S
C835 C836 1.383 1_556 S
C835 H843 0.929 . S
C836 C835 1.383 1_554 S
C836 C837 1.377 . S
C837 H821 0.930 . S
C837 C836 1.377 . S
C837 C838 1.379 . S
C838 H822 0.931 . S
C838 C832 1.383 . S
C838 C837 1.379 . S
H839 C833 0.959 . S
H840 C833 0.961 . S
H841 C833 0.960 . S
H842 C834 0.930 . S
H843 C835 0.929 . S
H844 C852 0.929 . S
H845 C854 0.930 . S
H846 C856 0.930 . S
H847 C859 0.929 . S
H848 C862 0.930 . S
H849 C864 0.960 . S
H850 C864 0.960 . S
H851 C864 0.960 . S
C852 H844 0.929 . S
C852 C853 1.377 . S
C852 C854 1.384 . S
C853 C852 1.377 . S
C853 C859 1.390 . S
C854 H845 0.930 . S
C854 C852 1.384 . S
C854 C855 1.372 . S
C855 C854 1.372 . S
C855 C856 1.400 . S
C855 C860 1.490 . S
C856 H846 0.930 . S
C856 C855 1.400 . S
C856 C859 1.386 . S
H857 C873 0.930 . S
H858 C874 0.931 . S
C859 H847 0.929 . S
C859 C853 1.390 . S
C859 C856 1.386 . S
C860 C855 1.490 . S
C860 C862 1.395 . S
C860 C863 1.403 . S
H861 C867 0.930 . S
C862 H848 0.930 . S
C862 C860 1.395 . S
C862 C865 1.403 . S
C863 C860 1.403 . S
C863 C864 1.524 . S
C863 C867 1.400 . S
C864 H849 0.960 . S
C864 H850 0.960 . S
C864 H851 0.960 . S
C864 C863 1.524 . S
C865 C862 1.403 . S
C865 C866 1.392 . S
C865 C869 1.495 . S
C866 C865 1.392 . S
C866 C867 1.385 . S
C866 C868 1.478 . S
C867 H861 0.930 . S
C867 C863 1.400 . S
C867 C866 1.385 . S
C868 C866 1.478 . S
C868 C870 1.381 . S
C868 C874 1.383 . S
C869 C865 1.495 . S
C869 H875 0.959 . S
C869 H876 0.961 . S
C869 H877 0.960 . S
C870 C868 1.381 . S
C870 C871 1.394 . S
C870 H878 0.930 . S
C871 C870 1.394 . S
C871 C872 1.383 . S
C871 H879 0.929 . S
C872 C871 1.383 . S
C872 C873 1.377 . S
C873 H857 0.930 . S
C873 C872 1.377 . S
C873 C874 1.379 . S
C874 H858 0.931 . S
C874 C868 1.383 . S
C874 C873 1.379 . S
H875 C869 0.959 . S
H876 C869 0.961 . S
H877 C869 0.960 . S
H878 C870 0.930 . S
H879 C871 0.929 . S
H880 C888 0.929 . S
H881 C890 0.930 . S
H882 C892 0.930 . S
H883 C895 0.929 . S
H884 C898 0.930 . S
H885 C900 0.960 . S
H886 C900 0.960 . S
H887 C900 0.960 . S
C888 H880 0.929 . S
C888 C889 1.377 . S
C888 C890 1.384 . S
C889 C888 1.377 . S
C889 C895 1.390 . S
C890 H881 0.930 . S
C890 C888 1.384 . S
C890 C891 1.372 . S
C891 C890 1.372 . S
C891 C892 1.400 . S
C891 C896 1.490 . S
C892 H882 0.930 . S
C892 C891 1.400 . S
C892 C895 1.386 . S
H893 C909 0.930 . S
H894 C910 0.931 . S
C895 H883 0.929 . S
C895 C889 1.390 . S
C895 C892 1.386 . S
C896 C891 1.490 . S
C896 C898 1.395 . S
C896 C899 1.403 . S
H897 C903 0.930 . S
C898 H884 0.930 . S
C898 C896 1.395 . S
C898 C901 1.403 . S
C899 C896 1.403 . S
C899 C900 1.524 . S
C899 C903 1.400 . S
C900 H885 0.960 . S
C900 H886 0.960 . S
C900 H887 0.960 . S
C900 C899 1.524 . S
C901 C898 1.403 . S
C901 C902 1.392 . S
C901 C905 1.495 . S
C902 C901 1.392 . S
C902 C903 1.385 . S
C902 C904 1.478 . S
C903 H897 0.930 . S
C903 C899 1.400 . S
C903 C902 1.385 . S
C904 C902 1.478 . S
C904 C906 1.381 . S
C904 C910 1.383 . S
C905 C901 1.495 . S
C905 H911 0.959 . S
C905 H912 0.961 . S
C905 H913 0.960 . S
C906 C904 1.381 . S
C906 C907 1.394 . S
C906 H914 0.930 . S
C907 C906 1.394 . S
C907 C908 1.383 . S
C907 H915 0.929 . S
C908 C907 1.383 . S
C908 C909 1.377 . S
C909 H893 0.930 . S
C909 C908 1.377 . S
C909 C910 1.379 . S
C910 H894 0.931 . S
C910 C904 1.383 . S
C910 C909 1.379 . S
H911 C905 0.959 . S
H912 C905 0.961 . S
H913 C905 0.960 . S
H914 C906 0.930 . S
H915 C907 0.929 . S
H916 C924 0.929 . S
H917 C926 0.930 . S
H918 C928 0.930 . S
H919 C931 0.929 . S
H920 C934 0.930 . S
H921 C936 0.960 . S
H922 C936 0.960 . S
H923 C936 0.960 . S
C924 H916 0.929 . S
C924 C925 1.377 . S
C924 C926 1.384 . S
C925 C924 1.377 . S
C925 C931 1.390 . S
C926 H917 0.930 . S
C926 C924 1.384 . S
C926 C927 1.372 . S
C927 C926 1.372 . S
C927 C928 1.400 . S
C927 C932 1.490 . S
C928 H918 0.930 . S
C928 C927 1.400 . S
C928 C931 1.386 . S
H929 C945 0.930 . S
H930 C946 0.931 . S
C931 H919 0.929 . S
C931 C925 1.390 . S
C931 C928 1.386 . S
C932 C927 1.490 . S
C932 C934 1.395 . S
C932 C935 1.403 . S
H933 C939 0.930 . S
C934 H920 0.930 . S
C934 C932 1.395 . S
C934 C937 1.403 . S
C935 C932 1.403 . S
C935 C936 1.524 . S
C935 C939 1.400 . S
C936 H921 0.960 . S
C936 H922 0.960 . S
C936 H923 0.960 . S
C936 C935 1.524 . S
C937 C934 1.403 . S
C937 C938 1.392 . S
C937 C941 1.495 . S
C938 C937 1.392 . S
C938 C939 1.385 . S
C938 C940 1.478 . S
C939 H933 0.930 . S
C939 C935 1.400 . S
C939 C938 1.385 . S
C940 C938 1.478 . S
C940 C942 1.381 . S
C940 C946 1.383 . S
C941 C937 1.495 . S
C941 H947 0.959 . S
C941 H948 0.961 . S
C941 H949 0.960 . S
C942 C940 1.381 . S
C942 C943 1.394 . S
C942 H950 0.930 . S
C943 C942 1.394 . S
C943 C944 1.383 . S
C943 H951 0.929 . S
C944 C943 1.383 . S
C944 C945 1.377 . S
C945 H929 0.930 . S
C945 C944 1.377 . S
C945 C946 1.379 . S
C946 H930 0.931 . S
C946 C940 1.383 . S
C946 C945 1.379 . S
H947 C941 0.959 . S
H948 C941 0.961 . S
H949 C941 0.960 . S
H950 C942 0.930 . S
H951 C943 0.929 . S
H952 C960 0.929 . S
H953 C962 0.930 . S
H954 C964 0.930 . S
H955 C967 0.929 . S
H956 C970 0.930 . S
H957 C972 0.960 . S
H958 C972 0.960 . S
H959 C972 0.960 . S
C960 H952 0.929 . S
C960 C961 1.377 . S
C960 C962 1.384 . S
C961 C960 1.377 . S
C961 C967 1.390 . S
C962 H953 0.930 . S
C962 C960 1.384 . S
C962 C963 1.372 . S
C963 C962 1.372 . S
C963 C964 1.400 . S
C963 C968 1.490 . S
C964 H954 0.930 . S
C964 C963 1.400 . S
C964 C967 1.386 . S
H965 C981 0.930 . S
H966 C982 0.931 . S
C967 H955 0.929 . S
C967 C961 1.390 . S
C967 C964 1.386 . S
C968 C963 1.490 . S
C968 C970 1.395 1_554 S
C968 C971 1.403 . S
H969 C975 0.930 . S
C970 H956 0.930 . S
C970 C968 1.395 1_556 S
C970 C973 1.403 . S
C971 C968 1.403 . S
C971 C972 1.524 . S
C971 C975 1.400 . S
C972 H957 0.960 . S
C972 H958 0.960 . S
C972 H959 0.960 . S
C972 C971 1.524 . S
C973 C970 1.403 . S
C973 C974 1.392 . S
C973 C977 1.495 . S
C974 C973 1.392 . S
C974 C975 1.385 1_556 S
C974 C976 1.478 . S
C975 H969 0.930 . S
C975 C971 1.400 . S
C975 C974 1.385 1_554 S
C976 C974 1.478 . S
C976 C978 1.381 . S
C976 C982 1.383 . S
C977 C973 1.495 . S
C977 H983 0.959 . S
C977 H984 0.961 . S
C977 H985 0.960 . S
C978 C976 1.381 . S
C978 C979 1.394 . S
C978 H986 0.930 . S
C979 C978 1.394 . S
C979 C980 1.383 . S
C979 H987 0.929 . S
C980 C979 1.383 . S
C980 C981 1.377 . S
C981 H965 0.930 . S
C981 C980 1.377 . S
C981 C982 1.379 . S
C982 H966 0.931 . S
C982 C976 1.383 . S
C982 C981 1.379 . S
H983 C977 0.959 . S
H984 C977 0.961 . S
H985 C977 0.960 . S
H986 C978 0.930 . S
H987 C979 0.929 . S
H988 C996 0.929 . S
H989 C998 0.930 . S
H990 C1000 0.930 . S
H991 C1003 0.929 . S
H992 C1006 0.930 . S
H993 C1008 0.960 . S
H994 C1008 0.960 . S
H995 C1008 0.960 . S
C996 H988 0.929 . S
C996 C997 1.377 . S
C996 C998 1.384 . S
C997 C996 1.377 . S
C997 C1003 1.390 . S
C998 H989 0.930 . S
C998 C996 1.384 . S
C998 C999 1.372 . S
C999 C998 1.372 . S
C999 C1000 1.400 . S
C999 C1004 1.490 . S
C1000 H990 0.930 . S
C1000 C999 1.400 . S
C1000 C1003 1.386 . S
H1001 C1017 0.930 . S
H1002 C1018 0.931 . S
C1003 H991 0.929 . S
C1003 C997 1.390 . S
C1003 C1000 1.386 . S
C1004 C999 1.490 . S
C1004 C1006 1.395 . S
C1004 C1007 1.403 . S
H1005 C1011 0.930 . S
C1006 H992 0.930 . S
C1006 C1004 1.395 . S
C1006 C1009 1.403 . S
C1007 C1004 1.403 . S
C1007 C1008 1.524 . S
C1007 C1011 1.400 . S
C1008 H993 0.960 . S
C1008 H994 0.960 . S
C1008 H995 0.960 . S
C1008 C1007 1.524 . S
C1009 C1006 1.403 . S
C1009 C1010 1.392 . S
C1009 C1013 1.495 . S
C1010 C1009 1.392 . S
C1010 C1011 1.385 . S
C1010 C1012 1.478 . S
C1011 H1005 0.930 . S
C1011 C1007 1.400 . S
C1011 C1010 1.385 . S
C1012 C1010 1.478 . S
C1012 C1014 1.381 . S
C1012 C1018 1.383 . S
C1013 C1009 1.495 . S
C1013 H1019 0.959 . S
C1013 H1020 0.961 . S
C1013 H1021 0.960 . S
C1014 C1012 1.381 . S
C1014 C1015 1.394 . S
C1014 H1022 0.930 . S
C1015 C1014 1.394 . S
C1015 C1016 1.383 . S
C1015 H1023 0.929 . S
C1016 C1015 1.383 . S
C1016 C1017 1.377 . S
C1017 H1001 0.930 . S
C1017 C1016 1.377 . S
C1017 C1018 1.379 . S
C1018 H1002 0.931 . S
C1018 C1012 1.383 . S
C1018 C1017 1.379 . S
H1019 C1013 0.959 . S
H1020 C1013 0.961 . S
H1021 C1013 0.960 . S
H1022 C1014 0.930 . S
H1023 C1015 0.929 . S
H1024 C1032 0.929 . S
H1025 C1034 0.930 . S
H1026 C1036 0.930 . S
H1027 C1039 0.929 . S
H1028 C1042 0.930 . S
H1029 C1044 0.960 . S
H1030 C1044 0.960 . S
H1031 C1044 0.960 . S
C1032 H1024 0.929 . S
C1032 C1033 1.377 . S
C1032 C1034 1.384 . S
C1033 C1032 1.377 . S
C1033 C1039 1.390 . S
C1034 H1025 0.930 . S
C1034 C1032 1.384 . S
C1034 C1035 1.372 . S
C1035 C1034 1.372 . S
C1035 C1036 1.400 . S
C1035 C1040 1.490 . S
C1036 H1026 0.930 . S
C1036 C1035 1.400 . S
C1036 C1039 1.386 . S
H1037 C1053 0.930 . S
H1038 C1054 0.931 . S
C1039 H1027 0.929 . S
C1039 C1033 1.390 . S
C1039 C1036 1.386 . S
C1040 C1035 1.490 . S
C1040 C1042 1.395 . S
C1040 C1043 1.403 . S
H1041 C1047 0.930 . S
C1042 H1028 0.930 . S
C1042 C1040 1.395 . S
C1042 C1045 1.403 . S
C1043 C1040 1.403 . S
C1043 C1044 1.524 . S
C1043 C1047 1.400 . S
C1044 H1029 0.960 . S
C1044 H1030 0.960 . S
C1044 H1031 0.960 . S
C1044 C1043 1.524 . S
C1045 C1042 1.403 . S
C1045 C1046 1.392 . S
C1045 C1049 1.495 . S
C1046 C1045 1.392 . S
C1046 C1047 1.385 . S
C1046 C1048 1.478 . S
C1047 H1041 0.930 . S
C1047 C1043 1.400 . S
C1047 C1046 1.385 . S
C1048 C1046 1.478 . S
C1048 C1050 1.381 . S
C1048 C1054 1.383 . S
C1049 C1045 1.495 . S
C1049 H1055 0.959 . S
C1049 H1056 0.961 . S
C1049 H1057 0.960 . S
C1050 C1048 1.381 . S
C1050 C1051 1.394 . S
C1050 H1058 0.930 . S
C1051 C1050 1.394 . S
C1051 C1052 1.383 . S
C1051 H1059 0.929 . S
C1052 C1051 1.383 . S
C1052 C1053 1.377 . S
C1053 H1037 0.930 . S
C1053 C1052 1.377 . S
C1053 C1054 1.379 . S
C1054 H1038 0.931 . S
C1054 C1048 1.383 . S
C1054 C1053 1.379 . S
H1055 C1049 0.959 . S
H1056 C1049 0.961 . S
H1057 C1049 0.960 . S
H1058 C1050 0.930 . S
H1059 C1051 0.929 . S
H1060 C1068 0.929 . S
H1061 C1070 0.997 . S
H1062 C1072 0.930 . S
H1063 C1075 0.929 . S
H1064 C1078 0.930 . S
H1065 C1080 0.960 . S
H1066 C1080 0.948 1_556 S
H1067 C1080 0.960 1_556 S
C1068 H1060 0.929 . S
C1068 C1069 1.377 . S
C1068 C1070 1.384 . S
C1069 C1068 1.377 . S
C1069 C1075 1.390 . S
C1070 H1061 0.997 . S
C1070 C1068 1.384 . S
C1070 C1071 1.372 . S
C1071 C1070 1.372 . S
C1071 C1072 1.400 . S
C1071 C1076 1.490 . S
C1072 H1062 0.930 . S
C1072 C1071 1.400 . S
C1072 C1075 1.386 . S
H1073 C1089 0.930 . S
H1074 C1090 0.931 . S
C1075 H1063 0.929 . S
C1075 C1069 1.390 . S
C1075 C1072 1.386 . S
C1076 C1071 1.490 . S
C1076 C1078 1.395 1_455 S
C1076 C1079 1.403 1_556 S
H1077 C1083 0.930 . S
C1078 H1064 0.930 . S
C1078 C1076 1.395 1_655 S
C1078 C1081 1.403 1_556 S
C1079 C1076 1.403 1_554 S
C1079 C1080 1.524 . S
C1079 C1083 1.400 . S
C1080 H1065 0.960 . S
C1080 H1066 0.948 1_554 S
C1080 H1067 0.960 1_554 S
C1080 C1079 1.524 . S
C1081 C1078 1.403 1_554 S
C1081 C1082 1.392 . S
C1081 C1085 1.495 . S
C1082 C1081 1.392 . S
C1082 C1083 1.385 1_655 S
C1082 C1084 1.478 . S
C1083 H1077 0.930 . S
C1083 C1079 1.400 . S
C1083 C1082 1.385 1_455 S
C1084 C1082 1.478 . S
C1084 C1086 1.381 . S
C1084 C1090 1.383 . S
C1085 C1081 1.495 . S
C1085 H1091 0.959 1_554 S
C1085 H1092 0.961 . S
C1085 H1093 0.960 . S
C1086 C1084 1.381 . S
C1086 C1087 1.394 . S
C1086 H1094 0.930 . S
C1087 C1086 1.394 . S
C1087 C1088 1.383 . S
C1087 H1095 0.929 . S
C1088 C1087 1.383 . S
C1088 C1089 1.377 . S
C1089 H1073 0.930 . S
C1089 C1088 1.377 . S
C1089 C1090 1.379 . S
C1090 H1074 0.931 . S
C1090 C1084 1.383 . S
C1090 C1089 1.379 . S
H1091 C1085 0.959 1_556 S
H1092 C1085 0.961 . S
H1093 C1085 0.960 . S
H1094 C1086 0.930 . S
H1095 C1087 0.929 . S
H1096 C1104 0.929 . S
H1097 C1106 0.930 . S
H1098 C1108 0.930 . S
H1099 C1111 0.929 . S
H1100 C1114 0.930 . S
H1101 C1116 0.960 . S
H1102 C1116 0.960 . S
H1103 C1116 0.960 . S
C1104 H1096 0.929 . S
C1104 C1105 1.377 . S
C1104 C1106 1.384 . S
C1105 C1104 1.377 . S
C1105 C1111 1.390 . S
C1106 H1097 0.930 . S
C1106 C1104 1.384 . S
C1106 C1107 1.372 . S
C1107 C1106 1.372 . S
C1107 C1108 1.400 . S
C1107 C1112 1.490 . S
C1108 H1098 0.930 . S
C1108 C1107 1.400 . S
C1108 C1111 1.386 . S
H1109 C1125 0.930 . S
H1110 C1126 0.931 . S
C1111 H1099 0.929 . S
C1111 C1105 1.390 . S
C1111 C1108 1.386 . S
C1112 C1107 1.490 . S
C1112 C1114 1.395 . S
C1112 C1115 1.403 . S
H1113 C1119 0.930 . S
C1114 H1100 0.930 . S
C1114 C1112 1.395 . S
C1114 C1117 1.403 . S
C1115 C1112 1.403 . S
C1115 C1116 1.524 . S
C1115 C1119 1.400 . S
C1116 H1101 0.960 . S
C1116 H1102 0.960 . S
C1116 H1103 0.960 . S
C1116 C1115 1.524 . S
C1117 C1114 1.403 . S
C1117 C1118 1.392 . S
C1117 C1121 1.495 . S
C1118 C1117 1.392 . S
C1118 C1119 1.385 . S
C1118 C1120 1.478 . S
C1119 H1113 0.930 . S
C1119 C1115 1.400 . S
C1119 C1118 1.385 . S
C1120 C1118 1.478 . S
C1120 C1122 1.381 . S
C1120 C1126 1.383 . S
C1121 C1117 1.495 . S
C1121 H1127 0.959 . S
C1121 H1128 0.961 . S
C1121 H1129 0.960 . S
C1122 C1120 1.381 . S
C1122 C1123 1.394 . S
C1122 H1130 0.930 . S
C1123 C1122 1.394 . S
C1123 C1124 1.383 . S
C1123 H1131 0.929 . S
C1124 C1123 1.383 . S
C1124 C1125 1.377 . S
C1125 H1109 0.930 . S
C1125 C1124 1.377 . S
C1125 C1126 1.379 . S
C1126 H1110 0.931 . S
C1126 C1120 1.383 . S
C1126 C1125 1.379 . S
H1127 C1121 0.959 . S
H1128 C1121 0.961 . S
H1129 C1121 0.960 . S
H1130 C1122 0.930 . S
H1131 C1123 0.929 . S
H1132 C1140 0.929 . S
H1133 C1142 0.930 . S
H1134 C1144 0.930 . S
H1135 C1147 0.929 . S
H1136 C1150 0.930 . S
H1137 C1152 0.960 . S
H1138 C1152 0.960 . S
H1139 C1152 0.960 . S
C1140 H1132 0.929 . S
C1140 C1141 1.377 . S
C1140 C1142 1.384 . S
C1141 C1140 1.377 . S
C1141 C1147 1.390 . S
C1142 H1133 0.930 . S
C1142 C1140 1.384 . S
C1142 C1143 1.372 . S
C1143 C1142 1.372 . S
C1143 C1144 1.400 . S
C1143 C1148 1.490 . S
C1144 H1134 0.930 . S
C1144 C1143 1.400 . S
C1144 C1147 1.386 . S
H1145 C1161 0.930 . S
H1146 C1162 0.931 . S
C1147 H1135 0.929 . S
C1147 C1141 1.390 . S
C1147 C1144 1.386 . S
C1148 C1143 1.490 . S
C1148 C1150 1.395 . S
C1148 C1151 1.403 . S
H1149 C1155 0.930 . S
C1150 H1136 0.930 . S
C1150 C1148 1.395 . S
C1150 C1153 1.403 . S
C1151 C1148 1.403 . S
C1151 C1152 1.524 . S
C1151 C1155 1.400 . S
C1152 H1137 0.960 . S
C1152 H1138 0.960 . S
C1152 H1139 0.960 . S
C1152 C1151 1.524 . S
C1153 C1150 1.403 . S
C1153 C1154 1.392 . S
C1153 C1157 1.495 . S
C1154 C1153 1.392 . S
C1154 C1155 1.385 . S
C1154 C1156 1.478 . S
C1155 H1149 0.930 . S
C1155 C1151 1.400 . S
C1155 C1154 1.385 . S
C1156 C1154 1.478 . S
C1156 C1158 1.381 . S
C1156 C1162 1.383 . S
C1157 C1153 1.495 . S
C1157 H1163 0.959 . S
C1157 H1164 0.961 . S
C1157 H1165 0.960 . S
C1158 C1156 1.381 . S
C1158 C1159 1.394 . S
C1158 H1166 0.930 . S
C1159 C1158 1.394 . S
C1159 C1160 1.383 . S
C1159 H1167 0.929 . S
C1160 C1159 1.383 . S
C1160 C1161 1.377 . S
C1161 H1145 0.930 . S
C1161 C1160 1.377 . S
C1161 C1162 1.379 . S
C1162 H1146 0.931 . S
C1162 C1156 1.383 . S
C1162 C1161 1.379 . S
H1163 C1157 0.959 . S
H1164 C1157 0.961 . S
H1165 C1157 0.960 . S
H1166 C1158 0.930 . S
H1167 C1159 0.929 . S
H1168 C1176 0.929 . S
H1169 C1178 0.930 . S
H1170 C1180 0.930 . S
H1171 C1183 0.929 . S
H1172 C1186 0.930 . S
H1173 C1188 0.960 . S
H1174 C1188 0.960 . S
H1175 C1188 0.960 . S
C1176 H1168 0.929 . S
C1176 C1177 1.377 . S
C1176 C1178 1.384 . S
C1177 C1176 1.377 . S
C1177 C1183 1.390 . S
C1178 H1169 0.930 . S
C1178 C1176 1.384 . S
C1178 C1179 1.372 . S
C1179 C1178 1.372 . S
C1179 C1180 1.400 . S
C1179 C1184 1.490 . S
C1180 H1170 0.930 . S
C1180 C1179 1.400 . S
C1180 C1183 1.386 . S
H1181 C1197 0.930 . S
H1182 C1198 0.931 . S
C1183 H1171 0.929 . S
C1183 C1177 1.390 . S
C1183 C1180 1.386 . S
C1184 C1179 1.490 . S
C1184 C1186 1.395 . S
C1184 C1187 1.403 . S
H1185 C1191 0.930 . S
C1186 H1172 0.930 . S
C1186 C1184 1.395 . S
C1186 C1189 1.403 . S
C1187 C1184 1.403 . S
C1187 C1188 1.524 . S
C1187 C1191 1.400 . S
C1188 H1173 0.960 . S
C1188 H1174 0.960 . S
C1188 H1175 0.960 . S
C1188 C1187 1.524 . S
C1189 C1186 1.403 . S
C1189 C1190 1.392 . S
C1189 C1193 1.495 . S
C1190 C1189 1.392 . S
C1190 C1191 1.385 . S
C1190 C1192 1.478 . S
C1191 H1185 0.930 . S
C1191 C1187 1.400 . S
C1191 C1190 1.385 . S
C1192 C1190 1.478 . S
C1192 C1194 1.381 . S
C1192 C1198 1.383 . S
C1193 C1189 1.495 . S
C1193 H1199 0.959 . S
C1193 H1200 0.961 . S
C1193 H1201 0.960 . S
C1194 C1192 1.381 . S
C1194 C1195 1.394 . S
C1194 H1202 0.930 . S
C1195 C1194 1.394 . S
C1195 C1196 1.383 . S
C1195 H1203 0.929 . S
C1196 C1195 1.383 . S
C1196 C1197 1.377 . S
C1197 H1181 0.930 . S
C1197 C1196 1.377 . S
C1197 C1198 1.379 . S
C1198 H1182 0.931 . S
C1198 C1192 1.383 . S
C1198 C1197 1.379 . S
H1199 C1193 0.959 . S
H1200 C1193 0.961 . S
H1201 C1193 0.960 . S
H1202 C1194 0.930 . S
H1203 C1195 0.929 . S
H1204 C1212 0.929 . S
H1205 C1214 0.930 . S
H1206 C1216 0.930 . S
H1207 C1219 0.929 . S
H1208 C1222 0.930 . S
H1209 C1224 0.960 1_556 S
H1210 C1224 0.960 . S
H1211 C1224 0.960 . S
C1212 H1204 0.929 . S
C1212 C1213 1.377 . S
C1212 C1214 1.384 . S
C1213 C1212 1.377 . S
C1213 C1219 1.390 . S
C1214 H1205 0.930 . S
C1214 C1212 1.384 . S
C1214 C1215 1.372 . S
C1215 C1214 1.372 . S
C1215 C1216 1.400 . S
C1215 C1220 1.490 . S
C1216 H1206 0.930 . S
C1216 C1215 1.400 . S
C1216 C1219 1.386 . S
H1217 C1233 0.930 . S
H1218 C1234 0.931 . S
C1219 H1207 0.929 . S
C1219 C1213 1.390 . S
C1219 C1216 1.386 . S
C1220 C1215 1.490 . S
C1220 C1222 1.395 . S
C1220 C1223 1.403 1_554 S
H1221 C1227 0.930 . S
C1222 H1208 0.930 . S
C1222 C1220 1.395 . S
C1222 C1225 1.403 1_554 S
C1223 C1220 1.403 1_556 S
C1223 C1224 1.524 1_556 S
C1223 C1227 1.400 . S
C1224 H1209 0.960 1_554 S
C1224 H1210 0.960 . S
C1224 H1211 0.960 . S
C1224 C1223 1.524 1_554 S
C1225 C1222 1.403 1_556 S
C1225 C1226 1.392 . S
C1225 C1229 1.495 . S
C1226 C1225 1.392 . S
C1226 C1227 1.385 . S
C1226 C1228 1.478 . S
C1227 H1221 0.930 . S
C1227 C1223 1.400 . S
C1227 C1226 1.385 . S
C1228 C1226 1.478 . S
C1228 C1230 1.381 . S
C1228 C1234 1.383 . S
C1229 C1225 1.495 . S
C1229 H1235 0.959 . S
C1229 H1236 0.961 . S
C1229 H1237 0.960 . S
C1230 C1228 1.381 . S
C1230 C1231 1.394 . S
C1230 H1238 0.930 . S
C1231 C1230 1.394 . S
C1231 C1232 1.383 . S
C1231 H1239 0.929 . S
C1232 C1231 1.383 . S
C1232 C1233 1.377 . S
C1233 H1217 0.930 . S
C1233 C1232 1.377 . S
C1233 C1234 1.379 . S
C1234 H1218 0.931 . S
C1234 C1228 1.383 . S
C1234 C1233 1.379 . S
H1235 C1229 0.959 . S
H1236 C1229 0.961 . S
H1237 C1229 0.960 . S
H1238 C1230 0.930 . S
H1239 C1231 0.929 . S
H1240 C1248 0.929 . S
H1241 C1250 0.930 . S
H1242 C1252 0.930 . S
H1243 C1255 0.929 . S
H1244 C1258 0.930 . S
H1245 C1260 0.960 . S
H1246 C1260 0.960 . S
H1247 C1260 0.960 . S
C1248 H1240 0.929 . S
C1248 C1249 1.377 . S
C1248 C1250 1.384 . S
C1249 C1248 1.377 . S
C1249 C1255 1.390 . S
C1250 H1241 0.930 . S
C1250 C1248 1.384 . S
C1250 C1251 1.372 . S
C1251 C1250 1.372 . S
C1251 C1252 1.400 . S
C1251 C1256 1.490 . S
C1252 H1242 0.930 . S
C1252 C1251 1.400 . S
C1252 C1255 1.386 . S
H1253 C1269 0.930 . S
H1254 C1270 0.931 . S
C1255 H1243 0.929 . S
C1255 C1249 1.390 . S
C1255 C1252 1.386 . S
C1256 C1251 1.490 . S
C1256 C1258 1.395 . S
C1256 C1259 1.403 . S
H1257 C1263 0.930 . S
C1258 H1244 0.930 . S
C1258 C1256 1.395 . S
C1258 C1261 1.403 . S
C1259 C1256 1.403 . S
C1259 C1260 1.524 . S
C1259 C1263 1.400 . S
C1260 H1245 0.960 . S
C1260 H1246 0.960 . S
C1260 H1247 0.960 . S
C1260 C1259 1.524 . S
C1261 C1258 1.403 . S
C1261 C1262 1.392 . S
C1261 C1265 1.495 . S
C1262 C1261 1.392 . S
C1262 C1263 1.385 . S
C1262 C1264 1.478 . S
C1263 H1257 0.930 . S
C1263 C1259 1.400 . S
C1263 C1262 1.385 . S
C1264 C1262 1.478 . S
C1264 C1266 1.381 . S
C1264 C1270 1.383 . S
C1265 C1261 1.495 . S
C1265 H1271 0.959 . S
C1265 H1272 0.961 . S
C1265 H1273 0.960 . S
C1266 C1264 1.381 . S
C1266 C1267 1.394 . S
C1266 H1274 0.930 . S
C1267 C1266 1.394 . S
C1267 C1268 1.383 . S
C1267 H1275 0.929 . S
C1268 C1267 1.383 . S
C1268 C1269 1.377 . S
C1269 H1253 0.930 . S
C1269 C1268 1.377 . S
C1269 C1270 1.379 . S
C1270 H1254 0.931 . S
C1270 C1264 1.383 . S
C1270 C1269 1.379 . S
H1271 C1265 0.959 . S
H1272 C1265 0.961 . S
H1273 C1265 0.960 . S
H1274 C1266 0.930 . S
H1275 C1267 0.929 . S
H1276 C1284 0.929 . S
H1277 C1286 0.930 1_655 S
H1278 C1288 0.930 . S
H1279 C1291 0.929 . S
H1280 C1294 0.943 . S
H1281 C1296 0.960 . S
H1282 C1296 0.960 . S
H1283 C1296 0.960 . S
C1284 H1276 0.929 . S
C1284 C1285 1.377 . S
C1284 C1286 1.384 . S
C1285 C1284 1.377 . S
C1285 C1291 1.390 . S
C1286 H1277 0.930 1_455 S
C1286 C1284 1.384 . S
C1286 C1287 1.372 . S
C1287 C1286 1.372 . S
C1287 C1288 1.400 . S
C1287 C1292 1.490 . S
C1288 H1278 0.930 . S
C1288 C1287 1.400 . S
C1288 C1291 1.386 . S
H1289 C1305 0.930 . S
H1290 C1306 0.931 1_455 S
C1291 H1279 0.929 . S
C1291 C1285 1.390 . S
C1291 C1288 1.386 . S
C1292 C1287 1.490 . S
C1292 C1294 1.428 . S
C1292 C1295 1.403 . S
H1293 C1299 0.930 . S
C1294 H1280 0.943 . S
C1294 C1292 1.428 . S
C1294 C1297 1.368 1_455 S
C1295 C1292 1.403 . S
C1295 C1296 1.524 . S
C1295 C1299 1.400 1_455 S
C1296 H1281 0.960 . S
C1296 H1282 0.960 . S
C1296 H1283 0.960 . S
C1296 C1295 1.524 . S
C1297 C1294 1.368 1_655 S
C1297 C1298 1.392 . S
C1297 C1301 1.495 . S
C1298 C1297 1.392 . S
C1298 C1299 1.385 . S
C1298 C1300 1.478 . S
C1299 H1293 0.930 . S
C1299 C1295 1.400 1_655 S
C1299 C1298 1.385 . S
C1300 C1298 1.478 . S
C1300 C1302 1.381 . S
C1300 C1306 1.383 . S
C1301 C1297 1.495 . S
C1301 H1307 0.959 . S
C1301 H1308 0.961 . S
C1301 H1309 0.960 . S
C1302 C1300 1.381 . S
C1302 C1303 1.394 . S
C1302 H1310 0.930 . S
C1303 C1302 1.394 . S
C1303 C1304 1.383 . S
C1303 H1311 0.929 . S
C1304 C1303 1.383 . S
C1304 C1305 1.377 . S
C1305 H1289 0.930 . S
C1305 C1304 1.377 . S
C1305 C1306 1.379 . S
C1306 H1290 0.931 1_655 S
C1306 C1300 1.383 . S
C1306 C1305 1.379 . S
H1307 C1301 0.959 . S
H1308 C1301 0.961 . S
H1309 C1301 0.960 . S
H1310 C1302 0.930 . S
H1311 C1303 0.929 . S
H1312 C1320 0.929 . S
H1313 C1322 0.930 . S
H1314 C1324 0.930 . S
H1315 C1327 0.929 . S
H1316 C1330 0.930 . S
H1317 C1332 0.960 . S
H1318 C1332 0.960 . S
H1319 C1332 0.960 . S
C1320 H1312 0.929 . S
C1320 C1321 1.377 . S
C1320 C1322 1.384 . S
C1321 C1320 1.377 . S
C1321 C1327 1.390 . S
C1322 H1313 0.930 . S
C1322 C1320 1.384 . S
C1322 C1323 1.372 . S
C1323 C1322 1.372 . S
C1323 C1324 1.400 . S
C1323 C1328 1.490 . S
C1324 H1314 0.930 . S
C1324 C1323 1.400 . S
C1324 C1327 1.386 . S
H1325 C1341 0.930 . S
H1326 C1342 0.931 . S
C1327 H1315 0.929 . S
C1327 C1321 1.390 . S
C1327 C1324 1.386 . S
C1328 C1323 1.490 . S
C1328 C1330 1.395 . S
C1328 C1331 1.403 . S
H1329 C1335 0.930 . S
C1330 H1316 0.930 . S
C1330 C1328 1.395 . S
C1330 C1333 1.403 . S
C1331 C1328 1.403 . S
C1331 C1332 1.524 . S
C1331 C1335 1.400 . S
C1332 H1317 0.960 . S
C1332 H1318 0.960 . S
C1332 H1319 0.960 . S
C1332 C1331 1.524 . S
C1333 C1330 1.403 . S
C1333 C1334 1.392 . S
C1333 C1337 1.495 . S
C1334 C1333 1.392 . S
C1334 C1335 1.385 . S
C1334 C1336 1.478 . S
C1335 H1329 0.930 . S
C1335 C1331 1.400 . S
C1335 C1334 1.385 . S
C1336 C1334 1.478 . S
C1336 C1338 1.381 . S
C1336 C1342 1.383 . S
C1337 C1333 1.495 . S
C1337 H1343 0.959 . S
C1337 H1344 0.961 . S
C1337 H1345 0.960 . S
C1338 C1336 1.381 . S
C1338 C1339 1.394 . S
C1338 H1346 0.930 . S
C1339 C1338 1.394 . S
C1339 C1340 1.383 . S
C1339 H1347 0.929 . S
C1340 C1339 1.383 . S
C1340 C1341 1.377 . S
C1341 H1325 0.930 . S
C1341 C1340 1.377 . S
C1341 C1342 1.379 . S
C1342 H1326 0.931 . S
C1342 C1336 1.383 . S
C1342 C1341 1.379 . S
H1343 C1337 0.959 . S
H1344 C1337 0.961 . S
H1345 C1337 0.960 . S
H1346 C1338 0.930 . S
H1347 C1339 0.929 . S
H1348 C1356 0.929 . S
H1349 C1358 0.930 . S
H1350 C1360 0.854 1_455 S
H1351 C1363 0.929 . S
H1352 C1366 0.930 . S
H1353 C1368 0.960 1_556 S
H1354 C1368 0.960 . S
H1355 C1368 0.960 . S
C1356 H1348 0.929 . S
C1356 C1357 1.377 . S
C1356 C1358 1.384 . S
C1357 C1356 1.377 . S
C1357 C1363 1.390 . S
C1358 H1349 0.930 . S
C1358 C1356 1.384 . S
C1358 C1359 1.372 . S
C1359 C1358 1.372 . S
C1359 C1360 1.400 . S
C1359 C1364 1.490 . S
C1360 H1350 0.854 1_655 S
C1360 C1359 1.400 . S
C1360 C1363 1.386 . S
H1361 C1377 0.930 . S
H1362 C1378 0.931 . S
C1363 H1351 0.929 . S
C1363 C1357 1.390 . S
C1363 C1360 1.386 . S
C1364 C1359 1.490 . S
C1364 C1366 1.395 . S
C1364 C1367 1.403 1_554 S
H1365 C1371 0.941 . S
C1366 H1352 0.930 . S
C1366 C1364 1.395 . S
C1366 C1369 1.403 1_654 S
C1367 C1364 1.403 1_556 S
C1367 C1368 1.524 1_556 S
C1367 C1371 1.375 1_655 S
C1368 H1353 0.960 1_554 S
C1368 H1354 0.960 . S
C1368 H1355 0.960 . S
C1368 C1367 1.524 1_554 S
C1369 C1366 1.403 1_456 S
C1369 C1370 1.392 . S
C1369 C1373 1.495 . S
C1370 C1369 1.392 . S
C1370 C1371 1.404 . S
C1370 C1372 1.478 . S
C1371 H1365 0.941 . S
C1371 C1367 1.375 1_455 S
C1371 C1370 1.404 . S
C1372 C1370 1.478 . S
C1372 C1374 1.381 . S
C1372 C1378 1.383 . S
C1373 C1369 1.495 . S
C1373 H1379 0.959 . S
C1373 H1380 0.961 . S
C1373 H1381 0.960 . S
C1374 C1372 1.381 . S
C1374 C1375 1.394 . S
C1374 H1382 0.930 1_455 S
C1375 C1374 1.394 . S
C1375 C1376 1.383 . S
C1375 H1383 0.929 . S
C1376 C1375 1.383 . S
C1376 C1377 1.377 . S
C1377 H1361 0.930 . S
C1377 C1376 1.377 . S
C1377 C1378 1.379 . S
C1378 H1362 0.931 . S
C1378 C1372 1.383 . S
C1378 C1377 1.379 . S
H1379 C1373 0.959 . S
H1380 C1373 0.961 . S
H1381 C1373 0.960 . S
H1382 C1374 0.930 1_655 S
H1383 C1375 0.929 . S
H1384 C1392 0.929 . S
H1385 C1394 0.930 . S
H1386 C1396 0.930 . S
H1387 C1399 0.929 . S
H1388 C1402 0.930 . S
H1389 C1404 0.960 . S
H1390 C1404 0.960 . S
H1391 C1404 0.960 . S
C1392 H1384 0.929 . S
C1392 C1393 1.377 . S
C1392 C1394 1.384 . S
C1393 C1392 1.377 . S
C1393 C1399 1.390 . S
C1394 H1385 0.930 . S
C1394 C1392 1.384 . S
C1394 C1395 1.372 . S
C1395 C1394 1.372 . S
C1395 C1396 1.400 . S
C1395 C1400 1.490 . S
C1396 H1386 0.930 . S
C1396 C1395 1.400 . S
C1396 C1399 1.386 . S
H1397 C1413 0.930 . S
H1398 C1414 0.931 . S
C1399 H1387 0.929 . S
C1399 C1393 1.390 . S
C1399 C1396 1.386 . S
C1400 C1395 1.490 . S
C1400 C1402 1.395 . S
C1400 C1403 1.403 . S
H1401 C1407 0.930 . S
C1402 H1388 0.930 . S
C1402 C1400 1.395 . S
C1402 C1405 1.403 . S
C1403 C1400 1.403 . S
C1403 C1404 1.524 . S
C1403 C1407 1.400 . S
C1404 H1389 0.960 . S
C1404 H1390 0.960 . S
C1404 H1391 0.960 . S
C1404 C1403 1.524 . S
C1405 C1402 1.403 . S
C1405 C1406 1.392 . S
C1405 C1409 1.495 . S
C1406 C1405 1.392 . S
C1406 C1407 1.385 . S
C1406 C1408 1.478 . S
C1407 H1401 0.930 . S
C1407 C1403 1.400 . S
C1407 C1406 1.385 . S
C1408 C1406 1.478 . S
C1408 C1410 1.381 . S
C1408 C1414 1.383 . S
C1409 C1405 1.495 . S
C1409 H1415 0.959 . S
C1409 H1416 0.961 . S
C1409 H1417 0.960 . S
C1410 C1408 1.381 . S
C1410 C1411 1.394 . S
C1410 H1418 0.930 . S
C1411 C1410 1.394 . S
C1411 C1412 1.383 . S
C1411 H1419 0.929 . S
C1412 C1411 1.383 . S
C1412 C1413 1.377 . S
C1413 H1397 0.930 . S
C1413 C1412 1.377 . S
C1413 C1414 1.379 . S
C1414 H1398 0.931 . S
C1414 C1408 1.383 . S
C1414 C1413 1.379 . S
H1415 C1409 0.959 . S
H1416 C1409 0.961 . S
H1417 C1409 0.960 . S
H1418 C1410 0.930 . S
H1419 C1411 0.929 . S
H1420 C1428 0.929 . S
H1421 C1430 0.930 . S
H1422 C1432 0.930 . S
H1423 C1435 0.929 . S
H1424 C1438 0.930 . S
H1425 C1440 0.960 . S
H1426 C1440 0.960 . S
H1427 C1440 0.960 . S
C1428 H1420 0.929 . S
C1428 C1429 1.377 . S
C1428 C1430 1.384 . S
C1429 C1428 1.377 . S
C1429 C1435 1.390 . S
C1430 H1421 0.930 . S
C1430 C1428 1.384 . S
C1430 C1431 1.372 . S
C1431 C1430 1.372 . S
C1431 C1432 1.400 . S
C1431 C1436 1.490 . S
C1432 H1422 0.930 . S
C1432 C1431 1.400 . S
C1432 C1435 1.386 . S
H1433 C1449 0.930 . S
H1434 C1450 0.931 . S
C1435 H1423 0.929 . S
C1435 C1429 1.390 . S
C1435 C1432 1.386 . S
C1436 C1431 1.490 . S
C1436 C1438 1.395 . S
C1436 C1439 1.403 . S
H1437 C1443 0.930 . S
C1438 H1424 0.930 . S
C1438 C1436 1.395 . S
C1438 C1441 1.403 . S
C1439 C1436 1.403 . S
C1439 C1440 1.524 . S
C1439 C1443 1.400 . S
C1440 H1425 0.960 . S
C1440 H1426 0.960 . S
C1440 H1427 0.960 . S
C1440 C1439 1.524 . S
C1441 C1438 1.403 . S
C1441 C1442 1.392 . S
C1441 C1445 1.495 . S
C1442 C1441 1.392 . S
C1442 C1443 1.385 . S
C1442 C1444 1.478 . S
C1443 H1437 0.930 . S
C1443 C1439 1.400 . S
C1443 C1442 1.385 . S
C1444 C1442 1.478 . S
C1444 C1446 1.381 . S
C1444 C1450 1.383 . S
C1445 C1441 1.495 . S
C1445 H1451 0.959 . S
C1445 H1452 0.961 . S
C1445 H1453 0.960 . S
C1446 C1444 1.381 . S
C1446 C1447 1.394 . S
C1446 H1454 0.930 . S
C1447 C1446 1.394 . S
C1447 C1448 1.383 . S
C1447 H1455 0.929 . S
C1448 C1447 1.383 . S
C1448 C1449 1.377 . S
C1449 H1433 0.930 . S
C1449 C1448 1.377 . S
C1449 C1450 1.379 . S
C1450 H1434 0.931 . S
C1450 C1444 1.383 . S
C1450 C1449 1.379 . S
H1451 C1445 0.959 . S
H1452 C1445 0.961 . S
H1453 C1445 0.960 . S
H1454 C1446 0.930 . S
H1455 C1447 0.929 . S
H1456 C1464 0.929 . S
H1457 C1466 0.930 . S
H1458 C1468 0.930 . S
H1459 C1471 0.929 . S
H1460 C1474 0.930 . S
H1461 C1476 0.960 . S
H1462 C1476 0.960 . S
H1463 C1476 0.960 . S
C1464 H1456 0.929 . S
C1464 C1465 1.377 . S
C1464 C1466 1.384 . S
C1465 C1464 1.377 . S
C1465 C1471 1.390 . S
C1466 H1457 0.930 . S
C1466 C1464 1.384 . S
C1466 C1467 1.372 . S
C1467 C1466 1.372 . S
C1467 C1468 1.400 . S
C1467 C1472 1.490 . S
C1468 H1458 0.930 . S
C1468 C1467 1.400 . S
C1468 C1471 1.386 . S
H1469 C1485 0.930 . S
H1470 C1486 0.931 . S
C1471 H1459 0.929 . S
C1471 C1465 1.390 . S
C1471 C1468 1.386 . S
C1472 C1467 1.490 . S
C1472 C1474 1.395 . S
C1472 C1475 1.403 . S
H1473 C1479 0.930 . S
C1474 H1460 0.930 . S
C1474 C1472 1.395 . S
C1474 C1477 1.403 . S
C1475 C1472 1.403 . S
C1475 C1476 1.524 . S
C1475 C1479 1.400 . S
C1476 H1461 0.960 . S
C1476 H1462 0.960 . S
C1476 H1463 0.960 . S
C1476 C1475 1.524 . S
C1477 C1474 1.403 . S
C1477 C1478 1.392 . S
C1477 C1481 1.495 . S
C1478 C1477 1.392 . S
C1478 C1479 1.385 . S
C1478 C1480 1.478 . S
C1479 H1473 0.930 . S
C1479 C1475 1.400 . S
C1479 C1478 1.385 . S
C1480 C1478 1.478 . S
C1480 C1482 1.381 . S
C1480 C1486 1.383 . S
C1481 C1477 1.495 . S
C1481 H1487 0.959 . S
C1481 H1488 0.961 . S
C1481 H1489 0.960 . S
C1482 C1480 1.381 . S
C1482 C1483 1.394 . S
C1482 H1490 0.930 . S
C1483 C1482 1.394 . S
C1483 C1484 1.383 . S
C1483 H1491 0.929 . S
C1484 C1483 1.383 . S
C1484 C1485 1.377 . S
C1485 H1469 0.930 . S
C1485 C1484 1.377 . S
C1485 C1486 1.379 . S
C1486 H1470 0.931 . S
C1486 C1480 1.383 . S
C1486 C1485 1.379 . S
H1487 C1481 0.959 . S
H1488 C1481 0.961 . S
H1489 C1481 0.960 . S
H1490 C1482 0.930 . S
H1491 C1483 0.929 . S
H1492 C1500 0.929 . S
H1493 C1502 0.930 . S
H1494 C1504 0.930 . S
H1495 C1507 0.929 . S
H1496 C1510 0.930 . S
H1497 C1512 0.960 . S
H1498 C1512 0.960 . S
H1499 C1512 0.960 . S
C1500 H1492 0.929 . S
C1500 C1501 1.377 . S
C1500 C1502 1.384 . S
C1501 C1500 1.377 . S
C1501 C1507 1.390 . S
C1502 H1493 0.930 . S
C1502 C1500 1.384 . S
C1502 C1503 1.372 . S
C1503 C1502 1.372 . S
C1503 C1504 1.400 . S
C1503 C1508 1.490 . S
C1504 H1494 0.930 . S
C1504 C1503 1.400 . S
C1504 C1507 1.386 . S
H1505 C1521 0.930 . S
H1506 C1522 0.931 . S
C1507 H1495 0.929 . S
C1507 C1501 1.390 . S
C1507 C1504 1.386 . S
C1508 C1503 1.490 . S
C1508 C1510 1.395 . S
C1508 C1511 1.403 . S
H1509 C1515 0.930 . S
C1510 H1496 0.930 . S
C1510 C1508 1.395 . S
C1510 C1513 1.403 . S
C1511 C1508 1.403 . S
C1511 C1512 1.524 . S
C1511 C1515 1.400 1_554 S
C1512 H1497 0.960 . S
C1512 H1498 0.960 . S
C1512 H1499 0.960 . S
C1512 C1511 1.524 . S
C1513 C1510 1.403 . S
C1513 C1514 1.392 1_554 S
C1513 C1517 1.489 1_554 S
C1514 C1513 1.392 1_556 S
C1514 C1515 1.385 . S
C1514 C1516 1.478 . S
C1515 H1509 0.930 . S
C1515 C1511 1.400 1_556 S
C1515 C1514 1.385 . S
C1516 C1514 1.478 . S
C1516 C1518 1.381 . S
C1516 C1522 1.383 . S
C1517 C1513 1.489 1_556 S
C1517 H1523 0.933 1_556 S
C1517 H1524 0.986 . S
C1517 H1525 0.968 . S
C1518 C1516 1.381 . S
C1518 C1519 1.394 . S
C1518 H1526 0.930 . S
C1519 C1518 1.394 . S
C1519 C1520 1.383 . S
C1519 H1527 0.929 . S
C1520 C1519 1.383 . S
C1520 C1521 1.377 . S
C1521 H1505 0.930 . S
C1521 C1520 1.377 . S
C1521 C1522 1.379 . S
C1522 H1506 0.931 . S
C1522 C1516 1.383 . S
C1522 C1521 1.379 . S
H1523 C1517 0.933 1_554 S
H1524 C1517 0.986 . S
H1525 C1517 0.968 . S
H1526 C1518 0.930 . S
H1527 C1519 0.929 . S
H1528 C1536 0.929 . S
H1529 C1538 0.930 . S
H1530 C1540 0.930 . S
H1531 C1543 0.929 . S
H1532 C1546 0.930 . S
H1533 C1548 0.960 . S
H1534 C1548 0.960 . S
H1535 C1548 0.960 . S
C1536 H1528 0.929 . S
C1536 C1537 1.377 . S
C1536 C1538 1.384 . S
C1537 C1536 1.377 . S
C1537 C1543 1.390 . S
C1538 H1529 0.930 . S
C1538 C1536 1.384 . S
C1538 C1539 1.372 . S
C1539 C1538 1.372 . S
C1539 C1540 1.400 . S
C1539 C1544 1.490 . S
C1540 H1530 0.930 . S
C1540 C1539 1.400 . S
C1540 C1543 1.386 . S
H1541 C1557 0.930 . S
H1542 C1558 0.931 . S
C1543 H1531 0.929 . S
C1543 C1537 1.390 . S
C1543 C1540 1.386 . S
C1544 C1539 1.490 . S
C1544 C1546 1.395 . S
C1544 C1547 1.403 . S
H1545 C1551 0.930 . S
C1546 H1532 0.930 . S
C1546 C1544 1.395 . S
C1546 C1549 1.403 . S
C1547 C1544 1.403 . S
C1547 C1548 1.524 . S
C1547 C1551 1.400 . S
C1548 H1533 0.960 . S
C1548 H1534 0.960 . S
C1548 H1535 0.960 . S
C1548 C1547 1.524 . S
C1549 C1546 1.403 . S
C1549 C1550 1.392 . S
C1549 C1553 1.495 . S
C1550 C1549 1.392 . S
C1550 C1551 1.385 . S
C1550 C1552 1.478 . S
C1551 H1545 0.930 . S
C1551 C1547 1.400 . S
C1551 C1550 1.385 . S
C1552 C1550 1.478 . S
C1552 C1554 1.381 . S
C1552 C1558 1.383 . S
C1553 C1549 1.495 . S
C1553 H1559 0.959 . S
C1553 H1560 0.961 . S
C1553 H1561 0.960 . S
C1554 C1552 1.381 . S
C1554 C1555 1.394 . S
C1554 H1562 0.930 . S
C1555 C1554 1.394 . S
C1555 C1556 1.383 . S
C1555 H1563 0.929 . S
C1556 C1555 1.383 . S
C1556 C1557 1.377 . S
C1557 H1541 0.930 . S
C1557 C1556 1.377 . S
C1557 C1558 1.379 . S
C1558 H1542 0.931 . S
C1558 C1552 1.383 . S
C1558 C1557 1.379 . S
H1559 C1553 0.959 . S
H1560 C1553 0.961 . S
H1561 C1553 0.960 . S
H1562 C1554 0.930 . S
H1563 C1555 0.929 . S
H1564 C1572 0.929 . S
H1565 C1574 0.930 . S
H1566 C1576 0.930 . S
H1567 C1579 0.929 . S
H1568 C1582 0.930 . S
H1569 C1584 0.960 . S
H1570 C1584 0.960 . S
H1571 C1584 0.960 . S
C1572 H1564 0.929 . S
C1572 C1573 1.377 . S
C1572 C1574 1.384 . S
C1573 C1572 1.377 . S
C1573 C1579 1.390 . S
C1574 H1565 0.930 . S
C1574 C1572 1.384 . S
C1574 C1575 1.372 . S
C1575 C1574 1.372 . S
C1575 C1576 1.400 . S
C1575 C1580 1.490 . S
C1576 H1566 0.930 . S
C1576 C1575 1.400 . S
C1576 C1579 1.386 . S
H1577 C1593 0.930 . S
H1578 C1594 0.931 . S
C1579 H1567 0.929 . S
C1579 C1573 1.390 . S
C1579 C1576 1.386 . S
C1580 C1575 1.490 . S
C1580 C1582 1.395 . S
C1580 C1583 1.403 1_655 S
H1581 C1587 0.930 . S
C1582 H1568 0.930 . S
C1582 C1580 1.395 . S
C1582 C1585 1.403 . S
C1583 C1580 1.403 1_455 S
C1583 C1584 1.524 . S
C1583 C1587 1.400 . S
C1584 H1569 0.960 . S
C1584 H1570 0.960 . S
C1584 H1571 0.960 . S
C1584 C1583 1.524 . S
C1585 C1582 1.403 . S
C1585 C1586 1.392 1_655 S
C1585 C1589 1.495 . S
C1586 C1585 1.392 1_455 S
C1586 C1587 1.385 . S
C1586 C1588 1.478 . S
C1587 H1581 0.930 . S
C1587 C1583 1.400 . S
C1587 C1586 1.385 . S
C1588 C1586 1.478 . S
C1588 C1590 1.381 . S
C1588 C1594 1.383 . S
C1589 C1585 1.495 . S
C1589 H1595 0.959 . S
C1589 H1596 0.961 . S
C1589 H1597 0.960 . S
C1590 C1588 1.381 . S
C1590 C1591 1.394 . S
C1590 H1598 0.930 . S
C1591 C1590 1.394 . S
C1591 C1592 1.383 . S
C1591 H1599 0.929 . S
C1592 C1591 1.383 . S
C1592 C1593 1.377 . S
C1593 H1577 0.930 . S
C1593 C1592 1.377 . S
C1593 C1594 1.379 . S
C1594 H1578 0.931 . S
C1594 C1588 1.383 . S
C1594 C1593 1.379 . S
H1595 C1589 0.959 . S
H1596 C1589 0.961 . S
H1597 C1589 0.960 . S
H1598 C1590 0.930 . S
H1599 C1591 0.929 . S
H1600 C1608 0.929 . S
H1601 C1610 0.930 . S
H1602 C1612 0.930 . S
H1603 C1615 0.929 . S
H1604 C1618 0.930 . S
H1605 C1620 0.960 . S
H1606 C1620 0.960 . S
H1607 C1620 0.960 . S
C1608 H1600 0.929 . S
C1608 C1609 1.377 . S
C1608 C1610 1.384 . S
C1609 C1608 1.377 . S
C1609 C1615 1.390 . S
C1610 H1601 0.930 . S
C1610 C1608 1.384 . S
C1610 C1611 1.372 . S
C1611 C1610 1.372 . S
C1611 C1612 1.400 . S
C1611 C1616 1.490 . S
C1612 H1602 0.930 . S
C1612 C1611 1.400 . S
C1612 C1615 1.386 . S
H1613 C1629 0.930 . S
H1614 C1630 0.931 . S
C1615 H1603 0.929 . S
C1615 C1609 1.390 . S
C1615 C1612 1.386 . S
C1616 C1611 1.490 . S
C1616 C1618 1.395 . S
C1616 C1619 1.403 . S
H1617 C1623 0.930 . S
C1618 H1604 0.930 . S
C1618 C1616 1.395 . S
C1618 C1621 1.403 . S
C1619 C1616 1.403 . S
C1619 C1620 1.524 . S
C1619 C1623 1.400 . S
C1620 H1605 0.960 . S
C1620 H1606 0.960 . S
C1620 H1607 0.960 . S
C1620 C1619 1.524 . S
C1621 C1618 1.403 . S
C1621 C1622 1.392 . S
C1621 C1625 1.495 . S
C1622 C1621 1.392 . S
C1622 C1623 1.385 . S
C1622 C1624 1.478 . S
C1623 H1617 0.930 . S
C1623 C1619 1.400 . S
C1623 C1622 1.385 . S
C1624 C1622 1.478 . S
C1624 C1626 1.381 . S
C1624 C1630 1.383 . S
C1625 C1621 1.495 . S
C1625 H1631 0.959 . S
C1625 H1632 0.961 . S
C1625 H1633 0.960 . S
C1626 C1624 1.381 . S
C1626 C1627 1.394 . S
C1626 H1634 0.930 . S
C1627 C1626 1.394 . S
C1627 C1628 1.383 . S
C1627 H1635 0.929 . S
C1628 C1627 1.383 . S
C1628 C1629 1.377 . S
C1629 H1613 0.930 . S
C1629 C1628 1.377 . S
C1629 C1630 1.379 . S
C1630 H1614 0.931 . S
C1630 C1624 1.383 . S
C1630 C1629 1.379 . S
H1631 C1625 0.959 . S
H1632 C1625 0.961 . S
H1633 C1625 0.960 . S
H1634 C1626 0.930 . S
H1635 C1627 0.929 . S
H1636 C1644 0.929 . S
H1637 C1646 0.930 . S
H1638 C1648 0.930 . S
H1639 C1651 0.929 . S
H1640 C1654 0.930 . S
H1641 C1656 0.960 . S
H1642 C1656 0.960 . S
H1643 C1656 0.960 . S
C1644 H1636 0.929 . S
C1644 C1645 1.377 . S
C1644 C1646 1.384 . S
C1645 C1644 1.377 . S
C1645 C1651 1.390 . S
C1646 H1637 0.930 . S
C1646 C1644 1.384 . S
C1646 C1647 1.372 . S
C1647 C1646 1.372 . S
C1647 C1648 1.400 . S
C1647 C1652 1.490 . S
C1648 H1638 0.930 . S
C1648 C1647 1.400 . S
C1648 C1651 1.386 . S
H1649 C1665 0.930 . S
H1650 C1666 0.931 . S
C1651 H1639 0.929 . S
C1651 C1645 1.390 . S
C1651 C1648 1.386 . S
C1652 C1647 1.490 . S
C1652 C1654 1.395 . S
C1652 C1655 1.403 . S
H1653 C1659 0.930 . S
C1654 H1640 0.930 . S
C1654 C1652 1.395 . S
C1654 C1657 1.403 . S
C1655 C1652 1.403 . S
C1655 C1656 1.524 . S
C1655 C1659 1.400 . S
C1656 H1641 0.960 . S
C1656 H1642 0.960 . S
C1656 H1643 0.960 . S
C1656 C1655 1.524 . S
C1657 C1654 1.403 . S
C1657 C1658 1.392 . S
C1657 C1661 1.495 . S
C1658 C1657 1.392 . S
C1658 C1659 1.385 . S
C1658 C1660 1.478 . S
C1659 H1653 0.930 . S
C1659 C1655 1.400 . S
C1659 C1658 1.385 . S
C1660 C1658 1.478 . S
C1660 C1662 1.381 . S
C1660 C1666 1.383 . S
C1661 C1657 1.495 . S
C1661 H1667 0.959 . S
C1661 H1668 0.961 . S
C1661 H1669 0.960 . S
C1662 C1660 1.381 . S
C1662 C1663 1.394 . S
C1662 H1670 0.930 . S
C1663 C1662 1.394 . S
C1663 C1664 1.383 . S
C1663 H1671 0.929 . S
C1664 C1663 1.383 . S
C1664 C1665 1.377 . S
C1665 H1649 0.930 . S
C1665 C1664 1.377 . S
C1665 C1666 1.379 . S
C1666 H1650 0.931 . S
C1666 C1660 1.383 . S
C1666 C1665 1.379 . S
H1667 C1661 0.959 . S
H1668 C1661 0.961 . S
H1669 C1661 0.960 . S
H1670 C1662 0.930 . S
H1671 C1663 0.929 . S
H1672 C1680 0.929 . S
H1673 C1682 0.930 . S
H1674 C1684 0.930 . S
H1675 C1687 0.929 . S
H1676 C1690 0.930 . S
H1677 C1692 0.960 . S
H1678 C1692 0.960 . S
H1679 C1692 0.960 . S
C1680 H1672 0.929 . S
C1680 C1681 1.377 . S
C1680 C1682 1.384 . S
C1681 C1680 1.377 . S
C1681 C1687 1.390 . S
C1682 H1673 0.930 . S
C1682 C1680 1.384 . S
C1682 C1683 1.372 . S
C1683 C1682 1.372 . S
C1683 C1684 1.400 . S
C1683 C1688 1.490 . S
C1684 H1674 0.930 . S
C1684 C1683 1.400 . S
C1684 C1687 1.386 . S
H1685 C1701 0.930 . S
H1686 C1702 0.931 . S
C1687 H1675 0.929 . S
C1687 C1681 1.390 . S
C1687 C1684 1.386 . S
C1688 C1683 1.490 . S
C1688 C1690 1.395 . S
C1688 C1691 1.403 . S
H1689 C1695 0.930 . S
C1690 H1676 0.930 . S
C1690 C1688 1.395 . S
C1690 C1693 1.403 . S
C1691 C1688 1.403 . S
C1691 C1692 1.524 . S
C1691 C1695 1.400 . S
C1692 H1677 0.960 . S
C1692 H1678 0.960 . S
C1692 H1679 0.960 . S
C1692 C1691 1.524 . S
C1693 C1690 1.403 . S
C1693 C1694 1.392 . S
C1693 C1697 1.495 . S
C1694 C1693 1.392 . S
C1694 C1695 1.385 . S
C1694 C1696 1.478 . S
C1695 H1689 0.930 . S
C1695 C1691 1.400 . S
C1695 C1694 1.385 . S
C1696 C1694 1.478 . S
C1696 C1698 1.381 . S
C1696 C1702 1.383 . S
C1697 C1693 1.495 . S
C1697 H1703 0.959 . S
C1697 H1704 0.961 . S
C1697 H1705 0.960 . S
C1698 C1696 1.381 . S
C1698 C1699 1.394 . S
C1698 H1706 0.930 . S
C1699 C1698 1.394 . S
C1699 C1700 1.383 . S
C1699 H1707 0.929 . S
C1700 C1699 1.383 . S
C1700 C1701 1.377 . S
C1701 H1685 0.930 . S
C1701 C1700 1.377 . S
C1701 C1702 1.379 . S
C1702 H1686 0.931 . S
C1702 C1696 1.383 . S
C1702 C1701 1.379 . S
H1703 C1697 0.959 . S
H1704 C1697 0.961 . S
H1705 C1697 0.960 . S
H1706 C1698 0.930 . S
H1707 C1699 0.929 . S
H1708 C1716 0.929 . S
H1709 C1718 0.930 . S
H1710 C1720 0.930 . S
H1711 C1723 0.929 . S
H1712 C1726 0.930 . S
H1713 C1728 0.960 1_556 S
H1714 C1728 0.960 . S
H1715 C1728 0.960 . S
C1716 H1708 0.929 . S
C1716 C1717 1.377 . S
C1716 C1718 1.384 . S
C1717 C1716 1.377 . S
C1717 C1723 1.390 . S
C1718 H1709 0.930 . S
C1718 C1716 1.384 . S
C1718 C1719 1.372 . S
C1719 C1718 1.372 . S
C1719 C1720 1.400 . S
C1719 C1724 1.490 . S
C1720 H1710 0.930 . S
C1720 C1719 1.400 . S
C1720 C1723 1.386 . S
H1721 C1737 0.930 . S
H1722 C1738 0.931 . S
C1723 H1711 0.929 . S
C1723 C1717 1.390 . S
C1723 C1720 1.386 . S
C1724 C1719 1.490 . S
C1724 C1726 1.395 1_455 S
C1724 C1727 1.403 . S
H1725 C1731 0.930 . S
C1726 H1712 0.930 . S
C1726 C1724 1.395 1_655 S
C1726 C1729 1.403 . S
C1727 C1724 1.403 . S
C1727 C1728 1.524 . S
C1727 C1731 1.400 1_554 S
C1728 H1713 0.960 1_554 S
C1728 H1714 0.960 . S
C1728 H1715 0.960 . S
C1728 C1727 1.524 . S
C1729 C1726 1.403 . S
C1729 C1730 1.392 1_554 S
C1729 C1733 1.495 . S
C1730 C1729 1.392 1_556 S
C1730 C1731 1.385 1_655 S
C1730 C1732 1.478 . S
C1731 H1725 0.930 . S
C1731 C1727 1.400 1_556 S
C1731 C1730 1.385 1_455 S
C1732 C1730 1.478 . S
C1732 C1734 1.381 . S
C1732 C1738 1.383 . S
C1733 C1729 1.495 . S
C1733 H1739 0.959 . S
C1733 H1740 0.961 . S
C1733 H1741 0.960 1_554 S
C1734 C1732 1.381 . S
C1734 C1735 1.394 . S
C1734 H1742 0.930 . S
C1735 C1734 1.394 . S
C1735 C1736 1.383 . S
C1735 H1743 0.929 . S
C1736 C1735 1.383 . S
C1736 C1737 1.377 . S
C1737 H1721 0.930 . S
C1737 C1736 1.377 . S
C1737 C1738 1.379 . S
C1738 H1722 0.931 . S
C1738 C1732 1.383 . S
C1738 C1737 1.379 . S
H1739 C1733 0.959 . S
H1740 C1733 0.961 . S
H1741 C1733 0.960 1_556 S
H1742 C1734 0.930 . S
H1743 C1735 0.929 . S
H1744 C1752 0.929 . S
H1745 C1754 0.930 . S
H1746 C1756 0.930 . S
H1747 C1759 0.929 . S
H1748 C1762 0.930 . S
H1749 C1764 0.960 . S
H1750 C1764 0.960 . S
H1751 C1764 0.960 . S
C1752 H1744 0.929 . S
C1752 C1753 1.377 . S
C1752 C1754 1.384 . S
C1753 C1752 1.377 . S
C1753 C1759 1.390 . S
C1754 H1745 0.930 . S
C1754 C1752 1.384 . S
C1754 C1755 1.372 . S
C1755 C1754 1.372 . S
C1755 C1756 1.400 . S
C1755 C1760 1.490 . S
C1756 H1746 0.930 . S
C1756 C1755 1.400 . S
C1756 C1759 1.386 . S
H1757 C1773 0.930 . S
H1758 C1774 0.931 . S
C1759 H1747 0.929 . S
C1759 C1753 1.390 . S
C1759 C1756 1.386 . S
C1760 C1755 1.490 . S
C1760 C1762 1.395 . S
C1760 C1763 1.403 . S
H1761 C1767 0.930 . S
C1762 H1748 0.930 . S
C1762 C1760 1.395 . S
C1762 C1765 1.403 . S
C1763 C1760 1.403 . S
C1763 C1764 1.524 . S
C1763 C1767 1.400 . S
C1764 H1749 0.960 . S
C1764 H1750 0.960 . S
C1764 H1751 0.960 . S
C1764 C1763 1.524 . S
C1765 C1762 1.403 . S
C1765 C1766 1.392 . S
C1765 C1769 1.495 . S
C1766 C1765 1.392 . S
C1766 C1767 1.385 . S
C1766 C1768 1.478 . S
C1767 H1761 0.930 . S
C1767 C1763 1.400 . S
C1767 C1766 1.385 . S
C1768 C1766 1.478 . S
C1768 C1770 1.381 . S
C1768 C1774 1.383 . S
C1769 C1765 1.495 . S
C1769 H1775 0.959 . S
C1769 H1776 0.961 . S
C1769 H1777 0.960 . S
C1770 C1768 1.381 . S
C1770 C1771 1.394 . S
C1770 H1778 0.930 . S
C1771 C1770 1.394 . S
C1771 C1772 1.383 . S
C1771 H1779 0.929 . S
C1772 C1771 1.383 . S
C1772 C1773 1.377 . S
C1773 H1757 0.930 . S
C1773 C1772 1.377 . S
C1773 C1774 1.379 . S
C1774 H1758 0.931 . S
C1774 C1768 1.383 . S
C1774 C1773 1.379 . S
H1775 C1769 0.959 . S
H1776 C1769 0.961 . S
H1777 C1769 0.960 . S
H1778 C1770 0.930 . S
H1779 C1771 0.929 . S
H1780 C1788 0.929 . S
H1781 C1790 0.929 . S
H1782 C1792 0.930 . S
H1783 C1795 0.929 . S
H1784 C1798 0.930 . S
H1785 C1800 0.960 . S
H1786 C1800 0.960 . S
H1787 C1800 0.960 . S
C1788 H1780 0.929 . S
C1788 C1789 1.377 . S
C1788 C1790 1.384 . S
C1789 C1788 1.377 . S
C1789 C1795 1.390 . S
C1790 H1781 0.929 . S
C1790 C1788 1.384 . S
C1790 C1791 1.372 . S
C1791 C1790 1.372 . S
C1791 C1792 1.400 . S
C1791 C1796 1.490 . S
C1792 H1782 0.930 . S
C1792 C1791 1.400 . S
C1792 C1795 1.386 . S
H1793 C1809 0.930 . S
H1794 C1810 0.931 . S
C1795 H1783 0.929 . S
C1795 C1789 1.390 . S
C1795 C1792 1.386 . S
C1796 C1791 1.490 . S
C1796 C1798 1.395 1_655 S
C1796 C1799 1.403 . S
H1797 C1803 0.930 . S
C1798 H1784 0.930 . S
C1798 C1796 1.395 1_455 S
C1798 C1801 1.403 . S
C1799 C1796 1.403 . S
C1799 C1800 1.524 . S
C1799 C1803 1.400 . S
C1800 H1785 0.960 . S
C1800 H1786 0.960 . S
C1800 H1787 0.960 . S
C1800 C1799 1.524 . S
C1801 C1798 1.403 . S
C1801 C1802 1.392 . S
C1801 C1805 1.495 . S
C1802 C1801 1.392 . S
C1802 C1803 1.385 1_455 S
C1802 C1804 1.478 . S
C1803 H1797 0.930 . S
C1803 C1799 1.400 . S
C1803 C1802 1.385 1_655 S
C1804 C1802 1.478 . S
C1804 C1806 1.381 . S
C1804 C1810 1.383 . S
C1805 C1801 1.495 . S
C1805 H1811 0.959 . S
C1805 H1812 0.961 . S
C1805 H1813 0.960 . S
C1806 C1804 1.381 . S
C1806 C1807 1.394 . S
C1806 H1814 0.930 . S
C1807 C1806 1.394 . S
C1807 C1808 1.383 . S
C1807 H1815 0.929 . S
C1808 C1807 1.383 . S
C1808 C1809 1.377 . S
C1809 H1793 0.930 . S
C1809 C1808 1.377 . S
C1809 C1810 1.379 . S
C1810 H1794 0.931 . S
C1810 C1804 1.383 . S
C1810 C1809 1.379 . S
H1811 C1805 0.959 . S
H1812 C1805 0.961 . S
H1813 C1805 0.960 . S
H1814 C1806 0.930 . S
H1815 C1807 0.929 . S
H1816 C1824 0.929 . S
H1817 C1826 0.930 . S
H1818 C1828 0.930 . S
H1819 C1831 0.929 . S
H1820 C1834 0.930 . S
H1821 C1836 0.960 . S
H1822 C1836 0.960 . S
H1823 C1836 0.960 . S
C1824 H1816 0.929 . S
C1824 C1825 1.377 . S
C1824 C1826 1.384 . S
C1825 C1824 1.377 . S
C1825 C1831 1.390 . S
C1826 H1817 0.930 . S
C1826 C1824 1.384 . S
C1826 C1827 1.372 . S
C1827 C1826 1.372 . S
C1827 C1828 1.400 . S
C1827 C1832 1.490 . S
C1828 H1818 0.930 . S
C1828 C1827 1.400 . S
C1828 C1831 1.386 . S
H1829 C1845 0.930 . S
H1830 C1846 0.931 . S
C1831 H1819 0.929 . S
C1831 C1825 1.390 . S
C1831 C1828 1.386 . S
C1832 C1827 1.490 . S
C1832 C1834 1.395 . S
C1832 C1835 1.403 . S
H1833 C1839 0.930 . S
C1834 H1820 0.930 . S
C1834 C1832 1.395 . S
C1834 C1837 1.403 . S
C1835 C1832 1.403 . S
C1835 C1836 1.524 . S
C1835 C1839 1.400 . S
C1836 H1821 0.960 . S
C1836 H1822 0.960 . S
C1836 H1823 0.960 . S
C1836 C1835 1.524 . S
C1837 C1834 1.403 . S
C1837 C1838 1.392 . S
C1837 C1841 1.495 . S
C1838 C1837 1.392 . S
C1838 C1839 1.385 . S
C1838 C1840 1.478 . S
C1839 H1833 0.930 . S
C1839 C1835 1.400 . S
C1839 C1838 1.385 . S
C1840 C1838 1.478 . S
C1840 C1842 1.381 . S
C1840 C1846 1.383 . S
C1841 C1837 1.495 . S
C1841 H1847 0.959 . S
C1841 H1848 0.961 . S
C1841 H1849 0.960 . S
C1842 C1840 1.381 . S
C1842 C1843 1.394 . S
C1842 H1850 0.930 . S
C1843 C1842 1.394 . S
C1843 C1844 1.383 . S
C1843 H1851 0.929 . S
C1844 C1843 1.383 . S
C1844 C1845 1.377 . S
C1845 H1829 0.930 . S
C1845 C1844 1.377 . S
C1845 C1846 1.379 . S
C1846 H1830 0.931 . S
C1846 C1840 1.383 . S
C1846 C1845 1.379 . S
H1847 C1841 0.959 . S
H1848 C1841 0.961 . S
H1849 C1841 0.960 . S
H1850 C1842 0.930 . S
H1851 C1843 0.929 . S
H1852 C1860 0.929 . S
H1853 C1862 0.930 . S
H1854 C1864 0.930 . S
H1855 C1867 0.929 . S
H1856 C1870 0.930 . S
H1857 C1872 0.960 1_556 S
H1858 C1872 0.960 . S
H1859 C1872 0.960 . S
C1860 H1852 0.929 . S
C1860 C1861 1.377 . S
C1860 C1862 1.384 . S
C1861 C1860 1.377 . S
C1861 C1867 1.390 . S
C1862 H1853 0.930 . S
C1862 C1860 1.384 . S
C1862 C1863 1.372 . S
C1863 C1862 1.372 . S
C1863 C1864 1.400 . S
C1863 C1868 1.490 . S
C1864 H1854 0.930 . S
C1864 C1863 1.400 . S
C1864 C1867 1.386 . S
H1865 C1881 0.930 . S
H1866 C1882 0.931 . S
C1867 H1855 0.929 . S
C1867 C1861 1.390 . S
C1867 C1864 1.386 . S
C1868 C1863 1.490 . S
C1868 C1870 1.395 . S
C1868 C1871 1.403 1_554 S
H1869 C1875 0.930 . S
C1870 H1856 0.930 . S
C1870 C1868 1.395 . S
C1870 C1873 1.403 1_554 S
C1871 C1868 1.403 1_556 S
C1871 C1872 1.524 1_556 S
C1871 C1875 1.400 . S
C1872 H1857 0.960 1_554 S
C1872 H1858 0.960 . S
C1872 H1859 0.960 . S
C1872 C1871 1.524 1_554 S
C1873 C1870 1.403 1_556 S
C1873 C1874 1.392 . S
C1873 C1877 1.495 . S
C1874 C1873 1.392 . S
C1874 C1875 1.385 . S
C1874 C1876 1.478 . S
C1875 H1869 0.930 . S
C1875 C1871 1.400 . S
C1875 C1874 1.385 . S
C1876 C1874 1.478 . S
C1876 C1878 1.381 . S
C1876 C1882 1.383 . S
C1877 C1873 1.495 . S
C1877 H1883 0.959 . S
C1877 H1884 0.961 . S
C1877 H1885 0.960 . S
C1878 C1876 1.381 . S
C1878 C1879 1.394 . S
C1878 H1886 0.930 . S
C1879 C1878 1.394 . S
C1879 C1880 1.383 . S
C1879 H1887 0.929 . S
C1880 C1879 1.383 . S
C1880 C1881 1.377 . S
C1881 H1865 0.930 . S
C1881 C1880 1.377 . S
C1881 C1882 1.379 . S
C1882 H1866 0.931 . S
C1882 C1876 1.383 . S
C1882 C1881 1.379 . S
H1883 C1877 0.959 . S
H1884 C1877 0.961 . S
H1885 C1877 0.960 . S
H1886 C1878 0.930 . S
H1887 C1879 0.929 . S
H1888 C1896 0.929 . S
H1889 C1898 0.930 . S
H1890 C1900 0.930 . S
H1891 C1903 0.929 . S
H1892 C1906 0.930 . S
H1893 C1908 0.960 . S
H1894 C1908 0.960 . S
H1895 C1908 0.960 . S
C1896 H1888 0.929 . S
C1896 C1897 1.377 . S
C1896 C1898 1.384 . S
C1897 C1896 1.377 . S
C1897 C1903 1.390 . S
C1898 H1889 0.930 . S
C1898 C1896 1.384 . S
C1898 C1899 1.372 . S
C1899 C1898 1.372 . S
C1899 C1900 1.400 . S
C1899 C1904 1.490 . S
C1900 H1890 0.930 . S
C1900 C1899 1.400 . S
C1900 C1903 1.386 . S
H1901 C1917 0.930 . S
H1902 C1918 0.931 . S
C1903 H1891 0.929 . S
C1903 C1897 1.390 . S
C1903 C1900 1.386 . S
C1904 C1899 1.490 . S
C1904 C1906 1.395 . S
C1904 C1907 1.403 . S
H1905 C1911 0.930 . S
C1906 H1892 0.930 . S
C1906 C1904 1.395 . S
C1906 C1909 1.403 . S
C1907 C1904 1.403 . S
C1907 C1908 1.524 . S
C1907 C1911 1.400 . S
C1908 H1893 0.960 . S
C1908 H1894 0.960 . S
C1908 H1895 0.960 . S
C1908 C1907 1.524 . S
C1909 C1906 1.403 . S
C1909 C1910 1.392 . S
C1909 C1913 1.495 . S
C1910 C1909 1.392 . S
C1910 C1911 1.385 . S
C1910 C1912 1.478 . S
C1911 H1905 0.930 . S
C1911 C1907 1.400 . S
C1911 C1910 1.385 . S
C1912 C1910 1.478 . S
C1912 C1914 1.381 . S
C1912 C1918 1.383 . S
C1913 C1909 1.495 . S
C1913 H1919 0.959 . S
C1913 H1920 0.961 . S
C1913 H1921 0.960 . S
C1914 C1912 1.381 . S
C1914 C1915 1.394 . S
C1914 H1922 0.930 . S
C1915 C1914 1.394 . S
C1915 C1916 1.383 . S
C1915 H1923 0.929 . S
C1916 C1915 1.383 . S
C1916 C1917 1.377 . S
C1917 H1901 0.930 . S
C1917 C1916 1.377 . S
C1917 C1918 1.379 . S
C1918 H1902 0.931 . S
C1918 C1912 1.383 . S
C1918 C1917 1.379 . S
H1919 C1913 0.959 . S
H1920 C1913 0.961 . S
H1921 C1913 0.960 . S
H1922 C1914 0.930 . S
H1923 C1915 0.929 . S
H1924 C1932 0.929 . S
H1925 C1934 0.930 . S
H1926 C1936 0.930 . S
H1927 C1939 0.929 . S
H1928 C1942 0.930 . S
H1929 C1944 0.960 . S
H1930 C1944 0.960 . S
H1931 C1944 0.960 . S
C1932 H1924 0.929 . S
C1932 C1933 1.377 . S
C1932 C1934 1.384 . S
C1933 C1932 1.377 . S
C1933 C1939 1.390 . S
C1934 H1925 0.930 . S
C1934 C1932 1.384 . S
C1934 C1935 1.372 . S
C1935 C1934 1.372 . S
C1935 C1936 1.400 . S
C1935 C1940 1.490 . S
C1936 H1926 0.930 . S
C1936 C1935 1.400 . S
C1936 C1939 1.386 . S
H1937 C1953 0.930 . S
H1938 C1954 0.931 . S
C1939 H1927 0.929 . S
C1939 C1933 1.390 . S
C1939 C1936 1.386 . S
C1940 C1935 1.490 . S
C1940 C1942 1.395 . S
C1940 C1943 1.403 . S
H1941 C1947 0.930 . S
C1942 H1928 0.930 . S
C1942 C1940 1.395 . S
C1942 C1945 1.403 . S
C1943 C1940 1.403 . S
C1943 C1944 1.524 . S
C1943 C1947 1.400 . S
C1944 H1929 0.960 . S
C1944 H1930 0.960 . S
C1944 H1931 0.960 . S
C1944 C1943 1.524 . S
C1945 C1942 1.403 . S
C1945 C1946 1.392 . S
C1945 C1949 1.495 . S
C1946 C1945 1.392 . S
C1946 C1947 1.385 . S
C1946 C1948 1.478 . S
C1947 H1941 0.930 . S
C1947 C1943 1.400 . S
C1947 C1946 1.385 . S
C1948 C1946 1.478 . S
C1948 C1950 1.381 . S
C1948 C1954 1.383 . S
C1949 C1945 1.495 . S
C1949 H1955 0.959 . S
C1949 H1956 0.961 . S
C1949 H1957 0.960 . S
C1950 C1948 1.381 . S
C1950 C1951 1.394 . S
C1950 H1958 0.930 . S
C1951 C1950 1.394 . S
C1951 C1952 1.383 . S
C1951 H1959 0.929 . S
C1952 C1951 1.383 . S
C1952 C1953 1.377 . S
C1953 H1937 0.930 . S
C1953 C1952 1.377 . S
C1953 C1954 1.379 . S
C1954 H1938 0.931 . S
C1954 C1948 1.383 . S
C1954 C1953 1.379 . S
H1955 C1949 0.959 . S
H1956 C1949 0.961 . S
H1957 C1949 0.960 . S
H1958 C1950 0.930 . S
H1959 C1951 0.929 . S
H1960 C1968 0.929 . S
H1961 C1970 0.930 . S
H1962 C1972 0.930 . S
H1963 C1975 0.929 . S
H1964 C1978 0.930 . S
H1965 C1980 0.960 . S
H1966 C1980 0.960 . S
H1967 C1980 0.960 . S
C1968 H1960 0.929 . S
C1968 C1969 1.377 . S
C1968 C1970 1.384 . S
C1969 C1968 1.377 . S
C1969 C1975 1.390 . S
C1970 H1961 0.930 . S
C1970 C1968 1.384 . S
C1970 C1971 1.372 . S
C1971 C1970 1.372 . S
C1971 C1972 1.400 . S
C1971 C1976 1.490 . S
C1972 H1962 0.930 . S
C1972 C1971 1.400 . S
C1972 C1975 1.386 . S
H1973 C1989 0.930 . S
H1974 C1990 0.931 . S
C1975 H1963 0.929 . S
C1975 C1969 1.390 . S
C1975 C1972 1.386 . S
C1976 C1971 1.490 . S
C1976 C1978 1.395 . S
C1976 C1979 1.403 . S
H1977 C1983 0.930 . S
C1978 H1964 0.930 . S
C1978 C1976 1.395 . S
C1978 C1981 1.403 . S
C1979 C1976 1.403 . S
C1979 C1980 1.524 . S
C1979 C1983 1.400 . S
C1980 H1965 0.960 . S
C1980 H1966 0.960 . S
C1980 H1967 0.960 . S
C1980 C1979 1.524 . S
C1981 C1978 1.403 . S
C1981 C1982 1.392 . S
C1981 C1985 1.495 . S
C1982 C1981 1.392 . S
C1982 C1983 1.385 . S
C1982 C1984 1.478 . S
C1983 H1977 0.930 . S
C1983 C1979 1.400 . S
C1983 C1982 1.385 . S
C1984 C1982 1.478 . S
C1984 C1986 1.381 . S
C1984 C1990 1.383 . S
C1985 C1981 1.495 . S
C1985 H1991 0.959 . S
C1985 H1992 0.961 . S
C1985 H1993 0.960 . S
C1986 C1984 1.381 . S
C1986 C1987 1.394 . S
C1986 H1994 0.930 . S
C1987 C1986 1.394 . S
C1987 C1988 1.383 . S
C1987 H1995 0.929 . S
C1988 C1987 1.383 . S
C1988 C1989 1.377 . S
C1989 H1973 0.930 . S
C1989 C1988 1.377 . S
C1989 C1990 1.379 . S
C1990 H1974 0.931 . S
C1990 C1984 1.383 . S
C1990 C1989 1.379 . S
H1991 C1985 0.959 . S
H1992 C1985 0.961 . S
H1993 C1985 0.960 . S
H1994 C1986 0.930 . S
H1995 C1987 0.929 . S
H1996 C2004 0.929 . S
H1997 C2006 0.930 . S
H1998 C2008 0.930 1_455 S
H1999 C2011 0.929 . S
H2000 C2014 0.930 . S
H2001 C2016 0.960 . S
H2002 C2016 0.960 . S
H2003 C2016 0.960 . S
C2004 H1996 0.929 . S
C2004 C2005 1.377 . S
C2004 C2006 1.384 . S
C2005 C2004 1.377 . S
C2005 C2011 1.390 . S
C2006 H1997 0.930 . S
C2006 C2004 1.384 . S
C2006 C2007 1.372 . S
C2007 C2006 1.372 . S
C2007 C2008 1.400 . S
C2007 C2012 1.490 . S
C2008 H1998 0.930 1_655 S
C2008 C2007 1.400 . S
C2008 C2011 1.386 . S
H2009 C2025 0.930 . S
H2010 C2026 0.931 . S
C2011 H1999 0.929 . S
C2011 C2005 1.390 . S
C2011 C2008 1.386 . S
C2012 C2007 1.490 . S
C2012 C2014 1.395 . S
C2012 C2015 1.403 1_655 S
H2013 C2019 0.930 1_554 S
C2014 H2000 0.930 . S
C2014 C2012 1.395 . S
C2014 C2017 1.403 1_556 S
C2015 C2012 1.403 1_455 S
C2015 C2016 1.524 . S
C2015 C2019 1.400 . S
C2016 H2001 0.960 . S
C2016 H2002 0.960 . S
C2016 H2003 0.960 . S
C2016 C2015 1.524 . S
C2017 C2014 1.403 1_554 S
C2017 C2018 1.392 1_655 S
C2017 C2021 1.495 . S
C2018 C2017 1.392 1_455 S
C2018 C2019 1.385 1_554 S
C2018 C2020 1.478 . S
C2019 H2013 0.930 1_556 S
C2019 C2015 1.400 . S
C2019 C2018 1.385 1_556 S
C2020 C2018 1.478 . S
C2020 C2022 1.381 . S
C2020 C2026 1.383 . S
C2021 C2017 1.495 . S
C2021 H2027 0.959 . S
C2021 H2028 0.961 . S
C2021 H2029 0.960 . S
C2022 C2020 1.381 . S
C2022 C2023 1.394 . S
C2022 H2030 0.930 1_455 S
C2023 C2022 1.394 . S
C2023 C2024 1.383 . S
C2023 H2031 0.929 . S
C2024 C2023 1.383 . S
C2024 C2025 1.377 . S
C2025 H2009 0.930 . S
C2025 C2024 1.377 . S
C2025 C2026 1.379 . S
C2026 H2010 0.931 . S
C2026 C2020 1.383 . S
C2026 C2025 1.379 . S
H2027 C2021 0.959 . S
H2028 C2021 0.961 . S
H2029 C2021 0.960 . S
H2030 C2022 0.930 1_655 S
H2031 C2023 0.929 . S
H2032 C2040 0.929 . S
H2033 C2042 0.930 . S
H2034 C2044 0.930 . S
H2035 C2047 0.929 . S
H2036 C2050 0.930 . S
H2037 C2052 0.960 . S
H2038 C2052 0.960 . S
H2039 C2052 0.960 . S
C2040 H2032 0.929 . S
C2040 C2041 1.377 . S
C2040 C2042 1.384 . S
C2041 C2040 1.377 . S
C2041 C2047 1.390 . S
C2042 H2033 0.930 . S
C2042 C2040 1.384 . S
C2042 C2043 1.372 . S
C2043 C2042 1.372 . S
C2043 C2044 1.400 . S
C2043 C2048 1.490 . S
C2044 H2034 0.930 . S
C2044 C2043 1.400 . S
C2044 C2047 1.386 . S
H2045 C2061 0.930 . S
H2046 C2062 0.931 . S
C2047 H2035 0.929 . S
C2047 C2041 1.390 . S
C2047 C2044 1.386 . S
C2048 C2043 1.490 . S
C2048 C2050 1.395 . S
C2048 C2051 1.403 . S
H2049 C2055 0.930 . S
C2050 H2036 0.930 . S
C2050 C2048 1.395 . S
C2050 C2053 1.403 . S
C2051 C2048 1.403 . S
C2051 C2052 1.524 . S
C2051 C2055 1.400 . S
C2052 H2037 0.960 . S
C2052 H2038 0.960 . S
C2052 H2039 0.960 . S
C2052 C2051 1.524 . S
C2053 C2050 1.403 . S
C2053 C2054 1.392 . S
C2053 C2057 1.495 . S
C2054 C2053 1.392 . S
C2054 C2055 1.385 . S
C2054 C2056 1.478 . S
C2055 H2049 0.930 . S
C2055 C2051 1.400 . S
C2055 C2054 1.385 . S
C2056 C2054 1.478 . S
C2056 C2058 1.381 . S
C2056 C2062 1.383 . S
C2057 C2053 1.495 . S
C2057 H2063 0.959 . S
C2057 H2064 0.961 . S
C2057 H2065 0.960 . S
C2058 C2056 1.381 . S
C2058 C2059 1.394 . S
C2058 H2066 0.930 . S
C2059 C2058 1.394 . S
C2059 C2060 1.383 . S
C2059 H2067 0.929 . S
C2060 C2059 1.383 . S
C2060 C2061 1.377 . S
C2061 H2045 0.930 . S
C2061 C2060 1.377 . S
C2061 C2062 1.379 . S
C2062 H2046 0.931 . S
C2062 C2056 1.383 . S
C2062 C2061 1.379 . S
H2063 C2057 0.959 . S
H2064 C2057 0.961 . S
H2065 C2057 0.960 . S
H2066 C2058 0.930 . S
H2067 C2059 0.929 . S
H2068 C2076 0.929 . S
H2069 C2078 0.930 1_455 S
H2070 C2080 0.930 . S
H2071 C2083 0.929 . S
H2072 C2086 0.930 . S
H2073 C2088 0.960 . S
H2074 C2088 0.960 . S
H2075 C2088 0.960 . S
C2076 H2068 0.929 . S
C2076 C2077 1.377 . S
C2076 C2078 1.384 . S
C2077 C2076 1.377 . S
C2077 C2083 1.390 . S
C2078 H2069 0.930 1_655 S
C2078 C2076 1.384 . S
C2078 C2079 1.372 . S
C2079 C2078 1.372 . S
C2079 C2080 1.400 . S
C2079 C2084 1.490 . S
C2080 H2070 0.930 . S
C2080 C2079 1.400 . S
C2080 C2083 1.386 . S
H2081 C2097 0.930 . S
H2082 C2098 0.931 . S
C2083 H2071 0.929 . S
C2083 C2077 1.390 . S
C2083 C2080 1.386 . S
C2084 C2079 1.490 . S
C2084 C2086 1.395 1_655 S
C2084 C2087 1.403 . S
H2085 C2091 0.930 . S
C2086 H2072 0.930 . S
C2086 C2084 1.395 1_455 S
C2086 C2089 1.403 . S
C2087 C2084 1.403 . S
C2087 C2088 1.524 . S
C2087 C2091 1.400 . S
C2088 H2073 0.960 . S
C2088 H2074 0.960 . S
C2088 H2075 0.960 . S
C2088 C2087 1.524 . S
C2089 C2086 1.403 . S
C2089 C2090 1.392 . S
C2089 C2093 1.495 . S
C2090 C2089 1.392 . S
C2090 C2091 1.385 1_455 S
C2090 C2092 1.478 . S
C2091 H2085 0.930 . S
C2091 C2087 1.400 . S
C2091 C2090 1.385 1_655 S
C2092 C2090 1.478 . S
C2092 C2094 1.381 . S
C2092 C2098 1.383 . S
C2093 C2089 1.495 . S
C2093 H2099 0.959 . S
C2093 H2100 0.961 . S
C2093 H2101 0.960 . S
C2094 C2092 1.381 . S
C2094 C2095 1.394 . S
C2094 H2102 0.930 . S
C2095 C2094 1.394 . S
C2095 C2096 1.383 . S
C2095 H2103 0.929 . S
C2096 C2095 1.383 . S
C2096 C2097 1.377 . S
C2097 H2081 0.930 . S
C2097 C2096 1.377 . S
C2097 C2098 1.379 . S
C2098 H2082 0.931 . S
C2098 C2092 1.383 . S
C2098 C2097 1.379 . S
H2099 C2093 0.959 . S
H2100 C2093 0.961 . S
H2101 C2093 0.960 . S
H2102 C2094 0.930 . S
H2103 C2095 0.929 . S
H2104 C2112 0.929 . S
H2105 C2114 0.930 . S
H2106 C2116 0.930 . S
H2107 C2119 0.929 . S
H2108 C2122 0.930 . S
H2109 C2124 0.960 . S
H2110 C2124 0.960 . S
H2111 C2124 0.960 . S
C2112 H2104 0.929 . S
C2112 C2113 1.377 . S
C2112 C2114 1.384 . S
C2113 C2112 1.377 . S
C2113 C2119 1.390 . S
C2114 H2105 0.930 . S
C2114 C2112 1.384 . S
C2114 C2115 1.372 . S
C2115 C2114 1.372 . S
C2115 C2116 1.400 . S
C2115 C2120 1.490 . S
C2116 H2106 0.930 . S
C2116 C2115 1.400 . S
C2116 C2119 1.386 . S
H2117 C2133 0.930 . S
H2118 C2134 0.931 . S
C2119 H2107 0.929 . S
C2119 C2113 1.390 . S
C2119 C2116 1.386 . S
C2120 C2115 1.490 . S
C2120 C2122 1.395 . S
C2120 C2123 1.403 . S
H2121 C2127 0.930 . S
C2122 H2108 0.930 . S
C2122 C2120 1.395 . S
C2122 C2125 1.403 . S
C2123 C2120 1.403 . S
C2123 C2124 1.524 . S
C2123 C2127 1.400 . S
C2124 H2109 0.960 . S
C2124 H2110 0.960 . S
C2124 H2111 0.960 . S
C2124 C2123 1.524 . S
C2125 C2122 1.403 . S
C2125 C2126 1.392 . S
C2125 C2129 1.495 . S
C2126 C2125 1.392 . S
C2126 C2127 1.385 . S
C2126 C2128 1.478 . S
C2127 H2121 0.930 . S
C2127 C2123 1.400 . S
C2127 C2126 1.385 . S
C2128 C2126 1.478 . S
C2128 C2130 1.381 . S
C2128 C2134 1.383 . S
C2129 C2125 1.495 . S
C2129 H2135 0.959 . S
C2129 H2136 0.961 . S
C2129 H2137 0.960 . S
C2130 C2128 1.381 . S
C2130 C2131 1.394 . S
C2130 H2138 0.930 . S
C2131 C2130 1.394 . S
C2131 C2132 1.383 . S
C2131 H2139 0.929 . S
C2132 C2131 1.383 . S
C2132 C2133 1.377 . S
C2133 H2117 0.930 . S
C2133 C2132 1.377 . S
C2133 C2134 1.379 . S
C2134 H2118 0.931 . S
C2134 C2128 1.383 . S
C2134 C2133 1.379 . S
H2135 C2129 0.959 . S
H2136 C2129 0.961 . S
H2137 C2129 0.960 . S
H2138 C2130 0.930 . S
H2139 C2131 0.929 . S
H2140 C2148 0.929 . S
H2141 C2150 0.930 . S
H2142 C2152 0.930 . S
H2143 C2155 0.929 . S
H2144 C2158 0.930 . S
H2145 C2160 0.960 . S
H2146 C2160 0.960 . S
H2147 C2160 0.960 . S
C2148 H2140 0.929 . S
C2148 C2149 1.377 . S
C2148 C2150 1.384 . S
C2149 C2148 1.377 . S
C2149 C2155 1.390 . S
C2150 H2141 0.930 . S
C2150 C2148 1.384 . S
C2150 C2151 1.372 . S
C2151 C2150 1.372 . S
C2151 C2152 1.400 . S
C2151 C2156 1.490 . S
C2152 H2142 0.930 . S
C2152 C2151 1.400 . S
C2152 C2155 1.386 . S
H2153 C2169 0.930 . S
H2154 C2170 0.931 . S
C2155 H2143 0.929 . S
C2155 C2149 1.390 . S
C2155 C2152 1.386 . S
C2156 C2151 1.490 . S
C2156 C2158 1.395 . S
C2156 C2159 1.403 . S
H2157 C2163 0.930 . S
C2158 H2144 0.930 . S
C2158 C2156 1.395 . S
C2158 C2161 1.403 1_554 S
C2159 C2156 1.403 . S
C2159 C2160 1.524 . S
C2159 C2163 1.400 1_554 S
C2160 H2145 0.960 . S
C2160 H2146 0.960 . S
C2160 H2147 0.960 . S
C2160 C2159 1.524 . S
C2161 C2158 1.403 1_556 S
C2161 C2162 1.392 . S
C2161 C2165 1.495 . S
C2162 C2161 1.392 . S
C2162 C2163 1.385 . S
C2162 C2164 1.478 . S
C2163 H2157 0.930 . S
C2163 C2159 1.400 1_556 S
C2163 C2162 1.385 . S
C2164 C2162 1.478 . S
C2164 C2166 1.381 . S
C2164 C2170 1.383 . S
C2165 C2161 1.495 . S
C2165 H2171 0.959 . S
C2165 H2172 0.961 . S
C2165 H2173 0.960 . S
C2166 C2164 1.381 . S
C2166 C2167 1.394 . S
C2166 H2174 0.930 . S
C2167 C2166 1.394 . S
C2167 C2168 1.383 . S
C2167 H2175 0.929 . S
C2168 C2167 1.383 . S
C2168 C2169 1.377 . S
C2169 H2153 0.930 . S
C2169 C2168 1.377 . S
C2169 C2170 1.379 . S
C2170 H2154 0.931 . S
C2170 C2164 1.383 . S
C2170 C2169 1.379 . S
H2171 C2165 0.959 . S
H2172 C2165 0.961 . S
H2173 C2165 0.960 . S
H2174 C2166 0.930 . S
H2175 C2167 0.929 . S
H2176 C2184 0.929 . S
H2177 C2186 0.930 . S
H2178 C2188 0.930 . S
H2179 C2191 0.929 . S
H2180 C2194 0.930 . S
H2181 C2196 0.960 . S
H2182 C2196 0.960 . S
H2183 C2196 0.960 . S
C2184 H2176 0.929 . S
C2184 C2185 1.377 . S
C2184 C2186 1.384 . S
C2185 C2184 1.377 . S
C2185 C2191 1.390 . S
C2186 H2177 0.930 . S
C2186 C2184 1.384 . S
C2186 C2187 1.372 . S
C2187 C2186 1.372 . S
C2187 C2188 1.400 . S
C2187 C2192 1.490 . S
C2188 H2178 0.930 . S
C2188 C2187 1.400 . S
C2188 C2191 1.386 . S
H2189 C2205 0.930 . S
H2190 C2206 0.931 . S
C2191 H2179 0.929 . S
C2191 C2185 1.390 . S
C2191 C2188 1.386 . S
C2192 C2187 1.490 . S
C2192 C2194 1.395 . S
C2192 C2195 1.403 . S
H2193 C2199 0.930 . S
C2194 H2180 0.930 . S
C2194 C2192 1.395 . S
C2194 C2197 1.403 . S
C2195 C2192 1.403 . S
C2195 C2196 1.524 . S
C2195 C2199 1.400 . S
C2196 H2181 0.960 . S
C2196 H2182 0.960 . S
C2196 H2183 0.960 . S
C2196 C2195 1.524 . S
C2197 C2194 1.403 . S
C2197 C2198 1.392 . S
C2197 C2201 1.495 . S
C2198 C2197 1.392 . S
C2198 C2199 1.385 . S
C2198 C2200 1.478 . S
C2199 H2193 0.930 . S
C2199 C2195 1.400 . S
C2199 C2198 1.385 . S
C2200 C2198 1.478 . S
C2200 C2202 1.381 . S
C2200 C2206 1.383 . S
C2201 C2197 1.495 . S
C2201 H2207 0.959 . S
C2201 H2208 0.961 . S
C2201 H2209 0.960 . S
C2202 C2200 1.381 . S
C2202 C2203 1.394 . S
C2202 H2210 0.930 . S
C2203 C2202 1.394 . S
C2203 C2204 1.383 . S
C2203 H2211 0.929 . S
C2204 C2203 1.383 . S
C2204 C2205 1.377 . S
C2205 H2189 0.930 . S
C2205 C2204 1.377 . S
C2205 C2206 1.379 . S
C2206 H2190 0.931 . S
C2206 C2200 1.383 . S
C2206 C2205 1.379 . S
H2207 C2201 0.959 . S
H2208 C2201 0.961 . S
H2209 C2201 0.960 . S
H2210 C2202 0.930 . S
H2211 C2203 0.929 . S
H2212 C2220 0.929 . S
H2213 C2222 0.930 . S
H2214 C2224 0.930 . S
H2215 C2227 0.929 . S
H2216 C2230 0.930 . S
H2217 C2232 0.960 . S
H2218 C2232 0.960 . S
H2219 C2232 0.960 . S
C2220 H2212 0.929 . S
C2220 C2221 1.377 . S
C2220 C2222 1.384 . S
C2221 C2220 1.377 . S
C2221 C2227 1.390 . S
C2222 H2213 0.930 . S
C2222 C2220 1.384 . S
C2222 C2223 1.372 . S
C2223 C2222 1.372 . S
C2223 C2224 1.400 . S
C2223 C2228 1.490 . S
C2224 H2214 0.930 . S
C2224 C2223 1.400 . S
C2224 C2227 1.386 . S
H2225 C2241 0.930 . S
H2226 C2242 0.931 . S
C2227 H2215 0.929 . S
C2227 C2221 1.390 . S
C2227 C2224 1.386 . S
C2228 C2223 1.490 . S
C2228 C2230 1.395 . S
C2228 C2231 1.403 . S
H2229 C2235 0.930 . S
C2230 H2216 0.930 . S
C2230 C2228 1.395 . S
C2230 C2233 1.403 . S
C2231 C2228 1.403 . S
C2231 C2232 1.524 . S
C2231 C2235 1.400 . S
C2232 H2217 0.960 . S
C2232 H2218 0.960 . S
C2232 H2219 0.960 . S
C2232 C2231 1.524 . S
C2233 C2230 1.403 . S
C2233 C2234 1.392 . S
C2233 C2237 1.495 . S
C2234 C2233 1.392 . S
C2234 C2235 1.385 . S
C2234 C2236 1.478 . S
C2235 H2229 0.930 . S
C2235 C2231 1.400 . S
C2235 C2234 1.385 . S
C2236 C2234 1.478 . S
C2236 C2238 1.381 . S
C2236 C2242 1.383 . S
C2237 C2233 1.495 . S
C2237 H2243 0.959 . S
C2237 H2244 0.961 . S
C2237 H2245 0.960 . S
C2238 C2236 1.381 . S
C2238 C2239 1.394 . S
C2238 H2246 0.930 . S
C2239 C2238 1.394 . S
C2239 C2240 1.383 . S
C2239 H2247 0.929 . S
C2240 C2239 1.383 . S
C2240 C2241 1.377 . S
C2241 H2225 0.930 . S
C2241 C2240 1.377 . S
C2241 C2242 1.379 . S
C2242 H2226 0.931 . S
C2242 C2236 1.383 . S
C2242 C2241 1.379 . S
H2243 C2237 0.959 . S
H2244 C2237 0.961 . S
H2245 C2237 0.960 . S
H2246 C2238 0.930 . S
H2247 C2239 0.929 . S
H2248 C2256 0.929 . S
H2249 C2258 0.930 . S
H2250 C2260 0.930 . S
H2251 C2263 0.929 . S
H2252 C2266 0.930 . S
H2253 C2268 0.960 . S
H2254 C2268 0.960 . S
H2255 C2268 0.960 . S
C2256 H2248 0.929 . S
C2256 C2257 1.377 . S
C2256 C2258 1.384 . S
C2257 C2256 1.377 . S
C2257 C2263 1.390 . S
C2258 H2249 0.930 . S
C2258 C2256 1.384 . S
C2258 C2259 1.372 . S
C2259 C2258 1.372 . S
C2259 C2260 1.400 . S
C2259 C2264 1.490 . S
C2260 H2250 0.930 . S
C2260 C2259 1.400 . S
C2260 C2263 1.386 . S
H2261 C2277 0.930 . S
H2262 C2278 0.931 . S
C2263 H2251 0.929 . S
C2263 C2257 1.390 . S
C2263 C2260 1.386 . S
C2264 C2259 1.490 . S
C2264 C2266 1.395 . S
C2264 C2267 1.403 . S
H2265 C2271 0.930 . S
C2266 H2252 0.930 . S
C2266 C2264 1.395 . S
C2266 C2269 1.403 . S
C2267 C2264 1.403 . S
C2267 C2268 1.524 . S
C2267 C2271 1.400 . S
C2268 H2253 0.960 . S
C2268 H2254 0.960 . S
C2268 H2255 0.960 . S
C2268 C2267 1.524 . S
C2269 C2266 1.403 . S
C2269 C2270 1.392 . S
C2269 C2273 1.495 . S
C2270 C2269 1.392 . S
C2270 C2271 1.385 . S
C2270 C2272 1.478 . S
C2271 H2265 0.930 . S
C2271 C2267 1.400 . S
C2271 C2270 1.385 . S
C2272 C2270 1.478 . S
C2272 C2274 1.381 . S
C2272 C2278 1.383 . S
C2273 C2269 1.495 . S
C2273 H2279 0.959 . S
C2273 H2280 0.961 . S
C2273 H2281 0.960 . S
C2274 C2272 1.381 . S
C2274 C2275 1.394 . S
C2274 H2282 0.930 . S
C2275 C2274 1.394 . S
C2275 C2276 1.383 . S
C2275 H2283 0.929 . S
C2276 C2275 1.383 . S
C2276 C2277 1.377 . S
C2277 H2261 0.930 . S
C2277 C2276 1.377 . S
C2277 C2278 1.379 . S
C2278 H2262 0.931 . S
C2278 C2272 1.383 . S
C2278 C2277 1.379 . S
H2279 C2273 0.959 . S
H2280 C2273 0.961 . S
H2281 C2273 0.960 . S
H2282 C2274 0.930 . S
H2283 C2275 0.929 . S
H2284 C2292 0.929 . S
H2285 C2294 0.930 . S
H2286 C2296 0.930 . S
H2287 C2299 0.929 . S
H2288 C2302 0.930 . S
H2289 C2304 0.960 . S
H2290 C2304 0.960 . S
H2291 C2304 0.960 . S
C2292 H2284 0.929 . S
C2292 C2293 1.377 . S
C2292 C2294 1.384 . S
C2293 C2292 1.377 . S
C2293 C2299 1.390 . S
C2294 H2285 0.930 . S
C2294 C2292 1.384 . S
C2294 C2295 1.372 . S
C2295 C2294 1.372 . S
C2295 C2296 1.400 . S
C2295 C2300 1.490 . S
C2296 H2286 0.930 . S
C2296 C2295 1.400 . S
C2296 C2299 1.386 . S
H2297 C2313 0.930 . S
H2298 C2314 0.931 . S
C2299 H2287 0.929 . S
C2299 C2293 1.390 . S
C2299 C2296 1.386 . S
C2300 C2295 1.490 . S
C2300 C2302 1.395 . S
C2300 C2303 1.403 . S
H2301 C2307 0.930 . S
C2302 H2288 0.930 . S
C2302 C2300 1.395 . S
C2302 C2305 1.403 . S
C2303 C2300 1.403 . S
C2303 C2304 1.524 . S
C2303 C2307 1.400 . S
C2304 H2289 0.960 . S
C2304 H2290 0.960 . S
C2304 H2291 0.960 . S
C2304 C2303 1.524 . S
C2305 C2302 1.403 . S
C2305 C2306 1.392 . S
C2305 C2309 1.495 . S
C2306 C2305 1.392 . S
C2306 C2307 1.385 . S
C2306 C2308 1.478 . S
C2307 H2301 0.930 . S
C2307 C2303 1.400 . S
C2307 C2306 1.385 . S
C2308 C2306 1.478 . S
C2308 C2310 1.381 . S
C2308 C2314 1.383 . S
C2309 C2305 1.495 . S
C2309 H2315 0.959 . S
C2309 H2316 0.961 . S
C2309 H2317 0.960 . S
C2310 C2308 1.381 . S
C2310 C2311 1.394 . S
C2310 H2318 0.930 . S
C2311 C2310 1.394 . S
C2311 C2312 1.383 . S
C2311 H2319 0.929 . S
C2312 C2311 1.383 . S
C2312 C2313 1.377 . S
C2313 H2297 0.930 . S
C2313 C2312 1.377 . S
C2313 C2314 1.379 . S
C2314 H2298 0.931 . S
C2314 C2308 1.383 . S
C2314 C2313 1.379 . S
H2315 C2309 0.959 . S
H2316 C2309 0.961 . S
H2317 C2309 0.960 . S
H2318 C2310 0.930 . S
H2319 C2311 0.929 . S
H2320 C2328 0.929 . S
H2321 C2330 0.930 . S
H2322 C2332 0.930 . S
H2323 C2335 0.929 . S
H2324 C2338 0.930 . S
H2325 C2340 0.960 . S
H2326 C2340 0.960 . S
H2327 C2340 0.960 . S
C2328 H2320 0.929 . S
C2328 C2329 1.377 . S
C2328 C2330 1.384 . S
C2329 C2328 1.377 . S
C2329 C2335 1.390 . S
C2330 H2321 0.930 . S
C2330 C2328 1.384 . S
C2330 C2331 1.372 . S
C2331 C2330 1.372 . S
C2331 C2332 1.400 . S
C2331 C2336 1.490 . S
C2332 H2322 0.930 . S
C2332 C2331 1.400 . S
C2332 C2335 1.386 . S
H2333 C2349 0.930 . S
H2334 C2350 0.931 . S
C2335 H2323 0.929 . S
C2335 C2329 1.390 . S
C2335 C2332 1.386 . S
C2336 C2331 1.490 . S
C2336 C2338 1.395 . S
C2336 C2339 1.403 . S
H2337 C2343 0.930 . S
C2338 H2324 0.930 . S
C2338 C2336 1.395 . S
C2338 C2341 1.403 . S
C2339 C2336 1.403 . S
C2339 C2340 1.524 . S
C2339 C2343 1.400 . S
C2340 H2325 0.960 . S
C2340 H2326 0.960 . S
C2340 H2327 0.960 . S
C2340 C2339 1.524 . S
C2341 C2338 1.403 . S
C2341 C2342 1.392 . S
C2341 C2345 1.495 . S
C2342 C2341 1.392 . S
C2342 C2343 1.385 . S
C2342 C2344 1.478 . S
C2343 H2337 0.930 . S
C2343 C2339 1.400 . S
C2343 C2342 1.385 . S
C2344 C2342 1.478 . S
C2344 C2346 1.381 . S
C2344 C2350 1.383 . S
C2345 C2341 1.495 . S
C2345 H2351 0.959 . S
C2345 H2352 0.961 . S
C2345 H2353 0.960 . S
C2346 C2344 1.381 . S
C2346 C2347 1.394 . S
C2346 H2354 0.930 . S
C2347 C2346 1.394 . S
C2347 C2348 1.383 . S
C2347 H2355 0.929 . S
C2348 C2347 1.383 . S
C2348 C2349 1.377 . S
C2349 H2333 0.930 . S
C2349 C2348 1.377 . S
C2349 C2350 1.379 . S
C2350 H2334 0.931 . S
C2350 C2344 1.383 . S
C2350 C2349 1.379 . S
H2351 C2345 0.959 . S
H2352 C2345 0.961 . S
H2353 C2345 0.960 . S
H2354 C2346 0.930 . S
H2355 C2347 0.929 . S
H2356 C2364 0.929 . S
H2357 C2366 0.930 . S
H2358 C2368 0.930 . S
H2359 C2371 0.929 . S
H2360 C2374 0.930 . S
H2361 C2376 0.960 . S
H2362 C2376 0.960 . S
H2363 C2376 0.960 . S
C2364 H2356 0.929 . S
C2364 C2365 1.377 . S
C2364 C2366 1.384 . S
C2365 C2364 1.377 . S
C2365 C2371 1.390 . S
C2366 H2357 0.930 . S
C2366 C2364 1.384 . S
C2366 C2367 1.372 . S
C2367 C2366 1.372 . S
C2367 C2368 1.400 . S
C2367 C2372 1.490 . S
C2368 H2358 0.930 . S
C2368 C2367 1.400 . S
C2368 C2371 1.386 . S
H2369 C2385 0.930 . S
H2370 C2386 0.931 . S
C2371 H2359 0.929 . S
C2371 C2365 1.390 . S
C2371 C2368 1.386 . S
C2372 C2367 1.490 . S
C2372 C2374 1.395 . S
C2372 C2375 1.403 . S
H2373 C2379 0.930 . S
C2374 H2360 0.930 . S
C2374 C2372 1.395 . S
C2374 C2377 1.403 . S
C2375 C2372 1.403 . S
C2375 C2376 1.524 . S
C2375 C2379 1.400 . S
C2376 H2361 0.960 . S
C2376 H2362 0.960 . S
C2376 H2363 0.960 . S
C2376 C2375 1.524 . S
C2377 C2374 1.403 . S
C2377 C2378 1.392 . S
C2377 C2381 1.495 . S
C2378 C2377 1.392 . S
C2378 C2379 1.385 . S
C2378 C2380 1.478 . S
C2379 H2373 0.930 . S
C2379 C2375 1.400 . S
C2379 C2378 1.385 . S
C2380 C2378 1.478 . S
C2380 C2382 1.381 . S
C2380 C2386 1.383 . S
C2381 C2377 1.495 . S
C2381 H2387 0.959 . S
C2381 H2388 0.961 . S
C2381 H2389 0.960 . S
C2382 C2380 1.381 . S
C2382 C2383 1.394 . S
C2382 H2390 0.930 . S
C2383 C2382 1.394 . S
C2383 C2384 1.383 . S
C2383 H2391 0.929 . S
C2384 C2383 1.383 . S
C2384 C2385 1.377 . S
C2385 H2369 0.930 . S
C2385 C2384 1.377 . S
C2385 C2386 1.379 . S
C2386 H2370 0.931 . S
C2386 C2380 1.383 . S
C2386 C2385 1.379 . S
H2387 C2381 0.959 . S
H2388 C2381 0.961 . S
H2389 C2381 0.960 . S
H2390 C2382 0.930 . S
H2391 C2383 0.929 . S
H2392 C2400 0.929 . S
H2393 C2402 0.930 . S
H2394 C2404 0.930 . S
H2395 C2407 0.929 . S
H2396 C2410 0.930 . S
H2397 C2412 0.960 . S
H2398 C2412 0.960 . S
H2399 C2412 0.960 . S
C2400 H2392 0.929 . S
C2400 C2401 1.377 . S
C2400 C2402 1.384 . S
C2401 C2400 1.377 . S
C2401 C2407 1.390 . S
C2402 H2393 0.930 . S
C2402 C2400 1.384 . S
C2402 C2403 1.372 . S
C2403 C2402 1.372 . S
C2403 C2404 1.400 . S
C2403 C2408 1.490 . S
C2404 H2394 0.930 . S
C2404 C2403 1.400 . S
C2404 C2407 1.386 . S
H2405 C2421 0.930 . S
H2406 C2422 0.931 . S
C2407 H2395 0.929 . S
C2407 C2401 1.390 . S
C2407 C2404 1.386 . S
C2408 C2403 1.490 . S
C2408 C2410 1.395 . S
C2408 C2411 1.403 . S
H2409 C2415 0.930 . S
C2410 H2396 0.930 . S
C2410 C2408 1.395 . S
C2410 C2413 1.403 . S
C2411 C2408 1.403 . S
C2411 C2412 1.524 . S
C2411 C2415 1.400 . S
C2412 H2397 0.960 . S
C2412 H2398 0.960 . S
C2412 H2399 0.960 . S
C2412 C2411 1.524 . S
C2413 C2410 1.403 . S
C2413 C2414 1.392 . S
C2413 C2417 1.495 . S
C2414 C2413 1.392 . S
C2414 C2415 1.385 . S
C2414 C2416 1.478 . S
C2415 H2409 0.930 . S
C2415 C2411 1.400 . S
C2415 C2414 1.385 . S
C2416 C2414 1.478 . S
C2416 C2418 1.381 . S
C2416 C2422 1.383 . S
C2417 C2413 1.495 . S
C2417 H2423 0.959 . S
C2417 H2424 0.961 . S
C2417 H2425 0.960 . S
C2418 C2416 1.381 . S
C2418 C2419 1.394 . S
C2418 H2426 0.930 . S
C2419 C2418 1.394 . S
C2419 C2420 1.383 . S
C2419 H2427 0.929 . S
C2420 C2419 1.383 . S
C2420 C2421 1.377 . S
C2421 H2405 0.930 . S
C2421 C2420 1.377 . S
C2421 C2422 1.379 . S
C2422 H2406 0.931 . S
C2422 C2416 1.383 . S
C2422 C2421 1.379 . S
H2423 C2417 0.959 . S
H2424 C2417 0.961 . S
H2425 C2417 0.960 . S
H2426 C2418 0.930 . S
H2427 C2419 0.929 . S
H2428 C2436 0.929 . S
H2429 C2438 0.930 . S
H2430 C2440 0.930 . S
H2431 C2443 0.929 . S
H2432 C2446 0.930 . S
H2433 C2448 0.960 . S
H2434 C2448 0.960 . S
H2435 C2448 0.960 . S
C2436 H2428 0.929 . S
C2436 C2437 1.377 . S
C2436 C2438 1.384 . S
C2437 C2436 1.377 . S
C2437 C2443 1.390 . S
C2438 H2429 0.930 . S
C2438 C2436 1.384 . S
C2438 C2439 1.372 . S
C2439 C2438 1.372 . S
C2439 C2440 1.400 . S
C2439 C2444 1.490 . S
C2440 H2430 0.930 . S
C2440 C2439 1.400 . S
C2440 C2443 1.386 . S
H2441 C2457 0.930 . S
H2442 C2458 0.931 . S
C2443 H2431 0.929 . S
C2443 C2437 1.390 . S
C2443 C2440 1.386 . S
C2444 C2439 1.490 . S
C2444 C2446 1.395 . S
C2444 C2447 1.403 . S
H2445 C2451 0.930 . S
C2446 H2432 0.930 . S
C2446 C2444 1.395 . S
C2446 C2449 1.403 . S
C2447 C2444 1.403 . S
C2447 C2448 1.524 . S
C2447 C2451 1.400 . S
C2448 H2433 0.960 . S
C2448 H2434 0.960 . S
C2448 H2435 0.960 . S
C2448 C2447 1.524 . S
C2449 C2446 1.403 . S
C2449 C2450 1.392 . S
C2449 C2453 1.495 . S
C2450 C2449 1.392 . S
C2450 C2451 1.385 . S
C2450 C2452 1.478 . S
C2451 H2445 0.930 . S
C2451 C2447 1.400 . S
C2451 C2450 1.385 . S
C2452 C2450 1.478 . S
C2452 C2454 1.381 . S
C2452 C2458 1.383 . S
C2453 C2449 1.495 . S
C2453 H2459 0.959 . S
C2453 H2460 0.961 . S
C2453 H2461 0.960 . S
C2454 C2452 1.381 . S
C2454 C2455 1.394 . S
C2454 H2462 0.930 . S
C2455 C2454 1.394 . S
C2455 C2456 1.383 . S
C2455 H2463 0.929 . S
C2456 C2455 1.383 . S
C2456 C2457 1.377 . S
C2457 H2441 0.930 . S
C2457 C2456 1.377 . S
C2457 C2458 1.379 . S
C2458 H2442 0.931 . S
C2458 C2452 1.383 . S
C2458 C2457 1.379 . S
H2459 C2453 0.959 . S
H2460 C2453 0.961 . S
H2461 C2453 0.960 . S
H2462 C2454 0.930 . S
H2463 C2455 0.929 . S
H2464 C2472 0.929 . S
H2465 C2474 0.930 . S
H2466 C2476 0.930 . S
H2467 C2479 0.929 . S
H2468 C2482 0.930 . S
H2469 C2484 0.960 . S
H2470 C2484 0.960 . S
H2471 C2484 0.960 . S
C2472 H2464 0.929 . S
C2472 C2473 1.377 . S
C2472 C2474 1.384 . S
C2473 C2472 1.377 . S
C2473 C2479 1.390 . S
C2474 H2465 0.930 . S
C2474 C2472 1.384 . S
C2474 C2475 1.372 . S
C2475 C2474 1.372 . S
C2475 C2476 1.400 . S
C2475 C2480 1.490 . S
C2476 H2466 0.930 . S
C2476 C2475 1.400 . S
C2476 C2479 1.386 . S
H2477 C2493 0.930 . S
H2478 C2494 0.931 . S
C2479 H2467 0.929 . S
C2479 C2473 1.390 . S
C2479 C2476 1.386 . S
C2480 C2475 1.490 . S
C2480 C2482 1.395 . S
C2480 C2483 1.403 . S
H2481 C2487 0.930 . S
C2482 H2468 0.930 . S
C2482 C2480 1.395 . S
C2482 C2485 1.403 . S
C2483 C2480 1.403 . S
C2483 C2484 1.524 . S
C2483 C2487 1.400 . S
C2484 H2469 0.960 . S
C2484 H2470 0.960 . S
C2484 H2471 0.960 . S
C2484 C2483 1.524 . S
C2485 C2482 1.403 . S
C2485 C2486 1.392 . S
C2485 C2489 1.495 . S
C2486 C2485 1.392 . S
C2486 C2487 1.385 . S
C2486 C2488 1.478 . S
C2487 H2481 0.930 . S
C2487 C2483 1.400 . S
C2487 C2486 1.385 . S
C2488 C2486 1.478 . S
C2488 C2490 1.381 . S
C2488 C2494 1.383 . S
C2489 C2485 1.495 . S
C2489 H2495 0.959 . S
C2489 H2496 0.961 . S
C2489 H2497 0.960 . S
C2490 C2488 1.381 . S
C2490 C2491 1.394 . S
C2490 H2498 0.930 . S
C2491 C2490 1.394 . S
C2491 C2492 1.383 . S
C2491 H2499 0.929 . S
C2492 C2491 1.383 . S
C2492 C2493 1.377 . S
C2493 H2477 0.930 . S
C2493 C2492 1.377 . S
C2493 C2494 1.379 . S
C2494 H2478 0.931 . S
C2494 C2488 1.383 . S
C2494 C2493 1.379 . S
H2495 C2489 0.959 . S
H2496 C2489 0.961 . S
H2497 C2489 0.960 . S
H2498 C2490 0.930 . S
H2499 C2491 0.929 . S
H2500 C2508 0.929 . S
H2501 C2510 0.930 . S
H2502 C2512 0.930 . S
H2503 C2515 0.929 . S
H2504 C2518 0.930 . S
H2505 C2520 0.960 . S
H2506 C2520 0.960 . S
H2507 C2520 0.960 . S
C2508 H2500 0.929 . S
C2508 C2509 1.377 . S
C2508 C2510 1.384 . S
C2509 C2508 1.377 . S
C2509 C2515 1.390 . S
C2510 H2501 0.930 . S
C2510 C2508 1.384 . S
C2510 C2511 1.372 . S
C2511 C2510 1.372 . S
C2511 C2512 1.400 . S
C2511 C2516 1.490 . S
C2512 H2502 0.930 . S
C2512 C2511 1.400 . S
C2512 C2515 1.386 . S
H2513 C2529 0.930 . S
H2514 C2530 0.931 . S
C2515 H2503 0.929 . S
C2515 C2509 1.390 . S
C2515 C2512 1.386 . S
C2516 C2511 1.490 . S
C2516 C2518 1.395 . S
C2516 C2519 1.403 . S
H2517 C2523 0.930 . S
C2518 H2504 0.930 . S
C2518 C2516 1.395 . S
C2518 C2521 1.403 . S
C2519 C2516 1.403 . S
C2519 C2520 1.524 . S
C2519 C2523 1.400 . S
C2520 H2505 0.960 . S
C2520 H2506 0.960 . S
C2520 H2507 0.960 . S
C2520 C2519 1.524 . S
C2521 C2518 1.403 . S
C2521 C2522 1.392 . S
C2521 C2525 1.495 . S
C2522 C2521 1.392 . S
C2522 C2523 1.385 . S
C2522 C2524 1.478 . S
C2523 H2517 0.930 . S
C2523 C2519 1.400 . S
C2523 C2522 1.385 . S
C2524 C2522 1.478 . S
C2524 C2526 1.381 . S
C2524 C2530 1.383 . S
C2525 C2521 1.495 . S
C2525 H2531 0.959 . S
C2525 H2532 0.961 . S
C2525 H2533 0.960 . S
C2526 C2524 1.381 . S
C2526 C2527 1.394 . S
C2526 H2534 0.930 . S
C2527 C2526 1.394 . S
C2527 C2528 1.383 . S
C2527 H2535 0.929 . S
C2528 C2527 1.383 . S
C2528 C2529 1.377 . S
C2529 H2513 0.930 . S
C2529 C2528 1.377 . S
C2529 C2530 1.379 . S
C2530 H2514 0.931 . S
C2530 C2524 1.383 . S
C2530 C2529 1.379 . S
H2531 C2525 0.959 . S
H2532 C2525 0.961 . S
H2533 C2525 0.960 . S
H2534 C2526 0.930 . S
H2535 C2527 0.929 . S
H2536 C2544 0.929 . S
H2537 C2546 0.930 . S
H2538 C2548 0.930 . S
H2539 C2551 0.929 . S
H2540 C2554 0.930 . S
H2541 C2556 0.960 . S
H2542 C2556 0.960 . S
H2543 C2556 0.960 . S
C2544 H2536 0.929 . S
C2544 C2545 1.377 . S
C2544 C2546 1.384 . S
C2545 C2544 1.377 . S
C2545 C2551 1.390 . S
C2546 H2537 0.930 . S
C2546 C2544 1.384 . S
C2546 C2547 1.372 . S
C2547 C2546 1.372 . S
C2547 C2548 1.400 . S
C2547 C2552 1.490 . S
C2548 H2538 0.930 . S
C2548 C2547 1.400 . S
C2548 C2551 1.386 . S
H2549 C2565 0.930 . S
H2550 C2566 0.931 . S
C2551 H2539 0.929 . S
C2551 C2545 1.390 . S
C2551 C2548 1.386 . S
C2552 C2547 1.490 . S
C2552 C2554 1.395 . S
C2552 C2555 1.403 . S
H2553 C2559 0.930 . S
C2554 H2540 0.930 . S
C2554 C2552 1.395 . S
C2554 C2557 1.403 . S
C2555 C2552 1.403 . S
C2555 C2556 1.524 . S
C2555 C2559 1.400 . S
C2556 H2541 0.960 . S
C2556 H2542 0.960 . S
C2556 H2543 0.960 . S
C2556 C2555 1.524 . S
C2557 C2554 1.403 . S
C2557 C2558 1.392 . S
C2557 C2561 1.495 . S
C2558 C2557 1.392 . S
C2558 C2559 1.385 . S
C2558 C2560 1.478 . S
C2559 H2553 0.930 . S
C2559 C2555 1.400 . S
C2559 C2558 1.385 . S
C2560 C2558 1.478 . S
C2560 C2562 1.381 . S
C2560 C2566 1.383 . S
C2561 C2557 1.495 . S
C2561 H2567 0.959 . S
C2561 H2568 0.961 . S
C2561 H2569 0.960 . S
C2562 C2560 1.381 . S
C2562 C2563 1.394 . S
C2562 H2570 0.930 . S
C2563 C2562 1.394 . S
C2563 C2564 1.383 . S
C2563 H2571 0.929 . S
C2564 C2563 1.383 . S
C2564 C2565 1.377 . S
C2565 H2549 0.930 . S
C2565 C2564 1.377 . S
C2565 C2566 1.379 . S
C2566 H2550 0.931 . S
C2566 C2560 1.383 . S
C2566 C2565 1.379 . S
H2567 C2561 0.959 . S
H2568 C2561 0.961 . S
H2569 C2561 0.960 . S
H2570 C2562 0.930 . S
H2571 C2563 0.929 . S
H2572 C2580 0.929 . S
H2573 C2582 0.930 . S
H2574 C2584 0.930 . S
H2575 C2587 0.929 . S
H2576 C2590 0.930 . S
H2577 C2592 0.960 . S
H2578 C2592 0.960 . S
H2579 C2592 0.960 . S
C2580 H2572 0.929 . S
C2580 C2581 1.377 . S
C2580 C2582 1.384 . S
C2581 C2580 1.377 . S
C2581 C2587 1.390 . S
C2582 H2573 0.930 . S
C2582 C2580 1.384 . S
C2582 C2583 1.372 . S
C2583 C2582 1.372 . S
C2583 C2584 1.400 . S
C2583 C2588 1.490 . S
C2584 H2574 0.930 . S
C2584 C2583 1.400 . S
C2584 C2587 1.386 . S
H2585 C2601 0.930 . S
H2586 C2602 0.931 . S
C2587 H2575 0.929 . S
C2587 C2581 1.390 . S
C2587 C2584 1.386 . S
C2588 C2583 1.490 . S
C2588 C2590 1.395 . S
C2588 C2591 1.403 . S
H2589 C2595 0.930 . S
C2590 H2576 0.930 . S
C2590 C2588 1.395 . S
C2590 C2593 1.403 . S
C2591 C2588 1.403 . S
C2591 C2592 1.524 . S
C2591 C2595 1.400 . S
C2592 H2577 0.960 . S
C2592 H2578 0.960 . S
C2592 H2579 0.960 . S
C2592 C2591 1.524 . S
C2593 C2590 1.403 . S
C2593 C2594 1.392 . S
C2593 C2597 1.495 . S
C2594 C2593 1.392 . S
C2594 C2595 1.385 . S
C2594 C2596 1.478 . S
C2595 H2589 0.930 . S
C2595 C2591 1.400 . S
C2595 C2594 1.385 . S
C2596 C2594 1.478 . S
C2596 C2598 1.381 . S
C2596 C2602 1.383 . S
C2597 C2593 1.495 . S
C2597 H2603 0.959 . S
C2597 H2604 0.961 . S
C2597 H2605 0.960 . S
C2598 C2596 1.381 . S
C2598 C2599 1.394 . S
C2598 H2606 0.930 . S
C2599 C2598 1.394 . S
C2599 C2600 1.383 . S
C2599 H2607 0.929 . S
C2600 C2599 1.383 . S
C2600 C2601 1.377 . S
C2601 H2585 0.930 . S
C2601 C2600 1.377 . S
C2601 C2602 1.379 . S
C2602 H2586 0.931 . S
C2602 C2596 1.383 . S
C2602 C2601 1.379 . S
H2603 C2597 0.959 . S
H2604 C2597 0.961 . S
H2605 C2597 0.960 . S
H2606 C2598 0.930 . S
H2607 C2599 0.929 . S
H2608 C2616 0.929 . S
H2609 C2618 0.930 . S
H2610 C2620 0.930 . S
H2611 C2623 0.929 . S
H2612 C2626 0.930 . S
H2613 C2628 0.960 . S
H2614 C2628 0.960 . S
H2615 C2628 0.960 . S
C2616 H2608 0.929 . S
C2616 C2617 1.377 . S
C2616 C2618 1.384 . S
C2617 C2616 1.377 . S
C2617 C2623 1.390 . S
C2618 H2609 0.930 . S
C2618 C2616 1.384 . S
C2618 C2619 1.372 . S
C2619 C2618 1.372 . S
C2619 C2620 1.400 . S
C2619 C2624 1.490 . S
C2620 H2610 0.930 . S
C2620 C2619 1.400 . S
C2620 C2623 1.386 . S
H2621 C2637 0.930 . S
H2622 C2638 0.931 . S
C2623 H2611 0.929 . S
C2623 C2617 1.390 . S
C2623 C2620 1.386 . S
C2624 C2619 1.490 . S
C2624 C2626 1.395 . S
C2624 C2627 1.403 . S
H2625 C2631 0.930 . S
C2626 H2612 0.930 . S
C2626 C2624 1.395 . S
C2626 C2629 1.403 . S
C2627 C2624 1.403 . S
C2627 C2628 1.524 . S
C2627 C2631 1.400 . S
C2628 H2613 0.960 . S
C2628 H2614 0.960 . S
C2628 H2615 0.960 . S
C2628 C2627 1.524 . S
C2629 C2626 1.403 . S
C2629 C2630 1.392 . S
C2629 C2633 1.495 . S
C2630 C2629 1.392 . S
C2630 C2631 1.385 . S
C2630 C2632 1.478 . S
C2631 H2625 0.930 . S
C2631 C2627 1.400 . S
C2631 C2630 1.385 . S
C2632 C2630 1.478 . S
C2632 C2634 1.381 . S
C2632 C2638 1.383 . S
C2633 C2629 1.495 . S
C2633 H2639 0.959 . S
C2633 H2640 0.961 . S
C2633 H2641 0.960 . S
C2634 C2632 1.381 . S
C2634 C2635 1.394 . S
C2634 H2642 0.930 . S
C2635 C2634 1.394 . S
C2635 C2636 1.383 . S
C2635 H2643 0.929 . S
C2636 C2635 1.383 . S
C2636 C2637 1.377 . S
C2637 H2621 0.930 . S
C2637 C2636 1.377 . S
C2637 C2638 1.379 . S
C2638 H2622 0.931 . S
C2638 C2632 1.383 . S
C2638 C2637 1.379 . S
H2639 C2633 0.959 . S
H2640 C2633 0.961 . S
H2641 C2633 0.960 . S
H2642 C2634 0.930 . S
H2643 C2635 0.929 . S
H2644 C2652 0.929 . S
H2645 C2654 0.930 . S
H2646 C2656 0.930 . S
H2647 C2659 0.929 . S
H2648 C2662 0.930 . S
H2649 C2664 0.960 . S
H2650 C2664 0.960 . S
H2651 C2664 0.960 . S
C2652 H2644 0.929 . S
C2652 C2653 1.377 . S
C2652 C2654 1.384 . S
C2653 C2652 1.377 . S
C2653 C2659 1.390 . S
C2654 H2645 0.930 . S
C2654 C2652 1.384 . S
C2654 C2655 1.372 . S
C2655 C2654 1.372 . S
C2655 C2656 1.400 . S
C2655 C2660 1.490 . S
C2656 H2646 0.930 . S
C2656 C2655 1.400 . S
C2656 C2659 1.386 . S
H2657 C2673 0.930 . S
H2658 C2674 0.931 . S
C2659 H2647 0.929 . S
C2659 C2653 1.390 . S
C2659 C2656 1.386 . S
C2660 C2655 1.490 . S
C2660 C2662 1.395 . S
C2660 C2663 1.403 . S
H2661 C2667 0.930 . S
C2662 H2648 0.930 . S
C2662 C2660 1.395 . S
C2662 C2665 1.403 . S
C2663 C2660 1.403 . S
C2663 C2664 1.524 . S
C2663 C2667 1.400 . S
C2664 H2649 0.960 . S
C2664 H2650 0.960 . S
C2664 H2651 0.960 . S
C2664 C2663 1.524 . S
C2665 C2662 1.403 . S
C2665 C2666 1.392 . S
C2665 C2669 1.495 . S
C2666 C2665 1.392 . S
C2666 C2667 1.385 . S
C2666 C2668 1.478 . S
C2667 H2661 0.930 . S
C2667 C2663 1.400 . S
C2667 C2666 1.385 . S
C2668 C2666 1.478 . S
C2668 C2670 1.381 . S
C2668 C2674 1.383 . S
C2669 C2665 1.495 . S
C2669 H2675 0.959 . S
C2669 H2676 0.961 . S
C2669 H2677 0.960 . S
C2670 C2668 1.381 . S
C2670 C2671 1.394 . S
C2670 H2678 0.930 . S
C2671 C2670 1.394 . S
C2671 C2672 1.383 . S
C2671 H2679 0.929 . S
C2672 C2671 1.383 . S
C2672 C2673 1.377 . S
C2673 H2657 0.930 . S
C2673 C2672 1.377 . S
C2673 C2674 1.379 . S
C2674 H2658 0.931 . S
C2674 C2668 1.383 . S
C2674 C2673 1.379 . S
H2675 C2669 0.959 . S
H2676 C2669 0.961 . S
H2677 C2669 0.960 . S
H2678 C2670 0.930 . S
H2679 C2671 0.929 . S
H2680 C2688 0.929 . S
H2681 C2690 0.930 . S
H2682 C2692 0.930 . S
H2683 C2695 0.929 . S
H2684 C2698 0.930 . S
H2685 C2700 0.960 . S
H2686 C2700 0.960 . S
H2687 C2700 0.960 . S
C2688 H2680 0.929 . S
C2688 C2689 1.377 . S
C2688 C2690 1.384 . S
C2689 C2688 1.377 . S
C2689 C2695 1.390 . S
C2690 H2681 0.930 . S
C2690 C2688 1.384 . S
C2690 C2691 1.372 . S
C2691 C2690 1.372 . S
C2691 C2692 1.400 . S
C2691 C2696 1.490 . S
C2692 H2682 0.930 . S
C2692 C2691 1.400 . S
C2692 C2695 1.386 . S
H2693 C2709 0.930 . S
H2694 C2710 0.931 . S
C2695 H2683 0.929 . S
C2695 C2689 1.390 . S
C2695 C2692 1.386 . S
C2696 C2691 1.490 . S
C2696 C2698 1.395 . S
C2696 C2699 1.403 . S
H2697 C2703 0.930 . S
C2698 H2684 0.930 . S
C2698 C2696 1.395 . S
C2698 C2701 1.403 . S
C2699 C2696 1.403 . S
C2699 C2700 1.524 . S
C2699 C2703 1.400 . S
C2700 H2685 0.960 . S
C2700 H2686 0.960 . S
C2700 H2687 0.960 . S
C2700 C2699 1.524 . S
C2701 C2698 1.403 . S
C2701 C2702 1.392 . S
C2701 C2705 1.495 . S
C2702 C2701 1.392 . S
C2702 C2703 1.385 . S
C2702 C2704 1.478 . S
C2703 H2697 0.930 . S
C2703 C2699 1.400 . S
C2703 C2702 1.385 . S
C2704 C2702 1.478 . S
C2704 C2706 1.381 . S
C2704 C2710 1.383 . S
C2705 C2701 1.495 . S
C2705 H2711 0.959 . S
C2705 H2712 0.961 . S
C2705 H2713 0.960 . S
C2706 C2704 1.381 . S
C2706 C2707 1.394 . S
C2706 H2714 0.930 . S
C2707 C2706 1.394 . S
C2707 C2708 1.383 . S
C2707 H2715 0.929 . S
C2708 C2707 1.383 . S
C2708 C2709 1.377 . S
C2709 H2693 0.930 . S
C2709 C2708 1.377 . S
C2709 C2710 1.379 . S
C2710 H2694 0.931 . S
C2710 C2704 1.383 . S
C2710 C2709 1.379 . S
H2711 C2705 0.959 . S
H2712 C2705 0.961 . S
H2713 C2705 0.960 . S
H2714 C2706 0.930 . S
H2715 C2707 0.929 . S
H2716 C2724 0.929 . S
H2717 C2726 0.930 . S
H2718 C2728 0.930 . S
H2719 C2731 0.929 . S
H2720 C2734 0.930 . S
H2721 C2736 0.960 . S
H2722 C2736 0.960 . S
H2723 C2736 0.960 . S
C2724 H2716 0.929 . S
C2724 C2725 1.377 . S
C2724 C2726 1.384 . S
C2725 C2724 1.377 . S
C2725 C2731 1.390 . S
C2726 H2717 0.930 . S
C2726 C2724 1.384 . S
C2726 C2727 1.372 . S
C2727 C2726 1.372 . S
C2727 C2728 1.400 . S
C2727 C2732 1.490 . S
C2728 H2718 0.930 . S
C2728 C2727 1.400 . S
C2728 C2731 1.386 . S
H2729 C2745 0.930 . S
H2730 C2746 0.931 . S
C2731 H2719 0.929 . S
C2731 C2725 1.390 . S
C2731 C2728 1.386 . S
C2732 C2727 1.490 . S
C2732 C2734 1.395 . S
C2732 C2735 1.403 . S
H2733 C2739 0.930 . S
C2734 H2720 0.930 . S
C2734 C2732 1.395 . S
C2734 C2737 1.403 . S
C2735 C2732 1.403 . S
C2735 C2736 1.524 . S
C2735 C2739 1.400 . S
C2736 H2721 0.960 . S
C2736 H2722 0.960 . S
C2736 H2723 0.960 . S
C2736 C2735 1.524 . S
C2737 C2734 1.403 . S
C2737 C2738 1.392 . S
C2737 C2741 1.495 . S
C2738 C2737 1.392 . S
C2738 C2739 1.385 . S
C2738 C2740 1.478 . S
C2739 H2733 0.930 . S
C2739 C2735 1.400 . S
C2739 C2738 1.385 . S
C2740 C2738 1.478 . S
C2740 C2742 1.381 . S
C2740 C2746 1.383 . S
C2741 C2737 1.495 . S
C2741 H2747 0.959 . S
C2741 H2748 0.961 . S
C2741 H2749 0.960 . S
C2742 C2740 1.381 . S
C2742 C2743 1.394 . S
C2742 H2750 0.930 . S
C2743 C2742 1.394 . S
C2743 C2744 1.383 . S
C2743 H2751 0.929 . S
C2744 C2743 1.383 . S
C2744 C2745 1.377 . S
C2745 H2729 0.930 . S
C2745 C2744 1.377 . S
C2745 C2746 1.379 . S
C2746 H2730 0.931 . S
C2746 C2740 1.383 . S
C2746 C2745 1.379 . S
H2747 C2741 0.959 . S
H2748 C2741 0.961 . S
H2749 C2741 0.960 . S
H2750 C2742 0.930 . S
H2751 C2743 0.929 . S
C457 C93 1.542 . S
C476 C9 1.516 . S
C493 C23 1.538 . S
C512 C107 1.527 . S
C529 C65 1.536 . S
C548 C37 1.549 . S
C565 C51 1.542 . S
C584 C79 1.516 . S
C601 C205 1.536 . S
C620 C121 1.517 . S
C637 C219 1.542 . S
C656 C135 1.555 . S
C673 C149 1.534 . S
C692 C177 1.515 . S
C709 C163 1.534 . S
C728 C191 1.516 . S
C745 C233 1.538 . S
C764 C317 1.540 . S
C781 C247 1.538 . S
C800 C331 1.542 . S
C817 C289 1.541 . S
C836 C261 1.518 . S
C853 C303 1.534 . S
C872 C275 1.555 . S
C889 C345 1.542 . S
C908 C429 1.542 . S
C925 C443 1.540 . S
C944 C359 1.532 . S
C961 C401 1.542 . S
C980 C373 1.552 . S
C997 C387 1.535 . S
C1016 C415 1.515 . S
C1033 C7 1.237 . S
C1052 C428 1.232 . S
C1069 C218 1.257 . S
C1088 C21 1.266 . S
C1105 C35 1.241 . S
C1124 C400 1.233 . S
C1141 C49 1.239 . S
C1160 C190 1.232 . S
C1177 C372 1.256 . S
C1196 C63 1.264 . S
C1213 C162 1.253 . S
C1232 C77 1.243 . S
C1249 C91 1.237 . S
C1268 C344 1.232 . S
C1285 C134 1.262 . S
C1304 C105 1.257 . S
C1321 C119 1.247 . S
C1340 C316 1.234 . S
C1357 C106 1.253 . S
C1376 C133 1.260 . S
C1393 C147 1.239 . S
C1412 C288 1.265 . S
C1429 C161 1.246 . S
C1448 C78 1.232 . S
C1465 C260 1.254 . S
C1484 C175 1.260 . S
C1501 C189 1.240 . S
C1520 C50 1.254 . S
C1537 C203 1.245 . S
C1556 C232 1.237 . S
C1573 C22 1.261 . S
C1592 C217 1.212 . S
C1609 C231 1.243 . S
C1628 C204 1.239 . S
C1645 C245 1.243 . S
C1664 C442 1.277 . S
C1681 C176 1.262 . S
C1700 C259 1.240 . S
C1717 C273 1.242 . S
C1736 C414 1.236 . S
C1753 C148 1.256 . S
C1772 C287 1.209 . S
C1789 C386 1.258 . S
C1808 C301 1.267 . S
C1825 C120 1.258 . S
C1844 C315 1.268 . S
C1861 C358 1.262 . S
C1880 C329 1.258 . S
C1897 C343 1.247 . S
C1916 C92 1.231 . S
C1933 C330 1.255 . S
C1952 C357 1.245 . S
C1969 C64 1.255 . S
C1988 C371 1.250 . S
C2005 C385 1.238 . S
C2024 C302 1.267 . S
C2041 C399 1.241 . S
C2060 C36 1.258 . S
C2077 C413 1.245 . S
C2096 C274 1.238 . S
C2113 C8 1.253 . S
C2132 C427 1.266 . S
C2149 C441 1.236 . S
C2168 C246 1.270 . S
C2185 C6 1.497 . S
C2204 C300 1.481 . S
C2221 C314 1.496 . S
C2240 C20 1.500 . S
C2257 C34 1.500 . S
C2276 C328 1.496 . S
C2293 C286 1.502 . S
C2312 C48 1.517 . S
C2329 C272 1.494 . S
C2348 C62 1.491 . S
C2365 C230 1.499 . S
C2384 C76 1.512 . S
C2401 C244 1.494 . S
C2420 C90 1.489 . S
C2437 C258 1.496 . S
C2456 C104 1.477 . S
C2473 C118 1.495 . S
C2492 C412 1.497 . S
C2509 C426 1.500 . S
C2528 C132 1.491 . S
C2545 C440 1.494 . S
C2564 C146 1.504 . S
C2581 C398 1.499 . S
C2600 C160 1.496 . S
C2617 C384 1.494 . S
C2636 C174 1.517 . S
C2653 C342 1.498 . S
C2672 C188 1.502 . S
C2689 C202 1.502 . S
C2708 C356 1.472 . S
C2725 C216 1.493 . S
C2744 C370 1.507 . S
