# Generated by pormake.
# Topology rkf, (6)-cn, num edge types: 1
# Building blocks:
#     Node 0, Type 0, BuildingBlock: HISSIN_clean_sbu_0, # of connection points: 6
#     Node 1, Type 0, BuildingBlock: HISSIN_clean_sbu_0, # of connection points: 6
#     Node 2, Type 0, BuildingBlock: HISSIN_clean_sbu_0, # of connection points: 6
#     Node 3, Type 0, BuildingBlock: HISSIN_clean_sbu_0, # of connection points: 6
#     Node 4, Type 0, BuildingBlock: HISSIN_clean_sbu_0, # of connection points: 6
#     Node 5, Type 0, BuildingBlock: HISSIN_clean_sbu_0, # of connection points: 6
#     Edge 6, Type (0, 0), BuildingBlock: XUDNAN_clean_linker_2, # of connection points: 2
#     Edge 7, Type (0, 0), BuildingBlock: XUDNAN_clean_linker_2, # of connection points: 2
#     Edge 8, Type (0, 0), BuildingBlock: XUDNAN_clean_linker_2, # of connection points: 2
#     Edge 9, Type (0, 0), BuildingBlock: XUDNAN_clean_linker_2, # of connection points: 2
#     Edge 10, Type (0, 0), BuildingBlock: XUDNAN_clean_linker_2, # of connection points: 2
#     Edge 11, Type (0, 0), BuildingBlock: XUDNAN_clean_linker_2, # of connection points: 2
#     Edge 12, Type (0, 0), BuildingBlock: XUDNAN_clean_linker_2, # of connection points: 2
#     Edge 13, Type (0, 0), BuildingBlock: XUDNAN_clean_linker_2, # of connection points: 2
#     Edge 14, Type (0, 0), BuildingBlock: XUDNAN_clean_linker_2, # of connection points: 2
#     Edge 15, Type (0, 0), BuildingBlock: XUDNAN_clean_linker_2, # of connection points: 2
#     Edge 16, Type (0, 0), BuildingBlock: XUDNAN_clean_linker_2, # of connection points: 2
#     Edge 17, Type (0, 0), BuildingBlock: XUDNAN_clean_linker_2, # of connection points: 2
#     Edge 18, Type (0, 0), BuildingBlock: XUDNAN_clean_linker_2, # of connection points: 2
#     Edge 19, Type (0, 0), BuildingBlock: XUDNAN_clean_linker_2, # of connection points: 2
#     Edge 20, Type (0, 0), BuildingBlock: XUDNAN_clean_linker_2, # of connection points: 2
#     Edge 21, Type (0, 0), BuildingBlock: XUDNAN_clean_linker_2, # of connection points: 2
#     Edge 22, Type (0, 0), BuildingBlock: XUDNAN_clean_linker_2, # of connection points: 2
#     Edge 23, Type (0, 0), BuildingBlock: XUDNAN_clean_linker_2, # of connection points: 2
# Relax obj value: 0.707
# Max RMSD: 0.256
# Mean RMSD: 0.256
data_MOF--net-rkf--node1-HISSIN_clean_sbu_0--edge1-XUDNAN_clean_linker_2
_symmetry_space_group_name_H-M    P1
_symmetry_Int_Tables_number       1
_symmetry_cell_setting            triclinic
loop_
_symmetry_equiv_pos_as_xyz
'x, y, z'
_cell_length_a     25.253774
_cell_length_b     25.233971
_cell_length_c     44.079909
_cell_angle_alpha  89.266014
_cell_angle_beta   88.44117
_cell_angle_gamma 120.74116
loop_
_atom_site_label
_atom_site_type_symbol
_atom_site_fract_x
_atom_site_fract_y
_atom_site_fract_z
_atom_type_partial_charge
Eu0 Eu 0.271 0.14929 0.17743 0.0
Eu1 Eu 0.41149 0.25502 0.16619 0.0
C2 C 0.37846 0.12136 0.18469 0.0
C3 C 0.12884 -0.0077 0.19429 0.0
C4 C 0.14689 0.95485 0.17927 0.0
C5 C 0.06512 0.90737 0.22971 0.0
C6 C 0.12491 0.89435 0.18974 0.0
C7 C 0.08651 0.96749 0.21901 0.0
C8 C 0.08516 0.87043 0.21565 0.0
C9 C 0.15726 0.05832 0.18613 0.0
O10 O 0.3806 0.20389 1.12007 0.0
O11 O 0.27834 0.16938 1.12695 0.0
C12 C 0.32494 0.18004 1.10872 0.0
O13 O 0.27501 0.24086 0.1768 0.0
O14 O 0.50436 0.27688 1.15267 0.0
O15 O 0.48874 0.3498 0.16682 0.0
O16 O 0.35888 0.29347 1.14451 0.0
C17 C 0.30867 0.28691 0.15737 0.0
O18 O 0.30645 0.17609 0.22499 0.0
O19 O 0.38548 0.27433 0.21437 0.0
O20 O 0.40952 0.17833 0.19332 0.0
O21 O 0.18866 0.09655 0.20712 0.0
O22 O 0.18529 0.07637 0.15955 0.0
O23 O 0.32605 0.10177 0.17153 0.0
C24 C 0.55675 0.37027 1.12422 0.0
C25 C 0.54154 0.41214 1.11184 0.0
C26 C 0.60451 0.37038 1.07554 0.0
C27 C 0.55422 0.42979 1.08121 0.0
C28 C 0.59177 0.35268 1.1063 0.0
C29 C 0.58254 0.40611 1.06229 0.0
C30 C 0.52678 0.33636 1.15311 0.0
C31 C 0.3451 0.23203 0.23428 0.0
H32 H 0.1796 0.97286 0.16007 0.0
H33 H 0.03566 0.89141 0.2501 0.0
H34 H 0.14076 0.86709 0.17817 0.0
H35 H 0.07212 -0.0044 0.23095 0.0
H36 H 0.51518 0.42729 1.12505 0.0
H37 H 0.62746 0.35237 1.06168 0.0
H38 H 0.53623 0.45711 1.07191 0.0
H39 H 0.60488 0.32111 1.11542 0.0
Eu40 Eu 0.2649 0.30386 0.52005 0.0
Eu41 Eu 0.31062 0.44449 0.50154 0.0
C42 C 0.40296 0.40905 0.52685 0.0
C43 C 0.26519 0.1601 0.54566 0.0
C44 C 0.25065 0.10146 0.53626 0.0
C45 C 0.34424 0.16392 0.57714 0.0
C46 C 0.28268 0.074 0.54733 0.0
C47 C 0.31267 0.19145 0.56587 0.0
C48 C 0.32969 0.10479 0.56806 0.0
C49 C 0.23288 0.18955 0.53318 0.0
O50 O 0.33156 0.40504 0.45799 0.0
O51 O 0.25953 0.30451 0.46881 0.0
C52 C 0.29933 0.34708 0.44926 0.0
O53 O 0.18076 0.31131 0.51368 0.0
O54 O 0.38565 0.53387 0.48421 0.0
O55 O 0.30111 0.52554 0.50214 0.0
O56 O 0.21939 0.39378 0.47998 0.0
C57 C 0.17287 0.34609 0.49391 0.0
O58 O 0.26481 0.34508 0.56603 0.0
O59 O 0.25286 0.42259 0.5468 0.0
O60 O 0.37902 0.44324 0.53256 0.0
O61 O 0.22271 0.22391 0.55142 0.0
O62 O 0.25278 0.21557 0.50639 0.0
O63 O 0.36862 0.3545 0.5158 0.0
C64 C 0.34904 0.59215 0.45922 0.0
C65 C 0.29958 0.60228 0.45638 0.0
C66 C 0.37743 0.62154 0.40594 0.0
C67 C 0.28665 0.61756 0.42811 0.0
C68 C 0.39017 0.60589 0.43419 0.0
C69 C 0.32331 0.62348 0.40226 0.0
C70 C 0.3529 0.56038 0.48678 0.0
C71 C 0.24731 0.38567 0.56996 0.0
H72 H 0.21463 0.07701 0.52031 0.0
H73 H 0.37903 0.18856 0.59359 0.0
H74 H 0.27059 0.0287 0.53966 0.0
H75 H 0.32514 0.23714 0.57313 0.0
H76 H 0.26795 0.59365 0.47546 0.0
H77 H 0.40721 0.62716 0.38649 0.0
H78 H 0.24462 0.61875 0.42613 0.0
H79 H 0.42976 0.60029 0.43584 0.0
Eu80 Eu 0.09314 0.37235 0.8515 0.0
Eu81 Eu 0.94634 0.28593 0.83578 0.0
C82 C 0.00885 0.43221 0.84702 0.0
C83 C 0.25822 0.43032 0.87789 0.0
C84 C 0.24339 0.37769 0.89557 0.0
C85 C 0.3668 0.47089 0.88563 0.0
C86 C 0.29027 0.37152 0.90811 0.0
C87 C 0.31997 0.47689 0.87305 0.0
C88 C 0.35244 0.41794 0.90308 0.0
C89 C 0.21082 0.43523 0.862 0.0
O90 O -0.00465 0.32133 0.78817 0.0
O91 O 0.09746 0.36439 0.79991 0.0
C92 C 0.05458 0.34611 0.77959 0.0
O93 O 0.05621 0.27135 0.85658 0.0
O94 O 0.86319 0.27042 0.8137 0.0
O95 O 0.8585 0.20252 0.84607 0.0
O96 O -0.00628 0.23739 0.81761 0.0
C97 C 0.03912 0.23942 0.83204 0.0
O98 O 0.04391 0.34227 0.89861 0.0
O99 O 0.95089 0.25991 0.88562 0.0
O100 O -0.04051 0.37718 0.85113 0.0
O101 O 0.18748 0.39856 0.8394 0.0
O102 O 0.16912 0.43908 0.87838 0.0
O103 O 0.0632 0.4396 0.84069 0.0
C104 C 0.7861 0.16584 0.8083 0.0
C105 C 0.80841 0.13876 0.78814 0.0
C106 C 0.68108 0.08922 0.79666 0.0
C107 C 0.76727 0.08685 0.77248 0.0
C108 C 0.7224 0.14121 0.81238 0.0
C109 C 0.70314 0.06104 0.77686 0.0
C110 C 0.82839 0.21637 0.82708 0.0
C111 C -0.00963 0.29234 0.90652 0.0
H112 H 0.19581 0.34108 0.89923 0.0
H113 H 0.41429 0.50721 0.88134 0.0
H114 H 0.27788 0.33065 0.92187 0.0
H115 H 0.33203 0.51745 0.85908 0.0
H116 H 0.85754 0.15722 0.78488 0.0
H117 H 0.63201 0.0704 0.80039 0.0
H118 H 0.78573 0.06709 0.75678 0.0
H119 H 0.70464 0.16152 0.82815 0.0
Eu120 Eu 0.84781 0.11297 0.1951 0.0
Eu121 Eu 0.80035 -0.02012 0.16167 0.0
C122 C 0.70342 0.02535 0.18189 0.0
C123 C 0.94491 0.27881 0.22728 0.0
C124 C -0.03977 0.33791 0.21697 0.0
C125 C 0.02682 0.3245 0.2629 0.0
C126 C 0.00833 0.39013 0.2296 0.0
C127 C -0.02123 0.27215 0.25008 0.0
C128 C 0.04185 0.38411 0.2529 0.0
C129 C 0.8937 0.22576 0.21331 0.0
O130 O 0.81832 0.042 1.11937 0.0
O131 O 0.85802 0.13433 1.1435 0.0
C132 C 0.84505 0.10283 1.1182 0.0
O133 O 0.9201 0.08793 0.19159 0.0
O134 O 0.72339 0.88945 1.15093 0.0
O135 O 0.81675 0.91085 1.14118 0.0
O136 O 0.89948 0.0444 1.14629 0.0
C137 C 0.93938 0.08476 0.1644 0.0
O138 O 0.84177 0.05327 0.23626 0.0
O139 O 0.82063 0.96525 0.21105 0.0
O140 O 0.71445 -0.01293 0.16688 0.0
O141 O 0.90553 0.21188 0.18665 0.0
O142 O 0.85655 0.17715 0.23026 0.0
O143 O 0.74648 0.07321 0.19543 0.0
C144 C 0.74115 0.85359 1.10557 0.0
C145 C 0.7724 0.89543 1.08121 0.0
C146 C 0.66753 0.78112 1.07065 0.0
C147 C 0.75132 0.88051 1.05193 0.0
C148 C 0.68893 0.7961 1.10012 0.0
C149 C 0.69789 0.82377 1.04635 0.0
C150 C 0.75835 0.87291 1.13683 0.0
C151 C 0.83326 -0.00304 0.23638 0.0
H152 H 0.9348 0.34367 0.19909 0.0
H153 H 0.05121 0.31819 0.2811 0.0
H154 H 0.01933 0.43519 0.22103 0.0
H155 H -0.03221 0.22675 0.2581 0.0
H156 H 0.81239 0.94036 1.08487 0.0
H157 H 0.62645 0.73704 1.06702 0.0
H158 H 0.77695 0.91378 1.03362 0.0
H159 H 0.66376 0.76359 1.11876 0.0
Eu160 Eu 0.86754 0.86444 0.51747 0.0
Eu161 Eu -0.03213 0.82962 0.49354 0.0
C162 C 0.83214 0.72771 0.5131 0.0
C163 C 0.73222 0.86705 0.5587 0.0
C164 C 0.71327 0.81618 0.57863 0.0
C165 C 0.6661 0.89429 0.58655 0.0
C166 C 0.67164 0.80517 0.60287 0.0
C167 C 0.70735 0.90502 0.56235 0.0
C168 C 0.64886 0.84514 0.60754 0.0
C169 C 0.77806 0.88192 0.53404 0.0
O170 O 0.93845 0.85029 0.44841 0.0
O171 O 0.85763 0.86134 0.46528 0.0
C172 C 0.89281 0.85989 0.44277 0.0
O173 O 0.93892 0.9435 0.4899 0.0
O174 O 0.00131 0.76571 0.49777 0.0
O175 O 0.04999 0.84622 0.46748 0.0
O176 O 0.01814 0.93164 0.50369 0.0
C177 C -0.00294 0.96675 0.49446 0.0
O178 O 0.93053 0.88788 0.55873 0.0
O179 O -0.02672 0.82997 0.54516 0.0
O180 O 0.87254 0.745 0.49038 0.0
O181 O 0.83579 0.92035 0.53995 0.0
O182 O 0.77061 0.83575 0.51781 0.0
O183 O 0.83773 0.76834 0.5326 0.0
C184 C 0.04411 0.75485 0.45167 0.0
C185 C 0.09885 0.77358 0.43475 0.0
C186 C -0.01188 0.67361 0.41609 0.0
C187 C 0.09785 0.74444 0.40788 0.0
C188 C -0.01094 0.7032 0.4428 0.0
C189 C 0.04191 0.69591 0.39751 0.0
C190 C 0.04377 0.79359 0.47621 0.0
C191 C -0.03612 0.86256 0.56555 0.0
H192 H 0.73175 0.78603 0.57589 0.0
H193 H 0.65071 0.92686 0.58974 0.0
H194 H 0.65908 0.76683 0.61858 0.0
H195 H 0.72134 0.94425 0.547 0.0
H196 H 0.14173 0.81331 0.44126 0.0
H197 H 0.94448 0.63594 0.40893 0.0
H198 H 0.14008 0.76355 0.39406 0.0
H199 H 0.94611 0.68775 0.45557 0.0
Eu200 Eu 0.11532 -0.01326 0.84089 0.0
Eu201 Eu 0.2251 0.95687 0.83432 0.0
C202 C 0.09464 0.85531 0.85759 0.0
C203 C 0.95647 0.96625 0.84478 0.0
C204 C 0.92838 0.90271 0.85092 0.0
C205 C 0.85547 0.95559 0.84404 0.0
C206 C 0.86475 0.86682 0.85596 0.0
C207 C 0.91962 -0.00808 0.83971 0.0
C208 C 0.82762 0.8936 0.85453 0.0
C209 C 0.02347 0.00606 0.84721 0.0
O210 O 0.16832 0.9214 0.79037 0.0
O211 O 0.11673 -0.02582 0.7903 0.0
C212 C 0.1346 0.94029 0.77613 0.0
O213 O 0.20594 0.07552 0.83221 0.0
O214 O 0.24733 0.88416 0.83208 0.0
O215 O 0.321 -0.0201 0.82895 0.0
O216 O 0.25267 0.03709 0.80254 0.0
C217 C 0.2465 0.08306 0.81068 0.0
O218 O 0.15615 0.00501 0.88766 0.0
O219 O 0.2506 0.01498 0.87797 0.0
O220 O 0.15103 0.88803 0.86648 0.0
O221 O 0.04681 -0.00847 0.86962 0.0
O222 O 0.05703 0.01937 0.82219 0.0
O223 O 0.07169 0.88276 0.84191 0.0
C224 C 0.32663 0.9118 0.7951 0.0
C225 C 0.38883 0.93104 0.78919 0.0
C226 C 0.30745 0.89319 0.74165 0.0
C227 C 0.41061 0.93284 0.75934 0.0
C228 C 0.28585 0.89031 0.77127 0.0
C229 C 0.37064 0.91681 0.73492 0.0
C230 C 0.30527 0.92264 0.8245 0.0
C231 C 0.21232 0.02247 0.89626 0.0
H232 H 0.95607 0.8817 0.85428 0.0
H233 H 0.8284 -0.02257 0.84146 0.0
H234 H 0.84617 0.81962 0.86389 0.0
H235 H 0.94056 0.04072 0.83422 0.0
H236 H 0.42106 0.94767 0.80734 0.0
H237 H 0.27461 0.88147 0.72401 0.0
H238 H 0.45926 0.94997 0.75531 0.0
H239 H 0.23758 0.87506 0.77515 0.0
H240 H 0.01144 0.19102 0.19282 0.0
H241 H -0.01014 0.10412 1.10634 0.0
H242 H 0.08493 0.19619 1.08638 0.0
H243 H 0.11041 0.36557 1.15602 0.0
H244 H 0.15269 0.38779 0.19041 0.0
H245 H 0.07104 0.33257 0.19205 0.0
H246 H 0.09105 0.25632 0.22171 0.0
H247 H 0.17154 0.31065 0.21984 0.0
H248 H 0.14323 0.23432 0.20547 0.0
H249 H 0.19206 0.27417 1.08162 0.0
H250 H 0.29382 0.29881 1.0977 0.0
H251 H 0.25331 0.33856 0.18708 0.0
C252 C 0.02599 0.1922 0.16939 0.0
C253 C -0.00563 0.1402 1.15132 0.0
C254 C 0.01412 0.14325 1.12076 0.0
C255 C 0.0673 0.19612 1.10903 0.0
C256 C 0.09959 0.24599 1.12796 0.0
C257 C 0.07884 0.24456 0.15757 0.0
C258 C 0.12788 0.29564 0.17568 0.0
C259 C 0.11476 0.34855 0.17868 0.0
C260 C 0.13381 0.27266 0.20745 0.0
C261 C 0.18326 0.31494 1.15438 0.0
C262 C 0.16489 0.29194 1.12554 0.0
C263 C 0.20677 0.29297 1.10381 0.0
C264 C 0.26498 0.30733 1.11309 0.0
C265 C 0.27878 0.31773 1.14395 0.0
C266 C 0.24195 0.33022 0.16346 0.0
H267 H 0.05256 0.0527 0.44921 0.0
H268 H 0.00569 0.02606 0.54557 0.0
H269 H 0.00426 0.12311 0.54574 0.0
H270 H 0.15919 0.20759 0.45175 0.0
H271 H 0.14173 0.22827 0.41553 0.0
H272 H 0.12682 0.1517 0.42256 0.0
H273 H 0.01316 0.10841 0.40927 0.0
H274 H 0.02672 0.18533 0.40343 0.0
H275 H -0.03309 0.13232 0.43008 0.0
H276 H 0.00536 0.21929 0.53598 0.0
H277 H 0.07374 0.33047 0.5278 0.0
H278 H 0.128 0.30224 0.43903 0.0
C279 C 0.04432 0.06878 0.4705 0.0
C280 C 0.02994 0.03288 0.49744 0.0
C281 C 0.01832 0.05419 0.52485 0.0
C282 C 0.01463 0.1076 0.52484 0.0
C283 C 0.0233 0.13916 0.49726 0.0
C284 C 0.04145 0.12253 0.47097 0.0
C285 C 0.06094 0.17111 0.44599 0.0
C286 C 0.12606 0.19098 0.43321 0.0
C287 C 0.01413 0.14789 0.42071 0.0
C288 C 0.05834 0.22112 0.4636 0.0
C289 C 0.0296 0.19863 0.49204 0.0
C290 C 0.02825 0.23729 0.51397 0.0
C291 C 0.06641 0.30083 0.50884 0.0
C292 C 0.10995 0.32202 0.48425 0.0
C293 C 0.09663 0.28495 0.45874 0.0
H294 H 0.31376 0.20034 0.82638 0.0
H295 H 0.22518 0.08539 0.75106 0.0
H296 H 0.18561 0.15169 0.73592 0.0
H297 H 0.21088 0.1914 0.85586 0.0
H298 H 0.22981 0.26575 0.86941 0.0
H299 H 0.29001 0.25036 0.8617 0.0
H300 H 0.34599 0.34223 0.82387 0.0
H301 H 0.28802 0.36198 0.83222 0.0
H302 H 0.30495 0.35193 0.79351 0.0
H303 H 0.10907 0.17869 0.74789 0.0
H304 H 0.02844 0.18713 0.77644 0.0
H305 H 0.15551 0.27816 0.84812 0.0
C306 C 0.29072 0.19346 0.80519 0.0
C307 C 0.26969 0.13753 0.79066 0.0
C308 C 0.24068 0.1281 0.76277 0.0
C309 C 0.21728 0.16548 0.75425 0.0
C310 C 0.22488 0.21196 0.7737 0.0
C311 C 0.26442 0.22886 0.79787 0.0
C312 C 0.25115 0.26567 0.82056 0.0
C313 C 0.24499 0.2417 0.85375 0.0
C314 C 0.30045 0.33453 0.81731 0.0
C315 C 0.19055 0.25428 0.80922 0.0
C316 C 0.17799 0.22706 0.78126 0.0
C317 C 0.11969 0.2025 0.7691 0.0
C318 C 0.07364 0.20613 0.78576 0.0
C319 C 0.08577 0.23271 0.81462 0.0
C320 C 0.14513 0.2578 0.82604 0.0
H321 H 0.59598 0.50241 1.02657 0.0
H322 H 0.55042 0.31199 1.02337 0.0
H323 H 0.50636 0.30305 0.97356 0.0
H324 H 0.46296 0.47704 1.00666 0.0
H325 H 0.48667 0.54547 0.98345 0.0
H326 H 0.53577 0.54647 1.01228 0.0
H327 H 0.62543 0.58035 0.97261 0.0
H328 H 0.57694 0.58073 0.94342 0.0
H329 H 0.61379 0.53595 0.93912 0.0
H330 H 0.44025 0.30334 0.93388 0.0
H331 H 0.36549 0.31673 0.90479 0.0
H332 H 0.44901 0.5053 0.93393 0.0
C333 C 0.57935 0.45982 1.01467 0.0
C334 C 0.57681 0.40808 1.02892 0.0
C335 C 0.55418 0.35281 1.0128 0.0
C336 C 0.5286 0.34713 0.98441 0.0
C337 C 0.52667 0.39729 0.97223 0.0
C338 C 0.5528 0.45325 0.98649 0.0
C339 C 0.53482 0.4961 0.97176 0.0
C340 C 0.50315 0.5174 0.99492 0.0
C341 C 0.5911 0.55155 0.95577 0.0
C342 C 0.49014 0.4535 0.94894 0.0
C343 C 0.48746 0.39737 0.94892 0.0
C344 C 0.44341 0.34775 0.93288 0.0
C345 C 0.40066 0.35547 0.91674 0.0
C346 C 0.40195 0.41217 0.91701 0.0
C347 C 0.44823 0.46208 0.93269 0.0
H348 H 0.32104 0.54818 0.35868 0.0
H349 H 0.26213 0.67843 0.37863 0.0
H350 H 0.19473 0.64238 0.33469 0.0
H351 H 0.30642 0.54549 0.27259 0.0
H352 H 0.27844 0.46389 0.27432 0.0
H353 H 0.33386 0.51424 0.3009 0.0
H354 H 0.25664 0.44311 0.34552 0.0
H355 H 0.20286 0.39563 0.31789 0.0
H356 H 0.17977 0.43035 0.34683 0.0
H357 H 0.11739 0.57598 0.29701 0.0
H358 H 0.04094 0.48911 0.26774 0.0
H359 H 0.15244 0.40369 0.27199 0.0
C360 C 0.29687 0.57183 0.35282 0.0
C361 C 0.29754 0.61675 0.37179 0.0
C362 C 0.26264 0.64426 0.3642 0.0
C363 C 0.22437 0.62415 0.33926 0.0
C364 C 0.22197 0.5769 0.32212 0.0
C365 C 0.25811 0.55176 0.32837 0.0
C366 C 0.24 0.49489 0.31028 0.0
C367 C 0.2928 0.50522 0.2882 0.0
C368 C 0.21863 0.43769 0.33136 0.0
C369 C 0.18669 0.4905 0.29355 0.0
C370 C 0.17721 0.53845 0.30036 0.0
C371 C 0.1256 0.53939 0.29072 0.0
C372 C 0.08238 0.48975 0.27408 0.0
C373 C 0.09087 0.43966 0.26743 0.0
C374 C 0.14461 0.44122 0.27667 0.0
H375 H 0.71049 0.95883 0.76747 0.0
H376 H 0.6012 0.04137 0.74682 0.0
H377 H 0.54659 0.96253 0.70883 0.0
H378 H 0.74828 0.9492 0.699 0.0
H379 H 0.74631 0.87683 0.70189 0.0
H380 H 0.75751 0.92075 0.73504 0.0
H381 H 0.66291 0.8268 0.76194 0.0
H382 H 0.65123 0.78235 0.72842 0.0
H383 H 0.58932 0.79041 0.74436 0.0
H384 H 0.52788 0.89969 0.66418 0.0
H385 H 0.55231 0.86528 0.61657 0.0
H386 H 0.67678 0.82572 0.66397 0.0
C387 C 0.67331 0.95863 0.7557 0.0
C388 C 0.66026 0.00614 0.75985 0.0
C389 C 0.6115 0.00491 0.74422 0.0
C390 C 0.57997 0.96003 0.72268 0.0
C391 C 0.59714 0.91633 0.71738 0.0
C392 C 0.64225 0.91474 0.73387 0.0
C393 C 0.66212 0.873 0.71975 0.0
C394 C 0.73263 0.90704 0.71352 0.0
C395 C 0.64005 0.81466 0.73981 0.0
C396 C 0.62711 0.85771 0.69076 0.0
C397 C 0.58724 0.88017 0.69058 0.0
C398 C 0.55755 0.88039 0.66439 0.0
C399 C 0.57203 0.86115 0.63735 0.0
C400 C 0.61682 0.84327 0.6366 0.0
C401 C 0.6413 0.83769 0.66402 0.0
H402 H 0.69233 0.90186 1.0055 0.0
H403 H 0.65642 0.71546 1.01618 0.0
H404 H 0.6468 0.7033 0.96087 0.0
H405 H 0.60877 0.88086 0.92859 0.0
H406 H 0.67017 0.9563 0.9159 0.0
H407 H 0.6451 0.94149 0.95541 0.0
H408 H 0.75689 -0.02089 0.97074 0.0
H409 H 0.78185 -0.00482 0.93177 0.0
H410 H 0.79765 0.94463 0.95403 0.0
H411 H 0.67203 0.72088 0.90586 0.0
H412 H 0.74193 0.76811 0.86108 0.0
H413 H 0.77405 0.94737 0.88651 0.0
C414 C 0.6802 0.85776 0.99617 0.0
C415 C 0.67577 0.80994 1.01496 0.0
C416 C 0.65947 0.75264 1.00223 0.0
C417 C 0.65366 0.74531 0.97074 0.0
C418 C 0.66393 0.79554 0.95237 0.0
C419 C 0.67636 0.85073 0.9648 0.0
C420 C 0.70115 0.90231 0.94092 0.0
C421 C 0.65342 0.92132 0.93484 0.0
C422 C 0.76305 0.95843 0.94987 0.0
C423 C 0.70867 0.86974 0.91403 0.0
C424 C 0.68286 0.80726 0.92039 0.0
C425 C 0.69167 0.76954 0.90058 0.0
C426 C 0.73221 0.79706 0.87527 0.0
C427 C 0.76587 0.86212 0.87082 0.0
C428 C 0.74934 0.89766 0.88893 0.0
H429 H 0.9528 0.67902 0.35926 0.0
H430 H 0.1245 0.67999 0.36235 0.0
H431 H 0.13647 0.69292 0.30668 0.0
H432 H 0.91205 0.614 0.27563 0.0
H433 H 0.88087 0.66334 0.26947 0.0
H434 H 0.87158 0.62684 0.30627 0.0
H435 H 0.9205 0.7337 0.33053 0.0
H436 H 0.93131 0.77061 0.29422 0.0
H437 H -0.00335 0.79375 0.31762 0.0
H438 H 0.15059 0.74518 0.25772 0.0
H439 H 0.16227 0.8243 0.22088 0.0
H440 H -0.02182 0.78492 0.24587 0.0
C441 C -0.00931 0.67759 0.34809 0.0
C442 C 0.03791 0.67901 0.36514 0.0
C443 C 0.08797 0.67935 0.34974 0.0
C444 C 0.09484 0.68621 0.31803 0.0
C445 C 0.05061 0.69132 0.30202 0.0
C446 C -0.00183 0.68493 0.31649 0.0
C447 C -0.0357 0.70498 0.29573 0.0
C448 C 0.90362 0.64894 0.2862 0.0
C449 C 0.9527 0.75365 0.3104 0.0
C450 C 0.01035 0.73193 0.26912 0.0
C451 C 0.05842 0.7211 0.2725 0.0
C452 C 0.11207 0.75173 0.25408 0.0
C453 C 0.11831 0.79685 0.23304 0.0
C454 C 0.07114 0.81119 0.23059 0.0
C455 C 0.01506 0.77512 0.24739 0.0
H456 H 0.31212 0.86157 0.68262 0.0
H457 H 0.48224 0.01531 0.71401 0.0
H458 H 0.50443 0.06455 0.66358 0.0
H459 H 0.35267 0.88152 0.59583 0.0
H460 H 0.27653 0.86701 0.5886 0.0
H461 H 0.28795 0.82808 0.62011 0.0
H462 H 0.23532 0.8687 0.65647 0.0
H463 H 0.22435 0.90798 0.62544 0.0
H464 H 0.26542 0.95058 0.65784 0.0
H465 H 0.49415 0.11314 0.61758 0.0
H466 H 0.45094 0.15763 0.58321 0.0
H467 H 0.27755 -0.01678 0.58583 0.0
C468 C 0.35499 0.90481 0.67872 0.0
C469 C 0.39465 0.9346 0.70278 0.0
C470 C 0.45102 -0.00961 0.69624 0.0
C471 C 0.46403 0.01919 0.6674 0.0
C472 C 0.41992 -0.00757 0.64539 0.0
C473 C 0.36635 0.93605 0.6507 0.0
C474 C 0.31883 0.92506 0.62744 0.0
C475 C 0.30842 0.87229 0.60676 0.0
C476 C 0.2575 0.91247 0.64271 0.0
C477 C 0.35175 -0.01358 0.61012 0.0
C478 C 0.41124 0.02315 0.61966 0.0
C479 C 0.4481 0.08437 0.60954 0.0
C480 C 0.4228 0.10953 0.59032 0.0
C481 C 0.36047 0.07417 0.58213 0.0
C482 C 0.32564 0.01111 0.59113 0.0
H483 H 0.47326 0.14097 0.21967 0.0
H484 H 0.35254 0.01886 1.15208 0.0
H485 H 0.41617 0.96998 1.14816 0.0
H486 H 0.60819 0.17259 0.18473 0.0
H487 H 0.64732 0.17553 0.21882 0.0
H488 H 0.58632 0.19241 0.22016 0.0
H489 H 0.52773 0.10743 0.26218 0.0
H490 H 0.58905 0.09062 0.26122 0.0
H491 H 0.51078 0.02995 0.2558 0.0
H492 H 0.50381 0.94615 1.14636 0.0
H493 H 0.60293 0.94815 1.14813 0.0
H494 H 0.66286 0.086 0.21733 0.0
C495 C 0.45905 0.10274 0.20465 0.0
C496 C 0.40792 0.08361 0.18624 0.0
C497 C 0.39121 0.03381 0.16666 0.0
C498 C 0.42721 0.00591 0.16424 0.0
C499 C 0.47904 0.02777 0.18191 0.0
C500 C 0.49414 0.07452 0.20209 0.0
C501 C 0.55465 0.09392 0.21661 0.0
C502 C 0.60186 0.16264 0.20964 0.0
C503 C 0.54494 0.0796 0.25099 0.0
C504 C 0.57276 0.05263 0.20063 0.0
C505 C 0.52854 0.01411 0.18094 0.0
C506 C 0.53812 -0.02466 0.16214 0.0
C507 C 0.59458 -0.02323 0.16328 0.0
C508 C 0.64083 0.01718 0.18285 0.0
C509 C 0.62866 0.05434 0.20213 0.0
H510 H 0.48221 0.50636 0.55995 0.0
H511 H 0.47598 0.37766 0.49391 0.0
H512 H 0.58963 0.43928 0.48709 0.0
H513 H 0.58964 0.6376 0.52258 0.0
H514 H 0.62896 0.67908 0.55555 0.0
H515 H 0.54922 0.61942 0.55906 0.0
H516 H 0.57437 0.56269 0.60057 0.0
H517 H 0.65435 0.62289 0.59741 0.0
H518 H 0.63303 0.54359 0.5928 0.0
H519 H 0.70189 0.52637 0.48072 0.0
H520 H 0.80223 0.62517 0.47918 0.0
H521 H 0.733 0.69169 0.55137 0.0
C522 C 0.50494 0.49004 0.54479 0.0
C523 C 0.4705 0.4373 0.52753 0.0
C524 C 0.50168 0.41764 0.50764 0.0
C525 C 0.56619 0.45247 0.50354 0.0
C526 C 0.59871 0.50593 0.52001 0.0
C527 C 0.56905 0.52372 0.54077 0.0
C528 C 0.61328 0.58519 0.55398 0.0
C529 C 0.59412 0.6331 0.54737 0.0
C530 C 0.61911 0.57814 0.58822 0.0
C531 C 0.67191 0.60062 0.53648 0.0
C532 C 0.66312 0.55451 0.51706 0.0
C533 C 0.70971 0.56205 0.49644 0.0
C534 C 0.76643 0.61829 0.49562 0.0
C535 C 0.77576 0.66589 0.51535 0.0
C536 C 0.72804 0.65597 0.53633 0.0
H537 H 0.09961 0.54487 0.86386 0.0
H538 H 0.90881 0.44608 0.83823 0.0
H539 H 0.90592 0.54278 0.84161 0.0
H540 H 0.0834 0.6439 0.91824 0.0
H541 H 0.15896 0.70866 0.90838 0.0
H542 H 0.14411 0.63117 0.90508 0.0
H543 H 0.18176 0.65431 0.8485 0.0
H544 H 0.19684 0.73177 0.85166 0.0
H545 H 0.14669 0.6829 0.82303 0.0
H546 H 0.92922 0.65506 0.8431 0.0
H547 H -0.02567 0.76842 0.84519 0.0
H548 H 0.14658 0.78802 0.87342 0.0
C549 C 0.05701 0.54335 0.85909 0.0
C550 C 0.00455 0.48818 0.85055 0.0
C551 C 0.94952 0.48798 0.84486 0.0
C552 C 0.94752 0.54265 0.8467 0.0
C553 C 0.00057 0.5966 0.85488 0.0
C554 C 0.05396 0.59685 0.86137 0.0
C555 C 0.10513 0.66036 0.86926 0.0
C556 C 0.12398 0.66104 0.9022 0.0
C557 C 0.16085 0.68368 0.84677 0.0
C558 C 0.07294 0.69649 0.8655 0.0
C559 C 0.01271 0.65937 0.85714 0.0
C560 C -0.02402 0.68424 0.85019 0.0
C561 C 0.0019 0.74862 0.85145 0.0
C562 C 0.06371 0.78712 0.85984 0.0
C563 C 0.09882 0.76007 0.86749 0.0
H564 H 0.38686 0.34493 0.26631 0.0
H565 H 0.29249 0.14594 0.28012 0.0
H566 H 0.27518 0.15672 0.33398 0.0
H567 H 0.45986 0.38143 0.34205 0.0
H568 H 0.45046 0.4468 0.34778 0.0
H569 H 0.45945 0.42592 0.30982 0.0
H570 H 0.35764 0.41879 0.29552 0.0
H571 H 0.34902 0.43997 0.33342 0.0
H572 H 0.28826 0.36969 0.31807 0.0
H573 H 0.26491 0.18517 0.38628 0.0
H574 H 0.26087 0.2293 0.43448 0.0
H575 H 0.35764 0.41303 0.39216 0.0
C576 C 0.36333 0.30371 0.28075 0.0
C577 C 0.3413 0.24412 0.26807 0.0
C578 C 0.31 0.19202 0.28835 0.0
C579 C 0.29985 0.19763 0.31938 0.0
C580 C 0.32095 0.25599 0.33094 0.0
C581 C 0.35234 0.30846 0.3125 0.0
C582 C 0.36849 0.3652 0.33166 0.0
C583 C 0.43876 0.40736 0.33289 0.0
C584 C 0.33905 0.40051 0.31889 0.0
C585 C 0.33997 0.33602 0.36331 0.0
C586 C 0.3136 0.27282 0.36192 0.0
C587 C 0.285 0.23458 0.38747 0.0
C588 C 0.2825 0.26062 0.41507 0.0
C589 C 0.30734 0.32514 0.41798 0.0
C590 C 0.33743 0.36357 0.39131 0.0
H591 H 0.26638 0.36419 0.63091 0.0
H592 H 0.14876 0.40238 0.57642 0.0
H593 H 0.08653 0.39376 0.62252 0.0
H594 H 0.1502 0.25669 0.68651 0.0
H595 H 0.19989 0.28706 0.71818 0.0
H596 H 0.23261 0.29305 0.68062 0.0
H597 H 0.3012 0.41129 0.68649 0.0
H598 H 0.26691 0.40451 0.72381 0.0
H599 H 0.26536 0.45561 0.69537 0.0
H600 H 0.03147 0.37448 0.67542 0.0
H601 H -0.00177 0.36042 0.7298 0.0
H602 H 0.15618 0.34545 0.75236 0.0
C603 C 0.22764 0.37096 0.62867 0.0
C604 C 0.21297 0.38401 0.59941 0.0
C605 C 0.16188 0.3929 0.5981 0.0
C606 C 0.12574 0.38765 0.62438 0.0
C607 C 0.14119 0.37471 0.65267 0.0
C608 C 0.19183 0.36774 0.6551 0.0
C609 C 0.20022 0.35754 0.68862 0.0
C610 C 0.1954 0.29483 0.69376 0.0
C611 C 0.26211 0.41038 0.69919 0.0
C612 C 0.14595 0.35862 0.7045 0.0
C613 C 0.112 0.36778 0.68321 0.0
C614 C 0.05847 0.36814 0.69216 0.0
C615 C 0.03961 0.35986 0.72333 0.0
C616 C 0.07436 0.35245 0.746 0.0
C617 C 0.12851 0.35183 0.73602 0.0
H618 H 0.90311 0.17627 0.93382 0.0
H619 H 0.04161 0.36274 0.95617 0.0
H620 H 0.01771 0.33451 1.01066 0.0
H621 H 0.79263 0.14835 0.9955 0.0
H622 H 0.77146 0.06954 1.00338 0.0
H623 H 0.79775 0.10285 0.96562 0.0
H624 H 0.88367 0.07587 0.96601 0.0
H625 H 0.8568 0.04121 1.00351 0.0
H626 H 0.93613 0.1011 0.99669 0.0
H627 H -0.02241 0.28786 1.06346 0.0
H628 H 0.93011 0.22559 1.11026 0.0
H629 H 0.81941 0.06446 1.0569 0.0
C630 C 0.92835 0.2113 0.95016 0.0
C631 C -0.02555 0.2725 0.94003 0.0
C632 C 0.00636 0.31592 0.96268 0.0
C633 C -0.00712 0.3002 0.99396 0.0
C634 C 0.94755 0.24011 1.00308 0.0
C635 C 0.91612 0.1959 0.9819 0.0
C636 C 0.87095 0.13406 0.99831 0.0
C637 C 0.80423 0.11242 0.99021 0.0
C638 C 0.88787 0.08514 0.99067 0.0
C639 C 0.88131 0.1507 1.03188 0.0
C640 C 0.9256 0.21242 1.03385 0.0
C641 C 0.94295 0.23953 1.06203 0.0
C642 C 0.91505 0.20333 1.08877 0.0
C643 C 0.86989 0.13943 1.08806 0.0
C644 C 0.85323 0.11296 1.05878 0.0
H645 H 0.8279 0.02463 0.29834 0.0
H646 H 0.86028 0.90494 0.24083 0.0
H647 H 0.87817 0.85872 0.28607 0.0
H648 H 0.94051 0.04883 0.35515 0.0
H649 H 0.89278 0.04593 0.38703 0.0
H650 H 0.88426 0.07168 0.35014 0.0
H651 H 0.76819 -0.01143 0.35285 0.0
H652 H 0.77672 0.96257 0.38968 0.0
H653 H 0.74502 0.9088 0.35947 0.0
H654 H 0.89756 0.82715 0.33795 0.0
H655 H 0.90894 0.80789 0.39183 0.0
H656 H 0.85641 0.94006 0.41843 0.0
C657 C 0.83873 -0.01132 0.29522 0.0
C658 C 0.84251 0.96896 0.26532 0.0
C659 C 0.85653 0.92127 0.26292 0.0
C660 C 0.86709 0.89459 0.28873 0.0
C661 C 0.86285 0.91475 0.31759 0.0
C662 C 0.84834 0.96031 0.32111 0.0
C663 C 0.84498 0.9718 0.35506 0.0
C664 C 0.89352 0.03853 0.36226 0.0
C665 C 0.77985 0.95706 0.36484 0.0
C666 C 0.85997 0.9259 0.36994 0.0
C667 C 0.8709 0.89412 0.34771 0.0
C668 C 0.88831 0.85136 0.35544 0.0
C669 C 0.8947 0.84063 0.38633 0.0
C670 C 0.88265 0.87123 0.40994 0.0
C671 C 0.86472 0.91452 0.40129 0.0
H672 H -0.03783 0.92631 0.6187 0.0
H673 H 0.03455 0.815 0.58336 0.0
H674 H 0.08502 0.82357 0.63124 0.0
H675 H 0.09838 0.02934 0.66151 0.0
H676 H 0.05509 0.03458 0.69333 0.0
H677 H 0.02395 0.0208 0.65602 0.0
H678 H 0.92569 0.92229 0.67676 0.0
H679 H 0.95653 0.93588 0.71412 0.0
H680 H 0.93279 0.86336 0.69653 0.0
H681 H 0.12902 0.84261 0.68417 0.0
H682 H 0.16125 0.87112 0.73687 0.0
H683 H 0.06289 0.97043 0.74031 0.0
C684 C -0.01154 0.90358 0.62099 0.0
C685 C -0.00668 0.86958 0.5964 0.0
C686 C 0.02896 0.84118 0.60112 0.0
C687 C 0.05832 0.84578 0.62857 0.0
C688 C 0.05258 0.87909 0.65212 0.0
C689 C 0.01855 0.90764 0.64872 0.0
C690 C 0.02024 0.94057 0.67803 0.0
C691 C 0.05125 0.01048 0.67185 0.0
C692 C 0.95492 0.91394 0.6922 0.0
C693 C 0.05984 0.92559 0.69821 0.0
C694 C 0.07814 0.89016 0.68268 0.0
C695 C 0.11483 0.87044 0.69644 0.0
C696 C 0.13309 0.88693 0.72664 0.0
C697 C 0.11511 0.92312 0.74347 0.0
C698 C 0.07786 0.94264 0.72857 0.0
H699 H 0.30684 0.04048 0.93783 0.0
H700 H 0.15869 0.07784 0.92541 0.0
H701 H 0.17712 0.12509 0.97493 0.0
H702 H 0.27615 0.00271 1.01859 0.0
H703 H 0.35561 0.04024 1.02893 0.0
H704 H 0.33469 0.01122 0.9913 0.0
H705 H 0.41244 0.11933 0.9682 0.0
H706 H 0.43346 0.14877 1.00578 0.0
H707 H 0.40707 0.18486 0.97954 0.0
H708 H 0.20479 0.16396 1.02663 0.0
H709 H 0.24062 0.19235 1.07816 0.0
H710 H 0.37497 0.13595 1.06244 0.0
C711 C 0.27872 0.05915 0.94539 0.0
C712 C 0.23054 0.05427 0.92686 0.0
C713 C 0.19522 0.07949 0.93844 0.0
C714 C 0.20553 0.10708 0.96686 0.0
C715 C 0.25189 0.11026 0.98454 0.0
C716 C 0.28836 0.08734 0.97447 0.0
C717 C 0.33402 0.09636 0.99929 0.0
C718 C 0.32456 0.03391 1.01017 0.0
C719 C 0.40072 0.1399 0.98749 0.0
C720 C 0.31626 0.12646 1.02476 0.0
C721 C 0.26888 0.1341 1.0152 0.0
C722 C 0.24228 0.15864 1.03418 0.0
C723 C 0.26338 0.17497 1.06373 0.0
C724 C 0.31163 0.16786 1.07504 0.0
C725 C 0.339 0.1436 1.05477 0.0
loop_
_geom_bond_atom_site_label_1
_geom_bond_atom_site_label_2
_geom_bond_distance
_geom_bond_site_symmetry_2
_ccdc_geom_bond_type
Eu0 C9 2.828 . S
Eu0 O11 2.392 1_554 S
Eu0 O13 2.418 . S
Eu0 O18 2.373 . S
Eu0 O21 2.488 . S
Eu0 O22 2.471 . S
Eu0 O23 2.349 . S
Eu1 O10 2.373 . S
Eu1 O14 2.488 . S
Eu1 O15 2.471 . S
Eu1 O16 2.349 1_556 S
Eu1 O19 2.392 1_556 S
Eu1 O20 2.418 . S
Eu1 C30 2.828 . S
C2 O20 1.244 1_554 S
C2 O23 1.265 . S
C3 C4 1.379 . S
C3 C7 1.373 . S
C3 C9 1.505 . S
C4 C3 1.379 . S
C4 C6 1.369 . S
C4 H32 0.930 . S
C5 C7 1.383 . S
C5 C8 1.382 . S
C5 H33 0.930 . S
C6 C4 1.369 . S
C6 C8 1.392 . S
C6 H34 0.930 . S
C7 C3 1.373 . S
C7 C5 1.383 . S
C7 H35 0.931 . S
C8 C5 1.382 . S
C8 C6 1.392 . S
C9 Eu0 2.828 . S
C9 C3 1.505 . S
C9 O21 1.249 . S
C9 O22 1.244 . S
O10 Eu1 2.373 . S
O10 C12 1.258 . S
O11 Eu0 2.392 1_556 S
O11 C12 1.242 . S
C12 O10 1.258 . S
C12 O11 1.242 . S
O13 Eu0 2.418 . S
O13 C17 1.244 . S
O14 Eu1 2.488 . S
O14 C30 1.249 . S
O15 Eu1 2.471 . S
O15 C30 1.244 . S
O16 Eu1 2.349 1_554 S
O16 C17 1.265 . S
C17 O13 1.244 . S
C17 O16 1.265 . S
O18 Eu0 2.373 . S
O18 C31 1.258 . S
O19 Eu1 2.392 1_554 S
O19 C31 1.242 . S
O20 Eu1 2.418 . S
O20 C2 1.244 1_556 S
O21 Eu0 2.488 . S
O21 C9 1.249 . S
O22 Eu0 2.471 . S
O22 C9 1.244 . S
O23 Eu0 2.349 . S
O23 C2 1.265 . S
C24 C25 1.379 . S
C24 C28 1.373 . S
C24 C30 1.505 . S
C25 C24 1.379 . S
C25 C27 1.369 . S
C25 H36 0.930 . S
C26 C28 1.383 . S
C26 C29 1.382 . S
C26 H37 0.930 . S
C27 C25 1.369 . S
C27 C29 1.392 . S
C27 H38 0.930 . S
C28 C24 1.373 . S
C28 C26 1.383 . S
C28 H39 0.931 . S
C29 C26 1.382 . S
C29 C27 1.392 . S
C30 Eu1 2.828 . S
C30 O14 1.249 . S
C30 O15 1.244 . S
C30 C24 1.505 . S
C31 O18 1.258 . S
C31 O19 1.242 . S
H32 C4 0.930 . S
H33 C5 0.930 . S
H34 C6 0.930 . S
H35 C7 0.931 . S
H36 C25 0.930 . S
H37 C26 0.930 . S
H38 C27 0.930 . S
H39 C28 0.931 . S
Eu40 C49 2.828 . S
Eu40 O51 2.392 . S
Eu40 O53 2.418 . S
Eu40 O58 2.373 . S
Eu40 O61 2.488 . S
Eu40 O62 2.471 . S
Eu40 O63 2.349 . S
Eu41 O50 2.373 . S
Eu41 O54 2.488 . S
Eu41 O55 2.471 . S
Eu41 O56 2.349 . S
Eu41 O59 2.392 . S
Eu41 O60 2.418 . S
Eu41 C70 2.828 . S
C42 O60 1.244 . S
C42 O63 1.265 . S
C43 C44 1.379 . S
C43 C47 1.373 . S
C43 C49 1.505 . S
C44 C43 1.379 . S
C44 C46 1.369 . S
C44 H72 0.930 . S
C45 C47 1.383 . S
C45 C48 1.382 . S
C45 H73 0.930 . S
C46 C44 1.369 . S
C46 C48 1.392 . S
C46 H74 0.930 . S
C47 C43 1.373 . S
C47 C45 1.383 . S
C47 H75 0.931 . S
C48 C45 1.382 . S
C48 C46 1.392 . S
C49 Eu40 2.828 . S
C49 C43 1.505 . S
C49 O61 1.249 . S
C49 O62 1.244 . S
O50 Eu41 2.373 . S
O50 C52 1.258 . S
O51 Eu40 2.392 . S
O51 C52 1.242 . S
C52 O50 1.258 . S
C52 O51 1.242 . S
O53 Eu40 2.418 . S
O53 C57 1.244 . S
O54 Eu41 2.488 . S
O54 C70 1.249 . S
O55 Eu41 2.471 . S
O55 C70 1.244 . S
O56 Eu41 2.349 . S
O56 C57 1.265 . S
C57 O53 1.244 . S
C57 O56 1.265 . S
O58 Eu40 2.373 . S
O58 C71 1.258 . S
O59 Eu41 2.392 . S
O59 C71 1.242 . S
O60 Eu41 2.418 . S
O60 C42 1.244 . S
O61 Eu40 2.488 . S
O61 C49 1.249 . S
O62 Eu40 2.471 . S
O62 C49 1.244 . S
O63 Eu40 2.349 . S
O63 C42 1.265 . S
C64 C65 1.379 . S
C64 C68 1.373 . S
C64 C70 1.505 . S
C65 C64 1.379 . S
C65 C67 1.369 . S
C65 H76 0.930 . S
C66 C68 1.383 . S
C66 C69 1.382 . S
C66 H77 0.930 . S
C67 C65 1.369 . S
C67 C69 1.392 . S
C67 H78 0.930 . S
C68 C64 1.373 . S
C68 C66 1.383 . S
C68 H79 0.931 . S
C69 C66 1.382 . S
C69 C67 1.392 . S
C70 Eu41 2.828 . S
C70 O54 1.249 . S
C70 O55 1.244 . S
C70 C64 1.505 . S
C71 O58 1.258 . S
C71 O59 1.242 . S
H72 C44 0.930 . S
H73 C45 0.930 . S
H74 C46 0.930 . S
H75 C47 0.931 . S
H76 C65 0.930 . S
H77 C66 0.930 . S
H78 C67 0.930 . S
H79 C68 0.931 . S
Eu80 C89 2.828 . S
Eu80 O91 2.392 . S
Eu80 O93 2.418 . S
Eu80 O98 2.373 . S
Eu80 O101 2.488 . S
Eu80 O102 2.471 . S
Eu80 O103 2.349 . S
Eu81 O90 2.373 1_655 S
Eu81 O94 2.488 . S
Eu81 O95 2.471 . S
Eu81 O96 2.349 . S
Eu81 O99 2.392 . S
Eu81 O100 2.418 . S
Eu81 C110 2.828 . S
C82 O100 1.244 . S
C82 O103 1.265 1_655 S
C83 C84 1.379 . S
C83 C87 1.373 . S
C83 C89 1.505 . S
C84 C83 1.379 . S
C84 C86 1.369 . S
C84 H112 0.930 . S
C85 C87 1.383 . S
C85 C88 1.382 . S
C85 H113 0.930 . S
C86 C84 1.369 . S
C86 C88 1.392 . S
C86 H114 0.930 . S
C87 C83 1.373 . S
C87 C85 1.383 . S
C87 H115 0.931 . S
C88 C85 1.382 . S
C88 C86 1.392 . S
C89 Eu80 2.828 . S
C89 C83 1.505 . S
C89 O101 1.249 . S
C89 O102 1.244 . S
O90 Eu81 2.373 1_455 S
O90 C92 1.258 . S
O91 Eu80 2.392 . S
O91 C92 1.242 . S
C92 O90 1.258 . S
C92 O91 1.242 . S
O93 Eu80 2.418 . S
O93 C97 1.244 . S
O94 Eu81 2.488 . S
O94 C110 1.249 . S
O95 Eu81 2.471 . S
O95 C110 1.244 . S
O96 Eu81 2.349 . S
O96 C97 1.265 1_655 S
C97 O93 1.244 . S
C97 O96 1.265 1_455 S
O98 Eu80 2.373 . S
O98 C111 1.258 1_455 S
O99 Eu81 2.392 . S
O99 C111 1.242 . S
O100 Eu81 2.418 . S
O100 C82 1.244 . S
O101 Eu80 2.488 . S
O101 C89 1.249 . S
O102 Eu80 2.471 . S
O102 C89 1.244 . S
O103 Eu80 2.349 . S
O103 C82 1.265 1_455 S
C104 C105 1.379 . S
C104 C108 1.373 . S
C104 C110 1.505 . S
C105 C104 1.379 . S
C105 C107 1.369 . S
C105 H116 0.930 . S
C106 C108 1.383 . S
C106 C109 1.382 . S
C106 H117 0.930 . S
C107 C105 1.369 . S
C107 C109 1.392 . S
C107 H118 0.930 . S
C108 C104 1.373 . S
C108 C106 1.383 . S
C108 H119 0.931 . S
C109 C106 1.382 . S
C109 C107 1.392 . S
C110 Eu81 2.828 . S
C110 O94 1.249 . S
C110 O95 1.244 . S
C110 C104 1.505 . S
C111 O98 1.258 1_655 S
C111 O99 1.242 . S
H112 C84 0.930 . S
H113 C85 0.930 . S
H114 C86 0.930 . S
H115 C87 0.931 . S
H116 C105 0.930 . S
H117 C106 0.930 . S
H118 C107 0.930 . S
H119 C108 0.931 . S
Eu120 C129 2.828 . S
Eu120 O131 2.392 1_554 S
Eu120 O133 2.418 . S
Eu120 O138 2.373 . S
Eu120 O141 2.488 . S
Eu120 O142 2.471 . S
Eu120 O143 2.349 . S
Eu121 O130 2.373 1_565 S
Eu121 O134 2.488 . S
Eu121 O135 2.471 . S
Eu121 O136 2.349 1_566 S
Eu121 O139 2.392 1_556 S
Eu121 O140 2.418 . S
Eu121 C150 2.828 . S
C122 O140 1.244 1_554 S
C122 O143 1.265 1_565 S
C123 C124 1.379 . S
C123 C127 1.373 . S
C123 C129 1.505 . S
C124 C123 1.379 . S
C124 C126 1.369 . S
C124 H152 0.930 . S
C125 C127 1.383 . S
C125 C128 1.382 . S
C125 H153 0.930 . S
C126 C124 1.369 . S
C126 C128 1.392 . S
C126 H154 0.930 . S
C127 C123 1.373 . S
C127 C125 1.383 . S
C127 H155 0.931 . S
C128 C125 1.382 . S
C128 C126 1.392 . S
C129 Eu120 2.828 . S
C129 C123 1.505 . S
C129 O141 1.249 . S
C129 O142 1.244 . S
O130 Eu121 2.373 1_545 S
O130 C132 1.258 . S
O131 Eu120 2.392 1_556 S
O131 C132 1.242 . S
C132 O130 1.258 . S
C132 O131 1.242 . S
O133 Eu120 2.418 . S
O133 C137 1.244 . S
O134 Eu121 2.488 . S
O134 C150 1.249 . S
O135 Eu121 2.471 . S
O135 C150 1.244 . S
O136 Eu121 2.349 1_544 S
O136 C137 1.265 . S
C137 O133 1.244 . S
C137 O136 1.265 . S
O138 Eu120 2.373 . S
O138 C151 1.258 1_545 S
O139 Eu121 2.392 1_554 S
O139 C151 1.242 . S
O140 Eu121 2.418 . S
O140 C122 1.244 1_556 S
O141 Eu120 2.488 . S
O141 C129 1.249 . S
O142 Eu120 2.471 . S
O142 C129 1.244 . S
O143 Eu120 2.349 . S
O143 C122 1.265 1_545 S
C144 C145 1.379 . S
C144 C148 1.373 . S
C144 C150 1.505 . S
C145 C144 1.379 . S
C145 C147 1.369 . S
C145 H156 0.930 . S
C146 C148 1.383 . S
C146 C149 1.382 . S
C146 H157 0.930 . S
C147 C145 1.369 . S
C147 C149 1.392 . S
C147 H158 0.930 . S
C148 C144 1.373 . S
C148 C146 1.383 . S
C148 H159 0.931 . S
C149 C146 1.382 . S
C149 C147 1.392 . S
C150 Eu121 2.828 . S
C150 O134 1.249 . S
C150 O135 1.244 . S
C150 C144 1.505 . S
C151 O138 1.258 1_565 S
C151 O139 1.242 . S
H152 C124 0.930 . S
H153 C125 0.930 . S
H154 C126 0.930 . S
H155 C127 0.931 . S
H156 C145 0.930 . S
H157 C146 0.930 . S
H158 C147 0.930 . S
H159 C148 0.931 . S
Eu160 C169 2.828 . S
Eu160 O171 2.392 . S
Eu160 O173 2.418 1_655 S
Eu160 O178 2.373 . S
Eu160 O181 2.488 . S
Eu160 O182 2.471 . S
Eu160 O183 2.349 . S
Eu161 O170 2.373 1_455 S
Eu161 O174 2.488 . S
Eu161 O175 2.471 . S
Eu161 O176 2.349 . S
Eu161 O179 2.392 . S
Eu161 O180 2.418 1_455 S
Eu161 C190 2.828 . S
C162 O180 1.244 . S
C162 O183 1.265 . S
C163 C164 1.379 . S
C163 C167 1.373 . S
C163 C169 1.505 . S
C164 C163 1.379 . S
C164 C166 1.369 . S
C164 H192 0.930 . S
C165 C167 1.383 . S
C165 C168 1.382 . S
C165 H193 0.930 . S
C166 C164 1.369 . S
C166 C168 1.392 . S
C166 H194 0.930 . S
C167 C163 1.373 . S
C167 C165 1.383 . S
C167 H195 0.931 . S
C168 C165 1.382 . S
C168 C166 1.392 . S
C169 Eu160 2.828 . S
C169 C163 1.505 . S
C169 O181 1.249 . S
C169 O182 1.244 . S
O170 Eu161 2.373 1_655 S
O170 C172 1.258 . S
O171 Eu160 2.392 . S
O171 C172 1.242 . S
C172 O170 1.258 . S
C172 O171 1.242 . S
O173 Eu160 2.418 1_455 S
O173 C177 1.244 . S
O174 Eu161 2.488 . S
O174 C190 1.249 . S
O175 Eu161 2.471 . S
O175 C190 1.244 . S
O176 Eu161 2.349 . S
O176 C177 1.265 . S
C177 O173 1.244 . S
C177 O176 1.265 . S
O178 Eu160 2.373 . S
O178 C191 1.258 1_655 S
O179 Eu161 2.392 . S
O179 C191 1.242 . S
O180 Eu161 2.418 1_655 S
O180 C162 1.244 . S
O181 Eu160 2.488 . S
O181 C169 1.249 . S
O182 Eu160 2.471 . S
O182 C169 1.244 . S
O183 Eu160 2.349 . S
O183 C162 1.265 . S
C184 C185 1.379 . S
C184 C188 1.373 . S
C184 C190 1.505 . S
C185 C184 1.379 . S
C185 C187 1.369 . S
C185 H196 0.930 . S
C186 C188 1.383 . S
C186 C189 1.382 . S
C186 H197 0.930 . S
C187 C185 1.369 . S
C187 C189 1.392 . S
C187 H198 0.930 . S
C188 C184 1.373 . S
C188 C186 1.383 . S
C188 H199 0.931 . S
C189 C186 1.382 . S
C189 C187 1.392 . S
C190 Eu161 2.828 . S
C190 O174 1.249 . S
C190 O175 1.244 . S
C190 C184 1.505 . S
C191 O178 1.258 1_455 S
C191 O179 1.242 . S
H192 C164 0.930 . S
H193 C165 0.930 . S
H194 C166 0.930 . S
H195 C167 0.931 . S
H196 C185 0.930 . S
H197 C186 0.930 . S
H198 C187 0.930 . S
H199 C188 0.931 . S
Eu200 C209 2.828 . S
Eu200 O211 2.392 . S
Eu200 O213 2.418 1_565 S
Eu200 O218 2.373 . S
Eu200 O221 2.488 . S
Eu200 O222 2.471 . S
Eu200 O223 2.349 . S
Eu201 O210 2.373 1_545 S
Eu201 O214 2.488 . S
Eu201 O215 2.471 . S
Eu201 O216 2.349 . S
Eu201 O219 2.392 . S
Eu201 O220 2.418 1_545 S
Eu201 C230 2.828 . S
C202 O220 1.244 . S
C202 O223 1.265 . S
C203 C204 1.379 . S
C203 C207 1.373 . S
C203 C209 1.505 . S
C204 C203 1.379 . S
C204 C206 1.369 . S
C204 H232 0.930 . S
C205 C207 1.383 . S
C205 C208 1.382 . S
C205 H233 0.930 . S
C206 C204 1.369 . S
C206 C208 1.392 . S
C206 H234 0.930 . S
C207 C203 1.373 . S
C207 C205 1.383 . S
C207 H235 0.931 . S
C208 C205 1.382 . S
C208 C206 1.392 . S
C209 Eu200 2.828 . S
C209 C203 1.505 . S
C209 O221 1.249 . S
C209 O222 1.244 . S
O210 Eu201 2.373 1_565 S
O210 C212 1.258 . S
O211 Eu200 2.392 . S
O211 C212 1.242 . S
C212 O210 1.258 . S
C212 O211 1.242 . S
O213 Eu200 2.418 1_545 S
O213 C217 1.244 . S
O214 Eu201 2.488 . S
O214 C230 1.249 . S
O215 Eu201 2.471 . S
O215 C230 1.244 . S
O216 Eu201 2.349 . S
O216 C217 1.265 . S
C217 O213 1.244 . S
C217 O216 1.265 . S
O218 Eu200 2.373 . S
O218 C231 1.258 1_565 S
O219 Eu201 2.392 . S
O219 C231 1.242 . S
O220 Eu201 2.418 1_565 S
O220 C202 1.244 . S
O221 Eu200 2.488 . S
O221 C209 1.249 . S
O222 Eu200 2.471 . S
O222 C209 1.244 . S
O223 Eu200 2.349 . S
O223 C202 1.265 . S
C224 C225 1.379 . S
C224 C228 1.373 . S
C224 C230 1.505 . S
C225 C224 1.379 . S
C225 C227 1.369 . S
C225 H236 0.930 . S
C226 C228 1.383 . S
C226 C229 1.382 . S
C226 H237 0.930 . S
C227 C225 1.369 . S
C227 C229 1.392 . S
C227 H238 0.930 . S
C228 C224 1.373 . S
C228 C226 1.383 . S
C228 H239 0.931 . S
C229 C226 1.382 . S
C229 C227 1.392 . S
C230 Eu201 2.828 . S
C230 O214 1.249 . S
C230 O215 1.244 . S
C230 C224 1.505 . S
C231 O218 1.258 1_545 S
C231 O219 1.242 . S
H232 C204 0.930 . S
H233 C205 0.930 . S
H234 C206 0.930 . S
H235 C207 0.931 . S
H236 C225 0.930 . S
H237 C226 0.930 . S
H238 C227 0.930 . S
H239 C228 0.931 . S
H240 C252 0.930 1_655 S
H241 C254 0.930 . S
H242 C255 0.930 . S
H243 C259 0.959 . S
H244 C259 0.959 . S
H245 C259 0.961 . S
H246 C260 0.960 . S
H247 C260 0.961 . S
H248 C260 0.959 . S
H249 C263 0.929 . S
H250 C264 0.931 . S
H251 C266 0.930 . S
C252 H240 0.930 1_455 S
C252 C253 1.399 1_455 S
C252 C257 1.399 . S
C253 C252 1.399 1_655 S
C253 C254 1.376 1_554 S
C254 H241 0.930 . S
C254 C253 1.376 1_556 S
C254 C255 1.388 1_655 S
C255 H242 0.930 . S
C255 C254 1.388 1_455 S
C255 C256 1.390 . S
C256 C255 1.390 . S
C256 C257 1.394 1_556 S
C256 C262 1.465 . S
C257 C252 1.399 . S
C257 C256 1.394 1_554 S
C257 C258 1.516 . S
C258 C257 1.516 . S
C258 C259 1.502 . S
C258 C260 1.561 . S
C258 C261 1.526 . S
C259 H243 0.959 . S
C259 H244 0.959 . S
C259 H245 0.961 . S
C259 C258 1.502 . S
C260 H246 0.960 . S
C260 H247 0.961 . S
C260 H248 0.959 . S
C260 C258 1.561 . S
C261 C258 1.526 . S
C261 C262 1.396 1_554 S
C261 C266 1.390 . S
C262 C256 1.465 . S
C262 C261 1.396 1_556 S
C262 C263 1.399 . S
C263 H249 0.929 . S
C263 C262 1.399 . S
C263 C264 1.385 . S
C264 H250 0.931 . S
C264 C263 1.385 . S
C264 C265 1.389 1_556 S
C265 C264 1.389 1_554 S
C265 C266 1.387 . S
C266 H251 0.930 . S
C266 C261 1.390 . S
C266 C265 1.387 . S
H267 C279 0.930 . S
H268 C281 0.930 . S
H269 C282 0.930 . S
H270 C286 0.959 . S
H271 C286 0.959 . S
H272 C286 0.961 . S
H273 C287 0.960 . S
H274 C287 0.961 . S
H275 C287 0.959 . S
H276 C290 0.929 . S
H277 C291 0.931 . S
H278 C293 0.930 . S
C279 H267 0.930 . S
C279 C280 1.399 1_545 S
C279 C284 1.399 . S
C280 C279 1.399 1_565 S
C280 C281 1.376 . S
C281 H268 0.930 . S
C281 C280 1.376 . S
C281 C282 1.388 1_565 S
C282 H269 0.930 . S
C282 C281 1.388 1_545 S
C282 C283 1.390 . S
C283 C282 1.390 . S
C283 C284 1.394 . S
C283 C289 1.465 . S
C284 C279 1.399 . S
C284 C283 1.394 . S
C284 C285 1.516 . S
C285 C284 1.516 . S
C285 C286 1.502 . S
C285 C287 1.561 . S
C285 C288 1.526 . S
C286 H270 0.959 . S
C286 H271 0.959 . S
C286 H272 0.961 . S
C286 C285 1.502 . S
C287 H273 0.960 . S
C287 H274 0.961 . S
C287 H275 0.959 . S
C287 C285 1.561 . S
C288 C285 1.526 . S
C288 C289 1.396 . S
C288 C293 1.390 . S
C289 C283 1.465 . S
C289 C288 1.396 . S
C289 C290 1.399 . S
C290 H276 0.929 . S
C290 C289 1.399 . S
C290 C291 1.385 . S
C291 H277 0.931 . S
C291 C290 1.385 . S
C291 C292 1.389 . S
C292 C291 1.389 . S
C292 C293 1.387 . S
C293 H278 0.930 . S
C293 C288 1.390 . S
C293 C292 1.387 . S
H294 C306 0.930 . S
H295 C308 0.930 . S
H296 C309 0.930 . S
H297 C313 0.959 . S
H298 C313 0.959 . S
H299 C313 0.961 . S
H300 C314 0.960 . S
H301 C314 0.961 . S
H302 C314 0.959 . S
H303 C317 0.929 . S
H304 C318 0.931 1_655 S
H305 C320 0.930 . S
C306 H294 0.930 . S
C306 C307 1.399 . S
C306 C311 1.399 . S
C307 C306 1.399 . S
C307 C308 1.376 . S
C308 H295 0.930 . S
C308 C307 1.376 . S
C308 C309 1.388 . S
C309 H296 0.930 . S
C309 C308 1.388 . S
C309 C310 1.390 . S
C310 C309 1.390 . S
C310 C311 1.394 . S
C310 C316 1.465 . S
C311 C306 1.399 . S
C311 C310 1.394 . S
C311 C312 1.516 . S
C312 C311 1.516 . S
C312 C313 1.502 . S
C312 C314 1.561 . S
C312 C315 1.526 . S
C313 H297 0.959 . S
C313 H298 0.959 . S
C313 H299 0.961 . S
C313 C312 1.502 . S
C314 H300 0.960 . S
C314 H301 0.961 . S
C314 H302 0.959 . S
C314 C312 1.561 . S
C315 C312 1.526 . S
C315 C316 1.396 . S
C315 C320 1.390 . S
C316 C310 1.465 . S
C316 C315 1.396 . S
C316 C317 1.399 . S
C317 H303 0.929 . S
C317 C316 1.399 . S
C317 C318 1.385 . S
C318 H304 0.931 1_455 S
C318 C317 1.385 . S
C318 C319 1.389 . S
C319 C318 1.389 . S
C319 C320 1.387 . S
C320 H305 0.930 . S
C320 C315 1.390 . S
C320 C319 1.387 . S
H321 C333 0.930 . S
H322 C335 0.930 . S
H323 C336 0.930 . S
H324 C340 0.959 . S
H325 C340 0.959 . S
H326 C340 0.961 . S
H327 C341 0.960 . S
H328 C341 0.961 . S
H329 C341 0.959 . S
H330 C344 0.929 . S
H331 C345 0.931 . S
H332 C347 0.930 . S
C333 H321 0.930 . S
C333 C334 1.399 . S
C333 C338 1.399 . S
C334 C333 1.399 . S
C334 C335 1.376 . S
C335 H322 0.930 . S
C335 C334 1.376 . S
C335 C336 1.388 . S
C336 H323 0.930 . S
C336 C335 1.388 . S
C336 C337 1.390 . S
C337 C336 1.390 . S
C337 C338 1.394 . S
C337 C343 1.465 . S
C338 C333 1.399 . S
C338 C337 1.394 . S
C338 C339 1.516 . S
C339 C338 1.516 . S
C339 C340 1.502 . S
C339 C341 1.561 . S
C339 C342 1.526 . S
C340 H324 0.959 . S
C340 H325 0.959 . S
C340 H326 0.961 . S
C340 C339 1.502 . S
C341 H327 0.960 . S
C341 H328 0.961 . S
C341 H329 0.959 . S
C341 C339 1.561 . S
C342 C339 1.526 . S
C342 C343 1.396 . S
C342 C347 1.390 . S
C343 C337 1.465 . S
C343 C342 1.396 . S
C343 C344 1.399 . S
C344 H330 0.929 . S
C344 C343 1.399 . S
C344 C345 1.385 . S
C345 H331 0.931 . S
C345 C344 1.385 . S
C345 C346 1.389 . S
C346 C345 1.389 . S
C346 C347 1.387 . S
C347 H332 0.930 . S
C347 C342 1.390 . S
C347 C346 1.387 . S
H348 C360 0.930 . S
H349 C362 0.930 . S
H350 C363 0.930 . S
H351 C367 0.959 1_655 S
H352 C367 0.959 1_655 S
H353 C367 0.961 . S
H354 C368 0.960 . S
H355 C368 0.961 . S
H356 C368 0.959 . S
H357 C371 0.929 . S
H358 C372 0.931 . S
H359 C374 0.930 . S
C360 H348 0.930 . S
C360 C361 1.399 . S
C360 C365 1.399 . S
C361 C360 1.399 . S
C361 C362 1.376 . S
C362 H349 0.930 . S
C362 C361 1.376 . S
C362 C363 1.388 . S
C363 H350 0.930 . S
C363 C362 1.388 . S
C363 C364 1.390 . S
C364 C363 1.390 . S
C364 C365 1.394 . S
C364 C370 1.465 1_455 S
C365 C360 1.399 . S
C365 C364 1.394 . S
C365 C366 1.516 . S
C366 C365 1.516 . S
C366 C367 1.502 . S
C366 C368 1.561 . S
C366 C369 1.526 1_455 S
C367 H351 0.959 1_455 S
C367 H352 0.959 1_455 S
C367 H353 0.961 . S
C367 C366 1.502 . S
C368 H354 0.960 . S
C368 H355 0.961 . S
C368 H356 0.959 . S
C368 C366 1.561 . S
C369 C366 1.526 1_655 S
C369 C370 1.396 . S
C369 C374 1.390 . S
C370 C364 1.465 1_655 S
C370 C369 1.396 . S
C370 C371 1.399 . S
C371 H357 0.929 . S
C371 C370 1.399 . S
C371 C372 1.385 . S
C372 H358 0.931 . S
C372 C371 1.385 . S
C372 C373 1.389 . S
C373 C372 1.389 . S
C373 C374 1.387 . S
C374 H359 0.930 . S
C374 C369 1.390 . S
C374 C373 1.387 . S
H375 C387 0.930 . S
H376 C389 0.930 . S
H377 C390 0.930 . S
H378 C394 0.959 . S
H379 C394 0.959 1_565 S
H380 C394 0.961 . S
H381 C395 0.960 . S
H382 C395 0.961 . S
H383 C395 0.959 . S
H384 C398 0.929 1_545 S
H385 C399 0.931 . S
H386 C401 0.930 . S
C387 H375 0.930 . S
C387 C388 1.399 . S
C387 C392 1.399 . S
C388 C387 1.399 . S
C388 C389 1.376 . S
C389 H376 0.930 . S
C389 C388 1.376 . S
C389 C390 1.388 . S
C390 H377 0.930 . S
C390 C389 1.388 . S
C390 C391 1.390 . S
C391 C390 1.390 . S
C391 C392 1.394 . S
C391 C397 1.466 . S
C392 C387 1.399 . S
C392 C391 1.394 . S
C392 C393 1.516 1_545 S
C393 C392 1.516 1_565 S
C393 C394 1.502 1_565 S
C393 C395 1.561 . S
C393 C396 1.526 . S
C394 H378 0.959 . S
C394 H379 0.959 1_545 S
C394 H380 0.961 . S
C394 C393 1.502 1_545 S
C395 H381 0.960 . S
C395 H382 0.961 . S
C395 H383 0.959 . S
C395 C393 1.561 . S
C396 C393 1.526 . S
C396 C397 1.395 1_565 S
C396 C401 1.390 . S
C397 C391 1.466 . S
C397 C396 1.395 1_545 S
C397 C398 1.398 1_545 S
C398 H384 0.929 1_565 S
C398 C397 1.398 1_565 S
C398 C399 1.385 . S
C399 H385 0.931 . S
C399 C398 1.385 . S
C399 C400 1.389 . S
C400 C399 1.389 . S
C400 C401 1.387 . S
C401 H386 0.930 . S
C401 C396 1.390 . S
C401 C400 1.387 . S
H402 C414 0.930 . S
H403 C416 0.930 . S
H404 C417 0.930 . S
H405 C421 0.959 . S
H406 C421 0.959 . S
H407 C421 0.961 . S
H408 C422 0.960 . S
H409 C422 0.961 1_455 S
H410 C422 0.959 1_455 S
H411 C425 0.929 . S
H412 C426 0.931 . S
H413 C428 0.930 . S
C414 H402 0.930 . S
C414 C415 1.399 . S
C414 C419 1.399 . S
C415 C414 1.399 . S
C415 C416 1.376 . S
C416 H403 0.930 . S
C416 C415 1.376 . S
C416 C417 1.388 . S
C417 H404 0.930 . S
C417 C416 1.388 . S
C417 C418 1.390 . S
C418 C417 1.390 . S
C418 C419 1.394 . S
C418 C424 1.465 . S
C419 C414 1.399 . S
C419 C418 1.394 . S
C419 C420 1.516 . S
C420 C419 1.516 . S
C420 C421 1.502 . S
C420 C422 1.561 . S
C420 C423 1.526 . S
C421 H405 0.959 . S
C421 H406 0.959 . S
C421 H407 0.961 . S
C421 C420 1.502 . S
C422 H408 0.960 . S
C422 H409 0.961 1_655 S
C422 H410 0.959 1_655 S
C422 C420 1.561 . S
C423 C420 1.526 . S
C423 C424 1.396 . S
C423 C428 1.390 1_655 S
C424 C418 1.465 . S
C424 C423 1.396 . S
C424 C425 1.399 . S
C425 H411 0.929 . S
C425 C424 1.399 . S
C425 C426 1.385 1_655 S
C426 H412 0.931 . S
C426 C425 1.385 1_455 S
C426 C427 1.389 . S
C427 C426 1.389 . S
C427 C428 1.387 . S
C428 H413 0.930 . S
C428 C423 1.390 1_455 S
C428 C427 1.387 . S
H429 C441 0.930 . S
H430 C443 0.930 . S
H431 C444 0.930 . S
H432 C448 0.959 . S
H433 C448 0.959 . S
H434 C448 0.961 . S
H435 C449 0.960 . S
H436 C449 0.961 . S
H437 C449 0.959 . S
H438 C452 0.929 . S
H439 C453 0.931 . S
H440 C455 0.930 . S
C441 H429 0.930 . S
C441 C442 1.399 . S
C441 C446 1.399 . S
C442 C441 1.399 . S
C442 C443 1.376 . S
C443 H430 0.930 . S
C443 C442 1.376 . S
C443 C444 1.388 . S
C444 H431 0.930 . S
C444 C443 1.388 . S
C444 C445 1.390 . S
C445 C444 1.390 . S
C445 C446 1.394 . S
C445 C451 1.465 . S
C446 C441 1.399 . S
C446 C445 1.394 . S
C446 C447 1.516 . S
C447 C446 1.516 . S
C447 C448 1.502 . S
C447 C449 1.561 . S
C447 C450 1.526 . S
C448 H432 0.959 . S
C448 H433 0.959 . S
C448 H434 0.961 . S
C448 C447 1.502 . S
C449 H435 0.960 . S
C449 H436 0.961 . S
C449 H437 0.959 . S
C449 C447 1.561 . S
C450 C447 1.526 . S
C450 C451 1.396 . S
C450 C455 1.390 1_565 S
C451 C445 1.465 . S
C451 C450 1.396 . S
C451 C452 1.399 1_565 S
C452 H438 0.929 . S
C452 C451 1.399 1_545 S
C452 C453 1.385 . S
C453 H439 0.931 . S
C453 C452 1.385 . S
C453 C454 1.389 . S
C454 C453 1.389 . S
C454 C455 1.387 . S
C455 H440 0.930 . S
C455 C450 1.390 1_545 S
C455 C454 1.387 . S
H456 C468 0.930 . S
H457 C470 0.930 . S
H458 C471 0.930 . S
H459 C475 0.959 . S
H460 C475 0.959 . S
H461 C475 0.961 . S
H462 C476 0.960 . S
H463 C476 0.961 . S
H464 C476 0.959 . S
H465 C479 0.929 . S
H466 C480 0.931 . S
H467 C482 0.930 . S
C468 H456 0.930 . S
C468 C469 1.399 . S
C468 C473 1.399 . S
C469 C468 1.399 . S
C469 C470 1.376 . S
C470 H457 0.930 . S
C470 C469 1.376 . S
C470 C471 1.388 . S
C471 H458 0.930 . S
C471 C470 1.388 . S
C471 C472 1.390 . S
C472 C471 1.390 . S
C472 C473 1.394 . S
C472 C478 1.465 . S
C473 C468 1.399 . S
C473 C472 1.394 . S
C473 C474 1.516 . S
C474 C473 1.516 . S
C474 C475 1.502 . S
C474 C476 1.561 . S
C474 C477 1.526 . S
C475 H459 0.959 . S
C475 H460 0.959 . S
C475 H461 0.961 . S
C475 C474 1.502 . S
C476 H462 0.960 . S
C476 H463 0.961 . S
C476 H464 0.959 . S
C476 C474 1.561 . S
C477 C474 1.526 . S
C477 C478 1.396 . S
C477 C482 1.390 . S
C478 C472 1.465 . S
C478 C477 1.396 . S
C478 C479 1.399 . S
C479 H465 0.929 . S
C479 C478 1.399 . S
C479 C480 1.385 . S
C480 H466 0.931 . S
C480 C479 1.385 . S
C480 C481 1.389 . S
C481 C480 1.389 . S
C481 C482 1.387 . S
C482 H467 0.930 . S
C482 C477 1.390 . S
C482 C481 1.387 . S
H483 C495 0.930 1_556 S
H484 C497 0.930 . S
H485 C498 0.930 . S
H486 C502 0.959 . S
H487 C502 0.959 . S
H488 C502 0.961 . S
H489 C503 0.960 . S
H490 C503 0.961 . S
H491 C503 0.959 . S
H492 C506 0.929 . S
H493 C507 0.931 . S
H494 C509 0.930 1_556 S
C495 H483 0.930 1_554 S
C495 C496 1.399 . S
C495 C500 1.399 . S
C496 C495 1.399 . S
C496 C497 1.376 . S
C497 H484 0.930 . S
C497 C496 1.376 . S
C497 C498 1.388 . S
C498 H485 0.930 . S
C498 C497 1.388 . S
C498 C499 1.390 . S
C499 C498 1.390 . S
C499 C500 1.394 . S
C499 C505 1.465 . S
C500 C495 1.399 . S
C500 C499 1.394 . S
C500 C501 1.516 . S
C501 C500 1.516 . S
C501 C502 1.502 1_554 S
C501 C503 1.561 . S
C501 C504 1.526 . S
C502 H486 0.959 . S
C502 H487 0.959 . S
C502 H488 0.961 . S
C502 C501 1.502 1_556 S
C503 H489 0.960 . S
C503 H490 0.961 . S
C503 H491 0.959 . S
C503 C501 1.561 . S
C504 C501 1.526 . S
C504 C505 1.396 . S
C504 C509 1.390 . S
C505 C499 1.465 . S
C505 C504 1.396 . S
C505 C506 1.399 . S
C506 H492 0.929 . S
C506 C505 1.399 . S
C506 C507 1.385 1_545 S
C507 H493 0.931 . S
C507 C506 1.385 1_565 S
C507 C508 1.389 1_565 S
C508 C507 1.389 1_545 S
C508 C509 1.387 . S
C509 H494 0.930 1_554 S
C509 C504 1.390 . S
C509 C508 1.387 . S
H510 C522 0.930 . S
H511 C524 0.930 . S
H512 C525 0.930 . S
H513 C529 0.959 . S
H514 C529 0.959 . S
H515 C529 0.961 . S
H516 C530 0.960 . S
H517 C530 0.961 . S
H518 C530 0.959 . S
H519 C533 0.929 . S
H520 C534 0.931 . S
H521 C536 0.930 . S
C522 H510 0.930 . S
C522 C523 1.399 . S
C522 C527 1.399 . S
C523 C522 1.399 . S
C523 C524 1.376 . S
C524 H511 0.930 . S
C524 C523 1.376 . S
C524 C525 1.388 . S
C525 H512 0.930 . S
C525 C524 1.388 . S
C525 C526 1.390 . S
C526 C525 1.390 . S
C526 C527 1.394 . S
C526 C532 1.465 . S
C527 C522 1.399 . S
C527 C526 1.394 . S
C527 C528 1.516 . S
C528 C527 1.516 . S
C528 C529 1.502 . S
C528 C530 1.561 . S
C528 C531 1.526 . S
C529 H513 0.959 . S
C529 H514 0.959 . S
C529 H515 0.961 . S
C529 C528 1.502 . S
C530 H516 0.960 . S
C530 H517 0.961 . S
C530 H518 0.959 . S
C530 C528 1.561 . S
C531 C528 1.526 . S
C531 C532 1.396 . S
C531 C536 1.390 . S
C532 C526 1.465 . S
C532 C531 1.396 . S
C532 C533 1.399 . S
C533 H519 0.929 . S
C533 C532 1.399 . S
C533 C534 1.385 . S
C534 H520 0.931 . S
C534 C533 1.385 . S
C534 C535 1.389 . S
C535 C534 1.389 . S
C535 C536 1.387 . S
C536 H521 0.930 . S
C536 C531 1.390 . S
C536 C535 1.387 . S
H537 C549 0.930 . S
H538 C551 0.930 . S
H539 C552 0.930 . S
H540 C556 0.959 . S
H541 C556 0.959 . S
H542 C556 0.961 . S
H543 C557 0.960 . S
H544 C557 0.961 . S
H545 C557 0.959 . S
H546 C560 0.929 . S
H547 C561 0.931 . S
H548 C563 0.930 . S
C549 H537 0.930 . S
C549 C550 1.399 . S
C549 C554 1.399 . S
C550 C549 1.399 . S
C550 C551 1.376 . S
C551 H538 0.930 . S
C551 C550 1.376 . S
C551 C552 1.388 . S
C552 H539 0.930 . S
C552 C551 1.388 . S
C552 C553 1.390 . S
C553 C552 1.390 . S
C553 C554 1.394 . S
C553 C559 1.465 . S
C554 C549 1.399 . S
C554 C553 1.394 . S
C554 C555 1.516 . S
C555 C554 1.516 . S
C555 C556 1.502 . S
C555 C557 1.561 . S
C555 C558 1.526 . S
C556 H540 0.959 . S
C556 H541 0.959 . S
C556 H542 0.961 . S
C556 C555 1.502 . S
C557 H543 0.960 . S
C557 H544 0.961 . S
C557 H545 0.959 . S
C557 C555 1.561 . S
C558 C555 1.526 . S
C558 C559 1.396 . S
C558 C563 1.390 . S
C559 C553 1.465 . S
C559 C558 1.396 . S
C559 C560 1.399 . S
C560 H546 0.929 . S
C560 C559 1.399 . S
C560 C561 1.385 . S
C561 H547 0.931 . S
C561 C560 1.385 . S
C561 C562 1.389 . S
C562 C561 1.389 . S
C562 C563 1.387 . S
C563 H548 0.930 . S
C563 C558 1.390 . S
C563 C562 1.387 . S
H564 C576 0.930 . S
H565 C578 0.930 . S
H566 C579 0.930 . S
H567 C583 0.959 . S
H568 C583 0.959 . S
H569 C583 0.961 . S
H570 C584 0.960 . S
H571 C584 0.961 . S
H572 C584 0.959 . S
H573 C587 0.929 . S
H574 C588 0.931 . S
H575 C590 0.930 . S
C576 H564 0.930 . S
C576 C577 1.399 . S
C576 C581 1.399 . S
C577 C576 1.399 . S
C577 C578 1.376 . S
C578 H565 0.930 . S
C578 C577 1.376 . S
C578 C579 1.388 . S
C579 H566 0.930 . S
C579 C578 1.388 . S
C579 C580 1.390 . S
C580 C579 1.390 . S
C580 C581 1.394 . S
C580 C586 1.465 . S
C581 C576 1.399 . S
C581 C580 1.394 . S
C581 C582 1.516 . S
C582 C581 1.516 . S
C582 C583 1.502 . S
C582 C584 1.561 . S
C582 C585 1.526 . S
C583 H567 0.959 . S
C583 H568 0.959 . S
C583 H569 0.961 . S
C583 C582 1.502 . S
C584 H570 0.960 . S
C584 H571 0.961 . S
C584 H572 0.959 . S
C584 C582 1.561 . S
C585 C582 1.526 . S
C585 C586 1.396 . S
C585 C590 1.390 . S
C586 C580 1.465 . S
C586 C585 1.396 . S
C586 C587 1.399 . S
C587 H573 0.929 . S
C587 C586 1.399 . S
C587 C588 1.385 . S
C588 H574 0.931 . S
C588 C587 1.385 . S
C588 C589 1.389 . S
C589 C588 1.389 . S
C589 C590 1.387 . S
C590 H575 0.930 . S
C590 C585 1.390 . S
C590 C589 1.387 . S
H591 C603 0.930 . S
H592 C605 0.930 . S
H593 C606 0.930 . S
H594 C610 0.959 . S
H595 C610 0.959 . S
H596 C610 0.961 . S
H597 C611 0.960 . S
H598 C611 0.961 . S
H599 C611 0.959 . S
H600 C614 0.929 . S
H601 C615 0.931 . S
H602 C617 0.930 . S
C603 H591 0.930 . S
C603 C604 1.399 . S
C603 C608 1.399 . S
C604 C603 1.399 . S
C604 C605 1.376 . S
C605 H592 0.930 . S
C605 C604 1.376 . S
C605 C606 1.388 . S
C606 H593 0.930 . S
C606 C605 1.388 . S
C606 C607 1.390 . S
C607 C606 1.390 . S
C607 C608 1.394 . S
C607 C613 1.465 . S
C608 C603 1.399 . S
C608 C607 1.394 . S
C608 C609 1.516 . S
C609 C608 1.516 . S
C609 C610 1.502 . S
C609 C611 1.561 . S
C609 C612 1.526 . S
C610 H594 0.959 . S
C610 H595 0.959 . S
C610 H596 0.961 . S
C610 C609 1.502 . S
C611 H597 0.960 . S
C611 H598 0.961 . S
C611 H599 0.959 . S
C611 C609 1.561 . S
C612 C609 1.526 . S
C612 C613 1.396 . S
C612 C617 1.390 . S
C613 C607 1.465 . S
C613 C612 1.396 . S
C613 C614 1.399 . S
C614 H600 0.929 . S
C614 C613 1.399 . S
C614 C615 1.385 . S
C615 H601 0.931 . S
C615 C614 1.385 . S
C615 C616 1.389 . S
C616 C615 1.389 . S
C616 C617 1.387 . S
C617 H602 0.930 . S
C617 C612 1.390 . S
C617 C616 1.387 . S
H618 C630 0.930 . S
H619 C632 0.930 1_455 S
H620 C633 0.930 1_455 S
H621 C637 0.959 . S
H622 C637 0.959 . S
H623 C637 0.961 . S
H624 C638 0.960 . S
H625 C638 0.961 . S
H626 C638 0.959 . S
H627 C641 0.929 1_455 S
H628 C642 0.931 . S
H629 C644 0.930 . S
C630 H618 0.930 . S
C630 C631 1.399 . S
C630 C635 1.399 . S
C631 C630 1.399 . S
C631 C632 1.376 . S
C632 H619 0.930 1_655 S
C632 C631 1.376 . S
C632 C633 1.388 . S
C633 H620 0.930 1_655 S
C633 C632 1.388 . S
C633 C634 1.390 . S
C634 C633 1.390 . S
C634 C635 1.394 . S
C634 C640 1.465 . S
C635 C630 1.399 . S
C635 C634 1.394 . S
C635 C636 1.516 . S
C636 C635 1.516 . S
C636 C637 1.502 . S
C636 C638 1.561 . S
C636 C639 1.526 . S
C637 H621 0.959 . S
C637 H622 0.959 . S
C637 H623 0.961 . S
C637 C636 1.502 . S
C638 H624 0.960 . S
C638 H625 0.961 . S
C638 H626 0.959 . S
C638 C636 1.561 . S
C639 C636 1.526 . S
C639 C640 1.396 . S
C639 C644 1.390 . S
C640 C634 1.465 . S
C640 C639 1.396 . S
C640 C641 1.399 . S
C641 H627 0.929 1_655 S
C641 C640 1.399 . S
C641 C642 1.385 . S
C642 H628 0.931 . S
C642 C641 1.385 . S
C642 C643 1.389 . S
C643 C642 1.389 . S
C643 C644 1.387 . S
C644 H629 0.930 . S
C644 C639 1.390 . S
C644 C643 1.387 . S
H645 C657 0.930 . S
H646 C659 0.930 . S
H647 C660 0.930 . S
H648 C664 0.959 . S
H649 C664 0.959 . S
H650 C664 0.961 . S
H651 C665 0.960 . S
H652 C665 0.961 . S
H653 C665 0.959 . S
H654 C668 0.929 . S
H655 C669 0.931 . S
H656 C671 0.930 . S
C657 H645 0.930 . S
C657 C658 1.399 . S
C657 C662 1.399 . S
C658 C657 1.399 . S
C658 C659 1.376 . S
C659 H646 0.930 . S
C659 C658 1.376 . S
C659 C660 1.388 . S
C660 H647 0.930 . S
C660 C659 1.388 . S
C660 C661 1.390 . S
C661 C660 1.390 . S
C661 C662 1.394 . S
C661 C667 1.465 . S
C662 C657 1.399 . S
C662 C661 1.394 . S
C662 C663 1.516 . S
C663 C662 1.516 . S
C663 C664 1.502 1_565 S
C663 C665 1.561 . S
C663 C666 1.526 . S
C664 H648 0.959 . S
C664 H649 0.959 . S
C664 H650 0.961 . S
C664 C663 1.502 1_545 S
C665 H651 0.960 . S
C665 H652 0.961 . S
C665 H653 0.959 . S
C665 C663 1.561 . S
C666 C663 1.526 . S
C666 C667 1.396 . S
C666 C671 1.390 . S
C667 C661 1.465 . S
C667 C666 1.396 . S
C667 C668 1.399 . S
C668 H654 0.929 . S
C668 C667 1.399 . S
C668 C669 1.385 . S
C669 H655 0.931 . S
C669 C668 1.385 . S
C669 C670 1.389 . S
C670 C669 1.389 . S
C670 C671 1.387 . S
C671 H656 0.930 . S
C671 C666 1.390 . S
C671 C670 1.387 . S
H672 C684 0.930 . S
H673 C686 0.930 . S
H674 C687 0.930 . S
H675 C691 0.945 1_565 S
H676 C691 0.971 . S
H677 C691 0.970 . S
H678 C692 0.960 . S
H679 C692 0.961 1_545 S
H680 C692 0.959 . S
H681 C695 0.929 . S
H682 C696 0.931 . S
H683 C698 0.930 . S
C684 H672 0.930 . S
C684 C685 1.399 . S
C684 C689 1.399 . S
C685 C684 1.399 . S
C685 C686 1.376 . S
C686 H673 0.930 . S
C686 C685 1.376 . S
C686 C687 1.388 . S
C687 H674 0.930 . S
C687 C686 1.388 . S
C687 C688 1.390 . S
C688 C687 1.390 . S
C688 C689 1.394 . S
C688 C694 1.465 . S
C689 C684 1.399 . S
C689 C688 1.394 . S
C689 C690 1.516 . S
C690 C689 1.516 . S
C690 C691 1.494 1_565 S
C690 C692 1.561 . S
C690 C693 1.526 . S
C691 H675 0.945 1_545 S
C691 H676 0.971 . S
C691 H677 0.970 . S
C691 C690 1.494 1_545 S
C692 H678 0.960 . S
C692 H679 0.961 1_565 S
C692 H680 0.959 . S
C692 C690 1.561 . S
C693 C690 1.526 . S
C693 C694 1.396 . S
C693 C698 1.390 . S
C694 C688 1.465 . S
C694 C693 1.396 . S
C694 C695 1.399 . S
C695 H681 0.929 . S
C695 C694 1.399 . S
C695 C696 1.385 . S
C696 H682 0.931 . S
C696 C695 1.385 . S
C696 C697 1.389 . S
C697 C696 1.389 . S
C697 C698 1.387 . S
C698 H683 0.930 . S
C698 C693 1.390 . S
C698 C697 1.387 . S
H699 C711 0.930 . S
H700 C713 0.930 . S
H701 C714 0.930 . S
H702 C718 0.959 . S
H703 C718 0.959 . S
H704 C718 0.961 . S
H705 C719 0.960 . S
H706 C719 0.961 . S
H707 C719 0.959 . S
H708 C722 0.929 . S
H709 C723 0.931 . S
H710 C725 0.930 . S
C711 H699 0.930 . S
C711 C712 1.399 . S
C711 C716 1.399 . S
C712 C711 1.399 . S
C712 C713 1.376 . S
C713 H700 0.930 . S
C713 C712 1.376 . S
C713 C714 1.388 . S
C714 H701 0.930 . S
C714 C713 1.388 . S
C714 C715 1.390 . S
C715 C714 1.390 . S
C715 C716 1.394 . S
C715 C721 1.465 . S
C716 C711 1.399 . S
C716 C715 1.394 . S
C716 C717 1.516 . S
C717 C716 1.516 . S
C717 C718 1.502 . S
C717 C719 1.561 . S
C717 C720 1.526 . S
C718 H702 0.959 . S
C718 H703 0.959 . S
C718 H704 0.961 . S
C718 C717 1.502 . S
C719 H705 0.960 . S
C719 H706 0.961 . S
C719 H707 0.959 . S
C719 C717 1.561 . S
C720 C717 1.526 . S
C720 C721 1.396 . S
C720 C725 1.390 . S
C721 C715 1.465 . S
C721 C720 1.396 . S
C721 C722 1.399 . S
C722 H708 0.929 . S
C722 C721 1.399 . S
C722 C723 1.385 . S
C723 H709 0.931 . S
C723 C722 1.385 . S
C723 C724 1.389 . S
C724 C723 1.389 . S
C724 C725 1.387 . S
C725 H710 0.930 . S
C725 C720 1.390 . S
C725 C724 1.387 . S
C253 C137 0.811 . S
C265 C17 0.731 . S
C280 C177 0.582 . S
C292 C57 0.757 . S
C307 C217 0.785 . S
C319 C97 0.766 . S
C334 C29 0.794 . S
C346 C88 0.758 . S
C361 C69 0.682 . S
C373 C128 0.878 . S
C388 C109 0.906 . S
C400 C168 0.689 . S
C415 C149 0.716 . S
C427 C208 0.893 . S
C442 C189 0.687 . S
C454 C8 0.871 . S
C469 C229 0.848 . S
C481 C48 0.707 . S
C496 C2 1.631 . S
C508 C122 1.671 1_545 S
C523 C42 1.664 . S
C535 C162 1.659 . S
C550 C82 1.605 1_455 S
C562 C202 1.645 . S
C577 C31 4.016 . S
C589 C52 4.047 . S
C604 C71 4.022 . S
C616 C92 4.045 . S
C631 C111 4.014 . S
C643 C132 4.049 . S
C658 C151 4.031 . S
C670 C172 4.047 . S
C685 C191 4.029 . S
C697 C212 4.053 . S
C712 C231 4.017 . S
C724 C12 4.046 . S
