# Generated by pormake.
# Topology pcb, (4)-cn, num edge types: 1
# Building blocks:
#     Node 0, Type 0, BuildingBlock: QUQFOY_clean_sbu_1, # of connection points: 4
#     Node 1, Type 0, BuildingBlock: QUQFOY_clean_sbu_1, # of connection points: 4
#     Node 2, Type 0, BuildingBlock: QUQFOY_clean_sbu_1, # of connection points: 4
#     Node 3, Type 0, BuildingBlock: QUQFOY_clean_sbu_1, # of connection points: 4
#     Node 4, Type 0, BuildingBlock: QUQFOY_clean_sbu_1, # of connection points: 4
#     Node 5, Type 0, BuildingBlock: QUQFOY_clean_sbu_1, # of connection points: 4
#     Node 6, Type 0, BuildingBlock: QUQFOY_clean_sbu_1, # of connection points: 4
#     Node 7, Type 0, BuildingBlock: QUQFOY_clean_sbu_1, # of connection points: 4
#     Node 8, Type 0, BuildingBlock: QUQFOY_clean_sbu_1, # of connection points: 4
#     Node 9, Type 0, BuildingBlock: QUQFOY_clean_sbu_1, # of connection points: 4
#     Node 10, Type 0, BuildingBlock: QUQFOY_clean_sbu_1, # of connection points: 4
#     Node 11, Type 0, BuildingBlock: QUQFOY_clean_sbu_1, # of connection points: 4
#     Node 12, Type 0, BuildingBlock: QUQFOY_clean_sbu_1, # of connection points: 4
#     Node 13, Type 0, BuildingBlock: QUQFOY_clean_sbu_1, # of connection points: 4
#     Node 14, Type 0, BuildingBlock: QUQFOY_clean_sbu_1, # of connection points: 4
#     Node 15, Type 0, BuildingBlock: QUQFOY_clean_sbu_1, # of connection points: 4
#     Edge 16, Type (0, 0), BuildingBlock: XIVTED_clean_linker_0, # of connection points: 2
#     Edge 17, Type (0, 0), BuildingBlock: XIVTED_clean_linker_0, # of connection points: 2
#     Edge 18, Type (0, 0), BuildingBlock: XIVTED_clean_linker_0, # of connection points: 2
#     Edge 19, Type (0, 0), BuildingBlock: XIVTED_clean_linker_0, # of connection points: 2
#     Edge 20, Type (0, 0), BuildingBlock: XIVTED_clean_linker_0, # of connection points: 2
#     Edge 21, Type (0, 0), BuildingBlock: XIVTED_clean_linker_0, # of connection points: 2
#     Edge 22, Type (0, 0), BuildingBlock: XIVTED_clean_linker_0, # of connection points: 2
#     Edge 23, Type (0, 0), BuildingBlock: XIVTED_clean_linker_0, # of connection points: 2
#     Edge 24, Type (0, 0), BuildingBlock: XIVTED_clean_linker_0, # of connection points: 2
#     Edge 25, Type (0, 0), BuildingBlock: XIVTED_clean_linker_0, # of connection points: 2
#     Edge 26, Type (0, 0), BuildingBlock: XIVTED_clean_linker_0, # of connection points: 2
#     Edge 27, Type (0, 0), BuildingBlock: XIVTED_clean_linker_0, # of connection points: 2
#     Edge 28, Type (0, 0), BuildingBlock: XIVTED_clean_linker_0, # of connection points: 2
#     Edge 29, Type (0, 0), BuildingBlock: XIVTED_clean_linker_0, # of connection points: 2
#     Edge 30, Type (0, 0), BuildingBlock: XIVTED_clean_linker_0, # of connection points: 2
#     Edge 31, Type (0, 0), BuildingBlock: XIVTED_clean_linker_0, # of connection points: 2
#     Edge 32, Type (0, 0), BuildingBlock: XIVTED_clean_linker_0, # of connection points: 2
#     Edge 33, Type (0, 0), BuildingBlock: XIVTED_clean_linker_0, # of connection points: 2
#     Edge 34, Type (0, 0), BuildingBlock: XIVTED_clean_linker_0, # of connection points: 2
#     Edge 35, Type (0, 0), BuildingBlock: XIVTED_clean_linker_0, # of connection points: 2
#     Edge 36, Type (0, 0), BuildingBlock: XIVTED_clean_linker_0, # of connection points: 2
#     Edge 37, Type (0, 0), BuildingBlock: XIVTED_clean_linker_0, # of connection points: 2
#     Edge 38, Type (0, 0), BuildingBlock: XIVTED_clean_linker_0, # of connection points: 2
#     Edge 39, Type (0, 0), BuildingBlock: XIVTED_clean_linker_0, # of connection points: 2
#     Edge 40, Type (0, 0), BuildingBlock: XIVTED_clean_linker_0, # of connection points: 2
#     Edge 41, Type (0, 0), BuildingBlock: XIVTED_clean_linker_0, # of connection points: 2
#     Edge 42, Type (0, 0), BuildingBlock: XIVTED_clean_linker_0, # of connection points: 2
#     Edge 43, Type (0, 0), BuildingBlock: XIVTED_clean_linker_0, # of connection points: 2
#     Edge 44, Type (0, 0), BuildingBlock: XIVTED_clean_linker_0, # of connection points: 2
#     Edge 45, Type (0, 0), BuildingBlock: XIVTED_clean_linker_0, # of connection points: 2
#     Edge 46, Type (0, 0), BuildingBlock: XIVTED_clean_linker_0, # of connection points: 2
#     Edge 47, Type (0, 0), BuildingBlock: XIVTED_clean_linker_0, # of connection points: 2
# Relax obj value: 0.297
# Max RMSD: 0.246
# Mean RMSD: 0.192
data_MOF--net-pcb--node1-QUQFOY_clean_sbu_1--edge1-XIVTED_clean_linker_0
_symmetry_space_group_name_H-M    P1
_symmetry_Int_Tables_number       1
_symmetry_cell_setting            triclinic
loop_
_symmetry_equiv_pos_as_xyz
'x, y, z'
_cell_length_a     45.7796
_cell_length_b     49.013368
_cell_length_c     49.334719
_cell_angle_alpha  94.318077
_cell_angle_beta   93.726464
_cell_angle_gamma 97.200569
loop_
_atom_site_label
_atom_site_type_symbol
_atom_site_fract_x
_atom_site_fract_y
_atom_site_fract_z
_atom_type_partial_charge
O0 O 0.1019 0.1655 0.17812 0.0
Cd1 Cd 0.14577 0.16176 0.18246 0.0
Cd2 Cd 0.13528 0.13557 0.12854 0.0
O3 O 0.09369 0.14534 0.13639 0.0
O4 O 0.16081 0.18969 0.21257 0.0
O5 O 0.1764 0.19071 0.1709 0.0
C6 C 0.17752 0.20156 0.1957 0.0
C7 C 0.14332 0.13393 0.08214 0.0
C8 C 0.08453 0.15749 0.15723 0.0
C9 C 0.16311 0.10605 0.17486 0.0
O10 O 0.15609 0.1076 0.14971 0.0
O11 O 0.15897 0.12508 0.19252 0.0
O12 O 0.12661 0.11473 0.09216 0.0
O13 O 0.15597 0.15432 0.09863 0.0
O14 O 0.79513 0.12663 0.16551 0.0
Cd15 Cd 0.81191 0.16766 0.17212 0.0
Cd16 Cd 0.8138 0.15837 0.11087 0.0
O17 O 0.794 0.12043 0.12056 0.0
O18 O 0.80589 0.17533 0.21128 0.0
O19 O 0.78607 0.19761 0.17894 0.0
C20 C 0.78971 0.19373 0.20447 0.0
C21 C 0.81137 0.1646 0.06396 0.0
C22 C 0.78934 0.11115 0.14351 0.0
C23 C 0.87043 0.17726 0.14932 0.0
O24 O 0.85667 0.17116 0.12607 0.0
O25 O 0.8567 0.1772 0.17083 0.0
O26 O 0.82565 0.14654 0.07432 0.0
O27 O 0.79658 0.17867 0.07995 0.0
O28 O 0.87478 0.86745 0.17898 0.0
Cd29 Cd 0.83009 0.8677 0.18009 0.0
Cd30 Cd 0.83063 0.86508 0.12484 0.0
O31 O 0.87506 0.86346 0.1342 0.0
O32 O 0.81947 0.85392 0.21526 0.0
O33 O 0.80414 0.83138 0.17515 0.0
C34 C 0.80489 0.83253 0.20147 0.0
C35 C 0.81049 0.84 0.08456 0.0
C36 C 0.88866 0.86492 0.15767 0.0
C37 C 0.80768 0.91419 0.15424 0.0
O38 O 0.81335 0.90163 0.13212 0.0
O39 O 0.81276 0.9042 0.1768 0.0
O40 O 0.8276 0.86287 0.08457 0.0
O41 O 0.80489 0.83057 0.10764 0.0
O42 O 0.18285 0.90328 0.22031 0.0
Cd43 Cd 0.16374 0.86291 0.21294 0.0
Cd44 Cd 0.16725 0.86855 0.1592 0.0
O45 O 0.18725 0.90645 0.17643 0.0
O46 O 0.17533 0.83956 0.24187 0.0
O47 O 0.18691 0.83382 0.19893 0.0
C48 C 0.18771 0.8259 0.22337 0.0
C49 C 0.18724 0.85581 0.11828 0.0
C50 C 0.19096 0.91723 0.20084 0.0
C51 C 0.10644 0.85676 0.18014 0.0
O52 O 0.12175 0.86034 0.15977 0.0
O53 O 0.11899 0.85689 0.20389 0.0
O54 O 0.17179 0.87588 0.12057 0.0
O55 O 0.19082 0.84189 0.13914 0.0
O56 O 0.2036 0.80735 0.91189 0.0
Cd57 Cd 0.18525 0.80415 0.87237 0.0
Cd58 Cd 0.19001 0.85883 0.87821 0.0
O59 O 0.21264 0.85269 0.91437 0.0
O60 O 0.19524 0.77004 0.85306 0.0
O61 O 0.20956 0.81212 0.84099 0.0
C62 C 0.20903 0.7857 0.83679 0.0
C63 C 0.20686 0.89683 0.85493 0.0
C64 C 0.21405 0.83007 0.92512 0.0
C65 C 0.1286 0.82708 0.87048 0.0
O66 O 0.14445 0.85032 0.87584 0.0
O67 O 0.1406 0.80519 0.86726 0.0
O68 O 0.19683 0.89972 0.87858 0.0
O69 O 0.20836 0.87215 0.8445 0.0
O70 O 0.10811 0.15954 0.81235 0.0
Cd71 Cd 0.15032 0.15749 0.82832 0.0
Cd72 Cd 0.13199 0.10327 0.82158 0.0
O73 O 0.09719 0.11542 0.79875 0.0
O74 O 0.16954 0.19594 0.82862 0.0
O75 O 0.18348 0.16125 0.80342 0.0
C76 C 0.18661 0.18731 0.81105 0.0
C77 C 0.15622 0.06714 0.80523 0.0
C78 C 0.09061 0.13988 0.79969 0.0
C79 C 0.14537 0.12825 0.8789 0.0
O80 O 0.13222 0.10768 0.8637 0.0
O81 O 0.15639 0.1497 0.86843 0.0
O82 O 0.12942 0.06294 0.81201 0.0
O83 O 0.1691 0.09227 0.80654 0.0
O84 O 0.85964 0.13079 0.76085 0.0
Cd85 Cd 0.81593 0.12185 0.76806 0.0
Cd86 Cd 0.8349 0.13461 0.82173 0.0
O87 O 0.87174 0.14986 0.80267 0.0
O88 O 0.78911 0.13873 0.74263 0.0
O89 O 0.79822 0.1524 0.78667 0.0
C90 C 0.78543 0.15562 0.76321 0.0
C91 C 0.83064 0.15544 0.86551 0.0
C92 C 0.87856 0.14416 0.77851 0.0
C93 C 0.80973 0.0748 0.80074 0.0
O94 O 0.82272 0.09237 0.81935 0.0
O95 O 0.80273 0.08219 0.77731 0.0
O96 O 0.85159 0.14119 0.86016 0.0
O97 O 0.81188 0.15861 0.84572 0.0
O98 O 0.89267 0.7952 0.84925 0.0
Cd99 Cd 0.84768 0.78847 0.84608 0.0
Cd100 Cd 0.85059 0.84326 0.85945 0.0
O101 O 0.89548 0.83992 0.86034 0.0
O102 O 0.83367 0.76037 0.81557 0.0
O103 O 0.82582 0.80428 0.81614 0.0
C104 C 0.82268 0.77982 0.80368 0.0
C105 C 0.83666 0.885 0.84628 0.0
C106 C 0.908 0.81849 0.85555 0.0
C107 C 0.81859 0.80189 0.89504 0.0
O108 O 0.82535 0.8265 0.88888 0.0
O109 O 0.82658 0.78177 0.88095 0.0
O110 O 0.85024 0.88323 0.8696 0.0
O111 O 0.8313 0.86297 0.82978 0.0
O112 O 0.59547 0.65339 0.65375 0.0
Cd113 Cd 0.63889 0.65003 0.66331 0.0
Cd114 Cd 0.63364 0.61761 0.6157 0.0
O115 O 0.58954 0.62197 0.61886 0.0
O116 O 0.65285 0.68186 0.68986 0.0
O117 O 0.67196 0.67516 0.65004 0.0
C118 C 0.67206 0.68962 0.67307 0.0
C119 C 0.64766 0.61892 0.57121 0.0
C120 C 0.57893 0.63892 0.63502 0.0
C121 C 0.65881 0.59562 0.66688 0.0
O122 O 0.65568 0.59392 0.64099 0.0
O123 O 0.65039 0.61565 0.68078 0.0
O124 O 0.63288 0.5973 0.57927 0.0
O125 O 0.65537 0.63989 0.58881 0.0
O126 O 0.29042 0.61738 0.64862 0.0
Cd127 Cd 0.30829 0.65791 0.64706 0.0
Cd128 Cd 0.30097 0.64037 0.59207 0.0
O129 O 0.27727 0.60593 0.60513 0.0
O130 O 0.31168 0.6699 0.68659 0.0
O131 O 0.2848 0.68925 0.65665 0.0
C132 C 0.29409 0.68769 0.68168 0.0
C133 C 0.28496 0.65936 0.55272 0.0
C134 C 0.27823 0.59984 0.62971 0.0
C135 C 0.36282 0.65441 0.61738 0.0
O136 O 0.3462 0.64224 0.59733 0.0
O137 O 0.35176 0.66449 0.63824 0.0
O138 O 0.29259 0.63494 0.55191 0.0
O139 O 0.28517 0.67295 0.5762 0.0
O140 O 0.37688 0.37125 0.70356 0.0
Cd141 Cd 0.33189 0.3703 0.70169 0.0
Cd142 Cd 0.33348 0.36018 0.64756 0.0
O143 O 0.37717 0.35814 0.65991 0.0
O144 O 0.3175 0.35677 0.73577 0.0
O145 O 0.30801 0.3332 0.69522 0.0
C146 C 0.3055 0.3347 0.72123 0.0
C147 C 0.31422 0.33051 0.60986 0.0
C148 C 0.39075 0.3641 0.68331 0.0
C149 C 0.30946 0.41217 0.6689 0.0
O150 O 0.31693 0.39758 0.64876 0.0
O151 O 0.31321 0.40493 0.69291 0.0
O152 O 0.30537 0.32593 0.63359 0.0
O153 O 0.33384 0.35129 0.60784 0.0
O154 O 0.68601 0.40545 0.74196 0.0
Cd155 Cd 0.66673 0.36504 0.7358 0.0
Cd156 Cd 0.66876 0.36895 0.68071 0.0
O157 O 0.68893 0.40686 0.69766 0.0
O158 O 0.68059 0.34011 0.76243 0.0
O159 O 0.68859 0.33671 0.7184 0.0
C160 C 0.6912 0.32734 0.74214 0.0
C161 C 0.68651 0.35865 0.63805 0.0
C162 C 0.69349 0.41849 0.72171 0.0
C163 C 0.6088 0.35735 0.70417 0.0
O164 O 0.62359 0.35962 0.68328 0.0
O165 O 0.62184 0.35916 0.72789 0.0
O166 O 0.67025 0.37785 0.64218 0.0
O167 O 0.69199 0.344 0.65795 0.0
O168 O 0.70044 0.32209 0.42983 0.0
Cd169 Cd 0.68116 0.31918 0.39065 0.0
Cd170 Cd 0.68784 0.37368 0.39712 0.0
O171 O 0.71111 0.36735 0.43291 0.0
O172 O 0.68713 0.28292 0.37269 0.0
O173 O 0.70503 0.323 0.35827 0.0
C174 C 0.70181 0.29634 0.35534 0.0
C175 C 0.70568 0.40728 0.36908 0.0
C176 C 0.71179 0.34443 0.44329 0.0
C177 C 0.62574 0.34474 0.39114 0.0
O178 O 0.64235 0.3675 0.39685 0.0
O179 O 0.63689 0.32253 0.38661 0.0
O180 O 0.69779 0.41381 0.39306 0.0
O181 O 0.70476 0.38143 0.36129 0.0
O182 O 0.61474 0.66337 0.30849 0.0
Cd183 Cd 0.65772 0.66013 0.32134 0.0
Cd184 Cd 0.63825 0.60692 0.31222 0.0
O185 O 0.60353 0.62057 0.29052 0.0
O186 O 0.67836 0.69801 0.32084 0.0
O187 O 0.68818 0.66272 0.29372 0.0
C188 C 0.693 0.68877 0.30149 0.0
C189 C 0.66189 0.57016 0.29652 0.0
C190 C 0.59688 0.64488 0.29452 0.0
C191 C 0.65366 0.62906 0.37018 0.0
O192 O 0.63865 0.61007 0.35426 0.0
O193 O 0.66611 0.65051 0.36066 0.0
O194 O 0.63471 0.56656 0.30234 0.0
O195 O 0.67516 0.59514 0.29755 0.0
O196 O 0.36601 0.64231 0.27231 0.0
Cd197 Cd 0.32218 0.63316 0.27885 0.0
Cd198 Cd 0.34047 0.65193 0.3313 0.0
O199 O 0.37791 0.66586 0.31228 0.0
O200 O 0.29537 0.64513 0.24967 0.0
O201 O 0.30252 0.66473 0.29203 0.0
C202 C 0.29018 0.66417 0.26768 0.0
C203 C 0.32653 0.67724 0.36951 0.0
C204 C 0.38485 0.65748 0.28879 0.0
C205 C 0.31773 0.59061 0.31734 0.0
O206 O 0.331 0.60993 0.33404 0.0
O207 O 0.30981 0.59537 0.29315 0.0
O208 O 0.3507 0.66635 0.3702 0.0
O209 O 0.31083 0.67518 0.34662 0.0
O210 O 0.39014 0.3174 0.37288 0.0
Cd211 Cd 0.34517 0.31028 0.36998 0.0
Cd212 Cd 0.34832 0.36235 0.39116 0.0
O213 O 0.39333 0.35988 0.39197 0.0
O214 O 0.33259 0.28248 0.33888 0.0
O215 O 0.32211 0.32559 0.34043 0.0
C216 C 0.32033 0.30148 0.32744 0.0
C217 C 0.33332 0.40301 0.37653 0.0
C218 C 0.40566 0.33949 0.38308 0.0
C219 C 0.31714 0.31688 0.42159 0.0
O220 O 0.32346 0.34258 0.41926 0.0
O221 O 0.32482 0.29926 0.40417 0.0
O222 O 0.34586 0.40217 0.40054 0.0
O223 O 0.32901 0.38052 0.36064 0.0
H224 H 0.27879 0.33013 0.30454 0.0
H225 H 0.16784 0.24436 0.23036 0.0
H226 H 0.32341 0.2585 0.28983 0.0
H227 H 0.23517 0.21269 0.18464 0.0
H228 H 0.20553 0.27791 0.25575 0.0
H229 H 0.24524 0.31461 0.264 0.0
C230 C 0.28181 0.31139 0.29255 0.0
C231 C 0.3033 0.29511 0.30088 0.0
C232 C 0.21203 0.26441 0.23946 0.0
C233 C 0.26521 0.27736 0.25489 0.0
C234 C 0.19055 0.24515 0.22513 0.0
C235 C 0.19863 0.22579 0.20563 0.0
C236 C 0.24184 0.26368 0.23472 0.0
C237 C 0.22822 0.22741 0.19956 0.0
C238 C 0.26263 0.30253 0.26955 0.0
C239 C 0.3066 0.27125 0.28445 0.0
N240 N 0.24901 0.24551 0.21473 0.0
N241 N 0.28751 0.26292 0.26234 0.0
H242 H 0.70882 0.2419 0.35008 0.0
H243 H 0.76548 0.24204 0.20065 0.0
H244 H 0.72309 0.31668 0.30909 0.0
H245 H 0.78237 0.18112 0.25647 0.0
H246 H 0.74352 0.26777 0.23714 0.0
H247 H 0.72933 0.21713 0.31261 0.0
C248 C 0.71625 0.25311 0.33317 0.0
C249 C 0.71438 0.28141 0.33273 0.0
C250 C 0.75209 0.24877 0.24127 0.0
C251 C 0.73767 0.25311 0.28967 0.0
C252 C 0.76446 0.23405 0.2205 0.0
C253 C 0.7758 0.20948 0.2256 0.0
C254 C 0.75066 0.23848 0.26704 0.0
C255 C 0.77404 0.20005 0.25167 0.0
C256 C 0.72803 0.23897 0.31182 0.0
C257 C 0.72434 0.29488 0.31027 0.0
N258 N 0.7616 0.21449 0.27135 0.0
N259 N 0.73548 0.28056 0.28951 0.0
H260 H 0.77748 0.78179 0.17964 0.0
H261 H 0.71759 0.74039 0.32095 0.0
H262 H 0.79842 0.83189 0.25588 0.0
H263 H 0.7141 0.68135 0.25097 0.0
H264 H 0.74666 0.77433 0.29671 0.0
H265 H 0.75298 0.74494 0.20444 0.0
C266 C 0.77691 0.78504 0.20155 0.0
C267 C 0.78986 0.80998 0.21571 0.0
C268 C 0.7398 0.7539 0.28667 0.0
C269 C 0.76205 0.76806 0.24408 0.0
C270 C 0.72318 0.7345 0.30051 0.0
C271 C 0.71336 0.70808 0.28789 0.0
C272 C 0.74635 0.74701 0.2598 0.0
C273 C 0.72135 0.70152 0.26143 0.0
C274 C 0.76309 0.76397 0.21568 0.0
C275 C 0.78866 0.81305 0.2441 0.0
N276 N 0.73715 0.721 0.24809 0.0
N277 N 0.77489 0.79241 0.25729 0.0
H278 H 0.26908 0.67522 0.21688 0.0
H279 H 0.197 0.80682 0.27341 0.0
H280 H 0.27037 0.70269 0.30223 0.0
H281 H 0.21031 0.78922 0.18836 0.0
H282 H 0.21965 0.76604 0.28396 0.0
H283 H 0.24279 0.71395 0.20565 0.0
C284 C 0.26358 0.68922 0.23325 0.0
C285 C 0.27202 0.6858 0.26051 0.0
C286 C 0.21765 0.77108 0.26298 0.0
C287 C 0.24214 0.73011 0.24784 0.0
C288 C 0.20471 0.79439 0.25694 0.0
C289 C 0.20187 0.8015 0.22997 0.0
C290 C 0.22769 0.75463 0.2419 0.0
C291 C 0.21221 0.78457 0.20945 0.0
C292 C 0.24873 0.71139 0.22683 0.0
C293 C 0.26442 0.7046 0.28092 0.0
N294 N 0.22464 0.76188 0.21584 0.0
N295 N 0.24998 0.72596 0.27416 0.0
H296 H 0.30211 0.68108 0.73569 0.0
H297 H 0.22422 0.80869 0.7898 0.0
H298 H 0.26308 0.73235 0.67976 0.0
H299 H 0.22651 0.7347 0.83169 0.0
H300 H 0.24659 0.78649 0.75132 0.0
H301 H 0.28318 0.70664 0.77343 0.0
C302 C 0.28972 0.69787 0.73133 0.0
C303 C 0.284 0.70449 0.70449 0.0
C304 C 0.24219 0.77526 0.76901 0.0
C305 C 0.26234 0.7339 0.74778 0.0
C306 C 0.22962 0.78789 0.79096 0.0
C307 C 0.22349 0.77343 0.81388 0.0
C308 C 0.24917 0.7483 0.7704 0.0
C309 C 0.23073 0.74652 0.81435 0.0
C310 C 0.27882 0.71236 0.75292 0.0
C311 C 0.26781 0.72649 0.70015 0.0
N312 N 0.24333 0.73488 0.793 0.0
N313 N 0.25752 0.74051 0.72165 0.0
H314 H 0.20766 0.23932 0.83206 0.0
H315 H 0.28262 0.28317 0.69798 0.0
H316 H 0.21368 0.18091 0.76333 0.0
H317 H 0.29279 0.3338 0.77436 0.0
H318 H 0.25661 0.24551 0.72065 0.0
H319 H 0.2387 0.2742 0.81063 0.0
C320 C 0.21574 0.23379 0.8125 0.0
C321 C 0.208 0.20727 0.79935 0.0
C322 C 0.26469 0.26483 0.73241 0.0
C323 C 0.24329 0.24724 0.77449 0.0
C324 C 0.27937 0.28636 0.71948 0.0
C325 C 0.28972 0.31169 0.73429 0.0
C326 C 0.26017 0.26883 0.76024 0.0
C327 C 0.2851 0.31467 0.76212 0.0
C328 C 0.2335 0.25371 0.80027 0.0
C329 C 0.21922 0.20116 0.77413 0.0
N330 N 0.27055 0.29355 0.77413 0.0
N331 N 0.23609 0.22114 0.76231 0.0
H332 H 0.76236 0.17285 0.71577 0.0
H333 H 0.70367 0.30431 0.78971 0.0
H334 H 0.77082 0.19232 0.80298 0.0
H335 H 0.70964 0.29248 0.70273 0.0
H336 H 0.72473 0.26142 0.79495 0.0
H337 H 0.73866 0.21437 0.71058 0.0
C338 C 0.75898 0.1857 0.73384 0.0
C339 C 0.76865 0.17915 0.75984 0.0
C340 C 0.72148 0.26824 0.77472 0.0
C341 C 0.74175 0.22676 0.75403 0.0
C342 C 0.70949 0.29274 0.77172 0.0
C343 C 0.70497 0.30203 0.74575 0.0
C344 C 0.72882 0.2528 0.75157 0.0
C345 C 0.71286 0.28615 0.72316 0.0
C346 C 0.7456 0.20949 0.73085 0.0
C347 C 0.76379 0.19661 0.78253 0.0
N348 N 0.72433 0.26228 0.72659 0.0
N349 N 0.75073 0.21964 0.77909 0.0
H350 H 0.82663 0.73789 0.76518 0.0
H351 H 0.66789 0.73567 0.70606 0.0
H352 H 0.77994 0.80774 0.78199 0.0
H353 H 0.72972 0.69424 0.66132 0.0
H354 H 0.70913 0.76564 0.73099 0.0
H355 H 0.79313 0.72384 0.72458 0.0
C356 C 0.80955 0.75047 0.76007 0.0
C357 C 0.80562 0.77369 0.77714 0.0
C358 C 0.71371 0.75057 0.71516 0.0
C359 C 0.76712 0.75763 0.73103 0.0
C360 C 0.69019 0.73347 0.70097 0.0
C361 C 0.69558 0.71232 0.68197 0.0
C362 C 0.74271 0.74577 0.71088 0.0
C363 C 0.72476 0.71029 0.67596 0.0
C364 C 0.79061 0.7426 0.73679 0.0
C365 C 0.78348 0.78953 0.76945 0.0
N366 N 0.74738 0.7263 0.69098 0.0
N367 N 0.76453 0.78082 0.74725 0.0
H368 H 0.12323 0.08671 0.9091 0.0
H369 H 0.17328 0.17257 0.05294 0.0
H370 H 0.1721 0.16856 0.91718 0.0
H371 H 0.12128 0.09217 0.04386 0.0
H372 H 0.17612 0.17037 0.0034 0.0
H373 H 0.12523 0.0872 0.95873 0.0
C374 C 0.13447 0.10475 0.92128 0.0
C375 C 0.14735 0.12768 0.90892 0.0
C376 C 0.1642 0.15317 0.0123 0.0
C377 C 0.14971 0.12842 0.9658 0.0
C378 C 0.16262 0.15441 0.04056 0.0
C379 C 0.14689 0.1326 0.05253 0.0
C380 C 0.14996 0.12995 0.99596 0.0
C381 C 0.13352 0.10955 0.03552 0.0
C382 C 0.1356 0.10503 0.94964 0.0
C383 C 0.16172 0.15045 0.92579 0.0
N384 N 0.13528 0.10889 0.00814 0.0
N385 N 0.16241 0.15028 0.95334 0.0
H386 H 0.78087 0.16874 0.88947 0.0
H387 H 0.85897 0.15937 0.03595 0.0
H388 H 0.87393 0.16531 0.90633 0.0
H389 H 0.77096 0.18182 0.02671 0.0
H390 H 0.86438 0.16438 0.98805 0.0
H391 H 0.77611 0.17722 0.93875 0.0
C392 C 0.80036 0.17038 0.90346 0.0
C393 C 0.82775 0.16586 0.89393 0.0
C394 C 0.84386 0.16846 0.9963 0.0
C395 C 0.82246 0.17528 0.9499 0.0
C396 C 0.84071 0.16542 0.02372 0.0
C397 C 0.81434 0.16983 0.03518 0.0
C398 C 0.82024 0.17544 0.9798 0.0
C399 C 0.7916 0.17811 0.0185 0.0
C400 C 0.79762 0.17512 0.93153 0.0
C401 C 0.85229 0.16817 0.91283 0.0
N402 N 0.79486 0.18023 0.99139 0.0
N403 N 0.84899 0.17241 0.93983 0.0
H404 H 0.77778 0.83131 0.91596 0.0
H405 H 0.81414 0.78697 0.06444 0.0
H406 H 0.82645 0.76367 0.93183 0.0
H407 H 0.77973 0.86163 0.04514 0.0
H408 H 0.80452 0.76918 0.01621 0.0
H409 H 0.76317 0.83264 0.96259 0.0
C410 C 0.78486 0.81633 0.92918 0.0
C411 C 0.80381 0.79775 0.92032 0.0
C412 C 0.79829 0.7891 0.02273 0.0
C413 C 0.78801 0.79968 0.974 0.0
C414 C 0.8036 0.79912 0.05019 0.0
C415 C 0.79789 0.8258 0.05842 0.0
C416 C 0.78709 0.80596 0.00377 0.0
C417 C 0.78461 0.84101 0.03936 0.0
C418 C 0.77659 0.81711 0.95583 0.0
C419 C 0.81202 0.77849 0.93806 0.0
N420 N 0.77994 0.831 0.01288 0.0
N421 N 0.80469 0.7804 0.96439 0.0
H422 H 0.19868 0.80578 0.09484 0.0
H423 H 0.24181 0.87403 0.95838 0.0
H424 H 0.2062 0.89264 0.08321 0.0
H425 H 0.20634 0.78823 0.95914 0.0
H426 H 0.24454 0.87851 0.00803 0.0
H427 H 0.21545 0.79708 0.04881 0.0
C428 C 0.20435 0.82299 0.08279 0.0
C429 C 0.20064 0.84989 0.09249 0.0
C430 C 0.23663 0.85857 0.99736 0.0
C431 C 0.22014 0.84027 0.04057 0.0
C432 C 0.23518 0.85595 0.96898 0.0
C433 C 0.22315 0.83089 0.95454 0.0
C434 C 0.2258 0.83604 0.01144 0.0
C435 C 0.21538 0.80806 0.96945 0.0
C436 C 0.21384 0.81805 0.05663 0.0
C437 C 0.20828 0.87153 0.07624 0.0
N438 N 0.21627 0.8113 0.99715 0.0
N439 N 0.21753 0.86624 0.05108 0.0
H440 H 0.05485 0.17578 0.2001 0.0
H441 H 0.90625 0.18031 0.10726 0.0
H442 H 0.04384 0.15258 0.11348 0.0
H443 H 0.90907 0.18251 0.19511 0.0
H444 H 0.95924 0.17875 0.1095 0.0
H445 H 0.00367 0.18554 0.19874 0.0
C446 C 0.0417 0.17275 0.1808 0.0
C447 C 0.05358 0.16315 0.15687 0.0
C448 C 0.94833 0.17978 0.12831 0.0
C449 C -0.00475 0.17462 0.15519 0.0
C450 C 0.91805 0.18081 0.12709 0.0
C451 C 0.90307 0.18114 0.15104 0.0
C452 C 0.96386 0.17909 0.15365 0.0
C453 C 0.91967 0.18207 0.17612 0.0
C454 C 0.01253 0.17836 0.18006 0.0
C455 C 0.03555 0.1597 0.13245 0.0
N456 N 0.9492 0.18074 0.17677 0.0
N457 N 0.00731 0.16545 0.13225 0.0
H458 H 0.79855 0.95036 0.19729 0.0
H459 H 0.7765 0.07095 0.10115 0.0
H460 H 0.79166 0.93984 0.10931 0.0
H461 H 0.7844 0.08264 0.1891 0.0
H462 H 0.77335 0.02124 0.10403 0.0
H463 H 0.78549 -0.00293 0.19496 0.0
C464 C 0.79398 0.95772 0.1775 0.0
C465 C 0.79666 0.94128 0.15346 0.0
C466 C 0.77536 0.03464 0.12272 0.0
C467 C 0.78176 0.99471 0.15065 0.0
C468 C 0.77705 0.06308 0.12108 0.0
C469 C 0.78125 0.0811 0.14491 0.0
C470 C 0.77809 0.02411 0.14835 0.0
C471 C 0.78153 0.06959 0.17016 0.0
C472 C 0.78652 0.9844 0.17618 0.0
C473 C 0.79028 0.95187 0.12839 0.0
N474 N 0.78047 0.04187 0.17121 0.0
N475 N 0.78342 0.97797 0.12765 0.0
H476 H 0.92629 0.86115 0.11684 0.0
H477 H 0.06687 0.85159 0.21933 0.0
H478 H 0.92398 0.86357 0.20437 0.0
H479 H 0.0717 0.85719 0.13274 0.0
H480 H 0.01367 0.85225 0.21358 0.0
H481 H 0.97893 0.85675 0.12176 0.0
C482 C 0.93683 0.8608 0.13709 0.0
C483 C 0.92067 0.86283 0.16024 0.0
C484 C 0.02634 0.85322 0.19581 0.0
C485 C 0.98088 0.85762 0.16597 0.0
C486 C 0.05674 0.85274 0.19906 0.0
C487 C 0.07386 0.8545 0.1765 0.0
C488 C 0.01286 0.85546 0.16982 0.0
C489 C 0.05943 0.8559 0.15073 0.0
C490 C 0.96688 0.85825 0.13987 0.0
C491 C 0.93552 0.86218 0.18595 0.0
N492 N 0.02978 0.85647 0.14811 0.0
N493 N 0.96475 0.85962 0.1881 0.0
H494 H 0.19325 0.07252 0.1441 0.0
H495 H 0.178 0.95313 0.24245 0.0
H496 H 0.16276 0.08416 0.22457 0.0
H497 H 0.22319 0.94987 0.16845 0.0
H498 H 0.17956 0.00313 0.24079 0.0
H499 H 0.21063 0.02981 0.15611 0.0
C500 C 0.19036 0.06611 0.1644 0.0
C501 C 0.17609 0.08162 0.18321 0.0
C502 C 0.18982 0.99157 0.22531 0.0
C503 C 0.19574 0.03244 0.19715 0.0
C504 C 0.18914 0.96305 0.22638 0.0
C505 C 0.19991 0.94731 0.20521 0.0
C506 C 0.20123 0.00417 0.20288 0.0
C507 C 0.21407 0.96118 0.18487 0.0
C508 C 0.20047 0.04177 0.17135 0.0
C509 C 0.17343 0.07262 0.2094 0.0
N510 N 0.21381 0.98871 0.18393 0.0
N511 N 0.18267 0.04829 0.21546 0.0
H512 H 0.94856 0.86467 0.86803 0.0
H513 H 0.08769 0.78124 0.85858 0.0
H514 H 0.94173 0.77674 0.8476 0.0
H515 H 0.09531 0.86955 0.87677 0.0
H516 H 0.03407 0.7793 0.85471 0.0
H517 H 0.00235 0.86701 0.87152 0.0
C518 C 0.95834 0.84587 0.86425 0.0
C519 C 0.94057 0.82047 0.85752 0.0
C520 C 0.04746 0.79911 0.85954 0.0
C521 C 0.00209 0.823 0.86151 0.0
C522 C 0.07811 0.80024 0.86176 0.0
C523 C 0.09607 0.8256 0.86802 0.0
C524 C 0.0346 0.82352 0.86362 0.0
C525 C 0.08236 0.84953 0.87191 0.0
C526 C 0.98905 0.84722 0.86625 0.0
C527 C 0.9545 0.79678 0.85284 0.0
N528 N 0.05244 0.8479 0.86966 0.0
N529 N 0.9844 0.79863 0.85495 0.0
H530 H 0.2341 0.94766 0.87398 0.0
H531 H 0.1347 0.01648 0.78042 0.0
H532 H 0.19133 0.90142 0.80134 0.0
H533 H 0.21406 0.06356 0.81964 0.0
H534 H 0.15752 0.97424 0.78389 0.0
H535 H 0.23111 0.99043 0.85205 0.0
C536 C 0.22491 0.94654 0.85306 0.0
C537 C 0.21279 0.92115 0.83943 0.0
C538 C 0.17033 0.99388 0.79095 0.0
C539 C 0.20826 0.96986 0.81464 0.0
C540 C 0.15729 0.01796 0.78902 0.0
C541 C 0.17246 0.0434 0.80003 0.0
C542 C 0.19828 0.99523 0.80487 0.0
C543 C 0.20165 0.04428 0.81096 0.0
C544 C 0.22322 0.97091 0.84053 0.0
C545 C 0.20097 0.92068 0.81244 0.0
N546 N 0.21334 0.02039 0.81389 0.0
N547 N 0.19815 0.9448 0.80116 0.0
H548 H 0.06545 0.1875 0.80592 0.0
H549 H 0.90753 0.11689 0.74029 0.0
H550 H 0.04897 0.10431 0.7676 0.0
H551 H 0.92077 0.18382 0.8037 0.0
H552 H 0.96118 0.11992 0.73815 0.0
H553 H 0.01441 0.19359 0.79305 0.0
C554 C 0.05127 0.17065 0.79441 0.0
C555 C 0.06135 0.14515 0.78828 0.0
C556 C 0.95224 0.13428 0.75211 0.0
C557 C 0.00299 0.15211 0.77345 0.0
C558 C 0.92167 0.13271 0.75322 0.0
C559 C 0.90978 0.14988 0.77249 0.0
C560 C 0.97087 0.15337 0.77015 0.0
C561 C 0.92909 0.16994 0.78882 0.0
C562 C 0.02214 0.17416 0.78712 0.0
C563 C 0.042 0.12416 0.77313 0.0
N564 N 0.95872 0.17096 0.78746 0.0
N565 N 0.01361 0.12801 0.76646 0.0
H566 H 0.83523 0.93067 0.8806 0.0
H567 H 0.79973 0.02866 0.76412 0.0
H568 H 0.81714 0.89992 0.7961 0.0
H569 H 0.81075 0.05401 0.85027 0.0
H570 H 0.8014 0.98067 0.77472 0.0
H571 H 0.82247 0.97524 0.8693 0.0
C572 C 0.82852 0.9333 0.85959 0.0
C573 C 0.82755 0.91162 0.83921 0.0
C574 C 0.80304 0.99674 0.79126 0.0
C575 C 0.8129 0.96296 0.82598 0.0
C576 C 0.80194 0.02409 0.78524 0.0
C577 C 0.8055 0.04541 0.80634 0.0
C578 C 0.80771 0.99083 0.81853 0.0
C579 C 0.80835 0.03833 0.83332 0.0
C580 C 0.8211 0.9588 0.85314 0.0
C581 C 0.81833 0.91618 0.8124 0.0
N582 N 0.80966 0.01176 0.83858 0.0
N583 N 0.81162 0.94149 0.80648 0.0
H584 H 0.6341 0.58437 0.39722 0.0
H585 H 0.67376 0.66261 0.54567 0.0
H586 H 0.67893 0.6677 0.41084 0.0
H587 H 0.63502 0.57741 0.53065 0.0
H588 H 0.67859 0.66445 0.49664 0.0
H589 H 0.63656 0.58102 0.44633 0.0
C590 C 0.64454 0.60196 0.41053 0.0
C591 C 0.65613 0.62642 0.39988 0.0
C592 C 0.66927 0.6453 0.50415 0.0
C593 C 0.65899 0.62275 0.45626 0.0
C594 C 0.66657 0.64423 0.53212 0.0
C595 C 0.65375 0.61989 0.54224 0.0
C596 C 0.65898 0.62189 0.48624 0.0
C597 C 0.64483 0.59668 0.52377 0.0
C598 C 0.646 0.60002 0.43861 0.0
C599 C 0.66959 0.64847 0.41815 0.0
N600 N 0.64742 0.59833 0.49669 0.0
N601 N 0.67048 0.64617 0.44547 0.0
H602 H 0.251 0.63702 0.50742 0.0
H603 H 0.35857 0.70239 0.41512 0.0
H604 H 0.30989 0.70943 0.53942 0.0
H605 H 0.2693 0.67453 0.38236 0.0
H606 H 0.34075 0.70805 0.46067 0.0
H607 H 0.25489 0.65208 0.46144 0.0
C608 C 0.26395 0.65659 0.50477 0.0
C609 C 0.28013 0.67208 0.52705 0.0
C610 C 0.32493 0.70153 0.4434 0.0
C611 C 0.28572 0.68876 0.47466 0.0
C612 C 0.3351 0.69824 0.41745 0.0
C613 C 0.31538 0.68776 0.39509 0.0
C614 C 0.29505 0.69333 0.44705 0.0
C615 C 0.2852 0.68264 0.39914 0.0
C616 C 0.26619 0.66517 0.47859 0.0
C617 C 0.29693 0.69708 0.52267 0.0
N618 N 0.27602 0.68466 0.4248 0.0
N619 N 0.30006 0.70427 0.4968 0.0
H620 H 0.3246 0.27058 0.44753 0.0
H621 H 0.26305 0.33555 0.58141 0.0
H622 H 0.28032 0.34329 0.45251 0.0
H623 H 0.33821 0.29083 0.58101 0.0
H624 H 0.25221 0.32193 0.53256 0.0
H625 H 0.31254 0.26251 0.49425 0.0
C626 C 0.31154 0.28434 0.45813 0.0
C627 C 0.30396 0.30797 0.44647 0.0
C628 C 0.27038 0.3142 0.5434 0.0
C629 C 0.28997 0.29872 0.49948 0.0
C630 C 0.27637 0.32172 0.57125 0.0
C631 C 0.30144 0.31413 0.58497 0.0
C632 C 0.28976 0.29916 0.52943 0.0
C633 C 0.31856 0.29686 0.57096 0.0
C634 C 0.30476 0.27975 0.48475 0.0
C635 C 0.28707 0.32513 0.46103 0.0
N636 N 0.31268 0.29026 0.54375 0.0
N637 N 0.28095 0.32036 0.48694 0.0
H638 H 0.73684 0.38819 0.47841 0.0
H639 H 0.70071 0.31089 0.61178 0.0
H640 H 0.70683 0.30082 0.47539 0.0
H641 H 0.70081 0.39797 0.604 0.0
H642 H 0.71681 0.30569 0.56509 0.0
H643 H 0.73939 0.39033 0.52804 0.0
C644 C 0.7314 0.36931 0.48815 0.0
C645 C 0.72091 0.34442 0.47265 0.0
C646 C 0.71367 0.32594 0.57387 0.0
C647 C 0.72342 0.34685 0.52954 0.0
C648 C 0.70454 0.3289 0.6004 0.0
C649 C 0.699 0.3548 0.61144 0.0
C650 C 0.71781 0.34918 0.55879 0.0
C651 C 0.70434 0.37754 0.59603 0.0
C652 C 0.73272 0.37059 0.51651 0.0
C653 C 0.7146 0.32056 0.48651 0.0
N654 N 0.71334 0.37418 0.57051 0.0
N655 N 0.71541 0.32245 0.51421 0.0
H656 H 0.54876 0.67186 0.66705 0.0
H657 H 0.39431 0.62951 0.57942 0.0
H658 H 0.53712 0.61418 0.59535 0.0
H659 H 0.40508 0.68029 0.65576 0.0
H660 H 0.44737 0.62695 0.58252 0.0
H661 H 0.4968 0.67791 0.66112 0.0
C662 C 0.53528 0.66042 0.65005 0.0
C663 C 0.54732 0.64237 0.63173 0.0
C664 C 0.43812 0.63877 0.5985 0.0
C665 C 0.48771 0.64934 0.62476 0.0
C666 C 0.40784 0.64035 0.5967 0.0
C667 C 0.39517 0.65499 0.61746 0.0
C668 C 0.45585 0.65198 0.62119 0.0
C669 C 0.41382 0.66862 0.63935 0.0
C670 C 0.50558 0.66393 0.64666 0.0
C671 C 0.52875 0.6282 0.61004 0.0
N672 N 0.44318 0.66667 0.64069 0.0
N673 N 0.49984 0.63198 0.60717 0.0
H674 H 0.26196 0.55415 0.59375 0.0
H675 H 0.29681 0.45214 0.70683 0.0
H676 H 0.27736 0.57932 0.67981 0.0
H677 H 0.29312 0.43081 0.62002 0.0
H678 H 0.27951 0.49611 0.69798 0.0
H679 H 0.26177 0.50617 0.60395 0.0
C680 C 0.26461 0.54958 0.61485 0.0
C681 C 0.27032 0.57088 0.63591 0.0
C682 C 0.28222 0.48167 0.68089 0.0
C683 C 0.27061 0.51601 0.64766 0.0
C684 C 0.29214 0.45658 0.68593 0.0
C685 C 0.29689 0.43794 0.66413 0.0
C686 C 0.27695 0.48812 0.65388 0.0
C687 C 0.29021 0.44471 0.63747 0.0
C688 C 0.26471 0.52216 0.62064 0.0
C689 C 0.27338 0.56363 0.66287 0.0
N690 N 0.28083 0.46932 0.63311 0.0
N691 N 0.27398 0.53684 0.66793 0.0
H692 H 0.57318 0.35007 0.65669 0.0
H693 H 0.42641 0.37094 0.73086 0.0
H694 H 0.57009 0.35913 0.74418 0.0
H695 H 0.42793 0.35235 0.64402 0.0
H696 H 0.47908 0.36681 0.73621 0.0
H697 H 0.51983 0.35028 0.65171 0.0
C698 C 0.56127 0.35188 0.67488 0.0
C699 C 0.5762 0.35472 0.7009 0.0
C700 C 0.46786 0.36358 0.71599 0.0
C701 C 0.51508 0.35524 0.69531 0.0
C702 C 0.4378 0.36604 0.71291 0.0
C703 C 0.42271 0.36207 0.68693 0.0
C704 C 0.48299 0.35723 0.69294 0.0
C705 C 0.43862 0.35563 0.66443 0.0
C706 C 0.53079 0.35204 0.67201 0.0
C707 C 0.55955 0.35692 0.72371 0.0
N708 N 0.46789 0.35349 0.66796 0.0
N709 N 0.52992 0.35734 0.72038 0.0
H710 H 0.6965 0.56241 0.64596 0.0
H711 H 0.67479 0.45689 0.75755 0.0
H712 H 0.65268 0.5801 0.71886 0.0
H713 H 0.73037 0.44843 0.69096 0.0
H714 H 0.67437 0.50562 0.74967 0.0
H715 H 0.71582 0.52424 0.66664 0.0
C716 C 0.69104 0.55829 0.66643 0.0
C717 C 0.67251 0.57408 0.68052 0.0
C718 C 0.68742 0.49332 0.73733 0.0
C719 C 0.6944 0.5301 0.7044 0.0
C720 C 0.68793 0.46558 0.74203 0.0
C721 C 0.70219 0.44859 0.72451 0.0
C722 C 0.70117 0.50384 0.71492 0.0
C723 C 0.71869 0.46078 0.70461 0.0
C724 C 0.70227 0.53658 0.67836 0.0
C725 C 0.66667 0.5682 0.70721 0.0
N726 N 0.71722 0.4875 0.69999 0.0
N727 N 0.67712 0.54629 0.71813 0.0
H728 H 0.44692 0.38396 0.40098 0.0
H729 H 0.58371 0.30026 0.37725 0.0
H730 H 0.43858 0.29872 0.36866 0.0
H731 H 0.5938 0.3875 0.40227 0.0
H732 H 0.5303 0.29929 0.3755 0.0
H733 H 0.50071 0.38567 0.40311 0.0
C734 C 0.45636 0.36562 0.39434 0.0
C735 C 0.43819 0.34117 0.38461 0.0
C736 C 0.54416 0.31868 0.38135 0.0
C737 C 0.4996 0.34298 0.38703 0.0
C738 C 0.57471 0.31924 0.38237 0.0
C739 C 0.5933 0.34401 0.3899 0.0
C740 C 0.53201 0.34303 0.38797 0.0
C741 C 0.58031 0.36795 0.39632 0.0
C742 C 0.48706 0.36663 0.39553 0.0
C743 C 0.45165 0.31805 0.37627 0.0
N744 N 0.55044 0.36686 0.39524 0.0
N745 N 0.4815 0.31953 0.3777 0.0
H746 H 0.69065 0.40422 0.31441 0.0
H747 H 0.71942 0.56796 0.31315 0.0
H748 H 0.73308 0.45973 0.38141 0.0
H749 H 0.64097 0.51756 0.27604 0.0
H750 H 0.74039 0.52594 0.3235 0.0
H751 H 0.68868 0.4437 0.28672 0.0
C752 C 0.70055 0.42455 0.32293 0.0
C753 C 0.71173 0.42891 0.35027 0.0
C754 C 0.71903 0.52415 0.31224 0.0
C755 C 0.70983 0.47373 0.31882 0.0
C756 C 0.70714 0.54806 0.30612 0.0
C757 C 0.67826 0.54614 0.29409 0.0
C758 C 0.70206 0.4983 0.30581 0.0
C759 C 0.66318 0.51986 0.28565 0.0
C760 C 0.69927 0.447 0.30719 0.0
C761 C 0.72399 0.45564 0.36047 0.0
N762 N 0.67509 0.4969 0.29202 0.0
N763 N 0.72247 0.47713 0.34481 0.0
H764 H 0.55329 0.61174 0.26219 0.0
H765 H 0.42911 0.69551 0.31388 0.0
H766 H 0.57235 0.69194 0.30684 0.0
H767 H 0.41181 0.62979 0.24932 0.0
H768 H 0.48193 0.69685 0.30869 0.0
H769 H 0.50189 0.61968 0.25413 0.0
C770 C 0.5468 0.63118 0.26995 0.0
C771 C 0.56708 0.65101 0.2856 0.0
C772 C 0.46657 0.68247 0.29531 0.0
C773 C 0.50825 0.66008 0.27671 0.0
C774 C 0.43639 0.68169 0.29829 0.0
C775 C 0.41605 0.66226 0.28227 0.0
C776 C 0.47649 0.66332 0.27655 0.0
C777 C 0.42673 0.645 0.26223 0.0
C778 C 0.51745 0.63573 0.26529 0.0
C779 C 0.55744 0.67592 0.29493 0.0
N780 N 0.45627 0.64555 0.2603 0.0
N781 N 0.52863 0.67954 0.29075 0.0
H782 H 0.31355 0.41423 0.32521 0.0
H783 H 0.32145 0.57547 0.36927 0.0
H784 H 0.33464 0.45172 0.4073 0.0
H785 H 0.30411 0.54131 0.28568 0.0
H786 H 0.32003 0.52907 0.38375 0.0
H787 H 0.30418 0.45929 0.31056 0.0
C788 C 0.31595 0.43186 0.34018 0.0
C789 C 0.32519 0.42929 0.36747 0.0
C790 C 0.31632 0.5316 0.36223 0.0
C791 C 0.3145 0.48071 0.35089 0.0
C792 C 0.31713 0.55816 0.35393 0.0
C793 C 0.31326 0.56231 0.32617 0.0
C794 C 0.31187 0.50886 0.34268 0.0
C795 C 0.30734 0.53903 0.30729 0.0
C796 C 0.31063 0.45755 0.3318 0.0
C797 C 0.32786 0.45276 0.38601 0.0
N798 N 0.30716 0.51325 0.31586 0.0
N799 N 0.32271 0.47745 0.37735 0.0
loop_
_geom_bond_atom_site_label_1
_geom_bond_atom_site_label_2
_geom_bond_distance
_geom_bond_site_symmetry_2
_ccdc_geom_bond_type
O0 Cd1 2.223 . S
O0 C8 1.315 . S
Cd1 O0 2.223 . S
Cd1 O4 2.297 . S
Cd1 O5 2.439 . S
Cd1 O11 2.240 . S
Cd2 O3 2.240 . S
Cd2 O10 2.223 . S
Cd2 O12 2.297 . S
Cd2 O13 2.439 . S
O3 Cd2 2.240 . S
O3 C8 1.279 . S
O4 Cd1 2.297 . S
O4 C6 1.247 . S
O5 Cd1 2.439 . S
O5 C6 1.208 . S
C6 O4 1.247 . S
C6 O5 1.208 . S
C7 O12 1.247 . S
C7 O13 1.208 . S
C8 O0 1.315 . S
C8 O3 1.279 . S
C9 O10 1.315 . S
C9 O11 1.279 . S
O10 Cd2 2.223 . S
O10 C9 1.315 . S
O11 Cd1 2.240 . S
O11 C9 1.279 . S
O12 Cd2 2.297 . S
O12 C7 1.247 . S
O13 Cd2 2.439 . S
O13 C7 1.208 . S
O14 Cd15 2.223 . S
O14 C22 1.315 . S
Cd15 O14 2.223 . S
Cd15 O18 2.297 . S
Cd15 O19 2.439 . S
Cd15 O25 2.240 . S
Cd16 O17 2.240 . S
Cd16 O24 2.223 . S
Cd16 O26 2.297 . S
Cd16 O27 2.439 . S
O17 Cd16 2.240 . S
O17 C22 1.279 . S
O18 Cd15 2.297 . S
O18 C20 1.247 . S
O19 Cd15 2.439 . S
O19 C20 1.208 . S
C20 O18 1.247 . S
C20 O19 1.208 . S
C21 O26 1.247 . S
C21 O27 1.208 . S
C22 O14 1.315 . S
C22 O17 1.279 . S
C23 O24 1.315 . S
C23 O25 1.279 . S
O24 Cd16 2.223 . S
O24 C23 1.315 . S
O25 Cd15 2.240 . S
O25 C23 1.279 . S
O26 Cd16 2.297 . S
O26 C21 1.247 . S
O27 Cd16 2.439 . S
O27 C21 1.208 . S
O28 Cd29 2.223 . S
O28 C36 1.315 . S
Cd29 O28 2.223 . S
Cd29 O32 2.297 . S
Cd29 O33 2.439 . S
Cd29 O39 2.240 . S
Cd30 O31 2.240 . S
Cd30 O38 2.223 . S
Cd30 O40 2.297 . S
Cd30 O41 2.439 . S
O31 Cd30 2.240 . S
O31 C36 1.279 . S
O32 Cd29 2.297 . S
O32 C34 1.247 . S
O33 Cd29 2.439 . S
O33 C34 1.208 . S
C34 O32 1.247 . S
C34 O33 1.208 . S
C35 O40 1.247 . S
C35 O41 1.208 . S
C36 O28 1.315 . S
C36 O31 1.279 . S
C37 O38 1.315 . S
C37 O39 1.279 . S
O38 Cd30 2.223 . S
O38 C37 1.315 . S
O39 Cd29 2.240 . S
O39 C37 1.279 . S
O40 Cd30 2.297 . S
O40 C35 1.247 . S
O41 Cd30 2.439 . S
O41 C35 1.208 . S
O42 Cd43 2.223 . S
O42 C50 1.315 . S
Cd43 O42 2.223 . S
Cd43 O46 2.297 . S
Cd43 O47 2.439 . S
Cd43 O53 2.240 . S
Cd44 O45 2.240 . S
Cd44 O52 2.223 . S
Cd44 O54 2.297 . S
Cd44 O55 2.439 . S
O45 Cd44 2.240 . S
O45 C50 1.279 . S
O46 Cd43 2.297 . S
O46 C48 1.247 . S
O47 Cd43 2.439 . S
O47 C48 1.208 . S
C48 O46 1.247 . S
C48 O47 1.208 . S
C49 O54 1.247 . S
C49 O55 1.208 . S
C50 O42 1.315 . S
C50 O45 1.279 . S
C51 O52 1.315 . S
C51 O53 1.279 . S
O52 Cd44 2.223 . S
O52 C51 1.315 . S
O53 Cd43 2.240 . S
O53 C51 1.279 . S
O54 Cd44 2.297 . S
O54 C49 1.247 . S
O55 Cd44 2.439 . S
O55 C49 1.208 . S
O56 Cd57 2.223 . S
O56 C64 1.315 . S
Cd57 O56 2.223 . S
Cd57 O60 2.297 . S
Cd57 O61 2.439 . S
Cd57 O67 2.240 . S
Cd58 O59 2.240 . S
Cd58 O66 2.223 . S
Cd58 O68 2.297 . S
Cd58 O69 2.439 . S
O59 Cd58 2.240 . S
O59 C64 1.279 . S
O60 Cd57 2.297 . S
O60 C62 1.247 . S
O61 Cd57 2.439 . S
O61 C62 1.208 . S
C62 O60 1.247 . S
C62 O61 1.208 . S
C63 O68 1.247 . S
C63 O69 1.208 . S
C64 O56 1.315 . S
C64 O59 1.279 . S
C65 O66 1.315 . S
C65 O67 1.279 . S
O66 Cd58 2.223 . S
O66 C65 1.315 . S
O67 Cd57 2.240 . S
O67 C65 1.279 . S
O68 Cd58 2.297 . S
O68 C63 1.247 . S
O69 Cd58 2.439 . S
O69 C63 1.208 . S
O70 Cd71 2.223 . S
O70 C78 1.315 . S
Cd71 O70 2.223 . S
Cd71 O74 2.297 . S
Cd71 O75 2.439 . S
Cd71 O81 2.240 . S
Cd72 O73 2.240 . S
Cd72 O80 2.223 . S
Cd72 O82 2.297 . S
Cd72 O83 2.439 . S
O73 Cd72 2.240 . S
O73 C78 1.279 . S
O74 Cd71 2.297 . S
O74 C76 1.247 . S
O75 Cd71 2.439 . S
O75 C76 1.208 . S
C76 O74 1.247 . S
C76 O75 1.208 . S
C77 O82 1.247 . S
C77 O83 1.208 . S
C78 O70 1.315 . S
C78 O73 1.279 . S
C79 O80 1.315 . S
C79 O81 1.279 . S
O80 Cd72 2.223 . S
O80 C79 1.315 . S
O81 Cd71 2.240 . S
O81 C79 1.279 . S
O82 Cd72 2.297 . S
O82 C77 1.247 . S
O83 Cd72 2.439 . S
O83 C77 1.208 . S
O84 Cd85 2.223 . S
O84 C92 1.315 . S
Cd85 O84 2.223 . S
Cd85 O88 2.297 . S
Cd85 O89 2.439 . S
Cd85 O95 2.240 . S
Cd86 O87 2.240 . S
Cd86 O94 2.223 . S
Cd86 O96 2.297 . S
Cd86 O97 2.439 . S
O87 Cd86 2.240 . S
O87 C92 1.279 . S
O88 Cd85 2.297 . S
O88 C90 1.247 . S
O89 Cd85 2.439 . S
O89 C90 1.208 . S
C90 O88 1.247 . S
C90 O89 1.208 . S
C91 O96 1.247 . S
C91 O97 1.208 . S
C92 O84 1.315 . S
C92 O87 1.279 . S
C93 O94 1.315 . S
C93 O95 1.279 . S
O94 Cd86 2.223 . S
O94 C93 1.315 . S
O95 Cd85 2.240 . S
O95 C93 1.279 . S
O96 Cd86 2.297 . S
O96 C91 1.247 . S
O97 Cd86 2.439 . S
O97 C91 1.208 . S
O98 Cd99 2.223 . S
O98 C106 1.315 . S
Cd99 O98 2.223 . S
Cd99 O102 2.297 . S
Cd99 O103 2.439 . S
Cd99 O109 2.240 . S
Cd100 O101 2.240 . S
Cd100 O108 2.223 . S
Cd100 O110 2.297 . S
Cd100 O111 2.439 . S
O101 Cd100 2.240 . S
O101 C106 1.279 . S
O102 Cd99 2.297 . S
O102 C104 1.247 . S
O103 Cd99 2.439 . S
O103 C104 1.208 . S
C104 O102 1.247 . S
C104 O103 1.208 . S
C105 O110 1.247 . S
C105 O111 1.208 . S
C106 O98 1.315 . S
C106 O101 1.279 . S
C107 O108 1.315 . S
C107 O109 1.279 . S
O108 Cd100 2.223 . S
O108 C107 1.315 . S
O109 Cd99 2.240 . S
O109 C107 1.279 . S
O110 Cd100 2.297 . S
O110 C105 1.247 . S
O111 Cd100 2.439 . S
O111 C105 1.208 . S
O112 Cd113 2.223 . S
O112 C120 1.315 . S
Cd113 O112 2.223 . S
Cd113 O116 2.297 . S
Cd113 O117 2.439 . S
Cd113 O123 2.240 . S
Cd114 O115 2.240 . S
Cd114 O122 2.223 . S
Cd114 O124 2.297 . S
Cd114 O125 2.439 . S
O115 Cd114 2.240 . S
O115 C120 1.279 . S
O116 Cd113 2.297 . S
O116 C118 1.247 . S
O117 Cd113 2.439 . S
O117 C118 1.208 . S
C118 O116 1.247 . S
C118 O117 1.208 . S
C119 O124 1.247 . S
C119 O125 1.208 . S
C120 O112 1.315 . S
C120 O115 1.279 . S
C121 O122 1.315 . S
C121 O123 1.279 . S
O122 Cd114 2.223 . S
O122 C121 1.315 . S
O123 Cd113 2.240 . S
O123 C121 1.279 . S
O124 Cd114 2.297 . S
O124 C119 1.247 . S
O125 Cd114 2.439 . S
O125 C119 1.208 . S
O126 Cd127 2.223 . S
O126 C134 1.315 . S
Cd127 O126 2.223 . S
Cd127 O130 2.297 . S
Cd127 O131 2.439 . S
Cd127 O137 2.240 . S
Cd128 O129 2.240 . S
Cd128 O136 2.223 . S
Cd128 O138 2.297 . S
Cd128 O139 2.439 . S
O129 Cd128 2.240 . S
O129 C134 1.279 . S
O130 Cd127 2.297 . S
O130 C132 1.247 . S
O131 Cd127 2.439 . S
O131 C132 1.208 . S
C132 O130 1.247 . S
C132 O131 1.208 . S
C133 O138 1.247 . S
C133 O139 1.208 . S
C134 O126 1.315 . S
C134 O129 1.279 . S
C135 O136 1.315 . S
C135 O137 1.279 . S
O136 Cd128 2.223 . S
O136 C135 1.315 . S
O137 Cd127 2.240 . S
O137 C135 1.279 . S
O138 Cd128 2.297 . S
O138 C133 1.247 . S
O139 Cd128 2.439 . S
O139 C133 1.208 . S
O140 Cd141 2.223 . S
O140 C148 1.315 . S
Cd141 O140 2.223 . S
Cd141 O144 2.297 . S
Cd141 O145 2.439 . S
Cd141 O151 2.240 . S
Cd142 O143 2.240 . S
Cd142 O150 2.223 . S
Cd142 O152 2.297 . S
Cd142 O153 2.439 . S
O143 Cd142 2.240 . S
O143 C148 1.279 . S
O144 Cd141 2.297 . S
O144 C146 1.247 . S
O145 Cd141 2.439 . S
O145 C146 1.208 . S
C146 O144 1.247 . S
C146 O145 1.208 . S
C147 O152 1.247 . S
C147 O153 1.208 . S
C148 O140 1.315 . S
C148 O143 1.279 . S
C149 O150 1.315 . S
C149 O151 1.279 . S
O150 Cd142 2.223 . S
O150 C149 1.315 . S
O151 Cd141 2.240 . S
O151 C149 1.279 . S
O152 Cd142 2.297 . S
O152 C147 1.247 . S
O153 Cd142 2.439 . S
O153 C147 1.208 . S
O154 Cd155 2.223 . S
O154 C162 1.315 . S
Cd155 O154 2.223 . S
Cd155 O158 2.297 . S
Cd155 O159 2.439 . S
Cd155 O165 2.240 . S
Cd156 O157 2.240 . S
Cd156 O164 2.223 . S
Cd156 O166 2.297 . S
Cd156 O167 2.439 . S
O157 Cd156 2.240 . S
O157 C162 1.279 . S
O158 Cd155 2.297 . S
O158 C160 1.247 . S
O159 Cd155 2.439 . S
O159 C160 1.208 . S
C160 O158 1.247 . S
C160 O159 1.208 . S
C161 O166 1.247 . S
C161 O167 1.208 . S
C162 O154 1.315 . S
C162 O157 1.279 . S
C163 O164 1.315 . S
C163 O165 1.279 . S
O164 Cd156 2.223 . S
O164 C163 1.315 . S
O165 Cd155 2.240 . S
O165 C163 1.279 . S
O166 Cd156 2.297 . S
O166 C161 1.247 . S
O167 Cd156 2.439 . S
O167 C161 1.208 . S
O168 Cd169 2.223 . S
O168 C176 1.315 . S
Cd169 O168 2.223 . S
Cd169 O172 2.297 . S
Cd169 O173 2.439 . S
Cd169 O179 2.240 . S
Cd170 O171 2.240 . S
Cd170 O178 2.223 . S
Cd170 O180 2.297 . S
Cd170 O181 2.439 . S
O171 Cd170 2.240 . S
O171 C176 1.279 . S
O172 Cd169 2.297 . S
O172 C174 1.247 . S
O173 Cd169 2.439 . S
O173 C174 1.208 . S
C174 O172 1.247 . S
C174 O173 1.208 . S
C175 O180 1.247 . S
C175 O181 1.208 . S
C176 O168 1.315 . S
C176 O171 1.279 . S
C177 O178 1.315 . S
C177 O179 1.279 . S
O178 Cd170 2.223 . S
O178 C177 1.315 . S
O179 Cd169 2.240 . S
O179 C177 1.279 . S
O180 Cd170 2.297 . S
O180 C175 1.247 . S
O181 Cd170 2.439 . S
O181 C175 1.208 . S
O182 Cd183 2.223 . S
O182 C190 1.315 . S
Cd183 O182 2.223 . S
Cd183 O186 2.297 . S
Cd183 O187 2.439 . S
Cd183 O193 2.240 . S
Cd184 O185 2.240 . S
Cd184 O192 2.223 . S
Cd184 O194 2.297 . S
Cd184 O195 2.439 . S
O185 Cd184 2.240 . S
O185 C190 1.279 . S
O186 Cd183 2.297 . S
O186 C188 1.247 . S
O187 Cd183 2.439 . S
O187 C188 1.208 . S
C188 O186 1.247 . S
C188 O187 1.208 . S
C189 O194 1.247 . S
C189 O195 1.208 . S
C190 O182 1.315 . S
C190 O185 1.279 . S
C191 O192 1.315 . S
C191 O193 1.279 . S
O192 Cd184 2.223 . S
O192 C191 1.315 . S
O193 Cd183 2.240 . S
O193 C191 1.279 . S
O194 Cd184 2.297 . S
O194 C189 1.247 . S
O195 Cd184 2.439 . S
O195 C189 1.208 . S
O196 Cd197 2.223 . S
O196 C204 1.315 . S
Cd197 O196 2.223 . S
Cd197 O200 2.297 . S
Cd197 O201 2.439 . S
Cd197 O207 2.240 . S
Cd198 O199 2.240 . S
Cd198 O206 2.223 . S
Cd198 O208 2.297 . S
Cd198 O209 2.439 . S
O199 Cd198 2.240 . S
O199 C204 1.279 . S
O200 Cd197 2.297 . S
O200 C202 1.247 . S
O201 Cd197 2.439 . S
O201 C202 1.208 . S
C202 O200 1.247 . S
C202 O201 1.208 . S
C203 O208 1.247 . S
C203 O209 1.208 . S
C204 O196 1.315 . S
C204 O199 1.279 . S
C205 O206 1.315 . S
C205 O207 1.279 . S
O206 Cd198 2.223 . S
O206 C205 1.315 . S
O207 Cd197 2.240 . S
O207 C205 1.279 . S
O208 Cd198 2.297 . S
O208 C203 1.247 . S
O209 Cd198 2.439 . S
O209 C203 1.208 . S
O210 Cd211 2.223 . S
O210 C218 1.315 . S
Cd211 O210 2.223 . S
Cd211 O214 2.297 . S
Cd211 O215 2.439 . S
Cd211 O221 2.240 . S
Cd212 O213 2.240 . S
Cd212 O220 2.223 . S
Cd212 O222 2.297 . S
Cd212 O223 2.439 . S
O213 Cd212 2.240 . S
O213 C218 1.279 . S
O214 Cd211 2.297 . S
O214 C216 1.247 . S
O215 Cd211 2.439 . S
O215 C216 1.208 . S
C216 O214 1.247 . S
C216 O215 1.208 . S
C217 O222 1.247 . S
C217 O223 1.208 . S
C218 O210 1.315 . S
C218 O213 1.279 . S
C219 O220 1.315 . S
C219 O221 1.279 . S
O220 Cd212 2.223 . S
O220 C219 1.315 . S
O221 Cd211 2.240 . S
O221 C219 1.279 . S
O222 Cd212 2.297 . S
O222 C217 1.247 . S
O223 Cd212 2.439 . S
O223 C217 1.208 . S
H224 C230 0.930 . S
H225 C234 0.930 . S
H226 C239 0.929 . S
H227 C237 0.929 . S
H228 C232 0.929 . S
H229 C238 0.929 . S
C230 H224 0.930 . S
C230 C231 1.367 . S
C230 C238 1.378 . S
C231 C230 1.367 . S
C231 C239 1.433 . S
C232 H228 0.929 . S
C232 C234 1.378 . S
C232 C236 1.350 . S
C233 C236 1.463 . S
C233 C238 1.350 . S
C233 N241 1.427 . S
C234 H225 0.930 . S
C234 C232 1.378 . S
C234 C235 1.367 . S
C235 C234 1.367 . S
C235 C237 1.433 . S
C236 C232 1.350 . S
C236 C233 1.463 . S
C236 N240 1.427 . S
C237 H227 0.929 . S
C237 C235 1.433 . S
C237 N240 1.384 . S
C238 H229 0.929 . S
C238 C230 1.378 . S
C238 C233 1.350 . S
C239 H226 0.929 . S
C239 C231 1.433 . S
C239 N241 1.384 . S
N240 C236 1.427 . S
N240 C237 1.384 . S
N241 C233 1.427 . S
N241 C239 1.384 . S
H242 C248 0.930 . S
H243 C252 0.930 . S
H244 C257 0.929 . S
H245 C255 0.929 . S
H246 C250 0.929 . S
H247 C256 0.929 . S
C248 H242 0.930 . S
C248 C249 1.367 . S
C248 C256 1.378 . S
C249 C248 1.367 . S
C249 C257 1.433 . S
C250 H246 0.929 . S
C250 C252 1.378 . S
C250 C254 1.350 . S
C251 C254 1.463 . S
C251 C256 1.350 . S
C251 N259 1.427 . S
C252 H243 0.930 . S
C252 C250 1.378 . S
C252 C253 1.367 . S
C253 C252 1.367 . S
C253 C255 1.433 . S
C254 C250 1.350 . S
C254 C251 1.463 . S
C254 N258 1.427 . S
C255 H245 0.929 . S
C255 C253 1.433 . S
C255 N258 1.384 . S
C256 H247 0.929 . S
C256 C248 1.378 . S
C256 C251 1.350 . S
C257 H244 0.929 . S
C257 C249 1.433 . S
C257 N259 1.384 . S
N258 C254 1.427 . S
N258 C255 1.384 . S
N259 C251 1.427 . S
N259 C257 1.384 . S
H260 C266 0.930 . S
H261 C270 0.930 . S
H262 C275 0.929 . S
H263 C273 0.929 . S
H264 C268 0.929 . S
H265 C274 0.929 . S
C266 H260 0.930 . S
C266 C267 1.367 . S
C266 C274 1.378 . S
C267 C266 1.367 . S
C267 C275 1.433 . S
C268 H264 0.929 . S
C268 C270 1.378 . S
C268 C272 1.350 . S
C269 C272 1.463 . S
C269 C274 1.350 . S
C269 N277 1.427 . S
C270 H261 0.930 . S
C270 C268 1.378 . S
C270 C271 1.367 . S
C271 C270 1.367 . S
C271 C273 1.433 . S
C272 C268 1.350 . S
C272 C269 1.463 . S
C272 N276 1.427 . S
C273 H263 0.929 . S
C273 C271 1.433 . S
C273 N276 1.384 . S
C274 H265 0.929 . S
C274 C266 1.378 . S
C274 C269 1.350 . S
C275 H262 0.929 . S
C275 C267 1.433 . S
C275 N277 1.384 . S
N276 C272 1.427 . S
N276 C273 1.384 . S
N277 C269 1.427 . S
N277 C275 1.384 . S
H278 C284 0.930 . S
H279 C288 0.930 . S
H280 C293 0.929 . S
H281 C291 0.929 . S
H282 C286 0.929 . S
H283 C292 0.929 . S
C284 H278 0.930 . S
C284 C285 1.367 . S
C284 C292 1.378 . S
C285 C284 1.367 . S
C285 C293 1.433 . S
C286 H282 0.929 . S
C286 C288 1.378 . S
C286 C290 1.350 . S
C287 C290 1.463 . S
C287 C292 1.350 . S
C287 N295 1.427 . S
C288 H279 0.930 . S
C288 C286 1.378 . S
C288 C289 1.367 . S
C289 C288 1.367 . S
C289 C291 1.433 . S
C290 C286 1.350 . S
C290 C287 1.463 . S
C290 N294 1.427 . S
C291 H281 0.929 . S
C291 C289 1.433 . S
C291 N294 1.384 . S
C292 H283 0.929 . S
C292 C284 1.378 . S
C292 C287 1.350 . S
C293 H280 0.929 . S
C293 C285 1.433 . S
C293 N295 1.384 . S
N294 C290 1.427 . S
N294 C291 1.384 . S
N295 C287 1.427 . S
N295 C293 1.384 . S
H296 C302 0.930 . S
H297 C306 0.930 . S
H298 C311 0.929 . S
H299 C309 0.929 . S
H300 C304 0.929 . S
H301 C310 0.929 . S
C302 H296 0.930 . S
C302 C303 1.367 . S
C302 C310 1.378 . S
C303 C302 1.367 . S
C303 C311 1.433 . S
C304 H300 0.929 . S
C304 C306 1.378 . S
C304 C308 1.350 . S
C305 C308 1.463 . S
C305 C310 1.350 . S
C305 N313 1.427 . S
C306 H297 0.930 . S
C306 C304 1.378 . S
C306 C307 1.367 . S
C307 C306 1.367 . S
C307 C309 1.433 . S
C308 C304 1.350 . S
C308 C305 1.463 . S
C308 N312 1.427 . S
C309 H299 0.929 . S
C309 C307 1.433 . S
C309 N312 1.384 . S
C310 H301 0.929 . S
C310 C302 1.378 . S
C310 C305 1.350 . S
C311 H298 0.929 . S
C311 C303 1.433 . S
C311 N313 1.384 . S
N312 C308 1.427 . S
N312 C309 1.384 . S
N313 C305 1.427 . S
N313 C311 1.384 . S
H314 C320 0.930 . S
H315 C324 0.930 . S
H316 C329 0.929 . S
H317 C327 0.929 . S
H318 C322 0.929 . S
H319 C328 0.929 . S
C320 H314 0.930 . S
C320 C321 1.367 . S
C320 C328 1.378 . S
C321 C320 1.367 . S
C321 C329 1.433 . S
C322 H318 0.929 . S
C322 C324 1.378 . S
C322 C326 1.350 . S
C323 C326 1.463 . S
C323 C328 1.350 . S
C323 N331 1.427 . S
C324 H315 0.930 . S
C324 C322 1.378 . S
C324 C325 1.367 . S
C325 C324 1.367 . S
C325 C327 1.433 . S
C326 C322 1.350 . S
C326 C323 1.463 . S
C326 N330 1.427 . S
C327 H317 0.929 . S
C327 C325 1.433 . S
C327 N330 1.384 . S
C328 H319 0.929 . S
C328 C320 1.378 . S
C328 C323 1.350 . S
C329 H316 0.929 . S
C329 C321 1.433 . S
C329 N331 1.384 . S
N330 C326 1.427 . S
N330 C327 1.384 . S
N331 C323 1.427 . S
N331 C329 1.384 . S
H332 C338 0.930 . S
H333 C342 0.930 . S
H334 C347 0.929 . S
H335 C345 0.929 . S
H336 C340 0.929 . S
H337 C346 0.929 . S
C338 H332 0.930 . S
C338 C339 1.367 . S
C338 C346 1.378 . S
C339 C338 1.367 . S
C339 C347 1.433 . S
C340 H336 0.929 . S
C340 C342 1.378 . S
C340 C344 1.350 . S
C341 C344 1.463 . S
C341 C346 1.350 . S
C341 N349 1.427 . S
C342 H333 0.930 . S
C342 C340 1.378 . S
C342 C343 1.367 . S
C343 C342 1.367 . S
C343 C345 1.433 . S
C344 C340 1.350 . S
C344 C341 1.463 . S
C344 N348 1.427 . S
C345 H335 0.929 . S
C345 C343 1.433 . S
C345 N348 1.384 . S
C346 H337 0.929 . S
C346 C338 1.378 . S
C346 C341 1.350 . S
C347 H334 0.929 . S
C347 C339 1.433 . S
C347 N349 1.384 . S
N348 C344 1.427 . S
N348 C345 1.384 . S
N349 C341 1.427 . S
N349 C347 1.384 . S
H350 C356 0.930 . S
H351 C360 0.930 . S
H352 C365 0.929 . S
H353 C363 0.929 . S
H354 C358 0.929 . S
H355 C364 0.929 . S
C356 H350 0.930 . S
C356 C357 1.367 . S
C356 C364 1.378 . S
C357 C356 1.367 . S
C357 C365 1.433 . S
C358 H354 0.929 . S
C358 C360 1.378 . S
C358 C362 1.350 . S
C359 C362 1.463 . S
C359 C364 1.350 . S
C359 N367 1.427 . S
C360 H351 0.930 . S
C360 C358 1.378 . S
C360 C361 1.367 . S
C361 C360 1.367 . S
C361 C363 1.433 . S
C362 C358 1.350 . S
C362 C359 1.463 . S
C362 N366 1.427 . S
C363 H353 0.929 . S
C363 C361 1.433 . S
C363 N366 1.384 . S
C364 H355 0.929 . S
C364 C356 1.378 . S
C364 C359 1.350 . S
C365 H352 0.929 . S
C365 C357 1.433 . S
C365 N367 1.384 . S
N366 C362 1.427 . S
N366 C363 1.384 . S
N367 C359 1.427 . S
N367 C365 1.384 . S
H368 C374 0.930 . S
H369 C378 0.930 . S
H370 C383 0.929 . S
H371 C381 0.929 . S
H372 C376 0.929 . S
H373 C382 0.929 . S
C374 H368 0.930 . S
C374 C375 1.367 . S
C374 C382 1.378 . S
C375 C374 1.367 . S
C375 C383 1.433 . S
C376 H372 0.929 . S
C376 C378 1.378 1_556 S
C376 C380 1.350 . S
C377 C380 1.463 . S
C377 C382 1.350 . S
C377 N385 1.427 . S
C378 H369 0.930 . S
C378 C376 1.378 1_554 S
C378 C379 1.367 . S
C379 C378 1.367 . S
C379 C381 1.433 . S
C380 C376 1.350 . S
C380 C377 1.463 . S
C380 N384 1.427 . S
C381 H371 0.929 . S
C381 C379 1.433 . S
C381 N384 1.384 1_554 S
C382 H373 0.929 . S
C382 C374 1.378 . S
C382 C377 1.350 . S
C383 H370 0.929 . S
C383 C375 1.433 . S
C383 N385 1.384 . S
N384 C380 1.427 . S
N384 C381 1.384 1_556 S
N385 C377 1.427 . S
N385 C383 1.384 . S
H386 C392 0.930 . S
H387 C396 0.930 . S
H388 C401 0.929 . S
H389 C399 0.929 . S
H390 C394 0.929 . S
H391 C400 0.929 . S
C392 H386 0.930 . S
C392 C393 1.367 . S
C392 C400 1.378 1_556 S
C393 C392 1.367 . S
C393 C401 1.433 . S
C394 H390 0.929 . S
C394 C396 1.378 . S
C394 C398 1.350 . S
C395 C398 1.463 . S
C395 C400 1.350 . S
C395 N403 1.427 1_554 S
C396 H387 0.930 . S
C396 C394 1.378 . S
C396 C397 1.367 . S
C397 C396 1.367 . S
C397 C399 1.433 . S
C398 C394 1.350 . S
C398 C395 1.463 . S
C398 N402 1.427 . S
C399 H389 0.929 . S
C399 C397 1.433 . S
C399 N402 1.384 . S
C400 H391 0.929 . S
C400 C392 1.378 1_554 S
C400 C395 1.350 . S
C401 H388 0.929 . S
C401 C393 1.433 . S
C401 N403 1.384 . S
N402 C398 1.427 . S
N402 C399 1.384 . S
N403 C395 1.427 1_556 S
N403 C401 1.384 . S
H404 C410 0.930 . S
H405 C414 0.930 . S
H406 C419 0.929 . S
H407 C417 0.929 . S
H408 C412 0.929 . S
H409 C418 0.929 . S
C410 H404 0.930 . S
C410 C411 1.367 . S
C410 C418 1.378 . S
C411 C410 1.367 . S
C411 C419 1.433 . S
C412 H408 0.929 . S
C412 C414 1.378 . S
C412 C416 1.350 . S
C413 C416 1.463 1_556 S
C413 C418 1.350 . S
C413 N421 1.427 . S
C414 H405 0.930 . S
C414 C412 1.378 . S
C414 C415 1.367 . S
C415 C414 1.367 . S
C415 C417 1.433 . S
C416 C412 1.350 . S
C416 C413 1.463 1_554 S
C416 N420 1.427 . S
C417 H407 0.929 . S
C417 C415 1.433 . S
C417 N420 1.384 . S
C418 H409 0.929 . S
C418 C410 1.378 . S
C418 C413 1.350 . S
C419 H406 0.929 . S
C419 C411 1.433 . S
C419 N421 1.384 . S
N420 C416 1.427 . S
N420 C417 1.384 . S
N421 C413 1.427 . S
N421 C419 1.384 . S
H422 C428 0.930 . S
H423 C432 0.930 . S
H424 C437 0.929 . S
H425 C435 0.929 . S
H426 C430 0.929 . S
H427 C436 0.929 . S
C428 H422 0.930 . S
C428 C429 1.367 . S
C428 C436 1.378 . S
C429 C428 1.367 . S
C429 C437 1.433 . S
C430 H426 0.929 . S
C430 C432 1.378 . S
C430 C434 1.350 . S
C431 C434 1.463 1_554 S
C431 C436 1.350 . S
C431 N439 1.427 . S
C432 H423 0.930 . S
C432 C430 1.378 . S
C432 C433 1.367 . S
C433 C432 1.367 . S
C433 C435 1.433 . S
C434 C430 1.350 . S
C434 C431 1.463 1_556 S
C434 N438 1.427 . S
C435 H425 0.929 . S
C435 C433 1.433 . S
C435 N438 1.384 . S
C436 H427 0.929 . S
C436 C428 1.378 . S
C436 C431 1.350 . S
C437 H424 0.929 . S
C437 C429 1.433 . S
C437 N439 1.384 . S
N438 C434 1.427 . S
N438 C435 1.384 . S
N439 C431 1.427 . S
N439 C437 1.384 . S
H440 C446 0.930 . S
H441 C450 0.930 . S
H442 C455 0.929 . S
H443 C453 0.929 . S
H444 C448 0.936 . S
H445 C454 0.929 . S
C446 H440 0.930 . S
C446 C447 1.367 . S
C446 C454 1.378 . S
C447 C446 1.367 . S
C447 C455 1.433 . S
C448 H444 0.936 . S
C448 C450 1.378 . S
C448 C452 1.350 1_655 S
C449 C452 1.463 . S
C449 C454 1.350 . S
C449 N457 1.427 . S
C450 H441 0.930 . S
C450 C448 1.378 . S
C450 C451 1.367 . S
C451 C450 1.367 . S
C451 C453 1.433 . S
C452 C448 1.350 1_455 S
C452 C449 1.463 . S
C452 N456 1.427 . S
C453 H443 0.929 . S
C453 C451 1.433 . S
C453 N456 1.384 1_655 S
C454 H445 0.929 . S
C454 C446 1.378 . S
C454 C449 1.350 . S
C455 H442 0.929 . S
C455 C447 1.433 . S
C455 N457 1.384 . S
N456 C452 1.427 . S
N456 C453 1.384 1_455 S
N457 C449 1.427 . S
N457 C455 1.384 . S
H458 C464 0.930 . S
H459 C468 0.930 . S
H460 C473 0.929 . S
H461 C471 0.929 . S
H462 C466 0.929 . S
H463 C472 0.929 . S
C464 H458 0.930 . S
C464 C465 1.367 . S
C464 C472 1.378 . S
C465 C464 1.367 . S
C465 C473 1.433 . S
C466 H462 0.929 . S
C466 C468 1.378 . S
C466 C470 1.350 . S
C467 C470 1.463 . S
C467 C472 1.350 1_545 S
C467 N475 1.427 1_545 S
C468 H459 0.930 . S
C468 C466 1.378 . S
C468 C469 1.367 . S
C469 C468 1.367 . S
C469 C471 1.433 . S
C470 C466 1.350 . S
C470 C467 1.463 . S
C470 N474 1.427 . S
C471 H461 0.929 . S
C471 C469 1.433 . S
C471 N474 1.384 . S
C472 H463 0.929 . S
C472 C464 1.378 . S
C472 C467 1.350 1_565 S
C473 H460 0.929 . S
C473 C465 1.433 . S
C473 N475 1.384 . S
N474 C470 1.427 . S
N474 C471 1.384 . S
N475 C467 1.427 1_565 S
N475 C473 1.384 . S
H476 C482 0.930 . S
H477 C486 0.930 . S
H478 C491 0.929 . S
H479 C489 0.929 . S
H480 C484 0.929 . S
H481 C490 0.929 . S
C482 H476 0.930 . S
C482 C483 1.367 . S
C482 C490 1.378 . S
C483 C482 1.367 . S
C483 C491 1.433 . S
C484 H480 0.929 . S
C484 C486 1.378 . S
C484 C488 1.349 1_455 S
C485 C488 1.464 . S
C485 C490 1.350 . S
C485 N493 1.427 . S
C486 H477 0.930 . S
C486 C484 1.378 . S
C486 C487 1.367 . S
C487 C486 1.367 . S
C487 C489 1.433 . S
C488 C484 1.349 1_655 S
C488 C485 1.464 . S
C488 N492 1.427 1_655 S
C489 H479 0.929 . S
C489 C487 1.433 . S
C489 N492 1.384 . S
C490 H481 0.929 . S
C490 C482 1.378 . S
C490 C485 1.350 . S
C491 H478 0.929 . S
C491 C483 1.433 . S
C491 N493 1.384 . S
N492 C488 1.427 1_455 S
N492 C489 1.384 . S
N493 C485 1.427 . S
N493 C491 1.384 . S
H494 C500 0.930 . S
H495 C504 0.930 . S
H496 C509 0.929 . S
H497 C507 0.929 . S
H498 C502 0.929 . S
H499 C508 0.929 1_565 S
C500 H494 0.930 . S
C500 C501 1.367 . S
C500 C508 1.378 . S
C501 C500 1.367 . S
C501 C509 1.433 . S
C502 H498 0.929 . S
C502 C504 1.378 . S
C502 C506 1.350 . S
C503 C506 1.463 . S
C503 C508 1.350 1_565 S
C503 N511 1.427 1_565 S
C504 H495 0.930 . S
C504 C502 1.378 . S
C504 C505 1.367 . S
C505 C504 1.367 . S
C505 C507 1.433 . S
C506 C502 1.350 . S
C506 C503 1.463 . S
C506 N510 1.427 . S
C507 H497 0.929 . S
C507 C505 1.433 . S
C507 N510 1.384 . S
C508 H499 0.929 1_545 S
C508 C500 1.378 . S
C508 C503 1.350 1_545 S
C509 H496 0.929 . S
C509 C501 1.433 . S
C509 N511 1.384 . S
N510 C506 1.427 . S
N510 C507 1.384 . S
N511 C503 1.427 1_545 S
N511 C509 1.384 . S
H512 C518 0.930 . S
H513 C522 0.930 . S
H514 C527 0.929 . S
H515 C525 0.929 . S
H516 C520 0.929 . S
H517 C526 0.929 . S
C518 H512 0.930 . S
C518 C519 1.367 . S
C518 C526 1.378 . S
C519 C518 1.367 . S
C519 C527 1.433 . S
C520 H516 0.929 . S
C520 C522 1.378 1_655 S
C520 C524 1.350 . S
C521 C524 1.463 . S
C521 C526 1.350 . S
C521 N529 1.427 . S
C522 H513 0.930 . S
C522 C520 1.378 1_455 S
C522 C523 1.367 . S
C523 C522 1.367 . S
C523 C525 1.433 . S
C524 C520 1.350 . S
C524 C521 1.463 . S
C524 N528 1.433 . S
C525 H515 0.929 . S
C525 C523 1.433 . S
C525 N528 1.375 1_455 S
C526 H517 0.929 . S
C526 C518 1.378 . S
C526 C521 1.350 . S
C527 H514 0.929 . S
C527 C519 1.433 . S
C527 N529 1.384 . S
N528 C524 1.433 . S
N528 C525 1.375 1_655 S
N529 C521 1.427 . S
N529 C527 1.384 . S
H530 C536 0.930 . S
H531 C540 0.930 . S
H532 C545 0.929 . S
H533 C543 0.929 . S
H534 C538 0.929 . S
H535 C544 0.929 . S
C536 H530 0.930 . S
C536 C537 1.367 . S
C536 C544 1.378 . S
C537 C536 1.367 . S
C537 C545 1.433 . S
C538 H534 0.929 . S
C538 C540 1.378 1_565 S
C538 C542 1.350 . S
C539 C542 1.463 . S
C539 C544 1.350 . S
C539 N547 1.427 . S
C540 H531 0.930 . S
C540 C538 1.378 1_545 S
C540 C541 1.367 . S
C541 C540 1.367 . S
C541 C543 1.433 . S
C542 C538 1.350 . S
C542 C539 1.463 . S
C542 N546 1.427 . S
C543 H533 0.929 . S
C543 C541 1.433 . S
C543 N546 1.384 1_545 S
C544 H535 0.929 . S
C544 C536 1.378 . S
C544 C539 1.350 . S
C545 H532 0.929 . S
C545 C537 1.433 . S
C545 N547 1.384 . S
N546 C542 1.427 . S
N546 C543 1.384 1_565 S
N547 C539 1.427 . S
N547 C545 1.384 . S
H548 C554 0.930 . S
H549 C558 0.930 . S
H550 C563 0.929 . S
H551 C561 0.929 . S
H552 C556 0.929 . S
H553 C562 0.929 . S
C554 H548 0.930 . S
C554 C555 1.367 . S
C554 C562 1.378 . S
C555 C554 1.367 . S
C555 C563 1.433 . S
C556 H552 0.929 . S
C556 C558 1.378 . S
C556 C560 1.350 1_655 S
C557 C560 1.463 . S
C557 C562 1.350 . S
C557 N565 1.427 . S
C558 H549 0.930 . S
C558 C556 1.378 . S
C558 C559 1.367 . S
C559 C558 1.367 . S
C559 C561 1.433 . S
C560 C556 1.350 1_455 S
C560 C557 1.463 . S
C560 N564 1.421 1_455 S
C561 H551 0.929 . S
C561 C559 1.433 . S
C561 N564 1.410 . S
C562 H553 0.929 . S
C562 C554 1.378 . S
C562 C557 1.350 . S
C563 H550 0.929 . S
C563 C555 1.433 . S
C563 N565 1.384 . S
N564 C560 1.421 1_655 S
N564 C561 1.410 . S
N565 C557 1.427 . S
N565 C563 1.384 . S
H566 C572 0.954 . S
H567 C576 0.930 . S
H568 C581 0.942 . S
H569 C579 0.929 . S
H570 C574 0.929 . S
H571 C580 0.929 . S
C572 H566 0.954 . S
C572 C573 1.382 . S
C572 C580 1.339 1_565 S
C573 C572 1.382 . S
C573 C581 1.451 . S
C574 H570 0.929 . S
C574 C576 1.378 . S
C574 C578 1.350 . S
C575 C578 1.463 . S
C575 C580 1.350 . S
C575 N583 1.427 . S
C576 H567 0.930 . S
C576 C574 1.378 . S
C576 C577 1.367 . S
C577 C576 1.367 . S
C577 C579 1.433 . S
C578 C574 1.350 . S
C578 C575 1.463 . S
C578 N582 1.427 . S
C579 H569 0.929 . S
C579 C577 1.433 . S
C579 N582 1.384 . S
C580 H571 0.929 . S
C580 C572 1.339 1_545 S
C580 C575 1.350 . S
C581 H568 0.942 . S
C581 C573 1.451 . S
C581 N583 1.353 1_565 S
N582 C578 1.427 . S
N582 C579 1.384 . S
N583 C575 1.427 . S
N583 C581 1.353 1_545 S
H584 C590 0.930 . S
H585 C594 0.930 . S
H586 C599 0.929 . S
H587 C597 0.929 . S
H588 C592 0.929 . S
H589 C598 0.929 . S
C590 H584 0.930 . S
C590 C591 1.367 . S
C590 C598 1.378 . S
C591 C590 1.367 . S
C591 C599 1.433 . S
C592 H588 0.929 . S
C592 C594 1.378 . S
C592 C596 1.350 . S
C593 C596 1.463 . S
C593 C598 1.350 . S
C593 N601 1.427 . S
C594 H585 0.930 . S
C594 C592 1.378 . S
C594 C595 1.367 . S
C595 C594 1.367 . S
C595 C597 1.433 . S
C596 C592 1.350 . S
C596 C593 1.463 . S
C596 N600 1.427 . S
C597 H587 0.929 . S
C597 C595 1.433 . S
C597 N600 1.384 . S
C598 H589 0.929 . S
C598 C590 1.378 . S
C598 C593 1.350 . S
C599 H586 0.929 . S
C599 C591 1.433 . S
C599 N601 1.384 . S
N600 C596 1.427 . S
N600 C597 1.384 . S
N601 C593 1.427 . S
N601 C599 1.384 . S
H602 C608 0.930 . S
H603 C612 0.930 . S
H604 C617 0.929 . S
H605 C615 0.929 . S
H606 C610 0.929 . S
H607 C616 0.929 . S
C608 H602 0.930 . S
C608 C609 1.367 . S
C608 C616 1.378 . S
C609 C608 1.367 . S
C609 C617 1.433 . S
C610 H606 0.929 . S
C610 C612 1.378 . S
C610 C614 1.350 . S
C611 C614 1.463 . S
C611 C616 1.350 . S
C611 N619 1.427 . S
C612 H603 0.930 . S
C612 C610 1.378 . S
C612 C613 1.367 . S
C613 C612 1.367 . S
C613 C615 1.433 . S
C614 C610 1.350 . S
C614 C611 1.463 . S
C614 N618 1.427 . S
C615 H605 0.929 . S
C615 C613 1.433 . S
C615 N618 1.384 . S
C616 H607 0.929 . S
C616 C608 1.378 . S
C616 C611 1.350 . S
C617 H604 0.929 . S
C617 C609 1.433 . S
C617 N619 1.384 . S
N618 C614 1.427 . S
N618 C615 1.384 . S
N619 C611 1.427 . S
N619 C617 1.384 . S
H620 C626 0.930 . S
H621 C630 0.930 . S
H622 C635 0.929 . S
H623 C633 0.929 . S
H624 C628 0.929 . S
H625 C634 0.929 . S
C626 H620 0.930 . S
C626 C627 1.367 . S
C626 C634 1.378 . S
C627 C626 1.367 . S
C627 C635 1.433 . S
C628 H624 0.929 . S
C628 C630 1.378 . S
C628 C632 1.350 . S
C629 C632 1.463 . S
C629 C634 1.350 . S
C629 N637 1.427 . S
C630 H621 0.930 . S
C630 C628 1.378 . S
C630 C631 1.367 . S
C631 C630 1.367 . S
C631 C633 1.433 . S
C632 C628 1.350 . S
C632 C629 1.463 . S
C632 N636 1.427 . S
C633 H623 0.929 . S
C633 C631 1.433 . S
C633 N636 1.384 . S
C634 H625 0.929 . S
C634 C626 1.378 . S
C634 C629 1.350 . S
C635 H622 0.929 . S
C635 C627 1.433 . S
C635 N637 1.384 . S
N636 C632 1.427 . S
N636 C633 1.384 . S
N637 C629 1.427 . S
N637 C635 1.384 . S
H638 C644 0.930 . S
H639 C648 0.930 . S
H640 C653 0.929 . S
H641 C651 0.929 . S
H642 C646 0.929 . S
H643 C652 0.929 . S
C644 H638 0.930 . S
C644 C645 1.367 . S
C644 C652 1.378 . S
C645 C644 1.367 . S
C645 C653 1.433 . S
C646 H642 0.929 . S
C646 C648 1.378 . S
C646 C650 1.350 . S
C647 C650 1.463 . S
C647 C652 1.350 . S
C647 N655 1.427 . S
C648 H639 0.930 . S
C648 C646 1.378 . S
C648 C649 1.367 . S
C649 C648 1.367 . S
C649 C651 1.433 . S
C650 C646 1.350 . S
C650 C647 1.463 . S
C650 N654 1.427 . S
C651 H641 0.929 . S
C651 C649 1.433 . S
C651 N654 1.384 . S
C652 H643 0.929 . S
C652 C644 1.378 . S
C652 C647 1.350 . S
C653 H640 0.929 . S
C653 C645 1.433 . S
C653 N655 1.384 . S
N654 C650 1.427 . S
N654 C651 1.384 . S
N655 C647 1.427 . S
N655 C653 1.384 . S
H656 C662 0.930 . S
H657 C666 0.930 . S
H658 C671 0.929 . S
H659 C669 0.929 . S
H660 C664 0.929 . S
H661 C670 0.929 . S
C662 H656 0.930 . S
C662 C663 1.367 . S
C662 C670 1.378 . S
C663 C662 1.367 . S
C663 C671 1.433 . S
C664 H660 0.929 . S
C664 C666 1.378 . S
C664 C668 1.350 . S
C665 C668 1.463 . S
C665 C670 1.350 . S
C665 N673 1.427 . S
C666 H657 0.930 . S
C666 C664 1.378 . S
C666 C667 1.367 . S
C667 C666 1.367 . S
C667 C669 1.433 . S
C668 C664 1.350 . S
C668 C665 1.463 . S
C668 N672 1.427 . S
C669 H659 0.929 . S
C669 C667 1.433 . S
C669 N672 1.384 . S
C670 H661 0.929 . S
C670 C662 1.378 . S
C670 C665 1.350 . S
C671 H658 0.929 . S
C671 C663 1.433 . S
C671 N673 1.384 . S
N672 C668 1.427 . S
N672 C669 1.384 . S
N673 C665 1.427 . S
N673 C671 1.384 . S
H674 C680 0.930 . S
H675 C684 0.930 . S
H676 C689 0.929 . S
H677 C687 0.929 . S
H678 C682 0.929 . S
H679 C688 0.929 . S
C680 H674 0.930 . S
C680 C681 1.367 . S
C680 C688 1.378 . S
C681 C680 1.367 . S
C681 C689 1.433 . S
C682 H678 0.929 . S
C682 C684 1.378 . S
C682 C686 1.350 . S
C683 C686 1.463 . S
C683 C688 1.350 . S
C683 N691 1.427 . S
C684 H675 0.930 . S
C684 C682 1.378 . S
C684 C685 1.367 . S
C685 C684 1.367 . S
C685 C687 1.433 . S
C686 C682 1.350 . S
C686 C683 1.463 . S
C686 N690 1.427 . S
C687 H677 0.929 . S
C687 C685 1.433 . S
C687 N690 1.384 . S
C688 H679 0.929 . S
C688 C680 1.378 . S
C688 C683 1.350 . S
C689 H676 0.929 . S
C689 C681 1.433 . S
C689 N691 1.384 . S
N690 C686 1.427 . S
N690 C687 1.384 . S
N691 C683 1.427 . S
N691 C689 1.384 . S
H692 C698 0.930 . S
H693 C702 0.930 . S
H694 C707 0.929 . S
H695 C705 0.929 . S
H696 C700 0.929 . S
H697 C706 0.929 . S
C698 H692 0.930 . S
C698 C699 1.367 . S
C698 C706 1.378 . S
C699 C698 1.367 . S
C699 C707 1.433 . S
C700 H696 0.929 . S
C700 C702 1.378 . S
C700 C704 1.350 . S
C701 C704 1.463 . S
C701 C706 1.350 . S
C701 N709 1.427 . S
C702 H693 0.930 . S
C702 C700 1.378 . S
C702 C703 1.367 . S
C703 C702 1.367 . S
C703 C705 1.433 . S
C704 C700 1.350 . S
C704 C701 1.463 . S
C704 N708 1.427 . S
C705 H695 0.929 . S
C705 C703 1.433 . S
C705 N708 1.384 . S
C706 H697 0.929 . S
C706 C698 1.378 . S
C706 C701 1.350 . S
C707 H694 0.929 . S
C707 C699 1.433 . S
C707 N709 1.384 . S
N708 C704 1.427 . S
N708 C705 1.384 . S
N709 C701 1.427 . S
N709 C707 1.384 . S
H710 C716 0.930 . S
H711 C720 0.930 . S
H712 C725 0.929 . S
H713 C723 0.929 . S
H714 C718 0.929 . S
H715 C724 0.929 . S
C716 H710 0.930 . S
C716 C717 1.367 . S
C716 C724 1.378 . S
C717 C716 1.367 . S
C717 C725 1.433 . S
C718 H714 0.929 . S
C718 C720 1.378 . S
C718 C722 1.350 . S
C719 C722 1.463 . S
C719 C724 1.350 . S
C719 N727 1.427 . S
C720 H711 0.930 . S
C720 C718 1.378 . S
C720 C721 1.367 . S
C721 C720 1.367 . S
C721 C723 1.433 . S
C722 C718 1.350 . S
C722 C719 1.463 . S
C722 N726 1.427 . S
C723 H713 0.929 . S
C723 C721 1.433 . S
C723 N726 1.384 . S
C724 H715 0.929 . S
C724 C716 1.378 . S
C724 C719 1.350 . S
C725 H712 0.929 . S
C725 C717 1.433 . S
C725 N727 1.384 . S
N726 C722 1.427 . S
N726 C723 1.384 . S
N727 C719 1.427 . S
N727 C725 1.384 . S
H728 C734 0.930 . S
H729 C738 0.930 . S
H730 C743 0.929 . S
H731 C741 0.929 . S
H732 C736 0.929 . S
H733 C742 0.929 . S
C734 H728 0.930 . S
C734 C735 1.367 . S
C734 C742 1.378 . S
C735 C734 1.367 . S
C735 C743 1.433 . S
C736 H732 0.929 . S
C736 C738 1.378 . S
C736 C740 1.350 . S
C737 C740 1.463 . S
C737 C742 1.350 . S
C737 N745 1.427 . S
C738 H729 0.930 . S
C738 C736 1.378 . S
C738 C739 1.367 . S
C739 C738 1.367 . S
C739 C741 1.433 . S
C740 C736 1.350 . S
C740 C737 1.463 . S
C740 N744 1.427 . S
C741 H731 0.929 . S
C741 C739 1.433 . S
C741 N744 1.384 . S
C742 H733 0.929 . S
C742 C734 1.378 . S
C742 C737 1.350 . S
C743 H730 0.929 . S
C743 C735 1.433 . S
C743 N745 1.384 . S
N744 C740 1.427 . S
N744 C741 1.384 . S
N745 C737 1.427 . S
N745 C743 1.384 . S
H746 C752 0.930 . S
H747 C756 0.930 . S
H748 C761 0.929 . S
H749 C759 0.929 . S
H750 C754 0.929 . S
H751 C760 0.929 . S
C752 H746 0.930 . S
C752 C753 1.367 . S
C752 C760 1.378 . S
C753 C752 1.367 . S
C753 C761 1.433 . S
C754 H750 0.929 . S
C754 C756 1.378 . S
C754 C758 1.350 . S
C755 C758 1.463 . S
C755 C760 1.350 . S
C755 N763 1.427 . S
C756 H747 0.930 . S
C756 C754 1.378 . S
C756 C757 1.367 . S
C757 C756 1.367 . S
C757 C759 1.433 . S
C758 C754 1.350 . S
C758 C755 1.463 . S
C758 N762 1.427 . S
C759 H749 0.929 . S
C759 C757 1.433 . S
C759 N762 1.384 . S
C760 H751 0.929 . S
C760 C752 1.378 . S
C760 C755 1.350 . S
C761 H748 0.929 . S
C761 C753 1.433 . S
C761 N763 1.384 . S
N762 C758 1.427 . S
N762 C759 1.384 . S
N763 C755 1.427 . S
N763 C761 1.384 . S
H764 C770 0.930 . S
H765 C774 0.930 . S
H766 C779 0.929 . S
H767 C777 0.929 . S
H768 C772 0.929 . S
H769 C778 0.929 . S
C770 H764 0.930 . S
C770 C771 1.367 . S
C770 C778 1.378 . S
C771 C770 1.367 . S
C771 C779 1.433 . S
C772 H768 0.929 . S
C772 C774 1.378 . S
C772 C776 1.350 . S
C773 C776 1.463 . S
C773 C778 1.350 . S
C773 N781 1.427 . S
C774 H765 0.930 . S
C774 C772 1.378 . S
C774 C775 1.367 . S
C775 C774 1.367 . S
C775 C777 1.433 . S
C776 C772 1.350 . S
C776 C773 1.463 . S
C776 N780 1.427 . S
C777 H767 0.929 . S
C777 C775 1.433 . S
C777 N780 1.384 . S
C778 H769 0.929 . S
C778 C770 1.378 . S
C778 C773 1.350 . S
C779 H766 0.929 . S
C779 C771 1.433 . S
C779 N781 1.384 . S
N780 C776 1.427 . S
N780 C777 1.384 . S
N781 C773 1.427 . S
N781 C779 1.384 . S
H782 C788 0.930 . S
H783 C792 0.930 . S
H784 C797 0.929 . S
H785 C795 0.929 . S
H786 C790 0.929 . S
H787 C796 0.929 . S
C788 H782 0.930 . S
C788 C789 1.367 . S
C788 C796 1.378 . S
C789 C788 1.367 . S
C789 C797 1.433 . S
C790 H786 0.929 . S
C790 C792 1.378 . S
C790 C794 1.350 . S
C791 C794 1.463 . S
C791 C796 1.350 . S
C791 N799 1.427 . S
C792 H783 0.930 . S
C792 C790 1.378 . S
C792 C793 1.367 . S
C793 C792 1.367 . S
C793 C795 1.433 . S
C794 C790 1.350 . S
C794 C791 1.463 . S
C794 N798 1.427 . S
C795 H785 0.929 . S
C795 C793 1.433 . S
C795 N798 1.384 . S
C796 H787 0.929 . S
C796 C788 1.378 . S
C796 C791 1.350 . S
C797 H784 0.929 . S
C797 C789 1.433 . S
C797 N799 1.384 . S
N798 C794 1.427 . S
N798 C795 1.384 . S
N799 C791 1.427 . S
N799 C797 1.384 . S
C231 C216 1.113 . S
C235 C6 1.161 . S
C249 C174 1.218 . S
C253 C20 1.215 . S
C267 C34 1.269 . S
C271 C188 1.159 . S
C285 C202 1.299 . S
C289 C48 1.410 . S
C303 C132 1.208 . S
C307 C62 1.213 . S
C321 C76 1.163 . S
C325 C146 1.267 . S
C339 C90 1.322 . S
C343 C160 1.411 . S
C357 C104 1.113 . S
C361 C118 1.156 . S
C375 C79 2.045 . S
C379 C7 1.899 . S
C393 C91 1.368 . S
C397 C21 1.386 . S
C411 C107 1.431 . S
C415 C35 1.284 . S
C429 C49 1.499 . S
C433 C64 1.626 . S
C447 C8 1.303 . S
C451 C23 1.246 . S
C465 C37 1.408 . S
C469 C22 1.416 . S
C483 C36 1.450 . S
C487 C51 1.461 . S
C501 C9 1.718 . S
C505 C50 1.715 . S
C519 C106 1.586 . S
C523 C65 1.497 . S
C537 C63 1.360 . S
C541 C77 1.290 . S
C555 C78 1.593 . S
C559 C92 1.579 . S
C573 C105 1.620 . S
C577 C93 1.787 . S
C591 C191 2.043 . S
C595 C119 1.899 . S
C609 C133 1.382 . S
C613 C203 1.357 . S
C627 C219 1.435 . S
C631 C147 1.271 . S
C645 C176 1.626 . S
C649 C161 1.500 . S
C663 C120 1.303 . S
C667 C135 1.246 . S
C681 C134 1.416 . S
C685 C149 1.407 . S
C699 C163 1.453 . S
C703 C148 1.454 . S
C717 C121 1.717 . S
C721 C162 1.717 . S
C735 C218 1.586 . S
C739 C177 1.496 . S
C753 C175 1.370 . S
C757 C189 1.295 . S
C771 C190 1.596 . S
C775 C204 1.580 . S
C789 C217 1.629 . S
C793 C205 1.781 . S
