# Generated by pormake.
# Topology snp, (6)-cn, num edge types: 1
# Building blocks:
#     Node 0, Type 0, BuildingBlock: CUKXOW_clean_sbu_0, # of connection points: 6
#     Node 1, Type 0, BuildingBlock: CUKXOW_clean_sbu_0, # of connection points: 6
#     Node 2, Type 0, BuildingBlock: CUKXOW_clean_sbu_0, # of connection points: 6
#     Node 3, Type 0, BuildingBlock: CUKXOW_clean_sbu_0, # of connection points: 6
#     Edge 4, Type (0, 0), BuildingBlock: MIFKUJ_clean_linker_0, # of connection points: 2
#     Edge 5, Type (0, 0), BuildingBlock: MIFKUJ_clean_linker_0, # of connection points: 2
#     Edge 6, Type (0, 0), BuildingBlock: MIFKUJ_clean_linker_0, # of connection points: 2
#     Edge 7, Type (0, 0), BuildingBlock: MIFKUJ_clean_linker_0, # of connection points: 2
#     Edge 8, Type (0, 0), BuildingBlock: MIFKUJ_clean_linker_0, # of connection points: 2
#     Edge 9, Type (0, 0), BuildingBlock: MIFKUJ_clean_linker_0, # of connection points: 2
#     Edge 10, Type (0, 0), BuildingBlock: MIFKUJ_clean_linker_0, # of connection points: 2
#     Edge 11, Type (0, 0), BuildingBlock: MIFKUJ_clean_linker_0, # of connection points: 2
#     Edge 12, Type (0, 0), BuildingBlock: MIFKUJ_clean_linker_0, # of connection points: 2
#     Edge 13, Type (0, 0), BuildingBlock: MIFKUJ_clean_linker_0, # of connection points: 2
#     Edge 14, Type (0, 0), BuildingBlock: MIFKUJ_clean_linker_0, # of connection points: 2
#     Edge 15, Type (0, 0), BuildingBlock: MIFKUJ_clean_linker_0, # of connection points: 2
# Relax obj value: 0.228
# Max RMSD: 0.183
# Mean RMSD: 0.179
data_MOF--net-snp--node1-CUKXOW_clean_sbu_0--edge1-MIFKUJ_clean_linker_0
_symmetry_space_group_name_H-M    P1
_symmetry_Int_Tables_number       1
_symmetry_cell_setting            triclinic
loop_
_symmetry_equiv_pos_as_xyz
'x, y, z'
_cell_length_a     31.676095
_cell_length_b     31.924913
_cell_length_c     35.171793
_cell_angle_alpha  100.9728
_cell_angle_beta   98.203062
_cell_angle_gamma 102.18459
loop_
_atom_site_label
_atom_site_type_symbol
_atom_site_fract_x
_atom_site_fract_y
_atom_site_fract_z
_atom_type_partial_charge
Tb0 Tb 0.2807 0.10742 0.12598 0.0
C1 C 0.37943 0.13721 0.11381 0.0
Tb2 Tb 0.30691 0.187 0.09289 0.0
O3 O 0.27988 0.06217 0.07047 0.0
O4 O 0.26539 0.12224 0.0697 0.0
O5 O 0.35012 0.10888 0.1258 0.0
C6 C 0.3206 0.2199 0.03057 0.0
O7 O 0.3703 0.1714 0.10138 0.0
C8 C 0.30696 0.20724 0.16922 0.0
C9 C 0.21454 0.1671 0.11351 0.0
O10 O 0.32668 0.18252 0.03616 0.0
O11 O 0.30952 0.24059 0.06186 0.0
O12 O 0.30631 0.23519 0.14647 0.0
O13 O 0.31587 0.17332 0.14974 0.0
O14 O 0.23786 0.18219 0.08854 0.0
O15 O 0.22668 0.13944 0.13432 0.0
C16 C 0.26655 0.05074 0.17164 0.0
O17 O 0.23727 0.05369 0.14301 0.0
O18 O 0.30271 0.08006 0.17484 0.0
C19 C 0.27235 0.08871 0.04813 0.0
Tb20 Tb 0.07536 0.26335 0.58712 0.0
C21 C 0.08603 0.3605 0.57512 0.0
Tb22 Tb 0.01248 0.27992 0.52348 0.0
O23 O 0.13017 0.27518 0.55584 0.0
O24 O 0.06653 0.24937 0.52375 0.0
O25 O 0.09631 0.33559 0.59958 0.0
C26 C 0.97216 0.29006 0.45508 0.0
O27 O 0.05581 0.34505 0.54256 0.0
C28 C 0.98227 0.2754 0.59035 0.0
C29 C 0.99696 0.18867 0.53469 0.0
O30 O 0.95311 0.27168 0.48006 0.0
O31 O 0.0139 0.30437 0.46954 0.0
O32 O 0.95768 0.26571 0.55552 0.0
O33 O 0.02091 0.2915 0.58621 0.0
O34 O 0.0054 0.21043 0.50743 0.0
O35 O 0.01984 0.20431 0.57114 0.0
C36 C 0.11092 0.24653 0.654 0.0
O37 O 0.1076 0.22223 0.61908 0.0
O38 O 0.09493 0.28006 0.65096 0.0
C39 C 0.10602 0.26444 0.52071 0.0
Tb40 Tb 0.85348 0.9785 0.0473 0.0
C41 C 0.91349 0.96252 0.9841 0.0
Tb42 Tb 0.85665 0.03378 0.97901 0.0
O43 O 0.82383 0.91626 1.00381 0.0
O44 O 0.81846 0.97612 0.99102 0.0
O45 O 0.90581 0.95903 1.01975 0.0
C46 C 0.86952 0.07078 0.91622 0.0
O47 O 0.89611 0.98731 0.96308 0.0
C48 C 0.89462 0.07601 0.05169 0.0
C49 C 0.78274 0.03583 0.03027 0.0
O50 O 0.89312 0.08331 0.9516 0.0
O51 O 0.83771 0.03713 0.91611 0.0
O52 O 0.88011 0.09483 1.02474 0.0
O53 O 0.89143 0.03621 0.03618 0.0
O54 O 0.79434 0.0409 0.99591 0.0
O55 O 0.80374 0.0169 0.05549 0.0
C56 C 0.87322 0.95797 0.11856 0.0
O57 O 0.83542 0.9438 0.09411 0.0
O58 O 0.89937 0.98388 0.10283 0.0
C59 C 0.81111 0.93552 0.97615 0.0
Tb60 Tb 0.11754 0.89273 0.54393 0.0
C61 C 0.09284 0.80207 0.57039 0.0
Tb62 Tb 0.03601 0.87263 0.58083 0.0
O63 O 0.14954 0.9457 0.59615 0.0
O64 O 0.10546 0.89023 0.60203 0.0
O65 O 0.11911 0.82678 0.55251 0.0
C66 C 0.9858 0.87239 0.63512 0.0
O67 O 0.05962 0.81413 0.58483 0.0
C68 C 0.01092 0.85635 0.50192 0.0
C69 C 0.05591 0.95599 0.54679 0.0
O70 O 0.97871 0.84215 0.60291 0.0
O71 O 0.02095 0.90266 0.63672 0.0
O72 O 0.98435 0.85281 0.52672 0.0
O73 O 0.04918 0.86775 0.52315 0.0
O74 O 0.04473 0.94132 0.57767 0.0
O75 O 0.08033 0.93712 0.52473 0.0
C76 C 0.17845 0.89653 0.49888 0.0
O77 O 0.1776 0.92714 0.52857 0.0
O78 O 0.14482 0.86361 0.49447 0.0
C79 C 0.12872 0.9279 0.62046 0.0
H80 H 0.97234 0.92609 1.02359 0.0
H81 H 0.04806 0.94482 1.01782 0.0
H82 H 0.01229 0.97352 0.90495 0.0
H83 H 0.93519 0.95443 0.91003 0.0
H84 H 0.01166 0.04301 0.94933 0.0
H85 H 0.11497 0.99675 0.07975 0.0
H86 H 0.16717 0.9512 0.09184 0.0
H87 H 0.19699 0.9488 0.97644 0.0
H88 H 0.1458 0.99569 0.96418 0.0
H89 H 0.17648 0.2157 0.06894 0.0
H90 H 0.10378 0.18192 0.03064 0.0
H91 H 0.07538 0.10635 0.11688 0.0
H92 H 0.15027 0.13607 0.1533 0.0
H93 H 0.13041 0.07508 0.06573 0.0
H94 H 0.04184 0.12479 0.93787 0.0
H95 H 0.00661 0.18454 0.92626 0.0
H96 H 0.96143 0.18956 0.03552 0.0
H97 H 0.99539 0.12898 0.04771 0.0
C98 C 0.98012 0.93448 0.99654 0.0
C99 C 0.94874 0.9443 0.96955 0.0
C100 C 0.02411 0.94515 0.99286 0.0
C101 C 0.03563 0.96922 0.96458 0.0
C102 C 1.00382 0.96048 0.9299 0.0
C103 C 0.95948 0.95026 0.93311 0.0
C104 C 0.05986 0.01622 0.98152 0.0
C105 C 0.03796 0.04937 0.97457 0.0
C106 C 0.09572 0.02742 1.01357 0.0
C107 C 0.1253 0.99813 1.02029 0.0
C108 C 0.13244 0.98622 0.05679 0.0
C109 C 0.16195 0.96037 0.06377 0.0
C110 C 0.18489 0.94658 0.03462 0.0
C111 C 0.17851 0.95886 0.99858 0.0
C112 C 0.14907 0.9848 0.99148 0.0
C113 C 0.15422 0.19331 0.08095 0.0
C114 C 0.17001 0.17424 0.11128 0.0
C115 C 0.11188 0.1746 0.05923 0.0
C116 C 0.08704 0.13754 0.06865 0.0
C117 C 0.09627 0.13258 0.10767 0.0
C118 C 0.13945 0.14928 0.1285 0.0
C119 C 0.07626 0.09666 0.03744 0.0
C120 C 0.10308 0.06712 0.04104 0.0
C121 C 0.04568 0.08935 1.00228 0.0
C122 C 0.02166 0.12277 0.99392 0.0
C123 C 0.02405 0.1383 0.95928 0.0
C124 C 1.00462 0.17239 0.95274 0.0
C125 C 0.98253 0.19106 0.98048 0.0
C126 C 0.97894 0.17508 1.01441 0.0
C127 C 0.99823 0.14092 1.02114 0.0
H128 H 0.96771 0.21761 0.97541 0.0
H129 H 0.2079 0.92673 0.04006 0.0
H130 H 0.04061 0.96412 0.47023 0.0
H131 H 0.97323 0.97673 0.43818 0.0
H132 H 0.94039 0.01844 0.55235 0.0
H133 H 0.00697 1.00463 0.58403 0.0
H134 H 0.87163 0.96481 0.51363 0.0
H135 H 0.96964 0.09 0.46095 0.0
H136 H 0.02283 0.10765 0.41785 0.0
H137 H 0.9501 0.99503 0.32732 0.0
H138 H 0.89639 0.97683 0.37003 0.0
H139 H 0.96774 0.12516 0.57412 0.0
H140 H 0.89804 0.07048 0.55579 0.0
H141 H 0.85568 0.13227 0.4629 0.0
H142 H 0.92521 0.18676 0.48141 0.0
H143 H 0.85992 0.06361 0.42365 0.0
H144 H 0.76076 0.03509 0.4932 0.0
H145 H 0.71288 0.03531 0.54252 0.0
H146 H 0.80611 0.99476 0.61959 0.0
H147 H 0.85495 0.99493 0.57149 0.0
C148 C 0.01967 0.9775 0.48853 0.0
C149 C 0.02808 0.98169 0.52959 0.0
C150 C 0.98046 0.98431 0.46997 0.0
C151 C 0.94963 0.99612 0.49231 0.0
C152 C 0.96189 0.00684 0.53377 0.0
C153 C 1.00066 0.99981 0.5522 0.0
C154 C 0.90485 0.99829 0.47424 0.0
C155 C 0.87044 0.98818 0.49512 0.0
C156 C 0.89763 0.02139 0.44421 0.0
C157 C 0.92946 0.03195 0.41859 0.0
C158 C 0.9651 0.06909 0.43182 0.0
C159 C 0.99528 0.07911 0.40752 0.0
C160 C 0.9899 0.05229 0.36992 0.0
C161 C 0.95422 0.01554 0.35649 0.0
C162 C 0.9239 1.0054 0.38066 0.0
C163 C 0.94343 0.12695 0.54988 0.0
C164 C 0.95331 0.15788 0.52718 0.0
C165 C 0.90284 0.09605 0.53956 0.0
C166 C 0.87236 0.09454 0.50531 0.0
C167 C 0.87911 0.13098 0.48805 0.0
C168 C 0.91969 0.16148 0.49798 0.0
C169 C 0.84731 0.05074 0.47956 0.0
C170 C 0.86297 0.04239 0.44406 0.0
C171 C 0.84044 0.01508 0.49813 0.0
C172 C 0.81133 0.01409 0.52787 0.0
C173 C 0.77114 0.02605 0.52058 0.0
C174 C 0.74378 0.02617 0.54845 0.0
C175 C 0.75624 0.0146 0.58397 0.0
C176 C 0.79623 1.00316 0.59182 0.0
C177 C 0.82369 1.00287 0.56404 0.0
H178 H 0.73506 0.01484 0.60556 0.0
H179 H 0.01331 0.06004 0.35114 0.0
H180 H 0.72456 0.0677 0.98488 0.0
H181 H 0.65787 0.08796 1.00112 0.0
H182 H 0.6836 0.05465 0.11396 0.0
H183 H 0.75044 0.03495 0.09838 0.0
H184 H 0.58428 0.03929 1.01664 0.0
H185 H 0.64585 0.12415 0.18205 0.0
H186 H 0.71439 0.16597 0.22745 0.0
H187 H 0.76792 0.20739 0.13136 0.0
H188 H 0.69884 0.16672 0.08533 0.0
H189 H 0.40498 0.0603 0.11326 0.0
H190 H 0.4753 0.04549 0.10111 0.0
H191 H 0.5236 0.18103 0.09699 0.0
H192 H 0.45358 0.1961 0.10893 0.0
H193 H 0.58619 0.14892 0.13802 0.0
H194 H 0.48601 0.10869 1.01382 0.0
H195 H 0.41643 0.07008 0.96771 0.0
H196 H 0.44167 0.94544 0.97838 0.0
H197 H 0.51109 0.98335 0.02513 0.0
C198 C 0.71624 0.06493 1.0133 0.0
C199 C 0.74302 0.04968 0.04032 0.0
C200 C 0.67795 0.07633 1.02241 0.0
C201 C 0.66585 0.07307 0.05883 0.0
C202 C 0.69252 0.05794 0.08586 0.0
C203 C 0.73075 0.04653 0.07681 0.0
C204 C 0.62512 0.08506 0.06844 0.0
C205 C 0.58476 0.06324 0.0432 0.0
C206 C 0.6257 0.11669 0.10287 0.0
C207 C 0.66728 0.14191 0.13017 0.0
C208 C 0.67214 0.14234 0.17059 0.0
C209 C 0.71117 0.16588 0.19647 0.0
C210 C 0.74579 0.18915 0.18237 0.0
C211 C 0.7412 0.18918 0.14227 0.0
C212 C 0.70204 0.1659 0.11624 0.0
C213 C 0.43082 0.08712 0.11045 0.0
C214 C 0.42361 0.12933 0.11191 0.0
C215 C 0.47087 0.07854 0.10325 0.0
C216 C 0.50444 0.11207 0.09771 0.0
C217 C 0.49809 0.15468 0.10108 0.0
C218 C 0.45798 0.16317 0.10782 0.0
C219 C 0.54551 0.10249 0.08671 0.0
C220 C 0.58584 0.12484 0.11159 0.0
C221 C 0.54499 0.07176 0.05175 0.0
C222 C 0.50353 0.04886 1.02329 0.0
C223 C 0.47656 0.07304 1.00658 0.0
C224 C 0.43717 0.05129 0.9803 0.0
C225 C 0.42457 1.00533 0.9702 0.0
C226 C 0.45143 0.98104 0.98628 0.0
C227 C 0.49082 1.00265 1.01266 0.0
H228 H 0.39406 0.98855 0.94986 0.0
H229 H 0.77604 0.20728 0.20249 0.0
H230 H 0.11676 0.40843 0.52514 0.0
H231 H 0.13278 0.48842 0.53464 0.0
H232 H 0.11283 0.50029 0.65462 0.0
H233 H 0.09755 0.41974 0.64533 0.0
H234 H 0.05739 0.5365 0.60592 0.0
H235 H 0.21111 0.54419 0.64111 0.0
H236 H 0.28058 0.52363 0.63281 0.0
H237 H 0.27494 0.56406 0.52292 0.0
H238 H 0.20509 0.58428 0.53025 0.0
H239 H 0.07704 0.7634 0.63106 0.0
H240 H 0.0889 0.69279 0.64059 0.0
H241 H 0.13936 0.67411 0.5325 0.0
H242 H 0.12967 0.74625 0.52401 0.0
H243 H 0.18411 0.64299 0.58243 0.0
H244 H 0.02988 0.62465 0.53899 0.0
H245 H 0.95708 0.64056 0.53965 0.0
H246 H 0.9591 0.61433 0.65511 0.0
H247 H 0.03222 0.59881 0.65533 0.0
C248 C 0.11732 0.42825 0.55397 0.0
C249 C 0.1061 0.40815 0.58458 0.0
C250 C 0.12651 0.47392 0.55937 0.0
C251 C 0.12402 0.50029 0.59533 0.0
C252 C 0.11516 0.48046 0.62672 0.0
C253 C 0.10675 0.4346 0.62152 0.0
C254 C 0.12455 0.54731 0.59779 0.0
C255 C 0.08546 0.56019 0.60183 0.0
C256 C 0.16051 0.57742 0.59053 0.0
C257 C 0.20267 0.5655 0.58614 0.0
C258 C 0.22449 0.54839 0.61502 0.0
C259 C 0.26399 0.53686 0.61052 0.0
C260 C 0.28213 0.54247 0.57733 0.0
C261 C 0.26085 0.55972 0.54861 0.0
C262 C 0.22134 0.57129 0.55296 0.0
C263 C 0.0908 0.74431 0.60936 0.0
C264 C 0.10189 0.76001 0.57649 0.0
C265 C 0.09746 0.70383 0.61478 0.0
C266 C 0.11397 0.67741 0.58676 0.0
C267 C 0.12639 0.69371 0.55448 0.0
C268 C 0.12071 0.73484 0.54955 0.0
C269 C 0.11679 0.6323 0.59049 0.0
C270 C 0.15626 0.61964 0.58727 0.0
C271 C 0.08073 0.6018 0.59741 0.0
C272 C 0.03674 0.61107 0.59736 0.0
C273 C 0.01494 0.6226 0.56464 0.0
C274 C 0.9736 0.63149 0.56483 0.0
C275 C 0.95354 0.62859 0.59745 0.0
C276 C 0.97472 0.61665 0.6299 0.0
C277 C 0.0161 0.60778 0.62987 0.0
H278 H 0.92153 0.63548 0.59755 0.0
H279 H 0.3127 0.53351 0.5739 0.0
H280 H 0.19258 0.28119 0.51464 0.0
H281 H 0.22509 0.26954 0.45575 0.0
H282 H 0.09547 0.22033 0.38332 0.0
H283 H 0.06263 0.23214 0.44269 0.0
H284 H 0.22669 0.20108 0.4025 0.0
H285 H 0.09911 0.2463 0.29196 0.0
H286 H 0.04837 0.29537 0.29178 0.0
H287 H 0.1261 0.37892 0.40038 0.0
H288 H 0.1781 0.33131 0.40016 0.0
H289 H 0.28105 0.14395 0.21116 0.0
H290 H 0.24588 0.15073 0.2687 0.0
H291 H 0.25659 0.28815 0.27094 0.0
H292 H 0.28994 0.28051 0.21227 0.0
H293 H 0.18416 0.2625 0.28768 0.0
H294 H 0.32386 0.23975 0.33686 0.0
H295 H 0.38426 0.20223 0.34168 0.0
H296 H 0.29873 0.09197 0.36739 0.0
H297 H 0.23756 0.12848 0.36202 0.0
C298 C 0.1708 0.26788 0.48621 0.0
C299 C 0.12481 0.25767 0.48367 0.0
C300 C 0.18959 0.26098 0.45236 0.0
C301 C 0.16314 0.24403 0.41455 0.0
C302 C 0.117 0.23379 0.41184 0.0
C303 C 0.09809 0.2405 0.44591 0.0
C304 C 0.18417 0.23777 0.37841 0.0
C305 C 0.21713 0.21428 0.37728 0.0
C306 C 0.1731 0.25596 0.34567 0.0
C307 C 0.14211 0.2849 0.34611 0.0
C308 C 0.10539 0.27528 0.31555 0.0
C309 C 0.07649 0.30286 0.31554 0.0
C310 C 0.08383 0.34007 0.3462 0.0
C311 C 0.12032 0.34998 0.37673 0.0
C312 C 0.14958 0.32275 0.3766 0.0
C313 C 0.27628 0.17558 0.224 0.0
C314 C 0.28885 0.21155 0.20683 0.0
C315 C 0.25597 0.17965 0.2573 0.0
C316 C 0.24841 0.22021 0.27528 0.0
C317 C 0.26141 0.25626 0.25818 0.0
C318 C 0.28103 0.25195 0.22456 0.0
C319 C 0.22681 0.22538 0.31135 0.0
C320 C 0.19364 0.24877 0.31257 0.0
C321 C 0.23896 0.20846 0.34487 0.0
C322 C 0.2758 0.18649 0.34817 0.0
C323 C 0.31775 0.20727 0.34307 0.0
C324 C 0.35216 0.18621 0.34597 0.0
C325 C 0.34525 0.1446 0.35454 0.0
C326 C 0.30398 0.1241 0.36051 0.0
C327 C 0.2694 0.14494 0.35747 0.0
H328 H 0.37193 0.12835 0.35678 0.0
H329 H 0.06131 0.36127 0.34625 0.0
H330 H 0.91738 0.20259 0.58767 0.0
H331 H 0.90063 0.1663 0.64035 0.0
H332 H 0.99636 0.27221 0.72443 0.0
H333 H 0.01792 0.30435 0.67007 0.0
H334 H 1.00022 0.2138 0.75367 0.0
H335 H 0.86505 0.24474 0.70501 0.0
H336 H 0.80118 0.24565 0.65628 0.0
H337 H 0.76333 0.10444 0.62761 0.0
H338 H 0.82736 0.10258 0.67575 0.0
H339 H 0.91168 0.15555 0.91963 0.0
H340 H 0.93178 0.1903 0.8663 0.0
H341 H 0.86818 0.06868 0.78163 0.0
H342 H 0.84788 0.03411 0.83553 0.0
H343 H 0.8481 0.13436 0.75382 0.0
H344 H 0.98836 0.11682 0.8182 0.0
H345 H 0.05385 0.12891 0.86982 0.0
H346 H 0.07711 0.26838 0.87992 0.0
H347 H 0.0123 0.25669 0.82765 0.0
C348 C 0.93544 0.21777 0.61731 0.0
C349 C 0.96959 0.25613 0.62425 0.0
C350 C 0.92492 0.19742 0.64809 0.0
C351 C 0.94566 0.21653 0.68778 0.0
C352 C 0.97935 0.25574 0.69469 0.0
C353 C 0.99165 0.27466 0.66344 0.0
C354 C 0.93341 0.19537 0.7216 0.0
C355 C 0.96656 0.19752 0.75374 0.0
C356 C 0.88977 0.17279 0.7227 0.0
C357 C 0.85122 0.17357 0.69373 0.0
C358 C 0.84324 0.21388 0.68814 0.0
C359 C 0.80703 0.21453 0.66062 0.0
C360 C 0.77834 0.17509 0.63875 0.0
C361 C 0.78571 0.1349 0.64446 0.0
C362 C 0.82191 0.13402 0.67189 0.0
C363 C 0.90268 0.13597 0.88974 0.0
C364 C 0.87896 0.09172 0.88229 0.0
C365 C 0.91419 0.15597 0.85896 0.0
C366 C 0.90271 0.13229 0.8193 0.0
C367 C 0.87802 0.08811 0.81167 0.0
C368 C 0.86625 0.06819 0.84262 0.0
C369 C 0.91479 0.15385 0.78591 0.0
C370 C 0.88156 0.15134 0.75371 0.0
C371 C 0.95789 0.17864 0.78605 0.0
C372 C 0.99541 0.18561 0.81896 0.0
C373 C 0.00754 0.14985 0.83133 0.0
C374 C 0.04471 0.15671 0.86056 0.0
C375 C 0.06965 0.19945 0.87814 0.0
C376 C 0.05777 0.2353 0.86624 0.0
C377 C 0.02093 0.2285 0.83668 0.0
H378 H 0.09776 0.20499 0.90138 0.0
H379 H 0.75031 0.17566 0.61746 0.0
H380 H 0.04449 0.83327 0.43388 0.0
H381 H 0.01664 0.83945 0.36725 0.0
H382 H 0.91981 0.90257 0.41161 0.0
H383 H 0.94251 0.8886 0.47564 0.0
H384 H 0.88561 0.87895 0.34896 0.0
H385 H 0.04609 0.95093 0.37954 0.0
H386 H 0.12187 0.94331 0.39867 0.0
H387 H 0.10154 0.8387 0.29602 0.0
H388 H 0.02569 0.84527 0.27661 0.0
H389 H 0.82865 0.89171 0.14886 0.0
H390 H 0.85071 0.87102 0.21104 0.0
H391 H 0.9672 0.97804 0.23976 0.0
H392 H 0.94606 0.99729 0.17677 0.0
H393 H 0.99167 0.91671 0.26287 0.0
H394 H 0.81821 0.84043 0.29107 0.0
H395 H 0.74299 0.85142 0.2803 0.0
H396 H 0.79453 0.98535 0.27485 0.0
H397 H 0.86999 0.97532 0.28597 0.0
C398 C 0.01729 0.84851 0.42918 0.0
C399 C 0.99677 0.86169 0.46071 0.0
C400 C 1.0017 0.85324 0.39077 0.0
C401 C 0.96761 0.87497 0.38313 0.0
C402 C 0.94634 0.88628 0.4149 0.0
C403 C 0.95989 0.87879 0.45239 0.0
C404 C 0.95373 0.88634 0.34322 0.0
C405 C 0.90952 0.88755 0.33085 0.0
C406 C 0.98338 0.898 0.31775 0.0
C407 C 0.03031 0.89824 0.32695 0.0
C408 C 0.05808 0.9267 0.36091 0.0
C409 C 0.1008 0.92226 0.37195 0.0
C410 C 0.11605 0.89009 0.34879 0.0
C411 C 0.08934 0.86319 0.31404 0.0
C412 C 0.04662 0.86733 0.30297 0.0
C413 C 0.85889 0.91093 0.16849 0.0
C414 C 0.88544 0.94625 0.15755 0.0
C415 C 0.87152 0.89923 0.20446 0.0
C416 C 0.91066 0.92308 0.23125 0.0
C417 C 0.93701 0.95858 0.2202 0.0
C418 C 0.92472 0.96982 0.18399 0.0
C419 C 0.92453 0.9108 0.27017 0.0
C420 C 0.96841 0.90908 0.28189 0.0
C421 C 0.89507 0.90075 0.29592 0.0
C422 C 0.84972 0.9069 0.28888 0.0
C423 C 0.81348 0.87222 0.28761 0.0
C424 C 0.7708 0.8783 0.28144 0.0
C425 C 0.76398 0.919 0.27674 0.0
C426 C 0.79983 0.95377 0.2783 0.0
C427 C 0.84256 0.94788 0.28446 0.0
H428 H 0.73091 0.92363 0.27199 0.0
H429 H 0.14863 0.88608 0.35744 0.0
H430 H 0.14162 0.01223 0.66258 0.0
H431 H 0.16469 0.04111 0.73398 0.0
H432 H 0.17113 0.91095 0.74805 0.0
H433 H 0.14364 0.88177 0.67725 0.0
H434 H 0.14584 0.94059 0.80472 0.0
H435 H 0.26399 0.01166 0.75073 0.0
H436 H 0.30133 0.05813 0.71095 0.0
H437 H 0.26658 0.17057 0.77473 0.0
H438 H 0.22878 0.12478 0.8145 0.0
H439 H 0.27744 0.01189 1.00148 0.0
H440 H 0.25422 0.98514 0.93025 0.0
H441 H 0.21772 0.10578 0.92223 0.0
H442 H 0.23905 0.13227 0.99413 0.0
H443 H 0.25632 0.0815 0.86356 0.0
H444 H 0.10467 0.97568 0.88004 0.0
H445 H 0.06634 0.91501 0.90655 0.0
H446 H 0.17884 0.86017 0.90977 0.0
H447 H 0.21693 0.91912 0.88145 0.0
C448 C 0.14747 0.98979 0.68114 0.0
C449 C 0.14056 0.94465 0.66424 0.0
C450 C 0.16147 0.00648 0.72215 0.0
C451 C 0.17129 0.97891 0.74736 0.0
C452 C 0.16399 0.93355 0.7301 0.0
C453 C 0.14821 0.91662 0.68934 0.0
C454 C 0.18768 0.99636 0.79154 0.0
C455 C 0.17061 0.9712 0.81709 0.0
C456 C 0.21957 0.03681 0.80902 0.0
C457 C 0.24249 0.06445 0.78502 0.0
C458 C 0.26384 0.04618 0.75596 0.0
C459 C 0.28524 0.07245 0.73345 0.0
C460 C 0.28602 0.11721 0.74006 0.0
C461 C 0.26566 0.13585 0.76936 0.0
C462 C 0.24417 0.10971 0.79186 0.0
C463 C 0.2635 0.03253 0.98472 0.0
C464 C 0.2593 0.07398 1.004 0.0
C465 C 0.2494 0.01669 0.94368 0.0
C466 C 0.23065 0.04173 0.92032 0.0
C467 C 0.22907 0.08434 0.93935 0.0
C468 C 0.24218 0.0999 0.98062 0.0
C469 C 0.21526 0.02497 0.87611 0.0
C470 C 0.23193 0.05076 0.85071 0.0
C471 C 0.18438 0.98418 0.8584 0.0
C472 C 0.16467 0.95328 0.88101 0.0
C473 C 0.1216 0.9513 0.88739 0.0
C474 C 0.09969 0.91694 0.90223 0.0
C475 C 0.12051 0.88448 0.91081 0.0
C476 C 0.16302 0.88578 0.90383 0.0
C477 C 0.18481 0.91967 0.88845 0.0
H478 H 0.10347 0.85801 0.92237 0.0
H479 H 0.30263 0.1375 0.72263 0.0
H480 H 0.7757 0.96556 0.915 0.0
H481 H 0.78591 0.94658 0.84658 0.0
H482 H 0.84909 0.84602 0.8747 0.0
H483 H 0.8384 0.86458 0.94258 0.0
H484 H 0.86435 0.95979 0.82975 0.0
H485 H 0.847 0.77008 0.7942 0.0
H486 H 0.79796 0.70321 0.80336 0.0
H487 H 0.69373 0.76959 0.81011 0.0
H488 H 0.7419 0.83667 0.80042 0.0
H489 H 0.01231 0.90982 0.71282 0.0
H490 H 0.96713 0.91235 0.76347 0.0
H491 H 0.85192 0.84083 0.67566 0.0
H492 H 0.8981 0.83527 0.6253 0.0
H493 H 0.84689 0.81423 0.74051 0.0
H494 H 0.87037 0.96041 0.71346 0.0
H495 H 0.91862 0.02612 0.70119 0.0
H496 H 1.00217 0.04547 0.81383 0.0
H497 H 0.9534 0.9812 0.82734 0.0
C498 C 0.79069 0.93867 0.90609 0.0
C499 C 0.80696 0.91701 0.93388 0.0
C500 C 0.79642 0.92778 0.86713 0.0
C501 C 0.81832 0.89493 0.85554 0.0
C502 C 0.83144 0.87096 0.88272 0.0
C503 C 0.82542 0.88166 0.92157 0.0
C504 C 0.83362 0.89034 0.81747 0.0
C505 C 0.85962 0.92804 0.80982 0.0
C506 C 0.82759 0.84898 0.79141 0.0
C507 C 0.79821 0.80853 0.79678 0.0
C508 C 0.81354 0.77036 0.79738 0.0
C509 C 0.78591 0.73242 0.80273 0.0
C510 C 0.74279 0.73218 0.80739 0.0
C511 C 0.72718 0.76986 0.80662 0.0
C512 C 0.75467 0.80788 0.80126 0.0
C513 C 0.97737 0.89452 0.70445 0.0
C514 C 0.9584 0.87276 0.66534 0.0
C515 C 0.95147 0.89632 0.73327 0.0
C516 C 0.90579 0.87821 0.72313 0.0
C517 C 0.88698 0.85543 0.68409 0.0
C518 C 0.91325 0.85235 0.6554 0.0
C519 C 0.87809 0.88352 0.75348 0.0
C520 C 0.85019 0.84607 0.75978 0.0
C521 C 0.88136 0.92521 0.77791 0.0
C522 C 0.90836 0.96612 0.77134 0.0
C523 C 0.89873 0.97915 0.73576 0.0
C524 C 0.92607 0.0162 0.72865 0.0
C525 C 0.96339 0.04005 0.75671 0.0
C526 C 0.97302 0.02733 0.79224 0.0
C527 C 0.94527 0.99093 0.79986 0.0
H528 H 0.98485 0.06837 0.7509 0.0
H529 H 0.72146 0.70278 0.81155 0.0
H530 H 0.19155 0.99058 0.17358 0.0
H531 H 0.18146 0.94731 0.22395 0.0
H532 H 0.31808 1.00114 0.27913 0.0
H533 H 0.32837 0.0433 0.22907 0.0
H534 H 0.29012 0.9158 0.28412 0.0
H535 H 0.23831 0.05345 0.30415 0.0
H536 H 0.18906 0.09994 0.28575 0.0
H537 H 0.0763 0.99601 0.28105 0.0
H538 H 0.12487 0.94905 0.29899 0.0
H539 H 0.23193 0.97289 0.49439 0.0
H540 H 0.25906 0.98851 0.43579 0.0
H541 H 0.21399 0.85086 0.37789 0.0
H542 H 0.1854 0.83521 0.43616 0.0
H543 H 0.19356 0.9712 0.37038 0.0
H544 H 0.27163 0.83492 0.29952 0.0
H545 H 0.32031 0.78891 0.31984 0.0
H546 H 0.37892 0.88772 0.42616 0.0
H547 H 0.33107 0.93456 0.40624 0.0
C548 C 0.21943 0.9923 0.19609 0.0
C549 C 0.26047 0.02063 0.19807 0.0
C550 C 0.21375 0.96757 0.2246 0.0
C551 C 0.24902 0.97144 0.25531 0.0
C552 C 0.29058 0.99754 0.25556 0.0
C553 C 0.29626 0.02197 0.22719 0.0
C554 C 0.24212 0.95425 0.29049 0.0
C555 C 0.26834 0.92704 0.30273 0.0
C556 C 0.21422 0.96964 0.31483 0.0
C557 C 0.18522 0.99793 0.30342 0.0
C558 C 0.20304 0.04067 0.29933 0.0
C559 C 0.17528 0.06703 0.28878 0.0
C560 C 0.12965 0.05101 0.28228 0.0
C561 C 0.11165 0.00852 0.28622 0.0
C562 C 0.13929 0.98206 0.29671 0.0
C563 C 0.22909 0.94574 0.46966 0.0
C564 C 0.20579 0.90304 0.46921 0.0
C565 C 0.24464 0.95471 0.43628 0.0
C566 C 0.23778 0.92095 0.40244 0.0
C567 C 0.21954 0.87733 0.4038 0.0
C568 C 0.20303 0.86846 0.43694 0.0
C569 C 0.2414 0.93245 0.36418 0.0
C570 C 0.21457 0.95887 0.35148 0.0
C571 C 0.26817 0.91573 0.33936 0.0
C572 C 0.29737 0.888 0.35156 0.0
C573 C 0.29499 0.84687 0.32718 0.0
C574 C 0.32244 0.82064 0.33864 0.0
C575 C 0.35257 0.83531 0.37434 0.0
C576 C 0.35542 0.8763 0.3986 0.0
C577 C 0.32807 0.90266 0.38728 0.0
H578 H 0.37379 0.81496 0.38315 0.0
H579 H 0.10825 0.07149 0.27415 0.0
H580 H 0.12329 0.30007 0.72594 0.0
H581 H 0.15925 0.2905 0.78871 0.0
H582 H 0.17762 0.16581 0.73035 0.0
H583 H 0.14187 0.17549 0.66673 0.0
H584 H 0.14501 0.17339 0.80936 0.0
H585 H 0.26016 0.23619 0.74543 0.0
H586 H 0.29564 0.28917 0.71004 0.0
H587 H 0.3009 0.39613 0.80678 0.0
H588 H 0.26481 0.34376 0.84254 0.0
H589 H 0.32015 0.16468 0.96171 0.0
H590 H 0.28135 0.16459 0.89649 0.0
H591 H 0.25509 0.28941 0.94341 0.0
H592 H 0.29219 0.28885 1.00953 0.0
H593 H 0.29012 0.27704 0.86847 0.0
H594 H 0.18401 0.21053 0.93678 0.0
H595 H 0.14388 0.15822 0.9699 0.0
H596 H 0.11593 0.05617 0.8644 0.0
H597 H 0.157 0.10725 0.8308 0.0
C598 C 0.13476 0.27048 0.72644 0.0
C599 C 0.13038 0.2387 0.6916 0.0
C600 C 0.1551 0.26505 0.76227 0.0
C601 C 0.17109 0.22764 0.76383 0.0
C602 C 0.16529 0.19486 0.72941 0.0
C603 C 0.14522 0.20052 0.69328 0.0
C604 C 0.1964 0.22479 0.80127 0.0
C605 C 0.17723 0.1951 0.82221 0.0
C606 C 0.23755 0.25452 0.81791 0.0
C607 C 0.25941 0.28606 0.79651 0.0
C608 C 0.26852 0.27101 0.75903 0.0
C609 C 0.28882 0.30094 0.73892 0.0
C610 C 0.30043 0.346 0.75611 0.0
C611 C 0.29185 0.36122 0.79348 0.0
C612 C 0.27151 0.33142 0.8137 0.0
C613 C 0.30682 0.19257 0.95808 0.0
C614 C 0.30887 0.22674 0.99068 0.0
C615 C 0.28424 0.19207 0.92094 0.0
C616 C 0.26442 0.22628 0.91572 0.0
C617 C 0.26963 0.26235 0.94737 0.0
C618 C 0.29125 0.26231 0.98487 0.0
C619 C 0.23925 0.22502 0.87687 0.0
C620 C 0.25833 0.25442 0.85566 0.0
C621 C 0.19806 0.19458 0.86015 0.0
C622 C 0.17517 0.16293 0.88139 0.0
C623 C 0.1708 0.17668 0.92085 0.0
C624 C 0.1472 0.14725 0.93965 0.0
C625 C 0.12748 0.10386 0.91934 0.0
C626 C 0.13121 0.0898 0.88014 0.0
C627 C 0.15479 0.11905 0.86123 0.0
H628 H 0.1094 0.08113 0.93396 0.0
H629 H 0.31615 0.36912 0.74049 0.0
H630 H 0.94505 0.15725 0.08601 0.0
H631 H 0.95625 0.1969 0.15464 0.0
H632 H 0.87476 0.08377 0.18104 0.0
H633 H 0.8635 0.04447 0.11245 0.0
H634 H 0.85148 0.16432 0.20717 0.0
H635 H 0.97898 0.10394 0.22797 0.0
H636 H 0.04709 0.08406 0.21325 0.0
H637 H 0.10311 0.21777 0.20987 0.0
H638 H 0.03526 0.23839 0.22476 0.0
H639 H 0.90139 0.22528 0.41577 0.0
H640 H 0.88492 0.19327 0.34539 0.0
H641 H 0.9845 0.29914 0.32764 0.0
H642 H 1.00391 0.32935 0.39914 0.0
H643 H 0.99756 0.22297 0.29573 0.0
H644 H 0.86659 0.28236 0.28563 0.0
H645 H 0.80044 0.29594 0.31042 0.0
H646 H 0.75039 0.15715 0.29806 0.0
H647 H 0.81565 0.14274 0.27223 0.0
C648 C 0.93044 0.14052 0.10658 0.0
C649 C 0.90477 0.09713 0.09403 0.0
C650 C 0.93673 0.16319 0.14574 0.0
C651 C 0.91659 0.14303 0.17284 0.0
C652 C 0.89089 0.09968 0.16053 0.0
C653 C 0.88512 0.07688 0.12139 0.0
C654 C 0.921 0.16818 0.21353 0.0
C655 C 0.88335 0.17711 0.22665 0.0
C656 C 0.96251 0.18508 0.23858 0.0
C657 C 1.00232 0.17269 0.22759 0.0
C658 C 0.00577 0.12899 0.22383 0.0
C659 C 0.04431 0.11763 0.2156 0.0
C660 C 0.07947 0.1497 0.21089 0.0
C661 C 0.07588 0.19303 0.21368 0.0
C662 C 0.03747 0.2046 0.22215 0.0
C663 C 0.91886 0.24258 0.39677 0.0
C664 C 0.95389 0.27977 0.41273 0.0
C665 C 0.90926 0.22429 0.35637 0.0
C666 C 0.93331 0.24392 0.33105 0.0
C667 C 0.96589 0.28327 0.34672 0.0
C668 C 0.97653 0.30081 0.38739 0.0
C669 C 0.9282 0.2205 0.2894 0.0
C670 C 0.96577 0.21142 0.27604 0.0
C671 C 0.88649 0.20314 0.26433 0.0
C672 C 0.84586 0.21152 0.27701 0.0
C673 C 0.84123 0.25477 0.28788 0.0
C674 C 0.80389 0.26259 0.30205 0.0
C675 C 0.77123 0.22743 0.3058 0.0
C676 C 0.77567 0.18434 0.29508 0.0
C677 C 0.81253 0.17628 0.2802 0.0
H678 H 0.74249 0.23355 0.31702 0.0
H679 H 0.10954 0.14098 0.20531 0.0
loop_
_geom_bond_atom_site_label_1
_geom_bond_atom_site_label_2
_geom_bond_distance
_geom_bond_site_symmetry_2
_ccdc_geom_bond_type
Tb0 O3 2.453 1_554 S
Tb0 O4 2.596 . S
Tb0 O5 2.374 . S
Tb0 O13 2.343 . S
Tb0 O15 2.353 . S
Tb0 O17 2.427 . S
Tb0 O18 2.513 . S
C1 O5 1.251 . S
C1 O7 1.263 . S
Tb2 O4 2.343 . S
Tb2 O7 2.353 . S
Tb2 O10 2.427 1_554 S
Tb2 O11 2.513 1_554 S
Tb2 O12 2.453 . S
Tb2 O13 2.596 . S
Tb2 O14 2.374 . S
O3 Tb0 2.453 1_556 S
O3 C19 1.245 . S
O4 Tb0 2.596 . S
O4 Tb2 2.343 . S
O4 C19 1.259 1_554 S
O5 Tb0 2.374 . S
O5 C1 1.251 . S
C6 O10 1.275 . S
C6 O11 1.246 . S
O7 C1 1.263 . S
O7 Tb2 2.353 . S
C8 O12 1.245 . S
C8 O13 1.259 . S
C9 O14 1.250 . S
C9 O15 1.263 . S
O10 Tb2 2.427 1_556 S
O10 C6 1.275 . S
O11 Tb2 2.513 1_556 S
O11 C6 1.246 . S
O12 Tb2 2.453 . S
O12 C8 1.245 . S
O13 Tb0 2.343 . S
O13 Tb2 2.596 . S
O13 C8 1.259 . S
O14 Tb2 2.374 . S
O14 C9 1.250 . S
O15 Tb0 2.353 . S
O15 C9 1.263 . S
C16 O17 1.275 . S
C16 O18 1.246 . S
O17 Tb0 2.427 . S
O17 C16 1.275 . S
O18 Tb0 2.513 . S
O18 C16 1.246 . S
C19 O3 1.245 . S
C19 O4 1.259 1_556 S
Tb20 O23 2.453 . S
Tb20 O24 2.596 . S
Tb20 O25 2.374 . S
Tb20 O33 2.343 . S
Tb20 O35 2.353 . S
Tb20 O37 2.427 . S
Tb20 O38 2.513 . S
C21 O25 1.251 . S
C21 O27 1.263 . S
Tb22 O24 2.343 1_655 S
Tb22 O27 2.353 1_655 S
Tb22 O30 2.427 . S
Tb22 O31 2.513 . S
Tb22 O32 2.453 . S
Tb22 O33 2.596 1_655 S
Tb22 O34 2.374 1_655 S
O23 Tb20 2.453 . S
O23 C39 1.245 . S
O24 Tb20 2.596 . S
O24 Tb22 2.343 1_455 S
O24 C39 1.259 . S
O25 Tb20 2.374 . S
O25 C21 1.251 . S
C26 O30 1.275 . S
C26 O31 1.246 . S
O27 C21 1.263 . S
O27 Tb22 2.353 1_455 S
C28 O32 1.245 . S
C28 O33 1.259 1_655 S
C29 O34 1.250 . S
C29 O35 1.263 . S
O30 Tb22 2.427 . S
O30 C26 1.275 . S
O31 Tb22 2.513 . S
O31 C26 1.246 . S
O32 Tb22 2.453 . S
O32 C28 1.245 . S
O33 Tb20 2.343 . S
O33 Tb22 2.596 1_455 S
O33 C28 1.259 1_455 S
O34 Tb22 2.374 1_455 S
O34 C29 1.250 . S
O35 Tb20 2.353 . S
O35 C29 1.263 . S
C36 O37 1.275 . S
C36 O38 1.246 . S
O37 Tb20 2.427 . S
O37 C36 1.275 . S
O38 Tb20 2.513 . S
O38 C36 1.246 . S
C39 O23 1.245 . S
C39 O24 1.259 . S
Tb40 O43 2.453 1_554 S
Tb40 O44 2.596 1_554 S
Tb40 O45 2.374 . S
Tb40 O53 2.343 1_565 S
Tb40 O55 2.353 1_554 S
Tb40 O57 2.427 . S
Tb40 O58 2.513 . S
C41 O45 1.251 1_545 S
C41 O47 1.263 . S
Tb42 O44 2.343 1_545 S
Tb42 O47 2.353 1_556 S
Tb42 O50 2.427 . S
Tb42 O51 2.513 . S
Tb42 O52 2.453 1_556 S
Tb42 O53 2.596 1_556 S
Tb42 O54 2.374 . S
O43 Tb40 2.453 1_556 S
O43 C59 1.245 . S
O44 Tb40 2.596 1_556 S
O44 Tb42 2.343 1_565 S
O44 C59 1.259 . S
O45 Tb40 2.374 . S
O45 C41 1.251 1_565 S
C46 O50 1.275 . S
C46 O51 1.246 . S
O47 C41 1.263 . S
O47 Tb42 2.353 1_554 S
C48 O52 1.245 . S
C48 O53 1.259 . S
C49 O54 1.250 . S
C49 O55 1.263 1_545 S
O50 Tb42 2.427 . S
O50 C46 1.275 . S
O51 Tb42 2.513 . S
O51 C46 1.246 . S
O52 Tb42 2.453 1_554 S
O52 C48 1.245 . S
O53 Tb40 2.343 1_545 S
O53 Tb42 2.596 1_554 S
O53 C48 1.259 . S
O54 Tb42 2.374 . S
O54 C49 1.250 . S
O55 Tb40 2.353 1_556 S
O55 C49 1.263 1_565 S
C56 O57 1.275 . S
C56 O58 1.246 . S
O57 Tb40 2.427 . S
O57 C56 1.275 . S
O58 Tb40 2.513 . S
O58 C56 1.246 . S
C59 O43 1.245 . S
C59 O44 1.259 . S
Tb60 O63 2.453 . S
Tb60 O64 2.596 . S
Tb60 O65 2.374 . S
Tb60 O73 2.343 . S
Tb60 O75 2.353 . S
Tb60 O77 2.427 . S
Tb60 O78 2.513 . S
C61 O65 1.251 . S
C61 O67 1.263 . S
Tb62 O64 2.338 1_655 S
Tb62 O67 2.350 1_655 S
Tb62 O70 2.428 . S
Tb62 O71 2.514 . S
Tb62 O72 2.454 . S
Tb62 O73 2.592 1_655 S
Tb62 O74 2.373 1_655 S
O63 Tb60 2.453 . S
O63 C79 1.245 . S
O64 Tb60 2.596 . S
O64 Tb62 2.338 1_455 S
O64 C79 1.259 . S
O65 Tb60 2.374 . S
O65 C61 1.251 . S
C66 O70 1.275 . S
C66 O71 1.246 . S
O67 C61 1.263 . S
O67 Tb62 2.350 1_455 S
C68 O72 1.245 1_455 S
C68 O73 1.259 . S
C69 O74 1.250 . S
C69 O75 1.263 . S
O70 Tb62 2.428 . S
O70 C66 1.275 . S
O71 Tb62 2.514 . S
O71 C66 1.246 . S
O72 Tb62 2.454 . S
O72 C68 1.245 1_655 S
O73 Tb60 2.343 . S
O73 Tb62 2.592 1_455 S
O73 C68 1.259 . S
O74 Tb62 2.373 1_455 S
O74 C69 1.250 . S
O75 Tb60 2.353 . S
O75 C69 1.263 . S
C76 O77 1.275 . S
C76 O78 1.246 . S
O77 Tb60 2.427 . S
O77 C76 1.275 . S
O78 Tb60 2.513 . S
O78 C76 1.246 . S
C79 O63 1.245 . S
C79 O64 1.259 . S
H80 C98 0.951 . S
H81 C100 0.951 . S
H82 C102 0.950 . S
H83 C103 0.950 . S
H84 C105 0.950 . S
H85 C108 0.950 . S
H86 C109 0.950 . S
H87 C111 0.950 . S
H88 C112 0.950 . S
H89 C113 0.951 . S
H90 C115 0.951 . S
H91 C117 0.950 . S
H92 C118 0.950 . S
H93 C120 0.950 . S
H94 C123 0.950 . S
H95 C124 0.950 . S
H96 C126 0.950 . S
H97 C127 0.950 . S
C98 H80 0.951 . S
C98 C99 1.366 . S
C98 C100 1.388 1_556 S
C99 C98 1.366 . S
C99 C103 1.385 1_565 S
C100 H81 0.951 . S
C100 C98 1.388 1_554 S
C100 C101 1.366 1_565 S
C101 C100 1.366 1_545 S
C101 C102 1.414 1_554 S
C101 C104 1.499 1_655 S
C102 H82 0.950 . S
C102 C101 1.414 1_556 S
C102 C103 1.374 . S
C103 H83 0.950 . S
C103 C99 1.385 1_545 S
C103 C102 1.374 . S
C104 C101 1.499 1_455 S
C104 C105 1.373 1_554 S
C104 C106 1.389 . S
C105 H84 0.950 . S
C105 C104 1.373 1_556 S
C105 C121 1.377 1_556 S
C106 C104 1.389 . S
C106 C107 1.524 . S
C106 C120 1.377 . S
C107 C106 1.524 . S
C107 C108 1.397 1_455 S
C107 C112 1.363 1_545 S
C108 H85 0.950 . S
C108 C107 1.397 1_655 S
C108 C109 1.334 . S
C109 H86 0.950 . S
C109 C108 1.334 . S
C109 C110 1.287 . S
C110 C109 1.287 . S
C110 C111 1.524 1_645 S
C110 H129 0.913 1_545 S
C111 H87 0.950 . S
C111 C110 1.524 1_465 S
C111 C112 1.415 . S
C112 H88 0.950 . S
C112 C107 1.363 1_565 S
C112 C111 1.415 . S
C113 H89 0.951 . S
C113 C114 1.366 . S
C113 C115 1.388 . S
C114 C113 1.366 . S
C114 C118 1.385 . S
C115 H90 0.951 . S
C115 C113 1.388 . S
C115 C116 1.366 . S
C116 C115 1.366 . S
C116 C117 1.414 . S
C116 C119 1.499 . S
C117 H91 0.950 . S
C117 C116 1.414 . S
C117 C118 1.374 . S
C118 H92 0.950 . S
C118 C114 1.385 . S
C118 C117 1.374 . S
C119 C116 1.499 . S
C119 C120 1.373 . S
C119 C121 1.389 . S
C120 H93 0.950 . S
C120 C106 1.377 . S
C120 C119 1.373 . S
C121 C105 1.377 1_554 S
C121 C119 1.389 . S
C121 C122 1.524 1_554 S
C122 C121 1.524 1_556 S
C122 C123 1.397 . S
C122 C127 1.363 . S
C123 H94 0.950 . S
C123 C122 1.397 . S
C123 C124 1.334 . S
C124 H95 0.950 . S
C124 C123 1.334 . S
C124 C125 1.287 . S
C125 C124 1.287 . S
C125 C126 1.524 . S
C125 H128 0.999 . S
C126 H96 0.950 . S
C126 C125 1.524 . S
C126 C127 1.415 . S
C127 H97 0.950 . S
C127 C122 1.363 . S
C127 C126 1.415 . S
H128 C125 0.999 . S
H129 C110 0.913 1_565 S
H130 C148 0.951 1_655 S
H131 C150 0.951 1_655 S
H132 C152 0.950 . S
H133 C153 0.950 . S
H134 C155 0.950 . S
H135 C158 0.950 . S
H136 C159 0.950 . S
H137 C161 0.950 . S
H138 C162 0.950 1_545 S
H139 C163 0.951 . S
H140 C165 0.951 . S
H141 C167 0.938 1_655 S
H142 C168 0.950 . S
H143 C170 0.950 . S
H144 C173 0.950 . S
H145 C174 0.950 . S
H146 C176 0.950 . S
H147 C177 0.950 . S
C148 H130 0.951 1_455 S
C148 C149 1.366 . S
C148 C150 1.388 . S
C149 C148 1.366 . S
C149 C153 1.385 . S
C150 H131 0.951 1_455 S
C150 C148 1.388 . S
C150 C151 1.366 . S
C151 C150 1.366 . S
C151 C152 1.414 . S
C151 C154 1.499 1_565 S
C152 H132 0.950 . S
C152 C151 1.414 . S
C152 C153 1.374 . S
C153 H133 0.950 . S
C153 C149 1.385 . S
C153 C152 1.374 . S
C154 C151 1.499 1_545 S
C154 C155 1.373 . S
C154 C156 1.389 . S
C155 H134 0.950 . S
C155 C154 1.373 . S
C155 C171 1.377 . S
C156 C154 1.389 . S
C156 C157 1.536 . S
C156 C170 1.377 . S
C157 C156 1.536 . S
C157 C158 1.383 1_545 S
C157 C162 1.368 1_445 S
C158 H135 0.950 . S
C158 C157 1.383 1_565 S
C158 C159 1.334 . S
C159 H136 0.950 . S
C159 C158 1.334 . S
C159 C160 1.287 1_455 S
C160 C159 1.287 1_655 S
C160 C161 1.524 . S
C160 H179 0.913 . S
C161 H137 0.950 . S
C161 C160 1.524 . S
C161 C162 1.415 . S
C162 H138 0.950 1_565 S
C162 C157 1.368 1_665 S
C162 C161 1.415 . S
C163 H139 0.951 . S
C163 C164 1.366 . S
C163 C165 1.388 . S
C164 C163 1.366 . S
C164 C168 1.385 1_455 S
C165 H140 0.951 . S
C165 C163 1.388 . S
C165 C166 1.366 . S
C166 C165 1.366 . S
C166 C167 1.431 . S
C166 C169 1.499 . S
C167 H141 0.938 1_455 S
C167 C166 1.431 . S
C167 C168 1.369 1_455 S
C168 H142 0.950 . S
C168 C164 1.385 1_655 S
C168 C167 1.369 1_655 S
C169 C166 1.499 . S
C169 C170 1.373 . S
C169 C171 1.389 . S
C170 H143 0.950 . S
C170 C156 1.377 . S
C170 C169 1.373 . S
C171 C155 1.377 . S
C171 C169 1.389 . S
C171 C172 1.524 . S
C172 C171 1.524 . S
C172 C173 1.397 . S
C172 C177 1.363 . S
C173 H144 0.950 . S
C173 C172 1.397 . S
C173 C174 1.334 . S
C174 H145 0.950 . S
C174 C173 1.334 . S
C174 C175 1.287 . S
C175 C174 1.287 . S
C175 C176 1.524 . S
C175 H178 0.999 . S
C176 H146 0.950 . S
C176 C175 1.524 . S
C176 C177 1.415 . S
C177 H147 0.950 . S
C177 C172 1.363 . S
C177 C176 1.415 . S
H178 C175 0.999 . S
H179 C160 0.913 . S
H180 C198 0.951 . S
H181 C200 0.951 . S
H182 C202 0.950 . S
H183 C203 0.950 . S
H184 C205 0.950 . S
H185 C208 0.950 . S
H186 C209 0.950 . S
H187 C211 0.950 . S
H188 C212 0.950 . S
H189 C213 0.951 . S
H190 C215 0.951 . S
H191 C217 0.950 . S
H192 C218 0.950 . S
H193 C220 0.950 . S
H194 C223 0.950 . S
H195 C224 0.950 . S
H196 C226 0.950 1_565 S
H197 C227 0.950 1_565 S
C198 H180 0.951 . S
C198 C199 1.366 . S
C198 C200 1.388 . S
C199 C198 1.366 . S
C199 C203 1.385 1_544 S
C200 H181 0.951 . S
C200 C198 1.388 . S
C200 C201 1.366 . S
C201 C200 1.366 . S
C201 C202 1.414 1_544 S
C201 C204 1.499 . S
C202 H182 0.950 . S
C202 C201 1.414 1_566 S
C202 C203 1.374 . S
C203 H183 0.950 . S
C203 C199 1.385 1_566 S
C203 C202 1.374 . S
C204 C201 1.499 . S
C204 C205 1.373 1_554 S
C204 C206 1.389 . S
C205 H184 0.950 . S
C205 C204 1.373 1_556 S
C205 C221 1.377 . S
C206 C204 1.389 . S
C206 C207 1.524 . S
C206 C220 1.377 . S
C207 C206 1.524 . S
C207 C208 1.397 . S
C207 C212 1.363 . S
C208 H185 0.950 . S
C208 C207 1.397 . S
C208 C209 1.334 . S
C209 H186 0.950 . S
C209 C208 1.334 . S
C209 C210 1.287 . S
C210 C209 1.287 . S
C210 C211 1.524 . S
C210 H229 0.913 . S
C211 H187 0.950 . S
C211 C210 1.524 . S
C211 C212 1.415 . S
C212 H188 0.950 . S
C212 C207 1.363 . S
C212 C211 1.415 . S
C213 H189 0.951 . S
C213 C214 1.366 . S
C213 C215 1.388 . S
C214 C213 1.366 . S
C214 C218 1.385 . S
C215 H190 0.951 . S
C215 C213 1.388 . S
C215 C216 1.366 . S
C216 C215 1.366 . S
C216 C217 1.414 . S
C216 C219 1.499 . S
C217 H191 0.950 . S
C217 C216 1.414 . S
C217 C218 1.374 . S
C218 H192 0.950 . S
C218 C214 1.385 . S
C218 C217 1.374 . S
C219 C216 1.499 . S
C219 C220 1.373 . S
C219 C221 1.389 1_554 S
C220 H193 0.950 . S
C220 C206 1.377 . S
C220 C219 1.373 . S
C221 C205 1.377 . S
C221 C219 1.389 1_556 S
C221 C222 1.524 . S
C222 C221 1.524 . S
C222 C223 1.397 . S
C222 C227 1.363 . S
C223 H194 0.950 . S
C223 C222 1.397 . S
C223 C224 1.334 . S
C224 H195 0.950 . S
C224 C223 1.334 . S
C224 C225 1.287 . S
C225 C224 1.287 . S
C225 C226 1.524 . S
C225 H228 0.999 . S
C226 H196 0.950 1_545 S
C226 C225 1.524 . S
C226 C227 1.415 . S
C227 H197 0.950 1_545 S
C227 C222 1.363 . S
C227 C226 1.415 . S
H228 C225 0.999 . S
H229 C210 0.913 . S
H230 C248 0.951 . S
H231 C250 0.951 . S
H232 C252 0.950 . S
H233 C253 0.950 . S
H234 C255 0.950 . S
H235 C258 0.950 . S
H236 C259 0.950 . S
H237 C261 0.950 . S
H238 C262 0.950 . S
H239 C263 0.951 . S
H240 C265 0.951 . S
H241 C267 0.950 . S
H242 C268 0.950 . S
H243 C270 0.950 . S
H244 C273 0.950 . S
H245 C274 0.950 . S
H246 C276 0.950 . S
H247 C277 0.950 . S
C248 H230 0.951 . S
C248 C249 1.366 . S
C248 C250 1.388 . S
C249 C248 1.366 . S
C249 C253 1.385 . S
C250 H231 0.951 . S
C250 C248 1.388 . S
C250 C251 1.366 . S
C251 C250 1.366 . S
C251 C252 1.414 . S
C251 C254 1.499 . S
C252 H232 0.950 . S
C252 C251 1.414 . S
C252 C253 1.374 . S
C253 H233 0.950 . S
C253 C249 1.385 . S
C253 C252 1.374 . S
C254 C251 1.499 . S
C254 C255 1.373 . S
C254 C256 1.389 . S
C255 H234 0.950 . S
C255 C254 1.373 . S
C255 C271 1.377 . S
C256 C254 1.389 . S
C256 C257 1.524 . S
C256 C270 1.377 . S
C257 C256 1.524 . S
C257 C258 1.397 . S
C257 C262 1.363 . S
C258 H235 0.950 . S
C258 C257 1.397 . S
C258 C259 1.334 . S
C259 H236 0.950 . S
C259 C258 1.334 . S
C259 C260 1.287 . S
C260 C259 1.287 . S
C260 C261 1.524 . S
C260 H279 0.913 . S
C261 H237 0.950 . S
C261 C260 1.524 . S
C261 C262 1.415 . S
C262 H238 0.950 . S
C262 C257 1.363 . S
C262 C261 1.415 . S
C263 H239 0.951 . S
C263 C264 1.366 . S
C263 C265 1.388 . S
C264 C263 1.366 . S
C264 C268 1.385 . S
C265 H240 0.951 . S
C265 C263 1.388 . S
C265 C266 1.366 . S
C266 C265 1.366 . S
C266 C267 1.414 . S
C266 C269 1.499 . S
C267 H241 0.950 . S
C267 C266 1.414 . S
C267 C268 1.374 . S
C268 H242 0.950 . S
C268 C264 1.385 . S
C268 C267 1.374 . S
C269 C266 1.499 . S
C269 C270 1.373 . S
C269 C271 1.389 . S
C270 H243 0.950 . S
C270 C256 1.377 . S
C270 C269 1.373 . S
C271 C255 1.377 . S
C271 C269 1.389 . S
C271 C272 1.524 . S
C272 C271 1.524 . S
C272 C273 1.397 1_455 S
C272 C277 1.363 . S
C273 H244 0.950 . S
C273 C272 1.397 1_655 S
C273 C274 1.334 . S
C274 H245 0.950 . S
C274 C273 1.334 . S
C274 C275 1.287 . S
C275 C274 1.287 . S
C275 C276 1.524 1_655 S
C275 H278 0.999 . S
C276 H246 0.950 . S
C276 C275 1.524 1_455 S
C276 C277 1.415 . S
C277 H247 0.950 . S
C277 C272 1.363 . S
C277 C276 1.415 . S
H278 C275 0.999 . S
H279 C260 0.913 . S
H280 C298 0.951 . S
H281 C300 0.951 . S
H282 C302 0.950 . S
H283 C303 0.950 . S
H284 C305 0.950 . S
H285 C308 0.950 . S
H286 C309 0.950 . S
H287 C311 0.950 . S
H288 C312 0.950 . S
H289 C313 0.951 . S
H290 C315 0.951 . S
H291 C317 0.950 . S
H292 C318 0.950 . S
H293 C320 0.950 . S
H294 C323 0.950 . S
H295 C324 0.950 . S
H296 C326 0.950 . S
H297 C327 0.950 . S
C298 H280 0.951 . S
C298 C299 1.366 . S
C298 C300 1.388 . S
C299 C298 1.366 . S
C299 C303 1.385 . S
C300 H281 0.951 . S
C300 C298 1.388 . S
C300 C301 1.366 . S
C301 C300 1.366 . S
C301 C302 1.414 . S
C301 C304 1.499 . S
C302 H282 0.950 . S
C302 C301 1.414 . S
C302 C303 1.374 . S
C303 H283 0.950 . S
C303 C299 1.385 . S
C303 C302 1.374 . S
C304 C301 1.499 . S
C304 C305 1.373 . S
C304 C306 1.389 . S
C305 H284 0.950 . S
C305 C304 1.373 . S
C305 C321 1.377 . S
C306 C304 1.389 . S
C306 C307 1.524 . S
C306 C320 1.377 . S
C307 C306 1.524 . S
C307 C308 1.397 . S
C307 C312 1.363 . S
C308 H285 0.950 . S
C308 C307 1.397 . S
C308 C309 1.334 . S
C309 H286 0.950 . S
C309 C308 1.334 . S
C309 C310 1.287 . S
C310 C309 1.287 . S
C310 C311 1.524 . S
C310 H329 0.913 . S
C311 H287 0.950 . S
C311 C310 1.524 . S
C311 C312 1.415 . S
C312 H288 0.950 . S
C312 C307 1.363 . S
C312 C311 1.415 . S
C313 H289 0.951 . S
C313 C314 1.366 . S
C313 C315 1.388 . S
C314 C313 1.366 . S
C314 C318 1.385 . S
C315 H290 0.951 . S
C315 C313 1.388 . S
C315 C316 1.366 . S
C316 C315 1.366 . S
C316 C317 1.414 . S
C316 C319 1.499 . S
C317 H291 0.950 . S
C317 C316 1.414 . S
C317 C318 1.374 . S
C318 H292 0.950 . S
C318 C314 1.385 . S
C318 C317 1.374 . S
C319 C316 1.499 . S
C319 C320 1.373 . S
C319 C321 1.389 . S
C320 H293 0.950 . S
C320 C306 1.377 . S
C320 C319 1.373 . S
C321 C305 1.377 . S
C321 C319 1.389 . S
C321 C322 1.524 . S
C322 C321 1.524 . S
C322 C323 1.397 . S
C322 C327 1.363 . S
C323 H294 0.950 . S
C323 C322 1.397 . S
C323 C324 1.334 . S
C324 H295 0.950 . S
C324 C323 1.334 . S
C324 C325 1.287 . S
C325 C324 1.287 . S
C325 C326 1.524 . S
C325 H328 0.999 . S
C326 H296 0.950 . S
C326 C325 1.524 . S
C326 C327 1.415 . S
C327 H297 0.950 . S
C327 C322 1.363 . S
C327 C326 1.415 . S
H328 C325 0.999 . S
H329 C310 0.913 . S
H330 C348 0.951 . S
H331 C350 0.951 . S
H332 C352 0.950 . S
H333 C353 0.950 . S
H334 C355 0.950 . S
H335 C358 0.950 . S
H336 C359 0.950 . S
H337 C361 0.950 . S
H338 C362 0.950 . S
H339 C363 0.951 . S
H340 C365 0.951 . S
H341 C367 0.950 . S
H342 C368 0.950 . S
H343 C370 0.950 . S
H344 C373 0.950 . S
H345 C374 0.950 . S
H346 C376 0.950 . S
H347 C377 0.950 . S
C348 H330 0.951 . S
C348 C349 1.366 . S
C348 C350 1.388 . S
C349 C348 1.366 . S
C349 C353 1.385 . S
C350 H331 0.951 . S
C350 C348 1.388 . S
C350 C351 1.366 . S
C351 C350 1.366 . S
C351 C352 1.414 . S
C351 C354 1.499 . S
C352 H332 0.950 . S
C352 C351 1.414 . S
C352 C353 1.374 . S
C353 H333 0.950 . S
C353 C349 1.385 . S
C353 C352 1.374 . S
C354 C351 1.499 . S
C354 C355 1.373 . S
C354 C356 1.389 . S
C355 H334 0.950 . S
C355 C354 1.373 . S
C355 C371 1.377 . S
C356 C354 1.389 . S
C356 C357 1.524 . S
C356 C370 1.377 . S
C357 C356 1.524 . S
C357 C358 1.397 . S
C357 C362 1.363 . S
C358 H335 0.950 . S
C358 C357 1.397 . S
C358 C359 1.334 . S
C359 H336 0.950 . S
C359 C358 1.334 . S
C359 C360 1.287 . S
C360 C359 1.287 . S
C360 C361 1.524 . S
C360 H379 0.913 . S
C361 H337 0.950 . S
C361 C360 1.524 . S
C361 C362 1.415 . S
C362 H338 0.950 . S
C362 C357 1.363 . S
C362 C361 1.415 . S
C363 H339 0.951 . S
C363 C364 1.366 . S
C363 C365 1.388 . S
C364 C363 1.366 . S
C364 C368 1.385 . S
C365 H340 0.951 . S
C365 C363 1.388 . S
C365 C366 1.366 . S
C366 C365 1.366 . S
C366 C367 1.414 . S
C366 C369 1.499 . S
C367 H341 0.950 . S
C367 C366 1.414 . S
C367 C368 1.374 . S
C368 H342 0.950 . S
C368 C364 1.385 . S
C368 C367 1.374 . S
C369 C366 1.499 . S
C369 C370 1.373 . S
C369 C371 1.389 . S
C370 H343 0.950 . S
C370 C356 1.377 . S
C370 C369 1.373 . S
C371 C355 1.377 . S
C371 C369 1.389 . S
C371 C372 1.524 . S
C372 C371 1.524 . S
C372 C373 1.397 . S
C372 C377 1.363 . S
C373 H344 0.950 . S
C373 C372 1.397 . S
C373 C374 1.334 1_655 S
C374 H345 0.950 . S
C374 C373 1.334 1_455 S
C374 C375 1.287 . S
C375 C374 1.287 . S
C375 C376 1.524 . S
C375 H378 0.999 . S
C376 H346 0.950 . S
C376 C375 1.524 . S
C376 C377 1.415 1_455 S
C377 H347 0.950 . S
C377 C372 1.363 . S
C377 C376 1.415 1_655 S
H378 C375 0.999 . S
H379 C360 0.913 . S
H380 C398 0.951 . S
H381 C400 0.951 . S
H382 C402 0.950 . S
H383 C403 0.950 1_455 S
H384 C405 0.950 . S
H385 C408 0.950 . S
H386 C409 0.950 . S
H387 C411 0.950 . S
H388 C412 0.950 . S
H389 C413 0.951 . S
H390 C415 0.951 . S
H391 C417 0.950 . S
H392 C418 0.950 . S
H393 C420 0.950 . S
H394 C423 0.950 . S
H395 C424 0.950 . S
H396 C426 0.950 1_545 S
H397 C427 0.950 . S
C398 H380 0.951 . S
C398 C399 1.366 . S
C398 C400 1.388 . S
C399 C398 1.366 . S
C399 C403 1.385 . S
C400 H381 0.951 . S
C400 C398 1.388 . S
C400 C401 1.366 . S
C401 C400 1.366 . S
C401 C402 1.414 . S
C401 C404 1.499 . S
C402 H382 0.950 . S
C402 C401 1.414 . S
C402 C403 1.374 . S
C403 H383 0.950 1_655 S
C403 C399 1.385 . S
C403 C402 1.374 . S
C404 C401 1.499 . S
C404 C405 1.373 . S
C404 C406 1.389 . S
C405 H384 0.950 . S
C405 C404 1.373 . S
C405 C421 1.377 . S
C406 C404 1.389 . S
C406 C407 1.524 . S
C406 C420 1.377 . S
C407 C406 1.524 . S
C407 C408 1.397 1_655 S
C407 C412 1.363 . S
C408 H385 0.950 . S
C408 C407 1.397 1_455 S
C408 C409 1.334 . S
C409 H386 0.950 . S
C409 C408 1.334 . S
C409 C410 1.287 . S
C410 C409 1.287 . S
C410 C411 1.524 . S
C410 H429 0.913 . S
C411 H387 0.950 . S
C411 C410 1.524 . S
C411 C412 1.415 1_455 S
C412 H388 0.950 . S
C412 C407 1.363 . S
C412 C411 1.415 1_655 S
C413 H389 0.951 . S
C413 C414 1.366 . S
C413 C415 1.388 . S
C414 C413 1.366 . S
C414 C418 1.385 . S
C415 H390 0.951 . S
C415 C413 1.388 . S
C415 C416 1.366 . S
C416 C415 1.366 . S
C416 C417 1.414 . S
C416 C419 1.499 . S
C417 H391 0.950 . S
C417 C416 1.414 . S
C417 C418 1.374 . S
C418 H392 0.950 . S
C418 C414 1.385 . S
C418 C417 1.374 . S
C419 C416 1.499 . S
C419 C420 1.373 . S
C419 C421 1.389 . S
C420 H393 0.950 . S
C420 C406 1.377 . S
C420 C419 1.373 . S
C421 C405 1.377 . S
C421 C419 1.389 . S
C421 C422 1.524 . S
C422 C421 1.524 . S
C422 C423 1.397 . S
C422 C427 1.363 . S
C423 H394 0.950 . S
C423 C422 1.397 . S
C423 C424 1.334 . S
C424 H395 0.950 . S
C424 C423 1.334 . S
C424 C425 1.287 . S
C425 C424 1.287 . S
C425 C426 1.524 . S
C425 H428 0.999 . S
C426 H396 0.950 1_565 S
C426 C425 1.524 . S
C426 C427 1.415 . S
C427 H397 0.950 . S
C427 C422 1.363 . S
C427 C426 1.415 . S
H428 C425 0.999 . S
H429 C410 0.913 . S
H430 C448 0.951 . S
H431 C450 0.951 . S
H432 C452 0.950 . S
H433 C453 0.950 . S
H434 C455 0.950 . S
H435 C458 0.950 . S
H436 C459 0.950 1_565 S
H437 C461 0.950 . S
H438 C462 0.950 . S
H439 C463 0.951 1_565 S
H440 C465 0.951 . S
H441 C467 0.950 . S
H442 C468 0.950 . S
H443 C470 0.950 . S
H444 C473 0.950 . S
H445 C474 0.950 . S
H446 C476 0.950 . S
H447 C477 0.950 . S
C448 H430 0.951 . S
C448 C449 1.366 . S
C448 C450 1.388 . S
C449 C448 1.366 . S
C449 C453 1.385 . S
C450 H431 0.951 . S
C450 C448 1.388 . S
C450 C451 1.366 . S
C451 C450 1.366 . S
C451 C452 1.414 . S
C451 C454 1.499 . S
C452 H432 0.950 . S
C452 C451 1.414 . S
C452 C453 1.374 . S
C453 H433 0.950 . S
C453 C449 1.385 . S
C453 C452 1.374 . S
C454 C451 1.499 . S
C454 C455 1.373 . S
C454 C456 1.389 . S
C455 H434 0.950 . S
C455 C454 1.373 . S
C455 C471 1.377 . S
C456 C454 1.389 . S
C456 C457 1.524 1_565 S
C456 C470 1.377 1_565 S
C457 C456 1.524 1_545 S
C457 C458 1.397 1_545 S
C457 C462 1.363 . S
C458 H435 0.950 . S
C458 C457 1.397 1_565 S
C458 C459 1.334 1_565 S
C459 H436 0.950 1_545 S
C459 C458 1.334 1_545 S
C459 C460 1.287 . S
C460 C459 1.287 . S
C460 C461 1.524 . S
C460 H479 0.913 . S
C461 H437 0.950 . S
C461 C460 1.524 . S
C461 C462 1.415 . S
C462 H438 0.950 . S
C462 C457 1.363 . S
C462 C461 1.415 . S
C463 H439 0.951 1_545 S
C463 C464 1.366 . S
C463 C465 1.388 1_545 S
C464 C463 1.366 . S
C464 C468 1.385 . S
C465 H440 0.951 . S
C465 C463 1.388 1_565 S
C465 C466 1.366 1_565 S
C466 C465 1.366 1_545 S
C466 C467 1.414 . S
C466 C469 1.499 1_545 S
C467 H441 0.950 . S
C467 C466 1.414 . S
C467 C468 1.374 . S
C468 H442 0.950 . S
C468 C464 1.385 . S
C468 C467 1.374 . S
C469 C466 1.499 1_565 S
C469 C470 1.373 1_565 S
C469 C471 1.389 . S
C470 H443 0.950 . S
C470 C456 1.377 1_545 S
C470 C469 1.373 1_545 S
C471 C455 1.377 . S
C471 C469 1.389 . S
C471 C472 1.524 . S
C472 C471 1.524 . S
C472 C473 1.397 . S
C472 C477 1.363 . S
C473 H444 0.950 . S
C473 C472 1.397 . S
C473 C474 1.334 . S
C474 H445 0.950 . S
C474 C473 1.334 . S
C474 C475 1.287 . S
C475 C474 1.287 . S
C475 C476 1.524 . S
C475 H478 0.999 . S
C476 H446 0.950 . S
C476 C475 1.524 . S
C476 C477 1.415 . S
C477 H447 0.950 . S
C477 C472 1.363 . S
C477 C476 1.415 . S
H478 C475 0.999 . S
H479 C460 0.913 . S
H480 C498 0.951 . S
H481 C500 0.951 . S
H482 C502 0.950 . S
H483 C503 0.950 . S
H484 C505 0.950 . S
H485 C508 0.950 . S
H486 C509 0.950 . S
H487 C511 0.950 . S
H488 C512 0.950 . S
H489 C513 0.951 . S
H490 C515 0.951 1_455 S
H491 C517 0.950 . S
H492 C518 0.950 . S
H493 C520 0.950 . S
H494 C523 0.950 . S
H495 C524 0.950 . S
H496 C526 0.950 . S
H497 C527 0.943 1_565 S
C498 H480 0.951 . S
C498 C499 1.366 . S
C498 C500 1.388 . S
C499 C498 1.366 . S
C499 C503 1.385 . S
C500 H481 0.951 . S
C500 C498 1.388 . S
C500 C501 1.366 . S
C501 C500 1.366 . S
C501 C502 1.414 . S
C501 C504 1.499 . S
C502 H482 0.950 . S
C502 C501 1.414 . S
C502 C503 1.374 . S
C503 H483 0.950 . S
C503 C499 1.385 . S
C503 C502 1.374 . S
C504 C501 1.499 . S
C504 C505 1.373 . S
C504 C506 1.389 . S
C505 H484 0.950 . S
C505 C504 1.373 . S
C505 C521 1.377 . S
C506 C504 1.389 . S
C506 C507 1.524 . S
C506 C520 1.377 . S
C507 C506 1.524 . S
C507 C508 1.397 . S
C507 C512 1.363 . S
C508 H485 0.950 . S
C508 C507 1.397 . S
C508 C509 1.334 . S
C509 H486 0.950 . S
C509 C508 1.334 . S
C509 C510 1.287 . S
C510 C509 1.287 . S
C510 C511 1.524 . S
C510 H529 0.913 . S
C511 H487 0.950 . S
C511 C510 1.524 . S
C511 C512 1.415 . S
C512 H488 0.950 . S
C512 C507 1.363 . S
C512 C511 1.415 . S
C513 H489 0.951 . S
C513 C514 1.366 1_455 S
C513 C515 1.388 1_455 S
C514 C513 1.366 1_655 S
C514 C518 1.385 . S
C515 H490 0.951 1_655 S
C515 C513 1.388 1_655 S
C515 C516 1.366 . S
C516 C515 1.366 . S
C516 C517 1.414 . S
C516 C519 1.499 . S
C517 H491 0.950 . S
C517 C516 1.414 . S
C517 C518 1.374 . S
C518 H492 0.950 . S
C518 C514 1.385 . S
C518 C517 1.374 . S
C519 C516 1.499 . S
C519 C520 1.373 . S
C519 C521 1.389 . S
C520 H493 0.950 . S
C520 C506 1.377 . S
C520 C519 1.373 . S
C521 C505 1.377 . S
C521 C519 1.389 . S
C521 C522 1.524 . S
C522 C521 1.524 . S
C522 C523 1.397 . S
C522 C527 1.359 1_665 S
C523 H494 0.950 . S
C523 C522 1.397 . S
C523 C524 1.334 1_565 S
C524 H495 0.950 . S
C524 C523 1.334 1_545 S
C524 C525 1.287 1_655 S
C525 C524 1.287 1_455 S
C525 C526 1.524 . S
C525 H528 0.999 . S
C526 H496 0.950 . S
C526 C525 1.524 . S
C526 C527 1.426 . S
C527 H497 0.943 1_545 S
C527 C522 1.359 1_445 S
C527 C526 1.426 . S
H528 C525 0.999 . S
H529 C510 0.913 . S
H530 C548 0.951 . S
H531 C550 0.951 . S
H532 C552 0.950 . S
H533 C553 0.950 . S
H534 C555 0.950 . S
H535 C558 0.950 . S
H536 C559 0.950 . S
H537 C561 0.950 1_565 S
H538 C562 0.950 . S
H539 C563 0.951 . S
H540 C565 0.951 . S
H541 C567 0.950 . S
H542 C568 0.950 . S
H543 C570 0.950 . S
H544 C573 0.950 . S
H545 C574 0.950 . S
H546 C576 0.950 . S
H547 C577 0.950 . S
C548 H530 0.951 . S
C548 C549 1.366 . S
C548 C550 1.388 1_545 S
C549 C548 1.366 . S
C549 C553 1.385 . S
C550 H531 0.951 . S
C550 C548 1.388 1_565 S
C550 C551 1.366 1_565 S
C551 C550 1.366 1_545 S
C551 C552 1.414 . S
C551 C554 1.499 1_545 S
C552 H532 0.950 . S
C552 C551 1.414 . S
C552 C553 1.374 . S
C553 H533 0.950 . S
C553 C549 1.385 . S
C553 C552 1.374 . S
C554 C551 1.499 1_565 S
C554 C555 1.373 . S
C554 C556 1.389 . S
C555 H534 0.950 . S
C555 C554 1.373 . S
C555 C571 1.377 . S
C556 C554 1.389 . S
C556 C557 1.524 1_565 S
C556 C570 1.377 . S
C557 C556 1.524 1_545 S
C557 C558 1.397 . S
C557 C562 1.363 1_545 S
C558 H535 0.950 . S
C558 C557 1.397 . S
C558 C559 1.334 . S
C559 H536 0.950 . S
C559 C558 1.334 . S
C559 C560 1.287 . S
C560 C559 1.287 . S
C560 C561 1.524 . S
C560 H579 0.913 . S
C561 H537 0.950 1_545 S
C561 C560 1.524 . S
C561 C562 1.415 1_545 S
C562 H538 0.950 . S
C562 C557 1.363 1_565 S
C562 C561 1.415 1_565 S
C563 H539 0.951 . S
C563 C564 1.366 . S
C563 C565 1.388 . S
C564 C563 1.366 . S
C564 C568 1.385 . S
C565 H540 0.951 . S
C565 C563 1.388 . S
C565 C566 1.366 . S
C566 C565 1.366 . S
C566 C567 1.414 . S
C566 C569 1.499 . S
C567 H541 0.950 . S
C567 C566 1.414 . S
C567 C568 1.374 . S
C568 H542 0.950 . S
C568 C564 1.385 . S
C568 C567 1.374 . S
C569 C566 1.499 . S
C569 C570 1.373 . S
C569 C571 1.389 . S
C570 H543 0.950 . S
C570 C556 1.377 . S
C570 C569 1.373 . S
C571 C555 1.377 . S
C571 C569 1.389 . S
C571 C572 1.524 . S
C572 C571 1.524 . S
C572 C573 1.397 . S
C572 C577 1.363 . S
C573 H544 0.950 . S
C573 C572 1.397 . S
C573 C574 1.334 . S
C574 H545 0.950 . S
C574 C573 1.334 . S
C574 C575 1.287 . S
C575 C574 1.287 . S
C575 C576 1.524 . S
C575 H578 0.999 . S
C576 H546 0.950 . S
C576 C575 1.524 . S
C576 C577 1.415 . S
C577 H547 0.950 . S
C577 C572 1.363 . S
C577 C576 1.415 . S
H578 C575 0.999 . S
H579 C560 0.913 . S
H580 C598 0.951 . S
H581 C600 0.951 . S
H582 C602 0.950 . S
H583 C603 0.950 . S
H584 C605 0.950 . S
H585 C608 0.950 . S
H586 C609 0.950 . S
H587 C611 0.950 . S
H588 C612 0.950 . S
H589 C613 0.951 . S
H590 C615 0.951 . S
H591 C617 0.950 . S
H592 C618 0.950 . S
H593 C620 0.950 . S
H594 C623 0.950 . S
H595 C624 0.950 . S
H596 C626 0.950 . S
H597 C627 0.950 . S
C598 H580 0.951 . S
C598 C599 1.366 . S
C598 C600 1.388 . S
C599 C598 1.366 . S
C599 C603 1.385 . S
C600 H581 0.951 . S
C600 C598 1.388 . S
C600 C601 1.366 . S
C601 C600 1.366 . S
C601 C602 1.414 . S
C601 C604 1.499 . S
C602 H582 0.950 . S
C602 C601 1.414 . S
C602 C603 1.374 . S
C603 H583 0.950 . S
C603 C599 1.385 . S
C603 C602 1.374 . S
C604 C601 1.499 . S
C604 C605 1.373 . S
C604 C606 1.389 . S
C605 H584 0.950 . S
C605 C604 1.373 . S
C605 C621 1.377 . S
C606 C604 1.389 . S
C606 C607 1.524 . S
C606 C620 1.377 . S
C607 C606 1.524 . S
C607 C608 1.397 . S
C607 C612 1.363 . S
C608 H585 0.950 . S
C608 C607 1.397 . S
C608 C609 1.334 . S
C609 H586 0.950 . S
C609 C608 1.334 . S
C609 C610 1.287 . S
C610 C609 1.287 . S
C610 C611 1.524 . S
C610 H629 0.913 . S
C611 H587 0.950 . S
C611 C610 1.524 . S
C611 C612 1.415 . S
C612 H588 0.950 . S
C612 C607 1.363 . S
C612 C611 1.415 . S
C613 H589 0.951 . S
C613 C614 1.366 . S
C613 C615 1.388 . S
C614 C613 1.366 . S
C614 C618 1.385 . S
C615 H590 0.951 . S
C615 C613 1.388 . S
C615 C616 1.366 . S
C616 C615 1.366 . S
C616 C617 1.414 . S
C616 C619 1.499 . S
C617 H591 0.950 . S
C617 C616 1.414 . S
C617 C618 1.374 . S
C618 H592 0.950 . S
C618 C614 1.385 . S
C618 C617 1.374 . S
C619 C616 1.499 . S
C619 C620 1.373 . S
C619 C621 1.389 . S
C620 H593 0.950 . S
C620 C606 1.377 . S
C620 C619 1.373 . S
C621 C605 1.377 . S
C621 C619 1.389 . S
C621 C622 1.524 . S
C622 C621 1.524 . S
C622 C623 1.397 . S
C622 C627 1.363 . S
C623 H594 0.950 . S
C623 C622 1.397 . S
C623 C624 1.334 . S
C624 H595 0.950 . S
C624 C623 1.334 . S
C624 C625 1.287 . S
C625 C624 1.287 . S
C625 C626 1.524 . S
C625 H628 0.999 . S
C626 H596 0.950 . S
C626 C625 1.524 . S
C626 C627 1.415 . S
C627 H597 0.950 . S
C627 C622 1.363 . S
C627 C626 1.415 . S
H628 C625 0.999 . S
H629 C610 0.913 . S
H630 C648 0.951 . S
H631 C650 0.951 . S
H632 C652 0.950 . S
H633 C653 0.950 . S
H634 C655 0.950 . S
H635 C658 0.950 . S
H636 C659 0.950 . S
H637 C661 0.950 1_565 S
H638 C662 0.950 . S
H639 C663 0.951 . S
H640 C665 0.951 . S
H641 C667 0.950 . S
H642 C668 0.950 1_455 S
H643 C670 0.950 . S
H644 C673 0.950 . S
H645 C674 0.950 . S
H646 C676 0.950 . S
H647 C677 0.950 . S
C648 H630 0.951 . S
C648 C649 1.366 . S
C648 C650 1.388 . S
C649 C648 1.366 . S
C649 C653 1.385 . S
C650 H631 0.951 . S
C650 C648 1.388 . S
C650 C651 1.366 . S
C651 C650 1.366 . S
C651 C652 1.414 . S
C651 C654 1.499 . S
C652 H632 0.950 . S
C652 C651 1.414 . S
C652 C653 1.374 . S
C653 H633 0.950 . S
C653 C649 1.385 . S
C653 C652 1.374 . S
C654 C651 1.499 . S
C654 C655 1.373 . S
C654 C656 1.389 . S
C655 H634 0.950 . S
C655 C654 1.373 . S
C655 C671 1.377 . S
C656 C654 1.389 . S
C656 C657 1.524 . S
C656 C670 1.377 . S
C657 C656 1.524 . S
C657 C658 1.397 . S
C657 C662 1.363 . S
C658 H635 0.950 . S
C658 C657 1.397 . S
C658 C659 1.334 1_545 S
C659 H636 0.950 . S
C659 C658 1.334 1_565 S
C659 C660 1.287 . S
C660 C659 1.287 . S
C660 C661 1.524 1_565 S
C660 H679 0.913 . S
C661 H637 0.950 1_545 S
C661 C660 1.524 1_545 S
C661 C662 1.415 . S
C662 H638 0.950 . S
C662 C657 1.363 . S
C662 C661 1.415 . S
C663 H639 0.951 . S
C663 C664 1.366 . S
C663 C665 1.388 . S
C664 C663 1.366 . S
C664 C668 1.385 . S
C665 H640 0.951 . S
C665 C663 1.388 . S
C665 C666 1.366 . S
C666 C665 1.366 . S
C666 C667 1.414 . S
C666 C669 1.499 . S
C667 H641 0.950 . S
C667 C666 1.414 . S
C667 C668 1.374 . S
C668 H642 0.950 1_655 S
C668 C664 1.385 . S
C668 C667 1.374 . S
C669 C666 1.499 . S
C669 C670 1.373 . S
C669 C671 1.389 . S
C670 H643 0.950 . S
C670 C656 1.377 . S
C670 C669 1.373 . S
C671 C655 1.377 . S
C671 C669 1.389 . S
C671 C672 1.524 . S
C672 C671 1.524 . S
C672 C673 1.397 . S
C672 C677 1.363 . S
C673 H644 0.950 . S
C673 C672 1.397 . S
C673 C674 1.334 . S
C674 H645 0.950 . S
C674 C673 1.334 . S
C674 C675 1.287 . S
C675 C674 1.287 . S
C675 C676 1.524 . S
C675 H678 0.999 . S
C676 H646 0.950 . S
C676 C675 1.524 . S
C676 C677 1.415 . S
C677 H647 0.950 . S
C677 C672 1.363 . S
C677 C676 1.415 . S
H678 C675 0.999 . S
H679 C660 0.913 . S
C99 C41 1.719 1_566 S
C114 C9 1.719 . S
C149 C69 1.883 . S
C164 C29 1.898 . S
C199 C49 1.247 1_554 S
C214 C1 1.247 . S
C249 C21 1.063 . S
C264 C61 1.062 . S
C299 C39 2.131 . S
C314 C8 2.234 . S
C349 C28 2.266 . S
C364 C46 2.274 . S
C399 C68 1.990 1_655 S
C414 C56 1.986 . S
C449 C79 1.642 . S
C464 C19 1.647 . S
C499 C59 1.359 . S
C514 C66 1.351 . S
C549 C16 1.572 . S
C564 C76 1.567 . S
C599 C36 1.308 . S
C614 C6 1.304 . S
C649 C48 0.848 . S
C664 C26 0.865 . S
