# Generated by pormake.
# Topology twf-e, (6)-cn, num edge types: 1
# Building blocks:
#     Node 0, Type 0, BuildingBlock: MIDCAF_clean_sbu_0, # of connection points: 6
#     Node 1, Type 0, BuildingBlock: MIDCAF_clean_sbu_0, # of connection points: 6
#     Node 2, Type 0, BuildingBlock: MIDCAF_clean_sbu_0, # of connection points: 6
#     Node 3, Type 0, BuildingBlock: MIDCAF_clean_sbu_0, # of connection points: 6
#     Node 4, Type 0, BuildingBlock: MIDCAF_clean_sbu_0, # of connection points: 6
#     Node 5, Type 0, BuildingBlock: MIDCAF_clean_sbu_0, # of connection points: 6
#     Node 6, Type 0, BuildingBlock: MIDCAF_clean_sbu_0, # of connection points: 6
#     Node 7, Type 0, BuildingBlock: MIDCAF_clean_sbu_0, # of connection points: 6
#     Node 8, Type 0, BuildingBlock: MIDCAF_clean_sbu_0, # of connection points: 6
#     Node 9, Type 0, BuildingBlock: MIDCAF_clean_sbu_0, # of connection points: 6
#     Node 10, Type 0, BuildingBlock: MIDCAF_clean_sbu_0, # of connection points: 6
#     Node 11, Type 0, BuildingBlock: MIDCAF_clean_sbu_0, # of connection points: 6
#     Node 12, Type 0, BuildingBlock: MIDCAF_clean_sbu_0, # of connection points: 6
#     Node 13, Type 0, BuildingBlock: MIDCAF_clean_sbu_0, # of connection points: 6
#     Node 14, Type 0, BuildingBlock: MIDCAF_clean_sbu_0, # of connection points: 6
#     Node 15, Type 0, BuildingBlock: MIDCAF_clean_sbu_0, # of connection points: 6
#     Node 16, Type 0, BuildingBlock: MIDCAF_clean_sbu_0, # of connection points: 6
#     Node 17, Type 0, BuildingBlock: MIDCAF_clean_sbu_0, # of connection points: 6
#     Node 18, Type 0, BuildingBlock: MIDCAF_clean_sbu_0, # of connection points: 6
#     Node 19, Type 0, BuildingBlock: MIDCAF_clean_sbu_0, # of connection points: 6
#     Node 20, Type 0, BuildingBlock: MIDCAF_clean_sbu_0, # of connection points: 6
#     Node 21, Type 0, BuildingBlock: MIDCAF_clean_sbu_0, # of connection points: 6
#     Node 22, Type 0, BuildingBlock: MIDCAF_clean_sbu_0, # of connection points: 6
#     Node 23, Type 0, BuildingBlock: MIDCAF_clean_sbu_0, # of connection points: 6
#     Node 24, Type 0, BuildingBlock: MIDCAF_clean_sbu_0, # of connection points: 6
#     Node 25, Type 0, BuildingBlock: MIDCAF_clean_sbu_0, # of connection points: 6
#     Node 26, Type 0, BuildingBlock: MIDCAF_clean_sbu_0, # of connection points: 6
#     Node 27, Type 0, BuildingBlock: MIDCAF_clean_sbu_0, # of connection points: 6
#     Node 28, Type 0, BuildingBlock: MIDCAF_clean_sbu_0, # of connection points: 6
#     Node 29, Type 0, BuildingBlock: MIDCAF_clean_sbu_0, # of connection points: 6
#     Node 30, Type 0, BuildingBlock: MIDCAF_clean_sbu_0, # of connection points: 6
#     Node 31, Type 0, BuildingBlock: MIDCAF_clean_sbu_0, # of connection points: 6
#     Node 32, Type 0, BuildingBlock: MIDCAF_clean_sbu_0, # of connection points: 6
#     Node 33, Type 0, BuildingBlock: MIDCAF_clean_sbu_0, # of connection points: 6
#     Node 34, Type 0, BuildingBlock: MIDCAF_clean_sbu_0, # of connection points: 6
#     Node 35, Type 0, BuildingBlock: MIDCAF_clean_sbu_0, # of connection points: 6
#     Node 36, Type 0, BuildingBlock: MIDCAF_clean_sbu_0, # of connection points: 6
#     Node 37, Type 0, BuildingBlock: MIDCAF_clean_sbu_0, # of connection points: 6
#     Node 38, Type 0, BuildingBlock: MIDCAF_clean_sbu_0, # of connection points: 6
#     Node 39, Type 0, BuildingBlock: MIDCAF_clean_sbu_0, # of connection points: 6
#     Node 40, Type 0, BuildingBlock: MIDCAF_clean_sbu_0, # of connection points: 6
#     Node 41, Type 0, BuildingBlock: MIDCAF_clean_sbu_0, # of connection points: 6
#     Node 42, Type 0, BuildingBlock: MIDCAF_clean_sbu_0, # of connection points: 6
#     Node 43, Type 0, BuildingBlock: MIDCAF_clean_sbu_0, # of connection points: 6
#     Node 44, Type 0, BuildingBlock: MIDCAF_clean_sbu_0, # of connection points: 6
#     Node 45, Type 0, BuildingBlock: MIDCAF_clean_sbu_0, # of connection points: 6
#     Node 46, Type 0, BuildingBlock: MIDCAF_clean_sbu_0, # of connection points: 6
#     Node 47, Type 0, BuildingBlock: MIDCAF_clean_sbu_0, # of connection points: 6
#     Edge 48, Type (0, 0), BuildingBlock: OJICUG_clean_linker_0, # of connection points: 2
#     Edge 49, Type (0, 0), BuildingBlock: OJICUG_clean_linker_0, # of connection points: 2
#     Edge 50, Type (0, 0), BuildingBlock: OJICUG_clean_linker_0, # of connection points: 2
#     Edge 51, Type (0, 0), BuildingBlock: OJICUG_clean_linker_0, # of connection points: 2
#     Edge 52, Type (0, 0), BuildingBlock: OJICUG_clean_linker_0, # of connection points: 2
#     Edge 53, Type (0, 0), BuildingBlock: OJICUG_clean_linker_0, # of connection points: 2
#     Edge 54, Type (0, 0), BuildingBlock: OJICUG_clean_linker_0, # of connection points: 2
#     Edge 55, Type (0, 0), BuildingBlock: OJICUG_clean_linker_0, # of connection points: 2
#     Edge 56, Type (0, 0), BuildingBlock: OJICUG_clean_linker_0, # of connection points: 2
#     Edge 57, Type (0, 0), BuildingBlock: OJICUG_clean_linker_0, # of connection points: 2
#     Edge 58, Type (0, 0), BuildingBlock: OJICUG_clean_linker_0, # of connection points: 2
#     Edge 59, Type (0, 0), BuildingBlock: OJICUG_clean_linker_0, # of connection points: 2
#     Edge 60, Type (0, 0), BuildingBlock: OJICUG_clean_linker_0, # of connection points: 2
#     Edge 61, Type (0, 0), BuildingBlock: OJICUG_clean_linker_0, # of connection points: 2
#     Edge 62, Type (0, 0), BuildingBlock: OJICUG_clean_linker_0, # of connection points: 2
#     Edge 63, Type (0, 0), BuildingBlock: OJICUG_clean_linker_0, # of connection points: 2
#     Edge 64, Type (0, 0), BuildingBlock: OJICUG_clean_linker_0, # of connection points: 2
#     Edge 65, Type (0, 0), BuildingBlock: OJICUG_clean_linker_0, # of connection points: 2
#     Edge 66, Type (0, 0), BuildingBlock: OJICUG_clean_linker_0, # of connection points: 2
#     Edge 67, Type (0, 0), BuildingBlock: OJICUG_clean_linker_0, # of connection points: 2
#     Edge 68, Type (0, 0), BuildingBlock: OJICUG_clean_linker_0, # of connection points: 2
#     Edge 69, Type (0, 0), BuildingBlock: OJICUG_clean_linker_0, # of connection points: 2
#     Edge 70, Type (0, 0), BuildingBlock: OJICUG_clean_linker_0, # of connection points: 2
#     Edge 71, Type (0, 0), BuildingBlock: OJICUG_clean_linker_0, # of connection points: 2
#     Edge 72, Type (0, 0), BuildingBlock: OJICUG_clean_linker_0, # of connection points: 2
#     Edge 73, Type (0, 0), BuildingBlock: OJICUG_clean_linker_0, # of connection points: 2
#     Edge 74, Type (0, 0), BuildingBlock: OJICUG_clean_linker_0, # of connection points: 2
#     Edge 75, Type (0, 0), BuildingBlock: OJICUG_clean_linker_0, # of connection points: 2
#     Edge 76, Type (0, 0), BuildingBlock: OJICUG_clean_linker_0, # of connection points: 2
#     Edge 77, Type (0, 0), BuildingBlock: OJICUG_clean_linker_0, # of connection points: 2
#     Edge 78, Type (0, 0), BuildingBlock: OJICUG_clean_linker_0, # of connection points: 2
#     Edge 79, Type (0, 0), BuildingBlock: OJICUG_clean_linker_0, # of connection points: 2
#     Edge 80, Type (0, 0), BuildingBlock: OJICUG_clean_linker_0, # of connection points: 2
#     Edge 81, Type (0, 0), BuildingBlock: OJICUG_clean_linker_0, # of connection points: 2
#     Edge 82, Type (0, 0), BuildingBlock: OJICUG_clean_linker_0, # of connection points: 2
#     Edge 83, Type (0, 0), BuildingBlock: OJICUG_clean_linker_0, # of connection points: 2
#     Edge 84, Type (0, 0), BuildingBlock: OJICUG_clean_linker_0, # of connection points: 2
#     Edge 85, Type (0, 0), BuildingBlock: OJICUG_clean_linker_0, # of connection points: 2
#     Edge 86, Type (0, 0), BuildingBlock: OJICUG_clean_linker_0, # of connection points: 2
#     Edge 87, Type (0, 0), BuildingBlock: OJICUG_clean_linker_0, # of connection points: 2
#     Edge 88, Type (0, 0), BuildingBlock: OJICUG_clean_linker_0, # of connection points: 2
#     Edge 89, Type (0, 0), BuildingBlock: OJICUG_clean_linker_0, # of connection points: 2
#     Edge 90, Type (0, 0), BuildingBlock: OJICUG_clean_linker_0, # of connection points: 2
#     Edge 91, Type (0, 0), BuildingBlock: OJICUG_clean_linker_0, # of connection points: 2
#     Edge 92, Type (0, 0), BuildingBlock: OJICUG_clean_linker_0, # of connection points: 2
#     Edge 93, Type (0, 0), BuildingBlock: OJICUG_clean_linker_0, # of connection points: 2
#     Edge 94, Type (0, 0), BuildingBlock: OJICUG_clean_linker_0, # of connection points: 2
#     Edge 95, Type (0, 0), BuildingBlock: OJICUG_clean_linker_0, # of connection points: 2
#     Edge 96, Type (0, 0), BuildingBlock: OJICUG_clean_linker_0, # of connection points: 2
#     Edge 97, Type (0, 0), BuildingBlock: OJICUG_clean_linker_0, # of connection points: 2
#     Edge 98, Type (0, 0), BuildingBlock: OJICUG_clean_linker_0, # of connection points: 2
#     Edge 99, Type (0, 0), BuildingBlock: OJICUG_clean_linker_0, # of connection points: 2
#     Edge 100, Type (0, 0), BuildingBlock: OJICUG_clean_linker_0, # of connection points: 2
#     Edge 101, Type (0, 0), BuildingBlock: OJICUG_clean_linker_0, # of connection points: 2
#     Edge 102, Type (0, 0), BuildingBlock: OJICUG_clean_linker_0, # of connection points: 2
#     Edge 103, Type (0, 0), BuildingBlock: OJICUG_clean_linker_0, # of connection points: 2
#     Edge 104, Type (0, 0), BuildingBlock: OJICUG_clean_linker_0, # of connection points: 2
#     Edge 105, Type (0, 0), BuildingBlock: OJICUG_clean_linker_0, # of connection points: 2
#     Edge 106, Type (0, 0), BuildingBlock: OJICUG_clean_linker_0, # of connection points: 2
#     Edge 107, Type (0, 0), BuildingBlock: OJICUG_clean_linker_0, # of connection points: 2
#     Edge 108, Type (0, 0), BuildingBlock: OJICUG_clean_linker_0, # of connection points: 2
#     Edge 109, Type (0, 0), BuildingBlock: OJICUG_clean_linker_0, # of connection points: 2
#     Edge 110, Type (0, 0), BuildingBlock: OJICUG_clean_linker_0, # of connection points: 2
#     Edge 111, Type (0, 0), BuildingBlock: OJICUG_clean_linker_0, # of connection points: 2
#     Edge 112, Type (0, 0), BuildingBlock: OJICUG_clean_linker_0, # of connection points: 2
#     Edge 113, Type (0, 0), BuildingBlock: OJICUG_clean_linker_0, # of connection points: 2
#     Edge 114, Type (0, 0), BuildingBlock: OJICUG_clean_linker_0, # of connection points: 2
#     Edge 115, Type (0, 0), BuildingBlock: OJICUG_clean_linker_0, # of connection points: 2
#     Edge 116, Type (0, 0), BuildingBlock: OJICUG_clean_linker_0, # of connection points: 2
#     Edge 117, Type (0, 0), BuildingBlock: OJICUG_clean_linker_0, # of connection points: 2
#     Edge 118, Type (0, 0), BuildingBlock: OJICUG_clean_linker_0, # of connection points: 2
#     Edge 119, Type (0, 0), BuildingBlock: OJICUG_clean_linker_0, # of connection points: 2
#     Edge 120, Type (0, 0), BuildingBlock: OJICUG_clean_linker_0, # of connection points: 2
#     Edge 121, Type (0, 0), BuildingBlock: OJICUG_clean_linker_0, # of connection points: 2
#     Edge 122, Type (0, 0), BuildingBlock: OJICUG_clean_linker_0, # of connection points: 2
#     Edge 123, Type (0, 0), BuildingBlock: OJICUG_clean_linker_0, # of connection points: 2
#     Edge 124, Type (0, 0), BuildingBlock: OJICUG_clean_linker_0, # of connection points: 2
#     Edge 125, Type (0, 0), BuildingBlock: OJICUG_clean_linker_0, # of connection points: 2
#     Edge 126, Type (0, 0), BuildingBlock: OJICUG_clean_linker_0, # of connection points: 2
#     Edge 127, Type (0, 0), BuildingBlock: OJICUG_clean_linker_0, # of connection points: 2
#     Edge 128, Type (0, 0), BuildingBlock: OJICUG_clean_linker_0, # of connection points: 2
#     Edge 129, Type (0, 0), BuildingBlock: OJICUG_clean_linker_0, # of connection points: 2
#     Edge 130, Type (0, 0), BuildingBlock: OJICUG_clean_linker_0, # of connection points: 2
#     Edge 131, Type (0, 0), BuildingBlock: OJICUG_clean_linker_0, # of connection points: 2
#     Edge 132, Type (0, 0), BuildingBlock: OJICUG_clean_linker_0, # of connection points: 2
#     Edge 133, Type (0, 0), BuildingBlock: OJICUG_clean_linker_0, # of connection points: 2
#     Edge 134, Type (0, 0), BuildingBlock: OJICUG_clean_linker_0, # of connection points: 2
#     Edge 135, Type (0, 0), BuildingBlock: OJICUG_clean_linker_0, # of connection points: 2
#     Edge 136, Type (0, 0), BuildingBlock: OJICUG_clean_linker_0, # of connection points: 2
#     Edge 137, Type (0, 0), BuildingBlock: OJICUG_clean_linker_0, # of connection points: 2
#     Edge 138, Type (0, 0), BuildingBlock: OJICUG_clean_linker_0, # of connection points: 2
#     Edge 139, Type (0, 0), BuildingBlock: OJICUG_clean_linker_0, # of connection points: 2
#     Edge 140, Type (0, 0), BuildingBlock: OJICUG_clean_linker_0, # of connection points: 2
#     Edge 141, Type (0, 0), BuildingBlock: OJICUG_clean_linker_0, # of connection points: 2
#     Edge 142, Type (0, 0), BuildingBlock: OJICUG_clean_linker_0, # of connection points: 2
#     Edge 143, Type (0, 0), BuildingBlock: OJICUG_clean_linker_0, # of connection points: 2
#     Edge 144, Type (0, 0), BuildingBlock: OJICUG_clean_linker_0, # of connection points: 2
#     Edge 145, Type (0, 0), BuildingBlock: OJICUG_clean_linker_0, # of connection points: 2
#     Edge 146, Type (0, 0), BuildingBlock: OJICUG_clean_linker_0, # of connection points: 2
#     Edge 147, Type (0, 0), BuildingBlock: OJICUG_clean_linker_0, # of connection points: 2
#     Edge 148, Type (0, 0), BuildingBlock: OJICUG_clean_linker_0, # of connection points: 2
#     Edge 149, Type (0, 0), BuildingBlock: OJICUG_clean_linker_0, # of connection points: 2
#     Edge 150, Type (0, 0), BuildingBlock: OJICUG_clean_linker_0, # of connection points: 2
#     Edge 151, Type (0, 0), BuildingBlock: OJICUG_clean_linker_0, # of connection points: 2
#     Edge 152, Type (0, 0), BuildingBlock: OJICUG_clean_linker_0, # of connection points: 2
#     Edge 153, Type (0, 0), BuildingBlock: OJICUG_clean_linker_0, # of connection points: 2
#     Edge 154, Type (0, 0), BuildingBlock: OJICUG_clean_linker_0, # of connection points: 2
#     Edge 155, Type (0, 0), BuildingBlock: OJICUG_clean_linker_0, # of connection points: 2
#     Edge 156, Type (0, 0), BuildingBlock: OJICUG_clean_linker_0, # of connection points: 2
#     Edge 157, Type (0, 0), BuildingBlock: OJICUG_clean_linker_0, # of connection points: 2
#     Edge 158, Type (0, 0), BuildingBlock: OJICUG_clean_linker_0, # of connection points: 2
#     Edge 159, Type (0, 0), BuildingBlock: OJICUG_clean_linker_0, # of connection points: 2
#     Edge 160, Type (0, 0), BuildingBlock: OJICUG_clean_linker_0, # of connection points: 2
#     Edge 161, Type (0, 0), BuildingBlock: OJICUG_clean_linker_0, # of connection points: 2
#     Edge 162, Type (0, 0), BuildingBlock: OJICUG_clean_linker_0, # of connection points: 2
#     Edge 163, Type (0, 0), BuildingBlock: OJICUG_clean_linker_0, # of connection points: 2
#     Edge 164, Type (0, 0), BuildingBlock: OJICUG_clean_linker_0, # of connection points: 2
#     Edge 165, Type (0, 0), BuildingBlock: OJICUG_clean_linker_0, # of connection points: 2
#     Edge 166, Type (0, 0), BuildingBlock: OJICUG_clean_linker_0, # of connection points: 2
#     Edge 167, Type (0, 0), BuildingBlock: OJICUG_clean_linker_0, # of connection points: 2
#     Edge 168, Type (0, 0), BuildingBlock: OJICUG_clean_linker_0, # of connection points: 2
#     Edge 169, Type (0, 0), BuildingBlock: OJICUG_clean_linker_0, # of connection points: 2
#     Edge 170, Type (0, 0), BuildingBlock: OJICUG_clean_linker_0, # of connection points: 2
#     Edge 171, Type (0, 0), BuildingBlock: OJICUG_clean_linker_0, # of connection points: 2
#     Edge 172, Type (0, 0), BuildingBlock: OJICUG_clean_linker_0, # of connection points: 2
#     Edge 173, Type (0, 0), BuildingBlock: OJICUG_clean_linker_0, # of connection points: 2
#     Edge 174, Type (0, 0), BuildingBlock: OJICUG_clean_linker_0, # of connection points: 2
#     Edge 175, Type (0, 0), BuildingBlock: OJICUG_clean_linker_0, # of connection points: 2
#     Edge 176, Type (0, 0), BuildingBlock: OJICUG_clean_linker_0, # of connection points: 2
#     Edge 177, Type (0, 0), BuildingBlock: OJICUG_clean_linker_0, # of connection points: 2
#     Edge 178, Type (0, 0), BuildingBlock: OJICUG_clean_linker_0, # of connection points: 2
#     Edge 179, Type (0, 0), BuildingBlock: OJICUG_clean_linker_0, # of connection points: 2
#     Edge 180, Type (0, 0), BuildingBlock: OJICUG_clean_linker_0, # of connection points: 2
#     Edge 181, Type (0, 0), BuildingBlock: OJICUG_clean_linker_0, # of connection points: 2
#     Edge 182, Type (0, 0), BuildingBlock: OJICUG_clean_linker_0, # of connection points: 2
#     Edge 183, Type (0, 0), BuildingBlock: OJICUG_clean_linker_0, # of connection points: 2
#     Edge 184, Type (0, 0), BuildingBlock: OJICUG_clean_linker_0, # of connection points: 2
#     Edge 185, Type (0, 0), BuildingBlock: OJICUG_clean_linker_0, # of connection points: 2
#     Edge 186, Type (0, 0), BuildingBlock: OJICUG_clean_linker_0, # of connection points: 2
#     Edge 187, Type (0, 0), BuildingBlock: OJICUG_clean_linker_0, # of connection points: 2
#     Edge 188, Type (0, 0), BuildingBlock: OJICUG_clean_linker_0, # of connection points: 2
#     Edge 189, Type (0, 0), BuildingBlock: OJICUG_clean_linker_0, # of connection points: 2
#     Edge 190, Type (0, 0), BuildingBlock: OJICUG_clean_linker_0, # of connection points: 2
#     Edge 191, Type (0, 0), BuildingBlock: OJICUG_clean_linker_0, # of connection points: 2
# Relax obj value: 0.392
# Max RMSD: 0.172
# Mean RMSD: 0.172
data_MOF--net-twf-e--node1-MIDCAF_clean_sbu_0--edge1-OJICUG_clean_linker_0
_symmetry_space_group_name_H-M    P1
_symmetry_Int_Tables_number       1
_symmetry_cell_setting            triclinic
loop_
_symmetry_equiv_pos_as_xyz
'x, y, z'
_cell_length_a     43.847913
_cell_length_b     43.851706
_cell_length_c     43.839785
_cell_angle_alpha  89.970559
_cell_angle_beta   89.987356
_cell_angle_gamma 89.962415
loop_
_atom_site_label
_atom_site_type_symbol
_atom_site_fract_x
_atom_site_fract_y
_atom_site_fract_z
_atom_type_partial_charge
Zn0 Zn 0.02554 0.19071 0.33184 0.0
Zn1 Zn 0.95411 0.16586 0.41233 0.0
Zn2 Zn 0.99 0.18623 0.37491 0.0
C3 C 0.92262 0.20849 0.37577 0.0
C4 C 0.9951 0.19325 0.44889 0.0
O5 O 0.00739 0.14209 0.35571 0.0
O6 O 0.04608 0.15184 0.32521 0.0
C7 C 0.98425 0.2258 0.31361 0.0
O8 O 0.94939 0.21379 0.365 0.0
O9 O 0.91884 0.18658 0.39404 0.0
O10 O 0.96851 0.1827 0.45123 0.0
O11 O 0.00786 0.19525 0.42238 0.0
O12 O 0.99468 0.2022 0.30105 0.0
O13 O 0.98045 0.22543 0.34275 0.0
O14 O 0.02685 0.20729 0.39842 0.0
O15 O 0.04789 0.2235 0.35557 0.0
C16 C 0.04603 0.22445 0.38439 0.0
O17 O 0.97672 0.13721 0.36648 0.0
O18 O 0.95331 0.12135 0.4082 0.0
C19 C 0.02997 0.13271 0.33932 0.0
C20 C 0.96299 0.11593 0.3817 0.0
Zn21 Zn 0.82433 0.0239 0.33273 0.0
Zn22 Zn 0.85313 0.95081 0.40932 0.0
Zn23 Zn 0.82919 0.98727 0.37532 0.0
C24 C 0.80791 0.9195 0.37654 0.0
C25 C 0.82485 0.98947 0.44912 0.0
O26 O 0.87248 0.00751 0.35708 0.0
O27 O 0.8623 0.04634 0.3268 0.0
C28 C 0.78887 0.98483 0.31411 0.0
O29 O 0.80192 0.9463 0.36615 0.0
O30 O 0.83174 0.91544 0.39214 0.0
O31 O 0.83819 0.96403 0.44927 0.0
O32 O 0.81998 0.00322 0.42349 0.0
O33 O 0.81301 0.99375 0.30132 0.0
O34 O 0.78992 0.97913 0.34294 0.0
O35 O 0.80673 0.0225 0.40015 0.0
O36 O 0.79096 0.04394 0.3573 0.0
C37 C 0.78914 0.04124 0.38601 0.0
O38 O 0.87902 0.97616 0.36452 0.0
O39 O 0.89732 0.95041 0.40378 0.0
C40 C 0.8815 0.03078 0.34142 0.0
C41 C 0.90143 0.96226 0.37795 0.0
Zn42 Zn 0.97704 0.82867 0.35571 0.0
Zn43 Zn 0.0782 0.84997 0.40279 0.0
Zn44 Zn 0.02799 0.83215 0.37926 0.0
C45 C 0.09114 0.80132 0.36685 0.0
C46 C 0.04625 0.825 0.45091 0.0
O47 O 0.00948 0.87597 0.35924 0.0
O48 O 0.96867 0.8655 0.33197 0.0
C49 C 0.00968 0.78024 0.33111 0.0
O50 O 0.06198 0.79923 0.36431 0.0
O51 O 0.10255 0.82731 0.37132 0.0
O52 O 0.07299 0.83378 0.44481 0.0
O53 O 0.02597 0.82388 0.42956 0.0
O54 O 0.98335 0.7916 0.33252 0.0
O55 O 0.03183 0.79294 0.34593 0.0
O56 O 0.99766 0.81565 0.41475 0.0
O57 O 0.95273 0.82156 0.39299 0.0
C58 C 0.96853 0.8127 0.41533 0.0
O59 O 0.04051 0.88077 0.36747 0.0
O60 O 0.07725 0.8944 0.39912 0.0
C61 C 0.98717 0.88494 0.34211 0.0
C62 C 0.05883 0.90123 0.37817 0.0
Zn63 Zn 0.19256 0.97775 0.34774 0.0
Zn64 Zn 0.17104 0.07626 0.39635 0.0
Zn65 Zn 0.18899 0.03011 0.37071 0.0
C66 C 0.21464 0.09518 0.35503 0.0
C67 C 0.19828 0.0469 0.44308 0.0
O68 O 0.1446 0.00968 0.35415 0.0
O69 O 0.15359 0.96728 0.32873 0.0
C70 C 0.23682 0.01347 0.31863 0.0
O71 O 0.21834 0.06616 0.35198 0.0
O72 O 0.1907 0.10495 0.36769 0.0
O73 O 0.18842 0.07332 0.43758 0.0
O74 O 0.19982 0.02723 0.42116 0.0
O75 O 0.2263 0.98688 0.32085 0.0
O76 O 0.22514 0.03551 0.33439 0.0
O77 O 0.21011 0.0005 0.40428 0.0
O78 O 0.20592 0.95454 0.38379 0.0
C79 C 0.21514 0.97161 0.40497 0.0
O80 O 0.13922 0.04052 0.36229 0.0
O81 O 0.12662 0.07574 0.39592 0.0
C82 C 0.13474 0.98637 0.339 0.0
C83 C 0.11896 0.05789 0.37484 0.0
Zn84 Zn 0.03226 0.82535 0.69718 0.0
Zn85 Zn 0.95569 0.85667 0.60498 0.0
Zn86 Zn 0.98737 0.83353 0.64374 0.0
C87 C 0.91987 0.81357 0.6376 0.0
C88 C 0.9978 0.82734 0.57084 0.0
O89 O 0.00619 0.87623 0.66253 0.0
O90 O 0.04782 0.86679 0.6899 0.0
C91 C 0.98236 0.79824 0.70293 0.0
O92 O 0.94514 0.80766 0.65131 0.0
O93 O 0.91877 0.8353 0.61876 0.0
O94 O 0.97302 0.84127 0.56686 0.0
O95 O 0.00809 0.82301 0.59808 0.0
O96 O 0.98921 0.82457 0.71208 0.0
O97 O 0.97541 0.79593 0.67471 0.0
O98 O 0.02482 0.80967 0.62377 0.0
O99 O 0.04587 0.79255 0.66688 0.0
C100 C 0.04261 0.79116 0.63809 0.0
O101 O 0.97467 0.88306 0.65343 0.0
O102 O 0.95422 0.90087 0.61098 0.0
C103 C 0.03077 0.88536 0.67588 0.0
C104 C 0.96186 0.90507 0.63835 0.0
Zn105 Zn 0.18288 0.04964 0.66987 0.0
Zn106 Zn 0.16611 0.96183 0.60293 0.0
Zn107 Zn 0.18285 0.00099 0.63907 0.0
C108 C 0.20959 0.93565 0.64301 0.0
C109 C 0.19299 9e-05 0.56471 0.0
O110 O 0.13782 0.01342 0.6597 0.0
O111 O 0.1441 0.05105 0.69226 0.0
C112 C 0.23261 0.01367 0.68965 0.0
O113 O 0.21384 0.96341 0.65179 0.0
O114 O 0.1876 0.92963 0.62547 0.0
O115 O 0.18436 0.97276 0.5635 0.0
O116 O 0.19239 0.01448 0.59041 0.0
O117 O 0.21965 0.03919 0.69208 0.0
O118 O 0.22133 0.993 0.6719 0.0
O119 O 0.19875 0.03905 0.61066 0.0
O120 O 0.19091 0.08068 0.63799 0.0
C121 C 0.20062 0.06823 0.61393 0.0
O122 O 0.13517 0.98307 0.64664 0.0
O123 O 0.12159 0.95836 0.6049 0.0
C124 C 0.12654 0.03254 0.67905 0.0
C125 C 0.1152 0.96762 0.63134 0.0
Zn126 Zn 0.97669 0.19483 0.66549 0.0
Zn127 Zn 0.07168 0.16437 0.61659 0.0
Zn128 Zn 0.02863 0.18781 0.64332 0.0
C129 C 0.09658 0.20869 0.6526 0.0
C130 C 0.04374 0.19323 0.56993 0.0
O131 O 0.00595 0.14561 0.6631 0.0
O132 O 0.96505 0.1587 0.68917 0.0
C133 C 0.01465 0.23924 0.69195 0.0
O134 O 0.0683 0.21557 0.65687 0.0
O135 O 0.10322 0.18229 0.64331 0.0
O136 O 0.06905 0.18055 0.57484 0.0
O137 O 0.02508 0.19731 0.59244 0.0
O138 O 0.98733 0.23129 0.68823 0.0
O139 O 0.03637 0.22442 0.67853 0.0
O140 O 0.99891 0.2086 0.60967 0.0
O141 O 0.95252 0.20429 0.62906 0.0
C142 C 0.97 0.21331 0.60814 0.0
O143 O 0.03627 0.13808 0.65444 0.0
O144 O 0.06759 0.12026 0.6193 0.0
C145 C 0.98261 0.1381 0.67958 0.0
C146 C 0.05117 0.11566 0.64236 0.0
Zn147 Zn 0.84977 0.07237 0.6147 0.0
Zn148 Zn 0.81441 0.99049 0.69005 0.0
Zn149 Zn 0.82512 0.03456 0.64432 0.0
C150 C 0.78355 0.98296 0.62991 0.0
C151 C 0.79069 0.03716 0.70399 0.0
O152 O 0.8746 0.04408 0.65835 0.0
O153 O 0.89382 0.07011 0.61978 0.0
C154 C 0.82228 0.03755 0.57097 0.0
O155 O 0.80441 -0.00025 0.61797 0.0
O156 O 0.78111 0.98009 0.65865 0.0
O157 O 0.81795 0.03154 0.71084 0.0
O158 O 0.78594 0.04294 0.6758 0.0
O159 O 0.83472 0.06329 0.57358 0.0
O160 O 0.81748 0.02137 0.59516 0.0
O161 O 0.79727 0.07583 0.65182 0.0
O162 O 0.83104 0.10824 0.63418 0.0
C163 C 0.80473 0.10328 0.64463 0.0
O164 O 0.86678 0.01253 0.66408 0.0
O165 O 0.85351 0.96922 0.68651 0.0
C166 C 0.89739 0.05791 0.64551 0.0
C167 C 0.87398 0.98654 0.67603 0.0
Zn168 Zn 0.31818 0.0324 0.19571 0.0
Zn169 Zn 0.40652 0.95036 0.16239 0.0
Zn170 Zn 0.37008 0.98622 0.18416 0.0
C171 C 0.37165 0.91693 0.20384 0.0
C172 C 0.44294 0.9913 0.19176 0.0
O173 O 0.35073 0.00877 0.14306 0.0
O174 O 0.32482 0.05066 0.15533 0.0
C175 C 0.31083 0.98028 0.21809 0.0
O176 O 0.36041 0.94354 0.20916 0.0
O177 O 0.39005 0.91351 0.18198 0.0
O178 O 0.44517 0.96557 0.17922 0.0
O179 O 0.41655 0.00389 0.19507 0.0
O180 O 0.30253 0.98979 0.19234 0.0
O181 O 0.3387 0.97199 0.22031 0.0
O182 O 0.39173 0.02143 0.20946 0.0
O183 O 0.34968 0.04279 0.22871 0.0
C184 C 0.3784 0.03865 0.22917 0.0
O185 O 0.36071 0.97887 0.13436 0.0
O186 O 0.4009 0.95321 0.11818 0.0
C187 C 0.33768 0.03411 0.13552 0.0
C188 C 0.37569 0.96581 0.11259 0.0
Zn189 Zn 0.99017 0.32556 0.20556 0.0
Zn190 Zn 0.07682 0.39751 0.17066 0.0
Zn191 Zn 0.03595 0.36995 0.19407 0.0
C192 C 0.10404 0.36417 0.21653 0.0
C193 C 0.04144 0.4433 0.19536 0.0
O194 O 0.01251 0.35052 0.15328 0.0
O195 O 0.96868 0.32915 0.16676 0.0
C196 C 0.0362 0.31033 0.22889 0.0
O197 O 0.07589 0.35796 0.22203 0.0
O198 O 0.11087 0.37776 0.19212 0.0
O199 O 0.0672 0.43934 0.18323 0.0
O200 O 0.02463 0.41982 0.20128 0.0
O201 O 0.03032 0.30322 0.20175 0.0
O202 O 0.04363 0.33822 0.2331 0.0
O203 O 0.00284 0.39767 0.21507 0.0
O204 O 0.98148 0.35784 0.23843 0.0
C205 C 0.98573 0.3864 0.23602 0.0
O206 O 0.04312 0.35605 0.1448 0.0
O207 O 0.07525 0.39042 0.12696 0.0
C208 C 0.98631 0.339 0.14624 0.0
C209 C 0.05873 0.36741 0.1225 0.0
Zn210 Zn 0.60906 0.07025 0.17125 0.0
Zn211 Zn 0.65886 0.97569 0.19342 0.0
Zn212 Zn 0.63621 0.02612 0.18986 0.0
C213 C 0.60189 0.96321 0.20632 0.0
C214 C 0.68184 0.00838 0.2429 0.0
O215 O 0.64632 0.03981 0.14043 0.0
O216 O 0.6074 0.06854 0.12663 0.0
C217 C 0.56371 0.03979 0.19859 0.0
O218 O 0.60286 0.99258 0.20632 0.0
O219 O 0.62346 0.94802 0.19496 0.0
O220 O 0.67712 0.98163 0.23364 0.0
O221 O 0.67045 0.0312 0.22803 0.0
O222 O 0.56887 0.06706 0.19109 0.0
O223 O 0.58585 0.02029 0.19836 0.0
O224 O 0.64773 0.06292 0.2216 0.0
O225 O 0.63972 0.09907 0.18831 0.0
C226 C 0.64498 0.0915 0.21554 0.0
O227 O 0.65825 0.01014 0.14643 0.0
O228 O 0.68708 0.971 0.15876 0.0
C229 C 0.63184 0.05518 0.11971 0.0
C230 C 0.67723 0.98898 0.13862 0.0
Zn231 Zn 0.05406 0.67021 0.18499 0.0
Zn232 Zn 0.9602 0.6109 0.16919 0.0
Zn233 Zn 0.00504 0.64098 0.18447 0.0
C234 C 0.94151 0.64788 0.21516 0.0
C235 C 0.99755 0.56776 0.19306 0.0
O236 O 0.01603 0.6645 0.14046 0.0
O237 O 0.05586 0.69423 0.14738 0.0
C238 C 0.02074 0.68976 0.23607 0.0
O239 O 0.97046 0.65065 0.21889 0.0
O240 O 0.93176 0.64077 0.18909 0.0
O241 O 0.96928 0.57081 0.1886 0.0
O242 O 0.01518 0.59124 0.19063 0.0
O243 O 0.04589 0.69217 0.22243 0.0
O244 O 0.99969 0.67235 0.22494 0.0
O245 O 0.04149 0.60968 0.19743 0.0
O246 O 0.08357 0.63661 0.19112 0.0
C247 C 0.07068 0.61225 0.19939 0.0
O248 O 0.98671 0.65102 0.13707 0.0
O249 O 0.95895 0.61102 0.12434 0.0
C250 C 0.0357 0.68369 0.12985 0.0
C251 C 0.97053 0.63631 0.11723 0.0
Zn252 Zn 0.35217 0.97678 0.83167 0.0
Zn253 Zn 0.40065 0.07973 0.84383 0.0
Zn254 Zn 0.37681 0.02785 0.83044 0.0
C255 C 0.36043 0.08826 0.79744 0.0
C256 C 0.44793 0.04653 0.81889 0.0
O257 O 0.35952 0.01227 0.87622 0.0
O258 O 0.33246 0.97033 0.8711 0.0
C259 C 0.32506 0.00601 0.7828 0.0
O260 O 0.35876 0.05899 0.7966 0.0
O261 O 0.36563 0.10072 0.82279 0.0
O262 O 0.44159 0.07395 0.82504 0.0
O263 O 0.42694 0.02591 0.82054 0.0
O264 O 0.32543 0.98105 0.79696 0.0
O265 O 0.34189 0.02836 0.79225 0.0
O266 O 0.4119 0.99725 0.8146 0.0
O267 O 0.38913 0.9529 0.82153 0.0
C268 C 0.4117 0.96808 0.81215 0.0
O269 O 0.36765 0.04363 0.87844 0.0
O270 O 0.40023 0.08075 0.88844 0.0
C271 C 0.34361 0.99053 0.88818 0.0
C272 C 0.37955 0.06292 0.89728 0.0
Zn273 Zn 0.95553 0.41024 0.85666 0.0
Zn274 Zn 0.0317 0.33507 0.83337 0.0
Zn275 Zn 0.99314 0.37534 0.83537 0.0
C276 C 0.04711 0.38617 0.7951 0.0
C277 C 0.99402 0.31189 0.79839 0.0
O278 O 0.98065 0.36649 0.88515 0.0
O279 O 0.95242 0.40523 0.90073 0.0
C280 C 0.99447 0.44932 0.82832 0.0
O281 O 0.02761 0.40027 0.81187 0.0
O282 O 0.05135 0.35783 0.79862 0.0
O283 O 0.0046 0.30091 0.82278 0.0
O284 O 0.98661 0.34037 0.7981 0.0
O285 O 0.9692 0.44995 0.84195 0.0
O286 O 0.00807 0.42351 0.82399 0.0
O287 O 0.95325 0.36266 0.80783 0.0
O288 O 0.92182 0.39235 0.83333 0.0
C289 C 0.92638 0.37384 0.81178 0.0
O290 O 0.01282 0.36081 0.88032 0.0
O291 O 0.05366 0.33272 0.87207 0.0
C292 C 0.96501 0.38003 0.90629 0.0
C293 C 0.03689 0.34716 0.89038 0.0
Zn294 Zn 0.60484 0.95902 0.85469 0.0
Zn295 Zn 0.68504 0.03041 0.82661 0.0
Zn296 Zn 0.64324 0.99266 0.83041 0.0
C297 C 0.63332 0.0467 0.78934 0.0
C298 C 0.70593 0.98923 0.7926 0.0
O299 O 0.65296 0.97948 0.87992 0.0
O300 O 0.61246 0.95591 0.89855 0.0
C301 C 0.56866 0.99923 0.82548 0.0
O302 O 0.61932 0.02789 0.80696 0.0
O303 O 0.66189 0.05017 0.79172 0.0
O304 O 0.7174 0.00052 0.81641 0.0
O305 O 0.67697 0.98435 0.7922 0.0
O306 O 0.56558 0.97522 0.84091 0.0
O307 O 0.59559 0.00982 0.81982 0.0
O308 O 0.65308 0.95081 0.80488 0.0
O309 O 0.61991 0.92391 0.83129 0.0
C310 C 0.63951 0.92536 0.81025 0.0
O311 O 0.65898 0.01203 0.87486 0.0
O312 O 0.68796 0.05197 0.86578 0.0
C313 C 0.63936 0.96534 0.9021 0.0
C314 C 0.67344 0.03573 0.88452 0.0
Zn315 Zn 0.07206 0.61652 0.84989 0.0
Zn316 Zn 0.97867 0.67212 0.81967 0.0
Zn317 Zn 0.03044 0.64536 0.82484 0.0
C318 C 0.97321 0.61517 0.79317 0.0
C319 C 0.01877 0.70104 0.77915 0.0
O320 O 0.03971 0.65684 0.87458 0.0
O321 O 0.06938 0.62107 0.89409 0.0
C322 C 0.04123 0.5712 0.82159 0.0
O323 O 0.00077 0.61281 0.80284 0.0
O324 O 0.95735 0.63844 0.79899 0.0
O325 O 0.99298 0.70281 0.79164 0.0
O326 O 0.03824 0.68055 0.78773 0.0
O327 O 0.06657 0.57471 0.83465 0.0
O328 O 0.02419 0.59476 0.81651 0.0
O329 O 0.07087 0.65717 0.79746 0.0
O330 O 0.10471 0.64072 0.8306 0.0
C331 C 0.09879 0.65108 0.80443 0.0
O332 O 0.00815 0.66278 0.86811 0.0
O333 O 0.96418 0.68566 0.8595 0.0
C334 C 0.05434 0.64527 0.89752 0.0
C335 C 0.98386 0.67622 0.87816 0.0
Zn336 Zn 0.16807 0.42224 0.96604 0.0
Zn337 Zn 0.19205 0.35894 0.05306 0.0
Zn338 Zn 0.18737 0.38708 0.00474 0.0
C339 C 0.20541 0.41507 0.07095 0.0
C340 C 0.24024 0.33906 0.01644 0.0
O341 O 0.13919 0.37793 0.98912 0.0
O342 O 0.12339 0.41941 0.96533 0.0
C343 C 0.19511 0.46216 0.00208 0.0
O344 O 0.20353 0.41736 0.04166 0.0
O345 O 0.19644 0.39109 0.08403 0.0
O346 O 0.23099 0.33991 0.0436 0.0
O347 O 0.22559 0.35378 0.99544 0.0
O348 O 0.18584 0.46251 0.97492 0.0
O349 O 0.19567 0.4367 0.01697 0.0
O350 O 0.21725 0.37531 0.96617 0.0
O351 O 0.18815 0.39936 0.93302 0.0
C352 C 0.21145 0.38336 0.93847 0.0
O353 O 0.14406 0.36383 0.01857 0.0
O354 O 0.1561 0.33211 0.05548 0.0
C355 C 0.11811 0.39278 0.97471 0.0
C356 C 0.13615 0.34317 0.038 0.0
Zn357 Zn 0.1863 0.67835 0.96636 0.0
Zn358 Zn 0.1708 0.63566 0.07106 0.0
Zn359 Zn 0.18564 0.65661 0.01934 0.0
C360 C 0.21714 0.67581 0.0801 0.0
C361 C 0.19562 0.58605 0.04261 0.0
O362 O 0.14087 0.6746 0.00099 0.0
O363 O 0.14735 0.69731 0.95663 0.0
C364 C 0.23477 0.70602 0.99588 0.0
O365 O 0.21901 0.6752 0.05082 0.0
O366 O 0.19167 0.67041 0.09229 0.0
O367 O 0.18873 0.59389 0.06945 0.0
O368 O 0.19463 0.60599 0.02087 0.0
O369 O 0.22047 0.70562 0.971 0.0
O370 O 0.22506 0.68984 0.01862 0.0
O371 O 0.20098 0.61955 0.9919 0.0
O372 O 0.19806 0.63981 0.94588 0.0
C373 C 0.20558 0.61799 0.96307 0.0
O374 O 0.13756 0.668 0.03236 0.0
O375 O 0.12628 0.63711 0.07055 0.0
C376 C 0.12975 0.68889 0.97769 0.0
C377 C 0.11811 0.65701 0.05153 0.0
Zn378 Zn 0.32854 0.19444 0.99254 0.0
Zn379 Zn 0.41293 0.17031 0.06202 0.0
Zn380 Zn 0.37255 0.19092 0.028 0.0
C381 C 0.37559 0.21326 0.09469 0.0
C382 C 0.44677 0.1979 0.01857 0.0
O383 O 0.35548 0.14652 0.00987 0.0
O384 O 0.32331 0.1551 0.97226 0.0
C385 C 0.3106 0.23082 0.03183 0.0
O386 O 0.36186 0.21711 0.06905 0.0
O387 O 0.39666 0.19372 0.09675 0.0
O388 O 0.45115 0.18521 0.04397 0.0
O389 O 0.41931 0.20148 0.00842 0.0
O390 O 0.2974 0.20715 0.02222 0.0
O391 O 0.33946 0.22934 0.03732 0.0
O392 O 0.39445 0.21423 0.99181 0.0
O393 O 0.35094 0.22808 0.97039 0.0
C394 C 0.37953 0.23107 0.97302 0.0
O395 O 0.36515 0.14171 0.0412 0.0
O396 O 0.40678 0.12611 0.06498 0.0
C397 C 0.33919 0.13661 0.98748 0.0
C398 C 0.38029 0.12061 0.05531 0.0
Zn399 Zn 0.85537 0.41206 0.06756 0.0
Zn400 Zn 0.82878 0.32855 0.99907 0.0
Zn401 Zn 0.83351 0.37213 0.03449 0.0
C402 C 0.79275 0.37945 0.97969 0.0
C403 C 0.79513 0.31038 0.04072 0.0
O404 O 0.88263 0.36379 0.04767 0.0
O405 O 0.89945 0.40556 0.07032 0.0
C406 C 0.82754 0.44611 0.02463 0.0
O407 O 0.81076 0.39415 0.99755 0.0
O408 O 0.79411 0.35065 0.97831 0.0
O409 O 0.81912 0.29806 0.03075 0.0
O410 O 0.79552 0.33938 0.0455 0.0
O411 O 0.84084 0.45038 0.04971 0.0
O412 O 0.82342 0.41871 0.01459 0.0
O413 O 0.80694 0.36362 0.0761 0.0
O414 O 0.83235 0.39744 0.10313 0.0
C415 C 0.81153 0.37766 0.10147 0.0
O416 O 0.87767 0.35402 0.01646 0.0
O417 O 0.86745 0.32425 0.97734 0.0
C418 C 0.90415 0.37867 0.06138 0.0
C419 C 0.88671 0.33857 0.9931 0.0
Zn420 Zn 0.69692 0.82654 0.99297 0.0
Zn421 Zn 0.61622 0.85577 0.06513 0.0
Zn422 Zn 0.65431 0.83304 0.03107 0.0
C423 C 0.64911 0.81164 0.09899 0.0
C424 C 0.58055 0.82885 0.02295 0.0
O425 O 0.67214 0.87644 0.01118 0.0
O426 O 0.69903 0.865 0.97028 0.0
C427 C 0.71539 0.79429 0.03545 0.0
O428 O 0.66267 0.80669 0.07337 0.0
O429 O 0.63008 0.83312 0.10096 0.0
O430 O 0.57727 0.84224 0.04811 0.0
O431 O 0.60752 0.82384 0.01222 0.0
O432 O 0.72751 0.81826 0.02517 0.0
O433 O 0.68663 0.79493 0.04126 0.0
O434 O 0.63103 0.80925 0.9952 0.0
O435 O 0.67356 0.79134 0.97484 0.0
C436 C 0.64483 0.79035 0.97748 0.0
O437 O 0.66427 0.8827 0.04241 0.0
O438 O 0.62361 0.89958 0.06699 0.0
C439 C 0.68578 0.88473 0.98643 0.0
C440 C 0.64986 0.9044 0.05639 0.0
Zn441 Zn 0.85124 0.61216 0.94103 0.0
Zn442 Zn 0.83082 0.65572 0.04394 0.0
Zn443 Zn 0.83415 0.63668 0.99125 0.0
C444 C 0.81367 0.59792 0.04988 0.0
C445 C 0.78408 0.68508 0.01232 0.0
O446 O 0.88295 0.6474 0.9781 0.0
O447 O 0.89572 0.61491 0.9418 0.0
C448 C 0.82523 0.56481 0.97249 0.0
O449 O 0.81595 0.60112 0.02081 0.0
O450 O 0.82454 0.61791 0.06739 0.0
O451 O 0.79326 0.67907 0.03885 0.0
O452 O 0.79758 0.67299 0.989 0.0
O453 O 0.83429 0.57037 0.94572 0.0
O454 O 0.82436 0.58647 0.99243 0.0
O455 O 0.80149 0.65305 0.95777 0.0
O456 O 0.82946 0.64487 0.91736 0.0
C457 C 0.80354 0.65007 0.92865 0.0
O458 O 0.87855 0.65441 0.0097 0.0
O459 O 0.86812 0.6791 0.05213 0.0
C460 C 0.90302 0.6362 0.9596 0.0
C461 C 0.88752 0.67013 0.03294 0.0
Zn462 Zn 0.4154 0.85818 0.93996 0.0
Zn463 Zn 0.36637 0.83018 0.03627 0.0
Zn464 Zn 0.38837 0.8354 0.98439 0.0
C465 C 0.42283 0.81126 0.04465 0.0
C466 C 0.34029 0.78454 0.9992 0.0
O467 O 0.37766 0.88498 0.97525 0.0
O468 O 0.4108 0.90246 0.9416 0.0
C469 C 0.46156 0.83027 0.97103 0.0
O470 O 0.42135 0.8149 0.01555 0.0
O471 O 0.40228 0.8218 0.06173 0.0
O472 O 0.34402 0.79341 0.02625 0.0
O473 O 0.35387 0.79857 0.9771 0.0
O474 O 0.45734 0.84318 0.94569 0.0
O475 O 0.43867 0.82599 0.98909 0.0
O476 O 0.37471 0.80604 0.94631 0.0
O477 O 0.39028 0.83638 0.90946 0.0
C478 C 0.37995 0.81083 0.91777 0.0
O479 O 0.36714 0.87789 0.00459 0.0
O480 O 0.34133 0.86581 0.04598 0.0
C481 C 0.38865 0.90719 0.95922 0.0
C482 C 0.34991 0.88578 0.02723 0.0
Zn483 Zn 0.61015 0.17362 0.92393 0.0
Zn484 Zn 0.65135 0.19458 0.04708 0.0
Zn485 Zn 0.63657 0.19173 0.99347 0.0
C486 C 0.59389 0.21476 0.04746 0.0
C487 C 0.68621 0.23938 0.01979 0.0
O488 O 0.64221 0.14282 0.97828 0.0
O489 O 0.61336 0.13071 0.93776 0.0
C490 C 0.56621 0.20263 0.96781 0.0
O491 O 0.5994 0.21223 0.01879 0.0
O492 O 0.61165 0.20288 0.0667 0.0
O493 O 0.67756 0.23071 0.04577 0.0
O494 O 0.67524 0.22642 0.99561 0.0
O495 O 0.57193 0.19359 0.9409 0.0
O496 O 0.58716 0.20307 0.98862 0.0
O497 O 0.66056 0.22339 0.96494 0.0
O498 O 0.65272 0.18929 0.93119 0.0
C499 C 0.6545 0.21721 0.93718 0.0
O500 O 0.65018 0.14565 0.01061 0.0
O501 O 0.67153 0.15531 0.05496 0.0
C502 C 0.63146 0.12307 0.95903 0.0
C503 C 0.66409 0.13627 0.03478 0.0
Zn504 Zn 0.56227 0.68071 0.85258 0.0
Zn505 Zn 0.47275 0.66596 0.91895 0.0
Zn506 Zn 0.51166 0.6828 0.88103 0.0
C507 C 0.44624 0.71017 0.87909 0.0
C508 C 0.51212 0.69371 0.95532 0.0
O509 O 0.52417 0.63732 0.86131 0.0
O510 O 0.56446 0.64151 0.8316 0.0
C511 C 0.5258 0.72905 0.82898 0.0
O512 O 0.47355 0.7135 0.86859 0.0
O513 O 0.44071 0.68899 0.89778 0.0
O514 O 0.48542 0.68356 0.95813 0.0
O515 O 0.52523 0.69359 0.92899 0.0
O516 O 0.55124 0.71574 0.82829 0.0
O517 O 0.50449 0.71939 0.84688 0.0
O518 O 0.5496 0.7001 0.90878 0.0
O519 O 0.59271 0.69072 0.88431 0.0
C520 C 0.5789 0.70198 0.90691 0.0
O521 O 0.49404 0.63521 0.87437 0.0
O522 O 0.46887 0.62151 0.91584 0.0
C523 C 0.54409 0.62505 0.84341 0.0
C524 C 0.47852 0.6152 0.88952 0.0
Zn525 Zn 0.36068 0.45734 0.91542 0.0
Zn526 Zn 0.33328 0.54873 0.85668 0.0
Zn527 Zn 0.33474 0.49711 0.88347 0.0
C528 C 0.30704 0.55698 0.91254 0.0
C529 C 0.28772 0.51175 0.83071 0.0
O530 O 0.38273 0.48468 0.86961 0.0
O531 O 0.40318 0.45341 0.90346 0.0
C532 C 0.3351 0.49207 0.95908 0.0
O533 O 0.31354 0.52848 0.91457 0.0
O534 O 0.31644 0.57281 0.89046 0.0
O535 O 0.30156 0.53683 0.82888 0.0
O536 O 0.29688 0.49109 0.84969 0.0
O537 O 0.35197 0.46885 0.95762 0.0
O538 O 0.32656 0.5054 0.93417 0.0
O539 O 0.30641 0.45831 0.87037 0.0
O540 O 0.33312 0.42629 0.89857 0.0
C541 C 0.31055 0.43138 0.88141 0.0
O542 O 0.37852 0.51715 0.86541 0.0
O543 O 0.3727 0.5599 0.83951 0.0
C544 C 0.40527 0.46804 0.87883 0.0
C545 C 0.39005 0.53977 0.85039 0.0
Zn546 Zn 0.46085 0.33114 0.83996 0.0
Zn547 Zn 0.55369 0.34715 0.90383 0.0
Zn548 Zn 0.50984 0.33194 0.87253 0.0
C549 C 0.57295 0.29727 0.87314 0.0
C550 C 0.5123 0.32963 0.94592 0.0
O551 O 0.49919 0.37561 0.84844 0.0
O552 O 0.45844 0.37087 0.81947 0.0
C553 C 0.49773 0.28058 0.82394 0.0
O554 O 0.54415 0.29513 0.86785 0.0
O555 O 0.58373 0.32287 0.88034 0.0
O556 O 0.54081 0.33318 0.94501 0.0
O557 O 0.49663 0.33008 0.92108 0.0
O558 O 0.47363 0.29502 0.81773 0.0
O559 O 0.51657 0.29093 0.84399 0.0
O560 O 0.47176 0.32131 0.9022 0.0
O561 O 0.43106 0.32184 0.87249 0.0
C562 C 0.44303 0.31694 0.89819 0.0
O563 O 0.53003 0.37701 0.85945 0.0
O564 O 0.55868 0.39096 0.89848 0.0
C565 C 0.47888 0.38761 0.83078 0.0
C566 C 0.5477 0.39661 0.87255 0.0
Zn567 Zn 0.67473 0.55222 0.902 0.0
Zn568 Zn 0.68844 0.45582 0.84724 0.0
Zn569 Zn 0.68927 0.5065 0.87433 0.0
C570 C 0.70587 0.44213 0.90485 0.0
C571 C 0.73823 0.48984 0.82466 0.0
O572 O 0.64222 0.52376 0.86334 0.0
O573 O 0.63025 0.55401 0.90176 0.0
C574 C 0.69618 0.51599 0.94708 0.0
O575 O 0.70279 0.47128 0.90634 0.0
O576 O 0.69786 0.42785 0.88121 0.0
O577 O 0.72362 0.46522 0.82282 0.0
O578 O 0.729 0.51105 0.84288 0.0
O579 O 0.69269 0.54424 0.94276 0.0
O580 O 0.69436 0.4976 0.92419 0.0
O581 O 0.72405 0.54145 0.86444 0.0
O582 O 0.69477 0.58092 0.87288 0.0
C583 C 0.72072 0.57057 0.86627 0.0
O584 O 0.64504 0.49375 0.85169 0.0
O585 O 0.65011 0.45123 0.82542 0.0
C586 C 0.62273 0.54088 0.87738 0.0
C587 C 0.63338 0.47259 0.83481 0.0
Zn588 Zn 0.43276 0.36302 0.11439 0.0
Zn589 Zn 0.53059 0.33494 0.16225 0.0
Zn590 Zn 0.47848 0.34123 0.14085 0.0
C591 C 0.5374 0.31562 0.10535 0.0
C592 C 0.49397 0.28913 0.18787 0.0
O593 O 0.46957 0.3905 0.15233 0.0
O594 O 0.43273 0.4067 0.12203 0.0
C595 C 0.46443 0.33775 0.06747 0.0
O596 O 0.50845 0.32012 0.10721 0.0
O597 O 0.55505 0.32577 0.12562 0.0
O598 O 0.52103 0.29817 0.18476 0.0
O599 O 0.47196 0.30361 0.17463 0.0
O600 O 0.43942 0.35123 0.07176 0.0
O601 O 0.4821 0.33225 0.09041 0.0
O602 O 0.44171 0.31214 0.15807 0.0
O603 O 0.40357 0.33775 0.13753 0.0
C604 C 0.41299 0.31489 0.15234 0.0
O605 O 0.49976 0.38366 0.16085 0.0
O606 O 0.54085 0.37076 0.18671 0.0
C607 C 0.45189 0.41204 0.14269 0.0
C608 C 0.52273 0.39117 0.17777 0.0
Zn609 Zn 0.68962 0.54047 0.16794 0.0
Zn610 Zn 0.66264 0.44213 0.11832 0.0
Zn611 Zn 0.68409 0.4875 0.14588 0.0
C612 C 0.71023 0.42179 0.15682 0.0
C613 C 0.68751 0.47504 0.07203 0.0
O614 O 0.6412 0.50866 0.1651 0.0
O615 O 0.65162 0.55222 0.18793 0.0
C616 C 0.73435 0.50311 0.19519 0.0
O617 O 0.71308 0.45041 0.16302 0.0
O618 O 0.68763 0.41279 0.14142 0.0
O619 O 0.67501 0.44945 0.07582 0.0
O620 O 0.69246 0.4923 0.09537 0.0
O621 O 0.72344 0.52965 0.19401 0.0
O622 O 0.72191 0.4813 0.17973 0.0
O623 O 0.70635 0.51674 0.11267 0.0
O624 O 0.70425 0.56331 0.13204 0.0
C625 C 0.71327 0.54522 0.11159 0.0
O626 O 0.63451 0.47863 0.1566 0.0
O627 O 0.61884 0.44208 0.12568 0.0
C628 C 0.63232 0.53248 0.18007 0.0
C629 C 0.61313 0.46113 0.14635 0.0
Zn630 Zn 0.58402 0.66887 0.12386 0.0
Zn631 Zn 0.48525 0.6984 0.1615 0.0
Zn632 Zn 0.53731 0.69062 0.14665 0.0
C633 C 0.4809 0.71275 0.10503 0.0
C634 C 0.51839 0.74426 0.18935 0.0
O635 O 0.54348 0.64072 0.15709 0.0
O636 O 0.57968 0.62457 0.12611 0.0
C637 C 0.55876 0.69786 0.07561 0.0
O638 O 0.50971 0.71135 0.11054 0.0
O639 O 0.46223 0.70018 0.12287 0.0
O640 O 0.49233 0.73903 0.17855 0.0
O641 O 0.54086 0.72646 0.18253 0.0
O642 O 0.58393 0.6856 0.08209 0.0
O643 O 0.5383 0.7009 0.09657 0.0
O644 O 0.5741 0.71901 0.16498 0.0
O645 O 0.61204 0.6883 0.1535 0.0
C646 C 0.60298 0.71383 0.16322 0.0
O647 O 0.51391 0.64914 0.1658 0.0
O648 O 0.47388 0.66608 0.19077 0.0
C649 C 0.55995 0.61888 0.14614 0.0
C650 C 0.49032 0.64395 0.1827 0.0
Zn651 Zn 0.34945 0.58271 0.12249 0.0
Zn652 Zn 0.32157 0.50359 0.19569 0.0
Zn653 Zn 0.32826 0.54143 0.1533 0.0
C654 C 0.2879 0.48898 0.14058 0.0
C655 C 0.29106 0.54723 0.2137 0.0
O656 O 0.37721 0.55395 0.16543 0.0
O657 O 0.39377 0.58266 0.12745 0.0
C658 C 0.32557 0.54154 0.08048 0.0
O659 O 0.30805 0.50577 0.12748 0.0
O660 O 0.28717 0.48712 0.16943 0.0
O661 O 0.3166 0.5391 0.22399 0.0
O662 O 0.28872 0.55004 0.18464 0.0
O663 O 0.33419 0.56897 0.08199 0.0
O664 O 0.32268 0.52585 0.10523 0.0
O665 O 0.29743 0.58019 0.15878 0.0
O666 O 0.32829 0.61655 0.14422 0.0
C667 C 0.30204 0.60843 0.15255 0.0
O668 O 0.37136 0.52343 0.17383 0.0
O669 O 0.35976 0.48092 0.19808 0.0
C670 C 0.3988 0.56933 0.15237 0.0
C671 C 0.37968 0.49847 0.18708 0.0
Zn672 Zn 0.90612 0.43891 0.66344 0.0
Zn673 Zn 0.85592 0.53482 0.68791 0.0
Zn674 Zn 0.88032 0.48446 0.68344 0.0
C675 C 0.91455 0.5457 0.70154 0.0
C676 C 0.83488 0.49967 0.73653 0.0
O677 O 0.8697 0.47504 0.63456 0.0
O678 O 0.9033 0.44093 0.61904 0.0
C679 C 0.95227 0.46933 0.69128 0.0
O680 O 0.91389 0.51639 0.70096 0.0
O681 O 0.89252 0.56083 0.69096 0.0
O682 O 0.83736 0.52674 0.72731 0.0
O683 O 0.84751 0.47774 0.72143 0.0
O684 O 0.94747 0.44332 0.6801 0.0
O685 O 0.93011 0.48861 0.69331 0.0
O686 O 0.8653 0.44693 0.71351 0.0
O687 O 0.8799 0.40884 0.68425 0.0
C688 C 0.86887 0.41803 0.70919 0.0
O689 O 0.85907 0.50472 0.6408 0.0
O690 O 0.82815 0.54219 0.65339 0.0
C691 C 0.8815 0.45865 0.61316 0.0
C692 C 0.83994 0.52581 0.63296 0.0
Zn693 Zn 0.57363 0.8999 0.66613 0.0
Zn694 Zn 0.47733 0.84687 0.69046 0.0
Zn695 Zn 0.52919 0.87235 0.68741 0.0
C696 C 0.47043 0.90286 0.71697 0.0
C697 C 0.5153 0.81924 0.73395 0.0
O698 O 0.53881 0.86253 0.63788 0.0
O699 O 0.57353 0.89537 0.622 0.0
C700 C 0.54056 0.94559 0.69233 0.0
O701 O 0.49881 0.90427 0.70974 0.0
O702 O 0.45404 0.88095 0.70818 0.0
O703 O 0.48954 0.81837 0.72133 0.0
O704 O 0.53602 0.83776 0.72412 0.0
O705 O 0.5665 0.94169 0.68058 0.0
O706 O 0.52298 0.92236 0.69653 0.0
O707 O 0.5672 0.85672 0.71633 0.0
O708 O 0.60427 0.87587 0.68836 0.0
C709 C 0.5958 0.86242 0.71235 0.0
O710 O 0.50826 0.85469 0.64378 0.0
O711 O 0.46508 0.83002 0.65127 0.0
C712 C 0.55559 0.87373 0.61638 0.0
C713 C 0.48491 0.84014 0.63314 0.0
Zn714 Zn 0.17739 0.46581 0.68681 0.0
Zn715 Zn 0.11185 0.55412 0.66556 0.0
Zn716 Zn 0.14706 0.51535 0.68624 0.0
C717 C 0.14877 0.58268 0.70969 0.0
C718 C 0.07265 0.51747 0.69314 0.0
O719 O 0.16699 0.49882 0.64191 0.0
O720 O 0.19776 0.45951 0.64765 0.0
C721 C 0.19838 0.50281 0.73506 0.0
O722 O 0.1577 0.55523 0.71563 0.0
O723 O 0.13309 0.58759 0.68608 0.0
O724 O 0.07158 0.54414 0.6826 0.0
O725 O 0.09836 0.50323 0.69467 0.0
O726 O 0.20165 0.4779 0.72119 0.0
O727 O 0.17954 0.5231 0.72487 0.0
O728 O 0.11778 0.47907 0.704 0.0
O729 O 0.14508 0.43697 0.69921 0.0
C730 C 0.12107 0.45015 0.70804 0.0
O731 O 0.15657 0.53008 0.63784 0.0
O732 O 0.11594 0.55474 0.62108 0.0
C733 C 0.18448 0.47813 0.63026 0.0
C734 C 0.14233 0.54443 0.61631 0.0
Zn735 Zn 0.45827 0.11122 0.66724 0.0
Zn736 Zn 0.55085 0.17248 0.68174 0.0
Zn737 Zn 0.50198 0.14135 0.6813 0.0
C738 C 0.56796 0.11513 0.69883 0.0
C739 C 0.5151 0.19079 0.73188 0.0
O740 O 0.48279 0.15099 0.63458 0.0
O741 O 0.45632 0.10992 0.62268 0.0
C742 C 0.49595 0.06903 0.69149 0.0
O743 O 0.53902 0.11164 0.69541 0.0
O744 O 0.58063 0.13971 0.69088 0.0
O745 O 0.53997 0.19525 0.71817 0.0
O746 O 0.49531 0.17204 0.72088 0.0
O747 O 0.46761 0.07184 0.6874 0.0
O748 O 0.51338 0.09249 0.68831 0.0
O749 O 0.46672 0.15128 0.71534 0.0
O750 O 0.42816 0.14001 0.68585 0.0
C751 C 0.43777 0.1484 0.71156 0.0
O752 O 0.51347 0.163 0.63671 0.0
O753 O 0.55289 0.19355 0.64229 0.0
C754 C 0.46635 0.13581 0.61537 0.0
C755 C 0.53332 0.18139 0.62512 0.0
Zn756 Zn 0.85788 0.46917 0.33469 0.0
Zn757 Zn 0.906 0.57247 0.34513 0.0
Zn758 Zn 0.8815 0.52079 0.3313 0.0
C759 C 0.8663 0.58133 0.29829 0.0
C760 C 0.95264 0.53788 0.31974 0.0
O761 O 0.862 0.50791 0.37664 0.0
O762 O 0.83412 0.46646 0.3724 0.0
C763 C 0.83131 0.49755 0.28424 0.0
O764 O 0.86547 0.55208 0.29659 0.0
O765 O 0.87074 0.59319 0.32407 0.0
O766 O 0.94638 0.5654 0.32561 0.0
O767 O 0.93157 0.51738 0.32173 0.0
O768 O 0.83392 0.47238 0.2978 0.0
O769 O 0.8466 0.52092 0.29373 0.0
O770 O 0.91589 0.4881 0.31757 0.0
O771 O 0.89517 0.44397 0.33047 0.0
C772 C 0.91702 0.45884 0.31914 0.0
O773 O 0.87277 0.53797 0.37889 0.0
O774 O 0.90615 0.5741 0.38988 0.0
C775 C 0.84468 0.48746 0.38886 0.0
C776 C 0.88477 0.55681 0.39813 0.0
Zn777 Zn 0.43646 0.90185 0.35366 0.0
Zn778 Zn 0.52316 0.84061 0.32714 0.0
Zn779 Zn 0.48084 0.87523 0.33247 0.0
C780 C 0.53191 0.89429 0.2918 0.0
C781 C 0.48648 0.81266 0.29606 0.0
O782 O 0.47199 0.86394 0.38222 0.0
O783 O 0.4354 0.89505 0.39751 0.0
C784 C 0.46979 0.94789 0.32665 0.0
O785 O 0.51255 0.90547 0.31078 0.0
O786 O 0.53741 0.86597 0.2915 0.0
O787 O 0.49849 0.80356 0.32049 0.0
O788 O 0.47642 0.84028 0.29516 0.0
O789 O 0.44485 0.94382 0.34037 0.0
O790 O 0.48751 0.92489 0.32161 0.0
O791 O 0.44356 0.8584 0.30365 0.0
O792 O 0.40603 0.87954 0.32943 0.0
C793 C 0.41495 0.86428 0.30672 0.0
O794 O 0.50321 0.86055 0.37618 0.0
O795 O 0.54771 0.84045 0.36404 0.0
C796 C 0.45406 0.87404 0.40338 0.0
C797 C 0.52953 0.84999 0.38411 0.0
Zn798 Zn 0.11401 0.45703 0.35512 0.0
Zn799 Zn 0.19826 0.5391 0.32371 0.0
Zn800 Zn 0.1491 0.49248 0.33179 0.0
C801 C 0.13923 0.54464 0.28789 0.0
C802 C 0.20929 0.49002 0.29996 0.0
O803 O 0.15974 0.4834 0.38149 0.0
O804 O 0.11965 0.45882 0.39935 0.0
C805 C 0.07561 0.49505 0.32487 0.0
O806 O 0.12583 0.52675 0.3069 0.0
O807 O 0.16775 0.54973 0.28964 0.0
O808 O 0.2151 0.49651 0.32728 0.0
O809 O 0.18176 0.48215 0.29476 0.0
O810 O 0.07445 0.46984 0.33858 0.0
O811 O 0.10156 0.50835 0.32081 0.0
O812 O 0.16046 0.45043 0.30711 0.0
O813 O 0.13199 0.42074 0.33579 0.0
C814 C 0.15015 0.42377 0.31366 0.0
O815 O 0.16643 0.51512 0.37386 0.0
O816 O 0.19182 0.55777 0.36377 0.0
C817 C 0.14573 0.47 0.40376 0.0
C818 C 0.17896 0.54027 0.3827 0.0
Zn819 Zn 0.57366 0.09749 0.34608 0.0
Zn820 Zn 0.4586 0.16998 0.33187 0.0
Zn821 Zn 0.5091 0.1451 0.32756 0.0
C822 C 0.44706 0.11137 0.31295 0.0
C823 C 0.48788 0.1981 0.28268 0.0
O824 O 0.52995 0.14887 0.37442 0.0
O825 O 0.56561 0.11412 0.3878 0.0
C826 C 0.51849 0.06819 0.32087 0.0
O827 O 0.47637 0.11142 0.313 0.0
O828 O 0.43254 0.13391 0.32344 0.0
O829 O 0.46322 0.19719 0.29739 0.0
O830 O 0.51036 0.18072 0.29067 0.0
O831 O 0.54553 0.06516 0.33092 0.0
O832 O 0.50478 0.09443 0.31934 0.0
O833 O 0.54153 0.16431 0.29305 0.0
O834 O 0.55975 0.13257 0.32431 0.0
C835 C 0.56403 0.14746 0.3005 0.0
O836 O 0.49936 0.16202 0.37439 0.0
O837 O 0.45718 0.18906 0.37217 0.0
C838 C 0.54864 0.13689 0.39404 0.0
C839 C 0.47888 0.1784 0.38769 0.0
Zn840 Zn 0.6685 0.90573 0.45126 0.0
Zn841 Zn 0.68227 0.85707 0.54722 0.0
Zn842 Zn 0.68346 0.87921 0.49605 0.0
C843 C 0.6987 0.91397 0.55899 0.0
C844 C 0.73156 0.83048 0.51664 0.0
O845 O 0.63477 0.87214 0.48087 0.0
O846 O 0.62401 0.91157 0.45155 0.0
C847 C 0.69787 0.94992 0.48068 0.0
O848 O 0.70018 0.91235 0.52967 0.0
O849 O 0.68568 0.89321 0.57402 0.0
O850 O 0.72031 0.83506 0.54266 0.0
O851 O 0.71984 0.84381 0.49309 0.0
O852 O 0.69197 0.9438 0.45323 0.0
O853 O 0.69467 0.92895 0.50113 0.0
O854 O 0.71471 0.86268 0.46039 0.0
O855 O 0.68333 0.87361 0.42305 0.0
C856 C 0.70896 0.86374 0.43158 0.0
O857 O 0.63835 0.85947 0.51026 0.0
O858 O 0.64613 0.83101 0.55079 0.0
C859 C 0.61544 0.8876 0.46478 0.0
C860 C 0.62804 0.84122 0.53096 0.0
Zn861 Zn 0.68189 0.17566 0.46283 0.0
Zn862 Zn 0.66387 0.11543 0.55524 0.0
Zn863 Zn 0.68295 0.14739 0.51328 0.0
C864 C 0.70817 0.1543 0.57957 0.0
C865 C 0.69201 0.07374 0.52109 0.0
O866 O 0.6379 0.1657 0.49677 0.0
O867 O 0.64206 0.19381 0.45533 0.0
C868 C 0.72908 0.2007 0.49782 0.0
O869 O 0.71328 0.16071 0.55128 0.0
O870 O 0.68421 0.14006 0.58665 0.0
O871 O 0.68216 0.0751 0.54802 0.0
O872 O 0.69249 0.098 0.50439 0.0
O873 O 0.71412 0.20297 0.47345 0.0
O874 O 0.72084 0.1813 0.51847 0.0
O875 O 0.70051 0.1161 0.47883 0.0
O876 O 0.69613 0.14231 0.43599 0.0
C877 C 0.7048 0.11864 0.44988 0.0
O878 O 0.63461 0.15685 0.52834 0.0
O879 O 0.61925 0.11776 0.55618 0.0
C880 C 0.62543 0.1817 0.47536 0.0
C881 C 0.61364 0.14315 0.54396 0.0
Zn882 Zn 0.89946 0.66464 0.57466 0.0
Zn883 Zn 0.84807 0.68808 0.47752 0.0
Zn884 Zn 0.87203 0.68517 0.52929 0.0
C885 C 0.90366 0.71644 0.47233 0.0
C886 C 0.81719 0.73012 0.51307 0.0
O887 O 0.86116 0.63565 0.54015 0.0
O888 O 0.89142 0.6213 0.57782 0.0
C889 C 0.94586 0.68876 0.54133 0.0
O890 O 0.90519 0.70758 0.50024 0.0
O891 O 0.88148 0.7089 0.45569 0.0
O892 O 0.81621 0.71595 0.48816 0.0
O893 O 0.83663 0.72216 0.53381 0.0
O894 O 0.94205 0.67569 0.56664 0.0
O895 O 0.92249 0.69433 0.52426 0.0
O896 O 0.85447 0.71502 0.56544 0.0
O897 O 0.8775 0.69112 0.60324 0.0
C898 C 0.86158 0.71324 0.59393 0.0
O899 O 0.85623 0.64067 0.50877 0.0
O900 O 0.83487 0.6483 0.46384 0.0
C901 C 0.87077 0.61502 0.55895 0.0
C902 C 0.84352 0.63014 0.48431 0.0
Zn903 Zn 0.3261 0.85577 0.48323 0.0
Zn904 Zn 0.35193 0.90824 0.57704 0.0
Zn905 Zn 0.33036 0.88064 0.53359 0.0
C906 C 0.30817 0.87043 0.60058 0.0
C907 C 0.32172 0.95305 0.54706 0.0
O908 O 0.37316 0.8599 0.51368 0.0
O909 O 0.3616 0.82952 0.47548 0.0
C910 C 0.27843 0.83363 0.51991 0.0
O911 O 0.30179 0.8667 0.57214 0.0
O912 O 0.33422 0.88022 0.60784 0.0
O913 O 0.33306 0.94883 0.57313 0.0
O914 O 0.31998 0.93046 0.52824 0.0
O915 O 0.28799 0.83559 0.4929 0.0
O916 O 0.29287 0.84728 0.54165 0.0
O917 O 0.31096 0.91285 0.50129 0.0
O918 O 0.31996 0.89147 0.45654 0.0
C919 C 0.30903 0.91307 0.47202 0.0
O920 O 0.37963 0.87075 0.54352 0.0
O921 O 0.39648 0.90735 0.57363 0.0
C922 C 0.38158 0.84124 0.49244 0.0
C923 C 0.40162 0.88361 0.55834 0.0
Zn924 Zn 0.18068 0.32648 0.46863 0.0
Zn925 Zn 0.11036 0.34858 0.55465 0.0
Zn926 Zn 0.14732 0.32802 0.51756 0.0
C927 C 0.14605 0.30364 0.58453 0.0
C928 C 0.07259 0.32122 0.51594 0.0
O929 O 0.16729 0.37269 0.50186 0.0
O930 O 0.19842 0.36713 0.46279 0.0
C931 C 0.201 0.28073 0.51007 0.0
O932 O 0.15708 0.2985 0.55769 0.0
O933 O 0.12876 0.32626 0.58857 0.0
O934 O 0.07042 0.33303 0.542 0.0
O935 O 0.09895 0.3188 0.50305 0.0
O936 O 0.20574 0.29384 0.48493 0.0
O937 O 0.17983 0.29017 0.52826 0.0
O938 O 0.1199 0.31035 0.48002 0.0
O939 O 0.14952 0.3123 0.43917 0.0
C940 C 0.1245 0.30516 0.45145 0.0
O941 O 0.15651 0.37615 0.53311 0.0
O942 O 0.11565 0.39267 0.55757 0.0
C943 C 0.18494 0.38444 0.48136 0.0
C944 C 0.14232 0.39735 0.54796 0.0
Zn945 Zn 0.35404 0.10607 0.45389 0.0
Zn946 Zn 0.31908 0.19827 0.53409 0.0
Zn947 Zn 0.32942 0.14379 0.48677 0.0
C948 C 0.28501 0.13801 0.54163 0.0
C949 C 0.2967 0.20134 0.47991 0.0
O950 O 0.37923 0.15344 0.48007 0.0
O951 O 0.39808 0.11297 0.45683 0.0
C952 C 0.32285 0.07174 0.49566 0.0
O953 O 0.30304 0.12436 0.52285 0.0
O954 O 0.28687 0.16658 0.54648 0.0
O955 O 0.32271 0.20818 0.48983 0.0
O956 O 0.29378 0.17416 0.47003 0.0
O957 O 0.3375 0.0683 0.4712 0.0
O958 O 0.31792 0.09867 0.50633 0.0
O959 O 0.30623 0.1514 0.44246 0.0
O960 O 0.33488 0.11989 0.41584 0.0
C961 C 0.31297 0.13851 0.41691 0.0
O962 O 0.37001 0.16338 0.51017 0.0
O963 O 0.36017 0.19186 0.55114 0.0
C964 C 0.40208 0.13903 0.46823 0.0
C965 C 0.37889 0.17752 0.53448 0.0
Zn966 Zn 0.90656 0.35312 0.43861 0.0
Zn967 Zn 0.85802 0.33083 0.53659 0.0
Zn968 Zn 0.87987 0.3328 0.48435 0.0
C969 C 0.9147 0.31076 0.5441 0.0
C970 C 0.83076 0.28415 0.50251 0.0
O971 O 0.87182 0.38219 0.47502 0.0
O972 O 0.90514 0.39772 0.44061 0.0
C973 C 0.9521 0.3228 0.46806 0.0
O974 O 0.91262 0.31222 0.51489 0.0
O975 O 0.8951 0.32348 0.56084 0.0
O976 O 0.83521 0.294 0.52909 0.0
O977 O 0.84406 0.29707 0.47958 0.0
O978 O 0.9475 0.33491 0.44239 0.0
O979 O 0.92982 0.32075 0.48726 0.0
O980 O 0.86166 0.30442 0.4477 0.0
O981 O 0.87791 0.33327 0.40992 0.0
C982 C 0.86502 0.30912 0.41888 0.0
O983 O 0.86151 0.37633 0.50467 0.0
O984 O 0.83349 0.36718 0.54531 0.0
C985 C 0.88374 0.40366 0.45879 0.0
C986 C 0.84444 0.38606 0.52667 0.0
Zn987 Zn 0.11448 0.67307 0.46327 0.0
Zn988 Zn 0.1706 0.6833 0.55912 0.0
Zn989 Zn 0.14307 0.68561 0.50872 0.0
C990 C 0.11303 0.70158 0.57355 0.0
C991 C 0.1935 0.73402 0.52737 0.0
O992 O 0.15307 0.63922 0.48812 0.0
O993 O 0.11286 0.62856 0.45977 0.0
C994 C 0.0705 0.69528 0.49964 0.0
O995 O 0.11119 0.69878 0.54438 0.0
O996 O 0.13674 0.69303 0.58744 0.0
O997 O 0.1961 0.71835 0.5513 0.0
O998 O 0.17495 0.72543 0.50614 0.0
O999 O 0.07455 0.69285 0.47125 0.0
O1000 O 0.09339 0.69172 0.51781 0.0
O1001 O 0.15437 0.7211 0.47539 0.0
O1002 O 0.14537 0.69243 0.43569 0.0
C1003 C 0.15275 0.71807 0.44625 0.0
O1004 O 0.16421 0.64024 0.51899 0.0
O1005 O 0.19059 0.64366 0.56159 0.0
C1006 C 0.13823 0.62062 0.47063 0.0
C1007 C 0.18085 0.62768 0.5398 0.0
C1008 C 0.0499 0.18306 0.51396 0.0
C1009 C 0.03477 0.19878 0.53763 0.0
H1010 H 0.04938 0.16956 0.46687 0.0
C1011 C 0.00981 0.21721 0.53005 0.0
H1012 H 0.06959 0.1689 0.51872 0.0
C1013 C 0.99787 0.21706 0.50043 0.0
C1014 C 0.01164 0.19945 0.47748 0.0
H1015 H 0.99919 0.23117 0.54709 0.0
H1016 H 0.97725 0.22983 0.4957 0.0
C1017 C 0.03847 0.18345 0.48416 0.0
C1018 C 0.8115 0.99517 0.53393 0.0
C1019 C 0.81672 0.0261 0.53953 0.0
H1020 H 0.80879 0.95949 0.50079 0.0
C1021 C 0.82069 0.04579 0.51432 0.0
H1022 H 0.80947 0.97947 0.5526 0.0
C1023 C 0.82163 0.03435 0.48452 0.0
C1024 C 0.81759 0.00312 0.47916 0.0
H1025 H 0.82486 0.0699 0.51765 0.0
H1026 H 0.82706 0.04967 0.4659 0.0
C1027 C 0.81162 0.98381 0.50414 0.0
C1028 C 0.00187 0.80098 0.52085 0.0
C1029 C 0.01525 0.81947 0.54331 0.0
H1030 H 0.00299 0.78644 0.4741 0.0
C1031 C 0.04175 0.83585 0.53629 0.0
H1032 H 0.98145 0.78801 0.52588 0.0
C1033 C 0.05307 0.83594 0.50646 0.0
C1034 C 0.038 0.81965 0.48323 0.0
H1035 H 0.05222 0.8505 0.55321 0.0
H1036 H 0.07232 0.85048 0.50118 0.0
C1037 C 0.01357 0.80067 0.49114 0.0
C1038 C 0.18705 0.04366 0.52865 0.0
C1039 C 0.20042 0.01553 0.53578 0.0
H1040 H 0.17606 0.07572 0.49364 0.0
C1041 C 0.2171 4e-05 0.51324 0.0
H1042 H 0.1739 0.05595 0.54559 0.0
C1043 C 0.21869 0.01158 0.48354 0.0
C1044 C 0.20285 0.0381 0.47552 0.0
H1045 H 0.22802 0.97846 0.51834 0.0
H1046 H 0.23167 0.99945 0.46677 0.0
C1047 C 0.18826 0.05487 0.49879 0.0
C1048 C 0.5238 0.00323 0.21756 0.0
C1049 C 0.53147 0.03018 0.20232 0.0
H1050 H 0.48937 0.96966 0.22648 0.0
C1051 C 0.5081 0.0468 0.18773 0.0
H1052 H 0.54074 0.99099 0.2302 0.0
C1053 C 0.47843 0.03522 0.1862 0.0
C1054 C 0.47153 0.00701 0.19952 0.0
H1055 H 0.51309 0.06786 0.17582 0.0
H1056 H 0.46135 0.04742 0.17314 0.0
C1057 C 0.49423 0.99146 0.2159 0.0
C1058 C 0.04007 0.52964 0.19016 0.0
C1059 C 0.00993 0.53663 0.19817 0.0
H1060 H 0.07383 0.49523 0.18412 0.0
C1061 C 0.99073 0.51279 0.20793 0.0
H1062 H 0.0552 0.54715 0.18162 0.0
C1063 C 0.00115 0.48254 0.20837 0.0
C1064 C 0.03098 0.47541 0.19947 0.0
H1065 H 0.96725 0.51734 0.21417 0.0
H1066 H 0.98557 0.4647 0.21434 0.0
C1067 C 0.05058 0.49958 0.19123 0.0
C1068 C 0.51839 0.00078 0.79903 0.0
C1069 C 0.54057 0.01552 0.81687 0.0
H1070 H 0.47186 0.00082 0.78364 0.0
C1071 C 0.53314 0.04301 0.83135 0.0
H1072 H 0.52373 0.97961 0.78747 0.0
C1073 C 0.50329 0.05425 0.8301 0.0
C1074 C 0.48038 0.03809 0.81443 0.0
H1075 H 0.54982 0.05459 0.84542 0.0
H1076 H 0.49772 0.07443 0.84321 0.0
C1077 C 0.48865 0.01236 0.79741 0.0
C1078 C 0.05038 0.51463 0.82083 0.0
C1079 C 0.03036 0.5395 0.81641 0.0
H1080 H 0.05476 0.46644 0.82864 0.0
C1081 C 0.99936 0.53343 0.81175 0.0
H1082 H 0.07449 0.51838 0.82461 0.0
C1083 C 0.98832 0.5036 0.813 0.0
C1084 C 0.00792 0.47906 0.81966 0.0
H1085 H 0.98319 0.55176 0.80952 0.0
H1086 H 0.96399 0.49997 0.81066 0.0
C1087 C 0.03921 0.48477 0.82289 0.0
C1088 C 0.18513 0.53075 0.05276 0.0
C1089 C 0.20089 0.55324 0.03607 0.0
H1090 H 0.1715 0.48375 0.05526 0.0
C1091 C 0.21945 0.54405 0.01176 0.0
H1092 H 0.17097 0.53701 0.07201 0.0
C1093 C 0.21924 0.51371 0.00176 0.0
C1094 C 0.2014 0.49177 0.01686 0.0
H1095 H 0.23356 0.5605 0.0002 0.0
H1096 H 0.23217 0.5076 0.9816 0.0
C1097 C 0.18547 0.50023 0.04328 0.0
C1098 C 0.52547 0.22679 0.00035 0.0
C1099 C 0.53368 0.20764 0.97615 0.0
H1100 H 0.49111 0.23867 0.0332 0.0
C1101 C 0.51066 0.19022 0.96199 0.0
H1102 H 0.54199 0.24211 0.00997 0.0
C1103 C 0.48103 0.18945 0.97401 0.0
C1104 C 0.47403 0.20589 0.00051 0.0
H1105 H 0.51603 0.17543 0.94294 0.0
H1106 H 0.46441 0.17409 0.96414 0.0
C1107 C 0.49614 0.22545 0.01294 0.0
C1108 C 0.83756 0.50934 0.968 0.0
C1109 C 0.82002 0.53263 0.98148 0.0
H1110 H 0.85316 0.46301 0.97108 0.0
C1111 C 0.8002 0.52508 0.00539 0.0
H1112 H 0.85284 0.51433 0.94923 0.0
C1113 C 0.80075 0.4958 0.01819 0.0
C1114 C 0.82033 0.47335 0.00638 0.0
H1115 H 0.78503 0.54206 0.0147 0.0
H1116 H 0.78694 0.49109 0.03814 0.0
C1117 C 0.83772 0.47992 0.98038 0.0
C1118 C 0.52927 0.80524 0.01855 0.0
C1119 C 0.55279 0.82247 0.00538 0.0
H1120 H 0.48251 0.79191 0.016 0.0
C1121 C 0.54721 0.83845 0.9783 0.0
H1122 H 0.53321 0.7926 0.03942 0.0
C1123 C 0.51777 0.83937 0.96607 0.0
C1124 C 0.49348 0.82414 0.98066 0.0
H1125 H 0.56502 0.85208 0.96791 0.0
H1126 H 0.51376 0.85358 0.94626 0.0
C1127 C 0.50005 0.80553 0.00579 0.0
C1128 C 0.51512 0.72067 0.00506 0.0
C1129 C 0.52884 0.70183 0.98314 0.0
H1130 H 0.51628 0.73671 0.05109 0.0
C1131 C 0.55589 0.68647 0.99038 0.0
H1132 H 0.49449 0.7332 0.99971 0.0
C1133 C 0.56714 0.68722 0.02019 0.0
C1134 C 0.55158 0.70358 0.04307 0.0
H1135 H 0.56683 0.6718 0.97376 0.0
H1136 H 0.58665 0.67311 0.02574 0.0
C1137 C 0.52695 0.72208 0.03461 0.0
C1138 C 0.33007 0.48479 0.01554 0.0
C1139 C 0.32731 0.50398 0.98986 0.0
H1140 H 0.33193 0.48151 0.06432 0.0
C1141 C 0.3206 0.53487 0.99455 0.0
H1142 H 0.33528 0.46079 0.01281 0.0
C1143 C 0.31787 0.54656 0.02412 0.0
C1144 C 0.3223 0.5277 0.04977 0.0
H1145 H 0.31951 0.55044 0.9756 0.0
H1146 H 0.31381 0.57078 0.02688 0.0
C1147 C 0.32788 0.49655 0.04513 0.0
C1148 C 0.51045 0.31071 0.99947 0.0
C1149 C 0.49722 0.32767 0.9758 0.0
H1150 H 0.50806 0.29813 0.04641 0.0
C1151 C 0.47094 0.34488 0.98163 0.0
H1152 H 0.53038 0.29672 0.99527 0.0
C1153 C 0.45956 0.34708 0.01132 0.0
C1154 C 0.47396 0.33164 0.03557 0.0
H1155 H 0.46024 0.358 0.96362 0.0
H1156 H 0.44026 0.36196 0.01539 0.0
C1157 C 0.49833 0.3121 0.02891 0.0
C1158 C 0.69381 0.47383 0.98585 0.0
C1159 C 0.69875 0.50466 0.97889 0.0
H1160 H 0.6878 0.44014 0.02052 0.0
C1161 C 0.70217 0.52546 0.0031 0.0
H1162 H 0.68953 0.45742 0.96803 0.0
C1163 C 0.69925 0.51585 0.03337 0.0
C1164 C 0.69416 0.48508 0.04034 0.0
H1165 H 0.70542 0.54956 0.9987 0.0
H1166 H 0.69902 0.53285 0.05101 0.0
C1167 C 0.69216 0.46406 0.01615 0.0
C1168 C 0.99093 0.50389 0.7155 0.0
C1169 C 0.98414 0.47827 0.6977 0.0
H1170 H 0.0248 0.53707 0.72775 0.0
C1171 C 0.00819 0.46251 0.68336 0.0
H1172 H 0.97328 0.5149 0.72859 0.0
C1173 C 0.03778 0.47409 0.68409 0.0
C1174 C 0.04373 0.5017 0.69894 0.0
H1175 H 0.00389 0.44225 0.66992 0.0
H1176 H 0.05551 0.46264 0.67122 0.0
C1177 C 0.02042 0.51604 0.71556 0.0
C1178 C 0.49956 0.98392 0.70438 0.0
C1179 C 0.53009 0.97737 0.69758 0.0
H1180 H 0.46504 0.01803 0.70907 0.0
C1181 C 0.5501 0.00185 0.69186 0.0
H1182 H 0.48334 0.96592 0.70772 0.0
C1183 C 0.53933 0.0318 0.69094 0.0
C1184 C 0.50857 0.03819 0.69691 0.0
H1185 H 0.57383 0.99781 0.68627 0.0
H1186 H 0.5548 0.04964 0.68387 0.0
C1187 C 0.48899 0.01397 0.70455 0.0
C1188 C 0.00846 0.54848 0.32634 0.0
C1189 C 0.98514 0.52953 0.31486 0.0
H1190 H 0.05585 0.55244 0.33818 0.0
C1191 C 0.99333 0.50164 0.30162 0.0
H1192 H 0.00308 0.57035 0.33648 0.0
C1193 C 0.0235 0.49137 0.30275 0.0
C1194 C 0.04627 0.50923 0.31649 0.0
H1195 H 0.97631 0.48742 0.29124 0.0
H1196 H 0.02881 0.46883 0.29409 0.0
C1197 C 0.03875 0.53837 0.32724 0.0
C1198 C 0.5153 0.01593 0.29884 0.0
C1199 C 0.50161 0.03974 0.31538 0.0
H1200 H 0.51421 0.96837 0.28764 0.0
C1201 C 0.47499 0.03386 0.33199 0.0
H1202 H 0.53585 0.02001 0.28573 0.0
C1203 C 0.46372 0.00416 0.33413 0.0
C1204 C 0.47888 0.97975 0.31966 0.0
H1205 H 0.4643 0.05171 0.34532 0.0
H1206 H 0.44418 0.00015 0.3487 0.0
C1207 C 0.50358 0.98629 0.30053 0.0
C1208 C 0.69094 0.00527 0.46952 0.0
C1209 C 0.70245 0.98236 0.48893 0.0
H1210 H 0.67831 0.05221 0.46472 0.0
C1211 C 0.71476 0.9909 0.51712 0.0
H1212 H 0.68136 0.99962 0.44746 0.0
C1213 C 0.71302 0.02117 0.527 0.0
C1214 C 0.6994 0.04352 0.50847 0.0
H1215 H 0.72499 0.97416 0.53177 0.0
H1216 H 0.72136 0.02691 0.54955 0.0
C1217 C 0.68922 0.03549 0.47929 0.0
C1218 C 0.01473 0.70445 0.49111 0.0
C1219 C 0.03895 0.69861 0.51137 0.0
H1220 H 0.96664 0.70418 0.48419 0.0
C1221 C 0.03211 0.6921 0.54194 0.0
H1222 H 0.01908 0.70915 0.46724 0.0
C1223 C 0.00189 0.69097 0.55192 0.0
C1224 C 0.9776 0.69517 0.53132 0.0
H1225 H 0.0499 0.68618 0.5579 0.0
H1226 H 0.99762 0.68522 0.57557 0.0
C1227 C 0.98446 0.70222 0.50089 0.0
C1228 C 0.29928 0.99097 0.51041 0.0
C1229 C 0.31512 0.98481 0.53745 0.0
H1230 H 0.28941 0.02384 0.47553 0.0
C1231 C 0.32788 0.00942 0.55374 0.0
H1232 H 0.28756 0.97305 0.4986 0.0
C1233 C 0.32776 0.03882 0.54141 0.0
C1234 C 0.31498 0.04399 0.51261 0.0
H1235 H 0.33986 0.00569 0.57502 0.0
H1236 H 0.33973 0.05691 0.55323 0.0
C1237 C 0.29973 0.02017 0.49769 0.0
C1238 C 0.02034 0.29926 0.5154 0.0
C1239 C 0.04411 0.31394 0.49975 0.0
H1240 H 0.97295 0.28827 0.51603 0.0
C1241 C 0.03832 0.3267 0.47104 0.0
H1242 H 0.0244 0.28884 0.53744 0.0
C1243 C 0.00852 0.32754 0.45965 0.0
C1244 C 0.98407 0.31548 0.47676 0.0
H1245 H 0.05628 0.33823 0.4586 0.0
H1246 H 0.00446 0.33953 0.43843 0.0
C1247 C 0.99073 0.29954 0.50362 0.0
C1248 C 0.01054 0.27625 0.30578 0.0
C1249 C 0.98899 0.25437 0.29599 0.0
H1250 H 0.04279 0.31116 0.29246 0.0
C1251 C 0.98102 0.25391 0.26508 0.0
H1252 H 0.01788 0.27663 0.32937 0.0
C1253 C 0.996 0.27251 0.24406 0.0
C1254 C 0.01927 0.29287 0.25311 0.0
H1255 H 0.96505 0.23705 0.25665 0.0
H1256 H 0.98986 0.26995 0.22027 0.0
C1257 C 0.02538 0.29554 0.28454 0.0
C1258 C 0.76005 0.01566 0.27521 0.0
C1259 C 0.75958 0.99349 0.29874 0.0
H1260 H 0.73522 0.03949 0.24034 0.0
C1261 C 0.73117 0.98189 0.30778 0.0
H1262 H 0.78129 0.02602 0.26805 0.0
C1263 C 0.70453 0.99008 0.29178 0.0
C1264 C 0.7055 0.01072 0.26697 0.0
H1265 H 0.72971 0.96548 0.32618 0.0
H1266 H 0.68339 0.97861 0.29742 0.0
C1267 C 0.73342 0.02429 0.25975 0.0
C1268 C 0.04178 0.74341 0.30069 0.0
C1269 C 0.01322 0.75328 0.31074 0.0
H1270 H 0.06637 0.71512 0.26972 0.0
C1271 C 0.98684 0.73878 0.29886 0.0
H1272 H 0.06244 0.75372 0.30944 0.0
C1273 C 0.98889 0.71672 0.27582 0.0
C1274 C 0.01739 0.70857 0.26414 0.0
H1275 H 0.96429 0.74538 0.3065 0.0
H1276 H 0.96821 0.70728 0.26618 0.0
C1277 C 0.04383 0.72131 0.27773 0.0
C1278 C 0.26912 0.01254 0.24102 0.0
C1279 C 0.29478 0.99344 0.24525 0.0
H1280 H 0.23161 0.03623 0.26167 0.0
C1281 C 0.30485 0.98819 0.27521 0.0
H1282 H 0.26078 0.01765 0.21833 0.0
C1283 C 0.28817 0.99957 0.30015 0.0
C1284 C 0.26128 0.01674 0.29576 0.0
H1285 H 0.32469 0.97408 0.27944 0.0
H1286 H 0.29471 0.99255 0.32293 0.0
C1287 C 0.25275 0.02413 0.2659 0.0
C1288 C 0.02822 0.75345 0.76209 0.0
C1289 C 0.02296 0.72302 0.75388 0.0
H1290 H 0.01889 0.80043 0.75354 0.0
C1291 C 0.00694 0.71744 0.72648 0.0
H1292 H 0.03936 0.75866 0.78353 0.0
C1293 C 0.99435 0.74155 0.70926 0.0
C1294 C 0.99722 0.77191 0.71921 0.0
H1295 H 0.0014 0.69423 0.72008 0.0
H1296 H 0.981 0.7363 0.68915 0.0
C1297 C 0.01546 0.77744 0.74522 0.0
C1298 C 0.28902 0.98096 0.74601 0.0
C1299 C 0.30459 0.00761 0.75573 0.0
H1300 H 0.25422 0.96164 0.71737 0.0
C1301 C 0.29924 0.03486 0.7401 0.0
H1302 H 0.29288 0.95924 0.75714 0.0
C1303 C 0.27737 0.03585 0.71683 0.0
C1304 C 0.26029 0.00968 0.70868 0.0
H1305 H 0.31101 0.05559 0.74655 0.0
H1306 H 0.27281 0.05764 0.70607 0.0
C1307 C 0.26709 0.98199 0.72281 0.0
C1308 C 0.01975 0.26837 0.77117 0.0
C1309 C 0.00135 0.29489 0.76964 0.0
H1310 H 0.0406 0.23113 0.74721 0.0
C1311 C 0.99345 0.30597 0.74064 0.0
H1312 H 0.02708 0.25928 0.79294 0.0
C1313 C 0.00177 0.28969 0.71423 0.0
C1314 C 0.01888 0.26242 0.71606 0.0
H1315 H 0.98008 0.32661 0.73836 0.0
H1316 H 0.99301 0.29729 0.69239 0.0
C1317 C 0.02855 0.25258 0.74482 0.0
C1318 C 0.73513 0.02621 0.71982 0.0
C1319 C 0.76678 0.02171 0.72335 0.0
H1320 H 0.69028 0.01848 0.73872 0.0
C1321 C 0.77643 0.00121 0.74632 0.0
H1322 H 0.72671 0.04144 0.70229 0.0
C1323 C 0.75575 0.98736 0.76619 0.0
C1324 C 0.72445 0.99354 0.76436 0.0
H1325 H 0.80039 0.99631 0.74975 0.0
H1326 H 0.76459 0.97348 0.78465 0.0
C1327 C 0.71418 0.01245 0.74029 0.0
C1328 C 0.2703 0.26115 0.00452 0.0
C1329 C 0.29527 0.2606 0.025 0.0
H1330 H 0.23461 0.28733 0.98363 0.0
C1331 C 0.30598 0.28857 0.03625 0.0
H1332 H 0.26179 0.2403 0.99439 0.0
C1333 C 0.29023 0.31578 0.02964 0.0
C1334 C 0.26404 0.31582 0.01083 0.0
H1335 H 0.32561 0.28929 0.0512 0.0
H1336 H 0.29713 0.33653 0.04112 0.0
C1337 C 0.25514 0.28835 0.99734 0.0
C1338 C 0.31016 0.74114 0.02038 0.0
C1339 C 0.31712 0.76024 0.99525 0.0
H1340 H 0.27865 0.70962 0.04086 0.0
C1341 C 0.29785 0.75979 0.96993 0.0
H1342 H 0.32472 0.74088 0.04035 0.0
C1343 C 0.27129 0.7421 0.97049 0.0
C1344 C 0.26335 0.72432 0.99636 0.0
H1345 H 0.30229 0.77441 0.95049 0.0
H1346 H 0.25654 0.74303 0.9507 0.0
C1347 C 0.28357 0.72347 0.02099 0.0
C1348 C 0.73796 0.30277 0.04699 0.0
C1349 C 0.76595 0.29392 0.03426 0.0
H1350 H 0.69031 0.2924 0.0519 0.0
C1351 C 0.7659 0.26984 0.01272 0.0
H1352 H 0.73685 0.32159 0.06288 0.0
C1353 C 0.7391 0.25418 0.00524 0.0
C1354 C 0.7116 0.2617 0.01949 0.0
H1355 H 0.78679 0.26275 0.0016 0.0
H1356 H 0.74033 0.23485 0.98989 0.0
C1357 C 0.71121 0.28644 0.04012 0.0
C1358 C 0.73622 0.70963 0.03078 0.0
C1359 C 0.76137 0.71004 0.0106 0.0
H1360 H 0.70193 0.73554 0.05464 0.0
C1361 C 0.77 0.73791 0.99774 0.0
H1362 H 0.72957 0.6885 0.04175 0.0
C1363 C 0.75521 0.76493 0.0063 0.0
C1364 C 0.73096 0.76489 0.02766 0.0
H1365 H 0.7898 0.73921 0.98299 0.0
H1366 H 0.76328 0.78605 0.99636 0.0
C1367 C 0.72088 0.73665 0.03884 0.0
C1368 C 0.49419 0.76587 0.79848 0.0
C1369 C 0.52263 0.75523 0.80788 0.0
H1370 H 0.46982 0.79507 0.76834 0.0
C1371 C 0.54921 0.76792 0.79452 0.0
H1372 H 0.47344 0.75629 0.80778 0.0
C1373 C 0.54734 0.7894 0.77106 0.0
C1374 C 0.51886 0.79916 0.76085 0.0
H1375 H 0.57172 0.76036 0.80137 0.0
H1376 H 0.568 0.79716 0.76004 0.0
C1377 C 0.49233 0.78779 0.77544 0.0
C1378 C 0.22827 0.47909 0.77739 0.0
C1379 C 0.21678 0.50589 0.7633 0.0
H1380 H 0.25986 0.45958 0.80941 0.0
C1381 C 0.22577 0.53415 0.77469 0.0
H1382 H 0.22134 0.45672 0.76954 0.0
C1383 C 0.24745 0.53555 0.79806 0.0
C1384 C 0.26084 0.50875 0.81037 0.0
H1385 H 0.21746 0.55505 0.76449 0.0
H1386 H 0.25476 0.55792 0.80558 0.0
C1387 C 0.25016 0.48049 0.80055 0.0
C1388 C 0.4811 0.21525 0.77083 0.0
C1389 C 0.51033 0.20834 0.76025 0.0
H1390 H 0.45442 0.24344 0.80019 0.0
C1391 C 0.53585 0.22125 0.77519 0.0
H1392 H 0.46113 0.2054 0.76013 0.0
C1393 C 0.53216 0.24305 0.79813 0.0
C1394 C 0.50285 0.25233 0.80639 0.0
H1395 H 0.55884 0.21573 0.76801 0.0
H1396 H 0.55206 0.25415 0.80766 0.0
C1397 C 0.47741 0.23711 0.79371 0.0
C1398 C 0.77369 0.46665 0.7866 0.0
C1399 C 0.76571 0.49201 0.805 0.0
H1400 H 0.80157 0.4491 0.75054 0.0
C1401 C 0.78365 0.51829 0.8034 0.0
H1402 H 0.76071 0.44566 0.78736 0.0
C1403 C 0.80786 0.5197 0.78258 0.0
C1404 C 0.81443 0.49495 0.76289 0.0
H1405 H 0.77847 0.53795 0.81743 0.0
H1406 H 0.82065 0.54077 0.78095 0.0
C1407 C 0.79759 0.46818 0.76571 0.0
C1408 C 0.51405 0.22117 0.23695 0.0
C1409 C 0.48891 0.21955 0.25646 0.0
H1410 H 0.53463 0.24383 0.19905 0.0
C1411 C 0.4636 0.23887 0.25075 0.0
H1412 H 0.53361 0.20648 0.24033 0.0
C1413 C 0.46404 0.26028 0.22712 0.0
C1414 C 0.48974 0.26279 0.20852 0.0
H1415 H 0.44353 0.23816 0.26514 0.0
H1416 H 0.44502 0.27583 0.22447 0.0
C1417 C 0.51441 0.24248 0.21319 0.0
C1418 C 0.76818 0.47269 0.23021 0.0
C1419 C 0.76186 0.49963 0.21452 0.0
H1420 H 0.79514 0.45094 0.26422 0.0
C1421 C 0.78033 0.52555 0.22008 0.0
H1422 H 0.75417 0.45264 0.22689 0.0
C1423 C 0.8035 0.52504 0.24202 0.0
C1424 C 0.80895 0.49849 0.25875 0.0
H1425 H 0.7762 0.54675 0.20806 0.0
H1426 H 0.81651 0.54557 0.24637 0.0
C1427 C 0.79155 0.47207 0.25193 0.0
C1428 C 0.50172 0.79317 0.21261 0.0
C1429 C 0.51848 0.76579 0.21519 0.0
H1430 H 0.47808 0.82937 0.23576 0.0
C1431 C 0.52481 0.75447 0.24434 0.0
H1432 H 0.49569 0.80193 0.19029 0.0
C1433 C 0.51323 0.76914 0.27021 0.0
C1434 C 0.49548 0.79599 0.26777 0.0
H1435 H 0.53656 0.73289 0.24707 0.0
H1436 H 0.51807 0.7591 0.29226 0.0
C1437 C 0.49067 0.80831 0.23859 0.0
C1438 C 0.2684 0.54319 0.26512 0.0
C1439 C 0.26457 0.53947 0.2336 0.0
H1440 H 0.25561 0.52999 0.30987 0.0
C1441 C 0.24048 0.52064 0.22341 0.0
H1442 H 0.28689 0.55708 0.27384 0.0
C1443 C 0.22188 0.5047 0.24452 0.0
C1444 C 0.22741 0.5069 0.27614 0.0
H1445 H 0.23729 0.51663 0.19925 0.0
H1446 H 0.20405 0.48985 0.2361 0.0
C1447 C 0.25059 0.52699 0.28588 0.0
C1448 C 0.76885 0.79572 0.5426 0.0
C1449 C 0.7563 0.80743 0.51515 0.0
H1450 H 0.79658 0.76135 0.56388 0.0
C1451 C 0.76528 0.79446 0.48755 0.0
H1452 H 0.76234 0.80507 0.56452 0.0
C1453 C 0.78572 0.77004 0.48737 0.0
C1454 C 0.79731 0.75748 0.51484 0.0
H1455 H 0.75564 0.80228 0.46623 0.0
H1456 H 0.7919 0.76054 0.46542 0.0
C1457 C 0.78884 0.77081 0.54246 0.0
C1458 C 0.79229 0.2542 0.47269 0.0
C1459 C 0.8079 0.25946 0.49986 0.0
H1460 H 0.7557 0.23131 0.45081 0.0
C1461 C 0.79856 0.24367 0.5265 0.0
H1462 H 0.7983 0.26641 0.45209 0.0
C1463 C 0.7732 0.22433 0.52629 0.0
C1464 C 0.757 0.21978 0.49931 0.0
H1465 H 0.81013 0.24722 0.54804 0.0
H1466 H 0.76567 0.21402 0.54734 0.0
C1467 C 0.76737 0.23442 0.47235 0.0
C1468 C 0.21348 0.78067 0.5001 0.0
C1469 C 0.21207 0.76235 0.52614 0.0
H1470 H 0.23496 0.81858 0.47833 0.0
C1471 C 0.22937 0.77097 0.55209 0.0
H1472 H 0.20016 0.77513 0.48005 0.0
C1473 C 0.24926 0.79585 0.55127 0.0
C1474 C 0.2523 0.81276 0.52451 0.0
H1475 H 0.22846 0.75781 0.57298 0.0
H1476 H 0.26357 0.80056 0.57085 0.0
C1477 C 0.23334 0.80565 0.49934 0.0
C1478 C 0.25098 0.26055 0.52419 0.0
C1479 C 0.22091 0.25422 0.51554 0.0
H1480 H 0.2981 0.25001 0.51878 0.0
C1481 C 0.21541 0.22773 0.4981 0.0
H1482 H 0.25616 0.28129 0.53658 0.0
C1483 C 0.23967 0.20967 0.48723 0.0
C1484 C 0.27001 0.21793 0.4934 0.0
H1485 H 0.19255 0.22286 0.49008 0.0
H1486 H 0.23474 0.19043 0.47256 0.0
C1487 C 0.27515 0.24293 0.51307 0.0
C1488 C 0.04082 0.08804 0.37216 0.0
C1489 C 0.04213 0.10155 0.34314 0.0
H1490 H 0.0653 0.06195 0.40534 0.0
C1491 C 0.06313 0.09019 0.3217 0.0
H1492 H 0.02487 0.09612 0.38918 0.0
C1493 C 0.08611 0.07008 0.33094 0.0
C1494 C 0.08839 0.0618 0.36174 0.0
H1495 H 0.06431 0.09991 0.299 0.0
H1496 H 0.10453 0.06508 0.31524 0.0
C1497 C 0.06408 0.0684 0.38151 0.0
C1498 C 0.94681 0.06188 0.38537 0.0
C1499 C 0.95411 0.0871 0.36704 0.0
H1500 H 0.91801 0.02321 0.39107 0.0
C1501 C 0.9446 0.08746 0.33648 0.0
H1502 H 0.95428 0.0609 0.40891 0.0
C1503 C 0.92348 0.06592 0.32623 0.0
C1504 C 0.91222 0.04361 0.34633 0.0
H1505 H 0.95016 0.10654 0.32179 0.0
H1506 H 0.91347 0.06884 0.30383 0.0
C1507 C 0.92609 0.04011 0.375 0.0
C1508 C 0.95363 0.92623 0.32257 0.0
C1509 C 0.97667 0.91698 0.34298 0.0
H1510 H 0.91079 0.94933 0.31799 0.0
C1511 C 0.98018 0.93317 0.37041 0.0
H1512 H 0.95071 0.91456 0.30099 0.0
C1513 C 0.95708 0.95273 0.38028 0.0
C1514 C 0.93075 0.95676 0.36249 0.0
H1515 H 0.99779 0.92699 0.38657 0.0
H1516 H 0.95791 0.96132 0.40344 0.0
C1517 C 0.93067 0.94615 0.33233 0.0
C1518 C 0.09158 0.9539 0.32189 0.0
C1519 C 0.10277 0.97616 0.34212 0.0
H1520 H 0.06677 0.91202 0.31782 0.0
C1521 C 0.08875 0.97928 0.37078 0.0
H1522 H 0.10173 0.95121 0.29951 0.0
C1523 C 0.0692 0.9565 0.38142 0.0
C1524 C 0.06292 0.93097 0.36318 0.0
H1525 H 0.09668 0.99618 0.38693 0.0
H1526 H 0.06253 0.95673 0.40522 0.0
C1527 C 0.07149 0.93142 0.33237 0.0
C1528 C 0.08656 0.94958 0.67688 0.0
C1529 C 0.08673 0.95692 0.64572 0.0
H1530 H 0.0677 0.92061 0.71141 0.0
C1531 C 0.06238 0.94724 0.62731 0.0
H1532 H 0.10494 0.95694 0.69165 0.0
C1533 C 0.04074 0.92689 0.63875 0.0
C1534 C 0.04352 0.91563 0.66862 0.0
H1535 H 0.06178 0.95296 0.60327 0.0
H1536 H 0.02441 0.91714 0.62302 0.0
C1537 C 0.06522 0.92877 0.68821 0.0
C1538 C 0.05886 0.06017 0.63941 0.0
C1539 C 0.0537 0.08592 0.6576 0.0
H1540 H 0.08646 0.02125 0.63265 0.0
C1541 C 0.06243 0.08518 0.68835 0.0
H1542 H 0.05164 0.06 0.61576 0.0
C1543 C 0.08247 0.06245 0.69842 0.0
C1544 C 0.09382 0.0408 0.67756 0.0
H1545 H 0.05816 0.1046 0.70303 0.0
H1546 H 0.09295 0.06503 0.72065 0.0
C1547 C 0.07881 0.03755 0.6494 0.0
C1548 C 0.97488 0.08879 0.65287 0.0
C1549 C 0.97069 0.10648 0.67926 0.0
H1550 H 0.95437 0.05749 0.6217 0.0
C1551 C 0.94717 0.09834 0.6996 0.0
H1552 H 0.9923 0.09448 0.6364 0.0
C1553 C 0.92499 0.07708 0.69084 0.0
C1554 C 0.9262 0.06403 0.66166 0.0
H1555 H 0.94352 0.11134 0.72029 0.0
H1556 H 0.90476 0.07458 0.70482 0.0
C1557 C 0.95281 0.06759 0.64421 0.0
C1558 C 0.93795 0.93036 0.68297 0.0
C1559 C 0.95062 0.93286 0.65368 0.0
H1560 H 0.90306 0.94612 0.71333 0.0
C1561 C 0.94392 0.95883 0.63605 0.0
H1562 H 0.94272 0.91063 0.69707 0.0
C1563 C 0.92134 0.9793 0.64545 0.0
C1564 C 0.90505 0.97389 0.67248 0.0
H1565 H 0.95357 0.96141 0.61344 0.0
H1566 H 0.91418 0.99693 0.62971 0.0
C1567 C 0.91505 0.9506 0.69218 0.0
C1568 C 0.32407 0.0703 0.09389 0.0
C1569 C 0.34382 0.0478 0.1054 0.0
H1570 H 0.32021 0.11109 0.06732 0.0
C1571 C 0.373 0.04471 0.09256 0.0
H1572 H 0.30137 0.073 0.10327 0.0
C1573 C 0.38388 0.0667 0.07229 0.0
C1574 C 0.36561 0.09182 0.06443 0.0
H1575 H 0.38886 0.0278 0.10105 0.0
H1576 H 0.40763 0.06584 0.0655 0.0
C1577 C 0.33484 0.09206 0.07321 0.0
C1578 C 0.95073 0.32348 0.10494 0.0
C1579 C 0.97387 0.34304 0.11532 0.0
H1580 H 0.91049 0.31937 0.07769 0.0
C1581 C 0.97902 0.37064 0.09992 0.0
H1582 H 0.94656 0.30192 0.11628 0.0
C1583 C 0.95812 0.38081 0.07817 0.0
C1584 C 0.93221 0.36326 0.07138 0.0
H1585 H 0.99665 0.3862 0.10743 0.0
H1586 H 0.96032 0.40381 0.06939 0.0
C1587 C 0.93017 0.33342 0.08272 0.0
C1588 C 0.70069 0.95621 0.09859 0.0
C1589 C 0.67901 0.97858 0.10653 0.0
H1590 H 0.70833 0.91422 0.07476 0.0
C1591 C 0.65305 0.98192 0.08803 0.0
H1592 H 0.72117 0.95333 0.11212 0.0
C1593 C 0.6458 0.95957 0.06662 0.0
C1594 C 0.66445 0.93376 0.06349 0.0
H1595 H 0.63569 0.99856 0.09334 0.0
H1596 H 0.62352 0.96024 0.05594 0.0
C1597 C 0.69339 0.93378 0.07707 0.0
C1598 C 0.06196 0.70753 0.08588 0.0
C1599 C 0.04225 0.68468 0.09683 0.0
H1600 H 0.10294 0.71622 0.06075 0.0
C1601 C 0.04056 0.65701 0.08073 0.0
H1602 H 0.06331 0.72933 0.09743 0.0
C1603 C 0.06333 0.64951 0.05988 0.0
C1604 C 0.08742 0.66982 0.05476 0.0
H1605 H 0.02578 0.63881 0.08825 0.0
H1606 H 0.06484 0.62617 0.05187 0.0
C1607 C 0.08471 0.70003 0.06481 0.0
C1608 C 0.32877 0.95984 0.93319 0.0
C1609 C 0.34784 0.98237 0.92058 0.0
H1610 H 0.32751 0.91709 0.95679 0.0
C1611 C 0.37722 0.98611 0.93283 0.0
H1612 H 0.30573 0.95691 0.92474 0.0
C1613 C 0.3899 0.96291 0.95055 0.0
C1614 C 0.3728 0.93667 0.95702 0.0
H1615 H 0.3924 0.00356 0.92421 0.0
H1616 H 0.41412 0.96353 0.95539 0.0
C1617 C 0.34131 0.93688 0.95145 0.0
C1618 C 0.06502 0.39482 0.95466 0.0
C1619 C 0.09022 0.37733 0.96395 0.0
H1620 H 0.02715 0.39827 0.92423 0.0
C1621 C 0.09169 0.34648 0.95555 0.0
H1622 H 0.06315 0.41857 0.9612 0.0
C1623 C 0.07127 0.33492 0.93397 0.0
C1624 C 0.04885 0.35393 0.92112 0.0
H1625 H 0.11073 0.33238 0.96259 0.0
H1626 H 0.07505 0.3122 0.92503 0.0
C1627 C 0.04426 0.38308 0.93355 0.0
C1628 C 0.62691 0.06811 0.94741 0.0
C1629 C 0.64558 0.09279 0.95569 0.0
H1630 H 0.6218 0.02929 0.91842 0.0
C1631 C 0.67672 0.09171 0.94839 0.0
H1632 H 0.6028 0.06846 0.95282 0.0
C1633 C 0.68749 0.06975 0.92788 0.0
C1634 C 0.66736 0.04821 0.91528 0.0
H1635 H 0.69158 0.11049 0.95446 0.0
H1636 H 0.7105 0.07193 0.91914 0.0
C1637 C 0.63784 0.0457 0.92752 0.0
C1638 C 0.97863 0.64417 0.92438 0.0
C1639 C 0.97429 0.67265 0.91031 0.0
H1640 H 0.95865 0.60995 0.95284 0.0
C1641 C 0.95229 0.69262 0.92245 0.0
H1642 H 0.99513 0.6281 0.9155 0.0
C1643 C 0.93149 0.6822 0.94434 0.0
C1644 C 0.93224 0.65159 0.95367 0.0
H1645 H 0.94857 0.71478 0.91216 0.0
H1646 H 0.91218 0.69652 0.95009 0.0
C1647 C 0.95757 0.63363 0.94583 0.0
C1648 C 0.09633 0.31716 0.0689 0.0
C1649 C 0.10383 0.33972 0.04726 0.0
H1650 H 0.07362 0.30838 0.11126 0.0
C1651 C 0.08432 0.36499 0.04428 0.0
H1652 H 0.11041 0.29698 0.07128 0.0
C1653 C 0.0629 0.37119 0.06695 0.0
C1654 C 0.06118 0.35235 0.09274 0.0
H1655 H 0.089 0.38285 0.02802 0.0
H1656 H 0.05192 0.39335 0.06703 0.0
C1657 C 0.07499 0.32354 0.09178 0.0
C1658 C 0.08327 0.65767 0.97512 0.0
C1659 C 0.09713 0.6861 0.96999 0.0
H1660 H 0.05745 0.62168 0.95481 0.0
C1661 C 0.08517 0.70511 0.94705 0.0
H1662 H 0.09162 0.6425 0.99272 0.0
C1663 C 0.06534 0.69304 0.92519 0.0
C1664 C 0.05769 0.66201 0.92638 0.0
H1665 H 0.09501 0.7274 0.94299 0.0
H1666 H 0.06038 0.70643 0.90502 0.0
C1667 C 0.06381 0.6455 0.95311 0.0
C1668 C 0.32464 0.09389 0.95307 0.0
C1669 C 0.34526 0.10626 0.97429 0.0
H1670 H 0.31972 0.06853 0.91161 0.0
C1671 C 0.37519 0.09485 0.97525 0.0
H1672 H 0.30132 0.10204 0.95208 0.0
C1673 C 0.38582 0.07623 0.95173 0.0
C1674 C 0.36638 0.0682 0.92762 0.0
H1675 H 0.39163 0.10376 0.99138 0.0
H1676 H 0.40999 0.07122 0.95047 0.0
C1677 C 0.33514 0.07463 0.92992 0.0
C1678 C 0.94875 0.33433 0.9352 0.0
C1679 C 0.95788 0.36496 0.93543 0.0
H1680 H 0.91843 0.30129 0.95451 0.0
C1681 C 0.9511 0.38304 0.96098 0.0
H1682 H 0.95384 0.31988 0.91581 0.0
C1683 C 0.9311 0.37234 0.98332 0.0
C1684 C 0.91737 0.34361 0.98002 0.0
H1685 H 0.95825 0.40668 0.96179 0.0
H1686 H 0.92328 0.38824 0.0005 0.0
C1687 C 0.92834 0.32374 0.95732 0.0
C1688 C 0.6863 0.94643 0.92757 0.0
C1689 C 0.65592 0.95623 0.92993 0.0
H1690 H 0.72018 0.91558 0.94456 0.0
C1691 C 0.63936 0.94925 0.95645 0.0
H1692 H 0.69963 0.9516 0.9074 0.0
C1693 C 0.65121 0.9289 0.9779 0.0
C1694 C 0.67966 0.91501 0.97287 0.0
H1695 H 0.61596 0.95682 0.95894 0.0
H1696 H 0.63637 0.9212 0.99604 0.0
C1697 C 0.69803 0.92569 0.94882 0.0
C1698 C 0.95555 0.63148 0.06277 0.0
C1699 C 0.96142 0.65029 0.08801 0.0
H1700 H 0.92809 0.62432 0.02324 0.0
C1701 C 0.95069 0.68043 0.08771 0.0
H1702 H 0.96401 0.60826 0.06229 0.0
C1703 C 0.92963 0.68956 0.06551 0.0
C1704 C 0.91956 0.66871 0.04328 0.0
H1705 H 0.95514 0.69546 0.1068 0.0
H1706 H 0.91822 0.71131 0.06825 0.0
C1707 C 0.93512 0.64086 0.04017 0.0
C1708 C 0.33268 0.94785 0.08113 0.0
C1709 C 0.36201 0.96051 0.08246 0.0
H1710 H 0.305 0.91331 0.0606 0.0
C1711 C 0.3816 0.95701 0.0574 0.0
H1712 H 0.31702 0.95051 0.10008 0.0
C1713 C 0.37478 0.93572 0.03481 0.0
C1714 C 0.34827 0.9179 0.03719 0.0
H1715 H 0.4042 0.96699 0.05778 0.0
H1716 H 0.39271 0.92978 0.01895 0.0
C1717 C 0.32584 0.92641 0.05852 0.0
C1718 C 0.68441 0.09369 0.06607 0.0
C1719 C 0.66305 0.10397 0.04438 0.0
H1720 H 0.69115 0.06849 0.10743 0.0
C1721 C 0.63512 0.08854 0.04191 0.0
H1722 H 0.70624 0.10506 0.0683 0.0
C1723 C 0.62622 0.06814 0.06479 0.0
C1724 C 0.64552 0.06236 0.08976 0.0
H1725 H 0.61823 0.09579 0.02539 0.0
H1726 H 0.60289 0.05999 0.06497 0.0
C1727 C 0.67573 0.07277 0.0886 0.0
C1728 C 0.57041 0.57903 0.8237 0.0
C1729 C 0.55048 0.59205 0.84526 0.0
H1730 H 0.61003 0.55108 0.81743 0.0
C1731 C 0.54759 0.57798 0.87392 0.0
H1732 H 0.57274 0.58907 0.80123 0.0
C1733 C 0.569 0.55644 0.88318 0.0
C1734 C 0.59314 0.54865 0.86375 0.0
H1735 H 0.53276 0.58722 0.89126 0.0
H1736 H 0.56923 0.54937 0.90688 0.0
C1737 C 0.59186 0.55731 0.83299 0.0
C1738 C 0.43589 0.5685 0.83369 0.0
C1739 C 0.42258 0.54739 0.85381 0.0
H1740 H 0.46579 0.60679 0.82947 0.0
C1741 C 0.43632 0.54235 0.88233 0.0
H1742 H 0.42595 0.57253 0.81142 0.0
C1743 C 0.45864 0.56236 0.89289 0.0
C1744 C 0.46779 0.58707 0.87475 0.0
H1745 H 0.42672 0.52622 0.89838 0.0
H1746 H 0.46588 0.56073 0.91647 0.0
C1747 C 0.45868 0.58816 0.84408 0.0
C1748 C 0.42799 0.45411 0.82914 0.0
C1749 C 0.43216 0.46298 0.85959 0.0
H1750 H 0.4419 0.42279 0.7944 0.0
C1751 C 0.4598 0.45641 0.87403 0.0
H1752 H 0.40694 0.45945 0.81733 0.0
C1753 C 0.47953 0.43518 0.86121 0.0
C1754 C 0.4719 0.42058 0.83365 0.0
H1755 H 0.46372 0.46363 0.89735 0.0
H1756 H 0.49706 0.42649 0.87598 0.0
C1757 C 0.44806 0.433 0.81604 0.0
C1758 C 0.5643 0.45022 0.87491 0.0
C1759 C 0.55691 0.42481 0.85709 0.0
H1760 H 0.59481 0.48682 0.88109 0.0
C1761 C 0.5662 0.42386 0.8265 0.0
H1762 H 0.5567 0.45171 0.89839 0.0
C1763 C 0.58792 0.44476 0.81605 0.0
C1764 C 0.60038 0.46628 0.83634 0.0
H1765 H 0.56024 0.40464 0.81217 0.0
H1766 H 0.59838 0.44089 0.79399 0.0
C1767 C 0.58585 0.47099 0.86453 0.0
C1768 C 0.5566 0.43076 0.19957 0.0
C1769 C 0.53413 0.42283 0.17807 0.0
H1770 H 0.60053 0.45112 0.20597 0.0
C1771 C 0.53258 0.43938 0.15066 0.0
H1772 H 0.55798 0.41875 0.22114 0.0
C1773 C 0.55725 0.45742 0.14179 0.0
C1774 C 0.58293 0.45975 0.16073 0.0
H1775 H 0.51538 0.43419 0.13373 0.0
H1776 H 0.55816 0.46571 0.11852 0.0
C1777 C 0.58104 0.44932 0.19089 0.0
C1778 C 0.56544 0.5632 0.14182 0.0
C1779 C 0.56105 0.58871 0.1606 0.0
H1780 H 0.59169 0.52306 0.13443 0.0
C1781 C 0.57033 0.58725 0.19118 0.0
H1782 H 0.55809 0.56376 0.11822 0.0
C1783 C 0.59011 0.56402 0.20048 0.0
C1784 C 0.60011 0.54213 0.17927 0.0
H1785 H 0.5669 0.60659 0.20618 0.0
H1786 H 0.6013 0.56609 0.22242 0.0
C1787 C 0.58471 0.53969 0.15128 0.0
C1788 C 0.42866 0.58807 0.19633 0.0
C1789 C 0.42832 0.57462 0.16733 0.0
H1790 H 0.45036 0.62117 0.22489 0.0
C1791 C 0.45469 0.57585 0.14925 0.0
H1792 H 0.40857 0.58729 0.21071 0.0
C1793 C 0.47885 0.5948 0.15755 0.0
C1794 C 0.47643 0.61326 0.18364 0.0
H1795 H 0.45496 0.56534 0.12688 0.0
H1796 H 0.49679 0.5985 0.14101 0.0
C1797 C 0.45263 0.6075 0.20443 0.0
C1798 C 0.42431 0.49021 0.15357 0.0
C1799 C 0.41061 0.48616 0.18225 0.0
H1800 H 0.4498 0.46867 0.11798 0.0
C1801 C 0.42129 0.46271 0.20136 0.0
H1802 H 0.41667 0.50805 0.13829 0.0
C1803 C 0.44088 0.44037 0.18978 0.0
C1804 C 0.4492 0.44116 0.15892 0.0
H1805 H 0.41136 0.45934 0.22375 0.0
H1806 H 0.44529 0.42022 0.20342 0.0
C1807 C 0.44335 0.46758 0.14183 0.0
C1808 C 0.86702 0.53586 0.58437 0.0
C1809 C 0.8399 0.53785 0.60139 0.0
H1810 H 0.89819 0.55996 0.55566 0.0
C1811 C 0.81829 0.56018 0.59321 0.0
H1812 H 0.88428 0.51913 0.5899 0.0
C1813 C 0.82645 0.58377 0.57329 0.0
C1814 C 0.85619 0.58504 0.56163 0.0
H1815 H 0.79698 0.56203 0.60558 0.0
H1816 H 0.81137 0.60325 0.57112 0.0
C1817 C 0.87517 0.55948 0.56467 0.0
C1818 C 0.43112 0.83683 0.56922 0.0
C1819 C 0.43104 0.86812 0.56246 0.0
H1820 H 0.45036 0.8022 0.59774 0.0
C1821 C 0.45683 0.88562 0.56946 0.0
H1822 H 0.41163 0.82274 0.56358 0.0
C1823 C 0.4793 0.87371 0.58853 0.0
C1824 C 0.47564 0.84445 0.60112 0.0
H1825 H 0.45748 0.90969 0.56389 0.0
H1826 H 0.49616 0.88935 0.59743 0.0
C1827 C 0.45338 0.82502 0.58874 0.0
C1828 C 0.18869 0.42542 0.56463 0.0
C1829 C 0.15773 0.4259 0.55654 0.0
H1830 H 0.22258 0.44361 0.59468 0.0
C1831 C 0.13995 0.45124 0.56446 0.0
H1832 H 0.20304 0.40631 0.55833 0.0
C1833 C 0.15108 0.47257 0.58513 0.0
C1834 C 0.18016 0.46877 0.59814 0.0
H1835 H 0.11615 0.45244 0.55789 0.0
H1836 H 0.13491 0.48868 0.59434 0.0
C1837 C 0.19991 0.44688 0.58541 0.0
C1838 C 0.56262 0.19954 0.58017 0.0
C1839 C 0.54099 0.17918 0.59234 0.0
H1840 H 0.60362 0.20358 0.55391 0.0
C1841 C 0.53708 0.15075 0.57802 0.0
H1842 H 0.56576 0.22187 0.59026 0.0
C1843 C 0.559 0.14016 0.5576 0.0
C1844 C 0.58447 0.1582 0.55082 0.0
H1845 H 0.52065 0.13442 0.58635 0.0
H1846 H 0.55819 0.1165 0.55051 0.0
C1847 C 0.58444 0.18901 0.5594 0.0
C1848 C 0.88822 0.45924 0.45157 0.0
C1849 C 0.86969 0.43396 0.45755 0.0
H1850 H 0.89312 0.49958 0.42556 0.0
C1851 C 0.83819 0.43609 0.45245 0.0
H1852 H 0.91248 0.45834 0.45623 0.0
C1853 C 0.82689 0.45992 0.43455 0.0
C1854 C 0.84734 0.48103 0.42173 0.0
H1855 H 0.82332 0.41706 0.45766 0.0
H1856 H 0.80374 0.45832 0.42606 0.0
C1857 C 0.8768 0.48326 0.43424 0.0
C1858 C 0.5393 0.88414 0.42771 0.0
C1859 C 0.5414 0.85485 0.41503 0.0
H1860 H 0.56223 0.91803 0.45434 0.0
C1861 C 0.56249 0.83399 0.42711 0.0
H1862 H 0.52315 0.90058 0.41878 0.0
C1863 C 0.58431 0.84374 0.44813 0.0
C1864 C 0.58572 0.87462 0.45632 0.0
H1865 H 0.56432 0.81121 0.41772 0.0
H1866 H 0.60247 0.82819 0.45443 0.0
C1867 C 0.56173 0.89416 0.44797 0.0
C1868 C 0.14402 0.54827 0.42659 0.0
C1869 C 0.17303 0.55215 0.41362 0.0
H1870 H 0.11003 0.56741 0.45595 0.0
C1871 C 0.19314 0.57348 0.42658 0.0
H1872 H 0.12796 0.53216 0.41701 0.0
C1873 C 0.18297 0.59339 0.44933 0.0
C1874 C 0.1524 0.5926 0.45871 0.0
H1875 H 0.21572 0.57673 0.4171 0.0
H1876 H 0.19787 0.61169 0.45662 0.0
C1877 C 0.13367 0.56856 0.44885 0.0
C1878 C 0.45324 0.19622 0.43473 0.0
C1879 C 0.47379 0.1758 0.42088 0.0
H1880 H 0.41312 0.20003 0.46227 0.0
C1881 C 0.47797 0.14696 0.43423 0.0
H1882 H 0.45005 0.21888 0.42538 0.0
C1883 C 0.45691 0.13622 0.45547 0.0
C1884 C 0.43161 0.15423 0.46323 0.0
H1885 H 0.49348 0.13052 0.4244 0.0
H1886 H 0.45766 0.11232 0.46173 0.0
C1887 C 0.43196 0.18537 0.45587 0.0
C1888 C 0.56114 0.87869 0.5608 0.0
C1889 C 0.55709 0.85961 0.58612 0.0
H1890 H 0.58696 0.88665 0.52079 0.0
C1891 C 0.5658 0.82894 0.58407 0.0
H1892 H 0.55391 0.90232 0.56173 0.0
C1893 C 0.58492 0.8197 0.56026 0.0
C1894 C 0.59535 0.84136 0.53896 0.0
H1895 H 0.56238 0.81366 0.6032 0.0
H1896 H 0.5958 0.79756 0.56184 0.0
C1897 C 0.57997 0.86942 0.53696 0.0
C1898 C 0.55991 0.18368 0.42359 0.0
C1899 C 0.55418 0.15222 0.42332 0.0
H1900 H 0.58749 0.21906 0.44272 0.0
C1901 C 0.56253 0.13459 0.44863 0.0
H1902 H 0.55321 0.19783 0.40446 0.0
C1903 C 0.5817 0.14682 0.47079 0.0
C1904 C 0.59318 0.17656 0.46727 0.0
H1905 H 0.55772 0.11036 0.44915 0.0
H1906 H 0.59155 0.13117 0.4871 0.0
C1907 C 0.57945 0.19588 0.44563 0.0
C1908 C 0.88977 0.5694 0.45304 0.0
C1909 C 0.87102 0.56175 0.42828 0.0
H1910 H 0.89409 0.59616 0.49342 0.0
C1911 C 0.83955 0.5671 0.43024 0.0
H1912 H 0.91406 0.56492 0.45217 0.0
C1913 C 0.82817 0.58557 0.45358 0.0
C1914 C 0.84824 0.59827 0.47509 0.0
H1915 H 0.82461 0.56101 0.41153 0.0
H1916 H 0.80487 0.59368 0.45199 0.0
C1917 C 0.87818 0.58702 0.47688 0.0
C1918 C 0.42217 0.82051 0.45864 0.0
C1919 C 0.41326 0.84193 0.48084 0.0
H1920 H 0.44422 0.81425 0.41547 0.0
C1921 C 0.42937 0.86959 0.48271 0.0
H1922 H 0.41052 0.79879 0.45692 0.0
C1923 C 0.44859 0.87838 0.45895 0.0
C1924 C 0.45205 0.85948 0.43342 0.0
H1925 H 0.42328 0.88676 0.4993 0.0
H1926 H 0.45676 0.9017 0.45833 0.0
C1927 C 0.44162 0.8293 0.4349 0.0
C1928 C 0.19193 0.4523 0.43118 0.0
C1929 C 0.1615 0.4622 0.43241 0.0
H1930 H 0.22414 0.41933 0.44736 0.0
C1931 C 0.14372 0.45426 0.45779 0.0
H1932 H 0.2063 0.45838 0.41201 0.0
C1933 C 0.15368 0.4316 0.47773 0.0
C1934 C 0.18186 0.41704 0.47289 0.0
H1935 H 0.1203 0.46201 0.45953 0.0
H1936 H 0.13712 0.42246 0.49345 0.0
C1937 C 0.20209 0.42973 0.4514 0.0
C1938 C 0.42286 0.19118 0.56805 0.0
C1939 C 0.40947 0.17105 0.54701 0.0
H1940 H 0.45316 0.19577 0.6061 0.0
C1941 C 0.4218 0.14167 0.54364 0.0
H1942 H 0.41385 0.214 0.571 0.0
C1943 C 0.44417 0.13128 0.56367 0.0
C1944 C 0.45446 0.15006 0.58741 0.0
H1945 H 0.41169 0.12533 0.52819 0.0
H1946 H 0.45088 0.10751 0.56268 0.0
C1947 C 0.44552 0.18081 0.58799 0.0
C1948 C 0.87548 0.4321 0.53445 0.0
C1949 C 0.84677 0.41803 0.53673 0.0
H1950 H 0.90948 0.45754 0.55825 0.0
C1951 C 0.82593 0.42894 0.55855 0.0
H1952 H 0.89224 0.42434 0.51811 0.0
C1953 C 0.83608 0.44817 0.58185 0.0
C1954 C 0.867 0.4562 0.58318 0.0
H1955 H 0.80347 0.41884 0.5605 0.0
H1956 H 0.82118 0.45239 0.60112 0.0
C1957 C 0.88564 0.45101 0.55779 0.0
C1958 C 0.18852 0.56019 0.58765 0.0
C1959 C 0.15761 0.55196 0.58737 0.0
H1960 H 0.22165 0.59132 0.57002 0.0
C1961 C 0.13978 0.55947 0.56189 0.0
H1962 H 0.20298 0.55405 0.60673 0.0
C1963 C 0.15062 0.58044 0.5406 0.0
C1964 C 0.17906 0.59449 0.5452 0.0
H1965 H 0.11608 0.55256 0.56071 0.0
H1966 H 0.13442 0.5895 0.52438 0.0
C1967 C 0.1993 0.58142 0.56642 0.0
C1968 C 0.06393 0.2475 0.43323 0.0
C1969 C 0.06521 0.24626 0.40136 0.0
H1970 H 0.08184 0.26655 0.47408 0.0
C1971 C 0.08474 0.2664 0.38578 0.0
H1972 H 0.04916 0.23268 0.44583 0.0
C1973 C 0.10317 0.28667 0.40199 0.0
C1974 C 0.10229 0.28717 0.43399 0.0
H1975 H 0.08607 0.26632 0.36111 0.0
H1976 H 0.11852 0.30148 0.38952 0.0
C1977 C 0.08239 0.26748 0.44942 0.0
C1978 C 0.74226 0.07576 0.44951 0.0
C1979 C 0.72346 0.09608 0.43342 0.0
H1980 H 0.77571 0.04068 0.44684 0.0
C1981 C 0.72554 0.09726 0.40149 0.0
H1982 H 0.74212 0.07501 0.47415 0.0
C1983 C 0.74679 0.07929 0.38614 0.0
C1984 C 0.76599 0.05934 0.40237 0.0
H1985 H 0.7115 0.11282 0.3884 0.0
H1986 H 0.74836 0.08138 0.36157 0.0
C1987 C 0.76253 0.05686 0.434 0.0
C1988 C 0.94265 0.79187 0.46186 0.0
C1989 C 0.95568 0.7877 0.43303 0.0
H1990 H 0.9169 0.77104 0.49794 0.0
C1991 C 0.95414 0.75912 0.41871 0.0
H1992 H 0.9435 0.8139 0.47298 0.0
C1993 C 0.93837 0.73525 0.43226 0.0
C1994 C 0.9248 0.73939 0.46078 0.0
H1995 H 0.964 0.75573 0.39627 0.0
H1996 H 0.93601 0.71384 0.42014 0.0
C1997 C 0.92775 0.76746 0.47603 0.0
C1998 C 0.26903 0.96802 0.42005 0.0
C1999 C 0.23853 0.95957 0.42515 0.0
H2000 H 0.31602 0.95922 0.43091 0.0
C2001 C 0.23144 0.93761 0.4471 0.0
H2002 H 0.27471 0.98478 0.40278 0.0
C2003 C 0.25481 0.92395 0.46372 0.0
C2004 C 0.28539 0.93139 0.45768 0.0
H2005 H 0.20802 0.93076 0.45098 0.0
H2006 H 0.24914 0.90649 0.48029 0.0
C2007 C 0.2925 0.95356 0.43592 0.0
C2008 C 0.06071 0.76735 0.58951 0.0
C2009 C 0.05878 0.76675 0.62138 0.0
H2010 H 0.0788 0.74693 0.5493 0.0
C2011 C 0.07238 0.7424 0.63731 0.0
H2012 H 0.05108 0.78585 0.5767 0.0
C2013 C 0.08854 0.71986 0.62163 0.0
C2014 C 0.09108 0.72111 0.58975 0.0
H2015 H 0.07103 0.74098 0.66194 0.0
H2016 H 0.09982 0.70201 0.63448 0.0
C2017 C 0.07656 0.7448 0.57382 0.0
C2018 C 0.21843 0.11845 0.59337 0.0
C2019 C 0.21871 0.08643 0.59221 0.0
H2020 H 0.23933 0.15996 0.57846 0.0
C2021 C 0.23985 0.0718 0.5732 0.0
H2022 H 0.20257 0.13042 0.60806 0.0
C2023 C 0.26039 0.08866 0.55599 0.0
C2024 C 0.26135 0.12047 0.55813 0.0
H2025 H 0.24164 0.04721 0.57257 0.0
H2026 H 0.27611 0.07655 0.54181 0.0
C2027 C 0.23964 0.13534 0.57656 0.0
C2028 C 0.96792 0.26755 0.59493 0.0
C2029 C 0.95881 0.2375 0.58856 0.0
H2030 H 0.96037 0.31508 0.58583 0.0
C2031 C 0.93708 0.23171 0.56605 0.0
H2032 H 0.98451 0.27218 0.61267 0.0
C2033 C 0.92427 0.25601 0.55013 0.0
C2034 C 0.93231 0.28615 0.55751 0.0
H2035 H 0.92976 0.20862 0.56121 0.0
H2036 H 0.90692 0.25141 0.53313 0.0
C2037 C 0.95427 0.29191 0.57981 0.0
C2038 C 0.73008 0.96998 0.61608 0.0
C2039 C 0.76153 0.96703 0.61054 0.0
H2040 H 0.68495 0.95531 0.60363 0.0
C2041 C 0.77176 0.94709 0.58788 0.0
H2042 H 0.72185 0.98481 0.63405 0.0
C2043 C 0.75087 0.9312 0.57003 0.0
C2044 C 0.71946 0.9342 0.57539 0.0
H2045 H 0.79589 0.94285 0.58484 0.0
H2046 H 0.75929 0.91553 0.55286 0.0
C2047 C 0.70909 0.95339 0.59872 0.0
C2048 C 0.42818 0.05587 0.25086 0.0
C2049 C 0.39638 0.05416 0.25304 0.0
H2050 H 0.46934 0.07495 0.26815 0.0
C2051 C 0.38177 0.06823 0.2779 0.0
H2052 H 0.43994 0.04567 0.23207 0.0
C2053 C 0.39859 0.0851 0.29899 0.0
C2054 C 0.43031 0.08808 0.29563 0.0
H2055 H 0.35724 0.06698 0.2806 0.0
H2056 H 0.38663 0.09689 0.31712 0.0
C2057 C 0.44503 0.07259 0.27185 0.0
C2058 C 0.95061 0.429 0.24699 0.0
C2059 C 0.97031 0.40639 0.2577 0.0
H2060 H 0.91923 0.46439 0.25875 0.0
C2061 C 0.97323 0.40134 0.28923 0.0
H2062 H 0.94668 0.43185 0.22276 0.0
C2063 C 0.95672 0.41917 0.30988 0.0
C2064 C 0.93769 0.44239 0.299 0.0
H2065 H 0.98785 0.38333 0.29777 0.0
H2066 H 0.95844 0.41461 0.3341 0.0
C2067 C 0.93479 0.44727 0.2675 0.0
C2068 C 0.56483 0.92167 0.21747 0.0
C2069 C 0.58109 0.94741 0.22699 0.0
H2070 H 0.53565 0.88487 0.23104 0.0
C2071 C 0.58081 0.95589 0.2579 0.0
H2072 H 0.56554 0.91438 0.19387 0.0
C2073 C 0.56428 0.93891 0.27907 0.0
C2074 C 0.54753 0.91354 0.2695 0.0
H2075 H 0.59406 0.9752 0.26578 0.0
H2076 H 0.56489 0.94531 0.30294 0.0
C2077 C 0.54798 0.90488 0.23864 0.0
C2078 C 0.07329 0.57298 0.24013 0.0
C2079 C 0.08827 0.59032 0.21778 0.0
H2080 H 0.07764 0.54497 0.27932 0.0
C2081 C 0.12029 0.59082 0.21736 0.0
H2082 H 0.04865 0.57274 0.24173 0.0
C2083 C 0.1369 0.57544 0.23978 0.0
C2084 C 0.12177 0.55925 0.263 0.0
H2085 H 0.13247 0.60421 0.20053 0.0
H2086 H 0.16156 0.57691 0.2393 0.0
C2087 C 0.08991 0.5574 0.26222 0.0
C2088 C 0.41501 0.95189 0.7591 0.0
C2089 C 0.42929 0.95432 0.78763 0.0
H2090 H 0.4171 0.93332 0.71401 0.0
C2091 C 0.45836 0.94199 0.79212 0.0
H2092 H 0.39239 0.96124 0.75548 0.0
C2093 C 0.47297 0.92713 0.76797 0.0
C2094 C 0.45794 0.92352 0.73984 0.0
H2095 H 0.46947 0.94358 0.81413 0.0
H2096 H 0.49519 0.91698 0.77174 0.0
C2097 C 0.42904 0.93618 0.73546 0.0
C2098 C 0.05929 0.43318 0.76533 0.0
C2099 C 0.06416 0.40216 0.77095 0.0
H2100 H 0.07493 0.47319 0.74301 0.0
C2101 C 0.0854 0.38624 0.75293 0.0
H2102 H 0.04198 0.44561 0.77744 0.0
C2103 C 0.10245 0.40151 0.73087 0.0
C2104 C 0.0991 0.43311 0.72689 0.0
H2105 H 0.08925 0.36204 0.75612 0.0
H2106 H 0.11915 0.38875 0.71787 0.0
C2107 C 0.07731 0.44874 0.74438 0.0
C2108 C 0.63275 0.07839 0.74178 0.0
C2109 C 0.61676 0.06291 0.76492 0.0
H2110 H 0.62971 0.10654 0.70188 0.0
C2111 C 0.58488 0.06248 0.76403 0.0
H2112 H 0.65745 0.07885 0.74154 0.0
C2113 C 0.5691 0.07792 0.74131 0.0
C2114 C 0.58492 0.09404 0.71864 0.0
H2115 H 0.57199 0.05104 0.78137 0.0
H2116 H 0.54443 0.07836 0.74246 0.0
C2117 C 0.61694 0.09391 0.71886 0.0
C2118 C 0.97513 0.59041 0.74258 0.0
C2119 C 0.96122 0.5933 0.77133 0.0
H2120 H 0.97048 0.57341 0.69675 0.0
C2121 C 0.9334 0.57899 0.7772 0.0
H2122 H 0.99643 0.60194 0.7377 0.0
C2123 C 0.91932 0.56217 0.75439 0.0
C2124 C 0.93238 0.56042 0.72524 0.0
H2125 H 0.92229 0.58145 0.79915 0.0
H2126 H 0.89749 0.55154 0.75911 0.0
C2127 C 0.96037 0.57448 0.71927 0.0
C2128 C 0.24273 0.45789 0.07408 0.0
C2129 C 0.22261 0.43776 0.08877 0.0
H2130 H 0.27782 0.49103 0.07906 0.0
C2131 C 0.22277 0.4362 0.12076 0.0
H2132 H 0.24397 0.45903 0.04949 0.0
C2133 C 0.24373 0.45317 0.13755 0.0
C2134 C 0.26473 0.47234 0.12272 0.0
H2135 H 0.20761 0.42084 0.13279 0.0
H2136 H 0.24388 0.45068 0.16214 0.0
C2137 C 0.26306 0.47549 0.09097 0.0
C2138 C 0.22786 0.57084 0.94028 0.0
C2139 C 0.23128 0.59982 0.95301 0.0
H2140 H 0.25078 0.53336 0.91888 0.0
C2141 C 0.26029 0.61307 0.95559 0.0
H2142 H 0.20553 0.56049 0.93827 0.0
C2143 C 0.28572 0.59817 0.9441 0.0
C2144 C 0.28244 0.56943 0.93089 0.0
H2145 H 0.26305 0.63558 0.96546 0.0
H2146 H 0.3077 0.60943 0.94459 0.0
C2147 C 0.25362 0.55537 0.92974 0.0
C2148 C 0.3789 0.27345 0.93481 0.0
C2149 C 0.3951 0.25521 0.95565 0.0
H2150 H 0.38131 0.30851 0.90091 0.0
C2151 C 0.42615 0.26082 0.9603 0.0
H2152 H 0.35469 0.27017 0.93114 0.0
C2153 C 0.44137 0.28234 0.94286 0.0
C2154 C 0.42564 0.29968 0.92106 0.0
H2155 H 0.43904 0.24814 0.97684 0.0
H2156 H 0.46582 0.28375 0.94526 0.0
C2157 C 0.39405 0.29562 0.91773 0.0
C2158 C 0.74556 0.37926 0.94771 0.0
C2159 C 0.76924 0.39558 0.96192 0.0
H2160 H 0.7062 0.38144 0.91883 0.0
C2161 C 0.76992 0.42736 0.9593 0.0
H2162 H 0.74419 0.35466 0.94954 0.0
C2163 C 0.74797 0.44265 0.94235 0.0
C2164 C 0.72487 0.42635 0.92741 0.0
H2165 H 0.78796 0.4404 0.96941 0.0
H2166 H 0.75005 0.46714 0.93976 0.0
C2167 C 0.72361 0.39454 0.93045 0.0
C2168 C 0.59594 0.76702 0.95992 0.0
C2169 C 0.62782 0.76645 0.96104 0.0
H2170 H 0.55544 0.74722 0.94201 0.0
C2171 C 0.6435 0.74255 0.9464 0.0
H2172 H 0.58329 0.78501 0.97065 0.0
C2173 C 0.62752 0.72038 0.93012 0.0
C2174 C 0.59561 0.72165 0.9283 0.0
H2175 H 0.66816 0.74118 0.94713 0.0
H2176 H 0.64018 0.70277 0.91826 0.0
C2177 C 0.57997 0.74498 0.94369 0.0
C2178 C 0.75901 0.59529 0.05995 0.0
C2179 C 0.78764 0.58101 0.06153 0.0
H2180 H 0.71258 0.59509 0.07518 0.0
C2181 C 0.79089 0.55326 0.07688 0.0
H2182 H 0.75637 0.61699 0.04836 0.0
C2183 C 0.76551 0.54012 0.09098 0.0
C2184 C 0.7373 0.55546 0.09096 0.0
H2185 H 0.81294 0.54223 0.07846 0.0
H2186 H 0.76839 0.51909 0.10364 0.0
C2187 C 0.73408 0.58289 0.07509 0.0
C2188 C 0.46233 0.79218 0.08043 0.0
C2189 C 0.4416 0.78676 0.05688 0.0
H2190 H 0.49213 0.77205 0.11342 0.0
C2191 C 0.43566 0.75675 0.04727 0.0
H2192 H 0.46681 0.81519 0.08822 0.0
C2193 C 0.44919 0.73215 0.06222 0.0
C2194 C 0.46954 0.73757 0.08611 0.0
H2195 H 0.41927 0.75233 0.02931 0.0
H2196 H 0.44333 0.70908 0.05565 0.0
C2197 C 0.47668 0.76764 0.09464 0.0
C2198 C 0.55138 0.23585 0.0785 0.0
C2199 C 0.57538 0.24027 0.05802 0.0
H2200 H 0.51963 0.25731 0.10878 0.0
C2201 C 0.58518 0.26998 0.05095 0.0
H2202 H 0.54392 0.21306 0.08444 0.0
C2203 C 0.57221 0.29507 0.06556 0.0
C2204 C 0.54863 0.29062 0.08651 0.0
H2205 H 0.60413 0.27362 0.03548 0.0
H2206 H 0.581 0.31772 0.06111 0.0
C2207 C 0.53766 0.26103 0.09228 0.0
C2208 C 0.89511 0.76398 0.6524 0.0
C2209 C 0.89419 0.79153 0.63634 0.0
H2210 H 0.88192 0.71723 0.65301 0.0
C2211 C 0.87229 0.79488 0.61287 0.0
H2212 H 0.91101 0.76081 0.67105 0.0
C2213 C 0.8571 0.7695 0.60117 0.0
C2214 C 0.86219 0.74068 0.61385 0.0
H2215 H 0.87001 0.81615 0.6005 0.0
H2216 H 0.84501 0.77199 0.57986 0.0
C2217 C 0.87832 0.73897 0.64183 0.0
C2218 C 0.2632 0.91904 0.6541 0.0
C2219 C 0.23357 0.91175 0.64487 0.0
H2220 H 0.31052 0.90993 0.6487 0.0
C2221 C 0.22888 0.88398 0.62903 0.0
H2222 H 0.26773 0.9399 0.66648 0.0
C2223 C 0.25352 0.86765 0.61706 0.0
C2224 C 0.28327 0.87773 0.62235 0.0
H2225 H 0.20618 0.87695 0.6223 0.0
H2226 H 0.24918 0.84908 0.60137 0.0
C2227 C 0.28782 0.90172 0.64351 0.0
C2228 C 0.11401 0.2633 0.65262 0.0
C2229 C 0.11897 0.23292 0.64441 0.0
H2230 H 0.12135 0.30996 0.64149 0.0
C2231 C 0.14116 0.22665 0.62167 0.0
H2232 H 0.09757 0.269 0.67017 0.0
C2233 C 0.15362 0.25011 0.60387 0.0
C2234 C 0.14513 0.28035 0.60932 0.0
H2235 H 0.14619 0.20343 0.61492 0.0
H2236 H 0.16724 0.24427 0.5841 0.0
C2237 C 0.12768 0.28676 0.63582 0.0
C2238 C 0.78704 0.14607 0.61157 0.0
C2239 C 0.78107 0.12613 0.63629 0.0
H2240 H 0.7686 0.16976 0.57322 0.0
C2241 C 0.75109 0.12373 0.64686 0.0
H2242 H 0.80995 0.1489 0.60278 0.0
C2243 C 0.72736 0.13794 0.63084 0.0
C2244 C 0.73295 0.15316 0.60281 0.0
H2245 H 0.74569 0.10893 0.66591 0.0
H2246 H 0.70427 0.13367 0.63851 0.0
C2247 C 0.76323 0.1587 0.59455 0.0
C2248 C 0.90231 0.25995 0.36116 0.0
C2249 C 0.89786 0.23157 0.37501 0.0
H2250 H 0.89253 0.30744 0.36268 0.0
C2251 C 0.8731 0.22819 0.39544 0.0
H2252 H 0.9205 0.26324 0.34475 0.0
C2253 C 0.85824 0.25377 0.40721 0.0
C2254 C 0.86675 0.28291 0.39748 0.0
H2255 H 0.86804 0.20632 0.40578 0.0
H2256 H 0.84307 0.25083 0.42643 0.0
C2257 C 0.88614 0.28536 0.37172 0.0
C2258 C 0.78864 0.87227 0.40173 0.0
C2259 C 0.78392 0.89581 0.38009 0.0
H2260 H 0.76845 0.84419 0.43617 0.0
C2261 C 0.75429 0.90072 0.36934 0.0
H2262 H 0.81129 0.86704 0.4101 0.0
C2263 C 0.72968 0.8859 0.38326 0.0
C2264 C 0.7342 0.86702 0.40914 0.0
H2265 H 0.74981 0.91815 0.35241 0.0
H2266 H 0.70696 0.89244 0.37611 0.0
C2267 C 0.76401 0.85873 0.41676 0.0
C2268 C 0.1372 0.769 0.37845 0.0
C2269 C 0.10676 0.77725 0.38452 0.0
H2270 H 0.17633 0.74323 0.39357 0.0
C2271 C 0.09381 0.76864 0.41251 0.0
H2272 H 0.14807 0.77621 0.35747 0.0
C2273 C 0.11084 0.75279 0.43416 0.0
C2274 C 0.14082 0.7435 0.42785 0.0
H2275 H 0.07069 0.77516 0.4182 0.0
H2276 H 0.09987 0.74626 0.45532 0.0
C2277 C 0.15373 0.75123 0.39951 0.0
C2278 C 0.26352 0.15321 0.39197 0.0
C2279 C 0.29148 0.1379 0.39069 0.0
H2280 H 0.21689 0.15316 0.37852 0.0
C2281 C 0.29571 0.11561 0.36771 0.0
H2282 H 0.25967 0.17101 0.40867 0.0
C2283 C 0.27081 0.10418 0.35141 0.0
C2284 C 0.24157 0.1157 0.35703 0.0
H2285 H 0.31737 0.10401 0.3651 0.0
H2286 H 0.27394 0.08401 0.33749 0.0
C2287 C 0.23894 0.14275 0.37452 0.0
C2288 C 0.65376 0.90168 0.75998 0.0
C2289 C 0.6395 0.89943 0.78842 0.0
H2290 H 0.65267 0.88867 0.7132 0.0
C2291 C 0.61828 0.87555 0.79305 0.0
H2292 H 0.67072 0.91914 0.75575 0.0
C2293 C 0.60641 0.85939 0.76833 0.0
C2294 C 0.61683 0.86554 0.73882 0.0
H2295 H 0.60755 0.87217 0.81505 0.0
H2296 H 0.58663 0.84517 0.77202 0.0
C2297 C 0.64311 0.8841 0.73553 0.0
C2298 C 0.11663 0.65101 0.74984 0.0
C2299 C 0.12129 0.64278 0.78029 0.0
H2300 H 0.12427 0.63981 0.70324 0.0
C2301 C 0.14321 0.61982 0.78671 0.0
H2302 H 0.1004 0.66871 0.74399 0.0
C2303 C 0.15557 0.60182 0.76338 0.0
C2304 C 0.14751 0.60738 0.73305 0.0
H2305 H 0.14806 0.61303 0.80996 0.0
H2306 H 0.1688 0.58186 0.7694 0.0
C2307 C 0.13034 0.63406 0.72649 0.0
C2308 C 0.37087 0.13356 0.76389 0.0
C2309 C 0.37703 0.10316 0.77227 0.0
H2310 H 0.38556 0.17243 0.73746 0.0
C2311 C 0.40447 0.08977 0.76268 0.0
H2312 H 0.35031 0.14472 0.77181 0.0
C2313 C 0.42566 0.10646 0.746 0.0
C2314 C 0.41937 0.13647 0.73687 0.0
H2315 H 0.41025 0.06668 0.76928 0.0
H2316 H 0.44655 0.0953 0.73897 0.0
C2317 C 0.39145 0.14975 0.74531 0.0
C2318 C 0.87741 0.39348 0.79051 0.0
C2319 C 0.90271 0.37361 0.78747 0.0
H2320 H 0.84712 0.42426 0.76777 0.0
C2321 C 0.90885 0.36127 0.75871 0.0
H2322 H 0.87117 0.4028 0.81252 0.0
C2323 C 0.89344 0.37243 0.73304 0.0
C2324 C 0.87267 0.39709 0.73562 0.0
H2325 H 0.92762 0.34553 0.75554 0.0
H2326 H 0.90094 0.36443 0.71091 0.0
C2327 C 0.86317 0.40579 0.76478 0.0
C2328 C 0.63234 0.10414 0.27005 0.0
C2329 C 0.63213 0.11233 0.2392 0.0
H2330 H 0.61228 0.11018 0.31384 0.0
C2331 C 0.61322 0.13697 0.23009 0.0
H2332 H 0.6467 0.08566 0.27803 0.0
C2333 C 0.59218 0.15004 0.25032 0.0
C2334 C 0.59025 0.13952 0.28038 0.0
H2335 H 0.61253 0.14437 0.20653 0.0
H2336 H 0.57624 0.16694 0.24191 0.0
C2337 C 0.61204 0.11796 0.29047 0.0
C2338 C 0.9312 0.6043 0.24835 0.0
C2339 C 0.92348 0.63419 0.2399 0.0
H2340 H 0.91748 0.5631 0.27022 0.0
C2341 C 0.89474 0.64571 0.24824 0.0
H2342 H 0.95278 0.59447 0.24143 0.0
C2343 C 0.87476 0.62795 0.26602 0.0
C2344 C 0.88236 0.59769 0.27366 0.0
H2345 H 0.88776 0.66825 0.24091 0.0
H2346 H 0.85353 0.63781 0.27392 0.0
C2347 C 0.91061 0.58604 0.26417 0.0
C2348 C 0.35657 0.89689 0.2552 0.0
C2349 C 0.37142 0.89249 0.2273 0.0
H2350 H 0.35742 0.88856 0.30301 0.0
C2351 C 0.39314 0.86869 0.22509 0.0
H2352 H 0.33916 0.91427 0.2576 0.0
C2353 C 0.40478 0.85492 0.2514 0.0
C2354 C 0.39403 0.86394 0.28005 0.0
H2355 H 0.40432 0.86368 0.20364 0.0
H2356 H 0.42456 0.84027 0.24945 0.0
C2357 C 0.36729 0.88203 0.28132 0.0
C2358 C 0.11849 0.3578 0.27129 0.0
C2359 C 0.12663 0.36634 0.24164 0.0
H2360 H 0.12189 0.36833 0.31853 0.0
C2361 C 0.152 0.38592 0.23774 0.0
H2362 H 0.09977 0.34216 0.2752 0.0
C2363 C 0.16358 0.4024 0.26246 0.0
C2364 C 0.15097 0.39823 0.29147 0.0
H2365 H 0.15987 0.39217 0.21516 0.0
H2366 H 0.17952 0.42077 0.25816 0.0
C2367 C 0.13117 0.37318 0.29615 0.0
C2368 C 0.76962 0.6052 0.92639 0.0
C2369 C 0.77919 0.63269 0.91306 0.0
H2370 H 0.7466 0.56269 0.9206 0.0
C2371 C 0.77187 0.63819 0.88225 0.0
H2372 H 0.77544 0.59987 0.94979 0.0
C2373 C 0.75428 0.61707 0.86564 0.0
C2374 C 0.74569 0.58917 0.87892 0.0
H2375 H 0.77984 0.65873 0.87108 0.0
H2376 H 0.74718 0.62259 0.84263 0.0
C2377 C 0.75382 0.58348 0.90937 0.0
C2378 C 0.76097 0.36279 0.12397 0.0
C2379 C 0.78881 0.37807 0.12663 0.0
H2380 H 0.71355 0.36336 0.1345 0.0
C2381 C 0.79175 0.40053 0.14962 0.0
H2382 H 0.75815 0.34472 0.10742 0.0
C2383 C 0.76597 0.41244 0.16403 0.0
C2384 C 0.73708 0.40105 0.15677 0.0
H2385 H 0.81326 0.41206 0.15341 0.0
H2386 H 0.76841 0.43295 0.17746 0.0
C2387 C 0.73538 0.3737 0.13966 0.0
C2388 C 0.62781 0.79405 0.14884 0.0
C2389 C 0.64827 0.78901 0.12431 0.0
H2390 H 0.59667 0.77377 0.18067 0.0
C2391 C 0.6608 0.75989 0.12087 0.0
H2392 H 0.61835 0.81648 0.15304 0.0
C2393 C 0.6494 0.73555 0.13816 0.0
C2394 C 0.62431 0.73975 0.15816 0.0
H2395 H 0.67697 0.75525 0.10279 0.0
H2396 H 0.65759 0.71291 0.13267 0.0
C2397 C 0.6154 0.76957 0.1651 0.0
C2398 C 0.25388 0.63426 0.0876 0.0
C2399 C 0.24269 0.66257 0.09748 0.0
H2400 H 0.27887 0.59402 0.09873 0.0
C2401 C 0.24941 0.67227 0.12737 0.0
H2402 H 0.24827 0.62559 0.06515 0.0
C2403 C 0.26776 0.65422 0.14661 0.0
C2404 C 0.27771 0.62537 0.13686 0.0
H2405 H 0.24013 0.69351 0.1359 0.0
H2406 H 0.27404 0.66265 0.16895 0.0
C2407 C 0.27057 0.6157 0.1072 0.0
C2408 C 0.39454 0.23307 0.14443 0.0
C2409 C 0.3735 0.23552 0.12009 0.0
H2410 H 0.42428 0.25723 0.17446 0.0
C2411 C 0.35732 0.26281 0.11674 0.0
H2412 H 0.40653 0.2119 0.14877 0.0
C2413 C 0.36643 0.28862 0.13312 0.0
C2414 C 0.39286 0.28766 0.15168 0.0
H2415 H 0.34017 0.26517 0.09915 0.0
H2416 H 0.35574 0.31015 0.12738 0.0
C2417 C 0.40462 0.2591 0.15969 0.0
C2418 C 0.23099 0.40288 0.88872 0.0
C2419 C 0.23515 0.38342 0.91421 0.0
H2420 H 0.25221 0.43452 0.85816 0.0
C2421 C 0.2643 0.37177 0.91973 0.0
H2422 H 0.2086 0.41151 0.88282 0.0
C2423 C 0.28926 0.38358 0.90374 0.0
C2424 C 0.28556 0.40857 0.88352 0.0
H2425 H 0.26829 0.35616 0.93848 0.0
H2426 H 0.31178 0.37615 0.91072 0.0
C2427 C 0.25605 0.41602 0.87404 0.0
C2428 C 0.63237 0.23665 0.88805 0.0
C2429 C 0.63315 0.23722 0.92023 0.0
H2430 H 0.61235 0.25538 0.84713 0.0
C2431 C 0.61135 0.2546 0.93582 0.0
H2432 H 0.64877 0.22307 0.87549 0.0
C2433 C 0.58936 0.27101 0.91969 0.0
C2434 C 0.5894 0.27173 0.88757 0.0
H2435 H 0.61096 0.25522 0.96052 0.0
H2436 H 0.57329 0.28473 0.93245 0.0
C2437 C 0.61114 0.2544 0.87179 0.0
C2438 C 0.41182 0.78848 0.87619 0.0
C2439 C 0.38779 0.78476 0.89752 0.0
H2440 H 0.45025 0.76779 0.85429 0.0
C2441 C 0.3782 0.75516 0.90442 0.0
H2442 H 0.41976 0.81098 0.86981 0.0
C2443 C 0.39481 0.73013 0.8936 0.0
C2444 C 0.42237 0.73428 0.87718 0.0
H2445 H 0.35967 0.75139 0.92035 0.0
H2446 H 0.38801 0.7077 0.90141 0.0
C2447 C 0.42941 0.76357 0.86678 0.0
loop_
_geom_bond_atom_site_label_1
_geom_bond_atom_site_label_2
_geom_bond_distance
_geom_bond_site_symmetry_2
_ccdc_geom_bond_type
Zn0 O6 1.920 . S
Zn0 O12 1.898 . S
Zn0 O15 1.905 . S
Zn1 O9 1.905 . S
Zn1 O10 1.898 . S
Zn1 O18 1.920 . S
Zn2 O5 2.080 . S
Zn2 O8 2.114 1_455 S
Zn2 O11 2.120 . S
Zn2 O13 2.120 . S
Zn2 O14 2.114 . S
Zn2 O17 2.080 1_455 S
C3 O8 1.166 . S
C3 O9 1.182 . S
C4 O10 1.167 . S
C4 O11 1.299 1_655 S
O5 Zn2 2.080 . S
O5 C19 1.305 . S
O6 Zn0 1.920 . S
O6 C19 1.234 . S
C7 O12 1.167 . S
C7 O13 1.299 . S
O8 Zn2 2.114 1_655 S
O8 C3 1.166 . S
O9 Zn1 1.905 . S
O9 C3 1.182 . S
O10 Zn1 1.898 . S
O10 C4 1.167 . S
O11 Zn2 2.120 . S
O11 C4 1.299 1_455 S
O12 Zn0 1.898 . S
O12 C7 1.167 . S
O13 Zn2 2.120 . S
O13 C7 1.299 . S
O14 Zn2 2.114 . S
O14 C16 1.166 . S
O15 Zn0 1.905 . S
O15 C16 1.182 . S
C16 O14 1.166 . S
C16 O15 1.182 . S
O17 Zn2 2.080 1_655 S
O17 C20 1.305 . S
O18 Zn1 1.920 . S
O18 C20 1.234 . S
C19 O5 1.305 . S
C19 O6 1.234 . S
C20 O17 1.305 . S
C20 O18 1.234 . S
Zn21 O27 1.920 . S
Zn21 O33 1.898 . S
Zn21 O36 1.905 . S
Zn22 O30 1.905 . S
Zn22 O31 1.898 . S
Zn22 O39 1.920 . S
Zn23 O26 2.080 . S
Zn23 O29 2.114 1_545 S
Zn23 O32 2.120 . S
Zn23 O34 2.120 . S
Zn23 O35 2.114 . S
Zn23 O38 2.080 1_545 S
C24 O29 1.166 . S
C24 O30 1.182 . S
C25 O31 1.167 . S
C25 O32 1.299 1_565 S
O26 Zn23 2.080 . S
O26 C40 1.305 . S
O27 Zn21 1.920 . S
O27 C40 1.234 . S
C28 O33 1.167 . S
C28 O34 1.299 . S
O29 Zn23 2.114 1_565 S
O29 C24 1.166 . S
O30 Zn22 1.905 . S
O30 C24 1.182 . S
O31 Zn22 1.898 . S
O31 C25 1.167 . S
O32 Zn23 2.120 . S
O32 C25 1.299 1_545 S
O33 Zn21 1.898 . S
O33 C28 1.167 . S
O34 Zn23 2.120 . S
O34 C28 1.299 . S
O35 Zn23 2.114 . S
O35 C37 1.166 . S
O36 Zn21 1.905 . S
O36 C37 1.182 . S
C37 O35 1.166 . S
C37 O36 1.182 . S
O38 Zn23 2.080 1_565 S
O38 C41 1.305 . S
O39 Zn22 1.920 . S
O39 C41 1.234 . S
C40 O26 1.305 . S
C40 O27 1.234 . S
C41 O38 1.305 . S
C41 O39 1.234 . S
Zn42 O48 1.920 . S
Zn42 O54 1.898 . S
Zn42 O57 1.905 . S
Zn43 O51 1.905 . S
Zn43 O52 1.898 . S
Zn43 O60 1.920 . S
Zn44 O47 2.080 1_455 S
Zn44 O50 2.114 . S
Zn44 O53 2.120 . S
Zn44 O55 2.120 . S
Zn44 O56 2.114 1_455 S
Zn44 O59 2.080 . S
C45 O50 1.166 . S
C45 O51 1.182 . S
C46 O52 1.167 . S
C46 O53 1.299 . S
O47 Zn44 2.080 1_655 S
O47 C61 1.305 . S
O48 Zn42 1.920 . S
O48 C61 1.234 . S
C49 O54 1.167 1_455 S
C49 O55 1.299 . S
O50 Zn44 2.114 . S
O50 C45 1.166 . S
O51 Zn43 1.905 . S
O51 C45 1.182 . S
O52 Zn43 1.898 . S
O52 C46 1.167 . S
O53 Zn44 2.120 . S
O53 C46 1.299 . S
O54 Zn42 1.898 . S
O54 C49 1.167 1_655 S
O55 Zn44 2.120 . S
O55 C49 1.299 . S
O56 Zn44 2.114 1_655 S
O56 C58 1.166 . S
O57 Zn42 1.905 . S
O57 C58 1.182 . S
C58 O56 1.166 . S
C58 O57 1.182 . S
O59 Zn44 2.080 . S
O59 C62 1.305 . S
O60 Zn43 1.920 . S
O60 C62 1.234 . S
C61 O47 1.305 . S
C61 O48 1.234 . S
C62 O59 1.305 . S
C62 O60 1.234 . S
Zn63 O69 1.920 . S
Zn63 O75 1.898 . S
Zn63 O78 1.905 . S
Zn64 O72 1.905 . S
Zn64 O73 1.898 . S
Zn64 O81 1.920 . S
Zn65 O68 2.080 1_545 S
Zn65 O71 2.114 . S
Zn65 O74 2.120 . S
Zn65 O76 2.120 . S
Zn65 O77 2.114 1_545 S
Zn65 O80 2.080 . S
C66 O71 1.166 . S
C66 O72 1.182 . S
C67 O73 1.167 . S
C67 O74 1.299 . S
O68 Zn65 2.080 1_565 S
O68 C82 1.305 . S
O69 Zn63 1.920 . S
O69 C82 1.234 . S
C70 O75 1.167 1_545 S
C70 O76 1.299 . S
O71 Zn65 2.114 . S
O71 C66 1.166 . S
O72 Zn64 1.905 . S
O72 C66 1.182 . S
O73 Zn64 1.898 . S
O73 C67 1.167 . S
O74 Zn65 2.120 . S
O74 C67 1.299 . S
O75 Zn63 1.898 . S
O75 C70 1.167 1_565 S
O76 Zn65 2.120 . S
O76 C70 1.299 . S
O77 Zn65 2.114 1_565 S
O77 C79 1.166 . S
O78 Zn63 1.905 . S
O78 C79 1.182 . S
C79 O77 1.166 . S
C79 O78 1.182 . S
O80 Zn65 2.080 . S
O80 C83 1.305 . S
O81 Zn64 1.920 . S
O81 C83 1.234 . S
C82 O68 1.305 . S
C82 O69 1.234 . S
C83 O80 1.305 . S
C83 O81 1.234 . S
Zn84 O90 1.920 . S
Zn84 O96 1.898 . S
Zn84 O99 1.905 . S
Zn85 O93 1.905 . S
Zn85 O94 1.898 . S
Zn85 O102 1.920 . S
Zn86 O89 2.080 . S
Zn86 O92 2.114 1_455 S
Zn86 O95 2.120 . S
Zn86 O97 2.120 . S
Zn86 O98 2.114 . S
Zn86 O101 2.080 1_455 S
C87 O92 1.166 . S
C87 O93 1.182 . S
C88 O94 1.167 . S
C88 O95 1.299 1_655 S
O89 Zn86 2.080 . S
O89 C103 1.305 . S
O90 Zn84 1.920 . S
O90 C103 1.234 . S
C91 O96 1.167 . S
C91 O97 1.299 . S
O92 Zn86 2.114 1_655 S
O92 C87 1.166 . S
O93 Zn85 1.905 . S
O93 C87 1.182 . S
O94 Zn85 1.898 . S
O94 C88 1.167 . S
O95 Zn86 2.120 . S
O95 C88 1.299 1_455 S
O96 Zn84 1.898 . S
O96 C91 1.167 . S
O97 Zn86 2.120 . S
O97 C91 1.299 . S
O98 Zn86 2.114 . S
O98 C100 1.166 . S
O99 Zn84 1.905 . S
O99 C100 1.182 . S
C100 O98 1.166 . S
C100 O99 1.182 . S
O101 Zn86 2.080 1_655 S
O101 C104 1.305 . S
O102 Zn85 1.920 . S
O102 C104 1.234 . S
C103 O89 1.305 . S
C103 O90 1.234 . S
C104 O101 1.305 . S
C104 O102 1.234 . S
Zn105 O111 1.920 . S
Zn105 O117 1.898 . S
Zn105 O120 1.905 . S
Zn106 O114 1.905 . S
Zn106 O115 1.898 . S
Zn106 O123 1.920 . S
Zn107 O110 2.080 . S
Zn107 O113 2.114 1_545 S
Zn107 O116 2.120 . S
Zn107 O118 2.120 . S
Zn107 O119 2.114 . S
Zn107 O122 2.080 1_545 S
C108 O113 1.166 . S
C108 O114 1.182 . S
C109 O115 1.167 . S
C109 O116 1.299 1_565 S
O110 Zn107 2.080 . S
O110 C124 1.305 . S
O111 Zn105 1.920 . S
O111 C124 1.234 . S
C112 O117 1.167 . S
C112 O118 1.299 . S
O113 Zn107 2.114 1_565 S
O113 C108 1.166 . S
O114 Zn106 1.905 . S
O114 C108 1.182 . S
O115 Zn106 1.898 . S
O115 C109 1.167 . S
O116 Zn107 2.120 . S
O116 C109 1.299 1_545 S
O117 Zn105 1.898 . S
O117 C112 1.167 . S
O118 Zn107 2.120 . S
O118 C112 1.299 . S
O119 Zn107 2.114 . S
O119 C121 1.166 . S
O120 Zn105 1.905 . S
O120 C121 1.182 . S
C121 O119 1.166 . S
C121 O120 1.182 . S
O122 Zn107 2.080 1_565 S
O122 C125 1.305 . S
O123 Zn106 1.920 . S
O123 C125 1.234 . S
C124 O110 1.305 . S
C124 O111 1.234 . S
C125 O122 1.305 . S
C125 O123 1.234 . S
Zn126 O132 1.920 . S
Zn126 O138 1.898 . S
Zn126 O141 1.905 . S
Zn127 O135 1.905 . S
Zn127 O136 1.898 . S
Zn127 O144 1.920 . S
Zn128 O131 2.080 1_455 S
Zn128 O134 2.114 . S
Zn128 O137 2.120 . S
Zn128 O139 2.120 . S
Zn128 O140 2.114 1_455 S
Zn128 O143 2.080 . S
C129 O134 1.166 . S
C129 O135 1.182 . S
C130 O136 1.167 . S
C130 O137 1.299 . S
O131 Zn128 2.080 1_655 S
O131 C145 1.305 . S
O132 Zn126 1.920 . S
O132 C145 1.234 . S
C133 O138 1.167 1_455 S
C133 O139 1.299 . S
O134 Zn128 2.114 . S
O134 C129 1.166 . S
O135 Zn127 1.905 . S
O135 C129 1.182 . S
O136 Zn127 1.898 . S
O136 C130 1.167 . S
O137 Zn128 2.120 . S
O137 C130 1.299 . S
O138 Zn126 1.898 . S
O138 C133 1.167 1_655 S
O139 Zn128 2.120 . S
O139 C133 1.299 . S
O140 Zn128 2.114 1_655 S
O140 C142 1.166 . S
O141 Zn126 1.905 . S
O141 C142 1.182 . S
C142 O140 1.166 . S
C142 O141 1.182 . S
O143 Zn128 2.080 . S
O143 C146 1.305 . S
O144 Zn127 1.920 . S
O144 C146 1.234 . S
C145 O131 1.305 . S
C145 O132 1.234 . S
C146 O143 1.305 . S
C146 O144 1.234 . S
Zn147 O153 1.920 . S
Zn147 O159 1.898 . S
Zn147 O162 1.905 . S
Zn148 O156 1.905 . S
Zn148 O157 1.898 . S
Zn148 O165 1.920 . S
Zn149 O152 2.080 . S
Zn149 O155 2.114 1_545 S
Zn149 O158 2.120 . S
Zn149 O160 2.120 . S
Zn149 O161 2.114 . S
Zn149 O164 2.080 1_545 S
C150 O155 1.166 . S
C150 O156 1.182 . S
C151 O157 1.167 1_545 S
C151 O158 1.299 . S
O152 Zn149 2.080 . S
O152 C166 1.305 . S
O153 Zn147 1.920 . S
O153 C166 1.234 . S
C154 O159 1.167 . S
C154 O160 1.299 . S
O155 Zn149 2.114 1_565 S
O155 C150 1.166 . S
O156 Zn148 1.905 . S
O156 C150 1.182 . S
O157 Zn148 1.898 . S
O157 C151 1.167 1_565 S
O158 Zn149 2.120 . S
O158 C151 1.299 . S
O159 Zn147 1.898 . S
O159 C154 1.167 . S
O160 Zn149 2.120 . S
O160 C154 1.299 . S
O161 Zn149 2.114 . S
O161 C163 1.166 . S
O162 Zn147 1.905 . S
O162 C163 1.182 . S
C163 O161 1.166 . S
C163 O162 1.182 . S
O164 Zn149 2.080 1_565 S
O164 C167 1.305 . S
O165 Zn148 1.920 . S
O165 C167 1.234 . S
C166 O152 1.305 . S
C166 O153 1.234 . S
C167 O164 1.305 . S
C167 O165 1.234 . S
Zn168 O174 1.920 . S
Zn168 O180 1.898 . S
Zn168 O183 1.905 . S
Zn169 O177 1.905 . S
Zn169 O178 1.898 . S
Zn169 O186 1.920 . S
Zn170 O173 2.080 . S
Zn170 O176 2.114 1_545 S
Zn170 O179 2.120 . S
Zn170 O181 2.120 . S
Zn170 O182 2.114 . S
Zn170 O185 2.080 1_545 S
C171 O176 1.166 . S
C171 O177 1.182 . S
C172 O178 1.167 . S
C172 O179 1.299 1_565 S
O173 Zn170 2.080 . S
O173 C187 1.305 . S
O174 Zn168 1.920 . S
O174 C187 1.234 . S
C175 O180 1.167 . S
C175 O181 1.299 . S
O176 Zn170 2.114 1_565 S
O176 C171 1.166 . S
O177 Zn169 1.905 . S
O177 C171 1.182 . S
O178 Zn169 1.898 . S
O178 C172 1.167 . S
O179 Zn170 2.120 . S
O179 C172 1.299 1_545 S
O180 Zn168 1.898 . S
O180 C175 1.167 . S
O181 Zn170 2.120 . S
O181 C175 1.299 . S
O182 Zn170 2.114 . S
O182 C184 1.166 . S
O183 Zn168 1.905 . S
O183 C184 1.182 . S
C184 O182 1.166 . S
C184 O183 1.182 . S
O185 Zn170 2.080 1_565 S
O185 C188 1.305 . S
O186 Zn169 1.920 . S
O186 C188 1.234 . S
C187 O173 1.305 . S
C187 O174 1.234 . S
C188 O185 1.305 . S
C188 O186 1.234 . S
Zn189 O195 1.920 . S
Zn189 O201 1.898 . S
Zn189 O204 1.905 . S
Zn190 O198 1.905 . S
Zn190 O199 1.898 . S
Zn190 O207 1.920 . S
Zn191 O194 2.080 1_455 S
Zn191 O197 2.114 . S
Zn191 O200 2.120 . S
Zn191 O202 2.120 . S
Zn191 O203 2.114 1_455 S
Zn191 O206 2.080 . S
C192 O197 1.166 . S
C192 O198 1.182 . S
C193 O199 1.167 . S
C193 O200 1.299 . S
O194 Zn191 2.080 1_655 S
O194 C208 1.305 . S
O195 Zn189 1.920 . S
O195 C208 1.234 . S
C196 O201 1.167 1_455 S
C196 O202 1.299 . S
O197 Zn191 2.114 . S
O197 C192 1.166 . S
O198 Zn190 1.905 . S
O198 C192 1.182 . S
O199 Zn190 1.898 . S
O199 C193 1.167 . S
O200 Zn191 2.120 . S
O200 C193 1.299 . S
O201 Zn189 1.898 . S
O201 C196 1.167 1_655 S
O202 Zn191 2.120 . S
O202 C196 1.299 . S
O203 Zn191 2.114 1_655 S
O203 C205 1.166 . S
O204 Zn189 1.905 . S
O204 C205 1.182 . S
C205 O203 1.166 . S
C205 O204 1.182 . S
O206 Zn191 2.080 . S
O206 C209 1.305 . S
O207 Zn190 1.920 . S
O207 C209 1.234 . S
C208 O194 1.305 . S
C208 O195 1.234 . S
C209 O206 1.305 . S
C209 O207 1.234 . S
Zn210 O216 1.920 . S
Zn210 O222 1.898 . S
Zn210 O225 1.905 . S
Zn211 O219 1.905 . S
Zn211 O220 1.898 . S
Zn211 O228 1.920 . S
Zn212 O215 2.080 . S
Zn212 O218 2.114 1_545 S
Zn212 O221 2.120 . S
Zn212 O223 2.120 . S
Zn212 O224 2.114 . S
Zn212 O227 2.080 1_545 S
C213 O218 1.166 . S
C213 O219 1.182 . S
C214 O220 1.167 1_545 S
C214 O221 1.299 . S
O215 Zn212 2.080 . S
O215 C229 1.305 . S
O216 Zn210 1.920 . S
O216 C229 1.234 . S
C217 O222 1.167 . S
C217 O223 1.299 . S
O218 Zn212 2.114 1_565 S
O218 C213 1.166 . S
O219 Zn211 1.905 . S
O219 C213 1.182 . S
O220 Zn211 1.898 . S
O220 C214 1.167 1_565 S
O221 Zn212 2.120 . S
O221 C214 1.299 . S
O222 Zn210 1.898 . S
O222 C217 1.167 . S
O223 Zn212 2.120 . S
O223 C217 1.299 . S
O224 Zn212 2.114 . S
O224 C226 1.166 . S
O225 Zn210 1.905 . S
O225 C226 1.182 . S
C226 O224 1.166 . S
C226 O225 1.182 . S
O227 Zn212 2.080 1_565 S
O227 C230 1.305 . S
O228 Zn211 1.920 . S
O228 C230 1.234 . S
C229 O215 1.305 . S
C229 O216 1.234 . S
C230 O227 1.305 . S
C230 O228 1.234 . S
Zn231 O237 1.920 . S
Zn231 O243 1.898 . S
Zn231 O246 1.905 . S
Zn232 O240 1.905 . S
Zn232 O241 1.898 . S
Zn232 O249 1.920 . S
Zn233 O236 2.080 . S
Zn233 O239 2.114 1_455 S
Zn233 O242 2.120 . S
Zn233 O244 2.120 . S
Zn233 O245 2.114 . S
Zn233 O248 2.080 1_455 S
C234 O239 1.166 . S
C234 O240 1.182 . S
C235 O241 1.167 . S
C235 O242 1.299 1_655 S
O236 Zn233 2.080 . S
O236 C250 1.305 . S
O237 Zn231 1.920 . S
O237 C250 1.234 . S
C238 O243 1.167 . S
C238 O244 1.299 . S
O239 Zn233 2.114 1_655 S
O239 C234 1.166 . S
O240 Zn232 1.905 . S
O240 C234 1.182 . S
O241 Zn232 1.898 . S
O241 C235 1.167 . S
O242 Zn233 2.120 . S
O242 C235 1.299 1_455 S
O243 Zn231 1.898 . S
O243 C238 1.167 . S
O244 Zn233 2.120 . S
O244 C238 1.299 . S
O245 Zn233 2.114 . S
O245 C247 1.166 . S
O246 Zn231 1.905 . S
O246 C247 1.182 . S
C247 O245 1.166 . S
C247 O246 1.182 . S
O248 Zn233 2.080 1_655 S
O248 C251 1.305 . S
O249 Zn232 1.920 . S
O249 C251 1.234 . S
C250 O236 1.305 . S
C250 O237 1.234 . S
C251 O248 1.305 . S
C251 O249 1.234 . S
Zn252 O258 1.920 . S
Zn252 O264 1.898 . S
Zn252 O267 1.905 . S
Zn253 O261 1.905 . S
Zn253 O262 1.898 . S
Zn253 O270 1.920 . S
Zn254 O257 2.080 1_545 S
Zn254 O260 2.114 . S
Zn254 O263 2.120 . S
Zn254 O265 2.120 . S
Zn254 O266 2.114 1_545 S
Zn254 O269 2.080 . S
C255 O260 1.166 . S
C255 O261 1.182 . S
C256 O262 1.167 . S
C256 O263 1.299 . S
O257 Zn254 2.080 1_565 S
O257 C271 1.305 . S
O258 Zn252 1.920 . S
O258 C271 1.234 . S
C259 O264 1.167 1_545 S
C259 O265 1.299 . S
O260 Zn254 2.114 . S
O260 C255 1.166 . S
O261 Zn253 1.905 . S
O261 C255 1.182 . S
O262 Zn253 1.898 . S
O262 C256 1.167 . S
O263 Zn254 2.120 . S
O263 C256 1.299 . S
O264 Zn252 1.898 . S
O264 C259 1.167 1_565 S
O265 Zn254 2.120 . S
O265 C259 1.299 . S
O266 Zn254 2.114 1_565 S
O266 C268 1.166 . S
O267 Zn252 1.905 . S
O267 C268 1.182 . S
C268 O266 1.166 . S
C268 O267 1.182 . S
O269 Zn254 2.080 . S
O269 C272 1.305 . S
O270 Zn253 1.920 . S
O270 C272 1.234 . S
C271 O257 1.305 . S
C271 O258 1.234 . S
C272 O269 1.305 . S
C272 O270 1.234 . S
Zn273 O279 1.920 . S
Zn273 O285 1.898 . S
Zn273 O288 1.905 . S
Zn274 O282 1.905 . S
Zn274 O283 1.898 . S
Zn274 O291 1.920 . S
Zn275 O278 2.080 1_455 S
Zn275 O281 2.114 . S
Zn275 O284 2.120 . S
Zn275 O286 2.120 . S
Zn275 O287 2.114 1_455 S
Zn275 O290 2.080 . S
C276 O281 1.166 . S
C276 O282 1.182 . S
C277 O283 1.167 . S
C277 O284 1.299 . S
O278 Zn275 2.080 1_655 S
O278 C292 1.305 . S
O279 Zn273 1.920 . S
O279 C292 1.234 . S
C280 O285 1.167 . S
C280 O286 1.299 1_655 S
O281 Zn275 2.114 . S
O281 C276 1.166 . S
O282 Zn274 1.905 . S
O282 C276 1.182 . S
O283 Zn274 1.898 . S
O283 C277 1.167 . S
O284 Zn275 2.120 . S
O284 C277 1.299 . S
O285 Zn273 1.898 . S
O285 C280 1.167 . S
O286 Zn275 2.120 . S
O286 C280 1.299 1_455 S
O287 Zn275 2.114 1_655 S
O287 C289 1.166 . S
O288 Zn273 1.905 . S
O288 C289 1.182 . S
C289 O287 1.166 . S
C289 O288 1.182 . S
O290 Zn275 2.080 . S
O290 C293 1.305 . S
O291 Zn274 1.920 . S
O291 C293 1.234 . S
C292 O278 1.305 . S
C292 O279 1.234 . S
C293 O290 1.305 . S
C293 O291 1.234 . S
Zn294 O300 1.920 . S
Zn294 O306 1.898 . S
Zn294 O309 1.905 . S
Zn295 O303 1.905 . S
Zn295 O304 1.898 . S
Zn295 O312 1.920 . S
Zn296 O299 2.080 1_545 S
Zn296 O302 2.114 . S
Zn296 O305 2.120 . S
Zn296 O307 2.120 . S
Zn296 O308 2.114 1_545 S
Zn296 O311 2.080 . S
C297 O302 1.166 . S
C297 O303 1.182 . S
C298 O304 1.167 . S
C298 O305 1.299 . S
O299 Zn296 2.080 1_565 S
O299 C313 1.305 . S
O300 Zn294 1.920 . S
O300 C313 1.234 . S
C301 O306 1.167 . S
C301 O307 1.299 1_565 S
O302 Zn296 2.114 . S
O302 C297 1.166 . S
O303 Zn295 1.905 . S
O303 C297 1.182 . S
O304 Zn295 1.898 . S
O304 C298 1.167 . S
O305 Zn296 2.120 . S
O305 C298 1.299 . S
O306 Zn294 1.898 . S
O306 C301 1.167 . S
O307 Zn296 2.120 . S
O307 C301 1.299 1_545 S
O308 Zn296 2.114 1_565 S
O308 C310 1.166 . S
O309 Zn294 1.905 . S
O309 C310 1.182 . S
C310 O308 1.166 . S
C310 O309 1.182 . S
O311 Zn296 2.080 . S
O311 C314 1.305 . S
O312 Zn295 1.920 . S
O312 C314 1.234 . S
C313 O299 1.305 . S
C313 O300 1.234 . S
C314 O311 1.305 . S
C314 O312 1.234 . S
Zn315 O321 1.920 . S
Zn315 O327 1.898 . S
Zn315 O330 1.905 . S
Zn316 O324 1.905 . S
Zn316 O325 1.898 . S
Zn316 O333 1.920 . S
Zn317 O320 2.080 . S
Zn317 O323 2.114 1_455 S
Zn317 O326 2.120 . S
Zn317 O328 2.120 . S
Zn317 O329 2.114 . S
Zn317 O332 2.080 1_455 S
C318 O323 1.166 . S
C318 O324 1.182 . S
C319 O325 1.167 1_455 S
C319 O326 1.299 . S
O320 Zn317 2.080 . S
O320 C334 1.305 . S
O321 Zn315 1.920 . S
O321 C334 1.234 . S
C322 O327 1.167 . S
C322 O328 1.299 . S
O323 Zn317 2.114 1_655 S
O323 C318 1.166 . S
O324 Zn316 1.905 . S
O324 C318 1.182 . S
O325 Zn316 1.898 . S
O325 C319 1.167 1_655 S
O326 Zn317 2.120 . S
O326 C319 1.299 . S
O327 Zn315 1.898 . S
O327 C322 1.167 . S
O328 Zn317 2.120 . S
O328 C322 1.299 . S
O329 Zn317 2.114 . S
O329 C331 1.166 . S
O330 Zn315 1.905 . S
O330 C331 1.182 . S
C331 O329 1.166 . S
C331 O330 1.182 . S
O332 Zn317 2.080 1_655 S
O332 C335 1.305 . S
O333 Zn316 1.920 . S
O333 C335 1.234 . S
C334 O320 1.305 . S
C334 O321 1.234 . S
C335 O332 1.305 . S
C335 O333 1.234 . S
Zn336 O342 1.920 . S
Zn336 O348 1.898 . S
Zn336 O351 1.905 . S
Zn337 O345 1.905 . S
Zn337 O346 1.898 . S
Zn337 O354 1.920 . S
Zn338 O341 2.080 1_554 S
Zn338 O344 2.114 . S
Zn338 O347 2.120 . S
Zn338 O349 2.120 . S
Zn338 O350 2.114 1_554 S
Zn338 O353 2.080 . S
C339 O344 1.166 . S
C339 O345 1.182 . S
C340 O346 1.167 . S
C340 O347 1.299 . S
O341 Zn338 2.080 1_556 S
O341 C355 1.305 . S
O342 Zn336 1.920 . S
O342 C355 1.234 . S
C343 O348 1.167 . S
C343 O349 1.299 1_556 S
O344 Zn338 2.114 . S
O344 C339 1.166 . S
O345 Zn337 1.905 . S
O345 C339 1.182 . S
O346 Zn337 1.898 . S
O346 C340 1.167 . S
O347 Zn338 2.120 . S
O347 C340 1.299 . S
O348 Zn336 1.898 . S
O348 C343 1.167 . S
O349 Zn338 2.120 . S
O349 C343 1.299 1_554 S
O350 Zn338 2.114 1_556 S
O350 C352 1.166 . S
O351 Zn336 1.905 . S
O351 C352 1.182 . S
C352 O350 1.166 . S
C352 O351 1.182 . S
O353 Zn338 2.080 . S
O353 C356 1.305 . S
O354 Zn337 1.920 . S
O354 C356 1.234 . S
C355 O341 1.305 . S
C355 O342 1.234 . S
C356 O353 1.305 . S
C356 O354 1.234 . S
Zn357 O363 1.920 . S
Zn357 O369 1.898 . S
Zn357 O372 1.905 . S
Zn358 O366 1.905 . S
Zn358 O367 1.898 . S
Zn358 O375 1.920 . S
Zn359 O362 2.080 1_554 S
Zn359 O365 2.114 . S
Zn359 O368 2.120 . S
Zn359 O370 2.120 . S
Zn359 O371 2.114 1_554 S
Zn359 O374 2.080 . S
C360 O365 1.166 . S
C360 O366 1.182 . S
C361 O367 1.167 . S
C361 O368 1.299 . S
O362 Zn359 2.080 1_556 S
O362 C376 1.305 . S
O363 Zn357 1.920 . S
O363 C376 1.234 . S
C364 O369 1.167 1_554 S
C364 O370 1.299 . S
O365 Zn359 2.114 . S
O365 C360 1.166 . S
O366 Zn358 1.905 . S
O366 C360 1.182 . S
O367 Zn358 1.898 . S
O367 C361 1.167 . S
O368 Zn359 2.120 . S
O368 C361 1.299 . S
O369 Zn357 1.898 . S
O369 C364 1.167 1_556 S
O370 Zn359 2.120 . S
O370 C364 1.299 . S
O371 Zn359 2.114 1_556 S
O371 C373 1.166 . S
O372 Zn357 1.905 . S
O372 C373 1.182 . S
C373 O371 1.166 . S
C373 O372 1.182 . S
O374 Zn359 2.080 . S
O374 C377 1.305 . S
O375 Zn358 1.920 . S
O375 C377 1.234 . S
C376 O362 1.305 . S
C376 O363 1.234 . S
C377 O374 1.305 . S
C377 O375 1.234 . S
Zn378 O384 1.920 . S
Zn378 O390 1.898 . S
Zn378 O393 1.905 . S
Zn379 O387 1.905 . S
Zn379 O388 1.898 . S
Zn379 O396 1.920 . S
Zn380 O383 2.080 1_554 S
Zn380 O386 2.114 . S
Zn380 O389 2.120 . S
Zn380 O391 2.120 . S
Zn380 O392 2.114 1_554 S
Zn380 O395 2.080 . S
C381 O386 1.166 . S
C381 O387 1.182 . S
C382 O388 1.167 . S
C382 O389 1.299 . S
O383 Zn380 2.080 1_556 S
O383 C397 1.305 . S
O384 Zn378 1.920 . S
O384 C397 1.234 . S
C385 O390 1.167 1_554 S
C385 O391 1.299 . S
O386 Zn380 2.114 . S
O386 C381 1.166 . S
O387 Zn379 1.905 . S
O387 C381 1.182 . S
O388 Zn379 1.898 . S
O388 C382 1.167 . S
O389 Zn380 2.120 . S
O389 C382 1.299 . S
O390 Zn378 1.898 . S
O390 C385 1.167 1_556 S
O391 Zn380 2.120 . S
O391 C385 1.299 . S
O392 Zn380 2.114 1_556 S
O392 C394 1.166 . S
O393 Zn378 1.905 . S
O393 C394 1.182 . S
C394 O392 1.166 . S
C394 O393 1.182 . S
O395 Zn380 2.080 . S
O395 C398 1.305 . S
O396 Zn379 1.920 . S
O396 C398 1.234 . S
C397 O383 1.305 . S
C397 O384 1.234 . S
C398 O395 1.305 . S
C398 O396 1.234 . S
Zn399 O405 1.920 . S
Zn399 O411 1.898 . S
Zn399 O414 1.905 . S
Zn400 O408 1.905 . S
Zn400 O409 1.898 . S
Zn400 O417 1.920 . S
Zn401 O404 2.080 . S
Zn401 O407 2.114 1_554 S
Zn401 O410 2.120 . S
Zn401 O412 2.120 . S
Zn401 O413 2.114 . S
Zn401 O416 2.080 1_554 S
C402 O407 1.166 . S
C402 O408 1.182 . S
C403 O409 1.167 1_554 S
C403 O410 1.299 . S
O404 Zn401 2.080 . S
O404 C418 1.305 . S
O405 Zn399 1.920 . S
O405 C418 1.234 . S
C406 O411 1.167 . S
C406 O412 1.299 . S
O407 Zn401 2.114 1_556 S
O407 C402 1.166 . S
O408 Zn400 1.905 . S
O408 C402 1.182 . S
O409 Zn400 1.898 . S
O409 C403 1.167 1_556 S
O410 Zn401 2.120 . S
O410 C403 1.299 . S
O411 Zn399 1.898 . S
O411 C406 1.167 . S
O412 Zn401 2.120 . S
O412 C406 1.299 . S
O413 Zn401 2.114 . S
O413 C415 1.166 . S
O414 Zn399 1.905 . S
O414 C415 1.182 . S
C415 O413 1.166 . S
C415 O414 1.182 . S
O416 Zn401 2.080 1_556 S
O416 C419 1.305 . S
O417 Zn400 1.920 . S
O417 C419 1.234 . S
C418 O404 1.305 . S
C418 O405 1.234 . S
C419 O416 1.305 . S
C419 O417 1.234 . S
Zn420 O426 1.920 . S
Zn420 O432 1.898 . S
Zn420 O435 1.905 . S
Zn421 O429 1.905 . S
Zn421 O430 1.898 . S
Zn421 O438 1.920 . S
Zn422 O425 2.080 1_554 S
Zn422 O428 2.114 . S
Zn422 O431 2.120 . S
Zn422 O433 2.120 . S
Zn422 O434 2.114 1_554 S
Zn422 O437 2.080 . S
C423 O428 1.166 . S
C423 O429 1.182 . S
C424 O430 1.167 . S
C424 O431 1.299 . S
O425 Zn422 2.080 1_556 S
O425 C439 1.305 . S
O426 Zn420 1.920 . S
O426 C439 1.234 . S
C427 O432 1.167 1_554 S
C427 O433 1.299 . S
O428 Zn422 2.114 . S
O428 C423 1.166 . S
O429 Zn421 1.905 . S
O429 C423 1.182 . S
O430 Zn421 1.898 . S
O430 C424 1.167 . S
O431 Zn422 2.120 . S
O431 C424 1.299 . S
O432 Zn420 1.898 . S
O432 C427 1.167 1_556 S
O433 Zn422 2.120 . S
O433 C427 1.299 . S
O434 Zn422 2.114 1_556 S
O434 C436 1.166 . S
O435 Zn420 1.905 . S
O435 C436 1.182 . S
C436 O434 1.166 . S
C436 O435 1.182 . S
O437 Zn422 2.080 . S
O437 C440 1.305 . S
O438 Zn421 1.920 . S
O438 C440 1.234 . S
C439 O425 1.305 . S
C439 O426 1.234 . S
C440 O437 1.305 . S
C440 O438 1.234 . S
Zn441 O447 1.920 . S
Zn441 O453 1.898 . S
Zn441 O456 1.905 . S
Zn442 O450 1.905 . S
Zn442 O451 1.898 . S
Zn442 O459 1.920 . S
Zn443 O446 2.080 1_554 S
Zn443 O449 2.114 . S
Zn443 O452 2.120 . S
Zn443 O454 2.120 . S
Zn443 O455 2.114 1_554 S
Zn443 O458 2.080 . S
C444 O449 1.166 . S
C444 O450 1.182 . S
C445 O451 1.167 . S
C445 O452 1.299 . S
O446 Zn443 2.080 1_556 S
O446 C460 1.305 . S
O447 Zn441 1.920 . S
O447 C460 1.234 . S
C448 O453 1.167 . S
C448 O454 1.299 1_556 S
O449 Zn443 2.114 . S
O449 C444 1.166 . S
O450 Zn442 1.905 . S
O450 C444 1.182 . S
O451 Zn442 1.898 . S
O451 C445 1.167 . S
O452 Zn443 2.120 . S
O452 C445 1.299 . S
O453 Zn441 1.898 . S
O453 C448 1.167 . S
O454 Zn443 2.120 . S
O454 C448 1.299 1_554 S
O455 Zn443 2.114 1_556 S
O455 C457 1.166 . S
O456 Zn441 1.905 . S
O456 C457 1.182 . S
C457 O455 1.166 . S
C457 O456 1.182 . S
O458 Zn443 2.080 . S
O458 C461 1.305 . S
O459 Zn442 1.920 . S
O459 C461 1.234 . S
C460 O446 1.305 . S
C460 O447 1.234 . S
C461 O458 1.305 . S
C461 O459 1.234 . S
Zn462 O468 1.920 . S
Zn462 O474 1.898 . S
Zn462 O477 1.905 . S
Zn463 O471 1.905 . S
Zn463 O472 1.898 . S
Zn463 O480 1.920 . S
Zn464 O467 2.080 1_554 S
Zn464 O470 2.114 . S
Zn464 O473 2.120 . S
Zn464 O475 2.120 . S
Zn464 O476 2.114 1_554 S
Zn464 O479 2.080 . S
C465 O470 1.166 . S
C465 O471 1.182 . S
C466 O472 1.167 . S
C466 O473 1.299 . S
O467 Zn464 2.080 1_556 S
O467 C481 1.305 . S
O468 Zn462 1.920 . S
O468 C481 1.234 . S
C469 O474 1.167 . S
C469 O475 1.299 1_556 S
O470 Zn464 2.114 . S
O470 C465 1.166 . S
O471 Zn463 1.905 . S
O471 C465 1.182 . S
O472 Zn463 1.898 . S
O472 C466 1.167 . S
O473 Zn464 2.120 . S
O473 C466 1.299 . S
O474 Zn462 1.898 . S
O474 C469 1.167 . S
O475 Zn464 2.120 . S
O475 C469 1.299 1_554 S
O476 Zn464 2.114 1_556 S
O476 C478 1.166 . S
O477 Zn462 1.905 . S
O477 C478 1.182 . S
C478 O476 1.166 . S
C478 O477 1.182 . S
O479 Zn464 2.080 . S
O479 C482 1.305 . S
O480 Zn463 1.920 . S
O480 C482 1.234 . S
C481 O467 1.305 . S
C481 O468 1.234 . S
C482 O479 1.305 . S
C482 O480 1.234 . S
Zn483 O489 1.920 . S
Zn483 O495 1.898 . S
Zn483 O498 1.905 . S
Zn484 O492 1.905 . S
Zn484 O493 1.898 . S
Zn484 O501 1.920 . S
Zn485 O488 2.080 1_554 S
Zn485 O491 2.114 . S
Zn485 O494 2.120 . S
Zn485 O496 2.120 . S
Zn485 O497 2.114 1_554 S
Zn485 O500 2.080 . S
C486 O491 1.166 . S
C486 O492 1.182 . S
C487 O493 1.167 . S
C487 O494 1.299 . S
O488 Zn485 2.080 1_556 S
O488 C502 1.305 . S
O489 Zn483 1.920 . S
O489 C502 1.234 . S
C490 O495 1.167 . S
C490 O496 1.299 1_556 S
O491 Zn485 2.114 . S
O491 C486 1.166 . S
O492 Zn484 1.905 . S
O492 C486 1.182 . S
O493 Zn484 1.898 . S
O493 C487 1.167 . S
O494 Zn485 2.120 . S
O494 C487 1.299 . S
O495 Zn483 1.898 . S
O495 C490 1.167 . S
O496 Zn485 2.120 . S
O496 C490 1.299 1_554 S
O497 Zn485 2.114 1_556 S
O497 C499 1.166 . S
O498 Zn483 1.905 . S
O498 C499 1.182 . S
C499 O497 1.166 . S
C499 O498 1.182 . S
O500 Zn485 2.080 . S
O500 C503 1.305 . S
O501 Zn484 1.920 . S
O501 C503 1.234 . S
C502 O488 1.305 . S
C502 O489 1.234 . S
C503 O500 1.305 . S
C503 O501 1.234 . S
Zn504 O510 1.920 . S
Zn504 O516 1.898 . S
Zn504 O519 1.905 . S
Zn505 O513 1.905 . S
Zn505 O514 1.898 . S
Zn505 O522 1.920 . S
Zn506 O509 2.080 . S
Zn506 O512 2.114 . S
Zn506 O515 2.120 . S
Zn506 O517 2.120 . S
Zn506 O518 2.114 . S
Zn506 O521 2.080 . S
C507 O512 1.166 . S
C507 O513 1.182 . S
C508 O514 1.167 . S
C508 O515 1.299 . S
O509 Zn506 2.080 . S
O509 C523 1.305 . S
O510 Zn504 1.920 . S
O510 C523 1.234 . S
C511 O516 1.167 . S
C511 O517 1.299 . S
O512 Zn506 2.114 . S
O512 C507 1.166 . S
O513 Zn505 1.905 . S
O513 C507 1.182 . S
O514 Zn505 1.898 . S
O514 C508 1.167 . S
O515 Zn506 2.120 . S
O515 C508 1.299 . S
O516 Zn504 1.898 . S
O516 C511 1.167 . S
O517 Zn506 2.120 . S
O517 C511 1.299 . S
O518 Zn506 2.114 . S
O518 C520 1.166 . S
O519 Zn504 1.905 . S
O519 C520 1.182 . S
C520 O518 1.166 . S
C520 O519 1.182 . S
O521 Zn506 2.080 . S
O521 C524 1.305 . S
O522 Zn505 1.920 . S
O522 C524 1.234 . S
C523 O509 1.305 . S
C523 O510 1.234 . S
C524 O521 1.305 . S
C524 O522 1.234 . S
Zn525 O531 1.920 . S
Zn525 O537 1.898 . S
Zn525 O540 1.905 . S
Zn526 O534 1.905 . S
Zn526 O535 1.898 . S
Zn526 O543 1.920 . S
Zn527 O530 2.080 . S
Zn527 O533 2.114 . S
Zn527 O536 2.120 . S
Zn527 O538 2.120 . S
Zn527 O539 2.114 . S
Zn527 O542 2.080 . S
C528 O533 1.166 . S
C528 O534 1.182 . S
C529 O535 1.167 . S
C529 O536 1.299 . S
O530 Zn527 2.080 . S
O530 C544 1.305 . S
O531 Zn525 1.920 . S
O531 C544 1.234 . S
C532 O537 1.167 . S
C532 O538 1.299 . S
O533 Zn527 2.114 . S
O533 C528 1.166 . S
O534 Zn526 1.905 . S
O534 C528 1.182 . S
O535 Zn526 1.898 . S
O535 C529 1.167 . S
O536 Zn527 2.120 . S
O536 C529 1.299 . S
O537 Zn525 1.898 . S
O537 C532 1.167 . S
O538 Zn527 2.120 . S
O538 C532 1.299 . S
O539 Zn527 2.114 . S
O539 C541 1.166 . S
O540 Zn525 1.905 . S
O540 C541 1.182 . S
C541 O539 1.166 . S
C541 O540 1.182 . S
O542 Zn527 2.080 . S
O542 C545 1.305 . S
O543 Zn526 1.920 . S
O543 C545 1.234 . S
C544 O530 1.305 . S
C544 O531 1.234 . S
C545 O542 1.305 . S
C545 O543 1.234 . S
Zn546 O552 1.920 . S
Zn546 O558 1.898 . S
Zn546 O561 1.905 . S
Zn547 O555 1.905 . S
Zn547 O556 1.898 . S
Zn547 O564 1.920 . S
Zn548 O551 2.080 . S
Zn548 O554 2.114 . S
Zn548 O557 2.120 . S
Zn548 O559 2.120 . S
Zn548 O560 2.114 . S
Zn548 O563 2.080 . S
C549 O554 1.166 . S
C549 O555 1.182 . S
C550 O556 1.167 . S
C550 O557 1.299 . S
O551 Zn548 2.080 . S
O551 C565 1.305 . S
O552 Zn546 1.920 . S
O552 C565 1.234 . S
C553 O558 1.167 . S
C553 O559 1.299 . S
O554 Zn548 2.114 . S
O554 C549 1.166 . S
O555 Zn547 1.905 . S
O555 C549 1.182 . S
O556 Zn547 1.898 . S
O556 C550 1.167 . S
O557 Zn548 2.120 . S
O557 C550 1.299 . S
O558 Zn546 1.898 . S
O558 C553 1.167 . S
O559 Zn548 2.120 . S
O559 C553 1.299 . S
O560 Zn548 2.114 . S
O560 C562 1.166 . S
O561 Zn546 1.905 . S
O561 C562 1.182 . S
C562 O560 1.166 . S
C562 O561 1.182 . S
O563 Zn548 2.080 . S
O563 C566 1.305 . S
O564 Zn547 1.920 . S
O564 C566 1.234 . S
C565 O551 1.305 . S
C565 O552 1.234 . S
C566 O563 1.305 . S
C566 O564 1.234 . S
Zn567 O573 1.920 . S
Zn567 O579 1.898 . S
Zn567 O582 1.905 . S
Zn568 O576 1.905 . S
Zn568 O577 1.898 . S
Zn568 O585 1.920 . S
Zn569 O572 2.080 . S
Zn569 O575 2.114 . S
Zn569 O578 2.120 . S
Zn569 O580 2.120 . S
Zn569 O581 2.114 . S
Zn569 O584 2.080 . S
C570 O575 1.166 . S
C570 O576 1.182 . S
C571 O577 1.167 . S
C571 O578 1.299 . S
O572 Zn569 2.080 . S
O572 C586 1.305 . S
O573 Zn567 1.920 . S
O573 C586 1.234 . S
C574 O579 1.167 . S
C574 O580 1.299 . S
O575 Zn569 2.114 . S
O575 C570 1.166 . S
O576 Zn568 1.905 . S
O576 C570 1.182 . S
O577 Zn568 1.898 . S
O577 C571 1.167 . S
O578 Zn569 2.120 . S
O578 C571 1.299 . S
O579 Zn567 1.898 . S
O579 C574 1.167 . S
O580 Zn569 2.120 . S
O580 C574 1.299 . S
O581 Zn569 2.114 . S
O581 C583 1.166 . S
O582 Zn567 1.905 . S
O582 C583 1.182 . S
C583 O581 1.166 . S
C583 O582 1.182 . S
O584 Zn569 2.080 . S
O584 C587 1.305 . S
O585 Zn568 1.920 . S
O585 C587 1.234 . S
C586 O572 1.305 . S
C586 O573 1.234 . S
C587 O584 1.305 . S
C587 O585 1.234 . S
Zn588 O594 1.920 . S
Zn588 O600 1.898 . S
Zn588 O603 1.905 . S
Zn589 O597 1.905 . S
Zn589 O598 1.898 . S
Zn589 O606 1.920 . S
Zn590 O593 2.080 . S
Zn590 O596 2.114 . S
Zn590 O599 2.120 . S
Zn590 O601 2.120 . S
Zn590 O602 2.114 . S
Zn590 O605 2.080 . S
C591 O596 1.166 . S
C591 O597 1.182 . S
C592 O598 1.167 . S
C592 O599 1.299 . S
O593 Zn590 2.080 . S
O593 C607 1.305 . S
O594 Zn588 1.920 . S
O594 C607 1.234 . S
C595 O600 1.167 . S
C595 O601 1.299 . S
O596 Zn590 2.114 . S
O596 C591 1.166 . S
O597 Zn589 1.905 . S
O597 C591 1.182 . S
O598 Zn589 1.898 . S
O598 C592 1.167 . S
O599 Zn590 2.120 . S
O599 C592 1.299 . S
O600 Zn588 1.898 . S
O600 C595 1.167 . S
O601 Zn590 2.120 . S
O601 C595 1.299 . S
O602 Zn590 2.114 . S
O602 C604 1.166 . S
O603 Zn588 1.905 . S
O603 C604 1.182 . S
C604 O602 1.166 . S
C604 O603 1.182 . S
O605 Zn590 2.080 . S
O605 C608 1.305 . S
O606 Zn589 1.920 . S
O606 C608 1.234 . S
C607 O593 1.305 . S
C607 O594 1.234 . S
C608 O605 1.305 . S
C608 O606 1.234 . S
Zn609 O615 1.920 . S
Zn609 O621 1.898 . S
Zn609 O624 1.905 . S
Zn610 O618 1.905 . S
Zn610 O619 1.898 . S
Zn610 O627 1.920 . S
Zn611 O614 2.080 . S
Zn611 O617 2.114 . S
Zn611 O620 2.120 . S
Zn611 O622 2.120 . S
Zn611 O623 2.114 . S
Zn611 O626 2.080 . S
C612 O617 1.166 . S
C612 O618 1.182 . S
C613 O619 1.167 . S
C613 O620 1.299 . S
O614 Zn611 2.080 . S
O614 C628 1.305 . S
O615 Zn609 1.920 . S
O615 C628 1.234 . S
C616 O621 1.167 . S
C616 O622 1.299 . S
O617 Zn611 2.114 . S
O617 C612 1.166 . S
O618 Zn610 1.905 . S
O618 C612 1.182 . S
O619 Zn610 1.898 . S
O619 C613 1.167 . S
O620 Zn611 2.120 . S
O620 C613 1.299 . S
O621 Zn609 1.898 . S
O621 C616 1.167 . S
O622 Zn611 2.120 . S
O622 C616 1.299 . S
O623 Zn611 2.114 . S
O623 C625 1.166 . S
O624 Zn609 1.905 . S
O624 C625 1.182 . S
C625 O623 1.166 . S
C625 O624 1.182 . S
O626 Zn611 2.080 . S
O626 C629 1.305 . S
O627 Zn610 1.920 . S
O627 C629 1.234 . S
C628 O614 1.305 . S
C628 O615 1.234 . S
C629 O626 1.305 . S
C629 O627 1.234 . S
Zn630 O636 1.920 . S
Zn630 O642 1.898 . S
Zn630 O645 1.905 . S
Zn631 O639 1.905 . S
Zn631 O640 1.898 . S
Zn631 O648 1.920 . S
Zn632 O635 2.080 . S
Zn632 O638 2.114 . S
Zn632 O641 2.120 . S
Zn632 O643 2.120 . S
Zn632 O644 2.114 . S
Zn632 O647 2.080 . S
C633 O638 1.166 . S
C633 O639 1.182 . S
C634 O640 1.167 . S
C634 O641 1.299 . S
O635 Zn632 2.080 . S
O635 C649 1.305 . S
O636 Zn630 1.920 . S
O636 C649 1.234 . S
C637 O642 1.167 . S
C637 O643 1.299 . S
O638 Zn632 2.114 . S
O638 C633 1.166 . S
O639 Zn631 1.905 . S
O639 C633 1.182 . S
O640 Zn631 1.898 . S
O640 C634 1.167 . S
O641 Zn632 2.120 . S
O641 C634 1.299 . S
O642 Zn630 1.898 . S
O642 C637 1.167 . S
O643 Zn632 2.120 . S
O643 C637 1.299 . S
O644 Zn632 2.114 . S
O644 C646 1.166 . S
O645 Zn630 1.905 . S
O645 C646 1.182 . S
C646 O644 1.166 . S
C646 O645 1.182 . S
O647 Zn632 2.080 . S
O647 C650 1.305 . S
O648 Zn631 1.920 . S
O648 C650 1.234 . S
C649 O635 1.305 . S
C649 O636 1.234 . S
C650 O647 1.305 . S
C650 O648 1.234 . S
Zn651 O657 1.920 . S
Zn651 O663 1.898 . S
Zn651 O666 1.905 . S
Zn652 O660 1.905 . S
Zn652 O661 1.898 . S
Zn652 O669 1.920 . S
Zn653 O656 2.080 . S
Zn653 O659 2.114 . S
Zn653 O662 2.120 . S
Zn653 O664 2.120 . S
Zn653 O665 2.114 . S
Zn653 O668 2.080 . S
C654 O659 1.166 . S
C654 O660 1.182 . S
C655 O661 1.167 . S
C655 O662 1.299 . S
O656 Zn653 2.080 . S
O656 C670 1.305 . S
O657 Zn651 1.920 . S
O657 C670 1.234 . S
C658 O663 1.167 . S
C658 O664 1.299 . S
O659 Zn653 2.114 . S
O659 C654 1.166 . S
O660 Zn652 1.905 . S
O660 C654 1.182 . S
O661 Zn652 1.898 . S
O661 C655 1.167 . S
O662 Zn653 2.120 . S
O662 C655 1.299 . S
O663 Zn651 1.898 . S
O663 C658 1.167 . S
O664 Zn653 2.120 . S
O664 C658 1.299 . S
O665 Zn653 2.114 . S
O665 C667 1.166 . S
O666 Zn651 1.905 . S
O666 C667 1.182 . S
C667 O665 1.166 . S
C667 O666 1.182 . S
O668 Zn653 2.080 . S
O668 C671 1.305 . S
O669 Zn652 1.920 . S
O669 C671 1.234 . S
C670 O656 1.305 . S
C670 O657 1.234 . S
C671 O668 1.305 . S
C671 O669 1.234 . S
Zn672 O678 1.920 . S
Zn672 O684 1.898 . S
Zn672 O687 1.905 . S
Zn673 O681 1.905 . S
Zn673 O682 1.898 . S
Zn673 O690 1.920 . S
Zn674 O677 2.080 . S
Zn674 O680 2.114 . S
Zn674 O683 2.120 . S
Zn674 O685 2.120 . S
Zn674 O686 2.114 . S
Zn674 O689 2.080 . S
C675 O680 1.166 . S
C675 O681 1.182 . S
C676 O682 1.167 . S
C676 O683 1.299 . S
O677 Zn674 2.080 . S
O677 C691 1.305 . S
O678 Zn672 1.920 . S
O678 C691 1.234 . S
C679 O684 1.167 . S
C679 O685 1.299 . S
O680 Zn674 2.114 . S
O680 C675 1.166 . S
O681 Zn673 1.905 . S
O681 C675 1.182 . S
O682 Zn673 1.898 . S
O682 C676 1.167 . S
O683 Zn674 2.120 . S
O683 C676 1.299 . S
O684 Zn672 1.898 . S
O684 C679 1.167 . S
O685 Zn674 2.120 . S
O685 C679 1.299 . S
O686 Zn674 2.114 . S
O686 C688 1.166 . S
O687 Zn672 1.905 . S
O687 C688 1.182 . S
C688 O686 1.166 . S
C688 O687 1.182 . S
O689 Zn674 2.080 . S
O689 C692 1.305 . S
O690 Zn673 1.920 . S
O690 C692 1.234 . S
C691 O677 1.305 . S
C691 O678 1.234 . S
C692 O689 1.305 . S
C692 O690 1.234 . S
Zn693 O699 1.920 . S
Zn693 O705 1.898 . S
Zn693 O708 1.905 . S
Zn694 O702 1.905 . S
Zn694 O703 1.898 . S
Zn694 O711 1.920 . S
Zn695 O698 2.080 . S
Zn695 O701 2.114 . S
Zn695 O704 2.120 . S
Zn695 O706 2.120 . S
Zn695 O707 2.114 . S
Zn695 O710 2.080 . S
C696 O701 1.166 . S
C696 O702 1.182 . S
C697 O703 1.167 . S
C697 O704 1.299 . S
O698 Zn695 2.080 . S
O698 C712 1.305 . S
O699 Zn693 1.920 . S
O699 C712 1.234 . S
C700 O705 1.167 . S
C700 O706 1.299 . S
O701 Zn695 2.114 . S
O701 C696 1.166 . S
O702 Zn694 1.905 . S
O702 C696 1.182 . S
O703 Zn694 1.898 . S
O703 C697 1.167 . S
O704 Zn695 2.120 . S
O704 C697 1.299 . S
O705 Zn693 1.898 . S
O705 C700 1.167 . S
O706 Zn695 2.120 . S
O706 C700 1.299 . S
O707 Zn695 2.114 . S
O707 C709 1.166 . S
O708 Zn693 1.905 . S
O708 C709 1.182 . S
C709 O707 1.166 . S
C709 O708 1.182 . S
O710 Zn695 2.080 . S
O710 C713 1.305 . S
O711 Zn694 1.920 . S
O711 C713 1.234 . S
C712 O698 1.305 . S
C712 O699 1.234 . S
C713 O710 1.305 . S
C713 O711 1.234 . S
Zn714 O720 1.920 . S
Zn714 O726 1.898 . S
Zn714 O729 1.905 . S
Zn715 O723 1.905 . S
Zn715 O724 1.898 . S
Zn715 O732 1.920 . S
Zn716 O719 2.080 . S
Zn716 O722 2.114 . S
Zn716 O725 2.120 . S
Zn716 O727 2.120 . S
Zn716 O728 2.114 . S
Zn716 O731 2.080 . S
C717 O722 1.166 . S
C717 O723 1.182 . S
C718 O724 1.167 . S
C718 O725 1.299 . S
O719 Zn716 2.080 . S
O719 C733 1.305 . S
O720 Zn714 1.920 . S
O720 C733 1.234 . S
C721 O726 1.167 . S
C721 O727 1.299 . S
O722 Zn716 2.114 . S
O722 C717 1.166 . S
O723 Zn715 1.905 . S
O723 C717 1.182 . S
O724 Zn715 1.898 . S
O724 C718 1.167 . S
O725 Zn716 2.120 . S
O725 C718 1.299 . S
O726 Zn714 1.898 . S
O726 C721 1.167 . S
O727 Zn716 2.120 . S
O727 C721 1.299 . S
O728 Zn716 2.114 . S
O728 C730 1.166 . S
O729 Zn714 1.905 . S
O729 C730 1.182 . S
C730 O728 1.166 . S
C730 O729 1.182 . S
O731 Zn716 2.080 . S
O731 C734 1.305 . S
O732 Zn715 1.920 . S
O732 C734 1.234 . S
C733 O719 1.305 . S
C733 O720 1.234 . S
C734 O731 1.305 . S
C734 O732 1.234 . S
Zn735 O741 1.920 . S
Zn735 O747 1.898 . S
Zn735 O750 1.905 . S
Zn736 O744 1.905 . S
Zn736 O745 1.898 . S
Zn736 O753 1.920 . S
Zn737 O740 2.080 . S
Zn737 O743 2.114 . S
Zn737 O746 2.120 . S
Zn737 O748 2.120 . S
Zn737 O749 2.114 . S
Zn737 O752 2.080 . S
C738 O743 1.166 . S
C738 O744 1.182 . S
C739 O745 1.167 . S
C739 O746 1.299 . S
O740 Zn737 2.080 . S
O740 C754 1.305 . S
O741 Zn735 1.920 . S
O741 C754 1.234 . S
C742 O747 1.167 . S
C742 O748 1.299 . S
O743 Zn737 2.114 . S
O743 C738 1.166 . S
O744 Zn736 1.905 . S
O744 C738 1.182 . S
O745 Zn736 1.898 . S
O745 C739 1.167 . S
O746 Zn737 2.120 . S
O746 C739 1.299 . S
O747 Zn735 1.898 . S
O747 C742 1.167 . S
O748 Zn737 2.120 . S
O748 C742 1.299 . S
O749 Zn737 2.114 . S
O749 C751 1.166 . S
O750 Zn735 1.905 . S
O750 C751 1.182 . S
C751 O749 1.166 . S
C751 O750 1.182 . S
O752 Zn737 2.080 . S
O752 C755 1.305 . S
O753 Zn736 1.920 . S
O753 C755 1.234 . S
C754 O740 1.305 . S
C754 O741 1.234 . S
C755 O752 1.305 . S
C755 O753 1.234 . S
Zn756 O762 1.920 . S
Zn756 O768 1.898 . S
Zn756 O771 1.905 . S
Zn757 O765 1.905 . S
Zn757 O766 1.898 . S
Zn757 O774 1.920 . S
Zn758 O761 2.080 . S
Zn758 O764 2.114 . S
Zn758 O767 2.120 . S
Zn758 O769 2.120 . S
Zn758 O770 2.114 . S
Zn758 O773 2.080 . S
C759 O764 1.166 . S
C759 O765 1.182 . S
C760 O766 1.167 . S
C760 O767 1.299 . S
O761 Zn758 2.080 . S
O761 C775 1.305 . S
O762 Zn756 1.920 . S
O762 C775 1.234 . S
C763 O768 1.167 . S
C763 O769 1.299 . S
O764 Zn758 2.114 . S
O764 C759 1.166 . S
O765 Zn757 1.905 . S
O765 C759 1.182 . S
O766 Zn757 1.898 . S
O766 C760 1.167 . S
O767 Zn758 2.120 . S
O767 C760 1.299 . S
O768 Zn756 1.898 . S
O768 C763 1.167 . S
O769 Zn758 2.120 . S
O769 C763 1.299 . S
O770 Zn758 2.114 . S
O770 C772 1.166 . S
O771 Zn756 1.905 . S
O771 C772 1.182 . S
C772 O770 1.166 . S
C772 O771 1.182 . S
O773 Zn758 2.080 . S
O773 C776 1.305 . S
O774 Zn757 1.920 . S
O774 C776 1.234 . S
C775 O761 1.305 . S
C775 O762 1.234 . S
C776 O773 1.305 . S
C776 O774 1.234 . S
Zn777 O783 1.920 . S
Zn777 O789 1.898 . S
Zn777 O792 1.905 . S
Zn778 O786 1.905 . S
Zn778 O787 1.898 . S
Zn778 O795 1.920 . S
Zn779 O782 2.080 . S
Zn779 O785 2.114 . S
Zn779 O788 2.120 . S
Zn779 O790 2.120 . S
Zn779 O791 2.114 . S
Zn779 O794 2.080 . S
C780 O785 1.166 . S
C780 O786 1.182 . S
C781 O787 1.167 . S
C781 O788 1.299 . S
O782 Zn779 2.080 . S
O782 C796 1.305 . S
O783 Zn777 1.920 . S
O783 C796 1.234 . S
C784 O789 1.167 . S
C784 O790 1.299 . S
O785 Zn779 2.114 . S
O785 C780 1.166 . S
O786 Zn778 1.905 . S
O786 C780 1.182 . S
O787 Zn778 1.898 . S
O787 C781 1.167 . S
O788 Zn779 2.120 . S
O788 C781 1.299 . S
O789 Zn777 1.898 . S
O789 C784 1.167 . S
O790 Zn779 2.120 . S
O790 C784 1.299 . S
O791 Zn779 2.114 . S
O791 C793 1.166 . S
O792 Zn777 1.905 . S
O792 C793 1.182 . S
C793 O791 1.166 . S
C793 O792 1.182 . S
O794 Zn779 2.080 . S
O794 C797 1.305 . S
O795 Zn778 1.920 . S
O795 C797 1.234 . S
C796 O782 1.305 . S
C796 O783 1.234 . S
C797 O794 1.305 . S
C797 O795 1.234 . S
Zn798 O804 1.920 . S
Zn798 O810 1.898 . S
Zn798 O813 1.905 . S
Zn799 O807 1.905 . S
Zn799 O808 1.898 . S
Zn799 O816 1.920 . S
Zn800 O803 2.080 . S
Zn800 O806 2.114 . S
Zn800 O809 2.120 . S
Zn800 O811 2.120 . S
Zn800 O812 2.114 . S
Zn800 O815 2.080 . S
C801 O806 1.166 . S
C801 O807 1.182 . S
C802 O808 1.167 . S
C802 O809 1.299 . S
O803 Zn800 2.080 . S
O803 C817 1.305 . S
O804 Zn798 1.920 . S
O804 C817 1.234 . S
C805 O810 1.167 . S
C805 O811 1.299 . S
O806 Zn800 2.114 . S
O806 C801 1.166 . S
O807 Zn799 1.905 . S
O807 C801 1.182 . S
O808 Zn799 1.898 . S
O808 C802 1.167 . S
O809 Zn800 2.120 . S
O809 C802 1.299 . S
O810 Zn798 1.898 . S
O810 C805 1.167 . S
O811 Zn800 2.120 . S
O811 C805 1.299 . S
O812 Zn800 2.114 . S
O812 C814 1.166 . S
O813 Zn798 1.905 . S
O813 C814 1.182 . S
C814 O812 1.166 . S
C814 O813 1.182 . S
O815 Zn800 2.080 . S
O815 C818 1.305 . S
O816 Zn799 1.920 . S
O816 C818 1.234 . S
C817 O803 1.305 . S
C817 O804 1.234 . S
C818 O815 1.305 . S
C818 O816 1.234 . S
Zn819 O825 1.920 . S
Zn819 O831 1.898 . S
Zn819 O834 1.905 . S
Zn820 O828 1.905 . S
Zn820 O829 1.898 . S
Zn820 O837 1.920 . S
Zn821 O824 2.080 . S
Zn821 O827 2.114 . S
Zn821 O830 2.120 . S
Zn821 O832 2.120 . S
Zn821 O833 2.114 . S
Zn821 O836 2.080 . S
C822 O827 1.166 . S
C822 O828 1.182 . S
C823 O829 1.167 . S
C823 O830 1.299 . S
O824 Zn821 2.080 . S
O824 C838 1.305 . S
O825 Zn819 1.920 . S
O825 C838 1.234 . S
C826 O831 1.167 . S
C826 O832 1.299 . S
O827 Zn821 2.114 . S
O827 C822 1.166 . S
O828 Zn820 1.905 . S
O828 C822 1.182 . S
O829 Zn820 1.898 . S
O829 C823 1.167 . S
O830 Zn821 2.120 . S
O830 C823 1.299 . S
O831 Zn819 1.898 . S
O831 C826 1.167 . S
O832 Zn821 2.120 . S
O832 C826 1.299 . S
O833 Zn821 2.114 . S
O833 C835 1.166 . S
O834 Zn819 1.905 . S
O834 C835 1.182 . S
C835 O833 1.166 . S
C835 O834 1.182 . S
O836 Zn821 2.080 . S
O836 C839 1.305 . S
O837 Zn820 1.920 . S
O837 C839 1.234 . S
C838 O824 1.305 . S
C838 O825 1.234 . S
C839 O836 1.305 . S
C839 O837 1.234 . S
Zn840 O846 1.920 . S
Zn840 O852 1.898 . S
Zn840 O855 1.905 . S
Zn841 O849 1.905 . S
Zn841 O850 1.898 . S
Zn841 O858 1.920 . S
Zn842 O845 2.080 . S
Zn842 O848 2.114 . S
Zn842 O851 2.120 . S
Zn842 O853 2.120 . S
Zn842 O854 2.114 . S
Zn842 O857 2.080 . S
C843 O848 1.166 . S
C843 O849 1.182 . S
C844 O850 1.167 . S
C844 O851 1.299 . S
O845 Zn842 2.080 . S
O845 C859 1.305 . S
O846 Zn840 1.920 . S
O846 C859 1.234 . S
C847 O852 1.167 . S
C847 O853 1.299 . S
O848 Zn842 2.114 . S
O848 C843 1.166 . S
O849 Zn841 1.905 . S
O849 C843 1.182 . S
O850 Zn841 1.898 . S
O850 C844 1.167 . S
O851 Zn842 2.120 . S
O851 C844 1.299 . S
O852 Zn840 1.898 . S
O852 C847 1.167 . S
O853 Zn842 2.120 . S
O853 C847 1.299 . S
O854 Zn842 2.114 . S
O854 C856 1.166 . S
O855 Zn840 1.905 . S
O855 C856 1.182 . S
C856 O854 1.166 . S
C856 O855 1.182 . S
O857 Zn842 2.080 . S
O857 C860 1.305 . S
O858 Zn841 1.920 . S
O858 C860 1.234 . S
C859 O845 1.305 . S
C859 O846 1.234 . S
C860 O857 1.305 . S
C860 O858 1.234 . S
Zn861 O867 1.920 . S
Zn861 O873 1.898 . S
Zn861 O876 1.905 . S
Zn862 O870 1.905 . S
Zn862 O871 1.898 . S
Zn862 O879 1.920 . S
Zn863 O866 2.080 . S
Zn863 O869 2.114 . S
Zn863 O872 2.120 . S
Zn863 O874 2.120 . S
Zn863 O875 2.114 . S
Zn863 O878 2.080 . S
C864 O869 1.166 . S
C864 O870 1.182 . S
C865 O871 1.167 . S
C865 O872 1.299 . S
O866 Zn863 2.080 . S
O866 C880 1.305 . S
O867 Zn861 1.920 . S
O867 C880 1.234 . S
C868 O873 1.167 . S
C868 O874 1.299 . S
O869 Zn863 2.114 . S
O869 C864 1.166 . S
O870 Zn862 1.905 . S
O870 C864 1.182 . S
O871 Zn862 1.898 . S
O871 C865 1.167 . S
O872 Zn863 2.120 . S
O872 C865 1.299 . S
O873 Zn861 1.898 . S
O873 C868 1.167 . S
O874 Zn863 2.120 . S
O874 C868 1.299 . S
O875 Zn863 2.114 . S
O875 C877 1.166 . S
O876 Zn861 1.905 . S
O876 C877 1.182 . S
C877 O875 1.166 . S
C877 O876 1.182 . S
O878 Zn863 2.080 . S
O878 C881 1.305 . S
O879 Zn862 1.920 . S
O879 C881 1.234 . S
C880 O866 1.305 . S
C880 O867 1.234 . S
C881 O878 1.305 . S
C881 O879 1.234 . S
Zn882 O888 1.920 . S
Zn882 O894 1.898 . S
Zn882 O897 1.905 . S
Zn883 O891 1.905 . S
Zn883 O892 1.898 . S
Zn883 O900 1.920 . S
Zn884 O887 2.080 . S
Zn884 O890 2.114 . S
Zn884 O893 2.120 . S
Zn884 O895 2.120 . S
Zn884 O896 2.114 . S
Zn884 O899 2.080 . S
C885 O890 1.166 . S
C885 O891 1.182 . S
C886 O892 1.167 . S
C886 O893 1.299 . S
O887 Zn884 2.080 . S
O887 C901 1.305 . S
O888 Zn882 1.920 . S
O888 C901 1.234 . S
C889 O894 1.167 . S
C889 O895 1.299 . S
O890 Zn884 2.114 . S
O890 C885 1.166 . S
O891 Zn883 1.905 . S
O891 C885 1.182 . S
O892 Zn883 1.898 . S
O892 C886 1.167 . S
O893 Zn884 2.120 . S
O893 C886 1.299 . S
O894 Zn882 1.898 . S
O894 C889 1.167 . S
O895 Zn884 2.120 . S
O895 C889 1.299 . S
O896 Zn884 2.114 . S
O896 C898 1.166 . S
O897 Zn882 1.905 . S
O897 C898 1.182 . S
C898 O896 1.166 . S
C898 O897 1.182 . S
O899 Zn884 2.080 . S
O899 C902 1.305 . S
O900 Zn883 1.920 . S
O900 C902 1.234 . S
C901 O887 1.305 . S
C901 O888 1.234 . S
C902 O899 1.305 . S
C902 O900 1.234 . S
Zn903 O909 1.920 . S
Zn903 O915 1.898 . S
Zn903 O918 1.905 . S
Zn904 O912 1.905 . S
Zn904 O913 1.898 . S
Zn904 O921 1.920 . S
Zn905 O908 2.080 . S
Zn905 O911 2.114 . S
Zn905 O914 2.120 . S
Zn905 O916 2.120 . S
Zn905 O917 2.114 . S
Zn905 O920 2.080 . S
C906 O911 1.166 . S
C906 O912 1.182 . S
C907 O913 1.167 . S
C907 O914 1.299 . S
O908 Zn905 2.080 . S
O908 C922 1.305 . S
O909 Zn903 1.920 . S
O909 C922 1.234 . S
C910 O915 1.167 . S
C910 O916 1.299 . S
O911 Zn905 2.114 . S
O911 C906 1.166 . S
O912 Zn904 1.905 . S
O912 C906 1.182 . S
O913 Zn904 1.898 . S
O913 C907 1.167 . S
O914 Zn905 2.120 . S
O914 C907 1.299 . S
O915 Zn903 1.898 . S
O915 C910 1.167 . S
O916 Zn905 2.120 . S
O916 C910 1.299 . S
O917 Zn905 2.114 . S
O917 C919 1.166 . S
O918 Zn903 1.905 . S
O918 C919 1.182 . S
C919 O917 1.166 . S
C919 O918 1.182 . S
O920 Zn905 2.080 . S
O920 C923 1.305 . S
O921 Zn904 1.920 . S
O921 C923 1.234 . S
C922 O908 1.305 . S
C922 O909 1.234 . S
C923 O920 1.305 . S
C923 O921 1.234 . S
Zn924 O930 1.920 . S
Zn924 O936 1.898 . S
Zn924 O939 1.905 . S
Zn925 O933 1.905 . S
Zn925 O934 1.898 . S
Zn925 O942 1.920 . S
Zn926 O929 2.080 . S
Zn926 O932 2.114 . S
Zn926 O935 2.120 . S
Zn926 O937 2.120 . S
Zn926 O938 2.114 . S
Zn926 O941 2.080 . S
C927 O932 1.166 . S
C927 O933 1.182 . S
C928 O934 1.167 . S
C928 O935 1.299 . S
O929 Zn926 2.080 . S
O929 C943 1.305 . S
O930 Zn924 1.920 . S
O930 C943 1.234 . S
C931 O936 1.167 . S
C931 O937 1.299 . S
O932 Zn926 2.114 . S
O932 C927 1.166 . S
O933 Zn925 1.905 . S
O933 C927 1.182 . S
O934 Zn925 1.898 . S
O934 C928 1.167 . S
O935 Zn926 2.120 . S
O935 C928 1.299 . S
O936 Zn924 1.898 . S
O936 C931 1.167 . S
O937 Zn926 2.120 . S
O937 C931 1.299 . S
O938 Zn926 2.114 . S
O938 C940 1.166 . S
O939 Zn924 1.905 . S
O939 C940 1.182 . S
C940 O938 1.166 . S
C940 O939 1.182 . S
O941 Zn926 2.080 . S
O941 C944 1.305 . S
O942 Zn925 1.920 . S
O942 C944 1.234 . S
C943 O929 1.305 . S
C943 O930 1.234 . S
C944 O941 1.305 . S
C944 O942 1.234 . S
Zn945 O951 1.920 . S
Zn945 O957 1.898 . S
Zn945 O960 1.905 . S
Zn946 O954 1.905 . S
Zn946 O955 1.898 . S
Zn946 O963 1.920 . S
Zn947 O950 2.080 . S
Zn947 O953 2.114 . S
Zn947 O956 2.120 . S
Zn947 O958 2.120 . S
Zn947 O959 2.114 . S
Zn947 O962 2.080 . S
C948 O953 1.166 . S
C948 O954 1.182 . S
C949 O955 1.167 . S
C949 O956 1.299 . S
O950 Zn947 2.080 . S
O950 C964 1.305 . S
O951 Zn945 1.920 . S
O951 C964 1.234 . S
C952 O957 1.167 . S
C952 O958 1.299 . S
O953 Zn947 2.114 . S
O953 C948 1.166 . S
O954 Zn946 1.905 . S
O954 C948 1.182 . S
O955 Zn946 1.898 . S
O955 C949 1.167 . S
O956 Zn947 2.120 . S
O956 C949 1.299 . S
O957 Zn945 1.898 . S
O957 C952 1.167 . S
O958 Zn947 2.120 . S
O958 C952 1.299 . S
O959 Zn947 2.114 . S
O959 C961 1.166 . S
O960 Zn945 1.905 . S
O960 C961 1.182 . S
C961 O959 1.166 . S
C961 O960 1.182 . S
O962 Zn947 2.080 . S
O962 C965 1.305 . S
O963 Zn946 1.920 . S
O963 C965 1.234 . S
C964 O950 1.305 . S
C964 O951 1.234 . S
C965 O962 1.305 . S
C965 O963 1.234 . S
Zn966 O972 1.920 . S
Zn966 O978 1.898 . S
Zn966 O981 1.905 . S
Zn967 O975 1.905 . S
Zn967 O976 1.898 . S
Zn967 O984 1.920 . S
Zn968 O971 2.080 . S
Zn968 O974 2.114 . S
Zn968 O977 2.120 . S
Zn968 O979 2.120 . S
Zn968 O980 2.114 . S
Zn968 O983 2.080 . S
C969 O974 1.166 . S
C969 O975 1.182 . S
C970 O976 1.167 . S
C970 O977 1.299 . S
O971 Zn968 2.080 . S
O971 C985 1.305 . S
O972 Zn966 1.920 . S
O972 C985 1.234 . S
C973 O978 1.167 . S
C973 O979 1.299 . S
O974 Zn968 2.114 . S
O974 C969 1.166 . S
O975 Zn967 1.905 . S
O975 C969 1.182 . S
O976 Zn967 1.898 . S
O976 C970 1.167 . S
O977 Zn968 2.120 . S
O977 C970 1.299 . S
O978 Zn966 1.898 . S
O978 C973 1.167 . S
O979 Zn968 2.120 . S
O979 C973 1.299 . S
O980 Zn968 2.114 . S
O980 C982 1.166 . S
O981 Zn966 1.905 . S
O981 C982 1.182 . S
C982 O980 1.166 . S
C982 O981 1.182 . S
O983 Zn968 2.080 . S
O983 C986 1.305 . S
O984 Zn967 1.920 . S
O984 C986 1.234 . S
C985 O971 1.305 . S
C985 O972 1.234 . S
C986 O983 1.305 . S
C986 O984 1.234 . S
Zn987 O993 1.920 . S
Zn987 O999 1.898 . S
Zn987 O1002 1.905 . S
Zn988 O996 1.905 . S
Zn988 O997 1.898 . S
Zn988 O1005 1.920 . S
Zn989 O992 2.080 . S
Zn989 O995 2.114 . S
Zn989 O998 2.120 . S
Zn989 O1000 2.120 . S
Zn989 O1001 2.114 . S
Zn989 O1004 2.080 . S
C990 O995 1.166 . S
C990 O996 1.182 . S
C991 O997 1.167 . S
C991 O998 1.299 . S
O992 Zn989 2.080 . S
O992 C1006 1.305 . S
O993 Zn987 1.920 . S
O993 C1006 1.234 . S
C994 O999 1.167 . S
C994 O1000 1.299 . S
O995 Zn989 2.114 . S
O995 C990 1.166 . S
O996 Zn988 1.905 . S
O996 C990 1.182 . S
O997 Zn988 1.898 . S
O997 C991 1.167 . S
O998 Zn989 2.120 . S
O998 C991 1.299 . S
O999 Zn987 1.898 . S
O999 C994 1.167 . S
O1000 Zn989 2.120 . S
O1000 C994 1.299 . S
O1001 Zn989 2.114 . S
O1001 C1003 1.166 . S
O1002 Zn987 1.905 . S
O1002 C1003 1.182 . S
C1003 O1001 1.166 . S
C1003 O1002 1.182 . S
O1004 Zn989 2.080 . S
O1004 C1007 1.305 . S
O1005 Zn988 1.920 . S
O1005 C1007 1.234 . S
C1006 O992 1.305 . S
C1006 O993 1.234 . S
C1007 O1004 1.305 . S
C1007 O1005 1.234 . S
C1008 C1009 1.387 . S
C1008 H1012 0.950 . S
C1008 C1017 1.390 . S
C1009 C1008 1.387 . S
C1009 C1011 1.387 . S
H1010 C1017 0.950 . S
C1011 C1009 1.387 . S
C1011 C1013 1.390 . S
C1011 H1015 0.950 . S
H1012 C1008 0.950 . S
C1013 C1011 1.390 . S
C1013 C1014 1.387 . S
C1013 H1016 0.950 . S
C1014 C1013 1.387 . S
C1014 C1017 1.387 . S
H1015 C1011 0.950 . S
H1016 C1013 0.950 . S
C1017 C1008 1.390 . S
C1017 H1010 0.950 . S
C1017 C1014 1.387 . S
C1018 C1019 1.387 . S
C1018 H1022 0.950 . S
C1018 C1027 1.390 . S
C1019 C1018 1.387 . S
C1019 C1021 1.387 . S
H1020 C1027 0.950 . S
C1021 C1019 1.387 . S
C1021 C1023 1.390 . S
C1021 H1025 0.950 . S
H1022 C1018 0.950 . S
C1023 C1021 1.390 . S
C1023 C1024 1.387 . S
C1023 H1026 0.950 . S
C1024 C1023 1.387 . S
C1024 C1027 1.387 . S
H1025 C1021 0.950 . S
H1026 C1023 0.950 . S
C1027 C1018 1.390 . S
C1027 H1020 0.950 . S
C1027 C1024 1.387 . S
C1028 C1029 1.387 . S
C1028 H1032 0.950 . S
C1028 C1037 1.390 . S
C1029 C1028 1.387 . S
C1029 C1031 1.387 . S
H1030 C1037 0.950 . S
C1031 C1029 1.387 . S
C1031 C1033 1.390 . S
C1031 H1035 0.950 . S
H1032 C1028 0.950 . S
C1033 C1031 1.390 . S
C1033 C1034 1.387 . S
C1033 H1036 0.950 . S
C1034 C1033 1.387 . S
C1034 C1037 1.387 . S
H1035 C1031 0.950 . S
H1036 C1033 0.950 . S
C1037 C1028 1.390 . S
C1037 H1030 0.950 . S
C1037 C1034 1.387 . S
C1038 C1039 1.387 . S
C1038 H1042 0.950 . S
C1038 C1047 1.390 . S
C1039 C1038 1.387 . S
C1039 C1041 1.387 . S
H1040 C1047 0.950 . S
C1041 C1039 1.387 . S
C1041 C1043 1.390 . S
C1041 H1045 0.950 . S
H1042 C1038 0.950 . S
C1043 C1041 1.390 . S
C1043 C1044 1.387 . S
C1043 H1046 0.950 . S
C1044 C1043 1.387 . S
C1044 C1047 1.387 . S
H1045 C1041 0.950 . S
H1046 C1043 0.950 . S
C1047 C1038 1.390 . S
C1047 H1040 0.950 . S
C1047 C1044 1.387 . S
C1048 C1049 1.387 . S
C1048 H1052 0.950 . S
C1048 C1057 1.390 . S
C1049 C1048 1.387 . S
C1049 C1051 1.387 . S
H1050 C1057 0.950 . S
C1051 C1049 1.387 . S
C1051 C1053 1.390 . S
C1051 H1055 0.950 . S
H1052 C1048 0.950 . S
C1053 C1051 1.390 . S
C1053 C1054 1.387 . S
C1053 H1056 0.950 . S
C1054 C1053 1.387 . S
C1054 C1057 1.387 . S
H1055 C1051 0.950 . S
H1056 C1053 0.950 . S
C1057 C1048 1.390 . S
C1057 H1050 0.950 . S
C1057 C1054 1.387 . S
C1058 C1059 1.387 . S
C1058 H1062 0.950 . S
C1058 C1067 1.390 . S
C1059 C1058 1.387 . S
C1059 C1061 1.387 . S
H1060 C1067 0.950 . S
C1061 C1059 1.387 . S
C1061 C1063 1.390 . S
C1061 H1065 0.950 . S
H1062 C1058 0.950 . S
C1063 C1061 1.390 . S
C1063 C1064 1.387 . S
C1063 H1066 0.950 . S
C1064 C1063 1.387 . S
C1064 C1067 1.387 . S
H1065 C1061 0.950 . S
H1066 C1063 0.950 . S
C1067 C1058 1.390 . S
C1067 H1060 0.950 . S
C1067 C1064 1.387 . S
C1068 C1069 1.387 . S
C1068 H1072 0.950 . S
C1068 C1077 1.390 . S
C1069 C1068 1.387 . S
C1069 C1071 1.387 . S
H1070 C1077 0.950 . S
C1071 C1069 1.387 . S
C1071 C1073 1.390 . S
C1071 H1075 0.950 . S
H1072 C1068 0.950 . S
C1073 C1071 1.390 . S
C1073 C1074 1.387 . S
C1073 H1076 0.950 . S
C1074 C1073 1.387 . S
C1074 C1077 1.387 . S
H1075 C1071 0.950 . S
H1076 C1073 0.950 . S
C1077 C1068 1.390 . S
C1077 H1070 0.950 . S
C1077 C1074 1.387 . S
C1078 C1079 1.387 . S
C1078 H1082 0.950 . S
C1078 C1087 1.390 . S
C1079 C1078 1.387 . S
C1079 C1081 1.387 . S
H1080 C1087 0.950 . S
C1081 C1079 1.387 . S
C1081 C1083 1.390 . S
C1081 H1085 0.950 . S
H1082 C1078 0.950 . S
C1083 C1081 1.390 . S
C1083 C1084 1.387 . S
C1083 H1086 0.950 . S
C1084 C1083 1.387 . S
C1084 C1087 1.387 . S
H1085 C1081 0.950 . S
H1086 C1083 0.950 . S
C1087 C1078 1.390 . S
C1087 H1080 0.950 . S
C1087 C1084 1.387 . S
C1088 C1089 1.387 . S
C1088 H1092 0.950 . S
C1088 C1097 1.390 . S
C1089 C1088 1.387 . S
C1089 C1091 1.387 . S
H1090 C1097 0.950 . S
C1091 C1089 1.387 . S
C1091 C1093 1.390 . S
C1091 H1095 0.950 . S
H1092 C1088 0.950 . S
C1093 C1091 1.390 . S
C1093 C1094 1.387 . S
C1093 H1096 0.950 . S
C1094 C1093 1.387 . S
C1094 C1097 1.387 . S
H1095 C1091 0.950 . S
H1096 C1093 0.950 . S
C1097 C1088 1.390 . S
C1097 H1090 0.950 . S
C1097 C1094 1.387 . S
C1098 C1099 1.387 . S
C1098 H1102 0.950 . S
C1098 C1107 1.390 . S
C1099 C1098 1.387 . S
C1099 C1101 1.387 . S
H1100 C1107 0.950 . S
C1101 C1099 1.387 . S
C1101 C1103 1.390 . S
C1101 H1105 0.950 . S
H1102 C1098 0.950 . S
C1103 C1101 1.390 . S
C1103 C1104 1.387 . S
C1103 H1106 0.950 . S
C1104 C1103 1.387 . S
C1104 C1107 1.387 . S
H1105 C1101 0.950 . S
H1106 C1103 0.950 . S
C1107 C1098 1.390 . S
C1107 H1100 0.950 . S
C1107 C1104 1.387 . S
C1108 C1109 1.387 . S
C1108 H1112 0.950 . S
C1108 C1117 1.390 . S
C1109 C1108 1.387 . S
C1109 C1111 1.387 . S
H1110 C1117 0.950 . S
C1111 C1109 1.387 . S
C1111 C1113 1.390 . S
C1111 H1115 0.950 . S
H1112 C1108 0.950 . S
C1113 C1111 1.390 . S
C1113 C1114 1.387 . S
C1113 H1116 0.950 . S
C1114 C1113 1.387 . S
C1114 C1117 1.387 . S
H1115 C1111 0.950 . S
H1116 C1113 0.950 . S
C1117 C1108 1.390 . S
C1117 H1110 0.950 . S
C1117 C1114 1.387 . S
C1118 C1119 1.387 . S
C1118 H1122 0.950 . S
C1118 C1127 1.390 . S
C1119 C1118 1.387 . S
C1119 C1121 1.387 . S
H1120 C1127 0.950 . S
C1121 C1119 1.387 . S
C1121 C1123 1.390 . S
C1121 H1125 0.950 . S
H1122 C1118 0.950 . S
C1123 C1121 1.390 . S
C1123 C1124 1.387 . S
C1123 H1126 0.950 . S
C1124 C1123 1.387 . S
C1124 C1127 1.387 . S
H1125 C1121 0.950 . S
H1126 C1123 0.950 . S
C1127 C1118 1.390 . S
C1127 H1120 0.950 . S
C1127 C1124 1.387 . S
C1128 C1129 1.387 . S
C1128 H1132 0.950 . S
C1128 C1137 1.390 1_556 S
C1129 C1128 1.387 . S
C1129 C1131 1.387 . S
H1130 C1137 0.950 . S
C1131 C1129 1.387 . S
C1131 C1133 1.390 1_556 S
C1131 H1135 0.950 . S
H1132 C1128 0.950 . S
C1133 C1131 1.390 1_554 S
C1133 C1134 1.387 . S
C1133 H1136 0.950 . S
C1134 C1133 1.387 . S
C1134 C1137 1.387 . S
H1135 C1131 0.950 . S
H1136 C1133 0.950 . S
C1137 C1128 1.390 1_554 S
C1137 H1130 0.950 . S
C1137 C1134 1.387 . S
C1138 C1139 1.387 . S
C1138 H1142 0.950 . S
C1138 C1147 1.390 1_556 S
C1139 C1138 1.387 . S
C1139 C1141 1.387 . S
H1140 C1147 0.950 . S
C1141 C1139 1.387 . S
C1141 C1143 1.390 1_556 S
C1141 H1145 0.950 . S
H1142 C1138 0.950 . S
C1143 C1141 1.390 1_554 S
C1143 C1144 1.387 . S
C1143 H1146 0.950 . S
C1144 C1143 1.387 . S
C1144 C1147 1.387 . S
H1145 C1141 0.950 . S
H1146 C1143 0.950 . S
C1147 C1138 1.390 1_554 S
C1147 H1140 0.950 . S
C1147 C1144 1.387 . S
C1148 C1149 1.387 . S
C1148 H1152 0.950 . S
C1148 C1157 1.390 1_556 S
C1149 C1148 1.387 . S
C1149 C1151 1.387 . S
H1150 C1157 0.950 . S
C1151 C1149 1.387 . S
C1151 C1153 1.390 1_556 S
C1151 H1155 0.950 . S
H1152 C1148 0.950 . S
C1153 C1151 1.390 1_554 S
C1153 C1154 1.387 . S
C1153 H1156 0.950 . S
C1154 C1153 1.387 . S
C1154 C1157 1.387 . S
H1155 C1151 0.950 . S
H1156 C1153 0.950 . S
C1157 C1148 1.390 1_554 S
C1157 H1150 0.950 . S
C1157 C1154 1.387 . S
C1158 C1159 1.387 . S
C1158 H1162 0.950 . S
C1158 C1167 1.390 1_556 S
C1159 C1158 1.387 . S
C1159 C1161 1.387 . S
H1160 C1167 0.950 . S
C1161 C1159 1.387 . S
C1161 C1163 1.390 1_556 S
C1161 H1165 0.950 . S
H1162 C1158 0.950 . S
C1163 C1161 1.390 1_554 S
C1163 C1164 1.387 . S
C1163 H1166 0.950 . S
C1164 C1163 1.387 . S
C1164 C1167 1.387 . S
H1165 C1161 0.950 . S
H1166 C1163 0.950 . S
C1167 C1158 1.390 1_554 S
C1167 H1160 0.950 . S
C1167 C1164 1.387 . S
C1168 C1169 1.387 . S
C1168 H1172 0.950 . S
C1168 C1177 1.390 1_655 S
C1169 C1168 1.387 . S
C1169 C1171 1.387 . S
H1170 C1177 0.950 . S
C1171 C1169 1.387 . S
C1171 C1173 1.390 1_655 S
C1171 H1175 0.950 . S
H1172 C1168 0.950 . S
C1173 C1171 1.390 1_455 S
C1173 C1174 1.387 . S
C1173 H1176 0.950 . S
C1174 C1173 1.387 . S
C1174 C1177 1.387 . S
H1175 C1171 0.950 . S
H1176 C1173 0.950 . S
C1177 C1168 1.390 1_455 S
C1177 H1170 0.950 . S
C1177 C1174 1.387 . S
C1178 C1179 1.387 . S
C1178 H1182 0.950 . S
C1178 C1187 1.390 1_565 S
C1179 C1178 1.387 . S
C1179 C1181 1.387 . S
H1180 C1187 0.950 . S
C1181 C1179 1.387 . S
C1181 C1183 1.390 1_565 S
C1181 H1185 0.950 . S
H1182 C1178 0.950 . S
C1183 C1181 1.390 1_545 S
C1183 C1184 1.387 . S
C1183 H1186 0.950 . S
C1184 C1183 1.387 . S
C1184 C1187 1.387 . S
H1185 C1181 0.950 . S
H1186 C1183 0.950 . S
C1187 C1178 1.390 1_545 S
C1187 H1180 0.950 . S
C1187 C1184 1.387 . S
C1188 C1189 1.387 . S
C1188 H1192 0.950 . S
C1188 C1197 1.390 1_655 S
C1189 C1188 1.387 . S
C1189 C1191 1.387 . S
H1190 C1197 0.950 . S
C1191 C1189 1.387 . S
C1191 C1193 1.390 1_655 S
C1191 H1195 0.950 . S
H1192 C1188 0.950 . S
C1193 C1191 1.390 1_455 S
C1193 C1194 1.387 . S
C1193 H1196 0.950 . S
C1194 C1193 1.387 . S
C1194 C1197 1.387 . S
H1195 C1191 0.950 . S
H1196 C1193 0.950 . S
C1197 C1188 1.390 1_455 S
C1197 H1190 0.950 . S
C1197 C1194 1.387 . S
C1198 C1199 1.387 . S
C1198 H1202 0.950 . S
C1198 C1207 1.390 1_545 S
C1199 C1198 1.387 . S
C1199 C1201 1.387 . S
H1200 C1207 0.950 . S
C1201 C1199 1.387 . S
C1201 C1203 1.390 1_545 S
C1201 H1205 0.950 . S
H1202 C1198 0.950 . S
C1203 C1201 1.390 1_565 S
C1203 C1204 1.387 . S
C1203 H1206 0.950 . S
C1204 C1203 1.387 . S
C1204 C1207 1.387 . S
H1205 C1201 0.950 . S
H1206 C1203 0.950 . S
C1207 C1198 1.390 1_565 S
C1207 H1200 0.950 . S
C1207 C1204 1.387 . S
C1208 C1209 1.387 . S
C1208 H1212 0.950 . S
C1208 C1217 1.390 1_565 S
C1209 C1208 1.387 . S
C1209 C1211 1.387 . S
H1210 C1217 0.950 . S
C1211 C1209 1.387 . S
C1211 C1213 1.390 1_565 S
C1211 H1215 0.950 . S
H1212 C1208 0.950 . S
C1213 C1211 1.390 1_545 S
C1213 C1214 1.387 . S
C1213 H1216 0.950 . S
C1214 C1213 1.387 . S
C1214 C1217 1.387 . S
H1215 C1211 0.950 . S
H1216 C1213 0.950 . S
C1217 C1208 1.390 1_545 S
C1217 H1210 0.950 . S
C1217 C1214 1.387 . S
C1218 C1219 1.387 . S
C1218 H1222 0.950 . S
C1218 C1227 1.390 1_455 S
C1219 C1218 1.387 . S
C1219 C1221 1.387 . S
H1220 C1227 0.950 . S
C1221 C1219 1.387 . S
C1221 C1223 1.390 1_455 S
C1221 H1225 0.950 . S
H1222 C1218 0.950 . S
C1223 C1221 1.390 1_655 S
C1223 C1224 1.387 . S
C1223 H1226 0.950 . S
C1224 C1223 1.387 . S
C1224 C1227 1.387 . S
H1225 C1221 0.950 . S
H1226 C1223 0.950 . S
C1227 C1218 1.390 1_655 S
C1227 H1220 0.950 . S
C1227 C1224 1.387 . S
C1228 C1229 1.387 . S
C1228 H1232 0.950 . S
C1228 C1237 1.390 1_565 S
C1229 C1228 1.387 . S
C1229 C1231 1.387 . S
H1230 C1237 0.950 . S
C1231 C1229 1.387 . S
C1231 C1233 1.390 1_565 S
C1231 H1235 0.950 . S
H1232 C1228 0.950 . S
C1233 C1231 1.390 1_545 S
C1233 C1234 1.387 . S
C1233 H1236 0.950 . S
C1234 C1233 1.387 . S
C1234 C1237 1.387 . S
H1235 C1231 0.950 . S
H1236 C1233 0.950 . S
C1237 C1228 1.390 1_545 S
C1237 H1230 0.950 . S
C1237 C1234 1.387 . S
C1238 C1239 1.387 . S
C1238 H1242 0.950 . S
C1238 C1247 1.390 1_455 S
C1239 C1238 1.387 . S
C1239 C1241 1.387 . S
H1240 C1247 0.950 . S
C1241 C1239 1.387 . S
C1241 C1243 1.390 1_455 S
C1241 H1245 0.950 . S
H1242 C1238 0.950 . S
C1243 C1241 1.390 1_655 S
C1243 C1244 1.387 . S
C1243 H1246 0.950 . S
C1244 C1243 1.387 . S
C1244 C1247 1.387 . S
H1245 C1241 0.950 . S
H1246 C1243 0.950 . S
C1247 C1238 1.390 1_655 S
C1247 H1240 0.950 . S
C1247 C1244 1.387 . S
C1248 C1249 1.387 . S
C1248 H1252 0.950 . S
C1248 C1257 1.390 . S
C1249 C1248 1.387 . S
C1249 C1251 1.387 1_455 S
H1250 C1257 0.950 . S
C1251 C1249 1.387 1_655 S
C1251 C1253 1.390 . S
C1251 H1255 0.950 . S
H1252 C1248 0.950 . S
C1253 C1251 1.390 . S
C1253 C1254 1.387 1_655 S
C1253 H1256 0.950 . S
C1254 C1253 1.387 1_455 S
C1254 C1257 1.387 . S
H1255 C1251 0.950 . S
H1256 C1253 0.950 . S
C1257 C1248 1.390 . S
C1257 H1250 0.950 . S
C1257 C1254 1.387 . S
C1258 C1259 1.387 . S
C1258 H1262 0.950 . S
C1258 C1267 1.390 . S
C1259 C1258 1.387 . S
C1259 C1261 1.387 1_545 S
H1260 C1267 0.950 . S
C1261 C1259 1.387 1_565 S
C1261 C1263 1.390 . S
C1261 H1265 0.950 . S
H1262 C1258 0.950 . S
C1263 C1261 1.390 . S
C1263 C1264 1.387 1_565 S
C1263 H1266 0.950 . S
C1264 C1263 1.387 1_545 S
C1264 C1267 1.387 . S
H1265 C1261 0.950 . S
H1266 C1263 0.950 . S
C1267 C1258 1.390 . S
C1267 H1260 0.950 . S
C1267 C1264 1.387 . S
C1268 C1269 1.387 . S
C1268 H1272 0.950 . S
C1268 C1277 1.390 . S
C1269 C1268 1.387 . S
C1269 C1271 1.387 1_455 S
H1270 C1277 0.950 . S
C1271 C1269 1.387 1_655 S
C1271 C1273 1.390 . S
C1271 H1275 0.950 . S
H1272 C1268 0.950 . S
C1273 C1271 1.390 . S
C1273 C1274 1.387 1_655 S
C1273 H1276 0.950 . S
C1274 C1273 1.387 1_455 S
C1274 C1277 1.387 . S
H1275 C1271 0.950 . S
H1276 C1273 0.950 . S
C1277 C1268 1.390 . S
C1277 H1270 0.950 . S
C1277 C1274 1.387 . S
C1278 C1279 1.387 . S
C1278 H1282 0.950 . S
C1278 C1287 1.390 . S
C1279 C1278 1.387 . S
C1279 C1281 1.387 1_545 S
H1280 C1287 0.950 . S
C1281 C1279 1.387 1_565 S
C1281 C1283 1.390 . S
C1281 H1285 0.950 . S
H1282 C1278 0.950 . S
C1283 C1281 1.390 . S
C1283 C1284 1.387 1_565 S
C1283 H1286 0.950 . S
C1284 C1283 1.387 1_545 S
C1284 C1287 1.387 . S
H1285 C1281 0.950 . S
H1286 C1283 0.950 . S
C1287 C1278 1.390 . S
C1287 H1280 0.950 . S
C1287 C1284 1.387 . S
C1288 C1289 1.387 . S
C1288 H1292 0.950 . S
C1288 C1297 1.390 . S
C1289 C1288 1.387 . S
C1289 C1291 1.387 1_455 S
H1290 C1297 0.950 . S
C1291 C1289 1.387 1_655 S
C1291 C1293 1.390 . S
C1291 H1295 0.950 . S
H1292 C1288 0.950 . S
C1293 C1291 1.390 . S
C1293 C1294 1.387 1_655 S
C1293 H1296 0.950 . S
C1294 C1293 1.387 1_455 S
C1294 C1297 1.387 . S
H1295 C1291 0.950 . S
H1296 C1293 0.950 . S
C1297 C1288 1.390 . S
C1297 H1290 0.950 . S
C1297 C1294 1.387 . S
C1298 C1299 1.387 1_565 S
C1298 H1302 0.950 . S
C1298 C1307 1.390 . S
C1299 C1298 1.387 1_545 S
C1299 C1301 1.387 . S
H1300 C1307 0.950 . S
C1301 C1299 1.387 . S
C1301 C1303 1.390 . S
C1301 H1305 0.950 . S
H1302 C1298 0.950 . S
C1303 C1301 1.390 . S
C1303 C1304 1.387 . S
C1303 H1306 0.950 . S
C1304 C1303 1.387 . S
C1304 C1307 1.387 1_545 S
H1305 C1301 0.950 . S
H1306 C1303 0.950 . S
C1307 C1298 1.390 . S
C1307 H1300 0.950 . S
C1307 C1304 1.387 1_565 S
C1308 C1309 1.387 . S
C1308 H1312 0.950 . S
C1308 C1317 1.390 . S
C1309 C1308 1.387 . S
C1309 C1311 1.387 1_455 S
H1310 C1317 0.950 . S
C1311 C1309 1.387 1_655 S
C1311 C1313 1.390 . S
C1311 H1315 0.950 . S
H1312 C1308 0.950 . S
C1313 C1311 1.390 . S
C1313 C1314 1.387 1_655 S
C1313 H1316 0.950 . S
C1314 C1313 1.387 1_455 S
C1314 C1317 1.387 . S
H1315 C1311 0.950 . S
H1316 C1313 0.950 . S
C1317 C1308 1.390 . S
C1317 H1310 0.950 . S
C1317 C1314 1.387 . S
C1318 C1319 1.387 . S
C1318 H1322 0.950 . S
C1318 C1327 1.390 . S
C1319 C1318 1.387 . S
C1319 C1321 1.387 1_545 S
H1320 C1327 0.950 . S
C1321 C1319 1.387 1_565 S
C1321 C1323 1.390 . S
C1321 H1325 0.950 . S
H1322 C1318 0.950 . S
C1323 C1321 1.390 . S
C1323 C1324 1.387 1_565 S
C1323 H1326 0.950 . S
C1324 C1323 1.387 1_545 S
C1324 C1327 1.387 . S
H1325 C1321 0.950 . S
H1326 C1323 0.950 . S
C1327 C1318 1.390 . S
C1327 H1320 0.950 . S
C1327 C1324 1.387 . S
C1328 C1329 1.387 1_556 S
C1328 H1332 0.950 . S
C1328 C1337 1.390 . S
C1329 C1328 1.387 1_554 S
C1329 C1331 1.387 . S
H1330 C1337 0.950 . S
C1331 C1329 1.387 . S
C1331 C1333 1.390 . S
C1331 H1335 0.950 . S
H1332 C1328 0.950 . S
C1333 C1331 1.390 . S
C1333 C1334 1.387 . S
C1333 H1336 0.950 . S
C1334 C1333 1.387 . S
C1334 C1337 1.387 1_554 S
H1335 C1331 0.950 . S
H1336 C1333 0.950 . S
C1337 C1328 1.390 . S
C1337 H1330 0.950 . S
C1337 C1334 1.387 1_556 S
C1338 C1339 1.387 . S
C1338 H1342 0.950 . S
C1338 C1347 1.390 . S
C1339 C1338 1.387 . S
C1339 C1341 1.387 1_554 S
H1340 C1347 0.950 . S
C1341 C1339 1.387 1_556 S
C1341 C1343 1.390 . S
C1341 H1345 0.950 . S
H1342 C1338 0.950 . S
C1343 C1341 1.390 . S
C1343 C1344 1.387 1_556 S
C1343 H1346 0.950 . S
C1344 C1343 1.387 1_554 S
C1344 C1347 1.387 . S
H1345 C1341 0.950 . S
H1346 C1343 0.950 . S
C1347 C1338 1.390 . S
C1347 H1340 0.950 . S
C1347 C1344 1.387 . S
C1348 C1349 1.387 . S
C1348 H1352 0.950 . S
C1348 C1357 1.390 . S
C1349 C1348 1.387 . S
C1349 C1351 1.387 1_554 S
H1350 C1357 0.950 . S
C1351 C1349 1.387 1_556 S
C1351 C1353 1.390 . S
C1351 H1355 0.950 . S
H1352 C1348 0.950 . S
C1353 C1351 1.390 . S
C1353 C1354 1.387 1_556 S
C1353 H1356 0.950 . S
C1354 C1353 1.387 1_554 S
C1354 C1357 1.387 . S
H1355 C1351 0.950 . S
H1356 C1353 0.950 . S
C1357 C1348 1.390 . S
C1357 H1350 0.950 . S
C1357 C1354 1.387 . S
C1358 C1359 1.387 . S
C1358 H1362 0.950 . S
C1358 C1367 1.390 . S
C1359 C1358 1.387 . S
C1359 C1361 1.387 1_554 S
H1360 C1367 0.950 . S
C1361 C1359 1.387 1_556 S
C1361 C1363 1.390 . S
C1361 H1365 0.950 . S
H1362 C1358 0.950 . S
C1363 C1361 1.390 . S
C1363 C1364 1.387 1_556 S
C1363 H1366 0.950 . S
C1364 C1363 1.387 1_554 S
C1364 C1367 1.387 . S
H1365 C1361 0.950 . S
H1366 C1363 0.950 . S
C1367 C1358 1.390 . S
C1367 H1360 0.950 . S
C1367 C1364 1.387 . S
C1368 C1369 1.387 . S
C1368 H1372 0.950 . S
C1368 C1377 1.390 . S
C1369 C1368 1.387 . S
C1369 C1371 1.387 . S
H1370 C1377 0.950 . S
C1371 C1369 1.387 . S
C1371 C1373 1.390 . S
C1371 H1375 0.950 . S
H1372 C1368 0.950 . S
C1373 C1371 1.390 . S
C1373 C1374 1.387 . S
C1373 H1376 0.950 . S
C1374 C1373 1.387 . S
C1374 C1377 1.387 . S
H1375 C1371 0.950 . S
H1376 C1373 0.950 . S
C1377 C1368 1.390 . S
C1377 H1370 0.950 . S
C1377 C1374 1.387 . S
C1378 C1379 1.387 . S
C1378 H1382 0.950 . S
C1378 C1387 1.390 . S
C1379 C1378 1.387 . S
C1379 C1381 1.387 . S
H1380 C1387 0.950 . S
C1381 C1379 1.387 . S
C1381 C1383 1.390 . S
C1381 H1385 0.950 . S
H1382 C1378 0.950 . S
C1383 C1381 1.390 . S
C1383 C1384 1.387 . S
C1383 H1386 0.950 . S
C1384 C1383 1.387 . S
C1384 C1387 1.387 . S
H1385 C1381 0.950 . S
H1386 C1383 0.950 . S
C1387 C1378 1.390 . S
C1387 H1380 0.950 . S
C1387 C1384 1.387 . S
C1388 C1389 1.387 . S
C1388 H1392 0.950 . S
C1388 C1397 1.390 . S
C1389 C1388 1.387 . S
C1389 C1391 1.387 . S
H1390 C1397 0.950 . S
C1391 C1389 1.387 . S
C1391 C1393 1.390 . S
C1391 H1395 0.950 . S
H1392 C1388 0.950 . S
C1393 C1391 1.390 . S
C1393 C1394 1.387 . S
C1393 H1396 0.950 . S
C1394 C1393 1.387 . S
C1394 C1397 1.387 . S
H1395 C1391 0.950 . S
H1396 C1393 0.950 . S
C1397 C1388 1.390 . S
C1397 H1390 0.950 . S
C1397 C1394 1.387 . S
C1398 C1399 1.387 . S
C1398 H1402 0.950 . S
C1398 C1407 1.390 . S
C1399 C1398 1.387 . S
C1399 C1401 1.387 . S
H1400 C1407 0.950 . S
C1401 C1399 1.387 . S
C1401 C1403 1.390 . S
C1401 H1405 0.950 . S
H1402 C1398 0.950 . S
C1403 C1401 1.390 . S
C1403 C1404 1.387 . S
C1403 H1406 0.950 . S
C1404 C1403 1.387 . S
C1404 C1407 1.387 . S
H1405 C1401 0.950 . S
H1406 C1403 0.950 . S
C1407 C1398 1.390 . S
C1407 H1400 0.950 . S
C1407 C1404 1.387 . S
C1408 C1409 1.387 . S
C1408 H1412 0.950 . S
C1408 C1417 1.390 . S
C1409 C1408 1.387 . S
C1409 C1411 1.387 . S
H1410 C1417 0.950 . S
C1411 C1409 1.387 . S
C1411 C1413 1.390 . S
C1411 H1415 0.950 . S
H1412 C1408 0.950 . S
C1413 C1411 1.390 . S
C1413 C1414 1.387 . S
C1413 H1416 0.950 . S
C1414 C1413 1.387 . S
C1414 C1417 1.387 . S
H1415 C1411 0.950 . S
H1416 C1413 0.950 . S
C1417 C1408 1.390 . S
C1417 H1410 0.950 . S
C1417 C1414 1.387 . S
C1418 C1419 1.387 . S
C1418 H1422 0.950 . S
C1418 C1427 1.390 . S
C1419 C1418 1.387 . S
C1419 C1421 1.387 . S
H1420 C1427 0.950 . S
C1421 C1419 1.387 . S
C1421 C1423 1.390 . S
C1421 H1425 0.950 . S
H1422 C1418 0.950 . S
C1423 C1421 1.390 . S
C1423 C1424 1.387 . S
C1423 H1426 0.950 . S
C1424 C1423 1.387 . S
C1424 C1427 1.387 . S
H1425 C1421 0.950 . S
H1426 C1423 0.950 . S
C1427 C1418 1.390 . S
C1427 H1420 0.950 . S
C1427 C1424 1.387 . S
C1428 C1429 1.387 . S
C1428 H1432 0.950 . S
C1428 C1437 1.390 . S
C1429 C1428 1.387 . S
C1429 C1431 1.387 . S
H1430 C1437 0.950 . S
C1431 C1429 1.387 . S
C1431 C1433 1.390 . S
C1431 H1435 0.950 . S
H1432 C1428 0.950 . S
C1433 C1431 1.390 . S
C1433 C1434 1.387 . S
C1433 H1436 0.950 . S
C1434 C1433 1.387 . S
C1434 C1437 1.387 . S
H1435 C1431 0.950 . S
H1436 C1433 0.950 . S
C1437 C1428 1.390 . S
C1437 H1430 0.950 . S
C1437 C1434 1.387 . S
C1438 C1439 1.387 . S
C1438 H1442 0.950 . S
C1438 C1447 1.390 . S
C1439 C1438 1.387 . S
C1439 C1441 1.387 . S
H1440 C1447 0.950 . S
C1441 C1439 1.387 . S
C1441 C1443 1.390 . S
C1441 H1445 0.950 . S
H1442 C1438 0.950 . S
C1443 C1441 1.390 . S
C1443 C1444 1.387 . S
C1443 H1446 0.950 . S
C1444 C1443 1.387 . S
C1444 C1447 1.387 . S
H1445 C1441 0.950 . S
H1446 C1443 0.950 . S
C1447 C1438 1.390 . S
C1447 H1440 0.950 . S
C1447 C1444 1.387 . S
C1448 C1449 1.387 . S
C1448 H1452 0.950 . S
C1448 C1457 1.390 . S
C1449 C1448 1.387 . S
C1449 C1451 1.387 . S
H1450 C1457 0.950 . S
C1451 C1449 1.387 . S
C1451 C1453 1.390 . S
C1451 H1455 0.950 . S
H1452 C1448 0.950 . S
C1453 C1451 1.390 . S
C1453 C1454 1.387 . S
C1453 H1456 0.950 . S
C1454 C1453 1.387 . S
C1454 C1457 1.387 . S
H1455 C1451 0.950 . S
H1456 C1453 0.950 . S
C1457 C1448 1.390 . S
C1457 H1450 0.950 . S
C1457 C1454 1.387 . S
C1458 C1459 1.387 . S
C1458 H1462 0.950 . S
C1458 C1467 1.390 . S
C1459 C1458 1.387 . S
C1459 C1461 1.387 . S
H1460 C1467 0.950 . S
C1461 C1459 1.387 . S
C1461 C1463 1.390 . S
C1461 H1465 0.950 . S
H1462 C1458 0.950 . S
C1463 C1461 1.390 . S
C1463 C1464 1.387 . S
C1463 H1466 0.950 . S
C1464 C1463 1.387 . S
C1464 C1467 1.387 . S
H1465 C1461 0.950 . S
H1466 C1463 0.950 . S
C1467 C1458 1.390 . S
C1467 H1460 0.950 . S
C1467 C1464 1.387 . S
C1468 C1469 1.387 . S
C1468 H1472 0.950 . S
C1468 C1477 1.390 . S
C1469 C1468 1.387 . S
C1469 C1471 1.387 . S
H1470 C1477 0.950 . S
C1471 C1469 1.387 . S
C1471 C1473 1.390 . S
C1471 H1475 0.950 . S
H1472 C1468 0.950 . S
C1473 C1471 1.390 . S
C1473 C1474 1.387 . S
C1473 H1476 0.950 . S
C1474 C1473 1.387 . S
C1474 C1477 1.387 . S
H1475 C1471 0.950 . S
H1476 C1473 0.950 . S
C1477 C1468 1.390 . S
C1477 H1470 0.950 . S
C1477 C1474 1.387 . S
C1478 C1479 1.387 . S
C1478 H1482 0.950 . S
C1478 C1487 1.390 . S
C1479 C1478 1.387 . S
C1479 C1481 1.387 . S
H1480 C1487 0.950 . S
C1481 C1479 1.387 . S
C1481 C1483 1.390 . S
C1481 H1485 0.950 . S
H1482 C1478 0.950 . S
C1483 C1481 1.390 . S
C1483 C1484 1.387 . S
C1483 H1486 0.950 . S
C1484 C1483 1.387 . S
C1484 C1487 1.387 . S
H1485 C1481 0.950 . S
H1486 C1483 0.950 . S
C1487 C1478 1.390 . S
C1487 H1480 0.950 . S
C1487 C1484 1.387 . S
C1488 C1489 1.387 . S
C1488 H1492 0.950 . S
C1488 C1497 1.390 . S
C1489 C1488 1.387 . S
C1489 C1491 1.387 . S
H1490 C1497 0.950 . S
C1491 C1489 1.387 . S
C1491 C1493 1.390 . S
C1491 H1495 0.950 . S
H1492 C1488 0.950 . S
C1493 C1491 1.390 . S
C1493 C1494 1.387 . S
C1493 H1496 0.950 . S
C1494 C1493 1.387 . S
C1494 C1497 1.387 . S
H1495 C1491 0.950 . S
H1496 C1493 0.950 . S
C1497 C1488 1.390 . S
C1497 H1490 0.950 . S
C1497 C1494 1.387 . S
C1498 C1499 1.387 . S
C1498 H1502 0.950 . S
C1498 C1507 1.390 . S
C1499 C1498 1.387 . S
C1499 C1501 1.387 . S
H1500 C1507 0.950 . S
C1501 C1499 1.387 . S
C1501 C1503 1.390 . S
C1501 H1505 0.950 . S
H1502 C1498 0.950 . S
C1503 C1501 1.390 . S
C1503 C1504 1.387 . S
C1503 H1506 0.950 . S
C1504 C1503 1.387 . S
C1504 C1507 1.387 . S
H1505 C1501 0.950 . S
H1506 C1503 0.950 . S
C1507 C1498 1.390 . S
C1507 H1500 0.950 . S
C1507 C1504 1.387 . S
C1508 C1509 1.387 . S
C1508 H1512 0.950 . S
C1508 C1517 1.390 . S
C1509 C1508 1.387 . S
C1509 C1511 1.387 . S
H1510 C1517 0.950 . S
C1511 C1509 1.387 . S
C1511 C1513 1.390 . S
C1511 H1515 0.950 . S
H1512 C1508 0.950 . S
C1513 C1511 1.390 . S
C1513 C1514 1.387 . S
C1513 H1516 0.950 . S
C1514 C1513 1.387 . S
C1514 C1517 1.387 . S
H1515 C1511 0.950 . S
H1516 C1513 0.950 . S
C1517 C1508 1.390 . S
C1517 H1510 0.950 . S
C1517 C1514 1.387 . S
C1518 C1519 1.387 . S
C1518 H1522 0.950 . S
C1518 C1527 1.390 . S
C1519 C1518 1.387 . S
C1519 C1521 1.387 . S
H1520 C1527 0.950 . S
C1521 C1519 1.387 . S
C1521 C1523 1.390 . S
C1521 H1525 0.950 . S
H1522 C1518 0.950 . S
C1523 C1521 1.390 . S
C1523 C1524 1.387 . S
C1523 H1526 0.950 . S
C1524 C1523 1.387 . S
C1524 C1527 1.387 . S
H1525 C1521 0.950 . S
H1526 C1523 0.950 . S
C1527 C1518 1.390 . S
C1527 H1520 0.950 . S
C1527 C1524 1.387 . S
C1528 C1529 1.387 . S
C1528 H1532 0.950 . S
C1528 C1537 1.390 . S
C1529 C1528 1.387 . S
C1529 C1531 1.387 . S
H1530 C1537 0.950 . S
C1531 C1529 1.387 . S
C1531 C1533 1.390 . S
C1531 H1535 0.950 . S
H1532 C1528 0.950 . S
C1533 C1531 1.390 . S
C1533 C1534 1.387 . S
C1533 H1536 0.950 . S
C1534 C1533 1.387 . S
C1534 C1537 1.387 . S
H1535 C1531 0.950 . S
H1536 C1533 0.950 . S
C1537 C1528 1.390 . S
C1537 H1530 0.950 . S
C1537 C1534 1.387 . S
C1538 C1539 1.387 . S
C1538 H1542 0.950 . S
C1538 C1547 1.390 . S
C1539 C1538 1.387 . S
C1539 C1541 1.387 . S
H1540 C1547 0.950 . S
C1541 C1539 1.387 . S
C1541 C1543 1.390 . S
C1541 H1545 0.950 . S
H1542 C1538 0.950 . S
C1543 C1541 1.390 . S
C1543 C1544 1.387 . S
C1543 H1546 0.950 . S
C1544 C1543 1.387 . S
C1544 C1547 1.387 . S
H1545 C1541 0.950 . S
H1546 C1543 0.950 . S
C1547 C1538 1.390 . S
C1547 H1540 0.950 . S
C1547 C1544 1.387 . S
C1548 C1549 1.387 . S
C1548 H1552 0.950 . S
C1548 C1557 1.390 . S
C1549 C1548 1.387 . S
C1549 C1551 1.387 . S
H1550 C1557 0.950 . S
C1551 C1549 1.387 . S
C1551 C1553 1.390 . S
C1551 H1555 0.950 . S
H1552 C1548 0.950 . S
C1553 C1551 1.390 . S
C1553 C1554 1.387 . S
C1553 H1556 0.950 . S
C1554 C1553 1.387 . S
C1554 C1557 1.387 . S
H1555 C1551 0.950 . S
H1556 C1553 0.950 . S
C1557 C1548 1.390 . S
C1557 H1550 0.950 . S
C1557 C1554 1.387 . S
C1558 C1559 1.387 . S
C1558 H1562 0.950 . S
C1558 C1567 1.390 . S
C1559 C1558 1.387 . S
C1559 C1561 1.387 . S
H1560 C1567 0.950 . S
C1561 C1559 1.387 . S
C1561 C1563 1.390 . S
C1561 H1565 0.950 . S
H1562 C1558 0.950 . S
C1563 C1561 1.390 . S
C1563 C1564 1.387 . S
C1563 H1566 0.950 . S
C1564 C1563 1.387 . S
C1564 C1567 1.387 . S
H1565 C1561 0.950 . S
H1566 C1563 0.950 . S
C1567 C1558 1.390 . S
C1567 H1560 0.950 . S
C1567 C1564 1.387 . S
C1568 C1569 1.387 . S
C1568 H1572 0.950 . S
C1568 C1577 1.390 . S
C1569 C1568 1.387 . S
C1569 C1571 1.387 . S
H1570 C1577 0.950 . S
C1571 C1569 1.387 . S
C1571 C1573 1.390 . S
C1571 H1575 0.950 . S
H1572 C1568 0.950 . S
C1573 C1571 1.390 . S
C1573 C1574 1.387 . S
C1573 H1576 0.950 . S
C1574 C1573 1.387 . S
C1574 C1577 1.387 . S
H1575 C1571 0.950 . S
H1576 C1573 0.950 . S
C1577 C1568 1.390 . S
C1577 H1570 0.950 . S
C1577 C1574 1.387 . S
C1578 C1579 1.387 . S
C1578 H1582 0.950 . S
C1578 C1587 1.390 . S
C1579 C1578 1.387 . S
C1579 C1581 1.387 . S
H1580 C1587 0.950 . S
C1581 C1579 1.387 . S
C1581 C1583 1.390 . S
C1581 H1585 0.950 . S
H1582 C1578 0.950 . S
C1583 C1581 1.390 . S
C1583 C1584 1.387 . S
C1583 H1586 0.950 . S
C1584 C1583 1.387 . S
C1584 C1587 1.387 . S
H1585 C1581 0.950 . S
H1586 C1583 0.950 . S
C1587 C1578 1.390 . S
C1587 H1580 0.950 . S
C1587 C1584 1.387 . S
C1588 C1589 1.387 . S
C1588 H1592 0.950 . S
C1588 C1597 1.390 . S
C1589 C1588 1.387 . S
C1589 C1591 1.387 . S
H1590 C1597 0.950 . S
C1591 C1589 1.387 . S
C1591 C1593 1.390 . S
C1591 H1595 0.950 . S
H1592 C1588 0.950 . S
C1593 C1591 1.390 . S
C1593 C1594 1.387 . S
C1593 H1596 0.950 . S
C1594 C1593 1.387 . S
C1594 C1597 1.387 . S
H1595 C1591 0.950 . S
H1596 C1593 0.950 . S
C1597 C1588 1.390 . S
C1597 H1590 0.950 . S
C1597 C1594 1.387 . S
C1598 C1599 1.387 . S
C1598 H1602 0.950 . S
C1598 C1607 1.390 . S
C1599 C1598 1.387 . S
C1599 C1601 1.387 . S
H1600 C1607 0.950 . S
C1601 C1599 1.387 . S
C1601 C1603 1.390 . S
C1601 H1605 0.950 . S
H1602 C1598 0.950 . S
C1603 C1601 1.390 . S
C1603 C1604 1.387 . S
C1603 H1606 0.950 . S
C1604 C1603 1.387 . S
C1604 C1607 1.387 . S
H1605 C1601 0.950 . S
H1606 C1603 0.950 . S
C1607 C1598 1.390 . S
C1607 H1600 0.950 . S
C1607 C1604 1.387 . S
C1608 C1609 1.387 . S
C1608 H1612 0.950 . S
C1608 C1617 1.390 . S
C1609 C1608 1.387 . S
C1609 C1611 1.387 . S
H1610 C1617 0.950 . S
C1611 C1609 1.387 . S
C1611 C1613 1.390 . S
C1611 H1615 0.950 . S
H1612 C1608 0.950 . S
C1613 C1611 1.390 . S
C1613 C1614 1.387 . S
C1613 H1616 0.950 . S
C1614 C1613 1.387 . S
C1614 C1617 1.387 . S
H1615 C1611 0.950 . S
H1616 C1613 0.950 . S
C1617 C1608 1.390 . S
C1617 H1610 0.950 . S
C1617 C1614 1.387 . S
C1618 C1619 1.387 . S
C1618 H1622 0.950 . S
C1618 C1627 1.390 . S
C1619 C1618 1.387 . S
C1619 C1621 1.387 . S
H1620 C1627 0.950 . S
C1621 C1619 1.387 . S
C1621 C1623 1.390 . S
C1621 H1625 0.950 . S
H1622 C1618 0.950 . S
C1623 C1621 1.390 . S
C1623 C1624 1.387 . S
C1623 H1626 0.950 . S
C1624 C1623 1.387 . S
C1624 C1627 1.387 . S
H1625 C1621 0.950 . S
H1626 C1623 0.950 . S
C1627 C1618 1.390 . S
C1627 H1620 0.950 . S
C1627 C1624 1.387 . S
C1628 C1629 1.387 . S
C1628 H1632 0.950 . S
C1628 C1637 1.390 . S
C1629 C1628 1.387 . S
C1629 C1631 1.387 . S
H1630 C1637 0.950 . S
C1631 C1629 1.387 . S
C1631 C1633 1.390 . S
C1631 H1635 0.950 . S
H1632 C1628 0.950 . S
C1633 C1631 1.390 . S
C1633 C1634 1.387 . S
C1633 H1636 0.950 . S
C1634 C1633 1.387 . S
C1634 C1637 1.387 . S
H1635 C1631 0.950 . S
H1636 C1633 0.950 . S
C1637 C1628 1.390 . S
C1637 H1630 0.950 . S
C1637 C1634 1.387 . S
C1638 C1639 1.387 . S
C1638 H1642 0.950 . S
C1638 C1647 1.390 . S
C1639 C1638 1.387 . S
C1639 C1641 1.387 . S
H1640 C1647 0.950 . S
C1641 C1639 1.387 . S
C1641 C1643 1.390 . S
C1641 H1645 0.950 . S
H1642 C1638 0.950 . S
C1643 C1641 1.390 . S
C1643 C1644 1.387 . S
C1643 H1646 0.950 . S
C1644 C1643 1.387 . S
C1644 C1647 1.387 . S
H1645 C1641 0.950 . S
H1646 C1643 0.950 . S
C1647 C1638 1.390 . S
C1647 H1640 0.950 . S
C1647 C1644 1.387 . S
C1648 C1649 1.387 . S
C1648 H1652 0.950 . S
C1648 C1657 1.390 . S
C1649 C1648 1.387 . S
C1649 C1651 1.387 . S
H1650 C1657 0.950 . S
C1651 C1649 1.387 . S
C1651 C1653 1.390 . S
C1651 H1655 0.950 . S
H1652 C1648 0.950 . S
C1653 C1651 1.390 . S
C1653 C1654 1.387 . S
C1653 H1656 0.950 . S
C1654 C1653 1.387 . S
C1654 C1657 1.387 . S
H1655 C1651 0.950 . S
H1656 C1653 0.950 . S
C1657 C1648 1.390 . S
C1657 H1650 0.950 . S
C1657 C1654 1.387 . S
C1658 C1659 1.387 . S
C1658 H1662 0.950 . S
C1658 C1667 1.390 . S
C1659 C1658 1.387 . S
C1659 C1661 1.387 . S
H1660 C1667 0.950 . S
C1661 C1659 1.387 . S
C1661 C1663 1.390 . S
C1661 H1665 0.950 . S
H1662 C1658 0.950 . S
C1663 C1661 1.390 . S
C1663 C1664 1.387 . S
C1663 H1666 0.950 . S
C1664 C1663 1.387 . S
C1664 C1667 1.387 . S
H1665 C1661 0.950 . S
H1666 C1663 0.950 . S
C1667 C1658 1.390 . S
C1667 H1660 0.950 . S
C1667 C1664 1.387 . S
C1668 C1669 1.387 . S
C1668 H1672 0.950 . S
C1668 C1677 1.390 . S
C1669 C1668 1.387 . S
C1669 C1671 1.387 . S
H1670 C1677 0.950 . S
C1671 C1669 1.387 . S
C1671 C1673 1.390 . S
C1671 H1675 0.950 . S
H1672 C1668 0.950 . S
C1673 C1671 1.390 . S
C1673 C1674 1.387 . S
C1673 H1676 0.950 . S
C1674 C1673 1.387 . S
C1674 C1677 1.387 . S
H1675 C1671 0.950 . S
H1676 C1673 0.950 . S
C1677 C1668 1.390 . S
C1677 H1670 0.950 . S
C1677 C1674 1.387 . S
C1678 C1679 1.387 . S
C1678 H1682 0.950 . S
C1678 C1687 1.390 . S
C1679 C1678 1.387 . S
C1679 C1681 1.387 . S
H1680 C1687 0.950 . S
C1681 C1679 1.387 . S
C1681 C1683 1.390 . S
C1681 H1685 0.950 . S
H1682 C1678 0.950 . S
C1683 C1681 1.390 . S
C1683 C1684 1.387 . S
C1683 H1686 0.950 . S
C1684 C1683 1.387 . S
C1684 C1687 1.387 . S
H1685 C1681 0.950 . S
H1686 C1683 0.950 . S
C1687 C1678 1.390 . S
C1687 H1680 0.950 . S
C1687 C1684 1.387 . S
C1688 C1689 1.387 . S
C1688 H1692 0.950 . S
C1688 C1697 1.390 . S
C1689 C1688 1.387 . S
C1689 C1691 1.387 . S
H1690 C1697 0.950 . S
C1691 C1689 1.387 . S
C1691 C1693 1.390 . S
C1691 H1695 0.950 . S
H1692 C1688 0.950 . S
C1693 C1691 1.390 . S
C1693 C1694 1.387 . S
C1693 H1696 0.950 . S
C1694 C1693 1.387 . S
C1694 C1697 1.387 . S
H1695 C1691 0.950 . S
H1696 C1693 0.950 . S
C1697 C1688 1.390 . S
C1697 H1690 0.950 . S
C1697 C1694 1.387 . S
C1698 C1699 1.387 . S
C1698 H1702 0.950 . S
C1698 C1707 1.390 . S
C1699 C1698 1.387 . S
C1699 C1701 1.387 . S
H1700 C1707 0.950 . S
C1701 C1699 1.387 . S
C1701 C1703 1.390 . S
C1701 H1705 0.950 . S
H1702 C1698 0.950 . S
C1703 C1701 1.390 . S
C1703 C1704 1.387 . S
C1703 H1706 0.950 . S
C1704 C1703 1.387 . S
C1704 C1707 1.387 . S
H1705 C1701 0.950 . S
H1706 C1703 0.950 . S
C1707 C1698 1.390 . S
C1707 H1700 0.950 . S
C1707 C1704 1.387 . S
C1708 C1709 1.387 . S
C1708 H1712 0.950 . S
C1708 C1717 1.390 . S
C1709 C1708 1.387 . S
C1709 C1711 1.387 . S
H1710 C1717 0.950 . S
C1711 C1709 1.387 . S
C1711 C1713 1.390 . S
C1711 H1715 0.950 . S
H1712 C1708 0.950 . S
C1713 C1711 1.390 . S
C1713 C1714 1.387 . S
C1713 H1716 0.950 . S
C1714 C1713 1.387 . S
C1714 C1717 1.387 . S
H1715 C1711 0.950 . S
H1716 C1713 0.950 . S
C1717 C1708 1.390 . S
C1717 H1710 0.950 . S
C1717 C1714 1.387 . S
C1718 C1719 1.387 . S
C1718 H1722 0.950 . S
C1718 C1727 1.390 . S
C1719 C1718 1.387 . S
C1719 C1721 1.387 . S
H1720 C1727 0.950 . S
C1721 C1719 1.387 . S
C1721 C1723 1.390 . S
C1721 H1725 0.950 . S
H1722 C1718 0.950 . S
C1723 C1721 1.390 . S
C1723 C1724 1.387 . S
C1723 H1726 0.950 . S
C1724 C1723 1.387 . S
C1724 C1727 1.387 . S
H1725 C1721 0.950 . S
H1726 C1723 0.950 . S
C1727 C1718 1.390 . S
C1727 H1720 0.950 . S
C1727 C1724 1.387 . S
C1728 C1729 1.387 . S
C1728 H1732 0.950 . S
C1728 C1737 1.390 . S
C1729 C1728 1.387 . S
C1729 C1731 1.387 . S
H1730 C1737 0.950 . S
C1731 C1729 1.387 . S
C1731 C1733 1.390 . S
C1731 H1735 0.950 . S
H1732 C1728 0.950 . S
C1733 C1731 1.390 . S
C1733 C1734 1.387 . S
C1733 H1736 0.950 . S
C1734 C1733 1.387 . S
C1734 C1737 1.387 . S
H1735 C1731 0.950 . S
H1736 C1733 0.950 . S
C1737 C1728 1.390 . S
C1737 H1730 0.950 . S
C1737 C1734 1.387 . S
C1738 C1739 1.387 . S
C1738 H1742 0.950 . S
C1738 C1747 1.390 . S
C1739 C1738 1.387 . S
C1739 C1741 1.387 . S
H1740 C1747 0.950 . S
C1741 C1739 1.387 . S
C1741 C1743 1.390 . S
C1741 H1745 0.950 . S
H1742 C1738 0.950 . S
C1743 C1741 1.390 . S
C1743 C1744 1.387 . S
C1743 H1746 0.950 . S
C1744 C1743 1.387 . S
C1744 C1747 1.387 . S
H1745 C1741 0.950 . S
H1746 C1743 0.950 . S
C1747 C1738 1.390 . S
C1747 H1740 0.950 . S
C1747 C1744 1.387 . S
C1748 C1749 1.387 . S
C1748 H1752 0.950 . S
C1748 C1757 1.390 . S
C1749 C1748 1.387 . S
C1749 C1751 1.387 . S
H1750 C1757 0.950 . S
C1751 C1749 1.387 . S
C1751 C1753 1.390 . S
C1751 H1755 0.950 . S
H1752 C1748 0.950 . S
C1753 C1751 1.390 . S
C1753 C1754 1.387 . S
C1753 H1756 0.950 . S
C1754 C1753 1.387 . S
C1754 C1757 1.387 . S
H1755 C1751 0.950 . S
H1756 C1753 0.950 . S
C1757 C1748 1.390 . S
C1757 H1750 0.950 . S
C1757 C1754 1.387 . S
C1758 C1759 1.387 . S
C1758 H1762 0.950 . S
C1758 C1767 1.390 . S
C1759 C1758 1.387 . S
C1759 C1761 1.387 . S
H1760 C1767 0.950 . S
C1761 C1759 1.387 . S
C1761 C1763 1.390 . S
C1761 H1765 0.950 . S
H1762 C1758 0.950 . S
C1763 C1761 1.390 . S
C1763 C1764 1.387 . S
C1763 H1766 0.950 . S
C1764 C1763 1.387 . S
C1764 C1767 1.387 . S
H1765 C1761 0.950 . S
H1766 C1763 0.950 . S
C1767 C1758 1.390 . S
C1767 H1760 0.950 . S
C1767 C1764 1.387 . S
C1768 C1769 1.387 . S
C1768 H1772 0.950 . S
C1768 C1777 1.390 . S
C1769 C1768 1.387 . S
C1769 C1771 1.387 . S
H1770 C1777 0.950 . S
C1771 C1769 1.387 . S
C1771 C1773 1.390 . S
C1771 H1775 0.950 . S
H1772 C1768 0.950 . S
C1773 C1771 1.390 . S
C1773 C1774 1.387 . S
C1773 H1776 0.950 . S
C1774 C1773 1.387 . S
C1774 C1777 1.387 . S
H1775 C1771 0.950 . S
H1776 C1773 0.950 . S
C1777 C1768 1.390 . S
C1777 H1770 0.950 . S
C1777 C1774 1.387 . S
C1778 C1779 1.387 . S
C1778 H1782 0.950 . S
C1778 C1787 1.390 . S
C1779 C1778 1.387 . S
C1779 C1781 1.387 . S
H1780 C1787 0.950 . S
C1781 C1779 1.387 . S
C1781 C1783 1.390 . S
C1781 H1785 0.950 . S
H1782 C1778 0.950 . S
C1783 C1781 1.390 . S
C1783 C1784 1.387 . S
C1783 H1786 0.950 . S
C1784 C1783 1.387 . S
C1784 C1787 1.387 . S
H1785 C1781 0.950 . S
H1786 C1783 0.950 . S
C1787 C1778 1.390 . S
C1787 H1780 0.950 . S
C1787 C1784 1.387 . S
C1788 C1789 1.387 . S
C1788 H1792 0.950 . S
C1788 C1797 1.390 . S
C1789 C1788 1.387 . S
C1789 C1791 1.387 . S
H1790 C1797 0.950 . S
C1791 C1789 1.387 . S
C1791 C1793 1.390 . S
C1791 H1795 0.950 . S
H1792 C1788 0.950 . S
C1793 C1791 1.390 . S
C1793 C1794 1.387 . S
C1793 H1796 0.950 . S
C1794 C1793 1.387 . S
C1794 C1797 1.387 . S
H1795 C1791 0.950 . S
H1796 C1793 0.950 . S
C1797 C1788 1.390 . S
C1797 H1790 0.950 . S
C1797 C1794 1.387 . S
C1798 C1799 1.387 . S
C1798 H1802 0.950 . S
C1798 C1807 1.390 . S
C1799 C1798 1.387 . S
C1799 C1801 1.387 . S
H1800 C1807 0.950 . S
C1801 C1799 1.387 . S
C1801 C1803 1.390 . S
C1801 H1805 0.950 . S
H1802 C1798 0.950 . S
C1803 C1801 1.390 . S
C1803 C1804 1.387 . S
C1803 H1806 0.950 . S
C1804 C1803 1.387 . S
C1804 C1807 1.387 . S
H1805 C1801 0.950 . S
H1806 C1803 0.950 . S
C1807 C1798 1.390 . S
C1807 H1800 0.950 . S
C1807 C1804 1.387 . S
C1808 C1809 1.387 . S
C1808 H1812 0.950 . S
C1808 C1817 1.390 . S
C1809 C1808 1.387 . S
C1809 C1811 1.387 . S
H1810 C1817 0.950 . S
C1811 C1809 1.387 . S
C1811 C1813 1.390 . S
C1811 H1815 0.950 . S
H1812 C1808 0.950 . S
C1813 C1811 1.390 . S
C1813 C1814 1.387 . S
C1813 H1816 0.950 . S
C1814 C1813 1.387 . S
C1814 C1817 1.387 . S
H1815 C1811 0.950 . S
H1816 C1813 0.950 . S
C1817 C1808 1.390 . S
C1817 H1810 0.950 . S
C1817 C1814 1.387 . S
C1818 C1819 1.387 . S
C1818 H1822 0.950 . S
C1818 C1827 1.390 . S
C1819 C1818 1.387 . S
C1819 C1821 1.387 . S
H1820 C1827 0.950 . S
C1821 C1819 1.387 . S
C1821 C1823 1.390 . S
C1821 H1825 0.950 . S
H1822 C1818 0.950 . S
C1823 C1821 1.390 . S
C1823 C1824 1.387 . S
C1823 H1826 0.950 . S
C1824 C1823 1.387 . S
C1824 C1827 1.387 . S
H1825 C1821 0.950 . S
H1826 C1823 0.950 . S
C1827 C1818 1.390 . S
C1827 H1820 0.950 . S
C1827 C1824 1.387 . S
C1828 C1829 1.387 . S
C1828 H1832 0.950 . S
C1828 C1837 1.390 . S
C1829 C1828 1.387 . S
C1829 C1831 1.387 . S
H1830 C1837 0.950 . S
C1831 C1829 1.387 . S
C1831 C1833 1.390 . S
C1831 H1835 0.950 . S
H1832 C1828 0.950 . S
C1833 C1831 1.390 . S
C1833 C1834 1.387 . S
C1833 H1836 0.950 . S
C1834 C1833 1.387 . S
C1834 C1837 1.387 . S
H1835 C1831 0.950 . S
H1836 C1833 0.950 . S
C1837 C1828 1.390 . S
C1837 H1830 0.950 . S
C1837 C1834 1.387 . S
C1838 C1839 1.387 . S
C1838 H1842 0.950 . S
C1838 C1847 1.390 . S
C1839 C1838 1.387 . S
C1839 C1841 1.387 . S
H1840 C1847 0.950 . S
C1841 C1839 1.387 . S
C1841 C1843 1.390 . S
C1841 H1845 0.950 . S
H1842 C1838 0.950 . S
C1843 C1841 1.390 . S
C1843 C1844 1.387 . S
C1843 H1846 0.950 . S
C1844 C1843 1.387 . S
C1844 C1847 1.387 . S
H1845 C1841 0.950 . S
H1846 C1843 0.950 . S
C1847 C1838 1.390 . S
C1847 H1840 0.950 . S
C1847 C1844 1.387 . S
C1848 C1849 1.387 . S
C1848 H1852 0.950 . S
C1848 C1857 1.390 . S
C1849 C1848 1.387 . S
C1849 C1851 1.387 . S
H1850 C1857 0.950 . S
C1851 C1849 1.387 . S
C1851 C1853 1.390 . S
C1851 H1855 0.950 . S
H1852 C1848 0.950 . S
C1853 C1851 1.390 . S
C1853 C1854 1.387 . S
C1853 H1856 0.950 . S
C1854 C1853 1.387 . S
C1854 C1857 1.387 . S
H1855 C1851 0.950 . S
H1856 C1853 0.950 . S
C1857 C1848 1.390 . S
C1857 H1850 0.950 . S
C1857 C1854 1.387 . S
C1858 C1859 1.387 . S
C1858 H1862 0.950 . S
C1858 C1867 1.390 . S
C1859 C1858 1.387 . S
C1859 C1861 1.387 . S
H1860 C1867 0.950 . S
C1861 C1859 1.387 . S
C1861 C1863 1.390 . S
C1861 H1865 0.950 . S
H1862 C1858 0.950 . S
C1863 C1861 1.390 . S
C1863 C1864 1.387 . S
C1863 H1866 0.950 . S
C1864 C1863 1.387 . S
C1864 C1867 1.387 . S
H1865 C1861 0.950 . S
H1866 C1863 0.950 . S
C1867 C1858 1.390 . S
C1867 H1860 0.950 . S
C1867 C1864 1.387 . S
C1868 C1869 1.387 . S
C1868 H1872 0.950 . S
C1868 C1877 1.390 . S
C1869 C1868 1.387 . S
C1869 C1871 1.387 . S
H1870 C1877 0.950 . S
C1871 C1869 1.387 . S
C1871 C1873 1.390 . S
C1871 H1875 0.950 . S
H1872 C1868 0.950 . S
C1873 C1871 1.390 . S
C1873 C1874 1.387 . S
C1873 H1876 0.950 . S
C1874 C1873 1.387 . S
C1874 C1877 1.387 . S
H1875 C1871 0.950 . S
H1876 C1873 0.950 . S
C1877 C1868 1.390 . S
C1877 H1870 0.950 . S
C1877 C1874 1.387 . S
C1878 C1879 1.387 . S
C1878 H1882 0.950 . S
C1878 C1887 1.390 . S
C1879 C1878 1.387 . S
C1879 C1881 1.387 . S
H1880 C1887 0.950 . S
C1881 C1879 1.387 . S
C1881 C1883 1.390 . S
C1881 H1885 0.950 . S
H1882 C1878 0.950 . S
C1883 C1881 1.390 . S
C1883 C1884 1.387 . S
C1883 H1886 0.950 . S
C1884 C1883 1.387 . S
C1884 C1887 1.387 . S
H1885 C1881 0.950 . S
H1886 C1883 0.950 . S
C1887 C1878 1.390 . S
C1887 H1880 0.950 . S
C1887 C1884 1.387 . S
C1888 C1889 1.387 . S
C1888 H1892 0.950 . S
C1888 C1897 1.390 . S
C1889 C1888 1.387 . S
C1889 C1891 1.387 . S
H1890 C1897 0.950 . S
C1891 C1889 1.387 . S
C1891 C1893 1.390 . S
C1891 H1895 0.950 . S
H1892 C1888 0.950 . S
C1893 C1891 1.390 . S
C1893 C1894 1.387 . S
C1893 H1896 0.950 . S
C1894 C1893 1.387 . S
C1894 C1897 1.387 . S
H1895 C1891 0.950 . S
H1896 C1893 0.950 . S
C1897 C1888 1.390 . S
C1897 H1890 0.950 . S
C1897 C1894 1.387 . S
C1898 C1899 1.387 . S
C1898 H1902 0.950 . S
C1898 C1907 1.390 . S
C1899 C1898 1.387 . S
C1899 C1901 1.387 . S
H1900 C1907 0.950 . S
C1901 C1899 1.387 . S
C1901 C1903 1.390 . S
C1901 H1905 0.950 . S
H1902 C1898 0.950 . S
C1903 C1901 1.390 . S
C1903 C1904 1.387 . S
C1903 H1906 0.950 . S
C1904 C1903 1.387 . S
C1904 C1907 1.387 . S
H1905 C1901 0.950 . S
H1906 C1903 0.950 . S
C1907 C1898 1.390 . S
C1907 H1900 0.950 . S
C1907 C1904 1.387 . S
C1908 C1909 1.387 . S
C1908 H1912 0.950 . S
C1908 C1917 1.390 . S
C1909 C1908 1.387 . S
C1909 C1911 1.387 . S
H1910 C1917 0.950 . S
C1911 C1909 1.387 . S
C1911 C1913 1.390 . S
C1911 H1915 0.950 . S
H1912 C1908 0.950 . S
C1913 C1911 1.390 . S
C1913 C1914 1.387 . S
C1913 H1916 0.950 . S
C1914 C1913 1.387 . S
C1914 C1917 1.387 . S
H1915 C1911 0.950 . S
H1916 C1913 0.950 . S
C1917 C1908 1.390 . S
C1917 H1910 0.950 . S
C1917 C1914 1.387 . S
C1918 C1919 1.387 . S
C1918 H1922 0.950 . S
C1918 C1927 1.390 . S
C1919 C1918 1.387 . S
C1919 C1921 1.387 . S
H1920 C1927 0.950 . S
C1921 C1919 1.387 . S
C1921 C1923 1.390 . S
C1921 H1925 0.950 . S
H1922 C1918 0.950 . S
C1923 C1921 1.390 . S
C1923 C1924 1.387 . S
C1923 H1926 0.950 . S
C1924 C1923 1.387 . S
C1924 C1927 1.387 . S
H1925 C1921 0.950 . S
H1926 C1923 0.950 . S
C1927 C1918 1.390 . S
C1927 H1920 0.950 . S
C1927 C1924 1.387 . S
C1928 C1929 1.387 . S
C1928 H1932 0.950 . S
C1928 C1937 1.390 . S
C1929 C1928 1.387 . S
C1929 C1931 1.387 . S
H1930 C1937 0.950 . S
C1931 C1929 1.387 . S
C1931 C1933 1.390 . S
C1931 H1935 0.950 . S
H1932 C1928 0.950 . S
C1933 C1931 1.390 . S
C1933 C1934 1.387 . S
C1933 H1936 0.950 . S
C1934 C1933 1.387 . S
C1934 C1937 1.387 . S
H1935 C1931 0.950 . S
H1936 C1933 0.950 . S
C1937 C1928 1.390 . S
C1937 H1930 0.950 . S
C1937 C1934 1.387 . S
C1938 C1939 1.387 . S
C1938 H1942 0.950 . S
C1938 C1947 1.390 . S
C1939 C1938 1.387 . S
C1939 C1941 1.387 . S
H1940 C1947 0.950 . S
C1941 C1939 1.387 . S
C1941 C1943 1.390 . S
C1941 H1945 0.950 . S
H1942 C1938 0.950 . S
C1943 C1941 1.390 . S
C1943 C1944 1.387 . S
C1943 H1946 0.950 . S
C1944 C1943 1.387 . S
C1944 C1947 1.387 . S
H1945 C1941 0.950 . S
H1946 C1943 0.950 . S
C1947 C1938 1.390 . S
C1947 H1940 0.950 . S
C1947 C1944 1.387 . S
C1948 C1949 1.387 . S
C1948 H1952 0.950 . S
C1948 C1957 1.390 . S
C1949 C1948 1.387 . S
C1949 C1951 1.387 . S
H1950 C1957 0.950 . S
C1951 C1949 1.387 . S
C1951 C1953 1.390 . S
C1951 H1955 0.950 . S
H1952 C1948 0.950 . S
C1953 C1951 1.390 . S
C1953 C1954 1.387 . S
C1953 H1956 0.950 . S
C1954 C1953 1.387 . S
C1954 C1957 1.387 . S
H1955 C1951 0.950 . S
H1956 C1953 0.950 . S
C1957 C1948 1.390 . S
C1957 H1950 0.950 . S
C1957 C1954 1.387 . S
C1958 C1959 1.387 . S
C1958 H1962 0.950 . S
C1958 C1967 1.390 . S
C1959 C1958 1.387 . S
C1959 C1961 1.387 . S
H1960 C1967 0.950 . S
C1961 C1959 1.387 . S
C1961 C1963 1.390 . S
C1961 H1965 0.950 . S
H1962 C1958 0.950 . S
C1963 C1961 1.390 . S
C1963 C1964 1.387 . S
C1963 H1966 0.950 . S
C1964 C1963 1.387 . S
C1964 C1967 1.387 . S
H1965 C1961 0.950 . S
H1966 C1963 0.950 . S
C1967 C1958 1.390 . S
C1967 H1960 0.950 . S
C1967 C1964 1.387 . S
C1968 C1969 1.387 . S
C1968 H1972 0.950 . S
C1968 C1977 1.390 . S
C1969 C1968 1.387 . S
C1969 C1971 1.387 . S
H1970 C1977 0.950 . S
C1971 C1969 1.387 . S
C1971 C1973 1.390 . S
C1971 H1975 0.950 . S
H1972 C1968 0.950 . S
C1973 C1971 1.390 . S
C1973 C1974 1.387 . S
C1973 H1976 0.950 . S
C1974 C1973 1.387 . S
C1974 C1977 1.387 . S
H1975 C1971 0.950 . S
H1976 C1973 0.950 . S
C1977 C1968 1.390 . S
C1977 H1970 0.950 . S
C1977 C1974 1.387 . S
C1978 C1979 1.387 . S
C1978 H1982 0.950 . S
C1978 C1987 1.390 . S
C1979 C1978 1.387 . S
C1979 C1981 1.387 . S
H1980 C1987 0.950 . S
C1981 C1979 1.387 . S
C1981 C1983 1.390 . S
C1981 H1985 0.950 . S
H1982 C1978 0.950 . S
C1983 C1981 1.390 . S
C1983 C1984 1.387 . S
C1983 H1986 0.950 . S
C1984 C1983 1.387 . S
C1984 C1987 1.387 . S
H1985 C1981 0.950 . S
H1986 C1983 0.950 . S
C1987 C1978 1.390 . S
C1987 H1980 0.950 . S
C1987 C1984 1.387 . S
C1988 C1989 1.387 . S
C1988 H1992 0.950 . S
C1988 C1997 1.390 . S
C1989 C1988 1.387 . S
C1989 C1991 1.387 . S
H1990 C1997 0.950 . S
C1991 C1989 1.387 . S
C1991 C1993 1.390 . S
C1991 H1995 0.950 . S
H1992 C1988 0.950 . S
C1993 C1991 1.390 . S
C1993 C1994 1.387 . S
C1993 H1996 0.950 . S
C1994 C1993 1.387 . S
C1994 C1997 1.387 . S
H1995 C1991 0.950 . S
H1996 C1993 0.950 . S
C1997 C1988 1.390 . S
C1997 H1990 0.950 . S
C1997 C1994 1.387 . S
C1998 C1999 1.387 . S
C1998 H2002 0.950 . S
C1998 C2007 1.390 . S
C1999 C1998 1.387 . S
C1999 C2001 1.387 . S
H2000 C2007 0.950 . S
C2001 C1999 1.387 . S
C2001 C2003 1.390 . S
C2001 H2005 0.950 . S
H2002 C1998 0.950 . S
C2003 C2001 1.390 . S
C2003 C2004 1.387 . S
C2003 H2006 0.950 . S
C2004 C2003 1.387 . S
C2004 C2007 1.387 . S
H2005 C2001 0.950 . S
H2006 C2003 0.950 . S
C2007 C1998 1.390 . S
C2007 H2000 0.950 . S
C2007 C2004 1.387 . S
C2008 C2009 1.387 . S
C2008 H2012 0.950 . S
C2008 C2017 1.390 . S
C2009 C2008 1.387 . S
C2009 C2011 1.387 . S
H2010 C2017 0.950 . S
C2011 C2009 1.387 . S
C2011 C2013 1.390 . S
C2011 H2015 0.950 . S
H2012 C2008 0.950 . S
C2013 C2011 1.390 . S
C2013 C2014 1.387 . S
C2013 H2016 0.950 . S
C2014 C2013 1.387 . S
C2014 C2017 1.387 . S
H2015 C2011 0.950 . S
H2016 C2013 0.950 . S
C2017 C2008 1.390 . S
C2017 H2010 0.950 . S
C2017 C2014 1.387 . S
C2018 C2019 1.387 . S
C2018 H2022 0.950 . S
C2018 C2027 1.390 . S
C2019 C2018 1.387 . S
C2019 C2021 1.387 . S
H2020 C2027 0.950 . S
C2021 C2019 1.387 . S
C2021 C2023 1.390 . S
C2021 H2025 0.950 . S
H2022 C2018 0.950 . S
C2023 C2021 1.390 . S
C2023 C2024 1.387 . S
C2023 H2026 0.950 . S
C2024 C2023 1.387 . S
C2024 C2027 1.387 . S
H2025 C2021 0.950 . S
H2026 C2023 0.950 . S
C2027 C2018 1.390 . S
C2027 H2020 0.950 . S
C2027 C2024 1.387 . S
C2028 C2029 1.387 . S
C2028 H2032 0.950 . S
C2028 C2037 1.390 . S
C2029 C2028 1.387 . S
C2029 C2031 1.387 . S
H2030 C2037 0.950 . S
C2031 C2029 1.387 . S
C2031 C2033 1.390 . S
C2031 H2035 0.950 . S
H2032 C2028 0.950 . S
C2033 C2031 1.390 . S
C2033 C2034 1.387 . S
C2033 H2036 0.950 . S
C2034 C2033 1.387 . S
C2034 C2037 1.387 . S
H2035 C2031 0.950 . S
H2036 C2033 0.950 . S
C2037 C2028 1.390 . S
C2037 H2030 0.950 . S
C2037 C2034 1.387 . S
C2038 C2039 1.387 . S
C2038 H2042 0.950 . S
C2038 C2047 1.390 . S
C2039 C2038 1.387 . S
C2039 C2041 1.387 . S
H2040 C2047 0.950 . S
C2041 C2039 1.387 . S
C2041 C2043 1.390 . S
C2041 H2045 0.950 . S
H2042 C2038 0.950 . S
C2043 C2041 1.390 . S
C2043 C2044 1.387 . S
C2043 H2046 0.950 . S
C2044 C2043 1.387 . S
C2044 C2047 1.387 . S
H2045 C2041 0.950 . S
H2046 C2043 0.950 . S
C2047 C2038 1.390 . S
C2047 H2040 0.950 . S
C2047 C2044 1.387 . S
C2048 C2049 1.387 . S
C2048 H2052 0.950 . S
C2048 C2057 1.390 . S
C2049 C2048 1.387 . S
C2049 C2051 1.387 . S
H2050 C2057 0.950 . S
C2051 C2049 1.387 . S
C2051 C2053 1.390 . S
C2051 H2055 0.950 . S
H2052 C2048 0.950 . S
C2053 C2051 1.390 . S
C2053 C2054 1.387 . S
C2053 H2056 0.950 . S
C2054 C2053 1.387 . S
C2054 C2057 1.387 . S
H2055 C2051 0.950 . S
H2056 C2053 0.950 . S
C2057 C2048 1.390 . S
C2057 H2050 0.950 . S
C2057 C2054 1.387 . S
C2058 C2059 1.387 . S
C2058 H2062 0.950 . S
C2058 C2067 1.390 . S
C2059 C2058 1.387 . S
C2059 C2061 1.387 . S
H2060 C2067 0.950 . S
C2061 C2059 1.387 . S
C2061 C2063 1.390 . S
C2061 H2065 0.950 . S
H2062 C2058 0.950 . S
C2063 C2061 1.390 . S
C2063 C2064 1.387 . S
C2063 H2066 0.950 . S
C2064 C2063 1.387 . S
C2064 C2067 1.387 . S
H2065 C2061 0.950 . S
H2066 C2063 0.950 . S
C2067 C2058 1.390 . S
C2067 H2060 0.950 . S
C2067 C2064 1.387 . S
C2068 C2069 1.387 . S
C2068 H2072 0.950 . S
C2068 C2077 1.390 . S
C2069 C2068 1.387 . S
C2069 C2071 1.387 . S
H2070 C2077 0.950 . S
C2071 C2069 1.387 . S
C2071 C2073 1.390 . S
C2071 H2075 0.950 . S
H2072 C2068 0.950 . S
C2073 C2071 1.390 . S
C2073 C2074 1.387 . S
C2073 H2076 0.950 . S
C2074 C2073 1.387 . S
C2074 C2077 1.387 . S
H2075 C2071 0.950 . S
H2076 C2073 0.950 . S
C2077 C2068 1.390 . S
C2077 H2070 0.950 . S
C2077 C2074 1.387 . S
C2078 C2079 1.387 . S
C2078 H2082 0.950 . S
C2078 C2087 1.390 . S
C2079 C2078 1.387 . S
C2079 C2081 1.387 . S
H2080 C2087 0.950 . S
C2081 C2079 1.387 . S
C2081 C2083 1.390 . S
C2081 H2085 0.950 . S
H2082 C2078 0.950 . S
C2083 C2081 1.390 . S
C2083 C2084 1.387 . S
C2083 H2086 0.950 . S
C2084 C2083 1.387 . S
C2084 C2087 1.387 . S
H2085 C2081 0.950 . S
H2086 C2083 0.950 . S
C2087 C2078 1.390 . S
C2087 H2080 0.950 . S
C2087 C2084 1.387 . S
C2088 C2089 1.387 . S
C2088 H2092 0.950 . S
C2088 C2097 1.390 . S
C2089 C2088 1.387 . S
C2089 C2091 1.387 . S
H2090 C2097 0.950 . S
C2091 C2089 1.387 . S
C2091 C2093 1.390 . S
C2091 H2095 0.950 . S
H2092 C2088 0.950 . S
C2093 C2091 1.390 . S
C2093 C2094 1.387 . S
C2093 H2096 0.950 . S
C2094 C2093 1.387 . S
C2094 C2097 1.387 . S
H2095 C2091 0.950 . S
H2096 C2093 0.950 . S
C2097 C2088 1.390 . S
C2097 H2090 0.950 . S
C2097 C2094 1.387 . S
C2098 C2099 1.387 . S
C2098 H2102 0.950 . S
C2098 C2107 1.390 . S
C2099 C2098 1.387 . S
C2099 C2101 1.387 . S
H2100 C2107 0.950 . S
C2101 C2099 1.387 . S
C2101 C2103 1.390 . S
C2101 H2105 0.950 . S
H2102 C2098 0.950 . S
C2103 C2101 1.390 . S
C2103 C2104 1.387 . S
C2103 H2106 0.950 . S
C2104 C2103 1.387 . S
C2104 C2107 1.387 . S
H2105 C2101 0.950 . S
H2106 C2103 0.950 . S
C2107 C2098 1.390 . S
C2107 H2100 0.950 . S
C2107 C2104 1.387 . S
C2108 C2109 1.387 . S
C2108 H2112 0.950 . S
C2108 C2117 1.390 . S
C2109 C2108 1.387 . S
C2109 C2111 1.387 . S
H2110 C2117 0.950 . S
C2111 C2109 1.387 . S
C2111 C2113 1.390 . S
C2111 H2115 0.950 . S
H2112 C2108 0.950 . S
C2113 C2111 1.390 . S
C2113 C2114 1.387 . S
C2113 H2116 0.950 . S
C2114 C2113 1.387 . S
C2114 C2117 1.387 . S
H2115 C2111 0.950 . S
H2116 C2113 0.950 . S
C2117 C2108 1.390 . S
C2117 H2110 0.950 . S
C2117 C2114 1.387 . S
C2118 C2119 1.387 . S
C2118 H2122 0.950 . S
C2118 C2127 1.390 . S
C2119 C2118 1.387 . S
C2119 C2121 1.387 . S
H2120 C2127 0.950 . S
C2121 C2119 1.387 . S
C2121 C2123 1.390 . S
C2121 H2125 0.950 . S
H2122 C2118 0.950 . S
C2123 C2121 1.390 . S
C2123 C2124 1.387 . S
C2123 H2126 0.950 . S
C2124 C2123 1.387 . S
C2124 C2127 1.387 . S
H2125 C2121 0.950 . S
H2126 C2123 0.950 . S
C2127 C2118 1.390 . S
C2127 H2120 0.950 . S
C2127 C2124 1.387 . S
C2128 C2129 1.387 . S
C2128 H2132 0.950 . S
C2128 C2137 1.390 . S
C2129 C2128 1.387 . S
C2129 C2131 1.387 . S
H2130 C2137 0.950 . S
C2131 C2129 1.387 . S
C2131 C2133 1.390 . S
C2131 H2135 0.950 . S
H2132 C2128 0.950 . S
C2133 C2131 1.390 . S
C2133 C2134 1.387 . S
C2133 H2136 0.950 . S
C2134 C2133 1.387 . S
C2134 C2137 1.387 . S
H2135 C2131 0.950 . S
H2136 C2133 0.950 . S
C2137 C2128 1.390 . S
C2137 H2130 0.950 . S
C2137 C2134 1.387 . S
C2138 C2139 1.387 . S
C2138 H2142 0.950 . S
C2138 C2147 1.390 . S
C2139 C2138 1.387 . S
C2139 C2141 1.387 . S
H2140 C2147 0.950 . S
C2141 C2139 1.387 . S
C2141 C2143 1.390 . S
C2141 H2145 0.950 . S
H2142 C2138 0.950 . S
C2143 C2141 1.390 . S
C2143 C2144 1.387 . S
C2143 H2146 0.950 . S
C2144 C2143 1.387 . S
C2144 C2147 1.387 . S
H2145 C2141 0.950 . S
H2146 C2143 0.950 . S
C2147 C2138 1.390 . S
C2147 H2140 0.950 . S
C2147 C2144 1.387 . S
C2148 C2149 1.387 . S
C2148 H2152 0.950 . S
C2148 C2157 1.390 . S
C2149 C2148 1.387 . S
C2149 C2151 1.387 . S
H2150 C2157 0.950 . S
C2151 C2149 1.387 . S
C2151 C2153 1.390 . S
C2151 H2155 0.950 . S
H2152 C2148 0.950 . S
C2153 C2151 1.390 . S
C2153 C2154 1.387 . S
C2153 H2156 0.950 . S
C2154 C2153 1.387 . S
C2154 C2157 1.387 . S
H2155 C2151 0.950 . S
H2156 C2153 0.950 . S
C2157 C2148 1.390 . S
C2157 H2150 0.950 . S
C2157 C2154 1.387 . S
C2158 C2159 1.387 . S
C2158 H2162 0.950 . S
C2158 C2167 1.390 . S
C2159 C2158 1.387 . S
C2159 C2161 1.387 . S
H2160 C2167 0.950 . S
C2161 C2159 1.387 . S
C2161 C2163 1.390 . S
C2161 H2165 0.950 . S
H2162 C2158 0.950 . S
C2163 C2161 1.390 . S
C2163 C2164 1.387 . S
C2163 H2166 0.950 . S
C2164 C2163 1.387 . S
C2164 C2167 1.387 . S
H2165 C2161 0.950 . S
H2166 C2163 0.950 . S
C2167 C2158 1.390 . S
C2167 H2160 0.950 . S
C2167 C2164 1.387 . S
C2168 C2169 1.387 . S
C2168 H2172 0.950 . S
C2168 C2177 1.390 . S
C2169 C2168 1.387 . S
C2169 C2171 1.387 . S
H2170 C2177 0.950 . S
C2171 C2169 1.387 . S
C2171 C2173 1.390 . S
C2171 H2175 0.950 . S
H2172 C2168 0.950 . S
C2173 C2171 1.390 . S
C2173 C2174 1.387 . S
C2173 H2176 0.950 . S
C2174 C2173 1.387 . S
C2174 C2177 1.387 . S
H2175 C2171 0.950 . S
H2176 C2173 0.950 . S
C2177 C2168 1.390 . S
C2177 H2170 0.950 . S
C2177 C2174 1.387 . S
C2178 C2179 1.387 . S
C2178 H2182 0.950 . S
C2178 C2187 1.390 . S
C2179 C2178 1.387 . S
C2179 C2181 1.387 . S
H2180 C2187 0.950 . S
C2181 C2179 1.387 . S
C2181 C2183 1.390 . S
C2181 H2185 0.950 . S
H2182 C2178 0.950 . S
C2183 C2181 1.390 . S
C2183 C2184 1.387 . S
C2183 H2186 0.950 . S
C2184 C2183 1.387 . S
C2184 C2187 1.387 . S
H2185 C2181 0.950 . S
H2186 C2183 0.950 . S
C2187 C2178 1.390 . S
C2187 H2180 0.950 . S
C2187 C2184 1.387 . S
C2188 C2189 1.387 . S
C2188 H2192 0.950 . S
C2188 C2197 1.390 . S
C2189 C2188 1.387 . S
C2189 C2191 1.387 . S
H2190 C2197 0.950 . S
C2191 C2189 1.387 . S
C2191 C2193 1.390 . S
C2191 H2195 0.950 . S
H2192 C2188 0.950 . S
C2193 C2191 1.390 . S
C2193 C2194 1.387 . S
C2193 H2196 0.950 . S
C2194 C2193 1.387 . S
C2194 C2197 1.387 . S
H2195 C2191 0.950 . S
H2196 C2193 0.950 . S
C2197 C2188 1.390 . S
C2197 H2190 0.950 . S
C2197 C2194 1.387 . S
C2198 C2199 1.387 . S
C2198 H2202 0.950 . S
C2198 C2207 1.390 . S
C2199 C2198 1.387 . S
C2199 C2201 1.387 . S
H2200 C2207 0.950 . S
C2201 C2199 1.387 . S
C2201 C2203 1.390 . S
C2201 H2205 0.950 . S
H2202 C2198 0.950 . S
C2203 C2201 1.390 . S
C2203 C2204 1.387 . S
C2203 H2206 0.950 . S
C2204 C2203 1.387 . S
C2204 C2207 1.387 . S
H2205 C2201 0.950 . S
H2206 C2203 0.950 . S
C2207 C2198 1.390 . S
C2207 H2200 0.950 . S
C2207 C2204 1.387 . S
C2208 C2209 1.387 . S
C2208 H2212 0.950 . S
C2208 C2217 1.390 . S
C2209 C2208 1.387 . S
C2209 C2211 1.387 . S
H2210 C2217 0.950 . S
C2211 C2209 1.387 . S
C2211 C2213 1.390 . S
C2211 H2215 0.950 . S
H2212 C2208 0.950 . S
C2213 C2211 1.390 . S
C2213 C2214 1.387 . S
C2213 H2216 0.950 . S
C2214 C2213 1.387 . S
C2214 C2217 1.387 . S
H2215 C2211 0.950 . S
H2216 C2213 0.950 . S
C2217 C2208 1.390 . S
C2217 H2210 0.950 . S
C2217 C2214 1.387 . S
C2218 C2219 1.387 . S
C2218 H2222 0.950 . S
C2218 C2227 1.390 . S
C2219 C2218 1.387 . S
C2219 C2221 1.387 . S
H2220 C2227 0.950 . S
C2221 C2219 1.387 . S
C2221 C2223 1.390 . S
C2221 H2225 0.950 . S
H2222 C2218 0.950 . S
C2223 C2221 1.390 . S
C2223 C2224 1.387 . S
C2223 H2226 0.950 . S
C2224 C2223 1.387 . S
C2224 C2227 1.387 . S
H2225 C2221 0.950 . S
H2226 C2223 0.950 . S
C2227 C2218 1.390 . S
C2227 H2220 0.950 . S
C2227 C2224 1.387 . S
C2228 C2229 1.387 . S
C2228 H2232 0.950 . S
C2228 C2237 1.390 . S
C2229 C2228 1.387 . S
C2229 C2231 1.387 . S
H2230 C2237 0.950 . S
C2231 C2229 1.387 . S
C2231 C2233 1.390 . S
C2231 H2235 0.950 . S
H2232 C2228 0.950 . S
C2233 C2231 1.390 . S
C2233 C2234 1.387 . S
C2233 H2236 0.950 . S
C2234 C2233 1.387 . S
C2234 C2237 1.387 . S
H2235 C2231 0.950 . S
H2236 C2233 0.950 . S
C2237 C2228 1.390 . S
C2237 H2230 0.950 . S
C2237 C2234 1.387 . S
C2238 C2239 1.387 . S
C2238 H2242 0.950 . S
C2238 C2247 1.390 . S
C2239 C2238 1.387 . S
C2239 C2241 1.387 . S
H2240 C2247 0.950 . S
C2241 C2239 1.387 . S
C2241 C2243 1.390 . S
C2241 H2245 0.950 . S
H2242 C2238 0.950 . S
C2243 C2241 1.390 . S
C2243 C2244 1.387 . S
C2243 H2246 0.950 . S
C2244 C2243 1.387 . S
C2244 C2247 1.387 . S
H2245 C2241 0.950 . S
H2246 C2243 0.950 . S
C2247 C2238 1.390 . S
C2247 H2240 0.950 . S
C2247 C2244 1.387 . S
C2248 C2249 1.387 . S
C2248 H2252 0.950 . S
C2248 C2257 1.390 . S
C2249 C2248 1.387 . S
C2249 C2251 1.387 . S
H2250 C2257 0.950 . S
C2251 C2249 1.387 . S
C2251 C2253 1.390 . S
C2251 H2255 0.950 . S
H2252 C2248 0.950 . S
C2253 C2251 1.390 . S
C2253 C2254 1.387 . S
C2253 H2256 0.950 . S
C2254 C2253 1.387 . S
C2254 C2257 1.387 . S
H2255 C2251 0.950 . S
H2256 C2253 0.950 . S
C2257 C2248 1.390 . S
C2257 H2250 0.950 . S
C2257 C2254 1.387 . S
C2258 C2259 1.387 . S
C2258 H2262 0.950 . S
C2258 C2267 1.390 . S
C2259 C2258 1.387 . S
C2259 C2261 1.387 . S
H2260 C2267 0.950 . S
C2261 C2259 1.387 . S
C2261 C2263 1.390 . S
C2261 H2265 0.950 . S
H2262 C2258 0.950 . S
C2263 C2261 1.390 . S
C2263 C2264 1.387 . S
C2263 H2266 0.950 . S
C2264 C2263 1.387 . S
C2264 C2267 1.387 . S
H2265 C2261 0.950 . S
H2266 C2263 0.950 . S
C2267 C2258 1.390 . S
C2267 H2260 0.950 . S
C2267 C2264 1.387 . S
C2268 C2269 1.387 . S
C2268 H2272 0.950 . S
C2268 C2277 1.390 . S
C2269 C2268 1.387 . S
C2269 C2271 1.387 . S
H2270 C2277 0.950 . S
C2271 C2269 1.387 . S
C2271 C2273 1.390 . S
C2271 H2275 0.950 . S
H2272 C2268 0.950 . S
C2273 C2271 1.390 . S
C2273 C2274 1.387 . S
C2273 H2276 0.950 . S
C2274 C2273 1.387 . S
C2274 C2277 1.387 . S
H2275 C2271 0.950 . S
H2276 C2273 0.950 . S
C2277 C2268 1.390 . S
C2277 H2270 0.950 . S
C2277 C2274 1.387 . S
C2278 C2279 1.387 . S
C2278 H2282 0.950 . S
C2278 C2287 1.390 . S
C2279 C2278 1.387 . S
C2279 C2281 1.387 . S
H2280 C2287 0.950 . S
C2281 C2279 1.387 . S
C2281 C2283 1.390 . S
C2281 H2285 0.950 . S
H2282 C2278 0.950 . S
C2283 C2281 1.390 . S
C2283 C2284 1.387 . S
C2283 H2286 0.950 . S
C2284 C2283 1.387 . S
C2284 C2287 1.387 . S
H2285 C2281 0.950 . S
H2286 C2283 0.950 . S
C2287 C2278 1.390 . S
C2287 H2280 0.950 . S
C2287 C2284 1.387 . S
C2288 C2289 1.387 . S
C2288 H2292 0.950 . S
C2288 C2297 1.390 . S
C2289 C2288 1.387 . S
C2289 C2291 1.387 . S
H2290 C2297 0.950 . S
C2291 C2289 1.387 . S
C2291 C2293 1.390 . S
C2291 H2295 0.950 . S
H2292 C2288 0.950 . S
C2293 C2291 1.390 . S
C2293 C2294 1.387 . S
C2293 H2296 0.950 . S
C2294 C2293 1.387 . S
C2294 C2297 1.387 . S
H2295 C2291 0.950 . S
H2296 C2293 0.950 . S
C2297 C2288 1.390 . S
C2297 H2290 0.950 . S
C2297 C2294 1.387 . S
C2298 C2299 1.387 . S
C2298 H2302 0.950 . S
C2298 C2307 1.390 . S
C2299 C2298 1.387 . S
C2299 C2301 1.387 . S
H2300 C2307 0.950 . S
C2301 C2299 1.387 . S
C2301 C2303 1.390 . S
C2301 H2305 0.950 . S
H2302 C2298 0.950 . S
C2303 C2301 1.390 . S
C2303 C2304 1.387 . S
C2303 H2306 0.950 . S
C2304 C2303 1.387 . S
C2304 C2307 1.387 . S
H2305 C2301 0.950 . S
H2306 C2303 0.950 . S
C2307 C2298 1.390 . S
C2307 H2300 0.950 . S
C2307 C2304 1.387 . S
C2308 C2309 1.387 . S
C2308 H2312 0.950 . S
C2308 C2317 1.390 . S
C2309 C2308 1.387 . S
C2309 C2311 1.387 . S
H2310 C2317 0.950 . S
C2311 C2309 1.387 . S
C2311 C2313 1.390 . S
C2311 H2315 0.950 . S
H2312 C2308 0.950 . S
C2313 C2311 1.390 . S
C2313 C2314 1.387 . S
C2313 H2316 0.950 . S
C2314 C2313 1.387 . S
C2314 C2317 1.387 . S
H2315 C2311 0.950 . S
H2316 C2313 0.950 . S
C2317 C2308 1.390 . S
C2317 H2310 0.950 . S
C2317 C2314 1.387 . S
C2318 C2319 1.387 . S
C2318 H2322 0.950 . S
C2318 C2327 1.390 . S
C2319 C2318 1.387 . S
C2319 C2321 1.387 . S
H2320 C2327 0.950 . S
C2321 C2319 1.387 . S
C2321 C2323 1.390 . S
C2321 H2325 0.950 . S
H2322 C2318 0.950 . S
C2323 C2321 1.390 . S
C2323 C2324 1.387 . S
C2323 H2326 0.950 . S
C2324 C2323 1.387 . S
C2324 C2327 1.387 . S
H2325 C2321 0.950 . S
H2326 C2323 0.950 . S
C2327 C2318 1.390 . S
C2327 H2320 0.950 . S
C2327 C2324 1.387 . S
C2328 C2329 1.387 . S
C2328 H2332 0.950 . S
C2328 C2337 1.390 . S
C2329 C2328 1.387 . S
C2329 C2331 1.387 . S
H2330 C2337 0.950 . S
C2331 C2329 1.387 . S
C2331 C2333 1.390 . S
C2331 H2335 0.950 . S
H2332 C2328 0.950 . S
C2333 C2331 1.390 . S
C2333 C2334 1.387 . S
C2333 H2336 0.950 . S
C2334 C2333 1.387 . S
C2334 C2337 1.387 . S
H2335 C2331 0.950 . S
H2336 C2333 0.950 . S
C2337 C2328 1.390 . S
C2337 H2330 0.950 . S
C2337 C2334 1.387 . S
C2338 C2339 1.387 . S
C2338 H2342 0.950 . S
C2338 C2347 1.390 . S
C2339 C2338 1.387 . S
C2339 C2341 1.387 . S
H2340 C2347 0.950 . S
C2341 C2339 1.387 . S
C2341 C2343 1.390 . S
C2341 H2345 0.950 . S
H2342 C2338 0.950 . S
C2343 C2341 1.390 . S
C2343 C2344 1.387 . S
C2343 H2346 0.950 . S
C2344 C2343 1.387 . S
C2344 C2347 1.387 . S
H2345 C2341 0.950 . S
H2346 C2343 0.950 . S
C2347 C2338 1.390 . S
C2347 H2340 0.950 . S
C2347 C2344 1.387 . S
C2348 C2349 1.387 . S
C2348 H2352 0.950 . S
C2348 C2357 1.390 . S
C2349 C2348 1.387 . S
C2349 C2351 1.387 . S
H2350 C2357 0.950 . S
C2351 C2349 1.387 . S
C2351 C2353 1.390 . S
C2351 H2355 0.950 . S
H2352 C2348 0.950 . S
C2353 C2351 1.390 . S
C2353 C2354 1.387 . S
C2353 H2356 0.950 . S
C2354 C2353 1.387 . S
C2354 C2357 1.387 . S
H2355 C2351 0.950 . S
H2356 C2353 0.950 . S
C2357 C2348 1.390 . S
C2357 H2350 0.950 . S
C2357 C2354 1.387 . S
C2358 C2359 1.387 . S
C2358 H2362 0.950 . S
C2358 C2367 1.390 . S
C2359 C2358 1.387 . S
C2359 C2361 1.387 . S
H2360 C2367 0.950 . S
C2361 C2359 1.387 . S
C2361 C2363 1.390 . S
C2361 H2365 0.950 . S
H2362 C2358 0.950 . S
C2363 C2361 1.390 . S
C2363 C2364 1.387 . S
C2363 H2366 0.950 . S
C2364 C2363 1.387 . S
C2364 C2367 1.387 . S
H2365 C2361 0.950 . S
H2366 C2363 0.950 . S
C2367 C2358 1.390 . S
C2367 H2360 0.950 . S
C2367 C2364 1.387 . S
C2368 C2369 1.387 . S
C2368 H2372 0.950 . S
C2368 C2377 1.390 . S
C2369 C2368 1.387 . S
C2369 C2371 1.387 . S
H2370 C2377 0.950 . S
C2371 C2369 1.387 . S
C2371 C2373 1.390 . S
C2371 H2375 0.950 . S
H2372 C2368 0.950 . S
C2373 C2371 1.390 . S
C2373 C2374 1.387 . S
C2373 H2376 0.950 . S
C2374 C2373 1.387 . S
C2374 C2377 1.387 . S
H2375 C2371 0.950 . S
H2376 C2373 0.950 . S
C2377 C2368 1.390 . S
C2377 H2370 0.950 . S
C2377 C2374 1.387 . S
C2378 C2379 1.387 . S
C2378 H2382 0.950 . S
C2378 C2387 1.390 . S
C2379 C2378 1.387 . S
C2379 C2381 1.387 . S
H2380 C2387 0.950 . S
C2381 C2379 1.387 . S
C2381 C2383 1.390 . S
C2381 H2385 0.950 . S
H2382 C2378 0.950 . S
C2383 C2381 1.390 . S
C2383 C2384 1.387 . S
C2383 H2386 0.950 . S
C2384 C2383 1.387 . S
C2384 C2387 1.387 . S
H2385 C2381 0.950 . S
H2386 C2383 0.950 . S
C2387 C2378 1.390 . S
C2387 H2380 0.950 . S
C2387 C2384 1.387 . S
C2388 C2389 1.387 . S
C2388 H2392 0.950 . S
C2388 C2397 1.390 . S
C2389 C2388 1.387 . S
C2389 C2391 1.387 . S
H2390 C2397 0.950 . S
C2391 C2389 1.387 . S
C2391 C2393 1.390 . S
C2391 H2395 0.950 . S
H2392 C2388 0.950 . S
C2393 C2391 1.390 . S
C2393 C2394 1.387 . S
C2393 H2396 0.950 . S
C2394 C2393 1.387 . S
C2394 C2397 1.387 . S
H2395 C2391 0.950 . S
H2396 C2393 0.950 . S
C2397 C2388 1.390 . S
C2397 H2390 0.950 . S
C2397 C2394 1.387 . S
C2398 C2399 1.387 . S
C2398 H2402 0.950 . S
C2398 C2407 1.390 . S
C2399 C2398 1.387 . S
C2399 C2401 1.387 . S
H2400 C2407 0.950 . S
C2401 C2399 1.387 . S
C2401 C2403 1.390 . S
C2401 H2405 0.950 . S
H2402 C2398 0.950 . S
C2403 C2401 1.390 . S
C2403 C2404 1.387 . S
C2403 H2406 0.950 . S
C2404 C2403 1.387 . S
C2404 C2407 1.387 . S
H2405 C2401 0.950 . S
H2406 C2403 0.950 . S
C2407 C2398 1.390 . S
C2407 H2400 0.950 . S
C2407 C2404 1.387 . S
C2408 C2409 1.387 . S
C2408 H2412 0.950 . S
C2408 C2417 1.390 . S
C2409 C2408 1.387 . S
C2409 C2411 1.387 . S
H2410 C2417 0.950 . S
C2411 C2409 1.387 . S
C2411 C2413 1.390 . S
C2411 H2415 0.950 . S
H2412 C2408 0.950 . S
C2413 C2411 1.390 . S
C2413 C2414 1.387 . S
C2413 H2416 0.950 . S
C2414 C2413 1.387 . S
C2414 C2417 1.387 . S
H2415 C2411 0.950 . S
H2416 C2413 0.950 . S
C2417 C2408 1.390 . S
C2417 H2410 0.950 . S
C2417 C2414 1.387 . S
C2418 C2419 1.387 . S
C2418 H2422 0.950 . S
C2418 C2427 1.390 . S
C2419 C2418 1.387 . S
C2419 C2421 1.387 . S
H2420 C2427 0.950 . S
C2421 C2419 1.387 . S
C2421 C2423 1.390 . S
C2421 H2425 0.950 . S
H2422 C2418 0.950 . S
C2423 C2421 1.390 . S
C2423 C2424 1.387 . S
C2423 H2426 0.950 . S
C2424 C2423 1.387 . S
C2424 C2427 1.387 . S
H2425 C2421 0.950 . S
H2426 C2423 0.950 . S
C2427 C2418 1.390 . S
C2427 H2420 0.950 . S
C2427 C2424 1.387 . S
C2428 C2429 1.387 . S
C2428 H2432 0.950 . S
C2428 C2437 1.390 . S
C2429 C2428 1.387 . S
C2429 C2431 1.387 . S
H2430 C2437 0.950 . S
C2431 C2429 1.387 . S
C2431 C2433 1.390 . S
C2431 H2435 0.950 . S
H2432 C2428 0.950 . S
C2433 C2431 1.390 . S
C2433 C2434 1.387 . S
C2433 H2436 0.950 . S
C2434 C2433 1.387 . S
C2434 C2437 1.387 . S
H2435 C2431 0.950 . S
H2436 C2433 0.950 . S
C2437 C2428 1.390 . S
C2437 H2430 0.950 . S
C2437 C2434 1.387 . S
C2438 C2439 1.387 . S
C2438 H2442 0.950 . S
C2438 C2447 1.390 . S
C2439 C2438 1.387 . S
C2439 C2441 1.387 . S
H2440 C2447 0.950 . S
C2441 C2439 1.387 . S
C2441 C2443 1.390 . S
C2441 H2445 0.950 . S
H2442 C2438 0.950 . S
C2443 C2441 1.390 . S
C2443 C2444 1.387 . S
C2443 H2446 0.950 . S
C2444 C2443 1.387 . S
C2444 C2447 1.387 . S
H2445 C2441 0.950 . S
H2446 C2443 0.950 . S
C2447 C2438 1.390 . S
C2447 H2440 0.950 . S
C2447 C2444 1.387 . S
C1009 C130 1.427 . S
C1014 C4 1.427 1_455 S
C1019 C154 1.431 . S
C1024 C25 1.431 1_545 S
C1029 C88 1.431 1_455 S
C1034 C46 1.431 . S
C1039 C109 1.427 1_545 S
C1044 C67 1.427 . S
C1049 C217 1.431 . S
C1054 C172 1.431 1_545 S
C1059 C235 1.427 1_455 S
C1064 C193 1.427 . S
C1069 C301 1.431 1_545 S
C1074 C256 1.431 . S
C1079 C322 1.427 . S
C1084 C280 1.427 1_455 S
C1089 C361 1.427 . S
C1094 C343 1.427 1_554 S
C1099 C490 1.431 1_554 S
C1104 C382 1.431 . S
C1109 C448 1.427 1_554 S
C1114 C406 1.427 . S
C1119 C424 1.431 . S
C1124 C469 1.431 1_554 S
C1129 C508 1.431 . S
C1134 C637 1.431 . S
C1139 C532 1.427 . S
C1144 C658 1.427 . S
C1149 C550 1.431 . S
C1154 C595 1.431 . S
C1159 C574 1.427 . S
C1164 C613 1.427 . S
C1169 C679 1.431 . S
C1174 C718 1.431 . S
C1179 C700 1.431 . S
C1184 C742 1.431 . S
C1189 C760 1.427 . S
C1194 C805 1.427 . S
C1199 C826 1.431 . S
C1204 C784 1.431 . S
C1209 C847 1.427 . S
C1214 C865 1.427 . S
C1219 C994 1.431 . S
C1224 C889 1.431 . S
C1229 C907 1.431 . S
C1234 C952 1.431 . S
C1239 C928 1.431 . S
C1244 C973 1.431 . S
C1249 C7 1.485 . S
C1254 C196 1.484 . S
C1259 C28 1.485 . S
C1264 C214 1.485 . S
C1269 C49 1.484 . S
C1274 C238 1.485 . S
C1279 C175 1.484 . S
C1284 C70 1.484 . S
C1289 C319 1.485 . S
C1294 C91 1.485 . S
C1299 C259 1.483 . S
C1304 C112 1.483 . S
C1309 C277 1.485 . S
C1314 C133 1.485 . S
C1319 C151 1.484 . S
C1324 C298 1.484 . S
C1329 C385 1.482 . S
C1334 C340 1.482 . S
C1339 C466 1.484 . S
C1344 C364 1.484 . S
C1349 C403 1.484 . S
C1354 C487 1.484 . S
C1359 C445 1.484 . S
C1364 C427 1.484 . S
C1369 C511 1.484 . S
C1374 C697 1.484 . S
C1379 C721 1.482 . S
C1384 C529 1.482 . S
C1389 C739 1.485 . S
C1394 C553 1.485 . S
C1399 C571 1.485 . S
C1404 C676 1.484 . S
C1409 C823 1.483 . S
C1414 C592 1.483 . S
C1419 C616 1.484 . S
C1424 C763 1.484 . S
C1429 C634 1.483 . S
C1434 C781 1.483 . S
C1439 C655 1.484 . S
C1444 C802 1.484 . S
C1449 C844 1.484 . S
C1454 C886 1.484 . S
C1459 C970 1.484 . S
C1464 C868 1.484 . S
C1469 C991 1.485 . S
C1474 C910 1.485 . S
C1479 C931 1.482 . S
C1484 C949 1.482 . S
C1489 C19 1.411 . S
C1494 C83 1.394 . S
C1499 C20 1.395 . S
C1504 C40 1.411 . S
C1509 C61 1.416 . S
C1514 C41 1.390 . S
C1519 C82 1.413 . S
C1524 C62 1.392 . S
C1529 C125 1.392 . S
C1534 C103 1.416 . S
C1539 C146 1.395 . S
C1544 C124 1.411 . S
C1549 C145 1.411 . S
C1554 C166 1.395 . S
C1559 C104 1.392 . S
C1564 C167 1.416 . S
C1569 C187 1.415 . S
C1574 C398 1.390 . S
C1579 C208 1.416 . S
C1584 C418 1.392 . S
C1589 C230 1.416 . S
C1594 C440 1.392 . S
C1599 C250 1.416 . S
C1604 C377 1.391 . S
C1609 C271 1.416 . S
C1614 C481 1.391 . S
C1619 C355 1.394 . S
C1624 C293 1.411 . S
C1629 C502 1.394 . S
C1634 C314 1.412 . S
C1639 C335 1.412 . S
C1644 C460 1.394 . S
C1649 C356 1.416 . S
C1654 C209 1.390 . S
C1659 C376 1.412 . S
C1664 C334 1.395 . S
C1669 C397 1.416 . S
C1674 C272 1.392 . S
C1679 C292 1.391 . S
C1684 C419 1.416 . S
C1689 C313 1.391 . S
C1694 C439 1.416 . S
C1699 C251 1.395 . S
C1704 C461 1.411 . S
C1709 C188 1.391 . S
C1714 C482 1.415 . S
C1719 C503 1.415 . S
C1724 C229 1.393 . S
C1729 C523 1.414 . S
C1734 C586 1.394 . S
C1739 C545 1.416 . S
C1744 C524 1.391 . S
C1749 C544 1.391 . S
C1754 C565 1.416 . S
C1759 C566 1.395 . S
C1764 C587 1.412 . S
C1769 C608 1.416 . S
C1774 C629 1.391 . S
C1779 C649 1.395 . S
C1784 C628 1.411 . S
C1789 C670 1.391 . S
C1794 C650 1.416 . S
C1799 C671 1.411 . S
C1804 C607 1.395 . S
C1809 C692 1.413 . S
C1814 C901 1.395 . S
C1819 C923 1.390 . S
C1824 C713 1.416 . S
C1829 C944 1.391 . S
C1834 C733 1.416 . S
C1839 C755 1.416 . S
C1844 C881 1.391 . S
C1849 C985 1.395 . S
C1854 C775 1.413 . S
C1859 C797 1.412 . S
C1864 C859 1.394 . S
C1869 C818 1.411 . S
C1874 C1006 1.395 . S
C1879 C839 1.416 . S
C1884 C964 1.391 . S
C1889 C712 1.394 . S
C1894 C860 1.412 . S
C1899 C838 1.391 . S
C1904 C880 1.416 . S
C1909 C776 1.395 . S
C1914 C902 1.412 . S
C1919 C922 1.416 . S
C1924 C796 1.391 . S
C1929 C817 1.391 . S
C1934 C943 1.416 . S
C1939 C965 1.413 . S
C1944 C754 1.392 . S
C1949 C986 1.412 . S
C1954 C691 1.395 . S
C1959 C734 1.390 . S
C1964 C1007 1.416 . S
C1969 C16 1.144 . S
C1974 C940 1.142 . S
C1979 C877 1.142 . S
C1984 C37 1.144 . S
C1989 C58 1.146 . S
C1994 C885 1.143 . S
C1999 C79 1.144 . S
C2004 C919 1.146 . S
C2009 C100 1.146 . S
C2014 C990 1.142 . S
C2019 C121 1.146 . S
C2024 C948 1.144 . S
C2029 C142 1.143 . S
C2034 C969 1.146 . S
C2039 C150 1.142 . S
C2044 C843 1.144 . S
C2049 C184 1.144 . S
C2054 C822 1.142 . S
C2059 C205 1.145 . S
C2064 C772 1.142 . S
C2069 C213 1.146 . S
C2074 C780 1.142 . S
C2079 C247 1.143 . S
C2084 C801 1.144 . S
C2089 C268 1.142 . S
C2094 C696 1.145 . S
C2099 C276 1.144 . S
C2104 C730 1.143 . S
C2109 C297 1.146 . S
C2114 C738 1.145 . S
C2119 C318 1.142 . S
C2124 C675 1.145 . S
C2129 C339 1.143 . S
C2134 C654 1.143 . S
C2139 C373 1.143 . S
C2144 C528 1.143 . S
C2149 C394 1.146 . S
C2154 C562 1.144 . S
C2159 C402 1.145 . S
C2164 C570 1.145 . S
C2169 C436 1.144 . S
C2174 C520 1.142 . S
C2179 C444 1.144 . S
C2184 C625 1.146 . S
C2189 C465 1.146 . S
C2194 C633 1.144 . S
C2199 C486 1.146 . S
C2204 C591 1.143 . S
C2209 C87 1.053 . S
C2214 C898 1.057 . S
C2219 C108 1.051 . S
C2224 C906 1.054 . S
C2229 C129 1.054 . S
C2234 C927 1.058 . S
C2239 C163 1.058 . S
C2244 C864 1.055 . S
C2249 C3 1.052 . S
C2254 C982 1.056 . S
C2259 C24 1.056 . S
C2264 C856 1.052 . S
C2269 C45 1.056 . S
C2274 C1003 1.059 . S
C2279 C961 1.051 . S
C2284 C66 1.053 . S
C2289 C310 1.051 . S
C2294 C709 1.054 . S
C2299 C331 1.053 . S
C2304 C717 1.057 . S
C2309 C255 1.059 . S
C2314 C751 1.057 . S
C2319 C289 1.056 . S
C2324 C688 1.052 . S
C2329 C226 1.051 . S
C2334 C835 1.054 . S
C2339 C234 1.052 . S
C2344 C759 1.051 . S
C2349 C171 1.051 . S
C2354 C793 1.054 . S
C2359 C192 1.054 . S
C2364 C814 1.057 . S
C2369 C457 1.051 . S
C2374 C583 1.052 . S
C2379 C415 1.054 . S
C2384 C612 1.057 . S
C2389 C423 1.057 . S
C2394 C646 1.053 . S
C2399 C360 1.051 . S
C2404 C667 1.051 . S
C2409 C381 1.059 . S
C2414 C604 1.056 . S
C2419 C352 1.059 . S
C2424 C541 1.056 . S
C2429 C499 1.059 . S
C2434 C549 1.058 . S
C2439 C478 1.057 . S
C2444 C507 1.053 . S
