# Generated by pormake.
# Topology wkt, (7)-cn, num edge types: 1
# Building blocks:
#     Node 0, Type 0, BuildingBlock: HICVOG_clean_sbu_0, # of connection points: 7
#     Node 1, Type 0, BuildingBlock: HICVOG_clean_sbu_0, # of connection points: 7
#     Node 2, Type 0, BuildingBlock: HICVOG_clean_sbu_0, # of connection points: 7
#     Node 3, Type 0, BuildingBlock: HICVOG_clean_sbu_0, # of connection points: 7
#     Node 4, Type 0, BuildingBlock: HICVOG_clean_sbu_0, # of connection points: 7
#     Node 5, Type 0, BuildingBlock: HICVOG_clean_sbu_0, # of connection points: 7
#     Node 6, Type 0, BuildingBlock: HICVOG_clean_sbu_0, # of connection points: 7
#     Node 7, Type 0, BuildingBlock: HICVOG_clean_sbu_0, # of connection points: 7
#     Node 8, Type 0, BuildingBlock: HICVOG_clean_sbu_0, # of connection points: 7
#     Node 9, Type 0, BuildingBlock: HICVOG_clean_sbu_0, # of connection points: 7
#     Node 10, Type 0, BuildingBlock: HICVOG_clean_sbu_0, # of connection points: 7
#     Node 11, Type 0, BuildingBlock: HICVOG_clean_sbu_0, # of connection points: 7
#     Edge 12, Type (0, 0), BuildingBlock: AJUNOK_clean_linker_0, # of connection points: 2
#     Edge 13, Type (0, 0), BuildingBlock: AJUNOK_clean_linker_0, # of connection points: 2
#     Edge 14, Type (0, 0), BuildingBlock: AJUNOK_clean_linker_0, # of connection points: 2
#     Edge 15, Type (0, 0), BuildingBlock: AJUNOK_clean_linker_0, # of connection points: 2
#     Edge 16, Type (0, 0), BuildingBlock: AJUNOK_clean_linker_0, # of connection points: 2
#     Edge 17, Type (0, 0), BuildingBlock: AJUNOK_clean_linker_0, # of connection points: 2
#     Edge 18, Type (0, 0), BuildingBlock: AJUNOK_clean_linker_0, # of connection points: 2
#     Edge 19, Type (0, 0), BuildingBlock: AJUNOK_clean_linker_0, # of connection points: 2
#     Edge 20, Type (0, 0), BuildingBlock: AJUNOK_clean_linker_0, # of connection points: 2
#     Edge 21, Type (0, 0), BuildingBlock: AJUNOK_clean_linker_0, # of connection points: 2
#     Edge 22, Type (0, 0), BuildingBlock: AJUNOK_clean_linker_0, # of connection points: 2
#     Edge 23, Type (0, 0), BuildingBlock: AJUNOK_clean_linker_0, # of connection points: 2
#     Edge 24, Type (0, 0), BuildingBlock: AJUNOK_clean_linker_0, # of connection points: 2
#     Edge 25, Type (0, 0), BuildingBlock: AJUNOK_clean_linker_0, # of connection points: 2
#     Edge 26, Type (0, 0), BuildingBlock: AJUNOK_clean_linker_0, # of connection points: 2
#     Edge 27, Type (0, 0), BuildingBlock: AJUNOK_clean_linker_0, # of connection points: 2
#     Edge 28, Type (0, 0), BuildingBlock: AJUNOK_clean_linker_0, # of connection points: 2
#     Edge 29, Type (0, 0), BuildingBlock: AJUNOK_clean_linker_0, # of connection points: 2
#     Edge 30, Type (0, 0), BuildingBlock: AJUNOK_clean_linker_0, # of connection points: 2
#     Edge 31, Type (0, 0), BuildingBlock: AJUNOK_clean_linker_0, # of connection points: 2
#     Edge 32, Type (0, 0), BuildingBlock: AJUNOK_clean_linker_0, # of connection points: 2
#     Edge 33, Type (0, 0), BuildingBlock: AJUNOK_clean_linker_0, # of connection points: 2
#     Edge 34, Type (0, 0), BuildingBlock: AJUNOK_clean_linker_0, # of connection points: 2
#     Edge 35, Type (0, 0), BuildingBlock: AJUNOK_clean_linker_0, # of connection points: 2
#     Edge 36, Type (0, 0), BuildingBlock: AJUNOK_clean_linker_0, # of connection points: 2
#     Edge 37, Type (0, 0), BuildingBlock: AJUNOK_clean_linker_0, # of connection points: 2
#     Edge 38, Type (0, 0), BuildingBlock: AJUNOK_clean_linker_0, # of connection points: 2
#     Edge 39, Type (0, 0), BuildingBlock: AJUNOK_clean_linker_0, # of connection points: 2
#     Edge 40, Type (0, 0), BuildingBlock: AJUNOK_clean_linker_0, # of connection points: 2
#     Edge 41, Type (0, 0), BuildingBlock: AJUNOK_clean_linker_0, # of connection points: 2
#     Edge 42, Type (0, 0), BuildingBlock: AJUNOK_clean_linker_0, # of connection points: 2
#     Edge 43, Type (0, 0), BuildingBlock: AJUNOK_clean_linker_0, # of connection points: 2
#     Edge 44, Type (0, 0), BuildingBlock: AJUNOK_clean_linker_0, # of connection points: 2
#     Edge 45, Type (0, 0), BuildingBlock: AJUNOK_clean_linker_0, # of connection points: 2
#     Edge 46, Type (0, 0), BuildingBlock: AJUNOK_clean_linker_0, # of connection points: 2
#     Edge 47, Type (0, 0), BuildingBlock: AJUNOK_clean_linker_0, # of connection points: 2
#     Edge 48, Type (0, 0), BuildingBlock: AJUNOK_clean_linker_0, # of connection points: 2
#     Edge 49, Type (0, 0), BuildingBlock: AJUNOK_clean_linker_0, # of connection points: 2
#     Edge 50, Type (0, 0), BuildingBlock: AJUNOK_clean_linker_0, # of connection points: 2
#     Edge 51, Type (0, 0), BuildingBlock: AJUNOK_clean_linker_0, # of connection points: 2
#     Edge 52, Type (0, 0), BuildingBlock: AJUNOK_clean_linker_0, # of connection points: 2
#     Edge 53, Type (0, 0), BuildingBlock: AJUNOK_clean_linker_0, # of connection points: 2
# Relax obj value: 0.242
# Max RMSD: 0.216
# Mean RMSD: 0.216
data_MOF--net-wkt--node1-HICVOG_clean_sbu_0--edge1-AJUNOK_clean_linker_0
_symmetry_space_group_name_H-M    P1
_symmetry_Int_Tables_number       1
_symmetry_cell_setting            triclinic
loop_
_symmetry_equiv_pos_as_xyz
'x, y, z'
_cell_length_a     24.856087
_cell_length_b     24.793509
_cell_length_c     40.860975
_cell_angle_alpha  90.40117
_cell_angle_beta   89.693426
_cell_angle_gamma 120.2897
loop_
_atom_site_label
_atom_site_type_symbol
_atom_site_fract_x
_atom_site_fract_y
_atom_site_fract_z
_atom_type_partial_charge
Zn0 Zn 0.38781 0.46432 0.08101 0.0
C1 C 0.37816 0.31042 0.12143 0.0
N2 N 0.33633 0.31509 0.14065 0.0
C3 C 0.34644 0.37287 0.13401 0.0
N4 N 0.39085 0.40226 0.11099 0.0
N5 N 0.41074 0.36303 0.10322 0.0
C6 C 0.51433 0.31528 1.03595 0.0
O7 O 0.54453 0.36838 1.0203 0.0
O8 O 0.38614 0.5419 0.10499 0.0
Zn9 Zn 0.48496 0.38883 0.07893 0.0
N10 N 0.31045 0.40781 0.05942 0.0
C11 C 0.25174 0.30841 1.03325 0.0
C12 C 0.30487 0.35248 0.04972 0.0
C13 C 0.26529 0.42128 0.05258 0.0
N14 N 0.20772 0.32281 1.02525 0.0
C15 C 0.21317 0.37808 1.03449 0.0
O16 O 0.49825 0.44435 1.03828 0.0
C17 C 0.48539 0.48374 1.02593 0.0
O18 O 0.44833 0.49731 0.04085 0.0
H19 H 0.34199 0.34294 0.05397 0.0
H20 H 0.27193 0.46662 0.05914 0.0
C21 C 0.60004 0.48506 0.10009 0.0
C22 C 0.64209 0.5287 0.12252 0.0
C23 C 0.57771 0.46756 0.16623 0.0
C24 C 0.53486 0.4256 0.14373 0.0
N25 N 0.54714 0.4354 0.11108 0.0
N26 N 0.63037 0.51824 0.15514 0.0
H27 H 0.60849 0.48993 0.07401 0.0
C28 C 0.38754 0.58789 0.08965 0.0
O29 O 0.3886 0.58652 0.05752 0.0
O30 O 0.48768 0.31313 0.06292 0.0
H31 H 0.49162 0.38677 0.15237 0.0
H32 H 0.24688 0.26433 1.02557 0.0
H33 H 0.56882 0.46043 0.19224 0.0
Zn34 Zn 0.13266 0.49798 0.24042 0.0
C35 C 1.00719 0.34713 0.28813 0.0
N36 N 0.05657 0.34042 0.2943 0.0
C37 C 0.10265 0.38516 0.27666 0.0
N38 N 0.08152 0.41769 0.25946 0.0
N39 N 1.02127 0.39403 0.26659 0.0
C40 C 0.849 0.43198 0.25745 0.0
O41 O 0.86169 0.45573 0.22793 0.0
O42 O 0.20525 0.49392 0.21832 0.0
Zn43 Zn 0.96052 0.41267 0.2431 0.0
N44 N 0.15067 0.55311 0.27898 0.0
C45 C 0.12958 0.55961 0.33569 0.0
C46 C 0.11411 0.52745 0.30604 0.0
C47 C 0.20094 0.61155 0.28057 0.0
N48 N 0.17975 0.61782 0.33721 0.0
C49 C 0.21588 0.64489 0.31047 0.0
O50 O 0.99384 0.48275 0.20895 0.0
C51 C 1.04351 0.5145 0.19238 0.0
O52 O 0.09481 0.5203 0.20206 0.0
H53 H 0.07355 0.48175 0.30536 0.0
H54 H 0.22848 0.63171 0.2587 0.0
C55 C 0.88887 0.35126 0.18884 0.0
C56 C 0.86662 0.31019 0.16226 0.0
C57 C 0.92051 0.26065 0.18199 0.0
C58 C 0.94151 0.30126 0.20875 0.0
N59 N 0.92455 0.34538 0.21176 0.0
N60 N 0.88306 0.26557 0.15961 0.0
H61 H 0.87885 0.3884 0.19126 0.0
C62 C 0.18548 0.45257 0.19568 0.0
O63 O 0.1255 0.42254 0.18934 0.0
O64 O 0.88575 0.41532 0.27017 0.0
H65 H 0.97231 0.29842 0.22624 0.0
H66 H 0.10128 0.53883 0.35726 0.0
H67 H 0.93354 0.22533 0.1791 0.0
Zn68 Zn 0.59424 0.94374 0.40979 0.0
C69 C 0.76619 0.0765 0.44928 0.0
N70 N 0.758 1.02909 0.4684 0.0
C71 C 0.70031 0.9818 0.46051 0.0
N72 N 0.67296 0.99846 0.43708 0.0
N73 N 0.71489 0.05761 0.43007 0.0
C74 C 0.7782 0.21389 0.36388 0.0
O75 O 0.72916 0.21781 0.35604 0.0
O76 O 0.51364 0.85806 0.4274 0.0
Zn77 Zn 0.69484 0.11017 0.40633 0.0
N78 N 0.62735 0.92049 0.37386 0.0
C79 C 0.70855 0.9382 0.33699 0.0
C80 C 0.68928 0.94676 0.36764 0.0
C81 C 0.58408 0.88665 0.35094 0.0
N82 N 0.66504 0.90355 0.31412 0.0
C83 C 0.60272 0.87739 0.31998 0.0
O84 O 0.64004 0.07243 0.36646 0.0
C85 C 0.58643 1.02724 0.35925 0.0
O86 O 0.55606 0.98442 0.3803 0.0
H87 H 0.72338 0.97589 0.38569 0.0
H88 H 0.53596 0.86908 0.35727 0.0
C89 C 0.62835 0.16898 0.43098 0.0
C90 C 0.59894 0.18468 0.45546 0.0
C91 C 0.63053 0.13847 0.49541 0.0
C92 C 0.65847 0.12148 0.47103 0.0
N93 N 0.65793 0.13797 0.4393 0.0
N94 N 0.60097 0.16954 0.48708 0.0
H95 H 0.62623 0.1796 0.40551 0.0
C96 C 0.47972 0.83791 0.45337 0.0
O97 O 0.49632 0.87464 0.4792 0.0
O98 O 0.77352 0.17609 0.38595 0.0
H99 H 0.67938 0.09444 0.47764 0.0
H100 H 0.75759 0.95892 0.33133 0.0
H101 H 0.63081 0.12559 0.52062 0.0
Zn102 Zn 0.62194 0.65528 0.56541 0.0
C103 C 0.71584 0.64417 0.64008 0.0
N104 N 0.71781 0.69606 0.65179 0.0
C105 C 0.68952 0.71074 0.62847 0.0
N106 N 0.67315 0.66987 0.6028 0.0
N107 N 0.68899 0.62761 0.61036 0.0
C108 C 0.69957 0.44372 0.58829 0.0
O109 O 0.68956 0.43804 0.5566 0.0
O110 O 0.62432 0.73442 0.55085 0.0
Zn111 Zn 0.69562 0.56795 0.57884 0.0
N112 N 0.54366 0.59171 0.5824 0.0
C113 C 0.49214 0.49917 0.61423 0.0
C114 C 0.54221 0.54036 0.59504 0.0
C115 C 0.49698 0.60357 0.58818 0.0
N116 N 0.44558 0.51116 0.62017 0.0
C117 C 0.44648 0.5626 0.60797 0.0
O118 O 0.6305 0.53198 0.5398 0.0
C119 C 0.62641 0.56632 0.51775 0.0
O120 O 0.64299 0.62287 0.52408 0.0
H121 H 0.58099 0.53293 0.59178 0.0
H122 H 0.50087 0.64556 0.57822 0.0
C123 C 0.7861 0.59914 0.52937 0.0
C124 C 0.8373 0.63804 0.50956 0.0
C125 C 0.85593 0.72494 0.54205 0.0
C126 C 0.80454 0.68612 0.56152 0.0
N127 N 0.77139 0.62358 0.55524 0.0
N128 N 0.87192 0.69992 0.51679 0.0
H129 H 0.75871 0.5494 0.52472 0.0
C130 C 0.60696 0.73907 0.52222 0.0
O131 O 0.57948 0.68893 0.5036 0.0
O132 O 0.70358 0.49243 0.60251 0.0
H133 H 0.79118 0.70632 0.58111 0.0
H134 H 0.49058 0.45844 0.62469 0.0
H135 H 0.88312 0.77451 0.54712 0.0
Zn136 Zn 0.13602 0.67056 0.74595 0.0
C137 C 0.98949 0.68863 0.782 0.0
N138 N 1.03454 0.73295 0.80084 0.0
C139 C 0.08398 0.72566 0.79471 0.0
N140 N 0.07169 0.68069 0.7723 0.0
N141 N 1.01227 0.65776 0.76442 0.0
C142 C 0.89912 0.60904 0.70542 0.0
O143 O 0.95724 0.65351 0.70102 0.0
O144 O 0.21699 0.67898 0.77165 0.0
Zn145 Zn 0.97057 0.5824 0.74132 0.0
N146 N 0.16533 0.73908 0.7158 0.0
C147 C 0.16767 0.82787 0.69266 0.0
C148 C 0.14949 0.78411 0.71759 0.0
C149 C 0.19622 0.7346 0.68951 0.0
N150 N 0.20129 0.825 0.66715 0.0
C151 C 0.21634 0.77933 0.66459 0.0
O152 O 1.01218 0.58362 0.69868 0.0
C153 C 0.06183 0.58493 0.69009 0.0
O154 O 0.10506 0.59818 0.71093 0.0
H155 H 0.12173 0.78545 0.73752 0.0
H156 H 0.20385 0.69567 0.68842 0.0
C157 C 0.97124 0.47321 0.7592 0.0
C158 C 0.98488 0.43674 0.77988 0.0
C159 C 0.99728 0.50409 0.82429 0.0
C160 C 0.98393 0.54013 0.80362 0.0
N161 N 0.97172 0.52418 0.77142 0.0
N162 N 0.99713 0.45309 0.81202 0.0
H163 H 0.95937 0.46146 0.73373 0.0
C164 C 0.25565 0.66532 0.75795 0.0
O165 O 0.24308 0.64298 0.72799 0.0
O166 O 0.88776 0.56626 0.72594 0.0
H167 H 0.98507 0.58141 0.81316 0.0
H168 H 0.15566 0.86415 0.69366 0.0
H169 H 1.00758 0.51641 0.84987 0.0
Zn170 Zn 0.40721 0.95176 0.90905 0.0
C171 C 0.41454 0.07812 0.97062 0.0
N172 N 0.35867 1.03201 0.98115 0.0
C173 C 0.34471 0.98592 0.95928 0.0
N174 N 0.39104 1.00396 0.93676 0.0
N175 N 0.43472 0.06245 0.94353 0.0
C176 C 0.61198 0.26009 0.91999 0.0
O177 O 0.61146 0.26034 0.88786 0.0
O178 O 0.32957 0.88277 0.88725 0.0
Zn179 Zn 0.49315 0.12668 0.91145 0.0
N180 N 0.44773 0.92402 0.93878 0.0
C181 C 0.48033 0.91959 0.99292 0.0
C182 C 0.4381 0.92223 0.97173 0.0
C183 C 0.49739 0.92268 0.92631 0.0
N184 N 0.5316 0.92097 0.98038 0.0
C185 C 0.54201 0.92372 0.94752 0.0
O186 O 0.52897 0.09841 0.87295 0.0
C187 C 0.50948 0.04592 0.85842 0.0
O188 O 0.46651 0.99591 0.87118 0.0
H189 H 0.39988 0.92572 0.98178 0.0
H190 H 0.50195 0.92221 0.90004 0.0
C191 C 0.43528 0.19196 0.88044 0.0
C192 C 0.3859 0.19132 0.8634 0.0
C193 C 0.33109 0.08111 0.86288 0.0
C194 C 0.38094 0.08192 0.8786 0.0
N195 N 0.43152 0.13704 0.88783 0.0
N196 N 0.33504 0.13593 0.85512 0.0
H197 H 0.47718 0.23533 0.88655 0.0
C198 C 0.31588 0.89395 0.85911 0.0
O199 O 0.35248 0.94825 0.84545 0.0
O200 O 0.56809 0.21157 0.93452 0.0
H201 H 0.37949 0.03864 0.88303 0.0
H202 H 0.4734 0.91828 1.01913 0.0
H203 H 0.29061 0.03734 0.85581 0.0
Zn204 Zn 0.59699 0.67262 0.83544 0.0
C205 C 0.74354 0.67353 0.78783 0.0
N206 N 0.73364 0.70974 0.76722 0.0
C207 C 0.67867 0.70249 0.77738 0.0
N208 N 0.65564 0.66526 0.80374 0.0
N209 N 0.69629 0.6469 0.81032 0.0
C210 C 0.76637 0.61466 0.88623 0.0
O211 O 0.73334 0.63711 0.89922 0.0
O212 O 0.52208 0.6791 0.81161 0.0
Zn213 Zn 0.67292 0.5783 0.83877 0.0
N214 N 0.65764 0.74854 0.85729 0.0
C215 C 0.75812 0.80282 0.88234 0.0
C216 C 0.71245 0.75168 0.86511 0.0
C217 C 0.64642 0.79432 0.86679 0.0
N218 N 0.74588 0.84732 0.893 0.0
C219 C 0.69127 0.8443 0.88556 0.0
O220 O 0.61818 0.56872 0.87848 0.0
C221 C 0.5777 0.5793 0.89137 0.0
O222 O 0.56002 0.61245 0.876 0.0
H223 H 0.72041 0.7141 0.85894 0.0
H224 H 0.60148 0.78958 0.86185 0.0
C225 C 0.57139 0.46106 0.82359 0.0
C226 C 0.51949 0.42194 0.8041 0.0
C227 C 0.5729 0.4816 0.75749 0.0
C228 C 0.62392 0.52027 0.77695 0.0
N229 N 0.62178 0.50989 0.80978 0.0
N230 N 0.52197 0.43356 0.77148 0.0
H231 H 0.57178 0.45474 0.84969 0.0
C232 C 0.47804 0.68406 0.8256 0.0
O233 O 0.47871 0.68824 0.85768 0.0
O234 O 0.74997 0.58531 0.85907 0.0
H235 H 0.66301 0.56023 0.76593 0.0
H236 H 0.80165 0.8055 0.88859 0.0
H237 H 0.57311 0.49041 0.7316 0.0
Zn238 Zn 0.12432 0.67769 1.00259 0.0
C239 C 1.00446 0.69714 0.94779 0.0
N240 N 0.05496 0.75274 0.94035 0.0
C241 C 0.09973 0.75453 0.95916 0.0
N242 N 0.07714 0.70238 0.97755 0.0
N243 N 1.01702 0.66557 0.97076 0.0
C244 C 0.82633 0.47038 0.99189 0.0
O245 O 0.82685 0.46601 1.0239 0.0
O246 O 0.20584 0.75262 1.01521 0.0
Zn247 Zn 0.95519 0.59799 1.00127 0.0
N248 N 0.12993 0.61827 0.97524 0.0
C249 C 0.1064 0.56248 0.92485 0.0
C250 C 0.11718 0.61506 0.94272 0.0
C251 C 0.13337 0.57202 0.99052 0.0
N252 N 0.10844 0.51533 0.94034 0.0
C253 C 0.12089 0.51826 0.97294 0.0
O254 O 0.98708 0.56389 1.03844 0.0
C255 C 1.03589 0.59051 0.05637 0.0
O256 O 0.08613 0.63656 0.04575 0.0
H257 H 0.11309 0.65176 0.931 0.0
H258 H 0.14522 0.57765 1.01619 0.0
C259 C 0.88132 0.63583 0.04091 0.0
C260 C 0.87642 0.67582 0.06363 0.0
C261 C 0.98466 0.74568 0.06051 0.0
C262 C 0.98995 0.70517 1.03876 0.0
N263 N 0.93819 0.65128 1.02904 0.0
N264 N 0.92804 0.72953 0.07303 0.0
H265 H 0.84113 0.59148 1.03419 0.0
C266 C 0.23366 0.74885 1.04028 0.0
O267 O 0.21611 0.69361 0.05257 0.0
O268 O 0.87258 0.51841 0.97825 0.0
H269 H 1.03559 0.71599 1.03071 0.0
H270 H 0.09551 0.55864 0.89905 0.0
H271 H 1.02556 0.78836 0.06838 0.0
Zn272 Zn 0.40857 0.93659 0.17028 0.0
C273 C 0.38092 0.07177 0.12695 0.0
N274 N 0.34831 1.02605 0.10494 0.0
C275 C 0.35697 0.97903 0.11474 0.0
N276 N 0.3932 0.99417 0.14166 0.0
N277 N 0.40835 0.0524 0.14923 0.0
C278 C 0.48649 0.19392 0.22393 0.0
O279 O 0.51504 0.17329 0.24251 0.0
O280 O 0.39929 0.85336 0.14613 0.0
Zn281 Zn 0.47696 0.10036 0.17753 0.0
N282 N 0.34705 0.91546 0.20387 0.0
C283 C 0.27859 0.93529 0.23562 0.0
C284 C 0.31117 0.94232 0.20667 0.0
C285 C 0.35222 0.88279 0.22869 0.0
N286 N 0.28348 0.9019 0.26043 0.0
C287 C 0.31992 0.8754 0.2581 0.0
O288 O 0.485 0.05846 0.21812 0.0
C289 C 0.49582 1.0146 0.22411 0.0
O290 O 0.48469 0.97264 0.20246 0.0
H291 H 0.30913 0.97034 0.18715 0.0
H292 H 0.383 0.86483 0.22508 0.0
C293 C 0.58977 0.17796 0.14089 0.0
C294 C 0.6362 0.18693 0.11791 0.0
C295 C 0.58634 0.07674 0.11056 0.0
C296 C 0.54343 0.06844 0.13466 0.0
N297 N 0.54554 0.11906 0.14907 0.0
N298 N 0.63199 0.13538 0.10323 0.0
H299 H 0.58853 0.21628 0.15278 0.0
C300 C 0.41123 0.81268 0.15845 0.0
O301 O 0.43298 0.82191 0.18842 0.0
O302 O 0.47196 0.17364 0.19475 0.0
H303 H 0.5078 1.02186 0.14134 0.0
H304 H 0.24982 0.9563 0.23846 0.0
H305 H 0.58459 0.03699 0.0984 0.0
Zn306 Zn 0.41468 0.48762 0.34055 0.0
C307 C 0.40059 0.35346 0.2801 0.0
N308 N 0.34612 0.3479 0.27107 0.0
C309 C 0.34124 0.38988 0.28958 0.0
N310 N 0.39129 0.41992 0.30988 0.0
N311 N 0.42962 0.39826 0.3034 0.0
C312 C 0.63164 0.42461 0.32368 0.0
O313 O 0.63853 0.44108 0.35469 0.0
O314 O 0.33537 0.48569 0.35648 0.0
Zn315 Zn 0.50285 0.41547 0.33219 0.0
N316 N 0.471 0.55727 0.31323 0.0
C317 C 0.54436 0.58526 0.26981 0.0
C318 C 0.51236 0.54738 0.2961 0.0
C319 C 0.46312 0.60625 0.30619 0.0
N320 N 0.53573 0.63338 0.26237 0.0
C321 C 0.49638 0.64596 0.27974 0.0
O322 O 0.54461 0.49414 0.36151 0.0
C323 C 0.51484 0.49636 0.38644 0.0
O324 O 0.45895 0.48447 0.38304 0.0
H325 H 0.51888 0.5088 0.30189 0.0
H326 H 0.43097 0.61294 0.32106 0.0
C327 C 0.4894 0.33083 0.38299 0.0
C328 C 0.45794 0.28951 0.40851 0.0
C329 C 0.36773 0.29479 0.3978 0.0
C330 C 0.39922 0.3366 0.37256 0.0
N331 N 0.45927 0.35312 0.36527 0.0
N332 N 0.39765 0.27152 0.41514 0.0
H333 H 0.53708 0.34462 0.37707 0.0
C334 C 0.33283 0.50592 0.38483 0.0
O335 O 0.38454 0.53649 0.40177 0.0
O336 O 0.58063 0.41253 0.30942 0.0
H337 H 0.37579 0.35635 0.3596 0.0
H338 H 0.57617 0.57684 0.2555 0.0
H339 H 0.32003 0.28114 0.40363 0.0
Zn340 Zn 0.11982 0.49478 0.50245 0.0
C341 C 0.9959 0.32857 0.45725 0.0
N342 N 1.04226 0.344 0.43535 0.0
C343 C 0.08721 0.40157 0.44543 0.0
N344 N 0.06964 0.42119 0.47239 0.0
N345 N 1.01277 0.3749 0.47974 0.0
C346 C 0.934 0.28218 0.56821 0.0
O347 O 0.97507 0.33001 0.58553 0.0
O348 O 0.20794 0.57404 0.48636 0.0
Zn349 Zn 0.96435 0.37264 0.51698 0.0
N350 N 0.1397 0.4597 0.53846 0.0
C351 C 0.128 0.3794 0.57412 0.0
C352 C 0.11077 0.39793 0.54585 0.0
C353 C 0.18308 0.5035 0.55836 0.0
N354 N 0.17514 0.42319 0.59274 0.0
C355 C 0.20386 0.48524 0.58547 0.0
O356 O 1.00804 0.43815 0.55312 0.0
C357 C 1.04296 0.49721 0.55484 0.0
O358 O 0.07214 0.52839 0.52942 0.0
H359 H 0.07443 0.36366 0.5303 0.0
H360 H 0.20199 0.55207 0.55217 0.0
C361 C 0.91108 0.4345 0.48592 0.0
C362 C 0.86315 0.44313 0.47392 0.0
C363 C 0.79005 0.33729 0.48673 0.0
C364 C 0.83712 0.33112 0.50127 0.0
N365 N 0.8967 0.37966 0.50012 0.0
N366 N 0.80385 0.39339 0.47428 0.0
H367 H 0.95939 0.47106 0.48517 0.0
C368 C 0.23226 0.60238 0.4593 0.0
O369 O 0.19884 0.58162 0.4325 0.0
O370 O 0.92626 0.28956 0.53825 0.0
H371 H 0.82669 0.28743 0.51226 0.0
H372 H 0.10559 0.33057 0.58067 0.0
H373 H 0.74267 0.29854 0.48616 0.0
Zn374 Zn 0.59356 0.93826 0.67176 0.0
C375 C 0.75948 0.05591 0.63444 0.0
N376 N 0.76403 1.00492 0.62891 0.0
C377 C 0.71123 0.95875 0.64197 0.0
N378 N 0.67633 0.98199 0.65516 0.0
N379 N 0.70643 0.04328 0.64988 0.0
C380 C 0.71297 0.24057 0.66122 0.0
O381 O 0.71331 0.24441 0.6933 0.0
O382 O 0.58422 0.8603 0.69289 0.0
Zn383 Zn 0.70329 0.11158 0.67532 0.0
N384 N 0.54269 0.92329 0.63307 0.0
C385 C 0.5349 0.94006 0.57621 0.0
C386 C 0.57021 0.95354 0.60469 0.0
C387 C 0.48131 0.88023 0.63393 0.0
N388 N 0.47306 0.89771 0.57724 0.0
C389 C 0.44539 0.86709 0.60538 0.0
O390 O 0.63592 0.08486 0.71102 0.0
C391 C 0.59172 0.03464 0.72319 0.0
O392 O 0.57457 0.98202 0.70949 0.0
H393 H 0.61931 0.98741 0.60381 0.0
H394 H 0.46066 0.85772 0.65694 0.0
C395 C 0.82242 0.18796 0.71014 0.0
C396 C 0.86819 0.19218 0.73182 0.0
C397 C 0.8127 0.08269 0.7384 0.0
C398 C 0.76684 0.07866 0.71754 0.0
N399 N 0.77261 0.13106 0.70358 0.0
N400 N 0.86195 0.13955 0.74553 0.0
H401 H 0.82509 0.22923 0.69965 0.0
C402 C 0.61314 0.87356 0.72004 0.0
O403 O 0.6381 0.93091 0.73115 0.0
O404 O 0.71102 0.19173 0.64835 0.0
H405 H 0.72657 0.03381 0.71253 0.0
H406 H 0.55636 0.96368 0.55356 0.0
H407 H 0.80839 0.0412 0.7495 0.0
C408 C 0.39632 0.65161 0.14126 0.0
C409 C 0.39027 0.6441 0.10697 0.0
C410 C 0.40213 0.70533 0.15728 0.0
C411 C 0.40169 0.75471 0.1401 0.0
H412 H 0.39753 0.61606 0.15597 0.0
H413 H 0.40735 0.70813 0.18364 0.0
S414 S 0.38632 0.75913 0.05 0.0
N415 N 0.38344 0.69204 0.0564 0.0
N416 N 0.39416 0.79139 0.08645 0.0
C417 C 0.39458 0.74741 0.10591 0.0
C418 C 0.389 0.69289 0.08949 0.0
C419 C 0.78831 0.42999 0.30871 0.0
C420 C 0.79125 0.42452 0.27451 0.0
C421 C 0.73658 0.42921 0.3241 0.0
C422 C 0.68441 0.42184 0.30622 0.0
H423 H 0.82714 0.43696 0.3237 0.0
H424 H 0.73801 0.43515 0.35042 0.0
S425 S 0.66531 0.39819 0.21624 0.0
N426 N 0.73455 0.40679 0.22343 0.0
N427 N 0.63814 0.40426 0.2522 0.0
C428 C 0.68568 0.41356 0.27214 0.0
C429 C 0.73864 0.41519 0.25642 0.0
C430 C 0.32723 0.69575 0.48584 0.0
C431 C 0.29749 0.65974 0.45769 0.0
C432 C 0.3859 0.75186 0.48417 0.0
C433 C 0.41898 0.77503 0.45435 0.0
H434 H 0.30427 0.68141 0.5094 0.0
H435 H 0.40516 0.77775 0.50668 0.0
S436 S 0.36487 0.69588 0.37363 0.0
N437 N 0.30842 0.65033 0.39904 0.0
N438 N 0.41763 0.75401 0.39609 0.0
C439 C 0.39079 0.73817 0.4262 0.0
C440 C 0.33072 0.68138 0.42782 0.0
C441 C 0.71647 0.39555 0.64033 0.0
C442 C 0.70499 0.39241 0.60639 0.0
C443 C 0.7197 0.34726 0.6573 0.0
C444 C 0.71232 0.29268 0.64142 0.0
H445 H 0.72295 0.43578 0.65403 0.0
H446 H 0.72796 0.353 0.68342 0.0
S447 S 0.68392 0.26101 0.5525 0.0
N448 N 0.68789 0.32905 0.55741 0.0
N449 N 0.69466 0.24028 0.58905 0.0
C450 C 0.70223 0.28949 0.60739 0.0
C451 C 0.69847 0.33845 0.59009 0.0
C452 C 0.32731 0.68953 0.80791 0.0
C453 C 0.31431 0.67312 0.77458 0.0
C454 C 0.38023 0.69379 0.82366 0.0
C455 C 0.424 0.68253 0.80702 0.0
H456 H 0.29594 0.69852 0.82219 0.0
H457 H 0.38649 0.70575 0.84943 0.0
S458 S 0.4154 0.64233 0.71874 0.0
N459 N 0.35311 0.64859 0.72502 0.0
N460 N 0.45101 0.65675 0.75443 0.0
C461 C 0.41265 0.6679 0.77346 0.0
C462 C 0.35861 0.6632 0.75741 0.0
C463 C 0.67347 0.31449 0.9724 0.0
C464 C 0.66542 0.31533 0.93825 0.0
C465 C 0.72482 0.36436 0.98908 0.0
C466 C 0.77157 0.41838 0.97278 0.0
H467 H 0.64012 0.27456 0.98648 0.0
H468 H 0.72795 0.35998 1.01525 0.0
S469 S 0.77139 0.44725 0.88373 0.0
N470 N 0.70861 0.37805 0.88905 0.0
N471 N 0.80374 0.4697 0.92017 0.0
C472 C 0.76346 0.42042 0.93878 0.0
C473 C 0.71111 0.36981 0.92173 0.0
C474 C 0.4507 0.19157 0.97021 0.0
C475 C 0.4467 0.13983 0.9861 0.0
C476 C 0.47649 0.24958 0.986 0.0
C477 C 0.49732 0.25686 1.01853 0.0
H478 H 0.43144 0.18661 0.94608 0.0
H479 H 0.47698 0.28802 0.97326 0.0
S480 S 0.50067 0.13601 0.06956 0.0
N481 N 0.4684 0.09953 1.03498 0.0
N482 N 0.51609 0.20866 0.06522 0.0
C483 C 0.49486 0.20569 1.03436 0.0
C484 C 0.4694 0.14694 1.01804 0.0
C485 C 0.29206 0.46716 0.18364 0.0
C486 C 0.22723 0.43485 0.178 0.0
C487 C 0.33108 0.44852 0.16828 0.0
C488 C 0.30654 0.39643 0.14716 0.0
H489 H 0.31276 0.50659 0.20035 0.0
H490 H 0.38046 0.47383 0.17373 0.0
S491 S 0.14174 0.29764 0.12251 0.0
N492 N 0.14154 0.34959 0.14791 0.0
N493 N 0.21485 0.3143 0.1204 0.0
C494 C 0.24252 0.36448 0.14085 0.0
C495 C 0.20291 0.3838 0.15588 0.0
C496 C 0.83797 0.27648 0.31504 0.0
C497 C 0.83663 0.24731 0.34471 0.0
C498 C 0.89222 0.30576 0.29587 0.0
C499 C 0.94791 0.31036 0.3064 0.0
H500 H 0.79643 0.27517 0.30601 0.0
H501 H 0.88986 0.32292 0.27225 0.0
S502 S 0.96584 0.23068 0.37878 0.0
N503 N 0.89322 0.21529 0.38063 0.0
N504 N 0.99594 0.27516 0.34637 0.0
C505 C 0.94629 0.27863 0.33523 0.0
C506 C 0.89065 0.24654 0.35405 0.0
C507 C 0.63047 0.86467 0.46089 0.0
C508 C 0.67207 0.92035 0.47711 0.0
C509 C 0.6073 0.80634 0.47618 0.0
C510 C 0.62587 0.80147 0.50811 0.0
H511 H 0.61792 0.86587 0.43575 0.0
H512 H 0.57616 0.7647 0.46239 0.0
S513 S 0.73691 0.93394 0.56025 0.0
N514 N 0.73131 0.96715 0.52671 0.0
N515 N 0.69012 0.85829 0.55487 0.0
C516 C 0.66745 0.85712 0.52454 0.0
C517 C 0.69022 0.91624 0.50913 0.0
C518 C 0.8226 0.66675 0.64739 0.0
C519 C 0.75898 0.6257 0.65253 0.0
C520 C 0.8671 0.65926 0.66391 0.0
C521 C 0.84963 0.61101 0.68676 0.0
H522 H 0.8383 0.70688 0.63161 0.0
H523 H 0.91566 0.69313 0.65938 0.0
S524 S 0.68804 0.48923 0.70763 0.0
N525 N 0.67959 0.53376 0.68064 0.0
N526 N 0.76383 0.51935 0.71238 0.0
C527 C 0.78582 0.56814 0.69135 0.0
C528 C 0.74024 0.5757 0.67413 0.0
C529 C 0.17496 0.83077 0.80419 0.0
C530 C 0.14516 0.76621 0.80935 0.0
C531 C 0.23089 0.87135 0.81999 0.0
C532 C 0.25773 0.84891 0.8424 0.0
H533 H 0.15467 0.8501 0.78799 0.0
H534 H 0.25231 0.92092 0.81523 0.0
S535 S 0.19477 0.68348 0.86572 0.0
N536 N 0.14466 0.68112 0.83854 0.0
N537 N 0.2491 0.75778 0.86951 0.0
C538 C 0.22764 0.78427 0.84814 0.0
C539 C 0.17142 0.74277 0.83128 0.0
C540 C 0.82991 0.6118 0.93196 0.0
C541 C 0.82676 0.63281 0.90068 0.0
C542 C 0.88745 0.63368 0.94743 0.0
C543 C 0.94348 0.67596 0.93198 0.0
H544 H 0.78766 0.57933 0.94479 0.0
H545 H 0.88764 0.61969 0.97213 0.0
S546 S 0.95688 0.75938 0.85461 0.0
N547 N 0.88182 0.70821 0.858 0.0
N548 N 0.99045 0.7473 0.88614 0.0
C549 C 0.94008 0.70044 0.90152 0.0
C550 C 0.88153 0.67896 0.88603 0.0
C551 C 0.33583 0.91955 0.06259 0.0
C552 C 0.33033 0.91913 0.09687 0.0
C553 C 0.30687 0.86382 0.04445 0.0
C554 C 0.27178 0.80577 0.05996 0.0
H555 H 0.36183 0.96338 0.04964 0.0
H556 H 0.31081 0.86617 1.01808 0.0
S557 S 0.23919 0.77993 0.14896 0.0
N558 N 0.28364 0.85636 0.14527 0.0
N559 N 0.23181 0.7514 0.11159 0.0
C560 C 0.26671 0.80471 0.09429 0.0
C561 C 0.29522 0.86154 0.11264 0.0
C562 C 0.46717 0.30355 0.28171 0.0
C563 C 0.42129 0.31132 0.26637 0.0
C564 C 0.48981 0.26727 0.2674 0.0
C565 C 0.4641 0.234 0.23816 0.0
H566 H 0.48337 0.32296 0.30561 0.0
H567 H 0.52662 0.26417 0.27974 0.0
S568 S 0.32368 0.21596 0.19659 0.0
N569 N 0.34043 0.27021 0.22457 0.0
N570 N 0.37811 0.19697 0.19983 0.0
C571 C 0.41271 0.23503 0.22479 0.0
C572 C 0.39188 0.27424 0.23853 0.0
C573 C 0.15771 0.43772 0.39638 0.0
C574 C 0.15058 0.43386 0.43065 0.0
C575 C 0.21692 0.46327 0.38167 0.0
C576 C 0.27136 0.48586 0.40067 0.0
H577 H 0.11708 0.42008 0.38078 0.0
H578 H 0.21988 0.46427 0.35522 0.0
S579 S 0.27715 0.4817 0.49144 0.0
N580 N 0.20247 0.45067 0.48288 0.0
N581 N 0.31345 0.501 0.45581 0.0
C582 C 0.26467 0.48263 0.435 0.0
C583 C 0.20438 0.45583 0.44983 0.0
C584 C 0.85908 0.1575 0.63341 0.0
C585 C 0.80185 0.1153 0.61903 0.0
C586 C 0.90227 0.21137 0.61663 0.0
C587 C 0.89016 0.2231 0.58461 0.0
H588 H 0.87079 0.14842 0.65744 0.0
H589 H 0.94569 0.24351 0.6286 0.0
S590 S 0.74933 0.12056 0.53553 0.0
N591 N 0.7363 0.08517 0.57109 0.0
N592 N 0.81812 0.18443 0.53857 0.0
C593 C 0.83376 0.17917 0.56969 0.0
C594 C 0.78943 0.12564 0.58717 0.0
C595 C 0.59469 0.7651 0.72769 0.0
C596 C 0.62549 0.82846 0.73713 0.0
C597 C 0.60975 0.72314 0.7421 0.0
C598 C 0.65647 0.74361 0.76599 0.0
H599 H 0.5597 0.74811 0.70864 0.0
H600 H 0.58632 0.67503 0.73374 0.0
S601 S 0.75257 0.90393 0.79865 0.0
N602 N 0.70507 0.90882 0.77236 0.0
N603 N 0.73445 0.83014 0.79792 0.0
C604 C 0.68734 0.80622 0.77573 0.0
C605 C 0.67148 0.84866 0.76171 0.0
C606 C 0.48294 0.53656 0.97256 0.0
C607 C 0.51128 0.5112 0.99236 0.0
C608 C 0.50401 0.55816 0.94023 0.0
C609 C 0.55428 0.55513 0.92578 0.0
H610 H 0.4433 0.5389 0.98188 0.0
H611 H 0.48018 0.57691 0.92637 0.0
S612 S 0.64869 0.49808 0.968 0.0
N613 N 0.59614 0.48962 0.99546 0.0
N614 N 0.63351 0.52671 0.93531 0.0
C615 C 0.58358 0.53077 0.94564 0.0
C616 C 0.56279 0.50985 0.97857 0.0
C617 C 0.09417 0.56818 0.13911 0.0
C618 C 1.04002 0.53727 0.15863 0.0
C619 C 0.09194 0.58418 0.10632 0.0
C620 C 1.0354 0.56951 0.09092 0.0
H621 H 0.13902 0.57952 0.14902 0.0
H622 H 0.13523 0.60754 0.09276 0.0
S623 S 0.87998 0.49195 0.13096 0.0
N624 N 0.92779 0.49542 0.15988 0.0
N625 N 0.92386 0.52414 0.09833 0.0
C626 C 0.98086 0.53921 0.11006 0.0
C627 C 0.98313 0.52365 0.14374 0.0
C628 C 0.49707 0.9625 0.27769 0.0
C629 C 0.52284 1.01533 0.25715 0.0
C630 C 0.51583 0.96663 0.31084 0.0
C631 C 0.56221 1.02361 0.32482 0.0
H632 H 0.46095 0.918 0.26845 0.0
H633 H 0.49403 0.92464 0.32546 0.0
S634 S 0.6471 0.17501 0.28055 0.0
N635 N 0.59912 0.12555 0.25293 0.0
N636 N 0.63408 0.13373 0.31418 0.0
C637 C 0.58904 0.07625 0.30404 0.0
C638 C 0.56964 0.07201 0.27063 0.0
C639 C 0.60565 0.56013 0.42465 0.0
C640 C 0.54435 0.51037 0.41983 0.0
C641 C 0.63252 0.57631 0.45621 0.0
C642 C 0.6005 0.54183 0.48426 0.0
H643 H 0.63227 0.58837 0.40402 0.0
H644 H 0.67862 0.61692 0.45876 0.0
S645 S 0.44077 0.40407 0.48478 0.0
N646 N 0.45334 0.42524 0.44595 0.0
N647 N 0.5049 0.45365 0.50461 0.0
C648 C 0.54036 0.49021 0.47956 0.0
C649 C 0.51212 0.47503 0.4476 0.0
C650 C 0.08147 0.52387 0.64634 0.0
C651 C 0.06697 0.57004 0.65497 0.0
C652 C 0.0745 0.50154 0.61382 0.0
C653 C 0.0562 0.52684 0.58816 0.0
H654 H 0.09512 0.50258 0.66511 0.0
H655 H 0.08233 0.46312 0.60883 0.0
S656 S 1.01864 0.65298 0.59726 0.0
N657 N 1.03587 0.64233 0.63479 0.0
N658 N 1.02716 0.60336 0.57368 0.0
C659 C 1.04532 0.57566 0.59615 0.0
C660 C 0.04984 0.5966 0.62946 0.0
C661 C 0.56833 0.09689 0.80574 0.0
C662 C 0.53205 0.0425 0.8244 0.0
C663 C 0.58565 0.09396 0.77299 0.0
C664 C 0.56733 0.03646 0.757 0.0
H665 H 0.58313 0.14239 0.81638 0.0
H666 H 0.61413 0.13747 0.76016 0.0
S667 S 0.47396 0.87967 0.79513 0.0
N668 N 0.48001 0.92887 0.82422 0.0
N669 N 0.5116 0.92345 0.76335 0.0
C670 C 0.53116 0.98166 0.77547 0.0
C671 C 0.51391 0.98465 0.80882 0.0
C672 C 0.43722 0.19254 0.12933 0.0
C673 C 0.38226 0.13383 0.12577 0.0
C674 C 0.43711 0.24981 0.12659 0.0
C675 C 0.38203 0.25121 0.11978 0.0
H676 H 0.48095 0.19448 0.13381 0.0
H677 H 0.48042 0.29303 0.1304 0.0
S678 S 0.22612 0.1113 0.10657 0.0
N679 N 0.27162 0.08205 0.1138 0.0
N680 N 0.27158 0.18789 0.10856 0.0
C681 C 0.3274 0.19292 0.11535 0.0
C682 C 0.32751 0.13506 0.11819 0.0
C683 C 0.22595 0.3378 0.28298 0.0
C684 C 0.28288 0.39373 0.28806 0.0
C685 C 0.16977 0.33718 0.27793 0.0
C686 C 0.16671 0.39239 0.27766 0.0
H687 H 0.22459 0.29342 0.2828 0.0
H688 H 0.12777 0.29232 0.27451 0.0
S689 S 0.30271 0.55207 0.2891 0.0
N690 N 0.33328 0.50646 0.2899 0.0
N691 N 0.22696 0.50496 0.28471 0.0
C692 C 0.22327 0.44877 0.28305 0.0
C693 C 0.28132 0.44953 0.28709 0.0
C694 C 0.87765 0.25762 0.45152 0.0
C695 C 0.93674 0.26498 0.45783 0.0
C696 C 0.82272 0.19772 0.4497 0.0
C697 C 0.82432 0.14157 0.45187 0.0
H698 H 0.87404 0.2985 0.4468 0.0
H699 H 0.77898 0.19597 0.4461 0.0
S700 S 0.96771 0.13467 0.46877 0.0
N701 N 0.99283 0.21028 0.46753 0.0
N702 N 0.89191 0.09907 0.46209 0.0
C703 C 0.88342 0.14872 0.45859 0.0
C704 C 0.9388 0.20961 0.46153 0.0
C705 C 0.74593 0.82536 0.64076 0.0
C706 C 0.69052 0.77214 0.63026 0.0
C707 C 0.75 0.88352 0.64591 0.0
C708 C 0.69879 0.89236 0.6412 0.0
H709 H 0.78728 0.82223 0.64498 0.0
H710 H 0.79458 0.92259 0.65329 0.0
S711 S 0.54126 0.76769 0.61527 0.0
N712 N 0.58152 0.7314 0.61771 0.0
N713 N 0.59027 0.84147 0.62474 0.0
C714 C 0.64264 0.83944 0.63098 0.0
C715 C 0.63826 0.77941 0.62621 0.0
C716 C 0.85929 0.72815 0.77837 0.0
C717 C 0.80401 0.67222 0.78641 0.0
C718 C 0.91761 0.73162 0.77574 0.0
C719 C 0.92453 0.67934 0.78091 0.0
H720 H 0.85785 0.77059 0.77452 0.0
H721 H 0.95824 0.77644 0.77027 0.0
S722 S 0.79493 0.51945 0.7991 0.0
N723 N 0.76012 0.56095 0.79557 0.0
N724 N 0.87011 0.56883 0.79382 0.0
C725 C 0.86981 0.62258 0.78832 0.0
C726 C 0.8097 0.61865 0.79021 0.0
C727 C 0.21764 0.81118 0.95247 0.0
C728 C 0.16304 0.81157 0.96143 0.0
C729 C 0.27641 0.86696 0.95199 0.0
C730 C 0.28286 0.92566 0.95956 0.0
H731 H 0.21492 0.76756 0.94567 0.0
H732 H 0.3169 0.86349 0.94616 0.0
S733 S 0.15338 0.95146 0.98423 0.0
N734 N 0.1192 0.87532 0.97818 0.0
N735 N 0.22806 0.97928 0.97656 0.0
C736 C 0.22822 0.92601 0.96866 0.0
C737 C 0.16887 0.86949 0.96944 0.0
C738 C 0.81418 0.63069 0.11309 0.0
C739 C 0.81865 0.65416 0.08148 0.0
C740 C 0.75612 0.59443 0.12778 0.0
C741 C 0.70148 0.58111 0.11112 0.0
H742 H 0.8552 0.63603 0.12533 0.0
H743 H 0.75388 0.57243 0.15098 0.0
S744 S 0.69161 0.6459 1.03118 0.0
N745 N 0.76652 0.67083 1.03602 0.0
N746 N 0.65673 0.60557 0.06443 0.0
C747 C 0.70642 0.61109 0.08115 0.0
C748 C 0.76545 0.64682 0.06598 0.0
C749 C 0.34375 0.79392 0.27883 0.0
C750 C 0.31672 0.83172 0.28397 0.0
C751 C 0.31611 0.73406 0.29189 0.0
C752 C 0.26253 0.71165 0.31125 0.0
H753 H 0.38173 0.8063 0.26201 0.0
H754 H 0.33218 0.70292 0.28369 0.0
S755 S 0.1991 0.80525 0.34776 0.0
N756 N 0.25195 0.85234 0.32116 0.0
N757 N 0.20034 0.73935 0.34603 0.0
C758 C 0.24625 0.75444 0.32357 0.0
C759 C 0.27378 0.81522 0.30991 0.0
C760 C 0.47265 0.20036 0.41592 0.0
C761 C 0.48792 0.26078 0.42534 0.0
C762 C 0.50877 0.17558 0.4264 0.0
C763 C 0.56024 0.21056 0.44679 0.0
H764 H 0.43462 0.17352 0.39909 0.0
H765 H 0.49727 0.12941 0.41801 0.0
S766 S 0.6155 0.36897 0.48019 0.0
N767 N 0.55509 0.35409 0.45708 0.0
N768 N 0.62248 0.30617 0.47789 0.0
C769 C 0.57398 0.26972 0.45778 0.0
C770 C 0.5378 0.2954 0.44665 0.0
C771 C 0.31142 0.5766 0.58178 0.0
C772 C 0.26418 0.52903 0.60096 0.0
C773 C 0.37369 0.59584 0.58721 0.0
C774 C 0.39057 0.5685 0.61215 0.0
H775 H 0.30129 0.593 0.55951 0.0
H776 H 0.40652 0.6255 0.56882 0.0
S777 S 0.28762 0.46877 0.67898 0.0
N778 N 0.24012 0.47415 0.65282 0.0
N779 N 0.35835 0.51132 0.66352 0.0
C780 C 0.34546 0.53288 0.6359 0.0
C781 C 0.28172 0.5129 0.6302 0.0
C782 C 0.91527 0.26409 0.77814 0.0
C783 C 0.9153 0.25277 0.74451 0.0
C784 C 0.94485 0.32505 0.79016 0.0
C785 C 0.97524 0.37597 0.76875 0.0
H786 H 0.88718 0.22619 0.79479 0.0
H787 H 0.93827 0.33209 0.81574 0.0
S788 S 1.00614 0.36787 0.6804 0.0
N789 N 0.95945 0.29456 0.69124 0.0
N790 N 1.01838 0.41006 0.71398 0.0
C791 C 0.98381 0.36439 0.73589 0.0
C792 C 0.95263 0.30227 0.72364 0.0
C793 C 0.65323 0.86551 0.93628 0.0
C794 C 0.6724 0.88236 0.90382 0.0
C795 C 0.61532 0.8845 0.95157 0.0
C796 C 0.59609 0.92107 0.93473 0.0
H797 H 0.66246 0.83258 0.94876 0.0
H798 H 0.59657 0.86564 0.97551 0.0
S799 S 0.65142 0.99281 0.85283 0.0
N800 N 0.6806 0.94644 0.85743 0.0
N801 N 0.6133 0.98712 0.88708 0.0
C802 C 0.62303 0.94574 0.90396 0.0
C803 C 0.66017 0.92482 0.88812 0.0
C804 C 0.45329 0.36153 0.85177 0.0
C805 C 0.46554 0.3656 0.81786 0.0
C806 C 0.41987 0.30351 0.86687 0.0
C807 C 0.39574 0.24862 0.84822 0.0
H808 H 0.47392 0.40274 0.86722 0.0
H809 H 0.41777 0.30143 0.89337 0.0
S810 S 0.39514 0.23471 0.75796 0.0
N811 N 0.43707 0.31037 0.76547 0.0
N812 N 0.3719 0.20133 0.79407 0.0
C813 C 0.39734 0.25239 0.81401 0.0
C814 C 0.43271 0.31127 0.79864 0.0
C815 C 0.15575 0.44107 0.96979 0.0
C816 C 0.12808 0.46867 0.98827 0.0
C817 C 0.17815 0.4062 0.98497 0.0
C818 C 0.17385 0.3984 1.019 0.0
H819 H 0.16474 0.45051 0.94388 0.0
H820 H 0.20364 0.38978 0.97037 0.0
S821 S 0.08978 0.44496 0.07699 0.0
N822 N 0.08404 0.47254 0.04128 0.0
N823 N 0.13058 0.41018 0.07004 0.0
C824 C 0.14057 0.41968 1.03732 0.0
C825 C 0.11629 0.45397 1.02181 0.0
C826 C 0.77313 0.32081 0.15338 0.0
C827 C 0.8181 0.30775 0.14052 0.0
C828 C 0.71322 0.29194 0.14035 0.0
C829 C 0.69628 0.24701 0.11528 0.0
H830 H 0.78058 0.34633 0.17606 0.0
H831 H 0.67904 0.29826 0.15356 0.0
S832 S 0.8069 0.22869 0.0616 0.0
N833 N 0.84949 0.27118 0.09282 0.0
N834 N 0.73599 0.21645 0.06829 0.0
C835 C 0.74503 0.24843 0.09681 0.0
C836 C 0.80625 0.27795 0.10997 0.0
C837 C 0.49578 0.78801 0.30613 0.0
C838 C 0.55722 0.83132 0.2962 0.0
C839 C 0.46723 0.72613 0.29528 0.0
C840 C 0.49969 0.70693 0.27444 0.0
H841 H 0.47208 0.79853 0.3251 0.0
H842 H 0.42356 0.69277 0.30649 0.0
S843 S 0.63536 0.81325 0.22297 0.0
N844 N 0.63083 0.85892 0.25111 0.0
N845 N 0.57655 0.74237 0.23032 0.0
C846 C 0.54969 0.75394 0.25643 0.0
C847 C 0.57897 0.81684 0.26759 0.0
C848 C 0.92097 0.55853 0.48461 0.0
C849 C 0.87282 0.50648 0.46793 0.0
C850 C 0.91422 0.60932 0.49331 0.0
C851 C 0.85933 0.60918 0.48573 0.0
H852 H 0.96018 0.55745 0.49513 0.0
H853 H 0.94764 0.64379 0.51015 0.0
S854 S 0.73374 0.49942 0.43043 0.0
N855 N 0.77942 0.46937 0.43465 0.0
N856 N 0.76615 0.56451 0.45231 0.0
C857 C 0.81756 0.5646 0.46352 0.0
C858 C 0.82461 0.51315 0.45424 0.0
C859 C 0.29468 0.75218 0.6423 0.0
C860 C 0.26084 0.78363 0.6387 0.0
C861 C 0.35203 0.77397 0.6269 0.0
C862 C 0.37743 0.82775 0.60758 0.0
H863 H 0.28157 0.71482 0.65952 0.0
H864 H 0.3798 0.75308 0.63322 0.0
S865 S 0.29667 0.90965 0.57891 0.0
N866 N 0.24802 0.8577 0.60539 0.0
N867 N 0.35761 0.89989 0.57736 0.0
C868 C 0.33926 0.85163 0.59851 0.0
C869 C 0.28035 0.82918 0.61398 0.0
loop_
_geom_bond_atom_site_label_1
_geom_bond_atom_site_label_2
_geom_bond_distance
_geom_bond_site_symmetry_2
_ccdc_geom_bond_type
Zn0 N4 2.020 . S
Zn0 O8 2.019 . S
Zn0 N10 2.119 1_554 S
Zn0 O18 1.975 1_554 S
C1 N2 1.334 . S
C1 N5 1.336 . S
N2 C1 1.334 . S
N2 C3 1.334 . S
C3 N2 1.334 . S
C3 N4 1.336 . S
N4 Zn0 2.020 . S
N4 C3 1.336 . S
N4 N5 1.354 . S
N5 C1 1.336 . S
N5 N4 1.354 . S
N5 Zn9 2.020 . S
C6 O7 1.244 . S
C6 O30 1.257 . S
O7 C6 1.244 . S
O8 Zn0 2.019 . S
O8 C28 1.257 . S
Zn9 N5 2.020 . S
Zn9 O16 1.975 1_554 S
Zn9 N25 2.119 . S
Zn9 O30 2.019 1_554 S
N10 Zn0 2.119 1_556 S
N10 C12 1.334 . S
N10 C13 1.331 . S
C11 C12 1.391 . S
C11 N14 1.329 . S
C11 H32 0.930 . S
C12 N10 1.334 . S
C12 C11 1.391 . S
C12 H19 0.930 . S
C13 N10 1.331 . S
C13 C15 1.413 . S
C13 H20 0.907 1_556 S
N14 C11 1.329 . S
N14 C15 1.331 . S
C15 C13 1.413 . S
C15 N14 1.331 . S
O16 Zn9 1.975 1_556 S
O16 C17 1.252 . S
C17 O16 1.252 . S
C17 O18 1.252 . S
O18 Zn0 1.975 1_556 S
O18 C17 1.252 . S
H19 C12 0.930 . S
H20 C13 0.907 1_554 S
C21 C22 1.392 . S
C21 N25 1.328 . S
C21 H27 0.930 . S
C22 C21 1.392 . S
C22 N26 1.331 . S
C23 C24 1.391 . S
C23 N26 1.329 . S
C23 H33 0.930 . S
C24 C23 1.391 . S
C24 N25 1.334 . S
C24 H31 0.930 . S
N25 Zn9 2.119 . S
N25 C21 1.328 . S
N25 C24 1.334 . S
N26 C22 1.331 . S
N26 C23 1.329 . S
H27 C21 0.930 . S
C28 O8 1.257 . S
C28 O29 1.244 . S
O29 C28 1.244 . S
O30 C6 1.257 . S
O30 Zn9 2.019 1_556 S
H31 C24 0.930 . S
H32 C11 0.930 . S
H33 C23 0.930 . S
Zn34 N38 2.020 1_455 S
Zn34 O42 2.019 . S
Zn34 N44 2.119 . S
Zn34 O52 1.975 1_455 S
C35 N36 1.334 . S
C35 N39 1.336 . S
N36 C35 1.334 . S
N36 C37 1.334 1_655 S
C37 N36 1.334 1_455 S
C37 N38 1.336 1_455 S
N38 Zn34 2.020 1_655 S
N38 C37 1.336 1_655 S
N38 N39 1.354 . S
N39 C35 1.336 . S
N39 N38 1.354 . S
N39 Zn43 2.020 . S
C40 O41 1.244 . S
C40 O64 1.257 . S
O41 C40 1.244 . S
O42 Zn34 2.019 . S
O42 C62 1.257 . S
Zn43 N39 2.020 . S
Zn43 O50 1.975 . S
Zn43 N59 2.119 . S
Zn43 O64 2.019 . S
N44 Zn34 2.119 . S
N44 C46 1.334 . S
N44 C47 1.328 . S
C45 C46 1.391 . S
C45 N48 1.329 . S
C45 H66 0.930 . S
C46 N44 1.334 . S
C46 C45 1.391 . S
C46 H53 0.930 1_455 S
C47 N44 1.328 . S
C47 C49 1.392 . S
C47 H54 0.930 . S
N48 C45 1.329 . S
N48 C49 1.331 . S
C49 C47 1.392 . S
C49 N48 1.331 . S
O50 Zn43 1.975 . S
O50 C51 1.252 . S
C51 O50 1.252 . S
C51 O52 1.252 . S
O52 Zn34 1.975 1_655 S
O52 C51 1.252 . S
H53 C46 0.930 1_655 S
H54 C47 0.930 . S
C55 C56 1.392 . S
C55 N59 1.328 . S
C55 H61 0.930 . S
C56 C55 1.392 . S
C56 N60 1.331 . S
C57 C58 1.391 . S
C57 N60 1.329 . S
C57 H67 0.930 . S
C58 C57 1.391 . S
C58 N59 1.334 . S
C58 H65 0.930 . S
N59 Zn43 2.119 . S
N59 C55 1.328 . S
N59 C58 1.334 . S
N60 C56 1.331 . S
N60 C57 1.329 . S
H61 C55 0.930 . S
C62 O42 1.257 . S
C62 O63 1.244 . S
O63 C62 1.244 . S
O64 C40 1.257 . S
O64 Zn43 2.019 . S
H65 C58 0.930 . S
H66 C45 0.930 . S
H67 C57 0.930 . S
Zn68 N72 2.020 . S
Zn68 O76 2.019 . S
Zn68 N78 2.119 . S
Zn68 O86 1.975 . S
C69 N70 1.334 1_545 S
C69 N73 1.336 1_545 S
N70 C69 1.334 1_565 S
N70 C71 1.334 . S
C71 N70 1.334 . S
C71 N72 1.336 . S
N72 Zn68 2.020 . S
N72 C71 1.336 . S
N72 N73 1.354 . S
N73 C69 1.336 1_565 S
N73 N72 1.354 . S
N73 Zn77 2.020 1_565 S
C74 O75 1.244 . S
C74 O98 1.257 . S
O75 C74 1.244 . S
O76 Zn68 2.019 . S
O76 C96 1.257 . S
Zn77 N73 2.020 1_545 S
Zn77 O84 1.975 1_545 S
Zn77 N93 2.119 . S
Zn77 O98 2.019 . S
N78 Zn68 2.119 . S
N78 C80 1.334 . S
N78 C81 1.328 . S
C79 C80 1.391 . S
C79 N82 1.329 . S
C79 H100 0.930 . S
C80 N78 1.334 . S
C80 C79 1.391 . S
C80 H87 0.930 . S
C81 N78 1.328 . S
C81 C83 1.392 . S
C81 H88 0.930 . S
N82 C79 1.329 . S
N82 C83 1.331 . S
C83 C81 1.392 . S
C83 N82 1.331 . S
O84 Zn77 1.975 1_565 S
O84 C85 1.252 . S
C85 O84 1.252 . S
C85 O86 1.252 . S
O86 Zn68 1.975 . S
O86 C85 1.252 . S
H87 C80 0.930 . S
H88 C81 0.930 . S
C89 C90 1.392 . S
C89 N93 1.328 . S
C89 H95 0.930 . S
C90 C89 1.392 . S
C90 N94 1.331 . S
C91 C92 1.391 . S
C91 N94 1.329 . S
C91 H101 0.930 . S
C92 C91 1.391 . S
C92 N93 1.334 . S
C92 H99 0.930 1_545 S
N93 Zn77 2.119 . S
N93 C89 1.328 . S
N93 C92 1.334 . S
N94 C90 1.331 . S
N94 C91 1.329 . S
H95 C89 0.930 . S
C96 O76 1.257 . S
C96 O97 1.244 . S
O97 C96 1.244 . S
O98 C74 1.257 . S
O98 Zn77 2.019 . S
H99 C92 0.930 1_565 S
H100 C79 0.930 . S
H101 C91 0.930 . S
Zn102 N106 2.020 . S
Zn102 O110 2.019 . S
Zn102 N112 2.119 . S
Zn102 O120 1.975 . S
C103 N104 1.334 . S
C103 N107 1.336 . S
N104 C103 1.334 . S
N104 C105 1.334 . S
C105 N104 1.334 . S
C105 N106 1.336 . S
N106 Zn102 2.020 . S
N106 C105 1.336 . S
N106 N107 1.354 . S
N107 C103 1.336 . S
N107 N106 1.354 . S
N107 Zn111 2.020 . S
C108 O109 1.244 . S
C108 O132 1.257 . S
O109 C108 1.244 . S
O110 Zn102 2.019 . S
O110 C130 1.257 . S
Zn111 N107 2.020 . S
Zn111 O118 1.975 . S
Zn111 N127 2.119 . S
Zn111 O132 2.019 . S
N112 Zn102 2.119 . S
N112 C114 1.334 . S
N112 C115 1.328 . S
C113 C114 1.391 . S
C113 N116 1.329 . S
C113 H134 0.930 . S
C114 N112 1.334 . S
C114 C113 1.391 . S
C114 H121 0.930 . S
C115 N112 1.328 . S
C115 C117 1.392 . S
C115 H122 0.930 . S
N116 C113 1.329 . S
N116 C117 1.331 . S
C117 C115 1.392 . S
C117 N116 1.331 . S
O118 Zn111 1.975 . S
O118 C119 1.252 . S
C119 O118 1.252 . S
C119 O120 1.252 . S
O120 Zn102 1.975 . S
O120 C119 1.252 . S
H121 C114 0.930 . S
H122 C115 0.930 . S
C123 C124 1.392 . S
C123 N127 1.328 . S
C123 H129 0.930 . S
C124 C123 1.392 . S
C124 N128 1.331 . S
C125 C126 1.391 . S
C125 N128 1.329 . S
C125 H135 0.930 . S
C126 C125 1.391 . S
C126 N127 1.334 . S
C126 H133 0.930 . S
N127 Zn111 2.119 . S
N127 C123 1.328 . S
N127 C126 1.334 . S
N128 C124 1.331 . S
N128 C125 1.329 . S
H129 C123 0.930 . S
C130 O110 1.257 . S
C130 O131 1.244 . S
O131 C130 1.244 . S
O132 C108 1.257 . S
O132 Zn111 2.019 . S
H133 C126 0.930 . S
H134 C113 0.930 . S
H135 C125 0.930 . S
Zn136 N140 2.020 . S
Zn136 O144 2.019 . S
Zn136 N146 2.119 . S
Zn136 O154 1.975 . S
C137 N138 1.334 1_655 S
C137 N141 1.336 1_655 S
N138 C137 1.334 1_455 S
N138 C139 1.334 . S
C139 N138 1.334 . S
C139 N140 1.336 . S
N140 Zn136 2.020 . S
N140 C139 1.336 . S
N140 N141 1.354 . S
N141 C137 1.336 1_455 S
N141 N140 1.354 . S
N141 Zn145 2.020 1_455 S
C142 O143 1.244 . S
C142 O166 1.257 . S
O143 C142 1.244 . S
O144 Zn136 2.019 . S
O144 C164 1.257 . S
Zn145 N141 2.020 1_655 S
Zn145 O152 1.975 1_655 S
Zn145 N161 2.119 . S
Zn145 O166 2.019 . S
N146 Zn136 2.119 . S
N146 C148 1.334 . S
N146 C149 1.328 . S
C147 C148 1.391 . S
C147 N150 1.329 . S
C147 H168 0.930 . S
C148 N146 1.334 . S
C148 C147 1.391 . S
C148 H155 0.930 . S
C149 N146 1.328 . S
C149 C151 1.392 . S
C149 H156 0.930 . S
N150 C147 1.329 . S
N150 C151 1.331 . S
C151 C149 1.392 . S
C151 N150 1.331 . S
O152 Zn145 1.975 1_455 S
O152 C153 1.252 . S
C153 O152 1.252 . S
C153 O154 1.252 . S
O154 Zn136 1.975 . S
O154 C153 1.252 . S
H155 C148 0.930 . S
H156 C149 0.930 . S
C157 C158 1.392 . S
C157 N161 1.328 . S
C157 H163 0.930 . S
C158 C157 1.392 . S
C158 N162 1.331 . S
C159 C160 1.391 . S
C159 N162 1.329 . S
C159 H169 0.930 . S
C160 C159 1.391 . S
C160 N161 1.334 . S
C160 H167 0.930 1_655 S
N161 Zn145 2.119 . S
N161 C157 1.328 . S
N161 C160 1.334 . S
N162 C158 1.331 . S
N162 C159 1.329 . S
H163 C157 0.930 . S
C164 O144 1.257 . S
C164 O165 1.244 . S
O165 C164 1.244 . S
O166 C142 1.257 . S
O166 Zn145 2.019 . S
H167 C160 0.930 1_455 S
H168 C147 0.930 . S
H169 C159 0.930 . S
Zn170 N174 2.020 1_565 S
Zn170 O178 2.019 . S
Zn170 N180 2.119 . S
Zn170 O188 1.975 1_565 S
C171 N172 1.334 . S
C171 N175 1.336 . S
N172 C171 1.334 . S
N172 C173 1.334 1_545 S
C173 N172 1.334 1_565 S
C173 N174 1.336 1_565 S
N174 Zn170 2.020 1_545 S
N174 C173 1.336 1_545 S
N174 N175 1.354 . S
N175 C171 1.336 . S
N175 N174 1.354 . S
N175 Zn179 2.020 . S
C176 O177 1.244 . S
C176 O200 1.257 . S
O177 C176 1.244 . S
O178 Zn170 2.019 . S
O178 C198 1.257 . S
Zn179 N175 2.020 . S
Zn179 O186 1.975 . S
Zn179 N195 2.119 . S
Zn179 O200 2.019 . S
N180 Zn170 2.119 . S
N180 C182 1.334 . S
N180 C183 1.328 . S
C181 C182 1.391 . S
C181 N184 1.329 . S
C181 H202 0.930 . S
C182 N180 1.334 . S
C182 C181 1.391 . S
C182 H189 0.930 1_565 S
C183 N180 1.328 . S
C183 C185 1.392 . S
C183 H190 0.930 . S
N184 C181 1.329 . S
N184 C185 1.331 . S
C185 C183 1.392 . S
C185 N184 1.331 . S
O186 Zn179 1.975 . S
O186 C187 1.252 . S
C187 O186 1.252 . S
C187 O188 1.252 . S
O188 Zn170 1.975 1_545 S
O188 C187 1.252 . S
H189 C182 0.930 1_545 S
H190 C183 0.930 . S
C191 C192 1.392 . S
C191 N195 1.328 . S
C191 H197 0.930 . S
C192 C191 1.392 . S
C192 N196 1.331 . S
C193 C194 1.391 . S
C193 N196 1.329 . S
C193 H203 0.930 . S
C194 C193 1.391 . S
C194 N195 1.334 . S
C194 H201 0.930 . S
N195 Zn179 2.119 . S
N195 C191 1.328 . S
N195 C194 1.334 . S
N196 C192 1.331 . S
N196 C193 1.329 . S
H197 C191 0.930 . S
C198 O178 1.257 . S
C198 O199 1.244 . S
O199 C198 1.244 . S
O200 C176 1.257 . S
O200 Zn179 2.019 . S
H201 C194 0.930 . S
H202 C181 0.930 . S
H203 C193 0.930 . S
Zn204 N208 2.020 . S
Zn204 O212 2.019 . S
Zn204 N214 2.119 . S
Zn204 O222 1.975 . S
C205 N206 1.334 . S
C205 N209 1.336 . S
N206 C205 1.334 . S
N206 C207 1.334 . S
C207 N206 1.334 . S
C207 N208 1.336 . S
N208 Zn204 2.020 . S
N208 C207 1.336 . S
N208 N209 1.354 . S
N209 C205 1.336 . S
N209 N208 1.354 . S
N209 Zn213 2.020 . S
C210 O211 1.244 . S
C210 O234 1.257 . S
O211 C210 1.244 . S
O212 Zn204 2.019 . S
O212 C232 1.257 . S
Zn213 N209 2.020 . S
Zn213 O220 1.975 . S
Zn213 N229 2.119 . S
Zn213 O234 2.019 . S
N214 Zn204 2.119 . S
N214 C216 1.334 . S
N214 C217 1.328 . S
C215 C216 1.391 . S
C215 N218 1.329 . S
C215 H236 0.930 . S
C216 N214 1.334 . S
C216 C215 1.391 . S
C216 H223 0.930 . S
C217 N214 1.328 . S
C217 C219 1.392 . S
C217 H224 0.930 . S
N218 C215 1.329 . S
N218 C219 1.331 . S
C219 C217 1.392 . S
C219 N218 1.331 . S
O220 Zn213 1.975 . S
O220 C221 1.252 . S
C221 O220 1.252 . S
C221 O222 1.252 . S
O222 Zn204 1.975 . S
O222 C221 1.252 . S
H223 C216 0.930 . S
H224 C217 0.930 . S
C225 C226 1.392 . S
C225 N229 1.328 . S
C225 H231 0.930 . S
C226 C225 1.392 . S
C226 N230 1.331 . S
C227 C228 1.391 . S
C227 N230 1.329 . S
C227 H237 0.930 . S
C228 C227 1.391 . S
C228 N229 1.334 . S
C228 H235 0.930 . S
N229 Zn213 2.119 . S
N229 C225 1.328 . S
N229 C228 1.334 . S
N230 C226 1.331 . S
N230 C227 1.329 . S
H231 C225 0.930 . S
C232 O212 1.257 . S
C232 O233 1.244 . S
O233 C232 1.244 . S
O234 C210 1.257 . S
O234 Zn213 2.019 . S
H235 C228 0.930 . S
H236 C215 0.930 . S
H237 C227 0.930 . S
Zn238 N242 2.020 1_455 S
Zn238 O246 2.019 1_556 S
Zn238 N248 2.119 . S
Zn238 O256 1.975 1_456 S
C239 N240 1.334 . S
C239 N243 1.336 . S
N240 C239 1.334 . S
N240 C241 1.334 1_655 S
C241 N240 1.334 1_455 S
C241 N242 1.336 1_455 S
N242 Zn238 2.020 1_655 S
N242 C241 1.336 1_655 S
N242 N243 1.354 . S
N243 C239 1.336 . S
N243 N242 1.354 . S
N243 Zn247 2.020 . S
C244 O245 1.244 . S
C244 O268 1.257 . S
O245 C244 1.244 . S
O246 Zn238 2.019 1_554 S
O246 C266 1.257 . S
Zn247 N243 2.020 . S
Zn247 O254 1.975 1_556 S
Zn247 N263 2.119 1_556 S
Zn247 O268 2.019 . S
N248 Zn238 2.119 . S
N248 C250 1.334 . S
N248 C251 1.328 . S
C249 C250 1.391 . S
C249 N252 1.329 . S
C249 H270 0.930 . S
C250 N248 1.334 . S
C250 C249 1.391 . S
C250 H257 0.930 1_455 S
C251 N248 1.328 . S
C251 C253 1.392 . S
C251 H258 0.930 . S
N252 C249 1.329 . S
N252 C253 1.331 . S
C253 C251 1.392 . S
C253 N252 1.331 . S
O254 Zn247 1.975 1_554 S
O254 C255 1.252 . S
C255 O254 1.252 . S
C255 O256 1.252 . S
O256 Zn238 1.975 1_654 S
O256 C255 1.252 . S
H257 C250 0.930 1_655 S
H258 C251 0.930 . S
C259 C260 1.413 . S
C259 N263 1.331 . S
C259 H265 0.907 1_554 S
C260 C259 1.413 . S
C260 N264 1.331 . S
C261 C262 1.391 . S
C261 N264 1.329 . S
C261 H271 0.930 . S
C262 C261 1.391 . S
C262 N263 1.334 . S
C262 H269 0.930 . S
N263 Zn247 2.119 1_554 S
N263 C259 1.331 . S
N263 C262 1.334 . S
N264 C260 1.331 . S
N264 C261 1.329 . S
H265 C259 0.907 1_556 S
C266 O246 1.257 . S
C266 O267 1.244 . S
O267 C266 1.244 . S
O268 C244 1.257 . S
O268 Zn247 2.019 . S
H269 C262 0.930 . S
H270 C249 0.930 . S
H271 C261 0.930 . S
Zn272 N276 2.020 . S
Zn272 O280 2.019 . S
Zn272 N282 2.119 . S
Zn272 O290 1.975 . S
C273 N274 1.334 1_545 S
C273 N277 1.336 1_545 S
N274 C273 1.334 1_565 S
N274 C275 1.334 . S
C275 N274 1.334 . S
C275 N276 1.336 . S
N276 Zn272 2.020 . S
N276 C275 1.336 . S
N276 N277 1.354 . S
N277 C273 1.336 1_565 S
N277 N276 1.354 . S
N277 Zn281 2.020 1_565 S
C278 O279 1.244 . S
C278 O302 1.257 . S
O279 C278 1.244 . S
O280 Zn272 2.019 . S
O280 C300 1.257 . S
Zn281 N277 2.020 1_545 S
Zn281 O288 1.975 1_545 S
Zn281 N297 2.119 . S
Zn281 O302 2.019 . S
N282 Zn272 2.119 . S
N282 C284 1.334 . S
N282 C285 1.328 . S
C283 C284 1.391 . S
C283 N286 1.329 . S
C283 H304 0.930 . S
C284 N282 1.334 . S
C284 C283 1.391 . S
C284 H291 0.930 . S
C285 N282 1.328 . S
C285 C287 1.392 . S
C285 H292 0.930 . S
N286 C283 1.329 . S
N286 C287 1.331 . S
C287 C285 1.392 . S
C287 N286 1.331 . S
O288 Zn281 1.975 1_565 S
O288 C289 1.252 . S
C289 O288 1.252 . S
C289 O290 1.252 . S
O290 Zn272 1.975 . S
O290 C289 1.252 . S
H291 C284 0.930 . S
H292 C285 0.930 . S
C293 C294 1.392 . S
C293 N297 1.328 . S
C293 H299 0.930 . S
C294 C293 1.392 . S
C294 N298 1.331 . S
C295 C296 1.391 . S
C295 N298 1.329 . S
C295 H305 0.930 . S
C296 C295 1.391 . S
C296 N297 1.334 . S
C296 H303 0.930 1_545 S
N297 Zn281 2.119 . S
N297 C293 1.328 . S
N297 C296 1.334 . S
N298 C294 1.331 . S
N298 C295 1.329 . S
H299 C293 0.930 . S
C300 O280 1.257 . S
C300 O301 1.244 . S
O301 C300 1.244 . S
O302 C278 1.257 . S
O302 Zn281 2.019 . S
H303 C296 0.930 1_565 S
H304 C283 0.930 . S
H305 C295 0.930 . S
Zn306 N310 2.020 . S
Zn306 O314 2.019 . S
Zn306 N316 2.119 . S
Zn306 O324 1.975 . S
C307 N308 1.334 . S
C307 N311 1.336 . S
N308 C307 1.334 . S
N308 C309 1.334 . S
C309 N308 1.334 . S
C309 N310 1.336 . S
N310 Zn306 2.020 . S
N310 C309 1.336 . S
N310 N311 1.354 . S
N311 C307 1.336 . S
N311 N310 1.354 . S
N311 Zn315 2.020 . S
C312 O313 1.244 . S
C312 O336 1.257 . S
O313 C312 1.244 . S
O314 Zn306 2.019 . S
O314 C334 1.257 . S
Zn315 N311 2.020 . S
Zn315 O322 1.975 . S
Zn315 N331 2.119 . S
Zn315 O336 2.019 . S
N316 Zn306 2.119 . S
N316 C318 1.334 . S
N316 C319 1.328 . S
C317 C318 1.391 . S
C317 N320 1.329 . S
C317 H338 0.930 . S
C318 N316 1.334 . S
C318 C317 1.391 . S
C318 H325 0.930 . S
C319 N316 1.328 . S
C319 C321 1.392 . S
C319 H326 0.930 . S
N320 C317 1.329 . S
N320 C321 1.331 . S
C321 C319 1.392 . S
C321 N320 1.331 . S
O322 Zn315 1.975 . S
O322 C323 1.252 . S
C323 O322 1.252 . S
C323 O324 1.252 . S
O324 Zn306 1.975 . S
O324 C323 1.252 . S
H325 C318 0.930 . S
H326 C319 0.930 . S
C327 C328 1.392 . S
C327 N331 1.328 . S
C327 H333 0.930 . S
C328 C327 1.392 . S
C328 N332 1.331 . S
C329 C330 1.391 . S
C329 N332 1.329 . S
C329 H339 0.930 . S
C330 C329 1.391 . S
C330 N331 1.334 . S
C330 H337 0.930 . S
N331 Zn315 2.119 . S
N331 C327 1.328 . S
N331 C330 1.334 . S
N332 C328 1.331 . S
N332 C329 1.329 . S
H333 C327 0.930 . S
C334 O314 1.257 . S
C334 O335 1.244 . S
O335 C334 1.244 . S
O336 C312 1.257 . S
O336 Zn315 2.019 . S
H337 C330 0.930 . S
H338 C317 0.930 . S
H339 C329 0.930 . S
Zn340 N344 2.020 . S
Zn340 O348 2.019 . S
Zn340 N350 2.119 . S
Zn340 O358 1.975 . S
C341 N342 1.334 1_655 S
C341 N345 1.336 1_655 S
N342 C341 1.334 1_455 S
N342 C343 1.334 . S
C343 N342 1.334 . S
C343 N344 1.336 . S
N344 Zn340 2.020 . S
N344 C343 1.336 . S
N344 N345 1.354 . S
N345 C341 1.336 1_455 S
N345 N344 1.354 . S
N345 Zn349 2.020 1_455 S
C346 O347 1.244 . S
C346 O370 1.257 . S
O347 C346 1.244 . S
O348 Zn340 2.019 . S
O348 C368 1.257 . S
Zn349 N345 2.020 1_655 S
Zn349 O356 1.975 1_655 S
Zn349 N365 2.119 . S
Zn349 O370 2.019 . S
N350 Zn340 2.119 . S
N350 C352 1.334 . S
N350 C353 1.328 . S
C351 C352 1.391 . S
C351 N354 1.329 . S
C351 H372 0.930 . S
C352 N350 1.334 . S
C352 C351 1.391 . S
C352 H359 0.930 . S
C353 N350 1.328 . S
C353 C355 1.392 . S
C353 H360 0.930 . S
N354 C351 1.329 . S
N354 C355 1.331 . S
C355 C353 1.392 . S
C355 N354 1.331 . S
O356 Zn349 1.975 1_455 S
O356 C357 1.252 . S
C357 O356 1.252 . S
C357 O358 1.252 . S
O358 Zn340 1.975 . S
O358 C357 1.252 . S
H359 C352 0.930 . S
H360 C353 0.930 . S
C361 C362 1.392 . S
C361 N365 1.328 . S
C361 H367 0.930 . S
C362 C361 1.392 . S
C362 N366 1.331 . S
C363 C364 1.391 . S
C363 N366 1.329 . S
C363 H373 0.930 . S
C364 C363 1.391 . S
C364 N365 1.334 . S
C364 H371 0.930 1_655 S
N365 Zn349 2.119 . S
N365 C361 1.328 . S
N365 C364 1.334 . S
N366 C362 1.331 . S
N366 C363 1.329 . S
H367 C361 0.930 . S
C368 O348 1.257 . S
C368 O369 1.244 . S
O369 C368 1.244 . S
O370 C346 1.257 . S
O370 Zn349 2.019 . S
H371 C364 0.930 1_455 S
H372 C351 0.930 . S
H373 C363 0.930 . S
Zn374 N378 2.020 1_565 S
Zn374 O382 2.019 . S
Zn374 N384 2.119 . S
Zn374 O392 1.975 1_565 S
C375 N376 1.334 . S
C375 N379 1.336 . S
N376 C375 1.334 . S
N376 C377 1.334 1_545 S
C377 N376 1.334 1_565 S
C377 N378 1.336 1_565 S
N378 Zn374 2.020 1_545 S
N378 C377 1.336 1_545 S
N378 N379 1.354 . S
N379 C375 1.336 . S
N379 N378 1.354 . S
N379 Zn383 2.020 . S
C380 O381 1.244 . S
C380 O404 1.257 . S
O381 C380 1.244 . S
O382 Zn374 2.019 . S
O382 C402 1.257 . S
Zn383 N379 2.020 . S
Zn383 O390 1.975 . S
Zn383 N399 2.119 . S
Zn383 O404 2.019 . S
N384 Zn374 2.119 . S
N384 C386 1.334 . S
N384 C387 1.328 . S
C385 C386 1.391 . S
C385 N388 1.329 . S
C385 H406 0.930 . S
C386 N384 1.334 . S
C386 C385 1.391 . S
C386 H393 0.930 1_565 S
C387 N384 1.328 . S
C387 C389 1.392 . S
C387 H394 0.930 . S
N388 C385 1.329 . S
N388 C389 1.331 . S
C389 C387 1.392 . S
C389 N388 1.331 . S
O390 Zn383 1.975 . S
O390 C391 1.252 . S
C391 O390 1.252 . S
C391 O392 1.252 . S
O392 Zn374 1.975 1_545 S
O392 C391 1.252 . S
H393 C386 0.930 1_545 S
H394 C387 0.930 . S
C395 C396 1.392 . S
C395 N399 1.328 . S
C395 H401 0.930 . S
C396 C395 1.392 . S
C396 N400 1.331 . S
C397 C398 1.391 . S
C397 N400 1.329 . S
C397 H407 0.930 . S
C398 C397 1.391 . S
C398 N399 1.334 . S
C398 H405 0.930 . S
N399 Zn383 2.119 . S
N399 C395 1.328 . S
N399 C398 1.334 . S
N400 C396 1.331 . S
N400 C397 1.329 . S
H401 C395 0.930 . S
C402 O382 1.257 . S
C402 O403 1.244 . S
O403 C402 1.244 . S
O404 C380 1.257 . S
O404 Zn383 2.019 . S
H405 C398 0.930 . S
H406 C385 0.930 . S
H407 C397 0.930 . S
C408 C409 1.369 . S
C408 C410 1.419 . S
C408 H412 0.930 . S
C409 C408 1.369 . S
C409 C418 1.429 . S
C410 C408 1.419 . S
C410 C411 1.363 . S
C410 H413 0.929 . S
C411 C410 1.363 . S
C411 C417 1.428 . S
H412 C408 0.930 . S
H413 C410 0.929 . S
S414 N415 1.613 . S
S414 N416 1.610 . S
N415 S414 1.613 . S
N415 C418 1.350 . S
N416 S414 1.610 . S
N416 C417 1.351 . S
C417 C411 1.428 . S
C417 N416 1.351 . S
C417 C418 1.434 . S
C418 C409 1.429 . S
C418 N415 1.350 . S
C418 C417 1.434 . S
C419 C420 1.369 . S
C419 C421 1.419 . S
C419 H423 0.930 . S
C420 C419 1.369 . S
C420 C429 1.429 . S
C421 C419 1.419 . S
C421 C422 1.363 . S
C421 H424 0.929 . S
C422 C421 1.363 . S
C422 C428 1.428 . S
H423 C419 0.930 . S
H424 C421 0.929 . S
S425 N426 1.613 . S
S425 N427 1.610 . S
N426 S425 1.613 . S
N426 C429 1.350 . S
N427 S425 1.610 . S
N427 C428 1.351 . S
C428 C422 1.428 . S
C428 N427 1.351 . S
C428 C429 1.434 . S
C429 C420 1.429 . S
C429 N426 1.350 . S
C429 C428 1.434 . S
C430 C431 1.369 . S
C430 C432 1.419 . S
C430 H434 0.930 . S
C431 C430 1.369 . S
C431 C440 1.429 . S
C432 C430 1.419 . S
C432 C433 1.363 . S
C432 H435 0.929 . S
C433 C432 1.363 . S
C433 C439 1.428 . S
H434 C430 0.930 . S
H435 C432 0.929 . S
S436 N437 1.613 . S
S436 N438 1.610 . S
N437 S436 1.613 . S
N437 C440 1.350 . S
N438 S436 1.610 . S
N438 C439 1.351 . S
C439 C433 1.428 . S
C439 N438 1.351 . S
C439 C440 1.434 . S
C440 C431 1.429 . S
C440 N437 1.350 . S
C440 C439 1.434 . S
C441 C442 1.369 . S
C441 C443 1.419 . S
C441 H445 0.930 . S
C442 C441 1.369 . S
C442 C451 1.429 . S
C443 C441 1.419 . S
C443 C444 1.363 . S
C443 H446 0.929 . S
C444 C443 1.363 . S
C444 C450 1.428 . S
H445 C441 0.930 . S
H446 C443 0.929 . S
S447 N448 1.613 . S
S447 N449 1.610 . S
N448 S447 1.613 . S
N448 C451 1.350 . S
N449 S447 1.610 . S
N449 C450 1.351 . S
C450 C444 1.428 . S
C450 N449 1.351 . S
C450 C451 1.434 . S
C451 C442 1.429 . S
C451 N448 1.350 . S
C451 C450 1.434 . S
C452 C453 1.369 . S
C452 C454 1.419 . S
C452 H456 0.930 . S
C453 C452 1.369 . S
C453 C462 1.429 . S
C454 C452 1.419 . S
C454 C455 1.363 . S
C454 H457 0.929 . S
C455 C454 1.363 . S
C455 C461 1.428 . S
H456 C452 0.930 . S
H457 C454 0.929 . S
S458 N459 1.613 . S
S458 N460 1.610 . S
N459 S458 1.613 . S
N459 C462 1.350 . S
N460 S458 1.610 . S
N460 C461 1.351 . S
C461 C455 1.428 . S
C461 N460 1.351 . S
C461 C462 1.434 . S
C462 C453 1.429 . S
C462 N459 1.350 . S
C462 C461 1.434 . S
C463 C464 1.369 . S
C463 C465 1.419 . S
C463 H467 0.930 . S
C464 C463 1.369 . S
C464 C473 1.429 . S
C465 C463 1.419 . S
C465 C466 1.363 . S
C465 H468 0.929 . S
C466 C465 1.363 . S
C466 C472 1.428 . S
H467 C463 0.930 . S
H468 C465 0.929 . S
S469 N470 1.613 . S
S469 N471 1.610 . S
N470 S469 1.613 . S
N470 C473 1.350 . S
N471 S469 1.610 . S
N471 C472 1.351 . S
C472 C466 1.428 . S
C472 N471 1.351 . S
C472 C473 1.434 . S
C473 C464 1.429 . S
C473 N470 1.350 . S
C473 C472 1.434 . S
C474 C475 1.369 . S
C474 C476 1.419 . S
C474 H478 0.930 . S
C475 C474 1.369 . S
C475 C484 1.429 . S
C476 C474 1.419 . S
C476 C477 1.363 . S
C476 H479 0.929 . S
C477 C476 1.363 . S
C477 C483 1.428 . S
H478 C474 0.930 . S
H479 C476 0.929 . S
S480 N481 1.613 1_554 S
S480 N482 1.610 1_554 S
N481 S480 1.613 1_556 S
N481 C484 1.350 . S
N482 S480 1.610 1_556 S
N482 C483 1.351 . S
C483 C477 1.428 . S
C483 N482 1.351 . S
C483 C484 1.434 . S
C484 C475 1.429 . S
C484 N481 1.350 . S
C484 C483 1.434 . S
C485 C486 1.369 . S
C485 C487 1.419 . S
C485 H489 0.930 . S
C486 C485 1.369 . S
C486 C495 1.429 . S
C487 C485 1.419 . S
C487 C488 1.363 . S
C487 H490 0.929 . S
C488 C487 1.363 . S
C488 C494 1.428 . S
H489 C485 0.930 . S
H490 C487 0.929 . S
S491 N492 1.613 . S
S491 N493 1.610 . S
N492 S491 1.613 . S
N492 C495 1.350 . S
N493 S491 1.610 . S
N493 C494 1.351 . S
C494 C488 1.428 . S
C494 N493 1.351 . S
C494 C495 1.434 . S
C495 C486 1.429 . S
C495 N492 1.350 . S
C495 C494 1.434 . S
C496 C497 1.369 . S
C496 C498 1.419 . S
C496 H500 0.930 . S
C497 C496 1.369 . S
C497 C506 1.429 . S
C498 C496 1.419 . S
C498 C499 1.363 . S
C498 H501 0.929 . S
C499 C498 1.363 . S
C499 C505 1.428 . S
H500 C496 0.930 . S
H501 C498 0.929 . S
S502 N503 1.613 . S
S502 N504 1.610 . S
N503 S502 1.613 . S
N503 C506 1.350 . S
N504 S502 1.610 . S
N504 C505 1.351 . S
C505 C499 1.428 . S
C505 N504 1.351 . S
C505 C506 1.434 . S
C506 C497 1.429 . S
C506 N503 1.350 . S
C506 C505 1.434 . S
C507 C508 1.369 . S
C507 C509 1.419 . S
C507 H511 0.930 . S
C508 C507 1.369 . S
C508 C517 1.429 . S
C509 C507 1.419 . S
C509 C510 1.363 . S
C509 H512 0.929 . S
C510 C509 1.363 . S
C510 C516 1.428 . S
H511 C507 0.930 . S
H512 C509 0.929 . S
S513 N514 1.613 . S
S513 N515 1.610 . S
N514 S513 1.613 . S
N514 C517 1.350 . S
N515 S513 1.610 . S
N515 C516 1.351 . S
C516 C510 1.428 . S
C516 N515 1.351 . S
C516 C517 1.434 . S
C517 C508 1.429 . S
C517 N514 1.350 . S
C517 C516 1.434 . S
C518 C519 1.369 . S
C518 C520 1.419 . S
C518 H522 0.930 . S
C519 C518 1.369 . S
C519 C528 1.429 . S
C520 C518 1.419 . S
C520 C521 1.363 . S
C520 H523 0.929 . S
C521 C520 1.363 . S
C521 C527 1.428 . S
H522 C518 0.930 . S
H523 C520 0.929 . S
S524 N525 1.613 . S
S524 N526 1.610 . S
N525 S524 1.613 . S
N525 C528 1.350 . S
N526 S524 1.610 . S
N526 C527 1.351 . S
C527 C521 1.428 . S
C527 N526 1.351 . S
C527 C528 1.434 . S
C528 C519 1.429 . S
C528 N525 1.350 . S
C528 C527 1.434 . S
C529 C530 1.369 . S
C529 C531 1.419 . S
C529 H533 0.930 . S
C530 C529 1.369 . S
C530 C539 1.429 . S
C531 C529 1.419 . S
C531 C532 1.363 . S
C531 H534 0.929 . S
C532 C531 1.363 . S
C532 C538 1.428 . S
H533 C529 0.930 . S
H534 C531 0.929 . S
S535 N536 1.613 . S
S535 N537 1.610 . S
N536 S535 1.613 . S
N536 C539 1.350 . S
N537 S535 1.610 . S
N537 C538 1.351 . S
C538 C532 1.428 . S
C538 N537 1.351 . S
C538 C539 1.434 . S
C539 C530 1.429 . S
C539 N536 1.350 . S
C539 C538 1.434 . S
C540 C541 1.369 . S
C540 C542 1.419 . S
C540 H544 0.930 . S
C541 C540 1.369 . S
C541 C550 1.429 . S
C542 C540 1.419 . S
C542 C543 1.363 . S
C542 H545 0.929 . S
C543 C542 1.363 . S
C543 C549 1.428 . S
H544 C540 0.930 . S
H545 C542 0.929 . S
S546 N547 1.613 . S
S546 N548 1.610 . S
N547 S546 1.613 . S
N547 C550 1.350 . S
N548 S546 1.610 . S
N548 C549 1.351 . S
C549 C543 1.428 . S
C549 N548 1.351 . S
C549 C550 1.434 . S
C550 C541 1.429 . S
C550 N547 1.350 . S
C550 C549 1.434 . S
C551 C552 1.369 . S
C551 C553 1.419 . S
C551 H555 0.930 . S
C552 C551 1.369 . S
C552 C561 1.429 . S
C553 C551 1.419 . S
C553 C554 1.363 . S
C553 H556 0.929 . S
C554 C553 1.363 . S
C554 C560 1.428 . S
H555 C551 0.930 . S
H556 C553 0.929 . S
S557 N558 1.613 . S
S557 N559 1.610 . S
N558 S557 1.613 . S
N558 C561 1.350 . S
N559 S557 1.610 . S
N559 C560 1.351 . S
C560 C554 1.428 . S
C560 N559 1.351 . S
C560 C561 1.434 . S
C561 C552 1.429 . S
C561 N558 1.350 . S
C561 C560 1.434 . S
C562 C563 1.369 . S
C562 C564 1.419 . S
C562 H566 0.930 . S
C563 C562 1.369 . S
C563 C572 1.429 . S
C564 C562 1.419 . S
C564 C565 1.363 . S
C564 H567 0.929 . S
C565 C564 1.363 . S
C565 C571 1.428 . S
H566 C562 0.930 . S
H567 C564 0.929 . S
S568 N569 1.613 . S
S568 N570 1.610 . S
N569 S568 1.613 . S
N569 C572 1.350 . S
N570 S568 1.610 . S
N570 C571 1.351 . S
C571 C565 1.428 . S
C571 N570 1.351 . S
C571 C572 1.434 . S
C572 C563 1.429 . S
C572 N569 1.350 . S
C572 C571 1.434 . S
C573 C574 1.369 . S
C573 C575 1.419 . S
C573 H577 0.930 . S
C574 C573 1.369 . S
C574 C583 1.429 . S
C575 C573 1.419 . S
C575 C576 1.363 . S
C575 H578 0.929 . S
C576 C575 1.363 . S
C576 C582 1.428 . S
H577 C573 0.930 . S
H578 C575 0.929 . S
S579 N580 1.613 . S
S579 N581 1.610 . S
N580 S579 1.613 . S
N580 C583 1.350 . S
N581 S579 1.610 . S
N581 C582 1.351 . S
C582 C576 1.428 . S
C582 N581 1.351 . S
C582 C583 1.434 . S
C583 C574 1.429 . S
C583 N580 1.350 . S
C583 C582 1.434 . S
C584 C585 1.369 . S
C584 C586 1.419 . S
C584 H588 0.930 . S
C585 C584 1.369 . S
C585 C594 1.429 . S
C586 C584 1.419 . S
C586 C587 1.363 . S
C586 H589 0.929 . S
C587 C586 1.363 . S
C587 C593 1.428 . S
H588 C584 0.930 . S
H589 C586 0.929 . S
S590 N591 1.613 . S
S590 N592 1.610 . S
N591 S590 1.613 . S
N591 C594 1.350 . S
N592 S590 1.610 . S
N592 C593 1.351 . S
C593 C587 1.428 . S
C593 N592 1.351 . S
C593 C594 1.434 . S
C594 C585 1.429 . S
C594 N591 1.350 . S
C594 C593 1.434 . S
C595 C596 1.369 . S
C595 C597 1.419 . S
C595 H599 0.930 . S
C596 C595 1.369 . S
C596 C605 1.429 . S
C597 C595 1.419 . S
C597 C598 1.363 . S
C597 H600 0.929 . S
C598 C597 1.363 . S
C598 C604 1.428 . S
H599 C595 0.930 . S
H600 C597 0.929 . S
S601 N602 1.613 . S
S601 N603 1.610 . S
N602 S601 1.613 . S
N602 C605 1.350 . S
N603 S601 1.610 . S
N603 C604 1.351 . S
C604 C598 1.428 . S
C604 N603 1.351 . S
C604 C605 1.434 . S
C605 C596 1.429 . S
C605 N602 1.350 . S
C605 C604 1.434 . S
C606 C607 1.369 . S
C606 C608 1.419 . S
C606 H610 0.930 . S
C607 C606 1.369 . S
C607 C616 1.429 . S
C608 C606 1.419 . S
C608 C609 1.363 . S
C608 H611 0.929 . S
C609 C608 1.363 . S
C609 C615 1.428 . S
H610 C606 0.930 . S
H611 C608 0.929 . S
S612 N613 1.613 . S
S612 N614 1.610 . S
N613 S612 1.613 . S
N613 C616 1.350 . S
N614 S612 1.610 . S
N614 C615 1.351 . S
C615 C609 1.428 . S
C615 N614 1.351 . S
C615 C616 1.434 . S
C616 C607 1.429 . S
C616 N613 1.350 . S
C616 C615 1.434 . S
C617 C618 1.369 . S
C617 C619 1.419 . S
C617 H621 0.916 1_655 S
C618 C617 1.369 . S
C618 C627 1.429 . S
C619 C617 1.419 . S
C619 C620 1.363 . S
C619 H622 0.921 1_655 S
C620 C619 1.363 . S
C620 C626 1.428 . S
H621 C617 0.916 1_455 S
H622 C619 0.921 1_455 S
S623 N624 1.613 . S
S623 N625 1.610 . S
N624 S623 1.613 . S
N624 C627 1.350 . S
N625 S623 1.610 . S
N625 C626 1.351 . S
C626 C620 1.428 . S
C626 N625 1.351 . S
C626 C627 1.434 . S
C627 C618 1.429 . S
C627 N624 1.350 . S
C627 C626 1.434 . S
C628 C629 1.369 . S
C628 C630 1.419 . S
C628 H632 0.930 . S
C629 C628 1.369 . S
C629 C638 1.429 . S
C630 C628 1.419 . S
C630 C631 1.363 . S
C630 H633 0.929 . S
C631 C630 1.363 . S
C631 C637 1.428 . S
H632 C628 0.930 . S
H633 C630 0.929 . S
S634 N635 1.613 . S
S634 N636 1.610 . S
N635 S634 1.613 . S
N635 C638 1.350 1_545 S
N636 S634 1.610 . S
N636 C637 1.351 1_545 S
C637 C631 1.428 . S
C637 N636 1.351 1_565 S
C637 C638 1.434 . S
C638 C629 1.429 . S
C638 N635 1.350 1_565 S
C638 C637 1.434 . S
C639 C640 1.369 . S
C639 C641 1.419 . S
C639 H643 0.930 . S
C640 C639 1.369 . S
C640 C649 1.429 . S
C641 C639 1.419 . S
C641 C642 1.363 . S
C641 H644 0.929 . S
C642 C641 1.363 . S
C642 C648 1.428 . S
H643 C639 0.930 . S
H644 C641 0.929 . S
S645 N646 1.613 . S
S645 N647 1.610 . S
N646 S645 1.613 . S
N646 C649 1.350 . S
N647 S645 1.610 . S
N647 C648 1.351 . S
C648 C642 1.428 . S
C648 N647 1.351 . S
C648 C649 1.434 . S
C649 C640 1.429 . S
C649 N646 1.350 . S
C649 C648 1.434 . S
C650 C651 1.369 . S
C650 C652 1.419 . S
C650 H654 0.930 . S
C651 C650 1.369 . S
C651 C660 1.429 . S
C652 C650 1.419 . S
C652 C653 1.363 . S
C652 H655 0.929 . S
C653 C652 1.363 . S
C653 C659 1.428 . S
H654 C650 0.930 . S
H655 C652 0.929 . S
S656 N657 1.613 . S
S656 N658 1.610 . S
N657 S656 1.613 . S
N657 C660 1.350 . S
N658 S656 1.610 . S
N658 C659 1.351 . S
C659 C653 1.428 . S
C659 N658 1.351 . S
C659 C660 1.434 . S
C660 C651 1.429 . S
C660 N657 1.350 . S
C660 C659 1.434 . S
C661 C662 1.369 . S
C661 C663 1.419 . S
C661 H665 0.930 . S
C662 C661 1.369 . S
C662 C671 1.429 . S
C663 C661 1.419 . S
C663 C664 1.363 . S
C663 H666 0.929 . S
C664 C663 1.363 . S
C664 C670 1.428 . S
H665 C661 0.930 . S
H666 C663 0.929 . S
S667 N668 1.613 . S
S667 N669 1.610 . S
N668 S667 1.613 . S
N668 C671 1.350 1_565 S
N669 S667 1.610 . S
N669 C670 1.351 1_565 S
C670 C664 1.428 . S
C670 N669 1.351 1_545 S
C670 C671 1.434 . S
C671 C662 1.429 . S
C671 N668 1.350 1_545 S
C671 C670 1.434 . S
C672 C673 1.369 . S
C672 C674 1.419 . S
C672 H676 0.930 . S
C673 C672 1.369 . S
C673 C682 1.429 . S
C674 C672 1.419 . S
C674 C675 1.363 . S
C674 H677 0.929 . S
C675 C674 1.363 . S
C675 C681 1.428 . S
H676 C672 0.930 . S
H677 C674 0.929 . S
S678 N679 1.613 . S
S678 N680 1.610 . S
N679 S678 1.613 . S
N679 C682 1.350 . S
N680 S678 1.610 . S
N680 C681 1.351 . S
C681 C675 1.428 . S
C681 N680 1.351 . S
C681 C682 1.434 . S
C682 C673 1.429 . S
C682 N679 1.350 . S
C682 C681 1.434 . S
C683 C684 1.369 . S
C683 C685 1.419 . S
C683 H687 0.930 . S
C684 C683 1.369 . S
C684 C693 1.429 . S
C685 C683 1.419 . S
C685 C686 1.363 . S
C685 H688 0.929 . S
C686 C685 1.363 . S
C686 C692 1.428 . S
H687 C683 0.930 . S
H688 C685 0.929 . S
S689 N690 1.613 . S
S689 N691 1.610 . S
N690 S689 1.613 . S
N690 C693 1.350 . S
N691 S689 1.610 . S
N691 C692 1.351 . S
C692 C686 1.428 . S
C692 N691 1.351 . S
C692 C693 1.434 . S
C693 C684 1.429 . S
C693 N690 1.350 . S
C693 C692 1.434 . S
C694 C695 1.369 . S
C694 C696 1.419 . S
C694 H698 0.930 . S
C695 C694 1.369 . S
C695 C704 1.429 . S
C696 C694 1.419 . S
C696 C697 1.363 . S
C696 H699 0.929 . S
C697 C696 1.363 . S
C697 C703 1.428 . S
H698 C694 0.930 . S
H699 C696 0.929 . S
S700 N701 1.613 . S
S700 N702 1.610 . S
N701 S700 1.613 . S
N701 C704 1.350 . S
N702 S700 1.610 . S
N702 C703 1.351 . S
C703 C697 1.428 . S
C703 N702 1.351 . S
C703 C704 1.434 . S
C704 C695 1.429 . S
C704 N701 1.350 . S
C704 C703 1.434 . S
C705 C706 1.369 . S
C705 C707 1.419 . S
C705 H709 0.930 . S
C706 C705 1.369 . S
C706 C715 1.429 . S
C707 C705 1.419 . S
C707 C708 1.363 . S
C707 H710 0.929 . S
C708 C707 1.363 . S
C708 C714 1.428 . S
H709 C705 0.930 . S
H710 C707 0.929 . S
S711 N712 1.613 . S
S711 N713 1.610 . S
N712 S711 1.613 . S
N712 C715 1.350 . S
N713 S711 1.610 . S
N713 C714 1.351 . S
C714 C708 1.428 . S
C714 N713 1.351 . S
C714 C715 1.434 . S
C715 C706 1.429 . S
C715 N712 1.350 . S
C715 C714 1.434 . S
C716 C717 1.369 . S
C716 C718 1.419 . S
C716 H720 0.930 . S
C717 C716 1.369 . S
C717 C726 1.429 . S
C718 C716 1.419 . S
C718 C719 1.363 . S
C718 H721 0.929 . S
C719 C718 1.363 . S
C719 C725 1.428 . S
H720 C716 0.930 . S
H721 C718 0.929 . S
S722 N723 1.613 . S
S722 N724 1.610 . S
N723 S722 1.613 . S
N723 C726 1.350 . S
N724 S722 1.610 . S
N724 C725 1.351 . S
C725 C719 1.428 . S
C725 N724 1.351 . S
C725 C726 1.434 . S
C726 C717 1.429 . S
C726 N723 1.350 . S
C726 C725 1.434 . S
C727 C728 1.369 . S
C727 C729 1.419 . S
C727 H731 0.930 . S
C728 C727 1.369 . S
C728 C737 1.429 . S
C729 C727 1.419 . S
C729 C730 1.363 . S
C729 H732 0.929 . S
C730 C729 1.363 . S
C730 C736 1.428 . S
H731 C727 0.930 . S
H732 C729 0.929 . S
S733 N734 1.613 . S
S733 N735 1.610 . S
N734 S733 1.613 . S
N734 C737 1.350 . S
N735 S733 1.610 . S
N735 C736 1.351 . S
C736 C730 1.428 . S
C736 N735 1.351 . S
C736 C737 1.434 . S
C737 C728 1.429 . S
C737 N734 1.350 . S
C737 C736 1.434 . S
C738 C739 1.369 . S
C738 C740 1.419 . S
C738 H742 0.930 . S
C739 C738 1.369 . S
C739 C748 1.429 . S
C740 C738 1.419 . S
C740 C741 1.363 . S
C740 H743 0.929 . S
C741 C740 1.363 . S
C741 C747 1.428 . S
H742 C738 0.930 . S
H743 C740 0.929 . S
S744 N745 1.613 . S
S744 N746 1.610 1_556 S
N745 S744 1.613 . S
N745 C748 1.350 1_556 S
N746 S744 1.610 1_554 S
N746 C747 1.351 . S
C747 C741 1.428 . S
C747 N746 1.351 . S
C747 C748 1.434 . S
C748 C739 1.429 . S
C748 N745 1.350 1_554 S
C748 C747 1.434 . S
C749 C750 1.369 . S
C749 C751 1.419 . S
C749 H753 0.930 . S
C750 C749 1.369 . S
C750 C759 1.429 . S
C751 C749 1.419 . S
C751 C752 1.363 . S
C751 H754 0.929 . S
C752 C751 1.363 . S
C752 C758 1.428 . S
H753 C749 0.930 . S
H754 C751 0.929 . S
S755 N756 1.613 . S
S755 N757 1.610 . S
N756 S755 1.613 . S
N756 C759 1.350 . S
N757 S755 1.610 . S
N757 C758 1.351 . S
C758 C752 1.428 . S
C758 N757 1.351 . S
C758 C759 1.434 . S
C759 C750 1.429 . S
C759 N756 1.350 . S
C759 C758 1.434 . S
C760 C761 1.369 . S
C760 C762 1.419 . S
C760 H764 0.930 . S
C761 C760 1.369 . S
C761 C770 1.429 . S
C762 C760 1.419 . S
C762 C763 1.363 . S
C762 H765 0.929 . S
C763 C762 1.363 . S
C763 C769 1.428 . S
H764 C760 0.930 . S
H765 C762 0.929 . S
S766 N767 1.613 . S
S766 N768 1.610 . S
N767 S766 1.613 . S
N767 C770 1.350 . S
N768 S766 1.610 . S
N768 C769 1.351 . S
C769 C763 1.428 . S
C769 N768 1.351 . S
C769 C770 1.434 . S
C770 C761 1.429 . S
C770 N767 1.350 . S
C770 C769 1.434 . S
C771 C772 1.369 . S
C771 C773 1.419 . S
C771 H775 0.930 . S
C772 C771 1.369 . S
C772 C781 1.429 . S
C773 C771 1.419 . S
C773 C774 1.363 . S
C773 H776 0.929 . S
C774 C773 1.363 . S
C774 C780 1.428 . S
H775 C771 0.930 . S
H776 C773 0.929 . S
S777 N778 1.613 . S
S777 N779 1.610 . S
N778 S777 1.613 . S
N778 C781 1.350 . S
N779 S777 1.610 . S
N779 C780 1.351 . S
C780 C774 1.428 . S
C780 N779 1.351 . S
C780 C781 1.434 . S
C781 C772 1.429 . S
C781 N778 1.350 . S
C781 C780 1.434 . S
C782 C783 1.369 . S
C782 C784 1.419 . S
C782 H786 0.930 . S
C783 C782 1.369 . S
C783 C792 1.429 . S
C784 C782 1.419 . S
C784 C785 1.363 . S
C784 H787 0.929 . S
C785 C784 1.363 . S
C785 C791 1.428 . S
H786 C782 0.930 . S
H787 C784 0.929 . S
S788 N789 1.613 . S
S788 N790 1.610 . S
N789 S788 1.613 . S
N789 C792 1.350 . S
N790 S788 1.610 . S
N790 C791 1.351 . S
C791 C785 1.428 . S
C791 N790 1.351 . S
C791 C792 1.434 . S
C792 C783 1.429 . S
C792 N789 1.350 . S
C792 C791 1.434 . S
C793 C794 1.369 . S
C793 C795 1.419 . S
C793 H797 0.930 . S
C794 C793 1.369 . S
C794 C803 1.429 . S
C795 C793 1.419 . S
C795 C796 1.363 . S
C795 H798 0.929 . S
C796 C795 1.363 . S
C796 C802 1.428 . S
H797 C793 0.930 . S
H798 C795 0.929 . S
S799 N800 1.613 . S
S799 N801 1.610 . S
N800 S799 1.613 . S
N800 C803 1.350 . S
N801 S799 1.610 . S
N801 C802 1.351 . S
C802 C796 1.428 . S
C802 N801 1.351 . S
C802 C803 1.434 . S
C803 C794 1.429 . S
C803 N800 1.350 . S
C803 C802 1.434 . S
C804 C805 1.369 . S
C804 C806 1.419 . S
C804 H808 0.930 . S
C805 C804 1.369 . S
C805 C814 1.429 . S
C806 C804 1.419 . S
C806 C807 1.363 . S
C806 H809 0.929 . S
C807 C806 1.363 . S
C807 C813 1.428 . S
H808 C804 0.930 . S
H809 C806 0.929 . S
S810 N811 1.613 . S
S810 N812 1.610 . S
N811 S810 1.613 . S
N811 C814 1.350 . S
N812 S810 1.610 . S
N812 C813 1.351 . S
C813 C807 1.428 . S
C813 N812 1.351 . S
C813 C814 1.434 . S
C814 C805 1.429 . S
C814 N811 1.350 . S
C814 C813 1.434 . S
C815 C816 1.369 . S
C815 C817 1.419 . S
C815 H819 0.930 . S
C816 C815 1.369 . S
C816 C825 1.429 . S
C817 C815 1.419 . S
C817 C818 1.363 . S
C817 H820 0.929 . S
C818 C817 1.363 . S
C818 C824 1.428 1_556 S
H819 C815 0.930 . S
H820 C817 0.929 . S
S821 N822 1.613 . S
S821 N823 1.610 . S
N822 S821 1.613 . S
N822 C825 1.350 1_554 S
N823 S821 1.610 . S
N823 C824 1.351 . S
C824 C818 1.428 1_554 S
C824 N823 1.351 . S
C824 C825 1.434 1_554 S
C825 C816 1.429 . S
C825 N822 1.350 1_556 S
C825 C824 1.434 1_556 S
C826 C827 1.369 . S
C826 C828 1.419 . S
C826 H830 0.930 . S
C827 C826 1.369 . S
C827 C836 1.429 . S
C828 C826 1.419 . S
C828 C829 1.363 . S
C828 H831 0.929 . S
C829 C828 1.363 . S
C829 C835 1.428 . S
H830 C826 0.930 . S
H831 C828 0.929 . S
S832 N833 1.613 . S
S832 N834 1.610 . S
N833 S832 1.613 . S
N833 C836 1.350 . S
N834 S832 1.610 . S
N834 C835 1.351 . S
C835 C829 1.428 . S
C835 N834 1.351 . S
C835 C836 1.434 . S
C836 C827 1.429 . S
C836 N833 1.350 . S
C836 C835 1.434 . S
C837 C838 1.369 . S
C837 C839 1.419 . S
C837 H841 0.930 . S
C838 C837 1.369 . S
C838 C847 1.429 . S
C839 C837 1.419 . S
C839 C840 1.363 . S
C839 H842 0.929 . S
C840 C839 1.363 . S
C840 C846 1.428 . S
H841 C837 0.930 . S
H842 C839 0.929 . S
S843 N844 1.613 . S
S843 N845 1.610 . S
N844 S843 1.613 . S
N844 C847 1.350 . S
N845 S843 1.610 . S
N845 C846 1.351 . S
C846 C840 1.428 . S
C846 N845 1.351 . S
C846 C847 1.434 . S
C847 C838 1.429 . S
C847 N844 1.350 . S
C847 C846 1.434 . S
C848 C849 1.369 . S
C848 C850 1.419 . S
C848 H852 0.930 . S
C849 C848 1.369 . S
C849 C858 1.429 . S
C850 C848 1.419 . S
C850 C851 1.363 . S
C850 H853 0.929 . S
C851 C850 1.363 . S
C851 C857 1.428 . S
H852 C848 0.930 . S
H853 C850 0.929 . S
S854 N855 1.613 . S
S854 N856 1.610 . S
N855 S854 1.613 . S
N855 C858 1.350 . S
N856 S854 1.610 . S
N856 C857 1.351 . S
C857 C851 1.428 . S
C857 N856 1.351 . S
C857 C858 1.434 . S
C858 C849 1.429 . S
C858 N855 1.350 . S
C858 C857 1.434 . S
C859 C860 1.369 . S
C859 C861 1.419 . S
C859 H863 0.930 . S
C860 C859 1.369 . S
C860 C869 1.429 . S
C861 C859 1.419 . S
C861 C862 1.363 . S
C861 H864 0.929 . S
C862 C861 1.363 . S
C862 C868 1.428 . S
H863 C859 0.930 . S
H864 C861 0.929 . S
S865 N866 1.613 . S
S865 N867 1.610 . S
N866 S865 1.613 . S
N866 C869 1.350 . S
N867 S865 1.610 . S
N867 C868 1.351 . S
C868 C862 1.428 . S
C868 N867 1.351 . S
C868 C869 1.434 . S
C869 C860 1.429 . S
C869 N866 1.350 . S
C869 C868 1.434 . S
C409 C28 1.838 . S
C411 C300 1.839 . S
C420 C40 1.839 . S
C422 C312 1.840 . S
C431 C368 1.839 . S
C433 C96 1.839 . S
C442 C108 1.839 . S
C444 C380 1.839 . S
C453 C164 1.838 . S
C455 C232 1.839 . S
C464 C176 1.838 . S
C466 C244 1.839 . S
C475 C171 1.478 . S
C477 C6 1.505 . S
C486 C62 1.508 . S
C488 C3 1.477 . S
C497 C74 1.505 . S
C499 C35 1.480 . S
C508 C71 1.477 . S
C510 C130 1.506 . S
C519 C103 1.483 . S
C521 C142 1.506 . S
C530 C139 1.483 . S
C532 C198 1.506 . S
C541 C210 1.505 . S
C543 C239 1.482 . S
C552 C275 1.478 . S
C554 C266 1.508 . S
C563 C307 1.476 . S
C565 C278 1.506 . S
C574 C343 1.482 . S
C576 C334 1.507 . S
C585 C375 1.483 . S
C587 C346 1.506 . S
C596 C402 1.506 . S
C598 C207 1.477 . S
C607 C17 1.705 . S
C609 C221 1.706 . S
C618 C51 1.707 . S
C620 C255 1.707 . S
C629 C289 1.705 . S
C631 C85 1.705 . S
C640 C323 1.705 . S
C642 C119 1.707 . S
C651 C153 1.706 . S
C653 C357 1.707 . S
C662 C187 1.705 . S
C664 C391 1.705 . S
C673 C273 2.803 . S
C675 C1 2.806 . S
C684 C309 2.806 . S
C686 C37 2.804 . S
C695 C341 2.805 . S
C697 C69 2.803 . S
C706 C105 2.806 . S
C708 C377 2.803 . S
C717 C205 2.806 . S
C719 C137 2.805 . S
C728 C241 2.803 . S
C730 C173 2.804 . S
C739 C260 0.967 . S
C741 C22 0.789 . S
C750 C287 0.952 . S
C752 C49 0.802 . S
C761 C328 0.949 . S
C763 C90 0.813 . S
C772 C355 0.957 . S
C774 C117 0.796 . S
C783 C396 0.964 . S
C785 C158 0.797 . S
C794 C219 0.967 . S
C796 C185 0.792 . S
C805 C226 0.817 . S
C807 C192 0.948 . S
C816 C253 0.800 . S
C818 C15 0.960 . S
C827 C56 0.950 . S
C829 C294 0.805 . S
C838 C83 0.958 . S
C840 C321 0.795 . S
C849 C362 0.807 . S
C851 C124 0.951 . S
C860 C151 0.951 . S
C862 C389 0.804 . S
