# Generated by pormake.
# Topology nfb, (4)-cn, num edge types: 1
# Building blocks:
#     Node 0, Type 0, BuildingBlock: GALJAG_clean_sbu_0, # of connection points: 4
#     Node 1, Type 0, BuildingBlock: GALJAG_clean_sbu_0, # of connection points: 4
#     Node 2, Type 0, BuildingBlock: GALJAG_clean_sbu_0, # of connection points: 4
#     Node 3, Type 0, BuildingBlock: GALJAG_clean_sbu_0, # of connection points: 4
#     Node 4, Type 0, BuildingBlock: GALJAG_clean_sbu_0, # of connection points: 4
#     Node 5, Type 0, BuildingBlock: GALJAG_clean_sbu_0, # of connection points: 4
#     Node 6, Type 0, BuildingBlock: GALJAG_clean_sbu_0, # of connection points: 4
#     Node 7, Type 0, BuildingBlock: GALJAG_clean_sbu_0, # of connection points: 4
#     Node 8, Type 0, BuildingBlock: GALJAG_clean_sbu_0, # of connection points: 4
#     Node 9, Type 0, BuildingBlock: GALJAG_clean_sbu_0, # of connection points: 4
#     Node 10, Type 0, BuildingBlock: GALJAG_clean_sbu_0, # of connection points: 4
#     Node 11, Type 0, BuildingBlock: GALJAG_clean_sbu_0, # of connection points: 4
#     Node 12, Type 0, BuildingBlock: GALJAG_clean_sbu_0, # of connection points: 4
#     Node 13, Type 0, BuildingBlock: GALJAG_clean_sbu_0, # of connection points: 4
#     Node 14, Type 0, BuildingBlock: GALJAG_clean_sbu_0, # of connection points: 4
#     Node 15, Type 0, BuildingBlock: GALJAG_clean_sbu_0, # of connection points: 4
#     Node 16, Type 0, BuildingBlock: GALJAG_clean_sbu_0, # of connection points: 4
#     Node 17, Type 0, BuildingBlock: GALJAG_clean_sbu_0, # of connection points: 4
#     Node 18, Type 0, BuildingBlock: GALJAG_clean_sbu_0, # of connection points: 4
#     Node 19, Type 0, BuildingBlock: GALJAG_clean_sbu_0, # of connection points: 4
#     Node 20, Type 0, BuildingBlock: GALJAG_clean_sbu_0, # of connection points: 4
#     Node 21, Type 0, BuildingBlock: GALJAG_clean_sbu_0, # of connection points: 4
#     Node 22, Type 0, BuildingBlock: GALJAG_clean_sbu_0, # of connection points: 4
#     Node 23, Type 0, BuildingBlock: GALJAG_clean_sbu_0, # of connection points: 4
#     Node 24, Type 0, BuildingBlock: GALJAG_clean_sbu_0, # of connection points: 4
#     Node 25, Type 0, BuildingBlock: GALJAG_clean_sbu_0, # of connection points: 4
#     Node 26, Type 0, BuildingBlock: GALJAG_clean_sbu_0, # of connection points: 4
#     Node 27, Type 0, BuildingBlock: GALJAG_clean_sbu_0, # of connection points: 4
#     Node 28, Type 0, BuildingBlock: GALJAG_clean_sbu_0, # of connection points: 4
#     Node 29, Type 0, BuildingBlock: GALJAG_clean_sbu_0, # of connection points: 4
#     Node 30, Type 0, BuildingBlock: GALJAG_clean_sbu_0, # of connection points: 4
#     Node 31, Type 0, BuildingBlock: GALJAG_clean_sbu_0, # of connection points: 4
#     Node 32, Type 0, BuildingBlock: GALJAG_clean_sbu_0, # of connection points: 4
#     Node 33, Type 0, BuildingBlock: GALJAG_clean_sbu_0, # of connection points: 4
#     Node 34, Type 0, BuildingBlock: GALJAG_clean_sbu_0, # of connection points: 4
#     Node 35, Type 0, BuildingBlock: GALJAG_clean_sbu_0, # of connection points: 4
#     Node 36, Type 0, BuildingBlock: GALJAG_clean_sbu_0, # of connection points: 4
#     Node 37, Type 0, BuildingBlock: GALJAG_clean_sbu_0, # of connection points: 4
#     Node 38, Type 0, BuildingBlock: GALJAG_clean_sbu_0, # of connection points: 4
#     Node 39, Type 0, BuildingBlock: GALJAG_clean_sbu_0, # of connection points: 4
#     Node 40, Type 0, BuildingBlock: GALJAG_clean_sbu_0, # of connection points: 4
#     Node 41, Type 0, BuildingBlock: GALJAG_clean_sbu_0, # of connection points: 4
#     Node 42, Type 0, BuildingBlock: GALJAG_clean_sbu_0, # of connection points: 4
#     Node 43, Type 0, BuildingBlock: GALJAG_clean_sbu_0, # of connection points: 4
#     Node 44, Type 0, BuildingBlock: GALJAG_clean_sbu_0, # of connection points: 4
#     Node 45, Type 0, BuildingBlock: GALJAG_clean_sbu_0, # of connection points: 4
#     Node 46, Type 0, BuildingBlock: GALJAG_clean_sbu_0, # of connection points: 4
#     Node 47, Type 0, BuildingBlock: GALJAG_clean_sbu_0, # of connection points: 4
#     Edge 48, Type (0, 0), BuildingBlock: UVAHIK_clean_linker_0, # of connection points: 2
#     Edge 49, Type (0, 0), BuildingBlock: UVAHIK_clean_linker_0, # of connection points: 2
#     Edge 50, Type (0, 0), BuildingBlock: UVAHIK_clean_linker_0, # of connection points: 2
#     Edge 51, Type (0, 0), BuildingBlock: UVAHIK_clean_linker_0, # of connection points: 2
#     Edge 52, Type (0, 0), BuildingBlock: UVAHIK_clean_linker_0, # of connection points: 2
#     Edge 53, Type (0, 0), BuildingBlock: UVAHIK_clean_linker_0, # of connection points: 2
#     Edge 54, Type (0, 0), BuildingBlock: UVAHIK_clean_linker_0, # of connection points: 2
#     Edge 55, Type (0, 0), BuildingBlock: UVAHIK_clean_linker_0, # of connection points: 2
#     Edge 56, Type (0, 0), BuildingBlock: UVAHIK_clean_linker_0, # of connection points: 2
#     Edge 57, Type (0, 0), BuildingBlock: UVAHIK_clean_linker_0, # of connection points: 2
#     Edge 58, Type (0, 0), BuildingBlock: UVAHIK_clean_linker_0, # of connection points: 2
#     Edge 59, Type (0, 0), BuildingBlock: UVAHIK_clean_linker_0, # of connection points: 2
#     Edge 60, Type (0, 0), BuildingBlock: UVAHIK_clean_linker_0, # of connection points: 2
#     Edge 61, Type (0, 0), BuildingBlock: UVAHIK_clean_linker_0, # of connection points: 2
#     Edge 62, Type (0, 0), BuildingBlock: UVAHIK_clean_linker_0, # of connection points: 2
#     Edge 63, Type (0, 0), BuildingBlock: UVAHIK_clean_linker_0, # of connection points: 2
#     Edge 64, Type (0, 0), BuildingBlock: UVAHIK_clean_linker_0, # of connection points: 2
#     Edge 65, Type (0, 0), BuildingBlock: UVAHIK_clean_linker_0, # of connection points: 2
#     Edge 66, Type (0, 0), BuildingBlock: UVAHIK_clean_linker_0, # of connection points: 2
#     Edge 67, Type (0, 0), BuildingBlock: UVAHIK_clean_linker_0, # of connection points: 2
#     Edge 68, Type (0, 0), BuildingBlock: UVAHIK_clean_linker_0, # of connection points: 2
#     Edge 69, Type (0, 0), BuildingBlock: UVAHIK_clean_linker_0, # of connection points: 2
#     Edge 70, Type (0, 0), BuildingBlock: UVAHIK_clean_linker_0, # of connection points: 2
#     Edge 71, Type (0, 0), BuildingBlock: UVAHIK_clean_linker_0, # of connection points: 2
#     Edge 72, Type (0, 0), BuildingBlock: UVAHIK_clean_linker_0, # of connection points: 2
#     Edge 73, Type (0, 0), BuildingBlock: UVAHIK_clean_linker_0, # of connection points: 2
#     Edge 74, Type (0, 0), BuildingBlock: UVAHIK_clean_linker_0, # of connection points: 2
#     Edge 75, Type (0, 0), BuildingBlock: UVAHIK_clean_linker_0, # of connection points: 2
#     Edge 76, Type (0, 0), BuildingBlock: UVAHIK_clean_linker_0, # of connection points: 2
#     Edge 77, Type (0, 0), BuildingBlock: UVAHIK_clean_linker_0, # of connection points: 2
#     Edge 78, Type (0, 0), BuildingBlock: UVAHIK_clean_linker_0, # of connection points: 2
#     Edge 79, Type (0, 0), BuildingBlock: UVAHIK_clean_linker_0, # of connection points: 2
#     Edge 80, Type (0, 0), BuildingBlock: UVAHIK_clean_linker_0, # of connection points: 2
#     Edge 81, Type (0, 0), BuildingBlock: UVAHIK_clean_linker_0, # of connection points: 2
#     Edge 82, Type (0, 0), BuildingBlock: UVAHIK_clean_linker_0, # of connection points: 2
#     Edge 83, Type (0, 0), BuildingBlock: UVAHIK_clean_linker_0, # of connection points: 2
#     Edge 84, Type (0, 0), BuildingBlock: UVAHIK_clean_linker_0, # of connection points: 2
#     Edge 85, Type (0, 0), BuildingBlock: UVAHIK_clean_linker_0, # of connection points: 2
#     Edge 86, Type (0, 0), BuildingBlock: UVAHIK_clean_linker_0, # of connection points: 2
#     Edge 87, Type (0, 0), BuildingBlock: UVAHIK_clean_linker_0, # of connection points: 2
#     Edge 88, Type (0, 0), BuildingBlock: UVAHIK_clean_linker_0, # of connection points: 2
#     Edge 89, Type (0, 0), BuildingBlock: UVAHIK_clean_linker_0, # of connection points: 2
#     Edge 90, Type (0, 0), BuildingBlock: UVAHIK_clean_linker_0, # of connection points: 2
#     Edge 91, Type (0, 0), BuildingBlock: UVAHIK_clean_linker_0, # of connection points: 2
#     Edge 92, Type (0, 0), BuildingBlock: UVAHIK_clean_linker_0, # of connection points: 2
#     Edge 93, Type (0, 0), BuildingBlock: UVAHIK_clean_linker_0, # of connection points: 2
#     Edge 94, Type (0, 0), BuildingBlock: UVAHIK_clean_linker_0, # of connection points: 2
#     Edge 95, Type (0, 0), BuildingBlock: UVAHIK_clean_linker_0, # of connection points: 2
#     Edge 96, Type (0, 0), BuildingBlock: UVAHIK_clean_linker_0, # of connection points: 2
#     Edge 97, Type (0, 0), BuildingBlock: UVAHIK_clean_linker_0, # of connection points: 2
#     Edge 98, Type (0, 0), BuildingBlock: UVAHIK_clean_linker_0, # of connection points: 2
#     Edge 99, Type (0, 0), BuildingBlock: UVAHIK_clean_linker_0, # of connection points: 2
#     Edge 100, Type (0, 0), BuildingBlock: UVAHIK_clean_linker_0, # of connection points: 2
#     Edge 101, Type (0, 0), BuildingBlock: UVAHIK_clean_linker_0, # of connection points: 2
#     Edge 102, Type (0, 0), BuildingBlock: UVAHIK_clean_linker_0, # of connection points: 2
#     Edge 103, Type (0, 0), BuildingBlock: UVAHIK_clean_linker_0, # of connection points: 2
#     Edge 104, Type (0, 0), BuildingBlock: UVAHIK_clean_linker_0, # of connection points: 2
#     Edge 105, Type (0, 0), BuildingBlock: UVAHIK_clean_linker_0, # of connection points: 2
#     Edge 106, Type (0, 0), BuildingBlock: UVAHIK_clean_linker_0, # of connection points: 2
#     Edge 107, Type (0, 0), BuildingBlock: UVAHIK_clean_linker_0, # of connection points: 2
#     Edge 108, Type (0, 0), BuildingBlock: UVAHIK_clean_linker_0, # of connection points: 2
#     Edge 109, Type (0, 0), BuildingBlock: UVAHIK_clean_linker_0, # of connection points: 2
#     Edge 110, Type (0, 0), BuildingBlock: UVAHIK_clean_linker_0, # of connection points: 2
#     Edge 111, Type (0, 0), BuildingBlock: UVAHIK_clean_linker_0, # of connection points: 2
#     Edge 112, Type (0, 0), BuildingBlock: UVAHIK_clean_linker_0, # of connection points: 2
#     Edge 113, Type (0, 0), BuildingBlock: UVAHIK_clean_linker_0, # of connection points: 2
#     Edge 114, Type (0, 0), BuildingBlock: UVAHIK_clean_linker_0, # of connection points: 2
#     Edge 115, Type (0, 0), BuildingBlock: UVAHIK_clean_linker_0, # of connection points: 2
#     Edge 116, Type (0, 0), BuildingBlock: UVAHIK_clean_linker_0, # of connection points: 2
#     Edge 117, Type (0, 0), BuildingBlock: UVAHIK_clean_linker_0, # of connection points: 2
#     Edge 118, Type (0, 0), BuildingBlock: UVAHIK_clean_linker_0, # of connection points: 2
#     Edge 119, Type (0, 0), BuildingBlock: UVAHIK_clean_linker_0, # of connection points: 2
#     Edge 120, Type (0, 0), BuildingBlock: UVAHIK_clean_linker_0, # of connection points: 2
#     Edge 121, Type (0, 0), BuildingBlock: UVAHIK_clean_linker_0, # of connection points: 2
#     Edge 122, Type (0, 0), BuildingBlock: UVAHIK_clean_linker_0, # of connection points: 2
#     Edge 123, Type (0, 0), BuildingBlock: UVAHIK_clean_linker_0, # of connection points: 2
#     Edge 124, Type (0, 0), BuildingBlock: UVAHIK_clean_linker_0, # of connection points: 2
#     Edge 125, Type (0, 0), BuildingBlock: UVAHIK_clean_linker_0, # of connection points: 2
#     Edge 126, Type (0, 0), BuildingBlock: UVAHIK_clean_linker_0, # of connection points: 2
#     Edge 127, Type (0, 0), BuildingBlock: UVAHIK_clean_linker_0, # of connection points: 2
#     Edge 128, Type (0, 0), BuildingBlock: UVAHIK_clean_linker_0, # of connection points: 2
#     Edge 129, Type (0, 0), BuildingBlock: UVAHIK_clean_linker_0, # of connection points: 2
#     Edge 130, Type (0, 0), BuildingBlock: UVAHIK_clean_linker_0, # of connection points: 2
#     Edge 131, Type (0, 0), BuildingBlock: UVAHIK_clean_linker_0, # of connection points: 2
#     Edge 132, Type (0, 0), BuildingBlock: UVAHIK_clean_linker_0, # of connection points: 2
#     Edge 133, Type (0, 0), BuildingBlock: UVAHIK_clean_linker_0, # of connection points: 2
#     Edge 134, Type (0, 0), BuildingBlock: UVAHIK_clean_linker_0, # of connection points: 2
#     Edge 135, Type (0, 0), BuildingBlock: UVAHIK_clean_linker_0, # of connection points: 2
#     Edge 136, Type (0, 0), BuildingBlock: UVAHIK_clean_linker_0, # of connection points: 2
#     Edge 137, Type (0, 0), BuildingBlock: UVAHIK_clean_linker_0, # of connection points: 2
#     Edge 138, Type (0, 0), BuildingBlock: UVAHIK_clean_linker_0, # of connection points: 2
#     Edge 139, Type (0, 0), BuildingBlock: UVAHIK_clean_linker_0, # of connection points: 2
#     Edge 140, Type (0, 0), BuildingBlock: UVAHIK_clean_linker_0, # of connection points: 2
#     Edge 141, Type (0, 0), BuildingBlock: UVAHIK_clean_linker_0, # of connection points: 2
#     Edge 142, Type (0, 0), BuildingBlock: UVAHIK_clean_linker_0, # of connection points: 2
#     Edge 143, Type (0, 0), BuildingBlock: UVAHIK_clean_linker_0, # of connection points: 2
# Relax obj value: 0.318
# Max RMSD: 0.087
# Mean RMSD: 0.085
data_MOF--net-nfb--node1-GALJAG_clean_sbu_0--edge1-UVAHIK_clean_linker_0
_symmetry_space_group_name_H-M    P1
_symmetry_Int_Tables_number       1
_symmetry_cell_setting            triclinic
loop_
_symmetry_equiv_pos_as_xyz
'x, y, z'
_cell_length_a     76.20011
_cell_length_b     76.198464
_cell_length_c     76.209521
_cell_angle_alpha  90.001317
_cell_angle_beta   89.968558
_cell_angle_gamma 90.060943
loop_
_atom_site_label
_atom_site_type_symbol
_atom_site_fract_x
_atom_site_fract_y
_atom_site_fract_z
_atom_type_partial_charge
In0 In 0.12528 0.12583 0.38324 0.0
O1 O 0.11385 0.13055 0.4102 0.0
O2 O 0.1219 0.10448 0.40402 0.0
C3 C 0.13137 0.16058 0.38479 0.0
C4 C 0.1595 0.11658 0.37797 0.0
C5 C 0.09603 0.11767 0.36397 0.0
O6 O 0.1244 0.15214 0.39723 0.0
O7 O 0.13503 0.15154 0.37139 0.0
O8 O 0.10657 0.10608 0.36928 0.0
O9 O 0.10102 0.13307 0.3671 0.0
C10 C 0.11534 0.11482 0.41521 0.0
O11 O 0.15151 0.11438 0.39226 0.0
O12 O 0.14988 0.12217 0.36568 0.0
In13 In 0.38257 0.62784 0.88185 0.0
O14 O 0.40247 0.60922 0.86785 0.0
O15 O 0.37576 0.60186 0.86882 0.0
C16 C 0.39212 0.66165 0.87471 0.0
C17 C 0.34788 0.63402 0.88167 0.0
C18 C 0.3923 0.61829 0.91432 0.0
O19 O 0.38534 0.65181 0.86321 0.0
O20 O 0.39547 0.65396 0.8889 0.0
O21 O 0.37679 0.61659 0.90875 0.0
O22 O 0.40305 0.62461 0.90338 0.0
C23 C 0.39108 0.59764 0.86445 0.0
O24 O 0.35689 0.63435 0.89557 0.0
O25 O 0.35638 0.63055 0.86787 0.0
In26 In 0.88324 0.8843 0.38867 0.0
O27 O 0.89764 0.88412 0.41468 0.0
O28 O 0.88519 0.9079 0.40695 0.0
C29 C 0.88067 0.84925 0.38998 0.0
C30 C 0.84804 0.88979 0.386 0.0
C31 C 0.91115 0.89227 0.36769 0.0
O32 O 0.885 0.85839 0.40313 0.0
O33 O 0.87799 0.8578 0.37601 0.0
O34 O 0.90066 0.90394 0.37307 0.0
O35 O 0.90669 0.87689 0.37171 0.0
C36 C 0.89405 0.89986 0.41841 0.0
O37 O 0.85808 0.89195 0.37289 0.0
O38 O 0.85592 0.88588 0.39994 0.0
In39 In 0.62729 0.384 0.88096 0.0
O40 O 0.61962 0.40104 0.85679 0.0
O41 O 0.60741 0.4064 0.88103 0.0
C42 C 0.62506 0.34831 0.8784 0.0
C43 C 0.6607 0.39145 0.87238 0.0
C44 C 0.62048 0.388 0.91523 0.0
O45 O 0.61353 0.35815 0.87153 0.0
O46 O 0.63721 0.35651 0.88596 0.0
O47 O 0.63483 0.39265 0.90832 0.0
O48 O 0.60951 0.38117 0.9048 0.0
C49 C 0.6097 0.41114 0.8654 0.0
O50 O 0.65375 0.39648 0.88656 0.0
O51 O 0.65064 0.38295 0.8623 0.0
In52 In 0.12487 0.88076 0.62891 0.0
O53 O 0.10689 0.8902 0.65184 0.0
O54 O 0.09927 0.89581 0.62581 0.0
C55 C 0.15957 0.8846 0.63712 0.0
C56 C 0.11632 0.847 0.6342 0.0
C57 C 0.12826 0.88673 0.59436 0.0
O58 O 0.14949 0.89773 0.63579 0.0
O59 O 0.15187 0.8701 0.6356 0.0
O60 O 0.1258 0.87166 0.60076 0.0
O61 O 0.12904 0.89903 0.60546 0.0
C62 C 0.09524 0.89637 0.64178 0.0
O63 O 0.11319 0.85494 0.62 0.0
O64 O 0.12335 0.85628 0.64603 0.0
In65 In 0.62235 0.62159 0.12511 0.0
O66 O 0.64987 0.61757 0.11466 0.0
O67 O 0.64723 0.63049 0.13929 0.0
C68 C 0.6134 0.60922 0.09339 0.0
C69 C 0.61107 0.59439 0.1456 0.0
C70 C 0.61462 0.65653 0.12551 0.0
O71 O 0.62797 0.60594 0.10057 0.0
O72 O 0.60311 0.61865 0.10235 0.0
O73 O 0.61261 0.64707 0.13905 0.0
O74 O 0.61941 0.64816 0.11213 0.0
C75 C 0.65739 0.62506 0.12736 0.0
O76 O 0.62633 0.60068 0.14631 0.0
O77 O 0.60079 0.60298 0.13588 0.0
In78 In 0.88041 0.12245 0.63043 0.0
O79 O 0.87102 0.14922 0.62115 0.0
O80 O 0.89208 0.14848 0.63947 0.0
C81 C 0.88654 0.11651 0.59609 0.0
C82 C 0.90872 0.10792 0.64718 0.0
C83 C 0.84649 0.11512 0.6401 0.0
O84 O 0.89121 0.13042 0.60375 0.0
O85 O 0.87871 0.10555 0.60574 0.0
O86 O 0.85516 0.10556 0.6298 0.0
O87 O 0.85547 0.12713 0.64702 0.0
C88 C 0.88177 0.15777 0.63043 0.0
O89 O 0.89898 0.11923 0.65433 0.0
O90 O 0.90316 0.10276 0.63253 0.0
In91 In 0.38076 0.38221 0.1318 0.0
O92 O 0.35537 0.39573 0.12454 0.0
O93 O 0.35575 0.38077 0.14819 0.0
C94 C 0.38756 0.38497 0.09731 0.0
C95 C 0.39751 0.40921 0.14851 0.0
C96 C 0.38248 0.34663 0.13582 0.0
O97 O 0.37364 0.39055 0.10432 0.0
O98 O 0.39838 0.37804 0.10779 0.0
O99 O 0.39459 0.35652 0.14153 0.0
O100 O 0.36998 0.35474 0.1288 0.0
C101 C 0.34693 0.39005 0.13763 0.0
O102 O 0.38589 0.40001 0.1559 0.0
O103 O 0.40191 0.40359 0.13362 0.0
In104 In 0.38193 0.1218 0.12411 0.0
O105 O 0.36844 0.14764 0.11456 0.0
O106 O 0.39427 0.14883 0.12471 0.0
C107 C 0.3624 0.09478 0.1107 0.0
C108 C 0.41446 0.11179 0.11505 0.0
C109 C 0.37702 0.12104 0.15898 0.0
O110 O 0.36011 0.10108 0.12578 0.0
O111 O 0.37326 0.10329 0.10155 0.0
O112 O 0.38958 0.11319 0.15153 0.0
O113 O 0.36676 0.12913 0.14878 0.0
C114 C 0.3814 0.15722 0.11874 0.0
O115 O 0.40826 0.10953 0.13027 0.0
O116 O 0.40415 0.11905 0.10428 0.0
In117 In 0.3824 0.88234 0.62233 0.0
O118 O 0.40476 0.86281 0.62669 0.0
O119 O 0.40101 0.87162 0.6007 0.0
C120 C 0.34767 0.88036 0.61373 0.0
C121 C 0.37785 0.87972 0.65721 0.0
C122 C 0.39472 0.91432 0.6143 0.0
O123 O 0.35731 0.86685 0.61414 0.0
O124 O 0.35581 0.89447 0.61636 0.0
O125 O 0.39741 0.90706 0.62896 0.0
O126 O 0.38589 0.90532 0.60349 0.0
C127 C 0.41044 0.86295 0.61119 0.0
O128 O 0.38312 0.89359 0.64986 0.0
O129 O 0.37511 0.86697 0.64697 0.0
In130 In 0.62866 0.88165 0.12473 0.0
O131 O 0.63699 0.85572 0.11041 0.0
O132 O 0.62325 0.8542 0.13452 0.0
C133 C 0.64493 0.90814 0.1068 0.0
C134 C 0.59419 0.88758 0.1206 0.0
C135 C 0.63794 0.88764 0.15815 0.0
O136 O 0.65278 0.89901 0.11815 0.0
O137 O 0.62981 0.90261 0.10319 0.0
O138 O 0.62441 0.89423 0.15124 0.0
O139 O 0.64726 0.87843 0.14796 0.0
C140 C 0.63032 0.84595 0.12213 0.0
O141 O 0.60268 0.89256 0.13391 0.0
O142 O 0.60312 0.87949 0.10919 0.0
In143 In 0.62362 0.12652 0.62733 0.0
O144 O 0.60149 0.14644 0.63138 0.0
O145 O 0.60507 0.13716 0.60558 0.0
C146 C 0.65841 0.12883 0.61879 0.0
C147 C 0.62776 0.12785 0.66238 0.0
C148 C 0.6117 0.09425 0.61983 0.0
O149 O 0.64905 0.14232 0.62114 0.0
O150 O 0.64997 0.11466 0.6194 0.0
O151 O 0.60897 0.10173 0.63436 0.0
O152 O 0.62041 0.10316 0.60884 0.0
C153 C 0.59573 0.14608 0.61593 0.0
O154 O 0.62124 0.11482 0.65455 0.0
O155 O 0.63205 0.14049 0.65255 0.0
In156 In 0.38097 0.88266 0.87912 0.0
O157 O 0.40919 0.88555 0.87065 0.0
O158 O 0.40406 0.88433 0.89815 0.0
C159 C 0.37571 0.88007 0.84436 0.0
C160 C 0.37237 0.84928 0.88893 0.0
C161 C 0.3693 0.91481 0.8898 0.0
O162 O 0.3901 0.87631 0.85163 0.0
O163 O 0.36381 0.88529 0.85467 0.0
O164 O 0.36228 0.90086 0.89556 0.0
O165 O 0.38139 0.91223 0.87892 0.0
C166 C 0.41531 0.88596 0.88604 0.0
O167 O 0.38438 0.858 0.89623 0.0
O168 O 0.36341 0.85804 0.87815 0.0
In169 In 0.62281 0.88071 0.3788 0.0
O170 O 0.60776 0.90586 0.37417 0.0
O171 O 0.62391 0.90455 0.39692 0.0
C172 C 0.62205 0.87687 0.34384 0.0
C173 C 0.65825 0.87925 0.38323 0.0
C174 C 0.59624 0.86078 0.39233 0.0
O175 O 0.61499 0.88968 0.35163 0.0
O176 O 0.62889 0.86549 0.35379 0.0
O177 O 0.60352 0.85754 0.37785 0.0
O178 O 0.60362 0.87285 0.40091 0.0
C179 C 0.61353 0.91355 0.38765 0.0
O180 O 0.64813 0.86921 0.39185 0.0
O181 O 0.65042 0.88975 0.37324 0.0
In182 In 0.62554 0.12293 0.88393 0.0
O183 O 0.60019 0.10979 0.87582 0.0
O184 O 0.60137 0.12081 0.90151 0.0
C185 C 0.63249 0.12233 0.84938 0.0
C186 C 0.62542 0.15828 0.88979 0.0
C187 C 0.64456 0.09618 0.89841 0.0
O188 O 0.6201 0.11369 0.85622 0.0
O189 O 0.64161 0.13117 0.86004 0.0
O190 O 0.64852 0.10348 0.88414 0.0
O191 O 0.6322 0.10365 0.90646 0.0
C192 C 0.59236 0.11277 0.89011 0.0
O193 O 0.63778 0.14866 0.89539 0.0
O194 O 0.61341 0.14997 0.88211 0.0
In195 In 0.38292 0.12605 0.38197 0.0
O196 O 0.35636 0.11544 0.39118 0.0
O197 O 0.35787 0.14278 0.38674 0.0
C198 C 0.41117 0.14536 0.39318 0.0
C199 C 0.3926 0.09316 0.39018 0.0
C200 C 0.37992 0.12674 0.34677 0.0
O201 O 0.40542 0.14571 0.37774 0.0
O202 O 0.40177 0.13651 0.40353 0.0
O203 O 0.38798 0.1148 0.3549 0.0
O204 O 0.37345 0.13857 0.35639 0.0
C205 C 0.34826 0.1298 0.39055 0.0
O206 O 0.39401 0.09947 0.37493 0.0
O207 O 0.38628 0.10352 0.40151 0.0
In208 In 0.12463 0.38374 0.12051 0.0
O209 O 0.15123 0.39576 0.11465 0.0
O210 O 0.1507 0.37157 0.12866 0.0
C211 C 0.11236 0.41496 0.10983 0.0
C212 C 0.11406 0.36302 0.09314 0.0
C213 C 0.11814 0.38177 0.1557 0.0
O214 O 0.12787 0.40992 0.1069 0.0
O215 O 0.10289 0.40414 0.11813 0.0
O216 O 0.11689 0.36839 0.1459 0.0
O217 O 0.12165 0.39571 0.14759 0.0
C218 C 0.15985 0.38384 0.12226 0.0
O219 O 0.12953 0.36331 0.09887 0.0
O220 O 0.10343 0.37182 0.10227 0.0
In221 In 0.12555 0.6288 0.87789 0.0
O222 O 0.15356 0.62064 0.87228 0.0
O223 O 0.14975 0.64333 0.88815 0.0
C224 C 0.11991 0.594 0.87796 0.0
C225 C 0.11081 0.64034 0.90855 0.0
C226 C 0.1183 0.63957 0.84443 0.0
O227 O 0.13399 0.60087 0.88336 0.0
O228 O 0.10859 0.60472 0.87234 0.0
O229 O 0.10709 0.63179 0.85384 0.0
O230 O 0.13212 0.64352 0.85252 0.0
C231 C 0.16048 0.63305 0.8808 0.0
O232 O 0.1148 0.65088 0.89635 0.0
O233 O 0.11329 0.62451 0.90474 0.0
In234 In 0.8802 0.62672 0.3842 0.0
O235 O 0.9057 0.63078 0.39872 0.0
O236 O 0.9042 0.60889 0.38139 0.0
C237 C 0.87607 0.66126 0.3899 0.0
C238 C 0.87754 0.62472 0.34845 0.0
C239 C 0.86148 0.61095 0.41046 0.0
O240 O 0.89033 0.6533 0.39258 0.0
O241 O 0.8636 0.65171 0.38453 0.0
O242 O 0.85634 0.6246 0.40269 0.0
O243 O 0.87497 0.60418 0.4037 0.0
C244 C 0.91337 0.61772 0.39204 0.0
O245 O 0.86901 0.61436 0.35829 0.0
O246 O 0.88691 0.63552 0.35664 0.0
In247 In 0.88252 0.38266 0.87926 0.0
O248 O 0.8568 0.39747 0.88264 0.0
O249 O 0.85601 0.37251 0.87008 0.0
C250 C 0.89746 0.41363 0.88695 0.0
C251 C 0.89054 0.36296 0.90822 0.0
C252 C 0.88969 0.37686 0.84469 0.0
O253 O 0.8816 0.41023 0.89043 0.0
O254 O 0.9059 0.40125 0.87987 0.0
O255 O 0.88571 0.36442 0.85497 0.0
O256 O 0.89105 0.39156 0.85208 0.0
C257 C 0.84761 0.38583 0.87521 0.0
O258 O 0.90211 0.36786 0.89742 0.0
O259 O 0.87518 0.36679 0.90366 0.0
In260 In 0.12934 0.37926 0.38049 0.0
O261 O 0.1378 0.39456 0.35523 0.0
O262 O 0.12862 0.36842 0.35287 0.0
C263 C 0.14231 0.39714 0.40879 0.0
C264 C 0.09453 0.38423 0.38155 0.0
C265 C 0.13913 0.34642 0.3887 0.0
O266 O 0.15231 0.38957 0.39794 0.0
O267 O 0.12643 0.39695 0.40438 0.0
O268 O 0.12434 0.35265 0.3928 0.0
O269 O 0.14923 0.35692 0.38076 0.0
C270 C 0.13405 0.38191 0.34508 0.0
O271 O 0.10169 0.36995 0.38597 0.0
O272 O 0.10497 0.39605 0.37635 0.0
In273 In 0.87812 0.62772 0.12265 0.0
O274 O 0.85063 0.62307 0.11252 0.0
O275 O 0.8545 0.6447 0.12984 0.0
C276 C 0.88343 0.59418 0.11322 0.0
C277 C 0.89438 0.64535 0.09593 0.0
C278 C 0.88324 0.62777 0.15812 0.0
O279 O 0.86934 0.60228 0.11006 0.0
O280 O 0.89501 0.60306 0.12113 0.0
O281 O 0.8897 0.6397 0.14846 0.0
O282 O 0.87496 0.61616 0.14982 0.0
C283 C 0.84387 0.63574 0.12078 0.0
O284 O 0.88005 0.65025 0.10254 0.0
O285 O 0.9015 0.63287 0.10409 0.0
In286 In 0.88097 0.38108 0.62241 0.0
O287 O 0.90775 0.37525 0.61085 0.0
O288 O 0.9023 0.40169 0.61804 0.0
C289 C 0.8809 0.34617 0.62727 0.0
C290 C 0.87429 0.38993 0.65654 0.0
C291 C 0.86285 0.39037 0.5929 0.0
O292 O 0.89477 0.35524 0.62803 0.0
O293 O 0.86707 0.35474 0.62412 0.0
O294 O 0.86687 0.40151 0.60451 0.0
O295 O 0.86693 0.37489 0.59681 0.0
C296 C 0.91318 0.39088 0.61177 0.0
O297 O 0.8883 0.39369 0.64866 0.0
O298 O 0.8628 0.38301 0.64681 0.0
In299 In 0.12475 0.62436 0.62132 0.0
O300 O 0.14048 0.61858 0.64684 0.0
O301 O 0.11275 0.6179 0.64795 0.0
C302 C 0.14538 0.6128 0.59429 0.0
C303 C 0.09279 0.61482 0.6101 0.0
C304 C 0.12439 0.65965 0.62369 0.0
O305 O 0.14599 0.62815 0.60032 0.0
O306 O 0.13572 0.60262 0.60305 0.0
O307 O 0.11307 0.65104 0.61525 0.0
O308 O 0.13621 0.65049 0.63079 0.0
C309 C 0.12694 0.61697 0.65632 0.0
O310 O 0.09966 0.62948 0.60653 0.0
O311 O 0.10215 0.60471 0.61936 0.0
In312 In 0.87901 0.88097 0.62934 0.0
O313 O 0.88107 0.85465 0.61551 0.0
O314 O 0.87165 0.85489 0.64186 0.0
C315 C 0.88401 0.89432 0.59713 0.0
C316 C 0.84544 0.89034 0.63769 0.0
C317 C 0.91026 0.88697 0.64584 0.0
O318 O 0.87727 0.87941 0.59978 0.0
O319 O 0.88838 0.90262 0.61081 0.0
O320 O 0.89778 0.8979 0.64671 0.0
O321 O 0.90651 0.87318 0.6376 0.0
C322 C 0.87534 0.84594 0.6284 0.0
O323 O 0.85504 0.88174 0.64808 0.0
O324 O 0.85337 0.89576 0.62426 0.0
In325 In 0.62369 0.37832 0.13327 0.0
O326 O 0.65092 0.37579 0.12157 0.0
O327 O 0.6483 0.37283 0.14927 0.0
C328 C 0.61632 0.38859 0.10043 0.0
C329 C 0.61417 0.344 0.13762 0.0
C330 C 0.6136 0.40803 0.15074 0.0
O331 O 0.63151 0.38972 0.10697 0.0
O332 O 0.60471 0.38243 0.11059 0.0
O333 O 0.60254 0.39728 0.14464 0.0
O334 O 0.62923 0.40306 0.14922 0.0
C335 C 0.65837 0.37286 0.13608 0.0
O336 O 0.6187 0.35354 0.1504 0.0
O337 O 0.61298 0.35214 0.12334 0.0
In338 In 0.12365 0.12128 0.63007 0.0
O339 O 0.11904 0.14821 0.61829 0.0
O340 O 0.13274 0.14689 0.6426 0.0
C341 C 0.11397 0.11161 0.59762 0.0
C342 C 0.15849 0.1134 0.63357 0.0
C343 C 0.09515 0.11073 0.64939 0.0
O344 O 0.11246 0.12714 0.60323 0.0
O345 O 0.1204 0.10082 0.60846 0.0
O346 O 0.1049 0.10001 0.64141 0.0
O347 O 0.10074 0.12624 0.649 0.0
C348 C 0.12671 0.15642 0.63047 0.0
O349 O 0.14898 0.11714 0.64663 0.0
O350 O 0.1502 0.11237 0.61935 0.0
In351 In 0.38107 0.6218 0.13271 0.0
O352 O 0.35489 0.61305 0.12188 0.0
O353 O 0.35646 0.61818 0.14936 0.0
C354 C 0.38968 0.61885 0.09865 0.0
C355 C 0.38214 0.65726 0.13838 0.0
C356 C 0.39742 0.59434 0.14912 0.0
O357 O 0.37612 0.61194 0.10519 0.0
O358 O 0.39902 0.62747 0.10932 0.0
O359 O 0.38623 0.60382 0.15679 0.0
O360 O 0.40152 0.5998 0.13411 0.0
C361 C 0.34699 0.6138 0.13644 0.0
O362 O 0.36872 0.64886 0.13386 0.0
O363 O 0.3955 0.64772 0.14091 0.0
In364 In 0.88023 0.12732 0.37816 0.0
O365 O 0.89889 0.10708 0.36467 0.0
O366 O 0.90622 0.13384 0.36505 0.0
C367 C 0.84596 0.1175 0.37448 0.0
C368 C 0.89002 0.11925 0.41095 0.0
C369 C 0.874 0.16164 0.37364 0.0
O370 O 0.85544 0.12128 0.36138 0.0
O371 O 0.85417 0.11716 0.38878 0.0
O372 O 0.87745 0.15506 0.38846 0.0
O373 O 0.87389 0.15088 0.36101 0.0
C374 C 0.9105 0.11842 0.36109 0.0
O375 O 0.89005 0.13478 0.40515 0.0
O376 O 0.88518 0.10767 0.40008 0.0
In377 In 0.38122 0.38123 0.87618 0.0
O378 O 0.35559 0.37351 0.88927 0.0
O379 O 0.35497 0.38009 0.86206 0.0
C380 C 0.38852 0.38794 0.91008 0.0
C381 C 0.39051 0.34787 0.86684 0.0
C382 C 0.3905 0.41224 0.86048 0.0
O383 O 0.37368 0.3907 0.90331 0.0
O384 O 0.39996 0.38212 0.89961 0.0
O385 O 0.40173 0.40051 0.86381 0.0
O386 O 0.37506 0.40781 0.86407 0.0
C387 C 0.3465 0.37538 0.87553 0.0
O388 O 0.39699 0.35582 0.87978 0.0
O389 O 0.38083 0.35737 0.85739 0.0
In390 In 0.12721 0.87902 0.37362 0.0
O391 O 0.10804 0.899 0.36037 0.0
O392 O 0.09933 0.87308 0.36491 0.0
C393 C 0.16072 0.88924 0.36596 0.0
C394 C 0.12272 0.88545 0.408 0.0
C395 C 0.13236 0.8445 0.36918 0.0
O396 O 0.15141 0.88068 0.35528 0.0
O397 O 0.15254 0.89418 0.3794 0.0
O398 O 0.13138 0.85162 0.38413 0.0
O399 O 0.13066 0.85485 0.35631 0.0
C400 C 0.09552 0.88813 0.35945 0.0
O401 O 0.1233 0.87017 0.40163 0.0
O402 O 0.12393 0.8977 0.39689 0.0
In403 In 0.62805 0.62475 0.8773 0.0
O404 O 0.62725 0.64937 0.85944 0.0
O405 O 0.61452 0.6507 0.88402 0.0
C406 C 0.61888 0.59543 0.85877 0.0
C407 C 0.66284 0.63015 0.87825 0.0
C408 C 0.61889 0.61316 0.90935 0.0
O409 O 0.60771 0.60712 0.86251 0.0
O410 O 0.63428 0.59933 0.86315 0.0
O411 O 0.63405 0.61118 0.90301 0.0
O412 O 0.60817 0.62108 0.89951 0.0
C413 C 0.61945 0.65887 0.87055 0.0
O414 O 0.6532 0.63203 0.89161 0.0
O415 O 0.65489 0.62571 0.8644 0.0
In416 In 0.63365 0.8802 0.88203 0.0
O417 O 0.60724 0.89098 0.87349 0.0
O418 O 0.61058 0.88471 0.90051 0.0
C419 C 0.63608 0.87633 0.8471 0.0
C420 C 0.65035 0.90991 0.89343 0.0
C421 C 0.63979 0.84599 0.89118 0.0
O422 O 0.62181 0.8744 0.85532 0.0
O423 O 0.64917 0.88021 0.85652 0.0
O424 O 0.65167 0.8557 0.88491 0.0
O425 O 0.62571 0.85395 0.89427 0.0
C426 C 0.60049 0.89029 0.88861 0.0
O427 O 0.64371 0.89898 0.90396 0.0
O428 O 0.64974 0.90514 0.87766 0.0
In429 In 0.62559 0.13349 0.38486 0.0
O430 O 0.60424 0.13734 0.40596 0.0
O431 O 0.60598 0.15654 0.38616 0.0
C432 C 0.65926 0.14298 0.39299 0.0
C433 C 0.6173 0.09952 0.39002 0.0
C434 C 0.62713 0.13281 0.34958 0.0
O435 O 0.6502 0.1509 0.38169 0.0
O436 O 0.65072 0.13176 0.40161 0.0
O437 O 0.63636 0.1229 0.35909 0.0
O438 O 0.61687 0.14284 0.35786 0.0
C439 C 0.59743 0.15069 0.39905 0.0
O440 O 0.61123 0.10837 0.37743 0.0
O441 O 0.62756 0.1078 0.40004 0.0
In442 In 0.37334 0.12548 0.88079 0.0
O443 O 0.36341 0.10843 0.90405 0.0
O444 O 0.35366 0.10285 0.8788 0.0
C445 C 0.37216 0.16058 0.88778 0.0
C446 C 0.40638 0.11513 0.88731 0.0
C447 C 0.3685 0.12676 0.84589 0.0
O448 O 0.35837 0.15134 0.88702 0.0
O449 O 0.38613 0.15198 0.88609 0.0
O450 O 0.3808 0.11824 0.85296 0.0
O451 O 0.35849 0.1347 0.85646 0.0
C452 C 0.35445 0.0982 0.89459 0.0
O453 O 0.39917 0.11345 0.87249 0.0
O454 O 0.39687 0.12206 0.899 0.0
In455 In 0.38111 0.87664 0.37993 0.0
O456 O 0.39961 0.86435 0.4009 0.0
O457 O 0.40598 0.86113 0.37411 0.0
C458 C 0.34717 0.87022 0.38957 0.0
C459 C 0.39225 0.90918 0.3879 0.0
C460 C 0.37542 0.8751 0.34523 0.0
O461 O 0.35682 0.85845 0.38305 0.0
O462 O 0.35512 0.88432 0.39275 0.0
O463 O 0.37342 0.88908 0.35392 0.0
O464 O 0.38044 0.86199 0.35402 0.0
C465 C 0.41054 0.85874 0.38977 0.0
O466 O 0.39285 0.90306 0.37251 0.0
O467 O 0.38618 0.8988 0.3993 0.0
In468 In 0.63012 0.12316 0.12686 0.0
O469 O 0.64655 0.10525 0.10802 0.0
O470 O 0.63928 0.09565 0.13302 0.0
C471 C 0.63664 0.15715 0.11752 0.0
C472 C 0.59741 0.11401 0.1175 0.0
C473 C 0.63229 0.12841 0.16158 0.0
O474 O 0.64787 0.14783 0.12535 0.0
O475 O 0.62315 0.14883 0.11289 0.0
O476 O 0.618 0.12958 0.15326 0.0
O477 O 0.64554 0.12465 0.15234 0.0
C478 C 0.64659 0.09243 0.11861 0.0
O479 O 0.60244 0.1146 0.13326 0.0
O480 O 0.60892 0.11814 0.10628 0.0
In481 In 0.3805 0.13116 0.6239 0.0
O482 O 0.3809 0.11847 0.65082 0.0
O483 O 0.37234 0.14499 0.6492 0.0
C484 C 0.39205 0.09887 0.61607 0.0
C485 C 0.34599 0.13466 0.61472 0.0
C486 C 0.40918 0.15022 0.61351 0.0
O487 O 0.39461 0.10604 0.6308 0.0
O488 O 0.38358 0.10804 0.60514 0.0
O489 O 0.3995 0.14225 0.60269 0.0
O490 O 0.4034 0.14996 0.62895 0.0
C491 C 0.37523 0.13181 0.65881 0.0
O492 O 0.3553 0.14764 0.61918 0.0
O493 O 0.35441 0.12052 0.61347 0.0
In494 In 0.37463 0.87941 0.12365 0.0
O495 O 0.39957 0.8925 0.13328 0.0
O496 O 0.39861 0.88427 0.10657 0.0
C497 C 0.36963 0.87502 0.15824 0.0
C498 C 0.35766 0.90853 0.11142 0.0
C499 C 0.37147 0.84495 0.11408 0.0
O500 O 0.38463 0.87451 0.15123 0.0
O501 O 0.35706 0.87778 0.14781 0.0
O502 O 0.35814 0.85448 0.11666 0.0
O503 O 0.38573 0.85317 0.11487 0.0
C504 C 0.40746 0.8912 0.11876 0.0
O505 O 0.36582 0.89825 0.10129 0.0
O506 O 0.35689 0.90328 0.12703 0.0
In507 In 0.62494 0.87589 0.62408 0.0
O508 O 0.64945 0.85782 0.62391 0.0
O509 O 0.65066 0.88125 0.60932 0.0
C510 C 0.59682 0.85822 0.61032 0.0
C511 C 0.62815 0.87563 0.65926 0.0
C512 C 0.614 0.90913 0.61919 0.0
O513 O 0.6049 0.87004 0.60203 0.0
O514 O 0.60406 0.85405 0.62455 0.0
O515 O 0.61022 0.90042 0.63276 0.0
O516 O 0.62326 0.90105 0.60808 0.0
C517 C 0.65889 0.8682 0.61513 0.0
O518 O 0.63535 0.88715 0.64976 0.0
O519 O 0.61909 0.86446 0.65104 0.0
In520 In 0.88526 0.62733 0.87917 0.0
O521 O 0.85859 0.61409 0.87905 0.0
O522 O 0.86008 0.64023 0.88886 0.0
C523 C 0.89779 0.59456 0.87647 0.0
C524 C 0.88933 0.63967 0.84565 0.0
C525 C 0.89753 0.63937 0.91057 0.0
O526 O 0.88168 0.59815 0.87496 0.0
O527 O 0.90772 0.60756 0.87924 0.0
O528 O 0.89506 0.64965 0.89773 0.0
O529 O 0.8944 0.62351 0.90724 0.0
C530 C 0.85053 0.62716 0.88528 0.0
O531 O 0.87541 0.64106 0.85436 0.0
O532 O 0.90206 0.63381 0.85446 0.0
In533 In 0.87924 0.37474 0.12301 0.0
O534 O 0.88371 0.35785 0.1479 0.0
O535 O 0.89225 0.38421 0.14836 0.0
C536 C 0.88939 0.35753 0.09321 0.0
C537 C 0.84496 0.37084 0.13012 0.0
C538 C 0.88438 0.40791 0.11226 0.0
O539 O 0.90043 0.36275 0.10443 0.0
O540 O 0.87371 0.35988 0.09772 0.0
O541 O 0.86975 0.4002 0.11101 0.0
O542 O 0.89656 0.3988 0.11884 0.0
C543 C 0.88986 0.3703 0.15693 0.0
O544 O 0.85213 0.38569 0.12839 0.0
O545 O 0.8551 0.35787 0.12814 0.0
In546 In 0.12712 0.37919 0.62179 0.0
O547 O 0.09999 0.37398 0.61109 0.0
O548 O 0.10662 0.40053 0.61696 0.0
C549 C 0.12991 0.34421 0.62449 0.0
C550 C 0.14641 0.389 0.59315 0.0
C551 C 0.12928 0.3863 0.65681 0.0
O552 O 0.11668 0.35167 0.6179 0.0
O553 O 0.14186 0.35443 0.62979 0.0
O554 O 0.14286 0.38512 0.64729 0.0
O555 O 0.11509 0.38509 0.64847 0.0
C556 C 0.09521 0.38983 0.61137 0.0
O557 O 0.14169 0.40004 0.60461 0.0
O558 O 0.14265 0.37342 0.597 0.0
In559 In 0.12545 0.62669 0.12324 0.0
O560 O 0.1502 0.61105 0.12863 0.0
O561 O 0.15236 0.63891 0.1273 0.0
C562 C 0.11335 0.5954 0.11243 0.0
C563 C 0.1167 0.6333 0.15733 0.0
C564 C 0.11838 0.6453 0.0934 0.0
O565 O 0.12929 0.5998 0.11131 0.0
O566 O 0.10336 0.60684 0.11908 0.0
O567 O 0.10695 0.64322 0.10527 0.0
O568 O 0.13317 0.63916 0.09727 0.0
C569 C 0.16 0.62438 0.12965 0.0
O570 O 0.12421 0.6446 0.14779 0.0
O571 O 0.11215 0.61966 0.14922 0.0
In572 In 0.87547 0.62331 0.6225 0.0
O573 O 0.9009 0.63013 0.60881 0.0
O574 O 0.89863 0.60459 0.62008 0.0
C575 C 0.87083 0.65826 0.6223 0.0
C576 C 0.85601 0.60916 0.59586 0.0
C577 C 0.87534 0.61744 0.65785 0.0
O578 O 0.88302 0.6508 0.61395 0.0
O579 O 0.86084 0.64807 0.63074 0.0
O580 O 0.86164 0.61534 0.64867 0.0
O581 O 0.88872 0.62155 0.64912 0.0
C582 C 0.90801 0.61544 0.61171 0.0
O583 O 0.86692 0.60029 0.60455 0.0
O584 O 0.85352 0.6243 0.60191 0.0
In585 In 0.12304 0.37255 0.87769 0.0
O586 O 0.14978 0.38304 0.86968 0.0
O587 O 0.14903 0.36247 0.88856 0.0
C588 C 0.11664 0.40715 0.8807 0.0
C589 C 0.11632 0.36126 0.84423 0.0
C590 C 0.10869 0.35749 0.90704 0.0
O591 O 0.12976 0.39982 0.88765 0.0
O592 O 0.10662 0.39699 0.87229 0.0
O593 O 0.11914 0.34938 0.89708 0.0
O594 O 0.10428 0.3723 0.9013 0.0
C595 C 0.15832 0.37271 0.8794 0.0
O596 O 0.12965 0.3568 0.85283 0.0
O597 O 0.10526 0.36971 0.85316 0.0
In598 In 0.13223 0.62297 0.37854 0.0
O599 O 0.10678 0.63078 0.39177 0.0
O600 O 0.10868 0.60481 0.38145 0.0
C601 C 0.1348 0.65761 0.37236 0.0
C602 C 0.14995 0.6126 0.408 0.0
C603 C 0.13668 0.61302 0.34439 0.0
O604 O 0.12034 0.65012 0.37548 0.0
O605 O 0.14801 0.64762 0.3725 0.0
O606 O 0.14943 0.61768 0.3539 0.0
O607 O 0.12236 0.61191 0.3525 0.0
C608 C 0.0994 0.61613 0.38926 0.0
O609 O 0.14295 0.60167 0.39769 0.0
O610 O 0.14921 0.62818 0.40266 0.0
In611 In 0.87449 0.38216 0.37735 0.0
O612 O 0.90131 0.37316 0.38634 0.0
O613 O 0.89788 0.40044 0.38121 0.0
C614 C 0.87025 0.34781 0.37093 0.0
C615 C 0.85846 0.39159 0.40805 0.0
C616 C 0.86878 0.39254 0.34354 0.0
O617 O 0.88518 0.3549 0.37238 0.0
O618 O 0.85737 0.35809 0.37279 0.0
O619 O 0.85678 0.38602 0.35293 0.0
O620 O 0.88282 0.3954 0.35171 0.0
C621 C 0.90814 0.38825 0.3858 0.0
O622 O 0.86205 0.40279 0.39634 0.0
O623 O 0.86197 0.37609 0.40374 0.0
C624 C 0.15679 0.31975 0.38156 0.0
C625 C 0.14341 0.32776 0.39139 0.0
C626 C 0.15905 0.30156 0.38217 0.0
C627 C 0.14861 0.26161 0.40717 0.0
H628 H 0.14539 0.23922 0.36159 0.0
C629 C 0.12801 0.18949 0.39973 0.0
C630 C 0.13518 0.1795 0.38602 0.0
C631 C 0.13157 0.20741 0.40098 0.0
C632 C 0.14669 0.24517 0.37442 0.0
H633 H 0.12263 0.32331 0.41031 0.0
H634 H 0.12681 0.29159 0.41162 0.0
H635 H 0.14822 0.27098 0.36343 0.0
H636 H 0.15199 0.18025 0.36309 0.0
H637 H 0.15864 0.21149 0.36552 0.0
H638 H 0.14704 0.23587 0.41823 0.0
C639 C 0.13546 0.29932 0.40339 0.0
C640 C 0.14828 0.2634 0.37546 0.0
C641 C 0.13302 0.31745 0.40258 0.0
C642 C 0.14616 0.1877 0.3737 0.0
C643 C 0.14991 0.20561 0.37507 0.0
C644 C 0.14724 0.24336 0.40615 0.0
C645 C 0.14817 0.29116 0.39283 0.0
C646 C 0.14888 0.2718 0.39184 0.0
C647 C 0.14258 0.21572 0.38869 0.0
C648 C 0.14584 0.23494 0.38976 0.0
H649 H 0.16496 0.32741 0.3728 0.0
H650 H 0.16901 0.29556 0.37398 0.0
H651 H 0.1492 0.26779 0.41996 0.0
H652 H 0.11944 0.18351 0.40938 0.0
H653 H 0.12539 0.21481 0.41142 0.0
C654 C 0.31872 0.63238 0.86695 0.0
C655 C 0.32878 0.63699 0.88164 0.0
C656 C 0.30052 0.6344 0.86718 0.0
C657 C 0.2632 0.63905 0.89804 0.0
H658 H 0.23776 0.64917 0.85517 0.0
C659 C 0.18732 0.64667 0.894 0.0
C660 C 0.17963 0.63555 0.88147 0.0
C661 C 0.20555 0.64886 0.89448 0.0
C662 C 0.24474 0.64639 0.86723 0.0
H663 H 0.32789 0.64789 0.9079 0.0
H664 H 0.29615 0.65203 0.90812 0.0
H665 H 0.26975 0.65004 0.8551 0.0
H666 H 0.1848 0.61822 0.85949 0.0
H667 H 0.21655 0.62234 0.86013 0.0
H668 H 0.23801 0.63559 0.91012 0.0
C669 C 0.3022 0.64636 0.89658 0.0
C670 C 0.26305 0.64675 0.8672 0.0
C671 C 0.32039 0.64408 0.89643 0.0
C672 C 0.1904 0.62683 0.86933 0.0
C673 C 0.20852 0.62926 0.86961 0.0
C674 C 0.24487 0.63896 0.89812 0.0
C675 C 0.292 0.64135 0.88203 0.0
C676 C 0.27253 0.64268 0.8825 0.0
C677 C 0.21625 0.64024 0.8822 0.0
C678 C 0.23552 0.64225 0.88263 0.0
H679 H 0.32485 0.62678 0.8554 0.0
H680 H 0.29312 0.63007 0.85586 0.0
H681 H 0.27002 0.63562 0.91002 0.0
H682 H 0.17928 0.65353 0.90351 0.0
H683 H 0.21127 0.6574 0.9043 0.0
C684 C 0.87657 0.82002 0.37569 0.0
C685 C 0.87857 0.83005 0.391 0.0
C686 C 0.87463 0.80181 0.37673 0.0
C687 C 0.88283 0.76448 0.40667 0.0
H688 H 0.85378 0.73937 0.37328 0.0
C689 C 0.88957 0.69037 0.39601 0.0
C690 C 0.87457 0.68043 0.39209 0.0
C691 C 0.88861 0.70859 0.39716 0.0
C692 C 0.86175 0.74618 0.38288 0.0
H693 H 0.87968 0.82907 0.41941 0.0
H694 H 0.87583 0.7974 0.42128 0.0
H695 H 0.85428 0.77132 0.3729 0.0
H696 H 0.84667 0.68166 0.38672 0.0
H697 H 0.84486 0.71361 0.38915 0.0
H698 H 0.88998 0.73941 0.41692 0.0
C699 C 0.87621 0.80345 0.40843 0.0
C700 C 0.86224 0.7645 0.38249 0.0
C701 C 0.87835 0.82162 0.40737 0.0
C702 C 0.85846 0.68903 0.38971 0.0
C703 C 0.85746 0.70732 0.39099 0.0
C704 C 0.88221 0.7462 0.40717 0.0
C705 C 0.87446 0.7933 0.39312 0.0
C706 C 0.87301 0.77387 0.3942 0.0
C707 C 0.87257 0.71732 0.39459 0.0
C708 C 0.87192 0.7368 0.39507 0.0
H709 H 0.87673 0.8262 0.36289 0.0
H710 H 0.87362 0.7944 0.36465 0.0
H711 H 0.8914 0.77121 0.41579 0.0
H712 H 0.90221 0.68412 0.39782 0.0
H713 H 0.90058 0.71586 0.39962 0.0
C714 C 0.81919 0.40103 0.88117 0.0
C715 C 0.82854 0.38769 0.87258 0.0
C716 C 0.80107 0.40261 0.87885 0.0
C717 C 0.7623 0.37695 0.86464 0.0
H718 H 0.73967 0.42252 0.86503 0.0
C719 C 0.68778 0.3843 0.85534 0.0
C720 C 0.67953 0.39392 0.86873 0.0
C721 C 0.706 0.3849 0.8534 0.0
C722 C 0.74585 0.40972 0.86488 0.0
H723 H 0.82646 0.36585 0.85449 0.0
H724 H 0.79496 0.36887 0.85003 0.0
H725 H 0.77165 0.42073 0.86618 0.0
H726 H 0.68369 0.41243 0.88994 0.0
H727 H 0.71551 0.41364 0.88639 0.0
H728 H 0.73648 0.36599 0.86331 0.0
C729 C 0.80146 0.37785 0.85893 0.0
C730 C 0.76414 0.40867 0.86565 0.0
C731 C 0.81953 0.37615 0.86141 0.0
C732 C 0.68971 0.40485 0.87953 0.0
C733 C 0.7079 0.40561 0.87745 0.0
C734 C 0.74405 0.37802 0.86368 0.0
C735 C 0.79196 0.391 0.86774 0.0
C736 C 0.77259 0.39225 0.8658 0.0
C737 C 0.71625 0.39531 0.86466 0.0
C738 C 0.73564 0.3944 0.86403 0.0
H739 H 0.82582 0.41009 0.8899 0.0
H740 H 0.79418 0.4127 0.88609 0.0
H741 H 0.76829 0.36407 0.86505 0.0
H742 H 0.68024 0.37577 0.84682 0.0
H743 H 0.71212 0.37695 0.84333 0.0
C744 C 0.1115 0.68843 0.61518 0.0
C745 C 0.12347 0.67889 0.62541 0.0
C746 C 0.11017 0.70659 0.61701 0.0
C747 C 0.11771 0.74263 0.64769 0.0
H748 H 0.11723 0.77146 0.60578 0.0
C749 C 0.12273 0.8185 0.64906 0.0
C750 C 0.11392 0.82789 0.63589 0.0
C751 C 0.12272 0.80015 0.64891 0.0
C752 C 0.11702 0.76361 0.61762 0.0
H753 H 0.14337 0.68075 0.64565 0.0
H754 H 0.14092 0.71264 0.64895 0.0
H755 H 0.1201 0.73979 0.6031 0.0
H756 H 0.09721 0.82562 0.613 0.0
H757 H 0.09665 0.79367 0.61309 0.0
H758 H 0.1144 0.76645 0.66223 0.0
C759 C 0.1326 0.70601 0.63953 0.0
C760 C 0.11877 0.74547 0.61606 0.0
C761 C 0.13408 0.68782 0.63755 0.0
C762 C 0.10425 0.81868 0.62322 0.0
C763 C 0.10407 0.80038 0.62318 0.0
C764 C 0.11578 0.76081 0.64926 0.0
C765 C 0.12065 0.71554 0.62923 0.0
C766 C 0.11911 0.73481 0.63106 0.0
C767 C 0.11377 0.79089 0.63569 0.0
C768 C 0.11538 0.77151 0.63422 0.0
H769 H 0.10313 0.68187 0.60575 0.0
H770 H 0.10074 0.7136 0.60902 0.0
H771 H 0.11776 0.73465 0.65946 0.0
H772 H 0.13035 0.82529 0.65895 0.0
H773 H 0.13042 0.79328 0.65867 0.0
C774 C 0.68702 0.6211 0.11418 0.0
C775 C 0.67652 0.62799 0.12764 0.0
C776 C 0.70497 0.62458 0.11372 0.0
C777 C 0.74232 0.63822 0.14107 0.0
H778 H 0.76413 0.64635 0.09578 0.0
C779 C 0.81698 0.64999 0.13314 0.0
C780 C 0.82481 0.63898 0.1206 0.0
C781 C 0.7987 0.65156 0.13394 0.0
C782 C 0.75821 0.64412 0.10851 0.0
H783 H 0.67653 0.64378 0.15131 0.0
H784 H 0.70803 0.64999 0.15045 0.0
H785 H 0.73235 0.64327 0.09773 0.0
H786 H 0.81985 0.62154 0.09868 0.0
H787 H 0.78806 0.62439 0.09997 0.0
H788 H 0.76831 0.63883 0.15178 0.0
C789 C 0.70237 0.64177 0.14033 0.0
C790 C 0.74004 0.64228 0.10963 0.0
C791 C 0.68435 0.63824 0.14081 0.0
C792 C 0.81415 0.63011 0.10849 0.0
C793 C 0.79596 0.63182 0.10916 0.0
C794 C 0.76053 0.64015 0.13996 0.0
C795 C 0.71284 0.6351 0.12667 0.0
C796 C 0.73193 0.63886 0.12585 0.0
C797 C 0.78803 0.64233 0.12206 0.0
C798 C 0.76867 0.64269 0.1236 0.0
H799 H 0.68136 0.61308 0.10389 0.0
H800 H 0.71272 0.61891 0.10323 0.0
H801 H 0.73648 0.63549 0.15374 0.0
H802 H 0.82492 0.65695 0.14266 0.0
H803 H 0.79291 0.65983 0.14395 0.0
C804 C 0.86845 0.18673 0.62303 0.0
C805 C 0.88208 0.1771 0.63082 0.0
C806 C 0.86847 0.20503 0.62373 0.0
C807 C 0.89733 0.24295 0.62805 0.0
H808 H 0.85497 0.26757 0.64175 0.0
C809 C 0.89602 0.31824 0.63533 0.0
C810 C 0.88094 0.32694 0.62934 0.0
C811 C 0.89622 0.29996 0.63673 0.0
C812 C 0.86685 0.26092 0.63769 0.0
H813 H 0.9065 0.179 0.64529 0.0
H814 H 0.90666 0.21109 0.64627 0.0
H815 H 0.85526 0.23557 0.64143 0.0
H816 H 0.85425 0.32345 0.62017 0.0
H817 H 0.85473 0.29157 0.62208 0.0
H818 H 0.90881 0.26818 0.62376 0.0
C819 C 0.89595 0.20444 0.63969 0.0
C820 C 0.86701 0.2426 0.63757 0.0
C821 C 0.89583 0.18611 0.63918 0.0
C822 C 0.86602 0.31708 0.62492 0.0
C823 C 0.86628 0.2988 0.62613 0.0
C824 C 0.89712 0.26127 0.62796 0.0
C825 C 0.88222 0.21405 0.63206 0.0
C826 C 0.88223 0.23346 0.63267 0.0
C827 C 0.88141 0.28999 0.63198 0.0
C828 C 0.88184 0.2705 0.6327 0.0
H829 H 0.85767 0.18012 0.61651 0.0
H830 H 0.85781 0.21216 0.61759 0.0
H831 H 0.90918 0.23619 0.62405 0.0
H832 H 0.90767 0.32554 0.63893 0.0
H833 H 0.90799 0.29366 0.64158 0.0
C834 C 0.31795 0.38181 0.1506 0.0
C835 C 0.32781 0.39242 0.1392 0.0
C836 C 0.29962 0.38213 0.15003 0.0
C837 C 0.26401 0.39294 0.11914 0.0
H838 H 0.23401 0.38634 0.15972 0.0
C839 C 0.18869 0.39778 0.11544 0.0
C840 C 0.17908 0.38468 0.12416 0.0
C841 C 0.2068 0.3991 0.11775 0.0
C842 C 0.24227 0.38805 0.14827 0.0
H843 H 0.32636 0.41254 0.11915 0.0
H844 H 0.29443 0.41353 0.11853 0.0
H845 H 0.26572 0.38913 0.16371 0.0
H846 H 0.18083 0.36266 0.14209 0.0
H847 H 0.21259 0.36499 0.14615 0.0
H848 H 0.24058 0.39196 0.10373 0.0
C849 C 0.30078 0.40455 0.12752 0.0
C850 C 0.2604 0.38965 0.15055 0.0
C851 C 0.31907 0.40409 0.12797 0.0
C852 C 0.18793 0.37286 0.13517 0.0
C853 C 0.20606 0.37427 0.1376 0.0
C854 C 0.24591 0.39146 0.11689 0.0
C855 C 0.29083 0.39319 0.13814 0.0
C856 C 0.27149 0.3921 0.13599 0.0
C857 C 0.21565 0.38742 0.12892 0.0
C858 C 0.23486 0.38897 0.13142 0.0
H859 H 0.32437 0.37263 0.15934 0.0
H860 H 0.29238 0.37313 0.15831 0.0
H861 H 0.27217 0.39439 0.10759 0.0
H862 H 0.1822 0.40711 0.10691 0.0
H863 H 0.21386 0.40945 0.11101 0.0
C864 C 0.36269 0.13235 0.18626 0.0
C865 C 0.37484 0.12108 0.1782 0.0
C866 C 0.36129 0.13291 0.20455 0.0
C867 C 0.37071 0.10756 0.24444 0.0
H868 H 0.37265 0.15286 0.26757 0.0
C869 C 0.38686 0.11382 0.31757 0.0
C870 C 0.37803 0.12656 0.32752 0.0
C871 C 0.38493 0.11328 0.29939 0.0
C872 C 0.37179 0.14012 0.26133 0.0
H873 H 0.39481 0.10135 0.18282 0.0
H874 H 0.39226 0.10224 0.2147 0.0
H875 H 0.37154 0.15142 0.23559 0.0
H876 H 0.36024 0.1487 0.32633 0.0
H877 H 0.35662 0.14759 0.29447 0.0
H878 H 0.37099 0.0962 0.27006 0.0
C879 C 0.3838 0.1106 0.20692 0.0
C880 C 0.37118 0.1393 0.24302 0.0
C881 C 0.38532 0.11016 0.18869 0.0
C882 C 0.36726 0.13879 0.31895 0.0
C883 C 0.36524 0.13818 0.30072 0.0
C884 C 0.37119 0.10836 0.26271 0.0
C885 C 0.37187 0.12207 0.21503 0.0
C886 C 0.37095 0.12301 0.23441 0.0
C887 C 0.37402 0.12537 0.29074 0.0
C888 C 0.37208 0.12464 0.27137 0.0
H889 H 0.35447 0.14092 0.17848 0.0
H890 H 0.35192 0.1418 0.21049 0.0
H891 H 0.37026 0.09482 0.23812 0.0
H892 H 0.39533 0.10428 0.32381 0.0
H893 H 0.39217 0.10347 0.29209 0.0
C894 C 0.36914 0.86299 0.68411 0.0
C895 C 0.37499 0.87864 0.67631 0.0
C896 C 0.36657 0.86208 0.70225 0.0
C897 C 0.36051 0.88975 0.74171 0.0
H898 H 0.3796 0.84961 0.76645 0.0
C899 C 0.35736 0.88345 0.8173 0.0
C900 C 0.3732 0.87843 0.82525 0.0
C901 C 0.35534 0.88218 0.7991 0.0
C902 C 0.37418 0.86089 0.75971 0.0
H903 H 0.38254 0.90564 0.68127 0.0
H904 H 0.37827 0.90399 0.71288 0.0
H905 H 0.38021 0.85021 0.73447 0.0
H906 H 0.39923 0.86793 0.82052 0.0
H907 H 0.39577 0.86588 0.78888 0.0
H908 H 0.35515 0.90074 0.76699 0.0
C909 C 0.37543 0.89249 0.70501 0.0
C910 C 0.37437 0.86116 0.7414 0.0
C911 C 0.37803 0.8934 0.68692 0.0
C912 C 0.38686 0.8719 0.81476 0.0
C913 C 0.38483 0.87058 0.79664 0.0
C914 C 0.36031 0.88948 0.76003 0.0
C915 C 0.36974 0.87681 0.71289 0.0
C916 C 0.36787 0.87575 0.73222 0.0
C917 C 0.36909 0.87579 0.78859 0.0
C918 C 0.36749 0.87521 0.76922 0.0
H919 H 0.36662 0.85144 0.67622 0.0
H920 H 0.36204 0.84986 0.70793 0.0
H921 H 0.35519 0.90107 0.73498 0.0
H922 H 0.3466 0.88848 0.8251 0.0
H923 H 0.34302 0.88618 0.79326 0.0
C924 C 0.65278 0.87717 0.18545 0.0
C925 C 0.64119 0.88885 0.17716 0.0
C926 C 0.65352 0.87633 0.20376 0.0
C927 C 0.641 0.89968 0.2444 0.0
H928 H 0.63484 0.85293 0.26364 0.0
C929 C 0.61572 0.88933 0.31431 0.0
C930 C 0.6239 0.87643 0.32459 0.0
C931 C 0.61918 0.89045 0.29638 0.0
C932 C 0.63681 0.86604 0.25851 0.0
H933 H 0.62212 0.90952 0.18137 0.0
H934 H 0.62352 0.90817 0.21325 0.0
H935 H 0.64025 0.85659 0.23228 0.0
H936 H 0.64166 0.85422 0.32415 0.0
H937 H 0.6478 0.85623 0.29274 0.0
H938 H 0.63734 0.90918 0.27053 0.0
C939 C 0.63202 0.89966 0.20568 0.0
C940 C 0.63996 0.86814 0.24057 0.0
C941 C 0.63116 0.90038 0.18743 0.0
C942 C 0.6351 0.86425 0.3165 0.0
C943 C 0.63862 0.8654 0.29853 0.0
C944 C 0.63791 0.89759 0.26232 0.0
C945 C 0.64283 0.88729 0.21403 0.0
C946 C 0.64175 0.885 0.2333 0.0
C947 C 0.63096 0.87875 0.28836 0.0
C948 C 0.63542 0.88077 0.26952 0.0
H949 H 0.66064 0.86811 0.17782 0.0
H950 H 0.66211 0.86681 0.20988 0.0
H951 H 0.64257 0.91281 0.23918 0.0
H952 H 0.60695 0.89884 0.32018 0.0
H953 H 0.61274 0.90061 0.28883 0.0
C954 C 0.62685 0.11038 0.81951 0.0
C955 C 0.63557 0.12249 0.8303 0.0
C956 C 0.62891 0.11103 0.80134 0.0
C957 C 0.63813 0.14133 0.7658 0.0
H958 H 0.64401 0.09884 0.73843 0.0
C959 C 0.63974 0.1416 0.68974 0.0
C960 C 0.63043 0.12797 0.68153 0.0
C961 C 0.64259 0.14125 0.70787 0.0
C962 C 0.64224 0.11081 0.74587 0.0
H963 H 0.65346 0.14464 0.83068 0.0
H964 H 0.65688 0.14591 0.79873 0.0
H965 H 0.64531 0.0974 0.77035 0.0
H966 H 0.61657 0.10346 0.68578 0.0
H967 H 0.62113 0.10306 0.71732 0.0
H968 H 0.63439 0.15467 0.74137 0.0
C969 C 0.6485 0.13591 0.8044 0.0
C970 C 0.64306 0.10998 0.76413 0.0
C971 C 0.64661 0.13512 0.82263 0.0
C972 C 0.62389 0.1141 0.69174 0.0
C973 C 0.62664 0.1138 0.70981 0.0
C974 C 0.63716 0.14215 0.74751 0.0
C975 C 0.63959 0.12391 0.7936 0.0
C976 C 0.64068 0.12517 0.77427 0.0
C977 C 0.63611 0.1273 0.71809 0.0
C978 C 0.63884 0.12683 0.73736 0.0
H979 H 0.61826 0.1005 0.82508 0.0
H980 H 0.62172 0.10175 0.79331 0.0
H981 H 0.63611 0.15321 0.77334 0.0
H982 H 0.64499 0.15241 0.68214 0.0
H983 H 0.65004 0.15178 0.71383 0.0
C984 C 0.86409 0.81792 0.64122 0.0
C985 C 0.87304 0.82675 0.62774 0.0
C986 C 0.86185 0.79974 0.6405 0.0
C987 C 0.86387 0.76196 0.60972 0.0
H988 H 0.86934 0.7348 0.65241 0.0
C989 C 0.87819 0.68785 0.61047 0.0
C990 C 0.86871 0.67747 0.62239 0.0
C991 C 0.87673 0.70609 0.61087 0.0
C992 C 0.86756 0.74225 0.64043 0.0
H993 H 0.88674 0.82358 0.60301 0.0
H994 H 0.88332 0.79184 0.60199 0.0
H995 H 0.87084 0.76674 0.6537 0.0
H996 H 0.85018 0.67792 0.64399 0.0
H997 H 0.84785 0.70996 0.64486 0.0
H998 H 0.86124 0.73734 0.59642 0.0
C999 C 0.87762 0.79893 0.61291 0.0
C1000 C 0.86837 0.76055 0.64116 0.0
C1001 C 0.87971 0.81711 0.61355 0.0
C1002 C 0.85761 0.68564 0.63464 0.0
C1003 C 0.85633 0.70392 0.63519 0.0
C1004 C 0.86324 0.74367 0.60899 0.0
C1005 C 0.86864 0.79001 0.62636 0.0
C1006 C 0.86674 0.77062 0.62577 0.0
C1007 C 0.86593 0.7143 0.62334 0.0
C1008 C 0.86527 0.73366 0.6243 0.0
H1009 H 0.8587 0.82507 0.65226 0.0
H1010 H 0.85465 0.79333 0.65096 0.0
H1011 H 0.86218 0.76931 0.59768 0.0
H1012 H 0.88683 0.68189 0.60088 0.0
H1013 H 0.88441 0.7138 0.60171 0.0
C1014 C 0.81565 0.38378 0.13663 0.0
C1015 C 0.82607 0.36887 0.13378 0.0
C1016 C 0.79763 0.38209 0.13937 0.0
C1017 C 0.76096 0.35301 0.12927 0.0
H1018 H 0.73594 0.38272 0.16217 0.0
C1019 C 0.68776 0.36915 0.12224 0.0
C1020 C 0.67742 0.36991 0.13746 0.0
C1021 C 0.70587 0.3668 0.12344 0.0
C1022 C 0.74274 0.37416 0.15309 0.0
H1023 H 0.82597 0.34047 0.132 0.0
H1024 H 0.79436 0.33751 0.13676 0.0
H1025 H 0.76797 0.38264 0.1621 0.0
H1026 H 0.67779 0.36852 0.16588 0.0
H1027 H 0.70956 0.36446 0.16799 0.0
H1028 H 0.73574 0.34472 0.1201 0.0
C1029 C 0.80015 0.3505 0.13675 0.0
C1030 C 0.76106 0.37424 0.15294 0.0
C1031 C 0.81821 0.3522 0.13409 0.0
C1032 C 0.68548 0.36804 0.15393 0.0
C1033 C 0.70363 0.36577 0.15514 0.0
C1034 C 0.74264 0.35298 0.12938 0.0
C1035 C 0.78966 0.36546 0.13927 0.0
C1036 C 0.77034 0.36393 0.14079 0.0
C1037 C 0.71401 0.36521 0.1399 0.0
C1038 C 0.73336 0.36381 0.14105 0.0
H1039 H 0.82136 0.39681 0.13648 0.0
H1040 H 0.78986 0.39387 0.14103 0.0
H1041 H 0.76775 0.34501 0.11969 0.0
H1042 H 0.6819 0.37055 0.10937 0.0
H1043 H 0.71355 0.36668 0.11148 0.0
C1044 C 0.13948 0.18417 0.64251 0.0
C1045 C 0.12856 0.17566 0.63035 0.0
C1046 C 0.14141 0.20241 0.64207 0.0
C1047 C 0.13446 0.24074 0.61282 0.0
H1048 H 0.13564 0.26737 0.65618 0.0
C1049 C 0.11961 0.31438 0.61606 0.0
C1050 C 0.13135 0.32497 0.62553 0.0
C1051 C 0.12096 0.29616 0.61675 0.0
C1052 C 0.13554 0.26005 0.64399 0.0
H1053 H 0.11091 0.17946 0.60838 0.0
H1054 H 0.11384 0.21122 0.60791 0.0
H1055 H 0.13467 0.23533 0.65728 0.0
H1056 H 0.15356 0.3249 0.6433 0.0
H1057 H 0.15569 0.29282 0.64477 0.0
H1058 H 0.13467 0.26551 0.59959 0.0
C1059 C 0.12131 0.20388 0.6175 0.0
C1060 C 0.13503 0.24173 0.64459 0.0
C1061 C 0.11951 0.18568 0.61785 0.0
C1062 C 0.14438 0.31701 0.63585 0.0
C1063 C 0.14556 0.29872 0.63674 0.0
C1064 C 0.13478 0.25902 0.61224 0.0
C1065 C 0.13237 0.21247 0.62953 0.0
C1066 C 0.1342 0.23187 0.629 0.0
C1067 C 0.13393 0.28817 0.62709 0.0
C1068 C 0.13506 0.26883 0.62781 0.0
H1069 H 0.14667 0.17673 0.65224 0.0
H1070 H 0.15017 0.20859 0.65141 0.0
H1071 H 0.13429 0.23356 0.60055 0.0
H1072 H 0.10945 0.32017 0.608 0.0
H1073 H 0.11171 0.28828 0.60935 0.0
C1074 C 0.1867 0.60667 0.13646 0.0
C1075 C 0.179 0.62304 0.13294 0.0
C1076 C 0.20482 0.60528 0.13879 0.0
C1077 C 0.24288 0.60811 0.15141 0.0
H1078 H 0.2714 0.63155 0.11633 0.0
C1079 C 0.31906 0.61416 0.15377 0.0
C1080 C 0.32781 0.61162 0.13774 0.0
C1081 C 0.30071 0.61436 0.15437 0.0
C1082 C 0.2636 0.62487 0.12617 0.0
H1083 H 0.18408 0.65085 0.1296 0.0
H1084 H 0.21578 0.64838 0.13356 0.0
H1085 H 0.23963 0.63491 0.11568 0.0
H1086 H 0.32433 0.60639 0.10997 0.0
H1087 H 0.2924 0.60673 0.11105 0.0
H1088 H 0.267 0.59796 0.16178 0.0
C1089 C 0.2078 0.63664 0.13441 0.0
C1090 C 0.24544 0.62696 0.12592 0.0
C1091 C 0.18968 0.63805 0.1322 0.0
C1092 C 0.31795 0.60848 0.1225 0.0
C1093 C 0.29968 0.60878 0.12309 0.0
C1094 C 0.26113 0.60614 0.15175 0.0
C1095 C 0.21557 0.62021 0.13752 0.0
C1096 C 0.23489 0.61852 0.13845 0.0
C1097 C 0.29089 0.61214 0.13893 0.0
C1098 C 0.27161 0.61436 0.13901 0.0
H1099 H 0.17876 0.59489 0.13716 0.0
H1100 H 0.21048 0.59243 0.14102 0.0
H1101 H 0.23503 0.60154 0.16128 0.0
H1102 H 0.32636 0.6166 0.16572 0.0
H1103 H 0.29424 0.61701 0.16675 0.0
C1104 C 0.868 0.18757 0.35446 0.0
C1105 C 0.87053 0.18051 0.37129 0.0
C1106 C 0.86526 0.20556 0.35229 0.0
C1107 C 0.8525 0.24577 0.37617 0.0
H1108 H 0.88102 0.26962 0.34138 0.0
C1109 C 0.85141 0.32105 0.36816 0.0
C1110 C 0.86812 0.32885 0.36781 0.0
C1111 C 0.84961 0.30291 0.36618 0.0
C1112 C 0.87293 0.26313 0.3511 0.0
H1113 H 0.87182 0.18658 0.39906 0.0
H1114 H 0.86715 0.21796 0.39528 0.0
H1115 H 0.8814 0.23764 0.34295 0.0
H1116 H 0.89597 0.32395 0.36459 0.0
H1117 H 0.89284 0.29233 0.36123 0.0
H1118 H 0.84459 0.27128 0.3848 0.0
C1119 C 0.86711 0.20962 0.38377 0.0
C1120 C 0.87301 0.24483 0.35189 0.0
C1121 C 0.86993 0.19167 0.38593 0.0
C1122 C 0.88293 0.31829 0.36495 0.0
C1123 C 0.88112 0.3002 0.36288 0.0
C1124 C 0.85236 0.26407 0.37533 0.0
C1125 C 0.86489 0.21677 0.36693 0.0
C1126 C 0.86313 0.23599 0.36471 0.0
C1127 C 0.86448 0.29229 0.3637 0.0
C1128 C 0.8629 0.27293 0.36306 0.0
H1129 H 0.86833 0.17923 0.34295 0.0
H1130 H 0.86346 0.21072 0.33917 0.0
H1131 H 0.84459 0.23929 0.38605 0.0
H1132 H 0.83977 0.32892 0.37029 0.0
H1133 H 0.83662 0.29716 0.36673 0.0
C1134 C 0.18673 0.36232 0.89208 0.0
C1135 C 0.17764 0.37227 0.87951 0.0
C1136 C 0.20505 0.36161 0.89182 0.0
C1137 C 0.24269 0.36645 0.86248 0.0
H1138 H 0.26929 0.37541 0.9049 0.0
C1139 C 0.31724 0.37886 0.86126 0.0
C1140 C 0.32732 0.37293 0.87547 0.0
C1141 C 0.29896 0.37754 0.8617 0.0
C1142 C 0.26209 0.37255 0.89299 0.0
H1143 H 0.1805 0.38924 0.85684 0.0
H1144 H 0.21249 0.38784 0.85629 0.0
H1145 H 0.23731 0.37538 0.90599 0.0
H1146 H 0.32635 0.36042 0.901 0.0
H1147 H 0.2945 0.35757 0.90154 0.0
H1148 H 0.26734 0.36338 0.84946 0.0
C1149 C 0.20545 0.3806 0.86631 0.0
C1150 C 0.24378 0.37262 0.89363 0.0
C1151 C 0.18717 0.38149 0.86671 0.0
C1152 C 0.31887 0.36523 0.88991 0.0
C1153 C 0.30061 0.36371 0.89027 0.0
C1154 C 0.26099 0.36617 0.86187 0.0
C1155 C 0.21455 0.37064 0.87884 0.0
C1156 C 0.23393 0.36976 0.87834 0.0
C1157 C 0.29041 0.37007 0.87627 0.0
C1158 C 0.27093 0.36942 0.87707 0.0
H1159 H 0.17969 0.35508 0.90209 0.0
H1160 H 0.21179 0.35378 0.90157 0.0
H1161 H 0.23536 0.36397 0.85055 0.0
H1162 H 0.32342 0.38494 0.85 0.0
H1163 H 0.29155 0.38282 0.8508 0.0
C1164 C 0.13803 0.81496 0.38193 0.0
C1165 C 0.13505 0.82546 0.3671 0.0
C1166 C 0.14004 0.79686 0.38023 0.0
C1167 C 0.12804 0.76023 0.35181 0.0
H1168 H 0.16178 0.73493 0.38028 0.0
C1169 C 0.12093 0.68701 0.36857 0.0
C1170 C 0.13613 0.67662 0.36903 0.0
C1171 C 0.12215 0.70509 0.36596 0.0
C1172 C 0.15244 0.74179 0.37206 0.0
H1173 H 0.13211 0.82537 0.33881 0.0
H1174 H 0.13557 0.79356 0.33581 0.0
H1175 H 0.16218 0.76692 0.37997 0.0
H1176 H 0.16449 0.67689 0.36676 0.0
H1177 H 0.16663 0.70856 0.3622 0.0
H1178 H 0.11817 0.73508 0.34407 0.0
C1179 C 0.13627 0.79938 0.34876 0.0
C1180 C 0.15257 0.76011 0.37202 0.0
C1181 C 0.13435 0.81756 0.35047 0.0
C1182 C 0.15256 0.6846 0.36654 0.0
C1183 C 0.15379 0.70272 0.36399 0.0
C1184 C 0.12788 0.7419 0.3519 0.0
C1185 C 0.13906 0.78886 0.36365 0.0
C1186 C 0.14015 0.76951 0.36217 0.0
C1187 C 0.1386 0.71316 0.3638 0.0
C1188 C 0.13987 0.73251 0.36228 0.0
H1189 H 0.13863 0.82069 0.39493 0.0
H1190 H 0.14191 0.78907 0.39197 0.0
H1191 H 0.11825 0.76713 0.34417 0.0
H1192 H 0.10808 0.6812 0.37044 0.0
H1193 H 0.11023 0.71282 0.36613 0.0
C1194 C 0.82109 0.6156 0.87714 0.0
C1195 C 0.83127 0.62767 0.88665 0.0
C1196 C 0.80286 0.61706 0.8769 0.0
C1197 C 0.76491 0.63184 0.90052 0.0
H1198 H 0.74322 0.63706 0.85479 0.0
C1199 C 0.69006 0.64058 0.89323 0.0
C1200 C 0.68204 0.6321 0.87898 0.0
C1201 C 0.70834 0.64166 0.89428 0.0
C1202 C 0.74899 0.63537 0.86766 0.0
H1203 H 0.83045 0.65028 0.9039 0.0
H1204 H 0.79831 0.65243 0.90393 0.0
H1205 H 0.77504 0.63488 0.85706 0.0
H1206 H 0.6867 0.61814 0.85466 0.0
H1207 H 0.71848 0.61932 0.8568 0.0
H1208 H 0.73897 0.63143 0.91116 0.0
C1209 C 0.80456 0.64205 0.8965 0.0
C1210 C 0.76721 0.63424 0.86892 0.0
C1211 C 0.82287 0.64082 0.89646 0.0
C1212 C 0.69256 0.62488 0.86573 0.0
C1213 C 0.7108 0.62568 0.86692 0.0
C1214 C 0.74664 0.63261 0.89925 0.0
C1215 C 0.79448 0.63038 0.88643 0.0
C1216 C 0.77528 0.63234 0.88534 0.0
C1217 C 0.71896 0.63402 0.88125 0.0
C1218 C 0.73843 0.63423 0.88277 0.0
H1219 H 0.82724 0.60537 0.86941 0.0
H1220 H 0.79527 0.60785 0.86915 0.0
H1221 H 0.77093 0.63029 0.91331 0.0
H1222 H 0.68221 0.64636 0.90358 0.0
H1223 H 0.71411 0.64848 0.90533 0.0
C1224 C 0.62352 0.86676 0.81844 0.0
C1225 C 0.6372 0.87473 0.82787 0.0
C1226 C 0.62421 0.86582 0.80017 0.0
C1227 C 0.64142 0.8887 0.76233 0.0
H1228 H 0.63159 0.84554 0.73721 0.0
C1229 C 0.64304 0.88558 0.68671 0.0
C1230 C 0.63029 0.87514 0.67847 0.0
C1231 C 0.64522 0.88491 0.70489 0.0
C1232 C 0.63414 0.85776 0.744 0.0
H1233 H 0.66237 0.88786 0.8257 0.0
H1234 H 0.66336 0.88656 0.79361 0.0
H1235 H 0.63293 0.8453 0.76919 0.0
H1236 H 0.60973 0.85593 0.68269 0.0
H1237 H 0.61305 0.8552 0.71444 0.0
H1238 H 0.64193 0.90138 0.73734 0.0
C1239 C 0.65221 0.88094 0.80042 0.0
C1240 C 0.63501 0.85757 0.7623 0.0
C1241 C 0.65166 0.88161 0.81873 0.0
C1242 C 0.61972 0.86407 0.68871 0.0
C1243 C 0.62174 0.86355 0.7069 0.0
C1244 C 0.6403 0.88895 0.74404 0.0
C1245 C 0.63845 0.87309 0.79099 0.0
C1246 C 0.63854 0.87305 0.77161 0.0
C1247 C 0.63455 0.87393 0.71524 0.0
C1248 C 0.63651 0.87351 0.73465 0.0
H1249 H 0.61224 0.86132 0.82519 0.0
H1250 H 0.61338 0.85982 0.79317 0.0
H1251 H 0.64397 0.90085 0.76925 0.0
H1252 H 0.65147 0.89414 0.67909 0.0
H1253 H 0.6554 0.89287 0.7108 0.0
C1254 C 0.64826 0.12531 0.19002 0.0
C1255 C 0.63326 0.13064 0.18075 0.0
C1256 C 0.64871 0.12646 0.2083 0.0
C1257 C 0.62898 0.1487 0.24603 0.0
H1258 H 0.64148 0.10662 0.27174 0.0
C1259 C 0.61611 0.14202 0.32015 0.0
C1260 C 0.62844 0.13288 0.33029 0.0
C1261 C 0.61748 0.14224 0.30189 0.0
C1262 C 0.63825 0.11858 0.26481 0.0
H1263 H 0.60722 0.14183 0.18317 0.0
H1264 H 0.60813 0.14407 0.21513 0.0
H1265 H 0.64308 0.1067 0.23981 0.0
H1266 H 0.652 0.11698 0.32941 0.0
H1267 H 0.6547 0.11774 0.29757 0.0
H1268 H 0.62433 0.16071 0.27094 0.0
C1269 C 0.61948 0.13896 0.20826 0.0
C1270 C 0.63913 0.11859 0.24652 0.0
C1271 C 0.61893 0.13759 0.19001 0.0
C1272 C 0.64222 0.12402 0.32188 0.0
C1273 C 0.64371 0.12439 0.30363 0.0
C1274 C 0.62829 0.14877 0.26433 0.0
C1275 C 0.63428 0.13319 0.21758 0.0
C1276 C 0.63433 0.13359 0.23697 0.0
C1277 C 0.63133 0.13347 0.29339 0.0
C1278 C 0.63273 0.13365 0.27395 0.0
H1279 H 0.65948 0.1199 0.18319 0.0
H1280 H 0.66032 0.12204 0.21521 0.0
H1281 H 0.62539 0.16048 0.23894 0.0
H1282 H 0.60531 0.14891 0.32632 0.0
H1283 H 0.60752 0.14909 0.29442 0.0
C1284 C 0.36351 0.14588 0.68607 0.0
C1285 C 0.37218 0.13183 0.6779 0.0
C1286 C 0.36053 0.14567 0.70417 0.0
C1287 C 0.35973 0.11543 0.74244 0.0
H1288 H 0.36717 0.15793 0.76944 0.0
C1289 C 0.37524 0.11547 0.81602 0.0
C1290 C 0.36619 0.1274 0.82673 0.0
C1291 C 0.37349 0.11617 0.79783 0.0
C1292 C 0.36481 0.14603 0.76202 0.0
H1293 H 0.38467 0.10664 0.68216 0.0
H1294 H 0.37997 0.10647 0.71369 0.0
H1295 H 0.36896 0.15899 0.73747 0.0
H1296 H 0.34819 0.14942 0.82692 0.0
H1297 H 0.3454 0.15087 0.79489 0.0
H1298 H 0.35634 0.10238 0.76709 0.0
C1299 C 0.37502 0.11746 0.70617 0.0
C1300 C 0.36579 0.14662 0.74372 0.0
C1301 C 0.37786 0.11761 0.6881 0.0
C1302 C 0.35528 0.14004 0.81893 0.0
C1303 C 0.35373 0.14092 0.80067 0.0
C1304 C 0.35894 0.11482 0.76071 0.0
C1305 C 0.36627 0.13144 0.71443 0.0
C1306 C 0.3636 0.13124 0.73374 0.0
C1307 C 0.36283 0.12897 0.78999 0.0
C1308 C 0.36178 0.13005 0.77066 0.0
H1309 H 0.35891 0.15697 0.67846 0.0
H1310 H 0.35359 0.15656 0.71009 0.0
H1311 H 0.35754 0.10343 0.73514 0.0
H1312 H 0.38373 0.10558 0.82169 0.0
H1313 H 0.38079 0.10694 0.78986 0.0
C1314 C 0.38 0.86464 0.18741 0.0
C1315 C 0.36716 0.87311 0.17729 0.0
C1316 C 0.37819 0.86357 0.2056 0.0
C1317 C 0.3623 0.88749 0.24227 0.0
H1318 H 0.36458 0.84368 0.26804 0.0
C1319 C 0.3617 0.88672 0.31787 0.0
C1320 C 0.37224 0.87415 0.32621 0.0
C1321 C 0.35877 0.88582 0.2998 0.0
C1322 C 0.36416 0.85606 0.26109 0.0
H1323 H 0.34233 0.88694 0.17805 0.0
H1324 H 0.33952 0.88561 0.21011 0.0
H1325 H 0.36385 0.84324 0.23602 0.0
H1326 H 0.38806 0.85087 0.32235 0.0
H1327 H 0.38379 0.84978 0.29076 0.0
H1328 H 0.36374 0.90048 0.26702 0.0
C1329 C 0.35077 0.87959 0.20386 0.0
C1330 C 0.36357 0.85575 0.24278 0.0
C1331 C 0.35237 0.8803 0.1856 0.0
C1332 C 0.37979 0.86067 0.31623 0.0
C1333 C 0.37718 0.85997 0.29812 0.0
C1334 C 0.36327 0.88784 0.26056 0.0
C1335 C 0.36372 0.87127 0.21396 0.0
C1336 C 0.36278 0.87147 0.23327 0.0
C1337 C 0.36664 0.87255 0.28963 0.0
C1338 C 0.36441 0.87213 0.27022 0.0
H1339 H 0.39149 0.85895 0.18128 0.0
H1340 H 0.38838 0.85721 0.21319 0.0
H1341 H 0.36189 0.89978 0.23512 0.0
H1342 H 0.35558 0.89714 0.32534 0.0
H1343 H 0.35029 0.89552 0.29385 0.0
C1344 C 0.10116 0.11914 0.56854 0.0
C1345 C 0.10945 0.10683 0.57943 0.0
C1346 C 0.09817 0.11537 0.5509 0.0
C1347 C 0.11673 0.08979 0.51519 0.0
H1348 H 0.07617 0.10737 0.49001 0.0
C1349 C 0.11523 0.09272 0.43956 0.0
C1350 C 0.11056 0.10935 0.43315 0.0
C1351 C 0.11206 0.08834 0.45712 0.0
C1352 C 0.08754 0.10232 0.49687 0.0
H1353 H 0.12052 0.08066 0.58064 0.0
H1354 H 0.11537 0.07407 0.54961 0.0
H1355 H 0.07594 0.10687 0.52204 0.0
H1356 H 0.09826 0.13414 0.43975 0.0
H1357 H 0.09283 0.12658 0.47025 0.0
H1358 H 0.12866 0.086 0.49006 0.0
C1359 C 0.11125 0.08666 0.55477 0.0
C1360 C 0.08741 0.10203 0.51518 0.0
C1361 C 0.11414 0.09041 0.5725 0.0
C1362 C 0.10204 0.12123 0.44434 0.0
C1363 C 0.09879 0.11683 0.46179 0.0
C1364 C 0.11687 0.09008 0.49686 0.0
C1365 C 0.10347 0.09922 0.54373 0.0
C1366 C 0.10225 0.09636 0.52453 0.0
C1367 C 0.10404 0.10047 0.46847 0.0
C1368 C 0.10252 0.09695 0.48754 0.0
H1369 H 0.09736 0.1319 0.57353 0.0
H1370 H 0.09239 0.12543 0.5427 0.0
H1371 H 0.12842 0.08548 0.52202 0.0
H1372 H 0.12178 0.08329 0.43118 0.0
H1373 H 0.11616 0.0756 0.46189 0.0
C1374 C 0.38513 0.60561 0.94356 0.0
C1375 C 0.39705 0.61446 0.93265 0.0
C1376 C 0.38866 0.60359 0.96139 0.0
C1377 C 0.41112 0.62572 0.99691 0.0
H1378 H 0.39843 0.58394 0.02306 0.0
C1379 C 0.40935 0.62449 0.07287 0.0
C1380 C 0.39417 0.61677 0.07995 0.0
C1381 C 0.41327 0.62256 0.05503 0.0
C1382 C 0.40202 0.59571 0.01594 0.0
H1383 H 0.4223 0.62757 0.93161 0.0
H1384 H 0.4284 0.62419 0.96298 0.0
H1385 H 0.3992 0.58297 0.99107 0.0
H1386 H 0.37129 0.60087 0.07405 0.0
H1387 H 0.37793 0.59775 0.04305 0.0
H1388 H 0.41313 0.63872 0.02172 0.0
C1389 C 0.41634 0.61882 0.95768 0.0
C1390 C 0.40251 0.59513 0.99766 0.0
C1391 C 0.41289 0.62069 0.93976 0.0
C1392 C 0.38311 0.60695 0.06897 0.0
C1393 C 0.38701 0.60502 0.05123 0.0
C1394 C 0.41055 0.62634 0.01523 0.0
C1395 C 0.40412 0.6105 0.9687 0.0
C1396 C 0.40655 0.61026 0.98796 0.0
C1397 C 0.40209 0.61283 0.04402 0.0
C1398 C 0.40544 0.61148 0.0249 0.0
H1399 H 0.37283 0.60066 0.93842 0.0
H1400 H 0.3789 0.5973 0.9696 0.0
H1401 H 0.41414 0.63763 0.98976 0.0
H1402 H 0.41813 0.63209 0.08107 0.0
H1403 H 0.42503 0.62866 0.04986 0.0
C1404 C 0.89 0.92304 0.44126 0.0
C1405 C 0.89816 0.90748 0.4357 0.0
C1406 C 0.89131 0.92843 0.45874 0.0
C1407 C 0.88234 0.92377 0.49726 0.0
H1408 H 0.92231 0.91594 0.52777 0.0
C1409 C 0.87665 0.89417 0.56539 0.0
C1410 C 0.88625 0.90145 0.57931 0.0
C1411 C 0.87889 0.90043 0.54837 0.0
C1412 C 0.91111 0.91854 0.51942 0.0
H1413 H 0.91535 0.88624 0.44354 0.0
H1414 H 0.91763 0.8956 0.47398 0.0
H1415 H 0.92672 0.91801 0.49601 0.0
H1416 H 0.90561 0.92103 0.58649 0.0
H1417 H 0.90996 0.93168 0.55634 0.0
H1418 H 0.86662 0.92321 0.52053 0.0
C1419 C 0.91024 0.90368 0.46492 0.0
C1420 C 0.91361 0.91962 0.50127 0.0
C1421 C 0.90882 0.89822 0.44751 0.0
C1422 C 0.89804 0.91524 0.57594 0.0
C1423 C 0.90054 0.9213 0.55877 0.0
C1424 C 0.87985 0.92253 0.51534 0.0
C1425 C 0.90094 0.91844 0.47088 0.0
C1426 C 0.89915 0.92155 0.48998 0.0
C1427 C 0.89095 0.91392 0.54487 0.0
C1428 C 0.89411 0.91921 0.52649 0.0
H1429 H 0.88177 0.93049 0.43238 0.0
H1430 H 0.88413 0.93995 0.46296 0.0
H1431 H 0.87092 0.92512 0.48892 0.0
H1432 H 0.86743 0.88358 0.56764 0.0
H1433 H 0.87153 0.89434 0.53784 0.0
C1434 C 0.62949 0.39841 0.94488 0.0
C1435 C 0.61681 0.3906 0.93404 0.0
C1436 C 0.62624 0.40075 0.96273 0.0
C1437 C 0.60001 0.38298 0.99886 0.0
H1438 H 0.61746 0.42406 0.02337 0.0
C1439 C 0.59666 0.38851 0.07416 0.0
C1440 C 0.6128 0.39288 0.08192 0.0
C1441 C 0.59413 0.39082 0.05614 0.0
C1442 C 0.61248 0.41253 0.01669 0.0
H1443 H 0.59067 0.37936 0.93326 0.0
H1444 H 0.58495 0.38349 0.96456 0.0
H1445 H 0.61857 0.42305 0.99138 0.0
H1446 H 0.63864 0.40386 0.07716 0.0
H1447 H 0.63426 0.40784 0.04578 0.0
H1448 H 0.59439 0.37225 0.02418 0.0
C1449 C 0.59746 0.38768 0.95925 0.0
C1450 C 0.61315 0.41193 0.9984 0.0
C1451 C 0.60072 0.38535 0.94135 0.0
C1452 C 0.62607 0.40034 0.07152 0.0
C1453 C 0.62351 0.40274 0.05357 0.0
C1454 C 0.5993 0.3836 0.01715 0.0
C1455 C 0.61023 0.39534 0.97014 0.0
C1456 C 0.60737 0.39695 0.98932 0.0
C1457 C 0.60766 0.39766 0.04562 0.0
C1458 C 0.60597 0.39818 0.02627 0.0
H1459 H 0.64203 0.40259 0.93962 0.0
H1460 H 0.63648 0.40641 0.97081 0.0
H1461 H 0.5956 0.37119 0.99226 0.0
H1462 H 0.58619 0.38278 0.08189 0.0
H1463 H 0.58173 0.38694 0.05038 0.0
C1464 C 0.1299 0.90651 0.56808 0.0
C1465 C 0.12979 0.88954 0.57529 0.0
C1466 C 0.13069 0.90884 0.54987 0.0
C1467 C 0.14308 0.88569 0.50922 0.0
H1468 H 0.10865 0.91532 0.48628 0.0
C1469 C 0.12286 0.87404 0.43853 0.0
C1470 C 0.12247 0.88847 0.4271 0.0
C1471 C 0.12462 0.87655 0.45653 0.0
C1472 C 0.1185 0.90723 0.49254 0.0
H1473 H 0.13067 0.86174 0.56923 0.0
H1474 H 0.13207 0.86576 0.53767 0.0
H1475 H 0.11112 0.91566 0.51836 0.0
H1476 H 0.12288 0.91689 0.42554 0.0
H1477 H 0.12575 0.92129 0.45733 0.0
H1478 H 0.15007 0.8768 0.48357 0.0
C1479 C 0.13168 0.87729 0.54598 0.0
C1480 C 0.11995 0.90744 0.51085 0.0
C1481 C 0.13076 0.87498 0.56406 0.0
C1482 C 0.12315 0.90553 0.43409 0.0
C1483 C 0.12479 0.90806 0.45222 0.0
C1484 C 0.1416 0.88544 0.49102 0.0
C1485 C 0.1316 0.89421 0.53867 0.0
C1486 C 0.13189 0.89624 0.51936 0.0
C1487 C 0.12595 0.89354 0.46352 0.0
C1488 C 0.12893 0.89578 0.48255 0.0
H1489 H 0.12914 0.91796 0.57648 0.0
H1490 H 0.13066 0.92202 0.54456 0.0
H1491 H 0.15265 0.87722 0.51542 0.0
H1492 H 0.12227 0.86073 0.43355 0.0
H1493 H 0.12512 0.86514 0.465 0.0
C1494 C 0.62586 0.59605 0.93622 0.0
C1495 C 0.61459 0.60755 0.92733 0.0
C1496 C 0.62314 0.59223 0.95389 0.0
C1497 C 0.59194 0.59669 0.99118 0.0
H1498 H 0.63505 0.59957 0.01804 0.0
C1499 C 0.59591 0.61164 0.06573 0.0
C1500 C 0.60963 0.60382 0.07522 0.0
C1501 C 0.59427 0.60864 0.04769 0.0
C1502 C 0.6229 0.59837 0.01077 0.0
H1503 H 0.5911 0.62339 0.9296 0.0
H1504 H 0.58659 0.61715 0.96075 0.0
H1505 H 0.6363 0.60067 0.98634 0.0
H1506 H 0.63141 0.5856 0.07374 0.0
H1507 H 0.62836 0.58012 0.04242 0.0
H1508 H 0.57857 0.59501 0.01592 0.0
C1509 C 0.59737 0.61083 0.95398 0.0
C1510 C 0.62361 0.599 0.99254 0.0
C1511 C 0.6 0.61449 0.93619 0.0
C1512 C 0.62086 0.59199 0.06669 0.0
C1513 C 0.61915 0.5889 0.04875 0.0
C1514 C 0.59122 0.59612 0.00953 0.0
C1515 C 0.60923 0.60005 0.96314 0.0
C1516 C 0.60817 0.59825 0.9825 0.0
C1517 C 0.60628 0.59771 0.03893 0.0
C1518 C 0.60672 0.59703 0.0195 0.0
H1519 H 0.63708 0.59031 0.92962 0.0
H1520 H 0.63226 0.58353 0.96044 0.0
H1521 H 0.57982 0.59597 0.9838 0.0
H1522 H 0.58705 0.6208 0.07201 0.0
H1523 H 0.58426 0.61568 0.04047 0.0
C1524 C 0.90081 0.12836 0.44042 0.0
C1525 C 0.8941 0.11521 0.42941 0.0
C1526 C 0.90306 0.12519 0.4583 0.0
C1527 C 0.88434 0.0991 0.4935 0.0
H1528 H 0.92319 0.11801 0.5204 0.0
C1529 C 0.8848 0.09767 0.56925 0.0
C1530 C 0.88988 0.11346 0.57728 0.0
C1531 C 0.88754 0.09511 0.55129 0.0
C1532 C 0.91223 0.1127 0.51307 0.0
H1533 H 0.88509 0.08823 0.42825 0.0
H1534 H 0.8889 0.08273 0.45966 0.0
H1535 H 0.92448 0.11828 0.4884 0.0
H1536 H 0.90202 0.13885 0.57297 0.0
H1537 H 0.90652 0.13455 0.54168 0.0
H1538 H 0.87174 0.09418 0.51809 0.0
C1539 C 0.89237 0.09548 0.45442 0.0
C1540 C 0.913 0.11281 0.49478 0.0
C1541 C 0.89027 0.09861 0.43647 0.0
C1542 C 0.898 0.12652 0.56714 0.0
C1543 C 0.90071 0.12399 0.54922 0.0
C1544 C 0.88353 0.09906 0.5118 0.0
C1545 C 0.89852 0.10885 0.46554 0.0
C1546 C 0.89888 0.1064 0.48481 0.0
C1547 C 0.89541 0.10831 0.54106 0.0
C1548 C 0.89727 0.10627 0.52178 0.0
H1549 H 0.9039 0.14127 0.43532 0.0
H1550 H 0.90763 0.13581 0.46658 0.0
H1551 H 0.87318 0.09425 0.48616 0.0
H1552 H 0.87858 0.08734 0.57679 0.0
H1553 H 0.88347 0.08283 0.54542 0.0
C1554 C 0.40716 0.3838 0.93685 0.0
C1555 C 0.39152 0.38972 0.92909 0.0
C1556 C 0.40888 0.38347 0.95514 0.0
C1557 C 0.38105 0.38023 0.99413 0.0
H1558 H 0.42172 0.39597 0.02039 0.0
C1559 C 0.37711 0.39283 0.06747 0.0
C1560 C 0.39038 0.38592 0.0782 0.0
C1561 C 0.37899 0.39289 0.04931 0.0
C1562 C 0.41039 0.39132 0.01317 0.0
H1563 H 0.36584 0.40086 0.93424 0.0
H1564 H 0.3689 0.40044 0.96599 0.0
H1565 H 0.422 0.39735 0.9882 0.0
H1566 H 0.41627 0.37415 0.07842 0.0
H1567 H 0.4196 0.37433 0.04637 0.0
H1568 H 0.36931 0.37439 0.0189 0.0
C1569 C 0.3797 0.39573 0.95803 0.0
C1570 C 0.41054 0.39213 0.99481 0.0
C1571 C 0.378 0.39608 0.93985 0.0
C1572 C 0.40583 0.37951 0.07042 0.0
C1573 C 0.40776 0.37966 0.05214 0.0
C1574 C 0.3809 0.37944 0.01236 0.0
C1575 C 0.39494 0.38899 0.96587 0.0
C1576 C 0.39568 0.38697 0.98517 0.0
C1577 C 0.39419 0.38608 0.04144 0.0
C1578 C 0.39538 0.38536 0.02209 0.0
H1579 H 0.4178 0.37883 0.92884 0.0
H1580 H 0.42077 0.37821 0.96086 0.0
H1581 H 0.36959 0.37571 0.98702 0.0
H1582 H 0.36509 0.39796 0.07307 0.0
H1583 H 0.36846 0.39821 0.04139 0.0
C1584 C 0.56797 0.10238 0.12556 0.0
C1585 C 0.57925 0.10932 0.11276 0.0
C1586 C 0.55046 0.09893 0.1216 0.0
C1587 C 0.51536 0.11438 0.09364 0.0
H1588 H 0.49049 0.07442 0.11307 0.0
C1589 C 0.43981 0.11145 0.09413 0.0
C1590 C 0.43271 0.10718 0.11061 0.0
C1591 C 0.45758 0.1085 0.09064 0.0
C1592 C 0.49725 0.08563 0.10753 0.0
H1593 H 0.58127 0.11766 0.08563 0.0
H1594 H 0.55039 0.11182 0.07874 0.0
H1595 H 0.52251 0.07503 0.11369 0.0
H1596 H 0.43839 0.09584 0.13607 0.0
H1597 H 0.46932 0.09092 0.13011 0.0
H1598 H 0.49015 0.12544 0.0883 0.0
C1599 C 0.55519 0.10903 0.09182 0.0
C1600 C 0.51556 0.08596 0.10786 0.0
C1601 C 0.57282 0.11233 0.09575 0.0
C1602 C 0.4435 0.09928 0.12326 0.0
C1603 C 0.46121 0.09632 0.11977 0.0
C1604 C 0.49704 0.1141 0.09338 0.0
C1605 C 0.54381 0.10246 0.10478 0.0
C1606 C 0.52476 0.1006 0.10146 0.0
C1607 C 0.46853 0.10118 0.10355 0.0
C1608 C 0.48778 0.09999 0.10088 0.0
H1609 H 0.57259 0.0999 0.13877 0.0
H1610 H 0.54195 0.09411 0.13193 0.0
H1611 H 0.52211 0.1259 0.08874 0.0
H1612 H 0.43175 0.11749 0.08411 0.0
H1613 H 0.46282 0.11223 0.07796 0.0
C1614 C 0.39312 0.94192 0.59661 0.0
C1615 C 0.40016 0.93255 0.61082 0.0
C1616 C 0.39626 0.95992 0.59494 0.0
C1617 C 0.4057 0.99739 0.62337 0.0
H1618 H 0.40992 0.02331 0.57978 0.0
C1619 C 0.40877 0.07208 0.62432 0.0
C1620 C 0.39756 0.08068 0.61253 0.0
C1621 C 0.41248 0.0543 0.62226 0.0
C1622 C 0.4087 0.01622 0.59204 0.0
H1623 H 0.4171 0.93425 0.63361 0.0
H1624 H 0.42286 0.96553 0.6305 0.0
H1625 H 0.41065 0.99117 0.57933 0.0
H1626 H 0.38216 0.07774 0.58881 0.0
H1627 H 0.3883 0.04645 0.58542 0.0
H1628 H 0.40323 0.02217 0.63609 0.0
C1629 C 0.41455 0.95913 0.62091 0.0
C1630 C 0.40913 0.99785 0.59178 0.0
C1631 C 0.41131 0.9412 0.62265 0.0
C1632 C 0.39083 0.0714 0.59811 0.0
C1633 C 0.39443 0.05351 0.59612 0.0
C1634 C 0.40527 0.01564 0.62363 0.0
C1635 C 0.40656 0.96881 0.60741 0.0
C1636 C 0.40751 0.98825 0.60746 0.0
C1637 C 0.40491 0.04468 0.60847 0.0
C1638 C 0.40664 0.02529 0.60798 0.0
H1639 H 0.38449 0.93554 0.58729 0.0
H1640 H 0.38983 0.96703 0.58445 0.0
H1641 H 0.40398 0.99042 0.63564 0.0
H1642 H 0.41434 0.07899 0.63544 0.0
H1643 H 0.42092 0.04796 0.63177 0.0
C1644 C 0.43547 0.89048 0.10174 0.0
C1645 C 0.42616 0.8957 0.11677 0.0
C1646 C 0.45368 0.89244 0.10099 0.0
C1647 C 0.49122 0.89487 0.13097 0.0
H1648 H 0.51777 0.9052 0.08878 0.0
C1649 C 0.56618 0.89981 0.13211 0.0
C1650 C 0.57521 0.89082 0.11881 0.0
C1651 C 0.5481 0.90231 0.13099 0.0
C1652 C 0.5105 0.9022 0.10062 0.0
H1653 H 0.42834 0.90815 0.14226 0.0
H1654 H 0.46006 0.91193 0.14079 0.0
H1655 H 0.48572 0.9071 0.08827 0.0
H1656 H 0.57255 0.87778 0.09367 0.0
H1657 H 0.54078 0.88202 0.09176 0.0
H1658 H 0.51585 0.88979 0.14329 0.0
C1659 C 0.45339 0.90591 0.12978 0.0
C1660 C 0.49218 0.9033 0.10034 0.0
C1661 C 0.43521 0.90385 0.13058 0.0
C1662 C 0.56589 0.88473 0.10413 0.0
C1663 C 0.54775 0.88726 0.10298 0.0
C1664 C 0.50946 0.89383 0.13126 0.0
C1665 C 0.46288 0.89973 0.11521 0.0
C1666 C 0.48235 0.89959 0.11552 0.0
C1667 C 0.53866 0.89586 0.11654 0.0
C1668 C 0.5193 0.89743 0.1161 0.0
H1669 H 0.4288 0.88415 0.0909 0.0
H1670 H 0.46061 0.88744 0.08963 0.0
H1671 H 0.48405 0.8915 0.14278 0.0
H1672 H 0.57304 0.90477 0.14354 0.0
H1673 H 0.54149 0.90922 0.1415 0.0
C1674 C 0.61299 0.06646 0.60237 0.0
C1675 C 0.60635 0.07592 0.61672 0.0
C1676 C 0.60983 0.04844 0.60092 0.0
C1677 C 0.60112 0.01096 0.62963 0.0
H1678 H 0.59512 0.98533 0.58609 0.0
C1679 C 0.59823 0.9359 0.62951 0.0
C1680 C 0.60882 0.92761 0.61692 0.0
C1681 C 0.59458 0.95379 0.62818 0.0
C1682 C 0.59684 0.99233 0.59834 0.0
H1683 H 0.59016 0.07432 0.64008 0.0
H1684 H 0.58441 0.043 0.6374 0.0
H1685 H 0.59451 0.01744 0.58585 0.0
H1686 H 0.62327 0.93131 0.59268 0.0
H1687 H 0.6172 0.96264 0.59055 0.0
H1688 H 0.60399 0.98606 0.64209 0.0
C1689 C 0.59239 0.04936 0.6275 0.0
C1690 C 0.59648 0.01068 0.5982 0.0
C1691 C 0.59563 0.06731 0.62899 0.0
C1692 C 0.6151 0.93738 0.6026 0.0
C1693 C 0.61151 0.9553 0.60131 0.0
C1694 C 0.6015 0.99269 0.62977 0.0
C1695 C 0.59992 0.03962 0.61377 0.0
C1696 C 0.5988 0.02019 0.61384 0.0
C1697 C 0.60152 0.96378 0.61429 0.0
C1698 C 0.59956 0.98315 0.61412 0.0
H1699 H 0.62129 0.0728 0.59271 0.0
H1700 H 0.6159 0.04128 0.59025 0.0
H1701 H 0.60333 0.01787 0.64186 0.0
H1702 H 0.59307 0.92865 0.6406 0.0
H1703 H 0.58658 0.95989 0.63823 0.0
C1704 C 0.44109 0.88751 0.90644 0.0
C1705 C 0.43415 0.88875 0.8894 0.0
C1706 C 0.459 0.89037 0.90936 0.0
C1707 C 0.49797 0.91121 0.88967 0.0
H1708 H 0.52456 0.87583 0.91469 0.0
C1709 C 0.57115 0.89983 0.87786 0.0
C1710 C 0.58187 0.89441 0.8918 0.0
C1711 C 0.55316 0.90205 0.88034 0.0
C1712 C 0.51732 0.88605 0.908 0.0
H1713 H 0.44039 0.89406 0.86213 0.0
H1714 H 0.47149 0.89903 0.86723 0.0
H1715 H 0.49259 0.8741 0.9141 0.0
H1716 H 0.58237 0.88778 0.91947 0.0
H1717 H 0.55084 0.8918 0.92386 0.0
H1718 H 0.52263 0.92294 0.88317 0.0
C1719 C 0.46314 0.896 0.87834 0.0
C1720 C 0.49901 0.88503 0.90765 0.0
C1721 C 0.44536 0.893 0.8754 0.0
C1722 C 0.57438 0.89191 0.90847 0.0
C1723 C 0.55634 0.89412 0.91096 0.0
C1724 C 0.51623 0.91229 0.89009 0.0
C1725 C 0.47016 0.89472 0.89532 0.0
C1726 C 0.48922 0.89729 0.89801 0.0
C1727 C 0.5455 0.89892 0.89684 0.0
C1728 C 0.52614 0.89941 0.89879 0.0
H1729 H 0.43271 0.88428 0.91746 0.0
H1730 H 0.4641 0.88931 0.92258 0.0
H1731 H 0.49069 0.92102 0.88241 0.0
H1732 H 0.57656 0.90185 0.86487 0.0
H1733 H 0.54516 0.90551 0.86912 0.0
C1734 C 0.59735 0.94108 0.38083 0.0
C1735 C 0.60948 0.93208 0.39135 0.0
C1736 C 0.59501 0.95912 0.38276 0.0
C1737 C 0.60434 0.99732 0.41137 0.0
H1738 H 0.60573 0.02238 0.3671 0.0
C1739 C 0.62183 0.07089 0.40535 0.0
C1740 C 0.61323 0.08076 0.3924 0.0
C1741 C 0.61887 0.05285 0.40673 0.0
C1742 C 0.60499 0.01563 0.37959 0.0
H1743 H 0.62801 0.93465 0.41277 0.0
H1744 H 0.62413 0.9663 0.416 0.0
H1745 H 0.60468 0.99056 0.36712 0.0
H1746 H 0.5942 0.07975 0.37128 0.0
H1747 H 0.58884 0.04832 0.37383 0.0
H1748 H 0.60503 0.02254 0.42381 0.0
C1749 C 0.61629 0.95938 0.40637 0.0
C1750 C 0.60439 0.99736 0.37959 0.0
C1751 C 0.61859 0.94128 0.40447 0.0
C1752 C 0.60114 0.07242 0.38128 0.0
C1753 C 0.59813 0.05442 0.3827 0.0
C1754 C 0.60492 0.01566 0.41137 0.0
C1755 C 0.60483 0.96855 0.3952 0.0
C1756 C 0.6042 0.98799 0.39547 0.0
C1757 C 0.60721 0.04437 0.39522 0.0
C1758 C 0.60541 0.025 0.39545 0.0
H1759 H 0.59001 0.93428 0.37072 0.0
H1760 H 0.58583 0.96577 0.3742 0.0
H1761 H 0.60405 0.99044 0.42381 0.0
H1762 H 0.63121 0.07701 0.41411 0.0
H1763 H 0.6262 0.04545 0.41639 0.0
C1764 C 0.434 0.10082 0.87738 0.0
C1765 C 0.42488 0.11035 0.89023 0.0
C1766 C 0.45195 0.09779 0.8791 0.0
C1767 C 0.48965 0.09986 0.90989 0.0
H1768 H 0.51571 0.10876 0.86708 0.0
C1769 C 0.56433 0.11477 0.90716 0.0
C1770 C 0.5737 0.10831 0.89266 0.0
C1771 C 0.54618 0.11227 0.90831 0.0
C1772 C 0.50866 0.10592 0.87909 0.0
H1773 H 0.42714 0.12352 0.91533 0.0
H1774 H 0.4587 0.11859 0.91817 0.0
H1775 H 0.48392 0.10932 0.8665 0.0
H1776 H 0.57173 0.09319 0.86863 0.0
H1777 H 0.54018 0.08862 0.87076 0.0
H1778 H 0.51464 0.09693 0.92251 0.0
C1779 C 0.45193 0.11323 0.90689 0.0
C1780 C 0.4904 0.10623 0.87876 0.0
C1781 C 0.43388 0.11614 0.90523 0.0
C1782 C 0.56481 0.0985 0.87985 0.0
C1783 C 0.54673 0.09595 0.88104 0.0
C1784 C 0.50802 0.09959 0.91022 0.0
C1785 C 0.46122 0.1044 0.89362 0.0
C1786 C 0.48066 0.10324 0.89413 0.0
C1787 C 0.53714 0.10323 0.895 0.0
C1788 C 0.51769 0.10265 0.89481 0.0
H1789 H 0.42734 0.09601 0.86578 0.0
H1790 H 0.45866 0.0906 0.86884 0.0
H1791 H 0.4825 0.09739 0.92192 0.0
H1792 H 0.57089 0.12236 0.91723 0.0
H1793 H 0.53913 0.11812 0.91918 0.0
C1794 C 0.39411 0.93444 0.40877 0.0
C1795 C 0.39718 0.92745 0.39199 0.0
C1796 C 0.39721 0.95221 0.41212 0.0
C1797 C 0.41913 0.99197 0.39459 0.0
H1798 H 0.37995 0.01665 0.41566 0.0
C1799 C 0.40454 0.06424 0.38084 0.0
C1800 C 0.39719 0.07477 0.39405 0.0
C1801 C 0.40763 0.04646 0.38379 0.0
C1802 C 0.39119 0.00997 0.41012 0.0
H1803 H 0.4066 0.93331 0.36579 0.0
H1804 H 0.41194 0.96429 0.37159 0.0
H1805 H 0.38 0.98471 0.41511 0.0
H1806 H 0.38794 0.07515 0.42094 0.0
H1807 H 0.39339 0.04392 0.42616 0.0
H1808 H 0.43004 0.01726 0.38908 0.0
C1809 C 0.40727 0.95607 0.38221 0.0
C1810 C 0.39122 0.99165 0.40979 0.0
C1811 C 0.40409 0.93835 0.37884 0.0
C1812 C 0.39355 0.06731 0.4105 0.0
C1813 C 0.39661 0.04945 0.41346 0.0
C1814 C 0.41913 0.01029 0.39496 0.0
C1815 C 0.40354 0.96326 0.39878 0.0
C1816 C 0.40493 0.98247 0.40155 0.0
C1817 C 0.40344 0.03878 0.40003 0.0
C1818 C 0.4049 0.01949 0.40225 0.0
H1819 H 0.38884 0.92631 0.41918 0.0
H1820 H 0.39437 0.95737 0.42506 0.0
H1821 H 0.43002 0.98523 0.38843 0.0
H1822 H 0.4075 0.06962 0.36801 0.0
H1823 H 0.41264 0.03859 0.37307 0.0
C1824 C 0.11732 0.44376 0.09522 0.0
C1825 C 0.10628 0.43266 0.10493 0.0
C1826 C 0.11258 0.46115 0.09214 0.0
C1827 C 0.08744 0.4961 0.11267 0.0
H1828 H 0.10219 0.52186 0.07131 0.0
C1829 C 0.09061 0.57163 0.11224 0.0
C1830 C 0.10723 0.57782 0.10717 0.0
C1831 C 0.08573 0.55428 0.10874 0.0
C1832 C 0.09787 0.51483 0.08289 0.0
H1833 H 0.08122 0.43071 0.11828 0.0
H1834 H 0.07291 0.46126 0.11289 0.0
H1835 H 0.10187 0.48982 0.07076 0.0
H1836 H 0.13138 0.57112 0.09369 0.0
H1837 H 0.1229 0.54096 0.08761 0.0
H1838 H 0.08423 0.52108 0.12506 0.0
C1839 C 0.08529 0.45651 0.10778 0.0
C1840 C 0.09771 0.49652 0.08259 0.0
C1841 C 0.09002 0.43903 0.11081 0.0
C1842 C 0.11851 0.56667 0.09782 0.0
C1843 C 0.11358 0.54944 0.09419 0.0
C1844 C 0.08756 0.51443 0.11295 0.0
C1845 C 0.09671 0.46784 0.09873 0.0
C1846 C 0.0932 0.48696 0.09771 0.0
C1847 C 0.0973 0.54293 0.09994 0.0
C1848 C 0.09347 0.52394 0.0983 0.0
H1849 H 0.12992 0.4392 0.09047 0.0
H1850 H 0.12181 0.46958 0.08534 0.0
H1851 H 0.08404 0.48914 0.12458 0.0
H1852 H 0.08165 0.57999 0.11944 0.0
H1853 H 0.07307 0.54961 0.11326 0.0
C1854 C 0.1017 0.56741 0.87137 0.0
C1855 C 0.11685 0.57492 0.87874 0.0
C1856 C 0.0989 0.54929 0.87237 0.0
C1857 C 0.11179 0.51029 0.89771 0.0
H1858 H 0.1005 0.48415 0.85553 0.0
C1859 C 0.12551 0.43679 0.89125 0.0
C1860 C 0.11365 0.42621 0.88194 0.0
C1861 C 0.12326 0.45493 0.89185 0.0
C1862 C 0.10332 0.49128 0.8675 0.0
H1863 H 0.14089 0.56946 0.89295 0.0
H1864 H 0.136 0.53795 0.89471 0.0
H1865 H 0.1013 0.51619 0.85461 0.0
H1866 H 0.08993 0.42621 0.86625 0.0
H1867 H 0.0859 0.45803 0.8674 0.0
H1868 H 0.11412 0.48547 0.91056 0.0
C1869 C 0.12623 0.54602 0.88828 0.0
C1870 C 0.1038 0.5096 0.86696 0.0
C1871 C 0.12909 0.56405 0.88715 0.0
C1872 C 0.0993 0.43408 0.87349 0.0
C1873 C 0.09704 0.45228 0.87408 0.0
C1874 C 0.11124 0.49201 0.89827 0.0
C1875 C 0.11111 0.53846 0.88093 0.0
C1876 C 0.10849 0.51924 0.88195 0.0
C1877 C 0.10908 0.4629 0.88318 0.0
C1878 C 0.10745 0.48229 0.88307 0.0
H1879 H 0.09205 0.57551 0.86481 0.0
H1880 H 0.08712 0.54377 0.86664 0.0
H1881 H 0.11512 0.51743 0.90954 0.0
H1882 H 0.13673 0.43109 0.89786 0.0
H1883 H 0.13294 0.46275 0.89872 0.0
C1884 C 0.07157 0.59897 0.38649 0.0
C1885 C 0.08087 0.61307 0.39386 0.0
C1886 C 0.05348 0.5974 0.38912 0.0
C1887 C 0.01557 0.62544 0.39948 0.0
H1888 H 0.99024 0.58133 0.40209 0.0
C1889 C 0.94121 0.62445 0.40771 0.0
C1890 C 0.932 0.61398 0.39565 0.0
C1891 C 0.95925 0.62245 0.40983 0.0
C1892 C 0.99718 0.59372 0.40133 0.0
H1893 H 0.0789 0.63587 0.41074 0.0
H1894 H 0.0475 0.63286 0.41581 0.0
H1895 H 0.02238 0.58127 0.40211 0.0
H1896 H 0.93423 0.59259 0.37703 0.0
H1897 H 0.96598 0.58916 0.38068 0.0
H1898 H 0.99051 0.63789 0.39858 0.0
C1899 C 0.05399 0.62331 0.40752 0.0
C1900 C 0.01555 0.5937 0.40131 0.0
C1901 C 0.072 0.62499 0.40472 0.0
C1902 C 0.94104 0.60086 0.38639 0.0
C1903 C 0.95916 0.59885 0.38853 0.0
C1904 C 0.9973 0.62545 0.39963 0.0
C1905 C 0.04442 0.60982 0.39932 0.0
C1906 C 0.02495 0.60959 0.40031 0.0
C1907 C 0.96849 0.60996 0.39993 0.0
C1908 C 0.98791 0.60962 0.40049 0.0
H1909 H 0.07812 0.58959 0.37804 0.0
H1910 H 0.04651 0.58693 0.3825 0.0
H1911 H 0.02232 0.63789 0.39822 0.0
H1912 H 0.93457 0.63456 0.41517 0.0
H1913 H 0.96607 0.631 0.41892 0.0
C1914 C 0.91972 0.57166 0.88482 0.0
C1915 C 0.90421 0.57636 0.87604 0.0
C1916 C 0.92464 0.55401 0.88601 0.0
C1917 C 0.91855 0.51066 0.86635 0.0
H1918 H 0.91942 0.49217 0.91379 0.0
C1919 C 0.89605 0.44383 0.89943 0.0
C1920 C 0.90485 0.43137 0.88912 0.0
C1921 C 0.90143 0.46134 0.89937 0.0
C1922 C 0.91951 0.49719 0.90049 0.0
H1923 H 0.88219 0.56664 0.8609 0.0
H1924 H 0.89106 0.53591 0.86256 0.0
H1925 H 0.919 0.52398 0.90908 0.0
H1926 H 0.92672 0.42716 0.87139 0.0
H1927 H 0.93586 0.45797 0.87096 0.0
H1928 H 0.91829 0.48394 0.85774 0.0
C1929 C 0.8993 0.54579 0.86863 0.0
C1930 C 0.91936 0.51533 0.8978 0.0
C1931 C 0.89418 0.56332 0.86778 0.0
C1932 C 0.91971 0.43652 0.87947 0.0
C1933 C 0.92492 0.45411 0.87918 0.0
C1934 C 0.91899 0.49255 0.86903 0.0
C1935 C 0.91436 0.54095 0.87806 0.0
C1936 C 0.91823 0.52217 0.88072 0.0
C1937 C 0.91554 0.46673 0.88879 0.0
C1938 C 0.91883 0.48566 0.88613 0.0
H1939 H 0.92762 0.5815 0.89136 0.0
H1940 H 0.93629 0.55053 0.89338 0.0
H1941 H 0.9177 0.51567 0.85308 0.0
H1942 H 0.88458 0.44018 0.90702 0.0
H1943 H 0.89387 0.47084 0.90676 0.0
C1944 C 0.06788 0.40323 0.37872 0.0
C1945 C 0.07545 0.38701 0.38311 0.0
C1946 C 0.04984 0.40588 0.38077 0.0
C1947 C 0.0112 0.38817 0.40418 0.0
H1948 H 0.98449 0.40965 0.36661 0.0
C1949 C 0.93745 0.37712 0.39492 0.0
C1950 C 0.927 0.39107 0.38901 0.0
C1951 C 0.95558 0.37912 0.39638 0.0
C1952 C 0.9918 0.40393 0.37737 0.0
H1953 H 0.07014 0.36082 0.39292 0.0
H1954 H 0.03872 0.36535 0.39628 0.0
H1955 H 0.01642 0.40837 0.36456 0.0
H1956 H 0.92716 0.41824 0.38055 0.0
H1957 H 0.959 0.42173 0.38309 0.0
H1958 H 0.98656 0.38328 0.41674 0.0
C1959 C 0.04671 0.37613 0.39154 0.0
C1960 C 0.01008 0.40318 0.37618 0.0
C1961 C 0.06468 0.37348 0.38947 0.0
C1962 C 0.93494 0.40726 0.38513 0.0
C1963 C 0.95313 0.40923 0.38649 0.0
C1964 C 0.99295 0.38891 0.40535 0.0
C1965 C 0.03909 0.39237 0.3873 0.0
C1966 C 0.01993 0.39491 0.38938 0.0
C1967 C 0.96364 0.39509 0.39189 0.0
C1968 C 0.98304 0.39643 0.39177 0.0
H1969 H 0.0759 0.41391 0.37383 0.0
H1970 H 0.04434 0.41856 0.37747 0.0
H1971 H 0.01848 0.38205 0.41474 0.0
H1972 H 0.93169 0.36449 0.398 0.0
H1973 H 0.96334 0.3679 0.40036 0.0
C1974 C 0.87296 0.43549 0.09898 0.0
C1975 C 0.88654 0.42656 0.10762 0.0
C1976 C 0.87402 0.45355 0.0963 0.0
C1977 C 0.90388 0.49206 0.09768 0.0
H1978 H 0.86102 0.51673 0.10962 0.0
C1979 C 0.90054 0.56619 0.11455 0.0
C1980 C 0.88569 0.57548 0.10885 0.0
C1981 C 0.90176 0.5481 0.11178 0.0
C1982 C 0.87302 0.51007 0.10595 0.0
H1983 H 0.91224 0.42929 0.1195 0.0
H1984 H 0.91394 0.46101 0.11515 0.0
H1985 H 0.8612 0.48491 0.10927 0.0
H1986 H 0.86094 0.57338 0.09496 0.0
H1987 H 0.86315 0.5419 0.08998 0.0
H1988 H 0.91575 0.51744 0.09482 0.0
C1989 C 0.90258 0.45402 0.11024 0.0
C1990 C 0.87313 0.4918 0.10573 0.0
C1991 C 0.90158 0.43588 0.11281 0.0
C1992 C 0.87246 0.56653 0.09966 0.0
C1993 C 0.8737 0.54849 0.09687 0.0
C1994 C 0.90378 0.51042 0.09794 0.0
C1995 C 0.8886 0.46311 0.10235 0.0
C1996 C 0.88855 0.48256 0.10164 0.0
C1997 C 0.88815 0.53901 0.10325 0.0
C1998 C 0.88834 0.5196 0.10213 0.0
H1999 H 0.8613 0.42859 0.09467 0.0
H2000 H 0.8632 0.46011 0.08984 0.0
H2001 H 0.91593 0.48531 0.09435 0.0
H2002 H 0.91094 0.57279 0.12165 0.0
H2003 H 0.913 0.54112 0.11696 0.0
C2004 C 0.94223 0.38338 0.59882 0.0
C2005 C 0.93123 0.3958 0.60679 0.0
C2006 C 0.95976 0.38737 0.59542 0.0
C2007 C 0.99525 0.41433 0.61243 0.0
H2008 H 0.02021 0.39546 0.57229 0.0
C2009 C 0.0709 0.41195 0.61026 0.0
C2010 C 0.07729 0.39511 0.60637 0.0
C2011 C 0.05332 0.41615 0.60702 0.0
C2012 C 0.01341 0.4009 0.58353 0.0
H2013 H 0.9297 0.42237 0.61686 0.0
H2014 H 0.96052 0.42933 0.61099 0.0
H2015 H 0.98817 0.39551 0.57245 0.0
H2016 H 0.07064 0.36976 0.59526 0.0
H2017 H 0.04012 0.37701 0.58966 0.0
H2018 H 0.02047 0.41896 0.62387 0.0
C2019 C 0.95555 0.41649 0.60744 0.0
C2020 C 0.9951 0.40091 0.58362 0.0
C2021 C 0.93792 0.41253 0.61074 0.0
C2022 C 0.06606 0.38283 0.59846 0.0
C2023 C 0.0486 0.38705 0.5951 0.0
C2024 C 0.01359 0.41431 0.61234 0.0
C2025 C 0.96671 0.40384 0.59998 0.0
C2026 C 0.98584 0.40702 0.59836 0.0
C2027 C 0.04194 0.40362 0.59965 0.0
C2028 C 0.02283 0.40698 0.59817 0.0
H2029 H 0.93742 0.37039 0.59559 0.0
H2030 H 0.96807 0.37724 0.5899 0.0
H2031 H 0.9885 0.41901 0.62403 0.0
H2032 H 0.07931 0.42168 0.61634 0.0
H2033 H 0.04855 0.42905 0.61057 0.0
C2034 C 0.0658 0.62168 0.59315 0.0
C2035 C 0.07459 0.61071 0.60503 0.0
C2036 C 0.04788 0.6196 0.59018 0.0
C2037 C 0.00935 0.59078 0.59732 0.0
H2038 H 0.98498 0.63526 0.60123 0.0
C2039 C 0.93543 0.59759 0.61399 0.0
C2040 C 0.92631 0.61182 0.60667 0.0
C2041 C 0.95339 0.59552 0.61084 0.0
C2042 C 0.99152 0.62274 0.59975 0.0
H2043 H 0.07188 0.58825 0.62227 0.0
H2044 H 0.04034 0.58478 0.6173 0.0
H2045 H 0.01674 0.63482 0.60072 0.0
H2046 H 0.92838 0.63427 0.58934 0.0
H2047 H 0.95954 0.63045 0.58347 0.0
H2048 H 0.98391 0.57872 0.59672 0.0
C2049 C 0.04736 0.59488 0.61016 0.0
C2050 C 0.00978 0.62249 0.59947 0.0
C2051 C 0.06538 0.5969 0.61307 0.0
C2052 C 0.93516 0.62332 0.59534 0.0
C2053 C 0.95302 0.62117 0.59205 0.0
C2054 C 0.99098 0.59103 0.59754 0.0
C2055 C 0.03835 0.6066 0.59913 0.0
C2056 C 0.01892 0.60653 0.59833 0.0
C2057 C 0.96247 0.60759 0.6002 0.0
C2058 C 0.98189 0.60704 0.59885 0.0
H2059 H 0.07263 0.63229 0.58659 0.0
H2060 H 0.04136 0.62859 0.58131 0.0
H2061 H 0.01607 0.5783 0.59636 0.0
H2062 H 0.92889 0.58851 0.62277 0.0
H2063 H 0.9603 0.58499 0.61741 0.0
C2064 C 0.93947 0.12795 0.34906 0.0
C2065 C 0.92863 0.1143 0.35513 0.0
C2066 C 0.95742 0.12526 0.3463 0.0
C2067 C 0.99394 0.09749 0.36161 0.0
H2068 H 0.01981 0.12251 0.32562 0.0
C2069 C 0.07025 0.09729 0.35976 0.0
C2070 C 0.078 0.1139 0.35745 0.0
C2071 C 0.05225 0.09478 0.35659 0.0
C2072 C 0.01282 0.11547 0.3358 0.0
H2073 H 0.92811 0.08685 0.36246 0.0
H2074 H 0.9596 0.08205 0.35755 0.0
H2075 H 0.98782 0.12248 0.32506 0.0
H2076 H 0.07303 0.14064 0.34919 0.0
H2077 H 0.04191 0.1363 0.34356 0.0
H2078 H 0.01897 0.09088 0.37261 0.0
C2079 C 0.95416 0.09493 0.35502 0.0
C2080 C 0.99443 0.11544 0.33548 0.0
C2081 C 0.93607 0.09761 0.35765 0.0
C2082 C 0.06753 0.12766 0.35103 0.0
C2083 C 0.04963 0.12513 0.34775 0.0
C2084 C 0.01237 0.09751 0.36193 0.0
C2085 C 0.96515 0.10884 0.34964 0.0
C2086 C 0.98469 0.10682 0.34862 0.0
C2087 C 0.0416 0.10878 0.35087 0.0
C2088 C 0.02208 0.10686 0.34926 0.0
H2089 H 0.9342 0.141 0.34706 0.0
H2090 H 0.96538 0.13637 0.34237 0.0
H2091 H 0.98695 0.09086 0.37207 0.0
H2092 H 0.07791 0.08644 0.36481 0.0
H2093 H 0.04659 0.08195 0.35894 0.0
C2094 C 0.41151 0.43778 0.85746 0.0
C2095 C 0.39472 0.4305 0.85498 0.0
C2096 C 0.41435 0.45587 0.85501 0.0
C2097 C 0.39411 0.4963 0.83574 0.0
H2098 H 0.41894 0.52075 0.8728 0.0
C2099 C 0.38135 0.56887 0.85211 0.0
C2100 C 0.3951 0.57963 0.85809 0.0
C2101 C 0.38409 0.55104 0.84875 0.0
C2102 C 0.41224 0.51416 0.86214 0.0
H2103 H 0.368 0.43638 0.84725 0.0
H2104 H 0.37291 0.46755 0.84288 0.0
H2105 H 0.41887 0.4887 0.87216 0.0
H2106 H 0.42272 0.58013 0.86473 0.0
H2107 H 0.42758 0.54881 0.85883 0.0
H2108 H 0.38702 0.5217 0.82603 0.0
C2109 C 0.38396 0.45946 0.84663 0.0
C2110 C 0.41221 0.49573 0.86177 0.0
C2111 C 0.38111 0.44152 0.84921 0.0
C2112 C 0.41189 0.57223 0.86 0.0
C2113 C 0.41462 0.55424 0.85679 0.0
C2114 C 0.39413 0.51468 0.83612 0.0
C2115 C 0.40051 0.46701 0.84984 0.0
C2116 C 0.40274 0.48653 0.84882 0.0
C2117 C 0.40066 0.54335 0.8514 0.0
C2118 C 0.4028 0.52389 0.84959 0.0
H2119 H 0.42223 0.42967 0.86204 0.0
H2120 H 0.4273 0.46119 0.85745 0.0
H2121 H 0.38699 0.48972 0.82535 0.0
H2122 H 0.36823 0.57411 0.85058 0.0
H2123 H 0.37296 0.54311 0.84484 0.0
C2124 C 0.06575 0.87886 0.34953 0.0
C2125 C 0.0773 0.8925 0.3541 0.0
C2126 C 0.04789 0.88209 0.34695 0.0
C2127 C 0.01281 0.91183 0.36098 0.0
H2128 H 0.98569 0.88625 0.32635 0.0
C2129 C 0.93656 0.91267 0.3617 0.0
C2130 C 0.92873 0.89602 0.36008 0.0
C2131 C 0.95441 0.91508 0.35769 0.0
C2132 C 0.99303 0.89347 0.33615 0.0
H2133 H 0.07918 0.92041 0.35908 0.0
H2134 H 0.04773 0.92612 0.35468 0.0
H2135 H 0.01766 0.88541 0.32525 0.0
H2136 H 0.9333 0.86912 0.35209 0.0
H2137 H 0.96411 0.87327 0.34507 0.0
H2138 H 0.98818 0.91934 0.3723 0.0
C2139 C 0.05261 0.91288 0.35307 0.0
C2140 C 0.01139 0.89301 0.33549 0.0
C2141 C 0.07064 0.90965 0.35543 0.0
C2142 C 0.93888 0.88213 0.35342 0.0
C2143 C 0.95661 0.88455 0.34933 0.0
C2144 C 0.99441 0.91224 0.36168 0.0
C2145 C 0.04096 0.89905 0.34905 0.0
C2146 C 0.02155 0.90179 0.34818 0.0
C2147 C 0.96479 0.90093 0.35183 0.0
C2148 C 0.98425 0.90267 0.34955 0.0
H2149 H 0.07044 0.86548 0.34845 0.0
H2150 H 0.03936 0.87107 0.34409 0.0
H2151 H 0.02019 0.91862 0.37106 0.0
H2152 H 0.92914 0.92361 0.36692 0.0
H2153 H 0.96018 0.92794 0.35957 0.0
C2154 C 0.60913 0.43522 0.84263 0.0
C2155 C 0.60429 0.42888 0.85927 0.0
C2156 C 0.60704 0.45306 0.83841 0.0
C2157 C 0.61397 0.49234 0.83755 0.0
H2158 H 0.58063 0.52208 0.86182 0.0
C2159 C 0.62819 0.56535 0.84977 0.0
C2160 C 0.61452 0.57744 0.85247 0.0
C2161 C 0.62467 0.54759 0.84692 0.0
C2162 C 0.58989 0.51407 0.85462 0.0
H2163 H 0.59264 0.43622 0.88417 0.0
H2164 H 0.58956 0.46701 0.87718 0.0
H2165 H 0.57726 0.49043 0.86299 0.0
H2166 H 0.58628 0.58037 0.85332 0.0
H2167 H 0.58 0.54932 0.84765 0.0
H2168 H 0.62625 0.51596 0.82868 0.0
C2169 C 0.59459 0.45839 0.86708 0.0
C2170 C 0.58813 0.49576 0.85555 0.0
C2171 C 0.59645 0.44059 0.87118 0.0
C2172 C 0.59712 0.57142 0.85126 0.0
C2173 C 0.59355 0.55354 0.84823 0.0
C2174 C 0.61554 0.51063 0.83636 0.0
C2175 C 0.60028 0.46507 0.8508 0.0
C2176 C 0.6005 0.48456 0.84754 0.0
C2177 C 0.60732 0.54125 0.84644 0.0
C2178 C 0.60391 0.52183 0.84539 0.0
H2179 H 0.6152 0.42657 0.83314 0.0
H2180 H 0.61119 0.45747 0.82556 0.0
H2181 H 0.62388 0.48438 0.83122 0.0
H2182 H 0.64178 0.56946 0.85068 0.0
H2183 H 0.63572 0.53873 0.84596 0.0
C2184 C 0.9407 0.87649 0.65189 0.0
C2185 C 0.9285 0.89033 0.65199 0.0
C2186 C 0.95851 0.87959 0.65505 0.0
C2187 C 0.99185 0.91467 0.65179 0.0
H2188 H 0.02157 0.8791 0.6727 0.0
C2189 C 0.07072 0.89649 0.6641 0.0
C2190 C 0.07716 0.90114 0.64745 0.0
C2191 C 0.05273 0.89799 0.66796 0.0
C2192 C 0.01354 0.88937 0.66707 0.0
H2193 H 0.92544 0.91826 0.65615 0.0
H2194 H 0.95668 0.92373 0.66188 0.0
H2195 H 0.98982 0.87618 0.67441 0.0
H2196 H 0.06987 0.91192 0.62216 0.0
H2197 H 0.03882 0.91442 0.62876 0.0
H2198 H 0.0156 0.92785 0.64442 0.0
C2199 C 0.95243 0.91044 0.65916 0.0
C2200 C 0.99524 0.88756 0.66785 0.0
C2201 C 0.93448 0.90731 0.65606 0.0
C2202 C 0.06539 0.90825 0.63515 0.0
C2203 C 0.0475 0.90976 0.63899 0.0
C2204 C 0.01017 0.91651 0.65105 0.0
C2205 C 0.96475 0.89664 0.65838 0.0
C2206 C 0.98411 0.89992 0.65979 0.0
C2207 C 0.04078 0.90422 0.65528 0.0
C2208 C 0.02131 0.90364 0.65826 0.0
H2209 H 0.93659 0.86324 0.64877 0.0
H2210 H 0.96749 0.86863 0.65405 0.0
H2211 H 0.98381 0.92445 0.64536 0.0
H2212 H 0.07941 0.8909 0.67386 0.0
H2213 H 0.04813 0.89383 0.68075 0.0
C2214 C 0.59413 0.43477 0.1503 0.0
C2215 C 0.60934 0.42623 0.15633 0.0
C2216 C 0.59218 0.45301 0.15235 0.0
C2217 C 0.62022 0.49257 0.15821 0.0
H2218 H 0.57607 0.51717 0.1638 0.0
C2219 C 0.61944 0.56768 0.16281 0.0
C2220 C 0.60708 0.57649 0.15234 0.0
C2221 C 0.61792 0.54964 0.16599 0.0
C2222 C 0.5885 0.51049 0.16216 0.0
H2223 H 0.63375 0.42993 0.17039 0.0
H2224 H 0.63009 0.46137 0.17459 0.0
H2225 H 0.57661 0.48503 0.16463 0.0
H2226 H 0.5828 0.57335 0.13788 0.0
H2227 H 0.58014 0.54182 0.14339 0.0
H2228 H 0.63212 0.51782 0.1555 0.0
C2229 C 0.6199 0.45422 0.16771 0.0
C2230 C 0.58882 0.49203 0.16261 0.0
C2231 C 0.62192 0.43611 0.1655 0.0
C2232 C 0.5925 0.56701 0.14611 0.0
C2233 C 0.59099 0.54889 0.14925 0.0
C2234 C 0.61991 0.51091 0.15782 0.0
C2235 C 0.60535 0.46309 0.16059 0.0
C2236 C 0.60471 0.48279 0.16066 0.0
C2237 C 0.60404 0.53984 0.15871 0.0
C2238 C 0.60408 0.52019 0.1598 0.0
H2239 H 0.58427 0.42755 0.14303 0.0
H2240 H 0.58082 0.4593 0.14662 0.0
H2241 H 0.63266 0.48605 0.15614 0.0
H2242 H 0.6308 0.57456 0.16788 0.0
H2243 H 0.62799 0.54326 0.17371 0.0
C2244 C 0.93498 0.11443 0.66609 0.0
C2245 C 0.92683 0.10389 0.65331 0.0
C2246 C 0.95309 0.11313 0.66919 0.0
C2247 C 0.99287 0.08568 0.66146 0.0
H2248 H 0.01704 0.13043 0.66113 0.0
C2249 C 0.06797 0.09198 0.64858 0.0
C2250 C 0.07704 0.10653 0.6554 0.0
C2251 C 0.0498 0.09017 0.65113 0.0
C2252 C 0.01062 0.11776 0.66165 0.0
H2253 H 0.93121 0.08301 0.63452 0.0
H2254 H 0.96266 0.08053 0.64011 0.0
H2255 H 0.9852 0.12969 0.66103 0.0
H2256 H 0.07433 0.12992 0.6713 0.0
H2257 H 0.04299 0.12636 0.67652 0.0
H2258 H 0.01832 0.07372 0.66205 0.0
C2259 C 0.9551 0.08985 0.64773 0.0
C2260 C 0.99224 0.11737 0.66154 0.0
C2261 C 0.93704 0.09127 0.64451 0.0
C2262 C 0.06774 0.11858 0.66581 0.0
C2263 C 0.04965 0.11664 0.66858 0.0
C2264 C 0.01131 0.08607 0.66176 0.0
C2265 C 0.96349 0.10114 0.65971 0.0
C2266 C 0.98308 0.10134 0.66125 0.0
C2267 C 0.04024 0.10276 0.66077 0.0
C2268 C 0.02052 0.10213 0.66167 0.0
H2269 H 0.92755 0.12435 0.67305 0.0
H2270 H 0.95905 0.12186 0.67868 0.0
H2271 H 0.98626 0.07309 0.66139 0.0
H2272 H 0.07469 0.08256 0.64032 0.0
H2273 H 0.04315 0.07936 0.64475 0.0
C2274 C 0.3936 0.56841 0.16927 0.0
C2275 C 0.40248 0.5765 0.15525 0.0
C2276 C 0.39571 0.55039 0.17258 0.0
C2277 C 0.42293 0.511 0.1611 0.0
H2278 H 0.37946 0.48569 0.1688 0.0
C2279 C 0.41442 0.43724 0.14481 0.0
C2280 C 0.40263 0.42703 0.15471 0.0
C2281 C 0.41653 0.45518 0.14824 0.0
C2282 C 0.39182 0.49249 0.16699 0.0
H2283 H 0.4213 0.57215 0.13436 0.0
H2284 H 0.42498 0.54097 0.14009 0.0
H2285 H 0.37942 0.51761 0.16895 0.0
H2286 H 0.38456 0.42756 0.17666 0.0
H2287 H 0.38846 0.45881 0.18286 0.0
H2288 H 0.43522 0.48581 0.15866 0.0
C2289 C 0.41644 0.54843 0.14865 0.0
C2290 C 0.39179 0.51089 0.16708 0.0
C2291 C 0.4143 0.56638 0.14533 0.0
C2292 C 0.39379 0.43501 0.1688 0.0
C2293 C 0.39587 0.453 0.17222 0.0
C2294 C 0.42295 0.49258 0.161 0.0
C2295 C 0.40679 0.54004 0.16199 0.0
C2296 C 0.40728 0.52044 0.16382 0.0
C2297 C 0.40689 0.46346 0.16166 0.0
C2298 C 0.40733 0.48304 0.16363 0.0
H2299 H 0.38434 0.57578 0.17714 0.0
H2300 H 0.38827 0.54449 0.18316 0.0
H2301 H 0.43518 0.51785 0.15883 0.0
H2302 H 0.42138 0.43156 0.13379 0.0
H2303 H 0.42503 0.46274 0.13971 0.0
C2304 C 0.36372 0.06753 0.09204 0.0
C2305 C 0.35605 0.07692 0.10598 0.0
C2306 C 0.36071 0.04943 0.09012 0.0
C2307 C 0.34892 0.0112 0.1177 0.0
H2308 H 0.34732 0.98575 0.07369 0.0
C2309 C 0.34153 0.93631 0.11805 0.0
C2310 C 0.35235 0.92669 0.10663 0.0
C2311 C 0.33938 0.95442 0.11594 0.0
C2312 C 0.34786 0.99264 0.0861 0.0
H2313 H 0.33817 0.07486 0.128 0.0
H2314 H 0.33257 0.04358 0.1244 0.0
H2315 H 0.34806 0.01789 0.07352 0.0
H2316 H 0.3687 0.92848 0.08345 0.0
H2317 H 0.36515 0.96021 0.07984 0.0
H2318 H 0.34917 0.9862 0.13033 0.0
C2319 C 0.3413 0.05002 0.11521 0.0
C2320 C 0.34827 0.0111 0.086 0.0
C2321 C 0.34435 0.06804 0.11716 0.0
C2322 C 0.36014 0.93548 0.09238 0.0
C2323 C 0.35812 0.95371 0.09035 0.0
C2324 C 0.34855 0.99285 0.11779 0.0
C2325 C 0.34993 0.0403 0.10207 0.0
C2326 C 0.34879 0.02065 0.10183 0.0
C2327 C 0.34817 0.96354 0.10247 0.0
C2328 C 0.348 0.98324 0.10203 0.0
H2329 H 0.3729 0.07392 0.08326 0.0
H2330 H 0.36764 0.04244 0.07987 0.0
H2331 H 0.34981 0.01798 0.13015 0.0
H2332 H 0.33526 0.92994 0.12911 0.0
H2333 H 0.33121 0.96138 0.12526 0.0
C2334 C 0.43764 0.86324 0.59242 0.0
C2335 C 0.42835 0.8565 0.60688 0.0
C2336 C 0.45574 0.86016 0.5906 0.0
C2337 C 0.4943 0.84912 0.61845 0.0
H2338 H 0.51914 0.84676 0.57412 0.0
C2339 C 0.56936 0.84136 0.61718 0.0
C2340 C 0.57857 0.85276 0.60594 0.0
C2341 C 0.55118 0.83911 0.61548 0.0
C2342 C 0.51241 0.84747 0.58661 0.0
H2343 H 0.43053 0.8402 0.63005 0.0
H2344 H 0.46173 0.83426 0.62656 0.0
H2345 H 0.48704 0.84749 0.57438 0.0
H2346 H 0.57596 0.86992 0.58342 0.0
H2347 H 0.54427 0.86597 0.58041 0.0
H2348 H 0.51953 0.84931 0.6307 0.0
C2349 C 0.45529 0.84244 0.6169 0.0
C2350 C 0.49396 0.84792 0.58677 0.0
C2351 C 0.4373 0.84566 0.6188 0.0
C2352 C 0.56931 0.86096 0.59224 0.0
C2353 C 0.55109 0.8587 0.59053 0.0
C2354 C 0.51265 0.84859 0.61829 0.0
C2355 C 0.46495 0.85016 0.60315 0.0
C2356 C 0.48461 0.84882 0.60271 0.0
C2357 C 0.54169 0.8482 0.6025 0.0
C2358 C 0.52202 0.84783 0.6024 0.0
H2359 H 0.43118 0.87178 0.58309 0.0
H2360 H 0.46264 0.86643 0.57987 0.0
H2361 H 0.48773 0.85029 0.631 0.0
H2362 H 0.57605 0.83481 0.62786 0.0
H2363 H 0.54448 0.83063 0.62471 0.0
C2364 C 0.65326 0.06181 0.12795 0.0
C2365 C 0.65284 0.0744 0.11446 0.0
C2366 C 0.65661 0.04418 0.12432 0.0
C2367 C 0.65415 0.01152 0.08833 0.0
H2368 H 0.67489 0.98177 0.12394 0.0
C2369 C 0.66696 0.93283 0.10746 0.0
C2370 C 0.65092 0.92597 0.10147 0.0
C2371 C 0.67075 0.95079 0.10574 0.0
C2372 C 0.66935 0.98976 0.1136 0.0
H2373 H 0.65627 0.0783 0.08653 0.0
H2374 H 0.66254 0.04733 0.08012 0.0
H2375 H 0.67612 0.01335 0.12719 0.0
H2376 H 0.62673 0.93252 0.08804 0.0
H2377 H 0.63299 0.96361 0.08548 0.0
H2378 H 0.64768 0.98788 0.07457 0.0
C2379 C 0.65998 0.05115 0.09356 0.0
C2380 C 0.6698 0.00802 0.11564 0.0
C2381 C 0.65658 0.06895 0.09723 0.0
C2382 C 0.63926 0.9373 0.09274 0.0
C2383 C 0.64293 0.95525 0.09122 0.0
C2384 C 0.65388 0.99322 0.08618 0.0
C2385 C 0.65977 0.03845 0.10705 0.0
C2386 C 0.6617 0.01919 0.10335 0.0
C2387 C 0.65848 0.96243 0.09819 0.0
C2388 C 0.66101 0.98199 0.09905 0.0
H2389 H 0.65039 0.06548 0.14138 0.0
H2390 H 0.65596 0.03492 0.13508 0.0
H2391 H 0.64773 0.01958 0.07856 0.0
H2392 H 0.67626 0.92448 0.11422 0.0
H2393 H 0.68309 0.95561 0.11086 0.0
C2394 C 0.56856 0.1628 0.62377 0.0
C2395 C 0.57779 0.15249 0.61159 0.0
C2396 C 0.55055 0.16586 0.62179 0.0
C2397 C 0.5123 0.16169 0.59118 0.0
H2398 H 0.48643 0.15671 0.63469 0.0
C2399 C 0.43652 0.14951 0.59489 0.0
C2400 C 0.42743 0.15601 0.60959 0.0
C2401 C 0.4548 0.15166 0.59343 0.0
C2402 C 0.49336 0.15848 0.62241 0.0
H2403 H 0.57544 0.13806 0.58721 0.0
H2404 H 0.54394 0.14326 0.58377 0.0
H2405 H 0.51821 0.15594 0.63512 0.0
H2406 H 0.43023 0.17101 0.63356 0.0
H2407 H 0.46178 0.17529 0.63076 0.0
H2408 H 0.48722 0.1639 0.57848 0.0
C2409 C 0.55065 0.14916 0.59482 0.0
C2410 C 0.51171 0.15803 0.62266 0.0
C2411 C 0.56876 0.14618 0.59677 0.0
C2412 C 0.43682 0.16576 0.62212 0.0
C2413 C 0.455 0.16802 0.6206 0.0
C2414 C 0.49384 0.16216 0.59093 0.0
C2415 C 0.54117 0.15855 0.60763 0.0
C2416 C 0.52151 0.15964 0.60708 0.0
C2417 C 0.46439 0.16044 0.6066 0.0
C2418 C 0.48409 0.16057 0.60657 0.0
H2419 H 0.5751 0.16793 0.6353 0.0
H2420 H 0.54386 0.17354 0.63169 0.0
H2421 H 0.51936 0.16308 0.57892 0.0
H2422 H 0.42971 0.14179 0.58508 0.0
H2423 H 0.4615 0.14558 0.58248 0.0
C2424 C 0.34012 0.06928 0.88833 0.0
C2425 C 0.34893 0.08033 0.90022 0.0
C2426 C 0.33861 0.05124 0.89157 0.0
C2427 C 0.36293 0.01657 0.91469 0.0
H2428 H 0.32616 0.98652 0.89629 0.0
C2429 C 0.34857 0.93721 0.90329 0.0
C2430 C 0.36463 0.93297 0.89524 0.0
C2431 C 0.34446 0.95482 0.90723 0.0
C2432 C 0.33642 0.9947 0.90175 0.0
H2433 H 0.36187 0.08124 0.9255 0.0
H2434 H 0.35898 0.04981 0.93133 0.0
H2435 H 0.32158 0.01831 0.89777 0.0
H2436 H 0.38909 0.94384 0.88546 0.0
H2437 H 0.3821 0.97403 0.89244 0.0
H2438 H 0.37792 0.9931 0.91826 0.0
C2439 C 0.35351 0.05504 0.91931 0.0
C2440 C 0.33388 0.01296 0.90245 0.0
C2441 C 0.355 0.07312 0.91607 0.0
C2442 C 0.37657 0.94658 0.89163 0.0
C2443 C 0.37262 0.96396 0.89576 0.0
C2444 C 0.36547 0.9984 0.91393 0.0
C2445 C 0.34589 0.04374 0.90679 0.0
C2446 C 0.34729 0.0242 0.9085 0.0
C2447 C 0.35651 0.96839 0.90352 0.0
C2448 C 0.35247 0.98727 0.90698 0.0
H2449 H 0.33531 0.07438 0.87597 0.0
H2450 H 0.33276 0.04305 0.88154 0.0
H2451 H 0.37365 0.02469 0.91928 0.0
H2452 H 0.33908 0.92702 0.90618 0.0
H2453 H 0.33193 0.95781 0.91322 0.0
C2454 C 0.56979 0.84257 0.38513 0.0
C2455 C 0.57841 0.85408 0.39669 0.0
C2456 C 0.55175 0.83941 0.38674 0.0
C2457 C 0.51242 0.84506 0.4154 0.0
H2458 H 0.48833 0.84975 0.37088 0.0
C2459 C 0.43717 0.85845 0.4093 0.0
C2460 C 0.42849 0.85257 0.39413 0.0
C2461 C 0.45532 0.85584 0.41132 0.0
C2462 C 0.49473 0.84801 0.38344 0.0
H2463 H 0.57497 0.87034 0.41977 0.0
H2464 H 0.5435 0.86477 0.42263 0.0
H2465 H 0.5201 0.8497 0.3716 0.0
H2466 H 0.43174 0.83816 0.36986 0.0
H2467 H 0.46297 0.83284 0.37372 0.0
H2468 H 0.48689 0.84352 0.42723 0.0
C2469 C 0.5507 0.85815 0.41231 0.0
C2470 C 0.51307 0.84803 0.38384 0.0
C2471 C 0.56878 0.86135 0.41069 0.0
C2472 C 0.43806 0.84295 0.38166 0.0
C2473 C 0.45607 0.84011 0.38379 0.0
C2474 C 0.49396 0.84491 0.41499 0.0
C2475 C 0.54183 0.84767 0.39996 0.0
C2476 C 0.52221 0.84662 0.3998 0.0
C2477 C 0.46515 0.84712 0.39828 0.0
C2478 C 0.48483 0.84644 0.39898 0.0
H2479 H 0.57679 0.83671 0.37422 0.0
H2480 H 0.54544 0.83097 0.3772 0.0
H2481 H 0.51902 0.84387 0.42793 0.0
H2482 H 0.43018 0.86608 0.41906 0.0
H2483 H 0.46175 0.86153 0.42264 0.0
C2484 C 0.66322 0.06987 0.89199 0.0
C2485 C 0.65092 0.07825 0.9029 0.0
C2486 C 0.66631 0.05181 0.89347 0.0
C2487 C 0.65912 0.01198 0.92105 0.0
H2488 H 0.65812 0.98849 0.87596 0.0
C2489 C 0.64832 0.93641 0.91308 0.0
C2490 C 0.65554 0.92809 0.89828 0.0
C2491 C 0.65017 0.95462 0.91545 0.0
C2492 C 0.65881 0.99472 0.88871 0.0
H2493 H 0.63307 0.07432 0.9247 0.0
H2494 H 0.63857 0.0428 0.92736 0.0
H2495 H 0.65745 0.02025 0.87715 0.0
H2496 H 0.67143 0.93213 0.87507 0.0
H2497 H 0.67539 0.9635 0.87956 0.0
H2498 H 0.66039 0.9863 0.93258 0.0
C2499 C 0.64584 0.05021 0.91766 0.0
C2500 C 0.65837 0.01306 0.88938 0.0
C2501 C 0.64271 0.06832 0.91615 0.0
C2502 C 0.66562 0.93815 0.88657 0.0
C2503 C 0.66769 0.95624 0.88905 0.0
C2504 C 0.6597 0.99354 0.92038 0.0
C2505 C 0.65721 0.0416 0.9059 0.0
C2506 C 0.65848 0.02199 0.90553 0.0
C2507 C 0.65944 0.96491 0.90314 0.0
C2508 C 0.65952 0.98461 0.90417 0.0
H2509 H 0.66981 0.07708 0.88166 0.0
H2510 H 0.67544 0.04572 0.88443 0.0
H2511 H 0.6593 0.0184 0.93372 0.0
H2512 H 0.64031 0.92906 0.92225 0.0
H2513 H 0.64353 0.96072 0.92642 0.0
C2514 C 0.4382 0.16267 0.38583 0.0
C2515 C 0.42905 0.15183 0.39764 0.0
C2516 C 0.45612 0.16609 0.38812 0.0
C2517 C 0.49398 0.16095 0.41939 0.0
H2518 H 0.52099 0.16063 0.37628 0.0
C2519 C 0.56922 0.14753 0.41591 0.0
C2520 C 0.5791 0.15624 0.40295 0.0
C2521 C 0.55099 0.1499 0.41707 0.0
C2522 C 0.51369 0.16104 0.38847 0.0
H2523 H 0.43148 0.13667 0.42155 0.0
H2524 H 0.46278 0.1423 0.42539 0.0
H2525 H 0.48921 0.15937 0.37495 0.0
H2526 H 0.57762 0.17512 0.38174 0.0
H2527 H 0.54594 0.17939 0.38385 0.0
H2528 H 0.51874 0.16197 0.43284 0.0
C2529 C 0.4561 0.14847 0.41449 0.0
C2530 C 0.49534 0.16036 0.38772 0.0
C2531 C 0.43808 0.14522 0.4123 0.0
C2532 C 0.57046 0.16821 0.39189 0.0
C2533 C 0.55223 0.17051 0.39298 0.0
C2534 C 0.51241 0.1615 0.42013 0.0
C2535 C 0.46552 0.15855 0.40214 0.0
C2536 C 0.48515 0.16023 0.40315 0.0
C2537 C 0.54216 0.16098 0.40522 0.0
C2538 C 0.52252 0.16148 0.40466 0.0
H2539 H 0.43163 0.16802 0.37443 0.0
H2540 H 0.46269 0.17432 0.37858 0.0
H2541 H 0.48669 0.16111 0.43158 0.0
H2542 H 0.57542 0.13814 0.42459 0.0
H2543 H 0.54371 0.14228 0.42661 0.0
C2544 C 0.09271 0.36147 0.93558 0.0
C2545 C 0.1049 0.35204 0.92542 0.0
C2546 C 0.09155 0.35886 0.95376 0.0
C2547 C 0.11942 0.34596 0.99077 0.0
H2548 H 0.07621 0.34672 0.01761 0.0
C2549 C 0.12179 0.34538 0.06642 0.0
C2550 C 0.1098 0.35616 0.07536 0.0
C2551 C 0.11964 0.3417 0.04852 0.0
C2552 C 0.08844 0.34667 0.01038 0.0
H2553 H 0.12488 0.33185 0.92636 0.0
H2554 H 0.1229 0.32732 0.95809 0.0
H2555 H 0.07506 0.34613 0.98558 0.0
H2556 H 0.08574 0.371 0.07258 0.0
H2557 H 0.08218 0.36506 0.04138 0.0
H2558 H 0.13291 0.34733 0.01529 0.0
C2559 C 0.11427 0.33681 0.95199 0.0
C2560 C 0.08775 0.34624 0.99197 0.0
C2561 C 0.11527 0.33927 0.93376 0.0
C2562 C 0.09512 0.36248 0.06615 0.0
C2563 C 0.0931 0.35903 0.04817 0.0
C2564 C 0.12013 0.3466 0.00913 0.0
C2565 C 0.10271 0.34689 0.96229 0.0
C2566 C 0.10324 0.346 0.98191 0.0
C2567 C 0.10559 0.34898 0.03892 0.0
C2568 C 0.10466 0.3471 0.01929 0.0
H2569 H 0.08458 0.37147 0.9296 0.0
H2570 H 0.08257 0.36692 0.96126 0.0
H2571 H 0.13163 0.34611 0.98348 0.0
H2572 H 0.13322 0.34026 0.07313 0.0
H2573 H 0.1293 0.33349 0.04213 0.0
C2574 C 0.10855 0.66276 0.93294 0.0
C2575 C 0.10589 0.6456 0.92672 0.0
C2576 C 0.10668 0.6666 0.95092 0.0
C2577 C 0.11491 0.66725 0.99031 0.0
H2578 H 0.08247 0.6414 0.01981 0.0
C2579 C 0.12854 0.6541 0.06348 0.0
C2580 C 0.1146 0.6518 0.07537 0.0
C2581 C 0.12536 0.65712 0.04566 0.0
C2582 C 0.09146 0.64901 0.01184 0.0
H2583 H 0.09836 0.61924 0.93438 0.0
H2584 H 0.09523 0.6258 0.96533 0.0
H2585 H 0.0796 0.6399 0.98805 0.0
H2586 H 0.0863 0.65175 0.07791 0.0
H2587 H 0.08066 0.65736 0.04675 0.0
H2588 H 0.12674 0.67639 0.01411 0.0
C2589 C 0.09858 0.63644 0.95653 0.0
C2590 C 0.08996 0.64795 0.99353 0.0
C2591 C 0.10048 0.63263 0.93869 0.0
C2592 C 0.09734 0.65352 0.06912 0.0
C2593 C 0.09412 0.65654 0.0512 0.0
C2594 C 0.11636 0.66838 0.00863 0.0
C2595 C 0.10202 0.65338 0.96304 0.0
C2596 C 0.10198 0.65664 0.98246 0.0
C2597 C 0.10811 0.65796 0.03912 0.0
C2598 C 0.10497 0.65887 0.01969 0.0
H2599 H 0.11281 0.67303 0.92409 0.0
H2600 H 0.10922 0.67986 0.95536 0.0
H2601 H 0.12449 0.67409 0.98233 0.0
H2602 H 0.14202 0.65282 0.0678 0.0
H2603 H 0.13651 0.65788 0.03689 0.0
C2604 C 0.84179 0.61577 0.43646 0.0
C2605 C 0.85488 0.6058 0.42812 0.0
C2606 C 0.83821 0.61351 0.45437 0.0
C2607 C 0.84642 0.58472 0.49337 0.0
H2608 H 0.84295 0.62859 0.51885 0.0
C2609 C 0.85862 0.59076 0.56859 0.0
C2610 C 0.85009 0.60421 0.57791 0.0
C2611 C 0.85617 0.5889 0.55041 0.0
C2612 C 0.84352 0.61614 0.51202 0.0
H2613 H 0.87374 0.58487 0.43194 0.0
H2614 H 0.86753 0.58092 0.4631 0.0
H2615 H 0.84392 0.62891 0.48704 0.0
H2616 H 0.83127 0.62538 0.57565 0.0
H2617 H 0.82651 0.62176 0.54424 0.0
H2618 H 0.84634 0.572 0.51849 0.0
C2619 C 0.85993 0.59046 0.45582 0.0
C2620 C 0.84411 0.61633 0.49366 0.0
C2621 C 0.86351 0.59272 0.43789 0.0
C2622 C 0.83809 0.61491 0.56888 0.0
C2623 C 0.83554 0.61297 0.55077 0.0
C2624 C 0.84578 0.58452 0.5118 0.0
C2625 C 0.84764 0.60122 0.46445 0.0
C2626 C 0.84572 0.60066 0.48403 0.0
C2627 C 0.84506 0.60039 0.54112 0.0
C2628 C 0.84448 0.60025 0.52143 0.0
H2629 H 0.83488 0.62595 0.42936 0.0
H2630 H 0.8284 0.6218 0.46045 0.0
H2631 H 0.84748 0.57237 0.48643 0.0
H2632 H 0.86808 0.58239 0.57509 0.0
H2633 H 0.86382 0.57911 0.54353 0.0
C2634 C 0.91109 0.35826 0.9337 0.0
C2635 C 0.89443 0.35608 0.92606 0.0
C2636 C 0.91371 0.3548 0.95162 0.0
C2637 C 0.8936 0.33316 0.99078 0.0
H2638 H 0.91698 0.36992 0.01706 0.0
C2639 C 0.88063 0.34485 0.06428 0.0
C2640 C 0.89388 0.35174 0.07511 0.0
C2641 C 0.88349 0.34231 0.04633 0.0
C2642 C 0.91072 0.35931 0.00997 0.0
H2643 H 0.86772 0.3477 0.93108 0.0
H2644 H 0.87229 0.34145 0.96206 0.0
H2645 H 0.91702 0.37082 0.98507 0.0
H2646 H 0.92087 0.36064 0.07565 0.0
H2647 H 0.92602 0.356 0.04421 0.0
H2648 H 0.88696 0.32183 0.01563 0.0
C2649 C 0.88338 0.34583 0.95432 0.0
C2650 C 0.91073 0.35985 0.99156 0.0
C2651 C 0.88074 0.34945 0.93651 0.0
C2652 C 0.91042 0.35521 0.06769 0.0
C2653 C 0.91329 0.35274 0.04962 0.0
C2654 C 0.89364 0.33258 0.00916 0.0
C2655 C 0.89978 0.34887 0.96226 0.0
C2656 C 0.90179 0.34701 0.98171 0.0
C2657 C 0.89972 0.34662 0.03861 0.0
C2658 C 0.90181 0.34589 0.01906 0.0
H2659 H 0.92189 0.36348 0.92605 0.0
H2660 H 0.92655 0.35712 0.95724 0.0
H2661 H 0.88685 0.32287 0.98365 0.0
H2662 H 0.8677 0.34209 0.06953 0.0
H2663 H 0.87263 0.33779 0.03837 0.0
C2664 C 0.1532 0.41102 0.56922 0.0
C2665 C 0.15299 0.39362 0.57533 0.0
C2666 C 0.15636 0.41467 0.55138 0.0
C2667 C 0.17039 0.3934 0.50877 0.0
H2668 H 0.14113 0.42938 0.48809 0.0
C2669 C 0.13496 0.40925 0.43837 0.0
C2670 C 0.14772 0.4028 0.4267 0.0
C2671 C 0.13867 0.41138 0.45621 0.0
C2672 C 0.14934 0.41917 0.49356 0.0
H2673 H 0.1568 0.36649 0.5676 0.0
H2674 H 0.1618 0.37268 0.5369 0.0
H2675 H 0.14217 0.42626 0.51976 0.0
H2676 H 0.17482 0.39458 0.42456 0.0
H2677 H 0.18162 0.39897 0.45563 0.0
H2678 H 0.17654 0.38545 0.48258 0.0
C2679 C 0.1599 0.38368 0.54567 0.0
C2680 C 0.15018 0.41757 0.51188 0.0
C2681 C 0.1569 0.38009 0.5634 0.0
C2682 C 0.16469 0.39958 0.43317 0.0
C2683 C 0.16849 0.40189 0.45109 0.0
C2684 C 0.16934 0.39483 0.49045 0.0
C2685 C 0.15929 0.40099 0.53923 0.0
C2686 C 0.16036 0.40435 0.5198 0.0
C2687 C 0.15537 0.40733 0.463 0.0
C2688 C 0.15843 0.40744 0.48251 0.0
H2689 H 0.1502 0.42175 0.57803 0.0
H2690 H 0.15609 0.42821 0.54709 0.0
H2691 H 0.17877 0.38334 0.51424 0.0
H2692 H 0.12171 0.41181 0.4339 0.0
H2693 H 0.12806 0.41533 0.46477 0.0
C2694 C 0.8966 0.66127 0.93539 0.0
C2695 C 0.90215 0.64503 0.92864 0.0
C2696 C 0.89838 0.66501 0.95339 0.0
C2697 C 0.92161 0.65174 0.9941 0.0
H2698 H 0.87872 0.66482 0.01805 0.0
C2699 C 0.91208 0.64052 0.06858 0.0
C2700 C 0.89996 0.65076 0.07799 0.0
C2701 C 0.91449 0.64301 0.05051 0.0
C2702 C 0.89099 0.66157 0.01167 0.0
H2703 H 0.91466 0.62038 0.93524 0.0
H2704 H 0.91826 0.6271 0.96631 0.0
H2705 H 0.87937 0.66386 0.98613 0.0
H2706 H 0.88177 0.67248 0.07595 0.0
H2707 H 0.88656 0.67742 0.04468 0.0
H2708 H 0.93331 0.64944 0.01951 0.0
C2709 C 0.91242 0.63691 0.95785 0.0
C2710 C 0.89131 0.66097 0.99328 0.0
C2711 C 0.91031 0.63304 0.94003 0.0
C2712 C 0.89119 0.66434 0.06911 0.0
C2713 C 0.89378 0.66699 0.05106 0.0
C2714 C 0.92138 0.65258 0.01248 0.0
C2715 C 0.90609 0.65274 0.96487 0.0
C2716 C 0.9065 0.65567 0.98426 0.0
C2717 C 0.90502 0.65598 0.04132 0.0
C2718 C 0.90594 0.65709 0.02163 0.0
H2719 H 0.89009 0.67068 0.92698 0.0
H2720 H 0.89343 0.67736 0.95839 0.0
H2721 H 0.93359 0.64779 0.98755 0.0
H2722 H 0.91892 0.62982 0.07494 0.0
H2723 H 0.92312 0.63407 0.04364 0.0
C2724 C 0.85574 0.41257 0.43359 0.0
C2725 C 0.85282 0.3959 0.42623 0.0
C2726 C 0.85326 0.41539 0.45167 0.0
C2727 C 0.83329 0.3955 0.49197 0.0
H2728 H 0.87126 0.41884 0.5165 0.0
C2729 C 0.84964 0.38142 0.56428 0.0
C2730 C 0.85625 0.39483 0.57509 0.0
C2731 C 0.84616 0.38449 0.54653 0.0
C2732 C 0.86035 0.41257 0.50989 0.0
H2733 H 0.8442 0.36939 0.43193 0.0
H2734 H 0.83975 0.37427 0.4631 0.0
H2735 H 0.87055 0.41909 0.48447 0.0
H2736 H 0.86383 0.42221 0.57582 0.0
H2737 H 0.85772 0.42765 0.54465 0.0
H2738 H 0.82339 0.3885 0.51734 0.0
C2739 C 0.8439 0.38525 0.45508 0.0
C2740 C 0.85994 0.41272 0.49147 0.0
C2741 C 0.84652 0.38241 0.43714 0.0
C2742 C 0.85861 0.41165 0.56787 0.0
C2743 C 0.85529 0.4147 0.54997 0.0
C2744 C 0.83371 0.39534 0.51035 0.0
C2745 C 0.8476 0.40165 0.46272 0.0
C2746 C 0.84665 0.40377 0.48224 0.0
C2747 C 0.84932 0.40105 0.53899 0.0
C2748 C 0.8475 0.40346 0.51957 0.0
H2749 H 0.86074 0.42319 0.42556 0.0
H2750 H 0.85609 0.42823 0.45706 0.0
H2751 H 0.82265 0.38878 0.48536 0.0
H2752 H 0.84774 0.36829 0.5694 0.0
H2753 H 0.84179 0.37359 0.53853 0.0
C2754 C 0.16262 0.62075 0.56743 0.0
C2755 C 0.15211 0.60855 0.57644 0.0
C2756 C 0.1658 0.61894 0.54942 0.0
C2757 C 0.16155 0.58887 0.51076 0.0
H2758 H 0.15638 0.63272 0.48555 0.0
C2759 C 0.14916 0.59359 0.43507 0.0
C2760 C 0.15561 0.60845 0.42621 0.0
C2761 C 0.15133 0.59187 0.45332 0.0
C2762 C 0.15821 0.62035 0.49229 0.0
H2763 H 0.13755 0.58427 0.57371 0.0
H2764 H 0.143 0.58113 0.54224 0.0
H2765 H 0.1558 0.63272 0.51732 0.0
H2766 H 0.17051 0.63247 0.42935 0.0
H2767 H 0.17484 0.62921 0.46081 0.0
H2768 H 0.16364 0.57651 0.48549 0.0
C2769 C 0.14892 0.59206 0.54912 0.0
C2770 C 0.15787 0.62035 0.51063 0.0
C2771 C 0.14581 0.59384 0.56721 0.0
C2772 C 0.16529 0.6209 0.43578 0.0
C2773 C 0.16759 0.61912 0.4539 0.0
C2774 C 0.16192 0.58887 0.49229 0.0
C2775 C 0.15845 0.60493 0.53984 0.0
C2776 C 0.15954 0.60465 0.52019 0.0
C2777 C 0.16007 0.60494 0.46309 0.0
C2778 C 0.16027 0.60464 0.48278 0.0
H2779 H 0.16774 0.6322 0.57413 0.0
H2780 H 0.17358 0.62888 0.54287 0.0
H2781 H 0.16297 0.57652 0.51763 0.0
H2782 H 0.1415 0.58384 0.42811 0.0
H2783 H 0.1453 0.58079 0.45987 0.0
C2784 C 0.31943 0.11676 0.39958 0.0
C2785 C 0.32879 0.13053 0.39159 0.0
C2786 C 0.3011 0.1159 0.39841 0.0
C2787 C 0.26467 0.12808 0.36976 0.0
H2788 H 0.23534 0.11807 0.41008 0.0
C2789 C 0.18832 0.12615 0.36503 0.0
C2790 C 0.17896 0.11563 0.37694 0.0
C2791 C 0.20664 0.12781 0.36631 0.0
C2792 C 0.24327 0.12051 0.39855 0.0
H2793 H 0.32617 0.15432 0.37625 0.0
H2794 H 0.29407 0.15263 0.37394 0.0
H2795 H 0.26681 0.12193 0.41395 0.0
H2796 H 0.18157 0.09781 0.39889 0.0
H2797 H 0.21341 0.09976 0.4005 0.0
H2798 H 0.24137 0.12604 0.3542 0.0
C2799 C 0.30098 0.14259 0.38124 0.0
C2800 C 0.26137 0.1229 0.40085 0.0
C2801 C 0.31933 0.14366 0.38273 0.0
C2802 C 0.1884 0.10606 0.38954 0.0
C2803 C 0.20671 0.10743 0.39061 0.0
C2804 C 0.24659 0.12539 0.36739 0.0
C2805 C 0.29167 0.12857 0.3889 0.0
C2806 C 0.2723 0.12672 0.3865 0.0
C2807 C 0.21613 0.11874 0.37938 0.0
C2808 C 0.23555 0.12151 0.38175 0.0
H2809 H 0.32634 0.10638 0.40639 0.0
H2810 H 0.29436 0.10489 0.40438 0.0
H2811 H 0.27277 0.13078 0.35839 0.0
H2812 H 0.1814 0.1339 0.35534 0.0
H2813 H 0.2132 0.1368 0.35749 0.0
C2814 C 0.38277 0.69013 0.86083 0.0
C2815 C 0.39292 0.6811 0.8733 0.0
C2816 C 0.38075 0.70842 0.86186 0.0
C2817 C 0.39927 0.74888 0.88217 0.0
H2818 H 0.35187 0.76676 0.87764 0.0
C2819 C 0.38304 0.82049 0.90091 0.0
C2820 C 0.37159 0.82978 0.88984 0.0
C2821 C 0.38492 0.80225 0.89931 0.0
C2822 C 0.36523 0.76209 0.87877 0.0
H2823 H 0.40957 0.68434 0.89612 0.0
H2824 H 0.40632 0.7161 0.89774 0.0
H2825 H 0.35766 0.73571 0.87248 0.0
H2826 H 0.35257 0.827 0.86889 0.0
H2827 H 0.35591 0.79534 0.86598 0.0
H2828 H 0.40693 0.77519 0.88829 0.0
C2829 C 0.39987 0.70914 0.88716 0.0
C2830 C 0.36856 0.74423 0.87576 0.0
C2831 C 0.40175 0.69088 0.88623 0.0
C2832 C 0.3614 0.82026 0.87774 0.0
C2833 C 0.36335 0.80203 0.87607 0.0
C2834 C 0.39597 0.76674 0.88507 0.0
C2835 C 0.38898 0.71813 0.87528 0.0
C2836 C 0.38561 0.73735 0.87751 0.0
C2837 C 0.37548 0.7928 0.88651 0.0
C2838 C 0.37888 0.77363 0.88353 0.0
H2839 H 0.37567 0.68298 0.8508 0.0
H2840 H 0.37246 0.71494 0.85235 0.0
H2841 H 0.41259 0.74412 0.88342 0.0
H2842 H 0.3911 0.8274 0.91036 0.0
H2843 H 0.39407 0.79562 0.90791 0.0
C2844 C 0.68723 0.88676 0.37007 0.0
C2845 C 0.67774 0.87886 0.38382 0.0
C2846 C 0.70555 0.88727 0.37028 0.0
C2847 C 0.7433 0.88736 0.39975 0.0
H2848 H 0.76994 0.87658 0.35772 0.0
C2849 C 0.81899 0.88525 0.40044 0.0
C2850 C 0.82851 0.89008 0.38537 0.0
C2851 C 0.80071 0.88403 0.40012 0.0
C2852 C 0.76275 0.87994 0.3695 0.0
H2853 H 0.68015 0.86517 0.40858 0.0
H2854 H 0.71247 0.86637 0.40917 0.0
H2855 H 0.7381 0.87317 0.3577 0.0
H2856 H 0.82611 0.89775 0.35813 0.0
H2857 H 0.79396 0.89622 0.35765 0.0
H2858 H 0.76772 0.89468 0.41145 0.0
C2859 C 0.70555 0.87209 0.39816 0.0
C2860 C 0.74446 0.87783 0.36953 0.0
C2861 C 0.68709 0.87132 0.3978 0.0
C2862 C 0.81918 0.89402 0.36997 0.0
C2863 C 0.80074 0.89296 0.36969 0.0
C2864 C 0.76155 0.88969 0.39967 0.0
C2865 C 0.71497 0.88009 0.38436 0.0
C2866 C 0.73451 0.88149 0.38466 0.0
C2867 C 0.79123 0.8878 0.38476 0.0
C2868 C 0.77161 0.88595 0.38457 0.0
H2869 H 0.68048 0.89265 0.35904 0.0
H2870 H 0.71234 0.89368 0.35955 0.0
H2871 H 0.736 0.8906 0.41151 0.0
H2872 H 0.8257 0.88196 0.41253 0.0
H2873 H 0.79408 0.87965 0.41191 0.0
C2874 C 0.61022 0.18687 0.88457 0.0
C2875 C 0.62512 0.17781 0.89065 0.0
C2876 C 0.61001 0.20519 0.88362 0.0
C2877 C 0.63203 0.24555 0.89974 0.0
H2878 H 0.61057 0.26669 0.85871 0.0
C2879 C 0.63909 0.31951 0.88525 0.0
C2880 C 0.62462 0.32876 0.87849 0.0
C2881 C 0.63886 0.30122 0.88656 0.0
C2882 C 0.61641 0.26106 0.87037 0.0
H2883 H 0.65142 0.1811 0.90087 0.0
H2884 H 0.65111 0.21328 0.89923 0.0
H2885 H 0.61108 0.23484 0.86175 0.0
H2886 H 0.59858 0.32586 0.86754 0.0
H2887 H 0.59805 0.29372 0.86995 0.0
H2888 H 0.63733 0.27175 0.9084 0.0
C2889 C 0.6395 0.2061 0.89528 0.0
C2890 C 0.61673 0.24273 0.87212 0.0
C2891 C 0.63971 0.18765 0.89622 0.0
C2892 C 0.60995 0.31915 0.87274 0.0
C2893 C 0.6097 0.30071 0.87411 0.0
C2894 C 0.63168 0.26387 0.89801 0.0
C2895 C 0.62471 0.21511 0.88869 0.0
C2896 C 0.62456 0.23469 0.88683 0.0
C2897 C 0.62411 0.29151 0.88124 0.0
C2898 C 0.62393 0.27192 0.88326 0.0
H2899 H 0.59868 0.17976 0.88025 0.0
H2900 H 0.59826 0.21158 0.87886 0.0
H2901 H 0.63792 0.2399 0.91137 0.0
H2902 H 0.6507 0.32643 0.88969 0.0
H2903 H 0.65037 0.29469 0.89171 0.0
C2904 C 0.31883 0.89582 0.61118 0.0
C2905 C 0.32816 0.87999 0.61297 0.0
C2906 C 0.30059 0.89631 0.61332 0.0
C2907 C 0.26455 0.8723 0.63527 0.0
H2908 H 0.23461 0.90262 0.6075 0.0
C2909 C 0.1888 0.87006 0.64014 0.0
C2910 C 0.17907 0.88557 0.63776 0.0
C2911 C 0.20702 0.86991 0.63794 0.0
C2912 C 0.24279 0.89429 0.61559 0.0
H2913 H 0.32547 0.85213 0.61784 0.0
H2914 H 0.2935 0.85291 0.62143 0.0
H2915 H 0.2658 0.90051 0.60062 0.0
H2916 H 0.18107 0.91327 0.63179 0.0
H2917 H 0.21307 0.91315 0.62826 0.0
H2918 H 0.24161 0.86615 0.65031 0.0
C2919 C 0.30038 0.86501 0.61854 0.0
C2920 C 0.26072 0.893 0.61156 0.0
C2921 C 0.31868 0.86451 0.61627 0.0
C2922 C 0.18816 0.90114 0.63382 0.0
C2923 C 0.20649 0.90099 0.63158 0.0
C2924 C 0.24665 0.87363 0.63932 0.0
C2925 C 0.29112 0.881 0.61743 0.0
C2926 C 0.27186 0.88195 0.62132 0.0
C2927 C 0.21615 0.88528 0.63328 0.0
C2928 C 0.23546 0.88459 0.62951 0.0
H2929 H 0.32571 0.90802 0.60872 0.0
H2930 H 0.29402 0.90888 0.6125 0.0
H2931 H 0.27274 0.86394 0.64332 0.0
H2932 H 0.18223 0.85779 0.64309 0.0
H2933 H 0.21384 0.85752 0.63918 0.0
C2934 C 0.61178 0.68593 0.14073 0.0
C2935 C 0.6136 0.67605 0.12527 0.0
C2936 C 0.61309 0.70434 0.14029 0.0
C2937 C 0.61294 0.74287 0.1095 0.0
H2938 H 0.63788 0.7659 0.14735 0.0
C2939 C 0.63355 0.8167 0.10656 0.0
C2940 C 0.63018 0.82642 0.12187 0.0
C2941 C 0.63194 0.79828 0.10663 0.0
C2942 C 0.63079 0.75971 0.1367 0.0
H2943 H 0.61773 0.67788 0.09716 0.0
H2944 H 0.6202 0.70959 0.09643 0.0
H2945 H 0.63302 0.73431 0.14852 0.0
H2946 H 0.62294 0.82434 0.14934 0.0
H2947 H 0.62033 0.7926 0.14948 0.0
H2948 H 0.61091 0.76833 0.09763 0.0
C2949 C 0.61753 0.70334 0.1089 0.0
C2950 C 0.62789 0.74155 0.13742 0.0
C2951 C 0.61619 0.68504 0.10934 0.0
C2952 C 0.62563 0.8173 0.13728 0.0
C2953 C 0.62422 0.79902 0.13741 0.0
C2954 C 0.61594 0.76103 0.10873 0.0
C2955 C 0.61626 0.71331 0.12438 0.0
C2956 C 0.61888 0.73283 0.12386 0.0
C2957 C 0.62719 0.78922 0.12208 0.0
C2958 C 0.62484 0.76972 0.12236 0.0
H2959 H 0.60983 0.67942 0.15322 0.0
H2960 H 0.61175 0.71154 0.15247 0.0
H2961 H 0.60573 0.73676 0.09889 0.0
H2962 H 0.63702 0.82332 0.09447 0.0
H2963 H 0.63445 0.79112 0.09462 0.0
C2964 C 0.8174 0.10162 0.63213 0.0
C2965 C 0.82695 0.11475 0.6409 0.0
C2966 C 0.79913 0.10299 0.63013 0.0
C2967 C 0.7595 0.12824 0.6453 0.0
H2968 H 0.74014 0.1121 0.60112 0.0
C2969 C 0.6876 0.1434 0.62449 0.0
C2970 C 0.67795 0.129 0.61814 0.0
C2971 C 0.70588 0.14223 0.62669 0.0
C2972 C 0.7453 0.11661 0.61357 0.0
H2973 H 0.82461 0.13939 0.6549 0.0
H2974 H 0.793 0.14196 0.6512 0.0
H2975 H 0.77129 0.10825 0.60708 0.0
H2976 H 0.68007 0.10235 0.60846 0.0
H2977 H 0.71183 0.10045 0.61189 0.0
H2978 H 0.73343 0.13686 0.65158 0.0
C2979 C 0.79944 0.13038 0.64609 0.0
C2980 C 0.76322 0.11429 0.61708 0.0
C2981 C 0.81767 0.12892 0.64824 0.0
C2982 C 0.6871 0.11373 0.6133 0.0
C2983 C 0.70535 0.11263 0.61526 0.0
C2984 C 0.7416 0.13071 0.64171 0.0
C2985 C 0.7899 0.11764 0.63666 0.0
C2986 C 0.77063 0.11997 0.63305 0.0
C2987 C 0.71496 0.12672 0.62235 0.0
C2988 C 0.73422 0.12486 0.62582 0.0
H2989 H 0.82411 0.09054 0.62629 0.0
H2990 H 0.79231 0.09264 0.62317 0.0
H2991 H 0.76452 0.13259 0.65786 0.0
H2992 H 0.68094 0.1553 0.62851 0.0
H2993 H 0.71289 0.1534 0.632 0.0
C2994 C 0.39709 0.1858 0.12241 0.0
C2995 C 0.38149 0.17676 0.11838 0.0
C2996 C 0.3973 0.20407 0.12408 0.0
C2997 C 0.37258 0.24467 0.11349 0.0
H2998 H 0.40006 0.26443 0.15154 0.0
C2999 C 0.36736 0.31787 0.13165 0.0
C3000 C 0.38274 0.3271 0.13607 0.0
C3001 C 0.36741 0.29961 0.12997 0.0
C3002 C 0.39249 0.25919 0.14071 0.0
H3003 H 0.35389 0.18001 0.11251 0.0
H3004 H 0.35419 0.21209 0.11542 0.0
H3005 H 0.39944 0.23273 0.14714 0.0
H3006 H 0.41022 0.3242 0.14263 0.0
H3007 H 0.41042 0.29211 0.13957 0.0
H3008 H 0.36567 0.2711 0.10701 0.0
C3009 C 0.36635 0.20496 0.1172 0.0
C3010 C 0.39211 0.24096 0.13818 0.0
C3011 C 0.36614 0.18657 0.11552 0.0
C3012 C 0.39814 0.31749 0.1393 0.0
C3013 C 0.39821 0.29908 0.13755 0.0
C3014 C 0.37299 0.2629 0.116 0.0
C3015 C 0.3819 0.21394 0.1218 0.0
C3016 C 0.38214 0.23342 0.12453 0.0
C3017 C 0.38289 0.28992 0.13255 0.0
C3018 C 0.38289 0.27045 0.1297 0.0
H3019 H 0.40921 0.17871 0.12462 0.0
H3020 H 0.4096 0.21047 0.12723 0.0
H3021 H 0.36499 0.23943 0.10268 0.0
H3022 H 0.3552 0.32481 0.12921 0.0
H3023 H 0.35525 0.29309 0.12658 0.0
C3024 C 0.11755 0.36555 0.18468 0.0
C3025 C 0.11751 0.38139 0.17523 0.0
C3026 C 0.11912 0.36562 0.20308 0.0
C3027 C 0.11572 0.39493 0.24248 0.0
H3028 H 0.14568 0.36003 0.26408 0.0
C3029 C 0.13556 0.39849 0.31629 0.0
C3030 C 0.13467 0.38256 0.32556 0.0
C3031 C 0.13413 0.39868 0.29787 0.0
C3032 C 0.13717 0.36982 0.25831 0.0
H3033 H 0.11861 0.40972 0.17781 0.0
H3034 H 0.12142 0.40984 0.20953 0.0
H3035 H 0.14062 0.35917 0.23251 0.0
H3036 H 0.13212 0.35435 0.32268 0.0
H3037 H 0.12974 0.35469 0.29092 0.0
H3038 H 0.11234 0.4056 0.26831 0.0
C3039 C 0.12007 0.39733 0.20293 0.0
C3040 C 0.13418 0.36927 0.24015 0.0
C3041 C 0.11853 0.39725 0.18464 0.0
C3042 C 0.13289 0.36687 0.31598 0.0
C3043 C 0.1316 0.36705 0.29769 0.0
C3044 C 0.11875 0.39551 0.26063 0.0
C3045 C 0.12064 0.38153 0.21245 0.0
C3046 C 0.12339 0.38179 0.23195 0.0
C3047 C 0.13195 0.38294 0.28834 0.0
C3048 C 0.12947 0.38292 0.26883 0.0
H3049 H 0.11687 0.35311 0.17784 0.0
H3050 H 0.11925 0.35318 0.20994 0.0
H3051 H 0.10714 0.40468 0.23675 0.0
H3052 H 0.13684 0.4108 0.32327 0.0
H3053 H 0.13463 0.41116 0.2911 0.0
C3054 C 0.14185 0.62236 0.68537 0.0
C3055 C 0.12714 0.61661 0.67584 0.0
C3056 C 0.14084 0.62477 0.70363 0.0
C3057 C 0.10761 0.63137 0.73929 0.0
H3058 H 0.14748 0.62415 0.76995 0.0
C3059 C 0.10313 0.63287 0.81578 0.0
C3060 C 0.11722 0.64052 0.82493 0.0
C3061 C 0.10384 0.63083 0.79746 0.0
C3062 C 0.13625 0.62642 0.76155 0.0
H3063 H 0.10013 0.60802 0.67818 0.0
H3064 H 0.09855 0.6115 0.70987 0.0
H3065 H 0.15017 0.61767 0.73875 0.0
H3066 H 0.14275 0.65274 0.82183 0.0
H3067 H 0.14391 0.6493 0.79005 0.0
H3068 H 0.09364 0.63984 0.76224 0.0
C3069 C 0.11073 0.61476 0.70331 0.0
C3070 C 0.1378 0.6227 0.74358 0.0
C3071 C 0.1117 0.61254 0.6851 0.0
C3072 C 0.13164 0.64681 0.81524 0.0
C3073 C 0.1324 0.64465 0.797 0.0
C3074 C 0.10602 0.63493 0.75728 0.0
C3075 C 0.12513 0.62135 0.71285 0.0
C3076 C 0.1235 0.62512 0.73214 0.0
C3077 C 0.11872 0.63626 0.78789 0.0
C3078 C 0.12034 0.63257 0.76866 0.0
H3079 H 0.15388 0.62581 0.67862 0.0
H3080 H 0.1522 0.62999 0.71038 0.0
H3081 H 0.09637 0.6338 0.73095 0.0
H3082 H 0.0919 0.62775 0.82283 0.0
H3083 H 0.09307 0.62427 0.7909 0.0
C3084 C 0.87644 0.61326 0.18675 0.0
C3085 C 0.88413 0.62739 0.17765 0.0
C3086 C 0.87602 0.61289 0.20508 0.0
C3087 C 0.87908 0.64171 0.24428 0.0
H3088 H 0.88373 0.59747 0.26904 0.0
C3089 C 0.88581 0.63816 0.3197 0.0
C3090 C 0.87715 0.62466 0.3289 0.0
C3091 C 0.88625 0.63838 0.30137 0.0
C3092 C 0.88217 0.60991 0.26234 0.0
H3093 H 0.89769 0.65215 0.18087 0.0
H3094 H 0.89725 0.65143 0.21307 0.0
H3095 H 0.88651 0.5982 0.23717 0.0
H3096 H 0.86204 0.60078 0.32586 0.0
H3097 H 0.86279 0.60111 0.29359 0.0
H3098 H 0.87489 0.65341 0.2695 0.0
C3099 C 0.89128 0.6407 0.20592 0.0
C3100 C 0.8838 0.61036 0.244 0.0
C3101 C 0.89168 0.64108 0.18745 0.0
C3102 C 0.8688 0.61137 0.31919 0.0
C3103 C 0.86934 0.61152 0.30072 0.0
C3104 C 0.87752 0.64126 0.26262 0.0
C3105 C 0.88334 0.62662 0.21501 0.0
C3106 C 0.88225 0.62627 0.23467 0.0
C3107 C 0.87809 0.62507 0.29157 0.0
C3108 C 0.87906 0.62536 0.27193 0.0
H3109 H 0.8704 0.6025 0.17968 0.0
H3110 H 0.86953 0.60197 0.21146 0.0
H3111 H 0.87747 0.65416 0.23762 0.0
H3112 H 0.89243 0.64862 0.3267 0.0
H3113 H 0.89333 0.64886 0.29489 0.0
C3114 C 0.88065 0.36237 0.81637 0.0
C3115 C 0.89032 0.37533 0.82527 0.0
C3116 C 0.87879 0.36303 0.79803 0.0
C3117 C 0.89817 0.38196 0.75765 0.0
H3118 H 0.85113 0.37886 0.73853 0.0
C3119 C 0.8852 0.40059 0.68562 0.0
C3120 C 0.87308 0.39059 0.676 0.0
C3121 C 0.88644 0.39886 0.70387 0.0
C3122 C 0.8644 0.37953 0.74354 0.0
H3123 H 0.90617 0.39871 0.82186 0.0
H3124 H 0.9034 0.39955 0.79 0.0
H3125 H 0.85592 0.37399 0.76986 0.0
H3126 H 0.85232 0.37128 0.6781 0.0
H3127 H 0.85466 0.36792 0.70989 0.0
H3128 H 0.90683 0.38717 0.7315 0.0
C3129 C 0.89713 0.38895 0.7971 0.0
C3130 C 0.86714 0.37672 0.76155 0.0
C3131 C 0.89873 0.38846 0.81539 0.0
C3132 C 0.86166 0.37934 0.68516 0.0
C3133 C 0.86305 0.37741 0.70344 0.0
C3134 C 0.89549 0.38456 0.73966 0.0
C3135 C 0.88683 0.37649 0.7882 0.0
C3136 C 0.88404 0.3781 0.76886 0.0
C3137 C 0.87579 0.38682 0.71304 0.0
C3138 C 0.87853 0.38364 0.73231 0.0
H3139 H 0.87384 0.35222 0.82364 0.0
H3140 H 0.87088 0.35316 0.79155 0.0
H3141 H 0.91139 0.38289 0.76279 0.0
H3142 H 0.89416 0.40942 0.67897 0.0
H3143 H 0.89604 0.40678 0.71074 0.0
C3144 C 0.68752 0.85652 0.62673 0.0
C3145 C 0.67842 0.86756 0.61508 0.0
C3146 C 0.70564 0.85859 0.62942 0.0
C3147 C 0.74056 0.89261 0.62497 0.0
H3148 H 0.77216 0.85405 0.63485 0.0
C3149 C 0.8162 0.90065 0.62675 0.0
C3150 C 0.82594 0.89066 0.63882 0.0
C3151 C 0.79802 0.89838 0.62515 0.0
C3152 C 0.76347 0.86501 0.63237 0.0
H3153 H 0.68148 0.88875 0.59637 0.0
H3154 H 0.71301 0.89199 0.60058 0.0
H3155 H 0.7414 0.84802 0.62823 0.0
H3156 H 0.82401 0.87091 0.65918 0.0
H3157 H 0.79221 0.86706 0.65653 0.0
H3158 H 0.76265 0.90957 0.62892 0.0
C3159 C 0.70614 0.88204 0.60807 0.0
C3160 C 0.74579 0.86154 0.62851 0.0
C3161 C 0.68805 0.88002 0.60545 0.0
C3162 C 0.8169 0.87893 0.64985 0.0
C3163 C 0.79869 0.87655 0.64816 0.0
C3164 C 0.75822 0.89606 0.62875 0.0
C3165 C 0.71514 0.87174 0.62049 0.0
C3166 C 0.73407 0.87528 0.62463 0.0
C3167 C 0.78906 0.88596 0.6355 0.0
C3168 C 0.76998 0.88232 0.63242 0.0
H3169 H 0.68049 0.84691 0.6345 0.0
H3170 H 0.71201 0.85043 0.63914 0.0
H3171 H 0.73193 0.90361 0.6225 0.0
H3172 H 0.82275 0.9097 0.61795 0.0
H3173 H 0.79113 0.90579 0.61518 0.0
C3174 C 0.64775 0.18599 0.12911 0.0
C3175 C 0.63721 0.17666 0.11717 0.0
C3176 C 0.64551 0.20414 0.13146 0.0
C3177 C 0.61195 0.23925 0.12397 0.0
H3178 H 0.64969 0.27044 0.13783 0.0
C3179 C 0.60582 0.31514 0.12431 0.0
C3180 C 0.61358 0.3245 0.1382 0.0
C3181 C 0.60797 0.29695 0.12284 0.0
C3182 C 0.63896 0.26185 0.13417 0.0
H3183 H 0.61684 0.17929 0.09756 0.0
H3184 H 0.61355 0.2109 0.10093 0.0
H3185 H 0.656 0.23963 0.13173 0.0
H3186 H 0.62935 0.32197 0.16169 0.0
H3187 H 0.63322 0.29011 0.15907 0.0
H3188 H 0.59504 0.26164 0.12598 0.0
C3189 C 0.62309 0.20422 0.10905 0.0
C3190 C 0.64257 0.24412 0.13065 0.0
C3191 C 0.62515 0.18607 0.10689 0.0
C3192 C 0.62303 0.31512 0.15096 0.0
C3193 C 0.62543 0.29691 0.14933 0.0
C3194 C 0.6084 0.25699 0.12728 0.0
C3195 C 0.63281 0.21348 0.12178 0.0
C3196 C 0.62913 0.23252 0.12542 0.0
C3197 C 0.61818 0.28764 0.13507 0.0
C3198 C 0.62185 0.26854 0.13239 0.0
H3199 H 0.657 0.17911 0.13741 0.0
H3200 H 0.6532 0.21063 0.14148 0.0
H3201 H 0.60109 0.23078 0.12047 0.0
H3202 H 0.59858 0.322 0.11418 0.0
H3203 H 0.60229 0.29029 0.11165 0.0
C3204 C 0.18741 0.12335 0.64606 0.0
C3205 C 0.178 0.11316 0.6339 0.0
C3206 C 0.20559 0.12588 0.64415 0.0
C3207 C 0.24111 0.12201 0.60999 0.0
H3208 H 0.2719 0.13135 0.64937 0.0
C3209 C 0.31731 0.12131 0.60567 0.0
C3210 C 0.32649 0.13493 0.61409 0.0
C3211 C 0.29906 0.11972 0.60745 0.0
C3212 C 0.26342 0.12892 0.63822 0.0
H3213 H 0.18045 0.09681 0.61082 0.0
H3214 H 0.21207 0.10019 0.60809 0.0
H3215 H 0.24091 0.1251 0.65462 0.0
H3216 H 0.32361 0.15773 0.63082 0.0
H3217 H 0.2917 0.15478 0.63418 0.0
H3218 H 0.26389 0.1252 0.59372 0.0
C3219 C 0.20549 0.10698 0.61868 0.0
C3220 C 0.24557 0.12536 0.64121 0.0
C3221 C 0.18731 0.10478 0.62039 0.0
C3222 C 0.3169 0.14723 0.62397 0.0
C3223 C 0.29866 0.14542 0.62606 0.0
C3224 C 0.25899 0.12525 0.60706 0.0
C3225 C 0.2149 0.11803 0.63017 0.0
C3226 C 0.23408 0.12179 0.62714 0.0
C3227 C 0.28956 0.13149 0.61802 0.0
C3228 C 0.27038 0.12874 0.62112 0.0
H3229 H 0.18056 0.13022 0.65646 0.0
H3230 H 0.21214 0.13461 0.65322 0.0
H3231 H 0.2328 0.11986 0.59869 0.0
H3232 H 0.32432 0.11154 0.59809 0.0
H3233 H 0.29248 0.10881 0.60114 0.0
C3234 C 0.38695 0.81628 0.11036 0.0
C3235 C 0.37118 0.82543 0.11327 0.0
C3236 C 0.38788 0.79809 0.11266 0.0
C3237 C 0.36526 0.76157 0.13591 0.0
H3238 H 0.39668 0.73255 0.10834 0.0
C3239 C 0.36585 0.68563 0.13985 0.0
C3240 C 0.38201 0.67677 0.13881 0.0
C3241 C 0.36491 0.70383 0.13767 0.0
C3242 C 0.38803 0.74051 0.11633 0.0
H3243 H 0.34378 0.82239 0.12017 0.0
H3244 H 0.34523 0.79046 0.12373 0.0
H3245 H 0.39323 0.76351 0.10105 0.0
H3246 H 0.40996 0.68023 0.13509 0.0
H3247 H 0.40835 0.71221 0.1312 0.0
H3248 H 0.35988 0.73842 0.15099 0.0
C3249 C 0.35703 0.79746 0.12002 0.0
C3250 C 0.38599 0.75831 0.11212 0.0
C3251 C 0.35611 0.81576 0.11773 0.0
C3252 C 0.39734 0.68668 0.1361 0.0
C3253 C 0.39637 0.70496 0.13369 0.0
C3254 C 0.36721 0.74374 0.14003 0.0
C3255 C 0.37305 0.7884 0.1179 0.0
C3256 C 0.37461 0.76916 0.12187 0.0
C3257 C 0.38008 0.71374 0.13418 0.0
C3258 C 0.37863 0.73295 0.13031 0.0
H3259 H 0.39886 0.82329 0.107 0.0
H3260 H 0.4005 0.79177 0.11107 0.0
H3261 H 0.35666 0.76947 0.14398 0.0
H3262 H 0.35377 0.67839 0.14186 0.0
H3263 H 0.35213 0.71004 0.138 0.0
C3264 C 0.68798 0.15217 0.37959 0.0
C3265 C 0.6788 0.14363 0.39316 0.0
C3266 C 0.70613 0.14982 0.37754 0.0
C3267 C 0.74654 0.13456 0.40014 0.0
H3268 H 0.76301 0.12449 0.35305 0.0
C3269 C 0.81723 0.11034 0.38868 0.0
C3270 C 0.82645 0.11692 0.37411 0.0
C3271 C 0.79911 0.1129 0.39031 0.0
C3272 C 0.75874 0.12748 0.36627 0.0
H3273 H 0.68173 0.12655 0.4157 0.0
H3274 H 0.71338 0.12273 0.41236 0.0
H3275 H 0.73221 0.1318 0.35792 0.0
H3276 H 0.8237 0.13081 0.34949 0.0
H3277 H 0.79209 0.13552 0.35239 0.0
H3278 H 0.77299 0.13053 0.40854 0.0
C3279 C 0.70656 0.13122 0.40324 0.0
C3280 C 0.74102 0.13169 0.36906 0.0
C3281 C 0.68839 0.13344 0.40518 0.0
C3282 C 0.81695 0.12538 0.36077 0.0
C3283 C 0.79878 0.12812 0.36249 0.0
C3284 C 0.76426 0.13049 0.39734 0.0
C3285 C 0.71561 0.13899 0.38911 0.0
C3286 C 0.73465 0.1352 0.38606 0.0
C3287 C 0.78966 0.12233 0.37755 0.0
C3288 C 0.77065 0.12674 0.38038 0.0
H3289 H 0.68101 0.16002 0.37001 0.0
H3290 H 0.71269 0.15624 0.36668 0.0
H3291 H 0.74218 0.13742 0.41337 0.0
H3292 H 0.82415 0.10373 0.39918 0.0
H3293 H 0.79258 0.10776 0.40184 0.0
C3294 C 0.3775 0.31935 0.85665 0.0
C3295 C 0.39091 0.3284 0.86554 0.0
C3296 C 0.37551 0.30115 0.85863 0.0
C3297 C 0.38807 0.26498 0.88948 0.0
H3298 H 0.36771 0.23515 0.85365 0.0
C3299 C 0.38775 0.18897 0.89314 0.0
C3300 C 0.37235 0.18008 0.88818 0.0
C3301 C 0.38921 0.20717 0.89109 0.0
C3302 C 0.37323 0.24336 0.86386 0.0
H3303 H 0.4134 0.32523 0.88259 0.0
H3304 H 0.41059 0.29349 0.88528 0.0
H3305 H 0.37315 0.26609 0.84733 0.0
H3306 H 0.34628 0.1834 0.87739 0.0
H3307 H 0.34891 0.21531 0.87357 0.0
H3308 H 0.38861 0.24203 0.90577 0.0
C3309 C 0.4011 0.30044 0.87733 0.0
C3310 C 0.37636 0.26116 0.86025 0.0
C3311 C 0.40292 0.31867 0.87557 0.0
C3312 C 0.35823 0.1899 0.88153 0.0
C3313 C 0.35981 0.20813 0.87916 0.0
C3314 C 0.38516 0.24715 0.89297 0.0
C3315 C 0.38701 0.29144 0.86939 0.0
C3316 C 0.38388 0.27228 0.873 0.0
C3317 C 0.37542 0.21694 0.88371 0.0
C3318 C 0.37772 0.23611 0.88022 0.0
H3319 H 0.36787 0.32648 0.84901 0.0
H3320 H 0.36439 0.29488 0.85238 0.0
H3321 H 0.39341 0.27305 0.89987 0.0
H3322 H 0.3989 0.18177 0.8982 0.0
H3323 H 0.40144 0.2135 0.89463 0.0
C3324 C 0.18951 0.87833 0.35413 0.0
C3325 C 0.1802 0.88994 0.36504 0.0
C3326 C 0.20771 0.87624 0.35603 0.0
C3327 C 0.24775 0.8965 0.37514 0.0
H3328 H 0.26481 0.84864 0.3777 0.0
C3329 C 0.31807 0.88233 0.39872 0.0
C3330 C 0.32769 0.86931 0.38989 0.0
C3331 C 0.29996 0.88402 0.39614 0.0
C3332 C 0.26037 0.8621 0.37683 0.0
H3333 H 0.18287 0.90911 0.38587 0.0
H3334 H 0.21456 0.90577 0.38891 0.0
H3335 H 0.23405 0.85417 0.3707 0.0
H3336 H 0.32565 0.84737 0.37194 0.0
H3337 H 0.2941 0.8504 0.36721 0.0
H3338 H 0.27398 0.90452 0.38103 0.0
C3339 C 0.20785 0.8982 0.37893 0.0
C3340 C 0.24269 0.86528 0.37278 0.0
C3341 C 0.18965 0.90014 0.37717 0.0
C3342 C 0.31859 0.85741 0.37912 0.0
C3343 C 0.30046 0.85921 0.37637 0.0
C3344 C 0.26542 0.89334 0.37906 0.0
C3345 C 0.21705 0.88587 0.36873 0.0
C3346 C 0.23611 0.88252 0.37201 0.0
C3347 C 0.29095 0.87287 0.38445 0.0
C3348 C 0.27201 0.87609 0.38014 0.0
H3349 H 0.18261 0.87015 0.34476 0.0
H3350 H 0.21442 0.8668 0.34779 0.0
H3351 H 0.24321 0.90994 0.37444 0.0
H3352 H 0.32467 0.8917 0.40714 0.0
H3353 H 0.2931 0.89437 0.40302 0.0
C3354 C 0.60943 0.68799 0.8821 0.0
C3355 C 0.61931 0.67839 0.86984 0.0
C3356 C 0.61177 0.70613 0.88396 0.0
C3357 C 0.62748 0.74109 0.89436 0.0
H3358 H 0.63917 0.77213 0.85579 0.0
C3359 C 0.62769 0.81691 0.90057 0.0
C3360 C 0.64073 0.8265 0.89168 0.0
C3361 C 0.62633 0.79869 0.89852 0.0
C3362 C 0.63614 0.76359 0.86675 0.0
H3363 H 0.63901 0.68053 0.84946 0.0
H3364 H 0.64334 0.7121 0.85282 0.0
H3365 H 0.63303 0.74121 0.84998 0.0
H3366 H 0.6629 0.82433 0.87402 0.0
H3367 H 0.66053 0.79243 0.8704 0.0
H3368 H 0.63025 0.76357 0.91105 0.0
C3369 C 0.63353 0.70571 0.86087 0.0
C3370 C 0.63259 0.74581 0.86342 0.0
C3371 C 0.63103 0.68755 0.85889 0.0
C3372 C 0.65282 0.81731 0.8812 0.0
C3373 C 0.65132 0.79906 0.87895 0.0
C3374 C 0.63088 0.75886 0.89765 0.0
C3375 C 0.62427 0.71522 0.87377 0.0
C3376 C 0.62809 0.73428 0.87716 0.0
C3377 C 0.63784 0.78956 0.88733 0.0
C3378 C 0.63518 0.77039 0.8839 0.0
H3379 H 0.60027 0.68136 0.89074 0.0
H3380 H 0.60399 0.71297 0.89368 0.0
H3381 H 0.62455 0.73265 0.90541 0.0
H3382 H 0.61808 0.82358 0.90864 0.0
H3383 H 0.61572 0.79187 0.90509 0.0
C3384 C 0.90397 0.63586 0.81619 0.0
C3385 C 0.88934 0.64105 0.82615 0.0
C3386 C 0.90269 0.63392 0.79789 0.0
C3387 C 0.89348 0.619 0.76198 0.0
H3388 H 0.86273 0.64783 0.73353 0.0
C3389 C 0.89211 0.61588 0.68599 0.0
C3390 C 0.87583 0.61712 0.67737 0.0
C3391 C 0.89334 0.61801 0.70419 0.0
C3392 C 0.8712 0.63951 0.74133 0.0
H3393 H 0.86207 0.64899 0.82449 0.0
H3394 H 0.85975 0.64542 0.79293 0.0
H3395 H 0.86671 0.65471 0.76453 0.0
H3396 H 0.848 0.62125 0.68124 0.0
H3397 H 0.85013 0.62509 0.71318 0.0
H3398 H 0.8982 0.60403 0.73862 0.0
C3399 C 0.87234 0.64304 0.79904 0.0
C3400 C 0.87353 0.64346 0.75916 0.0
C3401 C 0.87367 0.64507 0.81726 0.0
C3402 C 0.8607 0.62006 0.6875 0.0
C3403 C 0.86196 0.62245 0.70576 0.0
C3404 C 0.89127 0.61515 0.74412 0.0
C3405 C 0.8867 0.63703 0.78907 0.0
C3406 C 0.8847 0.63326 0.76981 0.0
C3407 C 0.87836 0.62168 0.71431 0.0
C3408 C 0.8801 0.62534 0.73353 0.0
H3409 H 0.91622 0.63259 0.8226 0.0
H3410 H 0.91418 0.62966 0.79071 0.0
H3411 H 0.90187 0.61054 0.7697 0.0
H3412 H 0.90404 0.6137 0.67858 0.0
H3413 H 0.90619 0.61746 0.71024 0.0
C3414 C 0.88103 0.40243 0.31466 0.0
C3415 C 0.86808 0.39322 0.32406 0.0
C3416 C 0.8827 0.40036 0.29646 0.0
C3417 C 0.87499 0.36789 0.26179 0.0
H3418 H 0.88379 0.40661 0.23004 0.0
C3419 C 0.88024 0.35836 0.18612 0.0
C3420 C 0.89061 0.37014 0.17642 0.0
C3421 C 0.87789 0.36064 0.20425 0.0
C3422 C 0.88169 0.39555 0.23871 0.0
H3423 H 0.84639 0.37497 0.32159 0.0
H3424 H 0.84939 0.37127 0.28978 0.0
H3425 H 0.87788 0.41247 0.26089 0.0
H3426 H 0.90752 0.39291 0.17835 0.0
H3427 H 0.90426 0.39636 0.20995 0.0
H3428 H 0.87928 0.35089 0.23983 0.0
C3429 C 0.85823 0.38012 0.29653 0.0
C3430 C 0.87814 0.39898 0.25643 0.0
C3431 C 0.85637 0.38242 0.31472 0.0
C3432 C 0.89942 0.38361 0.18543 0.0
C3433 C 0.8973 0.38574 0.20357 0.0
C3434 C 0.87878 0.36443 0.2441 0.0
C3435 C 0.87165 0.3888 0.28724 0.0
C3436 C 0.87474 0.3852 0.2682 0.0
C3437 C 0.88603 0.37466 0.21321 0.0
C3438 C 0.88223 0.37821 0.23224 0.0
H3439 H 0.89034 0.41073 0.32148 0.0
H3440 H 0.89321 0.40719 0.28975 0.0
H3441 H 0.87269 0.35694 0.27057 0.0
H3442 H 0.87306 0.34799 0.17954 0.0
H3443 H 0.86899 0.35187 0.21103 0.0
C3444 C 0.10204 0.3681 0.81522 0.0
C3445 C 0.11583 0.36035 0.8247 0.0
C3446 C 0.10331 0.37038 0.79697 0.0
C3447 C 0.12971 0.35765 0.75727 0.0
H3448 H 0.11141 0.40133 0.73873 0.0
C3449 C 0.14413 0.38062 0.68585 0.0
C3450 C 0.12947 0.38651 0.67633 0.0
C3451 C 0.14302 0.378 0.70408 0.0
C3452 C 0.11652 0.38902 0.74365 0.0
H3453 H 0.14146 0.34829 0.82225 0.0
H3454 H 0.14377 0.35241 0.79069 0.0
H3455 H 0.10754 0.39444 0.7697 0.0
H3456 H 0.10242 0.39497 0.67864 0.0
H3457 H 0.10061 0.39077 0.71027 0.0
H3458 H 0.13889 0.35242 0.73117 0.0
C3459 C 0.13183 0.35655 0.79718 0.0
C3460 C 0.11419 0.38498 0.76145 0.0
C3461 C 0.13051 0.35418 0.81537 0.0
C3462 C 0.11399 0.39049 0.68557 0.0
C3463 C 0.11295 0.38809 0.70375 0.0
C3464 C 0.13215 0.36177 0.73948 0.0
C3465 C 0.11845 0.3651 0.78773 0.0
C3466 C 0.12067 0.36919 0.76856 0.0
C3467 C 0.12731 0.38145 0.71323 0.0
C3468 C 0.12553 0.37748 0.7324 0.0
H3469 H 0.09056 0.37305 0.82197 0.0
H3470 H 0.09252 0.37663 0.79018 0.0
H3471 H 0.1347 0.34526 0.76208 0.0
H3472 H 0.15619 0.37728 0.67911 0.0
H3473 H 0.1544 0.37305 0.71099 0.0
C3474 C 0.15016 0.62152 0.31546 0.0
C3475 C 0.13734 0.61218 0.32491 0.0
C3476 C 0.14862 0.6237 0.29721 0.0
C3477 C 0.12678 0.60615 0.25745 0.0
H3478 H 0.13117 0.65357 0.23951 0.0
C3479 C 0.10626 0.62208 0.18642 0.0
C3480 C 0.11649 0.63406 0.17683 0.0
C3481 C 0.10848 0.62021 0.20458 0.0
C3482 C 0.13011 0.64019 0.24417 0.0
H3483 H 0.11332 0.59713 0.3225 0.0
H3484 H 0.11095 0.60044 0.29074 0.0
H3485 H 0.1372 0.64763 0.2704 0.0
H3486 H 0.13673 0.65392 0.17895 0.0
H3487 H 0.14092 0.65047 0.2105 0.0
H3488 H 0.12004 0.59853 0.23132 0.0
C3489 C 0.12212 0.60621 0.29737 0.0
C3490 C 0.13359 0.63679 0.26194 0.0
C3491 C 0.12349 0.60429 0.3156 0.0
C3492 C 0.12846 0.64472 0.18598 0.0
C3493 C 0.13088 0.64269 0.20414 0.0
C3494 C 0.1235 0.60949 0.23966 0.0
C3495 C 0.1344 0.61632 0.28799 0.0
C3496 C 0.13181 0.61975 0.26884 0.0
C3497 C 0.12124 0.63006 0.21366 0.0
C3498 C 0.12492 0.6266 0.23273 0.0
H3499 H 0.16086 0.62794 0.32226 0.0
H3500 H 0.1584 0.63141 0.29036 0.0
H3501 H 0.12548 0.59284 0.26226 0.0
H3502 H 0.0969 0.61368 0.17979 0.0
H3503 H 0.10039 0.61073 0.21141 0.0
loop_
_geom_bond_atom_site_label_1
_geom_bond_atom_site_label_2
_geom_bond_distance
_geom_bond_site_symmetry_2
_ccdc_geom_bond_type
In0 O1 2.294 . S
In0 O2 2.326 . S
In0 O6 2.266 . S
In0 O7 2.326 . S
In0 O8 2.266 . S
In0 O9 2.326 . S
In0 O11 2.294 . S
In0 O12 2.326 . S
O1 In0 2.294 . S
O1 C10 1.240 . S
O2 In0 2.326 . S
O2 C10 1.252 . S
C3 O6 1.252 . S
C3 O7 1.260 . S
C4 O11 1.240 . S
C4 O12 1.252 . S
C5 O8 1.252 . S
C5 O9 1.260 . S
O6 In0 2.266 . S
O6 C3 1.252 . S
O7 In0 2.326 . S
O7 C3 1.260 . S
O8 In0 2.266 . S
O8 C5 1.252 . S
O9 In0 2.326 . S
O9 C5 1.260 . S
C10 O1 1.240 . S
C10 O2 1.252 . S
O11 In0 2.294 . S
O11 C4 1.240 . S
O12 In0 2.326 . S
O12 C4 1.252 . S
In13 O14 2.294 . S
In13 O15 2.326 . S
In13 O19 2.266 . S
In13 O20 2.326 . S
In13 O21 2.266 . S
In13 O22 2.326 . S
In13 O24 2.294 . S
In13 O25 2.326 . S
O14 In13 2.294 . S
O14 C23 1.240 . S
O15 In13 2.326 . S
O15 C23 1.252 . S
C16 O19 1.252 . S
C16 O20 1.260 . S
C17 O24 1.240 . S
C17 O25 1.252 . S
C18 O21 1.252 . S
C18 O22 1.260 . S
O19 In13 2.266 . S
O19 C16 1.252 . S
O20 In13 2.326 . S
O20 C16 1.260 . S
O21 In13 2.266 . S
O21 C18 1.252 . S
O22 In13 2.326 . S
O22 C18 1.260 . S
C23 O14 1.240 . S
C23 O15 1.252 . S
O24 In13 2.294 . S
O24 C17 1.240 . S
O25 In13 2.326 . S
O25 C17 1.252 . S
In26 O27 2.294 . S
In26 O28 2.326 . S
In26 O32 2.266 . S
In26 O33 2.326 . S
In26 O34 2.266 . S
In26 O35 2.326 . S
In26 O37 2.294 . S
In26 O38 2.326 . S
O27 In26 2.294 . S
O27 C36 1.240 . S
O28 In26 2.326 . S
O28 C36 1.252 . S
C29 O32 1.252 . S
C29 O33 1.260 . S
C30 O37 1.240 . S
C30 O38 1.252 . S
C31 O34 1.252 . S
C31 O35 1.260 . S
O32 In26 2.266 . S
O32 C29 1.252 . S
O33 In26 2.326 . S
O33 C29 1.260 . S
O34 In26 2.266 . S
O34 C31 1.252 . S
O35 In26 2.326 . S
O35 C31 1.260 . S
C36 O27 1.240 . S
C36 O28 1.252 . S
O37 In26 2.294 . S
O37 C30 1.240 . S
O38 In26 2.326 . S
O38 C30 1.252 . S
In39 O40 2.294 . S
In39 O41 2.326 . S
In39 O45 2.266 . S
In39 O46 2.326 . S
In39 O47 2.266 . S
In39 O48 2.326 . S
In39 O50 2.294 . S
In39 O51 2.326 . S
O40 In39 2.294 . S
O40 C49 1.240 . S
O41 In39 2.326 . S
O41 C49 1.252 . S
C42 O45 1.252 . S
C42 O46 1.260 . S
C43 O50 1.240 . S
C43 O51 1.252 . S
C44 O47 1.252 . S
C44 O48 1.260 . S
O45 In39 2.266 . S
O45 C42 1.252 . S
O46 In39 2.326 . S
O46 C42 1.260 . S
O47 In39 2.266 . S
O47 C44 1.252 . S
O48 In39 2.326 . S
O48 C44 1.260 . S
C49 O40 1.240 . S
C49 O41 1.252 . S
O50 In39 2.294 . S
O50 C43 1.240 . S
O51 In39 2.326 . S
O51 C43 1.252 . S
In52 O53 2.294 . S
In52 O54 2.326 . S
In52 O58 2.266 . S
In52 O59 2.326 . S
In52 O60 2.266 . S
In52 O61 2.326 . S
In52 O63 2.294 . S
In52 O64 2.326 . S
O53 In52 2.294 . S
O53 C62 1.240 . S
O54 In52 2.326 . S
O54 C62 1.252 . S
C55 O58 1.252 . S
C55 O59 1.260 . S
C56 O63 1.240 . S
C56 O64 1.252 . S
C57 O60 1.252 . S
C57 O61 1.260 . S
O58 In52 2.266 . S
O58 C55 1.252 . S
O59 In52 2.326 . S
O59 C55 1.260 . S
O60 In52 2.266 . S
O60 C57 1.252 . S
O61 In52 2.326 . S
O61 C57 1.260 . S
C62 O53 1.240 . S
C62 O54 1.252 . S
O63 In52 2.294 . S
O63 C56 1.240 . S
O64 In52 2.326 . S
O64 C56 1.252 . S
In65 O66 2.294 . S
In65 O67 2.326 . S
In65 O71 2.266 . S
In65 O72 2.326 . S
In65 O73 2.266 . S
In65 O74 2.326 . S
In65 O76 2.294 . S
In65 O77 2.326 . S
O66 In65 2.294 . S
O66 C75 1.240 . S
O67 In65 2.326 . S
O67 C75 1.252 . S
C68 O71 1.252 . S
C68 O72 1.260 . S
C69 O76 1.240 . S
C69 O77 1.252 . S
C70 O73 1.252 . S
C70 O74 1.260 . S
O71 In65 2.266 . S
O71 C68 1.252 . S
O72 In65 2.326 . S
O72 C68 1.260 . S
O73 In65 2.266 . S
O73 C70 1.252 . S
O74 In65 2.326 . S
O74 C70 1.260 . S
C75 O66 1.240 . S
C75 O67 1.252 . S
O76 In65 2.294 . S
O76 C69 1.240 . S
O77 In65 2.326 . S
O77 C69 1.252 . S
In78 O79 2.294 . S
In78 O80 2.326 . S
In78 O84 2.266 . S
In78 O85 2.326 . S
In78 O86 2.266 . S
In78 O87 2.326 . S
In78 O89 2.294 . S
In78 O90 2.326 . S
O79 In78 2.294 . S
O79 C88 1.240 . S
O80 In78 2.326 . S
O80 C88 1.252 . S
C81 O84 1.252 . S
C81 O85 1.260 . S
C82 O89 1.240 . S
C82 O90 1.252 . S
C83 O86 1.252 . S
C83 O87 1.260 . S
O84 In78 2.266 . S
O84 C81 1.252 . S
O85 In78 2.326 . S
O85 C81 1.260 . S
O86 In78 2.266 . S
O86 C83 1.252 . S
O87 In78 2.326 . S
O87 C83 1.260 . S
C88 O79 1.240 . S
C88 O80 1.252 . S
O89 In78 2.294 . S
O89 C82 1.240 . S
O90 In78 2.326 . S
O90 C82 1.252 . S
In91 O92 2.294 . S
In91 O93 2.326 . S
In91 O97 2.266 . S
In91 O98 2.326 . S
In91 O99 2.266 . S
In91 O100 2.326 . S
In91 O102 2.294 . S
In91 O103 2.326 . S
O92 In91 2.294 . S
O92 C101 1.240 . S
O93 In91 2.326 . S
O93 C101 1.252 . S
C94 O97 1.252 . S
C94 O98 1.260 . S
C95 O102 1.240 . S
C95 O103 1.252 . S
C96 O99 1.252 . S
C96 O100 1.260 . S
O97 In91 2.266 . S
O97 C94 1.252 . S
O98 In91 2.326 . S
O98 C94 1.260 . S
O99 In91 2.266 . S
O99 C96 1.252 . S
O100 In91 2.326 . S
O100 C96 1.260 . S
C101 O92 1.240 . S
C101 O93 1.252 . S
O102 In91 2.294 . S
O102 C95 1.240 . S
O103 In91 2.326 . S
O103 C95 1.252 . S
In104 O105 2.294 . S
In104 O106 2.326 . S
In104 O110 2.266 . S
In104 O111 2.326 . S
In104 O112 2.266 . S
In104 O113 2.326 . S
In104 O115 2.294 . S
In104 O116 2.326 . S
O105 In104 2.294 . S
O105 C114 1.240 . S
O106 In104 2.326 . S
O106 C114 1.252 . S
C107 O110 1.252 . S
C107 O111 1.260 . S
C108 O115 1.240 . S
C108 O116 1.252 . S
C109 O112 1.252 . S
C109 O113 1.260 . S
O110 In104 2.266 . S
O110 C107 1.252 . S
O111 In104 2.326 . S
O111 C107 1.260 . S
O112 In104 2.266 . S
O112 C109 1.252 . S
O113 In104 2.326 . S
O113 C109 1.260 . S
C114 O105 1.240 . S
C114 O106 1.252 . S
O115 In104 2.294 . S
O115 C108 1.240 . S
O116 In104 2.326 . S
O116 C108 1.252 . S
In117 O118 2.294 . S
In117 O119 2.326 . S
In117 O123 2.266 . S
In117 O124 2.326 . S
In117 O125 2.266 . S
In117 O126 2.326 . S
In117 O128 2.294 . S
In117 O129 2.326 . S
O118 In117 2.294 . S
O118 C127 1.240 . S
O119 In117 2.326 . S
O119 C127 1.252 . S
C120 O123 1.252 . S
C120 O124 1.260 . S
C121 O128 1.240 . S
C121 O129 1.252 . S
C122 O125 1.252 . S
C122 O126 1.260 . S
O123 In117 2.266 . S
O123 C120 1.252 . S
O124 In117 2.326 . S
O124 C120 1.260 . S
O125 In117 2.266 . S
O125 C122 1.252 . S
O126 In117 2.326 . S
O126 C122 1.260 . S
C127 O118 1.240 . S
C127 O119 1.252 . S
O128 In117 2.294 . S
O128 C121 1.240 . S
O129 In117 2.326 . S
O129 C121 1.252 . S
In130 O131 2.294 . S
In130 O132 2.326 . S
In130 O136 2.266 . S
In130 O137 2.326 . S
In130 O138 2.266 . S
In130 O139 2.326 . S
In130 O141 2.294 . S
In130 O142 2.326 . S
O131 In130 2.294 . S
O131 C140 1.240 . S
O132 In130 2.326 . S
O132 C140 1.252 . S
C133 O136 1.252 . S
C133 O137 1.260 . S
C134 O141 1.240 . S
C134 O142 1.252 . S
C135 O138 1.252 . S
C135 O139 1.260 . S
O136 In130 2.266 . S
O136 C133 1.252 . S
O137 In130 2.326 . S
O137 C133 1.260 . S
O138 In130 2.266 . S
O138 C135 1.252 . S
O139 In130 2.326 . S
O139 C135 1.260 . S
C140 O131 1.240 . S
C140 O132 1.252 . S
O141 In130 2.294 . S
O141 C134 1.240 . S
O142 In130 2.326 . S
O142 C134 1.252 . S
In143 O144 2.294 . S
In143 O145 2.326 . S
In143 O149 2.266 . S
In143 O150 2.326 . S
In143 O151 2.266 . S
In143 O152 2.326 . S
In143 O154 2.294 . S
In143 O155 2.326 . S
O144 In143 2.294 . S
O144 C153 1.240 . S
O145 In143 2.326 . S
O145 C153 1.252 . S
C146 O149 1.252 . S
C146 O150 1.260 . S
C147 O154 1.240 . S
C147 O155 1.252 . S
C148 O151 1.252 . S
C148 O152 1.260 . S
O149 In143 2.266 . S
O149 C146 1.252 . S
O150 In143 2.326 . S
O150 C146 1.260 . S
O151 In143 2.266 . S
O151 C148 1.252 . S
O152 In143 2.326 . S
O152 C148 1.260 . S
C153 O144 1.240 . S
C153 O145 1.252 . S
O154 In143 2.294 . S
O154 C147 1.240 . S
O155 In143 2.326 . S
O155 C147 1.252 . S
In156 O157 2.294 . S
In156 O158 2.326 . S
In156 O162 2.266 . S
In156 O163 2.326 . S
In156 O164 2.266 . S
In156 O165 2.326 . S
In156 O167 2.294 . S
In156 O168 2.326 . S
O157 In156 2.294 . S
O157 C166 1.240 . S
O158 In156 2.326 . S
O158 C166 1.252 . S
C159 O162 1.252 . S
C159 O163 1.260 . S
C160 O167 1.240 . S
C160 O168 1.252 . S
C161 O164 1.252 . S
C161 O165 1.260 . S
O162 In156 2.266 . S
O162 C159 1.252 . S
O163 In156 2.326 . S
O163 C159 1.260 . S
O164 In156 2.266 . S
O164 C161 1.252 . S
O165 In156 2.326 . S
O165 C161 1.260 . S
C166 O157 1.240 . S
C166 O158 1.252 . S
O167 In156 2.294 . S
O167 C160 1.240 . S
O168 In156 2.326 . S
O168 C160 1.252 . S
In169 O170 2.294 . S
In169 O171 2.326 . S
In169 O175 2.266 . S
In169 O176 2.326 . S
In169 O177 2.266 . S
In169 O178 2.326 . S
In169 O180 2.294 . S
In169 O181 2.326 . S
O170 In169 2.294 . S
O170 C179 1.240 . S
O171 In169 2.326 . S
O171 C179 1.252 . S
C172 O175 1.252 . S
C172 O176 1.260 . S
C173 O180 1.240 . S
C173 O181 1.252 . S
C174 O177 1.252 . S
C174 O178 1.260 . S
O175 In169 2.266 . S
O175 C172 1.252 . S
O176 In169 2.326 . S
O176 C172 1.260 . S
O177 In169 2.266 . S
O177 C174 1.252 . S
O178 In169 2.326 . S
O178 C174 1.260 . S
C179 O170 1.240 . S
C179 O171 1.252 . S
O180 In169 2.294 . S
O180 C173 1.240 . S
O181 In169 2.326 . S
O181 C173 1.252 . S
In182 O183 2.294 . S
In182 O184 2.326 . S
In182 O188 2.266 . S
In182 O189 2.326 . S
In182 O190 2.266 . S
In182 O191 2.326 . S
In182 O193 2.294 . S
In182 O194 2.326 . S
O183 In182 2.294 . S
O183 C192 1.240 . S
O184 In182 2.326 . S
O184 C192 1.252 . S
C185 O188 1.252 . S
C185 O189 1.260 . S
C186 O193 1.240 . S
C186 O194 1.252 . S
C187 O190 1.252 . S
C187 O191 1.260 . S
O188 In182 2.266 . S
O188 C185 1.252 . S
O189 In182 2.326 . S
O189 C185 1.260 . S
O190 In182 2.266 . S
O190 C187 1.252 . S
O191 In182 2.326 . S
O191 C187 1.260 . S
C192 O183 1.240 . S
C192 O184 1.252 . S
O193 In182 2.294 . S
O193 C186 1.240 . S
O194 In182 2.326 . S
O194 C186 1.252 . S
In195 O196 2.294 . S
In195 O197 2.326 . S
In195 O201 2.266 . S
In195 O202 2.326 . S
In195 O203 2.266 . S
In195 O204 2.326 . S
In195 O206 2.294 . S
In195 O207 2.326 . S
O196 In195 2.294 . S
O196 C205 1.240 . S
O197 In195 2.326 . S
O197 C205 1.252 . S
C198 O201 1.252 . S
C198 O202 1.260 . S
C199 O206 1.240 . S
C199 O207 1.252 . S
C200 O203 1.252 . S
C200 O204 1.260 . S
O201 In195 2.266 . S
O201 C198 1.252 . S
O202 In195 2.326 . S
O202 C198 1.260 . S
O203 In195 2.266 . S
O203 C200 1.252 . S
O204 In195 2.326 . S
O204 C200 1.260 . S
C205 O196 1.240 . S
C205 O197 1.252 . S
O206 In195 2.294 . S
O206 C199 1.240 . S
O207 In195 2.326 . S
O207 C199 1.252 . S
In208 O209 2.294 . S
In208 O210 2.326 . S
In208 O214 2.266 . S
In208 O215 2.326 . S
In208 O216 2.266 . S
In208 O217 2.326 . S
In208 O219 2.294 . S
In208 O220 2.326 . S
O209 In208 2.294 . S
O209 C218 1.240 . S
O210 In208 2.326 . S
O210 C218 1.252 . S
C211 O214 1.252 . S
C211 O215 1.260 . S
C212 O219 1.240 . S
C212 O220 1.252 . S
C213 O216 1.252 . S
C213 O217 1.260 . S
O214 In208 2.266 . S
O214 C211 1.252 . S
O215 In208 2.326 . S
O215 C211 1.260 . S
O216 In208 2.266 . S
O216 C213 1.252 . S
O217 In208 2.326 . S
O217 C213 1.260 . S
C218 O209 1.240 . S
C218 O210 1.252 . S
O219 In208 2.294 . S
O219 C212 1.240 . S
O220 In208 2.326 . S
O220 C212 1.252 . S
In221 O222 2.294 . S
In221 O223 2.326 . S
In221 O227 2.266 . S
In221 O228 2.326 . S
In221 O229 2.266 . S
In221 O230 2.326 . S
In221 O232 2.294 . S
In221 O233 2.326 . S
O222 In221 2.294 . S
O222 C231 1.240 . S
O223 In221 2.326 . S
O223 C231 1.252 . S
C224 O227 1.252 . S
C224 O228 1.260 . S
C225 O232 1.240 . S
C225 O233 1.252 . S
C226 O229 1.252 . S
C226 O230 1.260 . S
O227 In221 2.266 . S
O227 C224 1.252 . S
O228 In221 2.326 . S
O228 C224 1.260 . S
O229 In221 2.266 . S
O229 C226 1.252 . S
O230 In221 2.326 . S
O230 C226 1.260 . S
C231 O222 1.240 . S
C231 O223 1.252 . S
O232 In221 2.294 . S
O232 C225 1.240 . S
O233 In221 2.326 . S
O233 C225 1.252 . S
In234 O235 2.294 . S
In234 O236 2.326 . S
In234 O240 2.266 . S
In234 O241 2.326 . S
In234 O242 2.266 . S
In234 O243 2.326 . S
In234 O245 2.294 . S
In234 O246 2.326 . S
O235 In234 2.294 . S
O235 C244 1.240 . S
O236 In234 2.326 . S
O236 C244 1.252 . S
C237 O240 1.252 . S
C237 O241 1.260 . S
C238 O245 1.240 . S
C238 O246 1.252 . S
C239 O242 1.252 . S
C239 O243 1.260 . S
O240 In234 2.266 . S
O240 C237 1.252 . S
O241 In234 2.326 . S
O241 C237 1.260 . S
O242 In234 2.266 . S
O242 C239 1.252 . S
O243 In234 2.326 . S
O243 C239 1.260 . S
C244 O235 1.240 . S
C244 O236 1.252 . S
O245 In234 2.294 . S
O245 C238 1.240 . S
O246 In234 2.326 . S
O246 C238 1.252 . S
In247 O248 2.294 . S
In247 O249 2.326 . S
In247 O253 2.266 . S
In247 O254 2.326 . S
In247 O255 2.266 . S
In247 O256 2.326 . S
In247 O258 2.294 . S
In247 O259 2.326 . S
O248 In247 2.294 . S
O248 C257 1.240 . S
O249 In247 2.326 . S
O249 C257 1.252 . S
C250 O253 1.252 . S
C250 O254 1.260 . S
C251 O258 1.240 . S
C251 O259 1.252 . S
C252 O255 1.252 . S
C252 O256 1.260 . S
O253 In247 2.266 . S
O253 C250 1.252 . S
O254 In247 2.326 . S
O254 C250 1.260 . S
O255 In247 2.266 . S
O255 C252 1.252 . S
O256 In247 2.326 . S
O256 C252 1.260 . S
C257 O248 1.240 . S
C257 O249 1.252 . S
O258 In247 2.294 . S
O258 C251 1.240 . S
O259 In247 2.326 . S
O259 C251 1.252 . S
In260 O261 2.294 . S
In260 O262 2.326 . S
In260 O266 2.266 . S
In260 O267 2.326 . S
In260 O268 2.266 . S
In260 O269 2.326 . S
In260 O271 2.294 . S
In260 O272 2.326 . S
O261 In260 2.294 . S
O261 C270 1.240 . S
O262 In260 2.326 . S
O262 C270 1.252 . S
C263 O266 1.252 . S
C263 O267 1.260 . S
C264 O271 1.240 . S
C264 O272 1.252 . S
C265 O268 1.252 . S
C265 O269 1.260 . S
O266 In260 2.266 . S
O266 C263 1.252 . S
O267 In260 2.326 . S
O267 C263 1.260 . S
O268 In260 2.266 . S
O268 C265 1.252 . S
O269 In260 2.326 . S
O269 C265 1.260 . S
C270 O261 1.240 . S
C270 O262 1.252 . S
O271 In260 2.294 . S
O271 C264 1.240 . S
O272 In260 2.326 . S
O272 C264 1.252 . S
In273 O274 2.294 . S
In273 O275 2.326 . S
In273 O279 2.266 . S
In273 O280 2.326 . S
In273 O281 2.266 . S
In273 O282 2.326 . S
In273 O284 2.294 . S
In273 O285 2.326 . S
O274 In273 2.294 . S
O274 C283 1.240 . S
O275 In273 2.326 . S
O275 C283 1.252 . S
C276 O279 1.252 . S
C276 O280 1.260 . S
C277 O284 1.240 . S
C277 O285 1.252 . S
C278 O281 1.252 . S
C278 O282 1.260 . S
O279 In273 2.266 . S
O279 C276 1.252 . S
O280 In273 2.326 . S
O280 C276 1.260 . S
O281 In273 2.266 . S
O281 C278 1.252 . S
O282 In273 2.326 . S
O282 C278 1.260 . S
C283 O274 1.240 . S
C283 O275 1.252 . S
O284 In273 2.294 . S
O284 C277 1.240 . S
O285 In273 2.326 . S
O285 C277 1.252 . S
In286 O287 2.294 . S
In286 O288 2.326 . S
In286 O292 2.266 . S
In286 O293 2.326 . S
In286 O294 2.266 . S
In286 O295 2.326 . S
In286 O297 2.294 . S
In286 O298 2.326 . S
O287 In286 2.294 . S
O287 C296 1.240 . S
O288 In286 2.326 . S
O288 C296 1.252 . S
C289 O292 1.252 . S
C289 O293 1.260 . S
C290 O297 1.240 . S
C290 O298 1.252 . S
C291 O294 1.252 . S
C291 O295 1.260 . S
O292 In286 2.266 . S
O292 C289 1.252 . S
O293 In286 2.326 . S
O293 C289 1.260 . S
O294 In286 2.266 . S
O294 C291 1.252 . S
O295 In286 2.326 . S
O295 C291 1.260 . S
C296 O287 1.240 . S
C296 O288 1.252 . S
O297 In286 2.294 . S
O297 C290 1.240 . S
O298 In286 2.326 . S
O298 C290 1.252 . S
In299 O300 2.294 . S
In299 O301 2.326 . S
In299 O305 2.266 . S
In299 O306 2.326 . S
In299 O307 2.266 . S
In299 O308 2.326 . S
In299 O310 2.294 . S
In299 O311 2.326 . S
O300 In299 2.294 . S
O300 C309 1.240 . S
O301 In299 2.326 . S
O301 C309 1.252 . S
C302 O305 1.252 . S
C302 O306 1.260 . S
C303 O310 1.240 . S
C303 O311 1.252 . S
C304 O307 1.252 . S
C304 O308 1.260 . S
O305 In299 2.266 . S
O305 C302 1.252 . S
O306 In299 2.326 . S
O306 C302 1.260 . S
O307 In299 2.266 . S
O307 C304 1.252 . S
O308 In299 2.326 . S
O308 C304 1.260 . S
C309 O300 1.240 . S
C309 O301 1.252 . S
O310 In299 2.294 . S
O310 C303 1.240 . S
O311 In299 2.326 . S
O311 C303 1.252 . S
In312 O313 2.294 . S
In312 O314 2.326 . S
In312 O318 2.266 . S
In312 O319 2.326 . S
In312 O320 2.266 . S
In312 O321 2.326 . S
In312 O323 2.294 . S
In312 O324 2.326 . S
O313 In312 2.294 . S
O313 C322 1.240 . S
O314 In312 2.326 . S
O314 C322 1.252 . S
C315 O318 1.252 . S
C315 O319 1.260 . S
C316 O323 1.240 . S
C316 O324 1.252 . S
C317 O320 1.252 . S
C317 O321 1.260 . S
O318 In312 2.266 . S
O318 C315 1.252 . S
O319 In312 2.326 . S
O319 C315 1.260 . S
O320 In312 2.266 . S
O320 C317 1.252 . S
O321 In312 2.326 . S
O321 C317 1.260 . S
C322 O313 1.240 . S
C322 O314 1.252 . S
O323 In312 2.294 . S
O323 C316 1.240 . S
O324 In312 2.326 . S
O324 C316 1.252 . S
In325 O326 2.294 . S
In325 O327 2.326 . S
In325 O331 2.266 . S
In325 O332 2.326 . S
In325 O333 2.266 . S
In325 O334 2.326 . S
In325 O336 2.294 . S
In325 O337 2.326 . S
O326 In325 2.294 . S
O326 C335 1.240 . S
O327 In325 2.326 . S
O327 C335 1.252 . S
C328 O331 1.252 . S
C328 O332 1.260 . S
C329 O336 1.240 . S
C329 O337 1.252 . S
C330 O333 1.252 . S
C330 O334 1.260 . S
O331 In325 2.266 . S
O331 C328 1.252 . S
O332 In325 2.326 . S
O332 C328 1.260 . S
O333 In325 2.266 . S
O333 C330 1.252 . S
O334 In325 2.326 . S
O334 C330 1.260 . S
C335 O326 1.240 . S
C335 O327 1.252 . S
O336 In325 2.294 . S
O336 C329 1.240 . S
O337 In325 2.326 . S
O337 C329 1.252 . S
In338 O339 2.294 . S
In338 O340 2.326 . S
In338 O344 2.266 . S
In338 O345 2.326 . S
In338 O346 2.266 . S
In338 O347 2.326 . S
In338 O349 2.294 . S
In338 O350 2.326 . S
O339 In338 2.294 . S
O339 C348 1.240 . S
O340 In338 2.326 . S
O340 C348 1.252 . S
C341 O344 1.252 . S
C341 O345 1.260 . S
C342 O349 1.240 . S
C342 O350 1.252 . S
C343 O346 1.252 . S
C343 O347 1.260 . S
O344 In338 2.266 . S
O344 C341 1.252 . S
O345 In338 2.326 . S
O345 C341 1.260 . S
O346 In338 2.266 . S
O346 C343 1.252 . S
O347 In338 2.326 . S
O347 C343 1.260 . S
C348 O339 1.240 . S
C348 O340 1.252 . S
O349 In338 2.294 . S
O349 C342 1.240 . S
O350 In338 2.326 . S
O350 C342 1.252 . S
In351 O352 2.294 . S
In351 O353 2.326 . S
In351 O357 2.266 . S
In351 O358 2.326 . S
In351 O359 2.266 . S
In351 O360 2.326 . S
In351 O362 2.294 . S
In351 O363 2.326 . S
O352 In351 2.294 . S
O352 C361 1.240 . S
O353 In351 2.326 . S
O353 C361 1.252 . S
C354 O357 1.252 . S
C354 O358 1.260 . S
C355 O362 1.240 . S
C355 O363 1.252 . S
C356 O359 1.252 . S
C356 O360 1.260 . S
O357 In351 2.266 . S
O357 C354 1.252 . S
O358 In351 2.326 . S
O358 C354 1.260 . S
O359 In351 2.266 . S
O359 C356 1.252 . S
O360 In351 2.326 . S
O360 C356 1.260 . S
C361 O352 1.240 . S
C361 O353 1.252 . S
O362 In351 2.294 . S
O362 C355 1.240 . S
O363 In351 2.326 . S
O363 C355 1.252 . S
In364 O365 2.294 . S
In364 O366 2.326 . S
In364 O370 2.266 . S
In364 O371 2.326 . S
In364 O372 2.266 . S
In364 O373 2.326 . S
In364 O375 2.294 . S
In364 O376 2.326 . S
O365 In364 2.294 . S
O365 C374 1.240 . S
O366 In364 2.326 . S
O366 C374 1.252 . S
C367 O370 1.252 . S
C367 O371 1.260 . S
C368 O375 1.240 . S
C368 O376 1.252 . S
C369 O372 1.252 . S
C369 O373 1.260 . S
O370 In364 2.266 . S
O370 C367 1.252 . S
O371 In364 2.326 . S
O371 C367 1.260 . S
O372 In364 2.266 . S
O372 C369 1.252 . S
O373 In364 2.326 . S
O373 C369 1.260 . S
C374 O365 1.240 . S
C374 O366 1.252 . S
O375 In364 2.294 . S
O375 C368 1.240 . S
O376 In364 2.326 . S
O376 C368 1.252 . S
In377 O378 2.294 . S
In377 O379 2.326 . S
In377 O383 2.266 . S
In377 O384 2.326 . S
In377 O385 2.266 . S
In377 O386 2.326 . S
In377 O388 2.294 . S
In377 O389 2.326 . S
O378 In377 2.294 . S
O378 C387 1.240 . S
O379 In377 2.326 . S
O379 C387 1.252 . S
C380 O383 1.252 . S
C380 O384 1.260 . S
C381 O388 1.240 . S
C381 O389 1.252 . S
C382 O385 1.252 . S
C382 O386 1.260 . S
O383 In377 2.266 . S
O383 C380 1.252 . S
O384 In377 2.326 . S
O384 C380 1.260 . S
O385 In377 2.266 . S
O385 C382 1.252 . S
O386 In377 2.326 . S
O386 C382 1.260 . S
C387 O378 1.240 . S
C387 O379 1.252 . S
O388 In377 2.294 . S
O388 C381 1.240 . S
O389 In377 2.326 . S
O389 C381 1.252 . S
In390 O391 2.294 . S
In390 O392 2.326 . S
In390 O396 2.266 . S
In390 O397 2.326 . S
In390 O398 2.266 . S
In390 O399 2.326 . S
In390 O401 2.294 . S
In390 O402 2.326 . S
O391 In390 2.294 . S
O391 C400 1.240 . S
O392 In390 2.326 . S
O392 C400 1.252 . S
C393 O396 1.252 . S
C393 O397 1.260 . S
C394 O401 1.240 . S
C394 O402 1.252 . S
C395 O398 1.252 . S
C395 O399 1.260 . S
O396 In390 2.266 . S
O396 C393 1.252 . S
O397 In390 2.326 . S
O397 C393 1.260 . S
O398 In390 2.266 . S
O398 C395 1.252 . S
O399 In390 2.326 . S
O399 C395 1.260 . S
C400 O391 1.240 . S
C400 O392 1.252 . S
O401 In390 2.294 . S
O401 C394 1.240 . S
O402 In390 2.326 . S
O402 C394 1.252 . S
In403 O404 2.294 . S
In403 O405 2.326 . S
In403 O409 2.266 . S
In403 O410 2.326 . S
In403 O411 2.266 . S
In403 O412 2.326 . S
In403 O414 2.294 . S
In403 O415 2.326 . S
O404 In403 2.294 . S
O404 C413 1.240 . S
O405 In403 2.326 . S
O405 C413 1.252 . S
C406 O409 1.252 . S
C406 O410 1.260 . S
C407 O414 1.240 . S
C407 O415 1.252 . S
C408 O411 1.252 . S
C408 O412 1.260 . S
O409 In403 2.266 . S
O409 C406 1.252 . S
O410 In403 2.326 . S
O410 C406 1.260 . S
O411 In403 2.266 . S
O411 C408 1.252 . S
O412 In403 2.326 . S
O412 C408 1.260 . S
C413 O404 1.240 . S
C413 O405 1.252 . S
O414 In403 2.294 . S
O414 C407 1.240 . S
O415 In403 2.326 . S
O415 C407 1.252 . S
In416 O417 2.294 . S
In416 O418 2.326 . S
In416 O422 2.266 . S
In416 O423 2.326 . S
In416 O424 2.266 . S
In416 O425 2.326 . S
In416 O427 2.294 . S
In416 O428 2.326 . S
O417 In416 2.294 . S
O417 C426 1.240 . S
O418 In416 2.326 . S
O418 C426 1.252 . S
C419 O422 1.252 . S
C419 O423 1.260 . S
C420 O427 1.240 . S
C420 O428 1.252 . S
C421 O424 1.252 . S
C421 O425 1.260 . S
O422 In416 2.266 . S
O422 C419 1.252 . S
O423 In416 2.326 . S
O423 C419 1.260 . S
O424 In416 2.266 . S
O424 C421 1.252 . S
O425 In416 2.326 . S
O425 C421 1.260 . S
C426 O417 1.240 . S
C426 O418 1.252 . S
O427 In416 2.294 . S
O427 C420 1.240 . S
O428 In416 2.326 . S
O428 C420 1.252 . S
In429 O430 2.294 . S
In429 O431 2.326 . S
In429 O435 2.266 . S
In429 O436 2.326 . S
In429 O437 2.266 . S
In429 O438 2.326 . S
In429 O440 2.294 . S
In429 O441 2.326 . S
O430 In429 2.294 . S
O430 C439 1.240 . S
O431 In429 2.326 . S
O431 C439 1.252 . S
C432 O435 1.252 . S
C432 O436 1.260 . S
C433 O440 1.240 . S
C433 O441 1.252 . S
C434 O437 1.252 . S
C434 O438 1.260 . S
O435 In429 2.266 . S
O435 C432 1.252 . S
O436 In429 2.326 . S
O436 C432 1.260 . S
O437 In429 2.266 . S
O437 C434 1.252 . S
O438 In429 2.326 . S
O438 C434 1.260 . S
C439 O430 1.240 . S
C439 O431 1.252 . S
O440 In429 2.294 . S
O440 C433 1.240 . S
O441 In429 2.326 . S
O441 C433 1.252 . S
In442 O443 2.294 . S
In442 O444 2.326 . S
In442 O448 2.266 . S
In442 O449 2.326 . S
In442 O450 2.266 . S
In442 O451 2.326 . S
In442 O453 2.294 . S
In442 O454 2.326 . S
O443 In442 2.294 . S
O443 C452 1.240 . S
O444 In442 2.326 . S
O444 C452 1.252 . S
C445 O448 1.252 . S
C445 O449 1.260 . S
C446 O453 1.240 . S
C446 O454 1.252 . S
C447 O450 1.252 . S
C447 O451 1.260 . S
O448 In442 2.266 . S
O448 C445 1.252 . S
O449 In442 2.326 . S
O449 C445 1.260 . S
O450 In442 2.266 . S
O450 C447 1.252 . S
O451 In442 2.326 . S
O451 C447 1.260 . S
C452 O443 1.240 . S
C452 O444 1.252 . S
O453 In442 2.294 . S
O453 C446 1.240 . S
O454 In442 2.326 . S
O454 C446 1.252 . S
In455 O456 2.294 . S
In455 O457 2.326 . S
In455 O461 2.266 . S
In455 O462 2.326 . S
In455 O463 2.266 . S
In455 O464 2.326 . S
In455 O466 2.294 . S
In455 O467 2.326 . S
O456 In455 2.294 . S
O456 C465 1.240 . S
O457 In455 2.326 . S
O457 C465 1.252 . S
C458 O461 1.252 . S
C458 O462 1.260 . S
C459 O466 1.240 . S
C459 O467 1.252 . S
C460 O463 1.252 . S
C460 O464 1.260 . S
O461 In455 2.266 . S
O461 C458 1.252 . S
O462 In455 2.326 . S
O462 C458 1.260 . S
O463 In455 2.266 . S
O463 C460 1.252 . S
O464 In455 2.326 . S
O464 C460 1.260 . S
C465 O456 1.240 . S
C465 O457 1.252 . S
O466 In455 2.294 . S
O466 C459 1.240 . S
O467 In455 2.326 . S
O467 C459 1.252 . S
In468 O469 2.294 . S
In468 O470 2.326 . S
In468 O474 2.266 . S
In468 O475 2.326 . S
In468 O476 2.266 . S
In468 O477 2.326 . S
In468 O479 2.294 . S
In468 O480 2.326 . S
O469 In468 2.294 . S
O469 C478 1.240 . S
O470 In468 2.326 . S
O470 C478 1.252 . S
C471 O474 1.252 . S
C471 O475 1.260 . S
C472 O479 1.240 . S
C472 O480 1.252 . S
C473 O476 1.252 . S
C473 O477 1.260 . S
O474 In468 2.266 . S
O474 C471 1.252 . S
O475 In468 2.326 . S
O475 C471 1.260 . S
O476 In468 2.266 . S
O476 C473 1.252 . S
O477 In468 2.326 . S
O477 C473 1.260 . S
C478 O469 1.240 . S
C478 O470 1.252 . S
O479 In468 2.294 . S
O479 C472 1.240 . S
O480 In468 2.326 . S
O480 C472 1.252 . S
In481 O482 2.294 . S
In481 O483 2.326 . S
In481 O487 2.266 . S
In481 O488 2.326 . S
In481 O489 2.266 . S
In481 O490 2.326 . S
In481 O492 2.294 . S
In481 O493 2.326 . S
O482 In481 2.294 . S
O482 C491 1.240 . S
O483 In481 2.326 . S
O483 C491 1.252 . S
C484 O487 1.252 . S
C484 O488 1.260 . S
C485 O492 1.240 . S
C485 O493 1.252 . S
C486 O489 1.252 . S
C486 O490 1.260 . S
O487 In481 2.266 . S
O487 C484 1.252 . S
O488 In481 2.326 . S
O488 C484 1.260 . S
O489 In481 2.266 . S
O489 C486 1.252 . S
O490 In481 2.326 . S
O490 C486 1.260 . S
C491 O482 1.240 . S
C491 O483 1.252 . S
O492 In481 2.294 . S
O492 C485 1.240 . S
O493 In481 2.326 . S
O493 C485 1.252 . S
In494 O495 2.294 . S
In494 O496 2.326 . S
In494 O500 2.266 . S
In494 O501 2.326 . S
In494 O502 2.266 . S
In494 O503 2.326 . S
In494 O505 2.294 . S
In494 O506 2.326 . S
O495 In494 2.294 . S
O495 C504 1.240 . S
O496 In494 2.326 . S
O496 C504 1.252 . S
C497 O500 1.252 . S
C497 O501 1.260 . S
C498 O505 1.240 . S
C498 O506 1.252 . S
C499 O502 1.252 . S
C499 O503 1.260 . S
O500 In494 2.266 . S
O500 C497 1.252 . S
O501 In494 2.326 . S
O501 C497 1.260 . S
O502 In494 2.266 . S
O502 C499 1.252 . S
O503 In494 2.326 . S
O503 C499 1.260 . S
C504 O495 1.240 . S
C504 O496 1.252 . S
O505 In494 2.294 . S
O505 C498 1.240 . S
O506 In494 2.326 . S
O506 C498 1.252 . S
In507 O508 2.294 . S
In507 O509 2.326 . S
In507 O513 2.266 . S
In507 O514 2.326 . S
In507 O515 2.266 . S
In507 O516 2.326 . S
In507 O518 2.294 . S
In507 O519 2.326 . S
O508 In507 2.294 . S
O508 C517 1.240 . S
O509 In507 2.326 . S
O509 C517 1.252 . S
C510 O513 1.252 . S
C510 O514 1.260 . S
C511 O518 1.240 . S
C511 O519 1.252 . S
C512 O515 1.252 . S
C512 O516 1.260 . S
O513 In507 2.266 . S
O513 C510 1.252 . S
O514 In507 2.326 . S
O514 C510 1.260 . S
O515 In507 2.266 . S
O515 C512 1.252 . S
O516 In507 2.326 . S
O516 C512 1.260 . S
C517 O508 1.240 . S
C517 O509 1.252 . S
O518 In507 2.294 . S
O518 C511 1.240 . S
O519 In507 2.326 . S
O519 C511 1.252 . S
In520 O521 2.294 . S
In520 O522 2.326 . S
In520 O526 2.266 . S
In520 O527 2.326 . S
In520 O528 2.266 . S
In520 O529 2.326 . S
In520 O531 2.294 . S
In520 O532 2.326 . S
O521 In520 2.294 . S
O521 C530 1.240 . S
O522 In520 2.326 . S
O522 C530 1.252 . S
C523 O526 1.252 . S
C523 O527 1.260 . S
C524 O531 1.240 . S
C524 O532 1.252 . S
C525 O528 1.252 . S
C525 O529 1.260 . S
O526 In520 2.266 . S
O526 C523 1.252 . S
O527 In520 2.326 . S
O527 C523 1.260 . S
O528 In520 2.266 . S
O528 C525 1.252 . S
O529 In520 2.326 . S
O529 C525 1.260 . S
C530 O521 1.240 . S
C530 O522 1.252 . S
O531 In520 2.294 . S
O531 C524 1.240 . S
O532 In520 2.326 . S
O532 C524 1.252 . S
In533 O534 2.294 . S
In533 O535 2.326 . S
In533 O539 2.266 . S
In533 O540 2.326 . S
In533 O541 2.266 . S
In533 O542 2.326 . S
In533 O544 2.294 . S
In533 O545 2.326 . S
O534 In533 2.294 . S
O534 C543 1.240 . S
O535 In533 2.326 . S
O535 C543 1.252 . S
C536 O539 1.252 . S
C536 O540 1.260 . S
C537 O544 1.240 . S
C537 O545 1.252 . S
C538 O541 1.252 . S
C538 O542 1.260 . S
O539 In533 2.266 . S
O539 C536 1.252 . S
O540 In533 2.326 . S
O540 C536 1.260 . S
O541 In533 2.266 . S
O541 C538 1.252 . S
O542 In533 2.326 . S
O542 C538 1.260 . S
C543 O534 1.240 . S
C543 O535 1.252 . S
O544 In533 2.294 . S
O544 C537 1.240 . S
O545 In533 2.326 . S
O545 C537 1.252 . S
In546 O547 2.294 . S
In546 O548 2.326 . S
In546 O552 2.266 . S
In546 O553 2.326 . S
In546 O554 2.266 . S
In546 O555 2.326 . S
In546 O557 2.294 . S
In546 O558 2.326 . S
O547 In546 2.294 . S
O547 C556 1.240 . S
O548 In546 2.326 . S
O548 C556 1.252 . S
C549 O552 1.252 . S
C549 O553 1.260 . S
C550 O557 1.240 . S
C550 O558 1.252 . S
C551 O554 1.252 . S
C551 O555 1.260 . S
O552 In546 2.266 . S
O552 C549 1.252 . S
O553 In546 2.326 . S
O553 C549 1.260 . S
O554 In546 2.266 . S
O554 C551 1.252 . S
O555 In546 2.326 . S
O555 C551 1.260 . S
C556 O547 1.240 . S
C556 O548 1.252 . S
O557 In546 2.294 . S
O557 C550 1.240 . S
O558 In546 2.326 . S
O558 C550 1.252 . S
In559 O560 2.294 . S
In559 O561 2.326 . S
In559 O565 2.266 . S
In559 O566 2.326 . S
In559 O567 2.266 . S
In559 O568 2.326 . S
In559 O570 2.294 . S
In559 O571 2.326 . S
O560 In559 2.294 . S
O560 C569 1.240 . S
O561 In559 2.326 . S
O561 C569 1.252 . S
C562 O565 1.252 . S
C562 O566 1.260 . S
C563 O570 1.240 . S
C563 O571 1.252 . S
C564 O567 1.252 . S
C564 O568 1.260 . S
O565 In559 2.266 . S
O565 C562 1.252 . S
O566 In559 2.326 . S
O566 C562 1.260 . S
O567 In559 2.266 . S
O567 C564 1.252 . S
O568 In559 2.326 . S
O568 C564 1.260 . S
C569 O560 1.240 . S
C569 O561 1.252 . S
O570 In559 2.294 . S
O570 C563 1.240 . S
O571 In559 2.326 . S
O571 C563 1.252 . S
In572 O573 2.294 . S
In572 O574 2.326 . S
In572 O578 2.266 . S
In572 O579 2.326 . S
In572 O580 2.266 . S
In572 O581 2.326 . S
In572 O583 2.294 . S
In572 O584 2.326 . S
O573 In572 2.294 . S
O573 C582 1.240 . S
O574 In572 2.326 . S
O574 C582 1.252 . S
C575 O578 1.252 . S
C575 O579 1.260 . S
C576 O583 1.240 . S
C576 O584 1.252 . S
C577 O580 1.252 . S
C577 O581 1.260 . S
O578 In572 2.266 . S
O578 C575 1.252 . S
O579 In572 2.326 . S
O579 C575 1.260 . S
O580 In572 2.266 . S
O580 C577 1.252 . S
O581 In572 2.326 . S
O581 C577 1.260 . S
C582 O573 1.240 . S
C582 O574 1.252 . S
O583 In572 2.294 . S
O583 C576 1.240 . S
O584 In572 2.326 . S
O584 C576 1.252 . S
In585 O586 2.294 . S
In585 O587 2.326 . S
In585 O591 2.266 . S
In585 O592 2.326 . S
In585 O593 2.266 . S
In585 O594 2.326 . S
In585 O596 2.294 . S
In585 O597 2.326 . S
O586 In585 2.294 . S
O586 C595 1.240 . S
O587 In585 2.326 . S
O587 C595 1.252 . S
C588 O591 1.252 . S
C588 O592 1.260 . S
C589 O596 1.240 . S
C589 O597 1.252 . S
C590 O593 1.252 . S
C590 O594 1.260 . S
O591 In585 2.266 . S
O591 C588 1.252 . S
O592 In585 2.326 . S
O592 C588 1.260 . S
O593 In585 2.266 . S
O593 C590 1.252 . S
O594 In585 2.326 . S
O594 C590 1.260 . S
C595 O586 1.240 . S
C595 O587 1.252 . S
O596 In585 2.294 . S
O596 C589 1.240 . S
O597 In585 2.326 . S
O597 C589 1.252 . S
In598 O599 2.294 . S
In598 O600 2.326 . S
In598 O604 2.266 . S
In598 O605 2.326 . S
In598 O606 2.266 . S
In598 O607 2.326 . S
In598 O609 2.294 . S
In598 O610 2.326 . S
O599 In598 2.294 . S
O599 C608 1.240 . S
O600 In598 2.326 . S
O600 C608 1.252 . S
C601 O604 1.252 . S
C601 O605 1.260 . S
C602 O609 1.240 . S
C602 O610 1.252 . S
C603 O606 1.252 . S
C603 O607 1.260 . S
O604 In598 2.266 . S
O604 C601 1.252 . S
O605 In598 2.326 . S
O605 C601 1.260 . S
O606 In598 2.266 . S
O606 C603 1.252 . S
O607 In598 2.326 . S
O607 C603 1.260 . S
C608 O599 1.240 . S
C608 O600 1.252 . S
O609 In598 2.294 . S
O609 C602 1.240 . S
O610 In598 2.326 . S
O610 C602 1.252 . S
In611 O612 2.294 . S
In611 O613 2.326 . S
In611 O617 2.266 . S
In611 O618 2.326 . S
In611 O619 2.266 . S
In611 O620 2.326 . S
In611 O622 2.294 . S
In611 O623 2.326 . S
O612 In611 2.294 . S
O612 C621 1.240 . S
O613 In611 2.326 . S
O613 C621 1.252 . S
C614 O617 1.252 . S
C614 O618 1.260 . S
C615 O622 1.240 . S
C615 O623 1.252 . S
C616 O619 1.252 . S
C616 O620 1.260 . S
O617 In611 2.266 . S
O617 C614 1.252 . S
O618 In611 2.326 . S
O618 C614 1.260 . S
O619 In611 2.266 . S
O619 C616 1.252 . S
O620 In611 2.326 . S
O620 C616 1.260 . S
C621 O612 1.240 . S
C621 O613 1.252 . S
O622 In611 2.294 . S
O622 C615 1.240 . S
O623 In611 2.326 . S
O623 C615 1.252 . S
C624 C625 1.349 . S
C624 C626 1.327 . S
C624 H649 0.950 . S
C625 C624 1.349 . S
C625 C641 1.349 . S
C626 C624 1.327 . S
C626 C645 1.429 . S
C626 H650 0.950 . S
C627 C644 1.574 . S
C627 C646 1.368 . S
C627 H651 0.949 . S
H628 C632 0.949 . S
C629 C630 1.349 . S
C629 C631 1.327 . S
C629 H652 0.950 . S
C630 C629 1.349 . S
C630 C642 1.349 . S
C631 C629 1.327 . S
C631 C647 1.429 . S
C631 H653 0.950 . S
C632 H628 0.949 . S
C632 C640 1.574 . S
C632 C648 1.368 . S
H633 C641 0.950 . S
H634 C639 0.950 . S
H635 C640 0.949 . S
H636 C642 0.950 . S
H637 C643 0.950 . S
H638 C644 0.949 . S
C639 H634 0.950 . S
C639 C641 1.327 . S
C639 C645 1.429 . S
C640 C632 1.574 . S
C640 H635 0.949 . S
C640 C646 1.368 . S
C641 C625 1.349 . S
C641 H633 0.950 . S
C641 C639 1.327 . S
C642 C630 1.349 . S
C642 H636 0.950 . S
C642 C643 1.327 . S
C643 H637 0.950 . S
C643 C642 1.327 . S
C643 C647 1.429 . S
C644 C627 1.574 . S
C644 H638 0.949 . S
C644 C648 1.368 . S
C645 C626 1.429 . S
C645 C639 1.429 . S
C645 C646 1.523 . S
C646 C627 1.368 . S
C646 C640 1.368 . S
C646 C645 1.523 . S
C647 C631 1.429 . S
C647 C643 1.429 . S
C647 C648 1.523 . S
C648 C632 1.368 . S
C648 C644 1.368 . S
C648 C647 1.523 . S
H649 C624 0.950 . S
H650 C626 0.950 . S
H651 C627 0.949 . S
H652 C629 0.950 . S
H653 C631 0.950 . S
C654 C655 1.349 . S
C654 C656 1.327 . S
C654 H679 0.950 . S
C655 C654 1.349 . S
C655 C671 1.349 . S
C656 C654 1.327 . S
C656 C675 1.429 . S
C656 H680 0.950 . S
C657 C674 1.574 . S
C657 C676 1.368 . S
C657 H681 0.949 . S
H658 C662 0.949 . S
C659 C660 1.349 . S
C659 C661 1.327 . S
C659 H682 0.950 . S
C660 C659 1.349 . S
C660 C672 1.349 . S
C661 C659 1.327 . S
C661 C677 1.429 . S
C661 H683 0.950 . S
C662 H658 0.949 . S
C662 C670 1.574 . S
C662 C678 1.368 . S
H663 C671 0.950 . S
H664 C669 0.950 . S
H665 C670 0.949 . S
H666 C672 0.950 . S
H667 C673 0.950 . S
H668 C674 0.949 . S
C669 H664 0.950 . S
C669 C671 1.327 . S
C669 C675 1.429 . S
C670 C662 1.574 . S
C670 H665 0.949 . S
C670 C676 1.368 . S
C671 C655 1.349 . S
C671 H663 0.950 . S
C671 C669 1.327 . S
C672 C660 1.349 . S
C672 H666 0.950 . S
C672 C673 1.327 . S
C673 H667 0.950 . S
C673 C672 1.327 . S
C673 C677 1.429 . S
C674 C657 1.574 . S
C674 H668 0.949 . S
C674 C678 1.368 . S
C675 C656 1.429 . S
C675 C669 1.429 . S
C675 C676 1.523 . S
C676 C657 1.368 . S
C676 C670 1.368 . S
C676 C675 1.523 . S
C677 C661 1.429 . S
C677 C673 1.429 . S
C677 C678 1.523 . S
C678 C662 1.368 . S
C678 C674 1.368 . S
C678 C677 1.523 . S
H679 C654 0.950 . S
H680 C656 0.950 . S
H681 C657 0.949 . S
H682 C659 0.950 . S
H683 C661 0.950 . S
C684 C685 1.349 . S
C684 C686 1.327 . S
C684 H709 0.950 . S
C685 C684 1.349 . S
C685 C701 1.349 . S
C686 C684 1.327 . S
C686 C705 1.429 . S
C686 H710 0.950 . S
C687 C704 1.574 . S
C687 C706 1.368 . S
C687 H711 0.949 . S
H688 C692 0.949 . S
C689 C690 1.349 . S
C689 C691 1.327 . S
C689 H712 0.950 . S
C690 C689 1.349 . S
C690 C702 1.349 . S
C691 C689 1.327 . S
C691 C707 1.429 . S
C691 H713 0.950 . S
C692 H688 0.949 . S
C692 C700 1.574 . S
C692 C708 1.368 . S
H693 C701 0.950 . S
H694 C699 0.950 . S
H695 C700 0.949 . S
H696 C702 0.950 . S
H697 C703 0.950 . S
H698 C704 0.949 . S
C699 H694 0.950 . S
C699 C701 1.327 . S
C699 C705 1.429 . S
C700 C692 1.574 . S
C700 H695 0.949 . S
C700 C706 1.368 . S
C701 C685 1.349 . S
C701 H693 0.950 . S
C701 C699 1.327 . S
C702 C690 1.349 . S
C702 H696 0.950 . S
C702 C703 1.327 . S
C703 H697 0.950 . S
C703 C702 1.327 . S
C703 C707 1.429 . S
C704 C687 1.574 . S
C704 H698 0.949 . S
C704 C708 1.368 . S
C705 C686 1.429 . S
C705 C699 1.429 . S
C705 C706 1.523 . S
C706 C687 1.368 . S
C706 C700 1.368 . S
C706 C705 1.523 . S
C707 C691 1.429 . S
C707 C703 1.429 . S
C707 C708 1.523 . S
C708 C692 1.368 . S
C708 C704 1.368 . S
C708 C707 1.523 . S
H709 C684 0.950 . S
H710 C686 0.950 . S
H711 C687 0.949 . S
H712 C689 0.950 . S
H713 C691 0.950 . S
C714 C715 1.349 . S
C714 C716 1.327 . S
C714 H739 0.950 . S
C715 C714 1.349 . S
C715 C731 1.349 . S
C716 C714 1.327 . S
C716 C735 1.429 . S
C716 H740 0.950 . S
C717 C734 1.574 . S
C717 C736 1.368 . S
C717 H741 0.949 . S
H718 C722 0.949 . S
C719 C720 1.349 . S
C719 C721 1.327 . S
C719 H742 0.950 . S
C720 C719 1.349 . S
C720 C732 1.349 . S
C721 C719 1.327 . S
C721 C737 1.429 . S
C721 H743 0.950 . S
C722 H718 0.949 . S
C722 C730 1.574 . S
C722 C738 1.368 . S
H723 C731 0.950 . S
H724 C729 0.950 . S
H725 C730 0.949 . S
H726 C732 0.950 . S
H727 C733 0.950 . S
H728 C734 0.949 . S
C729 H724 0.950 . S
C729 C731 1.327 . S
C729 C735 1.429 . S
C730 C722 1.574 . S
C730 H725 0.949 . S
C730 C736 1.368 . S
C731 C715 1.349 . S
C731 H723 0.950 . S
C731 C729 1.327 . S
C732 C720 1.349 . S
C732 H726 0.950 . S
C732 C733 1.327 . S
C733 H727 0.950 . S
C733 C732 1.327 . S
C733 C737 1.429 . S
C734 C717 1.574 . S
C734 H728 0.949 . S
C734 C738 1.368 . S
C735 C716 1.429 . S
C735 C729 1.429 . S
C735 C736 1.523 . S
C736 C717 1.368 . S
C736 C730 1.368 . S
C736 C735 1.523 . S
C737 C721 1.429 . S
C737 C733 1.429 . S
C737 C738 1.523 . S
C738 C722 1.368 . S
C738 C734 1.368 . S
C738 C737 1.523 . S
H739 C714 0.950 . S
H740 C716 0.950 . S
H741 C717 0.949 . S
H742 C719 0.950 . S
H743 C721 0.950 . S
C744 C745 1.349 . S
C744 C746 1.327 . S
C744 H769 0.950 . S
C745 C744 1.349 . S
C745 C761 1.349 . S
C746 C744 1.327 . S
C746 C765 1.429 . S
C746 H770 0.950 . S
C747 C764 1.574 . S
C747 C766 1.368 . S
C747 H771 0.949 . S
H748 C752 0.949 . S
C749 C750 1.349 . S
C749 C751 1.327 . S
C749 H772 0.950 . S
C750 C749 1.349 . S
C750 C762 1.349 . S
C751 C749 1.327 . S
C751 C767 1.429 . S
C751 H773 0.950 . S
C752 H748 0.949 . S
C752 C760 1.574 . S
C752 C768 1.368 . S
H753 C761 0.950 . S
H754 C759 0.950 . S
H755 C760 0.949 . S
H756 C762 0.950 . S
H757 C763 0.950 . S
H758 C764 0.949 . S
C759 H754 0.950 . S
C759 C761 1.327 . S
C759 C765 1.429 . S
C760 C752 1.574 . S
C760 H755 0.949 . S
C760 C766 1.368 . S
C761 C745 1.349 . S
C761 H753 0.950 . S
C761 C759 1.327 . S
C762 C750 1.349 . S
C762 H756 0.950 . S
C762 C763 1.327 . S
C763 H757 0.950 . S
C763 C762 1.327 . S
C763 C767 1.429 . S
C764 C747 1.574 . S
C764 H758 0.949 . S
C764 C768 1.368 . S
C765 C746 1.429 . S
C765 C759 1.429 . S
C765 C766 1.523 . S
C766 C747 1.368 . S
C766 C760 1.368 . S
C766 C765 1.523 . S
C767 C751 1.429 . S
C767 C763 1.429 . S
C767 C768 1.523 . S
C768 C752 1.368 . S
C768 C764 1.368 . S
C768 C767 1.523 . S
H769 C744 0.950 . S
H770 C746 0.950 . S
H771 C747 0.949 . S
H772 C749 0.950 . S
H773 C751 0.950 . S
C774 C775 1.349 . S
C774 C776 1.327 . S
C774 H799 0.950 . S
C775 C774 1.349 . S
C775 C791 1.349 . S
C776 C774 1.327 . S
C776 C795 1.429 . S
C776 H800 0.950 . S
C777 C794 1.574 . S
C777 C796 1.368 . S
C777 H801 0.949 . S
H778 C782 0.949 . S
C779 C780 1.349 . S
C779 C781 1.327 . S
C779 H802 0.950 . S
C780 C779 1.349 . S
C780 C792 1.349 . S
C781 C779 1.327 . S
C781 C797 1.429 . S
C781 H803 0.950 . S
C782 H778 0.949 . S
C782 C790 1.574 . S
C782 C798 1.368 . S
H783 C791 0.950 . S
H784 C789 0.950 . S
H785 C790 0.949 . S
H786 C792 0.950 . S
H787 C793 0.950 . S
H788 C794 0.949 . S
C789 H784 0.950 . S
C789 C791 1.327 . S
C789 C795 1.429 . S
C790 C782 1.574 . S
C790 H785 0.949 . S
C790 C796 1.368 . S
C791 C775 1.349 . S
C791 H783 0.950 . S
C791 C789 1.327 . S
C792 C780 1.349 . S
C792 H786 0.950 . S
C792 C793 1.327 . S
C793 H787 0.950 . S
C793 C792 1.327 . S
C793 C797 1.429 . S
C794 C777 1.574 . S
C794 H788 0.949 . S
C794 C798 1.368 . S
C795 C776 1.429 . S
C795 C789 1.429 . S
C795 C796 1.523 . S
C796 C777 1.368 . S
C796 C790 1.368 . S
C796 C795 1.523 . S
C797 C781 1.429 . S
C797 C793 1.429 . S
C797 C798 1.523 . S
C798 C782 1.368 . S
C798 C794 1.368 . S
C798 C797 1.523 . S
H799 C774 0.950 . S
H800 C776 0.950 . S
H801 C777 0.949 . S
H802 C779 0.950 . S
H803 C781 0.950 . S
C804 C805 1.349 . S
C804 C806 1.327 . S
C804 H829 0.950 . S
C805 C804 1.349 . S
C805 C821 1.349 . S
C806 C804 1.327 . S
C806 C825 1.429 . S
C806 H830 0.950 . S
C807 C824 1.574 . S
C807 C826 1.368 . S
C807 H831 0.949 . S
H808 C812 0.949 . S
C809 C810 1.349 . S
C809 C811 1.327 . S
C809 H832 0.950 . S
C810 C809 1.349 . S
C810 C822 1.349 . S
C811 C809 1.327 . S
C811 C827 1.429 . S
C811 H833 0.950 . S
C812 H808 0.949 . S
C812 C820 1.574 . S
C812 C828 1.368 . S
H813 C821 0.950 . S
H814 C819 0.950 . S
H815 C820 0.949 . S
H816 C822 0.950 . S
H817 C823 0.950 . S
H818 C824 0.949 . S
C819 H814 0.950 . S
C819 C821 1.327 . S
C819 C825 1.429 . S
C820 C812 1.574 . S
C820 H815 0.949 . S
C820 C826 1.368 . S
C821 C805 1.349 . S
C821 H813 0.950 . S
C821 C819 1.327 . S
C822 C810 1.349 . S
C822 H816 0.950 . S
C822 C823 1.327 . S
C823 H817 0.950 . S
C823 C822 1.327 . S
C823 C827 1.429 . S
C824 C807 1.574 . S
C824 H818 0.949 . S
C824 C828 1.368 . S
C825 C806 1.429 . S
C825 C819 1.429 . S
C825 C826 1.523 . S
C826 C807 1.368 . S
C826 C820 1.368 . S
C826 C825 1.523 . S
C827 C811 1.429 . S
C827 C823 1.429 . S
C827 C828 1.523 . S
C828 C812 1.368 . S
C828 C824 1.368 . S
C828 C827 1.523 . S
H829 C804 0.950 . S
H830 C806 0.950 . S
H831 C807 0.949 . S
H832 C809 0.950 . S
H833 C811 0.950 . S
C834 C835 1.349 . S
C834 C836 1.327 . S
C834 H859 0.950 . S
C835 C834 1.349 . S
C835 C851 1.349 . S
C836 C834 1.327 . S
C836 C855 1.429 . S
C836 H860 0.950 . S
C837 C854 1.574 . S
C837 C856 1.368 . S
C837 H861 0.949 . S
H838 C842 0.949 . S
C839 C840 1.349 . S
C839 C841 1.327 . S
C839 H862 0.950 . S
C840 C839 1.349 . S
C840 C852 1.349 . S
C841 C839 1.327 . S
C841 C857 1.429 . S
C841 H863 0.950 . S
C842 H838 0.949 . S
C842 C850 1.574 . S
C842 C858 1.368 . S
H843 C851 0.950 . S
H844 C849 0.950 . S
H845 C850 0.949 . S
H846 C852 0.950 . S
H847 C853 0.950 . S
H848 C854 0.949 . S
C849 H844 0.950 . S
C849 C851 1.327 . S
C849 C855 1.429 . S
C850 C842 1.574 . S
C850 H845 0.949 . S
C850 C856 1.368 . S
C851 C835 1.349 . S
C851 H843 0.950 . S
C851 C849 1.327 . S
C852 C840 1.349 . S
C852 H846 0.950 . S
C852 C853 1.327 . S
C853 H847 0.950 . S
C853 C852 1.327 . S
C853 C857 1.429 . S
C854 C837 1.574 . S
C854 H848 0.949 . S
C854 C858 1.368 . S
C855 C836 1.429 . S
C855 C849 1.429 . S
C855 C856 1.523 . S
C856 C837 1.368 . S
C856 C850 1.368 . S
C856 C855 1.523 . S
C857 C841 1.429 . S
C857 C853 1.429 . S
C857 C858 1.523 . S
C858 C842 1.368 . S
C858 C854 1.368 . S
C858 C857 1.523 . S
H859 C834 0.950 . S
H860 C836 0.950 . S
H861 C837 0.949 . S
H862 C839 0.950 . S
H863 C841 0.950 . S
C864 C865 1.349 . S
C864 C866 1.327 . S
C864 H889 0.950 . S
C865 C864 1.349 . S
C865 C881 1.349 . S
C866 C864 1.327 . S
C866 C885 1.429 . S
C866 H890 0.950 . S
C867 C884 1.574 . S
C867 C886 1.368 . S
C867 H891 0.949 . S
H868 C872 0.949 . S
C869 C870 1.349 . S
C869 C871 1.327 . S
C869 H892 0.950 . S
C870 C869 1.349 . S
C870 C882 1.349 . S
C871 C869 1.327 . S
C871 C887 1.429 . S
C871 H893 0.950 . S
C872 H868 0.949 . S
C872 C880 1.574 . S
C872 C888 1.368 . S
H873 C881 0.950 . S
H874 C879 0.950 . S
H875 C880 0.949 . S
H876 C882 0.950 . S
H877 C883 0.950 . S
H878 C884 0.949 . S
C879 H874 0.950 . S
C879 C881 1.327 . S
C879 C885 1.429 . S
C880 C872 1.574 . S
C880 H875 0.949 . S
C880 C886 1.368 . S
C881 C865 1.349 . S
C881 H873 0.950 . S
C881 C879 1.327 . S
C882 C870 1.349 . S
C882 H876 0.950 . S
C882 C883 1.327 . S
C883 H877 0.950 . S
C883 C882 1.327 . S
C883 C887 1.429 . S
C884 C867 1.574 . S
C884 H878 0.949 . S
C884 C888 1.368 . S
C885 C866 1.429 . S
C885 C879 1.429 . S
C885 C886 1.523 . S
C886 C867 1.368 . S
C886 C880 1.368 . S
C886 C885 1.523 . S
C887 C871 1.429 . S
C887 C883 1.429 . S
C887 C888 1.523 . S
C888 C872 1.368 . S
C888 C884 1.368 . S
C888 C887 1.523 . S
H889 C864 0.950 . S
H890 C866 0.950 . S
H891 C867 0.949 . S
H892 C869 0.950 . S
H893 C871 0.950 . S
C894 C895 1.349 . S
C894 C896 1.327 . S
C894 H919 0.950 . S
C895 C894 1.349 . S
C895 C911 1.349 . S
C896 C894 1.327 . S
C896 C915 1.429 . S
C896 H920 0.950 . S
C897 C914 1.574 . S
C897 C916 1.368 . S
C897 H921 0.949 . S
H898 C902 0.949 . S
C899 C900 1.349 . S
C899 C901 1.327 . S
C899 H922 0.950 . S
C900 C899 1.349 . S
C900 C912 1.349 . S
C901 C899 1.327 . S
C901 C917 1.429 . S
C901 H923 0.950 . S
C902 H898 0.949 . S
C902 C910 1.574 . S
C902 C918 1.368 . S
H903 C911 0.950 . S
H904 C909 0.950 . S
H905 C910 0.949 . S
H906 C912 0.950 . S
H907 C913 0.950 . S
H908 C914 0.949 . S
C909 H904 0.950 . S
C909 C911 1.327 . S
C909 C915 1.429 . S
C910 C902 1.574 . S
C910 H905 0.949 . S
C910 C916 1.368 . S
C911 C895 1.349 . S
C911 H903 0.950 . S
C911 C909 1.327 . S
C912 C900 1.349 . S
C912 H906 0.950 . S
C912 C913 1.327 . S
C913 H907 0.950 . S
C913 C912 1.327 . S
C913 C917 1.429 . S
C914 C897 1.574 . S
C914 H908 0.949 . S
C914 C918 1.368 . S
C915 C896 1.429 . S
C915 C909 1.429 . S
C915 C916 1.523 . S
C916 C897 1.368 . S
C916 C910 1.368 . S
C916 C915 1.523 . S
C917 C901 1.429 . S
C917 C913 1.429 . S
C917 C918 1.523 . S
C918 C902 1.368 . S
C918 C914 1.368 . S
C918 C917 1.523 . S
H919 C894 0.950 . S
H920 C896 0.950 . S
H921 C897 0.949 . S
H922 C899 0.950 . S
H923 C901 0.950 . S
C924 C925 1.349 . S
C924 C926 1.327 . S
C924 H949 0.950 . S
C925 C924 1.349 . S
C925 C941 1.349 . S
C926 C924 1.327 . S
C926 C945 1.429 . S
C926 H950 0.950 . S
C927 C944 1.574 . S
C927 C946 1.368 . S
C927 H951 0.949 . S
H928 C932 0.949 . S
C929 C930 1.349 . S
C929 C931 1.327 . S
C929 H952 0.950 . S
C930 C929 1.349 . S
C930 C942 1.349 . S
C931 C929 1.327 . S
C931 C947 1.429 . S
C931 H953 0.950 . S
C932 H928 0.949 . S
C932 C940 1.574 . S
C932 C948 1.368 . S
H933 C941 0.950 . S
H934 C939 0.950 . S
H935 C940 0.949 . S
H936 C942 0.950 . S
H937 C943 0.950 . S
H938 C944 0.949 . S
C939 H934 0.950 . S
C939 C941 1.327 . S
C939 C945 1.429 . S
C940 C932 1.574 . S
C940 H935 0.949 . S
C940 C946 1.368 . S
C941 C925 1.349 . S
C941 H933 0.950 . S
C941 C939 1.327 . S
C942 C930 1.349 . S
C942 H936 0.950 . S
C942 C943 1.327 . S
C943 H937 0.950 . S
C943 C942 1.327 . S
C943 C947 1.429 . S
C944 C927 1.574 . S
C944 H938 0.949 . S
C944 C948 1.368 . S
C945 C926 1.429 . S
C945 C939 1.429 . S
C945 C946 1.523 . S
C946 C927 1.368 . S
C946 C940 1.368 . S
C946 C945 1.523 . S
C947 C931 1.429 . S
C947 C943 1.429 . S
C947 C948 1.523 . S
C948 C932 1.368 . S
C948 C944 1.368 . S
C948 C947 1.523 . S
H949 C924 0.950 . S
H950 C926 0.950 . S
H951 C927 0.949 . S
H952 C929 0.950 . S
H953 C931 0.950 . S
C954 C955 1.349 . S
C954 C956 1.327 . S
C954 H979 0.950 . S
C955 C954 1.349 . S
C955 C971 1.349 . S
C956 C954 1.327 . S
C956 C975 1.429 . S
C956 H980 0.950 . S
C957 C974 1.574 . S
C957 C976 1.368 . S
C957 H981 0.949 . S
H958 C962 0.949 . S
C959 C960 1.349 . S
C959 C961 1.327 . S
C959 H982 0.950 . S
C960 C959 1.349 . S
C960 C972 1.349 . S
C961 C959 1.327 . S
C961 C977 1.429 . S
C961 H983 0.950 . S
C962 H958 0.949 . S
C962 C970 1.574 . S
C962 C978 1.368 . S
H963 C971 0.950 . S
H964 C969 0.950 . S
H965 C970 0.949 . S
H966 C972 0.950 . S
H967 C973 0.950 . S
H968 C974 0.949 . S
C969 H964 0.950 . S
C969 C971 1.327 . S
C969 C975 1.429 . S
C970 C962 1.574 . S
C970 H965 0.949 . S
C970 C976 1.368 . S
C971 C955 1.349 . S
C971 H963 0.950 . S
C971 C969 1.327 . S
C972 C960 1.349 . S
C972 H966 0.950 . S
C972 C973 1.327 . S
C973 H967 0.950 . S
C973 C972 1.327 . S
C973 C977 1.429 . S
C974 C957 1.574 . S
C974 H968 0.949 . S
C974 C978 1.368 . S
C975 C956 1.429 . S
C975 C969 1.429 . S
C975 C976 1.523 . S
C976 C957 1.368 . S
C976 C970 1.368 . S
C976 C975 1.523 . S
C977 C961 1.429 . S
C977 C973 1.429 . S
C977 C978 1.523 . S
C978 C962 1.368 . S
C978 C974 1.368 . S
C978 C977 1.523 . S
H979 C954 0.950 . S
H980 C956 0.950 . S
H981 C957 0.949 . S
H982 C959 0.950 . S
H983 C961 0.950 . S
C984 C985 1.349 . S
C984 C986 1.327 . S
C984 H1009 0.950 . S
C985 C984 1.349 . S
C985 C1001 1.349 . S
C986 C984 1.327 . S
C986 C1005 1.429 . S
C986 H1010 0.950 . S
C987 C1004 1.574 . S
C987 C1006 1.368 . S
C987 H1011 0.949 . S
H988 C992 0.949 . S
C989 C990 1.349 . S
C989 C991 1.327 . S
C989 H1012 0.950 . S
C990 C989 1.349 . S
C990 C1002 1.349 . S
C991 C989 1.327 . S
C991 C1007 1.429 . S
C991 H1013 0.950 . S
C992 H988 0.949 . S
C992 C1000 1.574 . S
C992 C1008 1.368 . S
H993 C1001 0.950 . S
H994 C999 0.950 . S
H995 C1000 0.949 . S
H996 C1002 0.950 . S
H997 C1003 0.950 . S
H998 C1004 0.949 . S
C999 H994 0.950 . S
C999 C1001 1.327 . S
C999 C1005 1.429 . S
C1000 C992 1.574 . S
C1000 H995 0.949 . S
C1000 C1006 1.368 . S
C1001 C985 1.349 . S
C1001 H993 0.950 . S
C1001 C999 1.327 . S
C1002 C990 1.349 . S
C1002 H996 0.950 . S
C1002 C1003 1.327 . S
C1003 H997 0.950 . S
C1003 C1002 1.327 . S
C1003 C1007 1.429 . S
C1004 C987 1.574 . S
C1004 H998 0.949 . S
C1004 C1008 1.368 . S
C1005 C986 1.429 . S
C1005 C999 1.429 . S
C1005 C1006 1.523 . S
C1006 C987 1.368 . S
C1006 C1000 1.368 . S
C1006 C1005 1.523 . S
C1007 C991 1.429 . S
C1007 C1003 1.429 . S
C1007 C1008 1.523 . S
C1008 C992 1.368 . S
C1008 C1004 1.368 . S
C1008 C1007 1.523 . S
H1009 C984 0.950 . S
H1010 C986 0.950 . S
H1011 C987 0.949 . S
H1012 C989 0.950 . S
H1013 C991 0.950 . S
C1014 C1015 1.349 . S
C1014 C1016 1.327 . S
C1014 H1039 0.950 . S
C1015 C1014 1.349 . S
C1015 C1031 1.349 . S
C1016 C1014 1.327 . S
C1016 C1035 1.429 . S
C1016 H1040 0.950 . S
C1017 C1034 1.574 . S
C1017 C1036 1.368 . S
C1017 H1041 0.949 . S
H1018 C1022 0.949 . S
C1019 C1020 1.349 . S
C1019 C1021 1.327 . S
C1019 H1042 0.950 . S
C1020 C1019 1.349 . S
C1020 C1032 1.349 . S
C1021 C1019 1.327 . S
C1021 C1037 1.429 . S
C1021 H1043 0.950 . S
C1022 H1018 0.949 . S
C1022 C1030 1.574 . S
C1022 C1038 1.368 . S
H1023 C1031 0.950 . S
H1024 C1029 0.950 . S
H1025 C1030 0.949 . S
H1026 C1032 0.950 . S
H1027 C1033 0.950 . S
H1028 C1034 0.949 . S
C1029 H1024 0.950 . S
C1029 C1031 1.327 . S
C1029 C1035 1.429 . S
C1030 C1022 1.574 . S
C1030 H1025 0.949 . S
C1030 C1036 1.368 . S
C1031 C1015 1.349 . S
C1031 H1023 0.950 . S
C1031 C1029 1.327 . S
C1032 C1020 1.349 . S
C1032 H1026 0.950 . S
C1032 C1033 1.327 . S
C1033 H1027 0.950 . S
C1033 C1032 1.327 . S
C1033 C1037 1.429 . S
C1034 C1017 1.574 . S
C1034 H1028 0.949 . S
C1034 C1038 1.368 . S
C1035 C1016 1.429 . S
C1035 C1029 1.429 . S
C1035 C1036 1.523 . S
C1036 C1017 1.368 . S
C1036 C1030 1.368 . S
C1036 C1035 1.523 . S
C1037 C1021 1.429 . S
C1037 C1033 1.429 . S
C1037 C1038 1.523 . S
C1038 C1022 1.368 . S
C1038 C1034 1.368 . S
C1038 C1037 1.523 . S
H1039 C1014 0.950 . S
H1040 C1016 0.950 . S
H1041 C1017 0.949 . S
H1042 C1019 0.950 . S
H1043 C1021 0.950 . S
C1044 C1045 1.349 . S
C1044 C1046 1.327 . S
C1044 H1069 0.950 . S
C1045 C1044 1.349 . S
C1045 C1061 1.349 . S
C1046 C1044 1.327 . S
C1046 C1065 1.429 . S
C1046 H1070 0.950 . S
C1047 C1064 1.574 . S
C1047 C1066 1.368 . S
C1047 H1071 0.949 . S
H1048 C1052 0.949 . S
C1049 C1050 1.349 . S
C1049 C1051 1.327 . S
C1049 H1072 0.950 . S
C1050 C1049 1.349 . S
C1050 C1062 1.349 . S
C1051 C1049 1.327 . S
C1051 C1067 1.429 . S
C1051 H1073 0.950 . S
C1052 H1048 0.949 . S
C1052 C1060 1.574 . S
C1052 C1068 1.368 . S
H1053 C1061 0.950 . S
H1054 C1059 0.950 . S
H1055 C1060 0.949 . S
H1056 C1062 0.950 . S
H1057 C1063 0.950 . S
H1058 C1064 0.949 . S
C1059 H1054 0.950 . S
C1059 C1061 1.327 . S
C1059 C1065 1.429 . S
C1060 C1052 1.574 . S
C1060 H1055 0.949 . S
C1060 C1066 1.368 . S
C1061 C1045 1.349 . S
C1061 H1053 0.950 . S
C1061 C1059 1.327 . S
C1062 C1050 1.349 . S
C1062 H1056 0.950 . S
C1062 C1063 1.327 . S
C1063 H1057 0.950 . S
C1063 C1062 1.327 . S
C1063 C1067 1.429 . S
C1064 C1047 1.574 . S
C1064 H1058 0.949 . S
C1064 C1068 1.368 . S
C1065 C1046 1.429 . S
C1065 C1059 1.429 . S
C1065 C1066 1.523 . S
C1066 C1047 1.368 . S
C1066 C1060 1.368 . S
C1066 C1065 1.523 . S
C1067 C1051 1.429 . S
C1067 C1063 1.429 . S
C1067 C1068 1.523 . S
C1068 C1052 1.368 . S
C1068 C1064 1.368 . S
C1068 C1067 1.523 . S
H1069 C1044 0.950 . S
H1070 C1046 0.950 . S
H1071 C1047 0.949 . S
H1072 C1049 0.950 . S
H1073 C1051 0.950 . S
C1074 C1075 1.349 . S
C1074 C1076 1.327 . S
C1074 H1099 0.950 . S
C1075 C1074 1.349 . S
C1075 C1091 1.349 . S
C1076 C1074 1.327 . S
C1076 C1095 1.429 . S
C1076 H1100 0.950 . S
C1077 C1094 1.574 . S
C1077 C1096 1.368 . S
C1077 H1101 0.949 . S
H1078 C1082 0.949 . S
C1079 C1080 1.349 . S
C1079 C1081 1.327 . S
C1079 H1102 0.950 . S
C1080 C1079 1.349 . S
C1080 C1092 1.349 . S
C1081 C1079 1.327 . S
C1081 C1097 1.429 . S
C1081 H1103 0.950 . S
C1082 H1078 0.949 . S
C1082 C1090 1.574 . S
C1082 C1098 1.368 . S
H1083 C1091 0.950 . S
H1084 C1089 0.950 . S
H1085 C1090 0.949 . S
H1086 C1092 0.950 . S
H1087 C1093 0.950 . S
H1088 C1094 0.949 . S
C1089 H1084 0.950 . S
C1089 C1091 1.327 . S
C1089 C1095 1.429 . S
C1090 C1082 1.574 . S
C1090 H1085 0.949 . S
C1090 C1096 1.368 . S
C1091 C1075 1.349 . S
C1091 H1083 0.950 . S
C1091 C1089 1.327 . S
C1092 C1080 1.349 . S
C1092 H1086 0.950 . S
C1092 C1093 1.327 . S
C1093 H1087 0.950 . S
C1093 C1092 1.327 . S
C1093 C1097 1.429 . S
C1094 C1077 1.574 . S
C1094 H1088 0.949 . S
C1094 C1098 1.368 . S
C1095 C1076 1.429 . S
C1095 C1089 1.429 . S
C1095 C1096 1.523 . S
C1096 C1077 1.368 . S
C1096 C1090 1.368 . S
C1096 C1095 1.523 . S
C1097 C1081 1.429 . S
C1097 C1093 1.429 . S
C1097 C1098 1.523 . S
C1098 C1082 1.368 . S
C1098 C1094 1.368 . S
C1098 C1097 1.523 . S
H1099 C1074 0.950 . S
H1100 C1076 0.950 . S
H1101 C1077 0.949 . S
H1102 C1079 0.950 . S
H1103 C1081 0.950 . S
C1104 C1105 1.349 . S
C1104 C1106 1.327 . S
C1104 H1129 0.950 . S
C1105 C1104 1.349 . S
C1105 C1121 1.349 . S
C1106 C1104 1.327 . S
C1106 C1125 1.429 . S
C1106 H1130 0.950 . S
C1107 C1124 1.574 . S
C1107 C1126 1.368 . S
C1107 H1131 0.949 . S
H1108 C1112 0.949 . S
C1109 C1110 1.349 . S
C1109 C1111 1.327 . S
C1109 H1132 0.950 . S
C1110 C1109 1.349 . S
C1110 C1122 1.349 . S
C1111 C1109 1.327 . S
C1111 C1127 1.429 . S
C1111 H1133 0.950 . S
C1112 H1108 0.949 . S
C1112 C1120 1.574 . S
C1112 C1128 1.368 . S
H1113 C1121 0.950 . S
H1114 C1119 0.950 . S
H1115 C1120 0.949 . S
H1116 C1122 0.950 . S
H1117 C1123 0.950 . S
H1118 C1124 0.949 . S
C1119 H1114 0.950 . S
C1119 C1121 1.327 . S
C1119 C1125 1.429 . S
C1120 C1112 1.574 . S
C1120 H1115 0.949 . S
C1120 C1126 1.368 . S
C1121 C1105 1.349 . S
C1121 H1113 0.950 . S
C1121 C1119 1.327 . S
C1122 C1110 1.349 . S
C1122 H1116 0.950 . S
C1122 C1123 1.327 . S
C1123 H1117 0.950 . S
C1123 C1122 1.327 . S
C1123 C1127 1.429 . S
C1124 C1107 1.574 . S
C1124 H1118 0.949 . S
C1124 C1128 1.368 . S
C1125 C1106 1.429 . S
C1125 C1119 1.429 . S
C1125 C1126 1.523 . S
C1126 C1107 1.368 . S
C1126 C1120 1.368 . S
C1126 C1125 1.523 . S
C1127 C1111 1.429 . S
C1127 C1123 1.429 . S
C1127 C1128 1.523 . S
C1128 C1112 1.368 . S
C1128 C1124 1.368 . S
C1128 C1127 1.523 . S
H1129 C1104 0.950 . S
H1130 C1106 0.950 . S
H1131 C1107 0.949 . S
H1132 C1109 0.950 . S
H1133 C1111 0.950 . S
C1134 C1135 1.349 . S
C1134 C1136 1.327 . S
C1134 H1159 0.950 . S
C1135 C1134 1.349 . S
C1135 C1151 1.349 . S
C1136 C1134 1.327 . S
C1136 C1155 1.429 . S
C1136 H1160 0.950 . S
C1137 C1154 1.574 . S
C1137 C1156 1.368 . S
C1137 H1161 0.949 . S
H1138 C1142 0.949 . S
C1139 C1140 1.349 . S
C1139 C1141 1.327 . S
C1139 H1162 0.950 . S
C1140 C1139 1.349 . S
C1140 C1152 1.349 . S
C1141 C1139 1.327 . S
C1141 C1157 1.429 . S
C1141 H1163 0.950 . S
C1142 H1138 0.949 . S
C1142 C1150 1.574 . S
C1142 C1158 1.368 . S
H1143 C1151 0.950 . S
H1144 C1149 0.950 . S
H1145 C1150 0.949 . S
H1146 C1152 0.950 . S
H1147 C1153 0.950 . S
H1148 C1154 0.949 . S
C1149 H1144 0.950 . S
C1149 C1151 1.327 . S
C1149 C1155 1.429 . S
C1150 C1142 1.574 . S
C1150 H1145 0.949 . S
C1150 C1156 1.368 . S
C1151 C1135 1.349 . S
C1151 H1143 0.950 . S
C1151 C1149 1.327 . S
C1152 C1140 1.349 . S
C1152 H1146 0.950 . S
C1152 C1153 1.327 . S
C1153 H1147 0.950 . S
C1153 C1152 1.327 . S
C1153 C1157 1.429 . S
C1154 C1137 1.574 . S
C1154 H1148 0.949 . S
C1154 C1158 1.368 . S
C1155 C1136 1.429 . S
C1155 C1149 1.429 . S
C1155 C1156 1.523 . S
C1156 C1137 1.368 . S
C1156 C1150 1.368 . S
C1156 C1155 1.523 . S
C1157 C1141 1.429 . S
C1157 C1153 1.429 . S
C1157 C1158 1.523 . S
C1158 C1142 1.368 . S
C1158 C1154 1.368 . S
C1158 C1157 1.523 . S
H1159 C1134 0.950 . S
H1160 C1136 0.950 . S
H1161 C1137 0.949 . S
H1162 C1139 0.950 . S
H1163 C1141 0.950 . S
C1164 C1165 1.349 . S
C1164 C1166 1.327 . S
C1164 H1189 0.950 . S
C1165 C1164 1.349 . S
C1165 C1181 1.349 . S
C1166 C1164 1.327 . S
C1166 C1185 1.429 . S
C1166 H1190 0.950 . S
C1167 C1184 1.574 . S
C1167 C1186 1.368 . S
C1167 H1191 0.949 . S
H1168 C1172 0.949 . S
C1169 C1170 1.349 . S
C1169 C1171 1.327 . S
C1169 H1192 0.950 . S
C1170 C1169 1.349 . S
C1170 C1182 1.349 . S
C1171 C1169 1.327 . S
C1171 C1187 1.429 . S
C1171 H1193 0.950 . S
C1172 H1168 0.949 . S
C1172 C1180 1.574 . S
C1172 C1188 1.368 . S
H1173 C1181 0.950 . S
H1174 C1179 0.950 . S
H1175 C1180 0.949 . S
H1176 C1182 0.950 . S
H1177 C1183 0.950 . S
H1178 C1184 0.949 . S
C1179 H1174 0.950 . S
C1179 C1181 1.327 . S
C1179 C1185 1.429 . S
C1180 C1172 1.574 . S
C1180 H1175 0.949 . S
C1180 C1186 1.368 . S
C1181 C1165 1.349 . S
C1181 H1173 0.950 . S
C1181 C1179 1.327 . S
C1182 C1170 1.349 . S
C1182 H1176 0.950 . S
C1182 C1183 1.327 . S
C1183 H1177 0.950 . S
C1183 C1182 1.327 . S
C1183 C1187 1.429 . S
C1184 C1167 1.574 . S
C1184 H1178 0.949 . S
C1184 C1188 1.368 . S
C1185 C1166 1.429 . S
C1185 C1179 1.429 . S
C1185 C1186 1.523 . S
C1186 C1167 1.368 . S
C1186 C1180 1.368 . S
C1186 C1185 1.523 . S
C1187 C1171 1.429 . S
C1187 C1183 1.429 . S
C1187 C1188 1.523 . S
C1188 C1172 1.368 . S
C1188 C1184 1.368 . S
C1188 C1187 1.523 . S
H1189 C1164 0.950 . S
H1190 C1166 0.950 . S
H1191 C1167 0.949 . S
H1192 C1169 0.950 . S
H1193 C1171 0.950 . S
C1194 C1195 1.349 . S
C1194 C1196 1.327 . S
C1194 H1219 0.950 . S
C1195 C1194 1.349 . S
C1195 C1211 1.349 . S
C1196 C1194 1.327 . S
C1196 C1215 1.429 . S
C1196 H1220 0.950 . S
C1197 C1214 1.574 . S
C1197 C1216 1.368 . S
C1197 H1221 0.949 . S
H1198 C1202 0.949 . S
C1199 C1200 1.349 . S
C1199 C1201 1.327 . S
C1199 H1222 0.950 . S
C1200 C1199 1.349 . S
C1200 C1212 1.349 . S
C1201 C1199 1.327 . S
C1201 C1217 1.429 . S
C1201 H1223 0.950 . S
C1202 H1198 0.949 . S
C1202 C1210 1.574 . S
C1202 C1218 1.368 . S
H1203 C1211 0.950 . S
H1204 C1209 0.950 . S
H1205 C1210 0.949 . S
H1206 C1212 0.950 . S
H1207 C1213 0.950 . S
H1208 C1214 0.949 . S
C1209 H1204 0.950 . S
C1209 C1211 1.327 . S
C1209 C1215 1.429 . S
C1210 C1202 1.574 . S
C1210 H1205 0.949 . S
C1210 C1216 1.368 . S
C1211 C1195 1.349 . S
C1211 H1203 0.950 . S
C1211 C1209 1.327 . S
C1212 C1200 1.349 . S
C1212 H1206 0.950 . S
C1212 C1213 1.327 . S
C1213 H1207 0.950 . S
C1213 C1212 1.327 . S
C1213 C1217 1.429 . S
C1214 C1197 1.574 . S
C1214 H1208 0.949 . S
C1214 C1218 1.368 . S
C1215 C1196 1.429 . S
C1215 C1209 1.429 . S
C1215 C1216 1.523 . S
C1216 C1197 1.368 . S
C1216 C1210 1.368 . S
C1216 C1215 1.523 . S
C1217 C1201 1.429 . S
C1217 C1213 1.429 . S
C1217 C1218 1.523 . S
C1218 C1202 1.368 . S
C1218 C1214 1.368 . S
C1218 C1217 1.523 . S
H1219 C1194 0.950 . S
H1220 C1196 0.950 . S
H1221 C1197 0.949 . S
H1222 C1199 0.950 . S
H1223 C1201 0.950 . S
C1224 C1225 1.349 . S
C1224 C1226 1.327 . S
C1224 H1249 0.950 . S
C1225 C1224 1.349 . S
C1225 C1241 1.349 . S
C1226 C1224 1.327 . S
C1226 C1245 1.429 . S
C1226 H1250 0.950 . S
C1227 C1244 1.574 . S
C1227 C1246 1.368 . S
C1227 H1251 0.949 . S
H1228 C1232 0.949 . S
C1229 C1230 1.349 . S
C1229 C1231 1.327 . S
C1229 H1252 0.950 . S
C1230 C1229 1.349 . S
C1230 C1242 1.349 . S
C1231 C1229 1.327 . S
C1231 C1247 1.429 . S
C1231 H1253 0.950 . S
C1232 H1228 0.949 . S
C1232 C1240 1.574 . S
C1232 C1248 1.368 . S
H1233 C1241 0.950 . S
H1234 C1239 0.950 . S
H1235 C1240 0.949 . S
H1236 C1242 0.950 . S
H1237 C1243 0.950 . S
H1238 C1244 0.949 . S
C1239 H1234 0.950 . S
C1239 C1241 1.327 . S
C1239 C1245 1.429 . S
C1240 C1232 1.574 . S
C1240 H1235 0.949 . S
C1240 C1246 1.368 . S
C1241 C1225 1.349 . S
C1241 H1233 0.950 . S
C1241 C1239 1.327 . S
C1242 C1230 1.349 . S
C1242 H1236 0.950 . S
C1242 C1243 1.327 . S
C1243 H1237 0.950 . S
C1243 C1242 1.327 . S
C1243 C1247 1.429 . S
C1244 C1227 1.574 . S
C1244 H1238 0.949 . S
C1244 C1248 1.368 . S
C1245 C1226 1.429 . S
C1245 C1239 1.429 . S
C1245 C1246 1.523 . S
C1246 C1227 1.368 . S
C1246 C1240 1.368 . S
C1246 C1245 1.523 . S
C1247 C1231 1.429 . S
C1247 C1243 1.429 . S
C1247 C1248 1.523 . S
C1248 C1232 1.368 . S
C1248 C1244 1.368 . S
C1248 C1247 1.523 . S
H1249 C1224 0.950 . S
H1250 C1226 0.950 . S
H1251 C1227 0.949 . S
H1252 C1229 0.950 . S
H1253 C1231 0.950 . S
C1254 C1255 1.349 . S
C1254 C1256 1.327 . S
C1254 H1279 0.950 . S
C1255 C1254 1.349 . S
C1255 C1271 1.349 . S
C1256 C1254 1.327 . S
C1256 C1275 1.429 . S
C1256 H1280 0.950 . S
C1257 C1274 1.574 . S
C1257 C1276 1.368 . S
C1257 H1281 0.949 . S
H1258 C1262 0.949 . S
C1259 C1260 1.349 . S
C1259 C1261 1.327 . S
C1259 H1282 0.950 . S
C1260 C1259 1.349 . S
C1260 C1272 1.349 . S
C1261 C1259 1.327 . S
C1261 C1277 1.429 . S
C1261 H1283 0.950 . S
C1262 H1258 0.949 . S
C1262 C1270 1.574 . S
C1262 C1278 1.368 . S
H1263 C1271 0.950 . S
H1264 C1269 0.950 . S
H1265 C1270 0.949 . S
H1266 C1272 0.950 . S
H1267 C1273 0.950 . S
H1268 C1274 0.949 . S
C1269 H1264 0.950 . S
C1269 C1271 1.327 . S
C1269 C1275 1.429 . S
C1270 C1262 1.574 . S
C1270 H1265 0.949 . S
C1270 C1276 1.368 . S
C1271 C1255 1.349 . S
C1271 H1263 0.950 . S
C1271 C1269 1.327 . S
C1272 C1260 1.349 . S
C1272 H1266 0.950 . S
C1272 C1273 1.327 . S
C1273 H1267 0.950 . S
C1273 C1272 1.327 . S
C1273 C1277 1.429 . S
C1274 C1257 1.574 . S
C1274 H1268 0.949 . S
C1274 C1278 1.368 . S
C1275 C1256 1.429 . S
C1275 C1269 1.429 . S
C1275 C1276 1.523 . S
C1276 C1257 1.368 . S
C1276 C1270 1.368 . S
C1276 C1275 1.523 . S
C1277 C1261 1.429 . S
C1277 C1273 1.429 . S
C1277 C1278 1.523 . S
C1278 C1262 1.368 . S
C1278 C1274 1.368 . S
C1278 C1277 1.523 . S
H1279 C1254 0.950 . S
H1280 C1256 0.950 . S
H1281 C1257 0.949 . S
H1282 C1259 0.950 . S
H1283 C1261 0.950 . S
C1284 C1285 1.349 . S
C1284 C1286 1.327 . S
C1284 H1309 0.950 . S
C1285 C1284 1.349 . S
C1285 C1301 1.349 . S
C1286 C1284 1.327 . S
C1286 C1305 1.429 . S
C1286 H1310 0.950 . S
C1287 C1304 1.574 . S
C1287 C1306 1.368 . S
C1287 H1311 0.949 . S
H1288 C1292 0.949 . S
C1289 C1290 1.349 . S
C1289 C1291 1.327 . S
C1289 H1312 0.950 . S
C1290 C1289 1.349 . S
C1290 C1302 1.349 . S
C1291 C1289 1.327 . S
C1291 C1307 1.429 . S
C1291 H1313 0.950 . S
C1292 H1288 0.949 . S
C1292 C1300 1.574 . S
C1292 C1308 1.368 . S
H1293 C1301 0.950 . S
H1294 C1299 0.950 . S
H1295 C1300 0.949 . S
H1296 C1302 0.950 . S
H1297 C1303 0.950 . S
H1298 C1304 0.949 . S
C1299 H1294 0.950 . S
C1299 C1301 1.327 . S
C1299 C1305 1.429 . S
C1300 C1292 1.574 . S
C1300 H1295 0.949 . S
C1300 C1306 1.368 . S
C1301 C1285 1.349 . S
C1301 H1293 0.950 . S
C1301 C1299 1.327 . S
C1302 C1290 1.349 . S
C1302 H1296 0.950 . S
C1302 C1303 1.327 . S
C1303 H1297 0.950 . S
C1303 C1302 1.327 . S
C1303 C1307 1.429 . S
C1304 C1287 1.574 . S
C1304 H1298 0.949 . S
C1304 C1308 1.368 . S
C1305 C1286 1.429 . S
C1305 C1299 1.429 . S
C1305 C1306 1.523 . S
C1306 C1287 1.368 . S
C1306 C1300 1.368 . S
C1306 C1305 1.523 . S
C1307 C1291 1.429 . S
C1307 C1303 1.429 . S
C1307 C1308 1.523 . S
C1308 C1292 1.368 . S
C1308 C1304 1.368 . S
C1308 C1307 1.523 . S
H1309 C1284 0.950 . S
H1310 C1286 0.950 . S
H1311 C1287 0.949 . S
H1312 C1289 0.950 . S
H1313 C1291 0.950 . S
C1314 C1315 1.349 . S
C1314 C1316 1.327 . S
C1314 H1339 0.950 . S
C1315 C1314 1.349 . S
C1315 C1331 1.349 . S
C1316 C1314 1.327 . S
C1316 C1335 1.429 . S
C1316 H1340 0.950 . S
C1317 C1334 1.574 . S
C1317 C1336 1.368 . S
C1317 H1341 0.949 . S
H1318 C1322 0.949 . S
C1319 C1320 1.349 . S
C1319 C1321 1.327 . S
C1319 H1342 0.950 . S
C1320 C1319 1.349 . S
C1320 C1332 1.349 . S
C1321 C1319 1.327 . S
C1321 C1337 1.429 . S
C1321 H1343 0.950 . S
C1322 H1318 0.949 . S
C1322 C1330 1.574 . S
C1322 C1338 1.368 . S
H1323 C1331 0.950 . S
H1324 C1329 0.950 . S
H1325 C1330 0.949 . S
H1326 C1332 0.950 . S
H1327 C1333 0.950 . S
H1328 C1334 0.949 . S
C1329 H1324 0.950 . S
C1329 C1331 1.327 . S
C1329 C1335 1.429 . S
C1330 C1322 1.574 . S
C1330 H1325 0.949 . S
C1330 C1336 1.368 . S
C1331 C1315 1.349 . S
C1331 H1323 0.950 . S
C1331 C1329 1.327 . S
C1332 C1320 1.349 . S
C1332 H1326 0.950 . S
C1332 C1333 1.327 . S
C1333 H1327 0.950 . S
C1333 C1332 1.327 . S
C1333 C1337 1.429 . S
C1334 C1317 1.574 . S
C1334 H1328 0.949 . S
C1334 C1338 1.368 . S
C1335 C1316 1.429 . S
C1335 C1329 1.429 . S
C1335 C1336 1.523 . S
C1336 C1317 1.368 . S
C1336 C1330 1.368 . S
C1336 C1335 1.523 . S
C1337 C1321 1.429 . S
C1337 C1333 1.429 . S
C1337 C1338 1.523 . S
C1338 C1322 1.368 . S
C1338 C1334 1.368 . S
C1338 C1337 1.523 . S
H1339 C1314 0.950 . S
H1340 C1316 0.950 . S
H1341 C1317 0.949 . S
H1342 C1319 0.950 . S
H1343 C1321 0.950 . S
C1344 C1345 1.349 . S
C1344 C1346 1.327 . S
C1344 H1369 0.950 . S
C1345 C1344 1.349 . S
C1345 C1361 1.349 . S
C1346 C1344 1.327 . S
C1346 C1365 1.429 . S
C1346 H1370 0.950 . S
C1347 C1364 1.574 . S
C1347 C1366 1.368 . S
C1347 H1371 0.949 . S
H1348 C1352 0.949 . S
C1349 C1350 1.349 . S
C1349 C1351 1.327 . S
C1349 H1372 0.950 . S
C1350 C1349 1.349 . S
C1350 C1362 1.349 . S
C1351 C1349 1.327 . S
C1351 C1367 1.429 . S
C1351 H1373 0.950 . S
C1352 H1348 0.949 . S
C1352 C1360 1.574 . S
C1352 C1368 1.368 . S
H1353 C1361 0.950 . S
H1354 C1359 0.950 . S
H1355 C1360 0.949 . S
H1356 C1362 0.950 . S
H1357 C1363 0.950 . S
H1358 C1364 0.949 . S
C1359 H1354 0.950 . S
C1359 C1361 1.327 . S
C1359 C1365 1.429 . S
C1360 C1352 1.574 . S
C1360 H1355 0.949 . S
C1360 C1366 1.368 . S
C1361 C1345 1.349 . S
C1361 H1353 0.950 . S
C1361 C1359 1.327 . S
C1362 C1350 1.349 . S
C1362 H1356 0.950 . S
C1362 C1363 1.327 . S
C1363 H1357 0.950 . S
C1363 C1362 1.327 . S
C1363 C1367 1.429 . S
C1364 C1347 1.574 . S
C1364 H1358 0.949 . S
C1364 C1368 1.368 . S
C1365 C1346 1.429 . S
C1365 C1359 1.429 . S
C1365 C1366 1.523 . S
C1366 C1347 1.368 . S
C1366 C1360 1.368 . S
C1366 C1365 1.523 . S
C1367 C1351 1.429 . S
C1367 C1363 1.429 . S
C1367 C1368 1.523 . S
C1368 C1352 1.368 . S
C1368 C1364 1.368 . S
C1368 C1367 1.523 . S
H1369 C1344 0.950 . S
H1370 C1346 0.950 . S
H1371 C1347 0.949 . S
H1372 C1349 0.950 . S
H1373 C1351 0.950 . S
C1374 C1375 1.349 . S
C1374 C1376 1.327 . S
C1374 H1399 0.950 . S
C1375 C1374 1.349 . S
C1375 C1391 1.349 . S
C1376 C1374 1.327 . S
C1376 C1395 1.429 . S
C1376 H1400 0.950 . S
C1377 C1394 1.574 . S
C1377 C1396 1.368 . S
C1377 H1401 0.949 . S
H1378 C1382 0.949 . S
C1379 C1380 1.349 . S
C1379 C1381 1.327 . S
C1379 H1402 0.950 . S
C1380 C1379 1.349 . S
C1380 C1392 1.349 . S
C1381 C1379 1.327 . S
C1381 C1397 1.429 . S
C1381 H1403 0.950 . S
C1382 H1378 0.949 . S
C1382 C1390 1.574 . S
C1382 C1398 1.368 . S
H1383 C1391 0.950 . S
H1384 C1389 0.950 . S
H1385 C1390 0.949 . S
H1386 C1392 0.950 . S
H1387 C1393 0.950 . S
H1388 C1394 0.949 . S
C1389 H1384 0.950 . S
C1389 C1391 1.327 . S
C1389 C1395 1.429 . S
C1390 C1382 1.574 . S
C1390 H1385 0.949 . S
C1390 C1396 1.368 . S
C1391 C1375 1.349 . S
C1391 H1383 0.950 . S
C1391 C1389 1.327 . S
C1392 C1380 1.349 . S
C1392 H1386 0.950 . S
C1392 C1393 1.327 . S
C1393 H1387 0.950 . S
C1393 C1392 1.327 . S
C1393 C1397 1.429 . S
C1394 C1377 1.574 . S
C1394 H1388 0.949 . S
C1394 C1398 1.368 . S
C1395 C1376 1.429 . S
C1395 C1389 1.429 . S
C1395 C1396 1.523 1_556 S
C1396 C1377 1.368 . S
C1396 C1390 1.368 . S
C1396 C1395 1.523 1_554 S
C1397 C1381 1.429 . S
C1397 C1393 1.429 . S
C1397 C1398 1.523 . S
C1398 C1382 1.368 . S
C1398 C1394 1.368 . S
C1398 C1397 1.523 . S
H1399 C1374 0.950 . S
H1400 C1376 0.950 . S
H1401 C1377 0.949 . S
H1402 C1379 0.950 . S
H1403 C1381 0.950 . S
C1404 C1405 1.349 . S
C1404 C1406 1.327 . S
C1404 H1429 0.950 . S
C1405 C1404 1.349 . S
C1405 C1421 1.349 . S
C1406 C1404 1.327 . S
C1406 C1425 1.429 . S
C1406 H1430 0.950 . S
C1407 C1424 1.574 . S
C1407 C1426 1.368 . S
C1407 H1431 0.949 . S
H1408 C1412 0.949 . S
C1409 C1410 1.349 . S
C1409 C1411 1.327 . S
C1409 H1432 0.950 . S
C1410 C1409 1.349 . S
C1410 C1422 1.349 . S
C1411 C1409 1.327 . S
C1411 C1427 1.429 . S
C1411 H1433 0.950 . S
C1412 H1408 0.949 . S
C1412 C1420 1.574 . S
C1412 C1428 1.368 . S
H1413 C1421 0.950 . S
H1414 C1419 0.950 . S
H1415 C1420 0.949 . S
H1416 C1422 0.950 . S
H1417 C1423 0.950 . S
H1418 C1424 0.949 . S
C1419 H1414 0.950 . S
C1419 C1421 1.327 . S
C1419 C1425 1.429 . S
C1420 C1412 1.574 . S
C1420 H1415 0.949 . S
C1420 C1426 1.368 . S
C1421 C1405 1.349 . S
C1421 H1413 0.950 . S
C1421 C1419 1.327 . S
C1422 C1410 1.349 . S
C1422 H1416 0.950 . S
C1422 C1423 1.327 . S
C1423 H1417 0.950 . S
C1423 C1422 1.327 . S
C1423 C1427 1.429 . S
C1424 C1407 1.574 . S
C1424 H1418 0.949 . S
C1424 C1428 1.368 . S
C1425 C1406 1.429 . S
C1425 C1419 1.429 . S
C1425 C1426 1.523 . S
C1426 C1407 1.368 . S
C1426 C1420 1.368 . S
C1426 C1425 1.523 . S
C1427 C1411 1.429 . S
C1427 C1423 1.429 . S
C1427 C1428 1.523 . S
C1428 C1412 1.368 . S
C1428 C1424 1.368 . S
C1428 C1427 1.523 . S
H1429 C1404 0.950 . S
H1430 C1406 0.950 . S
H1431 C1407 0.949 . S
H1432 C1409 0.950 . S
H1433 C1411 0.950 . S
C1434 C1435 1.349 . S
C1434 C1436 1.327 . S
C1434 H1459 0.950 . S
C1435 C1434 1.349 . S
C1435 C1451 1.349 . S
C1436 C1434 1.327 . S
C1436 C1455 1.429 . S
C1436 H1460 0.950 . S
C1437 C1454 1.574 . S
C1437 C1456 1.368 . S
C1437 H1461 0.949 . S
H1438 C1442 0.949 . S
C1439 C1440 1.349 . S
C1439 C1441 1.327 . S
C1439 H1462 0.950 . S
C1440 C1439 1.349 . S
C1440 C1452 1.349 . S
C1441 C1439 1.327 . S
C1441 C1457 1.429 . S
C1441 H1463 0.950 . S
C1442 H1438 0.949 . S
C1442 C1450 1.574 . S
C1442 C1458 1.368 . S
H1443 C1451 0.950 . S
H1444 C1449 0.950 . S
H1445 C1450 0.949 . S
H1446 C1452 0.950 . S
H1447 C1453 0.950 . S
H1448 C1454 0.949 . S
C1449 H1444 0.950 . S
C1449 C1451 1.327 . S
C1449 C1455 1.429 . S
C1450 C1442 1.574 . S
C1450 H1445 0.949 . S
C1450 C1456 1.368 . S
C1451 C1435 1.349 . S
C1451 H1443 0.950 . S
C1451 C1449 1.327 . S
C1452 C1440 1.349 . S
C1452 H1446 0.950 . S
C1452 C1453 1.327 . S
C1453 H1447 0.950 . S
C1453 C1452 1.327 . S
C1453 C1457 1.429 . S
C1454 C1437 1.574 . S
C1454 H1448 0.949 . S
C1454 C1458 1.368 . S
C1455 C1436 1.429 . S
C1455 C1449 1.429 . S
C1455 C1456 1.523 1_556 S
C1456 C1437 1.368 . S
C1456 C1450 1.368 . S
C1456 C1455 1.523 1_554 S
C1457 C1441 1.429 . S
C1457 C1453 1.429 . S
C1457 C1458 1.523 . S
C1458 C1442 1.368 . S
C1458 C1454 1.368 . S
C1458 C1457 1.523 . S
H1459 C1434 0.950 . S
H1460 C1436 0.950 . S
H1461 C1437 0.949 . S
H1462 C1439 0.950 . S
H1463 C1441 0.950 . S
C1464 C1465 1.349 . S
C1464 C1466 1.327 . S
C1464 H1489 0.950 . S
C1465 C1464 1.349 . S
C1465 C1481 1.349 . S
C1466 C1464 1.327 . S
C1466 C1485 1.429 . S
C1466 H1490 0.950 . S
C1467 C1484 1.574 . S
C1467 C1486 1.368 . S
C1467 H1491 0.949 . S
H1468 C1472 0.949 . S
C1469 C1470 1.349 . S
C1469 C1471 1.327 . S
C1469 H1492 0.950 . S
C1470 C1469 1.349 . S
C1470 C1482 1.349 . S
C1471 C1469 1.327 . S
C1471 C1487 1.429 . S
C1471 H1493 0.950 . S
C1472 H1468 0.949 . S
C1472 C1480 1.574 . S
C1472 C1488 1.368 . S
H1473 C1481 0.950 . S
H1474 C1479 0.950 . S
H1475 C1480 0.949 . S
H1476 C1482 0.950 . S
H1477 C1483 0.950 . S
H1478 C1484 0.949 . S
C1479 H1474 0.950 . S
C1479 C1481 1.327 . S
C1479 C1485 1.429 . S
C1480 C1472 1.574 . S
C1480 H1475 0.949 . S
C1480 C1486 1.368 . S
C1481 C1465 1.349 . S
C1481 H1473 0.950 . S
C1481 C1479 1.327 . S
C1482 C1470 1.349 . S
C1482 H1476 0.950 . S
C1482 C1483 1.327 . S
C1483 H1477 0.950 . S
C1483 C1482 1.327 . S
C1483 C1487 1.429 . S
C1484 C1467 1.574 . S
C1484 H1478 0.949 . S
C1484 C1488 1.368 . S
C1485 C1466 1.429 . S
C1485 C1479 1.429 . S
C1485 C1486 1.523 . S
C1486 C1467 1.368 . S
C1486 C1480 1.368 . S
C1486 C1485 1.523 . S
C1487 C1471 1.429 . S
C1487 C1483 1.429 . S
C1487 C1488 1.523 . S
C1488 C1472 1.368 . S
C1488 C1484 1.368 . S
C1488 C1487 1.523 . S
H1489 C1464 0.950 . S
H1490 C1466 0.950 . S
H1491 C1467 0.949 . S
H1492 C1469 0.950 . S
H1493 C1471 0.950 . S
C1494 C1495 1.349 . S
C1494 C1496 1.327 . S
C1494 H1519 0.950 . S
C1495 C1494 1.349 . S
C1495 C1511 1.349 . S
C1496 C1494 1.327 . S
C1496 C1515 1.429 . S
C1496 H1520 0.950 . S
C1497 C1514 1.574 . S
C1497 C1516 1.368 . S
C1497 H1521 0.949 . S
H1498 C1502 0.949 . S
C1499 C1500 1.349 . S
C1499 C1501 1.327 . S
C1499 H1522 0.950 . S
C1500 C1499 1.349 . S
C1500 C1512 1.349 . S
C1501 C1499 1.327 . S
C1501 C1517 1.429 . S
C1501 H1523 0.950 . S
C1502 H1498 0.949 . S
C1502 C1510 1.574 . S
C1502 C1518 1.368 . S
H1503 C1511 0.950 . S
H1504 C1509 0.950 . S
H1505 C1510 0.949 . S
H1506 C1512 0.950 . S
H1507 C1513 0.950 . S
H1508 C1514 0.949 . S
C1509 H1504 0.950 . S
C1509 C1511 1.327 . S
C1509 C1515 1.429 . S
C1510 C1502 1.574 . S
C1510 H1505 0.949 . S
C1510 C1516 1.368 . S
C1511 C1495 1.349 . S
C1511 H1503 0.950 . S
C1511 C1509 1.327 . S
C1512 C1500 1.349 . S
C1512 H1506 0.950 . S
C1512 C1513 1.327 . S
C1513 H1507 0.950 . S
C1513 C1512 1.327 . S
C1513 C1517 1.429 . S
C1514 C1497 1.574 . S
C1514 H1508 0.949 . S
C1514 C1518 1.368 . S
C1515 C1496 1.429 . S
C1515 C1509 1.429 . S
C1515 C1516 1.523 . S
C1516 C1497 1.368 . S
C1516 C1510 1.368 . S
C1516 C1515 1.523 . S
C1517 C1501 1.429 . S
C1517 C1513 1.429 . S
C1517 C1518 1.523 1_554 S
C1518 C1502 1.368 . S
C1518 C1514 1.368 . S
C1518 C1517 1.523 1_556 S
H1519 C1494 0.950 . S
H1520 C1496 0.950 . S
H1521 C1497 0.949 . S
H1522 C1499 0.950 . S
H1523 C1501 0.950 . S
C1524 C1525 1.349 . S
C1524 C1526 1.327 . S
C1524 H1549 0.950 . S
C1525 C1524 1.349 . S
C1525 C1541 1.349 . S
C1526 C1524 1.327 . S
C1526 C1545 1.429 . S
C1526 H1550 0.950 . S
C1527 C1544 1.574 . S
C1527 C1546 1.368 . S
C1527 H1551 0.949 . S
H1528 C1532 0.949 . S
C1529 C1530 1.349 . S
C1529 C1531 1.327 . S
C1529 H1552 0.950 . S
C1530 C1529 1.349 . S
C1530 C1542 1.349 . S
C1531 C1529 1.327 . S
C1531 C1547 1.429 . S
C1531 H1553 0.950 . S
C1532 H1528 0.949 . S
C1532 C1540 1.574 . S
C1532 C1548 1.368 . S
H1533 C1541 0.950 . S
H1534 C1539 0.950 . S
H1535 C1540 0.949 . S
H1536 C1542 0.950 . S
H1537 C1543 0.950 . S
H1538 C1544 0.949 . S
C1539 H1534 0.950 . S
C1539 C1541 1.327 . S
C1539 C1545 1.429 . S
C1540 C1532 1.574 . S
C1540 H1535 0.949 . S
C1540 C1546 1.368 . S
C1541 C1525 1.349 . S
C1541 H1533 0.950 . S
C1541 C1539 1.327 . S
C1542 C1530 1.349 . S
C1542 H1536 0.950 . S
C1542 C1543 1.327 . S
C1543 H1537 0.950 . S
C1543 C1542 1.327 . S
C1543 C1547 1.429 . S
C1544 C1527 1.574 . S
C1544 H1538 0.949 . S
C1544 C1548 1.368 . S
C1545 C1526 1.429 . S
C1545 C1539 1.429 . S
C1545 C1546 1.523 . S
C1546 C1527 1.368 . S
C1546 C1540 1.368 . S
C1546 C1545 1.523 . S
C1547 C1531 1.429 . S
C1547 C1543 1.429 . S
C1547 C1548 1.523 . S
C1548 C1532 1.368 . S
C1548 C1544 1.368 . S
C1548 C1547 1.523 . S
H1549 C1524 0.950 . S
H1550 C1526 0.950 . S
H1551 C1527 0.949 . S
H1552 C1529 0.950 . S
H1553 C1531 0.950 . S
C1554 C1555 1.349 . S
C1554 C1556 1.327 . S
C1554 H1579 0.950 . S
C1555 C1554 1.349 . S
C1555 C1571 1.349 . S
C1556 C1554 1.327 . S
C1556 C1575 1.429 . S
C1556 H1580 0.950 . S
C1557 C1574 1.574 . S
C1557 C1576 1.368 . S
C1557 H1581 0.949 . S
H1558 C1562 0.949 . S
C1559 C1560 1.349 . S
C1559 C1561 1.327 . S
C1559 H1582 0.950 . S
C1560 C1559 1.349 . S
C1560 C1572 1.349 . S
C1561 C1559 1.327 . S
C1561 C1577 1.429 . S
C1561 H1583 0.950 . S
C1562 H1558 0.949 . S
C1562 C1570 1.574 . S
C1562 C1578 1.368 . S
H1563 C1571 0.950 . S
H1564 C1569 0.950 . S
H1565 C1570 0.949 . S
H1566 C1572 0.950 . S
H1567 C1573 0.950 . S
H1568 C1574 0.949 . S
C1569 H1564 0.950 . S
C1569 C1571 1.327 . S
C1569 C1575 1.429 . S
C1570 C1562 1.574 . S
C1570 H1565 0.949 . S
C1570 C1576 1.368 . S
C1571 C1555 1.349 . S
C1571 H1563 0.950 . S
C1571 C1569 1.327 . S
C1572 C1560 1.349 . S
C1572 H1566 0.950 . S
C1572 C1573 1.327 . S
C1573 H1567 0.950 . S
C1573 C1572 1.327 . S
C1573 C1577 1.429 . S
C1574 C1557 1.574 . S
C1574 H1568 0.949 . S
C1574 C1578 1.368 . S
C1575 C1556 1.429 . S
C1575 C1569 1.429 . S
C1575 C1576 1.523 . S
C1576 C1557 1.368 . S
C1576 C1570 1.368 . S
C1576 C1575 1.523 . S
C1577 C1561 1.429 . S
C1577 C1573 1.429 . S
C1577 C1578 1.523 1_554 S
C1578 C1562 1.368 . S
C1578 C1574 1.368 . S
C1578 C1577 1.523 1_556 S
H1579 C1554 0.950 . S
H1580 C1556 0.950 . S
H1581 C1557 0.949 . S
H1582 C1559 0.950 . S
H1583 C1561 0.950 . S
C1584 C1585 1.349 . S
C1584 C1586 1.327 . S
C1584 H1609 0.950 . S
C1585 C1584 1.349 . S
C1585 C1601 1.349 . S
C1586 C1584 1.327 . S
C1586 C1605 1.429 . S
C1586 H1610 0.950 . S
C1587 C1604 1.574 . S
C1587 C1606 1.368 . S
C1587 H1611 0.949 . S
H1588 C1592 0.949 . S
C1589 C1590 1.349 . S
C1589 C1591 1.327 . S
C1589 H1612 0.950 . S
C1590 C1589 1.349 . S
C1590 C1602 1.349 . S
C1591 C1589 1.327 . S
C1591 C1607 1.429 . S
C1591 H1613 0.950 . S
C1592 H1588 0.949 . S
C1592 C1600 1.574 . S
C1592 C1608 1.368 . S
H1593 C1601 0.950 . S
H1594 C1599 0.950 . S
H1595 C1600 0.949 . S
H1596 C1602 0.950 . S
H1597 C1603 0.950 . S
H1598 C1604 0.949 . S
C1599 H1594 0.950 . S
C1599 C1601 1.327 . S
C1599 C1605 1.429 . S
C1600 C1592 1.574 . S
C1600 H1595 0.949 . S
C1600 C1606 1.368 . S
C1601 C1585 1.349 . S
C1601 H1593 0.950 . S
C1601 C1599 1.327 . S
C1602 C1590 1.349 . S
C1602 H1596 0.950 . S
C1602 C1603 1.327 . S
C1603 H1597 0.950 . S
C1603 C1602 1.327 . S
C1603 C1607 1.429 . S
C1604 C1587 1.574 . S
C1604 H1598 0.949 . S
C1604 C1608 1.368 . S
C1605 C1586 1.429 . S
C1605 C1599 1.429 . S
C1605 C1606 1.523 . S
C1606 C1587 1.368 . S
C1606 C1600 1.368 . S
C1606 C1605 1.523 . S
C1607 C1591 1.429 . S
C1607 C1603 1.429 . S
C1607 C1608 1.523 . S
C1608 C1592 1.368 . S
C1608 C1604 1.368 . S
C1608 C1607 1.523 . S
H1609 C1584 0.950 . S
H1610 C1586 0.950 . S
H1611 C1587 0.949 . S
H1612 C1589 0.950 . S
H1613 C1591 0.950 . S
C1614 C1615 1.349 . S
C1614 C1616 1.327 . S
C1614 H1639 0.950 . S
C1615 C1614 1.349 . S
C1615 C1631 1.349 . S
C1616 C1614 1.327 . S
C1616 C1635 1.429 . S
C1616 H1640 0.950 . S
C1617 C1634 1.574 . S
C1617 C1636 1.368 . S
C1617 H1641 0.949 . S
H1618 C1622 0.949 . S
C1619 C1620 1.349 . S
C1619 C1621 1.327 . S
C1619 H1642 0.950 . S
C1620 C1619 1.349 . S
C1620 C1632 1.349 . S
C1621 C1619 1.327 . S
C1621 C1637 1.429 . S
C1621 H1643 0.950 . S
C1622 H1618 0.949 . S
C1622 C1630 1.574 . S
C1622 C1638 1.368 . S
H1623 C1631 0.950 . S
H1624 C1629 0.950 . S
H1625 C1630 0.949 . S
H1626 C1632 0.950 . S
H1627 C1633 0.950 . S
H1628 C1634 0.949 . S
C1629 H1624 0.950 . S
C1629 C1631 1.327 . S
C1629 C1635 1.429 . S
C1630 C1622 1.574 . S
C1630 H1625 0.949 . S
C1630 C1636 1.368 . S
C1631 C1615 1.349 . S
C1631 H1623 0.950 . S
C1631 C1629 1.327 . S
C1632 C1620 1.349 . S
C1632 H1626 0.950 . S
C1632 C1633 1.327 . S
C1633 H1627 0.950 . S
C1633 C1632 1.327 . S
C1633 C1637 1.429 . S
C1634 C1617 1.574 . S
C1634 H1628 0.949 . S
C1634 C1638 1.368 . S
C1635 C1616 1.429 . S
C1635 C1629 1.429 . S
C1635 C1636 1.523 1_565 S
C1636 C1617 1.368 . S
C1636 C1630 1.368 . S
C1636 C1635 1.523 1_545 S
C1637 C1621 1.429 . S
C1637 C1633 1.429 . S
C1637 C1638 1.523 . S
C1638 C1622 1.368 . S
C1638 C1634 1.368 . S
C1638 C1637 1.523 . S
H1639 C1614 0.950 . S
H1640 C1616 0.950 . S
H1641 C1617 0.949 . S
H1642 C1619 0.950 . S
H1643 C1621 0.950 . S
C1644 C1645 1.349 . S
C1644 C1646 1.327 . S
C1644 H1669 0.950 . S
C1645 C1644 1.349 . S
C1645 C1661 1.349 . S
C1646 C1644 1.327 . S
C1646 C1665 1.429 . S
C1646 H1670 0.950 . S
C1647 C1664 1.574 . S
C1647 C1666 1.368 . S
C1647 H1671 0.949 . S
H1648 C1652 0.949 . S
C1649 C1650 1.349 . S
C1649 C1651 1.327 . S
C1649 H1672 0.950 . S
C1650 C1649 1.349 . S
C1650 C1662 1.349 . S
C1651 C1649 1.327 . S
C1651 C1667 1.429 . S
C1651 H1673 0.950 . S
C1652 H1648 0.949 . S
C1652 C1660 1.574 . S
C1652 C1668 1.368 . S
H1653 C1661 0.950 . S
H1654 C1659 0.950 . S
H1655 C1660 0.949 . S
H1656 C1662 0.950 . S
H1657 C1663 0.950 . S
H1658 C1664 0.949 . S
C1659 H1654 0.950 . S
C1659 C1661 1.327 . S
C1659 C1665 1.429 . S
C1660 C1652 1.574 . S
C1660 H1655 0.949 . S
C1660 C1666 1.368 . S
C1661 C1645 1.349 . S
C1661 H1653 0.950 . S
C1661 C1659 1.327 . S
C1662 C1650 1.349 . S
C1662 H1656 0.950 . S
C1662 C1663 1.327 . S
C1663 H1657 0.950 . S
C1663 C1662 1.327 . S
C1663 C1667 1.429 . S
C1664 C1647 1.574 . S
C1664 H1658 0.949 . S
C1664 C1668 1.368 . S
C1665 C1646 1.429 . S
C1665 C1659 1.429 . S
C1665 C1666 1.523 . S
C1666 C1647 1.368 . S
C1666 C1660 1.368 . S
C1666 C1665 1.523 . S
C1667 C1651 1.429 . S
C1667 C1663 1.429 . S
C1667 C1668 1.523 . S
C1668 C1652 1.368 . S
C1668 C1664 1.368 . S
C1668 C1667 1.523 . S
H1669 C1644 0.950 . S
H1670 C1646 0.950 . S
H1671 C1647 0.949 . S
H1672 C1649 0.950 . S
H1673 C1651 0.950 . S
C1674 C1675 1.349 . S
C1674 C1676 1.327 . S
C1674 H1699 0.950 . S
C1675 C1674 1.349 . S
C1675 C1691 1.349 . S
C1676 C1674 1.327 . S
C1676 C1695 1.429 . S
C1676 H1700 0.950 . S
C1677 C1694 1.574 . S
C1677 C1696 1.368 . S
C1677 H1701 0.949 . S
H1678 C1682 0.949 . S
C1679 C1680 1.349 . S
C1679 C1681 1.327 . S
C1679 H1702 0.950 . S
C1680 C1679 1.349 . S
C1680 C1692 1.349 . S
C1681 C1679 1.327 . S
C1681 C1697 1.429 . S
C1681 H1703 0.950 . S
C1682 H1678 0.949 . S
C1682 C1690 1.574 . S
C1682 C1698 1.368 . S
H1683 C1691 0.950 . S
H1684 C1689 0.950 . S
H1685 C1690 0.949 . S
H1686 C1692 0.950 . S
H1687 C1693 0.950 . S
H1688 C1694 0.949 . S
C1689 H1684 0.950 . S
C1689 C1691 1.327 . S
C1689 C1695 1.429 . S
C1690 C1682 1.574 . S
C1690 H1685 0.949 . S
C1690 C1696 1.368 . S
C1691 C1675 1.349 . S
C1691 H1683 0.950 . S
C1691 C1689 1.327 . S
C1692 C1680 1.349 . S
C1692 H1686 0.950 . S
C1692 C1693 1.327 . S
C1693 H1687 0.950 . S
C1693 C1692 1.327 . S
C1693 C1697 1.429 . S
C1694 C1677 1.574 . S
C1694 H1688 0.949 . S
C1694 C1698 1.368 . S
C1695 C1676 1.429 . S
C1695 C1689 1.429 . S
C1695 C1696 1.523 1_545 S
C1696 C1677 1.368 . S
C1696 C1690 1.368 . S
C1696 C1695 1.523 1_565 S
C1697 C1681 1.429 . S
C1697 C1693 1.429 . S
C1697 C1698 1.523 . S
C1698 C1682 1.368 . S
C1698 C1694 1.368 . S
C1698 C1697 1.523 . S
H1699 C1674 0.950 . S
H1700 C1676 0.950 . S
H1701 C1677 0.949 . S
H1702 C1679 0.950 . S
H1703 C1681 0.950 . S
C1704 C1705 1.349 . S
C1704 C1706 1.327 . S
C1704 H1729 0.950 . S
C1705 C1704 1.349 . S
C1705 C1721 1.349 . S
C1706 C1704 1.327 . S
C1706 C1725 1.429 . S
C1706 H1730 0.950 . S
C1707 C1724 1.574 . S
C1707 C1726 1.368 . S
C1707 H1731 0.949 . S
H1708 C1712 0.949 . S
C1709 C1710 1.349 . S
C1709 C1711 1.327 . S
C1709 H1732 0.950 . S
C1710 C1709 1.349 . S
C1710 C1722 1.349 . S
C1711 C1709 1.327 . S
C1711 C1727 1.429 . S
C1711 H1733 0.950 . S
C1712 H1708 0.949 . S
C1712 C1720 1.574 . S
C1712 C1728 1.368 . S
H1713 C1721 0.950 . S
H1714 C1719 0.950 . S
H1715 C1720 0.949 . S
H1716 C1722 0.950 . S
H1717 C1723 0.950 . S
H1718 C1724 0.949 . S
C1719 H1714 0.950 . S
C1719 C1721 1.327 . S
C1719 C1725 1.429 . S
C1720 C1712 1.574 . S
C1720 H1715 0.949 . S
C1720 C1726 1.368 . S
C1721 C1705 1.349 . S
C1721 H1713 0.950 . S
C1721 C1719 1.327 . S
C1722 C1710 1.349 . S
C1722 H1716 0.950 . S
C1722 C1723 1.327 . S
C1723 H1717 0.950 . S
C1723 C1722 1.327 . S
C1723 C1727 1.429 . S
C1724 C1707 1.574 . S
C1724 H1718 0.949 . S
C1724 C1728 1.368 . S
C1725 C1706 1.429 . S
C1725 C1719 1.429 . S
C1725 C1726 1.523 . S
C1726 C1707 1.368 . S
C1726 C1720 1.368 . S
C1726 C1725 1.523 . S
C1727 C1711 1.429 . S
C1727 C1723 1.429 . S
C1727 C1728 1.523 . S
C1728 C1712 1.368 . S
C1728 C1724 1.368 . S
C1728 C1727 1.523 . S
H1729 C1704 0.950 . S
H1730 C1706 0.950 . S
H1731 C1707 0.949 . S
H1732 C1709 0.950 . S
H1733 C1711 0.950 . S
C1734 C1735 1.349 . S
C1734 C1736 1.327 . S
C1734 H1759 0.950 . S
C1735 C1734 1.349 . S
C1735 C1751 1.349 . S
C1736 C1734 1.327 . S
C1736 C1755 1.429 . S
C1736 H1760 0.950 . S
C1737 C1754 1.574 . S
C1737 C1756 1.368 . S
C1737 H1761 0.949 . S
H1738 C1742 0.949 . S
C1739 C1740 1.349 . S
C1739 C1741 1.327 . S
C1739 H1762 0.950 . S
C1740 C1739 1.349 . S
C1740 C1752 1.349 . S
C1741 C1739 1.327 . S
C1741 C1757 1.429 . S
C1741 H1763 0.950 . S
C1742 H1738 0.949 . S
C1742 C1750 1.574 . S
C1742 C1758 1.368 . S
H1743 C1751 0.950 . S
H1744 C1749 0.950 . S
H1745 C1750 0.949 . S
H1746 C1752 0.950 . S
H1747 C1753 0.950 . S
H1748 C1754 0.949 . S
C1749 H1744 0.950 . S
C1749 C1751 1.327 . S
C1749 C1755 1.429 . S
C1750 C1742 1.574 . S
C1750 H1745 0.949 . S
C1750 C1756 1.368 . S
C1751 C1735 1.349 . S
C1751 H1743 0.950 . S
C1751 C1749 1.327 . S
C1752 C1740 1.349 . S
C1752 H1746 0.950 . S
C1752 C1753 1.327 . S
C1753 H1747 0.950 . S
C1753 C1752 1.327 . S
C1753 C1757 1.429 . S
C1754 C1737 1.574 . S
C1754 H1748 0.949 . S
C1754 C1758 1.368 . S
C1755 C1736 1.429 . S
C1755 C1749 1.429 . S
C1755 C1756 1.523 1_565 S
C1756 C1737 1.368 . S
C1756 C1750 1.368 . S
C1756 C1755 1.523 1_545 S
C1757 C1741 1.429 . S
C1757 C1753 1.429 . S
C1757 C1758 1.523 . S
C1758 C1742 1.368 . S
C1758 C1754 1.368 . S
C1758 C1757 1.523 . S
H1759 C1734 0.950 . S
H1760 C1736 0.950 . S
H1761 C1737 0.949 . S
H1762 C1739 0.950 . S
H1763 C1741 0.950 . S
C1764 C1765 1.349 . S
C1764 C1766 1.327 . S
C1764 H1789 0.950 . S
C1765 C1764 1.349 . S
C1765 C1781 1.349 . S
C1766 C1764 1.327 . S
C1766 C1785 1.429 . S
C1766 H1790 0.950 . S
C1767 C1784 1.574 . S
C1767 C1786 1.368 . S
C1767 H1791 0.949 . S
H1768 C1772 0.949 . S
C1769 C1770 1.349 . S
C1769 C1771 1.327 . S
C1769 H1792 0.950 . S
C1770 C1769 1.349 . S
C1770 C1782 1.349 . S
C1771 C1769 1.327 . S
C1771 C1787 1.429 . S
C1771 H1793 0.950 . S
C1772 H1768 0.949 . S
C1772 C1780 1.574 . S
C1772 C1788 1.368 . S
H1773 C1781 0.950 . S
H1774 C1779 0.950 . S
H1775 C1780 0.949 . S
H1776 C1782 0.950 . S
H1777 C1783 0.950 . S
H1778 C1784 0.949 . S
C1779 H1774 0.950 . S
C1779 C1781 1.327 . S
C1779 C1785 1.429 . S
C1780 C1772 1.574 . S
C1780 H1775 0.949 . S
C1780 C1786 1.368 . S
C1781 C1765 1.349 . S
C1781 H1773 0.950 . S
C1781 C1779 1.327 . S
C1782 C1770 1.349 . S
C1782 H1776 0.950 . S
C1782 C1783 1.327 . S
C1783 H1777 0.950 . S
C1783 C1782 1.327 . S
C1783 C1787 1.429 . S
C1784 C1767 1.574 . S
C1784 H1778 0.949 . S
C1784 C1788 1.368 . S
C1785 C1766 1.429 . S
C1785 C1779 1.429 . S
C1785 C1786 1.523 . S
C1786 C1767 1.368 . S
C1786 C1780 1.368 . S
C1786 C1785 1.523 . S
C1787 C1771 1.429 . S
C1787 C1783 1.429 . S
C1787 C1788 1.523 . S
C1788 C1772 1.368 . S
C1788 C1784 1.368 . S
C1788 C1787 1.523 . S
H1789 C1764 0.950 . S
H1790 C1766 0.950 . S
H1791 C1767 0.949 . S
H1792 C1769 0.950 . S
H1793 C1771 0.950 . S
C1794 C1795 1.349 . S
C1794 C1796 1.327 . S
C1794 H1819 0.950 . S
C1795 C1794 1.349 . S
C1795 C1811 1.349 . S
C1796 C1794 1.327 . S
C1796 C1815 1.429 . S
C1796 H1820 0.950 . S
C1797 C1814 1.574 . S
C1797 C1816 1.368 . S
C1797 H1821 0.949 . S
H1798 C1802 0.949 . S
C1799 C1800 1.349 . S
C1799 C1801 1.327 . S
C1799 H1822 0.950 . S
C1800 C1799 1.349 . S
C1800 C1812 1.349 . S
C1801 C1799 1.327 . S
C1801 C1817 1.429 . S
C1801 H1823 0.950 . S
C1802 H1798 0.949 . S
C1802 C1810 1.574 . S
C1802 C1818 1.368 . S
H1803 C1811 0.950 . S
H1804 C1809 0.950 . S
H1805 C1810 0.949 . S
H1806 C1812 0.950 . S
H1807 C1813 0.950 . S
H1808 C1814 0.949 . S
C1809 H1804 0.950 . S
C1809 C1811 1.327 . S
C1809 C1815 1.429 . S
C1810 C1802 1.574 . S
C1810 H1805 0.949 . S
C1810 C1816 1.368 . S
C1811 C1795 1.349 . S
C1811 H1803 0.950 . S
C1811 C1809 1.327 . S
C1812 C1800 1.349 . S
C1812 H1806 0.950 . S
C1812 C1813 1.327 . S
C1813 H1807 0.950 . S
C1813 C1812 1.327 . S
C1813 C1817 1.429 . S
C1814 C1797 1.574 . S
C1814 H1808 0.949 . S
C1814 C1818 1.368 . S
C1815 C1796 1.429 . S
C1815 C1809 1.429 . S
C1815 C1816 1.523 . S
C1816 C1797 1.368 . S
C1816 C1810 1.368 . S
C1816 C1815 1.523 . S
C1817 C1801 1.429 . S
C1817 C1813 1.429 . S
C1817 C1818 1.523 1_545 S
C1818 C1802 1.368 . S
C1818 C1814 1.368 . S
C1818 C1817 1.523 1_565 S
H1819 C1794 0.950 . S
H1820 C1796 0.950 . S
H1821 C1797 0.949 . S
H1822 C1799 0.950 . S
H1823 C1801 0.950 . S
C1824 C1825 1.349 . S
C1824 C1826 1.327 . S
C1824 H1849 0.950 . S
C1825 C1824 1.349 . S
C1825 C1841 1.349 . S
C1826 C1824 1.327 . S
C1826 C1845 1.429 . S
C1826 H1850 0.950 . S
C1827 C1844 1.574 . S
C1827 C1846 1.368 . S
C1827 H1851 0.949 . S
H1828 C1832 0.949 . S
C1829 C1830 1.349 . S
C1829 C1831 1.327 . S
C1829 H1852 0.950 . S
C1830 C1829 1.349 . S
C1830 C1842 1.349 . S
C1831 C1829 1.327 . S
C1831 C1847 1.429 . S
C1831 H1853 0.950 . S
C1832 H1828 0.949 . S
C1832 C1840 1.574 . S
C1832 C1848 1.368 . S
H1833 C1841 0.950 . S
H1834 C1839 0.950 . S
H1835 C1840 0.949 . S
H1836 C1842 0.950 . S
H1837 C1843 0.950 . S
H1838 C1844 0.949 . S
C1839 H1834 0.950 . S
C1839 C1841 1.327 . S
C1839 C1845 1.429 . S
C1840 C1832 1.574 . S
C1840 H1835 0.949 . S
C1840 C1846 1.368 . S
C1841 C1825 1.349 . S
C1841 H1833 0.950 . S
C1841 C1839 1.327 . S
C1842 C1830 1.349 . S
C1842 H1836 0.950 . S
C1842 C1843 1.327 . S
C1843 H1837 0.950 . S
C1843 C1842 1.327 . S
C1843 C1847 1.429 . S
C1844 C1827 1.574 . S
C1844 H1838 0.949 . S
C1844 C1848 1.368 . S
C1845 C1826 1.429 . S
C1845 C1839 1.429 . S
C1845 C1846 1.523 . S
C1846 C1827 1.368 . S
C1846 C1840 1.368 . S
C1846 C1845 1.523 . S
C1847 C1831 1.429 . S
C1847 C1843 1.429 . S
C1847 C1848 1.523 . S
C1848 C1832 1.368 . S
C1848 C1844 1.368 . S
C1848 C1847 1.523 . S
H1849 C1824 0.950 . S
H1850 C1826 0.950 . S
H1851 C1827 0.949 . S
H1852 C1829 0.950 . S
H1853 C1831 0.950 . S
C1854 C1855 1.349 . S
C1854 C1856 1.327 . S
C1854 H1879 0.950 . S
C1855 C1854 1.349 . S
C1855 C1871 1.349 . S
C1856 C1854 1.327 . S
C1856 C1875 1.429 . S
C1856 H1880 0.950 . S
C1857 C1874 1.574 . S
C1857 C1876 1.368 . S
C1857 H1881 0.949 . S
H1858 C1862 0.949 . S
C1859 C1860 1.349 . S
C1859 C1861 1.327 . S
C1859 H1882 0.950 . S
C1860 C1859 1.349 . S
C1860 C1872 1.349 . S
C1861 C1859 1.327 . S
C1861 C1877 1.429 . S
C1861 H1883 0.950 . S
C1862 H1858 0.949 . S
C1862 C1870 1.574 . S
C1862 C1878 1.368 . S
H1863 C1871 0.950 . S
H1864 C1869 0.950 . S
H1865 C1870 0.949 . S
H1866 C1872 0.950 . S
H1867 C1873 0.950 . S
H1868 C1874 0.949 . S
C1869 H1864 0.950 . S
C1869 C1871 1.327 . S
C1869 C1875 1.429 . S
C1870 C1862 1.574 . S
C1870 H1865 0.949 . S
C1870 C1876 1.368 . S
C1871 C1855 1.349 . S
C1871 H1863 0.950 . S
C1871 C1869 1.327 . S
C1872 C1860 1.349 . S
C1872 H1866 0.950 . S
C1872 C1873 1.327 . S
C1873 H1867 0.950 . S
C1873 C1872 1.327 . S
C1873 C1877 1.429 . S
C1874 C1857 1.574 . S
C1874 H1868 0.949 . S
C1874 C1878 1.368 . S
C1875 C1856 1.429 . S
C1875 C1869 1.429 . S
C1875 C1876 1.523 . S
C1876 C1857 1.368 . S
C1876 C1870 1.368 . S
C1876 C1875 1.523 . S
C1877 C1861 1.429 . S
C1877 C1873 1.429 . S
C1877 C1878 1.523 . S
C1878 C1862 1.368 . S
C1878 C1874 1.368 . S
C1878 C1877 1.523 . S
H1879 C1854 0.950 . S
H1880 C1856 0.950 . S
H1881 C1857 0.949 . S
H1882 C1859 0.950 . S
H1883 C1861 0.950 . S
C1884 C1885 1.349 . S
C1884 C1886 1.327 . S
C1884 H1909 0.950 . S
C1885 C1884 1.349 . S
C1885 C1901 1.349 . S
C1886 C1884 1.327 . S
C1886 C1905 1.429 . S
C1886 H1910 0.950 . S
C1887 C1904 1.574 . S
C1887 C1906 1.368 . S
C1887 H1911 0.949 . S
H1888 C1892 0.949 . S
C1889 C1890 1.349 . S
C1889 C1891 1.327 . S
C1889 H1912 0.950 . S
C1890 C1889 1.349 . S
C1890 C1902 1.349 . S
C1891 C1889 1.327 . S
C1891 C1907 1.429 . S
C1891 H1913 0.950 . S
C1892 H1888 0.949 . S
C1892 C1900 1.574 . S
C1892 C1908 1.368 . S
H1893 C1901 0.950 . S
H1894 C1899 0.950 . S
H1895 C1900 0.949 . S
H1896 C1902 0.950 . S
H1897 C1903 0.950 . S
H1898 C1904 0.949 . S
C1899 H1894 0.950 . S
C1899 C1901 1.327 . S
C1899 C1905 1.429 . S
C1900 C1892 1.574 . S
C1900 H1895 0.949 . S
C1900 C1906 1.368 . S
C1901 C1885 1.349 . S
C1901 H1893 0.950 . S
C1901 C1899 1.327 . S
C1902 C1890 1.349 . S
C1902 H1896 0.950 . S
C1902 C1903 1.327 . S
C1903 H1897 0.950 . S
C1903 C1902 1.327 . S
C1903 C1907 1.429 . S
C1904 C1887 1.574 . S
C1904 H1898 0.949 . S
C1904 C1908 1.368 . S
C1905 C1886 1.429 . S
C1905 C1899 1.429 . S
C1905 C1906 1.523 . S
C1906 C1887 1.368 . S
C1906 C1900 1.368 . S
C1906 C1905 1.523 . S
C1907 C1891 1.429 . S
C1907 C1903 1.429 . S
C1907 C1908 1.523 1_655 S
C1908 C1892 1.368 . S
C1908 C1904 1.368 . S
C1908 C1907 1.523 1_455 S
H1909 C1884 0.950 . S
H1910 C1886 0.950 . S
H1911 C1887 0.949 . S
H1912 C1889 0.950 . S
H1913 C1891 0.950 . S
C1914 C1915 1.349 . S
C1914 C1916 1.327 . S
C1914 H1939 0.950 . S
C1915 C1914 1.349 . S
C1915 C1931 1.349 . S
C1916 C1914 1.327 . S
C1916 C1935 1.429 . S
C1916 H1940 0.950 . S
C1917 C1934 1.574 . S
C1917 C1936 1.368 . S
C1917 H1941 0.949 . S
H1918 C1922 0.949 . S
C1919 C1920 1.349 . S
C1919 C1921 1.327 . S
C1919 H1942 0.950 . S
C1920 C1919 1.349 . S
C1920 C1932 1.349 . S
C1921 C1919 1.327 . S
C1921 C1937 1.429 . S
C1921 H1943 0.950 . S
C1922 H1918 0.949 . S
C1922 C1930 1.574 . S
C1922 C1938 1.368 . S
H1923 C1931 0.950 . S
H1924 C1929 0.950 . S
H1925 C1930 0.949 . S
H1926 C1932 0.950 . S
H1927 C1933 0.950 . S
H1928 C1934 0.949 . S
C1929 H1924 0.950 . S
C1929 C1931 1.327 . S
C1929 C1935 1.429 . S
C1930 C1922 1.574 . S
C1930 H1925 0.949 . S
C1930 C1936 1.368 . S
C1931 C1915 1.349 . S
C1931 H1923 0.950 . S
C1931 C1929 1.327 . S
C1932 C1920 1.349 . S
C1932 H1926 0.950 . S
C1932 C1933 1.327 . S
C1933 H1927 0.950 . S
C1933 C1932 1.327 . S
C1933 C1937 1.429 . S
C1934 C1917 1.574 . S
C1934 H1928 0.949 . S
C1934 C1938 1.368 . S
C1935 C1916 1.429 . S
C1935 C1929 1.429 . S
C1935 C1936 1.523 . S
C1936 C1917 1.368 . S
C1936 C1930 1.368 . S
C1936 C1935 1.523 . S
C1937 C1921 1.429 . S
C1937 C1933 1.429 . S
C1937 C1938 1.523 . S
C1938 C1922 1.368 . S
C1938 C1934 1.368 . S
C1938 C1937 1.523 . S
H1939 C1914 0.950 . S
H1940 C1916 0.950 . S
H1941 C1917 0.949 . S
H1942 C1919 0.950 . S
H1943 C1921 0.950 . S
C1944 C1945 1.349 . S
C1944 C1946 1.327 . S
C1944 H1969 0.950 . S
C1945 C1944 1.349 . S
C1945 C1961 1.349 . S
C1946 C1944 1.327 . S
C1946 C1965 1.429 . S
C1946 H1970 0.950 . S
C1947 C1964 1.574 . S
C1947 C1966 1.368 . S
C1947 H1971 0.949 . S
H1948 C1952 0.949 . S
C1949 C1950 1.349 . S
C1949 C1951 1.327 . S
C1949 H1972 0.950 . S
C1950 C1949 1.349 . S
C1950 C1962 1.349 . S
C1951 C1949 1.327 . S
C1951 C1967 1.429 . S
C1951 H1973 0.950 . S
C1952 H1948 0.949 . S
C1952 C1960 1.574 . S
C1952 C1968 1.368 . S
H1953 C1961 0.950 . S
H1954 C1959 0.950 . S
H1955 C1960 0.949 . S
H1956 C1962 0.950 . S
H1957 C1963 0.950 . S
H1958 C1964 0.949 . S
C1959 H1954 0.950 . S
C1959 C1961 1.327 . S
C1959 C1965 1.429 . S
C1960 C1952 1.574 . S
C1960 H1955 0.949 . S
C1960 C1966 1.368 . S
C1961 C1945 1.349 . S
C1961 H1953 0.950 . S
C1961 C1959 1.327 . S
C1962 C1950 1.349 . S
C1962 H1956 0.950 . S
C1962 C1963 1.327 . S
C1963 H1957 0.950 . S
C1963 C1962 1.327 . S
C1963 C1967 1.429 . S
C1964 C1947 1.574 . S
C1964 H1958 0.949 . S
C1964 C1968 1.368 . S
C1965 C1946 1.429 . S
C1965 C1959 1.429 . S
C1965 C1966 1.523 1_455 S
C1966 C1947 1.368 . S
C1966 C1960 1.368 . S
C1966 C1965 1.523 1_655 S
C1967 C1951 1.429 . S
C1967 C1963 1.429 . S
C1967 C1968 1.523 . S
C1968 C1952 1.368 . S
C1968 C1964 1.368 . S
C1968 C1967 1.523 . S
H1969 C1944 0.950 . S
H1970 C1946 0.950 . S
H1971 C1947 0.949 . S
H1972 C1949 0.950 . S
H1973 C1951 0.950 . S
C1974 C1975 1.349 . S
C1974 C1976 1.327 . S
C1974 H1999 0.950 . S
C1975 C1974 1.349 . S
C1975 C1991 1.349 . S
C1976 C1974 1.327 . S
C1976 C1995 1.429 . S
C1976 H2000 0.950 . S
C1977 C1994 1.574 . S
C1977 C1996 1.368 . S
C1977 H2001 0.949 . S
H1978 C1982 0.949 . S
C1979 C1980 1.349 . S
C1979 C1981 1.327 . S
C1979 H2002 0.950 . S
C1980 C1979 1.349 . S
C1980 C1992 1.349 . S
C1981 C1979 1.327 . S
C1981 C1997 1.429 . S
C1981 H2003 0.950 . S
C1982 H1978 0.949 . S
C1982 C1990 1.574 . S
C1982 C1998 1.368 . S
H1983 C1991 0.950 . S
H1984 C1989 0.950 . S
H1985 C1990 0.949 . S
H1986 C1992 0.950 . S
H1987 C1993 0.950 . S
H1988 C1994 0.949 . S
C1989 H1984 0.950 . S
C1989 C1991 1.327 . S
C1989 C1995 1.429 . S
C1990 C1982 1.574 . S
C1990 H1985 0.949 . S
C1990 C1996 1.368 . S
C1991 C1975 1.349 . S
C1991 H1983 0.950 . S
C1991 C1989 1.327 . S
C1992 C1980 1.349 . S
C1992 H1986 0.950 . S
C1992 C1993 1.327 . S
C1993 H1987 0.950 . S
C1993 C1992 1.327 . S
C1993 C1997 1.429 . S
C1994 C1977 1.574 . S
C1994 H1988 0.949 . S
C1994 C1998 1.368 . S
C1995 C1976 1.429 . S
C1995 C1989 1.429 . S
C1995 C1996 1.523 . S
C1996 C1977 1.368 . S
C1996 C1990 1.368 . S
C1996 C1995 1.523 . S
C1997 C1981 1.429 . S
C1997 C1993 1.429 . S
C1997 C1998 1.523 . S
C1998 C1982 1.368 . S
C1998 C1994 1.368 . S
C1998 C1997 1.523 . S
H1999 C1974 0.950 . S
H2000 C1976 0.950 . S
H2001 C1977 0.949 . S
H2002 C1979 0.950 . S
H2003 C1981 0.950 . S
C2004 C2005 1.349 . S
C2004 C2006 1.327 . S
C2004 H2029 0.950 . S
C2005 C2004 1.349 . S
C2005 C2021 1.349 . S
C2006 C2004 1.327 . S
C2006 C2025 1.429 . S
C2006 H2030 0.950 . S
C2007 C2024 1.574 . S
C2007 C2026 1.368 . S
C2007 H2031 0.949 . S
H2008 C2012 0.949 . S
C2009 C2010 1.349 . S
C2009 C2011 1.327 . S
C2009 H2032 0.950 . S
C2010 C2009 1.349 . S
C2010 C2022 1.349 . S
C2011 C2009 1.327 . S
C2011 C2027 1.429 . S
C2011 H2033 0.950 . S
C2012 H2008 0.949 . S
C2012 C2020 1.574 . S
C2012 C2028 1.368 . S
H2013 C2021 0.950 . S
H2014 C2019 0.950 . S
H2015 C2020 0.949 . S
H2016 C2022 0.950 . S
H2017 C2023 0.950 . S
H2018 C2024 0.949 . S
C2019 H2014 0.950 . S
C2019 C2021 1.327 . S
C2019 C2025 1.429 . S
C2020 C2012 1.574 . S
C2020 H2015 0.949 . S
C2020 C2026 1.368 . S
C2021 C2005 1.349 . S
C2021 H2013 0.950 . S
C2021 C2019 1.327 . S
C2022 C2010 1.349 . S
C2022 H2016 0.950 . S
C2022 C2023 1.327 . S
C2023 H2017 0.950 . S
C2023 C2022 1.327 . S
C2023 C2027 1.429 . S
C2024 C2007 1.574 . S
C2024 H2018 0.949 . S
C2024 C2028 1.368 . S
C2025 C2006 1.429 . S
C2025 C2019 1.429 . S
C2025 C2026 1.523 1_655 S
C2026 C2007 1.368 . S
C2026 C2020 1.368 . S
C2026 C2025 1.523 1_455 S
C2027 C2011 1.429 . S
C2027 C2023 1.429 . S
C2027 C2028 1.523 . S
C2028 C2012 1.368 . S
C2028 C2024 1.368 . S
C2028 C2027 1.523 . S
H2029 C2004 0.950 . S
H2030 C2006 0.950 . S
H2031 C2007 0.949 . S
H2032 C2009 0.950 . S
H2033 C2011 0.950 . S
C2034 C2035 1.349 . S
C2034 C2036 1.327 . S
C2034 H2059 0.950 . S
C2035 C2034 1.349 . S
C2035 C2051 1.349 . S
C2036 C2034 1.327 . S
C2036 C2055 1.429 . S
C2036 H2060 0.950 . S
C2037 C2054 1.574 . S
C2037 C2056 1.368 . S
C2037 H2061 0.949 . S
H2038 C2042 0.949 . S
C2039 C2040 1.349 . S
C2039 C2041 1.327 . S
C2039 H2062 0.950 . S
C2040 C2039 1.349 . S
C2040 C2052 1.349 . S
C2041 C2039 1.327 . S
C2041 C2057 1.429 . S
C2041 H2063 0.950 . S
C2042 H2038 0.949 . S
C2042 C2050 1.574 . S
C2042 C2058 1.368 . S
H2043 C2051 0.950 . S
H2044 C2049 0.950 . S
H2045 C2050 0.949 . S
H2046 C2052 0.950 . S
H2047 C2053 0.950 . S
H2048 C2054 0.949 . S
C2049 H2044 0.950 . S
C2049 C2051 1.327 . S
C2049 C2055 1.429 . S
C2050 C2042 1.574 . S
C2050 H2045 0.949 . S
C2050 C2056 1.368 . S
C2051 C2035 1.349 . S
C2051 H2043 0.950 . S
C2051 C2049 1.327 . S
C2052 C2040 1.349 . S
C2052 H2046 0.950 . S
C2052 C2053 1.327 . S
C2053 H2047 0.950 . S
C2053 C2052 1.327 . S
C2053 C2057 1.429 . S
C2054 C2037 1.574 . S
C2054 H2048 0.949 . S
C2054 C2058 1.368 . S
C2055 C2036 1.429 . S
C2055 C2049 1.429 . S
C2055 C2056 1.523 1_455 S
C2056 C2037 1.368 . S
C2056 C2050 1.368 . S
C2056 C2055 1.523 1_655 S
C2057 C2041 1.429 . S
C2057 C2053 1.429 . S
C2057 C2058 1.523 . S
C2058 C2042 1.368 . S
C2058 C2054 1.368 . S
C2058 C2057 1.523 . S
H2059 C2034 0.950 . S
H2060 C2036 0.950 . S
H2061 C2037 0.949 . S
H2062 C2039 0.950 . S
H2063 C2041 0.950 . S
C2064 C2065 1.349 . S
C2064 C2066 1.327 . S
C2064 H2089 0.950 . S
C2065 C2064 1.349 . S
C2065 C2081 1.349 . S
C2066 C2064 1.327 . S
C2066 C2085 1.429 . S
C2066 H2090 0.950 . S
C2067 C2084 1.574 1_655 S
C2067 C2086 1.368 . S
C2067 H2091 0.949 . S
H2068 C2072 0.949 . S
C2069 C2070 1.349 . S
C2069 C2071 1.327 . S
C2069 H2092 0.950 . S
C2070 C2069 1.349 . S
C2070 C2082 1.349 . S
C2071 C2069 1.327 . S
C2071 C2087 1.429 . S
C2071 H2093 0.950 . S
C2072 H2068 0.949 . S
C2072 C2080 1.574 1_455 S
C2072 C2088 1.368 . S
H2073 C2081 0.950 . S
H2074 C2079 0.950 . S
H2075 C2080 0.949 . S
H2076 C2082 0.950 . S
H2077 C2083 0.950 . S
H2078 C2084 0.949 . S
C2079 H2074 0.950 . S
C2079 C2081 1.327 . S
C2079 C2085 1.429 . S
C2080 C2072 1.574 1_655 S
C2080 H2075 0.949 . S
C2080 C2086 1.368 . S
C2081 C2065 1.349 . S
C2081 H2073 0.950 . S
C2081 C2079 1.327 . S
C2082 C2070 1.349 . S
C2082 H2076 0.950 . S
C2082 C2083 1.327 . S
C2083 H2077 0.950 . S
C2083 C2082 1.327 . S
C2083 C2087 1.429 . S
C2084 C2067 1.574 1_455 S
C2084 H2078 0.949 . S
C2084 C2088 1.368 . S
C2085 C2066 1.429 . S
C2085 C2079 1.429 . S
C2085 C2086 1.523 . S
C2086 C2067 1.368 . S
C2086 C2080 1.368 . S
C2086 C2085 1.523 . S
C2087 C2071 1.429 . S
C2087 C2083 1.429 . S
C2087 C2088 1.523 . S
C2088 C2072 1.368 . S
C2088 C2084 1.368 . S
C2088 C2087 1.523 . S
H2089 C2064 0.950 . S
H2090 C2066 0.950 . S
H2091 C2067 0.949 . S
H2092 C2069 0.950 . S
H2093 C2071 0.950 . S
C2094 C2095 1.349 . S
C2094 C2096 1.327 . S
C2094 H2119 0.950 . S
C2095 C2094 1.349 . S
C2095 C2111 1.349 . S
C2096 C2094 1.327 . S
C2096 C2115 1.429 . S
C2096 H2120 0.950 . S
C2097 C2114 1.574 . S
C2097 C2116 1.368 . S
C2097 H2121 0.949 . S
H2098 C2102 0.949 . S
C2099 C2100 1.349 . S
C2099 C2101 1.327 . S
C2099 H2122 0.950 . S
C2100 C2099 1.349 . S
C2100 C2112 1.349 . S
C2101 C2099 1.327 . S
C2101 C2117 1.429 . S
C2101 H2123 0.950 . S
C2102 H2098 0.949 . S
C2102 C2110 1.574 . S
C2102 C2118 1.368 . S
H2103 C2111 0.950 . S
H2104 C2109 0.950 . S
H2105 C2110 0.949 . S
H2106 C2112 0.950 . S
H2107 C2113 0.950 . S
H2108 C2114 0.949 . S
C2109 H2104 0.950 . S
C2109 C2111 1.327 . S
C2109 C2115 1.429 . S
C2110 C2102 1.574 . S
C2110 H2105 0.949 . S
C2110 C2116 1.368 . S
C2111 C2095 1.349 . S
C2111 H2103 0.950 . S
C2111 C2109 1.327 . S
C2112 C2100 1.349 . S
C2112 H2106 0.950 . S
C2112 C2113 1.327 . S
C2113 H2107 0.950 . S
C2113 C2112 1.327 . S
C2113 C2117 1.429 . S
C2114 C2097 1.574 . S
C2114 H2108 0.949 . S
C2114 C2118 1.368 . S
C2115 C2096 1.429 . S
C2115 C2109 1.429 . S
C2115 C2116 1.523 . S
C2116 C2097 1.368 . S
C2116 C2110 1.368 . S
C2116 C2115 1.523 . S
C2117 C2101 1.429 . S
C2117 C2113 1.429 . S
C2117 C2118 1.523 . S
C2118 C2102 1.368 . S
C2118 C2114 1.368 . S
C2118 C2117 1.523 . S
H2119 C2094 0.950 . S
H2120 C2096 0.950 . S
H2121 C2097 0.949 . S
H2122 C2099 0.950 . S
H2123 C2101 0.950 . S
C2124 C2125 1.349 . S
C2124 C2126 1.327 . S
C2124 H2149 0.950 . S
C2125 C2124 1.349 . S
C2125 C2141 1.349 . S
C2126 C2124 1.327 . S
C2126 C2145 1.429 . S
C2126 H2150 0.950 . S
C2127 C2144 1.574 1_455 S
C2127 C2146 1.368 . S
C2127 H2151 0.949 . S
H2128 C2132 0.949 . S
C2129 C2130 1.349 . S
C2129 C2131 1.327 . S
C2129 H2152 0.950 . S
C2130 C2129 1.349 . S
C2130 C2142 1.349 . S
C2131 C2129 1.327 . S
C2131 C2147 1.429 . S
C2131 H2153 0.950 . S
C2132 H2128 0.949 . S
C2132 C2140 1.574 1_655 S
C2132 C2148 1.368 . S
H2133 C2141 0.950 . S
H2134 C2139 0.950 . S
H2135 C2140 0.949 . S
H2136 C2142 0.950 . S
H2137 C2143 0.950 . S
H2138 C2144 0.949 . S
C2139 H2134 0.950 . S
C2139 C2141 1.327 . S
C2139 C2145 1.429 . S
C2140 C2132 1.574 1_455 S
C2140 H2135 0.949 . S
C2140 C2146 1.368 . S
C2141 C2125 1.349 . S
C2141 H2133 0.950 . S
C2141 C2139 1.327 . S
C2142 C2130 1.349 . S
C2142 H2136 0.950 . S
C2142 C2143 1.327 . S
C2143 H2137 0.950 . S
C2143 C2142 1.327 . S
C2143 C2147 1.429 . S
C2144 C2127 1.574 1_655 S
C2144 H2138 0.949 . S
C2144 C2148 1.368 . S
C2145 C2126 1.429 . S
C2145 C2139 1.429 . S
C2145 C2146 1.523 . S
C2146 C2127 1.368 . S
C2146 C2140 1.368 . S
C2146 C2145 1.523 . S
C2147 C2131 1.429 . S
C2147 C2143 1.429 . S
C2147 C2148 1.523 . S
C2148 C2132 1.368 . S
C2148 C2144 1.368 . S
C2148 C2147 1.523 . S
H2149 C2124 0.950 . S
H2150 C2126 0.950 . S
H2151 C2127 0.949 . S
H2152 C2129 0.950 . S
H2153 C2131 0.950 . S
C2154 C2155 1.349 . S
C2154 C2156 1.327 . S
C2154 H2179 0.950 . S
C2155 C2154 1.349 . S
C2155 C2171 1.349 . S
C2156 C2154 1.327 . S
C2156 C2175 1.429 . S
C2156 H2180 0.950 . S
C2157 C2174 1.574 . S
C2157 C2176 1.368 . S
C2157 H2181 0.949 . S
H2158 C2162 0.949 . S
C2159 C2160 1.349 . S
C2159 C2161 1.327 . S
C2159 H2182 0.950 . S
C2160 C2159 1.349 . S
C2160 C2172 1.349 . S
C2161 C2159 1.327 . S
C2161 C2177 1.429 . S
C2161 H2183 0.950 . S
C2162 H2158 0.949 . S
C2162 C2170 1.574 . S
C2162 C2178 1.368 . S
H2163 C2171 0.950 . S
H2164 C2169 0.950 . S
H2165 C2170 0.949 . S
H2166 C2172 0.950 . S
H2167 C2173 0.950 . S
H2168 C2174 0.949 . S
C2169 H2164 0.950 . S
C2169 C2171 1.327 . S
C2169 C2175 1.429 . S
C2170 C2162 1.574 . S
C2170 H2165 0.949 . S
C2170 C2176 1.368 . S
C2171 C2155 1.349 . S
C2171 H2163 0.950 . S
C2171 C2169 1.327 . S
C2172 C2160 1.349 . S
C2172 H2166 0.950 . S
C2172 C2173 1.327 . S
C2173 H2167 0.950 . S
C2173 C2172 1.327 . S
C2173 C2177 1.429 . S
C2174 C2157 1.574 . S
C2174 H2168 0.949 . S
C2174 C2178 1.368 . S
C2175 C2156 1.429 . S
C2175 C2169 1.429 . S
C2175 C2176 1.523 . S
C2176 C2157 1.368 . S
C2176 C2170 1.368 . S
C2176 C2175 1.523 . S
C2177 C2161 1.429 . S
C2177 C2173 1.429 . S
C2177 C2178 1.523 . S
C2178 C2162 1.368 . S
C2178 C2174 1.368 . S
C2178 C2177 1.523 . S
H2179 C2154 0.950 . S
H2180 C2156 0.950 . S
H2181 C2157 0.949 . S
H2182 C2159 0.950 . S
H2183 C2161 0.950 . S
C2184 C2185 1.349 . S
C2184 C2186 1.327 . S
C2184 H2209 0.950 . S
C2185 C2184 1.349 . S
C2185 C2201 1.349 . S
C2186 C2184 1.327 . S
C2186 C2205 1.429 . S
C2186 H2210 0.950 . S
C2187 C2204 1.574 1_655 S
C2187 C2206 1.368 . S
C2187 H2211 0.949 . S
H2188 C2192 0.949 . S
C2189 C2190 1.349 . S
C2189 C2191 1.327 . S
C2189 H2212 0.950 . S
C2190 C2189 1.349 . S
C2190 C2202 1.349 . S
C2191 C2189 1.327 . S
C2191 C2207 1.429 . S
C2191 H2213 0.950 . S
C2192 H2188 0.949 . S
C2192 C2200 1.574 1_455 S
C2192 C2208 1.368 . S
H2193 C2201 0.950 . S
H2194 C2199 0.950 . S
H2195 C2200 0.949 . S
H2196 C2202 0.950 . S
H2197 C2203 0.950 . S
H2198 C2204 0.949 . S
C2199 H2194 0.950 . S
C2199 C2201 1.327 . S
C2199 C2205 1.429 . S
C2200 C2192 1.574 1_655 S
C2200 H2195 0.949 . S
C2200 C2206 1.368 . S
C2201 C2185 1.349 . S
C2201 H2193 0.950 . S
C2201 C2199 1.327 . S
C2202 C2190 1.349 . S
C2202 H2196 0.950 . S
C2202 C2203 1.327 . S
C2203 H2197 0.950 . S
C2203 C2202 1.327 . S
C2203 C2207 1.429 . S
C2204 C2187 1.574 1_455 S
C2204 H2198 0.949 . S
C2204 C2208 1.368 . S
C2205 C2186 1.429 . S
C2205 C2199 1.429 . S
C2205 C2206 1.523 . S
C2206 C2187 1.368 . S
C2206 C2200 1.368 . S
C2206 C2205 1.523 . S
C2207 C2191 1.429 . S
C2207 C2203 1.429 . S
C2207 C2208 1.523 . S
C2208 C2192 1.368 . S
C2208 C2204 1.368 . S
C2208 C2207 1.523 . S
H2209 C2184 0.950 . S
H2210 C2186 0.950 . S
H2211 C2187 0.949 . S
H2212 C2189 0.950 . S
H2213 C2191 0.950 . S
C2214 C2215 1.349 . S
C2214 C2216 1.327 . S
C2214 H2239 0.950 . S
C2215 C2214 1.349 . S
C2215 C2231 1.349 . S
C2216 C2214 1.327 . S
C2216 C2235 1.429 . S
C2216 H2240 0.950 . S
C2217 C2234 1.574 . S
C2217 C2236 1.368 . S
C2217 H2241 0.949 . S
H2218 C2222 0.949 . S
C2219 C2220 1.349 . S
C2219 C2221 1.327 . S
C2219 H2242 0.950 . S
C2220 C2219 1.349 . S
C2220 C2232 1.349 . S
C2221 C2219 1.327 . S
C2221 C2237 1.429 . S
C2221 H2243 0.950 . S
C2222 H2218 0.949 . S
C2222 C2230 1.574 . S
C2222 C2238 1.368 . S
H2223 C2231 0.950 . S
H2224 C2229 0.950 . S
H2225 C2230 0.949 . S
H2226 C2232 0.950 . S
H2227 C2233 0.950 . S
H2228 C2234 0.949 . S
C2229 H2224 0.950 . S
C2229 C2231 1.327 . S
C2229 C2235 1.429 . S
C2230 C2222 1.574 . S
C2230 H2225 0.949 . S
C2230 C2236 1.368 . S
C2231 C2215 1.349 . S
C2231 H2223 0.950 . S
C2231 C2229 1.327 . S
C2232 C2220 1.349 . S
C2232 H2226 0.950 . S
C2232 C2233 1.327 . S
C2233 H2227 0.950 . S
C2233 C2232 1.327 . S
C2233 C2237 1.429 . S
C2234 C2217 1.574 . S
C2234 H2228 0.949 . S
C2234 C2238 1.368 . S
C2235 C2216 1.429 . S
C2235 C2229 1.429 . S
C2235 C2236 1.523 . S
C2236 C2217 1.368 . S
C2236 C2230 1.368 . S
C2236 C2235 1.523 . S
C2237 C2221 1.429 . S
C2237 C2233 1.429 . S
C2237 C2238 1.523 . S
C2238 C2222 1.368 . S
C2238 C2234 1.368 . S
C2238 C2237 1.523 . S
H2239 C2214 0.950 . S
H2240 C2216 0.950 . S
H2241 C2217 0.949 . S
H2242 C2219 0.950 . S
H2243 C2221 0.950 . S
C2244 C2245 1.349 . S
C2244 C2246 1.327 . S
C2244 H2269 0.950 . S
C2245 C2244 1.349 . S
C2245 C2261 1.349 . S
C2246 C2244 1.327 . S
C2246 C2265 1.429 . S
C2246 H2270 0.950 . S
C2247 C2264 1.574 1_655 S
C2247 C2266 1.368 . S
C2247 H2271 0.949 . S
H2248 C2252 0.949 . S
C2249 C2250 1.349 . S
C2249 C2251 1.327 . S
C2249 H2272 0.950 . S
C2250 C2249 1.349 . S
C2250 C2262 1.349 . S
C2251 C2249 1.327 . S
C2251 C2267 1.429 . S
C2251 H2273 0.950 . S
C2252 H2248 0.949 . S
C2252 C2260 1.574 1_455 S
C2252 C2268 1.368 . S
H2253 C2261 0.950 . S
H2254 C2259 0.950 . S
H2255 C2260 0.949 . S
H2256 C2262 0.950 . S
H2257 C2263 0.950 . S
H2258 C2264 0.949 . S
C2259 H2254 0.950 . S
C2259 C2261 1.327 . S
C2259 C2265 1.429 . S
C2260 C2252 1.574 1_655 S
C2260 H2255 0.949 . S
C2260 C2266 1.368 . S
C2261 C2245 1.349 . S
C2261 H2253 0.950 . S
C2261 C2259 1.327 . S
C2262 C2250 1.349 . S
C2262 H2256 0.950 . S
C2262 C2263 1.327 . S
C2263 H2257 0.950 . S
C2263 C2262 1.327 . S
C2263 C2267 1.429 . S
C2264 C2247 1.574 1_455 S
C2264 H2258 0.949 . S
C2264 C2268 1.368 . S
C2265 C2246 1.429 . S
C2265 C2259 1.429 . S
C2265 C2266 1.523 . S
C2266 C2247 1.368 . S
C2266 C2260 1.368 . S
C2266 C2265 1.523 . S
C2267 C2251 1.429 . S
C2267 C2263 1.429 . S
C2267 C2268 1.523 . S
C2268 C2252 1.368 . S
C2268 C2264 1.368 . S
C2268 C2267 1.523 . S
H2269 C2244 0.950 . S
H2270 C2246 0.950 . S
H2271 C2247 0.949 . S
H2272 C2249 0.950 . S
H2273 C2251 0.950 . S
C2274 C2275 1.349 . S
C2274 C2276 1.327 . S
C2274 H2299 0.950 . S
C2275 C2274 1.349 . S
C2275 C2291 1.349 . S
C2276 C2274 1.327 . S
C2276 C2295 1.429 . S
C2276 H2300 0.950 . S
C2277 C2294 1.574 . S
C2277 C2296 1.368 . S
C2277 H2301 0.949 . S
H2278 C2282 0.949 . S
C2279 C2280 1.349 . S
C2279 C2281 1.327 . S
C2279 H2302 0.950 . S
C2280 C2279 1.349 . S
C2280 C2292 1.349 . S
C2281 C2279 1.327 . S
C2281 C2297 1.429 . S
C2281 H2303 0.950 . S
C2282 H2278 0.949 . S
C2282 C2290 1.574 . S
C2282 C2298 1.368 . S
H2283 C2291 0.950 . S
H2284 C2289 0.950 . S
H2285 C2290 0.949 . S
H2286 C2292 0.950 . S
H2287 C2293 0.950 . S
H2288 C2294 0.949 . S
C2289 H2284 0.950 . S
C2289 C2291 1.327 . S
C2289 C2295 1.429 . S
C2290 C2282 1.574 . S
C2290 H2285 0.949 . S
C2290 C2296 1.368 . S
C2291 C2275 1.349 . S
C2291 H2283 0.950 . S
C2291 C2289 1.327 . S
C2292 C2280 1.349 . S
C2292 H2286 0.950 . S
C2292 C2293 1.327 . S
C2293 H2287 0.950 . S
C2293 C2292 1.327 . S
C2293 C2297 1.429 . S
C2294 C2277 1.574 . S
C2294 H2288 0.949 . S
C2294 C2298 1.368 . S
C2295 C2276 1.429 . S
C2295 C2289 1.429 . S
C2295 C2296 1.523 . S
C2296 C2277 1.368 . S
C2296 C2290 1.368 . S
C2296 C2295 1.523 . S
C2297 C2281 1.429 . S
C2297 C2293 1.429 . S
C2297 C2298 1.523 . S
C2298 C2282 1.368 . S
C2298 C2294 1.368 . S
C2298 C2297 1.523 . S
H2299 C2274 0.950 . S
H2300 C2276 0.950 . S
H2301 C2277 0.949 . S
H2302 C2279 0.950 . S
H2303 C2281 0.950 . S
C2304 C2305 1.349 . S
C2304 C2306 1.327 . S
C2304 H2329 0.950 . S
C2305 C2304 1.349 . S
C2305 C2321 1.349 . S
C2306 C2304 1.327 . S
C2306 C2325 1.429 . S
C2306 H2330 0.950 . S
C2307 C2324 1.574 1_545 S
C2307 C2326 1.368 . S
C2307 H2331 0.949 . S
H2308 C2312 0.949 . S
C2309 C2310 1.349 . S
C2309 C2311 1.327 . S
C2309 H2332 0.950 . S
C2310 C2309 1.349 . S
C2310 C2322 1.349 . S
C2311 C2309 1.327 . S
C2311 C2327 1.429 . S
C2311 H2333 0.950 . S
C2312 H2308 0.949 . S
C2312 C2320 1.574 1_565 S
C2312 C2328 1.368 . S
H2313 C2321 0.950 . S
H2314 C2319 0.950 . S
H2315 C2320 0.949 . S
H2316 C2322 0.950 . S
H2317 C2323 0.950 . S
H2318 C2324 0.949 . S
C2319 H2314 0.950 . S
C2319 C2321 1.327 . S
C2319 C2325 1.429 . S
C2320 C2312 1.574 1_545 S
C2320 H2315 0.949 . S
C2320 C2326 1.368 . S
C2321 C2305 1.349 . S
C2321 H2313 0.950 . S
C2321 C2319 1.327 . S
C2322 C2310 1.349 . S
C2322 H2316 0.950 . S
C2322 C2323 1.327 . S
C2323 H2317 0.950 . S
C2323 C2322 1.327 . S
C2323 C2327 1.429 . S
C2324 C2307 1.574 1_565 S
C2324 H2318 0.949 . S
C2324 C2328 1.368 . S
C2325 C2306 1.429 . S
C2325 C2319 1.429 . S
C2325 C2326 1.523 . S
C2326 C2307 1.368 . S
C2326 C2320 1.368 . S
C2326 C2325 1.523 . S
C2327 C2311 1.429 . S
C2327 C2323 1.429 . S
C2327 C2328 1.523 . S
C2328 C2312 1.368 . S
C2328 C2324 1.368 . S
C2328 C2327 1.523 . S
H2329 C2304 0.950 . S
H2330 C2306 0.950 . S
H2331 C2307 0.949 . S
H2332 C2309 0.950 . S
H2333 C2311 0.950 . S
C2334 C2335 1.349 . S
C2334 C2336 1.327 . S
C2334 H2359 0.950 . S
C2335 C2334 1.349 . S
C2335 C2351 1.349 . S
C2336 C2334 1.327 . S
C2336 C2355 1.429 . S
C2336 H2360 0.950 . S
C2337 C2354 1.574 . S
C2337 C2356 1.368 . S
C2337 H2361 0.949 . S
H2338 C2342 0.949 . S
C2339 C2340 1.349 . S
C2339 C2341 1.327 . S
C2339 H2362 0.950 . S
C2340 C2339 1.349 . S
C2340 C2352 1.349 . S
C2341 C2339 1.327 . S
C2341 C2357 1.429 . S
C2341 H2363 0.950 . S
C2342 H2338 0.949 . S
C2342 C2350 1.574 . S
C2342 C2358 1.368 . S
H2343 C2351 0.950 . S
H2344 C2349 0.950 . S
H2345 C2350 0.949 . S
H2346 C2352 0.950 . S
H2347 C2353 0.950 . S
H2348 C2354 0.949 . S
C2349 H2344 0.950 . S
C2349 C2351 1.327 . S
C2349 C2355 1.429 . S
C2350 C2342 1.574 . S
C2350 H2345 0.949 . S
C2350 C2356 1.368 . S
C2351 C2335 1.349 . S
C2351 H2343 0.950 . S
C2351 C2349 1.327 . S
C2352 C2340 1.349 . S
C2352 H2346 0.950 . S
C2352 C2353 1.327 . S
C2353 H2347 0.950 . S
C2353 C2352 1.327 . S
C2353 C2357 1.429 . S
C2354 C2337 1.574 . S
C2354 H2348 0.949 . S
C2354 C2358 1.368 . S
C2355 C2336 1.429 . S
C2355 C2349 1.429 . S
C2355 C2356 1.523 . S
C2356 C2337 1.368 . S
C2356 C2350 1.368 . S
C2356 C2355 1.523 . S
C2357 C2341 1.429 . S
C2357 C2353 1.429 . S
C2357 C2358 1.523 . S
C2358 C2342 1.368 . S
C2358 C2354 1.368 . S
C2358 C2357 1.523 . S
H2359 C2334 0.950 . S
H2360 C2336 0.950 . S
H2361 C2337 0.949 . S
H2362 C2339 0.950 . S
H2363 C2341 0.950 . S
C2364 C2365 1.349 . S
C2364 C2366 1.327 . S
C2364 H2389 0.950 . S
C2365 C2364 1.349 . S
C2365 C2381 1.349 . S
C2366 C2364 1.327 . S
C2366 C2385 1.429 . S
C2366 H2390 0.950 . S
C2367 C2384 1.574 1_545 S
C2367 C2386 1.368 . S
C2367 H2391 0.949 . S
H2368 C2372 0.949 . S
C2369 C2370 1.349 . S
C2369 C2371 1.327 . S
C2369 H2392 0.950 . S
C2370 C2369 1.349 . S
C2370 C2382 1.349 . S
C2371 C2369 1.327 . S
C2371 C2387 1.429 . S
C2371 H2393 0.950 . S
C2372 H2368 0.949 . S
C2372 C2380 1.574 1_565 S
C2372 C2388 1.368 . S
H2373 C2381 0.950 . S
H2374 C2379 0.950 . S
H2375 C2380 0.949 . S
H2376 C2382 0.950 . S
H2377 C2383 0.950 . S
H2378 C2384 0.949 . S
C2379 H2374 0.950 . S
C2379 C2381 1.327 . S
C2379 C2385 1.429 . S
C2380 C2372 1.574 1_545 S
C2380 H2375 0.949 . S
C2380 C2386 1.368 . S
C2381 C2365 1.349 . S
C2381 H2373 0.950 . S
C2381 C2379 1.327 . S
C2382 C2370 1.349 . S
C2382 H2376 0.950 . S
C2382 C2383 1.327 . S
C2383 H2377 0.950 . S
C2383 C2382 1.327 . S
C2383 C2387 1.429 . S
C2384 C2367 1.574 1_565 S
C2384 H2378 0.949 . S
C2384 C2388 1.368 . S
C2385 C2366 1.429 . S
C2385 C2379 1.429 . S
C2385 C2386 1.523 . S
C2386 C2367 1.368 . S
C2386 C2380 1.368 . S
C2386 C2385 1.523 . S
C2387 C2371 1.429 . S
C2387 C2383 1.429 . S
C2387 C2388 1.523 . S
C2388 C2372 1.368 . S
C2388 C2384 1.368 . S
C2388 C2387 1.523 . S
H2389 C2364 0.950 . S
H2390 C2366 0.950 . S
H2391 C2367 0.949 . S
H2392 C2369 0.950 . S
H2393 C2371 0.950 . S
C2394 C2395 1.349 . S
C2394 C2396 1.327 . S
C2394 H2419 0.950 . S
C2395 C2394 1.349 . S
C2395 C2411 1.349 . S
C2396 C2394 1.327 . S
C2396 C2415 1.429 . S
C2396 H2420 0.950 . S
C2397 C2414 1.574 . S
C2397 C2416 1.368 . S
C2397 H2421 0.949 . S
H2398 C2402 0.949 . S
C2399 C2400 1.349 . S
C2399 C2401 1.327 . S
C2399 H2422 0.950 . S
C2400 C2399 1.349 . S
C2400 C2412 1.349 . S
C2401 C2399 1.327 . S
C2401 C2417 1.429 . S
C2401 H2423 0.950 . S
C2402 H2398 0.949 . S
C2402 C2410 1.574 . S
C2402 C2418 1.368 . S
H2403 C2411 0.950 . S
H2404 C2409 0.950 . S
H2405 C2410 0.949 . S
H2406 C2412 0.950 . S
H2407 C2413 0.950 . S
H2408 C2414 0.949 . S
C2409 H2404 0.950 . S
C2409 C2411 1.327 . S
C2409 C2415 1.429 . S
C2410 C2402 1.574 . S
C2410 H2405 0.949 . S
C2410 C2416 1.368 . S
C2411 C2395 1.349 . S
C2411 H2403 0.950 . S
C2411 C2409 1.327 . S
C2412 C2400 1.349 . S
C2412 H2406 0.950 . S
C2412 C2413 1.327 . S
C2413 H2407 0.950 . S
C2413 C2412 1.327 . S
C2413 C2417 1.429 . S
C2414 C2397 1.574 . S
C2414 H2408 0.949 . S
C2414 C2418 1.368 . S
C2415 C2396 1.429 . S
C2415 C2409 1.429 . S
C2415 C2416 1.523 . S
C2416 C2397 1.368 . S
C2416 C2410 1.368 . S
C2416 C2415 1.523 . S
C2417 C2401 1.429 . S
C2417 C2413 1.429 . S
C2417 C2418 1.523 . S
C2418 C2402 1.368 . S
C2418 C2414 1.368 . S
C2418 C2417 1.523 . S
H2419 C2394 0.950 . S
H2420 C2396 0.950 . S
H2421 C2397 0.949 . S
H2422 C2399 0.950 . S
H2423 C2401 0.950 . S
C2424 C2425 1.349 . S
C2424 C2426 1.327 . S
C2424 H2449 0.950 . S
C2425 C2424 1.349 . S
C2425 C2441 1.349 . S
C2426 C2424 1.327 . S
C2426 C2445 1.429 . S
C2426 H2450 0.950 . S
C2427 C2444 1.574 1_545 S
C2427 C2446 1.368 . S
C2427 H2451 0.949 . S
H2428 C2432 0.949 . S
C2429 C2430 1.349 . S
C2429 C2431 1.327 . S
C2429 H2452 0.950 . S
C2430 C2429 1.349 . S
C2430 C2442 1.349 . S
C2431 C2429 1.327 . S
C2431 C2447 1.429 . S
C2431 H2453 0.950 . S
C2432 H2428 0.949 . S
C2432 C2440 1.574 1_565 S
C2432 C2448 1.368 . S
H2433 C2441 0.950 . S
H2434 C2439 0.950 . S
H2435 C2440 0.949 . S
H2436 C2442 0.950 . S
H2437 C2443 0.950 . S
H2438 C2444 0.949 . S
C2439 H2434 0.950 . S
C2439 C2441 1.327 . S
C2439 C2445 1.429 . S
C2440 C2432 1.574 1_545 S
C2440 H2435 0.949 . S
C2440 C2446 1.368 . S
C2441 C2425 1.349 . S
C2441 H2433 0.950 . S
C2441 C2439 1.327 . S
C2442 C2430 1.349 . S
C2442 H2436 0.950 . S
C2442 C2443 1.327 . S
C2443 H2437 0.950 . S
C2443 C2442 1.327 . S
C2443 C2447 1.429 . S
C2444 C2427 1.574 1_565 S
C2444 H2438 0.949 . S
C2444 C2448 1.368 . S
C2445 C2426 1.429 . S
C2445 C2439 1.429 . S
C2445 C2446 1.523 . S
C2446 C2427 1.368 . S
C2446 C2440 1.368 . S
C2446 C2445 1.523 . S
C2447 C2431 1.429 . S
C2447 C2443 1.429 . S
C2447 C2448 1.523 . S
C2448 C2432 1.368 . S
C2448 C2444 1.368 . S
C2448 C2447 1.523 . S
H2449 C2424 0.950 . S
H2450 C2426 0.950 . S
H2451 C2427 0.949 . S
H2452 C2429 0.950 . S
H2453 C2431 0.950 . S
C2454 C2455 1.349 . S
C2454 C2456 1.327 . S
C2454 H2479 0.950 . S
C2455 C2454 1.349 . S
C2455 C2471 1.349 . S
C2456 C2454 1.327 . S
C2456 C2475 1.429 . S
C2456 H2480 0.950 . S
C2457 C2474 1.574 . S
C2457 C2476 1.368 . S
C2457 H2481 0.949 . S
H2458 C2462 0.949 . S
C2459 C2460 1.349 . S
C2459 C2461 1.327 . S
C2459 H2482 0.950 . S
C2460 C2459 1.349 . S
C2460 C2472 1.349 . S
C2461 C2459 1.327 . S
C2461 C2477 1.429 . S
C2461 H2483 0.950 . S
C2462 H2458 0.949 . S
C2462 C2470 1.574 . S
C2462 C2478 1.368 . S
H2463 C2471 0.950 . S
H2464 C2469 0.950 . S
H2465 C2470 0.949 . S
H2466 C2472 0.950 . S
H2467 C2473 0.950 . S
H2468 C2474 0.949 . S
C2469 H2464 0.950 . S
C2469 C2471 1.327 . S
C2469 C2475 1.429 . S
C2470 C2462 1.574 . S
C2470 H2465 0.949 . S
C2470 C2476 1.368 . S
C2471 C2455 1.349 . S
C2471 H2463 0.950 . S
C2471 C2469 1.327 . S
C2472 C2460 1.349 . S
C2472 H2466 0.950 . S
C2472 C2473 1.327 . S
C2473 H2467 0.950 . S
C2473 C2472 1.327 . S
C2473 C2477 1.429 . S
C2474 C2457 1.574 . S
C2474 H2468 0.949 . S
C2474 C2478 1.368 . S
C2475 C2456 1.429 . S
C2475 C2469 1.429 . S
C2475 C2476 1.523 . S
C2476 C2457 1.368 . S
C2476 C2470 1.368 . S
C2476 C2475 1.523 . S
C2477 C2461 1.429 . S
C2477 C2473 1.429 . S
C2477 C2478 1.523 . S
C2478 C2462 1.368 . S
C2478 C2474 1.368 . S
C2478 C2477 1.523 . S
H2479 C2454 0.950 . S
H2480 C2456 0.950 . S
H2481 C2457 0.949 . S
H2482 C2459 0.950 . S
H2483 C2461 0.950 . S
C2484 C2485 1.349 . S
C2484 C2486 1.327 . S
C2484 H2509 0.950 . S
C2485 C2484 1.349 . S
C2485 C2501 1.349 . S
C2486 C2484 1.327 . S
C2486 C2505 1.429 . S
C2486 H2510 0.950 . S
C2487 C2504 1.574 1_545 S
C2487 C2506 1.368 . S
C2487 H2511 0.949 . S
H2488 C2492 0.949 . S
C2489 C2490 1.349 . S
C2489 C2491 1.327 . S
C2489 H2512 0.950 . S
C2490 C2489 1.349 . S
C2490 C2502 1.349 . S
C2491 C2489 1.327 . S
C2491 C2507 1.429 . S
C2491 H2513 0.950 . S
C2492 H2488 0.949 . S
C2492 C2500 1.574 1_565 S
C2492 C2508 1.368 . S
H2493 C2501 0.950 . S
H2494 C2499 0.950 . S
H2495 C2500 0.949 . S
H2496 C2502 0.950 . S
H2497 C2503 0.950 . S
H2498 C2504 0.949 . S
C2499 H2494 0.950 . S
C2499 C2501 1.327 . S
C2499 C2505 1.429 . S
C2500 C2492 1.574 1_545 S
C2500 H2495 0.949 . S
C2500 C2506 1.368 . S
C2501 C2485 1.349 . S
C2501 H2493 0.950 . S
C2501 C2499 1.327 . S
C2502 C2490 1.349 . S
C2502 H2496 0.950 . S
C2502 C2503 1.327 . S
C2503 H2497 0.950 . S
C2503 C2502 1.327 . S
C2503 C2507 1.429 . S
C2504 C2487 1.574 1_565 S
C2504 H2498 0.949 . S
C2504 C2508 1.368 . S
C2505 C2486 1.429 . S
C2505 C2499 1.429 . S
C2505 C2506 1.523 . S
C2506 C2487 1.368 . S
C2506 C2500 1.368 . S
C2506 C2505 1.523 . S
C2507 C2491 1.429 . S
C2507 C2503 1.429 . S
C2507 C2508 1.523 . S
C2508 C2492 1.368 . S
C2508 C2504 1.368 . S
C2508 C2507 1.523 . S
H2509 C2484 0.950 . S
H2510 C2486 0.950 . S
H2511 C2487 0.949 . S
H2512 C2489 0.950 . S
H2513 C2491 0.950 . S
C2514 C2515 1.349 . S
C2514 C2516 1.327 . S
C2514 H2539 0.950 . S
C2515 C2514 1.349 . S
C2515 C2531 1.349 . S
C2516 C2514 1.327 . S
C2516 C2535 1.429 . S
C2516 H2540 0.950 . S
C2517 C2534 1.574 . S
C2517 C2536 1.368 . S
C2517 H2541 0.949 . S
H2518 C2522 0.949 . S
C2519 C2520 1.349 . S
C2519 C2521 1.327 . S
C2519 H2542 0.950 . S
C2520 C2519 1.349 . S
C2520 C2532 1.349 . S
C2521 C2519 1.327 . S
C2521 C2537 1.429 . S
C2521 H2543 0.950 . S
C2522 H2518 0.949 . S
C2522 C2530 1.574 . S
C2522 C2538 1.368 . S
H2523 C2531 0.950 . S
H2524 C2529 0.950 . S
H2525 C2530 0.949 . S
H2526 C2532 0.950 . S
H2527 C2533 0.950 . S
H2528 C2534 0.949 . S
C2529 H2524 0.950 . S
C2529 C2531 1.327 . S
C2529 C2535 1.429 . S
C2530 C2522 1.574 . S
C2530 H2525 0.949 . S
C2530 C2536 1.368 . S
C2531 C2515 1.349 . S
C2531 H2523 0.950 . S
C2531 C2529 1.327 . S
C2532 C2520 1.349 . S
C2532 H2526 0.950 . S
C2532 C2533 1.327 . S
C2533 H2527 0.950 . S
C2533 C2532 1.327 . S
C2533 C2537 1.429 . S
C2534 C2517 1.574 . S
C2534 H2528 0.949 . S
C2534 C2538 1.368 . S
C2535 C2516 1.429 . S
C2535 C2529 1.429 . S
C2535 C2536 1.523 . S
C2536 C2517 1.368 . S
C2536 C2530 1.368 . S
C2536 C2535 1.523 . S
C2537 C2521 1.429 . S
C2537 C2533 1.429 . S
C2537 C2538 1.523 . S
C2538 C2522 1.368 . S
C2538 C2534 1.368 . S
C2538 C2537 1.523 . S
H2539 C2514 0.950 . S
H2540 C2516 0.950 . S
H2541 C2517 0.949 . S
H2542 C2519 0.950 . S
H2543 C2521 0.950 . S
C2544 C2545 1.349 . S
C2544 C2546 1.327 . S
C2544 H2569 0.950 . S
C2545 C2544 1.349 . S
C2545 C2561 1.349 . S
C2546 C2544 1.327 . S
C2546 C2565 1.429 . S
C2546 H2570 0.950 . S
C2547 C2564 1.574 1_556 S
C2547 C2566 1.368 . S
C2547 H2571 0.949 . S
H2548 C2552 0.949 . S
C2549 C2550 1.349 . S
C2549 C2551 1.327 . S
C2549 H2572 0.950 . S
C2550 C2549 1.349 . S
C2550 C2562 1.349 . S
C2551 C2549 1.327 . S
C2551 C2567 1.429 . S
C2551 H2573 0.950 . S
C2552 H2548 0.949 . S
C2552 C2560 1.574 1_554 S
C2552 C2568 1.368 . S
H2553 C2561 0.950 . S
H2554 C2559 0.950 . S
H2555 C2560 0.949 . S
H2556 C2562 0.950 . S
H2557 C2563 0.950 . S
H2558 C2564 0.949 . S
C2559 H2554 0.950 . S
C2559 C2561 1.327 . S
C2559 C2565 1.429 . S
C2560 C2552 1.574 1_556 S
C2560 H2555 0.949 . S
C2560 C2566 1.368 . S
C2561 C2545 1.349 . S
C2561 H2553 0.950 . S
C2561 C2559 1.327 . S
C2562 C2550 1.349 . S
C2562 H2556 0.950 . S
C2562 C2563 1.327 . S
C2563 H2557 0.950 . S
C2563 C2562 1.327 . S
C2563 C2567 1.429 . S
C2564 C2547 1.574 1_554 S
C2564 H2558 0.949 . S
C2564 C2568 1.368 . S
C2565 C2546 1.429 . S
C2565 C2559 1.429 . S
C2565 C2566 1.523 . S
C2566 C2547 1.368 . S
C2566 C2560 1.368 . S
C2566 C2565 1.523 . S
C2567 C2551 1.429 . S
C2567 C2563 1.429 . S
C2567 C2568 1.523 . S
C2568 C2552 1.368 . S
C2568 C2564 1.368 . S
C2568 C2567 1.523 . S
H2569 C2544 0.950 . S
H2570 C2546 0.950 . S
H2571 C2547 0.949 . S
H2572 C2549 0.950 . S
H2573 C2551 0.950 . S
C2574 C2575 1.349 . S
C2574 C2576 1.327 . S
C2574 H2599 0.950 . S
C2575 C2574 1.349 . S
C2575 C2591 1.349 . S
C2576 C2574 1.327 . S
C2576 C2595 1.429 . S
C2576 H2600 0.950 . S
C2577 C2594 1.574 1_556 S
C2577 C2596 1.368 . S
C2577 H2601 0.949 . S
H2578 C2582 0.949 . S
C2579 C2580 1.349 . S
C2579 C2581 1.327 . S
C2579 H2602 0.950 . S
C2580 C2579 1.349 . S
C2580 C2592 1.349 . S
C2581 C2579 1.327 . S
C2581 C2597 1.429 . S
C2581 H2603 0.950 . S
C2582 H2578 0.949 . S
C2582 C2590 1.574 1_554 S
C2582 C2598 1.368 . S
H2583 C2591 0.950 . S
H2584 C2589 0.950 . S
H2585 C2590 0.949 . S
H2586 C2592 0.950 . S
H2587 C2593 0.950 . S
H2588 C2594 0.949 . S
C2589 H2584 0.950 . S
C2589 C2591 1.327 . S
C2589 C2595 1.429 . S
C2590 C2582 1.574 1_556 S
C2590 H2585 0.949 . S
C2590 C2596 1.368 . S
C2591 C2575 1.349 . S
C2591 H2583 0.950 . S
C2591 C2589 1.327 . S
C2592 C2580 1.349 . S
C2592 H2586 0.950 . S
C2592 C2593 1.327 . S
C2593 H2587 0.950 . S
C2593 C2592 1.327 . S
C2593 C2597 1.429 . S
C2594 C2577 1.574 1_554 S
C2594 H2588 0.949 . S
C2594 C2598 1.368 . S
C2595 C2576 1.429 . S
C2595 C2589 1.429 . S
C2595 C2596 1.523 . S
C2596 C2577 1.368 . S
C2596 C2590 1.368 . S
C2596 C2595 1.523 . S
C2597 C2581 1.429 . S
C2597 C2593 1.429 . S
C2597 C2598 1.523 . S
C2598 C2582 1.368 . S
C2598 C2594 1.368 . S
C2598 C2597 1.523 . S
H2599 C2574 0.950 . S
H2600 C2576 0.950 . S
H2601 C2577 0.949 . S
H2602 C2579 0.950 . S
H2603 C2581 0.950 . S
C2604 C2605 1.349 . S
C2604 C2606 1.327 . S
C2604 H2629 0.950 . S
C2605 C2604 1.349 . S
C2605 C2621 1.349 . S
C2606 C2604 1.327 . S
C2606 C2625 1.429 . S
C2606 H2630 0.950 . S
C2607 C2624 1.574 . S
C2607 C2626 1.368 . S
C2607 H2631 0.949 . S
H2608 C2612 0.949 . S
C2609 C2610 1.349 . S
C2609 C2611 1.327 . S
C2609 H2632 0.950 . S
C2610 C2609 1.349 . S
C2610 C2622 1.349 . S
C2611 C2609 1.327 . S
C2611 C2627 1.429 . S
C2611 H2633 0.950 . S
C2612 H2608 0.949 . S
C2612 C2620 1.574 . S
C2612 C2628 1.368 . S
H2613 C2621 0.950 . S
H2614 C2619 0.950 . S
H2615 C2620 0.949 . S
H2616 C2622 0.950 . S
H2617 C2623 0.950 . S
H2618 C2624 0.949 . S
C2619 H2614 0.950 . S
C2619 C2621 1.327 . S
C2619 C2625 1.429 . S
C2620 C2612 1.574 . S
C2620 H2615 0.949 . S
C2620 C2626 1.368 . S
C2621 C2605 1.349 . S
C2621 H2613 0.950 . S
C2621 C2619 1.327 . S
C2622 C2610 1.349 . S
C2622 H2616 0.950 . S
C2622 C2623 1.327 . S
C2623 H2617 0.950 . S
C2623 C2622 1.327 . S
C2623 C2627 1.429 . S
C2624 C2607 1.574 . S
C2624 H2618 0.949 . S
C2624 C2628 1.368 . S
C2625 C2606 1.429 . S
C2625 C2619 1.429 . S
C2625 C2626 1.523 . S
C2626 C2607 1.368 . S
C2626 C2620 1.368 . S
C2626 C2625 1.523 . S
C2627 C2611 1.429 . S
C2627 C2623 1.429 . S
C2627 C2628 1.523 . S
C2628 C2612 1.368 . S
C2628 C2624 1.368 . S
C2628 C2627 1.523 . S
H2629 C2604 0.950 . S
H2630 C2606 0.950 . S
H2631 C2607 0.949 . S
H2632 C2609 0.950 . S
H2633 C2611 0.950 . S
C2634 C2635 1.349 . S
C2634 C2636 1.327 . S
C2634 H2659 0.950 . S
C2635 C2634 1.349 . S
C2635 C2651 1.349 . S
C2636 C2634 1.327 . S
C2636 C2655 1.429 . S
C2636 H2660 0.950 . S
C2637 C2654 1.574 1_556 S
C2637 C2656 1.368 . S
C2637 H2661 0.949 . S
H2638 C2642 0.949 . S
C2639 C2640 1.349 . S
C2639 C2641 1.327 . S
C2639 H2662 0.950 . S
C2640 C2639 1.349 . S
C2640 C2652 1.349 . S
C2641 C2639 1.327 . S
C2641 C2657 1.429 . S
C2641 H2663 0.950 . S
C2642 H2638 0.949 . S
C2642 C2650 1.574 1_554 S
C2642 C2658 1.368 . S
H2643 C2651 0.950 . S
H2644 C2649 0.950 . S
H2645 C2650 0.949 . S
H2646 C2652 0.950 . S
H2647 C2653 0.950 . S
H2648 C2654 0.949 . S
C2649 H2644 0.950 . S
C2649 C2651 1.327 . S
C2649 C2655 1.429 . S
C2650 C2642 1.574 1_556 S
C2650 H2645 0.949 . S
C2650 C2656 1.368 . S
C2651 C2635 1.349 . S
C2651 H2643 0.950 . S
C2651 C2649 1.327 . S
C2652 C2640 1.349 . S
C2652 H2646 0.950 . S
C2652 C2653 1.327 . S
C2653 H2647 0.950 . S
C2653 C2652 1.327 . S
C2653 C2657 1.429 . S
C2654 C2637 1.574 1_554 S
C2654 H2648 0.949 . S
C2654 C2658 1.368 . S
C2655 C2636 1.429 . S
C2655 C2649 1.429 . S
C2655 C2656 1.523 . S
C2656 C2637 1.368 . S
C2656 C2650 1.368 . S
C2656 C2655 1.523 . S
C2657 C2641 1.429 . S
C2657 C2653 1.429 . S
C2657 C2658 1.523 . S
C2658 C2642 1.368 . S
C2658 C2654 1.368 . S
C2658 C2657 1.523 . S
H2659 C2634 0.950 . S
H2660 C2636 0.950 . S
H2661 C2637 0.949 . S
H2662 C2639 0.950 . S
H2663 C2641 0.950 . S
C2664 C2665 1.349 . S
C2664 C2666 1.327 . S
C2664 H2689 0.950 . S
C2665 C2664 1.349 . S
C2665 C2681 1.349 . S
C2666 C2664 1.327 . S
C2666 C2685 1.429 . S
C2666 H2690 0.950 . S
C2667 C2684 1.574 . S
C2667 C2686 1.368 . S
C2667 H2691 0.949 . S
H2668 C2672 0.949 . S
C2669 C2670 1.349 . S
C2669 C2671 1.327 . S
C2669 H2692 0.950 . S
C2670 C2669 1.349 . S
C2670 C2682 1.349 . S
C2671 C2669 1.327 . S
C2671 C2687 1.429 . S
C2671 H2693 0.950 . S
C2672 H2668 0.949 . S
C2672 C2680 1.574 . S
C2672 C2688 1.368 . S
H2673 C2681 0.950 . S
H2674 C2679 0.950 . S
H2675 C2680 0.949 . S
H2676 C2682 0.950 . S
H2677 C2683 0.950 . S
H2678 C2684 0.949 . S
C2679 H2674 0.950 . S
C2679 C2681 1.327 . S
C2679 C2685 1.429 . S
C2680 C2672 1.574 . S
C2680 H2675 0.949 . S
C2680 C2686 1.368 . S
C2681 C2665 1.349 . S
C2681 H2673 0.950 . S
C2681 C2679 1.327 . S
C2682 C2670 1.349 . S
C2682 H2676 0.950 . S
C2682 C2683 1.327 . S
C2683 H2677 0.950 . S
C2683 C2682 1.327 . S
C2683 C2687 1.429 . S
C2684 C2667 1.574 . S
C2684 H2678 0.949 . S
C2684 C2688 1.368 . S
C2685 C2666 1.429 . S
C2685 C2679 1.429 . S
C2685 C2686 1.523 . S
C2686 C2667 1.368 . S
C2686 C2680 1.368 . S
C2686 C2685 1.523 . S
C2687 C2671 1.429 . S
C2687 C2683 1.429 . S
C2687 C2688 1.523 . S
C2688 C2672 1.368 . S
C2688 C2684 1.368 . S
C2688 C2687 1.523 . S
H2689 C2664 0.950 . S
H2690 C2666 0.950 . S
H2691 C2667 0.949 . S
H2692 C2669 0.950 . S
H2693 C2671 0.950 . S
C2694 C2695 1.349 . S
C2694 C2696 1.327 . S
C2694 H2719 0.950 . S
C2695 C2694 1.349 . S
C2695 C2711 1.349 . S
C2696 C2694 1.327 . S
C2696 C2715 1.429 . S
C2696 H2720 0.950 . S
C2697 C2714 1.574 1_556 S
C2697 C2716 1.368 . S
C2697 H2721 0.949 . S
H2698 C2702 0.949 . S
C2699 C2700 1.349 . S
C2699 C2701 1.327 . S
C2699 H2722 0.950 . S
C2700 C2699 1.349 . S
C2700 C2712 1.349 . S
C2701 C2699 1.327 . S
C2701 C2717 1.429 . S
C2701 H2723 0.950 . S
C2702 H2698 0.949 . S
C2702 C2710 1.574 1_554 S
C2702 C2718 1.368 . S
H2703 C2711 0.950 . S
H2704 C2709 0.950 . S
H2705 C2710 0.949 . S
H2706 C2712 0.950 . S
H2707 C2713 0.950 . S
H2708 C2714 0.949 . S
C2709 H2704 0.950 . S
C2709 C2711 1.327 . S
C2709 C2715 1.429 . S
C2710 C2702 1.574 1_556 S
C2710 H2705 0.949 . S
C2710 C2716 1.368 . S
C2711 C2695 1.349 . S
C2711 H2703 0.950 . S
C2711 C2709 1.327 . S
C2712 C2700 1.349 . S
C2712 H2706 0.950 . S
C2712 C2713 1.327 . S
C2713 H2707 0.950 . S
C2713 C2712 1.327 . S
C2713 C2717 1.429 . S
C2714 C2697 1.574 1_554 S
C2714 H2708 0.949 . S
C2714 C2718 1.368 . S
C2715 C2696 1.429 . S
C2715 C2709 1.429 . S
C2715 C2716 1.523 . S
C2716 C2697 1.368 . S
C2716 C2710 1.368 . S
C2716 C2715 1.523 . S
C2717 C2701 1.429 . S
C2717 C2713 1.429 . S
C2717 C2718 1.523 . S
C2718 C2702 1.368 . S
C2718 C2714 1.368 . S
C2718 C2717 1.523 . S
H2719 C2694 0.950 . S
H2720 C2696 0.950 . S
H2721 C2697 0.949 . S
H2722 C2699 0.950 . S
H2723 C2701 0.950 . S
C2724 C2725 1.349 . S
C2724 C2726 1.327 . S
C2724 H2749 0.950 . S
C2725 C2724 1.349 . S
C2725 C2741 1.349 . S
C2726 C2724 1.327 . S
C2726 C2745 1.429 . S
C2726 H2750 0.950 . S
C2727 C2744 1.574 . S
C2727 C2746 1.368 . S
C2727 H2751 0.949 . S
H2728 C2732 0.949 . S
C2729 C2730 1.349 . S
C2729 C2731 1.327 . S
C2729 H2752 0.950 . S
C2730 C2729 1.349 . S
C2730 C2742 1.349 . S
C2731 C2729 1.327 . S
C2731 C2747 1.429 . S
C2731 H2753 0.950 . S
C2732 H2728 0.949 . S
C2732 C2740 1.574 . S
C2732 C2748 1.368 . S
H2733 C2741 0.950 . S
H2734 C2739 0.950 . S
H2735 C2740 0.949 . S
H2736 C2742 0.950 . S
H2737 C2743 0.950 . S
H2738 C2744 0.949 . S
C2739 H2734 0.950 . S
C2739 C2741 1.327 . S
C2739 C2745 1.429 . S
C2740 C2732 1.574 . S
C2740 H2735 0.949 . S
C2740 C2746 1.368 . S
C2741 C2725 1.349 . S
C2741 H2733 0.950 . S
C2741 C2739 1.327 . S
C2742 C2730 1.349 . S
C2742 H2736 0.950 . S
C2742 C2743 1.327 . S
C2743 H2737 0.950 . S
C2743 C2742 1.327 . S
C2743 C2747 1.429 . S
C2744 C2727 1.574 . S
C2744 H2738 0.949 . S
C2744 C2748 1.368 . S
C2745 C2726 1.429 . S
C2745 C2739 1.429 . S
C2745 C2746 1.523 . S
C2746 C2727 1.368 . S
C2746 C2740 1.368 . S
C2746 C2745 1.523 . S
C2747 C2731 1.429 . S
C2747 C2743 1.429 . S
C2747 C2748 1.523 . S
C2748 C2732 1.368 . S
C2748 C2744 1.368 . S
C2748 C2747 1.523 . S
H2749 C2724 0.950 . S
H2750 C2726 0.950 . S
H2751 C2727 0.949 . S
H2752 C2729 0.950 . S
H2753 C2731 0.950 . S
C2754 C2755 1.349 . S
C2754 C2756 1.327 . S
C2754 H2779 0.950 . S
C2755 C2754 1.349 . S
C2755 C2771 1.349 . S
C2756 C2754 1.327 . S
C2756 C2775 1.429 . S
C2756 H2780 0.950 . S
C2757 C2774 1.574 . S
C2757 C2776 1.368 . S
C2757 H2781 0.949 . S
H2758 C2762 0.949 . S
C2759 C2760 1.349 . S
C2759 C2761 1.327 . S
C2759 H2782 0.950 . S
C2760 C2759 1.349 . S
C2760 C2772 1.349 . S
C2761 C2759 1.327 . S
C2761 C2777 1.429 . S
C2761 H2783 0.950 . S
C2762 H2758 0.949 . S
C2762 C2770 1.574 . S
C2762 C2778 1.368 . S
H2763 C2771 0.950 . S
H2764 C2769 0.950 . S
H2765 C2770 0.949 . S
H2766 C2772 0.950 . S
H2767 C2773 0.950 . S
H2768 C2774 0.949 . S
C2769 H2764 0.950 . S
C2769 C2771 1.327 . S
C2769 C2775 1.429 . S
C2770 C2762 1.574 . S
C2770 H2765 0.949 . S
C2770 C2776 1.368 . S
C2771 C2755 1.349 . S
C2771 H2763 0.950 . S
C2771 C2769 1.327 . S
C2772 C2760 1.349 . S
C2772 H2766 0.950 . S
C2772 C2773 1.327 . S
C2773 H2767 0.950 . S
C2773 C2772 1.327 . S
C2773 C2777 1.429 . S
C2774 C2757 1.574 . S
C2774 H2768 0.949 . S
C2774 C2778 1.368 . S
C2775 C2756 1.429 . S
C2775 C2769 1.429 . S
C2775 C2776 1.523 . S
C2776 C2757 1.368 . S
C2776 C2770 1.368 . S
C2776 C2775 1.523 . S
C2777 C2761 1.429 . S
C2777 C2773 1.429 . S
C2777 C2778 1.523 . S
C2778 C2762 1.368 . S
C2778 C2774 1.368 . S
C2778 C2777 1.523 . S
H2779 C2754 0.950 . S
H2780 C2756 0.950 . S
H2781 C2757 0.949 . S
H2782 C2759 0.950 . S
H2783 C2761 0.950 . S
C2784 C2785 1.349 . S
C2784 C2786 1.327 . S
C2784 H2809 0.950 . S
C2785 C2784 1.349 . S
C2785 C2801 1.349 . S
C2786 C2784 1.327 . S
C2786 C2805 1.429 . S
C2786 H2810 0.950 . S
C2787 C2804 1.574 . S
C2787 C2806 1.368 . S
C2787 H2811 0.949 . S
H2788 C2792 0.949 . S
C2789 C2790 1.349 . S
C2789 C2791 1.327 . S
C2789 H2812 0.950 . S
C2790 C2789 1.349 . S
C2790 C2802 1.349 . S
C2791 C2789 1.327 . S
C2791 C2807 1.429 . S
C2791 H2813 0.950 . S
C2792 H2788 0.949 . S
C2792 C2800 1.574 . S
C2792 C2808 1.368 . S
H2793 C2801 0.950 . S
H2794 C2799 0.950 . S
H2795 C2800 0.949 . S
H2796 C2802 0.950 . S
H2797 C2803 0.950 . S
H2798 C2804 0.949 . S
C2799 H2794 0.950 . S
C2799 C2801 1.327 . S
C2799 C2805 1.429 . S
C2800 C2792 1.574 . S
C2800 H2795 0.949 . S
C2800 C2806 1.368 . S
C2801 C2785 1.349 . S
C2801 H2793 0.950 . S
C2801 C2799 1.327 . S
C2802 C2790 1.349 . S
C2802 H2796 0.950 . S
C2802 C2803 1.327 . S
C2803 H2797 0.950 . S
C2803 C2802 1.327 . S
C2803 C2807 1.429 . S
C2804 C2787 1.574 . S
C2804 H2798 0.949 . S
C2804 C2808 1.368 . S
C2805 C2786 1.429 . S
C2805 C2799 1.429 . S
C2805 C2806 1.523 . S
C2806 C2787 1.368 . S
C2806 C2800 1.368 . S
C2806 C2805 1.523 . S
C2807 C2791 1.429 . S
C2807 C2803 1.429 . S
C2807 C2808 1.523 . S
C2808 C2792 1.368 . S
C2808 C2804 1.368 . S
C2808 C2807 1.523 . S
H2809 C2784 0.950 . S
H2810 C2786 0.950 . S
H2811 C2787 0.949 . S
H2812 C2789 0.950 . S
H2813 C2791 0.950 . S
C2814 C2815 1.349 . S
C2814 C2816 1.327 . S
C2814 H2839 0.950 . S
C2815 C2814 1.349 . S
C2815 C2831 1.349 . S
C2816 C2814 1.327 . S
C2816 C2835 1.429 . S
C2816 H2840 0.950 . S
C2817 C2834 1.574 . S
C2817 C2836 1.368 . S
C2817 H2841 0.949 . S
H2818 C2822 0.949 . S
C2819 C2820 1.349 . S
C2819 C2821 1.327 . S
C2819 H2842 0.950 . S
C2820 C2819 1.349 . S
C2820 C2832 1.349 . S
C2821 C2819 1.327 . S
C2821 C2837 1.429 . S
C2821 H2843 0.950 . S
C2822 H2818 0.949 . S
C2822 C2830 1.574 . S
C2822 C2838 1.368 . S
H2823 C2831 0.950 . S
H2824 C2829 0.950 . S
H2825 C2830 0.949 . S
H2826 C2832 0.950 . S
H2827 C2833 0.950 . S
H2828 C2834 0.949 . S
C2829 H2824 0.950 . S
C2829 C2831 1.327 . S
C2829 C2835 1.429 . S
C2830 C2822 1.574 . S
C2830 H2825 0.949 . S
C2830 C2836 1.368 . S
C2831 C2815 1.349 . S
C2831 H2823 0.950 . S
C2831 C2829 1.327 . S
C2832 C2820 1.349 . S
C2832 H2826 0.950 . S
C2832 C2833 1.327 . S
C2833 H2827 0.950 . S
C2833 C2832 1.327 . S
C2833 C2837 1.429 . S
C2834 C2817 1.574 . S
C2834 H2828 0.949 . S
C2834 C2838 1.368 . S
C2835 C2816 1.429 . S
C2835 C2829 1.429 . S
C2835 C2836 1.523 . S
C2836 C2817 1.368 . S
C2836 C2830 1.368 . S
C2836 C2835 1.523 . S
C2837 C2821 1.429 . S
C2837 C2833 1.429 . S
C2837 C2838 1.523 . S
C2838 C2822 1.368 . S
C2838 C2834 1.368 . S
C2838 C2837 1.523 . S
H2839 C2814 0.950 . S
H2840 C2816 0.950 . S
H2841 C2817 0.949 . S
H2842 C2819 0.950 . S
H2843 C2821 0.950 . S
C2844 C2845 1.349 . S
C2844 C2846 1.327 . S
C2844 H2869 0.950 . S
C2845 C2844 1.349 . S
C2845 C2861 1.349 . S
C2846 C2844 1.327 . S
C2846 C2865 1.429 . S
C2846 H2870 0.950 . S
C2847 C2864 1.574 . S
C2847 C2866 1.368 . S
C2847 H2871 0.949 . S
H2848 C2852 0.949 . S
C2849 C2850 1.349 . S
C2849 C2851 1.327 . S
C2849 H2872 0.950 . S
C2850 C2849 1.349 . S
C2850 C2862 1.349 . S
C2851 C2849 1.327 . S
C2851 C2867 1.429 . S
C2851 H2873 0.950 . S
C2852 H2848 0.949 . S
C2852 C2860 1.574 . S
C2852 C2868 1.368 . S
H2853 C2861 0.950 . S
H2854 C2859 0.950 . S
H2855 C2860 0.949 . S
H2856 C2862 0.950 . S
H2857 C2863 0.950 . S
H2858 C2864 0.949 . S
C2859 H2854 0.950 . S
C2859 C2861 1.327 . S
C2859 C2865 1.429 . S
C2860 C2852 1.574 . S
C2860 H2855 0.949 . S
C2860 C2866 1.368 . S
C2861 C2845 1.349 . S
C2861 H2853 0.950 . S
C2861 C2859 1.327 . S
C2862 C2850 1.349 . S
C2862 H2856 0.950 . S
C2862 C2863 1.327 . S
C2863 H2857 0.950 . S
C2863 C2862 1.327 . S
C2863 C2867 1.429 . S
C2864 C2847 1.574 . S
C2864 H2858 0.949 . S
C2864 C2868 1.368 . S
C2865 C2846 1.429 . S
C2865 C2859 1.429 . S
C2865 C2866 1.523 . S
C2866 C2847 1.368 . S
C2866 C2860 1.368 . S
C2866 C2865 1.523 . S
C2867 C2851 1.429 . S
C2867 C2863 1.429 . S
C2867 C2868 1.523 . S
C2868 C2852 1.368 . S
C2868 C2864 1.368 . S
C2868 C2867 1.523 . S
H2869 C2844 0.950 . S
H2870 C2846 0.950 . S
H2871 C2847 0.949 . S
H2872 C2849 0.950 . S
H2873 C2851 0.950 . S
C2874 C2875 1.349 . S
C2874 C2876 1.327 . S
C2874 H2899 0.950 . S
C2875 C2874 1.349 . S
C2875 C2891 1.349 . S
C2876 C2874 1.327 . S
C2876 C2895 1.429 . S
C2876 H2900 0.950 . S
C2877 C2894 1.574 . S
C2877 C2896 1.368 . S
C2877 H2901 0.949 . S
H2878 C2882 0.949 . S
C2879 C2880 1.349 . S
C2879 C2881 1.327 . S
C2879 H2902 0.950 . S
C2880 C2879 1.349 . S
C2880 C2892 1.349 . S
C2881 C2879 1.327 . S
C2881 C2897 1.429 . S
C2881 H2903 0.950 . S
C2882 H2878 0.949 . S
C2882 C2890 1.574 . S
C2882 C2898 1.368 . S
H2883 C2891 0.950 . S
H2884 C2889 0.950 . S
H2885 C2890 0.949 . S
H2886 C2892 0.950 . S
H2887 C2893 0.950 . S
H2888 C2894 0.949 . S
C2889 H2884 0.950 . S
C2889 C2891 1.327 . S
C2889 C2895 1.429 . S
C2890 C2882 1.574 . S
C2890 H2885 0.949 . S
C2890 C2896 1.368 . S
C2891 C2875 1.349 . S
C2891 H2883 0.950 . S
C2891 C2889 1.327 . S
C2892 C2880 1.349 . S
C2892 H2886 0.950 . S
C2892 C2893 1.327 . S
C2893 H2887 0.950 . S
C2893 C2892 1.327 . S
C2893 C2897 1.429 . S
C2894 C2877 1.574 . S
C2894 H2888 0.949 . S
C2894 C2898 1.368 . S
C2895 C2876 1.429 . S
C2895 C2889 1.429 . S
C2895 C2896 1.523 . S
C2896 C2877 1.368 . S
C2896 C2890 1.368 . S
C2896 C2895 1.523 . S
C2897 C2881 1.429 . S
C2897 C2893 1.429 . S
C2897 C2898 1.523 . S
C2898 C2882 1.368 . S
C2898 C2894 1.368 . S
C2898 C2897 1.523 . S
H2899 C2874 0.950 . S
H2900 C2876 0.950 . S
H2901 C2877 0.949 . S
H2902 C2879 0.950 . S
H2903 C2881 0.950 . S
C2904 C2905 1.349 . S
C2904 C2906 1.327 . S
C2904 H2929 0.950 . S
C2905 C2904 1.349 . S
C2905 C2921 1.349 . S
C2906 C2904 1.327 . S
C2906 C2925 1.429 . S
C2906 H2930 0.950 . S
C2907 C2924 1.574 . S
C2907 C2926 1.368 . S
C2907 H2931 0.949 . S
H2908 C2912 0.949 . S
C2909 C2910 1.349 . S
C2909 C2911 1.327 . S
C2909 H2932 0.950 . S
C2910 C2909 1.349 . S
C2910 C2922 1.349 . S
C2911 C2909 1.327 . S
C2911 C2927 1.429 . S
C2911 H2933 0.950 . S
C2912 H2908 0.949 . S
C2912 C2920 1.574 . S
C2912 C2928 1.368 . S
H2913 C2921 0.950 . S
H2914 C2919 0.950 . S
H2915 C2920 0.949 . S
H2916 C2922 0.950 . S
H2917 C2923 0.950 . S
H2918 C2924 0.949 . S
C2919 H2914 0.950 . S
C2919 C2921 1.327 . S
C2919 C2925 1.429 . S
C2920 C2912 1.574 . S
C2920 H2915 0.949 . S
C2920 C2926 1.368 . S
C2921 C2905 1.349 . S
C2921 H2913 0.950 . S
C2921 C2919 1.327 . S
C2922 C2910 1.349 . S
C2922 H2916 0.950 . S
C2922 C2923 1.327 . S
C2923 H2917 0.950 . S
C2923 C2922 1.327 . S
C2923 C2927 1.429 . S
C2924 C2907 1.574 . S
C2924 H2918 0.949 . S
C2924 C2928 1.368 . S
C2925 C2906 1.429 . S
C2925 C2919 1.429 . S
C2925 C2926 1.523 . S
C2926 C2907 1.368 . S
C2926 C2920 1.368 . S
C2926 C2925 1.523 . S
C2927 C2911 1.429 . S
C2927 C2923 1.429 . S
C2927 C2928 1.523 . S
C2928 C2912 1.368 . S
C2928 C2924 1.368 . S
C2928 C2927 1.523 . S
H2929 C2904 0.950 . S
H2930 C2906 0.950 . S
H2931 C2907 0.949 . S
H2932 C2909 0.950 . S
H2933 C2911 0.950 . S
C2934 C2935 1.349 . S
C2934 C2936 1.327 . S
C2934 H2959 0.950 . S
C2935 C2934 1.349 . S
C2935 C2951 1.349 . S
C2936 C2934 1.327 . S
C2936 C2955 1.429 . S
C2936 H2960 0.950 . S
C2937 C2954 1.574 . S
C2937 C2956 1.368 . S
C2937 H2961 0.949 . S
H2938 C2942 0.949 . S
C2939 C2940 1.349 . S
C2939 C2941 1.327 . S
C2939 H2962 0.950 . S
C2940 C2939 1.349 . S
C2940 C2952 1.349 . S
C2941 C2939 1.327 . S
C2941 C2957 1.429 . S
C2941 H2963 0.950 . S
C2942 H2938 0.949 . S
C2942 C2950 1.574 . S
C2942 C2958 1.368 . S
H2943 C2951 0.950 . S
H2944 C2949 0.950 . S
H2945 C2950 0.949 . S
H2946 C2952 0.950 . S
H2947 C2953 0.950 . S
H2948 C2954 0.949 . S
C2949 H2944 0.950 . S
C2949 C2951 1.327 . S
C2949 C2955 1.429 . S
C2950 C2942 1.574 . S
C2950 H2945 0.949 . S
C2950 C2956 1.368 . S
C2951 C2935 1.349 . S
C2951 H2943 0.950 . S
C2951 C2949 1.327 . S
C2952 C2940 1.349 . S
C2952 H2946 0.950 . S
C2952 C2953 1.327 . S
C2953 H2947 0.950 . S
C2953 C2952 1.327 . S
C2953 C2957 1.429 . S
C2954 C2937 1.574 . S
C2954 H2948 0.949 . S
C2954 C2958 1.368 . S
C2955 C2936 1.429 . S
C2955 C2949 1.429 . S
C2955 C2956 1.523 . S
C2956 C2937 1.368 . S
C2956 C2950 1.368 . S
C2956 C2955 1.523 . S
C2957 C2941 1.429 . S
C2957 C2953 1.429 . S
C2957 C2958 1.523 . S
C2958 C2942 1.368 . S
C2958 C2954 1.368 . S
C2958 C2957 1.523 . S
H2959 C2934 0.950 . S
H2960 C2936 0.950 . S
H2961 C2937 0.949 . S
H2962 C2939 0.950 . S
H2963 C2941 0.950 . S
C2964 C2965 1.349 . S
C2964 C2966 1.327 . S
C2964 H2989 0.950 . S
C2965 C2964 1.349 . S
C2965 C2981 1.349 . S
C2966 C2964 1.327 . S
C2966 C2985 1.429 . S
C2966 H2990 0.950 . S
C2967 C2984 1.574 . S
C2967 C2986 1.368 . S
C2967 H2991 0.949 . S
H2968 C2972 0.949 . S
C2969 C2970 1.349 . S
C2969 C2971 1.327 . S
C2969 H2992 0.950 . S
C2970 C2969 1.349 . S
C2970 C2982 1.349 . S
C2971 C2969 1.327 . S
C2971 C2987 1.429 . S
C2971 H2993 0.950 . S
C2972 H2968 0.949 . S
C2972 C2980 1.574 . S
C2972 C2988 1.368 . S
H2973 C2981 0.950 . S
H2974 C2979 0.950 . S
H2975 C2980 0.949 . S
H2976 C2982 0.950 . S
H2977 C2983 0.950 . S
H2978 C2984 0.949 . S
C2979 H2974 0.950 . S
C2979 C2981 1.327 . S
C2979 C2985 1.429 . S
C2980 C2972 1.574 . S
C2980 H2975 0.949 . S
C2980 C2986 1.368 . S
C2981 C2965 1.349 . S
C2981 H2973 0.950 . S
C2981 C2979 1.327 . S
C2982 C2970 1.349 . S
C2982 H2976 0.950 . S
C2982 C2983 1.327 . S
C2983 H2977 0.950 . S
C2983 C2982 1.327 . S
C2983 C2987 1.429 . S
C2984 C2967 1.574 . S
C2984 H2978 0.949 . S
C2984 C2988 1.368 . S
C2985 C2966 1.429 . S
C2985 C2979 1.429 . S
C2985 C2986 1.523 . S
C2986 C2967 1.368 . S
C2986 C2980 1.368 . S
C2986 C2985 1.523 . S
C2987 C2971 1.429 . S
C2987 C2983 1.429 . S
C2987 C2988 1.523 . S
C2988 C2972 1.368 . S
C2988 C2984 1.368 . S
C2988 C2987 1.523 . S
H2989 C2964 0.950 . S
H2990 C2966 0.950 . S
H2991 C2967 0.949 . S
H2992 C2969 0.950 . S
H2993 C2971 0.950 . S
C2994 C2995 1.349 . S
C2994 C2996 1.327 . S
C2994 H3019 0.950 . S
C2995 C2994 1.349 . S
C2995 C3011 1.349 . S
C2996 C2994 1.327 . S
C2996 C3015 1.429 . S
C2996 H3020 0.950 . S
C2997 C3014 1.574 . S
C2997 C3016 1.368 . S
C2997 H3021 0.949 . S
H2998 C3002 0.949 . S
C2999 C3000 1.349 . S
C2999 C3001 1.327 . S
C2999 H3022 0.950 . S
C3000 C2999 1.349 . S
C3000 C3012 1.349 . S
C3001 C2999 1.327 . S
C3001 C3017 1.429 . S
C3001 H3023 0.950 . S
C3002 H2998 0.949 . S
C3002 C3010 1.574 . S
C3002 C3018 1.368 . S
H3003 C3011 0.950 . S
H3004 C3009 0.950 . S
H3005 C3010 0.949 . S
H3006 C3012 0.950 . S
H3007 C3013 0.950 . S
H3008 C3014 0.949 . S
C3009 H3004 0.950 . S
C3009 C3011 1.327 . S
C3009 C3015 1.429 . S
C3010 C3002 1.574 . S
C3010 H3005 0.949 . S
C3010 C3016 1.368 . S
C3011 C2995 1.349 . S
C3011 H3003 0.950 . S
C3011 C3009 1.327 . S
C3012 C3000 1.349 . S
C3012 H3006 0.950 . S
C3012 C3013 1.327 . S
C3013 H3007 0.950 . S
C3013 C3012 1.327 . S
C3013 C3017 1.429 . S
C3014 C2997 1.574 . S
C3014 H3008 0.949 . S
C3014 C3018 1.368 . S
C3015 C2996 1.429 . S
C3015 C3009 1.429 . S
C3015 C3016 1.523 . S
C3016 C2997 1.368 . S
C3016 C3010 1.368 . S
C3016 C3015 1.523 . S
C3017 C3001 1.429 . S
C3017 C3013 1.429 . S
C3017 C3018 1.523 . S
C3018 C3002 1.368 . S
C3018 C3014 1.368 . S
C3018 C3017 1.523 . S
H3019 C2994 0.950 . S
H3020 C2996 0.950 . S
H3021 C2997 0.949 . S
H3022 C2999 0.950 . S
H3023 C3001 0.950 . S
C3024 C3025 1.349 . S
C3024 C3026 1.327 . S
C3024 H3049 0.950 . S
C3025 C3024 1.349 . S
C3025 C3041 1.349 . S
C3026 C3024 1.327 . S
C3026 C3045 1.429 . S
C3026 H3050 0.950 . S
C3027 C3044 1.574 . S
C3027 C3046 1.368 . S
C3027 H3051 0.949 . S
H3028 C3032 0.949 . S
C3029 C3030 1.349 . S
C3029 C3031 1.327 . S
C3029 H3052 0.950 . S
C3030 C3029 1.349 . S
C3030 C3042 1.349 . S
C3031 C3029 1.327 . S
C3031 C3047 1.429 . S
C3031 H3053 0.950 . S
C3032 H3028 0.949 . S
C3032 C3040 1.574 . S
C3032 C3048 1.368 . S
H3033 C3041 0.950 . S
H3034 C3039 0.950 . S
H3035 C3040 0.949 . S
H3036 C3042 0.950 . S
H3037 C3043 0.950 . S
H3038 C3044 0.949 . S
C3039 H3034 0.950 . S
C3039 C3041 1.327 . S
C3039 C3045 1.429 . S
C3040 C3032 1.574 . S
C3040 H3035 0.949 . S
C3040 C3046 1.368 . S
C3041 C3025 1.349 . S
C3041 H3033 0.950 . S
C3041 C3039 1.327 . S
C3042 C3030 1.349 . S
C3042 H3036 0.950 . S
C3042 C3043 1.327 . S
C3043 H3037 0.950 . S
C3043 C3042 1.327 . S
C3043 C3047 1.429 . S
C3044 C3027 1.574 . S
C3044 H3038 0.949 . S
C3044 C3048 1.368 . S
C3045 C3026 1.429 . S
C3045 C3039 1.429 . S
C3045 C3046 1.523 . S
C3046 C3027 1.368 . S
C3046 C3040 1.368 . S
C3046 C3045 1.523 . S
C3047 C3031 1.429 . S
C3047 C3043 1.429 . S
C3047 C3048 1.523 . S
C3048 C3032 1.368 . S
C3048 C3044 1.368 . S
C3048 C3047 1.523 . S
H3049 C3024 0.950 . S
H3050 C3026 0.950 . S
H3051 C3027 0.949 . S
H3052 C3029 0.950 . S
H3053 C3031 0.950 . S
C3054 C3055 1.349 . S
C3054 C3056 1.327 . S
C3054 H3079 0.950 . S
C3055 C3054 1.349 . S
C3055 C3071 1.349 . S
C3056 C3054 1.327 . S
C3056 C3075 1.429 . S
C3056 H3080 0.950 . S
C3057 C3074 1.574 . S
C3057 C3076 1.368 . S
C3057 H3081 0.949 . S
H3058 C3062 0.949 . S
C3059 C3060 1.349 . S
C3059 C3061 1.327 . S
C3059 H3082 0.950 . S
C3060 C3059 1.349 . S
C3060 C3072 1.349 . S
C3061 C3059 1.327 . S
C3061 C3077 1.429 . S
C3061 H3083 0.950 . S
C3062 H3058 0.949 . S
C3062 C3070 1.574 . S
C3062 C3078 1.368 . S
H3063 C3071 0.950 . S
H3064 C3069 0.950 . S
H3065 C3070 0.949 . S
H3066 C3072 0.950 . S
H3067 C3073 0.950 . S
H3068 C3074 0.949 . S
C3069 H3064 0.950 . S
C3069 C3071 1.327 . S
C3069 C3075 1.429 . S
C3070 C3062 1.574 . S
C3070 H3065 0.949 . S
C3070 C3076 1.368 . S
C3071 C3055 1.349 . S
C3071 H3063 0.950 . S
C3071 C3069 1.327 . S
C3072 C3060 1.349 . S
C3072 H3066 0.950 . S
C3072 C3073 1.327 . S
C3073 H3067 0.950 . S
C3073 C3072 1.327 . S
C3073 C3077 1.429 . S
C3074 C3057 1.574 . S
C3074 H3068 0.949 . S
C3074 C3078 1.368 . S
C3075 C3056 1.429 . S
C3075 C3069 1.429 . S
C3075 C3076 1.523 . S
C3076 C3057 1.368 . S
C3076 C3070 1.368 . S
C3076 C3075 1.523 . S
C3077 C3061 1.429 . S
C3077 C3073 1.429 . S
C3077 C3078 1.523 . S
C3078 C3062 1.368 . S
C3078 C3074 1.368 . S
C3078 C3077 1.523 . S
H3079 C3054 0.950 . S
H3080 C3056 0.950 . S
H3081 C3057 0.949 . S
H3082 C3059 0.950 . S
H3083 C3061 0.950 . S
C3084 C3085 1.349 . S
C3084 C3086 1.327 . S
C3084 H3109 0.950 . S
C3085 C3084 1.349 . S
C3085 C3101 1.349 . S
C3086 C3084 1.327 . S
C3086 C3105 1.429 . S
C3086 H3110 0.950 . S
C3087 C3104 1.574 . S
C3087 C3106 1.368 . S
C3087 H3111 0.949 . S
H3088 C3092 0.949 . S
C3089 C3090 1.349 . S
C3089 C3091 1.327 . S
C3089 H3112 0.950 . S
C3090 C3089 1.349 . S
C3090 C3102 1.349 . S
C3091 C3089 1.327 . S
C3091 C3107 1.429 . S
C3091 H3113 0.950 . S
C3092 H3088 0.949 . S
C3092 C3100 1.574 . S
C3092 C3108 1.368 . S
H3093 C3101 0.950 . S
H3094 C3099 0.950 . S
H3095 C3100 0.949 . S
H3096 C3102 0.950 . S
H3097 C3103 0.950 . S
H3098 C3104 0.949 . S
C3099 H3094 0.950 . S
C3099 C3101 1.327 . S
C3099 C3105 1.429 . S
C3100 C3092 1.574 . S
C3100 H3095 0.949 . S
C3100 C3106 1.368 . S
C3101 C3085 1.349 . S
C3101 H3093 0.950 . S
C3101 C3099 1.327 . S
C3102 C3090 1.349 . S
C3102 H3096 0.950 . S
C3102 C3103 1.327 . S
C3103 H3097 0.950 . S
C3103 C3102 1.327 . S
C3103 C3107 1.429 . S
C3104 C3087 1.574 . S
C3104 H3098 0.949 . S
C3104 C3108 1.368 . S
C3105 C3086 1.429 . S
C3105 C3099 1.429 . S
C3105 C3106 1.523 . S
C3106 C3087 1.368 . S
C3106 C3100 1.368 . S
C3106 C3105 1.523 . S
C3107 C3091 1.429 . S
C3107 C3103 1.429 . S
C3107 C3108 1.523 . S
C3108 C3092 1.368 . S
C3108 C3104 1.368 . S
C3108 C3107 1.523 . S
H3109 C3084 0.950 . S
H3110 C3086 0.950 . S
H3111 C3087 0.949 . S
H3112 C3089 0.950 . S
H3113 C3091 0.950 . S
C3114 C3115 1.349 . S
C3114 C3116 1.327 . S
C3114 H3139 0.950 . S
C3115 C3114 1.349 . S
C3115 C3131 1.349 . S
C3116 C3114 1.327 . S
C3116 C3135 1.429 . S
C3116 H3140 0.950 . S
C3117 C3134 1.574 . S
C3117 C3136 1.368 . S
C3117 H3141 0.949 . S
H3118 C3122 0.949 . S
C3119 C3120 1.349 . S
C3119 C3121 1.327 . S
C3119 H3142 0.950 . S
C3120 C3119 1.349 . S
C3120 C3132 1.349 . S
C3121 C3119 1.327 . S
C3121 C3137 1.429 . S
C3121 H3143 0.950 . S
C3122 H3118 0.949 . S
C3122 C3130 1.574 . S
C3122 C3138 1.368 . S
H3123 C3131 0.950 . S
H3124 C3129 0.950 . S
H3125 C3130 0.949 . S
H3126 C3132 0.950 . S
H3127 C3133 0.950 . S
H3128 C3134 0.949 . S
C3129 H3124 0.950 . S
C3129 C3131 1.327 . S
C3129 C3135 1.429 . S
C3130 C3122 1.574 . S
C3130 H3125 0.949 . S
C3130 C3136 1.368 . S
C3131 C3115 1.349 . S
C3131 H3123 0.950 . S
C3131 C3129 1.327 . S
C3132 C3120 1.349 . S
C3132 H3126 0.950 . S
C3132 C3133 1.327 . S
C3133 H3127 0.950 . S
C3133 C3132 1.327 . S
C3133 C3137 1.429 . S
C3134 C3117 1.574 . S
C3134 H3128 0.949 . S
C3134 C3138 1.368 . S
C3135 C3116 1.429 . S
C3135 C3129 1.429 . S
C3135 C3136 1.523 . S
C3136 C3117 1.368 . S
C3136 C3130 1.368 . S
C3136 C3135 1.523 . S
C3137 C3121 1.429 . S
C3137 C3133 1.429 . S
C3137 C3138 1.523 . S
C3138 C3122 1.368 . S
C3138 C3134 1.368 . S
C3138 C3137 1.523 . S
H3139 C3114 0.950 . S
H3140 C3116 0.950 . S
H3141 C3117 0.949 . S
H3142 C3119 0.950 . S
H3143 C3121 0.950 . S
C3144 C3145 1.349 . S
C3144 C3146 1.327 . S
C3144 H3169 0.950 . S
C3145 C3144 1.349 . S
C3145 C3161 1.349 . S
C3146 C3144 1.327 . S
C3146 C3165 1.429 . S
C3146 H3170 0.950 . S
C3147 C3164 1.574 . S
C3147 C3166 1.368 . S
C3147 H3171 0.949 . S
H3148 C3152 0.949 . S
C3149 C3150 1.349 . S
C3149 C3151 1.327 . S
C3149 H3172 0.950 . S
C3150 C3149 1.349 . S
C3150 C3162 1.349 . S
C3151 C3149 1.327 . S
C3151 C3167 1.429 . S
C3151 H3173 0.950 . S
C3152 H3148 0.949 . S
C3152 C3160 1.574 . S
C3152 C3168 1.368 . S
H3153 C3161 0.950 . S
H3154 C3159 0.950 . S
H3155 C3160 0.949 . S
H3156 C3162 0.950 . S
H3157 C3163 0.950 . S
H3158 C3164 0.949 . S
C3159 H3154 0.950 . S
C3159 C3161 1.327 . S
C3159 C3165 1.429 . S
C3160 C3152 1.574 . S
C3160 H3155 0.949 . S
C3160 C3166 1.368 . S
C3161 C3145 1.349 . S
C3161 H3153 0.950 . S
C3161 C3159 1.327 . S
C3162 C3150 1.349 . S
C3162 H3156 0.950 . S
C3162 C3163 1.327 . S
C3163 H3157 0.950 . S
C3163 C3162 1.327 . S
C3163 C3167 1.429 . S
C3164 C3147 1.574 . S
C3164 H3158 0.949 . S
C3164 C3168 1.368 . S
C3165 C3146 1.429 . S
C3165 C3159 1.429 . S
C3165 C3166 1.523 . S
C3166 C3147 1.368 . S
C3166 C3160 1.368 . S
C3166 C3165 1.523 . S
C3167 C3151 1.429 . S
C3167 C3163 1.429 . S
C3167 C3168 1.523 . S
C3168 C3152 1.368 . S
C3168 C3164 1.368 . S
C3168 C3167 1.523 . S
H3169 C3144 0.950 . S
H3170 C3146 0.950 . S
H3171 C3147 0.949 . S
H3172 C3149 0.950 . S
H3173 C3151 0.950 . S
C3174 C3175 1.349 . S
C3174 C3176 1.327 . S
C3174 H3199 0.950 . S
C3175 C3174 1.349 . S
C3175 C3191 1.349 . S
C3176 C3174 1.327 . S
C3176 C3195 1.429 . S
C3176 H3200 0.950 . S
C3177 C3194 1.574 . S
C3177 C3196 1.368 . S
C3177 H3201 0.949 . S
H3178 C3182 0.949 . S
C3179 C3180 1.349 . S
C3179 C3181 1.327 . S
C3179 H3202 0.950 . S
C3180 C3179 1.349 . S
C3180 C3192 1.349 . S
C3181 C3179 1.327 . S
C3181 C3197 1.429 . S
C3181 H3203 0.950 . S
C3182 H3178 0.949 . S
C3182 C3190 1.574 . S
C3182 C3198 1.368 . S
H3183 C3191 0.950 . S
H3184 C3189 0.950 . S
H3185 C3190 0.949 . S
H3186 C3192 0.950 . S
H3187 C3193 0.950 . S
H3188 C3194 0.949 . S
C3189 H3184 0.950 . S
C3189 C3191 1.327 . S
C3189 C3195 1.429 . S
C3190 C3182 1.574 . S
C3190 H3185 0.949 . S
C3190 C3196 1.368 . S
C3191 C3175 1.349 . S
C3191 H3183 0.950 . S
C3191 C3189 1.327 . S
C3192 C3180 1.349 . S
C3192 H3186 0.950 . S
C3192 C3193 1.327 . S
C3193 H3187 0.950 . S
C3193 C3192 1.327 . S
C3193 C3197 1.429 . S
C3194 C3177 1.574 . S
C3194 H3188 0.949 . S
C3194 C3198 1.368 . S
C3195 C3176 1.429 . S
C3195 C3189 1.429 . S
C3195 C3196 1.523 . S
C3196 C3177 1.368 . S
C3196 C3190 1.368 . S
C3196 C3195 1.523 . S
C3197 C3181 1.429 . S
C3197 C3193 1.429 . S
C3197 C3198 1.523 . S
C3198 C3182 1.368 . S
C3198 C3194 1.368 . S
C3198 C3197 1.523 . S
H3199 C3174 0.950 . S
H3200 C3176 0.950 . S
H3201 C3177 0.949 . S
H3202 C3179 0.950 . S
H3203 C3181 0.950 . S
C3204 C3205 1.349 . S
C3204 C3206 1.327 . S
C3204 H3229 0.950 . S
C3205 C3204 1.349 . S
C3205 C3221 1.349 . S
C3206 C3204 1.327 . S
C3206 C3225 1.429 . S
C3206 H3230 0.950 . S
C3207 C3224 1.574 . S
C3207 C3226 1.368 . S
C3207 H3231 0.949 . S
H3208 C3212 0.949 . S
C3209 C3210 1.349 . S
C3209 C3211 1.327 . S
C3209 H3232 0.950 . S
C3210 C3209 1.349 . S
C3210 C3222 1.349 . S
C3211 C3209 1.327 . S
C3211 C3227 1.429 . S
C3211 H3233 0.950 . S
C3212 H3208 0.949 . S
C3212 C3220 1.574 . S
C3212 C3228 1.368 . S
H3213 C3221 0.950 . S
H3214 C3219 0.950 . S
H3215 C3220 0.949 . S
H3216 C3222 0.950 . S
H3217 C3223 0.950 . S
H3218 C3224 0.949 . S
C3219 H3214 0.950 . S
C3219 C3221 1.327 . S
C3219 C3225 1.429 . S
C3220 C3212 1.574 . S
C3220 H3215 0.949 . S
C3220 C3226 1.368 . S
C3221 C3205 1.349 . S
C3221 H3213 0.950 . S
C3221 C3219 1.327 . S
C3222 C3210 1.349 . S
C3222 H3216 0.950 . S
C3222 C3223 1.327 . S
C3223 H3217 0.950 . S
C3223 C3222 1.327 . S
C3223 C3227 1.429 . S
C3224 C3207 1.574 . S
C3224 H3218 0.949 . S
C3224 C3228 1.368 . S
C3225 C3206 1.429 . S
C3225 C3219 1.429 . S
C3225 C3226 1.523 . S
C3226 C3207 1.368 . S
C3226 C3220 1.368 . S
C3226 C3225 1.523 . S
C3227 C3211 1.429 . S
C3227 C3223 1.429 . S
C3227 C3228 1.523 . S
C3228 C3212 1.368 . S
C3228 C3224 1.368 . S
C3228 C3227 1.523 . S
H3229 C3204 0.950 . S
H3230 C3206 0.950 . S
H3231 C3207 0.949 . S
H3232 C3209 0.950 . S
H3233 C3211 0.950 . S
C3234 C3235 1.349 . S
C3234 C3236 1.327 . S
C3234 H3259 0.950 . S
C3235 C3234 1.349 . S
C3235 C3251 1.349 . S
C3236 C3234 1.327 . S
C3236 C3255 1.429 . S
C3236 H3260 0.950 . S
C3237 C3254 1.574 . S
C3237 C3256 1.368 . S
C3237 H3261 0.949 . S
H3238 C3242 0.949 . S
C3239 C3240 1.349 . S
C3239 C3241 1.327 . S
C3239 H3262 0.950 . S
C3240 C3239 1.349 . S
C3240 C3252 1.349 . S
C3241 C3239 1.327 . S
C3241 C3257 1.429 . S
C3241 H3263 0.950 . S
C3242 H3238 0.949 . S
C3242 C3250 1.574 . S
C3242 C3258 1.368 . S
H3243 C3251 0.950 . S
H3244 C3249 0.950 . S
H3245 C3250 0.949 . S
H3246 C3252 0.950 . S
H3247 C3253 0.950 . S
H3248 C3254 0.949 . S
C3249 H3244 0.950 . S
C3249 C3251 1.327 . S
C3249 C3255 1.429 . S
C3250 C3242 1.574 . S
C3250 H3245 0.949 . S
C3250 C3256 1.368 . S
C3251 C3235 1.349 . S
C3251 H3243 0.950 . S
C3251 C3249 1.327 . S
C3252 C3240 1.349 . S
C3252 H3246 0.950 . S
C3252 C3253 1.327 . S
C3253 H3247 0.950 . S
C3253 C3252 1.327 . S
C3253 C3257 1.429 . S
C3254 C3237 1.574 . S
C3254 H3248 0.949 . S
C3254 C3258 1.368 . S
C3255 C3236 1.429 . S
C3255 C3249 1.429 . S
C3255 C3256 1.523 . S
C3256 C3237 1.368 . S
C3256 C3250 1.368 . S
C3256 C3255 1.523 . S
C3257 C3241 1.429 . S
C3257 C3253 1.429 . S
C3257 C3258 1.523 . S
C3258 C3242 1.368 . S
C3258 C3254 1.368 . S
C3258 C3257 1.523 . S
H3259 C3234 0.950 . S
H3260 C3236 0.950 . S
H3261 C3237 0.949 . S
H3262 C3239 0.950 . S
H3263 C3241 0.950 . S
C3264 C3265 1.349 . S
C3264 C3266 1.327 . S
C3264 H3289 0.950 . S
C3265 C3264 1.349 . S
C3265 C3281 1.349 . S
C3266 C3264 1.327 . S
C3266 C3285 1.429 . S
C3266 H3290 0.950 . S
C3267 C3284 1.574 . S
C3267 C3286 1.368 . S
C3267 H3291 0.949 . S
H3268 C3272 0.949 . S
C3269 C3270 1.349 . S
C3269 C3271 1.327 . S
C3269 H3292 0.950 . S
C3270 C3269 1.349 . S
C3270 C3282 1.349 . S
C3271 C3269 1.327 . S
C3271 C3287 1.429 . S
C3271 H3293 0.950 . S
C3272 H3268 0.949 . S
C3272 C3280 1.574 . S
C3272 C3288 1.368 . S
H3273 C3281 0.950 . S
H3274 C3279 0.950 . S
H3275 C3280 0.949 . S
H3276 C3282 0.950 . S
H3277 C3283 0.950 . S
H3278 C3284 0.949 . S
C3279 H3274 0.950 . S
C3279 C3281 1.327 . S
C3279 C3285 1.429 . S
C3280 C3272 1.574 . S
C3280 H3275 0.949 . S
C3280 C3286 1.368 . S
C3281 C3265 1.349 . S
C3281 H3273 0.950 . S
C3281 C3279 1.327 . S
C3282 C3270 1.349 . S
C3282 H3276 0.950 . S
C3282 C3283 1.327 . S
C3283 H3277 0.950 . S
C3283 C3282 1.327 . S
C3283 C3287 1.429 . S
C3284 C3267 1.574 . S
C3284 H3278 0.949 . S
C3284 C3288 1.368 . S
C3285 C3266 1.429 . S
C3285 C3279 1.429 . S
C3285 C3286 1.523 . S
C3286 C3267 1.368 . S
C3286 C3280 1.368 . S
C3286 C3285 1.523 . S
C3287 C3271 1.429 . S
C3287 C3283 1.429 . S
C3287 C3288 1.523 . S
C3288 C3272 1.368 . S
C3288 C3284 1.368 . S
C3288 C3287 1.523 . S
H3289 C3264 0.950 . S
H3290 C3266 0.950 . S
H3291 C3267 0.949 . S
H3292 C3269 0.950 . S
H3293 C3271 0.950 . S
C3294 C3295 1.349 . S
C3294 C3296 1.327 . S
C3294 H3319 0.950 . S
C3295 C3294 1.349 . S
C3295 C3311 1.349 . S
C3296 C3294 1.327 . S
C3296 C3315 1.429 . S
C3296 H3320 0.950 . S
C3297 C3314 1.574 . S
C3297 C3316 1.368 . S
C3297 H3321 0.949 . S
H3298 C3302 0.949 . S
C3299 C3300 1.349 . S
C3299 C3301 1.327 . S
C3299 H3322 0.950 . S
C3300 C3299 1.349 . S
C3300 C3312 1.349 . S
C3301 C3299 1.327 . S
C3301 C3317 1.429 . S
C3301 H3323 0.950 . S
C3302 H3298 0.949 . S
C3302 C3310 1.574 . S
C3302 C3318 1.368 . S
H3303 C3311 0.950 . S
H3304 C3309 0.950 . S
H3305 C3310 0.949 . S
H3306 C3312 0.950 . S
H3307 C3313 0.950 . S
H3308 C3314 0.949 . S
C3309 H3304 0.950 . S
C3309 C3311 1.327 . S
C3309 C3315 1.429 . S
C3310 C3302 1.574 . S
C3310 H3305 0.949 . S
C3310 C3316 1.368 . S
C3311 C3295 1.349 . S
C3311 H3303 0.950 . S
C3311 C3309 1.327 . S
C3312 C3300 1.349 . S
C3312 H3306 0.950 . S
C3312 C3313 1.327 . S
C3313 H3307 0.950 . S
C3313 C3312 1.327 . S
C3313 C3317 1.429 . S
C3314 C3297 1.574 . S
C3314 H3308 0.949 . S
C3314 C3318 1.368 . S
C3315 C3296 1.429 . S
C3315 C3309 1.429 . S
C3315 C3316 1.523 . S
C3316 C3297 1.368 . S
C3316 C3310 1.368 . S
C3316 C3315 1.523 . S
C3317 C3301 1.429 . S
C3317 C3313 1.429 . S
C3317 C3318 1.523 . S
C3318 C3302 1.368 . S
C3318 C3314 1.368 . S
C3318 C3317 1.523 . S
H3319 C3294 0.950 . S
H3320 C3296 0.950 . S
H3321 C3297 0.949 . S
H3322 C3299 0.950 . S
H3323 C3301 0.950 . S
C3324 C3325 1.349 . S
C3324 C3326 1.327 . S
C3324 H3349 0.950 . S
C3325 C3324 1.349 . S
C3325 C3341 1.349 . S
C3326 C3324 1.327 . S
C3326 C3345 1.429 . S
C3326 H3350 0.950 . S
C3327 C3344 1.574 . S
C3327 C3346 1.368 . S
C3327 H3351 0.949 . S
H3328 C3332 0.949 . S
C3329 C3330 1.349 . S
C3329 C3331 1.327 . S
C3329 H3352 0.950 . S
C3330 C3329 1.349 . S
C3330 C3342 1.349 . S
C3331 C3329 1.327 . S
C3331 C3347 1.429 . S
C3331 H3353 0.950 . S
C3332 H3328 0.949 . S
C3332 C3340 1.574 . S
C3332 C3348 1.368 . S
H3333 C3341 0.950 . S
H3334 C3339 0.950 . S
H3335 C3340 0.949 . S
H3336 C3342 0.950 . S
H3337 C3343 0.950 . S
H3338 C3344 0.949 . S
C3339 H3334 0.950 . S
C3339 C3341 1.327 . S
C3339 C3345 1.429 . S
C3340 C3332 1.574 . S
C3340 H3335 0.949 . S
C3340 C3346 1.368 . S
C3341 C3325 1.349 . S
C3341 H3333 0.950 . S
C3341 C3339 1.327 . S
C3342 C3330 1.349 . S
C3342 H3336 0.950 . S
C3342 C3343 1.327 . S
C3343 H3337 0.950 . S
C3343 C3342 1.327 . S
C3343 C3347 1.429 . S
C3344 C3327 1.574 . S
C3344 H3338 0.949 . S
C3344 C3348 1.368 . S
C3345 C3326 1.429 . S
C3345 C3339 1.429 . S
C3345 C3346 1.523 . S
C3346 C3327 1.368 . S
C3346 C3340 1.368 . S
C3346 C3345 1.523 . S
C3347 C3331 1.429 . S
C3347 C3343 1.429 . S
C3347 C3348 1.523 . S
C3348 C3332 1.368 . S
C3348 C3344 1.368 . S
C3348 C3347 1.523 . S
H3349 C3324 0.950 . S
H3350 C3326 0.950 . S
H3351 C3327 0.949 . S
H3352 C3329 0.950 . S
H3353 C3331 0.950 . S
C3354 C3355 1.349 . S
C3354 C3356 1.327 . S
C3354 H3379 0.950 . S
C3355 C3354 1.349 . S
C3355 C3371 1.349 . S
C3356 C3354 1.327 . S
C3356 C3375 1.429 . S
C3356 H3380 0.950 . S
C3357 C3374 1.574 . S
C3357 C3376 1.368 . S
C3357 H3381 0.949 . S
H3358 C3362 0.949 . S
C3359 C3360 1.349 . S
C3359 C3361 1.327 . S
C3359 H3382 0.950 . S
C3360 C3359 1.349 . S
C3360 C3372 1.349 . S
C3361 C3359 1.327 . S
C3361 C3377 1.429 . S
C3361 H3383 0.950 . S
C3362 H3358 0.949 . S
C3362 C3370 1.574 . S
C3362 C3378 1.368 . S
H3363 C3371 0.950 . S
H3364 C3369 0.950 . S
H3365 C3370 0.949 . S
H3366 C3372 0.950 . S
H3367 C3373 0.950 . S
H3368 C3374 0.949 . S
C3369 H3364 0.950 . S
C3369 C3371 1.327 . S
C3369 C3375 1.429 . S
C3370 C3362 1.574 . S
C3370 H3365 0.949 . S
C3370 C3376 1.368 . S
C3371 C3355 1.349 . S
C3371 H3363 0.950 . S
C3371 C3369 1.327 . S
C3372 C3360 1.349 . S
C3372 H3366 0.950 . S
C3372 C3373 1.327 . S
C3373 H3367 0.950 . S
C3373 C3372 1.327 . S
C3373 C3377 1.429 . S
C3374 C3357 1.574 . S
C3374 H3368 0.949 . S
C3374 C3378 1.368 . S
C3375 C3356 1.429 . S
C3375 C3369 1.429 . S
C3375 C3376 1.523 . S
C3376 C3357 1.368 . S
C3376 C3370 1.368 . S
C3376 C3375 1.523 . S
C3377 C3361 1.429 . S
C3377 C3373 1.429 . S
C3377 C3378 1.523 . S
C3378 C3362 1.368 . S
C3378 C3374 1.368 . S
C3378 C3377 1.523 . S
H3379 C3354 0.950 . S
H3380 C3356 0.950 . S
H3381 C3357 0.949 . S
H3382 C3359 0.950 . S
H3383 C3361 0.950 . S
C3384 C3385 1.349 . S
C3384 C3386 1.327 . S
C3384 H3409 0.950 . S
C3385 C3384 1.349 . S
C3385 C3401 1.349 . S
C3386 C3384 1.327 . S
C3386 C3405 1.429 . S
C3386 H3410 0.950 . S
C3387 C3404 1.574 . S
C3387 C3406 1.368 . S
C3387 H3411 0.949 . S
H3388 C3392 0.949 . S
C3389 C3390 1.349 . S
C3389 C3391 1.327 . S
C3389 H3412 0.950 . S
C3390 C3389 1.349 . S
C3390 C3402 1.349 . S
C3391 C3389 1.327 . S
C3391 C3407 1.429 . S
C3391 H3413 0.950 . S
C3392 H3388 0.949 . S
C3392 C3400 1.574 . S
C3392 C3408 1.368 . S
H3393 C3401 0.950 . S
H3394 C3399 0.950 . S
H3395 C3400 0.949 . S
H3396 C3402 0.950 . S
H3397 C3403 0.950 . S
H3398 C3404 0.949 . S
C3399 H3394 0.950 . S
C3399 C3401 1.327 . S
C3399 C3405 1.429 . S
C3400 C3392 1.574 . S
C3400 H3395 0.949 . S
C3400 C3406 1.368 . S
C3401 C3385 1.349 . S
C3401 H3393 0.950 . S
C3401 C3399 1.327 . S
C3402 C3390 1.349 . S
C3402 H3396 0.950 . S
C3402 C3403 1.327 . S
C3403 H3397 0.950 . S
C3403 C3402 1.327 . S
C3403 C3407 1.429 . S
C3404 C3387 1.574 . S
C3404 H3398 0.949 . S
C3404 C3408 1.368 . S
C3405 C3386 1.429 . S
C3405 C3399 1.429 . S
C3405 C3406 1.523 . S
C3406 C3387 1.368 . S
C3406 C3400 1.368 . S
C3406 C3405 1.523 . S
C3407 C3391 1.429 . S
C3407 C3403 1.429 . S
C3407 C3408 1.523 . S
C3408 C3392 1.368 . S
C3408 C3404 1.368 . S
C3408 C3407 1.523 . S
H3409 C3384 0.950 . S
H3410 C3386 0.950 . S
H3411 C3387 0.949 . S
H3412 C3389 0.950 . S
H3413 C3391 0.950 . S
C3414 C3415 1.349 . S
C3414 C3416 1.327 . S
C3414 H3439 0.950 . S
C3415 C3414 1.349 . S
C3415 C3431 1.349 . S
C3416 C3414 1.327 . S
C3416 C3435 1.429 . S
C3416 H3440 0.950 . S
C3417 C3434 1.574 . S
C3417 C3436 1.368 . S
C3417 H3441 0.949 . S
H3418 C3422 0.949 . S
C3419 C3420 1.349 . S
C3419 C3421 1.327 . S
C3419 H3442 0.950 . S
C3420 C3419 1.349 . S
C3420 C3432 1.349 . S
C3421 C3419 1.327 . S
C3421 C3437 1.429 . S
C3421 H3443 0.950 . S
C3422 H3418 0.949 . S
C3422 C3430 1.574 . S
C3422 C3438 1.368 . S
H3423 C3431 0.950 . S
H3424 C3429 0.950 . S
H3425 C3430 0.949 . S
H3426 C3432 0.950 . S
H3427 C3433 0.950 . S
H3428 C3434 0.949 . S
C3429 H3424 0.950 . S
C3429 C3431 1.327 . S
C3429 C3435 1.429 . S
C3430 C3422 1.574 . S
C3430 H3425 0.949 . S
C3430 C3436 1.368 . S
C3431 C3415 1.349 . S
C3431 H3423 0.950 . S
C3431 C3429 1.327 . S
C3432 C3420 1.349 . S
C3432 H3426 0.950 . S
C3432 C3433 1.327 . S
C3433 H3427 0.950 . S
C3433 C3432 1.327 . S
C3433 C3437 1.429 . S
C3434 C3417 1.574 . S
C3434 H3428 0.949 . S
C3434 C3438 1.368 . S
C3435 C3416 1.429 . S
C3435 C3429 1.429 . S
C3435 C3436 1.523 . S
C3436 C3417 1.368 . S
C3436 C3430 1.368 . S
C3436 C3435 1.523 . S
C3437 C3421 1.429 . S
C3437 C3433 1.429 . S
C3437 C3438 1.523 . S
C3438 C3422 1.368 . S
C3438 C3434 1.368 . S
C3438 C3437 1.523 . S
H3439 C3414 0.950 . S
H3440 C3416 0.950 . S
H3441 C3417 0.949 . S
H3442 C3419 0.950 . S
H3443 C3421 0.950 . S
C3444 C3445 1.349 . S
C3444 C3446 1.327 . S
C3444 H3469 0.950 . S
C3445 C3444 1.349 . S
C3445 C3461 1.349 . S
C3446 C3444 1.327 . S
C3446 C3465 1.429 . S
C3446 H3470 0.950 . S
C3447 C3464 1.574 . S
C3447 C3466 1.368 . S
C3447 H3471 0.949 . S
H3448 C3452 0.949 . S
C3449 C3450 1.349 . S
C3449 C3451 1.327 . S
C3449 H3472 0.950 . S
C3450 C3449 1.349 . S
C3450 C3462 1.349 . S
C3451 C3449 1.327 . S
C3451 C3467 1.429 . S
C3451 H3473 0.950 . S
C3452 H3448 0.949 . S
C3452 C3460 1.574 . S
C3452 C3468 1.368 . S
H3453 C3461 0.950 . S
H3454 C3459 0.950 . S
H3455 C3460 0.949 . S
H3456 C3462 0.950 . S
H3457 C3463 0.950 . S
H3458 C3464 0.949 . S
C3459 H3454 0.950 . S
C3459 C3461 1.327 . S
C3459 C3465 1.429 . S
C3460 C3452 1.574 . S
C3460 H3455 0.949 . S
C3460 C3466 1.368 . S
C3461 C3445 1.349 . S
C3461 H3453 0.950 . S
C3461 C3459 1.327 . S
C3462 C3450 1.349 . S
C3462 H3456 0.950 . S
C3462 C3463 1.327 . S
C3463 H3457 0.950 . S
C3463 C3462 1.327 . S
C3463 C3467 1.429 . S
C3464 C3447 1.574 . S
C3464 H3458 0.949 . S
C3464 C3468 1.368 . S
C3465 C3446 1.429 . S
C3465 C3459 1.429 . S
C3465 C3466 1.523 . S
C3466 C3447 1.368 . S
C3466 C3460 1.368 . S
C3466 C3465 1.523 . S
C3467 C3451 1.429 . S
C3467 C3463 1.429 . S
C3467 C3468 1.523 . S
C3468 C3452 1.368 . S
C3468 C3464 1.368 . S
C3468 C3467 1.523 . S
H3469 C3444 0.950 . S
H3470 C3446 0.950 . S
H3471 C3447 0.949 . S
H3472 C3449 0.950 . S
H3473 C3451 0.950 . S
C3474 C3475 1.349 . S
C3474 C3476 1.327 . S
C3474 H3499 0.950 . S
C3475 C3474 1.349 . S
C3475 C3491 1.349 . S
C3476 C3474 1.327 . S
C3476 C3495 1.429 . S
C3476 H3500 0.950 . S
C3477 C3494 1.574 . S
C3477 C3496 1.368 . S
C3477 H3501 0.949 . S
H3478 C3482 0.949 . S
C3479 C3480 1.349 . S
C3479 C3481 1.327 . S
C3479 H3502 0.950 . S
C3480 C3479 1.349 . S
C3480 C3492 1.349 . S
C3481 C3479 1.327 . S
C3481 C3497 1.429 . S
C3481 H3503 0.950 . S
C3482 H3478 0.949 . S
C3482 C3490 1.574 . S
C3482 C3498 1.368 . S
H3483 C3491 0.950 . S
H3484 C3489 0.950 . S
H3485 C3490 0.949 . S
H3486 C3492 0.950 . S
H3487 C3493 0.950 . S
H3488 C3494 0.949 . S
C3489 H3484 0.950 . S
C3489 C3491 1.327 . S
C3489 C3495 1.429 . S
C3490 C3482 1.574 . S
C3490 H3485 0.949 . S
C3490 C3496 1.368 . S
C3491 C3475 1.349 . S
C3491 H3483 0.950 . S
C3491 C3489 1.327 . S
C3492 C3480 1.349 . S
C3492 H3486 0.950 . S
C3492 C3493 1.327 . S
C3493 H3487 0.950 . S
C3493 C3492 1.327 . S
C3493 C3497 1.429 . S
C3494 C3477 1.574 . S
C3494 H3488 0.949 . S
C3494 C3498 1.368 . S
C3495 C3476 1.429 . S
C3495 C3489 1.429 . S
C3495 C3496 1.523 . S
C3496 C3477 1.368 . S
C3496 C3490 1.368 . S
C3496 C3495 1.523 . S
C3497 C3481 1.429 . S
C3497 C3493 1.429 . S
C3497 C3498 1.523 . S
C3498 C3482 1.368 . S
C3498 C3494 1.368 . S
C3498 C3497 1.523 . S
H3499 C3474 0.950 . S
H3500 C3476 0.950 . S
H3501 C3477 0.949 . S
H3502 C3479 0.950 . S
H3503 C3481 0.950 . S
C625 C265 1.799 . S
C630 C3 1.799 . S
C655 C17 1.776 . S
C660 C231 1.777 . S
C685 C29 1.799 . S
C690 C237 1.799 . S
C715 C257 1.776 . S
C720 C43 1.776 . S
C745 C304 1.792 . S
C750 C56 1.790 . S
C775 C75 1.779 . S
C780 C283 1.779 . S
C805 C88 1.790 . S
C810 C289 1.792 . S
C835 C101 1.779 . S
C840 C218 1.779 . S
C865 C109 1.796 . S
C870 C200 1.796 . S
C895 C121 1.793 . S
C900 C159 1.795 . S
C925 C135 1.796 . S
C930 C172 1.796 . S
C955 C185 1.795 . S
C960 C147 1.793 . S
C985 C322 1.352 . S
C990 C575 1.356 . S
C1015 C537 1.343 . S
C1020 C335 1.343 . S
C1045 C348 1.352 . S
C1050 C549 1.356 . S
C1075 C569 1.343 . S
C1080 C361 1.343 . S
C1105 C369 1.358 . S
C1110 C614 1.358 . S
C1135 C595 1.346 . S
C1140 C387 1.346 . S
C1165 C395 1.358 . S
C1170 C601 1.358 . S
C1195 C530 1.346 . S
C1200 C407 1.346 . S
C1225 C419 1.356 . S
C1230 C511 1.352 . S
C1255 C473 1.358 . S
C1260 C434 1.357 . S
C1285 C491 1.352 . S
C1290 C447 1.356 . S
C1315 C497 1.358 . S
C1320 C460 1.357 . S
C1345 C341 0.943 . S
C1350 C10 0.940 . S
C1375 C18 0.940 . S
C1380 C354 0.943 . S
C1405 C36 0.940 . S
C1410 C315 0.943 . S
C1435 C44 0.940 . S
C1440 C328 0.943 . S
C1465 C57 0.939 . S
C1470 C394 0.941 . S
C1495 C408 0.944 . S
C1500 C68 0.941 . S
C1525 C368 0.941 . S
C1530 C81 0.939 . S
C1555 C380 0.944 . S
C1560 C94 0.941 . S
C1585 C472 0.934 . S
C1590 C108 0.932 . S
C1615 C122 0.943 . S
C1620 C484 0.946 . S
C1645 C504 0.934 . S
C1650 C134 0.932 . S
C1675 C148 0.943 . S
C1680 C512 0.946 . S
C1705 C166 0.931 . S
C1710 C426 0.934 . S
C1735 C179 0.936 . S
C1740 C433 0.939 . S
C1765 C446 0.934 . S
C1770 C192 0.931 . S
C1795 C459 0.939 . S
C1800 C199 0.936 . S
C1825 C211 0.941 . S
C1830 C562 0.944 . S
C1855 C224 0.940 . S
C1860 C588 0.943 . S
C1885 C608 0.933 . S
C1890 C244 0.931 . S
C1915 C523 0.943 . S
C1920 C250 0.940 . S
C1945 C264 0.931 . S
C1950 C621 0.933 . S
C1975 C538 0.944 . S
C1980 C276 0.941 . S
C2005 C296 0.932 . S
C2010 C556 0.935 . S
C2035 C303 0.932 . S
C2040 C582 0.935 . S
C2065 C374 1.892 . S
C2070 C5 1.932 . S
C2095 C382 1.884 . S
C2100 C23 1.927 . S
C2125 C400 1.892 . S
C2130 C31 1.932 . S
C2155 C49 1.927 . S
C2160 C406 1.884 . S
C2185 C317 1.887 . S
C2190 C62 1.929 . S
C2215 C330 1.882 . S
C2220 C69 1.925 . S
C2245 C82 1.929 . S
C2250 C343 1.887 . S
C2275 C356 1.882 . S
C2280 C95 1.925 . S
C2305 C107 1.930 . S
C2310 C498 1.891 . S
C2335 C127 1.927 . S
C2340 C510 1.886 . S
C2365 C478 1.891 . S
C2370 C133 1.930 . S
C2395 C153 1.927 . S
C2400 C486 1.886 . S
C2425 C452 1.888 . S
C2430 C161 1.928 . S
C2455 C174 1.934 . S
C2460 C465 1.894 . S
C2485 C187 1.928 . S
C2490 C420 1.888 . S
C2515 C198 1.933 . S
C2520 C439 1.894 . S
C2545 C590 1.883 . S
C2550 C212 1.926 . S
C2575 C225 1.926 . S
C2580 C564 1.883 . S
C2605 C239 1.928 . S
C2610 C576 1.889 . S
C2635 C251 1.926 . S
C2640 C536 1.883 . S
C2665 C550 1.889 . S
C2670 C263 1.928 . S
C2695 C525 1.883 . S
C2700 C277 1.926 . S
C2725 C615 1.890 . S
C2730 C291 1.930 . S
C2755 C302 1.930 . S
C2760 C602 1.890 . S
C2785 C205 1.648 . S
C2790 C4 1.648 . S
C2815 C16 1.638 . S
C2820 C160 1.642 . S
C2845 C173 1.648 . S
C2850 C30 1.648 . S
C2875 C186 1.642 . S
C2880 C42 1.638 . S
C2905 C120 1.645 . S
C2910 C55 1.646 . S
C2935 C70 1.638 . S
C2940 C140 1.642 . S
C2965 C83 1.646 . S
C2970 C146 1.645 . S
C2995 C114 1.642 . S
C3000 C96 1.638 . S
C3025 C213 1.638 . S
C3030 C270 1.642 . S
C3055 C309 1.642 . S
C3060 C226 1.638 . S
C3085 C278 1.638 . S
C3090 C238 1.642 . S
C3115 C252 1.638 . S
C3120 C290 1.642 . S
C3145 C517 1.160 . S
C3150 C316 1.160 . S
C3175 C471 1.156 . S
C3180 C329 1.161 . S
C3205 C342 1.160 . S
C3210 C485 1.160 . S
C3235 C499 1.156 . S
C3240 C355 1.161 . S
C3265 C432 1.156 . S
C3270 C367 1.157 . S
C3295 C381 1.163 . S
C3300 C445 1.158 . S
C3325 C393 1.157 . S
C3330 C458 1.156 . S
C3355 C413 1.163 . S
C3360 C421 1.158 . S
C3385 C524 1.162 . S
C3390 C577 1.157 . S
C3415 C616 1.157 . S
C3420 C543 1.162 . S
C3445 C589 1.162 . S
C3450 C551 1.157 . S
C3475 C603 1.157 . S
C3480 C563 1.162 . S
