# Generated by pormake.
# Topology zni, (4)-cn, num edge types: 1
# Building blocks:
#     Node 0, Type 0, BuildingBlock: TATPOV_clean_sbu_0, # of connection points: 4
#     Node 1, Type 0, BuildingBlock: TATPOV_clean_sbu_0, # of connection points: 4
#     Node 2, Type 0, BuildingBlock: TATPOV_clean_sbu_0, # of connection points: 4
#     Node 3, Type 0, BuildingBlock: TATPOV_clean_sbu_0, # of connection points: 4
#     Node 4, Type 0, BuildingBlock: TATPOV_clean_sbu_0, # of connection points: 4
#     Node 5, Type 0, BuildingBlock: TATPOV_clean_sbu_0, # of connection points: 4
#     Node 6, Type 0, BuildingBlock: TATPOV_clean_sbu_0, # of connection points: 4
#     Node 7, Type 0, BuildingBlock: TATPOV_clean_sbu_0, # of connection points: 4
#     Node 8, Type 0, BuildingBlock: TATPOV_clean_sbu_0, # of connection points: 4
#     Node 9, Type 0, BuildingBlock: TATPOV_clean_sbu_0, # of connection points: 4
#     Node 10, Type 0, BuildingBlock: TATPOV_clean_sbu_0, # of connection points: 4
#     Node 11, Type 0, BuildingBlock: TATPOV_clean_sbu_0, # of connection points: 4
#     Node 12, Type 0, BuildingBlock: TATPOV_clean_sbu_0, # of connection points: 4
#     Node 13, Type 0, BuildingBlock: TATPOV_clean_sbu_0, # of connection points: 4
#     Node 14, Type 0, BuildingBlock: TATPOV_clean_sbu_0, # of connection points: 4
#     Node 15, Type 0, BuildingBlock: TATPOV_clean_sbu_0, # of connection points: 4
#     Node 16, Type 0, BuildingBlock: TATPOV_clean_sbu_0, # of connection points: 4
#     Node 17, Type 0, BuildingBlock: TATPOV_clean_sbu_0, # of connection points: 4
#     Node 18, Type 0, BuildingBlock: TATPOV_clean_sbu_0, # of connection points: 4
#     Node 19, Type 0, BuildingBlock: TATPOV_clean_sbu_0, # of connection points: 4
#     Node 20, Type 0, BuildingBlock: TATPOV_clean_sbu_0, # of connection points: 4
#     Node 21, Type 0, BuildingBlock: TATPOV_clean_sbu_0, # of connection points: 4
#     Node 22, Type 0, BuildingBlock: TATPOV_clean_sbu_0, # of connection points: 4
#     Node 23, Type 0, BuildingBlock: TATPOV_clean_sbu_0, # of connection points: 4
#     Node 24, Type 0, BuildingBlock: TATPOV_clean_sbu_0, # of connection points: 4
#     Node 25, Type 0, BuildingBlock: TATPOV_clean_sbu_0, # of connection points: 4
#     Node 26, Type 0, BuildingBlock: TATPOV_clean_sbu_0, # of connection points: 4
#     Node 27, Type 0, BuildingBlock: TATPOV_clean_sbu_0, # of connection points: 4
#     Node 28, Type 0, BuildingBlock: TATPOV_clean_sbu_0, # of connection points: 4
#     Node 29, Type 0, BuildingBlock: TATPOV_clean_sbu_0, # of connection points: 4
#     Node 30, Type 0, BuildingBlock: TATPOV_clean_sbu_0, # of connection points: 4
#     Node 31, Type 0, BuildingBlock: TATPOV_clean_sbu_0, # of connection points: 4
#     Edge 32, Type (0, 0), BuildingBlock: ZUJKAS_clean_linker_0, # of connection points: 2
#     Edge 33, Type (0, 0), BuildingBlock: ZUJKAS_clean_linker_0, # of connection points: 2
#     Edge 34, Type (0, 0), BuildingBlock: ZUJKAS_clean_linker_0, # of connection points: 2
#     Edge 35, Type (0, 0), BuildingBlock: ZUJKAS_clean_linker_0, # of connection points: 2
#     Edge 36, Type (0, 0), BuildingBlock: ZUJKAS_clean_linker_0, # of connection points: 2
#     Edge 37, Type (0, 0), BuildingBlock: ZUJKAS_clean_linker_0, # of connection points: 2
#     Edge 38, Type (0, 0), BuildingBlock: ZUJKAS_clean_linker_0, # of connection points: 2
#     Edge 39, Type (0, 0), BuildingBlock: ZUJKAS_clean_linker_0, # of connection points: 2
#     Edge 40, Type (0, 0), BuildingBlock: ZUJKAS_clean_linker_0, # of connection points: 2
#     Edge 41, Type (0, 0), BuildingBlock: ZUJKAS_clean_linker_0, # of connection points: 2
#     Edge 42, Type (0, 0), BuildingBlock: ZUJKAS_clean_linker_0, # of connection points: 2
#     Edge 43, Type (0, 0), BuildingBlock: ZUJKAS_clean_linker_0, # of connection points: 2
#     Edge 44, Type (0, 0), BuildingBlock: ZUJKAS_clean_linker_0, # of connection points: 2
#     Edge 45, Type (0, 0), BuildingBlock: ZUJKAS_clean_linker_0, # of connection points: 2
#     Edge 46, Type (0, 0), BuildingBlock: ZUJKAS_clean_linker_0, # of connection points: 2
#     Edge 47, Type (0, 0), BuildingBlock: ZUJKAS_clean_linker_0, # of connection points: 2
#     Edge 48, Type (0, 0), BuildingBlock: ZUJKAS_clean_linker_0, # of connection points: 2
#     Edge 49, Type (0, 0), BuildingBlock: ZUJKAS_clean_linker_0, # of connection points: 2
#     Edge 50, Type (0, 0), BuildingBlock: ZUJKAS_clean_linker_0, # of connection points: 2
#     Edge 51, Type (0, 0), BuildingBlock: ZUJKAS_clean_linker_0, # of connection points: 2
#     Edge 52, Type (0, 0), BuildingBlock: ZUJKAS_clean_linker_0, # of connection points: 2
#     Edge 53, Type (0, 0), BuildingBlock: ZUJKAS_clean_linker_0, # of connection points: 2
#     Edge 54, Type (0, 0), BuildingBlock: ZUJKAS_clean_linker_0, # of connection points: 2
#     Edge 55, Type (0, 0), BuildingBlock: ZUJKAS_clean_linker_0, # of connection points: 2
#     Edge 56, Type (0, 0), BuildingBlock: ZUJKAS_clean_linker_0, # of connection points: 2
#     Edge 57, Type (0, 0), BuildingBlock: ZUJKAS_clean_linker_0, # of connection points: 2
#     Edge 58, Type (0, 0), BuildingBlock: ZUJKAS_clean_linker_0, # of connection points: 2
#     Edge 59, Type (0, 0), BuildingBlock: ZUJKAS_clean_linker_0, # of connection points: 2
#     Edge 60, Type (0, 0), BuildingBlock: ZUJKAS_clean_linker_0, # of connection points: 2
#     Edge 61, Type (0, 0), BuildingBlock: ZUJKAS_clean_linker_0, # of connection points: 2
#     Edge 62, Type (0, 0), BuildingBlock: ZUJKAS_clean_linker_0, # of connection points: 2
#     Edge 63, Type (0, 0), BuildingBlock: ZUJKAS_clean_linker_0, # of connection points: 2
#     Edge 64, Type (0, 0), BuildingBlock: ZUJKAS_clean_linker_0, # of connection points: 2
#     Edge 65, Type (0, 0), BuildingBlock: ZUJKAS_clean_linker_0, # of connection points: 2
#     Edge 66, Type (0, 0), BuildingBlock: ZUJKAS_clean_linker_0, # of connection points: 2
#     Edge 67, Type (0, 0), BuildingBlock: ZUJKAS_clean_linker_0, # of connection points: 2
#     Edge 68, Type (0, 0), BuildingBlock: ZUJKAS_clean_linker_0, # of connection points: 2
#     Edge 69, Type (0, 0), BuildingBlock: ZUJKAS_clean_linker_0, # of connection points: 2
#     Edge 70, Type (0, 0), BuildingBlock: ZUJKAS_clean_linker_0, # of connection points: 2
#     Edge 71, Type (0, 0), BuildingBlock: ZUJKAS_clean_linker_0, # of connection points: 2
#     Edge 72, Type (0, 0), BuildingBlock: ZUJKAS_clean_linker_0, # of connection points: 2
#     Edge 73, Type (0, 0), BuildingBlock: ZUJKAS_clean_linker_0, # of connection points: 2
#     Edge 74, Type (0, 0), BuildingBlock: ZUJKAS_clean_linker_0, # of connection points: 2
#     Edge 75, Type (0, 0), BuildingBlock: ZUJKAS_clean_linker_0, # of connection points: 2
#     Edge 76, Type (0, 0), BuildingBlock: ZUJKAS_clean_linker_0, # of connection points: 2
#     Edge 77, Type (0, 0), BuildingBlock: ZUJKAS_clean_linker_0, # of connection points: 2
#     Edge 78, Type (0, 0), BuildingBlock: ZUJKAS_clean_linker_0, # of connection points: 2
#     Edge 79, Type (0, 0), BuildingBlock: ZUJKAS_clean_linker_0, # of connection points: 2
#     Edge 80, Type (0, 0), BuildingBlock: ZUJKAS_clean_linker_0, # of connection points: 2
#     Edge 81, Type (0, 0), BuildingBlock: ZUJKAS_clean_linker_0, # of connection points: 2
#     Edge 82, Type (0, 0), BuildingBlock: ZUJKAS_clean_linker_0, # of connection points: 2
#     Edge 83, Type (0, 0), BuildingBlock: ZUJKAS_clean_linker_0, # of connection points: 2
#     Edge 84, Type (0, 0), BuildingBlock: ZUJKAS_clean_linker_0, # of connection points: 2
#     Edge 85, Type (0, 0), BuildingBlock: ZUJKAS_clean_linker_0, # of connection points: 2
#     Edge 86, Type (0, 0), BuildingBlock: ZUJKAS_clean_linker_0, # of connection points: 2
#     Edge 87, Type (0, 0), BuildingBlock: ZUJKAS_clean_linker_0, # of connection points: 2
#     Edge 88, Type (0, 0), BuildingBlock: ZUJKAS_clean_linker_0, # of connection points: 2
#     Edge 89, Type (0, 0), BuildingBlock: ZUJKAS_clean_linker_0, # of connection points: 2
#     Edge 90, Type (0, 0), BuildingBlock: ZUJKAS_clean_linker_0, # of connection points: 2
#     Edge 91, Type (0, 0), BuildingBlock: ZUJKAS_clean_linker_0, # of connection points: 2
#     Edge 92, Type (0, 0), BuildingBlock: ZUJKAS_clean_linker_0, # of connection points: 2
#     Edge 93, Type (0, 0), BuildingBlock: ZUJKAS_clean_linker_0, # of connection points: 2
#     Edge 94, Type (0, 0), BuildingBlock: ZUJKAS_clean_linker_0, # of connection points: 2
#     Edge 95, Type (0, 0), BuildingBlock: ZUJKAS_clean_linker_0, # of connection points: 2
# Relax obj value: 0.195
# Max RMSD: 0.110
# Mean RMSD: 0.110
data_MOF--net-zni--node1-TATPOV_clean_sbu_0--edge1-ZUJKAS_clean_linker_0
_symmetry_space_group_name_H-M    P1
_symmetry_Int_Tables_number       1
_symmetry_cell_setting            triclinic
loop_
_symmetry_equiv_pos_as_xyz
'x, y, z'
_cell_length_a     71.607733
_cell_length_b     71.599989
_cell_length_c     40.916359
_cell_angle_alpha  89.995464
_cell_angle_beta   90.002968
_cell_angle_gamma 89.998525
loop_
_atom_site_label
_atom_site_type_symbol
_atom_site_fract_x
_atom_site_fract_y
_atom_site_fract_z
_atom_type_partial_charge
Zn0 Zn 0.09632 0.12087 0.46528 0.0
Zn1 Zn 0.10734 0.09973 0.41531 0.0
O2 O 0.12182 0.08846 0.45461 0.0
O3 O 0.11016 0.10416 0.49617 0.0
O4 O 0.11342 0.08237 0.37789 0.0
O5 O 0.06917 0.11612 0.45641 0.0
O6 O 0.0784 0.09809 0.41601 0.0
C7 C 0.12082 0.09152 0.48525 0.0
C8 C 0.11716 0.14119 0.41589 0.0
O9 O 0.11719 0.12553 0.40103 0.0
O10 O 0.10957 0.14263 0.44377 0.0
C11 C 0.12928 0.07491 0.37289 0.0
O12 O 0.14325 0.07895 0.39247 0.0
C13 C 0.06528 0.10528 0.43298 0.0
Zn14 Zn 0.13882 0.84977 0.72816 0.0
Zn15 Zn 0.1592 0.85884 0.67739 0.0
O16 O 0.17203 0.87307 0.71561 0.0
O17 O 0.15747 0.86132 0.75829 0.0
O18 O 0.1759 0.86399 0.63857 0.0
O19 O 0.1401 0.82244 0.71836 0.0
O20 O 0.15969 0.82979 0.67903 0.0
C21 C 0.17008 0.8717 0.74649 0.0
C22 C 0.11865 0.8719 0.68146 0.0
O23 O 0.13349 0.86986 0.66457 0.0
O24 O 0.11777 0.86535 0.71016 0.0
C25 C 0.18411 0.87946 0.63337 0.0
O26 O 0.1814 0.89342 0.65365 0.0
C27 C 0.15102 0.81746 0.69569 0.0
Zn28 Zn 0.40114 0.88341 0.96228 0.0
Zn29 Zn 0.38956 0.90524 0.91367 0.0
O30 O 0.37637 0.91657 0.95433 0.0
O31 O 0.38861 0.90021 0.99459 0.0
O32 O 0.38342 0.92328 0.87731 0.0
O33 O 0.42822 0.88741 0.95173 0.0
O34 O 0.41853 0.90579 0.91214 0.0
C35 C 0.37804 0.91322 0.9848 0.0
C36 C 0.37827 0.86425 0.91403 0.0
O37 O 0.37841 0.88 0.89945 0.0
O38 O 0.38657 0.86234 0.9412 0.0
C39 C 0.36792 0.93169 0.87352 0.0
O40 O 0.35411 0.9282 0.89374 0.0
C41 C 0.43183 0.89818 0.92807 0.0
Zn42 Zn 0.37375 0.15061 0.21054 0.0
Zn43 Zn 0.34948 0.14199 0.1654 0.0
O44 O 0.34071 0.12528 0.20399 0.0
O45 O 0.36303 0.1309 0.23967 0.0
O46 O 0.33004 0.13764 0.13046 0.0
O47 O 0.36571 0.17728 0.21343 0.0
O48 O 0.34737 0.17078 0.17192 0.0
C49 C 0.34844 0.12209 0.23151 0.0
C50 C 0.39133 0.13581 0.15357 0.0
O51 O 0.37449 0.13314 0.14443 0.0
O52 O 0.39468 0.1439 0.18043 0.0
C53 C 0.32638 0.12187 0.11769 0.0
O54 O 0.33577 0.10707 0.12721 0.0
C55 C 0.35423 0.18263 0.1919 0.0
Zn56 Zn 0.10222 0.88376 0.03594 0.0
Zn57 Zn 0.11163 0.90716 0.0826 0.0
O58 O 0.12913 0.91564 0.04511 0.0
O59 O 0.12309 0.89393 0.00842 0.0
O60 O 0.11632 0.92603 0.11831 0.0
O61 O 0.07596 0.89326 0.03283 0.0
O62 O 0.08313 0.91072 0.0752 0.0
C63 C 0.13239 0.90803 0.01754 0.0
C64 C 0.11553 0.86494 0.09299 0.0
O65 O 0.1191 0.8815 0.10276 0.0
O66 O 0.10743 0.86231 0.0659 0.0
C67 C 0.1322 0.93013 0.1302 0.0
O68 O 0.14712 0.9214 0.11945 0.0
C69 C 0.07109 0.90472 0.05474 0.0
Zn70 Zn 0.36774 0.84768 0.28426 0.0
Zn71 Zn 0.34413 0.85778 0.33002 0.0
O72 O 0.33564 0.87453 0.29139 0.0
O73 O 0.35729 0.8676 0.25507 0.0
O74 O 0.3252 0.863 0.36545 0.0
O75 O 0.35884 0.82121 0.28304 0.0
O76 O 0.34082 0.82909 0.32429 0.0
C77 C 0.34321 0.8771 0.26355 0.0
C78 C 0.38633 0.86263 0.34017 0.0
O79 O 0.3697 0.86591 0.34983 0.0
O80 O 0.38911 0.85415 0.31349 0.0
C81 C 0.32302 0.87852 0.38006 0.0
O82 O 0.33376 0.89271 0.37224 0.0
C83 C 0.34721 0.81668 0.30489 0.0
Zn84 Zn 0.39957 0.11331 0.5219 0.0
Zn85 Zn 0.3895 0.09313 0.57357 0.0
O86 O 0.37531 0.08037 0.53532 0.0
O87 O 0.38632 0.09538 0.49244 0.0
O88 O 0.38431 0.07614 0.61183 0.0
O89 O 0.42689 0.10975 0.53049 0.0
O90 O 0.41851 0.09288 0.57296 0.0
C91 C 0.37617 0.08266 0.50447 0.0
C92 C 0.378 0.134 0.57009 0.0
O93 O 0.37851 0.11871 0.58607 0.0
O94 O 0.38561 0.13506 0.54216 0.0
C95 C 0.36838 0.07303 0.62444 0.0
O96 O 0.35364 0.08167 0.61272 0.0
C97 C 0.43127 0.09996 0.55504 0.0
Zn98 Zn 0.13348 0.15167 0.7826 0.0
Zn99 Zn 0.15718 0.14199 0.82869 0.0
O100 O 0.16625 0.12544 0.79021 0.0
O101 O 0.14446 0.13184 0.75383 0.0
O102 O 0.17563 0.13705 0.86509 0.0
O103 O 0.14213 0.17823 0.78143 0.0
O104 O 0.1603 0.17068 0.82269 0.0
C105 C 0.15877 0.12268 0.76237 0.0
C106 C 0.11485 0.13652 0.83807 0.0
O107 O 0.13153 0.13354 0.84784 0.0
O108 O 0.11199 0.14497 0.81139 0.0
C109 C 0.18301 0.12133 0.87157 0.0
O110 O 0.17839 0.10666 0.85406 0.0
C111 C 0.15378 0.18295 0.80313 0.0
Zn112 Zn 0.90283 0.88393 0.53598 0.0
Zn113 Zn 0.892 0.90689 0.58301 0.0
O114 O 0.87882 0.91808 0.54204 0.0
O115 O 0.89044 0.90033 0.50309 0.0
O116 O 0.88643 0.92519 0.61931 0.0
O117 O 0.93003 0.88751 0.54561 0.0
O118 O 0.92099 0.90728 0.58355 0.0
C119 C 0.88032 0.91393 0.51183 0.0
C120 C 0.88018 0.86583 0.58494 0.0
O121 O 0.88069 0.88184 0.59863 0.0
O122 O 0.88819 0.8633 0.55769 0.0
C123 C 0.87108 0.9337 0.62406 0.0
O124 O 0.85688 0.93042 0.60455 0.0
C125 C 0.93403 0.89899 0.56803 0.0
Zn126 Zn 0.86161 0.15347 0.26999 0.0
Zn127 Zn 0.84052 0.14488 0.32 0.0
O128 O 0.82797 0.13069 0.28144 0.0
O129 O 0.8434 0.14177 0.23919 0.0
O130 O 0.82294 0.14009 0.35764 0.0
O131 O 0.86044 0.18091 0.27924 0.0
O132 O 0.84054 0.17391 0.31828 0.0
C133 C 0.83044 0.1317 0.25062 0.0
C134 C 0.88093 0.13137 0.31799 0.0
O135 O 0.86588 0.13354 0.33424 0.0
O136 O 0.88226 0.13786 0.28929 0.0
C137 C 0.81893 0.12399 0.36872 0.0
O138 O 0.8269 0.1092 0.35579 0.0
C139 C 0.84948 0.18608 0.30171 0.0
Zn140 Zn 0.60609 0.11522 0.02162 0.0
Zn141 Zn 0.61203 0.09173 0.07107 0.0
O142 O 0.62881 0.08062 0.03445 0.0
O143 O 0.62364 0.10032 0.99399 0.0
O144 O 0.615 0.07358 0.10856 0.0
O145 O 0.5784 0.11027 0.02249 0.0
O146 O 0.58348 0.09081 0.06313 0.0
C147 C 0.63185 0.08607 0.00527 0.0
C148 C 0.62264 0.13331 0.07696 0.0
O149 O 0.6215 0.11706 0.08968 0.0
O150 O 0.61694 0.13609 0.04809 0.0
C151 C 0.63073 0.06803 0.11923 0.0
O152 O 0.64609 0.07443 0.10571 0.0
C153 C 0.57222 0.09889 0.04354 0.0
Zn154 Zn 0.64051 0.85016 0.76923 0.0
Zn155 Zn 0.65889 0.86291 0.8208 0.0
O156 O 0.67152 0.87675 0.78185 0.0
O157 O 0.65818 0.8634 0.73941 0.0
O158 O 0.67424 0.87065 0.85999 0.0
O159 O 0.64522 0.82341 0.78114 0.0
O160 O 0.66123 0.83407 0.82303 0.0
C161 C 0.66997 0.87478 0.75098 0.0
C162 C 0.61738 0.87159 0.81346 0.0
O163 O 0.6322 0.8722 0.83071 0.0
O164 O 0.6175 0.86352 0.7859 0.0
C165 C 0.69191 0.86906 0.85842 0.0
O166 O 0.6995 0.86321 0.83103 0.0
C167 C 0.65501 0.82037 0.80631 0.0
Zn168 Zn 0.90087 0.1129 0.98232 0.0
Zn169 Zn 0.89262 0.09066 0.93324 0.0
O170 O 0.87815 0.07859 0.97187 0.0
O171 O 0.88837 0.0953 0.01332 0.0
O172 O 0.88819 0.07281 0.8958 0.0
O173 O 0.92838 0.11099 0.97447 0.0
O174 O 0.92166 0.09062 0.93602 0.0
C175 C 0.87868 0.08188 0.00249 0.0
C176 C 0.87936 0.13136 0.93263 0.0
O177 O 0.88127 0.11579 0.91782 0.0
O178 O 0.88598 0.13345 0.96109 0.0
C179 C 0.87251 0.0702 0.88195 0.0
O180 O 0.85788 0.07966 0.89201 0.0
C181 C 0.93372 0.09962 0.95274 0.0
Zn182 Zn 0.63713 0.15211 0.721 0.0
Zn183 Zn 0.65664 0.14207 0.66837 0.0
O184 O 0.66851 0.12622 0.70552 0.0
O185 O 0.6541 0.13688 0.74928 0.0
O186 O 0.67299 0.13683 0.62919 0.0
O187 O 0.64248 0.17934 0.7145 0.0
O188 O 0.65857 0.17097 0.67111 0.0
C189 C 0.66619 0.1263 0.73641 0.0
C190 C 0.61513 0.133 0.67141 0.0
O191 O 0.63043 0.13291 0.65546 0.0
O192 O 0.6145 0.14007 0.69981 0.0
C193 C 0.68051 0.12117 0.62268 0.0
O194 O 0.67719 0.10679 0.64175 0.0
C195 C 0.65239 0.1837 0.69009 0.0
Zn196 Zn 0.60271 0.88459 0.47351 0.0
Zn197 Zn 0.60997 0.90783 0.42529 0.0
O198 O 0.62427 0.91994 0.46413 0.0
O199 O 0.61497 0.90214 0.50487 0.0
O200 O 0.6136 0.92616 0.38829 0.0
O201 O 0.57508 0.88607 0.46648 0.0
O202 O 0.58101 0.90731 0.42908 0.0
C203 C 0.62403 0.91613 0.49458 0.0
C204 C 0.62415 0.86738 0.42252 0.0
O205 O 0.62174 0.88312 0.40851 0.0
O206 O 0.61788 0.8647 0.45108 0.0
C207 C 0.62941 0.93165 0.37793 0.0
O208 O 0.64467 0.92501 0.39146 0.0
C209 C 0.5693 0.8978 0.44569 0.0
Zn210 Zn 0.87234 0.8486 0.21189 0.0
Zn211 Zn 0.84973 0.86134 0.16657 0.0
O212 O 0.8392 0.87404 0.20842 0.0
O213 O 0.85745 0.86188 0.24608 0.0
O214 O 0.83197 0.86916 0.13067 0.0
O215 O 0.86712 0.82197 0.2016 0.0
O216 O 0.84769 0.83224 0.16406 0.0
C217 C 0.84392 0.87236 0.23833 0.0
C218 C 0.89162 0.87066 0.16432 0.0
O219 O 0.87532 0.87224 0.15198 0.0
O220 O 0.894 0.86121 0.19013 0.0
C221 C 0.81441 0.86847 0.13515 0.0
O222 O 0.808 0.86333 0.16388 0.0
C223 C 0.8555 0.81869 0.17906 0.0
Zn224 Zn 0.60129 0.61736 0.97751 0.0
Zn225 Zn 0.61104 0.59749 0.92644 0.0
O226 O 0.62598 0.5851 0.96428 0.0
O227 O 0.61383 0.59907 0.00722 0.0
O228 O 0.61696 0.58146 0.8871 0.0
O229 O 0.57403 0.61486 0.96788 0.0
O230 O 0.58202 0.59582 0.92811 0.0
C231 C 0.62467 0.58693 0.99519 0.0
C232 C 0.6225 0.63856 0.93097 0.0
O233 O 0.62112 0.62363 0.91412 0.0
O234 O 0.61582 0.63919 0.9596 0.0
C235 C 0.61531 0.56381 0.88906 0.0
O236 O 0.61031 0.55636 0.91708 0.0
C237 C 0.56941 0.6039 0.94503 0.0
Zn238 Zn 0.63634 0.34869 0.22755 0.0
Zn239 Zn 0.65891 0.35686 0.17822 0.0
O240 O 0.67096 0.37101 0.21734 0.0
O241 O 0.65353 0.36165 0.25853 0.0
O242 O 0.67728 0.36105 0.14147 0.0
O243 O 0.63902 0.3211 0.22089 0.0
O244 O 0.65811 0.32785 0.18045 0.0
C245 C 0.6673 0.37088 0.24785 0.0
C246 C 0.61842 0.37024 0.17656 0.0
O247 O 0.63419 0.36865 0.16234 0.0
O248 O 0.61598 0.36326 0.20469 0.0
C249 C 0.68088 0.37687 0.12884 0.0
O250 O 0.67204 0.39174 0.13955 0.0
C251 C 0.64973 0.31579 0.19815 0.0
Zn252 Zn 0.90039 0.38787 0.47596 0.0
Zn253 Zn 0.89073 0.4099 0.42733 0.0
O254 O 0.8741 0.41994 0.46503 0.0
O255 O 0.87986 0.3989 0.50306 0.0
O256 O 0.88562 0.42738 0.38949 0.0
O257 O 0.92662 0.39772 0.47782 0.0
O258 O 0.91944 0.41277 0.4327 0.0
C259 C 0.8709 0.41304 0.4932 0.0
C260 C 0.88586 0.36752 0.42141 0.0
O261 O 0.8824 0.38386 0.4105 0.0
O262 O 0.89456 0.36551 0.44811 0.0
C263 C 0.8702 0.43575 0.38455 0.0
O264 O 0.85618 0.43281 0.4046 0.0
C265 C 0.93152 0.4078 0.45393 0.0
Zn266 Zn 0.87065 0.65118 0.71909 0.0
Zn267 Zn 0.84755 0.6417 0.67186 0.0
O268 O 0.83787 0.62558 0.71068 0.0
O269 O 0.85889 0.63221 0.74827 0.0
O270 O 0.82878 0.63703 0.63594 0.0
O271 O 0.86244 0.67802 0.7194 0.0
O272 O 0.84574 0.67052 0.67628 0.0
C273 C 0.8447 0.62306 0.73913 0.0
C274 C 0.88949 0.63475 0.66404 0.0
O275 O 0.87291 0.63257 0.65323 0.0
O276 O 0.89215 0.64304 0.69098 0.0
C277 C 0.82404 0.6211 0.62497 0.0
O278 O 0.83192 0.60603 0.63703 0.0
C279 C 0.85182 0.68281 0.69618 0.0
Zn280 Zn 0.60176 0.38561 0.52693 0.0
Zn281 Zn 0.61123 0.40777 0.57536 0.0
O282 O 0.62471 0.41974 0.53544 0.0
O283 O 0.61311 0.40332 0.49477 0.0
O284 O 0.61719 0.42514 0.6129 0.0
O285 O 0.57459 0.38737 0.538 0.0
O286 O 0.58219 0.40812 0.57534 0.0
C287 C 0.62322 0.41661 0.50486 0.0
C288 C 0.62424 0.36691 0.57459 0.0
O289 O 0.62251 0.38241 0.58969 0.0
O290 O 0.61731 0.36496 0.54633 0.0
C291 C 0.61599 0.44275 0.60927 0.0
O292 O 0.61139 0.44947 0.58049 0.0
C293 C 0.56977 0.39883 0.55997 0.0
Zn294 Zn 0.86127 0.34248 0.77719 0.0
Zn295 Zn 0.84282 0.35453 0.82946 0.0
O296 O 0.83055 0.36955 0.79173 0.0
O297 O 0.84518 0.35844 0.74855 0.0
O298 O 0.82704 0.36074 0.86899 0.0
O299 O 0.85451 0.31575 0.78414 0.0
O300 O 0.84071 0.32545 0.82906 0.0
C301 C 0.83307 0.36921 0.7609 0.0
C302 C 0.88454 0.36188 0.82461 0.0
O303 O 0.86926 0.36415 0.84011 0.0
O304 O 0.88475 0.35294 0.79787 0.0
C305 C 0.81909 0.37633 0.87433 0.0
O306 O 0.82161 0.39015 0.85369 0.0
C307 C 0.84559 0.31217 0.81005 0.0
Zn308 Zn 0.90286 0.61129 0.02506 0.0
Zn309 Zn 0.88979 0.59348 0.07765 0.0
O310 O 0.87578 0.58053 0.03953 0.0
O311 O 0.88821 0.59396 0.99625 0.0
O312 O 0.88292 0.57834 0.11768 0.0
O313 O 0.92956 0.60563 0.03525 0.0
O314 O 0.91883 0.5916 0.0792 0.0
C315 C 0.87708 0.58218 0.00861 0.0
C316 C 0.88175 0.63496 0.06969 0.0
O317 O 0.87975 0.61999 0.08622 0.0
O318 O 0.891 0.6348 0.04327 0.0
C319 C 0.86838 0.56827 0.12065 0.0
O320 O 0.856 0.56802 0.09696 0.0
C321 C 0.93256 0.59679 0.06147 0.0
Zn322 Zn 0.63634 0.65487 0.28347 0.0
Zn323 Zn 0.65765 0.6447 0.33238 0.0
O324 O 0.66819 0.62846 0.29459 0.0
O325 O 0.64756 0.63455 0.25607 0.0
O326 O 0.67504 0.63948 0.37021 0.0
O327 O 0.64603 0.68117 0.28249 0.0
O328 O 0.66013 0.67355 0.3283 0.0
C329 C 0.66159 0.62549 0.26614 0.0
C330 C 0.61539 0.6396 0.33682 0.0
O331 O 0.63157 0.63583 0.34811 0.0
O332 O 0.61373 0.64882 0.31057 0.0
C333 C 0.68164 0.6235 0.37739 0.0
O334 O 0.67669 0.60892 0.35994 0.0
C335 C 0.6555 0.68587 0.30725 0.0
Zn336 Zn 0.40732 0.384 0.03628 0.0
Zn337 Zn 0.39597 0.40752 0.08033 0.0
O338 O 0.38073 0.41594 0.0396 0.0
O339 O 0.38796 0.39343 0.0052 0.0
O340 O 0.38992 0.42702 0.1144 0.0
O341 O 0.43357 0.39359 0.03517 0.0
O342 O 0.42496 0.40973 0.07829 0.0
C343 C 0.37857 0.40787 0.01207 0.0
C344 C 0.39079 0.36579 0.09152 0.0
O345 O 0.38659 0.38245 0.09979 0.0
O346 O 0.40071 0.36286 0.06642 0.0
C347 C 0.3744 0.42876 0.12917 0.0
O348 O 0.36072 0.41715 0.12242 0.0
C349 C 0.43772 0.40417 0.05881 0.0
Zn350 Zn 0.36443 0.65046 0.78092 0.0
Zn351 Zn 0.34347 0.64005 0.83022 0.0
O352 O 0.33284 0.62381 0.79248 0.0
O353 O 0.35309 0.63026 0.75352 0.0
O354 O 0.3262 0.63487 0.8682 0.0
O355 O 0.35462 0.67674 0.78038 0.0
O356 O 0.34084 0.66884 0.82634 0.0
C357 C 0.33922 0.62103 0.76381 0.0
C358 C 0.38577 0.63517 0.83396 0.0
O359 O 0.36967 0.6314 0.84565 0.0
O360 O 0.3872 0.6443 0.80757 0.0
C361 C 0.31916 0.61907 0.87526 0.0
O362 O 0.3236 0.60441 0.85759 0.0
C363 C 0.34526 0.68126 0.80536 0.0
Zn364 Zn 0.10051 0.61602 0.52388 0.0
Zn365 Zn 0.10971 0.59377 0.57164 0.0
O366 O 0.12631 0.58369 0.53384 0.0
O367 O 0.1206 0.6049 0.49616 0.0
O368 O 0.11442 0.57574 0.60874 0.0
O369 O 0.07408 0.60705 0.52151 0.0
O370 O 0.08087 0.59154 0.56629 0.0
C371 C 0.12953 0.59066 0.50571 0.0
C372 C 0.11538 0.63595 0.5785 0.0
O373 O 0.11856 0.61951 0.58925 0.0
O374 O 0.10676 0.63818 0.55177 0.0
C375 C 0.13045 0.56994 0.61746 0.0
O376 O 0.14534 0.57611 0.6021 0.0
C377 C 0.06891 0.59695 0.54518 0.0
Zn378 Zn 0.12931 0.35826 0.28387 0.0
Zn379 Zn 0.15321 0.36649 0.33119 0.0
O380 O 0.16344 0.382 0.29203 0.0
O381 O 0.14235 0.37608 0.25414 0.0
O382 O 0.17238 0.37061 0.36667 0.0
O383 O 0.13584 0.3309 0.28498 0.0
O384 O 0.15384 0.33767 0.32688 0.0
C385 C 0.15691 0.38457 0.26338 0.0
C386 C 0.11172 0.37609 0.33892 0.0
O387 O 0.12834 0.37668 0.3502 0.0
O388 O 0.10854 0.36844 0.31158 0.0
C389 C 0.17755 0.38649 0.37722 0.0
O390 O 0.16987 0.40165 0.3651 0.0
C391 C 0.14669 0.32564 0.30758 0.0
Zn392 Zn 0.39853 0.61763 0.47072 0.0
Zn393 Zn 0.38895 0.59604 0.42114 0.0
O394 O 0.37453 0.58409 0.4599 0.0
O395 O 0.38459 0.60091 0.50141 0.0
O396 O 0.38404 0.57853 0.38332 0.0
O397 O 0.42579 0.61398 0.46391 0.0
O398 O 0.41813 0.59559 0.42301 0.0
C399 C 0.37481 0.58759 0.49045 0.0
C400 C 0.37785 0.63727 0.42088 0.0
O401 O 0.37769 0.62139 0.40674 0.0
O402 O 0.38575 0.63916 0.44838 0.0
C403 C 0.36873 0.56999 0.37834 0.0
O404 O 0.35461 0.57285 0.39823 0.0
C405 C 0.43061 0.60339 0.44069 0.0
Zn406 Zn 0.13786 0.64674 0.22888 0.0
Zn407 Zn 0.15697 0.63903 0.17573 0.0
O408 O 0.17033 0.62342 0.21159 0.0
O409 O 0.15696 0.63379 0.25651 0.0
O410 O 0.17337 0.63501 0.13619 0.0
O411 O 0.13949 0.67436 0.22191 0.0
O412 O 0.15757 0.66801 0.17994 0.0
C413 C 0.16912 0.62371 0.24266 0.0
C414 C 0.11643 0.62637 0.18078 0.0
O415 O 0.13102 0.62851 0.16326 0.0
O416 O 0.11621 0.63223 0.21 0.0
C417 C 0.17848 0.61906 0.12589 0.0
O418 O 0.17229 0.60399 0.14066 0.0
C419 C 0.14966 0.67991 0.19859 0.0
Zn420 Zn 0.10149 0.38285 0.9614 0.0
Zn421 Zn 0.11169 0.40443 0.91244 0.0
O422 O 0.12579 0.41613 0.95179 0.0
O423 O 0.11479 0.3996 0.99291 0.0
O424 O 0.1167 0.42239 0.8754 0.0
O425 O 0.07429 0.38602 0.95334 0.0
O426 O 0.08248 0.40472 0.9132 0.0
C427 C 0.12495 0.41273 0.98234 0.0
C428 C 0.12297 0.36336 0.91224 0.0
O429 O 0.12317 0.3792 0.89792 0.0
O430 O 0.11484 0.36153 0.93955 0.0
C431 C 0.13265 0.42834 0.86659 0.0
O432 O 0.14765 0.42225 0.88172 0.0
C433 C 0.06979 0.3967 0.93005 0.0
Zn434 Zn 0.36216 0.34635 0.71978 0.0
Zn435 Zn 0.34316 0.35907 0.66858 0.0
O436 O 0.33155 0.37394 0.70716 0.0
O437 O 0.34647 0.36207 0.74945 0.0
O438 O 0.32694 0.36575 0.62989 0.0
O439 O 0.35503 0.31977 0.71225 0.0
O440 O 0.34052 0.33006 0.66841 0.0
C441 C 0.33436 0.37312 0.7379 0.0
C442 C 0.38505 0.36578 0.6718 0.0
O443 O 0.3696 0.36826 0.65689 0.0
O444 O 0.38546 0.35681 0.6985 0.0
C445 C 0.32019 0.3818 0.6238 0.0
O446 O 0.32431 0.39587 0.64311 0.0
C447 C 0.34557 0.31655 0.68679 0.0
H448 H 0.16099 0.05585 0.35548 0.0
H449 H 0.16429 0.0322 0.31256 0.0
H450 H 0.1061 0.03864 0.28789 0.0
H451 H 0.10273 0.0624 0.33018 0.0
H452 H 0.14583 0.99849 0.30693 0.0
H453 H 0.13107 0.04282 0.1991 0.0
H454 H 0.1364 0.05249 0.23877 0.0
H455 H 0.11319 0.04436 0.22969 0.0
C456 C 0.14894 0.05236 0.3407 0.0
C457 C 0.13162 0.0611 0.34619 0.0
C458 C 0.15085 0.03883 0.31622 0.0
C459 C 0.13552 0.03387 0.29667 0.0
C460 C 0.11823 0.04255 0.30213 0.0
H461 H 0.10421 0.95184 0.155 0.0
H462 H 0.10671 0.97677 0.19546 0.0
C463 C 0.11631 0.05608 0.3265 0.0
C464 C 0.13726 0.01903 0.27152 0.0
H465 H 0.12935 0.00976 0.19082 0.0
C466 C 0.14248 0.00099 0.28145 0.0
C467 C 0.13293 0.02233 0.23828 0.0
C468 C 0.12827 0.04159 0.22573 0.0
C469 C 0.14269 0.98599 0.25929 0.0
C470 C 0.13774 0.9892 0.2263 0.0
C471 C 0.13303 0.00733 0.21619 0.0
C472 C 0.13652 0.97382 0.20216 0.0
C473 C 0.14749 0.96671 0.27153 0.0
C474 C 0.1525 0.96393 0.19239 0.0
C475 C 0.15114 0.94962 0.16916 0.0
C476 C 0.13376 0.945 0.15528 0.0
C477 C 0.11781 0.95498 0.1652 0.0
C478 C 0.1192 0.96927 0.1883 0.0
H479 H 0.14753 0.96597 0.29866 0.0
H480 H 0.13741 0.95625 0.26198 0.0
H481 H 0.1616 0.9628 0.26267 0.0
H482 H 0.16605 0.96741 0.20246 0.0
H483 H 0.1637 0.94228 0.16198 0.0
H484 H 0.20527 0.90991 0.6166 0.0
H485 H 0.22792 0.91239 0.57194 0.0
H486 H 0.2158 0.85572 0.54329 0.0
H487 H 0.19304 0.85316 0.58748 0.0
H488 H 0.25976 0.89075 0.56227 0.0
H489 H 0.21155 0.884 0.457 0.0
H490 H 0.20349 0.88913 0.49784 0.0
H491 H 0.20908 0.86553 0.48634 0.0
C492 C 0.20729 0.89803 0.60061 0.0
C493 C 0.19728 0.88135 0.60558 0.0
C494 C 0.22026 0.89947 0.57513 0.0
C495 C 0.22335 0.88434 0.55399 0.0
C496 C 0.21335 0.86771 0.55885 0.0
H497 H 0.29832 0.85197 0.40086 0.0
H498 H 0.2744 0.85492 0.44309 0.0
C499 C 0.20041 0.86624 0.58428 0.0
C500 C 0.23765 0.88554 0.52782 0.0
H501 H 0.24406 0.88012 0.44565 0.0
C502 C 0.25633 0.88866 0.53671 0.0
C503 C 0.23311 0.88283 0.4945 0.0
C504 C 0.2132 0.88036 0.48325 0.0
C505 C 0.2707 0.88838 0.51333 0.0
C506 C 0.2662 0.88518 0.48013 0.0
C507 C 0.24747 0.8825 0.47114 0.0
C508 C 0.28079 0.88371 0.4545 0.0
C509 C 0.29064 0.89081 0.52448 0.0
C510 C 0.29222 0.899 0.44668 0.0
C511 C 0.30597 0.89737 0.4225 0.0
C512 C 0.30846 0.88042 0.40563 0.0
C513 C 0.29684 0.86521 0.41339 0.0
C514 C 0.28312 0.86687 0.4375 0.0
H515 H 0.29206 0.88917 0.55137 0.0
H516 H 0.29993 0.88054 0.51226 0.0
H517 H 0.29551 0.90502 0.51785 0.0
H518 H 0.29044 0.91223 0.45914 0.0
H519 H 0.31461 0.90938 0.41703 0.0
H520 H 0.3958 0.05126 0.65088 0.0
H521 H 0.39284 0.02804 0.69419 0.0
H522 H 0.33415 0.04057 0.70301 0.0
H523 H 0.33689 0.06368 0.65908 0.0
H524 H 0.38171 0.03263 0.75804 0.0
H525 H 0.33401 0.9839 0.69301 0.0
H526 H 0.34626 0.00247 0.67228 0.0
H527 H 0.32584 0.00755 0.6962 0.0
C528 C 0.38222 0.04909 0.66193 0.0
C529 C 0.36655 0.05929 0.65136 0.0
C530 C 0.38057 0.0358 0.68673 0.0
C531 C 0.36323 0.03236 0.70151 0.0
C532 C 0.34759 0.04271 0.69145 0.0
H533 H 0.337 0.95261 0.85817 0.0
H534 H 0.33469 0.97761 0.81734 0.0
C535 C 0.34921 0.056 0.66648 0.0
C536 C 0.36182 0.01814 0.72779 0.0
H537 H 0.34214 0.97608 0.74726 0.0
C538 C 0.373 0.02031 0.75572 0.0
C539 C 0.35039 0.00209 0.72479 0.0
C540 C 0.33854 0.9987 0.69487 0.0
C541 C 0.37326 0.00677 0.78051 0.0
C542 C 0.36221 0.99052 0.77711 0.0
C543 C 0.3506 0.98857 0.74971 0.0
C544 C 0.3633 0.97502 0.80104 0.0
C545 C 0.3854 0.00994 0.81015 0.0
C546 C 0.38002 0.96506 0.80481 0.0
C547 C 0.38138 0.95078 0.82793 0.0
C548 C 0.36602 0.94614 0.84777 0.0
C549 C 0.34912 0.95587 0.84338 0.0
C550 C 0.34776 0.97014 0.82009 0.0
H551 H 0.38914 0.02491 0.81306 0.0
H552 H 0.37828 0.0051 0.83273 0.0
H553 H 0.39853 0.00187 0.8074 0.0
H554 H 0.39208 0.96841 0.78993 0.0
H555 H 0.39459 0.94355 0.83051 0.0
H556 H 0.20244 0.09023 0.89108 0.0
H557 H 0.22604 0.08811 0.93431 0.0
H558 H 0.21922 0.14679 0.95471 0.0
H559 H 0.19555 0.14903 0.91198 0.0
H560 H 0.25983 0.10751 0.93919 0.0
H561 H 0.21418 0.1231 0.04511 0.0
H562 H 0.20502 0.11668 0.00556 0.0
H563 H 0.21265 0.14022 0.01318 0.0
C564 C 0.20586 0.10266 0.90493 0.0
C565 C 0.19703 0.11978 0.89814 0.0
C566 C 0.21936 0.10142 0.92959 0.0
C567 C 0.22417 0.11722 0.94806 0.0
C568 C 0.21544 0.13433 0.94125 0.0
H569 H 0.30402 0.14966 0.09386 0.0
H570 H 0.27948 0.14715 0.05264 0.0
C571 C 0.20197 0.13559 0.91665 0.0
C572 C 0.23881 0.11609 0.97368 0.0
H573 H 0.24705 0.12468 0.05451 0.0
C574 C 0.25702 0.11105 0.96449 0.0
C575 C 0.23509 0.1207 0.00667 0.0
C576 C 0.21564 0.12531 0.01835 0.0
C577 C 0.27176 0.11119 0.98718 0.0
C578 C 0.26811 0.11625 0.01998 0.0
C579 C 0.24982 0.12089 0.02931 0.0
C580 C 0.28316 0.1175 0.0448 0.0
C581 C 0.29123 0.1066 0.97561 0.0
C582 C 0.2933 0.10162 0.05429 0.0
C583 C 0.30739 0.10299 0.0779 0.0
C584 C 0.31154 0.12029 0.09254 0.0
C585 C 0.30125 0.13613 0.08307 0.0
C586 C 0.28718 0.13473 0.05953 0.0
H587 H 0.29235 0.10697 0.94853 0.0
H588 H 0.30155 0.11651 0.98607 0.0
H589 H 0.295 0.09233 0.98392 0.0
H590 H 0.2902 0.08812 0.04363 0.0
H591 H 0.31497 0.0905 0.08473 0.0
H592 H 0.84065 0.95484 0.64136 0.0
H593 H 0.83897 0.97885 0.68404 0.0
H594 H 0.89641 0.96819 0.70951 0.0
H595 H 0.89829 0.94436 0.667 0.0
H596 H 0.84611 0.97563 0.7529 0.0
H597 H 0.89483 0.02499 0.6925 0.0
H598 H 0.88392 0.00585 0.67102 0.0
H599 H 0.90387 0.00172 0.6967 0.0
C600 C 0.85292 0.9576 0.65606 0.0
C601 C 0.86964 0.94775 0.65059 0.0
C602 C 0.85192 0.97131 0.68043 0.0
C603 C 0.86765 0.97549 0.69954 0.0
C604 C 0.88421 0.96542 0.6946 0.0
H605 H 0.89984 0.04767 0.85703 0.0
H606 H 0.8972 0.02502 0.81267 0.0
C607 C 0.88522 0.95173 0.67036 0.0
C608 C 0.86687 0.9903 0.72485 0.0
H609 H 0.88728 0.0313 0.74806 0.0
C610 C 0.85495 0.98791 0.75175 0.0
C611 C 0.8784 0.00631 0.72319 0.0
C612 C 0.89086 0.01002 0.69417 0.0
C613 C 0.85481 1.00077 0.77774 0.0
C614 C 0.86667 0.01657 0.77641 0.0
C615 C 0.87825 0.01915 0.7491 0.0
C616 C 0.86789 0.03023 0.80361 0.0
C617 C 0.8425 0.99696 0.80692 0.0
C618 C 0.85231 0.04084 0.81311 0.0
C619 C 0.85376 0.05381 0.8386 0.0
C620 C 0.87085 0.0565 0.8549 0.0
C621 C 0.88645 0.04596 0.84508 0.0
C622 C 0.88498 0.033 0.81969 0.0
H623 H 0.83761 0.98224 0.80752 0.0
H624 H 0.85 1.00002 0.83006 0.0
H625 H 0.83002 0.00613 0.80573 0.0
H626 H 0.83909 0.03921 0.8006 0.0
H627 H 0.8415 0.06177 0.84541 0.0
H628 H 0.79817 0.15157 0.39722 0.0
H629 H 0.7744 0.14831 0.43965 0.0
H630 H 0.78375 0.08885 0.44228 0.0
H631 H 0.80768 0.09194 0.39978 0.0
H632 H 0.7412 0.12539 0.43602 0.0
H633 H 0.78776 0.10586 0.53948 0.0
H634 H 0.79645 0.11685 0.50277 0.0
H635 H 0.79024 0.09257 0.50242 0.0
C636 C 0.79529 0.13778 0.4069 0.0
C637 C 0.80488 0.12201 0.39512 0.0
C638 C 0.78166 0.13596 0.43111 0.0
C639 C 0.77744 0.11838 0.44427 0.0
C640 C 0.78699 0.10259 0.43273 0.0
H641 H 0.69961 0.09011 0.60207 0.0
H642 H 0.72224 0.08799 0.5573 0.0
C643 C 0.8006 0.10438 0.40836 0.0
C644 C 0.76268 0.11667 0.4695 0.0
H645 H 0.75546 0.10709 0.55027 0.0
C646 C 0.74428 0.12133 0.46099 0.0
C647 C 0.76675 0.11121 0.50194 0.0
C648 C 0.78637 0.10644 0.51245 0.0
C649 C 0.72983 0.12083 0.48415 0.0
C650 C 0.73398 0.11597 0.51688 0.0
C651 C 0.75231 0.11084 0.52519 0.0
C652 C 0.71972 0.117 0.54315 0.0
C653 C 0.71022 0.12541 0.47326 0.0
C654 C 0.71089 0.13403 0.5502 0.0
C655 C 0.69794 0.13527 0.57562 0.0
C656 C 0.69366 0.11954 0.59481 0.0
C657 C 0.70253 0.10248 0.58772 0.0
C658 C 0.71549 0.10124 0.56218 0.0
H659 H 0.70839 0.12307 0.44661 0.0
H660 H 0.69976 0.11688 0.48663 0.0
H661 H 0.70734 0.14037 0.47826 0.0
H662 H 0.71427 0.14648 0.53636 0.0
H663 H 0.69149 0.14867 0.58052 0.0
H664 H 0.66079 0.94644 0.34947 0.0
H665 H 0.66233 0.97014 0.30632 0.0
H666 H 0.60219 0.97212 0.30282 0.0
H667 H 0.60047 0.94864 0.34601 0.0
H668 H 0.64731 0.96905 0.24235 0.0
H669 H 0.61699 0.02712 0.31473 0.0
H670 H 0.62568 0.00597 0.33334 0.0
H671 H 0.60299 0.00631 0.31451 0.0
C672 C 0.64788 0.95195 0.33957 0.0
C673 C 0.6305 0.94571 0.35136 0.0
C674 C 0.6488 0.96547 0.3149 0.0
C675 C 0.63238 0.97311 0.30176 0.0
C676 C 0.61504 0.9667 0.3131 0.0
H677 H 0.60158 0.05196 0.15207 0.0
H678 H 0.60304 0.02893 0.19609 0.0
C679 C 0.61409 0.95319 0.33768 0.0
C680 C 0.6333 0.98754 0.27579 0.0
H681 H 0.61995 0.03213 0.25748 0.0
C682 C 0.64149 0.9829 0.24569 0.0
C683 C 0.62569 0.0056 0.28027 0.0
C684 C 0.61749 0.01166 0.31255 0.0
C685 C 0.64172 0.99565 0.21957 0.0
C686 C 0.63384 0.01361 0.2239 0.0
C687 C 0.62592 0.01833 0.25418 0.0
C688 C 0.63321 0.02757 0.1971 0.0
C689 C 0.64984 0.98958 0.18724 0.0
C690 C 0.64971 0.03463 0.1833 0.0
C691 C 0.64894 0.04781 0.15806 0.0
C692 C 0.63164 0.05425 0.14627 0.0
C693 C 0.61514 0.04729 0.16046 0.0
C694 C 0.61594 0.03413 0.18567 0.0
H695 H 0.65123 0.97415 0.18564 0.0
H696 H 0.64104 0.99449 0.16661 0.0
H697 H 0.66395 0.99577 0.18437 0.0
H698 H 0.6632 0.03004 0.1922 0.0
H699 H 0.66191 0.05294 0.14781 0.0
H700 H 0.73001 0.86909 0.86171 0.0
H701 H 0.74955 0.87223 0.9104 0.0
H702 H 0.70039 0.87965 0.96978 0.0
H703 H 0.68064 0.8765 0.92117 0.0
H704 H 0.75114 0.90246 0.9592 0.0
H705 H 0.72879 0.83384 0.00986 0.0
H706 H 0.72537 0.84005 0.9675 0.0
H707 H 0.71051 0.8498 0.99843 0.0
C708 C 0.72332 0.87151 0.88507 0.0
C709 C 0.70374 0.8724 0.88757 0.0
C710 C 0.73453 0.87334 0.91285 0.0
C711 C 0.72639 0.87595 0.94367 0.0
C712 C 0.70691 0.87741 0.94621 0.0
H713 H 0.77632 0.87071 0.13771 0.0
H714 H 0.75462 0.87461 0.09209 0.0
C715 C 0.69566 0.87568 0.91839 0.0
C716 C 0.73835 0.87647 0.97321 0.0
H717 H 0.75002 0.85139 0.04113 0.0
C718 C 0.75088 0.89135 0.97723 0.0
C719 C 0.73791 0.86197 0.99664 0.0
C720 C 0.72504 0.8454 0.99297 0.0
C721 C 0.763 0.89215 0.00423 0.0
C722 C 0.76287 0.87742 0.02732 0.0
C723 C 0.75012 0.86268 0.02345 0.0
C724 C 0.77616 0.87663 0.05517 0.0
C725 C 0.77563 0.90888 0.00794 0.0
C726 C 0.79552 0.87651 0.04965 0.0
C727 C 0.80798 0.87441 0.07573 0.0
C728 C 0.80132 0.87211 0.10781 0.0
C729 C 0.78193 0.87243 0.11331 0.0
C730 C 0.76949 0.87466 0.08725 0.0
H731 H 0.77002 0.92122 0.9947 0.0
H732 H 0.77754 0.91265 0.03405 0.0
H733 H 0.78952 0.90557 0.99741 0.0
H734 H 0.80101 0.87752 0.02506 0.0
H735 H 0.82282 0.87409 0.07059 0.0
H736 H 0.6172 0.4809 0.60863 0.0
H737 H 0.62007 0.50198 0.65536 0.0
H738 H 0.62304 0.45465 0.72038 0.0
H739 H 0.62063 0.43347 0.67372 0.0
H740 H 0.59634 0.50549 0.70612 0.0
H741 H 0.66624 0.48575 0.75281 0.0
H742 H 0.65798 0.47874 0.71297 0.0
H743 H 0.65077 0.46617 0.74892 0.0
C744 C 0.61868 0.47496 0.63283 0.0
C745 C 0.61873 0.45549 0.63742 0.0
C746 C 0.62032 0.48704 0.65953 0.0
C747 C 0.62205 0.47992 0.69136 0.0
C748 C 0.6222 0.46049 0.696 0.0
H749 H 0.61488 0.52567 0.88607 0.0
H750 H 0.61739 0.50596 0.83744 0.0
C751 C 0.62069 0.44838 0.66929 0.0
C752 C 0.62249 0.49283 0.71978 0.0
H753 H 0.6473 0.50436 0.78824 0.0
C754 C 0.60759 0.50537 0.72388 0.0
C755 C 0.63716 0.49266 0.74299 0.0
C756 C 0.65403 0.48024 0.73909 0.0
C757 C 0.60671 0.51739 0.75093 0.0
C758 C 0.62121 0.51699 0.77437 0.0
C759 C 0.6362 0.50459 0.77021 0.0
C760 C 0.62074 0.52902 0.80382 0.0
C761 C 0.59004 0.5301 0.75475 0.0
C762 C 0.62215 0.5485 0.80104 0.0
C763 C 0.62077 0.55983 0.8288 0.0
C764 C 0.61792 0.55185 0.85983 0.0
C765 C 0.61697 0.53229 0.86255 0.0
C766 C 0.61845 0.52098 0.83481 0.0
H767 H 0.57844 0.52618 0.73804 0.0
H768 H 0.5848 0.52978 0.78029 0.0
H769 H 0.59425 0.54466 0.74909 0.0
H770 H 0.62414 0.55495 0.77734 0.0
H771 H 0.62162 0.57484 0.82585 0.0
H772 H 0.79919 0.40734 0.89269 0.0
H773 H 0.77677 0.41003 0.93769 0.0
H774 H 0.7869 0.35256 0.96377 0.0
H775 H 0.80947 0.34983 0.9194 0.0
H776 H 0.74433 0.39013 0.9467 0.0
H777 H 0.79197 0.37857 0.05134 0.0
H778 H 0.80038 0.38384 0.01078 0.0
H779 H 0.7935 0.36041 0.02126 0.0
C780 C 0.7968 0.39534 0.90824 0.0
C781 C 0.8062 0.37839 0.90249 0.0
C782 C 0.78397 0.39689 0.93391 0.0
C783 C 0.78037 0.38159 0.95443 0.0
C784 C 0.78977 0.36469 0.94878 0.0
H785 H 0.703 0.34916 0.10402 0.0
H786 H 0.7269 0.35178 0.06165 0.0
C787 C 0.80261 0.36313 0.92322 0.0
C788 C 0.76611 0.38289 0.9807 0.0
H789 H 0.75926 0.37559 0.06233 0.0
C790 C 0.74762 0.3872 0.97205 0.0
C791 C 0.77044 0.37908 0.01378 0.0
C792 C 0.79019 0.3754 0.02494 0.0
C793 C 0.73322 0.38706 0.99539 0.0
C794 C 0.73748 0.38269 0.02826 0.0
C795 C 0.75603 0.37882 0.03705 0.0
C796 C 0.7228 0.38136 0.05372 0.0
C797 C 0.71346 0.39091 0.98453 0.0
C798 C 0.71265 0.39718 0.06346 0.0
C799 C 0.69895 0.39575 0.08777 0.0
C800 C 0.6952 0.37846 0.10278 0.0
C801 C 0.70547 0.36268 0.09294 0.0
C802 C 0.71917 0.36414 0.06877 0.0
H803 H 0.712 0.39043 0.95751 0.0
H804 H 0.70366 0.38063 0.99547 0.0
H805 H 0.70925 0.40502 0.99295 0.0
H806 H 0.71543 0.41066 0.05248 0.0
H807 H 0.69136 0.40819 0.09484 0.0
H808 H 0.89611 0.44412 0.33765 0.0
H809 H 0.8935 0.46702 0.29358 0.0
H810 H 0.83766 0.48064 0.32494 0.0
H811 H 0.84015 0.45782 0.36932 0.0
H812 H 0.86693 0.46893 0.24222 0.0
H813 H 0.86474 0.53169 0.32216 0.0
H814 H 0.87231 0.50912 0.33672 0.0
H815 H 0.84787 0.51385 0.33136 0.0
C816 C 0.88325 0.45196 0.33523 0.0
C817 C 0.86837 0.44919 0.35715 0.0
C818 C 0.88179 0.46504 0.30998 0.0
C819 C 0.86549 0.47569 0.30626 0.0
C820 C 0.85048 0.47277 0.32772 0.0
H821 H 0.8405 0.54296 0.13279 0.0
H822 H 0.83847 0.52079 0.17822 0.0
C823 C 0.8519 0.45965 0.35296 0.0
C824 C 0.86428 0.48979 0.27979 0.0
H825 H 0.86106 0.53669 0.26543 0.0
C826 C 0.86556 0.48374 0.24725 0.0
C827 C 0.86268 0.50911 0.28649 0.0
C828 C 0.86197 0.51643 0.32105 0.0
C829 C 0.86534 0.4965 0.22118 0.0
C830 C 0.86356 0.51581 0.22786 0.0
C831 C 0.86225 0.52187 0.2604 0.0
C832 C 0.86401 0.52999 0.20143 0.0
C833 C 0.86756 0.48926 0.18676 0.0
C834 C 0.8787 0.54292 0.20002 0.0
C835 C 0.87987 0.55565 0.17421 0.0
C836 C 0.8663 0.55577 0.14933 0.0
C837 C 0.85124 0.54319 0.15142 0.0
C838 C 0.8501 0.53044 0.17727 0.0
H839 H 0.87276 0.47464 0.18632 0.0
H840 H 0.85381 0.48959 0.17426 0.0
H841 H 0.87736 0.49817 0.17263 0.0
H842 H 0.88953 0.54286 0.21851 0.0
H843 H 0.89162 0.56517 0.17346 0.0
H844 H 0.69896 0.59165 0.3991 0.0
H845 H 0.72224 0.58891 0.44274 0.0
H846 H 0.71902 0.64827 0.45958 0.0
H847 H 0.69562 0.65112 0.4165 0.0
H848 H 0.75701 0.60579 0.44693 0.0
H849 H 0.7126 0.62722 0.55124 0.0
H850 H 0.70301 0.62073 0.51204 0.0
H851 H 0.71234 0.64379 0.51834 0.0
C852 C 0.70309 0.6041 0.41228 0.0
C853 C 0.69534 0.6216 0.40439 0.0
C854 C 0.71641 0.6025 0.43718 0.0
C855 C 0.72215 0.61833 0.45477 0.0
C856 C 0.71449 0.6358 0.44686 0.0
H857 H 0.80423 0.64955 0.59703 0.0
H858 H 0.77973 0.64734 0.55572 0.0
C859 C 0.70118 0.63741 0.42205 0.0
C860 C 0.73666 0.61681 0.48054 0.0
H861 H 0.74556 0.62708 0.56056 0.0
C862 C 0.75446 0.61022 0.47189 0.0
C863 C 0.7333 0.62256 0.51311 0.0
C864 C 0.71423 0.6288 0.52437 0.0
C865 C 0.76919 0.60995 0.4946 0.0
C866 C 0.76594 0.61622 0.52688 0.0
C867 C 0.74804 0.62237 0.53573 0.0
C868 C 0.78109 0.61726 0.55153 0.0
C869 C 0.78828 0.60362 0.48359 0.0
C870 C 0.78994 0.60104 0.56302 0.0
C871 C 0.804 0.60224 0.58674 0.0
C872 C 0.80941 0.61969 0.59942 0.0
C873 C 0.80047 0.63589 0.58779 0.0
C874 C 0.78642 0.63466 0.5642 0.0
H875 H 0.78934 0.6028 0.45654 0.0
H876 H 0.79925 0.61324 0.49278 0.0
H877 H 0.79114 0.58952 0.49371 0.0
H878 H 0.78583 0.58745 0.55393 0.0
H879 H 0.81053 0.5895 0.59524 0.0
H880 H 0.3435 0.43623 0.16667 0.0
H881 H 0.33977 0.46104 0.20745 0.0
H882 H 0.39597 0.47974 0.18855 0.0
H883 H 0.39979 0.45522 0.14769 0.0
H884 H 0.36097 0.46723 0.26422 0.0
H885 H 0.36544 0.52786 0.18038 0.0
H886 H 0.36128 0.50437 0.16606 0.0
H887 H 0.38456 0.51183 0.17615 0.0
C888 C 0.35503 0.44569 0.17106 0.0
C889 C 0.37192 0.44378 0.15378 0.0
C890 C 0.35287 0.45985 0.19438 0.0
C891 C 0.36748 0.47243 0.20062 0.0
C892 C 0.38437 0.47046 0.1836 0.0
H893 H 0.39545 0.56062 0.33349 0.0
H894 H 0.3935 0.53704 0.29049 0.0
C895 C 0.38656 0.45633 0.16037 0.0
C896 C 0.36543 0.48723 0.22575 0.0
H897 H 0.36866 0.53436 0.23735 0.0
C898 C 0.36241 0.48193 0.25835 0.0
C899 C 0.3673 0.5064 0.21797 0.0
C900 C 0.36965 0.51301 0.1832 0.0
C901 C 0.362 0.49523 0.2836 0.0
C902 C 0.36436 0.51436 0.2759 0.0
C903 C 0.36691 0.51969 0.2432 0.0
C904 C 0.36508 0.52898 0.30158 0.0
C905 C 0.35979 0.48864 0.31841 0.0
C906 C 0.34962 0.53251 0.32175 0.0
C907 C 0.35069 0.546 0.34645 0.0
C908 C 0.36721 0.55627 0.3513 0.0
C909 C 0.38252 0.55295 0.33053 0.0
C910 C 0.38144 0.53948 0.30589 0.0
H911 H 0.36223 0.47337 0.32081 0.0
H912 H 0.3696 0.4961 0.33487 0.0
H913 H 0.34536 0.49163 0.32679 0.0
H914 H 0.33675 0.5248 0.31843 0.0
H915 H 0.33861 0.54826 0.36188 0.0
H916 H 0.19637 0.64755 0.09429 0.0
H917 H 0.22024 0.64521 0.05181 0.0
H918 H 0.21593 0.58517 0.05404 0.0
H919 H 0.19197 0.58733 0.09663 0.0
H920 H 0.25524 0.62497 0.05818 0.0
H921 H 0.21131 0.59937 0.95526 0.0
H922 H 0.20147 0.61074 0.99072 0.0
H923 H 0.20937 0.58701 0.9934 0.0
C924 C 0.20035 0.63383 0.08561 0.0
C925 C 0.19223 0.61762 0.09888 0.0
C926 C 0.21403 0.63253 0.06136 0.0
C927 C 0.21974 0.61503 0.04964 0.0
C928 C 0.21154 0.59882 0.06248 0.0
H929 H 0.30134 0.5876 0.8975 0.0
H930 H 0.27801 0.58548 0.94115 0.0
C931 C 0.19789 0.60009 0.0869 0.0
C932 C 0.23479 0.61387 0.02487 0.0
H933 H 0.24358 0.60258 0.94526 0.0
C934 C 0.25272 0.62004 0.0335 0.0
C935 C 0.23148 0.60727 0.99284 0.0
C936 C 0.21236 0.60081 0.98224 0.0
C937 C 0.26745 0.61989 0.01085 0.0
C938 C 0.26402 0.61383 0.97847 0.0
C939 C 0.24617 0.60726 0.97006 0.0
C940 C 0.27855 0.61497 0.95265 0.0
C941 C 0.28657 0.62607 0.02194 0.0
C942 C 0.28648 0.63226 0.94443 0.0
C943 C 0.29984 0.63352 0.91966 0.0
C944 C 0.30544 0.61751 0.90229 0.0
C945 C 0.29741 0.60019 0.91045 0.0
C946 C 0.28404 0.59895 0.93535 0.0
H947 H 0.28821 0.62464 0.04883 0.0
H948 H 0.29773 0.61786 0.00975 0.0
H949 H 0.28855 0.64102 0.01566 0.0
H950 H 0.28213 0.64488 0.95688 0.0
H951 H 0.30561 0.6471 0.91388 0.0
H952 H 0.10413 0.4453 0.83362 0.0
H953 H 0.1063 0.46955 0.79184 0.0
H954 H 0.16636 0.46831 0.79863 0.0
H955 H 0.16437 0.4439 0.84051 0.0
H956 H 0.12391 0.50537 0.79929 0.0
H957 H 0.15543 0.46325 0.69915 0.0
H958 H 0.14397 0.45268 0.73385 0.0
H959 H 0.16698 0.46231 0.73816 0.0
C960 C 0.11784 0.45006 0.82614 0.0
C961 C 0.13409 0.44261 0.84041 0.0
C962 C 0.11903 0.46396 0.80228 0.0
C963 C 0.13648 0.47061 0.79195 0.0
C964 C 0.15276 0.46318 0.80594 0.0
H965 H 0.16243 0.55445 0.64255 0.0
H966 H 0.16498 0.53114 0.68618 0.0
C967 C 0.15159 0.44928 0.82996 0.0
C968 C 0.13744 0.48573 0.76725 0.0
H969 H 0.15037 0.49524 0.68864 0.0
C970 C 0.12974 0.50319 0.77512 0.0
C971 C 0.14518 0.48287 0.73587 0.0
C972 C 0.15327 0.46425 0.72598 0.0
C973 C 0.12945 0.51785 0.75234 0.0
C974 C 0.13668 0.51483 0.72058 0.0
C975 C 0.14479 0.49751 0.71297 0.0
C976 C 0.13521 0.5292 0.69454 0.0
C977 C 0.12153 0.53647 0.7626 0.0
C978 C 0.11763 0.53568 0.68451 0.0
C979 C 0.11612 0.54901 0.65971 0.0
C980 C 0.13218 0.55603 0.64417 0.0
C981 C 0.14979 0.54939 0.65407 0.0
C982 C 0.15128 0.53605 0.67897 0.0
H983 H 0.12191 0.53823 0.78958 0.0
H984 H 0.12931 0.54819 0.75117 0.0
H985 H 0.10673 0.53735 0.75473 0.0
H986 H 0.10502 0.53028 0.69564 0.0
H987 H 0.10233 0.55369 0.65256 0.0
H988 H 0.19744 0.35789 0.40453 0.0
H989 H 0.22234 0.35993 0.44519 0.0
H990 H 0.21663 0.41985 0.44721 0.0
H991 H 0.19157 0.41798 0.40653 0.0
H992 H 0.25675 0.38049 0.43959 0.0
H993 H 0.21336 0.40392 0.54474 0.0
H994 H 0.20333 0.39341 0.50866 0.0
H995 H 0.21122 0.4172 0.50761 0.0
C996 C 0.20139 0.37152 0.41368 0.0
C997 C 0.19245 0.38778 0.40232 0.0
C998 C 0.21566 0.37265 0.43688 0.0
C999 C 0.2212 0.39001 0.44942 0.0
C1000 C 0.21237 0.40629 0.43817 0.0
H1001 H 0.30294 0.41399 0.60342 0.0
H1002 H 0.28 0.41742 0.55936 0.0
C1003 C 0.1981 0.40519 0.41484 0.0
C1004 C 0.23647 0.39095 0.47383 0.0
H1005 H 0.24568 0.40071 0.55392 0.0
C1006 C 0.25437 0.38498 0.46457 0.0
C1007 C 0.23334 0.39695 0.50629 0.0
C1008 C 0.21427 0.40313 0.51767 0.0
C1009 C 0.26921 0.38469 0.48699 0.0
C1010 C 0.26595 0.3901 0.51977 0.0
C1011 C 0.24815 0.39654 0.52881 0.0
C1012 C 0.28051 0.38827 0.54542 0.0
C1013 C 0.28827 0.37869 0.47526 0.0
C1014 C 0.28834 0.37074 0.55234 0.0
C1015 C 0.30148 0.36875 0.57734 0.0
C1016 C 0.30694 0.38423 0.59626 0.0
C1017 C 0.29909 0.4018 0.58927 0.0
C1018 C 0.28596 0.40378 0.56414 0.0
H1019 H 0.28983 0.38081 0.4485 0.0
H1020 H 0.29952 0.38649 0.488 0.0
H1021 H 0.29015 0.36357 0.4803 0.0
H1022 H 0.28402 0.35849 0.5388 0.0
H1023 H 0.30711 0.35499 0.58216 0.0
H1024 H 0.12594 0.17408 0.44556 0.0
H1025 H 0.13637 0.20302 0.41987 0.0
H1026 H 0.13697 0.17587 0.32588 0.0
H1027 H 0.1266 0.14659 0.35147 0.0
H1028 H 0.17005 0.20969 0.37185 0.0
H1029 H 0.09808 0.22244 0.32463 0.0
H1030 H 0.10225 0.20743 0.35934 0.0
H1031 H 0.10857 0.19978 0.31913 0.0
C1032 C 0.12848 0.17414 0.41946 0.0
C1033 C 0.12528 0.15806 0.40049 0.0
C1034 C 0.13453 0.19068 0.40488 0.0
C1035 C 0.13735 0.19154 0.37106 0.0
C1036 C 0.13484 0.17541 0.35208 0.0
H1037 H 0.14011 0.29707 0.26491 0.0
H1038 H 0.14116 0.26358 0.27622 0.0
C1039 C 0.12893 0.15873 0.36672 0.0
C1040 C 0.14144 0.20978 0.35574 0.0
H1041 H 0.1199 0.24648 0.31844 0.0
C1042 C 0.15921 0.2177 0.35972 0.0
C1043 C 0.12726 0.22007 0.33992 0.0
C1044 C 0.1079 0.21214 0.33544 0.0
C1045 C 0.16308 0.2359 0.34876 0.0
C1046 C 0.1486 0.2466 0.33438 0.0
C1047 C 0.13102 0.23834 0.32945 0.0
C1048 C 0.15082 0.26669 0.32605 0.0
C1049 C 0.18262 0.24344 0.35272 0.0
C1050 C 0.15626 0.27963 0.35007 0.0
C1051 C 0.15591 0.2988 0.3435 0.0
C1052 C 0.14972 0.30542 0.31302 0.0
C1053 C 0.14486 0.29243 0.28869 0.0
C1054 C 0.14546 0.27327 0.29512 0.0
H1055 H 0.19308 0.23197 0.3527 0.0
H1056 H 0.1862 0.25345 0.33298 0.0
H1057 H 0.18371 0.25075 0.37656 0.0
H1058 H 0.15994 0.27499 0.37441 0.0
H1059 H 0.15958 0.30845 0.36286 0.0
H1060 H 0.96498 0.88714 0.53504 0.0
H1061 H 0.99745 0.88845 0.5532 0.0
H1062 H 0.98062 0.91823 0.63988 0.0
H1063 H 0.94797 0.91703 0.62193 0.0
H1064 H 0.0218 0.92091 0.57546 0.0
H1065 H 0.00557 0.86702 0.66951 0.0
H1066 H 0.99067 0.87105 0.63463 0.0
H1067 H 0.99072 0.88728 0.66803 0.0
C1068 C 0.96816 0.89419 0.55779 0.0
C1069 C 0.95384 0.9018 0.57725 0.0
C1070 C 0.98675 0.895 0.56801 0.0
C1071 C 0.99135 0.90331 0.59792 0.0
C1072 C 0.97727 0.91168 0.61674 0.0
H1073 H 0.09088 0.88926 0.7148 0.0
H1074 H 0.06099 0.90016 0.69357 0.0
C1075 C 0.95864 0.91099 0.60644 0.0
C1076 C 0.01059 0.90161 0.61068 0.0
H1077 H 0.03648 0.87756 0.66647 0.0
C1078 C 0.02508 0.91156 0.59551 0.0
C1079 C 0.01472 0.88932 0.63668 0.0
C1080 C 0.99969 0.87792 0.65316 0.0
C1081 C 0.0437 0.90963 0.60596 0.0
C1082 C 0.04788 0.89707 0.63166 0.0
C1083 C 0.03328 0.88725 0.64687 0.0
C1084 C 0.06722 0.89344 0.64316 0.0
C1085 C 0.05862 0.92124 0.58969 0.0
C1086 C 0.08094 0.88651 0.62176 0.0
C1087 C 0.09824 0.8805 0.63385 0.0
C1088 C 0.10188 0.88095 0.66759 0.0
C1089 C 0.08842 0.8886 0.6887 0.0
C1090 C 0.07132 0.89485 0.6766 0.0
H1091 H 0.05264 0.93398 0.57826 0.0
H1092 H 0.06957 0.92549 0.60741 0.0
H1093 H 0.06531 0.91288 0.57009 0.0
H1094 H 0.07797 0.88488 0.59598 0.0
H1095 H 0.10831 0.87454 0.61708 0.0
H1096 H 0.36835 0.85893 0.84986 0.0
H1097 H 0.35617 0.83013 0.82511 0.0
H1098 H 0.35535 0.8038 0.91986 0.0
H1099 H 0.36758 0.83226 0.94465 0.0
H1100 H 0.37636 0.79482 0.83186 0.0
H1101 H 0.30374 0.79023 0.87832 0.0
H1102 H 0.31642 0.81203 0.87584 0.0
H1103 H 0.32094 0.796 0.9087 0.0
C1104 C 0.36525 0.8471 0.86546 0.0
C1105 C 0.36903 0.84782 0.89917 0.0
C1106 C 0.3583 0.83069 0.8513 0.0
C1107 C 0.35466 0.81495 0.87075 0.0
C1108 C 0.35776 0.8159 0.90452 0.0
H1109 H 0.33718 0.69778 0.86391 0.0
H1110 H 0.33701 0.73124 0.87593 0.0
C1111 C 0.36491 0.83214 0.91859 0.0
C1112 C 0.3497 0.79682 0.85574 0.0
H1113 H 0.31716 0.76198 0.85772 0.0
C1114 C 0.36328 0.78774 0.83689 0.0
C1115 C 0.33271 0.78762 0.86277 0.0
C1116 C 0.31752 0.797 0.8823 0.0
C1117 C 0.36078 0.76927 0.82633 0.0
C1118 C 0.34392 0.75984 0.83395 0.0
C1119 C 0.33004 0.76921 0.85181 0.0
C1120 C 0.34116 0.73983 0.82571 0.0
C1121 C 0.37672 0.75971 0.80884 0.0
C1122 C 0.34266 0.73356 0.79332 0.0
C1123 C 0.34305 0.71444 0.78645 0.0
C1124 C 0.34151 0.70125 0.81179 0.0
C1125 C 0.33844 0.70759 0.84386 0.0
C1126 C 0.33835 0.72672 0.85077 0.0
H1127 H 0.39013 0.76728 0.81218 0.0
H1128 H 0.37854 0.74517 0.81769 0.0
H1129 H 0.37368 0.75924 0.78226 0.0
H1130 H 0.34427 0.74344 0.77348 0.0
H1131 H 0.34518 0.70999 0.76142 0.0
H1132 H 0.39289 0.106 0.11101 0.0
H1133 H 0.42129 0.0926 0.08623 0.0
H1134 H 0.454 0.13735 0.12746 0.0
H1135 H 0.42612 0.1504 0.15259 0.0
H1136 H 0.44918 0.10613 0.04358 0.0
H1137 H 0.47871 0.09078 0.16521 0.0
H1138 H 0.45444 0.09672 0.15935 0.0
H1139 H 0.47186 0.11481 0.1623 0.0
C1140 C 0.40614 0.11305 0.11433 0.0
C1141 C 0.40737 0.12906 0.13413 0.0
C1142 C 0.42232 0.10537 0.10031 0.0
C1143 C 0.43981 0.1137 0.10587 0.0
C1144 C 0.44074 0.13038 0.12372 0.0
H1145 H 0.54463 0.12039 0.01732 0.0
H1146 H 0.51141 0.11917 0.0291 0.0
C1147 C 0.42476 0.13788 0.13792 0.0
C1148 C 0.45739 0.10503 0.09418 0.0
H1149 H 0.50098 0.09382 0.12117 0.0
C1150 C 0.46043 0.10305 0.06049 0.0
C1151 C 0.47187 0.1004 0.11625 0.0
C1152 C 0.46899 0.10058 0.1528 0.0
C1153 C 0.4781 0.09805 0.04827 0.0
C1154 C 0.49317 0.09554 0.07033 0.0
C1155 C 0.48962 0.09602 0.10407 0.0
C1156 C 0.51297 0.09441 0.05941 0.0
C1157 C 0.48043 0.09581 0.01185 0.0
C1158 C 0.52519 0.08107 0.07286 0.0
C1159 C 0.54442 0.08207 0.06687 0.0
C1160 C 0.55178 0.09632 0.04707 0.0
C1161 C 0.53943 0.10912 0.03247 0.0
C1162 C 0.52031 0.10831 0.0389 0.0
H1163 H 0.46739 0.0904 0.00057 0.0
H1164 H 0.48331 0.10966 0.00076 0.0
H1165 H 0.49207 0.08618 0.00576 0.0
H1166 H 0.51992 0.07026 0.08893 0.0
H1167 H 0.55355 0.07196 0.07841 0.0
H1168 H 0.12885 0.70783 0.22533 0.0
H1169 H 0.12893 0.74081 0.21104 0.0
H1170 H 0.17446 0.73142 0.14399 0.0
H1171 H 0.17395 0.69801 0.15723 0.0
H1172 H 0.15332 0.76899 0.21396 0.0
H1173 H 0.1362 0.75362 0.08411 0.0
H1174 H 0.13619 0.73577 0.11512 0.0
H1175 H 0.15787 0.74391 0.09806 0.0
C1176 C 0.13899 0.71273 0.20766 0.0
C1177 C 0.15122 0.70021 0.19205 0.0
C1178 C 0.13906 0.73166 0.19961 0.0
C1179 C 0.15145 0.73858 0.17599 0.0
C1180 C 0.16443 0.72633 0.16167 0.0
H1181 H 0.14716 0.85983 0.13001 0.0
H1182 H 0.15849 0.83 0.15246 0.0
C1183 C 0.16419 0.70725 0.16936 0.0
C1184 C 0.14969 0.75831 0.16515 0.0
H1185 H 0.13803 0.78507 0.09922 0.0
C1186 C 0.15014 0.77257 0.18881 0.0
C1187 C 0.14541 0.76294 0.13235 0.0
C1188 C 0.14371 0.74828 0.10596 0.0
C1189 C 0.14568 0.79115 0.18084 0.0
C1190 C 0.14108 0.79565 0.14817 0.0
C1191 C 0.14153 0.78157 0.12428 0.0
C1192 C 0.13391 0.81429 0.13837 0.0
C1193 C 0.14498 0.80557 0.20768 0.0
C1194 C 0.11633 0.81542 0.12339 0.0
C1195 C 0.11007 0.83221 0.1102 0.0
C1196 C 0.12113 0.84836 0.11203 0.0
C1197 C 0.1383 0.8476 0.12863 0.0
C1198 C 0.14475 0.83058 0.14145 0.0
H1199 H 0.14508 0.79907 0.23234 0.0
H1200 H 0.15737 0.81481 0.20573 0.0
H1201 H 0.1323 0.81439 0.20538 0.0
H1202 H 0.10765 0.8031 0.12094 0.0
H1203 H 0.09673 0.83243 0.09767 0.0
H1204 H 0.55088 0.92451 0.40974 0.0
H1205 H 0.51727 0.92628 0.39861 0.0
H1206 H 0.50846 0.87671 0.45658 0.0
H1207 H 0.54162 0.87528 0.46872 0.0
H1208 H 0.49731 0.90287 0.36615 0.0
H1209 H 0.46576 0.90685 0.48846 0.0
H1210 H 0.49038 0.91077 0.4819 0.0
H1211 H 0.48144 0.88739 0.48725 0.0
C1212 C 0.5417 0.91419 0.42054 0.0
C1213 C 0.54894 0.89977 0.44013 0.0
C1214 C 0.52249 0.91524 0.41425 0.0
C1215 C 0.5102 0.90187 0.42735 0.0
C1216 C 0.51745 0.88761 0.44715 0.0
H1217 H 0.42086 0.84743 0.33964 0.0
H1218 H 0.44941 0.86023 0.36282 0.0
C1219 C 0.53654 0.88668 0.45375 0.0
C1220 C 0.49025 0.9013 0.41731 0.0
H1221 H 0.4465 0.89178 0.44629 0.0
C1222 C 0.48616 0.90092 0.38377 0.0
C1223 C 0.4755 0.89917 0.44013 0.0
C1224 C 0.47851 0.9013 0.47642 0.0
C1225 C 0.46813 0.89692 0.3725 0.0
C1226 C 0.4539 0.89265 0.39532 0.0
C1227 C 0.45753 0.8946 0.42882 0.0
C1228 C 0.43599 0.88427 0.38461 0.0
C1229 C 0.46464 0.89671 0.33612 0.0
C1230 C 0.41875 0.89293 0.39096 0.0
C1231 C 0.4022 0.88542 0.37805 0.0
C1232 C 0.40281 0.86922 0.35862 0.0
C1233 C 0.41998 0.86009 0.35406 0.0
C1234 C 0.43634 0.86745 0.36713 0.0
H1235 H 0.47438 0.90624 0.32313 0.0
H1236 H 0.46702 0.88239 0.32662 0.0
H1237 H 0.45008 0.90088 0.33027 0.0
H1238 H 0.41819 0.90581 0.40481 0.0
H1239 H 0.38914 0.89272 0.38194 0.0
H1240 H 0.37019 0.16677 0.53902 0.0
H1241 H 0.35876 0.19577 0.5631 0.0
H1242 H 0.35463 0.16891 0.65711 0.0
H1243 H 0.36613 0.13964 0.6332 0.0
H1244 H 0.32474 0.20421 0.60212 0.0
H1245 H 0.3921 0.21381 0.66824 0.0
H1246 H 0.38972 0.19781 0.6344 0.0
H1247 H 0.38018 0.1919 0.67361 0.0
C1248 C 0.3667 0.16691 0.56477 0.0
C1249 C 0.36929 0.15093 0.58428 0.0
C1250 C 0.36008 0.18349 0.57843 0.0
C1251 C 0.35602 0.18448 0.61186 0.0
C1252 C 0.35783 0.1684 0.63125 0.0
H1253 H 0.34563 0.28605 0.72649 0.0
H1254 H 0.34448 0.25328 0.71023 0.0
C1255 C 0.36437 0.15171 0.61755 0.0
C1256 C 0.35132 0.20277 0.62656 0.0
H1257 H 0.36998 0.23771 0.67274 0.0
C1258 C 0.33449 0.21151 0.61787 0.0
C1259 C 0.36412 0.2122 0.64698 0.0
C1260 C 0.38262 0.20359 0.65632 0.0
C1261 C 0.33018 0.22959 0.62898 0.0
C1262 C 0.34328 0.23928 0.64857 0.0
C1263 C 0.35991 0.23029 0.6578 0.0
C1264 C 0.34066 0.25902 0.65873 0.0
C1265 C 0.31163 0.23805 0.61973 0.0
C1266 C 0.33838 0.27321 0.63531 0.0
C1267 C 0.33878 0.29202 0.64463 0.0
C1268 C 0.34187 0.29694 0.67744 0.0
C1269 C 0.34335 0.28271 0.70098 0.0
C1270 C 0.34269 0.26396 0.69173 0.0
H1271 H 0.30106 0.22708 0.61459 0.0
H1272 H 0.30623 0.2473 0.63936 0.0
H1273 H 0.31337 0.24649 0.59718 0.0
H1274 H 0.33725 0.2698 0.60961 0.0
H1275 H 0.33776 0.30267 0.62591 0.0
H1276 H 0.1126 0.10659 0.88025 0.0
H1277 H 0.08388 0.0932 0.90376 0.0
H1278 H 0.05176 0.13797 0.86112 0.0
H1279 H 0.07999 0.15099 0.83718 0.0
H1280 H 0.0564 0.10636 0.9454 0.0
H1281 H 0.02613 0.0922 0.82401 0.0
H1282 H 0.05045 0.09804 0.82953 0.0
H1283 H 0.03305 0.11618 0.8271 0.0
C1284 C 0.09941 0.11362 0.87627 0.0
C1285 C 0.09848 0.12966 0.8565 0.0
C1286 C 0.08304 0.10594 0.88955 0.0
C1287 C 0.06562 0.11427 0.88326 0.0
C1288 C 0.06494 0.13094 0.86533 0.0
H1289 H 0.96183 0.12181 0.97502 0.0
H1290 H 0.99468 0.12072 0.96055 0.0
C1291 C 0.08113 0.13844 0.85185 0.0
C1292 C 0.04792 0.10581 0.89491 0.0
H1293 H 0.00398 0.0955 0.86841 0.0
C1294 C 0.04502 0.1036 0.92859 0.0
C1295 C 0.03324 0.10158 0.87296 0.0
C1296 C 0.03595 0.10191 0.83638 0.0
C1297 C 0.02734 0.0988 0.94097 0.0
C1298 C 0.01212 0.09674 0.91911 0.0
C1299 C 0.01548 0.09741 0.88533 0.0
C1300 C 0.9924 0.09593 0.93047 0.0
C1301 C 0.02517 0.09631 0.97737 0.0
C1302 C 0.97987 0.08267 0.9177 0.0
C1303 C 0.96081 0.08355 0.92532 0.0
C1304 C 0.95396 0.09768 0.94597 0.0
C1305 C 0.96662 0.11063 0.95929 0.0
C1306 C 0.98554 0.10989 0.95133 0.0
H1307 H 0.0382 0.09068 0.98834 0.0
H1308 H 0.02247 0.1101 0.98882 0.0
H1309 H 0.01346 0.08675 0.98341 0.0
H1310 H 0.98478 0.07186 0.90128 0.0
H1311 H 0.95143 0.07336 0.9147 0.0
H1312 H 0.84084 0.69967 0.63937 0.0
H1313 H 0.84018 0.7332 0.62785 0.0
H1314 H 0.85333 0.74488 0.72868 0.0
H1315 H 0.85474 0.71139 0.74008 0.0
H1316 H 0.82144 0.76373 0.64982 0.0
H1317 H 0.89657 0.76922 0.68268 0.0
H1318 H 0.88483 0.74707 0.67892 0.0
H1319 H 0.88196 0.76096 0.71523 0.0
C1320 C 0.84333 0.70939 0.6592 0.0
C1321 C 0.84815 0.7029 0.6905 0.0
C1322 C 0.84295 0.72855 0.65258 0.0
C1323 C 0.84721 0.74154 0.67721 0.0
C1324 C 0.85057 0.73511 0.70907 0.0
H1325 H 0.87284 0.86082 0.65023 0.0
H1326 H 0.86161 0.8321 0.67667 0.0
C1327 C 0.85126 0.71596 0.71559 0.0
C1328 C 0.84941 0.76161 0.66888 0.0
H1329 H 0.88159 0.79682 0.66618 0.0
C1330 C 0.83454 0.77101 0.65366 0.0
C1331 C 0.86655 0.77112 0.6738 0.0
C1332 C 0.88345 0.76156 0.68826 0.0
C1333 C 0.83648 0.7895 0.64267 0.0
C1334 C 0.85372 0.79878 0.647 0.0
C1335 C 0.86833 0.78968 0.66326 0.0
C1336 C 0.85777 0.81698 0.63139 0.0
C1337 C 0.82024 0.79889 0.62594 0.0
C1338 C 0.85917 0.81796 0.59727 0.0
C1339 C 0.86579 0.83415 0.58224 0.0
C1340 C 0.87104 0.84974 0.60102 0.0
C1341 C 0.86881 0.84906 0.63514 0.0
C1342 C 0.86242 0.8327 0.65025 0.0
H1343 H 0.80678 0.792 0.63205 0.0
H1344 H 0.81941 0.81387 0.63284 0.0
H1345 H 0.82222 0.79808 0.59907 0.0
H1346 H 0.85596 0.8059 0.58233 0.0
H1347 H 0.86727 0.83426 0.55589 0.0
H1348 H 0.90884 0.11355 0.28586 0.0
H1349 H 0.93859 0.10289 0.30806 0.0
H1350 H 0.92086 0.11897 0.40484 0.0
H1351 H 0.89067 0.12912 0.38275 0.0
H1352 H 0.96265 0.12625 0.33534 0.0
H1353 H 0.94655 0.07 0.42405 0.0
H1354 H 0.9298 0.07806 0.39422 0.0
H1355 H 0.9336 0.09106 0.43125 0.0
C1356 C 0.9111 0.11443 0.312 0.0
C1357 C 0.89749 0.12227 0.33257 0.0
C1358 C 0.92811 0.10831 0.32466 0.0
C1359 C 0.93198 0.11005 0.35813 0.0
C1360 C 0.91808 0.1171 0.37904 0.0
H1361 H 0.03429 0.11577 0.46733 0.0
H1362 H 0.00176 0.11436 0.4495 0.0
C1363 C 0.90086 0.123 0.36638 0.0
C1364 C 0.95128 0.10667 0.37005 0.0
H1365 H 0.97738 0.08297 0.42641 0.0
C1366 C 0.96585 0.1166 0.35498 0.0
C1367 C 0.95547 0.09419 0.39585 0.0
C1368 C 0.94055 0.08258 0.4121 0.0
C1369 C 0.9844 0.11464 0.36528 0.0
C1370 C 0.98857 0.1023 0.39122 0.0
C1371 C 0.97409 0.09232 0.40637 0.0
C1372 C 0.00787 0.10051 0.4038 0.0
C1373 C 0.99938 0.12619 0.34894 0.0
C1374 C 0.02199 0.09267 0.38436 0.0
C1375 C 0.04065 0.09344 0.39445 0.0
C1376 C 0.04546 0.10215 0.42409 0.0
C1377 C 0.03111 0.1091 0.44422 0.0
C1378 C 0.01248 0.10824 0.43418 0.0
H1379 H 0.99341 0.13738 0.3333 0.0
H1380 H 0.00864 0.13271 0.36748 0.0
H1381 H 0.0081 0.11701 0.33331 0.0
H1382 H 0.01863 0.08652 0.36089 0.0
H1383 H 0.05133 0.08788 0.37843 0.0
H1384 H 0.66216 0.29893 0.14207 0.0
H1385 H 0.66143 0.26552 0.12914 0.0
H1386 H 0.64132 0.25356 0.22628 0.0
H1387 H 0.64142 0.28688 0.239 0.0
H1388 H 0.67771 0.23411 0.15496 0.0
H1389 H 0.60067 0.23107 0.17059 0.0
H1390 H 0.61332 0.25282 0.16964 0.0
H1391 H 0.61303 0.23886 0.20619 0.0
C1392 C 0.65774 0.28916 0.16075 0.0
C1393 C 0.65157 0.29556 0.19137 0.0
C1394 C 0.65734 0.27008 0.15335 0.0
C1395 C 0.65089 0.25709 0.17649 0.0
C1396 C 0.64583 0.26337 0.20773 0.0
H1397 H 0.62423 0.1383 0.14358 0.0
H1398 H 0.63366 0.1669 0.17267 0.0
C1399 C 0.64598 0.28242 0.215 0.0
C1400 C 0.64863 0.23715 0.16738 0.0
H1401 H 0.61587 0.20287 0.15783 0.0
C1402 C 0.66421 0.22725 0.15581 0.0
C1403 C 0.631 0.22817 0.16852 0.0
C1404 C 0.61351 0.23829 0.17911 0.0
C1405 C 0.66256 0.20874 0.14478 0.0
C1406 C 0.64488 0.19998 0.14525 0.0
C1407 C 0.62945 0.20961 0.15789 0.0
C1408 C 0.64151 0.18188 0.12883 0.0
C1409 C 0.67965 0.19878 0.13214 0.0
C1410 C 0.64289 0.18089 0.09473 0.0
C1411 C 0.63732 0.16482 0.07819 0.0
C1412 C 0.63033 0.14932 0.09541 0.0
C1413 C 0.62965 0.15 0.12973 0.0
C1414 C 0.635 0.16629 0.14632 0.0
H1415 H 0.69271 0.20521 0.14155 0.0
H1416 H 0.67942 0.18378 0.13907 0.0
H1417 H 0.67988 0.19966 0.10506 0.0
H1418 H 0.64757 0.19286 0.08075 0.0
H1419 H 0.63811 0.1647 0.05175 0.0
H1420 H 0.60699 0.8777 0.8771 0.0
H1421 H 0.57585 0.8865 0.89693 0.0
H1422 H 0.55683 0.89247 0.79745 0.0
H1423 H 0.58755 0.88305 0.77757 0.0
H1424 H 0.55249 0.91656 0.8897 0.0
H1425 H 0.52109 0.85385 0.83221 0.0
H1426 H 0.54599 0.85712 0.83522 0.0
H1427 H 0.53291 0.86852 0.80336 0.0
C1428 C 0.5962 0.88108 0.85951 0.0
C1429 C 0.59959 0.87938 0.82581 0.0
C1430 C 0.57843 0.8861 0.87085 0.0
C1431 C 0.56388 0.88964 0.84865 0.0
C1432 C 0.56767 0.88922 0.81502 0.0
H1433 H 0.44488 0.91172 0.86974 0.0
H1434 H 0.47739 0.91226 0.85085 0.0
C1435 C 0.58527 0.88392 0.8037 0.0
C1436 C 0.54454 0.89284 0.86044 0.0
H1437 H 0.50004 0.87597 0.85451 0.0
C1438 C 0.54103 0.90768 0.88206 0.0
C1439 C 0.5296 0.88112 0.85066 0.0
C1440 C 0.53258 0.86415 0.82937 0.0
C1441 C 0.52291 0.91123 0.89377 0.0
C1442 C 0.50803 0.8997 0.88349 0.0
C1443 C 0.5115 0.88493 0.8619 0.0
C1444 C 0.48885 0.90189 0.89626 0.0
C1445 C 0.51968 0.92728 0.91692 0.0
C1446 C 0.48465 0.89603 0.92809 0.0
C1447 C 0.46614 0.89548 0.9388 0.0
C1448 C 0.45149 0.90088 0.91789 0.0
C1449 C 0.45584 0.90753 0.88645 0.0
C1450 C 0.47438 0.90785 0.87562 0.0
H1451 H 0.53201 0.93665 0.91854 0.0
H1452 H 0.50737 0.93558 0.90905 0.0
H1453 H 0.51668 0.92171 0.94169 0.0
H1454 H 0.49563 0.89116 0.9442 0.0
H1455 H 0.46327 0.89035 0.9632 0.0
H1456 H 0.83844 0.29781 0.87088 0.0
H1457 H 0.83879 0.26479 0.88672 0.0
H1458 H 0.84573 0.24895 0.78575 0.0
H1459 H 0.84593 0.28183 0.76988 0.0
H1460 H 0.81861 0.23282 0.87022 0.0
H1461 H 0.89221 0.2274 0.82814 0.0
H1462 H 0.88032 0.24949 0.83188 0.0
H1463 H 0.87608 0.23471 0.79711 0.0
C1464 C 0.83974 0.28728 0.85202 0.0
C1465 C 0.84247 0.29242 0.81921 0.0
C1466 C 0.83995 0.26842 0.86109 0.0
C1467 C 0.84277 0.25445 0.83749 0.0
C1468 C 0.84405 0.25952 0.80446 0.0
H1469 H 0.87188 0.1365 0.86733 0.0
H1470 H 0.85991 0.16499 0.84121 0.0
C1471 C 0.84408 0.27832 0.79543 0.0
C1472 C 0.8457 0.23477 0.84764 0.0
H1473 H 0.87834 0.19998 0.8484 0.0
C1474 C 0.83161 0.22559 0.8653 0.0
C1475 C 0.86271 0.22536 0.8412 0.0
C1476 C 0.87877 0.23476 0.82382 0.0
C1477 C 0.83417 0.20731 0.87697 0.0
C1478 C 0.8513 0.19808 0.87103 0.0
C1479 C 0.86516 0.20705 0.8526 0.0
C1480 C 0.85605 0.18001 0.8866 0.0
C1481 C 0.81861 0.19806 0.89579 0.0
C1482 C 0.85773 0.17904 0.92067 0.0
C1483 C 0.8647 0.16296 0.93554 0.0
C1484 C 0.87013 0.14746 0.91664 0.0
C1485 C 0.86777 0.14817 0.88254 0.0
C1486 C 0.86094 0.16441 0.86761 0.0
H1487 H 0.80485 0.20444 0.89004 0.0
H1488 H 0.81797 0.18287 0.89041 0.0
H1489 H 0.82118 0.19981 0.92235 0.0
H1490 H 0.8544 0.19103 0.93573 0.0
H1491 H 0.86627 0.16286 0.96187 0.0
H1492 H 0.60867 0.12324 0.60747 0.0
H1493 H 0.57899 0.113 0.58332 0.0
H1494 H 0.55287 0.11526 0.67813 0.0
H1495 H 0.58227 0.12554 0.70244 0.0
H1496 H 0.54524 0.08115 0.63373 0.0
H1497 H 0.53293 0.15152 0.57949 0.0
H1498 H 0.55539 0.14071 0.57359 0.0
H1499 H 0.54851 0.14809 0.61368 0.0
C1500 C 0.59666 0.12137 0.62322 0.0
C1501 C 0.59779 0.12537 0.65682 0.0
C1502 C 0.57975 0.11554 0.60939 0.0
C1503 C 0.5638 0.11347 0.629 0.0
C1504 C 0.56506 0.11676 0.66266 0.0
H1505 H 0.44619 0.09027 0.61432 0.0
H1506 H 0.47911 0.0912 0.63018 0.0
C1507 C 0.58186 0.12273 0.67644 0.0
C1508 C 0.54544 0.10909 0.6144 0.0
H1509 H 0.50932 0.1292 0.57309 0.0
C1510 C 0.5374 0.09154 0.62017 0.0
C1511 C 0.53535 0.12272 0.59678 0.0
C1512 C 0.54334 0.14189 0.59051 0.0
C1513 C 0.51936 0.08726 0.60883 0.0
C1514 C 0.50898 0.10113 0.59213 0.0
C1515 C 0.51726 0.11855 0.58585 0.0
C1516 C 0.48927 0.09831 0.58188 0.0
C1517 C 0.51173 0.06791 0.61463 0.0
C1518 C 0.48395 0.10211 0.54954 0.0
C1519 C 0.46513 0.10195 0.54061 0.0
C1520 C 0.45122 0.09788 0.56379 0.0
C1521 C 0.45659 0.0933 0.59584 0.0
C1522 C 0.47544 0.09371 0.60489 0.0
H1523 H 0.52315 0.05753 0.61741 0.0
H1524 H 0.50349 0.06787 0.6376 0.0
H1525 H 0.50249 0.0634 0.59431 0.0
H1526 H 0.49434 0.10572 0.53136 0.0
H1527 H 0.46146 0.10545 0.51566 0.0
H1528 H 0.66539 0.70259 0.36488 0.0
H1529 H 0.6657 0.73609 0.37672 0.0
H1530 H 0.65454 0.74806 0.27528 0.0
H1531 H 0.65364 0.71461 0.26342 0.0
H1532 H 0.68491 0.76717 0.35483 0.0
H1533 H 0.6099 0.77139 0.32022 0.0
H1534 H 0.62193 0.74943 0.32474 0.0
H1535 H 0.62508 0.76321 0.28841 0.0
C1536 C 0.66331 0.71235 0.34497 0.0
C1537 C 0.65918 0.70594 0.31331 0.0
C1538 C 0.66348 0.7315 0.35178 0.0
C1539 C 0.65966 0.74455 0.32704 0.0
C1540 C 0.657 0.73822 0.29492 0.0
H1541 H 0.62963 0.86262 0.35652 0.0
H1542 H 0.64143 0.83447 0.329 0.0
C1543 C 0.6566 0.71909 0.28816 0.0
C1544 C 0.65706 0.76456 0.33545 0.0
H1545 H 0.62412 0.79905 0.33821 0.0
C1546 C 0.67168 0.7742 0.35092 0.0
C1547 C 0.63977 0.77374 0.33034 0.0
C1548 C 0.6232 0.76391 0.31529 0.0
C1549 C 0.66933 0.79262 0.36203 0.0
C1550 C 0.65188 0.80155 0.35778 0.0
C1551 C 0.63753 0.7922 0.34117 0.0
C1552 C 0.64735 0.81955 0.37381 0.0
C1553 C 0.68542 0.80229 0.37873 0.0
C1554 C 0.6469 0.82049 0.40801 0.0
C1555 C 0.64002 0.83636 0.42368 0.0
C1556 C 0.63346 0.85168 0.40548 0.0
C1557 C 0.63465 0.85107 0.37119 0.0
C1558 C 0.64137 0.83502 0.35546 0.0
H1559 H 0.69903 0.79616 0.37134 0.0
H1560 H 0.68553 0.81747 0.3731 0.0
H1561 H 0.68399 0.8006 0.40557 0.0
H1562 H 0.65108 0.80859 0.42264 0.0
H1563 H 0.63937 0.83639 0.45013 0.0
H1564 H 0.92778 0.8606 0.17195 0.0
H1565 H 0.9554 0.87535 0.14925 0.0
H1566 H 0.9209 0.91584 0.09973 0.0
H1567 H 0.89278 0.90052 0.12173 0.0
H1568 H 0.9485 0.90462 0.06091 0.0
H1569 H 0.97947 0.92244 0.17968 0.0
H1570 H 0.97419 0.89801 0.17945 0.0
H1571 H 0.95553 0.91485 0.17594 0.0
C1572 C 0.92599 0.87268 0.15633 0.0
C1573 C 0.90809 0.87954 0.14896 0.0
C1574 C 0.94185 0.88122 0.14357 0.0
C1575 C 0.9403 0.89713 0.12375 0.0
C1576 C 0.92243 0.90376 0.11543 0.0
H1577 H 0.05534 0.93325 0.09026 0.0
H1578 H 0.02211 0.93778 0.10224 0.0
C1579 C 0.9064 0.89499 0.12791 0.0
C1580 C 0.95757 0.90607 0.11108 0.0
H1581 H 0.00176 0.91692 0.13535 0.0
C1582 C 0.96004 0.90776 0.07718 0.0
C1583 C 0.97245 0.91097 0.13218 0.0
C1584 C 0.97016 0.91169 0.16883 0.0
C1585 C 0.97754 0.91239 0.06386 0.0
C1586 C 0.99309 0.91462 0.08497 0.0
C1587 C 0.99008 0.91477 0.1189 0.0
C1588 C 0.01272 0.91437 0.07292 0.0
C1589 C 0.97915 0.91446 0.02729 0.0
C1590 C 0.0186 0.90001 0.05192 0.0
C1591 C 0.03747 0.89769 0.04451 0.0
C1592 C 0.05104 0.90931 0.05872 0.0
C1593 C 0.04521 0.92405 0.07898 0.0
C1594 C 0.02621 0.92663 0.08584 0.0
H1595 H 0.96624 0.92078 0.01704 0.0
H1596 H 0.99126 0.92327 0.02024 0.0
H1597 H 0.98072 0.90045 0.01604 0.0
H1598 H 0.00874 0.88987 0.04258 0.0
H1599 H 0.04147 0.88606 0.0291 0.0
H1600 H 0.64702 0.78829 0.77308 0.0
H1601 H 0.64713 0.75641 0.79433 0.0
H1602 H 0.66905 0.77627 0.88609 0.0
H1603 H 0.66899 0.80834 0.86508 0.0
H1604 H 0.67678 0.73295 0.82648 0.0
H1605 H 0.61628 0.75204 0.90527 0.0
H1606 H 0.62332 0.76602 0.87068 0.0
H1607 H 0.63661 0.76673 0.90783 0.0
C1608 C 0.65214 0.78589 0.79763 0.0
C1609 C 0.65777 0.8009 0.81755 0.0
C1610 C 0.65227 0.76764 0.80965 0.0
C1611 C 0.65791 0.76407 0.84182 0.0
C1612 C 0.66453 0.77883 0.86122 0.0
H1613 H 0.63642 0.66819 0.96457 0.0
H1614 H 0.64781 0.69771 0.94262 0.0
C1615 C 0.6645 0.79711 0.84916 0.0
C1616 C 0.65512 0.74526 0.85589 0.0
H1617 H 0.627 0.72116 0.90823 0.0
C1618 C 0.666 0.73031 0.84452 0.0
C1619 C 0.64096 0.74194 0.87921 0.0
C1620 C 0.62848 0.75745 0.89142 0.0
C1621 C 0.6632 0.71205 0.85624 0.0
C1622 C 0.64883 0.7087 0.87928 0.0
C1623 C 0.63806 0.72374 0.89067 0.0
C1624 C 0.64441 0.68978 0.89193 0.0
C1625 C 0.6758 0.69664 0.84422 0.0
C1626 C 0.63902 0.6753 0.87073 0.0
C1627 C 0.63266 0.65823 0.88327 0.0
C1628 C 0.63125 0.65555 0.91722 0.0
C1629 C 0.63718 0.66987 0.9383 0.0
C1630 C 0.64374 0.68676 0.92579 0.0
H1631 H 0.68924 0.70224 0.83483 0.0
H1632 H 0.6788 0.6864 0.86391 0.0
H1633 H 0.6688 0.68917 0.82386 0.0
H1634 H 0.63899 0.67743 0.84453 0.0
H1635 H 0.62808 0.64749 0.86645 0.0
H1636 H 0.46694 0.40269 0.01609 0.0
H1637 H 0.50022 0.40338 0.02937 0.0
H1638 H 0.4869 0.41399 0.13048 0.0
H1639 H 0.45357 0.414 0.11715 0.0
H1640 H 0.51856 0.43257 0.11128 0.0
H1641 H 0.52211 0.35805 0.07362 0.0
H1642 H 0.51479 0.37366 0.04182 0.0
H1643 H 0.50031 0.37042 0.0773 0.0
C1644 C 0.47111 0.40553 0.04105 0.0
C1645 C 0.45764 0.40803 0.06568 0.0
C1646 C 0.49013 0.4058 0.04863 0.0
C1647 C 0.49602 0.40815 0.08108 0.0
C1648 C 0.48266 0.41199 0.10531 0.0
H1649 H 0.58689 0.38373 0.20514 0.0
H1650 H 0.55907 0.39604 0.17837 0.0
C1651 C 0.46361 0.41201 0.09766 0.0
C1652 C 0.51584 0.40511 0.09032 0.0
H1653 H 0.54989 0.3717 0.0925 0.0
C1654 C 0.52547 0.41932 0.10693 0.0
C1655 C 0.52484 0.38776 0.08473 0.0
C1656 C 0.51497 0.37153 0.06868 0.0
C1657 C 0.54372 0.41653 0.11857 0.0
C1658 C 0.5525 0.39908 0.11355 0.0
C1659 C 0.54316 0.38512 0.09598 0.0
C1660 C 0.5704 0.39413 0.12948 0.0
C1661 C 0.5534 0.43214 0.13658 0.0
C1662 C 0.58604 0.389 0.11082 0.0
C1663 C 0.60208 0.38197 0.12612 0.0
C1664 C 0.60252 0.37962 0.16024 0.0
C1665 C 0.58698 0.38528 0.1788 0.0
C1666 C 0.57111 0.39248 0.16358 0.0
H1667 H 0.54718 0.44594 0.13064 0.0
H1668 H 0.55194 0.42984 0.16328 0.0
H1669 H 0.56854 0.43247 0.13066 0.0
H1670 H 0.58565 0.38999 0.08441 0.0
H1671 H 0.6138 0.37768 0.11117 0.0
H1672 H 0.82349 0.20367 0.34043 0.0
H1673 H 0.82265 0.23679 0.35562 0.0
H1674 H 0.87204 0.24664 0.2977 0.0
H1675 H 0.87246 0.21403 0.28141 0.0
H1676 H 0.84631 0.25521 0.38974 0.0
H1677 H 0.84283 0.29088 0.27088 0.0
H1678 H 0.83859 0.26613 0.27486 0.0
H1679 H 0.86208 0.27493 0.27044 0.0
C1680 C 0.83395 0.213 0.33049 0.0
C1681 C 0.84799 0.20622 0.30962 0.0
C1682 C 0.83345 0.23193 0.33914 0.0
C1683 C 0.84705 0.24438 0.32725 0.0
C1684 C 0.86097 0.23757 0.30627 0.0
H1685 H 0.89997 0.3325 0.42628 0.0
H1686 H 0.88776 0.30388 0.40241 0.0
C1687 C 0.86131 0.2188 0.29724 0.0
C1688 C 0.84807 0.26393 0.33938 0.0
H1689 H 0.85792 0.30849 0.31491 0.0
C1690 C 0.84843 0.2669 0.37329 0.0
C1691 C 0.85038 0.2794 0.31812 0.0
C1692 C 0.84822 0.27767 0.28158 0.0
C1693 C 0.85241 0.28454 0.38642 0.0
C1694 C 0.85682 0.29949 0.36512 0.0
C1695 C 0.85504 0.29692 0.33127 0.0
C1696 C 0.86468 0.31731 0.37758 0.0
C1697 C 0.85214 0.28685 0.42309 0.0
C1698 C 0.85647 0.3346 0.36991 0.0
C1699 C 0.86374 0.35118 0.38305 0.0
C1700 C 0.87924 0.35063 0.40414 0.0
C1701 C 0.88783 0.33337 0.41056 0.0
C1702 C 0.88076 0.31695 0.39714 0.0
H1703 H 0.8422 0.27692 0.43462 0.0
H1704 H 0.86624 0.28378 0.433 0.0
H1705 H 0.84818 0.30127 0.43026 0.0
H1706 H 0.8442 0.33522 0.35446 0.0
H1707 H 0.85685 0.36429 0.37766 0.0
H1708 H 0.92608 0.63911 0.68011 0.0
H1709 H 0.95342 0.62777 0.651 0.0
H1710 H 0.9181 0.60271 0.57787 0.0
H1711 H 0.89025 0.61411 0.60704 0.0
H1712 H 0.9516 0.57976 0.60889 0.0
H1713 H 0.96873 0.64927 0.55646 0.0
H1714 H 0.96233 0.64923 0.59898 0.0
H1715 H 0.94534 0.64284 0.56871 0.0
C1716 C 0.92398 0.63119 0.65786 0.0
C1717 C 0.90591 0.62762 0.64582 0.0
C1718 C 0.93967 0.62471 0.64129 0.0
C1719 C 0.93773 0.6145 0.61233 0.0
C1720 C 0.9198 0.61059 0.60027 0.0
H1721 H 0.04069 0.60267 0.50148 0.0
H1722 H 0.00722 0.60299 0.51272 0.0
C1723 C 0.90396 0.61717 0.61686 0.0
C1724 C 0.95473 0.60854 0.59471 0.0
H1725 H 0.99308 0.62669 0.55705 0.0
C1726 C 0.96056 0.58988 0.59692 0.0
C1727 C 0.96626 0.62178 0.57902 0.0
C1728 C 0.96035 0.6419 0.57533 0.0
C1729 C 0.97818 0.58432 0.58523 0.0
C1730 C 0.99024 0.59786 0.57146 0.0
C1731 C 0.98389 0.6163 0.56771 0.0
C1732 C 0.00996 0.59381 0.56286 0.0
C1733 C 0.98383 0.56411 0.58823 0.0
C1734 C 0.02262 0.58798 0.58703 0.0
C1735 C 0.04183 0.5877 0.58064 0.0
C1736 C 0.04869 0.59351 0.55009 0.0
C1737 C 0.03588 0.59824 0.52536 0.0
C1738 C 0.01672 0.59841 0.5317 0.0
H1739 H 0.97142 0.5548 0.58895 0.0
H1740 H 0.99295 0.55979 0.56761 0.0
H1741 H 0.99168 0.56213 0.61136 0.0
H1742 H 0.01779 0.58474 0.61146 0.0
H1743 H 0.05131 0.58406 0.60025 0.0
H1744 H 0.6493 0.2133 0.73166 0.0
H1745 H 0.65029 0.24648 0.71784 0.0
H1746 H 0.66265 0.23258 0.61758 0.0
H1747 H 0.66231 0.1993 0.63148 0.0
H1748 H 0.68186 0.26369 0.63815 0.0
H1749 H 0.60672 0.26976 0.67033 0.0
H1750 H 0.6212 0.26186 0.70333 0.0
H1751 H 0.61845 0.24754 0.66751 0.0
C1752 C 0.65246 0.2173 0.70674 0.0
C1753 C 0.65547 0.20368 0.68254 0.0
C1754 C 0.65293 0.23628 0.69886 0.0
C1755 C 0.65602 0.24199 0.66651 0.0
C1756 C 0.66009 0.22847 0.64267 0.0
H1757 H 0.63794 0.33586 0.54469 0.0
H1758 H 0.64881 0.30712 0.57038 0.0
C1759 C 0.65989 0.20946 0.65063 0.0
C1760 C 0.65385 0.26189 0.65708 0.0
H1761 H 0.62194 0.29731 0.65387 0.0
C1762 C 0.6688 0.27108 0.64175 0.0
C1763 C 0.63676 0.27151 0.66172 0.0
C1764 C 0.6198 0.26214 0.67633 0.0
C1765 C 0.66704 0.28958 0.63066 0.0
C1766 C 0.64989 0.29904 0.63491 0.0
C1767 C 0.63514 0.29005 0.65102 0.0
C1768 C 0.64614 0.31745 0.61983 0.0
C1769 C 0.68346 0.29882 0.61419 0.0
C1770 C 0.64113 0.33287 0.63915 0.0
C1771 C 0.63493 0.34943 0.62449 0.0
C1772 C 0.63329 0.35064 0.5903 0.0
C1773 C 0.63896 0.33536 0.57109 0.0
C1774 C 0.64534 0.31896 0.58571 0.0
H1775 H 0.69683 0.29188 0.6207 0.0
H1776 H 0.68168 0.29789 0.58729 0.0
H1777 H 0.68433 0.31382 0.62091 0.0
H1778 H 0.64148 0.33188 0.66556 0.0
H1779 H 0.63059 0.36093 0.63992 0.0
H1780 H 0.04143 0.37399 0.94885 0.0
H1781 H 0.00899 0.37492 0.93178 0.0
H1782 H 0.01982 0.42484 0.87576 0.0
H1783 H 0.05288 0.4234 0.89157 0.0
H1784 H 0.98151 0.39826 0.93958 0.0
H1785 H 0.9971 0.39305 0.80671 0.0
H1786 H 0.01497 0.39056 0.83737 0.0
H1787 H 0.00642 0.41337 0.82649 0.0
C1788 C 0.03697 0.38524 0.93296 0.0
C1789 C 0.0498 0.39853 0.92131 0.0
C1790 C 0.01834 0.38579 0.92327 0.0
C1791 C 0.01193 0.39976 0.90202 0.0
C1792 C 0.0245 0.4136 0.89143 0.0
H1793 H 0.88986 0.39209 0.86498 0.0
H1794 H 0.9198 0.405 0.88357 0.0
C1795 C 0.04336 0.41285 0.90065 0.0
C1796 C 0.99225 0.39904 0.89044 0.0
H1797 H 0.96564 0.3927 0.8221 0.0
C1798 C 0.97799 0.39719 0.91385 0.0
C1799 C 0.98767 0.39762 0.85686 0.0
C1800 C 0.00232 0.39859 0.83037 0.0
C1801 C 0.95958 0.3928 0.90483 0.0
C1802 C 0.9551 0.39098 0.87129 0.0
C1803 C 0.9691 0.39404 0.84781 0.0
C1804 C 0.9367 0.38384 0.85992 0.0
C1805 C 0.94549 0.38898 0.93145 0.0
C1806 C 0.93619 0.36801 0.8397 0.0
C1807 C 0.91923 0.36096 0.82843 0.0
C1808 C 0.9023 0.3694 0.83751 0.0
C1809 C 0.9027 0.38517 0.85796 0.0
C1810 C 0.91979 0.3925 0.8687 0.0
H1811 H 0.95229 0.38657 0.95549 0.0
H1812 H 0.93609 0.40122 0.93399 0.0
H1813 H 0.93684 0.37657 0.92547 0.0
H1814 H 0.94898 0.36099 0.83267 0.0
H1815 H 0.91938 0.34875 0.81281 0.0
H1816 H 0.8273 0.80452 0.1404 0.0
H1817 H 0.82281 0.77179 0.124 0.0
H1818 H 0.87219 0.75632 0.17808 0.0
H1819 H 0.87622 0.7884 0.1955 0.0
H1820 H 0.84315 0.75021 0.08832 0.0
H1821 H 0.83878 0.716 0.20804 0.0
H1822 H 0.83702 0.74103 0.2038 0.0
H1823 H 0.85955 0.72988 0.20751 0.0
C1824 C 0.83699 0.79403 0.14915 0.0
C1825 C 0.85201 0.79904 0.16949 0.0
C1826 C 0.83441 0.77535 0.13982 0.0
C1827 C 0.84686 0.76143 0.15055 0.0
C1828 C 0.86192 0.76655 0.17055 0.0
H1829 H 0.89279 0.66996 0.05312 0.0
H1830 H 0.88014 0.69955 0.07197 0.0
C1831 C 0.86433 0.78503 0.18023 0.0
C1832 C 0.84542 0.74182 0.13878 0.0
H1833 H 0.85263 0.697 0.16416 0.0
C1834 C 0.84476 0.73854 0.10498 0.0
C1835 C 0.84685 0.7264 0.16034 0.0
C1836 C 0.84535 0.72855 0.19693 0.0
C1837 C 0.84721 0.72052 0.09217 0.0
C1838 C 0.85122 0.70552 0.11366 0.0
C1839 C 0.85012 0.70852 0.14751 0.0
C1840 C 0.85832 0.68723 0.10165 0.0
C1841 C 0.84578 0.7179 0.05566 0.0
C1842 C 0.85094 0.67028 0.11327 0.0
C1843 C 0.85859 0.65319 0.10323 0.0
C1844 C 0.87363 0.6528 0.08116 0.0
C1845 C 0.88101 0.66977 0.06974 0.0
C1846 C 0.87362 0.68675 0.08022 0.0
H1847 H 0.83545 0.72775 0.04501 0.0
H1848 H 0.8595 0.72101 0.04428 0.0
H1849 H 0.84162 0.70343 0.04917 0.0
H1850 H 0.83928 0.67026 0.13015 0.0
H1851 H 0.85262 0.64032 0.11244 0.0
H1852 H 0.58149 0.65621 0.3364 0.0
H1853 H 0.55212 0.64394 0.35735 0.0
H1854 H 0.5807 0.59488 0.39283 0.0
H1855 H 0.61048 0.60761 0.37291 0.0
H1856 H 0.53501 0.61318 0.33761 0.0
H1857 H 0.54916 0.60784 0.47091 0.0
H1858 H 0.56438 0.62039 0.44352 0.0
H1859 H 0.56507 0.59531 0.44504 0.0
C1860 C 0.58159 0.64294 0.34914 0.0
C1861 C 0.59825 0.63286 0.35308 0.0
C1862 C 0.56477 0.6359 0.36101 0.0
C1863 C 0.56414 0.61849 0.37671 0.0
C1864 C 0.58085 0.6085 0.38133 0.0
H1865 H 0.44762 0.57852 0.39872 0.0
H1866 H 0.48086 0.57734 0.38407 0.0
C1867 C 0.59785 0.61575 0.36992 0.0
C1868 C 0.54571 0.6108 0.3866 0.0
H1869 H 0.5194 0.59859 0.45281 0.0
C1870 C 0.53161 0.60983 0.36278 0.0
C1871 C 0.54134 0.60635 0.4194 0.0
C1872 C 0.55571 0.60763 0.4463 0.0
C1873 C 0.51304 0.60575 0.37107 0.0
C1874 C 0.50854 0.60176 0.40403 0.0
C1875 C 0.52287 0.60159 0.42755 0.0
C1876 C 0.48886 0.6004 0.41536 0.0
C1877 C 0.49831 0.60703 0.34475 0.0
C1878 C 0.48247 0.61305 0.43902 0.0
C1879 C 0.4637 0.61347 0.4479 0.0
C1880 C 0.45074 0.60136 0.43309 0.0
C1881 C 0.45722 0.58818 0.41026 0.0
C1882 C 0.47618 0.58757 0.40174 0.0
H1883 H 0.50358 0.61416 0.32246 0.0
H1884 H 0.49388 0.59275 0.33765 0.0
H1885 H 0.48585 0.61473 0.35366 0.0
H1886 H 0.49193 0.62309 0.44991 0.0
H1887 H 0.45926 0.62379 0.46563 0.0
H1888 H 0.35752 0.3622 0.12448 0.0
H1889 H 0.34408 0.33308 0.14612 0.0
H1890 H 0.39474 0.30375 0.12106 0.0
H1891 H 0.40782 0.33239 0.0986 0.0
H1892 H 0.36415 0.28698 0.09626 0.0
H1893 H 0.35348 0.30233 0.22825 0.0
H1894 H 0.34296 0.31832 0.19981 0.0
H1895 H 0.36794 0.31677 0.20241 0.0
C1896 C 0.36587 0.34958 0.12429 0.0
C1897 C 0.38365 0.34948 0.10973 0.0
C1898 C 0.3582 0.33298 0.13667 0.0
C1899 C 0.3684 0.31622 0.1352 0.0
C1900 C 0.38654 0.31646 0.12223 0.0
H1901 H 0.37191 0.21132 0.22278 0.0
H1902 H 0.37029 0.24436 0.20966 0.0
C1903 C 0.39403 0.33285 0.10948 0.0
C1904 C 0.36012 0.29799 0.14466 0.0
H1905 H 0.34559 0.27217 0.21004 0.0
C1906 C 0.35989 0.28376 0.12107 0.0
C1907 C 0.35449 0.29391 0.17699 0.0
C1908 C 0.3548 0.30855 0.20348 0.0
C1909 C 0.35543 0.26529 0.12927 0.0
C1910 C 0.3503 0.26101 0.16186 0.0
C1911 C 0.34943 0.27549 0.18506 0.0
C1912 C 0.34858 0.24136 0.17322 0.0
C1913 C 0.35761 0.25039 0.10339 0.0
C1914 C 0.33634 0.22866 0.15811 0.0
C1915 C 0.33751 0.20953 0.1651 0.0
C1916 C 0.35065 0.20289 0.18788 0.0
C1917 C 0.36172 0.21588 0.2049 0.0
C1918 C 0.36076 0.23486 0.19753 0.0
H1919 H 0.36541 0.25555 0.08172 0.0
H1920 H 0.36508 0.23804 0.11328 0.0
H1921 H 0.3436 0.24584 0.09498 0.0
H1922 H 0.32642 0.23342 0.13996 0.0
H1923 H 0.32859 0.19992 0.15191 0.0
H1924 H 0.42038 0.65009 0.82833 0.0
H1925 H 0.44961 0.638 0.84998 0.0
H1926 H 0.41998 0.59277 0.89646 0.0
H1927 H 0.39029 0.60528 0.87554 0.0
H1928 H 0.44683 0.60609 0.93565 0.0
H1929 H 0.47744 0.59403 0.81402 0.0
H1930 H 0.46997 0.61783 0.81731 0.0
H1931 H 0.45299 0.59926 0.81954 0.0
C1932 C 0.42002 0.63759 0.84324 0.0
C1933 C 0.40305 0.62851 0.84994 0.0
C1934 C 0.43679 0.63059 0.85536 0.0
C1935 C 0.43709 0.6141 0.87385 0.0
C1936 C 0.4201 0.60536 0.8818 0.0
H1937 H 0.55306 0.57771 0.90497 0.0
H1938 H 0.5199 0.57524 0.89048 0.0
C1939 C 0.40316 0.61255 0.86998 0.0
C1940 C 0.45526 0.60647 0.88511 0.0
H1941 H 0.49963 0.59833 0.85834 0.0
C1942 C 0.4583 0.60402 0.91872 0.0
C1943 C 0.47011 0.60308 0.86303 0.0
C1944 C 0.46738 0.60347 0.82646 0.0
C1945 C 0.47614 0.59983 0.93095 0.0
C1946 C 0.49145 0.59869 0.90906 0.0
C1947 C 0.48806 0.59958 0.8753 0.0
C1948 C 0.51116 0.59858 0.92051 0.0
C1949 C 0.47839 0.59694 0.96726 0.0
C1950 C 0.51734 0.6125 0.94209 0.0
C1951 C 0.53613 0.61377 0.95068 0.0
C1952 C 0.54935 0.60143 0.93726 0.0
C1953 C 0.54322 0.58742 0.91571 0.0
C1954 C 0.52427 0.58598 0.90747 0.0
H1955 H 0.46561 0.59059 0.97793 0.0
H1956 H 0.4905 0.58782 0.97296 0.0
H1957 H 0.48047 0.61067 0.97929 0.0
H1958 H 0.50773 0.62285 0.95153 0.0
H1959 H 0.54037 0.62487 0.96706 0.0
H1960 H 0.1013 0.67096 0.57455 0.0
H1961 H 0.11392 0.69949 0.59805 0.0
H1962 H 0.15783 0.6679 0.64448 0.0
H1963 H 0.14479 0.63889 0.62157 0.0
H1964 H 0.14449 0.69498 0.68446 0.0
H1965 H 0.15951 0.72592 0.56402 0.0
H1966 H 0.13548 0.71906 0.56612 0.0
H1967 H 0.15355 0.70158 0.56888 0.0
C1968 C 0.1136 0.67001 0.58988 0.0
C1969 C 0.1222 0.65271 0.5959 0.0
C1970 C 0.1209 0.68638 0.60308 0.0
C1971 C 0.1372 0.68592 0.62205 0.0
C1972 C 0.14539 0.66858 0.62945 0.0
H1973 H 0.17719 0.80025 0.6568 0.0
H1974 H 0.17869 0.76706 0.64213 0.0
C1975 C 0.13791 0.65205 0.6165 0.0
C1976 C 0.14529 0.70372 0.6341 0.0
H1977 H 0.1554 0.74791 0.60857 0.0
C1978 C 0.14725 0.70647 0.66787 0.0
C1979 C 0.14955 0.71856 0.61248 0.0
C1980 C 0.14963 0.71605 0.57586 0.0
C1981 C 0.15183 0.7241 0.68065 0.0
C1982 C 0.15389 0.73947 0.6591 0.0
C1983 C 0.15346 0.7363 0.62526 0.0
C1984 C 0.15455 0.75911 0.67087 0.0
C1985 C 0.15413 0.72606 0.71713 0.0
C1986 C 0.14052 0.76574 0.69183 0.0
C1987 C 0.1398 0.78455 0.70053 0.0
C1988 C 0.15283 0.79734 0.68785 0.0
C1989 C 0.16695 0.79075 0.66695 0.0
C1990 C 0.16783 0.77178 0.65862 0.0
H1991 H 0.1598 0.71299 0.72793 0.0
H1992 H 0.16359 0.73779 0.72354 0.0
H1993 H 0.14028 0.72859 0.72843 0.0
H1994 H 0.12967 0.75649 0.70064 0.0
H1995 H 0.1286 0.78916 0.71639 0.0
H1996 H 0.10991 0.3863 0.40386 0.0
H1997 H 0.08232 0.39801 0.4334 0.0
H1998 H 0.05038 0.39635 0.34415 0.0
H1999 H 0.0775 0.38467 0.31472 0.0
H2000 H 0.0468 0.43089 0.38748 0.0
H2001 H 0.03516 0.362 0.44791 0.0
H2002 H 0.05803 0.37249 0.44914 0.0
H2003 H 0.04896 0.36395 0.41115 0.0
C2004 C 0.09704 0.3886 0.39056 0.0
C2005 C 0.09584 0.38436 0.35704 0.0
C2006 C 0.08134 0.39527 0.40743 0.0
C2007 C 0.06436 0.39797 0.39087 0.0
C2008 C 0.06337 0.39439 0.3573 0.0
H2009 H 0.94894 0.41899 0.39777 0.0
H2010 H 0.9825 0.42011 0.3876 0.0
C2011 C 0.07889 0.3876 0.34059 0.0
C2012 C 0.04707 0.40328 0.4083 0.0
H2013 H 0.01109 0.38397 0.45107 0.0
C2014 C 0.0391 0.42081 0.40201 0.0
C2015 C 0.03715 0.39011 0.42724 0.0
C2016 C 0.04512 0.37102 0.43435 0.0
C2017 C 0.02109 0.42528 0.41315 0.0
C2018 C 0.01061 0.41161 0.43016 0.0
C2019 C 0.01906 0.39445 0.43796 0.0
C2020 C 0.99042 0.41394 0.43756 0.0
C2021 C 0.01341 0.44447 0.40613 0.0
C2022 C 0.98359 0.41011 0.46901 0.0
C2023 C 0.96438 0.4091 0.47473 0.0
C2024 C 0.95159 0.41198 0.44912 0.0
C2025 C 0.95841 0.41685 0.41807 0.0
C2026 C 0.97765 0.41763 0.41228 0.0
H2027 H 0.02481 0.45497 0.4047 0.0
H2028 H 0.00622 0.44432 0.38211 0.0
H2029 H 0.00328 0.44895 0.42513 0.0
H2030 H 0.99315 0.40716 0.48889 0.0
H2031 H 0.95957 0.40539 0.49898 0.0
H2032 H 0.38672 0.67343 0.43214 0.0
H2033 H 0.37281 0.7012 0.40839 0.0
H2034 H 0.3353 0.66694 0.35166 0.0
H2035 H 0.34994 0.63872 0.37456 0.0
H2036 H 0.34743 0.69429 0.31553 0.0
H2037 H 0.32504 0.7257 0.43137 0.0
H2038 H 0.34946 0.72069 0.43442 0.0
H2039 H 0.333 0.70182 0.42906 0.0
C2040 C 0.37543 0.67174 0.41474 0.0
C2041 C 0.36928 0.65388 0.40548 0.0
C2042 C 0.36734 0.68768 0.4014 0.0
C2043 C 0.3525 0.68625 0.37914 0.0
C2044 C 0.34653 0.66841 0.36921 0.0
H2045 H 0.31792 0.80133 0.33907 0.0
H2046 H 0.31318 0.76824 0.35213 0.0
C2047 C 0.35491 0.65232 0.38221 0.0
C2048 C 0.34419 0.70357 0.36533 0.0
H2049 H 0.33265 0.74793 0.38769 0.0
C2050 C 0.34375 0.7059 0.33128 0.0
C2051 C 0.33856 0.71857 0.38562 0.0
C2052 C 0.33632 0.71644 0.42211 0.0
C2053 C 0.33966 0.72333 0.31722 0.0
C2054 C 0.33676 0.739 0.33781 0.0
C2055 C 0.33536 0.73617 0.37169 0.0
C2056 C 0.33747 0.75856 0.32543 0.0
C2057 C 0.33883 0.72474 0.28047 0.0
C2058 C 0.35247 0.76423 0.30566 0.0
C2059 C 0.35491 0.78298 0.29758 0.0
C2060 C 0.34277 0.79669 0.30994 0.0
C2061 C 0.32751 0.79108 0.32919 0.0
C2062 C 0.32481 0.77217 0.33667 0.0
H2063 H 0.33281 0.71179 0.26982 0.0
H2064 H 0.33032 0.73683 0.2723 0.0
H2065 H 0.3532 0.72619 0.27064 0.0
H2066 H 0.36292 0.7543 0.29771 0.0
H2067 H 0.36696 0.78682 0.28305 0.0
H2068 H 0.94488 0.58421 0.1211 0.0
H2069 H 0.97715 0.58388 0.14114 0.0
H2070 H 0.99656 0.603 0.04719 0.0
H2071 H 0.96451 0.60326 0.02687 0.0
H2072 H 0.0198 0.57455 0.07843 0.0
H2073 H 0.00307 0.63516 0.1584 0.0
H2074 H 0.98832 0.61501 0.16294 0.0
H2075 H 0.98804 0.62793 0.12534 0.0
C2076 C 0.95604 0.58804 0.10454 0.0
C2077 C 0.95208 0.59399 0.07251 0.0
C2078 C 0.97445 0.5879 0.11606 0.0
C2079 C 0.98916 0.59367 0.09574 0.0
C2080 C 0.98538 0.59855 0.06326 0.0
H2081 H 0.10659 0.622 0.1163 0.0
H2082 H 0.07622 0.6118 0.09507 0.0
C2083 C 0.96702 0.59876 0.05176 0.0
C2084 C 0.00827 0.59616 0.10891 0.0
H2085 H 0.03368 0.62349 0.16069 0.0
C2086 C 0.02288 0.58516 0.09655 0.0
C2087 C 0.0122 0.61014 0.13231 0.0
C2088 C 0.99716 0.62287 0.14543 0.0
C2089 C 0.04137 0.58762 0.10738 0.0
C2090 C 0.04531 0.60171 0.13063 0.0
C2091 C 0.03063 0.61264 0.14298 0.0
C2092 C 0.06448 0.60563 0.14265 0.0
C2093 C 0.05641 0.57494 0.09423 0.0
C2094 C 0.068 0.60556 0.17637 0.0
C2095 C 0.08515 0.61165 0.18851 0.0
C2096 C 0.09924 0.61788 0.16719 0.0
C2097 C 0.09605 0.61717 0.1333 0.0
C2098 C 0.07873 0.61124 0.12114 0.0
H2099 H 0.05047 0.56178 0.08428 0.0
H2100 H 0.06385 0.58216 0.07408 0.0
H2101 H 0.06676 0.5714 0.11347 0.0
H2102 H 0.05724 0.6013 0.19342 0.0
H2103 H 0.0872 0.61187 0.21474 0.0
H2104 H 0.13397 0.2126 0.78059 0.0
H2105 H 0.13823 0.2453 0.79386 0.0
H2106 H 0.18809 0.23184 0.84833 0.0
H2107 H 0.18315 0.19861 0.83665 0.0
H2108 H 0.16884 0.25278 0.88317 0.0
H2109 H 0.16852 0.28721 0.76375 0.0
H2110 H 0.14808 0.27291 0.76534 0.0
H2111 H 0.17092 0.26221 0.76732 0.0
C2112 C 0.14608 0.21658 0.79486 0.0
C2113 C 0.15822 0.20298 0.80762 0.0
C2114 C 0.14865 0.23542 0.80212 0.0
C2115 C 0.16376 0.24128 0.82146 0.0
C2116 C 0.17638 0.22776 0.83316 0.0
H2117 H 0.15108 0.36173 0.86623 0.0
H2118 H 0.166 0.33338 0.84426 0.0
C2119 C 0.17356 0.20877 0.82649 0.0
C2120 C 0.16463 0.26101 0.83294 0.0
H2121 H 0.15397 0.3054 0.80877 0.0
C2122 C 0.16612 0.26432 0.86667 0.0
C2123 C 0.16173 0.27638 0.81169 0.0
C2124 C 0.16248 0.27445 0.77501 0.0
C2125 C 0.16295 0.28211 0.87985 0.0
C2126 C 0.15727 0.29682 0.85894 0.0
C2127 C 0.15768 0.29402 0.825 0.0
C2128 C 0.1488 0.31422 0.87206 0.0
C2129 C 0.16519 0.28475 0.91623 0.0
C2130 C 0.13387 0.31288 0.89413 0.0
C2131 C 0.12561 0.32888 0.9069 0.0
C2132 C 0.1317 0.3467 0.89728 0.0
C2133 C 0.14616 0.34816 0.87416 0.0
C2134 C 0.1547 0.332 0.86169 0.0
H2135 H 0.1765 0.27566 0.92587 0.0
H2136 H 0.16847 0.29947 0.92254 0.0
H2137 H 0.15207 0.28064 0.92873 0.0
H2138 H 0.12847 0.29938 0.90143 0.0
H2139 H 0.11426 0.32725 0.92418 0.0
H2140 H 0.39019 0.39465 0.62838 0.0
H2141 H 0.42004 0.40681 0.60786 0.0
H2142 H 0.44949 0.36476 0.66316 0.0
H2143 H 0.42001 0.35323 0.68473 0.0
H2144 H 0.46612 0.39707 0.66977 0.0
H2145 H 0.45219 0.3852 0.53774 0.0
H2146 H 0.43599 0.40057 0.55763 0.0
H2147 H 0.43699 0.37636 0.56924 0.0
C2148 C 0.40307 0.38801 0.636 0.0
C2149 C 0.40277 0.37298 0.65813 0.0
C2150 C 0.42011 0.3949 0.62415 0.0
C2151 C 0.43705 0.38655 0.6336 0.0
C2152 C 0.43665 0.37151 0.65557 0.0
H2153 H 0.54206 0.37442 0.54487 0.0
H2154 H 0.50963 0.3752 0.56226 0.0
C2155 C 0.41975 0.36488 0.66784 0.0
C2156 C 0.45537 0.39322 0.62109 0.0
H2157 H 0.48146 0.39763 0.55167 0.0
C2158 C 0.46946 0.39732 0.64391 0.0
C2159 C 0.45971 0.39357 0.58734 0.0
C2160 C 0.4455 0.38855 0.56153 0.0
C2161 C 0.48795 0.40066 0.63415 0.0
C2162 C 0.49237 0.40067 0.60042 0.0
C2163 C 0.47805 0.39765 0.57751 0.0
C2164 C 0.51198 0.40135 0.58852 0.0
C2165 C 0.50271 0.4029 0.66022 0.0
C2166 C 0.52419 0.41596 0.597 0.0
C2167 C 0.54301 0.41535 0.5876 0.0
C2168 C 0.54979 0.40035 0.56885 0.0
C2169 C 0.53732 0.3862 0.55927 0.0
C2170 C 0.51871 0.38665 0.56914 0.0
H2171 H 0.49768 0.39823 0.68458 0.0
H2172 H 0.51545 0.39481 0.65402 0.0
H2173 H 0.50658 0.41785 0.66224 0.0
H2174 H 0.51923 0.42773 0.61117 0.0
H2175 H 0.55224 0.42656 0.59504 0.0
H2176 H 0.112 0.0814 0.5468 0.0
H2177 H 0.13361 0.07303 0.59025 0.0
H2178 H 0.17902 0.07172 0.52098 0.0
H2179 H 0.15714 0.08015 0.4769 0.0
H2180 H 0.16231 0.04493 0.60382 0.0
H2181 H 0.19073 0.1165 0.58224 0.0
H2182 H 0.16928 0.10952 0.56265 0.0
H2183 H 0.19102 0.09927 0.55018 0.0
C2184 C 0.12648 0.07876 0.5406 0.0
C2185 C 0.13298 0.08166 0.50866 0.0
C2186 C 0.13882 0.07387 0.56542 0.0
C2187 C 0.15797 0.072 0.55894 0.0
C2188 C 0.16431 0.07324 0.5265 0.0
H2189 H 0.19486 0.11664 0.74199 0.0
H2190 H 0.20431 0.09754 0.69463 0.0
C2191 C 0.15181 0.07796 0.50137 0.0
C2192 C 0.17086 0.07218 0.58725 0.0
H2193 H 0.19015 0.10559 0.63595 0.0
C2194 C 0.1692 0.05788 0.61053 0.0
C2195 C 0.18027 0.08886 0.59586 0.0
C2196 C 0.18304 0.10448 0.57156 0.0
C2197 C 0.1741 0.06095 0.6433 0.0
C2198 C 0.18036 0.07886 0.65291 0.0
C2199 C 0.185 0.09196 0.62871 0.0
C2200 C 0.1767 0.08613 0.68628 0.0
C2201 C 0.17077 0.04562 0.66785 0.0
C2202 C 0.15822 0.08577 0.69771 0.0
C2203 C 0.15285 0.09678 0.72406 0.0
C2204 C 0.16583 0.10833 0.73981 0.0
C2205 C 0.18466 0.1077 0.73028 0.0
C2206 C 0.19004 0.0968 0.70333 0.0
H2207 H 0.17458 0.03185 0.65726 0.0
H2208 H 0.17893 0.04787 0.6906 0.0
H2209 H 0.1557 0.0451 0.67408 0.0
H2210 H 0.1475 0.07818 0.68457 0.0
H2211 H 0.13824 0.09707 0.731 0.0
H2212 H 0.18147 0.86238 0.80712 0.0
H2213 H 0.1897 0.88387 0.85072 0.0
H2214 H 0.19055 0.92956 0.78194 0.0
H2215 H 0.18198 0.90783 0.73779 0.0
H2216 H 0.21581 0.91202 0.86758 0.0
H2217 H 0.14545 0.94161 0.83936 0.0
H2218 H 0.1531 0.92059 0.8192 0.0
H2219 H 0.16379 0.94259 0.80937 0.0
C2220 C 0.18403 0.87689 0.80103 0.0
C2221 C 0.18076 0.88353 0.7693 0.0
C2222 C 0.18883 0.88919 0.82596 0.0
C2223 C 0.19033 0.90841 0.81976 0.0
C2224 C 0.18916 0.91482 0.78734 0.0
H2225 H 0.14055 0.94417 -0.00016 0.0
H2226 H 0.16143 0.95374 0.9549 0.0
C2227 C 0.18441 0.90239 0.76213 0.0
C2228 C 0.18937 0.92119 0.84824 0.0
H2229 H 0.15456 0.94052 0.89386 0.0
C2230 C 0.20276 0.91904 0.87305 0.0
C2231 C 0.17255 0.9308 0.85533 0.0
C2232 C 0.15783 0.93413 0.82954 0.0
C2233 C 0.19848 0.92346 0.90562 0.0
C2234 C 0.18037 0.92993 0.91337 0.0
C2235 C 0.16833 0.93519 0.88794 0.0
C2236 C 0.17173 0.92582 0.94552 0.0
C2237 C 0.21267 0.91931 0.93182 0.0
C2238 C 0.17079 0.90707 0.95541 0.0
C2239 C 0.15871 0.90162 0.98025 0.0
C2240 C 0.14742 0.91481 0.99605 0.0
C2241 C 0.14925 0.9338 0.98805 0.0
C2242 C 0.16119 0.93926 0.96252 0.0
H2243 H 0.22698 0.92259 0.92302 0.0
H2244 H 0.20985 0.9274 0.95445 0.0
H2245 H 0.21228 0.90419 0.93774 0.0
H2246 H 0.1783 0.89633 0.94217 0.0
H2247 H 0.15754 0.8869 0.98606 0.0
H2248 H 0.38839 0.92237 0.04608 0.0
H2249 H 0.36784 0.93022 0.09133 0.0
H2250 H 0.32104 0.93345 0.02515 0.0
H2251 H 0.34183 0.92546 0.97927 0.0
H2252 H 0.34025 0.95799 0.10905 0.0
H2253 H 0.3095 0.8878 0.08362 0.0
H2254 H 0.33056 0.89493 0.06297 0.0
H2255 H 0.30872 0.90588 0.05308 0.0
C2256 C 0.37384 0.92534 0.04096 0.0
C2257 C 0.36662 0.92306 0.00934 0.0
C2258 C 0.36209 0.92992 0.06682 0.0
C2259 C 0.34285 0.93212 0.06171 0.0
C2260 C 0.33583 0.93162 0.02964 0.0
H2261 H 0.30717 0.88504 0.24474 0.0
H2262 H 0.29795 0.90515 0.19848 0.0
C2263 C 0.34771 0.92717 0.00347 0.0
C2264 C 0.33054 0.93148 0.09081 0.0
H2265 H 0.31112 0.89741 0.13796 0.0
C2266 C 0.3331 0.94509 0.11512 0.0
C2267 C 0.32081 0.91486 0.09865 0.0
C2268 C 0.31714 0.89996 0.07335 0.0
C2269 C 0.32875 0.94127 0.14789 0.0
C2270 C 0.32205 0.92334 0.1564 0.0
C2271 C 0.31658 0.91104 0.13148 0.0
C2272 C 0.32597 0.91513 0.18898 0.0
C2273 C 0.33311 0.95576 0.17347 0.0
C2274 C 0.34466 0.91428 0.19923 0.0
C2275 C 0.3499 0.90267 0.22487 0.0
C2276 C 0.33657 0.89173 0.2411 0.0
C2277 C 0.31764 0.89348 0.23263 0.0
C2278 C 0.31239 0.90496 0.20634 0.0
H2279 H 0.32991 0.96998 0.16413 0.0
H2280 H 0.3251 0.95332 0.19631 0.0
H2281 H 0.34826 0.95534 0.1792 0.0
H2282 H 0.35552 0.92148 0.18577 0.0
H2283 H 0.36458 0.90155 0.23102 0.0
H2284 H 0.33891 0.07496 0.51007 0.0
H2285 H 0.31813 0.06665 0.46448 0.0
H2286 H 0.36623 0.05915 0.40226 0.0
H2287 H 0.38667 0.06742 0.44725 0.0
H2288 H 0.31753 0.09007 0.41466 0.0
H2289 H 0.33216 0.02161 0.36168 0.0
H2290 H 0.33723 0.02677 0.40406 0.0
H2291 H 0.35419 0.03166 0.37249 0.0
C2292 C 0.34497 0.07059 0.48705 0.0
C2293 C 0.36432 0.07188 0.48194 0.0
C2294 C 0.3331 0.06588 0.46102 0.0
C2295 C 0.34055 0.06208 0.4299 0.0
C2296 C 0.36004 0.0615 0.42606 0.0
H2297 H 0.36853 0.10107 0.27313 0.0
H2298 H 0.35716 0.08119 0.31685 0.0
C2299 C 0.37179 0.06643 0.45176 0.0
C2300 C 0.32889 0.0635 0.39996 0.0
H2301 H 0.33199 0.04857 0.32115 0.0
C2302 C 0.31976 0.08057 0.39439 0.0
C2303 C 0.33127 0.05098 0.37358 0.0
C2304 C 0.33907 0.03164 0.37849 0.0
C2305 C 0.31629 0.08687 0.36248 0.0
C2306 C 0.32202 0.07571 0.33579 0.0
C2307 C 0.32796 0.05731 0.34163 0.0
C2308 C 0.32793 0.08472 0.3049 0.0
C2309 C 0.30906 0.10646 0.35753 0.0
C2310 C 0.31525 0.09291 0.28292 0.0
C2311 C 0.32181 0.10439 0.25751 0.0
C2312 C 0.34105 0.10794 0.25434 0.0
C2313 C 0.35361 0.09881 0.27527 0.0
C2314 C 0.34713 0.08729 0.30011 0.0
H2315 H 0.30448 0.113 0.38081 0.0
H2316 H 0.32017 0.11529 0.34657 0.0
H2317 H 0.29705 0.10628 0.3404 0.0
H2318 H 0.30036 0.09105 0.2862 0.0
H2319 H 0.31186 0.11124 0.24158 0.0
H2320 H 0.82232 0.90426 0.23301 0.0
H2321 H 0.81228 0.92463 0.27825 0.0
H2322 H 0.83561 0.88549 0.34736 0.0
H2323 H 0.84493 0.86518 0.30311 0.0
H2324 H 0.8035 0.9013 0.37046 0.0
H2325 H 0.85102 0.95672 0.32299 0.0
H2326 H 0.83136 0.94906 0.29913 0.0
H2327 H 0.85113 0.93391 0.3044 0.0
C2328 C 0.82485 0.89988 0.25795 0.0
C2329 C 0.83473 0.88329 0.2645 0.0
C2330 C 0.81924 0.91158 0.28375 0.0
C2331 C 0.82351 0.90679 0.31625 0.0
C2332 C 0.83212 0.88957 0.32259 0.0
H2333 H 0.88941 0.91715 0.4482 0.0
H2334 H 0.86884 0.92509 0.40347 0.0
C2335 C 0.83762 0.87798 0.29713 0.0
C2336 C 0.82149 0.91999 0.34407 0.0
H2337 H 0.8485 0.95354 0.37948 0.0
C2338 C 0.81275 0.91324 0.37245 0.0
C2339 C 0.83304 0.93598 0.34641 0.0
C2340 C 0.84221 0.94446 0.31672 0.0
C2341 C 0.81827 0.91944 0.40355 0.0
C2342 C 0.83239 0.93323 0.406 0.0
C2343 C 0.83805 0.94262 0.3775 0.0
C2344 C 0.84554 0.93325 0.43417 0.0
C2345 C 0.81087 0.9093 0.43319 0.0
C2346 C 0.83978 0.93613 0.46668 0.0
C2347 C 0.85167 0.93128 0.4927 0.0
C2348 C 0.8694 0.92363 0.48631 0.0
C2349 C 0.8757 0.92269 0.4539 0.0
C2350 C 0.86394 0.9274 0.42821 0.0
H2351 H 0.80016 0.89869 0.42674 0.0
H2352 H 0.82247 0.90214 0.44614 0.0
H2353 H 0.80442 0.91945 0.45027 0.0
H2354 H 0.82583 0.94109 0.47195 0.0
H2355 H 0.84652 0.93228 0.51752 0.0
H2356 H 0.88526 0.07673 0.06674 0.0
H2357 H 0.86275 0.06852 0.10809 0.0
H2358 H 0.82213 0.0556 0.03337 0.0
H2359 H 0.8449 0.06464 0.99129 0.0
H2360 H 0.80714 0.0786 0.07129 0.0
H2361 H 0.8373 0.02895 0.15583 0.0
H2362 H 0.85623 0.04458 0.14813 0.0
H2363 H 0.84643 0.0311 0.11481 0.0
C2364 C 0.87175 0.07155 0.05896 0.0
C2365 C 0.86675 0.0716 0.02583 0.0
C2366 C 0.85886 0.06652 0.08277 0.0
C2367 C 0.84063 0.06115 0.07415 0.0
C2368 C 0.8361 0.05957 0.04076 0.0
H2369 H 0.81321 0.09799 0.26259 0.0
H2370 H 0.80374 0.07512 0.22101 0.0
C2371 C 0.84913 0.06468 0.01671 0.0
C2372 C 0.82595 0.06157 0.09994 0.0
H2373 H 0.82629 0.05991 0.18294 0.0
C2374 C 0.8108 0.07381 0.0956 0.0
C2375 C 0.82949 0.05452 0.13166 0.0
C2376 C 0.84313 0.03886 0.1376 0.0
C2377 C 0.80202 0.08209 0.12261 0.0
C2378 C 0.80921 0.07868 0.15428 0.0
C2379 C 0.82139 0.06348 0.15866 0.0
C2380 C 0.80897 0.09347 0.1799 0.0
C2381 C 0.78637 0.09576 0.1167 0.0
C2382 C 0.81426 0.11167 0.17094 0.0
C2383 C 0.8195 0.12465 0.19449 0.0
C2384 C 0.81989 0.11974 0.22766 0.0
C2385 C 0.81302 0.10216 0.23714 0.0
C2386 C 0.80766 0.08906 0.21337 0.0
H2387 H 0.77633 0.08983 0.09878 0.0
H2388 H 0.77877 0.09923 0.13956 0.0
H2389 H 0.79207 0.10875 0.10577 0.0
H2390 H 0.81605 0.11548 0.14554 0.0
H2391 H 0.82462 0.13813 0.18642 0.0
H2392 H 0.67458 0.08961 0.72407 0.0
H2393 H 0.68156 0.06585 0.76583 0.0
H2394 H 0.68578 0.1092 0.83868 0.0
H2395 H 0.67883 0.13269 0.79747 0.0
H2396 H 0.71025 0.07688 0.84969 0.0
H2397 H 0.63574 0.05809 0.82639 0.0
H2398 H 0.65278 0.05648 0.79418 0.0
H2399 H 0.64535 0.07899 0.8085 0.0
C2400 C 0.67778 0.09404 0.74876 0.0
C2401 C 0.67593 0.1129 0.75779 0.0
C2402 C 0.68166 0.08047 0.77258 0.0
C2403 C 0.68388 0.08575 0.80544 0.0
C2404 C 0.68412 0.1048 0.8135 0.0
H2405 H 0.66203 0.10269 0.98032 0.0
H2406 H 0.68037 0.0922 0.93406 0.0
C2407 C 0.68006 0.11823 0.78996 0.0
C2408 C 0.68217 0.07221 0.83266 0.0
H2409 H 0.64669 0.05557 0.87974 0.0
C2410 C 0.69657 0.07143 0.8559 0.0
C2411 C 0.66448 0.06461 0.84055 0.0
C2412 C 0.64863 0.06448 0.81623 0.0
C2413 C 0.69294 0.06583 0.88818 0.0
C2414 C 0.67439 0.0615 0.89742 0.0
C2415 C 0.66084 0.05927 0.87293 0.0
C2416 C 0.66758 0.06478 0.93127 0.0
C2417 C 0.70865 0.06623 0.91267 0.0
C2418 C 0.65444 0.05279 0.94601 0.0
C2419 C 0.64378 0.05894 0.97274 0.0
C2420 C 0.64607 0.07718 0.98462 0.0
C2421 C 0.66018 0.0885 0.97165 0.0
C2422 C 0.67085 0.08238 0.94534 0.0
H2423 H 0.72161 0.06054 0.90156 0.0
H2424 H 0.71158 0.08091 0.91972 0.0
H2425 H 0.70525 0.05806 0.93496 0.0
H2426 H 0.65148 0.03926 0.93537 0.0
H2427 H 0.63277 0.0501 0.98221 0.0
H2428 H 0.61625 0.92076 0.55844 0.0
H2429 H 0.6373 0.93092 0.60085 0.0
H2430 H 0.67839 0.94598 0.52819 0.0
H2431 H 0.65709 0.93509 0.485 0.0
H2432 H 0.69412 0.92453 0.56902 0.0
H2433 H 0.65818 0.9739 0.64712 0.0
H2434 H 0.64074 0.95672 0.63878 0.0
H2435 H 0.65057 0.97019 0.6055 0.0
C2436 C 0.62953 0.92677 0.55131 0.0
C2437 C 0.63511 0.92691 0.51847 0.0
C2438 C 0.64155 0.93292 0.5757 0.0
C2439 C 0.65947 0.93958 0.56797 0.0
C2440 C 0.6646 0.94108 0.53484 0.0
H2441 H 0.68436 0.91 0.76124 0.0
H2442 H 0.69334 0.93232 0.71843 0.0
C2443 C 0.65242 0.9349 0.51018 0.0
C2444 C 0.67347 0.94089 0.59479 0.0
H2445 H 0.67087 0.94476 0.67743 0.0
C2446 C 0.68952 0.92968 0.59261 0.0
C2447 C 0.66862 0.94849 0.62556 0.0
C2448 C 0.65369 0.9632 0.6291 0.0
C2449 C 0.69818 0.92279 0.62094 0.0
C2450 C 0.68997 0.92654 0.65174 0.0
C2451 C 0.67664 0.9409 0.65388 0.0
C2452 C 0.6906 0.91253 0.67866 0.0
C2453 C 0.71489 0.91016 0.61737 0.0
C2454 C 0.68689 0.89375 0.67097 0.0
C2455 C 0.68192 0.88109 0.69522 0.0
C2456 C 0.68023 0.88687 0.72784 0.0
C2457 C 0.68555 0.90516 0.73625 0.0
C2458 C 0.69064 0.91794 0.71176 0.0
H2459 H 0.72494 0.91634 0.59974 0.0
H2460 H 0.72211 0.90785 0.64105 0.0
H2461 H 0.71042 0.89652 0.60715 0.0
H2462 H 0.68609 0.88912 0.64583 0.0
H2463 H 0.67803 0.86706 0.68799 0.0
H2464 H 0.6162 0.57494 0.05588 0.0
H2465 H 0.6383 0.56772 0.09914 0.0
H2466 H 0.68362 0.56936 0.0297 0.0
H2467 H 0.66128 0.57686 0.98592 0.0
H2468 H 0.66816 0.54297 0.11519 0.0
H2469 H 0.69314 0.61515 0.08739 0.0
H2470 H 0.67244 0.6063 0.06773 0.0
H2471 H 0.69495 0.59708 0.05702 0.0
C2472 C 0.63079 0.57312 0.04957 0.0
C2473 C 0.6371 0.57677 0.01775 0.0
C2474 C 0.64344 0.5689 0.0743 0.0
C2475 C 0.66268 0.56841 0.06781 0.0
C2476 C 0.66886 0.56996 0.03531 0.0
H2477 H 0.69788 0.61992 0.24652 0.0
H2478 H 0.70799 0.59966 0.20106 0.0
C2479 C 0.65609 0.5741 0.01031 0.0
C2480 C 0.67554 0.57002 0.09608 0.0
H2481 H 0.69345 0.60559 0.14165 0.0
C2482 C 0.67447 0.55637 0.12067 0.0
C2483 C 0.68424 0.58733 0.10316 0.0
C2484 C 0.68635 0.60238 0.07757 0.0
C2485 C 0.67915 0.56066 0.15314 0.0
C2486 C 0.6847 0.57907 0.16105 0.0
C2487 C 0.68884 0.59157 0.13567 0.0
C2488 C 0.68075 0.58721 0.19369 0.0
C2489 C 0.67634 0.54602 0.17911 0.0
C2490 C 0.66225 0.58667 0.20502 0.0
C2491 C 0.6565 0.59835 0.23024 0.0
C2492 C 0.66911 0.61071 0.24496 0.0
C2493 C 0.68798 0.61033 0.2356 0.0
C2494 C 0.69374 0.59877 0.20976 0.0
H2495 H 0.68055 0.53206 0.16983 0.0
H2496 H 0.68444 0.54923 0.20156 0.0
H2497 H 0.66129 0.54523 0.18549 0.0
H2498 H 0.65179 0.57838 0.19255 0.0
H2499 H 0.64187 0.59845 0.23705 0.0
H2500 H 0.65714 0.43408 0.51337 0.0
H2501 H 0.67866 0.44353 0.46958 0.0
H2502 H 0.63624 0.43045 0.3981 0.0
H2503 H 0.61495 0.42176 0.44116 0.0
H2504 H 0.6927 0.42069 0.42971 0.0
H2505 H 0.65972 0.47117 0.34971 0.0
H2506 H 0.65187 0.4684 0.39142 0.0
H2507 H 0.64132 0.45511 0.35858 0.0
C2508 C 0.65224 0.43405 0.48833 0.0
C2509 C 0.63447 0.42697 0.48059 0.0
C2510 C 0.66455 0.43941 0.4633 0.0
C2511 C 0.65914 0.43795 0.43031 0.0
C2512 C 0.64078 0.43236 0.42311 0.0
H2513 H 0.6732 0.36335 0.31148 0.0
H2514 H 0.682 0.38523 0.3536 0.0
C2515 C 0.62859 0.42706 0.44789 0.0
C2516 C 0.67309 0.43799 0.40331 0.0
H2517 H 0.67085 0.44107 0.32049 0.0
C2518 C 0.68844 0.42585 0.40593 0.0
C2519 C 0.66867 0.44547 0.37224 0.0
C2520 C 0.65461 0.46096 0.36809 0.0
C2521 C 0.69671 0.41816 0.3779 0.0
C2522 C 0.68884 0.42211 0.34693 0.0
C2523 C 0.67632 0.43715 0.34423 0.0
C2524 C 0.68884 0.40788 0.3204 0.0
C2525 C 0.71255 0.40449 0.382 0.0
C2526 C 0.68993 0.41295 0.2872 0.0
C2527 C 0.68456 0.40027 0.26273 0.0
C2528 C 0.67781 0.38249 0.27131 0.0
C2529 C 0.67827 0.37699 0.30418 0.0
C2530 C 0.68362 0.38951 0.32838 0.0
H2531 H 0.72279 0.40999 0.39997 0.0
H2532 H 0.70709 0.39115 0.39199 0.0
H2533 H 0.71984 0.40172 0.35855 0.0
H2534 H 0.69375 0.42706 0.28034 0.0
H2535 H 0.68425 0.40489 0.23753 0.0
H2536 H 0.82204 0.36273 0.69891 0.0
H2537 H 0.81495 0.38609 0.65762 0.0
H2538 H 0.81599 0.42925 0.73118 0.0
H2539 H 0.82323 0.40562 0.77303 0.0
H2540 H 0.78934 0.41658 0.6453 0.0
H2541 H 0.86184 0.44044 0.67336 0.0
H2542 H 0.85326 0.41901 0.6909 0.0
H2543 H 0.84405 0.44102 0.7044 0.0
C2544 C 0.82015 0.3771 0.70652 0.0
C2545 C 0.82346 0.38244 0.73899 0.0
C2546 C 0.81599 0.39046 0.68292 0.0
C2547 C 0.81526 0.40946 0.69121 0.0
C2548 C 0.81669 0.41468 0.72424 0.0
H2549 H 0.86616 0.44889 0.5156 0.0
H2550 H 0.84614 0.45819 0.56186 0.0
C2551 C 0.82071 0.40118 0.74811 0.0
C2552 C 0.81663 0.42319 0.66419 0.0
H2553 H 0.8519 0.44216 0.61929 0.0
C2554 C 0.80274 0.42296 0.63998 0.0
C2555 C 0.83392 0.43198 0.65741 0.0
C2556 C 0.84919 0.43323 0.68276 0.0
C2557 C 0.80672 0.42863 0.60789 0.0
C2558 C 0.82511 0.43422 0.5999 0.0
C2559 C 0.8379 0.4375 0.62524 0.0
C2560 C 0.8329 0.43113 0.5667 0.0
C2561 C 0.79175 0.42682 0.58221 0.0
C2562 C 0.83177 0.41305 0.55354 0.0
C2563 C 0.84327 0.40775 0.52778 0.0
C2564 C 0.85606 0.42042 0.51436 0.0
C2565 C 0.85622 0.43897 0.52546 0.0
C2566 C 0.84481 0.44427 0.55179 0.0
H2567 H 0.77801 0.43115 0.5923 0.0
H2568 H 0.79492 0.43541 0.56029 0.0
H2569 H 0.7905 0.41197 0.57475 0.0
H2570 H 0.82322 0.40245 0.56504 0.0
H2571 H 0.843 0.39334 0.51964 0.0
H2572 H 0.83978 0.57531 0.01665 0.0
H2573 H 0.81769 0.56779 0.97257 0.0
H2574 H 0.86395 0.55995 0.90635 0.0
H2575 H 0.88573 0.56751 0.94983 0.0
H2576 H 0.81631 0.59157 0.92265 0.0
H2577 H 0.8281 0.5227 0.8689 0.0
H2578 H 0.83414 0.52779 0.91092 0.0
H2579 H 0.85052 0.53235 0.87829 0.0
C2580 C 0.84517 0.57109 0.99303 0.0
C2581 C 0.8644 0.57209 0.98643 0.0
C2582 C 0.83255 0.56682 0.96788 0.0
C2583 C 0.8391 0.5631 0.93613 0.0
C2584 C 0.85846 0.56227 0.93068 0.0
H2585 H 0.86463 0.60095 0.77885 0.0
H2586 H 0.85332 0.58118 0.82274 0.0
C2587 C 0.87096 0.56679 0.95551 0.0
C2588 C 0.82666 0.56473 0.90723 0.0
H2589 H 0.82726 0.54956 0.8284 0.0
C2590 C 0.81777 0.58198 0.90229 0.0
C2591 C 0.82801 0.55209 0.8808 0.0
C2592 C 0.83554 0.53261 0.88523 0.0
C2593 C 0.8136 0.5883 0.87064 0.0
C2594 C 0.81838 0.57697 0.8436 0.0
C2595 C 0.82397 0.55843 0.84911 0.0
C2596 C 0.82403 0.58583 0.81243 0.0
C2597 C 0.80672 0.60805 0.86615 0.0
C2598 C 0.81128 0.5946 0.79123 0.0
C2599 C 0.81784 0.606 0.76568 0.0
C2600 C 0.83713 0.60888 0.76165 0.0
C2601 C 0.84969 0.59916 0.7817 0.0
C2602 C 0.84323 0.58771 0.80663 0.0
H2603 H 0.80278 0.61469 0.88971 0.0
H2604 H 0.8178 0.61663 0.8545 0.0
H2605 H 0.79436 0.60816 0.8498 0.0
H2606 H 0.7964 0.59328 0.79528 0.0
H2607 H 0.8079 0.61335 0.75042 0.0
H2608 H 0.3203 0.36427 0.79686 0.0
H2609 H 0.31399 0.38572 0.84136 0.0
H2610 H 0.32204 0.4325 0.7763 0.0
H2611 H 0.3284 0.41069 0.7312 0.0
H2612 H 0.34624 0.4332 0.82511 0.0
H2613 H 0.27807 0.42158 0.88158 0.0
H2614 H 0.28742 0.39909 0.8718 0.0
H2615 H 0.28254 0.41552 0.83937 0.0
C2616 C 0.31989 0.37911 0.79169 0.0
C2617 C 0.3249 0.38586 0.76076 0.0
C2618 C 0.31608 0.39144 0.81713 0.0
C2619 C 0.31732 0.41083 0.81227 0.0
C2620 C 0.32077 0.41763 0.78057 0.0
H2621 H 0.3673 0.44401 0.99891 0.0
H2622 H 0.34741 0.45414 0.95281 0.0
C2623 C 0.32436 0.40518 0.75482 0.0
C2624 C 0.31954 0.42293 0.84151 0.0
H2625 H 0.30548 0.42208 0.92101 0.0
C2626 C 0.33691 0.4317 0.84583 0.0
C2627 C 0.30729 0.42146 0.86849 0.0
C2628 C 0.28771 0.41407 0.86484 0.0
C2629 C 0.34363 0.43585 0.87724 0.0
C2630 C 0.33262 0.43111 0.90469 0.0
C2631 C 0.31407 0.42537 0.89994 0.0
C2632 C 0.34181 0.42605 0.93585 0.0
C2633 C 0.36341 0.44274 0.88107 0.0
C2634 C 0.3448 0.40702 0.94187 0.0
C2635 C 0.3562 0.40133 0.96747 0.0
C2636 C 0.36475 0.41451 0.98796 0.0
C2637 C 0.36087 0.4336 0.98336 0.0
C2638 C 0.34955 0.43937 0.95715 0.0
H2639 H 0.36969 0.4469 0.85734 0.0
H2640 H 0.36373 0.45493 0.8978 0.0
H2641 H 0.37216 0.43157 0.89204 0.0
H2642 H 0.33905 0.39653 0.92564 0.0
H2643 H 0.35874 0.38652 0.97067 0.0
H2644 H 0.30281 0.61533 0.745 0.0
H2645 H 0.29252 0.59556 0.69904 0.0
H2646 H 0.34883 0.57485 0.68854 0.0
H2647 H 0.35889 0.59438 0.73362 0.0
H2648 H 0.30606 0.60236 0.63988 0.0
H2649 H 0.32086 0.52876 0.66354 0.0
H2650 H 0.31712 0.54524 0.69643 0.0
H2651 H 0.34015 0.54183 0.67933 0.0
C2652 C 0.3127 0.60594 0.73356 0.0
C2653 C 0.33162 0.60634 0.74252 0.0
C2654 C 0.30684 0.59466 0.70741 0.0
C2655 C 0.31981 0.58342 0.69058 0.0
C2656 C 0.33838 0.58286 0.70156 0.0
H2657 H 0.38373 0.57735 0.55182 0.0
H2658 H 0.3621 0.56895 0.59523 0.0
C2659 C 0.34422 0.59424 0.72712 0.0
C2660 C 0.31573 0.57575 0.65762 0.0
H2661 H 0.33322 0.54112 0.60944 0.0
C2662 C 0.31105 0.5886 0.63304 0.0
C2663 C 0.32174 0.55767 0.64852 0.0
C2664 C 0.32502 0.54257 0.67353 0.0
C2665 C 0.31558 0.5851 0.60023 0.0
C2666 C 0.32486 0.56827 0.59207 0.0
C2667 C 0.32647 0.55419 0.61579 0.0
C2668 C 0.33779 0.56779 0.56382 0.0
C2669 C 0.31282 0.60047 0.57546 0.0
C2670 C 0.33149 0.56888 0.53134 0.0
C2671 C 0.34401 0.57359 0.50624 0.0
C2672 C 0.3628 0.57742 0.51362 0.0
C2673 C 0.36928 0.57458 0.54557 0.0
C2674 C 0.35692 0.56969 0.57037 0.0
H2675 H 0.30517 0.61261 0.5858 0.0
H2676 H 0.32658 0.60539 0.56637 0.0
H2677 H 0.3048 0.59508 0.55427 0.0
H2678 H 0.31679 0.56733 0.52577 0.0
H2679 H 0.3387 0.57577 0.48174 0.0
H2680 H 0.15201 0.61046 0.46634 0.0
H2681 H 0.17242 0.59891 0.42356 0.0
H2682 H 0.16048 0.54214 0.4522 0.0
H2683 H 0.13975 0.55387 0.4959 0.0
H2684 H 0.20428 0.57304 0.41922 0.0
H2685 H 0.13983 0.5474 0.35723 0.0
H2686 H 0.13741 0.56261 0.3921 0.0
H2687 H 0.14626 0.53935 0.39742 0.0
C2688 C 0.15396 0.5955 0.464 0.0
C2689 C 0.14408 0.58304 0.484 0.0
C2690 C 0.16579 0.58891 0.43972 0.0
C2691 C 0.1679 0.56967 0.43454 0.0
C2692 C 0.15899 0.55705 0.45577 0.0
H2693 H 0.17686 0.5868 0.2321 0.0
H2694 H 0.18569 0.56422 0.27465 0.0
C2695 C 0.14721 0.56374 0.48066 0.0
C2696 C 0.17704 0.56383 0.40372 0.0
H2697 H 0.16272 0.56153 0.32457 0.0
C2698 C 0.19553 0.56962 0.39842 0.0
C2699 C 0.1659 0.5588 0.37656 0.0
C2700 C 0.14625 0.5516 0.38084 0.0
C2701 C 0.2019 0.57376 0.3668 0.0
C2702 C 0.18934 0.57235 0.34027 0.0
C2703 C 0.17225 0.56311 0.345 0.0
C2704 C 0.19064 0.58518 0.3118 0.0
C2705 C 0.2213 0.58154 0.36257 0.0
C2706 C 0.19128 0.60447 0.31805 0.0
C2707 C 0.18605 0.61723 0.29407 0.0
C2708 C 0.18022 0.61101 0.26325 0.0
C2709 C 0.18149 0.59192 0.25566 0.0
C2710 C 0.18651 0.57902 0.27996 0.0
H2711 H 0.2313 0.57392 0.37847 0.0
H2712 H 0.22608 0.58059 0.3368 0.0
H2713 H 0.22146 0.59641 0.37027 0.0
H2714 H 0.19389 0.60968 0.34248 0.0
H2715 H 0.18512 0.63189 0.30048 0.0
H2716 H 0.19344 0.38762 0.24329 0.0
H2717 H 0.2044 0.40542 0.19537 0.0
H2718 H 0.14927 0.42905 0.18442 0.0
H2719 H 0.13858 0.41153 0.23151 0.0
H2720 H 0.19031 0.3978 0.13739 0.0
H2721 H 0.17925 0.47262 0.1545 0.0
H2722 H 0.18201 0.45695 0.18886 0.0
H2723 H 0.15924 0.46109 0.1712 0.0
C2724 C 0.18401 0.39725 0.2313 0.0
C2725 C 0.16519 0.39823 0.24078 0.0
C2726 C 0.19024 0.40741 0.204 0.0
C2727 C 0.17777 0.41887 0.18647 0.0
C2728 C 0.15939 0.42085 0.19789 0.0
H2729 H 0.11515 0.42382 0.04287 0.0
H2730 H 0.13619 0.43194 0.0874 0.0
C2731 C 0.15317 0.41062 0.22464 0.0
C2732 C 0.18198 0.42533 0.15276 0.0
H2733 H 0.16631 0.4594 0.10144 0.0
C2734 C 0.18602 0.41158 0.12935 0.0
C2735 C 0.17683 0.4434 0.14206 0.0
C2736 C 0.17432 0.45936 0.16567 0.0
C2737 C 0.18181 0.41441 0.09622 0.0
C2738 C 0.17348 0.43146 0.08648 0.0
C2739 C 0.17236 0.4462 0.10901 0.0
C2740 C 0.16112 0.43196 0.05748 0.0
C2741 C 0.18393 0.39829 0.07274 0.0
C2742 C 0.16803 0.43029 0.02547 0.0
C2743 C 0.15587 0.42579 -0.00028 0.0
C2744 C 0.13681 0.42272 0.00601 0.0
C2745 C 0.1298 0.42605 0.03747 0.0
C2746 C 0.14182 0.43076 0.06289 0.0
H2747 H 0.19086 0.38605 0.0842 0.0
H2748 H 0.17 0.39388 0.06368 0.0
H2749 H 0.19236 0.40272 0.05135 0.0
H2750 H 0.18289 0.43123 0.0208 0.0
H2751 H 0.16159 0.42318 0.97565 0.0
loop_
_geom_bond_atom_site_label_1
_geom_bond_atom_site_label_2
_geom_bond_distance
_geom_bond_site_symmetry_2
_ccdc_geom_bond_type
Zn0 O3 2.031 . S
Zn0 O5 2.049 . S
Zn0 O10 2.067 . S
Zn1 O2 1.962 . S
Zn1 O4 1.986 . S
Zn1 O6 1.996 . S
Zn1 O9 1.943 . S
O2 Zn1 1.962 . S
O2 C7 1.254 . S
O3 Zn0 2.031 . S
O3 C7 1.269 . S
O4 Zn1 1.986 . S
O4 C11 1.262 . S
O5 Zn0 2.049 . S
O5 C13 1.260 . S
O6 Zn1 1.996 . S
O6 C13 1.257 . S
C7 O2 1.254 . S
C7 O3 1.269 . S
C8 O9 1.249 . S
C8 O10 1.270 . S
O9 Zn1 1.943 . S
O9 C8 1.249 . S
O10 Zn0 2.067 . S
O10 C8 1.270 . S
C11 O4 1.262 . S
C11 O12 1.232 . S
O12 C11 1.232 . S
C13 O5 1.260 . S
C13 O6 1.257 . S
Zn14 O17 2.031 . S
Zn14 O19 2.049 . S
Zn14 O24 2.067 . S
Zn15 O16 1.962 . S
Zn15 O18 1.986 . S
Zn15 O20 1.996 . S
Zn15 O23 1.943 . S
O16 Zn15 1.962 . S
O16 C21 1.254 . S
O17 Zn14 2.031 . S
O17 C21 1.269 . S
O18 Zn15 1.986 . S
O18 C25 1.262 . S
O19 Zn14 2.049 . S
O19 C27 1.260 . S
O20 Zn15 1.996 . S
O20 C27 1.257 . S
C21 O16 1.254 . S
C21 O17 1.269 . S
C22 O23 1.249 . S
C22 O24 1.270 . S
O23 Zn15 1.943 . S
O23 C22 1.249 . S
O24 Zn14 2.067 . S
O24 C22 1.270 . S
C25 O18 1.262 . S
C25 O26 1.232 . S
O26 C25 1.232 . S
C27 O19 1.260 . S
C27 O20 1.257 . S
Zn28 O31 2.031 . S
Zn28 O33 2.049 . S
Zn28 O38 2.067 . S
Zn29 O30 1.962 . S
Zn29 O32 1.986 . S
Zn29 O34 1.996 . S
Zn29 O37 1.943 . S
O30 Zn29 1.962 . S
O30 C35 1.254 . S
O31 Zn28 2.031 . S
O31 C35 1.269 . S
O32 Zn29 1.986 . S
O32 C39 1.262 . S
O33 Zn28 2.049 . S
O33 C41 1.260 . S
O34 Zn29 1.996 . S
O34 C41 1.257 . S
C35 O30 1.254 . S
C35 O31 1.269 . S
C36 O37 1.249 . S
C36 O38 1.270 . S
O37 Zn29 1.943 . S
O37 C36 1.249 . S
O38 Zn28 2.067 . S
O38 C36 1.270 . S
C39 O32 1.262 . S
C39 O40 1.232 . S
O40 C39 1.232 . S
C41 O33 1.260 . S
C41 O34 1.257 . S
Zn42 O45 2.031 . S
Zn42 O47 2.049 . S
Zn42 O52 2.067 . S
Zn43 O44 1.962 . S
Zn43 O46 1.986 . S
Zn43 O48 1.996 . S
Zn43 O51 1.943 . S
O44 Zn43 1.962 . S
O44 C49 1.254 . S
O45 Zn42 2.031 . S
O45 C49 1.269 . S
O46 Zn43 1.986 . S
O46 C53 1.262 . S
O47 Zn42 2.049 . S
O47 C55 1.260 . S
O48 Zn43 1.996 . S
O48 C55 1.257 . S
C49 O44 1.254 . S
C49 O45 1.269 . S
C50 O51 1.249 . S
C50 O52 1.270 . S
O51 Zn43 1.943 . S
O51 C50 1.249 . S
O52 Zn42 2.067 . S
O52 C50 1.270 . S
C53 O46 1.262 . S
C53 O54 1.232 . S
O54 C53 1.232 . S
C55 O47 1.260 . S
C55 O48 1.257 . S
Zn56 O59 2.031 . S
Zn56 O61 2.049 . S
Zn56 O66 2.067 . S
Zn57 O58 1.962 . S
Zn57 O60 1.986 . S
Zn57 O62 1.996 . S
Zn57 O65 1.943 . S
O58 Zn57 1.962 . S
O58 C63 1.254 . S
O59 Zn56 2.031 . S
O59 C63 1.269 . S
O60 Zn57 1.986 . S
O60 C67 1.262 . S
O61 Zn56 2.049 . S
O61 C69 1.260 . S
O62 Zn57 1.996 . S
O62 C69 1.257 . S
C63 O58 1.254 . S
C63 O59 1.269 . S
C64 O65 1.249 . S
C64 O66 1.270 . S
O65 Zn57 1.943 . S
O65 C64 1.249 . S
O66 Zn56 2.067 . S
O66 C64 1.270 . S
C67 O60 1.262 . S
C67 O68 1.232 . S
O68 C67 1.232 . S
C69 O61 1.260 . S
C69 O62 1.257 . S
Zn70 O73 2.031 . S
Zn70 O75 2.049 . S
Zn70 O80 2.067 . S
Zn71 O72 1.962 . S
Zn71 O74 1.986 . S
Zn71 O76 1.996 . S
Zn71 O79 1.943 . S
O72 Zn71 1.962 . S
O72 C77 1.254 . S
O73 Zn70 2.031 . S
O73 C77 1.269 . S
O74 Zn71 1.986 . S
O74 C81 1.262 . S
O75 Zn70 2.049 . S
O75 C83 1.260 . S
O76 Zn71 1.996 . S
O76 C83 1.257 . S
C77 O72 1.254 . S
C77 O73 1.269 . S
C78 O79 1.249 . S
C78 O80 1.270 . S
O79 Zn71 1.943 . S
O79 C78 1.249 . S
O80 Zn70 2.067 . S
O80 C78 1.270 . S
C81 O74 1.262 . S
C81 O82 1.232 . S
O82 C81 1.232 . S
C83 O75 1.260 . S
C83 O76 1.257 . S
Zn84 O87 2.031 . S
Zn84 O89 2.049 . S
Zn84 O94 2.067 . S
Zn85 O86 1.962 . S
Zn85 O88 1.986 . S
Zn85 O90 1.996 . S
Zn85 O93 1.943 . S
O86 Zn85 1.962 . S
O86 C91 1.254 . S
O87 Zn84 2.031 . S
O87 C91 1.269 . S
O88 Zn85 1.986 . S
O88 C95 1.262 . S
O89 Zn84 2.049 . S
O89 C97 1.260 . S
O90 Zn85 1.996 . S
O90 C97 1.257 . S
C91 O86 1.254 . S
C91 O87 1.269 . S
C92 O93 1.249 . S
C92 O94 1.270 . S
O93 Zn85 1.943 . S
O93 C92 1.249 . S
O94 Zn84 2.067 . S
O94 C92 1.270 . S
C95 O88 1.262 . S
C95 O96 1.232 . S
O96 C95 1.232 . S
C97 O89 1.260 . S
C97 O90 1.257 . S
Zn98 O101 2.031 . S
Zn98 O103 2.049 . S
Zn98 O108 2.067 . S
Zn99 O100 1.962 . S
Zn99 O102 1.986 . S
Zn99 O104 1.996 . S
Zn99 O107 1.943 . S
O100 Zn99 1.962 . S
O100 C105 1.254 . S
O101 Zn98 2.031 . S
O101 C105 1.269 . S
O102 Zn99 1.986 . S
O102 C109 1.262 . S
O103 Zn98 2.049 . S
O103 C111 1.260 . S
O104 Zn99 1.996 . S
O104 C111 1.257 . S
C105 O100 1.254 . S
C105 O101 1.269 . S
C106 O107 1.249 . S
C106 O108 1.270 . S
O107 Zn99 1.943 . S
O107 C106 1.249 . S
O108 Zn98 2.067 . S
O108 C106 1.270 . S
C109 O102 1.262 . S
C109 O110 1.232 . S
O110 C109 1.232 . S
C111 O103 1.260 . S
C111 O104 1.257 . S
Zn112 O115 2.031 . S
Zn112 O117 2.049 . S
Zn112 O122 2.067 . S
Zn113 O114 1.962 . S
Zn113 O116 1.986 . S
Zn113 O118 1.996 . S
Zn113 O121 1.943 . S
O114 Zn113 1.962 . S
O114 C119 1.254 . S
O115 Zn112 2.031 . S
O115 C119 1.269 . S
O116 Zn113 1.986 . S
O116 C123 1.262 . S
O117 Zn112 2.049 . S
O117 C125 1.260 . S
O118 Zn113 1.996 . S
O118 C125 1.257 . S
C119 O114 1.254 . S
C119 O115 1.269 . S
C120 O121 1.249 . S
C120 O122 1.270 . S
O121 Zn113 1.943 . S
O121 C120 1.249 . S
O122 Zn112 2.067 . S
O122 C120 1.270 . S
C123 O116 1.262 . S
C123 O124 1.232 . S
O124 C123 1.232 . S
C125 O117 1.260 . S
C125 O118 1.257 . S
Zn126 O129 2.031 . S
Zn126 O131 2.049 . S
Zn126 O136 2.067 . S
Zn127 O128 1.962 . S
Zn127 O130 1.986 . S
Zn127 O132 1.996 . S
Zn127 O135 1.943 . S
O128 Zn127 1.962 . S
O128 C133 1.254 . S
O129 Zn126 2.031 . S
O129 C133 1.269 . S
O130 Zn127 1.986 . S
O130 C137 1.262 . S
O131 Zn126 2.049 . S
O131 C139 1.260 . S
O132 Zn127 1.996 . S
O132 C139 1.257 . S
C133 O128 1.254 . S
C133 O129 1.269 . S
C134 O135 1.249 . S
C134 O136 1.270 . S
O135 Zn127 1.943 . S
O135 C134 1.249 . S
O136 Zn126 2.067 . S
O136 C134 1.270 . S
C137 O130 1.262 . S
C137 O138 1.232 . S
O138 C137 1.232 . S
C139 O131 1.260 . S
C139 O132 1.257 . S
Zn140 O143 2.031 . S
Zn140 O145 2.049 . S
Zn140 O150 2.067 . S
Zn141 O142 1.962 . S
Zn141 O144 1.986 . S
Zn141 O146 1.996 . S
Zn141 O149 1.943 . S
O142 Zn141 1.962 . S
O142 C147 1.254 . S
O143 Zn140 2.031 . S
O143 C147 1.269 . S
O144 Zn141 1.986 . S
O144 C151 1.262 . S
O145 Zn140 2.049 . S
O145 C153 1.260 . S
O146 Zn141 1.996 . S
O146 C153 1.257 . S
C147 O142 1.254 . S
C147 O143 1.269 . S
C148 O149 1.249 . S
C148 O150 1.270 . S
O149 Zn141 1.943 . S
O149 C148 1.249 . S
O150 Zn140 2.067 . S
O150 C148 1.270 . S
C151 O144 1.262 . S
C151 O152 1.232 . S
O152 C151 1.232 . S
C153 O145 1.260 . S
C153 O146 1.257 . S
Zn154 O157 2.031 . S
Zn154 O159 2.049 . S
Zn154 O164 2.067 . S
Zn155 O156 1.962 . S
Zn155 O158 1.986 . S
Zn155 O160 1.996 . S
Zn155 O163 1.943 . S
O156 Zn155 1.962 . S
O156 C161 1.254 . S
O157 Zn154 2.031 . S
O157 C161 1.269 . S
O158 Zn155 1.986 . S
O158 C165 1.262 . S
O159 Zn154 2.049 . S
O159 C167 1.260 . S
O160 Zn155 1.996 . S
O160 C167 1.257 . S
C161 O156 1.254 . S
C161 O157 1.269 . S
C162 O163 1.249 . S
C162 O164 1.270 . S
O163 Zn155 1.943 . S
O163 C162 1.249 . S
O164 Zn154 2.067 . S
O164 C162 1.270 . S
C165 O158 1.262 . S
C165 O166 1.232 . S
O166 C165 1.232 . S
C167 O159 1.260 . S
C167 O160 1.257 . S
Zn168 O171 2.031 . S
Zn168 O173 2.049 . S
Zn168 O178 2.067 . S
Zn169 O170 1.962 . S
Zn169 O172 1.986 . S
Zn169 O174 1.996 . S
Zn169 O177 1.943 . S
O170 Zn169 1.962 . S
O170 C175 1.254 . S
O171 Zn168 2.031 . S
O171 C175 1.269 . S
O172 Zn169 1.986 . S
O172 C179 1.262 . S
O173 Zn168 2.049 . S
O173 C181 1.260 . S
O174 Zn169 1.996 . S
O174 C181 1.257 . S
C175 O170 1.254 . S
C175 O171 1.269 . S
C176 O177 1.249 . S
C176 O178 1.270 . S
O177 Zn169 1.943 . S
O177 C176 1.249 . S
O178 Zn168 2.067 . S
O178 C176 1.270 . S
C179 O172 1.262 . S
C179 O180 1.232 . S
O180 C179 1.232 . S
C181 O173 1.260 . S
C181 O174 1.257 . S
Zn182 O185 2.031 . S
Zn182 O187 2.049 . S
Zn182 O192 2.067 . S
Zn183 O184 1.962 . S
Zn183 O186 1.986 . S
Zn183 O188 1.996 . S
Zn183 O191 1.943 . S
O184 Zn183 1.962 . S
O184 C189 1.254 . S
O185 Zn182 2.031 . S
O185 C189 1.269 . S
O186 Zn183 1.986 . S
O186 C193 1.262 . S
O187 Zn182 2.049 . S
O187 C195 1.260 . S
O188 Zn183 1.996 . S
O188 C195 1.257 . S
C189 O184 1.254 . S
C189 O185 1.269 . S
C190 O191 1.249 . S
C190 O192 1.270 . S
O191 Zn183 1.943 . S
O191 C190 1.249 . S
O192 Zn182 2.067 . S
O192 C190 1.270 . S
C193 O186 1.262 . S
C193 O194 1.232 . S
O194 C193 1.232 . S
C195 O187 1.260 . S
C195 O188 1.257 . S
Zn196 O199 2.031 . S
Zn196 O201 2.049 . S
Zn196 O206 2.067 . S
Zn197 O198 1.962 . S
Zn197 O200 1.986 . S
Zn197 O202 1.996 . S
Zn197 O205 1.943 . S
O198 Zn197 1.962 . S
O198 C203 1.254 . S
O199 Zn196 2.031 . S
O199 C203 1.269 . S
O200 Zn197 1.986 . S
O200 C207 1.262 . S
O201 Zn196 2.049 . S
O201 C209 1.260 . S
O202 Zn197 1.996 . S
O202 C209 1.257 . S
C203 O198 1.254 . S
C203 O199 1.269 . S
C204 O205 1.249 . S
C204 O206 1.270 . S
O205 Zn197 1.943 . S
O205 C204 1.249 . S
O206 Zn196 2.067 . S
O206 C204 1.270 . S
C207 O200 1.262 . S
C207 O208 1.232 . S
O208 C207 1.232 . S
C209 O201 1.260 . S
C209 O202 1.257 . S
Zn210 O213 2.031 . S
Zn210 O215 2.049 . S
Zn210 O220 2.067 . S
Zn211 O212 1.962 . S
Zn211 O214 1.986 . S
Zn211 O216 1.996 . S
Zn211 O219 1.943 . S
O212 Zn211 1.962 . S
O212 C217 1.254 . S
O213 Zn210 2.031 . S
O213 C217 1.269 . S
O214 Zn211 1.986 . S
O214 C221 1.262 . S
O215 Zn210 2.049 . S
O215 C223 1.260 . S
O216 Zn211 1.996 . S
O216 C223 1.257 . S
C217 O212 1.254 . S
C217 O213 1.269 . S
C218 O219 1.249 . S
C218 O220 1.270 . S
O219 Zn211 1.943 . S
O219 C218 1.249 . S
O220 Zn210 2.067 . S
O220 C218 1.270 . S
C221 O214 1.262 . S
C221 O222 1.232 . S
O222 C221 1.232 . S
C223 O215 1.260 . S
C223 O216 1.257 . S
Zn224 O227 2.031 . S
Zn224 O229 2.049 . S
Zn224 O234 2.067 . S
Zn225 O226 1.962 . S
Zn225 O228 1.986 . S
Zn225 O230 1.996 . S
Zn225 O233 1.943 . S
O226 Zn225 1.962 . S
O226 C231 1.254 . S
O227 Zn224 2.031 . S
O227 C231 1.269 . S
O228 Zn225 1.986 . S
O228 C235 1.262 . S
O229 Zn224 2.049 . S
O229 C237 1.260 . S
O230 Zn225 1.996 . S
O230 C237 1.257 . S
C231 O226 1.254 . S
C231 O227 1.269 . S
C232 O233 1.249 . S
C232 O234 1.270 . S
O233 Zn225 1.943 . S
O233 C232 1.249 . S
O234 Zn224 2.067 . S
O234 C232 1.270 . S
C235 O228 1.262 . S
C235 O236 1.232 . S
O236 C235 1.232 . S
C237 O229 1.260 . S
C237 O230 1.257 . S
Zn238 O241 2.031 . S
Zn238 O243 2.049 . S
Zn238 O248 2.067 . S
Zn239 O240 1.962 . S
Zn239 O242 1.986 . S
Zn239 O244 1.996 . S
Zn239 O247 1.943 . S
O240 Zn239 1.962 . S
O240 C245 1.254 . S
O241 Zn238 2.031 . S
O241 C245 1.269 . S
O242 Zn239 1.986 . S
O242 C249 1.262 . S
O243 Zn238 2.049 . S
O243 C251 1.260 . S
O244 Zn239 1.996 . S
O244 C251 1.257 . S
C245 O240 1.254 . S
C245 O241 1.269 . S
C246 O247 1.249 . S
C246 O248 1.270 . S
O247 Zn239 1.943 . S
O247 C246 1.249 . S
O248 Zn238 2.067 . S
O248 C246 1.270 . S
C249 O242 1.262 . S
C249 O250 1.232 . S
O250 C249 1.232 . S
C251 O243 1.260 . S
C251 O244 1.257 . S
Zn252 O255 2.031 . S
Zn252 O257 2.049 . S
Zn252 O262 2.067 . S
Zn253 O254 1.962 . S
Zn253 O256 1.986 . S
Zn253 O258 1.996 . S
Zn253 O261 1.943 . S
O254 Zn253 1.962 . S
O254 C259 1.254 . S
O255 Zn252 2.031 . S
O255 C259 1.269 . S
O256 Zn253 1.986 . S
O256 C263 1.262 . S
O257 Zn252 2.049 . S
O257 C265 1.260 . S
O258 Zn253 1.996 . S
O258 C265 1.257 . S
C259 O254 1.254 . S
C259 O255 1.269 . S
C260 O261 1.249 . S
C260 O262 1.270 . S
O261 Zn253 1.943 . S
O261 C260 1.249 . S
O262 Zn252 2.067 . S
O262 C260 1.270 . S
C263 O256 1.262 . S
C263 O264 1.232 . S
O264 C263 1.232 . S
C265 O257 1.260 . S
C265 O258 1.257 . S
Zn266 O269 2.031 . S
Zn266 O271 2.049 . S
Zn266 O276 2.067 . S
Zn267 O268 1.962 . S
Zn267 O270 1.986 . S
Zn267 O272 1.996 . S
Zn267 O275 1.943 . S
O268 Zn267 1.962 . S
O268 C273 1.254 . S
O269 Zn266 2.031 . S
O269 C273 1.269 . S
O270 Zn267 1.986 . S
O270 C277 1.262 . S
O271 Zn266 2.049 . S
O271 C279 1.260 . S
O272 Zn267 1.996 . S
O272 C279 1.257 . S
C273 O268 1.254 . S
C273 O269 1.269 . S
C274 O275 1.249 . S
C274 O276 1.270 . S
O275 Zn267 1.943 . S
O275 C274 1.249 . S
O276 Zn266 2.067 . S
O276 C274 1.270 . S
C277 O270 1.262 . S
C277 O278 1.232 . S
O278 C277 1.232 . S
C279 O271 1.260 . S
C279 O272 1.257 . S
Zn280 O283 2.031 . S
Zn280 O285 2.049 . S
Zn280 O290 2.067 . S
Zn281 O282 1.962 . S
Zn281 O284 1.986 . S
Zn281 O286 1.996 . S
Zn281 O289 1.943 . S
O282 Zn281 1.962 . S
O282 C287 1.254 . S
O283 Zn280 2.031 . S
O283 C287 1.269 . S
O284 Zn281 1.986 . S
O284 C291 1.262 . S
O285 Zn280 2.049 . S
O285 C293 1.260 . S
O286 Zn281 1.996 . S
O286 C293 1.257 . S
C287 O282 1.254 . S
C287 O283 1.269 . S
C288 O289 1.249 . S
C288 O290 1.270 . S
O289 Zn281 1.943 . S
O289 C288 1.249 . S
O290 Zn280 2.067 . S
O290 C288 1.270 . S
C291 O284 1.262 . S
C291 O292 1.232 . S
O292 C291 1.232 . S
C293 O285 1.260 . S
C293 O286 1.257 . S
Zn294 O297 2.031 . S
Zn294 O299 2.049 . S
Zn294 O304 2.067 . S
Zn295 O296 1.962 . S
Zn295 O298 1.986 . S
Zn295 O300 1.996 . S
Zn295 O303 1.943 . S
O296 Zn295 1.962 . S
O296 C301 1.254 . S
O297 Zn294 2.031 . S
O297 C301 1.269 . S
O298 Zn295 1.986 . S
O298 C305 1.262 . S
O299 Zn294 2.049 . S
O299 C307 1.260 . S
O300 Zn295 1.996 . S
O300 C307 1.257 . S
C301 O296 1.254 . S
C301 O297 1.269 . S
C302 O303 1.249 . S
C302 O304 1.270 . S
O303 Zn295 1.943 . S
O303 C302 1.249 . S
O304 Zn294 2.067 . S
O304 C302 1.270 . S
C305 O298 1.262 . S
C305 O306 1.232 . S
O306 C305 1.232 . S
C307 O299 1.260 . S
C307 O300 1.257 . S
Zn308 O311 2.031 . S
Zn308 O313 2.049 . S
Zn308 O318 2.067 . S
Zn309 O310 1.962 . S
Zn309 O312 1.986 . S
Zn309 O314 1.996 . S
Zn309 O317 1.943 . S
O310 Zn309 1.962 . S
O310 C315 1.254 . S
O311 Zn308 2.031 . S
O311 C315 1.269 . S
O312 Zn309 1.986 . S
O312 C319 1.262 . S
O313 Zn308 2.049 . S
O313 C321 1.260 . S
O314 Zn309 1.996 . S
O314 C321 1.257 . S
C315 O310 1.254 . S
C315 O311 1.269 . S
C316 O317 1.249 . S
C316 O318 1.270 . S
O317 Zn309 1.943 . S
O317 C316 1.249 . S
O318 Zn308 2.067 . S
O318 C316 1.270 . S
C319 O312 1.262 . S
C319 O320 1.232 . S
O320 C319 1.232 . S
C321 O313 1.260 . S
C321 O314 1.257 . S
Zn322 O325 2.031 . S
Zn322 O327 2.049 . S
Zn322 O332 2.067 . S
Zn323 O324 1.962 . S
Zn323 O326 1.986 . S
Zn323 O328 1.996 . S
Zn323 O331 1.943 . S
O324 Zn323 1.962 . S
O324 C329 1.254 . S
O325 Zn322 2.031 . S
O325 C329 1.269 . S
O326 Zn323 1.986 . S
O326 C333 1.262 . S
O327 Zn322 2.049 . S
O327 C335 1.260 . S
O328 Zn323 1.996 . S
O328 C335 1.257 . S
C329 O324 1.254 . S
C329 O325 1.269 . S
C330 O331 1.249 . S
C330 O332 1.270 . S
O331 Zn323 1.943 . S
O331 C330 1.249 . S
O332 Zn322 2.067 . S
O332 C330 1.270 . S
C333 O326 1.262 . S
C333 O334 1.232 . S
O334 C333 1.232 . S
C335 O327 1.260 . S
C335 O328 1.257 . S
Zn336 O339 2.031 . S
Zn336 O341 2.049 . S
Zn336 O346 2.067 . S
Zn337 O338 1.962 . S
Zn337 O340 1.986 . S
Zn337 O342 1.996 . S
Zn337 O345 1.943 . S
O338 Zn337 1.962 . S
O338 C343 1.254 . S
O339 Zn336 2.031 . S
O339 C343 1.269 . S
O340 Zn337 1.986 . S
O340 C347 1.262 . S
O341 Zn336 2.049 . S
O341 C349 1.260 . S
O342 Zn337 1.996 . S
O342 C349 1.257 . S
C343 O338 1.254 . S
C343 O339 1.269 . S
C344 O345 1.249 . S
C344 O346 1.270 . S
O345 Zn337 1.943 . S
O345 C344 1.249 . S
O346 Zn336 2.067 . S
O346 C344 1.270 . S
C347 O340 1.262 . S
C347 O348 1.232 . S
O348 C347 1.232 . S
C349 O341 1.260 . S
C349 O342 1.257 . S
Zn350 O353 2.031 . S
Zn350 O355 2.049 . S
Zn350 O360 2.067 . S
Zn351 O352 1.962 . S
Zn351 O354 1.986 . S
Zn351 O356 1.996 . S
Zn351 O359 1.943 . S
O352 Zn351 1.962 . S
O352 C357 1.254 . S
O353 Zn350 2.031 . S
O353 C357 1.269 . S
O354 Zn351 1.986 . S
O354 C361 1.262 . S
O355 Zn350 2.049 . S
O355 C363 1.260 . S
O356 Zn351 1.996 . S
O356 C363 1.257 . S
C357 O352 1.254 . S
C357 O353 1.269 . S
C358 O359 1.249 . S
C358 O360 1.270 . S
O359 Zn351 1.943 . S
O359 C358 1.249 . S
O360 Zn350 2.067 . S
O360 C358 1.270 . S
C361 O354 1.262 . S
C361 O362 1.232 . S
O362 C361 1.232 . S
C363 O355 1.260 . S
C363 O356 1.257 . S
Zn364 O367 2.031 . S
Zn364 O369 2.049 . S
Zn364 O374 2.067 . S
Zn365 O366 1.962 . S
Zn365 O368 1.986 . S
Zn365 O370 1.996 . S
Zn365 O373 1.943 . S
O366 Zn365 1.962 . S
O366 C371 1.254 . S
O367 Zn364 2.031 . S
O367 C371 1.269 . S
O368 Zn365 1.986 . S
O368 C375 1.262 . S
O369 Zn364 2.049 . S
O369 C377 1.260 . S
O370 Zn365 1.996 . S
O370 C377 1.257 . S
C371 O366 1.254 . S
C371 O367 1.269 . S
C372 O373 1.249 . S
C372 O374 1.270 . S
O373 Zn365 1.943 . S
O373 C372 1.249 . S
O374 Zn364 2.067 . S
O374 C372 1.270 . S
C375 O368 1.262 . S
C375 O376 1.232 . S
O376 C375 1.232 . S
C377 O369 1.260 . S
C377 O370 1.257 . S
Zn378 O381 2.031 . S
Zn378 O383 2.049 . S
Zn378 O388 2.067 . S
Zn379 O380 1.962 . S
Zn379 O382 1.986 . S
Zn379 O384 1.996 . S
Zn379 O387 1.943 . S
O380 Zn379 1.962 . S
O380 C385 1.254 . S
O381 Zn378 2.031 . S
O381 C385 1.269 . S
O382 Zn379 1.986 . S
O382 C389 1.262 . S
O383 Zn378 2.049 . S
O383 C391 1.260 . S
O384 Zn379 1.996 . S
O384 C391 1.257 . S
C385 O380 1.254 . S
C385 O381 1.269 . S
C386 O387 1.249 . S
C386 O388 1.270 . S
O387 Zn379 1.943 . S
O387 C386 1.249 . S
O388 Zn378 2.067 . S
O388 C386 1.270 . S
C389 O382 1.262 . S
C389 O390 1.232 . S
O390 C389 1.232 . S
C391 O383 1.260 . S
C391 O384 1.257 . S
Zn392 O395 2.031 . S
Zn392 O397 2.049 . S
Zn392 O402 2.067 . S
Zn393 O394 1.962 . S
Zn393 O396 1.986 . S
Zn393 O398 1.996 . S
Zn393 O401 1.943 . S
O394 Zn393 1.962 . S
O394 C399 1.254 . S
O395 Zn392 2.031 . S
O395 C399 1.269 . S
O396 Zn393 1.986 . S
O396 C403 1.262 . S
O397 Zn392 2.049 . S
O397 C405 1.260 . S
O398 Zn393 1.996 . S
O398 C405 1.257 . S
C399 O394 1.254 . S
C399 O395 1.269 . S
C400 O401 1.249 . S
C400 O402 1.270 . S
O401 Zn393 1.943 . S
O401 C400 1.249 . S
O402 Zn392 2.067 . S
O402 C400 1.270 . S
C403 O396 1.262 . S
C403 O404 1.232 . S
O404 C403 1.232 . S
C405 O397 1.260 . S
C405 O398 1.257 . S
Zn406 O409 2.031 . S
Zn406 O411 2.049 . S
Zn406 O416 2.067 . S
Zn407 O408 1.962 . S
Zn407 O410 1.986 . S
Zn407 O412 1.996 . S
Zn407 O415 1.943 . S
O408 Zn407 1.962 . S
O408 C413 1.254 . S
O409 Zn406 2.031 . S
O409 C413 1.269 . S
O410 Zn407 1.986 . S
O410 C417 1.262 . S
O411 Zn406 2.049 . S
O411 C419 1.260 . S
O412 Zn407 1.996 . S
O412 C419 1.257 . S
C413 O408 1.254 . S
C413 O409 1.269 . S
C414 O415 1.249 . S
C414 O416 1.270 . S
O415 Zn407 1.943 . S
O415 C414 1.249 . S
O416 Zn406 2.067 . S
O416 C414 1.270 . S
C417 O410 1.262 . S
C417 O418 1.232 . S
O418 C417 1.232 . S
C419 O411 1.260 . S
C419 O412 1.257 . S
Zn420 O423 2.031 . S
Zn420 O425 2.049 . S
Zn420 O430 2.067 . S
Zn421 O422 1.962 . S
Zn421 O424 1.986 . S
Zn421 O426 1.996 . S
Zn421 O429 1.943 . S
O422 Zn421 1.962 . S
O422 C427 1.254 . S
O423 Zn420 2.031 . S
O423 C427 1.269 . S
O424 Zn421 1.986 . S
O424 C431 1.262 . S
O425 Zn420 2.049 . S
O425 C433 1.260 . S
O426 Zn421 1.996 . S
O426 C433 1.257 . S
C427 O422 1.254 . S
C427 O423 1.269 . S
C428 O429 1.249 . S
C428 O430 1.270 . S
O429 Zn421 1.943 . S
O429 C428 1.249 . S
O430 Zn420 2.067 . S
O430 C428 1.270 . S
C431 O424 1.262 . S
C431 O432 1.232 . S
O432 C431 1.232 . S
C433 O425 1.260 . S
C433 O426 1.257 . S
Zn434 O437 2.031 . S
Zn434 O439 2.049 . S
Zn434 O444 2.067 . S
Zn435 O436 1.962 . S
Zn435 O438 1.986 . S
Zn435 O440 1.996 . S
Zn435 O443 1.943 . S
O436 Zn435 1.962 . S
O436 C441 1.254 . S
O437 Zn434 2.031 . S
O437 C441 1.269 . S
O438 Zn435 1.986 . S
O438 C445 1.262 . S
O439 Zn434 2.049 . S
O439 C447 1.260 . S
O440 Zn435 1.996 . S
O440 C447 1.257 . S
C441 O436 1.254 . S
C441 O437 1.269 . S
C442 O443 1.249 . S
C442 O444 1.270 . S
O443 Zn435 1.943 . S
O443 C442 1.249 . S
O444 Zn434 2.067 . S
O444 C442 1.270 . S
C445 O438 1.262 . S
C445 O446 1.232 . S
O446 C445 1.232 . S
C447 O439 1.260 . S
C447 O440 1.257 . S
H448 C456 0.929 . S
H449 C458 0.930 . S
H450 C460 0.930 . S
H451 C463 0.929 . S
H452 C466 0.930 . S
H453 C468 0.960 . S
H454 C468 0.960 . S
H455 C468 0.960 . S
C456 H448 0.929 . S
C456 C457 1.377 . S
C456 C458 1.384 . S
C457 C456 1.377 . S
C457 C463 1.390 . S
C458 H449 0.930 . S
C458 C456 1.384 . S
C458 C459 1.372 . S
C459 C458 1.372 . S
C459 C460 1.400 . S
C459 C464 1.490 . S
C460 H450 0.930 . S
C460 C459 1.400 . S
C460 C463 1.386 . S
H461 C477 0.930 . S
H462 C478 0.931 . S
C463 H451 0.929 . S
C463 C457 1.390 . S
C463 C460 1.386 . S
C464 C459 1.490 . S
C464 C466 1.395 1_545 S
C464 C467 1.403 . S
H465 C471 0.930 . S
C466 H452 0.930 . S
C466 C464 1.395 1_565 S
C466 C469 1.403 . S
C467 C464 1.403 . S
C467 C468 1.524 . S
C467 C471 1.370 1_545 S
C468 H453 0.960 . S
C468 H454 0.960 . S
C468 H455 0.960 . S
C468 C467 1.524 . S
C469 C466 1.403 . S
C469 C470 1.392 . S
C469 C473 1.495 . S
C470 C469 1.392 . S
C470 C471 1.416 . S
C470 C472 1.478 . S
C471 H465 0.930 . S
C471 C467 1.370 1_565 S
C471 C470 1.416 . S
C472 C470 1.478 . S
C472 C474 1.381 . S
C472 C478 1.383 . S
C473 C469 1.495 . S
C473 H479 0.959 . S
C473 H480 0.961 . S
C473 H481 0.960 . S
C474 C472 1.381 . S
C474 C475 1.394 . S
C474 H482 0.930 . S
C475 C474 1.394 . S
C475 C476 1.383 . S
C475 H483 0.929 . S
C476 C475 1.383 . S
C476 C477 1.377 . S
C477 H461 0.930 . S
C477 C476 1.377 . S
C477 C478 1.379 . S
C478 H462 0.931 . S
C478 C472 1.383 . S
C478 C477 1.379 . S
H479 C473 0.959 . S
H480 C473 0.961 . S
H481 C473 0.960 . S
H482 C474 0.930 . S
H483 C475 0.929 . S
H484 C492 0.929 . S
H485 C494 0.930 . S
H486 C496 0.930 . S
H487 C499 0.929 . S
H488 C502 0.930 . S
H489 C504 0.960 . S
H490 C504 0.960 . S
H491 C504 0.960 . S
C492 H484 0.929 . S
C492 C493 1.377 . S
C492 C494 1.384 . S
C493 C492 1.377 . S
C493 C499 1.390 . S
C494 H485 0.930 . S
C494 C492 1.384 . S
C494 C495 1.372 . S
C495 C494 1.372 . S
C495 C496 1.400 . S
C495 C500 1.490 . S
C496 H486 0.930 . S
C496 C495 1.400 . S
C496 C499 1.386 . S
H497 C513 0.930 . S
H498 C514 0.931 . S
C499 H487 0.929 . S
C499 C493 1.390 . S
C499 C496 1.386 . S
C500 C495 1.490 . S
C500 C502 1.395 . S
C500 C503 1.403 . S
H501 C507 0.930 . S
C502 H488 0.930 . S
C502 C500 1.395 . S
C502 C505 1.403 . S
C503 C500 1.403 . S
C503 C504 1.524 . S
C503 C507 1.400 . S
C504 H489 0.960 . S
C504 H490 0.960 . S
C504 H491 0.960 . S
C504 C503 1.524 . S
C505 C502 1.403 . S
C505 C506 1.392 . S
C505 C509 1.495 . S
C506 C505 1.392 . S
C506 C507 1.385 . S
C506 C508 1.478 . S
C507 H501 0.930 . S
C507 C503 1.400 . S
C507 C506 1.385 . S
C508 C506 1.478 . S
C508 C510 1.381 . S
C508 C514 1.383 . S
C509 C505 1.495 . S
C509 H515 0.959 . S
C509 H516 0.961 . S
C509 H517 0.960 . S
C510 C508 1.381 . S
C510 C511 1.394 . S
C510 H518 0.930 . S
C511 C510 1.394 . S
C511 C512 1.383 . S
C511 H519 0.929 . S
C512 C511 1.383 . S
C512 C513 1.377 . S
C513 H497 0.930 . S
C513 C512 1.377 . S
C513 C514 1.379 . S
C514 H498 0.931 . S
C514 C508 1.383 . S
C514 C513 1.379 . S
H515 C509 0.959 . S
H516 C509 0.961 . S
H517 C509 0.960 . S
H518 C510 0.930 . S
H519 C511 0.929 . S
H520 C528 0.929 . S
H521 C530 0.930 . S
H522 C532 0.930 . S
H523 C535 0.929 . S
H524 C538 0.930 . S
H525 C540 0.983 . S
H526 C540 0.960 . S
H527 C540 0.960 . S
C528 H520 0.929 . S
C528 C529 1.377 . S
C528 C530 1.384 . S
C529 C528 1.377 . S
C529 C535 1.390 . S
C530 H521 0.930 . S
C530 C528 1.384 . S
C530 C531 1.372 . S
C531 C530 1.372 . S
C531 C532 1.400 . S
C531 C536 1.490 . S
C532 H522 0.930 . S
C532 C531 1.400 . S
C532 C535 1.386 . S
H533 C549 0.930 . S
H534 C550 0.931 . S
C535 H523 0.929 . S
C535 C529 1.390 . S
C535 C532 1.386 . S
C536 C531 1.490 . S
C536 C538 1.395 . S
C536 C539 1.403 . S
H537 C543 0.930 . S
C538 H524 0.930 . S
C538 C536 1.395 . S
C538 C541 1.403 1_545 S
C539 C536 1.403 . S
C539 C540 1.524 . S
C539 C543 1.400 1_545 S
C540 H525 0.983 . S
C540 H526 0.960 . S
C540 H527 0.960 . S
C540 C539 1.524 . S
C541 C538 1.403 1_565 S
C541 C542 1.392 . S
C541 C545 1.495 . S
C542 C541 1.392 . S
C542 C543 1.385 . S
C542 C544 1.478 . S
C543 H537 0.930 . S
C543 C539 1.400 1_565 S
C543 C542 1.385 . S
C544 C542 1.478 . S
C544 C546 1.381 . S
C544 C550 1.383 . S
C545 C541 1.495 . S
C545 H551 0.959 . S
C545 H552 0.961 . S
C545 H553 0.960 . S
C546 C544 1.381 . S
C546 C547 1.394 . S
C546 H554 0.930 . S
C547 C546 1.394 . S
C547 C548 1.383 . S
C547 H555 0.929 . S
C548 C547 1.383 . S
C548 C549 1.377 . S
C549 H533 0.930 . S
C549 C548 1.377 . S
C549 C550 1.379 . S
C550 H534 0.931 . S
C550 C544 1.383 . S
C550 C549 1.379 . S
H551 C545 0.959 . S
H552 C545 0.961 . S
H553 C545 0.960 . S
H554 C546 0.930 . S
H555 C547 0.929 . S
H556 C564 0.929 . S
H557 C566 0.930 . S
H558 C568 0.930 . S
H559 C571 0.929 . S
H560 C574 0.930 . S
H561 C576 0.960 . S
H562 C576 0.960 . S
H563 C576 0.960 . S
C564 H556 0.929 . S
C564 C565 1.377 . S
C564 C566 1.384 . S
C565 C564 1.377 . S
C565 C571 1.390 . S
C566 H557 0.930 . S
C566 C564 1.384 . S
C566 C567 1.372 . S
C567 C566 1.372 . S
C567 C568 1.400 . S
C567 C572 1.490 . S
C568 H558 0.930 . S
C568 C567 1.400 . S
C568 C571 1.386 . S
H569 C585 0.930 . S
H570 C586 0.931 . S
C571 H559 0.929 . S
C571 C565 1.390 . S
C571 C568 1.386 . S
C572 C567 1.490 . S
C572 C574 1.395 . S
C572 C575 1.403 1_556 S
H573 C579 0.930 . S
C574 H560 0.930 . S
C574 C572 1.395 . S
C574 C577 1.403 . S
C575 C572 1.403 1_554 S
C575 C576 1.524 . S
C575 C579 1.400 . S
C576 H561 0.960 . S
C576 H562 0.960 . S
C576 H563 0.960 . S
C576 C575 1.524 . S
C577 C574 1.403 . S
C577 C578 1.392 1_556 S
C577 C581 1.495 . S
C578 C577 1.392 1_554 S
C578 C579 1.385 . S
C578 C580 1.478 . S
C579 H573 0.930 . S
C579 C575 1.400 . S
C579 C578 1.385 . S
C580 C578 1.478 . S
C580 C582 1.381 . S
C580 C586 1.383 . S
C581 C577 1.495 . S
C581 H587 0.959 . S
C581 H588 0.961 . S
C581 H589 0.960 . S
C582 C580 1.381 . S
C582 C583 1.394 . S
C582 H590 0.930 . S
C583 C582 1.394 . S
C583 C584 1.383 . S
C583 H591 0.929 . S
C584 C583 1.383 . S
C584 C585 1.377 . S
C585 H569 0.930 . S
C585 C584 1.377 . S
C585 C586 1.379 . S
C586 H570 0.931 . S
C586 C580 1.383 . S
C586 C585 1.379 . S
H587 C581 0.959 . S
H588 C581 0.961 . S
H589 C581 0.960 . S
H590 C582 0.930 . S
H591 C583 0.929 . S
H592 C600 0.929 . S
H593 C602 0.930 . S
H594 C604 0.930 . S
H595 C607 0.929 . S
H596 C610 0.930 . S
H597 C612 0.960 1_545 S
H598 C612 0.953 1_545 S
H599 C612 0.960 . S
C600 H592 0.929 . S
C600 C601 1.377 . S
C600 C602 1.384 . S
C601 C600 1.377 . S
C601 C607 1.390 . S
C602 H593 0.930 . S
C602 C600 1.384 . S
C602 C603 1.372 . S
C603 C602 1.372 . S
C603 C604 1.400 . S
C603 C608 1.490 . S
C604 H594 0.930 . S
C604 C603 1.400 . S
C604 C607 1.386 . S
H605 C621 0.930 . S
H606 C622 0.931 . S
C607 H595 0.929 . S
C607 C601 1.390 . S
C607 C604 1.386 . S
C608 C603 1.490 . S
C608 C610 1.395 . S
C608 C611 1.403 . S
H609 C615 0.930 . S
C610 H596 0.930 . S
C610 C608 1.395 . S
C610 C613 1.403 1_565 S
C611 C608 1.403 . S
C611 C612 1.524 . S
C611 C615 1.400 1_565 S
C612 H597 0.960 1_565 S
C612 H598 0.953 1_565 S
C612 H599 0.960 . S
C612 C611 1.524 . S
C613 C610 1.403 1_545 S
C613 C614 1.392 . S
C613 C617 1.495 . S
C614 C613 1.392 . S
C614 C615 1.385 . S
C614 C616 1.478 . S
C615 H609 0.930 . S
C615 C611 1.400 1_545 S
C615 C614 1.385 . S
C616 C614 1.478 . S
C616 C618 1.381 . S
C616 C622 1.383 . S
C617 C613 1.495 . S
C617 H623 0.959 1_545 S
C617 H624 0.969 . S
C617 H625 0.960 . S
C618 C616 1.381 . S
C618 C619 1.394 . S
C618 H626 0.930 . S
C619 C618 1.394 . S
C619 C620 1.383 . S
C619 H627 0.929 . S
C620 C619 1.383 . S
C620 C621 1.377 . S
C621 H605 0.930 . S
C621 C620 1.377 . S
C621 C622 1.379 . S
C622 H606 0.931 . S
C622 C616 1.383 . S
C622 C621 1.379 . S
H623 C617 0.959 1_565 S
H624 C617 0.969 . S
H625 C617 0.960 . S
H626 C618 0.930 . S
H627 C619 0.929 . S
H628 C636 0.929 . S
H629 C638 0.930 . S
H630 C640 0.930 . S
H631 C643 0.929 . S
H632 C646 0.930 . S
H633 C648 0.960 . S
H634 C648 0.960 . S
H635 C648 0.960 . S
C636 H628 0.929 . S
C636 C637 1.377 . S
C636 C638 1.384 . S
C637 C636 1.377 . S
C637 C643 1.390 . S
C638 H629 0.930 . S
C638 C636 1.384 . S
C638 C639 1.372 . S
C639 C638 1.372 . S
C639 C640 1.400 . S
C639 C644 1.490 . S
C640 H630 0.930 . S
C640 C639 1.400 . S
C640 C643 1.386 . S
H641 C657 0.930 . S
H642 C658 0.931 . S
C643 H631 0.929 . S
C643 C637 1.390 . S
C643 C640 1.386 . S
C644 C639 1.490 . S
C644 C646 1.395 . S
C644 C647 1.403 . S
H645 C651 0.930 . S
C646 H632 0.930 . S
C646 C644 1.395 . S
C646 C649 1.403 . S
C647 C644 1.403 . S
C647 C648 1.524 . S
C647 C651 1.400 . S
C648 H633 0.960 . S
C648 H634 0.960 . S
C648 H635 0.960 . S
C648 C647 1.524 . S
C649 C646 1.403 . S
C649 C650 1.392 . S
C649 C653 1.495 . S
C650 C649 1.392 . S
C650 C651 1.385 . S
C650 C652 1.478 . S
C651 H645 0.930 . S
C651 C647 1.400 . S
C651 C650 1.385 . S
C652 C650 1.478 . S
C652 C654 1.381 . S
C652 C658 1.383 . S
C653 C649 1.495 . S
C653 H659 0.959 . S
C653 H660 0.961 . S
C653 H661 0.960 . S
C654 C652 1.381 . S
C654 C655 1.394 . S
C654 H662 0.930 . S
C655 C654 1.394 . S
C655 C656 1.383 . S
C655 H663 0.929 . S
C656 C655 1.383 . S
C656 C657 1.377 . S
C657 H641 0.930 . S
C657 C656 1.377 . S
C657 C658 1.379 . S
C658 H642 0.931 . S
C658 C652 1.383 . S
C658 C657 1.379 . S
H659 C653 0.959 . S
H660 C653 0.961 . S
H661 C653 0.960 . S
H662 C654 0.930 . S
H663 C655 0.929 . S
H664 C672 0.929 . S
H665 C674 0.930 . S
H666 C676 0.930 . S
H667 C679 0.929 . S
H668 C682 0.930 . S
H669 C684 0.960 . S
H670 C684 0.960 . S
H671 C684 0.960 . S
C672 H664 0.929 . S
C672 C673 1.377 . S
C672 C674 1.384 . S
C673 C672 1.377 . S
C673 C679 1.390 . S
C674 H665 0.930 . S
C674 C672 1.384 . S
C674 C675 1.372 . S
C675 C674 1.372 . S
C675 C676 1.400 . S
C675 C680 1.490 . S
C676 H666 0.930 . S
C676 C675 1.400 . S
C676 C679 1.386 . S
H677 C693 0.930 . S
H678 C694 0.931 . S
C679 H667 0.929 . S
C679 C673 1.390 . S
C679 C676 1.386 . S
C680 C675 1.490 . S
C680 C682 1.395 . S
C680 C683 1.403 1_565 S
H681 C687 0.930 . S
C682 H668 0.930 . S
C682 C680 1.395 . S
C682 C685 1.403 . S
C683 C680 1.403 1_545 S
C683 C684 1.524 . S
C683 C687 1.400 . S
C684 H669 0.960 . S
C684 H670 0.960 . S
C684 H671 0.960 . S
C684 C683 1.524 . S
C685 C682 1.403 . S
C685 C686 1.392 1_565 S
C685 C689 1.495 . S
C686 C685 1.392 1_545 S
C686 C687 1.385 . S
C686 C688 1.478 . S
C687 H681 0.930 . S
C687 C683 1.400 . S
C687 C686 1.385 . S
C688 C686 1.478 . S
C688 C690 1.381 . S
C688 C694 1.383 . S
C689 C685 1.495 . S
C689 H695 0.959 . S
C689 H696 0.961 . S
C689 H697 0.960 . S
C690 C688 1.381 . S
C690 C691 1.394 . S
C690 H698 0.930 . S
C691 C690 1.394 . S
C691 C692 1.383 . S
C691 H699 0.929 . S
C692 C691 1.383 . S
C692 C693 1.377 . S
C693 H677 0.930 . S
C693 C692 1.377 . S
C693 C694 1.379 . S
C694 H678 0.931 . S
C694 C688 1.383 . S
C694 C693 1.379 . S
H695 C689 0.959 . S
H696 C689 0.961 . S
H697 C689 0.960 . S
H698 C690 0.930 . S
H699 C691 0.929 . S
H700 C708 0.929 . S
H701 C710 0.930 . S
H702 C712 0.930 . S
H703 C715 0.929 . S
H704 C718 0.930 . S
H705 C720 0.960 1_554 S
H706 C720 0.960 . S
H707 C720 0.965 . S
C708 H700 0.929 . S
C708 C709 1.377 . S
C708 C710 1.384 . S
C709 C708 1.377 . S
C709 C715 1.390 . S
C710 H701 0.930 . S
C710 C708 1.384 . S
C710 C711 1.372 . S
C711 C710 1.372 . S
C711 C712 1.400 . S
C711 C716 1.490 . S
C712 H702 0.930 . S
C712 C711 1.400 . S
C712 C715 1.386 . S
H713 C729 0.930 . S
H714 C730 0.931 . S
C715 H703 0.929 . S
C715 C709 1.390 . S
C715 C712 1.386 . S
C716 C711 1.490 . S
C716 C718 1.395 . S
C716 C719 1.403 . S
H717 C723 0.930 . S
C718 H704 0.930 . S
C718 C716 1.395 . S
C718 C721 1.426 . S
C719 C716 1.403 . S
C719 C720 1.524 . S
C719 C723 1.400 1_556 S
C720 H705 0.960 1_556 S
C720 H706 0.960 . S
C720 H707 0.965 . S
C720 C719 1.524 . S
C721 C718 1.426 . S
C721 C722 1.371 1_556 S
C721 C725 1.495 . S
C722 C721 1.371 1_554 S
C722 C723 1.385 . S
C722 C724 1.478 . S
C723 H717 0.930 . S
C723 C719 1.400 1_554 S
C723 C722 1.385 . S
C724 C722 1.478 . S
C724 C726 1.381 . S
C724 C730 1.383 . S
C725 C721 1.495 . S
C725 H731 0.972 . S
C725 H732 0.946 1_556 S
C725 H733 0.962 . S
C726 C724 1.381 . S
C726 C727 1.394 . S
C726 H734 0.930 . S
C727 C726 1.394 . S
C727 C728 1.383 . S
C727 H735 0.929 . S
C728 C727 1.383 . S
C728 C729 1.377 . S
C729 H713 0.930 . S
C729 C728 1.377 . S
C729 C730 1.379 . S
C730 H714 0.931 . S
C730 C724 1.383 . S
C730 C729 1.379 . S
H731 C725 0.972 . S
H732 C725 0.946 1_554 S
H733 C725 0.962 . S
H734 C726 0.930 . S
H735 C727 0.929 . S
H736 C744 0.929 . S
H737 C746 0.930 . S
H738 C748 0.930 . S
H739 C751 0.929 . S
H740 C754 0.930 . S
H741 C756 0.960 . S
H742 C756 0.960 . S
H743 C756 0.960 . S
C744 H736 0.929 . S
C744 C745 1.377 . S
C744 C746 1.384 . S
C745 C744 1.377 . S
C745 C751 1.390 . S
C746 H737 0.930 . S
C746 C744 1.384 . S
C746 C747 1.372 . S
C747 C746 1.372 . S
C747 C748 1.400 . S
C747 C752 1.490 . S
C748 H738 0.930 . S
C748 C747 1.400 . S
C748 C751 1.386 . S
H749 C765 0.930 . S
H750 C766 0.931 . S
C751 H739 0.929 . S
C751 C745 1.390 . S
C751 C748 1.386 . S
C752 C747 1.490 . S
C752 C754 1.395 . S
C752 C755 1.403 . S
H753 C759 0.930 . S
C754 H740 0.930 . S
C754 C752 1.395 . S
C754 C757 1.403 . S
C755 C752 1.403 . S
C755 C756 1.524 . S
C755 C759 1.400 . S
C756 H741 0.960 . S
C756 H742 0.960 . S
C756 H743 0.960 . S
C756 C755 1.524 . S
C757 C754 1.403 . S
C757 C758 1.392 . S
C757 C761 1.495 . S
C758 C757 1.392 . S
C758 C759 1.385 . S
C758 C760 1.478 . S
C759 H753 0.930 . S
C759 C755 1.400 . S
C759 C758 1.385 . S
C760 C758 1.478 . S
C760 C762 1.381 . S
C760 C766 1.383 . S
C761 C757 1.495 . S
C761 H767 0.959 . S
C761 H768 0.961 . S
C761 H769 0.960 . S
C762 C760 1.381 . S
C762 C763 1.394 . S
C762 H770 0.930 . S
C763 C762 1.394 . S
C763 C764 1.383 . S
C763 H771 0.929 . S
C764 C763 1.383 . S
C764 C765 1.377 . S
C765 H749 0.930 . S
C765 C764 1.377 . S
C765 C766 1.379 . S
C766 H750 0.931 . S
C766 C760 1.383 . S
C766 C765 1.379 . S
H767 C761 0.959 . S
H768 C761 0.961 . S
H769 C761 0.960 . S
H770 C762 0.930 . S
H771 C763 0.929 . S
H772 C780 0.929 . S
H773 C782 0.930 . S
H774 C784 0.930 . S
H775 C787 0.929 . S
H776 C790 0.930 . S
H777 C792 0.960 . S
H778 C792 0.960 . S
H779 C792 0.960 . S
C780 H772 0.929 . S
C780 C781 1.377 . S
C780 C782 1.384 . S
C781 C780 1.377 . S
C781 C787 1.390 . S
C782 H773 0.930 . S
C782 C780 1.384 . S
C782 C783 1.372 . S
C783 C782 1.372 . S
C783 C784 1.400 . S
C783 C788 1.490 . S
C784 H774 0.930 . S
C784 C783 1.400 . S
C784 C787 1.386 . S
H785 C801 0.930 . S
H786 C802 0.931 . S
C787 H775 0.929 . S
C787 C781 1.390 . S
C787 C784 1.386 . S
C788 C783 1.490 . S
C788 C790 1.395 . S
C788 C791 1.403 1_556 S
H789 C795 0.930 . S
C790 H776 0.930 . S
C790 C788 1.395 . S
C790 C793 1.403 . S
C791 C788 1.403 1_554 S
C791 C792 1.524 . S
C791 C795 1.400 . S
C792 H777 0.960 . S
C792 H778 0.960 . S
C792 H779 0.960 . S
C792 C791 1.524 . S
C793 C790 1.403 . S
C793 C794 1.392 1_556 S
C793 C797 1.495 . S
C794 C793 1.392 1_554 S
C794 C795 1.385 . S
C794 C796 1.478 . S
C795 H789 0.930 . S
C795 C791 1.400 . S
C795 C794 1.385 . S
C796 C794 1.478 . S
C796 C798 1.381 . S
C796 C802 1.383 . S
C797 C793 1.495 . S
C797 H803 0.959 . S
C797 H804 0.961 . S
C797 H805 0.960 . S
C798 C796 1.381 . S
C798 C799 1.394 . S
C798 H806 0.930 . S
C799 C798 1.394 . S
C799 C800 1.383 . S
C799 H807 0.929 . S
C800 C799 1.383 . S
C800 C801 1.377 . S
C801 H785 0.930 . S
C801 C800 1.377 . S
C801 C802 1.379 . S
C802 H786 0.931 . S
C802 C796 1.383 . S
C802 C801 1.379 . S
H803 C797 0.959 . S
H804 C797 0.961 . S
H805 C797 0.960 . S
H806 C798 0.930 . S
H807 C799 0.929 . S
H808 C816 0.929 . S
H809 C818 0.930 . S
H810 C820 0.930 . S
H811 C823 0.929 . S
H812 C826 0.930 . S
H813 C828 0.960 . S
H814 C828 0.960 . S
H815 C828 0.960 . S
C816 H808 0.929 . S
C816 C817 1.377 . S
C816 C818 1.384 . S
C817 C816 1.377 . S
C817 C823 1.390 . S
C818 H809 0.930 . S
C818 C816 1.384 . S
C818 C819 1.372 . S
C819 C818 1.372 . S
C819 C820 1.400 . S
C819 C824 1.490 . S
C820 H810 0.930 . S
C820 C819 1.400 . S
C820 C823 1.386 . S
H821 C837 0.930 . S
H822 C838 0.931 . S
C823 H811 0.929 . S
C823 C817 1.390 . S
C823 C820 1.386 . S
C824 C819 1.490 . S
C824 C826 1.395 . S
C824 C827 1.403 . S
H825 C831 0.930 . S
C826 H812 0.930 . S
C826 C824 1.395 . S
C826 C829 1.403 . S
C827 C824 1.403 . S
C827 C828 1.524 . S
C827 C831 1.400 . S
C828 H813 0.960 . S
C828 H814 0.960 . S
C828 H815 0.960 . S
C828 C827 1.524 . S
C829 C826 1.403 . S
C829 C830 1.392 . S
C829 C833 1.495 . S
C830 C829 1.392 . S
C830 C831 1.385 . S
C830 C832 1.478 . S
C831 H825 0.930 . S
C831 C827 1.400 . S
C831 C830 1.385 . S
C832 C830 1.478 . S
C832 C834 1.381 . S
C832 C838 1.383 . S
C833 C829 1.495 . S
C833 H839 0.959 . S
C833 H840 0.961 . S
C833 H841 0.960 . S
C834 C832 1.381 . S
C834 C835 1.394 . S
C834 H842 0.930 . S
C835 C834 1.394 . S
C835 C836 1.383 . S
C835 H843 0.929 . S
C836 C835 1.383 . S
C836 C837 1.377 . S
C837 H821 0.930 . S
C837 C836 1.377 . S
C837 C838 1.379 . S
C838 H822 0.931 . S
C838 C832 1.383 . S
C838 C837 1.379 . S
H839 C833 0.959 . S
H840 C833 0.961 . S
H841 C833 0.960 . S
H842 C834 0.930 . S
H843 C835 0.929 . S
H844 C852 0.929 . S
H845 C854 0.930 . S
H846 C856 0.930 . S
H847 C859 0.929 . S
H848 C862 0.930 . S
H849 C864 0.960 . S
H850 C864 0.960 . S
H851 C864 0.960 . S
C852 H844 0.929 . S
C852 C853 1.377 . S
C852 C854 1.384 . S
C853 C852 1.377 . S
C853 C859 1.390 . S
C854 H845 0.930 . S
C854 C852 1.384 . S
C854 C855 1.372 . S
C855 C854 1.372 . S
C855 C856 1.400 . S
C855 C860 1.490 . S
C856 H846 0.930 . S
C856 C855 1.400 . S
C856 C859 1.386 . S
H857 C873 0.930 . S
H858 C874 0.931 . S
C859 H847 0.929 . S
C859 C853 1.390 . S
C859 C856 1.386 . S
C860 C855 1.490 . S
C860 C862 1.395 . S
C860 C863 1.403 . S
H861 C867 0.930 . S
C862 H848 0.930 . S
C862 C860 1.395 . S
C862 C865 1.403 . S
C863 C860 1.403 . S
C863 C864 1.524 . S
C863 C867 1.400 . S
C864 H849 0.960 . S
C864 H850 0.960 . S
C864 H851 0.960 . S
C864 C863 1.524 . S
C865 C862 1.403 . S
C865 C866 1.392 . S
C865 C869 1.495 . S
C866 C865 1.392 . S
C866 C867 1.385 . S
C866 C868 1.478 . S
C867 H861 0.930 . S
C867 C863 1.400 . S
C867 C866 1.385 . S
C868 C866 1.478 . S
C868 C870 1.381 . S
C868 C874 1.383 . S
C869 C865 1.495 . S
C869 H875 0.959 . S
C869 H876 0.961 . S
C869 H877 0.960 . S
C870 C868 1.381 . S
C870 C871 1.394 . S
C870 H878 0.930 . S
C871 C870 1.394 . S
C871 C872 1.383 . S
C871 H879 0.929 . S
C872 C871 1.383 . S
C872 C873 1.377 . S
C873 H857 0.930 . S
C873 C872 1.377 . S
C873 C874 1.379 . S
C874 H858 0.931 . S
C874 C868 1.383 . S
C874 C873 1.379 . S
H875 C869 0.959 . S
H876 C869 0.961 . S
H877 C869 0.960 . S
H878 C870 0.930 . S
H879 C871 0.929 . S
H880 C888 0.929 . S
H881 C890 0.930 . S
H882 C892 0.930 . S
H883 C895 0.929 . S
H884 C898 0.930 . S
H885 C900 0.960 . S
H886 C900 0.960 . S
H887 C900 0.960 . S
C888 H880 0.929 . S
C888 C889 1.377 . S
C888 C890 1.384 . S
C889 C888 1.377 . S
C889 C895 1.390 . S
C890 H881 0.930 . S
C890 C888 1.384 . S
C890 C891 1.372 . S
C891 C890 1.372 . S
C891 C892 1.400 . S
C891 C896 1.490 . S
C892 H882 0.930 . S
C892 C891 1.400 . S
C892 C895 1.386 . S
H893 C909 0.930 . S
H894 C910 0.931 . S
C895 H883 0.929 . S
C895 C889 1.390 . S
C895 C892 1.386 . S
C896 C891 1.490 . S
C896 C898 1.395 . S
C896 C899 1.403 . S
H897 C903 0.930 . S
C898 H884 0.930 . S
C898 C896 1.395 . S
C898 C901 1.403 . S
C899 C896 1.403 . S
C899 C900 1.524 . S
C899 C903 1.400 . S
C900 H885 0.960 . S
C900 H886 0.960 . S
C900 H887 0.960 . S
C900 C899 1.524 . S
C901 C898 1.403 . S
C901 C902 1.392 . S
C901 C905 1.495 . S
C902 C901 1.392 . S
C902 C903 1.385 . S
C902 C904 1.478 . S
C903 H897 0.930 . S
C903 C899 1.400 . S
C903 C902 1.385 . S
C904 C902 1.478 . S
C904 C906 1.381 . S
C904 C910 1.383 . S
C905 C901 1.495 . S
C905 H911 0.959 . S
C905 H912 0.961 . S
C905 H913 0.960 . S
C906 C904 1.381 . S
C906 C907 1.394 . S
C906 H914 0.930 . S
C907 C906 1.394 . S
C907 C908 1.383 . S
C907 H915 0.929 . S
C908 C907 1.383 . S
C908 C909 1.377 . S
C909 H893 0.930 . S
C909 C908 1.377 . S
C909 C910 1.379 . S
C910 H894 0.931 . S
C910 C904 1.383 . S
C910 C909 1.379 . S
H911 C905 0.959 . S
H912 C905 0.961 . S
H913 C905 0.960 . S
H914 C906 0.930 . S
H915 C907 0.929 . S
H916 C924 0.929 . S
H917 C926 0.930 . S
H918 C928 0.930 . S
H919 C931 0.929 . S
H920 C934 0.930 . S
H921 C936 0.960 . S
H922 C936 0.960 . S
H923 C936 0.960 . S
C924 H916 0.929 . S
C924 C925 1.377 . S
C924 C926 1.384 . S
C925 C924 1.377 . S
C925 C931 1.390 . S
C926 H917 0.930 . S
C926 C924 1.384 . S
C926 C927 1.372 . S
C927 C926 1.372 . S
C927 C928 1.400 . S
C927 C932 1.490 . S
C928 H918 0.930 . S
C928 C927 1.400 . S
C928 C931 1.386 . S
H929 C945 0.930 . S
H930 C946 0.931 . S
C931 H919 0.929 . S
C931 C925 1.390 . S
C931 C928 1.386 . S
C932 C927 1.490 . S
C932 C934 1.395 . S
C932 C935 1.403 1_554 S
H933 C939 0.930 . S
C934 H920 0.930 . S
C934 C932 1.395 . S
C934 C937 1.403 . S
C935 C932 1.403 1_556 S
C935 C936 1.524 . S
C935 C939 1.400 . S
C936 H921 0.960 . S
C936 H922 0.960 . S
C936 H923 0.960 . S
C936 C935 1.524 . S
C937 C934 1.403 . S
C937 C938 1.392 1_554 S
C937 C941 1.495 . S
C938 C937 1.392 1_556 S
C938 C939 1.385 . S
C938 C940 1.478 . S
C939 H933 0.930 . S
C939 C935 1.400 . S
C939 C938 1.385 . S
C940 C938 1.478 . S
C940 C942 1.381 . S
C940 C946 1.383 . S
C941 C937 1.495 . S
C941 H947 0.959 . S
C941 H948 0.961 . S
C941 H949 0.960 . S
C942 C940 1.381 . S
C942 C943 1.394 . S
C942 H950 0.930 . S
C943 C942 1.394 . S
C943 C944 1.383 . S
C943 H951 0.929 . S
C944 C943 1.383 . S
C944 C945 1.377 . S
C945 H929 0.930 . S
C945 C944 1.377 . S
C945 C946 1.379 . S
C946 H930 0.931 . S
C946 C940 1.383 . S
C946 C945 1.379 . S
H947 C941 0.959 . S
H948 C941 0.961 . S
H949 C941 0.960 . S
H950 C942 0.930 . S
H951 C943 0.929 . S
H952 C960 0.929 . S
H953 C962 0.930 . S
H954 C964 0.930 . S
H955 C967 0.929 . S
H956 C970 0.930 . S
H957 C972 0.960 . S
H958 C972 0.960 . S
H959 C972 0.960 . S
C960 H952 0.929 . S
C960 C961 1.377 . S
C960 C962 1.384 . S
C961 C960 1.377 . S
C961 C967 1.390 . S
C962 H953 0.930 . S
C962 C960 1.384 . S
C962 C963 1.372 . S
C963 C962 1.372 . S
C963 C964 1.400 . S
C963 C968 1.490 . S
C964 H954 0.930 . S
C964 C963 1.400 . S
C964 C967 1.386 . S
H965 C981 0.930 . S
H966 C982 0.931 . S
C967 H955 0.929 . S
C967 C961 1.390 . S
C967 C964 1.386 . S
C968 C963 1.490 . S
C968 C970 1.395 . S
C968 C971 1.403 . S
H969 C975 0.930 . S
C970 H956 0.930 . S
C970 C968 1.395 . S
C970 C973 1.403 . S
C971 C968 1.403 . S
C971 C972 1.524 . S
C971 C975 1.400 . S
C972 H957 0.960 . S
C972 H958 0.960 . S
C972 H959 0.960 . S
C972 C971 1.524 . S
C973 C970 1.403 . S
C973 C974 1.392 . S
C973 C977 1.495 . S
C974 C973 1.392 . S
C974 C975 1.385 . S
C974 C976 1.478 . S
C975 H969 0.930 . S
C975 C971 1.400 . S
C975 C974 1.385 . S
C976 C974 1.478 . S
C976 C978 1.381 . S
C976 C982 1.383 . S
C977 C973 1.495 . S
C977 H983 0.959 . S
C977 H984 0.961 . S
C977 H985 0.960 . S
C978 C976 1.381 . S
C978 C979 1.394 . S
C978 H986 0.930 . S
C979 C978 1.394 . S
C979 C980 1.383 . S
C979 H987 0.929 . S
C980 C979 1.383 . S
C980 C981 1.377 . S
C981 H965 0.930 . S
C981 C980 1.377 . S
C981 C982 1.379 . S
C982 H966 0.931 . S
C982 C976 1.383 . S
C982 C981 1.379 . S
H983 C977 0.959 . S
H984 C977 0.961 . S
H985 C977 0.960 . S
H986 C978 0.930 . S
H987 C979 0.929 . S
H988 C996 0.929 . S
H989 C998 0.930 . S
H990 C1000 0.930 . S
H991 C1003 0.929 . S
H992 C1006 0.930 . S
H993 C1008 0.960 . S
H994 C1008 0.960 . S
H995 C1008 0.960 . S
C996 H988 0.929 . S
C996 C997 1.377 . S
C996 C998 1.384 . S
C997 C996 1.377 . S
C997 C1003 1.390 . S
C998 H989 0.930 . S
C998 C996 1.384 . S
C998 C999 1.372 . S
C999 C998 1.372 . S
C999 C1000 1.400 . S
C999 C1004 1.490 . S
C1000 H990 0.930 . S
C1000 C999 1.400 . S
C1000 C1003 1.386 . S
H1001 C1017 0.930 . S
H1002 C1018 0.931 . S
C1003 H991 0.929 . S
C1003 C997 1.390 . S
C1003 C1000 1.386 . S
C1004 C999 1.490 . S
C1004 C1006 1.395 . S
C1004 C1007 1.403 . S
H1005 C1011 0.930 . S
C1006 H992 0.930 . S
C1006 C1004 1.395 . S
C1006 C1009 1.403 . S
C1007 C1004 1.403 . S
C1007 C1008 1.524 . S
C1007 C1011 1.400 . S
C1008 H993 0.960 . S
C1008 H994 0.960 . S
C1008 H995 0.960 . S
C1008 C1007 1.524 . S
C1009 C1006 1.403 . S
C1009 C1010 1.392 . S
C1009 C1013 1.495 . S
C1010 C1009 1.392 . S
C1010 C1011 1.385 . S
C1010 C1012 1.478 . S
C1011 H1005 0.930 . S
C1011 C1007 1.400 . S
C1011 C1010 1.385 . S
C1012 C1010 1.478 . S
C1012 C1014 1.381 . S
C1012 C1018 1.383 . S
C1013 C1009 1.495 . S
C1013 H1019 0.959 . S
C1013 H1020 0.961 . S
C1013 H1021 0.960 . S
C1014 C1012 1.381 . S
C1014 C1015 1.394 . S
C1014 H1022 0.930 . S
C1015 C1014 1.394 . S
C1015 C1016 1.383 . S
C1015 H1023 0.929 . S
C1016 C1015 1.383 . S
C1016 C1017 1.377 . S
C1017 H1001 0.930 . S
C1017 C1016 1.377 . S
C1017 C1018 1.379 . S
C1018 H1002 0.931 . S
C1018 C1012 1.383 . S
C1018 C1017 1.379 . S
H1019 C1013 0.959 . S
H1020 C1013 0.961 . S
H1021 C1013 0.960 . S
H1022 C1014 0.930 . S
H1023 C1015 0.929 . S
H1024 C1032 0.929 . S
H1025 C1034 0.930 . S
H1026 C1036 0.930 . S
H1027 C1039 0.929 . S
H1028 C1042 0.930 . S
H1029 C1044 0.960 . S
H1030 C1044 0.960 . S
H1031 C1044 0.960 . S
C1032 H1024 0.929 . S
C1032 C1033 1.377 . S
C1032 C1034 1.384 . S
C1033 C1032 1.377 . S
C1033 C1039 1.390 . S
C1034 H1025 0.930 . S
C1034 C1032 1.384 . S
C1034 C1035 1.372 . S
C1035 C1034 1.372 . S
C1035 C1036 1.400 . S
C1035 C1040 1.490 . S
C1036 H1026 0.930 . S
C1036 C1035 1.400 . S
C1036 C1039 1.386 . S
H1037 C1053 0.930 . S
H1038 C1054 0.931 . S
C1039 H1027 0.929 . S
C1039 C1033 1.390 . S
C1039 C1036 1.386 . S
C1040 C1035 1.490 . S
C1040 C1042 1.395 . S
C1040 C1043 1.403 . S
H1041 C1047 0.930 . S
C1042 H1028 0.930 . S
C1042 C1040 1.395 . S
C1042 C1045 1.403 . S
C1043 C1040 1.403 . S
C1043 C1044 1.524 . S
C1043 C1047 1.400 . S
C1044 H1029 0.960 . S
C1044 H1030 0.960 . S
C1044 H1031 0.960 . S
C1044 C1043 1.524 . S
C1045 C1042 1.403 . S
C1045 C1046 1.392 . S
C1045 C1049 1.495 . S
C1046 C1045 1.392 . S
C1046 C1047 1.385 . S
C1046 C1048 1.478 . S
C1047 H1041 0.930 . S
C1047 C1043 1.400 . S
C1047 C1046 1.385 . S
C1048 C1046 1.478 . S
C1048 C1050 1.381 . S
C1048 C1054 1.383 . S
C1049 C1045 1.495 . S
C1049 H1055 0.959 . S
C1049 H1056 0.961 . S
C1049 H1057 0.960 . S
C1050 C1048 1.381 . S
C1050 C1051 1.394 . S
C1050 H1058 0.930 . S
C1051 C1050 1.394 . S
C1051 C1052 1.383 . S
C1051 H1059 0.929 . S
C1052 C1051 1.383 . S
C1052 C1053 1.377 . S
C1053 H1037 0.930 . S
C1053 C1052 1.377 . S
C1053 C1054 1.379 . S
C1054 H1038 0.931 . S
C1054 C1048 1.383 . S
C1054 C1053 1.379 . S
H1055 C1049 0.959 . S
H1056 C1049 0.961 . S
H1057 C1049 0.960 . S
H1058 C1050 0.930 . S
H1059 C1051 0.929 . S
H1060 C1068 0.929 . S
H1061 C1070 0.930 . S
H1062 C1072 0.930 . S
H1063 C1075 0.929 . S
H1064 C1078 0.930 . S
H1065 C1080 0.960 . S
H1066 C1080 0.960 1_655 S
H1067 C1080 0.960 1_655 S
C1068 H1060 0.929 . S
C1068 C1069 1.377 . S
C1068 C1070 1.384 . S
C1069 C1068 1.377 . S
C1069 C1075 1.390 . S
C1070 H1061 0.930 . S
C1070 C1068 1.384 . S
C1070 C1071 1.372 . S
C1071 C1070 1.372 . S
C1071 C1072 1.400 . S
C1071 C1076 1.490 1_655 S
C1072 H1062 0.930 . S
C1072 C1071 1.400 . S
C1072 C1075 1.386 . S
H1073 C1089 0.930 . S
H1074 C1090 0.931 . S
C1075 H1063 0.929 . S
C1075 C1069 1.390 . S
C1075 C1072 1.386 . S
C1076 C1071 1.490 1_455 S
C1076 C1078 1.395 . S
C1076 C1079 1.403 . S
H1077 C1083 0.930 . S
C1078 H1064 0.930 . S
C1078 C1076 1.395 . S
C1078 C1081 1.403 . S
C1079 C1076 1.403 . S
C1079 C1080 1.524 . S
C1079 C1083 1.400 . S
C1080 H1065 0.960 . S
C1080 H1066 0.960 1_455 S
C1080 H1067 0.960 1_455 S
C1080 C1079 1.524 . S
C1081 C1078 1.403 . S
C1081 C1082 1.392 . S
C1081 C1085 1.495 . S
C1082 C1081 1.392 . S
C1082 C1083 1.385 . S
C1082 C1084 1.478 . S
C1083 H1077 0.930 . S
C1083 C1079 1.400 . S
C1083 C1082 1.385 . S
C1084 C1082 1.478 . S
C1084 C1086 1.381 . S
C1084 C1090 1.383 . S
C1085 C1081 1.495 . S
C1085 H1091 0.959 . S
C1085 H1092 0.961 . S
C1085 H1093 0.960 . S
C1086 C1084 1.381 . S
C1086 C1087 1.394 . S
C1086 H1094 0.930 . S
C1087 C1086 1.394 . S
C1087 C1088 1.383 . S
C1087 H1095 0.929 . S
C1088 C1087 1.383 . S
C1088 C1089 1.377 . S
C1089 H1073 0.930 . S
C1089 C1088 1.377 . S
C1089 C1090 1.379 . S
C1090 H1074 0.931 . S
C1090 C1084 1.383 . S
C1090 C1089 1.379 . S
H1091 C1085 0.959 . S
H1092 C1085 0.961 . S
H1093 C1085 0.960 . S
H1094 C1086 0.930 . S
H1095 C1087 0.929 . S
H1096 C1104 0.929 . S
H1097 C1106 0.930 . S
H1098 C1108 0.930 . S
H1099 C1111 0.929 . S
H1100 C1114 0.930 . S
H1101 C1116 0.960 . S
H1102 C1116 0.960 . S
H1103 C1116 0.960 . S
C1104 H1096 0.929 . S
C1104 C1105 1.377 . S
C1104 C1106 1.384 . S
C1105 C1104 1.377 . S
C1105 C1111 1.390 . S
C1106 H1097 0.930 . S
C1106 C1104 1.384 . S
C1106 C1107 1.372 . S
C1107 C1106 1.372 . S
C1107 C1108 1.400 . S
C1107 C1112 1.490 . S
C1108 H1098 0.930 . S
C1108 C1107 1.400 . S
C1108 C1111 1.386 . S
H1109 C1125 0.930 . S
H1110 C1126 0.931 . S
C1111 H1099 0.929 . S
C1111 C1105 1.390 . S
C1111 C1108 1.386 . S
C1112 C1107 1.490 . S
C1112 C1114 1.395 . S
C1112 C1115 1.403 . S
H1113 C1119 0.930 . S
C1114 H1100 0.930 . S
C1114 C1112 1.395 . S
C1114 C1117 1.403 . S
C1115 C1112 1.403 . S
C1115 C1116 1.524 . S
C1115 C1119 1.400 . S
C1116 H1101 0.960 . S
C1116 H1102 0.960 . S
C1116 H1103 0.960 . S
C1116 C1115 1.524 . S
C1117 C1114 1.403 . S
C1117 C1118 1.392 . S
C1117 C1121 1.495 . S
C1118 C1117 1.392 . S
C1118 C1119 1.385 . S
C1118 C1120 1.478 . S
C1119 H1113 0.930 . S
C1119 C1115 1.400 . S
C1119 C1118 1.385 . S
C1120 C1118 1.478 . S
C1120 C1122 1.381 . S
C1120 C1126 1.383 . S
C1121 C1117 1.495 . S
C1121 H1127 0.959 . S
C1121 H1128 0.961 . S
C1121 H1129 0.960 . S
C1122 C1120 1.381 . S
C1122 C1123 1.394 . S
C1122 H1130 0.930 . S
C1123 C1122 1.394 . S
C1123 C1124 1.383 . S
C1123 H1131 0.929 . S
C1124 C1123 1.383 . S
C1124 C1125 1.377 . S
C1125 H1109 0.930 . S
C1125 C1124 1.377 . S
C1125 C1126 1.379 . S
C1126 H1110 0.931 . S
C1126 C1120 1.383 . S
C1126 C1125 1.379 . S
H1127 C1121 0.959 . S
H1128 C1121 0.961 . S
H1129 C1121 0.960 . S
H1130 C1122 0.930 . S
H1131 C1123 0.929 . S
H1132 C1140 0.929 . S
H1133 C1142 0.930 . S
H1134 C1144 0.930 . S
H1135 C1147 0.929 . S
H1136 C1150 0.930 . S
H1137 C1152 0.960 . S
H1138 C1152 0.960 . S
H1139 C1152 0.960 . S
C1140 H1132 0.929 . S
C1140 C1141 1.377 . S
C1140 C1142 1.384 . S
C1141 C1140 1.377 . S
C1141 C1147 1.390 . S
C1142 H1133 0.930 . S
C1142 C1140 1.384 . S
C1142 C1143 1.372 . S
C1143 C1142 1.372 . S
C1143 C1144 1.400 . S
C1143 C1148 1.490 . S
C1144 H1134 0.930 . S
C1144 C1143 1.400 . S
C1144 C1147 1.386 . S
H1145 C1161 0.930 . S
H1146 C1162 0.931 . S
C1147 H1135 0.929 . S
C1147 C1141 1.390 . S
C1147 C1144 1.386 . S
C1148 C1143 1.490 . S
C1148 C1150 1.395 . S
C1148 C1151 1.403 . S
H1149 C1155 0.930 . S
C1150 H1136 0.930 . S
C1150 C1148 1.395 . S
C1150 C1153 1.403 . S
C1151 C1148 1.403 . S
C1151 C1152 1.524 . S
C1151 C1155 1.400 . S
C1152 H1137 0.960 . S
C1152 H1138 0.960 . S
C1152 H1139 0.960 . S
C1152 C1151 1.524 . S
C1153 C1150 1.403 . S
C1153 C1154 1.392 . S
C1153 C1157 1.495 . S
C1154 C1153 1.392 . S
C1154 C1155 1.385 . S
C1154 C1156 1.478 . S
C1155 H1149 0.930 . S
C1155 C1151 1.400 . S
C1155 C1154 1.385 . S
C1156 C1154 1.478 . S
C1156 C1158 1.381 . S
C1156 C1162 1.383 . S
C1157 C1153 1.495 . S
C1157 H1163 0.959 . S
C1157 H1164 0.961 . S
C1157 H1165 0.960 . S
C1158 C1156 1.381 . S
C1158 C1159 1.394 . S
C1158 H1166 0.930 . S
C1159 C1158 1.394 . S
C1159 C1160 1.383 . S
C1159 H1167 0.929 . S
C1160 C1159 1.383 . S
C1160 C1161 1.377 . S
C1161 H1145 0.930 . S
C1161 C1160 1.377 . S
C1161 C1162 1.379 . S
C1162 H1146 0.931 . S
C1162 C1156 1.383 . S
C1162 C1161 1.379 . S
H1163 C1157 0.959 . S
H1164 C1157 0.961 . S
H1165 C1157 0.960 . S
H1166 C1158 0.930 . S
H1167 C1159 0.929 . S
H1168 C1176 0.929 . S
H1169 C1178 0.930 . S
H1170 C1180 0.930 . S
H1171 C1183 0.929 . S
H1172 C1186 0.930 . S
H1173 C1188 0.960 . S
H1174 C1188 0.960 . S
H1175 C1188 0.960 . S
C1176 H1168 0.929 . S
C1176 C1177 1.377 . S
C1176 C1178 1.384 . S
C1177 C1176 1.377 . S
C1177 C1183 1.390 . S
C1178 H1169 0.930 . S
C1178 C1176 1.384 . S
C1178 C1179 1.372 . S
C1179 C1178 1.372 . S
C1179 C1180 1.400 . S
C1179 C1184 1.490 . S
C1180 H1170 0.930 . S
C1180 C1179 1.400 . S
C1180 C1183 1.386 . S
H1181 C1197 0.930 . S
H1182 C1198 0.931 . S
C1183 H1171 0.929 . S
C1183 C1177 1.390 . S
C1183 C1180 1.386 . S
C1184 C1179 1.490 . S
C1184 C1186 1.395 . S
C1184 C1187 1.403 . S
H1185 C1191 0.930 . S
C1186 H1172 0.930 . S
C1186 C1184 1.395 . S
C1186 C1189 1.403 . S
C1187 C1184 1.403 . S
C1187 C1188 1.524 . S
C1187 C1191 1.400 . S
C1188 H1173 0.960 . S
C1188 H1174 0.960 . S
C1188 H1175 0.960 . S
C1188 C1187 1.524 . S
C1189 C1186 1.403 . S
C1189 C1190 1.392 . S
C1189 C1193 1.495 . S
C1190 C1189 1.392 . S
C1190 C1191 1.385 . S
C1190 C1192 1.478 . S
C1191 H1185 0.930 . S
C1191 C1187 1.400 . S
C1191 C1190 1.385 . S
C1192 C1190 1.478 . S
C1192 C1194 1.381 . S
C1192 C1198 1.383 . S
C1193 C1189 1.495 . S
C1193 H1199 0.959 . S
C1193 H1200 0.961 . S
C1193 H1201 0.960 . S
C1194 C1192 1.381 . S
C1194 C1195 1.394 . S
C1194 H1202 0.930 . S
C1195 C1194 1.394 . S
C1195 C1196 1.383 . S
C1195 H1203 0.929 . S
C1196 C1195 1.383 . S
C1196 C1197 1.377 . S
C1197 H1181 0.930 . S
C1197 C1196 1.377 . S
C1197 C1198 1.379 . S
C1198 H1182 0.931 . S
C1198 C1192 1.383 . S
C1198 C1197 1.379 . S
H1199 C1193 0.959 . S
H1200 C1193 0.961 . S
H1201 C1193 0.960 . S
H1202 C1194 0.930 . S
H1203 C1195 0.929 . S
H1204 C1212 0.929 . S
H1205 C1214 0.930 . S
H1206 C1216 0.930 . S
H1207 C1219 0.929 . S
H1208 C1222 0.930 . S
H1209 C1224 0.960 . S
H1210 C1224 0.960 . S
H1211 C1224 0.960 . S
C1212 H1204 0.929 . S
C1212 C1213 1.377 . S
C1212 C1214 1.384 . S
C1213 C1212 1.377 . S
C1213 C1219 1.390 . S
C1214 H1205 0.930 . S
C1214 C1212 1.384 . S
C1214 C1215 1.372 . S
C1215 C1214 1.372 . S
C1215 C1216 1.400 . S
C1215 C1220 1.490 . S
C1216 H1206 0.930 . S
C1216 C1215 1.400 . S
C1216 C1219 1.386 . S
H1217 C1233 0.930 . S
H1218 C1234 0.931 . S
C1219 H1207 0.929 . S
C1219 C1213 1.390 . S
C1219 C1216 1.386 . S
C1220 C1215 1.490 . S
C1220 C1222 1.395 . S
C1220 C1223 1.403 . S
H1221 C1227 0.930 . S
C1222 H1208 0.930 . S
C1222 C1220 1.395 . S
C1222 C1225 1.403 . S
C1223 C1220 1.403 . S
C1223 C1224 1.524 . S
C1223 C1227 1.400 . S
C1224 H1209 0.960 . S
C1224 H1210 0.960 . S
C1224 H1211 0.960 . S
C1224 C1223 1.524 . S
C1225 C1222 1.403 . S
C1225 C1226 1.392 . S
C1225 C1229 1.495 . S
C1226 C1225 1.392 . S
C1226 C1227 1.385 . S
C1226 C1228 1.478 . S
C1227 H1221 0.930 . S
C1227 C1223 1.400 . S
C1227 C1226 1.385 . S
C1228 C1226 1.478 . S
C1228 C1230 1.381 . S
C1228 C1234 1.383 . S
C1229 C1225 1.495 . S
C1229 H1235 0.959 . S
C1229 H1236 0.961 . S
C1229 H1237 0.960 . S
C1230 C1228 1.381 . S
C1230 C1231 1.394 . S
C1230 H1238 0.930 . S
C1231 C1230 1.394 . S
C1231 C1232 1.383 . S
C1231 H1239 0.929 . S
C1232 C1231 1.383 . S
C1232 C1233 1.377 . S
C1233 H1217 0.930 . S
C1233 C1232 1.377 . S
C1233 C1234 1.379 . S
C1234 H1218 0.931 . S
C1234 C1228 1.383 . S
C1234 C1233 1.379 . S
H1235 C1229 0.959 . S
H1236 C1229 0.961 . S
H1237 C1229 0.960 . S
H1238 C1230 0.930 . S
H1239 C1231 0.929 . S
H1240 C1248 0.929 . S
H1241 C1250 0.930 . S
H1242 C1252 0.930 . S
H1243 C1255 0.929 . S
H1244 C1258 0.930 . S
H1245 C1260 0.960 . S
H1246 C1260 0.960 . S
H1247 C1260 0.960 . S
C1248 H1240 0.929 . S
C1248 C1249 1.377 . S
C1248 C1250 1.384 . S
C1249 C1248 1.377 . S
C1249 C1255 1.390 . S
C1250 H1241 0.930 . S
C1250 C1248 1.384 . S
C1250 C1251 1.372 . S
C1251 C1250 1.372 . S
C1251 C1252 1.400 . S
C1251 C1256 1.490 . S
C1252 H1242 0.930 . S
C1252 C1251 1.400 . S
C1252 C1255 1.386 . S
H1253 C1269 0.930 . S
H1254 C1270 0.931 . S
C1255 H1243 0.929 . S
C1255 C1249 1.390 . S
C1255 C1252 1.386 . S
C1256 C1251 1.490 . S
C1256 C1258 1.395 . S
C1256 C1259 1.403 . S
H1257 C1263 0.930 . S
C1258 H1244 0.930 . S
C1258 C1256 1.395 . S
C1258 C1261 1.403 . S
C1259 C1256 1.403 . S
C1259 C1260 1.524 . S
C1259 C1263 1.400 . S
C1260 H1245 0.960 . S
C1260 H1246 0.960 . S
C1260 H1247 0.960 . S
C1260 C1259 1.524 . S
C1261 C1258 1.403 . S
C1261 C1262 1.392 . S
C1261 C1265 1.495 . S
C1262 C1261 1.392 . S
C1262 C1263 1.385 . S
C1262 C1264 1.478 . S
C1263 H1257 0.930 . S
C1263 C1259 1.400 . S
C1263 C1262 1.385 . S
C1264 C1262 1.478 . S
C1264 C1266 1.381 . S
C1264 C1270 1.383 . S
C1265 C1261 1.495 . S
C1265 H1271 0.959 . S
C1265 H1272 0.961 . S
C1265 H1273 0.960 . S
C1266 C1264 1.381 . S
C1266 C1267 1.394 . S
C1266 H1274 0.930 . S
C1267 C1266 1.394 . S
C1267 C1268 1.383 . S
C1267 H1275 0.929 . S
C1268 C1267 1.383 . S
C1268 C1269 1.377 . S
C1269 H1253 0.930 . S
C1269 C1268 1.377 . S
C1269 C1270 1.379 . S
C1270 H1254 0.931 . S
C1270 C1264 1.383 . S
C1270 C1269 1.379 . S
H1271 C1265 0.959 . S
H1272 C1265 0.961 . S
H1273 C1265 0.960 . S
H1274 C1266 0.930 . S
H1275 C1267 0.929 . S
H1276 C1284 0.929 . S
H1277 C1286 0.930 . S
H1278 C1288 0.930 . S
H1279 C1291 0.929 . S
H1280 C1294 0.930 . S
H1281 C1296 0.960 . S
H1282 C1296 0.960 . S
H1283 C1296 0.960 . S
C1284 H1276 0.929 . S
C1284 C1285 1.377 . S
C1284 C1286 1.384 . S
C1285 C1284 1.377 . S
C1285 C1291 1.390 . S
C1286 H1277 0.930 . S
C1286 C1284 1.384 . S
C1286 C1287 1.372 . S
C1287 C1286 1.372 . S
C1287 C1288 1.400 . S
C1287 C1292 1.490 . S
C1288 H1278 0.930 . S
C1288 C1287 1.400 . S
C1288 C1291 1.386 . S
H1289 C1305 0.930 . S
H1290 C1306 0.931 . S
C1291 H1279 0.929 . S
C1291 C1285 1.390 . S
C1291 C1288 1.386 . S
C1292 C1287 1.490 . S
C1292 C1294 1.395 . S
C1292 C1295 1.403 . S
H1293 C1299 0.930 . S
C1294 H1280 0.930 . S
C1294 C1292 1.395 . S
C1294 C1297 1.403 . S
C1295 C1292 1.403 . S
C1295 C1296 1.524 . S
C1295 C1299 1.400 . S
C1296 H1281 0.960 . S
C1296 H1282 0.960 . S
C1296 H1283 0.960 . S
C1296 C1295 1.524 . S
C1297 C1294 1.403 . S
C1297 C1298 1.392 . S
C1297 C1301 1.495 . S
C1298 C1297 1.392 . S
C1298 C1299 1.385 . S
C1298 C1300 1.478 1_455 S
C1299 H1293 0.930 . S
C1299 C1295 1.400 . S
C1299 C1298 1.385 . S
C1300 C1298 1.478 1_655 S
C1300 C1302 1.381 . S
C1300 C1306 1.383 . S
C1301 C1297 1.495 . S
C1301 H1307 0.959 . S
C1301 H1308 0.961 . S
C1301 H1309 0.960 . S
C1302 C1300 1.381 . S
C1302 C1303 1.394 . S
C1302 H1310 0.930 . S
C1303 C1302 1.394 . S
C1303 C1304 1.383 . S
C1303 H1311 0.929 . S
C1304 C1303 1.383 . S
C1304 C1305 1.377 . S
C1305 H1289 0.930 . S
C1305 C1304 1.377 . S
C1305 C1306 1.379 . S
C1306 H1290 0.931 . S
C1306 C1300 1.383 . S
C1306 C1305 1.379 . S
H1307 C1301 0.959 . S
H1308 C1301 0.961 . S
H1309 C1301 0.960 . S
H1310 C1302 0.930 . S
H1311 C1303 0.929 . S
H1312 C1320 0.929 . S
H1313 C1322 0.930 . S
H1314 C1324 0.930 . S
H1315 C1327 0.929 . S
H1316 C1330 0.930 . S
H1317 C1332 0.960 . S
H1318 C1332 0.960 . S
H1319 C1332 0.960 . S
C1320 H1312 0.929 . S
C1320 C1321 1.377 . S
C1320 C1322 1.384 . S
C1321 C1320 1.377 . S
C1321 C1327 1.390 . S
C1322 H1313 0.930 . S
C1322 C1320 1.384 . S
C1322 C1323 1.372 . S
C1323 C1322 1.372 . S
C1323 C1324 1.400 . S
C1323 C1328 1.490 . S
C1324 H1314 0.930 . S
C1324 C1323 1.400 . S
C1324 C1327 1.386 . S
H1325 C1341 0.930 . S
H1326 C1342 0.931 . S
C1327 H1315 0.929 . S
C1327 C1321 1.390 . S
C1327 C1324 1.386 . S
C1328 C1323 1.490 . S
C1328 C1330 1.395 . S
C1328 C1331 1.403 . S
H1329 C1335 0.930 . S
C1330 H1316 0.930 . S
C1330 C1328 1.395 . S
C1330 C1333 1.403 . S
C1331 C1328 1.403 . S
C1331 C1332 1.524 . S
C1331 C1335 1.400 . S
C1332 H1317 0.960 . S
C1332 H1318 0.960 . S
C1332 H1319 0.960 . S
C1332 C1331 1.524 . S
C1333 C1330 1.403 . S
C1333 C1334 1.392 . S
C1333 C1337 1.495 . S
C1334 C1333 1.392 . S
C1334 C1335 1.385 . S
C1334 C1336 1.478 . S
C1335 H1329 0.930 . S
C1335 C1331 1.400 . S
C1335 C1334 1.385 . S
C1336 C1334 1.478 . S
C1336 C1338 1.381 . S
C1336 C1342 1.383 . S
C1337 C1333 1.495 . S
C1337 H1343 0.959 . S
C1337 H1344 0.961 . S
C1337 H1345 0.960 . S
C1338 C1336 1.381 . S
C1338 C1339 1.394 . S
C1338 H1346 0.930 . S
C1339 C1338 1.394 . S
C1339 C1340 1.383 . S
C1339 H1347 0.929 . S
C1340 C1339 1.383 . S
C1340 C1341 1.377 . S
C1341 H1325 0.930 . S
C1341 C1340 1.377 . S
C1341 C1342 1.379 . S
C1342 H1326 0.931 . S
C1342 C1336 1.383 . S
C1342 C1341 1.379 . S
H1343 C1337 0.959 . S
H1344 C1337 0.961 . S
H1345 C1337 0.960 . S
H1346 C1338 0.930 . S
H1347 C1339 0.929 . S
H1348 C1356 0.929 . S
H1349 C1358 0.930 . S
H1350 C1360 0.930 . S
H1351 C1363 0.929 . S
H1352 C1366 0.930 . S
H1353 C1368 0.960 . S
H1354 C1368 0.960 . S
H1355 C1368 0.960 . S
C1356 H1348 0.929 . S
C1356 C1357 1.377 . S
C1356 C1358 1.384 . S
C1357 C1356 1.377 . S
C1357 C1363 1.390 . S
C1358 H1349 0.930 . S
C1358 C1356 1.384 . S
C1358 C1359 1.372 . S
C1359 C1358 1.372 . S
C1359 C1360 1.400 . S
C1359 C1364 1.490 . S
C1360 H1350 0.930 . S
C1360 C1359 1.400 . S
C1360 C1363 1.386 . S
H1361 C1377 0.930 . S
H1362 C1378 0.931 . S
C1363 H1351 0.929 . S
C1363 C1357 1.390 . S
C1363 C1360 1.386 . S
C1364 C1359 1.490 . S
C1364 C1366 1.395 . S
C1364 C1367 1.403 . S
H1365 C1371 0.930 . S
C1366 H1352 0.930 . S
C1366 C1364 1.395 . S
C1366 C1369 1.403 . S
C1367 C1364 1.403 . S
C1367 C1368 1.524 . S
C1367 C1371 1.400 . S
C1368 H1353 0.960 . S
C1368 H1354 0.960 . S
C1368 H1355 0.960 . S
C1368 C1367 1.524 . S
C1369 C1366 1.403 . S
C1369 C1370 1.392 . S
C1369 C1373 1.495 . S
C1370 C1369 1.392 . S
C1370 C1371 1.385 . S
C1370 C1372 1.478 1_655 S
C1371 H1365 0.930 . S
C1371 C1367 1.400 . S
C1371 C1370 1.385 . S
C1372 C1370 1.478 1_455 S
C1372 C1374 1.381 . S
C1372 C1378 1.383 . S
C1373 C1369 1.495 . S
C1373 H1379 0.959 . S
C1373 H1380 0.961 1_655 S
C1373 H1381 0.960 1_655 S
C1374 C1372 1.381 . S
C1374 C1375 1.394 . S
C1374 H1382 0.930 . S
C1375 C1374 1.394 . S
C1375 C1376 1.383 . S
C1375 H1383 0.929 . S
C1376 C1375 1.383 . S
C1376 C1377 1.377 . S
C1377 H1361 0.930 . S
C1377 C1376 1.377 . S
C1377 C1378 1.379 . S
C1378 H1362 0.931 . S
C1378 C1372 1.383 . S
C1378 C1377 1.379 . S
H1379 C1373 0.959 . S
H1380 C1373 0.961 1_455 S
H1381 C1373 0.960 1_455 S
H1382 C1374 0.930 . S
H1383 C1375 0.929 . S
H1384 C1392 0.929 . S
H1385 C1394 0.930 . S
H1386 C1396 0.930 . S
H1387 C1399 0.929 . S
H1388 C1402 0.930 . S
H1389 C1404 0.960 . S
H1390 C1404 0.960 . S
H1391 C1404 0.960 . S
C1392 H1384 0.929 . S
C1392 C1393 1.377 . S
C1392 C1394 1.384 . S
C1393 C1392 1.377 . S
C1393 C1399 1.390 . S
C1394 H1385 0.930 . S
C1394 C1392 1.384 . S
C1394 C1395 1.372 . S
C1395 C1394 1.372 . S
C1395 C1396 1.400 . S
C1395 C1400 1.490 . S
C1396 H1386 0.930 . S
C1396 C1395 1.400 . S
C1396 C1399 1.386 . S
H1397 C1413 0.930 . S
H1398 C1414 0.931 . S
C1399 H1387 0.929 . S
C1399 C1393 1.390 . S
C1399 C1396 1.386 . S
C1400 C1395 1.490 . S
C1400 C1402 1.395 . S
C1400 C1403 1.403 . S
H1401 C1407 0.930 . S
C1402 H1388 0.930 . S
C1402 C1400 1.395 . S
C1402 C1405 1.403 . S
C1403 C1400 1.403 . S
C1403 C1404 1.524 . S
C1403 C1407 1.400 . S
C1404 H1389 0.960 . S
C1404 H1390 0.960 . S
C1404 H1391 0.960 . S
C1404 C1403 1.524 . S
C1405 C1402 1.403 . S
C1405 C1406 1.392 . S
C1405 C1409 1.495 . S
C1406 C1405 1.392 . S
C1406 C1407 1.385 . S
C1406 C1408 1.478 . S
C1407 H1401 0.930 . S
C1407 C1403 1.400 . S
C1407 C1406 1.385 . S
C1408 C1406 1.478 . S
C1408 C1410 1.381 . S
C1408 C1414 1.383 . S
C1409 C1405 1.495 . S
C1409 H1415 0.959 . S
C1409 H1416 0.961 . S
C1409 H1417 0.960 . S
C1410 C1408 1.381 . S
C1410 C1411 1.394 . S
C1410 H1418 0.930 . S
C1411 C1410 1.394 . S
C1411 C1412 1.383 . S
C1411 H1419 0.929 . S
C1412 C1411 1.383 . S
C1412 C1413 1.377 . S
C1413 H1397 0.930 . S
C1413 C1412 1.377 . S
C1413 C1414 1.379 . S
C1414 H1398 0.931 . S
C1414 C1408 1.383 . S
C1414 C1413 1.379 . S
H1415 C1409 0.959 . S
H1416 C1409 0.961 . S
H1417 C1409 0.960 . S
H1418 C1410 0.930 . S
H1419 C1411 0.929 . S
H1420 C1428 0.929 . S
H1421 C1430 0.930 . S
H1422 C1432 0.930 . S
H1423 C1435 0.929 . S
H1424 C1438 0.930 . S
H1425 C1440 0.960 . S
H1426 C1440 0.960 . S
H1427 C1440 0.960 . S
C1428 H1420 0.929 . S
C1428 C1429 1.377 . S
C1428 C1430 1.384 . S
C1429 C1428 1.377 . S
C1429 C1435 1.390 . S
C1430 H1421 0.930 . S
C1430 C1428 1.384 . S
C1430 C1431 1.372 . S
C1431 C1430 1.372 . S
C1431 C1432 1.400 . S
C1431 C1436 1.490 . S
C1432 H1422 0.930 . S
C1432 C1431 1.400 . S
C1432 C1435 1.386 . S
H1433 C1449 0.930 . S
H1434 C1450 0.931 . S
C1435 H1423 0.929 . S
C1435 C1429 1.390 . S
C1435 C1432 1.386 . S
C1436 C1431 1.490 . S
C1436 C1438 1.395 . S
C1436 C1439 1.403 . S
H1437 C1443 0.930 . S
C1438 H1424 0.930 . S
C1438 C1436 1.395 . S
C1438 C1441 1.403 . S
C1439 C1436 1.403 . S
C1439 C1440 1.524 . S
C1439 C1443 1.400 . S
C1440 H1425 0.960 . S
C1440 H1426 0.960 . S
C1440 H1427 0.960 . S
C1440 C1439 1.524 . S
C1441 C1438 1.403 . S
C1441 C1442 1.392 . S
C1441 C1445 1.495 . S
C1442 C1441 1.392 . S
C1442 C1443 1.385 . S
C1442 C1444 1.478 . S
C1443 H1437 0.930 . S
C1443 C1439 1.400 . S
C1443 C1442 1.385 . S
C1444 C1442 1.478 . S
C1444 C1446 1.381 . S
C1444 C1450 1.383 . S
C1445 C1441 1.495 . S
C1445 H1451 0.959 . S
C1445 H1452 0.961 . S
C1445 H1453 0.960 . S
C1446 C1444 1.381 . S
C1446 C1447 1.394 . S
C1446 H1454 0.930 . S
C1447 C1446 1.394 . S
C1447 C1448 1.383 . S
C1447 H1455 0.929 . S
C1448 C1447 1.383 . S
C1448 C1449 1.377 . S
C1449 H1433 0.930 . S
C1449 C1448 1.377 . S
C1449 C1450 1.379 . S
C1450 H1434 0.931 . S
C1450 C1444 1.383 . S
C1450 C1449 1.379 . S
H1451 C1445 0.959 . S
H1452 C1445 0.961 . S
H1453 C1445 0.960 . S
H1454 C1446 0.930 . S
H1455 C1447 0.929 . S
H1456 C1464 0.929 . S
H1457 C1466 0.930 . S
H1458 C1468 0.930 . S
H1459 C1471 0.929 . S
H1460 C1474 0.930 . S
H1461 C1476 0.960 . S
H1462 C1476 0.960 . S
H1463 C1476 0.960 . S
C1464 H1456 0.929 . S
C1464 C1465 1.377 . S
C1464 C1466 1.384 . S
C1465 C1464 1.377 . S
C1465 C1471 1.390 . S
C1466 H1457 0.930 . S
C1466 C1464 1.384 . S
C1466 C1467 1.372 . S
C1467 C1466 1.372 . S
C1467 C1468 1.400 . S
C1467 C1472 1.490 . S
C1468 H1458 0.930 . S
C1468 C1467 1.400 . S
C1468 C1471 1.386 . S
H1469 C1485 0.930 . S
H1470 C1486 0.931 . S
C1471 H1459 0.929 . S
C1471 C1465 1.390 . S
C1471 C1468 1.386 . S
C1472 C1467 1.490 . S
C1472 C1474 1.395 . S
C1472 C1475 1.403 . S
H1473 C1479 0.930 . S
C1474 H1460 0.930 . S
C1474 C1472 1.395 . S
C1474 C1477 1.403 . S
C1475 C1472 1.403 . S
C1475 C1476 1.524 . S
C1475 C1479 1.400 . S
C1476 H1461 0.960 . S
C1476 H1462 0.960 . S
C1476 H1463 0.960 . S
C1476 C1475 1.524 . S
C1477 C1474 1.403 . S
C1477 C1478 1.392 . S
C1477 C1481 1.495 . S
C1478 C1477 1.392 . S
C1478 C1479 1.385 . S
C1478 C1480 1.478 . S
C1479 H1473 0.930 . S
C1479 C1475 1.400 . S
C1479 C1478 1.385 . S
C1480 C1478 1.478 . S
C1480 C1482 1.381 . S
C1480 C1486 1.383 . S
C1481 C1477 1.495 . S
C1481 H1487 0.959 . S
C1481 H1488 0.961 . S
C1481 H1489 0.960 . S
C1482 C1480 1.381 . S
C1482 C1483 1.394 . S
C1482 H1490 0.930 . S
C1483 C1482 1.394 . S
C1483 C1484 1.383 . S
C1483 H1491 0.929 . S
C1484 C1483 1.383 . S
C1484 C1485 1.377 . S
C1485 H1469 0.930 . S
C1485 C1484 1.377 . S
C1485 C1486 1.379 . S
C1486 H1470 0.931 . S
C1486 C1480 1.383 . S
C1486 C1485 1.379 . S
H1487 C1481 0.959 . S
H1488 C1481 0.961 . S
H1489 C1481 0.960 . S
H1490 C1482 0.930 . S
H1491 C1483 0.929 . S
H1492 C1500 0.929 . S
H1493 C1502 0.930 . S
H1494 C1504 0.930 . S
H1495 C1507 0.929 . S
H1496 C1510 0.930 . S
H1497 C1512 0.960 . S
H1498 C1512 0.960 . S
H1499 C1512 0.960 . S
C1500 H1492 0.929 . S
C1500 C1501 1.377 . S
C1500 C1502 1.384 . S
C1501 C1500 1.377 . S
C1501 C1507 1.390 . S
C1502 H1493 0.930 . S
C1502 C1500 1.384 . S
C1502 C1503 1.372 . S
C1503 C1502 1.372 . S
C1503 C1504 1.400 . S
C1503 C1508 1.490 . S
C1504 H1494 0.930 . S
C1504 C1503 1.400 . S
C1504 C1507 1.386 . S
H1505 C1521 0.930 . S
H1506 C1522 0.931 . S
C1507 H1495 0.929 . S
C1507 C1501 1.390 . S
C1507 C1504 1.386 . S
C1508 C1503 1.490 . S
C1508 C1510 1.395 . S
C1508 C1511 1.403 . S
H1509 C1515 0.930 . S
C1510 H1496 0.930 . S
C1510 C1508 1.395 . S
C1510 C1513 1.403 . S
C1511 C1508 1.403 . S
C1511 C1512 1.524 . S
C1511 C1515 1.400 . S
C1512 H1497 0.960 . S
C1512 H1498 0.960 . S
C1512 H1499 0.960 . S
C1512 C1511 1.524 . S
C1513 C1510 1.403 . S
C1513 C1514 1.392 . S
C1513 C1517 1.495 . S
C1514 C1513 1.392 . S
C1514 C1515 1.385 . S
C1514 C1516 1.478 . S
C1515 H1509 0.930 . S
C1515 C1511 1.400 . S
C1515 C1514 1.385 . S
C1516 C1514 1.478 . S
C1516 C1518 1.381 . S
C1516 C1522 1.383 . S
C1517 C1513 1.495 . S
C1517 H1523 0.959 . S
C1517 H1524 0.961 . S
C1517 H1525 0.960 . S
C1518 C1516 1.381 . S
C1518 C1519 1.394 . S
C1518 H1526 0.930 . S
C1519 C1518 1.394 . S
C1519 C1520 1.383 . S
C1519 H1527 0.929 . S
C1520 C1519 1.383 . S
C1520 C1521 1.377 . S
C1521 H1505 0.930 . S
C1521 C1520 1.377 . S
C1521 C1522 1.379 . S
C1522 H1506 0.931 . S
C1522 C1516 1.383 . S
C1522 C1521 1.379 . S
H1523 C1517 0.959 . S
H1524 C1517 0.961 . S
H1525 C1517 0.960 . S
H1526 C1518 0.930 . S
H1527 C1519 0.929 . S
H1528 C1536 0.929 . S
H1529 C1538 0.930 . S
H1530 C1540 0.930 . S
H1531 C1543 0.929 . S
H1532 C1546 0.930 . S
H1533 C1548 0.960 . S
H1534 C1548 0.960 . S
H1535 C1548 0.960 . S
C1536 H1528 0.929 . S
C1536 C1537 1.377 . S
C1536 C1538 1.384 . S
C1537 C1536 1.377 . S
C1537 C1543 1.390 . S
C1538 H1529 0.930 . S
C1538 C1536 1.384 . S
C1538 C1539 1.372 . S
C1539 C1538 1.372 . S
C1539 C1540 1.400 . S
C1539 C1544 1.490 . S
C1540 H1530 0.930 . S
C1540 C1539 1.400 . S
C1540 C1543 1.386 . S
H1541 C1557 0.930 . S
H1542 C1558 0.931 . S
C1543 H1531 0.929 . S
C1543 C1537 1.390 . S
C1543 C1540 1.386 . S
C1544 C1539 1.490 . S
C1544 C1546 1.395 . S
C1544 C1547 1.403 . S
H1545 C1551 0.930 . S
C1546 H1532 0.930 . S
C1546 C1544 1.395 . S
C1546 C1549 1.403 . S
C1547 C1544 1.403 . S
C1547 C1548 1.524 . S
C1547 C1551 1.400 . S
C1548 H1533 0.960 . S
C1548 H1534 0.960 . S
C1548 H1535 0.960 . S
C1548 C1547 1.524 . S
C1549 C1546 1.403 . S
C1549 C1550 1.392 . S
C1549 C1553 1.495 . S
C1550 C1549 1.392 . S
C1550 C1551 1.385 . S
C1550 C1552 1.478 . S
C1551 H1545 0.930 . S
C1551 C1547 1.400 . S
C1551 C1550 1.385 . S
C1552 C1550 1.478 . S
C1552 C1554 1.381 . S
C1552 C1558 1.383 . S
C1553 C1549 1.495 . S
C1553 H1559 0.959 . S
C1553 H1560 0.961 . S
C1553 H1561 0.960 . S
C1554 C1552 1.381 . S
C1554 C1555 1.394 . S
C1554 H1562 0.930 . S
C1555 C1554 1.394 . S
C1555 C1556 1.383 . S
C1555 H1563 0.929 . S
C1556 C1555 1.383 . S
C1556 C1557 1.377 . S
C1557 H1541 0.930 . S
C1557 C1556 1.377 . S
C1557 C1558 1.379 . S
C1558 H1542 0.931 . S
C1558 C1552 1.383 . S
C1558 C1557 1.379 . S
H1559 C1553 0.959 . S
H1560 C1553 0.961 . S
H1561 C1553 0.960 . S
H1562 C1554 0.930 . S
H1563 C1555 0.929 . S
H1564 C1572 0.929 . S
H1565 C1574 0.930 . S
H1566 C1576 0.930 . S
H1567 C1579 0.929 . S
H1568 C1582 0.930 . S
H1569 C1584 0.960 . S
H1570 C1584 0.960 . S
H1571 C1584 0.960 . S
C1572 H1564 0.929 . S
C1572 C1573 1.377 . S
C1572 C1574 1.384 . S
C1573 C1572 1.377 . S
C1573 C1579 1.390 . S
C1574 H1565 0.930 . S
C1574 C1572 1.384 . S
C1574 C1575 1.372 . S
C1575 C1574 1.372 . S
C1575 C1576 1.400 . S
C1575 C1580 1.490 . S
C1576 H1566 0.930 . S
C1576 C1575 1.400 . S
C1576 C1579 1.386 . S
H1577 C1593 0.930 . S
H1578 C1594 0.931 . S
C1579 H1567 0.929 . S
C1579 C1573 1.390 . S
C1579 C1576 1.386 . S
C1580 C1575 1.490 . S
C1580 C1582 1.395 . S
C1580 C1583 1.403 . S
H1581 C1587 0.930 . S
C1582 H1568 0.930 . S
C1582 C1580 1.395 . S
C1582 C1585 1.403 . S
C1583 C1580 1.403 . S
C1583 C1584 1.524 . S
C1583 C1587 1.400 . S
C1584 H1569 0.960 . S
C1584 H1570 0.960 . S
C1584 H1571 0.960 . S
C1584 C1583 1.524 . S
C1585 C1582 1.403 . S
C1585 C1586 1.392 . S
C1585 C1589 1.495 . S
C1586 C1585 1.392 . S
C1586 C1587 1.385 . S
C1586 C1588 1.478 1_655 S
C1587 H1581 0.930 . S
C1587 C1583 1.400 . S
C1587 C1586 1.385 . S
C1588 C1586 1.478 1_455 S
C1588 C1590 1.381 . S
C1588 C1594 1.383 . S
C1589 C1585 1.495 . S
C1589 H1595 0.959 . S
C1589 H1596 0.961 . S
C1589 H1597 0.960 . S
C1590 C1588 1.381 . S
C1590 C1591 1.394 . S
C1590 H1598 0.930 . S
C1591 C1590 1.394 . S
C1591 C1592 1.383 . S
C1591 H1599 0.929 . S
C1592 C1591 1.383 . S
C1592 C1593 1.377 . S
C1593 H1577 0.930 . S
C1593 C1592 1.377 . S
C1593 C1594 1.379 . S
C1594 H1578 0.931 . S
C1594 C1588 1.383 . S
C1594 C1593 1.379 . S
H1595 C1589 0.959 . S
H1596 C1589 0.961 . S
H1597 C1589 0.960 . S
H1598 C1590 0.930 . S
H1599 C1591 0.929 . S
H1600 C1608 0.929 . S
H1601 C1610 0.930 . S
H1602 C1612 0.930 . S
H1603 C1615 0.929 . S
H1604 C1618 0.930 . S
H1605 C1620 0.960 . S
H1606 C1620 0.960 . S
H1607 C1620 0.960 . S
C1608 H1600 0.929 . S
C1608 C1609 1.377 . S
C1608 C1610 1.384 . S
C1609 C1608 1.377 . S
C1609 C1615 1.390 . S
C1610 H1601 0.930 . S
C1610 C1608 1.384 . S
C1610 C1611 1.372 . S
C1611 C1610 1.372 . S
C1611 C1612 1.400 . S
C1611 C1616 1.490 . S
C1612 H1602 0.930 . S
C1612 C1611 1.400 . S
C1612 C1615 1.386 . S
H1613 C1629 0.930 . S
H1614 C1630 0.931 . S
C1615 H1603 0.929 . S
C1615 C1609 1.390 . S
C1615 C1612 1.386 . S
C1616 C1611 1.490 . S
C1616 C1618 1.395 . S
C1616 C1619 1.403 . S
H1617 C1623 0.930 . S
C1618 H1604 0.930 . S
C1618 C1616 1.395 . S
C1618 C1621 1.403 . S
C1619 C1616 1.403 . S
C1619 C1620 1.524 . S
C1619 C1623 1.400 . S
C1620 H1605 0.960 . S
C1620 H1606 0.960 . S
C1620 H1607 0.960 . S
C1620 C1619 1.524 . S
C1621 C1618 1.403 . S
C1621 C1622 1.392 . S
C1621 C1625 1.495 . S
C1622 C1621 1.392 . S
C1622 C1623 1.385 . S
C1622 C1624 1.478 . S
C1623 H1617 0.930 . S
C1623 C1619 1.400 . S
C1623 C1622 1.385 . S
C1624 C1622 1.478 . S
C1624 C1626 1.381 . S
C1624 C1630 1.383 . S
C1625 C1621 1.495 . S
C1625 H1631 0.959 . S
C1625 H1632 0.961 . S
C1625 H1633 0.960 . S
C1626 C1624 1.381 . S
C1626 C1627 1.394 . S
C1626 H1634 0.930 . S
C1627 C1626 1.394 . S
C1627 C1628 1.383 . S
C1627 H1635 0.929 . S
C1628 C1627 1.383 . S
C1628 C1629 1.377 . S
C1629 H1613 0.930 . S
C1629 C1628 1.377 . S
C1629 C1630 1.379 . S
C1630 H1614 0.931 . S
C1630 C1624 1.383 . S
C1630 C1629 1.379 . S
H1631 C1625 0.959 . S
H1632 C1625 0.961 . S
H1633 C1625 0.960 . S
H1634 C1626 0.930 . S
H1635 C1627 0.929 . S
H1636 C1644 0.929 . S
H1637 C1646 0.930 . S
H1638 C1648 0.930 . S
H1639 C1651 0.929 . S
H1640 C1654 0.930 . S
H1641 C1656 0.960 . S
H1642 C1656 0.960 . S
H1643 C1656 0.960 . S
C1644 H1636 0.929 . S
C1644 C1645 1.377 . S
C1644 C1646 1.384 . S
C1645 C1644 1.377 . S
C1645 C1651 1.390 . S
C1646 H1637 0.930 . S
C1646 C1644 1.384 . S
C1646 C1647 1.372 . S
C1647 C1646 1.372 . S
C1647 C1648 1.400 . S
C1647 C1652 1.490 . S
C1648 H1638 0.930 . S
C1648 C1647 1.400 . S
C1648 C1651 1.386 . S
H1649 C1665 0.930 . S
H1650 C1666 0.931 . S
C1651 H1639 0.929 . S
C1651 C1645 1.390 . S
C1651 C1648 1.386 . S
C1652 C1647 1.490 . S
C1652 C1654 1.395 . S
C1652 C1655 1.403 . S
H1653 C1659 0.930 . S
C1654 H1640 0.930 . S
C1654 C1652 1.395 . S
C1654 C1657 1.403 . S
C1655 C1652 1.403 . S
C1655 C1656 1.524 . S
C1655 C1659 1.400 . S
C1656 H1641 0.960 . S
C1656 H1642 0.960 . S
C1656 H1643 0.960 . S
C1656 C1655 1.524 . S
C1657 C1654 1.403 . S
C1657 C1658 1.392 . S
C1657 C1661 1.495 . S
C1658 C1657 1.392 . S
C1658 C1659 1.385 . S
C1658 C1660 1.478 . S
C1659 H1653 0.930 . S
C1659 C1655 1.400 . S
C1659 C1658 1.385 . S
C1660 C1658 1.478 . S
C1660 C1662 1.381 . S
C1660 C1666 1.383 . S
C1661 C1657 1.495 . S
C1661 H1667 0.959 . S
C1661 H1668 0.961 . S
C1661 H1669 0.960 . S
C1662 C1660 1.381 . S
C1662 C1663 1.394 . S
C1662 H1670 0.930 . S
C1663 C1662 1.394 . S
C1663 C1664 1.383 . S
C1663 H1671 0.929 . S
C1664 C1663 1.383 . S
C1664 C1665 1.377 . S
C1665 H1649 0.930 . S
C1665 C1664 1.377 . S
C1665 C1666 1.379 . S
C1666 H1650 0.931 . S
C1666 C1660 1.383 . S
C1666 C1665 1.379 . S
H1667 C1661 0.959 . S
H1668 C1661 0.961 . S
H1669 C1661 0.960 . S
H1670 C1662 0.930 . S
H1671 C1663 0.929 . S
H1672 C1680 0.929 . S
H1673 C1682 0.930 . S
H1674 C1684 0.930 . S
H1675 C1687 0.929 . S
H1676 C1690 0.930 . S
H1677 C1692 0.960 . S
H1678 C1692 0.960 . S
H1679 C1692 0.960 . S
C1680 H1672 0.929 . S
C1680 C1681 1.377 . S
C1680 C1682 1.384 . S
C1681 C1680 1.377 . S
C1681 C1687 1.390 . S
C1682 H1673 0.930 . S
C1682 C1680 1.384 . S
C1682 C1683 1.372 . S
C1683 C1682 1.372 . S
C1683 C1684 1.400 . S
C1683 C1688 1.490 . S
C1684 H1674 0.930 . S
C1684 C1683 1.400 . S
C1684 C1687 1.386 . S
H1685 C1701 0.930 . S
H1686 C1702 0.931 . S
C1687 H1675 0.929 . S
C1687 C1681 1.390 . S
C1687 C1684 1.386 . S
C1688 C1683 1.490 . S
C1688 C1690 1.395 . S
C1688 C1691 1.403 . S
H1689 C1695 0.930 . S
C1690 H1676 0.930 . S
C1690 C1688 1.395 . S
C1690 C1693 1.403 . S
C1691 C1688 1.403 . S
C1691 C1692 1.524 . S
C1691 C1695 1.400 . S
C1692 H1677 0.960 . S
C1692 H1678 0.960 . S
C1692 H1679 0.960 . S
C1692 C1691 1.524 . S
C1693 C1690 1.403 . S
C1693 C1694 1.392 . S
C1693 C1697 1.495 . S
C1694 C1693 1.392 . S
C1694 C1695 1.385 . S
C1694 C1696 1.478 . S
C1695 H1689 0.930 . S
C1695 C1691 1.400 . S
C1695 C1694 1.385 . S
C1696 C1694 1.478 . S
C1696 C1698 1.381 . S
C1696 C1702 1.383 . S
C1697 C1693 1.495 . S
C1697 H1703 0.959 . S
C1697 H1704 0.961 . S
C1697 H1705 0.960 . S
C1698 C1696 1.381 . S
C1698 C1699 1.394 . S
C1698 H1706 0.930 . S
C1699 C1698 1.394 . S
C1699 C1700 1.383 . S
C1699 H1707 0.929 . S
C1700 C1699 1.383 . S
C1700 C1701 1.377 . S
C1701 H1685 0.930 . S
C1701 C1700 1.377 . S
C1701 C1702 1.379 . S
C1702 H1686 0.931 . S
C1702 C1696 1.383 . S
C1702 C1701 1.379 . S
H1703 C1697 0.959 . S
H1704 C1697 0.961 . S
H1705 C1697 0.960 . S
H1706 C1698 0.930 . S
H1707 C1699 0.929 . S
H1708 C1716 0.929 . S
H1709 C1718 0.930 . S
H1710 C1720 0.930 . S
H1711 C1723 0.929 . S
H1712 C1726 0.930 . S
H1713 C1728 0.960 . S
H1714 C1728 0.960 . S
H1715 C1728 0.960 . S
C1716 H1708 0.929 . S
C1716 C1717 1.377 . S
C1716 C1718 1.384 . S
C1717 C1716 1.377 . S
C1717 C1723 1.390 . S
C1718 H1709 0.930 . S
C1718 C1716 1.384 . S
C1718 C1719 1.372 . S
C1719 C1718 1.372 . S
C1719 C1720 1.400 . S
C1719 C1724 1.490 . S
C1720 H1710 0.930 . S
C1720 C1719 1.400 . S
C1720 C1723 1.386 . S
H1721 C1737 0.930 . S
H1722 C1738 0.931 . S
C1723 H1711 0.929 . S
C1723 C1717 1.390 . S
C1723 C1720 1.386 . S
C1724 C1719 1.490 . S
C1724 C1726 1.395 . S
C1724 C1727 1.403 . S
H1725 C1731 0.930 . S
C1726 H1712 0.930 . S
C1726 C1724 1.395 . S
C1726 C1729 1.403 . S
C1727 C1724 1.403 . S
C1727 C1728 1.524 . S
C1727 C1731 1.400 . S
C1728 H1713 0.960 . S
C1728 H1714 0.960 . S
C1728 H1715 0.960 . S
C1728 C1727 1.524 . S
C1729 C1726 1.403 . S
C1729 C1730 1.392 . S
C1729 C1733 1.495 . S
C1730 C1729 1.392 . S
C1730 C1731 1.385 . S
C1730 C1732 1.478 1_655 S
C1731 H1725 0.930 . S
C1731 C1727 1.400 . S
C1731 C1730 1.385 . S
C1732 C1730 1.478 1_455 S
C1732 C1734 1.381 . S
C1732 C1738 1.383 . S
C1733 C1729 1.495 . S
C1733 H1739 0.959 . S
C1733 H1740 0.961 . S
C1733 H1741 0.960 . S
C1734 C1732 1.381 . S
C1734 C1735 1.394 . S
C1734 H1742 0.930 . S
C1735 C1734 1.394 . S
C1735 C1736 1.383 . S
C1735 H1743 0.929 . S
C1736 C1735 1.383 . S
C1736 C1737 1.377 . S
C1737 H1721 0.930 . S
C1737 C1736 1.377 . S
C1737 C1738 1.379 . S
C1738 H1722 0.931 . S
C1738 C1732 1.383 . S
C1738 C1737 1.379 . S
H1739 C1733 0.959 . S
H1740 C1733 0.961 . S
H1741 C1733 0.960 . S
H1742 C1734 0.930 . S
H1743 C1735 0.929 . S
H1744 C1752 0.929 . S
H1745 C1754 0.930 . S
H1746 C1756 0.930 . S
H1747 C1759 0.929 . S
H1748 C1762 0.930 . S
H1749 C1764 0.960 . S
H1750 C1764 0.960 . S
H1751 C1764 0.960 . S
C1752 H1744 0.929 . S
C1752 C1753 1.377 . S
C1752 C1754 1.384 . S
C1753 C1752 1.377 . S
C1753 C1759 1.390 . S
C1754 H1745 0.930 . S
C1754 C1752 1.384 . S
C1754 C1755 1.372 . S
C1755 C1754 1.372 . S
C1755 C1756 1.400 . S
C1755 C1760 1.490 . S
C1756 H1746 0.930 . S
C1756 C1755 1.400 . S
C1756 C1759 1.386 . S
H1757 C1773 0.930 . S
H1758 C1774 0.931 . S
C1759 H1747 0.929 . S
C1759 C1753 1.390 . S
C1759 C1756 1.386 . S
C1760 C1755 1.490 . S
C1760 C1762 1.395 . S
C1760 C1763 1.403 . S
H1761 C1767 0.930 . S
C1762 H1748 0.930 . S
C1762 C1760 1.395 . S
C1762 C1765 1.403 . S
C1763 C1760 1.403 . S
C1763 C1764 1.524 . S
C1763 C1767 1.400 . S
C1764 H1749 0.960 . S
C1764 H1750 0.960 . S
C1764 H1751 0.960 . S
C1764 C1763 1.524 . S
C1765 C1762 1.403 . S
C1765 C1766 1.392 . S
C1765 C1769 1.495 . S
C1766 C1765 1.392 . S
C1766 C1767 1.385 . S
C1766 C1768 1.478 . S
C1767 H1761 0.930 . S
C1767 C1763 1.400 . S
C1767 C1766 1.385 . S
C1768 C1766 1.478 . S
C1768 C1770 1.381 . S
C1768 C1774 1.383 . S
C1769 C1765 1.495 . S
C1769 H1775 0.959 . S
C1769 H1776 0.961 . S
C1769 H1777 0.960 . S
C1770 C1768 1.381 . S
C1770 C1771 1.394 . S
C1770 H1778 0.930 . S
C1771 C1770 1.394 . S
C1771 C1772 1.383 . S
C1771 H1779 0.929 . S
C1772 C1771 1.383 . S
C1772 C1773 1.377 . S
C1773 H1757 0.930 . S
C1773 C1772 1.377 . S
C1773 C1774 1.379 . S
C1774 H1758 0.931 . S
C1774 C1768 1.383 . S
C1774 C1773 1.379 . S
H1775 C1769 0.959 . S
H1776 C1769 0.961 . S
H1777 C1769 0.960 . S
H1778 C1770 0.930 . S
H1779 C1771 0.929 . S
H1780 C1788 0.929 . S
H1781 C1790 0.930 . S
H1782 C1792 0.930 . S
H1783 C1795 0.929 . S
H1784 C1798 0.930 . S
H1785 C1800 0.960 . S
H1786 C1800 0.960 1_455 S
H1787 C1800 0.960 1_455 S
C1788 H1780 0.929 . S
C1788 C1789 1.377 . S
C1788 C1790 1.384 . S
C1789 C1788 1.377 . S
C1789 C1795 1.390 . S
C1790 H1781 0.930 . S
C1790 C1788 1.384 . S
C1790 C1791 1.372 . S
C1791 C1790 1.372 . S
C1791 C1792 1.400 . S
C1791 C1796 1.490 1_455 S
C1792 H1782 0.930 . S
C1792 C1791 1.400 . S
C1792 C1795 1.386 . S
H1793 C1809 0.930 . S
H1794 C1810 0.931 . S
C1795 H1783 0.929 . S
C1795 C1789 1.390 . S
C1795 C1792 1.386 . S
C1796 C1791 1.490 1_655 S
C1796 C1798 1.395 . S
C1796 C1799 1.403 . S
H1797 C1803 0.930 . S
C1798 H1784 0.930 . S
C1798 C1796 1.395 . S
C1798 C1801 1.403 . S
C1799 C1796 1.403 . S
C1799 C1800 1.524 . S
C1799 C1803 1.400 . S
C1800 H1785 0.960 . S
C1800 H1786 0.960 1_655 S
C1800 H1787 0.960 1_655 S
C1800 C1799 1.524 . S
C1801 C1798 1.403 . S
C1801 C1802 1.392 . S
C1801 C1805 1.495 . S
C1802 C1801 1.392 . S
C1802 C1803 1.385 . S
C1802 C1804 1.478 . S
C1803 H1797 0.930 . S
C1803 C1799 1.400 . S
C1803 C1802 1.385 . S
C1804 C1802 1.478 . S
C1804 C1806 1.381 . S
C1804 C1810 1.383 . S
C1805 C1801 1.495 . S
C1805 H1811 0.959 . S
C1805 H1812 0.961 . S
C1805 H1813 0.960 . S
C1806 C1804 1.381 . S
C1806 C1807 1.394 . S
C1806 H1814 0.930 . S
C1807 C1806 1.394 . S
C1807 C1808 1.383 . S
C1807 H1815 0.929 . S
C1808 C1807 1.383 . S
C1808 C1809 1.377 . S
C1809 H1793 0.930 . S
C1809 C1808 1.377 . S
C1809 C1810 1.379 . S
C1810 H1794 0.931 . S
C1810 C1804 1.383 . S
C1810 C1809 1.379 . S
H1811 C1805 0.959 . S
H1812 C1805 0.961 . S
H1813 C1805 0.960 . S
H1814 C1806 0.930 . S
H1815 C1807 0.929 . S
H1816 C1824 0.929 . S
H1817 C1826 0.930 . S
H1818 C1828 0.930 . S
H1819 C1831 0.929 . S
H1820 C1834 0.930 . S
H1821 C1836 0.960 . S
H1822 C1836 0.960 . S
H1823 C1836 0.960 . S
C1824 H1816 0.929 . S
C1824 C1825 1.377 . S
C1824 C1826 1.384 . S
C1825 C1824 1.377 . S
C1825 C1831 1.390 . S
C1826 H1817 0.930 . S
C1826 C1824 1.384 . S
C1826 C1827 1.372 . S
C1827 C1826 1.372 . S
C1827 C1828 1.400 . S
C1827 C1832 1.490 . S
C1828 H1818 0.930 . S
C1828 C1827 1.400 . S
C1828 C1831 1.386 . S
H1829 C1845 0.930 . S
H1830 C1846 0.931 . S
C1831 H1819 0.929 . S
C1831 C1825 1.390 . S
C1831 C1828 1.386 . S
C1832 C1827 1.490 . S
C1832 C1834 1.395 . S
C1832 C1835 1.403 . S
H1833 C1839 0.930 . S
C1834 H1820 0.930 . S
C1834 C1832 1.395 . S
C1834 C1837 1.403 . S
C1835 C1832 1.403 . S
C1835 C1836 1.524 . S
C1835 C1839 1.400 . S
C1836 H1821 0.960 . S
C1836 H1822 0.960 . S
C1836 H1823 0.960 . S
C1836 C1835 1.524 . S
C1837 C1834 1.403 . S
C1837 C1838 1.392 . S
C1837 C1841 1.495 . S
C1838 C1837 1.392 . S
C1838 C1839 1.385 . S
C1838 C1840 1.478 . S
C1839 H1833 0.930 . S
C1839 C1835 1.400 . S
C1839 C1838 1.385 . S
C1840 C1838 1.478 . S
C1840 C1842 1.381 . S
C1840 C1846 1.383 . S
C1841 C1837 1.495 . S
C1841 H1847 0.959 . S
C1841 H1848 0.961 . S
C1841 H1849 0.960 . S
C1842 C1840 1.381 . S
C1842 C1843 1.394 . S
C1842 H1850 0.930 . S
C1843 C1842 1.394 . S
C1843 C1844 1.383 . S
C1843 H1851 0.929 . S
C1844 C1843 1.383 . S
C1844 C1845 1.377 . S
C1845 H1829 0.930 . S
C1845 C1844 1.377 . S
C1845 C1846 1.379 . S
C1846 H1830 0.931 . S
C1846 C1840 1.383 . S
C1846 C1845 1.379 . S
H1847 C1841 0.959 . S
H1848 C1841 0.961 . S
H1849 C1841 0.960 . S
H1850 C1842 0.930 . S
H1851 C1843 0.929 . S
H1852 C1860 0.929 . S
H1853 C1862 0.930 . S
H1854 C1864 0.930 . S
H1855 C1867 0.929 . S
H1856 C1870 0.930 . S
H1857 C1872 0.960 . S
H1858 C1872 0.960 . S
H1859 C1872 0.960 . S
C1860 H1852 0.929 . S
C1860 C1861 1.377 . S
C1860 C1862 1.384 . S
C1861 C1860 1.377 . S
C1861 C1867 1.390 . S
C1862 H1853 0.930 . S
C1862 C1860 1.384 . S
C1862 C1863 1.372 . S
C1863 C1862 1.372 . S
C1863 C1864 1.400 . S
C1863 C1868 1.490 . S
C1864 H1854 0.930 . S
C1864 C1863 1.400 . S
C1864 C1867 1.386 . S
H1865 C1881 0.930 . S
H1866 C1882 0.931 . S
C1867 H1855 0.929 . S
C1867 C1861 1.390 . S
C1867 C1864 1.386 . S
C1868 C1863 1.490 . S
C1868 C1870 1.395 . S
C1868 C1871 1.403 . S
H1869 C1875 0.930 . S
C1870 H1856 0.930 . S
C1870 C1868 1.395 . S
C1870 C1873 1.403 . S
C1871 C1868 1.403 . S
C1871 C1872 1.524 . S
C1871 C1875 1.400 . S
C1872 H1857 0.960 . S
C1872 H1858 0.960 . S
C1872 H1859 0.960 . S
C1872 C1871 1.524 . S
C1873 C1870 1.403 . S
C1873 C1874 1.392 . S
C1873 C1877 1.495 . S
C1874 C1873 1.392 . S
C1874 C1875 1.385 . S
C1874 C1876 1.478 . S
C1875 H1869 0.930 . S
C1875 C1871 1.400 . S
C1875 C1874 1.385 . S
C1876 C1874 1.478 . S
C1876 C1878 1.381 . S
C1876 C1882 1.383 . S
C1877 C1873 1.495 . S
C1877 H1883 0.959 . S
C1877 H1884 0.961 . S
C1877 H1885 0.960 . S
C1878 C1876 1.381 . S
C1878 C1879 1.394 . S
C1878 H1886 0.930 . S
C1879 C1878 1.394 . S
C1879 C1880 1.383 . S
C1879 H1887 0.929 . S
C1880 C1879 1.383 . S
C1880 C1881 1.377 . S
C1881 H1865 0.930 . S
C1881 C1880 1.377 . S
C1881 C1882 1.379 . S
C1882 H1866 0.931 . S
C1882 C1876 1.383 . S
C1882 C1881 1.379 . S
H1883 C1877 0.959 . S
H1884 C1877 0.961 . S
H1885 C1877 0.960 . S
H1886 C1878 0.930 . S
H1887 C1879 0.929 . S
H1888 C1896 0.929 . S
H1889 C1898 0.930 . S
H1890 C1900 0.930 . S
H1891 C1903 0.929 . S
H1892 C1906 0.930 . S
H1893 C1908 0.960 . S
H1894 C1908 0.960 . S
H1895 C1908 0.960 . S
C1896 H1888 0.929 . S
C1896 C1897 1.377 . S
C1896 C1898 1.384 . S
C1897 C1896 1.377 . S
C1897 C1903 1.390 . S
C1898 H1889 0.930 . S
C1898 C1896 1.384 . S
C1898 C1899 1.372 . S
C1899 C1898 1.372 . S
C1899 C1900 1.400 . S
C1899 C1904 1.490 . S
C1900 H1890 0.930 . S
C1900 C1899 1.400 . S
C1900 C1903 1.386 . S
H1901 C1917 0.930 . S
H1902 C1918 0.931 . S
C1903 H1891 0.929 . S
C1903 C1897 1.390 . S
C1903 C1900 1.386 . S
C1904 C1899 1.490 . S
C1904 C1906 1.395 . S
C1904 C1907 1.403 . S
H1905 C1911 0.930 . S
C1906 H1892 0.930 . S
C1906 C1904 1.395 . S
C1906 C1909 1.403 . S
C1907 C1904 1.403 . S
C1907 C1908 1.524 . S
C1907 C1911 1.400 . S
C1908 H1893 0.960 . S
C1908 H1894 0.960 . S
C1908 H1895 0.960 . S
C1908 C1907 1.524 . S
C1909 C1906 1.403 . S
C1909 C1910 1.392 . S
C1909 C1913 1.495 . S
C1910 C1909 1.392 . S
C1910 C1911 1.385 . S
C1910 C1912 1.478 . S
C1911 H1905 0.930 . S
C1911 C1907 1.400 . S
C1911 C1910 1.385 . S
C1912 C1910 1.478 . S
C1912 C1914 1.381 . S
C1912 C1918 1.383 . S
C1913 C1909 1.495 . S
C1913 H1919 0.959 . S
C1913 H1920 0.961 . S
C1913 H1921 0.960 . S
C1914 C1912 1.381 . S
C1914 C1915 1.394 . S
C1914 H1922 0.930 . S
C1915 C1914 1.394 . S
C1915 C1916 1.383 . S
C1915 H1923 0.929 . S
C1916 C1915 1.383 . S
C1916 C1917 1.377 . S
C1917 H1901 0.930 . S
C1917 C1916 1.377 . S
C1917 C1918 1.379 . S
C1918 H1902 0.931 . S
C1918 C1912 1.383 . S
C1918 C1917 1.379 . S
H1919 C1913 0.959 . S
H1920 C1913 0.961 . S
H1921 C1913 0.960 . S
H1922 C1914 0.930 . S
H1923 C1915 0.929 . S
H1924 C1932 0.929 . S
H1925 C1934 0.930 . S
H1926 C1936 0.930 . S
H1927 C1939 0.929 . S
H1928 C1942 0.930 . S
H1929 C1944 0.960 . S
H1930 C1944 0.960 . S
H1931 C1944 0.960 . S
C1932 H1924 0.929 . S
C1932 C1933 1.377 . S
C1932 C1934 1.384 . S
C1933 C1932 1.377 . S
C1933 C1939 1.390 . S
C1934 H1925 0.930 . S
C1934 C1932 1.384 . S
C1934 C1935 1.372 . S
C1935 C1934 1.372 . S
C1935 C1936 1.400 . S
C1935 C1940 1.490 . S
C1936 H1926 0.930 . S
C1936 C1935 1.400 . S
C1936 C1939 1.386 . S
H1937 C1953 0.930 . S
H1938 C1954 0.931 . S
C1939 H1927 0.929 . S
C1939 C1933 1.390 . S
C1939 C1936 1.386 . S
C1940 C1935 1.490 . S
C1940 C1942 1.395 . S
C1940 C1943 1.403 . S
H1941 C1947 0.930 . S
C1942 H1928 0.930 . S
C1942 C1940 1.395 . S
C1942 C1945 1.403 . S
C1943 C1940 1.403 . S
C1943 C1944 1.524 . S
C1943 C1947 1.400 . S
C1944 H1929 0.960 . S
C1944 H1930 0.960 . S
C1944 H1931 0.960 . S
C1944 C1943 1.524 . S
C1945 C1942 1.403 . S
C1945 C1946 1.392 . S
C1945 C1949 1.495 . S
C1946 C1945 1.392 . S
C1946 C1947 1.385 . S
C1946 C1948 1.478 . S
C1947 H1941 0.930 . S
C1947 C1943 1.400 . S
C1947 C1946 1.385 . S
C1948 C1946 1.478 . S
C1948 C1950 1.381 . S
C1948 C1954 1.383 . S
C1949 C1945 1.495 . S
C1949 H1955 0.959 . S
C1949 H1956 0.961 . S
C1949 H1957 0.960 . S
C1950 C1948 1.381 . S
C1950 C1951 1.394 . S
C1950 H1958 0.930 . S
C1951 C1950 1.394 . S
C1951 C1952 1.383 . S
C1951 H1959 0.929 . S
C1952 C1951 1.383 . S
C1952 C1953 1.377 . S
C1953 H1937 0.930 . S
C1953 C1952 1.377 . S
C1953 C1954 1.379 . S
C1954 H1938 0.931 . S
C1954 C1948 1.383 . S
C1954 C1953 1.379 . S
H1955 C1949 0.959 . S
H1956 C1949 0.961 . S
H1957 C1949 0.960 . S
H1958 C1950 0.930 . S
H1959 C1951 0.929 . S
H1960 C1968 0.929 . S
H1961 C1970 0.930 . S
H1962 C1972 0.930 . S
H1963 C1975 0.929 . S
H1964 C1978 0.930 . S
H1965 C1980 0.960 . S
H1966 C1980 0.960 . S
H1967 C1980 0.960 . S
C1968 H1960 0.929 . S
C1968 C1969 1.377 . S
C1968 C1970 1.384 . S
C1969 C1968 1.377 . S
C1969 C1975 1.390 . S
C1970 H1961 0.930 . S
C1970 C1968 1.384 . S
C1970 C1971 1.372 . S
C1971 C1970 1.372 . S
C1971 C1972 1.400 . S
C1971 C1976 1.490 . S
C1972 H1962 0.930 . S
C1972 C1971 1.400 . S
C1972 C1975 1.386 . S
H1973 C1989 0.930 . S
H1974 C1990 0.931 . S
C1975 H1963 0.929 . S
C1975 C1969 1.390 . S
C1975 C1972 1.386 . S
C1976 C1971 1.490 . S
C1976 C1978 1.395 . S
C1976 C1979 1.403 . S
H1977 C1983 0.930 . S
C1978 H1964 0.930 . S
C1978 C1976 1.395 . S
C1978 C1981 1.403 . S
C1979 C1976 1.403 . S
C1979 C1980 1.524 . S
C1979 C1983 1.400 . S
C1980 H1965 0.960 . S
C1980 H1966 0.960 . S
C1980 H1967 0.960 . S
C1980 C1979 1.524 . S
C1981 C1978 1.403 . S
C1981 C1982 1.392 . S
C1981 C1985 1.495 . S
C1982 C1981 1.392 . S
C1982 C1983 1.385 . S
C1982 C1984 1.478 . S
C1983 H1977 0.930 . S
C1983 C1979 1.400 . S
C1983 C1982 1.385 . S
C1984 C1982 1.478 . S
C1984 C1986 1.381 . S
C1984 C1990 1.383 . S
C1985 C1981 1.495 . S
C1985 H1991 0.959 . S
C1985 H1992 0.961 . S
C1985 H1993 0.960 . S
C1986 C1984 1.381 . S
C1986 C1987 1.394 . S
C1986 H1994 0.930 . S
C1987 C1986 1.394 . S
C1987 C1988 1.383 . S
C1987 H1995 0.929 . S
C1988 C1987 1.383 . S
C1988 C1989 1.377 . S
C1989 H1973 0.930 . S
C1989 C1988 1.377 . S
C1989 C1990 1.379 . S
C1990 H1974 0.931 . S
C1990 C1984 1.383 . S
C1990 C1989 1.379 . S
H1991 C1985 0.959 . S
H1992 C1985 0.961 . S
H1993 C1985 0.960 . S
H1994 C1986 0.930 . S
H1995 C1987 0.929 . S
H1996 C2004 0.929 . S
H1997 C2006 0.930 . S
H1998 C2008 0.930 . S
H1999 C2011 0.929 . S
H2000 C2014 0.930 . S
H2001 C2016 0.960 . S
H2002 C2016 0.960 . S
H2003 C2016 0.960 . S
C2004 H1996 0.929 . S
C2004 C2005 1.377 . S
C2004 C2006 1.384 . S
C2005 C2004 1.377 . S
C2005 C2011 1.390 . S
C2006 H1997 0.930 . S
C2006 C2004 1.384 . S
C2006 C2007 1.372 . S
C2007 C2006 1.372 . S
C2007 C2008 1.400 . S
C2007 C2012 1.490 . S
C2008 H1998 0.930 . S
C2008 C2007 1.400 . S
C2008 C2011 1.386 . S
H2009 C2025 0.930 . S
H2010 C2026 0.931 . S
C2011 H1999 0.929 . S
C2011 C2005 1.390 . S
C2011 C2008 1.386 . S
C2012 C2007 1.490 . S
C2012 C2014 1.395 . S
C2012 C2015 1.403 . S
H2013 C2019 0.930 . S
C2014 H2000 0.930 . S
C2014 C2012 1.395 . S
C2014 C2017 1.403 . S
C2015 C2012 1.403 . S
C2015 C2016 1.524 . S
C2015 C2019 1.400 . S
C2016 H2001 0.960 . S
C2016 H2002 0.960 . S
C2016 H2003 0.960 . S
C2016 C2015 1.524 . S
C2017 C2014 1.403 . S
C2017 C2018 1.392 . S
C2017 C2021 1.495 . S
C2018 C2017 1.392 . S
C2018 C2019 1.385 . S
C2018 C2020 1.478 1_455 S
C2019 H2013 0.930 . S
C2019 C2015 1.400 . S
C2019 C2018 1.385 . S
C2020 C2018 1.478 1_655 S
C2020 C2022 1.381 . S
C2020 C2026 1.383 . S
C2021 C2017 1.495 . S
C2021 H2027 0.959 . S
C2021 H2028 0.961 . S
C2021 H2029 0.960 . S
C2022 C2020 1.381 . S
C2022 C2023 1.394 . S
C2022 H2030 0.930 . S
C2023 C2022 1.394 . S
C2023 C2024 1.383 . S
C2023 H2031 0.929 . S
C2024 C2023 1.383 . S
C2024 C2025 1.377 . S
C2025 H2009 0.930 . S
C2025 C2024 1.377 . S
C2025 C2026 1.379 . S
C2026 H2010 0.931 . S
C2026 C2020 1.383 . S
C2026 C2025 1.379 . S
H2027 C2021 0.959 . S
H2028 C2021 0.961 . S
H2029 C2021 0.960 . S
H2030 C2022 0.930 . S
H2031 C2023 0.929 . S
H2032 C2040 0.929 . S
H2033 C2042 0.930 . S
H2034 C2044 0.930 . S
H2035 C2047 0.929 . S
H2036 C2050 0.930 . S
H2037 C2052 0.960 . S
H2038 C2052 0.960 . S
H2039 C2052 0.960 . S
C2040 H2032 0.929 . S
C2040 C2041 1.377 . S
C2040 C2042 1.384 . S
C2041 C2040 1.377 . S
C2041 C2047 1.390 . S
C2042 H2033 0.930 . S
C2042 C2040 1.384 . S
C2042 C2043 1.372 . S
C2043 C2042 1.372 . S
C2043 C2044 1.400 . S
C2043 C2048 1.490 . S
C2044 H2034 0.930 . S
C2044 C2043 1.400 . S
C2044 C2047 1.386 . S
H2045 C2061 0.930 . S
H2046 C2062 0.931 . S
C2047 H2035 0.929 . S
C2047 C2041 1.390 . S
C2047 C2044 1.386 . S
C2048 C2043 1.490 . S
C2048 C2050 1.395 . S
C2048 C2051 1.403 . S
H2049 C2055 0.930 . S
C2050 H2036 0.930 . S
C2050 C2048 1.395 . S
C2050 C2053 1.403 . S
C2051 C2048 1.403 . S
C2051 C2052 1.524 . S
C2051 C2055 1.400 . S
C2052 H2037 0.960 . S
C2052 H2038 0.960 . S
C2052 H2039 0.960 . S
C2052 C2051 1.524 . S
C2053 C2050 1.403 . S
C2053 C2054 1.392 . S
C2053 C2057 1.495 . S
C2054 C2053 1.392 . S
C2054 C2055 1.385 . S
C2054 C2056 1.478 . S
C2055 H2049 0.930 . S
C2055 C2051 1.400 . S
C2055 C2054 1.385 . S
C2056 C2054 1.478 . S
C2056 C2058 1.381 . S
C2056 C2062 1.383 . S
C2057 C2053 1.495 . S
C2057 H2063 0.959 . S
C2057 H2064 0.961 . S
C2057 H2065 0.960 . S
C2058 C2056 1.381 . S
C2058 C2059 1.394 . S
C2058 H2066 0.930 . S
C2059 C2058 1.394 . S
C2059 C2060 1.383 . S
C2059 H2067 0.929 . S
C2060 C2059 1.383 . S
C2060 C2061 1.377 . S
C2061 H2045 0.930 . S
C2061 C2060 1.377 . S
C2061 C2062 1.379 . S
C2062 H2046 0.931 . S
C2062 C2056 1.383 . S
C2062 C2061 1.379 . S
H2063 C2057 0.959 . S
H2064 C2057 0.961 . S
H2065 C2057 0.960 . S
H2066 C2058 0.930 . S
H2067 C2059 0.929 . S
H2068 C2076 0.929 . S
H2069 C2078 0.930 . S
H2070 C2080 0.930 . S
H2071 C2083 0.929 . S
H2072 C2086 0.930 . S
H2073 C2088 0.960 . S
H2074 C2088 0.960 1_655 S
H2075 C2088 0.960 1_655 S
C2076 H2068 0.929 . S
C2076 C2077 1.377 . S
C2076 C2078 1.384 . S
C2077 C2076 1.377 . S
C2077 C2083 1.390 . S
C2078 H2069 0.930 . S
C2078 C2076 1.384 . S
C2078 C2079 1.372 . S
C2079 C2078 1.372 . S
C2079 C2080 1.400 . S
C2079 C2084 1.490 1_655 S
C2080 H2070 0.930 . S
C2080 C2079 1.400 . S
C2080 C2083 1.386 . S
H2081 C2097 0.930 . S
H2082 C2098 0.931 . S
C2083 H2071 0.929 . S
C2083 C2077 1.390 . S
C2083 C2080 1.386 . S
C2084 C2079 1.490 1_455 S
C2084 C2086 1.395 . S
C2084 C2087 1.403 . S
H2085 C2091 0.930 . S
C2086 H2072 0.930 . S
C2086 C2084 1.395 . S
C2086 C2089 1.403 . S
C2087 C2084 1.403 . S
C2087 C2088 1.524 . S
C2087 C2091 1.400 . S
C2088 H2073 0.960 . S
C2088 H2074 0.960 1_455 S
C2088 H2075 0.960 1_455 S
C2088 C2087 1.524 . S
C2089 C2086 1.403 . S
C2089 C2090 1.392 . S
C2089 C2093 1.495 . S
C2090 C2089 1.392 . S
C2090 C2091 1.385 . S
C2090 C2092 1.478 . S
C2091 H2085 0.930 . S
C2091 C2087 1.400 . S
C2091 C2090 1.385 . S
C2092 C2090 1.478 . S
C2092 C2094 1.381 . S
C2092 C2098 1.383 . S
C2093 C2089 1.495 . S
C2093 H2099 0.959 . S
C2093 H2100 0.961 . S
C2093 H2101 0.960 . S
C2094 C2092 1.381 . S
C2094 C2095 1.394 . S
C2094 H2102 0.930 . S
C2095 C2094 1.394 . S
C2095 C2096 1.383 . S
C2095 H2103 0.929 . S
C2096 C2095 1.383 . S
C2096 C2097 1.377 . S
C2097 H2081 0.930 . S
C2097 C2096 1.377 . S
C2097 C2098 1.379 . S
C2098 H2082 0.931 . S
C2098 C2092 1.383 . S
C2098 C2097 1.379 . S
H2099 C2093 0.959 . S
H2100 C2093 0.961 . S
H2101 C2093 0.960 . S
H2102 C2094 0.930 . S
H2103 C2095 0.929 . S
H2104 C2112 0.929 . S
H2105 C2114 0.930 . S
H2106 C2116 0.930 . S
H2107 C2119 0.929 . S
H2108 C2122 0.930 . S
H2109 C2124 0.960 . S
H2110 C2124 0.960 . S
H2111 C2124 0.960 . S
C2112 H2104 0.929 . S
C2112 C2113 1.377 . S
C2112 C2114 1.384 . S
C2113 C2112 1.377 . S
C2113 C2119 1.390 . S
C2114 H2105 0.930 . S
C2114 C2112 1.384 . S
C2114 C2115 1.372 . S
C2115 C2114 1.372 . S
C2115 C2116 1.400 . S
C2115 C2120 1.490 . S
C2116 H2106 0.930 . S
C2116 C2115 1.400 . S
C2116 C2119 1.386 . S
H2117 C2133 0.930 . S
H2118 C2134 0.931 . S
C2119 H2107 0.929 . S
C2119 C2113 1.390 . S
C2119 C2116 1.386 . S
C2120 C2115 1.490 . S
C2120 C2122 1.395 . S
C2120 C2123 1.403 . S
H2121 C2127 0.930 . S
C2122 H2108 0.930 . S
C2122 C2120 1.395 . S
C2122 C2125 1.403 . S
C2123 C2120 1.403 . S
C2123 C2124 1.524 . S
C2123 C2127 1.400 . S
C2124 H2109 0.960 . S
C2124 H2110 0.960 . S
C2124 H2111 0.960 . S
C2124 C2123 1.524 . S
C2125 C2122 1.403 . S
C2125 C2126 1.392 . S
C2125 C2129 1.495 . S
C2126 C2125 1.392 . S
C2126 C2127 1.385 . S
C2126 C2128 1.478 . S
C2127 H2121 0.930 . S
C2127 C2123 1.400 . S
C2127 C2126 1.385 . S
C2128 C2126 1.478 . S
C2128 C2130 1.381 . S
C2128 C2134 1.383 . S
C2129 C2125 1.495 . S
C2129 H2135 0.959 . S
C2129 H2136 0.961 . S
C2129 H2137 0.960 . S
C2130 C2128 1.381 . S
C2130 C2131 1.394 . S
C2130 H2138 0.930 . S
C2131 C2130 1.394 . S
C2131 C2132 1.383 . S
C2131 H2139 0.929 . S
C2132 C2131 1.383 . S
C2132 C2133 1.377 . S
C2133 H2117 0.930 . S
C2133 C2132 1.377 . S
C2133 C2134 1.379 . S
C2134 H2118 0.931 . S
C2134 C2128 1.383 . S
C2134 C2133 1.379 . S
H2135 C2129 0.959 . S
H2136 C2129 0.961 . S
H2137 C2129 0.960 . S
H2138 C2130 0.930 . S
H2139 C2131 0.929 . S
H2140 C2148 0.929 . S
H2141 C2150 0.930 . S
H2142 C2152 0.930 . S
H2143 C2155 0.929 . S
H2144 C2158 0.930 . S
H2145 C2160 0.960 . S
H2146 C2160 0.960 . S
H2147 C2160 0.960 . S
C2148 H2140 0.929 . S
C2148 C2149 1.377 . S
C2148 C2150 1.384 . S
C2149 C2148 1.377 . S
C2149 C2155 1.390 . S
C2150 H2141 0.930 . S
C2150 C2148 1.384 . S
C2150 C2151 1.372 . S
C2151 C2150 1.372 . S
C2151 C2152 1.400 . S
C2151 C2156 1.490 . S
C2152 H2142 0.930 . S
C2152 C2151 1.400 . S
C2152 C2155 1.386 . S
H2153 C2169 0.930 . S
H2154 C2170 0.931 . S
C2155 H2143 0.929 . S
C2155 C2149 1.390 . S
C2155 C2152 1.386 . S
C2156 C2151 1.490 . S
C2156 C2158 1.395 . S
C2156 C2159 1.403 . S
H2157 C2163 0.930 . S
C2158 H2144 0.930 . S
C2158 C2156 1.395 . S
C2158 C2161 1.403 . S
C2159 C2156 1.403 . S
C2159 C2160 1.524 . S
C2159 C2163 1.400 . S
C2160 H2145 0.960 . S
C2160 H2146 0.960 . S
C2160 H2147 0.960 . S
C2160 C2159 1.524 . S
C2161 C2158 1.403 . S
C2161 C2162 1.392 . S
C2161 C2165 1.495 . S
C2162 C2161 1.392 . S
C2162 C2163 1.385 . S
C2162 C2164 1.478 . S
C2163 H2157 0.930 . S
C2163 C2159 1.400 . S
C2163 C2162 1.385 . S
C2164 C2162 1.478 . S
C2164 C2166 1.381 . S
C2164 C2170 1.383 . S
C2165 C2161 1.495 . S
C2165 H2171 0.959 . S
C2165 H2172 0.961 . S
C2165 H2173 0.960 . S
C2166 C2164 1.381 . S
C2166 C2167 1.394 . S
C2166 H2174 0.930 . S
C2167 C2166 1.394 . S
C2167 C2168 1.383 . S
C2167 H2175 0.929 . S
C2168 C2167 1.383 . S
C2168 C2169 1.377 . S
C2169 H2153 0.930 . S
C2169 C2168 1.377 . S
C2169 C2170 1.379 . S
C2170 H2154 0.931 . S
C2170 C2164 1.383 . S
C2170 C2169 1.379 . S
H2171 C2165 0.959 . S
H2172 C2165 0.961 . S
H2173 C2165 0.960 . S
H2174 C2166 0.930 . S
H2175 C2167 0.929 . S
H2176 C2184 0.929 . S
H2177 C2186 0.930 . S
H2178 C2188 0.930 . S
H2179 C2191 0.929 . S
H2180 C2194 0.930 . S
H2181 C2196 0.960 . S
H2182 C2196 0.960 . S
H2183 C2196 0.960 . S
C2184 H2176 0.929 . S
C2184 C2185 1.377 . S
C2184 C2186 1.384 . S
C2185 C2184 1.377 . S
C2185 C2191 1.390 . S
C2186 H2177 0.930 . S
C2186 C2184 1.384 . S
C2186 C2187 1.372 . S
C2187 C2186 1.372 . S
C2187 C2188 1.400 . S
C2187 C2192 1.490 . S
C2188 H2178 0.930 . S
C2188 C2187 1.400 . S
C2188 C2191 1.386 . S
H2189 C2205 0.930 . S
H2190 C2206 0.931 . S
C2191 H2179 0.929 . S
C2191 C2185 1.390 . S
C2191 C2188 1.386 . S
C2192 C2187 1.490 . S
C2192 C2194 1.395 . S
C2192 C2195 1.403 . S
H2193 C2199 0.930 . S
C2194 H2180 0.930 . S
C2194 C2192 1.395 . S
C2194 C2197 1.403 . S
C2195 C2192 1.403 . S
C2195 C2196 1.524 . S
C2195 C2199 1.400 . S
C2196 H2181 0.960 . S
C2196 H2182 0.960 . S
C2196 H2183 0.960 . S
C2196 C2195 1.524 . S
C2197 C2194 1.403 . S
C2197 C2198 1.392 . S
C2197 C2201 1.495 . S
C2198 C2197 1.392 . S
C2198 C2199 1.385 . S
C2198 C2200 1.478 . S
C2199 H2193 0.930 . S
C2199 C2195 1.400 . S
C2199 C2198 1.385 . S
C2200 C2198 1.478 . S
C2200 C2202 1.381 . S
C2200 C2206 1.383 . S
C2201 C2197 1.495 . S
C2201 H2207 0.959 . S
C2201 H2208 0.961 . S
C2201 H2209 0.960 . S
C2202 C2200 1.381 . S
C2202 C2203 1.394 . S
C2202 H2210 0.930 . S
C2203 C2202 1.394 . S
C2203 C2204 1.383 . S
C2203 H2211 0.929 . S
C2204 C2203 1.383 . S
C2204 C2205 1.377 . S
C2205 H2189 0.930 . S
C2205 C2204 1.377 . S
C2205 C2206 1.379 . S
C2206 H2190 0.931 . S
C2206 C2200 1.383 . S
C2206 C2205 1.379 . S
H2207 C2201 0.959 . S
H2208 C2201 0.961 . S
H2209 C2201 0.960 . S
H2210 C2202 0.930 . S
H2211 C2203 0.929 . S
H2212 C2220 0.929 . S
H2213 C2222 0.930 . S
H2214 C2224 0.930 . S
H2215 C2227 0.929 . S
H2216 C2230 0.930 . S
H2217 C2232 0.960 . S
H2218 C2232 0.960 . S
H2219 C2232 0.960 . S
C2220 H2212 0.929 . S
C2220 C2221 1.377 . S
C2220 C2222 1.384 . S
C2221 C2220 1.377 . S
C2221 C2227 1.390 . S
C2222 H2213 0.930 . S
C2222 C2220 1.384 . S
C2222 C2223 1.372 . S
C2223 C2222 1.372 . S
C2223 C2224 1.400 . S
C2223 C2228 1.490 . S
C2224 H2214 0.930 . S
C2224 C2223 1.400 . S
C2224 C2227 1.386 . S
H2225 C2241 0.930 . S
H2226 C2242 0.931 . S
C2227 H2215 0.929 . S
C2227 C2221 1.390 . S
C2227 C2224 1.386 . S
C2228 C2223 1.490 . S
C2228 C2230 1.395 . S
C2228 C2231 1.403 . S
H2229 C2235 0.930 . S
C2230 H2216 0.930 . S
C2230 C2228 1.395 . S
C2230 C2233 1.403 . S
C2231 C2228 1.403 . S
C2231 C2232 1.524 . S
C2231 C2235 1.400 . S
C2232 H2217 0.960 . S
C2232 H2218 0.960 . S
C2232 H2219 0.960 . S
C2232 C2231 1.524 . S
C2233 C2230 1.403 . S
C2233 C2234 1.392 . S
C2233 C2237 1.495 . S
C2234 C2233 1.392 . S
C2234 C2235 1.385 . S
C2234 C2236 1.478 . S
C2235 H2229 0.930 . S
C2235 C2231 1.400 . S
C2235 C2234 1.385 . S
C2236 C2234 1.478 . S
C2236 C2238 1.381 . S
C2236 C2242 1.383 . S
C2237 C2233 1.495 . S
C2237 H2243 0.959 . S
C2237 H2244 0.961 . S
C2237 H2245 0.960 . S
C2238 C2236 1.381 . S
C2238 C2239 1.406 . S
C2238 H2246 0.930 . S
C2239 C2238 1.406 . S
C2239 C2240 1.379 1_556 S
C2239 H2247 0.922 1_556 S
C2240 C2239 1.379 1_554 S
C2240 C2241 1.377 1_554 S
C2241 H2225 0.930 . S
C2241 C2240 1.377 1_556 S
C2241 C2242 1.379 . S
C2242 H2226 0.931 . S
C2242 C2236 1.383 . S
C2242 C2241 1.379 . S
H2243 C2237 0.959 . S
H2244 C2237 0.961 . S
H2245 C2237 0.960 . S
H2246 C2238 0.930 . S
H2247 C2239 0.922 1_554 S
H2248 C2256 0.920 1_556 S
H2249 C2258 0.930 . S
H2250 C2260 0.930 . S
H2251 C2263 0.929 1_556 S
H2252 C2266 0.930 . S
H2253 C2268 0.960 . S
H2254 C2268 0.960 . S
H2255 C2268 0.960 . S
C2256 H2248 0.920 1_554 S
C2256 C2257 1.377 1_554 S
C2256 C2258 1.384 . S
C2257 C2256 1.377 1_556 S
C2257 C2263 1.390 1_556 S
C2258 H2249 0.930 . S
C2258 C2256 1.384 . S
C2258 C2259 1.372 . S
C2259 C2258 1.372 . S
C2259 C2260 1.400 . S
C2259 C2264 1.490 . S
C2260 H2250 0.930 . S
C2260 C2259 1.400 . S
C2260 C2263 1.386 . S
H2261 C2277 0.930 . S
H2262 C2278 0.931 . S
C2263 H2251 0.929 1_554 S
C2263 C2257 1.390 1_554 S
C2263 C2260 1.386 . S
C2264 C2259 1.490 . S
C2264 C2266 1.395 . S
C2264 C2267 1.403 . S
H2265 C2271 0.930 . S
C2266 H2252 0.930 . S
C2266 C2264 1.395 . S
C2266 C2269 1.403 . S
C2267 C2264 1.403 . S
C2267 C2268 1.524 . S
C2267 C2271 1.400 . S
C2268 H2253 0.960 . S
C2268 H2254 0.960 . S
C2268 H2255 0.960 . S
C2268 C2267 1.524 . S
C2269 C2266 1.403 . S
C2269 C2270 1.392 . S
C2269 C2273 1.495 . S
C2270 C2269 1.392 . S
C2270 C2271 1.385 . S
C2270 C2272 1.478 . S
C2271 H2265 0.930 . S
C2271 C2267 1.400 . S
C2271 C2270 1.385 . S
C2272 C2270 1.478 . S
C2272 C2274 1.381 . S
C2272 C2278 1.383 . S
C2273 C2269 1.495 . S
C2273 H2279 0.959 . S
C2273 H2280 0.961 . S
C2273 H2281 0.960 . S
C2274 C2272 1.381 . S
C2274 C2275 1.394 . S
C2274 H2282 0.930 . S
C2275 C2274 1.394 . S
C2275 C2276 1.383 . S
C2275 H2283 0.929 . S
C2276 C2275 1.383 . S
C2276 C2277 1.377 . S
C2277 H2261 0.930 . S
C2277 C2276 1.377 . S
C2277 C2278 1.379 . S
C2278 H2262 0.931 . S
C2278 C2272 1.383 . S
C2278 C2277 1.379 . S
H2279 C2273 0.959 . S
H2280 C2273 0.961 . S
H2281 C2273 0.960 . S
H2282 C2274 0.930 . S
H2283 C2275 0.929 . S
H2284 C2292 0.929 . S
H2285 C2294 0.930 . S
H2286 C2296 0.930 . S
H2287 C2299 0.929 . S
H2288 C2302 0.930 . S
H2289 C2304 0.960 . S
H2290 C2304 0.960 . S
H2291 C2304 0.960 . S
C2292 H2284 0.929 . S
C2292 C2293 1.377 . S
C2292 C2294 1.384 . S
C2293 C2292 1.377 . S
C2293 C2299 1.390 . S
C2294 H2285 0.930 . S
C2294 C2292 1.384 . S
C2294 C2295 1.372 . S
C2295 C2294 1.372 . S
C2295 C2296 1.400 . S
C2295 C2300 1.490 . S
C2296 H2286 0.930 . S
C2296 C2295 1.400 . S
C2296 C2299 1.386 . S
H2297 C2313 0.930 . S
H2298 C2314 0.931 . S
C2299 H2287 0.929 . S
C2299 C2293 1.390 . S
C2299 C2296 1.386 . S
C2300 C2295 1.490 . S
C2300 C2302 1.395 . S
C2300 C2303 1.403 . S
H2301 C2307 0.930 . S
C2302 H2288 0.930 . S
C2302 C2300 1.395 . S
C2302 C2305 1.403 . S
C2303 C2300 1.403 . S
C2303 C2304 1.524 . S
C2303 C2307 1.400 . S
C2304 H2289 0.960 . S
C2304 H2290 0.960 . S
C2304 H2291 0.960 . S
C2304 C2303 1.524 . S
C2305 C2302 1.403 . S
C2305 C2306 1.392 . S
C2305 C2309 1.495 . S
C2306 C2305 1.392 . S
C2306 C2307 1.385 . S
C2306 C2308 1.478 . S
C2307 H2301 0.930 . S
C2307 C2303 1.400 . S
C2307 C2306 1.385 . S
C2308 C2306 1.478 . S
C2308 C2310 1.381 . S
C2308 C2314 1.383 . S
C2309 C2305 1.495 . S
C2309 H2315 0.959 . S
C2309 H2316 0.961 . S
C2309 H2317 0.960 . S
C2310 C2308 1.381 . S
C2310 C2311 1.394 . S
C2310 H2318 0.930 . S
C2311 C2310 1.394 . S
C2311 C2312 1.383 . S
C2311 H2319 0.929 . S
C2312 C2311 1.383 . S
C2312 C2313 1.377 . S
C2313 H2297 0.930 . S
C2313 C2312 1.377 . S
C2313 C2314 1.379 . S
C2314 H2298 0.931 . S
C2314 C2308 1.383 . S
C2314 C2313 1.379 . S
H2315 C2309 0.959 . S
H2316 C2309 0.961 . S
H2317 C2309 0.960 . S
H2318 C2310 0.930 . S
H2319 C2311 0.929 . S
H2320 C2328 0.929 . S
H2321 C2330 0.930 . S
H2322 C2332 0.930 . S
H2323 C2335 0.929 . S
H2324 C2338 0.930 . S
H2325 C2340 0.960 . S
H2326 C2340 0.960 . S
H2327 C2340 0.960 . S
C2328 H2320 0.929 . S
C2328 C2329 1.377 . S
C2328 C2330 1.384 . S
C2329 C2328 1.377 . S
C2329 C2335 1.390 . S
C2330 H2321 0.930 . S
C2330 C2328 1.384 . S
C2330 C2331 1.372 . S
C2331 C2330 1.372 . S
C2331 C2332 1.400 . S
C2331 C2336 1.490 . S
C2332 H2322 0.930 . S
C2332 C2331 1.400 . S
C2332 C2335 1.386 . S
H2333 C2349 0.930 . S
H2334 C2350 0.931 . S
C2335 H2323 0.929 . S
C2335 C2329 1.390 . S
C2335 C2332 1.386 . S
C2336 C2331 1.490 . S
C2336 C2338 1.395 . S
C2336 C2339 1.403 . S
H2337 C2343 0.930 . S
C2338 H2324 0.930 . S
C2338 C2336 1.395 . S
C2338 C2341 1.403 . S
C2339 C2336 1.403 . S
C2339 C2340 1.524 . S
C2339 C2343 1.400 . S
C2340 H2325 0.960 . S
C2340 H2326 0.960 . S
C2340 H2327 0.960 . S
C2340 C2339 1.524 . S
C2341 C2338 1.403 . S
C2341 C2342 1.392 . S
C2341 C2345 1.495 . S
C2342 C2341 1.392 . S
C2342 C2343 1.385 . S
C2342 C2344 1.478 . S
C2343 H2337 0.930 . S
C2343 C2339 1.400 . S
C2343 C2342 1.385 . S
C2344 C2342 1.478 . S
C2344 C2346 1.381 . S
C2344 C2350 1.383 . S
C2345 C2341 1.495 . S
C2345 H2351 0.959 . S
C2345 H2352 0.961 . S
C2345 H2353 0.960 . S
C2346 C2344 1.381 . S
C2346 C2347 1.394 . S
C2346 H2354 0.930 . S
C2347 C2346 1.394 . S
C2347 C2348 1.383 . S
C2347 H2355 0.929 . S
C2348 C2347 1.383 . S
C2348 C2349 1.377 . S
C2349 H2333 0.930 . S
C2349 C2348 1.377 . S
C2349 C2350 1.379 . S
C2350 H2334 0.931 . S
C2350 C2344 1.383 . S
C2350 C2349 1.379 . S
H2351 C2345 0.959 . S
H2352 C2345 0.961 . S
H2353 C2345 0.960 . S
H2354 C2346 0.930 . S
H2355 C2347 0.929 . S
H2356 C2364 0.929 1_556 S
H2357 C2366 0.930 . S
H2358 C2368 0.930 . S
H2359 C2371 0.929 1_556 S
H2360 C2374 0.930 . S
H2361 C2376 0.960 . S
H2362 C2376 0.960 . S
H2363 C2376 0.960 . S
C2364 H2356 0.929 1_554 S
C2364 C2365 1.377 1_554 S
C2364 C2366 1.384 . S
C2365 C2364 1.377 1_556 S
C2365 C2371 1.390 1_556 S
C2366 H2357 0.930 . S
C2366 C2364 1.384 . S
C2366 C2367 1.372 . S
C2367 C2366 1.372 . S
C2367 C2368 1.400 . S
C2367 C2372 1.490 . S
C2368 H2358 0.930 . S
C2368 C2367 1.400 . S
C2368 C2371 1.386 . S
H2369 C2385 0.930 . S
H2370 C2386 0.931 . S
C2371 H2359 0.929 1_554 S
C2371 C2365 1.390 1_554 S
C2371 C2368 1.386 . S
C2372 C2367 1.490 . S
C2372 C2374 1.395 . S
C2372 C2375 1.403 . S
H2373 C2379 0.930 . S
C2374 H2360 0.930 . S
C2374 C2372 1.395 . S
C2374 C2377 1.403 . S
C2375 C2372 1.403 . S
C2375 C2376 1.524 . S
C2375 C2379 1.400 . S
C2376 H2361 0.960 . S
C2376 H2362 0.960 . S
C2376 H2363 0.960 . S
C2376 C2375 1.524 . S
C2377 C2374 1.403 . S
C2377 C2378 1.392 . S
C2377 C2381 1.495 . S
C2378 C2377 1.392 . S
C2378 C2379 1.385 . S
C2378 C2380 1.478 . S
C2379 H2373 0.930 . S
C2379 C2375 1.400 . S
C2379 C2378 1.385 . S
C2380 C2378 1.478 . S
C2380 C2382 1.381 . S
C2380 C2386 1.383 . S
C2381 C2377 1.495 . S
C2381 H2387 0.959 . S
C2381 H2388 0.961 . S
C2381 H2389 0.960 . S
C2382 C2380 1.381 . S
C2382 C2383 1.394 . S
C2382 H2390 0.930 . S
C2383 C2382 1.394 . S
C2383 C2384 1.383 . S
C2383 H2391 0.929 . S
C2384 C2383 1.383 . S
C2384 C2385 1.377 . S
C2385 H2369 0.930 . S
C2385 C2384 1.377 . S
C2385 C2386 1.379 . S
C2386 H2370 0.931 . S
C2386 C2380 1.383 . S
C2386 C2385 1.379 . S
H2387 C2381 0.959 . S
H2388 C2381 0.961 . S
H2389 C2381 0.960 . S
H2390 C2382 0.930 . S
H2391 C2383 0.929 . S
H2392 C2400 0.929 . S
H2393 C2402 0.930 . S
H2394 C2404 0.930 . S
H2395 C2407 0.929 . S
H2396 C2410 0.930 . S
H2397 C2412 0.960 . S
H2398 C2412 0.960 . S
H2399 C2412 0.960 . S
C2400 H2392 0.929 . S
C2400 C2401 1.377 . S
C2400 C2402 1.384 . S
C2401 C2400 1.377 . S
C2401 C2407 1.390 . S
C2402 H2393 0.930 . S
C2402 C2400 1.384 . S
C2402 C2403 1.372 . S
C2403 C2402 1.372 . S
C2403 C2404 1.400 . S
C2403 C2408 1.490 . S
C2404 H2394 0.930 . S
C2404 C2403 1.400 . S
C2404 C2407 1.386 . S
H2405 C2421 0.930 1_554 S
H2406 C2422 0.931 . S
C2407 H2395 0.929 . S
C2407 C2401 1.390 . S
C2407 C2404 1.386 . S
C2408 C2403 1.490 . S
C2408 C2410 1.395 . S
C2408 C2411 1.403 . S
H2409 C2415 0.930 . S
C2410 H2396 0.930 . S
C2410 C2408 1.395 . S
C2410 C2413 1.403 . S
C2411 C2408 1.403 . S
C2411 C2412 1.524 . S
C2411 C2415 1.400 . S
C2412 H2397 0.960 . S
C2412 H2398 0.960 . S
C2412 H2399 0.960 . S
C2412 C2411 1.524 . S
C2413 C2410 1.403 . S
C2413 C2414 1.392 . S
C2413 C2417 1.495 . S
C2414 C2413 1.392 . S
C2414 C2415 1.385 . S
C2414 C2416 1.478 . S
C2415 H2409 0.930 . S
C2415 C2411 1.400 . S
C2415 C2414 1.385 . S
C2416 C2414 1.478 . S
C2416 C2418 1.381 . S
C2416 C2422 1.383 . S
C2417 C2413 1.495 . S
C2417 H2423 0.959 . S
C2417 H2424 0.961 . S
C2417 H2425 0.960 . S
C2418 C2416 1.381 . S
C2418 C2419 1.394 . S
C2418 H2426 0.930 . S
C2419 C2418 1.394 . S
C2419 C2420 1.383 1_556 S
C2419 H2427 0.933 . S
C2420 C2419 1.383 1_554 S
C2420 C2421 1.377 1_554 S
C2421 H2405 0.930 1_556 S
C2421 C2420 1.377 1_556 S
C2421 C2422 1.379 . S
C2422 H2406 0.931 . S
C2422 C2416 1.383 . S
C2422 C2421 1.379 . S
H2423 C2417 0.959 . S
H2424 C2417 0.961 . S
H2425 C2417 0.960 . S
H2426 C2418 0.930 . S
H2427 C2419 0.933 . S
H2428 C2436 0.929 . S
H2429 C2438 0.930 . S
H2430 C2440 0.930 . S
H2431 C2443 0.929 . S
H2432 C2446 0.930 . S
H2433 C2448 0.960 . S
H2434 C2448 0.960 . S
H2435 C2448 0.960 . S
C2436 H2428 0.929 . S
C2436 C2437 1.377 . S
C2436 C2438 1.384 . S
C2437 C2436 1.377 . S
C2437 C2443 1.390 . S
C2438 H2429 0.930 . S
C2438 C2436 1.384 . S
C2438 C2439 1.372 . S
C2439 C2438 1.372 . S
C2439 C2440 1.400 . S
C2439 C2444 1.490 . S
C2440 H2430 0.930 . S
C2440 C2439 1.400 . S
C2440 C2443 1.386 . S
H2441 C2457 0.930 . S
H2442 C2458 0.931 . S
C2443 H2431 0.929 . S
C2443 C2437 1.390 . S
C2443 C2440 1.386 . S
C2444 C2439 1.490 . S
C2444 C2446 1.395 . S
C2444 C2447 1.403 . S
H2445 C2451 0.930 . S
C2446 H2432 0.930 . S
C2446 C2444 1.395 . S
C2446 C2449 1.403 . S
C2447 C2444 1.403 . S
C2447 C2448 1.524 . S
C2447 C2451 1.400 . S
C2448 H2433 0.960 . S
C2448 H2434 0.960 . S
C2448 H2435 0.960 . S
C2448 C2447 1.524 . S
C2449 C2446 1.403 . S
C2449 C2450 1.392 . S
C2449 C2453 1.495 . S
C2450 C2449 1.392 . S
C2450 C2451 1.385 . S
C2450 C2452 1.478 . S
C2451 H2445 0.930 . S
C2451 C2447 1.400 . S
C2451 C2450 1.385 . S
C2452 C2450 1.478 . S
C2452 C2454 1.381 . S
C2452 C2458 1.383 . S
C2453 C2449 1.495 . S
C2453 H2459 0.959 . S
C2453 H2460 0.961 . S
C2453 H2461 0.960 . S
C2454 C2452 1.381 . S
C2454 C2455 1.394 . S
C2454 H2462 0.930 . S
C2455 C2454 1.394 . S
C2455 C2456 1.383 . S
C2455 H2463 0.929 . S
C2456 C2455 1.383 . S
C2456 C2457 1.377 . S
C2457 H2441 0.930 . S
C2457 C2456 1.377 . S
C2457 C2458 1.379 . S
C2458 H2442 0.931 . S
C2458 C2452 1.383 . S
C2458 C2457 1.379 . S
H2459 C2453 0.959 . S
H2460 C2453 0.961 . S
H2461 C2453 0.960 . S
H2462 C2454 0.930 . S
H2463 C2455 0.929 . S
H2464 C2472 0.932 . S
H2465 C2474 0.930 . S
H2466 C2476 0.930 . S
H2467 C2479 0.929 1_556 S
H2468 C2482 0.930 . S
H2469 C2484 0.960 . S
H2470 C2484 0.960 . S
H2471 C2484 0.960 . S
C2472 H2464 0.932 . S
C2472 C2473 1.377 1_554 S
C2472 C2474 1.384 . S
C2473 C2472 1.377 1_556 S
C2473 C2479 1.390 1_556 S
C2474 H2465 0.930 . S
C2474 C2472 1.384 . S
C2474 C2475 1.372 . S
C2475 C2474 1.372 . S
C2475 C2476 1.400 . S
C2475 C2480 1.490 . S
C2476 H2466 0.930 . S
C2476 C2475 1.400 . S
C2476 C2479 1.386 . S
H2477 C2493 0.930 . S
H2478 C2494 0.931 . S
C2479 H2467 0.929 1_554 S
C2479 C2473 1.390 1_554 S
C2479 C2476 1.386 . S
C2480 C2475 1.490 . S
C2480 C2482 1.395 . S
C2480 C2483 1.403 . S
H2481 C2487 0.930 . S
C2482 H2468 0.930 . S
C2482 C2480 1.395 . S
C2482 C2485 1.403 . S
C2483 C2480 1.403 . S
C2483 C2484 1.524 . S
C2483 C2487 1.400 . S
C2484 H2469 0.960 . S
C2484 H2470 0.960 . S
C2484 H2471 0.960 . S
C2484 C2483 1.524 . S
C2485 C2482 1.403 . S
C2485 C2486 1.392 . S
C2485 C2489 1.495 . S
C2486 C2485 1.392 . S
C2486 C2487 1.385 . S
C2486 C2488 1.478 . S
C2487 H2481 0.930 . S
C2487 C2483 1.400 . S
C2487 C2486 1.385 . S
C2488 C2486 1.478 . S
C2488 C2490 1.381 . S
C2488 C2494 1.383 . S
C2489 C2485 1.495 . S
C2489 H2495 0.959 . S
C2489 H2496 0.961 . S
C2489 H2497 0.960 . S
C2490 C2488 1.381 . S
C2490 C2491 1.394 . S
C2490 H2498 0.930 . S
C2491 C2490 1.394 . S
C2491 C2492 1.383 . S
C2491 H2499 0.929 . S
C2492 C2491 1.383 . S
C2492 C2493 1.377 . S
C2493 H2477 0.930 . S
C2493 C2492 1.377 . S
C2493 C2494 1.379 . S
C2494 H2478 0.931 . S
C2494 C2488 1.383 . S
C2494 C2493 1.379 . S
H2495 C2489 0.959 . S
H2496 C2489 0.961 . S
H2497 C2489 0.960 . S
H2498 C2490 0.930 . S
H2499 C2491 0.929 . S
H2500 C2508 0.929 . S
H2501 C2510 0.930 . S
H2502 C2512 0.930 . S
H2503 C2515 0.929 . S
H2504 C2518 0.930 . S
H2505 C2520 0.960 . S
H2506 C2520 0.960 . S
H2507 C2520 0.960 . S
C2508 H2500 0.929 . S
C2508 C2509 1.377 . S
C2508 C2510 1.384 . S
C2509 C2508 1.377 . S
C2509 C2515 1.390 . S
C2510 H2501 0.930 . S
C2510 C2508 1.384 . S
C2510 C2511 1.372 . S
C2511 C2510 1.372 . S
C2511 C2512 1.400 . S
C2511 C2516 1.490 . S
C2512 H2502 0.930 . S
C2512 C2511 1.400 . S
C2512 C2515 1.386 . S
H2513 C2529 0.930 . S
H2514 C2530 0.931 . S
C2515 H2503 0.929 . S
C2515 C2509 1.390 . S
C2515 C2512 1.386 . S
C2516 C2511 1.490 . S
C2516 C2518 1.395 . S
C2516 C2519 1.403 . S
H2517 C2523 0.930 . S
C2518 H2504 0.930 . S
C2518 C2516 1.395 . S
C2518 C2521 1.403 . S
C2519 C2516 1.403 . S
C2519 C2520 1.524 . S
C2519 C2523 1.400 . S
C2520 H2505 0.960 . S
C2520 H2506 0.960 . S
C2520 H2507 0.960 . S
C2520 C2519 1.524 . S
C2521 C2518 1.403 . S
C2521 C2522 1.392 . S
C2521 C2525 1.495 . S
C2522 C2521 1.392 . S
C2522 C2523 1.385 . S
C2522 C2524 1.478 . S
C2523 H2517 0.930 . S
C2523 C2519 1.400 . S
C2523 C2522 1.385 . S
C2524 C2522 1.478 . S
C2524 C2526 1.381 . S
C2524 C2530 1.383 . S
C2525 C2521 1.495 . S
C2525 H2531 0.959 . S
C2525 H2532 0.961 . S
C2525 H2533 0.960 . S
C2526 C2524 1.381 . S
C2526 C2527 1.394 . S
C2526 H2534 0.930 . S
C2527 C2526 1.394 . S
C2527 C2528 1.383 . S
C2527 H2535 0.929 . S
C2528 C2527 1.383 . S
C2528 C2529 1.377 . S
C2529 H2513 0.930 . S
C2529 C2528 1.377 . S
C2529 C2530 1.379 . S
C2530 H2514 0.931 . S
C2530 C2524 1.383 . S
C2530 C2529 1.379 . S
H2531 C2525 0.959 . S
H2532 C2525 0.961 . S
H2533 C2525 0.960 . S
H2534 C2526 0.930 . S
H2535 C2527 0.929 . S
H2536 C2544 0.929 . S
H2537 C2546 0.930 . S
H2538 C2548 0.930 . S
H2539 C2551 0.929 . S
H2540 C2554 0.930 . S
H2541 C2556 0.960 . S
H2542 C2556 0.960 . S
H2543 C2556 0.960 . S
C2544 H2536 0.929 . S
C2544 C2545 1.377 . S
C2544 C2546 1.384 . S
C2545 C2544 1.377 . S
C2545 C2551 1.390 . S
C2546 H2537 0.930 . S
C2546 C2544 1.384 . S
C2546 C2547 1.372 . S
C2547 C2546 1.372 . S
C2547 C2548 1.400 . S
C2547 C2552 1.490 . S
C2548 H2538 0.930 . S
C2548 C2547 1.400 . S
C2548 C2551 1.386 . S
H2549 C2565 0.930 . S
H2550 C2566 0.931 . S
C2551 H2539 0.929 . S
C2551 C2545 1.390 . S
C2551 C2548 1.386 . S
C2552 C2547 1.490 . S
C2552 C2554 1.395 . S
C2552 C2555 1.403 . S
H2553 C2559 0.930 . S
C2554 H2540 0.930 . S
C2554 C2552 1.395 . S
C2554 C2557 1.403 . S
C2555 C2552 1.403 . S
C2555 C2556 1.524 . S
C2555 C2559 1.400 . S
C2556 H2541 0.960 . S
C2556 H2542 0.960 . S
C2556 H2543 0.960 . S
C2556 C2555 1.524 . S
C2557 C2554 1.403 . S
C2557 C2558 1.392 . S
C2557 C2561 1.495 . S
C2558 C2557 1.392 . S
C2558 C2559 1.385 . S
C2558 C2560 1.478 . S
C2559 H2553 0.930 . S
C2559 C2555 1.400 . S
C2559 C2558 1.385 . S
C2560 C2558 1.478 . S
C2560 C2562 1.381 . S
C2560 C2566 1.383 . S
C2561 C2557 1.495 . S
C2561 H2567 0.959 . S
C2561 H2568 0.961 . S
C2561 H2569 0.960 . S
C2562 C2560 1.381 . S
C2562 C2563 1.394 . S
C2562 H2570 0.930 . S
C2563 C2562 1.394 . S
C2563 C2564 1.383 . S
C2563 H2571 0.929 . S
C2564 C2563 1.383 . S
C2564 C2565 1.377 . S
C2565 H2549 0.930 . S
C2565 C2564 1.377 . S
C2565 C2566 1.379 . S
C2566 H2550 0.931 . S
C2566 C2560 1.383 . S
C2566 C2565 1.379 . S
H2567 C2561 0.959 . S
H2568 C2561 0.961 . S
H2569 C2561 0.960 . S
H2570 C2562 0.930 . S
H2571 C2563 0.929 . S
H2572 C2580 0.936 . S
H2573 C2582 0.930 . S
H2574 C2584 0.930 . S
H2575 C2587 0.929 . S
H2576 C2590 0.930 . S
H2577 C2592 0.960 . S
H2578 C2592 0.960 . S
H2579 C2592 0.960 . S
C2580 H2572 0.936 . S
C2580 C2581 1.380 . S
C2580 C2582 1.375 1_554 S
C2581 C2580 1.380 . S
C2581 C2587 1.390 1_554 S
C2582 H2573 0.930 . S
C2582 C2580 1.375 1_556 S
C2582 C2583 1.372 . S
C2583 C2582 1.372 . S
C2583 C2584 1.400 . S
C2583 C2588 1.490 . S
C2584 H2574 0.930 . S
C2584 C2583 1.400 . S
C2584 C2587 1.386 . S
H2585 C2601 0.930 . S
H2586 C2602 0.931 . S
C2587 H2575 0.929 . S
C2587 C2581 1.390 1_556 S
C2587 C2584 1.386 . S
C2588 C2583 1.490 . S
C2588 C2590 1.395 . S
C2588 C2591 1.403 . S
H2589 C2595 0.930 . S
C2590 H2576 0.930 . S
C2590 C2588 1.395 . S
C2590 C2593 1.403 . S
C2591 C2588 1.403 . S
C2591 C2592 1.524 . S
C2591 C2595 1.400 . S
C2592 H2577 0.960 . S
C2592 H2578 0.960 . S
C2592 H2579 0.960 . S
C2592 C2591 1.524 . S
C2593 C2590 1.403 . S
C2593 C2594 1.392 . S
C2593 C2597 1.495 . S
C2594 C2593 1.392 . S
C2594 C2595 1.385 . S
C2594 C2596 1.478 . S
C2595 H2589 0.930 . S
C2595 C2591 1.400 . S
C2595 C2594 1.385 . S
C2596 C2594 1.478 . S
C2596 C2598 1.381 . S
C2596 C2602 1.383 . S
C2597 C2593 1.495 . S
C2597 H2603 0.959 . S
C2597 H2604 0.961 . S
C2597 H2605 0.960 . S
C2598 C2596 1.381 . S
C2598 C2599 1.394 . S
C2598 H2606 0.930 . S
C2599 C2598 1.394 . S
C2599 C2600 1.383 . S
C2599 H2607 0.929 . S
C2600 C2599 1.383 . S
C2600 C2601 1.377 . S
C2601 H2585 0.930 . S
C2601 C2600 1.377 . S
C2601 C2602 1.379 . S
C2602 H2586 0.931 . S
C2602 C2596 1.383 . S
C2602 C2601 1.379 . S
H2603 C2597 0.959 . S
H2604 C2597 0.961 . S
H2605 C2597 0.960 . S
H2606 C2598 0.930 . S
H2607 C2599 0.929 . S
H2608 C2616 0.929 . S
H2609 C2618 0.930 . S
H2610 C2620 0.930 . S
H2611 C2623 0.929 . S
H2612 C2626 0.930 . S
H2613 C2628 0.960 . S
H2614 C2628 0.960 . S
H2615 C2628 0.960 . S
C2616 H2608 0.929 . S
C2616 C2617 1.377 . S
C2616 C2618 1.384 . S
C2617 C2616 1.377 . S
C2617 C2623 1.390 . S
C2618 H2609 0.930 . S
C2618 C2616 1.384 . S
C2618 C2619 1.372 . S
C2619 C2618 1.372 . S
C2619 C2620 1.400 . S
C2619 C2624 1.490 . S
C2620 H2610 0.930 . S
C2620 C2619 1.400 . S
C2620 C2623 1.386 . S
H2621 C2637 0.930 . S
H2622 C2638 0.931 . S
C2623 H2611 0.929 . S
C2623 C2617 1.390 . S
C2623 C2620 1.386 . S
C2624 C2619 1.490 . S
C2624 C2626 1.395 . S
C2624 C2627 1.403 . S
H2625 C2631 0.930 . S
C2626 H2612 0.930 . S
C2626 C2624 1.395 . S
C2626 C2629 1.403 . S
C2627 C2624 1.403 . S
C2627 C2628 1.524 . S
C2627 C2631 1.400 . S
C2628 H2613 0.960 . S
C2628 H2614 0.960 . S
C2628 H2615 0.960 . S
C2628 C2627 1.524 . S
C2629 C2626 1.403 . S
C2629 C2630 1.392 . S
C2629 C2633 1.495 . S
C2630 C2629 1.392 . S
C2630 C2631 1.385 . S
C2630 C2632 1.478 . S
C2631 H2625 0.930 . S
C2631 C2627 1.400 . S
C2631 C2630 1.385 . S
C2632 C2630 1.478 . S
C2632 C2634 1.381 . S
C2632 C2638 1.383 . S
C2633 C2629 1.495 . S
C2633 H2639 0.959 . S
C2633 H2640 0.961 . S
C2633 H2641 0.960 . S
C2634 C2632 1.381 . S
C2634 C2635 1.372 1_556 S
C2634 H2642 0.930 . S
C2635 C2634 1.372 1_554 S
C2635 C2636 1.390 . S
C2635 H2643 0.945 . S
C2636 C2635 1.390 . S
C2636 C2637 1.377 1_554 S
C2637 H2621 0.930 . S
C2637 C2636 1.377 1_556 S
C2637 C2638 1.379 . S
C2638 H2622 0.931 . S
C2638 C2632 1.383 . S
C2638 C2637 1.379 . S
H2639 C2633 0.959 . S
H2640 C2633 0.961 . S
H2641 C2633 0.960 . S
H2642 C2634 0.930 . S
H2643 C2635 0.945 . S
H2644 C2652 0.929 . S
H2645 C2654 0.930 . S
H2646 C2656 0.930 . S
H2647 C2659 0.929 . S
H2648 C2662 0.930 . S
H2649 C2664 0.960 . S
H2650 C2664 0.960 . S
H2651 C2664 0.960 . S
C2652 H2644 0.929 . S
C2652 C2653 1.377 . S
C2652 C2654 1.384 . S
C2653 C2652 1.377 . S
C2653 C2659 1.390 . S
C2654 H2645 0.930 . S
C2654 C2652 1.384 . S
C2654 C2655 1.372 . S
C2655 C2654 1.372 . S
C2655 C2656 1.400 . S
C2655 C2660 1.490 . S
C2656 H2646 0.930 . S
C2656 C2655 1.400 . S
C2656 C2659 1.386 . S
H2657 C2673 0.930 . S
H2658 C2674 0.931 . S
C2659 H2647 0.929 . S
C2659 C2653 1.390 . S
C2659 C2656 1.386 . S
C2660 C2655 1.490 . S
C2660 C2662 1.395 . S
C2660 C2663 1.403 . S
H2661 C2667 0.930 . S
C2662 H2648 0.930 . S
C2662 C2660 1.395 . S
C2662 C2665 1.403 . S
C2663 C2660 1.403 . S
C2663 C2664 1.524 . S
C2663 C2667 1.400 . S
C2664 H2649 0.960 . S
C2664 H2650 0.960 . S
C2664 H2651 0.960 . S
C2664 C2663 1.524 . S
C2665 C2662 1.403 . S
C2665 C2666 1.392 . S
C2665 C2669 1.495 . S
C2666 C2665 1.392 . S
C2666 C2667 1.385 . S
C2666 C2668 1.478 . S
C2667 H2661 0.930 . S
C2667 C2663 1.400 . S
C2667 C2666 1.385 . S
C2668 C2666 1.478 . S
C2668 C2670 1.381 . S
C2668 C2674 1.383 . S
C2669 C2665 1.495 . S
C2669 H2675 0.959 . S
C2669 H2676 0.961 . S
C2669 H2677 0.960 . S
C2670 C2668 1.381 . S
C2670 C2671 1.394 . S
C2670 H2678 0.930 . S
C2671 C2670 1.394 . S
C2671 C2672 1.383 . S
C2671 H2679 0.929 . S
C2672 C2671 1.383 . S
C2672 C2673 1.377 . S
C2673 H2657 0.930 . S
C2673 C2672 1.377 . S
C2673 C2674 1.379 . S
C2674 H2658 0.931 . S
C2674 C2668 1.383 . S
C2674 C2673 1.379 . S
H2675 C2669 0.959 . S
H2676 C2669 0.961 . S
H2677 C2669 0.960 . S
H2678 C2670 0.930 . S
H2679 C2671 0.929 . S
H2680 C2688 0.929 . S
H2681 C2690 0.930 . S
H2682 C2692 0.930 . S
H2683 C2695 0.929 . S
H2684 C2698 0.930 . S
H2685 C2700 0.960 . S
H2686 C2700 0.960 . S
H2687 C2700 0.960 . S
C2688 H2680 0.929 . S
C2688 C2689 1.377 . S
C2688 C2690 1.384 . S
C2689 C2688 1.377 . S
C2689 C2695 1.390 . S
C2690 H2681 0.930 . S
C2690 C2688 1.384 . S
C2690 C2691 1.372 . S
C2691 C2690 1.372 . S
C2691 C2692 1.400 . S
C2691 C2696 1.490 . S
C2692 H2682 0.930 . S
C2692 C2691 1.400 . S
C2692 C2695 1.386 . S
H2693 C2709 0.930 . S
H2694 C2710 0.931 . S
C2695 H2683 0.929 . S
C2695 C2689 1.390 . S
C2695 C2692 1.386 . S
C2696 C2691 1.490 . S
C2696 C2698 1.395 . S
C2696 C2699 1.403 . S
H2697 C2703 0.930 . S
C2698 H2684 0.930 . S
C2698 C2696 1.395 . S
C2698 C2701 1.403 . S
C2699 C2696 1.403 . S
C2699 C2700 1.524 . S
C2699 C2703 1.400 . S
C2700 H2685 0.960 . S
C2700 H2686 0.960 . S
C2700 H2687 0.960 . S
C2700 C2699 1.524 . S
C2701 C2698 1.403 . S
C2701 C2702 1.392 . S
C2701 C2705 1.495 . S
C2702 C2701 1.392 . S
C2702 C2703 1.385 . S
C2702 C2704 1.478 . S
C2703 H2697 0.930 . S
C2703 C2699 1.400 . S
C2703 C2702 1.385 . S
C2704 C2702 1.478 . S
C2704 C2706 1.381 . S
C2704 C2710 1.383 . S
C2705 C2701 1.495 . S
C2705 H2711 0.959 . S
C2705 H2712 0.961 . S
C2705 H2713 0.960 . S
C2706 C2704 1.381 . S
C2706 C2707 1.394 . S
C2706 H2714 0.930 . S
C2707 C2706 1.394 . S
C2707 C2708 1.383 . S
C2707 H2715 0.929 . S
C2708 C2707 1.383 . S
C2708 C2709 1.377 . S
C2709 H2693 0.930 . S
C2709 C2708 1.377 . S
C2709 C2710 1.379 . S
C2710 H2694 0.931 . S
C2710 C2704 1.383 . S
C2710 C2709 1.379 . S
H2711 C2705 0.959 . S
H2712 C2705 0.961 . S
H2713 C2705 0.960 . S
H2714 C2706 0.930 . S
H2715 C2707 0.929 . S
H2716 C2724 0.929 . S
H2717 C2726 0.930 . S
H2718 C2728 0.930 . S
H2719 C2731 0.929 . S
H2720 C2734 0.930 . S
H2721 C2736 0.960 . S
H2722 C2736 0.960 . S
H2723 C2736 0.960 . S
C2724 H2716 0.929 . S
C2724 C2725 1.377 . S
C2724 C2726 1.384 . S
C2725 C2724 1.377 . S
C2725 C2731 1.390 . S
C2726 H2717 0.930 . S
C2726 C2724 1.384 . S
C2726 C2727 1.372 . S
C2727 C2726 1.372 . S
C2727 C2728 1.400 . S
C2727 C2732 1.490 . S
C2728 H2718 0.930 . S
C2728 C2727 1.400 . S
C2728 C2731 1.386 . S
H2729 C2745 0.930 . S
H2730 C2746 0.931 . S
C2731 H2719 0.929 . S
C2731 C2725 1.390 . S
C2731 C2728 1.386 . S
C2732 C2727 1.490 . S
C2732 C2734 1.395 . S
C2732 C2735 1.403 . S
H2733 C2739 0.930 . S
C2734 H2720 0.930 . S
C2734 C2732 1.395 . S
C2734 C2737 1.403 . S
C2735 C2732 1.403 . S
C2735 C2736 1.524 . S
C2735 C2739 1.400 . S
C2736 H2721 0.960 . S
C2736 H2722 0.960 . S
C2736 H2723 0.960 . S
C2736 C2735 1.524 . S
C2737 C2734 1.403 . S
C2737 C2738 1.392 . S
C2737 C2741 1.495 . S
C2738 C2737 1.392 . S
C2738 C2739 1.385 . S
C2738 C2740 1.478 . S
C2739 H2733 0.930 . S
C2739 C2735 1.400 . S
C2739 C2738 1.385 . S
C2740 C2738 1.478 . S
C2740 C2742 1.381 . S
C2740 C2746 1.383 . S
C2741 C2737 1.495 . S
C2741 H2747 0.959 . S
C2741 H2748 0.961 . S
C2741 H2749 0.960 . S
C2742 C2740 1.381 . S
C2742 C2743 1.394 1_554 S
C2742 H2750 0.930 . S
C2743 C2742 1.394 1_556 S
C2743 C2744 1.383 . S
C2743 H2751 0.929 . S
C2744 C2743 1.383 . S
C2744 C2745 1.377 1_556 S
C2745 H2729 0.930 . S
C2745 C2744 1.377 1_554 S
C2745 C2746 1.379 . S
C2746 H2730 0.931 . S
C2746 C2740 1.383 . S
C2746 C2745 1.379 . S
H2747 C2741 0.959 . S
H2748 C2741 0.961 . S
H2749 C2741 0.960 . S
H2750 C2742 0.930 . S
H2751 C2743 0.929 . S
C457 C11 1.146 . S
C476 C67 1.152 . S
C493 C25 1.148 . S
C512 C81 1.137 . S
C529 C95 1.145 . S
C548 C39 1.129 . S
C565 C109 1.147 . S
C584 C53 1.144 . S
C601 C123 1.145 . S
C620 C179 1.155 . S
C637 C137 1.142 . S
C656 C193 1.145 . S
C673 C207 1.147 . S
C692 C151 1.145 . S
C709 C165 1.142 . S
C728 C221 1.156 . S
C745 C291 1.147 . S
C764 C235 1.129 . S
C781 C305 1.147 . S
C800 C249 1.145 . S
C817 C263 1.142 . S
C836 C319 1.152 . S
C853 C333 1.147 . S
C872 C277 1.149 . S
C889 C347 1.147 . S
C908 C403 1.141 . S
C925 C417 1.142 . S
C944 C361 1.145 . S
C961 C431 1.143 . S
C980 C375 1.141 . S
C997 C389 1.145 . S
C1016 C445 1.131 . S
C1033 C8 1.302 . S
C1052 C391 1.326 . S
C1069 C125 1.303 . S
C1088 C22 1.341 . S
C1105 C36 1.315 . S
C1124 C363 1.268 . S
C1141 C50 1.312 . S
C1160 C153 1.280 . S
C1177 C419 1.303 . S
C1196 C64 1.339 . S
C1213 C209 1.318 . S
C1232 C78 1.267 . S
C1249 C92 1.299 . S
C1268 C447 1.345 . S
C1285 C106 1.307 . S
C1304 C181 1.300 . S
C1321 C279 1.314 . S
C1340 C120 1.343 . S
C1357 C134 1.311 . S
C1376 C13 1.295 . S
C1393 C251 1.312 . S
C1412 C148 1.339 . S
C1429 C162 1.299 . S
C1448 C41 1.278 . S
C1465 C307 1.311 . S
C1484 C176 1.337 . S
C1501 C190 1.307 . S
C1520 C97 1.338 . S
C1537 C335 1.312 . S
C1556 C204 1.341 . S
C1573 C218 1.302 . S
C1592 C69 1.316 . S
C1609 C167 1.304 . S
C1628 C232 1.338 . S
C1645 C349 1.302 . S
C1664 C246 1.343 . S
C1681 C139 1.305 . S
C1700 C260 1.324 . S
C1717 C274 1.302 . S
C1736 C377 1.324 . S
C1753 C195 1.303 . S
C1772 C288 1.338 . S
C1789 C433 1.312 . S
C1808 C302 1.301 . S
C1825 C223 1.305 . S
C1844 C316 1.326 . S
C1861 C330 1.311 . S
C1880 C405 1.291 . S
C1897 C344 1.312 . S
C1916 C55 1.300 . S
C1933 C358 1.301 . S
C1952 C237 1.313 . S
C1969 C372 1.301 . S
C1988 C27 1.268 . S
C2005 C386 1.305 . S
C2024 C265 1.333 . S
C2041 C400 1.302 . S
C2060 C83 1.268 . S
C2077 C321 1.317 . S
C2096 C414 1.340 . S
C2113 C111 1.302 . S
C2132 C428 1.276 . S
C2149 C442 1.314 . S
C2168 C293 1.311 . S
C2185 C7 1.003 . S
C2204 C105 1.010 . S
C2221 C21 1.002 . S
C2240 C63 1.024 . S
C2257 C35 1.003 . S
C2276 C77 1.012 . S
C2293 C91 1.017 . S
C2312 C49 0.979 . S
C2329 C217 1.016 . S
C2348 C119 1.011 . S
C2365 C175 1.005 . S
C2384 C133 0.990 . S
C2401 C189 1.010 . S
C2420 C147 1.040 . S
C2437 C203 1.003 . S
C2456 C161 0.999 . S
C2473 C231 1.002 . S
C2492 C329 1.015 . S
C2509 C287 1.015 . S
C2528 C245 1.009 . S
C2545 C301 1.002 . S
C2564 C259 1.029 . S
C2581 C315 1.016 . S
C2600 C273 0.975 . S
C2617 C441 1.012 . S
C2636 C343 0.971 . S
C2653 C357 1.016 . S
C2672 C399 1.016 . S
C2689 C371 1.005 . S
C2708 C413 1.043 . S
C2725 C385 1.016 . S
C2744 C427 0.979 . S
