# Generated by pormake.
# Topology nfb, (4)-cn, num edge types: 1
# Building blocks:
#     Node 0, Type 0, BuildingBlock: ICAMEG_clean_sbu_1, # of connection points: 4
#     Node 1, Type 0, BuildingBlock: ICAMEG_clean_sbu_1, # of connection points: 4
#     Node 2, Type 0, BuildingBlock: ICAMEG_clean_sbu_1, # of connection points: 4
#     Node 3, Type 0, BuildingBlock: ICAMEG_clean_sbu_1, # of connection points: 4
#     Node 4, Type 0, BuildingBlock: ICAMEG_clean_sbu_1, # of connection points: 4
#     Node 5, Type 0, BuildingBlock: ICAMEG_clean_sbu_1, # of connection points: 4
#     Node 6, Type 0, BuildingBlock: ICAMEG_clean_sbu_1, # of connection points: 4
#     Node 7, Type 0, BuildingBlock: ICAMEG_clean_sbu_1, # of connection points: 4
#     Node 8, Type 0, BuildingBlock: ICAMEG_clean_sbu_1, # of connection points: 4
#     Node 9, Type 0, BuildingBlock: ICAMEG_clean_sbu_1, # of connection points: 4
#     Node 10, Type 0, BuildingBlock: ICAMEG_clean_sbu_1, # of connection points: 4
#     Node 11, Type 0, BuildingBlock: ICAMEG_clean_sbu_1, # of connection points: 4
#     Node 12, Type 0, BuildingBlock: ICAMEG_clean_sbu_1, # of connection points: 4
#     Node 13, Type 0, BuildingBlock: ICAMEG_clean_sbu_1, # of connection points: 4
#     Node 14, Type 0, BuildingBlock: ICAMEG_clean_sbu_1, # of connection points: 4
#     Node 15, Type 0, BuildingBlock: ICAMEG_clean_sbu_1, # of connection points: 4
#     Node 16, Type 0, BuildingBlock: ICAMEG_clean_sbu_1, # of connection points: 4
#     Node 17, Type 0, BuildingBlock: ICAMEG_clean_sbu_1, # of connection points: 4
#     Node 18, Type 0, BuildingBlock: ICAMEG_clean_sbu_1, # of connection points: 4
#     Node 19, Type 0, BuildingBlock: ICAMEG_clean_sbu_1, # of connection points: 4
#     Node 20, Type 0, BuildingBlock: ICAMEG_clean_sbu_1, # of connection points: 4
#     Node 21, Type 0, BuildingBlock: ICAMEG_clean_sbu_1, # of connection points: 4
#     Node 22, Type 0, BuildingBlock: ICAMEG_clean_sbu_1, # of connection points: 4
#     Node 23, Type 0, BuildingBlock: ICAMEG_clean_sbu_1, # of connection points: 4
#     Node 24, Type 0, BuildingBlock: ICAMEG_clean_sbu_1, # of connection points: 4
#     Node 25, Type 0, BuildingBlock: ICAMEG_clean_sbu_1, # of connection points: 4
#     Node 26, Type 0, BuildingBlock: ICAMEG_clean_sbu_1, # of connection points: 4
#     Node 27, Type 0, BuildingBlock: ICAMEG_clean_sbu_1, # of connection points: 4
#     Node 28, Type 0, BuildingBlock: ICAMEG_clean_sbu_1, # of connection points: 4
#     Node 29, Type 0, BuildingBlock: ICAMEG_clean_sbu_1, # of connection points: 4
#     Node 30, Type 0, BuildingBlock: ICAMEG_clean_sbu_1, # of connection points: 4
#     Node 31, Type 0, BuildingBlock: ICAMEG_clean_sbu_1, # of connection points: 4
#     Node 32, Type 0, BuildingBlock: ICAMEG_clean_sbu_1, # of connection points: 4
#     Node 33, Type 0, BuildingBlock: ICAMEG_clean_sbu_1, # of connection points: 4
#     Node 34, Type 0, BuildingBlock: ICAMEG_clean_sbu_1, # of connection points: 4
#     Node 35, Type 0, BuildingBlock: ICAMEG_clean_sbu_1, # of connection points: 4
#     Node 36, Type 0, BuildingBlock: ICAMEG_clean_sbu_1, # of connection points: 4
#     Node 37, Type 0, BuildingBlock: ICAMEG_clean_sbu_1, # of connection points: 4
#     Node 38, Type 0, BuildingBlock: ICAMEG_clean_sbu_1, # of connection points: 4
#     Node 39, Type 0, BuildingBlock: ICAMEG_clean_sbu_1, # of connection points: 4
#     Node 40, Type 0, BuildingBlock: ICAMEG_clean_sbu_1, # of connection points: 4
#     Node 41, Type 0, BuildingBlock: ICAMEG_clean_sbu_1, # of connection points: 4
#     Node 42, Type 0, BuildingBlock: ICAMEG_clean_sbu_1, # of connection points: 4
#     Node 43, Type 0, BuildingBlock: ICAMEG_clean_sbu_1, # of connection points: 4
#     Node 44, Type 0, BuildingBlock: ICAMEG_clean_sbu_1, # of connection points: 4
#     Node 45, Type 0, BuildingBlock: ICAMEG_clean_sbu_1, # of connection points: 4
#     Node 46, Type 0, BuildingBlock: ICAMEG_clean_sbu_1, # of connection points: 4
#     Node 47, Type 0, BuildingBlock: ICAMEG_clean_sbu_1, # of connection points: 4
#     Edge 48, Type (0, 0), BuildingBlock: TEMPAE_clean_linker_10, # of connection points: 2
#     Edge 49, Type (0, 0), BuildingBlock: TEMPAE_clean_linker_10, # of connection points: 2
#     Edge 50, Type (0, 0), BuildingBlock: TEMPAE_clean_linker_10, # of connection points: 2
#     Edge 51, Type (0, 0), BuildingBlock: TEMPAE_clean_linker_10, # of connection points: 2
#     Edge 52, Type (0, 0), BuildingBlock: TEMPAE_clean_linker_10, # of connection points: 2
#     Edge 53, Type (0, 0), BuildingBlock: TEMPAE_clean_linker_10, # of connection points: 2
#     Edge 54, Type (0, 0), BuildingBlock: TEMPAE_clean_linker_10, # of connection points: 2
#     Edge 55, Type (0, 0), BuildingBlock: TEMPAE_clean_linker_10, # of connection points: 2
#     Edge 56, Type (0, 0), BuildingBlock: TEMPAE_clean_linker_10, # of connection points: 2
#     Edge 57, Type (0, 0), BuildingBlock: TEMPAE_clean_linker_10, # of connection points: 2
#     Edge 58, Type (0, 0), BuildingBlock: TEMPAE_clean_linker_10, # of connection points: 2
#     Edge 59, Type (0, 0), BuildingBlock: TEMPAE_clean_linker_10, # of connection points: 2
#     Edge 60, Type (0, 0), BuildingBlock: TEMPAE_clean_linker_10, # of connection points: 2
#     Edge 61, Type (0, 0), BuildingBlock: TEMPAE_clean_linker_10, # of connection points: 2
#     Edge 62, Type (0, 0), BuildingBlock: TEMPAE_clean_linker_10, # of connection points: 2
#     Edge 63, Type (0, 0), BuildingBlock: TEMPAE_clean_linker_10, # of connection points: 2
#     Edge 64, Type (0, 0), BuildingBlock: TEMPAE_clean_linker_10, # of connection points: 2
#     Edge 65, Type (0, 0), BuildingBlock: TEMPAE_clean_linker_10, # of connection points: 2
#     Edge 66, Type (0, 0), BuildingBlock: TEMPAE_clean_linker_10, # of connection points: 2
#     Edge 67, Type (0, 0), BuildingBlock: TEMPAE_clean_linker_10, # of connection points: 2
#     Edge 68, Type (0, 0), BuildingBlock: TEMPAE_clean_linker_10, # of connection points: 2
#     Edge 69, Type (0, 0), BuildingBlock: TEMPAE_clean_linker_10, # of connection points: 2
#     Edge 70, Type (0, 0), BuildingBlock: TEMPAE_clean_linker_10, # of connection points: 2
#     Edge 71, Type (0, 0), BuildingBlock: TEMPAE_clean_linker_10, # of connection points: 2
#     Edge 72, Type (0, 0), BuildingBlock: TEMPAE_clean_linker_10, # of connection points: 2
#     Edge 73, Type (0, 0), BuildingBlock: TEMPAE_clean_linker_10, # of connection points: 2
#     Edge 74, Type (0, 0), BuildingBlock: TEMPAE_clean_linker_10, # of connection points: 2
#     Edge 75, Type (0, 0), BuildingBlock: TEMPAE_clean_linker_10, # of connection points: 2
#     Edge 76, Type (0, 0), BuildingBlock: TEMPAE_clean_linker_10, # of connection points: 2
#     Edge 77, Type (0, 0), BuildingBlock: TEMPAE_clean_linker_10, # of connection points: 2
#     Edge 78, Type (0, 0), BuildingBlock: TEMPAE_clean_linker_10, # of connection points: 2
#     Edge 79, Type (0, 0), BuildingBlock: TEMPAE_clean_linker_10, # of connection points: 2
#     Edge 80, Type (0, 0), BuildingBlock: TEMPAE_clean_linker_10, # of connection points: 2
#     Edge 81, Type (0, 0), BuildingBlock: TEMPAE_clean_linker_10, # of connection points: 2
#     Edge 82, Type (0, 0), BuildingBlock: TEMPAE_clean_linker_10, # of connection points: 2
#     Edge 83, Type (0, 0), BuildingBlock: TEMPAE_clean_linker_10, # of connection points: 2
#     Edge 84, Type (0, 0), BuildingBlock: TEMPAE_clean_linker_10, # of connection points: 2
#     Edge 85, Type (0, 0), BuildingBlock: TEMPAE_clean_linker_10, # of connection points: 2
#     Edge 86, Type (0, 0), BuildingBlock: TEMPAE_clean_linker_10, # of connection points: 2
#     Edge 87, Type (0, 0), BuildingBlock: TEMPAE_clean_linker_10, # of connection points: 2
#     Edge 88, Type (0, 0), BuildingBlock: TEMPAE_clean_linker_10, # of connection points: 2
#     Edge 89, Type (0, 0), BuildingBlock: TEMPAE_clean_linker_10, # of connection points: 2
#     Edge 90, Type (0, 0), BuildingBlock: TEMPAE_clean_linker_10, # of connection points: 2
#     Edge 91, Type (0, 0), BuildingBlock: TEMPAE_clean_linker_10, # of connection points: 2
#     Edge 92, Type (0, 0), BuildingBlock: TEMPAE_clean_linker_10, # of connection points: 2
#     Edge 93, Type (0, 0), BuildingBlock: TEMPAE_clean_linker_10, # of connection points: 2
#     Edge 94, Type (0, 0), BuildingBlock: TEMPAE_clean_linker_10, # of connection points: 2
#     Edge 95, Type (0, 0), BuildingBlock: TEMPAE_clean_linker_10, # of connection points: 2
#     Edge 96, Type (0, 0), BuildingBlock: TEMPAE_clean_linker_10, # of connection points: 2
#     Edge 97, Type (0, 0), BuildingBlock: TEMPAE_clean_linker_10, # of connection points: 2
#     Edge 98, Type (0, 0), BuildingBlock: TEMPAE_clean_linker_10, # of connection points: 2
#     Edge 99, Type (0, 0), BuildingBlock: TEMPAE_clean_linker_10, # of connection points: 2
#     Edge 100, Type (0, 0), BuildingBlock: TEMPAE_clean_linker_10, # of connection points: 2
#     Edge 101, Type (0, 0), BuildingBlock: TEMPAE_clean_linker_10, # of connection points: 2
#     Edge 102, Type (0, 0), BuildingBlock: TEMPAE_clean_linker_10, # of connection points: 2
#     Edge 103, Type (0, 0), BuildingBlock: TEMPAE_clean_linker_10, # of connection points: 2
#     Edge 104, Type (0, 0), BuildingBlock: TEMPAE_clean_linker_10, # of connection points: 2
#     Edge 105, Type (0, 0), BuildingBlock: TEMPAE_clean_linker_10, # of connection points: 2
#     Edge 106, Type (0, 0), BuildingBlock: TEMPAE_clean_linker_10, # of connection points: 2
#     Edge 107, Type (0, 0), BuildingBlock: TEMPAE_clean_linker_10, # of connection points: 2
#     Edge 108, Type (0, 0), BuildingBlock: TEMPAE_clean_linker_10, # of connection points: 2
#     Edge 109, Type (0, 0), BuildingBlock: TEMPAE_clean_linker_10, # of connection points: 2
#     Edge 110, Type (0, 0), BuildingBlock: TEMPAE_clean_linker_10, # of connection points: 2
#     Edge 111, Type (0, 0), BuildingBlock: TEMPAE_clean_linker_10, # of connection points: 2
#     Edge 112, Type (0, 0), BuildingBlock: TEMPAE_clean_linker_10, # of connection points: 2
#     Edge 113, Type (0, 0), BuildingBlock: TEMPAE_clean_linker_10, # of connection points: 2
#     Edge 114, Type (0, 0), BuildingBlock: TEMPAE_clean_linker_10, # of connection points: 2
#     Edge 115, Type (0, 0), BuildingBlock: TEMPAE_clean_linker_10, # of connection points: 2
#     Edge 116, Type (0, 0), BuildingBlock: TEMPAE_clean_linker_10, # of connection points: 2
#     Edge 117, Type (0, 0), BuildingBlock: TEMPAE_clean_linker_10, # of connection points: 2
#     Edge 118, Type (0, 0), BuildingBlock: TEMPAE_clean_linker_10, # of connection points: 2
#     Edge 119, Type (0, 0), BuildingBlock: TEMPAE_clean_linker_10, # of connection points: 2
#     Edge 120, Type (0, 0), BuildingBlock: TEMPAE_clean_linker_10, # of connection points: 2
#     Edge 121, Type (0, 0), BuildingBlock: TEMPAE_clean_linker_10, # of connection points: 2
#     Edge 122, Type (0, 0), BuildingBlock: TEMPAE_clean_linker_10, # of connection points: 2
#     Edge 123, Type (0, 0), BuildingBlock: TEMPAE_clean_linker_10, # of connection points: 2
#     Edge 124, Type (0, 0), BuildingBlock: TEMPAE_clean_linker_10, # of connection points: 2
#     Edge 125, Type (0, 0), BuildingBlock: TEMPAE_clean_linker_10, # of connection points: 2
#     Edge 126, Type (0, 0), BuildingBlock: TEMPAE_clean_linker_10, # of connection points: 2
#     Edge 127, Type (0, 0), BuildingBlock: TEMPAE_clean_linker_10, # of connection points: 2
#     Edge 128, Type (0, 0), BuildingBlock: TEMPAE_clean_linker_10, # of connection points: 2
#     Edge 129, Type (0, 0), BuildingBlock: TEMPAE_clean_linker_10, # of connection points: 2
#     Edge 130, Type (0, 0), BuildingBlock: TEMPAE_clean_linker_10, # of connection points: 2
#     Edge 131, Type (0, 0), BuildingBlock: TEMPAE_clean_linker_10, # of connection points: 2
#     Edge 132, Type (0, 0), BuildingBlock: TEMPAE_clean_linker_10, # of connection points: 2
#     Edge 133, Type (0, 0), BuildingBlock: TEMPAE_clean_linker_10, # of connection points: 2
#     Edge 134, Type (0, 0), BuildingBlock: TEMPAE_clean_linker_10, # of connection points: 2
#     Edge 135, Type (0, 0), BuildingBlock: TEMPAE_clean_linker_10, # of connection points: 2
#     Edge 136, Type (0, 0), BuildingBlock: TEMPAE_clean_linker_10, # of connection points: 2
#     Edge 137, Type (0, 0), BuildingBlock: TEMPAE_clean_linker_10, # of connection points: 2
#     Edge 138, Type (0, 0), BuildingBlock: TEMPAE_clean_linker_10, # of connection points: 2
#     Edge 139, Type (0, 0), BuildingBlock: TEMPAE_clean_linker_10, # of connection points: 2
#     Edge 140, Type (0, 0), BuildingBlock: TEMPAE_clean_linker_10, # of connection points: 2
#     Edge 141, Type (0, 0), BuildingBlock: TEMPAE_clean_linker_10, # of connection points: 2
#     Edge 142, Type (0, 0), BuildingBlock: TEMPAE_clean_linker_10, # of connection points: 2
#     Edge 143, Type (0, 0), BuildingBlock: TEMPAE_clean_linker_10, # of connection points: 2
# Relax obj value: 0.318
# Max RMSD: 0.136
# Mean RMSD: 0.107
data_MOF--net-nfb--node1-ICAMEG_clean_sbu_1--edge1-TEMPAE_clean_linker_10
_symmetry_space_group_name_H-M    P1
_symmetry_Int_Tables_number       1
_symmetry_cell_setting            triclinic
loop_
_symmetry_equiv_pos_as_xyz
'x, y, z'
_cell_length_a     63.312164
_cell_length_b     63.478864
_cell_length_c     63.433443
_cell_angle_alpha  90.494048
_cell_angle_beta   91.629892
_cell_angle_gamma 93.142799
loop_
_atom_site_label
_atom_site_type_symbol
_atom_site_fract_x
_atom_site_fract_y
_atom_site_fract_z
_atom_type_partial_charge
Co0 Co 0.10752 0.09805 0.38177 0.0
Co1 Co 0.09255 0.14276 0.40665 0.0
O2 O 0.11122 0.12822 0.38818 0.0
C3 C 0.15241 0.10428 0.39678 0.0
O4 O 0.1447 0.11274 0.41367 0.0
C5 C 0.10467 0.17348 0.37226 0.0
O6 O 0.11409 0.15893 0.36187 0.0
O7 O 0.06781 0.1326 0.38882 0.0
O8 O 0.07517 0.09904 0.38182 0.0
H9 H 0.02732 0.14835 0.44921 0.0
H10 H 0.13581 0.12367 0.35411 0.0
O11 O 0.1397 0.09695 0.38207 0.0
H12 H 0.07828 0.09357 0.30717 0.0
H13 H 0.12706 0.03075 0.34664 0.0
H14 H 0.07952 0.06258 0.39669 0.0
H15 H 0.07888 0.08567 0.34516 0.0
H16 H 0.12977 0.06909 0.35388 0.0
O17 O 0.0953 0.16919 0.38936 0.0
H18 H 0.052 0.13045 0.42664 0.0
H19 H 0.09221 0.18621 0.42512 0.0
H20 H 0.07609 0.02422 0.38973 0.0
H21 H 0.136 0.13171 0.31617 0.0
H22 H 0.10004 0.00806 0.3646 0.0
H23 H 0.10702 0.1167 0.29242 0.0
O24 O 0.10763 0.09131 0.4122 0.0
H25 H 0.16722 0.17243 0.42025 0.0
H26 H 0.10194 0.14451 0.45297 0.0
H27 H 0.13301 0.15523 0.47554 0.0
H28 H 0.16596 0.16942 0.45921 0.0
H29 H 0.13598 0.16111 0.39828 0.0
H30 H 0.06789 0.20475 0.4476 0.0
H31 H 0.03522 0.18577 0.45987 0.0
O32 O 0.08907 0.11733 0.42497 0.0
C33 C 0.06205 0.11377 0.38312 0.0
C34 C 0.04155 0.15677 0.44404 0.0
C35 C 0.0643 0.18843 0.4431 0.0
N36 N 0.07361 0.15722 0.42469 0.0
C37 C 0.05561 0.14671 0.43128 0.0
C38 C 0.07799 0.17786 0.43033 0.0
C39 C 0.04598 0.17777 0.44999 0.0
C40 C 0.12321 0.11697 0.34388 0.0
N41 N 0.10726 0.10437 0.3519 0.0
C42 C 0.12337 0.12163 0.32241 0.0
C43 C 0.10709 0.11323 0.3091 0.0
C44 C 0.09094 0.10028 0.31737 0.0
C45 C 0.0913 0.09598 0.33893 0.0
C46 C 0.1165 0.03762 0.35757 0.0
C47 C 0.08982 0.05569 0.38555 0.0
C48 C 0.11797 0.0593 0.36175 0.0
N49 N 0.10468 0.06806 0.37554 0.0
C50 C 0.08787 0.03395 0.38174 0.0
C51 C 0.10133 0.02489 0.36766 0.0
C52 C 0.09761 0.09968 0.42691 0.0
C53 C 0.15291 0.16643 0.42757 0.0
C54 C 0.11618 0.15063 0.4457 0.0
C55 C 0.13374 0.15672 0.45859 0.0
C56 C 0.15221 0.16469 0.44942 0.0
N57 N 0.11692 0.15243 0.42425 0.0
C58 C 0.13504 0.16016 0.41518 0.0
Co59 Co 0.37282 0.61866 0.91941 0.0
Co60 Co 0.37149 0.60981 0.86586 0.0
O61 O 0.38179 0.6045 0.89433 0.0
C62 C 0.41947 0.62909 0.92753 0.0
O63 O 0.42042 0.6423 0.91173 0.0
C64 C 0.36098 0.56401 0.87266 0.0
O65 O 0.35087 0.5704 0.88911 0.0
O66 O 0.34135 0.60859 0.87453 0.0
O67 O 0.34306 0.61879 0.90851 0.0
H68 H 0.32845 0.64484 0.80986 0.0
H69 H 0.39582 0.57925 0.9225 0.0
O70 O 0.40234 0.61845 0.93122 0.0
H71 H 0.32825 0.56381 0.9575 0.0
H72 H 0.37463 0.63314 0.99743 0.0
H73 H 0.34491 0.65367 0.92844 0.0
H74 H 0.33672 0.59905 0.94294 0.0
H75 H 0.3835 0.61439 0.96513 0.0
O76 O 0.36983 0.57783 0.86062 0.0
H77 H 0.34155 0.63867 0.84617 0.0
H78 H 0.37981 0.59068 0.82415 0.0
H79 H 0.33481 0.67229 0.96065 0.0
H80 H 0.38806 0.54382 0.93694 0.0
H81 H 0.34967 0.66198 0.99552 0.0
H82 H 0.35402 0.53587 0.95451 0.0
O83 O 0.37866 0.64675 0.90643 0.0
H84 H 0.44547 0.58524 0.86236 0.0
H85 H 0.39745 0.64013 0.84045 0.0
H86 H 0.43465 0.64283 0.82976 0.0
H87 H 0.45892 0.61521 0.84068 0.0
H88 H 0.40822 0.58326 0.87287 0.0
H89 H 0.36702 0.5962 0.78759 0.0
H90 H 0.34121 0.6235 0.78027 0.0
O91 O 0.37328 0.64167 0.87142 0.0
C92 C 0.33265 0.614 0.89151 0.0
C93 C 0.33975 0.63294 0.81284 0.0
C94 C 0.36137 0.60561 0.80035 0.0
N95 N 0.36152 0.61444 0.83721 0.0
C96 C 0.34726 0.62942 0.83335 0.0
C97 C 0.36851 0.60252 0.82107 0.0
C98 C 0.34689 0.62095 0.79625 0.0
C99 C 0.38104 0.57598 0.93027 0.0
N100 N 0.36671 0.59122 0.93183 0.0
C101 C 0.37671 0.55586 0.93836 0.0
C102 C 0.3576 0.5514 0.94819 0.0
C103 C 0.34312 0.56706 0.94985 0.0
C104 C 0.34796 0.58698 0.94151 0.0
C105 C 0.36761 0.63746 0.98247 0.0
C106 C 0.35117 0.6489 0.94359 0.0
C107 C 0.37281 0.62705 0.96403 0.0
N108 N 0.36461 0.63281 0.9449 0.0
C109 C 0.34546 0.65955 0.96176 0.0
C110 C 0.35376 0.65375 0.98132 0.0
C111 C 0.37681 0.6538 0.88767 0.0
C112 C 0.43504 0.59734 0.85746 0.0
C113 C 0.40794 0.62809 0.84533 0.0
C114 C 0.42897 0.62968 0.83919 0.0
C115 C 0.44258 0.61417 0.84531 0.0
N116 N 0.40064 0.61149 0.85716 0.0
C117 C 0.4139 0.59627 0.8633 0.0
Co118 Co 0.9 0.91102 0.39068 0.0
Co119 Co 0.91737 0.87208 0.42263 0.0
O120 O 0.89773 0.88232 0.40141 0.0
C121 C 0.85609 0.90544 0.40558 0.0
O122 O 0.86508 0.89935 0.42321 0.0
C123 C 0.91239 0.83798 0.39024 0.0
O124 O 0.91302 0.8524 0.37554 0.0
O125 O 0.9414 0.87958 0.40431 0.0
O126 O 0.9325 0.91097 0.39139 0.0
H127 H 0.98325 0.87588 0.4689 0.0
H128 H 0.87229 0.87895 0.36748 0.0
O129 O 0.86774 0.91111 0.39019 0.0
H130 H 0.92565 0.90346 0.31676 0.0
H131 H 0.87671 0.97052 0.3452 0.0
H132 H 0.92755 0.94936 0.40038 0.0
H133 H 0.92615 0.91836 0.35283 0.0
H134 H 0.8755 0.93398 0.35833 0.0
O135 O 0.91435 0.84327 0.40961 0.0
H136 H 0.95834 0.88849 0.44186 0.0
H137 H 0.91863 0.83288 0.44815 0.0
H138 H 0.92951 0.986 0.38754 0.0
H139 H 0.87104 0.8638 0.3315 0.0
H140 H 0.90389 0.99678 0.35981 0.0
H141 H 0.89791 0.87601 0.30589 0.0
O142 O 0.90063 0.92292 0.41979 0.0
H143 H 0.84461 0.84082 0.43716 0.0
H144 H 0.90757 0.8803 0.46752 0.0
H145 H 0.87671 0.87279 0.48973 0.0
H146 H 0.84494 0.8529 0.47452 0.0
H147 H 0.87568 0.84899 0.41552 0.0
H148 H 0.94319 0.81962 0.47519 0.0
H149 H 0.9757 0.84124 0.48583 0.0
O150 O 0.92111 0.90046 0.43668 0.0
C151 C 0.94613 0.89702 0.39524 0.0
C152 C 0.9691 0.86634 0.46445 0.0
C153 C 0.94663 0.83476 0.46796 0.0
N154 N 0.93697 0.86151 0.44355 0.0
C155 C 0.95492 0.87341 0.44917 0.0
C156 C 0.93281 0.84233 0.4526 0.0
C157 C 0.96486 0.8469 0.47393 0.0
C158 C 0.8839 0.8845 0.35636 0.0
N159 N 0.89925 0.89954 0.36223 0.0
C160 C 0.88317 0.87579 0.33604 0.0
C161 C 0.89828 0.88262 0.32168 0.0
C162 C 0.91386 0.898 0.32778 0.0
C163 C 0.91411 0.90633 0.34825 0.0
C164 C 0.88798 0.96599 0.35726 0.0
C165 C 0.91651 0.9539 0.38815 0.0
C166 C 0.88735 0.94535 0.36477 0.0
N167 N 0.90155 0.93954 0.37997 0.0
C168 C 0.91763 0.97468 0.381 0.0
C169 C 0.90324 0.98072 0.36545 0.0
C170 C 0.91188 0.91775 0.43562 0.0
C171 C 0.8584 0.84942 0.444 0.0
C172 C 0.89382 0.87166 0.46087 0.0
C173 C 0.8764 0.86742 0.47349 0.0
C174 C 0.85858 0.85624 0.46495 0.0
N175 N 0.89352 0.865 0.44033 0.0
C176 C 0.87612 0.85397 0.43186 0.0
Co177 Co 0.65866 0.3923 0.9314 0.0
Co178 Co 0.64978 0.40313 0.87898 0.0
O179 O 0.64505 0.40751 0.90884 0.0
C180 C 0.61292 0.38629 0.94036 0.0
O181 O 0.60913 0.38021 0.92072 0.0
C182 C 0.66045 0.44911 0.8864 0.0
O183 O 0.67377 0.44303 0.90105 0.0
O184 O 0.6812 0.40508 0.88365 0.0
O185 O 0.68594 0.39311 0.91652 0.0
H186 H 0.68259 0.37095 0.81603 0.0
H187 H 0.63644 0.43107 0.94073 0.0
O188 O 0.63173 0.39134 0.94695 0.0
H189 H 0.70995 0.44595 0.96666 0.0
H190 H 0.67544 0.37515 0.00733 0.0
H191 H 0.68712 0.35688 0.93308 0.0
H192 H 0.69891 0.41136 0.95079 0.0
H193 H 0.65819 0.39454 0.97854 0.0
O194 O 0.64971 0.43512 0.87525 0.0
H195 H 0.67643 0.37587 0.85394 0.0
H196 H 0.633 0.42282 0.83998 0.0
H197 H 0.70417 0.33687 0.96136 0.0
H198 H 0.64674 0.46583 0.95666 0.0
H199 H 0.69834 0.34602 0.99882 0.0
H200 H 0.68376 0.47348 0.96969 0.0
O201 O 0.65012 0.36482 0.91756 0.0
H202 H 0.57555 0.42567 0.88714 0.0
H203 H 0.6198 0.37283 0.85567 0.0
H204 H 0.58104 0.36934 0.85021 0.0
H205 H 0.55864 0.39591 0.86597 0.0
H206 H 0.61435 0.42844 0.89238 0.0
H207 H 0.6388 0.41854 0.8019 0.0
H208 H 0.66369 0.39239 0.78972 0.0
O209 O 0.64961 0.37112 0.88271 0.0
C210 C 0.69304 0.39915 0.89886 0.0
C211 C 0.67165 0.38235 0.82113 0.0
C212 C 0.6471 0.40908 0.81321 0.0
N213 N 0.65425 0.39949 0.84912 0.0
C214 C 0.66805 0.38515 0.84257 0.0
C215 C 0.64391 0.41147 0.83478 0.0
C216 C 0.66106 0.3944 0.80638 0.0
C217 C 0.65254 0.43421 0.94653 0.0
N218 N 0.66706 0.41918 0.94483 0.0
C219 C 0.65829 0.45395 0.95547 0.0
C220 C 0.67907 0.45825 0.96275 0.0
C221 C 0.69378 0.44282 0.96103 0.0
C222 C 0.68746 0.42327 0.95196 0.0
C223 C 0.67789 0.37097 0.99108 0.0
C224 C 0.68448 0.36096 0.94934 0.0
C225 C 0.66827 0.38192 0.97471 0.0
N226 N 0.67183 0.37699 0.95414 0.0
C227 C 0.69416 0.34954 0.96529 0.0
C228 C 0.69085 0.35465 0.98629 0.0
C229 C 0.6487 0.35842 0.89841 0.0
C230 C 0.58514 0.41403 0.88014 0.0
C231 C 0.61016 0.38442 0.86263 0.0
C232 C 0.58822 0.38239 0.85945 0.0
C233 C 0.57566 0.39731 0.86828 0.0
N234 N 0.61934 0.40089 0.87424 0.0
C235 C 0.60713 0.41556 0.88298 0.0
Co236 Co 0.12792 0.87008 0.65186 0.0
Co237 Co 0.13287 0.85637 0.59974 0.0
O238 O 0.1204 0.87202 0.6221 0.0
C239 C 0.08179 0.85849 0.64861 0.0
O240 O 0.08705 0.84414 0.635 0.0
C241 C 0.13997 0.90052 0.58457 0.0
O242 O 0.15111 0.90571 0.60179 0.0
O243 O 0.1619 0.8653 0.61043 0.0
O244 O 0.15927 0.87007 0.6455 0.0
H245 H 0.18414 0.80806 0.56837 0.0
H246 H 0.10058 0.90373 0.63669 0.0
O247 O 0.09641 0.87017 0.65797 0.0
H248 H 0.16313 0.94101 0.67065 0.0
H249 H 0.12007 0.8878 0.72858 0.0
H250 H 0.15843 0.84645 0.67742 0.0
H251 H 0.15988 0.90211 0.66952 0.0
H252 H 0.11178 0.88997 0.69043 0.0
O253 O 0.13202 0.88183 0.58169 0.0
H254 H 0.16726 0.82659 0.59721 0.0
H255 H 0.12571 0.8544 0.55308 0.0
H256 H 0.16735 0.84391 0.7154 0.0
H257 H 0.1031 0.94263 0.63763 0.0
H258 H 0.14809 0.86469 0.74127 0.0
H259 H 0.13457 0.96153 0.65467 0.0
O260 O 0.1263 0.8386 0.65072 0.0
H261 H 0.05666 0.86735 0.58082 0.0
H262 H 0.11165 0.81539 0.58535 0.0
H263 H 0.07528 0.80368 0.57403 0.0
H264 H 0.04746 0.82975 0.57176 0.0
H265 H 0.09321 0.87832 0.5922 0.0
H266 H 0.14234 0.83641 0.52375 0.0
H267 H 0.17173 0.81297 0.53132 0.0
O268 O 0.13361 0.83046 0.61726 0.0
C269 C 0.17023 0.86886 0.62881 0.0
C270 C 0.17129 0.81815 0.56488 0.0
C271 C 0.14784 0.83408 0.53983 0.0
N272 N 0.14538 0.84138 0.57686 0.0
C273 C 0.1616 0.82861 0.58115 0.0
C274 C 0.13851 0.84425 0.55651 0.0
C275 C 0.16433 0.82094 0.54409 0.0
C276 C 0.11424 0.91183 0.6443 0.0
N277 N 0.13 0.90066 0.65318 0.0
C278 C 0.11562 0.93386 0.64471 0.0
C279 C 0.13329 0.94446 0.65425 0.0
C280 C 0.14933 0.93295 0.66321 0.0
C281 C 0.14742 0.91093 0.66249 0.0
C282 C 0.12859 0.87869 0.71747 0.0
C283 C 0.15008 0.85563 0.68858 0.0
C284 C 0.12393 0.87983 0.69586 0.0
N285 N 0.13472 0.86846 0.68175 0.0
C286 C 0.15516 0.85409 0.71007 0.0
C287 C 0.14433 0.86573 0.72457 0.0
C288 C 0.13022 0.82532 0.63631 0.0
C289 C 0.06864 0.85583 0.58174 0.0
C290 C 0.09963 0.82679 0.58448 0.0
C291 C 0.07907 0.82009 0.57798 0.0
C292 C 0.06348 0.83474 0.57669 0.0
N293 N 0.10455 0.84748 0.58952 0.0
C294 C 0.08938 0.86197 0.58811 0.0
Co295 Co 0.63839 0.58432 0.0792 0.0
Co296 Co 0.60019 0.60014 0.1118 0.0
O297 O 0.62822 0.60393 0.09991 0.0
C298 C 0.67425 0.59198 0.11005 0.0
O299 O 0.66076 0.59041 0.12536 0.0
C300 C 0.60215 0.64461 0.09668 0.0
O301 O 0.60692 0.63658 0.07839 0.0
O302 O 0.58689 0.59907 0.08307 0.0
O303 O 0.60923 0.57896 0.06639 0.0
H304 H 0.52666 0.56719 0.11769 0.0
H305 H 0.65777 0.62781 0.08364 0.0
O306 O 0.66788 0.58942 0.09096 0.0
H307 H 0.63484 0.62038 0.00888 0.0
H308 H 0.69011 0.55874 0.02709 0.0
H309 H 0.62289 0.54234 0.06245 0.0
H310 H 0.62948 0.59077 0.03329 0.0
H311 H 0.67665 0.58378 0.05274 0.0
O312 O 0.59856 0.63223 0.11221 0.0
H313 H 0.56246 0.57126 0.10334 0.0
H314 H 0.57785 0.62289 0.145 0.0
H315 H 0.63575 0.51688 0.03688 0.0
H316 H 0.66345 0.65794 0.05974 0.0
H317 H 0.66956 0.52505 0.01895 0.0
H318 H 0.65186 0.65433 0.02206 0.0
O319 O 0.6333 0.56066 0.09894 0.0
H320 H 0.64937 0.63066 0.16913 0.0
H321 H 0.59618 0.57349 0.1501 0.0
H322 H 0.61307 0.5744 0.18565 0.0
H323 H 0.63984 0.60317 0.19537 0.0
H324 H 0.63228 0.62899 0.13368 0.0
H325 H 0.54215 0.61953 0.15969 0.0
H326 H 0.51631 0.59147 0.14606 0.0
O327 O 0.60157 0.56786 0.11135 0.0
C328 C 0.5918 0.58813 0.06721 0.0
C329 C 0.5378 0.57943 0.12381 0.0
C330 C 0.54649 0.60883 0.14736 0.0
N331 N 0.57226 0.59715 0.12348 0.0
C332 C 0.55811 0.58175 0.1158 0.0
C333 C 0.56666 0.61068 0.13897 0.0
C334 C 0.532 0.59307 0.13971 0.0
C335 C 0.65276 0.62612 0.06725 0.0
N336 N 0.64317 0.60758 0.05991 0.0
C337 C 0.65598 0.64324 0.05381 0.0
C338 C 0.64945 0.64122 0.03268 0.0
C339 C 0.63988 0.62219 0.02528 0.0
C340 C 0.63677 0.60549 0.0392 0.0
C341 C 0.67534 0.55501 0.03478 0.0
C342 C 0.6376 0.54603 0.05469 0.0
C343 C 0.66767 0.5691 0.04937 0.0
N344 N 0.64892 0.56459 0.05899 0.0
C345 C 0.64481 0.53154 0.04024 0.0
C346 C 0.6638 0.53612 0.03021 0.0
C347 C 0.61612 0.55495 0.10782 0.0
C348 C 0.63768 0.61808 0.16511 0.0
C349 C 0.60791 0.58598 0.15417 0.0
C350 C 0.61736 0.58646 0.17435 0.0
C351 C 0.63236 0.60263 0.17981 0.0
N352 N 0.61323 0.60118 0.13985 0.0
C353 C 0.62788 0.61711 0.14509 0.0
Co354 Co 0.89793 0.12824 0.64244 0.0
Co355 Co 0.88608 0.13924 0.59039 0.0
O356 O 0.90117 0.12417 0.61214 0.0
C357 C 0.94363 0.13861 0.63562 0.0
O358 O 0.93692 0.15124 0.6209 0.0
C359 C 0.87458 0.09478 0.57699 0.0
O360 O 0.86998 0.08936 0.59631 0.0
O361 O 0.8586 0.13225 0.60377 0.0
O362 O 0.86593 0.12856 0.63847 0.0
H363 H 0.83289 0.18894 0.56292 0.0
H364 H 0.92266 0.09321 0.62681 0.0
O365 O 0.93004 0.12805 0.64648 0.0
H366 H 0.86429 0.05913 0.66619 0.0
H367 H 0.91556 0.1148 0.71881 0.0
H368 H 0.87157 0.15421 0.66919 0.0
H369 H 0.86794 0.09789 0.66341 0.0
H370 H 0.91867 0.11018 0.68037 0.0
O371 O 0.88228 0.11316 0.57287 0.0
H372 H 0.85293 0.17049 0.59035 0.0
H373 H 0.88638 0.13924 0.54329 0.0
H374 H 0.86781 0.15919 0.70749 0.0
H375 H 0.91971 0.05441 0.62934 0.0
H376 H 0.88992 0.1394 0.73258 0.0
H377 H 0.89033 0.03712 0.64912 0.0
O378 O 0.9 0.15966 0.64014 0.0
H379 H 0.95752 0.1229 0.56414 0.0
H380 H 0.90725 0.17861 0.57364 0.0
H381 H 0.94199 0.18764 0.5585 0.0
H382 H 0.96742 0.15967 0.55369 0.0
H383 H 0.92264 0.11462 0.57937 0.0
H384 H 0.86644 0.15708 0.51535 0.0
H385 H 0.8396 0.1823 0.52516 0.0
O386 O 0.88919 0.16586 0.60694 0.0
C387 C 0.85279 0.12957 0.62272 0.0
C388 C 0.84463 0.17809 0.55847 0.0
C389 C 0.86346 0.16021 0.53177 0.0
N390 N 0.87096 0.15396 0.56845 0.0
C391 C 0.85609 0.16766 0.57394 0.0
C392 C 0.87468 0.15012 0.54767 0.0
C393 C 0.84838 0.17432 0.53727 0.0
C394 C 0.90994 0.08581 0.63559 0.0
N395 N 0.89557 0.0978 0.64505 0.0
C396 C 0.9083 0.06383 0.6369 0.0
C397 C 0.8918 0.05414 0.64798 0.0
C398 C 0.87717 0.06648 0.65755 0.0
C399 C 0.8793 0.08841 0.65588 0.0
C400 C 0.90582 0.12348 0.70804 0.0
C401 C 0.88114 0.14544 0.68002 0.0
C402 C 0.90755 0.12097 0.68627 0.0
N403 N 0.89521 0.1318 0.67259 0.0
C404 C 0.87899 0.14837 0.70168 0.0
C405 C 0.89142 0.13728 0.71575 0.0
C406 C 0.89486 0.17213 0.62543 0.0
C407 C 0.94657 0.13522 0.56614 0.0
C408 C 0.91824 0.16638 0.57165 0.0
C409 C 0.93787 0.17157 0.56301 0.0
C410 C 0.95212 0.15586 0.5603 0.0
N411 N 0.91293 0.14612 0.5774 0.0
C412 C 0.92677 0.13061 0.57468 0.0
Co413 Co 0.36794 0.4178 0.06758 0.0
Co414 Co 0.40444 0.4027 0.10436 0.0
O415 O 0.37705 0.39888 0.08958 0.0
C416 C 0.33115 0.41354 0.0954 0.0
O417 O 0.3442 0.41695 0.11168 0.0
C418 C 0.40284 0.35813 0.08873 0.0
O419 O 0.39899 0.36614 0.07009 0.0
O420 O 0.41936 0.40359 0.07718 0.0
O421 O 0.39743 0.42235 0.05751 0.0
H422 H 0.47752 0.43552 0.11857 0.0
H423 H 0.3471 0.37502 0.071 0.0
O424 O 0.33814 0.41357 0.0768 0.0
H425 H 0.37405 0.37845 0.99887 0.0
H426 H 0.31856 0.4415 0.00996 0.0
H427 H 0.38448 0.45895 0.05123 0.0
H428 H 0.37935 0.40897 0.02308 0.0
H429 H 0.33076 0.41753 0.03757 0.0
O430 O 0.40589 0.37057 0.10471 0.0
H431 H 0.44255 0.4315 0.10035 0.0
H432 H 0.42491 0.38008 0.13969 0.0
H433 H 0.37298 0.48327 0.02359 0.0
H434 H 0.34151 0.34407 0.04729 0.0
H435 H 0.33984 0.47455 1.00267 0.0
H436 H 0.35506 0.34569 0.01092 0.0
O437 O 0.37266 0.44224 0.08713 0.0
H438 H 0.35177 0.37319 0.15565 0.0
H439 H 0.40668 0.42951 0.14326 0.0
H440 H 0.38778 0.42908 0.17675 0.0
H441 H 0.36014 0.40074 0.18312 0.0
H442 H 0.3709 0.37435 0.12231 0.0
H443 H 0.45976 0.38339 0.15822 0.0
H444 H 0.48631 0.41133 0.14772 0.0
O445 O 0.40311 0.435 0.10399 0.0
C446 C 0.41513 0.41407 0.06071 0.0
C447 C 0.46606 0.42334 0.12334 0.0
C448 C 0.4561 0.39406 0.14558 0.0
N449 N 0.43168 0.40571 0.11909 0.0
C450 C 0.44622 0.42104 0.11313 0.0
C451 C 0.43642 0.39223 0.13501 0.0
C452 C 0.47099 0.40974 0.13968 0.0
C453 C 0.35297 0.37586 0.05518 0.0
N454 N 0.36353 0.3938 0.04845 0.0
C455 C 0.3498 0.35827 0.04184 0.0
C456 C 0.35742 0.35917 0.02145 0.0
C457 C 0.3681 0.37755 0.01468 0.0
C458 C 0.37113 0.39476 0.0285 0.0
C459 C 0.33307 0.44544 0.01891 0.0
C460 C 0.37008 0.45502 0.04215 0.0
C461 C 0.34002 0.43197 0.03462 0.0
N462 N 0.3584 0.43676 0.0459 0.0
C463 C 0.36362 0.46887 0.02655 0.0
C464 C 0.34501 0.46398 0.01484 0.0
C465 C 0.38903 0.44792 0.09841 0.0
C466 C 0.36383 0.38558 0.15308 0.0
C467 C 0.3946 0.41718 0.14589 0.0
C468 C 0.384 0.41698 0.1649 0.0
C469 C 0.3685 0.40107 0.16847 0.0
N470 N 0.38993 0.40193 0.13088 0.0
C471 C 0.37477 0.38627 0.13427 0.0
Co472 Co 0.42888 0.13992 0.13386 0.0
Co473 Co 0.39271 0.15255 0.09481 0.0
O474 O 0.4058 0.1561 0.12304 0.0
C475 C 0.39669 0.13435 0.16695 0.0
O476 O 0.38196 0.13095 0.15213 0.0
C477 C 0.40824 0.1977 0.09725 0.0
O478 O 0.4264 0.19028 0.10316 0.0
O479 O 0.42066 0.15317 0.08098 0.0
O480 O 0.4427 0.14136 0.10613 0.0
H481 H 0.38188 0.12094 0.02214 0.0
H482 H 0.41716 0.17852 0.1562 0.0
O483 O 0.41584 0.13833 0.16211 0.0
H484 H 0.49199 0.19182 0.13846 0.0
H485 H 0.48122 0.11763 0.18939 0.0
H486 H 0.45257 0.10473 0.11708 0.0
H487 H 0.47319 0.15766 0.12948 0.0
H488 H 0.45391 0.1398 0.17445 0.0
O489 O 0.39248 0.1847 0.09274 0.0
H490 H 0.39857 0.12497 0.05767 0.0
H491 H 0.35834 0.17414 0.07217 0.0
H492 H 0.48079 0.08289 0.13104 0.0
H493 H 0.43546 0.21271 0.16583 0.0
H494 H 0.49523 0.08925 0.16747 0.0
H495 H 0.47312 0.21956 0.15681 0.0
O496 O 0.41331 0.11299 0.12528 0.0
H497 H 0.33853 0.17777 0.14417 0.0
H498 H 0.3539 0.12391 0.09111 0.0
H499 H 0.31938 0.12197 0.10827 0.0
H500 H 0.31151 0.14906 0.13499 0.0
H501 H 0.37291 0.179 0.12675 0.0
H502 H 0.34131 0.17079 0.03671 0.0
H503 H 0.35303 0.14397 0.01146 0.0
O504 O 0.39317 0.12044 0.09673 0.0
C505 C 0.43862 0.14728 0.08738 0.0
C506 C 0.37659 0.13264 0.03302 0.0
C507 C 0.35384 0.16064 0.04119 0.0
N508 N 0.37932 0.14966 0.067 0.0
C509 C 0.38594 0.13494 0.05318 0.0
C510 C 0.36357 0.1625 0.06122 0.0
C511 C 0.36042 0.14558 0.02704 0.0
C512 C 0.43361 0.18131 0.15244 0.0
N513 N 0.44408 0.16616 0.14223 0.0
C514 C 0.44387 0.20072 0.15786 0.0
C515 C 0.46499 0.20456 0.15278 0.0
C516 C 0.47559 0.18898 0.14247 0.0
C517 C 0.46484 0.16973 0.13735 0.0
C518 C 0.47521 0.11483 0.17342 0.0
C519 C 0.45912 0.10786 0.13279 0.0
C520 C 0.45963 0.12726 0.16491 0.0
N521 N 0.45172 0.12363 0.14486 0.0
C522 C 0.47498 0.09536 0.14065 0.0
C523 C 0.48303 0.09888 0.16112 0.0
C524 C 0.401 0.1073 0.10972 0.0
C525 C 0.34175 0.16591 0.1325 0.0
C526 C 0.35061 0.13572 0.10276 0.0
C527 C 0.33102 0.13457 0.11239 0.0
C528 C 0.3266 0.14978 0.12737 0.0
N529 N 0.36536 0.1516 0.10786 0.0
C530 C 0.36115 0.16658 0.12253 0.0
Co531 Co 0.37567 0.87072 0.634 0.0
Co532 Co 0.36642 0.92159 0.64978 0.0
O533 O 0.3808 0.90131 0.63288 0.0
C534 C 0.42149 0.87808 0.64549 0.0
O535 O 0.41521 0.89184 0.6592 0.0
C536 C 0.3614 0.93667 0.6052 0.0
O537 O 0.36047 0.91732 0.59766 0.0
O538 O 0.3384 0.90756 0.64222 0.0
O539 O 0.34378 0.87369 0.63423 0.0
H540 H 0.31422 0.94416 0.70258 0.0
H541 H 0.40316 0.88904 0.60092 0.0
O542 O 0.40763 0.8676 0.63391 0.0
H543 H 0.34366 0.8511 0.56249 0.0
H544 H 0.38959 0.79599 0.61398 0.0
H545 H 0.34666 0.84143 0.65706 0.0
H546 H 0.3456 0.85141 0.60139 0.0
H547 H 0.39507 0.83475 0.61288 0.0
O548 O 0.36367 0.94031 0.62493 0.0
H549 H 0.33309 0.91855 0.68171 0.0
H550 H 0.36872 0.96861 0.65301 0.0
H551 H 0.34055 0.80276 0.65854 0.0
H552 H 0.40197 0.88893 0.56203 0.0
H553 H 0.36211 0.77976 0.63688 0.0
H554 H 0.37202 0.86992 0.54255 0.0
O555 O 0.37658 0.87092 0.66546 0.0
H556 H 0.43865 0.95323 0.63383 0.0
H557 H 0.38777 0.93778 0.68978 0.0
H558 H 0.42254 0.95535 0.69907 0.0
H559 H 0.44821 0.96332 0.67094 0.0
H560 H 0.40385 0.93538 0.62532 0.0
H561 H 0.35008 0.99472 0.67335 0.0
H562 H 0.32267 0.98256 0.69844 0.0
O563 O 0.3688 0.90362 0.67525 0.0
C564 C 0.33152 0.88885 0.63725 0.0
C565 C 0.32619 0.94966 0.69176 0.0
C566 C 0.34629 0.97804 0.67535 0.0
N567 N 0.35211 0.94205 0.6663 0.0
C568 C 0.33697 0.93523 0.67996 0.0
C569 C 0.35676 0.96317 0.66383 0.0
C570 C 0.33092 0.9712 0.68942 0.0
C571 C 0.3902 0.88053 0.59257 0.0
N572 N 0.37452 0.87017 0.60341 0.0
C573 C 0.38956 0.88062 0.57054 0.0
C574 C 0.37272 0.86998 0.55962 0.0
C575 C 0.35679 0.85944 0.5708 0.0
C576 C 0.35794 0.85972 0.59283 0.0
C577 C 0.38008 0.80584 0.62346 0.0
C578 C 0.35601 0.83152 0.6475 0.0
C579 C 0.38313 0.82778 0.62293 0.0
N580 N 0.37109 0.84031 0.63478 0.0
C581 C 0.35253 0.80964 0.64844 0.0
C582 C 0.36465 0.79675 0.63631 0.0
C583 C 0.37289 0.88465 0.67948 0.0
C584 C 0.42761 0.94984 0.64623 0.0
C585 C 0.39896 0.94091 0.67752 0.0
C586 C 0.41858 0.95099 0.68284 0.0
C587 C 0.43297 0.95547 0.66706 0.0
N588 N 0.39379 0.93548 0.65706 0.0
C589 C 0.40785 0.93978 0.6415 0.0
Co590 Co 0.57141 0.86284 0.14196 0.0
Co591 Co 0.60853 0.84999 0.10577 0.0
O592 O 0.59477 0.8466 0.13288 0.0
C593 C 0.60313 0.86848 0.17714 0.0
O594 O 0.6178 0.87175 0.16314 0.0
C595 C 0.59353 0.80468 0.10667 0.0
O596 O 0.57512 0.81184 0.11119 0.0
O597 O 0.5809 0.84884 0.08977 0.0
O598 O 0.55825 0.86095 0.11315 0.0
H599 H 0.62063 0.88076 0.03412 0.0
H600 H 0.58268 0.82427 0.16474 0.0
O601 O 0.58392 0.86473 0.1712 0.0
H602 H 0.50785 0.81155 0.14218 0.0
H603 H 0.51695 0.88495 0.19286 0.0
H604 H 0.54789 0.89761 0.12335 0.0
H605 H 0.52713 0.84528 0.13436 0.0
H606 H 0.54553 0.86347 0.18059 0.0
O607 O 0.6092 0.81787 0.10358 0.0
H608 H 0.60314 0.87696 0.06824 0.0
H609 H 0.64372 0.82862 0.0859 0.0
H610 H 0.51874 0.91898 0.13472 0.0
H611 H 0.56395 0.79038 0.17306 0.0
H612 H 0.50307 0.91268 0.16968 0.0
H613 H 0.52628 0.78383 0.16167 0.0
O614 O 0.58704 0.88975 0.13476 0.0
H615 H 0.66181 0.82596 0.15935 0.0
H616 H 0.64709 0.87905 0.10535 0.0
H617 H 0.68115 0.88159 0.12533 0.0
H618 H 0.68869 0.8549 0.15254 0.0
H619 H 0.62789 0.82413 0.13914 0.0
H620 H 0.66156 0.83176 0.05188 0.0
H621 H 0.65007 0.85805 0.02576 0.0
O622 O 0.60769 0.88209 0.10771 0.0
C623 C 0.56276 0.85467 0.09475 0.0
C624 C 0.62583 0.8693 0.0454 0.0
C625 C 0.64878 0.84177 0.05535 0.0
N626 N 0.62253 0.8527 0.07909 0.0
C627 C 0.61603 0.86712 0.06476 0.0
C628 C 0.6386 0.84003 0.07456 0.0
C629 C 0.64233 0.85653 0.04071 0.0
C630 C 0.56625 0.82157 0.15986 0.0
N631 N 0.55604 0.83668 0.149 0.0
C632 C 0.55574 0.80234 0.16457 0.0
C633 C 0.53461 0.79867 0.15815 0.0
C634 C 0.52427 0.81421 0.1472 0.0
C635 C 0.53529 0.83324 0.14275 0.0
C636 C 0.52354 0.88776 0.17752 0.0
C637 C 0.54095 0.8946 0.13848 0.0
C638 C 0.53981 0.8757 0.17053 0.0
N639 N 0.54828 0.87918 0.1512 0.0
C640 C 0.52453 0.90681 0.14486 0.0
C641 C 0.51578 0.90333 0.16451 0.0
C642 C 0.59954 0.89534 0.12014 0.0
C643 C 0.65873 0.83765 0.14749 0.0
C644 C 0.65023 0.86741 0.1172 0.0
C645 C 0.66957 0.8689 0.12843 0.0
C646 C 0.67379 0.85391 0.14369 0.0
N647 N 0.63556 0.85141 0.12102 0.0
C648 C 0.63959 0.83664 0.13593 0.0
Co649 Co 0.64877 0.13216 0.63774 0.0
Co650 Co 0.65945 0.0828 0.65654 0.0
O651 O 0.6439 0.10159 0.63855 0.0
C652 C 0.60393 0.12514 0.65052 0.0
O653 O 0.61148 0.11269 0.66496 0.0
C654 C 0.66491 0.06673 0.61288 0.0
O655 O 0.66679 0.08613 0.60592 0.0
O656 O 0.68687 0.097 0.6491 0.0
O657 O 0.68067 0.12948 0.63735 0.0
H658 H 0.71396 0.06458 0.71157 0.0
H659 H 0.61904 0.1105 0.60651 0.0
O660 O 0.61673 0.13486 0.63813 0.0
H661 H 0.67457 0.14617 0.56459 0.0
H662 H 0.63218 0.2049 0.6137 0.0
H663 H 0.67935 0.1635 0.65826 0.0
H664 H 0.67566 0.14932 0.60341 0.0
H665 H 0.6271 0.16611 0.61507 0.0
O666 O 0.66186 0.06304 0.6323 0.0
H667 H 0.69377 0.08849 0.68924 0.0
H668 H 0.65855 0.03607 0.6613 0.0
H669 H 0.68512 0.20223 0.65725 0.0
H670 H 0.61726 0.10705 0.56774 0.0
H671 H 0.66143 0.22319 0.63484 0.0
H672 H 0.64519 0.12492 0.54651 0.0
O673 O 0.65051 0.13447 0.66916 0.0
H674 H 0.58746 0.04829 0.64013 0.0
H675 H 0.63977 0.06893 0.69667 0.0
H676 H 0.60561 0.05131 0.70587 0.0
H677 H 0.57922 0.04075 0.67746 0.0
H678 H 0.62165 0.06627 0.6317 0.0
H679 H 0.67846 0.0116 0.68319 0.0
H680 H 0.70634 0.02584 0.70861 0.0
O681 O 0.65742 0.10221 0.68116 0.0
C682 C 0.69326 0.11492 0.64206 0.0
C683 C 0.70179 0.0582 0.70062 0.0
C684 C 0.68189 0.02845 0.68467 0.0
N685 N 0.67487 0.0637 0.67415 0.0
C686 C 0.69026 0.07166 0.68799 0.0
C687 C 0.67069 0.04239 0.67229 0.0
C688 C 0.69752 0.03646 0.69893 0.0
C689 C 0.63114 0.11851 0.59738 0.0
N690 N 0.64737 0.1302 0.6072 0.0
C691 C 0.63009 0.11641 0.57543 0.0
C692 C 0.64579 0.12641 0.56353 0.0
C693 C 0.66229 0.13833 0.57367 0.0
C694 C 0.66285 0.14003 0.59565 0.0
C695 C 0.64263 0.19594 0.6235 0.0
C696 C 0.66906 0.17251 0.64838 0.0
C697 C 0.63979 0.17399 0.62437 0.0
N698 N 0.653 0.16258 0.63662 0.0
C699 C 0.67236 0.19444 0.64792 0.0
C700 C 0.65905 0.20619 0.63536 0.0
C701 C 0.65421 0.12167 0.68404 0.0
C702 C 0.59882 0.05282 0.65265 0.0
C703 C 0.62826 0.06462 0.68427 0.0
C704 C 0.60899 0.05454 0.68955 0.0
C705 C 0.5942 0.04861 0.6736 0.0
N706 N 0.63268 0.06868 0.66369 0.0
C707 C 0.61824 0.06295 0.64797 0.0
Co708 Co 0.42671 0.84929 0.8667 0.0
Co709 Co 0.37508 0.85896 0.87823 0.0
O710 O 0.40565 0.86421 0.88198 0.0
C711 C 0.44212 0.85014 0.91223 0.0
O712 O 0.42308 0.85253 0.91916 0.0
C713 C 0.38249 0.90465 0.868 0.0
O714 O 0.39655 0.89818 0.85495 0.0
O715 O 0.37671 0.8596 0.8469 0.0
O716 O 0.40927 0.84967 0.84012 0.0
H717 H 0.30837 0.82323 0.84731 0.0
H718 H 0.43844 0.88887 0.89055 0.0
O719 O 0.44533 0.84848 0.89258 0.0
H720 H 0.45883 0.90318 0.81741 0.0
H721 H 0.50087 0.83355 0.84737 0.0
H722 H 0.42494 0.81392 0.83574 0.0
H723 H 0.4434 0.86824 0.82712 0.0
H724 H 0.47391 0.85262 0.8659 0.0
O725 O 0.37179 0.89094 0.8787 0.0
H726 H 0.34701 0.82958 0.85217 0.0
H727 H 0.33794 0.87843 0.89663 0.0
H728 H 0.4514 0.79453 0.81674 0.0
H729 H 0.45368 0.92407 0.88151 0.0
H730 H 0.48967 0.80433 0.82252 0.0
H731 H 0.46404 0.93142 0.84472 0.0
O732 O 0.41293 0.82161 0.87418 0.0
H733 H 0.38842 0.88698 0.95206 0.0
H734 H 0.35475 0.82906 0.90852 0.0
H735 H 0.3521 0.82792 0.94721 0.0
H736 H 0.36893 0.85708 0.96926 0.0
H737 H 0.39101 0.88731 0.91336 0.0
H738 H 0.29919 0.87274 0.89215 0.0
H739 H 0.28418 0.84491 0.86739 0.0
O740 O 0.37832 0.82701 0.87764 0.0
C741 C 0.39083 0.85456 0.83414 0.0
C742 C 0.31471 0.83536 0.8582 0.0
C743 C 0.30957 0.86316 0.88334 0.0
N744 N 0.34468 0.85423 0.87479 0.0
C745 C 0.33657 0.83897 0.86106 0.0
C746 C 0.33151 0.86634 0.88578 0.0
C747 C 0.30115 0.84754 0.86945 0.0
C748 C 0.44301 0.89186 0.87453 0.0
N749 N 0.44006 0.87644 0.8594 0.0
C750 C 0.45155 0.91188 0.86948 0.0
C751 C 0.45733 0.916 0.84884 0.0
C752 C 0.45441 0.90017 0.83351 0.0
C753 C 0.44563 0.8804 0.83909 0.0
C754 C 0.48424 0.82916 0.84469 0.0
C755 C 0.44156 0.81836 0.83823 0.0
C756 C 0.46889 0.83987 0.85517 0.0
N757 N 0.44785 0.83449 0.85177 0.0
C758 C 0.45647 0.80729 0.82748 0.0
C759 C 0.47794 0.81277 0.83074 0.0
C760 C 0.39383 0.81475 0.87671 0.0
C761 C 0.38098 0.8742 0.94263 0.0
C762 C 0.36231 0.8417 0.91801 0.0
C763 C 0.36066 0.84102 0.93991 0.0
C764 C 0.37008 0.8574 0.95227 0.0
N765 N 0.37303 0.85823 0.90867 0.0
C766 C 0.38229 0.87436 0.92068 0.0
Co767 Co 0.65043 0.89224 0.40365 0.0
Co768 Co 0.63721 0.92844 0.36581 0.0
O769 O 0.65307 0.90504 0.37588 0.0
C770 C 0.69525 0.90799 0.4016 0.0
O771 O 0.68732 0.92595 0.39638 0.0
C772 C 0.62965 0.89573 0.33226 0.0
O773 O 0.62706 0.88143 0.34694 0.0
O774 O 0.61016 0.91392 0.37436 0.0
O775 O 0.61828 0.89281 0.40153 0.0
H776 H 0.58269 0.98282 0.37053 0.0
H777 H 0.67593 0.87223 0.3712 0.0
O778 O 0.68267 0.89213 0.40572 0.0
H779 H 0.61912 0.81912 0.38754 0.0
H780 H 0.67069 0.84134 0.4601 0.0
H781 H 0.62401 0.89826 0.44089 0.0
H782 H 0.62171 0.85364 0.40587 0.0
H783 H 0.67285 0.85814 0.42522 0.0
O784 O 0.63377 0.91499 0.33729 0.0
H785 H 0.6037 0.95367 0.38346 0.0
H786 H 0.63626 0.95287 0.32587 0.0
H787 H 0.62117 0.88179 0.47585 0.0
H788 H 0.67404 0.83785 0.35264 0.0
H789 H 0.64464 0.85311 0.48565 0.0
H790 H 0.64543 0.81104 0.36072 0.0
O791 O 0.65155 0.92014 0.41851 0.0
H792 H 0.70873 0.93156 0.33343 0.0
H793 H 0.65723 0.97194 0.37158 0.0
H794 H 0.69205 0.98891 0.36337 0.0
H795 H 0.71796 0.96873 0.34409 0.0
H796 H 0.67407 0.915 0.34247 0.0
H797 H 0.61494 0.98124 0.31199 0.0
H798 H 0.58825 0.99676 0.33454 0.0
O799 O 0.64044 0.94259 0.39386 0.0
C800 C 0.60483 0.90131 0.38913 0.0
C801 C 0.59443 0.97634 0.36065 0.0
C802 C 0.61251 0.97545 0.32778 0.0
N803 N 0.62131 0.9517 0.35551 0.0
C804 C 0.60645 0.95993 0.36792 0.0
C805 C 0.62446 0.95929 0.33568 0.0
C806 C 0.59751 0.98412 0.34043 0.0
C807 C 0.66357 0.86057 0.37497 0.0
N808 N 0.64901 0.86489 0.38967 0.0
C809 C 0.66252 0.84116 0.36434 0.0
C810 C 0.64644 0.82614 0.36885 0.0
C811 C 0.63167 0.83067 0.38389 0.0
C812 C 0.63319 0.85025 0.39418 0.0
C813 C 0.66035 0.85379 0.456 0.0
C814 C 0.63416 0.88569 0.44499 0.0
C815 C 0.66154 0.86338 0.4363 0.0
N816 N 0.64845 0.87903 0.43099 0.0
C817 C 0.63253 0.87647 0.46483 0.0
C818 C 0.64572 0.8604 0.47033 0.0
C819 C 0.64637 0.9383 0.41262 0.0
C820 C 0.69752 0.94055 0.34178 0.0
C821 C 0.66851 0.96302 0.3633 0.0
C822 C 0.68813 0.97274 0.35861 0.0
C823 C 0.7027 0.9614 0.34779 0.0
N824 N 0.66365 0.94249 0.35756 0.0
C825 C 0.67782 0.9313 0.34684 0.0
Co826 Co 0.59648 0.16551 0.86033 0.0
Co827 Co 0.64515 0.1536 0.88058 0.0
O828 O 0.61453 0.14868 0.87803 0.0
C829 C 0.57484 0.16248 0.90161 0.0
O830 O 0.59306 0.16561 0.91187 0.0
C831 C 0.63907 0.10813 0.86794 0.0
O832 O 0.62765 0.11491 0.85205 0.0
O833 O 0.64764 0.15318 0.84935 0.0
O834 O 0.61827 0.1684 0.83827 0.0
H835 H 0.71574 0.18842 0.86376 0.0
H836 H 0.58044 0.12377 0.87564 0.0
O837 O 0.5739 0.16276 0.88153 0.0
H838 H 0.57514 0.11845 0.79806 0.0
H839 H 0.527 0.18416 0.82677 0.0
H840 H 0.60304 0.2046 0.83556 0.0
H841 H 0.58818 0.15165 0.81554 0.0
H842 H 0.55049 0.16263 0.84829 0.0
O843 O 0.64784 0.12159 0.88112 0.0
H844 H 0.6769 0.18263 0.86084 0.0
H845 H 0.67885 0.13342 0.90566 0.0
H846 H 0.58016 0.2265 0.81376 0.0
H847 H 0.56695 0.09036 0.85882 0.0
H848 H 0.54184 0.21631 0.80925 0.0
H849 H 0.56436 0.08749 0.81974 0.0
O850 O 0.60829 0.19181 0.87433 0.0
H851 H 0.61967 0.12607 0.94996 0.0
H852 H 0.66183 0.18263 0.91511 0.0
H853 H 0.65841 0.18372 0.95374 0.0
H854 H 0.63725 0.15526 0.97142 0.0
H855 H 0.6233 0.12572 0.91135 0.0
H856 H 0.71774 0.13853 0.90895 0.0
H857 H 0.73642 0.16626 0.88796 0.0
O858 O 0.64263 0.18568 0.88008 0.0
C859 C 0.63629 0.16123 0.83492 0.0
C860 C 0.70778 0.17633 0.87304 0.0
C861 C 0.7089 0.14831 0.89838 0.0
N862 N 0.67565 0.15784 0.8832 0.0
C863 C 0.68579 0.17303 0.8715 0.0
C864 C 0.6869 0.14546 0.89643 0.0
C865 C 0.71937 0.16388 0.8866 0.0
C866 C 0.57913 0.12274 0.85864 0.0
N867 N 0.58511 0.13968 0.8466 0.0
C868 C 0.57157 0.10374 0.8492 0.0
C869 C 0.57014 0.10214 0.82727 0.0
C870 C 0.57621 0.11949 0.8151 0.0
C871 C 0.58368 0.13824 0.82509 0.0
C872 C 0.54368 0.18875 0.82859 0.0
C873 C 0.5864 0.20001 0.83359 0.0
C874 C 0.55704 0.17665 0.8408 0.0
N875 N 0.57814 0.1823 0.84308 0.0
C876 C 0.57351 0.2125 0.82126 0.0
C877 C 0.55201 0.20678 0.81876 0.0
C878 C 0.62733 0.19824 0.87894 0.0
C879 C 0.62899 0.13852 0.94245 0.0
C880 C 0.65251 0.17025 0.92267 0.0
C881 C 0.65068 0.17091 0.94456 0.0
C882 C 0.63883 0.15493 0.95447 0.0
N883 N 0.64283 0.15409 0.911 0.0
C884 C 0.63119 0.13835 0.9206 0.0
Co885 Co 0.35795 0.11607 0.39182 0.0
Co886 Co 0.36996 0.0777 0.35574 0.0
O887 O 0.35416 0.10149 0.36457 0.0
C888 C 0.31289 0.10034 0.38999 0.0
O889 O 0.32041 0.08204 0.38545 0.0
C890 C 0.37549 0.1086 0.32132 0.0
O891 O 0.37869 0.12348 0.33575 0.0
O892 O 0.39725 0.09297 0.36415 0.0
O893 O 0.39007 0.11537 0.39045 0.0
H894 H 0.42467 0.0237 0.36449 0.0
H895 H 0.33108 0.13407 0.35814 0.0
O896 O 0.32579 0.11638 0.39338 0.0
H897 H 0.38867 0.18805 0.37312 0.0
H898 H 0.34019 0.17056 0.44558 0.0
H899 H 0.3858 0.11222 0.42986 0.0
H900 H 0.38683 0.15473 0.39289 0.0
H901 H 0.33654 0.15158 0.41143 0.0
O902 O 0.37201 0.0895 0.32672 0.0
H903 H 0.40432 0.05388 0.37529 0.0
H904 H 0.36985 0.05088 0.31682 0.0
H905 H 0.39013 0.13087 0.46412 0.0
H906 H 0.3322 0.16724 0.33813 0.0
H907 H 0.36721 0.16028 0.47215 0.0
H908 H 0.36121 0.19447 0.34553 0.0
O909 O 0.35738 0.08911 0.40773 0.0
H910 H 0.29713 0.07117 0.32198 0.0
H911 H 0.35119 0.03417 0.36249 0.0
H912 H 0.31674 0.01569 0.35357 0.0
H913 H 0.28948 0.03419 0.33314 0.0
H914 H 0.33164 0.08917 0.33152 0.0
H915 H 0.39028 0.02117 0.30515 0.0
H916 H 0.41765 0.00711 0.32923 0.0
O917 O 0.36794 0.0653 0.38431 0.0
C918 C 0.40312 0.10631 0.37864 0.0
C919 C 0.41266 0.02958 0.35394 0.0
C920 C 0.3934 0.02818 0.32062 0.0
N921 N 0.38579 0.05402 0.34678 0.0
C922 C 0.40104 0.0466 0.36 0.0
C923 C 0.38195 0.04508 0.32727 0.0
C924 C 0.40877 0.02032 0.33413 0.0
C925 C 0.34362 0.14594 0.36161 0.0
N926 N 0.35882 0.14252 0.37673 0.0
C927 C 0.34423 0.16465 0.35016 0.0
C928 C 0.36052 0.17991 0.35429 0.0
C929 C 0.37595 0.17631 0.36976 0.0
C930 C 0.37485 0.1574 0.38087 0.0
C931 C 0.3503 0.15781 0.44225 0.0
C932 C 0.37588 0.1251 0.43319 0.0
C933 C 0.34827 0.14698 0.42297 0.0
N934 N 0.36107 0.13095 0.41862 0.0
C935 C 0.37835 0.13555 0.45264 0.0
C936 C 0.36547 0.15203 0.45715 0.0
C937 C 0.36249 0.07066 0.40269 0.0
C938 C 0.30891 0.06292 0.33086 0.0
C939 C 0.33935 0.04236 0.35369 0.0
C940 C 0.31992 0.03178 0.34861 0.0
C941 C 0.30462 0.04218 0.33714 0.0
N942 N 0.3434 0.06275 0.34758 0.0
C943 C 0.32851 0.073 0.33624 0.0
Co944 Co 0.13466 0.43306 0.0983 0.0
Co945 Co 0.09959 0.39566 0.11711 0.0
O946 O 0.12683 0.41166 0.1189 0.0
C947 C 0.17271 0.40788 0.10182 0.0
O948 O 0.16036 0.39065 0.09965 0.0
C949 C 0.10246 0.41174 0.16168 0.0
O950 O 0.10553 0.43054 0.15348 0.0
O951 O 0.08445 0.42228 0.11687 0.0
O952 O 0.10465 0.44116 0.09473 0.0
H953 H 0.02544 0.37842 0.08953 0.0
H954 H 0.15623 0.43321 0.14043 0.0
O955 O 0.16486 0.42589 0.10151 0.0
H956 H 0.12874 0.50405 0.13303 0.0
H957 H 0.18135 0.49161 0.06838 0.0
H958 H 0.11639 0.44595 0.0571 0.0
H959 H 0.12267 0.47746 0.10472 0.0
H960 H 0.17079 0.46501 0.09472 0.0
O961 O 0.09947 0.39563 0.14938 0.0
H962 H 0.06027 0.39791 0.0909 0.0
H963 H 0.08062 0.35987 0.1415 0.0
H964 H 0.12632 0.47239 0.03039 0.0
H965 H 0.16249 0.45931 0.16933 0.0
H966 H 0.15898 0.49552 0.03599 0.0
H967 H 0.14875 0.49507 0.16567 0.0
O968 O 0.13003 0.41192 0.07528 0.0
H969 H 0.15415 0.34698 0.14364 0.0
H970 H 0.09665 0.35625 0.09101 0.0
H971 H 0.11596 0.32354 0.0906 0.0
H972 H 0.14491 0.31874 0.11709 0.0
H973 H 0.13458 0.37953 0.14333 0.0
H974 H 0.04594 0.34007 0.14081 0.0
H975 H 0.01809 0.3493 0.11464 0.0
O976 O 0.09945 0.3955 0.08464 0.0
C977 C 0.08774 0.43817 0.10505 0.0
C978 C 0.03747 0.37421 0.10096 0.0
C979 C 0.04897 0.35271 0.12976 0.0
N980 N 0.07249 0.37989 0.11614 0.0
C981 C 0.05724 0.38514 0.10176 0.0
C982 C 0.06855 0.36398 0.1301 0.0
C983 C 0.03335 0.35788 0.11507 0.0
C984 C 0.15014 0.44871 0.13879 0.0
N985 N 0.13905 0.45378 0.12092 0.0
C986 C 0.15374 0.46342 0.15519 0.0
C987 C 0.14602 0.48347 0.15314 0.0
C988 C 0.13476 0.48851 0.13485 0.0
C989 C 0.13127 0.47335 0.1189 0.0
C990 C 0.16706 0.48166 0.06578 0.0
C991 C 0.1306 0.45597 0.05968 0.0
C992 C 0.16104 0.46651 0.08061 0.0
N993 N 0.14291 0.45402 0.07753 0.0
C994 C 0.13616 0.4709 0.04448 0.0
C995 C 0.15449 0.48385 0.04762 0.0
C996 C 0.11328 0.40053 0.07077 0.0
C997 C 0.14153 0.34886 0.13205 0.0
C998 C 0.10929 0.35431 0.10252 0.0
C999 C 0.12013 0.33573 0.10225 0.0
C1000 C 0.13636 0.33304 0.11713 0.0
N1001 N 0.11445 0.36975 0.11722 0.0
C1002 C 0.13033 0.36722 0.13186 0.0
Co1003 Co 0.13482 0.58122 0.89655 0.0
Co1004 Co 0.13352 0.63433 0.90661 0.0
O1005 O 0.12483 0.60508 0.91175 0.0
C1006 C 0.08793 0.57171 0.89051 0.0
O1007 O 0.08567 0.58909 0.87981 0.0
C1008 C 0.14489 0.6278 0.95201 0.0
O1009 O 0.15621 0.6126 0.94511 0.0
O1010 O 0.16413 0.62809 0.90673 0.0
O1011 O 0.16393 0.59455 0.89525 0.0
H1012 H 0.17337 0.69423 0.87136 0.0
H1013 H 0.11296 0.57534 0.937 0.0
O1014 O 0.10602 0.56708 0.89784 0.0
H1015 H 0.18269 0.54565 0.94835 0.0
H1016 H 0.13804 0.50378 0.88039 0.0
H1017 H 0.16205 0.57564 0.85979 0.0
H1018 H 0.17264 0.56032 0.91386 0.0
H1019 H 0.12721 0.53466 0.9003 0.0
O1020 O 0.13502 0.63904 0.93865 0.0
H1021 H 0.16229 0.65692 0.87724 0.0
H1022 H 0.12298 0.67478 0.92674 0.0
H1023 H 0.17361 0.54508 0.8397 0.0
H1024 H 0.12229 0.56071 0.97171 0.0
H1025 H 0.16156 0.50882 0.85004 0.0
H1026 H 0.15741 0.54579 0.97758 0.0
O1027 O 0.1275 0.59425 0.86904 0.0
H1028 H 0.0594 0.63099 0.93327 0.0
H1029 H 0.10603 0.65812 0.87754 0.0
H1030 H 0.06819 0.66558 0.87603 0.0
H1031 H 0.04461 0.65201 0.90406 0.0
H1032 H 0.09728 0.62375 0.93407 0.0
H1033 H 0.13374 0.7123 0.92152 0.0
H1034 H 0.15906 0.72221 0.8936 0.0
O1035 O 0.13191 0.62933 0.87468 0.0
C1036 C 0.17357 0.61209 0.90029 0.0
C1037 C 0.16228 0.69011 0.88353 0.0
C1038 C 0.14006 0.70025 0.91171 0.0
N1039 N 0.1419 0.66373 0.90222 0.0
C1040 C 0.1559 0.66903 0.88689 0.0
C1041 C 0.13406 0.679 0.91463 0.0
C1042 C 0.15426 0.7058 0.89603 0.0
C1043 C 0.12822 0.56875 0.93938 0.0
N1044 N 0.14227 0.56874 0.92341 0.0
C1045 C 0.13343 0.56053 0.95909 0.0
C1046 C 0.15315 0.5522 0.96239 0.0
C1047 C 0.16735 0.55214 0.946 0.0
C1048 C 0.16161 0.56054 0.92652 0.0
C1049 C 0.14363 0.51945 0.87594 0.0
C1050 C 0.15695 0.5599 0.8645 0.0
C1051 C 0.13744 0.53704 0.88707 0.0
N1052 N 0.14415 0.55694 0.88133 0.0
C1053 C 0.16349 0.54266 0.85303 0.0
C1054 C 0.15675 0.52232 0.85883 0.0
C1055 C 0.12874 0.6132 0.86231 0.0
C1056 C 0.06952 0.63704 0.921 0.0
C1057 C 0.09586 0.65212 0.88977 0.0
C1058 C 0.07445 0.65643 0.88885 0.0
C1059 C 0.06123 0.64882 0.90459 0.0
N1060 N 0.10388 0.64063 0.90595 0.0
C1061 C 0.09101 0.63306 0.92141 0.0
Co1062 Co 0.92637 0.64694 0.36327 0.0
Co1063 Co 0.87394 0.63922 0.37457 0.0
O1064 O 0.9037 0.63415 0.37964 0.0
C1065 C 0.95088 0.61021 0.35254 0.0
O1066 O 0.94771 0.61478 0.33258 0.0
C1067 C 0.88151 0.65043 0.4202 0.0
O1068 O 0.89654 0.66367 0.41368 0.0
O1069 O 0.88008 0.67042 0.37515 0.0
O1070 O 0.91162 0.67367 0.36001 0.0
H1071 H 0.81217 0.67283 0.33974 0.0
H1072 H 0.93632 0.62849 0.40497 0.0
O1073 O 0.94174 0.62041 0.3667 0.0
H1074 H 0.96135 0.7033 0.41095 0.0
H1075 H 1.00268 0.66501 0.34638 0.0
H1076 H 0.92819 0.67143 0.32379 0.0
H1077 H 0.94514 0.68909 0.37765 0.0
H1078 H 0.97374 0.64922 0.36747 0.0
O1079 O 0.87026 0.63939 0.40656 0.0
H1080 H 0.8499 0.6661 0.3456 0.0
H1081 H 0.83426 0.62323 0.39449 0.0
H1082 H 0.95658 0.68728 0.30228 0.0
H1083 H 0.95276 0.64198 0.43846 0.0
H1084 H 0.99414 0.6841 0.31356 0.0
H1085 H 0.96533 0.67966 0.44164 0.0
O1086 O 0.91213 0.63591 0.33683 0.0
H1087 H 0.87879 0.56519 0.40103 0.0
H1088 H 0.84906 0.60962 0.34541 0.0
H1089 H 0.84162 0.57108 0.34393 0.0
H1090 H 0.85647 0.5486 0.37193 0.0
H1091 H 0.88602 0.60378 0.40179 0.0
H1092 H 0.79636 0.62961 0.3893 0.0
H1093 H 0.78511 0.6545 0.36169 0.0
O1094 O 0.87752 0.63889 0.34254 0.0
C1095 C 0.89504 0.68152 0.3669 0.0
C1096 C 0.81687 0.66189 0.35177 0.0
C1097 C 0.808 0.63766 0.37961 0.0
N1098 N 0.84421 0.64417 0.37024 0.0
C1099 C 0.83819 0.65798 0.35511 0.0
C1100 C 0.82947 0.63415 0.38251 0.0
C1101 C 0.8017 0.65162 0.36411 0.0
C1102 C 0.94197 0.64485 0.40613 0.0
N1103 N 0.93984 0.65794 0.3893 0.0
C1104 C 0.95118 0.65242 0.42518 0.0
C1105 C 0.9582 0.67357 0.42696 0.0
C1106 C 0.95595 0.68684 0.40976 0.0
C1107 C 0.94667 0.67872 0.39095 0.0
C1108 C 0.98636 0.66641 0.34133 0.0
C1109 C 0.94449 0.66993 0.32881 0.0
C1110 C 0.96992 0.65754 0.35318 0.0
N1111 N 0.94928 0.65936 0.34686 0.0
C1112 C 0.9605 0.67895 0.31656 0.0
C1113 C 0.98157 0.67716 0.3229 0.0
C1114 C 0.89294 0.63615 0.33016 0.0
C1115 C 0.87219 0.57482 0.38877 0.0
C1116 C 0.85567 0.59993 0.35759 0.0
C1117 C 0.85135 0.57812 0.3567 0.0
C1118 C 0.85968 0.56552 0.37242 0.0
N1119 N 0.86788 0.60894 0.37373 0.0
C1120 C 0.87617 0.59669 0.38915 0.0
Co1121 Co 0.88745 0.45011 0.88565 0.0
Co1122 Co 0.89519 0.39813 0.898 0.0
O1123 O 0.90123 0.42846 0.90169 0.0
C1124 C 0.93369 0.45988 0.87913 0.0
O1125 O 0.93781 0.43985 0.87909 0.0
C1126 C 0.88463 0.40619 0.94302 0.0
O1127 O 0.87228 0.4205 0.93561 0.0
O1128 O 0.8639 0.40127 0.89717 0.0
O1129 O 0.85933 0.43497 0.88843 0.0
H1130 H 0.85988 0.33259 0.86506 0.0
H1131 H 0.91519 0.46183 0.92275 0.0
O1132 O 0.91515 0.4659 0.8822 0.0
H1133 H 0.84577 0.48876 0.93871 0.0
H1134 H 0.87591 0.52478 0.86353 0.0
H1135 H 0.85409 0.44972 0.85194 0.0
H1136 H 0.85115 0.47054 0.90495 0.0
H1137 H 0.89223 0.49722 0.88466 0.0
O1138 O 0.89503 0.39532 0.93015 0.0
H1139 H 0.86755 0.37094 0.86928 0.0
H1140 H 0.91047 0.36055 0.92031 0.0
H1141 H 0.83698 0.47681 0.83086 0.0
H1142 H 0.91062 0.4802 0.9566 0.0
H1143 H 0.84787 0.5146 0.83659 0.0
H1144 H 0.87568 0.49378 0.96478 0.0
O1145 O 0.89175 0.43508 0.85875 0.0
H1146 H 0.96974 0.41014 0.92674 0.0
H1147 H 0.9243 0.37541 0.87079 0.0
H1148 H 0.96287 0.37163 0.87074 0.0
H1149 H 0.98586 0.38903 0.89887 0.0
H1150 H 0.93113 0.41372 0.92607 0.0
H1151 H 0.90316 0.32207 0.91676 0.0
H1152 H 0.87775 0.30787 0.88892 0.0
O1153 O 0.89542 0.40082 0.86595 0.0
C1154 C 0.85213 0.41642 0.89272 0.0
C1155 C 0.87103 0.33858 0.87721 0.0
C1156 C 0.8953 0.33268 0.90625 0.0
N1157 N 0.88954 0.36793 0.89493 0.0
C1158 C 0.87548 0.36027 0.87963 0.0
C1159 C 0.89934 0.35447 0.90822 0.0
C1160 C 0.88105 0.32472 0.89062 0.0
C1161 C 0.89996 0.46774 0.92618 0.0
N1162 N 0.88342 0.46504 0.91193 0.0
C1163 C 0.89745 0.47809 0.94539 0.0
C1164 C 0.87785 0.48569 0.94997 0.0
C1165 C 0.86105 0.48286 0.93536 0.0
C1166 C 0.86415 0.47245 0.91631 0.0
C1167 C 0.87091 0.50836 0.86102 0.0
C1168 C 0.85874 0.46617 0.85471 0.0
C1169 C 0.88017 0.49267 0.87286 0.0
N1170 N 0.87399 0.47187 0.86966 0.0
C1171 C 0.84907 0.48143 0.84266 0.0
C1172 C 0.85521 0.50265 0.84587 0.0
C1173 C 0.89429 0.41614 0.85291 0.0
C1174 C 0.95988 0.40243 0.91443 0.0
C1175 C 0.93421 0.3831 0.88305 0.0
C1176 C 0.95603 0.38085 0.88297 0.0
C1177 C 0.96892 0.39061 0.89877 0.0
N1178 N 0.92546 0.3947 0.89847 0.0
C1179 C 0.938 0.40431 0.91402 0.0
Co1180 Co 0.09421 0.36163 0.3851 0.0
Co1181 Co 0.11985 0.40633 0.3669 0.0
O1182 O 0.11177 0.37618 0.36439 0.0
C1183 C 0.12458 0.32965 0.37023 0.0
O1184 O 0.134 0.34317 0.35759 0.0
C1185 C 0.10248 0.40147 0.32264 0.0
O1186 O 0.08544 0.39291 0.33113 0.0
O1187 O 0.08968 0.4132 0.36833 0.0
O1188 O 0.07806 0.38741 0.38973 0.0
H1189 H 0.11785 0.47957 0.39726 0.0
H1190 H 0.09744 0.34465 0.34122 0.0
O1191 O 0.10949 0.33494 0.38167 0.0
H1192 H 0.02116 0.34882 0.35212 0.0
H1193 H 0.05207 0.29996 0.41539 0.0
H1194 H 0.07861 0.37376 0.42694 0.0
H1195 H 0.04715 0.36047 0.38021 0.0
H1196 H 0.07335 0.31843 0.38854 0.0
O1197 O 0.1181 0.40814 0.33469 0.0
H1198 H 0.10816 0.44144 0.3947 0.0
H1199 H 0.14824 0.43549 0.34267 0.0
H1200 H 0.05728 0.35594 0.45409 0.0
H1201 H 0.07213 0.3331 0.31291 0.0
H1202 H 0.04382 0.31877 0.44841 0.0
H1203 H 0.0336 0.33514 0.31825 0.0
O1204 O 0.11485 0.37091 0.40775 0.0
H1205 H 0.18188 0.37174 0.33649 0.0
H1206 H 0.15862 0.41822 0.393 0.0
H1207 H 0.19612 0.40971 0.39194 0.0
H1208 H 0.20798 0.38636 0.3635 0.0
H1209 H 0.14449 0.38046 0.33828 0.0
H1210 H 0.15823 0.47361 0.34454 0.0
H1211 H 0.14304 0.49589 0.37204 0.0
O1212 O 0.12144 0.40485 0.39932 0.0
C1213 C 0.07621 0.40519 0.38089 0.0
C1214 C 0.12462 0.47001 0.38525 0.0
C1215 C 0.14727 0.46667 0.35565 0.0
N1216 N 0.12777 0.43624 0.36867 0.0
C1217 C 0.11925 0.4484 0.38377 0.0
C1218 C 0.14152 0.44511 0.35464 0.0
C1219 C 0.13875 0.47917 0.37108 0.0
C1220 C 0.08081 0.34532 0.34395 0.0
N1221 N 0.07389 0.35271 0.3627 0.0
C1222 C 0.06649 0.3389 0.32771 0.0
C1223 C 0.04489 0.34012 0.33068 0.0
C1224 C 0.03791 0.34788 0.3497 0.0
C1225 C 0.05271 0.35434 0.36555 0.0
C1226 C 0.05781 0.31617 0.41803 0.0
C1227 C 0.07274 0.35762 0.42426 0.0
C1228 C 0.06992 0.3267 0.40291 0.0
N1229 N 0.07711 0.34722 0.40608 0.0
C1230 C 0.0607 0.3476 0.43974 0.0
C1231 C 0.05318 0.32673 0.43655 0.0
C1232 C 0.12095 0.38979 0.41282 0.0
C1233 C 0.17691 0.38192 0.34897 0.0
C1234 C 0.16361 0.40786 0.3807 0.0
C1235 C 0.18489 0.40319 0.38012 0.0
C1236 C 0.19154 0.39011 0.36414 0.0
N1237 N 0.14935 0.39972 0.36579 0.0
C1238 C 0.15576 0.38695 0.35005 0.0
Co1239 Co 0.86872 0.58945 0.13489 0.0
Co1240 Co 0.87272 0.64257 0.12588 0.0
O1241 O 0.88026 0.61387 0.12014 0.0
C1242 C 0.91475 0.58026 0.14084 0.0
O1243 O 0.91848 0.59646 0.15367 0.0
C1244 C 0.86319 0.63653 0.07975 0.0
O1245 O 0.85061 0.62053 0.08531 0.0
O1246 O 0.84178 0.63422 0.12378 0.0
O1247 O 0.84061 0.60164 0.13712 0.0
H1248 H 0.8336 0.69924 0.16112 0.0
H1249 H 0.88937 0.58422 0.09389 0.0
O1250 O 0.8964 0.57627 0.13254 0.0
H1251 H 0.81676 0.55306 0.08306 0.0
H1252 H 0.85895 0.5115 0.14828 0.0
H1253 H 0.84199 0.58256 0.17219 0.0
H1254 H 0.82865 0.56793 0.11769 0.0
H1255 H 0.8724 0.54306 0.12946 0.0
O1256 O 0.87307 0.64787 0.09411 0.0
H1257 H 0.84333 0.66272 0.1544 0.0
H1258 H 0.88616 0.68416 0.10788 0.0
H1259 H 0.82815 0.55137 0.1914 0.0
H1260 H 0.87817 0.56936 0.05904 0.0
H1261 H 0.83659 0.51553 0.1794 0.0
H1262 H 0.84161 0.5537 0.05343 0.0
O1263 O 0.8775 0.60265 0.16253 0.0
H1264 H 0.94814 0.64444 0.10294 0.0
H1265 H 0.89986 0.66784 0.15701 0.0
H1266 H 0.938 0.6778 0.16063 0.0
H1267 H 0.96242 0.66612 0.13343 0.0
H1268 H 0.90991 0.63468 0.10004 0.0
H1269 H 0.87678 0.72091 0.11396 0.0
H1270 H 0.85038 0.72863 0.14081 0.0
O1271 O 0.87264 0.63718 0.15765 0.0
C1272 C 0.83159 0.61796 0.13078 0.0
C1273 C 0.84517 0.69609 0.14943 0.0
C1274 C 0.86938 0.70825 0.12293 0.0
N1275 N 0.8654 0.67138 0.13089 0.0
C1276 C 0.85078 0.67546 0.1456 0.0
C1277 C 0.87459 0.68741 0.11952 0.0
C1278 C 0.85458 0.71257 0.13801 0.0
C1279 C 0.87349 0.57725 0.09164 0.0
N1280 N 0.85971 0.5769 0.10785 0.0
C1281 C 0.86722 0.56894 0.07184 0.0
C1282 C 0.84669 0.56018 0.0687 0.0
C1283 C 0.83274 0.55983 0.08531 0.0
C1284 C 0.83955 0.56833 0.10488 0.0
C1285 C 0.85503 0.52702 0.15354 0.0
C1286 C 0.84565 0.56701 0.16682 0.0
C1287 C 0.86267 0.54497 0.14301 0.0
N1288 N 0.85784 0.56465 0.14962 0.0
C1289 C 0.83779 0.54941 0.17778 0.0
C1290 C 0.84253 0.5293 0.17105 0.0
C1291 C 0.87595 0.62138 0.16969 0.0
C1292 C 0.93765 0.64967 0.11486 0.0
C1293 C 0.91039 0.66264 0.14515 0.0
C1294 C 0.93197 0.66837 0.14726 0.0
C1295 C 0.94565 0.66182 0.13199 0.0
N1296 N 0.90265 0.65079 0.12827 0.0
C1297 C 0.91598 0.64426 0.11327 0.0
Co1298 Co 0.92616 0.36962 0.63107 0.0
Co1299 Co 0.89003 0.40316 0.64837 0.0
O1300 O 0.90486 0.3771 0.65095 0.0
C1301 C 0.89958 0.32996 0.6355 0.0
O1302 O 0.88256 0.34078 0.63351 0.0
C1303 C 0.90553 0.40268 0.6932 0.0
O1304 O 0.92417 0.39974 0.68547 0.0
O1305 O 0.91749 0.42001 0.64867 0.0
O1306 O 0.93564 0.39995 0.62708 0.0
H1307 H 0.87609 0.47448 0.619 0.0
H1308 H 0.92507 0.34981 0.67319 0.0
O1309 O 0.91785 0.33918 0.6346 0.0
H1310 H 0.99684 0.38339 0.66869 0.0
H1311 H 0.98329 0.32537 0.60358 0.0
H1312 H 0.9389 0.38534 0.58913 0.0
H1313 H 0.97096 0.38562 0.63917 0.0
H1314 H 0.95775 0.33637 0.62959 0.0
O1315 O 0.88973 0.40497 0.6805 0.0
H1316 H 0.89424 0.44115 0.62162 0.0
H1317 H 0.85475 0.4211 0.67145 0.0
H1318 H 0.96376 0.37446 0.56242 0.0
H1319 H 0.95042 0.34721 0.70319 0.0
H1320 H 0.98633 0.34439 0.56965 0.0
H1321 H 0.98662 0.36411 0.70104 0.0
O1322 O 0.90511 0.37148 0.6075 0.0
H1323 H 0.83834 0.34707 0.6744 0.0
H1324 H 0.85081 0.40215 0.62112 0.0
H1325 H 0.81704 0.38079 0.62012 0.0
H1326 H 0.81062 0.35306 0.64693 0.0
H1327 H 0.87197 0.36862 0.67466 0.0
H1328 H 0.83627 0.4543 0.66951 0.0
H1329 H 0.84688 0.48122 0.64307 0.0
O1330 O 0.89013 0.40156 0.61599 0.0
C1331 C 0.93299 0.41724 0.6368 0.0
C1332 C 0.87127 0.46284 0.63053 0.0
C1333 C 0.84894 0.45153 0.6589 0.0
N1334 N 0.87542 0.42915 0.64654 0.0
C1335 C 0.88145 0.44392 0.63204 0.0
C1336 C 0.85948 0.43279 0.65996 0.0
C1337 C 0.8549 0.46662 0.64406 0.0
C1338 C 0.94082 0.35713 0.67211 0.0
N1339 N 0.94654 0.36787 0.65439 0.0
C1340 C 0.95508 0.35566 0.68917 0.0
C1341 C 0.97537 0.36518 0.68798 0.0
C1342 C 0.9811 0.37605 0.66985 0.0
C1343 C 0.96638 0.3773 0.65317 0.0
C1344 C 0.97356 0.33851 0.60025 0.0
C1345 C 0.94854 0.37215 0.59235 0.0
C1346 C 0.95911 0.34485 0.61495 0.0
N1347 N 0.94693 0.36158 0.61097 0.0
C1348 C 0.96259 0.36604 0.57714 0.0
C1349 C 0.97524 0.34917 0.5812 0.0
C1350 C 0.89445 0.38725 0.60252 0.0
C1351 C 0.84092 0.35915 0.66267 0.0
C1352 C 0.84817 0.39003 0.63277 0.0
C1353 C 0.829 0.37804 0.63217 0.0
C1354 C 0.8254 0.36249 0.64723 0.0
N1355 N 0.86332 0.38667 0.64797 0.0
C1356 C 0.8599 0.37147 0.6628 0.0
Co1357 Co 0.08261 0.6348 0.66691 0.0
Co1358 Co 0.13484 0.62582 0.65772 0.0
O1359 O 0.10453 0.62063 0.65219 0.0
C1360 C 0.06669 0.58883 0.66342 0.0
O1361 O 0.08525 0.58233 0.65855 0.0
C1362 C 0.12988 0.63621 0.61183 0.0
O1363 O 0.11655 0.65007 0.61777 0.0
O1364 O 0.1326 0.65706 0.65686 0.0
O1365 O 0.09968 0.66204 0.66714 0.0
H1366 H 0.1998 0.65992 0.69376 0.0
H1367 H 0.07379 0.61153 0.62642 0.0
O1368 O 0.06417 0.60825 0.66722 0.0
H1369 H 0.05163 0.68364 0.61351 0.0
H1370 H 0.00733 0.6508 0.68153 0.0
H1371 H 0.08235 0.66526 0.70266 0.0
H1372 H 0.06551 0.67378 0.64853 0.0
H1373 H 0.03546 0.63372 0.66278 0.0
O1374 O 0.13916 0.62517 0.62579 0.0
H1375 H 0.16141 0.65324 0.68713 0.0
H1376 H 0.17308 0.60912 0.63871 0.0
H1377 H 0.05469 0.68287 0.72172 0.0
H1378 H 0.06037 0.62081 0.5911 0.0
H1379 H 0.01687 0.67568 0.71116 0.0
H1380 H 0.04904 0.65706 0.58445 0.0
O1381 O 0.09542 0.62746 0.69468 0.0
H1382 H 0.12425 0.55132 0.63024 0.0
H1383 H 0.15475 0.59676 0.68809 0.0
H1384 H 0.15827 0.55831 0.68964 0.0
H1385 H 0.14304 0.53531 0.66051 0.0
H1386 H 0.12073 0.58979 0.62953 0.0
H1387 H 0.21161 0.61542 0.6447 0.0
H1388 H 0.22518 0.64093 0.67245 0.0
O1389 O 0.13044 0.62641 0.68957 0.0
C1390 C 0.11807 0.66902 0.66218 0.0
C1391 C 0.19408 0.64871 0.68167 0.0
C1392 C 0.20071 0.62376 0.65411 0.0
N1393 N 0.16505 0.63069 0.66267 0.0
C1394 C 0.17237 0.64482 0.67789 0.0
C1395 C 0.17889 0.62029 0.65076 0.0
C1396 C 0.20831 0.63807 0.66969 0.0
C1397 C 0.06885 0.62732 0.62375 0.0
N1398 N 0.07034 0.64205 0.63965 0.0
C1399 C 0.06134 0.63251 0.60365 0.0
C1400 C 0.05501 0.65285 0.59992 0.0
C1401 C 0.05645 0.66777 0.61622 0.0
C1402 C 0.06432 0.66209 0.63604 0.0
C1403 C 0.02375 0.65411 0.68625 0.0
C1404 C 0.06594 0.66216 0.6979 0.0
C1405 C 0.03976 0.64444 0.67573 0.0
N1406 N 0.06056 0.64861 0.68153 0.0
C1407 C 0.05034 0.67212 0.70878 0.0
C1408 C 0.02912 0.66807 0.70287 0.0
C1409 C 0.11443 0.62616 0.70169 0.0
C1410 C 0.13099 0.56117 0.64301 0.0
C1411 C 0.14786 0.58685 0.67548 0.0
C1412 C 0.15001 0.56509 0.67638 0.0
C1413 C 0.1415 0.5522 0.66002 0.0
N1414 N 0.13751 0.59553 0.65876 0.0
C1415 C 0.12915 0.583 0.64264 0.0
Co1416 Co 0.87776 0.8785 0.65044 0.0
Co1417 Co 0.89473 0.85715 0.60458 0.0
O1418 O 0.87681 0.87576 0.61972 0.0
C1419 C 0.83194 0.8677 0.6407 0.0
O1420 O 0.83828 0.85103 0.63084 0.0
C1421 C 0.90189 0.89766 0.58212 0.0
O1422 O 0.90362 0.90783 0.60025 0.0
O1423 O 0.92023 0.8708 0.61853 0.0
O1424 O 0.91002 0.87615 0.65172 0.0
H1425 H 0.95419 0.80845 0.59775 0.0
H1426 H 0.85657 0.91041 0.62477 0.0
O1427 O 0.84566 0.88083 0.64952 0.0
H1428 H 0.91364 0.95008 0.66514 0.0
H1429 H 0.85578 0.90882 0.71947 0.0
H1430 H 0.90006 0.85755 0.68549 0.0
H1431 H 0.90787 0.91163 0.66946 0.0
H1432 H 0.85575 0.90525 0.68069 0.0
O1433 O 0.89732 0.87788 0.58135 0.0
H1434 H 0.93081 0.83145 0.61673 0.0
H1435 H 0.89759 0.84406 0.5595 0.0
H1436 H 0.90073 0.86071 0.72431 0.0
H1437 H 0.86164 0.94888 0.62012 0.0
H1438 H 0.87846 0.8865 0.74154 0.0
H1439 H 0.89039 0.96896 0.64035 0.0
O1440 O 0.87358 0.84738 0.65356 0.0
H1441 H 0.82396 0.85649 0.56664 0.0
H1442 H 0.87865 0.8125 0.59721 0.0
H1443 H 0.84603 0.79541 0.58137 0.0
H1444 H 0.8184 0.81744 0.56589 0.0
H1445 H 0.85675 0.87297 0.58295 0.0
H1446 H 0.92075 0.82135 0.53986 0.0
H1447 H 0.94923 0.80328 0.55903 0.0
O1448 O 0.89292 0.8357 0.62722 0.0
C1449 C 0.92442 0.87509 0.63789 0.0
C1450 C 0.94178 0.81617 0.58923 0.0
C1451 C 0.92303 0.82344 0.55674 0.0
N1452 N 0.91275 0.83897 0.58926 0.0
C1453 C 0.92846 0.82918 0.5999 0.0
C1454 C 0.91 0.83631 0.56793 0.0
C1455 C 0.93901 0.8133 0.5675 0.0
C1456 C 0.86899 0.91907 0.63377 0.0
N1457 N 0.88185 0.90881 0.64742 0.0
C1458 C 0.87184 0.94084 0.63101 0.0
C1459 C 0.88799 0.95209 0.64234 0.0
C1460 C 0.90105 0.9415 0.65624 0.0
C1461 C 0.89775 0.91972 0.65858 0.0
C1462 C 0.86558 0.89756 0.71215 0.0
C1463 C 0.89045 0.8689 0.69289 0.0
C1464 C 0.86559 0.89544 0.69021 0.0
N1465 N 0.87803 0.88133 0.68088 0.0
C1466 C 0.89083 0.87058 0.71486 0.0
C1467 C 0.87832 0.88504 0.72452 0.0
C1468 C 0.88258 0.83284 0.64393 0.0
C1469 C 0.8359 0.84672 0.57328 0.0
C1470 C 0.86669 0.82222 0.59057 0.0
C1471 C 0.84827 0.81244 0.58157 0.0
C1472 C 0.83278 0.82481 0.57289 0.0
N1473 N 0.8696 0.84373 0.59097 0.0
C1474 C 0.85452 0.85596 0.58245 0.0
Co1475 Co 0.64041 0.33803 0.08384 0.0
Co1476 Co 0.59979 0.34976 0.11574 0.0
O1477 O 0.6284 0.35481 0.10577 0.0
C1478 C 0.67283 0.33898 0.1183 0.0
O1479 O 0.65767 0.33361 0.13124 0.0
C1480 C 0.60173 0.39486 0.10278 0.0
O1481 O 0.60748 0.38759 0.08451 0.0
O1482 O 0.58763 0.3498 0.08644 0.0
O1483 O 0.61261 0.33447 0.06836 0.0
H1484 H 0.52678 0.3146 0.11669 0.0
H1485 H 0.66045 0.38002 0.0954 0.0
O1486 O 0.66862 0.34126 0.09874 0.0
H1487 H 0.64018 0.38469 0.02003 0.0
H1488 H 0.69655 0.3207 0.03282 0.0
H1489 H 0.62687 0.29863 0.06054 0.0
H1490 H 0.63367 0.35151 0.03924 0.0
H1491 H 0.68079 0.3415 0.06076 0.0
O1492 O 0.59746 0.38179 0.11761 0.0
H1493 H 0.56323 0.32029 0.10429 0.0
H1494 H 0.57518 0.37025 0.14871 0.0
H1495 H 0.64198 0.27743 0.0325 0.0
H1496 H 0.6674 0.41349 0.0767 0.0
H1497 H 0.67704 0.28849 0.0184 0.0
H1498 H 0.65711 0.416 0.03875 0.0
O1499 O 0.63363 0.31181 0.09958 0.0
H1500 H 0.64638 0.37761 0.1763 0.0
H1501 H 0.59435 0.32115 0.15241 0.0
H1502 H 0.60988 0.32022 0.18849 0.0
H1503 H 0.63609 0.34862 0.20064 0.0
H1504 H 0.63058 0.37783 0.14032 0.0
H1505 H 0.53879 0.36526 0.16147 0.0
H1506 H 0.51435 0.33722 0.14547 0.0
O1507 O 0.60218 0.31767 0.11373 0.0
C1508 C 0.59411 0.34125 0.06976 0.0
C1509 C 0.5373 0.32683 0.12384 0.0
C1510 C 0.54403 0.35528 0.14895 0.0
N1511 N 0.57133 0.34546 0.1259 0.0
C1512 C 0.55797 0.33007 0.11693 0.0
C1513 C 0.56459 0.35807 0.14164 0.0
C1514 C 0.53033 0.33954 0.13997 0.0
C1515 C 0.65616 0.38092 0.07882 0.0
N1516 N 0.64672 0.3638 0.06843 0.0
C1517 C 0.66005 0.39994 0.06835 0.0
C1518 C 0.65423 0.40136 0.04707 0.0
C1519 C 0.6447 0.38381 0.03657 0.0
C1520 C 0.64103 0.36505 0.04755 0.0
C1521 C 0.68125 0.31575 0.03879 0.0
C1522 C 0.64212 0.30355 0.05445 0.0
C1523 C 0.67227 0.32743 0.05466 0.0
N1524 N 0.65286 0.32137 0.06215 0.0
C1525 C 0.65061 0.29148 0.0386 0.0
C1526 C 0.67028 0.29768 0.03071 0.0
C1527 C 0.61678 0.30534 0.10864 0.0
C1528 C 0.63493 0.36519 0.17122 0.0
C1529 C 0.60577 0.33353 0.15758 0.0
C1530 C 0.61448 0.33295 0.17803 0.0
C1531 C 0.62917 0.34889 0.18485 0.0
N1532 N 0.61149 0.34957 0.14432 0.0
C1533 C 0.62586 0.36528 0.15089 0.0
Co1534 Co 0.14903 0.13106 0.64842 0.0
Co1535 Co 0.13023 0.13458 0.59761 0.0
O1536 O 0.14984 0.12365 0.61846 0.0
C1537 C 0.19391 0.13968 0.63671 0.0
O1538 O 0.18616 0.1499 0.62063 0.0
C1539 C 0.11601 0.09467 0.57543 0.0
O1540 O 0.0974 0.0962 0.58372 0.0
O1541 O 0.1062 0.12281 0.61391 0.0
O1542 O 0.11659 0.131 0.64725 0.0
H1543 H 0.06456 0.1698 0.57397 0.0
H1544 H 0.17244 0.09429 0.63499 0.0
O1545 O 0.18128 0.1313 0.65008 0.0
H1546 H 0.11883 0.06578 0.68359 0.0
H1547 H 0.17325 0.12739 0.72448 0.0
H1548 H 0.12505 0.16051 0.67382 0.0
H1549 H 0.12156 0.10378 0.6756 0.0
H1550 H 0.17299 0.11778 0.68669 0.0
O1551 O 0.13133 0.10761 0.581 0.0
H1552 H 0.09007 0.15629 0.59989 0.0
H1553 H 0.12773 0.13515 0.55041 0.0
H1554 H 0.12467 0.17048 0.71147 0.0
H1555 H 0.1704 0.05621 0.64268 0.0
H1556 H 0.14889 0.15386 0.73709 0.0
H1557 H 0.14341 0.04173 0.66712 0.0
O1558 O 0.1507 0.16163 0.64176 0.0
H1559 H 0.20075 0.13213 0.56345 0.0
H1560 H 0.14181 0.17682 0.5794 0.0
H1561 H 0.17235 0.19195 0.56033 0.0
H1562 H 0.20207 0.16953 0.55215 0.0
H1563 H 0.17007 0.11772 0.58281 0.0
H1564 H 0.10294 0.14901 0.52396 0.0
H1565 H 0.07096 0.16625 0.53567 0.0
O1566 O 0.12892 0.16191 0.61333 0.0
C1567 C 0.10215 0.12557 0.63326 0.0
C1568 C 0.0784 0.16225 0.56866 0.0
C1569 C 0.09989 0.15049 0.54059 0.0
N1570 N 0.11041 0.14496 0.5767 0.0
C1571 C 0.0929 0.15452 0.58327 0.0
C1572 C 0.11391 0.14272 0.55565 0.0
C1573 C 0.08199 0.16024 0.54718 0.0
C1574 C 0.16076 0.08812 0.64574 0.0
N1575 N 0.14722 0.10124 0.65492 0.0
C1576 C 0.15963 0.06653 0.64999 0.0
C1577 C 0.14447 0.05842 0.66369 0.0
C1578 C 0.13066 0.0719 0.67293 0.0
C1579 C 0.13225 0.09339 0.6683 0.0
C1580 C 0.16258 0.1347 0.71348 0.0
C1581 C 0.13553 0.15311 0.6849 0.0
C1582 C 0.1624 0.12935 0.69207 0.0
N1583 N 0.14889 0.13845 0.67812 0.0
C1584 C 0.13529 0.15886 0.70619 0.0
C1585 C 0.14891 0.14955 0.72055 0.0
C1586 C 0.13925 0.17126 0.62857 0.0
C1587 C 0.18785 0.14203 0.56684 0.0
C1588 C 0.15474 0.16699 0.57606 0.0
C1589 C 0.17196 0.17562 0.56517 0.0
C1590 C 0.18861 0.16303 0.56055 0.0
N1591 N 0.15409 0.14636 0.58216 0.0
C1592 C 0.17038 0.13392 0.5777 0.0
Co1593 Co 0.35889 0.66195 0.07498 0.0
Co1594 Co 0.40069 0.65325 0.10923 0.0
O1595 O 0.37191 0.64731 0.09829 0.0
C1596 C 0.32883 0.66514 0.10949 0.0
O1597 O 0.34507 0.67025 0.12219 0.0
C1598 C 0.39944 0.60793 0.09621 0.0
O1599 O 0.39268 0.6147 0.07787 0.0
O1600 O 0.41255 0.65325 0.08045 0.0
O1601 O 0.38576 0.6629 0.05941 0.0
H1602 H 0.47284 0.69044 0.11315 0.0
H1603 H 0.33861 0.62226 0.09077 0.0
O1604 O 0.33159 0.66141 0.09004 0.0
H1605 H 0.35313 0.60762 0.01631 0.0
H1606 H 0.3001 0.67508 0.0224 0.0
H1607 H 0.37204 0.69803 0.04805 0.0
H1608 H 0.3623 0.64289 0.03207 0.0
H1609 H 0.317 0.6571 0.05225 0.0
O1610 O 0.40398 0.62136 0.11114 0.0
H1611 H 0.43628 0.68353 0.09928 0.0
H1612 H 0.4265 0.63405 0.14316 0.0
H1613 H 0.35583 0.71632 0.01803 0.0
H1614 H 0.32923 0.58696 0.07568 0.0
H1615 H 0.31962 0.70482 1.00499 0.0
H1616 H 0.33659 0.57948 0.03819 0.0
O1617 O 0.36726 0.68979 0.08812 0.0
H1618 H 0.35592 0.62511 0.16795 0.0
H1619 H 0.40589 0.68262 0.1461 0.0
H1620 H 0.3909 0.68375 0.18155 0.0
H1621 H 0.36572 0.65484 0.19267 0.0
H1622 H 0.37117 0.62469 0.13261 0.0
H1623 H 0.46302 0.64028 0.1574 0.0
H1624 H 0.48643 0.6687 0.14241 0.0
O1625 O 0.39732 0.68509 0.10707 0.0
C1626 C 0.40507 0.65879 0.0626 0.0
C1627 C 0.46277 0.67806 0.11986 0.0
C1628 C 0.45727 0.64988 0.14468 0.0
N1629 N 0.42925 0.65853 0.12053 0.0
C1630 C 0.44204 0.67413 0.11212 0.0
C1631 C 0.43663 0.6464 0.13653 0.0
C1632 C 0.47039 0.66584 0.13626 0.0
C1633 C 0.34167 0.61921 0.07438 0.0
N1634 N 0.35086 0.63466 0.06225 0.0
C1635 C 0.3364 0.59915 0.06595 0.0
C1636 C 0.34057 0.59496 0.04493 0.0
C1637 C 0.3499 0.61078 0.03264 0.0
C1638 C 0.35504 0.63066 0.04163 0.0
C1639 C 0.3159 0.68021 0.02792 0.0
C1640 C 0.3563 0.69289 0.04241 0.0
C1641 C 0.32553 0.67013 0.04484 0.0
N1642 N 0.34555 0.6764 0.05175 0.0
C1643 C 0.34719 0.70335 0.02545 0.0
C1644 C 0.32686 0.6969 0.01816 0.0
C1645 C 0.38327 0.69695 0.0992 0.0
C1646 C 0.36693 0.63777 0.16332 0.0
C1647 C 0.39493 0.67 0.15083 0.0
C1648 C 0.38652 0.6707 0.17093 0.0
C1649 C 0.37241 0.65447 0.17716 0.0
N1650 N 0.38948 0.65356 0.13735 0.0
C1651 C 0.37569 0.63756 0.14336 0.0
Co1652 Co 0.85685 0.09194 0.38869 0.0
Co1653 Co 0.84917 0.12943 0.42689 0.0
O1654 O 0.8626 0.11967 0.40171 0.0
C1655 C 0.90316 0.0947 0.39843 0.0
O1656 O 0.89762 0.09981 0.41749 0.0
C1657 C 0.84031 0.1636 0.39694 0.0
O1658 O 0.83064 0.14946 0.38431 0.0
O1659 O 0.82075 0.12185 0.4142 0.0
O1660 O 0.82503 0.09364 0.39313 0.0
H1661 H 0.79805 0.12465 0.48606 0.0
H1662 H 0.88175 0.12527 0.36625 0.0
O1663 O 0.88865 0.09042 0.38426 0.0
H1664 H 0.81971 0.10677 0.31965 0.0
H1665 H 0.8687 0.03514 0.33519 0.0
H1666 H 0.82887 0.0543 0.39758 0.0
H1667 H 0.82462 0.08858 0.35351 0.0
H1668 H 0.87424 0.0705 0.35159 0.0
O1669 O 0.84863 0.15824 0.41447 0.0
H1670 H 0.81509 0.11226 0.45409 0.0
H1671 H 0.85428 0.16871 0.45302 0.0
H1672 H 0.82262 0.01885 0.38154 0.0
H1673 H 0.87755 0.14374 0.33246 0.0
H1674 H 0.84272 0.00906 0.35018 0.0
H1675 H 0.84632 0.13455 0.30892 0.0
O1676 O 0.86024 0.07743 0.41625 0.0
H1677 H 0.92401 0.1603 0.42674 0.0
H1678 H 0.87037 0.12155 0.46846 0.0
H1679 H 0.90622 0.12896 0.48381 0.0
H1680 H 0.93337 0.14846 0.46287 0.0
H1681 H 0.88797 0.15234 0.41194 0.0
H1682 H 0.83751 0.18181 0.48483 0.0
H1683 H 0.80931 0.15963 0.50169 0.0
O1684 O 0.84969 0.101 0.43983 0.0
C1685 C 0.81333 0.10679 0.40222 0.0
C1686 C 0.81035 0.13444 0.47889 0.0
C1687 C 0.83251 0.16651 0.47822 0.0
N1688 N 0.83576 0.13968 0.4518 0.0
C1689 C 0.8201 0.12748 0.46083 0.0
C1690 C 0.8419 0.15904 0.46017 0.0
C1691 C 0.81668 0.15407 0.48766 0.0
C1692 C 0.86821 0.12106 0.35601 0.0
N1693 N 0.85351 0.10579 0.36178 0.0
C1694 C 0.86588 0.13163 0.33693 0.0
C1695 C 0.84834 0.12648 0.32374 0.0
C1696 C 0.8334 0.1109 0.32976 0.0
C1697 C 0.83624 0.10068 0.34896 0.0
C1698 C 0.85983 0.03923 0.34883 0.0
C1699 C 0.83748 0.05021 0.38379 0.0
C1700 C 0.86293 0.0592 0.3582 0.0
N1701 N 0.85178 0.06446 0.37542 0.0
C1702 C 0.83395 0.0301 0.37483 0.0
C1703 C 0.84524 0.02461 0.35724 0.0
C1704 C 0.8552 0.0827 0.43476 0.0
C1705 C 0.9123 0.15185 0.43604 0.0
C1706 C 0.88206 0.13004 0.45927 0.0
C1707 C 0.90235 0.13422 0.46805 0.0
C1708 C 0.91756 0.14517 0.4563 0.0
N1709 N 0.87704 0.13655 0.43935 0.0
C1710 C 0.89184 0.1474 0.42778 0.0
Co1711 Co 0.36242 0.37714 0.91244 0.0
Co1712 Co 0.36904 0.35883 0.86252 0.0
O1713 O 0.37428 0.35755 0.89291 0.0
C1714 C 0.40789 0.37864 0.92652 0.0
O1715 O 0.41372 0.38404 0.90753 0.0
C1716 C 0.35951 0.31389 0.87413 0.0
O1717 O 0.34825 0.32156 0.88914 0.0
O1718 O 0.33802 0.35724 0.86653 0.0
O1719 O 0.33586 0.37865 0.89461 0.0
H1720 H 0.33412 0.38403 0.79598 0.0
H1721 H 0.37792 0.337 0.92891 0.0
O1722 O 0.38839 0.37585 0.93072 0.0
H1723 H 0.30272 0.33634 0.94724 0.0
H1724 H 0.3489 0.40683 0.9845 0.0
H1725 H 0.33974 0.41652 0.90783 0.0
H1726 H 0.31924 0.36643 0.92827 0.0
H1727 H 0.36186 0.38079 0.95944 0.0
O1728 O 0.36876 0.32658 0.86126 0.0
H1729 H 0.34143 0.38313 0.83436 0.0
H1730 H 0.38493 0.33538 0.82589 0.0
H1731 H 0.32648 0.44277 0.93228 0.0
H1732 H 0.36211 0.30675 0.94814 0.0
H1733 H 0.33109 0.43803 0.97091 0.0
H1734 H 0.32422 0.30626 0.95738 0.0
O1735 O 0.37548 0.40128 0.89705 0.0
H1736 H 0.44347 0.33742 0.87552 0.0
H1737 H 0.39842 0.38651 0.83768 0.0
H1738 H 0.43707 0.38943 0.83341 0.0
H1739 H 0.45987 0.36473 0.85238 0.0
H1740 H 0.40476 0.33518 0.87947 0.0
H1741 H 0.37798 0.33563 0.78741 0.0
H1742 H 0.35247 0.36015 0.77223 0.0
O1743 O 0.36913 0.39127 0.86335 0.0
C1744 C 0.32752 0.36854 0.87869 0.0
C1745 C 0.34533 0.37333 0.8024 0.0
C1746 C 0.36993 0.34615 0.79759 0.0
N1747 N 0.36374 0.35937 0.83231 0.0
C1748 C 0.34958 0.37281 0.82411 0.0
C1749 C 0.37377 0.34605 0.81938 0.0
C1750 C 0.35562 0.35991 0.78908 0.0
C1751 C 0.36148 0.33702 0.93306 0.0
N1752 N 0.34954 0.35349 0.9275 0.0
C1753 C 0.35259 0.31979 0.94387 0.0
C1754 C 0.33133 0.31951 0.94901 0.0
C1755 C 0.31925 0.33637 0.9433 0.0
C1756 C 0.32866 0.35332 0.93248 0.0
C1757 C 0.34677 0.40899 0.9677 0.0
C1758 C 0.34161 0.4142 0.92462 0.0
C1759 C 0.35406 0.39432 0.95344 0.0
N1760 N 0.35135 0.39701 0.93219 0.0
C1761 C 0.33414 0.42917 0.93839 0.0
C1762 C 0.33676 0.42651 0.96007 0.0
C1763 C 0.37373 0.40557 0.87753 0.0
C1764 C 0.4337 0.34823 0.86712 0.0
C1765 C 0.40824 0.37575 0.84603 0.0
C1766 C 0.43011 0.37745 0.84352 0.0
C1767 C 0.44289 0.36358 0.85415 0.0
N1768 N 0.39935 0.36061 0.85872 0.0
C1769 C 0.41177 0.34698 0.86923 0.0
Co1770 Co 0.15152 0.91377 0.391 0.0
Co1771 Co 0.1599 0.86451 0.41099 0.0
O1772 O 0.14577 0.88329 0.39195 0.0
C1773 C 0.10605 0.90858 0.40166 0.0
O1774 O 0.11279 0.89707 0.41728 0.0
C1775 C 0.17146 0.84103 0.37216 0.0
O1776 O 0.18481 0.85652 0.36693 0.0
O1777 O 0.18798 0.87651 0.4027 0.0
O1778 O 0.18347 0.91013 0.393 0.0
H1779 H 0.21366 0.84568 0.46653 0.0
H1780 H 0.12354 0.89223 0.35817 0.0
O1781 O 0.11953 0.91714 0.38916 0.0
H1782 H 0.18271 0.92616 0.3198 0.0
H1783 H 0.13784 0.98648 0.36477 0.0
H1784 H 0.18151 0.9449 0.41275 0.0
H1785 H 0.18126 0.92965 0.35849 0.0
H1786 H 0.1321 0.94775 0.36634 0.0
O1787 O 0.15981 0.84262 0.38808 0.0
H1788 H 0.19542 0.86952 0.44248 0.0
H1789 H 0.15501 0.81832 0.41937 0.0
H1790 H 0.18796 0.98357 0.41153 0.0
H1791 H 0.12426 0.8885 0.31947 0.0
H1792 H 0.16598 1.00462 0.38744 0.0
H1793 H 0.15402 0.90552 0.30003 0.0
O1794 O 0.15105 0.91687 0.42234 0.0
H1795 H 0.08489 0.83633 0.39804 0.0
H1796 H 0.13999 0.85569 0.45234 0.0
H1797 H 0.10454 0.84281 0.46322 0.0
H1798 H 0.07669 0.83304 0.43597 0.0
H1799 H 0.12053 0.84943 0.38786 0.0
H1800 H 0.17277 0.79397 0.44326 0.0
H1801 H 0.20233 0.8076 0.46702 0.0
O1802 O 0.16015 0.88546 0.43432 0.0
C1803 C 0.19528 0.89466 0.39696 0.0
C1804 C 0.20078 0.83955 0.45626 0.0
C1805 C 0.17787 0.81051 0.44314 0.0
N1806 N 0.17403 0.84537 0.42968 0.0
C1807 C 0.19036 0.85297 0.44263 0.0
C1808 C 0.16787 0.82439 0.42966 0.0
C1809 C 0.19443 0.81818 0.45651 0.0
C1810 C 0.13647 0.8998 0.34981 0.0
N1811 N 0.15228 0.91123 0.36055 0.0
C1812 C 0.13682 0.89758 0.3279 0.0
C1813 C 0.15354 0.90711 0.317 0.0
C1814 C 0.16965 0.91869 0.32809 0.0
C1815 C 0.16877 0.92056 0.35 0.0
C1816 C 0.14753 0.97748 0.37531 0.0
C1817 C 0.17202 0.95395 0.40209 0.0
C1818 C 0.14433 0.95556 0.37629 0.0
N1819 N 0.15656 0.9441 0.38951 0.0
C1820 C 0.17569 0.97584 0.40153 0.0
C1821 C 0.16334 0.98765 0.38802 0.0
C1822 C 0.156 0.90461 0.43728 0.0
C1823 C 0.09691 0.84047 0.41006 0.0
C1824 C 0.12797 0.85147 0.44039 0.0
C1825 C 0.10793 0.84415 0.44665 0.0
C1826 C 0.09231 0.83866 0.43135 0.0
N1827 N 0.13236 0.85322 0.41948 0.0
C1828 C 0.11714 0.84781 0.40439 0.0
Co1829 Co 0.65506 0.64121 0.92529 0.0
Co1830 Co 0.64359 0.65249 0.87345 0.0
O1831 O 0.64023 0.65644 0.9036 0.0
C1832 C 0.61002 0.63403 0.93637 0.0
O1833 O 0.60555 0.62802 0.91682 0.0
C1834 C 0.65462 0.69861 0.88012 0.0
O1835 O 0.66951 0.69284 0.89332 0.0
O1836 O 0.67507 0.65481 0.87652 0.0
O1837 O 0.68154 0.64257 0.90904 0.0
H1838 H 0.67377 0.62184 0.80828 0.0
H1839 H 0.63276 0.67954 0.93601 0.0
O1840 O 0.62895 0.63964 0.94216 0.0
H1841 H 0.70703 0.69517 0.95909 0.0
H1842 H 0.6762 0.62401 1.00016 0.0
H1843 H 0.6841 0.60624 0.92513 0.0
H1844 H 0.69581 0.66063 0.94322 0.0
H1845 H 0.65694 0.64306 0.97247 0.0
O1846 O 0.64278 0.6845 0.87025 0.0
H1847 H 0.66943 0.62608 0.84658 0.0
H1848 H 0.6245 0.67234 0.83564 0.0
H1849 H 0.70303 0.58645 0.95234 0.0
H1850 H 0.64323 0.71425 0.95198 0.0
H1851 H 0.69912 0.59535 0.99019 0.0
H1852 H 0.68062 0.72227 0.96359 0.0
O1853 O 0.6463 0.61371 0.91147 0.0
H1854 H 0.56947 0.6735 0.88563 0.0
H1855 H 0.61309 0.62188 0.8513 0.0
H1856 H 0.57418 0.61768 0.84773 0.0
H1857 H 0.5521 0.64365 0.86494 0.0
H1858 H 0.60841 0.67698 0.88896 0.0
H1859 H 0.62845 0.66872 0.7972 0.0
H1860 H 0.65318 0.64326 0.7833 0.0
O1861 O 0.64446 0.62053 0.87669 0.0
C1862 C 0.68765 0.64876 0.89104 0.0
C1863 C 0.66289 0.63293 0.81414 0.0
C1864 C 0.63747 0.65927 0.80792 0.0
N1865 N 0.64661 0.64932 0.8433 0.0
C1866 C 0.66031 0.63535 0.8358 0.0
C1867 C 0.63534 0.66129 0.82969 0.0
C1868 C 0.65135 0.64498 0.80013 0.0
C1869 C 0.64904 0.68286 0.94114 0.0
N1870 N 0.66367 0.66807 0.93865 0.0
C1871 C 0.65488 0.70257 0.95013 0.0
C1872 C 0.67587 0.70707 0.95661 0.0
C1873 C 0.6907 0.69188 0.95407 0.0
C1874 C 0.68428 0.67237 0.94498 0.0
C1875 C 0.67779 0.6199 0.98374 0.0
C1876 C 0.68224 0.61016 0.94157 0.0
C1877 C 0.66704 0.63067 0.96799 0.0
N1878 N 0.66957 0.62591 0.94719 0.0
C1879 C 0.693 0.59889 0.9569 0.0
C1880 C 0.69078 0.60387 0.97813 0.0
C1881 C 0.64447 0.60763 0.89223 0.0
C1882 C 0.57892 0.66213 0.87801 0.0
C1883 C 0.60358 0.6332 0.85888 0.0
C1884 C 0.58156 0.63077 0.85677 0.0
C1885 C 0.56919 0.64535 0.86642 0.0
N1886 N 0.61301 0.64972 0.87022 0.0
C1887 C 0.60098 0.66406 0.87976 0.0
Co1888 Co 0.59568 0.91722 0.86003 0.0
Co1889 Co 0.64361 0.90271 0.87914 0.0
O1890 O 0.61284 0.89919 0.8775 0.0
C1891 C 0.57448 0.91558 0.90135 0.0
O1892 O 0.59296 0.91851 0.91113 0.0
C1893 C 0.63593 0.85688 0.86831 0.0
O1894 O 0.62396 0.86314 0.8526 0.0
O1895 O 0.64463 0.90025 0.84798 0.0
O1896 O 0.6177 0.91973 0.83794 0.0
H1897 H 0.71481 0.93297 0.85818 0.0
H1898 H 0.57727 0.87598 0.87423 0.0
O1899 O 0.57308 0.91507 0.88128 0.0
H1900 H 0.57231 0.8727 0.79655 0.0
H1901 H 0.52734 0.93993 0.82722 0.0
H1902 H 0.60409 0.95659 0.8361 0.0
H1903 H 0.58744 0.9047 0.81486 0.0
H1904 H 0.54973 0.9168 0.84816 0.0
O1905 O 0.64496 0.87061 0.88105 0.0
H1906 H 0.6758 0.92896 0.85681 0.0
H1907 H 0.67711 0.88226 0.90428 0.0
H1908 H 0.58232 0.98008 0.81493 0.0
H1909 H 0.56176 0.84378 0.85654 0.0
H1910 H 0.54365 0.97179 0.81037 0.0
H1911 H 0.55931 0.84196 0.81741 0.0
O1912 O 0.60851 0.94255 0.87476 0.0
H1913 H 0.61922 0.88002 0.95051 0.0
H1914 H 0.66291 0.93257 0.91179 0.0
H1915 H 0.66084 0.93575 0.95045 0.0
H1916 H 0.63891 0.90931 0.97007 0.0
H1917 H 0.62156 0.87758 0.91182 0.0
H1918 H 0.71615 0.88561 0.90606 0.0
H1919 H 0.73524 0.91118 0.88295 0.0
O1920 O 0.64274 0.93504 0.87719 0.0
C1921 C 0.63392 0.90951 0.83393 0.0
C1922 C 0.70667 0.92183 0.86839 0.0
C1923 C 0.70742 0.89522 0.89524 0.0
N1924 N 0.67423 0.90555 0.88059 0.0
C1925 C 0.6846 0.91954 0.86772 0.0
C1926 C 0.68533 0.89337 0.89413 0.0
C1927 C 0.71812 0.90958 0.88227 0.0
C1928 C 0.57606 0.8754 0.85721 0.0
N1929 N 0.5832 0.89224 0.84562 0.0
C1930 C 0.56735 0.85708 0.84727 0.0
C1931 C 0.56601 0.85606 0.82532 0.0
C1932 C 0.57333 0.87329 0.8136 0.0
C1933 C 0.58193 0.89136 0.82407 0.0
C1934 C 0.54418 0.94368 0.82905 0.0
C1935 C 0.5873 0.95281 0.83409 0.0
C1936 C 0.55693 0.93067 0.84092 0.0
N1937 N 0.57822 0.93526 0.84322 0.0
C1938 C 0.57504 0.9662 0.82213 0.0
C1939 C 0.55334 0.96155 0.8196 0.0
C1940 C 0.62799 0.94823 0.8777 0.0
C1941 C 0.62888 0.8916 0.94215 0.0
C1942 C 0.65325 0.92107 0.92021 0.0
C1943 C 0.65219 0.92291 0.94211 0.0
C1944 C 0.6399 0.90806 0.95311 0.0
N1945 N 0.6424 0.90488 0.90958 0.0
C1946 C 0.63034 0.89024 0.92025 0.0
Co1947 Co 0.60836 0.11254 0.40057 0.0
Co1948 Co 0.61699 0.07375 0.3638 0.0
O1949 O 0.60328 0.09865 0.37316 0.0
C1950 C 0.5622 0.10058 0.39878 0.0
O1951 O 0.56806 0.0815 0.39467 0.0
C1952 C 0.6266 0.10446 0.33007 0.0
O1953 O 0.63174 0.11876 0.34467 0.0
O1954 O 0.64526 0.08673 0.37217 0.0
O1955 O 0.64023 0.10935 0.39894 0.0
H1956 H 0.66796 0.01622 0.37035 0.0
H1957 H 0.58325 0.13304 0.36705 0.0
O1958 O 0.57641 0.11552 0.40216 0.0
H1959 H 0.6446 0.18243 0.38292 0.0
H1960 H 0.59519 0.16768 0.45536 0.0
H1961 H 0.63594 0.10606 0.43829 0.0
H1962 H 0.64003 0.14902 0.40226 0.0
H1963 H 0.58996 0.14947 0.42091 0.0
O1964 O 0.61996 0.08596 0.33514 0.0
H1965 H 0.64944 0.04709 0.38237 0.0
H1966 H 0.61454 0.04782 0.32427 0.0
H1967 H 0.64181 0.12388 0.47285 0.0
H1968 H 0.58713 0.16634 0.34745 0.0
H1969 H 0.62134 0.15492 0.48156 0.0
H1970 H 0.61802 0.19127 0.3553 0.0
O1971 O 0.60573 0.08531 0.41608 0.0
H1972 H 0.54395 0.07337 0.33068 0.0
H1973 H 0.59512 0.03149 0.36978 0.0
H1974 H 0.55951 0.01569 0.3608 0.0
H1975 H 0.53364 0.03668 0.3411 0.0
H1976 H 0.57968 0.08862 0.34018 0.0
H1977 H 0.63343 0.01763 0.31119 0.0
H1978 H 0.66011 1.00136 0.33439 0.0
O1979 O 0.6142 0.06101 0.39214 0.0
C1980 C 0.65229 0.09947 0.3867 0.0
C1981 C 0.65627 0.02302 0.36012 0.0
C1982 C 0.63689 0.02384 0.32693 0.0
N1983 N 0.63078 0.04908 0.35415 0.0
C1984 C 0.64562 0.0404 0.36692 0.0
C1985 C 0.62632 0.041 0.33438 0.0
C1986 C 0.65189 0.01474 0.33995 0.0
C1987 C 0.59663 0.1439 0.37071 0.0
N1988 N 0.61134 0.13915 0.38586 0.0
C1989 C 0.59878 0.1627 0.35949 0.0
C1990 C 0.61614 0.17666 0.36388 0.0
C1991 C 0.63106 0.17171 0.37937 0.0
C1992 C 0.62841 0.15275 0.39025 0.0
C1993 C 0.60423 0.15419 0.45174 0.0
C1994 C 0.62708 0.11964 0.44193 0.0
C1995 C 0.6013 0.14379 0.43229 0.0
N1996 N 0.61274 0.12682 0.42758 0.0
C1997 C 0.63042 0.12962 0.46154 0.0
C1998 C 0.61891 0.14703 0.46643 0.0
C1999 C 0.60935 0.0665 0.41069 0.0
C2000 C 0.55508 0.06406 0.33925 0.0
C2001 C 0.58392 0.04075 0.3613 0.0
C2002 C 0.5638 0.0317 0.35619 0.0
C2003 C 0.5493 0.04348 0.34512 0.0
N2004 N 0.58942 0.06098 0.35559 0.0
C2005 C 0.57535 0.07259 0.34462 0.0
Co2006 Co 0.42109 0.09911 0.87772 0.0
Co2007 Co 0.36827 0.10908 0.87752 0.0
O2008 O 0.39746 0.11446 0.88773 0.0
C2009 C 0.44369 0.08738 0.91709 0.0
O2010 O 0.44182 0.06764 0.9106 0.0
C2011 C 0.3779 0.15493 0.8703 0.0
O2012 O 0.39538 0.14891 0.86206 0.0
O2013 O 0.37688 0.11072 0.84773 0.0
O2014 O 0.40883 0.09716 0.84832 0.0
H2015 H 0.30988 0.07397 0.83234 0.0
H2016 H 0.42998 0.13967 0.9008 0.0
O2017 O 0.43404 0.10137 0.90695 0.0
H2018 H 0.46106 0.15038 0.83106 0.0
H2019 H 0.49826 0.08508 0.87086 0.0
H2020 H 0.42491 0.06064 0.85157 0.0
H2021 H 0.44321 0.11628 0.8399 0.0
H2022 H 0.46811 0.10458 0.88296 0.0
O2023 O 0.36456 0.14095 0.87735 0.0
H2024 H 0.34671 0.08037 0.84563 0.0
H2025 H 0.32757 0.12772 0.88758 0.0
H2026 H 0.4545 0.04057 0.83912 0.0
H2027 H 0.44801 0.1739 0.89271 0.0
H2028 H 0.4915 0.05277 0.84878 0.0
H2029 H 0.46363 0.17948 0.85759 0.0
O2030 O 0.40602 0.07186 0.88473 0.0
H2031 H 0.36694 0.1342 0.95276 0.0
H2032 H 0.34113 0.07878 0.90192 0.0
H2033 H 0.33058 0.07638 0.939 0.0
H2034 H 0.34347 0.10428 0.96469 0.0
H2035 H 0.37724 0.13587 0.91555 0.0
H2036 H 0.29054 0.12198 0.87464 0.0
H2037 H 0.28151 0.09488 0.84688 0.0
O2038 O 0.37174 0.07713 0.87727 0.0
C2039 C 0.39276 0.1039 0.83846 0.0
C2040 C 0.3136 0.08577 0.8445 0.0
C2041 C 0.30276 0.11274 0.86822 0.0
N2042 N 0.3392 0.10425 0.8675 0.0
C2043 C 0.33441 0.0894 0.85213 0.0
C2044 C 0.32374 0.11595 0.87546 0.0
C2045 C 0.2977 0.09752 0.85265 0.0
C2046 C 0.43692 0.14185 0.88555 0.0
N2047 N 0.43553 0.12591 0.87086 0.0
C2048 C 0.44702 0.16133 0.88102 0.0
C2049 C 0.45574 0.16447 0.8613 0.0
C2050 C 0.45428 0.14816 0.84641 0.0
C2051 C 0.44404 0.1289 0.85147 0.0
C2052 C 0.48222 0.0796 0.86652 0.0
C2053 C 0.44096 0.06604 0.85585 0.0
C2054 C 0.46513 0.09061 0.87331 0.0
N2055 N 0.44481 0.08377 0.86803 0.0
C2056 C 0.45766 0.05462 0.84874 0.0
C2057 C 0.47841 0.06148 0.85415 0.0
C2058 C 0.38683 0.06494 0.88169 0.0
C2059 C 0.36118 0.12198 0.94171 0.0
C2060 C 0.34687 0.09092 0.91303 0.0
C2061 C 0.3408 0.08951 0.93399 0.0
C2062 C 0.34803 0.10517 0.9484 0.0
N2063 N 0.35971 0.1075 0.90658 0.0
C2064 C 0.36691 0.12288 0.92061 0.0
Co2065 Co 0.40035 0.89457 0.4041 0.0
Co2066 Co 0.39141 0.92905 0.36342 0.0
O2067 O 0.4051 0.90534 0.37582 0.0
C2068 C 0.44636 0.90669 0.40373 0.0
O2069 O 0.44031 0.92525 0.39787 0.0
C2070 C 0.37312 0.9099 0.32378 0.0
O2071 O 0.35485 0.91684 0.32912 0.0
O2072 O 0.36316 0.91665 0.3713 0.0
O2073 O 0.3685 0.89743 0.4005 0.0
H2074 H 0.34055 0.98701 0.36192 0.0
H2075 H 0.42514 0.87047 0.37403 0.0
O2076 O 0.43231 0.89199 0.40757 0.0
H2077 H 0.36446 0.82261 0.39205 0.0
H2078 H 0.41441 0.84617 0.46468 0.0
H2079 H 0.37307 0.90508 0.43955 0.0
H2080 H 0.36884 0.85833 0.40777 0.0
H2081 H 0.41918 0.86034 0.42891 0.0
O2082 O 0.38936 0.91316 0.33594 0.0
H2083 H 0.35825 0.9568 0.37714 0.0
H2084 H 0.39485 0.95186 0.32241 0.0
H2085 H 0.36767 0.89131 0.47535 0.0
H2086 H 0.42148 0.83483 0.3581 0.0
H2087 H 0.38844 0.86164 0.48813 0.0
H2088 H 0.39095 0.81064 0.36708 0.0
O2089 O 0.40305 0.92337 0.41704 0.0
H2090 H 0.46482 0.92674 0.3356 0.0
H2091 H 0.41297 0.97199 0.36703 0.0
H2092 H 0.44842 0.98723 0.35892 0.0
H2093 H 0.47466 0.96453 0.34311 0.0
H2094 H 0.42919 0.91212 0.34406 0.0
H2095 H 0.37708 0.98165 0.30632 0.0
H2096 H 0.34988 0.99962 0.32622 0.0
O2097 O 0.39387 0.94486 0.39064 0.0
C2098 C 0.35626 0.90575 0.38675 0.0
C2099 C 0.3524 0.97938 0.3531 0.0
C2100 C 0.37291 0.97636 0.32191 0.0
N2101 N 0.37763 0.95264 0.35072 0.0
C2102 C 0.36254 0.9623 0.36167 0.0
C2103 C 0.38288 0.95947 0.33107 0.0
C2104 C 0.35764 0.98642 0.33307 0.0
C2105 C 0.41189 0.85999 0.37812 0.0
N2106 N 0.39728 0.86642 0.3919 0.0
C2107 C 0.40986 0.83984 0.369 0.0
C2108 C 0.39272 0.82629 0.37403 0.0
C2109 C 0.37784 0.833 0.38803 0.0
C2110 C 0.38037 0.85326 0.39684 0.0
C2111 C 0.40525 0.85908 0.45928 0.0
C2112 C 0.38207 0.89208 0.44495 0.0
C2113 C 0.40792 0.86719 0.43907 0.0
N2114 N 0.39631 0.88341 0.43213 0.0
C2115 C 0.37899 0.88439 0.46526 0.0
C2116 C 0.39066 0.86776 0.47243 0.0
C2117 C 0.39908 0.94143 0.40983 0.0
C2118 C 0.45352 0.93679 0.34246 0.0
C2119 C 0.42431 0.96199 0.36023 0.0
C2120 C 0.44435 0.97073 0.35561 0.0
C2121 C 0.45904 0.95799 0.34671 0.0
N2122 N 0.41901 0.94117 0.35605 0.0
C2123 C 0.43331 0.92862 0.34723 0.0
Co2124 Co 0.57312 0.11145 0.14079 0.0
Co2125 Co 0.61105 0.10023 0.10487 0.0
O2126 O 0.59718 0.09627 0.13181 0.0
C2127 C 0.60488 0.12062 0.17518 0.0
O2128 O 0.61896 0.12485 0.16079 0.0
C2129 C 0.59707 0.05453 0.10526 0.0
O2130 O 0.57827 0.06115 0.1091 0.0
O2131 O 0.5835 0.09871 0.08858 0.0
O2132 O 0.55984 0.10854 0.11211 0.0
H2133 H 0.62317 0.13195 0.03364 0.0
H2134 H 0.58646 0.07402 0.16424 0.0
O2135 O 0.58598 0.11456 0.16978 0.0
H2136 H 0.51211 0.05724 0.14202 0.0
H2137 H 0.51905 0.13272 0.19241 0.0
H2138 H 0.54767 0.14447 0.12177 0.0
H2139 H 0.52968 0.09166 0.13361 0.0
H2140 H 0.54785 0.1117 0.17982 0.0
O2141 O 0.61249 0.06813 0.10258 0.0
H2142 H 0.60549 0.12749 0.0676 0.0
H2143 H 0.64684 0.07975 0.08508 0.0
H2144 H 0.51808 0.16505 0.13325 0.0
H2145 H 0.56946 0.03943 0.17314 0.0
H2146 H 0.50369 0.15939 0.16893 0.0
H2147 H 0.53204 0.03084 0.16192 0.0
O2148 O 0.5873 0.13883 0.13315 0.0
H2149 H 0.66423 0.07721 0.15909 0.0
H2150 H 0.64914 0.12995 0.10484 0.0
H2151 H 0.68293 0.13315 0.12526 0.0
H2152 H 0.69064 0.10666 0.15261 0.0
H2153 H 0.63058 0.07469 0.13843 0.0
H2154 H 0.66489 0.08356 0.05122 0.0
H2155 H 0.6531 0.10987 0.02527 0.0
O2156 O 0.6096 0.13228 0.10715 0.0
C2157 C 0.56489 0.10317 0.09358 0.0
C2158 C 0.62849 0.12047 0.04484 0.0
C2159 C 0.65188 0.09329 0.0547 0.0
N2160 N 0.62524 0.10348 0.07833 0.0
C2161 C 0.61858 0.11792 0.06411 0.0
C2162 C 0.64158 0.09116 0.07381 0.0
C2163 C 0.64527 0.10806 0.04015 0.0
C2164 C 0.57013 0.07042 0.15943 0.0
N2165 N 0.55909 0.08478 0.14837 0.0
C2166 C 0.5606 0.0508 0.16447 0.0
C2167 C 0.53962 0.04598 0.15815 0.0
C2168 C 0.52843 0.06078 0.14697 0.0
C2169 C 0.53848 0.08021 0.14219 0.0
C2170 C 0.52507 0.13525 0.17678 0.0
C2171 C 0.54113 0.14156 0.13708 0.0
C2172 C 0.54144 0.12346 0.16961 0.0
N2173 N 0.54931 0.12675 0.15 0.0
C2174 C 0.5245 0.15339 0.14359 0.0
C2175 C 0.51648 0.15024 0.16361 0.0
C2176 C 0.60037 0.14502 0.11929 0.0
C2177 C 0.66107 0.08882 0.14718 0.0
C2178 C 0.65238 0.11837 0.11673 0.0
C2179 C 0.67155 0.12024 0.12822 0.0
C2180 C 0.67588 0.10536 0.14355 0.0
N2181 N 0.63795 0.10209 0.12037 0.0
C2182 C 0.64209 0.08742 0.13536 0.0
Co2183 Co 0.39889 0.13199 0.63941 0.0
Co2184 Co 0.40815 0.07872 0.64244 0.0
O2185 O 0.39392 0.10251 0.63019 0.0
C2186 C 0.35308 0.12178 0.64614 0.0
O2187 O 0.35927 0.10428 0.65457 0.0
C2188 C 0.40776 0.07057 0.59493 0.0
O2189 O 0.39998 0.08872 0.5902 0.0
O2190 O 0.43623 0.0941 0.63993 0.0
O2191 O 0.43074 0.12888 0.63995 0.0
H2192 H 0.45963 0.04483 0.6916 0.0
H2193 H 0.3709 0.12275 0.60179 0.0
O2194 O 0.36694 0.1353 0.63925 0.0
H2195 H 0.43048 0.16796 0.57633 0.0
H2196 H 0.38495 0.20927 0.63862 0.0
H2197 H 0.42808 0.15473 0.67029 0.0
H2198 H 0.42894 0.15813 0.61381 0.0
H2199 H 0.37938 0.17199 0.62746 0.0
O2200 O 0.41171 0.06574 0.61404 0.0
H2201 H 0.44107 0.07447 0.67611 0.0
H2202 H 0.40614 0.03219 0.63422 0.0
H2203 H 0.4343 0.19183 0.68181 0.0
H2204 H 0.37164 0.13245 0.56424 0.0
H2205 H 0.41264 0.21939 0.66593 0.0
H2206 H 0.40164 0.15515 0.55127 0.0
O2207 O 0.3979 0.12443 0.66976 0.0
H2208 H 0.33409 0.05548 0.61788 0.0
H2209 H 0.38744 0.05266 0.67573 0.0
H2210 H 0.35209 0.03528 0.67991 0.0
H2211 H 0.32509 0.0366 0.65084 0.0
H2212 H 0.36956 0.07267 0.6144 0.0
H2213 H 0.42443 1.00217 0.64908 0.0
H2214 H 0.45131 0.00837 0.67808 0.0
O2215 O 0.40507 0.09025 0.67143 0.0
C2216 C 0.44303 0.11343 0.63963 0.0
C2217 C 0.44789 0.04192 0.67903 0.0
C2218 C 0.42817 0.01798 0.65514 0.0
N2219 N 0.42241 0.05507 0.65442 0.0
C2220 C 0.43729 0.05863 0.67025 0.0
C2221 C 0.4179 0.03506 0.64675 0.0
C2222 C 0.44324 0.02147 0.67142 0.0
C2223 C 0.38389 0.13281 0.59631 0.0
N2224 N 0.39984 0.13987 0.60997 0.0
C2225 C 0.38427 0.13817 0.57501 0.0
C2226 C 0.40113 0.15087 0.56774 0.0
C2227 C 0.41733 0.15804 0.58178 0.0
C2228 C 0.41643 0.15234 0.60297 0.0
C2229 C 0.39451 0.19741 0.64563 0.0
C2230 C 0.41869 0.16666 0.66322 0.0
C2231 C 0.3914 0.17628 0.63941 0.0
N2232 N 0.4035 0.16125 0.64812 0.0
C2233 C 0.42224 0.18763 0.66985 0.0
C2234 C 0.41006 0.20308 0.66095 0.0
C2235 C 0.40087 0.10766 0.68003 0.0
C2236 C 0.34574 0.05472 0.63064 0.0
C2237 C 0.37582 0.05332 0.663 0.0
C2238 C 0.35582 0.04339 0.66544 0.0
C2239 C 0.34069 0.04416 0.64914 0.0
N2240 N 0.38071 0.06365 0.6448 0.0
C2241 C 0.36597 0.06431 0.62869 0.0
Co2242 Co 0.42381 0.8917 0.13496 0.0
Co2243 Co 0.38869 0.90219 0.09422 0.0
O2244 O 0.40064 0.90677 0.12273 0.0
C2245 C 0.40479 0.8752 0.17399 0.0
O2246 O 0.41031 0.85644 0.16813 0.0
C2247 C 0.40284 0.94783 0.09568 0.0
O2248 O 0.42136 0.94121 0.10156 0.0
O2249 O 0.41721 0.90329 0.08158 0.0
O2250 O 0.43876 0.89263 0.1078 0.0
H2251 H 0.38169 0.86881 0.02205 0.0
H2252 H 0.41021 0.93087 0.15513 0.0
O2253 O 0.40881 0.89112 0.16237 0.0
H2254 H 0.48585 0.94476 0.14089 0.0
H2255 H 0.47697 0.87443 0.19209 0.0
H2256 H 0.44885 0.8566 0.12049 0.0
H2257 H 0.46794 0.91026 0.13191 0.0
H2258 H 0.44813 0.89413 0.17618 0.0
O2259 O 0.38751 0.93424 0.09147 0.0
H2260 H 0.39674 0.87396 0.05815 0.0
H2261 H 0.35463 0.92232 0.06962 0.0
H2262 H 0.47819 0.83697 0.13551 0.0
H2263 H 0.42754 0.96558 0.16451 0.0
H2264 H 0.4924 0.84579 0.17159 0.0
H2265 H 0.46561 0.97273 0.15732 0.0
O2266 O 0.40922 0.86421 0.12656 0.0
H2267 H 0.3316 0.92681 0.1405 0.0
H2268 H 0.35073 0.87252 0.08945 0.0
H2269 H 0.31536 0.87012 0.10488 0.0
H2270 H 0.30558 0.89745 0.13055 0.0
H2271 H 0.36686 0.92849 0.12484 0.0
H2272 H 0.3392 0.91781 0.03358 0.0
H2273 H 0.35271 0.89085 0.00955 0.0
O2274 O 0.38997 0.87021 0.097 0.0
C2275 C 0.43514 0.89804 0.08877 0.0
C2276 C 0.37563 0.88057 0.03239 0.0
C2277 C 0.3518 0.9081 0.03885 0.0
N2278 N 0.37647 0.89832 0.06599 0.0
C2279 C 0.38405 0.88351 0.05286 0.0
C2280 C 0.36063 0.91061 0.05921 0.0
C2281 C 0.35938 0.89296 0.02538 0.0
C2282 C 0.42682 0.93382 0.15209 0.0
N2283 N 0.43803 0.91857 0.14295 0.0
C2284 C 0.43653 0.95352 0.15738 0.0
C2285 C 0.45789 0.95753 0.15331 0.0
C2286 C 0.46925 0.94186 0.14407 0.0
C2287 C 0.459 0.92238 0.13895 0.0
C2288 C 0.47097 0.87048 0.17632 0.0
C2289 C 0.4551 0.86068 0.13612 0.0
C2290 C 0.45461 0.88154 0.16726 0.0
N2291 N 0.44684 0.87654 0.14741 0.0
C2292 C 0.47166 0.84945 0.14457 0.0
C2293 C 0.4796 0.85439 0.16482 0.0
C2294 C 0.39761 0.85774 0.11079 0.0
C2295 C 0.33566 0.91484 0.12929 0.0
C2296 C 0.34662 0.88441 0.10068 0.0
C2297 C 0.32655 0.88301 0.10932 0.0
C2298 C 0.32107 0.89835 0.12372 0.0
N2299 N 0.3608 0.90068 0.10616 0.0
C2300 C 0.35557 0.91574 0.12032 0.0
Co2301 Co 0.62701 0.87318 0.63523 0.0
Co2302 Co 0.61156 0.92281 0.64668 0.0
O2303 O 0.62943 0.90374 0.63195 0.0
C2304 C 0.67272 0.88387 0.6454 0.0
O2305 O 0.66608 0.89766 0.65887 0.0
C2306 C 0.60967 0.93697 0.60191 0.0
O2307 O 0.60912 0.91738 0.59505 0.0
O2308 O 0.58588 0.90709 0.63542 0.0
O2309 O 0.5946 0.87326 0.63657 0.0
H2310 H 0.55073 0.94151 0.69115 0.0
H2311 H 0.65136 0.89095 0.59972 0.0
O2312 O 0.65922 0.87265 0.63405 0.0
H2313 H 0.59385 0.84539 0.5667 0.0
H2314 H 0.64653 0.79888 0.6201 0.0
H2315 H 0.60193 0.84375 0.66199 0.0
H2316 H 0.59732 0.84892 0.60542 0.0
H2317 H 0.64854 0.83755 0.61585 0.0
O2318 O 0.61104 0.94132 0.62155 0.0
H2319 H 0.57397 0.9174 0.6734 0.0
H2320 H 0.61059 0.96965 0.64984 0.0
H2321 H 0.59926 0.80514 0.66663 0.0
H2322 H 0.64864 0.88765 0.56094 0.0
H2323 H 0.62168 0.78244 0.64559 0.0
H2324 H 0.61967 0.86479 0.54419 0.0
O2325 O 0.62974 0.87635 0.66638 0.0
H2326 H 0.68403 0.95844 0.64129 0.0
H2327 H 0.62643 0.93886 0.68928 0.0
H2328 H 0.65895 0.95762 0.70346 0.0
H2329 H 0.68801 0.96764 0.67938 0.0
H2330 H 0.65121 0.93967 0.62773 0.0
H2331 H 0.58768 0.99432 0.66724 0.0
H2332 H 0.55754 0.98027 0.68814 0.0
O2333 O 0.61148 0.90499 0.67255 0.0
C2334 C 0.58088 0.8874 0.63459 0.0
C2335 C 0.56386 0.94782 0.68217 0.0
C2336 C 0.58459 0.97746 0.66872 0.0
N2337 N 0.59373 0.9421 0.66078 0.0
C2338 C 0.57711 0.93425 0.67214 0.0
C2339 C 0.59748 0.96341 0.65889 0.0
C2340 C 0.56768 0.96957 0.68045 0.0
C2341 C 0.63885 0.8808 0.59255 0.0
N2342 N 0.62455 0.87011 0.60481 0.0
C2343 C 0.63733 0.87907 0.57058 0.0
C2344 C 0.62104 0.86627 0.56119 0.0
C2345 C 0.60653 0.8554 0.57382 0.0
C2346 C 0.60853 0.85753 0.59573 0.0
C2347 C 0.63665 0.8086 0.62933 0.0
C2348 C 0.61162 0.83394 0.65268 0.0
C2349 C 0.63775 0.83049 0.62701 0.0
N2350 N 0.62522 0.84283 0.63853 0.0
C2351 C 0.61009 0.81211 0.65542 0.0
C2352 C 0.6227 0.79939 0.64362 0.0
C2353 C 0.62116 0.88901 0.67876 0.0
C2354 C 0.67142 0.9543 0.6519 0.0
C2355 C 0.63901 0.94311 0.67869 0.0
C2356 C 0.65738 0.95378 0.68681 0.0
C2357 C 0.67367 0.9594 0.67329 0.0
N2358 N 0.63688 0.93824 0.65766 0.0
C2359 C 0.65279 0.9437 0.64431 0.0
Co2360 Co 0.87572 0.59713 0.88998 0.0
Co2361 Co 0.88711 0.64902 0.87617 0.0
O2362 O 0.8916 0.61885 0.87456 0.0
C2363 C 0.92134 0.58983 0.90017 0.0
O2364 O 0.92664 0.61006 0.89918 0.0
C2365 C 0.87921 0.63653 0.83111 0.0
O2366 O 0.86848 0.62015 0.83862 0.0
O2367 O 0.85593 0.64416 0.87391 0.0
O2368 O 0.84853 0.61084 0.88398 0.0
H2369 H 0.85405 0.71398 0.90265 0.0
H2370 H 0.90437 0.58424 0.85661 0.0
O2371 O 0.90232 0.58281 0.8966 0.0
H2372 H 0.8334 0.55545 0.83385 0.0
H2373 H 0.85841 0.52242 0.91203 0.0
H2374 H 0.84104 0.59676 0.92059 0.0
H2375 H 0.8386 0.5753 0.86734 0.0
H2376 H 0.87771 0.5505 0.89271 0.0
O2377 O 0.88786 0.65042 0.84393 0.0
H2378 H 0.85984 0.67589 0.90094 0.0
H2379 H 0.90531 0.68646 0.8537 0.0
H2380 H 0.82129 0.56912 0.94034 0.0
H2381 H 0.89997 0.56404 0.82326 0.0
H2382 H 0.82994 0.53163 0.93611 0.0
H2383 H 0.86424 0.54965 0.81158 0.0
O2384 O 0.88001 0.61347 0.9167 0.0
H2385 H 0.96194 0.64019 0.85478 0.0
H2386 H 0.91648 0.67447 0.90516 0.0
H2387 H 0.95526 0.68052 0.90859 0.0
H2388 H 0.97826 0.66334 0.88325 0.0
H2389 H 0.9231 0.63442 0.85206 0.0
H2390 H 0.89992 0.72467 0.85477 0.0
H2391 H 0.87418 0.73865 0.87944 0.0
O2392 O 0.88582 0.64771 0.90834 0.0
C2393 C 0.8429 0.62882 0.87784 0.0
C2394 C 0.86537 0.7081 0.8919 0.0
C2395 C 0.89109 0.71409 0.865 0.0
N2396 N 0.88303 0.67903 0.87737 0.0
C2397 C 0.86877 0.68656 0.89092 0.0
C2398 C 0.89405 0.69245 0.86443 0.0
C2399 C 0.87665 0.72192 0.87885 0.0
C2400 C 0.88882 0.57779 0.85178 0.0
N2401 N 0.87176 0.58096 0.86393 0.0
C2402 C 0.88641 0.56646 0.83282 0.0
C2403 C 0.86635 0.55843 0.82626 0.0
C2404 C 0.84903 0.5617 0.83873 0.0
C2405 C 0.85206 0.57303 0.85765 0.0
C2406 C 0.85445 0.53867 0.91403 0.0
C2407 C 0.84479 0.58046 0.9186 0.0
C2408 C 0.86533 0.55465 0.90309 0.0
N2409 N 0.86032 0.57521 0.90532 0.0
C2410 C 0.83361 0.56489 0.92986 0.0
C2411 C 0.83848 0.54386 0.9275 0.0
C2412 C 0.88334 0.63285 0.92188 0.0
C2413 C 0.95208 0.64782 0.86587 0.0
C2414 C 0.9264 0.66688 0.89413 0.0
C2415 C 0.94834 0.67041 0.89611 0.0
C2416 C 0.96123 0.66078 0.88188 0.0
N2417 N 0.91756 0.65417 0.87838 0.0
C2418 C 0.93008 0.64469 0.86435 0.0
Co2419 Co 0.85258 0.42645 0.16074 0.0
Co2420 Co 0.8931 0.39512 0.14835 0.0
O2421 O 0.86482 0.40505 0.14358 0.0
C2422 C 0.82062 0.39092 0.16086 0.0
O2423 O 0.83607 0.37879 0.16601 0.0
C2424 C 0.89345 0.4095 0.10353 0.0
O2425 O 0.88869 0.42793 0.11102 0.0
O2426 O 0.90596 0.42453 0.14957 0.0
O2427 O 0.88032 0.44263 0.16374 0.0
H2428 H 0.96515 0.39346 0.18339 0.0
H2429 H 0.8328 0.41449 0.11911 0.0
O2430 O 0.82446 0.41059 0.15809 0.0
H2431 H 0.85305 0.49038 0.11423 0.0
H2432 H 0.79571 0.47497 0.17999 0.0
H2433 H 0.86589 0.45006 0.19988 0.0
H2434 H 0.85942 0.47118 0.14727 0.0
H2435 H 0.81201 0.44812 0.15833 0.0
O2436 O 0.89627 0.39427 0.11631 0.0
H2437 H 0.92911 0.40581 0.17815 0.0
H2438 H 0.91758 0.36295 0.12682 0.0
H2439 H 0.85027 0.47705 0.22188 0.0
H2440 H 0.82591 0.43313 0.08586 0.0
H2441 H 0.81491 0.48964 0.21199 0.0
H2442 H 0.83614 0.47134 0.08327 0.0
O2443 O 0.85922 0.41092 0.18686 0.0
H2444 H 0.84576 0.33535 0.11853 0.0
H2445 H 0.89697 0.35744 0.17559 0.0
H2446 H 0.8805 0.3213 0.17533 0.0
H2447 H 0.85469 0.31006 0.14665 0.0
H2448 H 0.86247 0.37138 0.11948 0.0
H2449 H 0.95357 0.35025 0.13137 0.0
H2450 H 0.9776 0.3655 0.15987 0.0
O2451 O 0.88987 0.39594 0.1804 0.0
C2452 C 0.8993 0.44119 0.1579 0.0
C2453 C 0.95481 0.38664 0.17096 0.0
C2454 C 0.94832 0.36241 0.14174 0.0
N2455 N 0.92123 0.38497 0.15231 0.0
C2456 C 0.93437 0.39352 0.16797 0.0
C2457 C 0.92799 0.36969 0.13921 0.0
C2458 C 0.96179 0.37097 0.15774 0.0
C2459 C 0.83706 0.43117 0.11818 0.0
N2460 N 0.84638 0.44176 0.13515 0.0
C2461 C 0.83321 0.44162 0.09928 0.0
C2462 C 0.83898 0.46305 0.09783 0.0
C2463 C 0.84847 0.47375 0.11521 0.0
C2464 C 0.85207 0.46278 0.13385 0.0
C2465 C 0.81113 0.4696 0.18446 0.0
C2466 C 0.85055 0.45556 0.19541 0.0
C2467 C 0.82041 0.45439 0.17228 0.0
N2468 N 0.83994 0.44765 0.17776 0.0
C2469 C 0.84176 0.47079 0.20796 0.0
C2470 C 0.8219 0.47782 0.20242 0.0
C2471 C 0.87541 0.40125 0.19298 0.0
C2472 C 0.85703 0.34004 0.13108 0.0
C2473 C 0.88574 0.35267 0.16307 0.0
C2474 C 0.87649 0.33217 0.16298 0.0
C2475 C 0.86202 0.32587 0.14687 0.0
N2476 N 0.88076 0.36647 0.14751 0.0
C2477 C 0.86662 0.36039 0.13165 0.0
Co2478 Co 0.08539 0.35874 0.62512 0.0
Co2479 Co 0.11916 0.40262 0.61764 0.0
O2480 O 0.10985 0.3731 0.6127 0.0
C2481 C 0.10329 0.32206 0.64573 0.0
O2482 O 0.09298 0.32751 0.6624 0.0
C2483 C 0.10889 0.39949 0.57154 0.0
O2484 O 0.09081 0.39069 0.57742 0.0
O2485 O 0.08983 0.41248 0.61484 0.0
O2486 O 0.06846 0.38395 0.6212 0.0
H2487 H 0.11814 0.47453 0.65121 0.0
H2488 H 0.10695 0.33929 0.58956 0.0
O2489 O 0.10237 0.33314 0.62907 0.0
H2490 H 0.03324 0.34575 0.56426 0.0
H2491 H 0.03223 0.29771 0.6353 0.0
H2492 H 0.05434 0.37072 0.6565 0.0
H2493 H 0.04434 0.35656 0.60049 0.0
H2494 H 0.06381 0.31566 0.62021 0.0
O2495 O 0.12266 0.40591 0.58576 0.0
H2496 H 0.10615 0.43726 0.64527 0.0
H2497 H 0.15301 0.4307 0.59943 0.0
H2498 H 0.02279 0.3533 0.6721 0.0
H2499 H 0.0965 0.32802 0.55326 0.0
H2500 H 0.01142 0.31662 0.66137 0.0
H2501 H 0.05945 0.33138 0.54034 0.0
O2502 O 0.095 0.36935 0.65376 0.0
H2503 H 0.18181 0.36289 0.59631 0.0
H2504 H 0.15429 0.41075 0.64935 0.0
H2505 H 0.19066 0.39903 0.65372 0.0
H2506 H 0.20466 0.37498 0.62703 0.0
H2507 H 0.14548 0.37485 0.59267 0.0
H2508 H 0.16542 0.46797 0.60475 0.0
H2509 H 0.14797 0.49012 0.63085 0.0
O2510 O 0.11538 0.3992 0.64932 0.0
C2511 C 0.07159 0.40351 0.61723 0.0
C2512 C 0.12591 0.46502 0.63984 0.0
C2513 C 0.15242 0.46135 0.61373 0.0
N2514 N 0.12897 0.43181 0.62213 0.0
C2515 C 0.11923 0.4439 0.63646 0.0
C2516 C 0.1453 0.44028 0.61075 0.0
C2517 C 0.14264 0.47376 0.62839 0.0
C2518 C 0.09075 0.34062 0.58412 0.0
N2519 N 0.0763 0.34874 0.5971 0.0
C2520 C 0.08494 0.33428 0.56352 0.0
C2521 C 0.06416 0.33619 0.55627 0.0
C2522 C 0.04946 0.34429 0.56966 0.0
C2523 C 0.05586 0.35053 0.59013 0.0
C2524 C 0.03697 0.31374 0.64005 0.0
C2525 C 0.04955 0.35472 0.65181 0.0
C2526 C 0.05483 0.32398 0.63155 0.0
N2527 N 0.06086 0.34427 0.6374 0.0
C2528 C 0.03164 0.34495 0.66067 0.0
C2529 C 0.0253 0.32435 0.65467 0.0
C2530 C 0.10602 0.3854 0.66111 0.0
C2531 C 0.17591 0.37341 0.60802 0.0
C2532 C 0.16025 0.40021 0.63773 0.0
C2533 C 0.18087 0.39367 0.64026 0.0
C2534 C 0.18872 0.38019 0.62527 0.0
N2535 N 0.14783 0.39357 0.62072 0.0
C2536 C 0.15538 0.38029 0.606 0.0
Co2537 Co 0.14781 0.58777 0.14233 0.0
Co2538 Co 0.1361 0.63775 0.15729 0.0
O2539 O 0.13355 0.60725 0.15997 0.0
C2540 C 0.10277 0.57193 0.13951 0.0
O2541 O 0.09735 0.59087 0.13418 0.0
C2542 C 0.14856 0.63006 0.20222 0.0
O2543 O 0.16269 0.61794 0.19455 0.0
O2544 O 0.16752 0.63778 0.15764 0.0
O2545 O 0.17386 0.60702 0.14192 0.0
H2546 H 0.16409 0.7068 0.12817 0.0
H2547 H 0.12886 0.57321 0.18224 0.0
O2548 O 0.12216 0.56812 0.14266 0.0
H2549 H 0.20442 0.55865 0.18935 0.0
H2550 H 0.16772 0.51564 0.11865 0.0
H2551 H 0.17441 0.59198 0.10478 0.0
H2552 H 0.19025 0.57441 0.15687 0.0
H2553 H 0.15039 0.54089 0.14149 0.0
O2554 O 0.13652 0.63989 0.18951 0.0
H2555 H 0.16051 0.66802 0.13073 0.0
H2556 H 0.11712 0.67287 0.18015 0.0
H2557 H 0.19182 0.56729 0.08156 0.0
H2558 H 0.14231 0.55725 0.21493 0.0
H2559 H 0.18849 0.52881 0.08847 0.0
H2560 H 0.18036 0.54993 0.21866 0.0
O2561 O 0.13672 0.60121 0.11638 0.0
H2562 H 0.06325 0.61729 0.18228 0.0
H2563 H 0.10417 0.65758 0.12961 0.0
H2564 H 0.06517 0.6572 0.12798 0.0
H2565 H 0.04445 0.63698 0.15448 0.0
H2566 H 0.10225 0.61793 0.1832 0.0
H2567 H 0.12032 0.71174 0.17823 0.0
H2568 H 0.14389 0.72893 0.15204 0.0
O2569 O 0.13583 0.63561 0.12503 0.0
C2570 C 0.17998 0.62518 0.14931 0.0
C2571 C 0.1537 0.69949 0.13959 0.0
C2572 C 0.12916 0.70227 0.16771 0.0
N2573 N 0.13848 0.66823 0.15544 0.0
C2574 C 0.15156 0.67755 0.14106 0.0
C2575 C 0.12744 0.68027 0.16875 0.0
C2576 C 0.14239 0.7119 0.15301 0.0
C2577 C 0.1454 0.56992 0.18368 0.0
N2578 N 0.15875 0.57472 0.16764 0.0
C2579 C 0.15294 0.56094 0.20225 0.0
C2580 C 0.1743 0.55687 0.20435 0.0
C2581 C 0.18781 0.56178 0.18792 0.0
C2582 C 0.17972 0.57077 0.16959 0.0
C2583 C 0.16919 0.53237 0.11551 0.0
C2584 C 0.17296 0.57526 0.10794 0.0
C2585 C 0.15946 0.54673 0.12837 0.0
N2586 N 0.16155 0.5679 0.12458 0.0
C2587 C 0.18281 0.56136 0.09471 0.0
C2588 C 0.18091 0.53977 0.09857 0.0
C2589 C 0.13488 0.62046 0.11136 0.0
C2590 C 0.0721 0.62621 0.17068 0.0
C2591 C 0.09525 0.64869 0.14116 0.0
C2592 C 0.07318 0.64857 0.14018 0.0
C2593 C 0.06157 0.63724 0.15506 0.0
N2594 N 0.10547 0.63788 0.15655 0.0
C2595 C 0.0942 0.6267 0.17118 0.0
Co2596 Co 0.92463 0.65256 0.61044 0.0
Co2597 Co 0.87504 0.63443 0.62576 0.0
O2598 O 0.90591 0.63441 0.62724 0.0
C2599 C 0.93879 0.60908 0.60382 0.0
O2600 O 0.91899 0.60182 0.6023 0.0
C2601 C 0.88725 0.64338 0.67083 0.0
O2602 O 0.90199 0.65634 0.66335 0.0
O2603 O 0.87589 0.66555 0.62847 0.0
O2604 O 0.90644 0.67704 0.6142 0.0
H2605 H 0.8047 0.65839 0.59982 0.0
H2606 H 0.94298 0.62932 0.64635 0.0
O2607 O 0.94338 0.62873 0.6065 0.0
H2608 H 0.95998 0.70455 0.66254 0.0
H2609 H 0.99568 0.68093 0.58643 0.0
H2610 H 0.91832 0.68384 0.57675 0.0
H2611 H 0.94013 0.69385 0.62983 0.0
H2612 H 0.97153 0.65884 0.60793 0.0
O2613 O 0.87458 0.63287 0.65798 0.0
H2614 H 0.84368 0.65807 0.6014 0.0
H2615 H 0.84077 0.61077 0.6483 0.0
H2616 H 0.9419 0.70635 0.555 0.0
H2617 H 0.96319 0.63932 0.67902 0.0
H2618 H 0.98088 0.70498 0.55979 0.0
H2619 H 0.97177 0.67718 0.68735 0.0
O2620 O 0.90873 0.64381 0.58422 0.0
H2621 H 0.89544 0.562 0.64665 0.0
H2622 H 0.85267 0.6026 0.59697 0.0
H2623 H 0.85215 0.56383 0.59343 0.0
H2624 H 0.87364 0.54327 0.61841 0.0
H2625 H 0.89559 0.6008 0.64951 0.0
H2626 H 0.80176 0.61068 0.6474 0.0
H2627 H 0.78349 0.63456 0.62296 0.0
O2628 O 0.87508 0.6364 0.59346 0.0
C2629 C 0.88879 0.68024 0.62254 0.0
C2630 C 0.81248 0.64785 0.61048 0.0
C2631 C 0.81083 0.6211 0.6372 0.0
N2632 N 0.84443 0.63427 0.62476 0.0
C2633 C 0.83453 0.64756 0.61138 0.0
C2634 C 0.83291 0.62124 0.63767 0.0
C2635 C 0.80058 0.6345 0.62348 0.0
C2636 C 0.94684 0.64582 0.64972 0.0
N2637 N 0.94045 0.66096 0.63612 0.0
C2638 C 0.9582 0.65139 0.66831 0.0
C2639 C 0.96297 0.67264 0.67299 0.0
C2640 C 0.95635 0.688 0.65909 0.0
C2641 C 0.94504 0.68184 0.64062 0.0
C2642 C 0.97872 0.68172 0.58423 0.0
C2643 C 0.93527 0.68327 0.57901 0.0
C2644 C 0.96497 0.66921 0.59633 0.0
N2645 N 0.94354 0.6702 0.59371 0.0
C2646 C 0.94854 0.696 0.56661 0.0
C2647 C 0.97041 0.6952 0.56929 0.0
C2648 C 0.88936 0.63901 0.57953 0.0
C2649 C 0.88595 0.57078 0.63572 0.0
C2650 C 0.8621 0.59376 0.60785 0.0
C2651 C 0.8617 0.57181 0.60581 0.0
C2652 C 0.87375 0.56028 0.61984 0.0
N2653 N 0.87409 0.60392 0.62347 0.0
C2654 C 0.8859 0.59273 0.63732 0.0
Co2655 Co 0.13978 0.4223 0.85623 0.0
Co2656 Co 0.09619 0.3894 0.86602 0.0
O2657 O 0.12557 0.39927 0.87105 0.0
C2658 C 0.17818 0.4031 0.84161 0.0
O2659 O 0.17339 0.41044 0.82289 0.0
C2660 C 0.09858 0.4023 0.91135 0.0
O2661 O 0.10603 0.42054 0.90432 0.0
O2662 O 0.08617 0.4186 0.86666 0.0
O2663 O 0.11374 0.43856 0.85523 0.0
H2664 H 0.02367 0.38875 0.83167 0.0
H2665 H 0.15914 0.40675 0.89582 0.0
O2666 O 0.16614 0.40608 0.85702 0.0
H2667 H 0.14539 0.48109 0.9104 0.0
H2668 H 0.20058 0.47468 0.84281 0.0
H2669 H 0.12901 0.44824 0.81925 0.0
H2670 H 0.13712 0.46533 0.87518 0.0
H2671 H 0.18193 0.44568 0.86164 0.0
O2672 O 0.09313 0.38748 0.89806 0.0
H2673 H 0.06118 0.40079 0.83698 0.0
H2674 H 0.06839 0.35647 0.88607 0.0
H2675 H 0.14706 0.47729 0.79999 0.0
H2676 H 0.16792 0.42197 0.93108 0.0
H2677 H 0.18314 0.49063 0.81171 0.0
H2678 H 0.16092 0.45937 0.93857 0.0
O2679 O 0.13106 0.40881 0.8287 0.0
H2680 H 0.13683 0.32858 0.89233 0.0
H2681 H 0.08814 0.35282 0.83668 0.0
H2682 H 0.10024 0.31656 0.83504 0.0
H2683 H 0.12471 0.30422 0.86305 0.0
H2684 H 0.12447 0.36476 0.89326 0.0
H2685 H 0.03089 0.34406 0.88143 0.0
H2686 H 0.00827 0.36024 0.85407 0.0
O2687 O 0.09952 0.39159 0.83406 0.0
C2688 C 0.09445 0.4361 0.8604 0.0
C2689 C 0.03337 0.38153 0.84361 0.0
C2690 C 0.03742 0.35647 0.87156 0.0
N2691 N 0.06697 0.37922 0.8617 0.0
C2692 C 0.05464 0.38822 0.84662 0.0
C2693 C 0.05862 0.36358 0.87414 0.0
C2694 C 0.02474 0.36555 0.85619 0.0
C2695 C 0.15638 0.42314 0.89883 0.0
N2696 N 0.14779 0.43519 0.88338 0.0
C2697 C 0.16126 0.43163 0.91887 0.0
C2698 C 0.15729 0.45261 0.92308 0.0
C2699 C 0.14857 0.46481 0.90725 0.0
C2700 C 0.14389 0.45579 0.88738 0.0
C2701 C 0.18487 0.46898 0.83753 0.0
C2702 C 0.14468 0.45402 0.82448 0.0
C2703 C 0.17422 0.45261 0.84816 0.0
N2704 N 0.15438 0.4453 0.84156 0.0
C2705 C 0.15483 0.47045 0.8135 0.0
C2706 C 0.17509 0.47791 0.82007 0.0
C2707 C 0.1143 0.3985 0.82191 0.0
C2708 C 0.12612 0.33376 0.88007 0.0
C2709 C 0.09886 0.34758 0.84887 0.0
C2710 C 0.10562 0.32702 0.84789 0.0
C2711 C 0.11934 0.32011 0.86362 0.0
N2712 N 0.10552 0.36084 0.8651 0.0
C2713 C 0.11903 0.3542 0.88054 0.0
Co2714 Co 0.12156 0.66926 0.39576 0.0
Co2715 Co 0.14127 0.62091 0.40701 0.0
O2716 O 0.14016 0.65124 0.41121 0.0
C2717 C 0.1626 0.69085 0.38462 0.0
O2718 O 0.16837 0.67341 0.37576 0.0
C2719 C 0.12858 0.62518 0.45186 0.0
O2720 O 0.11268 0.63544 0.44423 0.0
O2721 O 0.1098 0.61642 0.40599 0.0
O2722 O 0.09766 0.64776 0.397 0.0
H2723 H 0.12218 0.55041 0.37293 0.0
H2724 H 0.1453 0.68524 0.43408 0.0
O2725 O 0.14517 0.69135 0.39411 0.0
H2726 H 0.07004 0.69216 0.44932 0.0
H2727 H 0.09271 0.73916 0.37666 0.0
H2728 H 0.08912 0.66274 0.36126 0.0
H2729 H 0.08048 0.67847 0.41486 0.0
H2730 H 0.11515 0.71546 0.3968 0.0
O2731 O 0.1418 0.61768 0.43919 0.0
H2732 H 0.12066 0.58891 0.37763 0.0
H2733 H 0.16512 0.58803 0.42897 0.0
H2734 H 0.0661 0.68583 0.34102 0.0
H2735 H 0.13559 0.69913 0.46872 0.0
H2736 H 0.06786 0.72435 0.34863 0.0
H2737 H 0.09771 0.70259 0.47654 0.0
O2738 O 0.12963 0.65698 0.36838 0.0
H2739 H 0.2119 0.64965 0.43593 0.0
H2740 H 0.17517 0.60652 0.37962 0.0
H2741 H 0.21405 0.61192 0.3796 0.0
H2742 H 0.23268 0.63357 0.40794 0.0
H2743 H 0.17304 0.644 0.43523 0.0
H2744 H 0.16702 0.54947 0.42493 0.0
H2745 H 0.14547 0.53043 0.39671 0.0
O2746 O 0.14063 0.6244 0.37496 0.0
C2747 C 0.0948 0.62821 0.40103 0.0
C2748 C 0.13169 0.55853 0.38525 0.0
C2749 C 0.15683 0.55801 0.41446 0.0
N2750 N 0.14289 0.59069 0.40347 0.0
C2751 C 0.13094 0.58034 0.38794 0.0
C2752 C 0.15566 0.57982 0.41671 0.0
C2753 C 0.14474 0.54733 0.39861 0.0
C2754 C 0.12879 0.68685 0.43732 0.0
N2755 N 0.11347 0.68106 0.42247 0.0
C2756 C 0.12339 0.69467 0.45698 0.0
C2757 C 0.10213 0.69658 0.46137 0.0
C2758 C 0.0866 0.69072 0.4461 0.0
C2759 C 0.09259 0.68292 0.42664 0.0
C2760 C 0.09175 0.7224 0.37324 0.0
C2761 C 0.08981 0.67945 0.36483 0.0
C2762 C 0.10446 0.70889 0.38456 0.0
N2763 N 0.10332 0.6877 0.38033 0.0
C2764 C 0.0768 0.69246 0.35325 0.0
C2765 C 0.07781 0.71407 0.35751 0.0
C2766 C 0.13621 0.63934 0.36224 0.0
C2767 C 0.20398 0.64013 0.42353 0.0
C2768 C 0.18316 0.61602 0.39196 0.0
C2769 C 0.20518 0.61898 0.3919 0.0
C2770 C 0.21562 0.63113 0.40781 0.0
N2771 N 0.17187 0.62483 0.40748 0.0
C2772 C 0.18198 0.63681 0.4231 0.0
Co2773 Co 0.89928 0.34812 0.38512 0.0
Co2774 Co 0.88002 0.39642 0.39756 0.0
O2775 O 0.88084 0.36587 0.40054 0.0
C2776 C 0.87009 0.31547 0.36577 0.0
O2777 O 0.87832 0.32115 0.3478 0.0
C2778 C 0.89251 0.39113 0.44283 0.0
O2779 O 0.90783 0.38024 0.4356 0.0
O2780 O 0.9115 0.40064 0.39878 0.0
O2781 O 0.92289 0.36989 0.38732 0.0
H2782 H 0.90003 0.46746 0.36746 0.0
H2783 H 0.87698 0.33105 0.42225 0.0
O2784 O 0.87569 0.32565 0.38263 0.0
H2785 H 0.95296 0.32715 0.44016 0.0
H2786 H 0.93226 0.27979 0.36762 0.0
H2787 H 0.92911 0.35518 0.35037 0.0
H2788 H 0.94129 0.34053 0.40563 0.0
H2789 H 0.909 0.30252 0.38707 0.0
O2790 O 0.87945 0.39915 0.42974 0.0
H2791 H 0.90126 0.42886 0.37087 0.0
H2792 H 0.85624 0.42906 0.41922 0.0
H2793 H 0.95269 0.33303 0.33062 0.0
H2794 H 0.88795 0.31734 0.45689 0.0
H2795 H 0.95436 0.29504 0.33919 0.0
H2796 H 0.92619 0.31542 0.46608 0.0
O2797 O 0.88992 0.36065 0.35794 0.0
H2798 H 0.80899 0.3683 0.42145 0.0
H2799 H 0.84643 0.41167 0.36862 0.0
H2800 H 0.80749 0.40695 0.36627 0.0
H2801 H 0.78851 0.3852 0.39287 0.0
H2802 H 0.84792 0.37327 0.42309 0.0
H2803 H 0.85464 0.46771 0.41647 0.0
H2804 H 0.87658 0.48714 0.39038 0.0
O2805 O 0.88086 0.39368 0.36549 0.0
C2806 C 0.92617 0.38906 0.39307 0.0
C2807 C 0.89033 0.45917 0.37884 0.0
C2808 C 0.86488 0.4593 0.40637 0.0
N2809 N 0.8787 0.42673 0.39511 0.0
C2810 C 0.89091 0.4373 0.38079 0.0
C2811 C 0.86589 0.43744 0.40789 0.0
C2812 C 0.87719 0.4702 0.39172 0.0
C2813 C 0.89365 0.33003 0.42603 0.0
N2814 N 0.90846 0.33649 0.41186 0.0
C2815 C 0.89977 0.32235 0.44571 0.0
C2816 C 0.92122 0.3213 0.45087 0.0
C2817 C 0.93625 0.3279 0.43634 0.0
C2818 C 0.92954 0.33553 0.41682 0.0
C2819 C 0.93171 0.29633 0.36376 0.0
C2820 C 0.92978 0.33867 0.35424 0.0
C2821 C 0.91857 0.30928 0.37472 0.0
N2822 N 0.91772 0.33019 0.36989 0.0
C2823 C 0.94315 0.32621 0.34299 0.0
C2824 C 0.94408 0.30489 0.3478 0.0
C2825 C 0.88433 0.37885 0.35226 0.0
C2826 C 0.81707 0.37786 0.4098 0.0
C2827 C 0.83828 0.40209 0.38018 0.0
C2828 C 0.81623 0.39952 0.37881 0.0
C2829 C 0.80559 0.38732 0.39374 0.0
N2830 N 0.84941 0.39283 0.39603 0.0
C2831 C 0.83911 0.38078 0.41068 0.0
C2832 C 0.12978 0.29461 0.38585 0.0
C2833 C 0.12751 0.30698 0.36788 0.0
C2834 C 0.12828 0.27252 0.38436 0.0
C2835 C 0.12348 0.26268 0.36453 0.0
C2836 C 0.12196 0.27516 0.3462 0.0
C2837 C 0.1243 0.29724 0.34808 0.0
C2838 C 0.13068 0.25978 0.4042 0.0
C2839 C 0.11625 0.26534 0.3249 0.0
C2840 C 0.12877 0.2034 0.36111 0.0
C2841 C 0.10855 0.19587 0.36691 0.0
C2842 C 0.1338 0.22516 0.35967 0.0
C2843 C 0.11803 0.23958 0.3635 0.0
C2844 C 0.09723 0.23191 0.36807 0.0
C2845 C 0.09286 0.21014 0.37012 0.0
C2846 C 0.15628 0.23271 0.35541 0.0
C2847 C 0.07978 0.24674 0.37165 0.0
H2848 H 0.13206 0.30225 0.40117 0.0
H2849 H 0.12207 0.30692 0.33427 0.0
H2850 H 0.11502 0.25269 0.40856 0.0
H2851 H 0.14121 0.24666 0.40156 0.0
H2852 H 0.13723 0.26959 0.41769 0.0
H2853 H 0.11799 0.27691 0.31195 0.0
H2854 H 0.12625 0.25194 0.32168 0.0
H2855 H 0.09956 0.25898 0.32481 0.0
H2856 H 0.14101 0.19234 0.35898 0.0
H2857 H 0.07724 0.20427 0.37465 0.0
H2858 H 0.16351 0.24049 0.36981 0.0
H2859 H 0.15664 0.2446 0.3427 0.0
H2860 H 0.16616 0.21956 0.35084 0.0
H2861 H 0.083 0.25562 0.38664 0.0
H2862 H 0.06403 0.23822 0.37251 0.0
H2863 H 0.07917 0.25844 0.35878 0.0
C2864 C 0.29699 0.61487 0.87311 0.0
C2865 C 0.30928 0.61477 0.89187 0.0
C2866 C 0.27487 0.61594 0.87356 0.0
C2867 C 0.26481 0.61649 0.89322 0.0
C2868 C 0.27714 0.6165 0.91216 0.0
C2869 C 0.29917 0.61588 0.91125 0.0
C2870 C 0.26226 0.61631 0.85303 0.0
C2871 C 0.26702 0.61662 0.93345 0.0
C2872 C 0.20828 0.63318 0.89829 0.0
C2873 C 0.19692 0.61357 0.89843 0.0
C2874 C 0.23035 0.63445 0.89594 0.0
C2875 C 0.24132 0.61568 0.89415 0.0
C2876 C 0.22993 0.59588 0.89429 0.0
C2877 C 0.20792 0.59509 0.89617 0.0
C2878 C 0.24193 0.65586 0.89545 0.0
C2879 C 0.24104 0.57547 0.89285 0.0
H2880 H 0.30465 0.61429 0.85807 0.0
H2881 H 0.30845 0.61599 0.92585 0.0
H2882 H 0.25179 0.60176 0.85138 0.0
H2883 H 0.25194 0.62989 0.85291 0.0
H2884 H 0.27256 0.61743 0.83915 0.0
H2885 H 0.2789 0.61699 0.9467 0.0
H2886 H 0.25728 0.63052 0.93496 0.0
H2887 H 0.25629 0.60234 0.93498 0.0
H2888 H 0.19992 0.64754 0.89975 0.0
H2889 H 0.19937 0.57985 0.89607 0.0
H2890 H 0.25149 0.65724 0.88108 0.0
H2891 H 0.25306 0.65776 0.90924 0.0
H2892 H 0.23097 0.66893 0.89568 0.0
H2893 H 0.25007 0.57501 0.87814 0.0
H2894 H 0.22983 0.56138 0.89307 0.0
H2895 H 0.25257 0.57445 0.90626 0.0
C2896 C 0.89821 0.80911 0.36565 0.0
C2897 C 0.90846 0.81541 0.38473 0.0
C2898 C 0.89359 0.78762 0.36097 0.0
C2899 C 0.89979 0.77218 0.37554 0.0
C2900 C 0.91026 0.77851 0.39476 0.0
C2901 C 0.91427 0.80003 0.39919 0.0
C2902 C 0.88209 0.78144 0.34049 0.0
C2903 C 0.91755 0.76254 0.41053 0.0
C2904 C 0.87789 0.71523 0.37583 0.0
C2905 C 0.89433 0.70486 0.36651 0.0
C2906 C 0.87877 0.73736 0.37772 0.0
C2907 C 0.89661 0.7493 0.37038 0.0
C2908 C 0.91266 0.739 0.36 0.0
C2909 C 0.91122 0.71699 0.35801 0.0
C2910 C 0.86113 0.74787 0.38851 0.0
C2911 C 0.93207 0.75106 0.35214 0.0
H2912 H 0.89345 0.82098 0.35455 0.0
H2913 H 0.92225 0.80482 0.41396 0.0
H2914 H 0.89234 0.77205 0.33059 0.0
H2915 H 0.8677 0.77132 0.34367 0.0
H2916 H 0.87736 0.79538 0.33138 0.0
H2917 H 0.92533 0.77011 0.42481 0.0
H2918 H 0.90389 0.75226 0.41551 0.0
H2919 H 0.9289 0.75223 0.40312 0.0
H2920 H 0.86468 0.70606 0.38225 0.0
H2921 H 0.92389 0.70927 0.35046 0.0
H2922 H 0.85618 0.76164 0.37932 0.0
H2923 H 0.86684 0.7538 0.40427 0.0
H2924 H 0.84712 0.73685 0.3906 0.0
H2925 H 0.92747 0.76436 0.34209 0.0
H2926 H 0.94227 0.74091 0.34294 0.0
H2927 H 0.94156 0.75789 0.36577 0.0
C2928 C 0.81939 0.39221 0.88983 0.0
C2929 C 0.82881 0.41259 0.8927 0.0
C2930 C 0.79724 0.38874 0.8892 0.0
C2931 C 0.78427 0.40599 0.89199 0.0
C2932 C 0.79372 0.42656 0.89494 0.0
C2933 C 0.81581 0.42962 0.89502 0.0
C2934 C 0.78771 0.36663 0.88564 0.0
C2935 C 0.78052 0.44533 0.89847 0.0
C2936 C 0.72552 0.40372 0.87693 0.0
C2937 C 0.71636 0.39982 0.8965 0.0
C2938 C 0.74765 0.40492 0.875 0.0
C2939 C 0.76088 0.40256 0.89313 0.0
C2940 C 0.75172 0.39826 0.91281 0.0
C2941 C 0.72966 0.39669 0.91419 0.0
C2942 C 0.75687 0.40911 0.85366 0.0
C2943 C 0.76522 0.396 0.93261 0.0
H2944 H 0.82931 0.379 0.88777 0.0
H2945 H 0.82289 0.44542 0.89727 0.0
H2946 H 0.779 0.36137 0.89975 0.0
H2947 H 0.77612 0.36636 0.87217 0.0
H2948 H 0.79989 0.35517 0.88239 0.0
H2949 H 0.79033 0.46033 0.90029 0.0
H2950 H 0.76913 0.44692 0.88504 0.0
H2951 H 0.77116 0.44295 0.91287 0.0
H2952 H 0.71543 0.4059 0.86311 0.0
H2953 H 0.72287 0.39341 0.92937 0.0
H2954 H 0.76856 0.39727 0.85008 0.0
H2955 H 0.76539 0.42485 0.85376 0.0
H2956 H 0.74452 0.40866 0.84085 0.0
H2957 H 0.77652 0.38347 0.93042 0.0
H2958 H 0.75562 0.39209 0.94659 0.0
H2959 H 0.77469 0.41095 0.93594 0.0
C2960 C 0.10499 0.70545 0.66338 0.0
C2961 C 0.12197 0.69229 0.66135 0.0
C2962 C 0.10764 0.72729 0.6607 0.0
C2963 C 0.12794 0.73643 0.65651 0.0
C2964 C 0.14542 0.72347 0.65557 0.0
C2965 C 0.1422 0.70149 0.65777 0.0
C2966 C 0.08848 0.74044 0.66143 0.0
C2967 C 0.16741 0.73274 0.65168 0.0
C2968 C 0.12842 0.78726 0.6256 0.0
C2969 C 0.13053 0.80264 0.64166 0.0
C2970 C 0.12798 0.7657 0.63022 0.0
C2971 C 0.13031 0.75926 0.65142 0.0
C2972 C 0.13327 0.77466 0.66769 0.0
C2973 C 0.13307 0.79619 0.66265 0.0
C2974 C 0.1243 0.74982 0.61243 0.0
C2975 C 0.13633 0.7684 0.69042 0.0
H2976 H 0.08933 0.69866 0.66645 0.0
H2977 H 0.15548 0.69154 0.65645 0.0
H2978 H 0.09118 0.75344 0.67314 0.0
H2979 H 0.08575 0.74775 0.64582 0.0
H2980 H 0.07391 0.73098 0.66554 0.0
H2981 H 0.17962 0.72099 0.65392 0.0
H2982 H 0.16817 0.73869 0.63531 0.0
H2983 H 0.17128 0.74637 0.66245 0.0
H2984 H 0.12662 0.79201 0.60934 0.0
H2985 H 0.13503 0.80795 0.67514 0.0
H2986 H 0.10938 0.74024 0.61486 0.0
H2987 H 0.13731 0.73881 0.61229 0.0
H2988 H 0.12322 0.75743 0.59676 0.0
H2989 H 0.12158 0.76036 0.69605 0.0
H2990 H 0.14053 0.78221 0.70089 0.0
H2991 H 0.149 0.75704 0.69189 0.0
C2992 C 0.71181 0.59396 0.09909 0.0
C2993 C 0.69697 0.59748 0.11457 0.0
C2994 C 0.7334 0.59919 0.10276 0.0
C2995 C 0.74036 0.60847 0.12229 0.0
C2996 C 0.72542 0.61248 0.13784 0.0
C2997 C 0.70389 0.60676 0.13387 0.0
C2998 C 0.74883 0.59426 0.08589 0.0
C2999 C 0.73223 0.62261 0.15873 0.0
C3000 C 0.79709 0.59865 0.13777 0.0
C3001 C 0.80808 0.61696 0.13061 0.0
C3002 C 0.77503 0.59608 0.13584 0.0
C3003 C 0.76345 0.61234 0.12684 0.0
C3004 C 0.77423 0.63134 0.12061 0.0
C3005 C 0.79647 0.6334 0.12246 0.0
C3006 C 0.76424 0.57547 0.14249 0.0
C3007 C 0.76234 0.64916 0.11128 0.0
H3008 H 0.7066 0.58677 0.08414 0.0
H3009 H 0.69245 0.60975 0.14578 0.0
H3010 H 0.75832 0.60875 0.08171 0.0
H3011 H 0.76003 0.58275 0.09196 0.0
H3012 H 0.74078 0.58759 0.07134 0.0
H3013 H 0.71854 0.62612 0.16849 0.0
H3014 H 0.74244 0.61199 0.16772 0.0
H3015 H 0.74177 0.6375 0.15613 0.0
H3016 H 0.80576 0.58589 0.14436 0.0
H3017 H 0.80474 0.64766 0.11706 0.0
H3018 H 0.75694 0.5671 0.12844 0.0
H3019 H 0.75135 0.57842 0.15343 0.0
H3020 H 0.7754 0.56491 0.15035 0.0
H3021 H 0.75569 0.64438 0.09548 0.0
H3022 H 0.77266 0.66374 0.10959 0.0
H3023 H 0.74886 0.65276 0.12126 0.0
C3024 C 0.89709 0.20343 0.65021 0.0
C3025 C 0.89515 0.19515 0.62962 0.0
C3026 C 0.89666 0.22529 0.65395 0.0
C3027 C 0.89453 0.23908 0.63666 0.0
C3028 C 0.89246 0.23077 0.61592 0.0
C3029 C 0.89265 0.20899 0.61269 0.0
C3030 C 0.89863 0.23364 0.6763 0.0
C3031 C 0.89045 0.24493 0.597 0.0
C3032 C 0.87844 0.29569 0.63997 0.0
C3033 C 0.89805 0.30677 0.63805 0.0
C3034 C 0.87711 0.27354 0.64097 0.0
C3035 C 0.8958 0.26233 0.63978 0.0
C3036 C 0.91567 0.2735 0.6388 0.0
C3037 C 0.91656 0.29554 0.63805 0.0
C3038 C 0.85566 0.26212 0.64232 0.0
C3039 C 0.93596 0.26216 0.63724 0.0
H3040 H 0.89876 0.19286 0.66341 0.0
H3041 H 0.89096 0.20285 0.59671 0.0
H3042 H 0.91347 0.24365 0.67842 0.0
H3043 H 0.88532 0.24374 0.67958 0.0
H3044 H 0.89874 0.22077 0.68806 0.0
H3045 H 0.88856 0.23588 0.58193 0.0
H3046 H 0.87662 0.25477 0.59856 0.0
H3047 H 0.90472 0.25581 0.59615 0.0
H3048 H 0.86411 0.30426 0.64025 0.0
H3049 H 0.93184 0.30392 0.63677 0.0
H3050 H 0.85601 0.24969 0.6545 0.0
H3051 H 0.85137 0.2542 0.62701 0.0
H3052 H 0.84312 0.27301 0.6461 0.0
H3053 H 0.93703 0.25018 0.64979 0.0
H3054 H 0.95022 0.27315 0.63853 0.0
H3055 H 0.93608 0.25372 0.62185 0.0
C3056 C 0.29434 0.40833 0.08048 0.0
C3057 C 0.30808 0.41009 0.09825 0.0
C3058 C 0.27238 0.40611 0.08256 0.0
C3059 C 0.26385 0.40548 0.10293 0.0
C3060 C 0.2776 0.40646 0.12096 0.0
C3061 C 0.2996 0.40884 0.11842 0.0
C3062 C 0.25829 0.40528 0.0629 0.0
C3063 C 0.26905 0.40562 0.14293 0.0
C3064 C 0.20881 0.42561 0.10504 0.0
C3065 C 0.196 0.40684 0.10386 0.0
C3066 C 0.23091 0.42529 0.10559 0.0
C3067 C 0.24054 0.40572 0.1051 0.0
C3068 C 0.22778 0.38667 0.10479 0.0
C3069 C 0.20561 0.38745 0.1041 0.0
C3070 C 0.24392 0.44599 0.10578 0.0
C3071 C 0.23754 0.36551 0.10447 0.0
H3072 H 0.3007 0.40915 0.0648 0.0
H3073 H 0.31011 0.40999 0.13222 0.0
H3074 H 0.24711 0.39121 0.06313 0.0
H3075 H 0.2487 0.4194 0.0624 0.0
H3076 H 0.26745 0.40475 0.04825 0.0
H3077 H 0.2818 0.4044 0.15519 0.0
H3078 H 0.26054 0.42008 0.14609 0.0
H3079 H 0.2575 0.39196 0.14435 0.0
H3080 H 0.2016 0.4407 0.10504 0.0
H3081 H 0.19584 0.37288 0.10337 0.0
H3082 H 0.25262 0.44758 0.09089 0.0
H3083 H 0.25586 0.44639 0.11893 0.0
H3084 H 0.23402 0.4598 0.10743 0.0
H3085 H 0.2453 0.36327 0.08921 0.0
H3086 H 0.2256 0.35225 0.10653 0.0
H3087 H 0.24994 0.36482 0.11712 0.0
C3088 C 0.37069 0.13051 0.19615 0.0
C3089 C 0.39166 0.13263 0.18957 0.0
C3090 C 0.36619 0.1281 0.21763 0.0
C3091 C 0.38307 0.12753 0.23275 0.0
C3092 C 0.40421 0.13005 0.2262 0.0
C3093 C 0.40822 0.13268 0.20478 0.0
C3094 C 0.34344 0.12571 0.22409 0.0
C3095 C 0.42269 0.12928 0.24175 0.0
C3096 C 0.37656 0.13465 0.29175 0.0
C3097 C 0.37618 0.11368 0.2986 0.0
C3098 C 0.37778 0.13941 0.27019 0.0
C3099 C 0.37893 0.12283 0.25524 0.0
C3100 C 0.37805 0.10165 0.26205 0.0
C3101 C 0.37658 0.09734 0.2836 0.0
C3102 C 0.37844 0.16218 0.26348 0.0
C3103 C 0.37951 0.08351 0.24667 0.0
H3104 H 0.35781 0.13061 0.18453 0.0
H3105 H 0.42449 0.1343 0.19993 0.0
H3106 H 0.34008 0.10964 0.23033 0.0
H3107 H 0.34055 0.13708 0.23694 0.0
H3108 H 0.33218 0.12826 0.21073 0.0
H3109 H 0.43816 0.13225 0.23418 0.0
H3110 H 0.42132 0.14117 0.25448 0.0
H3111 H 0.42255 0.11355 0.24927 0.0
H3112 H 0.37602 0.14735 0.30322 0.0
H3113 H 0.37627 0.08108 0.28872 0.0
H3114 H 0.36662 0.16436 0.25053 0.0
H3115 H 0.39425 0.16672 0.25731 0.0
H3116 H 0.37527 0.17304 0.27671 0.0
H3117 H 0.36735 0.08443 0.23383 0.0
H3118 H 0.37738 0.06791 0.25438 0.0
H3119 H 0.39521 0.08451 0.23928 0.0
C3120 C 0.37121 0.85733 0.70784 0.0
C3121 C 0.3738 0.87855 0.70196 0.0
C3122 C 0.37207 0.85155 0.72918 0.0
C3123 C 0.37616 0.86733 0.74491 0.0
C3124 C 0.37868 0.88876 0.73906 0.0
C3125 C 0.3772 0.89411 0.71771 0.0
C3126 C 0.36881 0.82859 0.73488 0.0
C3127 C 0.38353 0.90604 0.7553 0.0
C3128 C 0.36594 0.85933 0.80313 0.0
C3129 C 0.38631 0.8557 0.8111 0.0
C3130 C 0.36211 0.86204 0.78141 0.0
C3131 C 0.37913 0.86154 0.76743 0.0
C3132 C 0.39954 0.8572 0.77528 0.0
C3133 C 0.40281 0.85405 0.79692 0.0
C3134 C 0.34 0.86612 0.77352 0.0
C3135 C 0.41821 0.85688 0.76098 0.0
H3136 H 0.36831 0.84523 0.69577 0.0
H3137 H 0.3792 0.91053 0.71337 0.0
H3138 H 0.38362 0.8229 0.74203 0.0
H3139 H 0.3564 0.82664 0.74682 0.0
H3140 H 0.36414 0.81849 0.72095 0.0
H3141 H 0.38484 0.92195 0.74813 0.0
H3142 H 0.37097 0.90589 0.76714 0.0
H3143 H 0.39865 0.90326 0.76384 0.0
H3144 H 0.35302 0.86035 0.81388 0.0
H3145 H 0.41856 0.85095 0.80276 0.0
H3146 H 0.33545 0.85572 0.75979 0.0
H3147 H 0.33948 0.88265 0.7681 0.0
H3148 H 0.32812 0.86351 0.78592 0.0
H3149 H 0.41474 0.84568 0.74766 0.0
H3150 H 0.43286 0.85235 0.76943 0.0
H3151 H 0.42124 0.87276 0.75414 0.0
C3152 C 0.5921 0.86953 0.21456 0.0
C3153 C 0.60842 0.86983 0.20003 0.0
C3154 C 0.59649 0.87195 0.23623 0.0
C3155 C 0.61776 0.87453 0.24366 0.0
C3156 C 0.63437 0.87406 0.22919 0.0
C3157 C 0.62951 0.87183 0.20749 0.0
C3158 C 0.57829 0.87261 0.25109 0.0
C3159 C 0.65725 0.87655 0.23659 0.0
C3160 C 0.62607 0.90588 0.29453 0.0
C3161 C 0.62744 0.88994 0.30962 0.0
C3162 C 0.62343 0.90104 0.27301 0.0
C3163 C 0.62234 0.87969 0.2663 0.0
C3164 C 0.62423 0.86349 0.28135 0.0
C3165 C 0.62663 0.8688 0.3029 0.0
C3166 C 0.6212 0.9188 0.25753 0.0
C3167 C 0.62336 0.84056 0.27471 0.0
H3168 H 0.57574 0.86794 0.209 0.0
H3169 H 0.64221 0.87188 0.19638 0.0
H3170 H 0.58019 0.86107 0.26395 0.0
H3171 H 0.57821 0.88849 0.25852 0.0
H3172 H 0.56272 0.86911 0.24293 0.0
H3173 H 0.66827 0.8737 0.22368 0.0
H3174 H 0.66074 0.89276 0.24288 0.0
H3175 H 0.66036 0.86546 0.2496 0.0
H3176 H 0.62663 0.92228 0.29953 0.0
H3177 H 0.62786 0.85641 0.31445 0.0
H3178 H 0.60536 0.91729 0.24954 0.0
H3179 H 0.63314 0.9179 0.24515 0.0
H3180 H 0.62312 0.93459 0.26526 0.0
H3181 H 0.60746 0.83595 0.26783 0.0
H3182 H 0.62666 0.82998 0.28813 0.0
H3183 H 0.635 0.83807 0.2623 0.0
C3184 C 0.66144 0.15058 0.80726 0.0
C3185 C 0.64295 0.1603 0.81269 0.0
C3186 C 0.66581 0.14654 0.78604 0.0
C3187 C 0.65113 0.15196 0.76998 0.0
C3188 C 0.63316 0.16296 0.77529 0.0
C3189 C 0.6295 0.16729 0.79651 0.0
C3190 C 0.6855 0.13538 0.78091 0.0
C3191 C 0.61691 0.16875 0.75873 0.0
C3192 C 0.6627 0.14958 0.71151 0.0
C3193 C 0.65393 0.12947 0.70598 0.0
C3194 C 0.6627 0.15688 0.73249 0.0
C3195 C 0.65307 0.14401 0.74805 0.0
C3196 C 0.64408 0.12374 0.74243 0.0
C3197 C 0.6449 0.11662 0.72152 0.0
C3198 C 0.67293 0.17833 0.73802 0.0
C3199 C 0.6331 0.10975 0.75839 0.0
H3200 H 0.67211 0.14537 0.81958 0.0
H3201 H 0.61539 0.17525 0.8004 0.0
H3202 H 0.68111 0.11877 0.77636 0.0
H3203 H 0.69348 0.14293 0.76734 0.0
H3204 H 0.69689 0.13538 0.79456 0.0
H3205 H 0.60477 0.17878 0.76524 0.0
H3206 H 0.62463 0.17723 0.74557 0.0
H3207 H 0.6088 0.15414 0.75204 0.0
H3208 H 0.66987 0.15943 0.69948 0.0
H3209 H 0.63791 0.10118 0.71721 0.0
H3210 H 0.68469 0.17697 0.75118 0.0
H3211 H 0.66082 0.18894 0.74348 0.0
H3212 H 0.68099 0.18575 0.7244 0.0
H3213 H 0.64423 0.10647 0.77162 0.0
H3214 H 0.62685 0.09447 0.7514 0.0
H3215 H 0.61974 0.11793 0.76512 0.0
C3216 C 0.89554 0.7996 0.65768 0.0
C3217 C 0.87868 0.81084 0.64988 0.0
C3218 C 0.89485 0.77752 0.65619 0.0
C3219 C 0.87721 0.76671 0.64594 0.0
C3220 C 0.85949 0.77798 0.63947 0.0
C3221 C 0.86037 0.79999 0.64176 0.0
C3222 C 0.91382 0.76602 0.66378 0.0
C3223 C 0.8406 0.76717 0.62805 0.0
C3224 C 0.89145 0.71868 0.61462 0.0
C3225 C 0.88405 0.70219 0.62744 0.0
C3226 C 0.88858 0.73974 0.62014 0.0
C3227 C 0.87867 0.74438 0.63927 0.0
C3228 C 0.87096 0.72777 0.65216 0.0
C3229 C 0.8735 0.70682 0.64594 0.0
C3230 C 0.89653 0.75705 0.60568 0.0
C3231 C 0.8608 0.73213 0.67288 0.0
H3232 H 0.90984 0.80816 0.66354 0.0
H3233 H 0.84761 0.80885 0.63523 0.0
H3234 H 0.90878 0.7514 0.67216 0.0
H3235 H 0.92303 0.76134 0.65004 0.0
H3236 H 0.92442 0.77601 0.6745 0.0
H3237 H 0.827 0.77749 0.6269 0.0
H3238 H 0.84506 0.76289 0.61183 0.0
H3239 H 0.83548 0.75237 0.63605 0.0
H3240 H 0.89956 0.71509 0.60031 0.0
H3241 H 0.86805 0.69406 0.65604 0.0
H3242 H 0.90955 0.76671 0.61371 0.0
H3243 H 0.88368 0.76772 0.60183 0.0
H3244 H 0.9025 0.75073 0.59072 0.0
H3245 H 0.87258 0.74042 0.68378 0.0
H3246 H 0.85468 0.71744 0.68054 0.0
H3247 H 0.84757 0.74268 0.67049 0.0
C3248 C 0.78212 0.39511 0.15374 0.0
C3249 C 0.79877 0.38179 0.15741 0.0
C3250 C 0.76151 0.38686 0.14918 0.0
C3251 C 0.75742 0.36473 0.14818 0.0
C3252 C 0.77399 0.35117 0.15251 0.0
C3253 C 0.79451 0.35987 0.1571 0.0
C3254 C 0.74425 0.40187 0.14469 0.0
C3255 C 0.77021 0.32749 0.15156 0.0
C3256 C 0.69941 0.34572 0.14802 0.0
C3257 C 0.69477 0.34368 0.12632 0.0
C3258 C 0.71996 0.35187 0.1555 0.0
C3259 C 0.73617 0.35598 0.14091 0.0
C3260 C 0.73172 0.35319 0.11906 0.0
C3261 C 0.7111 0.34711 0.11204 0.0
C3262 C 0.72414 0.3547 0.17892 0.0
C3263 C 0.74857 0.35736 0.10298 0.0
H3264 H 0.78522 0.41208 0.15411 0.0
H3265 H 0.80729 0.34947 0.15994 0.0
H3266 H 0.73864 0.40005 0.12801 0.0
H3267 H 0.7305 0.3981 0.15471 0.0
H3268 H 0.74972 0.41861 0.14753 0.0
H3269 H 0.78431 0.31916 0.15704 0.0
H3270 H 0.75663 0.32249 0.16137 0.0
H3271 H 0.7661 0.32242 0.1351 0.0
H3272 H 0.68687 0.34311 0.15915 0.0
H3273 H 0.70771 0.3454 0.09524 0.0
H3274 H 0.72789 0.37163 0.18263 0.0
H3275 H 0.73808 0.34596 0.18402 0.0
H3276 H 0.71035 0.34917 0.18825 0.0
H3277 H 0.75382 0.37433 0.10339 0.0
H3278 H 0.74285 0.35313 0.08669 0.0
H3279 H 0.76262 0.34826 0.10683 0.0
C3280 C 0.15134 0.20671 0.64376 0.0
C3281 C 0.13674 0.19414 0.63146 0.0
C3282 C 0.14866 0.22837 0.64667 0.0
C3283 C 0.13074 0.23749 0.63742 0.0
C3284 C 0.11602 0.22486 0.62495 0.0
C3285 C 0.11931 0.20343 0.62197 0.0
C3286 C 0.16487 0.24147 0.65974 0.0
C3287 C 0.0965 0.23386 0.6151 0.0
C3288 C 0.10786 0.28622 0.66042 0.0
C3289 C 0.11293 0.30136 0.64514 0.0
C3290 C 0.11442 0.26556 0.65863 0.0
C3291 C 0.12667 0.26001 0.64132 0.0
C3292 C 0.13298 0.27557 0.62656 0.0
C3293 C 0.12585 0.29605 0.62853 0.0
C3294 C 0.10709 0.24936 0.67452 0.0
C3295 C 0.14639 0.27035 0.60813 0.0
H3296 H 0.16492 0.19965 0.65102 0.0
H3297 H 0.10786 0.19382 0.61255 0.0
H3298 H 0.15745 0.24767 0.67398 0.0
H3299 H 0.17853 0.23228 0.66481 0.0
H3300 H 0.17081 0.25528 0.65059 0.0
H3301 H 0.08666 0.22189 0.60577 0.0
H3302 H 0.08667 0.24027 0.62759 0.0
H3303 H 0.10108 0.2471 0.60458 0.0
H3304 H 0.09787 0.29018 0.67331 0.0
H3305 H 0.12999 0.30774 0.61677 0.0
H3306 H 0.12064 0.24069 0.68073 0.0
H3307 H 0.09574 0.2376 0.66673 0.0
H3308 H 0.09919 0.25658 0.68801 0.0
H3309 H 0.16013 0.26147 0.6135 0.0
H3310 H 0.15228 0.28473 0.59978 0.0
H3311 H 0.13691 0.26011 0.59672 0.0
C3312 C 0.20936 0.65342 0.15007 0.0
C3313 C 0.20256 0.63213 0.14723 0.0
C3314 C 0.23029 0.66041 0.14604 0.0
C3315 C 0.24477 0.64573 0.13925 0.0
C3316 C 0.23826 0.6241 0.1373 0.0
C3317 C 0.21723 0.6176 0.14116 0.0
C3318 C 0.23661 0.68363 0.14811 0.0
C3319 C 0.25327 0.6079 0.13027 0.0
C3320 C 0.28971 0.66206 0.10374 0.0
C3321 C 0.30727 0.66231 0.11773 0.0
C3322 C 0.26919 0.65762 0.11078 0.0
C3323 C 0.26616 0.65304 0.13231 0.0
C3324 C 0.28374 0.65393 0.14668 0.0
C3325 C 0.30413 0.65869 0.13922 0.0
C3326 C 0.25084 0.65707 0.09498 0.0
C3327 C 0.28112 0.64895 0.16971 0.0
H3328 H 0.19816 0.66479 0.15472 0.0
H3329 H 0.21223 0.60112 0.13898 0.0
H3330 H 0.25142 0.68604 0.1578 0.0
H3331 H 0.23979 0.69017 0.13228 0.0
H3332 H 0.22411 0.69269 0.15535 0.0
H3333 H 0.24629 0.59152 0.13138 0.0
H3334 H 0.25752 0.61083 0.11366 0.0
H3335 H 0.26814 0.60924 0.13999 0.0
H3336 H 0.29202 0.66505 0.08714 0.0
H3337 H 0.31767 0.65879 0.15008 0.0
H3338 H 0.23825 0.66703 0.1006 0.0
H3339 H 0.24387 0.6407 0.09329 0.0
H3340 H 0.25568 0.66264 0.07919 0.0
H3341 H 0.26868 0.65842 0.17642 0.0
H3342 H 0.29606 0.65205 0.17911 0.0
H3343 H 0.27592 0.63208 0.17137 0.0
C3344 C 0.82584 0.19471 0.37875 0.0
C3345 C 0.84191 0.18597 0.39093 0.0
C3346 C 0.82702 0.21626 0.37373 0.0
C3347 C 0.845 0.22905 0.38051 0.0
C3348 C 0.86139 0.22015 0.39255 0.0
C3349 C 0.85948 0.19879 0.39788 0.0
C3350 C 0.80901 0.22537 0.36139 0.0
C3351 C 0.8811 0.23311 0.39962 0.0
C3352 C 0.86315 0.27874 0.35234 0.0
C3353 C 0.85951 0.29426 0.36749 0.0
C3354 C 0.85739 0.25746 0.35583 0.0
C3355 C 0.84725 0.25166 0.37467 0.0
C3356 C 0.84185 0.26747 0.38914 0.0
C3357 C 0.84833 0.2886 0.38552 0.0
C3358 C 0.86386 0.24107 0.34022 0.0
C3359 C 0.83048 0.26194 0.40911 0.0
H3360 H 0.81214 0.18481 0.37359 0.0
H3361 H 0.87196 0.19199 0.40721 0.0
H3362 H 0.80278 0.23864 0.37039 0.0
H3363 H 0.81473 0.23185 0.34628 0.0
H3364 H 0.79584 0.21345 0.35791 0.0
H3365 H 0.89264 0.22359 0.40831 0.0
H3366 H 0.88895 0.24021 0.38575 0.0
H3367 H 0.87684 0.24626 0.41002 0.0
H3368 H 0.87189 0.28296 0.3384 0.0
H3369 H 0.84536 0.30058 0.3972 0.0
H3370 H 0.85049 0.22955 0.33638 0.0
H3371 H 0.87684 0.23217 0.34733 0.0
H3372 H 0.86949 0.24825 0.32534 0.0
H3373 H 0.81713 0.25022 0.40577 0.0
H3374 H 0.82429 0.27606 0.41675 0.0
H3375 H 0.84156 0.25472 0.42044 0.0
C3376 C 0.20286 0.38257 0.86382 0.0
C3377 C 0.19907 0.39435 0.84564 0.0
C3378 C 0.2232 0.37602 0.86889 0.0
C3379 C 0.24019 0.38184 0.85571 0.0
C3380 C 0.2363 0.39317 0.83699 0.0
C3381 C 0.21573 0.3991 0.83207 0.0
C3382 C 0.22665 0.36356 0.88873 0.0
C3383 C 0.25405 0.40001 0.82273 0.0
C3384 C 0.29515 0.38903 0.88093 0.0
C3385 C 0.3049 0.37122 0.87349 0.0
C3386 C 0.27408 0.39257 0.87533 0.0
C3387 C 0.26229 0.37769 0.86233 0.0
C3388 C 0.27184 0.35937 0.85521 0.0
C3389 C 0.29314 0.35647 0.86068 0.0
C3390 C 0.26462 0.41251 0.88294 0.0
C3391 C 0.25961 0.34296 0.8417 0.0
H3392 H 0.18999 0.37874 0.87428 0.0
H3393 H 0.21292 0.40831 0.81806 0.0
H3394 H 0.2357 0.3495 0.8853 0.0
H3395 H 0.23615 0.37341 0.90045 0.0
H3396 H 0.2115 0.35828 0.89595 0.0
H3397 H 0.24821 0.40765 0.80816 0.0
H3398 H 0.26525 0.41135 0.8313 0.0
H3399 H 0.26308 0.38628 0.81817 0.0
H3400 H 0.30417 0.40059 0.8907 0.0
H3401 H 0.30057 0.3426 0.85499 0.0
H3402 H 0.25034 0.40854 0.89214 0.0
H3403 H 0.25956 0.42193 0.86922 0.0
H3404 H 0.27594 0.42246 0.89297 0.0
H3405 H 0.24486 0.33758 0.84956 0.0
H3406 H 0.26895 0.32903 0.8385 0.0
H3407 H 0.25489 0.34994 0.82642 0.0
C3408 C 0.15574 0.8057 0.36228 0.0
C3409 C 0.17362 0.81965 0.36373 0.0
C3410 C 0.15783 0.78389 0.36114 0.0
C3411 C 0.17831 0.77594 0.36202 0.0
C3412 C 0.19638 0.79005 0.36128 0.0
C3413 C 0.19379 0.81188 0.36197 0.0
C3414 C 0.1381 0.76938 0.36138 0.0
C3415 C 0.21845 0.78223 0.36219 0.0
C3416 C 0.17521 0.72702 0.39501 0.0
C3417 C 0.17314 0.71123 0.37949 0.0
C3418 C 0.17918 0.74814 0.38955 0.0
C3419 C 0.18045 0.75356 0.36797 0.0
C3420 C 0.18017 0.73745 0.35238 0.0
C3421 C 0.17668 0.71632 0.35839 0.0
C3422 C 0.17991 0.76478 0.40675 0.0
C3423 C 0.18134 0.74254 0.32925 0.0
H3424 H 0.14015 0.81179 0.3636 0.0
H3425 H 0.20765 0.82269 0.36329 0.0
H3426 H 0.13927 0.756 0.35019 0.0
H3427 H 0.13627 0.76272 0.37739 0.0
H3428 H 0.12364 0.77779 0.35721 0.0
H3429 H 0.23027 0.79436 0.35661 0.0
H3430 H 0.22273 0.77841 0.37876 0.0
H3431 H 0.21943 0.76764 0.3526 0.0
H3432 H 0.17238 0.72297 0.41131 0.0
H3433 H 0.17477 0.70406 0.34636 0.0
H3434 H 0.16495 0.77313 0.40621 0.0
H3435 H 0.1931 0.77668 0.40441 0.0
H3436 H 0.18185 0.75788 0.42268 0.0
H3437 H 0.1656 0.74719 0.32338 0.0
H3438 H 0.18578 0.72871 0.31982 0.0
H3439 H 0.19289 0.75596 0.32656 0.0
C3440 C 0.81303 0.65298 0.87493 0.0
C3441 C 0.81998 0.63237 0.87591 0.0
C3442 C 0.79142 0.65675 0.87517 0.0
C3443 C 0.77637 0.63949 0.8761 0.0
C3444 C 0.78321 0.61862 0.87599 0.0
C3445 C 0.80494 0.61531 0.87608 0.0
C3446 C 0.78478 0.67923 0.87559 0.0
C3447 C 0.76761 0.59978 0.87669 0.0
C3448 C 0.72506 0.64643 0.90383 0.0
C3449 C 0.71052 0.64812 0.8869 0.0
C3450 C 0.74657 0.64421 0.90046 0.0
C3451 C 0.75376 0.64324 0.87959 0.0
C3452 C 0.73931 0.64524 0.86237 0.0
C3453 C 0.71784 0.64785 0.86623 0.0
C3454 C 0.76151 0.64247 0.9193 0.0
C3455 C 0.7464 0.64397 0.8399 0.0
H3456 H 0.8245 0.66629 0.8748 0.0
H3457 H 0.81012 0.59934 0.87667 0.0
H3458 H 0.77213 0.68148 0.86349 0.0
H3459 H 0.77818 0.68274 0.89118 0.0
H3460 H 0.7982 0.6908 0.87283 0.0
H3461 H 0.77527 0.58468 0.87407 0.0
H3462 H 0.76015 0.59919 0.89231 0.0
H3463 H 0.75478 0.60119 0.86459 0.0
H3464 H 0.71964 0.64659 0.91986 0.0
H3465 H 0.7067 0.64898 0.85304 0.0
H3466 H 0.7749 0.65443 0.91836 0.0
H3467 H 0.76828 0.62672 0.91933 0.0
H3468 H 0.75356 0.64471 0.93449 0.0
H3469 H 0.7596 0.6558 0.83732 0.0
H3470 H 0.73338 0.64664 0.82829 0.0
H3471 H 0.75246 0.62819 0.83683 0.0
C3472 C 0.6364 0.92208 0.79702 0.0
C3473 C 0.63817 0.9058 0.81158 0.0
C3474 C 0.63618 0.91785 0.77528 0.0
C3475 C 0.63671 0.89671 0.76803 0.0
C3476 C 0.63924 0.88031 0.78272 0.0
C3477 C 0.64038 0.88514 0.80435 0.0
C3478 C 0.63429 0.93589 0.76009 0.0
C3479 C 0.6391 0.8575 0.77572 0.0
C3480 C 0.60796 0.88798 0.71522 0.0
C3481 C 0.62485 0.88707 0.70158 0.0
C3482 C 0.61164 0.88977 0.73709 0.0
C3483 C 0.63272 0.89172 0.74529 0.0
C3484 C 0.64982 0.89033 0.73153 0.0
C3485 C 0.64563 0.88761 0.70981 0.0
C3486 C 0.59297 0.89033 0.75134 0.0
C3487 C 0.6725 0.89313 0.73952 0.0
H3488 H 0.63459 0.93804 0.80268 0.0
H3489 H 0.64142 0.87249 0.81564 0.0
H3490 H 0.64573 0.93466 0.74726 0.0
H3491 H 0.61818 0.9352 0.75268 0.0
H3492 H 0.63713 0.95148 0.76807 0.0
H3493 H 0.64327 0.8469 0.78887 0.0
H3494 H 0.62308 0.85243 0.76941 0.0
H3495 H 0.65032 0.85552 0.76283 0.0
H3496 H 0.59192 0.88771 0.70872 0.0
H3497 H 0.65868 0.88731 0.69913 0.0
H3498 H 0.59226 0.90631 0.75841 0.0
H3499 H 0.59479 0.87908 0.76447 0.0
H3500 H 0.57772 0.88631 0.74275 0.0
H3501 H 0.67568 0.90959 0.74529 0.0
H3502 H 0.68392 0.8899 0.72707 0.0
H3503 H 0.67537 0.88258 0.75302 0.0
C3504 C 0.59468 0.12183 0.21273 0.0
C3505 C 0.61069 0.12242 0.19787 0.0
C3506 C 0.59955 0.12175 0.23437 0.0
C3507 C 0.62098 0.12219 0.24139 0.0
C3508 C 0.63727 0.12386 0.22655 0.0
C3509 C 0.63193 0.12398 0.20489 0.0
C3510 C 0.58167 0.12004 0.24966 0.0
C3511 C 0.6603 0.12444 0.23349 0.0
C3512 C 0.62873 0.13047 0.30053 0.0
C3513 C 0.62787 0.10954 0.30745 0.0
C3514 C 0.62774 0.13501 0.27887 0.0
C3515 C 0.62592 0.1182 0.26397 0.0
C3516 C 0.62628 0.09711 0.27092 0.0
C3517 C 0.62721 0.09305 0.29254 0.0
C3518 C 0.62748 0.1577 0.272 0.0
C3519 C 0.62448 0.07871 0.25557 0.0
H3520 H 0.57822 0.12098 0.20746 0.0
H3521 H 0.64437 0.12456 0.19348 0.0
H3522 H 0.58146 0.10441 0.25738 0.0
H3523 H 0.58405 0.13224 0.26224 0.0
H3524 H 0.56599 0.12182 0.24177 0.0
H3525 H 0.67094 0.12873 0.2204 0.0
H3526 H 0.66346 0.13589 0.24667 0.0
H3527 H 0.66425 0.10868 0.23937 0.0
H3528 H 0.62934 0.14327 0.312 0.0
H3529 H 0.62693 0.07683 0.29777 0.0
H3530 H 0.61133 0.16104 0.2662 0.0
H3531 H 0.63834 0.16065 0.2588 0.0
H3532 H 0.63209 0.16887 0.28512 0.0
H3533 H 0.60851 0.0778 0.24782 0.0
H3534 H 0.62697 0.06343 0.26343 0.0
H3535 H 0.6362 0.08094 0.24301 0.0
C3536 C 0.40443 0.12627 0.715 0.0
C3537 C 0.39861 0.10805 0.70312 0.0
C3538 C 0.40305 0.12634 0.73707 0.0
C3539 C 0.3952 0.10791 0.74735 0.0
C3540 C 0.38869 0.08972 0.73532 0.0
C3541 C 0.39069 0.08995 0.71339 0.0
C3542 C 0.41048 0.14592 0.74944 0.0
C3543 C 0.37982 0.06989 0.74561 0.0
C3544 C 0.41094 0.09845 0.80445 0.0
C3545 C 0.39308 0.10456 0.8151 0.0
C3546 C 0.41195 0.09984 0.78247 0.0
C3547 C 0.39457 0.10724 0.77073 0.0
C3548 C 0.3764 0.11323 0.78128 0.0
C3549 C 0.37589 0.1119 0.80335 0.0
C3550 C 0.43165 0.09336 0.77179 0.0
C3551 C 0.35745 0.12092 0.76924 0.0
H3552 H 0.41059 0.14028 0.70709 0.0
H3553 H 0.38581 0.07598 0.70426 0.0
H3554 H 0.39762 0.1512 0.7594 0.0
H3555 H 0.42391 0.14231 0.76018 0.0
H3556 H 0.41566 0.1591 0.73904 0.0
H3557 H 0.37437 0.05753 0.73388 0.0
H3558 H 0.39206 0.06339 0.75617 0.0
H3559 H 0.3663 0.07358 0.75551 0.0
H3560 H 0.42429 0.09266 0.81329 0.0
H3561 H 0.36199 0.11662 0.81137 0.0
H3562 H 0.43822 0.10653 0.76215 0.0
H3563 H 0.42766 0.07985 0.76092 0.0
H3564 H 0.4441 0.08872 0.78327 0.0
H3565 H 0.36221 0.13499 0.75988 0.0
H3566 H 0.34459 0.1251 0.7798 0.0
H3567 H 0.35111 0.10854 0.75794 0.0
C3568 C 0.39196 0.86123 0.20845 0.0
C3569 C 0.39658 0.87845 0.19532 0.0
C3570 C 0.38613 0.86432 0.22941 0.0
C3571 C 0.38509 0.88511 0.23741 0.0
C3572 C 0.38896 0.90252 0.224 0.0
C3573 C 0.39456 0.89898 0.20311 0.0
C3574 C 0.38184 0.84538 0.24318 0.0
C3575 C 0.3881 0.92494 0.23197 0.0
C3576 C 0.35824 0.89792 0.28837 0.0
C3577 C 0.3757 0.90109 0.30238 0.0
C3578 C 0.36091 0.89176 0.26734 0.0
C3579 C 0.38153 0.88887 0.26016 0.0
C3580 C 0.3991 0.89118 0.27445 0.0
C3581 C 0.39596 0.89717 0.29539 0.0
C3582 C 0.34178 0.88917 0.2526 0.0
C3583 C 0.42136 0.8883 0.2674 0.0
H3584 H 0.39333 0.84532 0.20252 0.0
H3585 H 0.39805 0.91239 0.19308 0.0
H3586 H 0.3945 0.84479 0.25559 0.0
H3587 H 0.36665 0.84665 0.25128 0.0
H3588 H 0.3812 0.83034 0.23404 0.0
H3589 H 0.39042 0.93668 0.21923 0.0
H3590 H 0.37265 0.92725 0.23922 0.0
H3591 H 0.40059 0.92816 0.24439 0.0
H3592 H 0.34251 0.90077 0.29367 0.0
H3593 H 0.40956 0.89949 0.3061 0.0
H3594 H 0.3418 0.87395 0.24386 0.0
H3595 H 0.34233 0.90193 0.24076 0.0
H3596 H 0.32672 0.88975 0.2611 0.0
H3597 H 0.4223 0.87274 0.25951 0.0
H3598 H 0.43313 0.88943 0.28074 0.0
H3599 H 0.42579 0.90057 0.25572 0.0
C3600 C 0.10056 0.06921 0.5481 0.0
C3601 C 0.11728 0.08314 0.55517 0.0
C3602 C 0.09788 0.06396 0.5266 0.0
C3603 C 0.11174 0.0736 0.51198 0.0
C3604 C 0.13025 0.08519 0.51943 0.0
C3605 C 0.13304 0.08941 0.54106 0.0
C3606 C 0.07901 0.04997 0.51938 0.0
C3607 C 0.14557 0.09571 0.50445 0.0
C3608 C 0.10891 0.07184 0.4522 0.0
C3609 C 0.09759 0.08984 0.448 0.0
C3610 C 0.11205 0.06492 0.473 0.0
C3611 C 0.10428 0.0767 0.48987 0.0
C3612 C 0.09143 0.09382 0.48552 0.0
C3613 C 0.0879 0.09986 0.46465 0.0
C3614 C 0.12465 0.04574 0.47673 0.0
C3615 C 0.08241 0.10672 0.50294 0.0
H3616 H 0.08867 0.06367 0.55903 0.0
H3617 H 0.14636 0.09971 0.54645 0.0
H3618 H 0.06547 0.05982 0.51567 0.0
H3619 H 0.08247 0.04093 0.50494 0.0
H3620 H 0.07412 0.03876 0.53192 0.0
H3621 H 0.16011 0.10249 0.51275 0.0
H3622 H 0.15023 0.08429 0.49236 0.0
H3623 H 0.13778 0.10865 0.49613 0.0
H3624 H 0.11604 0.06361 0.4394 0.0
H3625 H 0.07849 0.11331 0.46156 0.0
H3626 H 0.12097 0.03812 0.49198 0.0
H3627 H 0.14178 0.05044 0.47681 0.0
H3628 H 0.1215 0.03396 0.4638 0.0
H3629 H 0.07014 0.09703 0.51111 0.0
H3630 H 0.07511 0.12111 0.49694 0.0
H3631 H 0.09494 0.11163 0.51482 0.0
C3632 C 0.43335 0.61593 0.96138 0.0
C3633 C 0.43531 0.6307 0.94515 0.0
C3634 C 0.4384 0.62187 0.98225 0.0
C3635 C 0.44685 0.64264 0.98659 0.0
C3636 C 0.45423 0.6552 0.96967 0.0
C3637 C 0.44778 0.64937 0.94891 0.0
C3638 C 0.43133 0.60716 0.99961 0.0
C3639 C 0.46647 0.67596 0.97347 0.0
C3640 C 0.41085 0.66654 0.02478 0.0
C3641 C 0.41876 0.6591 0.04401 0.0
C3642 C 0.42138 0.66355 0.00604 0.0
C3643 C 0.44053 0.65289 0.00647 0.0
C3644 C 0.45011 0.64806 0.02618 0.0
C3645 C 0.43896 0.65098 0.04478 0.0
C3646 C 0.41107 0.67066 0.98569 0.0
C3647 C 0.47161 0.639 0.02787 0.0
H3648 H 0.42486 0.60086 0.95824 0.0
H3649 H 0.45047 0.66048 0.93625 0.0
H3650 H 0.44466 0.60495 0.01092 0.0
H3651 H 0.41836 0.61404 0.00835 0.0
H3652 H 0.42553 0.5914 0.99345 0.0
H3653 H 0.48057 0.67679 0.96343 0.0
H3654 H 0.45664 0.68915 0.9687 0.0
H3655 H 0.47177 0.67818 0.99022 0.0
H3656 H 0.39574 0.67378 0.02411 0.0
H3657 H 0.44571 0.64601 0.05971 0.0
H3658 H 0.40886 0.65736 0.97426 0.0
H3659 H 0.42135 0.68312 0.97846 0.0
H3660 H 0.39545 0.67729 0.98815 0.0
H3661 H 0.47009 0.62286 0.03445 0.0
H3662 H 0.48186 0.64867 0.03916 0.0
H3663 H 0.47959 0.63847 0.01253 0.0
C3664 C 0.89161 0.92775 0.46612 0.0
C3665 C 0.91072 0.92934 0.45559 0.0
C3666 C 0.89146 0.92904 0.48817 0.0
C3667 C 0.91081 0.93296 0.49967 0.0
C3668 C 0.92949 0.9384 0.48874 0.0
C3669 C 0.92939 0.93584 0.46672 0.0
C3670 C 0.87108 0.92344 0.49914 0.0
C3671 C 0.95019 0.94365 0.50042 0.0
C3672 C 0.9034 0.92966 0.55889 0.0
C3673 C 0.90687 0.90832 0.56218 0.0
C3674 C 0.90615 0.93862 0.53883 0.0
C3675 C 0.91234 0.9258 0.52189 0.0
C3676 C 0.91762 0.90472 0.52585 0.0
C3677 C 0.91469 0.89634 0.54585 0.0
C3678 C 0.90172 0.96152 0.53583 0.0
C3679 C 0.92545 0.89003 0.50926 0.0
H3680 H 0.8772 0.92273 0.45742 0.0
H3681 H 0.94419 0.93705 0.4585 0.0
H3682 H 0.87255 0.90855 0.50798 0.0
H3683 H 0.86783 0.93596 0.51069 0.0
H3684 H 0.85733 0.92136 0.48789 0.0
H3685 H 0.96156 0.9525 0.4903 0.0
H3686 H 0.94769 0.95313 0.51485 0.0
H3687 H 0.95732 0.9288 0.50531 0.0
H3688 H 0.89778 0.93911 0.57167 0.0
H3689 H 0.9182 0.88002 0.54852 0.0
H3690 H 0.88453 0.9629 0.53268 0.0
H3691 H 0.91044 0.96857 0.52245 0.0
H3692 H 0.90607 0.97084 0.55037 0.0
H3693 H 0.91346 0.87682 0.50644 0.0
H3694 H 0.94004 0.88288 0.51527 0.0
H3695 H 0.92903 0.89756 0.49406 0.0
C3696 C 0.57844 0.37043 0.95322 0.0
C3697 C 0.59631 0.3843 0.95621 0.0
C3698 C 0.56653 0.36375 0.97057 0.0
C3699 C 0.57327 0.37059 0.99111 0.0
C3700 C 0.58878 0.38749 0.99345 0.0
C3701 C 0.60008 0.39416 0.9759 0.0
C3702 C 0.54806 0.34802 0.96697 0.0
C3703 C 0.59515 0.39705 0.01476 0.0
C3704 C 0.5652 0.3562 0.04736 0.0
C3705 C 0.58156 0.34228 0.04977 0.0
C3706 C 0.55898 0.36295 0.02715 0.0
C3707 C 0.57019 0.35638 0.00944 0.0
C3708 C 0.58398 0.33961 0.01168 0.0
C3709 C 0.58896 0.33237 0.03182 0.0
C3710 C 0.542 0.37861 0.02523 0.0
C3711 C 0.59599 0.33132 0.99335 0.0
H3712 H 0.57475 0.36348 0.93779 0.0
H3713 H 0.61314 0.40585 0.97799 0.0
H3714 H 0.55377 0.3328 0.96135 0.0
H3715 H 0.53881 0.34532 0.9814 0.0
H3716 H 0.5374 0.35376 0.95431 0.0
H3717 H 0.60838 0.40922 0.01385 0.0
H3718 H 0.58147 0.40462 0.0215 0.0
H3719 H 0.6 0.38468 0.02585 0.0
H3720 H 0.55853 0.36322 0.06114 0.0
H3721 H 0.60071 0.32065 0.03357 0.0
H3722 H 0.53754 0.38187 0.00857 0.0
H3723 H 0.54739 0.39358 0.03335 0.0
H3724 H 0.52769 0.37242 0.03338 0.0
H3725 H 0.58476 0.32524 0.98075 0.0
H3726 H 0.60619 0.31834 0.99799 0.0
H3727 H 0.60624 0.34419 0.98667 0.0
C3728 C 0.15807 0.92632 0.56074 0.0
C3729 C 0.13972 0.91454 0.56622 0.0
C3730 C 0.1608 0.9327 0.53977 0.0
C3731 C 0.14493 0.92686 0.5243 0.0
C3732 C 0.12506 0.91824 0.53067 0.0
C3733 C 0.12272 0.91212 0.55163 0.0
C3734 C 0.18175 0.94298 0.53371 0.0
C3735 C 0.10743 0.91233 0.51484 0.0
C3736 C 0.14884 0.93208 0.4648 0.0
C3737 C 0.15572 0.91211 0.45947 0.0
C3738 C 0.14657 0.93796 0.48604 0.0
C3739 C 0.15092 0.92335 0.50214 0.0
C3740 C 0.15893 0.90364 0.49681 0.0
C3741 C 0.16141 0.89842 0.47566 0.0
C3742 C 0.13856 0.95933 0.49098 0.0
C3743 C 0.16376 0.88741 0.51337 0.0
H3744 H 0.17114 0.92851 0.5721 0.0
H3745 H 0.10831 0.90344 0.55607 0.0
H3746 H 0.19215 0.93068 0.52816 0.0
H3747 H 0.17962 0.95429 0.52067 0.0
H3748 H 0.18986 0.95138 0.54736 0.0
H3749 H 0.09206 0.90926 0.52257 0.0
H3750 H 0.1057 0.92501 0.50311 0.0
H3751 H 0.11127 0.8978 0.5062 0.0
H3752 H 0.14465 0.9429 0.45243 0.0
H3753 H 0.16711 0.8831 0.47184 0.0
H3754 H 0.14426 0.96527 0.50675 0.0
H3755 H 0.12101 0.95816 0.49079 0.0
H3756 H 0.14352 0.97104 0.47891 0.0
H3757 H 0.1753 0.89426 0.52536 0.0
H3758 H 0.17037 0.87308 0.50654 0.0
H3759 H 0.1491 0.88247 0.52161 0.0
C3760 C 0.59837 0.6411 0.97259 0.0
C3761 C 0.59413 0.63141 0.95289 0.0
C3762 C 0.58744 0.63437 0.99036 0.0
C3763 C 0.57189 0.61746 0.9883 0.0
C3764 C 0.56487 0.61054 0.96786 0.0
C3765 C 0.57633 0.61738 0.95027 0.0
C3766 C 0.59382 0.64437 0.01149 0.0
C3767 C 0.54635 0.59481 0.9645 0.0
C3768 C 0.58596 0.57867 0.02941 0.0
C3769 C 0.5791 0.58913 0.04728 0.0
C3770 C 0.5816 0.58624 0.00922 0.0
C3771 C 0.56854 0.60359 0.00685 0.0
C3772 C 0.55752 0.61066 0.02448 0.0
C3773 C 0.5634 0.60377 0.04473 0.0
C3774 C 0.59347 0.57751 0.99102 0.0
C3775 C 0.54122 0.62702 0.02247 0.0
H3776 H 0.61134 0.65292 0.97442 0.0
H3777 H 0.57227 0.61054 0.93487 0.0
H3778 H 0.58059 0.65337 0.01726 0.0
H3779 H 0.59725 0.63225 0.02339 0.0
H3780 H 0.60793 0.65548 0.01055 0.0
H3781 H 0.53527 0.60083 0.95238 0.0
H3782 H 0.55191 0.57977 0.95825 0.0
H3783 H 0.53758 0.59171 0.97916 0.0
H3784 H 0.59704 0.56634 0.03124 0.0
H3785 H 0.55703 0.6112 0.05845 0.0
H3786 H 0.60379 0.59016 0.98405 0.0
H3787 H 0.58213 0.57129 0.97857 0.0
H3788 H 0.60358 0.56452 0.99587 0.0
H3789 H 0.54719 0.64182 0.03057 0.0
H3790 H 0.52668 0.62143 0.03061 0.0
H3791 H 0.53695 0.63041 0.0058 0.0
C3792 C 0.87869 0.07236 0.46356 0.0
C3793 C 0.85945 0.06877 0.45245 0.0
C3794 C 0.88034 0.06793 0.4851 0.0
C3795 C 0.86235 0.05922 0.49543 0.0
C3796 C 0.84428 0.05194 0.48326 0.0
C3797 C 0.84272 0.05743 0.46188 0.0
C3798 C 0.90007 0.07586 0.49727 0.0
C3799 C 0.82555 0.04085 0.49335 0.0
C3800 C 0.87317 0.0619 0.55457 0.0
C3801 C 0.86647 0.08212 0.55874 0.0
C3802 C 0.86982 0.05277 0.53432 0.0
C3803 C 0.86017 0.06453 0.51811 0.0
C3804 C 0.85156 0.08406 0.52314 0.0
C3805 C 0.8546 0.09239 0.54347 0.0
C3806 C 0.87797 0.0313 0.53012 0.0
C3807 C 0.8409 0.09732 0.50668 0.0
H3808 H 0.89157 0.08118 0.45614 0.0
H3809 H 0.82784 0.05456 0.45317 0.0
H3810 H 0.89661 0.09007 0.50663 0.0
H3811 H 0.90532 0.06372 0.50841 0.0
H3812 H 0.91329 0.08017 0.48671 0.0
H3813 H 0.81669 0.03015 0.48184 0.0
H3814 H 0.83061 0.03158 0.50719 0.0
H3815 H 0.81458 0.05265 0.4988 0.0
H3816 H 0.88217 0.05387 0.56654 0.0
H3817 H 0.84903 0.10786 0.54702 0.0
H3818 H 0.89528 0.03289 0.52779 0.0
H3819 H 0.87024 0.02358 0.51592 0.0
H3820 H 0.87537 0.02092 0.54391 0.0
H3821 H 0.85164 0.10062 0.49348 0.0
H3822 H 0.83624 0.11265 0.51316 0.0
H3823 H 0.82649 0.08869 0.50009 0.0
C3824 C 0.41747 0.36742 0.96251 0.0
C3825 C 0.42324 0.37858 0.94444 0.0
C3826 C 0.42711 0.37251 0.98211 0.0
C3827 C 0.44298 0.38915 0.9835 0.0
C3828 C 0.45179 0.39721 0.96472 0.0
C3829 C 0.44151 0.39211 0.94522 0.0
C3830 C 0.41851 0.36168 1.00146 0.0
C3831 C 0.4707 0.4127 0.96522 0.0
C3832 C 0.424 0.42509 0.02451 0.0
C3833 C 0.42943 0.41389 0.04262 0.0
C3834 C 0.43069 0.41894 1.00472 0.0
C3835 C 0.44438 0.40204 1.00324 0.0
C3836 C 0.45365 0.39409 0.02193 0.0
C3837 C 0.44562 0.39969 0.04155 0.0
C3838 C 0.42053 0.42854 0.98545 0.0
C3839 C 0.47041 0.37815 0.02133 0.0
H3840 H 0.40404 0.35603 0.96167 0.0
H3841 H 0.44667 0.40012 0.93109 0.0
H3842 H 0.43123 0.35314 0.00943 0.0
H3843 H 0.41298 0.37339 0.01283 0.0
H3844 H 0.40515 0.35008 0.99758 0.0
H3845 H 0.48227 0.40779 0.95356 0.0
H3846 H 0.46576 0.42851 0.96044 0.0
H3847 H 0.47867 0.41389 0.98104 0.0
H3848 H 0.41241 0.43701 0.0254 0.0
H3849 H 0.45079 0.39166 0.05564 0.0
H3850 H 0.41076 0.41628 0.97647 0.0
H3851 H 0.43287 0.43509 0.97496 0.0
H3852 H 0.41017 0.44145 0.98955 0.0
H3853 H 0.46394 0.36276 0.02721 0.0
H3854 H 0.48382 0.38333 0.03216 0.0
H3855 H 0.47653 0.37598 1.00528 0.0
C3856 C 0.54932 0.1159 0.05975 0.0
C3857 C 0.54778 0.10289 0.07744 0.0
C3858 C 0.53086 0.12271 0.04962 0.0
C3859 C 0.51091 0.11698 0.05809 0.0
C3860 C 0.5095 0.10078 0.07335 0.0
C3861 C 0.52806 0.09385 0.08273 0.0
C3862 C 0.53298 0.13776 0.03147 0.0
C3863 C 0.48861 0.09307 0.08224 0.0
C3864 C 0.47573 0.15604 0.07964 0.0
C3865 C 0.45618 0.14686 0.0728 0.0
C3866 C 0.49453 0.14866 0.07215 0.0
C3867 C 0.49352 0.13186 0.05717 0.0
C3868 C 0.47383 0.12578 0.04711 0.0
C3869 C 0.45513 0.13306 0.0554 0.0
C3870 C 0.51513 0.15665 0.08274 0.0
C3871 C 0.47217 0.10997 0.02922 0.0
H3872 H 0.56468 0.12244 0.05519 0.0
H3873 H 0.52707 0.08309 0.09588 0.0
H3874 H 0.51759 0.13989 0.02314 0.0
H3875 H 0.53968 0.15332 0.03729 0.0
H3876 H 0.54426 0.13181 0.02002 0.0
H3877 H 0.49035 0.07968 0.0932 0.0
H3878 H 0.48163 0.10612 0.09091 0.0
H3879 H 0.47736 0.0878 0.06934 0.0
H3880 H 0.47635 0.16738 0.09255 0.0
H3881 H 0.4399 0.12635 0.04967 0.0
H3882 H 0.52668 0.1617 0.07075 0.0
H3883 H 0.52195 0.14382 0.09204 0.0
H3884 H 0.51309 0.17024 0.0935 0.0
H3885 H 0.4878 0.1072 0.02252 0.0
H3886 H 0.46153 0.11563 0.01651 0.0
H3887 H 0.46491 0.09478 0.03477 0.0
C3888 C 0.35753 0.97455 0.59949 0.0
C3889 C 0.36292 0.95513 0.59126 0.0
C3890 C 0.36476 0.99347 0.59047 0.0
C3891 C 0.37716 0.99297 0.57221 0.0
C3892 C 0.37986 0.97338 0.56199 0.0
C3893 C 0.37293 0.95451 0.57184 0.0
C3894 C 0.36112 0.01377 0.60211 0.0
C3895 C 0.39142 0.97202 0.54162 0.0
C3896 C 0.38912 0.05028 0.56529 0.0
C3897 C 0.40624 0.05271 0.5798 0.0
C3898 C 0.38153 0.02997 0.55866 0.0
C3899 C 0.39077 0.01214 0.56755 0.0
C3900 C 0.41047 0.01487 0.57866 0.0
C3901 C 0.41817 0.03526 0.58433 0.0
C3902 C 0.36191 0.02759 0.54466 0.0
C3903 C 0.42148 0.99639 0.58788 0.0
H3904 H 0.34915 0.97499 0.61416 0.0
H3905 H 0.37675 0.93946 0.56514 0.0
H3906 H 0.37647 0.0214 0.6077 0.0
H3907 H 0.35331 0.02492 0.59149 0.0
H3908 H 0.35106 0.01116 0.61601 0.0
H3909 H 0.38307 0.9602 0.53088 0.0
H3910 H 0.39282 0.9874 0.53343 0.0
H3911 H 0.4075 0.9665 0.54487 0.0
H3912 H 0.38018 0.06379 0.56111 0.0
H3913 H 0.43192 0.03725 0.59491 0.0
H3914 H 0.34767 0.02783 0.55444 0.0
H3915 H 0.36128 0.01244 0.53572 0.0
H3916 H 0.3613 0.04085 0.53339 0.0
H3917 H 0.41212 0.98959 0.60098 0.0
H3918 H 0.43763 1.00106 0.59418 0.0
H3919 H 0.42274 0.98388 0.57577 0.0
C3920 C 0.4725 0.90685 0.08196 0.0
C3921 C 0.4531 0.89761 0.07471 0.0
C3922 C 0.49146 0.89981 0.07454 0.0
C3923 C 0.49078 0.88323 0.05935 0.0
C3924 C 0.47127 0.87704 0.04902 0.0
C3925 C 0.45239 0.88405 0.05714 0.0
C3926 C 0.51189 0.90786 0.08543 0.0
C3927 C 0.47 0.86127 0.03108 0.0
C3928 C 0.54673 0.86767 0.06132 0.0
C3929 C 0.54547 0.85448 0.07887 0.0
C3930 C 0.52812 0.87449 0.0515 0.0
C3931 C 0.50833 0.86859 0.06021 0.0
C3932 C 0.50717 0.85239 0.07549 0.0
C3933 C 0.52588 0.84536 0.08442 0.0
C3934 C 0.52995 0.88977 0.03351 0.0
C3935 C 0.48647 0.84483 0.08491 0.0
H3936 H 0.47285 0.91802 0.095 0.0
H3937 H 0.43729 0.8773 0.05112 0.0
H3938 H 0.50967 0.92168 0.09585 0.0
H3939 H 0.51838 0.89515 0.09516 0.0
H3940 H 0.52378 0.91259 0.07365 0.0
H3941 H 0.45841 0.86608 0.01881 0.0
H3942 H 0.48558 0.85971 0.02378 0.0
H3943 H 0.46422 0.84562 0.03689 0.0
H3944 H 0.562 0.87432 0.05663 0.0
H3945 H 0.52513 0.83447 0.09748 0.0
H3946 H 0.53607 0.90545 0.03956 0.0
H3947 H 0.51454 0.8915 0.02509 0.0
H3948 H 0.54154 0.88434 0.02211 0.0
H3949 H 0.47982 0.85792 0.09385 0.0
H3950 H 0.48837 0.83143 0.09583 0.0
H3951 H 0.47482 0.8397 0.0723 0.0
C3952 C 0.65212 0.04965 0.57878 0.0
C3953 C 0.66294 0.04855 0.59829 0.0
C3954 C 0.64393 0.03108 0.56852 0.0
C3955 C 0.64631 0.01139 0.57843 0.0
C3956 C 0.66004 0.01028 0.59642 0.0
C3957 C 0.6683 0.02893 0.60599 0.0
C3958 C 0.63102 0.0329 0.54836 0.0
C3959 C 0.66362 0.98973 0.60751 0.0
C3960 C 0.60314 0.97363 0.59323 0.0
C3961 C 0.61213 0.95486 0.5875 0.0
C3962 C 0.61214 0.99309 0.58701 0.0
C3963 C 0.63047 0.99351 0.57466 0.0
C3964 C 0.63663 0.97458 0.56523 0.0
C3965 C 0.62755 0.95519 0.57208 0.0
C3966 C 0.60426 0.01289 0.59676 0.0
C3967 C 0.65466 0.9746 0.55024 0.0
H3968 H 0.64837 0.06488 0.5725 0.0
H3969 H 0.67728 0.02818 0.62077 0.0
H3970 H 0.62873 0.01759 0.53977 0.0
H3971 H 0.61529 0.03867 0.55198 0.0
H3972 H 0.63885 0.04467 0.53787 0.0
H3973 H 0.67593 0.99162 0.62031 0.0
H3974 H 0.64868 0.98363 0.61457 0.0
H3975 H 0.66859 0.97769 0.59621 0.0
H3976 H 0.59075 0.9732 0.60471 0.0
H3977 H 0.63419 0.94059 0.56723 0.0
H3978 H 0.60273 0.02526 0.58469 0.0
H3979 H 0.61576 0.01908 0.60916 0.0
H3980 H 0.58866 0.00998 0.60411 0.0
H3981 H 0.65651 0.98983 0.54184 0.0
H3982 H 0.65209 0.96157 0.53849 0.0
H3983 H 0.66961 0.97204 0.55915 0.0
C3984 C 0.47967 0.84527 0.92082 0.0
C3985 C 0.46106 0.85491 0.92579 0.0
C3986 C 0.49947 0.85537 0.92544 0.0
C3987 C 0.50048 0.87553 0.93526 0.0
C3988 C 0.48198 0.88324 0.94389 0.0
C3989 C 0.46225 0.87286 0.93887 0.0
C3990 C 0.51884 0.84612 0.91655 0.0
C3991 C 0.48263 0.90395 0.95574 0.0
C3992 C 0.5561 0.90082 0.9331 0.0
C3993 C 0.55515 0.90989 0.91301 0.0
C3994 C 0.53782 0.89123 0.94188 0.0
C3995 C 0.51845 0.8905 0.93007 0.0
C3996 C 0.51717 0.90145 0.91073 0.0
C3997 C 0.53548 0.91111 0.90258 0.0
C3998 C 0.53976 0.88066 0.96299 0.0
C3999 C 0.49689 0.90139 0.89754 0.0
H4000 H 0.4787 0.83112 0.91104 0.0
H4001 H 0.44785 0.88021 0.94301 0.0
H4002 H 0.52326 0.85462 0.90196 0.0
H4003 H 0.53244 0.84796 0.92794 0.0
H4004 H 0.51601 0.82911 0.91255 0.0
H4005 H 0.46914 0.90459 0.9665 0.0
H4006 H 0.49769 0.90656 0.96502 0.0
H4007 H 0.48151 0.91703 0.94433 0.0
H4008 H 0.57125 0.90006 0.94139 0.0
H4009 H 0.53458 0.91859 0.8873 0.0
H4010 H 0.54518 0.8645 0.96067 0.0
H4011 H 0.52445 0.87946 0.97112 0.0
H4012 H 0.55172 0.88941 0.97336 0.0
H4013 H 0.49228 0.8851 0.89203 0.0
H4014 H 0.49842 0.91161 0.88347 0.0
H4015 H 0.48386 0.90697 0.90707 0.0
C4016 C 0.65717 0.97496 0.42175 0.0
C4017 C 0.64717 0.95592 0.42778 0.0
C4018 C 0.65112 0.99409 0.43003 0.0
C4019 C 0.63478 0.99395 0.4449 0.0
C4020 C 0.62797 0.97459 0.45414 0.0
C4021 C 0.63394 0.95555 0.44511 0.0
C4022 C 0.65996 0.01427 0.42038 0.0
C4023 C 0.61269 0.97374 0.47194 0.0
C4024 C 0.62202 0.0505 0.44418 0.0
C4025 C 0.60843 0.0496 0.42634 0.0
C4026 C 0.628 0.03173 0.45379 0.0
C4027 C 0.62084 0.0121 0.44461 0.0
C4028 C 0.6041 0.01154 0.42921 0.0
C4029 C 0.59802 0.03043 0.42038 0.0
C4030 C 0.64371 0.03308 0.4721 0.0
C4031 C 0.5949 0.99109 0.41957 0.0
H4032 H 0.66809 0.975 0.40889 0.0
H4033 H 0.62664 0.94068 0.45023 0.0
H4034 H 0.64726 0.02186 0.41132 0.0
H4035 H 0.66605 0.02544 0.43291 0.0
H4036 H 0.67308 0.01151 0.4096 0.0
H4037 H 0.61829 0.9629 0.48429 0.0
H4038 H 0.61089 0.9895 0.47918 0.0
H4039 H 0.59699 0.96716 0.46608 0.0
H4040 H 0.62963 0.06548 0.44925 0.0
H4041 H 0.58681 0.03 0.40712 0.0
H4042 H 0.65937 0.03915 0.46666 0.0
H4043 H 0.64541 0.01758 0.47976 0.0
H4044 H 0.6386 0.04453 0.48401 0.0
H4045 H 0.60722 0.98334 0.41067 0.0
H4046 H 0.58126 0.99354 0.40863 0.0
H4047 H 0.58944 0.98019 0.43207 0.0
C4048 C 0.48207 0.08577 0.92519 0.0
C4049 C 0.46298 0.09506 0.92912 0.0
C4050 C 0.50141 0.09757 0.92748 0.0
C4051 C 0.50159 0.11876 0.93471 0.0
C4052 C 0.48279 0.12669 0.94243 0.0
C4053 C 0.46355 0.11487 0.93915 0.0
C4054 C 0.52109 0.08835 0.91924 0.0
C4055 C 0.48247 0.14882 0.95117 0.0
C4056 C 0.55612 0.14714 0.93304 0.0
C4057 C 0.55543 0.15531 0.91255 0.0
C4058 C 0.53812 0.13654 0.94141 0.0
C4059 C 0.51934 0.1337 0.92874 0.0
C4060 C 0.51825 0.14342 0.90872 0.0
C4061 C 0.53617 0.15425 0.90108 0.0
C4062 C 0.5397 0.12742 0.96323 0.0
C4063 C 0.499 0.1407 0.89412 0.0
H4064 H 0.48177 0.07038 0.91761 0.0
H4065 H 0.44881 0.12201 0.9425 0.0
H4066 H 0.52504 0.09575 0.90395 0.0
H4067 H 0.53473 0.09171 0.93033 0.0
H4068 H 0.51896 0.07101 0.91672 0.0
H4069 H 0.46858 0.15066 0.96121 0.0
H4070 H 0.49717 0.15309 0.96057 0.0
H4071 H 0.48148 0.16007 0.93792 0.0
H4072 H 0.57091 0.14807 0.94212 0.0
H4073 H 0.53534 0.16085 0.88539 0.0
H4074 H 0.54459 0.11094 0.9621 0.0
H4075 H 0.52429 0.12721 0.97116 0.0
H4076 H 0.55177 0.1365 0.97321 0.0
H4077 H 0.49962 0.12541 0.88566 0.0
H4078 H 0.49873 0.15331 0.88209 0.0
H4079 H 0.48403 0.14067 0.90271 0.0
C4080 C 0.41042 0.97839 0.41699 0.0
C4081 C 0.40015 0.95985 0.424 0.0
C4082 C 0.40469 0.99802 0.42428 0.0
C4083 C 0.38842 0.99888 0.43916 0.0
C4084 C 0.38139 0.98016 0.44942 0.0
C4085 C 0.38704 0.96058 0.44138 0.0
C4086 C 0.41361 0.01753 0.41347 0.0
C4087 C 0.36604 0.98052 0.46712 0.0
C4088 C 0.37558 0.0554 0.43635 0.0
C4089 C 0.36206 0.05394 0.41848 0.0
C4090 C 0.38168 0.03695 0.44647 0.0
C4091 C 0.37465 0.01706 0.4378 0.0
C4092 C 0.35816 0.01596 0.42212 0.0
C4093 C 0.35197 0.03455 0.41279 0.0
C4094 C 0.39738 0.03889 0.46476 0.0
C4095 C 0.34938 0.99521 0.41275 0.0
H4096 H 0.42129 0.9776 0.40415 0.0
H4097 H 0.37955 0.94612 0.44726 0.0
H4098 H 0.42712 0.01413 0.40342 0.0
H4099 H 0.40111 0.02424 0.40337 0.0
H4100 H 0.41915 0.02969 0.42529 0.0
H4101 H 0.37049 0.96916 0.47948 0.0
H4102 H 0.36558 0.99647 0.47437 0.0
H4103 H 0.34994 0.97542 0.46107 0.0
H4104 H 0.38298 0.07057 0.44111 0.0
H4105 H 0.34086 0.03373 0.39944 0.0
H4106 H 0.41321 0.04402 0.45901 0.0
H4107 H 0.39858 0.02379 0.47331 0.0
H4108 H 0.39271 0.05122 0.47597 0.0
H4109 H 0.36194 0.98747 0.4042 0.0
H4110 H 0.33588 0.99725 0.40152 0.0
H4111 H 0.34388 0.98447 0.42537 0.0
C4112 C 0.0784 0.47372 0.09349 0.0
C4113 C 0.07359 0.45599 0.10581 0.0
C4114 C 0.0729 0.49372 0.09996 0.0
C4115 C 0.06082 0.49571 0.11832 0.0
C4116 C 0.05149 0.47726 0.12742 0.0
C4117 C 0.05853 0.45746 0.1215 0.0
C4118 C 0.08277 0.51266 0.08886 0.0
C4119 C 0.03585 0.47833 0.14481 0.0
C4120 C 0.0922 0.53566 0.15047 0.0
C4121 C 0.08699 0.55394 0.13978 0.0
C4122 C 0.08094 0.51644 0.14638 0.0
C4123 C 0.06424 0.51555 0.13095 0.0
C4124 C 0.05637 0.53465 0.12345 0.0
C4125 C 0.06808 0.55378 0.12769 0.0
C4126 C 0.08825 0.49694 0.1573 0.0
C4127 C 0.03661 0.5349 0.10965 0.0
H4128 H 0.08888 0.47245 0.08037 0.0
H4129 H 0.05364 0.4436 0.13038 0.0
H4130 H 0.07028 0.52292 0.08313 0.0
H4131 H 0.09353 0.52203 0.09994 0.0
H4132 H 0.09208 0.50815 0.0751 0.0
H4133 H 0.02136 0.46846 0.14035 0.0
H4134 H 0.04251 0.47153 0.15946 0.0
H4135 H 0.03128 0.49466 0.14802 0.0
H4136 H 0.10607 0.53605 0.16094 0.0
H4137 H 0.06329 0.56813 0.12024 0.0
H4138 H 0.09196 0.48465 0.14566 0.0
H4139 H 0.07544 0.4903 0.16721 0.0
H4140 H 0.10247 0.50033 0.1677 0.0
H4141 H 0.04059 0.54102 0.09383 0.0
H4142 H 0.02561 0.54594 0.11655 0.0
H4143 H 0.02831 0.51908 0.10794 0.0
C4144 C 0.05789 0.55089 0.87231 0.0
C4145 C 0.07133 0.55444 0.89009 0.0
C4146 C 0.05017 0.53023 0.86706 0.0
C4147 C 0.05715 0.51323 0.87926 0.0
C4148 C 0.06652 0.51751 0.89948 0.0
C4149 C 0.07322 0.53827 0.90481 0.0
C4150 C 0.03718 0.5264 0.84701 0.0
C4151 C 0.07296 0.50003 0.9139 0.0
C4152 C 0.06167 0.4549 0.86934 0.0
C4153 C 0.08192 0.45517 0.86078 0.0
C4154 C 0.05168 0.47382 0.87301 0.0
C4155 C 0.06251 0.49333 0.86857 0.0
C4156 C 0.08182 0.4934 0.8577 0.0
C4157 C 0.09112 0.47436 0.85383 0.0
C4158 C 0.03011 0.47271 0.88256 0.0
C4159 C 0.09373 0.51365 0.85159 0.0
H4160 H 0.05545 0.56354 0.86128 0.0
H4161 H 0.08267 0.54128 0.91916 0.0
H4162 H 0.04766 0.52704 0.83329 0.0
H4163 H 0.02841 0.51076 0.84705 0.0
H4164 H 0.02573 0.53892 0.84491 0.0
H4165 H 0.07859 0.50609 0.92968 0.0
H4166 H 0.05942 0.48852 0.91605 0.0
H4167 H 0.08592 0.49153 0.90678 0.0
H4168 H 0.05398 0.44007 0.87404 0.0
H4169 H 0.10634 0.47472 0.84639 0.0
H4170 H 0.02251 0.48805 0.88209 0.0
H4171 H 0.03147 0.46747 0.89916 0.0
H4172 H 0.01962 0.46071 0.874 0.0
H4173 H 0.08391 0.52261 0.84049 0.0
H4174 H 0.10883 0.51079 0.84383 0.0
H4175 H 0.09735 0.52374 0.86573 0.0
C4176 C 0.05604 0.63215 0.39726 0.0
C4177 C 0.07294 0.61882 0.39844 0.0
C4178 C 0.03568 0.62444 0.39116 0.0
C4179 C 0.03198 0.60274 0.38615 0.0
C4180 C 0.04857 0.58884 0.38885 0.0
C4181 C 0.06896 0.59707 0.39491 0.0
C4182 C 0.01841 0.63986 0.38887 0.0
C4183 C 0.04518 0.56552 0.38428 0.0
C4184 C 0.97313 0.59409 0.38043 0.0
C4185 C 0.97017 0.59965 0.35922 0.0
C4186 C 0.99352 0.59186 0.38908 0.0
C4187 C 0.01121 0.59563 0.37625 0.0
C4188 C 0.00805 0.59808 0.35422 0.0
C4189 C 0.98747 0.5999 0.34591 0.0
C4190 C 0.99615 0.58819 0.41245 0.0
C4191 C 0.02646 0.60191 0.33989 0.0
H4192 H 0.05885 0.6489 0.40029 0.0
H4193 H 0.08191 0.58661 0.39589 0.0
H4194 H 0.01234 0.63973 0.37231 0.0
H4195 H 1.00498 0.6351 0.39895 0.0
H4196 H 0.02399 0.65627 0.39321 0.0
H4197 H 0.05718 0.55637 0.39277 0.0
H4198 H 0.02916 0.5595 0.38874 0.0
H4199 H 0.04669 0.56264 0.36713 0.0
H4200 H 0.95973 0.59341 0.39074 0.0
H4201 H 0.98532 0.60392 0.32944 0.0
H4202 H 0.99889 0.6036 0.42074 0.0
H4203 H 0.00998 0.57865 0.41594 0.0
H4204 H 0.98176 0.58009 0.41888 0.0
H4205 H 0.03319 0.6183 0.34231 0.0
H4206 H 0.02159 0.59985 0.323 0.0
H4207 H 0.03916 0.59106 0.34362 0.0
C4208 C 0.95682 0.57581 0.89314 0.0
C4209 C 0.93733 0.57405 0.90311 0.0
C4210 C 0.9684 0.55776 0.88991 0.0
C4211 C 0.95978 0.5378 0.89626 0.0
C4212 C 0.94183 0.53684 0.90926 0.0
C4213 C 0.931 0.55507 0.91262 0.0
C4214 C 0.98867 0.55998 0.87803 0.0
C4215 C 0.93207 0.51621 0.9172 0.0
C4216 C 0.94534 0.49244 0.86191 0.0
C4217 C 0.95021 0.47659 0.87612 0.0
C4218 C 0.95222 0.51339 0.86605 0.0
C4219 C 0.9645 0.51819 0.88469 0.0
C4220 C 0.97383 0.50161 0.89572 0.0
C4221 C 0.96605 0.48071 0.89171 0.0
C4222 C 0.94286 0.53042 0.8528 0.0
C4223 C 0.98952 0.50623 0.91368 0.0
H4224 H 0.96209 0.59069 0.88626 0.0
H4225 H 0.91628 0.554 0.921 0.0
H4226 H 0.99753 0.54536 0.87831 0.0
H4227 H 0.98512 0.56419 0.86141 0.0
H4228 H 0.99898 0.57312 0.88497 0.0
H4229 H 0.91848 0.51854 0.9275 0.0
H4230 H 0.92631 0.50608 0.90369 0.0
H4231 H 0.94395 0.50758 0.92631 0.0
H4232 H 0.93351 0.48897 0.84946 0.0
H4233 H 0.97034 0.46827 0.90236 0.0
H4234 H 0.95526 0.54263 0.8489 0.0
H4235 H 0.93054 0.53814 0.86175 0.0
H4236 H 0.93544 0.52401 0.83783 0.0
H4237 H 1.00017 0.52013 0.91004 0.0
H4238 H 0.99916 0.49245 0.91691 0.0
H4239 H 0.98105 0.50994 0.9282 0.0
C4240 C 0.04403 0.42213 0.36763 0.0
C4241 C 0.05654 0.41568 0.38465 0.0
C4242 C 0.02237 0.42485 0.37012 0.0
C4243 C 0.01338 0.42107 0.39006 0.0
C4244 C 0.02679 0.41795 0.40785 0.0
C4245 C 0.04825 0.41502 0.40488 0.0
C4246 C 0.00868 0.42857 0.35082 0.0
C4247 C 0.01804 0.41449 0.4295 0.0
C4248 C 0.95354 0.41945 0.39646 0.0
C4249 C 0.94832 0.39788 0.39294 0.0
C4250 C 0.97468 0.42752 0.39559 0.0
C4251 C 0.99077 0.41367 0.39101 0.0
C4252 C 0.9855 0.39192 0.38765 0.0
C4253 C 0.96447 0.38437 0.3886 0.0
C4254 C 0.97969 0.45079 0.39926 0.0
C4255 C 1.00212 0.37641 0.38307 0.0
H4256 H 0.05054 0.42275 0.352 0.0
H4257 H 0.05813 0.41038 0.41811 0.0
H4258 H 1.00146 0.41322 0.34492 0.0
H4259 H 0.99566 0.43883 0.35461 0.0
H4260 H 0.01805 0.43589 0.33798 0.0
H4261 H 0.03047 0.41745 0.44206 0.0
H4262 H 1.00484 0.42486 0.43233 0.0
H4263 H 0.01179 0.39788 0.43074 0.0
H4264 H 0.94114 0.43005 0.39968 0.0
H4265 H 0.96075 0.36771 0.38582 0.0
H4266 H 0.98305 0.45844 0.38398 0.0
H4267 H 0.99399 0.4535 0.40965 0.0
H4268 H 0.9663 0.4586 0.40642 0.0
H4269 H 0.01115 0.38159 0.36914 0.0
H4270 H 0.9952 0.36018 0.37997 0.0
H4271 H 0.01348 0.37582 0.39667 0.0
C4272 C 0.90564 0.47872 0.16877 0.0
C4273 C 0.91325 0.46072 0.15929 0.0
C4274 C 0.91581 0.49857 0.16638 0.0
C4275 C 0.93461 0.50052 0.15472 0.0
C4276 C 0.94403 0.48204 0.14774 0.0
C4277 C 0.93304 0.46229 0.1498 0.0
C4278 C 0.90518 0.51756 0.17485 0.0
C4279 C 0.96507 0.48293 0.13714 0.0
C4280 C 0.92601 0.54801 0.12346 0.0
C4281 C 0.92956 0.56313 0.1396 0.0
C4282 C 0.93113 0.52712 0.12663 0.0
C4283 C 0.94076 0.52162 0.14609 0.0
C4284 C 0.94915 0.53787 0.15985 0.0
C4285 C 0.94295 0.55861 0.15678 0.0
C4286 C 0.9229 0.51057 0.11074 0.0
C4287 C 0.9622 0.53298 0.17923 0.0
H4288 H 0.89084 0.47759 0.17696 0.0
H4289 H 0.93952 0.44835 0.1431 0.0
H4290 H 0.9157 0.52598 0.18676 0.0
H4291 H 0.90196 0.52872 0.16195 0.0
H4292 H 0.88999 0.5132 0.18246 0.0
H4293 H 0.9754 0.47124 0.14443 0.0
H4294 H 0.96269 0.47834 0.12028 0.0
H4295 H 0.97339 0.49876 0.13827 0.0
H4296 H 0.91658 0.55181 0.1096 0.0
H4297 H 0.94662 0.57047 0.16893 0.0
H4298 H 0.90969 0.50083 0.1175 0.0
H4299 H 0.93558 0.49996 0.10684 0.0
H4300 H 0.91701 0.51764 0.09588 0.0
H4301 H 0.95211 0.53265 0.19324 0.0
H4302 H 0.97491 0.54554 0.18206 0.0
H4303 H 0.96946 0.51752 0.17773 0.0
C4304 C 0.95638 0.44246 0.61763 0.0
C4305 C 0.95094 0.43281 0.63664 0.0
C4306 C 0.97767 0.44795 0.61354 0.0
C4307 C 0.99355 0.44225 0.62825 0.0
C4308 C 0.98767 0.43612 0.64882 0.0
C4309 C 0.96623 0.43177 0.65286 0.0
C4310 C 0.98326 0.45644 0.5922 0.0
C4311 C 1.00403 0.43121 0.66558 0.0
C4312 C 0.03375 0.40612 0.60803 0.0
C4313 C 0.05269 0.41605 0.61558 0.0
C4314 C 0.01447 0.41527 0.61055 0.0
C4315 C 0.01409 0.43542 0.62043 0.0
C4316 C 0.03351 0.44674 0.62566 0.0
C4317 C 0.05269 0.43679 0.62338 0.0
C4318 C 0.99481 0.40243 0.60313 0.0
C4319 C 0.03433 0.46891 0.63447 0.0
H4320 H 0.94444 0.44352 0.60514 0.0
H4321 H 0.96182 0.42457 0.66767 0.0
H4322 H 0.9987 0.46566 0.59294 0.0
H4323 H 0.98442 0.44311 0.58094 0.0
H4324 H 0.9708 0.4666 0.58603 0.0
H4325 H 0.99676 0.42602 0.68054 0.0
H4326 H 0.01405 0.41861 0.65997 0.0
H4327 H 0.01453 0.44546 0.66896 0.0
H4328 H 0.03385 0.39056 0.60094 0.0
H4329 H 0.06745 0.44482 0.62875 0.0
H4330 H 0.98037 0.40639 0.61127 0.0
H4331 H 0.99688 0.38531 0.60529 0.0
H4332 H 0.99218 0.40507 0.58601 0.0
H4333 H 0.01891 0.47635 0.63299 0.0
H4334 H 0.04639 0.47885 0.62618 0.0
H4335 H 0.03945 0.46875 0.65135 0.0
C4336 C 0.02867 0.58117 0.66873 0.0
C4337 C 0.04714 0.57568 0.65887 0.0
C4338 C 0.00887 0.57744 0.65867 0.0
C4339 C 0.00765 0.56752 0.63855 0.0
C4340 C 0.02564 0.55792 0.63091 0.0
C4341 C 0.04546 0.56242 0.64104 0.0
C4342 C 0.99003 0.58742 0.6679 0.0
C4343 C 0.02452 0.54548 0.61054 0.0
C4344 C 0.95288 0.57465 0.61536 0.0
C4345 C 0.9562 0.59472 0.60656 0.0
C4346 C 0.97005 0.56387 0.62368 0.0
C4347 C 0.99068 0.57373 0.62353 0.0
C4348 C 0.99417 0.5928 0.61234 0.0
C4349 C 0.9769 0.60285 0.60377 0.0
C4350 C 0.96569 0.5429 0.6341 0.0
C4351 C 0.0158 0.60406 0.61151 0.0
H4352 H 0.02995 0.59087 0.68292 0.0
H4353 H 0.05967 0.55764 0.6336 0.0
H4354 H 0.98636 0.60167 0.65875 0.0
H4355 H 0.97589 0.57633 0.66695 0.0
H4356 H 0.99301 0.59224 0.68465 0.0
H4357 H 0.03671 0.53354 0.61053 0.0
H4358 H 0.00864 0.53742 0.60788 0.0
H4359 H 0.02757 0.55629 0.59719 0.0
H4360 H 0.93688 0.56808 0.61722 0.0
H4361 H 0.97951 0.6181 0.59641 0.0
H4362 H 0.95946 0.54552 0.65003 0.0
H4363 H 0.9801 0.53378 0.6357 0.0
H4364 H 0.95335 0.53334 0.62492 0.0
H4365 H 0.02127 0.60917 0.62763 0.0
H4366 H 0.01577 0.61823 0.60136 0.0
H4367 H 0.02745 0.59335 0.60533 0.0
C4368 C 0.94142 0.0985 0.41027 0.0
C4369 C 0.92628 0.09488 0.39378 0.0
C4370 C 0.96327 0.09989 0.40658 0.0
C4371 C 0.97055 0.0977 0.3858 0.0
C4372 C 0.95543 0.09365 0.36906 0.0
C4373 C 0.93353 0.09225 0.37323 0.0
C4374 C 0.9786 0.10421 0.425 0.0
C4375 C 0.96237 0.09132 0.34665 0.0
C4376 C 0.02487 0.12534 0.37796 0.0
C4377 C 0.03868 0.10881 0.38023 0.0
C4378 C 1.00274 0.12173 0.37859 0.0
C4379 C 0.99386 0.10105 0.38172 0.0
C4380 C 0.0076 0.08412 0.383 0.0
C4381 C 0.02978 0.08817 0.38216 0.0
C4382 C 0.98892 0.14033 0.37699 0.0
C4383 C 0.99897 0.06183 0.38639 0.0
H4384 H 0.93619 0.10053 0.42625 0.0
H4385 H 0.92209 0.08949 0.36033 0.0
H4386 H 0.99049 0.092 0.42563 0.0
H4387 H 0.98731 0.11967 0.42295 0.0
H4388 H 0.97054 0.10446 0.44032 0.0
H4389 H 0.94891 0.08685 0.3356 0.0
H4390 H 0.97005 0.10643 0.3414 0.0
H4391 H 0.97429 0.0792 0.3457 0.0
H4392 H 0.0314 0.14137 0.37634 0.0
H4393 H 0.04016 0.07525 0.38405 0.0
H4394 H 0.98168 0.1431 0.39243 0.0
H4395 H 0.97582 0.13703 0.36523 0.0
H4396 H 0.99795 0.15501 0.37245 0.0
H4397 H 0.99264 0.06049 0.40249 0.0
H4398 H 0.01127 0.05015 0.38466 0.0
H4399 H 0.98568 0.05774 0.37505 0.0
C4400 C 0.38652 0.44306 0.88543 0.0
C4401 C 0.37504 0.42854 0.87203 0.0
C4402 C 0.38531 0.46502 0.88303 0.0
C4403 C 0.37201 0.47301 0.86698 0.0
C4404 C 0.36105 0.45847 0.85279 0.0
C4405 C 0.3628 0.43647 0.85538 0.0
C4406 C 0.39754 0.47966 0.89843 0.0
C4407 C 0.34651 0.4661 0.83558 0.0
C4408 C 0.34996 0.52628 0.88058 0.0
C4409 C 0.36286 0.54073 0.86932 0.0
C4410 C 0.35227 0.50435 0.87926 0.0
C4411 C 0.3681 0.4963 0.86655 0.0
C4412 C 0.38091 0.51072 0.85475 0.0
C4413 C 0.37808 0.53269 0.85617 0.0
C4414 C 0.33806 0.48979 0.89202 0.0
C4415 C 0.39814 0.50301 0.8412 0.0
H4416 H 0.39608 0.4372 0.89833 0.0
H4417 H 0.35365 0.42549 0.84507 0.0
H4418 H 0.40646 0.49229 0.88987 0.0
H4419 H 0.38637 0.48743 0.90876 0.0
H4420 H 0.40884 0.47122 0.90855 0.0
H4421 H 0.34099 0.45321 0.82445 0.0
H4422 H 0.33248 0.47269 0.84275 0.0
H4423 H 0.35459 0.47894 0.82659 0.0
H4424 H 0.33808 0.53214 0.89075 0.0
H4425 H 0.38825 0.5436 0.8475 0.0
H4426 H 0.34762 0.48195 0.90428 0.0
H4427 H 0.33037 0.4772 0.88174 0.0
H4428 H 0.32555 0.49829 0.89993 0.0
H4429 H 0.41046 0.49606 0.85134 0.0
H4430 H 0.40574 0.51588 0.83183 0.0
H4431 H 0.39164 0.49038 0.83026 0.0
C4432 C 0.06932 0.90646 0.41563 0.0
C4433 C 0.08269 0.91066 0.39867 0.0
C4434 C 0.04714 0.90649 0.41321 0.0
C4435 C 0.03774 0.91045 0.39319 0.0
C4436 C 0.05112 0.9152 0.37605 0.0
C4437 C 0.0734 0.91542 0.37902 0.0
C4438 C 0.03373 0.90166 0.43208 0.0
C4439 C 0.0419 0.9192 0.35437 0.0
C4440 C 0.98194 0.88469 0.38683 0.0
C4441 C 0.96904 0.9015 0.39091 0.0
C4442 C 1.00412 0.88769 0.38619 0.0
C4443 C 0.01399 0.90799 0.39016 0.0
C4444 C 1.00101 0.92524 0.39338 0.0
C4445 C 0.97872 0.92184 0.39353 0.0
C4446 C 0.01707 0.86883 0.3823 0.0
C4447 C 0.0107 0.94709 0.39798 0.0
H4448 H 0.07622 0.90289 0.43093 0.0
H4449 H 0.08351 0.91855 0.36578 0.0
H4450 H 0.02217 0.91399 0.43411 0.0
H4451 H 0.02457 0.88641 0.42952 0.0
H4452 H 0.0434 0.90066 0.44689 0.0
H4453 H 0.05424 0.92428 0.3431 0.0
H4454 H 0.03345 0.90457 0.34817 0.0
H4455 H 0.03013 0.93148 0.35515 0.0
H4456 H 0.97467 0.86892 0.3847 0.0
H4457 H 0.96898 0.9349 0.39693 0.0
H4458 H 0.02579 0.86488 0.39703 0.0
H4459 H 0.02898 0.8725 0.37018 0.0
H4460 H 0.00708 0.85472 0.37704 0.0
H4461 H 0.01858 0.94739 0.41384 0.0
H4462 H 0.99867 0.9592 0.39764 0.0
H4463 H 0.02298 0.95139 0.38641 0.0
C4464 C 0.63907 0.4797 0.87418 0.0
C4465 C 0.65741 0.47226 0.8839 0.0
C4466 C 0.63555 0.50154 0.87357 0.0
C4467 C 0.65086 0.51646 0.88256 0.0
C4468 C 0.66969 0.509 0.89174 0.0
C4469 C 0.67262 0.48715 0.89246 0.0
C4470 C 0.6151 0.50861 0.86395 0.0
C4471 C 0.68666 0.52412 0.90127 0.0
C4472 C 0.65145 0.57565 0.8697 0.0
C4473 C 0.64358 0.58425 0.88819 0.0
C4474 C 0.65335 0.55363 0.86732 0.0
C4475 C 0.64687 0.5397 0.88362 0.0
C4476 C 0.63794 0.54828 0.90184 0.0
C4477 C 0.63661 0.57029 0.90397 0.0
C4478 C 0.66324 0.54538 0.84776 0.0
C4479 C 0.63043 0.53424 0.91953 0.0
H4480 H 0.62712 0.46842 0.86765 0.0
H4481 H 0.6869 0.48171 0.89994 0.0
H4482 H 0.6058 0.51599 0.87631 0.0
H4483 H 0.61836 0.52074 0.85181 0.0
H4484 H 0.6053 0.49531 0.8566 0.0
H4485 H 0.70102 0.51602 0.9064 0.0
H4486 H 0.69127 0.53642 0.88969 0.0
H4487 H 0.68045 0.53226 0.91515 0.0
H4488 H 0.65706 0.5862 0.85747 0.0
H4489 H 0.63037 0.57664 0.9183 0.0
H4490 H 0.65307 0.53232 0.84055 0.0
H4491 H 0.67869 0.5389 0.85208 0.0
H4492 H 0.6659 0.55787 0.83581 0.0
H4493 H 0.61965 0.52117 0.91321 0.0
H4494 H 0.62204 0.54303 0.93166 0.0
H4495 H 0.64417 0.52703 0.92728 0.0
C4496 C 0.96196 0.88506 0.62939 0.0
C4497 C 0.94738 0.87726 0.6441 0.0
C4498 C 0.9839 0.88372 0.63273 0.0
C4499 C 0.99175 0.87403 0.65119 0.0
C4500 C 0.97719 0.8671 0.66667 0.0
C4501 C 0.9552 0.86892 0.66301 0.0
C4502 C 0.99862 0.89161 0.61585 0.0
C4503 C 0.98473 0.85657 0.68651 0.0
C4504 C 0.04341 0.84709 0.64298 0.0
C4505 C 0.05879 0.86182 0.6515 0.0
C4506 C 0.02165 0.85049 0.64366 0.0
C4507 C 0.01479 0.86923 0.65294 0.0
C4508 C 0.03017 0.88392 0.66215 0.0
C4509 C 0.05194 0.88003 0.6614 0.0
C4510 C 0.00599 0.83427 0.63371 0.0
C4511 C 0.02369 0.90417 0.67206 0.0
H4512 H 0.95611 0.89162 0.61475 0.0
H4513 H 0.9441 0.86263 0.67438 0.0
H4514 H 0.01184 0.90176 0.62292 0.0
H4515 H 0.00564 0.87802 0.60809 0.0
H4516 H 0.99035 0.90075 0.60358 0.0
H4517 H 0.972 0.85454 0.69814 0.0
H4518 H 0.99026 0.84078 0.68247 0.0
H4519 H 0.99834 0.86586 0.69397 0.0
H4520 H 0.04838 0.83292 0.63535 0.0
H4521 H 0.06361 0.89158 0.66795 0.0
H4522 H 0.99809 0.8411 0.61972 0.0
H4523 H 0.99349 0.82973 0.64498 0.0
H4524 H 0.01365 0.81981 0.62862 0.0
H4525 H 0.01712 0.91439 0.65967 0.0
H4526 H 0.03719 0.91301 0.68027 0.0
H4527 H 0.01104 0.90086 0.68351 0.0
C4528 C 0.60062 0.42764 0.12601 0.0
C4529 C 0.60115 0.4183 0.10587 0.0
C4530 C 0.60172 0.44987 0.12868 0.0
C4531 C 0.60315 0.46319 0.11083 0.0
C4532 C 0.60303 0.45377 0.09048 0.0
C4533 C 0.60215 0.43163 0.08828 0.0
C4534 C 0.60204 0.4591 0.15069 0.0
C4535 C 0.60433 0.46711 0.0709 0.0
C4536 C 0.59196 0.52216 0.11247 0.0
C4537 C 0.61246 0.53181 0.112 0.0
C4538 C 0.58863 0.49992 0.11293 0.0
C4539 C 0.60619 0.48689 0.1132 0.0
C4540 C 0.62689 0.49664 0.11388 0.0
C4541 C 0.62974 0.5188 0.11313 0.0
C4542 C 0.56628 0.49036 0.112 0.0
C4543 C 0.64615 0.48362 0.11445 0.0
H4544 H 0.59994 0.4176 0.13973 0.0
H4545 H 0.60246 0.42473 0.0726 0.0
H4546 H 0.61754 0.46764 0.15409 0.0
H4547 H 0.58969 0.47074 0.15199 0.0
H4548 H 0.59945 0.44681 0.16285 0.0
H4549 H 0.60268 0.45747 0.05619 0.0
H4550 H 0.59176 0.47863 0.07077 0.0
H4551 H 0.61977 0.47627 0.07089 0.0
H4552 H 0.57846 0.53193 0.11143 0.0
H4553 H 0.64568 0.52595 0.11289 0.0
H4554 H 0.56413 0.47826 0.12439 0.0
H4555 H 0.56315 0.48232 0.09654 0.0
H4556 H 0.5544 0.50241 0.11401 0.0
H4557 H 0.64492 0.47175 0.12714 0.0
H4558 H 0.66105 0.49348 0.11705 0.0
H4559 H 0.6471 0.47492 0.09929 0.0
C4560 C 0.97513 0.12173 0.65291 0.0
C4561 C 0.96698 0.13634 0.63874 0.0
C4562 C 0.99714 0.11906 0.65494 0.0
C4563 C 0.01147 0.13129 0.64254 0.0
C4564 C 1.00332 0.14636 0.62858 0.0
C4565 C 0.98134 0.14866 0.62683 0.0
C4566 C 1.00503 0.10275 0.66995 0.0
C4567 C 0.01782 0.15979 0.61499 0.0
C4568 C 0.07141 0.1376 0.65415 0.0
C4569 C 0.07925 0.1244 0.63866 0.0
C4570 C 0.04938 0.13933 0.65632 0.0
C4571 C 0.03477 0.12747 0.64284 0.0
C4572 C 0.04269 0.11321 0.62808 0.0
C4573 C 0.06467 0.11193 0.62616 0.0
C4574 C 0.04177 0.15476 0.67225 0.0
C4575 C 0.02794 0.10007 0.61346 0.0
H4576 H 0.96428 0.1121 0.6622 0.0
H4577 H 0.97539 0.16004 0.61583 0.0
H4578 H 0.01219 0.09004 0.66092 0.0
H4579 H 0.01759 0.10995 0.68071 0.0
H4580 H 0.99217 0.09556 0.67954 0.0
H4581 H 0.00918 0.17157 0.60578 0.0
H4582 H 0.0303 0.16825 0.62495 0.0
H4583 H 0.02587 0.14958 0.60382 0.0
H4584 H 0.08246 0.14745 0.66378 0.0
H4585 H 0.07046 0.10151 0.61429 0.0
H4586 H 0.02892 0.14724 0.6816 0.0
H4587 H 0.03513 0.1683 0.66389 0.0
H4588 H 0.05473 0.16088 0.6832 0.0
H4589 H 0.01544 0.09161 0.62253 0.0
H4590 H 0.0364 0.08832 0.60431 0.0
H4591 H 0.01995 0.11052 0.60219 0.0
C4592 C 0.4016 0.57547 0.11931 0.0
C4593 C 0.40084 0.5846 0.09921 0.0
C4594 C 0.4011 0.55327 0.12176 0.0
C4595 C 0.40009 0.53976 0.10372 0.0
C4596 C 0.40006 0.549 0.08345 0.0
C4597 C 0.40029 0.57111 0.08147 0.0
C4598 C 0.40088 0.54425 0.14367 0.0
C4599 C 0.39924 0.53547 0.0637 0.0
C4600 C 0.41251 0.48109 0.10541 0.0
C4601 C 0.39221 0.47106 0.10336 0.0
C4602 C 0.41538 0.50338 0.10643 0.0
C4603 C 0.39754 0.51605 0.10571 0.0
C4604 C 0.37703 0.50588 0.10487 0.0
C4605 C 0.37464 0.4837 0.10355 0.0
C4606 C 0.43756 0.51338 0.10709 0.0
C4607 C 0.35748 0.51848 0.10438 0.0
H4608 H 0.40192 0.58564 0.13314 0.0
H4609 H 0.39982 0.57784 0.06583 0.0
H4610 H 0.38551 0.53549 0.14608 0.0
H4611 H 0.41344 0.53284 0.14564 0.0
H4612 H 0.40324 0.55669 0.15607 0.0
H4613 H 0.40087 0.54501 0.04918 0.0
H4614 H 0.41203 0.5242 0.06435 0.0
H4615 H 0.38396 0.52604 0.06257 0.0
H4616 H 0.42622 0.4716 0.1051 0.0
H4617 H 0.35885 0.47621 0.10209 0.0
H4618 H 0.43933 0.52566 0.11965 0.0
H4619 H 0.4407 0.52127 0.09187 0.0
H4620 H 0.44966 0.50161 0.10987 0.0
H4621 H 0.3584 0.53046 0.11726 0.0
H4622 H 0.34276 0.50833 0.10598 0.0
H4623 H 0.3564 0.52704 0.08924 0.0
C4624 C 0.39308 0.07511 0.0862 0.0
C4625 C 0.39676 0.08399 0.10642 0.0
C4626 C 0.39213 0.05297 0.08294 0.0
C4627 C 0.39452 0.03924 0.10033 0.0
C4628 C 0.39717 0.04817 0.12086 0.0
C4629 C 0.39845 0.07027 0.12361 0.0
C4630 C 0.3896 0.04432 0.06074 0.0
C4631 C 0.39946 0.03438 0.13998 0.0
C4632 C 0.38005 0.97957 0.0961 0.0
C4633 C 0.40006 0.97114 0.09497 0.0
C4634 C 0.37788 1.00165 0.09736 0.0
C4635 C 0.39609 0.01576 0.09712 0.0
C4636 C 0.41622 0.00728 0.09521 0.0
C4637 C 0.41794 0.98525 0.09436 0.0
C4638 C 0.35615 0.00983 0.09972 0.0
C4639 C 0.4361 0.02151 0.09459 0.0
H4640 H 0.39193 0.08547 0.07277 0.0
H4641 H 0.40117 0.07686 0.13934 0.0
H4642 H 0.40441 0.03707 0.05626 0.0
H4643 H 0.37673 0.03174 0.05974 0.0
H4644 H 0.38607 0.05675 0.04914 0.0
H4645 H 0.39933 0.04355 0.15497 0.0
H4646 H 0.38646 0.02192 0.14004 0.0
H4647 H 0.41457 0.02637 0.13943 0.0
H4648 H 0.36612 0.9689 0.09674 0.0
H4649 H 0.4335 0.97904 0.09338 0.0
H4650 H 0.35316 0.02191 0.08762 0.0
H4651 H 0.35521 0.01759 0.11538 0.0
H4652 H 0.34346 0.99706 0.09828 0.0
H4653 H 0.43443 0.03364 0.08224 0.0
H4654 H 0.45033 0.01263 0.09138 0.0
H4655 H 0.43872 0.02994 0.10991 0.0
C4656 C 0.45929 0.88566 0.65777 0.0
C4657 C 0.44477 0.87567 0.64322 0.0
C4658 C 0.48131 0.88482 0.65555 0.0
C4659 C 0.48934 0.87385 0.63821 0.0
C4660 C 0.47479 0.8633 0.62369 0.0
C4661 C 0.45274 0.86426 0.62639 0.0
C4662 C 0.49602 0.89627 0.67152 0.0
C4663 C 0.48253 0.85156 0.60489 0.0
C4664 C 0.54412 0.89544 0.62277 0.0
C4665 C 0.55769 0.88144 0.63259 0.0
C4666 C 0.52197 0.89245 0.6235 0.0
C4667 C 0.51281 0.8751 0.63455 0.0
C4668 C 0.52637 0.86029 0.64365 0.0
C4669 C 0.54862 0.86356 0.64246 0.0
C4670 C 0.50838 0.90856 0.61331 0.0
C4671 C 0.51742 0.84162 0.65567 0.0
H4672 H 0.45347 0.89445 0.67091 0.0
H4673 H 0.44176 0.85651 0.615 0.0
H4674 H 0.50777 0.88545 0.67788 0.0
H4675 H 0.50494 0.90946 0.6638 0.0
H4676 H 0.4874 0.9028 0.6849 0.0
H4677 H 0.46944 0.84274 0.59603 0.0
H4678 H 0.49046 0.8629 0.59406 0.0
H4679 H 0.49442 0.84031 0.61 0.0
H4680 H 0.55089 0.90924 0.61495 0.0
H4681 H 0.55889 0.85273 0.65024 0.0
H4682 H 0.50058 0.91755 0.62569 0.0
H4683 H 0.4957 0.90063 0.60319 0.0
H4684 H 0.51772 0.91993 0.60356 0.0
H4685 H 0.51067 0.84721 0.67053 0.0
H4686 H 0.52964 0.83028 0.65965 0.0
H4687 H 0.50438 0.83324 0.64638 0.0
C4688 C 0.58226 0.01698 0.10274 0.0
C4689 C 0.60001 0.03122 0.10501 0.0
C4690 C 0.58409 0.99498 0.10387 0.0
C4691 C 0.60416 0.98669 0.10777 0.0
C4692 C 0.62225 1.00094 0.10972 0.0
C4693 C 0.61999 0.02296 0.10814 0.0
C4694 C 0.56435 0.9806 0.10138 0.0
C4695 C 0.6439 0.99296 0.11422 0.0
C4696 C 0.60119 0.93263 0.13413 0.0
C4697 C 0.60365 0.91863 0.11718 0.0
C4698 C 0.60239 0.95468 0.13145 0.0
C4699 C 0.60576 0.96328 0.11118 0.0
C4700 C 0.60893 0.94928 0.09409 0.0
C4701 C 0.60802 0.92719 0.09731 0.0
C4702 C 0.59927 0.96878 0.15027 0.0
C4703 C 0.61225 0.95757 0.07216 0.0
H4704 H 0.56673 0.02305 0.1002 0.0
H4705 H 0.63381 0.03374 0.11007 0.0
H4706 H 0.56658 0.96829 0.08924 0.0
H4707 H 0.56122 0.97241 0.11645 0.0
H4708 H 0.55021 0.98932 0.09681 0.0
H4709 H 0.65655 0.0058 0.114 0.0
H4710 H 0.64426 0.98546 0.12995 0.0
H4711 H 0.64745 0.98072 0.10246 0.0
H4712 H 0.59794 0.92631 0.1496 0.0
H4713 H 0.60978 0.91662 0.08405 0.0
H4714 H 0.58415 0.97667 0.14823 0.0
H4715 H 0.61216 0.98133 0.15156 0.0
H4716 H 0.59886 0.95988 0.16527 0.0
H4717 H 0.5976 0.96466 0.06625 0.0
H4718 H 0.61628 0.94496 0.06094 0.0
H4719 H 0.62508 0.97019 0.07237 0.0
C4720 C 0.57073 0.13407 0.62985 0.0
C4721 C 0.58044 0.12684 0.64841 0.0
C4722 C 0.54842 0.13382 0.62739 0.0
C4723 C 0.5354 0.12647 0.64398 0.0
C4724 C 0.54521 0.11991 0.663 0.0
C4725 C 0.56744 0.12001 0.6649 0.0
C4726 C 0.53876 0.14071 0.60674 0.0
C4727 C 0.53218 0.11218 0.68125 0.0
C4728 C 0.47625 0.13732 0.64555 0.0
C4729 C 0.46658 0.11773 0.63924 0.0
C4730 C 0.49856 0.14063 0.6467 0.0
C4731 C 0.51164 0.12409 0.6411 0.0
C4732 C 0.5019 0.10457 0.63399 0.0
C4733 C 0.47967 0.10161 0.6333 0.0
C4734 C 0.50814 0.1616 0.65462 0.0
C4735 C 0.515 0.08653 0.62757 0.0
H4736 H 0.58054 0.13927 0.61695 0.0
H4737 H 0.57467 0.11451 0.67939 0.0
H4738 H 0.53015 0.12702 0.5988 0.0
H4739 H 0.52706 0.15273 0.60954 0.0
H4740 H 0.55087 0.14736 0.59594 0.0
H4741 H 0.54211 0.10922 0.69553 0.0
H4742 H 0.52054 0.1239 0.6853 0.0
H4743 H 0.52313 0.09729 0.67671 0.0
H4744 H 0.46642 0.1499 0.65024 0.0
H4745 H 0.47253 0.08644 0.62819 0.0
H4746 H 0.51976 0.16814 0.64331 0.0
H4747 H 0.51683 0.15938 0.66981 0.0
H4748 H 0.49598 0.17329 0.65707 0.0
H4749 H 0.52657 0.09186 0.61566 0.0
H4750 H 0.50512 0.07293 0.62092 0.0
H4751 H 0.52415 0.08105 0.64146 0.0
C4752 C 0.39737 0.02867 0.89218 0.0
C4753 C 0.38264 0.04138 0.88217 0.0
C4754 C 0.39536 0.00645 0.89096 0.0
C4755 C 0.37829 0.99629 0.8792 0.0
C4756 C 0.36293 0.00896 0.86962 0.0
C4757 C 0.36519 0.03126 0.87132 0.0
C4758 C 0.41205 0.99386 0.9017 0.0
C4759 C 0.34457 0.99898 0.85677 0.0
C4760 C 0.38988 0.94214 0.85642 0.0
C4761 C 0.37992 0.92797 0.87043 0.0
C4762 C 0.38883 0.96418 0.85872 0.0
C4763 C 0.37769 0.97265 0.87562 0.0
C4764 C 0.36727 0.95846 0.88966 0.0
C4765 C 0.36842 0.93637 0.88686 0.0
C4766 C 0.40011 0.97844 0.84322 0.0
C4767 C 0.35538 0.96664 0.90802 0.0
H4768 H 0.41085 0.03612 0.90077 0.0
H4769 H 0.35374 0.04077 0.86341 0.0
H4770 H 0.40453 0.98146 0.91168 0.0
H4771 H 0.42117 0.98579 0.88965 0.0
H4772 H 0.42329 1.00391 0.91172 0.0
H4773 H 0.33301 0.01067 0.85187 0.0
H4774 H 0.35054 0.99147 0.84242 0.0
H4775 H 0.33626 0.98638 0.8659 0.0
H4776 H 0.39878 0.93602 0.8436 0.0
H4777 H 0.3607 0.9257 0.89785 0.0
H4778 H 0.4131 0.98794 0.8515 0.0
H4779 H 0.38902 0.98964 0.83634 0.0
H4780 H 0.40694 0.96948 0.83018 0.0
H4781 H 0.36659 0.97546 0.91909 0.0
H4782 H 0.34704 0.95374 0.91676 0.0
H4783 H 0.34363 0.97782 0.90243 0.0
C4784 C 0.57355 0.89325 0.41234 0.0
C4785 C 0.5816 0.89742 0.3923 0.0
C4786 C 0.55153 0.8926 0.41574 0.0
C4787 C 0.53711 0.89579 0.39864 0.0
C4788 C 0.54516 0.89887 0.37821 0.0
C4789 C 0.56717 0.89985 0.37535 0.0
C4790 C 0.5438 0.88959 0.43784 0.0
C4791 C 0.53055 0.902 0.3594 0.0
C4792 C 0.47724 0.88294 0.40226 0.0
C4793 C 0.46954 0.90312 0.40466 0.0
C4794 C 0.49919 0.88015 0.40084 0.0
C4795 C 0.51387 0.8979 0.40221 0.0
C4796 C 0.50614 0.91817 0.40552 0.0
C4797 C 0.48421 0.92052 0.40649 0.0
C4798 C 0.50661 0.85831 0.39698 0.0
C4799 C 0.52102 0.93756 0.40741 0.0
H4800 H 0.58449 0.89151 0.42558 0.0
H4801 H 0.57313 0.90292 0.35975 0.0
H4802 H 0.53724 0.90442 0.44347 0.0
H4803 H 0.53085 0.8771 0.43805 0.0
H4804 H 0.55665 0.88531 0.44903 0.0
H4805 H 0.53904 0.90205 0.34431 0.0
H4806 H 0.51773 0.88936 0.35862 0.0
H4807 H 0.52297 0.91726 0.36104 0.0
H4808 H 0.46608 0.86941 0.40066 0.0
H4809 H 0.4785 0.93619 0.40847 0.0
H4810 H 0.51928 0.85473 0.40862 0.0
H4811 H 0.51346 0.85753 0.3811 0.0
H4812 H 0.49354 0.84597 0.39789 0.0
H4813 H 0.53367 0.93514 0.41947 0.0
H4814 H 0.51273 0.95188 0.41176 0.0
H4815 H 0.52881 0.94044 0.39218 0.0
C4816 C 0.63345 0.07079 0.85433 0.0
C4817 C 0.64085 0.08478 0.87056 0.0
C4818 C 0.6337 0.04873 0.85657 0.0
C4819 C 0.64137 0.04006 0.87566 0.0
C4820 C 0.64929 0.05405 0.89199 0.0
C4821 C 0.64902 0.07617 0.88923 0.0
C4822 C 0.62519 0.03465 0.83862 0.0
C4823 C 0.65744 0.04565 0.91267 0.0
C4824 C 0.61743 0.98476 0.8867 0.0
C4825 C 0.63314 0.97153 0.88008 0.0
C4826 C 0.62036 0.00691 0.8863 0.0
C4827 C 0.63946 0.01646 0.87887 0.0
C4828 C 0.65578 1.00325 0.87296 0.0
C4829 C 0.65249 0.981 0.87374 0.0
C4830 C 0.60253 0.02011 0.893 0.0
C4831 C 0.67635 0.0126 0.86482 0.0
H4832 H 0.62717 0.07709 0.83976 0.0
H4833 H 0.65474 0.08671 0.90193 0.0
H4834 H 0.63699 0.02311 0.83446 0.0
H4835 H 0.61074 0.02552 0.84353 0.0
H4836 H 0.62116 0.04373 0.8243 0.0
H4837 H 0.66448 0.0584 0.92321 0.0
H4838 H 0.64426 0.03729 0.9209 0.0
H4839 H 0.66954 0.03403 0.90985 0.0
H4840 H 0.60244 0.97775 0.89177 0.0
H4841 H 0.66471 0.97105 0.86844 0.0
H4842 H 0.59598 0.02831 0.87911 0.0
H4843 H 0.60848 0.03241 0.90455 0.0
H4844 H 0.58949 0.01046 0.90018 0.0
H4845 H 0.6734 0.01998 0.8493 0.0
H4846 H 0.68823 1.00053 0.8629 0.0
H4847 H 0.68308 0.02518 0.87568 0.0
C4848 C 0.44038 0.10689 0.36585 0.0
C4849 C 0.4265 0.11028 0.38231 0.0
C4850 C 0.4625 0.10784 0.3693 0.0
C4851 C 0.47125 0.11188 0.38985 0.0
C4852 C 0.45738 0.11605 0.40642 0.0
C4853 C 0.43524 0.1154 0.40243 0.0
C4854 C 0.47647 0.10364 0.351 0.0
C4855 C 0.46585 0.12013 0.42864 0.0
C4856 C 0.52423 0.08714 0.40029 0.0
C4857 C 0.53902 0.10433 0.39843 0.0
C4858 C 0.50228 0.08961 0.3984 0.0
C4859 C 0.49461 0.10975 0.39415 0.0
C4860 C 0.50942 0.1273 0.39268 0.0
C4861 C 0.53139 0.12442 0.39501 0.0
C4862 C 0.48729 0.07043 0.40042 0.0
C4863 C 0.50208 0.14899 0.38785 0.0
H4864 H 0.43389 0.10306 0.3502 0.0
H4865 H 0.42475 0.11789 0.41532 0.0
H4866 H 0.48939 0.11612 0.35019 0.0
H4867 H 0.48396 0.0884 0.35332 0.0
H4868 H 0.46751 0.10292 0.33568 0.0
H4869 H 0.45339 0.12506 0.43933 0.0
H4870 H 0.47247 0.10554 0.43492 0.0
H4871 H 0.4789 0.13252 0.42882 0.0
H4872 H 0.52983 0.07154 0.40305 0.0
H4873 H 0.54261 0.13779 0.39339 0.0
H4874 H 0.47897 0.06692 0.38506 0.0
H4875 H 0.47506 0.07353 0.41207 0.0
H4876 H 0.49559 0.05624 0.40538 0.0
H4877 H 0.49466 0.14897 0.37179 0.0
H4878 H 0.51531 0.16124 0.38864 0.0
H4879 H 0.48987 0.15333 0.39906 0.0
C4880 C 0.09948 0.41703 0.94829 0.0
C4881 C 0.0976 0.3993 0.93476 0.0
C4882 C 0.10023 0.41501 0.9704 0.0
C4883 C 0.09939 0.39471 0.97958 0.0
C4884 C 0.09704 0.3767 0.96607 0.0
C4885 C 0.09605 0.37919 0.94388 0.0
C4886 C 0.10252 0.43474 0.98395 0.0
C4887 C 0.09635 0.35476 0.97503 0.0
C4888 C 0.12631 0.39438 0.0343 0.0
C4889 C 0.1092 0.39517 0.04789 0.0
C4890 C 0.12323 0.39296 0.01223 0.0
C4891 C 0.10248 0.39264 1.00317 0.0
C4892 C 0.08505 0.39247 0.01683 0.0
C4893 C 0.0886 0.39358 0.03897 0.0
C4894 C 0.14236 0.39287 0.99855 0.0
C4895 C 0.06267 0.39238 0.00802 0.0
H4896 H 0.10059 0.43268 0.94157 0.0
H4897 H 0.09472 0.36537 0.93367 0.0
H4898 H 0.09008 0.43445 0.99593 0.0
H4899 H 0.11805 0.43544 0.99255 0.0
H4900 H 0.10142 0.44934 0.97453 0.0
H4901 H 0.09295 0.34242 0.96268 0.0
H4902 H 0.11178 0.35191 0.98292 0.0
H4903 H 0.0841 0.35313 0.98716 0.0
H4904 H 0.14231 0.39551 0.04093 0.0
H4905 H 0.07525 0.39439 0.04922 0.0
H4906 H 0.14405 0.408 0.98996 0.0
H4907 H 0.14038 0.38003 0.98656 0.0
H4908 H 0.15719 0.39082 0.0079 0.0
H4909 H 0.0601 0.40771 1.00036 0.0
H4910 H 0.05082 0.38987 0.02047 0.0
H4911 H 0.05992 0.37988 0.99578 0.0
C4912 C 0.12562 0.64008 0.98414 0.0
C4913 C 0.14298 0.63064 0.97539 0.0
C4914 C 0.12291 0.6406 0.00625 0.0
C4915 C 0.13808 0.63184 0.02009 0.0
C4916 C 0.15601 0.62305 0.01129 0.0
C4917 C 0.15811 0.62238 0.98923 0.0
C4918 C 0.10337 0.64981 0.01474 0.0
C4919 C 0.17283 0.6138 0.0252 0.0
C4920 C 0.14159 0.6439 0.07975 0.0
C4921 C 0.13297 0.62504 0.08822 0.0
C4922 C 0.14274 0.64669 0.05766 0.0
C4923 C 0.13474 0.63044 0.04356 0.0
C4924 C 0.12502 0.61187 0.05211 0.0
C4925 C 0.12446 0.60934 0.07415 0.0
C4926 C 0.15354 0.66661 0.04945 0.0
C4927 C 0.11591 0.59421 0.03793 0.0
H4928 H 0.11372 0.64634 0.97368 0.0
H4929 H 0.17164 0.61512 0.98276 0.0
H4930 H 0.09341 0.63716 0.02216 0.0
H4931 H 0.10779 0.66178 0.02716 0.0
H4932 H 0.09378 0.65725 1.00221 0.0
H4933 H 0.18662 0.60913 0.01614 0.0
H4934 H 0.17848 0.62536 0.03761 0.0
H4935 H 0.16605 0.59965 0.03327 0.0
H4936 H 0.14841 0.65606 0.09037 0.0
H4937 H 0.11767 0.59473 0.08042 0.0
H4938 H 0.14351 0.67365 0.03705 0.0
H4939 H 0.16857 0.66276 0.04209 0.0
H4940 H 0.15716 0.67853 0.06214 0.0
H4941 H 0.10517 0.60049 0.02567 0.0
H4942 H 0.10699 0.58181 0.04684 0.0
H4943 H 0.12887 0.58679 0.0297 0.0
C4944 C 0.88752 0.66348 0.45759 0.0
C4945 C 0.87859 0.64802 0.44349 0.0
C4946 C 0.88649 0.66113 0.47963 0.0
C4947 C 0.87656 0.64266 0.48815 0.0
C4948 C 0.86705 0.62717 0.47402 0.0
C4949 C 0.86803 0.6301 0.45194 0.0
C4950 C 0.89665 0.67825 0.49383 0.0
C4951 C 0.85657 0.6071 0.48224 0.0
C4952 C 0.89889 0.62935 0.54276 0.0
C4953 C 0.88388 0.63695 0.55643 0.0
C4954 C 0.89607 0.63005 0.52068 0.0
C4955 C 0.87792 0.63897 0.51166 0.0
C4956 C 0.86223 0.64592 0.52535 0.0
C4957 C 0.8653 0.64466 0.54754 0.0
C4958 C 0.91311 0.62206 0.50698 0.0
C4959 C 0.84274 0.65576 0.5166 0.0
H4960 H 0.89561 0.67748 0.45138 0.0
H4961 H 0.86115 0.61798 0.44129 0.0
H4962 H 0.88533 0.68306 0.50577 0.0
H4963 H 0.91049 0.67216 0.50247 0.0
H4964 H 0.90209 0.69242 0.48491 0.0
H4965 H 0.8484 0.59741 0.46947 0.0
H4966 H 0.86866 0.59757 0.49004 0.0
H4967 H 0.8449 0.61075 0.49427 0.0
H4968 H 0.91327 0.62323 0.54941 0.0
H4969 H 0.8537 0.65076 0.55789 0.0
H4970 H 0.92124 0.63551 0.49892 0.0
H4971 H 0.90603 0.6112 0.49458 0.0
H4972 H 0.92514 0.61364 0.51624 0.0
H4973 H 0.84733 0.67122 0.50954 0.0
H4974 H 0.83102 0.65831 0.52895 0.0
H4975 H 0.83508 0.64568 0.50388 0.0
C4976 C 0.86986 0.40859 0.97927 0.0
C4977 C 0.88658 0.4034 0.96643 0.0
C4978 C 0.87158 0.40759 1.00145 0.0
C4979 C 0.89075 0.40185 0.01138 0.0
C4980 C 0.90764 0.39632 0.99849 0.0
C4981 C 0.90526 0.39688 0.97623 0.0
C4982 C 0.85291 0.41315 0.0143 0.0
C4983 C 0.92855 0.39061 0.00823 0.0
C4984 C 0.89976 0.42415 0.06743 0.0
C4985 C 0.89466 0.40666 0.08012 0.0
C4986 C 0.8995 0.42252 0.04524 0.0
C4987 C 0.89338 0.40301 0.03514 0.0
C4988 C 0.8885 0.38518 0.04788 0.0
C4989 C 0.88947 0.38714 0.07015 0.0
C4990 C 0.90534 0.44189 0.03256 0.0
C4991 C 0.88137 0.36421 0.03797 0.0
H4992 H 0.85529 0.41352 0.97193 0.0
H4993 H 0.91835 0.39302 0.96651 0.0
H4994 H 0.84922 0.40055 0.02586 0.0
H4995 H 0.85685 0.42793 0.02337 0.0
H4996 H 0.83854 0.41539 1.00429 0.0
H4997 H 0.93976 0.38569 0.99621 0.0
H4998 H 0.93588 0.40441 0.01711 0.0
H4999 H 0.92612 0.37765 0.01966 0.0
H5000 H 0.90391 0.4393 0.07491 0.0
H5001 H 0.8853 0.37358 0.07975 0.0
H5002 H 0.8912 0.44694 0.02364 0.0
H5003 H 0.91738 0.43825 0.02088 0.0
H5004 H 0.91167 0.45528 0.04267 0.0
H5005 H 0.86611 0.36572 0.02922 0.0
H5006 H 0.87925 0.35159 0.04987 0.0
H5007 H 0.89301 0.35933 0.0264 0.0
C5008 C 0.09663 0.39521 0.5336 0.0
C5009 C 0.11299 0.401 0.54836 0.0
C5010 C 0.0999 0.39537 0.51172 0.0
C5011 C 0.12013 0.40135 0.50402 0.0
C5012 C 0.13669 0.40755 0.51877 0.0
C5013 C 0.13293 0.40736 0.54069 0.0
C5014 C 0.08168 0.38865 0.49681 0.0
C5015 C 0.15854 0.41389 0.51138 0.0
C5016 C 0.12945 0.37778 0.44962 0.0
C5017 C 0.12473 0.3943 0.43592 0.0
C5018 C 0.12925 0.38028 0.47171 0.0
C5019 C 0.12396 0.39977 0.48067 0.0
C5020 C 0.12021 0.41687 0.46698 0.0
C5021 C 0.12074 0.41398 0.44484 0.0
C5022 C 0.13356 0.3616 0.48544 0.0
C5023 C 0.11436 0.43789 0.47566 0.0
H5024 H 0.08111 0.39028 0.53913 0.0
H5025 H 0.14573 0.41181 0.55183 0.0
H5026 H 0.07923 0.40106 0.48491 0.0
H5027 H 0.08538 0.37411 0.48815 0.0
H5028 H 0.06666 0.38549 0.50516 0.0
H5029 H 0.16939 0.41949 0.52458 0.0
H5030 H 0.16538 0.40022 0.50358 0.0
H5031 H 0.15769 0.42657 0.49952 0.0
H5032 H 0.13261 0.3625 0.44302 0.0
H5033 H 0.11684 0.42681 0.43452 0.0
H5034 H 0.11871 0.35585 0.4929 0.0
H5035 H 0.14515 0.36627 0.49831 0.0
H5036 H 0.13974 0.34836 0.47633 0.0
H5037 H 0.09828 0.43627 0.48216 0.0
H5038 H 0.11447 0.45027 0.46338 0.0
H5039 H 0.12544 0.44316 0.48877 0.0
C5040 C 0.89094 0.62258 0.95928 0.0
C5041 C 0.88374 0.63766 0.94506 0.0
C5042 C 0.8889 0.62488 0.98122 0.0
C5043 C 0.87901 0.64255 0.98947 0.0
C5044 C 0.8724 0.65828 0.97527 0.0
C5045 C 0.87501 0.65576 0.95328 0.0
C5046 C 0.89659 0.60783 0.99553 0.0
C5047 C 0.86154 0.67724 0.98319 0.0
C5048 C 0.85193 0.63124 0.04165 0.0
C5049 C 0.86651 0.64025 0.05673 0.0
C5050 C 0.85535 0.63281 0.01985 0.0
C5051 C 0.87406 0.64336 0.01261 0.0
C5052 C 0.88863 0.65297 0.02772 0.0
C5053 C 0.88462 0.65146 0.04953 0.0
C5054 C 0.83915 0.62252 1.00453 0.0
C5055 C 0.90893 0.66409 0.0209 0.0
H5056 H 0.89784 0.60859 0.95317 0.0
H5057 H 0.86922 0.66741 0.94248 0.0
H5058 H 0.90668 0.61489 0.00863 0.0
H5059 H 0.88285 0.59927 1.00266 0.0
H5060 H 0.90577 0.59622 0.98697 0.0
H5061 H 0.85926 0.68905 0.97063 0.0
H5062 H 0.84582 0.67209 0.98921 0.0
H5063 H 0.87082 0.68492 0.99651 0.0
H5064 H 0.83782 0.62263 0.04692 0.0
H5065 H 0.89608 0.65838 0.06096 0.0
H5066 H 0.84603 0.60902 0.99648 0.0
H5067 H 0.83471 0.63387 0.99218 0.0
H5068 H 0.82459 0.61664 0.01245 0.0
H5069 H 0.91921 0.65243 0.01391 0.0
H5070 H 0.91776 0.67227 0.03425 0.0
H5071 H 0.9056 0.6758 0.00853 0.0
C5072 C 0.90859 0.39111 0.47947 0.0
C5073 C 0.89071 0.39351 0.46624 0.0
C5074 C 0.90741 0.39187 0.50161 0.0
C5075 C 0.88772 0.39463 0.51109 0.0
C5076 C 0.86961 0.39738 0.49784 0.0
C5077 C 0.87136 0.39702 0.47562 0.0
C5078 C 0.92727 0.38927 0.51489 0.0
C5079 C 0.84823 0.39993 0.50713 0.0
C5080 C 0.88531 0.3718 0.56663 0.0
C5081 C 0.88909 0.38975 0.57958 0.0
C5082 C 0.88352 0.37334 0.5445 0.0
C5083 C 0.88613 0.39331 0.53476 0.0
C5084 C 0.88922 0.4116 0.5478 0.0
C5085 C 0.89043 0.40963 0.57001 0.0
C5086 C 0.87976 0.35339 0.53148 0.0
C5087 C 0.89255 0.43317 0.53828 0.0
H5088 H 0.92367 0.38853 0.47249 0.0
H5089 H 0.85742 0.39875 0.4656 0.0
H5090 H 0.92954 0.40235 0.5266 0.0
H5091 H 0.92576 0.37434 0.52382 0.0
H5092 H 0.9416 0.38896 0.50522 0.0
H5093 H 0.83593 0.40307 0.49489 0.0
H5094 H 0.84324 0.38535 0.51561 0.0
H5095 H 0.84912 0.41306 0.51883 0.0
H5096 H 0.88423 0.35636 0.57383 0.0
H5097 H 0.89366 0.42357 0.57981 0.0
H5098 H 0.89427 0.35019 0.52286 0.0
H5099 H 0.86686 0.35526 0.51954 0.0
H5100 H 0.87555 0.33949 0.54134 0.0
H5101 H 0.90794 0.43422 0.5303 0.0
H5102 H 0.89259 0.44597 0.55035 0.0
H5103 H 0.88004 0.43582 0.52615 0.0
C5104 C 0.13696 0.61347 0.57998 0.0
C5105 C 0.13329 0.6333 0.58872 0.0
C5106 C 0.13772 0.61043 0.55786 0.0
C5107 C 0.1354 0.62774 0.54405 0.0
C5108 C 0.13268 0.64795 0.55296 0.0
C5109 C 0.13131 0.65039 0.575 0.0
C5110 C 0.14004 0.58849 0.54922 0.0
C5111 C 0.13067 0.66704 0.53915 0.0
C5112 C 0.15083 0.62509 0.48576 0.0
C5113 C 0.13095 0.62322 0.47531 0.0
C5114 C 0.15264 0.62614 0.50808 0.0
C5115 C 0.13417 0.62466 0.52036 0.0
C5116 C 0.11417 0.62172 0.50979 0.0
C5117 C 0.11281 0.6214 0.48755 0.0
C5118 C 0.17425 0.62987 0.51847 0.0
C5119 C 0.09403 0.61948 0.52196 0.0
H5120 H 0.13828 0.60012 0.59038 0.0
H5121 H 0.12858 0.6658 0.58155 0.0
H5122 H 0.12538 0.58318 0.54024 0.0
H5123 H 0.15324 0.58847 0.53809 0.0
H5124 H 0.14298 0.57695 0.56189 0.0
H5125 H 0.13087 0.68194 0.54849 0.0
H5126 H 0.14377 0.66818 0.52789 0.0
H5127 H 0.11562 0.66546 0.52974 0.0
H5128 H 0.16492 0.62679 0.47647 0.0
H5129 H 0.09737 0.6199 0.47967 0.0
H5130 H 0.1768 0.618 0.53087 0.0
H5131 H 0.17535 0.64561 0.5263 0.0
H5132 H 0.18713 0.62925 0.50698 0.0
H5133 H 0.09546 0.60734 0.53434 0.0
H5134 H 0.08002 0.61503 0.51161 0.0
H5135 H 0.09124 0.63461 0.53001 0.0
C5136 C 0.27634 0.08334 0.39262 0.0
C5137 C 0.28943 0.10183 0.39089 0.0
C5138 C 0.25416 0.08394 0.39312 0.0
C5139 C 0.24452 0.1035 0.39143 0.0
C5140 C 0.2576 0.12225 0.38946 0.0
C5141 C 0.27987 0.12123 0.38942 0.0
C5142 C 0.24105 0.06358 0.39572 0.0
C5143 C 0.24806 0.14341 0.38726 0.0
C5144 C 0.18541 0.10092 0.37559 0.0
C5145 C 0.17591 0.10381 0.39506 0.0
C5146 C 0.20767 0.10131 0.37407 0.0
C5147 C 0.22083 0.10424 0.39249 0.0
C5148 C 0.21126 0.107 0.41217 0.0
C5149 C 0.18906 0.10696 0.41318 0.0
C5150 C 0.21712 0.09865 0.3527 0.0
C5151 C 0.22447 0.1097 0.43231 0.0
H5152 H 0.28347 0.06824 0.39383 0.0
H5153 H 0.28977 0.13558 0.38789 0.0
H5154 H 0.23161 0.06447 0.41015 0.0
H5155 H 0.22972 0.06107 0.38216 0.0
H5156 H 0.25093 0.04968 0.39692 0.0
H5157 H 0.26024 0.15641 0.38503 0.0
H5158 H 0.23668 0.14304 0.37361 0.0
H5159 H 0.23908 0.14693 0.40152 0.0
H5160 H 0.17546 0.09869 0.36147 0.0
H5161 H 0.18197 0.10917 0.42834 0.0
H5162 H 0.22613 0.08415 0.35242 0.0
H5163 H 0.22845 0.11215 0.34959 0.0
H5164 H 0.20488 0.09754 0.33979 0.0
H5165 H 0.23399 0.09571 0.43474 0.0
H5166 H 0.21466 0.11175 0.44635 0.0
H5167 H 0.23573 0.12363 0.43118 0.0
C5168 C 0.37588 0.687 0.8654 0.0
C5169 C 0.37838 0.67742 0.88516 0.0
C5170 C 0.37706 0.70925 0.86335 0.0
C5171 C 0.38083 0.72243 0.88145 0.0
C5172 C 0.38318 0.71283 0.9014 0.0
C5173 C 0.38194 0.69066 0.903 0.0
C5174 C 0.3745 0.71866 0.84174 0.0
C5175 C 0.38732 0.72602 0.92118 0.0
C5176 C 0.40696 0.77791 0.87597 0.0
C5177 C 0.38994 0.79115 0.87794 0.0
C5178 C 0.4041 0.75576 0.87671 0.0
C5179 C 0.38366 0.74614 0.87953 0.0
C5180 C 0.36633 0.7593 0.8814 0.0
C5181 C 0.36964 0.78156 0.88058 0.0
C5182 C 0.42313 0.74261 0.87467 0.0
C5183 C 0.34427 0.74985 0.88445 0.0
H5184 H 0.37302 0.67713 0.85148 0.0
H5185 H 0.38384 0.68371 0.91844 0.0
H5186 H 0.36172 0.72994 0.84169 0.0
H5187 H 0.38931 0.72765 0.83762 0.0
H5188 H 0.37071 0.70644 0.82936 0.0
H5189 H 0.38789 0.71626 0.93562 0.0
H5190 H 0.40262 0.73528 0.92009 0.0
H5191 H 0.3748 0.73743 0.92284 0.0
H5192 H 0.42276 0.78484 0.87382 0.0
H5193 H 0.35631 0.79142 0.88203 0.0
H5194 H 0.42046 0.7311 0.86148 0.0
H5195 H 0.42551 0.73345 0.88929 0.0
H5196 H 0.43786 0.75238 0.87184 0.0
H5197 H 0.33977 0.73851 0.87148 0.0
H5198 H 0.33234 0.76204 0.88493 0.0
H5199 H 0.34378 0.74091 0.8994 0.0
C5200 C 0.73187 0.92522 0.40207 0.0
C5201 C 0.71876 0.90661 0.40206 0.0
C5202 C 0.75406 0.9247 0.40199 0.0
C5203 C 0.76365 0.90506 0.40151 0.0
C5204 C 0.75053 0.88617 0.40126 0.0
C5205 C 0.72828 0.88715 0.40172 0.0
C5206 C 0.76726 0.94526 0.40271 0.0
C5207 C 0.76001 0.8649 0.40043 0.0
C5208 C 0.82147 0.90629 0.38459 0.0
C5209 C 0.83247 0.90544 0.40407 0.0
C5210 C 0.7991 0.90562 0.38344 0.0
C5211 C 0.7874 0.90447 0.40221 0.0
C5212 C 0.79849 0.90372 0.42188 0.0
C5213 C 0.82074 0.90403 0.42255 0.0
C5214 C 0.78798 0.90614 0.36212 0.0
C5215 C 0.78685 0.90295 0.44234 0.0
H5216 H 0.72478 0.94037 0.40235 0.0
H5217 H 0.71835 0.87269 0.40149 0.0
H5218 H 0.77782 0.94586 0.41699 0.0
H5219 H 0.77751 0.94638 0.38883 0.0
H5220 H 0.75742 0.95921 0.40292 0.0
H5221 H 0.74773 0.85172 0.39938 0.0
H5222 H 0.77029 0.86399 0.3866 0.0
H5223 H 0.77013 0.86275 0.41472 0.0
H5224 H 0.83033 0.90719 0.37022 0.0
H5225 H 0.82899 0.90341 0.43772 0.0
H5226 H 0.77887 0.92053 0.36085 0.0
H5227 H 0.77649 0.89236 0.36024 0.0
H5228 H 0.79921 0.90599 0.34898 0.0
H5229 H 0.7775 0.91713 0.44388 0.0
H5230 H 0.79775 0.90223 0.45632 0.0
H5231 H 0.77555 0.88897 0.44242 0.0
C5232 C 0.61463 0.23516 0.88154 0.0
C5233 C 0.63158 0.22166 0.88203 0.0
C5234 C 0.61791 0.25724 0.88345 0.0
C5235 C 0.63872 0.26649 0.88591 0.0
C5236 C 0.65597 0.25305 0.88642 0.0
C5237 C 0.65222 0.23088 0.88453 0.0
C5238 C 0.59896 0.2707 0.88299 0.0
C5239 C 0.67843 0.26211 0.88897 0.0
C5240 C 0.64631 0.3259 0.87441 0.0
C5241 C 0.64626 0.33493 0.89473 0.0
C5242 C 0.64435 0.30373 0.8713 0.0
C5243 C 0.64217 0.29009 0.88886 0.0
C5244 C 0.6422 0.29914 0.90936 0.0
C5245 C 0.64426 0.32123 0.91202 0.0
C5246 C 0.64445 0.29489 0.84916 0.0
C5247 C 0.63975 0.28546 0.92859 0.0
H5248 H 0.59856 0.22848 0.87959 0.0
H5249 H 0.6655 0.22081 0.88481 0.0
H5250 H 0.6004 0.28244 0.87019 0.0
H5251 H 0.58381 0.2612 0.88052 0.0
H5252 H 0.59832 0.27961 0.89806 0.0
H5253 H 0.69015 0.24973 0.88847 0.0
H5254 H 0.68186 0.27363 0.87629 0.0
H5255 H 0.68051 0.27077 0.90422 0.0
H5256 H 0.64793 0.33613 0.8609 0.0
H5257 H 0.6442 0.32776 0.92786 0.0
H5258 H 0.6291 0.28622 0.84534 0.0
H5259 H 0.65698 0.28343 0.84791 0.0
H5260 H 0.64715 0.3074 0.83724 0.0
H5261 H 0.62423 0.27643 0.92768 0.0
H5262 H 0.64074 0.29482 0.94351 0.0
H5263 H 0.65219 0.27382 0.92917 0.0
C5264 C 0.29468 0.90198 0.63606 0.0
C5265 C 0.30792 0.88488 0.63556 0.0
C5266 C 0.27247 0.89896 0.63535 0.0
C5267 C 0.2629 0.87828 0.63425 0.0
C5268 C 0.27609 0.86088 0.63372 0.0
C5269 C 0.29837 0.86437 0.63428 0.0
C5270 C 0.25923 0.91804 0.6357 0.0
C5271 C 0.26663 0.83855 0.63266 0.0
C5272 C 0.20481 0.87193 0.65019 0.0
C5273 C 0.19395 0.87133 0.63053 0.0
C5274 C 0.22717 0.87368 0.65165 0.0
C5275 C 0.23912 0.87507 0.63305 0.0
C5276 C 0.22824 0.87447 0.6132 0.0
C5277 C 0.20596 0.87254 0.61219 0.0
C5278 C 0.23803 0.87415 0.67314 0.0
C5279 C 0.24015 0.87615 0.59294 0.0
H5280 H 0.30167 0.91795 0.63699 0.0
H5281 H 0.3083 0.85099 0.63401 0.0
H5282 H 0.24897 0.91822 0.62123 0.0
H5283 H 0.24868 0.91726 0.64937 0.0
H5284 H 0.26904 0.93309 0.6367 0.0
H5285 H 0.27892 0.82671 0.63278 0.0
H5286 H 0.25624 0.83559 0.64623 0.0
H5287 H 0.25661 0.83622 0.6181 0.0
H5288 H 0.19585 0.87089 0.66448 0.0
H5289 H 0.19794 0.87213 0.59686 0.0
H5290 H 0.24713 0.88945 0.67564 0.0
H5291 H 0.24949 0.86156 0.67416 0.0
H5292 H 0.22663 0.87198 0.68605 0.0
H5293 H 0.2494 0.8915 0.59254 0.0
H5294 H 0.22944 0.87488 0.57875 0.0
H5295 H 0.25157 0.86356 0.59211 0.0
C5296 C 0.60113 0.68078 0.08083 0.0
C5297 C 0.60127 0.66809 0.09891 0.0
C5298 C 0.60051 0.70291 0.08228 0.0
C5299 C 0.60034 0.71294 0.10232 0.0
C5300 C 0.60072 0.70027 0.12067 0.0
C5301 C 0.60101 0.67805 0.11875 0.0
C5302 C 0.59975 0.71555 0.06224 0.0
C5303 C 0.60081 0.71019 0.14237 0.0
C5304 C 0.61555 0.77247 0.10488 0.0
C5305 C 0.59569 0.78128 0.10549 0.0
C5306 C 0.61736 0.75034 0.10427 0.0
C5307 C 0.59889 0.73656 0.10394 0.0
C5308 C 0.57884 0.74542 0.10448 0.0
C5309 C 0.57751 0.7675 0.1054 0.0
C5310 C 0.63907 0.74169 0.10399 0.0
C5311 C 0.55867 0.73155 0.10382 0.0
H5312 H 0.60128 0.67337 0.06538 0.0
H5313 H 0.60128 0.66851 0.13284 0.0
H5314 H 0.58509 0.72437 0.06152 0.0
H5315 H 0.61332 0.72735 0.0621 0.0
H5316 H 0.60014 0.70546 0.04788 0.0
H5317 H 0.60204 0.69835 0.15508 0.0
H5318 H 0.61429 0.72206 0.14425 0.0
H5319 H 0.5861 0.71861 0.14438 0.0
H5320 H 0.62973 0.78286 0.10511 0.0
H5321 H 0.56204 0.77399 0.10584 0.0
H5322 H 0.64083 0.73253 0.08924 0.0
H5323 H 0.64108 0.73071 0.11733 0.0
H5324 H 0.65189 0.75435 0.10511 0.0
H5325 H 0.55774 0.72186 0.08914 0.0
H5326 H 0.54431 0.74082 0.10444 0.0
H5327 H 0.55861 0.72051 0.11727 0.0
C5328 C 0.81507 0.12562 0.60898 0.0
C5329 C 0.82945 0.12804 0.62628 0.0
C5330 C 0.79303 0.12463 0.61163 0.0
C5331 C 0.78486 0.12629 0.63209 0.0
C5332 C 0.79923 0.12895 0.64964 0.0
C5333 C 0.82128 0.12967 0.64656 0.0
C5334 C 0.77848 0.12143 0.59245 0.0
C5335 C 0.79128 0.13094 0.67173 0.0
C5336 C 0.72627 0.1385 0.63599 0.0
C5337 C 0.71664 0.11838 0.6393 0.0
C5338 C 0.74845 0.14144 0.63402 0.0
C5339 C 0.76136 0.12384 0.63512 0.0
C5340 C 0.75168 0.10353 0.63834 0.0
C5341 C 0.72963 0.10109 0.64047 0.0
C5342 C 0.75809 0.16338 0.63077 0.0
C5343 C 0.7646 0.08423 0.63931 0.0
H5344 H 0.82102 0.12429 0.59319 0.0
H5345 H 0.83212 0.13171 0.66005 0.0
H5346 H 0.7689 0.10636 0.59379 0.0
H5347 H 0.76729 0.13426 0.5915 0.0
H5348 H 0.78727 0.12106 0.57755 0.0
H5349 H 0.80436 0.13408 0.68358 0.0
H5350 H 0.78025 0.1439 0.67254 0.0
H5351 H 0.78228 0.11618 0.67603 0.0
H5352 H 0.71652 0.152 0.63516 0.0
H5353 H 0.72255 0.0854 0.6429 0.0
H5354 H 0.76606 0.16415 0.61542 0.0
H5355 H 0.77034 0.1673 0.64326 0.0
H5356 H 0.74609 0.17552 0.631 0.0
H5357 H 0.77287 0.08234 0.62428 0.0
H5358 H 0.75474 0.06957 0.64216 0.0
H5359 H 0.77691 0.08613 0.65208 0.0
C5360 C 0.38687 0.23034 0.09398 0.0
C5361 C 0.4065 0.22117 0.09624 0.0
C5362 C 0.38547 0.25252 0.09356 0.0
C5363 C 0.40414 0.26601 0.09515 0.0
C5364 C 0.42396 0.25678 0.09738 0.0
C5365 C 0.42487 0.23466 0.09805 0.0
C5366 C 0.36398 0.26156 0.09143 0.0
C5367 C 0.44434 0.27031 0.09881 0.0
C5368 C 0.40378 0.32182 0.0726 0.0
C5369 C 0.40324 0.33461 0.09078 0.0
C5370 C 0.40392 0.29965 0.07382 0.0
C5371 C 0.40317 0.28968 0.09372 0.0
C5372 C 0.40238 0.30246 0.11216 0.0
C5373 C 0.40258 0.3247 0.11049 0.0
C5374 C 0.40515 0.28691 0.05373 0.0
C5375 C 0.40131 0.29261 0.13368 0.0
H5376 H 0.37255 0.22018 0.09273 0.0
H5377 H 0.44017 0.22791 0.0998 0.0
H5378 H 0.3617 0.27262 0.10471 0.0
H5379 H 0.36289 0.27071 0.07666 0.0
H5380 H 0.35093 0.24911 0.0912 0.0
H5381 H 0.45846 0.26078 0.10066 0.0
H5382 H 0.44598 0.27993 0.08437 0.0
H5383 H 0.44408 0.28141 0.11239 0.0
H5384 H 0.40433 0.32916 0.05724 0.0
H5385 H 0.40199 0.33432 0.12465 0.0
H5386 H 0.39141 0.27534 0.05219 0.0
H5387 H 0.41964 0.27782 0.05424 0.0
H5388 H 0.40544 0.29696 0.03947 0.0
H5389 H 0.38759 0.281 0.13416 0.0
H5390 H 0.39986 0.30454 0.14641 0.0
H5391 H 0.41575 0.28391 0.13695 0.0
C5392 C 0.10149 0.42761 0.19818 0.0
C5393 C 0.10275 0.40963 0.18526 0.0
C5394 C 0.10195 0.42629 0.22039 0.0
C5395 C 0.10407 0.40652 0.23024 0.0
C5396 C 0.10558 0.3883 0.2173 0.0
C5397 C 0.10472 0.39003 0.19505 0.0
C5398 C 0.09987 0.44611 0.23331 0.0
C5399 C 0.10816 0.36694 0.22698 0.0
C5400 C 0.12235 0.40717 0.28872 0.0
C5401 C 0.10324 0.403 0.29905 0.0
C5402 C 0.12294 0.40798 0.26643 0.0
C5403 C 0.10396 0.4049 0.25401 0.0
C5404 C 0.08465 0.40085 0.26442 0.0
C5405 C 0.08456 0.39978 0.28662 0.0
C5406 C 0.14395 0.41204 0.25614 0.0
C5407 C 0.06394 0.39785 0.25208 0.0
H5408 H 0.09991 0.44286 0.19093 0.0
H5409 H 0.10587 0.37604 0.18533 0.0
H5410 H 0.08576 0.44429 0.24326 0.0
H5411 H 0.11387 0.44881 0.2441 0.0
H5412 H 0.09835 0.46027 0.22334 0.0
H5413 H 0.10996 0.35444 0.21489 0.0
H5414 H 0.12224 0.36755 0.23784 0.0
H5415 H 0.0942 0.36247 0.23648 0.0
H5416 H 0.13691 0.40954 0.29804 0.0
H5417 H 0.06966 0.39659 0.29429 0.0
H5418 H 0.14381 0.42686 0.247 0.0
H5419 H 0.14667 0.39909 0.24485 0.0
H5420 H 0.15737 0.41336 0.26783 0.0
H5421 H 0.06121 0.4121 0.24258 0.0
H5422 H 0.05027 0.39488 0.26245 0.0
H5423 H 0.06455 0.38437 0.24091 0.0
C5424 C 0.10023 0.62581 0.73851 0.0
C5425 C 0.11767 0.62487 0.72527 0.0
C5426 C 0.10252 0.62485 0.76064 0.0
C5427 C 0.1228 0.62286 0.77022 0.0
C5428 C 0.14055 0.62207 0.75705 0.0
C5429 C 0.1378 0.62309 0.73484 0.0
C5430 C 0.08308 0.62573 0.77381 0.0
C5431 C 0.16247 0.61993 0.76646 0.0
C5432 C 0.12924 0.63616 0.82954 0.0
C5433 C 0.1271 0.61612 0.83878 0.0
C5434 C 0.12826 0.6386 0.80735 0.0
C5435 C 0.12508 0.62063 0.79388 0.0
C5436 C 0.12302 0.6004 0.80313 0.0
C5437 C 0.12404 0.59842 0.82526 0.0
C5438 C 0.13051 0.66048 0.79831 0.0
C5439 C 0.11954 0.58074 0.78963 0.0
H5440 H 0.08454 0.6273 0.73158 0.0
H5441 H 0.15145 0.62243 0.72497 0.0
H5442 H 0.08519 0.63879 0.78554 0.0
H5443 H 0.06854 0.62807 0.76409 0.0
H5444 H 0.08074 0.61086 0.78271 0.0
H5445 H 0.17475 0.62028 0.75428 0.0
H5446 H 0.16637 0.63286 0.77802 0.0
H5447 H 0.16305 0.60485 0.77512 0.0
H5448 H 0.13172 0.64999 0.83963 0.0
H5449 H 0.12242 0.58278 0.83194 0.0
H5450 H 0.11583 0.66397 0.78933 0.0
H5451 H 0.14364 0.66143 0.78708 0.0
H5452 H 0.13362 0.6728 0.81072 0.0
H5453 H 0.10444 0.58134 0.7804 0.0
H5454 H 0.11897 0.56611 0.79914 0.0
H5455 H 0.13239 0.57985 0.77818 0.0
C5456 C 0.87798 0.60676 0.20654 0.0
C5457 C 0.87736 0.62441 0.19326 0.0
C5458 C 0.87908 0.6089 0.22869 0.0
C5459 C 0.87979 0.62923 0.23819 0.0
C5460 C 0.879 0.64714 0.22495 0.0
C5461 C 0.87771 0.64453 0.20275 0.0
C5462 C 0.8798 0.58929 0.24195 0.0
C5463 C 0.87989 0.66912 0.23427 0.0
C5464 C 0.8685 0.63313 0.29746 0.0
C5465 C 0.88901 0.63422 0.30667 0.0
C5466 C 0.8652 0.63175 0.27528 0.0
C5467 C 0.88277 0.63163 0.26182 0.0
C5468 C 0.90345 0.63293 0.27105 0.0
C5469 C 0.90628 0.63409 0.29314 0.0
C5470 C 0.84288 0.63023 0.26624 0.0
C5471 C 0.92273 0.63296 0.25755 0.0
H5472 H 0.87757 0.59106 0.19965 0.0
H5473 H 0.87717 0.65832 0.19282 0.0
H5474 H 0.89517 0.58928 0.25079 0.0
H5475 H 0.86717 0.58913 0.25373 0.0
H5476 H 0.87782 0.5746 0.23229 0.0
H5477 H 0.87819 0.68138 0.22203 0.0
H5478 H 0.86716 0.67052 0.24578 0.0
H5479 H 0.89519 0.67232 0.24297 0.0
H5480 H 0.855 0.63328 0.30757 0.0
H5481 H 0.92226 0.63506 0.29978 0.0
H5482 H 0.84002 0.61517 0.25734 0.0
H5483 H 0.84059 0.64321 0.25495 0.0
H5484 H 0.8309 0.631 0.27865 0.0
H5485 H 0.92277 0.6179 0.24854 0.0
H5486 H 0.93774 0.63495 0.26704 0.0
H5487 H 0.92228 0.64588 0.24591 0.0
C5488 C 0.89441 0.39206 0.82056 0.0
C5489 C 0.89592 0.41239 0.82961 0.0
C5490 C 0.89524 0.38904 0.79845 0.0
C5491 C 0.89786 0.40672 0.78497 0.0
C5492 C 0.89956 0.4272 0.79408 0.0
C5493 C 0.89851 0.42977 0.81606 0.0
C5494 C 0.89323 0.36692 0.78947 0.0
C5495 C 0.90263 0.44656 0.78057 0.0
C5496 C 0.92104 0.40173 0.73018 0.0
C5497 C 0.90316 0.40302 0.71666 0.0
C5498 C 0.91944 0.4023 0.7523 0.0
C5499 C 0.89942 0.40406 0.76143 0.0
C5500 C 0.88122 0.4049 0.7479 0.0
C5501 C 0.8833 0.40445 0.72576 0.0
C5502 C 0.93933 0.40157 0.76592 0.0
C5503 C 0.85955 0.40666 0.75684 0.0
H5504 H 0.89232 0.37851 0.83072 0.0
H5505 H 0.89983 0.44561 0.82265 0.0
H5506 H 0.87969 0.36539 0.77797 0.0
H5507 H 0.90768 0.36356 0.78082 0.0
H5508 H 0.89086 0.35485 0.80189 0.0
H5509 H 0.9036 0.46141 0.79003 0.0
H5510 H 0.91738 0.44571 0.77163 0.0
H5511 H 0.88934 0.44724 0.76887 0.0
H5512 H 0.93649 0.40053 0.72348 0.0
H5513 H 0.86934 0.4053 0.71558 0.0
H5514 H 0.93762 0.38872 0.77758 0.0
H5515 H 0.942 0.4166 0.7749 0.0
H5516 H 0.95353 0.39906 0.75651 0.0
H5517 H 0.85641 0.39396 0.76844 0.0
H5518 H 0.84682 0.40564 0.74439 0.0
H5519 H 0.85886 0.42194 0.76535 0.0
C5520 C 0.70884 0.88351 0.6626 0.0
C5521 C 0.69594 0.8811 0.64426 0.0
C5522 C 0.73088 0.88139 0.66215 0.0
C5523 C 0.7406 0.87756 0.64272 0.0
C5524 C 0.72766 0.87544 0.62405 0.0
C5525 C 0.70548 0.87683 0.62511 0.0
C5526 C 0.74371 0.88296 0.68258 0.0
C5527 C 0.73729 0.87201 0.6029 0.0
C5528 C 0.80056 0.89072 0.64102 0.0
C5529 C 0.80874 0.87062 0.64179 0.0
C5530 C 0.77848 0.8932 0.64077 0.0
C5531 C 0.76417 0.87523 0.64211 0.0
C5532 C 0.77248 0.85497 0.64339 0.0
C5533 C 0.79451 0.85291 0.6428 0.0
C5534 C 0.77044 0.91504 0.6387 0.0
C5535 C 0.75809 0.83541 0.64567 0.0
H5536 H 0.7016 0.8867 0.6775 0.0
H5537 H 0.69567 0.87518 0.61084 0.0
H5538 H 0.75243 0.86842 0.68487 0.0
H5539 H 0.75565 0.89637 0.68202 0.0
H5540 H 0.7337 0.8852 0.69645 0.0
H5541 H 0.72531 0.87183 0.58975 0.0
H5542 H 0.74963 0.88469 0.60004 0.0
H5543 H 0.74514 0.85683 0.60274 0.0
H5544 H 0.81141 0.90446 0.63999 0.0
H5545 H 0.80069 0.83732 0.6435 0.0
H5546 H 0.76159 0.91907 0.65289 0.0
H5547 H 0.75925 0.91554 0.62494 0.0
H5548 H 0.78345 0.92726 0.63672 0.0
H5549 H 0.74825 0.83699 0.65974 0.0
H5550 H 0.76704 0.8209 0.64729 0.0
H5551 H 0.74715 0.83346 0.63175 0.0
C5552 C 0.60298 0.18117 0.13574 0.0
C5553 C 0.60453 0.16839 0.11768 0.0
C5554 C 0.60496 0.20334 0.13475 0.0
C5555 C 0.60812 0.21332 0.11512 0.0
C5556 C 0.60984 0.20052 0.09679 0.0
C5557 C 0.60827 0.17825 0.09832 0.0
C5558 C 0.60363 0.21611 0.15483 0.0
C5559 C 0.61286 0.21039 0.07546 0.0
C5560 C 0.59402 0.27137 0.11092 0.0
C5561 C 0.61404 0.28205 0.11212 0.0
C5562 C 0.59185 0.24907 0.11157 0.0
C5563 C 0.61007 0.23708 0.11396 0.0
C5564 C 0.63023 0.24789 0.11583 0.0
C5565 C 0.63196 0.27007 0.11465 0.0
C5566 C 0.57006 0.23829 0.10921 0.0
C5567 C 0.65007 0.23601 0.11902 0.0
H5568 H 0.60018 0.17376 0.15082 0.0
H5569 H 0.60924 0.16858 0.08425 0.0
H5570 H 0.58999 0.22632 0.15367 0.0
H5571 H 0.6018 0.20599 0.16893 0.0
H5572 H 0.61811 0.22662 0.15715 0.0
H5573 H 0.61359 0.19839 0.06269 0.0
H5574 H 0.59964 0.22065 0.07176 0.0
H5575 H 0.62769 0.22056 0.07565 0.0
H5576 H 0.58009 0.28039 0.10867 0.0
H5577 H 0.64752 0.27811 0.11564 0.0
H5578 H 0.56658 0.22864 0.12332 0.0
H5579 H 0.56942 0.2274 0.0954 0.0
H5580 H 0.55751 0.24973 0.10711 0.0
H5581 H 0.64879 0.22608 0.13329 0.0
H5582 H 0.66449 0.24673 0.12082 0.0
H5583 H 0.65202 0.22528 0.10541 0.0
C5584 C 0.22949 0.13814 0.62039 0.0
C5585 C 0.21728 0.13736 0.63856 0.0
C5586 C 0.25152 0.13591 0.62149 0.0
C5587 C 0.26196 0.13348 0.64132 0.0
C5588 C 0.24975 0.13302 0.65978 0.0
C5589 C 0.22756 0.13461 0.65816 0.0
C5590 C 0.26359 0.1358 0.6013 0.0
C5591 C 0.26015 0.13097 0.68131 0.0
C5592 C 0.31526 0.10772 0.64368 0.0
C5593 C 0.3299 0.12518 0.64442 0.0
C5594 C 0.29328 0.11021 0.64245 0.0
C5595 C 0.28547 0.13071 0.6426 0.0
C5596 C 0.30018 0.14845 0.64354 0.0
C5597 C 0.32218 0.14549 0.6441 0.0
C5598 C 0.27841 0.0908 0.64078 0.0
C5599 C 0.29268 0.17059 0.64425 0.0
H5600 H 0.22171 0.14007 0.60514 0.0
H5601 H 0.21832 0.13413 0.67229 0.0
H5602 H 0.27598 0.14884 0.60156 0.0
H5603 H 0.27171 0.12082 0.59985 0.0
H5604 H 0.25314 0.1375 0.58711 0.0
H5605 H 0.24872 0.13203 0.69419 0.0
H5606 H 0.26766 0.11563 0.68247 0.0
H5607 H 0.27288 0.14356 0.68373 0.0
H5608 H 0.32101 0.09195 0.64378 0.0
H5609 H 0.33333 0.15908 0.64483 0.0
H5610 H 0.26812 0.09159 0.62638 0.0
H5611 H 0.26792 0.09008 0.65449 0.0
H5612 H 0.28698 0.076 0.64016 0.0
H5613 H 0.28329 0.17373 0.6297 0.0
H5614 H 0.30601 0.18268 0.64578 0.0
H5615 H 0.28213 0.17234 0.65776 0.0
C5616 C 0.39387 0.82413 0.08883 0.0
C5617 C 0.39363 0.83434 0.10853 0.0
C5618 C 0.3927 0.80182 0.08718 0.0
C5619 C 0.39079 0.78934 0.10561 0.0
C5620 C 0.38993 0.79967 0.12544 0.0
C5621 C 0.39154 0.82188 0.12664 0.0
C5622 C 0.39395 0.7916 0.06574 0.0
C5623 C 0.38735 0.78726 0.14549 0.0
C5624 C 0.36754 0.73249 0.10008 0.0
C5625 C 0.3855 0.72046 0.10223 0.0
C5626 C 0.36906 0.75471 0.10123 0.0
C5627 C 0.38911 0.76553 0.10425 0.0
C5628 C 0.40733 0.75352 0.10654 0.0
C5629 C 0.4053 0.7312 0.10571 0.0
C5630 C 0.34911 0.76661 0.09923 0.0
C5631 C 0.42906 0.7643 0.10953 0.0
H5632 H 0.39576 0.83355 0.07478 0.0
H5633 H 0.39111 0.82956 0.14191 0.0
H5634 H 0.40764 0.7814 0.06555 0.0
H5635 H 0.37951 0.78131 0.06232 0.0
H5636 H 0.39568 0.80339 0.05297 0.0
H5637 H 0.38656 0.79762 0.15962 0.0
H5638 H 0.37269 0.77685 0.14431 0.0
H5639 H 0.4008 0.77695 0.14779 0.0
H5640 H 0.35211 0.72448 0.09748 0.0
H5641 H 0.41931 0.72218 0.10718 0.0
H5642 H 0.34996 0.77723 0.08545 0.0
H5643 H 0.3475 0.77665 0.11343 0.0
H5644 H 0.33469 0.7559 0.09731 0.0
H5645 H 0.43232 0.77506 0.09617 0.0
H5646 H 0.4417 0.75287 0.11061 0.0
H5647 H 0.42976 0.77411 0.12412 0.0
C5648 C 0.68841 0.1014 0.37138 0.0
C5649 C 0.67583 0.10227 0.38924 0.0
C5650 C 0.71067 0.10206 0.37313 0.0
C5651 C 0.72087 0.10297 0.39332 0.0
C5652 C 0.70826 0.10387 0.41147 0.0
C5653 C 0.68595 0.1038 0.40921 0.0
C5654 C 0.72328 0.10179 0.35329 0.0
C5655 C 0.71833 0.10442 0.43332 0.0
C5656 C 0.77826 0.08583 0.39697 0.0
C5657 C 0.78983 0.1053 0.39868 0.0
C5658 C 0.75585 0.08478 0.39561 0.0
C5659 C 0.74471 0.10364 0.39531 0.0
C5660 C 0.75644 0.12329 0.39642 0.0
C5661 C 0.77868 0.12386 0.39838 0.0
C5662 C 0.74407 0.06346 0.3949 0.0
C5663 C 0.74551 0.14383 0.39544 0.0
H5664 H 0.68076 0.10024 0.35586 0.0
H5665 H 0.67639 0.10413 0.42311 0.0
H5666 H 0.73457 0.11578 0.35306 0.0
H5667 H 0.73273 0.0876 0.35296 0.0
H5668 H 0.71303 0.10178 0.33878 0.0
H5669 H 0.70641 0.10449 0.44584 0.0
H5670 H 0.72799 0.09049 0.43552 0.0
H5671 H 0.72916 0.11867 0.43534 0.0
H5672 H 0.78668 0.07142 0.39742 0.0
H5673 H 0.78744 0.13901 0.39957 0.0
H5674 H 0.73438 0.06166 0.38009 0.0
H5675 H 0.73304 0.06216 0.40818 0.0
H5676 H 0.75491 0.0503 0.39586 0.0
H5677 H 0.73548 0.14429 0.38084 0.0
H5678 H 0.75691 0.15779 0.39573 0.0
H5679 H 0.73493 0.14509 0.40898 0.0
C5680 C 0.36034 0.2785 0.89154 0.0
C5681 C 0.36203 0.29056 0.87311 0.0
C5682 C 0.36258 0.25652 0.89129 0.0
C5683 C 0.36596 0.24592 0.872 0.0
C5684 C 0.36737 0.25797 0.85325 0.0
C5685 C 0.36574 0.28013 0.85408 0.0
C5686 C 0.36169 0.24467 0.91181 0.0
C5687 C 0.37043 0.24743 0.83224 0.0
C5688 C 0.39182 0.19269 0.87296 0.0
C5689 C 0.37435 0.17805 0.8715 0.0
C5690 C 0.38929 0.21462 0.8734 0.0
C5691 C 0.36876 0.22242 0.87165 0.0
C5692 C 0.35101 0.2077 0.87001 0.0
C5693 C 0.35399 0.18575 0.8703 0.0
C5694 C 0.40869 0.22946 0.87593 0.0
C5695 C 0.32887 0.21516 0.86758 0.0
H5696 H 0.35765 0.28637 0.90638 0.0
H5697 H 0.36693 0.28923 0.83974 0.0
H5698 H 0.34858 0.23234 0.91105 0.0
H5699 H 0.3766 0.23655 0.91452 0.0
H5700 H 0.35935 0.25522 0.92552 0.0
H5701 H 0.37001 0.25872 0.81897 0.0
H5702 H 0.38586 0.23994 0.83236 0.0
H5703 H 0.35791 0.23472 0.82936 0.0
H5704 H 0.40763 0.18696 0.87403 0.0
H5705 H 0.3404 0.17461 0.86896 0.0
H5706 H 0.4072 0.23987 0.8899 0.0
H5707 H 0.4101 0.23977 0.86197 0.0
H5708 H 0.42347 0.22092 0.87786 0.0
H5709 H 0.32506 0.22471 0.88155 0.0
H5710 H 0.3168 0.20184 0.86572 0.0
H5711 H 0.32775 0.22549 0.85361 0.0
C5712 C 0.2306 0.87927 0.39232 0.0
C5713 C 0.21883 0.89725 0.39499 0.0
C5714 C 0.25281 0.8807 0.39141 0.0
C5715 C 0.26395 0.90058 0.39369 0.0
C5716 C 0.25225 0.91885 0.39647 0.0
C5717 C 0.22987 0.91701 0.39686 0.0
C5718 C 0.26435 0.86082 0.38784 0.0
C5719 C 0.26343 0.94034 0.39925 0.0
C5720 C 0.32331 0.89982 0.40833 0.0
C5721 C 0.33268 0.90349 0.38879 0.0
C5722 C 0.30106 0.89934 0.4103 0.0
C5723 C 0.28772 0.90217 0.39225 0.0
C5724 C 0.29713 0.90554 0.37249 0.0
C5725 C 0.31931 0.90634 0.37107 0.0
C5726 C 0.29182 0.89598 0.43175 0.0
C5727 C 0.28374 0.9081 0.35269 0.0
H5728 H 0.22239 0.86387 0.39079 0.0
H5729 H 0.22106 0.93098 0.39914 0.0
H5730 H 0.27382 0.86239 0.37343 0.0
H5731 H 0.27553 0.85836 0.40125 0.0
H5732 H 0.25338 0.84661 0.38606 0.0
H5733 H 0.25223 0.95289 0.40199 0.0
H5734 H 0.2749 0.9402 0.4128 0.0
H5735 H 0.27257 0.94436 0.38504 0.0
H5736 H 0.33337 0.89783 0.4222 0.0
H5737 H 0.32618 0.90908 0.35586 0.0
H5738 H 0.28153 0.88127 0.43164 0.0
H5739 H 0.28175 0.90917 0.43563 0.0
H5740 H 0.30424 0.8949 0.44436 0.0
H5741 H 0.273 0.89386 0.35001 0.0
H5742 H 0.29344 0.9106 0.33851 0.0
H5743 H 0.27366 0.92172 0.35447 0.0
C5744 C 0.63138 0.72939 0.87462 0.0
C5745 C 0.65161 0.72164 0.87735 0.0
C5746 C 0.62851 0.75133 0.8738 0.0
C5747 C 0.64634 0.76597 0.87495 0.0
C5748 C 0.66682 0.7581 0.87713 0.0
C5749 C 0.66915 0.73618 0.87872 0.0
C5750 C 0.60634 0.75887 0.87213 0.0
C5751 C 0.68637 0.77284 0.87763 0.0
C5752 C 0.63976 0.82109 0.85222 0.0
C5753 C 0.63924 0.83383 0.8704 0.0
C5754 C 0.64236 0.79921 0.85348 0.0
C5755 C 0.64369 0.78943 0.87346 0.0
C5756 C 0.64288 0.8022 0.89192 0.0
C5757 C 0.64107 0.82426 0.89017 0.0
C5758 C 0.64394 0.78659 0.83336 0.0
C5759 C 0.64357 0.7925 0.91354 0.0
H5760 H 0.61771 0.71832 0.87385 0.0
H5761 H 0.68485 0.73036 0.88078 0.0
H5762 H 0.60368 0.7698 0.88543 0.0
H5763 H 0.60422 0.76781 0.85735 0.0
H5764 H 0.59412 0.74564 0.87231 0.0
H5765 H 0.70118 0.76423 0.87842 0.0
H5766 H 0.68652 0.7828 0.86333 0.0
H5767 H 0.68625 0.7836 0.89148 0.0
H5768 H 0.63848 0.82836 0.83686 0.0
H5769 H 0.64046 0.83392 0.90429 0.0
H5770 H 0.63072 0.77442 0.832 0.0
H5771 H 0.65889 0.77823 0.83364 0.0
H5772 H 0.64351 0.79665 0.81912 0.0
H5773 H 0.63076 0.77993 0.91465 0.0
H5774 H 0.64175 0.80432 0.92628 0.0
H5775 H 0.6588 0.78498 0.91623 0.0
C5776 C 0.88204 0.65751 0.79739 0.0
C5777 C 0.88141 0.63805 0.80775 0.0
C5778 C 0.88241 0.65852 0.77511 0.0
C5779 C 0.88289 0.63969 0.76285 0.0
C5780 C 0.88287 0.62009 0.77339 0.0
C5781 C 0.88177 0.61951 0.79554 0.0
C5782 C 0.88185 0.67974 0.76464 0.0
C5783 C 0.88416 0.59964 0.76129 0.0
C5784 C 0.86634 0.63801 0.70398 0.0
C5785 C 0.88584 0.64132 0.69422 0.0
C5786 C 0.86508 0.63789 0.72623 0.0
C5787 C 0.88382 0.64042 0.73911 0.0
C5788 C 0.90357 0.64318 0.72921 0.0
C5789 C 0.90428 0.64396 0.70703 0.0
C5790 C 0.84363 0.63545 0.73597 0.0
C5791 C 0.92404 0.64516 0.74204 0.0
H5792 H 0.88155 0.67189 0.80665 0.0
H5793 H 0.88141 0.60439 0.80339 0.0
H5794 H 0.8963 0.68278 0.75542 0.0
H5795 H 0.8681 0.67982 0.7534 0.0
H5796 H 0.88072 0.69282 0.77623 0.0
H5797 H 0.88483 0.5858 0.77184 0.0
H5798 H 0.87021 0.59718 0.7504 0.0
H5799 H 0.89844 0.60035 0.75151 0.0
H5800 H 0.85199 0.63622 0.69424 0.0
H5801 H 0.91944 0.64644 0.69965 0.0
H5802 H 0.84138 0.64902 0.74667 0.0
H5803 H 0.84259 0.62099 0.74564 0.0
H5804 H 0.83053 0.63448 0.72391 0.0
H5805 H 0.92426 0.6593 0.75245 0.0
H5806 H 0.93812 0.64645 0.73197 0.0
H5807 H 0.92534 0.63123 0.75236 0.0
C5808 C 0.8825 0.40321 0.32068 0.0
C5809 C 0.8826 0.38274 0.32894 0.0
C5810 C 0.8822 0.40664 0.29864 0.0
C5811 C 0.8816 0.38921 0.28437 0.0
C5812 C 0.88143 0.36857 0.29264 0.0
C5813 C 0.88213 0.36564 0.31461 0.0
C5814 C 0.88269 0.42895 0.2906 0.0
C5815 C 0.88033 0.34943 0.27825 0.0
C5816 C 0.85913 0.39578 0.22832 0.0
C5817 C 0.87736 0.3969 0.21611 0.0
C5818 C 0.86032 0.39334 0.25036 0.0
C5819 C 0.8803 0.39233 0.26083 0.0
C5820 C 0.89882 0.39341 0.24864 0.0
C5821 C 0.89713 0.39545 0.22646 0.0
C5822 C 0.84009 0.39171 0.26244 0.0
C5823 C 0.92047 0.39267 0.25909 0.0
H5824 H 0.88308 0.41661 0.33143 0.0
H5825 H 0.88225 0.34974 0.32053 0.0
H5826 H 0.89634 0.43174 0.28019 0.0
H5827 H 0.86814 0.43141 0.28098 0.0
H5828 H 0.88391 0.44083 0.30361 0.0
H5829 H 0.88019 0.33441 0.28712 0.0
H5830 H 0.86583 0.34936 0.268 0.0
H5831 H 0.89406 0.35002 0.26776 0.0
H5832 H 0.84373 0.39679 0.22057 0.0
H5833 H 0.91133 0.39655 0.2173 0.0
H5834 H 0.84013 0.40459 0.27437 0.0
H5835 H 0.83896 0.37657 0.27105 0.0
H5836 H 0.8258 0.39262 0.25199 0.0
H5837 H 0.92278 0.40552 0.27104 0.0
H5838 H 0.93335 0.39431 0.24758 0.0
H5839 H 0.92182 0.37754 0.2675 0.0
C5840 C 0.13038 0.39342 0.78662 0.0
C5841 C 0.11215 0.39522 0.79851 0.0
C5842 C 0.12936 0.39222 0.76442 0.0
C5843 C 0.10961 0.39321 0.75348 0.0
C5844 C 0.09106 0.39491 0.76538 0.0
C5845 C 0.09251 0.39566 0.7877 0.0
C5846 C 0.14951 0.3898 0.75267 0.0
C5847 C 0.0697 0.39629 0.75448 0.0
C5848 C 0.11128 0.40761 0.69464 0.0
C5849 C 0.10762 0.38782 0.68471 0.0
C5850 C 0.1115 0.40971 0.71691 0.0
C5851 C 0.10843 0.39158 0.72971 0.0
C5852 C 0.10508 0.37159 0.71973 0.0
C5853 C 0.10454 0.37002 0.69756 0.0
C5854 C 0.11484 0.43139 0.72677 0.0
C5855 C 0.10229 0.3517 0.73249 0.0
H5856 H 0.14561 0.39287 0.79473 0.0
H5857 H 0.07836 0.39731 0.79666 0.0
H5858 H 0.1481 0.3752 0.74287 0.0
H5859 H 0.15219 0.40324 0.74183 0.0
H5860 H 0.16357 0.38904 0.76346 0.0
H5861 H 0.05687 0.39809 0.76583 0.0
H5862 H 0.07004 0.40992 0.74363 0.0
H5863 H 0.06589 0.38189 0.74477 0.0
H5864 H 0.11352 0.42153 0.68501 0.0
H5865 H 0.10192 0.35463 0.6903 0.0
H5866 H 0.12948 0.43222 0.73685 0.0
H5867 H 0.10149 0.43453 0.7371 0.0
H5868 H 0.11616 0.444 0.71476 0.0
H5869 H 0.11645 0.34995 0.74292 0.0
H5870 H 0.09987 0.33734 0.72239 0.0
H5871 H 0.08851 0.35268 0.74279 0.0
C5872 C 0.13536 0.61739 0.32853 0.0
C5873 C 0.13912 0.63687 0.33901 0.0
C5874 C 0.13631 0.61579 0.30629 0.0
C5875 C 0.14176 0.63395 0.2942 0.0
C5876 C 0.14617 0.65349 0.30485 0.0
C5877 C 0.14449 0.65474 0.32691 0.0
C5878 C 0.13104 0.59473 0.29568 0.0
C5879 C 0.15269 0.67317 0.29294 0.0
C5880 C 0.16376 0.62678 0.23905 0.0
C5881 C 0.14664 0.63162 0.22568 0.0
C5882 C 0.16238 0.62749 0.2612 0.0
C5883 C 0.1432 0.63263 0.2705 0.0
C5884 C 0.12573 0.63728 0.25708 0.0
C5885 C 0.12774 0.63699 0.23491 0.0
C5886 C 0.18164 0.62303 0.27467 0.0
C5887 C 0.10484 0.64242 0.26615 0.0
H5888 H 0.13097 0.60355 0.33765 0.0
H5889 H 0.14753 0.66988 0.33478 0.0
H5890 H 0.11762 0.59609 0.28422 0.0
H5891 H 0.14473 0.58981 0.28666 0.0
H5892 H 0.12675 0.58219 0.30715 0.0
H5893 H 0.15655 0.68691 0.30361 0.0
H5894 H 0.16674 0.67036 0.28345 0.0
H5895 H 0.13976 0.67726 0.28181 0.0
H5896 H 0.17848 0.62266 0.23217 0.0
H5897 H 0.11433 0.64052 0.22478 0.0
H5898 H 0.17802 0.60945 0.28509 0.0
H5899 H 0.18611 0.63685 0.285 0.0
H5900 H 0.19544 0.61947 0.26508 0.0
H5901 H 0.09924 0.62958 0.27674 0.0
H5902 H 0.09246 0.64458 0.25371 0.0
H5903 H 0.10682 0.65708 0.27581 0.0
loop_
_geom_bond_atom_site_label_1
_geom_bond_atom_site_label_2
_geom_bond_distance
_geom_bond_site_symmetry_2
_ccdc_geom_bond_type
Co0 O2 2.143 . S
Co0 O8 2.074 . S
Co0 O11 2.093 . S
Co0 O24 2.097 . S
Co0 N41 2.151 . S
Co0 N49 2.214 . S
Co1 O2 2.160 . S
Co1 O7 2.058 . S
Co1 O17 2.057 . S
Co1 O32 2.037 . S
Co1 N36 2.145 . S
Co1 N57 2.257 . S
O2 Co0 2.143 . S
O2 Co1 2.160 . S
C3 O4 1.278 . S
C3 O11 1.224 . S
O4 C3 1.278 . S
C5 O6 1.245 . S
C5 O17 1.232 . S
O6 C5 1.245 . S
O7 Co1 2.058 . S
O7 C33 1.269 . S
O8 Co0 2.074 . S
O8 C33 1.257 . S
H9 C34 0.930 . S
H10 C40 0.930 . S
O11 Co0 2.093 . S
O11 C3 1.224 . S
H12 C44 0.929 . S
H13 C46 0.930 . S
H14 C47 0.930 . S
H15 C45 0.929 . S
H16 C48 0.928 . S
O17 Co1 2.057 . S
O17 C5 1.232 . S
H18 C37 0.929 . S
H19 C38 0.929 . S
H20 C50 0.931 . S
H21 C42 0.929 . S
H22 C51 0.930 . S
H23 C43 0.931 . S
O24 Co0 2.097 . S
O24 C52 1.214 . S
H25 C53 0.929 . S
H26 C54 0.929 . S
H27 C55 0.930 . S
H28 C56 0.929 . S
H29 C58 0.930 . S
H30 C35 0.930 . S
H31 C39 0.930 . S
O32 Co1 2.037 . S
O32 C52 1.234 . S
C33 O7 1.269 . S
C33 O8 1.257 . S
C34 H9 0.930 . S
C34 C37 1.388 . S
C34 C39 1.418 . S
C35 H30 0.930 . S
C35 C38 1.404 . S
C35 C39 1.353 . S
N36 Co1 2.145 . S
N36 C37 1.397 . S
N36 C38 1.334 . S
C37 H18 0.929 . S
C37 C34 1.388 . S
C37 N36 1.397 . S
C38 H19 0.929 . S
C38 C35 1.404 . S
C38 N36 1.334 . S
C39 H31 0.930 . S
C39 C34 1.418 . S
C39 C35 1.353 . S
C40 H10 0.930 . S
C40 N41 1.330 . S
C40 C42 1.446 . S
N41 Co0 2.151 . S
N41 C40 1.330 . S
N41 C45 1.418 . S
C42 H21 0.929 . S
C42 C40 1.446 . S
C42 C43 1.332 . S
C43 H23 0.931 . S
C43 C42 1.332 . S
C43 C44 1.267 . S
C44 H12 0.929 . S
C44 C43 1.267 . S
C44 C45 1.251 . S
C45 H15 0.929 . S
C45 N41 1.418 . S
C45 C44 1.251 . S
C46 H13 0.930 . S
C46 C48 1.406 . S
C46 C51 1.261 . S
C47 H14 0.930 . S
C47 N49 1.325 . S
C47 C50 1.357 . S
C48 H16 0.928 . S
C48 C46 1.406 . S
C48 N49 1.261 . S
N49 Co0 2.214 . S
N49 C47 1.325 . S
N49 C48 1.261 . S
C50 H20 0.931 . S
C50 C47 1.357 . S
C50 C51 1.312 . S
C51 H22 0.930 . S
C51 C46 1.261 . S
C51 C50 1.312 . S
C52 O24 1.214 . S
C52 O32 1.234 . S
C53 H25 0.929 . S
C53 C56 1.391 . S
C53 C58 1.391 . S
C54 H26 0.929 . S
C54 C55 1.390 . S
C54 N57 1.391 . S
C55 H27 0.930 . S
C55 C54 1.390 . S
C55 C56 1.392 . S
C56 H28 0.929 . S
C56 C53 1.391 . S
C56 C55 1.392 . S
N57 Co1 2.257 . S
N57 C54 1.391 . S
N57 C58 1.388 . S
C58 H29 0.930 . S
C58 C53 1.391 . S
C58 N57 1.388 . S
Co59 O61 2.143 . S
Co59 O67 2.074 . S
Co59 O70 2.093 . S
Co59 O83 2.097 . S
Co59 N100 2.151 . S
Co59 N108 2.214 . S
Co60 O61 2.160 . S
Co60 O66 2.058 . S
Co60 O76 2.057 . S
Co60 O91 2.037 . S
Co60 N95 2.145 . S
Co60 N116 2.257 . S
O61 Co59 2.143 . S
O61 Co60 2.160 . S
C62 O63 1.278 . S
C62 O70 1.224 . S
O63 C62 1.278 . S
C64 O65 1.245 . S
C64 O76 1.232 . S
O65 C64 1.245 . S
O66 Co60 2.058 . S
O66 C92 1.269 . S
O67 Co59 2.074 . S
O67 C92 1.257 . S
H68 C93 0.930 . S
H69 C99 0.930 . S
O70 Co59 2.093 . S
O70 C62 1.224 . S
H71 C103 0.929 . S
H72 C105 0.930 . S
H73 C106 0.930 . S
H74 C104 0.929 . S
H75 C107 0.928 . S
O76 Co60 2.057 . S
O76 C64 1.232 . S
H77 C96 0.929 . S
H78 C97 0.929 . S
H79 C109 0.931 . S
H80 C101 0.929 . S
H81 C110 0.930 . S
H82 C102 0.931 . S
O83 Co59 2.097 . S
O83 C111 1.214 . S
H84 C112 0.929 . S
H85 C113 0.929 . S
H86 C114 0.930 . S
H87 C115 0.929 . S
H88 C117 0.930 . S
H89 C94 0.930 . S
H90 C98 0.930 . S
O91 Co60 2.037 . S
O91 C111 1.234 . S
C92 O66 1.269 . S
C92 O67 1.257 . S
C93 H68 0.930 . S
C93 C96 1.388 . S
C93 C98 1.418 . S
C94 H89 0.930 . S
C94 C97 1.404 . S
C94 C98 1.353 . S
N95 Co60 2.145 . S
N95 C96 1.397 . S
N95 C97 1.334 . S
C96 H77 0.929 . S
C96 C93 1.388 . S
C96 N95 1.397 . S
C97 H78 0.929 . S
C97 C94 1.404 . S
C97 N95 1.334 . S
C98 H90 0.930 . S
C98 C93 1.418 . S
C98 C94 1.353 . S
C99 H69 0.930 . S
C99 N100 1.330 . S
C99 C101 1.446 . S
N100 Co59 2.151 . S
N100 C99 1.330 . S
N100 C104 1.418 . S
C101 H80 0.929 . S
C101 C99 1.446 . S
C101 C102 1.332 . S
C102 H82 0.931 . S
C102 C101 1.332 . S
C102 C103 1.267 . S
C103 H71 0.929 . S
C103 C102 1.267 . S
C103 C104 1.251 . S
C104 H74 0.929 . S
C104 N100 1.418 . S
C104 C103 1.251 . S
C105 H72 0.930 . S
C105 C107 1.406 . S
C105 C110 1.261 . S
C106 H73 0.930 . S
C106 N108 1.325 . S
C106 C109 1.357 . S
C107 H75 0.928 . S
C107 C105 1.406 . S
C107 N108 1.261 . S
N108 Co59 2.214 . S
N108 C106 1.325 . S
N108 C107 1.261 . S
C109 H79 0.931 . S
C109 C106 1.357 . S
C109 C110 1.312 . S
C110 H81 0.930 . S
C110 C105 1.261 . S
C110 C109 1.312 . S
C111 O83 1.214 . S
C111 O91 1.234 . S
C112 H84 0.929 . S
C112 C115 1.391 . S
C112 C117 1.391 . S
C113 H85 0.929 . S
C113 C114 1.390 . S
C113 N116 1.391 . S
C114 H86 0.930 . S
C114 C113 1.390 . S
C114 C115 1.392 . S
C115 H87 0.929 . S
C115 C112 1.391 . S
C115 C114 1.392 . S
N116 Co60 2.257 . S
N116 C113 1.391 . S
N116 C117 1.388 . S
C117 H88 0.930 . S
C117 C112 1.391 . S
C117 N116 1.388 . S
Co118 O120 2.143 . S
Co118 O126 2.074 . S
Co118 O129 2.093 . S
Co118 O142 2.097 . S
Co118 N159 2.151 . S
Co118 N167 2.214 . S
Co119 O120 2.160 . S
Co119 O125 2.058 . S
Co119 O135 2.057 . S
Co119 O150 2.037 . S
Co119 N154 2.145 . S
Co119 N175 2.257 . S
O120 Co118 2.143 . S
O120 Co119 2.160 . S
C121 O122 1.278 . S
C121 O129 1.224 . S
O122 C121 1.278 . S
C123 O124 1.245 . S
C123 O135 1.232 . S
O124 C123 1.245 . S
O125 Co119 2.058 . S
O125 C151 1.269 . S
O126 Co118 2.074 . S
O126 C151 1.257 . S
H127 C152 0.930 . S
H128 C158 0.930 . S
O129 Co118 2.093 . S
O129 C121 1.224 . S
H130 C162 0.929 . S
H131 C164 0.930 . S
H132 C165 0.930 . S
H133 C163 0.929 . S
H134 C166 0.928 . S
O135 Co119 2.057 . S
O135 C123 1.232 . S
H136 C155 0.929 . S
H137 C156 0.929 . S
H138 C168 0.931 . S
H139 C160 0.929 . S
H140 C169 0.930 . S
H141 C161 0.931 . S
O142 Co118 2.097 . S
O142 C170 1.214 . S
H143 C171 0.929 . S
H144 C172 0.929 . S
H145 C173 0.930 . S
H146 C174 0.929 . S
H147 C176 0.930 . S
H148 C153 0.930 . S
H149 C157 0.930 . S
O150 Co119 2.037 . S
O150 C170 1.234 . S
C151 O125 1.269 . S
C151 O126 1.257 . S
C152 H127 0.930 . S
C152 C155 1.388 . S
C152 C157 1.418 . S
C153 H148 0.930 . S
C153 C156 1.404 . S
C153 C157 1.353 . S
N154 Co119 2.145 . S
N154 C155 1.397 . S
N154 C156 1.334 . S
C155 H136 0.929 . S
C155 C152 1.388 . S
C155 N154 1.397 . S
C156 H137 0.929 . S
C156 C153 1.404 . S
C156 N154 1.334 . S
C157 H149 0.930 . S
C157 C152 1.418 . S
C157 C153 1.353 . S
C158 H128 0.930 . S
C158 N159 1.330 . S
C158 C160 1.446 . S
N159 Co118 2.151 . S
N159 C158 1.330 . S
N159 C163 1.418 . S
C160 H139 0.929 . S
C160 C158 1.446 . S
C160 C161 1.332 . S
C161 H141 0.931 . S
C161 C160 1.332 . S
C161 C162 1.267 . S
C162 H130 0.929 . S
C162 C161 1.267 . S
C162 C163 1.251 . S
C163 H133 0.929 . S
C163 N159 1.418 . S
C163 C162 1.251 . S
C164 H131 0.930 . S
C164 C166 1.406 . S
C164 C169 1.261 . S
C165 H132 0.930 . S
C165 N167 1.325 . S
C165 C168 1.357 . S
C166 H134 0.928 . S
C166 C164 1.406 . S
C166 N167 1.261 . S
N167 Co118 2.214 . S
N167 C165 1.325 . S
N167 C166 1.261 . S
C168 H138 0.931 . S
C168 C165 1.357 . S
C168 C169 1.312 . S
C169 H140 0.930 . S
C169 C164 1.261 . S
C169 C168 1.312 . S
C170 O142 1.214 . S
C170 O150 1.234 . S
C171 H143 0.929 . S
C171 C174 1.391 . S
C171 C176 1.391 . S
C172 H144 0.929 . S
C172 C173 1.390 . S
C172 N175 1.391 . S
C173 H145 0.930 . S
C173 C172 1.390 . S
C173 C174 1.392 . S
C174 H146 0.929 . S
C174 C171 1.391 . S
C174 C173 1.392 . S
N175 Co119 2.257 . S
N175 C172 1.391 . S
N175 C176 1.388 . S
C176 H147 0.930 . S
C176 C171 1.391 . S
C176 N175 1.388 . S
Co177 O179 2.143 . S
Co177 O185 2.074 . S
Co177 O188 2.093 . S
Co177 O201 2.097 . S
Co177 N218 2.151 . S
Co177 N226 2.214 . S
Co178 O179 2.160 . S
Co178 O184 2.058 . S
Co178 O194 2.057 . S
Co178 O209 2.037 . S
Co178 N213 2.145 . S
Co178 N234 2.257 . S
O179 Co177 2.143 . S
O179 Co178 2.160 . S
C180 O181 1.278 . S
C180 O188 1.224 . S
O181 C180 1.278 . S
C182 O183 1.245 . S
C182 O194 1.232 . S
O183 C182 1.245 . S
O184 Co178 2.058 . S
O184 C210 1.269 . S
O185 Co177 2.074 . S
O185 C210 1.257 . S
H186 C211 0.930 . S
H187 C217 0.930 . S
O188 Co177 2.093 . S
O188 C180 1.224 . S
H189 C221 0.929 . S
H190 C223 0.930 . S
H191 C224 0.930 . S
H192 C222 0.929 . S
H193 C225 0.928 . S
O194 Co178 2.057 . S
O194 C182 1.232 . S
H195 C214 0.929 . S
H196 C215 0.929 . S
H197 C227 0.931 . S
H198 C219 0.929 . S
H199 C228 0.930 . S
H200 C220 0.931 . S
O201 Co177 2.097 . S
O201 C229 1.214 . S
H202 C230 0.929 . S
H203 C231 0.929 . S
H204 C232 0.930 . S
H205 C233 0.929 . S
H206 C235 0.930 . S
H207 C212 0.930 . S
H208 C216 0.930 . S
O209 Co178 2.037 . S
O209 C229 1.234 . S
C210 O184 1.269 . S
C210 O185 1.257 . S
C211 H186 0.930 . S
C211 C214 1.388 . S
C211 C216 1.418 . S
C212 H207 0.930 . S
C212 C215 1.404 . S
C212 C216 1.353 . S
N213 Co178 2.145 . S
N213 C214 1.397 . S
N213 C215 1.334 . S
C214 H195 0.929 . S
C214 C211 1.388 . S
C214 N213 1.397 . S
C215 H196 0.929 . S
C215 C212 1.404 . S
C215 N213 1.334 . S
C216 H208 0.930 . S
C216 C211 1.418 . S
C216 C212 1.353 . S
C217 H187 0.930 . S
C217 N218 1.330 . S
C217 C219 1.446 . S
N218 Co177 2.151 . S
N218 C217 1.330 . S
N218 C222 1.418 . S
C219 H198 0.929 . S
C219 C217 1.446 . S
C219 C220 1.332 . S
C220 H200 0.931 . S
C220 C219 1.332 . S
C220 C221 1.267 . S
C221 H189 0.929 . S
C221 C220 1.267 . S
C221 C222 1.251 . S
C222 H192 0.929 . S
C222 N218 1.418 . S
C222 C221 1.251 . S
C223 H190 0.930 . S
C223 C225 1.406 . S
C223 C228 1.261 . S
C224 H191 0.930 . S
C224 N226 1.325 . S
C224 C227 1.357 . S
C225 H193 0.928 . S
C225 C223 1.406 . S
C225 N226 1.261 . S
N226 Co177 2.214 . S
N226 C224 1.325 . S
N226 C225 1.261 . S
C227 H197 0.931 . S
C227 C224 1.357 . S
C227 C228 1.312 . S
C228 H199 0.930 . S
C228 C223 1.261 . S
C228 C227 1.312 . S
C229 O201 1.214 . S
C229 O209 1.234 . S
C230 H202 0.929 . S
C230 C233 1.391 . S
C230 C235 1.391 . S
C231 H203 0.929 . S
C231 C232 1.390 . S
C231 N234 1.391 . S
C232 H204 0.930 . S
C232 C231 1.390 . S
C232 C233 1.392 . S
C233 H205 0.929 . S
C233 C230 1.391 . S
C233 C232 1.392 . S
N234 Co178 2.257 . S
N234 C231 1.391 . S
N234 C235 1.388 . S
C235 H206 0.930 . S
C235 C230 1.391 . S
C235 N234 1.388 . S
Co236 O238 2.143 . S
Co236 O244 2.074 . S
Co236 O247 2.093 . S
Co236 O260 2.097 . S
Co236 N277 2.151 . S
Co236 N285 2.214 . S
Co237 O238 2.160 . S
Co237 O243 2.058 . S
Co237 O253 2.057 . S
Co237 O268 2.037 . S
Co237 N272 2.145 . S
Co237 N293 2.257 . S
O238 Co236 2.143 . S
O238 Co237 2.160 . S
C239 O240 1.278 . S
C239 O247 1.224 . S
O240 C239 1.278 . S
C241 O242 1.245 . S
C241 O253 1.232 . S
O242 C241 1.245 . S
O243 Co237 2.058 . S
O243 C269 1.269 . S
O244 Co236 2.074 . S
O244 C269 1.257 . S
H245 C270 0.930 . S
H246 C276 0.930 . S
O247 Co236 2.093 . S
O247 C239 1.224 . S
H248 C280 0.929 . S
H249 C282 0.930 . S
H250 C283 0.930 . S
H251 C281 0.929 . S
H252 C284 0.928 . S
O253 Co237 2.057 . S
O253 C241 1.232 . S
H254 C273 0.929 . S
H255 C274 0.929 . S
H256 C286 0.931 . S
H257 C278 0.929 . S
H258 C287 0.930 . S
H259 C279 0.931 . S
O260 Co236 2.097 . S
O260 C288 1.214 . S
H261 C289 0.929 . S
H262 C290 0.929 . S
H263 C291 0.930 . S
H264 C292 0.929 . S
H265 C294 0.930 . S
H266 C271 0.930 . S
H267 C275 0.930 . S
O268 Co237 2.037 . S
O268 C288 1.234 . S
C269 O243 1.269 . S
C269 O244 1.257 . S
C270 H245 0.930 . S
C270 C273 1.388 . S
C270 C275 1.418 . S
C271 H266 0.930 . S
C271 C274 1.404 . S
C271 C275 1.353 . S
N272 Co237 2.145 . S
N272 C273 1.397 . S
N272 C274 1.334 . S
C273 H254 0.929 . S
C273 C270 1.388 . S
C273 N272 1.397 . S
C274 H255 0.929 . S
C274 C271 1.404 . S
C274 N272 1.334 . S
C275 H267 0.930 . S
C275 C270 1.418 . S
C275 C271 1.353 . S
C276 H246 0.930 . S
C276 N277 1.330 . S
C276 C278 1.446 . S
N277 Co236 2.151 . S
N277 C276 1.330 . S
N277 C281 1.418 . S
C278 H257 0.929 . S
C278 C276 1.446 . S
C278 C279 1.332 . S
C279 H259 0.931 . S
C279 C278 1.332 . S
C279 C280 1.267 . S
C280 H248 0.929 . S
C280 C279 1.267 . S
C280 C281 1.251 . S
C281 H251 0.929 . S
C281 N277 1.418 . S
C281 C280 1.251 . S
C282 H249 0.930 . S
C282 C284 1.406 . S
C282 C287 1.261 . S
C283 H250 0.930 . S
C283 N285 1.325 . S
C283 C286 1.357 . S
C284 H252 0.928 . S
C284 C282 1.406 . S
C284 N285 1.261 . S
N285 Co236 2.214 . S
N285 C283 1.325 . S
N285 C284 1.261 . S
C286 H256 0.931 . S
C286 C283 1.357 . S
C286 C287 1.312 . S
C287 H258 0.930 . S
C287 C282 1.261 . S
C287 C286 1.312 . S
C288 O260 1.214 . S
C288 O268 1.234 . S
C289 H261 0.929 . S
C289 C292 1.391 . S
C289 C294 1.391 . S
C290 H262 0.929 . S
C290 C291 1.390 . S
C290 N293 1.391 . S
C291 H263 0.930 . S
C291 C290 1.390 . S
C291 C292 1.392 . S
C292 H264 0.929 . S
C292 C289 1.391 . S
C292 C291 1.392 . S
N293 Co237 2.257 . S
N293 C290 1.391 . S
N293 C294 1.388 . S
C294 H265 0.930 . S
C294 C289 1.391 . S
C294 N293 1.388 . S
Co295 O297 2.143 . S
Co295 O303 2.074 . S
Co295 O306 2.093 . S
Co295 O319 2.097 . S
Co295 N336 2.151 . S
Co295 N344 2.214 . S
Co296 O297 2.160 . S
Co296 O302 2.058 . S
Co296 O312 2.057 . S
Co296 O327 2.037 . S
Co296 N331 2.145 . S
Co296 N352 2.257 . S
O297 Co295 2.143 . S
O297 Co296 2.160 . S
C298 O299 1.278 . S
C298 O306 1.224 . S
O299 C298 1.278 . S
C300 O301 1.245 . S
C300 O312 1.232 . S
O301 C300 1.245 . S
O302 Co296 2.058 . S
O302 C328 1.269 . S
O303 Co295 2.074 . S
O303 C328 1.257 . S
H304 C329 0.930 . S
H305 C335 0.930 . S
O306 Co295 2.093 . S
O306 C298 1.224 . S
H307 C339 0.929 . S
H308 C341 0.930 . S
H309 C342 0.930 . S
H310 C340 0.929 . S
H311 C343 0.928 . S
O312 Co296 2.057 . S
O312 C300 1.232 . S
H313 C332 0.929 . S
H314 C333 0.929 . S
H315 C345 0.931 . S
H316 C337 0.929 . S
H317 C346 0.930 . S
H318 C338 0.931 . S
O319 Co295 2.097 . S
O319 C347 1.214 . S
H320 C348 0.929 . S
H321 C349 0.929 . S
H322 C350 0.930 . S
H323 C351 0.929 . S
H324 C353 0.930 . S
H325 C330 0.930 . S
H326 C334 0.930 . S
O327 Co296 2.037 . S
O327 C347 1.234 . S
C328 O302 1.269 . S
C328 O303 1.257 . S
C329 H304 0.930 . S
C329 C332 1.388 . S
C329 C334 1.418 . S
C330 H325 0.930 . S
C330 C333 1.404 . S
C330 C334 1.353 . S
N331 Co296 2.145 . S
N331 C332 1.397 . S
N331 C333 1.334 . S
C332 H313 0.929 . S
C332 C329 1.388 . S
C332 N331 1.397 . S
C333 H314 0.929 . S
C333 C330 1.404 . S
C333 N331 1.334 . S
C334 H326 0.930 . S
C334 C329 1.418 . S
C334 C330 1.353 . S
C335 H305 0.930 . S
C335 N336 1.330 . S
C335 C337 1.446 . S
N336 Co295 2.151 . S
N336 C335 1.330 . S
N336 C340 1.418 . S
C337 H316 0.929 . S
C337 C335 1.446 . S
C337 C338 1.332 . S
C338 H318 0.931 . S
C338 C337 1.332 . S
C338 C339 1.267 . S
C339 H307 0.929 . S
C339 C338 1.267 . S
C339 C340 1.251 . S
C340 H310 0.929 . S
C340 N336 1.418 . S
C340 C339 1.251 . S
C341 H308 0.930 . S
C341 C343 1.406 . S
C341 C346 1.261 . S
C342 H309 0.930 . S
C342 N344 1.325 . S
C342 C345 1.357 . S
C343 H311 0.928 . S
C343 C341 1.406 . S
C343 N344 1.261 . S
N344 Co295 2.214 . S
N344 C342 1.325 . S
N344 C343 1.261 . S
C345 H315 0.931 . S
C345 C342 1.357 . S
C345 C346 1.312 . S
C346 H317 0.930 . S
C346 C341 1.261 . S
C346 C345 1.312 . S
C347 O319 1.214 . S
C347 O327 1.234 . S
C348 H320 0.929 . S
C348 C351 1.391 . S
C348 C353 1.391 . S
C349 H321 0.929 . S
C349 C350 1.390 . S
C349 N352 1.391 . S
C350 H322 0.930 . S
C350 C349 1.390 . S
C350 C351 1.392 . S
C351 H323 0.929 . S
C351 C348 1.391 . S
C351 C350 1.392 . S
N352 Co296 2.257 . S
N352 C349 1.391 . S
N352 C353 1.388 . S
C353 H324 0.930 . S
C353 C348 1.391 . S
C353 N352 1.388 . S
Co354 O356 2.143 . S
Co354 O362 2.074 . S
Co354 O365 2.093 . S
Co354 O378 2.097 . S
Co354 N395 2.151 . S
Co354 N403 2.214 . S
Co355 O356 2.160 . S
Co355 O361 2.058 . S
Co355 O371 2.057 . S
Co355 O386 2.037 . S
Co355 N390 2.145 . S
Co355 N411 2.257 . S
O356 Co354 2.143 . S
O356 Co355 2.160 . S
C357 O358 1.278 . S
C357 O365 1.224 . S
O358 C357 1.278 . S
C359 O360 1.245 . S
C359 O371 1.232 . S
O360 C359 1.245 . S
O361 Co355 2.058 . S
O361 C387 1.269 . S
O362 Co354 2.074 . S
O362 C387 1.257 . S
H363 C388 0.930 . S
H364 C394 0.930 . S
O365 Co354 2.093 . S
O365 C357 1.224 . S
H366 C398 0.929 . S
H367 C400 0.930 . S
H368 C401 0.930 . S
H369 C399 0.929 . S
H370 C402 0.928 . S
O371 Co355 2.057 . S
O371 C359 1.232 . S
H372 C391 0.929 . S
H373 C392 0.929 . S
H374 C404 0.931 . S
H375 C396 0.929 . S
H376 C405 0.930 . S
H377 C397 0.931 . S
O378 Co354 2.097 . S
O378 C406 1.214 . S
H379 C407 0.929 . S
H380 C408 0.929 . S
H381 C409 0.930 . S
H382 C410 0.929 . S
H383 C412 0.930 . S
H384 C389 0.930 . S
H385 C393 0.930 . S
O386 Co355 2.037 . S
O386 C406 1.234 . S
C387 O361 1.269 . S
C387 O362 1.257 . S
C388 H363 0.930 . S
C388 C391 1.388 . S
C388 C393 1.418 . S
C389 H384 0.930 . S
C389 C392 1.404 . S
C389 C393 1.353 . S
N390 Co355 2.145 . S
N390 C391 1.397 . S
N390 C392 1.334 . S
C391 H372 0.929 . S
C391 C388 1.388 . S
C391 N390 1.397 . S
C392 H373 0.929 . S
C392 C389 1.404 . S
C392 N390 1.334 . S
C393 H385 0.930 . S
C393 C388 1.418 . S
C393 C389 1.353 . S
C394 H364 0.930 . S
C394 N395 1.330 . S
C394 C396 1.446 . S
N395 Co354 2.151 . S
N395 C394 1.330 . S
N395 C399 1.418 . S
C396 H375 0.929 . S
C396 C394 1.446 . S
C396 C397 1.332 . S
C397 H377 0.931 . S
C397 C396 1.332 . S
C397 C398 1.267 . S
C398 H366 0.929 . S
C398 C397 1.267 . S
C398 C399 1.251 . S
C399 H369 0.929 . S
C399 N395 1.418 . S
C399 C398 1.251 . S
C400 H367 0.930 . S
C400 C402 1.406 . S
C400 C405 1.261 . S
C401 H368 0.930 . S
C401 N403 1.325 . S
C401 C404 1.357 . S
C402 H370 0.928 . S
C402 C400 1.406 . S
C402 N403 1.261 . S
N403 Co354 2.214 . S
N403 C401 1.325 . S
N403 C402 1.261 . S
C404 H374 0.931 . S
C404 C401 1.357 . S
C404 C405 1.312 . S
C405 H376 0.930 . S
C405 C400 1.261 . S
C405 C404 1.312 . S
C406 O378 1.214 . S
C406 O386 1.234 . S
C407 H379 0.929 . S
C407 C410 1.391 . S
C407 C412 1.391 . S
C408 H380 0.929 . S
C408 C409 1.390 . S
C408 N411 1.391 . S
C409 H381 0.930 . S
C409 C408 1.390 . S
C409 C410 1.392 . S
C410 H382 0.929 . S
C410 C407 1.391 . S
C410 C409 1.392 . S
N411 Co355 2.257 . S
N411 C408 1.391 . S
N411 C412 1.388 . S
C412 H383 0.930 . S
C412 C407 1.391 . S
C412 N411 1.388 . S
Co413 O415 2.143 . S
Co413 O421 2.074 . S
Co413 O424 2.093 . S
Co413 O437 2.097 . S
Co413 N454 2.151 . S
Co413 N462 2.214 . S
Co414 O415 2.160 . S
Co414 O420 2.058 . S
Co414 O430 2.057 . S
Co414 O445 2.037 . S
Co414 N449 2.145 . S
Co414 N470 2.257 . S
O415 Co413 2.143 . S
O415 Co414 2.160 . S
C416 O417 1.278 . S
C416 O424 1.224 . S
O417 C416 1.278 . S
C418 O419 1.245 . S
C418 O430 1.232 . S
O419 C418 1.245 . S
O420 Co414 2.058 . S
O420 C446 1.269 . S
O421 Co413 2.074 . S
O421 C446 1.257 . S
H422 C447 0.930 . S
H423 C453 0.930 . S
O424 Co413 2.093 . S
O424 C416 1.224 . S
H425 C457 0.929 . S
H426 C459 0.930 . S
H427 C460 0.930 . S
H428 C458 0.929 . S
H429 C461 0.928 . S
O430 Co414 2.057 . S
O430 C418 1.232 . S
H431 C450 0.929 . S
H432 C451 0.929 . S
H433 C463 0.931 . S
H434 C455 0.929 . S
H435 C464 0.930 . S
H436 C456 0.931 . S
O437 Co413 2.097 . S
O437 C465 1.214 . S
H438 C466 0.929 . S
H439 C467 0.929 . S
H440 C468 0.930 . S
H441 C469 0.929 . S
H442 C471 0.930 . S
H443 C448 0.930 . S
H444 C452 0.930 . S
O445 Co414 2.037 . S
O445 C465 1.234 . S
C446 O420 1.269 . S
C446 O421 1.257 . S
C447 H422 0.930 . S
C447 C450 1.388 . S
C447 C452 1.418 . S
C448 H443 0.930 . S
C448 C451 1.404 . S
C448 C452 1.353 . S
N449 Co414 2.145 . S
N449 C450 1.397 . S
N449 C451 1.334 . S
C450 H431 0.929 . S
C450 C447 1.388 . S
C450 N449 1.397 . S
C451 H432 0.929 . S
C451 C448 1.404 . S
C451 N449 1.334 . S
C452 H444 0.930 . S
C452 C447 1.418 . S
C452 C448 1.353 . S
C453 H423 0.930 . S
C453 N454 1.330 . S
C453 C455 1.446 . S
N454 Co413 2.151 . S
N454 C453 1.330 . S
N454 C458 1.418 . S
C455 H434 0.929 . S
C455 C453 1.446 . S
C455 C456 1.332 . S
C456 H436 0.931 . S
C456 C455 1.332 . S
C456 C457 1.267 . S
C457 H425 0.929 . S
C457 C456 1.267 . S
C457 C458 1.251 . S
C458 H428 0.929 . S
C458 N454 1.418 . S
C458 C457 1.251 . S
C459 H426 0.930 . S
C459 C461 1.406 . S
C459 C464 1.261 . S
C460 H427 0.930 . S
C460 N462 1.325 . S
C460 C463 1.357 . S
C461 H429 0.928 . S
C461 C459 1.406 . S
C461 N462 1.261 . S
N462 Co413 2.214 . S
N462 C460 1.325 . S
N462 C461 1.261 . S
C463 H433 0.931 . S
C463 C460 1.357 . S
C463 C464 1.312 . S
C464 H435 0.930 . S
C464 C459 1.261 . S
C464 C463 1.312 . S
C465 O437 1.214 . S
C465 O445 1.234 . S
C466 H438 0.929 . S
C466 C469 1.391 . S
C466 C471 1.391 . S
C467 H439 0.929 . S
C467 C468 1.390 . S
C467 N470 1.391 . S
C468 H440 0.930 . S
C468 C467 1.390 . S
C468 C469 1.392 . S
C469 H441 0.929 . S
C469 C466 1.391 . S
C469 C468 1.392 . S
N470 Co414 2.257 . S
N470 C467 1.391 . S
N470 C471 1.388 . S
C471 H442 0.930 . S
C471 C466 1.391 . S
C471 N470 1.388 . S
Co472 O474 2.143 . S
Co472 O480 2.074 . S
Co472 O483 2.093 . S
Co472 O496 2.097 . S
Co472 N513 2.151 . S
Co472 N521 2.214 . S
Co473 O474 2.160 . S
Co473 O479 2.058 . S
Co473 O489 2.057 . S
Co473 O504 2.037 . S
Co473 N508 2.145 . S
Co473 N529 2.257 . S
O474 Co472 2.143 . S
O474 Co473 2.160 . S
C475 O476 1.278 . S
C475 O483 1.224 . S
O476 C475 1.278 . S
C477 O478 1.245 . S
C477 O489 1.232 . S
O478 C477 1.245 . S
O479 Co473 2.058 . S
O479 C505 1.269 . S
O480 Co472 2.074 . S
O480 C505 1.257 . S
H481 C506 0.930 . S
H482 C512 0.930 . S
O483 Co472 2.093 . S
O483 C475 1.224 . S
H484 C516 0.929 . S
H485 C518 0.930 . S
H486 C519 0.930 . S
H487 C517 0.929 . S
H488 C520 0.928 . S
O489 Co473 2.057 . S
O489 C477 1.232 . S
H490 C509 0.929 . S
H491 C510 0.929 . S
H492 C522 0.931 . S
H493 C514 0.929 . S
H494 C523 0.930 . S
H495 C515 0.931 . S
O496 Co472 2.097 . S
O496 C524 1.214 . S
H497 C525 0.929 . S
H498 C526 0.929 . S
H499 C527 0.930 . S
H500 C528 0.929 . S
H501 C530 0.930 . S
H502 C507 0.930 . S
H503 C511 0.983 . S
O504 Co473 2.037 . S
O504 C524 1.234 . S
C505 O479 1.269 . S
C505 O480 1.257 . S
C506 H481 0.930 . S
C506 C509 1.388 . S
C506 C511 1.418 . S
C507 H502 0.930 . S
C507 C510 1.404 . S
C507 C511 1.353 . S
N508 Co473 2.145 . S
N508 C509 1.397 . S
N508 C510 1.334 . S
C509 H490 0.929 . S
C509 C506 1.388 . S
C509 N508 1.397 . S
C510 H491 0.929 . S
C510 C507 1.404 . S
C510 N508 1.334 . S
C511 H503 0.983 . S
C511 C506 1.418 . S
C511 C507 1.353 . S
C512 H482 0.930 . S
C512 N513 1.330 . S
C512 C514 1.446 . S
N513 Co472 2.151 . S
N513 C512 1.330 . S
N513 C517 1.418 . S
C514 H493 0.929 . S
C514 C512 1.446 . S
C514 C515 1.332 . S
C515 H495 0.931 . S
C515 C514 1.332 . S
C515 C516 1.267 . S
C516 H484 0.929 . S
C516 C515 1.267 . S
C516 C517 1.251 . S
C517 H487 0.929 . S
C517 N513 1.418 . S
C517 C516 1.251 . S
C518 H485 0.930 . S
C518 C520 1.406 . S
C518 C523 1.261 . S
C519 H486 0.930 . S
C519 N521 1.325 . S
C519 C522 1.357 . S
C520 H488 0.928 . S
C520 C518 1.406 . S
C520 N521 1.261 . S
N521 Co472 2.214 . S
N521 C519 1.325 . S
N521 C520 1.261 . S
C522 H492 0.931 . S
C522 C519 1.357 . S
C522 C523 1.312 . S
C523 H494 0.930 . S
C523 C518 1.261 . S
C523 C522 1.312 . S
C524 O496 1.214 . S
C524 O504 1.234 . S
C525 H497 0.929 . S
C525 C528 1.391 . S
C525 C530 1.391 . S
C526 H498 0.929 . S
C526 C527 1.390 . S
C526 N529 1.391 . S
C527 H499 0.930 . S
C527 C526 1.390 . S
C527 C528 1.392 . S
C528 H500 0.929 . S
C528 C525 1.391 . S
C528 C527 1.392 . S
N529 Co473 2.257 . S
N529 C526 1.391 . S
N529 C530 1.388 . S
C530 H501 0.930 . S
C530 C525 1.391 . S
C530 N529 1.388 . S
Co531 O533 2.143 . S
Co531 O539 2.074 . S
Co531 O542 2.093 . S
Co531 O555 2.097 . S
Co531 N572 2.151 . S
Co531 N580 2.214 . S
Co532 O533 2.160 . S
Co532 O538 2.058 . S
Co532 O548 2.057 . S
Co532 O563 2.037 . S
Co532 N567 2.145 . S
Co532 N588 2.257 . S
O533 Co531 2.143 . S
O533 Co532 2.160 . S
C534 O535 1.278 . S
C534 O542 1.224 . S
O535 C534 1.278 . S
C536 O537 1.245 . S
C536 O548 1.232 . S
O537 C536 1.245 . S
O538 Co532 2.058 . S
O538 C564 1.269 . S
O539 Co531 2.074 . S
O539 C564 1.257 . S
H540 C565 0.930 . S
H541 C571 0.930 . S
O542 Co531 2.093 . S
O542 C534 1.224 . S
H543 C575 0.929 . S
H544 C577 0.930 . S
H545 C578 0.930 . S
H546 C576 0.929 . S
H547 C579 0.928 . S
O548 Co532 2.057 . S
O548 C536 1.232 . S
H549 C568 0.929 . S
H550 C569 0.929 . S
H551 C581 0.931 . S
H552 C573 0.929 . S
H553 C582 0.930 . S
H554 C574 0.931 . S
O555 Co531 2.097 . S
O555 C583 1.214 . S
H556 C584 0.929 . S
H557 C585 0.929 . S
H558 C586 0.930 . S
H559 C587 0.929 . S
H560 C589 0.930 . S
H561 C566 0.930 . S
H562 C570 0.930 . S
O563 Co532 2.037 . S
O563 C583 1.234 . S
C564 O538 1.269 . S
C564 O539 1.257 . S
C565 H540 0.930 . S
C565 C568 1.388 . S
C565 C570 1.418 . S
C566 H561 0.930 . S
C566 C569 1.404 . S
C566 C570 1.353 . S
N567 Co532 2.145 . S
N567 C568 1.397 . S
N567 C569 1.334 . S
C568 H549 0.929 . S
C568 C565 1.388 . S
C568 N567 1.397 . S
C569 H550 0.929 . S
C569 C566 1.404 . S
C569 N567 1.334 . S
C570 H562 0.930 . S
C570 C565 1.418 . S
C570 C566 1.353 . S
C571 H541 0.930 . S
C571 N572 1.330 . S
C571 C573 1.446 . S
N572 Co531 2.151 . S
N572 C571 1.330 . S
N572 C576 1.418 . S
C573 H552 0.929 . S
C573 C571 1.446 . S
C573 C574 1.332 . S
C574 H554 0.931 . S
C574 C573 1.332 . S
C574 C575 1.267 . S
C575 H543 0.929 . S
C575 C574 1.267 . S
C575 C576 1.251 . S
C576 H546 0.929 . S
C576 N572 1.418 . S
C576 C575 1.251 . S
C577 H544 0.930 . S
C577 C579 1.406 . S
C577 C582 1.261 . S
C578 H545 0.930 . S
C578 N580 1.325 . S
C578 C581 1.357 . S
C579 H547 0.928 . S
C579 C577 1.406 . S
C579 N580 1.261 . S
N580 Co531 2.214 . S
N580 C578 1.325 . S
N580 C579 1.261 . S
C581 H551 0.931 . S
C581 C578 1.357 . S
C581 C582 1.312 . S
C582 H553 0.930 . S
C582 C577 1.261 . S
C582 C581 1.312 . S
C583 O555 1.214 . S
C583 O563 1.234 . S
C584 H556 0.929 . S
C584 C587 1.391 . S
C584 C589 1.391 . S
C585 H557 0.929 . S
C585 C586 1.390 . S
C585 N588 1.391 . S
C586 H558 0.930 . S
C586 C585 1.390 . S
C586 C587 1.392 . S
C587 H559 0.929 . S
C587 C584 1.391 . S
C587 C586 1.392 . S
N588 Co532 2.257 . S
N588 C585 1.391 . S
N588 C589 1.388 . S
C589 H560 0.930 . S
C589 C584 1.391 . S
C589 N588 1.388 . S
Co590 O592 2.143 . S
Co590 O598 2.074 . S
Co590 O601 2.093 . S
Co590 O614 2.097 . S
Co590 N631 2.151 . S
Co590 N639 2.214 . S
Co591 O592 2.160 . S
Co591 O597 2.058 . S
Co591 O607 2.057 . S
Co591 O622 2.037 . S
Co591 N626 2.145 . S
Co591 N647 2.257 . S
O592 Co590 2.143 . S
O592 Co591 2.160 . S
C593 O594 1.278 . S
C593 O601 1.224 . S
O594 C593 1.278 . S
C595 O596 1.245 . S
C595 O607 1.232 . S
O596 C595 1.245 . S
O597 Co591 2.058 . S
O597 C623 1.269 . S
O598 Co590 2.074 . S
O598 C623 1.257 . S
H599 C624 0.930 . S
H600 C630 0.930 . S
O601 Co590 2.093 . S
O601 C593 1.224 . S
H602 C634 0.929 . S
H603 C636 0.930 . S
H604 C637 0.930 . S
H605 C635 0.929 . S
H606 C638 0.928 . S
O607 Co591 2.057 . S
O607 C595 1.232 . S
H608 C627 0.929 . S
H609 C628 0.929 . S
H610 C640 0.931 . S
H611 C632 0.929 . S
H612 C641 0.930 . S
H613 C633 0.931 . S
O614 Co590 2.097 . S
O614 C642 1.214 . S
H615 C643 0.929 . S
H616 C644 0.929 . S
H617 C645 0.930 . S
H618 C646 0.929 . S
H619 C648 0.930 . S
H620 C625 0.930 . S
H621 C629 0.930 . S
O622 Co591 2.037 . S
O622 C642 1.234 . S
C623 O597 1.269 . S
C623 O598 1.257 . S
C624 H599 0.930 . S
C624 C627 1.388 . S
C624 C629 1.418 . S
C625 H620 0.930 . S
C625 C628 1.404 . S
C625 C629 1.353 . S
N626 Co591 2.145 . S
N626 C627 1.397 . S
N626 C628 1.334 . S
C627 H608 0.929 . S
C627 C624 1.388 . S
C627 N626 1.397 . S
C628 H609 0.929 . S
C628 C625 1.404 . S
C628 N626 1.334 . S
C629 H621 0.930 . S
C629 C624 1.418 . S
C629 C625 1.353 . S
C630 H600 0.930 . S
C630 N631 1.330 . S
C630 C632 1.446 . S
N631 Co590 2.151 . S
N631 C630 1.330 . S
N631 C635 1.418 . S
C632 H611 0.929 . S
C632 C630 1.446 . S
C632 C633 1.332 . S
C633 H613 0.931 . S
C633 C632 1.332 . S
C633 C634 1.267 . S
C634 H602 0.929 . S
C634 C633 1.267 . S
C634 C635 1.251 . S
C635 H605 0.929 . S
C635 N631 1.418 . S
C635 C634 1.251 . S
C636 H603 0.930 . S
C636 C638 1.406 . S
C636 C641 1.261 . S
C637 H604 0.930 . S
C637 N639 1.325 . S
C637 C640 1.357 . S
C638 H606 0.928 . S
C638 C636 1.406 . S
C638 N639 1.261 . S
N639 Co590 2.214 . S
N639 C637 1.325 . S
N639 C638 1.261 . S
C640 H610 0.931 . S
C640 C637 1.357 . S
C640 C641 1.312 . S
C641 H612 0.930 . S
C641 C636 1.261 . S
C641 C640 1.312 . S
C642 O614 1.214 . S
C642 O622 1.234 . S
C643 H615 0.929 . S
C643 C646 1.391 . S
C643 C648 1.391 . S
C644 H616 0.929 . S
C644 C645 1.390 . S
C644 N647 1.391 . S
C645 H617 0.930 . S
C645 C644 1.390 . S
C645 C646 1.392 . S
C646 H618 0.929 . S
C646 C643 1.391 . S
C646 C645 1.392 . S
N647 Co591 2.257 . S
N647 C644 1.391 . S
N647 C648 1.388 . S
C648 H619 0.930 . S
C648 C643 1.391 . S
C648 N647 1.388 . S
Co649 O651 2.143 . S
Co649 O657 2.074 . S
Co649 O660 2.093 . S
Co649 O673 2.097 . S
Co649 N690 2.151 . S
Co649 N698 2.214 . S
Co650 O651 2.160 . S
Co650 O656 2.058 . S
Co650 O666 2.057 . S
Co650 O681 2.037 . S
Co650 N685 2.145 . S
Co650 N706 2.257 . S
O651 Co649 2.143 . S
O651 Co650 2.160 . S
C652 O653 1.278 . S
C652 O660 1.224 . S
O653 C652 1.278 . S
C654 O655 1.245 . S
C654 O666 1.232 . S
O655 C654 1.245 . S
O656 Co650 2.058 . S
O656 C682 1.269 . S
O657 Co649 2.074 . S
O657 C682 1.257 . S
H658 C683 0.930 . S
H659 C689 0.930 . S
O660 Co649 2.093 . S
O660 C652 1.224 . S
H661 C693 0.929 . S
H662 C695 0.930 . S
H663 C696 0.930 . S
H664 C694 0.929 . S
H665 C697 0.928 . S
O666 Co650 2.057 . S
O666 C654 1.232 . S
H667 C686 0.929 . S
H668 C687 0.929 . S
H669 C699 0.931 . S
H670 C691 0.929 . S
H671 C700 0.930 . S
H672 C692 0.931 . S
O673 Co649 2.097 . S
O673 C701 1.214 . S
H674 C702 0.929 . S
H675 C703 0.929 . S
H676 C704 0.930 . S
H677 C705 0.929 . S
H678 C707 0.930 . S
H679 C684 0.930 . S
H680 C688 0.930 . S
O681 Co650 2.037 . S
O681 C701 1.234 . S
C682 O656 1.269 . S
C682 O657 1.257 . S
C683 H658 0.930 . S
C683 C686 1.388 . S
C683 C688 1.418 . S
C684 H679 0.930 . S
C684 C687 1.404 . S
C684 C688 1.353 . S
N685 Co650 2.145 . S
N685 C686 1.397 . S
N685 C687 1.334 . S
C686 H667 0.929 . S
C686 C683 1.388 . S
C686 N685 1.397 . S
C687 H668 0.929 . S
C687 C684 1.404 . S
C687 N685 1.334 . S
C688 H680 0.930 . S
C688 C683 1.418 . S
C688 C684 1.353 . S
C689 H659 0.930 . S
C689 N690 1.330 . S
C689 C691 1.446 . S
N690 Co649 2.151 . S
N690 C689 1.330 . S
N690 C694 1.418 . S
C691 H670 0.929 . S
C691 C689 1.446 . S
C691 C692 1.332 . S
C692 H672 0.931 . S
C692 C691 1.332 . S
C692 C693 1.267 . S
C693 H661 0.929 . S
C693 C692 1.267 . S
C693 C694 1.251 . S
C694 H664 0.929 . S
C694 N690 1.418 . S
C694 C693 1.251 . S
C695 H662 0.930 . S
C695 C697 1.406 . S
C695 C700 1.261 . S
C696 H663 0.930 . S
C696 N698 1.325 . S
C696 C699 1.357 . S
C697 H665 0.928 . S
C697 C695 1.406 . S
C697 N698 1.261 . S
N698 Co649 2.214 . S
N698 C696 1.325 . S
N698 C697 1.261 . S
C699 H669 0.931 . S
C699 C696 1.357 . S
C699 C700 1.312 . S
C700 H671 0.930 . S
C700 C695 1.261 . S
C700 C699 1.312 . S
C701 O673 1.214 . S
C701 O681 1.234 . S
C702 H674 0.929 . S
C702 C705 1.391 . S
C702 C707 1.391 . S
C703 H675 0.929 . S
C703 C704 1.390 . S
C703 N706 1.391 . S
C704 H676 0.930 . S
C704 C703 1.390 . S
C704 C705 1.392 . S
C705 H677 0.929 . S
C705 C702 1.391 . S
C705 C704 1.392 . S
N706 Co650 2.257 . S
N706 C703 1.391 . S
N706 C707 1.388 . S
C707 H678 0.930 . S
C707 C702 1.391 . S
C707 N706 1.388 . S
Co708 O710 2.143 . S
Co708 O716 2.074 . S
Co708 O719 2.093 . S
Co708 O732 2.097 . S
Co708 N749 2.151 . S
Co708 N757 2.214 . S
Co709 O710 2.160 . S
Co709 O715 2.058 . S
Co709 O725 2.057 . S
Co709 O740 2.037 . S
Co709 N744 2.145 . S
Co709 N765 2.257 . S
O710 Co708 2.143 . S
O710 Co709 2.160 . S
C711 O712 1.278 . S
C711 O719 1.224 . S
O712 C711 1.278 . S
C713 O714 1.245 . S
C713 O725 1.232 . S
O714 C713 1.245 . S
O715 Co709 2.058 . S
O715 C741 1.269 . S
O716 Co708 2.074 . S
O716 C741 1.257 . S
H717 C742 0.930 . S
H718 C748 0.930 . S
O719 Co708 2.093 . S
O719 C711 1.224 . S
H720 C752 0.929 . S
H721 C754 0.930 . S
H722 C755 0.930 . S
H723 C753 0.929 . S
H724 C756 0.928 . S
O725 Co709 2.057 . S
O725 C713 1.232 . S
H726 C745 0.929 . S
H727 C746 0.929 . S
H728 C758 0.931 . S
H729 C750 0.929 . S
H730 C759 0.930 . S
H731 C751 0.931 . S
O732 Co708 2.097 . S
O732 C760 1.214 . S
H733 C761 0.929 . S
H734 C762 0.929 . S
H735 C763 0.930 . S
H736 C764 0.929 . S
H737 C766 0.930 . S
H738 C743 0.930 . S
H739 C747 0.930 . S
O740 Co709 2.037 . S
O740 C760 1.234 . S
C741 O715 1.269 . S
C741 O716 1.257 . S
C742 H717 0.930 . S
C742 C745 1.388 . S
C742 C747 1.418 . S
C743 H738 0.930 . S
C743 C746 1.404 . S
C743 C747 1.353 . S
N744 Co709 2.145 . S
N744 C745 1.397 . S
N744 C746 1.334 . S
C745 H726 0.929 . S
C745 C742 1.388 . S
C745 N744 1.397 . S
C746 H727 0.929 . S
C746 C743 1.404 . S
C746 N744 1.334 . S
C747 H739 0.930 . S
C747 C742 1.418 . S
C747 C743 1.353 . S
C748 H718 0.930 . S
C748 N749 1.330 . S
C748 C750 1.446 . S
N749 Co708 2.151 . S
N749 C748 1.330 . S
N749 C753 1.418 . S
C750 H729 0.929 . S
C750 C748 1.446 . S
C750 C751 1.332 . S
C751 H731 0.931 . S
C751 C750 1.332 . S
C751 C752 1.267 . S
C752 H720 0.929 . S
C752 C751 1.267 . S
C752 C753 1.251 . S
C753 H723 0.929 . S
C753 N749 1.418 . S
C753 C752 1.251 . S
C754 H721 0.930 . S
C754 C756 1.406 . S
C754 C759 1.261 . S
C755 H722 0.930 . S
C755 N757 1.325 . S
C755 C758 1.357 . S
C756 H724 0.928 . S
C756 C754 1.406 . S
C756 N757 1.261 . S
N757 Co708 2.214 . S
N757 C755 1.325 . S
N757 C756 1.261 . S
C758 H728 0.931 . S
C758 C755 1.357 . S
C758 C759 1.312 . S
C759 H730 0.930 . S
C759 C754 1.261 . S
C759 C758 1.312 . S
C760 O732 1.214 . S
C760 O740 1.234 . S
C761 H733 0.929 . S
C761 C764 1.391 . S
C761 C766 1.391 . S
C762 H734 0.929 . S
C762 C763 1.390 . S
C762 N765 1.391 . S
C763 H735 0.930 . S
C763 C762 1.390 . S
C763 C764 1.392 . S
C764 H736 0.929 . S
C764 C761 1.391 . S
C764 C763 1.392 . S
N765 Co709 2.257 . S
N765 C762 1.391 . S
N765 C766 1.388 . S
C766 H737 0.930 . S
C766 C761 1.391 . S
C766 N765 1.388 . S
Co767 O769 2.143 . S
Co767 O775 2.074 . S
Co767 O778 2.093 . S
Co767 O791 2.097 . S
Co767 N808 2.151 . S
Co767 N816 2.214 . S
Co768 O769 2.160 . S
Co768 O774 2.058 . S
Co768 O784 2.057 . S
Co768 O799 2.037 . S
Co768 N803 2.145 . S
Co768 N824 2.257 . S
O769 Co767 2.143 . S
O769 Co768 2.160 . S
C770 O771 1.278 . S
C770 O778 1.224 . S
O771 C770 1.278 . S
C772 O773 1.245 . S
C772 O784 1.232 . S
O773 C772 1.245 . S
O774 Co768 2.058 . S
O774 C800 1.269 . S
O775 Co767 2.074 . S
O775 C800 1.257 . S
H776 C801 0.930 . S
H777 C807 0.930 . S
O778 Co767 2.093 . S
O778 C770 1.224 . S
H779 C811 0.929 . S
H780 C813 0.930 . S
H781 C814 0.930 . S
H782 C812 0.929 . S
H783 C815 0.928 . S
O784 Co768 2.057 . S
O784 C772 1.232 . S
H785 C804 0.929 . S
H786 C805 0.929 . S
H787 C817 0.931 . S
H788 C809 0.929 . S
H789 C818 0.930 . S
H790 C810 0.931 . S
O791 Co767 2.097 . S
O791 C819 1.214 . S
H792 C820 0.929 . S
H793 C821 0.929 . S
H794 C822 0.930 . S
H795 C823 0.929 . S
H796 C825 0.930 . S
H797 C802 0.930 . S
H798 C806 0.930 . S
O799 Co768 2.037 . S
O799 C819 1.234 . S
C800 O774 1.269 . S
C800 O775 1.257 . S
C801 H776 0.930 . S
C801 C804 1.388 . S
C801 C806 1.418 . S
C802 H797 0.930 . S
C802 C805 1.404 . S
C802 C806 1.353 . S
N803 Co768 2.145 . S
N803 C804 1.397 . S
N803 C805 1.334 . S
C804 H785 0.929 . S
C804 C801 1.388 . S
C804 N803 1.397 . S
C805 H786 0.929 . S
C805 C802 1.404 . S
C805 N803 1.334 . S
C806 H798 0.930 . S
C806 C801 1.418 . S
C806 C802 1.353 . S
C807 H777 0.930 . S
C807 N808 1.330 . S
C807 C809 1.446 . S
N808 Co767 2.151 . S
N808 C807 1.330 . S
N808 C812 1.418 . S
C809 H788 0.929 . S
C809 C807 1.446 . S
C809 C810 1.332 . S
C810 H790 0.931 . S
C810 C809 1.332 . S
C810 C811 1.267 . S
C811 H779 0.929 . S
C811 C810 1.267 . S
C811 C812 1.251 . S
C812 H782 0.929 . S
C812 N808 1.418 . S
C812 C811 1.251 . S
C813 H780 0.930 . S
C813 C815 1.406 . S
C813 C818 1.261 . S
C814 H781 0.930 . S
C814 N816 1.325 . S
C814 C817 1.357 . S
C815 H783 0.928 . S
C815 C813 1.406 . S
C815 N816 1.261 . S
N816 Co767 2.214 . S
N816 C814 1.325 . S
N816 C815 1.261 . S
C817 H787 0.931 . S
C817 C814 1.357 . S
C817 C818 1.312 . S
C818 H789 0.930 . S
C818 C813 1.261 . S
C818 C817 1.312 . S
C819 O791 1.214 . S
C819 O799 1.234 . S
C820 H792 0.929 . S
C820 C823 1.391 . S
C820 C825 1.391 . S
C821 H793 0.929 . S
C821 C822 1.390 . S
C821 N824 1.391 . S
C822 H794 0.930 . S
C822 C821 1.390 . S
C822 C823 1.392 . S
C823 H795 0.929 . S
C823 C820 1.391 . S
C823 C822 1.392 . S
N824 Co768 2.257 . S
N824 C821 1.391 . S
N824 C825 1.388 . S
C825 H796 0.930 . S
C825 C820 1.391 . S
C825 N824 1.388 . S
Co826 O828 2.143 . S
Co826 O834 2.074 . S
Co826 O837 2.093 . S
Co826 O850 2.097 . S
Co826 N867 2.151 . S
Co826 N875 2.214 . S
Co827 O828 2.160 . S
Co827 O833 2.058 . S
Co827 O843 2.057 . S
Co827 O858 2.037 . S
Co827 N862 2.145 . S
Co827 N883 2.257 . S
O828 Co826 2.143 . S
O828 Co827 2.160 . S
C829 O830 1.278 . S
C829 O837 1.224 . S
O830 C829 1.278 . S
C831 O832 1.245 . S
C831 O843 1.232 . S
O832 C831 1.245 . S
O833 Co827 2.058 . S
O833 C859 1.269 . S
O834 Co826 2.074 . S
O834 C859 1.257 . S
H835 C860 0.930 . S
H836 C866 0.930 . S
O837 Co826 2.093 . S
O837 C829 1.224 . S
H838 C870 0.929 . S
H839 C872 0.930 . S
H840 C873 0.930 . S
H841 C871 0.929 . S
H842 C874 0.928 . S
O843 Co827 2.057 . S
O843 C831 1.232 . S
H844 C863 0.929 . S
H845 C864 0.929 . S
H846 C876 0.931 . S
H847 C868 0.929 . S
H848 C877 0.930 . S
H849 C869 0.931 . S
O850 Co826 2.097 . S
O850 C878 1.214 . S
H851 C879 0.929 . S
H852 C880 0.929 . S
H853 C881 0.930 . S
H854 C882 0.929 . S
H855 C884 0.930 . S
H856 C861 0.930 . S
H857 C865 0.930 . S
O858 Co827 2.037 . S
O858 C878 1.234 . S
C859 O833 1.269 . S
C859 O834 1.257 . S
C860 H835 0.930 . S
C860 C863 1.388 . S
C860 C865 1.418 . S
C861 H856 0.930 . S
C861 C864 1.404 . S
C861 C865 1.353 . S
N862 Co827 2.145 . S
N862 C863 1.397 . S
N862 C864 1.334 . S
C863 H844 0.929 . S
C863 C860 1.388 . S
C863 N862 1.397 . S
C864 H845 0.929 . S
C864 C861 1.404 . S
C864 N862 1.334 . S
C865 H857 0.930 . S
C865 C860 1.418 . S
C865 C861 1.353 . S
C866 H836 0.930 . S
C866 N867 1.330 . S
C866 C868 1.446 . S
N867 Co826 2.151 . S
N867 C866 1.330 . S
N867 C871 1.418 . S
C868 H847 0.929 . S
C868 C866 1.446 . S
C868 C869 1.332 . S
C869 H849 0.931 . S
C869 C868 1.332 . S
C869 C870 1.267 . S
C870 H838 0.929 . S
C870 C869 1.267 . S
C870 C871 1.251 . S
C871 H841 0.929 . S
C871 N867 1.418 . S
C871 C870 1.251 . S
C872 H839 0.930 . S
C872 C874 1.406 . S
C872 C877 1.261 . S
C873 H840 0.930 . S
C873 N875 1.325 . S
C873 C876 1.357 . S
C874 H842 0.928 . S
C874 C872 1.406 . S
C874 N875 1.261 . S
N875 Co826 2.214 . S
N875 C873 1.325 . S
N875 C874 1.261 . S
C876 H846 0.931 . S
C876 C873 1.357 . S
C876 C877 1.312 . S
C877 H848 0.930 . S
C877 C872 1.261 . S
C877 C876 1.312 . S
C878 O850 1.214 . S
C878 O858 1.234 . S
C879 H851 0.929 . S
C879 C882 1.391 . S
C879 C884 1.391 . S
C880 H852 0.929 . S
C880 C881 1.390 . S
C880 N883 1.391 . S
C881 H853 0.930 . S
C881 C880 1.390 . S
C881 C882 1.392 . S
C882 H854 0.929 . S
C882 C879 1.391 . S
C882 C881 1.392 . S
N883 Co827 2.257 . S
N883 C880 1.391 . S
N883 C884 1.388 . S
C884 H855 0.930 . S
C884 C879 1.391 . S
C884 N883 1.388 . S
Co885 O887 2.143 . S
Co885 O893 2.074 . S
Co885 O896 2.093 . S
Co885 O909 2.097 . S
Co885 N926 2.151 . S
Co885 N934 2.214 . S
Co886 O887 2.160 . S
Co886 O892 2.058 . S
Co886 O902 2.057 . S
Co886 O917 2.037 . S
Co886 N921 2.145 . S
Co886 N942 2.257 . S
O887 Co885 2.143 . S
O887 Co886 2.160 . S
C888 O889 1.278 . S
C888 O896 1.224 . S
O889 C888 1.278 . S
C890 O891 1.245 . S
C890 O902 1.232 . S
O891 C890 1.245 . S
O892 Co886 2.058 . S
O892 C918 1.269 . S
O893 Co885 2.074 . S
O893 C918 1.257 . S
H894 C919 0.930 . S
H895 C925 0.930 . S
O896 Co885 2.093 . S
O896 C888 1.224 . S
H897 C929 0.929 . S
H898 C931 0.930 . S
H899 C932 0.930 . S
H900 C930 0.929 . S
H901 C933 0.928 . S
O902 Co886 2.057 . S
O902 C890 1.232 . S
H903 C922 0.929 . S
H904 C923 0.929 . S
H905 C935 0.931 . S
H906 C927 0.929 . S
H907 C936 0.930 . S
H908 C928 0.931 . S
O909 Co885 2.097 . S
O909 C937 1.214 . S
H910 C938 0.929 . S
H911 C939 0.929 . S
H912 C940 0.930 . S
H913 C941 0.929 . S
H914 C943 0.930 . S
H915 C920 0.930 . S
H916 C924 0.930 . S
O917 Co886 2.037 . S
O917 C937 1.234 . S
C918 O892 1.269 . S
C918 O893 1.257 . S
C919 H894 0.930 . S
C919 C922 1.388 . S
C919 C924 1.418 . S
C920 H915 0.930 . S
C920 C923 1.404 . S
C920 C924 1.353 . S
N921 Co886 2.145 . S
N921 C922 1.397 . S
N921 C923 1.334 . S
C922 H903 0.929 . S
C922 C919 1.388 . S
C922 N921 1.397 . S
C923 H904 0.929 . S
C923 C920 1.404 . S
C923 N921 1.334 . S
C924 H916 0.930 . S
C924 C919 1.418 . S
C924 C920 1.353 . S
C925 H895 0.930 . S
C925 N926 1.330 . S
C925 C927 1.446 . S
N926 Co885 2.151 . S
N926 C925 1.330 . S
N926 C930 1.418 . S
C927 H906 0.929 . S
C927 C925 1.446 . S
C927 C928 1.332 . S
C928 H908 0.931 . S
C928 C927 1.332 . S
C928 C929 1.267 . S
C929 H897 0.929 . S
C929 C928 1.267 . S
C929 C930 1.251 . S
C930 H900 0.929 . S
C930 N926 1.418 . S
C930 C929 1.251 . S
C931 H898 0.930 . S
C931 C933 1.406 . S
C931 C936 1.261 . S
C932 H899 0.930 . S
C932 N934 1.325 . S
C932 C935 1.357 . S
C933 H901 0.928 . S
C933 C931 1.406 . S
C933 N934 1.261 . S
N934 Co885 2.214 . S
N934 C932 1.325 . S
N934 C933 1.261 . S
C935 H905 0.931 . S
C935 C932 1.357 . S
C935 C936 1.312 . S
C936 H907 0.930 . S
C936 C931 1.261 . S
C936 C935 1.312 . S
C937 O909 1.214 . S
C937 O917 1.234 . S
C938 H910 0.929 . S
C938 C941 1.391 . S
C938 C943 1.391 . S
C939 H911 0.929 . S
C939 C940 1.390 . S
C939 N942 1.391 . S
C940 H912 0.930 . S
C940 C939 1.390 . S
C940 C941 1.392 . S
C941 H913 0.929 . S
C941 C938 1.391 . S
C941 C940 1.392 . S
N942 Co886 2.257 . S
N942 C939 1.391 . S
N942 C943 1.388 . S
C943 H914 0.930 . S
C943 C938 1.391 . S
C943 N942 1.388 . S
Co944 O946 2.143 . S
Co944 O952 2.074 . S
Co944 O955 2.093 . S
Co944 O968 2.097 . S
Co944 N985 2.151 . S
Co944 N993 2.214 . S
Co945 O946 2.160 . S
Co945 O951 2.058 . S
Co945 O961 2.057 . S
Co945 O976 2.037 . S
Co945 N980 2.145 . S
Co945 N1001 2.257 . S
O946 Co944 2.143 . S
O946 Co945 2.160 . S
C947 O948 1.278 . S
C947 O955 1.224 . S
O948 C947 1.278 . S
C949 O950 1.245 . S
C949 O961 1.232 . S
O950 C949 1.245 . S
O951 Co945 2.058 . S
O951 C977 1.269 . S
O952 Co944 2.074 . S
O952 C977 1.257 . S
H953 C978 0.930 . S
H954 C984 0.930 . S
O955 Co944 2.093 . S
O955 C947 1.224 . S
H956 C988 0.929 . S
H957 C990 0.930 . S
H958 C991 0.930 . S
H959 C989 0.929 . S
H960 C992 0.928 . S
O961 Co945 2.057 . S
O961 C949 1.232 . S
H962 C981 0.929 . S
H963 C982 0.929 . S
H964 C994 0.931 . S
H965 C986 0.929 . S
H966 C995 0.930 . S
H967 C987 0.931 . S
O968 Co944 2.097 . S
O968 C996 1.214 . S
H969 C997 0.929 . S
H970 C998 0.929 . S
H971 C999 0.930 . S
H972 C1000 0.929 . S
H973 C1002 0.930 . S
H974 C979 0.930 . S
H975 C983 0.930 1_655 S
O976 Co945 2.037 . S
O976 C996 1.234 . S
C977 O951 1.269 . S
C977 O952 1.257 . S
C978 H953 0.930 . S
C978 C981 1.388 . S
C978 C983 1.418 . S
C979 H974 0.930 . S
C979 C982 1.404 . S
C979 C983 1.353 . S
N980 Co945 2.145 . S
N980 C981 1.397 . S
N980 C982 1.334 . S
C981 H962 0.929 . S
C981 C978 1.388 . S
C981 N980 1.397 . S
C982 H963 0.929 . S
C982 C979 1.404 . S
C982 N980 1.334 . S
C983 H975 0.930 1_455 S
C983 C978 1.418 . S
C983 C979 1.353 . S
C984 H954 0.930 . S
C984 N985 1.330 . S
C984 C986 1.446 . S
N985 Co944 2.151 . S
N985 C984 1.330 . S
N985 C989 1.418 . S
C986 H965 0.929 . S
C986 C984 1.446 . S
C986 C987 1.332 . S
C987 H967 0.931 . S
C987 C986 1.332 . S
C987 C988 1.267 . S
C988 H956 0.929 . S
C988 C987 1.267 . S
C988 C989 1.251 . S
C989 H959 0.929 . S
C989 N985 1.418 . S
C989 C988 1.251 . S
C990 H957 0.930 . S
C990 C992 1.406 . S
C990 C995 1.261 . S
C991 H958 0.930 . S
C991 N993 1.325 . S
C991 C994 1.357 . S
C992 H960 0.928 . S
C992 C990 1.406 . S
C992 N993 1.261 . S
N993 Co944 2.214 . S
N993 C991 1.325 . S
N993 C992 1.261 . S
C994 H964 0.931 . S
C994 C991 1.357 . S
C994 C995 1.312 . S
C995 H966 0.930 . S
C995 C990 1.261 . S
C995 C994 1.312 . S
C996 O968 1.214 . S
C996 O976 1.234 . S
C997 H969 0.929 . S
C997 C1000 1.391 . S
C997 C1002 1.391 . S
C998 H970 0.929 . S
C998 C999 1.390 . S
C998 N1001 1.391 . S
C999 H971 0.930 . S
C999 C998 1.390 . S
C999 C1000 1.392 . S
C1000 H972 0.929 . S
C1000 C997 1.391 . S
C1000 C999 1.392 . S
N1001 Co945 2.257 . S
N1001 C998 1.391 . S
N1001 C1002 1.388 . S
C1002 H973 0.930 . S
C1002 C997 1.391 . S
C1002 N1001 1.388 . S
Co1003 O1005 2.143 . S
Co1003 O1011 2.074 . S
Co1003 O1014 2.093 . S
Co1003 O1027 2.097 . S
Co1003 N1044 2.151 . S
Co1003 N1052 2.214 . S
Co1004 O1005 2.160 . S
Co1004 O1010 2.058 . S
Co1004 O1020 2.057 . S
Co1004 O1035 2.037 . S
Co1004 N1039 2.145 . S
Co1004 N1060 2.257 . S
O1005 Co1003 2.143 . S
O1005 Co1004 2.160 . S
C1006 O1007 1.278 . S
C1006 O1014 1.224 . S
O1007 C1006 1.278 . S
C1008 O1009 1.245 . S
C1008 O1020 1.232 . S
O1009 C1008 1.245 . S
O1010 Co1004 2.058 . S
O1010 C1036 1.269 . S
O1011 Co1003 2.074 . S
O1011 C1036 1.257 . S
H1012 C1037 0.930 . S
H1013 C1043 0.930 . S
O1014 Co1003 2.093 . S
O1014 C1006 1.224 . S
H1015 C1047 0.929 . S
H1016 C1049 0.930 . S
H1017 C1050 0.930 . S
H1018 C1048 0.929 . S
H1019 C1051 0.928 . S
O1020 Co1004 2.057 . S
O1020 C1008 1.232 . S
H1021 C1040 0.929 . S
H1022 C1041 0.929 . S
H1023 C1053 0.931 . S
H1024 C1045 0.929 . S
H1025 C1054 0.930 . S
H1026 C1046 0.931 . S
O1027 Co1003 2.097 . S
O1027 C1055 1.214 . S
H1028 C1056 0.929 . S
H1029 C1057 0.929 . S
H1030 C1058 0.930 . S
H1031 C1059 0.929 . S
H1032 C1061 0.930 . S
H1033 C1038 0.930 . S
H1034 C1042 0.930 . S
O1035 Co1004 2.037 . S
O1035 C1055 1.234 . S
C1036 O1010 1.269 . S
C1036 O1011 1.257 . S
C1037 H1012 0.930 . S
C1037 C1040 1.388 . S
C1037 C1042 1.418 . S
C1038 H1033 0.930 . S
C1038 C1041 1.404 . S
C1038 C1042 1.353 . S
N1039 Co1004 2.145 . S
N1039 C1040 1.397 . S
N1039 C1041 1.334 . S
C1040 H1021 0.929 . S
C1040 C1037 1.388 . S
C1040 N1039 1.397 . S
C1041 H1022 0.929 . S
C1041 C1038 1.404 . S
C1041 N1039 1.334 . S
C1042 H1034 0.930 . S
C1042 C1037 1.418 . S
C1042 C1038 1.353 . S
C1043 H1013 0.930 . S
C1043 N1044 1.330 . S
C1043 C1045 1.446 . S
N1044 Co1003 2.151 . S
N1044 C1043 1.330 . S
N1044 C1048 1.418 . S
C1045 H1024 0.929 . S
C1045 C1043 1.446 . S
C1045 C1046 1.332 . S
C1046 H1026 0.931 . S
C1046 C1045 1.332 . S
C1046 C1047 1.267 . S
C1047 H1015 0.929 . S
C1047 C1046 1.267 . S
C1047 C1048 1.251 . S
C1048 H1018 0.929 . S
C1048 N1044 1.418 . S
C1048 C1047 1.251 . S
C1049 H1016 0.930 . S
C1049 C1051 1.406 . S
C1049 C1054 1.261 . S
C1050 H1017 0.930 . S
C1050 N1052 1.325 . S
C1050 C1053 1.357 . S
C1051 H1019 0.928 . S
C1051 C1049 1.406 . S
C1051 N1052 1.261 . S
N1052 Co1003 2.214 . S
N1052 C1050 1.325 . S
N1052 C1051 1.261 . S
C1053 H1023 0.931 . S
C1053 C1050 1.357 . S
C1053 C1054 1.312 . S
C1054 H1025 0.930 . S
C1054 C1049 1.261 . S
C1054 C1053 1.312 . S
C1055 O1027 1.214 . S
C1055 O1035 1.234 . S
C1056 H1028 0.929 . S
C1056 C1059 1.391 . S
C1056 C1061 1.391 . S
C1057 H1029 0.929 . S
C1057 C1058 1.390 . S
C1057 N1060 1.391 . S
C1058 H1030 0.930 . S
C1058 C1057 1.390 . S
C1058 C1059 1.392 . S
C1059 H1031 0.929 . S
C1059 C1056 1.391 . S
C1059 C1058 1.392 . S
N1060 Co1004 2.257 . S
N1060 C1057 1.391 . S
N1060 C1061 1.388 . S
C1061 H1032 0.930 . S
C1061 C1056 1.391 . S
C1061 N1060 1.388 . S
Co1062 O1064 2.143 . S
Co1062 O1070 2.074 . S
Co1062 O1073 2.093 . S
Co1062 O1086 2.097 . S
Co1062 N1103 2.151 . S
Co1062 N1111 2.214 . S
Co1063 O1064 2.160 . S
Co1063 O1069 2.058 . S
Co1063 O1079 2.057 . S
Co1063 O1094 2.037 . S
Co1063 N1098 2.145 . S
Co1063 N1119 2.257 . S
O1064 Co1062 2.143 . S
O1064 Co1063 2.160 . S
C1065 O1066 1.278 . S
C1065 O1073 1.224 . S
O1066 C1065 1.278 . S
C1067 O1068 1.245 . S
C1067 O1079 1.232 . S
O1068 C1067 1.245 . S
O1069 Co1063 2.058 . S
O1069 C1095 1.269 . S
O1070 Co1062 2.074 . S
O1070 C1095 1.257 . S
H1071 C1096 0.930 . S
H1072 C1102 0.930 . S
O1073 Co1062 2.093 . S
O1073 C1065 1.224 . S
H1074 C1106 0.929 . S
H1075 C1108 0.930 . S
H1076 C1109 0.930 . S
H1077 C1107 0.929 . S
H1078 C1110 0.928 . S
O1079 Co1063 2.057 . S
O1079 C1067 1.232 . S
H1080 C1099 0.929 . S
H1081 C1100 0.929 . S
H1082 C1112 0.931 . S
H1083 C1104 0.929 . S
H1084 C1113 0.930 . S
H1085 C1105 0.931 . S
O1086 Co1062 2.097 . S
O1086 C1114 1.214 . S
H1087 C1115 0.929 . S
H1088 C1116 0.929 . S
H1089 C1117 0.930 . S
H1090 C1118 0.929 . S
H1091 C1120 0.930 . S
H1092 C1097 0.930 . S
H1093 C1101 0.930 . S
O1094 Co1063 2.037 . S
O1094 C1114 1.234 . S
C1095 O1069 1.269 . S
C1095 O1070 1.257 . S
C1096 H1071 0.930 . S
C1096 C1099 1.388 . S
C1096 C1101 1.418 . S
C1097 H1092 0.930 . S
C1097 C1100 1.404 . S
C1097 C1101 1.353 . S
N1098 Co1063 2.145 . S
N1098 C1099 1.397 . S
N1098 C1100 1.334 . S
C1099 H1080 0.929 . S
C1099 C1096 1.388 . S
C1099 N1098 1.397 . S
C1100 H1081 0.929 . S
C1100 C1097 1.404 . S
C1100 N1098 1.334 . S
C1101 H1093 0.930 . S
C1101 C1096 1.418 . S
C1101 C1097 1.353 . S
C1102 H1072 0.930 . S
C1102 N1103 1.330 . S
C1102 C1104 1.446 . S
N1103 Co1062 2.151 . S
N1103 C1102 1.330 . S
N1103 C1107 1.418 . S
C1104 H1083 0.929 . S
C1104 C1102 1.446 . S
C1104 C1105 1.332 . S
C1105 H1085 0.931 . S
C1105 C1104 1.332 . S
C1105 C1106 1.267 . S
C1106 H1074 0.929 . S
C1106 C1105 1.267 . S
C1106 C1107 1.251 . S
C1107 H1077 0.929 . S
C1107 N1103 1.418 . S
C1107 C1106 1.251 . S
C1108 H1075 0.930 . S
C1108 C1110 1.406 . S
C1108 C1113 1.261 . S
C1109 H1076 0.930 . S
C1109 N1111 1.325 . S
C1109 C1112 1.357 . S
C1110 H1078 0.928 . S
C1110 C1108 1.406 . S
C1110 N1111 1.261 . S
N1111 Co1062 2.214 . S
N1111 C1109 1.325 . S
N1111 C1110 1.261 . S
C1112 H1082 0.931 . S
C1112 C1109 1.357 . S
C1112 C1113 1.312 . S
C1113 H1084 0.930 . S
C1113 C1108 1.261 . S
C1113 C1112 1.312 . S
C1114 O1086 1.214 . S
C1114 O1094 1.234 . S
C1115 H1087 0.929 . S
C1115 C1118 1.391 . S
C1115 C1120 1.391 . S
C1116 H1088 0.929 . S
C1116 C1117 1.390 . S
C1116 N1119 1.391 . S
C1117 H1089 0.930 . S
C1117 C1116 1.390 . S
C1117 C1118 1.392 . S
C1118 H1090 0.929 . S
C1118 C1115 1.391 . S
C1118 C1117 1.392 . S
N1119 Co1063 2.257 . S
N1119 C1116 1.391 . S
N1119 C1120 1.388 . S
C1120 H1091 0.930 . S
C1120 C1115 1.391 . S
C1120 N1119 1.388 . S
Co1121 O1123 2.143 . S
Co1121 O1129 2.074 . S
Co1121 O1132 2.093 . S
Co1121 O1145 2.097 . S
Co1121 N1162 2.151 . S
Co1121 N1170 2.214 . S
Co1122 O1123 2.160 . S
Co1122 O1128 2.058 . S
Co1122 O1138 2.057 . S
Co1122 O1153 2.037 . S
Co1122 N1157 2.145 . S
Co1122 N1178 2.257 . S
O1123 Co1121 2.143 . S
O1123 Co1122 2.160 . S
C1124 O1125 1.278 . S
C1124 O1132 1.224 . S
O1125 C1124 1.278 . S
C1126 O1127 1.245 . S
C1126 O1138 1.232 . S
O1127 C1126 1.245 . S
O1128 Co1122 2.058 . S
O1128 C1154 1.269 . S
O1129 Co1121 2.074 . S
O1129 C1154 1.257 . S
H1130 C1155 0.930 . S
H1131 C1161 0.930 . S
O1132 Co1121 2.093 . S
O1132 C1124 1.224 . S
H1133 C1165 0.929 . S
H1134 C1167 0.930 . S
H1135 C1168 0.930 . S
H1136 C1166 0.929 . S
H1137 C1169 0.928 . S
O1138 Co1122 2.057 . S
O1138 C1126 1.232 . S
H1139 C1158 0.929 . S
H1140 C1159 0.929 . S
H1141 C1171 0.931 . S
H1142 C1163 0.929 . S
H1143 C1172 0.930 . S
H1144 C1164 0.931 . S
O1145 Co1121 2.097 . S
O1145 C1173 1.214 . S
H1146 C1174 0.929 . S
H1147 C1175 0.929 . S
H1148 C1176 0.930 . S
H1149 C1177 0.929 . S
H1150 C1179 0.930 . S
H1151 C1156 0.930 . S
H1152 C1160 0.930 . S
O1153 Co1122 2.037 . S
O1153 C1173 1.234 . S
C1154 O1128 1.269 . S
C1154 O1129 1.257 . S
C1155 H1130 0.930 . S
C1155 C1158 1.388 . S
C1155 C1160 1.418 . S
C1156 H1151 0.930 . S
C1156 C1159 1.404 . S
C1156 C1160 1.353 . S
N1157 Co1122 2.145 . S
N1157 C1158 1.397 . S
N1157 C1159 1.334 . S
C1158 H1139 0.929 . S
C1158 C1155 1.388 . S
C1158 N1157 1.397 . S
C1159 H1140 0.929 . S
C1159 C1156 1.404 . S
C1159 N1157 1.334 . S
C1160 H1152 0.930 . S
C1160 C1155 1.418 . S
C1160 C1156 1.353 . S
C1161 H1131 0.930 . S
C1161 N1162 1.330 . S
C1161 C1163 1.446 . S
N1162 Co1121 2.151 . S
N1162 C1161 1.330 . S
N1162 C1166 1.418 . S
C1163 H1142 0.929 . S
C1163 C1161 1.446 . S
C1163 C1164 1.332 . S
C1164 H1144 0.931 . S
C1164 C1163 1.332 . S
C1164 C1165 1.267 . S
C1165 H1133 0.929 . S
C1165 C1164 1.267 . S
C1165 C1166 1.251 . S
C1166 H1136 0.929 . S
C1166 N1162 1.418 . S
C1166 C1165 1.251 . S
C1167 H1134 0.930 . S
C1167 C1169 1.406 . S
C1167 C1172 1.261 . S
C1168 H1135 0.930 . S
C1168 N1170 1.325 . S
C1168 C1171 1.357 . S
C1169 H1137 0.928 . S
C1169 C1167 1.406 . S
C1169 N1170 1.261 . S
N1170 Co1121 2.214 . S
N1170 C1168 1.325 . S
N1170 C1169 1.261 . S
C1171 H1141 0.931 . S
C1171 C1168 1.357 . S
C1171 C1172 1.312 . S
C1172 H1143 0.930 . S
C1172 C1167 1.261 . S
C1172 C1171 1.312 . S
C1173 O1145 1.214 . S
C1173 O1153 1.234 . S
C1174 H1146 0.929 . S
C1174 C1177 1.391 . S
C1174 C1179 1.391 . S
C1175 H1147 0.929 . S
C1175 C1176 1.390 . S
C1175 N1178 1.391 . S
C1176 H1148 0.930 . S
C1176 C1175 1.390 . S
C1176 C1177 1.392 . S
C1177 H1149 0.929 . S
C1177 C1174 1.391 . S
C1177 C1176 1.392 . S
N1178 Co1122 2.257 . S
N1178 C1175 1.391 . S
N1178 C1179 1.388 . S
C1179 H1150 0.930 . S
C1179 C1174 1.391 . S
C1179 N1178 1.388 . S
Co1180 O1182 2.143 . S
Co1180 O1188 2.074 . S
Co1180 O1191 2.093 . S
Co1180 O1204 2.097 . S
Co1180 N1221 2.151 . S
Co1180 N1229 2.214 . S
Co1181 O1182 2.160 . S
Co1181 O1187 2.058 . S
Co1181 O1197 2.057 . S
Co1181 O1212 2.037 . S
Co1181 N1216 2.145 . S
Co1181 N1237 2.257 . S
O1182 Co1180 2.143 . S
O1182 Co1181 2.160 . S
C1183 O1184 1.278 . S
C1183 O1191 1.224 . S
O1184 C1183 1.278 . S
C1185 O1186 1.245 . S
C1185 O1197 1.232 . S
O1186 C1185 1.245 . S
O1187 Co1181 2.058 . S
O1187 C1213 1.269 . S
O1188 Co1180 2.074 . S
O1188 C1213 1.257 . S
H1189 C1214 0.930 . S
H1190 C1220 0.930 . S
O1191 Co1180 2.093 . S
O1191 C1183 1.224 . S
H1192 C1224 0.929 . S
H1193 C1226 0.930 . S
H1194 C1227 0.930 . S
H1195 C1225 0.929 . S
H1196 C1228 0.928 . S
O1197 Co1181 2.057 . S
O1197 C1185 1.232 . S
H1198 C1217 0.929 . S
H1199 C1218 0.929 . S
H1200 C1230 0.931 . S
H1201 C1222 0.929 . S
H1202 C1231 0.930 . S
H1203 C1223 0.931 . S
O1204 Co1180 2.097 . S
O1204 C1232 1.214 . S
H1205 C1233 0.929 . S
H1206 C1234 0.929 . S
H1207 C1235 0.930 . S
H1208 C1236 0.929 . S
H1209 C1238 0.930 . S
H1210 C1215 0.930 . S
H1211 C1219 0.930 . S
O1212 Co1181 2.037 . S
O1212 C1232 1.234 . S
C1213 O1187 1.269 . S
C1213 O1188 1.257 . S
C1214 H1189 0.930 . S
C1214 C1217 1.388 . S
C1214 C1219 1.418 . S
C1215 H1210 0.930 . S
C1215 C1218 1.404 . S
C1215 C1219 1.353 . S
N1216 Co1181 2.145 . S
N1216 C1217 1.397 . S
N1216 C1218 1.334 . S
C1217 H1198 0.929 . S
C1217 C1214 1.388 . S
C1217 N1216 1.397 . S
C1218 H1199 0.929 . S
C1218 C1215 1.404 . S
C1218 N1216 1.334 . S
C1219 H1211 0.930 . S
C1219 C1214 1.418 . S
C1219 C1215 1.353 . S
C1220 H1190 0.930 . S
C1220 N1221 1.330 . S
C1220 C1222 1.446 . S
N1221 Co1180 2.151 . S
N1221 C1220 1.330 . S
N1221 C1225 1.418 . S
C1222 H1201 0.929 . S
C1222 C1220 1.446 . S
C1222 C1223 1.332 . S
C1223 H1203 0.931 . S
C1223 C1222 1.332 . S
C1223 C1224 1.267 . S
C1224 H1192 0.929 . S
C1224 C1223 1.267 . S
C1224 C1225 1.251 . S
C1225 H1195 0.929 . S
C1225 N1221 1.418 . S
C1225 C1224 1.251 . S
C1226 H1193 0.930 . S
C1226 C1228 1.406 . S
C1226 C1231 1.261 . S
C1227 H1194 0.930 . S
C1227 N1229 1.325 . S
C1227 C1230 1.357 . S
C1228 H1196 0.928 . S
C1228 C1226 1.406 . S
C1228 N1229 1.261 . S
N1229 Co1180 2.214 . S
N1229 C1227 1.325 . S
N1229 C1228 1.261 . S
C1230 H1200 0.931 . S
C1230 C1227 1.357 . S
C1230 C1231 1.312 . S
C1231 H1202 0.930 . S
C1231 C1226 1.261 . S
C1231 C1230 1.312 . S
C1232 O1204 1.214 . S
C1232 O1212 1.234 . S
C1233 H1205 0.929 . S
C1233 C1236 1.391 . S
C1233 C1238 1.391 . S
C1234 H1206 0.929 . S
C1234 C1235 1.390 . S
C1234 N1237 1.391 . S
C1235 H1207 0.930 . S
C1235 C1234 1.390 . S
C1235 C1236 1.392 . S
C1236 H1208 0.929 . S
C1236 C1233 1.391 . S
C1236 C1235 1.392 . S
N1237 Co1181 2.257 . S
N1237 C1234 1.391 . S
N1237 C1238 1.388 . S
C1238 H1209 0.930 . S
C1238 C1233 1.391 . S
C1238 N1237 1.388 . S
Co1239 O1241 2.143 . S
Co1239 O1247 2.074 . S
Co1239 O1250 2.093 . S
Co1239 O1263 2.097 . S
Co1239 N1280 2.151 . S
Co1239 N1288 2.214 . S
Co1240 O1241 2.160 . S
Co1240 O1246 2.058 . S
Co1240 O1256 2.057 . S
Co1240 O1271 2.037 . S
Co1240 N1275 2.145 . S
Co1240 N1296 2.257 . S
O1241 Co1239 2.143 . S
O1241 Co1240 2.160 . S
C1242 O1243 1.278 . S
C1242 O1250 1.224 . S
O1243 C1242 1.278 . S
C1244 O1245 1.245 . S
C1244 O1256 1.232 . S
O1245 C1244 1.245 . S
O1246 Co1240 2.058 . S
O1246 C1272 1.269 . S
O1247 Co1239 2.074 . S
O1247 C1272 1.257 . S
H1248 C1273 0.930 . S
H1249 C1279 0.930 . S
O1250 Co1239 2.093 . S
O1250 C1242 1.224 . S
H1251 C1283 0.929 . S
H1252 C1285 0.930 . S
H1253 C1286 0.930 . S
H1254 C1284 0.929 . S
H1255 C1287 0.928 . S
O1256 Co1240 2.057 . S
O1256 C1244 1.232 . S
H1257 C1276 0.929 . S
H1258 C1277 0.929 . S
H1259 C1289 0.931 . S
H1260 C1281 0.929 . S
H1261 C1290 0.930 . S
H1262 C1282 0.931 . S
O1263 Co1239 2.097 . S
O1263 C1291 1.214 . S
H1264 C1292 0.929 . S
H1265 C1293 0.929 . S
H1266 C1294 0.930 . S
H1267 C1295 0.929 . S
H1268 C1297 0.930 . S
H1269 C1274 0.930 . S
H1270 C1278 0.930 . S
O1271 Co1240 2.037 . S
O1271 C1291 1.234 . S
C1272 O1246 1.269 . S
C1272 O1247 1.257 . S
C1273 H1248 0.930 . S
C1273 C1276 1.388 . S
C1273 C1278 1.418 . S
C1274 H1269 0.930 . S
C1274 C1277 1.404 . S
C1274 C1278 1.353 . S
N1275 Co1240 2.145 . S
N1275 C1276 1.397 . S
N1275 C1277 1.334 . S
C1276 H1257 0.929 . S
C1276 C1273 1.388 . S
C1276 N1275 1.397 . S
C1277 H1258 0.929 . S
C1277 C1274 1.404 . S
C1277 N1275 1.334 . S
C1278 H1270 0.930 . S
C1278 C1273 1.418 . S
C1278 C1274 1.353 . S
C1279 H1249 0.930 . S
C1279 N1280 1.330 . S
C1279 C1281 1.446 . S
N1280 Co1239 2.151 . S
N1280 C1279 1.330 . S
N1280 C1284 1.418 . S
C1281 H1260 0.929 . S
C1281 C1279 1.446 . S
C1281 C1282 1.332 . S
C1282 H1262 0.931 . S
C1282 C1281 1.332 . S
C1282 C1283 1.267 . S
C1283 H1251 0.929 . S
C1283 C1282 1.267 . S
C1283 C1284 1.251 . S
C1284 H1254 0.929 . S
C1284 N1280 1.418 . S
C1284 C1283 1.251 . S
C1285 H1252 0.930 . S
C1285 C1287 1.406 . S
C1285 C1290 1.261 . S
C1286 H1253 0.930 . S
C1286 N1288 1.325 . S
C1286 C1289 1.357 . S
C1287 H1255 0.928 . S
C1287 C1285 1.406 . S
C1287 N1288 1.261 . S
N1288 Co1239 2.214 . S
N1288 C1286 1.325 . S
N1288 C1287 1.261 . S
C1289 H1259 0.931 . S
C1289 C1286 1.357 . S
C1289 C1290 1.312 . S
C1290 H1261 0.930 . S
C1290 C1285 1.261 . S
C1290 C1289 1.312 . S
C1291 O1263 1.214 . S
C1291 O1271 1.234 . S
C1292 H1264 0.929 . S
C1292 C1295 1.391 . S
C1292 C1297 1.391 . S
C1293 H1265 0.929 . S
C1293 C1294 1.390 . S
C1293 N1296 1.391 . S
C1294 H1266 0.930 . S
C1294 C1293 1.390 . S
C1294 C1295 1.392 . S
C1295 H1267 0.929 . S
C1295 C1292 1.391 . S
C1295 C1294 1.392 . S
N1296 Co1240 2.257 . S
N1296 C1293 1.391 . S
N1296 C1297 1.388 . S
C1297 H1268 0.930 . S
C1297 C1292 1.391 . S
C1297 N1296 1.388 . S
Co1298 O1300 2.143 . S
Co1298 O1306 2.074 . S
Co1298 O1309 2.093 . S
Co1298 O1322 2.097 . S
Co1298 N1339 2.151 . S
Co1298 N1347 2.214 . S
Co1299 O1300 2.160 . S
Co1299 O1305 2.058 . S
Co1299 O1315 2.057 . S
Co1299 O1330 2.037 . S
Co1299 N1334 2.145 . S
Co1299 N1355 2.257 . S
O1300 Co1298 2.143 . S
O1300 Co1299 2.160 . S
C1301 O1302 1.278 . S
C1301 O1309 1.224 . S
O1302 C1301 1.278 . S
C1303 O1304 1.245 . S
C1303 O1315 1.232 . S
O1304 C1303 1.245 . S
O1305 Co1299 2.058 . S
O1305 C1331 1.269 . S
O1306 Co1298 2.074 . S
O1306 C1331 1.257 . S
H1307 C1332 0.930 . S
H1308 C1338 0.930 . S
O1309 Co1298 2.093 . S
O1309 C1301 1.224 . S
H1310 C1342 0.929 . S
H1311 C1344 0.930 . S
H1312 C1345 0.930 . S
H1313 C1343 0.929 . S
H1314 C1346 0.928 . S
O1315 Co1299 2.057 . S
O1315 C1303 1.232 . S
H1316 C1335 0.929 . S
H1317 C1336 0.929 . S
H1318 C1348 0.931 . S
H1319 C1340 0.929 . S
H1320 C1349 0.930 . S
H1321 C1341 0.931 . S
O1322 Co1298 2.097 . S
O1322 C1350 1.214 . S
H1323 C1351 0.929 . S
H1324 C1352 0.929 . S
H1325 C1353 0.930 . S
H1326 C1354 0.929 . S
H1327 C1356 0.930 . S
H1328 C1333 0.930 . S
H1329 C1337 0.930 . S
O1330 Co1299 2.037 . S
O1330 C1350 1.234 . S
C1331 O1305 1.269 . S
C1331 O1306 1.257 . S
C1332 H1307 0.930 . S
C1332 C1335 1.388 . S
C1332 C1337 1.418 . S
C1333 H1328 0.930 . S
C1333 C1336 1.404 . S
C1333 C1337 1.353 . S
N1334 Co1299 2.145 . S
N1334 C1335 1.397 . S
N1334 C1336 1.334 . S
C1335 H1316 0.929 . S
C1335 C1332 1.388 . S
C1335 N1334 1.397 . S
C1336 H1317 0.929 . S
C1336 C1333 1.404 . S
C1336 N1334 1.334 . S
C1337 H1329 0.930 . S
C1337 C1332 1.418 . S
C1337 C1333 1.353 . S
C1338 H1308 0.930 . S
C1338 N1339 1.330 . S
C1338 C1340 1.446 . S
N1339 Co1298 2.151 . S
N1339 C1338 1.330 . S
N1339 C1343 1.418 . S
C1340 H1319 0.929 . S
C1340 C1338 1.446 . S
C1340 C1341 1.332 . S
C1341 H1321 0.931 . S
C1341 C1340 1.332 . S
C1341 C1342 1.267 . S
C1342 H1310 0.929 . S
C1342 C1341 1.267 . S
C1342 C1343 1.251 . S
C1343 H1313 0.929 . S
C1343 N1339 1.418 . S
C1343 C1342 1.251 . S
C1344 H1311 0.930 . S
C1344 C1346 1.406 . S
C1344 C1349 1.261 . S
C1345 H1312 0.930 . S
C1345 N1347 1.325 . S
C1345 C1348 1.357 . S
C1346 H1314 0.928 . S
C1346 C1344 1.406 . S
C1346 N1347 1.261 . S
N1347 Co1298 2.214 . S
N1347 C1345 1.325 . S
N1347 C1346 1.261 . S
C1348 H1318 0.931 . S
C1348 C1345 1.357 . S
C1348 C1349 1.312 . S
C1349 H1320 0.930 . S
C1349 C1344 1.261 . S
C1349 C1348 1.312 . S
C1350 O1322 1.214 . S
C1350 O1330 1.234 . S
C1351 H1323 0.929 . S
C1351 C1354 1.391 . S
C1351 C1356 1.391 . S
C1352 H1324 0.929 . S
C1352 C1353 1.390 . S
C1352 N1355 1.391 . S
C1353 H1325 0.930 . S
C1353 C1352 1.390 . S
C1353 C1354 1.392 . S
C1354 H1326 0.929 . S
C1354 C1351 1.391 . S
C1354 C1353 1.392 . S
N1355 Co1299 2.257 . S
N1355 C1352 1.391 . S
N1355 C1356 1.388 . S
C1356 H1327 0.930 . S
C1356 C1351 1.391 . S
C1356 N1355 1.388 . S
Co1357 O1359 2.143 . S
Co1357 O1365 2.074 . S
Co1357 O1368 2.093 . S
Co1357 O1381 2.097 . S
Co1357 N1398 2.151 . S
Co1357 N1406 2.214 . S
Co1358 O1359 2.160 . S
Co1358 O1364 2.058 . S
Co1358 O1374 2.057 . S
Co1358 O1389 2.037 . S
Co1358 N1393 2.145 . S
Co1358 N1414 2.257 . S
O1359 Co1357 2.143 . S
O1359 Co1358 2.160 . S
C1360 O1361 1.278 . S
C1360 O1368 1.224 . S
O1361 C1360 1.278 . S
C1362 O1363 1.245 . S
C1362 O1374 1.232 . S
O1363 C1362 1.245 . S
O1364 Co1358 2.058 . S
O1364 C1390 1.269 . S
O1365 Co1357 2.074 . S
O1365 C1390 1.257 . S
H1366 C1391 0.930 . S
H1367 C1397 0.930 . S
O1368 Co1357 2.093 . S
O1368 C1360 1.224 . S
H1369 C1401 0.929 . S
H1370 C1403 0.930 . S
H1371 C1404 0.930 . S
H1372 C1402 0.929 . S
H1373 C1405 0.928 . S
O1374 Co1358 2.057 . S
O1374 C1362 1.232 . S
H1375 C1394 0.929 . S
H1376 C1395 0.929 . S
H1377 C1407 0.931 . S
H1378 C1399 0.929 . S
H1379 C1408 0.930 . S
H1380 C1400 0.931 . S
O1381 Co1357 2.097 . S
O1381 C1409 1.214 . S
H1382 C1410 0.929 . S
H1383 C1411 0.929 . S
H1384 C1412 0.930 . S
H1385 C1413 0.929 . S
H1386 C1415 0.930 . S
H1387 C1392 0.930 . S
H1388 C1396 0.930 . S
O1389 Co1358 2.037 . S
O1389 C1409 1.234 . S
C1390 O1364 1.269 . S
C1390 O1365 1.257 . S
C1391 H1366 0.930 . S
C1391 C1394 1.388 . S
C1391 C1396 1.418 . S
C1392 H1387 0.930 . S
C1392 C1395 1.404 . S
C1392 C1396 1.353 . S
N1393 Co1358 2.145 . S
N1393 C1394 1.397 . S
N1393 C1395 1.334 . S
C1394 H1375 0.929 . S
C1394 C1391 1.388 . S
C1394 N1393 1.397 . S
C1395 H1376 0.929 . S
C1395 C1392 1.404 . S
C1395 N1393 1.334 . S
C1396 H1388 0.930 . S
C1396 C1391 1.418 . S
C1396 C1392 1.353 . S
C1397 H1367 0.930 . S
C1397 N1398 1.330 . S
C1397 C1399 1.446 . S
N1398 Co1357 2.151 . S
N1398 C1397 1.330 . S
N1398 C1402 1.418 . S
C1399 H1378 0.929 . S
C1399 C1397 1.446 . S
C1399 C1400 1.332 . S
C1400 H1380 0.931 . S
C1400 C1399 1.332 . S
C1400 C1401 1.267 . S
C1401 H1369 0.929 . S
C1401 C1400 1.267 . S
C1401 C1402 1.251 . S
C1402 H1372 0.929 . S
C1402 N1398 1.418 . S
C1402 C1401 1.251 . S
C1403 H1370 0.930 . S
C1403 C1405 1.406 . S
C1403 C1408 1.261 . S
C1404 H1371 0.930 . S
C1404 N1406 1.325 . S
C1404 C1407 1.357 . S
C1405 H1373 0.928 . S
C1405 C1403 1.406 . S
C1405 N1406 1.261 . S
N1406 Co1357 2.214 . S
N1406 C1404 1.325 . S
N1406 C1405 1.261 . S
C1407 H1377 0.931 . S
C1407 C1404 1.357 . S
C1407 C1408 1.312 . S
C1408 H1379 0.930 . S
C1408 C1403 1.261 . S
C1408 C1407 1.312 . S
C1409 O1381 1.214 . S
C1409 O1389 1.234 . S
C1410 H1382 0.929 . S
C1410 C1413 1.391 . S
C1410 C1415 1.391 . S
C1411 H1383 0.929 . S
C1411 C1412 1.390 . S
C1411 N1414 1.391 . S
C1412 H1384 0.930 . S
C1412 C1411 1.390 . S
C1412 C1413 1.392 . S
C1413 H1385 0.929 . S
C1413 C1410 1.391 . S
C1413 C1412 1.392 . S
N1414 Co1358 2.257 . S
N1414 C1411 1.391 . S
N1414 C1415 1.388 . S
C1415 H1386 0.930 . S
C1415 C1410 1.391 . S
C1415 N1414 1.388 . S
Co1416 O1418 2.143 . S
Co1416 O1424 2.074 . S
Co1416 O1427 2.093 . S
Co1416 O1440 2.097 . S
Co1416 N1457 2.151 . S
Co1416 N1465 2.214 . S
Co1417 O1418 2.160 . S
Co1417 O1423 2.058 . S
Co1417 O1433 2.057 . S
Co1417 O1448 2.037 . S
Co1417 N1452 2.145 . S
Co1417 N1473 2.257 . S
O1418 Co1416 2.143 . S
O1418 Co1417 2.160 . S
C1419 O1420 1.278 . S
C1419 O1427 1.224 . S
O1420 C1419 1.278 . S
C1421 O1422 1.245 . S
C1421 O1433 1.232 . S
O1422 C1421 1.245 . S
O1423 Co1417 2.058 . S
O1423 C1449 1.269 . S
O1424 Co1416 2.074 . S
O1424 C1449 1.257 . S
H1425 C1450 0.930 . S
H1426 C1456 0.930 . S
O1427 Co1416 2.093 . S
O1427 C1419 1.224 . S
H1428 C1460 0.929 . S
H1429 C1462 0.930 . S
H1430 C1463 0.930 . S
H1431 C1461 0.929 . S
H1432 C1464 0.928 . S
O1433 Co1417 2.057 . S
O1433 C1421 1.232 . S
H1434 C1453 0.929 . S
H1435 C1454 0.929 . S
H1436 C1466 0.931 . S
H1437 C1458 0.929 . S
H1438 C1467 0.930 . S
H1439 C1459 0.931 . S
O1440 Co1416 2.097 . S
O1440 C1468 1.214 . S
H1441 C1469 0.929 . S
H1442 C1470 0.929 . S
H1443 C1471 0.930 . S
H1444 C1472 0.929 . S
H1445 C1474 0.930 . S
H1446 C1451 0.930 . S
H1447 C1455 0.930 . S
O1448 Co1417 2.037 . S
O1448 C1468 1.234 . S
C1449 O1423 1.269 . S
C1449 O1424 1.257 . S
C1450 H1425 0.930 . S
C1450 C1453 1.388 . S
C1450 C1455 1.418 . S
C1451 H1446 0.930 . S
C1451 C1454 1.404 . S
C1451 C1455 1.353 . S
N1452 Co1417 2.145 . S
N1452 C1453 1.397 . S
N1452 C1454 1.334 . S
C1453 H1434 0.929 . S
C1453 C1450 1.388 . S
C1453 N1452 1.397 . S
C1454 H1435 0.929 . S
C1454 C1451 1.404 . S
C1454 N1452 1.334 . S
C1455 H1447 0.930 . S
C1455 C1450 1.418 . S
C1455 C1451 1.353 . S
C1456 H1426 0.930 . S
C1456 N1457 1.330 . S
C1456 C1458 1.446 . S
N1457 Co1416 2.151 . S
N1457 C1456 1.330 . S
N1457 C1461 1.418 . S
C1458 H1437 0.929 . S
C1458 C1456 1.446 . S
C1458 C1459 1.332 . S
C1459 H1439 0.931 . S
C1459 C1458 1.332 . S
C1459 C1460 1.267 . S
C1460 H1428 0.929 . S
C1460 C1459 1.267 . S
C1460 C1461 1.251 . S
C1461 H1431 0.929 . S
C1461 N1457 1.418 . S
C1461 C1460 1.251 . S
C1462 H1429 0.930 . S
C1462 C1464 1.406 . S
C1462 C1467 1.261 . S
C1463 H1430 0.930 . S
C1463 N1465 1.325 . S
C1463 C1466 1.357 . S
C1464 H1432 0.928 . S
C1464 C1462 1.406 . S
C1464 N1465 1.261 . S
N1465 Co1416 2.214 . S
N1465 C1463 1.325 . S
N1465 C1464 1.261 . S
C1466 H1436 0.931 . S
C1466 C1463 1.357 . S
C1466 C1467 1.312 . S
C1467 H1438 0.930 . S
C1467 C1462 1.261 . S
C1467 C1466 1.312 . S
C1468 O1440 1.214 . S
C1468 O1448 1.234 . S
C1469 H1441 0.929 . S
C1469 C1472 1.391 . S
C1469 C1474 1.391 . S
C1470 H1442 0.929 . S
C1470 C1471 1.390 . S
C1470 N1473 1.391 . S
C1471 H1443 0.930 . S
C1471 C1470 1.390 . S
C1471 C1472 1.392 . S
C1472 H1444 0.929 . S
C1472 C1469 1.391 . S
C1472 C1471 1.392 . S
N1473 Co1417 2.257 . S
N1473 C1470 1.391 . S
N1473 C1474 1.388 . S
C1474 H1445 0.930 . S
C1474 C1469 1.391 . S
C1474 N1473 1.388 . S
Co1475 O1477 2.143 . S
Co1475 O1483 2.074 . S
Co1475 O1486 2.093 . S
Co1475 O1499 2.097 . S
Co1475 N1516 2.151 . S
Co1475 N1524 2.214 . S
Co1476 O1477 2.160 . S
Co1476 O1482 2.058 . S
Co1476 O1492 2.057 . S
Co1476 O1507 2.037 . S
Co1476 N1511 2.145 . S
Co1476 N1532 2.257 . S
O1477 Co1475 2.143 . S
O1477 Co1476 2.160 . S
C1478 O1479 1.278 . S
C1478 O1486 1.224 . S
O1479 C1478 1.278 . S
C1480 O1481 1.245 . S
C1480 O1492 1.232 . S
O1481 C1480 1.245 . S
O1482 Co1476 2.058 . S
O1482 C1508 1.269 . S
O1483 Co1475 2.074 . S
O1483 C1508 1.257 . S
H1484 C1509 0.930 . S
H1485 C1515 0.930 . S
O1486 Co1475 2.093 . S
O1486 C1478 1.224 . S
H1487 C1519 0.929 . S
H1488 C1521 0.930 . S
H1489 C1522 0.930 . S
H1490 C1520 0.929 . S
H1491 C1523 0.928 . S
O1492 Co1476 2.057 . S
O1492 C1480 1.232 . S
H1493 C1512 0.929 . S
H1494 C1513 0.929 . S
H1495 C1525 0.931 . S
H1496 C1517 0.929 . S
H1497 C1526 0.930 . S
H1498 C1518 0.931 . S
O1499 Co1475 2.097 . S
O1499 C1527 1.214 . S
H1500 C1528 0.929 . S
H1501 C1529 0.929 . S
H1502 C1530 0.930 . S
H1503 C1531 0.929 . S
H1504 C1533 0.930 . S
H1505 C1510 0.930 . S
H1506 C1514 0.930 . S
O1507 Co1476 2.037 . S
O1507 C1527 1.234 . S
C1508 O1482 1.269 . S
C1508 O1483 1.257 . S
C1509 H1484 0.930 . S
C1509 C1512 1.388 . S
C1509 C1514 1.418 . S
C1510 H1505 0.930 . S
C1510 C1513 1.404 . S
C1510 C1514 1.353 . S
N1511 Co1476 2.145 . S
N1511 C1512 1.397 . S
N1511 C1513 1.334 . S
C1512 H1493 0.929 . S
C1512 C1509 1.388 . S
C1512 N1511 1.397 . S
C1513 H1494 0.929 . S
C1513 C1510 1.404 . S
C1513 N1511 1.334 . S
C1514 H1506 0.930 . S
C1514 C1509 1.418 . S
C1514 C1510 1.353 . S
C1515 H1485 0.930 . S
C1515 N1516 1.330 . S
C1515 C1517 1.446 . S
N1516 Co1475 2.151 . S
N1516 C1515 1.330 . S
N1516 C1520 1.418 . S
C1517 H1496 0.929 . S
C1517 C1515 1.446 . S
C1517 C1518 1.332 . S
C1518 H1498 0.931 . S
C1518 C1517 1.332 . S
C1518 C1519 1.267 . S
C1519 H1487 0.929 . S
C1519 C1518 1.267 . S
C1519 C1520 1.251 . S
C1520 H1490 0.929 . S
C1520 N1516 1.418 . S
C1520 C1519 1.251 . S
C1521 H1488 0.930 . S
C1521 C1523 1.406 . S
C1521 C1526 1.261 . S
C1522 H1489 0.930 . S
C1522 N1524 1.325 . S
C1522 C1525 1.357 . S
C1523 H1491 0.928 . S
C1523 C1521 1.406 . S
C1523 N1524 1.261 . S
N1524 Co1475 2.214 . S
N1524 C1522 1.325 . S
N1524 C1523 1.261 . S
C1525 H1495 0.931 . S
C1525 C1522 1.357 . S
C1525 C1526 1.312 . S
C1526 H1497 0.930 . S
C1526 C1521 1.261 . S
C1526 C1525 1.312 . S
C1527 O1499 1.214 . S
C1527 O1507 1.234 . S
C1528 H1500 0.929 . S
C1528 C1531 1.391 . S
C1528 C1533 1.391 . S
C1529 H1501 0.929 . S
C1529 C1530 1.390 . S
C1529 N1532 1.391 . S
C1530 H1502 0.930 . S
C1530 C1529 1.390 . S
C1530 C1531 1.392 . S
C1531 H1503 0.929 . S
C1531 C1528 1.391 . S
C1531 C1530 1.392 . S
N1532 Co1476 2.257 . S
N1532 C1529 1.391 . S
N1532 C1533 1.388 . S
C1533 H1504 0.930 . S
C1533 C1528 1.391 . S
C1533 N1532 1.388 . S
Co1534 O1536 2.143 . S
Co1534 O1542 2.074 . S
Co1534 O1545 2.093 . S
Co1534 O1558 2.097 . S
Co1534 N1575 2.151 . S
Co1534 N1583 2.214 . S
Co1535 O1536 2.160 . S
Co1535 O1541 2.058 . S
Co1535 O1551 2.057 . S
Co1535 O1566 2.037 . S
Co1535 N1570 2.145 . S
Co1535 N1591 2.257 . S
O1536 Co1534 2.143 . S
O1536 Co1535 2.160 . S
C1537 O1538 1.278 . S
C1537 O1545 1.224 . S
O1538 C1537 1.278 . S
C1539 O1540 1.245 . S
C1539 O1551 1.232 . S
O1540 C1539 1.245 . S
O1541 Co1535 2.058 . S
O1541 C1567 1.269 . S
O1542 Co1534 2.074 . S
O1542 C1567 1.257 . S
H1543 C1568 0.930 . S
H1544 C1574 0.930 . S
O1545 Co1534 2.093 . S
O1545 C1537 1.224 . S
H1546 C1578 0.929 . S
H1547 C1580 0.930 . S
H1548 C1581 0.930 . S
H1549 C1579 0.929 . S
H1550 C1582 0.928 . S
O1551 Co1535 2.057 . S
O1551 C1539 1.232 . S
H1552 C1571 0.929 . S
H1553 C1572 0.929 . S
H1554 C1584 0.931 . S
H1555 C1576 0.929 . S
H1556 C1585 0.930 . S
H1557 C1577 0.931 . S
O1558 Co1534 2.097 . S
O1558 C1586 1.214 . S
H1559 C1587 0.929 . S
H1560 C1588 0.929 . S
H1561 C1589 0.930 . S
H1562 C1590 0.929 . S
H1563 C1592 0.930 . S
H1564 C1569 0.930 . S
H1565 C1573 0.930 . S
O1566 Co1535 2.037 . S
O1566 C1586 1.234 . S
C1567 O1541 1.269 . S
C1567 O1542 1.257 . S
C1568 H1543 0.930 . S
C1568 C1571 1.388 . S
C1568 C1573 1.418 . S
C1569 H1564 0.930 . S
C1569 C1572 1.404 . S
C1569 C1573 1.353 . S
N1570 Co1535 2.145 . S
N1570 C1571 1.397 . S
N1570 C1572 1.334 . S
C1571 H1552 0.929 . S
C1571 C1568 1.388 . S
C1571 N1570 1.397 . S
C1572 H1553 0.929 . S
C1572 C1569 1.404 . S
C1572 N1570 1.334 . S
C1573 H1565 0.930 . S
C1573 C1568 1.418 . S
C1573 C1569 1.353 . S
C1574 H1544 0.930 . S
C1574 N1575 1.330 . S
C1574 C1576 1.446 . S
N1575 Co1534 2.151 . S
N1575 C1574 1.330 . S
N1575 C1579 1.418 . S
C1576 H1555 0.929 . S
C1576 C1574 1.446 . S
C1576 C1577 1.332 . S
C1577 H1557 0.931 . S
C1577 C1576 1.332 . S
C1577 C1578 1.267 . S
C1578 H1546 0.929 . S
C1578 C1577 1.267 . S
C1578 C1579 1.251 . S
C1579 H1549 0.929 . S
C1579 N1575 1.418 . S
C1579 C1578 1.251 . S
C1580 H1547 0.930 . S
C1580 C1582 1.406 . S
C1580 C1585 1.261 . S
C1581 H1548 0.930 . S
C1581 N1583 1.325 . S
C1581 C1584 1.357 . S
C1582 H1550 0.928 . S
C1582 C1580 1.406 . S
C1582 N1583 1.261 . S
N1583 Co1534 2.214 . S
N1583 C1581 1.325 . S
N1583 C1582 1.261 . S
C1584 H1554 0.931 . S
C1584 C1581 1.357 . S
C1584 C1585 1.312 . S
C1585 H1556 0.930 . S
C1585 C1580 1.261 . S
C1585 C1584 1.312 . S
C1586 O1558 1.214 . S
C1586 O1566 1.234 . S
C1587 H1559 0.929 . S
C1587 C1590 1.391 . S
C1587 C1592 1.391 . S
C1588 H1560 0.929 . S
C1588 C1589 1.390 . S
C1588 N1591 1.391 . S
C1589 H1561 0.930 . S
C1589 C1588 1.390 . S
C1589 C1590 1.392 . S
C1590 H1562 0.929 . S
C1590 C1587 1.391 . S
C1590 C1589 1.392 . S
N1591 Co1535 2.257 . S
N1591 C1588 1.391 . S
N1591 C1592 1.388 . S
C1592 H1563 0.930 . S
C1592 C1587 1.391 . S
C1592 N1591 1.388 . S
Co1593 O1595 2.143 . S
Co1593 O1601 2.074 . S
Co1593 O1604 2.093 . S
Co1593 O1617 2.097 . S
Co1593 N1634 2.151 . S
Co1593 N1642 2.214 . S
Co1594 O1595 2.160 . S
Co1594 O1600 2.058 . S
Co1594 O1610 2.057 . S
Co1594 O1625 2.037 . S
Co1594 N1629 2.145 . S
Co1594 N1650 2.257 . S
O1595 Co1593 2.143 . S
O1595 Co1594 2.160 . S
C1596 O1597 1.278 . S
C1596 O1604 1.224 . S
O1597 C1596 1.278 . S
C1598 O1599 1.245 . S
C1598 O1610 1.232 . S
O1599 C1598 1.245 . S
O1600 Co1594 2.058 . S
O1600 C1626 1.269 . S
O1601 Co1593 2.074 . S
O1601 C1626 1.257 . S
H1602 C1627 0.930 . S
H1603 C1633 0.930 . S
O1604 Co1593 2.093 . S
O1604 C1596 1.224 . S
H1605 C1637 0.929 . S
H1606 C1639 0.930 . S
H1607 C1640 0.930 . S
H1608 C1638 0.929 . S
H1609 C1641 0.928 . S
O1610 Co1594 2.057 . S
O1610 C1598 1.232 . S
H1611 C1630 0.929 . S
H1612 C1631 0.929 . S
H1613 C1643 0.931 . S
H1614 C1635 0.929 . S
H1615 C1644 0.930 . S
H1616 C1636 0.931 . S
O1617 Co1593 2.097 . S
O1617 C1645 1.214 . S
H1618 C1646 0.929 . S
H1619 C1647 0.929 . S
H1620 C1648 0.930 . S
H1621 C1649 0.929 . S
H1622 C1651 0.930 . S
H1623 C1628 0.930 . S
H1624 C1632 0.930 . S
O1625 Co1594 2.037 . S
O1625 C1645 1.234 . S
C1626 O1600 1.269 . S
C1626 O1601 1.257 . S
C1627 H1602 0.930 . S
C1627 C1630 1.388 . S
C1627 C1632 1.418 . S
C1628 H1623 0.930 . S
C1628 C1631 1.404 . S
C1628 C1632 1.353 . S
N1629 Co1594 2.145 . S
N1629 C1630 1.397 . S
N1629 C1631 1.334 . S
C1630 H1611 0.929 . S
C1630 C1627 1.388 . S
C1630 N1629 1.397 . S
C1631 H1612 0.929 . S
C1631 C1628 1.404 . S
C1631 N1629 1.334 . S
C1632 H1624 0.930 . S
C1632 C1627 1.418 . S
C1632 C1628 1.353 . S
C1633 H1603 0.930 . S
C1633 N1634 1.330 . S
C1633 C1635 1.446 . S
N1634 Co1593 2.151 . S
N1634 C1633 1.330 . S
N1634 C1638 1.418 . S
C1635 H1614 0.929 . S
C1635 C1633 1.446 . S
C1635 C1636 1.332 . S
C1636 H1616 0.931 . S
C1636 C1635 1.332 . S
C1636 C1637 1.267 . S
C1637 H1605 0.929 . S
C1637 C1636 1.267 . S
C1637 C1638 1.251 . S
C1638 H1608 0.929 . S
C1638 N1634 1.418 . S
C1638 C1637 1.251 . S
C1639 H1606 0.930 . S
C1639 C1641 1.406 . S
C1639 C1644 1.261 . S
C1640 H1607 0.930 . S
C1640 N1642 1.325 . S
C1640 C1643 1.357 . S
C1641 H1609 0.928 . S
C1641 C1639 1.406 . S
C1641 N1642 1.261 . S
N1642 Co1593 2.214 . S
N1642 C1640 1.325 . S
N1642 C1641 1.261 . S
C1643 H1613 0.931 . S
C1643 C1640 1.357 . S
C1643 C1644 1.312 . S
C1644 H1615 0.930 . S
C1644 C1639 1.261 . S
C1644 C1643 1.312 . S
C1645 O1617 1.214 . S
C1645 O1625 1.234 . S
C1646 H1618 0.929 . S
C1646 C1649 1.391 . S
C1646 C1651 1.391 . S
C1647 H1619 0.929 . S
C1647 C1648 1.390 . S
C1647 N1650 1.391 . S
C1648 H1620 0.930 . S
C1648 C1647 1.390 . S
C1648 C1649 1.392 . S
C1649 H1621 0.929 . S
C1649 C1646 1.391 . S
C1649 C1648 1.392 . S
N1650 Co1594 2.257 . S
N1650 C1647 1.391 . S
N1650 C1651 1.388 . S
C1651 H1622 0.930 . S
C1651 C1646 1.391 . S
C1651 N1650 1.388 . S
Co1652 O1654 2.143 . S
Co1652 O1660 2.074 . S
Co1652 O1663 2.093 . S
Co1652 O1676 2.097 . S
Co1652 N1693 2.151 . S
Co1652 N1701 2.214 . S
Co1653 O1654 2.160 . S
Co1653 O1659 2.058 . S
Co1653 O1669 2.057 . S
Co1653 O1684 2.037 . S
Co1653 N1688 2.145 . S
Co1653 N1709 2.257 . S
O1654 Co1652 2.143 . S
O1654 Co1653 2.160 . S
C1655 O1656 1.278 . S
C1655 O1663 1.224 . S
O1656 C1655 1.278 . S
C1657 O1658 1.245 . S
C1657 O1669 1.232 . S
O1658 C1657 1.245 . S
O1659 Co1653 2.058 . S
O1659 C1685 1.269 . S
O1660 Co1652 2.074 . S
O1660 C1685 1.257 . S
H1661 C1686 0.930 . S
H1662 C1692 0.930 . S
O1663 Co1652 2.093 . S
O1663 C1655 1.224 . S
H1664 C1696 0.929 . S
H1665 C1698 0.930 . S
H1666 C1699 0.930 . S
H1667 C1697 0.929 . S
H1668 C1700 0.928 . S
O1669 Co1653 2.057 . S
O1669 C1657 1.232 . S
H1670 C1689 0.929 . S
H1671 C1690 0.929 . S
H1672 C1702 0.931 . S
H1673 C1694 0.929 . S
H1674 C1703 0.930 1_565 S
H1675 C1695 0.931 . S
O1676 Co1652 2.097 . S
O1676 C1704 1.214 . S
H1677 C1705 0.929 . S
H1678 C1706 0.929 . S
H1679 C1707 0.930 . S
H1680 C1708 0.929 . S
H1681 C1710 0.930 . S
H1682 C1687 0.930 . S
H1683 C1691 0.930 . S
O1684 Co1653 2.037 . S
O1684 C1704 1.234 . S
C1685 O1659 1.269 . S
C1685 O1660 1.257 . S
C1686 H1661 0.930 . S
C1686 C1689 1.388 . S
C1686 C1691 1.418 . S
C1687 H1682 0.930 . S
C1687 C1690 1.404 . S
C1687 C1691 1.353 . S
N1688 Co1653 2.145 . S
N1688 C1689 1.397 . S
N1688 C1690 1.334 . S
C1689 H1670 0.929 . S
C1689 C1686 1.388 . S
C1689 N1688 1.397 . S
C1690 H1671 0.929 . S
C1690 C1687 1.404 . S
C1690 N1688 1.334 . S
C1691 H1683 0.930 . S
C1691 C1686 1.418 . S
C1691 C1687 1.353 . S
C1692 H1662 0.930 . S
C1692 N1693 1.330 . S
C1692 C1694 1.446 . S
N1693 Co1652 2.151 . S
N1693 C1692 1.330 . S
N1693 C1697 1.418 . S
C1694 H1673 0.929 . S
C1694 C1692 1.446 . S
C1694 C1695 1.332 . S
C1695 H1675 0.931 . S
C1695 C1694 1.332 . S
C1695 C1696 1.267 . S
C1696 H1664 0.929 . S
C1696 C1695 1.267 . S
C1696 C1697 1.251 . S
C1697 H1667 0.929 . S
C1697 N1693 1.418 . S
C1697 C1696 1.251 . S
C1698 H1665 0.930 . S
C1698 C1700 1.406 . S
C1698 C1703 1.261 . S
C1699 H1666 0.930 . S
C1699 N1701 1.325 . S
C1699 C1702 1.357 . S
C1700 H1668 0.928 . S
C1700 C1698 1.406 . S
C1700 N1701 1.261 . S
N1701 Co1652 2.214 . S
N1701 C1699 1.325 . S
N1701 C1700 1.261 . S
C1702 H1672 0.931 . S
C1702 C1699 1.357 . S
C1702 C1703 1.312 . S
C1703 H1674 0.930 1_545 S
C1703 C1698 1.261 . S
C1703 C1702 1.312 . S
C1704 O1676 1.214 . S
C1704 O1684 1.234 . S
C1705 H1677 0.929 . S
C1705 C1708 1.391 . S
C1705 C1710 1.391 . S
C1706 H1678 0.929 . S
C1706 C1707 1.390 . S
C1706 N1709 1.391 . S
C1707 H1679 0.930 . S
C1707 C1706 1.390 . S
C1707 C1708 1.392 . S
C1708 H1680 0.929 . S
C1708 C1705 1.391 . S
C1708 C1707 1.392 . S
N1709 Co1653 2.257 . S
N1709 C1706 1.391 . S
N1709 C1710 1.388 . S
C1710 H1681 0.930 . S
C1710 C1705 1.391 . S
C1710 N1709 1.388 . S
Co1711 O1713 2.143 . S
Co1711 O1719 2.074 . S
Co1711 O1722 2.093 . S
Co1711 O1735 2.097 . S
Co1711 N1752 2.151 . S
Co1711 N1760 2.214 . S
Co1712 O1713 2.160 . S
Co1712 O1718 2.058 . S
Co1712 O1728 2.057 . S
Co1712 O1743 2.037 . S
Co1712 N1747 2.145 . S
Co1712 N1768 2.257 . S
O1713 Co1711 2.143 . S
O1713 Co1712 2.160 . S
C1714 O1715 1.278 . S
C1714 O1722 1.224 . S
O1715 C1714 1.278 . S
C1716 O1717 1.245 . S
C1716 O1728 1.232 . S
O1717 C1716 1.245 . S
O1718 Co1712 2.058 . S
O1718 C1744 1.269 . S
O1719 Co1711 2.074 . S
O1719 C1744 1.257 . S
H1720 C1745 0.930 . S
H1721 C1751 0.930 . S
O1722 Co1711 2.093 . S
O1722 C1714 1.224 . S
H1723 C1755 0.929 . S
H1724 C1757 0.930 . S
H1725 C1758 0.930 . S
H1726 C1756 0.929 . S
H1727 C1759 0.928 . S
O1728 Co1712 2.057 . S
O1728 C1716 1.232 . S
H1729 C1748 0.929 . S
H1730 C1749 0.929 . S
H1731 C1761 0.931 . S
H1732 C1753 0.929 . S
H1733 C1762 0.930 . S
H1734 C1754 0.931 . S
O1735 Co1711 2.097 . S
O1735 C1763 1.214 . S
H1736 C1764 0.929 . S
H1737 C1765 0.929 . S
H1738 C1766 0.930 . S
H1739 C1767 0.929 . S
H1740 C1769 0.930 . S
H1741 C1746 0.930 . S
H1742 C1750 0.930 . S
O1743 Co1712 2.037 . S
O1743 C1763 1.234 . S
C1744 O1718 1.269 . S
C1744 O1719 1.257 . S
C1745 H1720 0.930 . S
C1745 C1748 1.388 . S
C1745 C1750 1.418 . S
C1746 H1741 0.930 . S
C1746 C1749 1.404 . S
C1746 C1750 1.353 . S
N1747 Co1712 2.145 . S
N1747 C1748 1.397 . S
N1747 C1749 1.334 . S
C1748 H1729 0.929 . S
C1748 C1745 1.388 . S
C1748 N1747 1.397 . S
C1749 H1730 0.929 . S
C1749 C1746 1.404 . S
C1749 N1747 1.334 . S
C1750 H1742 0.930 . S
C1750 C1745 1.418 . S
C1750 C1746 1.353 . S
C1751 H1721 0.930 . S
C1751 N1752 1.330 . S
C1751 C1753 1.446 . S
N1752 Co1711 2.151 . S
N1752 C1751 1.330 . S
N1752 C1756 1.418 . S
C1753 H1732 0.929 . S
C1753 C1751 1.446 . S
C1753 C1754 1.332 . S
C1754 H1734 0.931 . S
C1754 C1753 1.332 . S
C1754 C1755 1.267 . S
C1755 H1723 0.929 . S
C1755 C1754 1.267 . S
C1755 C1756 1.251 . S
C1756 H1726 0.929 . S
C1756 N1752 1.418 . S
C1756 C1755 1.251 . S
C1757 H1724 0.930 . S
C1757 C1759 1.406 . S
C1757 C1762 1.261 . S
C1758 H1725 0.930 . S
C1758 N1760 1.325 . S
C1758 C1761 1.357 . S
C1759 H1727 0.928 . S
C1759 C1757 1.406 . S
C1759 N1760 1.261 . S
N1760 Co1711 2.214 . S
N1760 C1758 1.325 . S
N1760 C1759 1.261 . S
C1761 H1731 0.931 . S
C1761 C1758 1.357 . S
C1761 C1762 1.312 . S
C1762 H1733 0.930 . S
C1762 C1757 1.261 . S
C1762 C1761 1.312 . S
C1763 O1735 1.214 . S
C1763 O1743 1.234 . S
C1764 H1736 0.929 . S
C1764 C1767 1.391 . S
C1764 C1769 1.391 . S
C1765 H1737 0.929 . S
C1765 C1766 1.390 . S
C1765 N1768 1.391 . S
C1766 H1738 0.930 . S
C1766 C1765 1.390 . S
C1766 C1767 1.392 . S
C1767 H1739 0.929 . S
C1767 C1764 1.391 . S
C1767 C1766 1.392 . S
N1768 Co1712 2.257 . S
N1768 C1765 1.391 . S
N1768 C1769 1.388 . S
C1769 H1740 0.930 . S
C1769 C1764 1.391 . S
C1769 N1768 1.388 . S
Co1770 O1772 2.143 . S
Co1770 O1778 2.074 . S
Co1770 O1781 2.093 . S
Co1770 O1794 2.097 . S
Co1770 N1811 2.151 . S
Co1770 N1819 2.214 . S
Co1771 O1772 2.160 . S
Co1771 O1777 2.058 . S
Co1771 O1787 2.057 . S
Co1771 O1802 2.037 . S
Co1771 N1806 2.145 . S
Co1771 N1827 2.257 . S
O1772 Co1770 2.143 . S
O1772 Co1771 2.160 . S
C1773 O1774 1.278 . S
C1773 O1781 1.224 . S
O1774 C1773 1.278 . S
C1775 O1776 1.245 . S
C1775 O1787 1.232 . S
O1776 C1775 1.245 . S
O1777 Co1771 2.058 . S
O1777 C1803 1.269 . S
O1778 Co1770 2.074 . S
O1778 C1803 1.257 . S
H1779 C1804 0.930 . S
H1780 C1810 0.930 . S
O1781 Co1770 2.093 . S
O1781 C1773 1.224 . S
H1782 C1814 0.929 . S
H1783 C1816 0.930 . S
H1784 C1817 0.930 . S
H1785 C1815 0.929 . S
H1786 C1818 0.928 . S
O1787 Co1771 2.057 . S
O1787 C1775 1.232 . S
H1788 C1807 0.929 . S
H1789 C1808 0.929 . S
H1790 C1820 0.931 . S
H1791 C1812 0.929 . S
H1792 C1821 0.930 1_545 S
H1793 C1813 0.931 . S
O1794 Co1770 2.097 . S
O1794 C1822 1.214 . S
H1795 C1823 0.929 . S
H1796 C1824 0.929 . S
H1797 C1825 0.930 . S
H1798 C1826 0.929 . S
H1799 C1828 0.930 . S
H1800 C1805 0.930 . S
H1801 C1809 0.930 . S
O1802 Co1771 2.037 . S
O1802 C1822 1.234 . S
C1803 O1777 1.269 . S
C1803 O1778 1.257 . S
C1804 H1779 0.930 . S
C1804 C1807 1.388 . S
C1804 C1809 1.418 . S
C1805 H1800 0.930 . S
C1805 C1808 1.404 . S
C1805 C1809 1.353 . S
N1806 Co1771 2.145 . S
N1806 C1807 1.397 . S
N1806 C1808 1.334 . S
C1807 H1788 0.929 . S
C1807 C1804 1.388 . S
C1807 N1806 1.397 . S
C1808 H1789 0.929 . S
C1808 C1805 1.404 . S
C1808 N1806 1.334 . S
C1809 H1801 0.930 . S
C1809 C1804 1.418 . S
C1809 C1805 1.353 . S
C1810 H1780 0.930 . S
C1810 N1811 1.330 . S
C1810 C1812 1.446 . S
N1811 Co1770 2.151 . S
N1811 C1810 1.330 . S
N1811 C1815 1.418 . S
C1812 H1791 0.929 . S
C1812 C1810 1.446 . S
C1812 C1813 1.332 . S
C1813 H1793 0.931 . S
C1813 C1812 1.332 . S
C1813 C1814 1.267 . S
C1814 H1782 0.929 . S
C1814 C1813 1.267 . S
C1814 C1815 1.251 . S
C1815 H1785 0.929 . S
C1815 N1811 1.418 . S
C1815 C1814 1.251 . S
C1816 H1783 0.930 . S
C1816 C1818 1.406 . S
C1816 C1821 1.261 . S
C1817 H1784 0.930 . S
C1817 N1819 1.325 . S
C1817 C1820 1.357 . S
C1818 H1786 0.928 . S
C1818 C1816 1.406 . S
C1818 N1819 1.261 . S
N1819 Co1770 2.214 . S
N1819 C1817 1.325 . S
N1819 C1818 1.261 . S
C1820 H1790 0.931 . S
C1820 C1817 1.357 . S
C1820 C1821 1.312 . S
C1821 H1792 0.930 1_565 S
C1821 C1816 1.261 . S
C1821 C1820 1.312 . S
C1822 O1794 1.214 . S
C1822 O1802 1.234 . S
C1823 H1795 0.929 . S
C1823 C1826 1.391 . S
C1823 C1828 1.391 . S
C1824 H1796 0.929 . S
C1824 C1825 1.390 . S
C1824 N1827 1.391 . S
C1825 H1797 0.930 . S
C1825 C1824 1.390 . S
C1825 C1826 1.392 . S
C1826 H1798 0.929 . S
C1826 C1823 1.391 . S
C1826 C1825 1.392 . S
N1827 Co1771 2.257 . S
N1827 C1824 1.391 . S
N1827 C1828 1.388 . S
C1828 H1799 0.930 . S
C1828 C1823 1.391 . S
C1828 N1827 1.388 . S
Co1829 O1831 2.143 . S
Co1829 O1837 2.074 . S
Co1829 O1840 2.093 . S
Co1829 O1853 2.097 . S
Co1829 N1870 2.151 . S
Co1829 N1878 2.214 . S
Co1830 O1831 2.160 . S
Co1830 O1836 2.058 . S
Co1830 O1846 2.057 . S
Co1830 O1861 2.037 . S
Co1830 N1865 2.145 . S
Co1830 N1886 2.257 . S
O1831 Co1829 2.143 . S
O1831 Co1830 2.160 . S
C1832 O1833 1.278 . S
C1832 O1840 1.224 . S
O1833 C1832 1.278 . S
C1834 O1835 1.245 . S
C1834 O1846 1.232 . S
O1835 C1834 1.245 . S
O1836 Co1830 2.058 . S
O1836 C1862 1.269 . S
O1837 Co1829 2.074 . S
O1837 C1862 1.257 . S
H1838 C1863 0.930 . S
H1839 C1869 0.930 . S
O1840 Co1829 2.093 . S
O1840 C1832 1.224 . S
H1841 C1873 0.929 . S
H1842 C1875 0.930 . S
H1843 C1876 0.930 . S
H1844 C1874 0.929 . S
H1845 C1877 0.928 . S
O1846 Co1830 2.057 . S
O1846 C1834 1.232 . S
H1847 C1866 0.929 . S
H1848 C1867 0.929 . S
H1849 C1879 0.931 . S
H1850 C1871 0.929 . S
H1851 C1880 0.930 . S
H1852 C1872 0.931 . S
O1853 Co1829 2.097 . S
O1853 C1881 1.214 . S
H1854 C1882 0.929 . S
H1855 C1883 0.929 . S
H1856 C1884 0.930 . S
H1857 C1885 0.929 . S
H1858 C1887 0.930 . S
H1859 C1864 0.930 . S
H1860 C1868 0.930 . S
O1861 Co1830 2.037 . S
O1861 C1881 1.234 . S
C1862 O1836 1.269 . S
C1862 O1837 1.257 . S
C1863 H1838 0.930 . S
C1863 C1866 1.388 . S
C1863 C1868 1.418 . S
C1864 H1859 0.930 . S
C1864 C1867 1.404 . S
C1864 C1868 1.353 . S
N1865 Co1830 2.145 . S
N1865 C1866 1.397 . S
N1865 C1867 1.334 . S
C1866 H1847 0.929 . S
C1866 C1863 1.388 . S
C1866 N1865 1.397 . S
C1867 H1848 0.929 . S
C1867 C1864 1.404 . S
C1867 N1865 1.334 . S
C1868 H1860 0.930 . S
C1868 C1863 1.418 . S
C1868 C1864 1.353 . S
C1869 H1839 0.930 . S
C1869 N1870 1.330 . S
C1869 C1871 1.446 . S
N1870 Co1829 2.151 . S
N1870 C1869 1.330 . S
N1870 C1874 1.418 . S
C1871 H1850 0.929 . S
C1871 C1869 1.446 . S
C1871 C1872 1.332 . S
C1872 H1852 0.931 . S
C1872 C1871 1.332 . S
C1872 C1873 1.267 . S
C1873 H1841 0.929 . S
C1873 C1872 1.267 . S
C1873 C1874 1.251 . S
C1874 H1844 0.929 . S
C1874 N1870 1.418 . S
C1874 C1873 1.251 . S
C1875 H1842 0.930 . S
C1875 C1877 1.406 . S
C1875 C1880 1.261 . S
C1876 H1843 0.930 . S
C1876 N1878 1.325 . S
C1876 C1879 1.357 . S
C1877 H1845 0.928 . S
C1877 C1875 1.406 . S
C1877 N1878 1.261 . S
N1878 Co1829 2.214 . S
N1878 C1876 1.325 . S
N1878 C1877 1.261 . S
C1879 H1849 0.931 . S
C1879 C1876 1.357 . S
C1879 C1880 1.312 . S
C1880 H1851 0.930 . S
C1880 C1875 1.261 . S
C1880 C1879 1.312 . S
C1881 O1853 1.214 . S
C1881 O1861 1.234 . S
C1882 H1854 0.929 . S
C1882 C1885 1.391 . S
C1882 C1887 1.391 . S
C1883 H1855 0.929 . S
C1883 C1884 1.390 . S
C1883 N1886 1.391 . S
C1884 H1856 0.930 . S
C1884 C1883 1.390 . S
C1884 C1885 1.392 . S
C1885 H1857 0.929 . S
C1885 C1882 1.391 . S
C1885 C1884 1.392 . S
N1886 Co1830 2.257 . S
N1886 C1883 1.391 . S
N1886 C1887 1.388 . S
C1887 H1858 0.930 . S
C1887 C1882 1.391 . S
C1887 N1886 1.388 . S
Co1888 O1890 2.143 . S
Co1888 O1896 2.074 . S
Co1888 O1899 2.093 . S
Co1888 O1912 2.097 . S
Co1888 N1929 2.151 . S
Co1888 N1937 2.214 . S
Co1889 O1890 2.160 . S
Co1889 O1895 2.058 . S
Co1889 O1905 2.057 . S
Co1889 O1920 2.037 . S
Co1889 N1924 2.145 . S
Co1889 N1945 2.257 . S
O1890 Co1888 2.143 . S
O1890 Co1889 2.160 . S
C1891 O1892 1.278 . S
C1891 O1899 1.224 . S
O1892 C1891 1.278 . S
C1893 O1894 1.245 . S
C1893 O1905 1.232 . S
O1894 C1893 1.245 . S
O1895 Co1889 2.058 . S
O1895 C1921 1.269 . S
O1896 Co1888 2.074 . S
O1896 C1921 1.257 . S
H1897 C1922 0.930 . S
H1898 C1928 0.930 . S
O1899 Co1888 2.093 . S
O1899 C1891 1.224 . S
H1900 C1932 0.929 . S
H1901 C1934 0.930 . S
H1902 C1935 0.930 . S
H1903 C1933 0.929 . S
H1904 C1936 0.928 . S
O1905 Co1889 2.057 . S
O1905 C1893 1.232 . S
H1906 C1925 0.929 . S
H1907 C1926 0.929 . S
H1908 C1938 0.931 . S
H1909 C1930 0.929 . S
H1910 C1939 0.930 . S
H1911 C1931 0.931 . S
O1912 Co1888 2.097 . S
O1912 C1940 1.214 . S
H1913 C1941 0.929 . S
H1914 C1942 0.929 . S
H1915 C1943 0.930 . S
H1916 C1944 0.929 . S
H1917 C1946 0.930 . S
H1918 C1923 0.930 . S
H1919 C1927 0.930 . S
O1920 Co1889 2.037 . S
O1920 C1940 1.234 . S
C1921 O1895 1.269 . S
C1921 O1896 1.257 . S
C1922 H1897 0.930 . S
C1922 C1925 1.388 . S
C1922 C1927 1.418 . S
C1923 H1918 0.930 . S
C1923 C1926 1.404 . S
C1923 C1927 1.353 . S
N1924 Co1889 2.145 . S
N1924 C1925 1.397 . S
N1924 C1926 1.334 . S
C1925 H1906 0.929 . S
C1925 C1922 1.388 . S
C1925 N1924 1.397 . S
C1926 H1907 0.929 . S
C1926 C1923 1.404 . S
C1926 N1924 1.334 . S
C1927 H1919 0.930 . S
C1927 C1922 1.418 . S
C1927 C1923 1.353 . S
C1928 H1898 0.930 . S
C1928 N1929 1.330 . S
C1928 C1930 1.446 . S
N1929 Co1888 2.151 . S
N1929 C1928 1.330 . S
N1929 C1933 1.418 . S
C1930 H1909 0.929 . S
C1930 C1928 1.446 . S
C1930 C1931 1.332 . S
C1931 H1911 0.931 . S
C1931 C1930 1.332 . S
C1931 C1932 1.267 . S
C1932 H1900 0.929 . S
C1932 C1931 1.267 . S
C1932 C1933 1.251 . S
C1933 H1903 0.929 . S
C1933 N1929 1.418 . S
C1933 C1932 1.251 . S
C1934 H1901 0.930 . S
C1934 C1936 1.406 . S
C1934 C1939 1.261 . S
C1935 H1902 0.930 . S
C1935 N1937 1.325 . S
C1935 C1938 1.357 . S
C1936 H1904 0.928 . S
C1936 C1934 1.406 . S
C1936 N1937 1.261 . S
N1937 Co1888 2.214 . S
N1937 C1935 1.325 . S
N1937 C1936 1.261 . S
C1938 H1908 0.931 . S
C1938 C1935 1.357 . S
C1938 C1939 1.312 . S
C1939 H1910 0.930 . S
C1939 C1934 1.261 . S
C1939 C1938 1.312 . S
C1940 O1912 1.214 . S
C1940 O1920 1.234 . S
C1941 H1913 0.929 . S
C1941 C1944 1.391 . S
C1941 C1946 1.391 . S
C1942 H1914 0.929 . S
C1942 C1943 1.390 . S
C1942 N1945 1.391 . S
C1943 H1915 0.930 . S
C1943 C1942 1.390 . S
C1943 C1944 1.392 . S
C1944 H1916 0.929 . S
C1944 C1941 1.391 . S
C1944 C1943 1.392 . S
N1945 Co1889 2.257 . S
N1945 C1942 1.391 . S
N1945 C1946 1.388 . S
C1946 H1917 0.930 . S
C1946 C1941 1.391 . S
C1946 N1945 1.388 . S
Co1947 O1949 2.143 . S
Co1947 O1955 2.074 . S
Co1947 O1958 2.093 . S
Co1947 O1971 2.097 . S
Co1947 N1988 2.151 . S
Co1947 N1996 2.214 . S
Co1948 O1949 2.160 . S
Co1948 O1954 2.058 . S
Co1948 O1964 2.057 . S
Co1948 O1979 2.037 . S
Co1948 N1983 2.145 . S
Co1948 N2004 2.257 . S
O1949 Co1947 2.143 . S
O1949 Co1948 2.160 . S
C1950 O1951 1.278 . S
C1950 O1958 1.224 . S
O1951 C1950 1.278 . S
C1952 O1953 1.245 . S
C1952 O1964 1.232 . S
O1953 C1952 1.245 . S
O1954 Co1948 2.058 . S
O1954 C1980 1.269 . S
O1955 Co1947 2.074 . S
O1955 C1980 1.257 . S
H1956 C1981 0.930 . S
H1957 C1987 0.930 . S
O1958 Co1947 2.093 . S
O1958 C1950 1.224 . S
H1959 C1991 0.929 . S
H1960 C1993 0.930 . S
H1961 C1994 0.930 . S
H1962 C1992 0.929 . S
H1963 C1995 0.928 . S
O1964 Co1948 2.057 . S
O1964 C1952 1.232 . S
H1965 C1984 0.929 . S
H1966 C1985 0.929 . S
H1967 C1997 0.931 . S
H1968 C1989 0.929 . S
H1969 C1998 0.930 . S
H1970 C1990 0.931 . S
O1971 Co1947 2.097 . S
O1971 C1999 1.214 . S
H1972 C2000 0.929 . S
H1973 C2001 0.929 . S
H1974 C2002 0.930 . S
H1975 C2003 0.929 . S
H1976 C2005 0.930 . S
H1977 C1982 0.930 . S
H1978 C1986 0.930 . S
O1979 Co1948 2.037 . S
O1979 C1999 1.234 . S
C1980 O1954 1.269 . S
C1980 O1955 1.257 . S
C1981 H1956 0.930 . S
C1981 C1984 1.388 . S
C1981 C1986 1.418 . S
C1982 H1977 0.930 . S
C1982 C1985 1.404 . S
C1982 C1986 1.353 . S
N1983 Co1948 2.145 . S
N1983 C1984 1.397 . S
N1983 C1985 1.334 . S
C1984 H1965 0.929 . S
C1984 C1981 1.388 . S
C1984 N1983 1.397 . S
C1985 H1966 0.929 . S
C1985 C1982 1.404 . S
C1985 N1983 1.334 . S
C1986 H1978 0.930 . S
C1986 C1981 1.418 . S
C1986 C1982 1.353 . S
C1987 H1957 0.930 . S
C1987 N1988 1.330 . S
C1987 C1989 1.446 . S
N1988 Co1947 2.151 . S
N1988 C1987 1.330 . S
N1988 C1992 1.418 . S
C1989 H1968 0.929 . S
C1989 C1987 1.446 . S
C1989 C1990 1.332 . S
C1990 H1970 0.931 . S
C1990 C1989 1.332 . S
C1990 C1991 1.267 . S
C1991 H1959 0.929 . S
C1991 C1990 1.267 . S
C1991 C1992 1.251 . S
C1992 H1962 0.929 . S
C1992 N1988 1.418 . S
C1992 C1991 1.251 . S
C1993 H1960 0.930 . S
C1993 C1995 1.406 . S
C1993 C1998 1.261 . S
C1994 H1961 0.930 . S
C1994 N1996 1.325 . S
C1994 C1997 1.357 . S
C1995 H1963 0.928 . S
C1995 C1993 1.406 . S
C1995 N1996 1.261 . S
N1996 Co1947 2.214 . S
N1996 C1994 1.325 . S
N1996 C1995 1.261 . S
C1997 H1967 0.931 . S
C1997 C1994 1.357 . S
C1997 C1998 1.312 . S
C1998 H1969 0.930 . S
C1998 C1993 1.261 . S
C1998 C1997 1.312 . S
C1999 O1971 1.214 . S
C1999 O1979 1.234 . S
C2000 H1972 0.929 . S
C2000 C2003 1.391 . S
C2000 C2005 1.391 . S
C2001 H1973 0.929 . S
C2001 C2002 1.390 . S
C2001 N2004 1.391 . S
C2002 H1974 0.930 . S
C2002 C2001 1.390 . S
C2002 C2003 1.392 . S
C2003 H1975 0.929 . S
C2003 C2000 1.391 . S
C2003 C2002 1.392 . S
N2004 Co1948 2.257 . S
N2004 C2001 1.391 . S
N2004 C2005 1.388 . S
C2005 H1976 0.930 . S
C2005 C2000 1.391 . S
C2005 N2004 1.388 . S
Co2006 O2008 2.143 . S
Co2006 O2014 2.074 . S
Co2006 O2017 2.093 . S
Co2006 O2030 2.097 . S
Co2006 N2047 2.151 . S
Co2006 N2055 2.214 . S
Co2007 O2008 2.160 . S
Co2007 O2013 2.058 . S
Co2007 O2023 2.057 . S
Co2007 O2038 2.037 . S
Co2007 N2042 2.145 . S
Co2007 N2063 2.257 . S
O2008 Co2006 2.143 . S
O2008 Co2007 2.160 . S
C2009 O2010 1.278 . S
C2009 O2017 1.224 . S
O2010 C2009 1.278 . S
C2011 O2012 1.245 . S
C2011 O2023 1.232 . S
O2012 C2011 1.245 . S
O2013 Co2007 2.058 . S
O2013 C2039 1.269 . S
O2014 Co2006 2.074 . S
O2014 C2039 1.257 . S
H2015 C2040 0.930 . S
H2016 C2046 0.930 . S
O2017 Co2006 2.093 . S
O2017 C2009 1.224 . S
H2018 C2050 0.929 . S
H2019 C2052 0.930 . S
H2020 C2053 0.930 . S
H2021 C2051 0.929 . S
H2022 C2054 0.928 . S
O2023 Co2007 2.057 . S
O2023 C2011 1.232 . S
H2024 C2043 0.929 . S
H2025 C2044 0.929 . S
H2026 C2056 0.931 . S
H2027 C2048 0.929 . S
H2028 C2057 0.930 . S
H2029 C2049 0.931 . S
O2030 Co2006 2.097 . S
O2030 C2058 1.214 . S
H2031 C2059 0.929 . S
H2032 C2060 0.929 . S
H2033 C2061 0.930 . S
H2034 C2062 0.929 . S
H2035 C2064 0.930 . S
H2036 C2041 0.930 . S
H2037 C2045 0.930 . S
O2038 Co2007 2.037 . S
O2038 C2058 1.234 . S
C2039 O2013 1.269 . S
C2039 O2014 1.257 . S
C2040 H2015 0.930 . S
C2040 C2043 1.388 . S
C2040 C2045 1.418 . S
C2041 H2036 0.930 . S
C2041 C2044 1.404 . S
C2041 C2045 1.353 . S
N2042 Co2007 2.145 . S
N2042 C2043 1.397 . S
N2042 C2044 1.334 . S
C2043 H2024 0.929 . S
C2043 C2040 1.388 . S
C2043 N2042 1.397 . S
C2044 H2025 0.929 . S
C2044 C2041 1.404 . S
C2044 N2042 1.334 . S
C2045 H2037 0.930 . S
C2045 C2040 1.418 . S
C2045 C2041 1.353 . S
C2046 H2016 0.930 . S
C2046 N2047 1.330 . S
C2046 C2048 1.446 . S
N2047 Co2006 2.151 . S
N2047 C2046 1.330 . S
N2047 C2051 1.418 . S
C2048 H2027 0.929 . S
C2048 C2046 1.446 . S
C2048 C2049 1.332 . S
C2049 H2029 0.931 . S
C2049 C2048 1.332 . S
C2049 C2050 1.267 . S
C2050 H2018 0.929 . S
C2050 C2049 1.267 . S
C2050 C2051 1.251 . S
C2051 H2021 0.929 . S
C2051 N2047 1.418 . S
C2051 C2050 1.251 . S
C2052 H2019 0.930 . S
C2052 C2054 1.406 . S
C2052 C2057 1.261 . S
C2053 H2020 0.930 . S
C2053 N2055 1.325 . S
C2053 C2056 1.357 . S
C2054 H2022 0.928 . S
C2054 C2052 1.406 . S
C2054 N2055 1.261 . S
N2055 Co2006 2.214 . S
N2055 C2053 1.325 . S
N2055 C2054 1.261 . S
C2056 H2026 0.931 . S
C2056 C2053 1.357 . S
C2056 C2057 1.312 . S
C2057 H2028 0.930 . S
C2057 C2052 1.261 . S
C2057 C2056 1.312 . S
C2058 O2030 1.214 . S
C2058 O2038 1.234 . S
C2059 H2031 0.929 . S
C2059 C2062 1.391 . S
C2059 C2064 1.391 . S
C2060 H2032 0.929 . S
C2060 C2061 1.390 . S
C2060 N2063 1.391 . S
C2061 H2033 0.930 . S
C2061 C2060 1.390 . S
C2061 C2062 1.392 . S
C2062 H2034 0.929 . S
C2062 C2059 1.391 . S
C2062 C2061 1.392 . S
N2063 Co2007 2.257 . S
N2063 C2060 1.391 . S
N2063 C2064 1.388 . S
C2064 H2035 0.930 . S
C2064 C2059 1.391 . S
C2064 N2063 1.388 . S
Co2065 O2067 2.143 . S
Co2065 O2073 2.074 . S
Co2065 O2076 2.093 . S
Co2065 O2089 2.097 . S
Co2065 N2106 2.151 . S
Co2065 N2114 2.214 . S
Co2066 O2067 2.160 . S
Co2066 O2072 2.058 . S
Co2066 O2082 2.057 . S
Co2066 O2097 2.037 . S
Co2066 N2101 2.145 . S
Co2066 N2122 2.257 . S
O2067 Co2065 2.143 . S
O2067 Co2066 2.160 . S
C2068 O2069 1.278 . S
C2068 O2076 1.224 . S
O2069 C2068 1.278 . S
C2070 O2071 1.245 . S
C2070 O2082 1.232 . S
O2071 C2070 1.245 . S
O2072 Co2066 2.058 . S
O2072 C2098 1.269 . S
O2073 Co2065 2.074 . S
O2073 C2098 1.257 . S
H2074 C2099 0.930 . S
H2075 C2105 0.930 . S
O2076 Co2065 2.093 . S
O2076 C2068 1.224 . S
H2077 C2109 0.929 . S
H2078 C2111 0.930 . S
H2079 C2112 0.930 . S
H2080 C2110 0.929 . S
H2081 C2113 0.928 . S
O2082 Co2066 2.057 . S
O2082 C2070 1.232 . S
H2083 C2102 0.929 . S
H2084 C2103 0.929 . S
H2085 C2115 0.931 . S
H2086 C2107 0.929 . S
H2087 C2116 0.930 . S
H2088 C2108 0.931 . S
O2089 Co2065 2.097 . S
O2089 C2117 1.214 . S
H2090 C2118 0.929 . S
H2091 C2119 0.929 . S
H2092 C2120 0.930 . S
H2093 C2121 0.929 . S
H2094 C2123 0.930 . S
H2095 C2100 0.930 . S
H2096 C2104 0.930 . S
O2097 Co2066 2.037 . S
O2097 C2117 1.234 . S
C2098 O2072 1.269 . S
C2098 O2073 1.257 . S
C2099 H2074 0.930 . S
C2099 C2102 1.388 . S
C2099 C2104 1.418 . S
C2100 H2095 0.930 . S
C2100 C2103 1.404 . S
C2100 C2104 1.353 . S
N2101 Co2066 2.145 . S
N2101 C2102 1.397 . S
N2101 C2103 1.334 . S
C2102 H2083 0.929 . S
C2102 C2099 1.388 . S
C2102 N2101 1.397 . S
C2103 H2084 0.929 . S
C2103 C2100 1.404 . S
C2103 N2101 1.334 . S
C2104 H2096 0.930 . S
C2104 C2099 1.418 . S
C2104 C2100 1.353 . S
C2105 H2075 0.930 . S
C2105 N2106 1.330 . S
C2105 C2107 1.446 . S
N2106 Co2065 2.151 . S
N2106 C2105 1.330 . S
N2106 C2110 1.418 . S
C2107 H2086 0.929 . S
C2107 C2105 1.446 . S
C2107 C2108 1.332 . S
C2108 H2088 0.931 . S
C2108 C2107 1.332 . S
C2108 C2109 1.267 . S
C2109 H2077 0.929 . S
C2109 C2108 1.267 . S
C2109 C2110 1.251 . S
C2110 H2080 0.929 . S
C2110 N2106 1.418 . S
C2110 C2109 1.251 . S
C2111 H2078 0.930 . S
C2111 C2113 1.406 . S
C2111 C2116 1.261 . S
C2112 H2079 0.930 . S
C2112 N2114 1.325 . S
C2112 C2115 1.357 . S
C2113 H2081 0.928 . S
C2113 C2111 1.406 . S
C2113 N2114 1.261 . S
N2114 Co2065 2.214 . S
N2114 C2112 1.325 . S
N2114 C2113 1.261 . S
C2115 H2085 0.931 . S
C2115 C2112 1.357 . S
C2115 C2116 1.312 . S
C2116 H2087 0.930 . S
C2116 C2111 1.261 . S
C2116 C2115 1.312 . S
C2117 O2089 1.214 . S
C2117 O2097 1.234 . S
C2118 H2090 0.929 . S
C2118 C2121 1.391 . S
C2118 C2123 1.391 . S
C2119 H2091 0.929 . S
C2119 C2120 1.390 . S
C2119 N2122 1.391 . S
C2120 H2092 0.930 . S
C2120 C2119 1.390 . S
C2120 C2121 1.392 . S
C2121 H2093 0.929 . S
C2121 C2118 1.391 . S
C2121 C2120 1.392 . S
N2122 Co2066 2.257 . S
N2122 C2119 1.391 . S
N2122 C2123 1.388 . S
C2123 H2094 0.930 . S
C2123 C2118 1.391 . S
C2123 N2122 1.388 . S
Co2124 O2126 2.143 . S
Co2124 O2132 2.074 . S
Co2124 O2135 2.093 . S
Co2124 O2148 2.097 . S
Co2124 N2165 2.151 . S
Co2124 N2173 2.214 . S
Co2125 O2126 2.160 . S
Co2125 O2131 2.058 . S
Co2125 O2141 2.057 . S
Co2125 O2156 2.037 . S
Co2125 N2160 2.145 . S
Co2125 N2181 2.257 . S
O2126 Co2124 2.143 . S
O2126 Co2125 2.160 . S
C2127 O2128 1.278 . S
C2127 O2135 1.224 . S
O2128 C2127 1.278 . S
C2129 O2130 1.245 . S
C2129 O2141 1.232 . S
O2130 C2129 1.245 . S
O2131 Co2125 2.058 . S
O2131 C2157 1.269 . S
O2132 Co2124 2.074 . S
O2132 C2157 1.257 . S
H2133 C2158 0.930 . S
H2134 C2164 0.930 . S
O2135 Co2124 2.093 . S
O2135 C2127 1.224 . S
H2136 C2168 0.929 . S
H2137 C2170 0.930 . S
H2138 C2171 0.930 . S
H2139 C2169 0.929 . S
H2140 C2172 0.928 . S
O2141 Co2125 2.057 . S
O2141 C2129 1.232 . S
H2142 C2161 0.929 . S
H2143 C2162 0.929 . S
H2144 C2174 0.931 . S
H2145 C2166 0.929 . S
H2146 C2175 0.930 . S
H2147 C2167 0.931 . S
O2148 Co2124 2.097 . S
O2148 C2176 1.214 . S
H2149 C2177 0.929 . S
H2150 C2178 0.929 . S
H2151 C2179 0.930 . S
H2152 C2180 0.929 . S
H2153 C2182 0.930 . S
H2154 C2159 0.930 . S
H2155 C2163 0.930 . S
O2156 Co2125 2.037 . S
O2156 C2176 1.234 . S
C2157 O2131 1.269 . S
C2157 O2132 1.257 . S
C2158 H2133 0.930 . S
C2158 C2161 1.388 . S
C2158 C2163 1.418 . S
C2159 H2154 0.930 . S
C2159 C2162 1.404 . S
C2159 C2163 1.353 . S
N2160 Co2125 2.145 . S
N2160 C2161 1.397 . S
N2160 C2162 1.334 . S
C2161 H2142 0.929 . S
C2161 C2158 1.388 . S
C2161 N2160 1.397 . S
C2162 H2143 0.929 . S
C2162 C2159 1.404 . S
C2162 N2160 1.334 . S
C2163 H2155 0.930 . S
C2163 C2158 1.418 . S
C2163 C2159 1.353 . S
C2164 H2134 0.930 . S
C2164 N2165 1.330 . S
C2164 C2166 1.446 . S
N2165 Co2124 2.151 . S
N2165 C2164 1.330 . S
N2165 C2169 1.418 . S
C2166 H2145 0.929 . S
C2166 C2164 1.446 . S
C2166 C2167 1.332 . S
C2167 H2147 0.931 . S
C2167 C2166 1.332 . S
C2167 C2168 1.267 . S
C2168 H2136 0.929 . S
C2168 C2167 1.267 . S
C2168 C2169 1.251 . S
C2169 H2139 0.929 . S
C2169 N2165 1.418 . S
C2169 C2168 1.251 . S
C2170 H2137 0.930 . S
C2170 C2172 1.406 . S
C2170 C2175 1.261 . S
C2171 H2138 0.930 . S
C2171 N2173 1.325 . S
C2171 C2174 1.357 . S
C2172 H2140 0.928 . S
C2172 C2170 1.406 . S
C2172 N2173 1.261 . S
N2173 Co2124 2.214 . S
N2173 C2171 1.325 . S
N2173 C2172 1.261 . S
C2174 H2144 0.931 . S
C2174 C2171 1.357 . S
C2174 C2175 1.312 . S
C2175 H2146 0.930 . S
C2175 C2170 1.261 . S
C2175 C2174 1.312 . S
C2176 O2148 1.214 . S
C2176 O2156 1.234 . S
C2177 H2149 0.929 . S
C2177 C2180 1.391 . S
C2177 C2182 1.391 . S
C2178 H2150 0.929 . S
C2178 C2179 1.390 . S
C2178 N2181 1.391 . S
C2179 H2151 0.930 . S
C2179 C2178 1.390 . S
C2179 C2180 1.392 . S
C2180 H2152 0.929 . S
C2180 C2177 1.391 . S
C2180 C2179 1.392 . S
N2181 Co2125 2.257 . S
N2181 C2178 1.391 . S
N2181 C2182 1.388 . S
C2182 H2153 0.930 . S
C2182 C2177 1.391 . S
C2182 N2181 1.388 . S
Co2183 O2185 2.143 . S
Co2183 O2191 2.074 . S
Co2183 O2194 2.093 . S
Co2183 O2207 2.097 . S
Co2183 N2224 2.151 . S
Co2183 N2232 2.214 . S
Co2184 O2185 2.160 . S
Co2184 O2190 2.058 . S
Co2184 O2200 2.057 . S
Co2184 O2215 2.037 . S
Co2184 N2219 2.145 . S
Co2184 N2240 2.257 . S
O2185 Co2183 2.143 . S
O2185 Co2184 2.160 . S
C2186 O2187 1.278 . S
C2186 O2194 1.224 . S
O2187 C2186 1.278 . S
C2188 O2189 1.245 . S
C2188 O2200 1.232 . S
O2189 C2188 1.245 . S
O2190 Co2184 2.058 . S
O2190 C2216 1.269 . S
O2191 Co2183 2.074 . S
O2191 C2216 1.257 . S
H2192 C2217 0.930 . S
H2193 C2223 0.930 . S
O2194 Co2183 2.093 . S
O2194 C2186 1.224 . S
H2195 C2227 0.929 . S
H2196 C2229 0.930 . S
H2197 C2230 0.930 . S
H2198 C2228 0.929 . S
H2199 C2231 0.928 . S
O2200 Co2184 2.057 . S
O2200 C2188 1.232 . S
H2201 C2220 0.929 . S
H2202 C2221 0.929 . S
H2203 C2233 0.931 . S
H2204 C2225 0.929 . S
H2205 C2234 0.930 . S
H2206 C2226 0.931 . S
O2207 Co2183 2.097 . S
O2207 C2235 1.214 . S
H2208 C2236 0.929 . S
H2209 C2237 0.929 . S
H2210 C2238 0.930 . S
H2211 C2239 0.929 . S
H2212 C2241 0.930 . S
H2213 C2218 0.930 . S
H2214 C2222 0.930 . S
O2215 Co2184 2.037 . S
O2215 C2235 1.234 . S
C2216 O2190 1.269 . S
C2216 O2191 1.257 . S
C2217 H2192 0.930 . S
C2217 C2220 1.388 . S
C2217 C2222 1.418 . S
C2218 H2213 0.930 . S
C2218 C2221 1.404 . S
C2218 C2222 1.353 . S
N2219 Co2184 2.145 . S
N2219 C2220 1.397 . S
N2219 C2221 1.334 . S
C2220 H2201 0.929 . S
C2220 C2217 1.388 . S
C2220 N2219 1.397 . S
C2221 H2202 0.929 . S
C2221 C2218 1.404 . S
C2221 N2219 1.334 . S
C2222 H2214 0.930 . S
C2222 C2217 1.418 . S
C2222 C2218 1.353 . S
C2223 H2193 0.930 . S
C2223 N2224 1.330 . S
C2223 C2225 1.446 . S
N2224 Co2183 2.151 . S
N2224 C2223 1.330 . S
N2224 C2228 1.418 . S
C2225 H2204 0.929 . S
C2225 C2223 1.446 . S
C2225 C2226 1.332 . S
C2226 H2206 0.931 . S
C2226 C2225 1.332 . S
C2226 C2227 1.267 . S
C2227 H2195 0.929 . S
C2227 C2226 1.267 . S
C2227 C2228 1.251 . S
C2228 H2198 0.929 . S
C2228 N2224 1.418 . S
C2228 C2227 1.251 . S
C2229 H2196 0.930 . S
C2229 C2231 1.406 . S
C2229 C2234 1.261 . S
C2230 H2197 0.930 . S
C2230 N2232 1.325 . S
C2230 C2233 1.357 . S
C2231 H2199 0.928 . S
C2231 C2229 1.406 . S
C2231 N2232 1.261 . S
N2232 Co2183 2.214 . S
N2232 C2230 1.325 . S
N2232 C2231 1.261 . S
C2233 H2203 0.931 . S
C2233 C2230 1.357 . S
C2233 C2234 1.312 . S
C2234 H2205 0.930 . S
C2234 C2229 1.261 . S
C2234 C2233 1.312 . S
C2235 O2207 1.214 . S
C2235 O2215 1.234 . S
C2236 H2208 0.929 . S
C2236 C2239 1.391 . S
C2236 C2241 1.391 . S
C2237 H2209 0.929 . S
C2237 C2238 1.390 . S
C2237 N2240 1.391 . S
C2238 H2210 0.930 . S
C2238 C2237 1.390 . S
C2238 C2239 1.392 . S
C2239 H2211 0.929 . S
C2239 C2236 1.391 . S
C2239 C2238 1.392 . S
N2240 Co2184 2.257 . S
N2240 C2237 1.391 . S
N2240 C2241 1.388 . S
C2241 H2212 0.930 . S
C2241 C2236 1.391 . S
C2241 N2240 1.388 . S
Co2242 O2244 2.143 . S
Co2242 O2250 2.074 . S
Co2242 O2253 2.093 . S
Co2242 O2266 2.097 . S
Co2242 N2283 2.151 . S
Co2242 N2291 2.214 . S
Co2243 O2244 2.160 . S
Co2243 O2249 2.058 . S
Co2243 O2259 2.057 . S
Co2243 O2274 2.037 . S
Co2243 N2278 2.145 . S
Co2243 N2299 2.257 . S
O2244 Co2242 2.143 . S
O2244 Co2243 2.160 . S
C2245 O2246 1.278 . S
C2245 O2253 1.224 . S
O2246 C2245 1.278 . S
C2247 O2248 1.245 . S
C2247 O2259 1.232 . S
O2248 C2247 1.245 . S
O2249 Co2243 2.058 . S
O2249 C2275 1.269 . S
O2250 Co2242 2.074 . S
O2250 C2275 1.257 . S
H2251 C2276 0.930 . S
H2252 C2282 0.930 . S
O2253 Co2242 2.093 . S
O2253 C2245 1.224 . S
H2254 C2286 0.929 . S
H2255 C2288 0.930 . S
H2256 C2289 0.930 . S
H2257 C2287 0.929 . S
H2258 C2290 0.928 . S
O2259 Co2243 2.057 . S
O2259 C2247 1.232 . S
H2260 C2279 0.929 . S
H2261 C2280 0.929 . S
H2262 C2292 0.931 . S
H2263 C2284 0.929 . S
H2264 C2293 0.930 . S
H2265 C2285 0.931 . S
O2266 Co2242 2.097 . S
O2266 C2294 1.214 . S
H2267 C2295 0.929 . S
H2268 C2296 0.929 . S
H2269 C2297 0.930 . S
H2270 C2298 0.929 . S
H2271 C2300 0.930 . S
H2272 C2277 0.930 . S
H2273 C2281 0.926 . S
O2274 Co2243 2.037 . S
O2274 C2294 1.234 . S
C2275 O2249 1.269 . S
C2275 O2250 1.257 . S
C2276 H2251 0.930 . S
C2276 C2279 1.388 . S
C2276 C2281 1.418 . S
C2277 H2272 0.930 . S
C2277 C2280 1.404 . S
C2277 C2281 1.353 . S
N2278 Co2243 2.145 . S
N2278 C2279 1.397 . S
N2278 C2280 1.334 . S
C2279 H2260 0.929 . S
C2279 C2276 1.388 . S
C2279 N2278 1.397 . S
C2280 H2261 0.929 . S
C2280 C2277 1.404 . S
C2280 N2278 1.334 . S
C2281 H2273 0.926 . S
C2281 C2276 1.418 . S
C2281 C2277 1.353 . S
C2282 H2252 0.930 . S
C2282 N2283 1.330 . S
C2282 C2284 1.446 . S
N2283 Co2242 2.151 . S
N2283 C2282 1.330 . S
N2283 C2287 1.418 . S
C2284 H2263 0.929 . S
C2284 C2282 1.446 . S
C2284 C2285 1.332 . S
C2285 H2265 0.931 . S
C2285 C2284 1.332 . S
C2285 C2286 1.267 . S
C2286 H2254 0.929 . S
C2286 C2285 1.267 . S
C2286 C2287 1.251 . S
C2287 H2257 0.929 . S
C2287 N2283 1.418 . S
C2287 C2286 1.251 . S
C2288 H2255 0.930 . S
C2288 C2290 1.406 . S
C2288 C2293 1.261 . S
C2289 H2256 0.930 . S
C2289 N2291 1.325 . S
C2289 C2292 1.357 . S
C2290 H2258 0.928 . S
C2290 C2288 1.406 . S
C2290 N2291 1.261 . S
N2291 Co2242 2.214 . S
N2291 C2289 1.325 . S
N2291 C2290 1.261 . S
C2292 H2262 0.931 . S
C2292 C2289 1.357 . S
C2292 C2293 1.312 . S
C2293 H2264 0.930 . S
C2293 C2288 1.261 . S
C2293 C2292 1.312 . S
C2294 O2266 1.214 . S
C2294 O2274 1.234 . S
C2295 H2267 0.929 . S
C2295 C2298 1.391 . S
C2295 C2300 1.391 . S
C2296 H2268 0.929 . S
C2296 C2297 1.390 . S
C2296 N2299 1.391 . S
C2297 H2269 0.930 . S
C2297 C2296 1.390 . S
C2297 C2298 1.392 . S
C2298 H2270 0.929 . S
C2298 C2295 1.391 . S
C2298 C2297 1.392 . S
N2299 Co2243 2.257 . S
N2299 C2296 1.391 . S
N2299 C2300 1.388 . S
C2300 H2271 0.930 . S
C2300 C2295 1.391 . S
C2300 N2299 1.388 . S
Co2301 O2303 2.143 . S
Co2301 O2309 2.074 . S
Co2301 O2312 2.093 . S
Co2301 O2325 2.097 . S
Co2301 N2342 2.151 . S
Co2301 N2350 2.214 . S
Co2302 O2303 2.160 . S
Co2302 O2308 2.058 . S
Co2302 O2318 2.057 . S
Co2302 O2333 2.037 . S
Co2302 N2337 2.145 . S
Co2302 N2358 2.257 . S
O2303 Co2301 2.143 . S
O2303 Co2302 2.160 . S
C2304 O2305 1.278 . S
C2304 O2312 1.224 . S
O2305 C2304 1.278 . S
C2306 O2307 1.245 . S
C2306 O2318 1.232 . S
O2307 C2306 1.245 . S
O2308 Co2302 2.058 . S
O2308 C2334 1.269 . S
O2309 Co2301 2.074 . S
O2309 C2334 1.257 . S
H2310 C2335 0.930 . S
H2311 C2341 0.930 . S
O2312 Co2301 2.093 . S
O2312 C2304 1.224 . S
H2313 C2345 0.929 . S
H2314 C2347 0.930 . S
H2315 C2348 0.930 . S
H2316 C2346 0.929 . S
H2317 C2349 0.928 . S
O2318 Co2302 2.057 . S
O2318 C2306 1.232 . S
H2319 C2338 0.929 . S
H2320 C2339 0.929 . S
H2321 C2351 0.931 . S
H2322 C2343 0.929 . S
H2323 C2352 0.930 . S
H2324 C2344 0.931 . S
O2325 Co2301 2.097 . S
O2325 C2353 1.214 . S
H2326 C2354 0.929 . S
H2327 C2355 0.929 . S
H2328 C2356 0.930 . S
H2329 C2357 0.929 . S
H2330 C2359 0.930 . S
H2331 C2336 0.930 . S
H2332 C2340 0.930 . S
O2333 Co2302 2.037 . S
O2333 C2353 1.234 . S
C2334 O2308 1.269 . S
C2334 O2309 1.257 . S
C2335 H2310 0.930 . S
C2335 C2338 1.388 . S
C2335 C2340 1.418 . S
C2336 H2331 0.930 . S
C2336 C2339 1.404 . S
C2336 C2340 1.353 . S
N2337 Co2302 2.145 . S
N2337 C2338 1.397 . S
N2337 C2339 1.334 . S
C2338 H2319 0.929 . S
C2338 C2335 1.388 . S
C2338 N2337 1.397 . S
C2339 H2320 0.929 . S
C2339 C2336 1.404 . S
C2339 N2337 1.334 . S
C2340 H2332 0.930 . S
C2340 C2335 1.418 . S
C2340 C2336 1.353 . S
C2341 H2311 0.930 . S
C2341 N2342 1.330 . S
C2341 C2343 1.446 . S
N2342 Co2301 2.151 . S
N2342 C2341 1.330 . S
N2342 C2346 1.418 . S
C2343 H2322 0.929 . S
C2343 C2341 1.446 . S
C2343 C2344 1.332 . S
C2344 H2324 0.931 . S
C2344 C2343 1.332 . S
C2344 C2345 1.267 . S
C2345 H2313 0.929 . S
C2345 C2344 1.267 . S
C2345 C2346 1.251 . S
C2346 H2316 0.929 . S
C2346 N2342 1.418 . S
C2346 C2345 1.251 . S
C2347 H2314 0.930 . S
C2347 C2349 1.406 . S
C2347 C2352 1.261 . S
C2348 H2315 0.930 . S
C2348 N2350 1.325 . S
C2348 C2351 1.357 . S
C2349 H2317 0.928 . S
C2349 C2347 1.406 . S
C2349 N2350 1.261 . S
N2350 Co2301 2.214 . S
N2350 C2348 1.325 . S
N2350 C2349 1.261 . S
C2351 H2321 0.931 . S
C2351 C2348 1.357 . S
C2351 C2352 1.312 . S
C2352 H2323 0.930 . S
C2352 C2347 1.261 . S
C2352 C2351 1.312 . S
C2353 O2325 1.214 . S
C2353 O2333 1.234 . S
C2354 H2326 0.929 . S
C2354 C2357 1.391 . S
C2354 C2359 1.391 . S
C2355 H2327 0.929 . S
C2355 C2356 1.390 . S
C2355 N2358 1.391 . S
C2356 H2328 0.930 . S
C2356 C2355 1.390 . S
C2356 C2357 1.392 . S
C2357 H2329 0.929 . S
C2357 C2354 1.391 . S
C2357 C2356 1.392 . S
N2358 Co2302 2.257 . S
N2358 C2355 1.391 . S
N2358 C2359 1.388 . S
C2359 H2330 0.930 . S
C2359 C2354 1.391 . S
C2359 N2358 1.388 . S
Co2360 O2362 2.143 . S
Co2360 O2368 2.074 . S
Co2360 O2371 2.093 . S
Co2360 O2384 2.097 . S
Co2360 N2401 2.151 . S
Co2360 N2409 2.214 . S
Co2361 O2362 2.160 . S
Co2361 O2367 2.058 . S
Co2361 O2377 2.057 . S
Co2361 O2392 2.037 . S
Co2361 N2396 2.145 . S
Co2361 N2417 2.257 . S
O2362 Co2360 2.143 . S
O2362 Co2361 2.160 . S
C2363 O2364 1.278 . S
C2363 O2371 1.224 . S
O2364 C2363 1.278 . S
C2365 O2366 1.245 . S
C2365 O2377 1.232 . S
O2366 C2365 1.245 . S
O2367 Co2361 2.058 . S
O2367 C2393 1.269 . S
O2368 Co2360 2.074 . S
O2368 C2393 1.257 . S
H2369 C2394 0.930 . S
H2370 C2400 0.930 . S
O2371 Co2360 2.093 . S
O2371 C2363 1.224 . S
H2372 C2404 0.929 . S
H2373 C2406 0.930 . S
H2374 C2407 0.930 . S
H2375 C2405 0.929 . S
H2376 C2408 0.928 . S
O2377 Co2361 2.057 . S
O2377 C2365 1.232 . S
H2378 C2397 0.929 . S
H2379 C2398 0.929 . S
H2380 C2410 0.931 . S
H2381 C2402 0.929 . S
H2382 C2411 0.930 . S
H2383 C2403 0.931 . S
O2384 Co2360 2.097 . S
O2384 C2412 1.214 . S
H2385 C2413 0.929 . S
H2386 C2414 0.929 . S
H2387 C2415 0.930 . S
H2388 C2416 0.929 . S
H2389 C2418 0.930 . S
H2390 C2395 0.930 . S
H2391 C2399 0.930 . S
O2392 Co2361 2.037 . S
O2392 C2412 1.234 . S
C2393 O2367 1.269 . S
C2393 O2368 1.257 . S
C2394 H2369 0.930 . S
C2394 C2397 1.388 . S
C2394 C2399 1.418 . S
C2395 H2390 0.930 . S
C2395 C2398 1.404 . S
C2395 C2399 1.353 . S
N2396 Co2361 2.145 . S
N2396 C2397 1.397 . S
N2396 C2398 1.334 . S
C2397 H2378 0.929 . S
C2397 C2394 1.388 . S
C2397 N2396 1.397 . S
C2398 H2379 0.929 . S
C2398 C2395 1.404 . S
C2398 N2396 1.334 . S
C2399 H2391 0.930 . S
C2399 C2394 1.418 . S
C2399 C2395 1.353 . S
C2400 H2370 0.930 . S
C2400 N2401 1.330 . S
C2400 C2402 1.446 . S
N2401 Co2360 2.151 . S
N2401 C2400 1.330 . S
N2401 C2405 1.418 . S
C2402 H2381 0.929 . S
C2402 C2400 1.446 . S
C2402 C2403 1.332 . S
C2403 H2383 0.931 . S
C2403 C2402 1.332 . S
C2403 C2404 1.267 . S
C2404 H2372 0.929 . S
C2404 C2403 1.267 . S
C2404 C2405 1.251 . S
C2405 H2375 0.929 . S
C2405 N2401 1.418 . S
C2405 C2404 1.251 . S
C2406 H2373 0.930 . S
C2406 C2408 1.406 . S
C2406 C2411 1.261 . S
C2407 H2374 0.930 . S
C2407 N2409 1.325 . S
C2407 C2410 1.357 . S
C2408 H2376 0.928 . S
C2408 C2406 1.406 . S
C2408 N2409 1.261 . S
N2409 Co2360 2.214 . S
N2409 C2407 1.325 . S
N2409 C2408 1.261 . S
C2410 H2380 0.931 . S
C2410 C2407 1.357 . S
C2410 C2411 1.312 . S
C2411 H2382 0.930 . S
C2411 C2406 1.261 . S
C2411 C2410 1.312 . S
C2412 O2384 1.214 . S
C2412 O2392 1.234 . S
C2413 H2385 0.929 . S
C2413 C2416 1.391 . S
C2413 C2418 1.391 . S
C2414 H2386 0.929 . S
C2414 C2415 1.390 . S
C2414 N2417 1.391 . S
C2415 H2387 0.930 . S
C2415 C2414 1.390 . S
C2415 C2416 1.392 . S
C2416 H2388 0.929 . S
C2416 C2413 1.391 . S
C2416 C2415 1.392 . S
N2417 Co2361 2.257 . S
N2417 C2414 1.391 . S
N2417 C2418 1.388 . S
C2418 H2389 0.930 . S
C2418 C2413 1.391 . S
C2418 N2417 1.388 . S
Co2419 O2421 2.143 . S
Co2419 O2427 2.074 . S
Co2419 O2430 2.093 . S
Co2419 O2443 2.097 . S
Co2419 N2460 2.151 . S
Co2419 N2468 2.214 . S
Co2420 O2421 2.160 . S
Co2420 O2426 2.058 . S
Co2420 O2436 2.057 . S
Co2420 O2451 2.037 . S
Co2420 N2455 2.145 . S
Co2420 N2476 2.257 . S
O2421 Co2419 2.143 . S
O2421 Co2420 2.160 . S
C2422 O2423 1.278 . S
C2422 O2430 1.224 . S
O2423 C2422 1.278 . S
C2424 O2425 1.245 . S
C2424 O2436 1.232 . S
O2425 C2424 1.245 . S
O2426 Co2420 2.058 . S
O2426 C2452 1.269 . S
O2427 Co2419 2.074 . S
O2427 C2452 1.257 . S
H2428 C2453 0.930 . S
H2429 C2459 0.930 . S
O2430 Co2419 2.093 . S
O2430 C2422 1.224 . S
H2431 C2463 0.929 . S
H2432 C2465 0.930 . S
H2433 C2466 0.930 . S
H2434 C2464 0.929 . S
H2435 C2467 0.928 . S
O2436 Co2420 2.057 . S
O2436 C2424 1.232 . S
H2437 C2456 0.929 . S
H2438 C2457 0.929 . S
H2439 C2469 0.931 . S
H2440 C2461 0.929 . S
H2441 C2470 0.930 . S
H2442 C2462 0.931 . S
O2443 Co2419 2.097 . S
O2443 C2471 1.214 . S
H2444 C2472 0.929 . S
H2445 C2473 0.929 . S
H2446 C2474 0.930 . S
H2447 C2475 0.929 . S
H2448 C2477 0.930 . S
H2449 C2454 0.930 . S
H2450 C2458 0.930 . S
O2451 Co2420 2.037 . S
O2451 C2471 1.234 . S
C2452 O2426 1.269 . S
C2452 O2427 1.257 . S
C2453 H2428 0.930 . S
C2453 C2456 1.388 . S
C2453 C2458 1.418 . S
C2454 H2449 0.930 . S
C2454 C2457 1.404 . S
C2454 C2458 1.353 . S
N2455 Co2420 2.145 . S
N2455 C2456 1.397 . S
N2455 C2457 1.334 . S
C2456 H2437 0.929 . S
C2456 C2453 1.388 . S
C2456 N2455 1.397 . S
C2457 H2438 0.929 . S
C2457 C2454 1.404 . S
C2457 N2455 1.334 . S
C2458 H2450 0.930 . S
C2458 C2453 1.418 . S
C2458 C2454 1.353 . S
C2459 H2429 0.930 . S
C2459 N2460 1.330 . S
C2459 C2461 1.446 . S
N2460 Co2419 2.151 . S
N2460 C2459 1.330 . S
N2460 C2464 1.418 . S
C2461 H2440 0.929 . S
C2461 C2459 1.446 . S
C2461 C2462 1.332 . S
C2462 H2442 0.931 . S
C2462 C2461 1.332 . S
C2462 C2463 1.267 . S
C2463 H2431 0.929 . S
C2463 C2462 1.267 . S
C2463 C2464 1.251 . S
C2464 H2434 0.929 . S
C2464 N2460 1.418 . S
C2464 C2463 1.251 . S
C2465 H2432 0.930 . S
C2465 C2467 1.406 . S
C2465 C2470 1.261 . S
C2466 H2433 0.930 . S
C2466 N2468 1.325 . S
C2466 C2469 1.357 . S
C2467 H2435 0.928 . S
C2467 C2465 1.406 . S
C2467 N2468 1.261 . S
N2468 Co2419 2.214 . S
N2468 C2466 1.325 . S
N2468 C2467 1.261 . S
C2469 H2439 0.931 . S
C2469 C2466 1.357 . S
C2469 C2470 1.312 . S
C2470 H2441 0.930 . S
C2470 C2465 1.261 . S
C2470 C2469 1.312 . S
C2471 O2443 1.214 . S
C2471 O2451 1.234 . S
C2472 H2444 0.929 . S
C2472 C2475 1.391 . S
C2472 C2477 1.391 . S
C2473 H2445 0.929 . S
C2473 C2474 1.390 . S
C2473 N2476 1.391 . S
C2474 H2446 0.930 . S
C2474 C2473 1.390 . S
C2474 C2475 1.392 . S
C2475 H2447 0.929 . S
C2475 C2472 1.391 . S
C2475 C2474 1.392 . S
N2476 Co2420 2.257 . S
N2476 C2473 1.391 . S
N2476 C2477 1.388 . S
C2477 H2448 0.930 . S
C2477 C2472 1.391 . S
C2477 N2476 1.388 . S
Co2478 O2480 2.143 . S
Co2478 O2486 2.074 . S
Co2478 O2489 2.093 . S
Co2478 O2502 2.097 . S
Co2478 N2519 2.151 . S
Co2478 N2527 2.214 . S
Co2479 O2480 2.160 . S
Co2479 O2485 2.058 . S
Co2479 O2495 2.057 . S
Co2479 O2510 2.037 . S
Co2479 N2514 2.145 . S
Co2479 N2535 2.257 . S
O2480 Co2478 2.143 . S
O2480 Co2479 2.160 . S
C2481 O2482 1.278 . S
C2481 O2489 1.224 . S
O2482 C2481 1.278 . S
C2483 O2484 1.245 . S
C2483 O2495 1.232 . S
O2484 C2483 1.245 . S
O2485 Co2479 2.058 . S
O2485 C2511 1.269 . S
O2486 Co2478 2.074 . S
O2486 C2511 1.257 . S
H2487 C2512 0.930 . S
H2488 C2518 0.930 . S
O2489 Co2478 2.093 . S
O2489 C2481 1.224 . S
H2490 C2522 0.929 . S
H2491 C2524 0.930 . S
H2492 C2525 0.930 . S
H2493 C2523 0.929 . S
H2494 C2526 0.928 . S
O2495 Co2479 2.057 . S
O2495 C2483 1.232 . S
H2496 C2515 0.929 . S
H2497 C2516 0.929 . S
H2498 C2528 0.931 . S
H2499 C2520 0.929 . S
H2500 C2529 0.930 . S
H2501 C2521 0.931 . S
O2502 Co2478 2.097 . S
O2502 C2530 1.214 . S
H2503 C2531 0.929 . S
H2504 C2532 0.929 . S
H2505 C2533 0.930 . S
H2506 C2534 0.929 . S
H2507 C2536 0.930 . S
H2508 C2513 0.930 . S
H2509 C2517 0.930 . S
O2510 Co2479 2.037 . S
O2510 C2530 1.234 . S
C2511 O2485 1.269 . S
C2511 O2486 1.257 . S
C2512 H2487 0.930 . S
C2512 C2515 1.388 . S
C2512 C2517 1.418 . S
C2513 H2508 0.930 . S
C2513 C2516 1.404 . S
C2513 C2517 1.353 . S
N2514 Co2479 2.145 . S
N2514 C2515 1.397 . S
N2514 C2516 1.334 . S
C2515 H2496 0.929 . S
C2515 C2512 1.388 . S
C2515 N2514 1.397 . S
C2516 H2497 0.929 . S
C2516 C2513 1.404 . S
C2516 N2514 1.334 . S
C2517 H2509 0.930 . S
C2517 C2512 1.418 . S
C2517 C2513 1.353 . S
C2518 H2488 0.930 . S
C2518 N2519 1.330 . S
C2518 C2520 1.446 . S
N2519 Co2478 2.151 . S
N2519 C2518 1.330 . S
N2519 C2523 1.418 . S
C2520 H2499 0.929 . S
C2520 C2518 1.446 . S
C2520 C2521 1.332 . S
C2521 H2501 0.931 . S
C2521 C2520 1.332 . S
C2521 C2522 1.267 . S
C2522 H2490 0.929 . S
C2522 C2521 1.267 . S
C2522 C2523 1.251 . S
C2523 H2493 0.929 . S
C2523 N2519 1.418 . S
C2523 C2522 1.251 . S
C2524 H2491 0.930 . S
C2524 C2526 1.406 . S
C2524 C2529 1.261 . S
C2525 H2492 0.930 . S
C2525 N2527 1.325 . S
C2525 C2528 1.357 . S
C2526 H2494 0.928 . S
C2526 C2524 1.406 . S
C2526 N2527 1.261 . S
N2527 Co2478 2.214 . S
N2527 C2525 1.325 . S
N2527 C2526 1.261 . S
C2528 H2498 0.931 . S
C2528 C2525 1.357 . S
C2528 C2529 1.312 . S
C2529 H2500 0.930 . S
C2529 C2524 1.261 . S
C2529 C2528 1.312 . S
C2530 O2502 1.214 . S
C2530 O2510 1.234 . S
C2531 H2503 0.929 . S
C2531 C2534 1.391 . S
C2531 C2536 1.391 . S
C2532 H2504 0.929 . S
C2532 C2533 1.390 . S
C2532 N2535 1.391 . S
C2533 H2505 0.930 . S
C2533 C2532 1.390 . S
C2533 C2534 1.392 . S
C2534 H2506 0.929 . S
C2534 C2531 1.391 . S
C2534 C2533 1.392 . S
N2535 Co2479 2.257 . S
N2535 C2532 1.391 . S
N2535 C2536 1.388 . S
C2536 H2507 0.930 . S
C2536 C2531 1.391 . S
C2536 N2535 1.388 . S
Co2537 O2539 2.143 . S
Co2537 O2545 2.074 . S
Co2537 O2548 2.093 . S
Co2537 O2561 2.097 . S
Co2537 N2578 2.151 . S
Co2537 N2586 2.214 . S
Co2538 O2539 2.160 . S
Co2538 O2544 2.058 . S
Co2538 O2554 2.057 . S
Co2538 O2569 2.037 . S
Co2538 N2573 2.145 . S
Co2538 N2594 2.257 . S
O2539 Co2537 2.143 . S
O2539 Co2538 2.160 . S
C2540 O2541 1.278 . S
C2540 O2548 1.224 . S
O2541 C2540 1.278 . S
C2542 O2543 1.245 . S
C2542 O2554 1.232 . S
O2543 C2542 1.245 . S
O2544 Co2538 2.058 . S
O2544 C2570 1.269 . S
O2545 Co2537 2.074 . S
O2545 C2570 1.257 . S
H2546 C2571 0.930 . S
H2547 C2577 0.930 . S
O2548 Co2537 2.093 . S
O2548 C2540 1.224 . S
H2549 C2581 0.929 . S
H2550 C2583 0.930 . S
H2551 C2584 0.930 . S
H2552 C2582 0.929 . S
H2553 C2585 0.928 . S
O2554 Co2538 2.057 . S
O2554 C2542 1.232 . S
H2555 C2574 0.929 . S
H2556 C2575 0.929 . S
H2557 C2587 0.931 . S
H2558 C2579 0.929 . S
H2559 C2588 0.930 . S
H2560 C2580 0.931 . S
O2561 Co2537 2.097 . S
O2561 C2589 1.214 . S
H2562 C2590 0.929 . S
H2563 C2591 0.929 . S
H2564 C2592 0.930 . S
H2565 C2593 0.929 . S
H2566 C2595 0.930 . S
H2567 C2572 0.930 . S
H2568 C2576 0.930 . S
O2569 Co2538 2.037 . S
O2569 C2589 1.234 . S
C2570 O2544 1.269 . S
C2570 O2545 1.257 . S
C2571 H2546 0.930 . S
C2571 C2574 1.388 . S
C2571 C2576 1.418 . S
C2572 H2567 0.930 . S
C2572 C2575 1.404 . S
C2572 C2576 1.353 . S
N2573 Co2538 2.145 . S
N2573 C2574 1.397 . S
N2573 C2575 1.334 . S
C2574 H2555 0.929 . S
C2574 C2571 1.388 . S
C2574 N2573 1.397 . S
C2575 H2556 0.929 . S
C2575 C2572 1.404 . S
C2575 N2573 1.334 . S
C2576 H2568 0.930 . S
C2576 C2571 1.418 . S
C2576 C2572 1.353 . S
C2577 H2547 0.930 . S
C2577 N2578 1.330 . S
C2577 C2579 1.446 . S
N2578 Co2537 2.151 . S
N2578 C2577 1.330 . S
N2578 C2582 1.418 . S
C2579 H2558 0.929 . S
C2579 C2577 1.446 . S
C2579 C2580 1.332 . S
C2580 H2560 0.931 . S
C2580 C2579 1.332 . S
C2580 C2581 1.267 . S
C2581 H2549 0.929 . S
C2581 C2580 1.267 . S
C2581 C2582 1.251 . S
C2582 H2552 0.929 . S
C2582 N2578 1.418 . S
C2582 C2581 1.251 . S
C2583 H2550 0.930 . S
C2583 C2585 1.406 . S
C2583 C2588 1.261 . S
C2584 H2551 0.930 . S
C2584 N2586 1.325 . S
C2584 C2587 1.357 . S
C2585 H2553 0.928 . S
C2585 C2583 1.406 . S
C2585 N2586 1.261 . S
N2586 Co2537 2.214 . S
N2586 C2584 1.325 . S
N2586 C2585 1.261 . S
C2587 H2557 0.931 . S
C2587 C2584 1.357 . S
C2587 C2588 1.312 . S
C2588 H2559 0.930 . S
C2588 C2583 1.261 . S
C2588 C2587 1.312 . S
C2589 O2561 1.214 . S
C2589 O2569 1.234 . S
C2590 H2562 0.929 . S
C2590 C2593 1.391 . S
C2590 C2595 1.391 . S
C2591 H2563 0.929 . S
C2591 C2592 1.390 . S
C2591 N2594 1.391 . S
C2592 H2564 0.930 . S
C2592 C2591 1.390 . S
C2592 C2593 1.392 . S
C2593 H2565 0.929 . S
C2593 C2590 1.391 . S
C2593 C2592 1.392 . S
N2594 Co2538 2.257 . S
N2594 C2591 1.391 . S
N2594 C2595 1.388 . S
C2595 H2566 0.930 . S
C2595 C2590 1.391 . S
C2595 N2594 1.388 . S
Co2596 O2598 2.143 . S
Co2596 O2604 2.074 . S
Co2596 O2607 2.093 . S
Co2596 O2620 2.097 . S
Co2596 N2637 2.151 . S
Co2596 N2645 2.214 . S
Co2597 O2598 2.160 . S
Co2597 O2603 2.058 . S
Co2597 O2613 2.057 . S
Co2597 O2628 2.037 . S
Co2597 N2632 2.145 . S
Co2597 N2653 2.257 . S
O2598 Co2596 2.143 . S
O2598 Co2597 2.160 . S
C2599 O2600 1.278 . S
C2599 O2607 1.224 . S
O2600 C2599 1.278 . S
C2601 O2602 1.245 . S
C2601 O2613 1.232 . S
O2602 C2601 1.245 . S
O2603 Co2597 2.058 . S
O2603 C2629 1.269 . S
O2604 Co2596 2.074 . S
O2604 C2629 1.257 . S
H2605 C2630 0.930 . S
H2606 C2636 0.930 . S
O2607 Co2596 2.093 . S
O2607 C2599 1.224 . S
H2608 C2640 0.929 . S
H2609 C2642 0.930 . S
H2610 C2643 0.930 . S
H2611 C2641 0.929 . S
H2612 C2644 0.928 . S
O2613 Co2597 2.057 . S
O2613 C2601 1.232 . S
H2614 C2633 0.929 . S
H2615 C2634 0.929 . S
H2616 C2646 0.931 . S
H2617 C2638 0.929 . S
H2618 C2647 0.930 . S
H2619 C2639 0.931 . S
O2620 Co2596 2.097 . S
O2620 C2648 1.214 . S
H2621 C2649 0.929 . S
H2622 C2650 0.929 . S
H2623 C2651 0.930 . S
H2624 C2652 0.929 . S
H2625 C2654 0.930 . S
H2626 C2631 0.930 . S
H2627 C2635 0.930 . S
O2628 Co2597 2.037 . S
O2628 C2648 1.234 . S
C2629 O2603 1.269 . S
C2629 O2604 1.257 . S
C2630 H2605 0.930 . S
C2630 C2633 1.388 . S
C2630 C2635 1.418 . S
C2631 H2626 0.930 . S
C2631 C2634 1.404 . S
C2631 C2635 1.353 . S
N2632 Co2597 2.145 . S
N2632 C2633 1.397 . S
N2632 C2634 1.334 . S
C2633 H2614 0.929 . S
C2633 C2630 1.388 . S
C2633 N2632 1.397 . S
C2634 H2615 0.929 . S
C2634 C2631 1.404 . S
C2634 N2632 1.334 . S
C2635 H2627 0.930 . S
C2635 C2630 1.418 . S
C2635 C2631 1.353 . S
C2636 H2606 0.930 . S
C2636 N2637 1.330 . S
C2636 C2638 1.446 . S
N2637 Co2596 2.151 . S
N2637 C2636 1.330 . S
N2637 C2641 1.418 . S
C2638 H2617 0.929 . S
C2638 C2636 1.446 . S
C2638 C2639 1.332 . S
C2639 H2619 0.931 . S
C2639 C2638 1.332 . S
C2639 C2640 1.267 . S
C2640 H2608 0.929 . S
C2640 C2639 1.267 . S
C2640 C2641 1.251 . S
C2641 H2611 0.929 . S
C2641 N2637 1.418 . S
C2641 C2640 1.251 . S
C2642 H2609 0.930 . S
C2642 C2644 1.406 . S
C2642 C2647 1.261 . S
C2643 H2610 0.930 . S
C2643 N2645 1.325 . S
C2643 C2646 1.357 . S
C2644 H2612 0.928 . S
C2644 C2642 1.406 . S
C2644 N2645 1.261 . S
N2645 Co2596 2.214 . S
N2645 C2643 1.325 . S
N2645 C2644 1.261 . S
C2646 H2616 0.931 . S
C2646 C2643 1.357 . S
C2646 C2647 1.312 . S
C2647 H2618 0.930 . S
C2647 C2642 1.261 . S
C2647 C2646 1.312 . S
C2648 O2620 1.214 . S
C2648 O2628 1.234 . S
C2649 H2621 0.929 . S
C2649 C2652 1.391 . S
C2649 C2654 1.391 . S
C2650 H2622 0.929 . S
C2650 C2651 1.390 . S
C2650 N2653 1.391 . S
C2651 H2623 0.930 . S
C2651 C2650 1.390 . S
C2651 C2652 1.392 . S
C2652 H2624 0.929 . S
C2652 C2649 1.391 . S
C2652 C2651 1.392 . S
N2653 Co2597 2.257 . S
N2653 C2650 1.391 . S
N2653 C2654 1.388 . S
C2654 H2625 0.930 . S
C2654 C2649 1.391 . S
C2654 N2653 1.388 . S
Co2655 O2657 2.143 . S
Co2655 O2663 2.074 . S
Co2655 O2666 2.093 . S
Co2655 O2679 2.097 . S
Co2655 N2696 2.151 . S
Co2655 N2704 2.214 . S
Co2656 O2657 2.160 . S
Co2656 O2662 2.058 . S
Co2656 O2672 2.057 . S
Co2656 O2687 2.037 . S
Co2656 N2691 2.145 . S
Co2656 N2712 2.257 . S
O2657 Co2655 2.143 . S
O2657 Co2656 2.160 . S
C2658 O2659 1.278 . S
C2658 O2666 1.224 . S
O2659 C2658 1.278 . S
C2660 O2661 1.245 . S
C2660 O2672 1.232 . S
O2661 C2660 1.245 . S
O2662 Co2656 2.058 . S
O2662 C2688 1.269 . S
O2663 Co2655 2.074 . S
O2663 C2688 1.257 . S
H2664 C2689 0.930 . S
H2665 C2695 0.930 . S
O2666 Co2655 2.093 . S
O2666 C2658 1.224 . S
H2667 C2699 0.929 . S
H2668 C2701 0.930 . S
H2669 C2702 0.930 . S
H2670 C2700 0.929 . S
H2671 C2703 0.928 . S
O2672 Co2656 2.057 . S
O2672 C2660 1.232 . S
H2673 C2692 0.929 . S
H2674 C2693 0.929 . S
H2675 C2705 0.931 . S
H2676 C2697 0.929 . S
H2677 C2706 0.930 . S
H2678 C2698 0.931 . S
O2679 Co2655 2.097 . S
O2679 C2707 1.214 . S
H2680 C2708 0.929 . S
H2681 C2709 0.929 . S
H2682 C2710 0.930 . S
H2683 C2711 0.929 . S
H2684 C2713 0.930 . S
H2685 C2690 0.930 . S
H2686 C2694 0.967 . S
O2687 Co2656 2.037 . S
O2687 C2707 1.234 . S
C2688 O2662 1.269 . S
C2688 O2663 1.257 . S
C2689 H2664 0.930 . S
C2689 C2692 1.388 . S
C2689 C2694 1.418 . S
C2690 H2685 0.930 . S
C2690 C2693 1.404 . S
C2690 C2694 1.353 . S
N2691 Co2656 2.145 . S
N2691 C2692 1.397 . S
N2691 C2693 1.334 . S
C2692 H2673 0.929 . S
C2692 C2689 1.388 . S
C2692 N2691 1.397 . S
C2693 H2674 0.929 . S
C2693 C2690 1.404 . S
C2693 N2691 1.334 . S
C2694 H2686 0.967 . S
C2694 C2689 1.418 . S
C2694 C2690 1.353 . S
C2695 H2665 0.930 . S
C2695 N2696 1.330 . S
C2695 C2697 1.446 . S
N2696 Co2655 2.151 . S
N2696 C2695 1.330 . S
N2696 C2700 1.418 . S
C2697 H2676 0.929 . S
C2697 C2695 1.446 . S
C2697 C2698 1.332 . S
C2698 H2678 0.931 . S
C2698 C2697 1.332 . S
C2698 C2699 1.267 . S
C2699 H2667 0.929 . S
C2699 C2698 1.267 . S
C2699 C2700 1.251 . S
C2700 H2670 0.929 . S
C2700 N2696 1.418 . S
C2700 C2699 1.251 . S
C2701 H2668 0.930 . S
C2701 C2703 1.406 . S
C2701 C2706 1.261 . S
C2702 H2669 0.930 . S
C2702 N2704 1.325 . S
C2702 C2705 1.357 . S
C2703 H2671 0.928 . S
C2703 C2701 1.406 . S
C2703 N2704 1.261 . S
N2704 Co2655 2.214 . S
N2704 C2702 1.325 . S
N2704 C2703 1.261 . S
C2705 H2675 0.931 . S
C2705 C2702 1.357 . S
C2705 C2706 1.312 . S
C2706 H2677 0.930 . S
C2706 C2701 1.261 . S
C2706 C2705 1.312 . S
C2707 O2679 1.214 . S
C2707 O2687 1.234 . S
C2708 H2680 0.929 . S
C2708 C2711 1.391 . S
C2708 C2713 1.391 . S
C2709 H2681 0.929 . S
C2709 C2710 1.390 . S
C2709 N2712 1.391 . S
C2710 H2682 0.930 . S
C2710 C2709 1.390 . S
C2710 C2711 1.392 . S
C2711 H2683 0.929 . S
C2711 C2708 1.391 . S
C2711 C2710 1.392 . S
N2712 Co2656 2.257 . S
N2712 C2709 1.391 . S
N2712 C2713 1.388 . S
C2713 H2684 0.930 . S
C2713 C2708 1.391 . S
C2713 N2712 1.388 . S
Co2714 O2716 2.143 . S
Co2714 O2722 2.074 . S
Co2714 O2725 2.093 . S
Co2714 O2738 2.097 . S
Co2714 N2755 2.151 . S
Co2714 N2763 2.214 . S
Co2715 O2716 2.160 . S
Co2715 O2721 2.058 . S
Co2715 O2731 2.057 . S
Co2715 O2746 2.037 . S
Co2715 N2750 2.145 . S
Co2715 N2771 2.257 . S
O2716 Co2714 2.143 . S
O2716 Co2715 2.160 . S
C2717 O2718 1.278 . S
C2717 O2725 1.224 . S
O2718 C2717 1.278 . S
C2719 O2720 1.245 . S
C2719 O2731 1.232 . S
O2720 C2719 1.245 . S
O2721 Co2715 2.058 . S
O2721 C2747 1.269 . S
O2722 Co2714 2.074 . S
O2722 C2747 1.257 . S
H2723 C2748 0.930 . S
H2724 C2754 0.930 . S
O2725 Co2714 2.093 . S
O2725 C2717 1.224 . S
H2726 C2758 0.929 . S
H2727 C2760 0.930 . S
H2728 C2761 0.930 . S
H2729 C2759 0.929 . S
H2730 C2762 0.928 . S
O2731 Co2715 2.057 . S
O2731 C2719 1.232 . S
H2732 C2751 0.929 . S
H2733 C2752 0.929 . S
H2734 C2764 0.931 . S
H2735 C2756 0.929 . S
H2736 C2765 0.930 . S
H2737 C2757 0.931 . S
O2738 Co2714 2.097 . S
O2738 C2766 1.214 . S
H2739 C2767 0.929 . S
H2740 C2768 0.929 . S
H2741 C2769 0.930 . S
H2742 C2770 0.929 . S
H2743 C2772 0.930 . S
H2744 C2749 0.930 . S
H2745 C2753 0.930 . S
O2746 Co2715 2.037 . S
O2746 C2766 1.234 . S
C2747 O2721 1.269 . S
C2747 O2722 1.257 . S
C2748 H2723 0.930 . S
C2748 C2751 1.388 . S
C2748 C2753 1.418 . S
C2749 H2744 0.930 . S
C2749 C2752 1.404 . S
C2749 C2753 1.353 . S
N2750 Co2715 2.145 . S
N2750 C2751 1.397 . S
N2750 C2752 1.334 . S
C2751 H2732 0.929 . S
C2751 C2748 1.388 . S
C2751 N2750 1.397 . S
C2752 H2733 0.929 . S
C2752 C2749 1.404 . S
C2752 N2750 1.334 . S
C2753 H2745 0.930 . S
C2753 C2748 1.418 . S
C2753 C2749 1.353 . S
C2754 H2724 0.930 . S
C2754 N2755 1.330 . S
C2754 C2756 1.446 . S
N2755 Co2714 2.151 . S
N2755 C2754 1.330 . S
N2755 C2759 1.418 . S
C2756 H2735 0.929 . S
C2756 C2754 1.446 . S
C2756 C2757 1.332 . S
C2757 H2737 0.931 . S
C2757 C2756 1.332 . S
C2757 C2758 1.267 . S
C2758 H2726 0.929 . S
C2758 C2757 1.267 . S
C2758 C2759 1.251 . S
C2759 H2729 0.929 . S
C2759 N2755 1.418 . S
C2759 C2758 1.251 . S
C2760 H2727 0.930 . S
C2760 C2762 1.406 . S
C2760 C2765 1.261 . S
C2761 H2728 0.930 . S
C2761 N2763 1.325 . S
C2761 C2764 1.357 . S
C2762 H2730 0.928 . S
C2762 C2760 1.406 . S
C2762 N2763 1.261 . S
N2763 Co2714 2.214 . S
N2763 C2761 1.325 . S
N2763 C2762 1.261 . S
C2764 H2734 0.931 . S
C2764 C2761 1.357 . S
C2764 C2765 1.312 . S
C2765 H2736 0.930 . S
C2765 C2760 1.261 . S
C2765 C2764 1.312 . S
C2766 O2738 1.214 . S
C2766 O2746 1.234 . S
C2767 H2739 0.929 . S
C2767 C2770 1.391 . S
C2767 C2772 1.391 . S
C2768 H2740 0.929 . S
C2768 C2769 1.390 . S
C2768 N2771 1.391 . S
C2769 H2741 0.930 . S
C2769 C2768 1.390 . S
C2769 C2770 1.392 . S
C2770 H2742 0.929 . S
C2770 C2767 1.391 . S
C2770 C2769 1.392 . S
N2771 Co2715 2.257 . S
N2771 C2768 1.391 . S
N2771 C2772 1.388 . S
C2772 H2743 0.930 . S
C2772 C2767 1.391 . S
C2772 N2771 1.388 . S
Co2773 O2775 2.143 . S
Co2773 O2781 2.074 . S
Co2773 O2784 2.093 . S
Co2773 O2797 2.097 . S
Co2773 N2814 2.151 . S
Co2773 N2822 2.214 . S
Co2774 O2775 2.160 . S
Co2774 O2780 2.058 . S
Co2774 O2790 2.057 . S
Co2774 O2805 2.037 . S
Co2774 N2809 2.145 . S
Co2774 N2830 2.257 . S
O2775 Co2773 2.143 . S
O2775 Co2774 2.160 . S
C2776 O2777 1.278 . S
C2776 O2784 1.224 . S
O2777 C2776 1.278 . S
C2778 O2779 1.245 . S
C2778 O2790 1.232 . S
O2779 C2778 1.245 . S
O2780 Co2774 2.058 . S
O2780 C2806 1.269 . S
O2781 Co2773 2.074 . S
O2781 C2806 1.257 . S
H2782 C2807 0.930 . S
H2783 C2813 0.930 . S
O2784 Co2773 2.093 . S
O2784 C2776 1.224 . S
H2785 C2817 0.929 . S
H2786 C2819 0.930 . S
H2787 C2820 0.930 . S
H2788 C2818 0.929 . S
H2789 C2821 0.928 . S
O2790 Co2774 2.057 . S
O2790 C2778 1.232 . S
H2791 C2810 0.929 . S
H2792 C2811 0.929 . S
H2793 C2823 0.931 . S
H2794 C2815 0.929 . S
H2795 C2824 0.930 . S
H2796 C2816 0.931 . S
O2797 Co2773 2.097 . S
O2797 C2825 1.214 . S
H2798 C2826 0.929 . S
H2799 C2827 0.929 . S
H2800 C2828 0.930 . S
H2801 C2829 0.929 . S
H2802 C2831 0.930 . S
H2803 C2808 0.930 . S
H2804 C2812 0.930 . S
O2805 Co2774 2.037 . S
O2805 C2825 1.234 . S
C2806 O2780 1.269 . S
C2806 O2781 1.257 . S
C2807 H2782 0.930 . S
C2807 C2810 1.388 . S
C2807 C2812 1.418 . S
C2808 H2803 0.930 . S
C2808 C2811 1.404 . S
C2808 C2812 1.353 . S
N2809 Co2774 2.145 . S
N2809 C2810 1.397 . S
N2809 C2811 1.334 . S
C2810 H2791 0.929 . S
C2810 C2807 1.388 . S
C2810 N2809 1.397 . S
C2811 H2792 0.929 . S
C2811 C2808 1.404 . S
C2811 N2809 1.334 . S
C2812 H2804 0.930 . S
C2812 C2807 1.418 . S
C2812 C2808 1.353 . S
C2813 H2783 0.930 . S
C2813 N2814 1.330 . S
C2813 C2815 1.446 . S
N2814 Co2773 2.151 . S
N2814 C2813 1.330 . S
N2814 C2818 1.418 . S
C2815 H2794 0.929 . S
C2815 C2813 1.446 . S
C2815 C2816 1.332 . S
C2816 H2796 0.931 . S
C2816 C2815 1.332 . S
C2816 C2817 1.267 . S
C2817 H2785 0.929 . S
C2817 C2816 1.267 . S
C2817 C2818 1.251 . S
C2818 H2788 0.929 . S
C2818 N2814 1.418 . S
C2818 C2817 1.251 . S
C2819 H2786 0.930 . S
C2819 C2821 1.406 . S
C2819 C2824 1.261 . S
C2820 H2787 0.930 . S
C2820 N2822 1.325 . S
C2820 C2823 1.357 . S
C2821 H2789 0.928 . S
C2821 C2819 1.406 . S
C2821 N2822 1.261 . S
N2822 Co2773 2.214 . S
N2822 C2820 1.325 . S
N2822 C2821 1.261 . S
C2823 H2793 0.931 . S
C2823 C2820 1.357 . S
C2823 C2824 1.312 . S
C2824 H2795 0.930 . S
C2824 C2819 1.261 . S
C2824 C2823 1.312 . S
C2825 O2797 1.214 . S
C2825 O2805 1.234 . S
C2826 H2798 0.929 . S
C2826 C2829 1.391 . S
C2826 C2831 1.391 . S
C2827 H2799 0.929 . S
C2827 C2828 1.390 . S
C2827 N2830 1.391 . S
C2828 H2800 0.930 . S
C2828 C2827 1.390 . S
C2828 C2829 1.392 . S
C2829 H2801 0.929 . S
C2829 C2826 1.391 . S
C2829 C2828 1.392 . S
N2830 Co2774 2.257 . S
N2830 C2827 1.391 . S
N2830 C2831 1.388 . S
C2831 H2802 0.930 . S
C2831 C2826 1.391 . S
C2831 N2830 1.388 . S
C2832 C2833 1.391 . S
C2832 C2834 1.394 . S
C2832 H2848 0.931 . S
C2833 C2832 1.391 . S
C2833 C2837 1.376 . S
C2834 C2832 1.394 . S
C2834 C2835 1.369 . S
C2834 C2838 1.531 . S
C2835 C2834 1.369 . S
C2835 C2836 1.410 . S
C2835 C2843 1.503 . S
C2836 C2835 1.410 . S
C2836 C2837 1.392 . S
C2836 C2839 1.511 . S
C2837 C2833 1.376 . S
C2837 C2836 1.392 . S
C2837 H2849 0.929 . S
C2838 C2834 1.531 . S
C2838 H2850 0.960 . S
C2838 H2851 0.962 . S
C2838 H2852 0.960 . S
C2839 C2836 1.511 . S
C2839 H2853 0.961 . S
C2839 H2854 0.961 . S
C2839 H2855 0.961 . S
C2840 C2841 1.370 . S
C2840 C2842 1.363 . S
C2840 H2856 0.931 . S
C2841 C2840 1.370 . S
C2841 C2845 1.408 . S
C2842 C2840 1.363 . S
C2842 C2843 1.370 . S
C2842 C2846 1.524 . S
C2843 C2835 1.503 . S
C2843 C2842 1.370 . S
C2843 C2844 1.403 . S
C2844 C2843 1.403 . S
C2844 C2845 1.404 . S
C2844 C2847 1.539 . S
C2845 C2841 1.408 . S
C2845 C2844 1.404 . S
C2845 H2857 0.930 . S
C2846 C2842 1.524 . S
C2846 H2858 0.956 . S
C2846 H2859 0.961 . S
C2846 H2860 0.961 . S
C2847 C2844 1.539 . S
C2847 H2861 0.958 . S
C2847 H2862 0.961 . S
C2847 H2863 0.960 . S
H2848 C2832 0.931 . S
H2849 C2837 0.929 . S
H2850 C2838 0.960 . S
H2851 C2838 0.962 . S
H2852 C2838 0.960 . S
H2853 C2839 0.961 . S
H2854 C2839 0.961 . S
H2855 C2839 0.961 . S
H2856 C2840 0.931 . S
H2857 C2845 0.930 . S
H2858 C2846 0.956 . S
H2859 C2846 0.961 . S
H2860 C2846 0.961 . S
H2861 C2847 0.958 . S
H2862 C2847 0.961 . S
H2863 C2847 0.960 . S
C2864 C2865 1.391 . S
C2864 C2866 1.394 . S
C2864 H2880 0.931 . S
C2865 C2864 1.391 . S
C2865 C2869 1.376 . S
C2866 C2864 1.394 . S
C2866 C2867 1.369 . S
C2866 C2870 1.531 . S
C2867 C2866 1.369 . S
C2867 C2868 1.410 . S
C2867 C2875 1.503 . S
C2868 C2867 1.410 . S
C2868 C2869 1.392 . S
C2868 C2871 1.511 . S
C2869 C2865 1.376 . S
C2869 C2868 1.392 . S
C2869 H2881 0.929 . S
C2870 C2866 1.531 . S
C2870 H2882 0.960 . S
C2870 H2883 0.962 . S
C2870 H2884 0.960 . S
C2871 C2868 1.511 . S
C2871 H2885 0.961 . S
C2871 H2886 0.961 . S
C2871 H2887 0.961 . S
C2872 C2873 1.370 . S
C2872 C2874 1.363 . S
C2872 H2888 0.931 . S
C2873 C2872 1.370 . S
C2873 C2877 1.408 . S
C2874 C2872 1.363 . S
C2874 C2875 1.370 . S
C2874 C2878 1.524 . S
C2875 C2867 1.503 . S
C2875 C2874 1.370 . S
C2875 C2876 1.403 . S
C2876 C2875 1.403 . S
C2876 C2877 1.404 . S
C2876 C2879 1.539 . S
C2877 C2873 1.408 . S
C2877 C2876 1.404 . S
C2877 H2889 0.930 . S
C2878 C2874 1.524 . S
C2878 H2890 0.956 . S
C2878 H2891 0.961 . S
C2878 H2892 0.961 . S
C2879 C2876 1.539 . S
C2879 H2893 0.958 . S
C2879 H2894 0.961 . S
C2879 H2895 0.960 . S
H2880 C2864 0.931 . S
H2881 C2869 0.929 . S
H2882 C2870 0.960 . S
H2883 C2870 0.962 . S
H2884 C2870 0.960 . S
H2885 C2871 0.961 . S
H2886 C2871 0.961 . S
H2887 C2871 0.961 . S
H2888 C2872 0.931 . S
H2889 C2877 0.930 . S
H2890 C2878 0.956 . S
H2891 C2878 0.961 . S
H2892 C2878 0.961 . S
H2893 C2879 0.958 . S
H2894 C2879 0.961 . S
H2895 C2879 0.960 . S
C2896 C2897 1.391 . S
C2896 C2898 1.394 . S
C2896 H2912 0.931 . S
C2897 C2896 1.391 . S
C2897 C2901 1.376 . S
C2898 C2896 1.394 . S
C2898 C2899 1.369 . S
C2898 C2902 1.531 . S
C2899 C2898 1.369 . S
C2899 C2900 1.410 . S
C2899 C2907 1.503 . S
C2900 C2899 1.410 . S
C2900 C2901 1.392 . S
C2900 C2903 1.511 . S
C2901 C2897 1.376 . S
C2901 C2900 1.392 . S
C2901 H2913 0.929 . S
C2902 C2898 1.531 . S
C2902 H2914 0.960 . S
C2902 H2915 0.962 . S
C2902 H2916 0.960 . S
C2903 C2900 1.511 . S
C2903 H2917 0.961 . S
C2903 H2918 0.961 . S
C2903 H2919 0.961 . S
C2904 C2905 1.370 . S
C2904 C2906 1.363 . S
C2904 H2920 0.931 . S
C2905 C2904 1.370 . S
C2905 C2909 1.408 . S
C2906 C2904 1.363 . S
C2906 C2907 1.370 . S
C2906 C2910 1.524 . S
C2907 C2899 1.503 . S
C2907 C2906 1.370 . S
C2907 C2908 1.403 . S
C2908 C2907 1.403 . S
C2908 C2909 1.404 . S
C2908 C2911 1.539 . S
C2909 C2905 1.408 . S
C2909 C2908 1.404 . S
C2909 H2921 0.930 . S
C2910 C2906 1.524 . S
C2910 H2922 0.956 . S
C2910 H2923 0.961 . S
C2910 H2924 0.961 . S
C2911 C2908 1.539 . S
C2911 H2925 0.958 . S
C2911 H2926 0.961 . S
C2911 H2927 0.960 . S
H2912 C2896 0.931 . S
H2913 C2901 0.929 . S
H2914 C2902 0.960 . S
H2915 C2902 0.962 . S
H2916 C2902 0.960 . S
H2917 C2903 0.961 . S
H2918 C2903 0.961 . S
H2919 C2903 0.961 . S
H2920 C2904 0.931 . S
H2921 C2909 0.930 . S
H2922 C2910 0.956 . S
H2923 C2910 0.961 . S
H2924 C2910 0.961 . S
H2925 C2911 0.958 . S
H2926 C2911 0.961 . S
H2927 C2911 0.960 . S
C2928 C2929 1.391 . S
C2928 C2930 1.394 . S
C2928 H2944 0.931 . S
C2929 C2928 1.391 . S
C2929 C2933 1.376 . S
C2930 C2928 1.394 . S
C2930 C2931 1.369 . S
C2930 C2934 1.531 . S
C2931 C2930 1.369 . S
C2931 C2932 1.410 . S
C2931 C2939 1.503 . S
C2932 C2931 1.410 . S
C2932 C2933 1.392 . S
C2932 C2935 1.511 . S
C2933 C2929 1.376 . S
C2933 C2932 1.392 . S
C2933 H2945 0.929 . S
C2934 C2930 1.531 . S
C2934 H2946 0.960 . S
C2934 H2947 0.962 . S
C2934 H2948 0.960 . S
C2935 C2932 1.511 . S
C2935 H2949 0.961 . S
C2935 H2950 0.961 . S
C2935 H2951 0.961 . S
C2936 C2937 1.370 . S
C2936 C2938 1.363 . S
C2936 H2952 0.931 . S
C2937 C2936 1.370 . S
C2937 C2941 1.408 . S
C2938 C2936 1.363 . S
C2938 C2939 1.370 . S
C2938 C2942 1.524 . S
C2939 C2931 1.503 . S
C2939 C2938 1.370 . S
C2939 C2940 1.403 . S
C2940 C2939 1.403 . S
C2940 C2941 1.404 . S
C2940 C2943 1.539 . S
C2941 C2937 1.408 . S
C2941 C2940 1.404 . S
C2941 H2953 0.930 . S
C2942 C2938 1.524 . S
C2942 H2954 0.956 . S
C2942 H2955 0.961 . S
C2942 H2956 0.961 . S
C2943 C2940 1.539 . S
C2943 H2957 0.958 . S
C2943 H2958 0.961 . S
C2943 H2959 0.960 . S
H2944 C2928 0.931 . S
H2945 C2933 0.929 . S
H2946 C2934 0.960 . S
H2947 C2934 0.962 . S
H2948 C2934 0.960 . S
H2949 C2935 0.961 . S
H2950 C2935 0.961 . S
H2951 C2935 0.961 . S
H2952 C2936 0.931 . S
H2953 C2941 0.930 . S
H2954 C2942 0.956 . S
H2955 C2942 0.961 . S
H2956 C2942 0.961 . S
H2957 C2943 0.958 . S
H2958 C2943 0.961 . S
H2959 C2943 0.960 . S
C2960 C2961 1.391 . S
C2960 C2962 1.394 . S
C2960 H2976 0.931 . S
C2961 C2960 1.391 . S
C2961 C2965 1.376 . S
C2962 C2960 1.394 . S
C2962 C2963 1.369 . S
C2962 C2966 1.531 . S
C2963 C2962 1.369 . S
C2963 C2964 1.410 . S
C2963 C2971 1.503 . S
C2964 C2963 1.410 . S
C2964 C2965 1.392 . S
C2964 C2967 1.511 . S
C2965 C2961 1.376 . S
C2965 C2964 1.392 . S
C2965 H2977 0.929 . S
C2966 C2962 1.531 . S
C2966 H2978 0.960 . S
C2966 H2979 0.962 . S
C2966 H2980 0.960 . S
C2967 C2964 1.511 . S
C2967 H2981 0.961 . S
C2967 H2982 0.961 . S
C2967 H2983 0.961 . S
C2968 C2969 1.370 . S
C2968 C2970 1.363 . S
C2968 H2984 0.931 . S
C2969 C2968 1.370 . S
C2969 C2973 1.408 . S
C2970 C2968 1.363 . S
C2970 C2971 1.370 . S
C2970 C2974 1.524 . S
C2971 C2963 1.503 . S
C2971 C2970 1.370 . S
C2971 C2972 1.403 . S
C2972 C2971 1.403 . S
C2972 C2973 1.404 . S
C2972 C2975 1.539 . S
C2973 C2969 1.408 . S
C2973 C2972 1.404 . S
C2973 H2985 0.930 . S
C2974 C2970 1.524 . S
C2974 H2986 0.956 . S
C2974 H2987 0.961 . S
C2974 H2988 0.961 . S
C2975 C2972 1.539 . S
C2975 H2989 0.958 . S
C2975 H2990 0.961 . S
C2975 H2991 0.960 . S
H2976 C2960 0.931 . S
H2977 C2965 0.929 . S
H2978 C2966 0.960 . S
H2979 C2966 0.962 . S
H2980 C2966 0.960 . S
H2981 C2967 0.961 . S
H2982 C2967 0.961 . S
H2983 C2967 0.961 . S
H2984 C2968 0.931 . S
H2985 C2973 0.930 . S
H2986 C2974 0.956 . S
H2987 C2974 0.961 . S
H2988 C2974 0.961 . S
H2989 C2975 0.958 . S
H2990 C2975 0.961 . S
H2991 C2975 0.960 . S
C2992 C2993 1.391 . S
C2992 C2994 1.394 . S
C2992 H3008 0.931 . S
C2993 C2992 1.391 . S
C2993 C2997 1.376 . S
C2994 C2992 1.394 . S
C2994 C2995 1.369 . S
C2994 C2998 1.531 . S
C2995 C2994 1.369 . S
C2995 C2996 1.410 . S
C2995 C3003 1.503 . S
C2996 C2995 1.410 . S
C2996 C2997 1.392 . S
C2996 C2999 1.511 . S
C2997 C2993 1.376 . S
C2997 C2996 1.392 . S
C2997 H3009 0.929 . S
C2998 C2994 1.531 . S
C2998 H3010 0.960 . S
C2998 H3011 0.962 . S
C2998 H3012 0.960 . S
C2999 C2996 1.511 . S
C2999 H3013 0.961 . S
C2999 H3014 0.961 . S
C2999 H3015 0.961 . S
C3000 C3001 1.370 . S
C3000 C3002 1.363 . S
C3000 H3016 0.931 . S
C3001 C3000 1.370 . S
C3001 C3005 1.408 . S
C3002 C3000 1.363 . S
C3002 C3003 1.370 . S
C3002 C3006 1.524 . S
C3003 C2995 1.503 . S
C3003 C3002 1.370 . S
C3003 C3004 1.403 . S
C3004 C3003 1.403 . S
C3004 C3005 1.404 . S
C3004 C3007 1.539 . S
C3005 C3001 1.408 . S
C3005 C3004 1.404 . S
C3005 H3017 0.930 . S
C3006 C3002 1.524 . S
C3006 H3018 0.956 . S
C3006 H3019 0.961 . S
C3006 H3020 0.961 . S
C3007 C3004 1.539 . S
C3007 H3021 0.958 . S
C3007 H3022 0.961 . S
C3007 H3023 0.960 . S
H3008 C2992 0.931 . S
H3009 C2997 0.929 . S
H3010 C2998 0.960 . S
H3011 C2998 0.962 . S
H3012 C2998 0.960 . S
H3013 C2999 0.961 . S
H3014 C2999 0.961 . S
H3015 C2999 0.961 . S
H3016 C3000 0.931 . S
H3017 C3005 0.930 . S
H3018 C3006 0.956 . S
H3019 C3006 0.961 . S
H3020 C3006 0.961 . S
H3021 C3007 0.958 . S
H3022 C3007 0.961 . S
H3023 C3007 0.960 . S
C3024 C3025 1.391 . S
C3024 C3026 1.394 . S
C3024 H3040 0.931 . S
C3025 C3024 1.391 . S
C3025 C3029 1.376 . S
C3026 C3024 1.394 . S
C3026 C3027 1.369 . S
C3026 C3030 1.531 . S
C3027 C3026 1.369 . S
C3027 C3028 1.410 . S
C3027 C3035 1.503 . S
C3028 C3027 1.410 . S
C3028 C3029 1.392 . S
C3028 C3031 1.511 . S
C3029 C3025 1.376 . S
C3029 C3028 1.392 . S
C3029 H3041 0.929 . S
C3030 C3026 1.531 . S
C3030 H3042 0.960 . S
C3030 H3043 0.962 . S
C3030 H3044 0.960 . S
C3031 C3028 1.511 . S
C3031 H3045 0.961 . S
C3031 H3046 0.961 . S
C3031 H3047 0.961 . S
C3032 C3033 1.370 . S
C3032 C3034 1.363 . S
C3032 H3048 0.931 . S
C3033 C3032 1.370 . S
C3033 C3037 1.408 . S
C3034 C3032 1.363 . S
C3034 C3035 1.370 . S
C3034 C3038 1.524 . S
C3035 C3027 1.503 . S
C3035 C3034 1.370 . S
C3035 C3036 1.403 . S
C3036 C3035 1.403 . S
C3036 C3037 1.404 . S
C3036 C3039 1.539 . S
C3037 C3033 1.408 . S
C3037 C3036 1.404 . S
C3037 H3049 0.930 . S
C3038 C3034 1.524 . S
C3038 H3050 0.956 . S
C3038 H3051 0.961 . S
C3038 H3052 0.961 . S
C3039 C3036 1.539 . S
C3039 H3053 0.958 . S
C3039 H3054 0.961 . S
C3039 H3055 0.960 . S
H3040 C3024 0.931 . S
H3041 C3029 0.929 . S
H3042 C3030 0.960 . S
H3043 C3030 0.962 . S
H3044 C3030 0.960 . S
H3045 C3031 0.961 . S
H3046 C3031 0.961 . S
H3047 C3031 0.961 . S
H3048 C3032 0.931 . S
H3049 C3037 0.930 . S
H3050 C3038 0.956 . S
H3051 C3038 0.961 . S
H3052 C3038 0.961 . S
H3053 C3039 0.958 . S
H3054 C3039 0.961 . S
H3055 C3039 0.960 . S
C3056 C3057 1.391 . S
C3056 C3058 1.394 . S
C3056 H3072 0.931 . S
C3057 C3056 1.391 . S
C3057 C3061 1.376 . S
C3058 C3056 1.394 . S
C3058 C3059 1.369 . S
C3058 C3062 1.531 . S
C3059 C3058 1.369 . S
C3059 C3060 1.410 . S
C3059 C3067 1.503 . S
C3060 C3059 1.410 . S
C3060 C3061 1.392 . S
C3060 C3063 1.511 . S
C3061 C3057 1.376 . S
C3061 C3060 1.392 . S
C3061 H3073 0.929 . S
C3062 C3058 1.531 . S
C3062 H3074 0.960 . S
C3062 H3075 0.962 . S
C3062 H3076 0.960 . S
C3063 C3060 1.511 . S
C3063 H3077 0.961 . S
C3063 H3078 0.961 . S
C3063 H3079 0.961 . S
C3064 C3065 1.370 . S
C3064 C3066 1.363 . S
C3064 H3080 0.931 . S
C3065 C3064 1.370 . S
C3065 C3069 1.408 . S
C3066 C3064 1.363 . S
C3066 C3067 1.370 . S
C3066 C3070 1.524 . S
C3067 C3059 1.503 . S
C3067 C3066 1.370 . S
C3067 C3068 1.403 . S
C3068 C3067 1.403 . S
C3068 C3069 1.404 . S
C3068 C3071 1.539 . S
C3069 C3065 1.408 . S
C3069 C3068 1.404 . S
C3069 H3081 0.930 . S
C3070 C3066 1.524 . S
C3070 H3082 0.956 . S
C3070 H3083 0.961 . S
C3070 H3084 0.961 . S
C3071 C3068 1.539 . S
C3071 H3085 0.958 . S
C3071 H3086 0.961 . S
C3071 H3087 0.960 . S
H3072 C3056 0.931 . S
H3073 C3061 0.929 . S
H3074 C3062 0.960 . S
H3075 C3062 0.962 . S
H3076 C3062 0.960 . S
H3077 C3063 0.961 . S
H3078 C3063 0.961 . S
H3079 C3063 0.961 . S
H3080 C3064 0.931 . S
H3081 C3069 0.930 . S
H3082 C3070 0.956 . S
H3083 C3070 0.961 . S
H3084 C3070 0.961 . S
H3085 C3071 0.958 . S
H3086 C3071 0.961 . S
H3087 C3071 0.960 . S
C3088 C3089 1.391 . S
C3088 C3090 1.394 . S
C3088 H3104 0.931 . S
C3089 C3088 1.391 . S
C3089 C3093 1.376 . S
C3090 C3088 1.394 . S
C3090 C3091 1.369 . S
C3090 C3094 1.531 . S
C3091 C3090 1.369 . S
C3091 C3092 1.410 . S
C3091 C3099 1.503 . S
C3092 C3091 1.410 . S
C3092 C3093 1.392 . S
C3092 C3095 1.511 . S
C3093 C3089 1.376 . S
C3093 C3092 1.392 . S
C3093 H3105 0.929 . S
C3094 C3090 1.531 . S
C3094 H3106 0.960 . S
C3094 H3107 0.962 . S
C3094 H3108 0.960 . S
C3095 C3092 1.511 . S
C3095 H3109 0.961 . S
C3095 H3110 0.961 . S
C3095 H3111 0.961 . S
C3096 C3097 1.370 . S
C3096 C3098 1.363 . S
C3096 H3112 0.931 . S
C3097 C3096 1.370 . S
C3097 C3101 1.408 . S
C3098 C3096 1.363 . S
C3098 C3099 1.370 . S
C3098 C3102 1.524 . S
C3099 C3091 1.503 . S
C3099 C3098 1.370 . S
C3099 C3100 1.403 . S
C3100 C3099 1.403 . S
C3100 C3101 1.404 . S
C3100 C3103 1.539 . S
C3101 C3097 1.408 . S
C3101 C3100 1.404 . S
C3101 H3113 0.930 . S
C3102 C3098 1.524 . S
C3102 H3114 0.956 . S
C3102 H3115 0.961 . S
C3102 H3116 0.961 . S
C3103 C3100 1.539 . S
C3103 H3117 0.958 . S
C3103 H3118 0.961 . S
C3103 H3119 0.960 . S
H3104 C3088 0.931 . S
H3105 C3093 0.929 . S
H3106 C3094 0.960 . S
H3107 C3094 0.962 . S
H3108 C3094 0.960 . S
H3109 C3095 0.961 . S
H3110 C3095 0.961 . S
H3111 C3095 0.961 . S
H3112 C3096 0.931 . S
H3113 C3101 0.930 . S
H3114 C3102 0.956 . S
H3115 C3102 0.961 . S
H3116 C3102 0.961 . S
H3117 C3103 0.958 . S
H3118 C3103 0.961 . S
H3119 C3103 0.960 . S
C3120 C3121 1.391 . S
C3120 C3122 1.394 . S
C3120 H3136 0.931 . S
C3121 C3120 1.391 . S
C3121 C3125 1.376 . S
C3122 C3120 1.394 . S
C3122 C3123 1.369 . S
C3122 C3126 1.531 . S
C3123 C3122 1.369 . S
C3123 C3124 1.410 . S
C3123 C3131 1.503 . S
C3124 C3123 1.410 . S
C3124 C3125 1.392 . S
C3124 C3127 1.511 . S
C3125 C3121 1.376 . S
C3125 C3124 1.392 . S
C3125 H3137 0.929 . S
C3126 C3122 1.531 . S
C3126 H3138 0.960 . S
C3126 H3139 0.962 . S
C3126 H3140 0.960 . S
C3127 C3124 1.511 . S
C3127 H3141 0.961 . S
C3127 H3142 0.961 . S
C3127 H3143 0.961 . S
C3128 C3129 1.370 . S
C3128 C3130 1.363 . S
C3128 H3144 0.931 . S
C3129 C3128 1.370 . S
C3129 C3133 1.408 . S
C3130 C3128 1.363 . S
C3130 C3131 1.370 . S
C3130 C3134 1.524 . S
C3131 C3123 1.503 . S
C3131 C3130 1.370 . S
C3131 C3132 1.403 . S
C3132 C3131 1.403 . S
C3132 C3133 1.404 . S
C3132 C3135 1.539 . S
C3133 C3129 1.408 . S
C3133 C3132 1.404 . S
C3133 H3145 0.930 . S
C3134 C3130 1.524 . S
C3134 H3146 0.956 . S
C3134 H3147 0.961 . S
C3134 H3148 0.961 . S
C3135 C3132 1.539 . S
C3135 H3149 0.958 . S
C3135 H3150 0.961 . S
C3135 H3151 0.960 . S
H3136 C3120 0.931 . S
H3137 C3125 0.929 . S
H3138 C3126 0.960 . S
H3139 C3126 0.962 . S
H3140 C3126 0.960 . S
H3141 C3127 0.961 . S
H3142 C3127 0.961 . S
H3143 C3127 0.961 . S
H3144 C3128 0.931 . S
H3145 C3133 0.930 . S
H3146 C3134 0.956 . S
H3147 C3134 0.961 . S
H3148 C3134 0.961 . S
H3149 C3135 0.958 . S
H3150 C3135 0.961 . S
H3151 C3135 0.960 . S
C3152 C3153 1.391 . S
C3152 C3154 1.394 . S
C3152 H3168 0.931 . S
C3153 C3152 1.391 . S
C3153 C3157 1.376 . S
C3154 C3152 1.394 . S
C3154 C3155 1.369 . S
C3154 C3158 1.531 . S
C3155 C3154 1.369 . S
C3155 C3156 1.410 . S
C3155 C3163 1.503 . S
C3156 C3155 1.410 . S
C3156 C3157 1.392 . S
C3156 C3159 1.511 . S
C3157 C3153 1.376 . S
C3157 C3156 1.392 . S
C3157 H3169 0.929 . S
C3158 C3154 1.531 . S
C3158 H3170 0.960 . S
C3158 H3171 0.962 . S
C3158 H3172 0.960 . S
C3159 C3156 1.511 . S
C3159 H3173 0.961 . S
C3159 H3174 0.961 . S
C3159 H3175 0.961 . S
C3160 C3161 1.370 . S
C3160 C3162 1.363 . S
C3160 H3176 0.931 . S
C3161 C3160 1.370 . S
C3161 C3165 1.408 . S
C3162 C3160 1.363 . S
C3162 C3163 1.370 . S
C3162 C3166 1.524 . S
C3163 C3155 1.503 . S
C3163 C3162 1.370 . S
C3163 C3164 1.403 . S
C3164 C3163 1.403 . S
C3164 C3165 1.404 . S
C3164 C3167 1.539 . S
C3165 C3161 1.408 . S
C3165 C3164 1.404 . S
C3165 H3177 0.930 . S
C3166 C3162 1.524 . S
C3166 H3178 0.956 . S
C3166 H3179 0.961 . S
C3166 H3180 0.961 . S
C3167 C3164 1.539 . S
C3167 H3181 0.958 . S
C3167 H3182 0.961 . S
C3167 H3183 0.960 . S
H3168 C3152 0.931 . S
H3169 C3157 0.929 . S
H3170 C3158 0.960 . S
H3171 C3158 0.962 . S
H3172 C3158 0.960 . S
H3173 C3159 0.961 . S
H3174 C3159 0.961 . S
H3175 C3159 0.961 . S
H3176 C3160 0.931 . S
H3177 C3165 0.930 . S
H3178 C3166 0.956 . S
H3179 C3166 0.961 . S
H3180 C3166 0.961 . S
H3181 C3167 0.958 . S
H3182 C3167 0.961 . S
H3183 C3167 0.960 . S
C3184 C3185 1.391 . S
C3184 C3186 1.394 . S
C3184 H3200 0.931 . S
C3185 C3184 1.391 . S
C3185 C3189 1.376 . S
C3186 C3184 1.394 . S
C3186 C3187 1.369 . S
C3186 C3190 1.531 . S
C3187 C3186 1.369 . S
C3187 C3188 1.410 . S
C3187 C3195 1.503 . S
C3188 C3187 1.410 . S
C3188 C3189 1.392 . S
C3188 C3191 1.511 . S
C3189 C3185 1.376 . S
C3189 C3188 1.392 . S
C3189 H3201 0.929 . S
C3190 C3186 1.531 . S
C3190 H3202 0.960 . S
C3190 H3203 0.962 . S
C3190 H3204 0.960 . S
C3191 C3188 1.511 . S
C3191 H3205 0.961 . S
C3191 H3206 0.961 . S
C3191 H3207 0.961 . S
C3192 C3193 1.370 . S
C3192 C3194 1.363 . S
C3192 H3208 0.931 . S
C3193 C3192 1.370 . S
C3193 C3197 1.408 . S
C3194 C3192 1.363 . S
C3194 C3195 1.370 . S
C3194 C3198 1.524 . S
C3195 C3187 1.503 . S
C3195 C3194 1.370 . S
C3195 C3196 1.403 . S
C3196 C3195 1.403 . S
C3196 C3197 1.404 . S
C3196 C3199 1.539 . S
C3197 C3193 1.408 . S
C3197 C3196 1.404 . S
C3197 H3209 0.930 . S
C3198 C3194 1.524 . S
C3198 H3210 0.956 . S
C3198 H3211 0.961 . S
C3198 H3212 0.961 . S
C3199 C3196 1.539 . S
C3199 H3213 0.958 . S
C3199 H3214 0.961 . S
C3199 H3215 0.960 . S
H3200 C3184 0.931 . S
H3201 C3189 0.929 . S
H3202 C3190 0.960 . S
H3203 C3190 0.962 . S
H3204 C3190 0.960 . S
H3205 C3191 0.961 . S
H3206 C3191 0.961 . S
H3207 C3191 0.961 . S
H3208 C3192 0.931 . S
H3209 C3197 0.930 . S
H3210 C3198 0.956 . S
H3211 C3198 0.961 . S
H3212 C3198 0.961 . S
H3213 C3199 0.958 . S
H3214 C3199 0.961 . S
H3215 C3199 0.960 . S
C3216 C3217 1.391 . S
C3216 C3218 1.394 . S
C3216 H3232 0.931 . S
C3217 C3216 1.391 . S
C3217 C3221 1.376 . S
C3218 C3216 1.394 . S
C3218 C3219 1.369 . S
C3218 C3222 1.531 . S
C3219 C3218 1.369 . S
C3219 C3220 1.410 . S
C3219 C3227 1.503 . S
C3220 C3219 1.410 . S
C3220 C3221 1.392 . S
C3220 C3223 1.511 . S
C3221 C3217 1.376 . S
C3221 C3220 1.392 . S
C3221 H3233 0.929 . S
C3222 C3218 1.531 . S
C3222 H3234 0.960 . S
C3222 H3235 0.962 . S
C3222 H3236 0.960 . S
C3223 C3220 1.511 . S
C3223 H3237 0.961 . S
C3223 H3238 0.961 . S
C3223 H3239 0.961 . S
C3224 C3225 1.370 . S
C3224 C3226 1.363 . S
C3224 H3240 0.931 . S
C3225 C3224 1.370 . S
C3225 C3229 1.408 . S
C3226 C3224 1.363 . S
C3226 C3227 1.370 . S
C3226 C3230 1.524 . S
C3227 C3219 1.503 . S
C3227 C3226 1.370 . S
C3227 C3228 1.403 . S
C3228 C3227 1.403 . S
C3228 C3229 1.404 . S
C3228 C3231 1.539 . S
C3229 C3225 1.408 . S
C3229 C3228 1.404 . S
C3229 H3241 0.930 . S
C3230 C3226 1.524 . S
C3230 H3242 0.956 . S
C3230 H3243 0.961 . S
C3230 H3244 0.961 . S
C3231 C3228 1.539 . S
C3231 H3245 0.958 . S
C3231 H3246 0.961 . S
C3231 H3247 0.960 . S
H3232 C3216 0.931 . S
H3233 C3221 0.929 . S
H3234 C3222 0.960 . S
H3235 C3222 0.962 . S
H3236 C3222 0.960 . S
H3237 C3223 0.961 . S
H3238 C3223 0.961 . S
H3239 C3223 0.961 . S
H3240 C3224 0.931 . S
H3241 C3229 0.930 . S
H3242 C3230 0.956 . S
H3243 C3230 0.961 . S
H3244 C3230 0.961 . S
H3245 C3231 0.958 . S
H3246 C3231 0.961 . S
H3247 C3231 0.960 . S
C3248 C3249 1.391 . S
C3248 C3250 1.394 . S
C3248 H3264 0.931 . S
C3249 C3248 1.391 . S
C3249 C3253 1.376 . S
C3250 C3248 1.394 . S
C3250 C3251 1.369 . S
C3250 C3254 1.531 . S
C3251 C3250 1.369 . S
C3251 C3252 1.410 . S
C3251 C3259 1.503 . S
C3252 C3251 1.410 . S
C3252 C3253 1.392 . S
C3252 C3255 1.511 . S
C3253 C3249 1.376 . S
C3253 C3252 1.392 . S
C3253 H3265 0.929 . S
C3254 C3250 1.531 . S
C3254 H3266 0.960 . S
C3254 H3267 0.962 . S
C3254 H3268 0.960 . S
C3255 C3252 1.511 . S
C3255 H3269 0.961 . S
C3255 H3270 0.961 . S
C3255 H3271 0.961 . S
C3256 C3257 1.370 . S
C3256 C3258 1.363 . S
C3256 H3272 0.931 . S
C3257 C3256 1.370 . S
C3257 C3261 1.408 . S
C3258 C3256 1.363 . S
C3258 C3259 1.370 . S
C3258 C3262 1.524 . S
C3259 C3251 1.503 . S
C3259 C3258 1.370 . S
C3259 C3260 1.403 . S
C3260 C3259 1.403 . S
C3260 C3261 1.404 . S
C3260 C3263 1.539 . S
C3261 C3257 1.408 . S
C3261 C3260 1.404 . S
C3261 H3273 0.930 . S
C3262 C3258 1.524 . S
C3262 H3274 0.956 . S
C3262 H3275 0.961 . S
C3262 H3276 0.961 . S
C3263 C3260 1.539 . S
C3263 H3277 0.958 . S
C3263 H3278 0.961 . S
C3263 H3279 0.960 . S
H3264 C3248 0.931 . S
H3265 C3253 0.929 . S
H3266 C3254 0.960 . S
H3267 C3254 0.962 . S
H3268 C3254 0.960 . S
H3269 C3255 0.961 . S
H3270 C3255 0.961 . S
H3271 C3255 0.961 . S
H3272 C3256 0.931 . S
H3273 C3261 0.930 . S
H3274 C3262 0.956 . S
H3275 C3262 0.961 . S
H3276 C3262 0.961 . S
H3277 C3263 0.958 . S
H3278 C3263 0.961 . S
H3279 C3263 0.960 . S
C3280 C3281 1.391 . S
C3280 C3282 1.394 . S
C3280 H3296 0.931 . S
C3281 C3280 1.391 . S
C3281 C3285 1.376 . S
C3282 C3280 1.394 . S
C3282 C3283 1.369 . S
C3282 C3286 1.531 . S
C3283 C3282 1.369 . S
C3283 C3284 1.410 . S
C3283 C3291 1.503 . S
C3284 C3283 1.410 . S
C3284 C3285 1.392 . S
C3284 C3287 1.511 . S
C3285 C3281 1.376 . S
C3285 C3284 1.392 . S
C3285 H3297 0.929 . S
C3286 C3282 1.531 . S
C3286 H3298 0.960 . S
C3286 H3299 0.962 . S
C3286 H3300 0.960 . S
C3287 C3284 1.511 . S
C3287 H3301 0.961 . S
C3287 H3302 0.961 . S
C3287 H3303 0.961 . S
C3288 C3289 1.370 . S
C3288 C3290 1.363 . S
C3288 H3304 0.931 . S
C3289 C3288 1.370 . S
C3289 C3293 1.408 . S
C3290 C3288 1.363 . S
C3290 C3291 1.370 . S
C3290 C3294 1.524 . S
C3291 C3283 1.503 . S
C3291 C3290 1.370 . S
C3291 C3292 1.403 . S
C3292 C3291 1.403 . S
C3292 C3293 1.404 . S
C3292 C3295 1.539 . S
C3293 C3289 1.408 . S
C3293 C3292 1.404 . S
C3293 H3305 0.930 . S
C3294 C3290 1.524 . S
C3294 H3306 0.956 . S
C3294 H3307 0.961 . S
C3294 H3308 0.961 . S
C3295 C3292 1.539 . S
C3295 H3309 0.958 . S
C3295 H3310 0.961 . S
C3295 H3311 0.960 . S
H3296 C3280 0.931 . S
H3297 C3285 0.929 . S
H3298 C3286 0.960 . S
H3299 C3286 0.962 . S
H3300 C3286 0.960 . S
H3301 C3287 0.961 . S
H3302 C3287 0.961 . S
H3303 C3287 0.961 . S
H3304 C3288 0.931 . S
H3305 C3293 0.930 . S
H3306 C3294 0.956 . S
H3307 C3294 0.961 . S
H3308 C3294 0.961 . S
H3309 C3295 0.958 . S
H3310 C3295 0.961 . S
H3311 C3295 0.960 . S
C3312 C3313 1.391 . S
C3312 C3314 1.394 . S
C3312 H3328 0.931 . S
C3313 C3312 1.391 . S
C3313 C3317 1.376 . S
C3314 C3312 1.394 . S
C3314 C3315 1.369 . S
C3314 C3318 1.531 . S
C3315 C3314 1.369 . S
C3315 C3316 1.410 . S
C3315 C3323 1.503 . S
C3316 C3315 1.410 . S
C3316 C3317 1.392 . S
C3316 C3319 1.511 . S
C3317 C3313 1.376 . S
C3317 C3316 1.392 . S
C3317 H3329 0.929 . S
C3318 C3314 1.531 . S
C3318 H3330 0.960 . S
C3318 H3331 0.962 . S
C3318 H3332 0.960 . S
C3319 C3316 1.511 . S
C3319 H3333 0.961 . S
C3319 H3334 0.961 . S
C3319 H3335 0.961 . S
C3320 C3321 1.370 . S
C3320 C3322 1.363 . S
C3320 H3336 0.931 . S
C3321 C3320 1.370 . S
C3321 C3325 1.408 . S
C3322 C3320 1.363 . S
C3322 C3323 1.370 . S
C3322 C3326 1.524 . S
C3323 C3315 1.503 . S
C3323 C3322 1.370 . S
C3323 C3324 1.403 . S
C3324 C3323 1.403 . S
C3324 C3325 1.404 . S
C3324 C3327 1.539 . S
C3325 C3321 1.408 . S
C3325 C3324 1.404 . S
C3325 H3337 0.930 . S
C3326 C3322 1.524 . S
C3326 H3338 0.956 . S
C3326 H3339 0.961 . S
C3326 H3340 0.961 . S
C3327 C3324 1.539 . S
C3327 H3341 0.958 . S
C3327 H3342 0.961 . S
C3327 H3343 0.960 . S
H3328 C3312 0.931 . S
H3329 C3317 0.929 . S
H3330 C3318 0.960 . S
H3331 C3318 0.962 . S
H3332 C3318 0.960 . S
H3333 C3319 0.961 . S
H3334 C3319 0.961 . S
H3335 C3319 0.961 . S
H3336 C3320 0.931 . S
H3337 C3325 0.930 . S
H3338 C3326 0.956 . S
H3339 C3326 0.961 . S
H3340 C3326 0.961 . S
H3341 C3327 0.958 . S
H3342 C3327 0.961 . S
H3343 C3327 0.960 . S
C3344 C3345 1.391 . S
C3344 C3346 1.394 . S
C3344 H3360 0.931 . S
C3345 C3344 1.391 . S
C3345 C3349 1.376 . S
C3346 C3344 1.394 . S
C3346 C3347 1.369 . S
C3346 C3350 1.531 . S
C3347 C3346 1.369 . S
C3347 C3348 1.410 . S
C3347 C3355 1.503 . S
C3348 C3347 1.410 . S
C3348 C3349 1.392 . S
C3348 C3351 1.511 . S
C3349 C3345 1.376 . S
C3349 C3348 1.392 . S
C3349 H3361 0.929 . S
C3350 C3346 1.531 . S
C3350 H3362 0.960 . S
C3350 H3363 0.962 . S
C3350 H3364 0.960 . S
C3351 C3348 1.511 . S
C3351 H3365 0.961 . S
C3351 H3366 0.961 . S
C3351 H3367 0.961 . S
C3352 C3353 1.370 . S
C3352 C3354 1.363 . S
C3352 H3368 0.931 . S
C3353 C3352 1.370 . S
C3353 C3357 1.408 . S
C3354 C3352 1.363 . S
C3354 C3355 1.370 . S
C3354 C3358 1.524 . S
C3355 C3347 1.503 . S
C3355 C3354 1.370 . S
C3355 C3356 1.403 . S
C3356 C3355 1.403 . S
C3356 C3357 1.404 . S
C3356 C3359 1.539 . S
C3357 C3353 1.408 . S
C3357 C3356 1.404 . S
C3357 H3369 0.930 . S
C3358 C3354 1.524 . S
C3358 H3370 0.956 . S
C3358 H3371 0.961 . S
C3358 H3372 0.961 . S
C3359 C3356 1.539 . S
C3359 H3373 0.958 . S
C3359 H3374 0.961 . S
C3359 H3375 0.960 . S
H3360 C3344 0.931 . S
H3361 C3349 0.929 . S
H3362 C3350 0.960 . S
H3363 C3350 0.962 . S
H3364 C3350 0.960 . S
H3365 C3351 0.961 . S
H3366 C3351 0.961 . S
H3367 C3351 0.961 . S
H3368 C3352 0.931 . S
H3369 C3357 0.930 . S
H3370 C3358 0.956 . S
H3371 C3358 0.961 . S
H3372 C3358 0.961 . S
H3373 C3359 0.958 . S
H3374 C3359 0.961 . S
H3375 C3359 0.960 . S
C3376 C3377 1.391 . S
C3376 C3378 1.394 . S
C3376 H3392 0.931 . S
C3377 C3376 1.391 . S
C3377 C3381 1.376 . S
C3378 C3376 1.394 . S
C3378 C3379 1.369 . S
C3378 C3382 1.531 . S
C3379 C3378 1.369 . S
C3379 C3380 1.410 . S
C3379 C3387 1.503 . S
C3380 C3379 1.410 . S
C3380 C3381 1.392 . S
C3380 C3383 1.511 . S
C3381 C3377 1.376 . S
C3381 C3380 1.392 . S
C3381 H3393 0.929 . S
C3382 C3378 1.531 . S
C3382 H3394 0.960 . S
C3382 H3395 0.962 . S
C3382 H3396 0.960 . S
C3383 C3380 1.511 . S
C3383 H3397 0.961 . S
C3383 H3398 0.961 . S
C3383 H3399 0.961 . S
C3384 C3385 1.370 . S
C3384 C3386 1.363 . S
C3384 H3400 0.931 . S
C3385 C3384 1.370 . S
C3385 C3389 1.408 . S
C3386 C3384 1.363 . S
C3386 C3387 1.370 . S
C3386 C3390 1.524 . S
C3387 C3379 1.503 . S
C3387 C3386 1.370 . S
C3387 C3388 1.403 . S
C3388 C3387 1.403 . S
C3388 C3389 1.404 . S
C3388 C3391 1.539 . S
C3389 C3385 1.408 . S
C3389 C3388 1.404 . S
C3389 H3401 0.930 . S
C3390 C3386 1.524 . S
C3390 H3402 0.956 . S
C3390 H3403 0.961 . S
C3390 H3404 0.961 . S
C3391 C3388 1.539 . S
C3391 H3405 0.958 . S
C3391 H3406 0.961 . S
C3391 H3407 0.960 . S
H3392 C3376 0.931 . S
H3393 C3381 0.929 . S
H3394 C3382 0.960 . S
H3395 C3382 0.962 . S
H3396 C3382 0.960 . S
H3397 C3383 0.961 . S
H3398 C3383 0.961 . S
H3399 C3383 0.961 . S
H3400 C3384 0.931 . S
H3401 C3389 0.930 . S
H3402 C3390 0.956 . S
H3403 C3390 0.961 . S
H3404 C3390 0.961 . S
H3405 C3391 0.958 . S
H3406 C3391 0.961 . S
H3407 C3391 0.960 . S
C3408 C3409 1.391 . S
C3408 C3410 1.394 . S
C3408 H3424 0.931 . S
C3409 C3408 1.391 . S
C3409 C3413 1.376 . S
C3410 C3408 1.394 . S
C3410 C3411 1.369 . S
C3410 C3414 1.531 . S
C3411 C3410 1.369 . S
C3411 C3412 1.410 . S
C3411 C3419 1.503 . S
C3412 C3411 1.410 . S
C3412 C3413 1.392 . S
C3412 C3415 1.511 . S
C3413 C3409 1.376 . S
C3413 C3412 1.392 . S
C3413 H3425 0.929 . S
C3414 C3410 1.531 . S
C3414 H3426 0.960 . S
C3414 H3427 0.962 . S
C3414 H3428 0.960 . S
C3415 C3412 1.511 . S
C3415 H3429 0.961 . S
C3415 H3430 0.961 . S
C3415 H3431 0.961 . S
C3416 C3417 1.370 . S
C3416 C3418 1.363 . S
C3416 H3432 0.931 . S
C3417 C3416 1.370 . S
C3417 C3421 1.408 . S
C3418 C3416 1.363 . S
C3418 C3419 1.370 . S
C3418 C3422 1.524 . S
C3419 C3411 1.503 . S
C3419 C3418 1.370 . S
C3419 C3420 1.403 . S
C3420 C3419 1.403 . S
C3420 C3421 1.404 . S
C3420 C3423 1.539 . S
C3421 C3417 1.408 . S
C3421 C3420 1.404 . S
C3421 H3433 0.930 . S
C3422 C3418 1.524 . S
C3422 H3434 0.956 . S
C3422 H3435 0.961 . S
C3422 H3436 0.961 . S
C3423 C3420 1.539 . S
C3423 H3437 0.958 . S
C3423 H3438 0.961 . S
C3423 H3439 0.960 . S
H3424 C3408 0.931 . S
H3425 C3413 0.929 . S
H3426 C3414 0.960 . S
H3427 C3414 0.962 . S
H3428 C3414 0.960 . S
H3429 C3415 0.961 . S
H3430 C3415 0.961 . S
H3431 C3415 0.961 . S
H3432 C3416 0.931 . S
H3433 C3421 0.930 . S
H3434 C3422 0.956 . S
H3435 C3422 0.961 . S
H3436 C3422 0.961 . S
H3437 C3423 0.958 . S
H3438 C3423 0.961 . S
H3439 C3423 0.960 . S
C3440 C3441 1.391 . S
C3440 C3442 1.394 . S
C3440 H3456 0.931 . S
C3441 C3440 1.391 . S
C3441 C3445 1.376 . S
C3442 C3440 1.394 . S
C3442 C3443 1.369 . S
C3442 C3446 1.531 . S
C3443 C3442 1.369 . S
C3443 C3444 1.410 . S
C3443 C3451 1.503 . S
C3444 C3443 1.410 . S
C3444 C3445 1.392 . S
C3444 C3447 1.511 . S
C3445 C3441 1.376 . S
C3445 C3444 1.392 . S
C3445 H3457 0.929 . S
C3446 C3442 1.531 . S
C3446 H3458 0.960 . S
C3446 H3459 0.962 . S
C3446 H3460 0.960 . S
C3447 C3444 1.511 . S
C3447 H3461 0.961 . S
C3447 H3462 0.961 . S
C3447 H3463 0.961 . S
C3448 C3449 1.370 . S
C3448 C3450 1.363 . S
C3448 H3464 0.931 . S
C3449 C3448 1.370 . S
C3449 C3453 1.408 . S
C3450 C3448 1.363 . S
C3450 C3451 1.370 . S
C3450 C3454 1.524 . S
C3451 C3443 1.503 . S
C3451 C3450 1.370 . S
C3451 C3452 1.403 . S
C3452 C3451 1.403 . S
C3452 C3453 1.404 . S
C3452 C3455 1.539 . S
C3453 C3449 1.408 . S
C3453 C3452 1.404 . S
C3453 H3465 0.930 . S
C3454 C3450 1.524 . S
C3454 H3466 0.956 . S
C3454 H3467 0.961 . S
C3454 H3468 0.961 . S
C3455 C3452 1.539 . S
C3455 H3469 0.958 . S
C3455 H3470 0.961 . S
C3455 H3471 0.960 . S
H3456 C3440 0.931 . S
H3457 C3445 0.929 . S
H3458 C3446 0.960 . S
H3459 C3446 0.962 . S
H3460 C3446 0.960 . S
H3461 C3447 0.961 . S
H3462 C3447 0.961 . S
H3463 C3447 0.961 . S
H3464 C3448 0.931 . S
H3465 C3453 0.930 . S
H3466 C3454 0.956 . S
H3467 C3454 0.961 . S
H3468 C3454 0.961 . S
H3469 C3455 0.958 . S
H3470 C3455 0.961 . S
H3471 C3455 0.960 . S
C3472 C3473 1.391 . S
C3472 C3474 1.394 . S
C3472 H3488 0.931 . S
C3473 C3472 1.391 . S
C3473 C3477 1.376 . S
C3474 C3472 1.394 . S
C3474 C3475 1.369 . S
C3474 C3478 1.531 . S
C3475 C3474 1.369 . S
C3475 C3476 1.410 . S
C3475 C3483 1.503 . S
C3476 C3475 1.410 . S
C3476 C3477 1.392 . S
C3476 C3479 1.511 . S
C3477 C3473 1.376 . S
C3477 C3476 1.392 . S
C3477 H3489 0.929 . S
C3478 C3474 1.531 . S
C3478 H3490 0.960 . S
C3478 H3491 0.962 . S
C3478 H3492 0.960 . S
C3479 C3476 1.511 . S
C3479 H3493 0.961 . S
C3479 H3494 0.961 . S
C3479 H3495 0.961 . S
C3480 C3481 1.370 . S
C3480 C3482 1.363 . S
C3480 H3496 0.931 . S
C3481 C3480 1.370 . S
C3481 C3485 1.408 . S
C3482 C3480 1.363 . S
C3482 C3483 1.370 . S
C3482 C3486 1.524 . S
C3483 C3475 1.503 . S
C3483 C3482 1.370 . S
C3483 C3484 1.403 . S
C3484 C3483 1.403 . S
C3484 C3485 1.404 . S
C3484 C3487 1.539 . S
C3485 C3481 1.408 . S
C3485 C3484 1.404 . S
C3485 H3497 0.930 . S
C3486 C3482 1.524 . S
C3486 H3498 0.956 . S
C3486 H3499 0.961 . S
C3486 H3500 0.961 . S
C3487 C3484 1.539 . S
C3487 H3501 0.958 . S
C3487 H3502 0.961 . S
C3487 H3503 0.960 . S
H3488 C3472 0.931 . S
H3489 C3477 0.929 . S
H3490 C3478 0.960 . S
H3491 C3478 0.962 . S
H3492 C3478 0.960 . S
H3493 C3479 0.961 . S
H3494 C3479 0.961 . S
H3495 C3479 0.961 . S
H3496 C3480 0.931 . S
H3497 C3485 0.930 . S
H3498 C3486 0.956 . S
H3499 C3486 0.961 . S
H3500 C3486 0.961 . S
H3501 C3487 0.958 . S
H3502 C3487 0.961 . S
H3503 C3487 0.960 . S
C3504 C3505 1.391 . S
C3504 C3506 1.394 . S
C3504 H3520 0.931 . S
C3505 C3504 1.391 . S
C3505 C3509 1.376 . S
C3506 C3504 1.394 . S
C3506 C3507 1.369 . S
C3506 C3510 1.531 . S
C3507 C3506 1.369 . S
C3507 C3508 1.410 . S
C3507 C3515 1.503 . S
C3508 C3507 1.410 . S
C3508 C3509 1.392 . S
C3508 C3511 1.511 . S
C3509 C3505 1.376 . S
C3509 C3508 1.392 . S
C3509 H3521 0.929 . S
C3510 C3506 1.531 . S
C3510 H3522 0.960 . S
C3510 H3523 0.962 . S
C3510 H3524 0.960 . S
C3511 C3508 1.511 . S
C3511 H3525 0.961 . S
C3511 H3526 0.961 . S
C3511 H3527 0.961 . S
C3512 C3513 1.370 . S
C3512 C3514 1.363 . S
C3512 H3528 0.931 . S
C3513 C3512 1.370 . S
C3513 C3517 1.408 . S
C3514 C3512 1.363 . S
C3514 C3515 1.370 . S
C3514 C3518 1.524 . S
C3515 C3507 1.503 . S
C3515 C3514 1.370 . S
C3515 C3516 1.403 . S
C3516 C3515 1.403 . S
C3516 C3517 1.404 . S
C3516 C3519 1.539 . S
C3517 C3513 1.408 . S
C3517 C3516 1.404 . S
C3517 H3529 0.930 . S
C3518 C3514 1.524 . S
C3518 H3530 0.956 . S
C3518 H3531 0.961 . S
C3518 H3532 0.961 . S
C3519 C3516 1.539 . S
C3519 H3533 0.958 . S
C3519 H3534 0.961 . S
C3519 H3535 0.960 . S
H3520 C3504 0.931 . S
H3521 C3509 0.929 . S
H3522 C3510 0.960 . S
H3523 C3510 0.962 . S
H3524 C3510 0.960 . S
H3525 C3511 0.961 . S
H3526 C3511 0.961 . S
H3527 C3511 0.961 . S
H3528 C3512 0.931 . S
H3529 C3517 0.930 . S
H3530 C3518 0.956 . S
H3531 C3518 0.961 . S
H3532 C3518 0.961 . S
H3533 C3519 0.958 . S
H3534 C3519 0.961 . S
H3535 C3519 0.960 . S
C3536 C3537 1.391 . S
C3536 C3538 1.394 . S
C3536 H3552 0.931 . S
C3537 C3536 1.391 . S
C3537 C3541 1.376 . S
C3538 C3536 1.394 . S
C3538 C3539 1.369 . S
C3538 C3542 1.531 . S
C3539 C3538 1.369 . S
C3539 C3540 1.410 . S
C3539 C3547 1.503 . S
C3540 C3539 1.410 . S
C3540 C3541 1.392 . S
C3540 C3543 1.511 . S
C3541 C3537 1.376 . S
C3541 C3540 1.392 . S
C3541 H3553 0.929 . S
C3542 C3538 1.531 . S
C3542 H3554 0.960 . S
C3542 H3555 0.962 . S
C3542 H3556 0.960 . S
C3543 C3540 1.511 . S
C3543 H3557 0.961 . S
C3543 H3558 0.961 . S
C3543 H3559 0.961 . S
C3544 C3545 1.370 . S
C3544 C3546 1.363 . S
C3544 H3560 0.931 . S
C3545 C3544 1.370 . S
C3545 C3549 1.408 . S
C3546 C3544 1.363 . S
C3546 C3547 1.370 . S
C3546 C3550 1.524 . S
C3547 C3539 1.503 . S
C3547 C3546 1.370 . S
C3547 C3548 1.403 . S
C3548 C3547 1.403 . S
C3548 C3549 1.404 . S
C3548 C3551 1.539 . S
C3549 C3545 1.408 . S
C3549 C3548 1.404 . S
C3549 H3561 0.930 . S
C3550 C3546 1.524 . S
C3550 H3562 0.956 . S
C3550 H3563 0.961 . S
C3550 H3564 0.961 . S
C3551 C3548 1.539 . S
C3551 H3565 0.958 . S
C3551 H3566 0.961 . S
C3551 H3567 0.960 . S
H3552 C3536 0.931 . S
H3553 C3541 0.929 . S
H3554 C3542 0.960 . S
H3555 C3542 0.962 . S
H3556 C3542 0.960 . S
H3557 C3543 0.961 . S
H3558 C3543 0.961 . S
H3559 C3543 0.961 . S
H3560 C3544 0.931 . S
H3561 C3549 0.930 . S
H3562 C3550 0.956 . S
H3563 C3550 0.961 . S
H3564 C3550 0.961 . S
H3565 C3551 0.958 . S
H3566 C3551 0.961 . S
H3567 C3551 0.960 . S
C3568 C3569 1.391 . S
C3568 C3570 1.394 . S
C3568 H3584 0.931 . S
C3569 C3568 1.391 . S
C3569 C3573 1.376 . S
C3570 C3568 1.394 . S
C3570 C3571 1.369 . S
C3570 C3574 1.531 . S
C3571 C3570 1.369 . S
C3571 C3572 1.410 . S
C3571 C3579 1.503 . S
C3572 C3571 1.410 . S
C3572 C3573 1.392 . S
C3572 C3575 1.511 . S
C3573 C3569 1.376 . S
C3573 C3572 1.392 . S
C3573 H3585 0.929 . S
C3574 C3570 1.531 . S
C3574 H3586 0.960 . S
C3574 H3587 0.962 . S
C3574 H3588 0.960 . S
C3575 C3572 1.511 . S
C3575 H3589 0.961 . S
C3575 H3590 0.961 . S
C3575 H3591 0.961 . S
C3576 C3577 1.370 . S
C3576 C3578 1.363 . S
C3576 H3592 0.931 . S
C3577 C3576 1.370 . S
C3577 C3581 1.408 . S
C3578 C3576 1.363 . S
C3578 C3579 1.370 . S
C3578 C3582 1.524 . S
C3579 C3571 1.503 . S
C3579 C3578 1.370 . S
C3579 C3580 1.403 . S
C3580 C3579 1.403 . S
C3580 C3581 1.404 . S
C3580 C3583 1.539 . S
C3581 C3577 1.408 . S
C3581 C3580 1.404 . S
C3581 H3593 0.930 . S
C3582 C3578 1.524 . S
C3582 H3594 0.956 . S
C3582 H3595 0.961 . S
C3582 H3596 0.961 . S
C3583 C3580 1.539 . S
C3583 H3597 0.958 . S
C3583 H3598 0.961 . S
C3583 H3599 0.960 . S
H3584 C3568 0.931 . S
H3585 C3573 0.929 . S
H3586 C3574 0.960 . S
H3587 C3574 0.962 . S
H3588 C3574 0.960 . S
H3589 C3575 0.961 . S
H3590 C3575 0.961 . S
H3591 C3575 0.961 . S
H3592 C3576 0.931 . S
H3593 C3581 0.930 . S
H3594 C3582 0.956 . S
H3595 C3582 0.961 . S
H3596 C3582 0.961 . S
H3597 C3583 0.958 . S
H3598 C3583 0.961 . S
H3599 C3583 0.960 . S
C3600 C3601 1.391 . S
C3600 C3602 1.394 . S
C3600 H3616 0.931 . S
C3601 C3600 1.391 . S
C3601 C3605 1.376 . S
C3602 C3600 1.394 . S
C3602 C3603 1.369 . S
C3602 C3606 1.531 . S
C3603 C3602 1.369 . S
C3603 C3604 1.410 . S
C3603 C3611 1.503 . S
C3604 C3603 1.410 . S
C3604 C3605 1.392 . S
C3604 C3607 1.511 . S
C3605 C3601 1.376 . S
C3605 C3604 1.392 . S
C3605 H3617 0.929 . S
C3606 C3602 1.531 . S
C3606 H3618 0.960 . S
C3606 H3619 0.962 . S
C3606 H3620 0.960 . S
C3607 C3604 1.511 . S
C3607 H3621 0.961 . S
C3607 H3622 0.961 . S
C3607 H3623 0.961 . S
C3608 C3609 1.370 . S
C3608 C3610 1.363 . S
C3608 H3624 0.931 . S
C3609 C3608 1.370 . S
C3609 C3613 1.408 . S
C3610 C3608 1.363 . S
C3610 C3611 1.370 . S
C3610 C3614 1.524 . S
C3611 C3603 1.503 . S
C3611 C3610 1.370 . S
C3611 C3612 1.403 . S
C3612 C3611 1.403 . S
C3612 C3613 1.404 . S
C3612 C3615 1.539 . S
C3613 C3609 1.408 . S
C3613 C3612 1.404 . S
C3613 H3625 0.930 . S
C3614 C3610 1.524 . S
C3614 H3626 0.956 . S
C3614 H3627 0.961 . S
C3614 H3628 0.961 . S
C3615 C3612 1.539 . S
C3615 H3629 0.958 . S
C3615 H3630 0.961 . S
C3615 H3631 0.960 . S
H3616 C3600 0.931 . S
H3617 C3605 0.929 . S
H3618 C3606 0.960 . S
H3619 C3606 0.962 . S
H3620 C3606 0.960 . S
H3621 C3607 0.961 . S
H3622 C3607 0.961 . S
H3623 C3607 0.961 . S
H3624 C3608 0.931 . S
H3625 C3613 0.930 . S
H3626 C3614 0.956 . S
H3627 C3614 0.961 . S
H3628 C3614 0.961 . S
H3629 C3615 0.958 . S
H3630 C3615 0.961 . S
H3631 C3615 0.960 . S
C3632 C3633 1.391 . S
C3632 C3634 1.394 . S
C3632 H3648 0.931 . S
C3633 C3632 1.391 . S
C3633 C3637 1.376 . S
C3634 C3632 1.394 . S
C3634 C3635 1.369 . S
C3634 C3638 1.531 . S
C3635 C3634 1.369 . S
C3635 C3636 1.410 . S
C3635 C3643 1.503 1_556 S
C3636 C3635 1.410 . S
C3636 C3637 1.392 . S
C3636 C3639 1.511 . S
C3637 C3633 1.376 . S
C3637 C3636 1.392 . S
C3637 H3649 0.929 . S
C3638 C3634 1.531 . S
C3638 H3650 0.960 . S
C3638 H3651 0.962 . S
C3638 H3652 0.960 . S
C3639 C3636 1.511 . S
C3639 H3653 0.961 . S
C3639 H3654 0.961 . S
C3639 H3655 0.961 . S
C3640 C3641 1.370 . S
C3640 C3642 1.363 . S
C3640 H3656 0.931 . S
C3641 C3640 1.370 . S
C3641 C3645 1.408 . S
C3642 C3640 1.363 . S
C3642 C3643 1.370 . S
C3642 C3646 1.524 1_554 S
C3643 C3635 1.503 1_554 S
C3643 C3642 1.370 . S
C3643 C3644 1.403 . S
C3644 C3643 1.403 . S
C3644 C3645 1.404 . S
C3644 C3647 1.539 . S
C3645 C3641 1.408 . S
C3645 C3644 1.404 . S
C3645 H3657 0.930 . S
C3646 C3642 1.524 1_556 S
C3646 H3658 0.956 . S
C3646 H3659 0.961 . S
C3646 H3660 0.961 1_556 S
C3647 C3644 1.539 . S
C3647 H3661 0.958 . S
C3647 H3662 0.961 . S
C3647 H3663 0.960 1_554 S
H3648 C3632 0.931 . S
H3649 C3637 0.929 . S
H3650 C3638 0.960 . S
H3651 C3638 0.962 . S
H3652 C3638 0.960 . S
H3653 C3639 0.961 . S
H3654 C3639 0.961 . S
H3655 C3639 0.961 . S
H3656 C3640 0.931 . S
H3657 C3645 0.930 . S
H3658 C3646 0.956 . S
H3659 C3646 0.961 . S
H3660 C3646 0.961 1_554 S
H3661 C3647 0.958 . S
H3662 C3647 0.961 . S
H3663 C3647 0.960 1_556 S
C3664 C3665 1.391 . S
C3664 C3666 1.394 . S
C3664 H3680 0.931 . S
C3665 C3664 1.391 . S
C3665 C3669 1.376 . S
C3666 C3664 1.394 . S
C3666 C3667 1.369 . S
C3666 C3670 1.531 . S
C3667 C3666 1.369 . S
C3667 C3668 1.410 . S
C3667 C3675 1.503 . S
C3668 C3667 1.410 . S
C3668 C3669 1.392 . S
C3668 C3671 1.511 . S
C3669 C3665 1.376 . S
C3669 C3668 1.392 . S
C3669 H3681 0.929 . S
C3670 C3666 1.531 . S
C3670 H3682 0.960 . S
C3670 H3683 0.962 . S
C3670 H3684 0.960 . S
C3671 C3668 1.511 . S
C3671 H3685 0.961 . S
C3671 H3686 0.961 . S
C3671 H3687 0.961 . S
C3672 C3673 1.370 . S
C3672 C3674 1.363 . S
C3672 H3688 0.931 . S
C3673 C3672 1.370 . S
C3673 C3677 1.408 . S
C3674 C3672 1.363 . S
C3674 C3675 1.370 . S
C3674 C3678 1.524 . S
C3675 C3667 1.503 . S
C3675 C3674 1.370 . S
C3675 C3676 1.403 . S
C3676 C3675 1.403 . S
C3676 C3677 1.404 . S
C3676 C3679 1.539 . S
C3677 C3673 1.408 . S
C3677 C3676 1.404 . S
C3677 H3689 0.930 . S
C3678 C3674 1.524 . S
C3678 H3690 0.956 . S
C3678 H3691 0.961 . S
C3678 H3692 0.961 . S
C3679 C3676 1.539 . S
C3679 H3693 0.958 . S
C3679 H3694 0.961 . S
C3679 H3695 0.960 . S
H3680 C3664 0.931 . S
H3681 C3669 0.929 . S
H3682 C3670 0.960 . S
H3683 C3670 0.962 . S
H3684 C3670 0.960 . S
H3685 C3671 0.961 . S
H3686 C3671 0.961 . S
H3687 C3671 0.961 . S
H3688 C3672 0.931 . S
H3689 C3677 0.930 . S
H3690 C3678 0.956 . S
H3691 C3678 0.961 . S
H3692 C3678 0.961 . S
H3693 C3679 0.958 . S
H3694 C3679 0.961 . S
H3695 C3679 0.960 . S
C3696 C3697 1.391 . S
C3696 C3698 1.394 . S
C3696 H3712 0.931 . S
C3697 C3696 1.391 . S
C3697 C3701 1.376 . S
C3698 C3696 1.394 . S
C3698 C3699 1.369 . S
C3698 C3702 1.531 . S
C3699 C3698 1.369 . S
C3699 C3700 1.410 . S
C3699 C3707 1.503 1_556 S
C3700 C3699 1.410 . S
C3700 C3701 1.392 . S
C3700 C3703 1.511 . S
C3701 C3697 1.376 . S
C3701 C3700 1.392 . S
C3701 H3713 0.929 . S
C3702 C3698 1.531 . S
C3702 H3714 0.972 . S
C3702 H3715 0.962 . S
C3702 H3716 0.960 . S
C3703 C3700 1.511 . S
C3703 H3717 0.961 . S
C3703 H3718 0.961 1_556 S
C3703 H3719 0.961 . S
C3704 C3705 1.370 . S
C3704 C3706 1.363 . S
C3704 H3720 0.931 . S
C3705 C3704 1.370 . S
C3705 C3709 1.408 . S
C3706 C3704 1.363 . S
C3706 C3707 1.370 . S
C3706 C3710 1.524 . S
C3707 C3699 1.503 1_554 S
C3707 C3706 1.370 . S
C3707 C3708 1.403 . S
C3708 C3707 1.403 . S
C3708 C3709 1.404 . S
C3708 C3711 1.539 . S
C3709 C3705 1.408 . S
C3709 C3708 1.404 . S
C3709 H3721 0.930 . S
C3710 C3706 1.524 . S
C3710 H3722 0.956 1_554 S
C3710 H3723 0.961 1_554 S
C3710 H3724 0.961 . S
C3711 C3708 1.539 . S
C3711 H3725 0.958 . S
C3711 H3726 0.961 . S
C3711 H3727 0.960 . S
H3712 C3696 0.931 . S
H3713 C3701 0.929 . S
H3714 C3702 0.972 . S
H3715 C3702 0.962 . S
H3716 C3702 0.960 . S
H3717 C3703 0.961 . S
H3718 C3703 0.961 1_554 S
H3719 C3703 0.961 . S
H3720 C3704 0.931 . S
H3721 C3709 0.930 . S
H3722 C3710 0.956 1_556 S
H3723 C3710 0.961 1_556 S
H3724 C3710 0.961 . S
H3725 C3711 0.958 . S
H3726 C3711 0.961 . S
H3727 C3711 0.960 . S
C3728 C3729 1.391 . S
C3728 C3730 1.394 . S
C3728 H3744 0.931 . S
C3729 C3728 1.391 . S
C3729 C3733 1.376 . S
C3730 C3728 1.394 . S
C3730 C3731 1.369 . S
C3730 C3734 1.531 . S
C3731 C3730 1.369 . S
C3731 C3732 1.410 . S
C3731 C3739 1.503 . S
C3732 C3731 1.410 . S
C3732 C3733 1.392 . S
C3732 C3735 1.511 . S
C3733 C3729 1.376 . S
C3733 C3732 1.392 . S
C3733 H3745 0.929 . S
C3734 C3730 1.531 . S
C3734 H3746 0.960 . S
C3734 H3747 0.962 . S
C3734 H3748 0.960 . S
C3735 C3732 1.511 . S
C3735 H3749 0.961 . S
C3735 H3750 0.961 . S
C3735 H3751 0.961 . S
C3736 C3737 1.370 . S
C3736 C3738 1.363 . S
C3736 H3752 0.931 . S
C3737 C3736 1.370 . S
C3737 C3741 1.408 . S
C3738 C3736 1.363 . S
C3738 C3739 1.370 . S
C3738 C3742 1.524 . S
C3739 C3731 1.503 . S
C3739 C3738 1.370 . S
C3739 C3740 1.403 . S
C3740 C3739 1.403 . S
C3740 C3741 1.404 . S
C3740 C3743 1.539 . S
C3741 C3737 1.408 . S
C3741 C3740 1.404 . S
C3741 H3753 0.930 . S
C3742 C3738 1.524 . S
C3742 H3754 0.956 . S
C3742 H3755 0.961 . S
C3742 H3756 0.961 . S
C3743 C3740 1.539 . S
C3743 H3757 0.958 . S
C3743 H3758 0.961 . S
C3743 H3759 0.960 . S
H3744 C3728 0.931 . S
H3745 C3733 0.929 . S
H3746 C3734 0.960 . S
H3747 C3734 0.962 . S
H3748 C3734 0.960 . S
H3749 C3735 0.961 . S
H3750 C3735 0.961 . S
H3751 C3735 0.961 . S
H3752 C3736 0.931 . S
H3753 C3741 0.930 . S
H3754 C3742 0.956 . S
H3755 C3742 0.961 . S
H3756 C3742 0.961 . S
H3757 C3743 0.958 . S
H3758 C3743 0.961 . S
H3759 C3743 0.960 . S
C3760 C3761 1.391 . S
C3760 C3762 1.394 . S
C3760 H3776 0.931 . S
C3761 C3760 1.391 . S
C3761 C3765 1.376 . S
C3762 C3760 1.394 . S
C3762 C3763 1.344 1_556 S
C3762 C3766 1.531 1_556 S
C3763 C3762 1.344 1_554 S
C3763 C3764 1.382 1_554 S
C3763 C3771 1.557 . S
C3764 C3763 1.382 1_556 S
C3764 C3765 1.392 . S
C3764 C3767 1.511 . S
C3765 C3761 1.376 . S
C3765 C3764 1.392 . S
C3765 H3777 0.929 . S
C3766 C3762 1.531 1_554 S
C3766 H3778 0.960 . S
C3766 H3779 0.962 . S
C3766 H3780 0.960 1_554 S
C3767 C3764 1.511 . S
C3767 H3781 0.961 . S
C3767 H3782 0.961 1_556 S
C3767 H3783 0.958 1_556 S
C3768 C3769 1.370 . S
C3768 C3770 1.363 . S
C3768 H3784 0.931 . S
C3769 C3768 1.370 . S
C3769 C3773 1.408 . S
C3770 C3768 1.363 . S
C3770 C3771 1.370 . S
C3770 C3774 1.524 . S
C3771 C3763 1.557 . S
C3771 C3770 1.370 . S
C3771 C3772 1.403 . S
C3772 C3771 1.403 . S
C3772 C3773 1.404 . S
C3772 C3775 1.539 . S
C3773 C3769 1.408 . S
C3773 C3772 1.404 . S
C3773 H3785 0.930 . S
C3774 C3770 1.524 . S
C3774 H3786 0.956 . S
C3774 H3787 0.961 . S
C3774 H3788 0.961 . S
C3775 C3772 1.539 . S
C3775 H3789 0.958 . S
C3775 H3790 0.961 . S
C3775 H3791 0.960 . S
H3776 C3760 0.931 . S
H3777 C3765 0.929 . S
H3778 C3766 0.960 . S
H3779 C3766 0.962 . S
H3780 C3766 0.960 1_556 S
H3781 C3767 0.961 . S
H3782 C3767 0.961 1_554 S
H3783 C3767 0.958 1_554 S
H3784 C3768 0.931 . S
H3785 C3773 0.930 . S
H3786 C3774 0.956 . S
H3787 C3774 0.961 . S
H3788 C3774 0.961 . S
H3789 C3775 0.958 . S
H3790 C3775 0.961 . S
H3791 C3775 0.960 . S
C3792 C3793 1.391 . S
C3792 C3794 1.394 . S
C3792 H3808 0.931 . S
C3793 C3792 1.391 . S
C3793 C3797 1.376 . S
C3794 C3792 1.394 . S
C3794 C3795 1.369 . S
C3794 C3798 1.531 . S
C3795 C3794 1.369 . S
C3795 C3796 1.410 . S
C3795 C3803 1.503 . S
C3796 C3795 1.410 . S
C3796 C3797 1.392 . S
C3796 C3799 1.511 . S
C3797 C3793 1.376 . S
C3797 C3796 1.392 . S
C3797 H3809 0.929 . S
C3798 C3794 1.531 . S
C3798 H3810 0.960 . S
C3798 H3811 0.962 . S
C3798 H3812 0.960 . S
C3799 C3796 1.511 . S
C3799 H3813 0.961 . S
C3799 H3814 0.961 . S
C3799 H3815 0.961 . S
C3800 C3801 1.370 . S
C3800 C3802 1.363 . S
C3800 H3816 0.931 . S
C3801 C3800 1.370 . S
C3801 C3805 1.408 . S
C3802 C3800 1.363 . S
C3802 C3803 1.370 . S
C3802 C3806 1.524 . S
C3803 C3795 1.503 . S
C3803 C3802 1.370 . S
C3803 C3804 1.403 . S
C3804 C3803 1.403 . S
C3804 C3805 1.404 . S
C3804 C3807 1.539 . S
C3805 C3801 1.408 . S
C3805 C3804 1.404 . S
C3805 H3817 0.930 . S
C3806 C3802 1.524 . S
C3806 H3818 0.956 . S
C3806 H3819 0.961 . S
C3806 H3820 0.961 . S
C3807 C3804 1.539 . S
C3807 H3821 0.958 . S
C3807 H3822 0.961 . S
C3807 H3823 0.960 . S
H3808 C3792 0.931 . S
H3809 C3797 0.929 . S
H3810 C3798 0.960 . S
H3811 C3798 0.962 . S
H3812 C3798 0.960 . S
H3813 C3799 0.961 . S
H3814 C3799 0.961 . S
H3815 C3799 0.961 . S
H3816 C3800 0.931 . S
H3817 C3805 0.930 . S
H3818 C3806 0.956 . S
H3819 C3806 0.961 . S
H3820 C3806 0.961 . S
H3821 C3807 0.958 . S
H3822 C3807 0.961 . S
H3823 C3807 0.960 . S
C3824 C3825 1.391 . S
C3824 C3826 1.394 . S
C3824 H3840 0.931 . S
C3825 C3824 1.391 . S
C3825 C3829 1.376 . S
C3826 C3824 1.394 . S
C3826 C3827 1.369 . S
C3826 C3830 1.531 . S
C3827 C3826 1.369 . S
C3827 C3828 1.410 . S
C3827 C3835 1.503 1_556 S
C3828 C3827 1.410 . S
C3828 C3829 1.392 . S
C3828 C3831 1.511 . S
C3829 C3825 1.376 . S
C3829 C3828 1.392 . S
C3829 H3841 0.929 . S
C3830 C3826 1.531 . S
C3830 H3842 0.960 . S
C3830 H3843 0.962 . S
C3830 H3844 0.960 . S
C3831 C3828 1.511 . S
C3831 H3845 0.961 . S
C3831 H3846 0.972 . S
C3831 H3847 0.961 . S
C3832 C3833 1.370 . S
C3832 C3834 1.363 . S
C3832 H3848 0.931 . S
C3833 C3832 1.370 . S
C3833 C3837 1.408 . S
C3834 C3832 1.363 . S
C3834 C3835 1.370 . S
C3834 C3838 1.524 . S
C3835 C3827 1.503 1_554 S
C3835 C3834 1.370 . S
C3835 C3836 1.403 . S
C3836 C3835 1.403 . S
C3836 C3837 1.404 . S
C3836 C3839 1.539 . S
C3837 C3833 1.408 . S
C3837 C3836 1.404 . S
C3837 H3849 0.930 . S
C3838 C3834 1.524 . S
C3838 H3850 0.956 1_554 S
C3838 H3851 0.961 1_554 S
C3838 H3852 0.961 . S
C3839 C3836 1.539 . S
C3839 H3853 0.958 . S
C3839 H3854 0.961 . S
C3839 H3855 0.960 1_554 S
H3840 C3824 0.931 . S
H3841 C3829 0.929 . S
H3842 C3830 0.960 . S
H3843 C3830 0.962 . S
H3844 C3830 0.960 . S
H3845 C3831 0.961 . S
H3846 C3831 0.972 . S
H3847 C3831 0.961 . S
H3848 C3832 0.931 . S
H3849 C3837 0.930 . S
H3850 C3838 0.956 1_556 S
H3851 C3838 0.961 1_556 S
H3852 C3838 0.961 . S
H3853 C3839 0.958 . S
H3854 C3839 0.961 . S
H3855 C3839 0.960 1_556 S
C3856 C3857 1.391 . S
C3856 C3858 1.394 . S
C3856 H3872 0.931 . S
C3857 C3856 1.391 . S
C3857 C3861 1.376 . S
C3858 C3856 1.394 . S
C3858 C3859 1.369 . S
C3858 C3862 1.531 . S
C3859 C3858 1.369 . S
C3859 C3860 1.410 . S
C3859 C3867 1.503 . S
C3860 C3859 1.410 . S
C3860 C3861 1.392 . S
C3860 C3863 1.511 . S
C3861 C3857 1.376 . S
C3861 C3860 1.392 . S
C3861 H3873 0.929 . S
C3862 C3858 1.531 . S
C3862 H3874 0.960 . S
C3862 H3875 0.962 . S
C3862 H3876 0.960 . S
C3863 C3860 1.511 . S
C3863 H3877 0.961 . S
C3863 H3878 0.961 . S
C3863 H3879 0.961 . S
C3864 C3865 1.370 . S
C3864 C3866 1.363 . S
C3864 H3880 0.931 . S
C3865 C3864 1.370 . S
C3865 C3869 1.408 . S
C3866 C3864 1.363 . S
C3866 C3867 1.370 . S
C3866 C3870 1.524 . S
C3867 C3859 1.503 . S
C3867 C3866 1.370 . S
C3867 C3868 1.403 . S
C3868 C3867 1.403 . S
C3868 C3869 1.404 . S
C3868 C3871 1.539 . S
C3869 C3865 1.408 . S
C3869 C3868 1.404 . S
C3869 H3881 0.930 . S
C3870 C3866 1.524 . S
C3870 H3882 0.956 . S
C3870 H3883 0.961 . S
C3870 H3884 0.961 . S
C3871 C3868 1.539 . S
C3871 H3885 0.958 . S
C3871 H3886 0.961 . S
C3871 H3887 0.960 . S
H3872 C3856 0.931 . S
H3873 C3861 0.929 . S
H3874 C3862 0.960 . S
H3875 C3862 0.962 . S
H3876 C3862 0.960 . S
H3877 C3863 0.961 . S
H3878 C3863 0.961 . S
H3879 C3863 0.961 . S
H3880 C3864 0.931 . S
H3881 C3869 0.930 . S
H3882 C3870 0.956 . S
H3883 C3870 0.961 . S
H3884 C3870 0.961 . S
H3885 C3871 0.958 . S
H3886 C3871 0.961 . S
H3887 C3871 0.960 . S
C3888 C3889 1.391 . S
C3888 C3890 1.394 . S
C3888 H3904 0.931 . S
C3889 C3888 1.391 . S
C3889 C3893 1.376 . S
C3890 C3888 1.394 . S
C3890 C3891 1.369 . S
C3890 C3894 1.531 . S
C3891 C3890 1.369 . S
C3891 C3892 1.410 . S
C3891 C3899 1.464 1_565 S
C3892 C3891 1.410 . S
C3892 C3893 1.392 . S
C3892 C3895 1.511 . S
C3893 C3889 1.376 . S
C3893 C3892 1.392 . S
C3893 H3905 0.929 . S
C3894 C3890 1.531 . S
C3894 H3906 0.960 . S
C3894 H3907 0.962 . S
C3894 H3908 0.960 . S
C3895 C3892 1.511 . S
C3895 H3909 0.961 . S
C3895 H3910 0.961 . S
C3895 H3911 0.961 . S
C3896 C3897 1.370 . S
C3896 C3898 1.363 . S
C3896 H3912 0.931 . S
C3897 C3896 1.370 . S
C3897 C3901 1.408 . S
C3898 C3896 1.363 . S
C3898 C3899 1.388 . S
C3898 C3902 1.524 1_545 S
C3899 C3891 1.464 1_545 S
C3899 C3898 1.388 . S
C3899 C3900 1.425 . S
C3900 C3899 1.425 . S
C3900 C3901 1.404 . S
C3900 C3903 1.539 . S
C3901 C3897 1.408 . S
C3901 C3900 1.404 . S
C3901 H3913 0.930 . S
C3902 C3898 1.524 1_565 S
C3902 H3914 0.956 . S
C3902 H3915 0.961 . S
C3902 H3916 0.961 1_565 S
C3903 C3900 1.539 . S
C3903 H3917 0.958 . S
C3903 H3918 0.961 . S
C3903 H3919 0.960 1_545 S
H3904 C3888 0.931 . S
H3905 C3893 0.929 . S
H3906 C3894 0.960 . S
H3907 C3894 0.962 . S
H3908 C3894 0.960 . S
H3909 C3895 0.961 . S
H3910 C3895 0.961 . S
H3911 C3895 0.961 . S
H3912 C3896 0.931 . S
H3913 C3901 0.930 . S
H3914 C3902 0.956 . S
H3915 C3902 0.961 . S
H3916 C3902 0.961 1_545 S
H3917 C3903 0.958 . S
H3918 C3903 0.961 . S
H3919 C3903 0.960 1_565 S
C3920 C3921 1.391 . S
C3920 C3922 1.394 . S
C3920 H3936 0.931 . S
C3921 C3920 1.391 . S
C3921 C3925 1.376 . S
C3922 C3920 1.394 . S
C3922 C3923 1.369 . S
C3922 C3926 1.531 . S
C3923 C3922 1.369 . S
C3923 C3924 1.410 . S
C3923 C3931 1.503 . S
C3924 C3923 1.410 . S
C3924 C3925 1.392 . S
C3924 C3927 1.511 . S
C3925 C3921 1.376 . S
C3925 C3924 1.392 . S
C3925 H3937 0.929 . S
C3926 C3922 1.531 . S
C3926 H3938 0.960 . S
C3926 H3939 0.962 . S
C3926 H3940 0.960 . S
C3927 C3924 1.511 . S
C3927 H3941 0.961 . S
C3927 H3942 0.961 . S
C3927 H3943 0.961 . S
C3928 C3929 1.370 . S
C3928 C3930 1.363 . S
C3928 H3944 0.931 . S
C3929 C3928 1.370 . S
C3929 C3933 1.408 . S
C3930 C3928 1.363 . S
C3930 C3931 1.370 . S
C3930 C3934 1.524 . S
C3931 C3923 1.503 . S
C3931 C3930 1.370 . S
C3931 C3932 1.403 . S
C3932 C3931 1.403 . S
C3932 C3933 1.404 . S
C3932 C3935 1.539 . S
C3933 C3929 1.408 . S
C3933 C3932 1.404 . S
C3933 H3945 0.930 . S
C3934 C3930 1.524 . S
C3934 H3946 0.956 . S
C3934 H3947 0.961 . S
C3934 H3948 0.961 . S
C3935 C3932 1.539 . S
C3935 H3949 0.958 . S
C3935 H3950 0.961 . S
C3935 H3951 0.960 . S
H3936 C3920 0.931 . S
H3937 C3925 0.929 . S
H3938 C3926 0.960 . S
H3939 C3926 0.962 . S
H3940 C3926 0.960 . S
H3941 C3927 0.961 . S
H3942 C3927 0.961 . S
H3943 C3927 0.961 . S
H3944 C3928 0.931 . S
H3945 C3933 0.930 . S
H3946 C3934 0.956 . S
H3947 C3934 0.961 . S
H3948 C3934 0.961 . S
H3949 C3935 0.958 . S
H3950 C3935 0.961 . S
H3951 C3935 0.960 . S
C3952 C3953 1.391 . S
C3952 C3954 1.394 . S
C3952 H3968 0.931 . S
C3953 C3952 1.391 . S
C3953 C3957 1.376 . S
C3954 C3952 1.394 . S
C3954 C3955 1.369 . S
C3954 C3958 1.531 . S
C3955 C3954 1.369 . S
C3955 C3956 1.410 . S
C3955 C3963 1.503 1_545 S
C3956 C3955 1.410 . S
C3956 C3957 1.392 . S
C3956 C3959 1.511 . S
C3957 C3953 1.376 . S
C3957 C3956 1.392 . S
C3957 H3969 0.929 . S
C3958 C3954 1.531 . S
C3958 H3970 1.004 . S
C3958 H3971 0.962 . S
C3958 H3972 0.960 . S
C3959 C3956 1.511 . S
C3959 H3973 0.961 . S
C3959 H3974 0.961 . S
C3959 H3975 0.961 . S
C3960 C3961 1.370 . S
C3960 C3962 1.363 . S
C3960 H3976 0.931 . S
C3961 C3960 1.370 . S
C3961 C3965 1.408 . S
C3962 C3960 1.363 . S
C3962 C3963 1.370 . S
C3962 C3966 1.524 . S
C3963 C3955 1.503 1_565 S
C3963 C3962 1.370 . S
C3963 C3964 1.403 . S
C3964 C3963 1.403 . S
C3964 C3965 1.404 . S
C3964 C3967 1.539 . S
C3965 C3961 1.408 . S
C3965 C3964 1.404 . S
C3965 H3977 0.930 . S
C3966 C3962 1.524 . S
C3966 H3978 0.956 1_565 S
C3966 H3979 0.961 1_565 S
C3966 H3980 0.961 . S
C3967 C3964 1.539 . S
C3967 H3981 0.958 . S
C3967 H3982 0.961 . S
C3967 H3983 0.960 1_565 S
H3968 C3952 0.931 . S
H3969 C3957 0.929 . S
H3970 C3958 1.004 . S
H3971 C3958 0.962 . S
H3972 C3958 0.960 . S
H3973 C3959 0.961 . S
H3974 C3959 0.961 . S
H3975 C3959 0.961 . S
H3976 C3960 0.931 . S
H3977 C3965 0.930 . S
H3978 C3966 0.956 1_545 S
H3979 C3966 0.961 1_545 S
H3980 C3966 0.961 . S
H3981 C3967 0.958 . S
H3982 C3967 0.961 . S
H3983 C3967 0.960 1_545 S
C3984 C3985 1.391 . S
C3984 C3986 1.394 . S
C3984 H4000 0.931 . S
C3985 C3984 1.391 . S
C3985 C3989 1.376 . S
C3986 C3984 1.394 . S
C3986 C3987 1.369 . S
C3986 C3990 1.531 . S
C3987 C3986 1.369 . S
C3987 C3988 1.410 . S
C3987 C3995 1.503 . S
C3988 C3987 1.410 . S
C3988 C3989 1.392 . S
C3988 C3991 1.511 . S
C3989 C3985 1.376 . S
C3989 C3988 1.392 . S
C3989 H4001 0.929 . S
C3990 C3986 1.531 . S
C3990 H4002 0.960 . S
C3990 H4003 0.962 . S
C3990 H4004 0.960 . S
C3991 C3988 1.511 . S
C3991 H4005 0.961 . S
C3991 H4006 0.961 . S
C3991 H4007 0.961 . S
C3992 C3993 1.370 . S
C3992 C3994 1.363 . S
C3992 H4008 0.931 . S
C3993 C3992 1.370 . S
C3993 C3997 1.408 . S
C3994 C3992 1.363 . S
C3994 C3995 1.370 . S
C3994 C3998 1.524 . S
C3995 C3987 1.503 . S
C3995 C3994 1.370 . S
C3995 C3996 1.403 . S
C3996 C3995 1.403 . S
C3996 C3997 1.404 . S
C3996 C3999 1.539 . S
C3997 C3993 1.408 . S
C3997 C3996 1.404 . S
C3997 H4009 0.930 . S
C3998 C3994 1.524 . S
C3998 H4010 0.956 . S
C3998 H4011 0.961 . S
C3998 H4012 0.961 . S
C3999 C3996 1.539 . S
C3999 H4013 0.958 . S
C3999 H4014 0.961 . S
C3999 H4015 0.960 . S
H4000 C3984 0.931 . S
H4001 C3989 0.929 . S
H4002 C3990 0.960 . S
H4003 C3990 0.962 . S
H4004 C3990 0.960 . S
H4005 C3991 0.961 . S
H4006 C3991 0.961 . S
H4007 C3991 0.961 . S
H4008 C3992 0.931 . S
H4009 C3997 0.930 . S
H4010 C3998 0.956 . S
H4011 C3998 0.961 . S
H4012 C3998 0.961 . S
H4013 C3999 0.958 . S
H4014 C3999 0.961 . S
H4015 C3999 0.960 . S
C4016 C4017 1.391 . S
C4016 C4018 1.394 . S
C4016 H4032 0.931 . S
C4017 C4016 1.391 . S
C4017 C4021 1.376 . S
C4018 C4016 1.394 . S
C4018 C4019 1.369 . S
C4018 C4022 1.531 . S
C4019 C4018 1.369 . S
C4019 C4020 1.410 . S
C4019 C4027 1.503 1_565 S
C4020 C4019 1.410 . S
C4020 C4021 1.392 . S
C4020 C4023 1.511 . S
C4021 C4017 1.376 . S
C4021 C4020 1.392 . S
C4021 H4033 0.929 . S
C4022 C4018 1.531 . S
C4022 H4034 0.960 1_565 S
C4022 H4035 0.962 . S
C4022 H4036 0.960 . S
C4023 C4020 1.511 . S
C4023 H4037 0.961 . S
C4023 H4038 0.961 1_565 S
C4023 H4039 0.961 . S
C4024 C4025 1.370 . S
C4024 C4026 1.363 . S
C4024 H4040 0.931 . S
C4025 C4024 1.370 . S
C4025 C4029 1.408 . S
C4026 C4024 1.363 . S
C4026 C4027 1.370 . S
C4026 C4030 1.524 . S
C4027 C4019 1.503 1_545 S
C4027 C4026 1.370 . S
C4027 C4028 1.403 . S
C4028 C4027 1.403 . S
C4028 C4029 1.404 . S
C4028 C4031 1.539 . S
C4029 C4025 1.408 . S
C4029 C4028 1.404 . S
C4029 H4041 0.930 . S
C4030 C4026 1.524 . S
C4030 H4042 0.956 . S
C4030 H4043 0.961 . S
C4030 H4044 0.961 . S
C4031 C4028 1.539 . S
C4031 H4045 0.958 . S
C4031 H4046 0.961 . S
C4031 H4047 0.944 1_545 S
H4032 C4016 0.931 . S
H4033 C4021 0.929 . S
H4034 C4022 0.960 1_545 S
H4035 C4022 0.962 . S
H4036 C4022 0.960 . S
H4037 C4023 0.961 . S
H4038 C4023 0.961 1_545 S
H4039 C4023 0.961 . S
H4040 C4024 0.931 . S
H4041 C4029 0.930 . S
H4042 C4030 0.956 . S
H4043 C4030 0.961 . S
H4044 C4030 0.961 . S
H4045 C4031 0.958 . S
H4046 C4031 0.961 . S
H4047 C4031 0.944 1_565 S
C4048 C4049 1.391 . S
C4048 C4050 1.394 . S
C4048 H4064 0.931 . S
C4049 C4048 1.391 . S
C4049 C4053 1.376 . S
C4050 C4048 1.394 . S
C4050 C4051 1.369 . S
C4050 C4054 1.531 . S
C4051 C4050 1.369 . S
C4051 C4052 1.410 . S
C4051 C4059 1.503 . S
C4052 C4051 1.410 . S
C4052 C4053 1.392 . S
C4052 C4055 1.511 . S
C4053 C4049 1.376 . S
C4053 C4052 1.392 . S
C4053 H4065 0.929 . S
C4054 C4050 1.531 . S
C4054 H4066 0.960 . S
C4054 H4067 0.962 . S
C4054 H4068 0.960 . S
C4055 C4052 1.511 . S
C4055 H4069 0.961 . S
C4055 H4070 0.961 . S
C4055 H4071 0.961 . S
C4056 C4057 1.370 . S
C4056 C4058 1.363 . S
C4056 H4072 0.931 . S
C4057 C4056 1.370 . S
C4057 C4061 1.408 . S
C4058 C4056 1.363 . S
C4058 C4059 1.370 . S
C4058 C4062 1.524 . S
C4059 C4051 1.503 . S
C4059 C4058 1.370 . S
C4059 C4060 1.403 . S
C4060 C4059 1.403 . S
C4060 C4061 1.404 . S
C4060 C4063 1.539 . S
C4061 C4057 1.408 . S
C4061 C4060 1.404 . S
C4061 H4073 0.930 . S
C4062 C4058 1.524 . S
C4062 H4074 0.956 . S
C4062 H4075 0.961 . S
C4062 H4076 0.961 . S
C4063 C4060 1.539 . S
C4063 H4077 0.958 . S
C4063 H4078 0.961 . S
C4063 H4079 0.960 . S
H4064 C4048 0.931 . S
H4065 C4053 0.929 . S
H4066 C4054 0.960 . S
H4067 C4054 0.962 . S
H4068 C4054 0.960 . S
H4069 C4055 0.961 . S
H4070 C4055 0.961 . S
H4071 C4055 0.961 . S
H4072 C4056 0.931 . S
H4073 C4061 0.930 . S
H4074 C4062 0.956 . S
H4075 C4062 0.961 . S
H4076 C4062 0.961 . S
H4077 C4063 0.958 . S
H4078 C4063 0.961 . S
H4079 C4063 0.960 . S
C4080 C4081 1.391 . S
C4080 C4082 1.394 . S
C4080 H4096 0.931 . S
C4081 C4080 1.391 . S
C4081 C4085 1.376 . S
C4082 C4080 1.394 . S
C4082 C4083 1.369 . S
C4082 C4086 1.531 . S
C4083 C4082 1.369 . S
C4083 C4084 1.410 . S
C4083 C4091 1.503 1_565 S
C4084 C4083 1.410 . S
C4084 C4085 1.392 . S
C4084 C4087 1.511 . S
C4085 C4081 1.376 . S
C4085 C4084 1.392 . S
C4085 H4097 0.929 . S
C4086 C4082 1.531 . S
C4086 H4098 0.960 1_565 S
C4086 H4099 0.962 . S
C4086 H4100 0.960 . S
C4087 C4084 1.511 . S
C4087 H4101 0.961 . S
C4087 H4102 0.961 1_565 S
C4087 H4103 0.961 . S
C4088 C4089 1.370 . S
C4088 C4090 1.363 . S
C4088 H4104 0.931 . S
C4089 C4088 1.370 . S
C4089 C4093 1.408 . S
C4090 C4088 1.363 . S
C4090 C4091 1.370 . S
C4090 C4094 1.524 . S
C4091 C4083 1.503 1_545 S
C4091 C4090 1.370 . S
C4091 C4092 1.403 . S
C4092 C4091 1.403 . S
C4092 C4093 1.404 . S
C4092 C4095 1.539 . S
C4093 C4089 1.408 . S
C4093 C4092 1.404 . S
C4093 H4105 0.930 . S
C4094 C4090 1.524 . S
C4094 H4106 0.956 . S
C4094 H4107 0.961 . S
C4094 H4108 0.961 . S
C4095 C4092 1.539 . S
C4095 H4109 0.958 . S
C4095 H4110 0.961 . S
C4095 H4111 0.960 1_545 S
H4096 C4080 0.931 . S
H4097 C4085 0.929 . S
H4098 C4086 0.960 1_545 S
H4099 C4086 0.962 . S
H4100 C4086 0.960 . S
H4101 C4087 0.961 . S
H4102 C4087 0.961 1_545 S
H4103 C4087 0.961 . S
H4104 C4088 0.931 . S
H4105 C4093 0.930 . S
H4106 C4094 0.956 . S
H4107 C4094 0.961 . S
H4108 C4094 0.961 . S
H4109 C4095 0.958 . S
H4110 C4095 0.961 . S
H4111 C4095 0.960 1_565 S
C4112 C4113 1.391 . S
C4112 C4114 1.394 . S
C4112 H4128 0.931 . S
C4113 C4112 1.391 . S
C4113 C4117 1.376 . S
C4114 C4112 1.394 . S
C4114 C4115 1.369 . S
C4114 C4118 1.531 . S
C4115 C4114 1.369 . S
C4115 C4116 1.410 . S
C4115 C4123 1.503 . S
C4116 C4115 1.410 . S
C4116 C4117 1.392 . S
C4116 C4119 1.511 . S
C4117 C4113 1.376 . S
C4117 C4116 1.392 . S
C4117 H4129 0.929 . S
C4118 C4114 1.531 . S
C4118 H4130 0.960 . S
C4118 H4131 0.962 . S
C4118 H4132 0.960 . S
C4119 C4116 1.511 . S
C4119 H4133 0.961 . S
C4119 H4134 0.961 . S
C4119 H4135 0.961 . S
C4120 C4121 1.370 . S
C4120 C4122 1.363 . S
C4120 H4136 0.931 . S
C4121 C4120 1.370 . S
C4121 C4125 1.408 . S
C4122 C4120 1.363 . S
C4122 C4123 1.370 . S
C4122 C4126 1.524 . S
C4123 C4115 1.503 . S
C4123 C4122 1.370 . S
C4123 C4124 1.403 . S
C4124 C4123 1.403 . S
C4124 C4125 1.404 . S
C4124 C4127 1.539 . S
C4125 C4121 1.408 . S
C4125 C4124 1.404 . S
C4125 H4137 0.930 . S
C4126 C4122 1.524 . S
C4126 H4138 0.956 . S
C4126 H4139 0.961 . S
C4126 H4140 0.961 . S
C4127 C4124 1.539 . S
C4127 H4141 0.958 . S
C4127 H4142 0.961 . S
C4127 H4143 0.960 . S
H4128 C4112 0.931 . S
H4129 C4117 0.929 . S
H4130 C4118 0.960 . S
H4131 C4118 0.962 . S
H4132 C4118 0.960 . S
H4133 C4119 0.961 . S
H4134 C4119 0.961 . S
H4135 C4119 0.961 . S
H4136 C4120 0.931 . S
H4137 C4125 0.930 . S
H4138 C4126 0.956 . S
H4139 C4126 0.961 . S
H4140 C4126 0.961 . S
H4141 C4127 0.958 . S
H4142 C4127 0.961 . S
H4143 C4127 0.960 . S
C4144 C4145 1.391 . S
C4144 C4146 1.394 . S
C4144 H4160 0.931 . S
C4145 C4144 1.391 . S
C4145 C4149 1.376 . S
C4146 C4144 1.394 . S
C4146 C4147 1.369 . S
C4146 C4150 1.531 . S
C4147 C4146 1.369 . S
C4147 C4148 1.410 . S
C4147 C4155 1.503 . S
C4148 C4147 1.410 . S
C4148 C4149 1.392 . S
C4148 C4151 1.511 . S
C4149 C4145 1.376 . S
C4149 C4148 1.392 . S
C4149 H4161 0.929 . S
C4150 C4146 1.531 . S
C4150 H4162 0.960 . S
C4150 H4163 0.962 . S
C4150 H4164 0.960 . S
C4151 C4148 1.511 . S
C4151 H4165 0.961 . S
C4151 H4166 0.961 . S
C4151 H4167 0.961 . S
C4152 C4153 1.370 . S
C4152 C4154 1.363 . S
C4152 H4168 0.931 . S
C4153 C4152 1.370 . S
C4153 C4157 1.408 . S
C4154 C4152 1.363 . S
C4154 C4155 1.370 . S
C4154 C4158 1.524 . S
C4155 C4147 1.503 . S
C4155 C4154 1.370 . S
C4155 C4156 1.403 . S
C4156 C4155 1.403 . S
C4156 C4157 1.404 . S
C4156 C4159 1.539 . S
C4157 C4153 1.408 . S
C4157 C4156 1.404 . S
C4157 H4169 0.930 . S
C4158 C4154 1.524 . S
C4158 H4170 0.956 . S
C4158 H4171 0.961 . S
C4158 H4172 0.961 . S
C4159 C4156 1.539 . S
C4159 H4173 0.958 . S
C4159 H4174 0.961 . S
C4159 H4175 0.960 . S
H4160 C4144 0.931 . S
H4161 C4149 0.929 . S
H4162 C4150 0.960 . S
H4163 C4150 0.962 . S
H4164 C4150 0.960 . S
H4165 C4151 0.961 . S
H4166 C4151 0.961 . S
H4167 C4151 0.961 . S
H4168 C4152 0.931 . S
H4169 C4157 0.930 . S
H4170 C4158 0.956 . S
H4171 C4158 0.961 . S
H4172 C4158 0.961 . S
H4173 C4159 0.958 . S
H4174 C4159 0.961 . S
H4175 C4159 0.960 . S
C4176 C4177 1.391 . S
C4176 C4178 1.394 . S
C4176 H4192 0.931 . S
C4177 C4176 1.391 . S
C4177 C4181 1.376 . S
C4178 C4176 1.394 . S
C4178 C4179 1.369 . S
C4178 C4182 1.531 . S
C4179 C4178 1.369 . S
C4179 C4180 1.410 . S
C4179 C4187 1.503 . S
C4180 C4179 1.410 . S
C4180 C4181 1.392 . S
C4180 C4183 1.511 . S
C4181 C4177 1.376 . S
C4181 C4180 1.392 . S
C4181 H4193 0.929 . S
C4182 C4178 1.531 . S
C4182 H4194 0.960 . S
C4182 H4195 0.962 . S
C4182 H4196 0.960 . S
C4183 C4180 1.511 . S
C4183 H4197 0.961 . S
C4183 H4198 0.961 . S
C4183 H4199 0.961 . S
C4184 C4185 1.370 . S
C4184 C4186 1.344 1_655 S
C4184 H4200 0.931 . S
C4185 C4184 1.370 . S
C4185 C4189 1.408 . S
C4186 C4184 1.344 1_455 S
C4186 C4187 1.379 . S
C4186 C4190 1.534 . S
C4187 C4179 1.503 . S
C4187 C4186 1.379 . S
C4187 C4188 1.403 1_455 S
C4188 C4187 1.403 1_655 S
C4188 C4189 1.404 . S
C4188 C4191 1.539 1_655 S
C4189 C4185 1.408 . S
C4189 C4188 1.404 . S
C4189 H4201 0.930 . S
C4190 C4186 1.534 . S
C4190 H4202 0.956 . S
C4190 H4203 0.961 . S
C4190 H4204 0.961 . S
C4191 C4188 1.539 1_455 S
C4191 H4205 0.958 . S
C4191 H4206 0.961 1_455 S
C4191 H4207 0.960 . S
H4192 C4176 0.931 . S
H4193 C4181 0.929 . S
H4194 C4182 0.960 . S
H4195 C4182 0.962 . S
H4196 C4182 0.960 . S
H4197 C4183 0.961 . S
H4198 C4183 0.961 . S
H4199 C4183 0.961 . S
H4200 C4184 0.931 . S
H4201 C4189 0.930 . S
H4202 C4190 0.956 . S
H4203 C4190 0.961 . S
H4204 C4190 0.961 . S
H4205 C4191 0.958 . S
H4206 C4191 0.961 1_655 S
H4207 C4191 0.960 . S
C4208 C4209 1.391 . S
C4208 C4210 1.394 . S
C4208 H4224 0.931 . S
C4209 C4208 1.391 . S
C4209 C4213 1.376 . S
C4210 C4208 1.394 . S
C4210 C4211 1.369 . S
C4210 C4214 1.531 . S
C4211 C4210 1.369 . S
C4211 C4212 1.410 . S
C4211 C4219 1.503 . S
C4212 C4211 1.410 . S
C4212 C4213 1.392 . S
C4212 C4215 1.511 . S
C4213 C4209 1.376 . S
C4213 C4212 1.392 . S
C4213 H4225 0.929 . S
C4214 C4210 1.531 . S
C4214 H4226 0.960 . S
C4214 H4227 0.962 . S
C4214 H4228 0.960 . S
C4215 C4212 1.511 . S
C4215 H4229 0.961 . S
C4215 H4230 0.961 . S
C4215 H4231 0.961 . S
C4216 C4217 1.370 . S
C4216 C4218 1.363 . S
C4216 H4232 0.931 . S
C4217 C4216 1.370 . S
C4217 C4221 1.408 . S
C4218 C4216 1.363 . S
C4218 C4219 1.370 . S
C4218 C4222 1.524 . S
C4219 C4211 1.503 . S
C4219 C4218 1.370 . S
C4219 C4220 1.403 . S
C4220 C4219 1.403 . S
C4220 C4221 1.404 . S
C4220 C4223 1.539 . S
C4221 C4217 1.408 . S
C4221 C4220 1.404 . S
C4221 H4233 0.930 . S
C4222 C4218 1.524 . S
C4222 H4234 0.956 . S
C4222 H4235 0.961 . S
C4222 H4236 0.961 . S
C4223 C4220 1.539 . S
C4223 H4237 0.958 . S
C4223 H4238 0.961 . S
C4223 H4239 0.960 . S
H4224 C4208 0.931 . S
H4225 C4213 0.929 . S
H4226 C4214 0.960 . S
H4227 C4214 0.962 . S
H4228 C4214 0.960 . S
H4229 C4215 0.961 . S
H4230 C4215 0.961 . S
H4231 C4215 0.961 . S
H4232 C4216 0.931 . S
H4233 C4221 0.930 . S
H4234 C4222 0.956 . S
H4235 C4222 0.961 . S
H4236 C4222 0.961 . S
H4237 C4223 0.958 . S
H4238 C4223 0.961 . S
H4239 C4223 0.960 . S
C4240 C4241 1.391 . S
C4240 C4242 1.394 . S
C4240 H4256 0.931 . S
C4241 C4240 1.391 . S
C4241 C4245 1.376 . S
C4242 C4240 1.394 . S
C4242 C4243 1.369 1_455 S
C4242 C4246 1.531 1_455 S
C4243 C4242 1.369 1_655 S
C4243 C4244 1.410 1_655 S
C4243 C4251 1.503 . S
C4244 C4243 1.410 1_455 S
C4244 C4245 1.392 . S
C4244 C4247 1.511 1_455 S
C4245 C4241 1.376 . S
C4245 C4244 1.392 . S
C4245 H4257 0.929 . S
C4246 C4242 1.531 1_655 S
C4246 H4258 0.960 . S
C4246 H4259 0.962 . S
C4246 H4260 0.960 . S
C4247 C4244 1.511 1_655 S
C4247 H4261 0.961 1_655 S
C4247 H4262 0.961 . S
C4247 H4263 0.961 . S
C4248 C4249 1.370 . S
C4248 C4250 1.363 . S
C4248 H4264 0.931 . S
C4249 C4248 1.370 . S
C4249 C4253 1.408 . S
C4250 C4248 1.363 . S
C4250 C4251 1.370 . S
C4250 C4254 1.524 . S
C4251 C4243 1.503 . S
C4251 C4250 1.370 . S
C4251 C4252 1.403 . S
C4252 C4251 1.403 . S
C4252 C4253 1.404 . S
C4252 C4255 1.539 . S
C4253 C4249 1.408 . S
C4253 C4252 1.404 . S
C4253 H4265 0.930 . S
C4254 C4250 1.524 . S
C4254 H4266 0.956 . S
C4254 H4267 0.961 . S
C4254 H4268 0.961 . S
C4255 C4252 1.539 . S
C4255 H4269 0.958 . S
C4255 H4270 0.961 . S
C4255 H4271 0.960 . S
H4256 C4240 0.931 . S
H4257 C4245 0.929 . S
H4258 C4246 0.960 . S
H4259 C4246 0.962 . S
H4260 C4246 0.960 . S
H4261 C4247 0.961 1_455 S
H4262 C4247 0.961 . S
H4263 C4247 0.961 . S
H4264 C4248 0.931 . S
H4265 C4253 0.930 . S
H4266 C4254 0.956 . S
H4267 C4254 0.961 . S
H4268 C4254 0.961 . S
H4269 C4255 0.958 . S
H4270 C4255 0.961 . S
H4271 C4255 0.960 . S
C4272 C4273 1.391 . S
C4272 C4274 1.394 . S
C4272 H4288 0.931 . S
C4273 C4272 1.391 . S
C4273 C4277 1.376 . S
C4274 C4272 1.394 . S
C4274 C4275 1.369 . S
C4274 C4278 1.531 . S
C4275 C4274 1.369 . S
C4275 C4276 1.410 . S
C4275 C4283 1.503 . S
C4276 C4275 1.410 . S
C4276 C4277 1.392 . S
C4276 C4279 1.511 . S
C4277 C4273 1.376 . S
C4277 C4276 1.392 . S
C4277 H4289 0.929 . S
C4278 C4274 1.531 . S
C4278 H4290 0.960 . S
C4278 H4291 0.962 . S
C4278 H4292 0.960 . S
C4279 C4276 1.511 . S
C4279 H4293 0.961 . S
C4279 H4294 0.961 . S
C4279 H4295 0.961 . S
C4280 C4281 1.370 . S
C4280 C4282 1.363 . S
C4280 H4296 0.931 . S
C4281 C4280 1.370 . S
C4281 C4285 1.408 . S
C4282 C4280 1.363 . S
C4282 C4283 1.370 . S
C4282 C4286 1.524 . S
C4283 C4275 1.503 . S
C4283 C4282 1.370 . S
C4283 C4284 1.403 . S
C4284 C4283 1.403 . S
C4284 C4285 1.404 . S
C4284 C4287 1.539 . S
C4285 C4281 1.408 . S
C4285 C4284 1.404 . S
C4285 H4297 0.930 . S
C4286 C4282 1.524 . S
C4286 H4298 0.956 . S
C4286 H4299 0.961 . S
C4286 H4300 0.961 . S
C4287 C4284 1.539 . S
C4287 H4301 0.958 . S
C4287 H4302 0.961 . S
C4287 H4303 0.960 . S
H4288 C4272 0.931 . S
H4289 C4277 0.929 . S
H4290 C4278 0.960 . S
H4291 C4278 0.962 . S
H4292 C4278 0.960 . S
H4293 C4279 0.961 . S
H4294 C4279 0.961 . S
H4295 C4279 0.961 . S
H4296 C4280 0.931 . S
H4297 C4285 0.930 . S
H4298 C4286 0.956 . S
H4299 C4286 0.961 . S
H4300 C4286 0.961 . S
H4301 C4287 0.958 . S
H4302 C4287 0.961 . S
H4303 C4287 0.960 . S
C4304 C4305 1.391 . S
C4304 C4306 1.394 . S
C4304 H4320 0.931 . S
C4305 C4304 1.391 . S
C4305 C4309 1.376 . S
C4306 C4304 1.394 . S
C4306 C4307 1.369 . S
C4306 C4310 1.531 . S
C4307 C4306 1.369 . S
C4307 C4308 1.410 . S
C4307 C4315 1.503 . S
C4308 C4307 1.410 . S
C4308 C4309 1.392 . S
C4308 C4311 1.511 . S
C4309 C4305 1.376 . S
C4309 C4308 1.392 . S
C4309 H4321 0.929 . S
C4310 C4306 1.531 . S
C4310 H4322 0.960 . S
C4310 H4323 0.962 . S
C4310 H4324 0.960 . S
C4311 C4308 1.511 . S
C4311 H4325 0.961 . S
C4311 H4326 0.961 . S
C4311 H4327 0.961 . S
C4312 C4313 1.370 . S
C4312 C4314 1.363 . S
C4312 H4328 0.931 . S
C4313 C4312 1.370 . S
C4313 C4317 1.408 . S
C4314 C4312 1.363 . S
C4314 C4315 1.370 1_455 S
C4314 C4318 1.524 1_455 S
C4315 C4307 1.503 . S
C4315 C4314 1.370 1_655 S
C4315 C4316 1.403 1_655 S
C4316 C4315 1.403 1_455 S
C4316 C4317 1.404 . S
C4316 C4319 1.539 1_455 S
C4317 C4313 1.408 . S
C4317 C4316 1.404 . S
C4317 H4329 0.930 . S
C4318 C4314 1.524 1_655 S
C4318 H4330 0.956 . S
C4318 H4331 0.961 . S
C4318 H4332 0.935 1_655 S
C4319 C4316 1.539 1_655 S
C4319 H4333 0.958 . S
C4319 H4334 0.961 1_655 S
C4319 H4335 0.960 . S
H4320 C4304 0.931 . S
H4321 C4309 0.929 . S
H4322 C4310 0.960 . S
H4323 C4310 0.962 . S
H4324 C4310 0.960 . S
H4325 C4311 0.961 . S
H4326 C4311 0.961 . S
H4327 C4311 0.961 . S
H4328 C4312 0.931 . S
H4329 C4317 0.930 . S
H4330 C4318 0.956 . S
H4331 C4318 0.961 . S
H4332 C4318 0.935 1_455 S
H4333 C4319 0.958 . S
H4334 C4319 0.961 1_455 S
H4335 C4319 0.960 . S
C4336 C4337 1.391 . S
C4336 C4338 1.394 . S
C4336 H4352 0.931 . S
C4337 C4336 1.391 . S
C4337 C4341 1.376 . S
C4338 C4336 1.394 . S
C4338 C4339 1.369 . S
C4338 C4342 1.531 . S
C4339 C4338 1.369 . S
C4339 C4340 1.410 . S
C4339 C4347 1.503 . S
C4340 C4339 1.410 . S
C4340 C4341 1.392 . S
C4340 C4343 1.511 . S
C4341 C4337 1.376 . S
C4341 C4340 1.392 . S
C4341 H4353 0.929 . S
C4342 C4338 1.531 . S
C4342 H4354 0.960 . S
C4342 H4355 0.962 . S
C4342 H4356 0.960 . S
C4343 C4340 1.511 . S
C4343 H4357 0.961 . S
C4343 H4358 0.961 . S
C4343 H4359 0.961 . S
C4344 C4345 1.370 . S
C4344 C4346 1.373 . S
C4344 H4360 0.931 . S
C4345 C4344 1.370 . S
C4345 C4349 1.408 . S
C4346 C4344 1.373 . S
C4346 C4347 1.366 1_655 S
C4346 C4350 1.519 1_655 S
C4347 C4339 1.503 . S
C4347 C4346 1.366 1_455 S
C4347 C4348 1.399 1_455 S
C4348 C4347 1.399 1_655 S
C4348 C4349 1.410 . S
C4348 C4351 1.537 1_655 S
C4349 C4345 1.408 . S
C4349 C4348 1.410 . S
C4349 H4361 0.930 . S
C4350 C4346 1.519 1_455 S
C4350 H4362 0.956 . S
C4350 H4363 0.961 . S
C4350 H4364 0.961 . S
C4351 C4348 1.537 1_455 S
C4351 H4365 0.958 . S
C4351 H4366 0.961 . S
C4351 H4367 0.960 . S
H4352 C4336 0.931 . S
H4353 C4341 0.929 . S
H4354 C4342 0.960 . S
H4355 C4342 0.962 . S
H4356 C4342 0.960 . S
H4357 C4343 0.961 . S
H4358 C4343 0.961 . S
H4359 C4343 0.961 . S
H4360 C4344 0.931 . S
H4361 C4349 0.930 . S
H4362 C4350 0.956 . S
H4363 C4350 0.961 . S
H4364 C4350 0.961 . S
H4365 C4351 0.958 . S
H4366 C4351 0.961 . S
H4367 C4351 0.960 . S
C4368 C4369 1.391 . S
C4368 C4370 1.394 . S
C4368 H4384 0.931 . S
C4369 C4368 1.391 . S
C4369 C4373 1.376 . S
C4370 C4368 1.394 . S
C4370 C4371 1.369 . S
C4370 C4374 1.531 . S
C4371 C4370 1.369 . S
C4371 C4372 1.410 . S
C4371 C4379 1.529 . S
C4372 C4371 1.410 . S
C4372 C4373 1.392 . S
C4372 C4375 1.511 . S
C4373 C4369 1.376 . S
C4373 C4372 1.392 . S
C4373 H4385 0.929 . S
C4374 C4370 1.531 . S
C4374 H4386 0.960 . S
C4374 H4387 0.962 . S
C4374 H4388 0.960 . S
C4375 C4372 1.511 . S
C4375 H4389 0.961 . S
C4375 H4390 0.961 . S
C4375 H4391 0.961 . S
C4376 C4377 1.370 . S
C4376 C4378 1.363 . S
C4376 H4392 0.931 . S
C4377 C4376 1.370 . S
C4377 C4381 1.408 . S
C4378 C4376 1.363 . S
C4378 C4379 1.360 1_455 S
C4378 C4382 1.524 1_455 S
C4379 C4371 1.529 . S
C4379 C4378 1.360 1_655 S
C4379 C4380 1.388 1_655 S
C4380 C4379 1.388 1_455 S
C4380 C4381 1.404 . S
C4380 C4383 1.540 . S
C4381 C4377 1.408 . S
C4381 C4380 1.404 . S
C4381 H4393 0.930 . S
C4382 C4378 1.524 1_655 S
C4382 H4394 0.956 . S
C4382 H4395 0.961 . S
C4382 H4396 0.961 1_655 S
C4383 C4380 1.540 . S
C4383 H4397 0.958 1_455 S
C4383 H4398 0.963 . S
C4383 H4399 0.957 1_455 S
H4384 C4368 0.931 . S
H4385 C4373 0.929 . S
H4386 C4374 0.960 . S
H4387 C4374 0.962 . S
H4388 C4374 0.960 . S
H4389 C4375 0.961 . S
H4390 C4375 0.961 . S
H4391 C4375 0.961 . S
H4392 C4376 0.931 . S
H4393 C4381 0.930 . S
H4394 C4382 0.956 . S
H4395 C4382 0.961 . S
H4396 C4382 0.961 1_455 S
H4397 C4383 0.958 1_655 S
H4398 C4383 0.963 . S
H4399 C4383 0.957 1_655 S
C4400 C4401 1.391 . S
C4400 C4402 1.394 . S
C4400 H4416 0.931 . S
C4401 C4400 1.391 . S
C4401 C4405 1.376 . S
C4402 C4400 1.394 . S
C4402 C4403 1.369 . S
C4402 C4406 1.531 . S
C4403 C4402 1.369 . S
C4403 C4404 1.410 . S
C4403 C4411 1.503 . S
C4404 C4403 1.410 . S
C4404 C4405 1.392 . S
C4404 C4407 1.511 . S
C4405 C4401 1.376 . S
C4405 C4404 1.392 . S
C4405 H4417 0.929 . S
C4406 C4402 1.531 . S
C4406 H4418 0.960 . S
C4406 H4419 0.962 . S
C4406 H4420 0.960 . S
C4407 C4404 1.511 . S
C4407 H4421 0.961 . S
C4407 H4422 0.961 . S
C4407 H4423 0.961 . S
C4408 C4409 1.370 . S
C4408 C4410 1.363 . S
C4408 H4424 0.931 . S
C4409 C4408 1.370 . S
C4409 C4413 1.408 . S
C4410 C4408 1.363 . S
C4410 C4411 1.370 . S
C4410 C4414 1.524 . S
C4411 C4403 1.503 . S
C4411 C4410 1.370 . S
C4411 C4412 1.403 . S
C4412 C4411 1.403 . S
C4412 C4413 1.404 . S
C4412 C4415 1.539 . S
C4413 C4409 1.408 . S
C4413 C4412 1.404 . S
C4413 H4425 0.930 . S
C4414 C4410 1.524 . S
C4414 H4426 0.956 . S
C4414 H4427 0.961 . S
C4414 H4428 0.961 . S
C4415 C4412 1.539 . S
C4415 H4429 0.958 . S
C4415 H4430 0.961 . S
C4415 H4431 0.960 . S
H4416 C4400 0.931 . S
H4417 C4405 0.929 . S
H4418 C4406 0.960 . S
H4419 C4406 0.962 . S
H4420 C4406 0.960 . S
H4421 C4407 0.961 . S
H4422 C4407 0.961 . S
H4423 C4407 0.961 . S
H4424 C4408 0.931 . S
H4425 C4413 0.930 . S
H4426 C4414 0.956 . S
H4427 C4414 0.961 . S
H4428 C4414 0.961 . S
H4429 C4415 0.958 . S
H4430 C4415 0.961 . S
H4431 C4415 0.960 . S
C4432 C4433 1.391 . S
C4432 C4434 1.394 . S
C4432 H4448 0.931 . S
C4433 C4432 1.391 . S
C4433 C4437 1.376 . S
C4434 C4432 1.394 . S
C4434 C4435 1.369 . S
C4434 C4438 1.531 . S
C4435 C4434 1.369 . S
C4435 C4436 1.410 . S
C4435 C4443 1.503 1_455 S
C4436 C4435 1.410 . S
C4436 C4437 1.392 . S
C4436 C4439 1.511 . S
C4437 C4433 1.376 . S
C4437 C4436 1.392 . S
C4437 H4449 0.929 . S
C4438 C4434 1.531 . S
C4438 H4450 0.960 . S
C4438 H4451 0.962 . S
C4438 H4452 0.960 . S
C4439 C4436 1.511 . S
C4439 H4453 0.961 . S
C4439 H4454 0.961 . S
C4439 H4455 0.961 . S
C4440 C4441 1.370 . S
C4440 C4442 1.363 . S
C4440 H4456 0.931 . S
C4441 C4440 1.370 . S
C4441 C4445 1.408 . S
C4442 C4440 1.363 . S
C4442 C4443 1.370 . S
C4442 C4446 1.524 1_655 S
C4443 C4435 1.503 1_655 S
C4443 C4442 1.370 . S
C4443 C4444 1.403 . S
C4444 C4443 1.403 . S
C4444 C4445 1.404 . S
C4444 C4447 1.539 . S
C4445 C4441 1.408 . S
C4445 C4444 1.404 . S
C4445 H4457 0.930 . S
C4446 C4442 1.524 1_455 S
C4446 H4458 0.956 . S
C4446 H4459 0.961 . S
C4446 H4460 0.961 1_455 S
C4447 C4444 1.539 . S
C4447 H4461 0.958 . S
C4447 H4462 0.961 . S
C4447 H4463 0.960 1_655 S
H4448 C4432 0.931 . S
H4449 C4437 0.929 . S
H4450 C4438 0.960 . S
H4451 C4438 0.962 . S
H4452 C4438 0.960 . S
H4453 C4439 0.961 . S
H4454 C4439 0.961 . S
H4455 C4439 0.961 . S
H4456 C4440 0.931 . S
H4457 C4445 0.930 . S
H4458 C4446 0.956 . S
H4459 C4446 0.961 . S
H4460 C4446 0.961 1_655 S
H4461 C4447 0.958 . S
H4462 C4447 0.961 . S
H4463 C4447 0.960 1_455 S
C4464 C4465 1.391 . S
C4464 C4466 1.394 . S
C4464 H4480 0.931 . S
C4465 C4464 1.391 . S
C4465 C4469 1.376 . S
C4466 C4464 1.394 . S
C4466 C4467 1.369 . S
C4466 C4470 1.531 . S
C4467 C4466 1.369 . S
C4467 C4468 1.410 . S
C4467 C4475 1.503 . S
C4468 C4467 1.410 . S
C4468 C4469 1.392 . S
C4468 C4471 1.511 . S
C4469 C4465 1.376 . S
C4469 C4468 1.392 . S
C4469 H4481 0.929 . S
C4470 C4466 1.531 . S
C4470 H4482 0.960 . S
C4470 H4483 0.962 . S
C4470 H4484 0.960 . S
C4471 C4468 1.511 . S
C4471 H4485 0.961 . S
C4471 H4486 0.961 . S
C4471 H4487 0.961 . S
C4472 C4473 1.370 . S
C4472 C4474 1.363 . S
C4472 H4488 0.931 . S
C4473 C4472 1.370 . S
C4473 C4477 1.408 . S
C4474 C4472 1.363 . S
C4474 C4475 1.370 . S
C4474 C4478 1.524 . S
C4475 C4467 1.503 . S
C4475 C4474 1.370 . S
C4475 C4476 1.403 . S
C4476 C4475 1.403 . S
C4476 C4477 1.404 . S
C4476 C4479 1.539 . S
C4477 C4473 1.408 . S
C4477 C4476 1.404 . S
C4477 H4489 0.930 . S
C4478 C4474 1.524 . S
C4478 H4490 0.956 . S
C4478 H4491 0.961 . S
C4478 H4492 0.961 . S
C4479 C4476 1.539 . S
C4479 H4493 0.958 . S
C4479 H4494 0.961 . S
C4479 H4495 0.960 . S
H4480 C4464 0.931 . S
H4481 C4469 0.929 . S
H4482 C4470 0.960 . S
H4483 C4470 0.962 . S
H4484 C4470 0.960 . S
H4485 C4471 0.961 . S
H4486 C4471 0.961 . S
H4487 C4471 0.961 . S
H4488 C4472 0.931 . S
H4489 C4477 0.930 . S
H4490 C4478 0.956 . S
H4491 C4478 0.961 . S
H4492 C4478 0.961 . S
H4493 C4479 0.958 . S
H4494 C4479 0.961 . S
H4495 C4479 0.960 . S
C4496 C4497 1.391 . S
C4496 C4498 1.394 . S
C4496 H4512 0.931 . S
C4497 C4496 1.391 . S
C4497 C4501 1.376 . S
C4498 C4496 1.394 . S
C4498 C4499 1.369 1_655 S
C4498 C4502 1.531 1_655 S
C4499 C4498 1.369 1_455 S
C4499 C4500 1.410 1_455 S
C4499 C4507 1.503 . S
C4500 C4499 1.410 1_655 S
C4500 C4501 1.392 . S
C4500 C4503 1.509 1_655 S
C4501 C4497 1.376 . S
C4501 C4500 1.392 . S
C4501 H4513 0.929 . S
C4502 C4498 1.531 1_455 S
C4502 H4514 0.960 . S
C4502 H4515 0.962 . S
C4502 H4516 0.934 1_455 S
C4503 C4500 1.509 1_455 S
C4503 H4517 0.958 1_455 S
C4503 H4518 0.966 . S
C4503 H4519 0.961 . S
C4504 C4505 1.370 . S
C4504 C4506 1.363 . S
C4504 H4520 0.931 . S
C4505 C4504 1.370 . S
C4505 C4509 1.408 . S
C4506 C4504 1.363 . S
C4506 C4507 1.370 . S
C4506 C4510 1.524 . S
C4507 C4499 1.503 . S
C4507 C4506 1.370 . S
C4507 C4508 1.403 . S
C4508 C4507 1.403 . S
C4508 C4509 1.404 . S
C4508 C4511 1.539 . S
C4509 C4505 1.408 . S
C4509 C4508 1.404 . S
C4509 H4521 0.930 . S
C4510 C4506 1.524 . S
C4510 H4522 0.956 . S
C4510 H4523 0.961 . S
C4510 H4524 0.961 . S
C4511 C4508 1.539 . S
C4511 H4525 0.958 . S
C4511 H4526 0.961 . S
C4511 H4527 0.960 . S
H4512 C4496 0.931 . S
H4513 C4501 0.929 . S
H4514 C4502 0.960 . S
H4515 C4502 0.962 . S
H4516 C4502 0.934 1_655 S
H4517 C4503 0.958 1_655 S
H4518 C4503 0.966 . S
H4519 C4503 0.961 . S
H4520 C4504 0.931 . S
H4521 C4509 0.930 . S
H4522 C4510 0.956 . S
H4523 C4510 0.961 . S
H4524 C4510 0.961 . S
H4525 C4511 0.958 . S
H4526 C4511 0.961 . S
H4527 C4511 0.960 . S
C4528 C4529 1.391 . S
C4528 C4530 1.394 . S
C4528 H4544 0.931 . S
C4529 C4528 1.391 . S
C4529 C4533 1.376 . S
C4530 C4528 1.394 . S
C4530 C4531 1.369 . S
C4530 C4534 1.531 . S
C4531 C4530 1.369 . S
C4531 C4532 1.410 . S
C4531 C4539 1.503 . S
C4532 C4531 1.410 . S
C4532 C4533 1.392 . S
C4532 C4535 1.511 . S
C4533 C4529 1.376 . S
C4533 C4532 1.392 . S
C4533 H4545 0.929 . S
C4534 C4530 1.531 . S
C4534 H4546 0.960 . S
C4534 H4547 0.962 . S
C4534 H4548 0.960 . S
C4535 C4532 1.511 . S
C4535 H4549 0.961 . S
C4535 H4550 0.961 . S
C4535 H4551 0.961 . S
C4536 C4537 1.370 . S
C4536 C4538 1.363 . S
C4536 H4552 0.931 . S
C4537 C4536 1.370 . S
C4537 C4541 1.408 . S
C4538 C4536 1.363 . S
C4538 C4539 1.370 . S
C4538 C4542 1.524 . S
C4539 C4531 1.503 . S
C4539 C4538 1.370 . S
C4539 C4540 1.403 . S
C4540 C4539 1.403 . S
C4540 C4541 1.404 . S
C4540 C4543 1.539 . S
C4541 C4537 1.408 . S
C4541 C4540 1.404 . S
C4541 H4553 0.930 . S
C4542 C4538 1.524 . S
C4542 H4554 0.956 . S
C4542 H4555 0.961 . S
C4542 H4556 0.961 . S
C4543 C4540 1.539 . S
C4543 H4557 0.958 . S
C4543 H4558 0.961 . S
C4543 H4559 0.960 . S
H4544 C4528 0.931 . S
H4545 C4533 0.929 . S
H4546 C4534 0.960 . S
H4547 C4534 0.962 . S
H4548 C4534 0.960 . S
H4549 C4535 0.961 . S
H4550 C4535 0.961 . S
H4551 C4535 0.961 . S
H4552 C4536 0.931 . S
H4553 C4541 0.930 . S
H4554 C4542 0.956 . S
H4555 C4542 0.961 . S
H4556 C4542 0.961 . S
H4557 C4543 0.958 . S
H4558 C4543 0.961 . S
H4559 C4543 0.960 . S
C4560 C4561 1.391 . S
C4560 C4562 1.394 . S
C4560 H4576 0.931 . S
C4561 C4560 1.391 . S
C4561 C4565 1.376 . S
C4562 C4560 1.394 . S
C4562 C4563 1.369 . S
C4562 C4566 1.531 . S
C4563 C4562 1.369 . S
C4563 C4564 1.410 . S
C4563 C4571 1.503 1_655 S
C4564 C4563 1.410 . S
C4564 C4565 1.392 . S
C4564 C4567 1.511 . S
C4565 C4561 1.376 . S
C4565 C4564 1.392 . S
C4565 H4577 0.929 . S
C4566 C4562 1.531 . S
C4566 H4578 0.960 . S
C4566 H4579 0.962 . S
C4566 H4580 0.960 . S
C4567 C4564 1.511 . S
C4567 H4581 0.961 . S
C4567 H4582 0.961 . S
C4567 H4583 0.961 . S
C4568 C4569 1.370 . S
C4568 C4570 1.363 . S
C4568 H4584 0.931 . S
C4569 C4568 1.370 . S
C4569 C4573 1.408 . S
C4570 C4568 1.363 . S
C4570 C4571 1.370 . S
C4570 C4574 1.524 . S
C4571 C4563 1.503 1_455 S
C4571 C4570 1.370 . S
C4571 C4572 1.403 . S
C4572 C4571 1.403 . S
C4572 C4573 1.404 . S
C4572 C4575 1.539 . S
C4573 C4569 1.408 . S
C4573 C4572 1.404 . S
C4573 H4585 0.930 . S
C4574 C4570 1.524 . S
C4574 H4586 0.956 1_455 S
C4574 H4587 0.961 1_455 S
C4574 H4588 0.961 . S
C4575 C4572 1.539 . S
C4575 H4589 0.963 . S
C4575 H4590 0.961 . S
C4575 H4591 0.960 1_455 S
H4576 C4560 0.931 . S
H4577 C4565 0.929 . S
H4578 C4566 0.960 . S
H4579 C4566 0.962 . S
H4580 C4566 0.960 . S
H4581 C4567 0.961 . S
H4582 C4567 0.961 . S
H4583 C4567 0.961 . S
H4584 C4568 0.931 . S
H4585 C4573 0.930 . S
H4586 C4574 0.956 1_655 S
H4587 C4574 0.961 1_655 S
H4588 C4574 0.961 . S
H4589 C4575 0.963 . S
H4590 C4575 0.961 . S
H4591 C4575 0.960 1_655 S
C4592 C4593 1.391 . S
C4592 C4594 1.394 . S
C4592 H4608 0.931 . S
C4593 C4592 1.391 . S
C4593 C4597 1.376 . S
C4594 C4592 1.394 . S
C4594 C4595 1.369 . S
C4594 C4598 1.531 . S
C4595 C4594 1.369 . S
C4595 C4596 1.410 . S
C4595 C4603 1.503 . S
C4596 C4595 1.410 . S
C4596 C4597 1.392 . S
C4596 C4599 1.511 . S
C4597 C4593 1.376 . S
C4597 C4596 1.392 . S
C4597 H4609 0.929 . S
C4598 C4594 1.531 . S
C4598 H4610 0.960 . S
C4598 H4611 0.962 . S
C4598 H4612 0.960 . S
C4599 C4596 1.511 . S
C4599 H4613 0.961 . S
C4599 H4614 0.961 . S
C4599 H4615 0.961 . S
C4600 C4601 1.370 . S
C4600 C4602 1.363 . S
C4600 H4616 0.931 . S
C4601 C4600 1.370 . S
C4601 C4605 1.408 . S
C4602 C4600 1.363 . S
C4602 C4603 1.370 . S
C4602 C4606 1.524 . S
C4603 C4595 1.503 . S
C4603 C4602 1.370 . S
C4603 C4604 1.403 . S
C4604 C4603 1.403 . S
C4604 C4605 1.404 . S
C4604 C4607 1.539 . S
C4605 C4601 1.408 . S
C4605 C4604 1.404 . S
C4605 H4617 0.930 . S
C4606 C4602 1.524 . S
C4606 H4618 0.956 . S
C4606 H4619 0.961 . S
C4606 H4620 0.961 . S
C4607 C4604 1.539 . S
C4607 H4621 0.958 . S
C4607 H4622 0.961 . S
C4607 H4623 0.960 . S
H4608 C4592 0.931 . S
H4609 C4597 0.929 . S
H4610 C4598 0.960 . S
H4611 C4598 0.962 . S
H4612 C4598 0.960 . S
H4613 C4599 0.961 . S
H4614 C4599 0.961 . S
H4615 C4599 0.961 . S
H4616 C4600 0.931 . S
H4617 C4605 0.930 . S
H4618 C4606 0.956 . S
H4619 C4606 0.961 . S
H4620 C4606 0.961 . S
H4621 C4607 0.958 . S
H4622 C4607 0.961 . S
H4623 C4607 0.960 . S
C4624 C4625 1.391 . S
C4624 C4626 1.394 . S
C4624 H4640 0.931 . S
C4625 C4624 1.391 . S
C4625 C4629 1.376 . S
C4626 C4624 1.394 . S
C4626 C4627 1.369 . S
C4626 C4630 1.531 . S
C4627 C4626 1.369 . S
C4627 C4628 1.410 . S
C4627 C4635 1.503 1_545 S
C4628 C4627 1.410 . S
C4628 C4629 1.392 . S
C4628 C4631 1.511 . S
C4629 C4625 1.376 . S
C4629 C4628 1.392 . S
C4629 H4641 0.929 . S
C4630 C4626 1.531 . S
C4630 H4642 0.960 . S
C4630 H4643 0.962 . S
C4630 H4644 0.960 . S
C4631 C4628 1.511 . S
C4631 H4645 0.961 . S
C4631 H4646 0.961 . S
C4631 H4647 0.961 . S
C4632 C4633 1.370 . S
C4632 C4634 1.363 . S
C4632 H4648 0.931 . S
C4633 C4632 1.370 . S
C4633 C4637 1.408 . S
C4634 C4632 1.363 . S
C4634 C4635 1.370 . S
C4634 C4638 1.524 1_565 S
C4635 C4627 1.503 1_565 S
C4635 C4634 1.370 . S
C4635 C4636 1.403 . S
C4636 C4635 1.403 . S
C4636 C4637 1.404 . S
C4636 C4639 1.539 . S
C4637 C4633 1.408 . S
C4637 C4636 1.404 . S
C4637 H4649 0.930 . S
C4638 C4634 1.524 1_545 S
C4638 H4650 0.956 . S
C4638 H4651 0.961 . S
C4638 H4652 0.961 1_545 S
C4639 C4636 1.539 . S
C4639 H4653 0.965 . S
C4639 H4654 0.961 . S
C4639 H4655 0.960 1_565 S
H4640 C4624 0.931 . S
H4641 C4629 0.929 . S
H4642 C4630 0.960 . S
H4643 C4630 0.962 . S
H4644 C4630 0.960 . S
H4645 C4631 0.961 . S
H4646 C4631 0.961 . S
H4647 C4631 0.961 . S
H4648 C4632 0.931 . S
H4649 C4637 0.930 . S
H4650 C4638 0.956 . S
H4651 C4638 0.961 . S
H4652 C4638 0.961 1_565 S
H4653 C4639 0.965 . S
H4654 C4639 0.961 . S
H4655 C4639 0.960 1_545 S
C4656 C4657 1.391 . S
C4656 C4658 1.394 . S
C4656 H4672 0.931 . S
C4657 C4656 1.391 . S
C4657 C4661 1.376 . S
C4658 C4656 1.394 . S
C4658 C4659 1.369 . S
C4658 C4662 1.531 . S
C4659 C4658 1.369 . S
C4659 C4660 1.410 . S
C4659 C4667 1.503 . S
C4660 C4659 1.410 . S
C4660 C4661 1.392 . S
C4660 C4663 1.511 . S
C4661 C4657 1.376 . S
C4661 C4660 1.392 . S
C4661 H4673 0.929 . S
C4662 C4658 1.531 . S
C4662 H4674 0.960 . S
C4662 H4675 0.962 . S
C4662 H4676 0.960 . S
C4663 C4660 1.511 . S
C4663 H4677 0.961 . S
C4663 H4678 0.961 . S
C4663 H4679 0.961 . S
C4664 C4665 1.370 . S
C4664 C4666 1.363 . S
C4664 H4680 0.931 . S
C4665 C4664 1.370 . S
C4665 C4669 1.408 . S
C4666 C4664 1.363 . S
C4666 C4667 1.370 . S
C4666 C4670 1.524 . S
C4667 C4659 1.503 . S
C4667 C4666 1.370 . S
C4667 C4668 1.403 . S
C4668 C4667 1.403 . S
C4668 C4669 1.404 . S
C4668 C4671 1.539 . S
C4669 C4665 1.408 . S
C4669 C4668 1.404 . S
C4669 H4681 0.930 . S
C4670 C4666 1.524 . S
C4670 H4682 0.956 . S
C4670 H4683 0.961 . S
C4670 H4684 0.961 . S
C4671 C4668 1.539 . S
C4671 H4685 0.958 . S
C4671 H4686 0.961 . S
C4671 H4687 0.960 . S
H4672 C4656 0.931 . S
H4673 C4661 0.929 . S
H4674 C4662 0.960 . S
H4675 C4662 0.962 . S
H4676 C4662 0.960 . S
H4677 C4663 0.961 . S
H4678 C4663 0.961 . S
H4679 C4663 0.961 . S
H4680 C4664 0.931 . S
H4681 C4669 0.930 . S
H4682 C4670 0.956 . S
H4683 C4670 0.961 . S
H4684 C4670 0.961 . S
H4685 C4671 0.958 . S
H4686 C4671 0.961 . S
H4687 C4671 0.960 . S
C4688 C4689 1.391 . S
C4688 C4690 1.394 . S
C4688 H4704 0.931 . S
C4689 C4688 1.391 . S
C4689 C4693 1.376 . S
C4690 C4688 1.394 . S
C4690 C4691 1.374 . S
C4690 C4694 1.531 . S
C4691 C4690 1.374 . S
C4691 C4692 1.414 . S
C4691 C4699 1.493 1_545 S
C4692 C4691 1.414 . S
C4692 C4693 1.392 . S
C4692 C4695 1.511 1_545 S
C4693 C4689 1.376 . S
C4693 C4692 1.392 . S
C4693 H4705 0.929 . S
C4694 C4690 1.531 . S
C4694 H4706 0.960 1_545 S
C4694 H4707 0.962 1_545 S
C4694 H4708 0.960 . S
C4695 C4692 1.511 1_565 S
C4695 H4709 0.961 1_565 S
C4695 H4710 0.961 . S
C4695 H4711 0.961 . S
C4696 C4697 1.370 . S
C4696 C4698 1.363 . S
C4696 H4712 0.931 . S
C4697 C4696 1.370 . S
C4697 C4701 1.408 . S
C4698 C4696 1.363 . S
C4698 C4699 1.370 . S
C4698 C4702 1.524 . S
C4699 C4691 1.493 1_565 S
C4699 C4698 1.370 . S
C4699 C4700 1.403 . S
C4700 C4699 1.403 . S
C4700 C4701 1.404 . S
C4700 C4703 1.539 . S
C4701 C4697 1.408 . S
C4701 C4700 1.404 . S
C4701 H4713 0.930 . S
C4702 C4698 1.524 . S
C4702 H4714 0.956 . S
C4702 H4715 0.961 . S
C4702 H4716 0.961 . S
C4703 C4700 1.539 . S
C4703 H4717 0.958 . S
C4703 H4718 0.961 . S
C4703 H4719 0.960 . S
H4704 C4688 0.931 . S
H4705 C4693 0.929 . S
H4706 C4694 0.960 1_565 S
H4707 C4694 0.962 1_565 S
H4708 C4694 0.960 . S
H4709 C4695 0.961 1_545 S
H4710 C4695 0.961 . S
H4711 C4695 0.961 . S
H4712 C4696 0.931 . S
H4713 C4701 0.930 . S
H4714 C4702 0.956 . S
H4715 C4702 0.961 . S
H4716 C4702 0.961 . S
H4717 C4703 0.958 . S
H4718 C4703 0.961 . S
H4719 C4703 0.960 . S
C4720 C4721 1.391 . S
C4720 C4722 1.394 . S
C4720 H4736 0.931 . S
C4721 C4720 1.391 . S
C4721 C4725 1.376 . S
C4722 C4720 1.394 . S
C4722 C4723 1.369 . S
C4722 C4726 1.531 . S
C4723 C4722 1.369 . S
C4723 C4724 1.410 . S
C4723 C4731 1.503 . S
C4724 C4723 1.410 . S
C4724 C4725 1.392 . S
C4724 C4727 1.511 . S
C4725 C4721 1.376 . S
C4725 C4724 1.392 . S
C4725 H4737 0.929 . S
C4726 C4722 1.531 . S
C4726 H4738 0.960 . S
C4726 H4739 0.962 . S
C4726 H4740 0.960 . S
C4727 C4724 1.511 . S
C4727 H4741 0.961 . S
C4727 H4742 0.961 . S
C4727 H4743 0.961 . S
C4728 C4729 1.370 . S
C4728 C4730 1.363 . S
C4728 H4744 0.931 . S
C4729 C4728 1.370 . S
C4729 C4733 1.408 . S
C4730 C4728 1.363 . S
C4730 C4731 1.370 . S
C4730 C4734 1.524 . S
C4731 C4723 1.503 . S
C4731 C4730 1.370 . S
C4731 C4732 1.403 . S
C4732 C4731 1.403 . S
C4732 C4733 1.404 . S
C4732 C4735 1.539 . S
C4733 C4729 1.408 . S
C4733 C4732 1.404 . S
C4733 H4745 0.930 . S
C4734 C4730 1.524 . S
C4734 H4746 0.956 . S
C4734 H4747 0.961 . S
C4734 H4748 0.961 . S
C4735 C4732 1.539 . S
C4735 H4749 0.958 . S
C4735 H4750 0.961 . S
C4735 H4751 0.960 . S
H4736 C4720 0.931 . S
H4737 C4725 0.929 . S
H4738 C4726 0.960 . S
H4739 C4726 0.962 . S
H4740 C4726 0.960 . S
H4741 C4727 0.961 . S
H4742 C4727 0.961 . S
H4743 C4727 0.961 . S
H4744 C4728 0.931 . S
H4745 C4733 0.930 . S
H4746 C4734 0.956 . S
H4747 C4734 0.961 . S
H4748 C4734 0.961 . S
H4749 C4735 0.958 . S
H4750 C4735 0.961 . S
H4751 C4735 0.960 . S
C4752 C4753 1.391 . S
C4752 C4754 1.394 . S
C4752 H4768 0.931 . S
C4753 C4752 1.391 . S
C4753 C4757 1.376 . S
C4754 C4752 1.394 . S
C4754 C4755 1.369 . S
C4754 C4758 1.531 . S
C4755 C4754 1.369 . S
C4755 C4756 1.410 . S
C4755 C4763 1.503 1_545 S
C4756 C4755 1.410 . S
C4756 C4757 1.392 . S
C4756 C4759 1.511 . S
C4757 C4753 1.376 . S
C4757 C4756 1.392 . S
C4757 H4769 0.929 . S
C4758 C4754 1.531 . S
C4758 H4770 0.960 . S
C4758 H4771 0.962 . S
C4758 H4772 0.960 . S
C4759 C4756 1.511 . S
C4759 H4773 0.961 . S
C4759 H4774 0.961 . S
C4759 H4775 0.961 . S
C4760 C4761 1.370 . S
C4760 C4762 1.363 . S
C4760 H4776 0.931 . S
C4761 C4760 1.370 . S
C4761 C4765 1.408 . S
C4762 C4760 1.363 . S
C4762 C4763 1.370 . S
C4762 C4766 1.524 . S
C4763 C4755 1.503 1_565 S
C4763 C4762 1.370 . S
C4763 C4764 1.403 . S
C4764 C4763 1.403 . S
C4764 C4765 1.404 . S
C4764 C4767 1.539 . S
C4765 C4761 1.408 . S
C4765 C4764 1.404 . S
C4765 H4777 0.930 . S
C4766 C4762 1.524 . S
C4766 H4778 0.956 1_565 S
C4766 H4779 0.961 1_565 S
C4766 H4780 0.961 . S
C4767 C4764 1.539 . S
C4767 H4781 0.956 1_565 S
C4767 H4782 0.961 . S
C4767 H4783 0.960 1_565 S
H4768 C4752 0.931 . S
H4769 C4757 0.929 . S
H4770 C4758 0.960 . S
H4771 C4758 0.962 . S
H4772 C4758 0.960 . S
H4773 C4759 0.961 . S
H4774 C4759 0.961 . S
H4775 C4759 0.961 . S
H4776 C4760 0.931 . S
H4777 C4765 0.930 . S
H4778 C4766 0.956 1_545 S
H4779 C4766 0.961 1_545 S
H4780 C4766 0.961 . S
H4781 C4767 0.956 1_545 S
H4782 C4767 0.961 . S
H4783 C4767 0.960 1_545 S
C4784 C4785 1.391 . S
C4784 C4786 1.394 . S
C4784 H4800 0.931 . S
C4785 C4784 1.391 . S
C4785 C4789 1.376 . S
C4786 C4784 1.394 . S
C4786 C4787 1.369 . S
C4786 C4790 1.531 . S
C4787 C4786 1.369 . S
C4787 C4788 1.410 . S
C4787 C4795 1.503 . S
C4788 C4787 1.410 . S
C4788 C4789 1.392 . S
C4788 C4791 1.511 . S
C4789 C4785 1.376 . S
C4789 C4788 1.392 . S
C4789 H4801 0.929 . S
C4790 C4786 1.531 . S
C4790 H4802 0.960 . S
C4790 H4803 0.962 . S
C4790 H4804 0.960 . S
C4791 C4788 1.511 . S
C4791 H4805 0.961 . S
C4791 H4806 0.961 . S
C4791 H4807 0.961 . S
C4792 C4793 1.370 . S
C4792 C4794 1.363 . S
C4792 H4808 0.931 . S
C4793 C4792 1.370 . S
C4793 C4797 1.408 . S
C4794 C4792 1.363 . S
C4794 C4795 1.370 . S
C4794 C4798 1.524 . S
C4795 C4787 1.503 . S
C4795 C4794 1.370 . S
C4795 C4796 1.403 . S
C4796 C4795 1.403 . S
C4796 C4797 1.404 . S
C4796 C4799 1.539 . S
C4797 C4793 1.408 . S
C4797 C4796 1.404 . S
C4797 H4809 0.930 . S
C4798 C4794 1.524 . S
C4798 H4810 0.956 . S
C4798 H4811 0.961 . S
C4798 H4812 0.961 . S
C4799 C4796 1.539 . S
C4799 H4813 0.958 . S
C4799 H4814 0.961 . S
C4799 H4815 0.960 . S
H4800 C4784 0.931 . S
H4801 C4789 0.929 . S
H4802 C4790 0.960 . S
H4803 C4790 0.962 . S
H4804 C4790 0.960 . S
H4805 C4791 0.961 . S
H4806 C4791 0.961 . S
H4807 C4791 0.961 . S
H4808 C4792 0.931 . S
H4809 C4797 0.930 . S
H4810 C4798 0.956 . S
H4811 C4798 0.961 . S
H4812 C4798 0.961 . S
H4813 C4799 0.958 . S
H4814 C4799 0.961 . S
H4815 C4799 0.960 . S
C4816 C4817 1.391 . S
C4816 C4818 1.394 . S
C4816 H4832 0.931 . S
C4817 C4816 1.391 . S
C4817 C4821 1.376 . S
C4818 C4816 1.394 . S
C4818 C4819 1.369 . S
C4818 C4822 1.531 . S
C4819 C4818 1.369 . S
C4819 C4820 1.410 . S
C4819 C4827 1.503 1_545 S
C4820 C4819 1.410 . S
C4820 C4821 1.392 . S
C4820 C4823 1.543 . S
C4821 C4817 1.376 . S
C4821 C4820 1.392 . S
C4821 H4833 0.929 . S
C4822 C4818 1.531 . S
C4822 H4834 0.960 1_545 S
C4822 H4835 0.962 . S
C4822 H4836 0.960 . S
C4823 C4820 1.543 . S
C4823 H4837 0.990 . S
C4823 H4838 0.915 1_545 S
C4823 H4839 0.949 1_545 S
C4824 C4825 1.370 . S
C4824 C4826 1.363 . S
C4824 H4840 0.931 . S
C4825 C4824 1.370 . S
C4825 C4829 1.408 . S
C4826 C4824 1.363 . S
C4826 C4827 1.370 . S
C4826 C4830 1.524 . S
C4827 C4819 1.503 1_565 S
C4827 C4826 1.370 . S
C4827 C4828 1.403 . S
C4828 C4827 1.403 . S
C4828 C4829 1.404 . S
C4828 C4831 1.539 . S
C4829 C4825 1.408 . S
C4829 C4828 1.404 . S
C4829 H4841 0.930 . S
C4830 C4826 1.524 . S
C4830 H4842 0.956 . S
C4830 H4843 0.961 . S
C4830 H4844 0.961 . S
C4831 C4828 1.539 . S
C4831 H4845 0.958 . S
C4831 H4846 0.961 . S
C4831 H4847 0.960 . S
H4832 C4816 0.931 . S
H4833 C4821 0.929 . S
H4834 C4822 0.960 1_565 S
H4835 C4822 0.962 . S
H4836 C4822 0.960 . S
H4837 C4823 0.990 . S
H4838 C4823 0.915 1_565 S
H4839 C4823 0.949 1_565 S
H4840 C4824 0.931 . S
H4841 C4829 0.930 . S
H4842 C4830 0.956 . S
H4843 C4830 0.961 . S
H4844 C4830 0.961 . S
H4845 C4831 0.958 . S
H4846 C4831 0.961 . S
H4847 C4831 0.960 . S
C4848 C4849 1.391 . S
C4848 C4850 1.394 . S
C4848 H4864 0.931 . S
C4849 C4848 1.391 . S
C4849 C4853 1.376 . S
C4850 C4848 1.394 . S
C4850 C4851 1.369 . S
C4850 C4854 1.531 . S
C4851 C4850 1.369 . S
C4851 C4852 1.410 . S
C4851 C4859 1.503 . S
C4852 C4851 1.410 . S
C4852 C4853 1.392 . S
C4852 C4855 1.511 . S
C4853 C4849 1.376 . S
C4853 C4852 1.392 . S
C4853 H4865 0.929 . S
C4854 C4850 1.531 . S
C4854 H4866 0.960 . S
C4854 H4867 0.962 . S
C4854 H4868 0.960 . S
C4855 C4852 1.511 . S
C4855 H4869 0.961 . S
C4855 H4870 0.961 . S
C4855 H4871 0.961 . S
C4856 C4857 1.370 . S
C4856 C4858 1.363 . S
C4856 H4872 0.931 . S
C4857 C4856 1.370 . S
C4857 C4861 1.408 . S
C4858 C4856 1.363 . S
C4858 C4859 1.370 . S
C4858 C4862 1.524 . S
C4859 C4851 1.503 . S
C4859 C4858 1.370 . S
C4859 C4860 1.403 . S
C4860 C4859 1.403 . S
C4860 C4861 1.404 . S
C4860 C4863 1.539 . S
C4861 C4857 1.408 . S
C4861 C4860 1.404 . S
C4861 H4873 0.930 . S
C4862 C4858 1.524 . S
C4862 H4874 0.956 . S
C4862 H4875 0.961 . S
C4862 H4876 0.961 . S
C4863 C4860 1.539 . S
C4863 H4877 0.958 . S
C4863 H4878 0.961 . S
C4863 H4879 0.960 . S
H4864 C4848 0.931 . S
H4865 C4853 0.929 . S
H4866 C4854 0.960 . S
H4867 C4854 0.962 . S
H4868 C4854 0.960 . S
H4869 C4855 0.961 . S
H4870 C4855 0.961 . S
H4871 C4855 0.961 . S
H4872 C4856 0.931 . S
H4873 C4861 0.930 . S
H4874 C4862 0.956 . S
H4875 C4862 0.961 . S
H4876 C4862 0.961 . S
H4877 C4863 0.958 . S
H4878 C4863 0.961 . S
H4879 C4863 0.960 . S
C4880 C4881 1.391 . S
C4880 C4882 1.394 . S
C4880 H4896 0.931 . S
C4881 C4880 1.391 . S
C4881 C4885 1.376 . S
C4882 C4880 1.394 . S
C4882 C4883 1.369 . S
C4882 C4886 1.531 . S
C4883 C4882 1.369 . S
C4883 C4884 1.410 . S
C4883 C4891 1.503 1_556 S
C4884 C4883 1.410 . S
C4884 C4885 1.392 . S
C4884 C4887 1.511 . S
C4885 C4881 1.376 . S
C4885 C4884 1.392 . S
C4885 H4897 0.929 . S
C4886 C4882 1.531 . S
C4886 H4898 0.960 . S
C4886 H4899 0.962 . S
C4886 H4900 0.960 . S
C4887 C4884 1.511 . S
C4887 H4901 0.961 . S
C4887 H4902 0.961 . S
C4887 H4903 0.961 . S
C4888 C4889 1.370 . S
C4888 C4890 1.363 . S
C4888 H4904 0.931 . S
C4889 C4888 1.370 . S
C4889 C4893 1.408 . S
C4890 C4888 1.363 . S
C4890 C4891 1.370 . S
C4890 C4894 1.524 . S
C4891 C4883 1.503 1_554 S
C4891 C4890 1.370 . S
C4891 C4892 1.403 . S
C4892 C4891 1.403 . S
C4892 C4893 1.404 . S
C4892 C4895 1.539 . S
C4893 C4889 1.408 . S
C4893 C4892 1.404 . S
C4893 H4905 0.930 . S
C4894 C4890 1.524 . S
C4894 H4906 0.956 1_554 S
C4894 H4907 0.961 1_554 S
C4894 H4908 0.961 . S
C4895 C4892 1.539 . S
C4895 H4909 0.958 . S
C4895 H4910 0.961 . S
C4895 H4911 0.960 1_554 S
H4896 C4880 0.931 . S
H4897 C4885 0.929 . S
H4898 C4886 0.960 . S
H4899 C4886 0.962 . S
H4900 C4886 0.960 . S
H4901 C4887 0.961 . S
H4902 C4887 0.961 . S
H4903 C4887 0.961 . S
H4904 C4888 0.931 . S
H4905 C4893 0.930 . S
H4906 C4894 0.956 1_556 S
H4907 C4894 0.961 1_556 S
H4908 C4894 0.961 . S
H4909 C4895 0.958 . S
H4910 C4895 0.961 . S
H4911 C4895 0.960 1_556 S
C4912 C4913 1.391 . S
C4912 C4914 1.394 . S
C4912 H4928 0.931 . S
C4913 C4912 1.391 . S
C4913 C4917 1.376 . S
C4914 C4912 1.394 . S
C4914 C4915 1.369 . S
C4914 C4918 1.531 . S
C4915 C4914 1.369 . S
C4915 C4916 1.410 . S
C4915 C4923 1.503 1_556 S
C4916 C4915 1.410 . S
C4916 C4917 1.392 . S
C4916 C4919 1.511 . S
C4917 C4913 1.376 . S
C4917 C4916 1.392 . S
C4917 H4929 0.929 . S
C4918 C4914 1.531 . S
C4918 H4930 0.960 . S
C4918 H4931 0.962 . S
C4918 H4932 0.960 . S
C4919 C4916 1.511 . S
C4919 H4933 0.961 . S
C4919 H4934 0.961 . S
C4919 H4935 0.961 . S
C4920 C4921 1.370 . S
C4920 C4922 1.363 . S
C4920 H4936 0.931 . S
C4921 C4920 1.370 . S
C4921 C4925 1.408 . S
C4922 C4920 1.363 . S
C4922 C4923 1.370 . S
C4922 C4926 1.524 . S
C4923 C4915 1.503 1_554 S
C4923 C4922 1.370 . S
C4923 C4924 1.403 . S
C4924 C4923 1.403 . S
C4924 C4925 1.404 . S
C4924 C4927 1.539 . S
C4925 C4921 1.408 . S
C4925 C4924 1.404 . S
C4925 H4937 0.930 . S
C4926 C4922 1.524 . S
C4926 H4938 0.956 1_554 S
C4926 H4939 0.961 1_554 S
C4926 H4940 0.961 . S
C4927 C4924 1.539 . S
C4927 H4941 0.957 . S
C4927 H4942 0.961 . S
C4927 H4943 0.960 1_554 S
H4928 C4912 0.931 . S
H4929 C4917 0.929 . S
H4930 C4918 0.960 . S
H4931 C4918 0.962 . S
H4932 C4918 0.960 . S
H4933 C4919 0.961 . S
H4934 C4919 0.961 . S
H4935 C4919 0.961 . S
H4936 C4920 0.931 . S
H4937 C4925 0.930 . S
H4938 C4926 0.956 1_556 S
H4939 C4926 0.961 1_556 S
H4940 C4926 0.961 . S
H4941 C4927 0.957 . S
H4942 C4927 0.961 . S
H4943 C4927 0.960 1_556 S
C4944 C4945 1.391 . S
C4944 C4946 1.394 . S
C4944 H4960 0.931 . S
C4945 C4944 1.391 . S
C4945 C4949 1.376 . S
C4946 C4944 1.394 . S
C4946 C4947 1.369 . S
C4946 C4950 1.531 . S
C4947 C4946 1.369 . S
C4947 C4948 1.410 . S
C4947 C4955 1.503 . S
C4948 C4947 1.410 . S
C4948 C4949 1.392 . S
C4948 C4951 1.511 . S
C4949 C4945 1.376 . S
C4949 C4948 1.392 . S
C4949 H4961 0.929 . S
C4950 C4946 1.531 . S
C4950 H4962 0.960 . S
C4950 H4963 0.962 . S
C4950 H4964 0.960 . S
C4951 C4948 1.511 . S
C4951 H4965 0.961 . S
C4951 H4966 0.961 . S
C4951 H4967 0.961 . S
C4952 C4953 1.370 . S
C4952 C4954 1.363 . S
C4952 H4968 0.931 . S
C4953 C4952 1.370 . S
C4953 C4957 1.408 . S
C4954 C4952 1.363 . S
C4954 C4955 1.370 . S
C4954 C4958 1.524 . S
C4955 C4947 1.503 . S
C4955 C4954 1.370 . S
C4955 C4956 1.403 . S
C4956 C4955 1.403 . S
C4956 C4957 1.404 . S
C4956 C4959 1.539 . S
C4957 C4953 1.408 . S
C4957 C4956 1.404 . S
C4957 H4969 0.930 . S
C4958 C4954 1.524 . S
C4958 H4970 0.956 . S
C4958 H4971 0.961 . S
C4958 H4972 0.961 . S
C4959 C4956 1.539 . S
C4959 H4973 0.958 . S
C4959 H4974 0.961 . S
C4959 H4975 0.960 . S
H4960 C4944 0.931 . S
H4961 C4949 0.929 . S
H4962 C4950 0.960 . S
H4963 C4950 0.962 . S
H4964 C4950 0.960 . S
H4965 C4951 0.961 . S
H4966 C4951 0.961 . S
H4967 C4951 0.961 . S
H4968 C4952 0.931 . S
H4969 C4957 0.930 . S
H4970 C4958 0.956 . S
H4971 C4958 0.961 . S
H4972 C4958 0.961 . S
H4973 C4959 0.958 . S
H4974 C4959 0.961 . S
H4975 C4959 0.960 . S
C4976 C4977 1.391 . S
C4976 C4978 1.394 . S
C4976 H4992 0.931 . S
C4977 C4976 1.391 . S
C4977 C4981 1.376 . S
C4978 C4976 1.394 . S
C4978 C4979 1.369 1_556 S
C4978 C4982 1.531 1_556 S
C4979 C4978 1.369 1_554 S
C4979 C4980 1.386 1_554 S
C4979 C4987 1.503 . S
C4980 C4979 1.386 1_556 S
C4980 C4981 1.444 . S
C4980 C4983 1.486 1_556 S
C4981 C4977 1.376 . S
C4981 C4980 1.444 . S
C4981 H4993 0.929 . S
C4982 C4978 1.531 1_554 S
C4982 H4994 0.960 . S
C4982 H4995 0.962 . S
C4982 H4996 0.937 1_554 S
C4983 C4980 1.486 1_554 S
C4983 H4997 0.961 . S
C4983 H4998 0.961 . S
C4983 H4999 0.961 . S
C4984 C4985 1.370 . S
C4984 C4986 1.363 . S
C4984 H5000 0.931 . S
C4985 C4984 1.370 . S
C4985 C4989 1.408 . S
C4986 C4984 1.363 . S
C4986 C4987 1.370 . S
C4986 C4990 1.524 . S
C4987 C4979 1.503 . S
C4987 C4986 1.370 . S
C4987 C4988 1.403 . S
C4988 C4987 1.403 . S
C4988 C4989 1.404 . S
C4988 C4991 1.539 . S
C4989 C4985 1.408 . S
C4989 C4988 1.404 . S
C4989 H5001 0.930 . S
C4990 C4986 1.524 . S
C4990 H5002 0.956 . S
C4990 H5003 0.961 . S
C4990 H5004 0.961 . S
C4991 C4988 1.539 . S
C4991 H5005 0.958 . S
C4991 H5006 0.961 . S
C4991 H5007 0.960 . S
H4992 C4976 0.931 . S
H4993 C4981 0.929 . S
H4994 C4982 0.960 . S
H4995 C4982 0.962 . S
H4996 C4982 0.937 1_556 S
H4997 C4983 0.961 . S
H4998 C4983 0.961 . S
H4999 C4983 0.961 . S
H5000 C4984 0.931 . S
H5001 C4989 0.930 . S
H5002 C4990 0.956 . S
H5003 C4990 0.961 . S
H5004 C4990 0.961 . S
H5005 C4991 0.958 . S
H5006 C4991 0.961 . S
H5007 C4991 0.960 . S
C5008 C5009 1.391 . S
C5008 C5010 1.394 . S
C5008 H5024 0.931 . S
C5009 C5008 1.391 . S
C5009 C5013 1.376 . S
C5010 C5008 1.394 . S
C5010 C5011 1.369 . S
C5010 C5014 1.531 . S
C5011 C5010 1.369 . S
C5011 C5012 1.410 . S
C5011 C5019 1.503 . S
C5012 C5011 1.410 . S
C5012 C5013 1.392 . S
C5012 C5015 1.511 . S
C5013 C5009 1.376 . S
C5013 C5012 1.392 . S
C5013 H5025 0.929 . S
C5014 C5010 1.531 . S
C5014 H5026 0.960 . S
C5014 H5027 0.962 . S
C5014 H5028 0.960 . S
C5015 C5012 1.511 . S
C5015 H5029 0.961 . S
C5015 H5030 0.961 . S
C5015 H5031 0.961 . S
C5016 C5017 1.370 . S
C5016 C5018 1.363 . S
C5016 H5032 0.931 . S
C5017 C5016 1.370 . S
C5017 C5021 1.408 . S
C5018 C5016 1.363 . S
C5018 C5019 1.370 . S
C5018 C5022 1.524 . S
C5019 C5011 1.503 . S
C5019 C5018 1.370 . S
C5019 C5020 1.403 . S
C5020 C5019 1.403 . S
C5020 C5021 1.404 . S
C5020 C5023 1.539 . S
C5021 C5017 1.408 . S
C5021 C5020 1.404 . S
C5021 H5033 0.930 . S
C5022 C5018 1.524 . S
C5022 H5034 0.956 . S
C5022 H5035 0.961 . S
C5022 H5036 0.961 . S
C5023 C5020 1.539 . S
C5023 H5037 0.958 . S
C5023 H5038 0.961 . S
C5023 H5039 0.960 . S
H5024 C5008 0.931 . S
H5025 C5013 0.929 . S
H5026 C5014 0.960 . S
H5027 C5014 0.962 . S
H5028 C5014 0.960 . S
H5029 C5015 0.961 . S
H5030 C5015 0.961 . S
H5031 C5015 0.961 . S
H5032 C5016 0.931 . S
H5033 C5021 0.930 . S
H5034 C5022 0.956 . S
H5035 C5022 0.961 . S
H5036 C5022 0.961 . S
H5037 C5023 0.958 . S
H5038 C5023 0.961 . S
H5039 C5023 0.960 . S
C5040 C5041 1.391 . S
C5040 C5042 1.394 . S
C5040 H5056 0.931 . S
C5041 C5040 1.391 . S
C5041 C5045 1.376 . S
C5042 C5040 1.394 . S
C5042 C5043 1.369 . S
C5042 C5046 1.531 . S
C5043 C5042 1.369 . S
C5043 C5044 1.410 . S
C5043 C5051 1.503 1_556 S
C5044 C5043 1.410 . S
C5044 C5045 1.392 . S
C5044 C5047 1.511 . S
C5045 C5041 1.376 . S
C5045 C5044 1.392 . S
C5045 H5057 0.929 . S
C5046 C5042 1.531 . S
C5046 H5058 0.960 1_556 S
C5046 H5059 0.962 1_556 S
C5046 H5060 0.960 . S
C5047 C5044 1.511 . S
C5047 H5061 0.961 . S
C5047 H5062 0.961 1_556 S
C5047 H5063 0.961 . S
C5048 C5049 1.370 . S
C5048 C5050 1.363 . S
C5048 H5064 0.931 . S
C5049 C5048 1.370 . S
C5049 C5053 1.408 . S
C5050 C5048 1.363 . S
C5050 C5051 1.370 . S
C5050 C5054 1.524 . S
C5051 C5043 1.503 1_554 S
C5051 C5050 1.370 . S
C5051 C5052 1.403 . S
C5052 C5051 1.403 . S
C5052 C5053 1.404 . S
C5052 C5055 1.539 . S
C5053 C5049 1.408 . S
C5053 C5052 1.404 . S
C5053 H5065 0.930 . S
C5054 C5050 1.524 . S
C5054 H5066 0.956 . S
C5054 H5067 0.961 . S
C5054 H5068 0.961 . S
C5055 C5052 1.539 . S
C5055 H5069 0.958 . S
C5055 H5070 0.961 . S
C5055 H5071 0.960 . S
H5056 C5040 0.931 . S
H5057 C5045 0.929 . S
H5058 C5046 0.960 1_554 S
H5059 C5046 0.962 1_554 S
H5060 C5046 0.960 . S
H5061 C5047 0.961 . S
H5062 C5047 0.961 1_554 S
H5063 C5047 0.961 . S
H5064 C5048 0.931 . S
H5065 C5053 0.930 . S
H5066 C5054 0.956 . S
H5067 C5054 0.961 . S
H5068 C5054 0.961 . S
H5069 C5055 0.958 . S
H5070 C5055 0.961 . S
H5071 C5055 0.960 . S
C5072 C5073 1.391 . S
C5072 C5074 1.394 . S
C5072 H5088 0.931 . S
C5073 C5072 1.391 . S
C5073 C5077 1.376 . S
C5074 C5072 1.394 . S
C5074 C5075 1.369 . S
C5074 C5078 1.531 . S
C5075 C5074 1.369 . S
C5075 C5076 1.410 . S
C5075 C5083 1.503 . S
C5076 C5075 1.410 . S
C5076 C5077 1.392 . S
C5076 C5079 1.511 . S
C5077 C5073 1.376 . S
C5077 C5076 1.392 . S
C5077 H5089 0.929 . S
C5078 C5074 1.531 . S
C5078 H5090 0.960 . S
C5078 H5091 0.962 . S
C5078 H5092 0.960 . S
C5079 C5076 1.511 . S
C5079 H5093 0.961 . S
C5079 H5094 0.961 . S
C5079 H5095 0.961 . S
C5080 C5081 1.370 . S
C5080 C5082 1.363 . S
C5080 H5096 0.931 . S
C5081 C5080 1.370 . S
C5081 C5085 1.408 . S
C5082 C5080 1.363 . S
C5082 C5083 1.370 . S
C5082 C5086 1.524 . S
C5083 C5075 1.503 . S
C5083 C5082 1.370 . S
C5083 C5084 1.403 . S
C5084 C5083 1.403 . S
C5084 C5085 1.404 . S
C5084 C5087 1.539 . S
C5085 C5081 1.408 . S
C5085 C5084 1.404 . S
C5085 H5097 0.930 . S
C5086 C5082 1.524 . S
C5086 H5098 0.956 . S
C5086 H5099 0.961 . S
C5086 H5100 0.961 . S
C5087 C5084 1.539 . S
C5087 H5101 0.958 . S
C5087 H5102 0.961 . S
C5087 H5103 0.960 . S
H5088 C5072 0.931 . S
H5089 C5077 0.929 . S
H5090 C5078 0.960 . S
H5091 C5078 0.962 . S
H5092 C5078 0.960 . S
H5093 C5079 0.961 . S
H5094 C5079 0.961 . S
H5095 C5079 0.961 . S
H5096 C5080 0.931 . S
H5097 C5085 0.930 . S
H5098 C5086 0.956 . S
H5099 C5086 0.961 . S
H5100 C5086 0.961 . S
H5101 C5087 0.958 . S
H5102 C5087 0.961 . S
H5103 C5087 0.960 . S
C5104 C5105 1.391 . S
C5104 C5106 1.394 . S
C5104 H5120 0.931 . S
C5105 C5104 1.391 . S
C5105 C5109 1.376 . S
C5106 C5104 1.394 . S
C5106 C5107 1.369 . S
C5106 C5110 1.531 . S
C5107 C5106 1.369 . S
C5107 C5108 1.410 . S
C5107 C5115 1.503 . S
C5108 C5107 1.410 . S
C5108 C5109 1.392 . S
C5108 C5111 1.511 . S
C5109 C5105 1.376 . S
C5109 C5108 1.392 . S
C5109 H5121 0.929 . S
C5110 C5106 1.531 . S
C5110 H5122 0.960 . S
C5110 H5123 0.962 . S
C5110 H5124 0.960 . S
C5111 C5108 1.511 . S
C5111 H5125 0.961 . S
C5111 H5126 0.961 . S
C5111 H5127 0.961 . S
C5112 C5113 1.370 . S
C5112 C5114 1.363 . S
C5112 H5128 0.931 . S
C5113 C5112 1.370 . S
C5113 C5117 1.408 . S
C5114 C5112 1.363 . S
C5114 C5115 1.370 . S
C5114 C5118 1.524 . S
C5115 C5107 1.503 . S
C5115 C5114 1.370 . S
C5115 C5116 1.403 . S
C5116 C5115 1.403 . S
C5116 C5117 1.404 . S
C5116 C5119 1.539 . S
C5117 C5113 1.408 . S
C5117 C5116 1.404 . S
C5117 H5129 0.930 . S
C5118 C5114 1.524 . S
C5118 H5130 0.956 . S
C5118 H5131 0.961 . S
C5118 H5132 0.961 . S
C5119 C5116 1.539 . S
C5119 H5133 0.958 . S
C5119 H5134 0.961 . S
C5119 H5135 0.960 . S
H5120 C5104 0.931 . S
H5121 C5109 0.929 . S
H5122 C5110 0.960 . S
H5123 C5110 0.962 . S
H5124 C5110 0.960 . S
H5125 C5111 0.961 . S
H5126 C5111 0.961 . S
H5127 C5111 0.961 . S
H5128 C5112 0.931 . S
H5129 C5117 0.930 . S
H5130 C5118 0.956 . S
H5131 C5118 0.961 . S
H5132 C5118 0.961 . S
H5133 C5119 0.958 . S
H5134 C5119 0.961 . S
H5135 C5119 0.960 . S
C5136 C5137 1.391 . S
C5136 C5138 1.394 . S
C5136 H5152 0.931 . S
C5137 C5136 1.391 . S
C5137 C5141 1.376 . S
C5138 C5136 1.394 . S
C5138 C5139 1.369 . S
C5138 C5142 1.531 . S
C5139 C5138 1.369 . S
C5139 C5140 1.410 . S
C5139 C5147 1.503 . S
C5140 C5139 1.410 . S
C5140 C5141 1.392 . S
C5140 C5143 1.511 . S
C5141 C5137 1.376 . S
C5141 C5140 1.392 . S
C5141 H5153 0.929 . S
C5142 C5138 1.531 . S
C5142 H5154 0.960 . S
C5142 H5155 0.962 . S
C5142 H5156 0.960 . S
C5143 C5140 1.511 . S
C5143 H5157 0.961 . S
C5143 H5158 0.961 . S
C5143 H5159 0.961 . S
C5144 C5145 1.370 . S
C5144 C5146 1.363 . S
C5144 H5160 0.931 . S
C5145 C5144 1.370 . S
C5145 C5149 1.408 . S
C5146 C5144 1.363 . S
C5146 C5147 1.370 . S
C5146 C5150 1.524 . S
C5147 C5139 1.503 . S
C5147 C5146 1.370 . S
C5147 C5148 1.403 . S
C5148 C5147 1.403 . S
C5148 C5149 1.404 . S
C5148 C5151 1.539 . S
C5149 C5145 1.408 . S
C5149 C5148 1.404 . S
C5149 H5161 0.930 . S
C5150 C5146 1.524 . S
C5150 H5162 0.956 . S
C5150 H5163 0.961 . S
C5150 H5164 0.961 . S
C5151 C5148 1.539 . S
C5151 H5165 0.958 . S
C5151 H5166 0.961 . S
C5151 H5167 0.960 . S
H5152 C5136 0.931 . S
H5153 C5141 0.929 . S
H5154 C5142 0.960 . S
H5155 C5142 0.962 . S
H5156 C5142 0.960 . S
H5157 C5143 0.961 . S
H5158 C5143 0.961 . S
H5159 C5143 0.961 . S
H5160 C5144 0.931 . S
H5161 C5149 0.930 . S
H5162 C5150 0.956 . S
H5163 C5150 0.961 . S
H5164 C5150 0.961 . S
H5165 C5151 0.958 . S
H5166 C5151 0.961 . S
H5167 C5151 0.960 . S
C5168 C5169 1.391 . S
C5168 C5170 1.394 . S
C5168 H5184 0.931 . S
C5169 C5168 1.391 . S
C5169 C5173 1.376 . S
C5170 C5168 1.394 . S
C5170 C5171 1.369 . S
C5170 C5174 1.531 . S
C5171 C5170 1.369 . S
C5171 C5172 1.410 . S
C5171 C5179 1.503 . S
C5172 C5171 1.410 . S
C5172 C5173 1.392 . S
C5172 C5175 1.511 . S
C5173 C5169 1.376 . S
C5173 C5172 1.392 . S
C5173 H5185 0.929 . S
C5174 C5170 1.531 . S
C5174 H5186 0.960 . S
C5174 H5187 0.962 . S
C5174 H5188 0.960 . S
C5175 C5172 1.511 . S
C5175 H5189 0.961 . S
C5175 H5190 0.961 . S
C5175 H5191 0.961 . S
C5176 C5177 1.370 . S
C5176 C5178 1.363 . S
C5176 H5192 0.931 . S
C5177 C5176 1.370 . S
C5177 C5181 1.408 . S
C5178 C5176 1.363 . S
C5178 C5179 1.370 . S
C5178 C5182 1.524 . S
C5179 C5171 1.503 . S
C5179 C5178 1.370 . S
C5179 C5180 1.403 . S
C5180 C5179 1.403 . S
C5180 C5181 1.404 . S
C5180 C5183 1.539 . S
C5181 C5177 1.408 . S
C5181 C5180 1.404 . S
C5181 H5193 0.930 . S
C5182 C5178 1.524 . S
C5182 H5194 0.956 . S
C5182 H5195 0.961 . S
C5182 H5196 0.961 . S
C5183 C5180 1.539 . S
C5183 H5197 0.958 . S
C5183 H5198 0.961 . S
C5183 H5199 0.960 . S
H5184 C5168 0.931 . S
H5185 C5173 0.929 . S
H5186 C5174 0.960 . S
H5187 C5174 0.962 . S
H5188 C5174 0.960 . S
H5189 C5175 0.961 . S
H5190 C5175 0.961 . S
H5191 C5175 0.961 . S
H5192 C5176 0.931 . S
H5193 C5181 0.930 . S
H5194 C5182 0.956 . S
H5195 C5182 0.961 . S
H5196 C5182 0.961 . S
H5197 C5183 0.958 . S
H5198 C5183 0.961 . S
H5199 C5183 0.960 . S
C5200 C5201 1.391 . S
C5200 C5202 1.394 . S
C5200 H5216 0.931 . S
C5201 C5200 1.391 . S
C5201 C5205 1.376 . S
C5202 C5200 1.394 . S
C5202 C5203 1.369 . S
C5202 C5206 1.531 . S
C5203 C5202 1.369 . S
C5203 C5204 1.410 . S
C5203 C5211 1.503 . S
C5204 C5203 1.410 . S
C5204 C5205 1.392 . S
C5204 C5207 1.511 . S
C5205 C5201 1.376 . S
C5205 C5204 1.392 . S
C5205 H5217 0.929 . S
C5206 C5202 1.531 . S
C5206 H5218 0.960 . S
C5206 H5219 0.962 . S
C5206 H5220 0.960 . S
C5207 C5204 1.511 . S
C5207 H5221 0.961 . S
C5207 H5222 0.961 . S
C5207 H5223 0.961 . S
C5208 C5209 1.370 . S
C5208 C5210 1.363 . S
C5208 H5224 0.931 . S
C5209 C5208 1.370 . S
C5209 C5213 1.408 . S
C5210 C5208 1.363 . S
C5210 C5211 1.370 . S
C5210 C5214 1.524 . S
C5211 C5203 1.503 . S
C5211 C5210 1.370 . S
C5211 C5212 1.403 . S
C5212 C5211 1.403 . S
C5212 C5213 1.404 . S
C5212 C5215 1.539 . S
C5213 C5209 1.408 . S
C5213 C5212 1.404 . S
C5213 H5225 0.930 . S
C5214 C5210 1.524 . S
C5214 H5226 0.956 . S
C5214 H5227 0.961 . S
C5214 H5228 0.961 . S
C5215 C5212 1.539 . S
C5215 H5229 0.958 . S
C5215 H5230 0.961 . S
C5215 H5231 0.960 . S
H5216 C5200 0.931 . S
H5217 C5205 0.929 . S
H5218 C5206 0.960 . S
H5219 C5206 0.962 . S
H5220 C5206 0.960 . S
H5221 C5207 0.961 . S
H5222 C5207 0.961 . S
H5223 C5207 0.961 . S
H5224 C5208 0.931 . S
H5225 C5213 0.930 . S
H5226 C5214 0.956 . S
H5227 C5214 0.961 . S
H5228 C5214 0.961 . S
H5229 C5215 0.958 . S
H5230 C5215 0.961 . S
H5231 C5215 0.960 . S
C5232 C5233 1.391 . S
C5232 C5234 1.394 . S
C5232 H5248 0.931 . S
C5233 C5232 1.391 . S
C5233 C5237 1.376 . S
C5234 C5232 1.394 . S
C5234 C5235 1.369 . S
C5234 C5238 1.531 . S
C5235 C5234 1.369 . S
C5235 C5236 1.410 . S
C5235 C5243 1.503 . S
C5236 C5235 1.410 . S
C5236 C5237 1.392 . S
C5236 C5239 1.511 . S
C5237 C5233 1.376 . S
C5237 C5236 1.392 . S
C5237 H5249 0.929 . S
C5238 C5234 1.531 . S
C5238 H5250 0.960 . S
C5238 H5251 0.962 . S
C5238 H5252 0.960 . S
C5239 C5236 1.511 . S
C5239 H5253 0.961 . S
C5239 H5254 0.961 . S
C5239 H5255 0.961 . S
C5240 C5241 1.370 . S
C5240 C5242 1.363 . S
C5240 H5256 0.931 . S
C5241 C5240 1.370 . S
C5241 C5245 1.408 . S
C5242 C5240 1.363 . S
C5242 C5243 1.370 . S
C5242 C5246 1.524 . S
C5243 C5235 1.503 . S
C5243 C5242 1.370 . S
C5243 C5244 1.403 . S
C5244 C5243 1.403 . S
C5244 C5245 1.404 . S
C5244 C5247 1.539 . S
C5245 C5241 1.408 . S
C5245 C5244 1.404 . S
C5245 H5257 0.930 . S
C5246 C5242 1.524 . S
C5246 H5258 0.956 . S
C5246 H5259 0.961 . S
C5246 H5260 0.961 . S
C5247 C5244 1.539 . S
C5247 H5261 0.958 . S
C5247 H5262 0.961 . S
C5247 H5263 0.960 . S
H5248 C5232 0.931 . S
H5249 C5237 0.929 . S
H5250 C5238 0.960 . S
H5251 C5238 0.962 . S
H5252 C5238 0.960 . S
H5253 C5239 0.961 . S
H5254 C5239 0.961 . S
H5255 C5239 0.961 . S
H5256 C5240 0.931 . S
H5257 C5245 0.930 . S
H5258 C5246 0.956 . S
H5259 C5246 0.961 . S
H5260 C5246 0.961 . S
H5261 C5247 0.958 . S
H5262 C5247 0.961 . S
H5263 C5247 0.960 . S
C5264 C5265 1.391 . S
C5264 C5266 1.394 . S
C5264 H5280 0.931 . S
C5265 C5264 1.391 . S
C5265 C5269 1.376 . S
C5266 C5264 1.394 . S
C5266 C5267 1.369 . S
C5266 C5270 1.531 . S
C5267 C5266 1.369 . S
C5267 C5268 1.410 . S
C5267 C5275 1.503 . S
C5268 C5267 1.410 . S
C5268 C5269 1.392 . S
C5268 C5271 1.511 . S
C5269 C5265 1.376 . S
C5269 C5268 1.392 . S
C5269 H5281 0.929 . S
C5270 C5266 1.531 . S
C5270 H5282 0.960 . S
C5270 H5283 0.962 . S
C5270 H5284 0.960 . S
C5271 C5268 1.511 . S
C5271 H5285 0.961 . S
C5271 H5286 0.961 . S
C5271 H5287 0.961 . S
C5272 C5273 1.370 . S
C5272 C5274 1.363 . S
C5272 H5288 0.931 . S
C5273 C5272 1.370 . S
C5273 C5277 1.408 . S
C5274 C5272 1.363 . S
C5274 C5275 1.370 . S
C5274 C5278 1.524 . S
C5275 C5267 1.503 . S
C5275 C5274 1.370 . S
C5275 C5276 1.403 . S
C5276 C5275 1.403 . S
C5276 C5277 1.404 . S
C5276 C5279 1.539 . S
C5277 C5273 1.408 . S
C5277 C5276 1.404 . S
C5277 H5289 0.930 . S
C5278 C5274 1.524 . S
C5278 H5290 0.956 . S
C5278 H5291 0.961 . S
C5278 H5292 0.961 . S
C5279 C5276 1.539 . S
C5279 H5293 0.958 . S
C5279 H5294 0.961 . S
C5279 H5295 0.960 . S
H5280 C5264 0.931 . S
H5281 C5269 0.929 . S
H5282 C5270 0.960 . S
H5283 C5270 0.962 . S
H5284 C5270 0.960 . S
H5285 C5271 0.961 . S
H5286 C5271 0.961 . S
H5287 C5271 0.961 . S
H5288 C5272 0.931 . S
H5289 C5277 0.930 . S
H5290 C5278 0.956 . S
H5291 C5278 0.961 . S
H5292 C5278 0.961 . S
H5293 C5279 0.958 . S
H5294 C5279 0.961 . S
H5295 C5279 0.960 . S
C5296 C5297 1.391 . S
C5296 C5298 1.394 . S
C5296 H5312 0.931 . S
C5297 C5296 1.391 . S
C5297 C5301 1.376 . S
C5298 C5296 1.394 . S
C5298 C5299 1.369 . S
C5298 C5302 1.531 . S
C5299 C5298 1.369 . S
C5299 C5300 1.410 . S
C5299 C5307 1.503 . S
C5300 C5299 1.410 . S
C5300 C5301 1.392 . S
C5300 C5303 1.511 . S
C5301 C5297 1.376 . S
C5301 C5300 1.392 . S
C5301 H5313 0.929 . S
C5302 C5298 1.531 . S
C5302 H5314 0.960 . S
C5302 H5315 0.962 . S
C5302 H5316 0.960 . S
C5303 C5300 1.511 . S
C5303 H5317 0.961 . S
C5303 H5318 0.961 . S
C5303 H5319 0.961 . S
C5304 C5305 1.370 . S
C5304 C5306 1.363 . S
C5304 H5320 0.931 . S
C5305 C5304 1.370 . S
C5305 C5309 1.408 . S
C5306 C5304 1.363 . S
C5306 C5307 1.370 . S
C5306 C5310 1.524 . S
C5307 C5299 1.503 . S
C5307 C5306 1.370 . S
C5307 C5308 1.403 . S
C5308 C5307 1.403 . S
C5308 C5309 1.404 . S
C5308 C5311 1.539 . S
C5309 C5305 1.408 . S
C5309 C5308 1.404 . S
C5309 H5321 0.930 . S
C5310 C5306 1.524 . S
C5310 H5322 0.956 . S
C5310 H5323 0.961 . S
C5310 H5324 0.961 . S
C5311 C5308 1.539 . S
C5311 H5325 0.958 . S
C5311 H5326 0.961 . S
C5311 H5327 0.960 . S
H5312 C5296 0.931 . S
H5313 C5301 0.929 . S
H5314 C5302 0.960 . S
H5315 C5302 0.962 . S
H5316 C5302 0.960 . S
H5317 C5303 0.961 . S
H5318 C5303 0.961 . S
H5319 C5303 0.961 . S
H5320 C5304 0.931 . S
H5321 C5309 0.930 . S
H5322 C5310 0.956 . S
H5323 C5310 0.961 . S
H5324 C5310 0.961 . S
H5325 C5311 0.958 . S
H5326 C5311 0.961 . S
H5327 C5311 0.960 . S
C5328 C5329 1.391 . S
C5328 C5330 1.394 . S
C5328 H5344 0.931 . S
C5329 C5328 1.391 . S
C5329 C5333 1.376 . S
C5330 C5328 1.394 . S
C5330 C5331 1.369 . S
C5330 C5334 1.531 . S
C5331 C5330 1.369 . S
C5331 C5332 1.410 . S
C5331 C5339 1.503 . S
C5332 C5331 1.410 . S
C5332 C5333 1.392 . S
C5332 C5335 1.511 . S
C5333 C5329 1.376 . S
C5333 C5332 1.392 . S
C5333 H5345 0.929 . S
C5334 C5330 1.531 . S
C5334 H5346 0.960 . S
C5334 H5347 0.962 . S
C5334 H5348 0.960 . S
C5335 C5332 1.511 . S
C5335 H5349 0.961 . S
C5335 H5350 0.961 . S
C5335 H5351 0.961 . S
C5336 C5337 1.370 . S
C5336 C5338 1.363 . S
C5336 H5352 0.931 . S
C5337 C5336 1.370 . S
C5337 C5341 1.408 . S
C5338 C5336 1.363 . S
C5338 C5339 1.370 . S
C5338 C5342 1.524 . S
C5339 C5331 1.503 . S
C5339 C5338 1.370 . S
C5339 C5340 1.403 . S
C5340 C5339 1.403 . S
C5340 C5341 1.404 . S
C5340 C5343 1.539 . S
C5341 C5337 1.408 . S
C5341 C5340 1.404 . S
C5341 H5353 0.930 . S
C5342 C5338 1.524 . S
C5342 H5354 0.956 . S
C5342 H5355 0.961 . S
C5342 H5356 0.961 . S
C5343 C5340 1.539 . S
C5343 H5357 0.958 . S
C5343 H5358 0.961 . S
C5343 H5359 0.960 . S
H5344 C5328 0.931 . S
H5345 C5333 0.929 . S
H5346 C5334 0.960 . S
H5347 C5334 0.962 . S
H5348 C5334 0.960 . S
H5349 C5335 0.961 . S
H5350 C5335 0.961 . S
H5351 C5335 0.961 . S
H5352 C5336 0.931 . S
H5353 C5341 0.930 . S
H5354 C5342 0.956 . S
H5355 C5342 0.961 . S
H5356 C5342 0.961 . S
H5357 C5343 0.958 . S
H5358 C5343 0.961 . S
H5359 C5343 0.960 . S
C5360 C5361 1.391 . S
C5360 C5362 1.394 . S
C5360 H5376 0.931 . S
C5361 C5360 1.391 . S
C5361 C5365 1.376 . S
C5362 C5360 1.394 . S
C5362 C5363 1.369 . S
C5362 C5366 1.531 . S
C5363 C5362 1.369 . S
C5363 C5364 1.410 . S
C5363 C5371 1.503 . S
C5364 C5363 1.410 . S
C5364 C5365 1.392 . S
C5364 C5367 1.511 . S
C5365 C5361 1.376 . S
C5365 C5364 1.392 . S
C5365 H5377 0.929 . S
C5366 C5362 1.531 . S
C5366 H5378 0.960 . S
C5366 H5379 0.962 . S
C5366 H5380 0.960 . S
C5367 C5364 1.511 . S
C5367 H5381 0.961 . S
C5367 H5382 0.961 . S
C5367 H5383 0.961 . S
C5368 C5369 1.370 . S
C5368 C5370 1.363 . S
C5368 H5384 0.931 . S
C5369 C5368 1.370 . S
C5369 C5373 1.408 . S
C5370 C5368 1.363 . S
C5370 C5371 1.370 . S
C5370 C5374 1.524 . S
C5371 C5363 1.503 . S
C5371 C5370 1.370 . S
C5371 C5372 1.403 . S
C5372 C5371 1.403 . S
C5372 C5373 1.404 . S
C5372 C5375 1.539 . S
C5373 C5369 1.408 . S
C5373 C5372 1.404 . S
C5373 H5385 0.930 . S
C5374 C5370 1.524 . S
C5374 H5386 0.956 . S
C5374 H5387 0.961 . S
C5374 H5388 0.961 . S
C5375 C5372 1.539 . S
C5375 H5389 0.958 . S
C5375 H5390 0.961 . S
C5375 H5391 0.960 . S
H5376 C5360 0.931 . S
H5377 C5365 0.929 . S
H5378 C5366 0.960 . S
H5379 C5366 0.962 . S
H5380 C5366 0.960 . S
H5381 C5367 0.961 . S
H5382 C5367 0.961 . S
H5383 C5367 0.961 . S
H5384 C5368 0.931 . S
H5385 C5373 0.930 . S
H5386 C5374 0.956 . S
H5387 C5374 0.961 . S
H5388 C5374 0.961 . S
H5389 C5375 0.958 . S
H5390 C5375 0.961 . S
H5391 C5375 0.960 . S
C5392 C5393 1.391 . S
C5392 C5394 1.394 . S
C5392 H5408 0.931 . S
C5393 C5392 1.391 . S
C5393 C5397 1.376 . S
C5394 C5392 1.394 . S
C5394 C5395 1.369 . S
C5394 C5398 1.531 . S
C5395 C5394 1.369 . S
C5395 C5396 1.410 . S
C5395 C5403 1.503 . S
C5396 C5395 1.410 . S
C5396 C5397 1.392 . S
C5396 C5399 1.511 . S
C5397 C5393 1.376 . S
C5397 C5396 1.392 . S
C5397 H5409 0.929 . S
C5398 C5394 1.531 . S
C5398 H5410 0.960 . S
C5398 H5411 0.962 . S
C5398 H5412 0.960 . S
C5399 C5396 1.511 . S
C5399 H5413 0.961 . S
C5399 H5414 0.961 . S
C5399 H5415 0.961 . S
C5400 C5401 1.370 . S
C5400 C5402 1.363 . S
C5400 H5416 0.931 . S
C5401 C5400 1.370 . S
C5401 C5405 1.408 . S
C5402 C5400 1.363 . S
C5402 C5403 1.370 . S
C5402 C5406 1.524 . S
C5403 C5395 1.503 . S
C5403 C5402 1.370 . S
C5403 C5404 1.403 . S
C5404 C5403 1.403 . S
C5404 C5405 1.404 . S
C5404 C5407 1.539 . S
C5405 C5401 1.408 . S
C5405 C5404 1.404 . S
C5405 H5417 0.930 . S
C5406 C5402 1.524 . S
C5406 H5418 0.956 . S
C5406 H5419 0.961 . S
C5406 H5420 0.961 . S
C5407 C5404 1.539 . S
C5407 H5421 0.958 . S
C5407 H5422 0.961 . S
C5407 H5423 0.960 . S
H5408 C5392 0.931 . S
H5409 C5397 0.929 . S
H5410 C5398 0.960 . S
H5411 C5398 0.962 . S
H5412 C5398 0.960 . S
H5413 C5399 0.961 . S
H5414 C5399 0.961 . S
H5415 C5399 0.961 . S
H5416 C5400 0.931 . S
H5417 C5405 0.930 . S
H5418 C5406 0.956 . S
H5419 C5406 0.961 . S
H5420 C5406 0.961 . S
H5421 C5407 0.958 . S
H5422 C5407 0.961 . S
H5423 C5407 0.960 . S
C5424 C5425 1.391 . S
C5424 C5426 1.394 . S
C5424 H5440 0.931 . S
C5425 C5424 1.391 . S
C5425 C5429 1.376 . S
C5426 C5424 1.394 . S
C5426 C5427 1.369 . S
C5426 C5430 1.531 . S
C5427 C5426 1.369 . S
C5427 C5428 1.410 . S
C5427 C5435 1.503 . S
C5428 C5427 1.410 . S
C5428 C5429 1.392 . S
C5428 C5431 1.511 . S
C5429 C5425 1.376 . S
C5429 C5428 1.392 . S
C5429 H5441 0.929 . S
C5430 C5426 1.531 . S
C5430 H5442 0.960 . S
C5430 H5443 0.962 . S
C5430 H5444 0.960 . S
C5431 C5428 1.511 . S
C5431 H5445 0.961 . S
C5431 H5446 0.961 . S
C5431 H5447 0.961 . S
C5432 C5433 1.370 . S
C5432 C5434 1.363 . S
C5432 H5448 0.931 . S
C5433 C5432 1.370 . S
C5433 C5437 1.408 . S
C5434 C5432 1.363 . S
C5434 C5435 1.370 . S
C5434 C5438 1.524 . S
C5435 C5427 1.503 . S
C5435 C5434 1.370 . S
C5435 C5436 1.403 . S
C5436 C5435 1.403 . S
C5436 C5437 1.404 . S
C5436 C5439 1.539 . S
C5437 C5433 1.408 . S
C5437 C5436 1.404 . S
C5437 H5449 0.930 . S
C5438 C5434 1.524 . S
C5438 H5450 0.956 . S
C5438 H5451 0.961 . S
C5438 H5452 0.961 . S
C5439 C5436 1.539 . S
C5439 H5453 0.958 . S
C5439 H5454 0.961 . S
C5439 H5455 0.960 . S
H5440 C5424 0.931 . S
H5441 C5429 0.929 . S
H5442 C5430 0.960 . S
H5443 C5430 0.962 . S
H5444 C5430 0.960 . S
H5445 C5431 0.961 . S
H5446 C5431 0.961 . S
H5447 C5431 0.961 . S
H5448 C5432 0.931 . S
H5449 C5437 0.930 . S
H5450 C5438 0.956 . S
H5451 C5438 0.961 . S
H5452 C5438 0.961 . S
H5453 C5439 0.958 . S
H5454 C5439 0.961 . S
H5455 C5439 0.960 . S
C5456 C5457 1.391 . S
C5456 C5458 1.394 . S
C5456 H5472 0.931 . S
C5457 C5456 1.391 . S
C5457 C5461 1.376 . S
C5458 C5456 1.394 . S
C5458 C5459 1.369 . S
C5458 C5462 1.531 . S
C5459 C5458 1.369 . S
C5459 C5460 1.410 . S
C5459 C5467 1.503 . S
C5460 C5459 1.410 . S
C5460 C5461 1.392 . S
C5460 C5463 1.511 . S
C5461 C5457 1.376 . S
C5461 C5460 1.392 . S
C5461 H5473 0.929 . S
C5462 C5458 1.531 . S
C5462 H5474 0.960 . S
C5462 H5475 0.962 . S
C5462 H5476 0.960 . S
C5463 C5460 1.511 . S
C5463 H5477 0.961 . S
C5463 H5478 0.961 . S
C5463 H5479 0.961 . S
C5464 C5465 1.370 . S
C5464 C5466 1.363 . S
C5464 H5480 0.931 . S
C5465 C5464 1.370 . S
C5465 C5469 1.408 . S
C5466 C5464 1.363 . S
C5466 C5467 1.370 . S
C5466 C5470 1.524 . S
C5467 C5459 1.503 . S
C5467 C5466 1.370 . S
C5467 C5468 1.403 . S
C5468 C5467 1.403 . S
C5468 C5469 1.404 . S
C5468 C5471 1.539 . S
C5469 C5465 1.408 . S
C5469 C5468 1.404 . S
C5469 H5481 0.930 . S
C5470 C5466 1.524 . S
C5470 H5482 0.956 . S
C5470 H5483 0.961 . S
C5470 H5484 0.961 . S
C5471 C5468 1.539 . S
C5471 H5485 0.958 . S
C5471 H5486 0.961 . S
C5471 H5487 0.960 . S
H5472 C5456 0.931 . S
H5473 C5461 0.929 . S
H5474 C5462 0.960 . S
H5475 C5462 0.962 . S
H5476 C5462 0.960 . S
H5477 C5463 0.961 . S
H5478 C5463 0.961 . S
H5479 C5463 0.961 . S
H5480 C5464 0.931 . S
H5481 C5469 0.930 . S
H5482 C5470 0.956 . S
H5483 C5470 0.961 . S
H5484 C5470 0.961 . S
H5485 C5471 0.958 . S
H5486 C5471 0.961 . S
H5487 C5471 0.960 . S
C5488 C5489 1.391 . S
C5488 C5490 1.394 . S
C5488 H5504 0.931 . S
C5489 C5488 1.391 . S
C5489 C5493 1.376 . S
C5490 C5488 1.394 . S
C5490 C5491 1.369 . S
C5490 C5494 1.531 . S
C5491 C5490 1.369 . S
C5491 C5492 1.410 . S
C5491 C5499 1.503 . S
C5492 C5491 1.410 . S
C5492 C5493 1.392 . S
C5492 C5495 1.511 . S
C5493 C5489 1.376 . S
C5493 C5492 1.392 . S
C5493 H5505 0.929 . S
C5494 C5490 1.531 . S
C5494 H5506 0.960 . S
C5494 H5507 0.962 . S
C5494 H5508 0.960 . S
C5495 C5492 1.511 . S
C5495 H5509 0.961 . S
C5495 H5510 0.961 . S
C5495 H5511 0.961 . S
C5496 C5497 1.370 . S
C5496 C5498 1.363 . S
C5496 H5512 0.931 . S
C5497 C5496 1.370 . S
C5497 C5501 1.408 . S
C5498 C5496 1.363 . S
C5498 C5499 1.370 . S
C5498 C5502 1.524 . S
C5499 C5491 1.503 . S
C5499 C5498 1.370 . S
C5499 C5500 1.403 . S
C5500 C5499 1.403 . S
C5500 C5501 1.404 . S
C5500 C5503 1.539 . S
C5501 C5497 1.408 . S
C5501 C5500 1.404 . S
C5501 H5513 0.930 . S
C5502 C5498 1.524 . S
C5502 H5514 0.956 . S
C5502 H5515 0.961 . S
C5502 H5516 0.961 . S
C5503 C5500 1.539 . S
C5503 H5517 0.958 . S
C5503 H5518 0.961 . S
C5503 H5519 0.960 . S
H5504 C5488 0.931 . S
H5505 C5493 0.929 . S
H5506 C5494 0.960 . S
H5507 C5494 0.962 . S
H5508 C5494 0.960 . S
H5509 C5495 0.961 . S
H5510 C5495 0.961 . S
H5511 C5495 0.961 . S
H5512 C5496 0.931 . S
H5513 C5501 0.930 . S
H5514 C5502 0.956 . S
H5515 C5502 0.961 . S
H5516 C5502 0.961 . S
H5517 C5503 0.958 . S
H5518 C5503 0.961 . S
H5519 C5503 0.960 . S
C5520 C5521 1.391 . S
C5520 C5522 1.394 . S
C5520 H5536 0.931 . S
C5521 C5520 1.391 . S
C5521 C5525 1.376 . S
C5522 C5520 1.394 . S
C5522 C5523 1.369 . S
C5522 C5526 1.531 . S
C5523 C5522 1.369 . S
C5523 C5524 1.410 . S
C5523 C5531 1.503 . S
C5524 C5523 1.410 . S
C5524 C5525 1.392 . S
C5524 C5527 1.511 . S
C5525 C5521 1.376 . S
C5525 C5524 1.392 . S
C5525 H5537 0.929 . S
C5526 C5522 1.531 . S
C5526 H5538 0.960 . S
C5526 H5539 0.962 . S
C5526 H5540 0.960 . S
C5527 C5524 1.511 . S
C5527 H5541 0.961 . S
C5527 H5542 0.961 . S
C5527 H5543 0.961 . S
C5528 C5529 1.370 . S
C5528 C5530 1.363 . S
C5528 H5544 0.931 . S
C5529 C5528 1.370 . S
C5529 C5533 1.408 . S
C5530 C5528 1.363 . S
C5530 C5531 1.370 . S
C5530 C5534 1.524 . S
C5531 C5523 1.503 . S
C5531 C5530 1.370 . S
C5531 C5532 1.403 . S
C5532 C5531 1.403 . S
C5532 C5533 1.404 . S
C5532 C5535 1.539 . S
C5533 C5529 1.408 . S
C5533 C5532 1.404 . S
C5533 H5545 0.930 . S
C5534 C5530 1.524 . S
C5534 H5546 0.956 . S
C5534 H5547 0.961 . S
C5534 H5548 0.961 . S
C5535 C5532 1.539 . S
C5535 H5549 0.958 . S
C5535 H5550 0.961 . S
C5535 H5551 0.960 . S
H5536 C5520 0.931 . S
H5537 C5525 0.929 . S
H5538 C5526 0.960 . S
H5539 C5526 0.962 . S
H5540 C5526 0.960 . S
H5541 C5527 0.961 . S
H5542 C5527 0.961 . S
H5543 C5527 0.961 . S
H5544 C5528 0.931 . S
H5545 C5533 0.930 . S
H5546 C5534 0.956 . S
H5547 C5534 0.961 . S
H5548 C5534 0.961 . S
H5549 C5535 0.958 . S
H5550 C5535 0.961 . S
H5551 C5535 0.960 . S
C5552 C5553 1.391 . S
C5552 C5554 1.394 . S
C5552 H5568 0.931 . S
C5553 C5552 1.391 . S
C5553 C5557 1.376 . S
C5554 C5552 1.394 . S
C5554 C5555 1.369 . S
C5554 C5558 1.531 . S
C5555 C5554 1.369 . S
C5555 C5556 1.410 . S
C5555 C5563 1.503 . S
C5556 C5555 1.410 . S
C5556 C5557 1.392 . S
C5556 C5559 1.511 . S
C5557 C5553 1.376 . S
C5557 C5556 1.392 . S
C5557 H5569 0.929 . S
C5558 C5554 1.531 . S
C5558 H5570 0.960 . S
C5558 H5571 0.962 . S
C5558 H5572 0.960 . S
C5559 C5556 1.511 . S
C5559 H5573 0.961 . S
C5559 H5574 0.961 . S
C5559 H5575 0.961 . S
C5560 C5561 1.370 . S
C5560 C5562 1.363 . S
C5560 H5576 0.931 . S
C5561 C5560 1.370 . S
C5561 C5565 1.408 . S
C5562 C5560 1.363 . S
C5562 C5563 1.370 . S
C5562 C5566 1.524 . S
C5563 C5555 1.503 . S
C5563 C5562 1.370 . S
C5563 C5564 1.403 . S
C5564 C5563 1.403 . S
C5564 C5565 1.404 . S
C5564 C5567 1.539 . S
C5565 C5561 1.408 . S
C5565 C5564 1.404 . S
C5565 H5577 0.930 . S
C5566 C5562 1.524 . S
C5566 H5578 0.956 . S
C5566 H5579 0.961 . S
C5566 H5580 0.961 . S
C5567 C5564 1.539 . S
C5567 H5581 0.958 . S
C5567 H5582 0.961 . S
C5567 H5583 0.960 . S
H5568 C5552 0.931 . S
H5569 C5557 0.929 . S
H5570 C5558 0.960 . S
H5571 C5558 0.962 . S
H5572 C5558 0.960 . S
H5573 C5559 0.961 . S
H5574 C5559 0.961 . S
H5575 C5559 0.961 . S
H5576 C5560 0.931 . S
H5577 C5565 0.930 . S
H5578 C5566 0.956 . S
H5579 C5566 0.961 . S
H5580 C5566 0.961 . S
H5581 C5567 0.958 . S
H5582 C5567 0.961 . S
H5583 C5567 0.960 . S
C5584 C5585 1.391 . S
C5584 C5586 1.394 . S
C5584 H5600 0.931 . S
C5585 C5584 1.391 . S
C5585 C5589 1.376 . S
C5586 C5584 1.394 . S
C5586 C5587 1.369 . S
C5586 C5590 1.531 . S
C5587 C5586 1.369 . S
C5587 C5588 1.410 . S
C5587 C5595 1.503 . S
C5588 C5587 1.410 . S
C5588 C5589 1.392 . S
C5588 C5591 1.511 . S
C5589 C5585 1.376 . S
C5589 C5588 1.392 . S
C5589 H5601 0.929 . S
C5590 C5586 1.531 . S
C5590 H5602 0.960 . S
C5590 H5603 0.962 . S
C5590 H5604 0.960 . S
C5591 C5588 1.511 . S
C5591 H5605 0.961 . S
C5591 H5606 0.961 . S
C5591 H5607 0.961 . S
C5592 C5593 1.370 . S
C5592 C5594 1.363 . S
C5592 H5608 0.931 . S
C5593 C5592 1.370 . S
C5593 C5597 1.408 . S
C5594 C5592 1.363 . S
C5594 C5595 1.370 . S
C5594 C5598 1.524 . S
C5595 C5587 1.503 . S
C5595 C5594 1.370 . S
C5595 C5596 1.403 . S
C5596 C5595 1.403 . S
C5596 C5597 1.404 . S
C5596 C5599 1.539 . S
C5597 C5593 1.408 . S
C5597 C5596 1.404 . S
C5597 H5609 0.930 . S
C5598 C5594 1.524 . S
C5598 H5610 0.956 . S
C5598 H5611 0.961 . S
C5598 H5612 0.961 . S
C5599 C5596 1.539 . S
C5599 H5613 0.958 . S
C5599 H5614 0.961 . S
C5599 H5615 0.960 . S
H5600 C5584 0.931 . S
H5601 C5589 0.929 . S
H5602 C5590 0.960 . S
H5603 C5590 0.962 . S
H5604 C5590 0.960 . S
H5605 C5591 0.961 . S
H5606 C5591 0.961 . S
H5607 C5591 0.961 . S
H5608 C5592 0.931 . S
H5609 C5597 0.930 . S
H5610 C5598 0.956 . S
H5611 C5598 0.961 . S
H5612 C5598 0.961 . S
H5613 C5599 0.958 . S
H5614 C5599 0.961 . S
H5615 C5599 0.960 . S
C5616 C5617 1.391 . S
C5616 C5618 1.394 . S
C5616 H5632 0.931 . S
C5617 C5616 1.391 . S
C5617 C5621 1.376 . S
C5618 C5616 1.394 . S
C5618 C5619 1.369 . S
C5618 C5622 1.531 . S
C5619 C5618 1.369 . S
C5619 C5620 1.410 . S
C5619 C5627 1.503 . S
C5620 C5619 1.410 . S
C5620 C5621 1.392 . S
C5620 C5623 1.511 . S
C5621 C5617 1.376 . S
C5621 C5620 1.392 . S
C5621 H5633 0.929 . S
C5622 C5618 1.531 . S
C5622 H5634 0.960 . S
C5622 H5635 0.962 . S
C5622 H5636 0.960 . S
C5623 C5620 1.511 . S
C5623 H5637 0.961 . S
C5623 H5638 0.961 . S
C5623 H5639 0.961 . S
C5624 C5625 1.370 . S
C5624 C5626 1.363 . S
C5624 H5640 0.931 . S
C5625 C5624 1.370 . S
C5625 C5629 1.408 . S
C5626 C5624 1.363 . S
C5626 C5627 1.370 . S
C5626 C5630 1.524 . S
C5627 C5619 1.503 . S
C5627 C5626 1.370 . S
C5627 C5628 1.403 . S
C5628 C5627 1.403 . S
C5628 C5629 1.404 . S
C5628 C5631 1.539 . S
C5629 C5625 1.408 . S
C5629 C5628 1.404 . S
C5629 H5641 0.930 . S
C5630 C5626 1.524 . S
C5630 H5642 0.956 . S
C5630 H5643 0.961 . S
C5630 H5644 0.961 . S
C5631 C5628 1.539 . S
C5631 H5645 0.958 . S
C5631 H5646 0.961 . S
C5631 H5647 0.960 . S
H5632 C5616 0.931 . S
H5633 C5621 0.929 . S
H5634 C5622 0.960 . S
H5635 C5622 0.962 . S
H5636 C5622 0.960 . S
H5637 C5623 0.961 . S
H5638 C5623 0.961 . S
H5639 C5623 0.961 . S
H5640 C5624 0.931 . S
H5641 C5629 0.930 . S
H5642 C5630 0.956 . S
H5643 C5630 0.961 . S
H5644 C5630 0.961 . S
H5645 C5631 0.958 . S
H5646 C5631 0.961 . S
H5647 C5631 0.960 . S
C5648 C5649 1.391 . S
C5648 C5650 1.394 . S
C5648 H5664 0.931 . S
C5649 C5648 1.391 . S
C5649 C5653 1.376 . S
C5650 C5648 1.394 . S
C5650 C5651 1.369 . S
C5650 C5654 1.531 . S
C5651 C5650 1.369 . S
C5651 C5652 1.410 . S
C5651 C5659 1.503 . S
C5652 C5651 1.410 . S
C5652 C5653 1.392 . S
C5652 C5655 1.511 . S
C5653 C5649 1.376 . S
C5653 C5652 1.392 . S
C5653 H5665 0.929 . S
C5654 C5650 1.531 . S
C5654 H5666 0.960 . S
C5654 H5667 0.962 . S
C5654 H5668 0.960 . S
C5655 C5652 1.511 . S
C5655 H5669 0.961 . S
C5655 H5670 0.961 . S
C5655 H5671 0.961 . S
C5656 C5657 1.370 . S
C5656 C5658 1.363 . S
C5656 H5672 0.931 . S
C5657 C5656 1.370 . S
C5657 C5661 1.408 . S
C5658 C5656 1.363 . S
C5658 C5659 1.370 . S
C5658 C5662 1.524 . S
C5659 C5651 1.503 . S
C5659 C5658 1.370 . S
C5659 C5660 1.403 . S
C5660 C5659 1.403 . S
C5660 C5661 1.404 . S
C5660 C5663 1.539 . S
C5661 C5657 1.408 . S
C5661 C5660 1.404 . S
C5661 H5673 0.930 . S
C5662 C5658 1.524 . S
C5662 H5674 0.956 . S
C5662 H5675 0.961 . S
C5662 H5676 0.961 . S
C5663 C5660 1.539 . S
C5663 H5677 0.958 . S
C5663 H5678 0.961 . S
C5663 H5679 0.960 . S
H5664 C5648 0.931 . S
H5665 C5653 0.929 . S
H5666 C5654 0.960 . S
H5667 C5654 0.962 . S
H5668 C5654 0.960 . S
H5669 C5655 0.961 . S
H5670 C5655 0.961 . S
H5671 C5655 0.961 . S
H5672 C5656 0.931 . S
H5673 C5661 0.930 . S
H5674 C5662 0.956 . S
H5675 C5662 0.961 . S
H5676 C5662 0.961 . S
H5677 C5663 0.958 . S
H5678 C5663 0.961 . S
H5679 C5663 0.960 . S
C5680 C5681 1.391 . S
C5680 C5682 1.394 . S
C5680 H5696 0.931 . S
C5681 C5680 1.391 . S
C5681 C5685 1.376 . S
C5682 C5680 1.394 . S
C5682 C5683 1.369 . S
C5682 C5686 1.531 . S
C5683 C5682 1.369 . S
C5683 C5684 1.410 . S
C5683 C5691 1.503 . S
C5684 C5683 1.410 . S
C5684 C5685 1.392 . S
C5684 C5687 1.511 . S
C5685 C5681 1.376 . S
C5685 C5684 1.392 . S
C5685 H5697 0.929 . S
C5686 C5682 1.531 . S
C5686 H5698 0.960 . S
C5686 H5699 0.962 . S
C5686 H5700 0.960 . S
C5687 C5684 1.511 . S
C5687 H5701 0.961 . S
C5687 H5702 0.961 . S
C5687 H5703 0.961 . S
C5688 C5689 1.370 . S
C5688 C5690 1.363 . S
C5688 H5704 0.931 . S
C5689 C5688 1.370 . S
C5689 C5693 1.408 . S
C5690 C5688 1.363 . S
C5690 C5691 1.370 . S
C5690 C5694 1.524 . S
C5691 C5683 1.503 . S
C5691 C5690 1.370 . S
C5691 C5692 1.403 . S
C5692 C5691 1.403 . S
C5692 C5693 1.404 . S
C5692 C5695 1.539 . S
C5693 C5689 1.408 . S
C5693 C5692 1.404 . S
C5693 H5705 0.930 . S
C5694 C5690 1.524 . S
C5694 H5706 0.956 . S
C5694 H5707 0.961 . S
C5694 H5708 0.961 . S
C5695 C5692 1.539 . S
C5695 H5709 0.958 . S
C5695 H5710 0.961 . S
C5695 H5711 0.960 . S
H5696 C5680 0.931 . S
H5697 C5685 0.929 . S
H5698 C5686 0.960 . S
H5699 C5686 0.962 . S
H5700 C5686 0.960 . S
H5701 C5687 0.961 . S
H5702 C5687 0.961 . S
H5703 C5687 0.961 . S
H5704 C5688 0.931 . S
H5705 C5693 0.930 . S
H5706 C5694 0.956 . S
H5707 C5694 0.961 . S
H5708 C5694 0.961 . S
H5709 C5695 0.958 . S
H5710 C5695 0.961 . S
H5711 C5695 0.960 . S
C5712 C5713 1.391 . S
C5712 C5714 1.394 . S
C5712 H5728 0.931 . S
C5713 C5712 1.391 . S
C5713 C5717 1.376 . S
C5714 C5712 1.394 . S
C5714 C5715 1.369 . S
C5714 C5718 1.531 . S
C5715 C5714 1.369 . S
C5715 C5716 1.410 . S
C5715 C5723 1.503 . S
C5716 C5715 1.410 . S
C5716 C5717 1.392 . S
C5716 C5719 1.511 . S
C5717 C5713 1.376 . S
C5717 C5716 1.392 . S
C5717 H5729 0.929 . S
C5718 C5714 1.531 . S
C5718 H5730 0.960 . S
C5718 H5731 0.962 . S
C5718 H5732 0.960 . S
C5719 C5716 1.511 . S
C5719 H5733 0.961 . S
C5719 H5734 0.961 . S
C5719 H5735 0.961 . S
C5720 C5721 1.370 . S
C5720 C5722 1.363 . S
C5720 H5736 0.931 . S
C5721 C5720 1.370 . S
C5721 C5725 1.408 . S
C5722 C5720 1.363 . S
C5722 C5723 1.370 . S
C5722 C5726 1.524 . S
C5723 C5715 1.503 . S
C5723 C5722 1.370 . S
C5723 C5724 1.403 . S
C5724 C5723 1.403 . S
C5724 C5725 1.404 . S
C5724 C5727 1.539 . S
C5725 C5721 1.408 . S
C5725 C5724 1.404 . S
C5725 H5737 0.930 . S
C5726 C5722 1.524 . S
C5726 H5738 0.956 . S
C5726 H5739 0.961 . S
C5726 H5740 0.961 . S
C5727 C5724 1.539 . S
C5727 H5741 0.958 . S
C5727 H5742 0.961 . S
C5727 H5743 0.960 . S
H5728 C5712 0.931 . S
H5729 C5717 0.929 . S
H5730 C5718 0.960 . S
H5731 C5718 0.962 . S
H5732 C5718 0.960 . S
H5733 C5719 0.961 . S
H5734 C5719 0.961 . S
H5735 C5719 0.961 . S
H5736 C5720 0.931 . S
H5737 C5725 0.930 . S
H5738 C5726 0.956 . S
H5739 C5726 0.961 . S
H5740 C5726 0.961 . S
H5741 C5727 0.958 . S
H5742 C5727 0.961 . S
H5743 C5727 0.960 . S
C5744 C5745 1.391 . S
C5744 C5746 1.394 . S
C5744 H5760 0.931 . S
C5745 C5744 1.391 . S
C5745 C5749 1.376 . S
C5746 C5744 1.394 . S
C5746 C5747 1.369 . S
C5746 C5750 1.531 . S
C5747 C5746 1.369 . S
C5747 C5748 1.410 . S
C5747 C5755 1.503 . S
C5748 C5747 1.410 . S
C5748 C5749 1.392 . S
C5748 C5751 1.511 . S
C5749 C5745 1.376 . S
C5749 C5748 1.392 . S
C5749 H5761 0.929 . S
C5750 C5746 1.531 . S
C5750 H5762 0.960 . S
C5750 H5763 0.962 . S
C5750 H5764 0.960 . S
C5751 C5748 1.511 . S
C5751 H5765 0.961 . S
C5751 H5766 0.961 . S
C5751 H5767 0.961 . S
C5752 C5753 1.370 . S
C5752 C5754 1.363 . S
C5752 H5768 0.931 . S
C5753 C5752 1.370 . S
C5753 C5757 1.408 . S
C5754 C5752 1.363 . S
C5754 C5755 1.370 . S
C5754 C5758 1.524 . S
C5755 C5747 1.503 . S
C5755 C5754 1.370 . S
C5755 C5756 1.403 . S
C5756 C5755 1.403 . S
C5756 C5757 1.404 . S
C5756 C5759 1.539 . S
C5757 C5753 1.408 . S
C5757 C5756 1.404 . S
C5757 H5769 0.930 . S
C5758 C5754 1.524 . S
C5758 H5770 0.956 . S
C5758 H5771 0.961 . S
C5758 H5772 0.961 . S
C5759 C5756 1.539 . S
C5759 H5773 0.958 . S
C5759 H5774 0.961 . S
C5759 H5775 0.960 . S
H5760 C5744 0.931 . S
H5761 C5749 0.929 . S
H5762 C5750 0.960 . S
H5763 C5750 0.962 . S
H5764 C5750 0.960 . S
H5765 C5751 0.961 . S
H5766 C5751 0.961 . S
H5767 C5751 0.961 . S
H5768 C5752 0.931 . S
H5769 C5757 0.930 . S
H5770 C5758 0.956 . S
H5771 C5758 0.961 . S
H5772 C5758 0.961 . S
H5773 C5759 0.958 . S
H5774 C5759 0.961 . S
H5775 C5759 0.960 . S
C5776 C5777 1.391 . S
C5776 C5778 1.394 . S
C5776 H5792 0.931 . S
C5777 C5776 1.391 . S
C5777 C5781 1.376 . S
C5778 C5776 1.394 . S
C5778 C5779 1.369 . S
C5778 C5782 1.531 . S
C5779 C5778 1.369 . S
C5779 C5780 1.410 . S
C5779 C5787 1.503 . S
C5780 C5779 1.410 . S
C5780 C5781 1.392 . S
C5780 C5783 1.511 . S
C5781 C5777 1.376 . S
C5781 C5780 1.392 . S
C5781 H5793 0.929 . S
C5782 C5778 1.531 . S
C5782 H5794 0.960 . S
C5782 H5795 0.962 . S
C5782 H5796 0.960 . S
C5783 C5780 1.511 . S
C5783 H5797 0.961 . S
C5783 H5798 0.961 . S
C5783 H5799 0.961 . S
C5784 C5785 1.370 . S
C5784 C5786 1.363 . S
C5784 H5800 0.931 . S
C5785 C5784 1.370 . S
C5785 C5789 1.408 . S
C5786 C5784 1.363 . S
C5786 C5787 1.370 . S
C5786 C5790 1.524 . S
C5787 C5779 1.503 . S
C5787 C5786 1.370 . S
C5787 C5788 1.403 . S
C5788 C5787 1.403 . S
C5788 C5789 1.404 . S
C5788 C5791 1.539 . S
C5789 C5785 1.408 . S
C5789 C5788 1.404 . S
C5789 H5801 0.930 . S
C5790 C5786 1.524 . S
C5790 H5802 0.956 . S
C5790 H5803 0.961 . S
C5790 H5804 0.961 . S
C5791 C5788 1.539 . S
C5791 H5805 0.958 . S
C5791 H5806 0.961 . S
C5791 H5807 0.960 . S
H5792 C5776 0.931 . S
H5793 C5781 0.929 . S
H5794 C5782 0.960 . S
H5795 C5782 0.962 . S
H5796 C5782 0.960 . S
H5797 C5783 0.961 . S
H5798 C5783 0.961 . S
H5799 C5783 0.961 . S
H5800 C5784 0.931 . S
H5801 C5789 0.930 . S
H5802 C5790 0.956 . S
H5803 C5790 0.961 . S
H5804 C5790 0.961 . S
H5805 C5791 0.958 . S
H5806 C5791 0.961 . S
H5807 C5791 0.960 . S
C5808 C5809 1.391 . S
C5808 C5810 1.394 . S
C5808 H5824 0.931 . S
C5809 C5808 1.391 . S
C5809 C5813 1.376 . S
C5810 C5808 1.394 . S
C5810 C5811 1.369 . S
C5810 C5814 1.531 . S
C5811 C5810 1.369 . S
C5811 C5812 1.410 . S
C5811 C5819 1.503 . S
C5812 C5811 1.410 . S
C5812 C5813 1.392 . S
C5812 C5815 1.511 . S
C5813 C5809 1.376 . S
C5813 C5812 1.392 . S
C5813 H5825 0.929 . S
C5814 C5810 1.531 . S
C5814 H5826 0.960 . S
C5814 H5827 0.962 . S
C5814 H5828 0.960 . S
C5815 C5812 1.511 . S
C5815 H5829 0.961 . S
C5815 H5830 0.961 . S
C5815 H5831 0.961 . S
C5816 C5817 1.370 . S
C5816 C5818 1.363 . S
C5816 H5832 0.931 . S
C5817 C5816 1.370 . S
C5817 C5821 1.408 . S
C5818 C5816 1.363 . S
C5818 C5819 1.370 . S
C5818 C5822 1.524 . S
C5819 C5811 1.503 . S
C5819 C5818 1.370 . S
C5819 C5820 1.403 . S
C5820 C5819 1.403 . S
C5820 C5821 1.404 . S
C5820 C5823 1.539 . S
C5821 C5817 1.408 . S
C5821 C5820 1.404 . S
C5821 H5833 0.930 . S
C5822 C5818 1.524 . S
C5822 H5834 0.956 . S
C5822 H5835 0.961 . S
C5822 H5836 0.961 . S
C5823 C5820 1.539 . S
C5823 H5837 0.958 . S
C5823 H5838 0.961 . S
C5823 H5839 0.960 . S
H5824 C5808 0.931 . S
H5825 C5813 0.929 . S
H5826 C5814 0.960 . S
H5827 C5814 0.962 . S
H5828 C5814 0.960 . S
H5829 C5815 0.961 . S
H5830 C5815 0.961 . S
H5831 C5815 0.961 . S
H5832 C5816 0.931 . S
H5833 C5821 0.930 . S
H5834 C5822 0.956 . S
H5835 C5822 0.961 . S
H5836 C5822 0.961 . S
H5837 C5823 0.958 . S
H5838 C5823 0.961 . S
H5839 C5823 0.960 . S
C5840 C5841 1.391 . S
C5840 C5842 1.394 . S
C5840 H5856 0.931 . S
C5841 C5840 1.391 . S
C5841 C5845 1.376 . S
C5842 C5840 1.394 . S
C5842 C5843 1.369 . S
C5842 C5846 1.531 . S
C5843 C5842 1.369 . S
C5843 C5844 1.410 . S
C5843 C5851 1.503 . S
C5844 C5843 1.410 . S
C5844 C5845 1.392 . S
C5844 C5847 1.511 . S
C5845 C5841 1.376 . S
C5845 C5844 1.392 . S
C5845 H5857 0.929 . S
C5846 C5842 1.531 . S
C5846 H5858 0.960 . S
C5846 H5859 0.962 . S
C5846 H5860 0.960 . S
C5847 C5844 1.511 . S
C5847 H5861 0.961 . S
C5847 H5862 0.961 . S
C5847 H5863 0.961 . S
C5848 C5849 1.370 . S
C5848 C5850 1.363 . S
C5848 H5864 0.931 . S
C5849 C5848 1.370 . S
C5849 C5853 1.408 . S
C5850 C5848 1.363 . S
C5850 C5851 1.370 . S
C5850 C5854 1.524 . S
C5851 C5843 1.503 . S
C5851 C5850 1.370 . S
C5851 C5852 1.403 . S
C5852 C5851 1.403 . S
C5852 C5853 1.404 . S
C5852 C5855 1.539 . S
C5853 C5849 1.408 . S
C5853 C5852 1.404 . S
C5853 H5865 0.930 . S
C5854 C5850 1.524 . S
C5854 H5866 0.956 . S
C5854 H5867 0.961 . S
C5854 H5868 0.961 . S
C5855 C5852 1.539 . S
C5855 H5869 0.958 . S
C5855 H5870 0.961 . S
C5855 H5871 0.960 . S
H5856 C5840 0.931 . S
H5857 C5845 0.929 . S
H5858 C5846 0.960 . S
H5859 C5846 0.962 . S
H5860 C5846 0.960 . S
H5861 C5847 0.961 . S
H5862 C5847 0.961 . S
H5863 C5847 0.961 . S
H5864 C5848 0.931 . S
H5865 C5853 0.930 . S
H5866 C5854 0.956 . S
H5867 C5854 0.961 . S
H5868 C5854 0.961 . S
H5869 C5855 0.958 . S
H5870 C5855 0.961 . S
H5871 C5855 0.960 . S
C5872 C5873 1.391 . S
C5872 C5874 1.394 . S
C5872 H5888 0.931 . S
C5873 C5872 1.391 . S
C5873 C5877 1.376 . S
C5874 C5872 1.394 . S
C5874 C5875 1.369 . S
C5874 C5878 1.531 . S
C5875 C5874 1.369 . S
C5875 C5876 1.410 . S
C5875 C5883 1.503 . S
C5876 C5875 1.410 . S
C5876 C5877 1.392 . S
C5876 C5879 1.511 . S
C5877 C5873 1.376 . S
C5877 C5876 1.392 . S
C5877 H5889 0.929 . S
C5878 C5874 1.531 . S
C5878 H5890 0.960 . S
C5878 H5891 0.962 . S
C5878 H5892 0.960 . S
C5879 C5876 1.511 . S
C5879 H5893 0.961 . S
C5879 H5894 0.961 . S
C5879 H5895 0.961 . S
C5880 C5881 1.370 . S
C5880 C5882 1.363 . S
C5880 H5896 0.931 . S
C5881 C5880 1.370 . S
C5881 C5885 1.408 . S
C5882 C5880 1.363 . S
C5882 C5883 1.370 . S
C5882 C5886 1.524 . S
C5883 C5875 1.503 . S
C5883 C5882 1.370 . S
C5883 C5884 1.403 . S
C5884 C5883 1.403 . S
C5884 C5885 1.404 . S
C5884 C5887 1.539 . S
C5885 C5881 1.408 . S
C5885 C5884 1.404 . S
C5885 H5897 0.930 . S
C5886 C5882 1.524 . S
C5886 H5898 0.956 . S
C5886 H5899 0.961 . S
C5886 H5900 0.961 . S
C5887 C5884 1.539 . S
C5887 H5901 0.958 . S
C5887 H5902 0.961 . S
C5887 H5903 0.960 . S
H5888 C5872 0.931 . S
H5889 C5877 0.929 . S
H5890 C5878 0.960 . S
H5891 C5878 0.962 . S
H5892 C5878 0.960 . S
H5893 C5879 0.961 . S
H5894 C5879 0.961 . S
H5895 C5879 0.961 . S
H5896 C5880 0.931 . S
H5897 C5885 0.930 . S
H5898 C5886 0.956 . S
H5899 C5886 0.961 . S
H5900 C5886 0.961 . S
H5901 C5887 0.958 . S
H5902 C5887 0.961 . S
H5903 C5887 0.960 . S
C2833 C1183 1.666 . S
C2841 C5 1.689 . S
C2865 C92 1.741 . S
C2873 C1036 1.769 . S
C2897 C123 1.800 . S
C2905 C1095 1.775 . S
C2929 C1154 1.884 . S
C2937 C210 1.874 . S
C2961 C1390 1.862 . S
C2969 C288 1.870 . S
C2993 C298 1.775 . S
C3001 C1272 1.818 . S
C3025 C406 1.663 . S
C3033 C1301 1.696 . S
C3057 C416 1.717 . S
C3065 C947 1.702 . S
C3089 C475 1.677 . S
C3097 C890 1.702 . S
C3121 C583 1.694 . S
C3129 C741 1.746 . S
C3153 C593 1.633 . S
C3161 C772 1.628 . S
C3185 C859 1.748 . S
C3193 C701 1.774 . S
C3217 C1468 1.924 . S
C3225 C2629 1.934 . S
C3249 C2422 1.552 . S
C3257 C1478 1.527 . S
C3281 C1586 1.869 . S
C3289 C2481 1.883 . S
C3313 C2570 1.795 . S
C3321 C1596 1.780 . S
C3345 C1657 1.585 . S
C3353 C2776 1.599 . S
C3377 C2658 1.855 . S
C3385 C1744 1.838 . S
C3409 C1775 1.484 . S
C3417 C2717 1.447 . S
C3441 C2393 1.922 . S
C3449 C1862 1.959 . S
C3473 C1921 1.831 . S
C3481 C2353 1.786 . S
C3505 C2127 1.720 . S
C3513 C1952 1.716 . S
C3537 C2235 1.753 . S
C3545 C2039 1.753 . S
C3569 C2245 1.723 . S
C3577 C2070 1.776 . S
C3601 C1539 1.191 . S
C3609 C52 1.192 . S
C3633 C62 1.161 . S
C3641 C1626 1.149 . S
C3665 C170 1.191 . S
C3673 C1421 1.211 . S
C3697 C180 1.293 . S
C3705 C1508 1.299 . S
C3729 C241 1.348 . S
C3737 C1822 1.323 . S
C3761 C1832 1.234 . S
C3769 C328 1.222 . S
C3793 C1704 1.168 . S
C3801 C359 1.197 . S
C3825 C1714 1.229 . S
C3833 C446 1.222 . S
C3857 C2157 1.317 . S
C3865 C505 1.317 . S
C3889 C536 1.091 . S
C3897 C2188 1.106 . S
C3921 C2275 1.290 . S
C3929 C623 1.303 . S
C3953 C654 1.109 . S
C3961 C2306 1.111 . S
C3985 C711 1.143 . S
C3993 C1891 1.133 . S
C4017 C819 1.233 . S
C4025 C1999 1.238 . S
C4049 C2009 1.124 . S
C4057 C829 1.144 . S
C4081 C2117 1.240 . S
C4089 C937 1.257 . S
C4113 C977 1.282 . S
C4121 C2540 1.254 . S
C4145 C1006 1.178 . S
C4153 C2688 1.204 . S
C4177 C2747 1.342 . S
C4185 C1065 1.320 . S
C4209 C2363 1.014 . S
C4217 C1124 1.029 . S
C4241 C1213 1.252 . S
C4249 C2806 1.258 . S
C4273 C2452 1.379 . S
C4281 C1242 1.361 . S
C4305 C1331 1.342 . S
C4313 C2511 1.329 . S
C4337 C1360 0.999 . S
C4345 C2599 1.036 . S
C4369 C1655 1.833 . S
C4377 C33 1.838 . S
C4401 C1763 1.890 . S
C4409 C64 1.864 . S
C4433 C1773 1.920 . S
C4441 C151 1.944 . S
C4465 C182 1.839 . S
C4473 C1881 1.892 . S
C4497 C1449 1.916 . S
C4505 C239 1.883 . S
C4529 C1480 1.921 . S
C4537 C347 1.937 . S
C4561 C357 1.796 . S
C4569 C1567 1.844 . S
C4593 C1598 1.856 . S
C4601 C465 1.869 . S
C4625 C524 1.820 . S
C4633 C2247 1.816 . S
C4657 C534 1.899 . S
C4665 C2334 1.943 . S
C4689 C2129 1.813 . S
C4697 C642 1.848 . S
C4721 C652 1.934 . S
C4729 C2216 1.959 . S
C4753 C2058 1.977 . S
C4761 C713 1.947 . S
C4785 C800 1.795 . S
C4793 C2068 1.802 . S
C4817 C831 1.932 . S
C4825 C1940 1.969 . S
C4849 C918 1.839 . S
C4857 C1950 1.822 . S
C4881 C2660 1.853 . S
C4889 C996 1.862 . S
C4913 C1008 1.964 . S
C4921 C2589 2.007 . S
C4945 C1067 1.895 . S
C4953 C2648 1.928 . S
C4977 C1126 1.786 . S
C4985 C2424 1.786 . S
C5009 C2483 1.835 . S
C5017 C1232 1.838 . S
C5041 C2412 1.943 . S
C5049 C1244 1.927 . S
C5073 C2778 2.004 . S
C5081 C1350 2.021 . S
C5105 C1362 1.789 . S
C5113 C2719 1.804 . S
C5137 C888 1.502 . S
C5145 C3 1.445 . S
C5169 C111 1.346 . S
C5177 C760 1.382 . S
C5201 C770 1.464 . S
C5209 C121 1.423 . S
C5233 C878 1.387 . S
C5241 C229 1.356 . S
C5265 C564 1.330 . S
C5273 C269 1.325 . S
C5297 C300 1.422 . S
C5305 C595 1.472 . S
C5329 C387 1.384 . S
C5337 C682 1.364 . S
C5361 C477 1.446 . S
C5369 C418 1.455 . S
C5393 C949 1.389 . S
C5401 C1185 1.423 . S
C5425 C1409 1.516 . S
C5433 C1055 1.488 . S
C5457 C1291 1.275 . S
C5465 C1114 1.247 . S
C5489 C1173 1.468 . S
C5497 C1303 1.506 . S
C5521 C2304 1.438 . S
C5529 C1419 1.416 . S
C5553 C2176 1.432 . S
C5561 C1527 1.455 . S
C5585 C1537 1.449 . S
C5593 C2186 1.456 . S
C5617 C2294 1.437 . S
C5625 C1645 1.446 . S
C5649 C1980 1.446 . S
C5657 C1685 1.402 . S
C5681 C1716 1.465 . S
C5689 C2011 1.468 . S
C5713 C1803 1.439 . S
C5721 C2098 1.434 . S
C5745 C1834 1.407 . S
C5753 C1893 1.459 . S
C5777 C2365 1.483 . S
C5785 C2601 1.439 . S
C5809 C2825 1.480 . S
C5817 C2471 1.544 . S
C5841 C2707 1.455 . S
C5849 C2530 1.420 . S
C5873 C2766 1.548 . S
C5881 C2542 1.562 . S
