# Generated by pormake.
# Topology snl, (6)-cn, num edge types: 1
# Building blocks:
#     Node 0, Type 0, BuildingBlock: INOVEN_clean_sbu_0, # of connection points: 6
#     Node 1, Type 0, BuildingBlock: INOVEN_clean_sbu_0, # of connection points: 6
#     Node 2, Type 0, BuildingBlock: INOVEN_clean_sbu_0, # of connection points: 6
#     Node 3, Type 0, BuildingBlock: INOVEN_clean_sbu_0, # of connection points: 6
#     Node 4, Type 0, BuildingBlock: INOVEN_clean_sbu_0, # of connection points: 6
#     Node 5, Type 0, BuildingBlock: INOVEN_clean_sbu_0, # of connection points: 6
#     Node 6, Type 0, BuildingBlock: INOVEN_clean_sbu_0, # of connection points: 6
#     Node 7, Type 0, BuildingBlock: INOVEN_clean_sbu_0, # of connection points: 6
#     Node 8, Type 0, BuildingBlock: INOVEN_clean_sbu_0, # of connection points: 6
#     Node 9, Type 0, BuildingBlock: INOVEN_clean_sbu_0, # of connection points: 6
#     Node 10, Type 0, BuildingBlock: INOVEN_clean_sbu_0, # of connection points: 6
#     Node 11, Type 0, BuildingBlock: INOVEN_clean_sbu_0, # of connection points: 6
#     Node 12, Type 0, BuildingBlock: INOVEN_clean_sbu_0, # of connection points: 6
#     Node 13, Type 0, BuildingBlock: INOVEN_clean_sbu_0, # of connection points: 6
#     Node 14, Type 0, BuildingBlock: INOVEN_clean_sbu_0, # of connection points: 6
#     Node 15, Type 0, BuildingBlock: INOVEN_clean_sbu_0, # of connection points: 6
#     Edge 16, Type (0, 0), BuildingBlock: ZUJKAS_clean_linker_0, # of connection points: 2
#     Edge 17, Type (0, 0), BuildingBlock: ZUJKAS_clean_linker_0, # of connection points: 2
#     Edge 18, Type (0, 0), BuildingBlock: ZUJKAS_clean_linker_0, # of connection points: 2
#     Edge 19, Type (0, 0), BuildingBlock: ZUJKAS_clean_linker_0, # of connection points: 2
#     Edge 20, Type (0, 0), BuildingBlock: ZUJKAS_clean_linker_0, # of connection points: 2
#     Edge 21, Type (0, 0), BuildingBlock: ZUJKAS_clean_linker_0, # of connection points: 2
#     Edge 22, Type (0, 0), BuildingBlock: ZUJKAS_clean_linker_0, # of connection points: 2
#     Edge 23, Type (0, 0), BuildingBlock: ZUJKAS_clean_linker_0, # of connection points: 2
#     Edge 24, Type (0, 0), BuildingBlock: ZUJKAS_clean_linker_0, # of connection points: 2
#     Edge 25, Type (0, 0), BuildingBlock: ZUJKAS_clean_linker_0, # of connection points: 2
#     Edge 26, Type (0, 0), BuildingBlock: ZUJKAS_clean_linker_0, # of connection points: 2
#     Edge 27, Type (0, 0), BuildingBlock: ZUJKAS_clean_linker_0, # of connection points: 2
#     Edge 28, Type (0, 0), BuildingBlock: ZUJKAS_clean_linker_0, # of connection points: 2
#     Edge 29, Type (0, 0), BuildingBlock: ZUJKAS_clean_linker_0, # of connection points: 2
#     Edge 30, Type (0, 0), BuildingBlock: ZUJKAS_clean_linker_0, # of connection points: 2
#     Edge 31, Type (0, 0), BuildingBlock: ZUJKAS_clean_linker_0, # of connection points: 2
#     Edge 32, Type (0, 0), BuildingBlock: ZUJKAS_clean_linker_0, # of connection points: 2
#     Edge 33, Type (0, 0), BuildingBlock: ZUJKAS_clean_linker_0, # of connection points: 2
#     Edge 34, Type (0, 0), BuildingBlock: ZUJKAS_clean_linker_0, # of connection points: 2
#     Edge 35, Type (0, 0), BuildingBlock: ZUJKAS_clean_linker_0, # of connection points: 2
#     Edge 36, Type (0, 0), BuildingBlock: ZUJKAS_clean_linker_0, # of connection points: 2
#     Edge 37, Type (0, 0), BuildingBlock: ZUJKAS_clean_linker_0, # of connection points: 2
#     Edge 38, Type (0, 0), BuildingBlock: ZUJKAS_clean_linker_0, # of connection points: 2
#     Edge 39, Type (0, 0), BuildingBlock: ZUJKAS_clean_linker_0, # of connection points: 2
#     Edge 40, Type (0, 0), BuildingBlock: ZUJKAS_clean_linker_0, # of connection points: 2
#     Edge 41, Type (0, 0), BuildingBlock: ZUJKAS_clean_linker_0, # of connection points: 2
#     Edge 42, Type (0, 0), BuildingBlock: ZUJKAS_clean_linker_0, # of connection points: 2
#     Edge 43, Type (0, 0), BuildingBlock: ZUJKAS_clean_linker_0, # of connection points: 2
#     Edge 44, Type (0, 0), BuildingBlock: ZUJKAS_clean_linker_0, # of connection points: 2
#     Edge 45, Type (0, 0), BuildingBlock: ZUJKAS_clean_linker_0, # of connection points: 2
#     Edge 46, Type (0, 0), BuildingBlock: ZUJKAS_clean_linker_0, # of connection points: 2
#     Edge 47, Type (0, 0), BuildingBlock: ZUJKAS_clean_linker_0, # of connection points: 2
#     Edge 48, Type (0, 0), BuildingBlock: ZUJKAS_clean_linker_0, # of connection points: 2
#     Edge 49, Type (0, 0), BuildingBlock: ZUJKAS_clean_linker_0, # of connection points: 2
#     Edge 50, Type (0, 0), BuildingBlock: ZUJKAS_clean_linker_0, # of connection points: 2
#     Edge 51, Type (0, 0), BuildingBlock: ZUJKAS_clean_linker_0, # of connection points: 2
#     Edge 52, Type (0, 0), BuildingBlock: ZUJKAS_clean_linker_0, # of connection points: 2
#     Edge 53, Type (0, 0), BuildingBlock: ZUJKAS_clean_linker_0, # of connection points: 2
#     Edge 54, Type (0, 0), BuildingBlock: ZUJKAS_clean_linker_0, # of connection points: 2
#     Edge 55, Type (0, 0), BuildingBlock: ZUJKAS_clean_linker_0, # of connection points: 2
#     Edge 56, Type (0, 0), BuildingBlock: ZUJKAS_clean_linker_0, # of connection points: 2
#     Edge 57, Type (0, 0), BuildingBlock: ZUJKAS_clean_linker_0, # of connection points: 2
#     Edge 58, Type (0, 0), BuildingBlock: ZUJKAS_clean_linker_0, # of connection points: 2
#     Edge 59, Type (0, 0), BuildingBlock: ZUJKAS_clean_linker_0, # of connection points: 2
#     Edge 60, Type (0, 0), BuildingBlock: ZUJKAS_clean_linker_0, # of connection points: 2
#     Edge 61, Type (0, 0), BuildingBlock: ZUJKAS_clean_linker_0, # of connection points: 2
#     Edge 62, Type (0, 0), BuildingBlock: ZUJKAS_clean_linker_0, # of connection points: 2
#     Edge 63, Type (0, 0), BuildingBlock: ZUJKAS_clean_linker_0, # of connection points: 2
# Relax obj value: 0.187
# Max RMSD: 0.265
# Mean RMSD: 0.221
data_MOF--net-snl--node1-INOVEN_clean_sbu_0--edge1-ZUJKAS_clean_linker_0
_symmetry_space_group_name_H-M    P1
_symmetry_Int_Tables_number       1
_symmetry_cell_setting            triclinic
loop_
_symmetry_equiv_pos_as_xyz
'x, y, z'
_cell_length_a     74.653133
_cell_length_b     74.912207
_cell_length_c     30.491328
_cell_angle_alpha  100.19456
_cell_angle_beta   91.474206
_cell_angle_gamma 89.993965
loop_
_atom_site_label
_atom_site_type_symbol
_atom_site_fract_x
_atom_site_fract_y
_atom_site_fract_z
_atom_type_partial_charge
Gd0 Gd 0.14522 0.62949 0.11932 0.0
Gd1 Gd 0.13159 0.63375 0.21077 0.0
C2 C 0.10217 0.63503 0.13604 0.0
C3 C 0.15209 0.61923 0.03551 0.0
C4 C 0.14691 0.62171 0.98975 0.0
C5 C 0.14613 0.63899 0.97775 0.0
C6 C 0.14431 0.60634 0.95647 0.0
C7 C 0.14135 0.62534 0.89942 0.0
C8 C 0.14153 0.60811 0.91186 0.0
C9 C 0.1434 0.64077 0.93307 0.0
C10 C 0.14463 0.66471 0.16116 0.0
C11 C 0.17445 0.62936 0.19783 0.0
C12 C 0.12423 0.64279 0.29456 0.0
C13 C 0.12938 0.64005 0.34017 0.0
C14 C 0.12992 0.62271 0.35183 0.0
C15 C 0.13218 0.6553 0.37371 0.0
C16 C 0.13497 0.63608 0.43028 0.0
C17 C 0.13498 0.65336 0.41818 0.0
C18 C 0.13268 0.62076 0.3964 0.0
C19 C 0.13248 0.59886 0.16563 0.0
O20 O 0.11459 0.6278 0.10789 0.0
O21 O 0.10667 0.64181 0.17768 0.0
O22 O 0.16019 0.63273 0.06145 0.0
O23 O 0.14093 0.6106 0.0568 0.0
O24 O 0.15699 0.65752 0.13481 0.0
O25 O 0.13255 0.65304 0.16305 0.0
O26 O 0.16147 0.63585 0.22465 0.0
O27 O 0.1709 0.62318 0.15503 0.0
O28 O 0.11659 0.62925 0.26763 0.0
O29 O 0.13516 0.65209 0.27428 0.0
O30 O 0.11981 0.60529 0.19199 0.0
O31 O 0.14438 0.61077 0.16641 0.0
H32 H 0.14805 0.65111 1.00269 0.0
H33 H 0.145 0.59288 0.9648 0.0
H34 H 0.14021 0.59592 0.88692 0.0
H35 H 0.14307 0.65424 0.92482 0.0
H36 H 0.12781 0.61068 0.32672 0.0
H37 H 0.13166 0.66882 0.36569 0.0
H38 H 0.13648 0.66548 0.4433 0.0
H39 H 0.13284 0.60724 0.40438 0.0
Gd40 Gd 0.64695 0.88977 0.41089 0.0
Gd41 Gd 0.63178 0.88621 0.31881 0.0
C42 C 0.60349 0.88438 0.39271 0.0
C43 C 0.65502 0.8994 0.49522 0.0
C44 C 0.64982 0.89741 0.54077 0.0
C45 C 0.64993 0.88046 0.5546 0.0
C46 C 0.64641 0.91302 0.57231 0.0
C47 C 0.64441 0.89497 0.63132 0.0
C48 C 0.64369 0.91182 0.61697 0.0
C49 C 0.64724 0.87926 0.59933 0.0
C50 C 0.64579 0.85495 0.36681 0.0
C51 C 0.67503 0.89011 0.33353 0.0
C52 C 0.62333 0.87768 0.23448 0.0
C53 C 0.62853 0.87991 0.18907 0.0
C54 C 0.62803 0.8969 0.17541 0.0
C55 C 0.63231 0.86445 0.15742 0.0
C56 C 0.63397 0.88267 0.0987 0.0
C57 C 0.63505 0.8658 0.11287 0.0
C58 C 0.63075 0.89825 0.13077 0.0
C59 C 0.63336 0.92077 0.36566 0.0
O60 O 0.6165 0.89105 0.42156 0.0
O61 O 0.6071 0.87831 0.35065 0.0
O62 O 0.66185 0.8853 0.46975 0.0
O63 O 0.6446 0.90893 0.47315 0.0
O64 O 0.65863 0.8619 0.39377 0.0
O65 O 0.63358 0.86658 0.36557 0.0
O66 O 0.6615 0.88421 0.30601 0.0
O67 O 0.6723 0.89584 0.3765 0.0
O68 O 0.61688 0.89175 0.26086 0.0
O69 O 0.63353 0.86759 0.25562 0.0
O70 O 0.62024 0.91448 0.33872 0.0
O71 O 0.6453 0.90888 0.36466 0.0
H72 H 0.65261 0.86816 0.5312 0.0
H73 H 0.64633 0.92626 0.56263 0.0
H74 H 0.64123 0.92418 0.64038 0.0
H75 H 0.64805 0.86607 0.6091 0.0
H76 H 0.62503 0.90909 0.19887 0.0
H77 H 0.63268 0.85118 0.16691 0.0
H78 H 0.63781 0.85354 0.08938 0.0
H79 H 0.62967 0.91145 0.12112 0.0
Gd80 Gd 0.37284 0.38908 0.57638 0.0
Gd81 Gd 0.38856 0.39559 0.67382 0.0
C82 C 0.41592 0.38466 0.59581 0.0
C83 C 0.36305 0.39715 0.50032 0.0
C84 C 0.36642 0.39367 0.45207 0.0
C85 C 0.36706 0.37608 0.42681 0.0
C86 C 0.36846 0.4086 0.43062 0.0
C87 C 0.37151 0.38856 0.35907 0.0
C88 C 0.37098 0.4061 0.38474 0.0
C89 C 0.36955 0.37355 0.38066 0.0
C90 C 0.37763 0.35617 0.60126 0.0
C91 C 0.3455 0.39219 0.65802 0.0
C92 C 0.39749 0.39839 0.75744 0.0
C93 C 0.39141 0.39562 0.80167 0.0
C94 C 0.38884 0.41083 0.83507 0.0
C95 C 0.38997 0.37822 0.81265 0.0
C96 C 0.38462 0.39144 0.89028 0.0
C97 C 0.38655 0.37616 0.85649 0.0
C98 C 0.38543 0.40878 0.87875 0.0
C99 C 0.38782 0.42439 0.63006 0.0
O100 O 0.40323 0.3884 0.56736 0.0
O101 O 0.41266 0.38423 0.63793 0.0
O102 O 0.35521 0.38446 0.51776 0.0
O103 O 0.37564 0.4059 0.52621 0.0
O104 O 0.37163 0.35842 0.56221 0.0
O105 O 0.38107 0.3716 0.62448 0.0
O106 O 0.35947 0.39079 0.68472 0.0
O107 O 0.3473 0.39357 0.61554 0.0
O108 O 0.38998 0.41151 0.74042 0.0
O109 O 0.40107 0.3841 0.72742 0.0
O110 O 0.40117 0.42083 0.65512 0.0
O111 O 0.37569 0.41268 0.62994 0.0
H112 H 0.36555 0.36432 0.4426 0.0
H113 H 0.36788 0.42229 0.44939 0.0
H114 H 0.37213 0.41798 0.36923 0.0
H115 H 0.37005 0.35987 0.36194 0.0
H116 H 0.39 0.42441 0.82771 0.0
H117 H 0.39202 0.3662 0.78778 0.0
H118 H 0.38613 0.36261 0.86426 0.0
H119 H 0.38371 0.42084 0.90371 0.0
Gd120 Gd 0.88077 0.11847 0.84846 0.0
Gd121 Gd 0.88132 0.13668 0.95002 0.0
C122 C 0.8855 0.16256 0.87961 0.0
C123 C 0.86892 0.10795 0.7674 0.0
C124 C 0.87176 0.11093 0.72105 0.0
C125 C 0.88508 0.10151 0.6945 0.0
C126 C 0.86016 0.12235 0.70179 0.0
C127 C 0.87492 0.11469 0.63038 0.0
C128 C 0.86176 0.12426 0.6572 0.0
C129 C 0.88667 0.10341 0.6498 0.0
C130 C 0.91545 0.12561 0.87635 0.0
C131 C 0.87949 0.09249 0.924 0.0
C132 C 0.88697 0.14677 0.03519 0.0
C133 C 0.88483 0.14084 0.07882 0.0
C134 C 0.87271 0.15003 0.10935 0.0
C135 C 0.89566 0.12726 0.0921 0.0
C136 C 0.88263 0.13265 0.16601 0.0
C137 C 0.89457 0.12323 0.13519 0.0
C138 C 0.87157 0.14595 0.15227 0.0
C139 C 0.84912 0.13413 0.90512 0.0
O140 O 0.87938 0.14903 0.84853 0.0
O141 O 0.89038 0.16001 0.91998 0.0
O142 O 0.88126 0.09915 0.78637 0.0
O143 O 0.86192 0.12138 0.79512 0.0
O144 O 0.91052 0.11814 0.83619 0.0
O145 O 0.90156 0.12887 0.89927 0.0
O146 O 0.88101 0.10718 0.95511 0.0
O147 O 0.87832 0.0933 0.88072 0.0
O148 O 0.87239 0.15067 0.01416 0.0
O149 O 0.89905 0.13868 1.00822 0.0
O150 O 0.85387 0.14786 0.93547 0.0
O151 O 0.86127 0.12233 0.90169 0.0
H152 H 0.8941 0.0924 0.70796 0.0
H153 H 0.84962 0.12966 0.72105 0.0
H154 H 0.85262 0.13327 0.64374 0.0
H155 H 0.89682 0.09563 0.63014 0.0
H156 H 0.86437 0.16073 0.10039 0.0
H157 H 0.9052 0.11995 0.06954 0.0
H158 H 0.90315 0.11277 0.14444 0.0
H159 H 0.8624 0.15368 0.17518 0.0
Gd160 Gd 0.14373 0.38944 0.93537 0.0
Gd161 Gd 0.12876 0.38563 0.84254 0.0
C162 C 0.10054 0.38376 0.91619 0.0
C163 C 0.15152 0.3995 0.01972 0.0
C164 C 0.14656 0.39712 0.06512 0.0
C165 C 0.14604 0.37993 0.07755 0.0
C166 C 0.14387 0.41255 0.09777 0.0
C167 C 0.14121 0.39379 0.1551 0.0
C168 C 0.14118 0.41092 0.14218 0.0
C169 C 0.14341 0.37829 0.12204 0.0
C170 C 0.14282 0.35449 0.8918 0.0
C171 C 0.17173 0.39018 0.85809 0.0
C172 C 0.12051 0.37692 0.75816 0.0
C173 C 0.12559 0.37959 0.71303 0.0
C174 C 0.12602 0.39688 0.70109 0.0
C175 C 0.12852 0.36431 0.68009 0.0
C176 C 0.13128 0.3834 0.62348 0.0
C177 C 0.13137 0.36617 0.63591 0.0
C178 C 0.12882 0.39875 0.65681 0.0
C179 C 0.13018 0.42025 0.88925 0.0
O180 O 0.11332 0.39082 0.94515 0.0
O181 O 0.10436 0.37733 0.87446 0.0
O182 O 0.1591 0.38585 0.99429 0.0
O183 O 0.14045 0.40839 0.99763 0.0
O184 O 0.15523 0.36144 0.92008 0.0
O185 O 0.13069 0.36612 0.88954 0.0
O186 O 0.15841 0.38387 0.83041 0.0
O187 O 0.16887 0.39598 0.90096 0.0
O188 O 0.11349 0.39064 0.78465 0.0
O189 O 0.13118 0.36723 0.77921 0.0
O190 O 0.11721 0.41398 0.86183 0.0
O191 O 0.14207 0.40835 0.88864 0.0
H192 H 0.14806 0.36776 0.05315 0.0
H193 H 0.14437 0.42597 0.08915 0.0
H194 H 0.13974 0.42317 0.16667 0.0
H195 H 0.14323 0.36486 0.13061 0.0
H196 H 0.12381 0.40894 0.7257 0.0
H197 H 0.12808 0.35082 0.68827 0.0
H198 H 0.13299 0.35403 0.61119 0.0
H199 H 0.12892 0.41224 0.64862 0.0
Gd200 Gd 0.87815 0.89818 0.17218 0.0
Gd201 Gd 0.87751 0.87943 0.07058 0.0
C202 C 0.88306 0.854 0.14251 0.0
C203 C 0.86682 0.90914 0.25202 0.0
C204 C 0.8697 0.90676 0.29886 0.0
C205 C 0.8868 0.90396 0.31677 0.0
C206 C 0.85487 0.90754 0.32642 0.0
C207 C 0.87409 0.90325 0.38969 0.0
C208 C 0.85701 0.90581 0.3712 0.0
C209 C 0.88897 0.90221 0.36174 0.0
C210 C 0.91248 0.89198 0.14526 0.0
C211 C 0.87718 0.92366 0.09586 0.0
C212 C 0.88119 0.86897 0.98537 0.0
C213 C 0.88192 0.87554 0.94209 0.0
C214 C 0.86622 0.88028 0.92036 0.0
C215 C 0.89819 0.8752 0.91974 0.0
C216 C 0.88293 0.88332 0.85414 0.0
C217 C 0.89871 0.8791 0.87646 0.0
C218 C 0.86673 0.88415 0.87706 0.0
C219 C 0.84604 0.88175 0.1146 0.0
O220 O 0.87747 0.86767 0.17312 0.0
O221 O 0.88669 0.85612 0.10154 0.0
O222 O 0.87926 0.91766 0.23395 0.0
O223 O 0.8598 0.89533 0.22452 0.0
O224 O 0.90813 0.89951 0.18523 0.0
O225 O 0.89822 0.88811 0.12227 0.0
O226 O 0.87932 0.9089 0.06552 0.0
O227 O 0.87503 0.92298 0.13876 0.0
O228 O 0.86578 0.86967 1.00509 0.0
O229 O 0.89479 0.8726 0.01361 0.0
O230 O 0.85065 0.86775 0.08559 0.0
O231 O 0.85804 0.89377 0.11778 0.0
H232 H 0.89846 0.90325 0.29614 0.0
H233 H 0.84154 0.90958 0.31326 0.0
H234 H 0.84519 0.90632 0.39125 0.0
H235 H 0.90234 0.90039 0.37479 0.0
H236 H 0.85338 0.88048 0.93621 0.0
H237 H 0.9105 0.87144 0.9353 0.0
H238 H 0.91149 0.8786 0.86032 0.0
H239 H 0.85426 0.88711 0.86095 0.0
Gd240 Gd 0.37813 0.616 0.364 0.0
Gd241 Gd 0.38029 0.63335 0.46637 0.0
C242 C 0.38324 0.66003 0.39673 0.0
C243 C 0.36504 0.60578 0.28401 0.0
C244 C 0.36755 0.60851 0.23761 0.0
C245 C 0.38463 0.60886 0.21938 0.0
C246 C 0.3524 0.61036 0.21062 0.0
C247 C 0.37123 0.61228 0.14726 0.0
C248 C 0.35419 0.61224 0.16607 0.0
C249 C 0.38644 0.61072 0.17468 0.0
C250 C 0.41307 0.62312 0.38884 0.0
C251 C 0.37806 0.58909 0.43806 0.0
C252 C 0.38802 0.64267 0.55084 0.0
C253 C 0.38634 0.63695 0.59484 0.0
C254 C 0.36961 0.63588 0.61449 0.0
C255 C 0.40192 0.63412 0.61948 0.0
C256 C 0.3842 0.63016 0.68337 0.0
C257 C 0.40087 0.63071 0.66307 0.0
C258 C 0.36856 0.6325 0.65817 0.0
C259 C 0.34745 0.63117 0.42486 0.0
O260 O 0.37645 0.64673 0.36591 0.0
O261 O 0.38882 0.65706 0.43633 0.0
O262 O 0.37742 0.59671 0.30203 0.0
O263 O 0.3588 0.61959 0.31191 0.0
O264 O 0.40763 0.61595 0.34884 0.0
O265 O 0.39953 0.62609 0.41306 0.0
O266 O 0.37931 0.60357 0.47004 0.0
O267 O 0.37691 0.59036 0.39502 0.0
O268 O 0.37351 0.64787 0.53168 0.0
O269 O 0.39896 0.6335 0.52239 0.0
O270 O 0.35247 0.64456 0.45591 0.0
O271 O 0.35963 0.61943 0.41934 0.0
H272 H 0.39656 0.60751 0.23948 0.0
H273 H 0.3391 0.61023 0.22399 0.0
H274 H 0.34218 0.61376 0.14642 0.0
H275 H 0.39976 0.61053 0.16139 0.0
H276 H 0.35733 0.63811 0.59661 0.0
H277 H 0.415 0.63495 0.60536 0.0
H278 H 0.4132 0.62867 0.681 0.0
H279 H 0.35549 0.63235 0.6727 0.0
Gd280 Gd 0.64579 0.12823 0.60116 0.0
Gd281 Gd 0.63269 0.13281 0.69347 0.0
C282 C 0.60284 0.13419 0.61953 0.0
C283 C 0.65221 0.11725 0.51738 0.0
C284 C 0.64706 0.11968 0.47161 0.0
C285 C 0.64569 0.13697 0.45992 0.0
C286 C 0.64509 0.10431 0.43809 0.0
C287 C 0.64161 0.12338 0.38134 0.0
C288 C 0.64236 0.10612 0.39349 0.0
C289 C 0.64301 0.13879 0.41526 0.0
C290 C 0.64544 0.16353 0.64202 0.0
C291 C 0.67549 0.12871 0.67924 0.0
C292 C 0.62563 0.14201 0.77737 0.0
C293 C 0.63075 0.13919 0.82287 0.0
C294 C 0.63186 0.12177 0.83394 0.0
C295 C 0.63296 0.15437 0.85685 0.0
C296 C 0.63625 0.13491 0.91274 0.0
C297 C 0.63571 0.15228 0.90122 0.0
C298 C 0.63457 0.11966 0.87842 0.0
C299 C 0.63374 0.09784 0.64876 0.0
O300 O 0.61505 0.12683 0.5909 0.0
O301 O 0.60762 0.14093 0.66101 0.0
O302 O 0.66077 0.1306 0.54273 0.0
O303 O 0.64077 0.10917 0.53923 0.0
O304 O 0.65734 0.15631 0.61432 0.0
O305 O 0.63346 0.15191 0.64525 0.0
O306 O 0.66262 0.13515 0.70643 0.0
O307 O 0.67176 0.12237 0.63658 0.0
O308 O 0.61772 0.12859 0.75059 0.0
O309 O 0.63671 0.15109 0.75694 0.0
O310 O 0.62113 0.10419 0.67539 0.0
O311 O 0.64544 0.10989 0.64906 0.0
H312 H 0.64712 0.14908 0.48511 0.0
H313 H 0.64622 0.09084 0.44624 0.0
H314 H 0.64154 0.09395 0.36835 0.0
H315 H 0.64222 0.15229 0.40722 0.0
H316 H 0.63023 0.10979 0.80843 0.0
H317 H 0.632 0.16794 0.84923 0.0
H318 H 0.63673 0.16433 0.92669 0.0
H319 H 0.63518 0.10608 0.88597 0.0
Gd320 Gd 0.88119 0.38416 0.83631 0.0
Gd321 Gd 0.86732 0.389 0.92815 0.0
C322 C 0.83843 0.38751 0.84885 0.0
C323 C 0.88871 0.37481 0.75269 0.0
C324 C 0.88379 0.37768 0.70698 0.0
C325 C 0.88706 0.39429 0.69308 0.0
C326 C 0.8774 0.36296 0.67535 0.0
C327 C 0.87864 0.38103 0.61628 0.0
C328 C 0.8748 0.36462 0.63062 0.0
C329 C 0.88448 0.39595 0.64828 0.0
C330 C 0.87958 0.41927 0.87973 0.0
C331 C 0.91032 0.38372 0.91202 0.0
C332 C 0.86027 0.3999 1.01159 0.0
C333 C 0.86514 0.39733 0.05753 0.0
C334 C 0.86247 0.38065 0.07157 0.0
C335 C 0.87094 0.41233 0.08908 0.0
C336 C 0.87033 0.39434 0.14844 0.0
C337 C 0.87356 0.41085 0.13393 0.0
C338 C 0.86505 0.37918 0.11648 0.0
C339 C 0.86852 0.35361 0.88762 0.0
O340 O 0.85146 0.3805 0.82295 0.0
O341 O 0.84188 0.39494 0.89096 0.0
O342 O 0.89669 0.38809 0.77973 0.0
O343 O 0.87746 0.36582 0.7729 0.0
O344 O 0.8923 0.41292 0.85346 0.0
O345 O 0.86796 0.40716 0.8797 0.0
O346 O 0.89787 0.39123 0.93966 0.0
O347 O 0.9059 0.37641 0.87066 0.0
O348 O 0.85168 0.38673 0.98565 0.0
O349 O 0.87191 0.40799 0.9903 0.0
O350 O 0.85633 0.36057 0.91483 0.0
O351 O 0.88031 0.36547 0.8852 0.0
H352 H 0.89212 0.40588 0.71648 0.0
H353 H 0.87487 0.34997 0.68501 0.0
H354 H 0.87 0.35293 0.60714 0.0
H355 H 0.88774 0.40874 0.63847 0.0
H356 H 0.85791 0.36883 0.04817 0.0
H357 H 0.87301 0.42537 0.07923 0.0
H358 H 0.87794 0.42274 0.15734 0.0
H359 H 0.86225 0.36629 0.12636 0.0
Gd360 Gd 0.3826 0.13647 0.68661 0.0
Gd361 Gd 0.36801 0.13289 0.59537 0.0
C362 C 0.3396 0.13237 0.67205 0.0
C363 C 0.39091 0.14512 0.77099 0.0
C364 C 0.38579 0.143 0.81648 0.0
C365 C 0.38505 0.12592 0.82951 0.0
C366 C 0.38329 0.15859 0.84873 0.0
C367 C 0.38054 0.14025 0.90686 0.0
C368 C 0.38066 0.15726 0.8933 0.0
C369 C 0.38242 0.12456 0.87421 0.0
C370 C 0.38114 0.10159 0.64078 0.0
C371 C 0.41142 0.13762 0.61436 0.0
C372 C 0.36013 0.1236 0.51075 0.0
C373 C 0.36451 0.12706 0.46566 0.0
C374 C 0.35562 0.14078 0.44762 0.0
C375 C 0.37607 0.11543 0.43832 0.0
C376 C 0.36916 0.13069 0.37549 0.0
C377 C 0.37844 0.11727 0.39386 0.0
C378 C 0.35795 0.14259 0.40321 0.0
C379 C 0.36971 0.16816 0.63755 0.0
O380 O 0.35297 0.13881 0.6994 0.0
O381 O 0.34259 0.12636 0.62933 0.0
O382 O 0.39741 0.13103 0.74478 0.0
O383 O 0.38064 0.15509 0.74973 0.0
O384 O 0.39413 0.10813 0.6678 0.0
O385 O 0.36916 0.11344 0.6409 0.0
O386 O 0.39854 0.13072 0.58541 0.0
O387 O 0.40747 0.14426 0.65582 0.0
O388 O 0.35192 0.13639 0.53744 0.0
O389 O 0.37182 0.11497 0.53185 0.0
O390 O 0.35682 0.16103 0.61107 0.0
O391 O 0.38164 0.1563 0.63987 0.0
H392 H 0.38701 0.11362 0.80549 0.0
H393 H 0.38386 0.17193 0.83965 0.0
H394 H 0.37893 0.16961 0.91728 0.0
H395 H 0.38252 0.11125 0.88342 0.0
H396 H 0.34646 0.14988 0.46745 0.0
H397 H 0.38289 0.10452 0.45086 0.0
H398 H 0.38703 0.10774 0.37342 0.0
H399 H 0.35079 0.15324 0.39043 0.0
Gd400 Gd 0.63762 0.6389 0.44868 0.0
Gd401 Gd 0.63358 0.6207 0.35304 0.0
C402 C 0.63791 0.59477 0.42524 0.0
C403 C 0.63555 0.65008 0.53415 0.0
C404 C 0.63543 0.64414 0.57821 0.0
C405 C 0.65127 0.63904 0.59871 0.0
C406 C 0.61955 0.64545 0.60232 0.0
C407 C 0.63546 0.63762 0.66727 0.0
C408 C 0.61954 0.64218 0.64615 0.0
C409 C 0.65126 0.63577 0.64263 0.0
C410 C 0.66825 0.6362 0.40158 0.0
C411 C 0.63208 0.66514 0.37942 0.0
C412 C 0.63621 0.60959 0.26764 0.0
C413 C 0.6369 0.61544 0.22354 0.0
C414 C 0.6213 0.62053 0.20202 0.0
C415 C 0.65301 0.61394 0.2003 0.0
C416 C 0.63777 0.62158 0.13424 0.0
C417 C 0.65345 0.61702 0.15633 0.0
C418 C 0.62175 0.62361 0.158 0.0
C419 C 0.60264 0.62313 0.39832 0.0
O420 O 0.63504 0.60948 0.45513 0.0
O421 O 0.63998 0.59573 0.38269 0.0
O422 O 0.65057 0.6491 0.51273 0.0
O423 O 0.62153 0.64612 0.50752 0.0
O424 O 0.66401 0.65033 0.43054 0.0
O425 O 0.65646 0.62403 0.40005 0.0
O426 O 0.6358 0.65088 0.34847 0.0
O427 O 0.62953 0.66334 0.42101 0.0
O428 O 0.62101 0.61103 0.28831 0.0
O429 O 0.65008 0.61313 0.29494 0.0
O430 O 0.60732 0.60915 0.36948 0.0
O431 O 0.6144 0.63549 0.40111 0.0
H432 H 0.66381 0.63807 0.58137 0.0
H433 H 0.60716 0.64951 0.58769 0.0
H434 H 0.60704 0.64345 0.66368 0.0
H435 H 0.66382 0.63246 0.65781 0.0
H436 H 0.6086 0.62161 0.21862 0.0
H437 H 0.66522 0.60988 0.21573 0.0
H438 H 0.6661 0.61561 0.13946 0.0
H439 H 0.60935 0.62691 0.14206 0.0
Gd440 Gd 0.13506 0.87984 0.07254 0.0
Gd441 Gd 0.13638 0.89879 0.17384 0.0
C442 C 0.13792 0.92413 0.09717 0.0
C443 C 0.12938 0.8696 0.98729 0.0
C444 C 0.1307 0.87579 0.94358 0.0
C445 C 0.14665 0.87353 0.91961 0.0
C446 C 0.11549 0.8823 0.92327 0.0
C447 C 0.13201 0.88359 0.85563 0.0
C448 C 0.11615 0.88619 0.87999 0.0
C449 C 0.14731 0.87742 0.87636 0.0
C450 C 0.16722 0.88143 0.1172 0.0
C451 C 0.12994 0.85476 0.1445 0.0
C452 C 0.14876 0.90921 0.2545 0.0
C453 C 0.14604 0.90644 0.30095 0.0
C454 C 0.12938 0.90928 0.32153 0.0
C455 C 0.16071 0.90144 0.3258 0.0
C456 C 0.14232 0.90255 0.39139 0.0
C457 C 0.15889 0.89948 0.37031 0.0
C458 C 0.12755 0.90736 0.3662 0.0
C459 C 0.10149 0.89289 0.14631 0.0
O460 O 0.13566 0.90932 0.06665 0.0
O461 O 0.13962 0.92354 0.14049 0.0
O462 O 0.14432 0.86659 1.00815 0.0
O463 O 0.11698 0.87678 0.01457 0.0
O464 O 0.16181 0.86753 0.08813 0.0
O465 O 0.15564 0.89379 0.12009 0.0
O466 O 0.13668 0.86827 0.17476 0.0
O467 O 0.1252 0.85706 0.1038 0.0
O468 O 0.13651 0.91819 0.23576 0.0
O469 O 0.15534 0.8955 0.2269 0.0
O470 O 0.10662 0.90056 0.1862 0.0
O471 O 0.1153 0.88883 0.12363 0.0
H472 H 0.15856 0.86826 0.93375 0.0
H473 H 0.10292 0.88402 0.94046 0.0
H474 H 0.10415 0.89113 0.86548 0.0
H475 H 0.15969 0.87498 0.85859 0.0
H476 H 0.1178 0.91318 0.30333 0.0
H477 H 0.17371 0.89916 0.3108 0.0
H478 H 0.1705 0.89544 0.38813 0.0
H479 H 0.11462 0.91003 0.38125 0.0
Gd480 Gd 0.88232 0.63256 0.20197 0.0
Gd481 Gd 0.86797 0.62861 0.1094 0.0
C482 C 0.83928 0.62849 0.18534 0.0
C483 C 0.89019 0.64141 0.28651 0.0
C484 C 0.88502 0.63889 0.33168 0.0
C485 C 0.88627 0.62193 0.3453 0.0
C486 C 0.88047 0.65413 0.36321 0.0
C487 C 0.87956 0.63579 0.42178 0.0
C488 C 0.87772 0.65261 0.40763 0.0
C489 C 0.88354 0.6204 0.38982 0.0
C490 C 0.88085 0.59778 0.15633 0.0
C491 C 0.91121 0.63418 0.1297 0.0
C492 C 0.86046 0.61867 0.02489 0.0
C493 C 0.86574 0.6208 0.97952 0.0
C494 C 0.86501 0.63769 0.96546 0.0
C495 C 0.86983 0.6053 0.94829 0.0
C496 C 0.87131 0.62331 0.88911 0.0
C497 C 0.87264 0.60654 0.9037 0.0
C498 C 0.86778 0.63893 0.9208 0.0
C499 C 0.86896 0.66365 0.15249 0.0
O500 O 0.85255 0.63474 0.21332 0.0
O501 O 0.84241 0.62244 0.14273 0.0
O502 O 0.89734 0.62769 0.26035 0.0
O503 O 0.87957 0.65101 0.26506 0.0
O504 O 0.89378 0.60415 0.18375 0.0
O505 O 0.86903 0.60971 0.15613 0.0
O506 O 0.89853 0.62712 0.10036 0.0
O507 O 0.90711 0.64064 0.1712 0.0
O508 O 0.85314 0.63256 0.05002 0.0
O509 O 0.87109 0.60949 0.04735 0.0
O510 O 0.8563 0.65655 0.12515 0.0
O511 O 0.88108 0.65201 0.15459 0.0
H512 H 0.88986 0.60991 0.32192 0.0
H513 H 0.87951 0.66738 0.35374 0.0
H514 H 0.87437 0.66469 0.43105 0.0
H515 H 0.88522 0.60726 0.39948 0.0
H516 H 0.86179 0.6499 0.98862 0.0
H517 H 0.87039 0.5921 0.95815 0.0
H518 H 0.87564 0.59427 0.88051 0.0
H519 H 0.86649 0.65205 0.91084 0.0
Gd520 Gd 0.14038 0.13658 0.94763 0.0
Gd521 Gd 0.13834 0.11851 0.84639 0.0
C522 C 0.13982 0.09243 0.92155 0.0
C523 C 0.13785 0.14696 0.03314 0.0
C524 C 0.13738 0.14033 0.07633 0.0
C525 C 0.15337 0.1382 0.10029 0.0
C526 C 0.12098 0.13806 0.09643 0.0
C527 C 0.13659 0.1326 0.16419 0.0
C528 C 0.12058 0.13415 0.13973 0.0
C529 C 0.15298 0.13435 0.14353 0.0
C530 C 0.17127 0.13454 0.90138 0.0
C531 C 0.13414 0.16276 0.8777 0.0
C532 C 0.14891 0.10774 0.76585 0.0
C533 C 0.14595 0.11057 0.71937 0.0
C534 C 0.12875 0.11057 0.69945 0.0
C535 C 0.16091 0.11293 0.69405 0.0
C536 C 0.14169 0.11503 0.62926 0.0
C537 C 0.15883 0.11514 0.64963 0.0
C538 C 0.12665 0.11273 0.65478 0.0
C539 C 0.10435 0.12523 0.875 0.0
O540 O 0.13845 0.10712 0.95246 0.0
O541 O 0.14119 0.0933 0.87851 0.0
O542 O 0.15304 0.14568 1.01232 0.0
O543 O 0.12389 0.14392 1.00586 0.0
O544 O 0.16686 0.14843 0.93093 0.0
O545 O 0.15935 0.12243 0.89865 0.0
O546 O 0.13885 0.14913 0.84583 0.0
O547 O 0.13124 0.16036 0.91879 0.0
O548 O 0.13639 0.09939 0.78408 0.0
O549 O 0.15645 0.12118 0.79356 0.0
O550 O 0.10835 0.11792 0.83462 0.0
O551 O 0.11876 0.12861 0.8978 0.0
H552 H 0.16627 0.14001 0.08616 0.0
H553 H 0.1084 0.13987 0.07925 0.0
H554 H 0.10772 0.13307 0.15468 0.0
H555 H 0.16557 0.13297 0.16104 0.0
H556 H 0.11696 0.10884 0.71827 0.0
H557 H 0.17431 0.11289 0.7086 0.0
H558 H 0.17073 0.11658 0.63096 0.0
H559 H 0.11325 0.11275 0.64036 0.0
Gd560 Gd 0.63775 0.37958 0.55901 0.0
Gd561 Gd 0.6381 0.39777 0.66194 0.0
C562 C 0.63941 0.42387 0.58674 0.0
C563 C 0.6316 0.36984 0.474 0.0
C564 C 0.63324 0.3761 0.43062 0.0
C565 C 0.64905 0.37307 0.4063 0.0
C566 C 0.61838 0.38349 0.411 0.0
C567 C 0.63489 0.38408 0.34317 0.0
C568 C 0.61921 0.38748 0.3679 0.0
C569 C 0.64988 0.37707 0.36323 0.0
C570 C 0.66979 0.38254 0.604 0.0
C571 C 0.63342 0.35364 0.63015 0.0
C572 C 0.65007 0.40825 0.74275 0.0
C573 C 0.64741 0.40556 0.78915 0.0
C574 C 0.63102 0.40929 0.81052 0.0
C575 C 0.66196 0.39984 0.8132 0.0
C576 C 0.644 0.40205 0.87966 0.0
C577 C 0.66028 0.39805 0.8578 0.0
C578 C 0.62934 0.40754 0.85529 0.0
C579 C 0.60375 0.39098 0.63127 0.0
O580 O 0.63781 0.4093 0.55511 0.0
O581 O 0.64082 0.42285 0.62987 0.0
O582 O 0.64638 0.366 0.4944 0.0
O583 O 0.61959 0.37763 0.50158 0.0
O584 O 0.66553 0.36902 0.57253 0.0
O585 O 0.65736 0.39402 0.60815 0.0
O586 O 0.63904 0.36725 0.66172 0.0
O587 O 0.62918 0.35599 0.58917 0.0
O588 O 0.63774 0.4171 0.72386 0.0
O589 O 0.65679 0.39454 0.71541 0.0
O590 O 0.60804 0.39855 0.67189 0.0
O591 O 0.61803 0.38752 0.61033 0.0
H592 H 0.66067 0.36713 0.41998 0.0
H593 H 0.60592 0.38582 0.42854 0.0
H594 H 0.60748 0.39308 0.35379 0.0
H595 H 0.6621 0.37403 0.34505 0.0
H596 H 0.61956 0.41378 0.79292 0.0
H597 H 0.67475 0.39689 0.79753 0.0
H598 H 0.67177 0.39348 0.87511 0.0
H599 H 0.61665 0.41091 0.87107 0.0
Gd600 Gd 0.38257 0.88362 0.33704 0.0
Gd601 Gd 0.36961 0.88672 0.42781 0.0
C602 C 0.33977 0.88744 0.35066 0.0
C603 C 0.38963 0.8753 0.253 0.0
C604 C 0.38444 0.87837 0.20773 0.0
C605 C 0.38486 0.89573 0.19621 0.0
C606 C 0.38068 0.86332 0.17426 0.0
C607 C 0.37892 0.8827 0.11795 0.0
C608 C 0.37791 0.86544 0.12993 0.0
C609 C 0.38213 0.89786 0.15178 0.0
C610 C 0.3817 0.91837 0.38364 0.0
C611 C 0.41258 0.88141 0.40939 0.0
C612 C 0.36307 0.8962 0.51202 0.0
C613 C 0.36872 0.89392 0.5576 0.0
C614 C 0.36914 0.87677 0.57034 0.0
C615 C 0.37188 0.90941 0.5902 0.0
C616 C 0.37456 0.89082 0.64809 0.0
C617 C 0.37482 0.90789 0.6349 0.0
C618 C 0.37202 0.87525 0.61511 0.0
C619 C 0.36999 0.85169 0.3844 0.0
O620 O 0.35274 0.88197 0.32295 0.0
O621 O 0.34329 0.89251 0.39387 0.0
O622 O 0.39742 0.88861 0.28037 0.0
O623 O 0.37868 0.86586 0.27288 0.0
O624 O 0.3943 0.91205 0.35691 0.0
O625 O 0.36984 0.90637 0.38285 0.0
O626 O 0.40038 0.88839 0.43845 0.0
O627 O 0.4077 0.87504 0.36787 0.0
O628 O 0.35554 0.88233 0.48609 0.0
O629 O 0.37348 0.90555 0.4906 0.0
O630 O 0.35764 0.85884 0.41085 0.0
O631 O 0.38212 0.86338 0.38279 0.0
H632 H 0.38772 0.90761 0.22127 0.0
H633 H 0.38047 0.84978 0.18217 0.0
H634 H 0.37569 0.85344 0.10481 0.0
H635 H 0.38275 0.91137 0.14384 0.0
H636 H 0.36676 0.86456 0.54598 0.0
H637 H 0.37144 0.92279 0.58132 0.0
H638 H 0.37654 0.92018 0.65938 0.0
H639 H 0.372 0.86188 0.624 0.0
H640 H 0.15984 0.64841 0.85624 0.0
H641 H 0.1583 0.65041 0.777 0.0
H642 H 0.11864 0.60773 0.75401 0.0
H643 H 0.11972 0.60598 0.83342 0.0
H644 H 0.16579 0.62313 0.70478 0.0
H645 H 0.09569 0.6468 0.69293 0.0
H646 H 0.10759 0.64773 0.74557 0.0
H647 H 0.09807 0.62669 0.71698 0.0
C648 C 0.15053 0.63967 0.83454 0.0
C649 C 0.13983 0.62709 0.8514 0.0
C650 C 0.14978 0.64074 0.78912 0.0
C651 C 0.13822 0.62937 0.75956 0.0
C652 C 0.12746 0.61686 0.77624 0.0
H653 H 0.11634 0.61304 0.47332 0.0
H654 H 0.11791 0.61091 0.55248 0.0
C655 C 0.12823 0.61575 0.82164 0.0
C656 C 0.13791 0.63018 0.71108 0.0
H657 H 0.1106 0.63796 0.62475 0.0
C658 C 0.15375 0.62646 0.68731 0.0
C659 C 0.12218 0.63447 0.68824 0.0
C660 C 0.10494 0.63931 0.71222 0.0
C661 C 0.15422 0.62661 0.64128 0.0
C662 C 0.13849 0.63091 0.61844 0.0
C663 C 0.12265 0.63462 0.64221 0.0
C664 C 0.13818 0.63175 0.56997 0.0
C665 C 0.17146 0.62175 0.61731 0.0
C666 C 0.14905 0.6442 0.55333 0.0
C667 C 0.14827 0.64537 0.50797 0.0
C668 C 0.13654 0.63418 0.4782 0.0
C669 C 0.12574 0.62166 0.49501 0.0
C670 C 0.12651 0.62052 0.54039 0.0
H671 H 0.18065 0.61415 0.63651 0.0
H672 H 0.16881 0.61343 0.58385 0.0
H673 H 0.1784 0.63438 0.61285 0.0
H674 H 0.15794 0.65323 0.57556 0.0
H675 H 0.15686 0.65508 0.49623 0.0
H676 H 0.65088 0.90884 0.06149 0.0
H677 H 0.65224 0.91108 0.98243 0.0
H678 H 0.62219 0.86124 0.94748 0.0
H679 H 0.62025 0.85919 0.02626 0.0
H680 H 0.66668 0.88692 0.91158 0.0
H681 H 0.59379 0.89574 0.88271 0.0
H682 H 0.60391 0.89825 0.93789 0.0
H683 H 0.59934 0.87603 0.90621 0.0
C684 C 0.6444 0.89844 0.03705 0.0
C685 C 0.63541 0.88386 0.05046 0.0
C686 C 0.64528 0.89969 0.9918 0.0
C687 C 0.63707 0.88648 0.95898 0.0
C688 C 0.62834 0.87178 0.97217 0.0
H689 H 0.62712 0.86913 0.66892 0.0
H690 H 0.62585 0.86694 0.74799 0.0
C691 C 0.62745 0.87051 0.01732 0.0
C692 C 0.63787 0.88791 0.91093 0.0
H693 H 0.61179 0.89091 0.81866 0.0
C694 C 0.65469 0.8879 0.89131 0.0
C695 C 0.62221 0.88912 0.8844 0.0
C696 C 0.60379 0.88996 0.90387 0.0
C697 C 0.65626 0.8887 0.84581 0.0
C698 C 0.6406 0.88992 0.81928 0.0
C699 C 0.62379 0.88994 0.83891 0.0
C700 C 0.64138 0.89132 0.77119 0.0
C701 C 0.67469 0.88779 0.82633 0.0
C702 C 0.65029 0.90589 0.75783 0.0
C703 C 0.65114 0.90712 0.71264 0.0
C704 C 0.64297 0.89387 0.67963 0.0
C705 C 0.63379 0.87944 0.69324 0.0
C706 C 0.63295 0.87823 0.7385 0.0
H707 H 0.68464 0.8819 0.8474 0.0
H708 H 0.67454 0.87956 0.79224 0.0
H709 H 0.67923 0.90171 0.8242 0.0
H710 H 0.6566 0.91637 0.78241 0.0
H711 H 0.65849 0.91833 0.70358 0.0
H712 H 0.35403 0.36458 0.29328 0.0
H713 H 0.35656 0.36201 0.21241 0.0
H714 H 0.39583 0.40509 0.23288 0.0
H715 H 0.39383 0.40733 0.31345 0.0
H716 H 0.34928 0.38856 0.16191 0.0
H717 H 0.41997 0.36677 0.1428 0.0
H718 H 0.40778 0.36587 0.19275 0.0
H719 H 0.41738 0.38691 0.18376 0.0
C720 C 0.36347 0.37325 0.28056 0.0
C721 C 0.37374 0.38615 0.30992 0.0
C722 C 0.3648 0.37186 0.23433 0.0
C723 C 0.37655 0.3832 0.21653 0.0
C724 C 0.38693 0.39595 0.24575 0.0
H725 H 0.40099 0.41152 0.96402 0.0
H726 H 0.39808 0.40843 0.04191 0.0
C727 C 0.38561 0.39735 0.29188 0.0
C728 C 0.37733 0.38242 0.16755 0.0
H729 H 0.40621 0.3778 0.08116 0.0
C730 C 0.36167 0.38597 0.14409 0.0
C731 C 0.39351 0.37906 0.14434 0.0
C732 C 0.41058 0.37426 0.1671 0.0
C733 C 0.3619 0.38695 0.09848 0.0
C734 C 0.37818 0.38404 0.07558 0.0
C735 C 0.39375 0.38009 0.0988 0.0
C736 C 0.37956 0.38582 0.02801 0.0
C737 C 0.34489 0.39178 0.07554 0.0
C738 C 0.37019 0.37404 0.99418 0.0
C739 C 0.37174 0.37583 0.94944 0.0
C740 C 0.3827 0.38945 0.93773 0.0
C741 C 0.39216 0.40111 0.97182 0.0
C742 C 0.39063 0.39927 0.01639 0.0
H743 H 0.33454 0.39728 0.09976 0.0
H744 H 0.34762 0.40195 0.05408 0.0
H745 H 0.33934 0.37944 0.05394 0.0
H746 H 0.36177 0.36338 1.00233 0.0
H747 H 0.36424 0.36667 0.92408 0.0
H748 H 0.90512 0.11597 0.58088 0.0
H749 H 0.90674 0.11841 0.502 0.0
H750 H 0.84907 0.11916 0.49163 0.0
H751 H 0.84729 0.11651 0.5701 0.0
H752 H 0.89251 0.0954 0.42573 0.0
H753 H 0.86344 0.16435 0.44214 0.0
H754 H 0.87148 0.155 0.48961 0.0
H755 H 0.84988 0.14847 0.46443 0.0
C756 C 0.89276 0.11655 0.56182 0.0
C757 C 0.87607 0.11618 0.5822 0.0
C758 C 0.89372 0.11802 0.51671 0.0
C759 C 0.87804 0.11928 0.49099 0.0
C760 C 0.86137 0.11865 0.51099 0.0
H761 H 0.85316 0.13073 0.21715 0.0
H762 H 0.85245 0.12675 0.29503 0.0
C763 C 0.86039 0.11716 0.55601 0.0
C764 C 0.87906 0.12098 0.44313 0.0
H765 H 0.86728 0.14837 0.3686 0.0
C766 C 0.88709 0.10702 0.41325 0.0
C767 C 0.87195 0.13614 0.42678 0.0
C768 C 0.86384 0.15194 0.45741 0.0
C769 C 0.88782 0.10759 0.3674 0.0
C770 C 0.88065 0.12273 0.35102 0.0
C771 C 0.87272 0.13673 0.381 0.0
C772 C 0.88119 0.12437 0.30299 0.0
C773 C 0.89582 0.09173 0.33677 0.0
C774 C 0.89757 0.12442 0.28132 0.0
C775 C 0.89802 0.12669 0.23669 0.0
C776 C 0.88209 0.12917 0.21278 0.0
C777 C 0.8657 0.12904 0.23456 0.0
C778 C 0.86527 0.1267 0.27911 0.0
H779 H 0.89603 0.07931 0.35199 0.0
H780 H 0.88824 0.08876 0.30449 0.0
H781 H 0.90985 0.09505 0.32998 0.0
H782 H 0.91009 0.12311 0.29921 0.0
H783 H 0.9109 0.12706 0.22134 0.0
H784 H 0.11932 0.41292 0.21775 0.0
H785 H 0.1181 0.41135 0.29717 0.0
H786 H 0.15802 0.36929 0.28051 0.0
H787 H 0.15971 0.3711 0.20142 0.0
H788 H 0.1097 0.38208 0.33908 0.0
H789 H 0.17913 0.40644 0.38369 0.0
H790 H 0.16816 0.40871 0.33152 0.0
H791 H 0.17755 0.38732 0.33897 0.0
C792 C 0.12796 0.40342 0.23101 0.0
C793 C 0.13969 0.39221 0.20307 0.0
C794 C 0.12716 0.40248 0.27641 0.0
C795 C 0.13818 0.39042 0.29505 0.0
C796 C 0.14963 0.37895 0.26714 0.0
H797 H 0.1535 0.36464 0.56105 0.0
H798 H 0.15484 0.36637 0.48175 0.0
C799 C 0.15041 0.37985 0.22172 0.0
C800 C 0.13756 0.38975 0.34354 0.0
H801 H 0.16311 0.39552 0.4398 0.0
C802 C 0.12136 0.3851 0.36115 0.0
C803 C 0.15278 0.39366 0.37236 0.0
C804 C 0.17036 0.39947 0.35589 0.0
C805 C 0.12004 0.38394 0.40652 0.0
C806 C 0.13525 0.38786 0.43535 0.0
C807 C 0.15146 0.3925 0.41774 0.0
C808 C 0.13463 0.38717 0.48384 0.0
C809 C 0.10246 0.37807 0.42294 0.0
C810 C 0.12308 0.39853 0.51172 0.0
C811 C 0.12222 0.39754 0.55707 0.0
C812 C 0.13296 0.38518 0.57568 0.0
C813 C 0.14483 0.37412 0.54781 0.0
C814 C 0.1457 0.37516 0.50247 0.0
H815 H 0.09373 0.37106 0.39512 0.0
H816 H 0.10468 0.36887 0.44737 0.0
H817 H 0.09522 0.39021 0.43975 0.0
H818 H 0.11465 0.40816 0.49836 0.0
H819 H 0.11282 0.40617 0.57731 0.0
H820 H 0.86359 0.90769 0.81418 0.0
H821 H 0.86302 0.91094 0.73568 0.0
H822 H 0.90278 0.86902 0.70799 0.0
H823 H 0.90293 0.86516 0.78587 0.0
H824 H 0.88973 0.92002 0.68252 0.0
H825 H 0.86409 0.85086 0.6149 0.0
H826 H 0.86384 0.86041 0.67352 0.0
H827 H 0.88418 0.85116 0.64864 0.0
C828 C 0.87209 0.89901 0.79138 0.0
C829 C 0.88322 0.88607 0.80663 0.0
C830 C 0.87184 0.90098 0.74646 0.0
C831 C 0.88262 0.89001 0.71558 0.0
C832 C 0.89405 0.87739 0.73084 0.0
H833 H 0.89633 0.88062 0.42801 0.0
H834 H 0.89927 0.87802 0.50688 0.0
C835 C 0.8943 0.87538 0.77569 0.0
C836 C 0.88199 0.89188 0.66759 0.0
H837 H 0.87331 0.86852 0.56217 0.0
C838 C 0.88609 0.90877 0.65624 0.0
C839 C 0.87727 0.8772 0.63313 0.0
C840 C 0.87193 0.85893 0.64305 0.0
C841 C 0.88583 0.91131 0.61155 0.0
C842 C 0.88104 0.89666 0.57713 0.0
C843 C 0.87704 0.87975 0.58845 0.0
C844 C 0.87967 0.89868 0.5293 0.0
C845 C 0.89104 0.92961 0.60159 0.0
C846 C 0.8676 0.91107 0.51539 0.0
C847 C 0.86596 0.91266 0.47038 0.0
C848 C 0.87626 0.9018 0.43793 0.0
C849 C 0.88835 0.88938 0.45198 0.0
C850 C 0.88997 0.88779 0.49709 0.0
H851 H 0.89916 0.93757 0.62935 0.0
H852 H 0.89878 0.9282 0.57056 0.0
H853 H 0.87872 0.93745 0.59699 0.0
H854 H 0.85924 0.91939 0.53933 0.0
H855 H 0.85664 0.92251 0.46106 0.0
H856 H 0.35963 0.6105 0.72143 0.0
H857 H 0.35764 0.60762 0.79995 0.0
H858 H 0.40478 0.6411 0.83171 0.0
H859 H 0.40652 0.64458 0.7538 0.0
H860 H 0.38213 0.5936 0.85517 0.0
H861 H 0.36937 0.66618 0.92152 0.0
H862 H 0.36756 0.65681 0.86282 0.0
H863 H 0.38919 0.66229 0.88911 0.0
C864 C 0.36947 0.61743 0.74515 0.0
C865 C 0.3832 0.62784 0.73104 0.0
C866 C 0.36838 0.61567 0.79005 0.0
C867 C 0.38089 0.62438 0.82199 0.0
C868 C 0.39475 0.63453 0.80795 0.0
H869 H 0.39644 0.63125 0.10941 0.0
H870 H 0.3992 0.63347 0.03068 0.0
C871 C 0.39586 0.6363 0.76313 0.0
C872 C 0.37959 0.62265 0.86982 0.0
H873 H 0.37516 0.64719 0.9748 0.0
C874 C 0.38052 0.60531 0.8813 0.0
C875 C 0.37755 0.63793 0.90404 0.0
C876 C 0.37569 0.65684 0.89385 0.0
C877 C 0.37978 0.60286 0.92595 0.0
C878 C 0.3777 0.61814 0.96017 0.0
C879 C 0.3768 0.63548 0.94869 0.0
C880 C 0.37621 0.61643 1.00798 0.0
C881 C 0.38164 0.58395 0.93614 0.0
C882 C 0.36228 0.60626 0.02169 0.0
C883 C 0.36075 0.60485 0.06664 0.0
C884 C 0.37302 0.61372 0.09919 0.0
C885 C 0.3869 0.62402 0.08535 0.0
C886 C 0.38842 0.62541 0.04032 0.0
H887 H 0.38815 0.57468 0.90867 0.0
H888 H 0.3896 0.584 0.96744 0.0
H889 H 0.36813 0.57841 0.94034 0.0
H890 H 0.35247 0.59949 0.99762 0.0
H891 H 0.34999 0.59665 0.07579 0.0
H892 H 0.65728 0.15437 0.97985 0.0
H893 H 0.65823 0.15206 0.05896 0.0
H894 H 0.61936 0.10867 0.03331 0.0
H895 H 0.61825 0.11094 0.95429 0.0
H896 H 0.63026 0.15674 0.11823 0.0
H897 H 0.65829 0.08745 0.1048 0.0
H898 H 0.65888 0.10008 0.05963 0.0
H899 H 0.63864 0.08875 0.07032 0.0
C900 C 0.64894 0.14431 0.99098 0.0
C901 C 0.63773 0.1328 0.96052 0.0
C902 C 0.64955 0.14297 0.03623 0.0
C903 C 0.63905 0.13003 0.05207 0.0
C904 C 0.62791 0.11847 0.02179 0.0
H905 H 0.6209 0.1034 0.31432 0.0
H906 H 0.61989 0.10552 0.23508 0.0
C907 C 0.6273 0.11978 0.97652 0.0
C908 C 0.63921 0.12915 0.1005 0.0
H909 H 0.64752 0.10101 0.17548 0.0
C910 C 0.63412 0.14459 0.13078 0.0
C911 C 0.64418 0.11326 0.11689 0.0
C912 C 0.65046 0.09648 0.08632 0.0
C913 C 0.63358 0.14448 0.17682 0.0
C914 C 0.63858 0.1286 0.19322 0.0
C915 C 0.64365 0.11316 0.16293 0.0
C916 C 0.63883 0.12776 0.24169 0.0
C917 C 0.62725 0.16126 0.20733 0.0
C918 C 0.64987 0.13948 0.27186 0.0
C919 C 0.65049 0.13829 0.31719 0.0
C920 C 0.6402 0.12523 0.33339 0.0
C921 C 0.62913 0.11352 0.30304 0.0
C922 C 0.62849 0.11475 0.25771 0.0
H923 H 0.61928 0.17018 0.18885 0.0
H924 H 0.61897 0.15766 0.23425 0.0
H925 H 0.63906 0.16912 0.22301 0.0
H926 H 0.65831 0.14934 0.26021 0.0
H927 H 0.65945 0.14729 0.33934 0.0
H928 H 0.88346 0.36629 0.18711 0.0
H929 H 0.88438 0.36403 0.26627 0.0
H930 H 0.86185 0.41757 0.29882 0.0
H931 H 0.86023 0.4197 0.21984 0.0
H932 H 0.902 0.38546 0.33779 0.0
H933 H 0.82858 0.38795 0.36182 0.0
H934 H 0.83823 0.38411 0.3073 0.0
H935 H 0.83714 0.40669 0.33917 0.0
C936 C 0.87851 0.37752 0.21102 0.0
C937 C 0.87169 0.39315 0.19685 0.0
C938 C 0.87916 0.37625 0.25634 0.0
C939 C 0.8729 0.3905 0.2885 0.0
C940 C 0.86641 0.40624 0.27461 0.0
H941 H 0.8662 0.40946 0.57805 0.0
H942 H 0.86525 0.41179 0.49889 0.0
C943 C 0.86574 0.40753 0.22936 0.0
C944 C 0.87339 0.38901 0.3366 0.0
H945 H 0.84705 0.39013 0.42717 0.0
C946 C 0.88997 0.38639 0.35727 0.0
C947 C 0.8577 0.39026 0.3621 0.0
C948 C 0.83938 0.39224 0.34144 0.0
C949 C 0.89134 0.38531 0.40283 0.0
C950 C 0.87565 0.38659 0.42833 0.0
C951 C 0.85907 0.38921 0.40767 0.0
C952 C 0.87615 0.38508 0.47639 0.0
C953 C 0.90963 0.38323 0.42349 0.0
C954 C 0.88231 0.36918 0.49008 0.0
C955 C 0.88296 0.36784 0.5353 0.0
C956 C 0.87733 0.38232 0.56795 0.0
C957 C 0.87087 0.39813 0.55399 0.0
C958 C 0.87022 0.39945 0.5087 0.0
H959 H 0.92048 0.38731 0.40296 0.0
H960 H 0.91084 0.39147 0.4575 0.0
H961 H 0.91172 0.36879 0.42615 0.0
H962 H 0.88664 0.35777 0.46575 0.0
H963 H 0.88819 0.35553 0.5447 0.0
H964 H 0.39922 0.12705 0.32433 0.0
H965 H 0.40124 0.12872 0.24505 0.0
H966 H 0.34436 0.1382 0.23801 0.0
H967 H 0.34223 0.13657 0.31701 0.0
H968 H 0.38505 0.10801 0.17123 0.0
H969 H 0.36421 0.17974 0.18444 0.0
H970 H 0.3704 0.16993 0.23258 0.0
H971 H 0.3484 0.16605 0.20717 0.0
C972 C 0.38713 0.12946 0.3059 0.0
C973 C 0.37059 0.13185 0.32728 0.0
C974 C 0.38832 0.13047 0.26058 0.0
C975 C 0.37301 0.13391 0.23564 0.0
C976 C 0.35645 0.13602 0.25672 0.0
H977 H 0.36159 0.11555 0.94461 0.0
H978 H 0.35988 0.1136 0.02376 0.0
C979 C 0.35526 0.13508 0.302 0.0
C980 C 0.37429 0.13496 0.18745 0.0
H981 H 0.36587 0.16255 0.11123 0.0
C982 C 0.38091 0.11996 0.15813 0.0
C983 C 0.36909 0.15063 0.17034 0.0
C984 C 0.36279 0.16757 0.20029 0.0
C985 C 0.38222 0.12008 0.11221 0.0
C986 C 0.37646 0.13553 0.09491 0.0
C987 C 0.37009 0.15063 0.12434 0.0
C988 C 0.37742 0.13655 0.04663 0.0
C989 C 0.3901 0.10381 0.08281 0.0
C990 C 0.38749 0.15034 0.03305 0.0
C991 C 0.38843 0.15153 0.98788 0.0
C992 C 0.37924 0.139 0.95508 0.0
C993 C 0.36904 0.12527 0.96881 0.0
C994 C 0.36808 0.12411 0.0141 0.0
H995 H 0.39809 0.09534 0.10248 0.0
H996 H 0.37908 0.09526 0.06517 0.0
H997 H 0.3988 0.10801 0.05742 0.0
H998 H 0.39481 0.16011 0.05745 0.0
H999 H 0.39663 0.16212 0.97862 0.0
H1000 H 0.61984 0.64636 0.09267 0.0
H1001 H 0.61944 0.64853 0.01343 0.0
H1002 H 0.65609 0.60365 0.98774 0.0
H1003 H 0.65611 0.60098 0.06644 0.0
H1004 H 0.64743 0.65476 0.95936 0.0
H1005 H 0.61598 0.58777 0.89592 0.0
H1006 H 0.61617 0.59802 0.95414 0.0
H1007 H 0.63578 0.58672 0.93004 0.0
C1008 C 0.62768 0.63682 0.07013 0.0
C1009 C 0.63796 0.62345 0.08616 0.0
C1010 C 0.62752 0.63815 0.02482 0.0
C1011 C 0.6375 0.62607 0.99437 0.0
C1012 C 0.64799 0.61291 1.01032 0.0
H1013 H 0.6539 0.61275 0.70757 0.0
H1014 H 0.6548 0.61027 0.78668 0.0
C1015 C 0.64818 0.61157 0.05558 0.0
C1016 C 0.63718 0.62744 0.94612 0.0
H1017 H 0.62711 0.60379 0.84176 0.0
C1018 C 0.64291 0.64365 0.93367 0.0
C1019 C 0.63134 0.61291 0.91249 0.0
C1020 C 0.62431 0.59542 0.9237 0.0
C1021 C 0.64323 0.64563 0.88864 0.0
C1022 C 0.63734 0.63113 0.85502 0.0
C1023 C 0.63166 0.6149 0.86745 0.0
C1024 C 0.63674 0.63263 0.80685 0.0
C1025 C 0.65025 0.66312 0.87744 0.0
C1026 C 0.62609 0.64584 0.7916 0.0
C1027 C 0.62561 0.64736 0.74646 0.0
C1028 C 0.63569 0.6356 0.71527 0.0
C1029 C 0.64615 0.6222 0.73059 0.0
C1030 C 0.6466 0.62068 0.77582 0.0
H1031 H 0.65873 0.67069 0.90507 0.0
H1032 H 0.65824 0.66055 0.84676 0.0
H1033 H 0.63878 0.6719 0.87158 0.0
H1034 H 0.61808 0.655 0.81465 0.0
H1035 H 0.61754 0.65797 0.73617 0.0
H1036 H 0.16664 0.91274 0.46062 0.0
H1037 H 0.16417 0.90948 0.53856 0.0
H1038 H 0.11136 0.88641 0.51026 0.0
H1039 H 0.11398 0.88892 0.43176 0.0
H1040 H 0.14028 0.92419 0.60131 0.0
H1041 H 0.13517 0.84915 0.5736 0.0
H1042 H 0.1419 0.86127 0.53056 0.0
H1043 H 0.1186 0.85969 0.5431 0.0
C1044 C 0.15458 0.9067 0.47067 0.0
C1045 C 0.14059 0.90093 0.43944 0.0
C1046 C 0.15314 0.90499 0.51549 0.0
C1047 C 0.13771 0.89742 0.53037 0.0
C1048 C 0.12357 0.89194 0.49956 0.0
H1049 H 0.10597 0.87543 0.78962 0.0
H1050 H 0.107 0.87967 0.712 0.0
C1051 C 0.12501 0.89361 0.45466 0.0
C1052 C 0.13637 0.89557 0.57821 0.0
H1053 H 0.13044 0.86471 0.64707 0.0
C1054 C 0.13819 0.91117 0.61128 0.0
C1055 C 0.13361 0.87859 0.59143 0.0
C1056 C 0.13237 0.86119 0.5579 0.0
C1057 C 0.13708 0.91031 0.65692 0.0
C1058 C 0.13438 0.89332 0.67013 0.0
C1059 C 0.13247 0.87774 0.63707 0.0
C1060 C 0.13362 0.89138 0.71799 0.0
C1061 C 0.13844 0.92767 0.69053 0.0
C1062 C 0.14827 0.89645 0.74745 0.0
C1063 C 0.14768 0.89416 0.79207 0.0
C1064 C 0.13245 0.88664 0.80837 0.0
C1065 C 0.11781 0.88156 0.77868 0.0
C1066 C 0.11842 0.88384 0.73407 0.0
H1067 H 0.13547 0.93973 0.675 0.0
H1068 H 0.1291 0.92752 0.71823 0.0
H1069 H 0.15229 0.92918 0.70481 0.0
H1070 H 0.1603 0.90198 0.7358 0.0
H1071 H 0.15917 0.89835 0.81384 0.0
H1072 H 0.85819 0.59938 0.81676 0.0
H1073 H 0.86017 0.60131 0.73788 0.0
H1074 H 0.88886 0.65198 0.77277 0.0
H1075 H 0.88754 0.64984 0.85177 0.0
H1076 H 0.84678 0.6276 0.69352 0.0
H1077 H 0.92065 0.62355 0.67896 0.0
H1078 H 0.90925 0.61792 0.72624 0.0
H1079 H 0.91327 0.64124 0.72229 0.0
C1080 C 0.86523 0.61078 0.80775 0.0
C1081 C 0.87284 0.62438 0.84084 0.0
C1082 C 0.86621 0.61194 0.76254 0.0
C1083 C 0.87488 0.62665 0.74923 0.0
C1084 C 0.8824 0.64031 0.78209 0.0
H1085 H 0.8923 0.65972 0.49449 0.0
H1086 H 0.89037 0.65752 0.57322 0.0
C1087 C 0.88145 0.63916 0.82736 0.0
C1088 C 0.87553 0.62792 0.70108 0.0
H1089 H 0.90419 0.63087 0.61693 0.0
C1090 C 0.85933 0.62822 0.67672 0.0
C1091 C 0.89191 0.62876 0.67911 0.0
C1092 C 0.90977 0.62769 0.70282 0.0
C1093 C 0.85905 0.62967 0.63133 0.0
C1094 C 0.87543 0.63054 0.60939 0.0
C1095 C 0.89163 0.63023 0.63373 0.0
C1096 C 0.87609 0.63193 0.56133 0.0
C1097 C 0.84121 0.6307 0.60754 0.0
C1098 C 0.8688 0.61822 0.52824 0.0
C1099 C 0.86975 0.6195 0.48305 0.0
C1100 C 0.8781 0.6345 0.46992 0.0
C1101 C 0.88547 0.64815 0.50325 0.0
C1102 C 0.88451 0.64685 0.54836 0.0
H1103 H 0.83026 0.63459 0.63133 0.0
H1104 H 0.84168 0.64064 0.58454 0.0
H1105 H 0.83786 0.6172 0.58755 0.0
H1106 H 0.86251 0.60641 0.53733 0.0
H1107 H 0.86386 0.60878 0.45841 0.0
H1108 H 0.11865 0.09684 0.56458 0.0
H1109 H 0.11674 0.09912 0.48536 0.0
H1110 H 0.15824 0.13996 0.5064 0.0
H1111 H 0.16016 0.13789 0.58546 0.0
H1112 H 0.10952 0.12892 0.44242 0.0
H1113 H 0.17775 0.10203 0.40555 0.0
H1114 H 0.1666 0.10001 0.45629 0.0
H1115 H 0.1772 0.12101 0.45061 0.0
C1116 C 0.12725 0.10645 0.55248 0.0
C1117 C 0.1397 0.11705 0.58146 0.0
C1118 C 0.12619 0.10767 0.5071 0.0
C1119 C 0.1376 0.11944 0.48969 0.0
C1120 C 0.14962 0.13043 0.51877 0.0
H1121 H 0.15789 0.14907 0.23421 0.0
H1122 H 0.15731 0.14525 0.31206 0.0
C1123 C 0.1507 0.12923 0.56404 0.0
C1124 C 0.13701 0.12026 0.4412 0.0
H1125 H 0.16282 0.11484 0.34882 0.0
C1126 C 0.12112 0.12571 0.42182 0.0
C1127 C 0.15215 0.11604 0.4143 0.0
C1128 C 0.16935 0.10928 0.43255 0.0
C1129 C 0.12014 0.12765 0.37671 0.0
C1130 C 0.13537 0.12368 0.34996 0.0
C1131 C 0.15116 0.11795 0.36925 0.0
C1132 C 0.13546 0.12587 0.30229 0.0
C1133 C 0.10299 0.13453 0.35852 0.0
C1134 C 0.1235 0.11608 0.27051 0.0
C1135 C 0.12383 0.11822 0.22574 0.0
C1136 C 0.13625 0.13003 0.21167 0.0
C1137 C 0.14831 0.13965 0.24359 0.0
C1138 C 0.14793 0.13756 0.28826 0.0
H1139 H 0.09433 0.14128 0.38559 0.0
H1140 H 0.10582 0.14428 0.33602 0.0
H1141 H 0.09538 0.12293 0.33907 0.0
H1142 H 0.11404 0.10664 0.28021 0.0
H1143 H 0.11452 0.11041 0.20202 0.0
H1144 H 0.60852 0.37687 0.27798 0.0
H1145 H 0.60985 0.38052 0.19999 0.0
H1146 H 0.66367 0.40151 0.22314 0.0
H1147 H 0.66244 0.39802 0.3013 0.0
H1148 H 0.61569 0.41111 0.16185 0.0
H1149 H 0.66931 0.36034 0.11711 0.0
H1150 H 0.65726 0.36225 0.16828 0.0
H1151 H 0.67508 0.37787 0.16351 0.0
C1152 C 0.62059 0.38246 0.2667 0.0
C1153 C 0.63541 0.38707 0.29604 0.0
C1154 C 0.62135 0.38444 0.22197 0.0
C1155 C 0.63697 0.39098 0.20544 0.0
C1156 C 0.65163 0.39602 0.23482 0.0
H1157 H 0.66902 0.41171 0.94727 0.0
H1158 H 0.6668 0.40917 0.02574 0.0
C1159 C 0.6509 0.39402 0.27956 0.0
C1160 C 0.63786 0.39257 0.15755 0.0
H1161 H 0.66094 0.37796 0.06254 0.0
C1162 C 0.62553 0.40381 0.14007 0.0
C1163 C 0.65069 0.38301 0.12909 0.0
C1164 C 0.66374 0.37005 0.14523 0.0
C1165 C 0.62591 0.40603 0.09523 0.0
C1166 C 0.6388 0.39654 0.06687 0.0
C1167 C 0.65109 0.38527 0.08431 0.0
C1168 C 0.63988 0.3982 0.01907 0.0
C1169 C 0.6128 0.41886 0.07886 0.0
C1170 C 0.62554 0.3927 0.98897 0.0
C1171 C 0.6268 0.39401 0.94386 0.0
C1172 C 0.64249 0.40076 0.9278 0.0
C1173 C 0.65683 0.4062 0.95816 0.0
C1174 C 0.65556 0.40486 1.00317 0.0
H1175 H 0.60689 0.42836 0.10687 0.0
H1176 H 0.61936 0.42688 0.0564 0.0
H1177 H 0.60171 0.41092 0.05978 0.0
H1178 H 0.61344 0.38716 1.00024 0.0
H1179 H 0.61561 0.38941 0.92143 0.0
H1180 H 0.39902 0.90445 0.0746 0.0
H1181 H 0.39784 0.90645 0.99536 0.0
H1182 H 0.35522 0.8668 0.97317 0.0
H1183 H 0.35592 0.86511 0.05258 0.0
H1184 H 0.4037 0.87871 0.92383 0.0
H1185 H 0.33542 0.9069 0.9112 0.0
H1186 H 0.34702 0.90708 0.96398 0.0
H1187 H 0.33618 0.88673 0.93541 0.0
C1188 C 0.38913 0.89642 0.05308 0.0
C1189 C 0.37751 0.88468 0.07012 0.0
C1190 C 0.38858 0.89748 1.00768 0.0
C1191 C 0.37631 0.88693 0.97835 0.0
C1192 C 0.36459 0.8753 0.99524 0.0
H1193 H 0.35505 0.86902 0.69246 0.0
H1194 H 0.35628 0.86769 0.77208 0.0
C1195 C 0.36514 0.87422 0.04063 0.0
C1196 C 0.37629 0.88755 0.92984 0.0
H1197 H 0.34991 0.8964 0.843 0.0
C1198 C 0.39198 0.88268 0.9062 0.0
C1199 C 0.36097 0.89269 0.90681 0.0
C1200 C 0.34398 0.89881 0.93065 0.0
C1201 C 0.39265 0.88249 0.86007 0.0
C1202 C 0.37732 0.88756 0.83704 0.0
C1203 C 0.36164 0.89246 0.86067 0.0
C1204 C 0.37722 0.8879 0.78841 0.0
C1205 C 0.40965 0.87643 0.83617 0.0
C1206 C 0.38859 0.89971 0.77105 0.0
C1207 C 0.38799 0.90044 0.72546 0.0
C1208 C 0.37596 0.88939 0.69625 0.0
C1209 C 0.36468 0.87749 0.71379 0.0
C1210 C 0.36525 0.87682 0.75938 0.0
H1211 H 0.41848 0.86875 0.85602 0.0
H1212 H 0.40659 0.86778 0.80332 0.0
H1213 H 0.41716 0.88853 0.8303 0.0
H1214 H 0.39774 0.90859 0.7929 0.0
H1215 H 0.39692 0.90969 0.71309 0.0
H1216 H 0.11359 0.68409 0.18206 0.0
H1217 H 0.10946 0.71699 0.18662 0.0
H1218 H 0.16594 0.72321 0.16699 0.0
H1219 H 0.17005 0.69054 0.1616 0.0
H1220 H 0.12465 0.74879 0.2399 0.0
H1221 H 0.14283 0.74319 0.06292 0.0
H1222 H 0.13794 0.72361 0.08757 0.0
H1223 H 0.15961 0.73433 0.09631 0.0
C1224 C 0.12514 0.69254 0.17937 0.0
C1225 C 0.14211 0.6847 0.17093 0.0
C1226 C 0.12277 0.71134 0.18192 0.0
C1227 C 0.13733 0.72257 0.17614 0.0
C1228 C 0.15443 0.71483 0.17049 0.0
H1229 H 0.14578 0.84117 0.21439 0.0
H1230 H 0.14642 0.80947 0.22513 0.0
C1231 C 0.15677 0.69613 0.16764 0.0
C1232 C 0.13468 0.74213 0.17349 0.0
H1233 H 0.14068 0.77295 0.10469 0.0
C1234 C 0.12807 0.75408 0.21029 0.0
C1235 C 0.13888 0.74906 0.13463 0.0
C1236 C 0.14504 0.73687 0.09294 0.0
C1237 C 0.12595 0.77276 0.20959 0.0
C1238 C 0.1308 0.77977 0.17127 0.0
C1239 C 0.13709 0.76771 0.13427 0.0
C1240 C 0.12917 0.7994 0.1679 0.0
C1241 C 0.11824 0.78475 0.24958 0.0
C1242 C 0.11935 0.80445 0.13217 0.0
C1243 C 0.11912 0.82249 0.12571 0.0
C1244 C 0.12872 0.83606 0.15484 0.0
C1245 C 0.13811 0.83114 0.19151 0.0
C1246 C 0.13842 0.81298 0.19781 0.0
H1247 H 0.11068 0.77676 0.27044 0.0
H1248 H 0.12932 0.79191 0.27049 0.0
H1249 H 0.10917 0.7951 0.23928 0.0
H1250 H 0.11209 0.79432 0.10858 0.0
H1251 H 0.11166 0.82571 0.0972 0.0
H1252 H 0.57573 0.86559 0.34605 0.0
H1253 H 0.54417 0.86584 0.36449 0.0
H1254 H 0.55597 0.90168 0.48877 0.0
H1255 H 0.58791 0.90157 0.47034 0.0
H1256 H 0.52717 0.85577 0.43912 0.0
H1257 H 0.51582 0.92845 0.42949 0.0
H1258 H 0.53533 0.91635 0.40651 0.0
H1259 H 0.53379 0.92331 0.46568 0.0
C1260 C 0.57174 0.87352 0.37747 0.0
C1261 C 0.58447 0.88364 0.40659 0.0
C1262 C 0.55359 0.87361 0.388 0.0
C1263 C 0.54754 0.88395 0.42774 0.0
C1264 C 0.56022 0.89379 0.45755 0.0
H1265 H 0.43143 0.90081 0.48217 0.0
H1266 H 0.46421 0.90152 0.49525 0.0
C1267 C 0.57852 0.89361 0.44714 0.0
C1268 C 0.52791 0.88431 0.43696 0.0
H1269 H 0.49063 0.91116 0.44054 0.0
C1270 C 0.51924 0.86795 0.44002 0.0
C1271 C 0.51746 0.9002 0.43848 0.0
C1272 C 0.52595 0.9181 0.43463 0.0
C1273 C 0.50048 0.86691 0.44314 0.0
C1274 C 0.48991 0.88256 0.44212 0.0
C1275 C 0.49864 0.89913 0.44127 0.0
C1276 C 0.46989 0.88153 0.43684 0.0
C1277 C 0.49217 0.84891 0.44696 0.0
C1278 C 0.46207 0.87013 0.39984 0.0
C1279 C 0.44351 0.86968 0.39244 0.0
C1280 C 0.43206 0.88073 0.42163 0.0
C1281 C 0.43979 0.89198 0.45928 0.0
C1282 C 0.45854 0.89247 0.46661 0.0
H1283 H 0.50165 0.84047 0.46306 0.0
H1284 H 0.47973 0.85073 0.46643 0.0
H1285 H 0.48877 0.84136 0.41308 0.0
H1286 H 0.4704 0.86186 0.37573 0.0
H1287 H 0.43816 0.86087 0.36299 0.0
H1288 H 0.37231 0.32367 0.54799 0.0
H1289 H 0.37426 0.29343 0.56645 0.0
H1290 H 0.38973 0.31648 0.70184 0.0
H1291 H 0.38757 0.34722 0.68335 0.0
H1292 H 0.40254 0.27525 0.5965 0.0
H1293 H 0.34795 0.28307 0.71904 0.0
H1294 H 0.35142 0.29913 0.68235 0.0
H1295 H 0.36598 0.29928 0.73019 0.0
C1296 C 0.37615 0.32242 0.5818 0.0
C1297 C 0.37973 0.33795 0.61421 0.0
C1298 C 0.37731 0.30501 0.5923 0.0
C1299 C 0.38197 0.30249 0.63565 0.0
C1300 C 0.38582 0.31797 0.66826 0.0
H1301 H 0.40081 0.18749 0.66579 0.0
H1302 H 0.4056 0.2204 0.67226 0.0
C1303 C 0.3847 0.33556 0.65764 0.0
C1304 C 0.3826 0.28355 0.64556 0.0
H1305 H 0.36127 0.25434 0.70189 0.0
C1306 C 0.3937 0.27074 0.62004 0.0
C1307 C 0.37094 0.27751 0.67592 0.0
C1308 C 0.35827 0.29037 0.70331 0.0
C1309 C 0.39307 0.25216 0.6229 0.0
C1310 C 0.3812 0.24605 0.65272 0.0
C1311 C 0.37048 0.25894 0.67925 0.0
C1312 C 0.37833 0.22623 0.65338 0.0
C1313 C 0.40446 0.23909 0.59212 0.0
C1314 C 0.3613 0.2185 0.64253 0.0
C1315 C 0.35853 0.1998 0.63917 0.0
C1316 C 0.3727 0.18821 0.64676 0.0
C1317 C 0.38962 0.19599 0.65958 0.0
C1318 C 0.3924 0.21482 0.6629 0.0
H1319 H 0.41 0.24539 0.56499 0.0
H1320 H 0.41587 0.23462 0.61149 0.0
H1321 H 0.39659 0.22689 0.57686 0.0
H1322 H 0.35018 0.22688 0.63517 0.0
H1323 H 0.3453 0.19432 0.62946 0.0
H1324 H 0.94355 0.12316 0.82211 0.0
H1325 H 0.97527 0.12743 0.84115 0.0
H1326 H 0.96314 0.1403 0.9806 0.0
H1327 H 0.93082 0.13605 0.96142 0.0
H1328 H 0.99286 0.15994 0.89138 0.0
H1329 H 1.00215 0.09848 0.96916 0.0
H1330 H 0.98333 0.10048 0.93193 0.0
H1331 H 0.9841 0.11387 0.98682 0.0
C1332 C 0.9475 0.12695 0.85695 0.0
C1333 C 0.93458 0.12923 0.89026 0.0
C1334 C 0.96573 0.1294 0.86776 0.0
C1335 C 0.9717 0.13406 0.91228 0.0
C1336 C 0.95888 0.13654 0.94598 0.0
H1337 H 0.09081 0.13528 0.96026 0.0
H1338 H 0.05892 0.1399 0.97952 0.0
C1339 C 0.94043 0.13421 0.93503 0.0
C1340 C 0.99141 0.1362 0.92191 0.0
H1341 H 0.02816 0.11327 0.95194 0.0
C1342 C 1.00054 0.14998 0.90567 0.0
C1343 C 1.00152 0.12325 0.94056 0.0
C1344 C 0.99241 0.1081 0.95811 0.0
C1345 C 0.01938 0.15058 0.90535 0.0
C1346 C 0.0295 0.13689 0.92099 0.0
C1347 C 0.02045 0.12379 0.93999 0.0
C1348 C 0.04896 0.13441 0.91113 0.0
C1349 C 0.02834 0.16548 0.88638 0.0
C1350 C 0.05395 0.12965 0.8666 0.0
C1351 C 0.07192 0.12695 0.85575 0.0
C1352 C 0.08554 0.12896 0.88903 0.0
C1353 C 0.08066 0.13377 0.93386 0.0
C1354 C 0.06245 0.13634 0.94486 0.0
H1355 H 0.01961 0.17759 0.88835 0.0
H1356 H 0.04126 0.16958 0.90419 0.0
H1357 H 0.03113 0.16049 0.85073 0.0
H1358 H 0.04385 0.12784 0.84 0.0
H1359 H 0.07511 0.1232 0.82088 0.0
H1360 H 0.11493 0.33529 0.84379 0.0
H1361 H 0.11115 0.30212 0.82666 0.0
H1362 H 0.1618 0.29566 0.89329 0.0
H1363 H 0.16587 0.32844 0.90888 0.0
H1364 H 0.15858 0.2709 0.82008 0.0
H1365 H 0.09587 0.27149 0.91455 0.0
H1366 H 0.09474 0.28382 0.86917 0.0
H1367 H 0.10942 0.29153 0.91642 0.0
C1368 C 0.12529 0.32674 0.8544 0.0
C1369 C 0.14061 0.33452 0.87808 0.0
C1370 C 0.12306 0.30777 0.84494 0.0
C1371 C 0.13601 0.29626 0.85948 0.0
C1372 C 0.15155 0.30411 0.88176 0.0
H1373 H 0.12939 0.19368 0.93838 0.0
H1374 H 0.12886 0.22484 0.92666 0.0
C1375 C 0.15384 0.32294 0.89083 0.0
C1376 C 0.13349 0.27611 0.85309 0.0
H1377 H 0.10697 0.24304 0.88211 0.0
C1378 C 0.1472 0.26479 0.83329 0.0
C1379 C 0.11871 0.26805 0.87056 0.0
C1380 C 0.10391 0.27931 0.89422 0.0
C1381 C 0.14693 0.24589 0.83206 0.0
C1382 C 0.13226 0.23786 0.85002 0.0
C1383 C 0.11819 0.2491 0.86813 0.0
C1384 C 0.13213 0.21835 0.85532 0.0
C1385 C 0.16287 0.23488 0.81379 0.0
C1386 C 0.13398 0.20398 0.81905 0.0
C1387 C 0.13451 0.18585 0.82576 0.0
C1388 C 0.13293 0.18172 0.8688 0.0
C1389 C 0.13063 0.19616 0.90466 0.0
C1390 C 0.13028 0.21413 0.89802 0.0
H1391 H 0.17465 0.24359 0.81068 0.0
H1392 H 0.16679 0.225 0.83543 0.0
H1393 H 0.15933 0.22722 0.78012 0.0
H1394 H 0.13502 0.20675 0.78556 0.0
H1395 H 0.13619 0.17511 0.79733 0.0
H1396 H 0.08628 0.87493 0.06605 0.0
H1397 H 0.05394 0.87209 0.04578 0.0
H1398 H 0.04138 0.90285 0.17446 0.0
H1399 H 0.07309 0.90565 0.19463 0.0
H1400 H 0.0241 0.85771 0.09775 0.0
H1401 H 0.01551 0.92958 0.08058 0.0
H1402 H 0.037 0.91837 0.07582 0.0
H1403 H 0.0281 0.9267 0.12983 0.0
C1404 C 0.07657 0.8811 0.08978 0.0
C1405 C 0.08229 0.89062 0.13183 0.0
C1406 C 0.05812 0.87943 0.07828 0.0
C1407 C 0.04521 0.88745 0.10846 0.0
C1408 C 0.05102 0.89675 0.15038 0.0
H1409 H 0.94189 0.90387 0.19472 0.0
H1410 H 0.97322 0.90105 0.17484 0.0
C1411 C 0.06924 0.89829 0.16189 0.0
C1412 C 0.02556 0.88638 0.09762 0.0
H1413 H 0.98904 0.91392 0.09708 0.0
C1414 C 0.01641 0.86987 0.09618 0.0
C1415 C 0.01548 0.90224 0.09562 0.0
C1416 C 0.02451 0.92021 0.09511 0.0
C1417 C 0.9975 0.86914 0.09627 0.0
C1418 C 0.9875 0.88529 0.09768 0.0
C1419 C 0.99665 0.90153 0.09605 0.0
C1420 C 0.96805 0.88629 0.10818 0.0
C1421 C 0.98831 0.85139 0.09813 0.0
C1422 C 0.95449 0.87891 0.07721 0.0
C1423 C 0.93627 0.8806 0.08854 0.0
C1424 C 0.9314 0.88962 0.13104 0.0
C1425 C 0.94508 0.89683 0.16169 0.0
C1426 C 0.96308 0.89525 0.15038 0.0
H1427 H 0.99798 0.84011 0.09811 0.0
H1428 H 0.98024 0.85273 0.12863 0.0
H1429 H 0.97897 0.84784 0.06896 0.0
H1430 H 0.95799 0.87202 0.04428 0.0
H1431 H 0.92606 0.87487 0.06426 0.0
H1432 H 0.39953 0.6895 0.44834 0.0
H1433 H 0.39851 0.72114 0.43905 0.0
H1434 H 0.36711 0.70617 0.31754 0.0
H1435 H 0.36824 0.67417 0.32629 0.0
H1436 H 0.39351 0.73297 0.312 0.0
H1437 H 0.35377 0.75218 0.46402 0.0
H1438 H 0.37436 0.74096 0.47367 0.0
H1439 H 0.35709 0.72887 0.43818 0.0
C1440 C 0.39245 0.6928 0.41939 0.0
C1441 C 0.38381 0.67914 0.3883 0.0
C1442 C 0.39183 0.71102 0.41425 0.0
C1443 C 0.38242 0.71623 0.37809 0.0
C1444 C 0.37437 0.70258 0.34592 0.0
H1445 H 0.34419 0.8261 0.38176 0.0
H1446 H 0.34763 0.79335 0.37564 0.0
C1447 C 0.37503 0.68425 0.35098 0.0
C1448 C 0.38054 0.73593 0.37507 0.0
H1449 H 0.36519 0.7763 0.43202 0.0
C1450 C 0.38726 0.74244 0.33815 0.0
C1451 C 0.3722 0.74837 0.40885 0.0
C1452 C 0.36378 0.74226 0.44822 0.0
C1453 C 0.38613 0.76099 0.33454 0.0
C1454 C 0.37827 0.7735 0.36906 0.0
C1455 C 0.37137 0.76688 0.40561 0.0
C1456 C 0.37635 0.79339 0.3677 0.0
C1457 C 0.39304 0.76691 0.29332 0.0
C1458 C 0.39127 0.80458 0.36441 0.0
C1459 C 0.38928 0.82349 0.36745 0.0
C1460 C 0.37234 0.8316 0.37445 0.0
C1461 C 0.35743 0.82032 0.37644 0.0
C1462 C 0.3594 0.80153 0.37307 0.0
H1463 H 0.39405 0.75531 0.26522 0.0
H1464 H 0.38423 0.77737 0.2826 0.0
H1465 H 0.40663 0.77284 0.30071 0.0
H1466 H 0.40458 0.79883 0.36119 0.0
H1467 H 0.40107 0.8318 0.36627 0.0
H1468 H 0.58466 0.11577 0.54452 0.0
H1469 H 0.55214 0.11598 0.52808 0.0
H1470 H 0.54479 0.15436 0.6493 0.0
H1471 H 0.57683 0.15436 0.66561 0.0
H1472 H 0.52387 0.10661 0.58034 0.0
H1473 H 0.51697 0.17792 0.55824 0.0
H1474 H 0.53836 0.16659 0.55639 0.0
H1475 H 0.52883 0.176 0.60908 0.0
C1476 C 0.57612 0.12446 0.56726 0.0
C1477 C 0.58347 0.13509 0.60632 0.0
C1478 C 0.55751 0.1245 0.55794 0.0
C1479 C 0.54594 0.13539 0.58712 0.0
C1480 C 0.55336 0.14612 0.62572 0.0
H1481 H 0.43883 0.15666 0.66156 0.0
H1482 H 0.47071 0.15514 0.64684 0.0
C1483 C 0.57179 0.14601 0.63513 0.0
C1484 C 0.52604 0.13515 0.57914 0.0
H1485 H 0.4901 0.16335 0.57653 0.0
C1486 C 0.51648 0.11893 0.57853 0.0
C1487 C 0.5163 0.1512 0.5767 0.0
C1488 C 0.52565 0.16887 0.57467 0.0
C1489 C 0.49755 0.11858 0.57851 0.0
C1490 C 0.48785 0.13486 0.57842 0.0
C1491 C 0.49743 0.15087 0.57678 0.0
C1492 C 0.46801 0.13604 0.58494 0.0
C1493 C 0.48812 0.10102 0.58122 0.0
C1494 C 0.45557 0.12611 0.55453 0.0
C1495 C 0.43706 0.12698 0.56287 0.0
C1496 C 0.43065 0.13779 0.60184 0.0
C1497 C 0.44316 0.14808 0.63132 0.0
C1498 C 0.4615 0.14726 0.62292 0.0
H1499 H 0.49758 0.09046 0.58881 0.0
H1500 H 0.47782 0.10322 0.60724 0.0
H1501 H 0.48124 0.09581 0.5488 0.0
H1502 H 0.46017 0.11758 0.52452 0.0
H1503 H 0.42786 0.11887 0.53945 0.0
H1504 H 0.89206 0.19357 0.9397 0.0
H1505 H 0.89072 0.22477 0.92811 0.0
H1506 H 0.87902 0.20641 0.78814 0.0
H1507 H 0.87966 0.1748 0.7999 0.0
H1508 H 0.90934 0.24398 0.88145 0.0
H1509 H 0.83881 0.24136 0.81798 0.0
H1510 H 0.84877 0.22312 0.8414 0.0
H1511 H 0.85351 0.22568 0.78529 0.0
C1512 C 0.88923 0.19603 0.90627 0.0
C1513 C 0.88586 0.18153 0.87077 0.0
C1514 C 0.88849 0.214 0.89969 0.0
C1515 C 0.88448 0.21813 0.85739 0.0
C1516 C 0.88168 0.2037 0.82139 0.0
H1517 H 0.89554 0.33499 0.83926 0.0
H1518 H 0.90022 0.30198 0.82424 0.0
C1519 C 0.8822 0.18558 0.82807 0.0
C1520 C 0.88307 0.23759 0.85212 0.0
H1521 H 0.85396 0.26922 0.82384 0.0
C1522 C 0.89727 0.24947 0.86851 0.0
C1523 C 0.86728 0.24487 0.83555 0.0
C1524 C 0.85115 0.23317 0.8194 0.0
C1525 C 0.89589 0.26834 0.87043 0.0
C1526 C 0.88006 0.27564 0.8541 0.0
C1527 C 0.86613 0.26369 0.83615 0.0
C1528 C 0.87688 0.29564 0.85955 0.0
C1529 C 0.91105 0.28032 0.89227 0.0
C1530 C 0.86182 0.30313 0.88254 0.0
C1531 C 0.85897 0.32186 0.89035 0.0
C1532 C 0.87117 0.33369 0.87563 0.0
C1533 C 0.88599 0.32624 0.85139 0.0
C1534 C 0.88875 0.30737 0.84313 0.0
H1535 H 0.92014 0.27304 0.91249 0.0
H1536 H 0.91911 0.28482 0.86613 0.0
H1537 H 0.90586 0.29254 0.91423 0.0
H1538 H 0.8524 0.29449 0.8955 0.0
H1539 H 0.84735 0.32711 0.90891 0.0
H1540 H 0.67191 0.82968 0.35794 0.0
H1541 H 0.66868 0.79677 0.34823 0.0
H1542 H 0.61118 0.8021 0.34094 0.0
H1543 H 0.61446 0.83518 0.34915 0.0
H1544 H 0.65391 0.77938 0.40509 0.0
H1545 H 0.61796 0.75934 0.24267 0.0
H1546 H 0.62808 0.78145 0.25965 0.0
H1547 H 0.60653 0.77658 0.27996 0.0
C1548 C 0.65858 0.82381 0.35326 0.0
C1549 C 0.64344 0.83501 0.35433 0.0
C1550 C 0.65674 0.80497 0.3478 0.0
C1551 C 0.6397 0.79679 0.3436 0.0
C1552 C 0.62451 0.80794 0.34311 0.0
H1553 H 0.6179 0.69531 0.42948 0.0
H1554 H 0.6192 0.72651 0.41712 0.0
C1555 C 0.62638 0.82688 0.34801 0.0
C1556 C 0.63801 0.77693 0.34432 0.0
H1557 H 0.61967 0.73693 0.28976 0.0
C1558 C 0.64651 0.77014 0.37959 0.0
C1559 C 0.62852 0.76469 0.31095 0.0
C1560 C 0.6199 0.77082 0.27092 0.0
C1561 C 0.64558 0.75169 0.38286 0.0
C1562 C 0.63547 0.73959 0.35062 0.0
C1563 C 0.62726 0.74621 0.31474 0.0
C1564 C 0.633 0.7202 0.35483 0.0
C1565 C 0.65562 0.74531 0.4208 0.0
C1566 C 0.63958 0.70601 0.32284 0.0
C1567 C 0.63874 0.68793 0.32966 0.0
C1568 C 0.63131 0.68377 0.36863 0.0
C1569 C 0.62398 0.69797 0.39938 0.0
C1570 C 0.62473 0.71589 0.39244 0.0
H1571 H 0.66659 0.75484 0.43467 0.0
H1572 H 0.64623 0.74449 0.44801 0.0
H1573 H 0.66145 0.73166 0.4099 0.0
H1574 H 0.64594 0.70898 0.29339 0.0
H1575 H 0.64448 0.67735 0.30526 0.0
H1576 H 0.84335 0.68931 0.15387 0.0
H1577 H 0.84732 0.72209 0.16122 0.0
H1578 H 0.90421 0.71616 0.18182 0.0
H1579 H 0.90022 0.68315 0.17536 0.0
H1580 H 0.88974 0.74757 0.23596 0.0
H1581 H 0.86852 0.7429 0.05872 0.0
H1582 H 0.85237 0.73371 0.0913 0.0
H1583 H 0.87395 0.72316 0.08271 0.0
C1584 C 0.8567 0.69499 0.16058 0.0
C1585 C 0.8715 0.68362 0.16356 0.0
C1586 C 0.85896 0.71375 0.16456 0.0
C1587 C 0.87611 0.7216 0.17101 0.0
C1588 C 0.89085 0.71041 0.17653 0.0
H1589 H 0.90056 0.82506 0.09575 0.0
H1590 H 0.90023 0.79364 0.10676 0.0
C1591 C 0.88856 0.69156 0.17289 0.0
C1592 C 0.8786 0.74124 0.1692 0.0
H1593 H 0.87135 0.77248 0.10146 0.0
C1594 C 0.8858 0.75303 0.20652 0.0
C1595 C 0.8737 0.74838 0.13057 0.0
C1596 C 0.86687 0.73638 0.08838 0.0
C1597 C 0.88787 0.77177 0.2065 0.0
C1598 C 0.88236 0.77897 0.16836 0.0
C1599 C 0.87544 0.76708 0.1309 0.0
C1600 C 0.88405 0.79863 0.1655 0.0
C1601 C 0.89624 0.78361 0.24698 0.0
C1602 C 0.87531 0.81217 0.19528 0.0
C1603 C 0.87558 0.83035 0.18921 0.0
C1604 C 0.88439 0.83531 0.15286 0.0
C1605 C 0.89352 0.82179 0.12395 0.0
C1606 C 0.89335 0.80374 0.13021 0.0
H1607 H 0.90405 0.77551 0.26793 0.0
H1608 H 0.90522 0.79398 0.23723 0.0
H1609 H 0.8855 0.79075 0.26759 0.0
H1610 H 0.86772 0.8086 0.22227 0.0
H1611 H 0.86829 0.84036 0.21191 0.0
H1612 H 0.61742 0.18316 0.684 0.0
H1613 H 0.61321 0.21623 0.69486 0.0
H1614 H 0.66374 0.22184 0.63303 0.0
H1615 H 0.66824 0.18922 0.62369 0.0
H1616 H 0.66024 0.24822 0.7021 0.0
H1617 H 0.59758 0.24344 0.59835 0.0
H1618 H 0.59656 0.23256 0.64617 0.0
H1619 H 0.61138 0.22397 0.60183 0.0
C1620 C 0.62767 0.19152 0.67318 0.0
C1621 C 0.64308 0.18354 0.65261 0.0
C1622 C 0.62519 0.21041 0.679 0.0
C1623 C 0.63797 0.22162 0.66388 0.0
C1624 C 0.65362 0.21362 0.64486 0.0
H1625 H 0.62891 0.32209 0.57043 0.0
H1626 H 0.62914 0.29114 0.58446 0.0
C1627 C 0.65615 0.19488 0.6394 0.0
C1628 C 0.6352 0.24157 0.66639 0.0
H1629 H 0.60816 0.27271 0.62824 0.0
C1630 C 0.64877 0.25359 0.68625 0.0
C1631 C 0.62032 0.24864 0.64536 0.0
C1632 C 0.60569 0.23651 0.62136 0.0
C1633 C 0.64821 0.27224 0.68439 0.0
C1634 C 0.63337 0.27931 0.6632 0.0
C1635 C 0.61951 0.26739 0.64469 0.0
C1636 C 0.6327 0.29858 0.65603 0.0
C1637 C 0.66404 0.28396 0.70307 0.0
C1638 C 0.63439 0.31335 0.69159 0.0
C1639 C 0.63451 0.33127 0.68356 0.0
C1640 C 0.6326 0.33482 0.63984 0.0
C1641 C 0.63038 0.32 0.60459 0.0
C1642 C 0.63048 0.30218 0.61257 0.0
H1643 H 0.67607 0.27573 0.70793 0.0
H1644 H 0.66752 0.29358 0.68076 0.0
H1645 H 0.66062 0.29193 0.73601 0.0
H1646 H 0.63565 0.31105 0.72559 0.0
H1647 H 0.63611 0.34232 0.71156 0.0
H1648 H 0.93725 0.36493 0.86657 0.0
H1649 H 0.96928 0.36708 0.88322 0.0
H1650 H 0.95977 0.40442 1.00494 0.0
H1651 H 0.92725 0.40242 0.98837 0.0
H1652 H 0.9881 0.40309 0.89745 0.0
H1653 H 0.99718 0.36441 0.03666 0.0
H1654 H 0.9785 0.3599 0.99735 0.0
H1655 H 0.97906 0.38043 0.0377 0.0
C1656 C 0.94182 0.37349 0.89724 0.0
C1657 C 0.92958 0.38361 0.92601 0.0
C1658 C 0.96021 0.37466 0.90669 0.0
C1659 C 0.96695 0.38588 0.94527 0.0
C1660 C 0.95484 0.39556 0.97512 0.0
H1661 H 0.08455 0.40208 0.9919 0.0
H1662 H 0.05221 0.40418 1.00635 0.0
C1663 C 0.93627 0.3944 0.9656 0.0
C1664 C 0.9867 0.38823 0.95154 0.0
H1665 H 0.02334 0.37383 1.0052 0.0
C1666 C 0.99579 0.39698 0.92157 0.0
C1667 C 0.99671 0.38029 0.98305 0.0
C1668 C 0.9875 0.37066 0.01564 0.0
C1669 C 0.01459 0.39737 0.92104 0.0
C1670 C 0.02464 0.38855 0.95081 0.0
C1671 C 0.01561 0.38058 0.98238 0.0
C1672 C 0.04429 0.38592 0.94579 0.0
C1673 C 0.02359 0.40674 0.88755 0.0
C1674 C 0.05056 0.37457 0.9078 0.0
C1675 C 0.06887 0.37334 0.89952 0.0
C1676 C 0.08145 0.38342 0.92911 0.0
C1677 C 0.07524 0.39413 0.96845 0.0
C1678 C 0.05678 0.39536 0.97673 0.0
H1679 H 0.01451 0.41658 0.87504 0.0
H1680 H 0.03589 0.414 0.90232 0.0
H1681 H 0.02755 0.39645 0.85864 0.0
H1682 H 0.0412 0.36701 0.88373 0.0
H1683 H 0.07309 0.36481 0.8691 0.0
H1684 H 0.42879 0.63714 0.47153 0.0
H1685 H 0.46116 0.64191 0.48892 0.0
H1686 H 0.47277 0.62124 0.35154 0.0
H1687 H 0.44098 0.6166 0.33423 0.0
H1688 H 0.48988 0.61615 0.47686 0.0
H1689 H 0.50004 0.6695 0.37583 0.0
H1690 H 0.47811 0.66342 0.3923 0.0
H1691 H 0.48848 0.65015 0.34468 0.0
C1692 C 0.4383 0.63372 0.44518 0.0
C1693 C 0.4323 0.62657 0.40149 0.0
C1694 C 0.45677 0.63643 0.45509 0.0
C1695 C 0.46943 0.63225 0.42132 0.0
C1696 C 0.46333 0.62499 0.37798 0.0
H1697 H 0.57662 0.59753 0.39326 0.0
H1698 H 0.54484 0.60187 0.4084 0.0
C1699 C 0.44507 0.62224 0.3682 0.0
C1700 C 0.48911 0.63472 0.43047 0.0
H1701 H 0.5263 0.65248 0.3906 0.0
C1702 C 0.49783 0.62438 0.45873 0.0
C1703 C 0.49958 0.64567 0.40744 0.0
C1704 C 0.49105 0.65796 0.37872 0.0
C1705 C 0.51669 0.62374 0.46208 0.0
C1706 C 0.52714 0.63348 0.43599 0.0
C1707 C 0.51839 0.64481 0.41024 0.0
C1708 C 0.54692 0.63084 0.43157 0.0
C1709 C 0.52522 0.61237 0.49299 0.0
C1710 C 0.55888 0.64568 0.43914 0.0
C1711 C 0.5772 0.64321 0.43031 0.0
C1712 C 0.58385 0.62588 0.41309 0.0
C1713 C 0.57195 0.61104 0.40659 0.0
C1714 C 0.55374 0.6135 0.4156 0.0
H1715 H 0.51635 0.61121 0.52108 0.0
H1716 H 0.52747 0.59847 0.47429 0.0
H1717 H 0.53831 0.61813 0.50678 0.0
H1718 H 0.55397 0.65923 0.45109 0.0
H1719 H 0.58602 0.65492 0.43548 0.0
H1720 H 0.43272 0.39495 0.52435 0.0
H1721 H 0.46498 0.39321 0.50913 0.0
H1722 H 0.47397 0.36662 0.62209 0.0
H1723 H 0.44216 0.36804 0.6369 0.0
H1724 H 0.49174 0.40938 0.56454 0.0
H1725 H 0.50426 0.33578 0.53101 0.0
H1726 H 0.48197 0.34508 0.52928 0.0
H1727 H 0.49225 0.34198 0.58154 0.0
C1728 C 0.44155 0.38835 0.5452 0.0
C1729 C 0.43482 0.38167 0.58188 0.0
C1730 C 0.45999 0.38742 0.53659 0.0
C1731 C 0.47195 0.37952 0.56404 0.0
C1732 C 0.46508 0.37236 0.59968 0.0
H1733 H 0.57411 0.40405 0.67414 0.0
H1734 H 0.543 0.40112 0.64797 0.0
C1735 C 0.4468 0.37336 0.60839 0.0
C1736 C 0.49177 0.38032 0.55907 0.0
H1737 H 0.5297 0.35483 0.56167 0.0
C1738 C 0.50002 0.39739 0.56279 0.0
C1739 C 0.50271 0.3647 0.55611 0.0
C1740 C 0.49481 0.34585 0.54876 0.0
C1741 C 0.51875 0.39937 0.56722 0.0
C1742 C 0.52956 0.38393 0.56862 0.0
C1743 C 0.52145 0.36672 0.56127 0.0
C1744 C 0.54881 0.38567 0.58306 0.0
C1745 C 0.52677 0.41811 0.5719 0.0
C1746 C 0.56255 0.37752 0.55574 0.0
C1747 C 0.58057 0.37918 0.57081 0.0
C1748 C 0.58502 0.38881 0.6136 0.0
C1749 C 0.57118 0.39664 0.64089 0.0
C1750 C 0.55334 0.39509 0.62585 0.0
H1751 H 0.51801 0.4272 0.55578 0.0
H1752 H 0.52822 0.4241 0.60781 0.0
H1753 H 0.54022 0.41768 0.557 0.0
H1754 H 0.55934 0.36997 0.52279 0.0
H1755 H 0.59092 0.37281 0.54932 0.0
H1756 H 0.07554 0.65448 0.18139 0.0
H1757 H 0.04352 0.65346 0.16422 0.0
H1758 H 0.05239 0.61579 0.04257 0.0
H1759 H 0.08482 0.61657 0.05995 0.0
H1760 H 0.02383 0.66193 0.0919 0.0
H1761 H 0.01503 0.58925 0.10474 0.0
H1762 H 0.03515 0.60178 0.12465 0.0
H1763 H 0.0312 0.59432 0.06595 0.0
C1764 C 0.07081 0.64599 0.15079 0.0
C1765 C 0.08286 0.6355 0.12221 0.0
C1766 C 0.0524 0.64546 0.14097 0.0
C1767 C 0.04539 0.63436 0.10245 0.0
C1768 C 0.05739 0.62424 0.07295 0.0
H1769 H 0.92809 0.61567 0.05537 0.0
H1770 H 0.96039 0.61553 0.0403 0.0
C1771 C 0.07596 0.62481 0.08271 0.0
C1772 C 0.02552 0.63345 0.09444 0.0
H1773 H 0.98899 0.60578 0.09449 0.0
C1774 C 0.01625 0.64958 0.09186 0.0
C1775 C 0.01551 0.61734 0.09414 0.0
C1776 C 0.02463 0.59967 0.09779 0.0
C1777 C 0.99739 0.65018 0.09054 0.0
C1778 C 0.98738 0.63431 0.09266 0.0
C1779 C 0.99661 0.61796 0.09291 0.0
C1780 C 0.96761 0.63488 0.09961 0.0
C1781 C 0.98836 0.66797 0.08767 0.0
C1782 C 0.96086 0.64572 0.13788 0.0
C1783 C 0.94256 0.64579 0.14653 0.0
C1784 C 0.93037 0.63498 0.11723 0.0
C1785 C 0.93704 0.62428 0.07844 0.0
C1786 C 0.95552 0.62413 0.06991 0.0
H1787 H 0.99705 0.67684 0.07161 0.0
H1788 H 0.97543 0.66582 0.06861 0.0
H1789 H 0.98565 0.67522 0.12183 0.0
H1790 H 0.96986 0.65386 0.16183 0.0
H1791 H 0.93802 0.65419 0.1768 0.0
H1792 H 0.15794 0.5842 0.10692 0.0
H1793 H 0.15799 0.554 0.06002 0.0
H1794 H 0.1077 0.54157 0.11448 0.0
H1795 H 0.10762 0.57176 0.16153 0.0
H1796 H 0.13288 0.51336 0.11032 0.0
H1797 H 0.12634 0.53702 0.94812 0.0
H1798 H 0.14468 0.54697 0.9834 0.0
H1799 H 0.12206 0.5516 1.00057 0.0
C1800 C 0.14689 0.57504 0.10887 0.0
C1801 C 0.13274 0.5804 0.13785 0.0
C1802 C 0.14688 0.55779 0.08184 0.0
C1803 C 0.13272 0.54552 0.08316 0.0
C1804 C 0.11874 0.55078 0.11266 0.0
H1805 H 0.10537 0.44731 0.89304 0.0
H1806 H 0.10623 0.47743 0.94038 0.0
C1807 C 0.1187 0.56805 0.13954 0.0
C1808 C 0.13253 0.52718 0.05415 0.0
H1809 H 0.13147 0.50561 0.9453 0.0
C1810 C 0.13258 0.51168 0.07424 0.0
C1811 C 0.13193 0.52491 1.007 0.0
C1812 C 0.13109 0.54098 0.98334 0.0
C1813 C 0.13228 0.49405 0.04861 0.0
C1814 C 0.13207 0.49178 1.00146 0.0
C1815 C 0.13179 0.50729 0.98137 0.0
C1816 C 0.13175 0.47345 0.97243 0.0
C1817 C 0.13183 0.47799 0.07225 0.0
C1818 C 0.14591 0.46118 0.97408 0.0
C1819 C 0.14547 0.44397 0.94689 0.0
C1820 C 0.13087 0.43864 0.9174 0.0
C1821 C 0.1168 0.45099 0.91543 0.0
C1822 C 0.11728 0.46822 0.94247 0.0
H1823 H 0.12768 0.48194 0.10736 0.0
H1824 H 0.12251 0.46736 0.05479 0.0
H1825 H 0.14543 0.47202 0.07256 0.0
H1826 H 0.15738 0.46496 0.99625 0.0
H1827 H 0.15656 0.43481 0.94905 0.0
H1828 H 0.68415 0.88263 0.24585 0.0
H1829 H 0.71381 0.8823 0.21413 0.0
H1830 H 0.73747 0.89809 0.3457 0.0
H1831 H 0.70762 0.89836 0.37807 0.0
H1832 H 0.73897 0.90995 0.2183 0.0
H1833 H 0.76692 0.85324 0.2935 0.0
H1834 H 0.74324 0.85813 0.29247 0.0
H1835 H 0.758 0.87182 0.3322 0.0
C1836 C 0.6956 0.88603 0.26832 0.0
C1837 C 0.69336 0.89047 0.31476 0.0
C1838 C 0.71263 0.88586 0.24995 0.0
C1839 C 0.72802 0.88994 0.27735 0.0
C1840 C 0.72589 0.89457 0.32375 0.0
H1841 H 0.83323 0.91149 0.17059 0.0
H1842 H 0.80533 0.91404 0.21211 0.0
C1843 C 0.70876 0.89484 0.34225 0.0
C1844 C 0.74611 0.88945 0.2568 0.0
H1845 H 0.78643 0.86736 0.25014 0.0
C1846 C 0.74938 0.90071 0.22551 0.0
C1847 C 0.7597 0.87724 0.26562 0.0
C1848 C 0.75684 0.86428 0.29747 0.0
C1849 C 0.76568 0.90009 0.20291 0.0
C1850 C 0.77933 0.88799 0.21198 0.0
C1851 C 0.77609 0.87673 0.24329 0.0
C1852 C 0.79674 0.88637 0.18807 0.0
C1853 C 0.76794 0.91204 0.16844 0.0
C1854 C 0.80159 0.86985 0.16148 0.0
C1855 C 0.81758 0.86835 0.13781 0.0
C1856 C 0.82923 0.88329 0.14045 0.0
C1857 C 0.82454 0.89973 0.16768 0.0
C1858 C 0.80852 0.90124 0.19129 0.0
H1859 H 0.7549 0.91728 0.15787 0.0
H1860 H 0.77651 0.92385 0.18278 0.0
H1861 H 0.77457 0.90456 0.13853 0.0
H1862 H 0.79283 0.85815 0.15845 0.0
H1863 H 0.8208 0.85548 0.1173 0.0
H1864 H 0.41503 0.44689 0.61523 0.0
H1865 H 0.4134 0.47329 0.57807 0.0
H1866 H 0.35658 0.46459 0.55506 0.0
H1867 H 0.35836 0.43766 0.59061 0.0
H1868 H 0.36988 0.47469 0.48472 0.0
H1869 H 0.39673 0.52233 0.63094 0.0
H1870 H 0.41227 0.50453 0.61247 0.0
H1871 H 0.39099 0.49923 0.63386 0.0
C1872 C 0.40218 0.45059 0.60224 0.0
C1873 C 0.3868 0.44023 0.60634 0.0
C1874 C 0.40122 0.46584 0.58121 0.0
C1875 C 0.38476 0.47146 0.56461 0.0
C1876 C 0.36945 0.46079 0.56773 0.0
H1877 H 0.36737 0.58162 0.51777 0.0
H1878 H 0.36825 0.55292 0.54474 0.0
C1879 C 0.37046 0.44538 0.58823 0.0
C1880 C 0.38349 0.48841 0.54433 0.0
H1881 H 0.3942 0.53364 0.56312 0.0
C1882 C 0.37514 0.48759 0.50203 0.0
C1883 C 0.39004 0.50548 0.5668 0.0
C1884 C 0.39783 0.50802 0.61369 0.0
C1885 C 0.37331 0.50311 0.48173 0.0
C1886 C 0.3805 0.52003 0.5035 0.0
C1887 C 0.38879 0.5208 0.54583 0.0
C1888 C 0.37894 0.53731 0.48455 0.0
C1889 C 0.36311 0.50124 0.43778 0.0
C1890 C 0.38441 0.53846 0.44114 0.0
C1891 C 0.38354 0.55501 0.42509 0.0
C1892 C 0.37761 0.57095 0.45244 0.0
C1893 C 0.37209 0.56972 0.49566 0.0
C1894 C 0.37265 0.55321 0.51129 0.0
H1895 H 0.35392 0.48935 0.43266 0.0
H1896 H 0.35513 0.51357 0.43559 0.0
H1897 H 0.37275 0.49918 0.41026 0.0
H1898 H 0.38982 0.52669 0.41993 0.0
H1899 H 0.38811 0.55546 0.39188 0.0
H1900 H 0.83557 0.10465 0.84738 0.0
H1901 H 0.80737 0.10251 0.80334 0.0
H1902 H 0.79594 0.15833 0.85771 0.0
H1903 H 0.82411 0.16054 0.90154 0.0
H1904 H 0.77226 0.10774 0.83327 0.0
H1905 H 0.78833 0.15665 0.72314 0.0
H1906 H 0.80528 0.14704 0.75525 0.0
H1907 H 0.79173 0.16555 0.78144 0.0
C1908 C 0.82709 0.11649 0.84973 0.0
C1909 C 0.83213 0.13279 0.87788 0.0
C1910 C 0.81095 0.11526 0.82455 0.0
C1911 C 0.79955 0.13033 0.82655 0.0
C1912 C 0.80459 0.1466 0.85476 0.0
H1913 H 0.68633 0.13654 0.76694 0.0
H1914 H 0.71647 0.13583 0.79919 0.0
C1915 C 0.82067 0.14781 0.8801 0.0
C1916 C 0.7821 0.12888 0.80067 0.0
H1917 H 0.75768 0.14756 0.72357 0.0
C1918 C 0.76915 0.11637 0.80907 0.0
C1919 C 0.77801 0.13992 0.76849 0.0
C1920 C 0.79161 0.15294 0.75611 0.0
C1921 C 0.75213 0.11507 0.78756 0.0
C1922 C 0.74774 0.1267 0.75694 0.0
C1923 C 0.76091 0.13874 0.74726 0.0
C1924 C 0.72932 0.12707 0.73633 0.0
C1925 C 0.73894 0.10122 0.79784 0.0
C1926 C 0.72635 0.12272 0.68987 0.0
C1927 C 0.70894 0.12306 0.67105 0.0
C1928 C 0.69414 0.12802 0.69827 0.0
C1929 C 0.69728 0.13258 0.74471 0.0
C1930 C 0.71458 0.13211 0.7634 0.0
H1931 H 0.74577 0.09023 0.81191 0.0
H1932 H 0.72944 0.10797 0.82283 0.0
H1933 H 0.73111 0.09506 0.76747 0.0
H1934 H 0.73749 0.11889 0.66817 0.0
H1935 H 0.7071 0.11955 0.63521 0.0
H1936 H 0.90569 0.57077 0.15331 0.0
H1937 H 0.90504 0.54065 0.10596 0.0
H1938 H 0.85405 0.55296 0.04898 0.0
H1939 H 0.85467 0.58311 0.09613 0.0
H1940 H 0.88006 0.51237 0.10032 0.0
H1941 H 0.88403 0.5362 0.93853 0.0
H1942 H 0.88892 0.5508 0.99123 0.0
H1943 H 0.86609 0.54596 0.97289 0.0
C1944 C 0.89434 0.56706 0.13069 0.0
C1945 C 0.88027 0.57937 0.12836 0.0
C1946 C 0.89398 0.54982 0.10364 0.0
C1947 C 0.87962 0.54455 0.07334 0.0
C1948 C 0.86544 0.55677 0.0714 0.0
H1949 H 0.85412 0.43369 0.9387 0.0
H1950 H 0.85393 0.46387 0.98568 0.0
C1951 C 0.86576 0.57399 0.09857 0.0
C1952 C 0.87944 0.52624 0.04424 0.0
H1953 H 0.87881 0.50475 0.93532 0.0
C1954 C 0.87978 0.51071 0.06425 0.0
C1955 C 0.8793 0.52401 0.9971 0.0
C1956 C 0.87973 0.5401 0.97353 0.0
C1957 C 0.87974 0.49311 0.03854 0.0
C1958 C 0.87917 0.49088 0.9914 0.0
C1959 C 0.87908 0.50641 0.97139 0.0
C1960 C 0.87906 0.47256 0.9623 0.0
C1961 C 0.88067 0.47703 0.06214 0.0
C1962 C 0.89301 0.46745 0.93259 0.0
C1963 C 0.89312 0.4502 0.90563 0.0
C1964 C 0.8792 0.43772 0.90746 0.0
C1965 C 0.86509 0.44296 0.93663 0.0
C1966 C 0.86501 0.46018 0.96372 0.0
H1967 H 0.88547 0.48098 0.09731 0.0
H1968 H 0.86709 0.47102 0.06224 0.0
H1969 H 0.88968 0.46642 0.0448 0.0
H1970 H 0.90396 0.47674 0.93067 0.0
H1971 H 0.90417 0.44659 0.88349 0.0
H1972 H 0.18416 0.10509 0.84417 0.0
H1973 H 0.21138 0.10332 0.80005 0.0
H1974 H 0.22283 0.15954 0.85261 0.0
H1975 H 0.19556 0.16141 0.89637 0.0
H1976 H 0.22792 0.15044 0.76 0.0
H1977 H 0.26285 0.10165 0.8499 0.0
H1978 H 0.24107 0.09452 0.82694 0.0
H1979 H 0.24312 0.11384 0.87106 0.0
C1980 C 0.19247 0.11708 0.84629 0.0
C1981 C 0.18769 0.13338 0.87399 0.0
C1982 C 0.20811 0.11603 0.82117 0.0
C1983 C 0.2194 0.13123 0.82327 0.0
C1984 C 0.21445 0.14759 0.85037 0.0
H1985 H 0.33063 0.13994 0.75974 0.0
H1986 H 0.30127 0.13894 0.79224 0.0
C1987 C 0.19885 0.14863 0.87556 0.0
C1988 C 0.23645 0.13013 0.79779 0.0
H1989 H 0.27764 0.10981 0.78885 0.0
C1990 C 0.23875 0.14147 0.76614 0.0
C1991 C 0.25073 0.11856 0.80589 0.0
C1992 C 0.24948 0.10654 0.84052 0.0
C1993 C 0.25483 0.1416 0.7427 0.0
C1994 C 0.26907 0.12999 0.75073 0.0
C1995 C 0.26673 0.1186 0.78223 0.0
C1996 C 0.28697 0.1304 0.72949 0.0
C1997 C 0.25666 0.1546 0.71055 0.0
C1998 C 0.28898 0.12576 0.68302 0.0
C1999 C 0.30598 0.12625 0.66402 0.0
C2000 C 0.32135 0.13144 0.69107 0.0
C2001 C 0.31921 0.13594 0.73755 0.0
C2002 C 0.30234 0.13534 0.75639 0.0
H2003 H 0.24598 0.16506 0.71458 0.0
H2004 H 0.26991 0.16152 0.7152 0.0
H2005 H 0.2557 0.14695 0.67592 0.0
H2006 H 0.27743 0.12162 0.66142 0.0
H2007 H 0.30705 0.12264 0.6282 0.0
H2008 H 0.63686 0.58884 0.51106 0.0
H2009 H 0.63799 0.56011 0.5379 0.0
H2010 H 0.6416 0.53138 0.40283 0.0
H2011 H 0.64083 0.5603 0.37549 0.0
H2012 H 0.61532 0.53154 0.52255 0.0
H2013 H 0.68265 0.5091 0.46325 0.0
H2014 H 0.67472 0.53189 0.4639 0.0
H2015 H 0.66761 0.51382 0.41989 0.0
C2016 C 0.63799 0.57646 0.48683 0.0
C2017 C 0.63883 0.57699 0.44093 0.0
C2018 C 0.63861 0.55997 0.50238 0.0
C2019 C 0.64013 0.54349 0.47262 0.0
C2020 C 0.64084 0.5439 0.42669 0.0
H2021 H 0.63993 0.43046 0.50133 0.0
H2022 H 0.64017 0.4595 0.47607 0.0
C2023 C 0.64029 0.56046 0.41102 0.0
C2024 C 0.64048 0.52601 0.48998 0.0
H2025 H 0.66524 0.48776 0.49298 0.0
C2026 C 0.6263 0.52203 0.51624 0.0
C2027 C 0.65481 0.51354 0.48199 0.0
C2028 C 0.6709 0.51733 0.45609 0.0
C2029 C 0.62586 0.50587 0.53384 0.0
C2030 C 0.64012 0.49336 0.5256 0.0
C2031 C 0.65432 0.49734 0.49944 0.0
C2032 C 0.6402 0.47573 0.54216 0.0
C2033 C 0.60987 0.50208 0.56012 0.0
C2034 C 0.64035 0.47504 0.58801 0.0
C2035 C 0.64024 0.45829 0.60285 0.0
C2036 C 0.63998 0.44187 0.57209 0.0
C2037 C 0.64005 0.44272 0.52624 0.0
C2038 C 0.64023 0.45938 0.51156 0.0
H2039 H 0.59833 0.51092 0.55497 0.0
H2040 H 0.60557 0.48769 0.55072 0.0
H2041 H 0.61359 0.50465 0.59616 0.0
H2042 H 0.64064 0.48746 0.61237 0.0
H2043 H 0.64026 0.45822 0.63833 0.0
H2044 H 0.30739 0.88324 0.38967 0.0
H2045 H 0.27734 0.88176 0.35401 0.0
H2046 H 0.30031 0.8933 0.23366 0.0
H2047 H 0.33018 0.89371 0.26808 0.0
H2048 H 0.25571 0.90307 0.32062 0.0
H2049 H 0.27332 0.84948 0.18026 0.0
H2050 H 0.2884 0.85637 0.22725 0.0
H2051 H 0.28753 0.86882 0.18168 0.0
C2052 C 0.30598 0.88546 0.35561 0.0
C2053 C 0.32123 0.88833 0.33156 0.0
C2054 C 0.28877 0.8846 0.33514 0.0
C2055 C 0.28642 0.8868 0.29035 0.0
C2056 C 0.30163 0.89073 0.26741 0.0
H2057 H 0.18449 0.91139 0.16394 0.0
H2058 H 0.21267 0.91256 0.20733 0.0
C2059 C 0.31877 0.89116 0.2874 0.0
C2060 C 0.26824 0.88503 0.26738 0.0
H2061 H 0.24638 0.86579 0.17042 0.0
C2062 C 0.25367 0.89478 0.28794 0.0
C2063 C 0.26518 0.87385 0.22511 0.0
C2064 C 0.2794 0.86139 0.2026 0.0
C2065 C 0.23649 0.8941 0.26707 0.0
C2066 C 0.23381 0.88396 0.22338 0.0
C2067 C 0.24827 0.87384 0.20345 0.0
C2068 C 0.21624 0.88342 0.19769 0.0
C2069 C 0.22134 0.90391 0.29282 0.0
C2070 C 0.2089 0.86675 0.17595 0.0
C2071 C 0.19306 0.86613 0.14985 0.0
C2072 C 0.18396 0.88213 0.1452 0.0
C2073 C 0.19111 0.8988 0.16716 0.0
C2074 C 0.20717 0.89945 0.19251 0.0
H2075 H 0.22383 0.90525 0.32935 0.0
H2076 H 0.22026 0.9178 0.28509 0.0
H2077 H 0.20835 0.89677 0.28413 0.0
H2078 H 0.21548 0.85412 0.17904 0.0
H2079 H 0.18787 0.85307 0.13351 0.0
H2080 H 0.65983 0.93541 0.42522 0.0
H2081 H 0.66025 0.96526 0.47383 0.0
H2082 H 0.60858 0.97723 0.41984 0.0
H2083 H 0.60811 0.94741 0.3712 0.0
H2084 H 0.63334 1.00592 0.42559 0.0
H2085 H 0.63056 0.98075 0.58596 0.0
H2086 H 0.64832 0.97141 0.55042 0.0
H2087 H 0.62542 0.96649 0.53292 0.0
C2088 C 0.64855 0.94439 0.42378 0.0
C2089 C 0.6339 0.93901 0.39448 0.0
C2090 C 0.64876 0.96143 0.45177 0.0
C2091 C 0.63433 0.97347 0.45105 0.0
C2092 C 0.61984 0.9682 0.42123 0.0
H2093 H 0.60912 0.07043 0.64418 0.0
H2094 H 0.60941 0.04043 0.59615 0.0
C2095 C 0.61958 0.95114 0.39342 0.0
C2096 C 0.63439 0.99161 0.48088 0.0
H2097 H 0.63505 0.01237 0.59039 0.0
C2098 C 0.63372 1.00732 0.46161 0.0
C2099 C 0.63467 0.99349 0.52796 0.0
C2100 C 0.63463 0.97717 0.5507 0.0
C2101 C 0.63358 0.02479 0.488 0.0
C2102 C 0.63426 0.02668 0.53509 0.0
C2103 C 0.63467 0.01097 0.55436 0.0
C2104 C 0.63431 0.04484 0.56482 0.0
C2105 C 0.63236 0.04108 0.46521 0.0
C2106 C 0.64833 0.05728 0.56384 0.0
C2107 C 0.64822 0.0744 0.59139 0.0
C2108 C 0.63408 0.07947 0.62059 0.0
C2109 C 0.62018 0.06694 0.62201 0.0
C2110 C 0.62034 0.04978 0.59458 0.0
H2111 H 0.62754 0.03731 0.43 0.0
H2112 H 0.62323 0.05144 0.48303 0.0
H2113 H 0.64585 0.04731 0.46531 0.0
H2114 H 0.65943 0.05373 0.54182 0.0
H2115 H 0.65918 0.0837 0.58964 0.0
H2116 H 0.18049 0.38432 0.77032 0.0
H2117 H 0.20997 0.38544 0.73838 0.0
H2118 H 0.23382 0.39971 0.87016 0.0
H2119 H 0.20414 0.39862 0.90281 0.0
H2120 H 0.23498 0.41523 0.74916 0.0
H2121 H 0.2629 0.35489 0.80957 0.0
H2122 H 0.23915 0.35941 0.8079 0.0
H2123 H 0.25327 0.37204 0.851 0.0
C2124 C 0.19195 0.38769 0.79277 0.0
C2125 C 0.18987 0.3913 0.83933 0.0
C2126 C 0.20884 0.38836 0.77429 0.0
C2127 C 0.22416 0.39247 0.80176 0.0
C2128 C 0.22221 0.39627 0.84827 0.0
H2129 H 0.33751 0.3949 0.7459 0.0
H2130 H 0.3082 0.39554 0.77919 0.0
C2131 C 0.20522 0.39572 0.8669 0.0
C2132 C 0.24207 0.39277 0.7813 0.0
H2133 H 0.28229 0.37083 0.77024 0.0
C2134 C 0.24535 0.40554 0.75378 0.0
C2135 C 0.25558 0.38011 0.78722 0.0
C2136 C 0.25261 0.36571 0.81523 0.0
C2137 C 0.26185 0.4062 0.73267 0.0
C2138 C 0.27533 0.39339 0.73817 0.0
C2139 C 0.272 0.38063 0.76579 0.0
C2140 C 0.29317 0.39327 0.71684 0.0
C2141 C 0.26481 0.42094 0.70569 0.0
C2142 C 0.29468 0.39164 0.67034 0.0
C2143 C 0.31159 0.39142 0.65097 0.0
C2144 C 0.32736 0.39254 0.67763 0.0
C2145 C 0.32574 0.39396 0.72408 0.0
C2146 C 0.30891 0.39433 0.74334 0.0
H2147 H 0.25552 0.43249 0.71514 0.0
H2148 H 0.27879 0.42615 0.71001 0.0
H2149 H 0.2623 0.41536 0.66987 0.0
H2150 H 0.28279 0.39033 0.64891 0.0
H2151 H 0.31229 0.39017 0.61512 0.0
H2152 H 0.87407 0.95856 0.14413 0.0
H2153 H 0.87371 0.9872 0.11501 0.0
H2154 H 0.87958 0.95743 0.98172 0.0
H2155 H 0.87981 0.92908 1.00992 0.0
H2156 H 0.90004 1.00176 0.06552 0.0
H2157 H 0.83654 0.98954 0.96644 0.0
H2158 H 0.84288 0.97653 1.00884 0.0
H2159 H 0.8524 0.97143 0.95448 0.0
C2160 C 0.87519 0.95811 0.10862 0.0
C2161 C 0.87687 0.94138 0.07957 0.0
C2162 C 0.875 0.97451 0.09198 0.0
C2163 C 0.87628 0.97451 0.04596 0.0
C2164 C 0.87814 0.95786 0.01715 0.0
H2165 H 0.8798 0.05754 0.87478 0.0
H2166 H 0.87943 0.02881 0.90351 0.0
C2167 C 0.87838 0.94157 0.0336 0.0
C2168 C 0.87626 0.9918 0.02776 0.0
H2169 H 0.85457 0.01414 0.95326 0.0
C2170 C 0.89001 1.00452 0.04127 0.0
C2171 C 0.86332 0.99538 0.9956 0.0
C2172 C 0.84785 0.98259 0.98072 0.0
C2173 C 0.89135 0.0205 0.02307 0.0
C2174 C 0.87834 0.02414 0.99109 0.0
C2175 C 0.8646 0.01139 0.97753 0.0
C2176 C 0.87834 0.04147 0.97296 0.0
C2177 C 0.907 0.03309 0.03757 0.0
C2178 C 0.87743 0.05816 1.00209 0.0
C2179 C 0.87771 0.07448 0.98588 0.0
C2180 C 0.87869 0.0747 0.93982 0.0
C2181 C 0.87911 0.05795 0.91038 0.0
C2182 C 0.87891 0.04151 0.92681 0.0
H2183 H 0.91843 0.02587 0.05053 0.0
H2184 H 0.91171 0.03944 1.00964 0.0
H2185 H 0.90281 0.04403 0.0648 0.0
H2186 H 0.87645 0.05859 0.03764 0.0
H2187 H 0.87714 0.08699 1.00984 0.0
H2188 H 0.20613 0.61995 0.15457 0.0
H2189 H 0.23633 0.61884 0.18827 0.0
H2190 H 0.21485 0.63577 0.31881 0.0
H2191 H 0.18488 0.63692 0.28581 0.0
H2192 H 0.25653 0.64732 0.24494 0.0
H2193 H 0.24338 0.58953 0.33094 0.0
H2194 H 0.22908 0.5947 0.2862 0.0
H2195 H 0.22723 0.60744 0.34166 0.0
C2196 C 0.20783 0.62337 0.19045 0.0
C2197 C 0.19296 0.62845 0.21734 0.0
C2198 C 0.22513 0.62277 0.20969 0.0
C2199 C 0.2279 0.62699 0.25622 0.0
C2200 C 0.21309 0.63216 0.28296 0.0
H2201 H 0.32261 0.65796 0.424 0.0
H2202 H 0.2944 0.65654 0.38042 0.0
C2203 C 0.1959 0.63288 0.26386 0.0
C2204 C 0.24618 0.62631 0.27721 0.0
H2205 H 0.27011 0.60651 0.35297 0.0
C2206 C 0.25954 0.63829 0.26828 0.0
C2207 C 0.25026 0.61442 0.3074 0.0
C2208 C 0.23681 0.60066 0.31691 0.0
C2209 C 0.27657 0.63912 0.28978 0.0
C2210 C 0.28036 0.62778 0.32143 0.0
C2211 C 0.26721 0.61536 0.32916 0.0
C2212 C 0.29777 0.62875 0.34732 0.0
C2213 C 0.29041 0.6521 0.27829 0.0
C2214 C 0.309 0.61353 0.34408 0.0
C2215 C 0.32515 0.61431 0.36909 0.0
C2216 C 0.33035 0.6303 0.39824 0.0
C2217 C 0.31903 0.64547 0.40177 0.0
C2218 C 0.30294 0.64471 0.37659 0.0
H2219 H 0.28722 0.65628 0.24579 0.0
H2220 H 0.29078 0.66447 0.3044 0.0
H2221 H 0.30396 0.64592 0.27691 0.0
H2222 H 0.30531 0.60103 0.32201 0.0
H2223 H 0.33353 0.60237 0.36573 0.0
H2224 H 0.40565 0.94614 0.38451 0.0
H2225 H 0.40474 0.97696 0.42812 0.0
H2226 H 0.3552 0.96419 0.48549 0.0
H2227 H 0.35611 0.93332 0.44208 0.0
H2228 H 0.37939 1.00431 0.42923 0.0
H2229 H 0.3858 0.98471 0.59604 0.0
H2230 H 0.39029 0.96912 0.54528 0.0
H2231 H 0.3676 0.97384 0.5618 0.0
C2232 C 0.39456 0.94988 0.40645 0.0
C2233 C 0.38098 0.9372 0.40985 0.0
C2234 C 0.39404 0.96755 0.43139 0.0
C2235 C 0.38003 0.97298 0.46075 0.0
C2236 C 0.36635 0.96036 0.46385 0.0
H2237 H 0.35517 0.08613 0.58023 0.0
H2238 H 0.35442 0.05526 0.53646 0.0
C2239 C 0.36683 0.94269 0.43876 0.0
C2240 C 0.37971 0.99184 0.48762 0.0
H2241 H 0.38004 0.01571 0.5945 0.0
C2242 C 0.37951 1.00677 0.46537 0.0
C2243 C 0.38007 0.99521 0.5349 0.0
C2244 C 0.38112 0.97991 0.56105 0.0
C2245 C 0.37947 0.02481 0.48885 0.0
C2246 C 0.37947 0.02818 0.53611 0.0
C2247 C 0.37986 0.01325 0.55836 0.0
C2248 C 0.37967 0.04704 0.56305 0.0
C2249 C 0.37987 0.04014 0.46277 0.0
C2250 C 0.39387 0.05277 0.59351 0.0
C2251 C 0.39429 0.07042 0.61863 0.0
C2252 C 0.38043 0.08278 0.61435 0.0
C2253 C 0.36609 0.07699 0.5843 0.0
C2254 C 0.36571 0.05934 0.559 0.0
H2255 H 0.38428 0.03548 0.4281 0.0
H2256 H 0.3662 0.04584 0.46106 0.0
H2257 H 0.38897 0.05118 0.47922 0.0
H2258 H 0.40479 0.04363 0.59752 0.0
H2259 H 0.40553 0.07439 0.64144 0.0
H2260 H 0.80716 0.61926 0.13951 0.0
H2261 H 0.7771 0.61907 0.17062 0.0
H2262 H 0.79967 0.63635 0.30284 0.0
H2263 H 0.82952 0.63649 0.2724 0.0
H2264 H 0.77513 0.60782 0.298 0.0
H2265 H 0.74663 0.66372 0.22044 0.0
H2266 H 0.75625 0.64522 0.18277 0.0
H2267 H 0.77041 0.65943 0.22296 0.0
C2268 C 0.80572 0.62302 0.1752 0.0
C2269 C 0.82086 0.62795 0.20328 0.0
C2270 C 0.78849 0.62301 0.19296 0.0
C2271 C 0.78602 0.6279 0.23916 0.0
C2272 C 0.80114 0.63257 0.26714 0.0
H2273 H 0.69347 0.66226 0.39779 0.0
H2274 H 0.72129 0.65935 0.35617 0.0
C2275 C 0.81827 0.63267 0.24952 0.0
C2276 C 0.76784 0.6281 0.25895 0.0
H2277 H 0.72733 0.64974 0.26443 0.0
C2278 C 0.76463 0.6169 0.29038 0.0
C2279 C 0.75416 0.64009 0.24953 0.0
C2280 C 0.75697 0.65293 0.21737 0.0
C2281 C 0.74829 0.61741 0.31272 0.0
C2282 C 0.73458 0.62935 0.3032 0.0
C2283 C 0.73774 0.6405 0.27159 0.0
C2284 C 0.71724 0.63108 0.32726 0.0
C2285 C 0.74607 0.60559 0.34747 0.0
C2286 C 0.70545 0.61624 0.32458 0.0
C2287 C 0.68951 0.61788 0.34848 0.0
C2288 C 0.68496 0.63442 0.37547 0.0
C2289 C 0.69661 0.64931 0.37751 0.0
C2290 C 0.71251 0.64768 0.35357 0.0
H2291 H 0.75912 0.60036 0.35805 0.0
H2292 H 0.73949 0.61317 0.37734 0.0
H2293 H 0.73747 0.59377 0.33342 0.0
H2294 H 0.70858 0.60337 0.30398 0.0
H2295 H 0.68082 0.60616 0.34608 0.0
H2296 H 0.13971 0.08674 1.00764 0.0
H2297 H 0.13998 0.05828 0.03526 0.0
H2298 H 0.14035 0.02873 0.90047 0.0
H2299 H 0.14042 0.05749 0.87211 0.0
H2300 H 0.11604 0.03103 0.02413 0.0
H2301 H 0.18112 1.00453 0.95727 0.0
H2302 H 0.17425 0.02766 0.95772 0.0
H2303 H 0.16545 0.00968 0.91569 0.0
C2304 C 0.13993 0.07427 0.98349 0.0
C2305 C 0.14011 0.07458 0.93735 0.0
C2306 C 0.14006 0.05789 0.99957 0.0
C2307 C 0.14041 0.04122 0.97023 0.0
C2308 C 0.14047 0.04137 0.92403 0.0
H2309 H 0.13778 0.92931 1.01058 0.0
H2310 H 0.1384 0.95762 0.98207 0.0
C2311 C 0.1404 0.05786 0.90776 0.0
C2312 C 0.14031 0.0239 0.98859 0.0
H2313 H 0.1638 0.98491 0.99244 0.0
C2314 C 0.12654 0.02098 0.01724 0.0
C2315 C 0.15399 0.01073 0.97993 0.0
C2316 C 0.16964 0.01331 0.95132 0.0
C2317 C 0.12591 1.00528 0.03675 0.0
C2318 C 0.13959 0.99212 0.02811 0.0
C2319 C 0.15334 0.99499 0.99935 0.0
C2320 C 0.13947 0.97491 0.04683 0.0
C2321 C 0.11033 1.0027 0.06559 0.0
C2322 C 0.14009 0.97499 0.09311 0.0
C2323 C 0.13975 0.95862 0.10988 0.0
C2324 C 0.1388 0.94181 0.08069 0.0
C2325 C 0.13844 0.94188 0.03441 0.0
C2326 C 0.13883 0.95814 0.01782 0.0
H2327 H 0.09894 0.01172 0.06044 0.0
H2328 H 0.10554 0.98842 0.05864 0.0
H2329 H 0.11471 1.00597 0.10117 0.0
H2330 H 0.14092 0.98771 0.11633 0.0
H2331 H 0.14012 0.95917 0.14562 0.0
H2332 H 0.69646 0.35748 0.60289 0.0
H2333 H 0.72414 0.35996 0.64888 0.0
H2334 H 0.70865 0.41328 0.71424 0.0
H2335 H 0.68112 0.41107 0.66765 0.0
H2336 H 0.75089 0.39319 0.65724 0.0
H2337 H 0.72181 0.38015 0.81512 0.0
H2338 H 0.71145 0.37137 0.76138 0.0
H2339 H 0.71032 0.39512 0.78365 0.0
C2340 C 0.69895 0.36974 0.62704 0.0
C2341 C 0.68654 0.38402 0.63186 0.0
C2342 C 0.71475 0.37112 0.65336 0.0
C2343 C 0.71837 0.38672 0.68531 0.0
C2344 C 0.70603 0.40104 0.69015 0.0
H2345 H 0.80923 0.40846 0.87922 0.0
H2346 H 0.77985 0.40948 0.84113 0.0
C2347 C 0.69032 0.39975 0.6635 0.0
C2348 C 0.73538 0.38824 0.71232 0.0
H2349 H 0.75303 0.38497 0.81525 0.0
C2350 C 0.75137 0.39144 0.69181 0.0
C2351 C 0.73593 0.38628 0.75761 0.0
C2352 C 0.71902 0.38298 0.78105 0.0
C2353 C 0.76794 0.39253 0.7152 0.0
C2354 C 0.76869 0.38971 0.76003 0.0
C2355 C 0.75257 0.387 0.7809 0.0
C2356 C 0.78613 0.38871 0.78476 0.0
C2357 C 0.78446 0.39699 0.69163 0.0
C2358 C 0.79927 0.37634 0.76669 0.0
C2359 C 0.81602 0.37589 0.78804 0.0
C2360 C 0.82004 0.38753 0.82863 0.0
C2361 C 0.80661 0.39935 0.84795 0.0
C2362 C 0.78982 0.39995 0.82616 0.0
H2363 H 0.78101 0.40471 0.66466 0.0
H2364 H 0.79425 0.40506 0.71513 0.0
H2365 H 0.79098 0.3842 0.67605 0.0
H2366 H 0.79664 0.36707 0.73569 0.0
H2367 H 0.82588 0.36637 0.77247 0.0
loop_
_geom_bond_atom_site_label_1
_geom_bond_atom_site_label_2
_geom_bond_distance
_geom_bond_site_symmetry_2
_ccdc_geom_bond_type
Gd0 C3 2.818 . S
Gd0 O20 2.377 . S
Gd0 O22 2.448 . S
Gd0 O23 2.506 . S
Gd0 O24 2.435 . S
Gd0 O25 2.717 . S
Gd0 O27 2.395 . S
Gd0 O31 2.327 . S
Gd1 C12 2.818 . S
Gd1 O21 2.395 . S
Gd1 O25 2.327 . S
Gd1 O26 2.377 . S
Gd1 O28 2.448 . S
Gd1 O29 2.506 . S
Gd1 O30 2.435 . S
Gd1 O31 2.717 . S
C2 O20 1.240 . S
C2 O21 1.240 . S
C3 Gd0 2.818 . S
C3 C4 1.510 1_554 S
C3 O22 1.249 . S
C3 O23 1.252 . S
C4 C3 1.510 1_556 S
C4 C5 1.404 . S
C4 C6 1.352 . S
C5 C4 1.404 . S
C5 C9 1.389 . S
C5 H32 0.930 . S
C6 C4 1.352 . S
C6 C8 1.374 . S
C6 H33 0.931 . S
C7 C8 1.359 . S
C7 C9 1.364 . S
C8 C6 1.374 . S
C8 C7 1.359 . S
C8 H34 0.931 . S
C9 C5 1.389 . S
C9 C7 1.364 . S
C9 H35 0.931 . S
C10 O24 1.256 . S
C10 O25 1.257 . S
C11 O26 1.240 . S
C11 O27 1.240 . S
C12 Gd1 2.818 . S
C12 C13 1.510 . S
C12 O28 1.249 . S
C12 O29 1.252 . S
C13 C12 1.510 . S
C13 C14 1.404 . S
C13 C15 1.352 . S
C14 C13 1.404 . S
C14 C18 1.389 . S
C14 H36 0.930 . S
C15 C13 1.352 . S
C15 C17 1.374 . S
C15 H37 0.931 . S
C16 C17 1.359 . S
C16 C18 1.364 . S
C17 C15 1.374 . S
C17 C16 1.359 . S
C17 H38 0.931 . S
C18 C14 1.389 . S
C18 C16 1.364 . S
C18 H39 0.931 . S
C19 O30 1.256 . S
C19 O31 1.257 . S
O20 Gd0 2.377 . S
O20 C2 1.240 . S
O21 Gd1 2.395 . S
O21 C2 1.240 . S
O22 Gd0 2.448 . S
O22 C3 1.249 . S
O23 Gd0 2.506 . S
O23 C3 1.252 . S
O24 Gd0 2.435 . S
O24 C10 1.256 . S
O25 Gd0 2.717 . S
O25 Gd1 2.327 . S
O25 C10 1.257 . S
O26 Gd1 2.377 . S
O26 C11 1.240 . S
O27 Gd0 2.395 . S
O27 C11 1.240 . S
O28 Gd1 2.448 . S
O28 C12 1.249 . S
O29 Gd1 2.506 . S
O29 C12 1.252 . S
O30 Gd1 2.435 . S
O30 C19 1.256 . S
O31 Gd0 2.327 . S
O31 Gd1 2.717 . S
O31 C19 1.257 . S
H32 C5 0.930 . S
H33 C6 0.931 . S
H34 C8 0.931 . S
H35 C9 0.931 . S
H36 C14 0.930 . S
H37 C15 0.931 . S
H38 C17 0.931 . S
H39 C18 0.931 . S
Gd40 C43 2.818 . S
Gd40 O60 2.377 . S
Gd40 O62 2.448 . S
Gd40 O63 2.506 . S
Gd40 O64 2.435 . S
Gd40 O65 2.717 . S
Gd40 O67 2.395 . S
Gd40 O71 2.327 . S
Gd41 C52 2.818 . S
Gd41 O61 2.395 . S
Gd41 O65 2.327 . S
Gd41 O66 2.377 . S
Gd41 O68 2.448 . S
Gd41 O69 2.506 . S
Gd41 O70 2.435 . S
Gd41 O71 2.717 . S
C42 O60 1.240 . S
C42 O61 1.240 . S
C43 Gd40 2.818 . S
C43 C44 1.510 . S
C43 O62 1.249 . S
C43 O63 1.252 . S
C44 C43 1.510 . S
C44 C45 1.404 . S
C44 C46 1.352 . S
C45 C44 1.404 . S
C45 C49 1.389 . S
C45 H72 0.930 . S
C46 C44 1.352 . S
C46 C48 1.374 . S
C46 H73 0.931 . S
C47 C48 1.359 . S
C47 C49 1.364 . S
C48 C46 1.374 . S
C48 C47 1.359 . S
C48 H74 0.931 . S
C49 C45 1.389 . S
C49 C47 1.364 . S
C49 H75 0.931 . S
C50 O64 1.256 . S
C50 O65 1.257 . S
C51 O66 1.240 . S
C51 O67 1.240 . S
C52 Gd41 2.818 . S
C52 C53 1.510 . S
C52 O68 1.249 . S
C52 O69 1.252 . S
C53 C52 1.510 . S
C53 C54 1.404 . S
C53 C55 1.352 . S
C54 C53 1.404 . S
C54 C58 1.389 . S
C54 H76 0.930 . S
C55 C53 1.352 . S
C55 C57 1.374 . S
C55 H77 0.931 . S
C56 C57 1.359 . S
C56 C58 1.364 . S
C57 C55 1.374 . S
C57 C56 1.359 . S
C57 H78 0.931 . S
C58 C54 1.389 . S
C58 C56 1.364 . S
C58 H79 0.931 . S
C59 O70 1.256 . S
C59 O71 1.257 . S
O60 Gd40 2.377 . S
O60 C42 1.240 . S
O61 Gd41 2.395 . S
O61 C42 1.240 . S
O62 Gd40 2.448 . S
O62 C43 1.249 . S
O63 Gd40 2.506 . S
O63 C43 1.252 . S
O64 Gd40 2.435 . S
O64 C50 1.256 . S
O65 Gd40 2.717 . S
O65 Gd41 2.327 . S
O65 C50 1.257 . S
O66 Gd41 2.377 . S
O66 C51 1.240 . S
O67 Gd40 2.395 . S
O67 C51 1.240 . S
O68 Gd41 2.448 . S
O68 C52 1.249 . S
O69 Gd41 2.506 . S
O69 C52 1.252 . S
O70 Gd41 2.435 . S
O70 C59 1.256 . S
O71 Gd40 2.327 . S
O71 Gd41 2.717 . S
O71 C59 1.257 . S
H72 C45 0.930 . S
H73 C46 0.931 . S
H74 C48 0.931 . S
H75 C49 0.931 . S
H76 C54 0.930 . S
H77 C55 0.931 . S
H78 C57 0.931 . S
H79 C58 0.931 . S
Gd80 C83 2.818 . S
Gd80 O100 2.377 . S
Gd80 O102 2.448 . S
Gd80 O103 2.506 . S
Gd80 O104 2.435 . S
Gd80 O105 2.717 . S
Gd80 O107 2.395 . S
Gd80 O111 2.327 . S
Gd81 C92 2.818 . S
Gd81 O101 2.395 . S
Gd81 O105 2.327 . S
Gd81 O106 2.377 . S
Gd81 O108 2.448 . S
Gd81 O109 2.506 . S
Gd81 O110 2.435 . S
Gd81 O111 2.717 . S
C82 O100 1.240 . S
C82 O101 1.240 . S
C83 Gd80 2.818 . S
C83 C84 1.510 . S
C83 O102 1.249 . S
C83 O103 1.252 . S
C84 C83 1.510 . S
C84 C85 1.404 . S
C84 C86 1.352 . S
C85 C84 1.404 . S
C85 C89 1.389 . S
C85 H112 0.930 . S
C86 C84 1.352 . S
C86 C88 1.374 . S
C86 H113 0.931 . S
C87 C88 1.359 . S
C87 C89 1.364 . S
C88 C86 1.374 . S
C88 C87 1.359 . S
C88 H114 0.931 . S
C89 C85 1.389 . S
C89 C87 1.364 . S
C89 H115 0.931 . S
C90 O104 1.256 . S
C90 O105 1.257 . S
C91 O106 1.240 . S
C91 O107 1.240 . S
C92 Gd81 2.818 . S
C92 C93 1.510 . S
C92 O108 1.249 . S
C92 O109 1.252 . S
C93 C92 1.510 . S
C93 C94 1.404 . S
C93 C95 1.352 . S
C94 C93 1.404 . S
C94 C98 1.389 . S
C94 H116 0.930 . S
C95 C93 1.352 . S
C95 C97 1.374 . S
C95 H117 0.931 . S
C96 C97 1.359 . S
C96 C98 1.364 . S
C97 C95 1.374 . S
C97 C96 1.359 . S
C97 H118 0.931 . S
C98 C94 1.389 . S
C98 C96 1.364 . S
C98 H119 0.931 . S
C99 O110 1.256 . S
C99 O111 1.257 . S
O100 Gd80 2.377 . S
O100 C82 1.240 . S
O101 Gd81 2.395 . S
O101 C82 1.240 . S
O102 Gd80 2.448 . S
O102 C83 1.249 . S
O103 Gd80 2.506 . S
O103 C83 1.252 . S
O104 Gd80 2.435 . S
O104 C90 1.256 . S
O105 Gd80 2.717 . S
O105 Gd81 2.327 . S
O105 C90 1.257 . S
O106 Gd81 2.377 . S
O106 C91 1.240 . S
O107 Gd80 2.395 . S
O107 C91 1.240 . S
O108 Gd81 2.448 . S
O108 C92 1.249 . S
O109 Gd81 2.506 . S
O109 C92 1.252 . S
O110 Gd81 2.435 . S
O110 C99 1.256 . S
O111 Gd80 2.327 . S
O111 Gd81 2.717 . S
O111 C99 1.257 . S
H112 C85 0.930 . S
H113 C86 0.931 . S
H114 C88 0.931 . S
H115 C89 0.931 . S
H116 C94 0.930 . S
H117 C95 0.931 . S
H118 C97 0.931 . S
H119 C98 0.931 . S
Gd120 C123 2.818 . S
Gd120 O140 2.377 . S
Gd120 O142 2.448 . S
Gd120 O143 2.506 . S
Gd120 O144 2.435 . S
Gd120 O145 2.717 . S
Gd120 O147 2.395 . S
Gd120 O151 2.327 . S
Gd121 C132 2.818 1_556 S
Gd121 O141 2.395 . S
Gd121 O145 2.327 . S
Gd121 O146 2.377 . S
Gd121 O148 2.448 . S
Gd121 O149 2.506 . S
Gd121 O150 2.435 . S
Gd121 O151 2.717 . S
C122 O140 1.240 . S
C122 O141 1.240 . S
C123 Gd120 2.818 . S
C123 C124 1.510 . S
C123 O142 1.249 . S
C123 O143 1.252 . S
C124 C123 1.510 . S
C124 C125 1.404 . S
C124 C126 1.352 . S
C125 C124 1.404 . S
C125 C129 1.389 . S
C125 H152 0.930 . S
C126 C124 1.352 . S
C126 C128 1.374 . S
C126 H153 0.931 . S
C127 C128 1.359 . S
C127 C129 1.364 . S
C128 C126 1.374 . S
C128 C127 1.359 . S
C128 H154 0.931 . S
C129 C125 1.389 . S
C129 C127 1.364 . S
C129 H155 0.931 . S
C130 O144 1.256 . S
C130 O145 1.257 . S
C131 O146 1.240 . S
C131 O147 1.240 . S
C132 Gd121 2.818 1_554 S
C132 C133 1.510 . S
C132 O148 1.249 1_554 S
C132 O149 1.252 1_554 S
C133 C132 1.510 . S
C133 C134 1.404 . S
C133 C135 1.352 . S
C134 C133 1.404 . S
C134 C138 1.389 . S
C134 H156 0.930 . S
C135 C133 1.352 . S
C135 C137 1.374 . S
C135 H157 0.931 . S
C136 C137 1.359 . S
C136 C138 1.364 . S
C137 C135 1.374 . S
C137 C136 1.359 . S
C137 H158 0.931 . S
C138 C134 1.389 . S
C138 C136 1.364 . S
C138 H159 0.931 . S
C139 O150 1.256 . S
C139 O151 1.257 . S
O140 Gd120 2.377 . S
O140 C122 1.240 . S
O141 Gd121 2.395 . S
O141 C122 1.240 . S
O142 Gd120 2.448 . S
O142 C123 1.249 . S
O143 Gd120 2.506 . S
O143 C123 1.252 . S
O144 Gd120 2.435 . S
O144 C130 1.256 . S
O145 Gd120 2.717 . S
O145 Gd121 2.327 . S
O145 C130 1.257 . S
O146 Gd121 2.377 . S
O146 C131 1.240 . S
O147 Gd120 2.395 . S
O147 C131 1.240 . S
O148 Gd121 2.448 . S
O148 C132 1.249 1_556 S
O149 Gd121 2.506 . S
O149 C132 1.252 1_556 S
O150 Gd121 2.435 . S
O150 C139 1.256 . S
O151 Gd120 2.327 . S
O151 Gd121 2.717 . S
O151 C139 1.257 . S
H152 C125 0.930 . S
H153 C126 0.931 . S
H154 C128 0.931 . S
H155 C129 0.931 . S
H156 C134 0.930 . S
H157 C135 0.931 . S
H158 C137 0.931 . S
H159 C138 0.931 . S
Gd160 C163 2.818 1_556 S
Gd160 O180 2.377 . S
Gd160 O182 2.448 1_556 S
Gd160 O183 2.506 1_556 S
Gd160 O184 2.435 . S
Gd160 O185 2.717 . S
Gd160 O187 2.395 . S
Gd160 O191 2.327 . S
Gd161 C172 2.818 . S
Gd161 O181 2.395 . S
Gd161 O185 2.327 . S
Gd161 O186 2.377 . S
Gd161 O188 2.448 . S
Gd161 O189 2.506 . S
Gd161 O190 2.435 . S
Gd161 O191 2.717 . S
C162 O180 1.240 . S
C162 O181 1.240 . S
C163 Gd160 2.818 1_554 S
C163 C164 1.510 . S
C163 O182 1.249 . S
C163 O183 1.252 . S
C164 C163 1.510 . S
C164 C165 1.404 . S
C164 C166 1.352 . S
C165 C164 1.404 . S
C165 C169 1.389 . S
C165 H192 0.930 . S
C166 C164 1.352 . S
C166 C168 1.374 . S
C166 H193 0.931 . S
C167 C168 1.359 . S
C167 C169 1.364 . S
C168 C166 1.374 . S
C168 C167 1.359 . S
C168 H194 0.931 . S
C169 C165 1.389 . S
C169 C167 1.364 . S
C169 H195 0.931 . S
C170 O184 1.256 . S
C170 O185 1.257 . S
C171 O186 1.240 . S
C171 O187 1.240 . S
C172 Gd161 2.818 . S
C172 C173 1.510 . S
C172 O188 1.249 . S
C172 O189 1.252 . S
C173 C172 1.510 . S
C173 C174 1.404 . S
C173 C175 1.352 . S
C174 C173 1.404 . S
C174 C178 1.389 . S
C174 H196 0.930 . S
C175 C173 1.352 . S
C175 C177 1.374 . S
C175 H197 0.931 . S
C176 C177 1.359 . S
C176 C178 1.364 . S
C177 C175 1.374 . S
C177 C176 1.359 . S
C177 H198 0.931 . S
C178 C174 1.389 . S
C178 C176 1.364 . S
C178 H199 0.931 . S
C179 O190 1.256 . S
C179 O191 1.257 . S
O180 Gd160 2.377 . S
O180 C162 1.240 . S
O181 Gd161 2.395 . S
O181 C162 1.240 . S
O182 Gd160 2.448 1_554 S
O182 C163 1.249 . S
O183 Gd160 2.506 1_554 S
O183 C163 1.252 . S
O184 Gd160 2.435 . S
O184 C170 1.256 . S
O185 Gd160 2.717 . S
O185 Gd161 2.327 . S
O185 C170 1.257 . S
O186 Gd161 2.377 . S
O186 C171 1.240 . S
O187 Gd160 2.395 . S
O187 C171 1.240 . S
O188 Gd161 2.448 . S
O188 C172 1.249 . S
O189 Gd161 2.506 . S
O189 C172 1.252 . S
O190 Gd161 2.435 . S
O190 C179 1.256 . S
O191 Gd160 2.327 . S
O191 Gd161 2.717 . S
O191 C179 1.257 . S
H192 C165 0.930 . S
H193 C166 0.931 . S
H194 C168 0.931 . S
H195 C169 0.931 . S
H196 C174 0.930 . S
H197 C175 0.931 . S
H198 C177 0.931 . S
H199 C178 0.931 . S
Gd200 C203 2.818 . S
Gd200 O220 2.377 . S
Gd200 O222 2.448 . S
Gd200 O223 2.506 . S
Gd200 O224 2.435 . S
Gd200 O225 2.717 . S
Gd200 O227 2.395 . S
Gd200 O231 2.327 . S
Gd201 C212 2.818 1_554 S
Gd201 O221 2.395 . S
Gd201 O225 2.327 . S
Gd201 O226 2.377 . S
Gd201 O228 2.448 1_554 S
Gd201 O229 2.506 . S
Gd201 O230 2.435 . S
Gd201 O231 2.717 . S
C202 O220 1.240 . S
C202 O221 1.240 . S
C203 Gd200 2.818 . S
C203 C204 1.510 . S
C203 O222 1.249 . S
C203 O223 1.252 . S
C204 C203 1.510 . S
C204 C205 1.404 . S
C204 C206 1.352 . S
C205 C204 1.404 . S
C205 C209 1.389 . S
C205 H232 0.930 . S
C206 C204 1.352 . S
C206 C208 1.374 . S
C206 H233 0.931 . S
C207 C208 1.359 . S
C207 C209 1.364 . S
C208 C206 1.374 . S
C208 C207 1.359 . S
C208 H234 0.931 . S
C209 C205 1.389 . S
C209 C207 1.364 . S
C209 H235 0.931 . S
C210 O224 1.256 . S
C210 O225 1.257 . S
C211 O226 1.240 . S
C211 O227 1.240 . S
C212 Gd201 2.818 1_556 S
C212 C213 1.510 . S
C212 O228 1.249 . S
C212 O229 1.252 1_556 S
C213 C212 1.510 . S
C213 C214 1.404 . S
C213 C215 1.352 . S
C214 C213 1.404 . S
C214 C218 1.389 . S
C214 H236 0.930 . S
C215 C213 1.352 . S
C215 C217 1.374 . S
C215 H237 0.931 . S
C216 C217 1.359 . S
C216 C218 1.364 . S
C217 C215 1.374 . S
C217 C216 1.359 . S
C217 H238 0.931 . S
C218 C214 1.389 . S
C218 C216 1.364 . S
C218 H239 0.931 . S
C219 O230 1.256 . S
C219 O231 1.257 . S
O220 Gd200 2.377 . S
O220 C202 1.240 . S
O221 Gd201 2.395 . S
O221 C202 1.240 . S
O222 Gd200 2.448 . S
O222 C203 1.249 . S
O223 Gd200 2.506 . S
O223 C203 1.252 . S
O224 Gd200 2.435 . S
O224 C210 1.256 . S
O225 Gd200 2.717 . S
O225 Gd201 2.327 . S
O225 C210 1.257 . S
O226 Gd201 2.377 . S
O226 C211 1.240 . S
O227 Gd200 2.395 . S
O227 C211 1.240 . S
O228 Gd201 2.448 1_556 S
O228 C212 1.249 . S
O229 Gd201 2.506 . S
O229 C212 1.252 1_554 S
O230 Gd201 2.435 . S
O230 C219 1.256 . S
O231 Gd200 2.327 . S
O231 Gd201 2.717 . S
O231 C219 1.257 . S
H232 C205 0.930 . S
H233 C206 0.931 . S
H234 C208 0.931 . S
H235 C209 0.931 . S
H236 C214 0.930 . S
H237 C215 0.931 . S
H238 C217 0.931 . S
H239 C218 0.931 . S
Gd240 C243 2.818 . S
Gd240 O260 2.377 . S
Gd240 O262 2.448 . S
Gd240 O263 2.506 . S
Gd240 O264 2.435 . S
Gd240 O265 2.717 . S
Gd240 O267 2.395 . S
Gd240 O271 2.327 . S
Gd241 C252 2.818 . S
Gd241 O261 2.395 . S
Gd241 O265 2.327 . S
Gd241 O266 2.377 . S
Gd241 O268 2.448 . S
Gd241 O269 2.506 . S
Gd241 O270 2.435 . S
Gd241 O271 2.717 . S
C242 O260 1.240 . S
C242 O261 1.240 . S
C243 Gd240 2.818 . S
C243 C244 1.510 . S
C243 O262 1.249 . S
C243 O263 1.252 . S
C244 C243 1.510 . S
C244 C245 1.404 . S
C244 C246 1.352 . S
C245 C244 1.404 . S
C245 C249 1.389 . S
C245 H272 0.930 . S
C246 C244 1.352 . S
C246 C248 1.374 . S
C246 H273 0.931 . S
C247 C248 1.359 . S
C247 C249 1.364 . S
C248 C246 1.374 . S
C248 C247 1.359 . S
C248 H274 0.931 . S
C249 C245 1.389 . S
C249 C247 1.364 . S
C249 H275 0.931 . S
C250 O264 1.256 . S
C250 O265 1.257 . S
C251 O266 1.240 . S
C251 O267 1.240 . S
C252 Gd241 2.818 . S
C252 C253 1.510 . S
C252 O268 1.249 . S
C252 O269 1.252 . S
C253 C252 1.510 . S
C253 C254 1.404 . S
C253 C255 1.352 . S
C254 C253 1.404 . S
C254 C258 1.389 . S
C254 H276 0.930 . S
C255 C253 1.352 . S
C255 C257 1.374 . S
C255 H277 0.931 . S
C256 C257 1.359 . S
C256 C258 1.364 . S
C257 C255 1.374 . S
C257 C256 1.359 . S
C257 H278 0.931 . S
C258 C254 1.389 . S
C258 C256 1.364 . S
C258 H279 0.931 . S
C259 O270 1.256 . S
C259 O271 1.257 . S
O260 Gd240 2.377 . S
O260 C242 1.240 . S
O261 Gd241 2.395 . S
O261 C242 1.240 . S
O262 Gd240 2.448 . S
O262 C243 1.249 . S
O263 Gd240 2.506 . S
O263 C243 1.252 . S
O264 Gd240 2.435 . S
O264 C250 1.256 . S
O265 Gd240 2.717 . S
O265 Gd241 2.327 . S
O265 C250 1.257 . S
O266 Gd241 2.377 . S
O266 C251 1.240 . S
O267 Gd240 2.395 . S
O267 C251 1.240 . S
O268 Gd241 2.448 . S
O268 C252 1.249 . S
O269 Gd241 2.506 . S
O269 C252 1.252 . S
O270 Gd241 2.435 . S
O270 C259 1.256 . S
O271 Gd240 2.327 . S
O271 Gd241 2.717 . S
O271 C259 1.257 . S
H272 C245 0.930 . S
H273 C246 0.931 . S
H274 C248 0.931 . S
H275 C249 0.931 . S
H276 C254 0.930 . S
H277 C255 0.931 . S
H278 C257 0.931 . S
H279 C258 0.931 . S
Gd280 C283 2.818 . S
Gd280 O300 2.377 . S
Gd280 O302 2.448 . S
Gd280 O303 2.506 . S
Gd280 O304 2.435 . S
Gd280 O305 2.717 . S
Gd280 O307 2.395 . S
Gd280 O311 2.327 . S
Gd281 C292 2.818 . S
Gd281 O301 2.395 . S
Gd281 O305 2.327 . S
Gd281 O306 2.377 . S
Gd281 O308 2.448 . S
Gd281 O309 2.506 . S
Gd281 O310 2.435 . S
Gd281 O311 2.717 . S
C282 O300 1.240 . S
C282 O301 1.240 . S
C283 Gd280 2.818 . S
C283 C284 1.510 . S
C283 O302 1.249 . S
C283 O303 1.252 . S
C284 C283 1.510 . S
C284 C285 1.404 . S
C284 C286 1.352 . S
C285 C284 1.404 . S
C285 C289 1.389 . S
C285 H312 0.930 . S
C286 C284 1.352 . S
C286 C288 1.374 . S
C286 H313 0.931 . S
C287 C288 1.359 . S
C287 C289 1.364 . S
C288 C286 1.374 . S
C288 C287 1.359 . S
C288 H314 0.931 . S
C289 C285 1.389 . S
C289 C287 1.364 . S
C289 H315 0.931 . S
C290 O304 1.256 . S
C290 O305 1.257 . S
C291 O306 1.240 . S
C291 O307 1.240 . S
C292 Gd281 2.818 . S
C292 C293 1.510 . S
C292 O308 1.249 . S
C292 O309 1.252 . S
C293 C292 1.510 . S
C293 C294 1.404 . S
C293 C295 1.352 . S
C294 C293 1.404 . S
C294 C298 1.389 . S
C294 H316 0.930 . S
C295 C293 1.352 . S
C295 C297 1.374 . S
C295 H317 0.931 . S
C296 C297 1.359 . S
C296 C298 1.364 . S
C297 C295 1.374 . S
C297 C296 1.359 . S
C297 H318 0.931 . S
C298 C294 1.389 . S
C298 C296 1.364 . S
C298 H319 0.931 . S
C299 O310 1.256 . S
C299 O311 1.257 . S
O300 Gd280 2.377 . S
O300 C282 1.240 . S
O301 Gd281 2.395 . S
O301 C282 1.240 . S
O302 Gd280 2.448 . S
O302 C283 1.249 . S
O303 Gd280 2.506 . S
O303 C283 1.252 . S
O304 Gd280 2.435 . S
O304 C290 1.256 . S
O305 Gd280 2.717 . S
O305 Gd281 2.327 . S
O305 C290 1.257 . S
O306 Gd281 2.377 . S
O306 C291 1.240 . S
O307 Gd280 2.395 . S
O307 C291 1.240 . S
O308 Gd281 2.448 . S
O308 C292 1.249 . S
O309 Gd281 2.506 . S
O309 C292 1.252 . S
O310 Gd281 2.435 . S
O310 C299 1.256 . S
O311 Gd280 2.327 . S
O311 Gd281 2.717 . S
O311 C299 1.257 . S
H312 C285 0.930 . S
H313 C286 0.931 . S
H314 C288 0.931 . S
H315 C289 0.931 . S
H316 C294 0.930 . S
H317 C295 0.931 . S
H318 C297 0.931 . S
H319 C298 0.931 . S
Gd320 C323 2.818 . S
Gd320 O340 2.377 . S
Gd320 O342 2.448 . S
Gd320 O343 2.506 . S
Gd320 O344 2.435 . S
Gd320 O345 2.717 . S
Gd320 O347 2.395 . S
Gd320 O351 2.327 . S
Gd321 C332 2.818 1_556 S
Gd321 O341 2.395 . S
Gd321 O345 2.327 . S
Gd321 O346 2.377 . S
Gd321 O348 2.448 . S
Gd321 O349 2.493 1_556 S
Gd321 O350 2.435 . S
Gd321 O351 2.717 . S
C322 O340 1.240 . S
C322 O341 1.240 . S
C323 Gd320 2.818 . S
C323 C324 1.510 . S
C323 O342 1.249 . S
C323 O343 1.252 . S
C324 C323 1.510 . S
C324 C325 1.404 . S
C324 C326 1.352 . S
C325 C324 1.404 . S
C325 C329 1.389 . S
C325 H352 0.930 . S
C326 C324 1.352 . S
C326 C328 1.374 . S
C326 H353 0.931 . S
C327 C328 1.359 . S
C327 C329 1.364 . S
C328 C326 1.374 . S
C328 C327 1.359 . S
C328 H354 0.931 . S
C329 C325 1.389 . S
C329 C327 1.364 . S
C329 H355 0.931 . S
C330 O344 1.256 . S
C330 O345 1.257 . S
C331 O346 1.240 . S
C331 O347 1.240 . S
C332 Gd321 2.818 1_554 S
C332 C333 1.510 . S
C332 O348 1.249 1_554 S
C332 O349 1.262 . S
C333 C332 1.510 . S
C333 C334 1.404 . S
C333 C335 1.352 . S
C334 C333 1.404 . S
C334 C338 1.389 . S
C334 H356 0.930 . S
C335 C333 1.352 . S
C335 C337 1.374 . S
C335 H357 0.931 . S
C336 C337 1.359 . S
C336 C338 1.364 . S
C337 C335 1.374 . S
C337 C336 1.359 . S
C337 H358 0.931 . S
C338 C334 1.389 . S
C338 C336 1.364 . S
C338 H359 0.931 . S
C339 O350 1.256 . S
C339 O351 1.257 . S
O340 Gd320 2.377 . S
O340 C322 1.240 . S
O341 Gd321 2.395 . S
O341 C322 1.240 . S
O342 Gd320 2.448 . S
O342 C323 1.249 . S
O343 Gd320 2.506 . S
O343 C323 1.252 . S
O344 Gd320 2.435 . S
O344 C330 1.256 . S
O345 Gd320 2.717 . S
O345 Gd321 2.327 . S
O345 C330 1.257 . S
O346 Gd321 2.377 . S
O346 C331 1.240 . S
O347 Gd320 2.395 . S
O347 C331 1.240 . S
O348 Gd321 2.448 . S
O348 C332 1.249 1_556 S
O349 Gd321 2.493 1_554 S
O349 C332 1.262 . S
O350 Gd321 2.435 . S
O350 C339 1.256 . S
O351 Gd320 2.327 . S
O351 Gd321 2.717 . S
O351 C339 1.257 . S
H352 C325 0.930 . S
H353 C326 0.931 . S
H354 C328 0.931 . S
H355 C329 0.931 . S
H356 C334 0.930 . S
H357 C335 0.931 . S
H358 C337 0.931 . S
H359 C338 0.931 . S
Gd360 C363 2.818 . S
Gd360 O380 2.377 . S
Gd360 O382 2.448 . S
Gd360 O383 2.506 . S
Gd360 O384 2.435 . S
Gd360 O385 2.717 . S
Gd360 O387 2.395 . S
Gd360 O391 2.327 . S
Gd361 C372 2.818 . S
Gd361 O381 2.395 . S
Gd361 O385 2.327 . S
Gd361 O386 2.377 . S
Gd361 O388 2.448 . S
Gd361 O389 2.506 . S
Gd361 O390 2.435 . S
Gd361 O391 2.717 . S
C362 O380 1.240 . S
C362 O381 1.240 . S
C363 Gd360 2.818 . S
C363 C364 1.510 . S
C363 O382 1.249 . S
C363 O383 1.252 . S
C364 C363 1.510 . S
C364 C365 1.404 . S
C364 C366 1.352 . S
C365 C364 1.404 . S
C365 C369 1.389 . S
C365 H392 0.930 . S
C366 C364 1.352 . S
C366 C368 1.374 . S
C366 H393 0.931 . S
C367 C368 1.359 . S
C367 C369 1.364 . S
C368 C366 1.374 . S
C368 C367 1.359 . S
C368 H394 0.931 . S
C369 C365 1.389 . S
C369 C367 1.364 . S
C369 H395 0.931 . S
C370 O384 1.256 . S
C370 O385 1.257 . S
C371 O386 1.240 . S
C371 O387 1.240 . S
C372 Gd361 2.818 . S
C372 C373 1.510 . S
C372 O388 1.249 . S
C372 O389 1.252 . S
C373 C372 1.510 . S
C373 C374 1.404 . S
C373 C375 1.352 . S
C374 C373 1.404 . S
C374 C378 1.389 . S
C374 H396 0.930 . S
C375 C373 1.352 . S
C375 C377 1.374 . S
C375 H397 0.931 . S
C376 C377 1.359 . S
C376 C378 1.364 . S
C377 C375 1.374 . S
C377 C376 1.359 . S
C377 H398 0.931 . S
C378 C374 1.389 . S
C378 C376 1.364 . S
C378 H399 0.931 . S
C379 O390 1.256 . S
C379 O391 1.257 . S
O380 Gd360 2.377 . S
O380 C362 1.240 . S
O381 Gd361 2.395 . S
O381 C362 1.240 . S
O382 Gd360 2.448 . S
O382 C363 1.249 . S
O383 Gd360 2.506 . S
O383 C363 1.252 . S
O384 Gd360 2.435 . S
O384 C370 1.256 . S
O385 Gd360 2.717 . S
O385 Gd361 2.327 . S
O385 C370 1.257 . S
O386 Gd361 2.377 . S
O386 C371 1.240 . S
O387 Gd360 2.395 . S
O387 C371 1.240 . S
O388 Gd361 2.448 . S
O388 C372 1.249 . S
O389 Gd361 2.506 . S
O389 C372 1.252 . S
O390 Gd361 2.435 . S
O390 C379 1.256 . S
O391 Gd360 2.327 . S
O391 Gd361 2.717 . S
O391 C379 1.257 . S
H392 C365 0.930 . S
H393 C366 0.931 . S
H394 C368 0.931 . S
H395 C369 0.931 . S
H396 C374 0.930 . S
H397 C375 0.931 . S
H398 C377 0.931 . S
H399 C378 0.931 . S
Gd400 C403 2.818 . S
Gd400 O420 2.377 . S
Gd400 O422 2.448 . S
Gd400 O423 2.506 . S
Gd400 O424 2.435 . S
Gd400 O425 2.717 . S
Gd400 O427 2.395 . S
Gd400 O431 2.327 . S
Gd401 C412 2.818 . S
Gd401 O421 2.395 . S
Gd401 O425 2.327 . S
Gd401 O426 2.377 . S
Gd401 O428 2.448 . S
Gd401 O429 2.506 . S
Gd401 O430 2.435 . S
Gd401 O431 2.717 . S
C402 O420 1.240 . S
C402 O421 1.240 . S
C403 Gd400 2.818 . S
C403 C404 1.510 . S
C403 O422 1.249 . S
C403 O423 1.252 . S
C404 C403 1.510 . S
C404 C405 1.404 . S
C404 C406 1.352 . S
C405 C404 1.404 . S
C405 C409 1.389 . S
C405 H432 0.930 . S
C406 C404 1.352 . S
C406 C408 1.374 . S
C406 H433 0.931 . S
C407 C408 1.359 . S
C407 C409 1.364 . S
C408 C406 1.374 . S
C408 C407 1.359 . S
C408 H434 0.931 . S
C409 C405 1.389 . S
C409 C407 1.364 . S
C409 H435 0.931 . S
C410 O424 1.256 . S
C410 O425 1.257 . S
C411 O426 1.240 . S
C411 O427 1.240 . S
C412 Gd401 2.818 . S
C412 C413 1.510 . S
C412 O428 1.249 . S
C412 O429 1.252 . S
C413 C412 1.510 . S
C413 C414 1.404 . S
C413 C415 1.352 . S
C414 C413 1.404 . S
C414 C418 1.389 . S
C414 H436 0.930 . S
C415 C413 1.352 . S
C415 C417 1.374 . S
C415 H437 0.931 . S
C416 C417 1.359 . S
C416 C418 1.364 . S
C417 C415 1.374 . S
C417 C416 1.359 . S
C417 H438 0.931 . S
C418 C414 1.389 . S
C418 C416 1.364 . S
C418 H439 0.931 . S
C419 O430 1.256 . S
C419 O431 1.257 . S
O420 Gd400 2.377 . S
O420 C402 1.240 . S
O421 Gd401 2.395 . S
O421 C402 1.240 . S
O422 Gd400 2.448 . S
O422 C403 1.249 . S
O423 Gd400 2.506 . S
O423 C403 1.252 . S
O424 Gd400 2.435 . S
O424 C410 1.256 . S
O425 Gd400 2.717 . S
O425 Gd401 2.327 . S
O425 C410 1.257 . S
O426 Gd401 2.377 . S
O426 C411 1.240 . S
O427 Gd400 2.395 . S
O427 C411 1.240 . S
O428 Gd401 2.448 . S
O428 C412 1.249 . S
O429 Gd401 2.506 . S
O429 C412 1.252 . S
O430 Gd401 2.435 . S
O430 C419 1.256 . S
O431 Gd400 2.327 . S
O431 Gd401 2.717 . S
O431 C419 1.257 . S
H432 C405 0.930 . S
H433 C406 0.931 . S
H434 C408 0.931 . S
H435 C409 0.931 . S
H436 C414 0.930 . S
H437 C415 0.931 . S
H438 C417 0.931 . S
H439 C418 0.931 . S
Gd440 C443 2.818 1_554 S
Gd440 O460 2.377 . S
Gd440 O462 2.448 . S
Gd440 O463 2.506 . S
Gd440 O464 2.435 . S
Gd440 O465 2.717 . S
Gd440 O467 2.395 . S
Gd440 O471 2.327 . S
Gd441 C452 2.818 . S
Gd441 O461 2.395 . S
Gd441 O465 2.327 . S
Gd441 O466 2.377 . S
Gd441 O468 2.448 . S
Gd441 O469 2.506 . S
Gd441 O470 2.435 . S
Gd441 O471 2.717 . S
C442 O460 1.240 . S
C442 O461 1.240 . S
C443 Gd440 2.818 1_556 S
C443 C444 1.510 . S
C443 O462 1.249 1_556 S
C443 O463 1.252 1_556 S
C444 C443 1.510 . S
C444 C445 1.404 . S
C444 C446 1.352 . S
C445 C444 1.404 . S
C445 C449 1.389 . S
C445 H472 0.930 . S
C446 C444 1.352 . S
C446 C448 1.374 . S
C446 H473 0.931 . S
C447 C448 1.359 . S
C447 C449 1.364 . S
C448 C446 1.374 . S
C448 C447 1.359 . S
C448 H474 0.931 . S
C449 C445 1.389 . S
C449 C447 1.364 . S
C449 H475 0.931 . S
C450 O464 1.256 . S
C450 O465 1.257 . S
C451 O466 1.240 . S
C451 O467 1.240 . S
C452 Gd441 2.818 . S
C452 C453 1.510 . S
C452 O468 1.249 . S
C452 O469 1.252 . S
C453 C452 1.510 . S
C453 C454 1.404 . S
C453 C455 1.352 . S
C454 C453 1.404 . S
C454 C458 1.389 . S
C454 H476 0.930 . S
C455 C453 1.352 . S
C455 C457 1.374 . S
C455 H477 0.931 . S
C456 C457 1.359 . S
C456 C458 1.364 . S
C457 C455 1.374 . S
C457 C456 1.359 . S
C457 H478 0.931 . S
C458 C454 1.389 . S
C458 C456 1.364 . S
C458 H479 0.931 . S
C459 O470 1.256 . S
C459 O471 1.257 . S
O460 Gd440 2.377 . S
O460 C442 1.240 . S
O461 Gd441 2.395 . S
O461 C442 1.240 . S
O462 Gd440 2.448 . S
O462 C443 1.249 1_554 S
O463 Gd440 2.506 . S
O463 C443 1.252 1_554 S
O464 Gd440 2.435 . S
O464 C450 1.256 . S
O465 Gd440 2.717 . S
O465 Gd441 2.327 . S
O465 C450 1.257 . S
O466 Gd441 2.377 . S
O466 C451 1.240 . S
O467 Gd440 2.395 . S
O467 C451 1.240 . S
O468 Gd441 2.448 . S
O468 C452 1.249 . S
O469 Gd441 2.506 . S
O469 C452 1.252 . S
O470 Gd441 2.435 . S
O470 C459 1.256 . S
O471 Gd440 2.327 . S
O471 Gd441 2.717 . S
O471 C459 1.257 . S
H472 C445 0.930 . S
H473 C446 0.931 . S
H474 C448 0.931 . S
H475 C449 0.931 . S
H476 C454 0.930 . S
H477 C455 0.931 . S
H478 C457 0.931 . S
H479 C458 0.931 . S
Gd480 C483 2.818 . S
Gd480 O500 2.377 . S
Gd480 O502 2.448 . S
Gd480 O503 2.506 . S
Gd480 O504 2.435 . S
Gd480 O505 2.717 . S
Gd480 O507 2.395 . S
Gd480 O511 2.327 . S
Gd481 C492 2.818 1_554 S
Gd481 O501 2.395 . S
Gd481 O505 2.327 . S
Gd481 O506 2.377 . S
Gd481 O508 2.448 . S
Gd481 O509 2.506 . S
Gd481 O510 2.435 . S
Gd481 O511 2.717 . S
C482 O500 1.240 . S
C482 O501 1.240 . S
C483 Gd480 2.818 . S
C483 C484 1.510 . S
C483 O502 1.249 . S
C483 O503 1.252 . S
C484 C483 1.510 . S
C484 C485 1.404 . S
C484 C486 1.352 . S
C485 C484 1.404 . S
C485 C489 1.389 . S
C485 H512 0.930 . S
C486 C484 1.352 . S
C486 C488 1.374 . S
C486 H513 0.931 . S
C487 C488 1.359 . S
C487 C489 1.364 . S
C488 C486 1.374 . S
C488 C487 1.359 . S
C488 H514 0.931 . S
C489 C485 1.389 . S
C489 C487 1.364 . S
C489 H515 0.931 . S
C490 O504 1.256 . S
C490 O505 1.257 . S
C491 O506 1.240 . S
C491 O507 1.240 . S
C492 Gd481 2.818 1_556 S
C492 C493 1.510 . S
C492 O508 1.249 1_556 S
C492 O509 1.252 1_556 S
C493 C492 1.510 . S
C493 C494 1.404 . S
C493 C495 1.352 . S
C494 C493 1.404 . S
C494 C498 1.389 . S
C494 H516 0.930 . S
C495 C493 1.352 . S
C495 C497 1.374 . S
C495 H517 0.931 . S
C496 C497 1.359 . S
C496 C498 1.364 . S
C497 C495 1.374 . S
C497 C496 1.359 . S
C497 H518 0.931 . S
C498 C494 1.389 . S
C498 C496 1.364 . S
C498 H519 0.931 . S
C499 O510 1.256 . S
C499 O511 1.257 . S
O500 Gd480 2.377 . S
O500 C482 1.240 . S
O501 Gd481 2.395 . S
O501 C482 1.240 . S
O502 Gd480 2.448 . S
O502 C483 1.249 . S
O503 Gd480 2.506 . S
O503 C483 1.252 . S
O504 Gd480 2.435 . S
O504 C490 1.256 . S
O505 Gd480 2.717 . S
O505 Gd481 2.327 . S
O505 C490 1.257 . S
O506 Gd481 2.377 . S
O506 C491 1.240 . S
O507 Gd480 2.395 . S
O507 C491 1.240 . S
O508 Gd481 2.448 . S
O508 C492 1.249 1_554 S
O509 Gd481 2.506 . S
O509 C492 1.252 1_554 S
O510 Gd481 2.435 . S
O510 C499 1.256 . S
O511 Gd480 2.327 . S
O511 Gd481 2.717 . S
O511 C499 1.257 . S
H512 C485 0.930 . S
H513 C486 0.931 . S
H514 C488 0.931 . S
H515 C489 0.931 . S
H516 C494 0.930 . S
H517 C495 0.931 . S
H518 C497 0.931 . S
H519 C498 0.931 . S
Gd520 C523 2.818 1_556 S
Gd520 O540 2.377 . S
Gd520 O542 2.426 1_556 S
Gd520 O543 2.506 . S
Gd520 O544 2.435 . S
Gd520 O545 2.717 . S
Gd520 O547 2.395 . S
Gd520 O551 2.327 . S
Gd521 C532 2.818 . S
Gd521 O541 2.395 . S
Gd521 O545 2.327 . S
Gd521 O546 2.377 . S
Gd521 O548 2.448 . S
Gd521 O549 2.506 . S
Gd521 O550 2.435 . S
Gd521 O551 2.717 . S
C522 O540 1.240 . S
C522 O541 1.240 . S
C523 Gd520 2.818 1_554 S
C523 C524 1.510 . S
C523 O542 1.259 . S
C523 O543 1.252 1_554 S
C524 C523 1.510 . S
C524 C525 1.404 . S
C524 C526 1.352 . S
C525 C524 1.404 . S
C525 C529 1.389 . S
C525 H552 0.930 . S
C526 C524 1.352 . S
C526 C528 1.374 . S
C526 H553 0.931 . S
C527 C528 1.359 . S
C527 C529 1.364 . S
C528 C526 1.374 . S
C528 C527 1.359 . S
C528 H554 0.931 . S
C529 C525 1.389 . S
C529 C527 1.364 . S
C529 H555 0.931 . S
C530 O544 1.256 . S
C530 O545 1.257 . S
C531 O546 1.240 . S
C531 O547 1.240 . S
C532 Gd521 2.818 . S
C532 C533 1.510 . S
C532 O548 1.249 . S
C532 O549 1.252 . S
C533 C532 1.510 . S
C533 C534 1.404 . S
C533 C535 1.352 . S
C534 C533 1.404 . S
C534 C538 1.389 . S
C534 H556 0.930 . S
C535 C533 1.352 . S
C535 C537 1.374 . S
C535 H557 0.931 . S
C536 C537 1.359 . S
C536 C538 1.364 . S
C537 C535 1.374 . S
C537 C536 1.359 . S
C537 H558 0.931 . S
C538 C534 1.389 . S
C538 C536 1.364 . S
C538 H559 0.931 . S
C539 O550 1.256 . S
C539 O551 1.257 . S
O540 Gd520 2.377 . S
O540 C522 1.240 . S
O541 Gd521 2.395 . S
O541 C522 1.240 . S
O542 Gd520 2.426 1_554 S
O542 C523 1.259 . S
O543 Gd520 2.506 . S
O543 C523 1.252 1_556 S
O544 Gd520 2.435 . S
O544 C530 1.256 . S
O545 Gd520 2.717 . S
O545 Gd521 2.327 . S
O545 C530 1.257 . S
O546 Gd521 2.377 . S
O546 C531 1.240 . S
O547 Gd520 2.395 . S
O547 C531 1.240 . S
O548 Gd521 2.448 . S
O548 C532 1.249 . S
O549 Gd521 2.506 . S
O549 C532 1.252 . S
O550 Gd521 2.435 . S
O550 C539 1.256 . S
O551 Gd520 2.327 . S
O551 Gd521 2.717 . S
O551 C539 1.257 . S
H552 C525 0.930 . S
H553 C526 0.931 . S
H554 C528 0.931 . S
H555 C529 0.931 . S
H556 C534 0.930 . S
H557 C535 0.931 . S
H558 C537 0.931 . S
H559 C538 0.931 . S
Gd560 C563 2.818 . S
Gd560 O580 2.377 . S
Gd560 O582 2.448 . S
Gd560 O583 2.506 . S
Gd560 O584 2.435 . S
Gd560 O585 2.717 . S
Gd560 O587 2.395 . S
Gd560 O591 2.327 . S
Gd561 C572 2.818 . S
Gd561 O581 2.395 . S
Gd561 O585 2.327 . S
Gd561 O586 2.377 . S
Gd561 O588 2.448 . S
Gd561 O589 2.506 . S
Gd561 O590 2.435 . S
Gd561 O591 2.717 . S
C562 O580 1.240 . S
C562 O581 1.240 . S
C563 Gd560 2.818 . S
C563 C564 1.510 . S
C563 O582 1.249 . S
C563 O583 1.252 . S
C564 C563 1.510 . S
C564 C565 1.404 . S
C564 C566 1.352 . S
C565 C564 1.404 . S
C565 C569 1.389 . S
C565 H592 0.930 . S
C566 C564 1.352 . S
C566 C568 1.374 . S
C566 H593 0.931 . S
C567 C568 1.359 . S
C567 C569 1.364 . S
C568 C566 1.374 . S
C568 C567 1.359 . S
C568 H594 0.931 . S
C569 C565 1.389 . S
C569 C567 1.364 . S
C569 H595 0.931 . S
C570 O584 1.256 . S
C570 O585 1.257 . S
C571 O586 1.240 . S
C571 O587 1.240 . S
C572 Gd561 2.818 . S
C572 C573 1.510 . S
C572 O588 1.249 . S
C572 O589 1.252 . S
C573 C572 1.510 . S
C573 C574 1.404 . S
C573 C575 1.352 . S
C574 C573 1.404 . S
C574 C578 1.389 . S
C574 H596 0.930 . S
C575 C573 1.352 . S
C575 C577 1.374 . S
C575 H597 0.931 . S
C576 C577 1.359 . S
C576 C578 1.364 . S
C577 C575 1.374 . S
C577 C576 1.359 . S
C577 H598 0.931 . S
C578 C574 1.389 . S
C578 C576 1.364 . S
C578 H599 0.931 . S
C579 O590 1.256 . S
C579 O591 1.257 . S
O580 Gd560 2.377 . S
O580 C562 1.240 . S
O581 Gd561 2.395 . S
O581 C562 1.240 . S
O582 Gd560 2.448 . S
O582 C563 1.249 . S
O583 Gd560 2.506 . S
O583 C563 1.252 . S
O584 Gd560 2.435 . S
O584 C570 1.256 . S
O585 Gd560 2.717 . S
O585 Gd561 2.327 . S
O585 C570 1.257 . S
O586 Gd561 2.377 . S
O586 C571 1.240 . S
O587 Gd560 2.395 . S
O587 C571 1.240 . S
O588 Gd561 2.448 . S
O588 C572 1.249 . S
O589 Gd561 2.506 . S
O589 C572 1.252 . S
O590 Gd561 2.435 . S
O590 C579 1.256 . S
O591 Gd560 2.327 . S
O591 Gd561 2.717 . S
O591 C579 1.257 . S
H592 C565 0.930 . S
H593 C566 0.931 . S
H594 C568 0.931 . S
H595 C569 0.931 . S
H596 C574 0.930 . S
H597 C575 0.931 . S
H598 C577 0.931 . S
H599 C578 0.931 . S
Gd600 C603 2.818 . S
Gd600 O620 2.377 . S
Gd600 O622 2.448 . S
Gd600 O623 2.506 . S
Gd600 O624 2.435 . S
Gd600 O625 2.717 . S
Gd600 O627 2.395 . S
Gd600 O631 2.327 . S
Gd601 C612 2.818 . S
Gd601 O621 2.395 . S
Gd601 O625 2.327 . S
Gd601 O626 2.377 . S
Gd601 O628 2.448 . S
Gd601 O629 2.506 . S
Gd601 O630 2.435 . S
Gd601 O631 2.717 . S
C602 O620 1.240 . S
C602 O621 1.240 . S
C603 Gd600 2.818 . S
C603 C604 1.510 . S
C603 O622 1.249 . S
C603 O623 1.252 . S
C604 C603 1.510 . S
C604 C605 1.404 . S
C604 C606 1.352 . S
C605 C604 1.404 . S
C605 C609 1.389 . S
C605 H632 0.930 . S
C606 C604 1.352 . S
C606 C608 1.374 . S
C606 H633 0.931 . S
C607 C608 1.359 . S
C607 C609 1.364 . S
C608 C606 1.374 . S
C608 C607 1.359 . S
C608 H634 0.931 . S
C609 C605 1.389 . S
C609 C607 1.364 . S
C609 H635 0.931 . S
C610 O624 1.256 . S
C610 O625 1.257 . S
C611 O626 1.240 . S
C611 O627 1.240 . S
C612 Gd601 2.818 . S
C612 C613 1.510 . S
C612 O628 1.249 . S
C612 O629 1.252 . S
C613 C612 1.510 . S
C613 C614 1.404 . S
C613 C615 1.352 . S
C614 C613 1.404 . S
C614 C618 1.389 . S
C614 H636 0.930 . S
C615 C613 1.352 . S
C615 C617 1.374 . S
C615 H637 0.931 . S
C616 C617 1.359 . S
C616 C618 1.364 . S
C617 C615 1.374 . S
C617 C616 1.359 . S
C617 H638 0.931 . S
C618 C614 1.389 . S
C618 C616 1.364 . S
C618 H639 0.931 . S
C619 O630 1.256 . S
C619 O631 1.257 . S
O620 Gd600 2.377 . S
O620 C602 1.240 . S
O621 Gd601 2.395 . S
O621 C602 1.240 . S
O622 Gd600 2.448 . S
O622 C603 1.249 . S
O623 Gd600 2.506 . S
O623 C603 1.252 . S
O624 Gd600 2.435 . S
O624 C610 1.256 . S
O625 Gd600 2.717 . S
O625 Gd601 2.327 . S
O625 C610 1.257 . S
O626 Gd601 2.377 . S
O626 C611 1.240 . S
O627 Gd600 2.395 . S
O627 C611 1.240 . S
O628 Gd601 2.448 . S
O628 C612 1.249 . S
O629 Gd601 2.506 . S
O629 C612 1.252 . S
O630 Gd601 2.435 . S
O630 C619 1.256 . S
O631 Gd600 2.327 . S
O631 Gd601 2.717 . S
O631 C619 1.257 . S
H632 C605 0.930 . S
H633 C606 0.931 . S
H634 C608 0.931 . S
H635 C609 0.931 . S
H636 C614 0.930 . S
H637 C615 0.931 . S
H638 C617 0.931 . S
H639 C618 0.931 . S
H640 C648 0.929 . S
H641 C650 0.930 . S
H642 C652 0.930 . S
H643 C655 0.929 . S
H644 C658 0.930 . S
H645 C660 0.960 . S
H646 C660 0.960 . S
H647 C660 0.960 . S
C648 H640 0.929 . S
C648 C649 1.377 . S
C648 C650 1.384 . S
C649 C648 1.377 . S
C649 C655 1.390 . S
C650 H641 0.930 . S
C650 C648 1.384 . S
C650 C651 1.372 . S
C651 C650 1.372 . S
C651 C652 1.400 . S
C651 C656 1.490 . S
C652 H642 0.930 . S
C652 C651 1.400 . S
C652 C655 1.386 . S
H653 C669 0.930 . S
H654 C670 0.931 . S
C655 H643 0.929 . S
C655 C649 1.390 . S
C655 C652 1.386 . S
C656 C651 1.490 . S
C656 C658 1.395 . S
C656 C659 1.403 . S
H657 C663 0.930 . S
C658 H644 0.930 . S
C658 C656 1.395 . S
C658 C661 1.403 . S
C659 C656 1.403 . S
C659 C660 1.524 . S
C659 C663 1.400 . S
C660 H645 0.960 . S
C660 H646 0.960 . S
C660 H647 0.960 . S
C660 C659 1.524 . S
C661 C658 1.403 . S
C661 C662 1.392 . S
C661 C665 1.495 . S
C662 C661 1.392 . S
C662 C663 1.385 . S
C662 C664 1.478 . S
C663 H657 0.930 . S
C663 C659 1.400 . S
C663 C662 1.385 . S
C664 C662 1.478 . S
C664 C666 1.381 . S
C664 C670 1.383 . S
C665 C661 1.495 . S
C665 H671 0.959 . S
C665 H672 0.961 . S
C665 H673 0.960 . S
C666 C664 1.381 . S
C666 C667 1.394 . S
C666 H674 0.930 . S
C667 C666 1.394 . S
C667 C668 1.383 . S
C667 H675 0.929 . S
C668 C667 1.383 . S
C668 C669 1.377 . S
C669 H653 0.930 . S
C669 C668 1.377 . S
C669 C670 1.379 . S
C670 H654 0.931 . S
C670 C664 1.383 . S
C670 C669 1.379 . S
H671 C665 0.959 . S
H672 C665 0.961 . S
H673 C665 0.960 . S
H674 C666 0.930 . S
H675 C667 0.929 . S
H676 C684 0.929 . S
H677 C686 0.930 . S
H678 C688 0.930 . S
H679 C691 0.929 . S
H680 C694 0.930 . S
H681 C696 0.960 . S
H682 C696 0.960 . S
H683 C696 0.960 . S
C684 H676 0.929 . S
C684 C685 1.377 . S
C684 C686 1.384 1_554 S
C685 C684 1.377 . S
C685 C691 1.390 . S
C686 H677 0.930 . S
C686 C684 1.384 1_556 S
C686 C687 1.372 . S
C687 C686 1.372 . S
C687 C688 1.400 . S
C687 C692 1.490 . S
C688 H678 0.930 . S
C688 C687 1.400 . S
C688 C691 1.386 1_556 S
H689 C705 0.930 . S
H690 C706 0.931 . S
C691 H679 0.929 . S
C691 C685 1.390 . S
C691 C688 1.386 1_554 S
C692 C687 1.490 . S
C692 C694 1.395 . S
C692 C695 1.403 . S
H693 C699 0.930 . S
C694 H680 0.930 . S
C694 C692 1.395 . S
C694 C697 1.403 . S
C695 C692 1.403 . S
C695 C696 1.524 . S
C695 C699 1.400 . S
C696 H681 0.960 . S
C696 H682 0.960 . S
C696 H683 0.960 . S
C696 C695 1.524 . S
C697 C694 1.403 . S
C697 C698 1.392 . S
C697 C701 1.495 . S
C698 C697 1.392 . S
C698 C699 1.385 . S
C698 C700 1.478 . S
C699 H693 0.930 . S
C699 C695 1.400 . S
C699 C698 1.385 . S
C700 C698 1.478 . S
C700 C702 1.381 . S
C700 C706 1.383 . S
C701 C697 1.495 . S
C701 H707 0.959 . S
C701 H708 0.961 . S
C701 H709 0.960 . S
C702 C700 1.381 . S
C702 C703 1.394 . S
C702 H710 0.930 . S
C703 C702 1.394 . S
C703 C704 1.383 . S
C703 H711 0.929 . S
C704 C703 1.383 . S
C704 C705 1.377 . S
C705 H689 0.930 . S
C705 C704 1.377 . S
C705 C706 1.379 . S
C706 H690 0.931 . S
C706 C700 1.383 . S
C706 C705 1.379 . S
H707 C701 0.959 . S
H708 C701 0.961 . S
H709 C701 0.960 . S
H710 C702 0.930 . S
H711 C703 0.929 . S
H712 C720 0.929 . S
H713 C722 0.930 . S
H714 C724 0.930 . S
H715 C727 0.929 . S
H716 C730 0.930 . S
H717 C732 0.960 . S
H718 C732 0.960 . S
H719 C732 0.960 . S
C720 H712 0.929 . S
C720 C721 1.377 . S
C720 C722 1.384 . S
C721 C720 1.377 . S
C721 C727 1.390 . S
C722 H713 0.930 . S
C722 C720 1.384 . S
C722 C723 1.372 . S
C723 C722 1.372 . S
C723 C724 1.400 . S
C723 C728 1.490 . S
C724 H714 0.930 . S
C724 C723 1.400 . S
C724 C727 1.386 . S
H725 C741 0.930 . S
H726 C742 0.931 . S
C727 H715 0.929 . S
C727 C721 1.390 . S
C727 C724 1.386 . S
C728 C723 1.490 . S
C728 C730 1.395 . S
C728 C731 1.403 . S
H729 C735 0.930 . S
C730 H716 0.930 . S
C730 C728 1.395 . S
C730 C733 1.403 . S
C731 C728 1.403 . S
C731 C732 1.524 . S
C731 C735 1.400 . S
C732 H717 0.960 . S
C732 H718 0.960 . S
C732 H719 0.960 . S
C732 C731 1.524 . S
C733 C730 1.403 . S
C733 C734 1.392 . S
C733 C737 1.495 . S
C734 C733 1.392 . S
C734 C735 1.385 . S
C734 C736 1.478 . S
C735 H729 0.930 . S
C735 C731 1.400 . S
C735 C734 1.385 . S
C736 C734 1.478 . S
C736 C738 1.381 . S
C736 C742 1.383 . S
C737 C733 1.495 . S
C737 H743 0.959 . S
C737 H744 0.961 . S
C737 H745 0.960 . S
C738 C736 1.381 . S
C738 C739 1.394 1_554 S
C738 H746 0.930 . S
C739 C738 1.394 1_556 S
C739 C740 1.383 . S
C739 H747 0.929 . S
C740 C739 1.383 . S
C740 C741 1.377 . S
C741 H725 0.930 . S
C741 C740 1.377 . S
C741 C742 1.379 1_556 S
C742 H726 0.931 . S
C742 C736 1.383 . S
C742 C741 1.379 1_554 S
H743 C737 0.959 . S
H744 C737 0.961 . S
H745 C737 0.960 . S
H746 C738 0.930 . S
H747 C739 0.929 . S
H748 C756 0.929 . S
H749 C758 0.930 . S
H750 C760 0.930 . S
H751 C763 0.929 . S
H752 C766 0.930 . S
H753 C768 0.960 . S
H754 C768 0.960 . S
H755 C768 0.960 . S
C756 H748 0.929 . S
C756 C757 1.377 . S
C756 C758 1.384 . S
C757 C756 1.377 . S
C757 C763 1.390 . S
C758 H749 0.930 . S
C758 C756 1.384 . S
C758 C759 1.372 . S
C759 C758 1.372 . S
C759 C760 1.400 . S
C759 C764 1.490 . S
C760 H750 0.930 . S
C760 C759 1.400 . S
C760 C763 1.386 . S
H761 C777 0.930 . S
H762 C778 0.931 . S
C763 H751 0.929 . S
C763 C757 1.390 . S
C763 C760 1.386 . S
C764 C759 1.490 . S
C764 C766 1.395 . S
C764 C767 1.403 . S
H765 C771 0.930 . S
C766 H752 0.930 . S
C766 C764 1.395 . S
C766 C769 1.403 . S
C767 C764 1.403 . S
C767 C768 1.524 . S
C767 C771 1.400 . S
C768 H753 0.960 . S
C768 H754 0.960 . S
C768 H755 0.960 . S
C768 C767 1.524 . S
C769 C766 1.403 . S
C769 C770 1.392 . S
C769 C773 1.495 . S
C770 C769 1.392 . S
C770 C771 1.385 . S
C770 C772 1.478 . S
C771 H765 0.930 . S
C771 C767 1.400 . S
C771 C770 1.385 . S
C772 C770 1.478 . S
C772 C774 1.381 . S
C772 C778 1.383 . S
C773 C769 1.495 . S
C773 H779 0.959 . S
C773 H780 0.961 . S
C773 H781 0.960 . S
C774 C772 1.381 . S
C774 C775 1.394 . S
C774 H782 0.930 . S
C775 C774 1.394 . S
C775 C776 1.383 . S
C775 H783 0.929 . S
C776 C775 1.383 . S
C776 C777 1.377 . S
C777 H761 0.930 . S
C777 C776 1.377 . S
C777 C778 1.379 . S
C778 H762 0.931 . S
C778 C772 1.383 . S
C778 C777 1.379 . S
H779 C773 0.959 . S
H780 C773 0.961 . S
H781 C773 0.960 . S
H782 C774 0.930 . S
H783 C775 0.929 . S
H784 C792 0.929 . S
H785 C794 0.930 . S
H786 C796 0.930 . S
H787 C799 0.929 . S
H788 C802 0.930 . S
H789 C804 0.960 . S
H790 C804 0.960 . S
H791 C804 0.960 . S
C792 H784 0.929 . S
C792 C793 1.377 . S
C792 C794 1.384 . S
C793 C792 1.377 . S
C793 C799 1.390 . S
C794 H785 0.930 . S
C794 C792 1.384 . S
C794 C795 1.372 . S
C795 C794 1.372 . S
C795 C796 1.400 . S
C795 C800 1.490 . S
C796 H786 0.930 . S
C796 C795 1.400 . S
C796 C799 1.386 . S
H797 C813 0.930 . S
H798 C814 0.931 . S
C799 H787 0.929 . S
C799 C793 1.390 . S
C799 C796 1.386 . S
C800 C795 1.490 . S
C800 C802 1.395 . S
C800 C803 1.403 . S
H801 C807 0.930 . S
C802 H788 0.930 . S
C802 C800 1.395 . S
C802 C805 1.403 . S
C803 C800 1.403 . S
C803 C804 1.524 . S
C803 C807 1.400 . S
C804 H789 0.960 . S
C804 H790 0.960 . S
C804 H791 0.960 . S
C804 C803 1.524 . S
C805 C802 1.403 . S
C805 C806 1.392 . S
C805 C809 1.495 . S
C806 C805 1.392 . S
C806 C807 1.385 . S
C806 C808 1.478 . S
C807 H801 0.930 . S
C807 C803 1.400 . S
C807 C806 1.385 . S
C808 C806 1.478 . S
C808 C810 1.381 . S
C808 C814 1.383 . S
C809 C805 1.495 . S
C809 H815 0.959 . S
C809 H816 0.961 . S
C809 H817 0.960 . S
C810 C808 1.381 . S
C810 C811 1.394 . S
C810 H818 0.930 . S
C811 C810 1.394 . S
C811 C812 1.383 . S
C811 H819 0.929 . S
C812 C811 1.383 . S
C812 C813 1.377 . S
C813 H797 0.930 . S
C813 C812 1.377 . S
C813 C814 1.379 . S
C814 H798 0.931 . S
C814 C808 1.383 . S
C814 C813 1.379 . S
H815 C809 0.959 . S
H816 C809 0.961 . S
H817 C809 0.960 . S
H818 C810 0.930 . S
H819 C811 0.929 . S
H820 C828 0.929 . S
H821 C830 0.930 . S
H822 C832 0.930 . S
H823 C835 0.929 . S
H824 C838 0.930 . S
H825 C840 0.960 . S
H826 C840 0.960 . S
H827 C840 0.960 . S
C828 H820 0.929 . S
C828 C829 1.377 . S
C828 C830 1.384 . S
C829 C828 1.377 . S
C829 C835 1.390 . S
C830 H821 0.930 . S
C830 C828 1.384 . S
C830 C831 1.372 . S
C831 C830 1.372 . S
C831 C832 1.400 . S
C831 C836 1.490 . S
C832 H822 0.930 . S
C832 C831 1.400 . S
C832 C835 1.386 . S
H833 C849 0.930 . S
H834 C850 0.931 . S
C835 H823 0.929 . S
C835 C829 1.390 . S
C835 C832 1.386 . S
C836 C831 1.490 . S
C836 C838 1.395 . S
C836 C839 1.403 . S
H837 C843 0.930 . S
C838 H824 0.930 . S
C838 C836 1.395 . S
C838 C841 1.403 . S
C839 C836 1.403 . S
C839 C840 1.524 . S
C839 C843 1.400 . S
C840 H825 0.960 . S
C840 H826 0.960 . S
C840 H827 0.960 . S
C840 C839 1.524 . S
C841 C838 1.403 . S
C841 C842 1.392 . S
C841 C845 1.495 . S
C842 C841 1.392 . S
C842 C843 1.385 . S
C842 C844 1.478 . S
C843 H837 0.930 . S
C843 C839 1.400 . S
C843 C842 1.385 . S
C844 C842 1.478 . S
C844 C846 1.381 . S
C844 C850 1.383 . S
C845 C841 1.495 . S
C845 H851 0.959 . S
C845 H852 0.961 . S
C845 H853 0.960 . S
C846 C844 1.381 . S
C846 C847 1.394 . S
C846 H854 0.930 . S
C847 C846 1.394 . S
C847 C848 1.383 . S
C847 H855 0.929 . S
C848 C847 1.383 . S
C848 C849 1.377 . S
C849 H833 0.930 . S
C849 C848 1.377 . S
C849 C850 1.379 . S
C850 H834 0.931 . S
C850 C844 1.383 . S
C850 C849 1.379 . S
H851 C845 0.959 . S
H852 C845 0.961 . S
H853 C845 0.960 . S
H854 C846 0.930 . S
H855 C847 0.929 . S
H856 C864 0.929 . S
H857 C866 0.930 . S
H858 C868 0.930 . S
H859 C871 0.929 . S
H860 C874 0.930 . S
H861 C876 0.960 . S
H862 C876 0.960 . S
H863 C876 0.960 . S
C864 H856 0.929 . S
C864 C865 1.377 . S
C864 C866 1.384 . S
C865 C864 1.377 . S
C865 C871 1.390 . S
C866 H857 0.930 . S
C866 C864 1.384 . S
C866 C867 1.372 . S
C867 C866 1.372 . S
C867 C868 1.400 . S
C867 C872 1.490 . S
C868 H858 0.930 . S
C868 C867 1.400 . S
C868 C871 1.386 . S
H869 C885 0.930 . S
H870 C886 0.931 . S
C871 H859 0.929 . S
C871 C865 1.390 . S
C871 C868 1.386 . S
C872 C867 1.490 . S
C872 C874 1.395 . S
C872 C875 1.403 . S
H873 C879 0.930 . S
C874 H860 0.930 . S
C874 C872 1.395 . S
C874 C877 1.403 . S
C875 C872 1.403 . S
C875 C876 1.524 . S
C875 C879 1.400 . S
C876 H861 0.960 . S
C876 H862 0.960 . S
C876 H863 0.960 . S
C876 C875 1.524 . S
C877 C874 1.403 . S
C877 C878 1.392 . S
C877 C881 1.495 . S
C878 C877 1.392 . S
C878 C879 1.385 . S
C878 C880 1.478 1_556 S
C879 H873 0.930 . S
C879 C875 1.400 . S
C879 C878 1.385 . S
C880 C878 1.478 1_554 S
C880 C882 1.381 . S
C880 C886 1.383 . S
C881 C877 1.495 . S
C881 H887 0.959 . S
C881 H888 0.961 . S
C881 H889 0.960 . S
C882 C880 1.381 . S
C882 C883 1.394 . S
C882 H890 0.930 . S
C883 C882 1.394 . S
C883 C884 1.383 . S
C883 H891 0.929 . S
C884 C883 1.383 . S
C884 C885 1.377 . S
C885 H869 0.930 . S
C885 C884 1.377 . S
C885 C886 1.379 . S
C886 H870 0.931 . S
C886 C880 1.383 . S
C886 C885 1.379 . S
H887 C881 0.959 . S
H888 C881 0.961 . S
H889 C881 0.960 . S
H890 C882 0.930 . S
H891 C883 0.929 . S
H892 C900 0.929 . S
H893 C902 0.930 . S
H894 C904 0.930 . S
H895 C907 0.929 . S
H896 C910 0.930 . S
H897 C912 0.960 . S
H898 C912 0.960 . S
H899 C912 0.960 . S
C900 H892 0.929 . S
C900 C901 1.377 . S
C900 C902 1.384 1_556 S
C901 C900 1.377 . S
C901 C907 1.390 . S
C902 H893 0.930 . S
C902 C900 1.384 1_554 S
C902 C903 1.372 . S
C903 C902 1.372 . S
C903 C904 1.400 1_554 S
C903 C908 1.490 . S
C904 H894 0.930 . S
C904 C903 1.400 1_556 S
C904 C907 1.386 . S
H905 C921 0.930 . S
H906 C922 0.931 . S
C907 H895 0.929 . S
C907 C901 1.390 . S
C907 C904 1.386 . S
C908 C903 1.490 . S
C908 C910 1.395 . S
C908 C911 1.403 . S
H909 C915 0.930 . S
C910 H896 0.930 . S
C910 C908 1.395 . S
C910 C913 1.403 . S
C911 C908 1.403 . S
C911 C912 1.524 . S
C911 C915 1.400 . S
C912 H897 0.960 . S
C912 H898 0.960 . S
C912 H899 0.960 . S
C912 C911 1.524 . S
C913 C910 1.403 . S
C913 C914 1.392 . S
C913 C917 1.495 . S
C914 C913 1.392 . S
C914 C915 1.385 . S
C914 C916 1.478 . S
C915 H909 0.930 . S
C915 C911 1.400 . S
C915 C914 1.385 . S
C916 C914 1.478 . S
C916 C918 1.381 . S
C916 C922 1.383 . S
C917 C913 1.495 . S
C917 H923 0.959 . S
C917 H924 0.961 . S
C917 H925 0.960 . S
C918 C916 1.381 . S
C918 C919 1.394 . S
C918 H926 0.930 . S
C919 C918 1.394 . S
C919 C920 1.383 . S
C919 H927 0.929 . S
C920 C919 1.383 . S
C920 C921 1.377 . S
C921 H905 0.930 . S
C921 C920 1.377 . S
C921 C922 1.379 . S
C922 H906 0.931 . S
C922 C916 1.383 . S
C922 C921 1.379 . S
H923 C917 0.959 . S
H924 C917 0.961 . S
H925 C917 0.960 . S
H926 C918 0.930 . S
H927 C919 0.929 . S
H928 C936 0.929 . S
H929 C938 0.930 . S
H930 C940 0.930 . S
H931 C943 0.929 . S
H932 C946 0.930 . S
H933 C948 0.960 . S
H934 C948 0.960 . S
H935 C948 0.960 . S
C936 H928 0.929 . S
C936 C937 1.377 . S
C936 C938 1.384 . S
C937 C936 1.377 . S
C937 C943 1.390 . S
C938 H929 0.930 . S
C938 C936 1.384 . S
C938 C939 1.372 . S
C939 C938 1.372 . S
C939 C940 1.400 . S
C939 C944 1.490 . S
C940 H930 0.930 . S
C940 C939 1.400 . S
C940 C943 1.386 . S
H941 C957 0.930 . S
H942 C958 0.931 . S
C943 H931 0.929 . S
C943 C937 1.390 . S
C943 C940 1.386 . S
C944 C939 1.490 . S
C944 C946 1.395 . S
C944 C947 1.403 . S
H945 C951 0.930 . S
C946 H932 0.930 . S
C946 C944 1.395 . S
C946 C949 1.403 . S
C947 C944 1.403 . S
C947 C948 1.524 . S
C947 C951 1.400 . S
C948 H933 0.960 . S
C948 H934 0.960 . S
C948 H935 0.960 . S
C948 C947 1.524 . S
C949 C946 1.403 . S
C949 C950 1.392 . S
C949 C953 1.495 . S
C950 C949 1.392 . S
C950 C951 1.385 . S
C950 C952 1.478 . S
C951 H945 0.930 . S
C951 C947 1.400 . S
C951 C950 1.385 . S
C952 C950 1.478 . S
C952 C954 1.381 . S
C952 C958 1.383 . S
C953 C949 1.495 . S
C953 H959 0.959 . S
C953 H960 0.961 . S
C953 H961 0.960 . S
C954 C952 1.381 . S
C954 C955 1.394 . S
C954 H962 0.930 . S
C955 C954 1.394 . S
C955 C956 1.383 . S
C955 H963 0.929 . S
C956 C955 1.383 . S
C956 C957 1.377 . S
C957 H941 0.930 . S
C957 C956 1.377 . S
C957 C958 1.379 . S
C958 H942 0.931 . S
C958 C952 1.383 . S
C958 C957 1.379 . S
H959 C953 0.959 . S
H960 C953 0.961 . S
H961 C953 0.960 . S
H962 C954 0.930 . S
H963 C955 0.929 . S
H964 C972 0.929 . S
H965 C974 0.930 . S
H966 C976 0.930 . S
H967 C979 0.929 . S
H968 C982 0.930 . S
H969 C984 0.960 . S
H970 C984 0.960 . S
H971 C984 0.960 . S
C972 H964 0.929 . S
C972 C973 1.377 . S
C972 C974 1.384 . S
C973 C972 1.377 . S
C973 C979 1.390 . S
C974 H965 0.930 . S
C974 C972 1.384 . S
C974 C975 1.372 . S
C975 C974 1.372 . S
C975 C976 1.400 . S
C975 C980 1.490 . S
C976 H966 0.930 . S
C976 C975 1.400 . S
C976 C979 1.386 . S
H977 C993 0.930 . S
H978 C994 0.931 . S
C979 H967 0.929 . S
C979 C973 1.390 . S
C979 C976 1.386 . S
C980 C975 1.490 . S
C980 C982 1.395 . S
C980 C983 1.403 . S
H981 C987 0.930 . S
C982 H968 0.930 . S
C982 C980 1.395 . S
C982 C985 1.403 . S
C983 C980 1.403 . S
C983 C984 1.524 . S
C983 C987 1.400 . S
C984 H969 0.960 . S
C984 H970 0.960 . S
C984 H971 0.960 . S
C984 C983 1.524 . S
C985 C982 1.403 . S
C985 C986 1.392 . S
C985 C989 1.495 . S
C986 C985 1.392 . S
C986 C987 1.385 . S
C986 C988 1.478 1_554 S
C987 H981 0.930 . S
C987 C983 1.400 . S
C987 C986 1.385 . S
C988 C986 1.478 1_556 S
C988 C990 1.381 . S
C988 C994 1.383 . S
C989 C985 1.495 . S
C989 H995 0.959 . S
C989 H996 0.961 1_554 S
C989 H997 0.960 1_554 S
C990 C988 1.381 . S
C990 C991 1.394 . S
C990 H998 0.930 . S
C991 C990 1.394 . S
C991 C992 1.383 . S
C991 H999 0.929 . S
C992 C991 1.383 . S
C992 C993 1.377 . S
C993 H977 0.930 . S
C993 C992 1.377 . S
C993 C994 1.379 . S
C994 H978 0.931 . S
C994 C988 1.383 . S
C994 C993 1.379 . S
H995 C989 0.959 . S
H996 C989 0.961 1_556 S
H997 C989 0.960 1_556 S
H998 C990 0.930 . S
H999 C991 0.929 . S
H1000 C1008 0.929 . S
H1001 C1010 0.930 . S
H1002 C1012 0.930 . S
H1003 C1015 0.929 . S
H1004 C1018 0.930 . S
H1005 C1020 0.960 . S
H1006 C1020 0.960 . S
H1007 C1020 0.960 . S
C1008 H1000 0.929 . S
C1008 C1009 1.377 . S
C1008 C1010 1.384 1_554 S
C1009 C1008 1.377 . S
C1009 C1015 1.390 . S
C1010 H1001 0.930 . S
C1010 C1008 1.384 1_556 S
C1010 C1011 1.372 . S
C1011 C1010 1.372 . S
C1011 C1012 1.400 . S
C1011 C1016 1.490 . S
C1012 H1002 0.930 . S
C1012 C1011 1.400 . S
C1012 C1015 1.386 1_556 S
H1013 C1029 0.930 . S
H1014 C1030 0.931 . S
C1015 H1003 0.929 . S
C1015 C1009 1.390 . S
C1015 C1012 1.386 1_554 S
C1016 C1011 1.490 . S
C1016 C1018 1.395 . S
C1016 C1019 1.403 . S
H1017 C1023 0.930 . S
C1018 H1004 0.930 . S
C1018 C1016 1.395 . S
C1018 C1021 1.403 . S
C1019 C1016 1.403 . S
C1019 C1020 1.524 . S
C1019 C1023 1.400 . S
C1020 H1005 0.960 . S
C1020 H1006 0.960 . S
C1020 H1007 0.960 . S
C1020 C1019 1.524 . S
C1021 C1018 1.403 . S
C1021 C1022 1.392 . S
C1021 C1025 1.495 . S
C1022 C1021 1.392 . S
C1022 C1023 1.385 . S
C1022 C1024 1.478 . S
C1023 H1017 0.930 . S
C1023 C1019 1.400 . S
C1023 C1022 1.385 . S
C1024 C1022 1.478 . S
C1024 C1026 1.381 . S
C1024 C1030 1.383 . S
C1025 C1021 1.495 . S
C1025 H1031 0.959 . S
C1025 H1032 0.961 . S
C1025 H1033 0.960 . S
C1026 C1024 1.381 . S
C1026 C1027 1.394 . S
C1026 H1034 0.930 . S
C1027 C1026 1.394 . S
C1027 C1028 1.383 . S
C1027 H1035 0.929 . S
C1028 C1027 1.383 . S
C1028 C1029 1.377 . S
C1029 H1013 0.930 . S
C1029 C1028 1.377 . S
C1029 C1030 1.379 . S
C1030 H1014 0.931 . S
C1030 C1024 1.383 . S
C1030 C1029 1.379 . S
H1031 C1025 0.959 . S
H1032 C1025 0.961 . S
H1033 C1025 0.960 . S
H1034 C1026 0.930 . S
H1035 C1027 0.929 . S
H1036 C1044 0.929 . S
H1037 C1046 0.930 . S
H1038 C1048 0.930 . S
H1039 C1051 0.929 . S
H1040 C1054 0.930 . S
H1041 C1056 0.960 . S
H1042 C1056 0.960 . S
H1043 C1056 0.960 . S
C1044 H1036 0.929 . S
C1044 C1045 1.377 . S
C1044 C1046 1.384 . S
C1045 C1044 1.377 . S
C1045 C1051 1.390 . S
C1046 H1037 0.930 . S
C1046 C1044 1.384 . S
C1046 C1047 1.372 . S
C1047 C1046 1.372 . S
C1047 C1048 1.400 . S
C1047 C1052 1.490 . S
C1048 H1038 0.930 . S
C1048 C1047 1.400 . S
C1048 C1051 1.386 . S
H1049 C1065 0.930 . S
H1050 C1066 0.931 . S
C1051 H1039 0.929 . S
C1051 C1045 1.390 . S
C1051 C1048 1.386 . S
C1052 C1047 1.490 . S
C1052 C1054 1.395 . S
C1052 C1055 1.403 . S
H1053 C1059 0.930 . S
C1054 H1040 0.930 . S
C1054 C1052 1.395 . S
C1054 C1057 1.403 . S
C1055 C1052 1.403 . S
C1055 C1056 1.524 . S
C1055 C1059 1.400 . S
C1056 H1041 0.960 . S
C1056 H1042 0.960 . S
C1056 H1043 0.960 . S
C1056 C1055 1.524 . S
C1057 C1054 1.403 . S
C1057 C1058 1.392 . S
C1057 C1061 1.495 . S
C1058 C1057 1.392 . S
C1058 C1059 1.385 . S
C1058 C1060 1.478 . S
C1059 H1053 0.930 . S
C1059 C1055 1.400 . S
C1059 C1058 1.385 . S
C1060 C1058 1.478 . S
C1060 C1062 1.381 . S
C1060 C1066 1.383 . S
C1061 C1057 1.495 . S
C1061 H1067 0.959 . S
C1061 H1068 0.961 . S
C1061 H1069 0.960 . S
C1062 C1060 1.381 . S
C1062 C1063 1.394 . S
C1062 H1070 0.930 . S
C1063 C1062 1.394 . S
C1063 C1064 1.383 . S
C1063 H1071 0.929 . S
C1064 C1063 1.383 . S
C1064 C1065 1.377 . S
C1065 H1049 0.930 . S
C1065 C1064 1.377 . S
C1065 C1066 1.379 . S
C1066 H1050 0.931 . S
C1066 C1060 1.383 . S
C1066 C1065 1.379 . S
H1067 C1061 0.959 . S
H1068 C1061 0.961 . S
H1069 C1061 0.960 . S
H1070 C1062 0.930 . S
H1071 C1063 0.929 . S
H1072 C1080 0.929 . S
H1073 C1082 0.930 . S
H1074 C1084 0.930 . S
H1075 C1087 0.929 . S
H1076 C1090 0.930 . S
H1077 C1092 0.960 . S
H1078 C1092 0.960 . S
H1079 C1092 0.960 . S
C1080 H1072 0.929 . S
C1080 C1081 1.377 . S
C1080 C1082 1.384 . S
C1081 C1080 1.377 . S
C1081 C1087 1.390 . S
C1082 H1073 0.930 . S
C1082 C1080 1.384 . S
C1082 C1083 1.372 . S
C1083 C1082 1.372 . S
C1083 C1084 1.400 . S
C1083 C1088 1.490 . S
C1084 H1074 0.930 . S
C1084 C1083 1.400 . S
C1084 C1087 1.386 . S
H1085 C1101 0.930 . S
H1086 C1102 0.931 . S
C1087 H1075 0.929 . S
C1087 C1081 1.390 . S
C1087 C1084 1.386 . S
C1088 C1083 1.490 . S
C1088 C1090 1.395 . S
C1088 C1091 1.403 . S
H1089 C1095 0.930 . S
C1090 H1076 0.930 . S
C1090 C1088 1.395 . S
C1090 C1093 1.403 . S
C1091 C1088 1.403 . S
C1091 C1092 1.524 . S
C1091 C1095 1.400 . S
C1092 H1077 0.960 . S
C1092 H1078 0.960 . S
C1092 H1079 0.960 . S
C1092 C1091 1.524 . S
C1093 C1090 1.403 . S
C1093 C1094 1.392 . S
C1093 C1097 1.495 . S
C1094 C1093 1.392 . S
C1094 C1095 1.385 . S
C1094 C1096 1.478 . S
C1095 H1089 0.930 . S
C1095 C1091 1.400 . S
C1095 C1094 1.385 . S
C1096 C1094 1.478 . S
C1096 C1098 1.381 . S
C1096 C1102 1.383 . S
C1097 C1093 1.495 . S
C1097 H1103 0.959 . S
C1097 H1104 0.961 . S
C1097 H1105 0.960 . S
C1098 C1096 1.381 . S
C1098 C1099 1.394 . S
C1098 H1106 0.930 . S
C1099 C1098 1.394 . S
C1099 C1100 1.383 . S
C1099 H1107 0.929 . S
C1100 C1099 1.383 . S
C1100 C1101 1.377 . S
C1101 H1085 0.930 . S
C1101 C1100 1.377 . S
C1101 C1102 1.379 . S
C1102 H1086 0.931 . S
C1102 C1096 1.383 . S
C1102 C1101 1.379 . S
H1103 C1097 0.959 . S
H1104 C1097 0.961 . S
H1105 C1097 0.960 . S
H1106 C1098 0.930 . S
H1107 C1099 0.929 . S
H1108 C1116 0.929 . S
H1109 C1118 0.930 . S
H1110 C1120 0.930 . S
H1111 C1123 0.929 . S
H1112 C1126 0.930 . S
H1113 C1128 0.960 . S
H1114 C1128 0.960 . S
H1115 C1128 0.960 . S
C1116 H1108 0.929 . S
C1116 C1117 1.377 . S
C1116 C1118 1.384 . S
C1117 C1116 1.377 . S
C1117 C1123 1.390 . S
C1118 H1109 0.930 . S
C1118 C1116 1.384 . S
C1118 C1119 1.372 . S
C1119 C1118 1.372 . S
C1119 C1120 1.400 . S
C1119 C1124 1.490 . S
C1120 H1110 0.930 . S
C1120 C1119 1.400 . S
C1120 C1123 1.386 . S
H1121 C1137 0.930 . S
H1122 C1138 0.931 . S
C1123 H1111 0.929 . S
C1123 C1117 1.390 . S
C1123 C1120 1.386 . S
C1124 C1119 1.490 . S
C1124 C1126 1.395 . S
C1124 C1127 1.403 . S
H1125 C1131 0.930 . S
C1126 H1112 0.930 . S
C1126 C1124 1.395 . S
C1126 C1129 1.403 . S
C1127 C1124 1.403 . S
C1127 C1128 1.524 . S
C1127 C1131 1.400 . S
C1128 H1113 0.960 . S
C1128 H1114 0.960 . S
C1128 H1115 0.960 . S
C1128 C1127 1.524 . S
C1129 C1126 1.403 . S
C1129 C1130 1.392 . S
C1129 C1133 1.495 . S
C1130 C1129 1.392 . S
C1130 C1131 1.385 . S
C1130 C1132 1.478 . S
C1131 H1125 0.930 . S
C1131 C1127 1.400 . S
C1131 C1130 1.385 . S
C1132 C1130 1.478 . S
C1132 C1134 1.381 . S
C1132 C1138 1.383 . S
C1133 C1129 1.495 . S
C1133 H1139 0.959 . S
C1133 H1140 0.961 . S
C1133 H1141 0.960 . S
C1134 C1132 1.381 . S
C1134 C1135 1.394 . S
C1134 H1142 0.930 . S
C1135 C1134 1.394 . S
C1135 C1136 1.383 . S
C1135 H1143 0.929 . S
C1136 C1135 1.383 . S
C1136 C1137 1.377 . S
C1137 H1121 0.930 . S
C1137 C1136 1.377 . S
C1137 C1138 1.379 . S
C1138 H1122 0.931 . S
C1138 C1132 1.383 . S
C1138 C1137 1.379 . S
H1139 C1133 0.959 . S
H1140 C1133 0.961 . S
H1141 C1133 0.960 . S
H1142 C1134 0.930 . S
H1143 C1135 0.929 . S
H1144 C1152 0.929 . S
H1145 C1154 0.930 . S
H1146 C1156 0.930 . S
H1147 C1159 0.929 . S
H1148 C1162 0.930 . S
H1149 C1164 0.960 . S
H1150 C1164 0.960 . S
H1151 C1164 0.960 . S
C1152 H1144 0.929 . S
C1152 C1153 1.377 . S
C1152 C1154 1.384 . S
C1153 C1152 1.377 . S
C1153 C1159 1.390 . S
C1154 H1145 0.930 . S
C1154 C1152 1.384 . S
C1154 C1155 1.372 . S
C1155 C1154 1.372 . S
C1155 C1156 1.400 . S
C1155 C1160 1.490 . S
C1156 H1146 0.930 . S
C1156 C1155 1.400 . S
C1156 C1159 1.386 . S
H1157 C1173 0.930 . S
H1158 C1174 0.931 . S
C1159 H1147 0.929 . S
C1159 C1153 1.390 . S
C1159 C1156 1.386 . S
C1160 C1155 1.490 . S
C1160 C1162 1.395 . S
C1160 C1163 1.403 . S
H1161 C1167 0.930 . S
C1162 H1148 0.930 . S
C1162 C1160 1.395 . S
C1162 C1165 1.403 . S
C1163 C1160 1.403 . S
C1163 C1164 1.524 . S
C1163 C1167 1.400 . S
C1164 H1149 0.960 . S
C1164 H1150 0.960 . S
C1164 H1151 0.960 . S
C1164 C1163 1.524 . S
C1165 C1162 1.403 . S
C1165 C1166 1.392 . S
C1165 C1169 1.495 . S
C1166 C1165 1.392 . S
C1166 C1167 1.385 . S
C1166 C1168 1.478 1_554 S
C1167 H1161 0.930 . S
C1167 C1163 1.400 . S
C1167 C1166 1.385 . S
C1168 C1166 1.478 1_556 S
C1168 C1170 1.381 . S
C1168 C1174 1.383 . S
C1169 C1165 1.495 . S
C1169 H1175 0.959 . S
C1169 H1176 0.961 . S
C1169 H1177 0.960 . S
C1170 C1168 1.381 . S
C1170 C1171 1.394 . S
C1170 H1178 0.930 . S
C1171 C1170 1.394 . S
C1171 C1172 1.383 . S
C1171 H1179 0.929 . S
C1172 C1171 1.383 . S
C1172 C1173 1.377 . S
C1173 H1157 0.930 . S
C1173 C1172 1.377 . S
C1173 C1174 1.379 . S
C1174 H1158 0.931 . S
C1174 C1168 1.383 . S
C1174 C1173 1.379 . S
H1175 C1169 0.959 . S
H1176 C1169 0.961 . S
H1177 C1169 0.960 . S
H1178 C1170 0.930 . S
H1179 C1171 0.929 . S
H1180 C1188 0.929 . S
H1181 C1190 0.930 . S
H1182 C1192 0.930 . S
H1183 C1195 0.929 . S
H1184 C1198 0.930 . S
H1185 C1200 0.960 . S
H1186 C1200 0.960 . S
H1187 C1200 0.960 . S
C1188 H1180 0.929 . S
C1188 C1189 1.377 . S
C1188 C1190 1.384 1_554 S
C1189 C1188 1.377 . S
C1189 C1195 1.390 . S
C1190 H1181 0.930 . S
C1190 C1188 1.384 1_556 S
C1190 C1191 1.372 . S
C1191 C1190 1.372 . S
C1191 C1192 1.400 . S
C1191 C1196 1.490 . S
C1192 H1182 0.930 . S
C1192 C1191 1.400 . S
C1192 C1195 1.386 1_556 S
H1193 C1209 0.930 . S
H1194 C1210 0.931 . S
C1195 H1183 0.929 . S
C1195 C1189 1.390 . S
C1195 C1192 1.386 1_554 S
C1196 C1191 1.490 . S
C1196 C1198 1.395 . S
C1196 C1199 1.403 . S
H1197 C1203 0.930 . S
C1198 H1184 0.930 . S
C1198 C1196 1.395 . S
C1198 C1201 1.403 . S
C1199 C1196 1.403 . S
C1199 C1200 1.524 . S
C1199 C1203 1.400 . S
C1200 H1185 0.960 . S
C1200 H1186 0.960 . S
C1200 H1187 0.960 . S
C1200 C1199 1.524 . S
C1201 C1198 1.403 . S
C1201 C1202 1.392 . S
C1201 C1205 1.495 . S
C1202 C1201 1.392 . S
C1202 C1203 1.385 . S
C1202 C1204 1.478 . S
C1203 H1197 0.930 . S
C1203 C1199 1.400 . S
C1203 C1202 1.385 . S
C1204 C1202 1.478 . S
C1204 C1206 1.381 . S
C1204 C1210 1.383 . S
C1205 C1201 1.495 . S
C1205 H1211 0.959 . S
C1205 H1212 0.961 . S
C1205 H1213 0.960 . S
C1206 C1204 1.381 . S
C1206 C1207 1.394 . S
C1206 H1214 0.930 . S
C1207 C1206 1.394 . S
C1207 C1208 1.383 . S
C1207 H1215 0.929 . S
C1208 C1207 1.383 . S
C1208 C1209 1.377 . S
C1209 H1193 0.930 . S
C1209 C1208 1.377 . S
C1209 C1210 1.379 . S
C1210 H1194 0.931 . S
C1210 C1204 1.383 . S
C1210 C1209 1.379 . S
H1211 C1205 0.959 . S
H1212 C1205 0.961 . S
H1213 C1205 0.960 . S
H1214 C1206 0.930 . S
H1215 C1207 0.929 . S
H1216 C1224 0.929 . S
H1217 C1226 0.930 . S
H1218 C1228 0.930 . S
H1219 C1231 0.929 . S
H1220 C1234 0.930 . S
H1221 C1236 0.960 . S
H1222 C1236 0.960 . S
H1223 C1236 0.960 . S
C1224 H1216 0.929 . S
C1224 C1225 1.377 . S
C1224 C1226 1.384 . S
C1225 C1224 1.377 . S
C1225 C1231 1.390 . S
C1226 H1217 0.930 . S
C1226 C1224 1.384 . S
C1226 C1227 1.372 . S
C1227 C1226 1.372 . S
C1227 C1228 1.400 . S
C1227 C1232 1.490 . S
C1228 H1218 0.930 . S
C1228 C1227 1.400 . S
C1228 C1231 1.386 . S
H1229 C1245 0.930 . S
H1230 C1246 0.931 . S
C1231 H1219 0.929 . S
C1231 C1225 1.390 . S
C1231 C1228 1.386 . S
C1232 C1227 1.490 . S
C1232 C1234 1.395 . S
C1232 C1235 1.403 . S
H1233 C1239 0.930 . S
C1234 H1220 0.930 . S
C1234 C1232 1.395 . S
C1234 C1237 1.403 . S
C1235 C1232 1.403 . S
C1235 C1236 1.524 . S
C1235 C1239 1.400 . S
C1236 H1221 0.960 . S
C1236 H1222 0.960 . S
C1236 H1223 0.960 . S
C1236 C1235 1.524 . S
C1237 C1234 1.403 . S
C1237 C1238 1.392 . S
C1237 C1241 1.495 . S
C1238 C1237 1.392 . S
C1238 C1239 1.385 . S
C1238 C1240 1.478 . S
C1239 H1233 0.930 . S
C1239 C1235 1.400 . S
C1239 C1238 1.385 . S
C1240 C1238 1.478 . S
C1240 C1242 1.381 . S
C1240 C1246 1.383 . S
C1241 C1237 1.495 . S
C1241 H1247 0.959 . S
C1241 H1248 0.961 . S
C1241 H1249 0.960 . S
C1242 C1240 1.381 . S
C1242 C1243 1.394 . S
C1242 H1250 0.930 . S
C1243 C1242 1.394 . S
C1243 C1244 1.383 . S
C1243 H1251 0.929 . S
C1244 C1243 1.383 . S
C1244 C1245 1.377 . S
C1245 H1229 0.930 . S
C1245 C1244 1.377 . S
C1245 C1246 1.379 . S
C1246 H1230 0.931 . S
C1246 C1240 1.383 . S
C1246 C1245 1.379 . S
H1247 C1241 0.959 . S
H1248 C1241 0.961 . S
H1249 C1241 0.960 . S
H1250 C1242 0.930 . S
H1251 C1243 0.929 . S
H1252 C1260 0.929 . S
H1253 C1262 0.930 . S
H1254 C1264 0.930 . S
H1255 C1267 0.929 . S
H1256 C1270 0.930 . S
H1257 C1272 0.960 . S
H1258 C1272 0.960 . S
H1259 C1272 0.960 . S
C1260 H1252 0.929 . S
C1260 C1261 1.377 . S
C1260 C1262 1.384 . S
C1261 C1260 1.377 . S
C1261 C1267 1.390 . S
C1262 H1253 0.930 . S
C1262 C1260 1.384 . S
C1262 C1263 1.372 . S
C1263 C1262 1.372 . S
C1263 C1264 1.400 . S
C1263 C1268 1.490 . S
C1264 H1254 0.930 . S
C1264 C1263 1.400 . S
C1264 C1267 1.386 . S
H1265 C1281 0.930 . S
H1266 C1282 0.931 . S
C1267 H1255 0.929 . S
C1267 C1261 1.390 . S
C1267 C1264 1.386 . S
C1268 C1263 1.490 . S
C1268 C1270 1.395 . S
C1268 C1271 1.403 . S
H1269 C1275 0.930 . S
C1270 H1256 0.930 . S
C1270 C1268 1.395 . S
C1270 C1273 1.403 . S
C1271 C1268 1.403 . S
C1271 C1272 1.524 . S
C1271 C1275 1.400 . S
C1272 H1257 0.960 . S
C1272 H1258 0.960 . S
C1272 H1259 0.960 . S
C1272 C1271 1.524 . S
C1273 C1270 1.403 . S
C1273 C1274 1.392 . S
C1273 C1277 1.495 . S
C1274 C1273 1.392 . S
C1274 C1275 1.385 . S
C1274 C1276 1.478 . S
C1275 H1269 0.930 . S
C1275 C1271 1.400 . S
C1275 C1274 1.385 . S
C1276 C1274 1.478 . S
C1276 C1278 1.381 . S
C1276 C1282 1.383 . S
C1277 C1273 1.495 . S
C1277 H1283 0.959 . S
C1277 H1284 0.961 . S
C1277 H1285 0.960 . S
C1278 C1276 1.381 . S
C1278 C1279 1.394 . S
C1278 H1286 0.930 . S
C1279 C1278 1.394 . S
C1279 C1280 1.383 . S
C1279 H1287 0.929 . S
C1280 C1279 1.383 . S
C1280 C1281 1.377 . S
C1281 H1265 0.930 . S
C1281 C1280 1.377 . S
C1281 C1282 1.379 . S
C1282 H1266 0.931 . S
C1282 C1276 1.383 . S
C1282 C1281 1.379 . S
H1283 C1277 0.959 . S
H1284 C1277 0.961 . S
H1285 C1277 0.960 . S
H1286 C1278 0.930 . S
H1287 C1279 0.929 . S
H1288 C1296 0.929 . S
H1289 C1298 0.930 . S
H1290 C1300 0.930 . S
H1291 C1303 0.929 . S
H1292 C1306 0.930 . S
H1293 C1308 0.960 . S
H1294 C1308 0.960 . S
H1295 C1308 0.960 . S
C1296 H1288 0.929 . S
C1296 C1297 1.377 . S
C1296 C1298 1.384 . S
C1297 C1296 1.377 . S
C1297 C1303 1.390 . S
C1298 H1289 0.930 . S
C1298 C1296 1.384 . S
C1298 C1299 1.372 . S
C1299 C1298 1.372 . S
C1299 C1300 1.400 . S
C1299 C1304 1.490 . S
C1300 H1290 0.930 . S
C1300 C1299 1.400 . S
C1300 C1303 1.386 . S
H1301 C1317 0.930 . S
H1302 C1318 0.931 . S
C1303 H1291 0.929 . S
C1303 C1297 1.390 . S
C1303 C1300 1.386 . S
C1304 C1299 1.490 . S
C1304 C1306 1.395 . S
C1304 C1307 1.403 . S
H1305 C1311 0.930 . S
C1306 H1292 0.930 . S
C1306 C1304 1.395 . S
C1306 C1309 1.403 . S
C1307 C1304 1.403 . S
C1307 C1308 1.524 . S
C1307 C1311 1.400 . S
C1308 H1293 0.960 . S
C1308 H1294 0.960 . S
C1308 H1295 0.960 . S
C1308 C1307 1.524 . S
C1309 C1306 1.403 . S
C1309 C1310 1.392 . S
C1309 C1313 1.495 . S
C1310 C1309 1.392 . S
C1310 C1311 1.385 . S
C1310 C1312 1.478 . S
C1311 H1305 0.930 . S
C1311 C1307 1.400 . S
C1311 C1310 1.385 . S
C1312 C1310 1.478 . S
C1312 C1314 1.381 . S
C1312 C1318 1.383 . S
C1313 C1309 1.495 . S
C1313 H1319 0.959 . S
C1313 H1320 0.961 . S
C1313 H1321 0.960 . S
C1314 C1312 1.381 . S
C1314 C1315 1.394 . S
C1314 H1322 0.930 . S
C1315 C1314 1.394 . S
C1315 C1316 1.383 . S
C1315 H1323 0.929 . S
C1316 C1315 1.383 . S
C1316 C1317 1.377 . S
C1317 H1301 0.930 . S
C1317 C1316 1.377 . S
C1317 C1318 1.379 . S
C1318 H1302 0.931 . S
C1318 C1312 1.383 . S
C1318 C1317 1.379 . S
H1319 C1313 0.959 . S
H1320 C1313 0.961 . S
H1321 C1313 0.960 . S
H1322 C1314 0.930 . S
H1323 C1315 0.929 . S
H1324 C1332 0.929 . S
H1325 C1334 0.930 . S
H1326 C1336 0.930 . S
H1327 C1339 0.929 . S
H1328 C1342 0.930 . S
H1329 C1344 0.960 . S
H1330 C1344 0.960 . S
H1331 C1344 0.960 . S
C1332 H1324 0.929 . S
C1332 C1333 1.377 . S
C1332 C1334 1.384 . S
C1333 C1332 1.377 . S
C1333 C1339 1.390 . S
C1334 H1325 0.930 . S
C1334 C1332 1.384 . S
C1334 C1335 1.372 . S
C1335 C1334 1.372 . S
C1335 C1336 1.400 . S
C1335 C1340 1.490 . S
C1336 H1326 0.930 . S
C1336 C1335 1.400 . S
C1336 C1339 1.386 . S
H1337 C1353 0.930 . S
H1338 C1354 0.931 . S
C1339 H1327 0.929 . S
C1339 C1333 1.390 . S
C1339 C1336 1.386 . S
C1340 C1335 1.490 . S
C1340 C1342 1.395 . S
C1340 C1343 1.403 . S
H1341 C1347 0.930 . S
C1342 H1328 0.930 . S
C1342 C1340 1.395 . S
C1342 C1345 1.403 1_655 S
C1343 C1340 1.403 . S
C1343 C1344 1.524 . S
C1343 C1347 1.400 1_655 S
C1344 H1329 0.960 . S
C1344 H1330 0.960 . S
C1344 H1331 0.960 . S
C1344 C1343 1.524 . S
C1345 C1342 1.403 1_455 S
C1345 C1346 1.392 . S
C1345 C1349 1.495 . S
C1346 C1345 1.392 . S
C1346 C1347 1.385 . S
C1346 C1348 1.478 . S
C1347 H1341 0.930 . S
C1347 C1343 1.400 1_455 S
C1347 C1346 1.385 . S
C1348 C1346 1.478 . S
C1348 C1350 1.381 . S
C1348 C1354 1.383 . S
C1349 C1345 1.495 . S
C1349 H1355 0.959 . S
C1349 H1356 0.961 . S
C1349 H1357 0.960 . S
C1350 C1348 1.381 . S
C1350 C1351 1.394 . S
C1350 H1358 0.930 . S
C1351 C1350 1.394 . S
C1351 C1352 1.383 . S
C1351 H1359 0.929 . S
C1352 C1351 1.383 . S
C1352 C1353 1.377 . S
C1353 H1337 0.930 . S
C1353 C1352 1.377 . S
C1353 C1354 1.379 . S
C1354 H1338 0.931 . S
C1354 C1348 1.383 . S
C1354 C1353 1.379 . S
H1355 C1349 0.959 . S
H1356 C1349 0.961 . S
H1357 C1349 0.960 . S
H1358 C1350 0.930 . S
H1359 C1351 0.929 . S
H1360 C1368 0.929 . S
H1361 C1370 0.930 . S
H1362 C1372 0.930 . S
H1363 C1375 0.929 . S
H1364 C1378 0.930 . S
H1365 C1380 0.960 . S
H1366 C1380 0.960 . S
H1367 C1380 0.960 . S
C1368 H1360 0.929 . S
C1368 C1369 1.377 . S
C1368 C1370 1.384 . S
C1369 C1368 1.377 . S
C1369 C1375 1.390 . S
C1370 H1361 0.930 . S
C1370 C1368 1.384 . S
C1370 C1371 1.372 . S
C1371 C1370 1.372 . S
C1371 C1372 1.400 . S
C1371 C1376 1.490 . S
C1372 H1362 0.930 . S
C1372 C1371 1.400 . S
C1372 C1375 1.386 . S
H1373 C1389 0.930 . S
H1374 C1390 0.931 . S
C1375 H1363 0.929 . S
C1375 C1369 1.390 . S
C1375 C1372 1.386 . S
C1376 C1371 1.490 . S
C1376 C1378 1.395 . S
C1376 C1379 1.403 . S
H1377 C1383 0.930 . S
C1378 H1364 0.930 . S
C1378 C1376 1.395 . S
C1378 C1381 1.403 . S
C1379 C1376 1.403 . S
C1379 C1380 1.524 . S
C1379 C1383 1.400 . S
C1380 H1365 0.960 . S
C1380 H1366 0.960 . S
C1380 H1367 0.960 . S
C1380 C1379 1.524 . S
C1381 C1378 1.403 . S
C1381 C1382 1.392 . S
C1381 C1385 1.495 . S
C1382 C1381 1.392 . S
C1382 C1383 1.385 . S
C1382 C1384 1.478 . S
C1383 H1377 0.930 . S
C1383 C1379 1.400 . S
C1383 C1382 1.385 . S
C1384 C1382 1.478 . S
C1384 C1386 1.381 . S
C1384 C1390 1.383 . S
C1385 C1381 1.495 . S
C1385 H1391 0.959 . S
C1385 H1392 0.961 . S
C1385 H1393 0.960 . S
C1386 C1384 1.381 . S
C1386 C1387 1.394 . S
C1386 H1394 0.930 . S
C1387 C1386 1.394 . S
C1387 C1388 1.383 . S
C1387 H1395 0.929 . S
C1388 C1387 1.383 . S
C1388 C1389 1.377 . S
C1389 H1373 0.930 . S
C1389 C1388 1.377 . S
C1389 C1390 1.379 . S
C1390 H1374 0.931 . S
C1390 C1384 1.383 . S
C1390 C1389 1.379 . S
H1391 C1385 0.959 . S
H1392 C1385 0.961 . S
H1393 C1385 0.960 . S
H1394 C1386 0.930 . S
H1395 C1387 0.929 . S
H1396 C1404 0.929 . S
H1397 C1406 0.930 . S
H1398 C1408 0.930 . S
H1399 C1411 0.929 . S
H1400 C1414 0.930 . S
H1401 C1416 0.960 . S
H1402 C1416 0.960 . S
H1403 C1416 0.960 . S
C1404 H1396 0.929 . S
C1404 C1405 1.377 . S
C1404 C1406 1.384 . S
C1405 C1404 1.377 . S
C1405 C1411 1.390 . S
C1406 H1397 0.930 . S
C1406 C1404 1.384 . S
C1406 C1407 1.372 . S
C1407 C1406 1.372 . S
C1407 C1408 1.400 . S
C1407 C1412 1.490 . S
C1408 H1398 0.930 . S
C1408 C1407 1.400 . S
C1408 C1411 1.386 . S
H1409 C1425 0.930 . S
H1410 C1426 0.931 . S
C1411 H1399 0.929 . S
C1411 C1405 1.390 . S
C1411 C1408 1.386 . S
C1412 C1407 1.490 . S
C1412 C1414 1.395 . S
C1412 C1415 1.403 . S
H1413 C1419 0.930 . S
C1414 H1400 0.930 . S
C1414 C1412 1.395 . S
C1414 C1417 1.403 1_455 S
C1415 C1412 1.403 . S
C1415 C1416 1.524 . S
C1415 C1419 1.400 1_455 S
C1416 H1401 0.960 . S
C1416 H1402 0.960 . S
C1416 H1403 0.960 . S
C1416 C1415 1.524 . S
C1417 C1414 1.403 1_655 S
C1417 C1418 1.392 . S
C1417 C1421 1.495 . S
C1418 C1417 1.392 . S
C1418 C1419 1.385 . S
C1418 C1420 1.478 . S
C1419 H1413 0.930 . S
C1419 C1415 1.400 1_655 S
C1419 C1418 1.385 . S
C1420 C1418 1.478 . S
C1420 C1422 1.381 . S
C1420 C1426 1.383 . S
C1421 C1417 1.495 . S
C1421 H1427 0.959 . S
C1421 H1428 0.961 . S
C1421 H1429 0.960 . S
C1422 C1420 1.381 . S
C1422 C1423 1.394 . S
C1422 H1430 0.930 . S
C1423 C1422 1.394 . S
C1423 C1424 1.383 . S
C1423 H1431 0.929 . S
C1424 C1423 1.383 . S
C1424 C1425 1.377 . S
C1425 H1409 0.930 . S
C1425 C1424 1.377 . S
C1425 C1426 1.379 . S
C1426 H1410 0.931 . S
C1426 C1420 1.383 . S
C1426 C1425 1.379 . S
H1427 C1421 0.959 . S
H1428 C1421 0.961 . S
H1429 C1421 0.960 . S
H1430 C1422 0.930 . S
H1431 C1423 0.929 . S
H1432 C1440 0.929 . S
H1433 C1442 0.930 . S
H1434 C1444 0.930 . S
H1435 C1447 0.929 . S
H1436 C1450 0.930 . S
H1437 C1452 0.960 . S
H1438 C1452 0.960 . S
H1439 C1452 0.960 . S
C1440 H1432 0.929 . S
C1440 C1441 1.377 . S
C1440 C1442 1.384 . S
C1441 C1440 1.377 . S
C1441 C1447 1.390 . S
C1442 H1433 0.930 . S
C1442 C1440 1.384 . S
C1442 C1443 1.372 . S
C1443 C1442 1.372 . S
C1443 C1444 1.400 . S
C1443 C1448 1.490 . S
C1444 H1434 0.930 . S
C1444 C1443 1.400 . S
C1444 C1447 1.386 . S
H1445 C1461 0.930 . S
H1446 C1462 0.931 . S
C1447 H1435 0.929 . S
C1447 C1441 1.390 . S
C1447 C1444 1.386 . S
C1448 C1443 1.490 . S
C1448 C1450 1.395 . S
C1448 C1451 1.403 . S
H1449 C1455 0.930 . S
C1450 H1436 0.930 . S
C1450 C1448 1.395 . S
C1450 C1453 1.403 . S
C1451 C1448 1.403 . S
C1451 C1452 1.524 . S
C1451 C1455 1.400 . S
C1452 H1437 0.960 . S
C1452 H1438 0.960 . S
C1452 H1439 0.960 . S
C1452 C1451 1.524 . S
C1453 C1450 1.403 . S
C1453 C1454 1.392 . S
C1453 C1457 1.495 . S
C1454 C1453 1.392 . S
C1454 C1455 1.385 . S
C1454 C1456 1.478 . S
C1455 H1449 0.930 . S
C1455 C1451 1.400 . S
C1455 C1454 1.385 . S
C1456 C1454 1.478 . S
C1456 C1458 1.381 . S
C1456 C1462 1.383 . S
C1457 C1453 1.495 . S
C1457 H1463 0.959 . S
C1457 H1464 0.961 . S
C1457 H1465 0.960 . S
C1458 C1456 1.381 . S
C1458 C1459 1.394 . S
C1458 H1466 0.930 . S
C1459 C1458 1.394 . S
C1459 C1460 1.383 . S
C1459 H1467 0.929 . S
C1460 C1459 1.383 . S
C1460 C1461 1.377 . S
C1461 H1445 0.930 . S
C1461 C1460 1.377 . S
C1461 C1462 1.379 . S
C1462 H1446 0.931 . S
C1462 C1456 1.383 . S
C1462 C1461 1.379 . S
H1463 C1457 0.959 . S
H1464 C1457 0.961 . S
H1465 C1457 0.960 . S
H1466 C1458 0.930 . S
H1467 C1459 0.929 . S
H1468 C1476 0.929 . S
H1469 C1478 0.930 . S
H1470 C1480 0.930 . S
H1471 C1483 0.929 . S
H1472 C1486 0.930 . S
H1473 C1488 0.960 . S
H1474 C1488 0.960 . S
H1475 C1488 0.960 . S
C1476 H1468 0.929 . S
C1476 C1477 1.377 . S
C1476 C1478 1.384 . S
C1477 C1476 1.377 . S
C1477 C1483 1.390 . S
C1478 H1469 0.930 . S
C1478 C1476 1.384 . S
C1478 C1479 1.372 . S
C1479 C1478 1.372 . S
C1479 C1480 1.400 . S
C1479 C1484 1.490 . S
C1480 H1470 0.930 . S
C1480 C1479 1.400 . S
C1480 C1483 1.386 . S
H1481 C1497 0.930 . S
H1482 C1498 0.931 . S
C1483 H1471 0.929 . S
C1483 C1477 1.390 . S
C1483 C1480 1.386 . S
C1484 C1479 1.490 . S
C1484 C1486 1.395 . S
C1484 C1487 1.403 . S
H1485 C1491 0.930 . S
C1486 H1472 0.930 . S
C1486 C1484 1.395 . S
C1486 C1489 1.403 . S
C1487 C1484 1.403 . S
C1487 C1488 1.524 . S
C1487 C1491 1.400 . S
C1488 H1473 0.960 . S
C1488 H1474 0.960 . S
C1488 H1475 0.960 . S
C1488 C1487 1.524 . S
C1489 C1486 1.403 . S
C1489 C1490 1.392 . S
C1489 C1493 1.495 . S
C1490 C1489 1.392 . S
C1490 C1491 1.385 . S
C1490 C1492 1.478 . S
C1491 H1485 0.930 . S
C1491 C1487 1.400 . S
C1491 C1490 1.385 . S
C1492 C1490 1.478 . S
C1492 C1494 1.381 . S
C1492 C1498 1.383 . S
C1493 C1489 1.495 . S
C1493 H1499 0.959 . S
C1493 H1500 0.961 . S
C1493 H1501 0.960 . S
C1494 C1492 1.381 . S
C1494 C1495 1.394 . S
C1494 H1502 0.930 . S
C1495 C1494 1.394 . S
C1495 C1496 1.383 . S
C1495 H1503 0.929 . S
C1496 C1495 1.383 . S
C1496 C1497 1.377 . S
C1497 H1481 0.930 . S
C1497 C1496 1.377 . S
C1497 C1498 1.379 . S
C1498 H1482 0.931 . S
C1498 C1492 1.383 . S
C1498 C1497 1.379 . S
H1499 C1493 0.959 . S
H1500 C1493 0.961 . S
H1501 C1493 0.960 . S
H1502 C1494 0.930 . S
H1503 C1495 0.929 . S
H1504 C1512 0.929 . S
H1505 C1514 0.930 . S
H1506 C1516 0.930 . S
H1507 C1519 0.929 . S
H1508 C1522 0.930 . S
H1509 C1524 0.960 . S
H1510 C1524 0.960 . S
H1511 C1524 0.960 . S
C1512 H1504 0.929 . S
C1512 C1513 1.377 . S
C1512 C1514 1.384 . S
C1513 C1512 1.377 . S
C1513 C1519 1.390 . S
C1514 H1505 0.930 . S
C1514 C1512 1.384 . S
C1514 C1515 1.372 . S
C1515 C1514 1.372 . S
C1515 C1516 1.400 . S
C1515 C1520 1.490 . S
C1516 H1506 0.930 . S
C1516 C1515 1.400 . S
C1516 C1519 1.386 . S
H1517 C1533 0.930 . S
H1518 C1534 0.931 . S
C1519 H1507 0.929 . S
C1519 C1513 1.390 . S
C1519 C1516 1.386 . S
C1520 C1515 1.490 . S
C1520 C1522 1.395 . S
C1520 C1523 1.403 . S
H1521 C1527 0.930 . S
C1522 H1508 0.930 . S
C1522 C1520 1.395 . S
C1522 C1525 1.403 . S
C1523 C1520 1.403 . S
C1523 C1524 1.524 . S
C1523 C1527 1.400 . S
C1524 H1509 0.960 . S
C1524 H1510 0.960 . S
C1524 H1511 0.960 . S
C1524 C1523 1.524 . S
C1525 C1522 1.403 . S
C1525 C1526 1.392 . S
C1525 C1529 1.495 . S
C1526 C1525 1.392 . S
C1526 C1527 1.385 . S
C1526 C1528 1.478 . S
C1527 H1521 0.930 . S
C1527 C1523 1.400 . S
C1527 C1526 1.385 . S
C1528 C1526 1.478 . S
C1528 C1530 1.381 . S
C1528 C1534 1.383 . S
C1529 C1525 1.495 . S
C1529 H1535 0.959 . S
C1529 H1536 0.961 . S
C1529 H1537 0.960 . S
C1530 C1528 1.381 . S
C1530 C1531 1.394 . S
C1530 H1538 0.930 . S
C1531 C1530 1.394 . S
C1531 C1532 1.383 . S
C1531 H1539 0.929 . S
C1532 C1531 1.383 . S
C1532 C1533 1.377 . S
C1533 H1517 0.930 . S
C1533 C1532 1.377 . S
C1533 C1534 1.379 . S
C1534 H1518 0.931 . S
C1534 C1528 1.383 . S
C1534 C1533 1.379 . S
H1535 C1529 0.959 . S
H1536 C1529 0.961 . S
H1537 C1529 0.960 . S
H1538 C1530 0.930 . S
H1539 C1531 0.929 . S
H1540 C1548 0.929 . S
H1541 C1550 0.930 . S
H1542 C1552 0.930 . S
H1543 C1555 0.929 . S
H1544 C1558 0.930 . S
H1545 C1560 0.960 . S
H1546 C1560 0.960 . S
H1547 C1560 0.960 . S
C1548 H1540 0.929 . S
C1548 C1549 1.377 . S
C1548 C1550 1.384 . S
C1549 C1548 1.377 . S
C1549 C1555 1.390 . S
C1550 H1541 0.930 . S
C1550 C1548 1.384 . S
C1550 C1551 1.372 . S
C1551 C1550 1.372 . S
C1551 C1552 1.400 . S
C1551 C1556 1.490 . S
C1552 H1542 0.930 . S
C1552 C1551 1.400 . S
C1552 C1555 1.386 . S
H1553 C1569 0.930 . S
H1554 C1570 0.931 . S
C1555 H1543 0.929 . S
C1555 C1549 1.390 . S
C1555 C1552 1.386 . S
C1556 C1551 1.490 . S
C1556 C1558 1.395 . S
C1556 C1559 1.403 . S
H1557 C1563 0.930 . S
C1558 H1544 0.930 . S
C1558 C1556 1.395 . S
C1558 C1561 1.403 . S
C1559 C1556 1.403 . S
C1559 C1560 1.524 . S
C1559 C1563 1.400 . S
C1560 H1545 0.960 . S
C1560 H1546 0.960 . S
C1560 H1547 0.960 . S
C1560 C1559 1.524 . S
C1561 C1558 1.403 . S
C1561 C1562 1.392 . S
C1561 C1565 1.495 . S
C1562 C1561 1.392 . S
C1562 C1563 1.385 . S
C1562 C1564 1.478 . S
C1563 H1557 0.930 . S
C1563 C1559 1.400 . S
C1563 C1562 1.385 . S
C1564 C1562 1.478 . S
C1564 C1566 1.381 . S
C1564 C1570 1.383 . S
C1565 C1561 1.495 . S
C1565 H1571 0.959 . S
C1565 H1572 0.961 . S
C1565 H1573 0.960 . S
C1566 C1564 1.381 . S
C1566 C1567 1.394 . S
C1566 H1574 0.930 . S
C1567 C1566 1.394 . S
C1567 C1568 1.383 . S
C1567 H1575 0.929 . S
C1568 C1567 1.383 . S
C1568 C1569 1.377 . S
C1569 H1553 0.930 . S
C1569 C1568 1.377 . S
C1569 C1570 1.379 . S
C1570 H1554 0.931 . S
C1570 C1564 1.383 . S
C1570 C1569 1.379 . S
H1571 C1565 0.959 . S
H1572 C1565 0.961 . S
H1573 C1565 0.960 . S
H1574 C1566 0.930 . S
H1575 C1567 0.929 . S
H1576 C1584 0.929 . S
H1577 C1586 0.930 . S
H1578 C1588 0.930 . S
H1579 C1591 0.929 . S
H1580 C1594 0.930 . S
H1581 C1596 0.960 . S
H1582 C1596 0.960 . S
H1583 C1596 0.960 . S
C1584 H1576 0.929 . S
C1584 C1585 1.377 . S
C1584 C1586 1.384 . S
C1585 C1584 1.377 . S
C1585 C1591 1.390 . S
C1586 H1577 0.930 . S
C1586 C1584 1.384 . S
C1586 C1587 1.372 . S
C1587 C1586 1.372 . S
C1587 C1588 1.400 . S
C1587 C1592 1.490 . S
C1588 H1578 0.930 . S
C1588 C1587 1.400 . S
C1588 C1591 1.386 . S
H1589 C1605 0.930 . S
H1590 C1606 0.931 . S
C1591 H1579 0.929 . S
C1591 C1585 1.390 . S
C1591 C1588 1.386 . S
C1592 C1587 1.490 . S
C1592 C1594 1.395 . S
C1592 C1595 1.403 . S
H1593 C1599 0.930 . S
C1594 H1580 0.930 . S
C1594 C1592 1.395 . S
C1594 C1597 1.403 . S
C1595 C1592 1.403 . S
C1595 C1596 1.524 . S
C1595 C1599 1.400 . S
C1596 H1581 0.960 . S
C1596 H1582 0.960 . S
C1596 H1583 0.960 . S
C1596 C1595 1.524 . S
C1597 C1594 1.403 . S
C1597 C1598 1.392 . S
C1597 C1601 1.495 . S
C1598 C1597 1.392 . S
C1598 C1599 1.385 . S
C1598 C1600 1.478 . S
C1599 H1593 0.930 . S
C1599 C1595 1.400 . S
C1599 C1598 1.385 . S
C1600 C1598 1.478 . S
C1600 C1602 1.381 . S
C1600 C1606 1.383 . S
C1601 C1597 1.495 . S
C1601 H1607 0.959 . S
C1601 H1608 0.961 . S
C1601 H1609 0.960 . S
C1602 C1600 1.381 . S
C1602 C1603 1.394 . S
C1602 H1610 0.930 . S
C1603 C1602 1.394 . S
C1603 C1604 1.383 . S
C1603 H1611 0.929 . S
C1604 C1603 1.383 . S
C1604 C1605 1.377 . S
C1605 H1589 0.930 . S
C1605 C1604 1.377 . S
C1605 C1606 1.379 . S
C1606 H1590 0.931 . S
C1606 C1600 1.383 . S
C1606 C1605 1.379 . S
H1607 C1601 0.959 . S
H1608 C1601 0.961 . S
H1609 C1601 0.960 . S
H1610 C1602 0.930 . S
H1611 C1603 0.929 . S
H1612 C1620 0.929 . S
H1613 C1622 0.930 . S
H1614 C1624 0.930 . S
H1615 C1627 0.929 . S
H1616 C1630 0.930 . S
H1617 C1632 0.960 . S
H1618 C1632 0.960 . S
H1619 C1632 0.960 . S
C1620 H1612 0.929 . S
C1620 C1621 1.377 . S
C1620 C1622 1.384 . S
C1621 C1620 1.377 . S
C1621 C1627 1.390 . S
C1622 H1613 0.930 . S
C1622 C1620 1.384 . S
C1622 C1623 1.372 . S
C1623 C1622 1.372 . S
C1623 C1624 1.400 . S
C1623 C1628 1.490 . S
C1624 H1614 0.930 . S
C1624 C1623 1.400 . S
C1624 C1627 1.386 . S
H1625 C1641 0.930 . S
H1626 C1642 0.931 . S
C1627 H1615 0.929 . S
C1627 C1621 1.390 . S
C1627 C1624 1.386 . S
C1628 C1623 1.490 . S
C1628 C1630 1.395 . S
C1628 C1631 1.403 . S
H1629 C1635 0.930 . S
C1630 H1616 0.930 . S
C1630 C1628 1.395 . S
C1630 C1633 1.403 . S
C1631 C1628 1.403 . S
C1631 C1632 1.524 . S
C1631 C1635 1.400 . S
C1632 H1617 0.960 . S
C1632 H1618 0.960 . S
C1632 H1619 0.960 . S
C1632 C1631 1.524 . S
C1633 C1630 1.403 . S
C1633 C1634 1.392 . S
C1633 C1637 1.495 . S
C1634 C1633 1.392 . S
C1634 C1635 1.385 . S
C1634 C1636 1.478 . S
C1635 H1629 0.930 . S
C1635 C1631 1.400 . S
C1635 C1634 1.385 . S
C1636 C1634 1.478 . S
C1636 C1638 1.381 . S
C1636 C1642 1.383 . S
C1637 C1633 1.495 . S
C1637 H1643 0.959 . S
C1637 H1644 0.961 . S
C1637 H1645 0.960 . S
C1638 C1636 1.381 . S
C1638 C1639 1.394 . S
C1638 H1646 0.930 . S
C1639 C1638 1.394 . S
C1639 C1640 1.383 . S
C1639 H1647 0.929 . S
C1640 C1639 1.383 . S
C1640 C1641 1.377 . S
C1641 H1625 0.930 . S
C1641 C1640 1.377 . S
C1641 C1642 1.379 . S
C1642 H1626 0.931 . S
C1642 C1636 1.383 . S
C1642 C1641 1.379 . S
H1643 C1637 0.959 . S
H1644 C1637 0.961 . S
H1645 C1637 0.960 . S
H1646 C1638 0.930 . S
H1647 C1639 0.929 . S
H1648 C1656 0.929 . S
H1649 C1658 0.930 . S
H1650 C1660 0.930 . S
H1651 C1663 0.929 . S
H1652 C1666 0.930 . S
H1653 C1668 0.960 . S
H1654 C1668 0.960 . S
H1655 C1668 0.960 . S
C1656 H1648 0.929 . S
C1656 C1657 1.377 . S
C1656 C1658 1.384 . S
C1657 C1656 1.377 . S
C1657 C1663 1.390 . S
C1658 H1649 0.930 . S
C1658 C1656 1.384 . S
C1658 C1659 1.372 . S
C1659 C1658 1.372 . S
C1659 C1660 1.400 . S
C1659 C1664 1.490 . S
C1660 H1650 0.930 . S
C1660 C1659 1.400 . S
C1660 C1663 1.386 . S
H1661 C1677 0.930 . S
H1662 C1678 0.931 . S
C1663 H1651 0.929 . S
C1663 C1657 1.390 . S
C1663 C1660 1.386 . S
C1664 C1659 1.490 . S
C1664 C1666 1.395 . S
C1664 C1667 1.403 . S
H1665 C1671 0.924 1_554 S
C1666 H1652 0.930 . S
C1666 C1664 1.395 . S
C1666 C1669 1.403 1_655 S
C1667 C1664 1.403 . S
C1667 C1668 1.524 1_556 S
C1667 C1671 1.400 1_655 S
C1668 H1653 0.960 . S
C1668 H1654 0.960 . S
C1668 H1655 0.960 . S
C1668 C1667 1.524 1_554 S
C1669 C1666 1.403 1_455 S
C1669 C1670 1.392 . S
C1669 C1673 1.495 . S
C1670 C1669 1.392 . S
C1670 C1671 1.385 . S
C1670 C1672 1.478 . S
C1671 H1665 0.924 1_556 S
C1671 C1667 1.400 1_455 S
C1671 C1670 1.385 . S
C1672 C1670 1.478 . S
C1672 C1674 1.381 . S
C1672 C1678 1.383 . S
C1673 C1669 1.495 . S
C1673 H1679 0.959 . S
C1673 H1680 0.961 . S
C1673 H1681 0.960 . S
C1674 C1672 1.381 . S
C1674 C1675 1.394 . S
C1674 H1682 0.930 . S
C1675 C1674 1.394 . S
C1675 C1676 1.383 . S
C1675 H1683 0.929 . S
C1676 C1675 1.383 . S
C1676 C1677 1.377 . S
C1677 H1661 0.930 . S
C1677 C1676 1.377 . S
C1677 C1678 1.379 . S
C1678 H1662 0.931 . S
C1678 C1672 1.383 . S
C1678 C1677 1.379 . S
H1679 C1673 0.959 . S
H1680 C1673 0.961 . S
H1681 C1673 0.960 . S
H1682 C1674 0.930 . S
H1683 C1675 0.929 . S
H1684 C1692 0.929 . S
H1685 C1694 0.930 . S
H1686 C1696 0.930 . S
H1687 C1699 0.929 . S
H1688 C1702 0.930 . S
H1689 C1704 0.960 . S
H1690 C1704 0.960 . S
H1691 C1704 0.960 . S
C1692 H1684 0.929 . S
C1692 C1693 1.377 . S
C1692 C1694 1.384 . S
C1693 C1692 1.377 . S
C1693 C1699 1.390 . S
C1694 H1685 0.930 . S
C1694 C1692 1.384 . S
C1694 C1695 1.372 . S
C1695 C1694 1.372 . S
C1695 C1696 1.400 . S
C1695 C1700 1.490 . S
C1696 H1686 0.930 . S
C1696 C1695 1.400 . S
C1696 C1699 1.386 . S
H1697 C1713 0.930 . S
H1698 C1714 0.931 . S
C1699 H1687 0.929 . S
C1699 C1693 1.390 . S
C1699 C1696 1.386 . S
C1700 C1695 1.490 . S
C1700 C1702 1.395 . S
C1700 C1703 1.403 . S
H1701 C1707 0.930 . S
C1702 H1688 0.930 . S
C1702 C1700 1.395 . S
C1702 C1705 1.403 . S
C1703 C1700 1.403 . S
C1703 C1704 1.524 . S
C1703 C1707 1.400 . S
C1704 H1689 0.960 . S
C1704 H1690 0.960 . S
C1704 H1691 0.960 . S
C1704 C1703 1.524 . S
C1705 C1702 1.403 . S
C1705 C1706 1.392 . S
C1705 C1709 1.495 . S
C1706 C1705 1.392 . S
C1706 C1707 1.385 . S
C1706 C1708 1.478 . S
C1707 H1701 0.930 . S
C1707 C1703 1.400 . S
C1707 C1706 1.385 . S
C1708 C1706 1.478 . S
C1708 C1710 1.381 . S
C1708 C1714 1.383 . S
C1709 C1705 1.495 . S
C1709 H1715 0.959 . S
C1709 H1716 0.961 . S
C1709 H1717 0.960 . S
C1710 C1708 1.381 . S
C1710 C1711 1.394 . S
C1710 H1718 0.930 . S
C1711 C1710 1.394 . S
C1711 C1712 1.383 . S
C1711 H1719 0.929 . S
C1712 C1711 1.383 . S
C1712 C1713 1.377 . S
C1713 H1697 0.930 . S
C1713 C1712 1.377 . S
C1713 C1714 1.379 . S
C1714 H1698 0.931 . S
C1714 C1708 1.383 . S
C1714 C1713 1.379 . S
H1715 C1709 0.959 . S
H1716 C1709 0.961 . S
H1717 C1709 0.960 . S
H1718 C1710 0.930 . S
H1719 C1711 0.929 . S
H1720 C1728 0.929 . S
H1721 C1730 0.930 . S
H1722 C1732 0.930 . S
H1723 C1735 0.929 . S
H1724 C1738 0.930 . S
H1725 C1740 0.960 . S
H1726 C1740 0.960 . S
H1727 C1740 0.960 . S
C1728 H1720 0.929 . S
C1728 C1729 1.377 . S
C1728 C1730 1.384 . S
C1729 C1728 1.377 . S
C1729 C1735 1.390 . S
C1730 H1721 0.930 . S
C1730 C1728 1.384 . S
C1730 C1731 1.372 . S
C1731 C1730 1.372 . S
C1731 C1732 1.400 . S
C1731 C1736 1.490 . S
C1732 H1722 0.930 . S
C1732 C1731 1.400 . S
C1732 C1735 1.386 . S
H1733 C1749 0.930 . S
H1734 C1750 0.931 . S
C1735 H1723 0.929 . S
C1735 C1729 1.390 . S
C1735 C1732 1.386 . S
C1736 C1731 1.490 . S
C1736 C1738 1.395 . S
C1736 C1739 1.403 . S
H1737 C1743 0.930 . S
C1738 H1724 0.930 . S
C1738 C1736 1.395 . S
C1738 C1741 1.403 . S
C1739 C1736 1.403 . S
C1739 C1740 1.524 . S
C1739 C1743 1.400 . S
C1740 H1725 0.960 . S
C1740 H1726 0.960 . S
C1740 H1727 0.960 . S
C1740 C1739 1.524 . S
C1741 C1738 1.403 . S
C1741 C1742 1.392 . S
C1741 C1745 1.495 . S
C1742 C1741 1.392 . S
C1742 C1743 1.385 . S
C1742 C1744 1.478 . S
C1743 H1737 0.930 . S
C1743 C1739 1.400 . S
C1743 C1742 1.385 . S
C1744 C1742 1.478 . S
C1744 C1746 1.381 . S
C1744 C1750 1.383 . S
C1745 C1741 1.495 . S
C1745 H1751 0.959 . S
C1745 H1752 0.961 . S
C1745 H1753 0.960 . S
C1746 C1744 1.381 . S
C1746 C1747 1.394 . S
C1746 H1754 0.930 . S
C1747 C1746 1.394 . S
C1747 C1748 1.383 . S
C1747 H1755 0.929 . S
C1748 C1747 1.383 . S
C1748 C1749 1.377 . S
C1749 H1733 0.930 . S
C1749 C1748 1.377 . S
C1749 C1750 1.379 . S
C1750 H1734 0.931 . S
C1750 C1744 1.383 . S
C1750 C1749 1.379 . S
H1751 C1745 0.959 . S
H1752 C1745 0.961 . S
H1753 C1745 0.960 . S
H1754 C1746 0.930 . S
H1755 C1747 0.929 . S
H1756 C1764 0.929 . S
H1757 C1766 0.930 . S
H1758 C1768 0.930 . S
H1759 C1771 0.929 . S
H1760 C1774 0.930 . S
H1761 C1776 0.960 . S
H1762 C1776 0.960 . S
H1763 C1776 0.960 . S
C1764 H1756 0.929 . S
C1764 C1765 1.377 . S
C1764 C1766 1.384 . S
C1765 C1764 1.377 . S
C1765 C1771 1.390 . S
C1766 H1757 0.930 . S
C1766 C1764 1.384 . S
C1766 C1767 1.372 . S
C1767 C1766 1.372 . S
C1767 C1768 1.400 . S
C1767 C1772 1.490 . S
C1768 H1758 0.930 . S
C1768 C1767 1.400 . S
C1768 C1771 1.386 . S
H1769 C1785 0.930 . S
H1770 C1786 0.931 . S
C1771 H1759 0.929 . S
C1771 C1765 1.390 . S
C1771 C1768 1.386 . S
C1772 C1767 1.490 . S
C1772 C1774 1.395 . S
C1772 C1775 1.403 . S
H1773 C1779 0.930 . S
C1774 H1760 0.930 . S
C1774 C1772 1.395 . S
C1774 C1777 1.403 1_455 S
C1775 C1772 1.403 . S
C1775 C1776 1.524 . S
C1775 C1779 1.400 1_455 S
C1776 H1761 0.960 . S
C1776 H1762 0.960 . S
C1776 H1763 0.960 . S
C1776 C1775 1.524 . S
C1777 C1774 1.403 1_655 S
C1777 C1778 1.392 . S
C1777 C1781 1.495 . S
C1778 C1777 1.392 . S
C1778 C1779 1.385 . S
C1778 C1780 1.478 . S
C1779 H1773 0.930 . S
C1779 C1775 1.400 1_655 S
C1779 C1778 1.385 . S
C1780 C1778 1.478 . S
C1780 C1782 1.381 . S
C1780 C1786 1.383 . S
C1781 C1777 1.495 . S
C1781 H1787 0.959 . S
C1781 H1788 0.961 . S
C1781 H1789 0.960 . S
C1782 C1780 1.381 . S
C1782 C1783 1.394 . S
C1782 H1790 0.930 . S
C1783 C1782 1.394 . S
C1783 C1784 1.383 . S
C1783 H1791 0.929 . S
C1784 C1783 1.383 . S
C1784 C1785 1.377 . S
C1785 H1769 0.930 . S
C1785 C1784 1.377 . S
C1785 C1786 1.379 . S
C1786 H1770 0.931 . S
C1786 C1780 1.383 . S
C1786 C1785 1.379 . S
H1787 C1781 0.959 . S
H1788 C1781 0.961 . S
H1789 C1781 0.960 . S
H1790 C1782 0.930 . S
H1791 C1783 0.929 . S
H1792 C1800 0.929 . S
H1793 C1802 0.930 . S
H1794 C1804 0.930 . S
H1795 C1807 0.929 . S
H1796 C1810 0.930 . S
H1797 C1812 0.960 . S
H1798 C1812 0.960 1_554 S
H1799 C1812 0.960 . S
C1800 H1792 0.929 . S
C1800 C1801 1.377 . S
C1800 C1802 1.384 . S
C1801 C1800 1.377 . S
C1801 C1807 1.390 . S
C1802 H1793 0.930 . S
C1802 C1800 1.384 . S
C1802 C1803 1.372 . S
C1803 C1802 1.372 . S
C1803 C1804 1.400 . S
C1803 C1808 1.490 . S
C1804 H1794 0.930 . S
C1804 C1803 1.400 . S
C1804 C1807 1.386 . S
H1805 C1821 0.930 . S
H1806 C1822 0.931 . S
C1807 H1795 0.929 . S
C1807 C1801 1.390 . S
C1807 C1804 1.386 . S
C1808 C1803 1.490 . S
C1808 C1810 1.395 . S
C1808 C1811 1.403 . S
H1809 C1815 0.930 . S
C1810 H1796 0.930 . S
C1810 C1808 1.395 . S
C1810 C1813 1.403 . S
C1811 C1808 1.403 . S
C1811 C1812 1.524 1_554 S
C1811 C1815 1.400 1_554 S
C1812 H1797 0.960 . S
C1812 H1798 0.960 1_556 S
C1812 H1799 0.960 . S
C1812 C1811 1.524 1_556 S
C1813 C1810 1.403 . S
C1813 C1814 1.392 . S
C1813 C1817 1.495 . S
C1814 C1813 1.392 . S
C1814 C1815 1.385 1_554 S
C1814 C1816 1.476 1_554 S
C1815 H1809 0.930 . S
C1815 C1811 1.400 1_556 S
C1815 C1814 1.385 1_556 S
C1816 C1814 1.476 1_556 S
C1816 C1818 1.378 1_556 S
C1816 C1822 1.387 . S
C1817 C1813 1.495 . S
C1817 H1823 0.959 . S
C1817 H1824 0.961 . S
C1817 H1825 0.960 . S
C1818 C1816 1.378 1_554 S
C1818 C1819 1.394 1_554 S
C1818 H1826 0.930 . S
C1819 C1818 1.394 1_556 S
C1819 C1820 1.383 . S
C1819 H1827 0.929 1_556 S
C1820 C1819 1.383 . S
C1820 C1821 1.377 . S
C1821 H1805 0.930 . S
C1821 C1820 1.377 . S
C1821 C1822 1.379 . S
C1822 H1806 0.931 . S
C1822 C1816 1.387 . S
C1822 C1821 1.379 . S
H1823 C1817 0.959 . S
H1824 C1817 0.961 . S
H1825 C1817 0.960 . S
H1826 C1818 0.930 . S
H1827 C1819 0.929 1_554 S
H1828 C1836 0.929 . S
H1829 C1838 0.930 . S
H1830 C1840 0.930 . S
H1831 C1843 0.929 . S
H1832 C1846 0.930 . S
H1833 C1848 0.960 . S
H1834 C1848 0.960 . S
H1835 C1848 0.960 . S
C1836 H1828 0.929 . S
C1836 C1837 1.377 . S
C1836 C1838 1.384 . S
C1837 C1836 1.377 . S
C1837 C1843 1.390 . S
C1838 H1829 0.930 . S
C1838 C1836 1.384 . S
C1838 C1839 1.372 . S
C1839 C1838 1.372 . S
C1839 C1840 1.400 . S
C1839 C1844 1.490 . S
C1840 H1830 0.930 . S
C1840 C1839 1.400 . S
C1840 C1843 1.386 . S
H1841 C1857 0.930 . S
H1842 C1858 0.931 . S
C1843 H1831 0.929 . S
C1843 C1837 1.390 . S
C1843 C1840 1.386 . S
C1844 C1839 1.490 . S
C1844 C1846 1.395 . S
C1844 C1847 1.403 . S
H1845 C1851 0.930 . S
C1846 H1832 0.930 . S
C1846 C1844 1.395 . S
C1846 C1849 1.403 . S
C1847 C1844 1.403 . S
C1847 C1848 1.524 . S
C1847 C1851 1.400 . S
C1848 H1833 0.960 . S
C1848 H1834 0.960 . S
C1848 H1835 0.960 . S
C1848 C1847 1.524 . S
C1849 C1846 1.403 . S
C1849 C1850 1.392 . S
C1849 C1853 1.495 . S
C1850 C1849 1.392 . S
C1850 C1851 1.385 . S
C1850 C1852 1.478 . S
C1851 H1845 0.930 . S
C1851 C1847 1.400 . S
C1851 C1850 1.385 . S
C1852 C1850 1.478 . S
C1852 C1854 1.381 . S
C1852 C1858 1.383 . S
C1853 C1849 1.495 . S
C1853 H1859 0.959 . S
C1853 H1860 0.961 . S
C1853 H1861 0.960 . S
C1854 C1852 1.381 . S
C1854 C1855 1.394 . S
C1854 H1862 0.930 . S
C1855 C1854 1.394 . S
C1855 C1856 1.383 . S
C1855 H1863 0.929 . S
C1856 C1855 1.383 . S
C1856 C1857 1.377 . S
C1857 H1841 0.930 . S
C1857 C1856 1.377 . S
C1857 C1858 1.379 . S
C1858 H1842 0.931 . S
C1858 C1852 1.383 . S
C1858 C1857 1.379 . S
H1859 C1853 0.959 . S
H1860 C1853 0.961 . S
H1861 C1853 0.960 . S
H1862 C1854 0.930 . S
H1863 C1855 0.929 . S
H1864 C1872 0.929 . S
H1865 C1874 0.930 . S
H1866 C1876 0.930 . S
H1867 C1879 0.929 . S
H1868 C1882 0.930 . S
H1869 C1884 0.960 . S
H1870 C1884 0.960 . S
H1871 C1884 0.960 . S
C1872 H1864 0.929 . S
C1872 C1873 1.377 . S
C1872 C1874 1.384 . S
C1873 C1872 1.377 . S
C1873 C1879 1.390 . S
C1874 H1865 0.930 . S
C1874 C1872 1.384 . S
C1874 C1875 1.372 . S
C1875 C1874 1.372 . S
C1875 C1876 1.400 . S
C1875 C1880 1.490 . S
C1876 H1866 0.930 . S
C1876 C1875 1.400 . S
C1876 C1879 1.386 . S
H1877 C1893 0.930 . S
H1878 C1894 0.931 . S
C1879 H1867 0.929 . S
C1879 C1873 1.390 . S
C1879 C1876 1.386 . S
C1880 C1875 1.490 . S
C1880 C1882 1.395 . S
C1880 C1883 1.403 . S
H1881 C1887 0.930 . S
C1882 H1868 0.930 . S
C1882 C1880 1.395 . S
C1882 C1885 1.403 . S
C1883 C1880 1.403 . S
C1883 C1884 1.524 . S
C1883 C1887 1.400 . S
C1884 H1869 0.960 . S
C1884 H1870 0.960 . S
C1884 H1871 0.960 . S
C1884 C1883 1.524 . S
C1885 C1882 1.403 . S
C1885 C1886 1.392 . S
C1885 C1889 1.495 . S
C1886 C1885 1.392 . S
C1886 C1887 1.385 . S
C1886 C1888 1.478 . S
C1887 H1881 0.930 . S
C1887 C1883 1.400 . S
C1887 C1886 1.385 . S
C1888 C1886 1.478 . S
C1888 C1890 1.381 . S
C1888 C1894 1.383 . S
C1889 C1885 1.495 . S
C1889 H1895 0.959 . S
C1889 H1896 0.961 . S
C1889 H1897 0.960 . S
C1890 C1888 1.381 . S
C1890 C1891 1.394 . S
C1890 H1898 0.930 . S
C1891 C1890 1.394 . S
C1891 C1892 1.383 . S
C1891 H1899 0.929 . S
C1892 C1891 1.383 . S
C1892 C1893 1.377 . S
C1893 H1877 0.930 . S
C1893 C1892 1.377 . S
C1893 C1894 1.379 . S
C1894 H1878 0.931 . S
C1894 C1888 1.383 . S
C1894 C1893 1.379 . S
H1895 C1889 0.959 . S
H1896 C1889 0.961 . S
H1897 C1889 0.960 . S
H1898 C1890 0.930 . S
H1899 C1891 0.929 . S
H1900 C1908 0.929 . S
H1901 C1910 0.930 . S
H1902 C1912 0.930 . S
H1903 C1915 0.929 . S
H1904 C1918 0.930 . S
H1905 C1920 0.960 . S
H1906 C1920 0.960 . S
H1907 C1920 0.960 . S
C1908 H1900 0.929 . S
C1908 C1909 1.377 . S
C1908 C1910 1.384 . S
C1909 C1908 1.377 . S
C1909 C1915 1.390 . S
C1910 H1901 0.930 . S
C1910 C1908 1.384 . S
C1910 C1911 1.372 . S
C1911 C1910 1.372 . S
C1911 C1912 1.400 . S
C1911 C1916 1.490 . S
C1912 H1902 0.930 . S
C1912 C1911 1.400 . S
C1912 C1915 1.386 . S
H1913 C1929 0.930 . S
H1914 C1930 0.931 . S
C1915 H1903 0.929 . S
C1915 C1909 1.390 . S
C1915 C1912 1.386 . S
C1916 C1911 1.490 . S
C1916 C1918 1.395 . S
C1916 C1919 1.403 . S
H1917 C1923 0.930 . S
C1918 H1904 0.930 . S
C1918 C1916 1.395 . S
C1918 C1921 1.403 . S
C1919 C1916 1.403 . S
C1919 C1920 1.524 . S
C1919 C1923 1.400 . S
C1920 H1905 0.960 . S
C1920 H1906 0.960 . S
C1920 H1907 0.960 . S
C1920 C1919 1.524 . S
C1921 C1918 1.403 . S
C1921 C1922 1.392 . S
C1921 C1925 1.495 . S
C1922 C1921 1.392 . S
C1922 C1923 1.385 . S
C1922 C1924 1.478 . S
C1923 H1917 0.930 . S
C1923 C1919 1.400 . S
C1923 C1922 1.385 . S
C1924 C1922 1.478 . S
C1924 C1926 1.381 . S
C1924 C1930 1.383 . S
C1925 C1921 1.495 . S
C1925 H1931 0.959 . S
C1925 H1932 0.961 . S
C1925 H1933 0.960 . S
C1926 C1924 1.381 . S
C1926 C1927 1.394 . S
C1926 H1934 0.930 . S
C1927 C1926 1.394 . S
C1927 C1928 1.383 . S
C1927 H1935 0.929 . S
C1928 C1927 1.383 . S
C1928 C1929 1.377 . S
C1929 H1913 0.930 . S
C1929 C1928 1.377 . S
C1929 C1930 1.379 . S
C1930 H1914 0.931 . S
C1930 C1924 1.383 . S
C1930 C1929 1.379 . S
H1931 C1925 0.959 . S
H1932 C1925 0.961 . S
H1933 C1925 0.960 . S
H1934 C1926 0.930 . S
H1935 C1927 0.929 . S
H1936 C1944 0.929 . S
H1937 C1946 0.930 . S
H1938 C1948 0.930 . S
H1939 C1951 0.929 . S
H1940 C1954 0.930 . S
H1941 C1956 0.960 . S
H1942 C1956 0.960 . S
H1943 C1956 0.960 . S
C1944 H1936 0.929 . S
C1944 C1945 1.377 . S
C1944 C1946 1.384 . S
C1945 C1944 1.377 . S
C1945 C1951 1.390 . S
C1946 H1937 0.930 . S
C1946 C1944 1.384 . S
C1946 C1947 1.372 . S
C1947 C1946 1.372 . S
C1947 C1948 1.400 . S
C1947 C1952 1.490 . S
C1948 H1938 0.930 . S
C1948 C1947 1.400 . S
C1948 C1951 1.386 . S
H1949 C1965 0.930 . S
H1950 C1966 0.931 . S
C1951 H1939 0.929 . S
C1951 C1945 1.390 . S
C1951 C1948 1.386 . S
C1952 C1947 1.490 . S
C1952 C1954 1.395 . S
C1952 C1955 1.403 1_554 S
H1953 C1959 0.930 . S
C1954 H1940 0.930 . S
C1954 C1952 1.395 . S
C1954 C1957 1.403 . S
C1955 C1952 1.403 1_556 S
C1955 C1956 1.524 . S
C1955 C1959 1.400 . S
C1956 H1941 0.960 . S
C1956 H1942 0.960 . S
C1956 H1943 0.960 . S
C1956 C1955 1.524 . S
C1957 C1954 1.403 . S
C1957 C1958 1.392 1_554 S
C1957 C1961 1.495 . S
C1958 C1957 1.392 1_556 S
C1958 C1959 1.385 . S
C1958 C1960 1.478 . S
C1959 H1953 0.930 . S
C1959 C1955 1.400 . S
C1959 C1958 1.385 . S
C1960 C1958 1.478 . S
C1960 C1962 1.381 . S
C1960 C1966 1.383 . S
C1961 C1957 1.495 . S
C1961 H1967 0.959 . S
C1961 H1968 0.961 . S
C1961 H1969 0.960 . S
C1962 C1960 1.381 . S
C1962 C1963 1.394 . S
C1962 H1970 0.930 . S
C1963 C1962 1.394 . S
C1963 C1964 1.383 . S
C1963 H1971 0.929 . S
C1964 C1963 1.383 . S
C1964 C1965 1.377 . S
C1965 H1949 0.930 . S
C1965 C1964 1.377 . S
C1965 C1966 1.379 . S
C1966 H1950 0.931 . S
C1966 C1960 1.383 . S
C1966 C1965 1.379 . S
H1967 C1961 0.959 . S
H1968 C1961 0.961 . S
H1969 C1961 0.960 . S
H1970 C1962 0.930 . S
H1971 C1963 0.929 . S
H1972 C1980 0.929 . S
H1973 C1982 0.930 . S
H1974 C1984 0.930 . S
H1975 C1987 0.929 . S
H1976 C1990 0.930 . S
H1977 C1992 0.960 . S
H1978 C1992 0.960 . S
H1979 C1992 0.960 . S
C1980 H1972 0.929 . S
C1980 C1981 1.377 . S
C1980 C1982 1.384 . S
C1981 C1980 1.377 . S
C1981 C1987 1.390 . S
C1982 H1973 0.930 . S
C1982 C1980 1.384 . S
C1982 C1983 1.372 . S
C1983 C1982 1.372 . S
C1983 C1984 1.400 . S
C1983 C1988 1.490 . S
C1984 H1974 0.930 . S
C1984 C1983 1.400 . S
C1984 C1987 1.386 . S
H1985 C2001 0.930 . S
H1986 C2002 0.931 . S
C1987 H1975 0.929 . S
C1987 C1981 1.390 . S
C1987 C1984 1.386 . S
C1988 C1983 1.490 . S
C1988 C1990 1.395 . S
C1988 C1991 1.403 . S
H1989 C1995 0.930 . S
C1990 H1976 0.930 . S
C1990 C1988 1.395 . S
C1990 C1993 1.403 . S
C1991 C1988 1.403 . S
C1991 C1992 1.524 . S
C1991 C1995 1.400 . S
C1992 H1977 0.960 . S
C1992 H1978 0.960 . S
C1992 H1979 0.960 . S
C1992 C1991 1.524 . S
C1993 C1990 1.403 . S
C1993 C1994 1.392 . S
C1993 C1997 1.495 . S
C1994 C1993 1.392 . S
C1994 C1995 1.385 . S
C1994 C1996 1.478 . S
C1995 H1989 0.930 . S
C1995 C1991 1.400 . S
C1995 C1994 1.385 . S
C1996 C1994 1.478 . S
C1996 C1998 1.381 . S
C1996 C2002 1.383 . S
C1997 C1993 1.495 . S
C1997 H2003 0.959 . S
C1997 H2004 0.961 . S
C1997 H2005 0.960 . S
C1998 C1996 1.381 . S
C1998 C1999 1.394 . S
C1998 H2006 0.930 . S
C1999 C1998 1.394 . S
C1999 C2000 1.383 . S
C1999 H2007 0.929 . S
C2000 C1999 1.383 . S
C2000 C2001 1.377 . S
C2001 H1985 0.930 . S
C2001 C2000 1.377 . S
C2001 C2002 1.379 . S
C2002 H1986 0.931 . S
C2002 C1996 1.383 . S
C2002 C2001 1.379 . S
H2003 C1997 0.959 . S
H2004 C1997 0.961 . S
H2005 C1997 0.960 . S
H2006 C1998 0.930 . S
H2007 C1999 0.929 . S
H2008 C2016 0.929 . S
H2009 C2018 0.930 . S
H2010 C2020 0.930 . S
H2011 C2023 0.929 . S
H2012 C2026 0.930 . S
H2013 C2028 0.960 . S
H2014 C2028 0.960 . S
H2015 C2028 0.960 . S
C2016 H2008 0.929 . S
C2016 C2017 1.377 . S
C2016 C2018 1.384 . S
C2017 C2016 1.377 . S
C2017 C2023 1.390 . S
C2018 H2009 0.930 . S
C2018 C2016 1.384 . S
C2018 C2019 1.372 . S
C2019 C2018 1.372 . S
C2019 C2020 1.400 . S
C2019 C2024 1.490 . S
C2020 H2010 0.930 . S
C2020 C2019 1.400 . S
C2020 C2023 1.386 . S
H2021 C2037 0.930 . S
H2022 C2038 0.931 . S
C2023 H2011 0.929 . S
C2023 C2017 1.390 . S
C2023 C2020 1.386 . S
C2024 C2019 1.490 . S
C2024 C2026 1.395 . S
C2024 C2027 1.403 . S
H2025 C2031 0.930 . S
C2026 H2012 0.930 . S
C2026 C2024 1.395 . S
C2026 C2029 1.403 . S
C2027 C2024 1.403 . S
C2027 C2028 1.524 . S
C2027 C2031 1.400 . S
C2028 H2013 0.960 . S
C2028 H2014 0.960 . S
C2028 H2015 0.960 . S
C2028 C2027 1.524 . S
C2029 C2026 1.403 . S
C2029 C2030 1.392 . S
C2029 C2033 1.495 . S
C2030 C2029 1.392 . S
C2030 C2031 1.385 . S
C2030 C2032 1.478 . S
C2031 H2025 0.930 . S
C2031 C2027 1.400 . S
C2031 C2030 1.385 . S
C2032 C2030 1.478 . S
C2032 C2034 1.381 . S
C2032 C2038 1.383 . S
C2033 C2029 1.495 . S
C2033 H2039 0.959 . S
C2033 H2040 0.961 . S
C2033 H2041 0.960 . S
C2034 C2032 1.381 . S
C2034 C2035 1.394 . S
C2034 H2042 0.930 . S
C2035 C2034 1.394 . S
C2035 C2036 1.383 . S
C2035 H2043 0.929 . S
C2036 C2035 1.383 . S
C2036 C2037 1.377 . S
C2037 H2021 0.930 . S
C2037 C2036 1.377 . S
C2037 C2038 1.379 . S
C2038 H2022 0.931 . S
C2038 C2032 1.383 . S
C2038 C2037 1.379 . S
H2039 C2033 0.959 . S
H2040 C2033 0.961 . S
H2041 C2033 0.960 . S
H2042 C2034 0.930 . S
H2043 C2035 0.929 . S
H2044 C2052 0.929 . S
H2045 C2054 0.930 . S
H2046 C2056 0.930 . S
H2047 C2059 0.929 . S
H2048 C2062 0.930 . S
H2049 C2064 0.960 . S
H2050 C2064 0.960 . S
H2051 C2064 0.960 . S
C2052 H2044 0.929 . S
C2052 C2053 1.377 . S
C2052 C2054 1.384 . S
C2053 C2052 1.377 . S
C2053 C2059 1.390 . S
C2054 H2045 0.930 . S
C2054 C2052 1.384 . S
C2054 C2055 1.372 . S
C2055 C2054 1.372 . S
C2055 C2056 1.400 . S
C2055 C2060 1.490 . S
C2056 H2046 0.930 . S
C2056 C2055 1.400 . S
C2056 C2059 1.386 . S
H2057 C2073 0.930 . S
H2058 C2074 0.931 . S
C2059 H2047 0.929 . S
C2059 C2053 1.390 . S
C2059 C2056 1.386 . S
C2060 C2055 1.490 . S
C2060 C2062 1.395 . S
C2060 C2063 1.403 . S
H2061 C2067 0.930 . S
C2062 H2048 0.930 . S
C2062 C2060 1.395 . S
C2062 C2065 1.403 . S
C2063 C2060 1.403 . S
C2063 C2064 1.524 . S
C2063 C2067 1.400 . S
C2064 H2049 0.960 . S
C2064 H2050 0.960 . S
C2064 H2051 0.960 . S
C2064 C2063 1.524 . S
C2065 C2062 1.403 . S
C2065 C2066 1.392 . S
C2065 C2069 1.495 . S
C2066 C2065 1.392 . S
C2066 C2067 1.385 . S
C2066 C2068 1.478 . S
C2067 H2061 0.930 . S
C2067 C2063 1.400 . S
C2067 C2066 1.385 . S
C2068 C2066 1.478 . S
C2068 C2070 1.381 . S
C2068 C2074 1.383 . S
C2069 C2065 1.495 . S
C2069 H2075 0.959 . S
C2069 H2076 0.961 . S
C2069 H2077 0.960 . S
C2070 C2068 1.381 . S
C2070 C2071 1.394 . S
C2070 H2078 0.930 . S
C2071 C2070 1.394 . S
C2071 C2072 1.383 . S
C2071 H2079 0.929 . S
C2072 C2071 1.383 . S
C2072 C2073 1.377 . S
C2073 H2057 0.930 . S
C2073 C2072 1.377 . S
C2073 C2074 1.379 . S
C2074 H2058 0.931 . S
C2074 C2068 1.383 . S
C2074 C2073 1.379 . S
H2075 C2069 0.959 . S
H2076 C2069 0.961 . S
H2077 C2069 0.960 . S
H2078 C2070 0.930 . S
H2079 C2071 0.929 . S
H2080 C2088 0.929 . S
H2081 C2090 0.930 . S
H2082 C2092 0.930 . S
H2083 C2095 0.929 . S
H2084 C2098 0.930 . S
H2085 C2100 0.960 . S
H2086 C2100 0.960 . S
H2087 C2100 0.960 . S
C2088 H2080 0.929 . S
C2088 C2089 1.377 . S
C2088 C2090 1.384 . S
C2089 C2088 1.377 . S
C2089 C2095 1.390 . S
C2090 H2081 0.930 . S
C2090 C2088 1.384 . S
C2090 C2091 1.372 . S
C2091 C2090 1.372 . S
C2091 C2092 1.400 . S
C2091 C2096 1.490 . S
C2092 H2082 0.930 . S
C2092 C2091 1.400 . S
C2092 C2095 1.386 . S
H2093 C2109 0.930 . S
H2094 C2110 0.931 . S
C2095 H2083 0.929 . S
C2095 C2089 1.390 . S
C2095 C2092 1.386 . S
C2096 C2091 1.490 . S
C2096 C2098 1.395 . S
C2096 C2099 1.403 . S
H2097 C2103 0.930 . S
C2098 H2084 0.930 . S
C2098 C2096 1.395 . S
C2098 C2101 1.403 1_565 S
C2099 C2096 1.403 . S
C2099 C2100 1.524 . S
C2099 C2103 1.400 1_565 S
C2100 H2085 0.960 . S
C2100 H2086 0.960 . S
C2100 H2087 0.960 . S
C2100 C2099 1.524 . S
C2101 C2098 1.403 1_545 S
C2101 C2102 1.392 . S
C2101 C2105 1.495 . S
C2102 C2101 1.392 . S
C2102 C2103 1.385 . S
C2102 C2104 1.478 . S
C2103 H2097 0.930 . S
C2103 C2099 1.400 1_545 S
C2103 C2102 1.385 . S
C2104 C2102 1.478 . S
C2104 C2106 1.381 . S
C2104 C2110 1.383 . S
C2105 C2101 1.495 . S
C2105 H2111 0.959 . S
C2105 H2112 0.961 . S
C2105 H2113 0.960 . S
C2106 C2104 1.381 . S
C2106 C2107 1.394 . S
C2106 H2114 0.930 . S
C2107 C2106 1.394 . S
C2107 C2108 1.383 . S
C2107 H2115 0.929 . S
C2108 C2107 1.383 . S
C2108 C2109 1.377 . S
C2109 H2093 0.930 . S
C2109 C2108 1.377 . S
C2109 C2110 1.379 . S
C2110 H2094 0.931 . S
C2110 C2104 1.383 . S
C2110 C2109 1.379 . S
H2111 C2105 0.959 . S
H2112 C2105 0.961 . S
H2113 C2105 0.960 . S
H2114 C2106 0.930 . S
H2115 C2107 0.929 . S
H2116 C2124 0.929 . S
H2117 C2126 0.930 . S
H2118 C2128 0.930 . S
H2119 C2131 0.929 . S
H2120 C2134 0.930 . S
H2121 C2136 0.960 . S
H2122 C2136 0.960 . S
H2123 C2136 0.960 . S
C2124 H2116 0.929 . S
C2124 C2125 1.377 . S
C2124 C2126 1.384 . S
C2125 C2124 1.377 . S
C2125 C2131 1.390 . S
C2126 H2117 0.930 . S
C2126 C2124 1.384 . S
C2126 C2127 1.372 . S
C2127 C2126 1.372 . S
C2127 C2128 1.400 . S
C2127 C2132 1.490 . S
C2128 H2118 0.930 . S
C2128 C2127 1.400 . S
C2128 C2131 1.386 . S
H2129 C2145 0.930 . S
H2130 C2146 0.931 . S
C2131 H2119 0.929 . S
C2131 C2125 1.390 . S
C2131 C2128 1.386 . S
C2132 C2127 1.490 . S
C2132 C2134 1.395 . S
C2132 C2135 1.403 . S
H2133 C2139 0.930 . S
C2134 H2120 0.930 . S
C2134 C2132 1.395 . S
C2134 C2137 1.403 . S
C2135 C2132 1.403 . S
C2135 C2136 1.524 . S
C2135 C2139 1.400 . S
C2136 H2121 0.960 . S
C2136 H2122 0.960 . S
C2136 H2123 0.960 . S
C2136 C2135 1.524 . S
C2137 C2134 1.403 . S
C2137 C2138 1.392 . S
C2137 C2141 1.495 . S
C2138 C2137 1.392 . S
C2138 C2139 1.385 . S
C2138 C2140 1.478 . S
C2139 H2133 0.930 . S
C2139 C2135 1.400 . S
C2139 C2138 1.385 . S
C2140 C2138 1.478 . S
C2140 C2142 1.381 . S
C2140 C2146 1.383 . S
C2141 C2137 1.495 . S
C2141 H2147 0.959 . S
C2141 H2148 0.961 . S
C2141 H2149 0.960 . S
C2142 C2140 1.381 . S
C2142 C2143 1.394 . S
C2142 H2150 0.930 . S
C2143 C2142 1.394 . S
C2143 C2144 1.383 . S
C2143 H2151 0.929 . S
C2144 C2143 1.383 . S
C2144 C2145 1.377 . S
C2145 H2129 0.930 . S
C2145 C2144 1.377 . S
C2145 C2146 1.379 . S
C2146 H2130 0.931 . S
C2146 C2140 1.383 . S
C2146 C2145 1.379 . S
H2147 C2141 0.959 . S
H2148 C2141 0.961 . S
H2149 C2141 0.960 . S
H2150 C2142 0.930 . S
H2151 C2143 0.929 . S
H2152 C2160 0.929 . S
H2153 C2162 0.930 . S
H2154 C2164 0.930 1_556 S
H2155 C2167 0.929 . S
H2156 C2170 0.927 . S
H2157 C2172 0.960 . S
H2158 C2172 0.960 . S
H2159 C2172 0.960 . S
C2160 H2152 0.929 . S
C2160 C2161 1.377 . S
C2160 C2162 1.384 . S
C2161 C2160 1.377 . S
C2161 C2167 1.390 . S
C2162 H2153 0.930 . S
C2162 C2160 1.384 . S
C2162 C2163 1.372 . S
C2163 C2162 1.372 . S
C2163 C2164 1.400 . S
C2163 C2168 1.490 . S
C2164 H2154 0.930 1_554 S
C2164 C2163 1.400 . S
C2164 C2167 1.386 . S
H2165 C2181 0.930 . S
H2166 C2182 0.931 . S
C2167 H2155 0.929 . S
C2167 C2161 1.390 . S
C2167 C2164 1.386 . S
C2168 C2163 1.490 . S
C2168 C2170 1.354 1_565 S
C2168 C2171 1.403 1_554 S
H2169 C2175 0.930 . S
C2170 H2156 0.927 . S
C2170 C2168 1.354 1_545 S
C2170 C2173 1.455 . S
C2171 C2168 1.403 1_556 S
C2171 C2172 1.524 . S
C2171 C2175 1.400 1_565 S
C2172 H2157 0.960 . S
C2172 H2158 0.960 . S
C2172 H2159 0.960 . S
C2172 C2171 1.524 . S
C2173 C2170 1.455 . S
C2173 C2174 1.392 1_554 S
C2173 C2177 1.495 . S
C2174 C2173 1.392 1_556 S
C2174 C2175 1.385 . S
C2174 C2176 1.478 . S
C2175 H2169 0.930 . S
C2175 C2171 1.400 1_545 S
C2175 C2174 1.385 . S
C2176 C2174 1.478 . S
C2176 C2178 1.381 . S
C2176 C2182 1.383 . S
C2177 C2173 1.495 . S
C2177 H2183 0.959 . S
C2177 H2184 0.961 . S
C2177 H2185 0.960 . S
C2178 C2176 1.381 . S
C2178 C2179 1.394 . S
C2178 H2186 0.930 1_556 S
C2179 C2178 1.394 . S
C2179 C2180 1.383 . S
C2179 H2187 0.929 . S
C2180 C2179 1.383 . S
C2180 C2181 1.377 . S
C2181 H2165 0.930 . S
C2181 C2180 1.377 . S
C2181 C2182 1.379 . S
C2182 H2166 0.931 . S
C2182 C2176 1.383 . S
C2182 C2181 1.379 . S
H2183 C2177 0.959 . S
H2184 C2177 0.961 . S
H2185 C2177 0.960 . S
H2186 C2178 0.930 1_554 S
H2187 C2179 0.929 . S
H2188 C2196 0.929 . S
H2189 C2198 0.930 . S
H2190 C2200 0.930 . S
H2191 C2203 0.929 . S
H2192 C2206 0.930 . S
H2193 C2208 0.960 . S
H2194 C2208 0.960 . S
H2195 C2208 0.960 . S
C2196 H2188 0.929 . S
C2196 C2197 1.377 . S
C2196 C2198 1.384 . S
C2197 C2196 1.377 . S
C2197 C2203 1.390 . S
C2198 H2189 0.930 . S
C2198 C2196 1.384 . S
C2198 C2199 1.372 . S
C2199 C2198 1.372 . S
C2199 C2200 1.400 . S
C2199 C2204 1.490 . S
C2200 H2190 0.930 . S
C2200 C2199 1.400 . S
C2200 C2203 1.386 . S
H2201 C2217 0.930 . S
H2202 C2218 0.931 . S
C2203 H2191 0.929 . S
C2203 C2197 1.390 . S
C2203 C2200 1.386 . S
C2204 C2199 1.490 . S
C2204 C2206 1.395 . S
C2204 C2207 1.403 . S
H2205 C2211 0.930 . S
C2206 H2192 0.930 . S
C2206 C2204 1.395 . S
C2206 C2209 1.403 . S
C2207 C2204 1.403 . S
C2207 C2208 1.524 . S
C2207 C2211 1.400 . S
C2208 H2193 0.960 . S
C2208 H2194 0.960 . S
C2208 H2195 0.960 . S
C2208 C2207 1.524 . S
C2209 C2206 1.403 . S
C2209 C2210 1.392 . S
C2209 C2213 1.495 . S
C2210 C2209 1.392 . S
C2210 C2211 1.385 . S
C2210 C2212 1.478 . S
C2211 H2205 0.930 . S
C2211 C2207 1.400 . S
C2211 C2210 1.385 . S
C2212 C2210 1.478 . S
C2212 C2214 1.381 . S
C2212 C2218 1.383 . S
C2213 C2209 1.495 . S
C2213 H2219 0.959 . S
C2213 H2220 0.961 . S
C2213 H2221 0.960 . S
C2214 C2212 1.381 . S
C2214 C2215 1.394 . S
C2214 H2222 0.930 . S
C2215 C2214 1.394 . S
C2215 C2216 1.383 . S
C2215 H2223 0.929 . S
C2216 C2215 1.383 . S
C2216 C2217 1.377 . S
C2217 H2201 0.930 . S
C2217 C2216 1.377 . S
C2217 C2218 1.379 . S
C2218 H2202 0.931 . S
C2218 C2212 1.383 . S
C2218 C2217 1.379 . S
H2219 C2213 0.959 . S
H2220 C2213 0.961 . S
H2221 C2213 0.960 . S
H2222 C2214 0.930 . S
H2223 C2215 0.929 . S
H2224 C2232 0.929 . S
H2225 C2234 0.930 . S
H2226 C2236 0.930 . S
H2227 C2239 0.929 . S
H2228 C2242 0.930 . S
H2229 C2244 0.960 . S
H2230 C2244 0.960 . S
H2231 C2244 0.960 . S
C2232 H2224 0.929 . S
C2232 C2233 1.377 . S
C2232 C2234 1.384 . S
C2233 C2232 1.377 . S
C2233 C2239 1.390 . S
C2234 H2225 0.930 . S
C2234 C2232 1.384 . S
C2234 C2235 1.372 . S
C2235 C2234 1.372 . S
C2235 C2236 1.400 . S
C2235 C2240 1.490 . S
C2236 H2226 0.930 . S
C2236 C2235 1.400 . S
C2236 C2239 1.386 . S
H2237 C2253 0.930 . S
H2238 C2254 0.931 . S
C2239 H2227 0.929 . S
C2239 C2233 1.390 . S
C2239 C2236 1.386 . S
C2240 C2235 1.490 . S
C2240 C2242 1.395 . S
C2240 C2243 1.403 . S
H2241 C2247 0.930 . S
C2242 H2228 0.930 . S
C2242 C2240 1.395 . S
C2242 C2245 1.403 1_565 S
C2243 C2240 1.403 . S
C2243 C2244 1.524 . S
C2243 C2247 1.400 1_565 S
C2244 H2229 0.960 . S
C2244 H2230 0.960 . S
C2244 H2231 0.960 . S
C2244 C2243 1.524 . S
C2245 C2242 1.403 1_545 S
C2245 C2246 1.392 . S
C2245 C2249 1.495 . S
C2246 C2245 1.392 . S
C2246 C2247 1.385 . S
C2246 C2248 1.478 . S
C2247 H2241 0.930 . S
C2247 C2243 1.400 1_545 S
C2247 C2246 1.385 . S
C2248 C2246 1.478 . S
C2248 C2250 1.381 . S
C2248 C2254 1.383 . S
C2249 C2245 1.495 . S
C2249 H2255 0.959 . S
C2249 H2256 0.961 . S
C2249 H2257 0.960 . S
C2250 C2248 1.381 . S
C2250 C2251 1.394 . S
C2250 H2258 0.930 . S
C2251 C2250 1.394 . S
C2251 C2252 1.383 . S
C2251 H2259 0.929 . S
C2252 C2251 1.383 . S
C2252 C2253 1.377 . S
C2253 H2237 0.930 . S
C2253 C2252 1.377 . S
C2253 C2254 1.379 . S
C2254 H2238 0.931 . S
C2254 C2248 1.383 . S
C2254 C2253 1.379 . S
H2255 C2249 0.959 . S
H2256 C2249 0.961 . S
H2257 C2249 0.960 . S
H2258 C2250 0.930 . S
H2259 C2251 0.929 . S
H2260 C2268 0.929 . S
H2261 C2270 0.930 . S
H2262 C2272 0.930 . S
H2263 C2275 0.929 . S
H2264 C2278 0.930 . S
H2265 C2280 0.960 . S
H2266 C2280 0.960 . S
H2267 C2280 0.960 . S
C2268 H2260 0.929 . S
C2268 C2269 1.377 . S
C2268 C2270 1.384 . S
C2269 C2268 1.377 . S
C2269 C2275 1.390 . S
C2270 H2261 0.930 . S
C2270 C2268 1.384 . S
C2270 C2271 1.372 . S
C2271 C2270 1.372 . S
C2271 C2272 1.400 . S
C2271 C2276 1.490 . S
C2272 H2262 0.930 . S
C2272 C2271 1.400 . S
C2272 C2275 1.386 . S
H2273 C2289 0.930 . S
H2274 C2290 0.931 . S
C2275 H2263 0.929 . S
C2275 C2269 1.390 . S
C2275 C2272 1.386 . S
C2276 C2271 1.490 . S
C2276 C2278 1.395 . S
C2276 C2279 1.403 . S
H2277 C2283 0.930 . S
C2278 H2264 0.930 . S
C2278 C2276 1.395 . S
C2278 C2281 1.403 . S
C2279 C2276 1.403 . S
C2279 C2280 1.524 . S
C2279 C2283 1.400 . S
C2280 H2265 0.960 . S
C2280 H2266 0.960 . S
C2280 H2267 0.960 . S
C2280 C2279 1.524 . S
C2281 C2278 1.403 . S
C2281 C2282 1.392 . S
C2281 C2285 1.495 . S
C2282 C2281 1.392 . S
C2282 C2283 1.385 . S
C2282 C2284 1.478 . S
C2283 H2277 0.930 . S
C2283 C2279 1.400 . S
C2283 C2282 1.385 . S
C2284 C2282 1.478 . S
C2284 C2286 1.381 . S
C2284 C2290 1.383 . S
C2285 C2281 1.495 . S
C2285 H2291 0.959 . S
C2285 H2292 0.961 . S
C2285 H2293 0.960 . S
C2286 C2284 1.381 . S
C2286 C2287 1.394 . S
C2286 H2294 0.930 . S
C2287 C2286 1.394 . S
C2287 C2288 1.383 . S
C2287 H2295 0.929 . S
C2288 C2287 1.383 . S
C2288 C2289 1.377 . S
C2289 H2273 0.930 . S
C2289 C2288 1.377 . S
C2289 C2290 1.379 . S
C2290 H2274 0.931 . S
C2290 C2284 1.383 . S
C2290 C2289 1.379 . S
H2291 C2285 0.959 . S
H2292 C2285 0.961 . S
H2293 C2285 0.960 . S
H2294 C2286 0.930 . S
H2295 C2287 0.929 . S
H2296 C2304 0.929 . S
H2297 C2306 0.930 1_554 S
H2298 C2308 0.930 . S
H2299 C2311 0.929 . S
H2300 C2314 0.930 . S
H2301 C2316 0.960 1_565 S
H2302 C2316 0.960 . S
H2303 C2316 0.960 . S
C2304 H2296 0.929 . S
C2304 C2305 1.377 . S
C2304 C2306 1.384 . S
C2305 C2304 1.377 . S
C2305 C2311 1.390 . S
C2306 H2297 0.930 1_556 S
C2306 C2304 1.384 . S
C2306 C2307 1.372 . S
C2307 C2306 1.372 . S
C2307 C2308 1.400 . S
C2307 C2312 1.490 . S
C2308 H2298 0.930 . S
C2308 C2307 1.400 . S
C2308 C2311 1.386 . S
H2309 C2325 0.930 . S
H2310 C2326 0.931 1_556 S
C2311 H2299 0.929 . S
C2311 C2305 1.390 . S
C2311 C2308 1.386 . S
C2312 C2307 1.490 . S
C2312 C2314 1.395 1_556 S
C2312 C2315 1.403 . S
H2313 C2319 0.930 . S
C2314 H2300 0.930 . S
C2314 C2312 1.395 1_554 S
C2314 C2317 1.403 1_545 S
C2315 C2312 1.403 . S
C2315 C2316 1.524 . S
C2315 C2319 1.400 1_545 S
C2316 H2301 0.960 1_545 S
C2316 H2302 0.960 . S
C2316 H2303 0.960 . S
C2316 C2315 1.524 . S
C2317 C2314 1.403 1_565 S
C2317 C2318 1.392 . S
C2317 C2321 1.495 . S
C2318 C2317 1.392 . S
C2318 C2319 1.385 1_554 S
C2318 C2320 1.478 . S
C2319 H2313 0.930 . S
C2319 C2315 1.400 1_565 S
C2319 C2318 1.385 1_556 S
C2320 C2318 1.478 . S
C2320 C2322 1.381 . S
C2320 C2326 1.383 . S
C2321 C2317 1.495 . S
C2321 H2327 0.959 1_565 S
C2321 H2328 0.961 . S
C2321 H2329 0.960 . S
C2322 C2320 1.381 . S
C2322 C2323 1.394 . S
C2322 H2330 0.930 . S
C2323 C2322 1.394 . S
C2323 C2324 1.383 . S
C2323 H2331 0.929 . S
C2324 C2323 1.383 . S
C2324 C2325 1.377 . S
C2325 H2309 0.930 . S
C2325 C2324 1.377 . S
C2325 C2326 1.379 . S
C2326 H2310 0.931 1_554 S
C2326 C2320 1.383 . S
C2326 C2325 1.379 . S
H2327 C2321 0.959 1_545 S
H2328 C2321 0.961 . S
H2329 C2321 0.960 . S
H2330 C2322 0.930 . S
H2331 C2323 0.929 . S
H2332 C2340 0.929 . S
H2333 C2342 0.930 . S
H2334 C2344 0.930 . S
H2335 C2347 0.929 . S
H2336 C2350 0.930 . S
H2337 C2352 0.960 . S
H2338 C2352 0.960 . S
H2339 C2352 0.960 . S
C2340 H2332 0.929 . S
C2340 C2341 1.377 . S
C2340 C2342 1.384 . S
C2341 C2340 1.377 . S
C2341 C2347 1.390 . S
C2342 H2333 0.930 . S
C2342 C2340 1.384 . S
C2342 C2343 1.372 . S
C2343 C2342 1.372 . S
C2343 C2344 1.400 . S
C2343 C2348 1.490 . S
C2344 H2334 0.930 . S
C2344 C2343 1.400 . S
C2344 C2347 1.386 . S
H2345 C2361 0.930 . S
H2346 C2362 0.931 . S
C2347 H2335 0.929 . S
C2347 C2341 1.390 . S
C2347 C2344 1.386 . S
C2348 C2343 1.490 . S
C2348 C2350 1.395 . S
C2348 C2351 1.403 . S
H2349 C2355 0.930 . S
C2350 H2336 0.930 . S
C2350 C2348 1.395 . S
C2350 C2353 1.403 . S
C2351 C2348 1.403 . S
C2351 C2352 1.524 . S
C2351 C2355 1.400 . S
C2352 H2337 0.960 . S
C2352 H2338 0.960 . S
C2352 H2339 0.960 . S
C2352 C2351 1.524 . S
C2353 C2350 1.403 . S
C2353 C2354 1.392 . S
C2353 C2357 1.495 . S
C2354 C2353 1.392 . S
C2354 C2355 1.385 . S
C2354 C2356 1.478 . S
C2355 H2349 0.930 . S
C2355 C2351 1.400 . S
C2355 C2354 1.385 . S
C2356 C2354 1.478 . S
C2356 C2358 1.381 . S
C2356 C2362 1.383 . S
C2357 C2353 1.495 . S
C2357 H2363 0.959 . S
C2357 H2364 0.961 . S
C2357 H2365 0.960 . S
C2358 C2356 1.381 . S
C2358 C2359 1.394 . S
C2358 H2366 0.930 . S
C2359 C2358 1.394 . S
C2359 C2360 1.383 . S
C2359 H2367 0.929 . S
C2360 C2359 1.383 . S
C2360 C2361 1.377 . S
C2361 H2345 0.930 . S
C2361 C2360 1.377 . S
C2361 C2362 1.379 . S
C2362 H2346 0.931 . S
C2362 C2356 1.383 . S
C2362 C2361 1.379 . S
H2363 C2357 0.959 . S
H2364 C2357 0.961 . S
H2365 C2357 0.960 . S
H2366 C2358 0.930 . S
H2367 C2359 0.929 . S
C649 C7 1.894 . S
C668 C16 1.909 . S
C685 C56 1.841 . S
C704 C47 1.817 . S
C721 C87 1.796 . S
C740 C96 1.808 . S
C757 C127 1.588 . S
C776 C136 1.596 . S
C793 C167 1.823 . S
C812 C176 1.800 . S
C829 C216 1.585 . S
C848 C207 1.568 . S
C865 C256 1.576 . S
C884 C247 1.557 . S
C901 C296 1.901 . S
C920 C287 1.906 . S
C937 C336 1.809 . S
C956 C327 1.786 . S
C973 C376 1.805 . S
C992 C367 1.785 . S
C1009 C416 1.647 . S
C1028 C407 1.634 . S
C1045 C456 1.560 . S
C1064 C447 1.572 . S
C1081 C496 1.866 . S
C1100 C487 1.881 . S
C1117 C536 1.642 . S
C1136 C527 1.628 . S
C1153 C567 1.596 . S
C1172 C576 1.584 . S
C1189 C607 1.988 . S
C1208 C616 2.000 . S
C1225 C10 1.625 . S
C1244 C451 1.711 . S
C1261 C42 1.670 . S
C1280 C611 1.629 . S
C1297 C90 1.641 . S
C1316 C379 1.570 . S
C1333 C130 1.776 . S
C1352 C539 1.752 . S
C1369 C170 1.686 . S
C1388 C531 1.730 . S
C1405 C459 1.746 . S
C1424 C210 1.744 . S
C1441 C242 1.674 . S
C1460 C619 1.591 . S
C1477 C282 1.785 . S
C1496 C371 1.785 . S
C1513 C122 1.730 . S
C1532 C339 1.660 . S
C1549 C50 1.646 . S
C1568 C411 1.707 . S
C1585 C499 1.679 . S
C1604 C202 1.759 . S
C1621 C290 1.572 . S
C1640 C571 1.654 . S
C1657 C331 1.790 . S
C1676 C162 1.743 . S
C1693 C250 1.768 . S
C1712 C419 1.842 . S
C1729 C82 1.903 . S
C1748 C579 1.890 . S
C1765 C2 1.700 . S
C1784 C491 1.684 . S
C1801 C19 1.269 . S
C1820 C179 1.271 . S
C1837 C51 1.712 . S
C1856 C219 1.701 . S
C1873 C99 2.059 . S
C1892 C251 2.060 . S
C1909 C139 1.691 . S
C1928 C291 1.688 . S
C1945 C490 1.368 . S
C1964 C330 1.372 . S
C1981 C530 1.943 . S
C2000 C362 1.944 . S
C2017 C402 1.891 . S
C2036 C562 1.893 . S
C2053 C602 1.566 . S
C2072 C450 1.569 . S
C2089 C59 1.247 . S
C2108 C299 1.252 . S
C2125 C171 1.782 . S
C2144 C91 1.779 . S
C2161 C211 2.077 . S
C2180 C131 2.075 . S
C2197 C11 1.683 . S
C2216 C259 1.678 . S
C2233 C610 1.205 . S
C2252 C370 1.212 . S
C2269 C482 1.693 . S
C2288 C410 1.680 . S
C2305 C522 2.092 . S
C2324 C442 2.093 . S
C2341 C570 1.770 . S
C2360 C322 1.765 . S
