# Generated by pormake.
# Topology rkf, (6)-cn, num edge types: 1
# Building blocks:
#     Node 0, Type 0, BuildingBlock: BETFEN_clean_sbu_0, # of connection points: 6
#     Node 1, Type 0, BuildingBlock: BETFEN_clean_sbu_0, # of connection points: 6
#     Node 2, Type 0, BuildingBlock: BETFEN_clean_sbu_0, # of connection points: 6
#     Node 3, Type 0, BuildingBlock: BETFEN_clean_sbu_0, # of connection points: 6
#     Node 4, Type 0, BuildingBlock: BETFEN_clean_sbu_0, # of connection points: 6
#     Node 5, Type 0, BuildingBlock: BETFEN_clean_sbu_0, # of connection points: 6
#     Edge 6, Type (0, 0), BuildingBlock: AJUNOK_clean_linker_0, # of connection points: 2
#     Edge 7, Type (0, 0), BuildingBlock: AJUNOK_clean_linker_0, # of connection points: 2
#     Edge 8, Type (0, 0), BuildingBlock: AJUNOK_clean_linker_0, # of connection points: 2
#     Edge 9, Type (0, 0), BuildingBlock: AJUNOK_clean_linker_0, # of connection points: 2
#     Edge 10, Type (0, 0), BuildingBlock: AJUNOK_clean_linker_0, # of connection points: 2
#     Edge 11, Type (0, 0), BuildingBlock: AJUNOK_clean_linker_0, # of connection points: 2
#     Edge 12, Type (0, 0), BuildingBlock: AJUNOK_clean_linker_0, # of connection points: 2
#     Edge 13, Type (0, 0), BuildingBlock: AJUNOK_clean_linker_0, # of connection points: 2
#     Edge 14, Type (0, 0), BuildingBlock: AJUNOK_clean_linker_0, # of connection points: 2
#     Edge 15, Type (0, 0), BuildingBlock: AJUNOK_clean_linker_0, # of connection points: 2
#     Edge 16, Type (0, 0), BuildingBlock: AJUNOK_clean_linker_0, # of connection points: 2
#     Edge 17, Type (0, 0), BuildingBlock: AJUNOK_clean_linker_0, # of connection points: 2
#     Edge 18, Type (0, 0), BuildingBlock: AJUNOK_clean_linker_0, # of connection points: 2
#     Edge 19, Type (0, 0), BuildingBlock: AJUNOK_clean_linker_0, # of connection points: 2
#     Edge 20, Type (0, 0), BuildingBlock: AJUNOK_clean_linker_0, # of connection points: 2
#     Edge 21, Type (0, 0), BuildingBlock: AJUNOK_clean_linker_0, # of connection points: 2
#     Edge 22, Type (0, 0), BuildingBlock: AJUNOK_clean_linker_0, # of connection points: 2
#     Edge 23, Type (0, 0), BuildingBlock: AJUNOK_clean_linker_0, # of connection points: 2
# Relax obj value: 1.034
# Max RMSD: 0.249
# Mean RMSD: 0.249
data_MOF--net-rkf--node1-BETFEN_clean_sbu_0--edge1-AJUNOK_clean_linker_0
_symmetry_space_group_name_H-M    P1
_symmetry_Int_Tables_number       1
_symmetry_cell_setting            triclinic
loop_
_symmetry_equiv_pos_as_xyz
'x, y, z'
_cell_length_a     20.031609
_cell_length_b     20.127202
_cell_length_c     32.209545
_cell_angle_alpha  89.226061
_cell_angle_beta   88.840647
_cell_angle_gamma 119.44451
loop_
_atom_site_label
_atom_site_type_symbol
_atom_site_fract_x
_atom_site_fract_y
_atom_site_fract_z
_atom_type_partial_charge
Pr0 Pr 0.23667 -0.00289 0.26531 0.0
Pr1 Pr 0.34994 0.13373 1.23187 0.0
C2 C 0.15337 0.84518 0.27831 0.0
C3 C 0.16325 0.78892 0.3021 0.0
C4 C 0.0993 0.71852 0.31281 0.0
C5 C 0.10406 0.67392 0.34479 0.0
C6 C 0.17226 0.70099 0.36661 0.0
C7 C 0.23922 0.76503 0.35114 0.0
C8 C 0.23456 0.80951 0.31908 0.0
C9 C 0.17927 0.09737 0.25406 0.0
C10 C 0.29955 0.12602 0.33282 0.0
C11 C 0.45924 0.27996 1.21858 0.0
C12 C 0.45852 0.35203 1.22149 0.0
C13 C 0.49741 0.40753 1.19033 0.0
C14 C 0.47436 0.46078 1.18131 0.0
C15 C 0.41285 0.45985 1.20365 0.0
C16 C 0.38294 0.41245 1.23936 0.0
C17 C 0.40484 0.3577 0.24789 0.0
C18 C 0.39924 0.02611 1.23559 0.0
C19 C 0.23991 0.01703 1.16201 0.0
O20 O 0.20192 0.87716 0.24712 0.0
O21 O 0.14291 0.89382 0.30018 0.0
O22 O 0.22184 0.0889 1.22808 0.0
O23 O 0.15926 0.04841 0.28478 0.0
O24 O 0.32076 0.16776 0.29805 0.0
O25 O 0.27415 0.05212 0.33067 0.0
O26 O 0.45148 0.24256 0.25336 0.0
O27 O 0.41747 0.23622 1.18913 0.0
O28 O 0.36663 0.04009 0.26559 0.0
O29 O 0.40511 0.06676 1.20303 0.0
O30 O 0.21434 -0.0294 1.19463 0.0
O31 O 0.29128 0.08963 1.16696 0.0
H32 H 0.04423 0.70174 0.29939 0.0
H33 H 0.0517 0.62474 0.35651 0.0
H34 H 0.29203 0.78683 0.36783 0.0
H35 H 0.28468 0.86362 0.31055 0.0
H36 H 0.53843 0.40351 1.16956 0.0
H37 H 0.49697 0.49485 1.15307 0.0
H38 H 0.33588 0.41098 0.25732 0.0
H39 H 0.3741 0.3152 0.27227 0.0
Pr40 Pr 0.31851 0.29782 0.58981 0.0
Pr41 Pr 0.19627 0.32291 0.56071 0.0
C42 C 0.46103 0.31903 0.59893 0.0
C43 C 0.52255 0.35045 0.62904 0.0
C44 C 0.54258 0.30065 0.64865 0.0
C45 C 0.58257 0.32129 0.68527 0.0
C46 C 0.60344 0.39247 0.70288 0.0
C47 C 0.59607 0.44727 0.67881 0.0
C48 C 0.55436 0.4259 0.64242 0.0
C49 C 0.18727 0.15906 0.58365 0.0
C50 C 0.20052 0.29608 0.66295 0.0
C51 C 0.07726 0.34809 0.55419 0.0
C52 C 0.00838 0.34778 0.53961 0.0
C53 C 0.00686 0.37621 0.49992 0.0
C54 C -0.06041 0.37232 0.4862 0.0
C55 C 0.87287 0.33865 0.51171 0.0
C56 C 0.87567 0.31483 0.55232 0.0
C57 C -0.05654 0.32006 0.56635 0.0
C58 C 0.33751 0.45543 0.56781 0.0
C59 C 0.27326 0.27041 0.48692 0.0
O60 O 0.44696 0.36711 0.57838 0.0
O61 O 0.39874 0.25671 0.6112 0.0
O62 O 0.20755 0.21431 0.55811 0.0
O63 O 0.23461 0.17537 0.61386 0.0
O64 O 0.15837 0.28911 0.6308 0.0
O65 O 0.27189 0.30944 0.65668 0.0
O66 O 0.07199 0.28957 0.57519 0.0
O67 O 0.14266 0.3888 0.53394 0.0
O68 O 0.30595 0.40302 0.59501 0.0
O69 O 0.2974 0.4386 0.53473 0.0
O70 O 0.32628 0.28748 0.51533 0.0
O71 O 0.20971 0.272 0.49738 0.0
H72 H 0.5206 0.24289 0.63804 0.0
H73 H 0.58807 0.27736 0.70207 0.0
H74 H 0.61537 0.50403 0.69017 0.0
H75 H 0.54221 0.46649 0.62677 0.0
H76 H 0.05647 0.39848 0.4789 0.0
H77 H -0.06231 0.38927 0.45435 0.0
H78 H 0.82415 0.28698 0.57193 0.0
H79 H -0.05583 0.29924 0.59745 0.0
Pr80 Pr 0.06927 0.29994 0.93115 0.0
Pr81 Pr -0.06685 0.27409 0.89903 0.0
C82 C 0.21711 0.36863 0.9511 0.0
C83 C 0.25405 0.42321 0.98369 0.0
C84 C 0.32317 0.43457 0.99953 0.0
C85 C 0.34798 0.47166 1.03699 0.0
C86 C 0.30309 0.49643 1.05891 0.0
C87 C 0.23772 0.49123 1.04101 0.0
C88 C 0.21344 0.45499 1.00337 0.0
C89 C -0.02591 0.14327 0.92062 0.0
C90 C -0.06325 0.24028 1.00053 0.0
C91 C 0.78794 0.24311 0.88581 0.0
C92 C 0.71286 0.1784 0.8766 0.0
C93 C 0.67995 0.18155 0.83937 0.0
C94 C 0.62281 0.11511 0.82269 0.0
C95 C 0.59976 0.04397 0.84253 0.0
C96 C 0.62194 0.04312 0.88367 0.0
C97 C 0.67965 0.11005 0.9004 0.0
C98 C 0.03791 0.42917 0.90379 0.0
C99 C 0.05728 0.28453 0.82808 0.0
O100 O 0.1919 0.39326 0.92084 0.0
O101 O 0.16731 0.29983 0.96462 0.0
O102 O -0.01716 0.19376 0.89428 0.0
O103 O 0.01574 0.17311 0.95265 0.0
O104 O 0.89715 0.21296 0.9666 0.0
O105 O 0.00959 0.29187 0.99606 0.0
O106 O 0.81427 0.245 0.92271 0.0
O107 O 0.84063 0.26353 0.85638 0.0
O108 O 0.02098 0.38141 0.93328 0.0
O109 O 0.00176 0.39731 0.87085 0.0
O110 O 0.10292 0.31305 0.8596 0.0
O111 O -0.0177 0.25492 0.83483 0.0
H112 H 0.35464 0.40987 0.98471 0.0
H113 H 0.3978 0.47384 1.05094 0.0
H114 H 0.20191 0.50878 1.05789 0.0
H115 H 0.15958 0.44622 0.9914 0.0
H116 H 0.7049 0.23391 0.82074 0.0
H117 H 0.60713 0.11925 0.79119 0.0
H118 H 0.60358 -0.0106 0.90021 0.0
H119 H 0.70309 0.10657 0.92984 0.0
Pr120 Pr 0.77675 0.10522 0.26666 0.0
Pr121 Pr 0.78571 -0.03746 1.23802 0.0
C122 C 0.72541 0.20251 0.28453 0.0
C123 C 0.6788 0.21849 0.31388 0.0
C124 C 0.70605 0.29443 0.32469 0.0
C125 C 0.68801 0.3103 0.36398 0.0
C126 C 0.64519 0.24969 0.39248 0.0
C127 C 0.59969 0.1764 0.37682 0.0
C128 C 0.61971 0.15984 0.33806 0.0
C129 C -0.07627 0.13559 0.24546 0.0
C130 C 0.79666 -0.00474 0.33936 0.0
C131 C 0.79959 0.83723 1.23063 0.0
C132 C 0.76034 0.76305 1.21108 0.0
C133 C 0.67993 0.72164 1.20991 0.0
C134 C 0.64395 0.65476 1.18755 0.0
C135 C 0.68792 0.62941 1.16553 0.0
C136 C 0.76812 0.66839 1.16922 0.0
C137 C 0.80401 0.73469 1.19191 0.0
C138 C 0.63977 -0.0504 1.23846 0.0
C139 C 0.81676 0.09195 1.16579 0.0
O140 O 0.68971 0.14499 0.25977 0.0
O141 O 0.78895 0.20865 0.29919 0.0
O142 O 0.87296 0.07633 0.26393 0.0
O143 O 0.90401 0.18793 1.24269 0.0
O144 O 0.81652 -0.03288 0.30779 0.0
O145 O 0.77235 0.04563 0.33303 0.0
O146 O 0.83631 0.89726 1.20571 0.0
O147 O 0.76198 0.8472 0.26129 0.0
O148 O 0.68896 -0.02119 0.26566 0.0
O149 O 0.66471 0.92389 1.20873 0.0
O150 O 0.78269 0.11668 1.19237 0.0
O151 O 0.83211 0.03762 1.17703 0.0
H152 H 0.74982 0.34071 0.30558 0.0
H153 H 0.72066 0.36837 0.37439 0.0
H154 H 0.56283 0.12923 0.39775 0.0
H155 H 0.59697 0.10091 0.32993 0.0
H156 H 0.64506 0.74237 1.22491 0.0
H157 H 0.58229 0.62524 1.18573 0.0
H158 H 0.80373 0.65074 1.15219 0.0
H159 H 0.86606 0.7657 1.19288 0.0
Pr160 Pr 0.82953 0.80905 0.58653 0.0
Pr161 Pr 0.81994 0.74815 0.57662 0.0
C162 C 0.8227 0.9353 0.60783 0.0
C163 C 0.7725 -0.05785 0.63915 0.0
C164 C 0.80425 -0.00355 0.66996 0.0
C165 C 0.75832 -0.00497 0.70342 0.0
C166 C 0.68017 0.93948 0.70629 0.0
C167 C 0.64759 0.88744 0.67459 0.0
C168 C 0.69351 0.88843 0.64131 0.0
C169 C -0.01877 0.85317 0.55447 0.0
C170 C 0.91162 0.82159 0.6677 0.0
C171 C 0.85219 0.63162 0.57754 0.0
C172 C 0.91342 0.61537 0.56514 0.0
C173 C 0.90008 0.56338 0.53369 0.0
C174 C -0.03843 0.56148 0.51403 0.0
C175 C 0.03678 0.61218 0.52563 0.0
C176 C 0.04853 0.65353 0.56204 0.0
C177 C -0.0129 0.65618 0.58142 0.0
C178 C 0.66222 0.67178 0.57137 0.0
C179 C 0.77528 0.83745 0.49953 0.0
O180 O 0.78815 0.89423 0.57649 0.0
O181 O 0.87398 0.91996 0.62186 0.0
O182 O -0.07826 0.83646 0.53568 0.0
O183 O -0.04112 0.83078 0.59228 0.0
O184 O 0.84501 0.77074 0.65215 0.0
O185 O 0.84586 0.77123 0.6528 0.0
O186 O 0.86644 0.67802 0.60779 0.0
O187 O 0.81593 0.64376 0.54791 0.0
O188 O 0.69945 0.7159 0.59998 0.0
O189 O 0.70758 0.6701 0.5431 0.0
O190 O 0.82358 0.81679 0.51328 0.0
O191 O 0.82546 0.81675 0.51256 0.0
H192 H 0.86491 0.03793 0.66895 0.0
H193 H 0.78411 0.03633 0.72758 0.0
H194 H 0.58752 0.84432 0.67639 0.0
H195 H 0.66753 0.8452 0.61813 0.0
H196 H 0.84324 0.53 0.52159 0.0
H197 H -0.04907 0.52855 0.48619 0.0
H198 H 0.10617 0.69216 0.57177 0.0
H199 H -0.00132 0.69515 0.60661 0.0
Pr200 Pr 0.03109 0.76242 0.92623 0.0
Pr201 Pr 0.17835 0.89424 0.89714 0.0
C202 C 0.91159 0.61991 0.93876 0.0
C203 C 0.83797 0.58967 0.9612 0.0
C204 C 0.81449 0.64068 0.975 0.0
C205 C 0.75062 0.6153 1.00137 0.0
C206 C 0.70867 0.5381 1.01459 0.0
C207 C 0.72927 0.48595 0.9983 0.0
C208 C 0.79387 0.51175 0.97167 0.0
C209 C 0.01559 0.8906 0.92259 0.0
C210 C 0.13253 0.88324 0.99824 0.0
C211 C 0.31739 0.01983 0.88794 0.0
C212 C 0.36834 0.09968 0.87543 0.0
C213 C 0.44101 0.1387 0.89282 0.0
C214 C 0.49458 0.21196 0.87825 0.0
C215 C 0.47582 0.24723 0.84622 0.0
C216 C 0.40174 0.20876 0.83004 0.0
C217 C 0.34812 0.1357 0.84472 0.0
C218 C 0.17823 0.75489 0.90456 0.0
C219 C 0.05477 0.8168 0.82492 0.0
O220 O -0.02809 0.64894 0.9618 0.0
O221 O 0.9199 0.66284 0.90626 0.0
O222 O 0.05507 0.87699 0.89654 0.0
O223 O -0.01917 0.83629 0.9506 0.0
O224 O 0.17277 0.92638 0.96611 0.0
O225 O 0.07577 0.81283 0.99278 0.0
O226 O 0.27296 0.00559 0.92087 0.0
O227 O 0.2867 -0.03062 0.85901 0.0
O228 O 0.15188 0.78234 0.93033 0.0
O229 O 0.20614 0.80006 0.87229 0.0
O230 O 0.02514 0.75763 0.85162 0.0
O231 O 0.11123 0.88296 0.83674 0.0
H232 H 0.84815 0.7011 0.9673 0.0
H233 H 0.7387 0.65794 1.01425 0.0
H234 H 0.69861 0.42649 1.00835 0.0
H235 H 0.81149 0.47174 0.96098 0.0
H236 H 0.45741 0.11122 0.91654 0.0
H237 H 0.55165 0.2396 0.89061 0.0
H238 H 0.38709 0.23295 0.80395 0.0
H239 H 0.29241 0.10612 0.83082 0.0
C240 C 0.00651 0.09271 1.21235 0.0
C241 C 0.00016 0.14676 1.23667 0.0
C242 C 0.07059 0.08316 1.21453 0.0
C243 C 0.12889 0.12636 1.24181 0.0
H244 H -0.04071 0.05324 1.19413 0.0
H245 H 0.07096 0.03682 1.19792 0.0
S246 S 0.14686 0.28582 0.30525 0.0
N247 N 0.0627 0.2525 0.28342 0.0
N248 N 0.18378 0.23336 0.28812 0.0
C249 C 0.12742 0.18607 0.26284 0.0
C250 C 0.06251 0.19671 0.26007 0.0
C251 C 0.10944 -0.05308 0.57577 0.0
C252 C 0.05088 0.92673 0.54725 0.0
C253 C 0.15419 0.02269 0.58717 0.0
C254 C 0.14244 0.08044 0.56977 0.0
H255 H 0.11482 0.90306 0.59284 0.0
H256 H 0.19588 0.03535 0.611 0.0
S257 S 0.00676 0.05843 0.48753 0.0
N258 N -0.00705 -0.02836 0.49635 0.0
N259 N 0.07552 0.11395 0.51864 0.0
C260 C 0.09025 0.06207 0.53774 0.0
C261 C 0.04562 -0.01486 0.52571 0.0
C262 C -0.06613 -0.05256 0.94016 0.0
C263 C -0.00971 -0.05371 0.91404 0.0
C264 C 0.91744 0.00696 0.9369 0.0
C265 C -0.04122 0.06777 0.90869 0.0
H266 H 0.90503 0.9045 0.96462 0.0
H267 H 0.87629 0.0083 0.95844 0.0
S268 S 0.0921 0.07828 0.82437 0.0
N269 N 0.07212 0.0004 0.85175 0.0
N270 N 0.04266 0.11409 0.84717 0.0
C271 C 0.006 0.0613 0.87829 0.0
C272 C 0.02221 0.00023 0.88099 0.0
C273 C 0.40522 0.55661 1.15828 0.0
C274 C 0.36671 0.48695 1.1811 0.0
C275 C 0.37916 0.56476 1.11955 0.0
C276 C 0.31221 0.50482 1.10389 0.0
H277 H 0.46117 0.60045 1.16738 0.0
H278 H 0.41533 0.61452 1.10008 0.0
S279 S 0.17871 0.32066 1.15688 0.0
N280 N 0.2496 0.36401 1.18913 0.0
N281 N 0.19945 0.38114 1.11725 0.0
C282 C 0.26613 0.4411 1.12972 0.0
C283 C 0.29329 0.43203 1.16861 0.0
C284 C 0.75945 0.34599 0.48583 0.0
C285 C 0.79914 0.30553 0.49133 0.0
C286 C 0.70025 0.32141 0.45732 0.0
C287 C 0.68044 0.25652 0.43334 0.0
H288 H 0.77757 0.39917 0.50141 0.0
H289 H 0.67484 0.35709 0.45117 0.0
S290 S 0.76813 0.1309 0.43906 0.0
N291 N 0.81296 0.19648 0.47372 0.0
N292 N 0.70428 0.15063 0.41952 0.0
C293 C 0.7167 0.21279 0.44147 0.0
C294 C 0.77583 0.23756 0.47053 0.0
C295 C 0.63564 -0.04991 0.81813 0.0
C296 C 0.58457 -0.02073 0.81538 0.0
C297 C 0.66113 0.92967 0.78251 0.0
C298 C 0.63453 0.93539 0.74348 0.0
H299 H 0.66545 -0.04598 0.84645 0.0
H300 H 0.70736 0.91658 0.785 0.0
S301 S 0.47803 -0.02249 0.72236 0.0
N302 N 0.49064 -0.01097 0.77285 0.0
N303 N 0.53976 -0.04871 0.70529 0.0
C304 C 0.57281 -0.05043 0.7414 0.0
C305 C 0.54655 -0.02979 0.77784 0.0
C306 C 0.67948 0.51955 1.12703 0.0
C307 C 0.65451 0.57311 1.13248 0.0
C308 C 0.68176 0.49263 1.08755 0.0
C309 C 0.65965 0.5194 1.05276 0.0
H310 H 0.70677 0.50652 1.15213 0.0
H311 H 0.71266 0.46147 1.08362 0.0
S312 S 0.56059 0.63327 1.0539 0.0
N313 N 0.58654 0.63361 1.10225 0.0
N314 N 0.58706 0.57886 1.02853 0.0
C315 C 0.61767 0.55739 1.05975 0.0
C316 C 0.61709 0.58658 1.09962 0.0
C317 C 0.10924 0.59133 0.46818 0.0
C318 C 0.09663 0.64194 0.49243 0.0
C319 C 0.14176 0.61267 0.42793 0.0
C320 C 0.16364 0.68566 0.41152 0.0
H321 H 0.08752 0.53306 0.47896 0.0
H322 H 0.14428 0.57037 0.40853 0.0
S323 S 0.14385 0.83947 0.46244 0.0
N324 N 0.11044 0.76879 0.49723 0.0
N325 N 0.17304 0.80918 0.42239 0.0
C326 C 0.15692 0.73866 0.43665 0.0
C327 C 0.12325 0.71684 0.47711 0.0
C328 C 0.59947 0.31289 0.80626 0.0
C329 C 0.53609 0.31575 0.82358 0.0
C330 C 0.63683 0.35492 0.76994 0.0
C331 C 0.60855 0.39741 0.74895 0.0
H332 H 0.61326 0.2704 0.8173 0.0
H333 H 0.67851 0.34327 0.75462 0.0
S334 S 0.47052 0.45192 0.79393 0.0
N335 N 0.46754 0.38686 0.82687 0.0
N336 N 0.53433 0.46319 0.75731 0.0
C337 C 0.5578 0.41435 0.77145 0.0
C338 C 0.52124 0.37289 0.80895 0.0
C339 C 0.48241 -0.0107 0.27571 0.0
C340 C 0.44648 -0.01138 1.23867 0.0
C341 C 0.54253 -0.02775 0.27576 0.0
C342 C 0.56788 -0.04665 1.23891 0.0
H343 H 0.46766 0.00802 0.30411 0.0
H344 H 0.57162 -0.02282 0.30449 0.0
S345 S 0.48098 0.92811 1.13585 0.0
N346 N 0.43212 -0.04373 1.16572 0.0
N347 N 0.54452 0.9238 1.166 0.0
C348 C 0.52717 -0.05487 1.20271 0.0
C349 C 0.46653 -0.03706 1.20257 0.0
C350 C 0.45272 0.55021 0.60551 0.0
C351 C 0.41878 0.51481 0.56834 0.0
C352 C 0.53132 0.6042 0.60633 0.0
C353 C 0.57825 0.62254 0.57019 0.0
H354 H 0.41846 0.53569 0.63408 0.0
H355 H 0.55588 0.62945 0.63557 0.0
S356 S 0.5167 0.54374 0.46542 0.0
N357 N 0.43777 0.50153 0.49488 0.0
N358 N 0.58467 0.60132 0.49628 0.0
C359 C 0.5444 0.58775 0.53288 0.0
C360 C 0.4648 0.53415 0.53199 0.0
C361 C 0.08965 0.54991 0.94282 0.0
C362 C 0.08716 0.51213 0.90615 0.0
C363 C 0.12386 0.62968 0.94261 0.0
C364 C 0.15719 0.6737 0.90587 0.0
H365 H 0.06094 0.51767 0.97104 0.0
H366 H 0.12091 0.65672 0.97092 0.0
S367 S 0.17815 0.60142 0.80401 0.0
N368 N 0.12977 0.5241 0.83388 0.0
N369 N 0.19484 0.67401 0.83362 0.0
C370 C 0.16108 0.63668 0.87011 0.0
C371 C 0.12565 0.55567 0.87022 0.0
C372 C 0.35464 0.20061 0.39827 0.0
C373 C 0.2918 0.16064 0.37251 0.0
C374 C 0.3486 0.23682 0.43451 0.0
C375 C 0.2799 0.23642 0.4463 0.0
H376 H 0.40898 0.20374 0.39045 0.0
H377 H 0.3985 0.26539 0.45349 0.0
S378 S 0.09872 0.14074 0.38837 0.0
N379 N 0.15856 0.12247 0.36145 0.0
N380 N 0.14787 0.19288 0.42749 0.0
C381 C 0.21708 0.19759 0.42008 0.0
C382 C 0.22289 0.15929 0.38385 0.0
C383 C 0.09095 0.28368 0.70986 0.0
C384 C 0.16461 0.28998 0.70577 0.0
C385 C 0.05566 0.28002 0.74901 0.0
C386 C 0.09231 0.2831 0.78629 0.0
H387 H 0.06 0.2824 0.68243 0.0
H388 H -7e-05 0.27651 0.74995 0.0
S389 S 0.28064 0.29021 0.79402 0.0
N390 N 0.26942 0.29277 0.74351 0.0
N391 N 0.20415 0.28646 0.8165 0.0
C392 C 0.16475 0.28699 0.7828 0.0
C393 C 0.20049 0.29029 0.74292 0.0
C394 C 0.89006 0.2406 1.07486 0.0
C395 C 0.90396 0.20231 1.04232 0.0
C396 C 0.85936 0.20418 1.11418 0.0
C397 C 0.84263 0.12834 1.12292 0.0
H398 H 0.90287 0.29907 1.0699 0.0
H399 H 0.85058 0.23645 1.13822 0.0
S400 S 0.87219 0.0046 1.04895 0.0
N401 N 0.90045 0.08522 1.02236 0.0
N402 N 0.84379 0.01737 1.09508 0.0
C403 C 0.85691 0.0901 1.09057 0.0
C404 C 0.88721 0.12683 1.05072 0.0
C405 C 0.7433 -0.04887 0.4132 0.0
C406 C 0.79839 -0.03677 0.38185 0.0
C407 C 0.73708 0.91009 0.45051 0.0
C408 C 0.78507 0.8785 0.45836 0.0
H409 H 0.70257 -0.02909 0.40827 0.0
H410 H 0.69347 0.90248 0.47349 0.0
S411 S -0.05964 0.89458 0.38671 0.0
N412 N 0.90388 0.94125 0.36205 0.0
N413 N 0.89063 0.86331 0.431 0.0
C414 C 0.84113 0.89082 0.42748 0.0
C415 C 0.84794 0.93311 0.38966 0.0
C416 C 0.905 0.75667 0.73885 0.0
C417 C -0.05762 0.81615 0.7088 0.0
C418 C -0.05795 0.75561 0.7759 0.0
C419 C 0.01782 0.81339 0.78404 0.0
H420 H 0.84729 0.71114 0.73386 0.0
H421 H 0.91059 0.70983 0.79859 0.0
S422 S 0.14112 -0.02153 0.71333 0.0
N423 N 0.05965 0.93204 0.68901 0.0
N424 N 0.12863 0.92963 0.75708 0.0
C425 C 0.05538 0.87189 0.75355 0.0
C426 C 0.01782 0.87321 0.71648 0.0
C427 C 0.22433 -0.01286 1.04461 0.0
C428 C 0.15546 0.91695 1.04058 0.0
C429 C 0.25007 0.02038 1.08346 0.0
C430 C 0.20852 -0.01491 1.12044 0.0
H431 H 0.26 0.01668 1.01744 0.0
H432 H 0.3041 0.07317 1.08455 0.0
S433 S 0.02063 0.80498 1.12761 0.0
N434 N 0.04379 0.81635 1.07751 0.0
N435 N 0.09137 0.87816 1.15022 0.0
C436 C 0.13829 0.91609 1.11692 0.0
C437 C 0.11207 0.88226 1.07725 0.0
loop_
_geom_bond_atom_site_label_1
_geom_bond_atom_site_label_2
_geom_bond_distance
_geom_bond_site_symmetry_2
_ccdc_geom_bond_type
Pr0 C2 2.880 . S
Pr0 O20 2.562 . S
Pr0 O21 2.490 . S
Pr0 O22 2.695 . S
Pr0 O23 2.512 . S
Pr0 O25 2.437 . S
Pr0 O28 2.436 . S
Pr0 O30 2.438 1_554 S
Pr1 C11 2.880 . S
Pr1 O22 2.436 1_556 S
Pr1 O24 2.438 1_556 S
Pr1 O26 2.562 . S
Pr1 O27 2.490 . S
Pr1 O28 2.695 1_556 S
Pr1 O29 2.512 . S
Pr1 O31 2.437 . S
C2 Pr0 2.880 . S
C2 C3 1.491 . S
C2 O20 1.254 . S
C2 O21 1.225 . S
C3 C2 1.491 . S
C3 C4 1.392 1_545 S
C3 C8 1.356 . S
C4 C3 1.392 1_565 S
C4 C5 1.368 . S
C4 H32 0.929 . S
C5 C4 1.368 . S
C5 C6 1.386 . S
C5 H33 0.929 . S
C6 C5 1.386 . S
C6 C7 1.373 1_565 S
C7 C6 1.373 1_545 S
C7 C8 1.409 . S
C7 H34 0.931 . S
C8 C3 1.356 . S
C8 C7 1.409 . S
C8 H35 0.930 . S
C9 O22 1.270 . S
C9 O23 1.248 . S
C10 O24 1.267 . S
C10 O25 1.278 . S
C11 Pr1 2.880 . S
C11 C12 1.491 . S
C11 O26 1.254 . S
C11 O27 1.225 . S
C12 C11 1.491 . S
C12 C13 1.392 . S
C12 C17 1.356 . S
C13 C12 1.392 . S
C13 C14 1.368 . S
C13 H36 0.929 . S
C14 C13 1.368 . S
C14 C15 1.386 . S
C14 H37 0.929 . S
C15 C14 1.386 . S
C15 C16 1.373 . S
C16 C15 1.373 . S
C16 C17 1.409 . S
C16 H38 0.931 . S
C17 C12 1.356 . S
C17 C16 1.409 . S
C17 H39 0.930 . S
C18 O28 1.270 . S
C18 O29 1.248 1_554 S
C19 O30 1.267 . S
C19 O31 1.278 . S
O20 Pr0 2.562 . S
O20 C2 1.254 . S
O21 Pr0 2.490 . S
O21 C2 1.225 . S
O22 Pr0 2.695 . S
O22 Pr1 2.436 1_554 S
O22 C9 1.270 . S
O23 Pr0 2.512 . S
O23 C9 1.248 . S
O24 Pr1 2.438 1_554 S
O24 C10 1.267 . S
O25 Pr0 2.437 . S
O25 C10 1.278 . S
O26 Pr1 2.562 . S
O26 C11 1.254 . S
O27 Pr1 2.490 . S
O27 C11 1.225 . S
O28 Pr0 2.436 . S
O28 Pr1 2.695 1_554 S
O28 C18 1.270 . S
O29 Pr1 2.512 . S
O29 C18 1.248 1_556 S
O30 Pr0 2.438 1_556 S
O30 C19 1.267 . S
O31 Pr1 2.437 . S
O31 C19 1.278 . S
H32 C4 0.929 . S
H33 C5 0.929 . S
H34 C7 0.931 . S
H35 C8 0.930 . S
H36 C13 0.929 . S
H37 C14 0.929 . S
H38 C16 0.931 . S
H39 C17 0.930 . S
Pr40 C42 2.880 . S
Pr40 O60 2.562 . S
Pr40 O61 2.490 . S
Pr40 O62 2.695 . S
Pr40 O63 2.512 . S
Pr40 O65 2.437 . S
Pr40 O68 2.436 . S
Pr40 O70 2.438 . S
Pr41 C51 2.880 . S
Pr41 O62 2.436 . S
Pr41 O64 2.438 . S
Pr41 O66 2.562 . S
Pr41 O67 2.490 . S
Pr41 O68 2.695 . S
Pr41 O69 2.512 . S
Pr41 O71 2.437 . S
C42 Pr40 2.880 . S
C42 C43 1.491 . S
C42 O60 1.254 . S
C42 O61 1.225 . S
C43 C42 1.491 . S
C43 C44 1.392 . S
C43 C48 1.356 . S
C44 C43 1.392 . S
C44 C45 1.368 . S
C44 H72 0.929 . S
C45 C44 1.368 . S
C45 C46 1.386 . S
C45 H73 0.929 . S
C46 C45 1.386 . S
C46 C47 1.373 . S
C47 C46 1.373 . S
C47 C48 1.409 . S
C47 H74 0.931 . S
C48 C43 1.356 . S
C48 C47 1.409 . S
C48 H75 0.930 . S
C49 O62 1.270 . S
C49 O63 1.248 . S
C50 O64 1.267 . S
C50 O65 1.278 . S
C51 Pr41 2.880 . S
C51 C52 1.491 . S
C51 O66 1.254 . S
C51 O67 1.225 . S
C52 C51 1.491 . S
C52 C53 1.392 . S
C52 C57 1.356 . S
C53 C52 1.392 . S
C53 C54 1.368 . S
C53 H76 0.929 . S
C54 C53 1.368 . S
C54 C55 1.386 . S
C54 H77 0.929 . S
C55 C54 1.386 . S
C55 C56 1.373 . S
C56 C55 1.373 . S
C56 C57 1.409 . S
C56 H78 0.931 . S
C57 C52 1.356 . S
C57 C56 1.409 . S
C57 H79 0.930 . S
C58 O68 1.270 . S
C58 O69 1.248 . S
C59 O70 1.267 . S
C59 O71 1.278 . S
O60 Pr40 2.562 . S
O60 C42 1.254 . S
O61 Pr40 2.490 . S
O61 C42 1.225 . S
O62 Pr40 2.695 . S
O62 Pr41 2.436 . S
O62 C49 1.270 . S
O63 Pr40 2.512 . S
O63 C49 1.248 . S
O64 Pr41 2.438 . S
O64 C50 1.267 . S
O65 Pr40 2.437 . S
O65 C50 1.278 . S
O66 Pr41 2.562 . S
O66 C51 1.254 . S
O67 Pr41 2.490 . S
O67 C51 1.225 . S
O68 Pr40 2.436 . S
O68 Pr41 2.695 . S
O68 C58 1.270 . S
O69 Pr41 2.512 . S
O69 C58 1.248 . S
O70 Pr40 2.438 . S
O70 C59 1.267 . S
O71 Pr41 2.437 . S
O71 C59 1.278 . S
H72 C44 0.929 . S
H73 C45 0.929 . S
H74 C47 0.931 . S
H75 C48 0.930 . S
H76 C53 0.929 . S
H77 C54 0.929 . S
H78 C56 0.931 . S
H79 C57 0.930 . S
Pr80 C82 2.880 . S
Pr80 O100 2.562 . S
Pr80 O101 2.490 . S
Pr80 O102 2.695 . S
Pr80 O103 2.512 . S
Pr80 O105 2.437 1_455 S
Pr80 O108 2.430 1_455 S
Pr80 O110 2.438 . S
Pr81 C91 2.880 . S
Pr81 O102 2.436 1_655 S
Pr81 O104 2.438 . S
Pr81 O106 2.562 . S
Pr81 O107 2.490 . S
Pr81 O108 2.697 . S
Pr81 O109 2.512 . S
Pr81 O111 2.437 1_655 S
C82 Pr80 2.880 . S
C82 C83 1.491 . S
C82 O100 1.254 . S
C82 O101 1.225 . S
C83 C82 1.491 . S
C83 C84 1.392 . S
C83 C88 1.356 . S
C84 C83 1.392 . S
C84 C85 1.368 . S
C84 H112 0.929 . S
C85 C84 1.368 . S
C85 C86 1.386 . S
C85 H113 0.929 . S
C86 C85 1.386 . S
C86 C87 1.373 . S
C87 C86 1.373 . S
C87 C88 1.409 . S
C87 H114 0.931 . S
C88 C83 1.356 . S
C88 C87 1.409 . S
C88 H115 0.930 . S
C89 O102 1.270 . S
C89 O103 1.248 . S
C90 O104 1.267 . S
C90 O105 1.278 . S
C91 Pr81 2.880 . S
C91 C92 1.491 . S
C91 O106 1.254 . S
C91 O107 1.225 . S
C92 C91 1.491 . S
C92 C93 1.392 . S
C92 C97 1.356 . S
C93 C92 1.392 . S
C93 C94 1.368 . S
C93 H116 0.929 . S
C94 C93 1.368 . S
C94 C95 1.386 . S
C94 H117 0.929 . S
C95 C94 1.386 . S
C95 C96 1.373 . S
C96 C95 1.373 . S
C96 C97 1.409 . S
C96 H118 0.931 . S
C97 C92 1.356 . S
C97 C96 1.409 . S
C97 H119 0.930 . S
C98 O108 1.275 . S
C98 O109 1.248 . S
C99 O110 1.267 . S
C99 O111 1.278 . S
O100 Pr80 2.562 . S
O100 C82 1.254 . S
O101 Pr80 2.490 . S
O101 C82 1.225 . S
O102 Pr80 2.695 . S
O102 Pr81 2.436 1_455 S
O102 C89 1.270 . S
O103 Pr80 2.512 . S
O103 C89 1.248 . S
O104 Pr81 2.438 . S
O104 C90 1.267 . S
O105 Pr80 2.437 1_655 S
O105 C90 1.278 . S
O106 Pr81 2.562 . S
O106 C91 1.254 . S
O107 Pr81 2.490 . S
O107 C91 1.225 . S
O108 Pr80 2.430 1_655 S
O108 Pr81 2.697 . S
O108 C98 1.275 . S
O109 Pr81 2.512 . S
O109 C98 1.248 . S
O110 Pr80 2.438 . S
O110 C99 1.267 . S
O111 Pr81 2.437 1_455 S
O111 C99 1.278 . S
H112 C84 0.929 . S
H113 C85 0.929 . S
H114 C87 0.931 . S
H115 C88 0.930 . S
H116 C93 0.929 . S
H117 C94 0.929 . S
H118 C96 0.931 . S
H119 C97 0.930 . S
Pr120 C122 2.880 . S
Pr120 O140 2.562 . S
Pr120 O141 2.490 . S
Pr120 O142 2.695 . S
Pr120 O143 2.512 . S
Pr120 O145 2.437 1_545 S
Pr120 O148 2.436 1_545 S
Pr120 O150 2.438 1_554 S
Pr121 C131 2.880 . S
Pr121 O142 2.436 1_566 S
Pr121 O144 2.438 1_556 S
Pr121 O146 2.562 . S
Pr121 O147 2.490 . S
Pr121 O148 2.695 1_556 S
Pr121 O149 2.512 . S
Pr121 O151 2.437 1_565 S
C122 Pr120 2.880 . S
C122 C123 1.491 . S
C122 O140 1.254 . S
C122 O141 1.225 . S
C123 C122 1.491 . S
C123 C124 1.392 . S
C123 C128 1.356 . S
C124 C123 1.392 . S
C124 C125 1.368 . S
C124 H152 0.929 . S
C125 C124 1.368 . S
C125 C126 1.386 . S
C125 H153 0.929 1_655 S
C126 C125 1.386 . S
C126 C127 1.373 . S
C127 C126 1.373 . S
C127 C128 1.409 . S
C127 H154 0.931 . S
C128 C123 1.356 . S
C128 C127 1.409 . S
C128 H155 0.930 . S
C129 O142 1.270 . S
C129 O143 1.248 . S
C130 O144 1.267 . S
C130 O145 1.278 . S
C131 Pr121 2.880 . S
C131 C132 1.491 . S
C131 O146 1.254 . S
C131 O147 1.225 . S
C132 C131 1.491 . S
C132 C133 1.392 . S
C132 C137 1.356 . S
C133 C132 1.392 . S
C133 C134 1.368 . S
C133 H156 0.929 . S
C134 C133 1.368 . S
C134 C135 1.386 . S
C134 H157 0.929 . S
C135 C134 1.386 . S
C135 C136 1.373 . S
C136 C135 1.373 . S
C136 C137 1.409 . S
C136 H158 0.931 . S
C137 C132 1.356 . S
C137 C136 1.409 . S
C137 H159 0.930 . S
C138 O148 1.270 . S
C138 O149 1.248 1_554 S
C139 O150 1.267 . S
C139 O151 1.278 . S
O140 Pr120 2.562 . S
O140 C122 1.254 . S
O141 Pr120 2.490 . S
O141 C122 1.225 . S
O142 Pr120 2.695 . S
O142 Pr121 2.436 1_544 S
O142 C129 1.270 . S
O143 Pr120 2.512 . S
O143 C129 1.248 . S
O144 Pr121 2.438 1_554 S
O144 C130 1.267 . S
O145 Pr120 2.437 1_565 S
O145 C130 1.278 . S
O146 Pr121 2.562 . S
O146 C131 1.254 . S
O147 Pr121 2.490 . S
O147 C131 1.225 . S
O148 Pr120 2.436 1_565 S
O148 Pr121 2.695 1_554 S
O148 C138 1.270 . S
O149 Pr121 2.512 . S
O149 C138 1.248 1_556 S
O150 Pr120 2.438 1_556 S
O150 C139 1.267 . S
O151 Pr121 2.437 1_545 S
O151 C139 1.278 . S
H152 C124 0.929 . S
H153 C125 0.929 1_455 S
H154 C127 0.931 . S
H155 C128 0.930 . S
H156 C133 0.929 . S
H157 C134 0.929 . S
H158 C136 0.931 . S
H159 C137 0.930 . S
Pr160 C162 2.880 . S
Pr160 O180 2.562 . S
Pr160 O181 2.490 . S
Pr160 O182 2.695 . S
Pr160 O183 2.512 1_655 S
Pr160 O185 2.437 . S
Pr160 O188 2.436 . S
Pr160 O190 2.438 . S
Pr161 C171 2.880 1_655 S
Pr161 O182 2.436 . S
Pr161 O184 2.438 . S
Pr161 O186 2.562 1_655 S
Pr161 O187 2.490 . S
Pr161 O188 2.695 . S
Pr161 O189 2.512 . S
Pr161 O191 2.437 . S
C162 Pr160 2.880 . S
C162 C163 1.491 . S
C162 O180 1.254 . S
C162 O181 1.225 . S
C163 C162 1.491 . S
C163 C164 1.392 . S
C163 C168 1.356 . S
C164 C163 1.392 . S
C164 C165 1.368 . S
C164 H192 0.929 . S
C165 C164 1.368 . S
C165 C166 1.386 . S
C165 H193 0.929 1_565 S
C166 C165 1.386 . S
C166 C167 1.373 . S
C167 C166 1.373 . S
C167 C168 1.409 . S
C167 H194 0.931 . S
C168 C163 1.356 . S
C168 C167 1.409 . S
C168 H195 0.930 . S
C169 O182 1.270 1_455 S
C169 O183 1.248 . S
C170 O184 1.267 . S
C170 O185 1.278 . S
C171 Pr161 2.880 1_455 S
C171 C172 1.491 . S
C171 O186 1.254 . S
C171 O187 1.225 1_455 S
C172 C171 1.491 . S
C172 C173 1.392 . S
C172 C177 1.356 . S
C173 C172 1.392 . S
C173 C174 1.368 . S
C173 H196 0.929 1_455 S
C174 C173 1.368 . S
C174 C175 1.386 . S
C174 H197 0.929 . S
C175 C174 1.386 . S
C175 C176 1.373 . S
C176 C175 1.373 . S
C176 C177 1.409 . S
C176 H198 0.931 . S
C177 C172 1.356 . S
C177 C176 1.409 . S
C177 H199 0.930 . S
C178 O188 1.270 . S
C178 O189 1.248 . S
C179 O190 1.267 . S
C179 O191 1.278 . S
O180 Pr160 2.562 . S
O180 C162 1.254 . S
O181 Pr160 2.490 . S
O181 C162 1.225 . S
O182 Pr160 2.695 . S
O182 Pr161 2.436 . S
O182 C169 1.270 1_655 S
O183 Pr160 2.512 1_455 S
O183 C169 1.248 . S
O184 Pr161 2.438 . S
O184 C170 1.267 . S
O185 Pr160 2.437 . S
O185 C170 1.278 . S
O186 Pr161 2.562 1_455 S
O186 C171 1.254 . S
O187 Pr161 2.490 . S
O187 C171 1.225 1_655 S
O188 Pr160 2.436 . S
O188 Pr161 2.695 . S
O188 C178 1.270 . S
O189 Pr161 2.512 . S
O189 C178 1.248 . S
O190 Pr160 2.438 . S
O190 C179 1.267 . S
O191 Pr161 2.437 . S
O191 C179 1.278 . S
H192 C164 0.929 . S
H193 C165 0.929 1_545 S
H194 C167 0.931 . S
H195 C168 0.930 . S
H196 C173 0.929 1_655 S
H197 C174 0.929 . S
H198 C176 0.931 . S
H199 C177 0.930 . S
Pr200 C202 2.880 . S
Pr200 O220 2.562 . S
Pr200 O221 2.490 . S
Pr200 O222 2.695 . S
Pr200 O223 2.510 1_565 S
Pr200 O225 2.437 . S
Pr200 O228 2.436 . S
Pr200 O230 2.438 . S
Pr201 C211 2.880 1_565 S
Pr201 O222 2.436 . S
Pr201 O224 2.438 . S
Pr201 O226 2.562 1_565 S
Pr201 O227 2.490 . S
Pr201 O228 2.695 . S
Pr201 O229 2.512 . S
Pr201 O231 2.437 . S
C202 Pr200 2.880 . S
C202 C203 1.491 . S
C202 O220 1.254 . S
C202 O221 1.225 . S
C203 C202 1.491 . S
C203 C204 1.392 1_455 S
C203 C208 1.356 . S
C204 C203 1.392 1_655 S
C204 C205 1.368 . S
C204 H232 0.929 . S
C205 C204 1.368 . S
C205 C206 1.386 . S
C205 H233 0.929 . S
C206 C205 1.386 . S
C206 C207 1.373 1_655 S
C207 C206 1.373 1_455 S
C207 C208 1.409 . S
C207 H234 0.931 . S
C208 C203 1.356 . S
C208 C207 1.409 . S
C208 H235 0.930 . S
C209 O222 1.270 1_545 S
C209 O223 1.249 . S
C210 O224 1.267 . S
C210 O225 1.278 . S
C211 Pr201 2.880 1_545 S
C211 C212 1.491 . S
C211 O226 1.254 . S
C211 O227 1.225 1_545 S
C212 C211 1.491 . S
C212 C213 1.392 . S
C212 C217 1.356 . S
C213 C212 1.392 . S
C213 C214 1.368 . S
C213 H236 0.929 1_545 S
C214 C213 1.368 . S
C214 C215 1.386 . S
C214 H237 0.929 . S
C215 C214 1.386 . S
C215 C216 1.373 . S
C216 C215 1.373 . S
C216 C217 1.409 . S
C216 H238 0.931 . S
C217 C212 1.356 . S
C217 C216 1.409 . S
C217 H239 0.930 . S
C218 O228 1.270 . S
C218 O229 1.248 . S
C219 O230 1.267 . S
C219 O231 1.278 . S
O220 Pr200 2.562 . S
O220 C202 1.254 . S
O221 Pr200 2.490 . S
O221 C202 1.225 . S
O222 Pr200 2.695 . S
O222 Pr201 2.436 . S
O222 C209 1.270 1_565 S
O223 Pr200 2.510 1_545 S
O223 C209 1.249 . S
O224 Pr201 2.438 . S
O224 C210 1.267 . S
O225 Pr200 2.437 . S
O225 C210 1.278 . S
O226 Pr201 2.562 1_545 S
O226 C211 1.254 . S
O227 Pr201 2.490 . S
O227 C211 1.225 1_565 S
O228 Pr200 2.436 . S
O228 Pr201 2.695 . S
O228 C218 1.270 . S
O229 Pr201 2.512 . S
O229 C218 1.248 . S
O230 Pr200 2.438 . S
O230 C219 1.267 . S
O231 Pr201 2.437 . S
O231 C219 1.278 . S
H232 C204 0.929 . S
H233 C205 0.929 . S
H234 C207 0.931 . S
H235 C208 0.930 . S
H236 C213 0.929 1_565 S
H237 C214 0.929 . S
H238 C216 0.931 . S
H239 C217 0.930 . S
C240 C241 1.369 1_556 S
C240 C242 1.419 . S
C240 H244 0.930 . S
C241 C240 1.369 1_554 S
C241 C250 1.429 . S
C242 C240 1.419 . S
C242 C243 1.363 1_556 S
C242 H245 0.929 . S
C243 C242 1.363 1_554 S
C243 C249 1.428 . S
H244 C240 0.930 . S
H245 C242 0.929 . S
S246 N247 1.613 . S
S246 N248 1.610 . S
N247 S246 1.613 . S
N247 C250 1.350 . S
N248 S246 1.610 . S
N248 C249 1.351 . S
C249 C243 1.428 . S
C249 N248 1.351 . S
C249 C250 1.434 . S
C250 C241 1.429 . S
C250 N247 1.350 . S
C250 C249 1.434 . S
C251 C252 1.369 . S
C251 C253 1.419 . S
C251 H255 0.930 . S
C252 C251 1.369 . S
C252 C261 1.429 . S
C253 C251 1.419 . S
C253 C254 1.363 . S
C253 H256 0.929 . S
C254 C253 1.363 . S
C254 C260 1.428 . S
H255 C251 0.930 . S
H256 C253 0.929 . S
S257 N258 1.613 . S
S257 N259 1.610 . S
N258 S257 1.613 . S
N258 C261 1.350 1_655 S
N259 S257 1.610 . S
N259 C260 1.351 1_655 S
C260 C254 1.428 . S
C260 N259 1.351 1_455 S
C260 C261 1.434 . S
C261 C252 1.429 . S
C261 N258 1.350 1_455 S
C261 C260 1.434 . S
C262 C263 1.369 . S
C262 C264 1.419 . S
C262 H266 0.930 1_545 S
C263 C262 1.369 . S
C263 C272 1.429 . S
C264 C262 1.419 . S
C264 C265 1.363 . S
C264 H267 0.929 1_455 S
C265 C264 1.363 . S
C265 C271 1.428 . S
H266 C262 0.930 1_565 S
H267 C264 0.929 1_655 S
S268 N269 1.613 . S
S268 N270 1.610 . S
N269 S268 1.613 . S
N269 C272 1.350 . S
N270 S268 1.610 . S
N270 C271 1.351 . S
C271 C265 1.428 . S
C271 N270 1.351 . S
C271 C272 1.434 . S
C272 C263 1.429 . S
C272 N269 1.350 . S
C272 C271 1.434 . S
C273 C274 1.369 . S
C273 C275 1.419 . S
C273 H277 0.930 . S
C274 C273 1.369 . S
C274 C283 1.429 . S
C275 C273 1.419 . S
C275 C276 1.363 . S
C275 H278 0.929 . S
C276 C275 1.363 . S
C276 C282 1.428 . S
H277 C273 0.930 . S
H278 C275 0.929 . S
S279 N280 1.613 . S
S279 N281 1.610 . S
N280 S279 1.613 . S
N280 C283 1.350 . S
N281 S279 1.610 . S
N281 C282 1.351 . S
C282 C276 1.428 . S
C282 N281 1.351 . S
C282 C283 1.434 . S
C283 C274 1.429 . S
C283 N280 1.350 . S
C283 C282 1.434 . S
C284 C285 1.369 . S
C284 C286 1.419 1_455 S
C284 H288 0.930 . S
C285 C284 1.369 . S
C285 C294 1.429 . S
C286 C284 1.419 1_655 S
C286 C287 1.363 . S
C286 H289 0.929 . S
C287 C286 1.363 . S
C287 C293 1.428 1_655 S
H288 C284 0.930 . S
H289 C286 0.929 . S
S290 N291 1.613 . S
S290 N292 1.610 . S
N291 S290 1.613 . S
N291 C294 1.350 . S
N292 S290 1.610 . S
N292 C293 1.351 . S
C293 C287 1.428 1_455 S
C293 N292 1.351 . S
C293 C294 1.434 . S
C294 C285 1.429 . S
C294 N291 1.350 . S
C294 C293 1.434 . S
C295 C296 1.369 . S
C295 C297 1.419 . S
C295 H299 0.930 . S
C296 C295 1.369 . S
C296 C305 1.429 . S
C297 C295 1.419 . S
C297 C298 1.363 1_545 S
C297 H300 0.929 . S
C298 C297 1.363 1_565 S
C298 C304 1.428 . S
H299 C295 0.930 . S
H300 C297 0.929 . S
S301 N302 1.613 . S
S301 N303 1.610 . S
N302 S301 1.613 . S
N302 C305 1.350 1_565 S
N303 S301 1.610 . S
N303 C304 1.351 . S
C304 C298 1.428 . S
C304 N303 1.351 . S
C304 C305 1.434 1_565 S
C305 C296 1.429 . S
C305 N302 1.350 1_545 S
C305 C304 1.434 1_545 S
C306 C307 1.369 . S
C306 C308 1.419 . S
C306 H310 0.930 . S
C307 C306 1.369 . S
C307 C316 1.429 . S
C308 C306 1.419 . S
C308 C309 1.363 . S
C308 H311 0.929 . S
C309 C308 1.363 . S
C309 C315 1.428 . S
H310 C306 0.930 . S
H311 C308 0.929 . S
S312 N313 1.613 . S
S312 N314 1.610 . S
N313 S312 1.613 . S
N313 C316 1.350 . S
N314 S312 1.610 . S
N314 C315 1.351 . S
C315 C309 1.428 . S
C315 N314 1.351 . S
C315 C316 1.434 . S
C316 C307 1.429 . S
C316 N313 1.350 . S
C316 C315 1.434 . S
C317 C318 1.369 . S
C317 C319 1.419 . S
C317 H321 0.930 . S
C318 C317 1.369 . S
C318 C327 1.429 . S
C319 C317 1.419 . S
C319 C320 1.363 . S
C319 H322 0.929 . S
C320 C319 1.363 . S
C320 C326 1.428 . S
H321 C317 0.930 . S
H322 C319 0.929 . S
S323 N324 1.613 . S
S323 N325 1.610 . S
N324 S323 1.613 . S
N324 C327 1.350 . S
N325 S323 1.610 . S
N325 C326 1.351 . S
C326 C320 1.428 . S
C326 N325 1.351 . S
C326 C327 1.434 . S
C327 C318 1.429 . S
C327 N324 1.350 . S
C327 C326 1.434 . S
C328 C329 1.369 . S
C328 C330 1.419 . S
C328 H332 0.930 . S
C329 C328 1.369 . S
C329 C338 1.429 . S
C330 C328 1.419 . S
C330 C331 1.363 . S
C330 H333 0.929 . S
C331 C330 1.363 . S
C331 C337 1.428 . S
H332 C328 0.930 . S
H333 C330 0.929 . S
S334 N335 1.613 . S
S334 N336 1.610 . S
N335 S334 1.613 . S
N335 C338 1.350 . S
N336 S334 1.610 . S
N336 C337 1.351 . S
C337 C331 1.428 . S
C337 N336 1.351 . S
C337 C338 1.434 . S
C338 C329 1.429 . S
C338 N335 1.350 . S
C338 C337 1.434 . S
C339 C340 1.369 . S
C339 C341 1.419 . S
C339 H343 0.930 . S
C340 C339 1.369 . S
C340 C349 1.429 1_554 S
C341 C339 1.419 . S
C341 C342 1.363 . S
C341 H344 0.929 . S
C342 C341 1.363 . S
C342 C348 1.428 1_554 S
H343 C339 0.930 . S
H344 C341 0.929 . S
S345 N346 1.613 . S
S345 N347 1.610 . S
N346 S345 1.613 . S
N346 C349 1.350 . S
N347 S345 1.610 . S
N347 C348 1.351 . S
C348 C342 1.428 1_556 S
C348 N347 1.351 . S
C348 C349 1.434 . S
C349 C340 1.429 1_556 S
C349 N346 1.350 . S
C349 C348 1.434 . S
C350 C351 1.369 . S
C350 C352 1.419 . S
C350 H354 0.930 . S
C351 C350 1.369 . S
C351 C360 1.429 . S
C352 C350 1.419 . S
C352 C353 1.363 . S
C352 H355 0.929 . S
C353 C352 1.363 . S
C353 C359 1.428 . S
H354 C350 0.930 . S
H355 C352 0.929 . S
S356 N357 1.613 . S
S356 N358 1.610 . S
N357 S356 1.613 . S
N357 C360 1.350 . S
N358 S356 1.610 . S
N358 C359 1.351 . S
C359 C353 1.428 . S
C359 N358 1.351 . S
C359 C360 1.434 . S
C360 C351 1.429 . S
C360 N357 1.350 . S
C360 C359 1.434 . S
C361 C362 1.369 . S
C361 C363 1.419 . S
C361 H365 0.930 . S
C362 C361 1.369 . S
C362 C371 1.429 . S
C363 C361 1.419 . S
C363 C364 1.363 . S
C363 H366 0.929 . S
C364 C363 1.363 . S
C364 C370 1.428 . S
H365 C361 0.930 . S
H366 C363 0.929 . S
S367 N368 1.613 . S
S367 N369 1.610 . S
N368 S367 1.613 . S
N368 C371 1.350 . S
N369 S367 1.610 . S
N369 C370 1.351 . S
C370 C364 1.428 . S
C370 N369 1.351 . S
C370 C371 1.434 . S
C371 C362 1.429 . S
C371 N368 1.350 . S
C371 C370 1.434 . S
C372 C373 1.369 . S
C372 C374 1.419 . S
C372 H376 0.930 . S
C373 C372 1.369 . S
C373 C382 1.429 . S
C374 C372 1.419 . S
C374 C375 1.363 . S
C374 H377 0.929 . S
C375 C374 1.363 . S
C375 C381 1.428 . S
H376 C372 0.930 . S
H377 C374 0.929 . S
S378 N379 1.613 . S
S378 N380 1.610 . S
N379 S378 1.613 . S
N379 C382 1.350 . S
N380 S378 1.610 . S
N380 C381 1.351 . S
C381 C375 1.428 . S
C381 N380 1.351 . S
C381 C382 1.434 . S
C382 C373 1.429 . S
C382 N379 1.350 . S
C382 C381 1.434 . S
C383 C384 1.369 . S
C383 C385 1.419 . S
C383 H387 0.930 . S
C384 C383 1.369 . S
C384 C393 1.429 . S
C385 C383 1.419 . S
C385 C386 1.363 . S
C385 H388 0.929 . S
C386 C385 1.363 . S
C386 C392 1.428 . S
H387 C383 0.930 . S
H388 C385 0.929 . S
S389 N390 1.613 . S
S389 N391 1.610 . S
N390 S389 1.613 . S
N390 C393 1.350 . S
N391 S389 1.610 . S
N391 C392 1.351 . S
C392 C386 1.428 . S
C392 N391 1.351 . S
C392 C393 1.434 . S
C393 C384 1.429 . S
C393 N390 1.350 . S
C393 C392 1.434 . S
C394 C395 1.369 . S
C394 C396 1.419 . S
C394 H398 0.930 . S
C395 C394 1.369 . S
C395 C404 1.429 . S
C396 C394 1.419 . S
C396 C397 1.363 . S
C396 H399 0.929 . S
C397 C396 1.363 . S
C397 C403 1.428 . S
H398 C394 0.930 . S
H399 C396 0.929 . S
S400 N401 1.613 1_565 S
S400 N402 1.610 1_565 S
N401 S400 1.613 1_545 S
N401 C404 1.350 . S
N402 S400 1.610 1_545 S
N402 C403 1.351 . S
C403 C397 1.428 . S
C403 N402 1.351 . S
C403 C404 1.434 . S
C404 C395 1.429 . S
C404 N401 1.350 . S
C404 C403 1.434 . S
C405 C406 1.369 . S
C405 C407 1.419 . S
C405 H409 0.930 . S
C406 C405 1.369 . S
C406 C415 1.429 . S
C407 C405 1.419 . S
C407 C408 1.363 . S
C407 H410 0.929 . S
C408 C407 1.363 . S
C408 C414 1.428 . S
H409 C405 0.930 . S
H410 C407 0.929 . S
S411 N412 1.613 . S
S411 N413 1.610 . S
N412 S411 1.613 . S
N412 C415 1.350 . S
N413 S411 1.610 . S
N413 C414 1.351 . S
C414 C408 1.428 . S
C414 N413 1.351 . S
C414 C415 1.434 . S
C415 C406 1.429 . S
C415 N412 1.350 . S
C415 C414 1.434 . S
C416 C417 1.369 . S
C416 C418 1.419 . S
C416 H420 0.930 1_455 S
C417 C416 1.369 . S
C417 C426 1.429 . S
C418 C416 1.419 . S
C418 C419 1.363 . S
C418 H421 0.929 . S
C419 C418 1.363 . S
C419 C425 1.428 . S
H420 C416 0.930 1_655 S
H421 C418 0.929 . S
S422 N423 1.613 . S
S422 N424 1.610 . S
N423 S422 1.613 . S
N423 C426 1.350 . S
N424 S422 1.610 . S
N424 C425 1.351 . S
C425 C419 1.428 . S
C425 N424 1.351 . S
C425 C426 1.434 . S
C426 C417 1.429 . S
C426 N423 1.350 . S
C426 C425 1.434 . S
C427 C428 1.369 . S
C427 C429 1.419 . S
C427 H431 0.930 . S
C428 C427 1.369 . S
C428 C437 1.429 1_545 S
C429 C427 1.419 . S
C429 C430 1.363 . S
C429 H432 0.929 . S
C430 C429 1.363 . S
C430 C436 1.428 1_545 S
H431 C427 0.930 . S
H432 C429 0.929 . S
S433 N434 1.613 . S
S433 N435 1.610 . S
N434 S433 1.613 . S
N434 C437 1.350 . S
N435 S433 1.610 . S
N435 C436 1.351 . S
C436 C430 1.428 1_565 S
C436 N435 1.351 . S
C436 C437 1.434 . S
C437 C428 1.429 1_565 S
C437 N434 1.350 . S
C437 C436 1.434 . S
C241 C129 1.228 1_455 S
C243 C9 1.240 . S
C252 C169 1.229 1_545 S
C254 C49 1.244 . S
C263 C209 1.245 . S
C265 C89 1.229 . S
C274 C15 1.159 . S
C276 C86 1.258 . S
C285 C55 1.152 . S
C287 C126 1.260 . S
C296 C95 1.156 . S
C298 C166 1.268 . S
C307 C135 1.166 . S
C309 C206 1.259 . S
C318 C175 1.153 . S
C320 C6 1.260 . S
C329 C215 1.148 . S
C331 C46 1.264 . S
C340 C18 1.633 . S
C342 C138 1.630 1_545 S
C351 C58 1.629 . S
C353 C178 1.637 . S
C362 C98 1.629 1_455 S
C364 C218 1.635 . S
C373 C10 4.225 . S
C375 C59 4.286 . S
C384 C50 4.227 . S
C386 C99 4.286 . S
C395 C90 4.225 . S
C397 C139 4.285 . S
C406 C130 4.228 . S
C408 C179 4.286 . S
C417 C170 4.228 1_455 S
C419 C219 4.286 . S
C428 C210 4.227 1_545 S
C430 C19 4.286 . S
