# Generated by pormake.
# Topology nfa, (4)-cn, num edge types: 1
# Building blocks:
#     Node 0, Type 0, BuildingBlock: ESEHIV_clean_sbu_0, # of connection points: 4
#     Node 1, Type 0, BuildingBlock: ESEHIV_clean_sbu_0, # of connection points: 4
#     Node 2, Type 0, BuildingBlock: ESEHIV_clean_sbu_0, # of connection points: 4
#     Node 3, Type 0, BuildingBlock: ESEHIV_clean_sbu_0, # of connection points: 4
#     Node 4, Type 0, BuildingBlock: ESEHIV_clean_sbu_0, # of connection points: 4
#     Node 5, Type 0, BuildingBlock: ESEHIV_clean_sbu_0, # of connection points: 4
#     Node 6, Type 0, BuildingBlock: ESEHIV_clean_sbu_0, # of connection points: 4
#     Node 7, Type 0, BuildingBlock: ESEHIV_clean_sbu_0, # of connection points: 4
#     Node 8, Type 0, BuildingBlock: ESEHIV_clean_sbu_0, # of connection points: 4
#     Node 9, Type 0, BuildingBlock: ESEHIV_clean_sbu_0, # of connection points: 4
#     Node 10, Type 0, BuildingBlock: ESEHIV_clean_sbu_0, # of connection points: 4
#     Node 11, Type 0, BuildingBlock: ESEHIV_clean_sbu_0, # of connection points: 4
#     Node 12, Type 0, BuildingBlock: ESEHIV_clean_sbu_0, # of connection points: 4
#     Node 13, Type 0, BuildingBlock: ESEHIV_clean_sbu_0, # of connection points: 4
#     Node 14, Type 0, BuildingBlock: ESEHIV_clean_sbu_0, # of connection points: 4
#     Node 15, Type 0, BuildingBlock: ESEHIV_clean_sbu_0, # of connection points: 4
#     Node 16, Type 0, BuildingBlock: ESEHIV_clean_sbu_0, # of connection points: 4
#     Node 17, Type 0, BuildingBlock: ESEHIV_clean_sbu_0, # of connection points: 4
#     Node 18, Type 0, BuildingBlock: ESEHIV_clean_sbu_0, # of connection points: 4
#     Node 19, Type 0, BuildingBlock: ESEHIV_clean_sbu_0, # of connection points: 4
#     Node 20, Type 0, BuildingBlock: ESEHIV_clean_sbu_0, # of connection points: 4
#     Node 21, Type 0, BuildingBlock: ESEHIV_clean_sbu_0, # of connection points: 4
#     Node 22, Type 0, BuildingBlock: ESEHIV_clean_sbu_0, # of connection points: 4
#     Node 23, Type 0, BuildingBlock: ESEHIV_clean_sbu_0, # of connection points: 4
#     Edge 24, Type (0, 0), BuildingBlock: CIFDUS_clean_linker_0, # of connection points: 2
#     Edge 25, Type (0, 0), BuildingBlock: CIFDUS_clean_linker_0, # of connection points: 2
#     Edge 26, Type (0, 0), BuildingBlock: CIFDUS_clean_linker_0, # of connection points: 2
#     Edge 27, Type (0, 0), BuildingBlock: CIFDUS_clean_linker_0, # of connection points: 2
#     Edge 28, Type (0, 0), BuildingBlock: CIFDUS_clean_linker_0, # of connection points: 2
#     Edge 29, Type (0, 0), BuildingBlock: CIFDUS_clean_linker_0, # of connection points: 2
#     Edge 30, Type (0, 0), BuildingBlock: CIFDUS_clean_linker_0, # of connection points: 2
#     Edge 31, Type (0, 0), BuildingBlock: CIFDUS_clean_linker_0, # of connection points: 2
#     Edge 32, Type (0, 0), BuildingBlock: CIFDUS_clean_linker_0, # of connection points: 2
#     Edge 33, Type (0, 0), BuildingBlock: CIFDUS_clean_linker_0, # of connection points: 2
#     Edge 34, Type (0, 0), BuildingBlock: CIFDUS_clean_linker_0, # of connection points: 2
#     Edge 35, Type (0, 0), BuildingBlock: CIFDUS_clean_linker_0, # of connection points: 2
#     Edge 36, Type (0, 0), BuildingBlock: CIFDUS_clean_linker_0, # of connection points: 2
#     Edge 37, Type (0, 0), BuildingBlock: CIFDUS_clean_linker_0, # of connection points: 2
#     Edge 38, Type (0, 0), BuildingBlock: CIFDUS_clean_linker_0, # of connection points: 2
#     Edge 39, Type (0, 0), BuildingBlock: CIFDUS_clean_linker_0, # of connection points: 2
#     Edge 40, Type (0, 0), BuildingBlock: CIFDUS_clean_linker_0, # of connection points: 2
#     Edge 41, Type (0, 0), BuildingBlock: CIFDUS_clean_linker_0, # of connection points: 2
#     Edge 42, Type (0, 0), BuildingBlock: CIFDUS_clean_linker_0, # of connection points: 2
#     Edge 43, Type (0, 0), BuildingBlock: CIFDUS_clean_linker_0, # of connection points: 2
#     Edge 44, Type (0, 0), BuildingBlock: CIFDUS_clean_linker_0, # of connection points: 2
#     Edge 45, Type (0, 0), BuildingBlock: CIFDUS_clean_linker_0, # of connection points: 2
#     Edge 46, Type (0, 0), BuildingBlock: CIFDUS_clean_linker_0, # of connection points: 2
#     Edge 47, Type (0, 0), BuildingBlock: CIFDUS_clean_linker_0, # of connection points: 2
#     Edge 48, Type (0, 0), BuildingBlock: CIFDUS_clean_linker_0, # of connection points: 2
#     Edge 49, Type (0, 0), BuildingBlock: CIFDUS_clean_linker_0, # of connection points: 2
#     Edge 50, Type (0, 0), BuildingBlock: CIFDUS_clean_linker_0, # of connection points: 2
#     Edge 51, Type (0, 0), BuildingBlock: CIFDUS_clean_linker_0, # of connection points: 2
#     Edge 52, Type (0, 0), BuildingBlock: CIFDUS_clean_linker_0, # of connection points: 2
#     Edge 53, Type (0, 0), BuildingBlock: CIFDUS_clean_linker_0, # of connection points: 2
#     Edge 54, Type (0, 0), BuildingBlock: CIFDUS_clean_linker_0, # of connection points: 2
#     Edge 55, Type (0, 0), BuildingBlock: CIFDUS_clean_linker_0, # of connection points: 2
#     Edge 56, Type (0, 0), BuildingBlock: CIFDUS_clean_linker_0, # of connection points: 2
#     Edge 57, Type (0, 0), BuildingBlock: CIFDUS_clean_linker_0, # of connection points: 2
#     Edge 58, Type (0, 0), BuildingBlock: CIFDUS_clean_linker_0, # of connection points: 2
#     Edge 59, Type (0, 0), BuildingBlock: CIFDUS_clean_linker_0, # of connection points: 2
#     Edge 60, Type (0, 0), BuildingBlock: CIFDUS_clean_linker_0, # of connection points: 2
#     Edge 61, Type (0, 0), BuildingBlock: CIFDUS_clean_linker_0, # of connection points: 2
#     Edge 62, Type (0, 0), BuildingBlock: CIFDUS_clean_linker_0, # of connection points: 2
#     Edge 63, Type (0, 0), BuildingBlock: CIFDUS_clean_linker_0, # of connection points: 2
#     Edge 64, Type (0, 0), BuildingBlock: CIFDUS_clean_linker_0, # of connection points: 2
#     Edge 65, Type (0, 0), BuildingBlock: CIFDUS_clean_linker_0, # of connection points: 2
#     Edge 66, Type (0, 0), BuildingBlock: CIFDUS_clean_linker_0, # of connection points: 2
#     Edge 67, Type (0, 0), BuildingBlock: CIFDUS_clean_linker_0, # of connection points: 2
#     Edge 68, Type (0, 0), BuildingBlock: CIFDUS_clean_linker_0, # of connection points: 2
#     Edge 69, Type (0, 0), BuildingBlock: CIFDUS_clean_linker_0, # of connection points: 2
#     Edge 70, Type (0, 0), BuildingBlock: CIFDUS_clean_linker_0, # of connection points: 2
#     Edge 71, Type (0, 0), BuildingBlock: CIFDUS_clean_linker_0, # of connection points: 2
# Relax obj value: 0.078
# Max RMSD: 0.189
# Mean RMSD: 0.161
data_MOF--net-nfa--node1-ESEHIV_clean_sbu_0--edge1-CIFDUS_clean_linker_0
_symmetry_space_group_name_H-M    P1
_symmetry_Int_Tables_number       1
_symmetry_cell_setting            triclinic
loop_
_symmetry_equiv_pos_as_xyz
'x, y, z'
_cell_length_a     36.484261
_cell_length_b     40.769858
_cell_length_c     39.085051
_cell_angle_alpha  88.832934
_cell_angle_beta   89.240743
_cell_angle_gamma 91.064486
loop_
_atom_site_label
_atom_site_type_symbol
_atom_site_fract_x
_atom_site_fract_y
_atom_site_fract_z
_atom_type_partial_charge
Cu0 Cu 0.11894 0.37981 0.37508 0.0
N1 N 0.06851 0.3711 0.373 0.0
N2 N 0.01802 0.34033 0.36521 0.0
C3 C 0.05493 0.34168 0.36382 0.0
C4 C 1.00787 0.37034 0.37546 0.0
C5 C 0.03917 0.38927 0.38044 0.0
O6 O 0.13822 0.33816 0.393 0.0
C7 C 0.12196 0.42607 0.32366 0.0
O8 O 0.09966 0.43881 0.34621 0.0
H9 H 0.07201 0.32164 0.35605 0.0
H10 H 0.04039 0.41429 0.38906 0.0
N11 N 0.13251 0.41339 0.4047 0.0
N12 N 0.16379 0.45891 0.41853 0.0
C13 C 0.16271 0.43221 0.39873 0.0
C14 C 0.11392 0.42826 0.42978 0.0
C15 C 0.13332 0.45633 0.43852 0.0
C16 C 0.12183 0.32885 0.4208 0.0
O17 O 0.09854 0.34887 0.43495 0.0
H18 H 0.18248 0.42723 0.37871 0.0
H19 H 0.08719 0.42048 0.43948 0.0
O20 O 0.13429 0.39732 0.32962 0.0
H21 H 0.97991 0.37794 0.37954 0.0
H22 H 0.12442 0.47448 0.4565 0.0
Cu23 Cu 0.90268 0.91306 0.66459 0.0
N24 N 0.89107 0.91079 0.61769 0.0
N25 N 0.85424 0.91691 0.57233 0.0
C26 C 0.86687 0.93015 0.60143 0.0
C27 C 0.87191 0.88826 0.56971 0.0
C28 C 0.89416 0.88444 0.59767 0.0
O29 O 0.85961 0.93505 0.6856 0.0
C30 C 0.9495 0.85938 0.6659 0.0
O31 O 0.96341 0.87781 0.64084 0.0
H32 H 0.8565 0.95235 0.61194 0.0
H33 H 0.90835 0.86229 0.60449 0.0
N34 N 0.94435 0.93834 0.67408 0.0
N35 N 0.99748 0.9394 0.70199 0.0
C36 C 0.96118 0.93304 0.70409 0.0
C37 C 0.97069 0.94983 0.65234 0.0
C38 C 1.0036 0.95037 0.66952 0.0
C39 C 0.85642 0.96573 0.67811 0.0
O40 O 0.88358 0.98089 0.66157 0.0
H41 H 0.94829 0.91919 0.72507 0.0
H42 H 0.96741 0.95264 0.62498 0.0
O43 O 0.91971 0.8688 0.68051 0.0
H44 H 0.86659 0.8698 0.55081 0.0
H45 H 0.03045 0.95454 0.65793 0.0
Cu46 Cu 0.36123 0.66009 0.86278 0.0
N47 N 0.36499 0.65664 0.81494 0.0
N48 N 0.37653 0.62912 0.76697 0.0
C49 C 0.38381 0.63221 0.80053 0.0
C50 C 0.35234 0.65291 0.7598 0.0
C51 C 0.34534 0.66992 0.78941 0.0
O52 O 0.3405 0.61786 0.8793 0.0
C53 C 0.41985 0.70134 0.86964 0.0
O54 O 0.39812 0.71833 0.84979 0.0
H55 H 0.40001 0.61513 0.81523 0.0
H56 H 0.3252 0.68875 0.79252 0.0
N57 N 0.33156 0.6931 0.88051 0.0
N58 N 0.31611 0.72825 0.92159 0.0
C59 C 0.33064 0.69891 0.91436 0.0
C60 C 0.31663 0.71965 0.8656 0.0
C61 C 0.30716 0.74138 0.89086 0.0
C62 C 0.31395 0.60649 0.8618 0.0
O63 O 0.30212 0.62387 0.83571 0.0
H64 H 0.34366 0.68314 0.93301 0.0
H65 H 0.31555 0.7243 0.83833 0.0
O66 O 0.4101 0.67211 0.87854 0.0
H67 H 0.33928 0.65673 0.73538 0.0
H68 H 0.29633 0.76563 0.88665 0.0
Cu69 Cu 0.70361 0.18182 0.14268 0.0
N70 N 0.69879 0.22693 0.14596 0.0
N71 N 0.66499 0.27203 0.14418 0.0
C72 C 0.66852 0.24095 0.13382 0.0
C73 C 0.695 0.27815 0.16311 0.0
C74 C 0.7158 0.25006 0.16438 0.0
O75 O 0.65669 0.16468 0.16009 0.0
C76 C 0.74548 0.18262 0.08448 0.0
O77 O 0.76633 0.19943 0.10525 0.0
H78 H 0.64844 0.22771 0.11903 0.0
H79 H 0.74012 0.24622 0.17933 0.0
N80 N 0.7426 0.1633 0.16636 0.0
N81 N 0.79031 0.12967 0.17069 0.0
C82 C 0.75958 0.13721 0.15364 0.0
C83 C 0.76283 0.17269 0.1931 0.0
C84 C 0.79233 0.15187 0.19589 0.0
C85 C 0.64927 0.17369 0.1904 0.0
O86 O 0.67534 0.18828 0.2077 0.0
H87 H 0.75041 0.12546 0.13068 0.0
H88 H 0.75744 0.19379 0.20858 0.0
O89 O 0.71377 0.17289 0.09494 0.0
H90 H 0.70034 0.3005 0.17682 0.0
H91 H 0.81394 0.15364 0.21449 0.0
Cu92 Cu 0.11953 0.57087 0.09656 0.0
N93 N 0.12437 0.5311 0.07364 0.0
N94 N 0.14674 0.48043 0.08016 0.0
C95 C 0.15356 0.51301 0.08192 0.0
C96 C 0.11226 0.4778 0.0684 0.0
C97 C 0.09847 0.50907 0.06443 0.0
O98 O 0.1316 0.55641 0.14339 0.0
C99 C 0.1389 0.61607 0.04558 0.0
O100 O 0.11004 0.60138 0.0326 0.0
H101 H 0.17753 0.52356 0.09382 0.0
H102 H 0.07018 0.51471 0.05976 0.0
N103 N 0.07272 0.58929 0.09729 0.0
N104 N 0.03307 0.63051 0.10051 0.0
C105 C 0.0682 0.62127 0.10376 0.0
C106 C 0.03904 0.57755 0.08998 0.0
C107 C 0.01451 0.60293 0.09205 0.0
C108 C 0.10971 0.53358 0.15444 0.0
O109 O 0.07982 0.52756 0.13712 0.0
H110 H 0.09068 0.63747 0.11045 0.0
H111 H 0.03263 0.55261 0.08315 0.0
O112 O 0.15089 0.60518 0.0742 0.0
H113 H 0.09674 0.45503 0.0666 0.0
H114 H 0.98549 0.60131 0.08677 0.0
Cu115 Cu 0.63841 0.92379 0.36098 0.0
N116 N 0.61282 0.95241 0.33215 0.0
N117 N 0.5762 0.96699 0.28912 0.0
C118 C 0.59151 0.94196 0.30656 0.0
C119 C 0.58842 0.99444 0.3044 0.0
C120 C 0.61125 0.98538 0.33081 0.0
O121 O 0.60937 0.88318 0.36469 0.0
C122 C 0.70351 0.93825 0.32237 0.0
O123 O 0.68272 0.95213 0.29927 0.0
H124 H 0.58689 0.91627 0.30126 0.0
H125 H 0.62596 1.00172 0.34743 0.0
N126 N 0.64682 0.93888 0.40494 0.0
N127 N 0.68632 0.94226 0.44818 0.0
C128 C 0.67135 0.92301 0.42422 0.0
C129 C 0.64515 0.9692 0.41782 0.0
C130 C 0.66933 0.97126 0.44476 0.0
C131 C 0.57624 0.88649 0.3747 0.0
O132 O 0.56536 0.91588 0.38298 0.0
H133 H 0.68109 0.89892 0.41798 0.0
H134 H 0.63066 0.9894 0.40633 0.0
O135 O 0.68876 0.91912 0.34495 0.0
H136 H 0.58175 1.01927 0.29678 0.0
H137 H 0.67665 0.99335 0.45819 0.0
Cu138 Cu 0.41787 0.38982 0.63611 0.0
N139 N 0.42765 0.38811 0.58892 0.0
N140 N 0.44026 0.36659 0.53776 0.0
C141 C 0.42638 0.36097 0.56966 0.0
C142 C 0.44995 0.39879 0.53692 0.0
C143 C 0.4424 0.41186 0.56847 0.0
O144 O 0.4304 0.34553 0.65448 0.0
C145 C 0.35883 0.41956 0.67229 0.0
O146 O 0.37989 0.41418 0.69876 0.0
H147 H 0.41632 0.33738 0.5793 0.0
H148 H 0.44848 0.43663 0.57634 0.0
N149 N 0.4476 0.4222 0.65577 0.0
N150 N 0.45713 0.46975 0.68267 0.0
C151 C 0.43815 0.45393 0.65824 0.0
C152 C 0.4743 0.41786 0.67865 0.0
C153 C 0.48036 0.44706 0.6951 0.0
C154 C 0.46044 0.33308 0.64374 0.0
O155 O 0.48232 0.3512 0.62385 0.0
H156 H 0.41549 0.4642 0.64436 0.0
H157 H 0.486 0.39443 0.68527 0.0
O158 O 0.36764 0.40667 0.64375 0.0
H159 H 0.46268 0.41192 0.51545 0.0
H160 H 0.49822 0.45022 0.7167 0.0
Cu161 Cu 0.89663 0.13111 0.85786 0.0
N162 N 0.85677 0.10393 0.84585 0.0
N163 N 0.81535 0.06331 0.85573 0.0
C164 C 0.84826 0.07635 0.86402 0.0
C165 C 0.80244 0.08367 0.83117 0.0
C166 C 0.82807 0.10879 0.82515 0.0
O167 O 0.88914 0.13667 0.90678 0.0
C168 C 0.9451 0.08993 0.82185 0.0
O169 O 0.91537 0.07251 0.81577 0.0
H170 H 0.86523 0.06709 0.88443 0.0
H171 H 0.82515 0.12985 0.80819 0.0
N172 N 0.89861 0.17332 0.83847 0.0
N173 N 0.92731 0.22247 0.83634 0.0
C174 C 0.91158 0.19874 0.8565 0.0
C175 C 0.90605 0.1814 0.80549 0.0
C176 C 0.92365 0.21178 0.80408 0.0
C177 C 0.8574 0.14783 0.91333 0.0
O178 O 0.83624 0.15583 0.88765 0.0
H179 H 0.91412 0.19772 0.88406 0.0
H180 H 0.90318 0.16474 0.78446 0.0
O181 O 0.94343 0.11323 0.843 0.0
H182 H 0.77619 0.08096 0.81887 0.0
H183 H 0.93539 0.22376 0.78141 0.0
Cu184 Cu 0.40167 0.16926 0.37373 0.0
N185 N 0.41746 0.1864 0.33119 0.0
N186 N 0.45979 0.19471 0.28987 0.0
C187 C 0.45333 0.19053 0.32372 0.0
C188 C 0.42652 0.19324 0.27525 0.0
C189 C 0.40033 0.18814 0.3009 0.0
O190 O 0.40122 0.12145 0.36775 0.0
C191 C 0.43213 0.22074 0.40685 0.0
O192 O 0.41636 0.23456 0.38034 0.0
H193 H 0.47456 0.18768 0.34258 0.0
H194 H 0.37133 0.18373 0.2974 0.0
N195 N 0.35513 0.18089 0.38885 0.0
N196 N 0.31161 0.18571 0.42927 0.0
C197 C 0.34493 0.17403 0.42136 0.0
C198 C 0.32751 0.19796 0.37524 0.0
C199 C 0.30043 0.20086 0.40019 0.0
C200 C 0.37509 0.11139 0.34887 0.0
O201 O 0.35065 0.13274 0.33906 0.0
H202 H 0.36261 0.16146 0.43908 0.0
H203 H 0.32726 0.20788 0.34937 0.0
O204 O 0.43222 0.18936 0.4089 0.0
H205 H 0.42163 0.19439 0.248 0.0
H206 H 0.27461 0.21311 0.39699 0.0
Cu207 Cu 0.14052 0.12102 0.61718 0.0
N208 N 0.11356 0.13415 0.57875 0.0
N209 N 0.09755 0.16543 0.53364 0.0
C210 C 0.12243 0.16036 0.55836 0.0
C211 C 0.07189 0.14144 0.5387 0.0
C212 C 0.08192 0.1221 0.56639 0.0
O213 O 0.18732 0.14396 0.60932 0.0
C214 C 0.08717 0.11242 0.66724 0.0
O215 O 0.07763 0.08989 0.64535 0.0
H216 H 0.14578 0.1764 0.56258 0.0
H217 H 0.06681 0.10118 0.57711 0.0
N218 N 0.14714 0.07538 0.61988 0.0
N219 N 0.15504 0.0264 0.64535 0.0
C220 C 0.15944 0.05918 0.64779 0.0
C221 C 0.1345 0.05195 0.59905 0.0
C222 C 0.13914 0.02167 0.61484 0.0
C223 C 0.2173 0.12906 0.60482 0.0
O224 O 0.21993 0.09869 0.61618 0.0
H225 H 0.16926 0.07131 0.67039 0.0
H226 H 0.12095 0.05661 0.57505 0.0
O227 O 0.11415 0.1317 0.6595 0.0
H228 H 0.0473 0.13841 0.5238 0.0
H229 H 0.13044 0.9981 0.60521 0.0
Cu230 Cu 0.18093 0.86756 0.88659 0.0
N231 N 0.20654 0.88112 0.84649 0.0
N232 N 0.21753 0.90992 0.79781 0.0
C233 C 0.19269 0.90145 0.82243 0.0
C234 C 0.24853 0.89459 0.80683 0.0
C235 C 0.24167 0.8768 0.83685 0.0
O236 O 0.12968 0.87337 0.87489 0.0
C237 C 0.18638 0.89292 0.95331 0.0
O238 O 0.16016 0.87131 0.96075 0.0
H239 H 0.16532 0.91115 0.82376 0.0
H240 H 0.26128 0.86263 0.85106 0.0
N241 N 0.19147 0.82438 0.90147 0.0
N242 N 0.18763 0.77631 0.93085 0.0
C243 C 0.16892 0.80183 0.9172 0.0
C244 C 0.22543 0.81264 0.90547 0.0
C245 C 0.22312 0.78317 0.9233 0.0
C246 C 0.11917 0.8594 0.84774 0.0
O247 O 0.1401 0.83678 0.83473 0.0
H248 H 0.13969 0.80502 0.92027 0.0
H249 H 0.25042 0.82547 0.89765 0.0
O250 O 0.19729 0.89645 0.92241 0.0
H251 H 0.27439 0.8964 0.79296 0.0
H252 H 0.2459 0.76822 0.93075 0.0
Cu253 Cu 0.3595 0.91738 0.1425 0.0
N254 N 0.3517 0.87455 0.12665 0.0
N255 N 0.33889 0.8365 0.08745 0.0
C256 C 0.35335 0.86664 0.0933 0.0
C257 C 0.32819 0.82478 0.11869 0.0
C258 C 0.33586 0.84835 0.14271 0.0
O259 O 0.32874 0.94359 0.11305 0.0
C260 C 0.43458 0.90956 0.15057 0.0
O261 O 0.4249 0.87837 0.152 0.0
H262 H 0.36371 0.88337 0.07353 0.0
H263 H 0.3283 0.84722 0.16956 0.0
N264 N 0.34649 0.92298 0.18846 0.0
N265 N 0.34475 0.953 0.2359 0.0
C266 C 0.33887 0.95237 0.20182 0.0
C267 C 0.35751 0.90434 0.21513 0.0
C268 C 0.35638 0.92276 0.24442 0.0
C269 C 0.33876 0.95053 0.08243 0.0
O270 O 0.37361 0.94826 0.07407 0.0
H271 H 0.33312 0.9739 0.18628 0.0
H272 H 0.36919 0.88028 0.21288 0.0
O273 O 0.41092 0.93055 0.14171 0.0
H274 H 0.31389 0.80167 0.12371 0.0
H275 H 0.36545 0.91514 0.26957 0.0
Cu276 Cu 0.37192 0.38173 0.14433 0.0
N277 N 0.41701 0.37471 0.12219 0.0
N278 N 0.47362 0.35591 0.11355 0.0
C279 C 0.43898 0.34851 0.12438 0.0
C280 C 0.47307 0.38771 0.10339 0.0
C281 C 0.43842 0.39923 0.10906 0.0
O282 O 0.38445 0.39166 0.19179 0.0
C283 C 0.34527 0.41607 0.08714 0.0
O284 O 0.36966 0.39803 0.07174 0.0
H285 H 0.43062 0.32536 0.13633 0.0
H286 H 0.43002 0.42442 0.1061 0.0
N287 N 0.3384 0.34607 0.14427 0.0
N288 N 0.27829 0.33843 0.13417 0.0
C289 C 0.31171 0.34595 0.12068 0.0
C290 C 0.32172 0.33457 0.17314 0.0
C291 C 0.2849 0.32996 0.16701 0.0
C292 C 0.40146 0.36968 0.20876 0.0
O293 O 0.40672 0.34116 0.19471 0.0
H294 H 0.31508 0.35798 0.09607 0.0
H295 H 0.33332 0.33609 0.19835 0.0
O296 O 0.34499 0.41643 0.11984 0.0
H297 H 0.49647 0.40218 0.09419 0.0
H298 H 0.26387 0.32697 0.18671 0.0
Cu299 Cu 0.9116 0.88774 0.1148 0.0
N300 N 0.92085 0.93006 0.09751 0.0
N301 N 0.90505 0.98278 0.09808 0.0
C302 C 0.89318 0.95134 0.09696 0.0
C303 C 0.94194 0.9814 0.09863 0.0
C304 C 0.95166 0.94876 0.09824 0.0
O305 O 0.88571 0.89796 0.15719 0.0
C306 C 0.89144 0.86393 0.05141 0.0
O307 O 0.91803 0.88424 0.04145 0.0
H308 H 0.86479 0.94366 0.10056 0.0
H309 H 0.97892 0.93957 0.10179 0.0
N310 N 0.95403 0.86313 0.12144 0.0
N311 N 0.99058 0.81957 0.12014 0.0
C312 C 0.95642 0.83082 0.11514 0.0
C313 C 0.98791 0.87266 0.1308 0.0
C314 C 1.01043 0.8459 0.13007 0.0
C315 C 0.90468 0.9084 0.18199 0.0
O316 O 0.93991 0.90258 0.18213 0.0
H317 H 0.93369 0.8161 0.10606 0.0
H318 H 0.99586 0.89726 0.13774 0.0
O319 O 0.88195 0.86291 0.08292 0.0
H320 H 0.96037 1.00222 0.10164 0.0
H321 H 0.03919 0.84588 0.13653 0.0
Cu322 Cu 0.15232 0.63558 0.67798 0.0
N323 N 0.1922 0.61457 0.69975 0.0
N324 N 0.23644 0.57751 0.70925 0.0
C325 C 0.20621 0.58519 0.69107 0.0
C326 C 0.24153 0.60337 0.72999 0.0
C327 C 0.2145 0.62601 0.72405 0.0
O328 O 0.16723 0.63895 0.62986 0.0
C329 C 0.10184 0.60367 0.71997 0.0
O330 O 0.12976 0.60549 0.74075 0.0
H331 H 0.19443 0.56986 0.67163 0.0
H332 H 0.21188 0.64954 0.73602 0.0
N333 N 0.13887 0.67789 0.69286 0.0
N334 N 0.10064 0.72096 0.69514 0.0
C335 C 0.11603 0.69778 0.6753 0.0
C336 C 0.13776 0.68892 0.72511 0.0
C337 C 0.11456 0.71544 0.72654 0.0
C338 C 0.19926 0.65145 0.6248 0.0
O339 O 0.21715 0.66285 0.65112 0.0
H340 H 0.10843 0.69349 0.64907 0.0
H341 H 0.1505 0.67695 0.74672 0.0
O342 O 0.10733 0.61085 0.68835 0.0
H343 H 0.26381 0.60632 0.74774 0.0
H344 H 0.10752 0.72881 0.74926 0.0
Cu345 Cu 0.65366 0.85942 0.90268 0.0
N346 N 0.66689 0.86453 0.85628 0.0
N347 N 0.66866 0.90026 0.81179 0.0
C348 C 0.67899 0.89403 0.84419 0.0
C349 C 0.65097 0.87272 0.80212 0.0
C350 C 0.64975 0.85079 0.82964 0.0
O351 O 0.66303 0.90349 0.92047 0.0
C352 C 0.59707 0.81329 0.89956 0.0
O353 O 0.6254 0.79487 0.89325 0.0
H354 H 0.69026 0.91274 0.86023 0.0
H355 H 0.63271 0.82883 0.83151 0.0
N356 N 0.6799 0.82809 0.92765 0.0
N357 N 0.68759 0.79229 0.97096 0.0
C358 C 0.67197 0.82045 0.96063 0.0
C359 C 0.70183 0.80409 0.91674 0.0
C360 C 0.70649 0.78181 0.94349 0.0
C361 C 0.69601 0.91101 0.92821 0.0
O362 O 0.71898 0.88703 0.9334 0.0
H363 H 0.65277 0.834 0.97597 0.0
H364 H 0.71145 0.80168 0.89063 0.0
O365 O 0.60246 0.84392 0.90443 0.0
H366 H 0.63558 0.87043 0.77876 0.0
H367 H 0.72152 0.7592 0.94251 0.0
Cu368 Cu 0.8692 0.12257 0.34564 0.0
N369 N 0.84502 0.15287 0.37313 0.0
N370 N 0.84473 0.19558 0.40845 0.0
C371 C 0.8641 0.17063 0.39577 0.0
C372 C 0.81152 0.193 0.39373 0.0
C373 C 0.81186 0.16675 0.37172 0.0
O374 O 0.91668 0.14443 0.33872 0.0
C375 C 0.84416 0.06922 0.38725 0.0
O376 O 0.82567 0.09122 0.40401 0.0
H377 H 0.89251 0.16612 0.40155 0.0
H378 H 0.79018 0.15963 0.3547 0.0
N379 N 0.84843 0.11313 0.30333 0.0
N380 N 0.83997 0.07527 0.26307 0.0
C381 C 0.86408 0.0902 0.28391 0.0
C382 C 0.81311 0.11351 0.29378 0.0
C383 C 0.80794 0.09049 0.26867 0.0
C384 C 0.91385 0.17254 0.32412 0.0
O385 O 0.88282 0.17929 0.30901 0.0
H386 H 0.89176 0.08212 0.2881 0.0
H387 H 0.79168 0.12643 0.30683 0.0
O388 O 0.86971 0.07886 0.36669 0.0
H389 H 0.78934 0.20995 0.39704 0.0
H390 H 0.7818 0.08311 0.25824 0.0
Cu391 Cu 0.63988 0.14386 0.67969 0.0
N392 N 0.66245 0.18567 0.67815 0.0
N393 N 0.65973 0.23664 0.65518 0.0
C394 C 0.64242 0.21306 0.67444 0.0
C395 C 0.693 0.22425 0.64808 0.0
C396 C 0.69455 0.19294 0.66215 0.0
O397 O 0.59309 0.1535 0.65651 0.0
C398 C 0.69939 0.10035 0.68013 0.0
O399 O 0.70378 0.11436 0.70978 0.0
H400 H 0.6137 0.21389 0.68114 0.0
H401 H 0.71534 0.17517 0.65658 0.0
N402 N 0.63036 0.12717 0.72381 0.0
N403 N 0.63121 0.0862 0.76274 0.0
C404 C 0.62589 0.09469 0.72969 0.0
C405 C 0.63778 0.14007 0.75441 0.0
C406 C 0.63804 0.1148 0.77858 0.0
C407 C 0.56615 0.16473 0.67391 0.0
O408 O 0.56576 0.15981 0.70722 0.0
H409 H 0.6222 0.07738 0.70935 0.0
H410 H 0.64593 0.16536 0.75826 0.0
O411 O 0.67395 0.11076 0.66035 0.0
H412 H 0.71323 0.23545 0.6308 0.0
H413 H 0.64594 0.11702 0.80504 0.0
Cu414 Cu 0.11193 0.41713 0.88553 0.0
N415 N 0.06883 0.43814 0.87317 0.0
N416 N 0.02368 0.4427 0.83508 0.0
C417 C 0.06016 0.44082 0.83987 0.0
C418 C 1.00865 0.44171 0.86683 0.0
C419 C 0.03657 0.43884 0.89029 0.0
O420 O 0.10168 0.3723 0.87122 0.0
C421 C 0.16163 0.4674 0.87674 0.0
O422 O 0.1399 0.47861 0.90068 0.0
H423 H 0.07987 0.43691 0.81946 0.0
H424 H 0.0331 0.43366 0.9174 0.0
N425 N 0.12393 0.4178 0.93206 0.0
N426 N 0.16524 0.41971 0.97402 0.0
C427 C 0.15722 0.40854 0.94264 0.0
C428 C 0.10999 0.43531 0.95785 0.0
C429 C 0.13543 0.43648 0.98379 0.0
C430 C 0.07583 0.3579 0.88835 0.0
O431 O 0.06464 0.37134 0.91682 0.0
H432 H 0.17656 0.39646 0.92611 0.0
H433 H 0.08471 0.4487 0.95671 0.0
O434 O 0.15345 0.44008 0.86305 0.0
H435 H 0.97955 0.44062 0.87258 0.0
H436 H 0.13285 0.44986 1.00721 0.0
Cu437 Cu 0.38 0.66553 0.4061 0.0
N438 N 0.34662 0.64165 0.37994 0.0
N439 N 0.30408 0.6035 0.36792 0.0
C440 C 0.32719 0.6152 0.39161 0.0
C441 C 0.30945 0.62323 0.34004 0.0
C442 C 0.3356 0.64686 0.3476 0.0
O443 O 0.36247 0.66085 0.45343 0.0
C444 C 0.44226 0.65875 0.36699 0.0
O445 O 0.4208 0.67418 0.34555 0.0
H446 H 0.32998 0.60477 0.41711 0.0
H447 H 0.34547 0.66667 0.3309 0.0
N448 N 0.3817 0.71032 0.39459 0.0
N449 N 0.40675 0.76028 0.38531 0.0
C450 C 0.41184 0.72958 0.39762 0.0
C451 C 0.35638 0.7295 0.38009 0.0
C452 C 0.37173 0.76044 0.37447 0.0
C453 C 0.32865 0.66715 0.45839 0.0
O454 O 0.30928 0.67752 0.43235 0.0
H455 H 0.43721 0.72101 0.40835 0.0
H456 H 0.32905 0.7214 0.3734 0.0
O457 O 0.42962 0.65022 0.39654 0.0
H458 H 0.29493 0.6212 0.31619 0.0
H459 H 0.35849 0.78113 0.36242 0.0
Cu460 Cu 0.86724 0.643 0.87893 0.0
N461 N 0.83711 0.62489 0.84545 0.0
N462 N 0.82215 0.59813 0.79801 0.0
C463 C 0.84804 0.60352 0.82166 0.0
C464 C 0.79337 0.61627 0.80769 0.0
C465 C 0.80276 0.6329 0.83689 0.0
O466 O 0.91732 0.63303 0.86495 0.0
C467 C 0.8741 0.62757 0.94998 0.0
O468 O 0.90817 0.63787 0.94529 0.0
H469 H 0.87488 0.59268 0.82121 0.0
H470 H 0.78632 0.65059 0.85012 0.0
N471 N 0.86147 0.68847 0.88037 0.0
N472 N 0.85952 0.73927 0.90086 0.0
C473 C 0.86512 0.70726 0.90817 0.0
C474 C 0.85293 0.70927 0.85464 0.0
C475 C 0.85195 0.74067 0.86715 0.0
C476 C 0.92697 0.64161 0.83451 0.0
O477 O 0.90446 0.65921 0.81606 0.0
H478 H 0.87259 0.69776 0.93311 0.0
H479 H 0.8479 0.70213 0.8286 0.0
O480 O 0.85314 0.62575 0.92424 0.0
H481 H 0.76802 0.61849 0.79383 0.0
H482 H 0.84605 0.76277 0.8526 0.0
Cu483 Cu 0.66976 0.62856 0.18318 0.0
N484 N 0.71839 0.62453 0.16813 0.0
N485 N 0.76114 0.62247 0.12643 0.0
C486 C 0.72595 0.61586 0.13579 0.0
C487 C 0.7766 0.63526 0.15458 0.0
C488 C 0.75008 0.63672 0.18019 0.0
O489 O 0.64779 0.65052 0.14374 0.0
C490 C 0.66736 0.56718 0.21513 0.0
O491 O 0.70261 0.5737 0.21755 0.0
H492 H 0.70505 0.60685 0.11882 0.0
H493 H 0.75307 0.64813 0.20476 0.0
N494 N 0.66291 0.65305 0.22273 0.0
N495 N 0.63221 0.66945 0.26908 0.0
C496 C 0.63338 0.64803 0.24336 0.0
C497 C 0.68147 0.67852 0.23612 0.0
C498 C 0.66222 0.689 0.26453 0.0
C499 C 0.65942 0.67986 0.13789 0.0
O500 O 0.67963 0.69405 0.16106 0.0
H501 H 0.61198 0.63007 0.23847 0.0
H502 H 0.70641 0.68944 0.2254 0.0
O503 O 0.64795 0.58615 0.19678 0.0
H504 H 0.80426 0.64516 0.15586 0.0
H505 H 0.66918 0.70982 0.2801 0.0
Cu506 Cu 0.56652 0.39281 0.42848 0.0
N507 N 0.56458 0.43707 0.41481 0.0
N508 N 0.57195 0.47882 0.37692 0.0
C509 C 0.58062 0.44766 0.38528 0.0
C510 C 0.54945 0.4883 0.4025 0.0
C511 C 0.54486 0.46244 0.42582 0.0
O512 O 0.54137 0.36956 0.39225 0.0
C513 C 0.63169 0.39956 0.45875 0.0
O514 O 0.61188 0.42244 0.47267 0.0
H515 H 0.59675 0.43189 0.36928 0.0
H516 H 0.52713 0.46179 0.4482 0.0
N517 N 0.54748 0.38024 0.47186 0.0
N518 N 0.56143 0.35268 0.5203 0.0
C519 C 0.55986 0.3521 0.48577 0.0
C520 C 0.53899 0.39891 0.49878 0.0
C521 C 0.54724 0.38184 0.52866 0.0
C522 C 0.50962 0.38027 0.3852 0.0
O523 O 0.49518 0.40225 0.4052 0.0
H524 H 0.57248 0.33355 0.47037 0.0
H525 H 0.53261 0.42465 0.49697 0.0
O526 O 0.61827 0.38335 0.43412 0.0
H527 H 0.53661 0.51195 0.40401 0.0
H528 H 0.54724 0.39189 0.55409 0.0
Cu529 Cu 0.86626 0.39839 0.61537 0.0
N530 N 0.89007 0.37317 0.58225 0.0
N531 N 0.89026 0.33573 0.54088 0.0
C532 C 0.87373 0.34613 0.5697 0.0
C533 C 0.91913 0.35656 0.53568 0.0
C534 C 0.91885 0.37973 0.56114 0.0
O535 O 0.81445 0.39203 0.60548 0.0
C536 C 0.91553 0.39524 0.6667 0.0
O537 O 0.93592 0.40427 0.64005 0.0
H538 H 0.84864 0.33557 0.58053 0.0
H539 H 0.93696 0.40089 0.56273 0.0
N540 N 0.87499 0.44374 0.6132 0.0
N541 N 0.87633 0.49299 0.63755 0.0
C542 C 0.86045 0.46289 0.6373 0.0
C543 C 0.90088 0.46251 0.59707 0.0
C544 C 0.9018 0.49296 0.61213 0.0
C545 C 0.80731 0.39888 0.57426 0.0
O546 O 0.83365 0.41128 0.5544 0.0
H547 H 0.84104 0.45369 0.65655 0.0
H548 H 0.91961 0.45407 0.57767 0.0
O549 O 0.88216 0.38697 0.6616 0.0
H550 H 0.93765 0.35651 0.51382 0.0
H551 H 0.921 0.51285 0.60606 0.0
H552 H 0.06585 0.29198 0.44598 0.0
H553 H 0.18272 0.29031 0.42919 0.0
H554 H 0.18553 0.23828 0.46198 0.0
H555 H 0.15473 0.19562 0.49998 0.0
H556 H 0.03739 0.19772 0.51398 0.0
H557 H 0.03471 0.24715 0.47791 0.0
C558 C 0.09197 0.28009 0.4493 0.0
C559 C 0.12413 0.29515 0.43561 0.0
C560 C 0.09325 0.25041 0.46809 0.0
C561 C 0.15762 0.2792 0.4395 0.0
C562 C 0.15921 0.24961 0.45854 0.0
C563 C 0.12865 0.20692 0.49494 0.0
C564 C 0.09629 0.19313 0.50996 0.0
C565 C 0.12728 0.23538 0.47371 0.0
C566 C 0.06259 0.20767 0.5027 0.0
C567 C 0.06108 0.23606 0.4822 0.0
H568 H 1.00083 0.9444 0.77036 0.0
H569 H 0.0511 0.89864 0.68369 0.0
H570 H 0.09098 0.86758 0.72169 0.0
H571 H 0.112 0.85391 0.77922 0.0
H572 H 0.06446 0.9011 0.86662 0.0
H573 H 0.02287 0.93099 0.82886 0.0
C574 C 0.02098 0.92796 0.75999 0.0
C575 C 0.02369 0.92433 0.72431 0.0
C576 C 0.04394 0.91024 0.78211 0.0
C577 C 0.04929 0.90251 0.71098 0.0
C578 C 0.07173 0.88445 0.73273 0.0
C579 C 0.09221 0.87035 0.7902 0.0
C580 C 0.09106 0.87491 0.82584 0.0
C581 C 0.0693 0.88813 0.7683 0.0
C582 C 0.06571 0.89691 0.83935 0.0
C583 C 0.0421 0.91415 0.81773 0.0
H584 H 0.3278 0.77186 0.07466 0.0
H585 H 0.33548 0.86742 0.0251 0.0
H586 H 0.32769 0.84253 0.96958 0.0
H587 H 0.32115 0.79339 0.93436 0.0
H588 H 0.31098 0.69809 0.98383 0.0
H589 H 0.3167 0.72313 0.03977 0.0
C590 C 0.32747 0.78736 0.05184 0.0
C591 C 0.33297 0.82156 0.05448 0.0
C592 C 0.32252 0.77288 0.01969 0.0
C593 C 0.33244 0.84102 0.02424 0.0
C594 C 0.32762 0.8268 0.99227 0.0
C595 C 0.31971 0.7781 0.95734 0.0
C596 C 0.31608 0.74375 0.95466 0.0
C597 C 0.32305 0.79271 0.9896 0.0
C598 C 0.31444 0.72446 0.98495 0.0
C599 C 0.31761 0.73881 0.01704 0.0
H600 H 0.47993 0.16687 0.23021 0.0
H601 H 0.5202 0.22448 0.31353 0.0
H602 H 0.58249 0.22188 0.2905 0.0
H603 H 0.62556 0.2023 0.24803 0.0
H604 H 0.587 0.14541 0.16339 0.0
H605 H 0.52395 0.1484 0.1857 0.0
C606 C 0.50232 0.17923 0.24293 0.0
C607 C 0.49551 0.19579 0.27363 0.0
C608 C 0.53833 0.17736 0.22961 0.0
C609 C 0.52484 0.21137 0.2901 0.0
C610 C 0.56044 0.20985 0.27696 0.0
C611 C 0.60352 0.19031 0.23442 0.0
C612 C 0.61115 0.17336 0.20422 0.0
C613 C 0.56755 0.19257 0.24705 0.0
C614 C 0.58199 0.15839 0.18685 0.0
C615 C 0.54591 0.16024 0.19952 0.0
H616 H 0.22237 0.74116 0.98029 0.0
H617 H 0.12059 0.74756 0.92573 0.0
H618 H 0.09696 0.69877 0.9566 0.0
H619 H 0.10542 0.65367 0.99786 0.0
H620 H 0.20611 0.64714 0.05398 0.0
H621 H 0.23012 0.69647 0.02347 0.0
C622 C 0.19508 0.73183 0.97498 0.0
C623 C 0.17336 0.74812 0.95038 0.0
C624 C 0.18156 0.70365 0.99302 0.0
C625 C 0.1378 0.73585 0.94454 0.0
C626 C 0.12435 0.70778 0.96209 0.0
C627 C 0.13272 0.66287 1.00346 0.0
C628 C 0.15408 0.64636 0.02802 0.0
C629 C 0.14603 0.69138 0.98618 0.0
C630 C 0.18911 0.65917 0.0352 0.0
C631 C 0.20282 0.68739 0.01771 0.0
H632 H 0.574 0.91953 0.24223 0.0
H633 H 0.52157 1.00845 0.27263 0.0
H634 H 0.47539 1.00097 0.22848 0.0
H635 H 0.44647 0.96608 0.18517 0.0
H636 H 0.49747 0.87561 0.15737 0.0
H637 H 0.54782 0.8869 0.19626 0.0
C638 C 0.55251 0.93731 0.23919 0.0
C639 C 0.55104 0.9643 0.26103 0.0
C640 C 0.52583 0.93259 0.21408 0.0
C641 C 0.52347 0.98752 0.25614 0.0
C642 C 0.49694 0.98316 0.23098 0.0
C643 C 0.46912 0.9493 0.18692 0.0
C644 C 0.46833 0.92007 0.16827 0.0
C645 C 0.49744 0.95544 0.21022 0.0
C646 C 0.49752 0.89828 0.17137 0.0
C647 C 0.52619 0.90462 0.19377 0.0
H648 H 0.44331 0.29987 0.5436 0.0
H649 H 0.44731 0.38028 0.4698 0.0
H650 H 0.45072 0.34169 0.42342 0.0
H651 H 0.44697 0.28568 0.40313 0.0
H652 H 0.43944 0.20439 0.47536 0.0
H653 H 0.44371 0.24272 0.52291 0.0
C654 C 0.44478 0.30904 0.51742 0.0
C655 C 0.44444 0.34325 0.51051 0.0
C656 C 0.44634 0.28651 0.49047 0.0
C657 C 0.44752 0.35436 0.47624 0.0
C658 C 0.44941 0.33223 0.44952 0.0
C659 C 0.44676 0.27619 0.42927 0.0
C660 C 0.44262 0.24216 0.43563 0.0
C661 C 0.44811 0.29834 0.45629 0.0
C662 C 0.44282 0.23039 0.46967 0.0
C663 C 0.44485 0.25238 0.49687 0.0
H664 H 0.05021 0.06221 0.69827 0.0
H665 H 0.08008 0.16394 0.71152 0.0
H666 H 0.04193 0.16493 0.76382 0.0
H667 H 0.9952 0.1379 0.80235 0.0
H668 H 0.96547 0.03634 0.78696 0.0
H669 H 1.00899 0.0341 0.73923 0.0
C670 C 0.04857 0.08465 0.71263 0.0
C671 C 0.06744 0.11316 0.70068 0.0
C672 C 0.02668 0.08496 0.74238 0.0
C673 C 0.06564 0.14174 0.72005 0.0
C674 C 0.04377 0.14228 0.7499 0.0
C675 C 0.99898 0.11507 0.7891 0.0
C676 C 0.97702 0.08728 0.79821 0.0
C677 C 0.02355 0.11418 0.76094 0.0
C678 C 0.98191 0.05803 0.78046 0.0
C679 C 1.00666 0.05679 0.75302 0.0
H680 H 0.1538 0.41707 0.06123 0.0
H681 H 0.18617 0.48626 0.13778 0.0
H682 H 0.22575 0.44603 0.16382 0.0
H683 H 0.25642 0.39358 0.16177 0.0
H684 H 0.23227 0.32609 0.08177 0.0
H685 H 0.18479 0.36298 0.05973 0.0
C686 C 0.16948 0.42316 0.08364 0.0
C687 C 0.16774 0.45507 0.09678 0.0
C688 C 0.19381 0.40014 0.09779 0.0
C689 C 0.1878 0.46243 0.12625 0.0
C690 C 0.21037 0.43931 0.1414 0.0
C691 C 0.23991 0.3866 0.14012 0.0
C692 C 0.24679 0.35684 0.124 0.0
C693 C 0.21432 0.40848 0.12689 0.0
C694 C 0.22659 0.34853 0.09502 0.0
C695 C 0.19971 0.36971 0.0824 0.0
H696 H 0.74219 0.05021 0.86427 0.0
H697 H 0.84932 1.01091 0.88278 0.0
H698 H 0.82159 0.9626 0.9108 0.0
H699 H 0.76758 0.93016 0.92782 0.0
H700 H 0.6596 0.96692 0.90802 0.0
H701 H 0.68703 1.01779 0.88373 0.0
C702 C 0.75941 0.03099 0.87428 0.0
C703 C 0.79795 0.03441 0.87139 0.0
C704 C 0.74315 1.00288 0.89049 0.0
C705 C 0.81974 1.00931 0.88494 0.0
C706 C 0.80387 0.98154 0.90095 0.0
C707 C 0.74979 0.94937 0.91866 0.0
C708 C 0.71145 0.94444 0.91974 0.0
C709 C 0.76568 0.97799 0.90376 0.0
C710 C 0.68916 0.96989 0.90765 0.0
C711 C 0.70486 0.99888 0.89336 0.0
H712 H 0.83806 0.03547 0.32838 0.0
H713 H 0.80828 0.03111 0.43546 0.0
H714 H 0.76632 0.98493 0.42529 0.0
H715 H 0.73102 0.95232 0.38457 0.0
H716 H 0.75479 0.96214 0.27655 0.0
H717 H 0.80622 0.99922 0.2883 0.0
C718 C 0.82329 0.02372 0.34965 0.0
C719 C 0.8265 0.03656 0.38271 0.0
C720 C 0.79769 0.99838 0.34323 0.0
C721 C 0.80648 0.02153 0.40987 0.0
C722 C 0.78229 0.99526 0.40399 0.0
C723 C 0.74826 0.96168 0.3637 0.0
C724 C 0.73932 0.95419 0.32972 0.0
C725 C 0.77663 0.98435 0.37058 0.0
C726 C 0.76127 0.96734 0.30289 0.0
C727 C 0.7906 0.98873 0.30962 0.0
H728 H 0.77927 0.07955 0.12748 0.0
H729 H 0.86106 0.12335 0.19212 0.0
H730 H 0.9051 0.08255 0.17389 0.0
H731 H 0.91994 0.03358 0.13985 0.0
H732 H 0.8378 0.99285 0.0738 0.0
H733 H 0.79462 0.03432 0.09153 0.0
C734 C 0.80682 0.08103 0.13722 0.0
C735 C 0.81655 0.10514 0.16096 0.0
C736 C 0.8322 0.05813 0.12603 0.0
C737 C 0.85242 0.10526 0.17391 0.0
C738 C 0.87783 0.08201 0.16326 0.0
C739 C 0.89289 0.03432 0.12878 0.0
C740 C 0.88205 1.01019 0.10543 0.0
C741 C 0.86803 0.05834 0.13923 0.0
C742 C 0.84664 1.01105 0.09189 0.0
C743 C 0.82195 0.03469 0.10207 0.0
H744 H 0.24365 0.5349 0.65612 0.0
H745 H 0.28069 0.55342 0.75843 0.0
H746 H 0.31918 0.50558 0.75667 0.0
H747 H 0.34442 0.45926 0.72598 0.0
H748 H 0.3103 0.44046 0.62289 0.0
H749 H 0.2687 0.48702 0.62525 0.0
C750 C 0.25983 0.52835 0.67817 0.0
C751 C 0.2588 0.54823 0.70752 0.0
C752 C 0.28265 0.5005 0.67688 0.0
C753 C 0.28067 0.53916 0.73547 0.0
C754 C 0.30276 0.5115 0.73455 0.0
C755 C 0.32759 0.4649 0.70405 0.0
C756 C 0.33052 0.44585 0.67435 0.0
C757 C 0.30422 0.4921 0.70537 0.0
C758 C 0.30864 0.45428 0.64621 0.0
C759 C 0.28488 0.48111 0.64751 0.0
H760 H 0.20033 0.47945 0.36126 0.0
H761 H 0.18422 0.50106 0.46788 0.0
H762 H 0.2267 0.54816 0.46174 0.0
H763 H 0.26837 0.5832 0.42578 0.0
H764 H 0.28249 0.56194 0.31883 0.0
H765 H 0.24042 0.5148 0.32528 0.0
C766 C 0.20616 0.49425 0.38327 0.0
C767 C 0.18914 0.48652 0.41508 0.0
C768 C 0.23014 0.52147 0.37939 0.0
C769 C 0.19677 0.50649 0.44311 0.0
C770 C 0.22114 0.53337 0.43961 0.0
C771 C 0.26245 0.56808 0.40397 0.0
C772 C 0.27877 0.57599 0.37187 0.0
C773 C 0.238 0.54108 0.40785 0.0
C774 C 0.27017 0.55654 0.3437 0.0
C775 C 0.24627 0.52948 0.34743 0.0
H776 H 0.28436 0.56353 0.81824 0.0
H777 H 0.29833 0.58074 0.92571 0.0
H778 H 0.2542 0.5362 0.93984 0.0
H779 H 0.206 0.49763 0.92105 0.0
H780 H 0.19305 0.47937 0.8136 0.0
H781 H 0.24284 0.51886 0.79978 0.0
C782 C 0.27823 0.55702 0.84474 0.0
C783 C 0.29414 0.57553 0.87093 0.0
C784 C 0.25286 0.53154 0.85251 0.0
C785 C 0.28647 0.56677 0.90519 0.0
C786 C 0.26103 0.54152 0.9132 0.0
C787 C 0.21455 0.50198 0.89462 0.0
C788 C 0.19565 0.48613 0.86824 0.0
C789 C 0.24318 0.52456 0.88702 0.0
C790 C 0.20722 0.49138 0.83421 0.0
C791 C 0.23552 0.51409 0.82636 0.0
H792 H 0.67536 0.7274 0.98321 0.0
H793 H 0.68612 0.82074 0.03217 0.0
H794 H 0.67503 0.79431 0.08815 0.0
H795 H 0.66441 0.74467 0.1233 0.0
H796 H 0.65219 0.65087 0.07537 0.0
H797 H 0.66092 0.67737 0.01883 0.0
C798 C 0.67548 0.74177 1.00624 0.0
C799 C 0.68196 0.77594 1.00372 0.0
C800 C 0.66833 0.72639 0.03838 0.0
C801 C 0.68127 0.79446 0.03359 0.0
C802 C 0.67488 0.77936 0.06553 0.0
C803 C 0.66309 0.73005 0.10045 0.0
C804 C 0.65751 0.69587 0.10355 0.0
C805 C 0.66848 0.74538 0.06824 0.0
C806 C 0.65587 0.67728 0.07369 0.0
C807 C 0.66132 0.6924 0.04138 0.0
H808 H 0.45649 0.41471 0.35359 0.0
H809 H 0.52158 0.32803 0.34355 0.0
H810 H 0.49268 0.31673 0.28867 0.0
H811 H 0.45045 0.33247 0.24298 0.0
H812 H 0.38772 0.42072 0.25164 0.0
H813 H 0.41438 0.43052 0.30781 0.0
C814 C 0.46418 0.39314 0.33959 0.0
C815 C 0.49108 0.37211 0.35279 0.0
C816 C 0.44805 0.38727 0.30776 0.0
C817 C 0.501 0.34458 0.33401 0.0
C818 C 0.4845 0.33816 0.30263 0.0
C819 C 0.44237 0.3538 0.25717 0.0
C820 C 0.41691 0.3758 0.24309 0.0
C821 C 0.45822 0.35949 0.28915 0.0
C822 C 0.40718 0.40344 0.26179 0.0
C823 C 0.42241 0.409 0.29393 0.0
H824 H 0.92909 0.30088 0.49502 0.0
H825 H 0.81951 0.315 0.53433 0.0
H826 H 0.79583 0.27299 0.49687 0.0
H827 H 0.80586 0.23141 0.45308 0.0
H828 H 0.91487 0.21859 0.41206 0.0
H829 H 0.93878 0.26072 0.44952 0.0
C830 C 0.90003 0.2949 0.49528 0.0
C831 C 0.87643 0.31092 0.51808 0.0
C832 C 0.8863 0.27074 0.47324 0.0
C833 C 0.83873 0.30265 0.51794 0.0
C834 C 0.82496 0.27872 0.49619 0.0
C835 C 0.83477 0.23798 0.4522 0.0
C836 C 0.85845 0.22137 0.43005 0.0
C837 C 0.84846 0.26246 0.47383 0.0
C838 C 0.89599 0.23024 0.42938 0.0
C839 C 0.90974 0.25459 0.45069 0.0
H840 H 0.9419 0.63769 0.76664 0.0
H841 H 0.98756 0.6168 0.86584 0.0
H842 H 0.04427 0.5987 0.83845 0.0
H843 H 0.08235 0.5933 0.78668 0.0
H844 H 0.03688 0.61523 0.68754 0.0
H845 H 0.97806 0.62746 0.71462 0.0
C846 C 0.96426 0.62921 0.78233 0.0
C847 C 0.96083 0.62924 0.81831 0.0
C848 C 0.99661 0.61874 0.76641 0.0
C849 C 0.98968 0.61736 0.83817 0.0
C850 C 0.02205 0.60697 0.82249 0.0
C851 C 0.05944 0.60024 0.77085 0.0
C852 C 0.06426 0.60368 0.73507 0.0
C853 C 0.02603 0.60811 0.78667 0.0
C854 C 0.03408 0.6124 0.71507 0.0
C855 C 1.00051 0.61972 0.73059 0.0
H856 H 0.55315 0.33921 0.58846 0.0
H857 H 0.62231 0.32024 0.50087 0.0
H858 H 0.66005 0.28475 0.53548 0.0
H859 H 0.67233 0.2566 0.58969 0.0
H860 H 0.60456 0.27443 0.67824 0.0
H861 H 0.56831 0.31325 0.64467 0.0
C862 C 0.57649 0.32732 0.57703 0.0
C863 C 0.5839 0.33183 0.54168 0.0
C864 C 0.59872 0.30682 0.59738 0.0
C865 C 0.61469 0.31643 0.5275 0.0
C866 C 0.63679 0.29632 0.54745 0.0
C867 C 0.65015 0.26941 0.60195 0.0
C868 C 0.64147 0.26267 0.63663 0.0
C869 C 0.62886 0.29099 0.58228 0.0
C870 C 0.61194 0.27915 0.65165 0.0
C871 C 0.59107 0.30125 0.63238 0.0
H872 H 0.95989 0.40965 0.82256 0.0
H873 H 0.04723 0.46722 0.77428 0.0
H874 H 0.02168 0.45674 0.71812 0.0
H875 H 0.97618 0.43017 0.68269 0.0
H876 H 0.88713 0.37348 0.72928 0.0
H877 H 0.91171 0.38459 0.78624 0.0
C878 C 0.97292 0.42034 0.79979 0.0
C879 C 1.00559 0.43919 0.80264 0.0
C880 C 0.95807 0.41401 0.76732 0.0
C881 C 0.02235 0.45245 0.77277 0.0
C882 C 1.00776 0.44643 0.74065 0.0
C883 C 0.9621 0.41997 0.7052 0.0
C884 C 0.93006 0.40058 0.70159 0.0
C885 C 0.976 0.42689 0.73761 0.0
C886 C 0.91198 0.38822 0.73125 0.0
C887 C 0.926 0.39469 0.76382 0.0
H888 H 0.84316 0.73933 0.96844 0.0
H889 H 0.88458 0.80042 0.88474 0.0
H890 H 0.89526 0.84552 0.92377 0.0
H891 H 0.89687 0.86632 0.98217 0.0
H892 H 0.85506 0.80581 0.06626 0.0
H893 H 0.84016 0.76193 0.02665 0.0
C894 C 0.85447 0.76255 0.95882 0.0
C895 C 0.86337 0.76641 0.92376 0.0
C896 C 0.86045 0.78848 0.98147 0.0
C897 C 0.87734 0.79685 0.91152 0.0
C898 C 0.88362 0.82261 0.93387 0.0
C899 C 0.88411 0.84367 0.99182 0.0
C900 C 0.87734 0.8393 0.02717 0.0
C901 C 0.8758 0.81853 0.96895 0.0
C902 C 0.86048 0.8099 0.03918 0.0
C903 C 0.85218 0.78469 0.01655 0.0
H904 H 0.48678 0.70699 0.34292 0.0
H905 H 0.48449 0.60377 0.36862 0.0
H906 H 0.54556 0.59817 0.34223 0.0
H907 H 0.59615 0.62201 0.30558 0.0
H908 H 0.59934 0.72602 0.28379 0.0
H909 H 0.54145 0.73225 0.31519 0.0
C910 C 0.50007 0.68342 0.34336 0.0
C911 C 0.48131 0.65578 0.35743 0.0
C912 C 0.53504 0.68057 0.32845 0.0
C913 C 0.4986 0.62535 0.35799 0.0
C914 C 0.53329 0.62213 0.34261 0.0
C915 C 0.58435 0.64604 0.30834 0.0
C916 C 0.60167 0.67354 0.29222 0.0
C917 C 0.55127 0.64942 0.32684 0.0
C918 C 0.58651 0.70465 0.29611 0.0
C919 C 0.55333 0.70813 0.31383 0.0
H920 H 0.82359 1.00479 0.63116 0.0
H921 H 0.81106 0.96838 0.73501 0.0
H922 H 0.75965 1.00562 0.74396 0.0
H923 H 0.72248 0.05242 0.72365 0.0
H924 H 0.73202 0.08577 0.61849 0.0
H925 H 0.78013 0.04555 0.60839 0.0
C926 C 0.80922 1.00457 0.65563 0.0
C927 C 0.82145 0.98391 0.68254 0.0
C928 C 0.77934 0.02569 0.6603 0.0
C929 C 0.80228 0.98384 0.71392 0.0
C930 C 0.77302 1.00533 0.71904 0.0
C931 C 0.73461 0.05049 0.6983 0.0
C932 C 0.72375 0.07237 0.67184 0.0
C933 C 0.7619 0.02692 0.69265 0.0
C934 C 0.73964 0.06931 0.63919 0.0
C935 C 0.76737 0.04643 0.63355 0.0
H936 H 0.13928 0.54348 0.21799 0.0
H937 H 0.10247 0.46809 0.15009 0.0
H938 H 0.10997 0.42632 0.19475 0.0
H939 H 0.11814 0.41202 0.25576 0.0
H940 H 0.14797 0.48818 0.32534 0.0
H941 H 0.15285 0.52819 0.27812 0.0
C942 C 0.13368 0.51783 0.21292 0.0
C943 C 0.12015 0.50896 0.18087 0.0
C944 C 0.13664 0.49385 0.23936 0.0
C945 C 0.11256 0.47562 0.17473 0.0
C946 C 0.11685 0.45163 0.20027 0.0
C947 C 0.12691 0.43711 0.26026 0.0
C948 C 0.13336 0.447 0.29385 0.0
C949 C 0.12764 0.46051 0.23309 0.0
C950 C 0.14357 0.47987 0.29956 0.0
C951 C 0.14593 0.5029 0.27258 0.0
H952 H 0.83711 0.89909 0.50823 0.0
H953 H 0.80001 0.95842 0.59168 0.0
H954 H 0.7456 0.97273 0.55997 0.0
H955 H 0.70608 0.96596 0.50949 0.0
H956 H 0.74268 0.90471 0.42755 0.0
H957 H 0.7987 0.89313 0.45793 0.0
C958 C 0.81715 0.91504 0.51965 0.0
C959 C 0.82312 0.92744 0.55249 0.0
C960 C 0.78518 0.92255 0.50164 0.0
C961 C 0.79693 0.94866 0.56637 0.0
C962 C 0.76535 0.95669 0.54833 0.0
C963 C 0.7264 0.95016 0.49835 0.0
C964 C 0.71964 0.9358 0.46656 0.0
C965 C 0.75889 0.94342 0.51611 0.0
C966 C 0.74639 0.91541 0.45238 0.0
C967 C 0.77878 0.90899 0.46961 0.0
H968 H 0.44085 0.59784 0.76855 0.0
H969 H 0.33703 0.59991 0.71728 0.0
H970 H 0.35375 0.55169 0.68474 0.0
H971 H 0.39568 0.5064 0.67446 0.0
H972 H 0.50066 0.50553 0.72443 0.0
H973 H 0.4852 0.55528 0.7543 0.0
C974 C 0.42193 0.58774 0.75021 0.0
C975 C 0.38767 0.60244 0.74556 0.0
C976 C 0.43163 0.55983 0.73173 0.0
C977 C 0.36369 0.58936 0.72123 0.0
C978 C 0.37312 0.56154 0.70282 0.0
C979 C 0.41563 0.51712 0.69135 0.0
C980 C 0.44927 0.5014 0.69734 0.0
C981 C 0.40677 0.5462 0.7083 0.0
C982 C 0.47429 0.51626 0.71968 0.0
C983 C 0.46554 0.54496 0.73676 0.0
H984 H 0.78647 0.14697 0.93294 0.0
H985 H 0.8959 0.15637 0.9725 0.0
H986 H 0.87044 0.1674 0.02949 0.0
H987 H 0.81701 0.17722 0.06685 0.0
H988 H 0.70773 0.16592 0.02729 0.0
H989 H 0.7333 0.15269 0.97109 0.0
C990 C 0.80481 0.15136 0.95405 0.0
C991 C 0.84303 0.15134 0.94853 0.0
C992 C 0.78999 0.15749 0.98649 0.0
C993 C 0.86643 0.15635 0.9762 0.0
C994 C 0.85186 0.16279 1.00865 0.0
C995 C 0.79878 0.17191 0.04589 0.0
C996 C 0.76051 0.17307 0.05095 0.0
C997 C 0.81369 0.16395 0.0139 0.0
C998 C 0.73722 0.16537 0.02389 0.0
C999 C 0.75184 0.15785 0.99182 0.0
H1000 H 0.32598 0.14215 0.48037 0.0
H1001 H 0.2545 0.2215 0.45303 0.0
H1002 H 0.22194 0.21409 0.50784 0.0
H1003 H 0.21089 0.18223 0.56133 0.0
H1004 H 0.2831 0.10312 0.58759 0.0
H1005 H 0.31932 0.11455 0.53579 0.0
C1006 C 0.30377 0.15839 0.48628 0.0
C1007 C 0.29278 0.18228 0.46208 0.0
C1008 C 0.28531 0.15415 0.5178 0.0
C1009 C 0.26329 0.20248 0.47061 0.0
C1010 C 0.24474 0.1984 0.50209 0.0
C1011 C 0.23485 0.16779 0.55606 0.0
C1012 C 0.24378 0.14142 0.57818 0.0
C1013 C 0.25511 0.17391 0.52562 0.0
C1014 C 0.2753 0.12334 0.571 0.0
C1015 C 0.29591 0.12969 0.54118 0.0
H1016 H 0.2166 1.01922 0.68144 0.0
H1017 H 0.10755 0.97962 0.66886 0.0
H1018 H 0.11705 0.94007 0.7158 0.0
H1019 H 0.15639 0.91664 0.76059 0.0
H1020 H 0.26685 0.95397 0.77102 0.0
H1021 H 0.25722 0.99394 0.72454 0.0
C1022 C 0.19511 1.00172 0.68901 0.0
C1023 C 0.16147 1.0022 0.67185 0.0
C1024 C 0.20113 0.97848 0.71544 0.0
C1025 C 0.13376 0.9794 0.68155 0.0
C1026 C 0.13916 0.95686 0.7084 0.0
C1027 C 0.1783 0.93357 0.75266 0.0
C1028 C 0.21226 0.93244 0.76934 0.0
C1029 C 0.17271 0.95615 0.72556 0.0
C1030 C 0.2406 0.95418 0.75845 0.0
C1031 C 0.23502 0.97716 0.73199 0.0
H1032 H 0.26642 0.93306 0.08822 0.0
H1033 H 0.34898 0.96618 0.01463 0.0
H1034 H 0.3072 0.9545 0.96791 0.0
H1035 H 0.25024 0.92866 0.94785 0.0
H1036 H 0.16919 0.8927 0.02158 0.0
H1037 H 0.20728 0.91194 0.06825 0.0
C1038 C 0.27505 0.93849 0.06203 0.0
C1039 C 0.31095 0.95038 0.05501 0.0
C1040 C 0.25129 0.93075 0.03522 0.0
C1041 C 0.32159 0.95699 0.02082 0.0
C1042 C 0.29776 0.95012 0.99405 0.0
C1043 C 0.24057 0.9255 0.97409 0.0
C1044 C 0.20696 0.90897 0.98114 0.0
C1045 C 0.26299 0.93601 1.0009 0.0
C1046 C 0.19499 0.90512 0.01535 0.0
C1047 C 0.21681 0.91608 0.04211 0.0
H1048 H 0.3233 0.08751 0.30691 0.0
H1049 H 0.42314 0.05997 0.35704 0.0
H1050 H 0.42144 1.00713 0.32783 0.0
H1051 H 0.39296 0.97014 0.28512 0.0
H1052 H 0.29508 1.0006 0.23374 0.0
H1053 H 0.29469 0.05109 0.26632 0.0
C1054 C 0.34471 0.06999 0.31182 0.0
C1055 C 0.37338 0.07789 0.33424 0.0
C1056 C 0.34393 0.0402 0.29446 0.0
C1057 C 0.4007 0.05462 0.34005 0.0
C1058 C 0.39977 0.02444 0.32322 0.0
C1059 C 0.37132 0.98767 0.2815 0.0
C1060 C 0.34392 0.98162 0.25707 0.0
C1061 C 0.37172 1.01712 0.29998 0.0
C1062 C 0.31645 1.00481 0.2522 0.0
C1063 C 0.31622 0.03362 0.27086 0.0
H1064 H 0.59517 0.25119 0.13537 0.0
H1065 H 0.66305 0.33847 0.14285 0.0
H1066 H 0.60932 0.37255 0.13364 0.0
H1067 H 0.54333 0.37722 0.12334 0.0
H1068 H 0.47619 0.28962 0.11424 0.0
H1069 H 0.52978 0.25579 0.12394 0.0
C1070 C 0.5985 0.27765 0.13444 0.0
C1071 C 0.63333 0.29225 0.13935 0.0
C1072 C 0.56765 0.29695 0.12884 0.0
C1073 C 0.63663 0.32663 0.13924 0.0
C1074 C 0.60594 0.34608 0.1338 0.0
C1075 C 0.5404 0.35076 0.12289 0.0
C1076 C 0.50565 0.33602 0.11781 0.0
C1077 C 0.57136 0.33147 0.12841 0.0
C1078 C 0.50245 0.30162 0.11827 0.0
C1079 C 0.53312 0.28227 0.12372 0.0
H1080 H 0.9904 0.24729 0.80732 0.0
H1081 H 0.91577 0.25749 0.89279 0.0
H1082 H 0.95626 0.29896 0.91704 0.0
H1083 H 0.01273 0.33161 0.91467 0.0
H1084 H 0.08778 0.32354 0.82913 0.0
H1085 H 0.04742 0.28171 0.80433 0.0
C1086 C 0.98276 0.25898 0.83095 0.0
C1087 C 0.94996 0.24927 0.84824 0.0
C1088 C 1.00647 0.28281 0.84496 0.0
C1089 C 0.94086 0.26434 0.87914 0.0
C1090 C 0.96404 0.28802 0.89303 0.0
C1091 C 0.0206 0.32063 0.89068 0.0
C1092 C 0.05354 0.33061 0.87399 0.0
C1093 C 0.99704 0.29719 0.87637 0.0
C1094 C 0.06281 0.31618 0.84274 0.0
C1095 C 0.03959 0.29239 0.82844 0.0
H1096 H 0.0712 0.68777 0.09319 0.0
H1097 H 0.96307 0.64757 0.11561 0.0
H1098 H 0.93992 0.7029 0.12288 0.0
H1099 H 0.95094 0.76278 0.12472 0.0
H1100 H 0.05958 0.80217 0.10313 0.0
H1101 H 0.08211 0.747 0.09465 0.0
C1102 C 0.04266 0.6909 0.1001 0.0
C1103 C 0.01908 0.66327 0.10415 0.0
C1104 C 0.02963 0.72275 0.10466 0.0
C1105 C 0.98189 0.66822 0.11213 0.0
C1106 C 0.96865 0.69992 0.11649 0.0
C1107 C 0.97946 0.75933 0.1179 0.0
C1108 C 1.00352 0.78674 0.11478 0.0
C1109 C 0.99232 0.72738 0.113 0.0
C1110 C 0.04053 0.78164 0.10628 0.0
C1111 C 0.05343 0.75005 0.1012 0.0
H1112 H 0.48027 0.75535 0.37793 0.0
H1113 H 0.39366 0.82519 0.38811 0.0
H1114 H 0.43869 0.8703 0.38566 0.0
H1115 H 0.50244 0.88984 0.38141 0.0
H1116 H 0.58948 0.82056 0.36958 0.0
H1117 H 0.54444 0.77515 0.37191 0.0
C1118 C 0.47125 0.78041 0.37975 0.0
C1119 C 0.43353 0.78683 0.38332 0.0
C1120 C 0.49737 0.80626 0.37807 0.0
C1121 C 0.42237 0.81955 0.3851 0.0
C1122 C 0.44816 0.84534 0.38387 0.0
C1123 C 0.5117 0.86482 0.37945 0.0
C1124 C 0.54939 0.85863 0.37563 0.0
C1125 C 0.48569 0.83898 0.38047 0.0
C1126 C 0.5607 0.82604 0.37264 0.0
C1127 C 0.53494 0.80007 0.37401 0.0
H1128 H 0.04713 0.74829 0.73501 0.0
H1129 H 0.09223 0.74844 0.63236 0.0
H1130 H 0.04789 0.78909 0.61441 0.0
H1131 H 0.99794 0.8261 0.62761 0.0
H1132 H 0.95135 0.82737 0.72944 0.0
H1133 H 0.99418 0.78466 0.7478 0.0
C1134 C 0.04739 0.75728 0.70875 0.0
C1135 C 0.07347 0.74505 0.68511 0.0
C1136 C 0.0213 0.78088 0.69836 0.0
C1137 C 0.07263 0.7569 0.65109 0.0
C1138 C 0.04724 0.78034 0.64079 0.0
C1139 C 0.99674 0.8169 0.65384 0.0
C1140 C 0.97111 0.83008 0.67704 0.0
C1141 C 0.02159 0.79261 0.66415 0.0
C1142 C 0.97024 0.81756 0.71084 0.0
C1143 C 0.99508 0.79329 0.7214 0.0
H1144 H 0.03323 0.27588 0.3727 0.0
H1145 H 0.95031 0.34255 0.33832 0.0
H1146 H 0.91177 0.29628 0.32124 0.0
H1147 H 0.90182 0.23738 0.3155 0.0
H1148 H 0.98302 0.16969 0.35144 0.0
H1149 H 0.02251 0.216 0.36788 0.0
C1150 C 1.00683 0.28026 0.36124 0.0
C1151 C 0.99478 0.31274 0.35657 0.0
C1152 C 0.98475 0.25343 0.35147 0.0
C1153 C 0.96013 0.31792 0.34242 0.0
C1154 C 0.93821 0.29145 0.33242 0.0
C1155 C 0.92835 0.23257 0.32653 0.0
C1156 C 0.93966 0.19999 0.33171 0.0
C1157 C 0.95034 0.25917 0.33662 0.0
C1158 C 0.97381 0.19446 0.34678 0.0
C1159 C 0.99628 0.22095 0.35634 0.0
H1160 H 0.43459 0.76634 0.87322 0.0
H1161 H 0.48242 0.67177 0.89199 0.0
H1162 H 0.54105 0.69868 0.9053 0.0
H1163 H 0.57948 0.7488 0.90734 0.0
H1164 H 0.53135 0.84338 0.88923 0.0
H1165 H 0.47162 0.81666 0.88027 0.0
C1166 C 0.45781 0.75157 0.88037 0.0
C1167 C 0.45438 0.71704 0.88111 0.0
C1168 C 0.49121 0.76721 0.88803 0.0
C1169 C 0.48443 0.69832 0.8911 0.0
C1170 C 0.51793 0.71372 0.89859 0.0
C1171 C 0.55586 0.76364 0.90167 0.0
C1172 C 0.55992 0.79806 0.89852 0.0
C1173 C 0.52177 0.7481 0.89649 0.0
C1174 C 0.52896 0.81691 0.89175 0.0
C1175 C 0.49489 0.80161 0.88645 0.0
H1176 H 0.64552 0.95323 0.84478 0.0
H1177 H 0.68029 0.91986 0.74592 0.0
H1178 H 0.6718 0.97526 0.72143 0.0
H1179 H 0.65444 0.03289 0.72874 0.0
H1180 H 0.61896 0.06543 0.828 0.0
H1181 H 0.62786 1.01036 0.85199 0.0
C1182 C 0.65179 0.9582 0.81799 0.0
C1183 C 0.66418 0.93271 0.79722 0.0
C1184 C 0.64648 0.98979 0.80428 0.0
C1185 C 0.67095 0.9392 0.76231 0.0
C1186 C 0.66607 0.97079 0.74843 0.0
C1187 C 0.6483 0.02797 0.75555 0.0
C1188 C 0.63582 0.05339 0.77654 0.0
C1189 C 0.65371 0.99625 0.76919 0.0
C1190 C 0.62878 0.04648 0.81138 0.0
C1191 C 0.63385 1.01499 0.82507 0.0
H1192 H 0.19595 0.46105 0.02016 0.0
H1193 H 0.21294 0.37062 0.9671 0.0
H1194 H 0.27153 0.36411 0.99493 0.0
H1195 H 0.3167 0.38225 0.03551 0.0
H1196 H 0.29766 0.46755 0.09616 0.0
H1197 H 0.24113 0.47806 0.06423 0.0
C1198 C 0.21234 0.43981 0.01492 0.0
C1199 C 0.1998 0.41634 0.9914 0.0
C1200 C 0.24571 0.43542 0.03226 0.0
C1201 C 0.22183 0.38924 0.98464 0.0
C1202 C 0.25535 0.38538 1.00074 0.0
C1203 C 0.30047 0.40342 0.04168 0.0
C1204 C 0.31178 0.42446 0.06779 0.0
C1205 C 0.2674 0.40814 0.02467 0.0
C1206 C 0.28978 0.45119 0.07593 0.0
C1207 C 0.25744 0.45709 0.05773 0.0
H1208 H 0.88869 0.02815 0.27856 0.0
H1209 H 0.80133 0.05165 0.20956 0.0
H1210 H 0.81089 1.00018 0.17972 0.0
H1211 H 0.84712 0.94988 0.17122 0.0
H1212 H 0.93256 0.92666 0.24264 0.0
H1213 H 0.92022 0.97646 0.27381 0.0
C1214 C 0.87203 0.02252 0.25667 0.0
C1215 C 0.84522 0.04465 0.24557 0.0
C1216 C 0.877 0.99255 0.24032 0.0
C1217 C 0.8227 0.03558 0.21824 0.0
C1218 C 0.82802 1.006 0.20129 0.0
C1219 C 0.86238 0.95529 0.19411 0.0
C1220 C 0.89084 0.93448 0.20452 0.0
C1221 C 0.85542 0.9844 0.21188 0.0
C1222 C 0.91058 0.94218 0.23402 0.0
C1223 C 0.90374 0.97082 0.25175 0.0
H1224 H 0.27218 0.65586 0.61168 0.0
H1225 H 0.16788 0.64773 0.56148 0.0
H1226 H 0.1991 0.65129 0.50554 0.0
H1227 H 0.25587 0.65858 0.47119 0.0
H1228 H 0.36025 0.66447 0.52157 0.0
H1229 H 0.32907 0.65971 0.57741 0.0
C1230 C 0.2562 0.6549 0.58851 0.0
C1231 C 0.21765 0.65197 0.59073 0.0
C1232 C 0.27437 0.65656 0.55659 0.0
C1233 C 0.19749 0.6501 0.56047 0.0
C1234 C 0.21536 0.6522 0.52852 0.0
C1235 C 0.27184 0.65883 0.4944 0.0
C1236 C 0.31036 0.66229 0.49226 0.0
C1237 C 0.25374 0.65575 0.52631 0.0
C1238 C 0.33065 0.66192 0.52252 0.0
C1239 C 0.3128 0.6593 0.55442 0.0
H1240 H 0.83317 0.62029 0.10814 0.0
H1241 H 0.72418 0.62281 0.0664 0.0
H1242 H 0.74947 0.62179 1.00883 0.0
H1243 H 0.80227 0.62257 0.96956 0.0
H1244 H 0.91169 0.62323 0.01009 0.0
H1245 H 0.88655 0.62075 0.06843 0.0
C1246 C 0.81494 0.62066 0.0865 0.0
C1247 C 0.77667 0.62124 0.09212 0.0
C1248 C 0.82975 0.62068 0.05295 0.0
C1249 C 0.75361 0.62156 0.06344 0.0
C1250 C 0.76809 0.62126 0.03021 0.0
C1251 C 0.82069 0.62176 0.9911 0.0
C1252 C 0.85886 0.62295 0.9853 0.0
C1253 C 0.80607 0.62097 0.02461 0.0
C1254 C 0.8822 0.62228 0.01369 0.0
C1255 C 0.86783 0.62095 0.04713 0.0
H1256 H 0.63231 0.46942 0.33788 0.0
H1257 H 0.5362 0.52902 0.34566 0.0
H1258 H 0.55484 0.55917 0.29335 0.0
H1259 H 0.60034 0.57056 0.24697 0.0
H1260 H 0.6972 0.51179 0.241 0.0
H1261 H 0.67567 0.47864 0.29025 0.0
C1262 C 0.61509 0.48869 0.32802 0.0
C1263 C 0.58286 0.49684 0.34597 0.0
C1264 C 0.62598 0.50596 0.29796 0.0
C1265 C 0.56139 0.52241 0.33286 0.0
C1266 C 0.57191 0.53955 0.30274 0.0
C1267 C 0.6163 0.55004 0.25598 0.0
C1268 C 0.65026 0.54352 0.24016 0.0
C1269 C 0.60435 0.53175 0.28521 0.0
C1270 C 0.6709 0.51719 0.25259 0.0
C1271 C 0.65875 0.49839 0.28094 0.0
H1272 H 0.79339 0.38521 0.50846 0.0
H1273 H 0.74003 0.39798 0.60632 0.0
H1274 H 0.68 0.39556 0.57883 0.0
H1275 H 0.64379 0.39657 0.52619 0.0
H1276 H 0.69686 0.38329 0.42839 0.0
H1277 H 0.75635 0.37875 0.45672 0.0
C1278 C 0.76857 0.38723 0.52382 0.0
C1279 C 0.771 0.39254 0.55925 0.0
C1280 C 0.73439 0.38591 0.50782 0.0
C1281 C 0.73876 0.39417 0.57901 0.0
C1282 C 0.70454 0.39294 0.56327 0.0
C1283 C 0.66841 0.39233 0.51115 0.0
C1284 C 0.66636 0.39091 0.47525 0.0
C1285 C 0.70218 0.38988 0.52759 0.0
C1286 C 0.69801 0.38459 0.45601 0.0
C1287 C 0.73191 0.38222 0.4722 0.0
H1288 H 0.88346 0.59047 0.75984 0.0
H1289 H 0.76887 0.56318 0.76718 0.0
H1290 H 0.7751 0.52941 0.71643 0.0
H1291 H 0.81376 0.50591 0.67137 0.0
H1292 H 0.92828 0.53337 0.66382 0.0
H1293 H 0.92147 0.56913 0.71293 0.0
C1294 C 0.85992 0.57698 0.75042 0.0
C1295 C 0.82579 0.579 0.76752 0.0
C1296 C 0.8637 0.55782 0.72108 0.0
C1297 C 0.79534 0.56204 0.75448 0.0
C1298 C 0.79895 0.54268 0.72553 0.0
C1299 C 0.83716 0.51984 0.68042 0.0
C1300 C 0.87149 0.51685 0.66398 0.0
C1301 C 0.83305 0.54016 0.70881 0.0
C1302 C 0.90149 0.53543 0.6757 0.0
C1303 C 0.89766 0.55566 0.70401 0.0
H1304 H 0.50932 0.19576 0.70544 0.0
H1305 H 0.57163 0.19585 0.61076 0.0
H1306 H 0.54232 0.24658 0.59245 0.0
H1307 H 0.50379 0.29392 0.6057 0.0
H1308 H 0.4419 0.29456 0.70041 0.0
H1309 H 0.46618 0.24065 0.71625 0.0
C1310 C 0.5161 0.20647 0.68048 0.0
C1311 C 0.54291 0.19166 0.6596 0.0
C1312 C 0.49958 0.23619 0.67035 0.0
C1313 C 0.55105 0.2062 0.62736 0.0
C1314 C 0.53447 0.23551 0.61698 0.0
C1315 C 0.4954 0.28222 0.62978 0.0
C1316 C 0.4714 0.29866 0.65212 0.0
C1317 C 0.50952 0.25121 0.63867 0.0
C1318 C 0.46033 0.28269 0.68281 0.0
C1319 C 0.47437 0.25186 0.6919 0.0
loop_
_geom_bond_atom_site_label_1
_geom_bond_atom_site_label_2
_geom_bond_distance
_geom_bond_site_symmetry_2
_ccdc_geom_bond_type
Cu0 N1 1.999 . S
Cu0 O6 1.974 . S
Cu0 N11 1.985 . S
Cu0 O20 1.959 . S
N1 Cu0 1.999 . S
N1 C3 1.263 . S
N1 C5 1.389 . S
N2 C3 1.358 . S
N2 C4 1.400 . S
C3 N1 1.263 . S
C3 N2 1.358 . S
C3 H9 0.930 . S
C4 N2 1.400 . S
C4 C5 1.351 . S
C4 H21 0.930 . S
C5 N1 1.389 . S
C5 C4 1.351 . S
C5 H10 0.930 . S
O6 Cu0 1.974 . S
O6 C16 1.282 . S
C7 O8 1.261 . S
C7 O20 1.251 . S
O8 C7 1.261 . S
H9 C3 0.930 . S
H10 C5 0.930 . S
N11 Cu0 1.985 . S
N11 C13 1.335 . S
N11 C14 1.390 . S
N12 C13 1.345 . S
N12 C15 1.336 . S
C13 N11 1.335 . S
C13 N12 1.345 . S
C13 H18 0.930 . S
C14 N11 1.390 . S
C14 C15 1.346 . S
C14 H19 0.930 . S
C15 N12 1.336 . S
C15 C14 1.346 . S
C15 H22 0.929 . S
C16 O6 1.282 . S
C16 O17 1.216 . S
O17 C16 1.216 . S
H18 C13 0.930 . S
H19 C14 0.930 . S
O20 Cu0 1.959 . S
O20 C7 1.251 . S
H21 C4 0.930 . S
H22 C15 0.929 . S
Cu23 N24 1.999 . S
Cu23 O29 1.974 . S
Cu23 N34 1.985 . S
Cu23 O43 1.959 . S
N24 Cu23 1.999 . S
N24 C26 1.263 . S
N24 C28 1.389 . S
N25 C26 1.358 . S
N25 C27 1.400 . S
C26 N24 1.263 . S
C26 N25 1.358 . S
C26 H32 0.930 . S
C27 N25 1.400 . S
C27 C28 1.351 . S
C27 H44 0.930 . S
C28 N24 1.389 . S
C28 C27 1.351 . S
C28 H33 0.930 . S
O29 Cu23 1.974 . S
O29 C39 1.282 . S
C30 O31 1.261 . S
C30 O43 1.251 . S
O31 C30 1.261 . S
H32 C26 0.930 . S
H33 C28 0.930 . S
N34 Cu23 1.985 . S
N34 C36 1.335 . S
N34 C37 1.390 . S
N35 C36 1.345 . S
N35 C38 1.336 . S
C36 N34 1.335 . S
C36 N35 1.345 . S
C36 H41 0.930 . S
C37 N34 1.390 . S
C37 C38 1.346 . S
C37 H42 0.930 . S
C38 N35 1.336 . S
C38 C37 1.346 . S
C38 H45 0.929 . S
C39 O29 1.282 . S
C39 O40 1.216 . S
O40 C39 1.216 . S
H41 C36 0.930 . S
H42 C37 0.930 . S
O43 Cu23 1.959 . S
O43 C30 1.251 . S
H44 C27 0.930 . S
H45 C38 0.929 . S
Cu46 N47 1.999 . S
Cu46 O52 1.974 . S
Cu46 N57 1.985 . S
Cu46 O66 1.959 . S
N47 Cu46 1.999 . S
N47 C49 1.263 . S
N47 C51 1.389 . S
N48 C49 1.358 . S
N48 C50 1.400 . S
C49 N47 1.263 . S
C49 N48 1.358 . S
C49 H55 0.930 . S
C50 N48 1.400 . S
C50 C51 1.351 . S
C50 H67 0.930 . S
C51 N47 1.389 . S
C51 C50 1.351 . S
C51 H56 0.930 . S
O52 Cu46 1.974 . S
O52 C62 1.282 . S
C53 O54 1.261 . S
C53 O66 1.251 . S
O54 C53 1.261 . S
H55 C49 0.930 . S
H56 C51 0.930 . S
N57 Cu46 1.985 . S
N57 C59 1.335 . S
N57 C60 1.390 . S
N58 C59 1.345 . S
N58 C61 1.336 . S
C59 N57 1.335 . S
C59 N58 1.345 . S
C59 H64 0.930 . S
C60 N57 1.390 . S
C60 C61 1.346 . S
C60 H65 0.930 . S
C61 N58 1.336 . S
C61 C60 1.346 . S
C61 H68 0.929 . S
C62 O52 1.282 . S
C62 O63 1.216 . S
O63 C62 1.216 . S
H64 C59 0.930 . S
H65 C60 0.930 . S
O66 Cu46 1.959 . S
O66 C53 1.251 . S
H67 C50 0.930 . S
H68 C61 0.929 . S
Cu69 N70 1.999 . S
Cu69 O75 1.974 . S
Cu69 N80 1.985 . S
Cu69 O89 1.959 . S
N70 Cu69 1.999 . S
N70 C72 1.263 . S
N70 C74 1.389 . S
N71 C72 1.358 . S
N71 C73 1.400 . S
C72 N70 1.263 . S
C72 N71 1.358 . S
C72 H78 0.930 . S
C73 N71 1.400 . S
C73 C74 1.351 . S
C73 H90 0.930 . S
C74 N70 1.389 . S
C74 C73 1.351 . S
C74 H79 0.930 . S
O75 Cu69 1.974 . S
O75 C85 1.282 . S
C76 O77 1.261 . S
C76 O89 1.251 . S
O77 C76 1.261 . S
H78 C72 0.930 . S
H79 C74 0.930 . S
N80 Cu69 1.985 . S
N80 C82 1.335 . S
N80 C83 1.390 . S
N81 C82 1.345 . S
N81 C84 1.336 . S
C82 N80 1.335 . S
C82 N81 1.345 . S
C82 H87 0.930 . S
C83 N80 1.390 . S
C83 C84 1.346 . S
C83 H88 0.930 . S
C84 N81 1.336 . S
C84 C83 1.346 . S
C84 H91 0.929 . S
C85 O75 1.282 . S
C85 O86 1.216 . S
O86 C85 1.216 . S
H87 C82 0.930 . S
H88 C83 0.930 . S
O89 Cu69 1.959 . S
O89 C76 1.251 . S
H90 C73 0.930 . S
H91 C84 0.929 . S
Cu92 N93 1.999 . S
Cu92 O98 1.974 . S
Cu92 N103 1.985 . S
Cu92 O112 1.959 . S
N93 Cu92 1.999 . S
N93 C95 1.263 . S
N93 C97 1.389 . S
N94 C95 1.358 . S
N94 C96 1.400 . S
C95 N93 1.263 . S
C95 N94 1.358 . S
C95 H101 0.930 . S
C96 N94 1.400 . S
C96 C97 1.351 . S
C96 H113 0.930 . S
C97 N93 1.389 . S
C97 C96 1.351 . S
C97 H102 0.930 . S
O98 Cu92 1.974 . S
O98 C108 1.282 . S
C99 O100 1.261 . S
C99 O112 1.251 . S
O100 C99 1.261 . S
H101 C95 0.930 . S
H102 C97 0.930 . S
N103 Cu92 1.985 . S
N103 C105 1.335 . S
N103 C106 1.390 . S
N104 C105 1.345 . S
N104 C107 1.342 . S
C105 N103 1.335 . S
C105 N104 1.345 . S
C105 H110 0.930 . S
C106 N103 1.390 . S
C106 C107 1.358 . S
C106 H111 0.930 . S
C107 N104 1.342 . S
C107 C106 1.358 . S
C107 H114 0.914 1_455 S
C108 O98 1.282 . S
C108 O109 1.216 . S
O109 C108 1.216 . S
H110 C105 0.930 . S
H111 C106 0.930 . S
O112 Cu92 1.959 . S
O112 C99 1.251 . S
H113 C96 0.930 . S
H114 C107 0.914 1_655 S
Cu115 N116 1.999 . S
Cu115 O121 1.974 . S
Cu115 N126 1.985 . S
Cu115 O135 1.959 . S
N116 Cu115 1.999 . S
N116 C118 1.263 . S
N116 C120 1.389 . S
N117 C118 1.358 . S
N117 C119 1.400 . S
C118 N116 1.263 . S
C118 N117 1.358 . S
C118 H124 0.930 . S
C119 N117 1.400 . S
C119 C120 1.351 . S
C119 H136 0.930 . S
C120 N116 1.389 . S
C120 C119 1.351 . S
C120 H125 0.930 . S
O121 Cu115 1.974 . S
O121 C131 1.282 . S
C122 O123 1.261 . S
C122 O135 1.251 . S
O123 C122 1.261 . S
H124 C118 0.930 . S
H125 C120 0.930 . S
N126 Cu115 1.985 . S
N126 C128 1.335 . S
N126 C129 1.390 . S
N127 C128 1.345 . S
N127 C130 1.336 . S
C128 N126 1.335 . S
C128 N127 1.345 . S
C128 H133 0.930 . S
C129 N126 1.390 . S
C129 C130 1.346 . S
C129 H134 0.930 . S
C130 N127 1.336 . S
C130 C129 1.346 . S
C130 H137 0.929 . S
C131 O121 1.282 . S
C131 O132 1.216 . S
O132 C131 1.216 . S
H133 C128 0.930 . S
H134 C129 0.930 . S
O135 Cu115 1.959 . S
O135 C122 1.251 . S
H136 C119 0.930 . S
H137 C130 0.929 . S
Cu138 N139 1.999 . S
Cu138 O144 1.974 . S
Cu138 N149 1.985 . S
Cu138 O158 1.959 . S
N139 Cu138 1.999 . S
N139 C141 1.263 . S
N139 C143 1.389 . S
N140 C141 1.358 . S
N140 C142 1.400 . S
C141 N139 1.263 . S
C141 N140 1.358 . S
C141 H147 0.930 . S
C142 N140 1.400 . S
C142 C143 1.351 . S
C142 H159 0.930 . S
C143 N139 1.389 . S
C143 C142 1.351 . S
C143 H148 0.930 . S
O144 Cu138 1.974 . S
O144 C154 1.282 . S
C145 O146 1.261 . S
C145 O158 1.251 . S
O146 C145 1.261 . S
H147 C141 0.930 . S
H148 C143 0.930 . S
N149 Cu138 1.985 . S
N149 C151 1.335 . S
N149 C152 1.390 . S
N150 C151 1.345 . S
N150 C153 1.336 . S
C151 N149 1.335 . S
C151 N150 1.345 . S
C151 H156 0.930 . S
C152 N149 1.390 . S
C152 C153 1.346 . S
C152 H157 0.930 . S
C153 N150 1.336 . S
C153 C152 1.346 . S
C153 H160 0.929 . S
C154 O144 1.282 . S
C154 O155 1.216 . S
O155 C154 1.216 . S
H156 C151 0.930 . S
H157 C152 0.930 . S
O158 Cu138 1.959 . S
O158 C145 1.251 . S
H159 C142 0.930 . S
H160 C153 0.929 . S
Cu161 N162 1.999 . S
Cu161 O167 1.974 . S
Cu161 N172 1.985 . S
Cu161 O181 1.959 . S
N162 Cu161 1.999 . S
N162 C164 1.263 . S
N162 C166 1.389 . S
N163 C164 1.358 . S
N163 C165 1.400 . S
C164 N162 1.263 . S
C164 N163 1.358 . S
C164 H170 0.930 . S
C165 N163 1.400 . S
C165 C166 1.351 . S
C165 H182 0.930 . S
C166 N162 1.389 . S
C166 C165 1.351 . S
C166 H171 0.930 . S
O167 Cu161 1.974 . S
O167 C177 1.282 . S
C168 O169 1.261 . S
C168 O181 1.251 . S
O169 C168 1.261 . S
H170 C164 0.930 . S
H171 C166 0.930 . S
N172 Cu161 1.985 . S
N172 C174 1.335 . S
N172 C175 1.390 . S
N173 C174 1.345 . S
N173 C176 1.336 . S
C174 N172 1.335 . S
C174 N173 1.345 . S
C174 H179 0.930 . S
C175 N172 1.390 . S
C175 C176 1.346 . S
C175 H180 0.930 . S
C176 N173 1.336 . S
C176 C175 1.346 . S
C176 H183 0.929 . S
C177 O167 1.282 . S
C177 O178 1.216 . S
O178 C177 1.216 . S
H179 C174 0.930 . S
H180 C175 0.930 . S
O181 Cu161 1.959 . S
O181 C168 1.251 . S
H182 C165 0.930 . S
H183 C176 0.929 . S
Cu184 N185 1.999 . S
Cu184 O190 1.974 . S
Cu184 N195 1.985 . S
Cu184 O204 1.959 . S
N185 Cu184 1.999 . S
N185 C187 1.263 . S
N185 C189 1.389 . S
N186 C187 1.358 . S
N186 C188 1.400 . S
C187 N185 1.263 . S
C187 N186 1.358 . S
C187 H193 0.930 . S
C188 N186 1.400 . S
C188 C189 1.351 . S
C188 H205 0.930 . S
C189 N185 1.389 . S
C189 C188 1.351 . S
C189 H194 0.930 . S
O190 Cu184 1.974 . S
O190 C200 1.282 . S
C191 O192 1.261 . S
C191 O204 1.251 . S
O192 C191 1.261 . S
H193 C187 0.930 . S
H194 C189 0.930 . S
N195 Cu184 1.985 . S
N195 C197 1.335 . S
N195 C198 1.390 . S
N196 C197 1.345 . S
N196 C199 1.336 . S
C197 N195 1.335 . S
C197 N196 1.345 . S
C197 H202 0.930 . S
C198 N195 1.390 . S
C198 C199 1.346 . S
C198 H203 0.930 . S
C199 N196 1.336 . S
C199 C198 1.346 . S
C199 H206 0.929 . S
C200 O190 1.282 . S
C200 O201 1.216 . S
O201 C200 1.216 . S
H202 C197 0.930 . S
H203 C198 0.930 . S
O204 Cu184 1.959 . S
O204 C191 1.251 . S
H205 C188 0.930 . S
H206 C199 0.929 . S
Cu207 N208 1.999 . S
Cu207 O213 1.974 . S
Cu207 N218 1.985 . S
Cu207 O227 1.959 . S
N208 Cu207 1.999 . S
N208 C210 1.263 . S
N208 C212 1.389 . S
N209 C210 1.358 . S
N209 C211 1.400 . S
C210 N208 1.263 . S
C210 N209 1.358 . S
C210 H216 0.930 . S
C211 N209 1.400 . S
C211 C212 1.351 . S
C211 H228 0.930 . S
C212 N208 1.389 . S
C212 C211 1.351 . S
C212 H217 0.930 . S
O213 Cu207 1.974 . S
O213 C223 1.282 . S
C214 O215 1.261 . S
C214 O227 1.251 . S
O215 C214 1.261 . S
H216 C210 0.930 . S
H217 C212 0.930 . S
N218 Cu207 1.985 . S
N218 C220 1.335 . S
N218 C221 1.390 . S
N219 C220 1.345 . S
N219 C222 1.336 . S
C220 N218 1.335 . S
C220 N219 1.345 . S
C220 H225 0.930 . S
C221 N218 1.390 . S
C221 C222 1.346 . S
C221 H226 0.930 . S
C222 N219 1.336 . S
C222 C221 1.346 . S
C222 H229 0.929 . S
C223 O213 1.282 . S
C223 O224 1.216 . S
O224 C223 1.216 . S
H225 C220 0.930 . S
H226 C221 0.930 . S
O227 Cu207 1.959 . S
O227 C214 1.251 . S
H228 C211 0.930 . S
H229 C222 0.929 . S
Cu230 N231 1.999 . S
Cu230 O236 1.974 . S
Cu230 N241 1.985 . S
Cu230 O250 1.959 . S
N231 Cu230 1.999 . S
N231 C233 1.263 . S
N231 C235 1.389 . S
N232 C233 1.358 . S
N232 C234 1.400 . S
C233 N231 1.263 . S
C233 N232 1.358 . S
C233 H239 0.930 . S
C234 N232 1.400 . S
C234 C235 1.351 . S
C234 H251 0.930 . S
C235 N231 1.389 . S
C235 C234 1.351 . S
C235 H240 0.930 . S
O236 Cu230 1.974 . S
O236 C246 1.282 . S
C237 O238 1.261 . S
C237 O250 1.251 . S
O238 C237 1.261 . S
H239 C233 0.930 . S
H240 C235 0.930 . S
N241 Cu230 1.985 . S
N241 C243 1.335 . S
N241 C244 1.390 . S
N242 C243 1.345 . S
N242 C245 1.336 . S
C243 N241 1.335 . S
C243 N242 1.345 . S
C243 H248 0.930 . S
C244 N241 1.390 . S
C244 C245 1.346 . S
C244 H249 0.930 . S
C245 N242 1.336 . S
C245 C244 1.346 . S
C245 H252 0.929 . S
C246 O236 1.282 . S
C246 O247 1.216 . S
O247 C246 1.216 . S
H248 C243 0.930 . S
H249 C244 0.930 . S
O250 Cu230 1.959 . S
O250 C237 1.251 . S
H251 C234 0.930 . S
H252 C245 0.929 . S
Cu253 N254 1.999 . S
Cu253 O259 1.974 . S
Cu253 N264 1.985 . S
Cu253 O273 1.959 . S
N254 Cu253 1.999 . S
N254 C256 1.263 . S
N254 C258 1.389 . S
N255 C256 1.358 . S
N255 C257 1.400 . S
C256 N254 1.263 . S
C256 N255 1.358 . S
C256 H262 0.930 . S
C257 N255 1.400 . S
C257 C258 1.351 . S
C257 H274 0.930 . S
C258 N254 1.389 . S
C258 C257 1.351 . S
C258 H263 0.930 . S
O259 Cu253 1.974 . S
O259 C269 1.282 . S
C260 O261 1.261 . S
C260 O273 1.251 . S
O261 C260 1.261 . S
H262 C256 0.930 . S
H263 C258 0.930 . S
N264 Cu253 1.985 . S
N264 C266 1.335 . S
N264 C267 1.390 . S
N265 C266 1.345 . S
N265 C268 1.336 . S
C266 N264 1.335 . S
C266 N265 1.345 . S
C266 H271 0.930 . S
C267 N264 1.390 . S
C267 C268 1.346 . S
C267 H272 0.930 . S
C268 N265 1.336 . S
C268 C267 1.346 . S
C268 H275 0.929 . S
C269 O259 1.282 . S
C269 O270 1.216 . S
O270 C269 1.216 . S
H271 C266 0.930 . S
H272 C267 0.930 . S
O273 Cu253 1.959 . S
O273 C260 1.251 . S
H274 C257 0.930 . S
H275 C268 0.929 . S
Cu276 N277 1.999 . S
Cu276 O282 1.974 . S
Cu276 N287 1.985 . S
Cu276 O296 1.959 . S
N277 Cu276 1.999 . S
N277 C279 1.263 . S
N277 C281 1.389 . S
N278 C279 1.358 . S
N278 C280 1.400 . S
C279 N277 1.263 . S
C279 N278 1.358 . S
C279 H285 0.930 . S
C280 N278 1.400 . S
C280 C281 1.351 . S
C280 H297 0.930 . S
C281 N277 1.389 . S
C281 C280 1.351 . S
C281 H286 0.930 . S
O282 Cu276 1.974 . S
O282 C292 1.282 . S
C283 O284 1.261 . S
C283 O296 1.251 . S
O284 C283 1.261 . S
H285 C279 0.930 . S
H286 C281 0.930 . S
N287 Cu276 1.985 . S
N287 C289 1.335 . S
N287 C290 1.390 . S
N288 C289 1.345 . S
N288 C291 1.336 . S
C289 N287 1.335 . S
C289 N288 1.345 . S
C289 H294 0.930 . S
C290 N287 1.390 . S
C290 C291 1.346 . S
C290 H295 0.930 . S
C291 N288 1.336 . S
C291 C290 1.346 . S
C291 H298 0.929 . S
C292 O282 1.282 . S
C292 O293 1.216 . S
O293 C292 1.216 . S
H294 C289 0.930 . S
H295 C290 0.930 . S
O296 Cu276 1.959 . S
O296 C283 1.251 . S
H297 C280 0.930 . S
H298 C291 0.929 . S
Cu299 N300 1.999 . S
Cu299 O305 1.974 . S
Cu299 N310 1.985 . S
Cu299 O319 1.959 . S
N300 Cu299 1.999 . S
N300 C302 1.263 . S
N300 C304 1.389 . S
N301 C302 1.358 . S
N301 C303 1.400 . S
C302 N300 1.263 . S
C302 N301 1.358 . S
C302 H308 0.930 . S
C303 N301 1.400 . S
C303 C304 1.351 . S
C303 H320 0.930 . S
C304 N300 1.389 . S
C304 C303 1.351 . S
C304 H309 0.930 . S
O305 Cu299 1.974 . S
O305 C315 1.282 . S
C306 O307 1.261 . S
C306 O319 1.251 . S
O307 C306 1.261 . S
H308 C302 0.930 . S
H309 C304 0.930 . S
N310 Cu299 1.985 . S
N310 C312 1.335 . S
N310 C313 1.390 . S
N311 C312 1.345 . S
N311 C314 1.336 . S
C312 N310 1.335 . S
C312 N311 1.345 . S
C312 H317 0.930 . S
C313 N310 1.390 . S
C313 C314 1.346 . S
C313 H318 0.930 . S
C314 N311 1.336 . S
C314 C313 1.346 . S
C314 H321 0.929 . S
C315 O305 1.282 . S
C315 O316 1.216 . S
O316 C315 1.216 . S
H317 C312 0.930 . S
H318 C313 0.930 . S
O319 Cu299 1.959 . S
O319 C306 1.251 . S
H320 C303 0.930 . S
H321 C314 0.929 . S
Cu322 N323 1.999 . S
Cu322 O328 1.974 . S
Cu322 N333 1.985 . S
Cu322 O342 1.959 . S
N323 Cu322 1.999 . S
N323 C325 1.263 . S
N323 C327 1.389 . S
N324 C325 1.358 . S
N324 C326 1.400 . S
C325 N323 1.263 . S
C325 N324 1.358 . S
C325 H331 0.930 . S
C326 N324 1.400 . S
C326 C327 1.351 . S
C326 H343 0.930 . S
C327 N323 1.389 . S
C327 C326 1.351 . S
C327 H332 0.930 . S
O328 Cu322 1.974 . S
O328 C338 1.282 . S
C329 O330 1.261 . S
C329 O342 1.251 . S
O330 C329 1.261 . S
H331 C325 0.930 . S
H332 C327 0.930 . S
N333 Cu322 1.985 . S
N333 C335 1.335 . S
N333 C336 1.390 . S
N334 C335 1.345 . S
N334 C337 1.336 . S
C335 N333 1.335 . S
C335 N334 1.345 . S
C335 H340 0.930 . S
C336 N333 1.390 . S
C336 C337 1.346 . S
C336 H341 0.930 . S
C337 N334 1.336 . S
C337 C336 1.346 . S
C337 H344 0.929 . S
C338 O328 1.282 . S
C338 O339 1.216 . S
O339 C338 1.216 . S
H340 C335 0.930 . S
H341 C336 0.930 . S
O342 Cu322 1.959 . S
O342 C329 1.251 . S
H343 C326 0.930 . S
H344 C337 0.929 . S
Cu345 N346 1.999 . S
Cu345 O351 1.974 . S
Cu345 N356 1.985 . S
Cu345 O365 1.959 . S
N346 Cu345 1.999 . S
N346 C348 1.263 . S
N346 C350 1.389 . S
N347 C348 1.358 . S
N347 C349 1.400 . S
C348 N346 1.263 . S
C348 N347 1.358 . S
C348 H354 0.930 . S
C349 N347 1.400 . S
C349 C350 1.351 . S
C349 H366 0.930 . S
C350 N346 1.389 . S
C350 C349 1.351 . S
C350 H355 0.930 . S
O351 Cu345 1.974 . S
O351 C361 1.282 . S
C352 O353 1.261 . S
C352 O365 1.251 . S
O353 C352 1.261 . S
H354 C348 0.930 . S
H355 C350 0.930 . S
N356 Cu345 1.985 . S
N356 C358 1.335 . S
N356 C359 1.390 . S
N357 C358 1.345 . S
N357 C360 1.336 . S
C358 N356 1.335 . S
C358 N357 1.345 . S
C358 H363 0.930 . S
C359 N356 1.390 . S
C359 C360 1.346 . S
C359 H364 0.930 . S
C360 N357 1.336 . S
C360 C359 1.346 . S
C360 H367 0.929 . S
C361 O351 1.282 . S
C361 O362 1.216 . S
O362 C361 1.216 . S
H363 C358 0.930 . S
H364 C359 0.930 . S
O365 Cu345 1.959 . S
O365 C352 1.251 . S
H366 C349 0.930 . S
H367 C360 0.929 . S
Cu368 N369 1.999 . S
Cu368 O374 1.974 . S
Cu368 N379 1.985 . S
Cu368 O388 1.959 . S
N369 Cu368 1.999 . S
N369 C371 1.263 . S
N369 C373 1.389 . S
N370 C371 1.358 . S
N370 C372 1.400 . S
C371 N369 1.263 . S
C371 N370 1.358 . S
C371 H377 0.930 . S
C372 N370 1.400 . S
C372 C373 1.351 . S
C372 H389 0.930 . S
C373 N369 1.389 . S
C373 C372 1.351 . S
C373 H378 0.930 . S
O374 Cu368 1.974 . S
O374 C384 1.282 . S
C375 O376 1.261 . S
C375 O388 1.251 . S
O376 C375 1.261 . S
H377 C371 0.930 . S
H378 C373 0.930 . S
N379 Cu368 1.985 . S
N379 C381 1.335 . S
N379 C382 1.390 . S
N380 C381 1.345 . S
N380 C383 1.336 . S
C381 N379 1.335 . S
C381 N380 1.345 . S
C381 H386 0.930 . S
C382 N379 1.390 . S
C382 C383 1.346 . S
C382 H387 0.930 . S
C383 N380 1.336 . S
C383 C382 1.346 . S
C383 H390 0.929 . S
C384 O374 1.282 . S
C384 O385 1.216 . S
O385 C384 1.216 . S
H386 C381 0.930 . S
H387 C382 0.930 . S
O388 Cu368 1.959 . S
O388 C375 1.251 . S
H389 C372 0.930 . S
H390 C383 0.929 . S
Cu391 N392 1.999 . S
Cu391 O397 1.974 . S
Cu391 N402 1.985 . S
Cu391 O411 1.959 . S
N392 Cu391 1.999 . S
N392 C394 1.263 . S
N392 C396 1.389 . S
N393 C394 1.358 . S
N393 C395 1.400 . S
C394 N392 1.263 . S
C394 N393 1.358 . S
C394 H400 0.930 . S
C395 N393 1.400 . S
C395 C396 1.351 . S
C395 H412 0.930 . S
C396 N392 1.389 . S
C396 C395 1.351 . S
C396 H401 0.930 . S
O397 Cu391 1.974 . S
O397 C407 1.282 . S
C398 O399 1.261 . S
C398 O411 1.251 . S
O399 C398 1.261 . S
H400 C394 0.930 . S
H401 C396 0.930 . S
N402 Cu391 1.985 . S
N402 C404 1.335 . S
N402 C405 1.390 . S
N403 C404 1.345 . S
N403 C406 1.336 . S
C404 N402 1.335 . S
C404 N403 1.345 . S
C404 H409 0.930 . S
C405 N402 1.390 . S
C405 C406 1.346 . S
C405 H410 0.930 . S
C406 N403 1.336 . S
C406 C405 1.346 . S
C406 H413 0.929 . S
C407 O397 1.282 . S
C407 O408 1.216 . S
O408 C407 1.216 . S
H409 C404 0.930 . S
H410 C405 0.930 . S
O411 Cu391 1.959 . S
O411 C398 1.251 . S
H412 C395 0.930 . S
H413 C406 0.929 . S
Cu414 N415 1.999 . S
Cu414 O420 1.974 . S
Cu414 N425 1.985 . S
Cu414 O434 1.959 . S
N415 Cu414 1.999 . S
N415 C417 1.263 . S
N415 C419 1.389 . S
N416 C417 1.358 . S
N416 C418 1.400 . S
C417 N415 1.263 . S
C417 N416 1.358 . S
C417 H423 0.930 . S
C418 N416 1.400 . S
C418 C419 1.351 . S
C418 H435 0.930 . S
C419 N415 1.389 . S
C419 C418 1.351 . S
C419 H424 0.930 . S
O420 Cu414 1.974 . S
O420 C430 1.282 . S
C421 O422 1.261 . S
C421 O434 1.251 . S
O422 C421 1.261 . S
H423 C417 0.930 . S
H424 C419 0.930 . S
N425 Cu414 1.985 . S
N425 C427 1.335 . S
N425 C428 1.390 . S
N426 C427 1.345 . S
N426 C429 1.336 . S
C427 N425 1.335 . S
C427 N426 1.345 . S
C427 H432 0.930 . S
C428 N425 1.390 . S
C428 C429 1.346 . S
C428 H433 0.930 . S
C429 N426 1.336 . S
C429 C428 1.346 . S
C429 H436 0.929 . S
C430 O420 1.282 . S
C430 O431 1.216 . S
O431 C430 1.216 . S
H432 C427 0.930 . S
H433 C428 0.930 . S
O434 Cu414 1.959 . S
O434 C421 1.251 . S
H435 C418 0.930 . S
H436 C429 0.929 . S
Cu437 N438 1.999 . S
Cu437 O443 1.974 . S
Cu437 N448 1.985 . S
Cu437 O457 1.959 . S
N438 Cu437 1.999 . S
N438 C440 1.263 . S
N438 C442 1.389 . S
N439 C440 1.358 . S
N439 C441 1.400 . S
C440 N438 1.263 . S
C440 N439 1.358 . S
C440 H446 0.930 . S
C441 N439 1.400 . S
C441 C442 1.351 . S
C441 H458 0.930 . S
C442 N438 1.389 . S
C442 C441 1.351 . S
C442 H447 0.930 . S
O443 Cu437 1.974 . S
O443 C453 1.282 . S
C444 O445 1.261 . S
C444 O457 1.251 . S
O445 C444 1.261 . S
H446 C440 0.930 . S
H447 C442 0.930 . S
N448 Cu437 1.985 . S
N448 C450 1.335 . S
N448 C451 1.390 . S
N449 C450 1.345 . S
N449 C452 1.336 . S
C450 N448 1.335 . S
C450 N449 1.345 . S
C450 H455 0.930 . S
C451 N448 1.390 . S
C451 C452 1.346 . S
C451 H456 0.930 . S
C452 N449 1.336 . S
C452 C451 1.346 . S
C452 H459 0.929 . S
C453 O443 1.282 . S
C453 O454 1.216 . S
O454 C453 1.216 . S
H455 C450 0.930 . S
H456 C451 0.930 . S
O457 Cu437 1.959 . S
O457 C444 1.251 . S
H458 C441 0.930 . S
H459 C452 0.929 . S
Cu460 N461 1.999 . S
Cu460 O466 1.974 . S
Cu460 N471 1.985 . S
Cu460 O480 1.959 . S
N461 Cu460 1.999 . S
N461 C463 1.263 . S
N461 C465 1.389 . S
N462 C463 1.358 . S
N462 C464 1.400 . S
C463 N461 1.263 . S
C463 N462 1.358 . S
C463 H469 0.930 . S
C464 N462 1.400 . S
C464 C465 1.351 . S
C464 H481 0.930 . S
C465 N461 1.389 . S
C465 C464 1.351 . S
C465 H470 0.930 . S
O466 Cu460 1.974 . S
O466 C476 1.282 . S
C467 O468 1.261 . S
C467 O480 1.251 . S
O468 C467 1.261 . S
H469 C463 0.930 . S
H470 C465 0.930 . S
N471 Cu460 1.985 . S
N471 C473 1.335 . S
N471 C474 1.390 . S
N472 C473 1.345 . S
N472 C475 1.336 . S
C473 N471 1.335 . S
C473 N472 1.345 . S
C473 H478 0.930 . S
C474 N471 1.390 . S
C474 C475 1.346 . S
C474 H479 0.930 . S
C475 N472 1.336 . S
C475 C474 1.346 . S
C475 H482 0.929 . S
C476 O466 1.282 . S
C476 O477 1.216 . S
O477 C476 1.216 . S
H478 C473 0.930 . S
H479 C474 0.930 . S
O480 Cu460 1.959 . S
O480 C467 1.251 . S
H481 C464 0.930 . S
H482 C475 0.929 . S
Cu483 N484 1.999 . S
Cu483 O489 1.974 . S
Cu483 N494 1.985 . S
Cu483 O503 1.959 . S
N484 Cu483 1.999 . S
N484 C486 1.263 . S
N484 C488 1.389 . S
N485 C486 1.358 . S
N485 C487 1.400 . S
C486 N484 1.263 . S
C486 N485 1.358 . S
C486 H492 0.930 . S
C487 N485 1.400 . S
C487 C488 1.351 . S
C487 H504 0.930 . S
C488 N484 1.389 . S
C488 C487 1.351 . S
C488 H493 0.930 . S
O489 Cu483 1.974 . S
O489 C499 1.282 . S
C490 O491 1.261 . S
C490 O503 1.251 . S
O491 C490 1.261 . S
H492 C486 0.930 . S
H493 C488 0.930 . S
N494 Cu483 1.985 . S
N494 C496 1.335 . S
N494 C497 1.390 . S
N495 C496 1.345 . S
N495 C498 1.336 . S
C496 N494 1.335 . S
C496 N495 1.345 . S
C496 H501 0.930 . S
C497 N494 1.390 . S
C497 C498 1.346 . S
C497 H502 0.930 . S
C498 N495 1.336 . S
C498 C497 1.346 . S
C498 H505 0.929 . S
C499 O489 1.282 . S
C499 O500 1.216 . S
O500 C499 1.216 . S
H501 C496 0.930 . S
H502 C497 0.930 . S
O503 Cu483 1.959 . S
O503 C490 1.251 . S
H504 C487 0.930 . S
H505 C498 0.929 . S
Cu506 N507 1.999 . S
Cu506 O512 1.974 . S
Cu506 N517 1.985 . S
Cu506 O526 1.959 . S
N507 Cu506 1.999 . S
N507 C509 1.263 . S
N507 C511 1.389 . S
N508 C509 1.358 . S
N508 C510 1.400 . S
C509 N507 1.263 . S
C509 N508 1.358 . S
C509 H515 0.930 . S
C510 N508 1.400 . S
C510 C511 1.351 . S
C510 H527 0.930 . S
C511 N507 1.389 . S
C511 C510 1.351 . S
C511 H516 0.930 . S
O512 Cu506 1.974 . S
O512 C522 1.282 . S
C513 O514 1.261 . S
C513 O526 1.251 . S
O514 C513 1.261 . S
H515 C509 0.930 . S
H516 C511 0.930 . S
N517 Cu506 1.985 . S
N517 C519 1.335 . S
N517 C520 1.390 . S
N518 C519 1.345 . S
N518 C521 1.336 . S
C519 N517 1.335 . S
C519 N518 1.345 . S
C519 H524 0.930 . S
C520 N517 1.390 . S
C520 C521 1.346 . S
C520 H525 0.930 . S
C521 N518 1.336 . S
C521 C520 1.346 . S
C521 H528 0.929 . S
C522 O512 1.282 . S
C522 O523 1.216 . S
O523 C522 1.216 . S
H524 C519 0.930 . S
H525 C520 0.930 . S
O526 Cu506 1.959 . S
O526 C513 1.251 . S
H527 C510 0.930 . S
H528 C521 0.929 . S
Cu529 N530 1.999 . S
Cu529 O535 1.974 . S
Cu529 N540 1.985 . S
Cu529 O549 1.959 . S
N530 Cu529 1.999 . S
N530 C532 1.263 . S
N530 C534 1.389 . S
N531 C532 1.358 . S
N531 C533 1.400 . S
C532 N530 1.263 . S
C532 N531 1.358 . S
C532 H538 0.930 . S
C533 N531 1.400 . S
C533 C534 1.351 . S
C533 H550 0.930 . S
C534 N530 1.389 . S
C534 C533 1.351 . S
C534 H539 0.930 . S
O535 Cu529 1.974 . S
O535 C545 1.282 . S
C536 O537 1.261 . S
C536 O549 1.251 . S
O537 C536 1.261 . S
H538 C532 0.930 . S
H539 C534 0.930 . S
N540 Cu529 1.985 . S
N540 C542 1.335 . S
N540 C543 1.390 . S
N541 C542 1.345 . S
N541 C544 1.336 . S
C542 N540 1.335 . S
C542 N541 1.345 . S
C542 H547 0.930 . S
C543 N540 1.390 . S
C543 C544 1.346 . S
C543 H548 0.930 . S
C544 N541 1.336 . S
C544 C543 1.346 . S
C544 H551 0.929 . S
C545 O535 1.282 . S
C545 O546 1.216 . S
O546 C545 1.216 . S
H547 C542 0.930 . S
H548 C543 0.930 . S
O549 Cu529 1.959 . S
O549 C536 1.251 . S
H550 C533 0.930 . S
H551 C544 0.929 . S
H552 C558 0.930 . S
H553 C561 0.930 . S
H554 C562 0.930 . S
H555 C563 0.930 . S
H556 C566 0.930 . S
H557 C567 0.930 . S
C558 H552 0.930 . S
C558 C559 1.355 . S
C558 C560 1.415 . S
C559 C558 1.355 . S
C559 C561 1.419 . S
C560 C558 1.415 . S
C560 C565 1.425 . S
C560 C567 1.409 . S
C561 H553 0.930 . S
C561 C559 1.419 . S
C561 C562 1.362 . S
C562 H554 0.930 . S
C562 C561 1.362 . S
C562 C565 1.409 . S
C563 H555 0.930 . S
C563 C564 1.355 . S
C563 C565 1.415 . S
C564 C563 1.355 . S
C564 C566 1.419 . S
C565 C560 1.425 . S
C565 C562 1.409 . S
C565 C563 1.415 . S
C566 H556 0.930 . S
C566 C564 1.419 . S
C566 C567 1.362 . S
C567 H557 0.930 . S
C567 C560 1.409 . S
C567 C566 1.362 . S
H568 C574 0.930 . S
H569 C577 0.930 . S
H570 C578 0.930 . S
H571 C579 0.930 . S
H572 C582 0.930 . S
H573 C583 0.930 . S
C574 H568 0.930 . S
C574 C575 1.355 . S
C574 C576 1.415 . S
C575 C574 1.355 . S
C575 C577 1.419 1_655 S
C576 C574 1.415 . S
C576 C581 1.425 1_655 S
C576 C583 1.409 . S
C577 H569 0.930 . S
C577 C575 1.419 1_455 S
C577 C578 1.362 . S
C578 H570 0.930 . S
C578 C577 1.362 . S
C578 C581 1.409 . S
C579 H571 0.930 . S
C579 C580 1.355 . S
C579 C581 1.415 . S
C580 C579 1.355 . S
C580 C582 1.419 . S
C581 C576 1.425 1_455 S
C581 C578 1.409 . S
C581 C579 1.415 . S
C582 H572 0.930 . S
C582 C580 1.419 . S
C582 C583 1.362 1_455 S
C583 H573 0.930 . S
C583 C576 1.409 . S
C583 C582 1.362 1_655 S
H584 C590 0.930 . S
H585 C593 0.930 . S
H586 C594 0.930 1_556 S
H587 C595 0.930 . S
H588 C598 0.930 . S
H589 C599 0.930 . S
C590 H584 0.930 . S
C590 C591 1.355 . S
C590 C592 1.415 . S
C591 C590 1.355 . S
C591 C593 1.419 . S
C592 C590 1.415 . S
C592 C597 1.425 . S
C592 C599 1.409 . S
C593 H585 0.930 . S
C593 C591 1.419 . S
C593 C594 1.362 . S
C594 H586 0.930 1_554 S
C594 C593 1.362 . S
C594 C597 1.409 . S
C595 H587 0.930 . S
C595 C596 1.355 . S
C595 C597 1.415 1_556 S
C596 C595 1.355 . S
C596 C598 1.419 1_556 S
C597 C592 1.425 . S
C597 C594 1.409 . S
C597 C595 1.415 1_554 S
C598 H588 0.930 . S
C598 C596 1.419 1_554 S
C598 C599 1.362 . S
C599 H589 0.930 . S
C599 C592 1.409 . S
C599 C598 1.362 . S
H600 C606 0.930 . S
H601 C609 0.930 . S
H602 C610 0.930 . S
H603 C611 0.930 . S
H604 C614 0.930 . S
H605 C615 0.930 . S
C606 H600 0.930 . S
C606 C607 1.355 . S
C606 C608 1.415 . S
C607 C606 1.355 . S
C607 C609 1.419 . S
C608 C606 1.415 . S
C608 C613 1.425 . S
C608 C615 1.409 . S
C609 H601 0.930 . S
C609 C607 1.419 . S
C609 C610 1.362 . S
C610 H602 0.930 . S
C610 C609 1.362 . S
C610 C613 1.409 . S
C611 H603 0.930 . S
C611 C612 1.355 . S
C611 C613 1.415 . S
C612 C611 1.355 . S
C612 C614 1.419 . S
C613 C608 1.425 . S
C613 C610 1.409 . S
C613 C611 1.415 . S
C614 H604 0.930 . S
C614 C612 1.419 . S
C614 C615 1.362 . S
C615 H605 0.930 . S
C615 C608 1.409 . S
C615 C614 1.362 . S
H616 C622 0.930 . S
H617 C625 0.930 . S
H618 C626 0.930 . S
H619 C627 0.930 . S
H620 C630 0.930 . S
H621 C631 0.930 1_556 S
C622 H616 0.930 . S
C622 C623 1.355 . S
C622 C624 1.415 1_556 S
C623 C622 1.355 . S
C623 C625 1.419 1_556 S
C624 C622 1.415 1_554 S
C624 C629 1.425 . S
C624 C631 1.409 . S
C625 H617 0.930 . S
C625 C623 1.419 1_554 S
C625 C626 1.362 . S
C626 H618 0.930 . S
C626 C625 1.362 . S
C626 C629 1.409 . S
C627 H619 0.930 . S
C627 C628 1.355 . S
C627 C629 1.415 . S
C628 C627 1.355 . S
C628 C630 1.419 . S
C629 C624 1.425 . S
C629 C626 1.409 . S
C629 C627 1.415 . S
C630 H620 0.930 . S
C630 C628 1.419 . S
C630 C631 1.362 . S
C631 H621 0.930 1_554 S
C631 C624 1.409 . S
C631 C630 1.362 . S
H632 C638 0.930 . S
H633 C641 0.930 . S
H634 C642 0.930 . S
H635 C643 0.930 . S
H636 C646 0.930 . S
H637 C647 0.930 . S
C638 H632 0.930 . S
C638 C639 1.355 . S
C638 C640 1.415 . S
C639 C638 1.355 . S
C639 C641 1.419 . S
C640 C638 1.415 . S
C640 C645 1.425 . S
C640 C647 1.409 . S
C641 H633 0.930 . S
C641 C639 1.419 . S
C641 C642 1.362 . S
C642 H634 0.930 . S
C642 C641 1.362 . S
C642 C645 1.409 . S
C643 H635 0.930 . S
C643 C644 1.355 . S
C643 C645 1.415 . S
C644 C643 1.355 . S
C644 C646 1.419 . S
C645 C640 1.425 . S
C645 C642 1.409 . S
C645 C643 1.415 . S
C646 H636 0.930 . S
C646 C644 1.419 . S
C646 C647 1.362 . S
C647 H637 0.930 . S
C647 C640 1.409 . S
C647 C646 1.362 . S
H648 C654 0.930 . S
H649 C657 0.930 . S
H650 C658 0.930 . S
H651 C659 0.930 . S
H652 C662 0.930 . S
H653 C663 0.930 . S
C654 H648 0.930 . S
C654 C655 1.355 . S
C654 C656 1.415 . S
C655 C654 1.355 . S
C655 C657 1.419 . S
C656 C654 1.415 . S
C656 C661 1.425 . S
C656 C663 1.409 . S
C657 H649 0.930 . S
C657 C655 1.419 . S
C657 C658 1.362 . S
C658 H650 0.930 . S
C658 C657 1.362 . S
C658 C661 1.409 . S
C659 H651 0.930 . S
C659 C660 1.355 . S
C659 C661 1.415 . S
C660 C659 1.355 . S
C660 C662 1.419 . S
C661 C656 1.425 . S
C661 C658 1.409 . S
C661 C659 1.415 . S
C662 H652 0.930 . S
C662 C660 1.419 . S
C662 C663 1.362 . S
C663 H653 0.930 . S
C663 C656 1.409 . S
C663 C662 1.362 . S
H664 C670 0.930 1_655 S
H665 C673 0.930 . S
H666 C674 0.930 . S
H667 C675 0.930 . S
H668 C678 0.930 . S
H669 C679 0.930 . S
C670 H664 0.930 1_455 S
C670 C671 1.355 . S
C670 C672 1.415 1_455 S
C671 C670 1.355 . S
C671 C673 1.419 . S
C672 C670 1.415 1_655 S
C672 C677 1.426 1_655 S
C672 C679 1.409 . S
C673 H665 0.930 . S
C673 C671 1.419 . S
C673 C674 1.362 . S
C674 H666 0.930 . S
C674 C673 1.362 . S
C674 C677 1.407 . S
C675 H667 0.930 . S
C675 C676 1.355 . S
C675 C677 1.416 1_655 S
C676 C675 1.355 . S
C676 C678 1.419 . S
C677 C672 1.426 1_455 S
C677 C674 1.407 . S
C677 C675 1.416 1_455 S
C678 H668 0.930 . S
C678 C676 1.419 . S
C678 C679 1.362 . S
C679 H669 0.930 . S
C679 C672 1.409 . S
C679 C678 1.362 . S
H680 C686 0.930 . S
H681 C689 0.930 . S
H682 C690 0.930 . S
H683 C691 0.930 . S
H684 C694 0.930 . S
H685 C695 0.930 . S
C686 H680 0.930 . S
C686 C687 1.355 . S
C686 C688 1.415 . S
C687 C686 1.355 . S
C687 C689 1.419 . S
C688 C686 1.415 . S
C688 C693 1.425 . S
C688 C695 1.409 . S
C689 H681 0.930 . S
C689 C687 1.419 . S
C689 C690 1.362 . S
C690 H682 0.930 . S
C690 C689 1.362 . S
C690 C693 1.409 . S
C691 H683 0.930 . S
C691 C692 1.355 . S
C691 C693 1.415 . S
C692 C691 1.355 . S
C692 C694 1.419 . S
C693 C688 1.425 . S
C693 C690 1.409 . S
C693 C691 1.415 . S
C694 H684 0.930 . S
C694 C692 1.419 . S
C694 C695 1.362 . S
C695 H685 0.930 . S
C695 C688 1.409 . S
C695 C694 1.362 . S
H696 C702 0.930 . S
H697 C705 0.930 . S
H698 C706 0.930 . S
H699 C707 0.930 . S
H700 C710 0.930 . S
H701 C711 0.930 . S
C702 H696 0.930 . S
C702 C703 1.355 . S
C702 C704 1.415 1_545 S
C703 C702 1.355 . S
C703 C705 1.419 1_545 S
C704 C702 1.415 1_565 S
C704 C709 1.425 . S
C704 C711 1.409 . S
C705 H697 0.930 . S
C705 C703 1.419 1_565 S
C705 C706 1.362 . S
C706 H698 0.930 . S
C706 C705 1.362 . S
C706 C709 1.409 . S
C707 H699 0.930 . S
C707 C708 1.355 . S
C707 C709 1.415 . S
C708 C707 1.355 . S
C708 C710 1.419 . S
C709 C704 1.425 . S
C709 C706 1.409 . S
C709 C707 1.415 . S
C710 H700 0.930 . S
C710 C708 1.419 . S
C710 C711 1.362 . S
C711 H701 0.930 . S
C711 C704 1.409 . S
C711 C710 1.362 . S
H712 C718 0.930 . S
H713 C721 0.930 . S
H714 C722 0.930 . S
H715 C723 0.930 . S
H716 C726 0.930 . S
H717 C727 0.930 . S
C718 H712 0.930 . S
C718 C719 1.355 . S
C718 C720 1.415 . S
C719 C718 1.355 . S
C719 C721 1.419 . S
C720 C718 1.415 . S
C720 C725 1.425 1_545 S
C720 C727 1.409 . S
C721 H713 0.930 . S
C721 C719 1.419 . S
C721 C722 1.362 1_545 S
C722 H714 0.930 . S
C722 C721 1.362 1_565 S
C722 C725 1.409 . S
C723 H715 0.930 . S
C723 C724 1.355 . S
C723 C725 1.415 . S
C724 C723 1.355 . S
C724 C726 1.419 1_565 S
C725 C720 1.425 1_565 S
C725 C722 1.409 . S
C725 C723 1.415 . S
C726 H716 0.930 . S
C726 C724 1.419 1_545 S
C726 C727 1.362 . S
C727 H717 0.930 . S
C727 C720 1.409 . S
C727 C726 1.362 . S
H728 C734 0.930 . S
H729 C737 0.930 . S
H730 C738 0.930 . S
H731 C739 0.930 . S
H732 C742 0.930 . S
H733 C743 0.930 . S
C734 H728 0.930 . S
C734 C735 1.355 1_565 S
C734 C736 1.415 . S
C735 C734 1.355 1_545 S
C735 C737 1.419 . S
C736 C734 1.415 . S
C736 C741 1.425 . S
C736 C743 1.409 . S
C737 H729 0.930 . S
C737 C735 1.419 . S
C737 C738 1.362 . S
C738 H730 0.930 . S
C738 C737 1.362 . S
C738 C741 1.409 1_545 S
C739 H731 0.930 . S
C739 C740 1.355 . S
C739 C741 1.415 . S
C740 C739 1.355 . S
C740 C742 1.419 . S
C741 C736 1.425 . S
C741 C738 1.409 1_565 S
C741 C739 1.415 . S
C742 H732 0.930 . S
C742 C740 1.419 . S
C742 C743 1.362 . S
C743 H733 0.930 . S
C743 C736 1.409 . S
C743 C742 1.362 . S
H744 C750 0.930 . S
H745 C753 0.930 . S
H746 C754 0.930 . S
H747 C755 0.930 . S
H748 C758 0.930 . S
H749 C759 0.930 . S
C750 H744 0.930 . S
C750 C751 1.355 . S
C750 C752 1.415 . S
C751 C750 1.355 . S
C751 C753 1.419 . S
C752 C750 1.415 . S
C752 C757 1.425 . S
C752 C759 1.409 . S
C753 H745 0.930 . S
C753 C751 1.419 . S
C753 C754 1.362 . S
C754 H746 0.930 . S
C754 C753 1.362 . S
C754 C757 1.409 . S
C755 H747 0.930 . S
C755 C756 1.355 . S
C755 C757 1.415 . S
C756 C755 1.355 . S
C756 C758 1.419 . S
C757 C752 1.425 . S
C757 C754 1.409 . S
C757 C755 1.415 . S
C758 H748 0.930 . S
C758 C756 1.419 . S
C758 C759 1.362 . S
C759 H749 0.930 . S
C759 C752 1.409 . S
C759 C758 1.362 . S
H760 C766 0.930 . S
H761 C769 0.930 . S
H762 C770 0.930 . S
H763 C771 0.930 . S
H764 C774 0.930 . S
H765 C775 0.930 . S
C766 H760 0.930 . S
C766 C767 1.355 . S
C766 C768 1.415 . S
C767 C766 1.355 . S
C767 C769 1.419 . S
C768 C766 1.415 . S
C768 C773 1.425 . S
C768 C775 1.409 . S
C769 H761 0.930 . S
C769 C767 1.419 . S
C769 C770 1.362 . S
C770 H762 0.930 . S
C770 C769 1.362 . S
C770 C773 1.409 . S
C771 H763 0.930 . S
C771 C772 1.355 . S
C771 C773 1.415 . S
C772 C771 1.355 . S
C772 C774 1.419 . S
C773 C768 1.425 . S
C773 C770 1.409 . S
C773 C771 1.415 . S
C774 H764 0.930 . S
C774 C772 1.419 . S
C774 C775 1.362 . S
C775 H765 0.930 . S
C775 C768 1.409 . S
C775 C774 1.362 . S
H776 C782 0.930 . S
H777 C785 0.930 . S
H778 C786 0.930 . S
H779 C787 0.930 . S
H780 C790 0.930 . S
H781 C791 0.930 . S
C782 H776 0.930 . S
C782 C783 1.355 . S
C782 C784 1.415 . S
C783 C782 1.355 . S
C783 C785 1.419 . S
C784 C782 1.415 . S
C784 C789 1.425 . S
C784 C791 1.409 . S
C785 H777 0.930 . S
C785 C783 1.419 . S
C785 C786 1.362 . S
C786 H778 0.930 . S
C786 C785 1.362 . S
C786 C789 1.409 . S
C787 H779 0.930 . S
C787 C788 1.355 . S
C787 C789 1.415 . S
C788 C787 1.355 . S
C788 C790 1.419 . S
C789 C784 1.425 . S
C789 C786 1.409 . S
C789 C787 1.415 . S
C790 H780 0.930 . S
C790 C788 1.419 . S
C790 C791 1.362 . S
C791 H781 0.930 . S
C791 C784 1.409 . S
C791 C790 1.362 . S
H792 C798 0.930 . S
H793 C801 0.930 . S
H794 C802 0.930 . S
H795 C803 0.930 . S
H796 C806 0.930 . S
H797 C807 0.930 1_556 S
C798 H792 0.930 . S
C798 C799 1.355 . S
C798 C800 1.415 1_556 S
C799 C798 1.355 . S
C799 C801 1.419 1_556 S
C800 C798 1.415 1_554 S
C800 C805 1.425 . S
C800 C807 1.409 . S
C801 H793 0.930 . S
C801 C799 1.419 1_554 S
C801 C802 1.362 . S
C802 H794 0.930 . S
C802 C801 1.362 . S
C802 C805 1.409 . S
C803 H795 0.930 . S
C803 C804 1.355 . S
C803 C805 1.415 . S
C804 C803 1.355 . S
C804 C806 1.419 . S
C805 C800 1.425 . S
C805 C802 1.409 . S
C805 C803 1.415 . S
C806 H796 0.930 . S
C806 C804 1.419 . S
C806 C807 1.362 . S
C807 H797 0.930 1_554 S
C807 C800 1.409 . S
C807 C806 1.362 . S
H808 C814 0.930 . S
H809 C817 0.930 . S
H810 C818 0.930 . S
H811 C819 0.930 . S
H812 C822 0.930 . S
H813 C823 0.930 . S
C814 H808 0.930 . S
C814 C815 1.355 . S
C814 C816 1.415 . S
C815 C814 1.355 . S
C815 C817 1.419 . S
C816 C814 1.415 . S
C816 C821 1.425 . S
C816 C823 1.409 . S
C817 H809 0.930 . S
C817 C815 1.419 . S
C817 C818 1.362 . S
C818 H810 0.930 . S
C818 C817 1.362 . S
C818 C821 1.409 . S
C819 H811 0.930 . S
C819 C820 1.355 . S
C819 C821 1.415 . S
C820 C819 1.355 . S
C820 C822 1.419 . S
C821 C816 1.425 . S
C821 C818 1.409 . S
C821 C819 1.415 . S
C822 H812 0.930 . S
C822 C820 1.419 . S
C822 C823 1.362 . S
C823 H813 0.930 . S
C823 C816 1.409 . S
C823 C822 1.362 . S
H824 C830 0.930 . S
H825 C833 0.930 . S
H826 C834 0.930 . S
H827 C835 0.930 . S
H828 C838 0.930 . S
H829 C839 0.930 . S
C830 H824 0.930 . S
C830 C831 1.355 . S
C830 C832 1.415 . S
C831 C830 1.355 . S
C831 C833 1.419 . S
C832 C830 1.415 . S
C832 C837 1.425 . S
C832 C839 1.409 . S
C833 H825 0.930 . S
C833 C831 1.419 . S
C833 C834 1.362 . S
C834 H826 0.930 . S
C834 C833 1.362 . S
C834 C837 1.409 . S
C835 H827 0.930 . S
C835 C836 1.355 . S
C835 C837 1.415 . S
C836 C835 1.355 . S
C836 C838 1.419 . S
C837 C832 1.425 . S
C837 C834 1.409 . S
C837 C835 1.415 . S
C838 H828 0.930 . S
C838 C836 1.419 . S
C838 C839 1.362 . S
C839 H829 0.930 . S
C839 C832 1.409 . S
C839 C838 1.362 . S
H840 C846 0.930 . S
H841 C849 0.930 . S
H842 C850 0.930 . S
H843 C851 0.930 . S
H844 C854 0.930 . S
H845 C855 0.930 . S
C846 H840 0.930 . S
C846 C847 1.355 . S
C846 C848 1.415 . S
C847 C846 1.355 . S
C847 C849 1.419 1_655 S
C848 C846 1.415 . S
C848 C853 1.425 1_655 S
C848 C855 1.409 . S
C849 H841 0.930 . S
C849 C847 1.419 1_455 S
C849 C850 1.362 . S
C850 H842 0.930 . S
C850 C849 1.362 . S
C850 C853 1.409 . S
C851 H843 0.930 . S
C851 C852 1.355 . S
C851 C853 1.415 . S
C852 C851 1.355 . S
C852 C854 1.419 . S
C853 C848 1.425 1_455 S
C853 C850 1.409 . S
C853 C851 1.415 . S
C854 H844 0.930 . S
C854 C852 1.419 . S
C854 C855 1.362 1_455 S
C855 H845 0.930 . S
C855 C848 1.409 . S
C855 C854 1.362 1_655 S
H856 C862 0.930 . S
H857 C865 0.930 . S
H858 C866 0.930 . S
H859 C867 0.930 . S
H860 C870 0.930 . S
H861 C871 0.930 . S
C862 H856 0.930 . S
C862 C863 1.355 . S
C862 C864 1.415 . S
C863 C862 1.355 . S
C863 C865 1.419 . S
C864 C862 1.415 . S
C864 C869 1.425 . S
C864 C871 1.409 . S
C865 H857 0.930 . S
C865 C863 1.419 . S
C865 C866 1.362 . S
C866 H858 0.930 . S
C866 C865 1.362 . S
C866 C869 1.409 . S
C867 H859 0.930 . S
C867 C868 1.355 . S
C867 C869 1.415 . S
C868 C867 1.355 . S
C868 C870 1.419 . S
C869 C864 1.425 . S
C869 C866 1.409 . S
C869 C867 1.415 . S
C870 H860 0.930 . S
C870 C868 1.419 . S
C870 C871 1.362 . S
C871 H861 0.930 . S
C871 C864 1.409 . S
C871 C870 1.362 . S
H872 C878 0.930 . S
H873 C881 0.930 . S
H874 C882 0.930 . S
H875 C883 0.930 . S
H876 C886 0.930 . S
H877 C887 0.930 1_455 S
C878 H872 0.930 . S
C878 C879 1.355 . S
C878 C880 1.415 . S
C879 C878 1.355 . S
C879 C881 1.419 . S
C880 C878 1.415 . S
C880 C885 1.425 1_455 S
C880 C887 1.409 1_455 S
C881 H873 0.930 . S
C881 C879 1.419 . S
C881 C882 1.362 1_455 S
C882 H874 0.930 . S
C882 C881 1.362 1_655 S
C882 C885 1.409 . S
C883 H875 0.930 . S
C883 C884 1.355 . S
C883 C885 1.415 . S
C884 C883 1.355 . S
C884 C886 1.419 . S
C885 C880 1.425 1_655 S
C885 C882 1.409 . S
C885 C883 1.415 . S
C886 H876 0.930 . S
C886 C884 1.419 . S
C886 C887 1.362 . S
C887 H877 0.930 1_655 S
C887 C880 1.409 1_655 S
C887 C886 1.362 . S
H888 C894 0.930 . S
H889 C897 0.930 . S
H890 C898 0.930 . S
H891 C899 0.930 . S
H892 C902 0.930 . S
H893 C903 0.930 . S
C894 H888 0.930 . S
C894 C895 1.355 . S
C894 C896 1.415 . S
C895 C894 1.355 . S
C895 C897 1.419 . S
C896 C894 1.415 . S
C896 C901 1.425 . S
C896 C903 1.409 . S
C897 H889 0.930 . S
C897 C895 1.419 . S
C897 C898 1.362 . S
C898 H890 0.930 . S
C898 C897 1.362 . S
C898 C901 1.409 . S
C899 H891 0.930 . S
C899 C900 1.355 . S
C899 C901 1.415 1_554 S
C900 C899 1.355 . S
C900 C902 1.419 . S
C901 C896 1.425 . S
C901 C898 1.409 . S
C901 C899 1.415 1_556 S
C902 H892 0.930 . S
C902 C900 1.419 . S
C902 C903 1.362 1_554 S
C903 H893 0.930 . S
C903 C896 1.409 . S
C903 C902 1.362 1_556 S
H904 C910 0.930 . S
H905 C913 0.930 . S
H906 C914 0.930 . S
H907 C915 0.930 . S
H908 C918 0.930 . S
H909 C919 0.930 . S
C910 H904 0.930 . S
C910 C911 1.355 . S
C910 C912 1.415 . S
C911 C910 1.355 . S
C911 C913 1.419 . S
C912 C910 1.415 . S
C912 C917 1.425 . S
C912 C919 1.409 . S
C913 H905 0.930 . S
C913 C911 1.419 . S
C913 C914 1.362 . S
C914 H906 0.930 . S
C914 C913 1.362 . S
C914 C917 1.409 . S
C915 H907 0.930 . S
C915 C916 1.355 . S
C915 C917 1.415 . S
C916 C915 1.355 . S
C916 C918 1.419 . S
C917 C912 1.425 . S
C917 C914 1.409 . S
C917 C915 1.415 . S
C918 H908 0.930 . S
C918 C916 1.419 . S
C918 C919 1.362 . S
C919 H909 0.930 . S
C919 C912 1.409 . S
C919 C918 1.362 . S
H920 C926 0.930 . S
H921 C929 0.930 . S
H922 C930 0.930 . S
H923 C931 0.930 . S
H924 C934 0.930 . S
H925 C935 0.930 . S
C926 H920 0.930 . S
C926 C927 1.355 1_545 S
C926 C928 1.415 . S
C927 C926 1.355 1_565 S
C927 C929 1.419 . S
C928 C926 1.415 . S
C928 C933 1.425 . S
C928 C935 1.409 . S
C929 H921 0.930 . S
C929 C927 1.419 . S
C929 C930 1.362 . S
C930 H922 0.930 . S
C930 C929 1.362 . S
C930 C933 1.409 1_565 S
C931 H923 0.930 . S
C931 C932 1.355 . S
C931 C933 1.415 . S
C932 C931 1.355 . S
C932 C934 1.419 . S
C933 C928 1.425 . S
C933 C930 1.409 1_545 S
C933 C931 1.415 . S
C934 H924 0.930 . S
C934 C932 1.419 . S
C934 C935 1.362 . S
C935 H925 0.930 . S
C935 C928 1.409 . S
C935 C934 1.362 . S
H936 C942 0.930 . S
H937 C945 0.930 . S
H938 C946 0.930 . S
H939 C947 0.930 . S
H940 C950 0.930 . S
H941 C951 0.930 . S
C942 H936 0.930 . S
C942 C943 1.355 . S
C942 C944 1.415 . S
C943 C942 1.355 . S
C943 C945 1.419 . S
C944 C942 1.415 . S
C944 C949 1.425 . S
C944 C951 1.409 . S
C945 H937 0.930 . S
C945 C943 1.419 . S
C945 C946 1.362 . S
C946 H938 0.930 . S
C946 C945 1.362 . S
C946 C949 1.409 . S
C947 H939 0.930 . S
C947 C948 1.355 . S
C947 C949 1.415 . S
C948 C947 1.355 . S
C948 C950 1.419 . S
C949 C944 1.425 . S
C949 C946 1.409 . S
C949 C947 1.415 . S
C950 H940 0.930 . S
C950 C948 1.419 . S
C950 C951 1.362 . S
C951 H941 0.930 . S
C951 C944 1.409 . S
C951 C950 1.362 . S
H952 C958 0.930 . S
H953 C961 0.930 . S
H954 C962 0.930 . S
H955 C963 0.930 . S
H956 C966 0.930 . S
H957 C967 0.930 . S
C958 H952 0.930 . S
C958 C959 1.355 . S
C958 C960 1.415 . S
C959 C958 1.355 . S
C959 C961 1.419 . S
C960 C958 1.415 . S
C960 C965 1.425 . S
C960 C967 1.409 . S
C961 H953 0.930 . S
C961 C959 1.419 . S
C961 C962 1.362 . S
C962 H954 0.930 . S
C962 C961 1.362 . S
C962 C965 1.409 . S
C963 H955 0.930 . S
C963 C964 1.355 . S
C963 C965 1.415 . S
C964 C963 1.355 . S
C964 C966 1.419 . S
C965 C960 1.425 . S
C965 C962 1.409 . S
C965 C963 1.415 . S
C966 H956 0.930 . S
C966 C964 1.419 . S
C966 C967 1.362 . S
C967 H957 0.930 . S
C967 C960 1.409 . S
C967 C966 1.362 . S
H968 C974 0.930 . S
H969 C977 0.930 . S
H970 C978 0.930 . S
H971 C979 0.930 . S
H972 C982 0.930 . S
H973 C983 0.930 . S
C974 H968 0.930 . S
C974 C975 1.355 . S
C974 C976 1.415 . S
C975 C974 1.355 . S
C975 C977 1.419 . S
C976 C974 1.415 . S
C976 C981 1.425 . S
C976 C983 1.409 . S
C977 H969 0.930 . S
C977 C975 1.419 . S
C977 C978 1.362 . S
C978 H970 0.930 . S
C978 C977 1.362 . S
C978 C981 1.409 . S
C979 H971 0.930 . S
C979 C980 1.355 . S
C979 C981 1.415 . S
C980 C979 1.355 . S
C980 C982 1.419 . S
C981 C976 1.425 . S
C981 C978 1.409 . S
C981 C979 1.415 . S
C982 H972 0.930 . S
C982 C980 1.419 . S
C982 C983 1.362 . S
C983 H973 0.930 . S
C983 C976 1.409 . S
C983 C982 1.362 . S
H984 C990 0.930 . S
H985 C993 0.930 . S
H986 C994 0.930 . S
H987 C995 0.930 . S
H988 C998 0.926 1_556 S
H989 C999 0.930 . S
C990 H984 0.930 . S
C990 C991 1.355 . S
C990 C992 1.415 . S
C991 C990 1.355 . S
C991 C993 1.419 . S
C992 C990 1.415 . S
C992 C997 1.425 1_556 S
C992 C999 1.409 . S
C993 H985 0.930 . S
C993 C991 1.419 . S
C993 C994 1.362 1_556 S
C994 H986 0.930 . S
C994 C993 1.362 1_554 S
C994 C997 1.409 . S
C995 H987 0.930 . S
C995 C996 1.355 . S
C995 C997 1.415 . S
C996 C995 1.355 . S
C996 C998 1.419 . S
C997 C992 1.425 1_554 S
C997 C994 1.409 . S
C997 C995 1.415 . S
C998 H988 0.926 1_554 S
C998 C996 1.419 . S
C998 C999 1.362 1_554 S
C999 H989 0.930 . S
C999 C992 1.409 . S
C999 C998 1.362 1_556 S
H1000 C1006 0.930 . S
H1001 C1009 0.930 . S
H1002 C1010 0.930 . S
H1003 C1011 0.930 . S
H1004 C1014 0.930 . S
H1005 C1015 0.930 . S
C1006 H1000 0.930 . S
C1006 C1007 1.355 . S
C1006 C1008 1.415 . S
C1007 C1006 1.355 . S
C1007 C1009 1.419 . S
C1008 C1006 1.415 . S
C1008 C1013 1.425 . S
C1008 C1015 1.409 . S
C1009 H1001 0.930 . S
C1009 C1007 1.419 . S
C1009 C1010 1.362 . S
C1010 H1002 0.930 . S
C1010 C1009 1.362 . S
C1010 C1013 1.409 . S
C1011 H1003 0.930 . S
C1011 C1012 1.355 . S
C1011 C1013 1.415 . S
C1012 C1011 1.355 . S
C1012 C1014 1.419 . S
C1013 C1008 1.425 . S
C1013 C1010 1.409 . S
C1013 C1011 1.415 . S
C1014 H1004 0.930 . S
C1014 C1012 1.419 . S
C1014 C1015 1.362 . S
C1015 H1005 0.930 . S
C1015 C1008 1.409 . S
C1015 C1014 1.362 . S
H1016 C1022 0.930 . S
H1017 C1025 0.930 . S
H1018 C1026 0.929 1_565 S
H1019 C1027 0.930 . S
H1020 C1030 0.930 . S
H1021 C1031 0.930 . S
C1022 H1016 0.930 . S
C1022 C1023 1.355 . S
C1022 C1024 1.415 . S
C1023 C1022 1.355 . S
C1023 C1025 1.419 . S
C1024 C1022 1.415 . S
C1024 C1029 1.425 1_545 S
C1024 C1031 1.409 . S
C1025 H1017 0.930 . S
C1025 C1023 1.419 . S
C1025 C1026 1.363 . S
C1026 H1018 0.929 1_545 S
C1026 C1025 1.363 . S
C1026 C1029 1.409 1_545 S
C1027 H1019 0.930 . S
C1027 C1028 1.355 . S
C1027 C1029 1.415 . S
C1028 C1027 1.355 . S
C1028 C1030 1.419 . S
C1029 C1024 1.425 1_565 S
C1029 C1026 1.409 1_565 S
C1029 C1027 1.415 . S
C1030 H1020 0.930 . S
C1030 C1028 1.419 . S
C1030 C1031 1.362 1_565 S
C1031 H1021 0.930 . S
C1031 C1024 1.409 . S
C1031 C1030 1.362 1_545 S
H1032 C1038 0.930 . S
H1033 C1041 0.930 . S
H1034 C1042 0.930 . S
H1035 C1043 0.930 . S
H1036 C1046 0.930 1_556 S
H1037 C1047 0.930 . S
C1038 H1032 0.930 . S
C1038 C1039 1.355 . S
C1038 C1040 1.415 . S
C1039 C1038 1.355 . S
C1039 C1041 1.419 . S
C1040 C1038 1.415 . S
C1040 C1045 1.425 . S
C1040 C1047 1.409 . S
C1041 H1033 0.930 . S
C1041 C1039 1.419 . S
C1041 C1042 1.362 . S
C1042 H1034 0.930 . S
C1042 C1041 1.362 . S
C1042 C1045 1.409 . S
C1043 H1035 0.930 . S
C1043 C1044 1.355 . S
C1043 C1045 1.415 1_556 S
C1044 C1043 1.355 . S
C1044 C1046 1.419 1_556 S
C1045 C1040 1.425 . S
C1045 C1042 1.409 . S
C1045 C1043 1.415 1_554 S
C1046 H1036 0.930 1_554 S
C1046 C1044 1.419 1_554 S
C1046 C1047 1.362 . S
C1047 H1037 0.930 . S
C1047 C1040 1.409 . S
C1047 C1046 1.362 . S
H1048 C1054 0.930 . S
H1049 C1057 0.930 . S
H1050 C1058 0.930 1_565 S
H1051 C1059 0.930 . S
H1052 C1062 0.930 . S
H1053 C1063 0.930 . S
C1054 H1048 0.930 . S
C1054 C1055 1.355 . S
C1054 C1056 1.415 . S
C1055 C1054 1.355 . S
C1055 C1057 1.419 . S
C1056 C1054 1.415 . S
C1056 C1061 1.425 . S
C1056 C1063 1.409 . S
C1057 H1049 0.930 . S
C1057 C1055 1.419 . S
C1057 C1058 1.362 . S
C1058 H1050 0.930 1_545 S
C1058 C1057 1.362 . S
C1058 C1061 1.409 . S
C1059 H1051 0.930 . S
C1059 C1060 1.355 . S
C1059 C1061 1.415 1_565 S
C1060 C1059 1.355 . S
C1060 C1062 1.419 . S
C1061 C1056 1.425 . S
C1061 C1058 1.409 . S
C1061 C1059 1.415 1_545 S
C1062 H1052 0.930 . S
C1062 C1060 1.419 . S
C1062 C1063 1.362 1_565 S
C1063 H1053 0.930 . S
C1063 C1056 1.409 . S
C1063 C1062 1.362 1_545 S
H1064 C1070 0.930 . S
H1065 C1073 0.930 . S
H1066 C1074 0.930 . S
H1067 C1075 0.930 . S
H1068 C1078 0.930 . S
H1069 C1079 0.930 . S
C1070 H1064 0.930 . S
C1070 C1071 1.355 . S
C1070 C1072 1.415 . S
C1071 C1070 1.355 . S
C1071 C1073 1.419 . S
C1072 C1070 1.415 . S
C1072 C1077 1.425 . S
C1072 C1079 1.409 . S
C1073 H1065 0.930 . S
C1073 C1071 1.419 . S
C1073 C1074 1.362 . S
C1074 H1066 0.930 . S
C1074 C1073 1.362 . S
C1074 C1077 1.409 . S
C1075 H1067 0.930 . S
C1075 C1076 1.355 . S
C1075 C1077 1.415 . S
C1076 C1075 1.355 . S
C1076 C1078 1.419 . S
C1077 C1072 1.425 . S
C1077 C1074 1.409 . S
C1077 C1075 1.415 . S
C1078 H1068 0.930 . S
C1078 C1076 1.419 . S
C1078 C1079 1.362 . S
C1079 H1069 0.930 . S
C1079 C1072 1.409 . S
C1079 C1078 1.362 . S
H1080 C1086 0.930 . S
H1081 C1089 0.930 . S
H1082 C1090 0.930 . S
H1083 C1091 0.930 . S
H1084 C1094 0.930 . S
H1085 C1095 0.930 . S
C1086 H1080 0.930 . S
C1086 C1087 1.355 . S
C1086 C1088 1.415 1_655 S
C1087 C1086 1.355 . S
C1087 C1089 1.419 1_655 S
C1088 C1086 1.415 1_455 S
C1088 C1093 1.425 . S
C1088 C1095 1.409 1_455 S
C1089 H1081 0.930 . S
C1089 C1087 1.419 1_455 S
C1089 C1090 1.362 . S
C1090 H1082 0.930 . S
C1090 C1089 1.362 . S
C1090 C1093 1.409 . S
C1091 H1083 0.930 . S
C1091 C1092 1.355 . S
C1091 C1093 1.415 . S
C1092 C1091 1.355 . S
C1092 C1094 1.419 . S
C1093 C1088 1.425 . S
C1093 C1090 1.409 . S
C1093 C1091 1.415 . S
C1094 H1084 0.930 . S
C1094 C1092 1.419 . S
C1094 C1095 1.362 1_455 S
C1095 H1085 0.930 . S
C1095 C1088 1.409 1_655 S
C1095 C1094 1.362 1_655 S
H1096 C1102 0.930 . S
H1097 C1105 0.930 . S
H1098 C1106 0.930 . S
H1099 C1107 0.930 . S
H1100 C1110 0.930 . S
H1101 C1111 0.930 . S
C1102 H1096 0.930 . S
C1102 C1103 1.355 1_655 S
C1102 C1104 1.415 . S
C1103 C1102 1.355 1_455 S
C1103 C1105 1.419 . S
C1104 C1102 1.415 . S
C1104 C1109 1.425 . S
C1104 C1111 1.409 . S
C1105 H1097 0.930 . S
C1105 C1103 1.419 . S
C1105 C1106 1.362 . S
C1106 H1098 0.930 . S
C1106 C1105 1.362 . S
C1106 C1109 1.409 1_455 S
C1107 H1099 0.930 . S
C1107 C1108 1.355 . S
C1107 C1109 1.415 . S
C1108 C1107 1.355 . S
C1108 C1110 1.419 . S
C1109 C1104 1.425 . S
C1109 C1106 1.409 1_655 S
C1109 C1107 1.415 . S
C1110 H1100 0.930 . S
C1110 C1108 1.419 . S
C1110 C1111 1.362 . S
C1111 H1101 0.930 . S
C1111 C1104 1.409 . S
C1111 C1110 1.362 . S
H1112 C1118 0.930 . S
H1113 C1121 0.930 . S
H1114 C1122 0.930 . S
H1115 C1123 0.930 . S
H1116 C1126 0.930 . S
H1117 C1127 0.930 . S
C1118 H1112 0.930 . S
C1118 C1119 1.355 . S
C1118 C1120 1.415 . S
C1119 C1118 1.355 . S
C1119 C1121 1.419 . S
C1120 C1118 1.415 . S
C1120 C1125 1.425 . S
C1120 C1127 1.409 . S
C1121 H1113 0.930 . S
C1121 C1119 1.419 . S
C1121 C1122 1.362 . S
C1122 H1114 0.930 . S
C1122 C1121 1.362 . S
C1122 C1125 1.409 . S
C1123 H1115 0.930 . S
C1123 C1124 1.355 . S
C1123 C1125 1.415 . S
C1124 C1123 1.355 . S
C1124 C1126 1.419 . S
C1125 C1120 1.425 . S
C1125 C1122 1.409 . S
C1125 C1123 1.415 . S
C1126 H1116 0.930 . S
C1126 C1124 1.419 . S
C1126 C1127 1.362 . S
C1127 H1117 0.930 . S
C1127 C1120 1.409 . S
C1127 C1126 1.362 . S
H1128 C1134 0.930 . S
H1129 C1137 0.930 . S
H1130 C1138 0.930 . S
H1131 C1139 0.930 . S
H1132 C1142 0.930 . S
H1133 C1143 0.930 . S
C1134 H1128 0.930 . S
C1134 C1135 1.355 . S
C1134 C1136 1.415 . S
C1135 C1134 1.355 . S
C1135 C1137 1.419 . S
C1136 C1134 1.415 . S
C1136 C1141 1.425 1_455 S
C1136 C1143 1.409 . S
C1137 H1129 0.930 . S
C1137 C1135 1.419 . S
C1137 C1138 1.362 1_455 S
C1138 H1130 0.930 . S
C1138 C1137 1.362 1_655 S
C1138 C1141 1.409 . S
C1139 H1131 0.930 . S
C1139 C1140 1.355 . S
C1139 C1141 1.415 . S
C1140 C1139 1.355 . S
C1140 C1142 1.419 . S
C1141 C1136 1.425 1_655 S
C1141 C1138 1.409 . S
C1141 C1139 1.415 . S
C1142 H1132 0.930 . S
C1142 C1140 1.419 . S
C1142 C1143 1.362 1_655 S
C1143 H1133 0.930 . S
C1143 C1136 1.409 . S
C1143 C1142 1.362 1_455 S
H1144 C1150 0.930 . S
H1145 C1153 0.930 . S
H1146 C1154 0.930 . S
H1147 C1155 0.930 . S
H1148 C1158 0.930 . S
H1149 C1159 0.930 1_455 S
C1150 H1144 0.930 . S
C1150 C1151 1.355 1_455 S
C1150 C1152 1.415 1_455 S
C1151 C1150 1.355 1_655 S
C1151 C1153 1.419 . S
C1152 C1150 1.415 1_655 S
C1152 C1157 1.425 . S
C1152 C1159 1.409 . S
C1153 H1145 0.930 . S
C1153 C1151 1.419 . S
C1153 C1154 1.362 . S
C1154 H1146 0.930 . S
C1154 C1153 1.362 . S
C1154 C1157 1.409 . S
C1155 H1147 0.930 . S
C1155 C1156 1.355 . S
C1155 C1157 1.415 . S
C1156 C1155 1.355 . S
C1156 C1158 1.419 . S
C1157 C1152 1.425 . S
C1157 C1154 1.409 . S
C1157 C1155 1.415 . S
C1158 H1148 0.930 . S
C1158 C1156 1.419 . S
C1158 C1159 1.362 . S
C1159 H1149 0.930 1_655 S
C1159 C1152 1.409 . S
C1159 C1158 1.362 . S
H1160 C1166 0.930 . S
H1161 C1169 0.930 . S
H1162 C1170 0.930 . S
H1163 C1171 0.930 . S
H1164 C1174 0.930 . S
H1165 C1175 0.930 . S
C1166 H1160 0.930 . S
C1166 C1167 1.355 . S
C1166 C1168 1.415 . S
C1167 C1166 1.355 . S
C1167 C1169 1.419 . S
C1168 C1166 1.415 . S
C1168 C1173 1.425 . S
C1168 C1175 1.409 . S
C1169 H1161 0.930 . S
C1169 C1167 1.419 . S
C1169 C1170 1.362 . S
C1170 H1162 0.930 . S
C1170 C1169 1.362 . S
C1170 C1173 1.409 . S
C1171 H1163 0.930 . S
C1171 C1172 1.355 . S
C1171 C1173 1.415 . S
C1172 C1171 1.355 . S
C1172 C1174 1.419 . S
C1173 C1168 1.425 . S
C1173 C1170 1.409 . S
C1173 C1171 1.415 . S
C1174 H1164 0.930 . S
C1174 C1172 1.419 . S
C1174 C1175 1.362 . S
C1175 H1165 0.930 . S
C1175 C1168 1.409 . S
C1175 C1174 1.362 . S
H1176 C1182 0.930 . S
H1177 C1185 0.930 . S
H1178 C1186 0.930 . S
H1179 C1187 0.930 . S
H1180 C1190 0.930 . S
H1181 C1191 0.930 . S
C1182 H1176 0.930 . S
C1182 C1183 1.355 . S
C1182 C1184 1.415 . S
C1183 C1182 1.355 . S
C1183 C1185 1.419 . S
C1184 C1182 1.415 . S
C1184 C1189 1.425 . S
C1184 C1191 1.409 1_565 S
C1185 H1177 0.930 . S
C1185 C1183 1.419 . S
C1185 C1186 1.362 . S
C1186 H1178 0.930 . S
C1186 C1185 1.362 . S
C1186 C1189 1.409 . S
C1187 H1179 0.930 . S
C1187 C1188 1.355 . S
C1187 C1189 1.415 1_545 S
C1188 C1187 1.355 . S
C1188 C1190 1.419 . S
C1189 C1184 1.425 . S
C1189 C1186 1.409 . S
C1189 C1187 1.415 1_565 S
C1190 H1180 0.930 . S
C1190 C1188 1.419 . S
C1190 C1191 1.362 . S
C1191 H1181 0.930 . S
C1191 C1184 1.409 1_545 S
C1191 C1190 1.362 . S
H1192 C1198 0.930 1_554 S
H1193 C1201 0.930 . S
H1194 C1202 0.930 . S
H1195 C1203 0.930 . S
H1196 C1206 0.930 . S
H1197 C1207 0.930 . S
C1198 H1192 0.930 1_556 S
C1198 C1199 1.355 . S
C1198 C1200 1.415 1_556 S
C1199 C1198 1.355 . S
C1199 C1201 1.419 . S
C1200 C1198 1.415 1_554 S
C1200 C1205 1.430 . S
C1200 C1207 1.409 . S
C1201 H1193 0.930 . S
C1201 C1199 1.419 . S
C1201 C1202 1.362 . S
C1202 H1194 0.930 . S
C1202 C1201 1.362 . S
C1202 C1205 1.397 1_556 S
C1203 H1195 0.930 . S
C1203 C1204 1.355 . S
C1203 C1205 1.422 . S
C1204 C1203 1.355 . S
C1204 C1206 1.419 . S
C1205 C1200 1.430 . S
C1205 C1202 1.397 1_554 S
C1205 C1203 1.422 . S
C1206 H1196 0.930 . S
C1206 C1204 1.419 . S
C1206 C1207 1.362 . S
C1207 H1197 0.930 . S
C1207 C1200 1.409 . S
C1207 C1206 1.362 . S
H1208 C1214 0.930 . S
H1209 C1217 0.930 . S
H1210 C1218 0.930 . S
H1211 C1219 0.930 . S
H1212 C1222 0.930 . S
H1213 C1223 0.930 1_545 S
C1214 H1208 0.930 . S
C1214 C1215 1.355 . S
C1214 C1216 1.415 1_545 S
C1215 C1214 1.355 . S
C1215 C1217 1.419 1_545 S
C1216 C1214 1.415 1_565 S
C1216 C1221 1.425 . S
C1216 C1223 1.409 . S
C1217 H1209 0.930 . S
C1217 C1215 1.419 1_565 S
C1217 C1218 1.362 . S
C1218 H1210 0.930 . S
C1218 C1217 1.362 . S
C1218 C1221 1.409 . S
C1219 H1211 0.930 . S
C1219 C1220 1.355 . S
C1219 C1221 1.415 . S
C1220 C1219 1.355 . S
C1220 C1222 1.419 . S
C1221 C1216 1.425 . S
C1221 C1218 1.409 . S
C1221 C1219 1.415 . S
C1222 H1212 0.930 . S
C1222 C1220 1.419 . S
C1222 C1223 1.362 . S
C1223 H1213 0.930 1_565 S
C1223 C1216 1.409 . S
C1223 C1222 1.362 . S
H1224 C1230 0.930 . S
H1225 C1233 0.930 . S
H1226 C1234 0.930 . S
H1227 C1235 0.930 . S
H1228 C1238 0.930 . S
H1229 C1239 0.930 . S
C1230 H1224 0.930 . S
C1230 C1231 1.355 . S
C1230 C1232 1.415 . S
C1231 C1230 1.355 . S
C1231 C1233 1.419 . S
C1232 C1230 1.415 . S
C1232 C1237 1.425 . S
C1232 C1239 1.409 . S
C1233 H1225 0.930 . S
C1233 C1231 1.419 . S
C1233 C1234 1.362 . S
C1234 H1226 0.930 . S
C1234 C1233 1.362 . S
C1234 C1237 1.409 . S
C1235 H1227 0.930 . S
C1235 C1236 1.355 . S
C1235 C1237 1.415 . S
C1236 C1235 1.355 . S
C1236 C1238 1.419 . S
C1237 C1232 1.425 . S
C1237 C1234 1.409 . S
C1237 C1235 1.415 . S
C1238 H1228 0.930 . S
C1238 C1236 1.419 . S
C1238 C1239 1.362 . S
C1239 H1229 0.930 . S
C1239 C1232 1.409 . S
C1239 C1238 1.362 . S
H1240 C1246 0.930 . S
H1241 C1249 0.930 . S
H1242 C1250 0.930 . S
H1243 C1251 0.930 . S
H1244 C1254 0.930 . S
H1245 C1255 0.932 . S
C1246 H1240 0.930 . S
C1246 C1247 1.355 . S
C1246 C1248 1.415 1_554 S
C1247 C1246 1.355 . S
C1247 C1249 1.419 . S
C1248 C1246 1.415 1_556 S
C1248 C1253 1.425 . S
C1248 C1255 1.409 . S
C1249 H1241 0.930 . S
C1249 C1247 1.419 . S
C1249 C1250 1.362 1_554 S
C1250 H1242 0.930 . S
C1250 C1249 1.362 1_556 S
C1250 C1253 1.409 . S
C1251 H1243 0.930 . S
C1251 C1252 1.355 . S
C1251 C1253 1.415 . S
C1252 C1251 1.355 . S
C1252 C1254 1.419 . S
C1253 C1248 1.425 . S
C1253 C1250 1.409 . S
C1253 C1251 1.415 . S
C1254 H1244 0.930 . S
C1254 C1252 1.419 . S
C1254 C1255 1.362 . S
C1255 H1245 0.932 . S
C1255 C1248 1.409 . S
C1255 C1254 1.362 . S
H1256 C1262 0.930 . S
H1257 C1265 0.930 . S
H1258 C1266 0.930 . S
H1259 C1267 0.930 . S
H1260 C1270 0.930 . S
H1261 C1271 0.930 . S
C1262 H1256 0.930 . S
C1262 C1263 1.355 . S
C1262 C1264 1.415 . S
C1263 C1262 1.355 . S
C1263 C1265 1.419 . S
C1264 C1262 1.415 . S
C1264 C1269 1.425 . S
C1264 C1271 1.409 . S
C1265 H1257 0.930 . S
C1265 C1263 1.419 . S
C1265 C1266 1.362 . S
C1266 H1258 0.930 . S
C1266 C1265 1.362 . S
C1266 C1269 1.409 . S
C1267 H1259 0.930 . S
C1267 C1268 1.355 . S
C1267 C1269 1.415 . S
C1268 C1267 1.355 . S
C1268 C1270 1.419 . S
C1269 C1264 1.425 . S
C1269 C1266 1.409 . S
C1269 C1267 1.415 . S
C1270 H1260 0.930 . S
C1270 C1268 1.419 . S
C1270 C1271 1.362 . S
C1271 H1261 0.930 . S
C1271 C1264 1.409 . S
C1271 C1270 1.362 . S
H1272 C1278 0.930 . S
H1273 C1281 0.930 . S
H1274 C1282 0.930 . S
H1275 C1283 0.930 . S
H1276 C1286 0.930 . S
H1277 C1287 0.930 . S
C1278 H1272 0.930 . S
C1278 C1279 1.355 . S
C1278 C1280 1.415 . S
C1279 C1278 1.355 . S
C1279 C1281 1.419 . S
C1280 C1278 1.415 . S
C1280 C1285 1.425 . S
C1280 C1287 1.409 . S
C1281 H1273 0.930 . S
C1281 C1279 1.419 . S
C1281 C1282 1.362 . S
C1282 H1274 0.930 . S
C1282 C1281 1.362 . S
C1282 C1285 1.409 . S
C1283 H1275 0.930 . S
C1283 C1284 1.355 . S
C1283 C1285 1.415 . S
C1284 C1283 1.355 . S
C1284 C1286 1.419 . S
C1285 C1280 1.425 . S
C1285 C1282 1.409 . S
C1285 C1283 1.415 . S
C1286 H1276 0.930 . S
C1286 C1284 1.419 . S
C1286 C1287 1.362 . S
C1287 H1277 0.930 . S
C1287 C1280 1.409 . S
C1287 C1286 1.362 . S
H1288 C1294 0.930 . S
H1289 C1297 0.930 . S
H1290 C1298 0.930 . S
H1291 C1299 0.930 . S
H1292 C1302 0.930 . S
H1293 C1303 0.930 . S
C1294 H1288 0.930 . S
C1294 C1295 1.355 . S
C1294 C1296 1.415 . S
C1295 C1294 1.355 . S
C1295 C1297 1.419 . S
C1296 C1294 1.415 . S
C1296 C1301 1.425 . S
C1296 C1303 1.409 . S
C1297 H1289 0.930 . S
C1297 C1295 1.419 . S
C1297 C1298 1.362 . S
C1298 H1290 0.930 . S
C1298 C1297 1.362 . S
C1298 C1301 1.409 . S
C1299 H1291 0.930 . S
C1299 C1300 1.355 . S
C1299 C1301 1.415 . S
C1300 C1299 1.355 . S
C1300 C1302 1.419 . S
C1301 C1296 1.425 . S
C1301 C1298 1.409 . S
C1301 C1299 1.415 . S
C1302 H1292 0.930 . S
C1302 C1300 1.419 . S
C1302 C1303 1.362 . S
C1303 H1293 0.930 . S
C1303 C1296 1.409 . S
C1303 C1302 1.362 . S
H1304 C1310 0.930 . S
H1305 C1313 0.930 . S
H1306 C1314 0.930 . S
H1307 C1315 0.930 . S
H1308 C1318 0.930 . S
H1309 C1319 0.930 . S
C1310 H1304 0.930 . S
C1310 C1311 1.355 . S
C1310 C1312 1.415 . S
C1311 C1310 1.355 . S
C1311 C1313 1.419 . S
C1312 C1310 1.415 . S
C1312 C1317 1.425 . S
C1312 C1319 1.409 . S
C1313 H1305 0.930 . S
C1313 C1311 1.419 . S
C1313 C1314 1.362 . S
C1314 H1306 0.930 . S
C1314 C1313 1.362 . S
C1314 C1317 1.409 . S
C1315 H1307 0.930 . S
C1315 C1316 1.355 . S
C1315 C1317 1.415 . S
C1316 C1315 1.355 . S
C1316 C1318 1.419 . S
C1317 C1312 1.425 . S
C1317 C1314 1.409 . S
C1317 C1315 1.415 . S
C1318 H1308 0.930 . S
C1318 C1316 1.419 . S
C1318 C1319 1.362 . S
C1319 H1309 0.930 . S
C1319 C1312 1.409 . S
C1319 C1318 1.362 . S
C559 C16 1.600 . S
C564 N209 1.632 . S
C575 N35 1.328 . S
C580 C246 1.305 . S
C591 N255 1.427 . S
C596 N58 1.382 . S
C607 N186 1.498 . S
C612 C85 1.549 . S
C623 N242 1.600 . S
C628 C99 1.629 . S
C639 N117 1.342 . S
C644 C260 1.372 . S
C655 N140 1.438 . S
C660 C191 1.454 . S
C671 C214 1.473 . S
C676 C168 1.471 . S
C687 N94 0.982 . S
C692 N288 1.079 . S
C703 N163 1.573 . S
C708 C361 1.601 . S
C719 C375 1.379 . S
C724 C122 1.380 . S
C735 N81 0.968 . S
C740 N301 0.894 . S
C751 N324 1.922 . S
C756 C145 1.944 . S
C767 N12 1.310 . S
C772 N439 1.295 . S
C783 C62 1.651 . S
C788 C421 1.655 . S
C799 N357 1.193 . S
C804 C499 1.241 . S
C815 C522 1.668 . S
C820 C292 1.664 . S
C831 N531 1.387 . S
C836 N370 1.346 . S
C847 C476 1.515 . S
C852 C329 1.543 . S
C863 N518 1.275 . S
C868 N393 1.211 . S
C879 N416 1.660 . S
C884 C536 1.651 . S
C895 N472 1.427 . S
C900 C306 1.455 . S
C911 C444 1.492 . S
C916 N495 1.473 . S
C927 C39 2.004 . S
C932 C398 2.007 . S
C943 C108 1.380 . S
C948 C7 1.389 . S
C959 N25 0.924 . S
C964 N127 0.945 . S
C975 N48 1.042 . S
C980 N150 1.067 . S
C991 C177 1.112 . S
C996 C76 1.106 . S
C1007 N196 1.166 . S
C1012 C223 1.117 . S
C1023 N219 1.207 . S
C1028 N232 1.218 . S
C1039 C269 0.937 . S
C1044 C237 0.956 . S
C1055 C200 1.159 . S
C1060 N265 1.118 . S
C1071 N71 0.653 . S
C1076 N278 0.687 . S
C1087 N173 1.291 . S
C1092 C430 1.264 . S
C1103 N104 0.744 . S
C1108 N311 0.772 . S
C1119 N449 1.036 . S
C1124 C131 1.065 . S
C1135 N334 1.571 . S
C1140 C30 1.588 . S
C1151 N2 1.020 1_655 S
C1156 C384 1.061 . S
C1167 C53 1.408 . S
C1172 C352 1.402 . S
C1183 N347 0.964 . S
C1188 N403 0.985 . S
C1199 N426 1.279 . S
C1204 C283 1.273 . S
C1215 N380 1.120 . S
C1220 C315 1.088 . S
C1231 C338 1.052 . S
C1236 C453 1.066 . S
C1247 N485 1.203 . S
C1252 C467 1.199 . S
C1263 N508 1.048 . S
C1268 C490 1.031 . S
C1279 C545 1.237 . S
C1284 C513 1.252 . S
C1295 N462 0.995 . S
C1300 N541 1.058 . S
C1311 C407 1.657 . S
C1316 C154 1.647 . S
