# Generated by pormake.
# Topology qtz-e, (6)-cn, num edge types: 1
# Building blocks:
#     Node 0, Type 0, BuildingBlock: JUFBIX_clean_sbu_0, # of connection points: 6
#     Node 1, Type 0, BuildingBlock: JUFBIX_clean_sbu_0, # of connection points: 6
#     Node 2, Type 0, BuildingBlock: JUFBIX_clean_sbu_0, # of connection points: 6
#     Node 3, Type 0, BuildingBlock: JUFBIX_clean_sbu_0, # of connection points: 6
#     Node 4, Type 0, BuildingBlock: JUFBIX_clean_sbu_0, # of connection points: 6
#     Node 5, Type 0, BuildingBlock: JUFBIX_clean_sbu_0, # of connection points: 6
#     Edge 6, Type (0, 0), BuildingBlock: MIFKUJ_clean_linker_0, # of connection points: 2
#     Edge 7, Type (0, 0), BuildingBlock: MIFKUJ_clean_linker_0, # of connection points: 2
#     Edge 8, Type (0, 0), BuildingBlock: MIFKUJ_clean_linker_0, # of connection points: 2
#     Edge 9, Type (0, 0), BuildingBlock: MIFKUJ_clean_linker_0, # of connection points: 2
#     Edge 10, Type (0, 0), BuildingBlock: MIFKUJ_clean_linker_0, # of connection points: 2
#     Edge 11, Type (0, 0), BuildingBlock: MIFKUJ_clean_linker_0, # of connection points: 2
#     Edge 12, Type (0, 0), BuildingBlock: MIFKUJ_clean_linker_0, # of connection points: 2
#     Edge 13, Type (0, 0), BuildingBlock: MIFKUJ_clean_linker_0, # of connection points: 2
#     Edge 14, Type (0, 0), BuildingBlock: MIFKUJ_clean_linker_0, # of connection points: 2
#     Edge 15, Type (0, 0), BuildingBlock: MIFKUJ_clean_linker_0, # of connection points: 2
#     Edge 16, Type (0, 0), BuildingBlock: MIFKUJ_clean_linker_0, # of connection points: 2
#     Edge 17, Type (0, 0), BuildingBlock: MIFKUJ_clean_linker_0, # of connection points: 2
#     Edge 18, Type (0, 0), BuildingBlock: MIFKUJ_clean_linker_0, # of connection points: 2
#     Edge 19, Type (0, 0), BuildingBlock: MIFKUJ_clean_linker_0, # of connection points: 2
#     Edge 20, Type (0, 0), BuildingBlock: MIFKUJ_clean_linker_0, # of connection points: 2
#     Edge 21, Type (0, 0), BuildingBlock: MIFKUJ_clean_linker_0, # of connection points: 2
#     Edge 22, Type (0, 0), BuildingBlock: MIFKUJ_clean_linker_0, # of connection points: 2
#     Edge 23, Type (0, 0), BuildingBlock: MIFKUJ_clean_linker_0, # of connection points: 2
# Relax obj value: 0.635
# Max RMSD: 0.294
# Mean RMSD: 0.294
data_MOF--net-qtz-e--node1-JUFBIX_clean_sbu_0--edge1-MIFKUJ_clean_linker_0
_symmetry_space_group_name_H-M    P1
_symmetry_Int_Tables_number       1
_symmetry_cell_setting            triclinic
loop_
_symmetry_equiv_pos_as_xyz
'x, y, z'
_cell_length_a     33.528084
_cell_length_b     33.529692
_cell_length_c     46.993803
_cell_angle_alpha  90.013263
_cell_angle_beta   89.990664
_cell_angle_gamma 119.99764
loop_
_atom_site_label
_atom_site_type_symbol
_atom_site_fract_x
_atom_site_fract_y
_atom_site_fract_z
_atom_type_partial_charge
Co0 Co 0.2232 0.40753 0.13324 0.0
C1 C 0.26046 0.36403 0.10378 0.0
Co2 Co 0.17756 0.36437 0.09878 0.0
C3 C 0.24634 0.45709 0.1862 0.0
C4 C 0.30624 0.47251 0.1618 0.0
N5 N 0.26007 0.44525 0.16223 0.0
N6 N 0.28194 0.49142 0.20033 0.0
C7 C 0.31979 0.50124 0.1851 0.0
H8 H 0.21058 0.44319 0.19209 0.0
H9 H 0.32819 0.47314 0.14479 0.0
C10 C 0.14247 0.41111 0.12736 0.0
N11 N 0.14106 0.32756 0.06919 0.0
C12 C 0.14396 0.29285 0.05677 0.0
C13 C 0.11241 0.33433 0.05232 0.0
N14 N 0.1197 0.27866 0.03235 0.0
C15 C 0.09918 0.30425 0.02965 0.0
C16 C 0.16034 0.31929 0.15039 0.0
O17 O 0.18087 0.42784 0.14003 0.0
O18 O 0.13207 0.38001 0.10869 0.0
O19 O 0.15013 0.31353 0.12407 0.0
O20 O 0.19134 0.35857 0.15921 0.0
O21 O 0.22433 0.35043 0.08894 0.0
H22 H 0.1044 0.3616 0.0551 0.0
H23 H 0.16574 0.27996 0.06457 0.0
O24 O 0.26581 0.38769 0.12599 0.0
O25 O 0.25469 0.45653 0.10678 0.0
O26 O 0.2051 0.41536 0.07363 0.0
C27 C 0.24004 0.45283 0.08142 0.0
H28 H 0.35442 0.52847 0.18986 0.0
H29 H 0.07935 0.30404 0.01141 0.0
Co30 Co 0.76024 0.16963 0.3656 0.0
C31 C 0.71589 0.08293 0.38898 0.0
Co32 Co 0.80359 0.15883 0.39647 0.0
C33 C 0.74204 0.20765 0.31628 0.0
C34 C 0.67976 0.16529 0.33919 0.0
N35 N 0.72536 0.18052 0.33948 0.0
N36 N 0.70903 0.21063 0.30169 0.0
C37 C 0.66958 0.18373 0.31592 0.0
H38 H 0.77798 0.22499 0.31018 0.0
H39 H 0.65567 0.14271 0.355 0.0
C40 C 0.84602 0.24643 0.37352 0.0
N41 N 0.83989 0.14874 0.4217 0.0
C42 C 0.82659 0.12413 0.44599 0.0
C43 C 0.88486 0.16199 0.41884 0.0
N44 N 0.8613 0.12102 0.45836 0.0
C45 C 0.89814 0.14506 0.44137 0.0
C46 C 0.81313 0.13732 0.34083 0.0
O47 O 0.80792 0.22977 0.36065 0.0
O48 O 0.85284 0.22093 0.39052 0.0
O49 O 0.82594 0.13778 0.3663 0.0
O50 O 0.78398 0.14998 0.33563 0.0
O51 O 0.7535 0.09749 0.40255 0.0
H52 H 0.90627 0.18162 0.40111 0.0
H53 H 0.79185 0.10845 0.45424 0.0
O54 O 0.71213 0.10904 0.37094 0.0
O55 O 0.73717 0.19017 0.39613 0.0
O56 O 0.78111 0.17984 0.42647 0.0
C57 C 0.75175 0.19238 0.42145 0.0
H58 H 0.63605 0.17878 0.3104 0.0
H59 H 0.93184 0.14877 0.44439 0.0
Co60 Co 0.57664 0.81411 0.79822 0.0
C61 C 0.61555 0.89602 0.76876 0.0
Co62 Co 0.62151 0.81683 0.76301 0.0
C63 C 0.52733 0.78628 0.85146 0.0
C64 C 0.50718 0.82606 0.82588 0.0
N65 N 0.53731 0.81055 0.82701 0.0
N66 N 0.49157 0.78523 0.86529 0.0
C67 C 0.47881 0.81029 0.84931 0.0
H68 H 0.54381 0.76703 0.85798 0.0
H69 H 0.50447 0.84546 0.80837 0.0
C70 C 0.57917 0.73351 0.79151 0.0
N71 N 0.66011 0.81969 0.73381 0.0
C72 C 0.69546 0.85779 0.72221 0.0
C73 C 0.65662 0.78452 0.71795 0.0
N74 N 0.71376 0.84795 0.69956 0.0
C75 C 0.68962 0.80178 0.69694 0.0
C76 C 0.66615 0.84541 0.81506 0.0
O77 O 0.56144 0.75288 0.80569 0.0
O78 O 0.60803 0.75607 0.77204 0.0
O79 O 0.67144 0.84081 0.78871 0.0
O80 O 0.62657 0.83572 0.82422 0.0
O81 O 0.63313 0.87702 0.75395 0.0
H82 H 0.63045 0.7488 0.72062 0.0
H83 H 0.70674 0.89235 0.72969 0.0
O84 O 0.5914 0.87514 0.79036 0.0
O85 O 0.52678 0.79204 0.7716 0.0
O86 O 0.57167 0.79285 0.73742 0.0
C87 C 0.53235 0.78494 0.74569 0.0
H88 H 0.44992 0.81533 0.85368 0.0
H89 H 0.6936 0.78215 0.68001 0.0
Co90 Co 0.81004 0.57682 0.026 0.0
C91 C 0.89001 0.62167 0.05553 0.0
Co92 Co 0.80504 0.61823 0.06096 0.0
C93 C 0.7744 0.50271 0.98561 0.0
C94 C 0.84303 0.55482 0.97511 0.0
N95 N 0.8105 0.54212 0.99538 0.0
N96 N 0.78227 0.49097 0.95956 0.0
C97 C 0.82584 0.52354 0.95311 0.0
H98 H 0.74201 0.48445 0.99685 0.0
H99 H 0.87581 0.58654 0.97535 0.0
C100 C 0.72396 0.56992 0.03254 0.0
N101 N 0.80402 0.65283 0.09164 0.0
C102 C 0.84113 0.68669 0.10503 0.0
C103 C 0.76786 0.64585 0.10789 0.0
N104 N 0.82992 0.70022 0.12926 0.0
C105 C 0.78373 0.67505 0.13105 0.0
C106 C 0.83159 0.6658 0.01059 0.0
O107 O 0.74715 0.55569 0.0191 0.0
O108 O 0.74316 0.60002 0.0519 0.0
O109 O 0.82526 0.66963 0.03686 0.0
O110 O 0.82664 0.62793 0.00128 0.0
O111 O 0.86653 0.63466 0.0699 0.0
H112 H 0.73258 0.61927 0.10422 0.0
H113 H 0.87624 0.69976 0.09804 0.0
O114 O 0.87259 0.59734 0.03343 0.0
O115 O 0.79334 0.5262 0.05127 0.0
O116 O 0.78474 0.56659 0.08502 0.0
C117 C 0.78327 0.52969 0.07694 0.0
H118 H 0.84301 0.52676 0.93304 0.0
H119 H 0.76335 0.67513 0.1489 0.0
Co120 Co 0.17035 0.76404 0.46352 0.0
C121 C 0.08972 0.72097 0.43368 0.0
Co122 Co 0.1693 0.80637 0.42795 0.0
C123 C 0.19996 0.74405 0.51668 0.0
C124 C 0.15303 0.68285 0.49418 0.0
N125 N 0.17337 0.72915 0.49315 0.0
N126 N 0.19755 0.70897 0.53215 0.0
C127 C 0.16778 0.67035 0.51809 0.0
H128 H 0.22261 0.78008 0.52155 0.0
H129 H 0.13037 0.65967 0.47798 0.0
C130 C 0.25194 0.84716 0.45595 0.0
N131 N 0.16609 0.84032 0.39778 0.0
C132 C 0.12731 0.83593 0.38616 0.0
C133 C 0.20018 0.869 0.38013 0.0
N134 N 0.13546 0.85952 0.36159 0.0
C135 C 0.18143 0.88091 0.35787 0.0
C136 C 0.13999 0.82365 0.4793 0.0
O137 O 0.23232 0.81007 0.47022 0.0
O138 O 0.2293 0.85407 0.43683 0.0
O139 O 0.1443 0.83301 0.45285 0.0
O140 O 0.14977 0.79395 0.48866 0.0
O141 O 0.10987 0.75713 0.41867 0.0
H142 H 0.2359 0.87821 0.38226 0.0
H143 H 0.09328 0.81385 0.39482 0.0
O144 O 0.10897 0.71803 0.45614 0.0
O145 O 0.19117 0.73439 0.43797 0.0
O146 O 0.19459 0.77997 0.40344 0.0
C147 C 0.20056 0.74753 0.41226 0.0
H148 H 0.15823 0.63558 0.52419 0.0
H149 H 0.19976 0.90072 0.3393 0.0
Co150 Co 0.40449 0.2275 0.69369 0.0
C151 C 0.3653 0.27445 0.71862 0.0
Co152 Co 0.35308 0.18746 0.72673 0.0
C153 C 0.48564 0.2585 0.65885 0.0
C154 C 0.44642 0.29036 0.64716 0.0
N155 N 0.44829 0.26147 0.66631 0.0
N156 N 0.50676 0.28366 0.63541 0.0
C157 C 0.48215 0.30401 0.62821 0.0
H158 H 0.49601 0.23684 0.66989 0.0
H159 H 0.4194 0.29902 0.64612 0.0
C160 C 0.3945 0.14205 0.70239 0.0
N161 N 0.30879 0.15272 0.7535 0.0
C162 C 0.30019 0.16679 0.77847 0.0
C163 C 0.27514 0.10839 0.75082 0.0
N164 N 0.26215 0.13321 0.79127 0.0
C165 C 0.24625 0.09637 0.77396 0.0
C166 C 0.31699 0.1743 0.67199 0.0
O167 O 0.41462 0.17829 0.68753 0.0
O168 O 0.36546 0.13835 0.7211 0.0
O169 O 0.3074 0.16305 0.69793 0.0
O170 O 0.35814 0.20359 0.66522 0.0
O171 O 0.34195 0.23732 0.73253 0.0
H172 H 0.27107 0.08667 0.73275 0.0
H173 H 0.32021 0.20165 0.78645 0.0
O174 O 0.39415 0.27686 0.70023 0.0
O175 O 0.4509 0.25069 0.72251 0.0
O176 O 0.39908 0.21188 0.7553 0.0
C177 C 0.44079 0.2392 0.74848 0.0
H178 H 0.48757 0.32498 0.60954 0.0
H179 H 0.21558 0.0634 0.77758 0.0
H180 H 0.2382 0.776 0.35954 0.0
H181 H 0.2569 0.73332 0.32502 0.0
H182 H 0.21421 0.62188 0.38506 0.0
H183 H 0.19677 0.66502 0.42002 0.0
H184 H 0.28743 0.63376 0.35712 0.0
H185 H 0.14397 0.62138 0.33326 0.0
H186 H 0.09105 0.6503 0.32262 0.0
H187 H 0.16634 0.71417 0.24629 0.0
H188 H 0.22133 0.68772 0.25721 0.0
H189 H 0.22607 0.45788 0.24598 0.0
H190 H 0.21653 0.5029 0.28399 0.0
H191 H 0.31876 0.62858 0.24409 0.0
H192 H 0.32924 0.58377 0.20653 0.0
H193 H 0.21415 0.60689 0.26193 0.0
H194 H 0.36262 0.62422 0.29203 0.0
H195 H 0.41234 0.59205 0.30448 0.0
H196 H 0.31691 0.50912 0.36961 0.0
H197 H 0.26627 0.54036 0.35721 0.0
C198 C 0.23323 0.74259 0.36549 0.0
C199 C 0.21561 0.72362 0.39237 0.0
C200 C 0.24381 0.7182 0.34572 0.0
C201 C 0.23605 0.67402 0.35227 0.0
C202 C 0.2203 0.65585 0.37953 0.0
C203 C 0.21025 0.68049 0.39945 0.0
C204 C 0.24244 0.64599 0.33028 0.0
C205 C 0.2711 0.6277 0.33641 0.0
C206 C 0.22092 0.63782 0.30323 0.0
C207 C 0.18722 0.65296 0.29625 0.0
C208 C 0.14964 0.64201 0.31435 0.0
C209 C 0.11927 0.65802 0.3083 0.0
C210 C 0.12521 0.6839 0.28375 0.0
C211 C 0.16178 0.69411 0.26531 0.0
C212 C 0.19274 0.67882 0.2715 0.0
C213 C 0.24676 0.49509 0.24559 0.0
C214 C 0.2786 0.51744 0.22356 0.0
C215 C 0.2413 0.52065 0.26718 0.0
C216 C 0.26701 0.56888 0.26669 0.0
C217 C 0.29883 0.59132 0.24476 0.0
C218 C 0.305 0.56576 0.22353 0.0
C219 C 0.25981 0.59595 0.28873 0.0
C220 C 0.23056 0.61345 0.28265 0.0
C221 C 0.27999 0.60274 0.31593 0.0
C222 C 0.31042 0.58413 0.32344 0.0
C223 C 0.352 0.59873 0.30877 0.0
C224 C 0.38041 0.58078 0.31588 0.0
C225 C 0.36771 0.54843 0.33775 0.0
C226 C 0.32665 0.53409 0.35263 0.0
C227 C 0.29811 0.55193 0.34558 0.0
H228 H 0.38976 0.53458 0.34323 0.0
H229 H 0.10146 0.69601 0.27902 0.0
H230 H 0.53594 0.2207 0.63777 0.0
H231 H 0.58842 0.21402 0.60482 0.0
H232 H 0.61088 0.33667 0.5613 0.0
H233 H 0.55989 0.34491 0.59472 0.0
H234 H 0.57616 0.25486 0.5271 0.0
H235 H 0.69483 0.34099 0.59647 0.0
H236 H 0.72945 0.35525 0.6443 0.0
H237 H 0.73047 0.22784 0.64043 0.0
H238 H 0.69477 0.21219 0.59285 0.0
H239 H 0.71917 0.25233 0.41878 0.0
H240 H 0.68645 0.27549 0.45746 0.0
H241 H 0.70851 0.18853 0.51555 0.0
H242 H 0.74475 0.1685 0.47737 0.0
H243 H 0.7226 0.25567 0.54358 0.0
H244 H 0.58182 0.15492 0.48964 0.0
H245 H 0.53063 0.12485 0.44778 0.0
H246 H 0.56154 0.26182 0.4262 0.0
H247 H 0.61114 0.29229 0.46874 0.0
C248 C 0.5528 0.24709 0.62177 0.0
C249 C 0.54268 0.28297 0.61872 0.0
C250 C 0.58286 0.24308 0.60287 0.0
C251 C 0.60324 0.27471 0.58056 0.0
C252 C 0.59522 0.31178 0.57832 0.0
C253 C 0.56568 0.31616 0.59736 0.0
C254 C 0.62858 0.26637 0.55768 0.0
C255 C 0.60864 0.2558 0.53056 0.0
C256 C 0.6697 0.26548 0.56262 0.0
C257 C 0.69167 0.2752 0.59115 0.0
C258 C 0.70197 0.31575 0.60591 0.0
C259 C 0.72185 0.32412 0.63298 0.0
C260 C 0.73205 0.29243 0.64542 0.0
C261 C 0.72257 0.25238 0.63076 0.0
C262 C 0.70245 0.24372 0.60375 0.0
C263 C 0.71726 0.23848 0.43988 0.0
C264 C 0.73402 0.20827 0.44502 0.0
C265 C 0.69787 0.25116 0.46196 0.0
C266 C 0.69322 0.23254 0.48942 0.0
C267 C 0.71132 0.20336 0.49466 0.0
C268 C 0.73207 0.19187 0.4728 0.0
C269 C 0.67005 0.24376 0.5127 0.0
C270 C 0.69028 0.25488 0.53995 0.0
C271 C 0.62804 0.24337 0.50833 0.0
C272 C 0.60078 0.22589 0.48192 0.0
C273 C 0.57792 0.17858 0.47581 0.0
C274 C 0.54884 0.16144 0.45216 0.0
C275 C 0.54334 0.19147 0.43412 0.0
C276 C 0.56612 0.23863 0.44005 0.0
C277 C 0.5943 0.25579 0.46407 0.0
H278 H 0.52119 0.17815 0.41567 0.0
H279 H 0.74739 0.29894 0.6664 0.0
H280 H 0.32346 0.53082 0.08811 0.0
H281 H 0.36679 0.59029 0.05272 0.0
H282 H 0.25454 0.52125 0.99319 0.0
H283 H 0.21205 0.46048 0.02809 0.0
H284 H 0.33071 0.54496 0.96711 0.0
H285 H 0.27945 0.62381 0.02864 0.0
H286 H 0.26778 0.65287 0.07427 0.0
H287 H 0.41414 0.73378 0.0861 0.0
H288 H 0.4267 0.7047 0.0407 0.0
H289 H 0.39948 0.73589 0.87243 0.0
H290 H 0.35783 0.68233 0.91131 0.0
H291 H 0.4868 0.716 0.95107 0.0
H292 H 0.52876 0.76901 0.91172 0.0
H293 H 0.40401 0.71235 0.98716 0.0
H294 H 0.45225 0.62776 0.92525 0.0
H295 H 0.4606 0.59875 0.87877 0.0
H296 H 0.31403 0.5295 0.86675 0.0
H297 H 0.30494 0.55864 0.91314 0.0
C298 C 0.30803 0.52835 0.0675 0.0
C299 C 0.26455 0.49078 0.06083 0.0
C300 C 0.33267 0.5626 0.04733 0.0
C301 C 0.31379 0.5606 0.02032 0.0
C302 C 0.26992 0.52353 0.01384 0.0
C303 C 0.24559 0.48888 0.03385 0.0
C304 C 0.34044 0.59612 0.99844 0.0
C305 C 0.34616 0.58149 0.97151 0.0
C306 C 0.36141 0.64396 0.00416 0.0
C307 C 0.354 0.66174 0.03139 0.0
C308 C 0.30915 0.64755 0.04107 0.0
C309 C 0.30237 0.66406 0.06687 0.0
C310 C 0.3402 0.69507 0.0831 0.0
C311 C 0.38488 0.70972 0.07352 0.0
C312 C 0.39185 0.69327 0.04774 0.0
C313 C 0.4189 0.73235 0.88967 0.0
C314 C 0.46728 0.75661 0.88921 0.0
C315 C 0.39513 0.70169 0.91174 0.0
C316 C 0.41936 0.69541 0.93394 0.0
C317 C 0.46764 0.72062 0.93408 0.0
C318 C 0.49148 0.75061 0.91165 0.0
C319 C 0.39398 0.66084 0.95624 0.0
C320 C 0.38846 0.67572 0.98306 0.0
C321 C 0.37265 0.61325 0.95038 0.0
C322 C 0.378 0.59585 0.92247 0.0
C323 C 0.42187 0.6068 0.91254 0.0
C324 C 0.42671 0.59021 0.88624 0.0
C325 C 0.38786 0.56243 0.86972 0.0
C326 C 0.34409 0.5511 0.87953 0.0
C327 C 0.33908 0.5676 0.90584 0.0
H328 H 0.39161 0.5495 0.84938 0.0
H329 H 0.33488 0.70781 0.10308 0.0
H330 H 0.78494 0.29173 0.28877 0.0
H331 H 0.79583 0.34119 0.24804 0.0
H332 H 0.65948 0.24393 0.21797 0.0
H333 H 0.64821 0.19442 0.2591 0.0
H334 H 0.79859 0.33379 0.1929 0.0
H335 H 0.61217 0.3017 0.18662 0.0
H336 H 0.54578 0.28046 0.2183 0.0
H337 H 0.6368 0.33602 0.28996 0.0
H338 H 0.7037 0.35811 0.25866 0.0
H339 H 0.78006 0.44693 0.06864 0.0
H340 H 0.76605 0.38838 0.10465 0.0
H341 H 0.74987 0.47146 0.16869 0.0
H342 H 0.76288 0.5293 0.13303 0.0
H343 H 0.68604 0.38599 0.17515 0.0
H344 H 0.85023 0.46712 0.16326 0.0
H345 H 0.92409 0.49858 0.13757 0.0
H346 H 0.88885 0.36254 0.11061 0.0
H347 H 0.81468 0.33019 0.1361 0.0
C348 C 0.75743 0.28056 0.27334 0.0
C349 C 0.71563 0.23913 0.27718 0.0
C350 C 0.76372 0.30891 0.25003 0.0
C351 C 0.72842 0.29651 0.23 0.0
C352 C 0.68699 0.25461 0.23338 0.0
C353 C 0.68051 0.22637 0.25689 0.0
C354 C 0.73457 0.32842 0.20627 0.0
C355 C 0.77381 0.34495 0.18888 0.0
C356 C 0.70283 0.34385 0.20137 0.0
C357 C 0.66284 0.33099 0.22034 0.0
C358 C 0.61798 0.30945 0.20912 0.0
C359 C 0.58028 0.29727 0.22701 0.0
C360 C 0.58705 0.30671 0.25614 0.0
C361 C 0.63157 0.32853 0.26742 0.0
C362 C 0.66939 0.34084 0.24962 0.0
C363 C 0.77318 0.4525 0.09036 0.0
C364 C 0.77254 0.49276 0.09794 0.0
C365 C 0.76548 0.41917 0.11094 0.0
C366 C 0.75729 0.42572 0.13944 0.0
C367 C 0.75597 0.46556 0.14686 0.0
C368 C 0.76351 0.49868 0.12639 0.0
C369 C 0.75004 0.39138 0.16175 0.0
C370 C 0.71051 0.37433 0.17887 0.0
C371 C 0.78241 0.37686 0.16703 0.0
C372 C 0.82664 0.39629 0.1513 0.0
C373 C 0.85802 0.44395 0.15162 0.0
C374 C 0.89998 0.46194 0.13716 0.0
C375 C 0.911 0.43262 0.12234 0.0
C376 C 0.88018 0.38521 0.12204 0.0
C377 C 0.83822 0.36702 0.13654 0.0
H378 H 0.94347 0.44657 0.11118 0.0
H379 H 0.55782 0.29723 0.26995 0.0
H380 H 0.44088 0.7519 0.75645 0.0
H381 H 0.37964 0.73261 0.72171 0.0
H382 H 0.47702 0.76462 0.65333 0.0
H383 H 0.53833 0.78466 0.6879 0.0
H384 H 0.432 0.80507 0.64334 0.0
H385 H 0.38023 0.64351 0.66629 0.0
H386 H 0.35641 0.57695 0.69839 0.0
H387 H 0.25458 0.60218 0.73626 0.0
H388 H 0.27702 0.6681 0.7039 0.0
H389 H 0.22522 0.64868 0.54763 0.0
H390 H 0.27791 0.65776 0.58607 0.0
H391 H 0.28733 0.78649 0.60981 0.0
H392 H 0.2344 0.77757 0.57127 0.0
H393 H 0.27732 0.66499 0.64258 0.0
H394 H 0.39894 0.8613 0.63035 0.0
H395 H 0.42325 0.92158 0.59357 0.0
H396 H 0.39156 0.82059 0.52817 0.0
H397 H 0.36782 0.75989 0.56454 0.0
C398 C 0.44909 0.75447 0.73399 0.0
C399 C 0.49444 0.77003 0.72493 0.0
C400 C 0.4139 0.74281 0.71411 0.0
C401 C 0.42351 0.74688 0.6848 0.0
C402 C 0.46868 0.76145 0.67579 0.0
C403 C 0.50374 0.77283 0.69561 0.0
C404 C 0.38769 0.7397 0.66353 0.0
C405 C 0.39825 0.77431 0.64318 0.0
C406 C 0.34352 0.69979 0.6632 0.0
C407 C 0.33064 0.6609 0.68298 0.0
C408 C 0.35295 0.63494 0.68159 0.0
C409 C 0.33955 0.59724 0.6997 0.0
C410 C 0.30435 0.58565 0.71952 0.0
C411 C 0.28198 0.61132 0.72099 0.0
C412 C 0.29478 0.64861 0.70264 0.0
C413 C 0.23778 0.67854 0.56129 0.0
C414 C 0.22575 0.71255 0.55625 0.0
C415 C 0.26804 0.68373 0.58324 0.0
C416 C 0.28696 0.72303 0.60059 0.0
C417 C 0.27371 0.75624 0.59635 0.0
C418 C 0.24355 0.75116 0.5743 0.0
C419 C 0.32203 0.72998 0.62224 0.0
C420 C 0.31115 0.69565 0.64278 0.0
C421 C 0.36636 0.76966 0.62228 0.0
C422 C 0.38103 0.80598 0.60019 0.0
C423 C 0.39728 0.852 0.60812 0.0
C424 C 0.41098 0.88623 0.58734 0.0
C425 C 0.40881 0.8749 0.55855 0.0
C426 C 0.39309 0.82931 0.55046 0.0
C427 C 0.37946 0.79497 0.57116 0.0
H428 H 0.41945 0.90148 0.54252 0.0
H429 H 0.29426 0.55665 0.73363 0.0
H430 H 0.68849 0.44861 0.96337 0.0
H431 H 0.63265 0.39774 0.92857 0.0
H432 H 0.74224 0.40577 0.87647 0.0
H433 H 0.79881 0.4559 0.91166 0.0
H434 H 0.68085 0.42714 0.84783 0.0
H435 H 0.67311 0.30741 0.90942 0.0
H436 H 0.66321 0.26938 0.9559 0.0
H437 H 0.52815 0.2528 0.96393 0.0
H438 H 0.53745 0.29121 0.91765 0.0
H439 H 0.53404 0.28141 0.7411 0.0
H440 H 0.59364 0.3156 0.77756 0.0
H441 H 0.48895 0.27562 0.84223 0.0
H442 H 0.42932 0.23867 0.80605 0.0
H443 H 0.55123 0.26891 0.86468 0.0
H444 H 0.55725 0.39532 0.81314 0.0
H445 H 0.56132 0.44024 0.77046 0.0
H446 H 0.69165 0.45348 0.74828 0.0
H447 H 0.68794 0.4082 0.79067 0.0
C448 C 0.70109 0.43891 0.94499 0.0
C449 C 0.74865 0.45689 0.94045 0.0
C450 C 0.66885 0.40978 0.92498 0.0
C451 C 0.68331 0.39796 0.89998 0.0
C452 C 0.73043 0.41464 0.89564 0.0
C453 C 0.76274 0.44349 0.91576 0.0
C454 C 0.64948 0.37086 0.87751 0.0
C455 C 0.65297 0.39218 0.85126 0.0
C456 C 0.61198 0.32617 0.88255 0.0
C457 C 0.60609 0.30239 0.91014 0.0
C458 C 0.6414 0.29586 0.92117 0.0
C459 C 0.63587 0.27421 0.94747 0.0
C460 C 0.59511 0.25875 0.96288 0.0
C461 C 0.55971 0.26479 0.95198 0.0
C462 C 0.56505 0.28641 0.92569 0.0
C463 C 0.52377 0.27977 0.76312 0.0
C464 C 0.47699 0.25808 0.77064 0.0
C465 C 0.55792 0.29972 0.78399 0.0
C466 C 0.54609 0.29993 0.8127 0.0
C467 C 0.49927 0.27647 0.8203 0.0
C468 C 0.46509 0.25539 0.79954 0.0
C469 C 0.58225 0.32517 0.83471 0.0
C470 C 0.57924 0.30367 0.86097 0.0
C471 C 0.6193 0.37053 0.83016 0.0
C472 C 0.62187 0.3978 0.80472 0.0
C473 C 0.58642 0.40741 0.79892 0.0
C474 C 0.58874 0.433 0.77487 0.0
C475 C 0.62658 0.44946 0.75658 0.0
C476 C 0.66229 0.44058 0.76241 0.0
C477 C 0.66012 0.41501 0.78646 0.0
H478 H 0.62833 0.46927 0.73796 0.0
H479 H 0.59092 0.24204 0.98325 0.0
H480 H 0.33128 0.36488 0.13276 0.0
H481 H 0.40719 0.38753 0.11311 0.0
H482 H 0.35693 0.388 0.02862 0.0
H483 H 0.28037 0.36236 0.04795 0.0
H484 H 0.42522 0.3727 0.02406 0.0
H485 H 0.40578 0.49029 0.07042 0.0
H486 H 0.38668 0.52795 0.10895 0.0
H487 H 0.48081 0.51521 0.16492 0.0
H488 H 0.50119 0.47825 0.12655 0.0
H489 H 0.66734 0.60649 0.03361 0.0
H490 H 0.58301 0.56355 0.03457 0.0
H491 H 0.58483 0.43581 0.02825 0.0
H492 H 0.66828 0.47887 0.02452 0.0
H493 H 0.53753 0.51578 0.07385 0.0
H494 H 0.48315 0.3444 0.01288 0.0
H495 H 0.50467 0.31894 0.96917 0.0
H496 H 0.55588 0.45304 0.93243 0.0
H497 H 0.5341 0.47917 0.97574 0.0
C498 C 0.33602 0.3679 0.1099 0.0
C499 C 0.30031 0.3626 0.09192 0.0
C500 C 0.37944 0.38127 0.09869 0.0
C501 C 0.38814 0.39133 0.06954 0.0
C502 C 0.35119 0.38098 0.05121 0.0
C503 C 0.30737 0.36624 0.06232 0.0
C504 C 0.43612 0.41864 0.05903 0.0
C505 C 0.44997 0.404 0.03485 0.0
C506 C 0.46788 0.46044 0.0724 0.0
C507 C 0.45461 0.48115 0.09578 0.0
C508 C 0.42216 0.49527 0.09101 0.0
C509 C 0.41128 0.51667 0.11275 0.0
C510 C 0.43227 0.5237 0.1394 0.0
C511 C 0.46449 0.50964 0.1443 0.0
C512 C 0.47591 0.48871 0.12254 0.0
C513 C 0.64936 0.56934 0.03146 0.0
C514 C 0.67388 0.54584 0.02898 0.0
C515 C 0.6013 0.54475 0.0321 0.0
C516 C 0.57722 0.49623 0.03146 0.0
C517 C 0.60204 0.47305 0.02794 0.0
C518 C 0.6499 0.49773 0.0261 0.0
C519 C 0.52748 0.47013 0.03875 0.0
C520 C 0.51313 0.48482 0.06259 0.0
C521 C 0.49516 0.42961 0.02422 0.0
C522 C 0.50726 0.41384 0.99771 0.0
C523 C 0.4987 0.36839 0.99541 0.0
C524 C 0.51105 0.35386 0.97071 0.0
C525 C 0.53177 0.38439 0.94807 0.0
C526 C 0.53998 0.42946 0.95002 0.0
C527 C 0.52768 0.44417 0.97466 0.0
H528 H 0.54138 0.37311 0.929 0.0
H529 H 0.42368 0.54019 0.1562 0.0
H530 H 0.10011 0.68653 0.38498 0.0
H531 H 0.05587 0.60723 0.36924 0.0
H532 H 0.95638 0.57924 0.43595 0.0
H533 H 0.00445 0.65801 0.45381 0.0
H534 H 0.97178 0.51718 0.4381 0.0
H535 H 0.938 0.57943 0.35798 0.0
H536 H 0.94915 0.62916 0.31664 0.0
H537 H 0.02868 0.5783 0.27482 0.0
H538 H 0.01946 0.52943 0.31629 0.0
H539 H 0.83559 0.3074 0.34099 0.0
H540 H 0.87624 0.39032 0.3458 0.0
H541 H 0.97137 0.38312 0.40463 0.0
H542 H 0.92853 0.29886 0.4013 0.0
H543 H 0.95122 0.46136 0.33856 0.0
H544 H 0.99652 0.45769 0.45782 0.0
H545 H 0.9674 0.40362 0.49833 0.0
H546 H 0.83292 0.33292 0.46035 0.0
H547 H 0.86107 0.38698 0.41988 0.0
C548 C 0.06797 0.66375 0.39571 0.0
C549 C 0.05506 0.67819 0.42031 0.0
C550 C 0.04242 0.6183 0.38656 0.0
C551 C 0.00211 0.58689 0.401 0.0
C552 C 0.98745 0.60253 0.42447 0.0
C553 C 0.01439 0.6476 0.43448 0.0
C554 C 0.97886 0.53699 0.39381 0.0
C555 C 0.96691 0.50527 0.41625 0.0
C556 C 0.97168 0.52067 0.36533 0.0
C557 C 0.97828 0.5509 0.34047 0.0
C558 C 0.95836 0.57921 0.34015 0.0
C559 C 0.96435 0.60728 0.31666 0.0
C560 C 0.98966 0.60694 0.29314 0.0
C561 C 0.00903 0.57849 0.29305 0.0
C562 C 0.00358 0.55072 0.3166 0.0
C563 C 0.86555 0.32328 0.35473 0.0
C564 C 0.87813 0.29645 0.37141 0.0
C565 C 0.889 0.37096 0.35729 0.0
C566 C 0.92605 0.39296 0.3762 0.0
C567 C 0.94189 0.36667 0.39056 0.0
C568 C 0.9177 0.3186 0.38848 0.0
C569 C 0.94471 0.44244 0.38278 0.0
C570 C 0.95593 0.47383 0.36029 0.0
C571 C 0.94846 0.45817 0.41112 0.0
C572 C 0.93109 0.42608 0.43569 0.0
C573 C 0.96071 0.43073 0.4582 0.0
C574 C 0.94437 0.40008 0.48114 0.0
C575 C 0.89839 0.36477 0.48187 0.0
C576 C 0.86857 0.36019 0.45973 0.0
C577 C 0.8847 0.39083 0.43679 0.0
H578 H 0.88585 0.34103 0.49961 0.0
H579 H 0.99424 0.62868 0.27498 0.0
H580 H 0.3802 0.07549 0.74096 0.0
H581 H 0.42362 0.03516 0.74441 0.0
H582 H 0.48898 0.09272 0.66383 0.0
H583 H 0.44712 0.13477 0.66084 0.0
H584 H 0.43559 0.97505 0.71582 0.0
H585 H 0.59739 0.11896 0.66604 0.0
H586 H 0.6296 0.2009 0.6535 0.0
H587 H 0.56544 0.22067 0.72705 0.0
H588 H 0.53264 0.13877 0.7399 0.0
H589 H 0.6153 0.91798 0.71322 0.0
H590 H 0.58418 0.96498 0.69455 0.0
H591 H 0.5773 0.00921 0.77961 0.0
H592 H 0.60648 0.96065 0.79864 0.0
H593 H 0.60554 0.07658 0.71891 0.0
H594 H 0.49112 0.94422 0.77795 0.0
H595 H 0.44437 0.86294 0.79245 0.0
H596 H 0.40644 0.82353 0.70532 0.0
H597 H 0.454 0.9044 0.69031 0.0
C598 C 0.403 0.07873 0.72367 0.0
C599 C 0.41088 0.10882 0.70089 0.0
C600 C 0.42788 0.05574 0.72567 0.0
C601 C 0.46051 0.0621 0.70477 0.0
C602 C 0.46499 0.08849 0.68059 0.0
C603 C 0.44078 0.11217 0.67884 0.0
C604 C 0.49202 0.04395 0.70971 0.0
C605 C 0.47274 0.99724 0.71623 0.0
C606 C 0.54055 0.07297 0.71025 0.0
C607 C 0.56264 0.12284 0.70389 0.0
C608 C 0.59063 0.14095 0.67969 0.0
C609 C 0.60884 0.18733 0.67247 0.0
C610 C 0.59974 0.21602 0.68951 0.0
C611 C 0.57252 0.19844 0.71388 0.0
C612 C 0.55408 0.15205 0.72112 0.0
C613 C 0.60898 0.93919 0.72786 0.0
C614 C 0.61302 0.93557 0.75741 0.0
C615 C 0.59102 0.96581 0.71714 0.0
C616 C 0.57818 0.98999 0.7358 0.0
C617 C 0.58708 0.99059 0.76498 0.0
C618 C 0.60384 0.96303 0.7758 0.0
C619 C 0.54867 0.00797 0.72567 0.0
C620 C 0.56844 0.05444 0.71798 0.0
C621 C 0.50039 0.97903 0.72446 0.0
C622 C 0.47709 0.93006 0.73296 0.0
C623 C 0.47409 0.91799 0.76182 0.0
C624 C 0.44724 0.87202 0.77015 0.0
C625 C 0.42289 0.83797 0.74982 0.0
C626 C 0.42582 0.84974 0.72105 0.0
C627 C 0.45286 0.8956 0.7126 0.0
H628 H 0.40124 0.8026 0.75645 0.0
H629 H 0.61368 0.25184 0.68378 0.0
H630 H 0.59541 0.67771 0.75703 0.0
H631 H 0.54724 0.59427 0.75307 0.0
H632 H 0.47034 0.59203 0.82705 0.0
H633 H 0.5183 0.67571 0.83139 0.0
H634 H 0.48747 0.51008 0.81658 0.0
H635 H 0.42315 0.59881 0.77533 0.0
H636 H 0.43288 0.66533 0.74756 0.0
H637 H 0.474 0.61741 0.67462 0.0
H638 H 0.46518 0.55082 0.70219 0.0
H639 H 0.3273 0.28983 0.76615 0.0
H640 H 0.34703 0.36541 0.78542 0.0
H641 H 0.42545 0.43039 0.70958 0.0
H642 H 0.40472 0.35555 0.68995 0.0
H643 H 0.39242 0.48008 0.72957 0.0
H644 H 0.4718 0.40448 0.76819 0.0
H645 H 0.47536 0.3421 0.79316 0.0
H646 H 0.41712 0.36673 0.86796 0.0
H647 H 0.41251 0.42917 0.84301 0.0
C648 C 0.56931 0.65943 0.77307 0.0
C649 C 0.55996 0.68337 0.79412 0.0
C650 C 0.54185 0.61177 0.77077 0.0
C651 C 0.50493 0.58748 0.78954 0.0
C652 C 0.49869 0.61047 0.81244 0.0
C653 C 0.52602 0.65825 0.81473 0.0
C654 C 0.46903 0.54018 0.78232 0.0
C655 C 0.46573 0.50326 0.79803 0.0
C656 C 0.44122 0.53173 0.75795 0.0
C657 C 0.44377 0.57007 0.74085 0.0
C658 C 0.43445 0.60258 0.7534 0.0
C659 C 0.44003 0.64042 0.73773 0.0
C660 C 0.45454 0.64586 0.70941 0.0
C661 C 0.46304 0.61325 0.69661 0.0
C662 C 0.45765 0.5754 0.71223 0.0
C663 C 0.34728 0.32015 0.75317 0.0
C664 C 0.36535 0.31693 0.72681 0.0
C665 C 0.35877 0.36332 0.76429 0.0
C666 C 0.38881 0.40358 0.74929 0.0
C667 C 0.40253 0.39988 0.72167 0.0
C668 C 0.39082 0.35696 0.7105 0.0
C669 C 0.41167 0.44936 0.76323 0.0
C670 C 0.41264 0.48642 0.74879 0.0
C671 C 0.43802 0.45788 0.78847 0.0
C672 C 0.44118 0.42091 0.80363 0.0
C673 C 0.45944 0.39636 0.78989 0.0
C674 C 0.46151 0.36087 0.80404 0.0
C675 C 0.44622 0.35012 0.83215 0.0
C676 C 0.42882 0.37497 0.84616 0.0
C677 C 0.42637 0.41037 0.832 0.0
H678 H 0.44795 0.32268 0.84313 0.0
H679 H 0.45853 0.67491 0.69721 0.0
H680 H 0.05159 0.37635 0.11374 0.0
H681 H 0.01103 0.41998 0.11079 0.0
H682 H 0.13085 0.54005 0.14422 0.0
H683 H 0.17012 0.496 0.14901 0.0
H684 H 0.05997 0.54529 0.15836 0.0
H685 H 0.11623 0.51784 0.07142 0.0
H686 H 0.12524 0.46949 0.03532 0.0
H687 H 0.97974 0.39923 0.019 0.0
H688 H 0.96978 0.44668 0.05538 0.0
H689 H 0.96932 0.63613 0.02995 0.0
H690 H 0.02427 0.61596 0.05005 0.0
H691 H 0.94941 0.58086 0.12961 0.0
H692 H 0.89839 0.60569 0.11055 0.0
H693 H 0.00534 0.53866 0.05952 0.0
H694 H -0.00169 0.55702 0.18311 0.0
H695 H 0.00269 0.61359 0.21835 0.0
H696 H 0.07341 0.72269 0.15779 0.0
H697 H 0.07026 0.66694 0.12234 0.0
C698 C 0.06863 0.41162 0.12125 0.0
C699 C 0.11424 0.43308 0.13104 0.0
C700 C 0.04559 0.43658 0.11946 0.0
C701 C 0.06859 0.48374 0.12632 0.0
C702 C 0.11254 0.50387 0.13857 0.0
C703 C 0.13504 0.47862 0.14115 0.0
C704 C 0.04985 0.51343 0.11723 0.0
C705 C 0.04792 0.54405 0.13678 0.0
C706 C 0.03627 0.51327 0.08873 0.0
C707 C 0.04222 0.48557 0.06624 0.0
C708 C 0.08615 0.492 0.06017 0.0
C709 C 0.09143 0.46472 0.0397 0.0
C710 C 0.05307 0.43126 0.02491 0.0
C711 C 0.0094 0.42514 0.0305 0.0
C712 C 0.00392 0.45222 0.05103 0.0
C713 C 0.96638 0.62634 0.05215 0.0
C714 C 0.93004 0.62264 0.06877 0.0
C715 C 0.99734 0.61427 0.0636 0.0
C716 C 0.99099 0.59621 0.09138 0.0
C717 C 0.95626 0.59552 0.10845 0.0
C718 C 0.92675 0.60961 0.09744 0.0
C719 C 0.01516 0.57134 0.10063 0.0
C720 C 0.01786 0.54101 0.08108 0.0
C721 C 0.03165 0.57376 0.12876 0.0
C722 C 0.03375 0.60766 0.14997 0.0
C723 C 0.01503 0.59311 0.17734 0.0
C724 C 0.01726 0.62504 0.19736 0.0
C725 C 0.03821 0.67169 0.19029 0.0
C726 C 0.05707 0.68652 0.1632 0.0
C727 C 0.05503 0.65475 0.14313 0.0
H728 H 0.03989 0.69635 0.20581 0.0
H729 H 0.0572 0.41011 0.00911 0.0
H730 H 0.30738 0.91623 0.41975 0.0
H731 H 0.39033 0.95063 0.41498 0.0
H732 H 0.39422 0.88067 0.49109 0.0
H733 H 0.31058 0.84456 0.49548 0.0
H734 H 0.46473 0.00342 0.44195 0.0
H735 H 0.47146 0.84541 0.48339 0.0
H736 H 0.41869 0.76217 0.49061 0.0
H737 H 0.33445 0.76053 0.42126 0.0
H738 H 0.387 0.84359 0.41347 0.0
H739 H 0.69619 0.04028 0.44079 0.0
H740 H 0.61851 0.98791 0.45877 0.0
H741 H 0.56318 0.97838 0.37468 0.0
H742 H 0.64026 0.03091 0.35664 0.0
H743 H 0.5225 0.89317 0.43417 0.0
H744 H 0.51663 0.03968 0.38548 0.0
H745 H 0.56856 0.12124 0.3726 0.0
H746 H 0.64475 0.14097 0.44974 0.0
H747 H 0.59428 0.05996 0.46262 0.0
C748 C 0.3259 0.90893 0.43589 0.0
C749 C 0.30233 0.87707 0.4577 0.0
C750 C 0.37343 0.92861 0.43312 0.0
C751 C 0.3983 0.9172 0.45226 0.0
C752 C 0.37548 0.88895 0.47568 0.0
C753 C 0.32775 0.86868 0.47827 0.0
C754 C 0.44725 0.93244 0.44625 0.0
C755 C 0.47711 0.97914 0.44045 0.0
C756 C 0.46379 0.90094 0.4442 0.0
C757 C 0.43297 0.8507 0.44802 0.0
C758 C 0.44187 0.82717 0.46957 0.0
C759 C 0.41196 0.78006 0.47379 0.0
C760 C 0.37321 0.7561 0.45644 0.0
C761 C 0.36442 0.77913 0.43472 0.0
C762 C 0.39425 0.82621 0.4304 0.0
C763 C 0.66777 0.02519 0.42587 0.0
C764 C 0.67403 0.04013 0.39742 0.0
C765 C 0.62344 0.99518 0.43618 0.0
C766 C 0.58532 0.97961 0.41802 0.0
C767 C 0.59232 0.98992 0.38892 0.0
C768 C 0.63635 0.02013 0.37869 0.0
C769 C 0.53906 0.9637 0.42993 0.0
C770 C 0.50993 0.91717 0.4365 0.0
C771 C 0.5225 0.99488 0.43213 0.0
C772 C 0.55196 0.04402 0.42492 0.0
C773 C 0.54461 0.06168 0.39961 0.0
C774 C 0.57406 0.10772 0.3922 0.0
C775 C 0.61069 0.13628 0.41006 0.0
C776 C 0.61751 0.11888 0.43547 0.0
C777 C 0.58841 0.07295 0.4429 0.0
H778 H 0.63331 0.17199 0.40442 0.0
H779 H 0.35002 0.71968 0.4598 0.0
H780 H 0.3051 0.18185 0.83831 0.0
H781 H 0.26871 0.19183 0.8809 0.0
H782 H 0.13463 0.10501 0.84405 0.0
H783 H 0.17092 0.0945 0.80153 0.0
H784 H 0.15251 0.19403 0.86579 0.0
H785 H 0.15812 0.06016 0.89482 0.0
H786 H 0.19463 0.01294 0.90258 0.0
H787 H 0.29108 0.11424 0.96057 0.0
H788 H 0.25557 0.16244 0.95284 0.0
H789 H 0.056 0.22462 0.99328 0.0
H790 H 0.06777 0.18452 0.95323 0.0
H791 H 0.20709 0.23301 0.98149 0.0
H792 H 0.19526 0.27195 0.02138 0.0
H793 H 0.17262 0.14917 0.96303 0.0
H794 H 0.179 0.28836 0.92844 0.0
H795 H 0.14853 0.34074 0.91988 0.0
H796 H 0.03635 0.23545 0.87177 0.0
H797 H 0.0659 0.18224 0.88037 0.0
C798 C 0.26789 0.16476 0.83942 0.0
C799 C 0.24078 0.13737 0.81674 0.0
C800 C 0.24718 0.17025 0.86373 0.0
C801 C 0.19904 0.14891 0.86557 0.0
C802 C 0.17182 0.1215 0.843 0.0
C803 C 0.19253 0.11536 0.81887 0.0
C804 C 0.1776 0.15723 0.89064 0.0
C805 C 0.1559 0.18338 0.88703 0.0
C806 C 0.183 0.14403 0.91827 0.0
C807 C 0.20436 0.11507 0.92308 0.0
C808 C 0.18735 0.07257 0.90905 0.0
C809 C 0.20782 0.04558 0.91348 0.0
C810 C 0.24521 0.06062 0.93201 0.0
C811 C 0.26213 0.10264 0.94621 0.0
C812 C 0.2418 0.12978 0.94184 0.0
C813 C 0.08886 0.22613 0.99101 0.0
C814 C 0.12459 0.25131 0.0105 0.0
C815 C 0.09561 0.20335 0.96816 0.0
C816 C 0.13854 0.20623 0.96415 0.0
C817 C 0.17359 0.23001 0.98419 0.0
C818 C 0.1667 0.25222 0.0071 0.0
C819 C 0.14858 0.18719 0.93836 0.0
C820 C 0.16824 0.15904 0.94179 0.0
C821 C 0.14204 0.19924 0.91055 0.0
C822 C 0.1243 0.23117 0.90535 0.0
C823 C 0.14765 0.27629 0.91622 0.0
C824 C 0.13058 0.30613 0.91133 0.0
C825 C 0.09044 0.29138 0.89538 0.0
C826 C 0.06737 0.24678 0.88419 0.0
C827 C 0.08426 0.21678 0.88906 0.0
H828 H 0.07728 0.31454 0.89161 0.0
H829 H 0.26101 0.03967 0.93542 0.0
H830 H 0.85706 0.08713 0.34179 0.0
H831 H 0.91103 0.08884 0.306 0.0
H832 H 0.88047 0.17487 0.25247 0.0
H833 H 0.82457 0.17048 0.28706 0.0
H834 H 0.90376 0.13045 0.22006 0.0
H835 H 0.96817 0.21843 0.30687 0.0
H836 H 0.97952 0.22652 0.35889 0.0
H837 H 0.03596 0.13635 0.35737 0.0
H838 H 0.02428 0.12725 0.30535 0.0
H839 H 0.1471 0.33037 0.20606 0.0
H840 H 0.0872 0.27444 0.23695 0.0
H841 H 0.05007 0.16924 0.17288 0.0
H842 H 0.1084 0.22644 0.14095 0.0
H843 H 0.05966 0.20031 0.26287 0.0
H844 H 0.93524 0.09864 0.17235 0.0
H845 H 0.92279 0.10712 0.12142 0.0
H846 H 0.98731 0.25373 0.13178 0.0
H847 H -0.0004 0.24598 0.18279 0.0
C848 C 0.86087 0.10506 0.32192 0.0
C849 C 0.83728 0.12928 0.31732 0.0
C850 C 0.89183 0.10622 0.30156 0.0
C851 C 0.90102 0.13325 0.27694 0.0
C852 C 0.87429 0.15391 0.2713 0.0
C853 C 0.84237 0.15156 0.29119 0.0
C854 C 0.94232 0.14601 0.25914 0.0
C855 C 0.93782 0.14502 0.22942 0.0
C856 C 0.98694 0.1656 0.27124 0.0
C857 C 0.99484 0.17171 0.30236 0.0
C858 C 0.98286 0.20023 0.31768 0.0
C859 C 0.9893 0.20496 0.34714 0.0
C860 C 0.00831 0.18184 0.36144 0.0
C861 C 0.02111 0.15412 0.34627 0.0
C862 C 0.01457 0.14913 0.31681 0.0
C863 C 0.12685 0.29512 0.19873 0.0
C864 C 0.1318 0.28289 0.17094 0.0
C865 C 0.09259 0.26298 0.21649 0.0
C866 C 0.0632 0.21773 0.20705 0.0
C867 C 0.07138 0.20424 0.18036 0.0
C868 C 0.10486 0.23683 0.16219 0.0
C869 C 0.02123 0.18733 0.22388 0.0
C870 C 0.02559 0.18441 0.25341 0.0
C871 C 0.97657 0.16678 0.21172 0.0
C872 C 0.9689 0.17174 0.1812 0.0
C873 C 0.94668 0.13263 0.16372 0.0
C874 C 0.93965 0.13732 0.13487 0.0
C875 C 0.95443 0.18095 0.12335 0.0
C876 C 0.97603 0.21997 0.14069 0.0
C877 C 0.98303 0.21545 0.16956 0.0
H878 H 0.94903 0.1845 0.101 0.0
H879 H 0.01321 0.18549 0.38426 0.0
H880 H 0.77442 0.83703 0.66717 0.0
H881 H 0.82238 0.88776 0.6287 0.0
H882 H 0.77171 0.98077 0.64688 0.0
H883 H 0.72495 0.93102 0.68538 0.0
H884 H 0.7956 0.90559 0.58243 0.0
H885 H 0.8413 0.08719 0.62725 0.0
H886 H 0.86712 0.12959 0.67258 0.0
H887 H 0.92059 0.04288 0.6991 0.0
H888 H 0.89573 0.00037 0.65378 0.0
H889 H 0.78538 0.04654 0.47944 0.0
H890 H 0.78044 0.00282 0.52185 0.0
H891 H 0.92619 0.09049 0.5362 0.0
H892 H 0.93113 0.13581 0.49408 0.0
H893 H 0.88056 0.07642 0.5845 0.0
H894 H 0.88664 0.98082 0.51372 0.0
H895 H 0.86901 0.93834 0.46837 0.0
H896 H 0.72817 0.85337 0.49421 0.0
H897 H 0.74478 0.89572 0.53958 0.0
C898 C 0.77427 0.86875 0.66318 0.0
C899 C 0.74601 0.88008 0.6793 0.0
C900 C 0.80169 0.89773 0.64127 0.0
C901 C 0.80115 0.93843 0.63503 0.0
C902 C 0.77389 0.95033 0.65171 0.0
C903 C 0.74695 0.9217 0.67374 0.0
C904 C 0.82442 0.96585 0.60924 0.0
C905 C 0.81473 0.94293 0.58296 0.0
C906 C 0.85089 0.01456 0.60987 0.0
C907 C 0.86643 0.04043 0.63709 0.0
C908 C 0.85886 0.07735 0.64264 0.0
C909 C 0.87325 0.10136 0.66838 0.0
C910 C 0.89541 0.08889 0.68872 0.0
C911 C 0.90331 0.05243 0.68336 0.0
C912 C 0.88901 0.02832 0.65766 0.0
C913 C 0.81639 0.05694 0.49166 0.0
C914 C 0.85865 0.09488 0.48336 0.0
C915 C 0.81364 0.03143 0.51574 0.0
C916 C 0.85311 0.04289 0.53193 0.0
C917 C 0.89538 0.08084 0.52387 0.0
C918 C 0.89817 0.10652 0.49971 0.0
C919 C 0.84908 0.01605 0.55791 0.0
C920 C 0.86244 0.03908 0.58411 0.0
C921 C 0.82731 0.96743 0.55727 0.0
C922 C 0.81696 0.94162 0.53004 0.0
C923 C 0.85183 0.95326 0.50967 0.0
C924 C 0.84203 0.92917 0.48396 0.0
C925 C 0.79749 0.89322 0.4784 0.0
C926 C 0.76267 0.88122 0.49856 0.0
C927 C 0.77228 0.9052 0.52431 0.0
H928 H 0.78996 0.87462 0.45848 0.0
H929 H 0.9065 0.10751 0.70864 0.0
H930 H 0.74989 0.85493 0.80256 0.0
H931 H 0.80122 0.847 0.83585 0.0
H932 H 0.7192 0.84782 0.90622 0.0
H933 H 0.66684 0.85491 0.87303 0.0
H934 H 0.82733 0.88996 0.91412 0.0
H935 H 0.68025 0.7524 0.88705 0.0
H936 H 0.62406 0.70434 0.85031 0.0
H937 H 0.72886 0.68958 0.80715 0.0
H938 H 0.78587 0.73837 0.84338 0.0
H939 H 0.82041 0.73948 0.02127 0.0
H940 H 0.81524 0.79031 0.98645 0.0
H941 H 0.85351 0.72725 0.91978 0.0
H942 H 0.85674 0.67467 0.95454 0.0
H943 H 0.77918 0.72429 0.90574 0.0
H944 H 0.92175 0.84541 0.93946 0.0
H945 H 0.98025 0.89607 0.97426 0.0
H946 H 0.89069 0.94476 0.00324 0.0
H947 H 0.83134 0.8939 0.9689 0.0
C948 C 0.74351 0.85504 0.82515 0.0
C949 C 0.70364 0.85443 0.83515 0.0
C950 C 0.77314 0.85081 0.84413 0.0
C951 C 0.76365 0.84649 0.87335 0.0
C952 C 0.72707 0.85136 0.88368 0.0
C953 C 0.69703 0.85507 0.86467 0.0
C954 C 0.78468 0.82654 0.89187 0.0
C955 C 0.81695 0.85377 0.91255 0.0
C956 C 0.77186 0.7797 0.88902 0.0
C957 C 0.73736 0.74937 0.8677 0.0
C958 C 0.69135 0.73918 0.86959 0.0
C959 C 0.65936 0.71181 0.84888 0.0
C960 C 0.67291 0.694 0.82637 0.0
C961 C 0.71844 0.70346 0.82457 0.0
C962 C 0.7506 0.73096 0.84518 0.0
C963 C 0.82888 0.73714 0.99931 0.0
C964 C 0.83843 0.70267 0.99058 0.0
C965 C 0.82625 0.76659 0.97938 0.0
C966 C 0.83414 0.76286 0.95041 0.0
C967 C 0.84708 0.73069 0.94199 0.0
C968 C 0.84899 0.70069 0.96187 0.0
C969 C 0.82209 0.78738 0.92875 0.0
C970 C 0.79085 0.76079 0.90731 0.0
C971 C 0.83635 0.83488 0.93091 0.0
C972 C 0.87192 0.86555 0.95168 0.0
C973 C 0.91435 0.86664 0.9534 0.0
C974 C 0.94771 0.89546 0.97302 0.0
C975 C 0.93916 0.92356 0.99098 0.0
C976 C 0.89726 0.92296 0.98932 0.0
C977 C 0.86377 0.8942 0.96973 0.0
H978 H 0.96503 0.94585 0.00616 0.0
H979 H 0.64812 0.67276 0.81039 0.0
H980 H 0.05234 0.78378 0.35264 0.0
H981 H -0.00069 0.77083 0.31386 0.0
H982 H 0.08844 0.90933 0.28371 0.0
H983 H 0.14245 0.92227 0.32261 0.0
H984 H 0.94859 0.80369 0.29511 0.0
H985 H 0.08853 0.90829 0.21193 0.0
H986 H 0.17089 0.93589 0.20307 0.0
H987 H 0.16133 0.82258 0.25125 0.0
H988 H 0.0789 0.79416 0.26013 0.0
H989 H 0.82389 0.7608 0.16459 0.0
H990 H 0.87625 0.80312 0.20411 0.0
H991 H 0.95691 0.7387 0.18456 0.0
H992 H 0.90619 0.69846 0.14481 0.0
H993 H 0.01241 0.82123 0.19774 0.0
H994 H 0.87137 0.70042 0.23923 0.0
H995 H 0.78784 0.65824 0.24887 0.0
H996 H 0.79734 0.78012 0.28537 0.0
H997 H 0.88089 0.82315 0.27564 0.0
C998 C 0.06028 0.81195 0.33823 0.0
C999 C 0.10171 0.8541 0.34067 0.0
C1000 C 0.02985 0.80444 0.31597 0.0
C1001 C 0.04003 0.83892 0.29569 0.0
C1002 C 0.0802 0.88197 0.29888 0.0
C1003 C 0.11101 0.88935 0.32106 0.0
C1004 C 0.01033 0.82789 0.27012 0.0
C1005 C 0.96256 0.80804 0.27378 0.0
C1006 C 0.02839 0.83282 0.24231 0.0
C1007 C 0.07783 0.84956 0.237 0.0
C1008 C 0.10407 0.88932 0.2206 0.0
C1009 C 0.15073 0.90508 0.21558 0.0
C1010 C 0.17138 0.88112 0.2267 0.0
C1011 C 0.14537 0.84124 0.24276 0.0
C1012 C 0.09871 0.82533 0.24783 0.0
C1013 C 0.85316 0.75629 0.16873 0.0
C1014 C 0.86128 0.72676 0.15161 0.0
C1015 C 0.88292 0.78024 0.19129 0.0
C1016 C 0.92042 0.77387 0.19752 0.0
C1017 C 0.92863 0.74471 0.1801 0.0
C1018 C 0.89959 0.72166 0.15734 0.0
C1019 C 0.95039 0.7956 0.2227 0.0
C1020 C -0.00164 0.81784 0.21898 0.0
C1021 C 0.93231 0.79088 0.25053 0.0
C1022 C 0.88217 0.76512 0.25638 0.0
C1023 C 0.85555 0.71828 0.24912 0.0
C1024 C 0.80824 0.69422 0.25463 0.0
C1025 C 0.78727 0.71653 0.26763 0.0
C1026 C 0.8136 0.76292 0.27524 0.0
C1027 C 0.86093 0.78716 0.26973 0.0
H1028 H 0.75064 0.69784 0.27189 0.0
H1029 H 0.2075 0.8934 0.22279 0.0
H1030 H 0.2257 0.11136 0.6792 0.0
H1031 H 0.17582 0.05287 0.6448 0.0
H1032 H 0.28082 0.11725 0.58052 0.0
H1033 H 0.33091 0.17602 0.61462 0.0
H1034 H 0.14218 0.04514 0.58474 0.0
H1035 H 0.3011 0.02967 0.5606 0.0
H1036 H 0.37597 0.04872 0.58169 0.0
H1037 H 0.32073 0.03861 0.66553 0.0
H1038 H 0.24526 0.01854 0.64494 0.0
H1039 H 0.13278 0.89991 0.46778 0.0
H1040 H 0.14037 0.95797 0.5022 0.0
H1041 H 0.13617 0.87083 0.57097 0.0
H1042 H 0.12884 0.81277 0.53683 0.0
H1043 H 0.21715 0.95179 0.56761 0.0
H1044 H 0.05662 0.9017 0.56792 0.0
H1045 H 0.98069 0.88012 0.5476 0.0
H1046 H 0.03537 0.01597 0.51282 0.0
H1047 H 0.11187 0.03821 0.53256 0.0
C1048 C 0.23759 0.11406 0.65747 0.0
C1049 C 0.28263 0.14775 0.64977 0.0
C1050 C 0.20887 0.08074 0.63781 0.0
C1051 C 0.225 0.08052 0.61034 0.0
C1052 C 0.26795 0.1169 0.60173 0.0
C1053 C 0.29656 0.15039 0.62128 0.0
C1054 C 0.20164 0.03827 0.59291 0.0
C1055 C 0.15841 0.02464 0.58082 0.0
C1056 C 0.22258 0.0112 0.58846 0.0
C1057 C 0.26772 0.02315 0.6012 0.0
C1058 C 0.30493 0.03144 0.58353 0.0
C1059 C 0.34743 0.04235 0.59539 0.0
C1060 C 0.35309 0.04493 0.62491 0.0
C1061 C 0.3163 0.0367 0.64266 0.0
C1062 C 0.27365 0.02559 0.6309 0.0
C1063 C 0.13185 0.89238 0.49026 0.0
C1064 C 0.13126 0.85218 0.49957 0.0
C1065 C 0.13597 0.92556 0.50992 0.0
C1066 C 0.13926 0.91883 0.53909 0.0
C1067 C 0.13386 0.8767 0.54851 0.0
C1068 C 0.12978 0.84358 0.52893 0.0
C1069 C 0.15762 0.95844 0.55889 0.0
C1070 C 0.20043 0.97189 0.57145 0.0
C1071 C 0.13603 0.9849 0.56369 0.0
C1072 C 0.09017 0.9715 0.55152 0.0
C1073 C 0.05263 0.92685 0.55568 0.0
C1074 C 0.00943 0.91453 0.54432 0.0
C1075 C 0.00323 0.94662 0.52887 0.0
C1076 C 0.04023 0.99113 0.52477 0.0
C1077 C 0.08351 0.00362 0.53607 0.0
H1078 H 0.96974 0.93703 0.52013 0.0
H1079 H 0.38592 0.05302 0.63398 0.0
loop_
_geom_bond_atom_site_label_1
_geom_bond_atom_site_label_2
_geom_bond_distance
_geom_bond_site_symmetry_2
_ccdc_geom_bond_type
Co0 N5 2.057 . S
Co0 O17 2.021 . S
Co0 O20 2.062 . S
Co0 O24 2.117 . S
Co0 O25 2.020 . S
C1 O21 1.259 . S
C1 O24 1.258 . S
Co2 N11 2.057 . S
Co2 O18 2.117 . S
Co2 O19 2.020 . S
Co2 O21 2.021 . S
Co2 O26 2.062 . S
C3 N5 1.316 . S
C3 N6 1.347 . S
C3 H8 0.931 . S
C4 N5 1.375 . S
C4 C7 1.350 . S
C4 H9 0.930 . S
N5 Co0 2.057 . S
N5 C3 1.316 . S
N5 C4 1.375 . S
N6 C3 1.347 . S
N6 C7 1.373 . S
C7 C4 1.350 . S
C7 N6 1.373 . S
C7 H28 0.931 . S
H8 C3 0.931 . S
H9 C4 0.930 . S
C10 O17 1.259 . S
C10 O18 1.258 . S
N11 Co2 2.057 . S
N11 C12 1.316 . S
N11 C13 1.375 . S
C12 N11 1.316 . S
C12 N14 1.347 . S
C12 H23 0.931 . S
C13 N11 1.375 . S
C13 C15 1.350 . S
C13 H22 0.930 . S
N14 C12 1.347 . S
N14 C15 1.373 . S
C15 C13 1.350 . S
C15 N14 1.373 . S
C15 H29 0.931 . S
C16 O19 1.256 . S
C16 O20 1.255 . S
O17 Co0 2.021 . S
O17 C10 1.259 . S
O18 Co2 2.117 . S
O18 C10 1.258 . S
O19 Co2 2.020 . S
O19 C16 1.256 . S
O20 Co0 2.062 . S
O20 C16 1.255 . S
O21 C1 1.259 . S
O21 Co2 2.021 . S
H22 C13 0.930 . S
H23 C12 0.931 . S
O24 Co0 2.117 . S
O24 C1 1.258 . S
O25 Co0 2.020 . S
O25 C27 1.256 . S
O26 Co2 2.062 . S
O26 C27 1.255 . S
C27 O25 1.256 . S
C27 O26 1.255 . S
H28 C7 0.931 . S
H29 C15 0.931 . S
Co30 N35 2.057 . S
Co30 O47 2.021 . S
Co30 O50 2.062 . S
Co30 O54 2.117 . S
Co30 O55 2.020 . S
C31 O51 1.259 . S
C31 O54 1.258 . S
Co32 N41 2.057 . S
Co32 O48 2.117 . S
Co32 O49 2.020 . S
Co32 O51 2.021 . S
Co32 O56 2.062 . S
C33 N35 1.316 . S
C33 N36 1.347 . S
C33 H38 0.931 . S
C34 N35 1.375 . S
C34 C37 1.350 . S
C34 H39 0.930 . S
N35 Co30 2.057 . S
N35 C33 1.316 . S
N35 C34 1.375 . S
N36 C33 1.347 . S
N36 C37 1.373 . S
C37 C34 1.350 . S
C37 N36 1.373 . S
C37 H58 0.931 . S
H38 C33 0.931 . S
H39 C34 0.930 . S
C40 O47 1.259 . S
C40 O48 1.258 . S
N41 Co32 2.057 . S
N41 C42 1.316 . S
N41 C43 1.375 . S
C42 N41 1.316 . S
C42 N44 1.347 . S
C42 H53 0.931 . S
C43 N41 1.375 . S
C43 C45 1.350 . S
C43 H52 0.930 . S
N44 C42 1.347 . S
N44 C45 1.373 . S
C45 C43 1.350 . S
C45 N44 1.373 . S
C45 H59 0.931 . S
C46 O49 1.256 . S
C46 O50 1.255 . S
O47 Co30 2.021 . S
O47 C40 1.259 . S
O48 Co32 2.117 . S
O48 C40 1.258 . S
O49 Co32 2.020 . S
O49 C46 1.256 . S
O50 Co30 2.062 . S
O50 C46 1.255 . S
O51 C31 1.259 . S
O51 Co32 2.021 . S
H52 C43 0.930 . S
H53 C42 0.931 . S
O54 Co30 2.117 . S
O54 C31 1.258 . S
O55 Co30 2.020 . S
O55 C57 1.256 . S
O56 Co32 2.062 . S
O56 C57 1.255 . S
C57 O55 1.256 . S
C57 O56 1.255 . S
H58 C37 0.931 . S
H59 C45 0.931 . S
Co60 N65 2.057 . S
Co60 O77 2.021 . S
Co60 O80 2.062 . S
Co60 O84 2.117 . S
Co60 O85 2.020 . S
C61 O81 1.259 . S
C61 O84 1.258 . S
Co62 N71 2.057 . S
Co62 O78 2.117 . S
Co62 O79 2.020 . S
Co62 O81 2.021 . S
Co62 O86 2.062 . S
C63 N65 1.316 . S
C63 N66 1.347 . S
C63 H68 0.931 . S
C64 N65 1.375 . S
C64 C67 1.350 . S
C64 H69 0.930 . S
N65 Co60 2.057 . S
N65 C63 1.316 . S
N65 C64 1.375 . S
N66 C63 1.347 . S
N66 C67 1.373 . S
C67 C64 1.350 . S
C67 N66 1.373 . S
C67 H88 0.931 . S
H68 C63 0.931 . S
H69 C64 0.930 . S
C70 O77 1.259 . S
C70 O78 1.258 . S
N71 Co62 2.057 . S
N71 C72 1.316 . S
N71 C73 1.375 . S
C72 N71 1.316 . S
C72 N74 1.347 . S
C72 H83 0.931 . S
C73 N71 1.375 . S
C73 C75 1.350 . S
C73 H82 0.930 . S
N74 C72 1.347 . S
N74 C75 1.373 . S
C75 C73 1.350 . S
C75 N74 1.373 . S
C75 H89 0.931 . S
C76 O79 1.256 . S
C76 O80 1.255 . S
O77 Co60 2.021 . S
O77 C70 1.259 . S
O78 Co62 2.117 . S
O78 C70 1.258 . S
O79 Co62 2.020 . S
O79 C76 1.256 . S
O80 Co60 2.062 . S
O80 C76 1.255 . S
O81 C61 1.259 . S
O81 Co62 2.021 . S
H82 C73 0.930 . S
H83 C72 0.931 . S
O84 Co60 2.117 . S
O84 C61 1.258 . S
O85 Co60 2.020 . S
O85 C87 1.256 . S
O86 Co62 2.062 . S
O86 C87 1.255 . S
C87 O85 1.256 . S
C87 O86 1.255 . S
H88 C67 0.931 . S
H89 C75 0.931 . S
Co90 N95 2.057 . S
Co90 O107 2.021 . S
Co90 O110 2.062 . S
Co90 O114 2.117 . S
Co90 O115 2.020 . S
C91 O111 1.259 . S
C91 O114 1.258 . S
Co92 N101 2.057 . S
Co92 O108 2.117 . S
Co92 O109 2.020 . S
Co92 O111 2.021 . S
Co92 O116 2.062 . S
C93 N95 1.316 1_556 S
C93 N96 1.347 . S
C93 H98 0.931 . S
C94 N95 1.375 1_556 S
C94 C97 1.350 . S
C94 H99 0.930 . S
N95 Co90 2.057 . S
N95 C93 1.316 1_554 S
N95 C94 1.375 1_554 S
N96 C93 1.347 . S
N96 C97 1.373 . S
C97 C94 1.350 . S
C97 N96 1.373 . S
C97 H118 0.931 . S
H98 C93 0.931 . S
H99 C94 0.930 . S
C100 O107 1.259 . S
C100 O108 1.258 . S
N101 Co92 2.057 . S
N101 C102 1.316 . S
N101 C103 1.375 . S
C102 N101 1.316 . S
C102 N104 1.347 . S
C102 H113 0.931 . S
C103 N101 1.375 . S
C103 C105 1.350 . S
C103 H112 0.930 . S
N104 C102 1.347 . S
N104 C105 1.373 . S
C105 C103 1.350 . S
C105 N104 1.373 . S
C105 H119 0.931 . S
C106 O109 1.256 . S
C106 O110 1.255 . S
O107 Co90 2.021 . S
O107 C100 1.259 . S
O108 Co92 2.117 . S
O108 C100 1.258 . S
O109 Co92 2.020 . S
O109 C106 1.256 . S
O110 Co90 2.062 . S
O110 C106 1.255 . S
O111 C91 1.259 . S
O111 Co92 2.021 . S
H112 C103 0.930 . S
H113 C102 0.931 . S
O114 Co90 2.117 . S
O114 C91 1.258 . S
O115 Co90 2.020 . S
O115 C117 1.256 . S
O116 Co92 2.062 . S
O116 C117 1.255 . S
C117 O115 1.256 . S
C117 O116 1.255 . S
H118 C97 0.931 . S
H119 C105 0.931 . S
Co120 N125 2.057 . S
Co120 O137 2.021 . S
Co120 O140 2.062 . S
Co120 O144 2.117 . S
Co120 O145 2.020 . S
C121 O141 1.259 . S
C121 O144 1.258 . S
Co122 N131 2.057 . S
Co122 O138 2.117 . S
Co122 O139 2.020 . S
Co122 O141 2.021 . S
Co122 O146 2.062 . S
C123 N125 1.316 . S
C123 N126 1.347 . S
C123 H128 0.931 . S
C124 N125 1.375 . S
C124 C127 1.350 . S
C124 H129 0.930 . S
N125 Co120 2.057 . S
N125 C123 1.316 . S
N125 C124 1.375 . S
N126 C123 1.347 . S
N126 C127 1.373 . S
C127 C124 1.350 . S
C127 N126 1.373 . S
C127 H148 0.931 . S
H128 C123 0.931 . S
H129 C124 0.930 . S
C130 O137 1.259 . S
C130 O138 1.258 . S
N131 Co122 2.057 . S
N131 C132 1.316 . S
N131 C133 1.375 . S
C132 N131 1.316 . S
C132 N134 1.347 . S
C132 H143 0.931 . S
C133 N131 1.375 . S
C133 C135 1.350 . S
C133 H142 0.930 . S
N134 C132 1.347 . S
N134 C135 1.373 . S
C135 C133 1.350 . S
C135 N134 1.373 . S
C135 H149 0.931 . S
C136 O139 1.256 . S
C136 O140 1.255 . S
O137 Co120 2.021 . S
O137 C130 1.259 . S
O138 Co122 2.117 . S
O138 C130 1.258 . S
O139 Co122 2.020 . S
O139 C136 1.256 . S
O140 Co120 2.062 . S
O140 C136 1.255 . S
O141 C121 1.259 . S
O141 Co122 2.021 . S
H142 C133 0.930 . S
H143 C132 0.931 . S
O144 Co120 2.117 . S
O144 C121 1.258 . S
O145 Co120 2.020 . S
O145 C147 1.256 . S
O146 Co122 2.062 . S
O146 C147 1.255 . S
C147 O145 1.256 . S
C147 O146 1.255 . S
H148 C127 0.931 . S
H149 C135 0.931 . S
Co150 N155 2.057 . S
Co150 O167 2.021 . S
Co150 O170 2.062 . S
Co150 O174 2.117 . S
Co150 O175 2.020 . S
C151 O171 1.259 . S
C151 O174 1.258 . S
Co152 N161 2.057 . S
Co152 O168 2.117 . S
Co152 O169 2.020 . S
Co152 O171 2.021 . S
Co152 O176 2.062 . S
C153 N155 1.316 . S
C153 N156 1.347 . S
C153 H158 0.931 . S
C154 N155 1.375 . S
C154 C157 1.350 . S
C154 H159 0.930 . S
N155 Co150 2.057 . S
N155 C153 1.316 . S
N155 C154 1.375 . S
N156 C153 1.347 . S
N156 C157 1.373 . S
C157 C154 1.350 . S
C157 N156 1.373 . S
C157 H178 0.931 . S
H158 C153 0.931 . S
H159 C154 0.930 . S
C160 O167 1.259 . S
C160 O168 1.258 . S
N161 Co152 2.057 . S
N161 C162 1.316 . S
N161 C163 1.375 . S
C162 N161 1.316 . S
C162 N164 1.347 . S
C162 H173 0.931 . S
C163 N161 1.375 . S
C163 C165 1.350 . S
C163 H172 0.930 . S
N164 C162 1.347 . S
N164 C165 1.373 . S
C165 C163 1.350 . S
C165 N164 1.373 . S
C165 H179 0.931 . S
C166 O169 1.256 . S
C166 O170 1.255 . S
O167 Co150 2.021 . S
O167 C160 1.259 . S
O168 Co152 2.117 . S
O168 C160 1.258 . S
O169 Co152 2.020 . S
O169 C166 1.256 . S
O170 Co150 2.062 . S
O170 C166 1.255 . S
O171 C151 1.259 . S
O171 Co152 2.021 . S
H172 C163 0.930 . S
H173 C162 0.931 . S
O174 Co150 2.117 . S
O174 C151 1.258 . S
O175 Co150 2.020 . S
O175 C177 1.256 . S
O176 Co152 2.062 . S
O176 C177 1.255 . S
C177 O175 1.256 . S
C177 O176 1.255 . S
H178 C157 0.931 . S
H179 C165 0.931 . S
H180 C198 0.951 . S
H181 C200 0.951 . S
H182 C202 0.950 . S
H183 C203 0.950 . S
H184 C205 0.950 . S
H185 C208 0.950 . S
H186 C209 0.950 . S
H187 C211 0.950 . S
H188 C212 0.950 . S
H189 C213 0.951 . S
H190 C215 0.951 . S
H191 C217 0.950 . S
H192 C218 0.950 . S
H193 C220 0.950 . S
H194 C223 0.950 . S
H195 C224 0.950 . S
H196 C226 0.950 . S
H197 C227 0.950 . S
C198 H180 0.951 . S
C198 C199 1.366 . S
C198 C200 1.388 . S
C199 C198 1.366 . S
C199 C203 1.385 . S
C200 H181 0.951 . S
C200 C198 1.388 . S
C200 C201 1.366 . S
C201 C200 1.366 . S
C201 C202 1.414 . S
C201 C204 1.499 . S
C202 H182 0.950 . S
C202 C201 1.414 . S
C202 C203 1.374 . S
C203 H183 0.950 . S
C203 C199 1.385 . S
C203 C202 1.374 . S
C204 C201 1.499 . S
C204 C205 1.373 . S
C204 C206 1.389 . S
C205 H184 0.950 . S
C205 C204 1.373 . S
C205 C221 1.377 . S
C206 C204 1.389 . S
C206 C207 1.524 . S
C206 C220 1.377 . S
C207 C206 1.524 . S
C207 C208 1.397 . S
C207 C212 1.363 . S
C208 H185 0.950 . S
C208 C207 1.397 . S
C208 C209 1.334 . S
C209 H186 0.950 . S
C209 C208 1.334 . S
C209 C210 1.287 . S
C210 C209 1.287 . S
C210 C211 1.524 . S
C210 H229 0.913 . S
C211 H187 0.950 . S
C211 C210 1.524 . S
C211 C212 1.415 . S
C212 H188 0.950 . S
C212 C207 1.363 . S
C212 C211 1.415 . S
C213 H189 0.951 . S
C213 C214 1.366 . S
C213 C215 1.388 . S
C214 C213 1.366 . S
C214 C218 1.385 . S
C215 H190 0.951 . S
C215 C213 1.388 . S
C215 C216 1.366 . S
C216 C215 1.366 . S
C216 C217 1.414 . S
C216 C219 1.499 . S
C217 H191 0.950 . S
C217 C216 1.414 . S
C217 C218 1.374 . S
C218 H192 0.950 . S
C218 C214 1.385 . S
C218 C217 1.374 . S
C219 C216 1.499 . S
C219 C220 1.373 . S
C219 C221 1.389 . S
C220 H193 0.950 . S
C220 C206 1.377 . S
C220 C219 1.373 . S
C221 C205 1.377 . S
C221 C219 1.389 . S
C221 C222 1.524 . S
C222 C221 1.524 . S
C222 C223 1.397 . S
C222 C227 1.363 . S
C223 H194 0.950 . S
C223 C222 1.397 . S
C223 C224 1.334 . S
C224 H195 0.950 . S
C224 C223 1.334 . S
C224 C225 1.287 . S
C225 C224 1.287 . S
C225 C226 1.524 . S
C225 H228 0.999 . S
C226 H196 0.950 . S
C226 C225 1.524 . S
C226 C227 1.415 . S
C227 H197 0.950 . S
C227 C222 1.363 . S
C227 C226 1.415 . S
H228 C225 0.999 . S
H229 C210 0.913 . S
H230 C248 0.951 . S
H231 C250 0.951 . S
H232 C252 0.950 . S
H233 C253 0.950 . S
H234 C255 0.950 . S
H235 C258 0.950 . S
H236 C259 0.950 . S
H237 C261 0.950 . S
H238 C262 0.950 . S
H239 C263 0.951 . S
H240 C265 0.951 . S
H241 C267 0.950 . S
H242 C268 0.950 . S
H243 C270 0.950 . S
H244 C273 0.950 . S
H245 C274 0.950 . S
H246 C276 0.950 . S
H247 C277 0.950 . S
C248 H230 0.951 . S
C248 C249 1.366 . S
C248 C250 1.388 . S
C249 C248 1.366 . S
C249 C253 1.385 . S
C250 H231 0.951 . S
C250 C248 1.388 . S
C250 C251 1.366 . S
C251 C250 1.366 . S
C251 C252 1.414 . S
C251 C254 1.499 . S
C252 H232 0.950 . S
C252 C251 1.414 . S
C252 C253 1.374 . S
C253 H233 0.950 . S
C253 C249 1.385 . S
C253 C252 1.374 . S
C254 C251 1.499 . S
C254 C255 1.373 . S
C254 C256 1.389 . S
C255 H234 0.950 . S
C255 C254 1.373 . S
C255 C271 1.377 . S
C256 C254 1.389 . S
C256 C257 1.524 . S
C256 C270 1.377 . S
C257 C256 1.524 . S
C257 C258 1.397 . S
C257 C262 1.363 . S
C258 H235 0.950 . S
C258 C257 1.397 . S
C258 C259 1.334 . S
C259 H236 0.950 . S
C259 C258 1.334 . S
C259 C260 1.287 . S
C260 C259 1.287 . S
C260 C261 1.524 . S
C260 H279 0.913 . S
C261 H237 0.950 . S
C261 C260 1.524 . S
C261 C262 1.415 . S
C262 H238 0.950 . S
C262 C257 1.363 . S
C262 C261 1.415 . S
C263 H239 0.951 . S
C263 C264 1.366 . S
C263 C265 1.388 . S
C264 C263 1.366 . S
C264 C268 1.385 . S
C265 H240 0.951 . S
C265 C263 1.388 . S
C265 C266 1.366 . S
C266 C265 1.366 . S
C266 C267 1.414 . S
C266 C269 1.499 . S
C267 H241 0.950 . S
C267 C266 1.414 . S
C267 C268 1.374 . S
C268 H242 0.950 . S
C268 C264 1.385 . S
C268 C267 1.374 . S
C269 C266 1.499 . S
C269 C270 1.373 . S
C269 C271 1.389 . S
C270 H243 0.950 . S
C270 C256 1.377 . S
C270 C269 1.373 . S
C271 C255 1.377 . S
C271 C269 1.389 . S
C271 C272 1.524 . S
C272 C271 1.524 . S
C272 C273 1.397 . S
C272 C277 1.363 . S
C273 H244 0.950 . S
C273 C272 1.397 . S
C273 C274 1.334 . S
C274 H245 0.950 . S
C274 C273 1.334 . S
C274 C275 1.287 . S
C275 C274 1.287 . S
C275 C276 1.524 . S
C275 H278 0.999 . S
C276 H246 0.950 . S
C276 C275 1.524 . S
C276 C277 1.415 . S
C277 H247 0.950 . S
C277 C272 1.363 . S
C277 C276 1.415 . S
H278 C275 0.999 . S
H279 C260 0.913 . S
H280 C298 0.951 . S
H281 C300 0.951 . S
H282 C302 0.950 1_556 S
H283 C303 0.950 . S
H284 C305 0.950 . S
H285 C308 0.950 . S
H286 C309 0.950 . S
H287 C311 0.950 . S
H288 C312 0.950 . S
H289 C313 0.951 . S
H290 C315 0.951 . S
H291 C317 0.950 . S
H292 C318 0.950 . S
H293 C320 0.950 . S
H294 C323 0.950 . S
H295 C324 0.950 . S
H296 C326 0.950 . S
H297 C327 0.950 . S
C298 H280 0.951 . S
C298 C299 1.366 . S
C298 C300 1.388 . S
C299 C298 1.366 . S
C299 C303 1.385 . S
C300 H281 0.951 . S
C300 C298 1.388 . S
C300 C301 1.366 . S
C301 C300 1.366 . S
C301 C302 1.414 . S
C301 C304 1.499 1_554 S
C302 H282 0.950 1_554 S
C302 C301 1.414 . S
C302 C303 1.374 . S
C303 H283 0.950 . S
C303 C299 1.385 . S
C303 C302 1.374 . S
C304 C301 1.499 1_556 S
C304 C305 1.373 . S
C304 C306 1.389 . S
C305 H284 0.950 . S
C305 C304 1.373 . S
C305 C321 1.377 . S
C306 C304 1.389 . S
C306 C307 1.524 1_556 S
C306 C320 1.377 . S
C307 C306 1.524 1_554 S
C307 C308 1.397 . S
C307 C312 1.363 . S
C308 H285 0.950 . S
C308 C307 1.397 . S
C308 C309 1.334 . S
C309 H286 0.950 . S
C309 C308 1.334 . S
C309 C310 1.287 . S
C310 C309 1.287 . S
C310 C311 1.524 . S
C310 H329 0.913 . S
C311 H287 0.950 . S
C311 C310 1.524 . S
C311 C312 1.415 . S
C312 H288 0.950 . S
C312 C307 1.363 . S
C312 C311 1.415 . S
C313 H289 0.951 . S
C313 C314 1.366 . S
C313 C315 1.388 . S
C314 C313 1.366 . S
C314 C318 1.385 . S
C315 H290 0.951 . S
C315 C313 1.388 . S
C315 C316 1.366 . S
C316 C315 1.366 . S
C316 C317 1.414 . S
C316 C319 1.499 . S
C317 H291 0.950 . S
C317 C316 1.414 . S
C317 C318 1.374 . S
C318 H292 0.950 . S
C318 C314 1.385 . S
C318 C317 1.374 . S
C319 C316 1.499 . S
C319 C320 1.373 . S
C319 C321 1.389 . S
C320 H293 0.950 . S
C320 C306 1.377 . S
C320 C319 1.373 . S
C321 C305 1.377 . S
C321 C319 1.389 . S
C321 C322 1.524 . S
C322 C321 1.524 . S
C322 C323 1.397 . S
C322 C327 1.363 . S
C323 H294 0.950 . S
C323 C322 1.397 . S
C323 C324 1.334 . S
C324 H295 0.950 . S
C324 C323 1.334 . S
C324 C325 1.287 . S
C325 C324 1.287 . S
C325 C326 1.524 . S
C325 H328 0.999 . S
C326 H296 0.950 . S
C326 C325 1.524 . S
C326 C327 1.415 . S
C327 H297 0.950 . S
C327 C322 1.363 . S
C327 C326 1.415 . S
H328 C325 0.999 . S
H329 C310 0.913 . S
H330 C348 0.951 . S
H331 C350 0.951 . S
H332 C352 0.950 . S
H333 C353 0.950 . S
H334 C355 0.950 . S
H335 C358 0.950 . S
H336 C359 0.950 . S
H337 C361 0.950 . S
H338 C362 0.950 . S
H339 C363 0.951 . S
H340 C365 0.951 . S
H341 C367 0.950 . S
H342 C368 0.950 . S
H343 C370 0.950 . S
H344 C373 0.950 . S
H345 C374 0.950 . S
H346 C376 0.950 . S
H347 C377 0.950 . S
C348 H330 0.951 . S
C348 C349 1.366 . S
C348 C350 1.388 . S
C349 C348 1.366 . S
C349 C353 1.385 . S
C350 H331 0.951 . S
C350 C348 1.388 . S
C350 C351 1.366 . S
C351 C350 1.366 . S
C351 C352 1.414 . S
C351 C354 1.499 . S
C352 H332 0.950 . S
C352 C351 1.414 . S
C352 C353 1.374 . S
C353 H333 0.950 . S
C353 C349 1.385 . S
C353 C352 1.374 . S
C354 C351 1.499 . S
C354 C355 1.373 . S
C354 C356 1.389 . S
C355 H334 0.950 . S
C355 C354 1.373 . S
C355 C371 1.377 . S
C356 C354 1.389 . S
C356 C357 1.524 . S
C356 C370 1.377 . S
C357 C356 1.524 . S
C357 C358 1.397 . S
C357 C362 1.363 . S
C358 H335 0.950 . S
C358 C357 1.397 . S
C358 C359 1.334 . S
C359 H336 0.950 . S
C359 C358 1.334 . S
C359 C360 1.287 . S
C360 C359 1.287 . S
C360 C361 1.524 . S
C360 H379 0.913 . S
C361 H337 0.950 . S
C361 C360 1.524 . S
C361 C362 1.415 . S
C362 H338 0.950 . S
C362 C357 1.363 . S
C362 C361 1.415 . S
C363 H339 0.951 . S
C363 C364 1.366 . S
C363 C365 1.388 . S
C364 C363 1.366 . S
C364 C368 1.385 . S
C365 H340 0.951 . S
C365 C363 1.388 . S
C365 C366 1.366 . S
C366 C365 1.366 . S
C366 C367 1.414 . S
C366 C369 1.499 . S
C367 H341 0.950 . S
C367 C366 1.414 . S
C367 C368 1.374 . S
C368 H342 0.950 . S
C368 C364 1.385 . S
C368 C367 1.374 . S
C369 C366 1.499 . S
C369 C370 1.373 . S
C369 C371 1.389 . S
C370 H343 0.950 . S
C370 C356 1.377 . S
C370 C369 1.373 . S
C371 C355 1.377 . S
C371 C369 1.389 . S
C371 C372 1.524 . S
C372 C371 1.524 . S
C372 C373 1.397 . S
C372 C377 1.363 . S
C373 H344 0.950 . S
C373 C372 1.397 . S
C373 C374 1.334 . S
C374 H345 0.950 . S
C374 C373 1.334 . S
C374 C375 1.287 . S
C375 C374 1.287 . S
C375 C376 1.524 . S
C375 H378 0.999 . S
C376 H346 0.950 . S
C376 C375 1.524 . S
C376 C377 1.415 . S
C377 H347 0.950 . S
C377 C372 1.363 . S
C377 C376 1.415 . S
H378 C375 0.999 . S
H379 C360 0.913 . S
H380 C398 0.951 . S
H381 C400 0.951 . S
H382 C402 0.950 . S
H383 C403 0.950 . S
H384 C405 0.950 . S
H385 C408 0.950 . S
H386 C409 0.950 . S
H387 C411 0.950 . S
H388 C412 0.950 . S
H389 C413 0.951 . S
H390 C415 0.951 . S
H391 C417 0.950 . S
H392 C418 0.950 . S
H393 C420 0.950 . S
H394 C423 0.950 . S
H395 C424 0.950 . S
H396 C426 0.950 . S
H397 C427 0.950 . S
C398 H380 0.951 . S
C398 C399 1.366 . S
C398 C400 1.388 . S
C399 C398 1.366 . S
C399 C403 1.385 . S
C400 H381 0.951 . S
C400 C398 1.388 . S
C400 C401 1.366 . S
C401 C400 1.366 . S
C401 C402 1.414 . S
C401 C404 1.499 . S
C402 H382 0.950 . S
C402 C401 1.414 . S
C402 C403 1.374 . S
C403 H383 0.950 . S
C403 C399 1.385 . S
C403 C402 1.374 . S
C404 C401 1.499 . S
C404 C405 1.373 . S
C404 C406 1.389 . S
C405 H384 0.950 . S
C405 C404 1.373 . S
C405 C421 1.377 . S
C406 C404 1.389 . S
C406 C407 1.524 . S
C406 C420 1.377 . S
C407 C406 1.524 . S
C407 C408 1.397 . S
C407 C412 1.363 . S
C408 H385 0.950 . S
C408 C407 1.397 . S
C408 C409 1.334 . S
C409 H386 0.950 . S
C409 C408 1.334 . S
C409 C410 1.287 . S
C410 C409 1.287 . S
C410 C411 1.524 . S
C410 H429 0.913 . S
C411 H387 0.950 . S
C411 C410 1.524 . S
C411 C412 1.415 . S
C412 H388 0.950 . S
C412 C407 1.363 . S
C412 C411 1.415 . S
C413 H389 0.951 . S
C413 C414 1.366 . S
C413 C415 1.388 . S
C414 C413 1.366 . S
C414 C418 1.385 . S
C415 H390 0.951 . S
C415 C413 1.388 . S
C415 C416 1.366 . S
C416 C415 1.366 . S
C416 C417 1.414 . S
C416 C419 1.499 . S
C417 H391 0.950 . S
C417 C416 1.414 . S
C417 C418 1.374 . S
C418 H392 0.950 . S
C418 C414 1.385 . S
C418 C417 1.374 . S
C419 C416 1.499 . S
C419 C420 1.373 . S
C419 C421 1.389 . S
C420 H393 0.950 . S
C420 C406 1.377 . S
C420 C419 1.373 . S
C421 C405 1.377 . S
C421 C419 1.389 . S
C421 C422 1.524 . S
C422 C421 1.524 . S
C422 C423 1.397 . S
C422 C427 1.363 . S
C423 H394 0.950 . S
C423 C422 1.397 . S
C423 C424 1.334 . S
C424 H395 0.950 . S
C424 C423 1.334 . S
C424 C425 1.287 . S
C425 C424 1.287 . S
C425 C426 1.524 . S
C425 H428 0.999 . S
C426 H396 0.950 . S
C426 C425 1.524 . S
C426 C427 1.415 . S
C427 H397 0.950 . S
C427 C422 1.363 . S
C427 C426 1.415 . S
H428 C425 0.999 . S
H429 C410 0.913 . S
H430 C448 0.951 . S
H431 C450 0.951 . S
H432 C452 0.950 . S
H433 C453 0.950 . S
H434 C455 0.950 . S
H435 C458 0.950 . S
H436 C459 0.950 . S
H437 C461 0.950 . S
H438 C462 0.950 . S
H439 C463 0.951 . S
H440 C465 0.951 . S
H441 C467 0.950 . S
H442 C468 0.950 . S
H443 C470 0.950 . S
H444 C473 0.950 . S
H445 C474 0.950 . S
H446 C476 0.950 . S
H447 C477 0.950 . S
C448 H430 0.951 . S
C448 C449 1.366 . S
C448 C450 1.388 . S
C449 C448 1.366 . S
C449 C453 1.385 . S
C450 H431 0.951 . S
C450 C448 1.388 . S
C450 C451 1.366 . S
C451 C450 1.366 . S
C451 C452 1.414 . S
C451 C454 1.499 . S
C452 H432 0.950 . S
C452 C451 1.414 . S
C452 C453 1.374 . S
C453 H433 0.950 . S
C453 C449 1.385 . S
C453 C452 1.374 . S
C454 C451 1.499 . S
C454 C455 1.373 . S
C454 C456 1.389 . S
C455 H434 0.950 . S
C455 C454 1.373 . S
C455 C471 1.377 . S
C456 C454 1.389 . S
C456 C457 1.524 . S
C456 C470 1.377 . S
C457 C456 1.524 . S
C457 C458 1.397 . S
C457 C462 1.363 . S
C458 H435 0.950 . S
C458 C457 1.397 . S
C458 C459 1.334 . S
C459 H436 0.950 . S
C459 C458 1.334 . S
C459 C460 1.287 . S
C460 C459 1.287 . S
C460 C461 1.524 . S
C460 H479 0.913 . S
C461 H437 0.950 . S
C461 C460 1.524 . S
C461 C462 1.415 . S
C462 H438 0.950 . S
C462 C457 1.363 . S
C462 C461 1.415 . S
C463 H439 0.951 . S
C463 C464 1.366 . S
C463 C465 1.388 . S
C464 C463 1.366 . S
C464 C468 1.385 . S
C465 H440 0.951 . S
C465 C463 1.388 . S
C465 C466 1.366 . S
C466 C465 1.366 . S
C466 C467 1.414 . S
C466 C469 1.499 . S
C467 H441 0.950 . S
C467 C466 1.414 . S
C467 C468 1.374 . S
C468 H442 0.950 . S
C468 C464 1.385 . S
C468 C467 1.374 . S
C469 C466 1.499 . S
C469 C470 1.373 . S
C469 C471 1.389 . S
C470 H443 0.950 . S
C470 C456 1.377 . S
C470 C469 1.373 . S
C471 C455 1.377 . S
C471 C469 1.389 . S
C471 C472 1.524 . S
C472 C471 1.524 . S
C472 C473 1.397 . S
C472 C477 1.363 . S
C473 H444 0.950 . S
C473 C472 1.397 . S
C473 C474 1.334 . S
C474 H445 0.950 . S
C474 C473 1.334 . S
C474 C475 1.287 . S
C475 C474 1.287 . S
C475 C476 1.524 . S
C475 H478 0.999 . S
C476 H446 0.950 . S
C476 C475 1.524 . S
C476 C477 1.415 . S
C477 H447 0.950 . S
C477 C472 1.363 . S
C477 C476 1.415 . S
H478 C475 0.999 . S
H479 C460 0.913 . S
H480 C498 0.951 . S
H481 C500 0.951 . S
H482 C502 0.950 . S
H483 C503 0.950 . S
H484 C505 0.950 . S
H485 C508 0.950 . S
H486 C509 0.950 . S
H487 C511 0.950 . S
H488 C512 0.950 . S
H489 C513 0.951 . S
H490 C515 0.951 . S
H491 C517 0.950 . S
H492 C518 0.950 . S
H493 C520 0.950 . S
H494 C523 0.950 . S
H495 C524 0.950 . S
H496 C526 0.950 1_556 S
H497 C527 0.950 . S
C498 H480 0.951 . S
C498 C499 1.366 . S
C498 C500 1.388 . S
C499 C498 1.366 . S
C499 C503 1.385 . S
C500 H481 0.951 . S
C500 C498 1.388 . S
C500 C501 1.366 . S
C501 C500 1.366 . S
C501 C502 1.414 . S
C501 C504 1.499 . S
C502 H482 0.950 . S
C502 C501 1.414 . S
C502 C503 1.374 . S
C503 H483 0.950 . S
C503 C499 1.385 . S
C503 C502 1.374 . S
C504 C501 1.499 . S
C504 C505 1.373 . S
C504 C506 1.389 . S
C505 H484 0.950 . S
C505 C504 1.373 . S
C505 C521 1.377 . S
C506 C504 1.389 . S
C506 C507 1.524 . S
C506 C520 1.377 . S
C507 C506 1.524 . S
C507 C508 1.397 . S
C507 C512 1.363 . S
C508 H485 0.950 . S
C508 C507 1.397 . S
C508 C509 1.334 . S
C509 H486 0.950 . S
C509 C508 1.334 . S
C509 C510 1.287 . S
C510 C509 1.287 . S
C510 C511 1.524 . S
C510 H529 0.913 . S
C511 H487 0.950 . S
C511 C510 1.524 . S
C511 C512 1.415 . S
C512 H488 0.950 . S
C512 C507 1.363 . S
C512 C511 1.415 . S
C513 H489 0.951 . S
C513 C514 1.366 . S
C513 C515 1.388 . S
C514 C513 1.366 . S
C514 C518 1.385 . S
C515 H490 0.951 . S
C515 C513 1.388 . S
C515 C516 1.366 . S
C516 C515 1.366 . S
C516 C517 1.414 . S
C516 C519 1.499 . S
C517 H491 0.950 . S
C517 C516 1.414 . S
C517 C518 1.374 . S
C518 H492 0.950 . S
C518 C514 1.385 . S
C518 C517 1.374 . S
C519 C516 1.499 . S
C519 C520 1.373 . S
C519 C521 1.389 . S
C520 H493 0.950 . S
C520 C506 1.377 . S
C520 C519 1.373 . S
C521 C505 1.377 . S
C521 C519 1.389 . S
C521 C522 1.524 . S
C522 C521 1.524 . S
C522 C523 1.397 . S
C522 C527 1.363 . S
C523 H494 0.950 . S
C523 C522 1.397 . S
C523 C524 1.334 1_554 S
C524 H495 0.950 . S
C524 C523 1.334 1_556 S
C524 C525 1.287 . S
C525 C524 1.287 . S
C525 C526 1.524 1_556 S
C525 H528 0.999 . S
C526 H496 0.950 1_554 S
C526 C525 1.524 1_554 S
C526 C527 1.415 . S
C527 H497 0.950 . S
C527 C522 1.363 . S
C527 C526 1.415 . S
H528 C525 0.999 . S
H529 C510 0.913 . S
H530 C548 0.951 . S
H531 C550 0.951 . S
H532 C552 0.950 . S
H533 C553 0.950 . S
H534 C555 0.961 . S
H535 C558 0.950 . S
H536 C559 0.950 . S
H537 C561 0.950 . S
H538 C562 0.950 . S
H539 C563 0.951 . S
H540 C565 0.951 . S
H541 C567 0.950 1_455 S
H542 C568 0.950 . S
H543 C570 0.950 . S
H544 C573 0.950 . S
H545 C574 0.950 . S
H546 C576 0.950 . S
H547 C577 0.950 . S
C548 H530 0.951 . S
C548 C549 1.366 . S
C548 C550 1.388 . S
C549 C548 1.366 . S
C549 C553 1.385 . S
C550 H531 0.951 . S
C550 C548 1.388 . S
C550 C551 1.366 . S
C551 C550 1.366 . S
C551 C552 1.414 . S
C551 C554 1.499 . S
C552 H532 0.950 . S
C552 C551 1.414 . S
C552 C553 1.374 . S
C553 H533 0.950 . S
C553 C549 1.385 . S
C553 C552 1.374 . S
C554 C551 1.499 . S
C554 C555 1.373 . S
C554 C556 1.389 . S
C555 H534 0.961 . S
C555 C554 1.373 . S
C555 C571 1.377 1_455 S
C556 C554 1.389 . S
C556 C557 1.524 . S
C556 C570 1.377 . S
C557 C556 1.524 . S
C557 C558 1.397 . S
C557 C562 1.363 . S
C558 H535 0.950 . S
C558 C557 1.397 . S
C558 C559 1.334 . S
C559 H536 0.950 . S
C559 C558 1.334 . S
C559 C560 1.287 . S
C560 C559 1.287 . S
C560 C561 1.524 . S
C560 H579 0.913 . S
C561 H537 0.950 . S
C561 C560 1.524 . S
C561 C562 1.415 . S
C562 H538 0.950 . S
C562 C557 1.363 . S
C562 C561 1.415 . S
C563 H539 0.951 . S
C563 C564 1.366 . S
C563 C565 1.388 . S
C564 C563 1.366 . S
C564 C568 1.385 . S
C565 H540 0.951 . S
C565 C563 1.388 . S
C565 C566 1.366 . S
C566 C565 1.366 . S
C566 C567 1.414 . S
C566 C569 1.499 . S
C567 H541 0.950 1_655 S
C567 C566 1.414 . S
C567 C568 1.374 . S
C568 H542 0.950 . S
C568 C564 1.385 . S
C568 C567 1.374 . S
C569 C566 1.499 . S
C569 C570 1.373 1_655 S
C569 C571 1.389 . S
C570 H543 0.950 . S
C570 C556 1.377 . S
C570 C569 1.373 1_455 S
C571 C555 1.377 1_655 S
C571 C569 1.389 . S
C571 C572 1.524 . S
C572 C571 1.524 . S
C572 C573 1.397 . S
C572 C577 1.363 . S
C573 H544 0.950 . S
C573 C572 1.397 . S
C573 C574 1.334 . S
C574 H545 0.950 . S
C574 C573 1.334 . S
C574 C575 1.287 . S
C575 C574 1.287 . S
C575 C576 1.524 . S
C575 H578 0.999 . S
C576 H546 0.950 . S
C576 C575 1.524 . S
C576 C577 1.415 . S
C577 H547 0.950 . S
C577 C572 1.363 . S
C577 C576 1.415 . S
H578 C575 0.999 . S
H579 C560 0.913 . S
H580 C598 0.951 . S
H581 C600 0.951 . S
H582 C602 0.950 . S
H583 C603 0.950 . S
H584 C605 0.950 . S
H585 C608 0.950 . S
H586 C609 0.950 . S
H587 C611 0.950 . S
H588 C612 0.950 . S
H589 C613 0.951 . S
H590 C615 0.951 . S
H591 C617 0.950 . S
H592 C618 0.950 . S
H593 C620 0.950 1_545 S
H594 C623 0.950 . S
H595 C624 0.950 . S
H596 C626 0.950 . S
H597 C627 0.950 . S
C598 H580 0.951 . S
C598 C599 1.366 . S
C598 C600 1.388 . S
C599 C598 1.366 . S
C599 C603 1.385 . S
C600 H581 0.951 . S
C600 C598 1.388 . S
C600 C601 1.366 . S
C601 C600 1.366 . S
C601 C602 1.414 . S
C601 C604 1.473 1_545 S
C602 H582 0.950 . S
C602 C601 1.414 . S
C602 C603 1.374 . S
C603 H583 0.950 . S
C603 C599 1.385 . S
C603 C602 1.374 . S
C604 C601 1.473 1_565 S
C604 C605 1.399 . S
C604 C606 1.390 1_565 S
C605 H584 0.950 . S
C605 C604 1.399 . S
C605 C621 1.377 . S
C606 C604 1.390 1_545 S
C606 C607 1.524 . S
C606 C620 1.377 1_545 S
C607 C606 1.524 . S
C607 C608 1.397 . S
C607 C612 1.363 . S
C608 H585 0.950 . S
C608 C607 1.397 . S
C608 C609 1.334 . S
C609 H586 0.950 . S
C609 C608 1.334 . S
C609 C610 1.287 . S
C610 C609 1.287 . S
C610 C611 1.524 . S
C610 H629 0.913 . S
C611 H587 0.950 . S
C611 C610 1.524 . S
C611 C612 1.415 . S
C612 H588 0.950 . S
C612 C607 1.363 . S
C612 C611 1.415 . S
C613 H589 0.951 . S
C613 C614 1.366 . S
C613 C615 1.388 . S
C614 C613 1.366 . S
C614 C618 1.385 . S
C615 H590 0.951 . S
C615 C613 1.388 . S
C615 C616 1.366 . S
C616 C615 1.366 . S
C616 C617 1.414 . S
C616 C619 1.499 . S
C617 H591 0.950 . S
C617 C616 1.414 . S
C617 C618 1.374 . S
C618 H592 0.950 . S
C618 C614 1.385 . S
C618 C617 1.374 . S
C619 C616 1.499 . S
C619 C620 1.373 . S
C619 C621 1.389 . S
C620 H593 0.950 1_565 S
C620 C606 1.377 1_565 S
C620 C619 1.373 . S
C621 C605 1.377 . S
C621 C619 1.389 . S
C621 C622 1.524 . S
C622 C621 1.524 . S
C622 C623 1.397 . S
C622 C627 1.363 . S
C623 H594 0.950 . S
C623 C622 1.397 . S
C623 C624 1.334 . S
C624 H595 0.950 . S
C624 C623 1.334 . S
C624 C625 1.287 . S
C625 C624 1.287 . S
C625 C626 1.524 . S
C625 H628 0.999 . S
C626 H596 0.950 . S
C626 C625 1.524 . S
C626 C627 1.415 . S
C627 H597 0.950 . S
C627 C622 1.363 . S
C627 C626 1.415 . S
H628 C625 0.999 . S
H629 C610 0.913 . S
H630 C648 0.951 . S
H631 C650 0.951 . S
H632 C652 0.950 . S
H633 C653 0.950 . S
H634 C655 0.950 . S
H635 C658 0.950 . S
H636 C659 0.950 . S
H637 C661 0.950 . S
H638 C662 0.950 . S
H639 C663 0.951 . S
H640 C665 0.951 . S
H641 C667 0.950 . S
H642 C668 0.950 . S
H643 C670 0.950 . S
H644 C673 0.950 . S
H645 C674 0.950 . S
H646 C676 0.950 . S
H647 C677 0.950 . S
C648 H630 0.951 . S
C648 C649 1.366 . S
C648 C650 1.388 . S
C649 C648 1.366 . S
C649 C653 1.385 . S
C650 H631 0.951 . S
C650 C648 1.388 . S
C650 C651 1.366 . S
C651 C650 1.366 . S
C651 C652 1.414 . S
C651 C654 1.499 . S
C652 H632 0.950 . S
C652 C651 1.414 . S
C652 C653 1.374 . S
C653 H633 0.950 . S
C653 C649 1.385 . S
C653 C652 1.374 . S
C654 C651 1.499 . S
C654 C655 1.373 . S
C654 C656 1.389 . S
C655 H634 0.950 . S
C655 C654 1.373 . S
C655 C671 1.377 . S
C656 C654 1.389 . S
C656 C657 1.524 . S
C656 C670 1.377 . S
C657 C656 1.524 . S
C657 C658 1.397 . S
C657 C662 1.363 . S
C658 H635 0.950 . S
C658 C657 1.397 . S
C658 C659 1.334 . S
C659 H636 0.950 . S
C659 C658 1.334 . S
C659 C660 1.287 . S
C660 C659 1.287 . S
C660 C661 1.524 . S
C660 H679 0.913 . S
C661 H637 0.950 . S
C661 C660 1.524 . S
C661 C662 1.415 . S
C662 H638 0.950 . S
C662 C657 1.363 . S
C662 C661 1.415 . S
C663 H639 0.951 . S
C663 C664 1.366 . S
C663 C665 1.388 . S
C664 C663 1.366 . S
C664 C668 1.385 . S
C665 H640 0.951 . S
C665 C663 1.388 . S
C665 C666 1.366 . S
C666 C665 1.366 . S
C666 C667 1.414 . S
C666 C669 1.499 . S
C667 H641 0.950 . S
C667 C666 1.414 . S
C667 C668 1.374 . S
C668 H642 0.950 . S
C668 C664 1.385 . S
C668 C667 1.374 . S
C669 C666 1.499 . S
C669 C670 1.373 . S
C669 C671 1.389 . S
C670 H643 0.950 . S
C670 C656 1.377 . S
C670 C669 1.373 . S
C671 C655 1.377 . S
C671 C669 1.389 . S
C671 C672 1.524 . S
C672 C671 1.524 . S
C672 C673 1.397 . S
C672 C677 1.363 . S
C673 H644 0.950 . S
C673 C672 1.397 . S
C673 C674 1.334 . S
C674 H645 0.950 . S
C674 C673 1.334 . S
C674 C675 1.287 . S
C675 C674 1.287 . S
C675 C676 1.524 . S
C675 H678 0.999 . S
C676 H646 0.950 . S
C676 C675 1.524 . S
C676 C677 1.415 . S
C677 H647 0.950 . S
C677 C672 1.363 . S
C677 C676 1.415 . S
H678 C675 0.999 . S
H679 C660 0.913 . S
H680 C698 0.951 . S
H681 C700 0.942 1_655 S
H682 C702 0.950 . S
H683 C703 0.950 . S
H684 C705 0.950 . S
H685 C708 0.950 . S
H686 C709 0.950 1_556 S
H687 C711 0.950 . S
H688 C712 0.950 . S
H689 C713 0.951 . S
H690 C715 0.951 . S
H691 C717 0.950 . S
H692 C718 0.950 . S
H693 C720 0.950 . S
H694 C723 0.950 . S
H695 C724 0.950 1_655 S
H696 C726 0.950 . S
H697 C727 0.950 . S
C698 H680 0.951 . S
C698 C699 1.366 . S
C698 C700 1.396 . S
C699 C698 1.366 . S
C699 C703 1.385 . S
C700 H681 0.942 1_455 S
C700 C698 1.396 . S
C700 C701 1.366 . S
C701 C700 1.366 . S
C701 C702 1.414 . S
C701 C704 1.499 1_455 S
C702 H682 0.950 . S
C702 C701 1.414 . S
C702 C703 1.374 . S
C703 H683 0.950 . S
C703 C699 1.385 . S
C703 C702 1.374 . S
C704 C701 1.499 1_655 S
C704 C705 1.373 1_655 S
C704 C706 1.389 . S
C705 H684 0.950 . S
C705 C704 1.373 1_455 S
C705 C721 1.377 1_455 S
C706 C704 1.389 . S
C706 C707 1.524 . S
C706 C720 1.377 . S
C707 C706 1.524 . S
C707 C708 1.397 . S
C707 C712 1.363 . S
C708 H685 0.950 . S
C708 C707 1.397 . S
C708 C709 1.334 . S
C709 H686 0.950 1_554 S
C709 C708 1.334 . S
C709 C710 1.287 . S
C710 C709 1.287 . S
C710 C711 1.524 . S
C710 H729 0.913 . S
C711 H687 0.950 . S
C711 C710 1.524 . S
C711 C712 1.415 . S
C712 H688 0.950 . S
C712 C707 1.363 . S
C712 C711 1.415 . S
C713 H689 0.951 . S
C713 C714 1.366 . S
C713 C715 1.388 . S
C714 C713 1.366 . S
C714 C718 1.385 . S
C715 H690 0.951 . S
C715 C713 1.388 . S
C715 C716 1.366 . S
C716 C715 1.366 . S
C716 C717 1.414 . S
C716 C719 1.499 . S
C717 H691 0.950 . S
C717 C716 1.414 . S
C717 C718 1.374 . S
C718 H692 0.950 . S
C718 C714 1.385 . S
C718 C717 1.374 . S
C719 C716 1.499 . S
C719 C720 1.373 . S
C719 C721 1.389 . S
C720 H693 0.950 . S
C720 C706 1.377 . S
C720 C719 1.373 . S
C721 C705 1.377 1_655 S
C721 C719 1.389 . S
C721 C722 1.524 1_655 S
C722 C721 1.524 1_455 S
C722 C723 1.397 1_455 S
C722 C727 1.363 . S
C723 H694 0.950 . S
C723 C722 1.397 1_655 S
C723 C724 1.334 1_655 S
C724 H695 0.950 1_455 S
C724 C723 1.334 1_455 S
C724 C725 1.287 . S
C725 C724 1.287 . S
C725 C726 1.524 . S
C725 H728 0.999 . S
C726 H696 0.950 . S
C726 C725 1.524 . S
C726 C727 1.415 . S
C727 H697 0.950 . S
C727 C722 1.363 . S
C727 C726 1.415 . S
H728 C725 0.999 . S
H729 C710 0.913 . S
H730 C748 0.951 . S
H731 C750 0.951 . S
H732 C752 0.950 1_545 S
H733 C753 0.950 . S
H734 C755 0.950 . S
H735 C758 0.950 . S
H736 C759 0.950 . S
H737 C761 0.950 . S
H738 C762 0.950 . S
H739 C763 0.951 . S
H740 C765 0.951 . S
H741 C767 0.950 . S
H742 C768 0.950 . S
H743 C770 0.950 . S
H744 C773 0.950 . S
H745 C774 0.950 . S
H746 C776 0.950 . S
H747 C777 0.950 . S
C748 H730 0.951 . S
C748 C749 1.366 . S
C748 C750 1.388 . S
C749 C748 1.366 . S
C749 C753 1.385 . S
C750 H731 0.951 . S
C750 C748 1.388 . S
C750 C751 1.366 . S
C751 C750 1.366 . S
C751 C752 1.414 . S
C751 C754 1.499 . S
C752 H732 0.950 1_565 S
C752 C751 1.414 . S
C752 C753 1.374 . S
C753 H733 0.950 . S
C753 C749 1.385 . S
C753 C752 1.374 . S
C754 C751 1.499 . S
C754 C755 1.373 1_565 S
C754 C756 1.389 . S
C755 H734 0.950 . S
C755 C754 1.373 1_545 S
C755 C771 1.377 . S
C756 C754 1.389 . S
C756 C757 1.524 . S
C756 C770 1.377 . S
C757 C756 1.524 . S
C757 C758 1.397 . S
C757 C762 1.363 . S
C758 H735 0.950 . S
C758 C757 1.397 . S
C758 C759 1.334 . S
C759 H736 0.950 . S
C759 C758 1.334 . S
C759 C760 1.287 . S
C760 C759 1.287 . S
C760 C761 1.524 . S
C760 H779 0.913 . S
C761 H737 0.950 . S
C761 C760 1.524 . S
C761 C762 1.415 . S
C762 H738 0.950 . S
C762 C757 1.363 . S
C762 C761 1.415 . S
C763 H739 0.951 . S
C763 C764 1.366 . S
C763 C765 1.388 . S
C764 C763 1.366 . S
C764 C768 1.385 . S
C765 H740 0.951 . S
C765 C763 1.388 . S
C765 C766 1.366 . S
C766 C765 1.366 . S
C766 C767 1.414 . S
C766 C769 1.499 . S
C767 H741 0.950 . S
C767 C766 1.414 . S
C767 C768 1.374 . S
C768 H742 0.950 . S
C768 C764 1.385 . S
C768 C767 1.374 . S
C769 C766 1.499 . S
C769 C770 1.373 1_545 S
C769 C771 1.389 . S
C770 H743 0.950 . S
C770 C756 1.377 . S
C770 C769 1.373 1_565 S
C771 C755 1.377 . S
C771 C769 1.389 . S
C771 C772 1.524 . S
C772 C771 1.524 . S
C772 C773 1.397 . S
C772 C777 1.363 . S
C773 H744 0.950 . S
C773 C772 1.397 . S
C773 C774 1.334 . S
C774 H745 0.950 . S
C774 C773 1.334 . S
C774 C775 1.287 . S
C775 C774 1.287 . S
C775 C776 1.524 . S
C775 H778 0.999 . S
C776 H746 0.950 . S
C776 C775 1.524 . S
C776 C777 1.415 . S
C777 H747 0.950 . S
C777 C772 1.363 . S
C777 C776 1.415 . S
H778 C775 0.999 . S
H779 C760 0.913 . S
H780 C798 0.951 . S
H781 C800 0.951 . S
H782 C802 0.950 . S
H783 C803 0.950 . S
H784 C805 0.950 . S
H785 C808 0.950 . S
H786 C809 0.950 . S
H787 C811 0.950 . S
H788 C812 0.950 . S
H789 C813 0.951 . S
H790 C815 0.951 . S
H791 C817 0.950 . S
H792 C818 0.950 . S
H793 C820 0.950 . S
H794 C823 0.950 . S
H795 C824 0.950 . S
H796 C826 0.950 . S
H797 C827 0.950 . S
C798 H780 0.951 . S
C798 C799 1.366 . S
C798 C800 1.388 . S
C799 C798 1.366 . S
C799 C803 1.385 . S
C800 H781 0.951 . S
C800 C798 1.388 . S
C800 C801 1.366 . S
C801 C800 1.366 . S
C801 C802 1.414 . S
C801 C804 1.499 . S
C802 H782 0.950 . S
C802 C801 1.414 . S
C802 C803 1.374 . S
C803 H783 0.950 . S
C803 C799 1.385 . S
C803 C802 1.374 . S
C804 C801 1.499 . S
C804 C805 1.373 . S
C804 C806 1.389 . S
C805 H784 0.950 . S
C805 C804 1.373 . S
C805 C821 1.377 . S
C806 C804 1.389 . S
C806 C807 1.524 . S
C806 C820 1.377 . S
C807 C806 1.524 . S
C807 C808 1.397 . S
C807 C812 1.363 . S
C808 H785 0.950 . S
C808 C807 1.397 . S
C808 C809 1.334 . S
C809 H786 0.950 . S
C809 C808 1.334 . S
C809 C810 1.287 . S
C810 C809 1.287 . S
C810 C811 1.524 . S
C810 H829 0.913 . S
C811 H787 0.950 . S
C811 C810 1.524 . S
C811 C812 1.415 . S
C812 H788 0.950 . S
C812 C807 1.363 . S
C812 C811 1.415 . S
C813 H789 0.951 . S
C813 C814 1.366 1_556 S
C813 C815 1.388 . S
C814 C813 1.366 1_554 S
C814 C818 1.385 . S
C815 H790 0.951 . S
C815 C813 1.388 . S
C815 C816 1.366 . S
C816 C815 1.366 . S
C816 C817 1.414 . S
C816 C819 1.499 . S
C817 H791 0.950 . S
C817 C816 1.414 . S
C817 C818 1.374 1_556 S
C818 H792 0.950 . S
C818 C814 1.385 . S
C818 C817 1.374 1_554 S
C819 C816 1.499 . S
C819 C820 1.373 . S
C819 C821 1.389 . S
C820 H793 0.950 . S
C820 C806 1.377 . S
C820 C819 1.373 . S
C821 C805 1.377 . S
C821 C819 1.389 . S
C821 C822 1.524 . S
C822 C821 1.524 . S
C822 C823 1.397 . S
C822 C827 1.363 . S
C823 H794 0.950 . S
C823 C822 1.397 . S
C823 C824 1.334 . S
C824 H795 0.950 . S
C824 C823 1.334 . S
C824 C825 1.287 . S
C825 C824 1.287 . S
C825 C826 1.524 . S
C825 H828 0.999 . S
C826 H796 0.950 . S
C826 C825 1.524 . S
C826 C827 1.415 . S
C827 H797 0.950 . S
C827 C822 1.363 . S
C827 C826 1.415 . S
H828 C825 0.999 . S
H829 C810 0.913 . S
H830 C848 0.951 . S
H831 C850 0.951 . S
H832 C852 0.950 . S
H833 C853 0.950 . S
H834 C855 0.950 . S
H835 C858 0.950 . S
H836 C859 0.950 . S
H837 C861 0.950 . S
H838 C862 0.950 . S
H839 C863 0.951 . S
H840 C865 0.951 . S
H841 C867 0.950 . S
H842 C868 0.950 . S
H843 C870 0.950 . S
H844 C873 0.950 . S
H845 C874 0.950 . S
H846 C876 0.950 . S
H847 C877 0.950 . S
C848 H830 0.951 . S
C848 C849 1.366 . S
C848 C850 1.388 . S
C849 C848 1.366 . S
C849 C853 1.385 . S
C850 H831 0.951 . S
C850 C848 1.388 . S
C850 C851 1.366 . S
C851 C850 1.366 . S
C851 C852 1.414 . S
C851 C854 1.499 . S
C852 H832 0.950 . S
C852 C851 1.414 . S
C852 C853 1.374 . S
C853 H833 0.950 . S
C853 C849 1.385 . S
C853 C852 1.374 . S
C854 C851 1.499 . S
C854 C855 1.373 . S
C854 C856 1.389 1_655 S
C855 H834 0.950 . S
C855 C854 1.373 . S
C855 C871 1.377 . S
C856 C854 1.389 1_455 S
C856 C857 1.524 . S
C856 C870 1.377 . S
C857 C856 1.524 . S
C857 C858 1.397 . S
C857 C862 1.363 . S
C858 H835 0.950 . S
C858 C857 1.397 . S
C858 C859 1.334 . S
C859 H836 0.950 . S
C859 C858 1.334 . S
C859 C860 1.287 . S
C860 C859 1.287 . S
C860 C861 1.524 . S
C860 H879 0.913 . S
C861 H837 0.950 . S
C861 C860 1.524 . S
C861 C862 1.415 . S
C862 H838 0.950 . S
C862 C857 1.363 . S
C862 C861 1.415 . S
C863 H839 0.951 . S
C863 C864 1.366 . S
C863 C865 1.388 . S
C864 C863 1.366 . S
C864 C868 1.385 . S
C865 H840 0.951 . S
C865 C863 1.388 . S
C865 C866 1.366 . S
C866 C865 1.366 . S
C866 C867 1.414 . S
C866 C869 1.499 . S
C867 H841 0.950 . S
C867 C866 1.414 . S
C867 C868 1.374 . S
C868 H842 0.950 . S
C868 C864 1.385 . S
C868 C867 1.374 . S
C869 C866 1.499 . S
C869 C870 1.373 . S
C869 C871 1.389 1_455 S
C870 H843 0.950 . S
C870 C856 1.377 . S
C870 C869 1.373 . S
C871 C855 1.377 . S
C871 C869 1.389 1_655 S
C871 C872 1.524 . S
C872 C871 1.524 . S
C872 C873 1.397 . S
C872 C877 1.363 . S
C873 H844 0.950 . S
C873 C872 1.397 . S
C873 C874 1.334 . S
C874 H845 0.950 . S
C874 C873 1.334 . S
C874 C875 1.287 . S
C875 C874 1.287 . S
C875 C876 1.524 . S
C875 H878 0.999 . S
C876 H846 0.950 . S
C876 C875 1.524 . S
C876 C877 1.415 . S
C877 H847 0.950 . S
C877 C872 1.363 . S
C877 C876 1.415 . S
H878 C875 0.999 . S
H879 C860 0.913 . S
H880 C898 0.951 . S
H881 C900 0.951 . S
H882 C902 0.950 . S
H883 C903 0.950 . S
H884 C905 0.950 . S
H885 C908 0.950 . S
H886 C909 0.950 . S
H887 C911 0.950 . S
H888 C912 0.950 . S
H889 C913 0.951 . S
H890 C915 0.951 . S
H891 C917 0.950 . S
H892 C918 0.950 . S
H893 C920 0.950 . S
H894 C923 0.950 . S
H895 C924 0.950 . S
H896 C926 0.950 . S
H897 C927 0.950 . S
C898 H880 0.951 . S
C898 C899 1.366 . S
C898 C900 1.388 . S
C899 C898 1.366 . S
C899 C903 1.385 . S
C900 H881 0.951 . S
C900 C898 1.388 . S
C900 C901 1.366 . S
C901 C900 1.366 . S
C901 C902 1.414 . S
C901 C904 1.499 . S
C902 H882 0.950 . S
C902 C901 1.414 . S
C902 C903 1.374 . S
C903 H883 0.950 . S
C903 C899 1.385 . S
C903 C902 1.374 . S
C904 C901 1.499 . S
C904 C905 1.373 . S
C904 C906 1.389 1_565 S
C905 H884 0.950 . S
C905 C904 1.373 . S
C905 C921 1.377 . S
C906 C904 1.389 1_545 S
C906 C907 1.524 . S
C906 C920 1.377 . S
C907 C906 1.524 . S
C907 C908 1.397 . S
C907 C912 1.363 . S
C908 H885 0.950 . S
C908 C907 1.397 . S
C908 C909 1.334 . S
C909 H886 0.950 . S
C909 C908 1.334 . S
C909 C910 1.287 . S
C910 C909 1.287 . S
C910 C911 1.524 . S
C910 H929 0.913 . S
C911 H887 0.950 . S
C911 C910 1.524 . S
C911 C912 1.415 . S
C912 H888 0.950 . S
C912 C907 1.363 . S
C912 C911 1.415 . S
C913 H889 0.951 . S
C913 C914 1.366 . S
C913 C915 1.388 . S
C914 C913 1.366 . S
C914 C918 1.385 . S
C915 H890 0.951 . S
C915 C913 1.388 . S
C915 C916 1.366 . S
C916 C915 1.366 . S
C916 C917 1.414 . S
C916 C919 1.499 . S
C917 H891 0.950 . S
C917 C916 1.414 . S
C917 C918 1.374 . S
C918 H892 0.950 . S
C918 C914 1.385 . S
C918 C917 1.374 . S
C919 C916 1.499 . S
C919 C920 1.373 . S
C919 C921 1.389 1_545 S
C920 H893 0.950 . S
C920 C906 1.377 . S
C920 C919 1.373 . S
C921 C905 1.377 . S
C921 C919 1.389 1_565 S
C921 C922 1.524 . S
C922 C921 1.524 . S
C922 C923 1.397 . S
C922 C927 1.363 . S
C923 H894 0.950 . S
C923 C922 1.397 . S
C923 C924 1.334 . S
C924 H895 0.950 . S
C924 C923 1.334 . S
C924 C925 1.287 . S
C925 C924 1.287 . S
C925 C926 1.524 . S
C925 H928 0.999 . S
C926 H896 0.950 . S
C926 C925 1.524 . S
C926 C927 1.415 . S
C927 H897 0.950 . S
C927 C922 1.363 . S
C927 C926 1.415 . S
H928 C925 0.999 . S
H929 C910 0.913 . S
H930 C948 0.951 . S
H931 C950 0.951 . S
H932 C952 0.950 . S
H933 C953 0.950 . S
H934 C955 0.950 . S
H935 C958 0.950 . S
H936 C959 0.950 . S
H937 C961 0.950 . S
H938 C962 0.950 . S
H939 C963 0.951 . S
H940 C965 0.951 . S
H941 C967 0.950 . S
H942 C968 0.950 . S
H943 C970 0.950 . S
H944 C973 0.950 . S
H945 C974 0.950 1_554 S
H946 C976 0.950 1_554 S
H947 C977 0.950 . S
C948 H930 0.951 . S
C948 C949 1.366 . S
C948 C950 1.388 . S
C949 C948 1.366 . S
C949 C953 1.385 . S
C950 H931 0.951 . S
C950 C948 1.388 . S
C950 C951 1.366 . S
C951 C950 1.366 . S
C951 C952 1.414 . S
C951 C954 1.499 . S
C952 H932 0.950 . S
C952 C951 1.414 . S
C952 C953 1.374 . S
C953 H933 0.950 . S
C953 C949 1.385 . S
C953 C952 1.374 . S
C954 C951 1.499 . S
C954 C955 1.373 . S
C954 C956 1.389 . S
C955 H934 0.950 . S
C955 C954 1.373 . S
C955 C971 1.377 . S
C956 C954 1.389 . S
C956 C957 1.524 . S
C956 C970 1.377 . S
C957 C956 1.524 . S
C957 C958 1.397 . S
C957 C962 1.363 . S
C958 H935 0.950 . S
C958 C957 1.397 . S
C958 C959 1.334 . S
C959 H936 0.950 . S
C959 C958 1.334 . S
C959 C960 1.287 . S
C960 C959 1.287 . S
C960 C961 1.524 . S
C960 H979 0.913 . S
C961 H937 0.950 . S
C961 C960 1.524 . S
C961 C962 1.415 . S
C962 H938 0.950 . S
C962 C957 1.363 . S
C962 C961 1.415 . S
C963 H939 0.951 . S
C963 C964 1.366 . S
C963 C965 1.388 1_554 S
C964 C963 1.366 . S
C964 C968 1.385 1_554 S
C965 H940 0.951 . S
C965 C963 1.388 1_556 S
C965 C966 1.366 . S
C966 C965 1.366 . S
C966 C967 1.414 . S
C966 C969 1.499 . S
C967 H941 0.950 . S
C967 C966 1.414 . S
C967 C968 1.374 . S
C968 H942 0.950 . S
C968 C964 1.385 1_556 S
C968 C967 1.374 . S
C969 C966 1.499 . S
C969 C970 1.373 . S
C969 C971 1.389 . S
C970 H943 0.950 . S
C970 C956 1.377 . S
C970 C969 1.373 . S
C971 C955 1.377 . S
C971 C969 1.389 . S
C971 C972 1.524 . S
C972 C971 1.524 . S
C972 C973 1.397 . S
C972 C977 1.363 . S
C973 H944 0.950 . S
C973 C972 1.397 . S
C973 C974 1.334 . S
C974 H945 0.950 1_556 S
C974 C973 1.334 . S
C974 C975 1.287 1_556 S
C975 C974 1.287 1_554 S
C975 C976 1.524 1_554 S
C975 H978 0.999 . S
C976 H946 0.950 1_556 S
C976 C975 1.524 1_556 S
C976 C977 1.415 . S
C977 H947 0.950 . S
C977 C972 1.363 . S
C977 C976 1.415 . S
H978 C975 0.999 . S
H979 C960 0.913 . S
H980 C998 0.951 . S
H981 C1000 0.951 . S
H982 C1002 0.950 . S
H983 C1003 0.950 . S
H984 C1005 0.950 . S
H985 C1008 0.950 . S
H986 C1009 0.950 . S
H987 C1011 0.950 . S
H988 C1012 0.950 . S
H989 C1013 0.951 . S
H990 C1015 0.951 . S
H991 C1017 0.950 . S
H992 C1018 0.950 . S
H993 C1020 0.950 . S
H994 C1023 0.950 . S
H995 C1024 0.950 . S
H996 C1026 0.950 . S
H997 C1027 0.950 . S
C998 H980 0.951 . S
C998 C999 1.366 . S
C998 C1000 1.388 . S
C999 C998 1.366 . S
C999 C1003 1.385 . S
C1000 H981 0.951 . S
C1000 C998 1.388 . S
C1000 C1001 1.366 . S
C1001 C1000 1.366 . S
C1001 C1002 1.414 . S
C1001 C1004 1.499 . S
C1002 H982 0.950 . S
C1002 C1001 1.414 . S
C1002 C1003 1.374 . S
C1003 H983 0.950 . S
C1003 C999 1.385 . S
C1003 C1002 1.374 . S
C1004 C1001 1.499 . S
C1004 C1005 1.373 1_455 S
C1004 C1006 1.389 . S
C1005 H984 0.950 . S
C1005 C1004 1.373 1_655 S
C1005 C1021 1.377 . S
C1006 C1004 1.389 . S
C1006 C1007 1.524 . S
C1006 C1020 1.377 . S
C1007 C1006 1.524 . S
C1007 C1008 1.397 . S
C1007 C1012 1.363 . S
C1008 H985 0.950 . S
C1008 C1007 1.397 . S
C1008 C1009 1.334 . S
C1009 H986 0.950 . S
C1009 C1008 1.334 . S
C1009 C1010 1.287 . S
C1010 C1009 1.287 . S
C1010 C1011 1.524 . S
C1010 H1029 0.913 . S
C1011 H987 0.950 . S
C1011 C1010 1.524 . S
C1011 C1012 1.415 . S
C1012 H988 0.950 . S
C1012 C1007 1.363 . S
C1012 C1011 1.415 . S
C1013 H989 0.951 . S
C1013 C1014 1.366 . S
C1013 C1015 1.388 . S
C1014 C1013 1.366 . S
C1014 C1018 1.385 . S
C1015 H990 0.951 . S
C1015 C1013 1.388 . S
C1015 C1016 1.366 . S
C1016 C1015 1.366 . S
C1016 C1017 1.414 . S
C1016 C1019 1.499 . S
C1017 H991 0.950 . S
C1017 C1016 1.414 . S
C1017 C1018 1.374 . S
C1018 H992 0.950 . S
C1018 C1014 1.385 . S
C1018 C1017 1.374 . S
C1019 C1016 1.499 . S
C1019 C1020 1.373 1_655 S
C1019 C1021 1.389 . S
C1020 H993 0.950 . S
C1020 C1006 1.377 . S
C1020 C1019 1.373 1_455 S
C1021 C1005 1.377 . S
C1021 C1019 1.389 . S
C1021 C1022 1.524 . S
C1022 C1021 1.524 . S
C1022 C1023 1.397 . S
C1022 C1027 1.363 . S
C1023 H994 0.950 . S
C1023 C1022 1.397 . S
C1023 C1024 1.334 . S
C1024 H995 0.950 . S
C1024 C1023 1.334 . S
C1024 C1025 1.287 . S
C1025 C1024 1.287 . S
C1025 C1026 1.524 . S
C1025 H1028 0.999 . S
C1026 H996 0.950 . S
C1026 C1025 1.524 . S
C1026 C1027 1.415 . S
C1027 H997 0.950 . S
C1027 C1022 1.363 . S
C1027 C1026 1.415 . S
H1028 C1025 0.999 . S
H1029 C1010 0.913 . S
H1030 C1048 0.951 . S
H1031 C1050 0.951 . S
H1032 C1052 0.950 . S
H1033 C1053 0.950 . S
H1034 C1055 0.950 . S
H1035 C1058 0.950 . S
H1036 C1059 0.950 . S
H1037 C1061 0.950 . S
H1038 C1062 0.950 1_565 S
H1039 C1063 0.951 . S
H1040 C1065 0.951 . S
H1041 C1067 0.950 . S
H1042 C1068 0.950 . S
H1043 C1070 0.950 . S
H1044 C1073 0.950 . S
H1045 C1074 0.950 . S
H1046 C1076 0.950 . S
H1047 C1077 0.950 1_545 S
C1048 H1030 0.951 . S
C1048 C1049 1.366 . S
C1048 C1050 1.388 . S
C1049 C1048 1.366 . S
C1049 C1053 1.385 . S
C1050 H1031 0.951 . S
C1050 C1048 1.388 . S
C1050 C1051 1.366 . S
C1051 C1050 1.366 . S
C1051 C1052 1.414 . S
C1051 C1054 1.499 . S
C1052 H1032 0.950 . S
C1052 C1051 1.414 . S
C1052 C1053 1.374 . S
C1053 H1033 0.950 . S
C1053 C1049 1.385 . S
C1053 C1052 1.374 . S
C1054 C1051 1.499 . S
C1054 C1055 1.373 . S
C1054 C1056 1.389 . S
C1055 H1034 0.950 . S
C1055 C1054 1.373 . S
C1055 C1071 1.377 1_545 S
C1056 C1054 1.389 . S
C1056 C1057 1.524 . S
C1056 C1070 1.377 1_545 S
C1057 C1056 1.524 . S
C1057 C1058 1.397 . S
C1057 C1062 1.363 . S
C1058 H1035 0.950 . S
C1058 C1057 1.397 . S
C1058 C1059 1.334 . S
C1059 H1036 0.950 . S
C1059 C1058 1.334 . S
C1059 C1060 1.287 . S
C1060 C1059 1.287 . S
C1060 C1061 1.524 . S
C1060 H1079 0.913 . S
C1061 H1037 0.950 . S
C1061 C1060 1.524 . S
C1061 C1062 1.415 . S
C1062 H1038 0.950 1_545 S
C1062 C1057 1.363 . S
C1062 C1061 1.415 . S
C1063 H1039 0.951 . S
C1063 C1064 1.366 . S
C1063 C1065 1.388 . S
C1064 C1063 1.366 . S
C1064 C1068 1.385 . S
C1065 H1040 0.951 . S
C1065 C1063 1.388 . S
C1065 C1066 1.366 . S
C1066 C1065 1.366 . S
C1066 C1067 1.414 . S
C1066 C1069 1.499 . S
C1067 H1041 0.950 . S
C1067 C1066 1.414 . S
C1067 C1068 1.374 . S
C1068 H1042 0.950 . S
C1068 C1064 1.385 . S
C1068 C1067 1.374 . S
C1069 C1066 1.499 . S
C1069 C1070 1.373 . S
C1069 C1071 1.389 . S
C1070 H1043 0.950 . S
C1070 C1056 1.377 1_565 S
C1070 C1069 1.373 . S
C1071 C1055 1.377 1_565 S
C1071 C1069 1.389 . S
C1071 C1072 1.524 . S
C1072 C1071 1.524 . S
C1072 C1073 1.397 . S
C1072 C1077 1.363 . S
C1073 H1044 0.950 . S
C1073 C1072 1.397 . S
C1073 C1074 1.334 . S
C1074 H1045 0.950 . S
C1074 C1073 1.334 . S
C1074 C1075 1.287 . S
C1075 C1074 1.287 . S
C1075 C1076 1.524 . S
C1075 H1078 0.999 . S
C1076 H1046 0.950 . S
C1076 C1075 1.524 . S
C1076 C1077 1.415 . S
C1077 H1047 0.950 1_565 S
C1077 C1072 1.363 . S
C1077 C1076 1.415 . S
H1078 C1075 0.999 . S
H1079 C1060 0.913 . S
C199 C147 0.669 . S
C214 N6 0.673 . S
C249 N156 0.672 . S
C264 C57 0.668 . S
C299 C27 0.668 . S
C314 N66 0.672 . S
C349 N36 0.673 . S
C364 C117 0.669 . S
C399 C87 0.668 . S
C414 N126 0.672 . S
C449 N96 0.672 . S
C464 C177 0.668 . S
C499 C1 1.056 . S
C514 C100 1.056 . S
C549 C121 1.057 . S
C564 C40 1.055 . S
C599 C160 1.057 . S
C614 C61 1.057 . S
C649 C70 1.056 . S
C664 C151 1.058 . S
C699 C10 1.055 . S
C714 C91 1.057 . S
C749 C130 1.057 . S
C764 C31 1.057 . S
C799 N164 0.498 . S
C814 N14 0.499 . S
C849 C46 0.546 . S
C864 C16 0.547 . S
C899 N74 0.498 . S
C914 N44 0.497 . S
C949 C76 0.547 . S
C964 C106 0.545 . S
C999 N134 0.499 . S
C1014 N104 0.499 . S
C1049 C166 0.547 . S
C1064 C136 0.545 . S
