# Generated by pormake.
# Topology oof, (8)-cn, num edge types: 1
# Building blocks:
#     Node 0, Type 0, BuildingBlock: VETTIZ_charged_sbu_0, # of connection points: 8
#     Node 1, Type 0, BuildingBlock: VETTIZ_charged_sbu_0, # of connection points: 8
#     Node 2, Type 0, BuildingBlock: VETTIZ_charged_sbu_0, # of connection points: 8
#     Node 3, Type 0, BuildingBlock: VETTIZ_charged_sbu_0, # of connection points: 8
#     Edge 4, Type (0, 0), BuildingBlock: FUNLAD_clean_linker_1, # of connection points: 2
#     Edge 5, Type (0, 0), BuildingBlock: FUNLAD_clean_linker_1, # of connection points: 2
#     Edge 6, Type (0, 0), BuildingBlock: FUNLAD_clean_linker_1, # of connection points: 2
#     Edge 7, Type (0, 0), BuildingBlock: FUNLAD_clean_linker_1, # of connection points: 2
#     Edge 8, Type (0, 0), BuildingBlock: FUNLAD_clean_linker_1, # of connection points: 2
#     Edge 9, Type (0, 0), BuildingBlock: FUNLAD_clean_linker_1, # of connection points: 2
#     Edge 10, Type (0, 0), BuildingBlock: FUNLAD_clean_linker_1, # of connection points: 2
#     Edge 11, Type (0, 0), BuildingBlock: FUNLAD_clean_linker_1, # of connection points: 2
#     Edge 12, Type (0, 0), BuildingBlock: FUNLAD_clean_linker_1, # of connection points: 2
#     Edge 13, Type (0, 0), BuildingBlock: FUNLAD_clean_linker_1, # of connection points: 2
#     Edge 14, Type (0, 0), BuildingBlock: FUNLAD_clean_linker_1, # of connection points: 2
#     Edge 15, Type (0, 0), BuildingBlock: FUNLAD_clean_linker_1, # of connection points: 2
#     Edge 16, Type (0, 0), BuildingBlock: FUNLAD_clean_linker_1, # of connection points: 2
#     Edge 17, Type (0, 0), BuildingBlock: FUNLAD_clean_linker_1, # of connection points: 2
#     Edge 18, Type (0, 0), BuildingBlock: FUNLAD_clean_linker_1, # of connection points: 2
#     Edge 19, Type (0, 0), BuildingBlock: FUNLAD_clean_linker_1, # of connection points: 2
# Relax obj value: 0.130
# Max RMSD: 0.230
# Mean RMSD: 0.230
data_MOF--net-oof--node1-VETTIZ_charged_sbu_0--edge1-FUNLAD_clean_linker_1
_symmetry_space_group_name_H-M    P1
_symmetry_Int_Tables_number       1
_symmetry_cell_setting            triclinic
loop_
_symmetry_equiv_pos_as_xyz
'x, y, z'
_cell_length_a     17.517
_cell_length_b     56.932402
_cell_length_c     17.201025
_cell_angle_alpha  89.330153
_cell_angle_beta   99.72975
_cell_angle_gamma 90.362945
loop_
_atom_site_label
_atom_site_type_symbol
_atom_site_fract_x
_atom_site_fract_y
_atom_site_fract_z
_atom_type_partial_charge
Fe0 Fe 0.10135 0.14204 0.35469 0.0
O1 O 0.03354 0.16566 0.2895 0.0
Fe2 Fe 0.12231 0.09941 0.21528 0.0
Fe3 Fe 0.96494 0.18613 0.33921 0.0
O4 O 0.05785 0.12011 0.26821 0.0
O5 O 0.05259 0.12011 0.26148 0.0
O6 O 0.02621 0.16545 0.28248 0.0
Fe7 Fe 0.97972 0.14284 0.19835 0.0
C8 C 0.99392 0.14723 0.46518 0.0
O9 O 0.14136 0.16985 0.43332 0.0
O10 O 0.06948 0.20184 0.37957 0.0
O11 O 0.06213 0.15242 0.1315 0.0
O12 O 0.10897 0.11745 0.10798 0.0
O13 O 0.22496 0.11651 0.25485 0.0
O14 O 0.19386 0.15102 0.29972 0.0
O15 O 0.94048 0.20191 0.22951 0.0
O16 O 0.91103 0.17095 0.14332 0.0
C17 C 0.24253 0.13734 0.27691 0.0
O18 O 0.94178 0.1146 0.11917 0.0
O19 O 0.02018 0.08392 0.17193 0.0
O20 O 0.0137 0.13319 0.41565 0.0
O21 O 0.98347 0.16886 0.44779 0.0
C22 C 0.12968 0.1925 0.42333 0.0
C23 C 0.91004 0.19318 0.16176 0.0
C24 C 0.84486 0.14699 0.28489 0.0
O25 O 0.86276 0.16796 0.3059 0.0
O26 O 0.89231 0.13327 0.25982 0.0
C27 C 0.08999 0.13844 0.08655 0.0
O28 O 0.13547 0.083 0.32259 0.0
O29 O 0.15952 0.11259 0.41393 0.0
C30 C 0.95991 0.09226 0.12683 0.0
C31 C 0.14871 0.09048 0.3944 0.0
Fe32 Fe 0.90479 0.93426 0.79802 0.0
O33 O 0.96693 0.91325 0.74381 0.0
Fe34 Fe 0.04165 0.88955 0.815 0.0
Fe35 Fe 0.92143 0.89228 0.65593 0.0
O36 O 0.97182 0.91301 0.75138 0.0
O37 O 0.99597 0.86812 0.72668 0.0
O38 O 0.98803 0.86795 0.71955 0.0
Fe39 Fe 0.05616 0.84745 0.66931 0.0
C40 C 0.78089 0.8975 0.73485 0.0
O41 O 0.89258 0.95124 0.69198 0.0
O42 O 0.86504 0.92233 0.59883 0.0
O43 O 0.1593 0.86528 0.70491 0.0
O44 O 0.13231 0.8993 0.75832 0.0
O45 O 0.07613 0.91679 0.90068 0.0
O46 O 0.01051 0.94836 0.83867 0.0
O47 O 0.00885 0.90094 0.59418 0.0
O48 O 0.0396 0.86527 0.56242 0.0
C49 C 0.05892 0.93926 0.8952 0.0
O50 O 0.07922 0.83068 0.77785 0.0
O51 O 0.10802 0.86061 0.86851 0.0
O52 O 0.79989 0.91815 0.7583 0.0
O53 O 0.82869 0.88367 0.71116 0.0
C54 C 0.87712 0.94427 0.61975 0.0
C55 C 0.02894 0.88685 0.54488 0.0
C56 C 0.88999 0.84262 0.58332 0.0
O57 O 0.87905 0.86533 0.57574 0.0
O58 O 0.95 0.83259 0.62553 0.0
C59 C 0.1785 0.88587 0.72988 0.0
O60 O 0.9556 0.8798 0.87672 0.0
O61 O 0.91538 0.91523 0.90412 0.0
C62 C 0.10914 0.83864 0.84675 0.0
C63 C 0.93033 0.89379 0.92344 0.0
Fe64 Fe 0.61663 0.66233 0.38426 0.0
O65 O 0.53575 0.66254 0.28964 0.0
Fe66 Fe 0.51632 0.63111 0.22765 0.0
Fe67 Fe 0.42553 0.66906 0.29694 0.0
O68 O 0.53957 0.66093 0.28672 0.0
O69 O 0.40663 0.63872 0.23025 0.0
O70 O 0.40313 0.63957 0.23522 0.0
Fe71 Fe 0.32364 0.63643 0.14085 0.0
C72 C 0.47895 0.65445 0.46263 0.0
O73 O 0.60017 0.69806 0.36942 0.0
O74 O 0.46657 0.70001 0.35877 0.0
O75 O 0.39737 0.63707 0.06093 0.0
O76 O 0.51461 0.64853 0.12233 0.0
O77 O 0.63475 0.62599 0.23362 0.0
O78 O 0.69023 0.6573 0.30603 0.0
O79 O 0.41344 0.68897 0.19565 0.0
O80 O 0.30748 0.67282 0.12561 0.0
C81 C 0.69182 0.64012 0.2577 0.0
O82 O 0.34806 0.60014 0.15105 0.0
O83 O 0.48119 0.60065 0.16878 0.0
O84 O 0.54176 0.66538 0.46146 0.0
O85 O 0.43264 0.64977 0.39986 0.0
C86 C 0.53598 0.70946 0.37064 0.0
C87 C 0.35201 0.69051 0.14461 0.0
C88 C 0.25413 0.65497 0.27873 0.0
O89 O 0.30656 0.67114 0.2985 0.0
O90 O 0.25537 0.63888 0.2258 0.0
C91 C 0.46594 0.64453 0.06009 0.0
O92 O 0.51479 0.6126 0.32836 0.0
O93 O 0.62019 0.62569 0.40636 0.0
C94 C 0.41508 0.58993 0.15458 0.0
C95 C 0.56682 0.6103 0.38804 0.0
Fe96 Fe 0.46409 0.44216 0.79233 0.0
O97 O 0.52823 0.41965 0.74478 0.0
Fe98 Fe 0.59955 0.39672 0.82552 0.0
Fe99 Fe 0.48208 0.39699 0.66134 0.0
O100 O 0.53205 0.41931 0.75478 0.0
O101 O 0.5553 0.3741 0.74004 0.0
O102 O 0.54908 0.37409 0.73141 0.0
Fe103 Fe 0.61777 0.35184 0.6901 0.0
C104 C 0.34123 0.40491 0.73601 0.0
O105 O 0.45949 0.45702 0.68323 0.0
O106 O 0.42528 0.4262 0.59792 0.0
O107 O 0.72124 0.36967 0.72526 0.0
O108 O 0.69193 0.40483 0.76876 0.0
O109 O 0.63329 0.42447 0.90647 0.0
O110 O 0.56974 0.45583 0.84044 0.0
O111 O 0.56587 0.40365 0.59191 0.0
O112 O 0.60701 0.36739 0.57922 0.0
C113 C 0.61413 0.44666 0.90069 0.0
O114 O 0.63483 0.33722 0.80193 0.0
O115 O 0.66291 0.36857 0.88634 0.0
O116 O 0.35888 0.42638 0.74898 0.0
O117 O 0.39076 0.39014 0.72078 0.0
C118 C 0.44089 0.44842 0.61314 0.0
C119 C 0.59182 0.38791 0.55135 0.0
C120 C 0.45266 0.34562 0.60106 0.0
O121 O 0.44015 0.36816 0.58881 0.0
O122 O 0.51234 0.33663 0.64694 0.0
C123 C 0.73944 0.39077 0.7451 0.0
O124 O 0.51373 0.38919 0.89221 0.0
O125 O 0.46503 0.42512 0.90014 0.0
C126 C 0.6626 0.34619 0.86996 0.0
C127 C 0.48136 0.40467 0.92908 0.0
H128 H 0.07796 0.16413 0.9875 0.0
C129 C 0.08671 0.14565 1.00278 0.0
H130 H 0.08891 0.11119 0.95877 0.0
H131 H 0.87744 0.16373 0.65141 0.0
H132 H 0.78249 0.16894 0.73726 0.0
H133 H 0.81325 0.15859 0.87869 0.0
H134 H 0.93902 0.14319 0.93531 0.0
C135 C 0.08151 0.12976 0.9444 0.0
C136 C 0.06235 0.1364 0.85869 0.0
C137 C 0.98767 0.14504 0.82601 0.0
C138 C 0.96928 0.1506 0.74386 0.0
C139 C 0.89454 0.1593 0.71324 0.0
C140 C 0.83934 0.16229 0.76178 0.0
C141 C 0.85669 0.15649 0.84142 0.0
C142 C 0.92959 0.14782 0.87334 0.0
H143 H 0.00668 0.12052 0.56142 0.0
C144 C 0.99964 0.13919 0.54848 0.0
H145 H 0.99958 0.17319 0.59651 0.0
H146 H 0.20908 0.11935 0.90074 0.0
H147 H 0.30363 0.11382 0.81466 0.0
H148 H 0.27273 0.12404 0.67315 0.0
H149 H 0.14722 0.13964 0.61664 0.0
C150 C 0.00634 0.15448 0.60872 0.0
C151 C 0.0246 0.14703 0.6937 0.0
C152 C 0.09897 0.13815 0.72621 0.0
C153 C 0.11741 0.13262 0.8084 0.0
C154 C 0.19197 0.12377 0.83892 0.0
C155 C 0.24692 0.12059 0.79023 0.0
C156 C 0.22949 0.12632 0.71054 0.0
C157 C 0.15678 0.13513 0.67871 0.0
H158 H 0.01026 0.91286 0.44631 0.0
C159 C 0.02343 0.89456 0.46123 0.0
H160 H 0.03498 0.8605 0.41753 0.0
H161 H 0.82268 0.87443 0.08818 0.0
H162 H 0.74622 0.84759 0.15433 0.0
H163 H 0.78714 0.83726 0.29475 0.0
H164 H 0.90104 0.85482 0.37127 0.0
C165 C 0.02522 0.87898 0.40289 0.0
C166 C 1.0027 0.88514 0.31718 0.0
C167 C 0.93511 0.87487 0.2729 0.0
C168 C 0.91333 0.88009 0.19079 0.0
C169 C 0.84354 0.87044 0.14964 0.0
C170 C 0.79871 0.85513 0.18705 0.0
C171 C 0.82129 0.84945 0.26626 0.0
C172 C 0.88766 0.85946 0.30931 0.0
H173 H 0.94639 0.86771 0.02146 0.0
C174 C 0.93511 0.88615 1.00718 0.0
H175 H 0.93092 0.9202 0.05308 0.0
H176 H 0.13966 0.90592 0.3819 0.0
H177 H 0.22424 0.92894 0.31282 0.0
H178 H 0.1915 0.93577 0.16947 0.0
H179 H 0.07127 0.92088 0.09472 0.0
C180 C 0.93732 0.9016 0.06658 0.0
C181 C 0.96085 0.89486 0.15189 0.0
C182 C 0.03054 0.90417 0.1955 0.0
C183 C 0.05088 0.89959 0.27816 0.0
C184 C 0.12108 0.90894 0.31943 0.0
C185 C 0.1705 0.92209 0.2804 0.0
C186 C 0.15178 0.92605 0.19969 0.0
C187 C 0.08248 0.91744 0.15755 0.0
H188 H 0.54092 0.65768 0.97732 0.0
C189 C 0.4899 0.64725 0.98298 0.0
H190 H 0.39741 0.62629 0.92505 0.0
H191 H 0.38593 0.68209 0.60508 0.0
H192 H 0.27966 0.70054 0.65425 0.0
H193 H 0.25546 0.69209 0.78903 0.0
H194 H 0.33797 0.66525 0.87537 0.0
C195 C 0.44831 0.63684 0.91992 0.0
C196 C 0.46333 0.64147 0.83982 0.0
C197 C 0.41306 0.6567 0.78978 0.0
C198 C 0.42605 0.6612 0.71198 0.0
C199 C 0.3774 0.6774 0.66408 0.0
C200 C 0.31637 0.68828 0.69177 0.0
C201 C 0.3028 0.68354 0.76762 0.0
C202 C 0.35054 0.66804 0.81647 0.0
H203 H 0.40493 0.63904 0.54264 0.0
C204 C 0.45832 0.64857 0.53956 0.0
H205 H 0.55941 0.66446 0.60312 0.0
H206 H 0.56722 0.61034 0.92112 0.0
H207 H 0.67411 0.59184 0.87204 0.0
H208 H 0.69721 0.59975 0.7367 0.0
H209 H 0.61325 0.62596 0.64919 0.0
C210 C 0.50506 0.65539 0.60559 0.0
C211 C 0.48823 0.64995 0.68464 0.0
C212 C 0.53842 0.63469 0.73475 0.0
C213 C 0.52561 0.6303 0.81271 0.0
C214 C 0.57523 0.61457 0.86152 0.0
C215 C 0.63663 0.60379 0.83412 0.0
C216 C 0.64973 0.60827 0.75791 0.0
C217 C 0.6012 0.62343 0.70838 0.0
H218 H 0.4218 0.40938 0.03166 0.0
C219 C 0.47073 0.4008 0.01283 0.0
H220 H 0.58037 0.38595 0.05119 0.0
H221 H 0.65437 0.42975 0.3889 0.0
H222 H 0.74216 0.45129 0.31902 0.0
H223 H 0.73242 0.44794 0.17487 0.0
H224 H 0.63582 0.42275 0.09969 0.0
C225 C 0.52761 0.39226 0.0691 0.0
C226 C 0.52855 0.39546 0.15673 0.0
C227 C 0.58584 0.41013 0.20098 0.0
C228 C 0.5912 0.41224 0.2847 0.0
C229 C 0.64845 0.42725 0.32593 0.0
C230 C 0.69903 0.43979 0.28646 0.0
C231 C 0.69351 0.43792 0.20528 0.0
C232 C 0.63787 0.4233 0.16283 0.0
H233 H 0.64472 0.38268 0.44474 0.0
C234 C 0.59895 0.39201 0.46677 0.0
H235 H 0.49264 0.40951 0.43411 0.0
H236 H 0.41401 0.36513 0.09361 0.0
H237 H 0.32508 0.34407 0.16339 0.0
H238 H 0.33254 0.34834 0.30695 0.0
H239 H 0.42936 0.37349 0.38205 0.0
C240 C 0.54276 0.4022 0.41356 0.0
C241 C 0.53908 0.39982 0.32529 0.0
C242 C 0.48102 0.38543 0.28097 0.0
C243 C 0.47611 0.38313 0.1973 0.0
C244 C 0.41937 0.36791 0.15636 0.0
C245 C 0.36814 0.35562 0.19579 0.0
C246 C 0.37237 0.35801 0.27667 0.0
C247 C 0.42812 0.37261 0.31905 0.0
H248 H 0.74722 0.12153 0.26193 0.0
C249 C 0.7636 0.1391 0.28279 0.0
H250 H 0.72463 0.17125 0.32234 0.0
H251 H 0.39191 0.13743 0.11978 0.0
H252 H 0.45241 0.14482 1.00486 0.0
H253 H 0.59194 0.15394 0.01945 0.0
H254 H 0.67209 0.15539 0.14875 0.0
C255 C 0.70884 0.15376 0.30039 0.0
C256 C 0.62511 0.14725 0.29083 0.0
C257 C 0.57895 0.14654 0.21465 0.0
C258 C 0.49809 0.14164 0.20625 0.0
C259 C 0.45353 0.141 0.1295 0.0
C260 C 0.48745 0.1453 0.06305 0.0
C261 C 0.56603 0.15041 0.07126 0.0
C262 C 0.61147 0.15109 0.14595 0.0
H263 H 0.33948 0.16295 0.30266 0.0
C264 C 0.32396 0.14537 0.28135 0.0
H265 H 0.36458 0.11351 0.24147 0.0
H266 H 0.69605 0.14811 0.44498 0.0
H267 H 0.63516 0.14147 0.56004 0.0
H268 H 0.49544 0.13266 0.54559 0.0
H269 H 0.41561 0.13059 0.41625 0.0
C270 C 0.37959 0.13096 0.26419 0.0
C271 C 0.46302 0.1379 0.27393 0.0
C272 C 0.50903 0.13889 0.35015 0.0
C273 C 0.58994 0.14372 0.35852 0.0
C274 C 0.6344 0.1446 0.43528 0.0
C275 C 0.60024 0.14075 0.50182 0.0
C276 C 0.52157 0.13579 0.49368 0.0
C277 C 0.4763 0.13475 0.41896 0.0
H278 H 0.68353 0.87206 0.70994 0.0
C279 C 0.69923 0.88965 0.73103 0.0
H280 H 0.65858 0.92187 0.76747 0.0
H281 H 0.31094 0.91308 0.60541 0.0
H282 H 0.35737 0.94391 0.52692 0.0
H283 H 0.4965 0.95374 0.54373 0.0
H284 H 0.59007 0.93271 0.6389 0.0
C285 C 0.64378 0.90396 0.74934 0.0
C286 C 0.55978 0.89722 0.73819 0.0
C287 C 0.50523 0.90993 0.68311 0.0
C288 C 0.42462 0.90443 0.67392 0.0
C289 C 0.37233 0.91689 0.61639 0.0
C290 C 0.39829 0.93455 0.57045 0.0
C291 C 0.47662 0.94007 0.5799 0.0
C292 C 0.52971 0.92791 0.63512 0.0
H293 H 0.27603 0.91132 0.75339 0.0
C294 C 0.25962 0.8939 0.73104 0.0
H295 H 0.29878 0.86201 0.69044 0.0
H296 H 0.64665 0.87066 0.85427 0.0
H297 H 0.60037 0.83928 0.93057 0.0
H298 H 0.46171 0.82886 0.91125 0.0
H299 H 0.36806 0.85022 0.8174 0.0
C300 C 0.31413 0.87978 0.70986 0.0
C301 C 0.39817 0.88636 0.72045 0.0
C302 C 0.45274 0.8735 0.77499 0.0
C303 C 0.53329 0.87911 0.78463 0.0
C304 C 0.58542 0.86667 0.84236 0.0
C305 C 0.55954 0.8487 0.88714 0.0
C306 C 0.48142 0.84289 0.87652 0.0
C307 C 0.42833 0.85521 0.82186 0.0
H308 H 0.78232 0.61651 0.23103 0.0
C309 C 0.76728 0.6348 0.23752 0.0
H310 H 0.80551 0.66994 0.24968 0.0
H311 H 0.12087 0.64731 0.45955 0.0
H312 H 0.05048 0.66539 0.55346 0.0
H313 H 0.91119 0.67423 0.51657 0.0
H314 H 0.8419 0.66525 0.38615 0.0
C315 C 0.82122 0.65171 0.24286 0.0
C316 C 0.90338 0.64564 0.26457 0.0
C317 C 0.94213 0.65093 0.34176 0.0
C318 C 0.02181 0.64583 0.36331 0.0
C319 C 0.06016 0.65121 0.4403 0.0
C320 C 0.02041 0.66143 0.49476 0.0
C321 C 0.94203 0.66639 0.47398 0.0
C322 C 0.90299 0.6612 0.39861 0.0
H323 H 0.15645 0.67238 0.31808 0.0
C324 C 0.18418 0.65552 0.31377 0.0
H325 H 0.17534 0.6186 0.31787 0.0
H326 H 0.84458 0.63324 0.11233 0.0
H327 H 0.91386 0.61347 0.0215 0.0
H328 H 0.05162 0.60308 0.06102 0.0
H329 H 0.12061 0.61248 0.19107 0.0
C330 C 0.14662 0.6353 0.32205 0.0
C331 C 0.06168 0.63552 0.3078 0.0
C332 C 0.02183 0.62874 0.23255 0.0
C333 C 0.94243 0.63424 0.21029 0.0
C334 C 0.90456 0.6288 0.13309 0.0
C335 C 0.94376 0.61759 0.08013 0.0
C336 C 0.0213 0.61179 0.10233 0.0
C337 C 0.06029 0.61735 0.17734 0.0
H338 H 0.83581 0.41673 0.76428 0.0
C339 C 0.82041 0.39895 0.74493 0.0
H340 H 0.86124 0.36683 0.70807 0.0
H341 H 0.14381 0.43937 0.64098 0.0
H342 H 0.04608 0.45932 0.54738 0.0
H343 H 0.9082 0.4484 0.53549 0.0
H344 H 0.86709 0.41758 0.61749 0.0
C345 C 0.87571 0.38486 0.7249 0.0
C346 C 0.95934 0.39204 0.73216 0.0
C347 C 0.98282 0.4101 0.68352 0.0
C348 C 0.06287 0.41619 0.68969 0.0
C349 C 0.08413 0.43414 0.63959 0.0
C350 C 0.02861 0.44568 0.58518 0.0
C351 C 0.95098 0.43955 0.57854 0.0
C352 C 0.92809 0.42191 0.62657 0.0
H353 H 0.245 0.37895 0.71755 0.0
C354 C 0.25975 0.39697 0.73434 0.0
H355 H 0.21778 0.42955 0.7658 0.0
H356 H 0.93591 0.35584 0.83171 0.0
H357 H 0.03392 0.33538 0.9234 0.0
H358 H 0.1712 0.34712 0.93854 0.0
H359 H 0.21191 0.3788 0.85979 0.0
C360 C 0.20371 0.41135 0.75113 0.0
C361 C 0.12007 0.40408 0.74376 0.0
C362 C 0.09655 0.38599 0.79234 0.0
C363 C 0.01657 0.37974 0.78555 0.0
C364 C 0.99546 0.36135 0.83405 0.0
C365 C 0.05107 0.34955 0.88758 0.0
C366 C 0.12845 0.35609 0.89579 0.0
C367 C 0.15114 0.37419 0.84947 0.0
H368 H 0.34144 0.33543 0.52587 0.0
C369 C 0.39415 0.32872 0.56145 0.0
H370 H 0.45608 0.29854 0.60851 0.0
H371 H 0.18289 0.2277 0.60411 0.0
H372 H 0.21569 0.23573 0.74371 0.0
H373 H 0.30765 0.2674 0.79209 0.0
H374 H 0.3668 0.29137 0.70099 0.0
C375 C 0.40438 0.30528 0.57126 0.0
C376 C 0.3446 0.28743 0.54022 0.0
C377 C 0.31124 0.27325 0.59431 0.0
C378 C 0.2588 0.25477 0.5665 0.0
C379 C 0.22439 0.24156 0.62185 0.0
C380 C 0.2424 0.24607 0.70229 0.0
C381 C 0.29415 0.2639 0.72953 0.0
C382 C 0.32803 0.27745 0.67651 0.0
H383 H 0.24182 0.20213 0.49814 0.0
C384 C 0.18924 0.20909 0.46306 0.0
H385 H 0.12855 0.23955 0.41651 0.0
H386 H 0.40185 0.31009 0.4206 0.0
H387 H 0.36893 0.30208 0.28097 0.0
H388 H 0.27702 0.27041 0.23263 0.0
H389 H 0.21818 0.24636 0.32379 0.0
C390 C 0.18006 0.23258 0.4535 0.0
C391 C 0.24046 0.25027 0.48455 0.0
C392 C 0.27384 0.26445 0.43046 0.0
C393 C 0.32624 0.28294 0.45826 0.0
C394 C 0.36045 0.2962 0.40288 0.0
C395 C 0.34233 0.29172 0.32242 0.0
C396 C 0.29063 0.27388 0.2952 0.0
C397 C 0.25692 0.26028 0.34825 0.0
H398 H 0.71286 0.33527 0.99274 0.0
C399 C 0.69819 0.32937 0.93219 0.0
H400 H 0.69931 0.30127 0.85306 0.0
H401 H 0.96665 0.26047 0.1378 0.0
H402 H 0.03787 0.29655 0.12588 0.0
H403 H 0.97883 0.32922 0.04196 0.0
H404 H 0.84903 0.32589 0.96817 0.0
C405 C 0.71445 0.30711 0.91366 0.0
C406 C 0.74852 0.28877 0.97198 0.0
C407 C 0.82569 0.2908 0.01293 0.0
C408 C 0.85995 0.27185 0.0612 0.0
C409 C 0.93723 0.27435 0.10118 0.0
C410 C 0.9791 0.29492 0.09448 0.0
C411 C 0.94594 0.31329 0.047 0.0
C412 C 0.87072 0.31123 1.00566 0.0
H413 H 0.8545 0.20479 0.04131 0.0
C414 C 0.87022 0.21015 0.10236 0.0
H415 H 0.86865 0.23728 0.18504 0.0
H416 H 0.59886 0.27925 0.9039 0.0
H417 H 0.52638 0.24358 0.91915 0.0
H418 H 0.58518 0.21108 1.00439 0.0
H419 H 0.71689 0.21395 0.07409 0.0
C420 C 0.85279 0.232 0.1239 0.0
C421 C 0.81769 0.25073 0.0678 0.0
C422 C 0.74019 0.24883 0.02784 0.0
C423 C 0.70591 0.26776 0.97951 0.0
C424 C 0.62823 0.26538 0.94062 0.0
C425 C 0.58568 0.24504 0.94925 0.0
C426 C 0.61878 0.22675 0.99719 0.0
C427 C 0.69486 0.22857 0.03651 0.0
H428 H 0.49368 0.74357 0.40843 0.0
C429 C 0.54345 0.73459 0.39287 0.0
H430 H 0.66178 0.73712 0.38249 0.0
H431 H 0.68291 0.84759 0.38496 0.0
H432 H 0.61875 0.8452 0.24813 0.0
H433 H 0.55834 0.80814 0.19505 0.0
H434 H 0.56077 0.77324 0.2788 0.0
C435 C 0.6119 0.74592 0.39847 0.0
C436 C 0.62685 0.76961 0.43365 0.0
C437 C 0.62439 0.7898 0.38443 0.0
C438 C 0.65997 0.81113 0.41483 0.0
C439 C 0.65716 0.83098 0.36441 0.0
C440 C 0.62044 0.82983 0.28599 0.0
C441 C 0.58651 0.80893 0.25606 0.0
C442 C 0.5885 0.78905 0.30444 0.0
H443 H 0.84937 0.8081 0.53858 0.0
C444 C 0.83116 0.82623 0.54258 0.0
H445 H 0.73479 0.84916 0.52368 0.0
H446 H 0.62826 0.73551 0.54717 0.0
H447 H 0.68009 0.73921 0.6867 0.0
H448 H 0.73784 0.77658 0.73998 0.0
H449 H 0.74515 0.81037 0.65369 0.0
C450 C 0.75565 0.83135 0.52006 0.0
C451 C 0.69943 0.81193 0.49374 0.0
C452 C 0.69206 0.79275 0.54546 0.0
C453 C 0.65682 0.77144 0.51514 0.0
C454 C 0.65397 0.75216 0.56731 0.0
C455 C 0.68326 0.75408 0.64752 0.0
C456 C 0.71589 0.7751 0.6775 0.0
C457 C 0.72032 0.79427 0.62735 0.0
H458 H 0.3493 0.72891 0.15672 0.0
C459 C 0.32647 0.71457 0.11831 0.0
H460 H 0.25218 0.70503 0.01456 0.0
H461 H 0.01834 0.78803 0.9631 0.0
H462 H 0.93611 0.75408 0.97031 0.0
H463 H 0.99224 0.71529 1.01002 0.0
H464 H 0.13087 0.7101 0.0411 0.0
C465 C 0.27534 0.71943 0.05247 0.0
C466 C 0.24259 0.7437 0.03369 0.0
C467 C 0.16081 0.74677 0.01886 0.0
C468 C 0.12815 0.76942 0.99871 0.0
C469 C 0.04648 0.77149 0.9804 0.0
C470 C 0.99837 0.7521 0.98421 0.0
C471 C 0.02997 0.73026 1.00638 0.0
C472 C 0.10999 0.72752 0.02369 0.0
H473 H 0.19961 0.81205 0.86799 0.0
C474 C 0.15806 0.82131 0.89667 0.0
H475 H 0.0958 0.8201 0.99095 0.0
H476 H 0.40124 0.74467 0.04456 0.0
H477 H 0.48293 0.77931 0.05255 0.0
H478 H 0.42584 0.81894 0.04007 0.0
H479 H 0.28628 0.82405 0.01442 0.0
C480 C 0.14231 0.8125 0.96508 0.0
C481 C 0.17688 0.78935 0.9961 0.0
C482 C 0.2584 0.78656 0.01572 0.0
C483 C 0.29134 0.76371 0.03049 0.0
C484 C 0.37293 0.76155 0.04006 0.0
C485 C 0.42063 0.78132 0.04343 0.0
C486 C 0.3885 0.80362 0.03566 0.0
C487 C 0.3084 0.80631 0.02085 0.0
H488 H 0.92445 0.07631 0.0118 0.0
C489 C 0.91978 0.07422 0.07365 0.0
H490 H 0.90812 0.05135 0.16675 0.0
H491 H 0.91537 0.97722 0.8662 0.0
H492 H 0.80908 0.99875 0.791 0.0
H493 H 0.75989 0.03463 0.84411 0.0
H494 H 0.81789 0.04921 0.9722 0.0
C495 C 0.91336 0.05244 0.10471 0.0
C496 C 0.94279 0.03073 0.0707 0.0
C497 C 0.90708 0.02203 0.99653 0.0
C498 C 0.93377 1.00077 0.96737 0.0
C499 C 0.89723 0.99287 0.89231 0.0
C500 C 0.8359 1.00513 0.84826 0.0
C501 C 0.80841 0.02536 0.87801 0.0
C502 C 0.8429 0.03368 0.95144 0.0
H503 H 0.12557 0.96565 0.97227 0.0
C504 C 0.07303 0.95511 0.96382 0.0
H505 H 0.95608 0.95259 0.97548 0.0
H506 H 0.02904 0.04218 0.21524 0.0
H507 H 0.13581 0.02045 0.2883 0.0
H508 H 0.178 0.98324 0.23867 0.0
H509 H 0.11532 0.96813 0.11291 0.0
C510 C 0.00871 0.96292 0.98979 0.0
C511 C 0.99496 0.98766 0.01321 0.0
C512 C 0.03215 0.99668 0.08613 0.0
C513 C 0.00626 1.01809 0.11516 0.0
C514 C 0.04502 0.02623 0.18918 0.0
C515 C 0.10647 1.01381 0.23254 0.0
C516 C 0.13052 0.99288 0.20446 0.0
C517 C 0.0939 0.98435 0.13225 0.0
H518 H 0.14052 0.07774 0.51653 0.0
C519 C 0.13288 0.07286 0.45483 0.0
H520 H 0.0871 0.04798 0.36841 0.0
H521 H 0.03192 0.95629 0.54004 0.0
H522 H 0.1494 0.94642 0.49252 0.0
H523 H 0.2271 0.97702 0.43932 0.0
H524 H 0.18768 1.01785 0.43459 0.0
C525 C 0.09553 0.05254 0.43029 0.0
C526 C 0.05745 0.03559 0.47881 0.0
C527 C 0.08073 1.01168 0.48192 0.0
C528 C 0.03511 0.99395 0.51177 0.0
C529 C 0.06219 0.97046 0.51611 0.0
C530 C 0.13023 0.96451 0.4894 0.0
C531 C 0.17396 0.98173 0.45944 0.0
C532 C 0.15024 1.00506 0.45636 0.0
H533 H 0.88679 0.95733 0.49856 0.0
C534 C 0.89162 0.96227 0.56 0.0
H535 H 0.92938 0.98798 0.64649 0.0
H536 H 0.99169 0.07935 0.47716 0.0
H537 H 0.87331 0.08928 0.52313 0.0
H538 H 0.79529 0.05875 0.57634 0.0
H539 H 0.83511 1.01798 0.58274 0.0
C540 C 0.92565 0.98302 0.58514 0.0
C541 C 0.96518 1.00008 0.53807 0.0
C542 C 0.94202 0.02401 0.53506 0.0
C543 C 0.98767 0.04172 0.50515 0.0
C544 C 0.96083 0.06521 0.50065 0.0
C545 C 0.89249 0.0712 0.52665 0.0
C546 C 0.8486 0.05402 0.55663 0.0
C547 C 0.87251 0.03069 0.56052 0.0
H548 H 0.37452 0.55695 0.09205 0.0
C549 C 0.41925 0.56464 0.13598 0.0
H550 H 0.52829 0.56052 0.20849 0.0
H551 H 0.49953 0.45127 0.08485 0.0
H552 H 0.40708 0.44577 0.17456 0.0
H553 H 0.36018 0.4797 0.24102 0.0
H554 H 0.40583 0.51929 0.21868 0.0
C555 C 0.48441 0.55251 0.1643 0.0
C556 C 0.51014 0.53172 0.12396 0.0
C557 C 0.48175 0.5089 0.13657 0.0
C558 C 0.50849 0.48935 0.098 0.0
C559 C 0.48012 0.46666 0.11219 0.0
C560 C 0.42741 0.4633 0.1636 0.0
C561 C 0.40104 0.48242 0.20103 0.0
C562 C 0.42749 0.50502 0.18767 0.0
H563 H 0.67681 0.46071 0.01568 0.0
C564 C 0.62385 0.46127 0.97258 0.0
H565 H 0.50918 0.47367 0.94198 0.0
H566 H 0.58453 0.57266 0.09499 0.0
H567 H 0.68229 0.57748 0.01218 0.0
H568 H 0.72535 0.54374 0.94219 0.0
H569 H 0.67227 0.50483 0.95677 0.0
C570 C 0.56357 0.475 0.98296 0.0
C571 C 0.56219 0.49264 0.04568 0.0
C572 C 0.59479 0.5152 0.03763 0.0
C573 C 0.56912 0.53472 0.07717 0.0
C574 C 0.60181 0.55715 0.0668 0.0
C575 C 0.65783 0.56022 0.01897 0.0
C576 C 0.6821 0.54122 0.97967 0.0
C577 C 0.65096 0.51896 0.98843 0.0
H578 H 0.4023 0.46796 0.49925 0.0
C579 C 0.44889 0.46552 0.54892 0.0
H580 H 0.55665 0.47663 0.61116 0.0
H581 H 0.57402 0.5814 0.59123 0.0
H582 H 0.51618 0.5775 0.70909 0.0
H583 H 0.4579 0.54008 0.74263 0.0
H584 H 0.45653 0.50625 0.65803 0.0
C585 C 0.5114 0.48004 0.56069 0.0
C586 C 0.51787 0.50362 0.52297 0.0
C587 C 0.5145 0.5238 0.56999 0.0
C588 C 0.54501 0.54577 0.54852 0.0
C589 C 0.54715 0.56478 0.60141 0.0
C590 C 0.51541 0.56268 0.6702 0.0
C591 C 0.48267 0.54159 0.68922 0.0
C592 C 0.48257 0.52229 0.6403 0.0
H593 H 0.49827 0.58837 0.45497 0.0
C594 C 0.55597 0.59022 0.44018 0.0
H595 H 0.65772 0.57238 0.42864 0.0
H596 H 0.52796 0.4691 0.41737 0.0
H597 H 0.57849 0.47308 0.29462 0.0
H598 H 0.62873 0.51103 0.25464 0.0
H599 H 0.62473 0.54565 0.3339 0.0
C600 C 0.60308 0.57148 0.45047 0.0
C601 C 0.57488 0.54808 0.4768 0.0
C602 C 0.57513 0.528 0.42798 0.0
C603 C 0.54688 0.50584 0.45133 0.0
C604 C 0.5493 0.48616 0.40242 0.0
C605 C 0.57836 0.48817 0.33215 0.0
C606 C 0.60601 0.50963 0.30927 0.0
C607 C 0.60371 0.5294 0.35576 0.0
loop_
_geom_bond_atom_site_label_1
_geom_bond_atom_site_label_2
_geom_bond_distance
_geom_bond_site_symmetry_2
_ccdc_geom_bond_type
Fe0 O1 1.886 . S
Fe0 O4 1.715 . S
Fe0 O9 2.077 . S
Fe0 O14 1.935 . S
Fe0 O20 2.077 . S
Fe0 O29 1.935 . S
O1 Fe0 1.886 . S
O1 Fe3 1.715 1_455 S
Fe2 O4 1.886 . S
Fe2 O5 1.715 1_455 S
Fe2 O12 1.935 . S
Fe2 O13 2.077 . S
Fe2 O19 1.935 1_455 S
Fe2 O28 2.077 . S
Fe3 O1 1.715 1_655 S
Fe3 O6 1.886 . S
Fe3 O10 1.935 1_655 S
Fe3 O15 2.077 . S
Fe3 O21 1.935 . S
Fe3 O25 2.077 . S
O4 Fe0 1.715 . S
O4 Fe2 1.886 . S
O5 Fe2 1.715 1_655 S
O5 Fe7 1.886 . S
O6 Fe3 1.886 . S
O6 Fe7 1.715 . S
Fe7 O5 1.886 . S
Fe7 O6 1.715 . S
Fe7 O11 2.077 . S
Fe7 O16 1.935 . S
Fe7 O18 2.077 . S
Fe7 O26 1.935 . S
C8 O20 1.381 1_655 S
C8 O21 1.421 . S
O9 Fe0 2.077 . S
O9 C22 1.381 . S
O10 Fe3 1.935 1_455 S
O10 C22 1.421 . S
O11 Fe7 2.077 . S
O11 C27 1.381 1_655 S
O12 Fe2 1.935 . S
O12 C27 1.421 . S
O13 Fe2 2.077 . S
O13 C17 1.381 . S
O14 Fe0 1.935 . S
O14 C17 1.421 . S
O15 Fe3 2.077 . S
O15 C23 1.381 . S
O16 Fe7 1.935 . S
O16 C23 1.421 . S
C17 O13 1.381 . S
C17 O14 1.421 . S
O18 Fe7 2.077 . S
O18 C30 1.381 . S
O19 Fe2 1.935 1_655 S
O19 C30 1.421 . S
O20 Fe0 2.077 . S
O20 C8 1.381 1_455 S
O21 Fe3 1.935 . S
O21 C8 1.421 . S
C22 O9 1.381 . S
C22 O10 1.421 . S
C23 O15 1.381 . S
C23 O16 1.421 . S
C24 O25 1.381 . S
C24 O26 1.421 . S
O25 Fe3 2.077 . S
O25 C24 1.381 . S
O26 Fe7 1.935 . S
O26 C24 1.421 . S
C27 O11 1.381 1_455 S
C27 O12 1.421 . S
O28 Fe2 2.077 . S
O28 C31 1.381 . S
O29 Fe0 1.935 . S
O29 C31 1.421 . S
C30 O18 1.381 . S
C30 O19 1.421 . S
C31 O28 1.381 . S
C31 O29 1.421 . S
Fe32 O33 1.886 . S
Fe32 O36 1.715 1_655 S
Fe32 O41 2.077 . S
Fe32 O46 1.935 1_655 S
Fe32 O52 2.077 . S
Fe32 O61 1.935 . S
O33 Fe32 1.886 . S
O33 Fe35 1.715 . S
Fe34 O36 1.886 . S
Fe34 O37 1.715 . S
Fe34 O44 1.935 . S
Fe34 O45 2.077 . S
Fe34 O51 1.935 . S
Fe34 O60 2.077 . S
Fe35 O33 1.715 . S
Fe35 O38 1.886 . S
Fe35 O42 1.935 . S
Fe35 O47 2.077 . S
Fe35 O53 1.935 . S
Fe35 O57 2.077 . S
O36 Fe32 1.715 1_455 S
O36 Fe34 1.886 . S
O37 Fe34 1.715 . S
O37 Fe39 1.886 . S
O38 Fe35 1.886 . S
O38 Fe39 1.715 1_655 S
Fe39 O37 1.886 . S
Fe39 O38 1.715 1_455 S
Fe39 O43 2.077 . S
Fe39 O48 1.935 . S
Fe39 O50 2.077 . S
Fe39 O58 1.935 1_455 S
C40 O52 1.381 . S
C40 O53 1.421 . S
O41 Fe32 2.077 . S
O41 C54 1.381 . S
O42 Fe35 1.935 . S
O42 C54 1.421 . S
O43 Fe39 2.077 . S
O43 C59 1.381 . S
O44 Fe34 1.935 . S
O44 C59 1.421 . S
O45 Fe34 2.077 . S
O45 C49 1.381 . S
O46 Fe32 1.935 1_455 S
O46 C49 1.421 . S
O47 Fe35 2.077 . S
O47 C55 1.381 1_655 S
O48 Fe39 1.935 . S
O48 C55 1.421 . S
C49 O45 1.381 . S
C49 O46 1.421 . S
O50 Fe39 2.077 . S
O50 C62 1.381 . S
O51 Fe34 1.935 . S
O51 C62 1.421 . S
O52 Fe32 2.077 . S
O52 C40 1.381 . S
O53 Fe35 1.935 . S
O53 C40 1.421 . S
C54 O41 1.381 . S
C54 O42 1.421 . S
C55 O47 1.381 1_455 S
C55 O48 1.421 . S
C56 O57 1.381 . S
C56 O58 1.421 . S
O57 Fe35 2.077 . S
O57 C56 1.381 . S
O58 Fe39 1.935 1_655 S
O58 C56 1.421 . S
C59 O43 1.381 . S
C59 O44 1.421 . S
O60 Fe34 2.077 . S
O60 C63 1.381 1_455 S
O61 Fe32 1.935 . S
O61 C63 1.421 . S
C62 O50 1.381 . S
C62 O51 1.421 . S
C63 O60 1.381 1_655 S
C63 O61 1.421 . S
Fe64 O65 1.886 . S
Fe64 O68 1.715 . S
Fe64 O73 2.077 . S
Fe64 O78 1.935 . S
Fe64 O84 2.077 . S
Fe64 O93 1.935 . S
O65 Fe64 1.886 . S
O65 Fe67 1.715 . S
Fe66 O68 1.886 . S
Fe66 O69 1.715 . S
Fe66 O76 1.935 . S
Fe66 O77 2.077 . S
Fe66 O83 1.935 . S
Fe66 O92 2.077 . S
Fe67 O65 1.715 . S
Fe67 O70 1.886 . S
Fe67 O74 1.935 . S
Fe67 O79 2.077 . S
Fe67 O85 1.935 . S
Fe67 O89 2.077 . S
O68 Fe64 1.715 . S
O68 Fe66 1.886 . S
O69 Fe66 1.715 . S
O69 Fe71 1.886 . S
O70 Fe67 1.886 . S
O70 Fe71 1.715 . S
Fe71 O69 1.886 . S
Fe71 O70 1.715 . S
Fe71 O75 2.077 . S
Fe71 O80 1.935 . S
Fe71 O82 2.077 . S
Fe71 O90 1.935 . S
C72 O84 1.381 . S
C72 O85 1.421 . S
O73 Fe64 2.077 . S
O73 C86 1.381 . S
O74 Fe67 1.935 . S
O74 C86 1.421 . S
O75 Fe71 2.077 . S
O75 C91 1.381 . S
O76 Fe66 1.935 . S
O76 C91 1.421 . S
O77 Fe66 2.077 . S
O77 C81 1.381 . S
O78 Fe64 1.935 . S
O78 C81 1.421 . S
O79 Fe67 2.077 . S
O79 C87 1.381 . S
O80 Fe71 1.935 . S
O80 C87 1.421 . S
C81 O77 1.381 . S
C81 O78 1.421 . S
O82 Fe71 2.077 . S
O82 C94 1.381 . S
O83 Fe66 1.935 . S
O83 C94 1.421 . S
O84 Fe64 2.077 . S
O84 C72 1.381 . S
O85 Fe67 1.935 . S
O85 C72 1.421 . S
C86 O73 1.381 . S
C86 O74 1.421 . S
C87 O79 1.381 . S
C87 O80 1.421 . S
C88 O89 1.381 . S
C88 O90 1.421 . S
O89 Fe67 2.077 . S
O89 C88 1.381 . S
O90 Fe71 1.935 . S
O90 C88 1.421 . S
C91 O75 1.381 . S
C91 O76 1.421 . S
O92 Fe66 2.077 . S
O92 C95 1.381 . S
O93 Fe64 1.935 . S
O93 C95 1.421 . S
C94 O82 1.381 . S
C94 O83 1.421 . S
C95 O92 1.381 . S
C95 O93 1.421 . S
Fe96 O97 1.886 . S
Fe96 O100 1.715 . S
Fe96 O105 2.077 . S
Fe96 O110 1.935 . S
Fe96 O116 2.077 . S
Fe96 O125 1.935 . S
O97 Fe96 1.886 . S
O97 Fe99 1.715 . S
Fe98 O100 1.886 . S
Fe98 O101 1.715 . S
Fe98 O108 1.935 . S
Fe98 O109 2.077 . S
Fe98 O115 1.935 . S
Fe98 O124 2.077 . S
Fe99 O97 1.715 . S
Fe99 O102 1.886 . S
Fe99 O106 1.935 . S
Fe99 O111 2.077 . S
Fe99 O117 1.935 . S
Fe99 O121 2.077 . S
O100 Fe96 1.715 . S
O100 Fe98 1.886 . S
O101 Fe98 1.715 . S
O101 Fe103 1.886 . S
O102 Fe99 1.886 . S
O102 Fe103 1.715 . S
Fe103 O101 1.886 . S
Fe103 O102 1.715 . S
Fe103 O107 2.077 . S
Fe103 O112 1.935 . S
Fe103 O114 2.077 . S
Fe103 O122 1.935 . S
C104 O116 1.381 . S
C104 O117 1.421 . S
O105 Fe96 2.077 . S
O105 C118 1.381 . S
O106 Fe99 1.935 . S
O106 C118 1.421 . S
O107 Fe103 2.077 . S
O107 C123 1.381 . S
O108 Fe98 1.935 . S
O108 C123 1.421 . S
O109 Fe98 2.077 . S
O109 C113 1.381 . S
O110 Fe96 1.935 . S
O110 C113 1.421 . S
O111 Fe99 2.077 . S
O111 C119 1.381 . S
O112 Fe103 1.935 . S
O112 C119 1.421 . S
C113 O109 1.381 . S
C113 O110 1.421 . S
O114 Fe103 2.077 . S
O114 C126 1.381 . S
O115 Fe98 1.935 . S
O115 C126 1.421 . S
O116 Fe96 2.077 . S
O116 C104 1.381 . S
O117 Fe99 1.935 . S
O117 C104 1.421 . S
C118 O105 1.381 . S
C118 O106 1.421 . S
C119 O111 1.381 . S
C119 O112 1.421 . S
C120 O121 1.381 . S
C120 O122 1.421 . S
O121 Fe99 2.077 . S
O121 C120 1.381 . S
O122 Fe103 1.935 . S
O122 C120 1.421 . S
C123 O107 1.381 . S
C123 O108 1.421 . S
O124 Fe98 2.077 . S
O124 C127 1.381 . S
O125 Fe96 1.935 . S
O125 C127 1.421 . S
C126 O114 1.381 . S
C126 O115 1.421 . S
C127 O124 1.381 . S
C127 O125 1.421 . S
H128 C129 0.951 . S
C129 H128 0.951 . S
C129 C135 1.265 1_455 S
H130 C135 0.950 . S
H131 C139 0.949 . S
H132 C140 0.950 . S
H133 C141 0.951 . S
H134 C142 0.951 . S
C135 C129 1.265 1_655 S
C135 H130 0.950 . S
C135 C136 1.478 . S
C136 C135 1.478 . S
C136 C137 1.397 . S
C136 C153 1.394 1_655 S
C137 C136 1.397 . S
C137 C138 1.438 . S
C137 C142 1.429 . S
C138 C137 1.438 . S
C138 C139 1.428 . S
C138 C151 1.394 1_655 S
C139 H131 0.949 . S
C139 C138 1.428 . S
C139 C140 1.345 . S
C140 H132 0.950 . S
C140 C139 1.345 . S
C140 C141 1.424 . S
C141 H133 0.951 . S
C141 C140 1.424 . S
C141 C142 1.347 . S
C142 H134 0.951 . S
C142 C137 1.429 . S
C142 C141 1.347 . S
H143 C144 0.951 . S
C144 H143 0.951 . S
C144 C150 1.265 1_655 S
H145 C150 0.950 . S
H146 C154 0.949 . S
H147 C155 0.950 . S
H148 C156 0.951 . S
H149 C157 0.951 . S
C150 C144 1.265 1_455 S
C150 H145 0.950 . S
C150 C151 1.478 . S
C151 C138 1.394 1_455 S
C151 C150 1.478 . S
C151 C152 1.397 . S
C152 C151 1.397 . S
C152 C153 1.438 . S
C152 C157 1.429 . S
C153 C136 1.394 1_455 S
C153 C152 1.438 . S
C153 C154 1.428 . S
C154 H146 0.949 . S
C154 C153 1.428 . S
C154 C155 1.345 . S
C155 H147 0.950 . S
C155 C154 1.345 . S
C155 C156 1.424 . S
C156 H148 0.951 . S
C156 C155 1.424 . S
C156 C157 1.347 . S
C157 H149 0.951 . S
C157 C152 1.429 . S
C157 C156 1.347 . S
H158 C159 0.951 1_655 S
C159 H158 0.951 1_455 S
C159 C165 1.265 . S
H160 C165 0.950 . S
H161 C169 0.949 1_655 S
H162 C170 0.950 . S
H163 C171 0.951 . S
H164 C172 0.951 . S
C165 C159 1.265 . S
C165 H160 0.950 . S
C165 C166 1.478 . S
C166 C165 1.478 . S
C166 C167 1.397 . S
C166 C183 1.394 1_455 S
C167 C166 1.397 . S
C167 C168 1.438 . S
C167 C172 1.429 . S
C168 C167 1.438 . S
C168 C169 1.428 . S
C168 C181 1.394 1_455 S
C169 H161 0.949 1_455 S
C169 C168 1.428 . S
C169 C170 1.345 . S
C170 H162 0.950 . S
C170 C169 1.345 . S
C170 C171 1.424 . S
C171 H163 0.951 . S
C171 C170 1.424 . S
C171 C172 1.347 . S
C172 H164 0.951 . S
C172 C167 1.429 . S
C172 C171 1.347 . S
H173 C174 0.951 1_455 S
C174 H173 0.951 1_655 S
C174 C180 1.265 . S
H175 C180 0.950 . S
H176 C184 0.949 1_455 S
H177 C185 0.950 . S
H178 C186 0.951 . S
H179 C187 0.951 . S
C180 C174 1.265 . S
C180 H175 0.950 . S
C180 C181 1.478 . S
C181 C168 1.394 1_655 S
C181 C180 1.478 . S
C181 C182 1.397 . S
C182 C181 1.397 . S
C182 C183 1.438 . S
C182 C187 1.429 . S
C183 C166 1.394 1_655 S
C183 C182 1.438 . S
C183 C184 1.428 . S
C184 H176 0.949 1_655 S
C184 C183 1.428 . S
C184 C185 1.345 . S
C185 H177 0.950 . S
C185 C184 1.345 . S
C185 C186 1.424 . S
C186 H178 0.951 . S
C186 C185 1.424 . S
C186 C187 1.347 . S
C187 H179 0.951 . S
C187 C182 1.429 . S
C187 C186 1.347 . S
H188 C189 0.951 . S
C189 H188 0.951 . S
C189 C195 1.265 . S
H190 C195 0.950 . S
H191 C199 0.949 . S
H192 C200 0.950 . S
H193 C201 0.951 . S
H194 C202 0.951 . S
C195 C189 1.265 . S
C195 H190 0.950 . S
C195 C196 1.478 . S
C196 C195 1.478 . S
C196 C197 1.397 . S
C196 C213 1.394 . S
C197 C196 1.397 . S
C197 C198 1.438 . S
C197 C202 1.429 . S
C198 C197 1.438 . S
C198 C199 1.428 . S
C198 C211 1.394 . S
C199 H191 0.949 . S
C199 C198 1.428 . S
C199 C200 1.345 . S
C200 H192 0.950 . S
C200 C199 1.345 . S
C200 C201 1.424 . S
C201 H193 0.951 . S
C201 C200 1.424 . S
C201 C202 1.347 . S
C202 H194 0.951 . S
C202 C197 1.429 . S
C202 C201 1.347 . S
H203 C204 0.951 . S
C204 H203 0.951 . S
C204 C210 1.265 . S
H205 C210 0.950 . S
H206 C214 0.949 . S
H207 C215 0.950 . S
H208 C216 0.951 . S
H209 C217 0.951 . S
C210 C204 1.265 . S
C210 H205 0.950 . S
C210 C211 1.478 . S
C211 C198 1.394 . S
C211 C210 1.478 . S
C211 C212 1.397 . S
C212 C211 1.397 . S
C212 C213 1.438 . S
C212 C217 1.429 . S
C213 C196 1.394 . S
C213 C212 1.438 . S
C213 C214 1.428 . S
C214 H206 0.949 . S
C214 C213 1.428 . S
C214 C215 1.345 . S
C215 H207 0.950 . S
C215 C214 1.345 . S
C215 C216 1.424 . S
C216 H208 0.951 . S
C216 C215 1.424 . S
C216 C217 1.347 . S
C217 H209 0.951 . S
C217 C212 1.429 . S
C217 C216 1.347 . S
H218 C219 0.951 . S
C219 H218 0.951 . S
C219 C225 1.265 . S
H220 C225 0.950 . S
H221 C229 0.949 . S
H222 C230 0.950 . S
H223 C231 0.951 . S
H224 C232 0.951 . S
C225 C219 1.265 . S
C225 H220 0.950 . S
C225 C226 1.478 . S
C226 C225 1.478 . S
C226 C227 1.397 . S
C226 C243 1.394 . S
C227 C226 1.397 . S
C227 C228 1.438 . S
C227 C232 1.429 . S
C228 C227 1.438 . S
C228 C229 1.428 . S
C228 C241 1.394 . S
C229 H221 0.949 . S
C229 C228 1.428 . S
C229 C230 1.345 . S
C230 H222 0.950 . S
C230 C229 1.345 . S
C230 C231 1.424 . S
C231 H223 0.951 . S
C231 C230 1.424 . S
C231 C232 1.347 . S
C232 H224 0.951 . S
C232 C227 1.429 . S
C232 C231 1.347 . S
H233 C234 0.951 . S
C234 H233 0.951 . S
C234 C240 1.265 . S
H235 C240 0.950 . S
H236 C244 0.949 . S
H237 C245 0.950 . S
H238 C246 0.951 . S
H239 C247 0.951 . S
C240 C234 1.265 . S
C240 H235 0.950 . S
C240 C241 1.478 . S
C241 C228 1.394 . S
C241 C240 1.478 . S
C241 C242 1.397 . S
C242 C241 1.397 . S
C242 C243 1.438 . S
C242 C247 1.429 . S
C243 C226 1.394 . S
C243 C242 1.438 . S
C243 C244 1.428 . S
C244 H236 0.949 . S
C244 C243 1.428 . S
C244 C245 1.345 . S
C245 H237 0.950 . S
C245 C244 1.345 . S
C245 C246 1.424 . S
C246 H238 0.951 . S
C246 C245 1.424 . S
C246 C247 1.347 . S
C247 H239 0.951 . S
C247 C242 1.429 . S
C247 C246 1.347 . S
H248 C249 0.951 . S
C249 H248 0.951 . S
C249 C255 1.265 . S
H250 C255 0.950 . S
H251 C259 0.949 . S
H252 C260 0.950 . S
H253 C261 0.951 . S
H254 C262 0.951 . S
C255 C249 1.265 . S
C255 H250 0.950 . S
C255 C256 1.478 . S
C256 C255 1.478 . S
C256 C257 1.397 . S
C256 C273 1.394 . S
C257 C256 1.397 . S
C257 C258 1.438 . S
C257 C262 1.429 . S
C258 C257 1.438 . S
C258 C259 1.428 . S
C258 C271 1.394 . S
C259 H251 0.949 . S
C259 C258 1.428 . S
C259 C260 1.345 . S
C260 H252 0.950 . S
C260 C259 1.345 . S
C260 C261 1.424 . S
C261 H253 0.951 . S
C261 C260 1.424 . S
C261 C262 1.347 . S
C262 H254 0.951 . S
C262 C257 1.429 . S
C262 C261 1.347 . S
H263 C264 0.951 . S
C264 H263 0.951 . S
C264 C270 1.265 . S
H265 C270 0.950 . S
H266 C274 0.949 . S
H267 C275 0.950 . S
H268 C276 0.951 . S
H269 C277 0.951 . S
C270 C264 1.265 . S
C270 H265 0.950 . S
C270 C271 1.478 . S
C271 C258 1.394 . S
C271 C270 1.478 . S
C271 C272 1.397 . S
C272 C271 1.397 . S
C272 C273 1.438 . S
C272 C277 1.429 . S
C273 C256 1.394 . S
C273 C272 1.438 . S
C273 C274 1.428 . S
C274 H266 0.949 . S
C274 C273 1.428 . S
C274 C275 1.345 . S
C275 H267 0.950 . S
C275 C274 1.345 . S
C275 C276 1.424 . S
C276 H268 0.951 . S
C276 C275 1.424 . S
C276 C277 1.347 . S
C277 H269 0.951 . S
C277 C272 1.429 . S
C277 C276 1.347 . S
H278 C279 0.951 . S
C279 H278 0.951 . S
C279 C285 1.265 . S
H280 C285 0.950 . S
H281 C289 0.949 . S
H282 C290 0.950 . S
H283 C291 0.951 . S
H284 C292 0.951 . S
C285 C279 1.265 . S
C285 H280 0.950 . S
C285 C286 1.478 . S
C286 C285 1.478 . S
C286 C287 1.397 . S
C286 C303 1.394 . S
C287 C286 1.397 . S
C287 C288 1.438 . S
C287 C292 1.429 . S
C288 C287 1.438 . S
C288 C289 1.428 . S
C288 C301 1.394 . S
C289 H281 0.949 . S
C289 C288 1.428 . S
C289 C290 1.345 . S
C290 H282 0.950 . S
C290 C289 1.345 . S
C290 C291 1.424 . S
C291 H283 0.951 . S
C291 C290 1.424 . S
C291 C292 1.347 . S
C292 H284 0.951 . S
C292 C287 1.429 . S
C292 C291 1.347 . S
H293 C294 0.951 . S
C294 H293 0.951 . S
C294 C300 1.265 . S
H295 C300 0.950 . S
H296 C304 0.949 . S
H297 C305 0.950 . S
H298 C306 0.951 . S
H299 C307 0.951 . S
C300 C294 1.265 . S
C300 H295 0.950 . S
C300 C301 1.478 . S
C301 C288 1.394 . S
C301 C300 1.478 . S
C301 C302 1.397 . S
C302 C301 1.397 . S
C302 C303 1.438 . S
C302 C307 1.429 . S
C303 C286 1.394 . S
C303 C302 1.438 . S
C303 C304 1.428 . S
C304 H296 0.949 . S
C304 C303 1.428 . S
C304 C305 1.345 . S
C305 H297 0.950 . S
C305 C304 1.345 . S
C305 C306 1.424 . S
C306 H298 0.951 . S
C306 C305 1.424 . S
C306 C307 1.347 . S
C307 H299 0.951 . S
C307 C302 1.429 . S
C307 C306 1.347 . S
H308 C309 0.951 . S
C309 H308 0.951 . S
C309 C315 1.265 . S
H310 C315 0.950 . S
H311 C319 0.949 . S
H312 C320 0.950 . S
H313 C321 0.951 . S
H314 C322 0.951 . S
C315 C309 1.265 . S
C315 H310 0.950 . S
C315 C316 1.478 . S
C316 C315 1.478 . S
C316 C317 1.397 . S
C316 C333 1.394 . S
C317 C316 1.397 . S
C317 C318 1.438 1_655 S
C317 C322 1.429 . S
C318 C317 1.438 1_455 S
C318 C319 1.428 . S
C318 C331 1.394 . S
C319 H311 0.949 . S
C319 C318 1.428 . S
C319 C320 1.345 . S
C320 H312 0.950 . S
C320 C319 1.345 . S
C320 C321 1.424 1_455 S
C321 H313 0.951 . S
C321 C320 1.424 1_655 S
C321 C322 1.347 . S
C322 H314 0.951 . S
C322 C317 1.429 . S
C322 C321 1.347 . S
H323 C324 0.951 . S
C324 H323 0.951 . S
C324 C330 1.265 . S
H325 C330 0.950 . S
H326 C334 0.949 . S
H327 C335 0.950 . S
H328 C336 0.951 . S
H329 C337 0.951 . S
C330 C324 1.265 . S
C330 H325 0.950 . S
C330 C331 1.478 . S
C331 C318 1.394 . S
C331 C330 1.478 . S
C331 C332 1.397 . S
C332 C331 1.397 . S
C332 C333 1.438 1_455 S
C332 C337 1.429 . S
C333 C316 1.394 . S
C333 C332 1.438 1_655 S
C333 C334 1.428 . S
C334 H326 0.949 . S
C334 C333 1.428 . S
C334 C335 1.345 . S
C335 H327 0.950 . S
C335 C334 1.345 . S
C335 C336 1.424 1_655 S
C336 H328 0.951 . S
C336 C335 1.424 1_455 S
C336 C337 1.347 . S
C337 H329 0.951 . S
C337 C332 1.429 . S
C337 C336 1.347 . S
H338 C339 0.951 . S
C339 H338 0.951 . S
C339 C345 1.265 . S
H340 C345 0.950 . S
H341 C349 0.949 . S
H342 C350 0.950 . S
H343 C351 0.951 . S
H344 C352 0.951 . S
C345 C339 1.265 . S
C345 H340 0.950 . S
C345 C346 1.478 . S
C346 C345 1.478 . S
C346 C347 1.397 . S
C346 C363 1.394 . S
C347 C346 1.397 . S
C347 C348 1.438 1_655 S
C347 C352 1.429 . S
C348 C347 1.438 1_455 S
C348 C349 1.428 . S
C348 C361 1.394 . S
C349 H341 0.949 . S
C349 C348 1.428 . S
C349 C350 1.345 . S
C350 H342 0.950 . S
C350 C349 1.345 . S
C350 C351 1.424 1_455 S
C351 H343 0.951 . S
C351 C350 1.424 1_655 S
C351 C352 1.347 . S
C352 H344 0.951 . S
C352 C347 1.429 . S
C352 C351 1.347 . S
H353 C354 0.951 . S
C354 H353 0.951 . S
C354 C360 1.265 . S
H355 C360 0.950 . S
H356 C364 0.949 . S
H357 C365 0.950 . S
H358 C366 0.951 . S
H359 C367 0.951 . S
C360 C354 1.265 . S
C360 H355 0.950 . S
C360 C361 1.478 . S
C361 C348 1.394 . S
C361 C360 1.478 . S
C361 C362 1.397 . S
C362 C361 1.397 . S
C362 C363 1.438 1_455 S
C362 C367 1.429 . S
C363 C346 1.394 . S
C363 C362 1.438 1_655 S
C363 C364 1.428 . S
C364 H356 0.949 . S
C364 C363 1.428 . S
C364 C365 1.345 . S
C365 H357 0.950 . S
C365 C364 1.345 . S
C365 C366 1.424 1_655 S
C366 H358 0.951 . S
C366 C365 1.424 1_455 S
C366 C367 1.347 . S
C367 H359 0.951 . S
C367 C362 1.429 . S
C367 C366 1.347 . S
H368 C369 0.951 . S
C369 H368 0.951 . S
C369 C375 1.265 . S
H370 C375 0.950 . S
H371 C379 0.949 . S
H372 C380 0.950 . S
H373 C381 0.951 . S
H374 C382 0.951 . S
C375 C369 1.265 . S
C375 H370 0.950 . S
C375 C376 1.478 . S
C376 C375 1.478 . S
C376 C377 1.397 . S
C376 C393 1.394 . S
C377 C376 1.397 . S
C377 C378 1.438 . S
C377 C382 1.429 . S
C378 C377 1.438 . S
C378 C379 1.428 . S
C378 C391 1.394 . S
C379 H371 0.949 . S
C379 C378 1.428 . S
C379 C380 1.345 . S
C380 H372 0.950 . S
C380 C379 1.345 . S
C380 C381 1.424 . S
C381 H373 0.951 . S
C381 C380 1.424 . S
C381 C382 1.347 . S
C382 H374 0.951 . S
C382 C377 1.429 . S
C382 C381 1.347 . S
H383 C384 0.951 . S
C384 H383 0.951 . S
C384 C390 1.265 . S
H385 C390 0.950 . S
H386 C394 0.949 . S
H387 C395 0.950 . S
H388 C396 0.951 . S
H389 C397 0.951 . S
C390 C384 1.265 . S
C390 H385 0.950 . S
C390 C391 1.478 . S
C391 C378 1.394 . S
C391 C390 1.478 . S
C391 C392 1.397 . S
C392 C391 1.397 . S
C392 C393 1.438 . S
C392 C397 1.429 . S
C393 C376 1.394 . S
C393 C392 1.438 . S
C393 C394 1.428 . S
C394 H386 0.949 . S
C394 C393 1.428 . S
C394 C395 1.345 . S
C395 H387 0.950 . S
C395 C394 1.345 . S
C395 C396 1.424 . S
C396 H388 0.951 . S
C396 C395 1.424 . S
C396 C397 1.347 . S
C397 H389 0.951 . S
C397 C392 1.429 . S
C397 C396 1.347 . S
H398 C399 0.951 . S
C399 H398 0.951 . S
C399 C405 1.265 . S
H400 C405 0.950 . S
H401 C409 0.949 . S
H402 C410 0.950 . S
H403 C411 0.951 . S
H404 C412 0.951 1_556 S
C405 C399 1.265 . S
C405 H400 0.950 . S
C405 C406 1.478 . S
C406 C405 1.478 . S
C406 C407 1.397 1_556 S
C406 C423 1.394 . S
C407 C406 1.397 1_554 S
C407 C408 1.438 . S
C407 C412 1.429 . S
C408 C407 1.438 . S
C408 C409 1.428 . S
C408 C421 1.394 . S
C409 H401 0.949 . S
C409 C408 1.428 . S
C409 C410 1.345 . S
C410 H402 0.950 . S
C410 C409 1.345 . S
C410 C411 1.424 . S
C411 H403 0.951 . S
C411 C410 1.424 . S
C411 C412 1.347 . S
C412 H404 0.951 1_554 S
C412 C407 1.429 . S
C412 C411 1.347 . S
H413 C414 0.951 . S
C414 H413 0.951 . S
C414 C420 1.265 . S
H415 C420 0.950 . S
H416 C424 0.949 . S
H417 C425 0.950 . S
H418 C426 0.951 . S
H419 C427 0.951 1_554 S
C420 C414 1.265 . S
C420 H415 0.950 . S
C420 C421 1.478 . S
C421 C408 1.394 . S
C421 C420 1.478 . S
C421 C422 1.397 1_554 S
C422 C421 1.397 1_556 S
C422 C423 1.438 . S
C422 C427 1.429 . S
C423 C406 1.394 . S
C423 C422 1.438 . S
C423 C424 1.428 . S
C424 H416 0.949 . S
C424 C423 1.428 . S
C424 C425 1.345 . S
C425 H417 0.950 . S
C425 C424 1.345 . S
C425 C426 1.424 . S
C426 H418 0.951 . S
C426 C425 1.424 . S
C426 C427 1.347 . S
C427 H419 0.951 1_556 S
C427 C422 1.429 . S
C427 C426 1.347 . S
H428 C429 0.951 . S
C429 H428 0.951 . S
C429 C435 1.265 . S
H430 C435 0.950 . S
H431 C439 0.949 . S
H432 C440 0.950 . S
H433 C441 0.951 . S
H434 C442 0.951 . S
C435 C429 1.265 . S
C435 H430 0.950 . S
C435 C436 1.478 . S
C436 C435 1.478 . S
C436 C437 1.397 . S
C436 C453 1.394 . S
C437 C436 1.397 . S
C437 C438 1.438 . S
C437 C442 1.429 . S
C438 C437 1.438 . S
C438 C439 1.428 . S
C438 C451 1.394 . S
C439 H431 0.949 . S
C439 C438 1.428 . S
C439 C440 1.345 . S
C440 H432 0.950 . S
C440 C439 1.345 . S
C440 C441 1.424 . S
C441 H433 0.951 . S
C441 C440 1.424 . S
C441 C442 1.347 . S
C442 H434 0.951 . S
C442 C437 1.429 . S
C442 C441 1.347 . S
H443 C444 0.951 . S
C444 H443 0.951 . S
C444 C450 1.265 . S
H445 C450 0.950 . S
H446 C454 0.949 . S
H447 C455 0.950 . S
H448 C456 0.951 . S
H449 C457 0.951 . S
C450 C444 1.265 . S
C450 H445 0.950 . S
C450 C451 1.478 . S
C451 C438 1.394 . S
C451 C450 1.478 . S
C451 C452 1.397 . S
C452 C451 1.397 . S
C452 C453 1.438 . S
C452 C457 1.429 . S
C453 C436 1.394 . S
C453 C452 1.438 . S
C453 C454 1.428 . S
C454 H446 0.949 . S
C454 C453 1.428 . S
C454 C455 1.345 . S
C455 H447 0.950 . S
C455 C454 1.345 . S
C455 C456 1.424 . S
C456 H448 0.951 . S
C456 C455 1.424 . S
C456 C457 1.347 . S
C457 H449 0.951 . S
C457 C452 1.429 . S
C457 C456 1.347 . S
H458 C459 0.951 . S
C459 H458 0.951 . S
C459 C465 1.265 . S
H460 C465 0.950 . S
H461 C469 0.949 . S
H462 C470 0.950 . S
H463 C471 0.951 . S
H464 C472 0.951 . S
C465 C459 1.265 . S
C465 H460 0.950 . S
C465 C466 1.478 . S
C466 C465 1.478 . S
C466 C467 1.397 1_554 S
C466 C483 1.394 . S
C467 C466 1.397 1_556 S
C467 C468 1.438 . S
C467 C472 1.429 . S
C468 C467 1.438 . S
C468 C469 1.428 . S
C468 C481 1.394 . S
C469 H461 0.949 . S
C469 C468 1.428 . S
C469 C470 1.345 . S
C470 H462 0.950 . S
C470 C469 1.345 . S
C470 C471 1.424 . S
C471 H463 0.951 . S
C471 C470 1.424 . S
C471 C472 1.347 . S
C472 H464 0.951 . S
C472 C467 1.429 . S
C472 C471 1.347 . S
H473 C474 0.951 . S
C474 H473 0.951 . S
C474 C480 1.265 . S
H475 C480 0.950 . S
H476 C484 0.949 . S
H477 C485 0.950 . S
H478 C486 0.951 . S
H479 C487 0.951 . S
C480 C474 1.265 . S
C480 H475 0.950 . S
C480 C481 1.478 . S
C481 C468 1.394 . S
C481 C480 1.478 . S
C481 C482 1.397 1_556 S
C482 C481 1.397 1_554 S
C482 C483 1.438 . S
C482 C487 1.429 . S
C483 C466 1.394 . S
C483 C482 1.438 . S
C483 C484 1.428 . S
C484 H476 0.949 . S
C484 C483 1.428 . S
C484 C485 1.345 . S
C485 H477 0.950 . S
C485 C484 1.345 . S
C485 C486 1.424 . S
C486 H478 0.951 . S
C486 C485 1.424 . S
C486 C487 1.347 . S
C487 H479 0.951 . S
C487 C482 1.429 . S
C487 C486 1.347 . S
H488 C489 0.951 . S
C489 H488 0.951 . S
C489 C495 1.265 . S
H490 C495 0.950 1_556 S
H491 C499 0.949 1_565 S
H492 C500 0.950 . S
H493 C501 0.951 . S
H494 C502 0.951 1_655 S
C495 C489 1.265 . S
C495 H490 0.950 1_554 S
C495 C496 1.478 . S
C496 C495 1.478 . S
C496 C497 1.397 1_654 S
C496 C513 1.394 1_545 S
C497 C496 1.397 1_456 S
C497 C498 1.438 . S
C497 C502 1.429 . S
C498 C497 1.438 . S
C498 C499 1.428 . S
C498 C511 1.394 1_545 S
C499 H491 0.949 1_545 S
C499 C498 1.428 . S
C499 C500 1.345 . S
C500 H492 0.950 . S
C500 C499 1.345 . S
C500 C501 1.424 . S
C501 H493 0.951 . S
C501 C500 1.424 . S
C501 C502 1.347 . S
C502 H494 0.951 1_455 S
C502 C497 1.429 . S
C502 C501 1.347 . S
H503 C504 0.951 . S
C504 H503 0.951 . S
C504 C510 1.265 . S
H505 C510 0.950 1_554 S
H506 C514 0.949 1_545 S
H507 C515 0.950 . S
H508 C516 0.951 . S
H509 C517 0.951 1_455 S
C510 C504 1.265 . S
C510 H505 0.950 1_556 S
C510 C511 1.478 . S
C511 C498 1.394 1_565 S
C511 C510 1.478 . S
C511 C512 1.397 1_456 S
C512 C511 1.397 1_654 S
C512 C513 1.438 . S
C512 C517 1.429 . S
C513 C496 1.394 1_565 S
C513 C512 1.438 . S
C513 C514 1.428 . S
C514 H506 0.949 1_565 S
C514 C513 1.428 . S
C514 C515 1.345 . S
C515 H507 0.950 . S
C515 C514 1.345 . S
C515 C516 1.424 . S
C516 H508 0.951 . S
C516 C515 1.424 . S
C516 C517 1.347 . S
C517 H509 0.951 1_655 S
C517 C512 1.429 . S
C517 C516 1.347 . S
H518 C519 0.951 . S
C519 H518 0.951 . S
C519 C525 1.265 . S
H520 C525 0.950 . S
H521 C529 0.949 . S
H522 C530 0.950 . S
H523 C531 0.951 . S
H524 C532 0.953 . S
C525 C519 1.265 . S
C525 H520 0.950 . S
C525 C526 1.478 . S
C526 C525 1.478 . S
C526 C527 1.397 1_545 S
C526 C543 1.394 1_455 S
C527 C526 1.397 1_565 S
C527 C528 1.438 . S
C527 C532 1.429 . S
C528 C527 1.438 . S
C528 C529 1.428 . S
C528 C541 1.394 1_455 S
C529 H521 0.949 . S
C529 C528 1.428 . S
C529 C530 1.345 . S
C530 H522 0.950 . S
C530 C529 1.345 . S
C530 C531 1.424 . S
C531 H523 0.951 . S
C531 C530 1.424 . S
C531 C532 1.347 . S
C532 H524 0.953 . S
C532 C527 1.429 . S
C532 C531 1.347 . S
H533 C534 0.951 . S
C534 H533 0.951 . S
C534 C540 1.265 . S
H535 C540 0.950 . S
H536 C544 0.949 . S
H537 C545 0.950 . S
H538 C546 0.951 . S
H539 C547 0.953 . S
C540 C534 1.265 . S
C540 H535 0.950 . S
C540 C541 1.478 . S
C541 C528 1.394 1_655 S
C541 C540 1.478 . S
C541 C542 1.397 1_565 S
C542 C541 1.397 1_545 S
C542 C543 1.438 . S
C542 C547 1.429 . S
C543 C526 1.394 1_655 S
C543 C542 1.438 . S
C543 C544 1.428 . S
C544 H536 0.949 . S
C544 C543 1.428 . S
C544 C545 1.345 . S
C545 H537 0.950 . S
C545 C544 1.345 . S
C545 C546 1.424 . S
C546 H538 0.951 . S
C546 C545 1.424 . S
C546 C547 1.347 . S
C547 H539 0.953 . S
C547 C542 1.429 . S
C547 C546 1.347 . S
H548 C549 0.951 . S
C549 H548 0.951 . S
C549 C555 1.265 . S
H550 C555 0.950 . S
H551 C559 0.949 . S
H552 C560 0.950 . S
H553 C561 0.951 . S
H554 C562 0.951 . S
C555 C549 1.265 . S
C555 H550 0.950 . S
C555 C556 1.478 . S
C556 C555 1.478 . S
C556 C557 1.397 1_554 S
C556 C573 1.394 . S
C557 C556 1.397 1_556 S
C557 C558 1.438 . S
C557 C562 1.429 . S
C558 C557 1.438 . S
C558 C559 1.428 . S
C558 C571 1.394 . S
C559 H551 0.949 . S
C559 C558 1.428 . S
C559 C560 1.345 . S
C560 H552 0.950 . S
C560 C559 1.345 . S
C560 C561 1.424 . S
C561 H553 0.951 . S
C561 C560 1.424 . S
C561 C562 1.347 . S
C562 H554 0.951 . S
C562 C557 1.429 . S
C562 C561 1.347 . S
H563 C564 0.951 . S
C564 H563 0.951 . S
C564 C570 1.265 . S
H565 C570 0.950 . S
H566 C574 0.949 . S
H567 C575 0.950 . S
H568 C576 0.951 . S
H569 C577 0.951 . S
C570 C564 1.265 . S
C570 H565 0.950 . S
C570 C571 1.478 . S
C571 C558 1.394 . S
C571 C570 1.478 . S
C571 C572 1.397 1_556 S
C572 C571 1.397 1_554 S
C572 C573 1.438 . S
C572 C577 1.429 . S
C573 C556 1.394 . S
C573 C572 1.438 . S
C573 C574 1.428 . S
C574 H566 0.949 . S
C574 C573 1.428 . S
C574 C575 1.345 . S
C575 H567 0.950 . S
C575 C574 1.345 . S
C575 C576 1.424 . S
C576 H568 0.951 . S
C576 C575 1.424 . S
C576 C577 1.347 . S
C577 H569 0.951 . S
C577 C572 1.429 . S
C577 C576 1.347 . S
H578 C579 0.951 . S
C579 H578 0.951 . S
C579 C585 1.265 . S
H580 C585 0.950 . S
H581 C589 0.949 . S
H582 C590 0.950 . S
H583 C591 0.951 . S
H584 C592 0.951 . S
C585 C579 1.265 . S
C585 H580 0.950 . S
C585 C586 1.478 . S
C586 C585 1.478 . S
C586 C587 1.397 . S
C586 C603 1.394 . S
C587 C586 1.397 . S
C587 C588 1.438 . S
C587 C592 1.429 . S
C588 C587 1.438 . S
C588 C589 1.428 . S
C588 C601 1.394 . S
C589 H581 0.949 . S
C589 C588 1.428 . S
C589 C590 1.345 . S
C590 H582 0.950 . S
C590 C589 1.345 . S
C590 C591 1.424 . S
C591 H583 0.951 . S
C591 C590 1.424 . S
C591 C592 1.347 . S
C592 H584 0.951 . S
C592 C587 1.429 . S
C592 C591 1.347 . S
H593 C594 0.951 . S
C594 H593 0.951 . S
C594 C600 1.265 . S
H595 C600 0.950 . S
H596 C604 0.949 . S
H597 C605 0.950 . S
H598 C606 0.951 . S
H599 C607 0.951 . S
C600 C594 1.265 . S
C600 H595 0.950 . S
C600 C601 1.478 . S
C601 C588 1.394 . S
C601 C600 1.478 . S
C601 C602 1.397 . S
C602 C601 1.397 . S
C602 C603 1.438 . S
C602 C607 1.429 . S
C603 C586 1.394 . S
C603 C602 1.438 . S
C603 C604 1.428 . S
C604 H596 0.949 . S
C604 C603 1.428 . S
C604 C605 1.345 . S
C605 H597 0.950 . S
C605 C604 1.345 . S
C605 C606 1.424 . S
C606 H598 0.951 . S
C606 C605 1.424 . S
C606 C607 1.347 . S
C607 H599 0.951 . S
C607 C602 1.429 . S
C607 C606 1.347 . S
C129 C27 1.300 1_556 S
C144 C8 1.300 . S
C159 C55 1.210 . S
C174 C63 1.210 1_554 S
C189 C91 1.300 1_556 S
C204 C72 1.300 . S
C219 C127 1.305 1_554 S
C234 C119 1.305 . S
C249 C24 1.229 . S
C264 C17 1.229 . S
C279 C40 1.186 . S
C294 C59 1.186 . S
C309 C81 1.181 . S
C324 C88 1.181 . S
C339 C123 1.167 . S
C354 C104 1.167 . S
C369 C120 1.629 . S
C384 C22 1.629 . S
C399 C126 1.622 . S
C414 C23 1.622 . S
C429 C86 1.604 . S
C444 C56 1.604 . S
C459 C87 1.573 . S
C474 C62 1.573 . S
C489 C30 1.635 . S
C504 C49 1.635 . S
C519 C31 1.857 . S
C534 C54 1.857 . S
C549 C94 1.594 . S
C564 C113 1.594 . S
C579 C118 1.839 . S
C594 C95 1.839 . S
