# Generated by pormake.
# Topology ukj, (4)-cn, num edge types: 1
# Building blocks:
#     Node 0, Type 0, BuildingBlock: MUDLON_clean_sbu_0, # of connection points: 4
#     Node 1, Type 0, BuildingBlock: MUDLON_clean_sbu_0, # of connection points: 4
#     Node 2, Type 0, BuildingBlock: MUDLON_clean_sbu_0, # of connection points: 4
#     Node 3, Type 0, BuildingBlock: MUDLON_clean_sbu_0, # of connection points: 4
#     Node 4, Type 0, BuildingBlock: MUDLON_clean_sbu_0, # of connection points: 4
#     Node 5, Type 0, BuildingBlock: MUDLON_clean_sbu_0, # of connection points: 4
#     Node 6, Type 0, BuildingBlock: MUDLON_clean_sbu_0, # of connection points: 4
#     Node 7, Type 0, BuildingBlock: MUDLON_clean_sbu_0, # of connection points: 4
#     Node 8, Type 0, BuildingBlock: MUDLON_clean_sbu_0, # of connection points: 4
#     Node 9, Type 0, BuildingBlock: MUDLON_clean_sbu_0, # of connection points: 4
#     Node 10, Type 0, BuildingBlock: MUDLON_clean_sbu_0, # of connection points: 4
#     Node 11, Type 0, BuildingBlock: MUDLON_clean_sbu_0, # of connection points: 4
#     Node 12, Type 0, BuildingBlock: MUDLON_clean_sbu_0, # of connection points: 4
#     Node 13, Type 0, BuildingBlock: MUDLON_clean_sbu_0, # of connection points: 4
#     Node 14, Type 0, BuildingBlock: MUDLON_clean_sbu_0, # of connection points: 4
#     Node 15, Type 0, BuildingBlock: MUDLON_clean_sbu_0, # of connection points: 4
#     Node 16, Type 0, BuildingBlock: MUDLON_clean_sbu_0, # of connection points: 4
#     Node 17, Type 0, BuildingBlock: MUDLON_clean_sbu_0, # of connection points: 4
#     Node 18, Type 0, BuildingBlock: MUDLON_clean_sbu_0, # of connection points: 4
#     Node 19, Type 0, BuildingBlock: MUDLON_clean_sbu_0, # of connection points: 4
#     Node 20, Type 0, BuildingBlock: MUDLON_clean_sbu_0, # of connection points: 4
#     Node 21, Type 0, BuildingBlock: MUDLON_clean_sbu_0, # of connection points: 4
#     Node 22, Type 0, BuildingBlock: MUDLON_clean_sbu_0, # of connection points: 4
#     Node 23, Type 0, BuildingBlock: MUDLON_clean_sbu_0, # of connection points: 4
#     Node 24, Type 0, BuildingBlock: MUDLON_clean_sbu_0, # of connection points: 4
#     Node 25, Type 0, BuildingBlock: MUDLON_clean_sbu_0, # of connection points: 4
#     Node 26, Type 0, BuildingBlock: MUDLON_clean_sbu_0, # of connection points: 4
#     Node 27, Type 0, BuildingBlock: MUDLON_clean_sbu_0, # of connection points: 4
#     Node 28, Type 0, BuildingBlock: MUDLON_clean_sbu_0, # of connection points: 4
#     Node 29, Type 0, BuildingBlock: MUDLON_clean_sbu_0, # of connection points: 4
#     Node 30, Type 0, BuildingBlock: MUDLON_clean_sbu_0, # of connection points: 4
#     Node 31, Type 0, BuildingBlock: MUDLON_clean_sbu_0, # of connection points: 4
#     Edge 32, Type (0, 0), BuildingBlock: EZIPEK_clean_linker_0, # of connection points: 2
#     Edge 33, Type (0, 0), BuildingBlock: EZIPEK_clean_linker_0, # of connection points: 2
#     Edge 34, Type (0, 0), BuildingBlock: EZIPEK_clean_linker_0, # of connection points: 2
#     Edge 35, Type (0, 0), BuildingBlock: EZIPEK_clean_linker_0, # of connection points: 2
#     Edge 36, Type (0, 0), BuildingBlock: EZIPEK_clean_linker_0, # of connection points: 2
#     Edge 37, Type (0, 0), BuildingBlock: EZIPEK_clean_linker_0, # of connection points: 2
#     Edge 38, Type (0, 0), BuildingBlock: EZIPEK_clean_linker_0, # of connection points: 2
#     Edge 39, Type (0, 0), BuildingBlock: EZIPEK_clean_linker_0, # of connection points: 2
#     Edge 40, Type (0, 0), BuildingBlock: EZIPEK_clean_linker_0, # of connection points: 2
#     Edge 41, Type (0, 0), BuildingBlock: EZIPEK_clean_linker_0, # of connection points: 2
#     Edge 42, Type (0, 0), BuildingBlock: EZIPEK_clean_linker_0, # of connection points: 2
#     Edge 43, Type (0, 0), BuildingBlock: EZIPEK_clean_linker_0, # of connection points: 2
#     Edge 44, Type (0, 0), BuildingBlock: EZIPEK_clean_linker_0, # of connection points: 2
#     Edge 45, Type (0, 0), BuildingBlock: EZIPEK_clean_linker_0, # of connection points: 2
#     Edge 46, Type (0, 0), BuildingBlock: EZIPEK_clean_linker_0, # of connection points: 2
#     Edge 47, Type (0, 0), BuildingBlock: EZIPEK_clean_linker_0, # of connection points: 2
#     Edge 48, Type (0, 0), BuildingBlock: EZIPEK_clean_linker_0, # of connection points: 2
#     Edge 49, Type (0, 0), BuildingBlock: EZIPEK_clean_linker_0, # of connection points: 2
#     Edge 50, Type (0, 0), BuildingBlock: EZIPEK_clean_linker_0, # of connection points: 2
#     Edge 51, Type (0, 0), BuildingBlock: EZIPEK_clean_linker_0, # of connection points: 2
#     Edge 52, Type (0, 0), BuildingBlock: EZIPEK_clean_linker_0, # of connection points: 2
#     Edge 53, Type (0, 0), BuildingBlock: EZIPEK_clean_linker_0, # of connection points: 2
#     Edge 54, Type (0, 0), BuildingBlock: EZIPEK_clean_linker_0, # of connection points: 2
#     Edge 55, Type (0, 0), BuildingBlock: EZIPEK_clean_linker_0, # of connection points: 2
#     Edge 56, Type (0, 0), BuildingBlock: EZIPEK_clean_linker_0, # of connection points: 2
#     Edge 57, Type (0, 0), BuildingBlock: EZIPEK_clean_linker_0, # of connection points: 2
#     Edge 58, Type (0, 0), BuildingBlock: EZIPEK_clean_linker_0, # of connection points: 2
#     Edge 59, Type (0, 0), BuildingBlock: EZIPEK_clean_linker_0, # of connection points: 2
#     Edge 60, Type (0, 0), BuildingBlock: EZIPEK_clean_linker_0, # of connection points: 2
#     Edge 61, Type (0, 0), BuildingBlock: EZIPEK_clean_linker_0, # of connection points: 2
#     Edge 62, Type (0, 0), BuildingBlock: EZIPEK_clean_linker_0, # of connection points: 2
#     Edge 63, Type (0, 0), BuildingBlock: EZIPEK_clean_linker_0, # of connection points: 2
#     Edge 64, Type (0, 0), BuildingBlock: EZIPEK_clean_linker_0, # of connection points: 2
#     Edge 65, Type (0, 0), BuildingBlock: EZIPEK_clean_linker_0, # of connection points: 2
#     Edge 66, Type (0, 0), BuildingBlock: EZIPEK_clean_linker_0, # of connection points: 2
#     Edge 67, Type (0, 0), BuildingBlock: EZIPEK_clean_linker_0, # of connection points: 2
#     Edge 68, Type (0, 0), BuildingBlock: EZIPEK_clean_linker_0, # of connection points: 2
#     Edge 69, Type (0, 0), BuildingBlock: EZIPEK_clean_linker_0, # of connection points: 2
#     Edge 70, Type (0, 0), BuildingBlock: EZIPEK_clean_linker_0, # of connection points: 2
#     Edge 71, Type (0, 0), BuildingBlock: EZIPEK_clean_linker_0, # of connection points: 2
#     Edge 72, Type (0, 0), BuildingBlock: EZIPEK_clean_linker_0, # of connection points: 2
#     Edge 73, Type (0, 0), BuildingBlock: EZIPEK_clean_linker_0, # of connection points: 2
#     Edge 74, Type (0, 0), BuildingBlock: EZIPEK_clean_linker_0, # of connection points: 2
#     Edge 75, Type (0, 0), BuildingBlock: EZIPEK_clean_linker_0, # of connection points: 2
#     Edge 76, Type (0, 0), BuildingBlock: EZIPEK_clean_linker_0, # of connection points: 2
#     Edge 77, Type (0, 0), BuildingBlock: EZIPEK_clean_linker_0, # of connection points: 2
#     Edge 78, Type (0, 0), BuildingBlock: EZIPEK_clean_linker_0, # of connection points: 2
#     Edge 79, Type (0, 0), BuildingBlock: EZIPEK_clean_linker_0, # of connection points: 2
#     Edge 80, Type (0, 0), BuildingBlock: EZIPEK_clean_linker_0, # of connection points: 2
#     Edge 81, Type (0, 0), BuildingBlock: EZIPEK_clean_linker_0, # of connection points: 2
#     Edge 82, Type (0, 0), BuildingBlock: EZIPEK_clean_linker_0, # of connection points: 2
#     Edge 83, Type (0, 0), BuildingBlock: EZIPEK_clean_linker_0, # of connection points: 2
#     Edge 84, Type (0, 0), BuildingBlock: EZIPEK_clean_linker_0, # of connection points: 2
#     Edge 85, Type (0, 0), BuildingBlock: EZIPEK_clean_linker_0, # of connection points: 2
#     Edge 86, Type (0, 0), BuildingBlock: EZIPEK_clean_linker_0, # of connection points: 2
#     Edge 87, Type (0, 0), BuildingBlock: EZIPEK_clean_linker_0, # of connection points: 2
#     Edge 88, Type (0, 0), BuildingBlock: EZIPEK_clean_linker_0, # of connection points: 2
#     Edge 89, Type (0, 0), BuildingBlock: EZIPEK_clean_linker_0, # of connection points: 2
#     Edge 90, Type (0, 0), BuildingBlock: EZIPEK_clean_linker_0, # of connection points: 2
#     Edge 91, Type (0, 0), BuildingBlock: EZIPEK_clean_linker_0, # of connection points: 2
#     Edge 92, Type (0, 0), BuildingBlock: EZIPEK_clean_linker_0, # of connection points: 2
#     Edge 93, Type (0, 0), BuildingBlock: EZIPEK_clean_linker_0, # of connection points: 2
#     Edge 94, Type (0, 0), BuildingBlock: EZIPEK_clean_linker_0, # of connection points: 2
#     Edge 95, Type (0, 0), BuildingBlock: EZIPEK_clean_linker_0, # of connection points: 2
# Relax obj value: 0.028
# Max RMSD: 0.218
# Mean RMSD: 0.216
data_MOF--net-ukj--node1-MUDLON_clean_sbu_0--edge1-EZIPEK_clean_linker_0
_symmetry_space_group_name_H-M    P1
_symmetry_Int_Tables_number       1
_symmetry_cell_setting            triclinic
loop_
_symmetry_equiv_pos_as_xyz
'x, y, z'
_cell_length_a     25.718778
_cell_length_b     43.614661
_cell_length_c     44.50571
_cell_angle_alpha  89.972375
_cell_angle_beta   90.106903
_cell_angle_gamma 90.019048
loop_
_atom_site_label
_atom_site_type_symbol
_atom_site_fract_x
_atom_site_fract_y
_atom_site_fract_z
_atom_type_partial_charge
Mg0 Mg 0.18083 0.33953 0.26547 0.0
C1 C 0.18575 0.35814 0.20193 0.0
O2 O 0.23009 0.34378 0.20585 0.0
C3 C 0.1859 0.35104 0.32997 0.0
O4 O 0.21685 0.32747 0.32583 0.0
C5 C 0.11435 0.28421 0.28564 0.0
O6 O 0.12366 0.29481 0.31269 0.0
O7 O 0.13612 0.29675 0.26308 0.0
O8 O 0.15658 0.36271 0.22453 0.0
O9 O 0.2657 0.33647 0.26393 0.0
C10 C 0.28946 0.36182 0.26777 0.0
O11 O 0.2623 0.38675 0.273 0.0
O12 O 0.16278 0.3627 0.3074 0.0
Mg13 Mg 0.11864 0.90381 0.26921 0.0
C14 C 0.12682 0.88591 0.20579 0.0
O15 O 0.09234 0.90811 0.20532 0.0
C16 C 0.10578 0.89332 0.3335 0.0
O17 O 0.07073 0.91427 0.32719 0.0
C18 C 0.18573 0.95885 0.24959 0.0
O19 O 0.18119 0.94642 0.22287 0.0
O20 O 0.16136 0.94719 0.27169 0.0
O21 O 0.14564 0.87741 0.23088 0.0
O22 O 0.03403 0.90602 0.26563 0.0
C23 C 1.01112 0.88014 0.26711 0.0
O24 O 0.03915 0.85513 0.26998 0.0
O25 O 0.13392 0.88283 0.3124 0.0
Mg26 Mg 0.17876 0.90234 0.02441 0.0
C27 C 0.17714 0.86504 0.08273 0.0
O28 O 0.21685 0.85072 0.07073 0.0
C29 C 0.15879 0.88957 0.96083 0.0
O30 O 0.16688 0.91929 0.96141 0.0
C31 C 0.1101 0.95675 0.03929 0.0
O32 O 0.11532 0.94527 0.06642 0.0
O33 O 0.13592 0.94515 1.01774 0.0
O34 O 0.15214 0.88472 0.06742 0.0
O35 O 0.26391 0.90455 0.02783 0.0
C36 C 0.29372 0.90076 1.0053 0.0
O37 O 0.27362 0.89906 0.97824 0.0
O38 O 0.15935 0.87462 0.9854 0.0
Mg39 Mg 0.11049 0.34011 1.01669 0.0
C40 C 0.10685 0.35637 0.08057 0.0
O41 O 0.06432 0.34017 0.07667 0.0
C42 C 0.10464 0.35249 0.95266 0.0
O43 O 0.07483 0.3284 0.95675 0.0
C44 C 0.17964 0.28663 0.99606 0.0
O45 O 0.17551 0.30016 0.96985 0.0
O46 O 0.15392 0.29688 0.01831 0.0
O47 O 0.13477 0.36274 0.05786 0.0
O48 O 0.02563 0.33736 0.0181 0.0
C49 C 1.00262 0.36319 1.01654 0.0
O50 O 0.03064 0.38827 1.01423 0.0
O51 O 0.12798 0.36413 0.97514 0.0
Mg52 Mg 0.8495 0.65477 0.76579 0.0
C53 C 0.89561 0.62986 0.82567 0.0
O54 O 0.94105 0.63636 0.81392 0.0
C55 C 0.90691 0.63932 0.70857 0.0
O56 O 0.94001 0.65916 0.71987 0.0
C57 C 0.91838 0.70947 0.787 0.0
O58 O 0.90916 0.69905 0.81412 0.0
O59 O 0.89663 0.69687 0.76445 0.0
O60 O 0.85515 0.63143 0.80934 0.0
O61 O 0.76578 0.6615 0.76251 0.0
C62 C 0.7404 0.63661 0.76568 0.0
O63 O 0.76602 0.61092 0.76996 0.0
O64 O 0.86856 0.63041 0.72441 0.0
Mg65 Mg 0.91961 0.09278 0.76878 0.0
C66 C 0.92543 0.10535 0.83317 0.0
O67 O 0.96424 0.08634 0.82883 0.0
C68 C 0.90413 0.10309 0.70521 0.0
O69 O 0.91647 0.07394 0.70693 0.0
C70 C 0.8247 0.05521 0.75972 0.0
O71 O 0.80851 0.08313 0.75378 0.0
O72 O 0.87224 0.05117 0.7669 0.0
O73 O 0.89948 0.11479 0.81068 0.0
O74 O 1.00405 0.08768 0.76719 0.0
C75 C 0.02871 0.11301 0.76762 0.0
O76 O 1.00243 0.13873 0.76979 0.0
O77 O 0.90066 0.11882 0.72913 0.0
Mg78 Mg 0.85825 0.08938 0.0206 0.0
C79 C 0.87631 0.09433 0.95727 0.0
O80 O 0.86422 0.06552 0.96235 0.0
C81 C 0.87818 0.09432 0.08473 0.0
O82 O 0.87405 0.0647 0.08011 0.0
C83 C 0.95195 0.05056 0.02656 0.0
O84 O 0.96892 0.07824 0.0329 0.0
O85 O 0.90399 0.04702 0.02015 0.0
O86 O 0.87799 0.11283 0.97932 0.0
O87 O 0.77352 0.08625 0.02008 0.0
C88 C 0.75014 0.11064 0.02827 0.0
O89 O 0.77769 0.13445 0.03683 0.0
O90 O 0.87605 0.11246 0.06239 0.0
Mg91 Mg 0.91273 0.6483 0.01778 0.0
C92 C 0.91287 0.63592 0.95324 0.0
O93 O 0.94538 0.65888 0.95664 0.0
C94 C 0.90572 0.64258 0.08314 0.0
O95 O 0.92345 0.67048 0.07898 0.0
C96 C 0.82196 0.6892 0.02713 0.0
O97 O 0.80343 0.66224 0.0348 0.0
O98 O 0.86908 0.69122 0.01853 0.0
O99 O 0.89073 0.62474 0.97635 0.0
O100 O 0.99734 0.65273 1.0169 0.0
C101 C 0.02201 0.62799 1.01163 0.0
O102 O 0.99578 0.60271 1.00639 0.0
O103 O 0.89573 0.62588 0.06037 0.0
Mg104 Mg 0.16542 0.84558 0.77352 0.0
C105 C 0.16138 0.85764 0.71017 0.0
O106 O 0.18871 0.83242 0.71343 0.0
C107 C 0.15579 0.8471 0.8383 0.0
O108 O 0.16777 0.81856 0.83195 0.0
C109 C 0.07148 0.80677 0.77812 0.0
O110 O 0.05424 0.83413 0.78535 0.0
O111 O 0.11936 0.80358 0.77148 0.0
O112 O 0.14518 0.87141 0.73353 0.0
O113 O 0.24966 0.84063 0.77267 0.0
C114 C 0.27401 0.86606 0.77335 0.0
O115 O 0.2473 0.89172 0.77417 0.0
O116 O 0.14967 0.8661 0.81688 0.0
Mg117 Mg 0.10417 0.40786 0.76682 0.0
C118 C 0.10137 0.39515 0.70254 0.0
O119 O 0.06182 0.41363 0.70699 0.0
C120 C 0.10203 0.39773 0.83081 0.0
O121 O 0.0757 0.42314 0.82625 0.0
C122 C 0.17678 0.46017 0.78634 0.0
O123 O 0.17889 0.44422 0.81129 0.0
O124 O 0.14643 0.45158 0.76531 0.0
O125 O 0.12732 0.38586 0.72512 0.0
O126 O 0.01929 0.41005 0.76776 0.0
C127 C 0.9954 0.38553 0.76051 0.0
O128 O 0.02241 0.36178 0.7513 0.0
O129 O 0.12237 0.38421 0.80839 0.0
Mg130 Mg 0.1714 0.40598 0.51631 0.0
C131 C 0.17589 0.39025 0.58043 0.0
O132 O 0.21992 0.40474 0.57591 0.0
C133 C 0.17284 0.39638 0.45164 0.0
O134 O 0.19611 0.42287 0.45578 0.0
C135 C 0.08667 0.45089 0.50165 0.0
O136 O 0.07307 0.4275 0.48485 0.0
O137 O 0.12882 0.44931 0.51662 0.0
O138 O 0.14675 0.38443 0.55802 0.0
O139 O 0.25598 0.41 0.518 0.0
C140 C 0.28041 0.38476 0.51527 0.0
O141 O 0.25381 0.35932 0.51156 0.0
O142 O 0.15538 0.38199 0.47437 0.0
Mg143 Mg 0.11146 0.84566 0.52224 0.0
C144 C 0.11764 0.85605 0.58611 0.0
O145 O 0.08972 0.83106 0.58274 0.0
C146 C 0.1053 0.85529 0.45768 0.0
O147 O 0.07473 0.83175 0.46287 0.0
C148 C 0.19581 0.80131 0.50623 0.0
O149 O 0.20802 0.82491 0.48932 0.0
O150 O 0.15519 0.8027 0.52254 0.0
O151 O 0.13365 0.87002 0.5628 0.0
O152 O 0.02695 0.8414 0.52445 0.0
C153 C 1.0015 0.86547 0.51761 0.0
O154 O 0.02691 0.89021 0.50941 0.0
O155 O 0.12849 0.86784 0.47975 0.0
Mg156 Mg 0.8627 0.15155 0.26978 0.0
C157 C 0.86656 0.14144 0.33387 0.0
O158 O 0.84368 0.16817 0.33064 0.0
C159 C 0.87219 0.14135 0.2056 0.0
O160 O 0.85224 0.169 0.20736 0.0
C161 C 0.95915 0.1881 0.27468 0.0
O162 O 0.9759 0.15987 0.27818 0.0
O163 O 0.91077 0.19267 0.27045 0.0
O164 O 0.87936 0.12651 0.31056 0.0
O165 O 0.77871 0.15873 0.2686 0.0
C166 C 0.75164 0.13432 0.27003 0.0
O167 O 0.77536 0.10771 0.27162 0.0
O168 O 0.88304 0.12693 0.22959 0.0
Mg169 Mg 0.92873 0.59438 0.27022 0.0
C170 C 0.87627 0.62402 0.32814 0.0
O171 O 0.83757 0.63392 0.31148 0.0
C172 C 0.90571 0.60155 0.20677 0.0
O173 O 0.91315 0.57204 0.21078 0.0
C174 C 0.8394 0.55173 0.27124 0.0
O175 O 0.8181 0.57852 0.27665 0.0
O176 O 0.88843 0.55033 0.26742 0.0
O177 O 0.91469 0.61054 0.316 0.0
O178 O 1.01324 0.59319 0.26739 0.0
C179 C 0.03513 0.6179 0.27595 0.0
O180 O 1.00641 0.64057 0.28596 0.0
O181 O 0.90644 0.61921 0.22961 0.0
Mg182 Mg 0.86075 0.59892 0.5209 0.0
C183 C 0.84934 0.61048 0.45668 0.0
O184 O 0.81394 0.58982 0.46319 0.0
C185 C 0.9118 0.60822 0.58161 0.0
O186 O 0.93987 0.58502 0.57216 0.0
C187 C 0.94542 0.55492 0.50462 0.0
O188 O 0.95821 0.57897 0.48847 0.0
O189 O 0.90384 0.55576 0.52012 0.0
O190 O 0.87713 0.62138 0.47788 0.0
O191 O 0.77634 0.59495 0.52181 0.0
C192 C 0.75271 0.6205 0.52403 0.0
O193 O 0.78001 0.64584 0.52652 0.0
O194 O 0.87975 0.62097 0.56365 0.0
Mg195 Mg 0.91914 0.15252 0.51951 0.0
C196 C 0.91372 0.13776 0.4567 0.0
O197 O 0.94564 0.16119 0.45869 0.0
C198 C 0.89964 0.15001 0.58434 0.0
O199 O 0.90144 0.17963 0.57927 0.0
C200 C 0.82755 0.19349 0.52486 0.0
O201 O 0.80928 0.16687 0.53381 0.0
O202 O 0.87503 0.19529 0.51692 0.0
O203 O 0.89561 0.12615 0.48066 0.0
O204 O 1.00367 0.15602 0.51868 0.0
C205 C 0.0271 0.13053 0.51539 0.0
O206 O 0.99976 0.1054 0.51159 0.0
O207 O 0.90333 0.13148 0.56242 0.0
Mg208 Mg 0.66372 0.34863 0.76674 0.0
C209 C 0.65717 0.35935 0.70328 0.0
O210 O 0.68115 0.333 0.70684 0.0
C211 C 0.66827 0.35627 0.83202 0.0
O212 O 0.69828 0.33252 0.82673 0.0
C213 C 0.59423 0.2939 0.7831 0.0
O214 O 0.59837 0.30545 0.81018 0.0
O215 O 0.61979 0.30587 0.76161 0.0
O216 O 0.64377 0.37437 0.72653 0.0
O217 O 0.7484 0.3458 0.76491 0.0
C218 C 0.77145 0.3712 0.76978 0.0
O219 O 0.74351 0.39554 0.7762 0.0
O220 O 0.64584 0.36948 0.81002 0.0
Mg221 Mg 0.60561 0.90326 0.76478 0.0
C222 C 0.59402 0.88069 0.70153 0.0
O223 O 0.54512 0.88525 0.70857 0.0
C224 C 0.61067 0.89294 0.82846 0.0
O225 O 0.57927 0.91634 0.82439 0.0
C226 C 0.67183 0.95785 0.74625 0.0
O227 O 0.66812 0.94446 0.71991 0.0
O228 O 0.64584 0.9473 0.76827 0.0
O229 O 0.62877 0.88363 0.72172 0.0
O230 O 0.52045 0.90363 0.76678 0.0
C231 C 0.49863 0.87833 0.77367 0.0
O232 O 0.52764 0.85441 0.78003 0.0
O233 O 0.63087 0.88031 0.8055 0.0
Mg234 Mg 0.66979 0.89916 0.51578 0.0
C235 C 0.66182 0.88629 0.5786 0.0
O236 O 0.69402 0.90949 0.57586 0.0
C237 C 0.66573 0.89936 0.45031 0.0
O238 O 0.6824 0.92693 0.4573 0.0
C239 C 0.58312 0.94316 0.50796 0.0
O240 O 0.56661 0.91891 0.49329 0.0
O241 O 0.62831 0.94252 0.51966 0.0
O242 O 0.64335 0.87407 0.55494 0.0
O243 O 0.75422 0.90132 0.51863 0.0
C244 C 0.77676 0.87542 0.52077 0.0
O245 O 0.74838 0.85041 0.52221 0.0
O246 O 0.65434 0.8807 0.47129 0.0
Mg247 Mg 0.61143 0.34746 0.51494 0.0
C248 C 0.61331 0.3615 0.57916 0.0
O249 O 0.57866 0.33953 0.5765 0.0
C250 C 0.60576 0.35699 0.45078 0.0
O251 O 0.57345 0.33435 0.45634 0.0
C252 C 0.68005 0.29354 0.53419 0.0
O253 O 0.67791 0.30731 0.56036 0.0
O254 O 0.65336 0.3039 0.51233 0.0
O255 O 0.63481 0.37182 0.55551 0.0
O256 O 0.52676 0.34535 0.51538 0.0
C257 C 0.50422 0.37054 0.52165 0.0
O258 O 0.5326 0.39462 0.52843 0.0
O259 O 0.63005 0.36928 0.47261 0.0
Mg260 Mg 0.36919 0.65337 0.26405 0.0
C261 C 0.37448 0.63724 0.32746 0.0
O262 O 0.34363 0.66118 0.32602 0.0
C263 C 0.36292 0.62566 0.20118 0.0
O264 O 0.31818 0.61542 0.21107 0.0
C265 C 0.45974 0.69418 0.26259 0.0
O266 O 0.47861 0.66723 0.25524 0.0
O267 O 0.41158 0.69637 0.26896 0.0
O268 O 0.39219 0.62608 0.3031 0.0
O269 O 0.28403 0.65775 0.26423 0.0
C270 C 0.25804 0.63394 0.27129 0.0
O271 O 0.28297 0.60885 0.27895 0.0
O272 O 0.39371 0.63904 0.21925 0.0
Mg273 Mg 0.41898 0.10269 0.26891 0.0
C274 C 0.42387 0.11353 0.33297 0.0
O275 O 0.45684 0.09119 0.32774 0.0
C276 C 0.40341 0.10801 0.20445 0.0
O277 O 0.42105 0.08004 0.20825 0.0
C278 C 0.32907 0.06099 0.2623 0.0
O279 O 0.30915 0.08806 0.25638 0.0
O280 O 0.37718 0.0591 0.26895 0.0
O281 O 0.39912 0.12517 0.31098 0.0
O282 O 0.50359 0.09993 0.26778 0.0
C283 C 0.52708 0.1254 0.2712 0.0
O284 O 0.4997 0.15046 0.27535 0.0
O285 O 0.39694 0.12514 0.22729 0.0
Mg286 Mg 0.35682 0.09304 0.52079 0.0
C287 C 0.40179 0.12284 0.46133 0.0
O288 O 0.44476 0.12935 0.47601 0.0
C289 C 0.4108 0.10857 0.5789 0.0
O290 O 0.43984 0.08531 0.57069 0.0
C291 C 0.44129 0.04644 0.5079 0.0
O292 O 0.45418 0.06812 0.48893 0.0
O293 O 0.40033 0.04971 0.52365 0.0
O294 O 0.36305 0.11183 0.47535 0.0
O295 O 0.27279 0.08886 0.52457 0.0
C296 C 0.24977 0.11462 0.52238 0.0
O297 O 0.27754 0.13963 0.51884 0.0
O298 O 0.37729 0.11935 0.56066 0.0
Mg299 Mg 0.41931 0.65086 0.51561 0.0
C300 C 0.41732 0.63823 0.45092 0.0
O301 O 0.44384 0.66383 0.45368 0.0
C302 C 0.36292 0.63688 0.57397 0.0
O303 O 0.32658 0.65384 0.56153 0.0
C304 C 0.33572 0.69704 0.49946 0.0
O305 O 0.32403 0.67538 0.48013 0.0
O306 O 0.37561 0.69386 0.51616 0.0
O307 O 0.40088 0.62517 0.47468 0.0
O308 O 0.50353 0.65603 0.51592 0.0
C309 C 0.52835 0.63088 0.51831 0.0
O310 O 0.5022 0.60508 0.52024 0.0
O311 O 0.40281 0.62949 0.55873 0.0
Mg312 Mg 0.67607 0.8481 0.26306 0.0
C313 C 0.66625 0.88812 0.20561 0.0
O314 O 0.70101 0.906 0.21822 0.0
C315 C 0.67695 0.85992 0.32668 0.0
O316 O 0.70165 0.83382 0.32317 0.0
C317 C 0.60866 0.79291 0.24886 0.0
O318 O 0.61311 0.80417 0.2216 0.0
O319 O 0.6341 0.80517 0.27027 0.0
O320 O 0.64807 0.86542 0.22004 0.0
O321 O 0.76103 0.84499 0.2607 0.0
C322 C 0.78629 0.86955 0.26608 0.0
O323 O 0.76075 0.89471 0.27268 0.0
O324 O 0.65958 0.87387 0.30363 0.0
Mg325 Mg 0.62069 0.39815 0.26026 0.0
C326 C 0.62411 0.37921 0.19791 0.0
O327 O 0.59652 0.40454 0.19801 0.0
C328 C 0.60766 0.39117 0.32553 0.0
O329 O 0.57159 0.41116 0.31824 0.0
C330 C 0.69477 0.44978 0.27599 0.0
O331 O 0.69248 0.43579 0.30205 0.0
O332 O 0.66648 0.44014 0.25444 0.0
O333 O 0.64102 0.36867 0.22273 0.0
O334 O 0.53612 0.40166 0.25828 0.0
C335 C 0.51332 0.37579 0.2603 0.0
O336 O 0.5416 0.35079 0.26233 0.0
O337 O 0.63664 0.38028 0.30496 0.0
Mg338 Mg 0.6721 0.40317 0.01912 0.0
C339 C 0.65051 0.35787 0.0737 0.0
O340 O 0.65668 0.33418 0.05587 0.0
C341 C 0.66444 0.39552 0.95587 0.0
O342 O 0.68219 0.42332 0.96079 0.0
C343 C 0.58996 0.45069 0.03108 0.0
O344 O 0.58057 0.43132 0.05301 0.0
O345 O 0.62888 0.44602 1.01405 0.0
O346 O 0.65387 0.385 0.06349 0.0
O347 O 0.75675 0.40546 1.01747 0.0
C348 C 0.77894 0.37967 0.02162 0.0
O349 O 0.75017 0.35545 0.0271 0.0
O350 O 0.65346 0.37849 0.97825 0.0
Mg351 Mg 0.61897 0.84885 1.01755 0.0
C352 C 0.62252 0.86662 0.0814 0.0
O353 O 0.58591 0.84561 0.0807 0.0
C354 C 0.61351 0.85817 0.95298 0.0
O355 O 0.57691 0.838 0.95878 0.0
C356 C 0.68111 0.79263 0.03902 0.0
O357 O 0.6776 0.80608 0.06531 0.0
O358 O 0.65738 0.80406 1.01654 0.0
O359 O 0.64437 0.87441 0.05694 0.0
O360 O 0.53412 0.84994 1.01741 0.0
C361 C 0.51458 0.87669 0.01962 0.0
O362 O 0.54581 0.90023 0.02341 0.0
O363 O 0.6405 0.86866 0.97465 0.0
Mg364 Mg 0.35941 0.15091 0.76601 0.0
C365 C 0.40782 0.12104 0.82479 0.0
O366 O 0.44852 0.11249 0.80914 0.0
C367 C 0.37973 0.1425 0.70302 0.0
O368 O 0.35685 0.16931 0.70551 0.0
C369 C 0.44863 0.19322 0.77078 0.0
O370 O 0.46893 0.16629 0.77678 0.0
O371 O 0.4002 0.19486 0.7649 0.0
O372 O 0.36925 0.13352 0.81169 0.0
O373 O 0.2752 0.15278 0.76087 0.0
C374 C 0.25259 0.12688 0.76306 0.0
O375 O 0.28082 0.1021 0.76695 0.0
O376 O 0.38831 0.12686 0.72672 0.0
Mg377 Mg 0.40717 0.60507 0.76426 0.0
C378 C 0.40291 0.61641 0.82841 0.0
O379 O 0.42821 0.59048 0.82496 0.0
C380 C 0.36324 0.60795 0.70142 0.0
O381 O 0.34274 0.58198 0.71043 0.0
C382 C 0.31819 0.56358 0.777 0.0
O383 O 0.29969 0.59049 0.78473 0.0
O384 O 0.36501 0.56175 0.76786 0.0
O385 O 0.38804 0.63079 0.805 0.0
O386 O 0.49168 0.60132 0.76445 0.0
C387 C 0.51581 0.62675 0.76638 0.0
O388 O 0.48905 0.65231 0.76841 0.0
O389 O 0.38869 0.6243 0.72009 0.0
Mg390 Mg 0.35389 0.59252 1.01379 0.0
C391 C 0.36133 0.61058 0.95172 0.0
O392 O 0.33206 0.58591 0.95244 0.0
C393 C 0.37759 0.63166 0.0719 0.0
O394 O 0.38213 0.65605 0.05477 0.0
C395 C 0.44242 0.55053 0.02047 0.0
O396 O 0.4573 0.57551 0.03452 0.0
O397 O 0.39757 0.55004 1.00828 0.0
O398 O 0.37792 0.62162 0.97644 0.0
O399 O 0.26942 0.58934 1.01076 0.0
C400 C 0.2461 0.61508 1.01173 0.0
O401 O 0.27367 0.64034 1.01393 0.0
O402 O 0.36827 0.60568 0.06027 0.0
Mg403 Mg 0.41948 0.14714 1.01683 0.0
C404 C 0.42936 0.13498 0.9533 0.0
O405 O 0.46193 0.15736 0.95934 0.0
C406 C 0.38205 0.14326 0.07996 0.0
O407 O 0.36961 0.17164 0.07327 0.0
C408 C 0.3296 0.18768 1.00495 0.0
O409 O 0.31226 0.16057 0.99685 0.0
O410 O 0.37635 0.19015 1.01414 0.0
O411 O 0.40329 0.12331 0.97474 0.0
O412 O 0.50377 0.15069 0.01922 0.0
C413 C 0.52664 0.12486 0.02095 0.0
O414 O 0.49884 0.0996 0.02092 0.0
O415 O 0.39977 0.12576 0.05951 0.0
C416 C 0.15354 0.33052 0.15683 0.0
C417 C 0.16335 0.35887 0.17134 0.0
C418 C 0.13424 0.38654 0.1263 0.0
C419 C 0.12927 0.35809 0.11111 0.0
N420 N 0.14591 0.30361 0.10963 0.0
N421 N 0.16854 0.41396 0.16963 0.0
C422 C 0.14232 0.33025 0.12573 0.0
C423 C 0.15514 0.38701 0.15604 0.0
N424 N 0.15304 0.30384 0.17301 0.0
N425 N 0.1177 0.41285 0.11263 0.0
H426 H 0.18285 0.41494 0.19157 0.0
H427 H 0.1686 0.43504 0.15865 0.0
H428 H 0.10323 0.41319 0.09071 0.0
H429 H 0.11521 0.4339 0.12354 0.0
H430 H 0.14065 0.28297 0.16414 0.0
H431 H 0.15974 0.303 0.19612 0.0
H432 H 0.16066 0.28331 0.11858 0.0
H433 H 0.13937 0.30246 0.08652 0.0
C434 C 0.20625 0.87687 0.13529 0.0
C435 C 0.16857 0.86393 0.11561 0.0
C436 C 0.10699 0.85921 0.15735 0.0
C437 C 0.14437 0.87264 0.17685 0.0
N438 N 0.23384 0.88638 0.1865 0.0
N439 N 0.08815 0.83673 0.10851 0.0
C440 C 0.19557 0.87857 0.16657 0.0
C441 C 0.12046 0.85312 0.12691 0.0
N442 N 0.25057 0.88976 0.1239 0.0
N443 N 0.05825 0.85291 0.16792 0.0
H444 H 0.09737 0.8319 0.08618 0.0
H445 H 0.05446 0.82584 0.11581 0.0
H446 H 0.04857 0.85475 0.19061 0.0
H447 H 0.02703 0.8468 0.15427 0.0
H448 H 0.27607 0.90305 0.1366 0.0
H449 H 0.26009 0.88953 0.10116 0.0
H450 H 0.27298 0.88778 0.18071 0.0
H451 H 0.22759 0.88862 0.20948 0.0
C452 C 0.8577 0.64559 0.87596 0.0
C453 C 0.89095 0.626 0.85889 0.0
C454 C 0.93026 0.60684 0.90568 0.0
C455 C 0.89793 0.62685 0.92233 0.0
N456 N 0.82094 0.65786 0.92472 0.0
N457 N 0.94839 0.5824 0.85778 0.0
C458 C 0.85803 0.64351 0.90785 0.0
C459 C 0.92395 0.6048 0.87391 0.0
N460 N 0.82906 0.66802 0.86222 0.0
N461 N 0.9679 0.59047 0.92025 0.0
H462 H 0.94343 0.57994 0.83463 0.0
H463 H 0.96954 0.56464 0.86754 0.0
H464 H 0.97068 0.58991 0.94364 0.0
H465 H 0.99723 0.57845 0.90929 0.0
H466 H 0.80973 0.68521 0.87397 0.0
H467 H 0.82775 0.67155 0.83915 0.0
H468 H 0.78765 0.66778 0.91558 0.0
H469 H 0.82084 0.65704 0.94815 0.0
C470 C 0.93129 0.11843 0.91664 0.0
C471 C 0.88397 0.10455 0.92585 0.0
C472 C 0.85929 0.09597 0.87337 0.0
C473 C 0.9064 0.10998 0.86413 0.0
N474 N 0.97933 0.14229 0.87596 0.0
N475 N 0.79663 0.08898 0.91318 0.0
C476 C 0.93976 0.12385 0.88552 0.0
C477 C 0.84583 0.09638 0.90421 0.0
N478 N 0.9695 0.12451 0.93717 0.0
N479 N 0.82918 0.08025 0.85322 0.0
H480 H 0.78551 0.08891 0.93566 0.0
H481 H 0.76579 0.08593 0.89826 0.0
H482 H 0.83753 0.07883 0.83039 0.0
H483 H 0.798 0.06645 0.85956 0.0
H484 H 1.00691 0.13127 0.93117 0.0
H485 H 0.96528 0.12061 0.96013 0.0
H486 H 1.00254 0.15513 0.89046 0.0
H487 H 0.98505 0.14724 0.85327 0.0
C488 C 0.19072 0.87187 0.65888 0.0
C489 C 0.149 0.86823 0.67931 0.0
C490 C 0.0875 0.87041 0.63733 0.0
C491 C 0.12946 0.86682 0.617 0.0
N492 N 0.22207 0.86373 0.60826 0.0
N493 N 0.05664 0.86414 0.6883 0.0
C494 C 0.18152 0.86821 0.62758 0.0
C495 C 0.09692 0.8683 0.66874 0.0
N496 N 0.23917 0.87865 0.66962 0.0
N497 N 0.03862 0.87571 0.62645 0.0
H498 H 0.06148 0.86321 0.71151 0.0
H499 H 0.01859 0.85987 0.68143 0.0
H500 H 0.03094 0.87753 0.60349 0.0
H501 H 1.00708 0.88131 0.64002 0.0
H502 H 0.27055 0.88413 0.65587 0.0
H503 H 0.24635 0.88193 0.6925 0.0
H504 H 0.26032 0.86071 0.61538 0.0
H505 H 0.21734 0.861 0.58518 0.0
C506 C 0.14602 0.41894 0.62534 0.0
C507 C 0.15413 0.39026 0.61116 0.0
C508 C 0.1257 0.36377 0.65697 0.0
C509 C 0.12275 0.39252 0.67182 0.0
N510 N 0.14295 0.44661 0.67224 0.0
N511 N 0.15737 0.33515 0.61379 0.0
C512 C 0.13662 0.41987 0.6566 0.0
C513 C 0.14546 0.36251 0.62703 0.0
N514 N 0.14546 0.44536 0.60874 0.0
N515 N 0.10821 0.33795 0.6711 0.0
H516 H 0.17083 0.33359 0.59174 0.0
H517 H 0.15713 0.3143 0.62518 0.0
H518 H 0.09431 0.33813 0.69311 0.0
H519 H 0.10425 0.31682 0.66045 0.0
H520 H 0.1344 0.46651 0.61753 0.0
H521 H 0.15051 0.44568 0.58549 0.0
H522 H 0.15818 0.46648 0.66267 0.0
H523 H 0.13851 0.44811 0.69549 0.0
C524 C 0.83491 0.1294 0.38525 0.0
C525 C 0.87671 0.12975 0.36456 0.0
C526 C 0.93726 0.11962 0.40579 0.0
C527 C 0.89766 0.12715 0.42651 0.0
N528 N 0.80736 0.1386 0.43639 0.0
N529 N 0.96897 0.12502 0.35498 0.0
C530 C 0.84569 0.13112 0.4165 0.0
C531 C 0.92824 0.12403 0.37461 0.0
N532 N 0.78502 0.12742 0.37484 0.0
N533 N 0.98349 0.10843 0.41617 0.0
H534 H 0.96443 0.12806 0.33193 0.0
H535 H 1.00772 0.12478 0.36182 0.0
H536 H 0.98978 0.10421 0.43898 0.0
H537 H 1.01279 0.10024 0.40217 0.0
H538 H 0.75291 0.1246 0.3888 0.0
H539 H 0.77654 0.12525 0.35199 0.0
H540 H 0.77039 0.1457 0.4298 0.0
H541 H 0.81314 0.13929 0.45953 0.0
C542 C 0.86446 0.64831 0.37943 0.0
C543 C 0.87033 0.6217 0.36133 0.0
C544 C 0.87453 0.58987 0.40665 0.0
C545 C 0.86221 0.61573 0.42455 0.0
N546 N 0.83991 0.66926 0.42801 0.0
N547 N 0.86841 0.56637 0.35774 0.0
C548 C 0.85596 0.64499 0.411 0.0
C549 C 0.87211 0.59226 0.37495 0.0
N550 N 0.86834 0.67668 0.36661 0.0
N551 N 0.88964 0.56303 0.41994 0.0
H552 H 0.86369 0.56687 0.3345 0.0
H553 H 0.86405 0.54448 0.36681 0.0
H554 H 0.89283 0.56043 0.44316 0.0
H555 H 0.90427 0.54446 0.40789 0.0
H556 H 0.86973 0.69692 0.37897 0.0
H557 H 0.87427 0.67984 0.34363 0.0
H558 H 0.82896 0.6903 0.41893 0.0
H559 H 0.83417 0.6677 0.45115 0.0
C560 C 0.58704 0.37843 0.63025 0.0
C561 C 0.62785 0.37198 0.60983 0.0
C562 C 0.68948 0.37125 0.65187 0.0
C563 C 0.64717 0.37043 0.67225 0.0
N564 N 0.55457 0.37301 0.68099 0.0
N565 N 0.71948 0.36291 0.60109 0.0
C566 C 0.59563 0.37474 0.66162 0.0
C567 C 0.6798 0.36937 0.62047 0.0
N568 N 0.53995 0.38792 0.61944 0.0
N569 N 0.73905 0.3737 0.66272 0.0
H570 H 0.71531 0.36265 0.57786 0.0
H571 H 0.75642 0.35627 0.60815 0.0
H572 H 0.74712 0.37484 0.68565 0.0
H573 H 0.77135 0.37755 0.64915 0.0
H574 H 0.50982 0.39554 0.63314 0.0
H575 H 0.53314 0.39118 0.59652 0.0
H576 H 0.51598 0.3721 0.67392 0.0
H577 H 0.55888 0.37047 0.70413 0.0
C578 C 0.59383 0.905 0.65065 0.0
C579 C 0.60902 0.88016 0.66939 0.0
C580 C 0.65594 0.8569 0.62713 0.0
C581 C 0.63795 0.88087 0.60828 0.0
N582 N 0.57952 0.92318 0.59993 0.0
N583 N 0.64717 0.82998 0.6747 0.0
C584 C 0.60336 0.90335 0.61938 0.0
C585 C 0.63796 0.8553 0.6574 0.0
N586 N 0.57359 0.93116 0.6629 0.0
N587 N 0.69137 0.83635 0.61636 0.0
H588 H 0.6346 0.82821 0.69691 0.0
H589 H 0.66363 0.80988 0.66644 0.0
H590 H 0.7036 0.83635 0.59401 0.0
H591 H 0.71059 0.82043 0.62982 0.0
H592 H 0.5671 0.9511 0.65056 0.0
H593 H 0.56853 0.93431 0.68593 0.0
H594 H 0.54992 0.93808 0.60638 0.0
H595 H 0.58554 0.92251 0.57676 0.0
C596 C 0.44075 0.62822 0.36845 0.0
C597 C 0.38913 0.6253 0.35761 0.0
C598 C 0.35659 0.62054 0.40919 0.0
C599 C 0.40775 0.62591 0.42013 0.0
N600 N 0.49953 0.62212 0.41076 0.0
N601 N 0.30278 0.60663 0.36636 0.0
C602 C 0.45021 0.62542 0.39983 0.0
C603 C 0.34866 0.61737 0.37768 0.0
N604 N 0.48017 0.63558 0.34924 0.0
N605 N 0.3152 0.62037 0.42836 0.0
H606 H 0.29754 0.60304 0.34336 0.0
H607 H 0.27276 0.59816 0.37967 0.0
H608 H 0.31897 0.62117 0.4516 0.0
H609 H 0.2767 0.62076 0.42106 0.0
H610 H 0.5172 0.6419 0.35647 0.0
H611 H 0.47523 0.63687 0.32605 0.0
H612 H 0.53204 0.61927 0.39712 0.0
H613 H 0.50676 0.61869 0.4336 0.0
C614 C 0.38504 0.09575 0.41207 0.0
C615 C 0.4015 0.12256 0.42781 0.0
C616 C 0.42741 0.14596 0.37979 0.0
C617 C 0.40879 0.11971 0.36444 0.0
N618 N 0.35613 0.07414 0.3648 0.0
N619 N 0.42702 0.17578 0.42584 0.0
C620 C 0.38282 0.09621 0.38027 0.0
C621 C 0.41929 0.14852 0.4114 0.0
N622 N 0.37546 0.06892 0.42702 0.0
N623 N 0.45435 0.16788 0.36437 0.0
H624 H 0.42017 0.17864 0.44876 0.0
H625 H 0.43538 0.19618 0.41468 0.0
H626 H 0.45914 0.16713 0.3411 0.0
H627 H 0.47428 0.18575 0.37479 0.0
H628 H 0.36915 0.04814 0.41607 0.0
H629 H 0.37939 0.06621 0.45011 0.0
H630 H 0.332 0.05816 0.37522 0.0
H631 H 0.35371 0.07391 0.34138 0.0
C632 C 0.69751 0.87499 0.154 0.0
C633 C 0.65913 0.88863 0.1726 0.0
C634 C 0.60046 0.89365 0.1294 0.0
C635 C 0.63855 0.87948 0.1109 0.0
N636 N 0.72798 0.86416 0.10367 0.0
N637 N 0.57907 0.9165 0.17772 0.0
C638 C 0.68877 0.87288 0.12252 0.0
C639 C 0.61213 0.89981 0.16013 0.0
N640 N 0.74086 0.86214 0.16668 0.0
N641 N 0.55279 0.90062 0.11757 0.0
H642 H 0.58685 0.92116 0.20029 0.0
H643 H 0.54614 0.92766 0.16965 0.0
H644 H 0.54449 0.8987 0.09468 0.0
H645 H 0.52098 0.9074 0.13036 0.0
H646 H 0.76695 0.84842 0.15493 0.0
H647 H 0.7489 0.86303 0.18962 0.0
H648 H 0.76663 0.86228 0.11042 0.0
H649 H 0.72325 0.86152 0.08061 0.0
C650 C 0.69136 0.36235 0.1245 0.0
C651 C 0.64769 0.35392 0.10674 0.0
C652 C 0.59246 0.35282 0.15151 0.0
C653 C 0.63488 0.3641 0.16874 0.0
N654 N 0.72696 0.37266 0.17414 0.0
N655 N 0.56065 0.3342 0.10325 0.0
C656 C 0.68529 0.36628 0.15606 0.0
C657 C 0.59953 0.34661 0.12034 0.0
N658 N 0.73803 0.36781 0.11078 0.0
N659 N 0.54514 0.34907 0.165 0.0
H660 H 0.56503 0.32976 0.08036 0.0
H661 H 0.52542 0.32641 0.11177 0.0
H662 H 0.54006 0.35139 0.18815 0.0
H663 H 0.51083 0.34418 0.15357 0.0
H664 H 0.77007 0.37762 0.12134 0.0
H665 H 0.74442 0.36317 0.0881 0.0
H666 H 0.76542 0.37221 0.167 0.0
H667 H 0.72357 0.37639 0.19717 0.0
C668 C 0.42199 0.09688 0.876 0.0
C669 C 0.41113 0.12315 0.85812 0.0
C670 C 0.39842 0.15354 0.90375 0.0
C671 C 0.4165 0.12876 0.9214 0.0
N672 N 0.4501 0.07733 0.92458 0.0
N673 N 0.40206 0.17837 0.85549 0.0
C674 C 0.42926 0.1004 0.90766 0.0
C675 C 0.40261 0.152 0.87212 0.0
N676 N 0.42405 0.06859 0.86291 0.0
N677 N 0.3766 0.17854 0.91726 0.0
H678 H 0.409 0.17883 0.83245 0.0
H679 H 0.40103 0.20015 0.86509 0.0
H680 H 0.37154 0.17999 0.94047 0.0
H681 H 0.35841 0.19608 0.90529 0.0
H682 H 0.4268 0.04827 0.87511 0.0
H683 H 0.41867 0.06526 0.83991 0.0
H684 H 0.46567 0.05739 0.91539 0.0
H685 H 0.45479 0.07901 0.94781 0.0
C686 C 0.34139 0.63062 0.87059 0.0
C687 C 0.39288 0.62743 0.85955 0.0
C688 C 0.42628 0.62314 0.91109 0.0
C689 C 0.37449 0.62392 0.92196 0.0
N690 N 0.28565 0.63882 0.91393 0.0
N691 N 0.48441 0.63249 0.86911 0.0
C692 C 0.33303 0.6313 0.90221 0.0
C693 C 0.43537 0.6278 0.8799 0.0
N694 N 0.30028 0.63099 0.85113 0.0
N695 N 0.46631 0.61575 0.92997 0.0
H696 H 0.49136 0.63679 0.84639 0.0
H697 H 0.51688 0.6354 0.88283 0.0
H698 H 0.46153 0.61263 0.95301 0.0
H699 H 0.50383 0.61102 0.92254 0.0
H700 H 0.26173 0.62892 0.85794 0.0
H701 H 0.30467 0.63224 0.82794 0.0
H702 H 0.25465 0.64685 0.90107 0.0
H703 H 0.27925 0.63993 0.93707 0.0
C704 C 0.98879 0.23904 0.29546 0.0
C705 C 0.99691 0.21394 0.27575 0.0
C706 C 0.08371 0.23392 0.26357 0.0
C707 C 0.07363 0.26034 0.28124 0.0
N708 N 1.00993 0.2918 0.3066 0.0
N709 N 0.04679 0.19175 0.23531 0.0
C710 C 0.0242 0.26403 0.29503 0.0
C711 C 0.04284 0.21263 0.25808 0.0
N712 N 0.94885 0.23854 0.31568 0.0
N713 N 0.13271 0.22834 0.2531 0.0
H714 H 0.01696 0.17653 0.22982 0.0
H715 H 0.07721 0.19177 0.21988 0.0
H716 H 0.1641 0.24287 0.25727 0.0
H717 H 0.14327 0.20783 0.24279 0.0
H718 H 0.94476 0.25487 0.3326 0.0
H719 H 0.92292 0.22028 0.31763 0.0
H720 H 0.97251 0.29637 0.31435 0.0
H721 H 0.03331 0.31127 0.30519 0.0
C722 C 0.20845 0.01121 0.27017 0.0
C723 C 0.22348 0.98429 0.25452 0.0
C724 C 0.30829 0.00762 0.24354 0.0
C725 C 0.29486 0.03345 0.2613 0.0
N726 N 0.23724 0.05575 0.29806 0.0
N727 N 0.29349 0.95374 0.23414 0.0
C728 C 0.24642 0.03402 0.2766 0.0
C729 C 0.27512 0.98155 0.24348 0.0
N730 N 0.15757 0.01578 0.27773 0.0
N731 N 0.35125 0.0083 0.22555 0.0
H732 H 0.27164 0.93365 0.23534 0.0
H733 H 0.33231 0.94999 0.22856 0.0
H734 H 0.37615 0.02707 0.22423 0.0
H735 H 0.35931 0.99135 0.20973 0.0
H736 H 0.14378 0.03643 0.28639 0.0
H737 H 0.12815 0.00017 0.27262 0.0
H738 H 0.20462 0.05545 0.3119 0.0
H739 H 0.26489 0.07206 0.30432 0.0
C740 C 0.01691 0.97342 0.04325 0.0
C741 C 0.06832 0.97956 0.03325 0.0
C742 C 0.03795 0.02808 1.01164 0.0
C743 C 0.98943 0.02449 0.02651 0.0
N744 N 0.93542 0.9947 0.06015 0.0
N745 N 0.1293 0.01466 1.01057 0.0
C746 C 0.97938 0.99732 0.04315 0.0
C747 C 0.07927 0.00734 0.01795 0.0
N748 N 1.0032 0.9444 0.05177 0.0
N749 N 0.04404 0.05072 0.99069 0.0
H750 H 0.1608 0.00037 1.0152 0.0
H751 H 0.14008 0.0361 1.00231 0.0
H752 H 1.01391 0.06542 0.98441 0.0
H753 H 0.07691 0.05265 0.97717 0.0
H754 H 0.96498 0.93805 0.05641 0.0
H755 H 0.02873 0.92586 0.05084 0.0
H756 H 0.92958 0.97691 0.07541 0.0
H757 H 0.90679 0.0115 0.06113 0.0
C758 C 0.24403 0.21125 0.0191 0.0
C759 C 0.29338 0.21427 1.00505 0.0
C760 C 0.27105 0.26694 0.99077 0.0
C761 C 0.21898 0.26199 1.00034 0.0
N762 N 0.15401 0.2274 0.01992 0.0
N763 N 0.35114 0.24387 0.97356 0.0
C764 C 0.20493 0.23363 1.01365 0.0
C765 C 0.30633 0.24186 0.9899 0.0
N766 N 0.23507 0.1876 0.03859 0.0
N767 N 0.28763 0.29584 0.98373 0.0
H768 H 0.37811 0.22613 0.97208 0.0
H769 H 0.3593 0.2622 0.9593 0.0
H770 H 0.2639 0.31515 0.98545 0.0
H771 H 0.32643 0.30115 0.97947 0.0
H772 H 0.20161 0.18598 0.05166 0.0
H773 H 0.26342 0.17149 0.04423 0.0
H774 H 0.14106 0.20582 0.02664 0.0
H775 H 0.12394 0.24283 1.01567 0.0
C776 C 1.00975 0.72869 0.79389 0.0
C777 C 0.95877 0.73348 0.78249 0.0
C778 C 0.98666 0.7831 0.76219 0.0
C779 C 0.03471 0.78038 0.77783 0.0
N780 N 0.08845 0.75202 0.81277 0.0
N781 N 0.89659 0.76712 0.75874 0.0
C782 C 0.04551 0.75349 0.7947 0.0
C783 C 0.94665 0.76115 0.76727 0.0
N784 N 0.02489 0.70009 0.80287 0.0
N785 N 0.97984 0.80607 0.74166 0.0
H786 H 0.86608 0.75181 0.76232 0.0
H787 H 0.88453 0.78834 0.75055 0.0
H788 H 1.00892 0.82187 0.73649 0.0
H789 H 0.94764 0.80746 0.72749 0.0
H790 H 0.06314 0.69466 0.80851 0.0
H791 H 1.00068 0.68103 0.80133 0.0
H792 H 0.09475 0.73432 0.82809 0.0
H793 H 0.11539 0.76972 0.81463 0.0
C794 C 0.69804 0.01017 0.7655 0.0
C795 C 0.71152 0.98227 0.75112 0.0
C796 C 0.79906 0.00244 0.74133 0.0
C797 C 0.78715 0.0292 0.7581 0.0
N798 N 0.72899 0.05464 0.79265 0.0
N799 N 0.77989 0.94882 0.73338 0.0
C800 C 0.73768 0.03193 0.77211 0.0
C801 C 0.76352 0.97748 0.74137 0.0
N802 N 0.64719 0.01657 0.77175 0.0
N803 N 0.84293 0.00119 0.7241 0.0
H804 H 0.75616 0.92948 0.73465 0.0
H805 H 0.81868 0.94367 0.72889 0.0
H806 H 0.8693 0.01922 0.72241 0.0
H807 H 0.85029 0.98342 0.70904 0.0
H808 H 0.63472 0.03794 0.77933 0.0
H809 H 0.61679 0.00164 0.7666 0.0
H810 H 0.69544 0.05582 0.80569 0.0
H811 H 0.7575 0.07032 0.79908 0.0
C812 C 0.76996 0.76917 0.04504 0.0
C813 C 0.71772 0.76652 0.03484 0.0
C814 C 0.73793 0.7157 1.01435 0.0
C815 C 0.7875 0.71658 0.0285 0.0
N816 N 0.84659 0.74236 0.0624 0.0
N817 N 0.6496 0.73492 1.01393 0.0
C818 C 0.80252 0.74285 0.04521 0.0
C819 C 0.70102 0.73916 0.02052 0.0
N820 N 0.78948 0.79709 0.05329 0.0
N821 N 0.72665 0.69305 0.99414 0.0
H822 H 0.62108 0.75115 0.01876 0.0
H823 H 0.63457 0.71411 1.00637 0.0
H824 H 0.75324 0.67606 0.98819 0.0
H825 H 0.69314 0.69301 0.98096 0.0
H826 H 0.82867 0.80069 0.05812 0.0
H827 H 0.76804 0.81732 0.05196 0.0
H828 H 0.85607 0.75973 0.07752 0.0
H829 H 0.87101 0.72337 0.06388 0.0
C830 C 0.29967 0.50857 0.79123 0.0
C831 C 0.2834 0.53629 0.77744 0.0
C832 C 0.19585 0.51479 0.77073 0.0
C833 C 0.21354 0.48616 0.78191 0.0
N834 N 0.28698 0.45378 0.79415 0.0
N835 N 0.21986 0.5623 0.74644 0.0
C836 C 0.26687 0.48242 0.78961 0.0
C837 C 0.2326 0.5384 0.7649 0.0
N838 N 0.34514 0.50739 0.80712 0.0
N839 N 0.1439 0.52013 0.76695 0.0
H840 H 0.2463 0.57931 0.74031 0.0
H841 H 0.185 0.5633 0.73451 0.0
H842 H 0.11537 0.50395 0.77197 0.0
H843 H 0.1289 0.54169 0.76176 0.0
H844 H 0.35584 0.4885 0.82008 0.0
H845 H 0.36951 0.52626 0.80999 0.0
H846 H 0.32661 0.44977 0.79713 0.0
H847 H 0.26528 0.43378 0.79136 0.0
C848 C 0.96181 0.49773 0.5035 0.0
C849 C 0.9812 0.52808 0.50591 0.0
C850 C 0.07036 0.50814 0.50357 0.0
C851 C 0.05099 0.47768 0.50447 0.0
N852 N 0.97779 0.44447 0.51503 0.0
N853 N 0.05452 0.56077 0.51769 0.0
C854 C 0.99653 0.47271 0.50733 0.0
C855 C 0.03569 0.53292 0.50877 0.0
N856 N 0.91096 0.49251 0.49619 0.0
N857 N 0.12109 0.51376 0.49639 0.0
H858 H 0.03048 0.57898 0.52377 0.0
H859 H 0.09367 0.5645 0.52257 0.0
H860 H 0.1474 0.49652 0.49082 0.0
H861 H 0.13542 0.53581 0.49272 0.0
H862 H 0.89658 0.47069 0.49142 0.0
H863 H 0.88458 0.51004 0.49161 0.0
H864 H 0.93869 0.44054 0.51984 0.0
H865 H 1.00186 0.42599 0.52029 0.0
C866 C 0.24559 0.71874 0.50548 0.0
C867 C 0.30012 0.7237 0.50323 0.0
C868 C 0.28548 0.77875 0.51008 0.0
C869 C 0.23099 0.77422 0.50702 0.0
N870 N 0.15999 0.73958 0.49615 0.0
N871 N 0.3711 0.75964 0.49791 0.0
C872 C 0.21112 0.74411 0.50327 0.0
C873 C 0.31996 0.75405 0.50413 0.0
N874 N 0.22657 0.69002 0.51098 0.0
N875 N 0.30443 0.80632 0.51975 0.0
H876 H 0.39741 0.74244 0.4922 0.0
H877 H 0.38606 0.7817 0.49534 0.0
H878 H 0.28042 0.82452 0.52594 0.0
H879 H 0.3435 0.80986 0.52496 0.0
H880 H 0.18749 0.6858 0.51556 0.0
H881 H 0.25043 0.67103 0.51448 0.0
H882 H 0.14509 0.7182 0.49018 0.0
H883 H 0.13361 0.75746 0.49315 0.0
C884 C 0.8181 0.49687 0.28538 0.0
C885 C 0.80562 0.52404 0.26934 0.0
C886 C 0.71949 0.50282 0.25748 0.0
C887 C 0.73356 0.47478 0.27151 0.0
N888 N 0.803 0.44239 0.28987 0.0
N889 N 0.75049 0.54855 0.23246 0.0
C890 C 0.78497 0.47095 0.28272 0.0
C891 C 0.75815 0.52568 0.25299 0.0
N892 N 0.85976 0.49605 0.30446 0.0
N893 N 0.66893 0.5085 0.24983 0.0
H894 H 0.77894 0.56479 0.22736 0.0
H895 H 0.71848 0.5492 0.21808 0.0
H896 H 0.63883 0.49303 0.25376 0.0
H897 H 0.65613 0.52987 0.24237 0.0
H898 H 0.86686 0.47772 0.31893 0.0
H899 H 0.88417 0.51472 0.30821 0.0
H900 H 0.84166 0.43815 0.2956 0.0
H901 H 0.78118 0.42251 0.28652 0.0
C902 C 0.70349 0.24018 0.51693 0.0
C903 C 0.71878 0.26875 0.52929 0.0
C904 C 0.80655 0.24858 0.53828 0.0
C905 C 0.79225 0.22059 0.52417 0.0
N906 N 0.7313 0.19343 0.49254 0.0
N907 N 0.78889 0.30281 0.54324 0.0
C908 C 0.74192 0.2175 0.51121 0.0
C909 C 0.77154 0.27377 0.53742 0.0
N910 N 0.6521 0.23408 0.51185 0.0
N911 N 0.85219 0.25091 0.55388 0.0
H912 H 0.76517 0.32212 0.54157 0.0
H913 H 0.82805 0.30809 0.54636 0.0
H914 H 0.87901 0.23316 0.55564 0.0
H915 H 0.86125 0.26965 0.56743 0.0
H916 H 0.6384 0.21242 0.50592 0.0
H917 H 0.62257 0.24982 0.51623 0.0
H918 H 0.69695 0.19162 0.48022 0.0
H919 H 0.75909 0.17709 0.48672 0.0
C920 C 0.53186 0.21932 0.7561 0.0
C921 C 0.48291 0.22075 0.77089 0.0
C922 C 0.50362 0.27293 0.78752 0.0
C923 C 0.55554 0.26926 0.77725 0.0
N924 N 0.62119 0.23675 0.75524 0.0
N925 N 0.42584 0.24766 0.80511 0.0
C926 C 0.57023 0.24193 0.76228 0.0
C927 C 0.46951 0.24729 0.78766 0.0
N928 N 0.54129 0.19682 0.73545 0.0
N929 N 0.48616 0.30117 0.79619 0.0
H930 H 0.40007 0.22933 0.80665 0.0
H931 H 0.41783 0.26515 0.82036 0.0
H932 H 0.50912 0.32086 0.79519 0.0
H933 H 0.44729 0.30565 0.80109 0.0
H934 H 0.5742 0.19652 0.72184 0.0
H935 H 0.51377 0.18031 0.72961 0.0
H936 H 0.63474 0.21576 0.7473 0.0
H937 H 0.65082 0.25234 0.75999 0.0
C938 C 0.53162 0.02527 0.51279 0.0
C939 C 0.4771 0.01992 0.51207 0.0
C940 C 0.49417 0.96501 0.51762 0.0
C941 C 0.54785 0.97002 0.51166 0.0
N942 N 0.61574 0.00598 0.49818 0.0
N943 N 0.40673 0.98318 0.50896 0.0
C944 C 0.56629 0.00046 0.50795 0.0
C945 C 0.45825 0.98937 0.51335 0.0
N946 N 0.55055 0.05385 0.51903 0.0
N947 N 0.47754 0.93737 0.5284 0.0
H948 H 0.37914 3e-05 0.50438 0.0
H949 H 0.39244 0.96092 0.50677 0.0
H950 H 0.503 0.91962 0.5339 0.0
H951 H 0.43941 0.93355 0.53539 0.0
H952 H 0.59003 0.0582 0.52226 0.0
H953 H 0.52656 0.07224 0.52467 0.0
H954 H 0.62882 0.02786 0.49252 0.0
H955 H 0.64184 0.98869 0.4925 0.0
C956 C 0.58277 0.74165 0.2708 0.0
C957 C 0.56915 0.76877 0.25503 0.0
C958 C 0.48246 0.74757 0.2448 0.0
C959 C 0.49483 0.72132 0.26228 0.0
N960 N 0.55194 0.69738 0.29839 0.0
N961 N 0.50082 0.80105 0.2352 0.0
C962 C 0.54357 0.71961 0.27729 0.0
C963 C 0.51738 0.77281 0.2445 0.0
N964 N 0.63345 0.73613 0.27833 0.0
N965 N 0.43901 0.74793 0.22707 0.0
H966 H 0.52433 0.82052 0.23594 0.0
H967 H 0.46211 0.80581 0.23005 0.0
H968 H 0.41296 0.72969 0.22567 0.0
H969 H 0.43154 0.76521 0.21146 0.0
H970 H 0.64625 0.71523 0.28695 0.0
H971 H 0.6636 0.75128 0.2734 0.0
H972 H 0.58482 0.69676 0.31208 0.0
H973 H 0.52348 0.68152 0.30446 0.0
C974 C 0.49805 0.4693 0.02501 0.0
C975 C 0.55222 0.47582 0.02478 0.0
C976 C 0.53206 0.5293 1.01264 0.0
C977 C 0.47867 0.52393 0.019 0.0
N978 N 0.41243 0.48869 0.0364 0.0
N979 N 0.62065 0.5138 0.0226 0.0
C980 C 0.46186 0.49385 0.0264 0.0
C981 C 0.56935 0.50628 0.01952 0.0
N982 N 0.48089 0.43973 0.02284 0.0
N983 N 0.54709 0.55604 0.9992 0.0
H984 H 0.64917 0.49805 0.02879 0.0
H985 H 0.634 0.53636 0.02197 0.0
H986 H 0.5206 0.57276 0.99234 0.0
H987 H 0.5849 0.55993 0.99171 0.0
H988 H 0.44174 0.4341 0.02024 0.0
H989 H 0.50594 0.42117 0.01993 0.0
H990 H 0.40044 0.46759 0.04494 0.0
H991 H 0.38496 0.50599 0.03914 0.0
C992 C 0.22332 0.37689 0.40802 0.0
C993 C 0.17423 0.38221 0.42139 0.0
C994 C 0.1312 0.36575 0.37482 0.0
C995 C 0.18055 0.36403 0.36057 0.0
N996 N 0.2726 0.37479 0.36193 0.0
N997 N 0.08091 0.38479 0.41691 0.0
C998 C 0.22636 0.37155 0.37671 0.0
C999 C 0.1279 0.37742 0.40466 0.0
N1000 N 0.26697 0.37571 0.42552 0.0
N1001 N 0.08781 0.35512 0.36042 0.0
H1002 H 0.07688 0.39213 0.43904 0.0
H1003 H 0.04641 0.38545 0.40463 0.0
H1004 H 0.08831 0.34679 0.33851 0.0
H1005 H 0.05197 0.35243 0.37095 0.0
H1006 H 0.3033 0.36922 0.41739 0.0
H1007 H 0.26549 0.37764 0.44884 0.0
H1008 H 0.30625 0.38303 0.37221 0.0
H1009 H 0.27596 0.37254 0.33869 0.0
C1010 C 0.11582 0.90606 0.38804 0.0
C1011 C 0.11312 0.88346 0.36513 0.0
C1012 C 0.12125 0.84353 0.40344 0.0
C1013 C 0.11324 0.86577 0.42628 0.0
N1014 N 0.09475 0.91854 0.43941 0.0
N1015 N 0.10495 0.82992 0.35168 0.0
C1016 C 0.10876 0.89722 0.41845 0.0
C1017 C 0.114 0.85192 0.37291 0.0
N1018 N 0.12647 0.93588 0.38088 0.0
N1019 N 0.13712 0.81458 0.4108 0.0
H1020 H 0.09724 0.8349 0.32922 0.0
H1021 H 0.0999 0.80684 0.35704 0.0
H1022 H 0.1455 0.808 0.43283 0.0
H1023 H 0.1478 0.79836 0.39477 0.0
H1024 H 0.13346 0.95268 0.39704 0.0
H1025 H 0.1343 0.94302 0.35897 0.0
H1026 H 0.08567 0.94114 0.43387 0.0
H1027 H 0.08708 0.9132 0.46176 0.0
C1028 C 0.19816 0.85081 0.88879 0.0
C1029 C 0.15462 0.85706 0.87011 0.0
C1030 C 0.1108 0.88224 0.91231 0.0
C1031 C 0.15311 0.87424 0.93132 0.0
N1032 N 0.23073 0.8441 0.93934 0.0
N1033 N 0.06523 0.87312 0.86536 0.0
C1034 C 0.19458 0.85615 0.92015 0.0
C1035 C 0.10964 0.87125 0.8822 0.0
N1036 N 0.2442 0.84158 0.87638 0.0
N1037 N 0.07187 0.90053 0.92302 0.0
H1038 H 0.06273 0.86496 0.84339 0.0
H1039 H 0.02964 0.88033 0.87394 0.0
H1040 H 0.06934 0.90704 0.94554 0.0
H1041 H 0.04351 0.9104 0.90937 0.0
H1042 H 0.27874 0.83998 0.88855 0.0
H1043 H 0.24952 0.83875 0.85333 0.0
H1044 H 0.25874 0.82829 0.93262 0.0
H1045 H 0.22956 0.84723 0.96251 0.0
C1046 C 0.15301 0.37908 0.87589 0.0
C1047 C 0.10447 0.38479 0.86156 0.0
C1048 C 0.05917 0.37585 0.90903 0.0
C1049 C 0.10661 0.36676 0.92251 0.0
N1050 N 0.19857 0.35674 0.91835 0.0
N1051 N 1.01068 0.38185 0.86292 0.0
C1052 C 0.15364 0.36766 0.90589 0.0
C1053 C 0.05734 0.38125 0.87771 0.0
N1054 N 0.19845 0.38566 0.86138 0.0
N1055 N 0.01616 0.38048 0.92644 0.0
H1056 H 1.00756 0.38471 0.83973 0.0
H1057 H 0.97553 0.37624 0.87315 0.0
H1058 H 0.017 0.37835 0.94978 0.0
H1059 H 0.98165 0.38981 0.91824 0.0
H1060 H 0.23462 0.38559 0.87194 0.0
H1061 H 0.19997 0.39332 0.83924 0.0
H1062 H 0.23249 0.35306 0.90613 0.0
H1063 H 0.20121 0.34962 0.94064 0.0
C1064 C 0.90825 0.60013 0.66703 0.0
C1065 C 0.90949 0.63125 0.67611 0.0
C1066 C 0.91868 0.64706 0.62335 0.0
C1067 C 0.91163 0.61624 0.61412 0.0
N1068 N 0.88678 0.56444 0.62738 0.0
N1069 N 0.90304 0.68476 0.66208 0.0
C1070 C 0.90298 0.59297 0.636 0.0
C1071 C 0.91131 0.6549 0.65406 0.0
N1072 N 0.9135 0.57733 0.68788 0.0
N1073 N 0.93381 0.66876 0.60301 0.0
H1074 H 0.89464 0.69155 0.68398 0.0
H1075 H 0.89877 0.70238 0.64645 0.0
H1076 H 0.94038 0.66384 0.5804 0.0
H1077 H 0.94475 0.6909 0.60916 0.0
H1078 H 0.9183 0.55435 0.68213 0.0
H1079 H 0.91822 0.58166 0.71078 0.0
H1080 H 0.87497 0.54768 0.64261 0.0
H1081 H 0.87945 0.55851 0.60509 0.0
C1082 C 0.85683 0.11146 0.65694 0.0
C1083 C 0.9005 0.11771 0.67543 0.0
C1084 C 0.9424 0.1462 0.63466 0.0
C1085 C 0.89985 0.13862 0.61559 0.0
N1086 N 0.81777 0.11324 0.6072 0.0
N1087 N 0.98608 0.13905 0.68255 0.0
C1088 C 0.85737 0.12096 0.62634 0.0
C1089 C 0.94336 0.13489 0.66459 0.0
N1090 N 0.81432 0.09722 0.66907 0.0
N1091 N 0.98222 0.16397 0.62399 0.0
H1092 H 0.98725 0.13244 0.70503 0.0
H1093 H 0.02146 0.14774 0.67514 0.0
H1094 H 0.98638 0.16985 0.60143 0.0
H1095 H 1.01067 0.17387 0.63749 0.0
H1096 H 0.77913 0.09421 0.65792 0.0
H1097 H 0.8129 0.09004 0.69141 0.0
H1098 H 0.78847 0.09769 0.61238 0.0
H1099 H 0.81513 0.12143 0.58524 0.0
C1100 C 0.91496 0.13916 0.15512 0.0
C1101 C 0.87855 0.12692 0.17585 0.0
C1102 C 0.83962 0.0958 0.13617 0.0
C1103 C 0.87843 0.10612 0.11588 0.0
N1104 N 0.95906 0.13303 0.10736 0.0
N1105 N 0.81457 0.08827 0.18791 0.0
C1106 C 0.91783 0.12661 0.12566 0.0
C1107 C 0.84379 0.1034 0.167 0.0
N1108 N 0.9467 0.16279 0.16358 0.0
N1109 N 0.79687 0.08039 0.12579 0.0
H1110 H 0.81588 0.09325 0.21078 0.0
H1111 H 0.79268 0.06881 0.18293 0.0
H1112 H 0.79058 0.07559 0.10314 0.0
H1113 H 0.76476 0.07538 0.13917 0.0
H1114 H 0.96954 0.17515 0.14854 0.0
H1115 H 0.94818 0.17115 0.18553 0.0
H1116 H 0.99163 0.14529 0.11437 0.0
H1117 H 0.96299 0.12379 0.08588 0.0
C1118 C 0.86335 0.64114 0.13399 0.0
C1119 C 0.90259 0.63041 0.11417 0.0
C1120 C 0.94738 0.60575 0.15628 0.0
C1121 C 0.90555 0.6137 0.17559 0.0
N1122 N 0.82008 0.6353 0.18214 0.0
N1123 N 0.97727 0.59824 0.10528 0.0
C1124 C 0.86255 0.63056 0.16433 0.0
C1125 C 0.94302 0.61127 0.12495 0.0
N1126 N 0.82708 0.66162 0.12387 0.0
N1127 N 0.99256 0.59436 0.16811 0.0
H1128 H 0.97587 0.60199 0.08216 0.0
H1129 H 1.00413 0.58153 0.11153 0.0
H1130 H 0.99826 0.5911 0.1911 0.0
H1131 H 0.02632 0.59125 0.1556 0.0
H1132 H 0.80126 0.67304 0.13795 0.0
H1133 H 0.82478 0.66858 0.10147 0.0
H1134 H 0.78526 0.64448 0.17427 0.0
H1135 H 0.81821 0.62793 0.20441 0.0
C1136 C 0.71211 0.38213 0.90905 0.0
C1137 C 0.66421 0.38376 0.92471 0.0
C1138 C 0.61738 0.36814 0.87909 0.0
C1139 C 0.66512 0.36847 0.86305 0.0
N1140 N 0.75574 0.38245 0.86094 0.0
N1141 N 0.57055 0.38276 0.92423 0.0
C1142 C 0.7119 0.37731 0.87756 0.0
C1143 C 0.61656 0.37788 0.90966 0.0
N1144 N 0.75802 0.38442 0.92447 0.0
N1145 N 0.57318 0.35768 0.86543 0.0
H1146 H 0.56855 0.38931 0.94674 0.0
H1147 H 0.53448 0.38239 0.91358 0.0
H1148 H 0.5716 0.35185 0.84276 0.0
H1149 H 0.53875 0.35319 0.87688 0.0
H1150 H 0.79413 0.37986 0.91491 0.0
H1151 H 0.75989 0.38816 0.94758 0.0
H1152 H 0.7897 0.39189 0.86974 0.0
H1153 H 0.7565 0.38034 0.83761 0.0
C1154 C 0.62592 0.89834 0.91258 0.0
C1155 C 0.62342 0.86708 0.92129 0.0
C1156 C 0.61797 0.85168 0.86838 0.0
C1157 C 0.62248 0.88288 0.85964 0.0
N1158 N 0.64897 0.93413 0.87326 0.0
N1159 N 0.6352 0.81411 0.90715 0.0
C1160 C 0.63244 0.90564 0.88173 0.0
C1161 C 0.62536 0.84377 0.89905 0.0
N1162 N 0.61876 0.92117 0.93318 0.0
N1163 N 0.6034 0.82977 0.84811 0.0
H1164 H 0.64301 0.8077 0.9293 0.0
H1165 H 0.64155 0.79669 0.89156 0.0
H1166 H 0.59606 0.83434 0.82555 0.0
H1167 H 0.59398 0.80742 0.85436 0.0
H1168 H 0.61458 0.94413 0.92714 0.0
H1169 H 0.61203 0.91714 0.9559 0.0
H1170 H 0.66103 0.95073 0.88861 0.0
H1171 H 0.65639 0.93984 0.8509 0.0
C1172 C 0.62096 0.88244 0.40276 0.0
C1173 C 0.66754 0.88928 0.41856 0.0
C1174 C 0.71796 0.88254 0.37233 0.0
C1175 C 0.67222 0.87289 0.35725 0.0
N1176 N 0.58108 0.86008 0.35839 0.0
N1177 N 0.76134 0.8912 0.4199 0.0
C1178 C 0.62382 0.87201 0.37248 0.0
C1179 C 0.71634 0.88816 0.40372 0.0
N1180 N 0.57398 0.88682 0.41639 0.0
N1181 N 0.76275 0.88705 0.35641 0.0
H1182 H 0.76198 0.89516 0.443 0.0
H1183 H 0.79811 0.88707 0.41103 0.0
H1184 H 0.76513 0.88341 0.3333 0.0
H1185 H 0.79604 0.89708 0.36542 0.0
H1186 H 0.53854 0.88559 0.40511 0.0
H1187 H 0.57048 0.89394 0.43864 0.0
H1188 H 0.54623 0.85539 0.36934 0.0
H1189 H 0.58144 0.8529 0.33604 0.0
C1190 C 0.60877 0.39777 0.41052 0.0
C1191 C 0.61433 0.36665 0.41921 0.0
C1192 C 0.61655 0.35121 0.36627 0.0
C1193 C 0.61456 0.38249 0.35756 0.0
N1194 N 0.62401 0.43567 0.37189 0.0
N1195 N 0.63937 0.31519 0.40546 0.0
C1196 C 0.61547 0.40583 0.37985 0.0
C1197 C 0.6233 0.34382 0.39709 0.0
N1198 N 0.59416 0.41944 0.431 0.0
N1199 N 0.60876 0.32846 0.34563 0.0
H1200 H 0.64678 0.30928 0.42778 0.0
H1201 H 0.65094 0.29856 0.39005 0.0
H1202 H 0.6013 0.33263 0.32299 0.0
H1203 H 0.6044 0.30549 0.3516 0.0
H1204 H 0.58386 0.44172 0.42495 0.0
H1205 H 0.58756 0.41463 0.4536 0.0
H1206 H 0.63002 0.45307 0.38756 0.0
H1207 H 0.63082 0.44249 0.3498 0.0
C1208 C 0.33834 0.65027 0.1524 0.0
C1209 C 0.3707 0.62949 0.16838 0.0
C1210 C 0.41626 0.61695 0.12163 0.0
C1211 C 0.3788 0.63407 0.10518 0.0
N1212 N 0.30041 0.66458 0.10463 0.0
N1213 N 0.43897 0.59176 0.16856 0.0
C1214 C 0.33907 0.65033 0.12048 0.0
C1215 C 0.4096 0.61262 0.15313 0.0
N1216 N 0.30801 0.67065 0.16779 0.0
N1217 N 0.45894 0.60561 0.10718 0.0
H1218 H 0.43569 0.58851 0.19171 0.0
H1219 H 0.46398 0.57626 0.15823 0.0
H1220 H 0.46559 0.60934 0.08436 0.0
H1221 H 0.49008 0.59524 0.11817 0.0
H1222 H 0.28769 0.68842 0.15745 0.0
H1223 H 0.30726 0.67182 0.19119 0.0
H1224 H 0.26693 0.67332 0.11459 0.0
H1225 H 0.29958 0.66564 0.08125 0.0
C1226 C 0.43076 0.14031 0.16075 0.0
C1227 C 0.39476 0.11942 0.17353 0.0
C1228 C 0.35223 0.11256 0.12448 0.0
C1229 C 0.38683 0.1344 0.11197 0.0
N1230 N 0.45722 0.17066 0.11776 0.0
N1231 N 0.31743 0.08856 0.16949 0.0
C1232 C 0.4254 0.14885 0.13005 0.0
C1233 C 0.35444 0.10629 0.15589 0.0
N1234 N 0.47172 0.1507 0.17759 0.0
N1235 N 0.31773 0.09761 0.10621 0.0
H1236 H 0.31788 0.0837 0.19245 0.0
H1237 H 0.28414 0.08052 0.15878 0.0
H1238 H 0.31376 0.10255 0.08339 0.0
H1239 H 0.29513 0.0791 0.11304 0.0
H1240 H 0.50329 0.16262 0.16883 0.0
H1241 H 0.47596 0.14596 0.20042 0.0
H1242 H 0.48111 0.18505 0.13031 0.0
H1243 H 0.45852 0.17541 0.09481 0.0
C1244 C 0.42529 0.14993 0.65388 0.0
C1245 C 0.39365 0.13124 0.67259 0.0
C1246 C 0.37954 0.09564 0.63066 0.0
C1247 C 0.40655 0.11609 0.61127 0.0
N1248 N 0.4516 0.16375 0.60324 0.0
N1249 N 0.33559 0.08813 0.67822 0.0
C1250 C 0.42853 0.14353 0.62257 0.0
C1251 C 0.36998 0.10432 0.66097 0.0
N1252 N 0.45342 0.17333 0.66632 0.0
N1253 N 0.36257 0.06794 0.62005 0.0
H1254 H 0.32783 0.09332 0.7006 0.0
H1255 H 0.31173 0.07082 0.66986 0.0
H1256 H 0.365 0.06149 0.59755 0.0
H1257 H 0.34892 0.05044 0.63386 0.0
H1258 H 0.48125 0.18592 0.65468 0.0
H1259 H 0.45229 0.17845 0.68919 0.0
H1260 H 0.46309 0.18577 0.60934 0.0
H1261 H 0.45628 0.15921 0.58039 0.0
C1262 C 0.37849 0.59333 0.64749 0.0
C1263 C 0.3627 0.61569 0.66886 0.0
C1264 C 0.35184 0.65297 0.62813 0.0
C1265 C 0.36078 0.62942 0.60658 0.0
N1266 N 0.37172 0.57551 0.59618 0.0
N1267 N 0.32444 0.66516 0.67876 0.0
C1268 C 0.37086 0.59908 0.61639 0.0
C1269 C 0.34643 0.64506 0.65898 0.0
N1270 N 0.40347 0.56727 0.65664 0.0
N1271 N 0.35157 0.68308 0.61959 0.0
H1272 H 0.31893 0.66005 0.70142 0.0
H1273 H 0.30705 0.68564 0.67204 0.0
H1274 H 0.35842 0.69028 0.59763 0.0
H1275 H 0.35036 0.70112 0.63493 0.0
H1276 H 0.42016 0.55177 0.64169 0.0
H1277 H 0.41295 0.56287 0.67901 0.0
H1278 H 0.37386 0.55256 0.6026 0.0
H1279 H 0.36472 0.5786 0.57328 0.0
C1280 C 0.36886 0.38088 0.24067 0.0
C1281 C 0.34688 0.36411 0.26496 0.0
C1282 C 0.4333 0.3589 0.28782 0.0
C1283 C 0.4558 0.37337 0.26235 0.0
N1284 N 0.4463 0.39384 0.21231 0.0
N1285 N 0.35858 0.33323 0.30943 0.0
C1286 C 0.42393 0.38337 0.23821 0.0
C1287 C 0.37929 0.35179 0.28778 0.0
N1288 N 0.33709 0.39451 0.21993 0.0
N1289 N 0.4631 0.35333 0.31273 0.0
H1290 H 0.31905 0.32824 0.31077 0.0
H1291 H 0.38101 0.32079 0.32465 0.0
H1292 H 0.50245 0.35896 0.31401 0.0
H1293 H 0.44797 0.34594 0.33317 0.0
H1294 H 0.35021 0.41021 0.20402 0.0
H1295 H 0.29686 0.39157 0.21962 0.0
H1296 H 0.42561 0.39801 0.1926 0.0
H1297 H 0.48637 0.39611 0.20962 0.0
C1298 C 0.86963 0.88655 0.24173 0.0
C1299 C 0.84403 0.87041 0.26518 0.0
C1300 C 0.92742 0.8638 0.29132 0.0
C1301 C 0.95347 0.87778 0.26672 0.0
N1302 N 0.95062 0.89734 0.21605 0.0
N1303 N 0.84892 0.83975 0.3102 0.0
C1304 C 0.92491 0.88787 0.24127 0.0
C1305 C 0.87313 0.85768 0.28925 0.0
N1306 N 0.8411 0.90095 0.21997 0.0
N1307 N 0.9541 0.85782 0.31729 0.0
H1308 H 0.80902 0.83555 0.31002 0.0
H1309 H 0.8688 0.82709 0.32638 0.0
H1310 H 0.99353 0.8627 0.32001 0.0
H1311 H 0.93635 0.85074 0.33712 0.0
H1312 H 0.85697 0.91623 0.20451 0.0
H1313 H 0.80082 0.89917 0.21852 0.0
H1314 H 0.93228 0.90156 0.19559 0.0
H1315 H 0.99101 0.89846 0.21472 0.0
C1316 C 0.36726 0.87034 0.02816 0.0
C1317 C 0.35028 0.89489 1.00956 0.0
C1318 C 0.44045 0.90364 0.99392 0.0
C1319 C 0.45787 0.88204 1.01565 0.0
N1320 N 0.43774 0.8489 0.05752 0.0
N1321 N 0.37195 0.93837 0.97849 0.0
C1322 C 0.42126 0.86651 0.03396 0.0
C1323 C 0.38726 0.91255 0.99349 0.0
N1324 N 0.33222 0.84951 0.03888 0.0
N1325 N 0.4741 0.9146 0.97273 0.0
H1326 H 0.3335 0.94597 0.9781 0.0
H1327 H 0.39809 0.95381 0.96896 0.0
H1328 H 0.51276 0.90757 0.97131 0.0
H1329 H 0.46227 0.92803 0.9546 0.0
H1330 H 0.34311 0.8296 0.05021 0.0
H1331 H 0.29287 0.85022 0.03337 0.0
H1332 H 0.41242 0.83971 0.07341 0.0
H1333 H 0.47689 0.84588 0.06287 0.0
C1334 C 0.92292 0.38364 0.04199 0.0
C1335 C 0.94508 0.36575 0.0186 0.0
C1336 C 0.858 0.35617 0.99782 0.0
C1337 C 0.83632 0.37613 0.01977 0.0
N1338 N 0.84785 0.41074 0.06154 0.0
N1339 N 0.93502 0.33759 0.97233 0.0
C1340 C 0.86879 0.39058 0.04138 0.0
C1341 C 0.91293 0.3525 0.99613 0.0
N1342 N 0.9533 0.39264 0.06568 0.0
N1343 N 0.82602 0.3405 0.9786 0.0
H1344 H 0.97473 0.33336 0.97072 0.0
H1345 H 0.91467 0.33116 0.9531 0.0
H1346 H 0.78606 0.34417 0.97726 0.0
H1347 H 0.83851 0.32257 0.96498 0.0
H1348 H 0.93885 0.40284 0.08507 0.0
H1349 H 0.99276 0.38741 0.06732 0.0
H1350 H 0.87003 0.42498 0.07528 0.0
H1351 H 0.80804 0.41471 0.06348 0.0
C1352 C 0.65689 0.62524 0.79221 0.0
C1353 C 0.6827 0.636 0.76606 0.0
C1354 C 0.5987 0.6414 0.74028 0.0
C1355 C 0.57345 0.62822 0.76557 0.0
N1356 N 0.57867 0.60365 0.81404 0.0
N1357 N 0.67975 0.65027 0.71375 0.0
C1358 C 0.60266 0.61884 0.79103 0.0
C1359 C 0.65402 0.64321 0.73972 0.0
N1360 N 0.68392 0.62245 0.81857 0.0
N1361 N 0.56976 0.65217 0.71672 0.0
H1362 H 0.72013 0.65195 0.71247 0.0
H1363 H 0.66157 0.65224 0.69292 0.0
H1364 H 0.52959 0.64923 0.7152 0.0
H1365 H 0.58505 0.66547 0.69943 0.0
H1366 H 0.66648 0.61783 0.83918 0.0
H1367 H 0.72339 0.62766 0.82048 0.0
H1368 H 0.59867 0.59327 0.83167 0.0
H1369 H 0.53884 0.59926 0.8144 0.0
C1370 C 0.11332 0.12721 0.79173 0.0
C1371 C 0.08644 0.11422 0.76692 0.0
C1372 C 0.16894 0.10895 0.73963 0.0
C1373 C 0.19503 0.12428 0.76348 0.0
N1374 N 0.19205 0.15067 0.81109 0.0
N1375 N 0.08695 0.09509 0.71612 0.0
C1376 C 0.16712 0.13434 0.78913 0.0
C1377 C 0.11384 0.10549 0.74062 0.0
N1378 N 0.08777 0.13125 0.81835 0.0
N1379 N 0.197 0.09757 0.71608 0.0
H1380 H 0.04701 0.09106 0.71634 0.0
H1381 H 0.10343 0.09207 0.69499 0.0
H1382 H 0.23667 0.10165 0.71344 0.0
H1383 H 0.18175 0.08288 0.69989 0.0
H1384 H 0.10592 0.13765 0.83831 0.0
H1385 H 0.04888 0.12526 0.82126 0.0
H1386 H 0.1728 0.16186 0.82847 0.0
H1387 H 0.23194 0.15489 0.81099 0.0
C1388 C 0.6096 0.12644 0.05054 0.0
C1389 C 0.58401 0.12265 0.02253 0.0
C1390 C 0.66758 0.11266 0.99798 0.0
C1391 C 0.69267 0.11353 0.02641 0.0
N1392 N 0.68737 0.11766 0.08033 0.0
N1393 N 0.58671 0.10844 0.97019 0.0
C1394 C 0.66362 0.11958 0.05288 0.0
C1395 C 0.61244 0.11454 0.99644 0.0
N1396 N 0.58227 0.13677 0.07485 0.0
N1397 N 0.69665 0.11189 0.97232 0.0
H1398 H 0.54661 0.11106 0.96773 0.0
H1399 H 0.60458 0.09886 0.95143 0.0
H1400 H 0.73715 0.11174 0.9726 0.0
H1401 H 0.68108 0.11443 0.95085 0.0
H1402 H 0.5995 0.14321 0.09507 0.0
H1403 H 0.54238 0.14108 0.07417 0.0
H1404 H 0.66752 0.11853 0.10067 0.0
H1405 H 0.72679 0.11271 0.08288 0.0
C1406 C 0.15994 0.6123 0.98522 0.0
C1407 C 0.18849 0.61711 1.01211 0.0
C1408 C 0.10779 0.63009 0.03885 0.0
C1409 C 0.07973 0.62696 1.01152 0.0
N1410 N 0.07949 0.62065 0.95779 0.0
N1411 N 0.19148 0.63262 0.06408 0.0
C1412 C 0.10594 0.61947 0.98445 0.0
C1413 C 0.16291 0.62672 0.03878 0.0
N1414 N 0.18443 0.60073 0.96044 0.0
N1415 N 0.08147 0.63496 0.0651 0.0
H1416 H 0.23108 0.62777 0.06574 0.0
H1417 H 0.17668 0.64349 0.08304 0.0
H1418 H 0.04149 0.63872 0.06594 0.0
H1419 H 0.09846 0.63361 0.0863 0.0
H1420 H 0.16498 0.59356 0.94116 0.0
H1421 H 0.22418 0.59613 0.95987 0.0
H1422 H 0.09699 0.61838 0.93685 0.0
H1423 H 0.04041 0.62685 0.95641 0.0
C1424 C 0.41658 0.85662 0.75129 0.0
C1425 C 0.44111 0.87509 0.77352 0.0
C1426 C 0.35684 0.88295 0.79815 0.0
C1427 C 0.33173 0.86738 0.77413 0.0
N1428 N 0.33668 0.84349 0.72534 0.0
N1429 N 0.43443 0.90838 0.8166 0.0
C1430 C 0.36132 0.85512 0.75009 0.0
C1431 C 0.41111 0.88914 0.79643 0.0
N1432 N 0.44599 0.84029 0.73136 0.0
N1433 N 0.32919 0.89052 0.82331 0.0
H1434 H 0.47439 0.91227 0.8171 0.0
H1435 H 0.41383 0.92213 0.83155 0.0
H1436 H 0.28972 0.88565 0.82576 0.0
H1437 H 0.34616 0.89891 0.84291 0.0
H1438 H 0.43062 0.82366 0.7171 0.0
H1439 H 0.4864 0.84158 0.73052 0.0
H1440 H 0.3559 0.83772 0.70556 0.0
H1441 H 0.29637 0.84198 0.72348 0.0
C1442 C 0.85 0.39551 0.74623 0.0
C1443 C 0.82888 0.37422 0.76712 0.0
C1444 C 0.91706 0.36027 0.78353 0.0
C1445 C 0.93802 0.38276 0.76376 0.0
N1446 N 0.9247 0.42443 0.72889 0.0
N1447 N 0.84117 0.33981 0.80894 0.0
C1448 C 0.90451 0.40128 0.74602 0.0
C1449 C 0.86212 0.35736 0.78653 0.0
N1450 N 0.81812 0.40918 0.72554 0.0
N1451 N 0.94971 0.34168 0.79961 0.0
H1452 H 0.80129 0.3368 0.81174 0.0
H1453 H 0.86284 0.33005 0.82624 0.0
H1454 H 0.98986 0.34482 0.80051 0.0
H1455 H 0.93742 0.32218 0.81107 0.0
H1456 H 0.83154 0.4219 0.70734 0.0
H1457 H 0.77803 0.40581 0.72495 0.0
H1458 H 0.90214 0.44124 0.71859 0.0
H1459 H 0.96443 0.42821 0.72638 0.0
C1460 C 0.37008 0.39801 0.49648 0.0
C1461 C 0.33796 0.38318 0.51797 0.0
C1462 C 0.41448 0.35809 0.54032 0.0
C1463 C 0.44684 0.37375 0.51958 0.0
N1464 N 0.45716 0.40996 0.479 0.0
N1465 N 0.32963 0.35398 0.56372 0.0
C1466 C 0.42508 0.39422 0.49806 0.0
C1467 C 0.36019 0.36443 0.54074 0.0
N1468 N 0.34786 0.41459 0.47373 0.0
N1469 N 0.43561 0.3371 0.55964 0.0
H1470 H 0.28997 0.35867 0.56519 0.0
H1471 H 0.344 0.34306 0.58279 0.0
H1472 H 0.47544 0.33312 0.56138 0.0
H1473 H 0.41364 0.32212 0.57267 0.0
H1474 H 0.36799 0.42259 0.45506 0.0
H1475 H 0.30818 0.4192 0.47254 0.0
H1476 H 0.44512 0.42821 0.46564 0.0
H1477 H 0.49687 0.40556 0.47721 0.0
C1478 C 0.91317 0.84986 0.49875 0.0
C1479 C 0.94389 0.86649 0.51965 0.0
C1480 C 0.86465 0.88713 0.54293 0.0
C1481 C 0.83434 0.8729 0.52021 0.0
N1482 N 0.82999 0.84484 0.47354 0.0
N1483 N 0.94985 0.90357 0.55981 0.0
C1484 C 0.85863 0.85521 0.49741 0.0
C1485 C 0.91988 0.88599 0.54114 0.0
N1486 N 0.93601 0.82897 0.48007 0.0
N1487 N 0.84069 0.90043 0.56704 0.0
H1488 H 0.99027 0.90207 0.56062 0.0
H1489 H 0.93494 0.921 0.57325 0.0
H1490 H 0.8004 0.90138 0.56937 0.0
H1491 H 0.86049 0.90812 0.58601 0.0
H1492 H 0.91508 0.81357 0.46689 0.0
H1493 H 0.976 0.82532 0.47935 0.0
H1494 H 0.84631 0.83498 0.45446 0.0
H1495 H 0.79013 0.84858 0.4714 0.0
C1496 C 0.61149 0.13783 0.29672 0.0
C1497 C 0.58471 0.12736 0.27072 0.0
C1498 C 0.66745 0.12354 0.24349 0.0
C1499 C 0.69392 0.1351 0.26915 0.0
N1500 N 0.69115 0.15816 0.31829 0.0
N1501 N 0.58531 0.11429 0.21808 0.0
C1502 C 0.66585 0.14388 0.29515 0.0
C1503 C 0.61221 0.12115 0.24376 0.0
N1504 N 0.58531 0.14054 0.32332 0.0
N1505 N 0.69539 0.11487 0.21883 0.0
H1506 H 0.54504 0.1117 0.21748 0.0
H1507 H 0.60217 0.11302 0.19689 0.0
H1508 H 0.73499 0.11938 0.21667 0.0
H1509 H 0.67999 0.10242 0.20096 0.0
H1510 H 0.60332 0.1449 0.34384 0.0
H1511 H 0.54575 0.13575 0.32549 0.0
H1512 H 0.67227 0.16803 0.33655 0.0
H1513 H 0.73102 0.16244 0.31814 0.0
C1514 C 0.11573 0.63013 0.24656 0.0
C1515 C 0.09223 0.62198 0.27427 0.0
C1516 C 0.17529 0.62963 0.30032 0.0
C1517 C 0.20021 0.63408 0.27227 0.0
N1518 N 0.19518 0.63829 0.21834 0.0
N1519 N 0.09963 0.61098 0.32716 0.0
C1520 C 0.17064 0.63447 0.24527 0.0
C1521 C 0.12202 0.62096 0.30108 0.0
N1522 N 0.08527 0.6347 0.22173 0.0
N1523 N 0.20221 0.6351 0.32626 0.0
H1524 H 0.06057 0.60466 0.32859 0.0
H1525 H 0.12054 0.60657 0.34674 0.0
H1526 H 0.24041 0.64313 0.32621 0.0
H1527 H 0.18537 0.63496 0.34751 0.0
H1528 H 0.09891 0.64385 0.20163 0.0
H1529 H 0.04513 0.63127 0.22177 0.0
H1530 H 0.17744 0.63466 0.19761 0.0
H1531 H 0.23428 0.64413 0.21674 0.0
C1532 C 0.67177 0.63702 0.49692 0.0
C1533 C 0.6952 0.62241 0.52211 0.0
C1534 C 0.6099 0.61765 0.54629 0.0
C1535 C 0.58601 0.63014 0.52021 0.0
N1536 N 0.59271 0.64894 0.46942 0.0
N1537 N 0.68706 0.59586 0.5694 0.0
C1538 C 0.61657 0.63933 0.49525 0.0
C1539 C 0.66434 0.61172 0.54633 0.0
N1540 N 0.70239 0.64869 0.47455 0.0
N1541 N 0.58079 0.6129 0.57158 0.0
H1542 H 0.72709 0.59245 0.57108 0.0
H1543 H 0.66614 0.58429 0.58588 0.0
H1544 H 0.54112 0.61774 0.57265 0.0
H1545 H 0.59647 0.60689 0.59233 0.0
H1546 H 0.68867 0.66305 0.45762 0.0
H1547 H 0.74247 0.64524 0.47358 0.0
H1548 H 0.61197 0.65226 0.44914 0.0
H1549 H 0.55263 0.65186 0.4676 0.0
C1550 C 0.10873 0.12593 0.54603 0.0
C1551 C 0.08446 0.1283 0.51744 0.0
C1552 C 0.1674 0.11713 0.49263 0.0
C1553 C 0.19238 0.11687 0.52108 0.0
N1554 N 0.18928 0.12468 0.57463 0.0
N1555 N 0.09112 0.13138 0.46361 0.0
C1556 C 0.16371 0.12231 0.54776 0.0
C1557 C 0.11394 0.12531 0.49073 0.0
N1558 N 0.07898 0.12627 0.57148 0.0
N1559 N 0.19471 0.10909 0.4675 0.0
H1560 H 0.05242 0.13824 0.46166 0.0
H1561 H 0.11136 0.13243 0.44341 0.0
H1562 H 0.23409 0.10335 0.46804 0.0
H1563 H 0.17766 0.10569 0.44654 0.0
H1564 H 0.09334 0.12128 0.59281 0.0
H1565 H 0.03884 0.12969 0.57109 0.0
H1566 H 0.17173 0.13212 0.59438 0.0
H1567 H 0.22918 0.12093 0.57685 0.0
loop_
_geom_bond_atom_site_label_1
_geom_bond_atom_site_label_2
_geom_bond_distance
_geom_bond_site_symmetry_2
_ccdc_geom_bond_type
Mg0 O7 2.141 . S
Mg0 O8 2.048 . S
Mg0 O9 2.048 . S
Mg0 O12 2.141 . S
C1 O2 1.313 . S
C1 O8 1.195 . S
O2 C1 1.313 . S
C3 O4 1.245 . S
C3 O12 1.289 . S
O4 C3 1.245 . S
C5 O6 1.245 . S
C5 O7 1.289 . S
O6 C5 1.245 . S
O7 Mg0 2.141 . S
O7 C5 1.289 . S
O8 Mg0 2.048 . S
O8 C1 1.195 . S
O9 Mg0 2.048 . S
O9 C10 1.195 . S
C10 O9 1.195 . S
C10 O11 1.313 . S
O11 C10 1.313 . S
O12 Mg0 2.141 . S
O12 C3 1.289 . S
Mg13 O20 2.141 . S
Mg13 O21 2.048 . S
Mg13 O22 2.048 . S
Mg13 O25 2.141 . S
C14 O15 1.313 . S
C14 O21 1.195 . S
O15 C14 1.313 . S
C16 O17 1.245 . S
C16 O25 1.289 . S
O17 C16 1.245 . S
C18 O19 1.245 . S
C18 O20 1.289 . S
O19 C18 1.245 . S
O20 Mg13 2.141 . S
O20 C18 1.289 . S
O21 Mg13 2.048 . S
O21 C14 1.195 . S
O22 Mg13 2.048 . S
O22 C23 1.181 1_455 S
C23 O22 1.181 1_655 S
C23 O24 1.318 . S
O24 C23 1.318 . S
O25 Mg13 2.141 . S
O25 C16 1.289 . S
Mg26 O33 2.141 1_554 S
Mg26 O34 2.052 . S
Mg26 O35 2.048 . S
Mg26 O38 2.137 1_554 S
C27 O28 1.313 . S
C27 O34 1.195 . S
O28 C27 1.313 . S
C29 O30 1.245 . S
C29 O38 1.289 . S
O30 C29 1.245 . S
C31 O32 1.245 . S
C31 O33 1.289 . S
O32 C31 1.245 . S
O33 Mg26 2.141 1_556 S
O33 C31 1.289 . S
O34 Mg26 2.052 . S
O34 C27 1.195 . S
O35 Mg26 2.048 . S
O35 C36 1.195 . S
C36 O35 1.195 . S
C36 O37 1.313 . S
O37 C36 1.313 . S
O38 Mg26 2.137 1_556 S
O38 C29 1.289 . S
Mg39 O46 2.141 1_554 S
Mg39 O47 2.052 . S
Mg39 O48 2.048 . S
Mg39 O51 2.137 1_554 S
C40 O41 1.313 . S
C40 O47 1.195 . S
O41 C40 1.313 . S
C42 O43 1.245 . S
C42 O51 1.289 . S
O43 C42 1.245 . S
C44 O45 1.245 . S
C44 O46 1.289 . S
O45 C44 1.245 . S
O46 Mg39 2.141 1_556 S
O46 C44 1.289 . S
O47 Mg39 2.052 . S
O47 C40 1.195 . S
O48 Mg39 2.048 . S
O48 C49 1.195 1_455 S
C49 O48 1.195 1_655 S
C49 O50 1.313 . S
O50 C49 1.313 . S
O51 Mg39 2.137 1_556 S
O51 C42 1.289 . S
Mg52 O59 2.141 . S
Mg52 O60 2.048 . S
Mg52 O61 2.048 . S
Mg52 O64 2.141 . S
C53 O54 1.313 . S
C53 O60 1.195 . S
O54 C53 1.313 . S
C55 O56 1.245 . S
C55 O64 1.289 . S
O56 C55 1.245 . S
C57 O58 1.245 . S
C57 O59 1.289 . S
O58 C57 1.245 . S
O59 Mg52 2.141 . S
O59 C57 1.289 . S
O60 Mg52 2.048 . S
O60 C53 1.195 . S
O61 Mg52 2.048 . S
O61 C62 1.195 . S
C62 O61 1.195 . S
C62 O63 1.313 . S
O63 C62 1.313 . S
O64 Mg52 2.141 . S
O64 C55 1.289 . S
Mg65 O72 2.141 . S
Mg65 O73 2.048 . S
Mg65 O74 2.048 . S
Mg65 O77 2.141 . S
C66 O67 1.313 . S
C66 O73 1.195 . S
O67 C66 1.313 . S
C68 O69 1.245 . S
C68 O77 1.289 . S
O69 C68 1.245 . S
C70 O71 1.245 . S
C70 O72 1.289 . S
O71 C70 1.245 . S
O72 Mg65 2.141 . S
O72 C70 1.289 . S
O73 Mg65 2.048 . S
O73 C66 1.195 . S
O74 Mg65 2.048 . S
O74 C75 1.195 . S
C75 O74 1.195 . S
C75 O76 1.313 . S
O76 C75 1.313 . S
O77 Mg65 2.141 . S
O77 C68 1.289 . S
Mg78 O85 2.141 . S
Mg78 O86 2.048 1_554 S
Mg78 O87 2.048 . S
Mg78 O90 2.141 . S
C79 O80 1.313 . S
C79 O86 1.195 . S
O80 C79 1.313 . S
C81 O82 1.245 . S
C81 O90 1.289 . S
O82 C81 1.245 . S
C83 O84 1.245 1_554 S
C83 O85 1.289 . S
O84 C83 1.245 1_556 S
O85 Mg78 2.141 . S
O85 C83 1.289 . S
O86 Mg78 2.048 1_556 S
O86 C79 1.195 . S
O87 Mg78 2.048 . S
O87 C88 1.190 1_554 S
C88 O87 1.190 1_556 S
C88 O89 1.313 . S
O89 C88 1.313 . S
O90 Mg78 2.141 . S
O90 C81 1.289 . S
Mg91 O98 2.141 . S
Mg91 O99 2.048 1_554 S
Mg91 O100 2.048 . S
Mg91 O103 2.141 . S
C92 O93 1.313 . S
C92 O99 1.195 . S
O93 C92 1.313 . S
C94 O95 1.245 . S
C94 O103 1.289 . S
O95 C94 1.245 . S
C96 O97 1.245 1_554 S
C96 O98 1.289 . S
O97 C96 1.245 1_556 S
O98 Mg91 2.141 . S
O98 C96 1.289 . S
O99 Mg91 2.048 1_556 S
O99 C92 1.195 . S
O100 Mg91 2.048 . S
O100 C101 1.190 1_554 S
C101 O100 1.190 1_556 S
C101 O102 1.313 . S
O102 C101 1.313 . S
O103 Mg91 2.141 . S
O103 C94 1.289 . S
Mg104 O111 2.141 . S
Mg104 O112 2.048 . S
Mg104 O113 2.048 . S
Mg104 O116 2.141 . S
C105 O106 1.313 . S
C105 O112 1.195 . S
O106 C105 1.313 . S
C107 O108 1.245 . S
C107 O116 1.289 . S
O108 C107 1.245 . S
C109 O110 1.245 . S
C109 O111 1.289 . S
O110 C109 1.245 . S
O111 Mg104 2.141 . S
O111 C109 1.289 . S
O112 Mg104 2.048 . S
O112 C105 1.195 . S
O113 Mg104 2.048 . S
O113 C114 1.195 . S
C114 O113 1.195 . S
C114 O115 1.313 . S
O115 C114 1.313 . S
O116 Mg104 2.141 . S
O116 C107 1.289 . S
Mg117 O124 2.141 . S
Mg117 O125 2.048 . S
Mg117 O126 2.048 . S
Mg117 O129 2.141 . S
C118 O119 1.313 . S
C118 O125 1.195 . S
O119 C118 1.313 . S
C120 O121 1.245 . S
C120 O129 1.289 . S
O121 C120 1.245 . S
C122 O123 1.245 . S
C122 O124 1.289 . S
O123 C122 1.245 . S
O124 Mg117 2.141 . S
O124 C122 1.289 . S
O125 Mg117 2.048 . S
O125 C118 1.195 . S
O126 Mg117 2.048 . S
O126 C127 1.178 1_455 S
C127 O126 1.178 1_655 S
C127 O128 1.319 . S
O128 C127 1.319 . S
O129 Mg117 2.141 . S
O129 C120 1.289 . S
Mg130 O137 2.141 . S
Mg130 O138 2.048 . S
Mg130 O139 2.048 . S
Mg130 O142 2.141 . S
C131 O132 1.313 . S
C131 O138 1.195 . S
O132 C131 1.313 . S
C133 O134 1.245 . S
C133 O142 1.289 . S
O134 C133 1.245 . S
C135 O136 1.245 . S
C135 O137 1.289 . S
O136 C135 1.245 . S
O137 Mg130 2.141 . S
O137 C135 1.289 . S
O138 Mg130 2.048 . S
O138 C131 1.195 . S
O139 Mg130 2.048 . S
O139 C140 1.195 . S
C140 O139 1.195 . S
C140 O141 1.313 . S
O141 C140 1.313 . S
O142 Mg130 2.141 . S
O142 C133 1.289 . S
Mg143 O150 2.141 . S
Mg143 O151 2.048 . S
Mg143 O152 2.048 . S
Mg143 O155 2.141 . S
C144 O145 1.313 . S
C144 O151 1.195 . S
O145 C144 1.313 . S
C146 O147 1.245 . S
C146 O155 1.289 . S
O147 C146 1.245 . S
C148 O149 1.245 . S
C148 O150 1.289 . S
O149 C148 1.245 . S
O150 Mg143 2.141 . S
O150 C148 1.289 . S
O151 Mg143 2.048 . S
O151 C144 1.195 . S
O152 Mg143 2.048 . S
O152 C153 1.195 1_455 S
C153 O152 1.195 1_655 S
C153 O154 1.313 . S
O154 C153 1.313 . S
O155 Mg143 2.141 . S
O155 C146 1.289 . S
Mg156 O163 2.141 . S
Mg156 O164 2.048 . S
Mg156 O165 2.048 . S
Mg156 O168 2.141 . S
C157 O158 1.313 . S
C157 O164 1.195 . S
O158 C157 1.313 . S
C159 O160 1.245 . S
C159 O168 1.289 . S
O160 C159 1.245 . S
C161 O162 1.245 . S
C161 O163 1.289 . S
O162 C161 1.245 . S
O163 Mg156 2.141 . S
O163 C161 1.289 . S
O164 Mg156 2.048 . S
O164 C157 1.195 . S
O165 Mg156 2.048 . S
O165 C166 1.195 . S
C166 O165 1.195 . S
C166 O167 1.313 . S
O167 C166 1.313 . S
O168 Mg156 2.141 . S
O168 C159 1.289 . S
Mg169 O176 2.141 . S
Mg169 O177 2.048 . S
Mg169 O178 2.048 . S
Mg169 O181 2.141 . S
C170 O171 1.313 . S
C170 O177 1.195 . S
O171 C170 1.313 . S
C172 O173 1.245 . S
C172 O181 1.289 . S
O173 C172 1.245 . S
C174 O175 1.245 . S
C174 O176 1.289 . S
O175 C174 1.245 . S
O176 Mg169 2.141 . S
O176 C174 1.289 . S
O177 Mg169 2.048 . S
O177 C170 1.195 . S
O178 Mg169 2.048 . S
O178 C179 1.195 . S
C179 O178 1.195 . S
C179 O180 1.313 . S
O180 C179 1.313 . S
O181 Mg169 2.141 . S
O181 C172 1.289 . S
Mg182 O189 2.141 . S
Mg182 O190 2.048 . S
Mg182 O191 2.048 . S
Mg182 O194 2.141 . S
C183 O184 1.313 . S
C183 O190 1.195 . S
O184 C183 1.313 . S
C185 O186 1.245 . S
C185 O194 1.289 . S
O186 C185 1.245 . S
C187 O188 1.245 . S
C187 O189 1.289 . S
O188 C187 1.245 . S
O189 Mg182 2.141 . S
O189 C187 1.289 . S
O190 Mg182 2.048 . S
O190 C183 1.195 . S
O191 Mg182 2.048 . S
O191 C192 1.195 . S
C192 O191 1.195 . S
C192 O193 1.313 . S
O193 C192 1.313 . S
O194 Mg182 2.141 . S
O194 C185 1.289 . S
Mg195 O202 2.141 . S
Mg195 O203 2.048 . S
Mg195 O204 2.048 . S
Mg195 O207 2.141 . S
C196 O197 1.313 . S
C196 O203 1.195 . S
O197 C196 1.313 . S
C198 O199 1.245 . S
C198 O207 1.289 . S
O199 C198 1.245 . S
C200 O201 1.245 . S
C200 O202 1.289 . S
O201 C200 1.245 . S
O202 Mg195 2.141 . S
O202 C200 1.289 . S
O203 Mg195 2.048 . S
O203 C196 1.195 . S
O204 Mg195 2.048 . S
O204 C205 1.195 . S
C205 O204 1.195 . S
C205 O206 1.313 . S
O206 C205 1.313 . S
O207 Mg195 2.141 . S
O207 C198 1.289 . S
Mg208 O215 2.141 . S
Mg208 O216 2.048 . S
Mg208 O217 2.048 . S
Mg208 O220 2.141 . S
C209 O210 1.313 . S
C209 O216 1.195 . S
O210 C209 1.313 . S
C211 O212 1.245 . S
C211 O220 1.289 . S
O212 C211 1.245 . S
C213 O214 1.245 . S
C213 O215 1.289 . S
O214 C213 1.245 . S
O215 Mg208 2.141 . S
O215 C213 1.289 . S
O216 Mg208 2.048 . S
O216 C209 1.195 . S
O217 Mg208 2.048 . S
O217 C218 1.195 . S
C218 O217 1.195 . S
C218 O219 1.313 . S
O219 C218 1.313 . S
O220 Mg208 2.141 . S
O220 C211 1.289 . S
Mg221 O228 2.141 . S
Mg221 O229 2.048 . S
Mg221 O230 2.048 . S
Mg221 O233 2.141 . S
C222 O223 1.313 . S
C222 O229 1.195 . S
O223 C222 1.313 . S
C224 O225 1.245 . S
C224 O233 1.289 . S
O225 C224 1.245 . S
C226 O227 1.245 . S
C226 O228 1.289 . S
O227 C226 1.245 . S
O228 Mg221 2.141 . S
O228 C226 1.289 . S
O229 Mg221 2.048 . S
O229 C222 1.195 . S
O230 Mg221 2.048 . S
O230 C231 1.195 . S
C231 O230 1.195 . S
C231 O232 1.313 . S
O232 C231 1.313 . S
O233 Mg221 2.141 . S
O233 C224 1.289 . S
Mg234 O241 2.141 . S
Mg234 O242 2.048 . S
Mg234 O243 2.048 . S
Mg234 O246 2.141 . S
C235 O236 1.313 . S
C235 O242 1.195 . S
O236 C235 1.313 . S
C237 O238 1.245 . S
C237 O246 1.289 . S
O238 C237 1.245 . S
C239 O240 1.245 . S
C239 O241 1.289 . S
O240 C239 1.245 . S
O241 Mg234 2.141 . S
O241 C239 1.289 . S
O242 Mg234 2.048 . S
O242 C235 1.195 . S
O243 Mg234 2.048 . S
O243 C244 1.195 . S
C244 O243 1.195 . S
C244 O245 1.313 . S
O245 C244 1.313 . S
O246 Mg234 2.141 . S
O246 C237 1.289 . S
Mg247 O254 2.141 . S
Mg247 O255 2.048 . S
Mg247 O256 2.048 . S
Mg247 O259 2.141 . S
C248 O249 1.313 . S
C248 O255 1.195 . S
O249 C248 1.313 . S
C250 O251 1.245 . S
C250 O259 1.289 . S
O251 C250 1.245 . S
C252 O253 1.245 . S
C252 O254 1.289 . S
O253 C252 1.245 . S
O254 Mg247 2.141 . S
O254 C252 1.289 . S
O255 Mg247 2.048 . S
O255 C248 1.195 . S
O256 Mg247 2.048 . S
O256 C257 1.195 . S
C257 O256 1.195 . S
C257 O258 1.313 . S
O258 C257 1.313 . S
O259 Mg247 2.141 . S
O259 C250 1.289 . S
Mg260 O267 2.141 . S
Mg260 O268 2.048 . S
Mg260 O269 2.048 . S
Mg260 O272 2.141 . S
C261 O262 1.313 . S
C261 O268 1.195 . S
O262 C261 1.313 . S
C263 O264 1.245 . S
C263 O272 1.289 . S
O264 C263 1.245 . S
C265 O266 1.245 . S
C265 O267 1.289 . S
O266 C265 1.245 . S
O267 Mg260 2.141 . S
O267 C265 1.289 . S
O268 Mg260 2.048 . S
O268 C261 1.195 . S
O269 Mg260 2.048 . S
O269 C270 1.195 . S
C270 O269 1.195 . S
C270 O271 1.313 . S
O271 C270 1.313 . S
O272 Mg260 2.141 . S
O272 C263 1.289 . S
Mg273 O280 2.141 . S
Mg273 O281 2.048 . S
Mg273 O282 2.048 . S
Mg273 O285 2.141 . S
C274 O275 1.313 . S
C274 O281 1.195 . S
O275 C274 1.313 . S
C276 O277 1.245 . S
C276 O285 1.289 . S
O277 C276 1.245 . S
C278 O279 1.245 . S
C278 O280 1.289 . S
O279 C278 1.245 . S
O280 Mg273 2.141 . S
O280 C278 1.289 . S
O281 Mg273 2.048 . S
O281 C274 1.195 . S
O282 Mg273 2.048 . S
O282 C283 1.195 . S
C283 O282 1.195 . S
C283 O284 1.313 . S
O284 C283 1.313 . S
O285 Mg273 2.141 . S
O285 C276 1.289 . S
Mg286 O293 2.141 . S
Mg286 O294 2.048 . S
Mg286 O295 2.048 . S
Mg286 O298 2.141 . S
C287 O288 1.313 . S
C287 O294 1.195 . S
O288 C287 1.313 . S
C289 O290 1.245 . S
C289 O298 1.289 . S
O290 C289 1.245 . S
C291 O292 1.245 . S
C291 O293 1.289 . S
O292 C291 1.245 . S
O293 Mg286 2.141 . S
O293 C291 1.289 . S
O294 Mg286 2.048 . S
O294 C287 1.195 . S
O295 Mg286 2.048 . S
O295 C296 1.195 . S
C296 O295 1.195 . S
C296 O297 1.313 . S
O297 C296 1.313 . S
O298 Mg286 2.141 . S
O298 C289 1.289 . S
Mg299 O306 2.141 . S
Mg299 O307 2.048 . S
Mg299 O308 2.048 . S
Mg299 O311 2.141 . S
C300 O301 1.313 . S
C300 O307 1.195 . S
O301 C300 1.313 . S
C302 O303 1.245 . S
C302 O311 1.289 . S
O303 C302 1.245 . S
C304 O305 1.245 . S
C304 O306 1.289 . S
O305 C304 1.245 . S
O306 Mg299 2.141 . S
O306 C304 1.289 . S
O307 Mg299 2.048 . S
O307 C300 1.195 . S
O308 Mg299 2.048 . S
O308 C309 1.195 . S
C309 O308 1.195 . S
C309 O310 1.313 . S
O310 C309 1.313 . S
O311 Mg299 2.141 . S
O311 C302 1.289 . S
Mg312 O319 2.141 . S
Mg312 O320 2.048 . S
Mg312 O321 2.048 . S
Mg312 O324 2.141 . S
C313 O314 1.313 . S
C313 O320 1.195 . S
O314 C313 1.313 . S
C315 O316 1.245 . S
C315 O324 1.289 . S
O316 C315 1.245 . S
C317 O318 1.245 . S
C317 O319 1.289 . S
O318 C317 1.245 . S
O319 Mg312 2.141 . S
O319 C317 1.289 . S
O320 Mg312 2.048 . S
O320 C313 1.195 . S
O321 Mg312 2.048 . S
O321 C322 1.195 . S
C322 O321 1.195 . S
C322 O323 1.313 . S
O323 C322 1.313 . S
O324 Mg312 2.141 . S
O324 C315 1.289 . S
Mg325 O332 2.141 . S
Mg325 O333 2.048 . S
Mg325 O334 2.048 . S
Mg325 O337 2.141 . S
C326 O327 1.313 . S
C326 O333 1.195 . S
O327 C326 1.313 . S
C328 O329 1.245 . S
C328 O337 1.289 . S
O329 C328 1.245 . S
C330 O331 1.245 . S
C330 O332 1.289 . S
O331 C330 1.245 . S
O332 Mg325 2.141 . S
O332 C330 1.289 . S
O333 Mg325 2.048 . S
O333 C326 1.195 . S
O334 Mg325 2.048 . S
O334 C335 1.195 . S
C335 O334 1.195 . S
C335 O336 1.313 . S
O336 C335 1.313 . S
O337 Mg325 2.141 . S
O337 C328 1.289 . S
Mg338 O345 2.141 1_554 S
Mg338 O346 2.052 . S
Mg338 O347 2.048 . S
Mg338 O350 2.137 1_554 S
C339 O340 1.313 . S
C339 O346 1.195 . S
O340 C339 1.313 . S
C341 O342 1.245 . S
C341 O350 1.289 . S
O342 C341 1.245 . S
C343 O344 1.245 . S
C343 O345 1.289 . S
O344 C343 1.245 . S
O345 Mg338 2.141 1_556 S
O345 C343 1.289 . S
O346 Mg338 2.052 . S
O346 C339 1.195 . S
O347 Mg338 2.048 . S
O347 C348 1.195 . S
C348 O347 1.195 . S
C348 O349 1.313 . S
O349 C348 1.313 . S
O350 Mg338 2.137 1_556 S
O350 C341 1.289 . S
Mg351 O358 2.141 1_554 S
Mg351 O359 2.052 . S
Mg351 O360 2.048 . S
Mg351 O363 2.137 1_554 S
C352 O353 1.313 . S
C352 O359 1.195 . S
O353 C352 1.313 . S
C354 O355 1.245 . S
C354 O363 1.289 . S
O355 C354 1.245 . S
C356 O357 1.245 . S
C356 O358 1.289 . S
O357 C356 1.245 . S
O358 Mg351 2.141 1_556 S
O358 C356 1.289 . S
O359 Mg351 2.052 . S
O359 C352 1.195 . S
O360 Mg351 2.048 . S
O360 C361 1.195 . S
C361 O360 1.195 . S
C361 O362 1.313 . S
O362 C361 1.313 . S
O363 Mg351 2.137 1_556 S
O363 C354 1.289 . S
Mg364 O371 2.141 . S
Mg364 O372 2.048 . S
Mg364 O373 2.048 . S
Mg364 O376 2.141 . S
C365 O366 1.313 . S
C365 O372 1.195 . S
O366 C365 1.313 . S
C367 O368 1.245 . S
C367 O376 1.289 . S
O368 C367 1.245 . S
C369 O370 1.245 . S
C369 O371 1.289 . S
O370 C369 1.245 . S
O371 Mg364 2.141 . S
O371 C369 1.289 . S
O372 Mg364 2.048 . S
O372 C365 1.195 . S
O373 Mg364 2.048 . S
O373 C374 1.195 . S
C374 O373 1.195 . S
C374 O375 1.313 . S
O375 C374 1.313 . S
O376 Mg364 2.141 . S
O376 C367 1.289 . S
Mg377 O384 2.141 . S
Mg377 O385 2.048 . S
Mg377 O386 2.048 . S
Mg377 O389 2.141 . S
C378 O379 1.313 . S
C378 O385 1.195 . S
O379 C378 1.313 . S
C380 O381 1.245 . S
C380 O389 1.289 . S
O381 C380 1.245 . S
C382 O383 1.245 . S
C382 O384 1.289 . S
O383 C382 1.245 . S
O384 Mg377 2.141 . S
O384 C382 1.289 . S
O385 Mg377 2.048 . S
O385 C378 1.195 . S
O386 Mg377 2.048 . S
O386 C387 1.195 . S
C387 O386 1.195 . S
C387 O388 1.313 . S
O388 C387 1.313 . S
O389 Mg377 2.141 . S
O389 C380 1.289 . S
Mg390 O397 2.141 . S
Mg390 O398 2.048 1_554 S
Mg390 O399 2.048 . S
Mg390 O402 2.141 . S
C391 O392 1.313 . S
C391 O398 1.195 . S
O392 C391 1.313 . S
C393 O394 1.245 . S
C393 O402 1.289 . S
O394 C393 1.245 . S
C395 O396 1.245 1_554 S
C395 O397 1.289 . S
O396 C395 1.245 1_556 S
O397 Mg390 2.141 . S
O397 C395 1.289 . S
O398 Mg390 2.048 1_556 S
O398 C391 1.195 . S
O399 Mg390 2.048 . S
O399 C400 1.190 1_554 S
C400 O399 1.190 1_556 S
C400 O401 1.313 . S
O401 C400 1.313 . S
O402 Mg390 2.141 . S
O402 C393 1.289 . S
Mg403 O410 2.141 . S
Mg403 O411 2.048 1_554 S
Mg403 O412 2.048 . S
Mg403 O415 2.141 . S
C404 O405 1.313 . S
C404 O411 1.195 . S
O405 C404 1.313 . S
C406 O407 1.245 . S
C406 O415 1.289 . S
O407 C406 1.245 . S
C408 O409 1.245 1_554 S
C408 O410 1.289 . S
O409 C408 1.245 1_556 S
O410 Mg403 2.141 . S
O410 C408 1.289 . S
O411 Mg403 2.048 1_556 S
O411 C404 1.195 . S
O412 Mg403 2.048 . S
O412 C413 1.190 1_554 S
C413 O412 1.190 1_556 S
C413 O414 1.313 . S
O414 C413 1.313 . S
O415 Mg403 2.141 . S
O415 C406 1.289 . S
C416 C417 1.363 . S
C416 C422 1.379 . S
C416 N424 1.356 . S
C417 C416 1.363 . S
C417 C423 1.363 . S
C418 C419 1.363 . S
C418 C423 1.379 . S
C418 N425 1.356 . S
C419 C418 1.363 . S
C419 C422 1.363 . S
N420 C422 1.356 . S
N420 H432 0.984 . S
N420 H433 0.985 . S
N421 C423 1.356 . S
N421 H426 0.984 . S
N421 H427 0.985 . S
C422 C416 1.379 . S
C422 C419 1.363 . S
C422 N420 1.356 . S
C423 C417 1.363 . S
C423 C418 1.379 . S
C423 N421 1.356 . S
N424 C416 1.356 . S
N424 H430 0.984 . S
N424 H431 0.984 . S
N425 C418 1.356 . S
N425 H428 0.984 . S
N425 H429 0.985 . S
H426 N421 0.984 . S
H427 N421 0.985 . S
H428 N425 0.984 . S
H429 N425 0.985 . S
H430 N424 0.984 . S
H431 N424 0.984 . S
H432 N420 0.984 . S
H433 N420 0.985 . S
C434 C435 1.363 . S
C434 C440 1.379 . S
C434 N442 1.356 . S
C435 C434 1.363 . S
C435 C441 1.363 . S
C436 C437 1.363 . S
C436 C441 1.379 . S
C436 N443 1.356 . S
C437 C436 1.363 . S
C437 C440 1.363 . S
N438 C440 1.356 . S
N438 H450 0.984 . S
N438 H451 0.985 . S
N439 C441 1.356 . S
N439 H444 0.984 . S
N439 H445 0.985 . S
C440 C434 1.379 . S
C440 C437 1.363 . S
C440 N438 1.356 . S
C441 C435 1.363 . S
C441 C436 1.379 . S
C441 N439 1.356 . S
N442 C434 1.356 . S
N442 H448 0.984 . S
N442 H449 0.984 . S
N443 C436 1.356 . S
N443 H446 0.984 . S
N443 H447 0.985 . S
H444 N439 0.984 . S
H445 N439 0.985 . S
H446 N443 0.984 . S
H447 N443 0.985 . S
H448 N442 0.984 . S
H449 N442 0.984 . S
H450 N438 0.984 . S
H451 N438 0.985 . S
C452 C453 1.363 . S
C452 C458 1.379 . S
C452 N460 1.356 . S
C453 C452 1.363 . S
C453 C459 1.363 . S
C454 C455 1.363 . S
C454 C459 1.379 . S
C454 N461 1.356 . S
C455 C454 1.363 . S
C455 C458 1.363 . S
N456 C458 1.356 . S
N456 H468 0.984 . S
N456 H469 0.985 . S
N457 C459 1.356 . S
N457 H462 0.984 . S
N457 H463 0.985 . S
C458 C452 1.379 . S
C458 C455 1.363 . S
C458 N456 1.356 . S
C459 C453 1.363 . S
C459 C454 1.379 . S
C459 N457 1.356 . S
N460 C452 1.356 . S
N460 H466 0.984 . S
N460 H467 0.984 . S
N461 C454 1.356 . S
N461 H464 0.984 . S
N461 H465 0.985 . S
H462 N457 0.984 . S
H463 N457 0.985 . S
H464 N461 0.984 . S
H465 N461 0.985 . S
H466 N460 0.984 . S
H467 N460 0.984 . S
H468 N456 0.984 . S
H469 N456 0.985 . S
C470 C471 1.363 . S
C470 C476 1.379 . S
C470 N478 1.356 . S
C471 C470 1.363 . S
C471 C477 1.363 . S
C472 C473 1.363 . S
C472 C477 1.379 . S
C472 N479 1.356 . S
C473 C472 1.363 . S
C473 C476 1.363 . S
N474 C476 1.356 . S
N474 H486 0.984 . S
N474 H487 0.985 . S
N475 C477 1.356 . S
N475 H480 0.984 . S
N475 H481 0.985 . S
C476 C470 1.379 . S
C476 C473 1.363 . S
C476 N474 1.356 . S
C477 C471 1.363 . S
C477 C472 1.379 . S
C477 N475 1.356 . S
N478 C470 1.356 . S
N478 H484 0.984 . S
N478 H485 0.984 . S
N479 C472 1.356 . S
N479 H482 0.984 . S
N479 H483 0.985 . S
H480 N475 0.984 . S
H481 N475 0.985 . S
H482 N479 0.984 . S
H483 N479 0.985 . S
H484 N478 0.984 . S
H485 N478 0.984 . S
H486 N474 0.984 . S
H487 N474 0.985 . S
C488 C489 1.363 . S
C488 C494 1.379 . S
C488 N496 1.356 . S
C489 C488 1.363 . S
C489 C495 1.363 . S
C490 C491 1.363 . S
C490 C495 1.379 . S
C490 N497 1.356 . S
C491 C490 1.363 . S
C491 C494 1.363 . S
N492 C494 1.356 . S
N492 H504 0.984 . S
N492 H505 0.985 . S
N493 C495 1.356 . S
N493 H498 0.984 . S
N493 H499 0.985 . S
C494 C488 1.379 . S
C494 C491 1.363 . S
C494 N492 1.356 . S
C495 C489 1.363 . S
C495 C490 1.379 . S
C495 N493 1.356 . S
N496 C488 1.356 . S
N496 H502 0.984 . S
N496 H503 0.984 . S
N497 C490 1.356 . S
N497 H500 0.984 . S
N497 H501 0.985 . S
H498 N493 0.984 . S
H499 N493 0.985 . S
H500 N497 0.984 . S
H501 N497 0.985 . S
H502 N496 0.984 . S
H503 N496 0.984 . S
H504 N492 0.984 . S
H505 N492 0.985 . S
C506 C507 1.363 . S
C506 C512 1.379 . S
C506 N514 1.356 . S
C507 C506 1.363 . S
C507 C513 1.363 . S
C508 C509 1.363 . S
C508 C513 1.379 . S
C508 N515 1.356 . S
C509 C508 1.363 . S
C509 C512 1.363 . S
N510 C512 1.356 . S
N510 H522 0.984 . S
N510 H523 0.985 . S
N511 C513 1.356 . S
N511 H516 0.984 . S
N511 H517 0.985 . S
C512 C506 1.379 . S
C512 C509 1.363 . S
C512 N510 1.356 . S
C513 C507 1.363 . S
C513 C508 1.379 . S
C513 N511 1.356 . S
N514 C506 1.356 . S
N514 H520 0.984 . S
N514 H521 0.984 . S
N515 C508 1.356 . S
N515 H518 0.984 . S
N515 H519 0.985 . S
H516 N511 0.984 . S
H517 N511 0.985 . S
H518 N515 0.984 . S
H519 N515 0.985 . S
H520 N514 0.984 . S
H521 N514 0.984 . S
H522 N510 0.984 . S
H523 N510 0.985 . S
C524 C525 1.363 . S
C524 C530 1.379 . S
C524 N532 1.356 . S
C525 C524 1.363 . S
C525 C531 1.363 . S
C526 C527 1.363 . S
C526 C531 1.379 . S
C526 N533 1.356 . S
C527 C526 1.363 . S
C527 C530 1.363 . S
N528 C530 1.356 . S
N528 H540 0.984 . S
N528 H541 0.985 . S
N529 C531 1.356 . S
N529 H534 0.984 . S
N529 H535 0.985 . S
C530 C524 1.379 . S
C530 C527 1.363 . S
C530 N528 1.356 . S
C531 C525 1.363 . S
C531 C526 1.379 . S
C531 N529 1.356 . S
N532 C524 1.356 . S
N532 H538 0.984 . S
N532 H539 0.984 . S
N533 C526 1.356 . S
N533 H536 0.984 . S
N533 H537 0.985 . S
H534 N529 0.984 . S
H535 N529 0.985 . S
H536 N533 0.984 . S
H537 N533 0.985 . S
H538 N532 0.984 . S
H539 N532 0.984 . S
H540 N528 0.984 . S
H541 N528 0.985 . S
C542 C543 1.363 . S
C542 C548 1.379 . S
C542 N550 1.356 . S
C543 C542 1.363 . S
C543 C549 1.363 . S
C544 C545 1.363 . S
C544 C549 1.379 . S
C544 N551 1.356 . S
C545 C544 1.363 . S
C545 C548 1.363 . S
N546 C548 1.356 . S
N546 H558 0.984 . S
N546 H559 0.985 . S
N547 C549 1.356 . S
N547 H552 0.984 . S
N547 H553 0.985 . S
C548 C542 1.379 . S
C548 C545 1.363 . S
C548 N546 1.356 . S
C549 C543 1.363 . S
C549 C544 1.379 . S
C549 N547 1.356 . S
N550 C542 1.356 . S
N550 H556 0.984 . S
N550 H557 0.984 . S
N551 C544 1.356 . S
N551 H554 0.984 . S
N551 H555 0.985 . S
H552 N547 0.984 . S
H553 N547 0.985 . S
H554 N551 0.984 . S
H555 N551 0.985 . S
H556 N550 0.984 . S
H557 N550 0.984 . S
H558 N546 0.984 . S
H559 N546 0.985 . S
C560 C561 1.363 . S
C560 C566 1.379 . S
C560 N568 1.356 . S
C561 C560 1.363 . S
C561 C567 1.363 . S
C562 C563 1.363 . S
C562 C567 1.379 . S
C562 N569 1.356 . S
C563 C562 1.363 . S
C563 C566 1.363 . S
N564 C566 1.356 . S
N564 H576 0.984 . S
N564 H577 0.985 . S
N565 C567 1.356 . S
N565 H570 0.984 . S
N565 H571 0.985 . S
C566 C560 1.379 . S
C566 C563 1.363 . S
C566 N564 1.356 . S
C567 C561 1.363 . S
C567 C562 1.379 . S
C567 N565 1.356 . S
N568 C560 1.356 . S
N568 H574 0.984 . S
N568 H575 0.984 . S
N569 C562 1.356 . S
N569 H572 0.984 . S
N569 H573 0.985 . S
H570 N565 0.984 . S
H571 N565 0.985 . S
H572 N569 0.984 . S
H573 N569 0.985 . S
H574 N568 0.984 . S
H575 N568 0.984 . S
H576 N564 0.984 . S
H577 N564 0.985 . S
C578 C579 1.363 . S
C578 C584 1.379 . S
C578 N586 1.356 . S
C579 C578 1.363 . S
C579 C585 1.363 . S
C580 C581 1.363 . S
C580 C585 1.379 . S
C580 N587 1.356 . S
C581 C580 1.363 . S
C581 C584 1.363 . S
N582 C584 1.356 . S
N582 H594 0.984 . S
N582 H595 0.985 . S
N583 C585 1.356 . S
N583 H588 0.984 . S
N583 H589 0.985 . S
C584 C578 1.379 . S
C584 C581 1.363 . S
C584 N582 1.356 . S
C585 C579 1.363 . S
C585 C580 1.379 . S
C585 N583 1.356 . S
N586 C578 1.356 . S
N586 H592 0.984 . S
N586 H593 0.984 . S
N587 C580 1.356 . S
N587 H590 0.984 . S
N587 H591 0.985 . S
H588 N583 0.984 . S
H589 N583 0.985 . S
H590 N587 0.984 . S
H591 N587 0.985 . S
H592 N586 0.984 . S
H593 N586 0.984 . S
H594 N582 0.984 . S
H595 N582 0.985 . S
C596 C597 1.363 . S
C596 C602 1.379 . S
C596 N604 1.356 . S
C597 C596 1.363 . S
C597 C603 1.363 . S
C598 C599 1.363 . S
C598 C603 1.379 . S
C598 N605 1.356 . S
C599 C598 1.363 . S
C599 C602 1.363 . S
N600 C602 1.356 . S
N600 H612 0.984 . S
N600 H613 0.985 . S
N601 C603 1.356 . S
N601 H606 0.984 . S
N601 H607 0.985 . S
C602 C596 1.379 . S
C602 C599 1.363 . S
C602 N600 1.356 . S
C603 C597 1.363 . S
C603 C598 1.379 . S
C603 N601 1.356 . S
N604 C596 1.356 . S
N604 H610 0.984 . S
N604 H611 0.984 . S
N605 C598 1.356 . S
N605 H608 0.984 . S
N605 H609 0.985 . S
H606 N601 0.984 . S
H607 N601 0.985 . S
H608 N605 0.984 . S
H609 N605 0.985 . S
H610 N604 0.984 . S
H611 N604 0.984 . S
H612 N600 0.984 . S
H613 N600 0.985 . S
C614 C615 1.363 . S
C614 C620 1.379 . S
C614 N622 1.356 . S
C615 C614 1.363 . S
C615 C621 1.363 . S
C616 C617 1.363 . S
C616 C621 1.379 . S
C616 N623 1.356 . S
C617 C616 1.363 . S
C617 C620 1.363 . S
N618 C620 1.356 . S
N618 H630 0.984 . S
N618 H631 0.985 . S
N619 C621 1.356 . S
N619 H624 0.984 . S
N619 H625 0.985 . S
C620 C614 1.379 . S
C620 C617 1.363 . S
C620 N618 1.356 . S
C621 C615 1.363 . S
C621 C616 1.379 . S
C621 N619 1.356 . S
N622 C614 1.356 . S
N622 H628 0.984 . S
N622 H629 0.984 . S
N623 C616 1.356 . S
N623 H626 0.984 . S
N623 H627 0.985 . S
H624 N619 0.984 . S
H625 N619 0.985 . S
H626 N623 0.984 . S
H627 N623 0.985 . S
H628 N622 0.984 . S
H629 N622 0.984 . S
H630 N618 0.984 . S
H631 N618 0.985 . S
C632 C633 1.363 . S
C632 C638 1.379 . S
C632 N640 1.356 . S
C633 C632 1.363 . S
C633 C639 1.363 . S
C634 C635 1.363 . S
C634 C639 1.379 . S
C634 N641 1.356 . S
C635 C634 1.363 . S
C635 C638 1.363 . S
N636 C638 1.356 . S
N636 H648 0.984 . S
N636 H649 0.985 . S
N637 C639 1.356 . S
N637 H642 0.984 . S
N637 H643 0.985 . S
C638 C632 1.379 . S
C638 C635 1.363 . S
C638 N636 1.356 . S
C639 C633 1.363 . S
C639 C634 1.379 . S
C639 N637 1.356 . S
N640 C632 1.356 . S
N640 H646 0.984 . S
N640 H647 0.984 . S
N641 C634 1.356 . S
N641 H644 0.984 . S
N641 H645 0.985 . S
H642 N637 0.984 . S
H643 N637 0.985 . S
H644 N641 0.984 . S
H645 N641 0.985 . S
H646 N640 0.984 . S
H647 N640 0.984 . S
H648 N636 0.984 . S
H649 N636 0.985 . S
C650 C651 1.363 . S
C650 C656 1.379 . S
C650 N658 1.356 . S
C651 C650 1.363 . S
C651 C657 1.363 . S
C652 C653 1.363 . S
C652 C657 1.379 . S
C652 N659 1.356 . S
C653 C652 1.363 . S
C653 C656 1.363 . S
N654 C656 1.356 . S
N654 H666 0.984 . S
N654 H667 0.985 . S
N655 C657 1.356 . S
N655 H660 0.984 . S
N655 H661 0.985 . S
C656 C650 1.379 . S
C656 C653 1.363 . S
C656 N654 1.356 . S
C657 C651 1.363 . S
C657 C652 1.379 . S
C657 N655 1.356 . S
N658 C650 1.356 . S
N658 H664 0.984 . S
N658 H665 0.984 . S
N659 C652 1.356 . S
N659 H662 0.984 . S
N659 H663 0.985 . S
H660 N655 0.984 . S
H661 N655 0.985 . S
H662 N659 0.984 . S
H663 N659 0.985 . S
H664 N658 0.984 . S
H665 N658 0.984 . S
H666 N654 0.984 . S
H667 N654 0.985 . S
C668 C669 1.363 . S
C668 C674 1.379 . S
C668 N676 1.356 . S
C669 C668 1.363 . S
C669 C675 1.363 . S
C670 C671 1.363 . S
C670 C675 1.379 . S
C670 N677 1.356 . S
C671 C670 1.363 . S
C671 C674 1.363 . S
N672 C674 1.356 . S
N672 H684 0.984 . S
N672 H685 0.985 . S
N673 C675 1.356 . S
N673 H678 0.984 . S
N673 H679 0.985 . S
C674 C668 1.379 . S
C674 C671 1.363 . S
C674 N672 1.356 . S
C675 C669 1.363 . S
C675 C670 1.379 . S
C675 N673 1.356 . S
N676 C668 1.356 . S
N676 H682 0.984 . S
N676 H683 0.984 . S
N677 C670 1.356 . S
N677 H680 0.984 . S
N677 H681 0.985 . S
H678 N673 0.984 . S
H679 N673 0.985 . S
H680 N677 0.984 . S
H681 N677 0.985 . S
H682 N676 0.984 . S
H683 N676 0.984 . S
H684 N672 0.984 . S
H685 N672 0.985 . S
C686 C687 1.363 . S
C686 C692 1.379 . S
C686 N694 1.356 . S
C687 C686 1.363 . S
C687 C693 1.363 . S
C688 C689 1.363 . S
C688 C693 1.379 . S
C688 N695 1.356 . S
C689 C688 1.363 . S
C689 C692 1.363 . S
N690 C692 1.356 . S
N690 H702 0.984 . S
N690 H703 0.985 . S
N691 C693 1.356 . S
N691 H696 0.984 . S
N691 H697 0.985 . S
C692 C686 1.379 . S
C692 C689 1.363 . S
C692 N690 1.356 . S
C693 C687 1.363 . S
C693 C688 1.379 . S
C693 N691 1.356 . S
N694 C686 1.356 . S
N694 H700 0.984 . S
N694 H701 0.984 . S
N695 C688 1.356 . S
N695 H698 0.984 . S
N695 H699 0.985 . S
H696 N691 0.984 . S
H697 N691 0.985 . S
H698 N695 0.984 . S
H699 N695 0.985 . S
H700 N694 0.984 . S
H701 N694 0.984 . S
H702 N690 0.984 . S
H703 N690 0.985 . S
C704 C705 1.363 . S
C704 C710 1.379 . S
C704 N712 1.356 . S
C705 C704 1.363 . S
C705 C711 1.363 1_655 S
C706 C707 1.363 . S
C706 C711 1.379 . S
C706 N713 1.356 . S
C707 C706 1.363 . S
C707 C710 1.363 1_455 S
N708 C710 1.356 . S
N708 H720 0.984 . S
N708 H721 0.985 . S
N709 C711 1.356 . S
N709 H714 0.984 . S
N709 H715 0.985 . S
C710 C704 1.379 . S
C710 C707 1.363 1_655 S
C710 N708 1.356 . S
C711 C705 1.363 1_455 S
C711 C706 1.379 . S
C711 N709 1.356 . S
N712 C704 1.356 . S
N712 H718 0.984 . S
N712 H719 0.984 . S
N713 C706 1.356 . S
N713 H716 0.984 . S
N713 H717 0.985 . S
H714 N709 0.984 . S
H715 N709 0.985 . S
H716 N713 0.984 . S
H717 N713 0.985 . S
H718 N712 0.984 . S
H719 N712 0.984 . S
H720 N708 0.984 . S
H721 N708 0.985 . S
C722 C723 1.363 . S
C722 C728 1.379 1_565 S
C722 N730 1.356 . S
C723 C722 1.363 . S
C723 C729 1.363 . S
C724 C725 1.363 . S
C724 C729 1.379 1_545 S
C724 N731 1.356 . S
C725 C724 1.363 . S
C725 C728 1.363 . S
N726 C728 1.356 . S
N726 H738 0.984 . S
N726 H739 0.985 . S
N727 C729 1.356 . S
N727 H732 0.984 . S
N727 H733 0.985 . S
C728 C722 1.379 1_545 S
C728 C725 1.363 . S
C728 N726 1.356 . S
C729 C723 1.363 . S
C729 C724 1.379 1_565 S
C729 N727 1.356 . S
N730 C722 1.356 . S
N730 H736 0.984 . S
N730 H737 0.984 . S
N731 C724 1.356 . S
N731 H734 0.984 . S
N731 H735 0.985 . S
H732 N727 0.984 . S
H733 N727 0.985 . S
H734 N731 0.984 . S
H735 N731 0.985 . S
H736 N730 0.984 . S
H737 N730 0.984 . S
H738 N726 0.984 . S
H739 N726 0.985 . S
C740 C741 1.363 1_654 S
C740 C746 1.379 1_565 S
C740 N748 1.356 . S
C741 C740 1.363 1_456 S
C741 C747 1.363 . S
C742 C743 1.363 1_456 S
C742 C747 1.379 1_545 S
C742 N749 1.356 . S
C743 C742 1.363 1_654 S
C743 C746 1.363 . S
N744 C746 1.356 . S
N744 H756 0.984 . S
N744 H757 0.985 . S
N745 C747 1.356 . S
N745 H750 0.984 . S
N745 H751 0.985 . S
C746 C740 1.379 1_545 S
C746 C743 1.363 . S
C746 N744 1.356 . S
C747 C741 1.363 . S
C747 C742 1.379 1_565 S
C747 N745 1.356 . S
N748 C740 1.356 . S
N748 H754 0.984 . S
N748 H755 0.984 . S
N749 C742 1.356 . S
N749 H752 0.984 . S
N749 H753 0.985 . S
H750 N745 0.984 . S
H751 N745 0.985 . S
H752 N749 0.984 . S
H753 N749 0.985 . S
H754 N748 0.984 . S
H755 N748 0.984 . S
H756 N744 0.984 . S
H757 N744 0.985 . S
C758 C759 1.363 . S
C758 C764 1.379 . S
C758 N766 1.356 . S
C759 C758 1.363 . S
C759 C765 1.363 1_554 S
C760 C761 1.363 . S
C760 C765 1.379 . S
C760 N767 1.356 . S
C761 C760 1.363 . S
C761 C764 1.363 1_556 S
N762 C764 1.356 . S
N762 H774 0.984 . S
N762 H775 0.985 . S
N763 C765 1.356 . S
N763 H768 0.984 . S
N763 H769 0.985 . S
C764 C758 1.379 . S
C764 C761 1.363 1_554 S
C764 N762 1.356 . S
C765 C759 1.363 1_556 S
C765 C760 1.379 . S
C765 N763 1.356 . S
N766 C758 1.356 . S
N766 H772 0.984 . S
N766 H773 0.984 . S
N767 C760 1.356 . S
N767 H770 0.984 . S
N767 H771 0.985 . S
H768 N763 0.984 . S
H769 N763 0.985 . S
H770 N767 0.984 . S
H771 N767 0.985 . S
H772 N766 0.984 . S
H773 N766 0.984 . S
H774 N762 0.984 . S
H775 N762 0.985 . S
C776 C777 1.363 1_455 S
C776 C782 1.379 . S
C776 N784 1.356 . S
C777 C776 1.363 1_655 S
C777 C783 1.363 . S
C778 C779 1.363 1_655 S
C778 C783 1.379 . S
C778 N785 1.356 . S
C779 C778 1.363 1_455 S
C779 C782 1.363 . S
N780 C782 1.356 . S
N780 H792 0.984 . S
N780 H793 0.985 . S
N781 C783 1.356 . S
N781 H786 0.984 . S
N781 H787 0.985 . S
C782 C776 1.379 . S
C782 C779 1.363 . S
C782 N780 1.356 . S
C783 C777 1.363 . S
C783 C778 1.379 . S
C783 N781 1.356 . S
N784 C776 1.356 . S
N784 H790 0.984 . S
N784 H791 0.984 . S
N785 C778 1.356 . S
N785 H788 0.984 . S
N785 H789 0.985 . S
H786 N781 0.984 . S
H787 N781 0.985 . S
H788 N785 0.984 . S
H789 N785 0.985 . S
H790 N784 0.984 . S
H791 N784 0.984 . S
H792 N780 0.984 . S
H793 N780 0.985 . S
C794 C795 1.363 . S
C794 C800 1.379 1_565 S
C794 N802 1.356 . S
C795 C794 1.363 . S
C795 C801 1.363 . S
C796 C797 1.363 . S
C796 C801 1.379 1_545 S
C796 N803 1.356 . S
C797 C796 1.363 . S
C797 C800 1.363 . S
N798 C800 1.356 . S
N798 H810 0.984 . S
N798 H811 0.985 . S
N799 C801 1.356 . S
N799 H804 0.984 . S
N799 H805 0.985 . S
C800 C794 1.379 1_545 S
C800 C797 1.363 . S
C800 N798 1.356 . S
C801 C795 1.363 . S
C801 C796 1.379 1_565 S
C801 N799 1.356 . S
N802 C794 1.356 . S
N802 H808 0.984 . S
N802 H809 0.984 . S
N803 C796 1.356 . S
N803 H806 0.984 . S
N803 H807 0.985 . S
H804 N799 0.984 . S
H805 N799 0.985 . S
H806 N803 0.984 . S
H807 N803 0.985 . S
H808 N802 0.984 . S
H809 N802 0.984 . S
H810 N798 0.984 . S
H811 N798 0.985 . S
C812 C813 1.363 1_554 S
C812 C818 1.379 . S
C812 N820 1.356 . S
C813 C812 1.363 1_556 S
C813 C819 1.363 . S
C814 C815 1.363 1_556 S
C814 C819 1.379 . S
C814 N821 1.356 . S
C815 C814 1.363 1_554 S
C815 C818 1.363 . S
N816 C818 1.356 . S
N816 H828 0.984 . S
N816 H829 0.985 . S
N817 C819 1.356 . S
N817 H822 0.984 . S
N817 H823 0.985 . S
C818 C812 1.379 . S
C818 C815 1.363 . S
C818 N816 1.356 . S
C819 C813 1.363 . S
C819 C814 1.379 . S
C819 N817 1.356 . S
N820 C812 1.356 . S
N820 H826 0.984 . S
N820 H827 0.984 . S
N821 C814 1.356 . S
N821 H824 0.984 . S
N821 H825 0.985 . S
H822 N817 0.984 . S
H823 N817 0.985 . S
H824 N821 0.984 . S
H825 N821 0.985 . S
H826 N820 0.984 . S
H827 N820 0.984 . S
H828 N816 0.984 . S
H829 N816 0.985 . S
C830 C831 1.363 . S
C830 C836 1.379 . S
C830 N838 1.356 . S
C831 C830 1.363 . S
C831 C837 1.363 . S
C832 C833 1.363 . S
C832 C837 1.379 . S
C832 N839 1.356 . S
C833 C832 1.363 . S
C833 C836 1.363 . S
N834 C836 1.356 . S
N834 H846 0.984 . S
N834 H847 0.985 . S
N835 C837 1.356 . S
N835 H840 0.984 . S
N835 H841 0.985 . S
C836 C830 1.379 . S
C836 C833 1.363 . S
C836 N834 1.356 . S
C837 C831 1.363 . S
C837 C832 1.379 . S
C837 N835 1.356 . S
N838 C830 1.356 . S
N838 H844 0.984 . S
N838 H845 0.984 . S
N839 C832 1.356 . S
N839 H842 0.984 . S
N839 H843 0.985 . S
H840 N835 0.984 . S
H841 N835 0.985 . S
H842 N839 0.984 . S
H843 N839 0.985 . S
H844 N838 0.984 . S
H845 N838 0.984 . S
H846 N834 0.984 . S
H847 N834 0.985 . S
C848 C849 1.363 . S
C848 C854 1.379 . S
C848 N856 1.356 . S
C849 C848 1.363 . S
C849 C855 1.363 1_655 S
C850 C851 1.363 . S
C850 C855 1.379 . S
C850 N857 1.356 . S
C851 C850 1.363 . S
C851 C854 1.363 1_455 S
N852 C854 1.356 . S
N852 H864 0.984 . S
N852 H865 0.985 . S
N853 C855 1.356 . S
N853 H858 0.984 . S
N853 H859 0.985 . S
C854 C848 1.379 . S
C854 C851 1.363 1_655 S
C854 N852 1.356 . S
C855 C849 1.363 1_455 S
C855 C850 1.379 . S
C855 N853 1.356 . S
N856 C848 1.356 . S
N856 H862 0.984 . S
N856 H863 0.984 . S
N857 C850 1.356 . S
N857 H860 0.984 . S
N857 H861 0.985 . S
H858 N853 0.984 . S
H859 N853 0.985 . S
H860 N857 0.984 . S
H861 N857 0.985 . S
H862 N856 0.984 . S
H863 N856 0.984 . S
H864 N852 0.984 . S
H865 N852 0.985 . S
C866 C867 1.363 . S
C866 C872 1.379 . S
C866 N874 1.356 . S
C867 C866 1.363 . S
C867 C873 1.363 . S
C868 C869 1.363 . S
C868 C873 1.379 . S
C868 N875 1.356 . S
C869 C868 1.363 . S
C869 C872 1.363 . S
N870 C872 1.356 . S
N870 H882 0.984 . S
N870 H883 0.985 . S
N871 C873 1.356 . S
N871 H876 0.984 . S
N871 H877 0.985 . S
C872 C866 1.379 . S
C872 C869 1.363 . S
C872 N870 1.356 . S
C873 C867 1.363 . S
C873 C868 1.379 . S
C873 N871 1.356 . S
N874 C866 1.356 . S
N874 H880 0.984 . S
N874 H881 0.984 . S
N875 C868 1.356 . S
N875 H878 0.984 . S
N875 H879 0.985 . S
H876 N871 0.984 . S
H877 N871 0.985 . S
H878 N875 0.984 . S
H879 N875 0.985 . S
H880 N874 0.984 . S
H881 N874 0.984 . S
H882 N870 0.984 . S
H883 N870 0.985 . S
C884 C885 1.363 . S
C884 C890 1.379 . S
C884 N892 1.356 . S
C885 C884 1.363 . S
C885 C891 1.363 . S
C886 C887 1.363 . S
C886 C891 1.379 . S
C886 N893 1.356 . S
C887 C886 1.363 . S
C887 C890 1.363 . S
N888 C890 1.356 . S
N888 H900 0.984 . S
N888 H901 0.985 . S
N889 C891 1.356 . S
N889 H894 0.984 . S
N889 H895 0.985 . S
C890 C884 1.379 . S
C890 C887 1.363 . S
C890 N888 1.356 . S
C891 C885 1.363 . S
C891 C886 1.379 . S
C891 N889 1.356 . S
N892 C884 1.356 . S
N892 H898 0.984 . S
N892 H899 0.984 . S
N893 C886 1.356 . S
N893 H896 0.984 . S
N893 H897 0.985 . S
H894 N889 0.984 . S
H895 N889 0.985 . S
H896 N893 0.984 . S
H897 N893 0.985 . S
H898 N892 0.984 . S
H899 N892 0.984 . S
H900 N888 0.984 . S
H901 N888 0.985 . S
C902 C903 1.363 . S
C902 C908 1.379 . S
C902 N910 1.356 . S
C903 C902 1.363 . S
C903 C909 1.363 . S
C904 C905 1.363 . S
C904 C909 1.379 . S
C904 N911 1.356 . S
C905 C904 1.363 . S
C905 C908 1.363 . S
N906 C908 1.356 . S
N906 H918 0.984 . S
N906 H919 0.985 . S
N907 C909 1.356 . S
N907 H912 0.984 . S
N907 H913 0.985 . S
C908 C902 1.379 . S
C908 C905 1.363 . S
C908 N906 1.356 . S
C909 C903 1.363 . S
C909 C904 1.379 . S
C909 N907 1.356 . S
N910 C902 1.356 . S
N910 H916 0.984 . S
N910 H917 0.984 . S
N911 C904 1.356 . S
N911 H914 0.984 . S
N911 H915 0.985 . S
H912 N907 0.984 . S
H913 N907 0.985 . S
H914 N911 0.984 . S
H915 N911 0.985 . S
H916 N910 0.984 . S
H917 N910 0.984 . S
H918 N906 0.984 . S
H919 N906 0.985 . S
C920 C921 1.363 . S
C920 C926 1.379 . S
C920 N928 1.356 . S
C921 C920 1.363 . S
C921 C927 1.363 . S
C922 C923 1.363 . S
C922 C927 1.379 . S
C922 N929 1.356 . S
C923 C922 1.363 . S
C923 C926 1.363 . S
N924 C926 1.356 . S
N924 H936 0.984 . S
N924 H937 0.985 . S
N925 C927 1.356 . S
N925 H930 0.984 . S
N925 H931 0.985 . S
C926 C920 1.379 . S
C926 C923 1.363 . S
C926 N924 1.356 . S
C927 C921 1.363 . S
C927 C922 1.379 . S
C927 N925 1.356 . S
N928 C920 1.356 . S
N928 H934 0.984 . S
N928 H935 0.984 . S
N929 C922 1.356 . S
N929 H932 0.984 . S
N929 H933 0.985 . S
H930 N925 0.984 . S
H931 N925 0.985 . S
H932 N929 0.984 . S
H933 N929 0.985 . S
H934 N928 0.984 . S
H935 N928 0.984 . S
H936 N924 0.984 . S
H937 N924 0.985 . S
C938 C939 1.363 . S
C938 C944 1.379 1_545 S
C938 N946 1.356 . S
C939 C938 1.363 . S
C939 C945 1.363 . S
C940 C941 1.363 . S
C940 C945 1.379 1_565 S
C940 N947 1.356 . S
C941 C940 1.363 . S
C941 C944 1.363 . S
N942 C944 1.356 . S
N942 H954 0.984 . S
N942 H955 0.985 . S
N943 C945 1.356 . S
N943 H948 0.984 . S
N943 H949 0.985 . S
C944 C938 1.379 1_565 S
C944 C941 1.363 . S
C944 N942 1.356 . S
C945 C939 1.363 . S
C945 C940 1.379 1_545 S
C945 N943 1.356 . S
N946 C938 1.356 . S
N946 H952 0.984 . S
N946 H953 0.984 . S
N947 C940 1.356 . S
N947 H950 0.984 . S
N947 H951 0.985 . S
H948 N943 0.984 . S
H949 N943 0.985 . S
H950 N947 0.984 . S
H951 N947 0.985 . S
H952 N946 0.984 . S
H953 N946 0.984 . S
H954 N942 0.984 . S
H955 N942 0.985 . S
C956 C957 1.363 . S
C956 C962 1.379 . S
C956 N964 1.356 . S
C957 C956 1.363 . S
C957 C963 1.363 . S
C958 C959 1.363 . S
C958 C963 1.379 . S
C958 N965 1.356 . S
C959 C958 1.363 . S
C959 C962 1.363 . S
N960 C962 1.356 . S
N960 H972 0.984 . S
N960 H973 0.985 . S
N961 C963 1.356 . S
N961 H966 0.984 . S
N961 H967 0.985 . S
C962 C956 1.379 . S
C962 C959 1.363 . S
C962 N960 1.356 . S
C963 C957 1.363 . S
C963 C958 1.379 . S
C963 N961 1.356 . S
N964 C956 1.356 . S
N964 H970 0.984 . S
N964 H971 0.984 . S
N965 C958 1.356 . S
N965 H968 0.984 . S
N965 H969 0.985 . S
H966 N961 0.984 . S
H967 N961 0.985 . S
H968 N965 0.984 . S
H969 N965 0.985 . S
H970 N964 0.984 . S
H971 N964 0.984 . S
H972 N960 0.984 . S
H973 N960 0.985 . S
C974 C975 1.363 1_554 S
C974 C980 1.379 . S
C974 N982 1.356 . S
C975 C974 1.363 1_556 S
C975 C981 1.363 . S
C976 C977 1.363 1_556 S
C976 C981 1.379 . S
C976 N983 1.356 . S
C977 C976 1.363 1_554 S
C977 C980 1.363 . S
N978 C980 1.356 . S
N978 H990 0.984 . S
N978 H991 0.985 . S
N979 C981 1.356 . S
N979 H984 0.984 . S
N979 H985 0.985 . S
C980 C974 1.379 . S
C980 C977 1.363 . S
C980 N978 1.356 . S
C981 C975 1.363 . S
C981 C976 1.379 . S
C981 N979 1.356 . S
N982 C974 1.356 . S
N982 H988 0.984 . S
N982 H989 0.984 . S
N983 C976 1.356 . S
N983 H986 0.984 . S
N983 H987 0.985 . S
H984 N979 0.984 . S
H985 N979 0.985 . S
H986 N983 0.984 . S
H987 N983 0.985 . S
H988 N982 0.984 . S
H989 N982 0.984 . S
H990 N978 0.984 . S
H991 N978 0.985 . S
C992 C993 1.363 . S
C992 C998 1.379 . S
C992 N1000 1.356 . S
C993 C992 1.363 . S
C993 C999 1.363 . S
C994 C995 1.363 . S
C994 C999 1.379 . S
C994 N1001 1.356 . S
C995 C994 1.363 . S
C995 C998 1.363 . S
N996 C998 1.356 . S
N996 H1008 0.984 . S
N996 H1009 0.985 . S
N997 C999 1.356 . S
N997 H1002 0.984 . S
N997 H1003 0.985 . S
C998 C992 1.379 . S
C998 C995 1.363 . S
C998 N996 1.356 . S
C999 C993 1.363 . S
C999 C994 1.379 . S
C999 N997 1.356 . S
N1000 C992 1.356 . S
N1000 H1006 0.984 . S
N1000 H1007 0.984 . S
N1001 C994 1.356 . S
N1001 H1004 0.984 . S
N1001 H1005 0.985 . S
H1002 N997 0.984 . S
H1003 N997 0.985 . S
H1004 N1001 0.984 . S
H1005 N1001 0.985 . S
H1006 N1000 0.984 . S
H1007 N1000 0.984 . S
H1008 N996 0.984 . S
H1009 N996 0.985 . S
C1010 C1011 1.363 . S
C1010 C1016 1.379 . S
C1010 N1018 1.356 . S
C1011 C1010 1.363 . S
C1011 C1017 1.363 . S
C1012 C1013 1.363 . S
C1012 C1017 1.379 . S
C1012 N1019 1.356 . S
C1013 C1012 1.363 . S
C1013 C1016 1.363 . S
N1014 C1016 1.356 . S
N1014 H1026 0.984 . S
N1014 H1027 0.985 . S
N1015 C1017 1.356 . S
N1015 H1020 0.984 . S
N1015 H1021 0.985 . S
C1016 C1010 1.379 . S
C1016 C1013 1.363 . S
C1016 N1014 1.356 . S
C1017 C1011 1.363 . S
C1017 C1012 1.379 . S
C1017 N1015 1.356 . S
N1018 C1010 1.356 . S
N1018 H1024 0.984 . S
N1018 H1025 0.984 . S
N1019 C1012 1.356 . S
N1019 H1022 0.984 . S
N1019 H1023 0.985 . S
H1020 N1015 0.984 . S
H1021 N1015 0.985 . S
H1022 N1019 0.984 . S
H1023 N1019 0.985 . S
H1024 N1018 0.984 . S
H1025 N1018 0.984 . S
H1026 N1014 0.984 . S
H1027 N1014 0.985 . S
C1028 C1029 1.363 . S
C1028 C1034 1.379 . S
C1028 N1036 1.356 . S
C1029 C1028 1.363 . S
C1029 C1035 1.363 . S
C1030 C1031 1.363 . S
C1030 C1035 1.379 . S
C1030 N1037 1.356 . S
C1031 C1030 1.363 . S
C1031 C1034 1.363 . S
N1032 C1034 1.356 . S
N1032 H1044 0.984 . S
N1032 H1045 0.985 . S
N1033 C1035 1.356 . S
N1033 H1038 0.984 . S
N1033 H1039 0.985 . S
C1034 C1028 1.379 . S
C1034 C1031 1.363 . S
C1034 N1032 1.356 . S
C1035 C1029 1.363 . S
C1035 C1030 1.379 . S
C1035 N1033 1.356 . S
N1036 C1028 1.356 . S
N1036 H1042 0.984 . S
N1036 H1043 0.984 . S
N1037 C1030 1.356 . S
N1037 H1040 0.984 . S
N1037 H1041 0.985 . S
H1038 N1033 0.984 . S
H1039 N1033 0.985 . S
H1040 N1037 0.984 . S
H1041 N1037 0.985 . S
H1042 N1036 0.984 . S
H1043 N1036 0.984 . S
H1044 N1032 0.984 . S
H1045 N1032 0.985 . S
C1046 C1047 1.363 . S
C1046 C1052 1.379 . S
C1046 N1054 1.356 . S
C1047 C1046 1.363 . S
C1047 C1053 1.363 . S
C1048 C1049 1.363 . S
C1048 C1053 1.379 . S
C1048 N1055 1.356 . S
C1049 C1048 1.363 . S
C1049 C1052 1.363 . S
N1050 C1052 1.356 . S
N1050 H1062 0.984 . S
N1050 H1063 0.985 . S
N1051 C1053 1.356 . S
N1051 H1056 0.984 . S
N1051 H1057 0.985 . S
C1052 C1046 1.379 . S
C1052 C1049 1.363 . S
C1052 N1050 1.356 . S
C1053 C1047 1.363 . S
C1053 C1048 1.379 . S
C1053 N1051 1.356 . S
N1054 C1046 1.356 . S
N1054 H1060 0.984 . S
N1054 H1061 0.984 . S
N1055 C1048 1.356 . S
N1055 H1058 0.984 . S
N1055 H1059 0.985 . S
H1056 N1051 0.984 . S
H1057 N1051 0.985 . S
H1058 N1055 0.984 . S
H1059 N1055 0.985 . S
H1060 N1054 0.984 . S
H1061 N1054 0.984 . S
H1062 N1050 0.984 . S
H1063 N1050 0.985 . S
C1064 C1065 1.363 . S
C1064 C1070 1.379 . S
C1064 N1072 1.356 . S
C1065 C1064 1.363 . S
C1065 C1071 1.363 . S
C1066 C1067 1.363 . S
C1066 C1071 1.379 . S
C1066 N1073 1.356 . S
C1067 C1066 1.363 . S
C1067 C1070 1.363 . S
N1068 C1070 1.356 . S
N1068 H1080 0.984 . S
N1068 H1081 0.985 . S
N1069 C1071 1.356 . S
N1069 H1074 0.984 . S
N1069 H1075 0.985 . S
C1070 C1064 1.379 . S
C1070 C1067 1.363 . S
C1070 N1068 1.356 . S
C1071 C1065 1.363 . S
C1071 C1066 1.379 . S
C1071 N1069 1.356 . S
N1072 C1064 1.356 . S
N1072 H1078 0.984 . S
N1072 H1079 0.984 . S
N1073 C1066 1.356 . S
N1073 H1076 0.984 . S
N1073 H1077 0.985 . S
H1074 N1069 0.984 . S
H1075 N1069 0.985 . S
H1076 N1073 0.984 . S
H1077 N1073 0.985 . S
H1078 N1072 0.984 . S
H1079 N1072 0.984 . S
H1080 N1068 0.984 . S
H1081 N1068 0.985 . S
C1082 C1083 1.363 . S
C1082 C1088 1.379 . S
C1082 N1090 1.356 . S
C1083 C1082 1.363 . S
C1083 C1089 1.363 . S
C1084 C1085 1.363 . S
C1084 C1089 1.379 . S
C1084 N1091 1.356 . S
C1085 C1084 1.363 . S
C1085 C1088 1.363 . S
N1086 C1088 1.356 . S
N1086 H1098 0.984 . S
N1086 H1099 0.985 . S
N1087 C1089 1.356 . S
N1087 H1092 0.984 . S
N1087 H1093 0.985 . S
C1088 C1082 1.379 . S
C1088 C1085 1.363 . S
C1088 N1086 1.356 . S
C1089 C1083 1.363 . S
C1089 C1084 1.379 . S
C1089 N1087 1.356 . S
N1090 C1082 1.356 . S
N1090 H1096 0.984 . S
N1090 H1097 0.984 . S
N1091 C1084 1.356 . S
N1091 H1094 0.984 . S
N1091 H1095 0.985 . S
H1092 N1087 0.984 . S
H1093 N1087 0.985 . S
H1094 N1091 0.984 . S
H1095 N1091 0.985 . S
H1096 N1090 0.984 . S
H1097 N1090 0.984 . S
H1098 N1086 0.984 . S
H1099 N1086 0.985 . S
C1100 C1101 1.363 . S
C1100 C1106 1.379 . S
C1100 N1108 1.356 . S
C1101 C1100 1.363 . S
C1101 C1107 1.363 . S
C1102 C1103 1.363 . S
C1102 C1107 1.379 . S
C1102 N1109 1.356 . S
C1103 C1102 1.363 . S
C1103 C1106 1.363 . S
N1104 C1106 1.356 . S
N1104 H1116 0.984 . S
N1104 H1117 0.985 . S
N1105 C1107 1.356 . S
N1105 H1110 0.984 . S
N1105 H1111 0.985 . S
C1106 C1100 1.379 . S
C1106 C1103 1.363 . S
C1106 N1104 1.356 . S
C1107 C1101 1.363 . S
C1107 C1102 1.379 . S
C1107 N1105 1.356 . S
N1108 C1100 1.356 . S
N1108 H1114 0.984 . S
N1108 H1115 0.984 . S
N1109 C1102 1.356 . S
N1109 H1112 0.984 . S
N1109 H1113 0.985 . S
H1110 N1105 0.984 . S
H1111 N1105 0.985 . S
H1112 N1109 0.984 . S
H1113 N1109 0.985 . S
H1114 N1108 0.984 . S
H1115 N1108 0.984 . S
H1116 N1104 0.984 . S
H1117 N1104 0.985 . S
C1118 C1119 1.363 . S
C1118 C1124 1.379 . S
C1118 N1126 1.356 . S
C1119 C1118 1.363 . S
C1119 C1125 1.363 . S
C1120 C1121 1.363 . S
C1120 C1125 1.379 . S
C1120 N1127 1.356 . S
C1121 C1120 1.363 . S
C1121 C1124 1.363 . S
N1122 C1124 1.356 . S
N1122 H1134 0.984 . S
N1122 H1135 0.985 . S
N1123 C1125 1.356 . S
N1123 H1128 0.984 . S
N1123 H1129 0.985 . S
C1124 C1118 1.379 . S
C1124 C1121 1.363 . S
C1124 N1122 1.356 . S
C1125 C1119 1.363 . S
C1125 C1120 1.379 . S
C1125 N1123 1.356 . S
N1126 C1118 1.356 . S
N1126 H1132 0.984 . S
N1126 H1133 0.984 . S
N1127 C1120 1.356 . S
N1127 H1130 0.984 . S
N1127 H1131 0.985 . S
H1128 N1123 0.984 . S
H1129 N1123 0.985 . S
H1130 N1127 0.984 . S
H1131 N1127 0.985 . S
H1132 N1126 0.984 . S
H1133 N1126 0.984 . S
H1134 N1122 0.984 . S
H1135 N1122 0.985 . S
C1136 C1137 1.363 . S
C1136 C1142 1.379 . S
C1136 N1144 1.356 . S
C1137 C1136 1.363 . S
C1137 C1143 1.363 . S
C1138 C1139 1.363 . S
C1138 C1143 1.379 . S
C1138 N1145 1.356 . S
C1139 C1138 1.363 . S
C1139 C1142 1.363 . S
N1140 C1142 1.356 . S
N1140 H1152 0.984 . S
N1140 H1153 0.985 . S
N1141 C1143 1.356 . S
N1141 H1146 0.984 . S
N1141 H1147 0.985 . S
C1142 C1136 1.379 . S
C1142 C1139 1.363 . S
C1142 N1140 1.356 . S
C1143 C1137 1.363 . S
C1143 C1138 1.379 . S
C1143 N1141 1.356 . S
N1144 C1136 1.356 . S
N1144 H1150 0.984 . S
N1144 H1151 0.984 . S
N1145 C1138 1.356 . S
N1145 H1148 0.984 . S
N1145 H1149 0.985 . S
H1146 N1141 0.984 . S
H1147 N1141 0.985 . S
H1148 N1145 0.984 . S
H1149 N1145 0.985 . S
H1150 N1144 0.984 . S
H1151 N1144 0.984 . S
H1152 N1140 0.984 . S
H1153 N1140 0.985 . S
C1154 C1155 1.363 . S
C1154 C1160 1.379 . S
C1154 N1162 1.356 . S
C1155 C1154 1.363 . S
C1155 C1161 1.363 . S
C1156 C1157 1.363 . S
C1156 C1161 1.379 . S
C1156 N1163 1.356 . S
C1157 C1156 1.363 . S
C1157 C1160 1.363 . S
N1158 C1160 1.356 . S
N1158 H1170 0.984 . S
N1158 H1171 0.985 . S
N1159 C1161 1.356 . S
N1159 H1164 0.984 . S
N1159 H1165 0.985 . S
C1160 C1154 1.379 . S
C1160 C1157 1.363 . S
C1160 N1158 1.356 . S
C1161 C1155 1.363 . S
C1161 C1156 1.379 . S
C1161 N1159 1.356 . S
N1162 C1154 1.356 . S
N1162 H1168 0.984 . S
N1162 H1169 0.984 . S
N1163 C1156 1.356 . S
N1163 H1166 0.984 . S
N1163 H1167 0.985 . S
H1164 N1159 0.984 . S
H1165 N1159 0.985 . S
H1166 N1163 0.984 . S
H1167 N1163 0.985 . S
H1168 N1162 0.984 . S
H1169 N1162 0.984 . S
H1170 N1158 0.984 . S
H1171 N1158 0.985 . S
C1172 C1173 1.363 . S
C1172 C1178 1.379 . S
C1172 N1180 1.356 . S
C1173 C1172 1.363 . S
C1173 C1179 1.363 . S
C1174 C1175 1.363 . S
C1174 C1179 1.379 . S
C1174 N1181 1.356 . S
C1175 C1174 1.363 . S
C1175 C1178 1.363 . S
N1176 C1178 1.356 . S
N1176 H1188 0.984 . S
N1176 H1189 0.985 . S
N1177 C1179 1.356 . S
N1177 H1182 0.984 . S
N1177 H1183 0.985 . S
C1178 C1172 1.379 . S
C1178 C1175 1.363 . S
C1178 N1176 1.356 . S
C1179 C1173 1.363 . S
C1179 C1174 1.379 . S
C1179 N1177 1.356 . S
N1180 C1172 1.356 . S
N1180 H1186 0.984 . S
N1180 H1187 0.984 . S
N1181 C1174 1.356 . S
N1181 H1184 0.984 . S
N1181 H1185 0.985 . S
H1182 N1177 0.984 . S
H1183 N1177 0.985 . S
H1184 N1181 0.984 . S
H1185 N1181 0.985 . S
H1186 N1180 0.984 . S
H1187 N1180 0.984 . S
H1188 N1176 0.984 . S
H1189 N1176 0.985 . S
C1190 C1191 1.363 . S
C1190 C1196 1.379 . S
C1190 N1198 1.356 . S
C1191 C1190 1.363 . S
C1191 C1197 1.363 . S
C1192 C1193 1.363 . S
C1192 C1197 1.379 . S
C1192 N1199 1.356 . S
C1193 C1192 1.363 . S
C1193 C1196 1.363 . S
N1194 C1196 1.356 . S
N1194 H1206 0.984 . S
N1194 H1207 0.985 . S
N1195 C1197 1.356 . S
N1195 H1200 0.984 . S
N1195 H1201 0.985 . S
C1196 C1190 1.379 . S
C1196 C1193 1.363 . S
C1196 N1194 1.356 . S
C1197 C1191 1.363 . S
C1197 C1192 1.379 . S
C1197 N1195 1.356 . S
N1198 C1190 1.356 . S
N1198 H1204 0.984 . S
N1198 H1205 0.984 . S
N1199 C1192 1.356 . S
N1199 H1202 0.984 . S
N1199 H1203 0.985 . S
H1200 N1195 0.984 . S
H1201 N1195 0.985 . S
H1202 N1199 0.984 . S
H1203 N1199 0.985 . S
H1204 N1198 0.984 . S
H1205 N1198 0.984 . S
H1206 N1194 0.984 . S
H1207 N1194 0.985 . S
C1208 C1209 1.363 . S
C1208 C1214 1.379 . S
C1208 N1216 1.356 . S
C1209 C1208 1.363 . S
C1209 C1215 1.363 . S
C1210 C1211 1.363 . S
C1210 C1215 1.379 . S
C1210 N1217 1.356 . S
C1211 C1210 1.363 . S
C1211 C1214 1.363 . S
N1212 C1214 1.356 . S
N1212 H1224 0.984 . S
N1212 H1225 0.985 . S
N1213 C1215 1.356 . S
N1213 H1218 0.984 . S
N1213 H1219 0.985 . S
C1214 C1208 1.379 . S
C1214 C1211 1.363 . S
C1214 N1212 1.356 . S
C1215 C1209 1.363 . S
C1215 C1210 1.379 . S
C1215 N1213 1.356 . S
N1216 C1208 1.356 . S
N1216 H1222 0.984 . S
N1216 H1223 0.984 . S
N1217 C1210 1.356 . S
N1217 H1220 0.984 . S
N1217 H1221 0.985 . S
H1218 N1213 0.984 . S
H1219 N1213 0.985 . S
H1220 N1217 0.984 . S
H1221 N1217 0.985 . S
H1222 N1216 0.984 . S
H1223 N1216 0.984 . S
H1224 N1212 0.984 . S
H1225 N1212 0.985 . S
C1226 C1227 1.363 . S
C1226 C1232 1.379 . S
C1226 N1234 1.356 . S
C1227 C1226 1.363 . S
C1227 C1233 1.363 . S
C1228 C1229 1.363 . S
C1228 C1233 1.379 . S
C1228 N1235 1.356 . S
C1229 C1228 1.363 . S
C1229 C1232 1.363 . S
N1230 C1232 1.356 . S
N1230 H1242 0.984 . S
N1230 H1243 0.985 . S
N1231 C1233 1.356 . S
N1231 H1236 0.984 . S
N1231 H1237 0.985 . S
C1232 C1226 1.379 . S
C1232 C1229 1.363 . S
C1232 N1230 1.356 . S
C1233 C1227 1.363 . S
C1233 C1228 1.379 . S
C1233 N1231 1.356 . S
N1234 C1226 1.356 . S
N1234 H1240 0.984 . S
N1234 H1241 0.984 . S
N1235 C1228 1.356 . S
N1235 H1238 0.984 . S
N1235 H1239 0.985 . S
H1236 N1231 0.984 . S
H1237 N1231 0.985 . S
H1238 N1235 0.984 . S
H1239 N1235 0.985 . S
H1240 N1234 0.984 . S
H1241 N1234 0.984 . S
H1242 N1230 0.984 . S
H1243 N1230 0.985 . S
C1244 C1245 1.363 . S
C1244 C1250 1.379 . S
C1244 N1252 1.356 . S
C1245 C1244 1.363 . S
C1245 C1251 1.363 . S
C1246 C1247 1.363 . S
C1246 C1251 1.379 . S
C1246 N1253 1.356 . S
C1247 C1246 1.363 . S
C1247 C1250 1.363 . S
N1248 C1250 1.356 . S
N1248 H1260 0.984 . S
N1248 H1261 0.985 . S
N1249 C1251 1.356 . S
N1249 H1254 0.984 . S
N1249 H1255 0.985 . S
C1250 C1244 1.379 . S
C1250 C1247 1.363 . S
C1250 N1248 1.356 . S
C1251 C1245 1.363 . S
C1251 C1246 1.379 . S
C1251 N1249 1.356 . S
N1252 C1244 1.356 . S
N1252 H1258 0.984 . S
N1252 H1259 0.984 . S
N1253 C1246 1.356 . S
N1253 H1256 0.984 . S
N1253 H1257 0.985 . S
H1254 N1249 0.984 . S
H1255 N1249 0.985 . S
H1256 N1253 0.984 . S
H1257 N1253 0.985 . S
H1258 N1252 0.984 . S
H1259 N1252 0.984 . S
H1260 N1248 0.984 . S
H1261 N1248 0.985 . S
C1262 C1263 1.363 . S
C1262 C1268 1.379 . S
C1262 N1270 1.356 . S
C1263 C1262 1.363 . S
C1263 C1269 1.363 . S
C1264 C1265 1.363 . S
C1264 C1269 1.379 . S
C1264 N1271 1.356 . S
C1265 C1264 1.363 . S
C1265 C1268 1.363 . S
N1266 C1268 1.356 . S
N1266 H1278 0.984 . S
N1266 H1279 0.985 . S
N1267 C1269 1.356 . S
N1267 H1272 0.984 . S
N1267 H1273 0.985 . S
C1268 C1262 1.379 . S
C1268 C1265 1.363 . S
C1268 N1266 1.356 . S
C1269 C1263 1.363 . S
C1269 C1264 1.379 . S
C1269 N1267 1.356 . S
N1270 C1262 1.356 . S
N1270 H1276 0.984 . S
N1270 H1277 0.984 . S
N1271 C1264 1.356 . S
N1271 H1274 0.984 . S
N1271 H1275 0.985 . S
H1272 N1267 0.984 . S
H1273 N1267 0.985 . S
H1274 N1271 0.984 . S
H1275 N1271 0.985 . S
H1276 N1270 0.984 . S
H1277 N1270 0.984 . S
H1278 N1266 0.984 . S
H1279 N1266 0.985 . S
C1280 C1281 1.363 . S
C1280 C1286 1.379 . S
C1280 N1288 1.356 . S
C1281 C1280 1.363 . S
C1281 C1287 1.363 . S
C1282 C1283 1.363 . S
C1282 C1287 1.379 . S
C1282 N1289 1.356 . S
C1283 C1282 1.363 . S
C1283 C1286 1.363 . S
N1284 C1286 1.356 . S
N1284 H1296 0.984 . S
N1284 H1297 0.985 . S
N1285 C1287 1.356 . S
N1285 H1290 0.984 . S
N1285 H1291 0.985 . S
C1286 C1280 1.379 . S
C1286 C1283 1.363 . S
C1286 N1284 1.356 . S
C1287 C1281 1.363 . S
C1287 C1282 1.379 . S
C1287 N1285 1.356 . S
N1288 C1280 1.356 . S
N1288 H1294 0.984 . S
N1288 H1295 0.984 . S
N1289 C1282 1.356 . S
N1289 H1292 0.984 . S
N1289 H1293 0.985 . S
H1290 N1285 0.984 . S
H1291 N1285 0.985 . S
H1292 N1289 0.984 . S
H1293 N1289 0.985 . S
H1294 N1288 0.984 . S
H1295 N1288 0.984 . S
H1296 N1284 0.984 . S
H1297 N1284 0.985 . S
C1298 C1299 1.363 . S
C1298 C1304 1.379 . S
C1298 N1306 1.356 . S
C1299 C1298 1.363 . S
C1299 C1305 1.363 . S
C1300 C1301 1.363 . S
C1300 C1305 1.379 . S
C1300 N1307 1.356 . S
C1301 C1300 1.363 . S
C1301 C1304 1.363 . S
N1302 C1304 1.356 . S
N1302 H1314 0.984 . S
N1302 H1315 0.985 . S
N1303 C1305 1.356 . S
N1303 H1308 0.984 . S
N1303 H1309 0.985 . S
C1304 C1298 1.379 . S
C1304 C1301 1.363 . S
C1304 N1302 1.356 . S
C1305 C1299 1.363 . S
C1305 C1300 1.379 . S
C1305 N1303 1.356 . S
N1306 C1298 1.356 . S
N1306 H1312 0.984 . S
N1306 H1313 0.984 . S
N1307 C1300 1.356 . S
N1307 H1310 0.984 . S
N1307 H1311 0.985 . S
H1308 N1303 0.984 . S
H1309 N1303 0.985 . S
H1310 N1307 0.984 . S
H1311 N1307 0.985 . S
H1312 N1306 0.984 . S
H1313 N1306 0.984 . S
H1314 N1302 0.984 . S
H1315 N1302 0.985 . S
C1316 C1317 1.363 1_556 S
C1316 C1322 1.379 . S
C1316 N1324 1.356 . S
C1317 C1316 1.363 1_554 S
C1317 C1323 1.363 . S
C1318 C1319 1.363 . S
C1318 C1323 1.379 . S
C1318 N1325 1.356 . S
C1319 C1318 1.363 . S
C1319 C1322 1.363 1_554 S
N1320 C1322 1.356 . S
N1320 H1332 0.984 . S
N1320 H1333 0.985 . S
N1321 C1323 1.356 . S
N1321 H1326 0.984 . S
N1321 H1327 0.985 . S
C1322 C1316 1.379 . S
C1322 C1319 1.363 1_556 S
C1322 N1320 1.356 . S
C1323 C1317 1.363 . S
C1323 C1318 1.379 . S
C1323 N1321 1.356 . S
N1324 C1316 1.356 . S
N1324 H1330 0.984 . S
N1324 H1331 0.984 . S
N1325 C1318 1.356 . S
N1325 H1328 0.984 . S
N1325 H1329 0.985 . S
H1326 N1321 0.984 . S
H1327 N1321 0.985 . S
H1328 N1325 0.984 . S
H1329 N1325 0.985 . S
H1330 N1324 0.984 . S
H1331 N1324 0.984 . S
H1332 N1320 0.984 . S
H1333 N1320 0.985 . S
C1334 C1335 1.363 1_556 S
C1334 C1340 1.379 . S
C1334 N1342 1.356 . S
C1335 C1334 1.363 1_554 S
C1335 C1341 1.363 . S
C1336 C1337 1.363 . S
C1336 C1341 1.379 . S
C1336 N1343 1.356 . S
C1337 C1336 1.363 . S
C1337 C1340 1.363 1_554 S
N1338 C1340 1.356 . S
N1338 H1350 0.984 . S
N1338 H1351 0.985 . S
N1339 C1341 1.356 . S
N1339 H1344 0.984 . S
N1339 H1345 0.985 . S
C1340 C1334 1.379 . S
C1340 C1337 1.363 1_556 S
C1340 N1338 1.356 . S
C1341 C1335 1.363 . S
C1341 C1336 1.379 . S
C1341 N1339 1.356 . S
N1342 C1334 1.356 . S
N1342 H1348 0.984 . S
N1342 H1349 0.984 . S
N1343 C1336 1.356 . S
N1343 H1346 0.984 . S
N1343 H1347 0.985 . S
H1344 N1339 0.984 . S
H1345 N1339 0.985 . S
H1346 N1343 0.984 . S
H1347 N1343 0.985 . S
H1348 N1342 0.984 . S
H1349 N1342 0.984 . S
H1350 N1338 0.984 . S
H1351 N1338 0.985 . S
C1352 C1353 1.363 . S
C1352 C1358 1.379 . S
C1352 N1360 1.356 . S
C1353 C1352 1.363 . S
C1353 C1359 1.363 . S
C1354 C1355 1.363 . S
C1354 C1359 1.379 . S
C1354 N1361 1.356 . S
C1355 C1354 1.363 . S
C1355 C1358 1.363 . S
N1356 C1358 1.356 . S
N1356 H1368 0.984 . S
N1356 H1369 0.985 . S
N1357 C1359 1.356 . S
N1357 H1362 0.984 . S
N1357 H1363 0.985 . S
C1358 C1352 1.379 . S
C1358 C1355 1.363 . S
C1358 N1356 1.356 . S
C1359 C1353 1.363 . S
C1359 C1354 1.379 . S
C1359 N1357 1.356 . S
N1360 C1352 1.356 . S
N1360 H1366 0.984 . S
N1360 H1367 0.984 . S
N1361 C1354 1.356 . S
N1361 H1364 0.984 . S
N1361 H1365 0.985 . S
H1362 N1357 0.984 . S
H1363 N1357 0.985 . S
H1364 N1361 0.984 . S
H1365 N1361 0.985 . S
H1366 N1360 0.984 . S
H1367 N1360 0.984 . S
H1368 N1356 0.984 . S
H1369 N1356 0.985 . S
C1370 C1371 1.363 . S
C1370 C1376 1.379 . S
C1370 N1378 1.356 . S
C1371 C1370 1.363 . S
C1371 C1377 1.363 . S
C1372 C1373 1.363 . S
C1372 C1377 1.379 . S
C1372 N1379 1.356 . S
C1373 C1372 1.363 . S
C1373 C1376 1.363 . S
N1374 C1376 1.356 . S
N1374 H1386 0.984 . S
N1374 H1387 0.985 . S
N1375 C1377 1.356 . S
N1375 H1380 0.984 . S
N1375 H1381 0.985 . S
C1376 C1370 1.379 . S
C1376 C1373 1.363 . S
C1376 N1374 1.356 . S
C1377 C1371 1.363 . S
C1377 C1372 1.379 . S
C1377 N1375 1.356 . S
N1378 C1370 1.356 . S
N1378 H1384 0.984 . S
N1378 H1385 0.984 . S
N1379 C1372 1.356 . S
N1379 H1382 0.984 . S
N1379 H1383 0.985 . S
H1380 N1375 0.984 . S
H1381 N1375 0.985 . S
H1382 N1379 0.984 . S
H1383 N1379 0.985 . S
H1384 N1378 0.984 . S
H1385 N1378 0.984 . S
H1386 N1374 0.984 . S
H1387 N1374 0.985 . S
C1388 C1389 1.363 1_554 S
C1388 C1394 1.379 . S
C1388 N1396 1.356 . S
C1389 C1388 1.363 1_556 S
C1389 C1395 1.363 . S
C1390 C1391 1.363 . S
C1390 C1395 1.379 . S
C1390 N1397 1.356 . S
C1391 C1390 1.363 . S
C1391 C1394 1.363 1_556 S
N1392 C1394 1.356 . S
N1392 H1404 0.984 . S
N1392 H1405 0.985 . S
N1393 C1395 1.356 . S
N1393 H1398 0.984 . S
N1393 H1399 0.985 . S
C1394 C1388 1.379 . S
C1394 C1391 1.363 1_554 S
C1394 N1392 1.356 . S
C1395 C1389 1.363 . S
C1395 C1390 1.379 . S
C1395 N1393 1.356 . S
N1396 C1388 1.356 . S
N1396 H1402 0.984 . S
N1396 H1403 0.984 . S
N1397 C1390 1.356 . S
N1397 H1400 0.984 . S
N1397 H1401 0.985 . S
H1398 N1393 0.984 . S
H1399 N1393 0.985 . S
H1400 N1397 0.984 . S
H1401 N1397 0.985 . S
H1402 N1396 0.984 . S
H1403 N1396 0.984 . S
H1404 N1392 0.984 . S
H1405 N1392 0.985 . S
C1406 C1407 1.363 . S
C1406 C1412 1.379 . S
C1406 N1414 1.356 . S
C1407 C1406 1.363 . S
C1407 C1413 1.363 1_556 S
C1408 C1409 1.363 1_554 S
C1408 C1413 1.379 . S
C1408 N1415 1.356 . S
C1409 C1408 1.363 1_556 S
C1409 C1412 1.363 . S
N1410 C1412 1.356 . S
N1410 H1422 0.984 . S
N1410 H1423 0.985 . S
N1411 C1413 1.356 . S
N1411 H1416 0.984 . S
N1411 H1417 0.985 . S
C1412 C1406 1.379 . S
C1412 C1409 1.363 . S
C1412 N1410 1.356 . S
C1413 C1407 1.363 1_554 S
C1413 C1408 1.379 . S
C1413 N1411 1.356 . S
N1414 C1406 1.356 . S
N1414 H1420 0.984 . S
N1414 H1421 0.984 . S
N1415 C1408 1.356 . S
N1415 H1418 0.984 . S
N1415 H1419 0.985 . S
H1416 N1411 0.984 . S
H1417 N1411 0.985 . S
H1418 N1415 0.984 . S
H1419 N1415 0.985 . S
H1420 N1414 0.984 . S
H1421 N1414 0.984 . S
H1422 N1410 0.984 . S
H1423 N1410 0.985 . S
C1424 C1425 1.363 . S
C1424 C1430 1.379 . S
C1424 N1432 1.356 . S
C1425 C1424 1.363 . S
C1425 C1431 1.363 . S
C1426 C1427 1.363 . S
C1426 C1431 1.379 . S
C1426 N1433 1.356 . S
C1427 C1426 1.363 . S
C1427 C1430 1.363 . S
N1428 C1430 1.356 . S
N1428 H1440 0.984 . S
N1428 H1441 0.985 . S
N1429 C1431 1.356 . S
N1429 H1434 0.984 . S
N1429 H1435 0.985 . S
C1430 C1424 1.379 . S
C1430 C1427 1.363 . S
C1430 N1428 1.356 . S
C1431 C1425 1.363 . S
C1431 C1426 1.379 . S
C1431 N1429 1.356 . S
N1432 C1424 1.356 . S
N1432 H1438 0.984 . S
N1432 H1439 0.984 . S
N1433 C1426 1.356 . S
N1433 H1436 0.984 . S
N1433 H1437 0.985 . S
H1434 N1429 0.984 . S
H1435 N1429 0.985 . S
H1436 N1433 0.984 . S
H1437 N1433 0.985 . S
H1438 N1432 0.984 . S
H1439 N1432 0.984 . S
H1440 N1428 0.984 . S
H1441 N1428 0.985 . S
C1442 C1443 1.363 . S
C1442 C1448 1.379 . S
C1442 N1450 1.356 . S
C1443 C1442 1.363 . S
C1443 C1449 1.363 . S
C1444 C1445 1.363 . S
C1444 C1449 1.379 . S
C1444 N1451 1.356 . S
C1445 C1444 1.363 . S
C1445 C1448 1.363 . S
N1446 C1448 1.356 . S
N1446 H1458 0.984 . S
N1446 H1459 0.985 . S
N1447 C1449 1.356 . S
N1447 H1452 0.984 . S
N1447 H1453 0.985 . S
C1448 C1442 1.379 . S
C1448 C1445 1.363 . S
C1448 N1446 1.356 . S
C1449 C1443 1.363 . S
C1449 C1444 1.379 . S
C1449 N1447 1.356 . S
N1450 C1442 1.356 . S
N1450 H1456 0.984 . S
N1450 H1457 0.984 . S
N1451 C1444 1.356 . S
N1451 H1454 0.984 . S
N1451 H1455 0.985 . S
H1452 N1447 0.984 . S
H1453 N1447 0.985 . S
H1454 N1451 0.984 . S
H1455 N1451 0.985 . S
H1456 N1450 0.984 . S
H1457 N1450 0.984 . S
H1458 N1446 0.984 . S
H1459 N1446 0.985 . S
C1460 C1461 1.363 . S
C1460 C1466 1.379 . S
C1460 N1468 1.356 . S
C1461 C1460 1.363 . S
C1461 C1467 1.363 . S
C1462 C1463 1.363 . S
C1462 C1467 1.379 . S
C1462 N1469 1.356 . S
C1463 C1462 1.363 . S
C1463 C1466 1.363 . S
N1464 C1466 1.356 . S
N1464 H1476 0.984 . S
N1464 H1477 0.985 . S
N1465 C1467 1.356 . S
N1465 H1470 0.984 . S
N1465 H1471 0.985 . S
C1466 C1460 1.379 . S
C1466 C1463 1.363 . S
C1466 N1464 1.356 . S
C1467 C1461 1.363 . S
C1467 C1462 1.379 . S
C1467 N1465 1.356 . S
N1468 C1460 1.356 . S
N1468 H1474 0.984 . S
N1468 H1475 0.984 . S
N1469 C1462 1.356 . S
N1469 H1472 0.984 . S
N1469 H1473 0.985 . S
H1470 N1465 0.984 . S
H1471 N1465 0.985 . S
H1472 N1469 0.984 . S
H1473 N1469 0.985 . S
H1474 N1468 0.984 . S
H1475 N1468 0.984 . S
H1476 N1464 0.984 . S
H1477 N1464 0.985 . S
C1478 C1479 1.363 . S
C1478 C1484 1.379 . S
C1478 N1486 1.356 . S
C1479 C1478 1.363 . S
C1479 C1485 1.363 . S
C1480 C1481 1.363 . S
C1480 C1485 1.379 . S
C1480 N1487 1.356 . S
C1481 C1480 1.363 . S
C1481 C1484 1.363 . S
N1482 C1484 1.356 . S
N1482 H1494 0.984 . S
N1482 H1495 0.985 . S
N1483 C1485 1.356 . S
N1483 H1488 0.984 . S
N1483 H1489 0.985 . S
C1484 C1478 1.379 . S
C1484 C1481 1.363 . S
C1484 N1482 1.356 . S
C1485 C1479 1.363 . S
C1485 C1480 1.379 . S
C1485 N1483 1.356 . S
N1486 C1478 1.356 . S
N1486 H1492 0.984 . S
N1486 H1493 0.984 . S
N1487 C1480 1.356 . S
N1487 H1490 0.984 . S
N1487 H1491 0.985 . S
H1488 N1483 0.984 . S
H1489 N1483 0.985 . S
H1490 N1487 0.984 . S
H1491 N1487 0.985 . S
H1492 N1486 0.984 . S
H1493 N1486 0.984 . S
H1494 N1482 0.984 . S
H1495 N1482 0.985 . S
C1496 C1497 1.363 . S
C1496 C1502 1.379 . S
C1496 N1504 1.356 . S
C1497 C1496 1.363 . S
C1497 C1503 1.363 . S
C1498 C1499 1.363 . S
C1498 C1503 1.379 . S
C1498 N1505 1.356 . S
C1499 C1498 1.363 . S
C1499 C1502 1.363 . S
N1500 C1502 1.356 . S
N1500 H1512 0.984 . S
N1500 H1513 0.985 . S
N1501 C1503 1.356 . S
N1501 H1506 0.984 . S
N1501 H1507 0.985 . S
C1502 C1496 1.379 . S
C1502 C1499 1.363 . S
C1502 N1500 1.356 . S
C1503 C1497 1.363 . S
C1503 C1498 1.379 . S
C1503 N1501 1.356 . S
N1504 C1496 1.356 . S
N1504 H1510 0.984 . S
N1504 H1511 0.984 . S
N1505 C1498 1.356 . S
N1505 H1508 0.984 . S
N1505 H1509 0.985 . S
H1506 N1501 0.984 . S
H1507 N1501 0.985 . S
H1508 N1505 0.984 . S
H1509 N1505 0.985 . S
H1510 N1504 0.984 . S
H1511 N1504 0.984 . S
H1512 N1500 0.984 . S
H1513 N1500 0.985 . S
C1514 C1515 1.363 . S
C1514 C1520 1.379 . S
C1514 N1522 1.356 . S
C1515 C1514 1.363 . S
C1515 C1521 1.363 . S
C1516 C1517 1.363 . S
C1516 C1521 1.379 . S
C1516 N1523 1.356 . S
C1517 C1516 1.363 . S
C1517 C1520 1.363 . S
N1518 C1520 1.356 . S
N1518 H1530 0.984 . S
N1518 H1531 0.985 . S
N1519 C1521 1.356 . S
N1519 H1524 0.984 . S
N1519 H1525 0.985 . S
C1520 C1514 1.379 . S
C1520 C1517 1.363 . S
C1520 N1518 1.356 . S
C1521 C1515 1.363 . S
C1521 C1516 1.379 . S
C1521 N1519 1.356 . S
N1522 C1514 1.356 . S
N1522 H1528 0.984 . S
N1522 H1529 0.984 . S
N1523 C1516 1.356 . S
N1523 H1526 0.984 . S
N1523 H1527 0.985 . S
H1524 N1519 0.984 . S
H1525 N1519 0.985 . S
H1526 N1523 0.984 . S
H1527 N1523 0.985 . S
H1528 N1522 0.984 . S
H1529 N1522 0.984 . S
H1530 N1518 0.984 . S
H1531 N1518 0.985 . S
C1532 C1533 1.363 . S
C1532 C1538 1.379 . S
C1532 N1540 1.356 . S
C1533 C1532 1.363 . S
C1533 C1539 1.363 . S
C1534 C1535 1.363 . S
C1534 C1539 1.379 . S
C1534 N1541 1.356 . S
C1535 C1534 1.363 . S
C1535 C1538 1.363 . S
N1536 C1538 1.356 . S
N1536 H1548 0.984 . S
N1536 H1549 0.985 . S
N1537 C1539 1.356 . S
N1537 H1542 0.984 . S
N1537 H1543 0.985 . S
C1538 C1532 1.379 . S
C1538 C1535 1.363 . S
C1538 N1536 1.356 . S
C1539 C1533 1.363 . S
C1539 C1534 1.379 . S
C1539 N1537 1.356 . S
N1540 C1532 1.356 . S
N1540 H1546 0.984 . S
N1540 H1547 0.984 . S
N1541 C1534 1.356 . S
N1541 H1544 0.984 . S
N1541 H1545 0.985 . S
H1542 N1537 0.984 . S
H1543 N1537 0.985 . S
H1544 N1541 0.984 . S
H1545 N1541 0.985 . S
H1546 N1540 0.984 . S
H1547 N1540 0.984 . S
H1548 N1536 0.984 . S
H1549 N1536 0.985 . S
C1550 C1551 1.363 . S
C1550 C1556 1.379 . S
C1550 N1558 1.356 . S
C1551 C1550 1.363 . S
C1551 C1557 1.363 . S
C1552 C1553 1.363 . S
C1552 C1557 1.379 . S
C1552 N1559 1.356 . S
C1553 C1552 1.363 . S
C1553 C1556 1.363 . S
N1554 C1556 1.356 . S
N1554 H1566 0.984 . S
N1554 H1567 0.985 . S
N1555 C1557 1.356 . S
N1555 H1560 0.984 . S
N1555 H1561 0.985 . S
C1556 C1550 1.379 . S
C1556 C1553 1.363 . S
C1556 N1554 1.356 . S
C1557 C1551 1.363 . S
C1557 C1552 1.379 . S
C1557 N1555 1.356 . S
N1558 C1550 1.356 . S
N1558 H1564 0.984 . S
N1558 H1565 0.984 . S
N1559 C1552 1.356 . S
N1559 H1562 0.984 . S
N1559 H1563 0.985 . S
H1560 N1555 0.984 . S
H1561 N1555 0.985 . S
H1562 N1559 0.984 . S
H1563 N1559 0.985 . S
H1564 N1558 0.984 . S
H1565 N1558 0.984 . S
H1566 N1554 0.984 . S
H1567 N1554 0.985 . S
C417 C1 1.539 . S
C419 C40 1.543 . S
C435 C27 1.539 . S
C437 C14 1.543 . S
C453 C53 1.510 . S
C455 C92 1.513 . S
C471 C79 1.508 . S
C473 C66 1.515 . S
C489 C105 1.506 . S
C491 C144 1.506 . S
C507 C131 1.506 . S
C509 C118 1.506 . S
C525 C157 1.478 . S
C527 C196 1.477 . S
C543 C170 1.478 . S
C545 C183 1.477 . S
C561 C248 1.506 . S
C563 C209 1.506 . S
C579 C222 1.506 . S
C581 C235 1.506 . S
C597 C261 1.478 . S
C599 C300 1.477 . S
C615 C287 1.477 . S
C617 C274 1.478 . S
C633 C313 1.539 . S
C635 C352 1.543 . S
C651 C339 1.539 . S
C653 C326 1.543 . S
C669 C365 1.510 . S
C671 C404 1.513 . S
C687 C378 1.510 . S
C689 C391 1.513 . S
C705 C161 1.906 . S
C707 C5 1.746 . S
C723 C18 1.746 . S
C725 C278 1.906 . S
C741 C31 1.707 . S
C743 C83 1.859 . S
C759 C408 1.858 . S
C761 C44 1.707 . S
C777 C57 1.906 . S
C779 C109 1.747 . S
C795 C226 1.747 . S
C797 C70 1.906 . S
C813 C356 1.707 . S
C815 C96 1.859 . S
C831 C382 1.906 . S
C833 C122 1.747 . S
C849 C187 1.863 . S
C851 C135 1.711 . S
C867 C304 1.863 . S
C869 C148 1.711 . S
C885 C174 1.906 . S
C887 C330 1.746 . S
C903 C252 1.711 . S
C905 C200 1.863 . S
C921 C369 1.906 . S
C923 C213 1.747 . S
C939 C291 1.863 . S
C941 C239 1.711 . S
C957 C317 1.746 . S
C959 C265 1.906 . S
C975 C343 1.707 . S
C977 C395 1.859 . S
C993 C133 1.677 . S
C995 C3 1.677 . S
C1011 C16 1.677 . S
C1013 C146 1.677 . S
C1029 C107 1.650 . S
C1031 C29 1.645 . S
C1047 C120 1.650 . S
C1049 C42 1.645 . S
C1065 C55 1.627 . S
C1067 C185 1.625 . S
C1083 C68 1.627 . S
C1085 C198 1.625 . S
C1101 C159 1.598 . S
C1103 C81 1.592 . S
C1119 C94 1.597 . S
C1121 C172 1.594 . S
C1137 C341 1.650 . S
C1139 C211 1.646 . S
C1155 C354 1.650 . S
C1157 C224 1.646 . S
C1173 C237 1.677 . S
C1175 C315 1.677 . S
C1191 C250 1.677 . S
C1193 C328 1.677 . S
C1209 C263 1.598 . S
C1211 C393 1.592 . S
C1227 C276 1.598 . S
C1229 C406 1.592 . S
C1245 C367 1.627 . S
C1247 C289 1.625 . S
C1263 C380 1.627 . S
C1265 C302 1.625 . S
C1281 C10 1.931 . S
C1283 C335 1.931 . S
C1299 C322 1.931 . S
C1301 C23 1.945 . S
C1317 C36 1.889 . S
C1319 C361 1.889 . S
C1335 C49 1.889 . S
C1337 C348 1.889 . S
C1353 C62 2.051 . S
C1355 C387 2.051 . S
C1371 C75 2.051 1_455 S
C1373 C374 2.051 . S
C1389 C413 2.004 . S
C1391 C88 2.004 . S
C1407 C400 2.004 . S
C1409 C101 2.004 1_455 S
C1425 C231 1.926 . S
C1427 C114 1.926 . S
C1443 C218 1.926 . S
C1445 C127 1.945 . S
C1461 C140 1.892 . S
C1463 C257 1.892 . S
C1479 C153 1.892 . S
C1481 C244 1.892 . S
C1497 C283 2.046 . S
C1499 C166 2.046 . S
C1515 C179 2.046 1_455 S
C1517 C270 2.046 . S
C1533 C192 2.007 . S
C1535 C309 2.007 . S
C1551 C205 2.007 1_455 S
C1553 C296 2.007 . S
