# Generated by pormake.
# Topology wgp, (5)-cn, num edge types: 1
# Building blocks:
#     Node 0, Type 0, BuildingBlock: XOMCOT_clean_sbu_1, # of connection points: 5
#     Node 1, Type 0, BuildingBlock: XOMCOT_clean_sbu_1, # of connection points: 5
#     Node 2, Type 0, BuildingBlock: XOMCOT_clean_sbu_1, # of connection points: 5
#     Node 3, Type 0, BuildingBlock: XOMCOT_clean_sbu_1, # of connection points: 5
#     Node 4, Type 0, BuildingBlock: XOMCOT_clean_sbu_1, # of connection points: 5
#     Node 5, Type 0, BuildingBlock: XOMCOT_clean_sbu_1, # of connection points: 5
#     Node 6, Type 0, BuildingBlock: XOMCOT_clean_sbu_1, # of connection points: 5
#     Node 7, Type 0, BuildingBlock: XOMCOT_clean_sbu_1, # of connection points: 5
#     Node 8, Type 0, BuildingBlock: XOMCOT_clean_sbu_1, # of connection points: 5
#     Node 9, Type 0, BuildingBlock: XOMCOT_clean_sbu_1, # of connection points: 5
#     Node 10, Type 0, BuildingBlock: XOMCOT_clean_sbu_1, # of connection points: 5
#     Node 11, Type 0, BuildingBlock: XOMCOT_clean_sbu_1, # of connection points: 5
#     Node 12, Type 0, BuildingBlock: XOMCOT_clean_sbu_1, # of connection points: 5
#     Node 13, Type 0, BuildingBlock: XOMCOT_clean_sbu_1, # of connection points: 5
#     Node 14, Type 0, BuildingBlock: XOMCOT_clean_sbu_1, # of connection points: 5
#     Node 15, Type 0, BuildingBlock: XOMCOT_clean_sbu_1, # of connection points: 5
#     Node 16, Type 0, BuildingBlock: XOMCOT_clean_sbu_1, # of connection points: 5
#     Node 17, Type 0, BuildingBlock: XOMCOT_clean_sbu_1, # of connection points: 5
#     Node 18, Type 0, BuildingBlock: XOMCOT_clean_sbu_1, # of connection points: 5
#     Node 19, Type 0, BuildingBlock: XOMCOT_clean_sbu_1, # of connection points: 5
#     Node 20, Type 0, BuildingBlock: XOMCOT_clean_sbu_1, # of connection points: 5
#     Node 21, Type 0, BuildingBlock: XOMCOT_clean_sbu_1, # of connection points: 5
#     Node 22, Type 0, BuildingBlock: XOMCOT_clean_sbu_1, # of connection points: 5
#     Node 23, Type 0, BuildingBlock: XOMCOT_clean_sbu_1, # of connection points: 5
#     Node 24, Type 0, BuildingBlock: XOMCOT_clean_sbu_1, # of connection points: 5
#     Node 25, Type 0, BuildingBlock: XOMCOT_clean_sbu_1, # of connection points: 5
#     Node 26, Type 0, BuildingBlock: XOMCOT_clean_sbu_1, # of connection points: 5
#     Node 27, Type 0, BuildingBlock: XOMCOT_clean_sbu_1, # of connection points: 5
#     Node 28, Type 0, BuildingBlock: XOMCOT_clean_sbu_1, # of connection points: 5
#     Node 29, Type 0, BuildingBlock: XOMCOT_clean_sbu_1, # of connection points: 5
#     Node 30, Type 0, BuildingBlock: XOMCOT_clean_sbu_1, # of connection points: 5
#     Node 31, Type 0, BuildingBlock: XOMCOT_clean_sbu_1, # of connection points: 5
#     Edge 32, Type (0, 0), BuildingBlock: XIVTED_clean_linker_0, # of connection points: 2
#     Edge 33, Type (0, 0), BuildingBlock: XIVTED_clean_linker_0, # of connection points: 2
#     Edge 34, Type (0, 0), BuildingBlock: XIVTED_clean_linker_0, # of connection points: 2
#     Edge 35, Type (0, 0), BuildingBlock: XIVTED_clean_linker_0, # of connection points: 2
#     Edge 36, Type (0, 0), BuildingBlock: XIVTED_clean_linker_0, # of connection points: 2
#     Edge 37, Type (0, 0), BuildingBlock: XIVTED_clean_linker_0, # of connection points: 2
#     Edge 38, Type (0, 0), BuildingBlock: XIVTED_clean_linker_0, # of connection points: 2
#     Edge 39, Type (0, 0), BuildingBlock: XIVTED_clean_linker_0, # of connection points: 2
#     Edge 40, Type (0, 0), BuildingBlock: XIVTED_clean_linker_0, # of connection points: 2
#     Edge 41, Type (0, 0), BuildingBlock: XIVTED_clean_linker_0, # of connection points: 2
#     Edge 42, Type (0, 0), BuildingBlock: XIVTED_clean_linker_0, # of connection points: 2
#     Edge 43, Type (0, 0), BuildingBlock: XIVTED_clean_linker_0, # of connection points: 2
#     Edge 44, Type (0, 0), BuildingBlock: XIVTED_clean_linker_0, # of connection points: 2
#     Edge 45, Type (0, 0), BuildingBlock: XIVTED_clean_linker_0, # of connection points: 2
#     Edge 46, Type (0, 0), BuildingBlock: XIVTED_clean_linker_0, # of connection points: 2
#     Edge 47, Type (0, 0), BuildingBlock: XIVTED_clean_linker_0, # of connection points: 2
#     Edge 48, Type (0, 0), BuildingBlock: XIVTED_clean_linker_0, # of connection points: 2
#     Edge 49, Type (0, 0), BuildingBlock: XIVTED_clean_linker_0, # of connection points: 2
#     Edge 50, Type (0, 0), BuildingBlock: XIVTED_clean_linker_0, # of connection points: 2
#     Edge 51, Type (0, 0), BuildingBlock: XIVTED_clean_linker_0, # of connection points: 2
#     Edge 52, Type (0, 0), BuildingBlock: XIVTED_clean_linker_0, # of connection points: 2
#     Edge 53, Type (0, 0), BuildingBlock: XIVTED_clean_linker_0, # of connection points: 2
#     Edge 54, Type (0, 0), BuildingBlock: XIVTED_clean_linker_0, # of connection points: 2
#     Edge 55, Type (0, 0), BuildingBlock: XIVTED_clean_linker_0, # of connection points: 2
#     Edge 56, Type (0, 0), BuildingBlock: XIVTED_clean_linker_0, # of connection points: 2
#     Edge 57, Type (0, 0), BuildingBlock: XIVTED_clean_linker_0, # of connection points: 2
#     Edge 58, Type (0, 0), BuildingBlock: XIVTED_clean_linker_0, # of connection points: 2
#     Edge 59, Type (0, 0), BuildingBlock: XIVTED_clean_linker_0, # of connection points: 2
#     Edge 60, Type (0, 0), BuildingBlock: XIVTED_clean_linker_0, # of connection points: 2
#     Edge 61, Type (0, 0), BuildingBlock: XIVTED_clean_linker_0, # of connection points: 2
#     Edge 62, Type (0, 0), BuildingBlock: XIVTED_clean_linker_0, # of connection points: 2
#     Edge 63, Type (0, 0), BuildingBlock: XIVTED_clean_linker_0, # of connection points: 2
#     Edge 64, Type (0, 0), BuildingBlock: XIVTED_clean_linker_0, # of connection points: 2
#     Edge 65, Type (0, 0), BuildingBlock: XIVTED_clean_linker_0, # of connection points: 2
#     Edge 66, Type (0, 0), BuildingBlock: XIVTED_clean_linker_0, # of connection points: 2
#     Edge 67, Type (0, 0), BuildingBlock: XIVTED_clean_linker_0, # of connection points: 2
#     Edge 68, Type (0, 0), BuildingBlock: XIVTED_clean_linker_0, # of connection points: 2
#     Edge 69, Type (0, 0), BuildingBlock: XIVTED_clean_linker_0, # of connection points: 2
#     Edge 70, Type (0, 0), BuildingBlock: XIVTED_clean_linker_0, # of connection points: 2
#     Edge 71, Type (0, 0), BuildingBlock: XIVTED_clean_linker_0, # of connection points: 2
#     Edge 72, Type (0, 0), BuildingBlock: XIVTED_clean_linker_0, # of connection points: 2
#     Edge 73, Type (0, 0), BuildingBlock: XIVTED_clean_linker_0, # of connection points: 2
#     Edge 74, Type (0, 0), BuildingBlock: XIVTED_clean_linker_0, # of connection points: 2
#     Edge 75, Type (0, 0), BuildingBlock: XIVTED_clean_linker_0, # of connection points: 2
#     Edge 76, Type (0, 0), BuildingBlock: XIVTED_clean_linker_0, # of connection points: 2
#     Edge 77, Type (0, 0), BuildingBlock: XIVTED_clean_linker_0, # of connection points: 2
#     Edge 78, Type (0, 0), BuildingBlock: XIVTED_clean_linker_0, # of connection points: 2
#     Edge 79, Type (0, 0), BuildingBlock: XIVTED_clean_linker_0, # of connection points: 2
#     Edge 80, Type (0, 0), BuildingBlock: XIVTED_clean_linker_0, # of connection points: 2
#     Edge 81, Type (0, 0), BuildingBlock: XIVTED_clean_linker_0, # of connection points: 2
#     Edge 82, Type (0, 0), BuildingBlock: XIVTED_clean_linker_0, # of connection points: 2
#     Edge 83, Type (0, 0), BuildingBlock: XIVTED_clean_linker_0, # of connection points: 2
#     Edge 84, Type (0, 0), BuildingBlock: XIVTED_clean_linker_0, # of connection points: 2
#     Edge 85, Type (0, 0), BuildingBlock: XIVTED_clean_linker_0, # of connection points: 2
#     Edge 86, Type (0, 0), BuildingBlock: XIVTED_clean_linker_0, # of connection points: 2
#     Edge 87, Type (0, 0), BuildingBlock: XIVTED_clean_linker_0, # of connection points: 2
#     Edge 88, Type (0, 0), BuildingBlock: XIVTED_clean_linker_0, # of connection points: 2
#     Edge 89, Type (0, 0), BuildingBlock: XIVTED_clean_linker_0, # of connection points: 2
#     Edge 90, Type (0, 0), BuildingBlock: XIVTED_clean_linker_0, # of connection points: 2
#     Edge 91, Type (0, 0), BuildingBlock: XIVTED_clean_linker_0, # of connection points: 2
#     Edge 92, Type (0, 0), BuildingBlock: XIVTED_clean_linker_0, # of connection points: 2
#     Edge 93, Type (0, 0), BuildingBlock: XIVTED_clean_linker_0, # of connection points: 2
#     Edge 94, Type (0, 0), BuildingBlock: XIVTED_clean_linker_0, # of connection points: 2
#     Edge 95, Type (0, 0), BuildingBlock: XIVTED_clean_linker_0, # of connection points: 2
#     Edge 96, Type (0, 0), BuildingBlock: XIVTED_clean_linker_0, # of connection points: 2
#     Edge 97, Type (0, 0), BuildingBlock: XIVTED_clean_linker_0, # of connection points: 2
#     Edge 98, Type (0, 0), BuildingBlock: XIVTED_clean_linker_0, # of connection points: 2
#     Edge 99, Type (0, 0), BuildingBlock: XIVTED_clean_linker_0, # of connection points: 2
#     Edge 100, Type (0, 0), BuildingBlock: XIVTED_clean_linker_0, # of connection points: 2
#     Edge 101, Type (0, 0), BuildingBlock: XIVTED_clean_linker_0, # of connection points: 2
#     Edge 102, Type (0, 0), BuildingBlock: XIVTED_clean_linker_0, # of connection points: 2
#     Edge 103, Type (0, 0), BuildingBlock: XIVTED_clean_linker_0, # of connection points: 2
#     Edge 104, Type (0, 0), BuildingBlock: XIVTED_clean_linker_0, # of connection points: 2
#     Edge 105, Type (0, 0), BuildingBlock: XIVTED_clean_linker_0, # of connection points: 2
#     Edge 106, Type (0, 0), BuildingBlock: XIVTED_clean_linker_0, # of connection points: 2
#     Edge 107, Type (0, 0), BuildingBlock: XIVTED_clean_linker_0, # of connection points: 2
#     Edge 108, Type (0, 0), BuildingBlock: XIVTED_clean_linker_0, # of connection points: 2
#     Edge 109, Type (0, 0), BuildingBlock: XIVTED_clean_linker_0, # of connection points: 2
#     Edge 110, Type (0, 0), BuildingBlock: XIVTED_clean_linker_0, # of connection points: 2
#     Edge 111, Type (0, 0), BuildingBlock: XIVTED_clean_linker_0, # of connection points: 2
# Relax obj value: 0.162
# Max RMSD: 0.158
# Mean RMSD: 0.158
data_MOF--net-wgp--node1-XOMCOT_clean_sbu_1--edge1-XIVTED_clean_linker_0
_symmetry_space_group_name_H-M    P1
_symmetry_Int_Tables_number       1
_symmetry_cell_setting            triclinic
loop_
_symmetry_equiv_pos_as_xyz
'x, y, z'
_cell_length_a     35.694339
_cell_length_b     35.659915
_cell_length_c     103.44699
_cell_angle_alpha  90.012776
_cell_angle_beta   89.969064
_cell_angle_gamma 89.95314
loop_
_atom_site_label
_atom_site_type_symbol
_atom_site_fract_x
_atom_site_fract_y
_atom_site_fract_z
_atom_type_partial_charge
C0 C 0.25105 0.25269 0.09981 0.0
C1 C 0.2482 0.29057 0.10187 0.0
N2 N 0.23709 0.30712 0.09082 0.0
N3 N 0.2417 0.24473 0.08748 0.0
C4 C 0.23223 0.27851 0.08231 0.0
H5 H 0.26189 0.23252 0.10665 0.0
Co6 Co 0.25056 0.19633 0.08037 0.0
C7 C 0.25926 0.22576 0.05279 0.0
O8 O 0.29584 0.22621 0.05364 0.0
N9 N 0.25879 0.14659 0.07346 0.0
C10 C 0.27625 0.09968 0.06046 0.0
C11 C 0.27328 0.13784 0.06175 0.0
C12 C 0.25372 0.11246 0.07914 0.0
N13 N 0.26404 0.08349 0.0714 0.0
O14 O 0.19913 0.1844 0.08346 0.0
H15 H 0.28279 0.15749 0.05462 0.0
H16 H 0.24322 0.10873 0.08885 0.0
O17 O 0.23915 0.2144 0.06235 0.0
C18 C 0.19987 0.17275 0.09513 0.0
O19 O 0.23236 0.16951 0.10098 0.0
N20 N 0.30231 0.20737 0.07944 0.0
C21 C 0.37799 0.22345 0.08271 0.0
C22 C 0.3532 0.25115 0.07851 0.0
C23 C 0.31553 0.24283 0.07724 0.0
C24 C 0.32604 0.18056 0.08415 0.0
C25 C 0.36418 0.18774 0.08559 0.0
H26 H 0.29743 0.26488 0.07388 0.0
H27 H 0.31549 0.15371 0.08728 0.0
H28 H 0.2257 0.28249 0.07219 0.0
H29 H 0.25554 0.30497 0.11073 0.0
H30 H 0.28805 0.08505 0.05224 0.0
H31 H 0.36281 0.27905 0.07603 0.0
H32 H 0.38246 0.1659 0.08923 0.0
C33 C 0.01034 0.00247 0.35006 0.0
C34 C 0.97251 0.99744 0.3516 0.0
N35 N 0.95806 0.98549 0.34031 0.0
N36 N 0.02033 0.99351 0.33787 0.0
C37 C 0.98778 0.98269 0.33217 0.0
H38 H 0.02899 0.0144 0.35718 0.0
Co39 Co 0.06951 0.00292 0.3316 0.0
C40 C 0.04685 0.01351 0.30347 0.0
O41 O 0.05092 0.04998 0.3042 0.0
N42 N 0.12016 0.01188 0.32577 0.0
C43 C 0.16975 0.0302 0.31422 0.0
C44 C 0.13167 0.02648 0.31437 0.0
C45 C 0.15283 0.00701 0.33239 0.0
N46 N 0.18338 0.01827 0.32558 0.0
O47 O 0.08116 0.95127 0.33453 0.0
H48 H 0.11436 0.03501 0.30651 0.0
H49 H 0.15423 0.99647 0.34217 0.0
O50 O 0.05369 0.99235 0.31328 0.0
C51 C 0.0885 0.95052 0.3466 0.0
O52 O 0.09133 0.98251 0.35283 0.0
N53 N 0.05785 0.05427 0.3306 0.0
C54 C 0.03859 0.12924 0.33278 0.0
C55 C 0.01324 0.10363 0.32765 0.0
C56 C 0.02301 0.06623 0.32693 0.0
C57 C 0.08219 0.07881 0.33628 0.0
C58 C 0.0732 0.11681 0.33738 0.0
H59 H 0.00288 0.04724 0.3228 0.0
H60 H 0.10831 0.06894 0.34031 0.0
H61 H 0.98551 0.97552 0.32204 0.0
H62 H 0.95648 0.00489 0.36011 0.0
H63 H 0.18611 0.04088 0.30622 0.0
H64 H 0.98587 0.11248 0.32427 0.0
H65 H 0.09289 0.13612 0.34175 0.0
C66 C 0.25584 0.75441 0.59895 0.0
C67 C 0.253 0.71636 0.60039 0.0
N68 N 0.26083 0.69992 0.58897 0.0
N69 N 0.26554 0.76262 0.58669 0.0
C70 C 0.26825 0.72874 0.58076 0.0
H71 H 0.2501 0.77502 0.60636 0.0
Co72 Co 0.26937 0.81318 0.58164 0.0
C73 C 0.25809 0.8162 0.55379 0.0
O74 O 0.23607 0.84484 0.5563 0.0
N75 N 0.27408 0.86513 0.57712 0.0
C76 C 0.29938 0.91651 0.56843 0.0
C77 C 0.30244 0.87827 0.56974 0.0
C78 C 0.25451 0.8965 0.58036 0.0
N79 N 0.26919 0.92808 0.57513 0.0
O80 O 0.32205 0.8113 0.58477 0.0
H81 H 0.32422 0.86101 0.56555 0.0
H82 H 0.2299 0.89666 0.58639 0.0
O83 O 0.27505 0.79933 0.56308 0.0
C84 C 0.32439 0.82126 0.59658 0.0
O85 O 0.29386 0.83208 0.60261 0.0
N86 N 0.21738 0.814 0.58039 0.0
C87 C 0.14238 0.79999 0.58544 0.0
C88 C 0.15993 0.78354 0.57476 0.0
C89 C 0.19772 0.79002 0.57262 0.0
C90 C 0.20051 0.83029 0.59079 0.0
C91 C 0.16271 0.82439 0.59334 0.0
H92 H 0.21152 0.77296 0.56545 0.0
H93 H 0.21722 0.84518 0.59782 0.0
H94 H 0.27513 0.72532 0.57064 0.0
H95 H 0.24451 0.70203 0.60913 0.0
H96 H 0.31855 0.93446 0.56321 0.0
H97 H 0.14518 0.76388 0.56861 0.0
H98 H 0.15037 0.83637 0.60198 0.0
C99 C 0.51335 0.02181 0.8499 0.0
C100 C 0.55095 0.02897 0.85116 0.0
N101 N 0.56488 0.03797 0.83947 0.0
N102 N 0.50298 0.02643 0.83747 0.0
C103 C 0.53499 0.03721 0.83137 0.0
H104 H 0.49544 0.01093 0.85744 0.0
Co105 Co 0.45489 0.01185 0.83123 0.0
C106 C 0.48314 1.00112 0.80369 0.0
O107 O 0.48936 0.96536 0.80549 0.0
N108 N 0.40588 0.9983 0.82496 0.0
C109 C 0.36064 0.97266 0.813 0.0
C110 C 0.39855 0.97753 0.81433 0.0
C111 C 0.37127 0.00567 0.82991 0.0
N112 N 0.3432 0.9902 0.82282 0.0
O113 O 0.43831 0.06253 0.83348 0.0
H114 H 0.41925 0.96537 0.80804 0.0
H115 H 0.36668 0.02131 0.83872 0.0
O116 O 0.46994 0.02161 0.81286 0.0
C117 C 0.42947 0.06277 0.84545 0.0
O118 O 0.42992 0.0309 0.85182 0.0
N119 N 0.47062 0.96074 0.8312 0.0
C120 C 0.49192 0.88597 0.83418 0.0
C121 C 0.51814 0.91306 0.83061 0.0
C122 C 0.50713 0.9501 0.82935 0.0
C123 C 0.44561 0.93505 0.83587 0.0
C124 C 0.45533 0.89733 0.83708 0.0
H125 H 0.52803 0.96949 0.82606 0.0
H126 H 0.41792 0.94352 0.83888 0.0
H127 H 0.53711 0.04093 0.82102 0.0
H128 H 0.5674 0.02446 0.85981 0.0
H129 H 0.34709 0.95726 0.8053 0.0
H130 H 0.54713 0.9058 0.82875 0.0
H131 H 0.43434 0.87738 0.8402 0.0
C132 C 0.25577 0.75557 0.41506 0.0
C133 C 0.25984 0.71744 0.41419 0.0
N134 N 0.25226 0.70226 0.42583 0.0
N135 N 0.24533 0.76487 0.42715 0.0
C136 C 0.24325 0.73175 0.43353 0.0
H137 H 0.26081 0.77542 0.40736 0.0
Co138 Co 0.23937 0.815 0.43212 0.0
C139 C 0.24582 0.81752 0.46024 0.0
O140 O 0.2671 0.84707 0.45836 0.0
N141 N 0.23241 0.86641 0.43673 0.0
C142 C 0.20415 0.91633 0.44532 0.0
C143 C 0.20242 0.87822 0.4436 0.0
C144 C 0.25161 0.89844 0.43417 0.0
N145 N 0.23515 0.92914 0.43939 0.0
O146 O 0.1874 0.81198 0.42788 0.0
H147 H 0.18052 0.86007 0.44721 0.0
H148 H 0.27723 0.89965 0.42867 0.0
O149 O 0.23114 0.80053 0.45053 0.0
C150 C 0.18778 0.82252 0.4161 0.0
O151 O 0.21952 0.83392 0.41102 0.0
N152 N 0.29102 0.81727 0.43438 0.0
C153 C 0.36804 0.81151 0.43226 0.0
C154 C 0.34919 0.79274 0.44215 0.0
C155 C 0.31043 0.79484 0.44275 0.0
C156 C 0.30909 0.83446 0.4244 0.0
C157 C 0.34787 0.83231 0.42321 0.0
H158 H 0.29623 0.77652 0.44943 0.0
H159 H 0.2931 0.84819 0.4169 0.0
H160 H 0.23639 0.72944 0.44369 0.0
H161 H 0.26772 0.70219 0.40557 0.0
H162 H 0.18364 0.93337 0.45032 0.0
H163 H 0.36413 0.77477 0.44884 0.0
H164 H 0.36181 0.84571 0.41514 0.0
C165 C 0.50117 0.0128 0.66932 0.0
C166 C 0.53949 0.01227 0.66866 0.0
N167 N 0.55256 0.99164 0.67857 0.0
N168 N 0.48972 0.99248 0.67958 0.0
C169 C 0.52181 0.98005 0.68515 0.0
H170 H 0.48263 0.02675 0.6626 0.0
Co171 Co 0.43856 0.98398 0.68268 0.0
C172 C 0.42686 0.98628 0.71054 0.0
O173 O 0.3965 0.00527 0.70759 0.0
N174 N 0.38636 0.97403 0.68527 0.0
C175 C 0.33647 0.94175 0.69201 0.0
C176 C 0.37472 0.94161 0.69075 0.0
C177 C 0.35398 0.99311 0.68304 0.0
N178 N 0.32338 0.97422 0.6872 0.0
O179 O 0.44498 0.93276 0.6776 0.0
H180 H 0.39311 0.9194 0.69399 0.0
H181 H 0.35239 0.02073 0.67888 0.0
O182 O 0.44802 0.9738 0.7014 0.0
C183 C 0.44266 0.93445 0.66531 0.0
O184 O 0.43656 0.96724 0.6599 0.0
N185 N 0.43346 0.03527 0.686 0.0
C186 C 0.44078 0.11297 0.68547 0.0
C187 C 0.4586 0.09172 0.69505 0.0
C188 C 0.45517 0.05298 0.69501 0.0
C189 C 0.41646 0.05543 0.67649 0.0
C190 C 0.4188 0.09442 0.67624 0.0
H191 H 0.47286 0.03733 0.70152 0.0
H192 H 0.40333 0.04106 0.66848 0.0
H193 H 0.5226 0.96211 0.69358 0.0
H194 H 0.55653 0.02621 0.66146 0.0
H195 H 0.31959 0.91955 0.69612 0.0
H196 H 0.47758 0.10447 0.70193 0.0
H197 H 0.40517 0.10962 0.6685 0.0
C198 C 0.21473 0.24807 0.91971 0.0
C199 C 0.21386 0.28636 0.91904 0.0
N200 N 0.23737 0.3002 0.92801 0.0
N201 N 0.23863 0.23727 0.92908 0.0
C202 C 0.25202 0.26977 0.93408 0.0
H203 H 0.19882 0.22909 0.9137 0.0
Co204 Co 0.24702 0.18603 0.93188 0.0
C205 C 0.2585 0.17396 0.95951 0.0
O206 O 0.23774 0.14404 0.95766 0.0
N207 N 0.25625 0.13364 0.93389 0.0
C208 C 0.2893 0.0823 0.93859 0.0
C209 C 0.29008 0.12066 0.93775 0.0
C210 C 0.23567 0.10203 0.93206 0.0
N211 N 0.25506 0.07056 0.93502 0.0
O212 O 0.29524 0.19037 0.92388 0.0
H213 H 0.31385 0.13818 0.94008 0.0
H214 H 0.20694 0.1016 0.92887 0.0
O215 O 0.26663 0.19521 0.94982 0.0
C216 C 0.28874 0.18615 0.91183 0.0
O217 O 0.25393 0.18073 0.90815 0.0
N218 N 0.198 0.18298 0.93828 0.0
C219 C 0.12215 0.19634 0.94224 0.0
C220 C 0.14876 0.21113 0.9507 0.0
C221 C 0.18647 0.20514 0.94833 0.0
C222 C 0.1723 0.16781 0.93006 0.0
C223 C 0.13403 0.17354 0.932 0.0
H224 H 0.20603 0.22153 0.95389 0.0
H225 H 0.18153 0.15435 0.92126 0.0
H226 H 0.27244 0.2711 0.94179 0.0
H227 H 0.19679 0.30281 0.91251 0.0
H228 H 0.31232 0.06436 0.94145 0.0
H229 H 0.14064 0.22949 0.95857 0.0
H230 H 0.11425 0.16286 0.92497 0.0
C231 C 0.003 0.03094 0.16255 0.0
C232 C 0.96536 0.03779 0.16097 0.0
N233 N 0.94957 0.04113 0.17272 0.0
N234 N 0.01143 0.03024 0.17526 0.0
C235 C 0.97813 0.03709 0.18124 0.0
H236 H 0.02261 0.02505 0.15485 0.0
Co237 Co 0.05986 0.01731 0.18167 0.0
C238 C 0.0286 1.00097 0.20857 0.0
O239 O 0.02265 0.9656 0.20595 0.0
N240 N 0.10921 0.00519 0.18831 0.0
C241 C 0.15311 0.97757 0.20036 0.0
C242 C 0.11552 0.98381 0.19888 0.0
C243 C 0.14434 0.01164 0.18356 0.0
N244 N 0.17147 0.99474 0.19068 0.0
O245 O 0.07357 0.06897 0.1806 0.0
H246 H 0.09428 0.97131 0.20485 0.0
H247 H 0.15 0.02654 0.17469 0.0
O248 O 0.04266 0.02301 0.20002 0.0
C249 C 0.08647 0.06974 0.16908 0.0
O250 O 0.08883 0.03817 0.16257 0.0
N251 N 0.04765 0.96569 0.18026 0.0
C252 C 0.03412 0.89066 0.17466 0.0
C253 C 0.00505 0.91376 0.17892 0.0
C254 C 0.0122 0.95135 0.18138 0.0
C255 C 0.07513 0.944 0.17484 0.0
C256 C 0.06935 0.90615 0.17237 0.0
H257 H 0.98924 0.96809 0.18483 0.0
H258 H 0.10173 0.95591 0.17211 0.0
H259 H 0.97439 0.03701 0.19162 0.0
H260 H 0.95033 0.03811 0.15189 0.0
H261 H 0.16589 0.96063 0.20784 0.0
H262 H 0.97727 0.90268 0.18072 0.0
H263 H 0.09207 0.88927 0.16856 0.0
C264 C 0.74601 0.75044 0.91671 0.0
C265 C 0.7443 0.71214 0.91597 0.0
N266 N 0.75553 0.69777 0.92736 0.0
N267 N 0.75851 0.76069 0.92847 0.0
C268 C 0.76396 0.72787 0.93484 0.0
H269 H 0.73777 0.76979 0.90918 0.0
Co270 Co 0.76322 0.81168 0.9327 0.0
C271 C 0.75305 0.8188 0.9605 0.0
O272 O 0.73196 0.84761 0.95736 0.0
N273 N 0.76937 0.86392 0.93643 0.0
C274 C 0.79668 0.91431 0.94509 0.0
C275 C 0.79851 0.87613 0.94366 0.0
C276 C 0.75082 0.89596 0.93325 0.0
N277 N 0.76666 0.92683 0.93855 0.0
O278 O 0.81564 0.80899 0.92899 0.0
H279 H 0.81972 0.85815 0.94782 0.0
H280 H 0.72601 0.89716 0.92734 0.0
O281 O 0.76998 0.80026 0.95153 0.0
C282 C 0.81705 0.81583 0.91689 0.0
O283 O 0.78584 0.82397 0.91078 0.0
N284 N 0.7111 0.81314 0.93469 0.0
C285 C 0.63387 0.80339 0.93296 0.0
C286 C 0.65475 0.7841 0.94228 0.0
C287 C 0.69323 0.78879 0.94282 0.0
C288 C 0.69149 0.83092 0.9252 0.0
C289 C 0.65264 0.82735 0.92438 0.0
H290 H 0.70874 0.77061 0.94921 0.0
H291 H 0.70623 0.84587 0.91768 0.0
H292 H 0.77362 0.72608 0.94474 0.0
H293 H 0.73433 0.6961 0.90778 0.0
H294 H 0.8163 0.93164 0.95037 0.0
H295 H 0.64199 0.7635 0.94859 0.0
H296 H 0.63779 0.84195 0.91678 0.0
C297 C 0.9968 0.01151 0.66649 0.0
C298 C 0.03495 0.0128 0.66492 0.0
N299 N 0.0507 0.01985 0.67649 0.0
N300 N 0.98818 0.01793 0.67897 0.0
C301 C 0.0217 0.02294 0.68488 0.0
H302 H 0.97655 0.00544 0.65901 0.0
Co303 Co 0.93849 0.01735 0.68475 0.0
C304 C 0.94031 0.00981 0.71276 0.0
O305 O 0.91339 0.98519 0.71101 0.0
N306 N 0.88719 0.01832 0.69013 0.0
C307 C 0.8365 0.0418 0.69982 0.0
C308 C 0.87421 0.04602 0.69787 0.0
C309 C 0.85598 0.9983 0.68712 0.0
N310 N 0.82492 0.0118 0.69306 0.0
O311 O 0.93458 0.0693 0.68049 0.0
H312 H 0.89122 0.0684 0.70178 0.0
H313 H 0.85549 0.97476 0.68058 0.0
O314 O 0.95409 0.02743 0.703 0.0
C315 C 0.92067 0.06871 0.66914 0.0
O316 O 0.91099 0.03632 0.6641 0.0
N317 N 0.94334 0.96543 0.68726 0.0
C318 C 0.96004 0.88923 0.68654 0.0
C319 C 0.97886 0.91307 0.69504 0.0
C320 C 0.97092 0.95104 0.69499 0.0
C321 C 0.92575 0.94284 0.67854 0.0
C322 C 0.93324 0.90438 0.67813 0.0
H323 H 0.98875 0.96892 0.70069 0.0
H324 H 0.90775 0.95499 0.67127 0.0
H325 H 0.02487 0.02824 0.69513 0.0
H326 H 0.05003 0.00751 0.65602 0.0
H327 H 0.81866 0.06031 0.7054 0.0
H328 H 0.00134 0.9029 0.70115 0.0
H329 H 0.91921 0.88697 0.67105 0.0
C330 C 0.76704 0.24392 0.41819 0.0
C331 C 0.76968 0.2821 0.41764 0.0
N332 N 0.74935 0.29677 0.42736 0.0
N333 N 0.74516 0.23384 0.42823 0.0
C334 C 0.73483 0.26681 0.43376 0.0
H335 H 0.7805 0.2245 0.41164 0.0
Co336 Co 0.73598 0.18258 0.43131 0.0
C337 C 0.73554 0.1707 0.45917 0.0
O338 O 0.75465 0.14037 0.45625 0.0
N339 N 0.72596 0.13019 0.43374 0.0
C340 C 0.69412 0.07941 0.43996 0.0
C341 C 0.6932 0.11775 0.43873 0.0
C342 C 0.74602 0.09823 0.43177 0.0
N343 N 0.72744 0.0671 0.43562 0.0
O344 O 0.68524 0.18855 0.42572 0.0
H345 H 0.67025 0.13563 0.44168 0.0
H346 H 0.77418 0.09731 0.42806 0.0
O347 O 0.72403 0.19223 0.44999 0.0
C348 C 0.68716 0.18588 0.41342 0.0
O349 O 0.72035 0.18226 0.40808 0.0
N350 N 0.78673 0.1774 0.43512 0.0
C351 C 0.86422 0.18294 0.43537 0.0
C352 C 0.84286 0.20021 0.44502 0.0
C353 C 0.8041 0.19796 0.44453 0.0
C354 C 0.80718 0.16108 0.42553 0.0
C355 C 0.84609 0.16274 0.42561 0.0
H356 H 0.78832 0.21539 0.4511 0.0
H357 H 0.7931 0.14891 0.41729 0.0
H358 H 0.7168 0.26882 0.44214 0.0
H359 H 0.78596 0.29786 0.41068 0.0
H360 H 0.67188 0.06197 0.44376 0.0
H361 H 0.85578 0.21779 0.45231 0.0
H362 H 0.8617 0.14998 0.41778 0.0
C363 C 0.50712 0.94492 0.18568 0.0
C364 C 0.46936 0.93761 0.18532 0.0
N365 N 0.45068 0.97013 0.18352 0.0
N366 N 0.51296 0.98192 0.184 0.0
C367 C 0.47796 0.99651 0.1826 0.0
H368 H 0.52898 0.92448 0.18736 0.0
Co369 Co 0.56087 0.00508 0.18501 0.0
C370 C 0.59402 0.97589 0.20964 0.0
O371 O 0.6286 0.97602 0.20532 0.0
N372 N 0.60964 0.02847 0.1862 0.0
C373 C 0.6557 0.06745 0.19205 0.0
C374 C 0.6182 0.0596 0.19312 0.0
C375 C 0.64337 0.01765 0.18121 0.0
N376 N 0.67165 0.04099 0.18465 0.0
O377 O 0.58232 0.96298 0.17618 0.0
H378 H 0.59887 0.07555 0.19898 0.0
H379 H 0.64744 0.99289 0.17534 0.0
O380 O 0.56698 0.98369 0.20206 0.0
C381 C 0.57639 0.97147 0.16435 0.0
O382 O 0.56065 0.00402 0.16185 0.0
N383 N 0.53831 0.04714 0.19207 0.0
C384 C 0.49746 0.11086 0.19797 0.0
C385 C 0.50227 0.08282 0.20727 0.0
C386 C 0.52253 0.05064 0.20406 0.0
C387 C 0.53464 0.07469 0.18308 0.0
C388 C 0.51434 0.10687 0.18583 0.0
H389 H 0.52414 0.0283 0.21103 0.0
H390 H 0.54688 0.07107 0.17359 0.0
H391 H 0.4725 0.02612 0.18141 0.0
H392 H 0.45688 0.9102 0.18645 0.0
H393 H 0.67045 0.09025 0.19672 0.0
H394 H 0.48932 0.08512 0.21671 0.0
H395 H 0.51151 0.12831 0.17847 0.0
C396 C 0.75404 0.25059 0.59915 0.0
C397 C 0.75438 0.28862 0.60119 0.0
N398 N 0.76284 0.30582 0.58996 0.0
N399 N 0.76224 0.24334 0.58669 0.0
C400 C 0.76803 0.27762 0.58132 0.0
H401 H 0.74691 0.22945 0.60622 0.0
Co402 Co 0.75888 0.19409 0.58029 0.0
C403 C 0.75083 0.20129 0.55232 0.0
O404 O 0.72262 0.1779 0.55355 0.0
N405 N 0.75656 0.14277 0.57431 0.0
C406 C 0.77382 0.09083 0.56373 0.0
C407 C 0.77867 0.12889 0.5648 0.0
C408 C 0.74021 0.11152 0.57937 0.0
N409 N 0.74976 0.07979 0.57294 0.0
O410 O 0.81036 0.18657 0.58441 0.0
H411 H 0.79868 0.1451 0.55931 0.0
H412 H 0.72328 0.11133 0.58801 0.0
O413 O 0.7701 0.211 0.56228 0.0
C414 C 0.8092 0.1698 0.59529 0.0
O415 O 0.77642 0.16111 0.60023 0.0
N416 N 0.70748 0.20207 0.57795 0.0
C417 C 0.63179 0.21969 0.57877 0.0
C418 C 0.65611 0.24027 0.57094 0.0
C419 C 0.69398 0.23171 0.57095 0.0
C420 C 0.68436 0.1831 0.58613 0.0
C421 C 0.64615 0.19096 0.58653 0.0
H422 H 0.71247 0.24988 0.5656 0.0
H423 H 0.6958 0.16353 0.593 0.0
H424 H 0.77384 0.28194 0.57116 0.0
H425 H 0.74824 0.30255 0.61024 0.0
H426 H 0.78874 0.07234 0.55721 0.0
H427 H 0.64623 0.26389 0.5653 0.0
H428 H 0.62824 0.17539 0.59306 0.0
C429 C 0.50999 0.95806 0.33932 0.0
C430 C 0.47263 0.95955 0.34225 0.0
N431 N 0.45881 0.99245 0.33803 0.0
N432 N 0.52031 0.98939 0.33292 0.0
C433 C 0.48862 0.01054 0.33275 0.0
H434 H 0.5285 0.935 0.34161 0.0
Co435 Co 0.57081 0.9954 0.32718 0.0
C436 C 0.53093 0.02645 0.30241 0.0
O437 O 0.496 0.02858 0.30625 0.0
N438 N 0.62125 0.99995 0.32182 0.0
C439 C 0.67103 0.99426 0.30903 0.0
C440 C 0.6328 0.99249 0.30966 0.0
C441 C 0.6535 0.00534 0.32853 0.0
N442 N 0.68432 0.00226 0.32088 0.0
O443 O 0.57255 0.04423 0.33487 0.0
H444 H 0.61476 0.98363 0.30186 0.0
H445 H 0.65439 0.01025 0.33885 0.0
O446 O 0.55633 0.01525 0.31021 0.0
C447 C 0.57337 0.04043 0.34712 0.0
O448 O 0.57368 0.00641 0.352 0.0
N449 N 0.56983 0.94686 0.32054 0.0
C450 C 0.56232 0.87098 0.31537 0.0
C451 C 0.54016 0.89726 0.30885 0.0
C452 C 0.54409 0.93515 0.31166 0.0
C453 C 0.59303 0.92188 0.32647 0.0
C454 C 0.5898 0.88363 0.32401 0.0
H455 H 0.52432 0.95442 0.30747 0.0
H456 H 0.61261 0.93154 0.33372 0.0
H457 H 0.48747 0.03889 0.32908 0.0
H458 H 0.45667 0.93732 0.34675 0.0
H459 H 0.68788 0.9878 0.30061 0.0
H460 H 0.51794 0.88851 0.30239 0.0
H461 H 0.60734 0.86405 0.32925 0.0
C462 C 0.73642 0.75198 0.10058 0.0
C463 C 0.73262 0.71373 0.10163 0.0
N464 N 0.72772 0.69933 0.08972 0.0
N465 N 0.73372 0.76217 0.08806 0.0
C466 C 0.72779 0.72937 0.08168 0.0
H467 H 0.74324 0.7708 0.10843 0.0
Co468 Co 0.74382 0.81145 0.08179 0.0
C469 C 0.7655 0.78274 0.0551 0.0
O470 O 0.80124 0.78319 0.05794 0.0
N471 N 0.75317 0.86142 0.07529 0.0
C472 C 0.77643 0.90815 0.06339 0.0
C473 C 0.77491 0.87008 0.06501 0.0
C474 C 0.74215 0.89558 0.07985 0.0
N475 N 0.75587 0.92445 0.07271 0.0
O476 O 0.69146 0.82218 0.08243 0.0
H477 H 0.79044 0.8505 0.05924 0.0
H478 H 0.72484 0.89939 0.08832 0.0
O479 O 0.74101 0.7934 0.06346 0.0
C480 C 0.68956 0.83213 0.09431 0.0
O481 O 0.72068 0.83466 0.10103 0.0
N482 N 0.79552 0.80249 0.08375 0.0
C483 C 0.86926 0.79263 0.09158 0.0
C484 C 0.84939 0.76284 0.08612 0.0
C485 C 0.81229 0.76812 0.08252 0.0
C486 C 0.81401 0.83074 0.08999 0.0
C487 C 0.85118 0.82678 0.09366 0.0
H488 H 0.79765 0.74467 0.07834 0.0
H489 H 0.79978 0.85635 0.09259 0.0
H490 H 0.72607 0.72717 0.07128 0.0
H491 H 0.73607 0.69753 0.1104 0.0
H492 H 0.79288 0.92275 0.05619 0.0
H493 H 0.8626 0.73592 0.08441 0.0
H494 H 0.86548 0.84998 0.09827 0.0
C495 C 0.01265 0.01072 0.84878 0.0
C496 C 0.05078 0.01454 0.84937 0.0
N497 N 0.06589 0.99962 0.83859 0.0
N498 N 0.00301 0.99322 0.83773 0.0
C499 C 0.03622 0.9865 0.83169 0.0
H500 H 0.99295 0.02114 0.85587 0.0
Co501 Co 0.95173 0.98707 0.83357 0.0
C502 C 0.94587 0.98995 0.80554 0.0
O503 O 0.91625 0.01096 0.80768 0.0
N504 N 0.89923 0.98008 0.82989 0.0
C505 C 0.8484 0.95081 0.82235 0.0
C506 C 0.88658 0.94888 0.82388 0.0
C507 C 0.86742 1.00023 0.83215 0.0
N508 N 0.83622 0.98319 0.82754 0.0
O509 O 0.95435 0.93568 0.83879 0.0
H510 H 0.90423 0.92608 0.82062 0.0
H511 H 0.86663 0.02713 0.83686 0.0
O512 O 0.96394 0.97586 0.81514 0.0
C513 C 0.94814 0.93754 0.85092 0.0
O514 O 0.94126 0.97053 0.85606 0.0
N515 N 0.94999 0.03833 0.83012 0.0
C516 C 0.95829 0.11578 0.83003 0.0
C517 C 0.97777 0.09354 0.82113 0.0
C518 C 0.97388 0.05491 0.82152 0.0
C519 C 0.93209 0.05942 0.83919 0.0
C520 C 0.93482 0.09834 0.83907 0.0
H521 H 0.99236 0.03842 0.81553 0.0
H522 H 0.91757 0.04588 0.84707 0.0
H523 H 0.03849 0.97363 0.82225 0.0
H524 H 0.06616 0.02758 0.85717 0.0
H525 H 0.83092 0.92964 0.81791 0.0
H526 H 0.99798 0.10552 0.8145 0.0
H527 H 0.92008 0.11439 0.84636 0.0
C528 C 0.74138 0.75391 0.60482 0.0
C529 C 0.73533 0.79166 0.60628 0.0
N530 N 0.72982 0.80715 0.59453 0.0
N531 N 0.73942 0.74478 0.59221 0.0
C532 C 0.7314 0.77772 0.58618 0.0
H533 H 0.74893 0.73474 0.61248 0.0
Co534 Co 0.75302 0.69647 0.58595 0.0
C535 C 0.76867 0.72527 0.55874 0.0
O536 O 0.80451 0.72945 0.56095 0.0
N537 N 0.76605 0.6472 0.57955 0.0
C538 C 0.7927 0.60229 0.56766 0.0
C539 C 0.78826 0.64015 0.56926 0.0
C540 C 0.75765 0.61233 0.58411 0.0
N541 N 0.77367 0.58442 0.57705 0.0
O542 O 0.70166 0.68179 0.58719 0.0
H543 H 0.80187 0.66091 0.56339 0.0
H544 H 0.74108 0.6074 0.59267 0.0
O545 O 0.74663 0.71285 0.56759 0.0
C546 C 0.70052 0.67048 0.59891 0.0
O547 O 0.73185 0.66897 0.60555 0.0
N548 N 0.80408 0.70998 0.58712 0.0
C549 C 0.87762 0.72761 0.5937 0.0
C550 C 0.85426 0.75461 0.58813 0.0
C551 C 0.8174 0.74556 0.58526 0.0
C552 C 0.82599 0.6842 0.59332 0.0
C553 C 0.86304 0.69212 0.59644 0.0
H554 H 0.80021 0.76714 0.58106 0.0
H555 H 0.81457 0.65754 0.59629 0.0
H556 H 0.73009 0.78053 0.57579 0.0
H557 H 0.73655 0.8065 0.61538 0.0
H558 H 0.80905 0.58917 0.56011 0.0
H559 H 0.86443 0.78242 0.58582 0.0
H560 H 0.87985 0.67092 0.60119 0.0
C561 C 0.50203 0.51268 0.84865 0.0
C562 C 0.46398 0.51713 0.84906 0.0
N563 N 0.44928 0.50357 0.83802 0.0
N564 N 0.51198 0.49616 0.83745 0.0
C565 C 0.47907 0.49067 0.83113 0.0
H566 H 0.52145 0.52166 0.85604 0.0
Co567 Co 0.56316 0.48835 0.83375 0.0
C568 C 0.57286 0.49632 0.8059 0.0
O569 O 0.60288 0.51547 0.8091 0.0
N570 N 0.61543 0.47953 0.83056 0.0
C571 C 0.66565 0.44964 0.82283 0.0
C572 C 0.62739 0.44872 0.82413 0.0
C573 C 0.64762 0.49836 0.8333 0.0
N574 N 0.67846 0.48093 0.82857 0.0
O575 O 0.55776 0.43625 0.83781 0.0
H576 H 0.60921 0.4271 0.82035 0.0
H577 H 0.64888 0.52477 0.83834 0.0
O578 O 0.55272 0.48132 0.81486 0.0
C579 C 0.56297 0.43636 0.85003 0.0
O580 O 0.57047 0.46835 0.85575 0.0
N581 N 0.56764 0.53999 0.83163 0.0
C582 C 0.5621 0.61697 0.83404 0.0
C583 C 0.54412 0.5987 0.82388 0.0
C584 C 0.54634 0.55994 0.82304 0.0
C585 C 0.58431 0.55762 0.8418 0.0
C586 C 0.58245 0.5964 0.84309 0.0
H587 H 0.52865 0.54605 0.81608 0.0
H588 H 0.59695 0.54124 0.84943 0.0
H589 H 0.4771 0.47851 0.82157 0.0
H590 H 0.44835 0.52939 0.85697 0.0
H591 H 0.68275 0.42865 0.81809 0.0
H592 H 0.52662 0.61405 0.81714 0.0
H593 H 0.59514 0.60996 0.85137 0.0
C594 C 0.74134 0.25798 0.09518 0.0
C595 C 0.7382 0.22001 0.09705 0.0
N596 N 0.75588 0.20225 0.08731 0.0
N597 N 0.7612 0.26475 0.08435 0.0
C598 C 0.76957 0.23008 0.0797 0.0
H599 H 0.72865 0.27941 0.10115 0.0
Co600 Co 0.76819 0.31413 0.07804 0.0
C601 C 0.8011 0.27983 0.05191 0.0
O602 O 0.83256 0.26145 0.05372 0.0
N603 N 0.77461 0.36415 0.07197 0.0
C604 C 0.78857 0.41367 0.05979 0.0
C605 C 0.78992 0.37532 0.06068 0.0
C606 C 0.76493 0.39679 0.0779 0.0
N607 N 0.77283 0.42752 0.07063 0.0
O608 O 0.81767 0.31496 0.08505 0.0
H609 H 0.80161 0.35714 0.05339 0.0
H610 H 0.75268 0.39794 0.08745 0.0
O611 O 0.78468 0.29502 0.06152 0.0
C612 C 0.81251 0.32417 0.09683 0.0
O613 O 0.77836 0.33211 0.10069 0.0
N614 N 0.71909 0.3139 0.07251 0.0
C615 C 0.64264 0.30123 0.07164 0.0
C616 C 0.66663 0.28277 0.06301 0.0
C617 C 0.70498 0.28889 0.06379 0.0
C618 C 0.69594 0.33384 0.08038 0.0
C619 C 0.65748 0.32814 0.08006 0.0
H620 H 0.72309 0.27093 0.05821 0.0
H621 H 0.70755 0.35146 0.08785 0.0
H622 H 0.78482 0.22523 0.07084 0.0
H623 H 0.72266 0.20659 0.10475 0.0
H624 H 0.79814 0.42984 0.05159 0.0
H625 H 0.65616 0.26178 0.05636 0.0
H626 H 0.64008 0.34227 0.08713 0.0
C627 C 0.99469 0.47262 0.34561 0.0
C628 C 0.03298 0.4706 0.34595 0.0
N629 N 0.0469 0.49415 0.33699 0.0
N630 N 0.98392 0.49726 0.33644 0.0
C631 C 0.01649 0.50992 0.33126 0.0
H632 H 0.97578 0.45745 0.35187 0.0
Co633 Co 0.93294 0.50977 0.33405 0.0
C634 C 0.91925 0.51132 0.30622 0.0
O635 O 0.88748 0.49489 0.3092 0.0
N636 N 0.88136 0.52347 0.33214 0.0
C637 C 0.83289 0.55875 0.32591 0.0
C638 C 0.87118 0.55682 0.32696 0.0
C639 C 0.84813 0.50612 0.33451 0.0
N640 N 0.81842 0.52682 0.33065 0.0
O641 O 0.94283 0.5598 0.33976 0.0
H642 H 0.89059 0.57807 0.32368 0.0
H643 H 0.84521 0.47839 0.33852 0.0
O644 O 0.94178 0.52116 0.31534 0.0
C645 C 0.94219 0.55641 0.35205 0.0
O646 O 0.93735 0.52279 0.35697 0.0
N647 N 0.92381 0.45951 0.33022 0.0
C648 C 0.92606 0.38177 0.33033 0.0
C649 C 0.94292 0.40199 0.32031 0.0
C650 C 0.94242 0.44083 0.32062 0.0
C651 C 0.90704 0.44016 0.33999 0.0
C652 C 0.9072 0.40114 0.34012 0.0
H653 H 0.96018 0.45544 0.31386 0.0
H654 H 0.89639 0.45506 0.34832 0.0
H655 H 0.0179 0.53099 0.32375 0.0
H656 H 0.04934 0.45297 0.35233 0.0
H657 H 0.8169 0.58183 0.32194 0.0
H658 H 0.95956 0.38808 0.31297 0.0
H659 H 0.89497 0.38639 0.34825 0.0
C660 C 0.75362 0.2559 0.9204 0.0
C661 C 0.75277 0.21792 0.91828 0.0
N662 N 0.73508 0.20152 0.92829 0.0
N663 N 0.73616 0.26385 0.93163 0.0
C664 C 0.72529 0.23001 0.93628 0.0
H665 H 0.76767 0.2763 0.91439 0.0
Co666 Co 0.735 0.31247 0.93867 0.0
C667 C 0.69191 0.30384 0.96318 0.0
O668 O 0.66889 0.33124 0.96015 0.0
N669 N 0.73511 0.3616 0.94561 0.0
C670 C 0.74657 0.40899 0.95905 0.0
C671 C 0.74606 0.37073 0.95771 0.0
C672 C 0.72994 0.39513 0.93968 0.0
N673 N 0.73658 0.42449 0.9477 0.0
O674 O 0.68583 0.31953 0.93162 0.0
H675 H 0.75489 0.35082 0.96498 0.0
H676 H 0.72249 0.39802 0.92961 0.0
O677 O 0.71623 0.29306 0.95496 0.0
C678 C 0.69151 0.32818 0.91982 0.0
O679 O 0.72607 0.33449 0.91602 0.0
N680 N 0.78369 0.30575 0.94427 0.0
C681 C 0.85896 0.28951 0.94738 0.0
C682 C 0.83184 0.26938 0.95425 0.0
C683 C 0.79421 0.27766 0.95245 0.0
C684 C 0.8097 0.32693 0.93801 0.0
C685 C 0.84774 0.31942 0.93949 0.0
H686 H 0.77378 0.2597 0.95693 0.0
H687 H 0.80073 0.34836 0.93129 0.0
H688 H 0.71147 0.22615 0.9455 0.0
H689 H 0.76599 0.20332 0.91031 0.0
H690 H 0.75562 0.42421 0.96754 0.0
H691 H 0.83952 0.24618 0.96047 0.0
H692 H 0.8679 0.33525 0.93389 0.0
C693 C 0.9982 0.4938 0.16641 0.0
C694 C 0.03591 0.48767 0.16486 0.0
N695 N 0.04999 0.47543 0.17616 0.0
N696 N 0.98812 0.48526 0.17862 0.0
C697 C 0.02033 0.4735 0.1843 0.0
H698 H 0.9798 0.50608 0.15927 0.0
Co699 Co 0.93967 0.49498 0.18536 0.0
C700 C 0.96724 0.50089 0.21307 0.0
O701 O 0.96949 0.53744 0.21237 0.0
N702 N 0.89019 0.50374 0.19211 0.0
C703 C 0.84355 0.52465 0.20454 0.0
C704 C 0.88165 0.52305 0.20296 0.0
C705 C 0.85613 0.49393 0.18727 0.0
N706 N 0.82724 0.50631 0.19467 0.0
O707 O 0.92665 0.44424 0.18129 0.0
H708 H 0.90152 0.53679 0.20917 0.0
H709 H 0.85242 0.47813 0.17846 0.0
O710 O 0.95589 0.48147 0.20334 0.0
C711 C 0.91796 0.44849 0.16937 0.0
O712 O 0.91429 0.4828 0.16488 0.0
N713 N 0.95213 0.54645 0.18689 0.0
C714 C 0.9705 0.62174 0.18347 0.0
C715 C 0.99747 0.59609 0.18765 0.0
C716 C 0.98793 0.55869 0.1891 0.0
C717 C 0.92603 0.57102 0.18222 0.0
C718 C 0.9343 0.60892 0.18078 0.0
H719 H 0.00956 0.53988 0.19232 0.0
H720 H 0.8989 0.56127 0.17908 0.0
H721 H 0.02258 0.46636 0.19444 0.0
H722 H 0.05223 0.49459 0.15637 0.0
H723 H 0.82905 0.53948 0.21218 0.0
H724 H 0.02615 0.6045 0.18945 0.0
H725 H 0.91272 0.62777 0.17732 0.0
C726 C 0.76131 0.74334 0.4173 0.0
C727 C 0.76815 0.78094 0.41585 0.0
N728 N 0.77844 0.79506 0.42738 0.0
N729 N 0.76753 0.73324 0.42968 0.0
C730 C 0.77849 0.76541 0.43558 0.0
H731 H 0.74995 0.72509 0.40995 0.0
Co732 Co 0.75502 0.68495 0.43591 0.0
C733 C 0.74749 0.70446 0.46419 0.0
O734 O 0.71094 0.70242 0.46367 0.0
N735 N 0.74272 0.6352 0.442 0.0
C736 C 0.71503 0.58782 0.45244 0.0
C737 C 0.71618 0.62586 0.45079 0.0
C738 C 0.75677 0.60134 0.43828 0.0
N739 N 0.74046 0.57221 0.44455 0.0
O740 O 0.80554 0.66978 0.43249 0.0
H741 H 0.69638 0.64469 0.45511 0.0
H742 H 0.77823 0.59781 0.43102 0.0
O743 O 0.76778 0.69915 0.45408 0.0
C744 C 0.80394 0.6617 0.42048 0.0
O745 O 0.77078 0.65885 0.41504 0.0
N746 N 0.70486 0.70042 0.43714 0.0
C747 C 0.63137 0.72485 0.4343 0.0
C748 C 0.65812 0.74778 0.44021 0.0
C749 C 0.69469 0.73528 0.44139 0.0
C750 C 0.67963 0.67869 0.43066 0.0
C751 C 0.64242 0.68994 0.42941 0.0
H752 H 0.71458 0.75355 0.44602 0.0
H753 H 0.68848 0.65263 0.42626 0.0
H754 H 0.7836 0.76767 0.44586 0.0
H755 H 0.76283 0.79723 0.40721 0.0
H756 H 0.69532 0.57265 0.45843 0.0
H757 H 0.65111 0.77555 0.4437 0.0
H758 H 0.62268 0.67162 0.42459 0.0
C759 C 0.50718 0.50891 0.66523 0.0
C760 C 0.46977 0.51671 0.66369 0.0
N761 N 0.4554 0.52638 0.67526 0.0
N762 N 0.51678 0.51369 0.67773 0.0
C763 C 0.48469 0.52507 0.68358 0.0
H764 H 0.52565 0.49807 0.65784 0.0
Co765 Co 0.5644 0.5007 0.68443 0.0
C766 C 0.53554 0.48495 0.7115 0.0
O767 O 0.53539 0.44877 0.70934 0.0
N768 N 0.61341 0.48885 0.69111 0.0
C769 C 0.6603 0.4656 0.70297 0.0
C770 C 0.62212 0.46801 0.70162 0.0
C771 C 0.64746 0.49863 0.68627 0.0
N772 N 0.67641 0.48488 0.69329 0.0
O773 O 0.57861 0.55228 0.68279 0.0
H774 H 0.60247 0.45428 0.70788 0.0
H775 H 0.65124 0.51476 0.67755 0.0
O776 O 0.54649 0.50795 0.70268 0.0
C777 C 0.58942 0.55314 0.67101 0.0
O778 O 0.59085 0.52156 0.66448 0.0
N779 N 0.55098 0.44918 0.68378 0.0
C780 C 0.53259 0.37454 0.67959 0.0
C781 C 0.50514 0.39994 0.68342 0.0
C782 C 0.51476 0.43719 0.68533 0.0
C783 C 0.57734 0.42482 0.6791 0.0
C784 C 0.56902 0.38697 0.67733 0.0
H785 H 0.49317 0.4557 0.68879 0.0
H786 H 0.60497 0.43453 0.6765 0.0
H787 H 0.4822 0.52974 0.69388 0.0
H788 H 0.45379 0.51271 0.65491 0.0
H789 H 0.67497 0.45087 0.71059 0.0
H790 H 0.47665 0.39087 0.68525 0.0
H791 H 0.59059 0.36776 0.67408 0.0
C792 C 0.26554 0.25289 0.41544 0.0
C793 C 0.27223 0.21514 0.41486 0.0
N794 N 0.27607 0.20204 0.42698 0.0
N795 N 0.26546 0.26423 0.42787 0.0
C796 C 0.27201 0.23249 0.43474 0.0
H797 H 0.25862 0.27044 0.40728 0.0
Co798 Co 0.25042 0.31318 0.43214 0.0
C799 C 0.24065 0.31553 0.46036 0.0
O800 O 0.20841 0.33189 0.45829 0.0
N801 N 0.23458 0.36443 0.43577 0.0
C802 C 0.19961 0.41527 0.43982 0.0
C803 C 0.19932 0.37734 0.43799 0.0
C804 C 0.25558 0.39635 0.43598 0.0
N805 N 0.23489 0.42738 0.43848 0.0
O806 O 0.3003 0.32976 0.42917 0.0
H807 H 0.17432 0.36057 0.43877 0.0
H808 H 0.28546 0.39716 0.43431 0.0
O809 O 0.26095 0.30466 0.45083 0.0
C810 C 0.30056 0.33816 0.41721 0.0
O811 O 0.26867 0.33886 0.41088 0.0
N812 N 0.2019 0.29529 0.43339 0.0
C813 C 0.12927 0.26851 0.43207 0.0
C814 C 0.15398 0.25507 0.44152 0.0
C815 C 0.1904 0.2685 0.44193 0.0
C816 C 0.1796 0.30559 0.42332 0.0
C817 C 0.14261 0.29355 0.4227 0.0
H818 H 0.2093 0.25693 0.44901 0.0
H819 H 0.19024 0.32462 0.41605 0.0
H820 H 0.27193 0.23138 0.44519 0.0
H821 H 0.27149 0.19822 0.40617 0.0
H822 H 0.17542 0.43282 0.44166 0.0
H823 H 0.14543 0.23401 0.44846 0.0
H824 H 0.12465 0.3042 0.41511 0.0
C825 C 0.49873 0.45733 0.17168 0.0
C826 C 0.53705 0.45541 0.17098 0.0
N827 N 0.55161 0.48118 0.17906 0.0
N828 N 0.4887 0.48422 0.18017 0.0
C829 C 0.52162 0.49826 0.18459 0.0
H830 H 0.47923 0.44042 0.16622 0.0
Co831 Co 0.43828 0.49713 0.18298 0.0
C832 C 0.43041 0.51429 0.21054 0.0
O833 O 0.39767 0.49765 0.20983 0.0
N834 N 0.38671 0.5111 0.18525 0.0
C835 C 0.33774 0.54809 0.1897 0.0
C836 C 0.37614 0.54611 0.18878 0.0
C837 C 0.35362 0.49274 0.18371 0.0
N838 N 0.32361 0.51444 0.18648 0.0
O839 O 0.44629 0.54414 0.17449 0.0
H840 H 0.39533 0.56884 0.19078 0.0
H841 H 0.35082 0.46396 0.18077 0.0
O842 O 0.45084 0.5173 0.20037 0.0
C843 C 0.44248 0.53705 0.16246 0.0
O844 O 0.43641 0.50214 0.15898 0.0
N845 N 0.43069 0.44922 0.18985 0.0
C846 C 0.42482 0.37318 0.19585 0.0
C847 C 0.44682 0.3972 0.20346 0.0
C848 C 0.44975 0.43501 0.2002 0.0
C849 C 0.41132 0.42586 0.18192 0.0
C850 C 0.40638 0.38832 0.18506 0.0
H851 H 0.46934 0.45206 0.20549 0.0
H852 H 0.40067 0.4362 0.17281 0.0
H853 H 0.52356 0.52112 0.19144 0.0
H854 H 0.55301 0.43626 0.165 0.0
H855 H 0.32148 0.57256 0.19233 0.0
H856 H 0.46347 0.38667 0.21141 0.0
H857 H 0.38935 0.37121 0.17873 0.0
C858 C 0.23965 0.74651 0.91329 0.0
C859 C 0.23205 0.78405 0.91181 0.0
N860 N 0.22044 0.79781 0.92326 0.0
N861 N 0.23281 0.73636 0.92562 0.0
C862 C 0.22049 0.76816 0.93142 0.0
H863 H 0.25139 0.72821 0.90601 0.0
Co864 Co 0.24358 0.68844 0.93243 0.0
C865 C 0.25719 0.71797 0.95952 0.0
O866 O 0.29346 0.71919 0.95775 0.0
N867 N 0.2531 0.63947 0.93934 0.0
C868 C 0.27458 0.59308 0.95176 0.0
C869 C 0.27312 0.63115 0.95005 0.0
C870 C 0.24286 0.60535 0.93468 0.0
N871 N 0.25556 0.57666 0.94209 0.0
O872 O 0.1918 0.67635 0.93024 0.0
H873 H 0.28747 0.65103 0.95608 0.0
H874 H 0.2266 0.60143 0.92599 0.0
O875 O 0.23516 0.70635 0.95054 0.0
C876 C 0.19141 0.66655 0.91835 0.0
O877 O 0.22353 0.66258 0.91229 0.0
N878 N 0.29558 0.70007 0.93231 0.0
C879 C 0.37087 0.71615 0.92833 0.0
C880 C 0.34608 0.74455 0.93183 0.0
C881 C 0.30855 0.73606 0.93365 0.0
C882 C 0.31942 0.67271 0.92799 0.0
C883 C 0.35752 0.67986 0.92637 0.0
H884 H 0.29044 0.75848 0.93674 0.0
H885 H 0.3091 0.64522 0.92549 0.0
H886 H 0.21385 0.7701 0.9416 0.0
H887 H 0.23727 0.80047 0.9032 0.0
H888 H 0.28987 0.57863 0.9593 0.0
H889 H 0.3558 0.77296 0.93343 0.0
H890 H 0.37618 0.65754 0.92334 0.0
C891 C 0.00367 0.5378 0.66969 0.0
C892 C 0.96542 0.54035 0.66971 0.0
N893 N 0.9519 0.51887 0.67936 0.0
N894 N 0.01488 0.5148 0.67927 0.0
C895 C 0.98262 0.50338 0.685 0.0
H896 H 0.02229 0.55167 0.66298 0.0
Co897 Co 0.06606 0.50419 0.6818 0.0
C898 C 0.07911 0.50284 0.70966 0.0
O899 O 0.11027 0.52053 0.70678 0.0
N900 N 0.11808 0.49243 0.68381 0.0
C901 C 0.16775 0.45843 0.68971 0.0
C902 C 0.12941 0.45919 0.68877 0.0
C903 C 0.15068 0.51106 0.68155 0.0
N904 N 0.18119 0.49111 0.6852 0.0
O905 O 0.05788 0.4538 0.67605 0.0
H906 H 0.11077 0.43706 0.69188 0.0
H907 H 0.1525 0.53908 0.67771 0.0
O908 O 0.05732 0.49205 0.70046 0.0
C909 C 0.05927 0.45684 0.66376 0.0
O910 O 0.06507 0.4902 0.65876 0.0
N911 N 0.07306 0.5549 0.68575 0.0
C912 C 0.0679 0.63267 0.68616 0.0
C913 C 0.05142 0.6112 0.69594 0.0
C914 C 0.05336 0.57241 0.69536 0.0
C915 C 0.08914 0.57544 0.67612 0.0
C916 C 0.08744 0.6145 0.67624 0.0
H917 H 0.03599 0.55679 0.70197 0.0
H918 H 0.10072 0.5614 0.66776 0.0
H919 H 0.98173 0.48432 0.69313 0.0
H920 H 0.94885 0.55626 0.66288 0.0
H921 H 0.18445 0.43547 0.69341 0.0
H922 H 0.03426 0.62408 0.70336 0.0
H923 H 0.09943 0.63017 0.66828 0.0
C924 C 0.26952 0.75639 0.10053 0.0
C925 C 0.27509 0.79425 0.1018 0.0
N926 N 0.28475 0.80846 0.09021 0.0
N927 N 0.27576 0.74596 0.08819 0.0
C928 C 0.28581 0.77835 0.08214 0.0
H929 H 0.25846 0.73821 0.10797 0.0
Co930 Co 0.26222 0.69724 0.08212 0.0
C931 C 0.24986 0.72271 0.05441 0.0
O932 O 0.21355 0.72511 0.05596 0.0
N933 N 0.24919 0.64757 0.07618 0.0
C934 C 0.22338 0.60117 0.06479 0.0
C935 C 0.22863 0.63908 0.06562 0.0
C936 C 0.25584 0.61344 0.08167 0.0
N937 N 0.24017 0.58469 0.07494 0.0
O938 O 0.31321 0.68161 0.08427 0.0
H939 H 0.21652 0.6588 0.05902 0.0
H940 H 0.27081 0.60978 0.09066 0.0
O941 O 0.2713 0.71211 0.06371 0.0
C942 C 0.3142 0.67334 0.09628 0.0
O943 O 0.28272 0.67373 0.10287 0.0
N944 N 0.2114 0.71209 0.08214 0.0
C945 C 0.13813 0.73445 0.0873 0.0
C946 C 0.16385 0.75965 0.08201 0.0
C947 C 0.2002 0.74807 0.0796 0.0
C948 C 0.18707 0.68783 0.08795 0.0
C949 C 0.15004 0.69806 0.0903 0.0
H950 H 0.2189 0.76816 0.07533 0.0
H951 H 0.1964 0.66063 0.09121 0.0
H952 H 0.29053 0.78034 0.07184 0.0
H953 H 0.26919 0.81049 0.11041 0.0
H954 H 0.20796 0.58703 0.05722 0.0
H955 H 0.15628 0.78842 0.0799 0.0
H956 H 0.13117 0.67772 0.09453 0.0
C957 C 0.00394 0.50996 0.85004 0.0
C958 C 0.96619 0.51517 0.85188 0.0
N959 N 0.95093 0.52661 0.84065 0.0
N960 N 0.01291 0.51823 0.8377 0.0
C961 C 0.97999 0.52894 0.83225 0.0
H962 H 0.02324 0.49859 0.85707 0.0
Co963 Co 0.06115 0.50972 0.83055 0.0
C964 C 0.02984 0.49938 0.8034 0.0
O965 O 0.02791 0.46299 0.80483 0.0
N966 N 0.11035 0.50234 0.82334 0.0
C967 C 0.15634 0.48267 0.81039 0.0
C968 C 0.11832 0.48568 0.81192 0.0
C969 C 0.14471 0.50931 0.82853 0.0
N970 N 0.17317 0.49725 0.82087 0.0
O971 O 0.07217 0.56147 0.83362 0.0
H972 H 0.09814 0.4746 0.80523 0.0
H973 H 0.14889 0.52151 0.83798 0.0
O974 O 0.04239 0.52019 0.8126 0.0
C975 C 0.0824 0.55952 0.84545 0.0
O976 O 0.08731 0.5262 0.85062 0.0
N977 N 0.05111 0.45735 0.8299 0.0
C978 C 0.03767 0.38138 0.83345 0.0
C979 C 0.00833 0.40542 0.83033 0.0
C980 C 0.0155 0.4433 0.82876 0.0
C981 C 0.07946 0.43403 0.83377 0.0
C982 C 0.07361 0.39565 0.83518 0.0
H983 H 0.99226 0.46083 0.82607 0.0
H984 H 0.10669 0.44493 0.83624 0.0
H985 H 0.97689 0.53584 0.82212 0.0
H986 H 0.95074 0.50829 0.86057 0.0
H987 H 0.17041 0.47017 0.80218 0.0
H988 H 0.98012 0.3949 0.82897 0.0
H989 H 0.09661 0.37751 0.83795 0.0
C990 C 0.23282 0.25131 0.60064 0.0
C991 C 0.22851 0.21319 0.60184 0.0
N992 N 0.21817 0.19912 0.5903 0.0
N993 N 0.2251 0.26171 0.58839 0.0
C994 C 0.21549 0.22926 0.58237 0.0
H995 H 0.24345 0.26989 0.60803 0.0
Co996 Co 0.23383 0.31073 0.58191 0.0
C997 C 0.24496 0.28221 0.55438 0.0
O998 O 0.28143 0.2813 0.55554 0.0
N999 N 0.24163 0.36061 0.57534 0.0
C1000 C 0.26023 0.40753 0.5626 0.0
C1001 C 0.25889 0.36941 0.56411 0.0
C1002 C 0.23321 0.39464 0.58058 0.0
N1003 N 0.24413 0.42362 0.57295 0.0
O1004 O 0.18196 0.32172 0.58464 0.0
H1005 H 0.27141 0.3498 0.55751 0.0
H1006 H 0.21968 0.39823 0.58985 0.0
O1007 O 0.22417 0.29371 0.56374 0.0
C1008 C 0.18203 0.33047 0.59662 0.0
O1009 O 0.21439 0.33378 0.60257 0.0
N1010 N 0.28594 0.30062 0.58142 0.0
C1011 C 0.36257 0.28856 0.58315 0.0
C1012 C 0.33878 0.25942 0.57955 0.0
C1013 C 0.30049 0.26567 0.57915 0.0
C1014 C 0.30878 0.32817 0.58615 0.0
C1015 C 0.34741 0.32295 0.58689 0.0
H1016 H 0.2831 0.24272 0.57609 0.0
H1017 H 0.29726 0.35438 0.58955 0.0
H1018 H 0.20938 0.22733 0.57215 0.0
H1019 H 0.23543 0.19678 0.61031 0.0
H1020 H 0.27356 0.42231 0.5547 0.0
H1021 H 0.34973 0.23206 0.57697 0.0
H1022 H 0.36521 0.34564 0.59016 0.0
C1023 C 0.4876 0.52119 0.34369 0.0
C1024 C 0.5254 0.52137 0.3462 0.0
N1025 N 0.5427 0.50095 0.33703 0.0
N1026 N 0.48079 0.50031 0.33307 0.0
C1027 C 0.51511 0.48849 0.32918 0.0
H1028 H 0.4665 0.53629 0.34908 0.0
Co1029 Co 0.43249 0.49377 0.32609 0.0
C1030 C 0.46716 0.44988 0.30176 0.0
O1031 O 0.48343 0.41733 0.30373 0.0
N1032 N 0.38331 0.48741 0.31945 0.0
C1033 C 0.33389 0.47202 0.30741 0.0
C1034 C 0.37222 0.47019 0.30847 0.0
C1035 C 0.35075 0.49842 0.32509 0.0
N1036 N 0.32029 0.48981 0.31788 0.0
O1037 O 0.42753 0.44847 0.33562 0.0
H1038 H 0.39034 0.45622 0.30167 0.0
H1039 H 0.34938 0.51268 0.33431 0.0
O1040 O 0.45335 0.46742 0.31141 0.0
C1041 C 0.41725 0.45814 0.34693 0.0
O1042 O 0.40909 0.49353 0.34907 0.0
N1043 N 0.43729 0.53962 0.3178 0.0
C1044 C 0.45438 0.6139 0.31252 0.0
C1045 C 0.47537 0.58497 0.30693 0.0
C1046 C 0.46677 0.54792 0.30989 0.0
C1047 C 0.41542 0.56741 0.32277 0.0
C1048 C 0.42328 0.60486 0.32016 0.0
H1049 H 0.4858 0.52636 0.30668 0.0
H1050 H 0.39379 0.56081 0.32969 0.0
H1051 H 0.52007 0.47159 0.32068 0.0
H1052 H 0.53928 0.53669 0.35386 0.0
H1053 H 0.31723 0.46009 0.2997 0.0
H1054 H 0.50023 0.59092 0.30128 0.0
H1055 H 0.4067 0.62657 0.32476 0.0
H1056 H 0.17469 0.10404 0.10107 0.0
H1057 H 0.04098 0.11926 0.15682 0.0
H1058 H 0.15461 0.22141 0.108 0.0
H1059 H 0.15668 0.0923 0.16402 0.0
H1060 H 0.05978 0.15161 0.13678 0.0
H1061 H 0.14126 0.08911 0.12112 0.0
C1062 C 0.1613 0.12648 0.10643 0.0
C1063 C 0.16648 0.16388 0.10276 0.0
C1064 C 0.08105 0.14004 0.14309 0.0
C1065 C 0.12973 0.14718 0.12581 0.0
C1066 C 0.07051 0.12226 0.15462 0.0
C1067 C 0.0975 0.10385 0.16219 0.0
C1068 C 0.11858 0.13856 0.13917 0.0
C1069 C 0.13519 0.10685 0.15859 0.0
C1070 C 0.1429 0.11803 0.11794 0.0
C1071 C 0.15013 0.19217 0.11037 0.0
N1072 N 0.14455 0.12289 0.14714 0.0
N1073 N 0.1329 0.18333 0.12174 0.0
H1074 H 0.1309 0.88678 0.34354 0.0
H1075 H 0.1772 0.7784 0.39538 0.0
H1076 H 0.04718 0.93804 0.3678 0.0
H1077 H 0.12732 0.86897 0.41686 0.0
H1078 H 0.14072 0.79655 0.37639 0.0
H1079 H 0.14316 0.84079 0.3606 0.0
C1080 C 0.11396 0.88718 0.35224 0.0
C1081 C 0.0882 0.91607 0.35436 0.0
C1082 C 0.13707 0.81208 0.38529 0.0
C1083 C 0.10192 0.86409 0.37397 0.0
C1084 C 0.15719 0.80116 0.39622 0.0
C1085 C 0.15496 0.82219 0.40764 0.0
C1086 C 0.11523 0.84478 0.3858 0.0
C1087 C 0.12937 0.85182 0.40824 0.0
C1088 C 0.1209 0.86096 0.36204 0.0
C1089 C 0.0675 0.91614 0.36589 0.0
N1090 N 0.11097 0.86273 0.39736 0.0
N1091 N 0.07533 0.89109 0.37537 0.0
H1092 H 0.33975 0.77369 0.61603 0.0
H1093 H 0.40569 0.86779 0.66856 0.0
H1094 H 0.38461 0.86778 0.5951 0.0
H1095 H 0.4775 0.92811 0.64236 0.0
H1096 H 0.38859 0.82542 0.65098 0.0
H1097 H 0.38234 0.78713 0.63392 0.0
C1098 C 0.35977 0.79635 0.61504 0.0
C1099 C 0.35901 0.8196 0.60412 0.0
C1100 C 0.40942 0.84674 0.64912 0.0
C1101 C 0.40582 0.83694 0.62486 0.0
C1102 C 0.41927 0.87086 0.65925 0.0
C1103 C 0.44281 0.9014 0.65683 0.0
C1104 C 0.4233 0.85355 0.63655 0.0
C1105 C 0.459 0.90488 0.64454 0.0
C1106 C 0.38349 0.80457 0.62538 0.0
C1107 C 0.3848 0.84897 0.60332 0.0
N1108 N 0.44834 0.88181 0.63479 0.0
N1109 N 0.40672 0.85726 0.61368 0.0
H1110 H 0.37635 0.11621 0.83993 0.0
H1111 H 0.36228 0.16393 0.91483 0.0
H1112 H 0.45917 0.08404 0.8681 0.0
H1113 H 0.28215 0.20041 0.88628 0.0
H1114 H 0.40514 0.14605 0.89729 0.0
H1115 H 0.34864 0.15911 0.8559 0.0
C1116 C 0.38953 0.11938 0.8493 0.0
C1117 C 0.41992 0.09675 0.85277 0.0
C1118 C 0.37847 0.1587 0.89487 0.0
C1119 C 0.38799 0.14441 0.87117 0.0
C1120 C 0.35416 0.16909 0.9049 0.0
C1121 C 0.3185 0.18311 0.90197 0.0
C1122 C 0.36682 0.16233 0.8819 0.0
C1123 C 0.30922 0.18906 0.88894 0.0
C1124 C 0.37354 0.14345 0.85848 0.0
C1125 C 0.43557 0.10109 0.86512 0.0
N1126 N 0.33292 0.17814 0.8794 0.0
N1127 N 0.41911 0.12392 0.87395 0.0
H1128 H 0.91255 0.87074 0.84625 0.0
H1129 H 0.83334 0.77331 0.89615 0.0
H1130 H 0.97473 0.93137 0.87514 0.0
H1131 H 0.8772 0.86215 0.91988 0.0
H1132 H 0.87795 0.78953 0.8792 0.0
H1133 H 0.89111 0.82734 0.86291 0.0
C1134 C 0.92302 0.87378 0.85602 0.0
C1135 C 0.9452 0.90458 0.85939 0.0
C1136 C 0.87835 0.8054 0.8881 0.0
C1137 C 0.92071 0.85545 0.87867 0.0
C1138 C 0.85338 0.79555 0.8979 0.0
C1139 C 0.85185 0.81642 0.90937 0.0
C1140 C 0.90112 0.83719 0.88967 0.0
C1141 C 0.87789 0.84517 0.9112 0.0
C1142 C 0.91066 0.84906 0.86564 0.0
C1143 C 0.95737 0.90796 0.87222 0.0
N1144 N 0.90101 0.85521 0.90133 0.0
N1145 N 0.94444 0.88418 0.88142 0.0
H1146 H 0.86472 0.11999 0.66799 0.0
H1147 H 0.85633 0.22056 0.60639 0.0
H1148 H 0.9688 0.08729 0.65021 0.0
H1149 H 0.83292 0.10239 0.60341 0.0
H1150 H 0.89423 0.20795 0.62592 0.0
H1151 H 0.84822 0.15465 0.64824 0.0
C1152 C 0.88506 0.12213 0.66025 0.0
C1153 C 0.91851 0.10169 0.66076 0.0
C1154 C 0.88184 0.18485 0.62064 0.0
C1155 C 0.89939 0.13969 0.63821 0.0
C1156 C 0.86083 0.19186 0.60946 0.0
C1157 C 0.84231 0.16228 0.60322 0.0
C1158 C 0.88425 0.1481 0.62536 0.0
C1159 C 0.84751 0.12573 0.60783 0.0
C1160 C 0.87553 0.14152 0.64898 0.0
C1161 C 0.94315 0.10354 0.65021 0.0
N1162 N 0.86771 0.11967 0.61873 0.0
N1163 N 0.9326 0.12126 0.63916 0.0
H1164 H 0.53859 0.04661 0.3702 0.0
H1165 H 0.62392 0.14529 0.41889 0.0
H1166 H 0.61287 0.10616 0.34461 0.0
H1167 H 0.67791 0.2089 0.3888 0.0
H1168 H 0.58307 0.11712 0.4028 0.0
H1169 H 0.55161 0.0918 0.38715 0.0
C1170 C 0.55745 0.06967 0.36816 0.0
C1171 C 0.57517 0.07243 0.3561 0.0
C1172 C 0.60282 0.13808 0.3996 0.0
C1173 C 0.592 0.12364 0.37573 0.0
C1174 C 0.62598 0.15451 0.40894 0.0
C1175 C 0.65437 0.17918 0.40513 0.0
C1176 C 0.60833 0.14647 0.38638 0.0
C1177 C 0.65643 0.18968 0.39208 0.0
C1178 C 0.56529 0.09541 0.37792 0.0
C1179 C 0.59876 0.10303 0.35382 0.0
N1180 N 0.63428 0.17279 0.38317 0.0
N1181 N 0.60707 0.12704 0.36365 0.0
H1182 H 0.56863 0.98719 0.13886 0.0
H1183 H 0.65935 0.79586 0.11446 0.0
H1184 H 0.60478 0.899 0.1646 0.0
H1185 H 0.64603 0.8939 0.09064 0.0
H1186 H 0.6242 0.82682 0.13174 0.0
H1187 H 0.58396 0.94793 0.12047 0.0
C1188 C 0.57975 0.95943 0.14069 0.0
C1189 C 0.58576 0.94654 0.15336 0.0
C1190 C 0.62785 0.84115 0.1226 0.0
C1191 C 0.60321 0.9011 0.13211 0.0
C1192 C 0.64718 0.82322 0.11264 0.0
C1193 C 0.65497 0.84222 0.10107 0.0
C1194 C 0.61643 0.87846 0.12096 0.0
C1195 C 0.63983 0.87804 0.09931 0.0
C1196 C 0.58839 0.93697 0.13012 0.0
C1197 C 0.60002 0.9102 0.15502 0.0
N1198 N 0.62179 0.8953 0.10925 0.0
N1199 N 0.60847 0.88875 0.14449 0.0
H1200 H 0.67604 0.59995 0.60234 0.0
H1201 H 0.54428 0.60578 0.66007 0.0
H1202 H 0.65277 0.71478 0.61242 0.0
H1203 H 0.65958 0.57276 0.66461 0.0
H1204 H 0.56165 0.64061 0.64033 0.0
H1205 H 0.64324 0.57963 0.62192 0.0
C1206 C 0.66199 0.62074 0.60826 0.0
C1207 C 0.66637 0.659 0.60566 0.0
C1208 C 0.5832 0.62689 0.64598 0.0
C1209 C 0.63014 0.63612 0.62818 0.0
C1210 C 0.57353 0.60772 0.65734 0.0
C1211 C 0.60078 0.58714 0.6641 0.0
C1212 C 0.62002 0.62442 0.64136 0.0
C1213 C 0.63795 0.5889 0.65982 0.0
C1214 C 0.64396 0.6092 0.61952 0.0
C1215 C 0.64904 0.68498 0.61396 0.0
N1216 N 0.64635 0.60635 0.64854 0.0
N1217 N 0.63214 0.67313 0.62505 0.0
H1218 H 0.69703 0.30127 0.89561 0.0
H1219 H 0.52552 0.42314 0.8721 0.0
H1220 H 0.61939 0.35594 0.92139 0.0
H1221 H 0.60866 0.37561 0.84676 0.0
H1222 H 0.548 0.38318 0.88962 0.0
H1223 H 0.65468 0.31297 0.8776 0.0
C1224 C 0.67059 0.31522 0.89749 0.0
C1225 C 0.66185 0.32827 0.90993 0.0
C1226 C 0.56059 0.38045 0.88014 0.0
C1227 C 0.61343 0.34235 0.88928 0.0
C1228 C 0.54743 0.40289 0.87009 0.0
C1229 C 0.56523 0.40242 0.858 0.0
C1230 C 0.59223 0.35786 0.87813 0.0
C1231 C 0.59392 0.37638 0.85591 0.0
C1232 C 0.64641 0.32186 0.8872 0.0
C1233 C 0.62714 0.34562 0.91191 0.0
N1234 N 0.60714 0.35568 0.86598 0.0
N1235 N 0.60444 0.3529 0.90161 0.0
H1236 H 0.87907 0.3621 0.09494 0.0
H1237 H 0.88491 0.37864 0.17165 0.0
H1238 H 0.81251 0.29471 0.12074 0.0
H1239 H 0.94651 0.44937 0.14539 0.0
H1240 H 0.87073 0.33625 0.1535 0.0
H1241 H 0.91698 0.3826 0.11344 0.0
C1242 C 0.87349 0.35049 0.10442 0.0
C1243 C 0.84272 0.32693 0.10641 0.0
C1244 C 0.88807 0.36065 0.15179 0.0
C1245 C 0.88485 0.35082 0.1276 0.0
C1246 C 0.8963 0.38459 0.16217 0.0
C1247 C 0.91633 0.41765 0.15992 0.0
C1248 C 0.90004 0.3701 0.13919 0.0
C1249 C 0.93037 0.42436 0.14745 0.0
C1250 C 0.89476 0.36245 0.11502 0.0
C1251 C 0.83601 0.31315 0.1189 0.0
N1252 N 0.92152 0.40117 0.13754 0.0
N1253 N 0.85647 0.32575 0.12906 0.0
H1254 H 0.90353 0.6222 0.34882 0.0
H1255 H 0.87195 0.62644 0.4244 0.0
H1256 H 0.97169 0.56104 0.37597 0.0
H1257 H 0.81006 0.69334 0.39705 0.0
H1258 H 0.91878 0.61351 0.40749 0.0
H1259 H 0.87993 0.66083 0.36665 0.0
C1260 C 0.91476 0.61806 0.35844 0.0
C1261 C 0.93924 0.58831 0.361 0.0
C1262 C 0.89539 0.63177 0.40528 0.0
C1263 C 0.91147 0.63107 0.38148 0.0
C1264 C 0.86887 0.63921 0.41496 0.0
C1265 C 0.83698 0.66033 0.41198 0.0
C1266 C 0.88964 0.64558 0.39265 0.0
C1267 C 0.83402 0.67623 0.39961 0.0
C1268 C 0.90094 0.63971 0.36868 0.0
C1269 C 0.95248 0.5836 0.37367 0.0
N1270 N 0.85963 0.66809 0.39036 0.0
N1271 N 0.9378 0.60413 0.38349 0.0
H1272 H 0.32305 0.29801 0.39669 0.0
H1273 H 0.43497 0.47372 0.37164 0.0
H1274 H 0.35394 0.39224 0.42043 0.0
H1275 H 0.39735 0.38357 0.34711 0.0
H1276 H 0.42204 0.43541 0.3906 0.0
H1277 H 0.36665 0.31922 0.38004 0.0
C1278 C 0.34017 0.32251 0.39855 0.0
C1279 C 0.33503 0.34365 0.40983 0.0
C1280 C 0.41716 0.42362 0.3811 0.0
C1281 C 0.38377 0.36881 0.39072 0.0
C1282 C 0.42442 0.44551 0.37027 0.0
C1283 C 0.41632 0.43195 0.35787 0.0
C1284 C 0.40095 0.38813 0.37952 0.0
C1285 C 0.40355 0.39506 0.35656 0.0
C1286 C 0.36483 0.33474 0.38902 0.0
C1287 C 0.35742 0.3752 0.41185 0.0
N1288 N 0.39543 0.37462 0.36731 0.0
N1289 N 0.38034 0.38736 0.40222 0.0
H1290 H 0.42026 0.61067 0.16523 0.0
H1291 H 0.36803 0.62066 0.09065 0.0
H1292 H 0.45606 0.52951 0.13687 0.0
H1293 H 0.33629 0.70424 0.11866 0.0
H1294 H 0.41224 0.59424 0.10642 0.0
H1295 H 0.401 0.65255 0.14761 0.0
C1296 C 0.42506 0.60216 0.15531 0.0
C1297 C 0.43929 0.56647 0.15248 0.0
C1298 C 0.39638 0.61903 0.109 0.0
C1299 C 0.4168 0.61364 0.13231 0.0
C1300 C 0.37153 0.63429 0.09993 0.0
C1301 C 0.34868 0.66451 0.10342 0.0
C1302 C 0.3979 0.63406 0.12161 0.0
C1303 C 0.3535 0.68075 0.11567 0.0
C1304 C 0.41384 0.6259 0.14524 0.0
C1305 C 0.44464 0.55664 0.13946 0.0
N1306 N 0.3771 0.66501 0.12439 0.0
N1307 N 0.43289 0.57978 0.12988 0.0
H1308 H 0.12579 0.62313 0.84451 0.0
H1309 H 0.17239 0.7169 0.9002 0.0
H1310 H 0.04229 0.56604 0.86721 0.0
H1311 H 0.13707 0.61276 0.91734 0.0
H1312 H 0.13433 0.7031 0.88113 0.0
H1313 H 0.14102 0.66193 0.8634 0.0
C1314 C 0.10943 0.62014 0.85327 0.0
C1315 C 0.0827 0.59166 0.85434 0.0
C1316 C 0.13413 0.68369 0.88917 0.0
C1317 C 0.10031 0.63486 0.87602 0.0
C1318 C 0.15522 0.69186 0.90016 0.0
C1319 C 0.15752 0.66599 0.91036 0.0
C1320 C 0.11546 0.64922 0.88838 0.0
C1321 C 0.1355 0.63364 0.90976 0.0
C1322 C 0.11818 0.64209 0.8641 0.0
C1323 C 0.06307 0.58789 0.86604 0.0
N1324 N 0.1157 0.62589 0.89884 0.0
N1325 N 0.07289 0.60852 0.87651 0.0
H1326 H 0.16816 0.29415 0.6188 0.0
H1327 H 0.02706 0.4539 0.64026 0.0
H1328 H 0.12096 0.37629 0.59299 0.0
H1329 H 0.09364 0.38833 0.66665 0.0
H1330 H 0.04424 0.41141 0.62273 0.0
H1331 H 0.12448 0.31395 0.63565 0.0
C1332 C 0.14755 0.31552 0.61656 0.0
C1333 C 0.14805 0.33377 0.60455 0.0
C1334 C 0.05432 0.40564 0.6324 0.0
C1335 C 0.09877 0.35726 0.62387 0.0
C1336 C 0.04433 0.4297 0.64243 0.0
C1337 C 0.05925 0.42467 0.65486 0.0
C1338 C 0.07979 0.37654 0.63479 0.0
C1339 C 0.08146 0.39302 0.6572 0.0
C1340 C 0.12285 0.32697 0.62621 0.0
C1341 C 0.12115 0.36139 0.60211 0.0
N1342 N 0.09175 0.37051 0.64716 0.0
N1343 N 0.09798 0.37286 0.61181 0.0
H1344 H 0.26174 0.12848 0.98023 0.0
H1345 H 0.27126 0.28046 0.03512 0.0
H1346 H 0.2634 0.2457 0.96991 0.0
H1347 H 0.21867 0.17277 0.04008 0.0
H1348 H 0.2707 0.27115 0.01162 0.0
H1349 H 0.25299 0.1456 1.00275 0.0
C1350 C 0.26096 0.15798 0.98274 0.0
C1351 C 0.26323 0.1857 0.97314 0.0
C1352 C 0.25822 0.2501 0.01782 0.0
C1353 C 0.25254 0.20554 0.99907 0.0
C1354 C 0.25803 0.2556 0.0312 0.0
C1355 C 0.24456 0.22751 0.03951 0.0
C1356 C 0.24581 0.21581 0.01279 0.0
C1357 C 0.22869 0.19538 0.03401 0.0
C1358 C 0.25539 0.16768 0.99561 0.0
C1359 C 0.26216 0.22344 0.97702 0.0
N1360 N 0.23055 0.19002 0.021 0.0
N1361 N 0.25681 0.23234 0.98974 0.0
H1362 H 0.98238 0.99758 0.2907 0.0
H1363 H 0.08347 0.03398 0.22303 0.0
H1364 H 0.10223 0.00188 0.28623 0.0
H1365 H 0.97264 0.98671 0.22545 0.0
H1366 H 0.08784 0.0317 0.24673 0.0
H1367 H 0.97575 0.99797 0.26705 0.0
C1368 C 0.00729 0.9969 0.28471 0.0
C1369 C 0.0429 0.99858 0.29035 0.0
C1370 C 0.06233 0.02241 0.24206 0.0
C1371 C 0.03562 0.00183 0.26347 0.0
C1372 C 0.05956 0.02448 0.22859 0.0
C1373 C 0.02743 0.01103 0.22236 0.0
C1374 C 0.03262 0.00708 0.24929 0.0
C1375 C 0.99768 0.99776 0.22996 0.0
C1376 C 0.00354 0.99792 0.27125 0.0
C1377 C 0.07432 0.99958 0.28221 0.0
N1378 N 1.00098 0.99602 0.24302 0.0
N1379 N 0.06998 0.00174 0.26919 0.0
H1380 H 0.19569 0.80406 0.53982 0.0
H1381 H 0.30757 0.80056 0.47397 0.0
H1382 H 0.31585 0.79405 0.53783 0.0
H1383 H 0.18708 0.79826 0.47609 0.0
H1384 H 0.31101 0.78725 0.49707 0.0
H1385 H 0.19166 0.79122 0.51672 0.0
C1386 C 0.22125 0.79839 0.5345 0.0
C1387 C 0.2562 0.80037 0.54065 0.0
C1388 C 0.28377 0.7888 0.4925 0.0
C1389 C 0.2519 0.78642 0.51411 0.0
C1390 C 0.28179 0.79628 0.4793 0.0
C1391 C 0.24696 0.80053 0.4732 0.0
C1392 C 0.25062 0.78635 0.49973 0.0
C1393 C 0.21442 0.79493 0.48047 0.0
C1394 C 0.21892 0.79108 0.5213 0.0
C1395 C 0.2884 0.79266 0.53341 0.0
N1396 N 0.21702 0.78878 0.49345 0.0
N1397 N 0.28554 0.78669 0.52042 0.0
H1398 H 0.42884 0.04144 0.7913 0.0
H1399 H 0.49735 0.97396 0.72107 0.0
H1400 H 0.53404 0.98478 0.78515 0.0
H1401 H 0.38363 0.00319 0.73119 0.0
H1402 H 0.51596 0.98616 0.74364 0.0
H1403 H 0.41781 0.04038 0.76793 0.0
C1404 C 0.45032 0.03024 0.78498 0.0
C1405 C 0.4824 0.01328 0.7901 0.0
C1406 C 0.48696 0.98981 0.74084 0.0
C1407 C 0.46946 0.01053 0.76349 0.0
C1408 C 0.47629 0.98239 0.72803 0.0
C1409 C 0.43889 0.98747 0.72423 0.0
C1410 C 0.46008 0.00273 0.74978 0.0
C1411 C 0.41284 0.99903 0.73363 0.0
C1412 C 0.44374 0.02892 0.77166 0.0
C1413 C 0.50895 0.9982 0.7815 0.0
N1414 N 0.42394 0.00643 0.74588 0.0
N1415 N 0.50171 0.9967 0.76862 0.0
H1416 H 0.70026 0.83718 0.97817 0.0
H1417 H 0.80427 0.74152 0.0376 0.0
H1418 H 0.80053 0.77055 0.97381 0.0
H1419 H 0.70629 0.81161 0.04122 0.0
H1420 H 0.79808 0.74359 0.01413 0.0
H1421 H 0.69763 0.82055 1.00082 0.0
C1422 C 0.72191 0.81897 0.98198 0.0
C1423 C 0.75119 0.8058 0.97408 0.0
C1424 C 0.77755 0.758 0.02003 0.0
C1425 C 0.74805 0.78645 1.00028 0.0
C1426 C 0.78092 0.75674 0.03344 0.0
C1427 C 0.7559 0.77673 0.04137 0.0
C1428 C 0.74902 0.77959 0.01445 0.0
C1429 C 0.72611 0.79573 0.03548 0.0
C1430 C 0.72018 0.80933 0.99497 0.0
C1431 C 0.77772 0.7816 0.97957 0.0
N1432 N 0.72382 0.79713 0.02236 0.0
N1433 N 0.77578 0.77302 0.99241 0.0
H1434 H 0.96967 0.93281 0.78957 0.0
H1435 H 0.95875 0.06939 0.72844 0.0
H1436 H 0.9578 0.05289 0.79188 0.0
H1437 H 0.96193 0.94879 0.72606 0.0
H1438 H 0.97416 0.06496 0.75158 0.0
H1439 H 0.98245 0.93884 0.76627 0.0
C1440 C 0.97087 0.96042 0.78523 0.0
C1441 C 0.96238 0.99233 0.79253 0.0
C1442 C 0.97232 0.03949 0.74592 0.0
C1443 C 0.97631 0.99962 0.76606 0.0
C1444 C 0.96385 0.04214 0.73272 0.0
C1445 C 0.95876 0.00944 0.72547 0.0
C1446 C 0.9756 0.00389 0.75178 0.0
C1447 C 0.96523 0.97466 0.73143 0.0
C1448 C 0.97787 0.96395 0.77195 0.0
C1449 C 0.96385 0.02755 0.78649 0.0
N1450 N 0.9728 0.97275 0.74426 0.0
N1451 N 0.97016 0.03024 0.7736 0.0
H1452 H 0.70857 0.24882 0.53806 0.0
H1453 H 0.75442 0.12698 0.47941 0.0
H1454 H 0.80779 0.18027 0.53664 0.0
H1455 H 0.71824 0.23977 0.47057 0.0
H1456 H 0.76564 0.14546 0.50152 0.0
H1457 H 0.70649 0.24905 0.5143 0.0
C1458 C 0.73101 0.23547 0.5327 0.0
C1459 C 0.75877 0.21494 0.53924 0.0
C1460 C 0.75538 0.1663 0.49477 0.0
C1461 C 0.75535 0.21344 0.5123 0.0
C1462 C 0.74853 0.15575 0.4821 0.0
C1463 C 0.73569 0.18197 0.47298 0.0
C1464 C 0.74859 0.20323 0.49863 0.0
C1465 C 0.72809 0.21864 0.47727 0.0
C1466 C 0.72957 0.23534 0.51919 0.0
C1467 C 0.78642 0.19697 0.53194 0.0
N1468 N 0.73445 0.22825 0.48989 0.0
N1469 N 0.78347 0.19582 0.51885 0.0
H1470 H 0.48261 0.00768 0.28298 0.0
H1471 H 0.64357 0.99166 0.22917 0.0
H1472 H 0.59769 0.03854 0.28986 0.0
H1473 H 0.52737 0.96523 0.2222 0.0
H1474 H 0.62814 0.006 0.25169 0.0
H1475 H 0.49857 0.99252 0.26064 0.0
C1476 C 0.51117 0.01183 0.27975 0.0
C1477 C 0.53899 0.02397 0.28838 0.0
C1478 C 0.60606 0.9968 0.24526 0.0
C1479 C 0.55769 0.00576 0.26281 0.0
C1480 C 0.61494 0.98815 0.23243 0.0
C1481 C 0.58668 0.97738 0.22375 0.0
C1482 C 0.56867 0.99463 0.24946 0.0
C1483 C 0.55001 0.9737 0.22852 0.0
C1484 C 0.52038 0.00271 0.26701 0.0
C1485 C 0.57557 0.02845 0.28362 0.0
N1486 N 0.54204 0.98257 0.241 0.0
N1487 N 0.58393 0.01911 0.2712 0.0
H1488 H 0.73079 0.67213 0.54499 0.0
H1489 H 0.77215 0.76721 0.47647 0.0
H1490 H 0.78494 0.7796 0.54147 0.0
H1491 H 0.75252 0.64904 0.48157 0.0
H1492 H 0.77389 0.77476 0.50009 0.0
H1493 H 0.73062 0.66663 0.52132 0.0
C1494 C 0.74131 0.69516 0.5392 0.0
C1495 C 0.75743 0.72658 0.54509 0.0
C1496 C 0.77014 0.74701 0.49603 0.0
C1497 C 0.7587 0.72 0.51819 0.0
C1498 C 0.76997 0.74265 0.48259 0.0
C1499 C 0.76337 0.7073 0.47717 0.0
C1500 C 0.76266 0.71592 0.50399 0.0
C1501 C 0.75876 0.67655 0.48545 0.0
C1502 C 0.74199 0.6917 0.52573 0.0
C1503 C 0.7719 0.75513 0.53721 0.0
N1504 N 0.75801 0.68161 0.49846 0.0
N1505 N 0.77234 0.75113 0.52416 0.0
H1506 H 0.48963 0.45219 0.72896 0.0
H1507 H 0.59673 0.54627 0.78801 0.0
H1508 H 0.56951 0.54208 0.72501 0.0
H1509 H 0.52015 0.45357 0.79267 0.0
H1510 H 0.57996 0.55042 0.76541 0.0
H1511 H 0.49244 0.45874 0.75242 0.0
C1512 C 0.50707 0.47404 0.73305 0.0
C1513 C 0.52956 0.49654 0.72504 0.0
C1514 C 0.56662 0.5292 0.77132 0.0
C1515 C 0.53344 0.50364 0.75194 0.0
C1516 C 0.57633 0.52656 0.78428 0.0
C1517 C 0.56034 0.49894 0.79227 0.0
C1518 C 0.54079 0.5039 0.76609 0.0
C1519 C 0.53344 0.475 0.78686 0.0
C1520 C 0.50881 0.47755 0.74646 0.0
C1521 C 0.55156 0.52434 0.73082 0.0
N1522 N 0.5248 0.47775 0.77403 0.0
N1523 N 0.55338 0.52672 0.74395 0.0
H1524 H 0.66991 0.34277 0.98481 0.0
H1525 H 0.816 0.23602 0.03065 0.0
H1526 H 0.7312 0.24418 0.97305 0.0
H1527 H 0.74505 0.32668 0.04352 0.0
H1528 H 0.78457 0.23774 0.0096 0.0
H1529 H 0.69424 0.33496 1.00673 0.0
C1530 C 0.68789 0.31904 0.98687 0.0
C1531 C 0.699 0.29448 0.97697 0.0
C1532 C 0.77577 0.25714 0.01706 0.0
C1533 C 0.72785 0.28592 1.00204 0.0
C1534 C 0.79391 0.25633 0.02906 0.0
C1535 C 0.78319 0.28116 0.03893 0.0
C1536 C 0.74683 0.28316 0.01485 0.0
C1537 C 0.75421 0.30679 0.03628 0.0
C1538 C 0.70214 0.31482 0.99938 0.0
C1539 C 0.7226 0.26437 0.98027 0.0
N1540 N 0.73716 0.30715 0.02453 0.0
N1541 N 0.73661 0.26123 0.99245 0.0
H1542 H 0.99 0.52022 0.29538 0.0
H1543 H 0.91515 0.45806 0.22541 0.0
H1544 H 0.87486 0.49592 0.28571 0.0
H1545 H 0.02147 0.51292 0.23081 0.0
H1546 H 0.90675 0.45667 0.24891 0.0
H1547 H 0.00736 0.50734 0.27271 0.0
C1548 C 0.96839 0.51267 0.28851 0.0
C1549 C 0.93091 0.50931 0.29247 0.0
C1550 C 0.93243 0.46813 0.24497 0.0
C1551 C 0.95066 0.49317 0.26682 0.0
C1552 C 0.93753 0.46813 0.23157 0.0
C1553 C 0.96909 0.48545 0.22623 0.0
C1554 C 0.95908 0.48562 0.25301 0.0
C1555 C 0.9968 0.49916 0.23463 0.0
C1556 C 0.97834 0.50485 0.27565 0.0
C1557 C 0.90414 0.49882 0.28318 0.0
N1558 N 0.99093 0.49953 0.24762 0.0
N1559 N 0.91454 0.49098 0.27088 0.0
H1560 H 0.20631 0.33515 0.54105 0.0
H1561 H 0.25453 0.24726 0.47178 0.0
H1562 H 0.25675 0.22589 0.53737 0.0
H1563 H 0.24242 0.36531 0.47963 0.0
H1564 H 0.24861 0.23456 0.49516 0.0
H1565 H 0.20711 0.34133 0.51748 0.0
C1566 C 0.21587 0.31175 0.53523 0.0
C1567 C 0.23107 0.27981 0.54107 0.0
C1568 C 0.24796 0.26326 0.49174 0.0
C1569 C 0.23371 0.2872 0.51424 0.0
C1570 C 0.25209 0.2705 0.47848 0.0
C1571 C 0.24962 0.30743 0.47391 0.0
C1572 C 0.24074 0.29317 0.50027 0.0
C1573 C 0.24493 0.33651 0.48286 0.0
C1574 C 0.21719 0.31558 0.5218 0.0
C1575 C 0.24442 0.25077 0.53313 0.0
N1576 N 0.24029 0.32877 0.49558 0.0
N1577 N 0.24581 0.25525 0.52009 0.0
H1578 H 0.49971 0.49479 0.22004 0.0
H1579 H 0.42375 0.50809 0.29266 0.0
H1580 H 0.39411 0.54425 0.23096 0.0
H1581 H 0.50944 0.42997 0.2807 0.0
H1582 H 0.42229 0.53369 0.2709 0.0
H1583 H 0.51378 0.48431 0.24302 0.0
C1584 C 0.48014 0.5047 0.22728 0.0
C1585 C 0.44554 0.52013 0.22364 0.0
C1586 C 0.44162 0.51111 0.27305 0.0
C1587 C 0.46123 0.50803 0.24979 0.0
C1588 C 0.44249 0.49638 0.28552 0.0
C1589 C 0.4666 0.46657 0.28859 0.0
C1590 C 0.46501 0.49599 0.26346 0.0
C1591 C 0.49012 0.45271 0.27878 0.0
C1592 C 0.48796 0.49829 0.24037 0.0
C1593 C 0.42105 0.53218 0.23339 0.0
N1594 N 0.48864 0.46742 0.26664 0.0
N1595 N 0.42917 0.52555 0.246 0.0
H1596 H 0.25964 0.78411 0.03951 0.0
H1597 H 0.22836 0.66416 0.97521 0.0
H1598 H 0.26278 0.66346 0.03873 0.0
H1599 H 0.26345 0.77964 0.97443 0.0
H1600 H 0.23129 0.66538 0.99894 0.0
H1601 H 0.25642 0.78472 0.01583 0.0
C1602 C 0.26132 0.75783 0.03428 0.0
C1603 C 0.26272 0.72375 0.04098 0.0
C1604 C 0.23758 0.69068 0.99358 0.0
C1605 C 0.25634 0.72399 0.01406 0.0
C1606 C 0.235 0.69022 0.98008 0.0
C1607 C 0.24483 0.72213 0.97295 0.0
C1608 C 0.24995 0.72333 0.9999 0.0
C1609 C 0.25488 0.75476 0.97965 0.0
C1610 C 0.25872 0.75811 0.02081 0.0
C1611 C 0.26295 0.69031 0.03385 0.0
N1612 N 0.25734 0.75453 0.99275 0.0
N1613 N 0.25925 0.69122 0.02076 0.0
H1614 H 0.07329 0.55168 0.79107 0.0
H1615 H 0.01355 0.47602 0.72088 0.0
H1616 H 0.9814 0.47526 0.78509 0.0
H1617 H 0.11657 0.53407 0.72976 0.0
H1618 H 0.99452 0.48339 0.74367 0.0
H1619 H 0.08081 0.55667 0.76759 0.0
C1620 C 0.05379 0.53713 0.78481 0.0
C1621 C 0.02678 0.51298 0.78999 0.0
C1622 C 0.02121 0.49457 0.74053 0.0
C1623 C 0.03598 0.51732 0.76319 0.0
C1624 C 0.03216 0.49008 0.72757 0.0
C1625 C 0.06684 0.50406 0.72337 0.0
C1626 C 0.04492 0.51358 0.74922 0.0
C1627 C 0.08967 0.5225 0.73246 0.0
C1628 C 0.05845 0.53941 0.77141 0.0
C1629 C 0.0027 0.4941 0.78143 0.0
N1630 N 0.0783 0.52673 0.74487 0.0
N1631 N 0.00819 0.49619 0.76845 0.0
H1632 H 0.30231 0.86616 0.10624 0.0
H1633 H 0.25609 0.02639 0.05428 0.0
H1634 H 0.26818 0.8422 0.06711 0.0
H1635 H 0.27417 0.04903 0.09473 0.0
H1636 H 0.26293 0.95933 0.05853 0.0
H1637 H 0.29578 0.93311 0.10185 0.0
C1638 C 0.29357 0.87491 0.09669 0.0
C1639 C 0.28558 0.84815 0.08707 0.0
C1640 C 0.26531 0.97887 0.06651 0.0
C1641 C 0.27814 0.92546 0.08194 0.0
C1642 C 0.26149 0.01728 0.06408 0.0
C1643 C 0.26478 0.04361 0.07415 0.0
C1644 C 0.27279 0.96632 0.07911 0.0
C1645 C 0.27118 0.02988 0.08668 0.0
C1646 C 0.28982 0.91328 0.0942 0.0
C1647 C 0.27499 0.86153 0.07481 0.0
N1648 N 0.27523 0.99229 0.08878 0.0
N1649 N 0.27146 0.89914 0.07263 0.0
H1650 H 0.42326 0.04046 0.32152 0.0
H1651 H 0.21856 0.97358 0.34331 0.0
H1652 H 0.4038 0.96762 0.35414 0.0
H1653 H 0.23834 0.0637 0.31633 0.0
H1654 H 0.28614 0.97136 0.34775 0.0
H1655 H 0.35554 0.05032 0.31975 0.0
C1656 C 0.40492 0.02698 0.32843 0.0
C1657 C 0.41951 0.0028 0.3379 0.0
C1658 C 0.27557 0.99175 0.3409 0.0
C1659 C 0.3416 0.01337 0.33577 0.0
C1660 C 0.23693 0.9931 0.33841 0.0
C1661 C 0.22256 0.01843 0.32927 0.0
C1662 C 0.30008 0.01582 0.33419 0.0
C1663 C 0.24797 0.04296 0.32319 0.0
C1664 C 0.36614 0.03239 0.32737 0.0
C1665 C 0.39402 0.98583 0.3465 0.0
N1666 N 0.28531 0.04082 0.32566 0.0
N1667 N 0.35647 0.99112 0.34515 0.0
H1668 H 0.23821 0.1677 0.56727 0.0
H1669 H 0.22978 0.9578 0.59528 0.0
H1670 H 0.19961 0.14033 0.60562 0.0
H1671 H 0.27955 0.98648 0.55859 0.0
H1672 H 0.21186 0.02351 0.59819 0.0
H1673 H 0.24635 0.10069 0.56283 0.0
C1674 C 0.23076 0.14762 0.57468 0.0
C1675 C 0.21832 0.15977 0.58687 0.0
C1676 C 0.22656 0.0154 0.58947 0.0
C1677 C 0.22816 0.08283 0.58192 0.0
C1678 C 0.23664 0.97775 0.58777 0.0
C1679 C 0.25651 0.96642 0.57671 0.0
C1680 C 0.23621 0.04209 0.58003 0.0
C1681 C 0.26488 0.99388 0.56737 0.0
C1682 C 0.23577 0.10931 0.57218 0.0
C1683 C 0.20969 0.1323 0.59615 0.0
N1684 N 0.25481 0.03031 0.56926 0.0
N1685 N 0.21493 0.09527 0.59352 0.0
H1686 H 0.29066 0.94075 0.81409 0.0
H1687 H 0.11824 0.0501 0.84633 0.0
H1688 H 0.30301 0.04142 0.83685 0.0
H1689 H 0.10464 0.94982 0.8235 0.0
H1690 H 0.18549 0.04767 0.84258 0.0
H1691 H 0.22307 0.9439 0.81715 0.0
C1692 C 0.27932 0.96373 0.81968 0.0
C1693 C 0.30303 0.99109 0.82511 0.0
C1694 C 0.16794 0.02615 0.83836 0.0
C1695 C 0.22477 0.99449 0.82879 0.0
C1696 C 0.12934 0.02738 0.84054 0.0
C1697 C 0.10548 0.99976 0.83539 0.0
C1698 C 0.18333 0.99709 0.83091 0.0
C1699 C 0.12178 0.97171 0.82767 0.0
C1700 C 0.24049 0.96534 0.82147 0.0
C1701 C 0.28619 0.01957 0.83252 0.0
N1702 N 0.15966 0.97097 0.82573 0.0
N1703 N 0.24823 0.02055 0.8341 0.0
H1704 H 0.2493 0.16902 0.44891 0.0
H1705 H 0.27674 0.96171 0.42037 0.0
H1706 H 0.30538 0.14496 0.4129 0.0
H1707 H 0.22058 0.98537 0.4564 0.0
H1708 H 0.29256 0.0282 0.41844 0.0
H1709 H 0.24417 0.10154 0.45295 0.0
C1710 C 0.26108 0.14965 0.44196 0.0
C1711 C 0.27744 0.1628 0.43048 0.0
C1712 C 0.27696 0.01882 0.42682 0.0
C1713 C 0.27105 0.08539 0.43492 0.0
C1714 C 0.26808 0.98075 0.42795 0.0
C1715 C 0.24695 0.96784 0.4385 0.0
C1716 C 0.26473 0.04429 0.43632 0.0
C1717 C 0.23623 0.99407 0.44797 0.0
C1718 C 0.25787 0.11106 0.44421 0.0
C1719 C 0.2919 0.13618 0.42176 0.0
N1720 N 0.24506 0.03096 0.44662 0.0
N1721 N 0.28808 0.09887 0.4241 0.0
H1722 H 0.106 0.04393 0.66065 0.0
H1723 H 0.26839 0.95625 0.70421 0.0
H1724 H 0.08618 0.9961 0.69829 0.0
H1725 H 0.28971 0.01903 0.66936 0.0
H1726 H 0.20201 0.97237 0.70261 0.0
H1727 H 0.17343 0.03735 0.66406 0.0
C1728 C 0.11591 0.03225 0.66968 0.0
C1729 C 0.0904 0.02027 0.67916 0.0
C1730 C 0.22118 0.98287 0.69535 0.0
C1731 C 0.16776 0.01244 0.68313 0.0
C1732 C 0.25909 0.97345 0.69621 0.0
C1733 C 0.28464 0.98594 0.68681 0.0
C1734 C 0.20846 0.0047 0.68495 0.0
C1735 C 0.27107 0.00885 0.67682 0.0
C1736 C 0.15443 0.02861 0.67164 0.0
C1737 C 0.10482 0.00585 0.69076 0.0
N1738 N 0.23388 0.01716 0.67608 0.0
N1739 N 0.14252 0.00194 0.69236 0.0
H1740 H 0.23804 0.83193 0.94597 0.0
H1741 H 0.20739 0.03918 0.91763 0.0
H1742 H 0.19548 0.85362 0.90769 0.0
H1743 H 0.27464 0.01414 0.95113 0.0
H1744 H 0.19188 0.97224 0.91576 0.0
H1745 H 0.24015 0.89953 0.94997 0.0
C1746 C 0.22841 0.85086 0.93849 0.0
C1747 C 0.21676 0.83708 0.92643 0.0
C1748 C 0.20979 0.98149 0.92358 0.0
C1749 C 0.21959 0.91461 0.93089 0.0
C1750 C 0.21844 0.01966 0.92468 0.0
C1751 C 0.24267 0.0321 0.93446 0.0
C1752 C 0.2251 0.95572 0.93241 0.0
C1753 C 0.25641 0.00562 0.94331 0.0
C1754 C 0.22996 0.8895 0.94074 0.0
C1755 C 0.2051 0.86308 0.91705 0.0
N1756 N 0.24755 0.96874 0.94206 0.0
N1757 N 0.207 0.90055 0.91944 0.0
H1758 H 0.21511 0.9344 0.19536 0.0
H1759 H 0.40976 0.03133 0.17547 0.0
H1760 H 0.21903 0.04672 0.18006 0.0
H1761 H 0.39771 0.92085 0.19207 0.0
H1762 H 0.34124 0.03844 0.17616 0.0
H1763 H 0.28251 0.9295 0.19296 0.0
C1764 C 0.23024 0.95821 0.19152 0.0
C1765 C 0.21125 0.99125 0.1881 0.0
C1766 C 0.35379 0.01263 0.17957 0.0
C1767 C 0.28955 0.98578 0.18522 0.0
C1768 C 0.39304 0.00854 0.17924 0.0
C1769 C 0.41019 0.97524 0.18363 0.0
C1770 C 0.3314 0.98327 0.18434 0.0
C1771 C 0.3865 0.9468 0.18833 0.0
C1772 C 0.26894 0.95535 0.19009 0.0
C1773 C 0.23251 0.02076 0.18283 0.0
N1774 N 0.34875 0.95153 0.18855 0.0
N1775 N 0.2706 0.01747 0.18164 0.0
H1776 H 0.73537 0.96105 0.91771 0.0
H1777 H 0.73618 0.16428 0.95126 0.0
H1778 H 0.77165 0.98085 0.95684 0.0
H1779 H 0.72734 0.14742 0.9101 0.0
H1780 H 0.73802 0.09605 0.95424 0.0
H1781 H 0.72139 0.02823 0.91551 0.0
C1782 C 0.7399 0.97946 0.92588 0.0
C1783 C 0.75502 0.96546 0.93743 0.0
C1784 C 0.73538 0.10731 0.94457 0.0
C1785 C 0.73914 0.04221 0.93503 0.0
C1786 C 0.73403 0.14626 0.94288 0.0
C1787 C 0.7319 0.16161 0.9304 0.0
C1788 C 0.73427 0.08352 0.93372 0.0
C1789 C 0.72957 0.1368 0.91987 0.0
C1790 C 0.73216 0.0178 0.92461 0.0
C1791 C 0.76061 0.99061 0.94771 0.0
N1792 N 0.73096 0.09908 0.92175 0.0
N1793 N 0.75276 0.0277 0.94626 0.0
H1794 H 0.77113 0.01387 0.71147 0.0
H1795 H 0.60689 0.97807 0.66104 0.0
H1796 H 0.79083 0.98252 0.67181 0.0
H1797 H 0.58742 0.98961 0.70194 0.0
H1798 H 0.67428 0.97537 0.66505 0.0
H1799 H 0.70435 1.00119 0.70856 0.0
C1800 C 0.76137 0.004 0.70216 0.0
C1801 C 0.78653 0.9996 0.69183 0.0
C1802 C 0.65539 0.97803 0.67319 0.0
C1803 C 0.70992 0.98515 0.68839 0.0
C1804 C 0.6169 0.97966 0.6709 0.0
C1805 C 0.59161 0.98444 0.68117 0.0
C1806 C 0.66893 0.98174 0.68586 0.0
C1807 C 0.606 0.98585 0.69377 0.0
C1808 C 0.72325 0.99662 0.70052 0.0
C1809 C 0.77247 0.98619 0.68004 0.0
N1810 N 0.64377 0.98508 0.69575 0.0
N1811 N 0.73504 0.97993 0.67859 0.0
H1812 H 0.77692 0.03532 0.41885 0.0
H1813 H 0.75365 0.82948 0.44926 0.0
H1814 H 0.70801 0.01096 0.45206 0.0
H1815 H 0.80468 0.85097 0.41223 0.0
H1816 H 0.74604 0.89724 0.45241 0.0
H1817 H 0.79596 0.96932 0.41812 0.0
C1818 C 0.76606 0.01621 0.42606 0.0
C1819 C 0.74049 0.0287 0.43544 0.0
C1820 C 0.75933 0.88715 0.44366 0.0
C1821 C 0.76214 0.95299 0.43467 0.0
C1822 C 0.76405 0.84847 0.44193 0.0
C1823 C 0.77971 0.83456 0.43043 0.0
C1824 C 0.77052 0.91211 0.43385 0.0
C1825 C 0.79214 0.86053 0.42117 0.0
C1826 C 0.7768 0.97847 0.42561 0.0
C1827 C 0.72718 0.0025 0.4445 0.0
N1828 N 0.78708 0.89795 0.42303 0.0
N1829 N 0.73806 0.96596 0.44387 0.0
H1830 H 0.89926 0.08548 0.16074 0.0
H1831 H 0.71783 0.98104 0.18805 0.0
H1832 H 0.90885 0.99972 0.18982 0.0
H1833 H 0.7158 0.096 0.17545 0.0
H1834 H 0.78682 0.98095 0.18574 0.0
H1835 H 0.8309 0.08418 0.16321 0.0
C1836 C 0.88687 0.06662 0.16774 0.0
C1837 C 0.90972 0.04304 0.17519 0.0
C1838 C 0.77117 0.00607 0.1834 0.0
C1839 C 0.83133 0.04047 0.17782 0.0
C1840 C 0.7319 0.00595 0.18457 0.0
C1841 C 0.71122 0.0385 0.18182 0.0
C1842 C 0.78967 0.03873 0.17919 0.0
C1843 C 0.73078 0.07035 0.17759 0.0
C1844 C 0.8479 0.0658 0.16913 0.0
C1845 C 0.89223 0.01879 0.18405 0.0
N1846 N 0.76873 0.06961 0.17633 0.0
N1847 N 0.85404 0.01783 0.18503 0.0
H1848 H 0.74648 0.86582 0.61066 0.0
H1849 H 0.73608 0.02334 0.55614 0.0
H1850 H 0.71132 0.84134 0.57159 0.0
H1851 H 0.7441 0.04811 0.59679 0.0
H1852 H 0.72755 0.95673 0.56134 0.0
H1853 H 0.74674 0.93196 0.60553 0.0
C1854 C 0.73831 0.87397 0.60102 0.0
C1855 C 0.72864 0.84709 0.5916 0.0
C1856 C 0.73085 0.97671 0.56914 0.0
C1857 C 0.72961 0.9243 0.58558 0.0
C1858 C 0.73576 0.0147 0.56617 0.0
C1859 C 0.74079 0.04129 0.57605 0.0
C1860 C 0.73164 0.96495 0.58209 0.0
C1861 C 0.73995 0.02866 0.58889 0.0
C1862 C 0.73865 0.9122 0.59809 0.0
C1863 C 0.71923 0.86051 0.5792 0.0
N1864 N 0.73592 0.9914 0.59153 0.0
N1865 N 0.72014 0.89803 0.57656 0.0
H1866 H 0.74198 0.02389 0.30566 0.0
H1867 H 0.90131 0.9672 0.35657 0.0
H1868 H 0.71687 0.98187 0.34376 0.0
H1869 H 0.92398 1.00148 0.31738 0.0
H1870 H 0.83408 0.97275 0.35233 0.0
H1871 H 0.80865 0.01773 0.31021 0.0
C1872 C 0.75051 0.01342 0.31502 0.0
C1873 C 0.72363 0.00303 0.32429 0.0
C1874 C 0.8537 0.97884 0.34463 0.0
C1875 C 0.80054 0.99588 0.32961 0.0
C1876 C 0.89214 0.97565 0.34704 0.0
C1877 C 0.91847 0.98394 0.33733 0.0
C1878 C 0.84126 0.99064 0.33242 0.0
C1879 C 0.90486 0.9944 0.32512 0.0
C1880 C 0.7887 0.00989 0.31762 0.0
C1881 C 0.73652 0.99037 0.33635 0.0
N1882 N 0.86729 0.99768 0.32305 0.0
N1883 N 0.77404 0.98695 0.33864 0.0
H1884 H 0.75812 0.97899 0.05447 0.0
H1885 H 0.75153 0.1477 0.10562 0.0
H1886 H 0.74593 0.96197 0.09551 0.0
H1887 H 0.76285 0.16416 0.06449 0.0
H1888 H 0.74917 0.08007 0.10214 0.0
H1889 H 0.75877 0.04662 0.05797 0.0
C1890 C 0.75555 0.98946 0.06425 0.0
C1891 C 0.75233 0.96452 0.07473 0.0
C1892 C 0.75217 0.0984 0.09386 0.0
C1893 C 0.75296 0.04258 0.07883 0.0
C1894 C 0.75343 0.13718 0.09583 0.0
C1895 C 0.75713 0.16199 0.08533 0.0
C1896 C 0.75463 0.0839 0.08128 0.0
C1897 C 0.76023 0.14633 0.0729 0.0
C1898 C 0.75585 0.02821 0.06623 0.0
C1899 C 0.74831 0.97998 0.08714 0.0
N1900 N 0.75877 0.1084 0.07123 0.0
N1901 N 0.74897 0.01795 0.08885 0.0
H1902 H 0.77983 0.9669 0.81078 0.0
H1903 H 0.62168 0.06439 0.85421 0.0
H1904 H 0.80411 0.02915 0.84552 0.0
H1905 H 0.59866 0.01083 0.81773 0.0
H1906 H 0.68881 0.05525 0.85053 0.0
H1907 H 0.7141 0.98537 0.81258 0.0
C1908 C 0.77139 0.98445 0.81881 0.0
C1909 C 0.79771 0.99612 0.82809 0.0
C1910 C 0.66919 0.04589 0.84323 0.0
C1911 C 0.722 0.0177 0.83017 0.0
C1912 C 0.63082 0.05116 0.84533 0.0
C1913 C 0.60439 0.03834 0.83629 0.0
C1914 C 0.68152 0.02726 0.83204 0.0
C1915 C 0.61791 0.02152 0.82491 0.0
C1916 C 0.73378 0.99521 0.81978 0.0
C1917 C 0.78502 0.01954 0.83811 0.0
N1918 N 0.65543 0.0161 0.82319 0.0
N1919 N 0.74812 0.02925 0.83894 0.0
H1920 H 0.72156 0.3586 0.60247 0.0
H1921 H 0.82095 0.53125 0.56718 0.0
H1922 H 0.80423 0.34517 0.57242 0.0
H1923 H 0.72374 0.54415 0.59168 0.0
H1924 H 0.81716 0.46379 0.56986 0.0
H1925 H 0.72399 0.42644 0.59949 0.0
C1926 C 0.74042 0.36989 0.59527 0.0
C1927 C 0.76303 0.34595 0.58776 0.0
C1928 C 0.79656 0.48131 0.57462 0.0
C1929 C 0.76575 0.42417 0.58424 0.0
C1930 C 0.79852 0.52017 0.57306 0.0
C1931 C 0.7723 0.54408 0.57907 0.0
C1932 C 0.7684 0.46568 0.58238 0.0
C1933 C 0.74469 0.52726 0.58686 0.0
C1934 C 0.74159 0.40874 0.59352 0.0
C1935 C 0.78624 0.36241 0.57839 0.0
N1936 N 0.74349 0.48921 0.58828 0.0
N1937 N 0.78719 0.40045 0.57695 0.0
H1938 H 0.73396 0.46708 0.81126 0.0
H1939 H 0.89537 0.54791 0.8569 0.0
H1940 H 0.71162 0.52205 0.84758 0.0
H1941 H 0.91558 0.50717 0.8183 0.0
H1942 H 0.82792 0.54131 0.85334 0.0
H1943 H 0.80011 0.48352 0.81333 0.0
C1944 C 0.74296 0.48262 0.81969 0.0
C1945 C 0.71714 0.49283 0.82933 0.0
C1946 C 0.84702 0.53422 0.84558 0.0
C1947 C 0.79319 0.51199 0.83176 0.0
C1948 C 0.88555 0.53796 0.84762 0.0
C1949 C 0.91123 0.52798 0.83791 0.0
C1950 C 0.83384 0.51996 0.83377 0.0
C1951 C 0.89689 0.51551 0.82602 0.0
C1952 C 0.78077 0.49223 0.82083 0.0
C1953 C 0.73043 0.51367 0.8399 0.0
N1954 N 0.85924 0.51145 0.82434 0.0
N1955 N 0.76753 0.52222 0.84089 0.0
H1956 H 0.70315 0.64036 0.10399 0.0
H1957 H 0.80217 0.48887 0.05843 0.0
H1958 H 0.75772 0.66789 0.06804 0.0
H1959 H 0.72718 0.45745 0.08938 0.0
H1960 H 0.78803 0.55429 0.06252 0.0
H1961 H 0.71292 0.57359 0.09941 0.0
C1962 C 0.71695 0.63235 0.09508 0.0
C1963 C 0.7296 0.65991 0.0864 0.0
C1964 C 0.77453 0.53312 0.06841 0.0
C1965 C 0.74124 0.58332 0.08113 0.0
C1966 C 0.7825 0.49539 0.06605 0.0
C1967 C 0.76565 0.46685 0.07346 0.0
C1968 C 0.74974 0.54304 0.07836 0.0
C1969 C 0.74112 0.47804 0.08342 0.0
C1970 C 0.72247 0.5942 0.09247 0.0
C1971 C 0.74709 0.64779 0.07496 0.0
N1972 N 0.73398 0.51515 0.08558 0.0
N1973 N 0.75266 0.61052 0.07273 0.0
H1974 H 0.78213 0.48826 0.34947 0.0
H1975 H 0.58199 0.50192 0.31458 0.0
H1976 H 0.76552 0.54266 0.31273 0.0
H1977 H 0.59445 0.49203 0.35586 0.0
H1978 H 0.65057 0.50293 0.3124 0.0
H1979 H 0.71443 0.47579 0.35061 0.0
C1980 C 0.76426 0.49717 0.34159 0.0
C1981 C 0.77929 0.51686 0.33106 0.0
C1982 C 0.63824 0.50016 0.32192 0.0
C1983 C 0.70218 0.50248 0.33221 0.0
C1984 C 0.5992 0.4993 0.32314 0.0
C1985 C 0.58264 0.49712 0.33542 0.0
C1986 C 0.66083 0.49821 0.33303 0.0
C1987 C 0.6062 0.49416 0.34624 0.0
C1988 C 0.72571 0.49024 0.34226 0.0
C1989 C 0.75492 0.52794 0.32111 0.0
N1990 N 0.64408 0.49482 0.34481 0.0
N1991 N 0.71761 0.5206 0.32192 0.0
H1992 H 0.72419 0.48231 0.96422 0.0
H1993 H 0.76904 0.63969 0.91118 0.0
H1994 H 0.75056 0.45762 0.92443 0.0
H1995 H 0.74248 0.66554 0.95085 0.0
H1996 H 0.76326 0.57302 0.91602 0.0
H1997 H 0.73047 0.5492 0.9596 0.0
C1998 C 0.73132 0.49093 0.9545 0.0
C1999 C 0.73709 0.46413 0.94472 0.0
C2000 C 0.75875 0.59315 0.9237 0.0
C2001 C 0.74432 0.54103 0.93934 0.0
C2002 C 0.76201 0.63131 0.92094 0.0
C2003 C 0.75594 0.65835 0.9306 0.0
C2004 C 0.74924 0.5816 0.93625 0.0
C2005 C 0.74761 0.64572 0.94313 0.0
C2006 C 0.73484 0.52921 0.95186 0.0
C2007 C 0.74558 0.47713 0.93225 0.0
N2008 N 0.74428 0.60827 0.94557 0.0
N2009 N 0.74912 0.51458 0.92994 0.0
H2010 H 0.77123 0.51127 0.21251 0.0
H2011 H 0.60719 0.47417 0.16137 0.0
H2012 H 0.79104 0.49283 0.17183 0.0
H2013 H 0.58658 0.50426 0.2011 0.0
H2014 H 0.67439 0.48071 0.16506 0.0
H2015 H 0.70402 0.5081 0.2086 0.0
C2016 C 0.7616 0.50675 0.20272 0.0
C2017 C 0.78726 0.5026 0.19247 0.0
C2018 C 0.65528 0.48602 0.17299 0.0
C2019 C 0.70957 0.49847 0.18796 0.0
C2020 C 0.61682 0.48216 0.1709 0.0
C2021 C 0.59111 0.48831 0.18098 0.0
C2022 C 0.6685 0.49591 0.1853 0.0
C2023 C 0.60531 0.49937 0.19305 0.0
C2024 C 0.72302 0.50482 0.20052 0.0
C2025 C 0.77264 0.49593 0.18007 0.0
N2026 N 0.64304 0.50252 0.1949 0.0
N2027 N 0.73487 0.49411 0.17818 0.0
H2028 H 0.75074 0.35318 0.40987 0.0
H2029 H 0.7332 0.51707 0.46236 0.0
H2030 H 0.73883 0.33139 0.45067 0.0
H2031 H 0.7577 0.53624 0.4221 0.0
H2032 H 0.73404 0.44942 0.45842 0.0
H2033 H 0.75083 0.42019 0.41424 0.0
C2034 C 0.74821 0.36249 0.41979 0.0
C2035 C 0.74529 0.33643 0.42994 0.0
C2036 C 0.73943 0.46834 0.45045 0.0
C2037 C 0.7451 0.41381 0.43503 0.0
C2038 C 0.73894 0.50699 0.45268 0.0
C2039 C 0.74525 0.5324 0.44252 0.0
C2040 C 0.746 0.45479 0.43792 0.0
C2041 C 0.75301 0.51774 0.43023 0.0
C2042 C 0.7482 0.4009 0.42227 0.0
C2043 C 0.74106 0.35039 0.44255 0.0
N2044 N 0.75287 0.47996 0.42825 0.0
N2045 N 0.74127 0.38814 0.44475 0.0
H2046 H 0.71128 0.54148 0.68033 0.0
H2047 H 0.9186 0.45954 0.69159 0.0
H2048 H 0.73309 0.43903 0.70121 0.0
H2049 H 0.89475 0.5669 0.67418 0.0
H2050 H 0.85111 0.45063 0.69514 0.0
H2051 H 0.77868 0.54968 0.67733 0.0
C2052 C 0.73012 0.52056 0.68422 0.0
C2053 C 0.71622 0.48959 0.69108 0.0
C2054 C 0.86077 0.47613 0.69054 0.0
C2055 C 0.79389 0.49901 0.6878 0.0
C2056 C 0.89935 0.48132 0.68859 0.0
C2057 C 0.9126 0.51382 0.68242 0.0
C2058 C 0.83523 0.50363 0.6863 0.0
C2059 C 0.88608 0.54098 0.67869 0.0
C2060 C 0.76874 0.52539 0.68259 0.0
C2061 C 0.74234 0.46366 0.69603 0.0
N2062 N 0.84889 0.53519 0.68063 0.0
N2063 N 0.77978 0.46894 0.69429 0.0
H2064 H 0.21802 0.66625 0.44591 0.0
H2065 H 0.28298 0.46211 0.42205 0.0
H2066 H 0.2914 0.64749 0.41334 0.0
H2067 H 0.21051 0.48134 0.45468 0.0
H2068 H 0.29158 0.53024 0.41992 0.0
H2069 H 0.21951 0.59897 0.45046 0.0
C2070 C 0.23465 0.64819 0.43976 0.0
C2071 C 0.25422 0.66283 0.42912 0.0
C2072 C 0.27422 0.51955 0.42767 0.0
C2073 C 0.25584 0.58542 0.43423 0.0
C2074 C 0.26965 0.48069 0.42894 0.0
C2075 C 0.24589 0.46624 0.43851 0.0
C2076 C 0.25499 0.544 0.43608 0.0
C2077 C 0.22875 0.49149 0.44709 0.0
C2078 C 0.23539 0.60965 0.44234 0.0
C2079 C 0.27513 0.63768 0.42148 0.0
N2080 N 0.2334 0.52906 0.44563 0.0
N2081 N 0.27519 0.60035 0.42413 0.0
H2082 H 0.08406 0.49761 0.19839 0.0
H2083 H 0.29084 0.46508 0.17 0.0
H2084 H 0.10592 0.45048 0.16078 0.0
H2085 H 0.26698 0.5401 0.20164 0.0
H2086 H 0.22403 0.44996 0.1686 0.0
H2087 H 0.15185 0.50326 0.20194 0.0
C2088 C 0.10313 0.48769 0.191 0.0
C2089 C 0.08938 0.47357 0.17926 0.0
C2090 C 0.23343 0.4696 0.1759 0.0
C2091 C 0.16686 0.48036 0.18317 0.0
C2092 C 0.2716 0.47808 0.17674 0.0
C2093 C 0.28451 0.50409 0.1859 0.0
C2094 C 0.20792 0.48687 0.18437 0.0
C2095 C 0.25818 0.52035 0.19431 0.0
C2096 C 0.14179 0.49129 0.19297 0.0
C2097 C 0.11539 0.46173 0.16992 0.0
N2098 N 0.22118 0.51148 0.19336 0.0
N2099 N 0.1528 0.46548 0.17205 0.0
H2100 H 0.25342 0.3347 0.95087 0.0
H2101 H 0.24429 0.54046 0.9192 0.0
H2102 H 0.23658 0.35581 0.91026 0.0
H2103 H 0.25898 0.5211 0.96006 0.0
H2104 H 0.24197 0.47266 0.91579 0.0
H2105 H 0.2582 0.40272 0.95449 0.0
C2106 C 0.25116 0.35358 0.94272 0.0
C2107 C 0.24421 0.33957 0.93028 0.0
C2108 C 0.24572 0.48325 0.92551 0.0
C2109 C 0.24919 0.41727 0.93431 0.0
C2110 C 0.24674 0.52206 0.92747 0.0
C2111 C 0.25203 0.53672 0.93993 0.0
C2112 C 0.24994 0.45874 0.93608 0.0
C2113 C 0.25549 0.51122 0.95026 0.0
C2114 C 0.25358 0.39239 0.94478 0.0
C2115 C 0.24123 0.36536 0.92005 0.0
N2116 N 0.25443 0.4736 0.9481 0.0
N2117 N 0.24359 0.4028 0.92229 0.0
H2118 H 0.42003 0.50461 0.69734 0.0
H2119 H 0.21468 0.53697 0.66764 0.0
H2120 H 0.40028 0.55319 0.6598 0.0
H2121 H 0.23679 0.47051 0.7016 0.0
H2122 H 0.28172 0.55167 0.66621 0.0
H2123 H 0.35223 0.501 0.70075 0.0
C2124 C 0.40148 0.51522 0.68992 0.0
C2125 C 0.41591 0.52908 0.67823 0.0
C2126 C 0.27184 0.53402 0.67402 0.0
C2127 C 0.33812 0.52449 0.68198 0.0
C2128 C 0.23355 0.52579 0.67487 0.0
C2129 C 0.22012 0.50213 0.68467 0.0
C2130 C 0.29688 0.51879 0.68312 0.0
C2131 C 0.24596 0.48826 0.69374 0.0
C2132 C 0.36272 0.5128 0.69181 0.0
C2133 C 0.39037 0.54191 0.66888 0.0
N2134 N 0.283 0.4967 0.69273 0.0
N2135 N 0.35281 0.53912 0.67092 0.0
H2136 H 0.19534 0.34567 0.07316 0.0
H2137 H 0.28788 0.54517 0.09058 0.0
H2138 H 0.27984 0.36038 0.10251 0.0
H2139 H 0.19088 0.53216 0.06607 0.0
H2140 H 0.28726 0.47731 0.09449 0.0
H2141 H 0.19591 0.41373 0.06942 0.0
C2142 C 0.21399 0.36311 0.0788 0.0
C2143 C 0.23715 0.34712 0.08828 0.0
C2144 C 0.26616 0.48942 0.08824 0.0
C2145 C 0.23812 0.42516 0.08405 0.0
C2146 C 0.2664 0.52829 0.08605 0.0
C2147 C 0.23969 0.54482 0.07786 0.0
C2148 C 0.23908 0.46673 0.08217 0.0
C2149 C 0.21267 0.52105 0.07222 0.0
C2150 C 0.21422 0.40201 0.07672 0.0
C2151 C 0.26081 0.3713 0.09531 0.0
N2152 N 0.21318 0.48346 0.07443 0.0
N2153 N 0.26071 0.40889 0.09305 0.0
H2154 H 0.39679 0.55326 0.84626 0.0
H2155 H 0.22597 0.44985 0.81111 0.0
H2156 H 0.41113 0.45563 0.82214 0.0
H2157 H 0.21234 0.54502 0.83645 0.0
H2158 H 0.29342 0.45215 0.81463 0.0
H2159 H 0.32969 0.55137 0.84226 0.0
C2160 C 0.38587 0.53124 0.84014 0.0
C2161 C 0.40986 0.50419 0.83468 0.0
C2162 C 0.27575 0.47258 0.81942 0.0
C2163 C 0.33229 0.5022 0.8299 0.0
C2164 C 0.23707 0.47146 0.81736 0.0
C2165 C 0.21313 0.49758 0.82338 0.0
C2166 C 0.29102 0.50001 0.82757 0.0
C2167 C 0.22947 0.52424 0.83164 0.0
C2168 C 0.34738 0.53032 0.83781 0.0
C2169 C 0.39386 0.47706 0.82653 0.0
N2170 N 0.26731 0.52483 0.83344 0.0
N2171 N 0.35609 0.47665 0.82445 0.0
H2172 H 0.23689 0.47881 0.55512 0.0
H2173 H 0.27086 0.64356 0.6063 0.0
H2174 H 0.24759 0.4601 0.59611 0.0
H2175 H 0.24773 0.66417 0.56599 0.0
H2176 H 0.26364 0.57659 0.60259 0.0
H2177 H 0.24097 0.54636 0.5588 0.0
C2178 C 0.23999 0.48893 0.56492 0.0
C2179 C 0.2422 0.4636 0.57532 0.0
C2180 C 0.26007 0.59565 0.59453 0.0
C2181 C 0.24703 0.54135 0.57962 0.0
C2182 C 0.26409 0.63411 0.59664 0.0
C2183 C 0.2595 0.65992 0.58647 0.0
C2184 C 0.25157 0.58239 0.58212 0.0
C2185 C 0.25171 0.64551 0.57412 0.0
C2186 C 0.24225 0.52759 0.56702 0.0
C2187 C 0.24557 0.47849 0.58782 0.0
N2188 N 0.24791 0.60777 0.5723 0.0
N2189 N 0.24819 0.51631 0.58961 0.0
H2190 H 0.10356 0.49081 0.35436 0.0
H2191 H 0.26437 0.50267 0.30071 0.0
H2192 H 0.08062 0.51167 0.31409 0.0
H2193 H 0.28658 0.49221 0.3415 0.0
H2194 H 0.19749 0.50892 0.30542 0.0
H2195 H 0.17051 0.49423 0.3499 0.0
C2196 C 0.11262 0.49621 0.34455 0.0
C2197 C 0.08631 0.50046 0.33455 0.0
C2198 C 0.21695 0.50549 0.31336 0.0
C2199 C 0.1635 0.50458 0.32935 0.0
C2200 C 0.25516 0.50173 0.31067 0.0
C2201 C 0.28117 0.49656 0.32072 0.0
C2202 C 0.20435 0.50375 0.3262 0.0
C2203 C 0.26763 0.49629 0.33346 0.0
C2204 C 0.15097 0.49834 0.34202 0.0
C2205 C 0.09984 0.50825 0.32209 0.0
N2206 N 0.23018 0.49945 0.33582 0.0
N2207 N 0.13749 0.50967 0.31982 0.0
H2208 H 0.61667 0.22933 0.07124 0.0
H2209 H 0.41029 0.28655 0.09254 0.0
H2210 H 0.58035 0.34403 0.07635 0.0
H2211 H 0.43673 0.18005 0.07485 0.0
H2212 H 0.47588 0.30482 0.09058 0.0
H2213 H 0.55312 0.20821 0.07568 0.0
C2214 C 0.5952 0.25014 0.07307 0.0
C2215 C 0.60365 0.28859 0.07325 0.0
C2216 C 0.46733 0.27737 0.08721 0.0
C2217 C 0.53142 0.26441 0.0788 0.0
C2218 C 0.43003 0.26693 0.08833 0.0
C2219 C 0.41815 0.23204 0.08362 0.0
C2220 C 0.49281 0.25263 0.08142 0.0
C2221 C 0.44485 0.20722 0.07858 0.0
C2222 C 0.55909 0.23799 0.07577 0.0
C2223 C 0.57502 0.31416 0.07615 0.0
N2224 N 0.48106 0.21816 0.0775 0.0
N2225 N 0.54007 0.30157 0.07884 0.0
H2226 H 0.92344 0.32808 0.31164 0.0
H2227 H 0.02629 0.17228 0.3541 0.0
H2228 H 0.95025 0.34523 0.3519 0.0
H2229 H 0.02369 0.17361 0.31245 0.0
H2230 H 0.99399 0.23323 0.35433 0.0
H2231 H 0.95239 0.26622 0.31273 0.0
C2232 C 0.9348 0.31842 0.32076 0.0
C2233 C 0.93475 0.34168 0.33166 0.0
C2234 C 1.00102 0.22037 0.34516 0.0
C2235 C 0.96844 0.27163 0.33294 0.0
C2236 C 0.01978 0.18606 0.34505 0.0
C2237 C 0.02761 0.1686 0.33324 0.0
C2238 C 0.99005 0.23661 0.33338 0.0
C2239 C 0.01807 0.18664 0.32171 0.0
C2240 C 0.95159 0.28336 0.32137 0.0
C2241 C 0.94952 0.32793 0.3433 0.0
N2242 N 0.9995 0.21964 0.32206 0.0
N2243 N 0.96622 0.29379 0.34361 0.0
H2244 H 0.11577 0.72877 0.58644 0.0
H2245 H 0.90757 0.79249 0.60334 0.0
H2246 H 0.08379 0.84381 0.59336 0.0
H2247 H 0.93789 0.68233 0.58945 0.0
H2248 H 0.97388 0.80918 0.60404 0.0
H2249 H 0.05233 0.70899 0.59171 0.0
C2250 C 0.09521 0.74987 0.58901 0.0
C2251 C 0.10453 0.78804 0.58916 0.0
C2252 C 0.96597 0.78122 0.601 0.0
C2253 C 0.03228 0.76562 0.59539 0.0
C2254 C 0.92822 0.77174 0.60055 0.0
C2255 C 0.91732 0.73621 0.59611 0.0
C2256 C 0.9928 0.75494 0.597 0.0
C2257 C 0.9451 0.71002 0.59294 0.0
C2258 C 0.05917 0.73856 0.59213 0.0
C2259 C 0.07742 0.81415 0.59301 0.0
N2260 N 0.98163 0.72008 0.5933 0.0
N2261 N 0.04222 0.80247 0.59586 0.0
H2262 H 0.53799 0.84883 0.81753 0.0
H2263 H 0.50853 0.64845 0.84888 0.0
H2264 H 0.47125 0.83263 0.85195 0.0
H2265 H 0.59949 0.67461 0.82303 0.0
H2266 H 0.49214 0.71523 0.84981 0.0
H2267 H 0.55843 0.78401 0.81884 0.0
C2268 C 0.52786 0.8317 0.82544 0.0
C2269 C 0.50314 0.84623 0.83473 0.0
C2270 C 0.51607 0.70645 0.84412 0.0
C2271 C 0.52589 0.77178 0.83611 0.0
C2272 C 0.5254 0.66861 0.84363 0.0
C2273 C 0.55543 0.65681 0.83596 0.0
C2274 C 0.53684 0.73214 0.83676 0.0
C2275 C 0.57627 0.6832 0.82909 0.0
C2276 C 0.53949 0.79467 0.82616 0.0
C2277 C 0.49007 0.82244 0.84453 0.0
N2278 N 0.56643 0.71985 0.82959 0.0
N2279 N 0.50157 0.78619 0.84495 0.0
H2280 H 0.58348 0.71704 0.41371 0.0
H2281 H 0.42237 0.83605 0.44826 0.0
H2282 H 0.59073 0.76291 0.45229 0.0
H2283 H 0.40367 0.77265 0.4134 0.0
H2284 H 0.48825 0.8174 0.44785 0.0
H2285 H 0.51996 0.74244 0.41189 0.0
C2286 C 0.57165 0.73223 0.42181 0.0
C2287 C 0.59242 0.73811 0.43314 0.0
C2288 C 0.46989 0.80777 0.44021 0.0
C2289 C 0.52063 0.76783 0.431 0.0
C2290 C 0.43257 0.81866 0.44042 0.0
C2291 C 0.40826 0.80584 0.43083 0.0
C2292 C 0.48254 0.7834 0.43047 0.0
C2293 C 0.42213 0.78322 0.42086 0.0
C2294 C 0.53563 0.74699 0.42071 0.0
C2295 C 0.576 0.75836 0.44328 0.0
N2296 N 0.45853 0.77228 0.421 0.0
N2297 N 0.54112 0.77257 0.44195 0.0
H2298 H 0.45111 0.16429 0.70484 0.0
H2299 H 0.49082 0.34038 0.66113 0.0
H2300 H 0.4516 0.15344 0.66321 0.0
H2301 H 0.55065 0.32041 0.69664 0.0
H2302 H 0.46619 0.27598 0.66204 0.0
H2303 H 0.47603 0.22765 0.7026 0.0
C2304 C 0.45616 0.17526 0.69524 0.0
C2305 C 0.44962 0.1533 0.68421 0.0
C2306 C 0.48515 0.28564 0.6695 0.0
C2307 C 0.47741 0.22574 0.68164 0.0
C2308 C 0.49924 0.322 0.66894 0.0
C2309 C 0.52295 0.3349 0.67874 0.0
C2310 C 0.49412 0.26297 0.68013 0.0
C2311 C 0.53275 0.31087 0.68886 0.0
C2312 C 0.47041 0.2113 0.69399 0.0
C2313 C 0.45579 0.16939 0.67199 0.0
N2314 N 0.51785 0.27598 0.68939 0.0
N2315 N 0.46943 0.20477 0.67102 0.0
H2316 H 0.92291 0.33174 0.94872 0.0
H2317 H 0.05827 0.15434 0.94021 0.0
H2318 H 0.88368 0.21764 0.94538 0.0
H2319 H 0.09746 0.26765 0.94586 0.0
H2320 H 0.99366 0.17715 0.94161 0.0
H2321 H 0.98742 0.30889 0.94737 0.0
C2322 C 0.92795 0.3019 0.94776 0.0
C2323 C 0.8981 0.27648 0.94729 0.0
C2324 C 0.01645 0.19696 0.94261 0.0
C2325 C 0.97137 0.25019 0.9457 0.0
C2326 C 0.05318 0.18395 0.94177 0.0
C2327 C 0.08301 0.20907 0.94312 0.0
C2328 C 0.00976 0.23534 0.94471 0.0
C2329 C 0.07515 0.24722 0.94508 0.0
C2330 C 0.96467 0.28885 0.94701 0.0
C2331 C 0.90599 0.2381 0.94605 0.0
N2332 N 0.03924 0.2592 0.94583 0.0
N2333 N 0.9419 0.22611 0.94527 0.0
H2334 H 0.0167 0.66473 0.19836 0.0
H2335 H 0.97663 0.85482 0.16246 0.0
H2336 H 0.94827 0.66855 0.16392 0.0
H2337 H 0.07754 0.83516 0.18441 0.0
H2338 H 0.96271 0.78761 0.16342 0.0
H2339 H 0.03608 0.72905 0.19431 0.0
C2340 C 0.00591 0.67902 0.1899 0.0
C2341 C 0.9809 0.66125 0.18144 0.0
C2342 C 0.98818 0.79802 0.16783 0.0
C2343 C 0.00248 0.73488 0.17691 0.0
C2344 C 0.99602 0.83617 0.16732 0.0
C2345 C 0.02809 0.8502 0.17343 0.0
C2346 C 0.01229 0.77423 0.17471 0.0
C2347 C 0.05261 0.82521 0.17954 0.0
C2348 C 0.01699 0.71568 0.18761 0.0
C2349 C 0.96713 0.6814 0.1708 0.0
N2350 N 0.04391 0.78834 0.18019 0.0
N2351 N 0.97798 0.71737 0.16886 0.0
H2352 H 0.42633 0.69014 0.94363 0.0
H2353 H 0.59352 0.7968 0.91043 0.0
H2354 H 0.40464 0.76273 0.91116 0.0
H2355 H 0.58253 0.78931 0.95199 0.0
H2356 H 0.52917 0.77403 0.90826 0.0
H2357 H 0.49119 0.71297 0.94422 0.0
C2358 C 0.43566 0.71026 0.93647 0.0
C2359 C 0.41075 0.72471 0.92732 0.0
C2360 C 0.54106 0.77766 0.91781 0.0
C2361 C 0.48373 0.75078 0.92797 0.0
C2362 C 0.57753 0.79103 0.9191 0.0
C2363 C 0.59361 0.79473 0.93143 0.0
C2364 C 0.52114 0.76722 0.9289 0.0
C2365 C 0.57165 0.78606 0.94229 0.0
C2366 C 0.47224 0.72349 0.93689 0.0
C2367 C 0.42349 0.75109 0.91832 0.0
N2368 N 0.53667 0.77215 0.94076 0.0
N2369 N 0.4594 0.76339 0.91883 0.0
H2370 H 0.07 0.68395 0.70566 0.0
H2371 H 0.97515 0.84811 0.66478 0.0
H2372 H 0.04427 0.67225 0.66509 0.0
H2373 H 0.97343 0.84136 0.70644 0.0
H2374 H 0.00532 0.78638 0.66401 0.0
H2375 H 0.04276 0.7467 0.70533 0.0
C2376 C 0.05912 0.69492 0.69664 0.0
C2377 C 0.05911 0.67296 0.68542 0.0
C2378 C 0.99802 0.79837 0.6733 0.0
C2379 C 0.02748 0.74421 0.68499 0.0
C2380 C 0.98043 0.83329 0.67374 0.0
C2381 C 0.97198 0.84976 0.6857 0.0
C2382 C 0.00733 0.78024 0.6849 0.0
C2383 C 0.97994 0.82975 0.69703 0.0
C2384 C 0.04335 0.73053 0.69647 0.0
C2385 C 0.04504 0.68847 0.67393 0.0
N2386 N 0.99747 0.79616 0.69636 0.0
N2387 N 0.0294 0.72317 0.67403 0.0
H2388 H 0.91498 0.18214 0.45504 0.0
H2389 H 0.08463 0.25254 0.41117 0.0
H2390 H 0.90459 0.20253 0.41405 0.0
H2391 H 0.08421 0.25666 0.45293 0.0
H2392 H 0.02013 0.22988 0.41167 0.0
H2393 H 0.97996 0.2031 0.45405 0.0
C2394 C 0.92658 0.19071 0.44582 0.0
C2395 C 0.9046 0.19059 0.43461 0.0
C2396 C 0.03429 0.23571 0.4207 0.0
C2397 C 0.97845 0.21472 0.4334 0.0
C2398 C 0.07095 0.24888 0.42043 0.0
C2399 C 0.08993 0.25608 0.43204 0.0
C2400 C 0.01679 0.22944 0.43266 0.0
C2401 C 0.07097 0.25055 0.44376 0.0
C2402 C 0.96352 0.20276 0.44526 0.0
C2403 C 0.92085 0.20168 0.42287 0.0
N2404 N 0.03547 0.23735 0.44377 0.0
N2405 N 0.95689 0.21351 0.42258 0.0
H2406 H 0.44029 0.13734 0.18344 0.0
H2407 H 0.43105 0.33505 0.21907 0.0
H2408 H 0.50284 0.1599 0.21824 0.0
H2409 H 0.41974 0.31673 0.17789 0.0
H2410 H 0.43915 0.2673 0.22195 0.0
H2411 H 0.41146 0.19925 0.18506 0.0
C2412 C 0.44739 0.15523 0.19155 0.0
C2413 C 0.47448 0.14422 0.20055 0.0
C2414 C 0.4341 0.27842 0.21236 0.0
C2415 C 0.44202 0.21472 0.20241 0.0
C2416 C 0.42981 0.31704 0.21066 0.0
C2417 C 0.42485 0.33205 0.19818 0.0
C2418 C 0.43259 0.25476 0.20157 0.0
C2419 C 0.42263 0.307 0.18773 0.0
C2420 C 0.43099 0.1904 0.19247 0.0
C2421 C 0.48226 0.16782 0.21105 0.0
N2422 N 0.42663 0.26973 0.18967 0.0
N2423 N 0.46658 0.20254 0.21158 0.0
H2424 H 0.58534 0.2337 0.55857 0.0
H2425 H 0.41331 0.29765 0.6026 0.0
H2426 H 0.58868 0.23025 0.60026 0.0
H2427 H 0.4029 0.2659 0.56253 0.0
H2428 H 0.4804 0.28226 0.60168 0.0
H2429 H 0.52027 0.25443 0.55962 0.0
C2430 C 0.57221 0.23724 0.56794 0.0
C2431 C 0.59204 0.2301 0.57935 0.0
C2432 C 0.46337 0.27886 0.5931 0.0
C2433 C 0.51807 0.2538 0.58063 0.0
C2434 C 0.42541 0.28784 0.59361 0.0
C2435 C 0.40307 0.28273 0.58264 0.0
C2436 C 0.47867 0.26525 0.5815 0.0
C2437 C 0.41948 0.26981 0.5712 0.0
C2438 C 0.53518 0.24898 0.56854 0.0
C2439 C 0.57397 0.23497 0.59126 0.0
N2440 N 0.45642 0.26146 0.57091 0.0
N2441 N 0.53783 0.24668 0.59161 0.0
H2442 H 0.55447 0.82197 0.33531 0.0
H2443 H 0.48005 0.65332 0.29158 0.0
H2444 H 0.54662 0.82953 0.29375 0.0
H2445 H 0.46291 0.66145 0.33279 0.0
H2446 H 0.51041 0.71501 0.29193 0.0
H2447 H 0.52892 0.75872 0.33431 0.0
C2448 C 0.54812 0.80996 0.32594 0.0
C2449 C 0.55268 0.83087 0.31458 0.0
C2450 C 0.49971 0.70333 0.30086 0.0
C2451 C 0.52253 0.75901 0.3134 0.0
C2452 C 0.48237 0.66832 0.30066 0.0
C2453 C 0.46869 0.65262 0.31215 0.0
C2454 C 0.50377 0.7223 0.31267 0.0
C2455 C 0.47245 0.67292 0.32368 0.0
C2456 C 0.53305 0.77408 0.32539 0.0
C2457 C 0.54326 0.81429 0.30273 0.0
N2458 N 0.48984 0.70665 0.32366 0.0
N2459 N 0.52843 0.77927 0.30244 0.0
H2460 H 0.09555 0.78096 0.07239 0.0
H2461 H 0.90433 0.73567 0.1044 0.0
H2462 H 0.09193 0.71522 0.1075 0.0
H2463 H 0.92466 0.84043 0.08473 0.0
H2464 H 0.97214 0.72528 0.10564 0.0
H2465 H 0.03158 0.80087 0.07631 0.0
C2466 C 0.08153 0.77107 0.08102 0.0
C2467 C 0.09921 0.74645 0.08965 0.0
C2468 C 0.96165 0.75088 0.10131 0.0
C2469 C 0.02566 0.76843 0.09397 0.0
C2470 C 0.92318 0.75667 0.10054 0.0
C2471 C 0.90929 0.78868 0.09433 0.0
C2472 C 0.98586 0.77697 0.09559 0.0
C2473 C 0.93448 0.81539 0.08959 0.0
C2474 C 0.04499 0.78245 0.08324 0.0
C2475 C 0.07915 0.73371 0.10048 0.0
N2476 N 0.97172 0.80861 0.09011 0.0
N2477 N 0.0431 0.74456 0.10227 0.0
H2478 H 0.99631 0.34665 0.85181 0.0
H2479 H 0.9704 0.16449 0.81005 0.0
H2480 H 0.06057 0.32685 0.81718 0.0
H2481 H 0.96581 0.15897 0.85178 0.0
H2482 H 0.99297 0.2289 0.81167 0.0
H2483 H 0.97572 0.28092 0.85146 0.0
C2484 C 0.00651 0.32807 0.8443 0.0
C2485 C 0.03021 0.3414 0.83456 0.0
C2486 C 0.98683 0.21345 0.82043 0.0
C2487 C 0.00611 0.26781 0.83384 0.0
C2488 C 0.97391 0.17685 0.81954 0.0
C2489 C 0.96648 0.15623 0.8308 0.0
C2490 C 0.99162 0.22966 0.83264 0.0
C2491 C 0.97069 0.17393 0.84284 0.0
C2492 C 0.99475 0.29094 0.84407 0.0
C2493 C 0.04252 0.31702 0.82488 0.0
N2494 N 0.98302 0.20981 0.84345 0.0
N2495 N 0.02987 0.28124 0.82465 0.0
loop_
_geom_bond_atom_site_label_1
_geom_bond_atom_site_label_2
_geom_bond_distance
_geom_bond_site_symmetry_2
_ccdc_geom_bond_type
C0 C1 1.351 . S
C0 N3 1.368 . S
C0 H5 0.931 . S
C1 C0 1.351 . S
C1 N2 1.373 . S
C1 H29 0.930 . S
N2 C1 1.373 . S
N2 C4 1.340 . S
N3 C0 1.368 . S
N3 C4 1.321 . S
N3 Co6 2.135 . S
C4 N2 1.340 . S
C4 N3 1.321 . S
C4 H28 0.930 . S
H5 C0 0.931 . S
Co6 N3 2.135 . S
Co6 N9 2.121 . S
Co6 O14 2.055 . S
Co6 O17 2.039 . S
Co6 N20 2.140 . S
C7 O8 1.227 . S
C7 O17 1.265 . S
O8 C7 1.227 . S
N9 Co6 2.121 . S
N9 C11 1.375 . S
N9 C12 1.313 . S
C10 C11 1.338 . S
C10 N13 1.377 . S
C10 H30 0.930 . S
C11 N9 1.375 . S
C11 C10 1.338 . S
C11 H15 0.931 . S
C12 N9 1.313 . S
C12 N13 1.344 . S
C12 H16 0.930 . S
N13 C10 1.377 . S
N13 C12 1.344 . S
O14 Co6 2.055 . S
O14 C18 1.253 . S
H15 C11 0.931 . S
H16 C12 0.930 . S
O17 Co6 2.039 . S
O17 C7 1.265 . S
C18 O14 1.253 . S
C18 O19 1.227 . S
O19 C18 1.227 . S
N20 Co6 2.140 . S
N20 C23 1.346 . S
N20 C24 1.345 . S
C21 C22 1.387 . S
C21 C25 1.391 . S
C22 C21 1.387 . S
C22 C23 1.369 . S
C22 H31 0.929 . S
C23 N20 1.346 . S
C23 C22 1.369 . S
C23 H26 0.928 . S
C24 N20 1.345 . S
C24 C25 1.371 . S
C24 H27 0.931 . S
C25 C21 1.391 . S
C25 C24 1.371 . S
C25 H32 0.930 . S
H26 C23 0.928 . S
H27 C24 0.931 . S
H28 C4 0.930 . S
H29 C1 0.930 . S
H30 C10 0.930 . S
H31 C22 0.929 . S
H32 C25 0.930 . S
C33 C34 1.351 . S
C33 N36 1.368 . S
C33 H38 0.931 . S
C34 C33 1.351 . S
C34 N35 1.373 . S
C34 H62 0.930 . S
N35 C34 1.373 . S
N35 C37 1.340 . S
N36 C33 1.368 . S
N36 C37 1.321 . S
N36 Co39 2.135 1_655 S
C37 N35 1.340 . S
C37 N36 1.321 . S
C37 H61 0.930 . S
H38 C33 0.931 . S
Co39 N36 2.135 1_455 S
Co39 N42 2.121 1_565 S
Co39 O47 2.055 . S
Co39 O50 2.039 . S
Co39 N53 2.140 1_565 S
C40 O41 1.227 1_565 S
C40 O50 1.265 . S
O41 C40 1.227 1_545 S
N42 Co39 2.121 1_545 S
N42 C44 1.375 . S
N42 C45 1.316 . S
C43 C44 1.338 . S
C43 N46 1.377 . S
C43 H63 0.930 . S
C44 N42 1.375 . S
C44 C43 1.338 . S
C44 H48 0.931 . S
C45 N42 1.316 . S
C45 N46 1.349 . S
C45 H49 0.923 1_545 S
N46 C43 1.377 . S
N46 C45 1.349 . S
O47 Co39 2.055 . S
O47 C51 1.253 . S
H48 C44 0.931 . S
H49 C45 0.923 1_565 S
O50 Co39 2.039 . S
O50 C40 1.265 . S
C51 O47 1.253 . S
C51 O52 1.227 . S
O52 C51 1.227 . S
N53 Co39 2.140 1_545 S
N53 C56 1.346 . S
N53 C57 1.345 . S
C54 C55 1.387 . S
C54 C58 1.391 . S
C55 C54 1.387 . S
C55 C56 1.369 . S
C55 H64 0.929 1_455 S
C56 N53 1.346 . S
C56 C55 1.369 . S
C56 H59 0.928 1_455 S
C57 N53 1.345 . S
C57 C58 1.371 . S
C57 H60 0.931 . S
C58 C54 1.391 . S
C58 C57 1.371 . S
C58 H65 0.930 . S
H59 C56 0.928 1_655 S
H60 C57 0.931 . S
H61 C37 0.930 . S
H62 C34 0.930 . S
H63 C43 0.930 . S
H64 C55 0.929 1_655 S
H65 C58 0.930 . S
C66 C67 1.351 . S
C66 N69 1.368 . S
C66 H71 0.931 . S
C67 C66 1.351 . S
C67 N68 1.373 . S
C67 H95 0.930 . S
N68 C67 1.373 . S
N68 C70 1.340 . S
N69 C66 1.368 . S
N69 C70 1.321 . S
N69 Co72 2.135 . S
C70 N68 1.340 . S
C70 N69 1.321 . S
C70 H94 0.930 . S
H71 C66 0.931 . S
Co72 N69 2.135 . S
Co72 N75 2.121 . S
Co72 O80 2.055 . S
Co72 O83 2.039 . S
Co72 N86 2.140 . S
C73 O74 1.227 . S
C73 O83 1.265 . S
O74 C73 1.227 . S
N75 Co72 2.121 . S
N75 C77 1.375 . S
N75 C78 1.313 . S
C76 C77 1.338 . S
C76 N79 1.377 . S
C76 H96 0.930 . S
C77 N75 1.375 . S
C77 C76 1.338 . S
C77 H81 0.931 . S
C78 N75 1.313 . S
C78 N79 1.344 . S
C78 H82 0.930 . S
N79 C76 1.377 . S
N79 C78 1.344 . S
O80 Co72 2.055 . S
O80 C84 1.253 . S
H81 C77 0.931 . S
H82 C78 0.930 . S
O83 Co72 2.039 . S
O83 C73 1.265 . S
C84 O80 1.253 . S
C84 O85 1.227 . S
O85 C84 1.227 . S
N86 Co72 2.140 . S
N86 C89 1.346 . S
N86 C90 1.345 . S
C87 C88 1.387 . S
C87 C91 1.391 . S
C88 C87 1.387 . S
C88 C89 1.369 . S
C88 H97 0.929 . S
C89 N86 1.346 . S
C89 C88 1.369 . S
C89 H92 0.928 . S
C90 N86 1.345 . S
C90 C91 1.371 . S
C90 H93 0.931 . S
C91 C87 1.391 . S
C91 C90 1.371 . S
C91 H98 0.930 . S
H92 C89 0.928 . S
H93 C90 0.931 . S
H94 C70 0.930 . S
H95 C67 0.930 . S
H96 C76 0.930 . S
H97 C88 0.929 . S
H98 C91 0.930 . S
C99 C100 1.351 . S
C99 N102 1.368 . S
C99 H104 0.931 . S
C100 C99 1.351 . S
C100 N101 1.373 . S
C100 H128 0.930 . S
N101 C100 1.373 . S
N101 C103 1.340 . S
N102 C99 1.368 . S
N102 C103 1.321 . S
N102 Co105 2.135 . S
C103 N101 1.340 . S
C103 N102 1.321 . S
C103 H127 0.930 . S
H104 C99 0.931 . S
Co105 N102 2.135 . S
Co105 N108 2.121 1_545 S
Co105 O113 2.055 . S
Co105 O116 2.039 . S
Co105 N119 2.140 1_545 S
C106 O107 1.227 1_545 S
C106 O116 1.265 . S
O107 C106 1.227 1_565 S
N108 Co105 2.121 1_565 S
N108 C110 1.375 . S
N108 C111 1.316 . S
C109 C110 1.338 . S
C109 N112 1.377 . S
C109 H129 0.930 . S
C110 N108 1.375 . S
C110 C109 1.338 . S
C110 H114 0.931 . S
C111 N108 1.316 . S
C111 N112 1.349 . S
C111 H115 0.923 1_565 S
N112 C109 1.377 . S
N112 C111 1.349 . S
O113 Co105 2.055 . S
O113 C117 1.253 . S
H114 C110 0.931 . S
H115 C111 0.923 1_545 S
O116 Co105 2.039 . S
O116 C106 1.265 . S
C117 O113 1.253 . S
C117 O118 1.227 . S
O118 C117 1.227 . S
N119 Co105 2.140 1_565 S
N119 C122 1.346 . S
N119 C123 1.345 . S
C120 C121 1.387 . S
C120 C124 1.391 . S
C121 C120 1.387 . S
C121 C122 1.369 . S
C121 H130 0.929 . S
C122 N119 1.346 . S
C122 C121 1.369 . S
C122 H125 0.928 . S
C123 N119 1.345 . S
C123 C124 1.371 . S
C123 H126 0.931 . S
C124 C120 1.391 . S
C124 C123 1.371 . S
C124 H131 0.930 . S
H125 C122 0.928 . S
H126 C123 0.931 . S
H127 C103 0.930 . S
H128 C100 0.930 . S
H129 C109 0.930 . S
H130 C121 0.929 . S
H131 C124 0.930 . S
C132 C133 1.351 . S
C132 N135 1.368 . S
C132 H137 0.931 . S
C133 C132 1.351 . S
C133 N134 1.373 . S
C133 H161 0.930 . S
N134 C133 1.373 . S
N134 C136 1.340 . S
N135 C132 1.368 . S
N135 C136 1.321 . S
N135 Co138 2.135 . S
C136 N134 1.340 . S
C136 N135 1.321 . S
C136 H160 0.930 . S
H137 C132 0.931 . S
Co138 N135 2.135 . S
Co138 N141 2.121 . S
Co138 O146 2.055 . S
Co138 O149 2.039 . S
Co138 N152 2.140 . S
C139 O140 1.227 . S
C139 O149 1.265 . S
O140 C139 1.227 . S
N141 Co138 2.121 . S
N141 C143 1.375 . S
N141 C144 1.313 . S
C142 C143 1.338 . S
C142 N145 1.377 . S
C142 H162 0.930 . S
C143 N141 1.375 . S
C143 C142 1.338 . S
C143 H147 0.931 . S
C144 N141 1.313 . S
C144 N145 1.344 . S
C144 H148 0.930 . S
N145 C142 1.377 . S
N145 C144 1.344 . S
O146 Co138 2.055 . S
O146 C150 1.253 . S
H147 C143 0.931 . S
H148 C144 0.930 . S
O149 Co138 2.039 . S
O149 C139 1.265 . S
C150 O146 1.253 . S
C150 O151 1.227 . S
O151 C150 1.227 . S
N152 Co138 2.140 . S
N152 C155 1.346 . S
N152 C156 1.345 . S
C153 C154 1.387 . S
C153 C157 1.391 . S
C154 C153 1.387 . S
C154 C155 1.369 . S
C154 H163 0.929 . S
C155 N152 1.346 . S
C155 C154 1.369 . S
C155 H158 0.928 . S
C156 N152 1.345 . S
C156 C157 1.371 . S
C156 H159 0.931 . S
C157 C153 1.391 . S
C157 C156 1.371 . S
C157 H164 0.930 . S
H158 C155 0.928 . S
H159 C156 0.931 . S
H160 C136 0.930 . S
H161 C133 0.930 . S
H162 C142 0.930 . S
H163 C154 0.929 . S
H164 C157 0.930 . S
C165 C166 1.351 . S
C165 N168 1.368 . S
C165 H170 0.931 . S
C166 C165 1.351 . S
C166 N167 1.373 . S
C166 H194 0.930 . S
N167 C166 1.373 . S
N167 C169 1.340 . S
N168 C165 1.368 . S
N168 C169 1.321 . S
N168 Co171 2.135 . S
C169 N167 1.340 . S
C169 N168 1.321 . S
C169 H193 0.930 . S
H170 C165 0.931 . S
Co171 N168 2.135 . S
Co171 N174 2.121 1_565 S
Co171 O179 2.055 . S
Co171 O182 2.039 . S
Co171 N185 2.140 1_565 S
C172 O173 1.227 1_565 S
C172 O182 1.265 . S
O173 C172 1.227 1_545 S
N174 Co171 2.121 1_545 S
N174 C176 1.375 . S
N174 C177 1.316 . S
C175 C176 1.338 . S
C175 N178 1.377 . S
C175 H195 0.930 . S
C176 N174 1.375 . S
C176 C175 1.338 . S
C176 H180 0.931 . S
C177 N174 1.316 . S
C177 N178 1.349 . S
C177 H181 0.923 1_545 S
N178 C175 1.377 . S
N178 C177 1.349 . S
O179 Co171 2.055 . S
O179 C183 1.253 . S
H180 C176 0.931 . S
H181 C177 0.923 1_565 S
O182 Co171 2.039 . S
O182 C172 1.265 . S
C183 O179 1.253 . S
C183 O184 1.227 . S
O184 C183 1.227 . S
N185 Co171 2.140 1_545 S
N185 C188 1.346 . S
N185 C189 1.345 . S
C186 C187 1.387 . S
C186 C190 1.391 . S
C187 C186 1.387 . S
C187 C188 1.369 . S
C187 H196 0.929 . S
C188 N185 1.346 . S
C188 C187 1.369 . S
C188 H191 0.928 . S
C189 N185 1.345 . S
C189 C190 1.371 . S
C189 H192 0.931 . S
C190 C186 1.391 . S
C190 C189 1.371 . S
C190 H197 0.930 . S
H191 C188 0.928 . S
H192 C189 0.931 . S
H193 C169 0.930 . S
H194 C166 0.930 . S
H195 C175 0.930 . S
H196 C187 0.929 . S
H197 C190 0.930 . S
C198 C199 1.351 . S
C198 N201 1.368 . S
C198 H203 0.931 . S
C199 C198 1.351 . S
C199 N200 1.373 . S
C199 H227 0.930 . S
N200 C199 1.373 . S
N200 C202 1.340 . S
N201 C198 1.368 . S
N201 C202 1.321 . S
N201 Co204 2.135 . S
C202 N200 1.340 . S
C202 N201 1.321 . S
C202 H226 0.930 . S
H203 C198 0.931 . S
Co204 N201 2.135 . S
Co204 N207 2.121 . S
Co204 O212 2.055 . S
Co204 O215 2.039 . S
Co204 N218 2.140 . S
C205 O206 1.227 . S
C205 O215 1.265 . S
O206 C205 1.227 . S
N207 Co204 2.121 . S
N207 C209 1.375 . S
N207 C210 1.313 . S
C208 C209 1.338 . S
C208 N211 1.377 . S
C208 H228 0.930 . S
C209 N207 1.375 . S
C209 C208 1.338 . S
C209 H213 0.931 . S
C210 N207 1.313 . S
C210 N211 1.344 . S
C210 H214 0.930 . S
N211 C208 1.377 . S
N211 C210 1.344 . S
O212 Co204 2.055 . S
O212 C216 1.253 . S
H213 C209 0.931 . S
H214 C210 0.930 . S
O215 Co204 2.039 . S
O215 C205 1.265 . S
C216 O212 1.253 . S
C216 O217 1.227 . S
O217 C216 1.227 . S
N218 Co204 2.140 . S
N218 C221 1.346 . S
N218 C222 1.345 . S
C219 C220 1.387 . S
C219 C223 1.391 . S
C220 C219 1.387 . S
C220 C221 1.369 . S
C220 H229 0.929 . S
C221 N218 1.346 . S
C221 C220 1.369 . S
C221 H224 0.928 . S
C222 N218 1.345 . S
C222 C223 1.371 . S
C222 H225 0.931 . S
C223 C219 1.391 . S
C223 C222 1.371 . S
C223 H230 0.930 . S
H224 C221 0.928 . S
H225 C222 0.931 . S
H226 C202 0.930 . S
H227 C199 0.930 . S
H228 C208 0.930 . S
H229 C220 0.929 . S
H230 C223 0.930 . S
C231 C232 1.351 . S
C231 N234 1.368 . S
C231 H236 0.931 . S
C232 C231 1.351 . S
C232 N233 1.373 . S
C232 H260 0.930 . S
N233 C232 1.373 . S
N233 C235 1.340 . S
N234 C231 1.368 . S
N234 C235 1.321 . S
N234 Co237 2.135 1_655 S
C235 N233 1.340 . S
C235 N234 1.321 . S
C235 H259 0.930 . S
H236 C231 0.931 . S
Co237 N234 2.135 1_455 S
Co237 N240 2.121 1_545 S
Co237 O245 2.055 . S
Co237 O248 2.039 . S
Co237 N251 2.140 1_545 S
C238 O239 1.227 1_545 S
C238 O248 1.265 . S
O239 C238 1.227 1_565 S
N240 Co237 2.121 1_565 S
N240 C242 1.375 . S
N240 C243 1.316 . S
C241 C242 1.338 . S
C241 N244 1.377 . S
C241 H261 0.930 . S
C242 N240 1.375 . S
C242 C241 1.338 . S
C242 H246 0.931 . S
C243 N240 1.316 . S
C243 N244 1.349 . S
C243 H247 0.923 1_565 S
N244 C241 1.377 . S
N244 C243 1.349 . S
O245 Co237 2.055 . S
O245 C249 1.253 . S
H246 C242 0.931 . S
H247 C243 0.923 1_545 S
O248 Co237 2.039 . S
O248 C238 1.265 . S
C249 O245 1.253 . S
C249 O250 1.227 . S
O250 C249 1.227 . S
N251 Co237 2.140 1_565 S
N251 C254 1.346 . S
N251 C255 1.345 . S
C252 C253 1.387 . S
C252 C256 1.391 . S
C253 C252 1.387 . S
C253 C254 1.369 . S
C253 H262 0.929 1_455 S
C254 N251 1.346 . S
C254 C253 1.369 . S
C254 H257 0.928 1_455 S
C255 N251 1.345 . S
C255 C256 1.371 . S
C255 H258 0.931 . S
C256 C252 1.391 . S
C256 C255 1.371 . S
C256 H263 0.930 . S
H257 C254 0.928 1_655 S
H258 C255 0.931 . S
H259 C235 0.930 . S
H260 C232 0.930 . S
H261 C241 0.930 . S
H262 C253 0.929 1_655 S
H263 C256 0.930 . S
C264 C265 1.351 . S
C264 N267 1.368 . S
C264 H269 0.931 . S
C265 C264 1.351 . S
C265 N266 1.373 . S
C265 H293 0.930 . S
N266 C265 1.373 . S
N266 C268 1.340 . S
N267 C264 1.368 . S
N267 C268 1.321 . S
N267 Co270 2.135 . S
C268 N266 1.340 . S
C268 N267 1.321 . S
C268 H292 0.930 . S
H269 C264 0.931 . S
Co270 N267 2.135 . S
Co270 N273 2.121 . S
Co270 O278 2.055 . S
Co270 O281 2.039 . S
Co270 N284 2.140 . S
C271 O272 1.227 . S
C271 O281 1.265 . S
O272 C271 1.227 . S
N273 Co270 2.121 . S
N273 C275 1.375 . S
N273 C276 1.313 . S
C274 C275 1.338 . S
C274 N277 1.377 . S
C274 H294 0.930 . S
C275 N273 1.375 . S
C275 C274 1.338 . S
C275 H279 0.931 . S
C276 N273 1.313 . S
C276 N277 1.344 . S
C276 H280 0.930 . S
N277 C274 1.377 . S
N277 C276 1.344 . S
O278 Co270 2.055 . S
O278 C282 1.253 . S
H279 C275 0.931 . S
H280 C276 0.930 . S
O281 Co270 2.039 . S
O281 C271 1.265 . S
C282 O278 1.253 . S
C282 O283 1.227 . S
O283 C282 1.227 . S
N284 Co270 2.140 . S
N284 C287 1.346 . S
N284 C288 1.345 . S
C285 C286 1.387 . S
C285 C289 1.391 . S
C286 C285 1.387 . S
C286 C287 1.369 . S
C286 H295 0.929 . S
C287 N284 1.346 . S
C287 C286 1.369 . S
C287 H290 0.928 . S
C288 N284 1.345 . S
C288 C289 1.371 . S
C288 H291 0.931 . S
C289 C285 1.391 . S
C289 C288 1.371 . S
C289 H296 0.930 . S
H290 C287 0.928 . S
H291 C288 0.931 . S
H292 C268 0.930 . S
H293 C265 0.930 . S
H294 C274 0.930 . S
H295 C286 0.929 . S
H296 C289 0.930 . S
C297 C298 1.351 . S
C297 N300 1.368 . S
C297 H302 0.931 . S
C298 C297 1.351 . S
C298 N299 1.373 . S
C298 H326 0.930 . S
N299 C298 1.373 . S
N299 C301 1.340 . S
N300 C297 1.368 . S
N300 C301 1.321 . S
N300 Co303 2.135 1_455 S
C301 N299 1.340 . S
C301 N300 1.321 . S
C301 H325 0.930 . S
H302 C297 0.931 . S
Co303 N300 2.135 1_655 S
Co303 N306 2.121 1_545 S
Co303 O311 2.055 . S
Co303 O314 2.039 . S
Co303 N317 2.140 1_545 S
C304 O305 1.227 1_545 S
C304 O314 1.265 . S
O305 C304 1.227 1_565 S
N306 Co303 2.121 1_565 S
N306 C308 1.375 . S
N306 C309 1.316 . S
C307 C308 1.338 . S
C307 N310 1.377 . S
C307 H327 0.930 . S
C308 N306 1.375 . S
C308 C307 1.338 . S
C308 H312 0.931 . S
C309 N306 1.316 . S
C309 N310 1.349 . S
C309 H313 0.923 1_565 S
N310 C307 1.377 . S
N310 C309 1.349 . S
O311 Co303 2.055 . S
O311 C315 1.253 . S
H312 C308 0.931 . S
H313 C309 0.923 1_545 S
O314 Co303 2.039 . S
O314 C304 1.265 . S
C315 O311 1.253 . S
C315 O316 1.227 . S
O316 C315 1.227 . S
N317 Co303 2.140 1_565 S
N317 C320 1.346 . S
N317 C321 1.345 . S
C318 C319 1.387 . S
C318 C322 1.391 . S
C319 C318 1.387 . S
C319 C320 1.369 . S
C319 H328 0.929 1_655 S
C320 N317 1.346 . S
C320 C319 1.369 . S
C320 H323 0.928 1_655 S
C321 N317 1.345 . S
C321 C322 1.371 . S
C321 H324 0.931 . S
C322 C318 1.391 . S
C322 C321 1.371 . S
C322 H329 0.930 . S
H323 C320 0.928 1_455 S
H324 C321 0.931 . S
H325 C301 0.930 . S
H326 C298 0.930 . S
H327 C307 0.930 . S
H328 C319 0.929 1_455 S
H329 C322 0.930 . S
C330 C331 1.351 . S
C330 N333 1.368 . S
C330 H335 0.931 . S
C331 C330 1.351 . S
C331 N332 1.373 . S
C331 H359 0.930 . S
N332 C331 1.373 . S
N332 C334 1.340 . S
N333 C330 1.368 . S
N333 C334 1.321 . S
N333 Co336 2.135 . S
C334 N332 1.340 . S
C334 N333 1.321 . S
C334 H358 0.930 . S
H335 C330 0.931 . S
Co336 N333 2.135 . S
Co336 N339 2.121 . S
Co336 O344 2.055 . S
Co336 O347 2.039 . S
Co336 N350 2.140 . S
C337 O338 1.227 . S
C337 O347 1.265 . S
O338 C337 1.227 . S
N339 Co336 2.121 . S
N339 C341 1.375 . S
N339 C342 1.313 . S
C340 C341 1.338 . S
C340 N343 1.377 . S
C340 H360 0.930 . S
C341 N339 1.375 . S
C341 C340 1.338 . S
C341 H345 0.931 . S
C342 N339 1.313 . S
C342 N343 1.344 . S
C342 H346 0.930 . S
N343 C340 1.377 . S
N343 C342 1.344 . S
O344 Co336 2.055 . S
O344 C348 1.253 . S
H345 C341 0.931 . S
H346 C342 0.930 . S
O347 Co336 2.039 . S
O347 C337 1.265 . S
C348 O344 1.253 . S
C348 O349 1.227 . S
O349 C348 1.227 . S
N350 Co336 2.140 . S
N350 C353 1.346 . S
N350 C354 1.345 . S
C351 C352 1.387 . S
C351 C355 1.391 . S
C352 C351 1.387 . S
C352 C353 1.369 . S
C352 H361 0.929 . S
C353 N350 1.346 . S
C353 C352 1.369 . S
C353 H356 0.928 . S
C354 N350 1.345 . S
C354 C355 1.371 . S
C354 H357 0.931 . S
C355 C351 1.391 . S
C355 C354 1.371 . S
C355 H362 0.930 . S
H356 C353 0.928 . S
H357 C354 0.931 . S
H358 C334 0.930 . S
H359 C331 0.930 . S
H360 C340 0.930 . S
H361 C352 0.929 . S
H362 C355 0.930 . S
C363 C364 1.351 . S
C363 N366 1.368 . S
C363 H368 0.931 . S
C364 C363 1.351 . S
C364 N365 1.373 . S
C364 H392 0.930 . S
N365 C364 1.373 . S
N365 C367 1.340 . S
N366 C363 1.368 . S
N366 C367 1.321 . S
N366 Co369 2.135 . S
C367 N365 1.340 . S
C367 N366 1.321 . S
C367 H391 0.930 . S
H368 C363 0.931 . S
Co369 N366 2.135 . S
Co369 N372 2.121 1_565 S
Co369 O377 2.055 . S
Co369 O380 2.039 . S
Co369 N383 2.140 1_565 S
C370 O371 1.227 1_565 S
C370 O380 1.265 . S
O371 C370 1.227 1_545 S
N372 Co369 2.121 1_545 S
N372 C374 1.375 . S
N372 C375 1.316 . S
C373 C374 1.338 . S
C373 N376 1.377 . S
C373 H393 0.930 . S
C374 N372 1.375 . S
C374 C373 1.338 . S
C374 H378 0.931 . S
C375 N372 1.316 . S
C375 N376 1.349 . S
C375 H379 0.923 1_545 S
N376 C373 1.377 . S
N376 C375 1.349 . S
O377 Co369 2.055 . S
O377 C381 1.253 . S
H378 C374 0.931 . S
H379 C375 0.923 1_565 S
O380 Co369 2.039 . S
O380 C370 1.265 . S
C381 O377 1.253 . S
C381 O382 1.227 . S
O382 C381 1.227 . S
N383 Co369 2.140 1_545 S
N383 C386 1.346 . S
N383 C387 1.345 . S
C384 C385 1.387 . S
C384 C388 1.391 . S
C385 C384 1.387 . S
C385 C386 1.369 . S
C385 H394 0.929 . S
C386 N383 1.346 . S
C386 C385 1.369 . S
C386 H389 0.928 . S
C387 N383 1.345 . S
C387 C388 1.371 . S
C387 H390 0.931 . S
C388 C384 1.391 . S
C388 C387 1.371 . S
C388 H395 0.930 . S
H389 C386 0.928 . S
H390 C387 0.931 . S
H391 C367 0.930 . S
H392 C364 0.930 . S
H393 C373 0.930 . S
H394 C385 0.929 . S
H395 C388 0.930 . S
C396 C397 1.351 . S
C396 N399 1.368 . S
C396 H401 0.931 . S
C397 C396 1.351 . S
C397 N398 1.373 . S
C397 H425 0.930 . S
N398 C397 1.373 . S
N398 C400 1.340 . S
N399 C396 1.368 . S
N399 C400 1.321 . S
N399 Co402 2.135 . S
C400 N398 1.340 . S
C400 N399 1.321 . S
C400 H424 0.930 . S
H401 C396 0.931 . S
Co402 N399 2.135 . S
Co402 N405 2.121 . S
Co402 O410 2.055 . S
Co402 O413 2.039 . S
Co402 N416 2.140 . S
C403 O404 1.227 . S
C403 O413 1.265 . S
O404 C403 1.227 . S
N405 Co402 2.121 . S
N405 C407 1.375 . S
N405 C408 1.313 . S
C406 C407 1.338 . S
C406 N409 1.377 . S
C406 H426 0.930 . S
C407 N405 1.375 . S
C407 C406 1.338 . S
C407 H411 0.931 . S
C408 N405 1.313 . S
C408 N409 1.344 . S
C408 H412 0.930 . S
N409 C406 1.377 . S
N409 C408 1.344 . S
O410 Co402 2.055 . S
O410 C414 1.253 . S
H411 C407 0.931 . S
H412 C408 0.930 . S
O413 Co402 2.039 . S
O413 C403 1.265 . S
C414 O410 1.253 . S
C414 O415 1.227 . S
O415 C414 1.227 . S
N416 Co402 2.140 . S
N416 C419 1.346 . S
N416 C420 1.345 . S
C417 C418 1.387 . S
C417 C421 1.391 . S
C418 C417 1.387 . S
C418 C419 1.369 . S
C418 H427 0.929 . S
C419 N416 1.346 . S
C419 C418 1.369 . S
C419 H422 0.928 . S
C420 N416 1.345 . S
C420 C421 1.371 . S
C420 H423 0.931 . S
C421 C417 1.391 . S
C421 C420 1.371 . S
C421 H428 0.930 . S
H422 C419 0.928 . S
H423 C420 0.931 . S
H424 C400 0.930 . S
H425 C397 0.930 . S
H426 C406 0.930 . S
H427 C418 0.929 . S
H428 C421 0.930 . S
C429 C430 1.351 . S
C429 N432 1.368 . S
C429 H434 0.931 . S
C430 C429 1.351 . S
C430 N431 1.373 . S
C430 H458 0.930 . S
N431 C430 1.373 . S
N431 C433 1.340 . S
N432 C429 1.368 . S
N432 C433 1.321 . S
N432 Co435 2.135 . S
C433 N431 1.340 . S
C433 N432 1.321 . S
C433 H457 0.930 . S
H434 C429 0.931 . S
Co435 N432 2.135 . S
Co435 N438 2.121 1_545 S
Co435 O443 2.055 . S
Co435 O446 2.039 . S
Co435 N449 2.140 1_545 S
C436 O437 1.227 1_545 S
C436 O446 1.265 . S
O437 C436 1.227 1_565 S
N438 Co435 2.121 1_565 S
N438 C440 1.375 . S
N438 C441 1.316 . S
C439 C440 1.338 . S
C439 N442 1.377 . S
C439 H459 0.930 . S
C440 N438 1.375 . S
C440 C439 1.338 . S
C440 H444 0.931 . S
C441 N438 1.316 . S
C441 N442 1.349 . S
C441 H445 0.923 1_565 S
N442 C439 1.377 . S
N442 C441 1.349 . S
O443 Co435 2.055 . S
O443 C447 1.253 . S
H444 C440 0.931 . S
H445 C441 0.923 1_545 S
O446 Co435 2.039 . S
O446 C436 1.265 . S
C447 O443 1.253 . S
C447 O448 1.227 . S
O448 C447 1.227 . S
N449 Co435 2.140 1_565 S
N449 C452 1.346 . S
N449 C453 1.345 . S
C450 C451 1.387 . S
C450 C454 1.391 . S
C451 C450 1.387 . S
C451 C452 1.369 . S
C451 H460 0.929 . S
C452 N449 1.346 . S
C452 C451 1.369 . S
C452 H455 0.928 . S
C453 N449 1.345 . S
C453 C454 1.371 . S
C453 H456 0.931 . S
C454 C450 1.391 . S
C454 C453 1.371 . S
C454 H461 0.930 . S
H455 C452 0.928 . S
H456 C453 0.931 . S
H457 C433 0.930 . S
H458 C430 0.930 . S
H459 C439 0.930 . S
H460 C451 0.929 . S
H461 C454 0.930 . S
C462 C463 1.351 . S
C462 N465 1.368 . S
C462 H467 0.931 . S
C463 C462 1.351 . S
C463 N464 1.373 . S
C463 H491 0.930 . S
N464 C463 1.373 . S
N464 C466 1.340 . S
N465 C462 1.368 . S
N465 C466 1.321 . S
N465 Co468 2.135 . S
C466 N464 1.340 . S
C466 N465 1.321 . S
C466 H490 0.930 . S
H467 C462 0.931 . S
Co468 N465 2.135 . S
Co468 N471 2.121 . S
Co468 O476 2.055 . S
Co468 O479 2.039 . S
Co468 N482 2.140 . S
C469 O470 1.227 . S
C469 O479 1.265 . S
O470 C469 1.227 . S
N471 Co468 2.121 . S
N471 C473 1.375 . S
N471 C474 1.313 . S
C472 C473 1.338 . S
C472 N475 1.377 . S
C472 H492 0.930 . S
C473 N471 1.375 . S
C473 C472 1.338 . S
C473 H477 0.931 . S
C474 N471 1.313 . S
C474 N475 1.344 . S
C474 H478 0.930 . S
N475 C472 1.377 . S
N475 C474 1.344 . S
O476 Co468 2.055 . S
O476 C480 1.253 . S
H477 C473 0.931 . S
H478 C474 0.930 . S
O479 Co468 2.039 . S
O479 C469 1.265 . S
C480 O476 1.253 . S
C480 O481 1.227 . S
O481 C480 1.227 . S
N482 Co468 2.140 . S
N482 C485 1.346 . S
N482 C486 1.345 . S
C483 C484 1.387 . S
C483 C487 1.391 . S
C484 C483 1.387 . S
C484 C485 1.369 . S
C484 H493 0.929 . S
C485 N482 1.346 . S
C485 C484 1.369 . S
C485 H488 0.928 . S
C486 N482 1.345 . S
C486 C487 1.371 . S
C486 H489 0.931 . S
C487 C483 1.391 . S
C487 C486 1.371 . S
C487 H494 0.930 . S
H488 C485 0.928 . S
H489 C486 0.931 . S
H490 C466 0.930 . S
H491 C463 0.930 . S
H492 C472 0.930 . S
H493 C484 0.929 . S
H494 C487 0.930 . S
C495 C496 1.351 . S
C495 N498 1.368 . S
C495 H500 0.931 . S
C496 C495 1.351 . S
C496 N497 1.373 . S
C496 H524 0.930 . S
N497 C496 1.373 . S
N497 C499 1.340 . S
N498 C495 1.368 . S
N498 C499 1.321 . S
N498 Co501 2.135 1_455 S
C499 N497 1.340 . S
C499 N498 1.321 . S
C499 H523 0.930 . S
H500 C495 0.931 . S
Co501 N498 2.135 1_655 S
Co501 N504 2.121 1_565 S
Co501 O509 2.055 . S
Co501 O512 2.039 . S
Co501 N515 2.140 1_565 S
C502 O503 1.227 1_565 S
C502 O512 1.265 . S
O503 C502 1.227 1_545 S
N504 Co501 2.121 1_545 S
N504 C506 1.375 . S
N504 C507 1.316 . S
C505 C506 1.338 . S
C505 N508 1.377 . S
C505 H525 0.930 . S
C506 N504 1.375 . S
C506 C505 1.338 . S
C506 H510 0.931 . S
C507 N504 1.316 . S
C507 N508 1.349 . S
C507 H511 0.923 1_545 S
N508 C505 1.377 . S
N508 C507 1.349 . S
O509 Co501 2.055 . S
O509 C513 1.253 . S
H510 C506 0.931 . S
H511 C507 0.923 1_565 S
O512 Co501 2.039 . S
O512 C502 1.265 . S
C513 O509 1.253 . S
C513 O514 1.227 . S
O514 C513 1.227 . S
N515 Co501 2.140 1_545 S
N515 C518 1.346 . S
N515 C519 1.345 . S
C516 C517 1.387 . S
C516 C520 1.391 . S
C517 C516 1.387 . S
C517 C518 1.369 . S
C517 H526 0.929 1_655 S
C518 N515 1.346 . S
C518 C517 1.369 . S
C518 H521 0.928 1_655 S
C519 N515 1.345 . S
C519 C520 1.371 . S
C519 H522 0.931 . S
C520 C516 1.391 . S
C520 C519 1.371 . S
C520 H527 0.930 . S
H521 C518 0.928 1_455 S
H522 C519 0.931 . S
H523 C499 0.930 . S
H524 C496 0.930 . S
H525 C505 0.930 . S
H526 C517 0.929 1_455 S
H527 C520 0.930 . S
C528 C529 1.351 . S
C528 N531 1.368 . S
C528 H533 0.931 . S
C529 C528 1.351 . S
C529 N530 1.373 . S
C529 H557 0.930 . S
N530 C529 1.373 . S
N530 C532 1.340 . S
N531 C528 1.368 . S
N531 C532 1.321 . S
N531 Co534 2.135 . S
C532 N530 1.340 . S
C532 N531 1.321 . S
C532 H556 0.930 . S
H533 C528 0.931 . S
Co534 N531 2.135 . S
Co534 N537 2.121 . S
Co534 O542 2.055 . S
Co534 O545 2.039 . S
Co534 N548 2.140 . S
C535 O536 1.227 . S
C535 O545 1.265 . S
O536 C535 1.227 . S
N537 Co534 2.121 . S
N537 C539 1.375 . S
N537 C540 1.313 . S
C538 C539 1.338 . S
C538 N541 1.377 . S
C538 H558 0.930 . S
C539 N537 1.375 . S
C539 C538 1.338 . S
C539 H543 0.931 . S
C540 N537 1.313 . S
C540 N541 1.344 . S
C540 H544 0.930 . S
N541 C538 1.377 . S
N541 C540 1.344 . S
O542 Co534 2.055 . S
O542 C546 1.253 . S
H543 C539 0.931 . S
H544 C540 0.930 . S
O545 Co534 2.039 . S
O545 C535 1.265 . S
C546 O542 1.253 . S
C546 O547 1.227 . S
O547 C546 1.227 . S
N548 Co534 2.140 . S
N548 C551 1.346 . S
N548 C552 1.345 . S
C549 C550 1.387 . S
C549 C553 1.391 . S
C550 C549 1.387 . S
C550 C551 1.369 . S
C550 H559 0.929 . S
C551 N548 1.346 . S
C551 C550 1.369 . S
C551 H554 0.928 . S
C552 N548 1.345 . S
C552 C553 1.371 . S
C552 H555 0.931 . S
C553 C549 1.391 . S
C553 C552 1.371 . S
C553 H560 0.930 . S
H554 C551 0.928 . S
H555 C552 0.931 . S
H556 C532 0.930 . S
H557 C529 0.930 . S
H558 C538 0.930 . S
H559 C550 0.929 . S
H560 C553 0.930 . S
C561 C562 1.351 . S
C561 N564 1.368 . S
C561 H566 0.931 . S
C562 C561 1.351 . S
C562 N563 1.373 . S
C562 H590 0.930 . S
N563 C562 1.373 . S
N563 C565 1.340 . S
N564 C561 1.368 . S
N564 C565 1.321 . S
N564 Co567 2.135 . S
C565 N563 1.340 . S
C565 N564 1.321 . S
C565 H589 0.930 . S
H566 C561 0.931 . S
Co567 N564 2.135 . S
Co567 N570 2.121 . S
Co567 O575 2.055 . S
Co567 O578 2.039 . S
Co567 N581 2.140 . S
C568 O569 1.227 . S
C568 O578 1.265 . S
O569 C568 1.227 . S
N570 Co567 2.121 . S
N570 C572 1.375 . S
N570 C573 1.313 . S
C571 C572 1.338 . S
C571 N574 1.377 . S
C571 H591 0.930 . S
C572 N570 1.375 . S
C572 C571 1.338 . S
C572 H576 0.931 . S
C573 N570 1.313 . S
C573 N574 1.344 . S
C573 H577 0.930 . S
N574 C571 1.377 . S
N574 C573 1.344 . S
O575 Co567 2.055 . S
O575 C579 1.253 . S
H576 C572 0.931 . S
H577 C573 0.930 . S
O578 Co567 2.039 . S
O578 C568 1.265 . S
C579 O575 1.253 . S
C579 O580 1.227 . S
O580 C579 1.227 . S
N581 Co567 2.140 . S
N581 C584 1.346 . S
N581 C585 1.345 . S
C582 C583 1.387 . S
C582 C586 1.391 . S
C583 C582 1.387 . S
C583 C584 1.369 . S
C583 H592 0.929 . S
C584 N581 1.346 . S
C584 C583 1.369 . S
C584 H587 0.928 . S
C585 N581 1.345 . S
C585 C586 1.371 . S
C585 H588 0.931 . S
C586 C582 1.391 . S
C586 C585 1.371 . S
C586 H593 0.930 . S
H587 C584 0.928 . S
H588 C585 0.931 . S
H589 C565 0.930 . S
H590 C562 0.930 . S
H591 C571 0.930 . S
H592 C583 0.929 . S
H593 C586 0.930 . S
C594 C595 1.351 . S
C594 N597 1.368 . S
C594 H599 0.931 . S
C595 C594 1.351 . S
C595 N596 1.373 . S
C595 H623 0.930 . S
N596 C595 1.373 . S
N596 C598 1.340 . S
N597 C594 1.368 . S
N597 C598 1.321 . S
N597 Co600 2.135 . S
C598 N596 1.340 . S
C598 N597 1.321 . S
C598 H622 0.930 . S
H599 C594 0.931 . S
Co600 N597 2.135 . S
Co600 N603 2.121 . S
Co600 O608 2.055 . S
Co600 O611 2.039 . S
Co600 N614 2.140 . S
C601 O602 1.227 . S
C601 O611 1.265 . S
O602 C601 1.227 . S
N603 Co600 2.121 . S
N603 C605 1.375 . S
N603 C606 1.313 . S
C604 C605 1.338 . S
C604 N607 1.377 . S
C604 H624 0.930 . S
C605 N603 1.375 . S
C605 C604 1.338 . S
C605 H609 0.931 . S
C606 N603 1.313 . S
C606 N607 1.344 . S
C606 H610 0.930 . S
N607 C604 1.377 . S
N607 C606 1.344 . S
O608 Co600 2.055 . S
O608 C612 1.253 . S
H609 C605 0.931 . S
H610 C606 0.930 . S
O611 Co600 2.039 . S
O611 C601 1.265 . S
C612 O608 1.253 . S
C612 O613 1.227 . S
O613 C612 1.227 . S
N614 Co600 2.140 . S
N614 C617 1.346 . S
N614 C618 1.345 . S
C615 C616 1.387 . S
C615 C619 1.391 . S
C616 C615 1.387 . S
C616 C617 1.369 . S
C616 H625 0.929 . S
C617 N614 1.346 . S
C617 C616 1.369 . S
C617 H620 0.928 . S
C618 N614 1.345 . S
C618 C619 1.371 . S
C618 H621 0.931 . S
C619 C615 1.391 . S
C619 C618 1.371 . S
C619 H626 0.930 . S
H620 C617 0.928 . S
H621 C618 0.931 . S
H622 C598 0.930 . S
H623 C595 0.930 . S
H624 C604 0.930 . S
H625 C616 0.929 . S
H626 C619 0.930 . S
C627 C628 1.351 . S
C627 N630 1.368 . S
C627 H632 0.931 . S
C628 C627 1.351 . S
C628 N629 1.373 . S
C628 H656 0.930 . S
N629 C628 1.373 . S
N629 C631 1.340 . S
N630 C627 1.368 . S
N630 C631 1.321 . S
N630 Co633 2.135 1_455 S
C631 N629 1.340 . S
C631 N630 1.321 . S
C631 H655 0.930 . S
H632 C627 0.931 . S
Co633 N630 2.135 1_655 S
Co633 N636 2.121 . S
Co633 O641 2.055 . S
Co633 O644 2.039 . S
Co633 N647 2.140 . S
C634 O635 1.227 . S
C634 O644 1.265 . S
O635 C634 1.227 . S
N636 Co633 2.121 . S
N636 C638 1.375 . S
N636 C639 1.313 . S
C637 C638 1.338 . S
C637 N640 1.377 . S
C637 H657 0.930 . S
C638 N636 1.375 . S
C638 C637 1.338 . S
C638 H642 0.931 . S
C639 N636 1.313 . S
C639 N640 1.344 . S
C639 H643 0.930 . S
N640 C637 1.377 . S
N640 C639 1.344 . S
O641 Co633 2.055 . S
O641 C645 1.253 . S
H642 C638 0.931 . S
H643 C639 0.930 . S
O644 Co633 2.039 . S
O644 C634 1.265 . S
C645 O641 1.253 . S
C645 O646 1.227 . S
O646 C645 1.227 . S
N647 Co633 2.140 . S
N647 C650 1.346 . S
N647 C651 1.345 . S
C648 C649 1.387 . S
C648 C652 1.391 . S
C649 C648 1.387 . S
C649 C650 1.369 . S
C649 H658 0.929 1_655 S
C650 N647 1.346 . S
C650 C649 1.369 . S
C650 H653 0.928 1_655 S
C651 N647 1.345 . S
C651 C652 1.371 . S
C651 H654 0.931 . S
C652 C648 1.391 . S
C652 C651 1.371 . S
C652 H659 0.930 . S
H653 C650 0.928 1_455 S
H654 C651 0.931 . S
H655 C631 0.930 . S
H656 C628 0.930 . S
H657 C637 0.930 . S
H658 C649 0.929 1_455 S
H659 C652 0.930 . S
C660 C661 1.351 . S
C660 N663 1.368 . S
C660 H665 0.931 . S
C661 C660 1.351 . S
C661 N662 1.373 . S
C661 H689 0.930 . S
N662 C661 1.373 . S
N662 C664 1.340 . S
N663 C660 1.368 . S
N663 C664 1.321 . S
N663 Co666 2.135 . S
C664 N662 1.340 . S
C664 N663 1.321 . S
C664 H688 0.930 . S
H665 C660 0.931 . S
Co666 N663 2.135 . S
Co666 N669 2.121 . S
Co666 O674 2.055 . S
Co666 O677 2.039 . S
Co666 N680 2.140 . S
C667 O668 1.227 . S
C667 O677 1.265 . S
O668 C667 1.227 . S
N669 Co666 2.121 . S
N669 C671 1.375 . S
N669 C672 1.313 . S
C670 C671 1.338 . S
C670 N673 1.377 . S
C670 H690 0.930 . S
C671 N669 1.375 . S
C671 C670 1.338 . S
C671 H675 0.931 . S
C672 N669 1.313 . S
C672 N673 1.344 . S
C672 H676 0.930 . S
N673 C670 1.377 . S
N673 C672 1.344 . S
O674 Co666 2.055 . S
O674 C678 1.253 . S
H675 C671 0.931 . S
H676 C672 0.930 . S
O677 Co666 2.039 . S
O677 C667 1.265 . S
C678 O674 1.253 . S
C678 O679 1.227 . S
O679 C678 1.227 . S
N680 Co666 2.140 . S
N680 C683 1.346 . S
N680 C684 1.345 . S
C681 C682 1.387 . S
C681 C685 1.391 . S
C682 C681 1.387 . S
C682 C683 1.369 . S
C682 H691 0.929 . S
C683 N680 1.346 . S
C683 C682 1.369 . S
C683 H686 0.928 . S
C684 N680 1.345 . S
C684 C685 1.371 . S
C684 H687 0.931 . S
C685 C681 1.391 . S
C685 C684 1.371 . S
C685 H692 0.930 . S
H686 C683 0.928 . S
H687 C684 0.931 . S
H688 C664 0.930 . S
H689 C661 0.930 . S
H690 C670 0.930 . S
H691 C682 0.929 . S
H692 C685 0.930 . S
C693 C694 1.351 . S
C693 N696 1.368 . S
C693 H698 0.931 . S
C694 C693 1.351 . S
C694 N695 1.373 . S
C694 H722 0.930 . S
N695 C694 1.373 . S
N695 C697 1.340 . S
N696 C693 1.368 . S
N696 C697 1.321 . S
N696 Co699 2.135 1_455 S
C697 N695 1.340 . S
C697 N696 1.321 . S
C697 H721 0.930 . S
H698 C693 0.931 . S
Co699 N696 2.135 1_655 S
Co699 N702 2.121 . S
Co699 O707 2.055 . S
Co699 O710 2.039 . S
Co699 N713 2.140 . S
C700 O701 1.227 . S
C700 O710 1.265 . S
O701 C700 1.227 . S
N702 Co699 2.121 . S
N702 C704 1.375 . S
N702 C705 1.313 . S
C703 C704 1.338 . S
C703 N706 1.377 . S
C703 H723 0.930 . S
C704 N702 1.375 . S
C704 C703 1.338 . S
C704 H708 0.931 . S
C705 N702 1.313 . S
C705 N706 1.344 . S
C705 H709 0.930 . S
N706 C703 1.377 . S
N706 C705 1.344 . S
O707 Co699 2.055 . S
O707 C711 1.253 . S
H708 C704 0.931 . S
H709 C705 0.930 . S
O710 Co699 2.039 . S
O710 C700 1.265 . S
C711 O707 1.253 . S
C711 O712 1.227 . S
O712 C711 1.227 . S
N713 Co699 2.140 . S
N713 C716 1.346 . S
N713 C717 1.345 . S
C714 C715 1.387 . S
C714 C718 1.391 . S
C715 C714 1.387 . S
C715 C716 1.369 . S
C715 H724 0.929 1_655 S
C716 N713 1.346 . S
C716 C715 1.369 . S
C716 H719 0.928 1_655 S
C717 N713 1.345 . S
C717 C718 1.371 . S
C717 H720 0.931 . S
C718 C714 1.391 . S
C718 C717 1.371 . S
C718 H725 0.930 . S
H719 C716 0.928 1_455 S
H720 C717 0.931 . S
H721 C697 0.930 . S
H722 C694 0.930 . S
H723 C703 0.930 . S
H724 C715 0.929 1_455 S
H725 C718 0.930 . S
C726 C727 1.351 . S
C726 N729 1.368 . S
C726 H731 0.931 . S
C727 C726 1.351 . S
C727 N728 1.373 . S
C727 H755 0.930 . S
N728 C727 1.373 . S
N728 C730 1.340 . S
N729 C726 1.368 . S
N729 C730 1.321 . S
N729 Co732 2.135 . S
C730 N728 1.340 . S
C730 N729 1.321 . S
C730 H754 0.930 . S
H731 C726 0.931 . S
Co732 N729 2.135 . S
Co732 N735 2.121 . S
Co732 O740 2.055 . S
Co732 O743 2.039 . S
Co732 N746 2.140 . S
C733 O734 1.227 . S
C733 O743 1.265 . S
O734 C733 1.227 . S
N735 Co732 2.121 . S
N735 C737 1.375 . S
N735 C738 1.313 . S
C736 C737 1.338 . S
C736 N739 1.377 . S
C736 H756 0.930 . S
C737 N735 1.375 . S
C737 C736 1.338 . S
C737 H741 0.931 . S
C738 N735 1.313 . S
C738 N739 1.344 . S
C738 H742 0.930 . S
N739 C736 1.377 . S
N739 C738 1.344 . S
O740 Co732 2.055 . S
O740 C744 1.253 . S
H741 C737 0.931 . S
H742 C738 0.930 . S
O743 Co732 2.039 . S
O743 C733 1.265 . S
C744 O740 1.253 . S
C744 O745 1.227 . S
O745 C744 1.227 . S
N746 Co732 2.140 . S
N746 C749 1.346 . S
N746 C750 1.345 . S
C747 C748 1.387 . S
C747 C751 1.391 . S
C748 C747 1.387 . S
C748 C749 1.369 . S
C748 H757 0.929 . S
C749 N746 1.346 . S
C749 C748 1.369 . S
C749 H752 0.928 . S
C750 N746 1.345 . S
C750 C751 1.371 . S
C750 H753 0.931 . S
C751 C747 1.391 . S
C751 C750 1.371 . S
C751 H758 0.930 . S
H752 C749 0.928 . S
H753 C750 0.931 . S
H754 C730 0.930 . S
H755 C727 0.930 . S
H756 C736 0.930 . S
H757 C748 0.929 . S
H758 C751 0.930 . S
C759 C760 1.351 . S
C759 N762 1.368 . S
C759 H764 0.931 . S
C760 C759 1.351 . S
C760 N761 1.373 . S
C760 H788 0.930 . S
N761 C760 1.373 . S
N761 C763 1.340 . S
N762 C759 1.368 . S
N762 C763 1.321 . S
N762 Co765 2.135 . S
C763 N761 1.340 . S
C763 N762 1.321 . S
C763 H787 0.930 . S
H764 C759 0.931 . S
Co765 N762 2.135 . S
Co765 N768 2.121 . S
Co765 O773 2.055 . S
Co765 O776 2.039 . S
Co765 N779 2.140 . S
C766 O767 1.227 . S
C766 O776 1.265 . S
O767 C766 1.227 . S
N768 Co765 2.121 . S
N768 C770 1.375 . S
N768 C771 1.313 . S
C769 C770 1.338 . S
C769 N772 1.377 . S
C769 H789 0.930 . S
C770 N768 1.375 . S
C770 C769 1.338 . S
C770 H774 0.931 . S
C771 N768 1.313 . S
C771 N772 1.344 . S
C771 H775 0.930 . S
N772 C769 1.377 . S
N772 C771 1.344 . S
O773 Co765 2.055 . S
O773 C777 1.253 . S
H774 C770 0.931 . S
H775 C771 0.930 . S
O776 Co765 2.039 . S
O776 C766 1.265 . S
C777 O773 1.253 . S
C777 O778 1.227 . S
O778 C777 1.227 . S
N779 Co765 2.140 . S
N779 C782 1.346 . S
N779 C783 1.345 . S
C780 C781 1.387 . S
C780 C784 1.391 . S
C781 C780 1.387 . S
C781 C782 1.369 . S
C781 H790 0.929 . S
C782 N779 1.346 . S
C782 C781 1.369 . S
C782 H785 0.928 . S
C783 N779 1.345 . S
C783 C784 1.371 . S
C783 H786 0.931 . S
C784 C780 1.391 . S
C784 C783 1.371 . S
C784 H791 0.930 . S
H785 C782 0.928 . S
H786 C783 0.931 . S
H787 C763 0.930 . S
H788 C760 0.930 . S
H789 C769 0.930 . S
H790 C781 0.929 . S
H791 C784 0.930 . S
C792 C793 1.351 . S
C792 N795 1.368 . S
C792 H797 0.931 . S
C793 C792 1.351 . S
C793 N794 1.373 . S
C793 H821 0.930 . S
N794 C793 1.373 . S
N794 C796 1.340 . S
N795 C792 1.368 . S
N795 C796 1.321 . S
N795 Co798 2.135 . S
C796 N794 1.340 . S
C796 N795 1.321 . S
C796 H820 0.930 . S
H797 C792 0.931 . S
Co798 N795 2.135 . S
Co798 N801 2.121 . S
Co798 O806 2.055 . S
Co798 O809 2.039 . S
Co798 N812 2.140 . S
C799 O800 1.227 . S
C799 O809 1.265 . S
O800 C799 1.227 . S
N801 Co798 2.121 . S
N801 C803 1.375 . S
N801 C804 1.313 . S
C802 C803 1.338 . S
C802 N805 1.377 . S
C802 H822 0.930 . S
C803 N801 1.375 . S
C803 C802 1.338 . S
C803 H807 0.931 . S
C804 N801 1.313 . S
C804 N805 1.344 . S
C804 H808 0.930 . S
N805 C802 1.377 . S
N805 C804 1.344 . S
O806 Co798 2.055 . S
O806 C810 1.253 . S
H807 C803 0.931 . S
H808 C804 0.930 . S
O809 Co798 2.039 . S
O809 C799 1.265 . S
C810 O806 1.253 . S
C810 O811 1.227 . S
O811 C810 1.227 . S
N812 Co798 2.140 . S
N812 C815 1.346 . S
N812 C816 1.345 . S
C813 C814 1.387 . S
C813 C817 1.391 . S
C814 C813 1.387 . S
C814 C815 1.369 . S
C814 H823 0.929 . S
C815 N812 1.346 . S
C815 C814 1.369 . S
C815 H818 0.928 . S
C816 N812 1.345 . S
C816 C817 1.371 . S
C816 H819 0.931 . S
C817 C813 1.391 . S
C817 C816 1.371 . S
C817 H824 0.930 . S
H818 C815 0.928 . S
H819 C816 0.931 . S
H820 C796 0.930 . S
H821 C793 0.930 . S
H822 C802 0.930 . S
H823 C814 0.929 . S
H824 C817 0.930 . S
C825 C826 1.351 . S
C825 N828 1.368 . S
C825 H830 0.931 . S
C826 C825 1.351 . S
C826 N827 1.373 . S
C826 H854 0.930 . S
N827 C826 1.373 . S
N827 C829 1.340 . S
N828 C825 1.368 . S
N828 C829 1.321 . S
N828 Co831 2.135 . S
C829 N827 1.340 . S
C829 N828 1.321 . S
C829 H853 0.930 . S
H830 C825 0.931 . S
Co831 N828 2.135 . S
Co831 N834 2.121 . S
Co831 O839 2.055 . S
Co831 O842 2.039 . S
Co831 N845 2.140 . S
C832 O833 1.227 . S
C832 O842 1.265 . S
O833 C832 1.227 . S
N834 Co831 2.121 . S
N834 C836 1.375 . S
N834 C837 1.313 . S
C835 C836 1.338 . S
C835 N838 1.377 . S
C835 H855 0.930 . S
C836 N834 1.375 . S
C836 C835 1.338 . S
C836 H840 0.931 . S
C837 N834 1.313 . S
C837 N838 1.344 . S
C837 H841 0.930 . S
N838 C835 1.377 . S
N838 C837 1.344 . S
O839 Co831 2.055 . S
O839 C843 1.253 . S
H840 C836 0.931 . S
H841 C837 0.930 . S
O842 Co831 2.039 . S
O842 C832 1.265 . S
C843 O839 1.253 . S
C843 O844 1.227 . S
O844 C843 1.227 . S
N845 Co831 2.140 . S
N845 C848 1.346 . S
N845 C849 1.345 . S
C846 C847 1.387 . S
C846 C850 1.391 . S
C847 C846 1.387 . S
C847 C848 1.369 . S
C847 H856 0.929 . S
C848 N845 1.346 . S
C848 C847 1.369 . S
C848 H851 0.928 . S
C849 N845 1.345 . S
C849 C850 1.371 . S
C849 H852 0.931 . S
C850 C846 1.391 . S
C850 C849 1.371 . S
C850 H857 0.930 . S
H851 C848 0.928 . S
H852 C849 0.931 . S
H853 C829 0.930 . S
H854 C826 0.930 . S
H855 C835 0.930 . S
H856 C847 0.929 . S
H857 C850 0.930 . S
C858 C859 1.351 . S
C858 N861 1.368 . S
C858 H863 0.931 . S
C859 C858 1.351 . S
C859 N860 1.373 . S
C859 H887 0.930 . S
N860 C859 1.373 . S
N860 C862 1.340 . S
N861 C858 1.368 . S
N861 C862 1.321 . S
N861 Co864 2.135 . S
C862 N860 1.340 . S
C862 N861 1.321 . S
C862 H886 0.930 . S
H863 C858 0.931 . S
Co864 N861 2.135 . S
Co864 N867 2.121 . S
Co864 O872 2.055 . S
Co864 O875 2.039 . S
Co864 N878 2.140 . S
C865 O866 1.227 . S
C865 O875 1.265 . S
O866 C865 1.227 . S
N867 Co864 2.121 . S
N867 C869 1.375 . S
N867 C870 1.313 . S
C868 C869 1.338 . S
C868 N871 1.377 . S
C868 H888 0.930 . S
C869 N867 1.375 . S
C869 C868 1.338 . S
C869 H873 0.931 . S
C870 N867 1.313 . S
C870 N871 1.344 . S
C870 H874 0.930 . S
N871 C868 1.377 . S
N871 C870 1.344 . S
O872 Co864 2.055 . S
O872 C876 1.253 . S
H873 C869 0.931 . S
H874 C870 0.930 . S
O875 Co864 2.039 . S
O875 C865 1.265 . S
C876 O872 1.253 . S
C876 O877 1.227 . S
O877 C876 1.227 . S
N878 Co864 2.140 . S
N878 C881 1.346 . S
N878 C882 1.345 . S
C879 C880 1.387 . S
C879 C883 1.391 . S
C880 C879 1.387 . S
C880 C881 1.369 . S
C880 H889 0.929 . S
C881 N878 1.346 . S
C881 C880 1.369 . S
C881 H884 0.928 . S
C882 N878 1.345 . S
C882 C883 1.371 . S
C882 H885 0.931 . S
C883 C879 1.391 . S
C883 C882 1.371 . S
C883 H890 0.930 . S
H884 C881 0.928 . S
H885 C882 0.931 . S
H886 C862 0.930 . S
H887 C859 0.930 . S
H888 C868 0.930 . S
H889 C880 0.929 . S
H890 C883 0.930 . S
C891 C892 1.351 . S
C891 N894 1.368 . S
C891 H896 0.931 . S
C892 C891 1.351 . S
C892 N893 1.373 . S
C892 H920 0.930 . S
N893 C892 1.373 . S
N893 C895 1.340 . S
N894 C891 1.368 . S
N894 C895 1.321 . S
N894 Co897 2.135 1_655 S
C895 N893 1.340 . S
C895 N894 1.321 . S
C895 H919 0.930 . S
H896 C891 0.931 . S
Co897 N894 2.135 1_455 S
Co897 N900 2.121 . S
Co897 O905 2.055 . S
Co897 O908 2.039 . S
Co897 N911 2.140 . S
C898 O899 1.227 . S
C898 O908 1.265 . S
O899 C898 1.227 . S
N900 Co897 2.121 . S
N900 C902 1.375 . S
N900 C903 1.313 . S
C901 C902 1.338 . S
C901 N904 1.377 . S
C901 H921 0.930 . S
C902 N900 1.375 . S
C902 C901 1.338 . S
C902 H906 0.931 . S
C903 N900 1.313 . S
C903 N904 1.344 . S
C903 H907 0.930 . S
N904 C901 1.377 . S
N904 C903 1.344 . S
O905 Co897 2.055 . S
O905 C909 1.253 . S
H906 C902 0.931 . S
H907 C903 0.930 . S
O908 Co897 2.039 . S
O908 C898 1.265 . S
C909 O905 1.253 . S
C909 O910 1.227 . S
O910 C909 1.227 . S
N911 Co897 2.140 . S
N911 C914 1.346 . S
N911 C915 1.345 . S
C912 C913 1.387 . S
C912 C916 1.391 . S
C913 C912 1.387 . S
C913 C914 1.369 . S
C913 H922 0.929 1_455 S
C914 N911 1.346 . S
C914 C913 1.369 . S
C914 H917 0.928 1_455 S
C915 N911 1.345 . S
C915 C916 1.371 . S
C915 H918 0.931 . S
C916 C912 1.391 . S
C916 C915 1.371 . S
C916 H923 0.930 . S
H917 C914 0.928 1_655 S
H918 C915 0.931 . S
H919 C895 0.930 . S
H920 C892 0.930 . S
H921 C901 0.930 . S
H922 C913 0.929 1_655 S
H923 C916 0.930 . S
C924 C925 1.351 . S
C924 N927 1.368 . S
C924 H929 0.931 . S
C925 C924 1.351 . S
C925 N926 1.373 . S
C925 H953 0.930 . S
N926 C925 1.373 . S
N926 C928 1.340 . S
N927 C924 1.368 . S
N927 C928 1.321 . S
N927 Co930 2.135 . S
C928 N926 1.340 . S
C928 N927 1.321 . S
C928 H952 0.930 . S
H929 C924 0.931 . S
Co930 N927 2.135 . S
Co930 N933 2.121 . S
Co930 O938 2.055 . S
Co930 O941 2.039 . S
Co930 N944 2.140 . S
C931 O932 1.227 . S
C931 O941 1.265 . S
O932 C931 1.227 . S
N933 Co930 2.121 . S
N933 C935 1.375 . S
N933 C936 1.313 . S
C934 C935 1.338 . S
C934 N937 1.377 . S
C934 H954 0.930 . S
C935 N933 1.375 . S
C935 C934 1.338 . S
C935 H939 0.931 . S
C936 N933 1.313 . S
C936 N937 1.344 . S
C936 H940 0.930 . S
N937 C934 1.377 . S
N937 C936 1.344 . S
O938 Co930 2.055 . S
O938 C942 1.253 . S
H939 C935 0.931 . S
H940 C936 0.930 . S
O941 Co930 2.039 . S
O941 C931 1.265 . S
C942 O938 1.253 . S
C942 O943 1.227 . S
O943 C942 1.227 . S
N944 Co930 2.140 . S
N944 C947 1.346 . S
N944 C948 1.345 . S
C945 C946 1.387 . S
C945 C949 1.391 . S
C946 C945 1.387 . S
C946 C947 1.369 . S
C946 H955 0.929 . S
C947 N944 1.346 . S
C947 C946 1.369 . S
C947 H950 0.928 . S
C948 N944 1.345 . S
C948 C949 1.371 . S
C948 H951 0.931 . S
C949 C945 1.391 . S
C949 C948 1.371 . S
C949 H956 0.930 . S
H950 C947 0.928 . S
H951 C948 0.931 . S
H952 C928 0.930 . S
H953 C925 0.930 . S
H954 C934 0.930 . S
H955 C946 0.929 . S
H956 C949 0.930 . S
C957 C958 1.351 . S
C957 N960 1.368 . S
C957 H962 0.931 . S
C958 C957 1.351 . S
C958 N959 1.373 . S
C958 H986 0.930 . S
N959 C958 1.373 . S
N959 C961 1.340 . S
N960 C957 1.368 . S
N960 C961 1.321 . S
N960 Co963 2.135 1_655 S
C961 N959 1.340 . S
C961 N960 1.321 . S
C961 H985 0.930 . S
H962 C957 0.931 . S
Co963 N960 2.135 1_455 S
Co963 N966 2.121 . S
Co963 O971 2.055 . S
Co963 O974 2.039 . S
Co963 N977 2.140 . S
C964 O965 1.227 . S
C964 O974 1.265 . S
O965 C964 1.227 . S
N966 Co963 2.121 . S
N966 C968 1.375 . S
N966 C969 1.313 . S
C967 C968 1.338 . S
C967 N970 1.377 . S
C967 H987 0.930 . S
C968 N966 1.375 . S
C968 C967 1.338 . S
C968 H972 0.931 . S
C969 N966 1.313 . S
C969 N970 1.344 . S
C969 H973 0.930 . S
N970 C967 1.377 . S
N970 C969 1.344 . S
O971 Co963 2.055 . S
O971 C975 1.253 . S
H972 C968 0.931 . S
H973 C969 0.930 . S
O974 Co963 2.039 . S
O974 C964 1.265 . S
C975 O971 1.253 . S
C975 O976 1.227 . S
O976 C975 1.227 . S
N977 Co963 2.140 . S
N977 C980 1.346 . S
N977 C981 1.345 . S
C978 C979 1.387 . S
C978 C982 1.391 . S
C979 C978 1.387 . S
C979 C980 1.369 . S
C979 H988 0.929 1_455 S
C980 N977 1.346 . S
C980 C979 1.369 . S
C980 H983 0.928 1_455 S
C981 N977 1.345 . S
C981 C982 1.371 . S
C981 H984 0.931 . S
C982 C978 1.391 . S
C982 C981 1.371 . S
C982 H989 0.930 . S
H983 C980 0.928 1_655 S
H984 C981 0.931 . S
H985 C961 0.930 . S
H986 C958 0.930 . S
H987 C967 0.930 . S
H988 C979 0.929 1_655 S
H989 C982 0.930 . S
C990 C991 1.351 . S
C990 N993 1.368 . S
C990 H995 0.931 . S
C991 C990 1.351 . S
C991 N992 1.373 . S
C991 H1019 0.930 . S
N992 C991 1.373 . S
N992 C994 1.340 . S
N993 C990 1.368 . S
N993 C994 1.321 . S
N993 Co996 2.135 . S
C994 N992 1.340 . S
C994 N993 1.321 . S
C994 H1018 0.930 . S
H995 C990 0.931 . S
Co996 N993 2.135 . S
Co996 N999 2.121 . S
Co996 O1004 2.055 . S
Co996 O1007 2.039 . S
Co996 N1010 2.140 . S
C997 O998 1.227 . S
C997 O1007 1.265 . S
O998 C997 1.227 . S
N999 Co996 2.121 . S
N999 C1001 1.375 . S
N999 C1002 1.313 . S
C1000 C1001 1.338 . S
C1000 N1003 1.377 . S
C1000 H1020 0.930 . S
C1001 N999 1.375 . S
C1001 C1000 1.338 . S
C1001 H1005 0.931 . S
C1002 N999 1.313 . S
C1002 N1003 1.344 . S
C1002 H1006 0.930 . S
N1003 C1000 1.377 . S
N1003 C1002 1.344 . S
O1004 Co996 2.055 . S
O1004 C1008 1.253 . S
H1005 C1001 0.931 . S
H1006 C1002 0.930 . S
O1007 Co996 2.039 . S
O1007 C997 1.265 . S
C1008 O1004 1.253 . S
C1008 O1009 1.227 . S
O1009 C1008 1.227 . S
N1010 Co996 2.140 . S
N1010 C1013 1.346 . S
N1010 C1014 1.345 . S
C1011 C1012 1.387 . S
C1011 C1015 1.391 . S
C1012 C1011 1.387 . S
C1012 C1013 1.369 . S
C1012 H1021 0.929 . S
C1013 N1010 1.346 . S
C1013 C1012 1.369 . S
C1013 H1016 0.928 . S
C1014 N1010 1.345 . S
C1014 C1015 1.371 . S
C1014 H1017 0.931 . S
C1015 C1011 1.391 . S
C1015 C1014 1.371 . S
C1015 H1022 0.930 . S
H1016 C1013 0.928 . S
H1017 C1014 0.931 . S
H1018 C994 0.930 . S
H1019 C991 0.930 . S
H1020 C1000 0.930 . S
H1021 C1012 0.929 . S
H1022 C1015 0.930 . S
C1023 C1024 1.351 . S
C1023 N1026 1.368 . S
C1023 H1028 0.931 . S
C1024 C1023 1.351 . S
C1024 N1025 1.373 . S
C1024 H1052 0.930 . S
N1025 C1024 1.373 . S
N1025 C1027 1.340 . S
N1026 C1023 1.368 . S
N1026 C1027 1.321 . S
N1026 Co1029 2.135 . S
C1027 N1025 1.340 . S
C1027 N1026 1.321 . S
C1027 H1051 0.930 . S
H1028 C1023 0.931 . S
Co1029 N1026 2.135 . S
Co1029 N1032 2.121 . S
Co1029 O1037 2.055 . S
Co1029 O1040 2.039 . S
Co1029 N1043 2.140 . S
C1030 O1031 1.227 . S
C1030 O1040 1.265 . S
O1031 C1030 1.227 . S
N1032 Co1029 2.121 . S
N1032 C1034 1.375 . S
N1032 C1035 1.313 . S
C1033 C1034 1.338 . S
C1033 N1036 1.377 . S
C1033 H1053 0.930 . S
C1034 N1032 1.375 . S
C1034 C1033 1.338 . S
C1034 H1038 0.931 . S
C1035 N1032 1.313 . S
C1035 N1036 1.344 . S
C1035 H1039 0.930 . S
N1036 C1033 1.377 . S
N1036 C1035 1.344 . S
O1037 Co1029 2.055 . S
O1037 C1041 1.253 . S
H1038 C1034 0.931 . S
H1039 C1035 0.930 . S
O1040 Co1029 2.039 . S
O1040 C1030 1.265 . S
C1041 O1037 1.253 . S
C1041 O1042 1.227 . S
O1042 C1041 1.227 . S
N1043 Co1029 2.140 . S
N1043 C1046 1.346 . S
N1043 C1047 1.345 . S
C1044 C1045 1.387 . S
C1044 C1048 1.391 . S
C1045 C1044 1.387 . S
C1045 C1046 1.369 . S
C1045 H1054 0.929 . S
C1046 N1043 1.346 . S
C1046 C1045 1.369 . S
C1046 H1049 0.928 . S
C1047 N1043 1.345 . S
C1047 C1048 1.371 . S
C1047 H1050 0.931 . S
C1048 C1044 1.391 . S
C1048 C1047 1.371 . S
C1048 H1055 0.930 . S
H1049 C1046 0.928 . S
H1050 C1047 0.931 . S
H1051 C1027 0.930 . S
H1052 C1024 0.930 . S
H1053 C1033 0.930 . S
H1054 C1045 0.929 . S
H1055 C1048 0.930 . S
H1056 C1062 0.930 . S
H1057 C1066 0.930 . S
H1058 C1071 0.929 . S
H1059 C1069 0.929 . S
H1060 C1064 0.929 . S
H1061 C1070 0.929 . S
C1062 H1056 0.930 . S
C1062 C1063 1.367 . S
C1062 C1070 1.378 . S
C1063 C1062 1.367 . S
C1063 C1071 1.433 . S
C1064 H1060 0.929 . S
C1064 C1066 1.378 . S
C1064 C1068 1.350 . S
C1065 C1068 1.463 . S
C1065 C1070 1.350 . S
C1065 N1073 1.427 . S
C1066 H1057 0.930 . S
C1066 C1064 1.378 . S
C1066 C1067 1.367 . S
C1067 C1066 1.367 . S
C1067 C1069 1.433 . S
C1068 C1064 1.350 . S
C1068 C1065 1.463 . S
C1068 N1072 1.427 . S
C1069 H1059 0.929 . S
C1069 C1067 1.433 . S
C1069 N1072 1.384 . S
C1070 H1061 0.929 . S
C1070 C1062 1.378 . S
C1070 C1065 1.350 . S
C1071 H1058 0.929 . S
C1071 C1063 1.433 . S
C1071 N1073 1.384 . S
N1072 C1068 1.427 . S
N1072 C1069 1.384 . S
N1073 C1065 1.427 . S
N1073 C1071 1.384 . S
H1074 C1080 0.930 . S
H1075 C1084 0.930 . S
H1076 C1089 0.929 . S
H1077 C1087 0.929 . S
H1078 C1082 0.929 . S
H1079 C1088 0.929 . S
C1080 H1074 0.930 . S
C1080 C1081 1.367 . S
C1080 C1088 1.378 . S
C1081 C1080 1.367 . S
C1081 C1089 1.433 . S
C1082 H1078 0.929 . S
C1082 C1084 1.378 . S
C1082 C1086 1.350 . S
C1083 C1086 1.463 . S
C1083 C1088 1.350 . S
C1083 N1091 1.427 . S
C1084 H1075 0.930 . S
C1084 C1082 1.378 . S
C1084 C1085 1.367 . S
C1085 C1084 1.367 . S
C1085 C1087 1.433 . S
C1086 C1082 1.350 . S
C1086 C1083 1.463 . S
C1086 N1090 1.427 . S
C1087 H1077 0.929 . S
C1087 C1085 1.433 . S
C1087 N1090 1.384 . S
C1088 H1079 0.929 . S
C1088 C1080 1.378 . S
C1088 C1083 1.350 . S
C1089 H1076 0.929 . S
C1089 C1081 1.433 . S
C1089 N1091 1.384 . S
N1090 C1086 1.427 . S
N1090 C1087 1.384 . S
N1091 C1083 1.427 . S
N1091 C1089 1.384 . S
H1092 C1098 0.930 . S
H1093 C1102 0.930 . S
H1094 C1107 0.929 . S
H1095 C1105 0.929 . S
H1096 C1100 0.929 . S
H1097 C1106 0.929 . S
C1098 H1092 0.930 . S
C1098 C1099 1.367 . S
C1098 C1106 1.378 . S
C1099 C1098 1.367 . S
C1099 C1107 1.433 . S
C1100 H1096 0.929 . S
C1100 C1102 1.378 . S
C1100 C1104 1.350 . S
C1101 C1104 1.463 . S
C1101 C1106 1.350 . S
C1101 N1109 1.427 . S
C1102 H1093 0.930 . S
C1102 C1100 1.378 . S
C1102 C1103 1.367 . S
C1103 C1102 1.367 . S
C1103 C1105 1.433 . S
C1104 C1100 1.350 . S
C1104 C1101 1.463 . S
C1104 N1108 1.427 . S
C1105 H1095 0.929 . S
C1105 C1103 1.433 . S
C1105 N1108 1.384 . S
C1106 H1097 0.929 . S
C1106 C1098 1.378 . S
C1106 C1101 1.350 . S
C1107 H1094 0.929 . S
C1107 C1099 1.433 . S
C1107 N1109 1.384 . S
N1108 C1104 1.427 . S
N1108 C1105 1.384 . S
N1109 C1101 1.427 . S
N1109 C1107 1.384 . S
H1110 C1116 0.930 . S
H1111 C1120 0.930 . S
H1112 C1125 0.929 . S
H1113 C1123 0.929 . S
H1114 C1118 0.929 . S
H1115 C1124 0.929 . S
C1116 H1110 0.930 . S
C1116 C1117 1.367 . S
C1116 C1124 1.378 . S
C1117 C1116 1.367 . S
C1117 C1125 1.433 . S
C1118 H1114 0.929 . S
C1118 C1120 1.378 . S
C1118 C1122 1.350 . S
C1119 C1122 1.463 . S
C1119 C1124 1.350 . S
C1119 N1127 1.427 . S
C1120 H1111 0.930 . S
C1120 C1118 1.378 . S
C1120 C1121 1.367 . S
C1121 C1120 1.367 . S
C1121 C1123 1.433 . S
C1122 C1118 1.350 . S
C1122 C1119 1.463 . S
C1122 N1126 1.427 . S
C1123 H1113 0.929 . S
C1123 C1121 1.433 . S
C1123 N1126 1.384 . S
C1124 H1115 0.929 . S
C1124 C1116 1.378 . S
C1124 C1119 1.350 . S
C1125 H1112 0.929 . S
C1125 C1117 1.433 . S
C1125 N1127 1.384 . S
N1126 C1122 1.427 . S
N1126 C1123 1.384 . S
N1127 C1119 1.427 . S
N1127 C1125 1.384 . S
H1128 C1134 0.930 . S
H1129 C1138 0.930 . S
H1130 C1143 0.929 . S
H1131 C1141 0.929 . S
H1132 C1136 0.929 . S
H1133 C1142 0.929 . S
C1134 H1128 0.930 . S
C1134 C1135 1.367 . S
C1134 C1142 1.378 . S
C1135 C1134 1.367 . S
C1135 C1143 1.433 . S
C1136 H1132 0.929 . S
C1136 C1138 1.378 . S
C1136 C1140 1.350 . S
C1137 C1140 1.463 . S
C1137 C1142 1.350 . S
C1137 N1145 1.427 . S
C1138 H1129 0.930 . S
C1138 C1136 1.378 . S
C1138 C1139 1.367 . S
C1139 C1138 1.367 . S
C1139 C1141 1.433 . S
C1140 C1136 1.350 . S
C1140 C1137 1.463 . S
C1140 N1144 1.427 . S
C1141 H1131 0.929 . S
C1141 C1139 1.433 . S
C1141 N1144 1.384 . S
C1142 H1133 0.929 . S
C1142 C1134 1.378 . S
C1142 C1137 1.350 . S
C1143 H1130 0.929 . S
C1143 C1135 1.433 . S
C1143 N1145 1.384 . S
N1144 C1140 1.427 . S
N1144 C1141 1.384 . S
N1145 C1137 1.427 . S
N1145 C1143 1.384 . S
H1146 C1152 0.930 . S
H1147 C1156 0.930 . S
H1148 C1161 0.929 . S
H1149 C1159 0.929 . S
H1150 C1154 0.929 . S
H1151 C1160 0.929 . S
C1152 H1146 0.930 . S
C1152 C1153 1.367 . S
C1152 C1160 1.378 . S
C1153 C1152 1.367 . S
C1153 C1161 1.433 . S
C1154 H1150 0.929 . S
C1154 C1156 1.378 . S
C1154 C1158 1.350 . S
C1155 C1158 1.463 . S
C1155 C1160 1.350 . S
C1155 N1163 1.427 . S
C1156 H1147 0.930 . S
C1156 C1154 1.378 . S
C1156 C1157 1.367 . S
C1157 C1156 1.367 . S
C1157 C1159 1.433 . S
C1158 C1154 1.350 . S
C1158 C1155 1.463 . S
C1158 N1162 1.427 . S
C1159 H1149 0.929 . S
C1159 C1157 1.433 . S
C1159 N1162 1.384 . S
C1160 H1151 0.929 . S
C1160 C1152 1.378 . S
C1160 C1155 1.350 . S
C1161 H1148 0.929 . S
C1161 C1153 1.433 . S
C1161 N1163 1.384 . S
N1162 C1158 1.427 . S
N1162 C1159 1.384 . S
N1163 C1155 1.427 . S
N1163 C1161 1.384 . S
H1164 C1170 0.930 . S
H1165 C1174 0.930 . S
H1166 C1179 0.929 . S
H1167 C1177 0.929 . S
H1168 C1172 0.929 . S
H1169 C1178 0.929 . S
C1170 H1164 0.930 . S
C1170 C1171 1.367 . S
C1170 C1178 1.378 . S
C1171 C1170 1.367 . S
C1171 C1179 1.433 . S
C1172 H1168 0.929 . S
C1172 C1174 1.378 . S
C1172 C1176 1.350 . S
C1173 C1176 1.463 . S
C1173 C1178 1.350 . S
C1173 N1181 1.427 . S
C1174 H1165 0.930 . S
C1174 C1172 1.378 . S
C1174 C1175 1.367 . S
C1175 C1174 1.367 . S
C1175 C1177 1.433 . S
C1176 C1172 1.350 . S
C1176 C1173 1.463 . S
C1176 N1180 1.427 . S
C1177 H1167 0.929 . S
C1177 C1175 1.433 . S
C1177 N1180 1.384 . S
C1178 H1169 0.929 . S
C1178 C1170 1.378 . S
C1178 C1173 1.350 . S
C1179 H1166 0.929 . S
C1179 C1171 1.433 . S
C1179 N1181 1.384 . S
N1180 C1176 1.427 . S
N1180 C1177 1.384 . S
N1181 C1173 1.427 . S
N1181 C1179 1.384 . S
H1182 C1188 0.930 . S
H1183 C1192 0.930 . S
H1184 C1197 0.929 . S
H1185 C1195 0.929 . S
H1186 C1190 0.929 . S
H1187 C1196 0.929 . S
C1188 H1182 0.930 . S
C1188 C1189 1.367 . S
C1188 C1196 1.378 . S
C1189 C1188 1.367 . S
C1189 C1197 1.433 . S
C1190 H1186 0.929 . S
C1190 C1192 1.378 . S
C1190 C1194 1.350 . S
C1191 C1194 1.463 . S
C1191 C1196 1.350 . S
C1191 N1199 1.427 . S
C1192 H1183 0.930 . S
C1192 C1190 1.378 . S
C1192 C1193 1.367 . S
C1193 C1192 1.367 . S
C1193 C1195 1.433 . S
C1194 C1190 1.350 . S
C1194 C1191 1.463 . S
C1194 N1198 1.427 . S
C1195 H1185 0.929 . S
C1195 C1193 1.433 . S
C1195 N1198 1.384 . S
C1196 H1187 0.929 . S
C1196 C1188 1.378 . S
C1196 C1191 1.350 . S
C1197 H1184 0.929 . S
C1197 C1189 1.433 . S
C1197 N1199 1.384 . S
N1198 C1194 1.427 . S
N1198 C1195 1.384 . S
N1199 C1191 1.427 . S
N1199 C1197 1.384 . S
H1200 C1206 0.930 . S
H1201 C1210 0.930 . S
H1202 C1215 0.929 . S
H1203 C1213 0.929 . S
H1204 C1208 0.929 . S
H1205 C1214 0.929 . S
C1206 H1200 0.930 . S
C1206 C1207 1.367 . S
C1206 C1214 1.378 . S
C1207 C1206 1.367 . S
C1207 C1215 1.433 . S
C1208 H1204 0.929 . S
C1208 C1210 1.378 . S
C1208 C1212 1.350 . S
C1209 C1212 1.463 . S
C1209 C1214 1.350 . S
C1209 N1217 1.427 . S
C1210 H1201 0.930 . S
C1210 C1208 1.378 . S
C1210 C1211 1.367 . S
C1211 C1210 1.367 . S
C1211 C1213 1.433 . S
C1212 C1208 1.350 . S
C1212 C1209 1.463 . S
C1212 N1216 1.427 . S
C1213 H1203 0.929 . S
C1213 C1211 1.433 . S
C1213 N1216 1.384 . S
C1214 H1205 0.929 . S
C1214 C1206 1.378 . S
C1214 C1209 1.350 . S
C1215 H1202 0.929 . S
C1215 C1207 1.433 . S
C1215 N1217 1.384 . S
N1216 C1212 1.427 . S
N1216 C1213 1.384 . S
N1217 C1209 1.427 . S
N1217 C1215 1.384 . S
H1218 C1224 0.930 . S
H1219 C1228 0.930 . S
H1220 C1233 0.929 . S
H1221 C1231 0.929 . S
H1222 C1226 0.929 . S
H1223 C1232 0.929 . S
C1224 H1218 0.930 . S
C1224 C1225 1.367 . S
C1224 C1232 1.378 . S
C1225 C1224 1.367 . S
C1225 C1233 1.433 . S
C1226 H1222 0.929 . S
C1226 C1228 1.378 . S
C1226 C1230 1.350 . S
C1227 C1230 1.463 . S
C1227 C1232 1.350 . S
C1227 N1235 1.427 . S
C1228 H1219 0.930 . S
C1228 C1226 1.378 . S
C1228 C1229 1.367 . S
C1229 C1228 1.367 . S
C1229 C1231 1.433 . S
C1230 C1226 1.350 . S
C1230 C1227 1.463 . S
C1230 N1234 1.427 . S
C1231 H1221 0.929 . S
C1231 C1229 1.433 . S
C1231 N1234 1.384 . S
C1232 H1223 0.929 . S
C1232 C1224 1.378 . S
C1232 C1227 1.350 . S
C1233 H1220 0.929 . S
C1233 C1225 1.433 . S
C1233 N1235 1.384 . S
N1234 C1230 1.427 . S
N1234 C1231 1.384 . S
N1235 C1227 1.427 . S
N1235 C1233 1.384 . S
H1236 C1242 0.930 . S
H1237 C1246 0.930 . S
H1238 C1251 0.929 . S
H1239 C1249 0.929 . S
H1240 C1244 0.929 . S
H1241 C1250 0.929 . S
C1242 H1236 0.930 . S
C1242 C1243 1.367 . S
C1242 C1250 1.378 . S
C1243 C1242 1.367 . S
C1243 C1251 1.433 . S
C1244 H1240 0.929 . S
C1244 C1246 1.378 . S
C1244 C1248 1.350 . S
C1245 C1248 1.463 . S
C1245 C1250 1.350 . S
C1245 N1253 1.427 . S
C1246 H1237 0.930 . S
C1246 C1244 1.378 . S
C1246 C1247 1.367 . S
C1247 C1246 1.367 . S
C1247 C1249 1.433 . S
C1248 C1244 1.350 . S
C1248 C1245 1.463 . S
C1248 N1252 1.427 . S
C1249 H1239 0.929 . S
C1249 C1247 1.433 . S
C1249 N1252 1.384 . S
C1250 H1241 0.929 . S
C1250 C1242 1.378 . S
C1250 C1245 1.350 . S
C1251 H1238 0.929 . S
C1251 C1243 1.433 . S
C1251 N1253 1.384 . S
N1252 C1248 1.427 . S
N1252 C1249 1.384 . S
N1253 C1245 1.427 . S
N1253 C1251 1.384 . S
H1254 C1260 0.930 . S
H1255 C1264 0.930 . S
H1256 C1269 0.929 . S
H1257 C1267 0.929 . S
H1258 C1262 0.929 . S
H1259 C1268 0.929 . S
C1260 H1254 0.930 . S
C1260 C1261 1.367 . S
C1260 C1268 1.378 . S
C1261 C1260 1.367 . S
C1261 C1269 1.433 . S
C1262 H1258 0.929 . S
C1262 C1264 1.378 . S
C1262 C1266 1.350 . S
C1263 C1266 1.463 . S
C1263 C1268 1.350 . S
C1263 N1271 1.427 . S
C1264 H1255 0.930 . S
C1264 C1262 1.378 . S
C1264 C1265 1.367 . S
C1265 C1264 1.367 . S
C1265 C1267 1.433 . S
C1266 C1262 1.350 . S
C1266 C1263 1.463 . S
C1266 N1270 1.427 . S
C1267 H1257 0.929 . S
C1267 C1265 1.433 . S
C1267 N1270 1.384 . S
C1268 H1259 0.929 . S
C1268 C1260 1.378 . S
C1268 C1263 1.350 . S
C1269 H1256 0.929 . S
C1269 C1261 1.433 . S
C1269 N1271 1.384 . S
N1270 C1266 1.427 . S
N1270 C1267 1.384 . S
N1271 C1263 1.427 . S
N1271 C1269 1.384 . S
H1272 C1278 0.930 . S
H1273 C1282 0.930 . S
H1274 C1287 0.929 . S
H1275 C1285 0.929 . S
H1276 C1280 0.929 . S
H1277 C1286 0.929 . S
C1278 H1272 0.930 . S
C1278 C1279 1.367 . S
C1278 C1286 1.378 . S
C1279 C1278 1.367 . S
C1279 C1287 1.433 . S
C1280 H1276 0.929 . S
C1280 C1282 1.378 . S
C1280 C1284 1.350 . S
C1281 C1284 1.463 . S
C1281 C1286 1.350 . S
C1281 N1289 1.427 . S
C1282 H1273 0.930 . S
C1282 C1280 1.378 . S
C1282 C1283 1.367 . S
C1283 C1282 1.367 . S
C1283 C1285 1.433 . S
C1284 C1280 1.350 . S
C1284 C1281 1.463 . S
C1284 N1288 1.427 . S
C1285 H1275 0.929 . S
C1285 C1283 1.433 . S
C1285 N1288 1.384 . S
C1286 H1277 0.929 . S
C1286 C1278 1.378 . S
C1286 C1281 1.350 . S
C1287 H1274 0.929 . S
C1287 C1279 1.433 . S
C1287 N1289 1.384 . S
N1288 C1284 1.427 . S
N1288 C1285 1.384 . S
N1289 C1281 1.427 . S
N1289 C1287 1.384 . S
H1290 C1296 0.930 . S
H1291 C1300 0.930 . S
H1292 C1305 0.929 . S
H1293 C1303 0.929 . S
H1294 C1298 0.929 . S
H1295 C1304 0.929 . S
C1296 H1290 0.930 . S
C1296 C1297 1.367 . S
C1296 C1304 1.378 . S
C1297 C1296 1.367 . S
C1297 C1305 1.433 . S
C1298 H1294 0.929 . S
C1298 C1300 1.378 . S
C1298 C1302 1.350 . S
C1299 C1302 1.463 . S
C1299 C1304 1.350 . S
C1299 N1307 1.427 . S
C1300 H1291 0.930 . S
C1300 C1298 1.378 . S
C1300 C1301 1.367 . S
C1301 C1300 1.367 . S
C1301 C1303 1.433 . S
C1302 C1298 1.350 . S
C1302 C1299 1.463 . S
C1302 N1306 1.427 . S
C1303 H1293 0.929 . S
C1303 C1301 1.433 . S
C1303 N1306 1.384 . S
C1304 H1295 0.929 . S
C1304 C1296 1.378 . S
C1304 C1299 1.350 . S
C1305 H1292 0.929 . S
C1305 C1297 1.433 . S
C1305 N1307 1.384 . S
N1306 C1302 1.427 . S
N1306 C1303 1.384 . S
N1307 C1299 1.427 . S
N1307 C1305 1.384 . S
H1308 C1314 0.930 . S
H1309 C1318 0.930 . S
H1310 C1323 0.929 . S
H1311 C1321 0.929 . S
H1312 C1316 0.929 . S
H1313 C1322 0.929 . S
C1314 H1308 0.930 . S
C1314 C1315 1.367 . S
C1314 C1322 1.378 . S
C1315 C1314 1.367 . S
C1315 C1323 1.433 . S
C1316 H1312 0.929 . S
C1316 C1318 1.378 . S
C1316 C1320 1.350 . S
C1317 C1320 1.463 . S
C1317 C1322 1.350 . S
C1317 N1325 1.427 . S
C1318 H1309 0.930 . S
C1318 C1316 1.378 . S
C1318 C1319 1.367 . S
C1319 C1318 1.367 . S
C1319 C1321 1.433 . S
C1320 C1316 1.350 . S
C1320 C1317 1.463 . S
C1320 N1324 1.427 . S
C1321 H1311 0.929 . S
C1321 C1319 1.433 . S
C1321 N1324 1.384 . S
C1322 H1313 0.929 . S
C1322 C1314 1.378 . S
C1322 C1317 1.350 . S
C1323 H1310 0.929 . S
C1323 C1315 1.433 . S
C1323 N1325 1.384 . S
N1324 C1320 1.427 . S
N1324 C1321 1.384 . S
N1325 C1317 1.427 . S
N1325 C1323 1.384 . S
H1326 C1332 0.930 . S
H1327 C1336 0.930 . S
H1328 C1341 0.929 . S
H1329 C1339 0.929 . S
H1330 C1334 0.929 . S
H1331 C1340 0.929 . S
C1332 H1326 0.930 . S
C1332 C1333 1.367 . S
C1332 C1340 1.378 . S
C1333 C1332 1.367 . S
C1333 C1341 1.433 . S
C1334 H1330 0.929 . S
C1334 C1336 1.378 . S
C1334 C1338 1.350 . S
C1335 C1338 1.463 . S
C1335 C1340 1.350 . S
C1335 N1343 1.427 . S
C1336 H1327 0.930 . S
C1336 C1334 1.378 . S
C1336 C1337 1.367 . S
C1337 C1336 1.367 . S
C1337 C1339 1.433 . S
C1338 C1334 1.350 . S
C1338 C1335 1.463 . S
C1338 N1342 1.427 . S
C1339 H1329 0.929 . S
C1339 C1337 1.433 . S
C1339 N1342 1.384 . S
C1340 H1331 0.929 . S
C1340 C1332 1.378 . S
C1340 C1335 1.350 . S
C1341 H1328 0.929 . S
C1341 C1333 1.433 . S
C1341 N1343 1.384 . S
N1342 C1338 1.427 . S
N1342 C1339 1.384 . S
N1343 C1335 1.427 . S
N1343 C1341 1.384 . S
H1344 C1350 0.930 . S
H1345 C1354 0.930 . S
H1346 C1359 0.929 . S
H1347 C1357 0.929 . S
H1348 C1352 0.929 . S
H1349 C1358 0.929 . S
C1350 H1344 0.930 . S
C1350 C1351 1.367 . S
C1350 C1358 1.378 . S
C1351 C1350 1.367 . S
C1351 C1359 1.433 . S
C1352 H1348 0.929 . S
C1352 C1354 1.378 . S
C1352 C1356 1.350 . S
C1353 C1356 1.463 1_556 S
C1353 C1358 1.350 . S
C1353 N1361 1.427 . S
C1354 H1345 0.930 . S
C1354 C1352 1.378 . S
C1354 C1355 1.367 . S
C1355 C1354 1.367 . S
C1355 C1357 1.433 . S
C1356 C1352 1.350 . S
C1356 C1353 1.463 1_554 S
C1356 N1360 1.427 . S
C1357 H1347 0.929 . S
C1357 C1355 1.433 . S
C1357 N1360 1.384 . S
C1358 H1349 0.929 . S
C1358 C1350 1.378 . S
C1358 C1353 1.350 . S
C1359 H1346 0.929 . S
C1359 C1351 1.433 . S
C1359 N1361 1.384 . S
N1360 C1356 1.427 . S
N1360 C1357 1.384 . S
N1361 C1353 1.427 . S
N1361 C1359 1.384 . S
H1362 C1368 0.930 1_655 S
H1363 C1372 0.930 . S
H1364 C1377 0.929 . S
H1365 C1375 0.929 1_655 S
H1366 C1370 0.929 . S
H1367 C1376 0.929 1_655 S
C1368 H1362 0.930 1_455 S
C1368 C1369 1.367 . S
C1368 C1376 1.378 . S
C1369 C1368 1.367 . S
C1369 C1377 1.433 1_565 S
C1370 H1366 0.929 . S
C1370 C1372 1.378 . S
C1370 C1374 1.350 . S
C1371 C1374 1.463 1_565 S
C1371 C1376 1.350 . S
C1371 N1379 1.427 1_565 S
C1372 H1363 0.930 . S
C1372 C1370 1.378 . S
C1372 C1373 1.367 . S
C1373 C1372 1.367 . S
C1373 C1375 1.433 1_545 S
C1374 C1370 1.350 . S
C1374 C1371 1.463 1_545 S
C1374 N1378 1.427 1_545 S
C1375 H1365 0.929 1_455 S
C1375 C1373 1.433 1_565 S
C1375 N1378 1.384 . S
C1376 H1367 0.929 1_455 S
C1376 C1368 1.378 . S
C1376 C1371 1.350 . S
C1377 H1364 0.929 . S
C1377 C1369 1.433 1_545 S
C1377 N1379 1.384 . S
N1378 C1374 1.427 1_565 S
N1378 C1375 1.384 . S
N1379 C1371 1.427 1_545 S
N1379 C1377 1.384 . S
H1380 C1386 0.930 . S
H1381 C1390 0.930 . S
H1382 C1395 0.929 . S
H1383 C1393 0.929 . S
H1384 C1388 0.929 . S
H1385 C1394 0.929 . S
C1386 H1380 0.930 . S
C1386 C1387 1.367 . S
C1386 C1394 1.378 . S
C1387 C1386 1.367 . S
C1387 C1395 1.433 . S
C1388 H1384 0.929 . S
C1388 C1390 1.378 . S
C1388 C1392 1.350 . S
C1389 C1392 1.463 . S
C1389 C1394 1.350 . S
C1389 N1397 1.427 . S
C1390 H1381 0.930 . S
C1390 C1388 1.378 . S
C1390 C1391 1.367 . S
C1391 C1390 1.367 . S
C1391 C1393 1.433 . S
C1392 C1388 1.350 . S
C1392 C1389 1.463 . S
C1392 N1396 1.427 . S
C1393 H1383 0.929 . S
C1393 C1391 1.433 . S
C1393 N1396 1.384 . S
C1394 H1385 0.929 . S
C1394 C1386 1.378 . S
C1394 C1389 1.350 . S
C1395 H1382 0.929 . S
C1395 C1387 1.433 . S
C1395 N1397 1.384 . S
N1396 C1392 1.427 . S
N1396 C1393 1.384 . S
N1397 C1389 1.427 . S
N1397 C1395 1.384 . S
H1398 C1404 0.930 . S
H1399 C1408 0.930 . S
H1400 C1413 0.929 . S
H1401 C1411 0.929 . S
H1402 C1406 0.929 . S
H1403 C1412 0.929 . S
C1404 H1398 0.930 . S
C1404 C1405 1.367 1_565 S
C1404 C1412 1.378 . S
C1405 C1404 1.367 1_545 S
C1405 C1413 1.433 . S
C1406 H1402 0.929 . S
C1406 C1408 1.378 . S
C1406 C1410 1.350 1_545 S
C1407 C1410 1.463 1_545 S
C1407 C1412 1.350 1_545 S
C1407 N1415 1.427 . S
C1408 H1399 0.930 . S
C1408 C1406 1.378 . S
C1408 C1409 1.367 1_545 S
C1409 C1408 1.367 1_565 S
C1409 C1411 1.433 . S
C1410 C1406 1.350 1_565 S
C1410 C1407 1.463 1_565 S
C1410 N1414 1.427 . S
C1411 H1401 0.929 . S
C1411 C1409 1.433 . S
C1411 N1414 1.384 . S
C1412 H1403 0.929 . S
C1412 C1404 1.378 . S
C1412 C1407 1.350 1_565 S
C1413 H1400 0.929 . S
C1413 C1405 1.433 . S
C1413 N1415 1.384 . S
N1414 C1410 1.427 . S
N1414 C1411 1.384 . S
N1415 C1407 1.427 . S
N1415 C1413 1.384 . S
H1416 C1422 0.930 . S
H1417 C1426 0.930 . S
H1418 C1431 0.929 . S
H1419 C1429 0.929 . S
H1420 C1424 0.929 . S
H1421 C1430 0.929 . S
C1422 H1416 0.930 . S
C1422 C1423 1.367 . S
C1422 C1430 1.378 . S
C1423 C1422 1.367 . S
C1423 C1431 1.433 . S
C1424 H1420 0.929 . S
C1424 C1426 1.378 . S
C1424 C1428 1.350 . S
C1425 C1428 1.463 1_556 S
C1425 C1430 1.350 . S
C1425 N1433 1.427 . S
C1426 H1417 0.930 . S
C1426 C1424 1.378 . S
C1426 C1427 1.367 . S
C1427 C1426 1.367 . S
C1427 C1429 1.433 . S
C1428 C1424 1.350 . S
C1428 C1425 1.463 1_554 S
C1428 N1432 1.427 . S
C1429 H1419 0.929 . S
C1429 C1427 1.433 . S
C1429 N1432 1.384 . S
C1430 H1421 0.929 . S
C1430 C1422 1.378 . S
C1430 C1425 1.350 . S
C1431 H1418 0.929 . S
C1431 C1423 1.433 . S
C1431 N1433 1.384 . S
N1432 C1428 1.427 . S
N1432 C1429 1.384 . S
N1433 C1425 1.427 . S
N1433 C1431 1.384 . S
H1434 C1440 0.930 . S
H1435 C1444 0.930 . S
H1436 C1449 0.929 . S
H1437 C1447 0.929 . S
H1438 C1442 0.929 . S
H1439 C1448 0.929 . S
C1440 H1434 0.930 . S
C1440 C1441 1.367 . S
C1440 C1448 1.378 . S
C1441 C1440 1.367 . S
C1441 C1449 1.433 1_565 S
C1442 H1438 0.929 . S
C1442 C1444 1.378 . S
C1442 C1446 1.350 . S
C1443 C1446 1.463 1_565 S
C1443 C1448 1.350 . S
C1443 N1451 1.427 1_565 S
C1444 H1435 0.930 . S
C1444 C1442 1.378 . S
C1444 C1445 1.367 . S
C1445 C1444 1.367 . S
C1445 C1447 1.433 1_545 S
C1446 C1442 1.350 . S
C1446 C1443 1.463 1_545 S
C1446 N1450 1.427 1_545 S
C1447 H1437 0.929 . S
C1447 C1445 1.433 1_565 S
C1447 N1450 1.384 . S
C1448 H1439 0.929 . S
C1448 C1440 1.378 . S
C1448 C1443 1.350 . S
C1449 H1436 0.929 . S
C1449 C1441 1.433 1_545 S
C1449 N1451 1.384 . S
N1450 C1446 1.427 1_565 S
N1450 C1447 1.384 . S
N1451 C1443 1.427 1_545 S
N1451 C1449 1.384 . S
H1452 C1458 0.930 . S
H1453 C1462 0.930 . S
H1454 C1467 0.929 . S
H1455 C1465 0.929 . S
H1456 C1460 0.929 . S
H1457 C1466 0.929 . S
C1458 H1452 0.930 . S
C1458 C1459 1.367 . S
C1458 C1466 1.378 . S
C1459 C1458 1.367 . S
C1459 C1467 1.433 . S
C1460 H1456 0.929 . S
C1460 C1462 1.378 . S
C1460 C1464 1.350 . S
C1461 C1464 1.463 . S
C1461 C1466 1.350 . S
C1461 N1469 1.427 . S
C1462 H1453 0.930 . S
C1462 C1460 1.378 . S
C1462 C1463 1.367 . S
C1463 C1462 1.367 . S
C1463 C1465 1.433 . S
C1464 C1460 1.350 . S
C1464 C1461 1.463 . S
C1464 N1468 1.427 . S
C1465 H1455 0.929 . S
C1465 C1463 1.433 . S
C1465 N1468 1.384 . S
C1466 H1457 0.929 . S
C1466 C1458 1.378 . S
C1466 C1461 1.350 . S
C1467 H1454 0.929 . S
C1467 C1459 1.433 . S
C1467 N1469 1.384 . S
N1468 C1464 1.427 . S
N1468 C1465 1.384 . S
N1469 C1461 1.427 . S
N1469 C1467 1.384 . S
H1470 C1476 0.930 . S
H1471 C1480 0.930 . S
H1472 C1485 0.929 . S
H1473 C1483 0.929 . S
H1474 C1478 0.929 . S
H1475 C1484 0.929 . S
C1476 H1470 0.930 . S
C1476 C1477 1.367 1_565 S
C1476 C1484 1.378 . S
C1477 C1476 1.367 1_545 S
C1477 C1485 1.433 . S
C1478 H1474 0.929 . S
C1478 C1480 1.378 . S
C1478 C1482 1.350 1_545 S
C1479 C1482 1.463 1_545 S
C1479 C1484 1.350 1_545 S
C1479 N1487 1.427 . S
C1480 H1471 0.930 . S
C1480 C1478 1.378 . S
C1480 C1481 1.367 1_545 S
C1481 C1480 1.367 1_565 S
C1481 C1483 1.433 . S
C1482 C1478 1.350 1_565 S
C1482 C1479 1.463 1_565 S
C1482 N1486 1.427 . S
C1483 H1473 0.929 . S
C1483 C1481 1.433 . S
C1483 N1486 1.384 . S
C1484 H1475 0.929 . S
C1484 C1476 1.378 . S
C1484 C1479 1.350 1_565 S
C1485 H1472 0.929 . S
C1485 C1477 1.433 . S
C1485 N1487 1.384 . S
N1486 C1482 1.427 . S
N1486 C1483 1.384 . S
N1487 C1479 1.427 . S
N1487 C1485 1.384 . S
H1488 C1494 0.930 . S
H1489 C1498 0.930 . S
H1490 C1503 0.929 . S
H1491 C1501 0.929 . S
H1492 C1496 0.929 . S
H1493 C1502 0.929 . S
C1494 H1488 0.930 . S
C1494 C1495 1.367 . S
C1494 C1502 1.378 . S
C1495 C1494 1.367 . S
C1495 C1503 1.433 . S
C1496 H1492 0.929 . S
C1496 C1498 1.378 . S
C1496 C1500 1.350 . S
C1497 C1500 1.463 . S
C1497 C1502 1.350 . S
C1497 N1505 1.427 . S
C1498 H1489 0.930 . S
C1498 C1496 1.378 . S
C1498 C1499 1.367 . S
C1499 C1498 1.367 . S
C1499 C1501 1.433 . S
C1500 C1496 1.350 . S
C1500 C1497 1.463 . S
C1500 N1504 1.427 . S
C1501 H1491 0.929 . S
C1501 C1499 1.433 . S
C1501 N1504 1.384 . S
C1502 H1493 0.929 . S
C1502 C1494 1.378 . S
C1502 C1497 1.350 . S
C1503 H1490 0.929 . S
C1503 C1495 1.433 . S
C1503 N1505 1.384 . S
N1504 C1500 1.427 . S
N1504 C1501 1.384 . S
N1505 C1497 1.427 . S
N1505 C1503 1.384 . S
H1506 C1512 0.930 . S
H1507 C1516 0.930 . S
H1508 C1521 0.929 . S
H1509 C1519 0.929 . S
H1510 C1514 0.929 . S
H1511 C1520 0.929 . S
C1512 H1506 0.930 . S
C1512 C1513 1.367 . S
C1512 C1520 1.378 . S
C1513 C1512 1.367 . S
C1513 C1521 1.433 . S
C1514 H1510 0.929 . S
C1514 C1516 1.378 . S
C1514 C1518 1.350 . S
C1515 C1518 1.463 . S
C1515 C1520 1.350 . S
C1515 N1523 1.427 . S
C1516 H1507 0.930 . S
C1516 C1514 1.378 . S
C1516 C1517 1.367 . S
C1517 C1516 1.367 . S
C1517 C1519 1.433 . S
C1518 C1514 1.350 . S
C1518 C1515 1.463 . S
C1518 N1522 1.427 . S
C1519 H1509 0.929 . S
C1519 C1517 1.433 . S
C1519 N1522 1.384 . S
C1520 H1511 0.929 . S
C1520 C1512 1.378 . S
C1520 C1515 1.350 . S
C1521 H1508 0.929 . S
C1521 C1513 1.433 . S
C1521 N1523 1.384 . S
N1522 C1518 1.427 . S
N1522 C1519 1.384 . S
N1523 C1515 1.427 . S
N1523 C1521 1.384 . S
H1524 C1530 0.930 . S
H1525 C1534 0.930 . S
H1526 C1539 0.929 . S
H1527 C1537 0.929 . S
H1528 C1532 0.929 . S
H1529 C1538 0.929 . S
C1530 H1524 0.930 . S
C1530 C1531 1.367 . S
C1530 C1538 1.378 . S
C1531 C1530 1.367 . S
C1531 C1539 1.433 . S
C1532 H1528 0.929 . S
C1532 C1534 1.378 . S
C1532 C1536 1.350 . S
C1533 C1536 1.463 1_556 S
C1533 C1538 1.350 . S
C1533 N1541 1.427 . S
C1534 H1525 0.930 . S
C1534 C1532 1.378 . S
C1534 C1535 1.367 . S
C1535 C1534 1.367 . S
C1535 C1537 1.433 . S
C1536 C1532 1.350 . S
C1536 C1533 1.463 1_554 S
C1536 N1540 1.427 . S
C1537 H1527 0.929 . S
C1537 C1535 1.433 . S
C1537 N1540 1.384 . S
C1538 H1529 0.929 . S
C1538 C1530 1.378 . S
C1538 C1533 1.350 . S
C1539 H1526 0.929 . S
C1539 C1531 1.433 . S
C1539 N1541 1.384 . S
N1540 C1536 1.427 . S
N1540 C1537 1.384 . S
N1541 C1533 1.427 . S
N1541 C1539 1.384 . S
H1542 C1548 0.930 . S
H1543 C1552 0.930 . S
H1544 C1557 0.929 . S
H1545 C1555 0.929 . S
H1546 C1550 0.929 . S
H1547 C1556 0.929 . S
C1548 H1542 0.930 . S
C1548 C1549 1.367 . S
C1548 C1556 1.378 . S
C1549 C1548 1.367 . S
C1549 C1557 1.433 . S
C1550 H1546 0.929 . S
C1550 C1552 1.378 . S
C1550 C1554 1.350 . S
C1551 C1554 1.463 . S
C1551 C1556 1.350 . S
C1551 N1559 1.427 . S
C1552 H1543 0.930 . S
C1552 C1550 1.378 . S
C1552 C1553 1.367 . S
C1553 C1552 1.367 . S
C1553 C1555 1.433 . S
C1554 C1550 1.350 . S
C1554 C1551 1.463 . S
C1554 N1558 1.427 . S
C1555 H1545 0.929 . S
C1555 C1553 1.433 . S
C1555 N1558 1.384 . S
C1556 H1547 0.929 . S
C1556 C1548 1.378 . S
C1556 C1551 1.350 . S
C1557 H1544 0.929 . S
C1557 C1549 1.433 . S
C1557 N1559 1.384 . S
N1558 C1554 1.427 . S
N1558 C1555 1.384 . S
N1559 C1551 1.427 . S
N1559 C1557 1.384 . S
H1560 C1566 0.930 . S
H1561 C1570 0.930 . S
H1562 C1575 0.929 . S
H1563 C1573 0.929 . S
H1564 C1568 0.929 . S
H1565 C1574 0.929 . S
C1566 H1560 0.930 . S
C1566 C1567 1.367 . S
C1566 C1574 1.378 . S
C1567 C1566 1.367 . S
C1567 C1575 1.433 . S
C1568 H1564 0.929 . S
C1568 C1570 1.378 . S
C1568 C1572 1.350 . S
C1569 C1572 1.463 . S
C1569 C1574 1.350 . S
C1569 N1577 1.427 . S
C1570 H1561 0.930 . S
C1570 C1568 1.378 . S
C1570 C1571 1.367 . S
C1571 C1570 1.367 . S
C1571 C1573 1.433 . S
C1572 C1568 1.350 . S
C1572 C1569 1.463 . S
C1572 N1576 1.427 . S
C1573 H1563 0.929 . S
C1573 C1571 1.433 . S
C1573 N1576 1.384 . S
C1574 H1565 0.929 . S
C1574 C1566 1.378 . S
C1574 C1569 1.350 . S
C1575 H1562 0.929 . S
C1575 C1567 1.433 . S
C1575 N1577 1.384 . S
N1576 C1572 1.427 . S
N1576 C1573 1.384 . S
N1577 C1569 1.427 . S
N1577 C1575 1.384 . S
H1578 C1584 0.930 . S
H1579 C1588 0.930 . S
H1580 C1593 0.929 . S
H1581 C1591 0.929 . S
H1582 C1586 0.929 . S
H1583 C1592 0.929 . S
C1584 H1578 0.930 . S
C1584 C1585 1.367 . S
C1584 C1592 1.378 . S
C1585 C1584 1.367 . S
C1585 C1593 1.433 . S
C1586 H1582 0.929 . S
C1586 C1588 1.378 . S
C1586 C1590 1.350 . S
C1587 C1590 1.463 . S
C1587 C1592 1.350 . S
C1587 N1595 1.427 . S
C1588 H1579 0.930 . S
C1588 C1586 1.378 . S
C1588 C1589 1.367 . S
C1589 C1588 1.367 . S
C1589 C1591 1.433 . S
C1590 C1586 1.350 . S
C1590 C1587 1.463 . S
C1590 N1594 1.427 . S
C1591 H1581 0.929 . S
C1591 C1589 1.433 . S
C1591 N1594 1.384 . S
C1592 H1583 0.929 . S
C1592 C1584 1.378 . S
C1592 C1587 1.350 . S
C1593 H1580 0.929 . S
C1593 C1585 1.433 . S
C1593 N1595 1.384 . S
N1594 C1590 1.427 . S
N1594 C1591 1.384 . S
N1595 C1587 1.427 . S
N1595 C1593 1.384 . S
H1596 C1602 0.930 . S
H1597 C1606 0.930 . S
H1598 C1611 0.929 . S
H1599 C1609 0.929 . S
H1600 C1604 0.929 . S
H1601 C1610 0.929 . S
C1602 H1596 0.930 . S
C1602 C1603 1.367 . S
C1602 C1610 1.378 . S
C1603 C1602 1.367 . S
C1603 C1611 1.433 . S
C1604 H1600 0.929 . S
C1604 C1606 1.378 . S
C1604 C1608 1.350 . S
C1605 C1608 1.463 1_554 S
C1605 C1610 1.350 . S
C1605 N1613 1.427 . S
C1606 H1597 0.930 . S
C1606 C1604 1.378 . S
C1606 C1607 1.367 . S
C1607 C1606 1.367 . S
C1607 C1609 1.433 . S
C1608 C1604 1.350 . S
C1608 C1605 1.463 1_556 S
C1608 N1612 1.427 . S
C1609 H1599 0.929 . S
C1609 C1607 1.433 . S
C1609 N1612 1.384 . S
C1610 H1601 0.929 . S
C1610 C1602 1.378 . S
C1610 C1605 1.350 . S
C1611 H1598 0.929 . S
C1611 C1603 1.433 . S
C1611 N1613 1.384 . S
N1612 C1608 1.427 . S
N1612 C1609 1.384 . S
N1613 C1605 1.427 . S
N1613 C1611 1.384 . S
H1614 C1620 0.930 . S
H1615 C1624 0.930 . S
H1616 C1629 0.929 . S
H1617 C1627 0.929 . S
H1618 C1622 0.929 . S
H1619 C1628 0.929 . S
C1620 H1614 0.930 . S
C1620 C1621 1.367 . S
C1620 C1628 1.378 . S
C1621 C1620 1.367 . S
C1621 C1629 1.433 . S
C1622 H1618 0.929 . S
C1622 C1624 1.378 . S
C1622 C1626 1.350 . S
C1623 C1626 1.463 . S
C1623 C1628 1.350 . S
C1623 N1631 1.427 . S
C1624 H1615 0.930 . S
C1624 C1622 1.378 . S
C1624 C1625 1.367 . S
C1625 C1624 1.367 . S
C1625 C1627 1.433 . S
C1626 C1622 1.350 . S
C1626 C1623 1.463 . S
C1626 N1630 1.427 . S
C1627 H1617 0.929 . S
C1627 C1625 1.433 . S
C1627 N1630 1.384 . S
C1628 H1619 0.929 . S
C1628 C1620 1.378 . S
C1628 C1623 1.350 . S
C1629 H1616 0.929 . S
C1629 C1621 1.433 . S
C1629 N1631 1.384 . S
N1630 C1626 1.427 . S
N1630 C1627 1.384 . S
N1631 C1623 1.427 . S
N1631 C1629 1.384 . S
H1632 C1638 0.930 . S
H1633 C1642 0.930 . S
H1634 C1647 0.929 . S
H1635 C1645 0.929 . S
H1636 C1640 0.929 . S
H1637 C1646 0.929 . S
C1638 H1632 0.930 . S
C1638 C1639 1.367 . S
C1638 C1646 1.378 . S
C1639 C1638 1.367 . S
C1639 C1647 1.433 . S
C1640 H1636 0.929 . S
C1640 C1642 1.378 1_565 S
C1640 C1644 1.350 . S
C1641 C1644 1.463 . S
C1641 C1646 1.350 . S
C1641 N1649 1.427 . S
C1642 H1633 0.930 . S
C1642 C1640 1.378 1_545 S
C1642 C1643 1.367 . S
C1643 C1642 1.367 . S
C1643 C1645 1.433 . S
C1644 C1640 1.350 . S
C1644 C1641 1.463 . S
C1644 N1648 1.427 . S
C1645 H1635 0.929 . S
C1645 C1643 1.433 . S
C1645 N1648 1.384 1_545 S
C1646 H1637 0.929 . S
C1646 C1638 1.378 . S
C1646 C1641 1.350 . S
C1647 H1634 0.929 . S
C1647 C1639 1.433 . S
C1647 N1649 1.384 . S
N1648 C1644 1.427 . S
N1648 C1645 1.384 1_565 S
N1649 C1641 1.427 . S
N1649 C1647 1.384 . S
H1650 C1656 0.930 . S
H1651 C1660 0.930 . S
H1652 C1665 0.929 . S
H1653 C1663 0.929 . S
H1654 C1658 0.929 . S
H1655 C1664 0.929 . S
C1656 H1650 0.930 . S
C1656 C1657 1.367 . S
C1656 C1664 1.378 . S
C1657 C1656 1.367 . S
C1657 C1665 1.433 1_545 S
C1658 H1654 0.929 . S
C1658 C1660 1.378 . S
C1658 C1662 1.350 1_565 S
C1659 C1662 1.463 . S
C1659 C1664 1.350 . S
C1659 N1667 1.427 1_545 S
C1660 H1651 0.930 . S
C1660 C1658 1.378 . S
C1660 C1661 1.367 1_565 S
C1661 C1660 1.367 1_545 S
C1661 C1663 1.433 . S
C1662 C1658 1.350 1_545 S
C1662 C1659 1.463 . S
C1662 N1666 1.427 . S
C1663 H1653 0.929 . S
C1663 C1661 1.433 . S
C1663 N1666 1.384 . S
C1664 H1655 0.929 . S
C1664 C1656 1.378 . S
C1664 C1659 1.350 . S
C1665 H1652 0.929 . S
C1665 C1657 1.433 1_565 S
C1665 N1667 1.384 . S
N1666 C1662 1.427 . S
N1666 C1663 1.384 . S
N1667 C1659 1.427 1_565 S
N1667 C1665 1.384 . S
H1668 C1674 0.930 . S
H1669 C1678 0.930 . S
H1670 C1683 0.929 . S
H1671 C1681 0.929 . S
H1672 C1676 0.929 . S
H1673 C1682 0.929 . S
C1674 H1668 0.930 . S
C1674 C1675 1.367 . S
C1674 C1682 1.378 . S
C1675 C1674 1.367 . S
C1675 C1683 1.433 . S
C1676 H1672 0.929 . S
C1676 C1678 1.378 1_545 S
C1676 C1680 1.350 . S
C1677 C1680 1.463 . S
C1677 C1682 1.350 . S
C1677 N1685 1.427 . S
C1678 H1669 0.930 . S
C1678 C1676 1.378 1_565 S
C1678 C1679 1.367 . S
C1679 C1678 1.367 . S
C1679 C1681 1.433 . S
C1680 C1676 1.350 . S
C1680 C1677 1.463 . S
C1680 N1684 1.427 . S
C1681 H1671 0.929 . S
C1681 C1679 1.433 . S
C1681 N1684 1.384 1_565 S
C1682 H1673 0.929 . S
C1682 C1674 1.378 . S
C1682 C1677 1.350 . S
C1683 H1670 0.929 . S
C1683 C1675 1.433 . S
C1683 N1685 1.384 . S
N1684 C1680 1.427 . S
N1684 C1681 1.384 1_545 S
N1685 C1677 1.427 . S
N1685 C1683 1.384 . S
H1686 C1692 0.930 . S
H1687 C1696 0.930 . S
H1688 C1701 0.929 . S
H1689 C1699 0.929 . S
H1690 C1694 0.929 . S
H1691 C1700 0.929 . S
C1692 H1686 0.930 . S
C1692 C1693 1.367 . S
C1692 C1700 1.378 . S
C1693 C1692 1.367 . S
C1693 C1701 1.433 1_565 S
C1694 H1690 0.929 . S
C1694 C1696 1.378 . S
C1694 C1698 1.350 1_545 S
C1695 C1698 1.463 . S
C1695 C1700 1.350 . S
C1695 N1703 1.427 1_565 S
C1696 H1687 0.930 . S
C1696 C1694 1.378 . S
C1696 C1697 1.367 1_545 S
C1697 C1696 1.367 1_565 S
C1697 C1699 1.433 . S
C1698 C1694 1.350 1_565 S
C1698 C1695 1.463 . S
C1698 N1702 1.427 . S
C1699 H1689 0.929 . S
C1699 C1697 1.433 . S
C1699 N1702 1.384 . S
C1700 H1691 0.929 . S
C1700 C1692 1.378 . S
C1700 C1695 1.350 . S
C1701 H1688 0.929 . S
C1701 C1693 1.433 1_545 S
C1701 N1703 1.384 . S
N1702 C1698 1.427 . S
N1702 C1699 1.384 . S
N1703 C1695 1.427 1_545 S
N1703 C1701 1.384 . S
H1704 C1710 0.930 . S
H1705 C1714 0.930 . S
H1706 C1719 0.929 . S
H1707 C1717 0.929 . S
H1708 C1712 0.929 . S
H1709 C1718 0.929 . S
C1710 H1704 0.930 . S
C1710 C1711 1.367 . S
C1710 C1718 1.378 . S
C1711 C1710 1.367 . S
C1711 C1719 1.433 . S
C1712 H1708 0.929 . S
C1712 C1714 1.378 1_545 S
C1712 C1716 1.350 . S
C1713 C1716 1.463 . S
C1713 C1718 1.350 . S
C1713 N1721 1.427 . S
C1714 H1705 0.930 . S
C1714 C1712 1.378 1_565 S
C1714 C1715 1.367 . S
C1715 C1714 1.367 . S
C1715 C1717 1.433 . S
C1716 C1712 1.350 . S
C1716 C1713 1.463 . S
C1716 N1720 1.427 . S
C1717 H1707 0.929 . S
C1717 C1715 1.433 . S
C1717 N1720 1.384 1_565 S
C1718 H1709 0.929 . S
C1718 C1710 1.378 . S
C1718 C1713 1.350 . S
C1719 H1706 0.929 . S
C1719 C1711 1.433 . S
C1719 N1721 1.384 . S
N1720 C1716 1.427 . S
N1720 C1717 1.384 1_545 S
N1721 C1713 1.427 . S
N1721 C1719 1.384 . S
H1722 C1728 0.930 . S
H1723 C1732 0.930 . S
H1724 C1737 0.929 . S
H1725 C1735 0.929 . S
H1726 C1730 0.929 . S
H1727 C1736 0.929 . S
C1728 H1722 0.930 . S
C1728 C1729 1.367 1_565 S
C1728 C1736 1.378 . S
C1729 C1728 1.367 1_545 S
C1729 C1737 1.433 . S
C1730 H1726 0.929 . S
C1730 C1732 1.378 . S
C1730 C1734 1.350 . S
C1731 C1734 1.463 . S
C1731 C1736 1.350 1_545 S
C1731 N1739 1.427 . S
C1732 H1723 0.930 . S
C1732 C1730 1.378 . S
C1732 C1733 1.367 . S
C1733 C1732 1.367 . S
C1733 C1735 1.433 1_545 S
C1734 C1730 1.350 . S
C1734 C1731 1.463 . S
C1734 N1738 1.427 1_545 S
C1735 H1725 0.929 . S
C1735 C1733 1.433 1_565 S
C1735 N1738 1.384 . S
C1736 H1727 0.929 . S
C1736 C1728 1.378 . S
C1736 C1731 1.350 1_565 S
C1737 H1724 0.929 . S
C1737 C1729 1.433 . S
C1737 N1739 1.384 . S
N1738 C1734 1.427 1_565 S
N1738 C1735 1.384 . S
N1739 C1731 1.427 . S
N1739 C1737 1.384 . S
H1740 C1746 0.930 . S
H1741 C1750 0.930 . S
H1742 C1755 0.929 . S
H1743 C1753 0.929 . S
H1744 C1748 0.929 . S
H1745 C1754 0.929 . S
C1746 H1740 0.930 . S
C1746 C1747 1.367 . S
C1746 C1754 1.378 . S
C1747 C1746 1.367 . S
C1747 C1755 1.433 . S
C1748 H1744 0.929 . S
C1748 C1750 1.378 1_565 S
C1748 C1752 1.350 . S
C1749 C1752 1.463 . S
C1749 C1754 1.350 . S
C1749 N1757 1.427 . S
C1750 H1741 0.930 . S
C1750 C1748 1.378 1_545 S
C1750 C1751 1.367 . S
C1751 C1750 1.367 . S
C1751 C1753 1.433 . S
C1752 C1748 1.350 . S
C1752 C1749 1.463 . S
C1752 N1756 1.427 . S
C1753 H1743 0.929 . S
C1753 C1751 1.433 . S
C1753 N1756 1.384 1_545 S
C1754 H1745 0.929 . S
C1754 C1746 1.378 . S
C1754 C1749 1.350 . S
C1755 H1742 0.929 . S
C1755 C1747 1.433 . S
C1755 N1757 1.384 . S
N1756 C1752 1.427 . S
N1756 C1753 1.384 1_565 S
N1757 C1749 1.427 . S
N1757 C1755 1.384 . S
H1758 C1764 0.930 . S
H1759 C1768 0.930 . S
H1760 C1773 0.929 . S
H1761 C1771 0.929 . S
H1762 C1766 0.929 . S
H1763 C1772 0.929 . S
C1764 H1758 0.930 . S
C1764 C1765 1.367 . S
C1764 C1772 1.378 . S
C1765 C1764 1.367 . S
C1765 C1773 1.433 1_565 S
C1766 H1762 0.929 . S
C1766 C1768 1.378 . S
C1766 C1770 1.350 1_545 S
C1767 C1770 1.463 . S
C1767 C1772 1.350 . S
C1767 N1775 1.427 1_565 S
C1768 H1759 0.930 . S
C1768 C1766 1.378 . S
C1768 C1769 1.367 1_545 S
C1769 C1768 1.367 1_565 S
C1769 C1771 1.433 . S
C1770 C1766 1.350 1_565 S
C1770 C1767 1.463 . S
C1770 N1774 1.427 . S
C1771 H1761 0.929 . S
C1771 C1769 1.433 . S
C1771 N1774 1.384 . S
C1772 H1763 0.929 . S
C1772 C1764 1.378 . S
C1772 C1767 1.350 . S
C1773 H1760 0.929 . S
C1773 C1765 1.433 1_545 S
C1773 N1775 1.384 . S
N1774 C1770 1.427 . S
N1774 C1771 1.384 . S
N1775 C1767 1.427 1_545 S
N1775 C1773 1.384 . S
H1776 C1782 0.930 . S
H1777 C1786 0.930 . S
H1778 C1791 0.929 . S
H1779 C1789 0.929 . S
H1780 C1784 0.929 . S
H1781 C1790 0.929 . S
C1782 H1776 0.930 . S
C1782 C1783 1.367 . S
C1782 C1790 1.378 1_565 S
C1783 C1782 1.367 . S
C1783 C1791 1.433 . S
C1784 H1780 0.929 . S
C1784 C1786 1.378 . S
C1784 C1788 1.350 . S
C1785 C1788 1.463 . S
C1785 C1790 1.350 . S
C1785 N1793 1.427 . S
C1786 H1777 0.930 . S
C1786 C1784 1.378 . S
C1786 C1787 1.367 . S
C1787 C1786 1.367 . S
C1787 C1789 1.433 . S
C1788 C1784 1.350 . S
C1788 C1785 1.463 . S
C1788 N1792 1.427 . S
C1789 H1779 0.929 . S
C1789 C1787 1.433 . S
C1789 N1792 1.384 . S
C1790 H1781 0.929 . S
C1790 C1782 1.378 1_545 S
C1790 C1785 1.350 . S
C1791 H1778 0.929 . S
C1791 C1783 1.433 . S
C1791 N1793 1.384 1_565 S
N1792 C1788 1.427 . S
N1792 C1789 1.384 . S
N1793 C1785 1.427 . S
N1793 C1791 1.384 1_545 S
H1794 C1800 0.930 . S
H1795 C1804 0.930 . S
H1796 C1809 0.929 . S
H1797 C1807 0.929 . S
H1798 C1802 0.929 . S
H1799 C1808 0.929 . S
C1800 H1794 0.930 . S
C1800 C1801 1.367 . S
C1800 C1808 1.378 . S
C1801 C1800 1.367 . S
C1801 C1809 1.433 1_565 S
C1802 H1798 0.929 . S
C1802 C1804 1.378 . S
C1802 C1806 1.350 1_545 S
C1803 C1806 1.463 . S
C1803 C1808 1.350 . S
C1803 N1811 1.427 1_565 S
C1804 H1795 0.930 . S
C1804 C1802 1.378 . S
C1804 C1805 1.367 1_545 S
C1805 C1804 1.367 1_565 S
C1805 C1807 1.433 . S
C1806 C1802 1.350 1_565 S
C1806 C1803 1.463 . S
C1806 N1810 1.427 . S
C1807 H1797 0.929 . S
C1807 C1805 1.433 . S
C1807 N1810 1.384 . S
C1808 H1799 0.929 . S
C1808 C1800 1.378 . S
C1808 C1803 1.350 . S
C1809 H1796 0.929 . S
C1809 C1801 1.433 1_545 S
C1809 N1811 1.384 . S
N1810 C1806 1.427 . S
N1810 C1807 1.384 . S
N1811 C1803 1.427 1_545 S
N1811 C1809 1.384 . S
H1812 C1818 0.930 . S
H1813 C1822 0.930 . S
H1814 C1827 0.929 . S
H1815 C1825 0.929 . S
H1816 C1820 0.929 . S
H1817 C1826 0.929 . S
C1818 H1812 0.930 . S
C1818 C1819 1.367 . S
C1818 C1826 1.378 1_545 S
C1819 C1818 1.367 . S
C1819 C1827 1.433 . S
C1820 H1816 0.929 . S
C1820 C1822 1.378 . S
C1820 C1824 1.350 . S
C1821 C1824 1.463 . S
C1821 C1826 1.350 . S
C1821 N1829 1.427 . S
C1822 H1813 0.930 . S
C1822 C1820 1.378 . S
C1822 C1823 1.367 . S
C1823 C1822 1.367 . S
C1823 C1825 1.433 . S
C1824 C1820 1.350 . S
C1824 C1821 1.463 . S
C1824 N1828 1.427 . S
C1825 H1815 0.929 . S
C1825 C1823 1.433 . S
C1825 N1828 1.384 . S
C1826 H1817 0.929 . S
C1826 C1818 1.378 1_565 S
C1826 C1821 1.350 . S
C1827 H1814 0.929 . S
C1827 C1819 1.433 . S
C1827 N1829 1.384 1_545 S
N1828 C1824 1.427 . S
N1828 C1825 1.384 . S
N1829 C1821 1.427 . S
N1829 C1827 1.384 1_565 S
H1830 C1836 0.930 . S
H1831 C1840 0.930 . S
H1832 C1845 0.929 . S
H1833 C1843 0.929 . S
H1834 C1838 0.929 . S
H1835 C1844 0.929 . S
C1836 H1830 0.930 . S
C1836 C1837 1.367 . S
C1836 C1844 1.378 . S
C1837 C1836 1.367 . S
C1837 C1845 1.433 1_545 S
C1838 H1834 0.929 . S
C1838 C1840 1.378 . S
C1838 C1842 1.350 1_565 S
C1839 C1842 1.463 . S
C1839 C1844 1.350 . S
C1839 N1847 1.427 1_545 S
C1840 H1831 0.930 . S
C1840 C1838 1.378 . S
C1840 C1841 1.367 1_565 S
C1841 C1840 1.367 1_545 S
C1841 C1843 1.433 . S
C1842 C1838 1.350 1_545 S
C1842 C1839 1.463 . S
C1842 N1846 1.427 . S
C1843 H1833 0.929 . S
C1843 C1841 1.433 . S
C1843 N1846 1.384 . S
C1844 H1835 0.929 . S
C1844 C1836 1.378 . S
C1844 C1839 1.350 . S
C1845 H1832 0.929 . S
C1845 C1837 1.433 1_565 S
C1845 N1847 1.384 . S
N1846 C1842 1.427 . S
N1846 C1843 1.384 . S
N1847 C1839 1.427 1_565 S
N1847 C1845 1.384 . S
H1848 C1854 0.930 . S
H1849 C1858 0.930 . S
H1850 C1863 0.929 . S
H1851 C1861 0.929 . S
H1852 C1856 0.929 . S
H1853 C1862 0.929 . S
C1854 H1848 0.930 . S
C1854 C1855 1.367 . S
C1854 C1862 1.378 . S
C1855 C1854 1.367 . S
C1855 C1863 1.433 . S
C1856 H1852 0.929 . S
C1856 C1858 1.378 1_565 S
C1856 C1860 1.350 . S
C1857 C1860 1.463 . S
C1857 C1862 1.350 . S
C1857 N1865 1.427 . S
C1858 H1849 0.930 . S
C1858 C1856 1.378 1_545 S
C1858 C1859 1.367 . S
C1859 C1858 1.367 . S
C1859 C1861 1.433 . S
C1860 C1856 1.350 . S
C1860 C1857 1.463 . S
C1860 N1864 1.427 . S
C1861 H1851 0.929 . S
C1861 C1859 1.433 . S
C1861 N1864 1.384 1_545 S
C1862 H1853 0.929 . S
C1862 C1854 1.378 . S
C1862 C1857 1.350 . S
C1863 H1850 0.929 . S
C1863 C1855 1.433 . S
C1863 N1865 1.384 . S
N1864 C1860 1.427 . S
N1864 C1861 1.384 1_565 S
N1865 C1857 1.427 . S
N1865 C1863 1.384 . S
H1866 C1872 0.930 . S
H1867 C1876 0.930 . S
H1868 C1881 0.929 . S
H1869 C1879 0.929 . S
H1870 C1874 0.929 . S
H1871 C1880 0.929 . S
C1872 H1866 0.930 . S
C1872 C1873 1.367 . S
C1872 C1880 1.378 . S
C1873 C1872 1.367 . S
C1873 C1881 1.433 . S
C1874 H1870 0.929 . S
C1874 C1876 1.378 . S
C1874 C1878 1.350 . S
C1875 C1878 1.463 . S
C1875 C1880 1.350 . S
C1875 N1883 1.427 . S
C1876 H1867 0.930 . S
C1876 C1874 1.378 . S
C1876 C1877 1.367 . S
C1877 C1876 1.367 . S
C1877 C1879 1.433 . S
C1878 C1874 1.350 . S
C1878 C1875 1.463 . S
C1878 N1882 1.427 . S
C1879 H1869 0.929 . S
C1879 C1877 1.433 . S
C1879 N1882 1.384 . S
C1880 H1871 0.929 . S
C1880 C1872 1.378 . S
C1880 C1875 1.350 . S
C1881 H1868 0.929 . S
C1881 C1873 1.433 . S
C1881 N1883 1.384 . S
N1882 C1878 1.427 . S
N1882 C1879 1.384 . S
N1883 C1875 1.427 . S
N1883 C1881 1.384 . S
H1884 C1890 0.930 . S
H1885 C1894 0.930 . S
H1886 C1899 0.929 . S
H1887 C1897 0.929 . S
H1888 C1892 0.929 . S
H1889 C1898 0.929 . S
C1890 H1884 0.930 . S
C1890 C1891 1.367 . S
C1890 C1898 1.378 1_565 S
C1891 C1890 1.367 . S
C1891 C1899 1.433 . S
C1892 H1888 0.929 . S
C1892 C1894 1.378 . S
C1892 C1896 1.350 . S
C1893 C1896 1.463 . S
C1893 C1898 1.350 . S
C1893 N1901 1.427 . S
C1894 H1885 0.930 . S
C1894 C1892 1.378 . S
C1894 C1895 1.367 . S
C1895 C1894 1.367 . S
C1895 C1897 1.433 . S
C1896 C1892 1.350 . S
C1896 C1893 1.463 . S
C1896 N1900 1.427 . S
C1897 H1887 0.929 . S
C1897 C1895 1.433 . S
C1897 N1900 1.384 . S
C1898 H1889 0.929 . S
C1898 C1890 1.378 1_545 S
C1898 C1893 1.350 . S
C1899 H1886 0.929 . S
C1899 C1891 1.433 . S
C1899 N1901 1.384 1_565 S
N1900 C1896 1.427 . S
N1900 C1897 1.384 . S
N1901 C1893 1.427 . S
N1901 C1899 1.384 1_545 S
H1902 C1908 0.930 . S
H1903 C1912 0.930 . S
H1904 C1917 0.929 . S
H1905 C1915 0.929 . S
H1906 C1910 0.929 . S
H1907 C1916 0.929 . S
C1908 H1902 0.930 . S
C1908 C1909 1.367 . S
C1908 C1916 1.378 . S
C1909 C1908 1.367 . S
C1909 C1917 1.433 1_545 S
C1910 H1906 0.929 . S
C1910 C1912 1.378 . S
C1910 C1914 1.350 1_565 S
C1911 C1914 1.463 . S
C1911 C1916 1.350 . S
C1911 N1919 1.427 1_545 S
C1912 H1903 0.930 . S
C1912 C1910 1.378 . S
C1912 C1913 1.367 1_565 S
C1913 C1912 1.367 1_545 S
C1913 C1915 1.433 . S
C1914 C1910 1.350 1_545 S
C1914 C1911 1.463 . S
C1914 N1918 1.427 . S
C1915 H1905 0.929 . S
C1915 C1913 1.433 . S
C1915 N1918 1.384 . S
C1916 H1907 0.929 . S
C1916 C1908 1.378 . S
C1916 C1911 1.350 . S
C1917 H1904 0.929 . S
C1917 C1909 1.433 1_565 S
C1917 N1919 1.384 . S
N1918 C1914 1.427 . S
N1918 C1915 1.384 . S
N1919 C1911 1.427 1_565 S
N1919 C1917 1.384 . S
H1920 C1926 0.930 . S
H1921 C1930 0.930 . S
H1922 C1935 0.929 . S
H1923 C1933 0.929 . S
H1924 C1928 0.929 . S
H1925 C1934 0.929 . S
C1926 H1920 0.930 . S
C1926 C1927 1.367 . S
C1926 C1934 1.378 . S
C1927 C1926 1.367 . S
C1927 C1935 1.433 . S
C1928 H1924 0.929 . S
C1928 C1930 1.378 . S
C1928 C1932 1.350 . S
C1929 C1932 1.463 . S
C1929 C1934 1.350 . S
C1929 N1937 1.427 . S
C1930 H1921 0.930 . S
C1930 C1928 1.378 . S
C1930 C1931 1.367 . S
C1931 C1930 1.367 . S
C1931 C1933 1.433 . S
C1932 C1928 1.350 . S
C1932 C1929 1.463 . S
C1932 N1936 1.427 . S
C1933 H1923 0.929 . S
C1933 C1931 1.433 . S
C1933 N1936 1.384 . S
C1934 H1925 0.929 . S
C1934 C1926 1.378 . S
C1934 C1929 1.350 . S
C1935 H1922 0.929 . S
C1935 C1927 1.433 . S
C1935 N1937 1.384 . S
N1936 C1932 1.427 . S
N1936 C1933 1.384 . S
N1937 C1929 1.427 . S
N1937 C1935 1.384 . S
H1938 C1944 0.930 . S
H1939 C1948 0.930 . S
H1940 C1953 0.929 . S
H1941 C1951 0.929 . S
H1942 C1946 0.929 . S
H1943 C1952 0.929 . S
C1944 H1938 0.930 . S
C1944 C1945 1.367 . S
C1944 C1952 1.378 . S
C1945 C1944 1.367 . S
C1945 C1953 1.433 . S
C1946 H1942 0.929 . S
C1946 C1948 1.378 . S
C1946 C1950 1.350 . S
C1947 C1950 1.463 . S
C1947 C1952 1.350 . S
C1947 N1955 1.427 . S
C1948 H1939 0.930 . S
C1948 C1946 1.378 . S
C1948 C1949 1.367 . S
C1949 C1948 1.367 . S
C1949 C1951 1.433 . S
C1950 C1946 1.350 . S
C1950 C1947 1.463 . S
C1950 N1954 1.427 . S
C1951 H1941 0.929 . S
C1951 C1949 1.433 . S
C1951 N1954 1.384 . S
C1952 H1943 0.929 . S
C1952 C1944 1.378 . S
C1952 C1947 1.350 . S
C1953 H1940 0.929 . S
C1953 C1945 1.433 . S
C1953 N1955 1.384 . S
N1954 C1950 1.427 . S
N1954 C1951 1.384 . S
N1955 C1947 1.427 . S
N1955 C1953 1.384 . S
H1956 C1962 0.930 . S
H1957 C1966 0.930 . S
H1958 C1971 0.929 . S
H1959 C1969 0.929 . S
H1960 C1964 0.929 . S
H1961 C1970 0.929 . S
C1962 H1956 0.930 . S
C1962 C1963 1.367 . S
C1962 C1970 1.378 . S
C1963 C1962 1.367 . S
C1963 C1971 1.433 . S
C1964 H1960 0.929 . S
C1964 C1966 1.378 . S
C1964 C1968 1.350 . S
C1965 C1968 1.463 . S
C1965 C1970 1.350 . S
C1965 N1973 1.427 . S
C1966 H1957 0.930 . S
C1966 C1964 1.378 . S
C1966 C1967 1.367 . S
C1967 C1966 1.367 . S
C1967 C1969 1.433 . S
C1968 C1964 1.350 . S
C1968 C1965 1.463 . S
C1968 N1972 1.427 . S
C1969 H1959 0.929 . S
C1969 C1967 1.433 . S
C1969 N1972 1.384 . S
C1970 H1961 0.929 . S
C1970 C1962 1.378 . S
C1970 C1965 1.350 . S
C1971 H1958 0.929 . S
C1971 C1963 1.433 . S
C1971 N1973 1.384 . S
N1972 C1968 1.427 . S
N1972 C1969 1.384 . S
N1973 C1965 1.427 . S
N1973 C1971 1.384 . S
H1974 C1980 0.930 . S
H1975 C1984 0.930 . S
H1976 C1989 0.929 . S
H1977 C1987 0.929 . S
H1978 C1982 0.929 . S
H1979 C1988 0.929 . S
C1980 H1974 0.930 . S
C1980 C1981 1.367 . S
C1980 C1988 1.378 . S
C1981 C1980 1.367 . S
C1981 C1989 1.433 . S
C1982 H1978 0.929 . S
C1982 C1984 1.378 . S
C1982 C1986 1.350 . S
C1983 C1986 1.463 . S
C1983 C1988 1.350 . S
C1983 N1991 1.427 . S
C1984 H1975 0.930 . S
C1984 C1982 1.378 . S
C1984 C1985 1.367 . S
C1985 C1984 1.367 . S
C1985 C1987 1.433 . S
C1986 C1982 1.350 . S
C1986 C1983 1.463 . S
C1986 N1990 1.427 . S
C1987 H1977 0.929 . S
C1987 C1985 1.433 . S
C1987 N1990 1.384 . S
C1988 H1979 0.929 . S
C1988 C1980 1.378 . S
C1988 C1983 1.350 . S
C1989 H1976 0.929 . S
C1989 C1981 1.433 . S
C1989 N1991 1.384 . S
N1990 C1986 1.427 . S
N1990 C1987 1.384 . S
N1991 C1983 1.427 . S
N1991 C1989 1.384 . S
H1992 C1998 0.930 . S
H1993 C2002 0.930 . S
H1994 C2007 0.929 . S
H1995 C2005 0.929 . S
H1996 C2000 0.929 . S
H1997 C2006 0.929 . S
C1998 H1992 0.930 . S
C1998 C1999 1.367 . S
C1998 C2006 1.378 . S
C1999 C1998 1.367 . S
C1999 C2007 1.433 . S
C2000 H1996 0.929 . S
C2000 C2002 1.378 . S
C2000 C2004 1.350 . S
C2001 C2004 1.463 . S
C2001 C2006 1.350 . S
C2001 N2009 1.427 . S
C2002 H1993 0.930 . S
C2002 C2000 1.378 . S
C2002 C2003 1.367 . S
C2003 C2002 1.367 . S
C2003 C2005 1.433 . S
C2004 C2000 1.350 . S
C2004 C2001 1.463 . S
C2004 N2008 1.427 . S
C2005 H1995 0.929 . S
C2005 C2003 1.433 . S
C2005 N2008 1.384 . S
C2006 H1997 0.929 . S
C2006 C1998 1.378 . S
C2006 C2001 1.350 . S
C2007 H1994 0.929 . S
C2007 C1999 1.433 . S
C2007 N2009 1.384 . S
N2008 C2004 1.427 . S
N2008 C2005 1.384 . S
N2009 C2001 1.427 . S
N2009 C2007 1.384 . S
H2010 C2016 0.930 . S
H2011 C2020 0.930 . S
H2012 C2025 0.929 . S
H2013 C2023 0.929 . S
H2014 C2018 0.929 . S
H2015 C2024 0.929 . S
C2016 H2010 0.930 . S
C2016 C2017 1.367 . S
C2016 C2024 1.378 . S
C2017 C2016 1.367 . S
C2017 C2025 1.433 . S
C2018 H2014 0.929 . S
C2018 C2020 1.378 . S
C2018 C2022 1.350 . S
C2019 C2022 1.463 . S
C2019 C2024 1.350 . S
C2019 N2027 1.427 . S
C2020 H2011 0.930 . S
C2020 C2018 1.378 . S
C2020 C2021 1.367 . S
C2021 C2020 1.367 . S
C2021 C2023 1.433 . S
C2022 C2018 1.350 . S
C2022 C2019 1.463 . S
C2022 N2026 1.427 . S
C2023 H2013 0.929 . S
C2023 C2021 1.433 . S
C2023 N2026 1.384 . S
C2024 H2015 0.929 . S
C2024 C2016 1.378 . S
C2024 C2019 1.350 . S
C2025 H2012 0.929 . S
C2025 C2017 1.433 . S
C2025 N2027 1.384 . S
N2026 C2022 1.427 . S
N2026 C2023 1.384 . S
N2027 C2019 1.427 . S
N2027 C2025 1.384 . S
H2028 C2034 0.930 . S
H2029 C2038 0.930 . S
H2030 C2043 0.929 . S
H2031 C2041 0.929 . S
H2032 C2036 0.929 . S
H2033 C2042 0.929 . S
C2034 H2028 0.930 . S
C2034 C2035 1.367 . S
C2034 C2042 1.378 . S
C2035 C2034 1.367 . S
C2035 C2043 1.433 . S
C2036 H2032 0.929 . S
C2036 C2038 1.378 . S
C2036 C2040 1.350 . S
C2037 C2040 1.463 . S
C2037 C2042 1.350 . S
C2037 N2045 1.427 . S
C2038 H2029 0.930 . S
C2038 C2036 1.378 . S
C2038 C2039 1.367 . S
C2039 C2038 1.367 . S
C2039 C2041 1.433 . S
C2040 C2036 1.350 . S
C2040 C2037 1.463 . S
C2040 N2044 1.427 . S
C2041 H2031 0.929 . S
C2041 C2039 1.433 . S
C2041 N2044 1.384 . S
C2042 H2033 0.929 . S
C2042 C2034 1.378 . S
C2042 C2037 1.350 . S
C2043 H2030 0.929 . S
C2043 C2035 1.433 . S
C2043 N2045 1.384 . S
N2044 C2040 1.427 . S
N2044 C2041 1.384 . S
N2045 C2037 1.427 . S
N2045 C2043 1.384 . S
H2046 C2052 0.930 . S
H2047 C2056 0.930 . S
H2048 C2061 0.929 . S
H2049 C2059 0.929 . S
H2050 C2054 0.929 . S
H2051 C2060 0.929 . S
C2052 H2046 0.930 . S
C2052 C2053 1.367 . S
C2052 C2060 1.378 . S
C2053 C2052 1.367 . S
C2053 C2061 1.433 . S
C2054 H2050 0.929 . S
C2054 C2056 1.378 . S
C2054 C2058 1.350 . S
C2055 C2058 1.463 . S
C2055 C2060 1.350 . S
C2055 N2063 1.427 . S
C2056 H2047 0.930 . S
C2056 C2054 1.378 . S
C2056 C2057 1.367 . S
C2057 C2056 1.367 . S
C2057 C2059 1.433 . S
C2058 C2054 1.350 . S
C2058 C2055 1.463 . S
C2058 N2062 1.427 . S
C2059 H2049 0.929 . S
C2059 C2057 1.433 . S
C2059 N2062 1.384 . S
C2060 H2051 0.929 . S
C2060 C2052 1.378 . S
C2060 C2055 1.350 . S
C2061 H2048 0.929 . S
C2061 C2053 1.433 . S
C2061 N2063 1.384 . S
N2062 C2058 1.427 . S
N2062 C2059 1.384 . S
N2063 C2055 1.427 . S
N2063 C2061 1.384 . S
H2064 C2070 0.930 . S
H2065 C2074 0.930 . S
H2066 C2079 0.929 . S
H2067 C2077 0.929 . S
H2068 C2072 0.929 . S
H2069 C2078 0.929 . S
C2070 H2064 0.930 . S
C2070 C2071 1.367 . S
C2070 C2078 1.378 . S
C2071 C2070 1.367 . S
C2071 C2079 1.433 . S
C2072 H2068 0.929 . S
C2072 C2074 1.378 . S
C2072 C2076 1.350 . S
C2073 C2076 1.463 . S
C2073 C2078 1.350 . S
C2073 N2081 1.427 . S
C2074 H2065 0.930 . S
C2074 C2072 1.378 . S
C2074 C2075 1.367 . S
C2075 C2074 1.367 . S
C2075 C2077 1.433 . S
C2076 C2072 1.350 . S
C2076 C2073 1.463 . S
C2076 N2080 1.427 . S
C2077 H2067 0.929 . S
C2077 C2075 1.433 . S
C2077 N2080 1.384 . S
C2078 H2069 0.929 . S
C2078 C2070 1.378 . S
C2078 C2073 1.350 . S
C2079 H2066 0.929 . S
C2079 C2071 1.433 . S
C2079 N2081 1.384 . S
N2080 C2076 1.427 . S
N2080 C2077 1.384 . S
N2081 C2073 1.427 . S
N2081 C2079 1.384 . S
H2082 C2088 0.930 . S
H2083 C2092 0.930 . S
H2084 C2097 0.929 . S
H2085 C2095 0.929 . S
H2086 C2090 0.929 . S
H2087 C2096 0.929 . S
C2088 H2082 0.930 . S
C2088 C2089 1.367 . S
C2088 C2096 1.378 . S
C2089 C2088 1.367 . S
C2089 C2097 1.433 . S
C2090 H2086 0.929 . S
C2090 C2092 1.378 . S
C2090 C2094 1.350 . S
C2091 C2094 1.463 . S
C2091 C2096 1.350 . S
C2091 N2099 1.427 . S
C2092 H2083 0.930 . S
C2092 C2090 1.378 . S
C2092 C2093 1.367 . S
C2093 C2092 1.367 . S
C2093 C2095 1.433 . S
C2094 C2090 1.350 . S
C2094 C2091 1.463 . S
C2094 N2098 1.427 . S
C2095 H2085 0.929 . S
C2095 C2093 1.433 . S
C2095 N2098 1.384 . S
C2096 H2087 0.929 . S
C2096 C2088 1.378 . S
C2096 C2091 1.350 . S
C2097 H2084 0.929 . S
C2097 C2089 1.433 . S
C2097 N2099 1.384 . S
N2098 C2094 1.427 . S
N2098 C2095 1.384 . S
N2099 C2091 1.427 . S
N2099 C2097 1.384 . S
H2100 C2106 0.930 . S
H2101 C2110 0.930 . S
H2102 C2115 0.929 . S
H2103 C2113 0.929 . S
H2104 C2108 0.929 . S
H2105 C2114 0.929 . S
C2106 H2100 0.930 . S
C2106 C2107 1.367 . S
C2106 C2114 1.378 . S
C2107 C2106 1.367 . S
C2107 C2115 1.433 . S
C2108 H2104 0.929 . S
C2108 C2110 1.378 . S
C2108 C2112 1.350 . S
C2109 C2112 1.463 . S
C2109 C2114 1.350 . S
C2109 N2117 1.427 . S
C2110 H2101 0.930 . S
C2110 C2108 1.378 . S
C2110 C2111 1.367 . S
C2111 C2110 1.367 . S
C2111 C2113 1.433 . S
C2112 C2108 1.350 . S
C2112 C2109 1.463 . S
C2112 N2116 1.427 . S
C2113 H2103 0.929 . S
C2113 C2111 1.433 . S
C2113 N2116 1.384 . S
C2114 H2105 0.929 . S
C2114 C2106 1.378 . S
C2114 C2109 1.350 . S
C2115 H2102 0.929 . S
C2115 C2107 1.433 . S
C2115 N2117 1.384 . S
N2116 C2112 1.427 . S
N2116 C2113 1.384 . S
N2117 C2109 1.427 . S
N2117 C2115 1.384 . S
H2118 C2124 0.930 . S
H2119 C2128 0.930 . S
H2120 C2133 0.929 . S
H2121 C2131 0.929 . S
H2122 C2126 0.929 . S
H2123 C2132 0.929 . S
C2124 H2118 0.930 . S
C2124 C2125 1.367 . S
C2124 C2132 1.378 . S
C2125 C2124 1.367 . S
C2125 C2133 1.433 . S
C2126 H2122 0.929 . S
C2126 C2128 1.378 . S
C2126 C2130 1.350 . S
C2127 C2130 1.463 . S
C2127 C2132 1.350 . S
C2127 N2135 1.427 . S
C2128 H2119 0.930 . S
C2128 C2126 1.378 . S
C2128 C2129 1.367 . S
C2129 C2128 1.367 . S
C2129 C2131 1.433 . S
C2130 C2126 1.350 . S
C2130 C2127 1.463 . S
C2130 N2134 1.427 . S
C2131 H2121 0.929 . S
C2131 C2129 1.433 . S
C2131 N2134 1.384 . S
C2132 H2123 0.929 . S
C2132 C2124 1.378 . S
C2132 C2127 1.350 . S
C2133 H2120 0.929 . S
C2133 C2125 1.433 . S
C2133 N2135 1.384 . S
N2134 C2130 1.427 . S
N2134 C2131 1.384 . S
N2135 C2127 1.427 . S
N2135 C2133 1.384 . S
H2136 C2142 0.930 . S
H2137 C2146 0.930 . S
H2138 C2151 0.929 . S
H2139 C2149 0.929 . S
H2140 C2144 0.929 . S
H2141 C2150 0.929 . S
C2142 H2136 0.930 . S
C2142 C2143 1.367 . S
C2142 C2150 1.378 . S
C2143 C2142 1.367 . S
C2143 C2151 1.433 . S
C2144 H2140 0.929 . S
C2144 C2146 1.378 . S
C2144 C2148 1.350 . S
C2145 C2148 1.463 . S
C2145 C2150 1.350 . S
C2145 N2153 1.427 . S
C2146 H2137 0.930 . S
C2146 C2144 1.378 . S
C2146 C2147 1.367 . S
C2147 C2146 1.367 . S
C2147 C2149 1.433 . S
C2148 C2144 1.350 . S
C2148 C2145 1.463 . S
C2148 N2152 1.427 . S
C2149 H2139 0.929 . S
C2149 C2147 1.433 . S
C2149 N2152 1.384 . S
C2150 H2141 0.929 . S
C2150 C2142 1.378 . S
C2150 C2145 1.350 . S
C2151 H2138 0.929 . S
C2151 C2143 1.433 . S
C2151 N2153 1.384 . S
N2152 C2148 1.427 . S
N2152 C2149 1.384 . S
N2153 C2145 1.427 . S
N2153 C2151 1.384 . S
H2154 C2160 0.930 . S
H2155 C2164 0.930 . S
H2156 C2169 0.929 . S
H2157 C2167 0.929 . S
H2158 C2162 0.929 . S
H2159 C2168 0.929 . S
C2160 H2154 0.930 . S
C2160 C2161 1.367 . S
C2160 C2168 1.378 . S
C2161 C2160 1.367 . S
C2161 C2169 1.433 . S
C2162 H2158 0.929 . S
C2162 C2164 1.378 . S
C2162 C2166 1.350 . S
C2163 C2166 1.463 . S
C2163 C2168 1.350 . S
C2163 N2171 1.427 . S
C2164 H2155 0.930 . S
C2164 C2162 1.378 . S
C2164 C2165 1.367 . S
C2165 C2164 1.367 . S
C2165 C2167 1.433 . S
C2166 C2162 1.350 . S
C2166 C2163 1.463 . S
C2166 N2170 1.427 . S
C2167 H2157 0.929 . S
C2167 C2165 1.433 . S
C2167 N2170 1.384 . S
C2168 H2159 0.929 . S
C2168 C2160 1.378 . S
C2168 C2163 1.350 . S
C2169 H2156 0.929 . S
C2169 C2161 1.433 . S
C2169 N2171 1.384 . S
N2170 C2166 1.427 . S
N2170 C2167 1.384 . S
N2171 C2163 1.427 . S
N2171 C2169 1.384 . S
H2172 C2178 0.930 . S
H2173 C2182 0.930 . S
H2174 C2187 0.929 . S
H2175 C2185 0.929 . S
H2176 C2180 0.929 . S
H2177 C2186 0.929 . S
C2178 H2172 0.930 . S
C2178 C2179 1.367 . S
C2178 C2186 1.378 . S
C2179 C2178 1.367 . S
C2179 C2187 1.433 . S
C2180 H2176 0.929 . S
C2180 C2182 1.378 . S
C2180 C2184 1.350 . S
C2181 C2184 1.463 . S
C2181 C2186 1.350 . S
C2181 N2189 1.427 . S
C2182 H2173 0.930 . S
C2182 C2180 1.378 . S
C2182 C2183 1.367 . S
C2183 C2182 1.367 . S
C2183 C2185 1.433 . S
C2184 C2180 1.350 . S
C2184 C2181 1.463 . S
C2184 N2188 1.427 . S
C2185 H2175 0.929 . S
C2185 C2183 1.433 . S
C2185 N2188 1.384 . S
C2186 H2177 0.929 . S
C2186 C2178 1.378 . S
C2186 C2181 1.350 . S
C2187 H2174 0.929 . S
C2187 C2179 1.433 . S
C2187 N2189 1.384 . S
N2188 C2184 1.427 . S
N2188 C2185 1.384 . S
N2189 C2181 1.427 . S
N2189 C2187 1.384 . S
H2190 C2196 0.930 . S
H2191 C2200 0.930 . S
H2192 C2205 0.929 . S
H2193 C2203 0.929 . S
H2194 C2198 0.929 . S
H2195 C2204 0.929 . S
C2196 H2190 0.930 . S
C2196 C2197 1.367 . S
C2196 C2204 1.378 . S
C2197 C2196 1.367 . S
C2197 C2205 1.433 . S
C2198 H2194 0.929 . S
C2198 C2200 1.378 . S
C2198 C2202 1.350 . S
C2199 C2202 1.463 . S
C2199 C2204 1.350 . S
C2199 N2207 1.427 . S
C2200 H2191 0.930 . S
C2200 C2198 1.378 . S
C2200 C2201 1.367 . S
C2201 C2200 1.367 . S
C2201 C2203 1.433 . S
C2202 C2198 1.350 . S
C2202 C2199 1.463 . S
C2202 N2206 1.427 . S
C2203 H2193 0.929 . S
C2203 C2201 1.433 . S
C2203 N2206 1.384 . S
C2204 H2195 0.929 . S
C2204 C2196 1.378 . S
C2204 C2199 1.350 . S
C2205 H2192 0.929 . S
C2205 C2197 1.433 . S
C2205 N2207 1.384 . S
N2206 C2202 1.427 . S
N2206 C2203 1.384 . S
N2207 C2199 1.427 . S
N2207 C2205 1.384 . S
H2208 C2214 0.930 . S
H2209 C2218 0.930 . S
H2210 C2223 0.929 . S
H2211 C2221 0.929 . S
H2212 C2216 0.929 . S
H2213 C2222 0.929 . S
C2214 H2208 0.930 . S
C2214 C2215 1.367 . S
C2214 C2222 1.378 . S
C2215 C2214 1.367 . S
C2215 C2223 1.433 . S
C2216 H2212 0.929 . S
C2216 C2218 1.378 . S
C2216 C2220 1.350 . S
C2217 C2220 1.463 . S
C2217 C2222 1.350 . S
C2217 N2225 1.427 . S
C2218 H2209 0.930 . S
C2218 C2216 1.378 . S
C2218 C2219 1.367 . S
C2219 C2218 1.367 . S
C2219 C2221 1.433 . S
C2220 C2216 1.350 . S
C2220 C2217 1.463 . S
C2220 N2224 1.427 . S
C2221 H2211 0.929 . S
C2221 C2219 1.433 . S
C2221 N2224 1.384 . S
C2222 H2213 0.929 . S
C2222 C2214 1.378 . S
C2222 C2217 1.350 . S
C2223 H2210 0.929 . S
C2223 C2215 1.433 . S
C2223 N2225 1.384 . S
N2224 C2220 1.427 . S
N2224 C2221 1.384 . S
N2225 C2217 1.427 . S
N2225 C2223 1.384 . S
H2226 C2232 0.930 . S
H2227 C2236 0.930 . S
H2228 C2241 0.929 . S
H2229 C2239 0.929 . S
H2230 C2234 0.929 . S
H2231 C2240 0.929 . S
C2232 H2226 0.930 . S
C2232 C2233 1.367 1_455 S
C2232 C2240 1.378 . S
C2233 C2232 1.367 1_655 S
C2233 C2241 1.433 . S
C2234 H2230 0.929 . S
C2234 C2236 1.378 . S
C2234 C2238 1.350 1_655 S
C2235 C2238 1.463 1_655 S
C2235 C2240 1.350 1_655 S
C2235 N2243 1.427 . S
C2236 H2227 0.930 . S
C2236 C2234 1.378 . S
C2236 C2237 1.367 1_655 S
C2237 C2236 1.367 1_455 S
C2237 C2239 1.433 . S
C2238 C2234 1.350 1_455 S
C2238 C2235 1.463 1_455 S
C2238 N2242 1.427 . S
C2239 H2229 0.929 . S
C2239 C2237 1.433 . S
C2239 N2242 1.384 . S
C2240 H2231 0.929 . S
C2240 C2232 1.378 . S
C2240 C2235 1.350 1_455 S
C2241 H2228 0.929 . S
C2241 C2233 1.433 . S
C2241 N2243 1.384 . S
N2242 C2238 1.427 . S
N2242 C2239 1.384 . S
N2243 C2235 1.427 . S
N2243 C2241 1.384 . S
H2244 C2250 0.930 . S
H2245 C2254 0.930 . S
H2246 C2259 0.929 . S
H2247 C2257 0.929 . S
H2248 C2252 0.929 . S
H2249 C2258 0.929 . S
C2250 H2244 0.930 . S
C2250 C2251 1.367 . S
C2250 C2258 1.378 . S
C2251 C2250 1.367 . S
C2251 C2259 1.433 . S
C2252 H2248 0.929 . S
C2252 C2254 1.378 . S
C2252 C2256 1.350 . S
C2253 C2256 1.463 1_455 S
C2253 C2258 1.350 . S
C2253 N2261 1.427 . S
C2254 H2245 0.930 . S
C2254 C2252 1.378 . S
C2254 C2255 1.367 . S
C2255 C2254 1.367 . S
C2255 C2257 1.433 . S
C2256 C2252 1.350 . S
C2256 C2253 1.463 1_655 S
C2256 N2260 1.427 . S
C2257 H2247 0.929 . S
C2257 C2255 1.433 . S
C2257 N2260 1.384 . S
C2258 H2249 0.929 . S
C2258 C2250 1.378 . S
C2258 C2253 1.350 . S
C2259 H2246 0.929 . S
C2259 C2251 1.433 . S
C2259 N2261 1.384 . S
N2260 C2256 1.427 . S
N2260 C2257 1.384 . S
N2261 C2253 1.427 . S
N2261 C2259 1.384 . S
H2262 C2268 0.930 . S
H2263 C2272 0.930 . S
H2264 C2277 0.929 . S
H2265 C2275 0.929 . S
H2266 C2270 0.929 . S
H2267 C2276 0.929 . S
C2268 H2262 0.930 . S
C2268 C2269 1.367 . S
C2268 C2276 1.378 . S
C2269 C2268 1.367 . S
C2269 C2277 1.433 . S
C2270 H2266 0.929 . S
C2270 C2272 1.378 . S
C2270 C2274 1.350 . S
C2271 C2274 1.463 . S
C2271 C2276 1.350 . S
C2271 N2279 1.427 . S
C2272 H2263 0.930 . S
C2272 C2270 1.378 . S
C2272 C2273 1.367 . S
C2273 C2272 1.367 . S
C2273 C2275 1.433 . S
C2274 C2270 1.350 . S
C2274 C2271 1.463 . S
C2274 N2278 1.427 . S
C2275 H2265 0.929 . S
C2275 C2273 1.433 . S
C2275 N2278 1.384 . S
C2276 H2267 0.929 . S
C2276 C2268 1.378 . S
C2276 C2271 1.350 . S
C2277 H2264 0.929 . S
C2277 C2269 1.433 . S
C2277 N2279 1.384 . S
N2278 C2274 1.427 . S
N2278 C2275 1.384 . S
N2279 C2271 1.427 . S
N2279 C2277 1.384 . S
H2280 C2286 0.930 . S
H2281 C2290 0.930 . S
H2282 C2295 0.929 . S
H2283 C2293 0.929 . S
H2284 C2288 0.929 . S
H2285 C2294 0.929 . S
C2286 H2280 0.930 . S
C2286 C2287 1.367 . S
C2286 C2294 1.378 . S
C2287 C2286 1.367 . S
C2287 C2295 1.433 . S
C2288 H2284 0.929 . S
C2288 C2290 1.378 . S
C2288 C2292 1.350 . S
C2289 C2292 1.463 . S
C2289 C2294 1.350 . S
C2289 N2297 1.427 . S
C2290 H2281 0.930 . S
C2290 C2288 1.378 . S
C2290 C2291 1.367 . S
C2291 C2290 1.367 . S
C2291 C2293 1.433 . S
C2292 C2288 1.350 . S
C2292 C2289 1.463 . S
C2292 N2296 1.427 . S
C2293 H2283 0.929 . S
C2293 C2291 1.433 . S
C2293 N2296 1.384 . S
C2294 H2285 0.929 . S
C2294 C2286 1.378 . S
C2294 C2289 1.350 . S
C2295 H2282 0.929 . S
C2295 C2287 1.433 . S
C2295 N2297 1.384 . S
N2296 C2292 1.427 . S
N2296 C2293 1.384 . S
N2297 C2289 1.427 . S
N2297 C2295 1.384 . S
H2298 C2304 0.930 . S
H2299 C2308 0.930 . S
H2300 C2313 0.929 . S
H2301 C2311 0.929 . S
H2302 C2306 0.929 . S
H2303 C2312 0.929 . S
C2304 H2298 0.930 . S
C2304 C2305 1.367 . S
C2304 C2312 1.378 . S
C2305 C2304 1.367 . S
C2305 C2313 1.433 . S
C2306 H2302 0.929 . S
C2306 C2308 1.378 . S
C2306 C2310 1.350 . S
C2307 C2310 1.463 . S
C2307 C2312 1.350 . S
C2307 N2315 1.427 . S
C2308 H2299 0.930 . S
C2308 C2306 1.378 . S
C2308 C2309 1.367 . S
C2309 C2308 1.367 . S
C2309 C2311 1.433 . S
C2310 C2306 1.350 . S
C2310 C2307 1.463 . S
C2310 N2314 1.427 . S
C2311 H2301 0.929 . S
C2311 C2309 1.433 . S
C2311 N2314 1.384 . S
C2312 H2303 0.929 . S
C2312 C2304 1.378 . S
C2312 C2307 1.350 . S
C2313 H2300 0.929 . S
C2313 C2305 1.433 . S
C2313 N2315 1.384 . S
N2314 C2310 1.427 . S
N2314 C2311 1.384 . S
N2315 C2307 1.427 . S
N2315 C2313 1.384 . S
H2316 C2322 0.930 . S
H2317 C2326 0.930 . S
H2318 C2331 0.929 . S
H2319 C2329 0.929 . S
H2320 C2324 0.929 . S
H2321 C2330 0.929 . S
C2322 H2316 0.930 . S
C2322 C2323 1.367 . S
C2322 C2330 1.378 . S
C2323 C2322 1.367 . S
C2323 C2331 1.433 . S
C2324 H2320 0.929 . S
C2324 C2326 1.378 . S
C2324 C2328 1.350 . S
C2325 C2328 1.463 1_655 S
C2325 C2330 1.350 . S
C2325 N2333 1.427 . S
C2326 H2317 0.930 . S
C2326 C2324 1.378 . S
C2326 C2327 1.367 . S
C2327 C2326 1.367 . S
C2327 C2329 1.433 . S
C2328 C2324 1.350 . S
C2328 C2325 1.463 1_455 S
C2328 N2332 1.427 . S
C2329 H2319 0.929 . S
C2329 C2327 1.433 . S
C2329 N2332 1.384 . S
C2330 H2321 0.929 . S
C2330 C2322 1.378 . S
C2330 C2325 1.350 . S
C2331 H2318 0.929 . S
C2331 C2323 1.433 . S
C2331 N2333 1.384 . S
N2332 C2328 1.427 . S
N2332 C2329 1.384 . S
N2333 C2325 1.427 . S
N2333 C2331 1.384 . S
H2334 C2340 0.930 . S
H2335 C2344 0.930 . S
H2336 C2349 0.929 . S
H2337 C2347 0.929 . S
H2338 C2342 0.929 . S
H2339 C2348 0.929 . S
C2340 H2334 0.930 . S
C2340 C2341 1.367 1_455 S
C2340 C2348 1.378 . S
C2341 C2340 1.367 1_655 S
C2341 C2349 1.433 . S
C2342 H2338 0.929 . S
C2342 C2344 1.378 . S
C2342 C2346 1.350 1_655 S
C2343 C2346 1.463 1_655 S
C2343 C2348 1.350 1_655 S
C2343 N2351 1.427 . S
C2344 H2335 0.930 . S
C2344 C2342 1.378 . S
C2344 C2345 1.367 1_655 S
C2345 C2344 1.367 1_455 S
C2345 C2347 1.433 . S
C2346 C2342 1.350 1_455 S
C2346 C2343 1.463 1_455 S
C2346 N2350 1.427 . S
C2347 H2337 0.929 . S
C2347 C2345 1.433 . S
C2347 N2350 1.384 . S
C2348 H2339 0.929 . S
C2348 C2340 1.378 . S
C2348 C2343 1.350 1_455 S
C2349 H2336 0.929 . S
C2349 C2341 1.433 . S
C2349 N2351 1.384 . S
N2350 C2346 1.427 . S
N2350 C2347 1.384 . S
N2351 C2343 1.427 . S
N2351 C2349 1.384 . S
H2352 C2358 0.930 . S
H2353 C2362 0.930 . S
H2354 C2367 0.929 . S
H2355 C2365 0.929 . S
H2356 C2360 0.929 . S
H2357 C2366 0.929 . S
C2358 H2352 0.930 . S
C2358 C2359 1.367 . S
C2358 C2366 1.378 . S
C2359 C2358 1.367 . S
C2359 C2367 1.433 . S
C2360 H2356 0.929 . S
C2360 C2362 1.378 . S
C2360 C2364 1.350 . S
C2361 C2364 1.463 . S
C2361 C2366 1.350 . S
C2361 N2369 1.427 . S
C2362 H2353 0.930 . S
C2362 C2360 1.378 . S
C2362 C2363 1.367 . S
C2363 C2362 1.367 . S
C2363 C2365 1.433 . S
C2364 C2360 1.350 . S
C2364 C2361 1.463 . S
C2364 N2368 1.427 . S
C2365 H2355 0.929 . S
C2365 C2363 1.433 . S
C2365 N2368 1.384 . S
C2366 H2357 0.929 . S
C2366 C2358 1.378 . S
C2366 C2361 1.350 . S
C2367 H2354 0.929 . S
C2367 C2359 1.433 . S
C2367 N2369 1.384 . S
N2368 C2364 1.427 . S
N2368 C2365 1.384 . S
N2369 C2361 1.427 . S
N2369 C2367 1.384 . S
H2370 C2376 0.930 . S
H2371 C2380 0.930 . S
H2372 C2385 0.929 . S
H2373 C2383 0.929 . S
H2374 C2378 0.929 . S
H2375 C2384 0.929 . S
C2376 H2370 0.930 . S
C2376 C2377 1.367 . S
C2376 C2384 1.378 . S
C2377 C2376 1.367 . S
C2377 C2385 1.433 1_455 S
C2378 H2374 0.929 . S
C2378 C2380 1.378 . S
C2378 C2382 1.350 . S
C2379 C2382 1.463 1_455 S
C2379 C2384 1.350 . S
C2379 N2387 1.427 1_455 S
C2380 H2371 0.930 . S
C2380 C2378 1.378 . S
C2380 C2381 1.367 . S
C2381 C2380 1.367 . S
C2381 C2383 1.433 1_655 S
C2382 C2378 1.350 . S
C2382 C2379 1.463 1_655 S
C2382 N2386 1.427 1_655 S
C2383 H2373 0.929 . S
C2383 C2381 1.433 1_455 S
C2383 N2386 1.384 . S
C2384 H2375 0.929 . S
C2384 C2376 1.378 . S
C2384 C2379 1.350 . S
C2385 H2372 0.929 . S
C2385 C2377 1.433 1_655 S
C2385 N2387 1.384 . S
N2386 C2382 1.427 1_455 S
N2386 C2383 1.384 . S
N2387 C2379 1.427 1_655 S
N2387 C2385 1.384 . S
H2388 C2394 0.930 . S
H2389 C2398 0.930 . S
H2390 C2403 0.929 . S
H2391 C2401 0.929 . S
H2392 C2396 0.929 . S
H2393 C2402 0.929 . S
C2394 H2388 0.930 . S
C2394 C2395 1.367 . S
C2394 C2402 1.378 . S
C2395 C2394 1.367 . S
C2395 C2403 1.433 . S
C2396 H2392 0.929 . S
C2396 C2398 1.378 . S
C2396 C2400 1.350 . S
C2397 C2400 1.463 1_655 S
C2397 C2402 1.350 . S
C2397 N2405 1.427 . S
C2398 H2389 0.930 . S
C2398 C2396 1.378 . S
C2398 C2399 1.367 . S
C2399 C2398 1.367 . S
C2399 C2401 1.433 . S
C2400 C2396 1.350 . S
C2400 C2397 1.463 1_455 S
C2400 N2404 1.427 . S
C2401 H2391 0.929 . S
C2401 C2399 1.433 . S
C2401 N2404 1.384 . S
C2402 H2393 0.929 . S
C2402 C2394 1.378 . S
C2402 C2397 1.350 . S
C2403 H2390 0.929 . S
C2403 C2395 1.433 . S
C2403 N2405 1.384 . S
N2404 C2400 1.427 . S
N2404 C2401 1.384 . S
N2405 C2397 1.427 . S
N2405 C2403 1.384 . S
H2406 C2412 0.930 . S
H2407 C2416 0.930 . S
H2408 C2421 0.929 . S
H2409 C2419 0.929 . S
H2410 C2414 0.929 . S
H2411 C2420 0.929 . S
C2412 H2406 0.930 . S
C2412 C2413 1.367 . S
C2412 C2420 1.378 . S
C2413 C2412 1.367 . S
C2413 C2421 1.433 . S
C2414 H2410 0.929 . S
C2414 C2416 1.378 . S
C2414 C2418 1.350 . S
C2415 C2418 1.463 . S
C2415 C2420 1.350 . S
C2415 N2423 1.427 . S
C2416 H2407 0.930 . S
C2416 C2414 1.378 . S
C2416 C2417 1.367 . S
C2417 C2416 1.367 . S
C2417 C2419 1.433 . S
C2418 C2414 1.350 . S
C2418 C2415 1.463 . S
C2418 N2422 1.427 . S
C2419 H2409 0.929 . S
C2419 C2417 1.433 . S
C2419 N2422 1.384 . S
C2420 H2411 0.929 . S
C2420 C2412 1.378 . S
C2420 C2415 1.350 . S
C2421 H2408 0.929 . S
C2421 C2413 1.433 . S
C2421 N2423 1.384 . S
N2422 C2418 1.427 . S
N2422 C2419 1.384 . S
N2423 C2415 1.427 . S
N2423 C2421 1.384 . S
H2424 C2430 0.930 . S
H2425 C2434 0.930 . S
H2426 C2439 0.929 . S
H2427 C2437 0.929 . S
H2428 C2432 0.929 . S
H2429 C2438 0.929 . S
C2430 H2424 0.930 . S
C2430 C2431 1.367 . S
C2430 C2438 1.378 . S
C2431 C2430 1.367 . S
C2431 C2439 1.433 . S
C2432 H2428 0.929 . S
C2432 C2434 1.378 . S
C2432 C2436 1.350 . S
C2433 C2436 1.463 . S
C2433 C2438 1.350 . S
C2433 N2441 1.427 . S
C2434 H2425 0.930 . S
C2434 C2432 1.378 . S
C2434 C2435 1.367 . S
C2435 C2434 1.367 . S
C2435 C2437 1.433 . S
C2436 C2432 1.350 . S
C2436 C2433 1.463 . S
C2436 N2440 1.427 . S
C2437 H2427 0.929 . S
C2437 C2435 1.433 . S
C2437 N2440 1.384 . S
C2438 H2429 0.929 . S
C2438 C2430 1.378 . S
C2438 C2433 1.350 . S
C2439 H2426 0.929 . S
C2439 C2431 1.433 . S
C2439 N2441 1.384 . S
N2440 C2436 1.427 . S
N2440 C2437 1.384 . S
N2441 C2433 1.427 . S
N2441 C2439 1.384 . S
H2442 C2448 0.930 . S
H2443 C2452 0.930 . S
H2444 C2457 0.929 . S
H2445 C2455 0.929 . S
H2446 C2450 0.929 . S
H2447 C2456 0.929 . S
C2448 H2442 0.930 . S
C2448 C2449 1.367 . S
C2448 C2456 1.378 . S
C2449 C2448 1.367 . S
C2449 C2457 1.433 . S
C2450 H2446 0.929 . S
C2450 C2452 1.378 . S
C2450 C2454 1.350 . S
C2451 C2454 1.463 . S
C2451 C2456 1.350 . S
C2451 N2459 1.427 . S
C2452 H2443 0.930 . S
C2452 C2450 1.378 . S
C2452 C2453 1.367 . S
C2453 C2452 1.367 . S
C2453 C2455 1.433 . S
C2454 C2450 1.350 . S
C2454 C2451 1.463 . S
C2454 N2458 1.427 . S
C2455 H2445 0.929 . S
C2455 C2453 1.433 . S
C2455 N2458 1.384 . S
C2456 H2447 0.929 . S
C2456 C2448 1.378 . S
C2456 C2451 1.350 . S
C2457 H2444 0.929 . S
C2457 C2449 1.433 . S
C2457 N2459 1.384 . S
N2458 C2454 1.427 . S
N2458 C2455 1.384 . S
N2459 C2451 1.427 . S
N2459 C2457 1.384 . S
H2460 C2466 0.930 . S
H2461 C2470 0.930 . S
H2462 C2475 0.929 . S
H2463 C2473 0.929 . S
H2464 C2468 0.929 . S
H2465 C2474 0.929 . S
C2466 H2460 0.930 . S
C2466 C2467 1.367 . S
C2466 C2474 1.378 . S
C2467 C2466 1.367 . S
C2467 C2475 1.433 . S
C2468 H2464 0.929 . S
C2468 C2470 1.378 . S
C2468 C2472 1.350 . S
C2469 C2472 1.463 1_455 S
C2469 C2474 1.350 . S
C2469 N2477 1.427 . S
C2470 H2461 0.930 . S
C2470 C2468 1.378 . S
C2470 C2471 1.367 . S
C2471 C2470 1.367 . S
C2471 C2473 1.433 . S
C2472 C2468 1.350 . S
C2472 C2469 1.463 1_655 S
C2472 N2476 1.427 . S
C2473 H2463 0.929 . S
C2473 C2471 1.433 . S
C2473 N2476 1.384 . S
C2474 H2465 0.929 . S
C2474 C2466 1.378 . S
C2474 C2469 1.350 . S
C2475 H2462 0.929 . S
C2475 C2467 1.433 . S
C2475 N2477 1.384 . S
N2476 C2472 1.427 . S
N2476 C2473 1.384 . S
N2477 C2469 1.427 . S
N2477 C2475 1.384 . S
H2478 C2484 0.939 . S
H2479 C2488 0.939 . S
H2480 C2493 0.929 . S
H2481 C2491 0.929 . S
H2482 C2486 0.929 . S
H2483 C2492 0.929 . S
C2484 H2478 0.939 . S
C2484 C2485 1.353 1_655 S
C2484 C2492 1.383 . S
C2485 C2484 1.353 1_455 S
C2485 C2493 1.433 . S
C2486 H2482 0.929 . S
C2486 C2488 1.383 . S
C2486 C2490 1.350 1_455 S
C2487 C2490 1.463 1_455 S
C2487 C2492 1.350 1_455 S
C2487 N2495 1.427 . S
C2488 H2479 0.939 . S
C2488 C2486 1.383 . S
C2488 C2489 1.353 1_455 S
C2489 C2488 1.353 1_655 S
C2489 C2491 1.433 . S
C2490 C2486 1.350 1_655 S
C2490 C2487 1.463 1_655 S
C2490 N2494 1.427 . S
C2491 H2481 0.929 . S
C2491 C2489 1.433 . S
C2491 N2494 1.384 . S
C2492 H2483 0.929 . S
C2492 C2484 1.383 . S
C2492 C2487 1.350 1_655 S
C2493 H2480 0.929 . S
C2493 C2485 1.433 . S
C2493 N2495 1.384 . S
N2494 C2490 1.427 . S
N2494 C2491 1.384 . S
N2495 C2487 1.427 . S
N2495 C2493 1.384 . S
C1063 C18 1.398 . S
C1067 C249 1.406 . S
C1081 C51 1.401 . S
C1085 C150 1.409 . S
C1099 C84 1.407 . S
C1103 C183 1.398 . S
C1117 C117 1.398 . S
C1121 C216 1.405 . S
C1135 C513 1.398 . S
C1139 C282 1.406 . S
C1153 C315 1.398 . S
C1157 C414 1.407 . S
C1171 C447 1.405 . S
C1175 C348 1.398 . S
C1189 C381 1.401 . S
C1193 C480 1.409 . S
C1207 C546 1.399 . S
C1211 C777 1.408 . S
C1225 C678 1.408 . S
C1229 C579 1.405 . S
C1243 C612 1.398 . S
C1247 C711 1.406 . S
C1261 C645 1.398 . S
C1265 C744 1.405 . S
C1279 C810 1.407 . S
C1283 C1041 1.407 . S
C1297 C843 1.405 . S
C1301 C942 1.398 . S
C1315 C975 1.399 . S
C1319 C876 1.408 . S
C1333 C1008 1.406 . S
C1337 C909 1.407 . S
C1351 C205 1.549 . S
C1355 C7 1.548 . S
C1369 C40 1.553 . S
C1373 C238 1.554 . S
C1387 C73 1.543 . S
C1391 C139 1.544 . S
C1405 C106 1.545 . S
C1409 C172 1.544 . S
C1423 C271 1.544 . S
C1427 C469 1.544 . S
C1441 C502 1.555 . S
C1445 C304 1.555 . S
C1459 C403 1.552 . S
C1463 C337 1.553 . S
C1477 C436 1.544 . S
C1481 C370 1.545 . S
C1495 C535 1.550 . S
C1499 C733 1.549 . S
C1513 C766 1.543 . S
C1517 C568 1.543 . S
C1531 C667 1.555 . S
C1535 C601 1.555 . S
C1549 C634 1.555 . S
C1553 C700 1.555 . S
C1567 C997 1.553 . S
C1571 C799 1.552 . S
C1585 C832 1.543 . S
C1589 C1030 1.543 . S
C1603 C931 1.552 . S
C1607 C865 1.553 . S
C1621 C964 1.555 . S
C1625 C898 1.554 . S
C1639 N926 1.296 . S
C1643 N13 1.298 . S
C1657 N431 1.302 . S
C1661 N46 1.305 . S
C1675 N992 1.306 . S
C1679 N79 1.307 . S
C1693 N112 1.298 . S
C1697 N497 1.297 . S
C1711 N794 1.305 . S
C1715 N145 1.306 . S
C1729 N299 1.298 . S
C1733 N178 1.299 . S
C1747 N860 1.305 . S
C1751 N211 1.305 . S
C1765 N244 1.302 . S
C1769 N365 1.302 . S
C1783 N277 1.306 . S
C1787 N662 1.305 . S
C1801 N310 1.298 . S
C1805 N167 1.297 . S
C1819 N343 1.306 . S
C1823 N728 1.306 . S
C1837 N233 1.298 . S
C1841 N376 1.300 . S
C1855 N530 1.297 . S
C1859 N409 1.298 . S
C1873 N442 1.296 . S
C1877 N35 1.295 . S
C1891 N475 1.300 . S
C1895 N596 1.297 . S
C1909 N508 1.297 . S
C1913 N101 1.296 . S
C1927 N398 1.301 . S
C1931 N541 1.302 . S
C1945 N574 1.300 . S
C1949 N959 1.300 . S
C1963 N464 1.296 . S
C1967 N607 1.299 . S
C1981 N640 1.304 . S
C1985 N1025 1.303 . S
C1999 N673 1.296 . S
C2003 N266 1.295 . S
C2017 N706 1.296 . S
C2021 N827 1.295 . S
C2035 N332 1.296 . S
C2039 N739 1.298 . S
C2053 N772 1.303 . S
C2057 N893 1.301 . S
C2071 N134 1.305 . S
C2075 N805 1.307 . S
C2089 N695 1.300 . S
C2093 N838 1.303 . S
C2107 N200 1.306 . S
C2111 N871 1.307 . S
C2125 N761 1.300 . S
C2129 N904 1.303 . S
C2143 N2 1.304 . S
C2147 N937 1.306 . S
C2161 N563 1.302 . S
C2165 N970 1.302 . S
C2179 N1003 1.296 . S
C2183 N68 1.295 . S
C2197 N629 1.300 . S
C2201 N1036 1.300 . S
C2215 C615 0.932 . S
C2219 C21 0.930 . S
C2233 C648 0.929 . S
C2237 C54 0.935 . S
C2251 C87 0.930 . S
C2255 C549 0.931 . S
C2269 C120 0.929 . S
C2273 C582 0.936 . S
C2287 C747 0.938 . S
C2291 C153 0.932 . S
C2305 C186 0.929 . S
C2309 C780 0.935 . S
C2323 C681 0.936 . S
C2327 C219 0.935 . S
C2341 C714 0.929 . S
C2345 C252 0.933 . S
C2359 C879 0.932 . S
C2363 C285 0.938 . S
C2377 C912 0.932 . S
C2381 C318 0.938 . S
C2395 C351 0.929 . S
C2399 C813 0.935 . S
C2413 C384 0.936 . S
C2417 C846 0.929 . S
C2431 C417 0.930 . S
C2435 C1011 0.937 . S
C2449 C450 0.933 . S
C2453 C1044 0.929 . S
C2467 C945 0.929 . S
C2471 C483 0.934 . S
C2485 C978 0.935 . S
C2489 C516 0.929 . S
