# Generated by pormake.
# Topology fcq, (5)-cn, num edge types: 1
# Building blocks:
#     Node 0, Type 0, BuildingBlock: XOMCOT_clean_sbu_1, # of connection points: 5
#     Node 1, Type 0, BuildingBlock: XOMCOT_clean_sbu_1, # of connection points: 5
#     Node 2, Type 0, BuildingBlock: XOMCOT_clean_sbu_1, # of connection points: 5
#     Node 3, Type 0, BuildingBlock: XOMCOT_clean_sbu_1, # of connection points: 5
#     Node 4, Type 0, BuildingBlock: XOMCOT_clean_sbu_1, # of connection points: 5
#     Node 5, Type 0, BuildingBlock: XOMCOT_clean_sbu_1, # of connection points: 5
#     Node 6, Type 0, BuildingBlock: XOMCOT_clean_sbu_1, # of connection points: 5
#     Node 7, Type 0, BuildingBlock: XOMCOT_clean_sbu_1, # of connection points: 5
#     Node 8, Type 0, BuildingBlock: XOMCOT_clean_sbu_1, # of connection points: 5
#     Node 9, Type 0, BuildingBlock: XOMCOT_clean_sbu_1, # of connection points: 5
#     Node 10, Type 0, BuildingBlock: XOMCOT_clean_sbu_1, # of connection points: 5
#     Node 11, Type 0, BuildingBlock: XOMCOT_clean_sbu_1, # of connection points: 5
#     Node 12, Type 0, BuildingBlock: XOMCOT_clean_sbu_1, # of connection points: 5
#     Node 13, Type 0, BuildingBlock: XOMCOT_clean_sbu_1, # of connection points: 5
#     Node 14, Type 0, BuildingBlock: XOMCOT_clean_sbu_1, # of connection points: 5
#     Node 15, Type 0, BuildingBlock: XOMCOT_clean_sbu_1, # of connection points: 5
#     Node 16, Type 0, BuildingBlock: XOMCOT_clean_sbu_1, # of connection points: 5
#     Node 17, Type 0, BuildingBlock: XOMCOT_clean_sbu_1, # of connection points: 5
#     Node 18, Type 0, BuildingBlock: XOMCOT_clean_sbu_1, # of connection points: 5
#     Node 19, Type 0, BuildingBlock: XOMCOT_clean_sbu_1, # of connection points: 5
#     Node 20, Type 0, BuildingBlock: XOMCOT_clean_sbu_1, # of connection points: 5
#     Node 21, Type 0, BuildingBlock: XOMCOT_clean_sbu_1, # of connection points: 5
#     Node 22, Type 0, BuildingBlock: XOMCOT_clean_sbu_1, # of connection points: 5
#     Node 23, Type 0, BuildingBlock: XOMCOT_clean_sbu_1, # of connection points: 5
#     Node 24, Type 0, BuildingBlock: XOMCOT_clean_sbu_1, # of connection points: 5
#     Node 25, Type 0, BuildingBlock: XOMCOT_clean_sbu_1, # of connection points: 5
#     Node 26, Type 0, BuildingBlock: XOMCOT_clean_sbu_1, # of connection points: 5
#     Node 27, Type 0, BuildingBlock: XOMCOT_clean_sbu_1, # of connection points: 5
#     Node 28, Type 0, BuildingBlock: XOMCOT_clean_sbu_1, # of connection points: 5
#     Node 29, Type 0, BuildingBlock: XOMCOT_clean_sbu_1, # of connection points: 5
#     Node 30, Type 0, BuildingBlock: XOMCOT_clean_sbu_1, # of connection points: 5
#     Node 31, Type 0, BuildingBlock: XOMCOT_clean_sbu_1, # of connection points: 5
#     Node 32, Type 0, BuildingBlock: XOMCOT_clean_sbu_1, # of connection points: 5
#     Node 33, Type 0, BuildingBlock: XOMCOT_clean_sbu_1, # of connection points: 5
#     Node 34, Type 0, BuildingBlock: XOMCOT_clean_sbu_1, # of connection points: 5
#     Node 35, Type 0, BuildingBlock: XOMCOT_clean_sbu_1, # of connection points: 5
#     Node 36, Type 0, BuildingBlock: XOMCOT_clean_sbu_1, # of connection points: 5
#     Node 37, Type 0, BuildingBlock: XOMCOT_clean_sbu_1, # of connection points: 5
#     Node 38, Type 0, BuildingBlock: XOMCOT_clean_sbu_1, # of connection points: 5
#     Node 39, Type 0, BuildingBlock: XOMCOT_clean_sbu_1, # of connection points: 5
#     Node 40, Type 0, BuildingBlock: XOMCOT_clean_sbu_1, # of connection points: 5
#     Node 41, Type 0, BuildingBlock: XOMCOT_clean_sbu_1, # of connection points: 5
#     Node 42, Type 0, BuildingBlock: XOMCOT_clean_sbu_1, # of connection points: 5
#     Node 43, Type 0, BuildingBlock: XOMCOT_clean_sbu_1, # of connection points: 5
#     Node 44, Type 0, BuildingBlock: XOMCOT_clean_sbu_1, # of connection points: 5
#     Node 45, Type 0, BuildingBlock: XOMCOT_clean_sbu_1, # of connection points: 5
#     Node 46, Type 0, BuildingBlock: XOMCOT_clean_sbu_1, # of connection points: 5
#     Node 47, Type 0, BuildingBlock: XOMCOT_clean_sbu_1, # of connection points: 5
#     Edge 48, Type (0, 0), None
#     Edge 49, Type (0, 0), None
#     Edge 50, Type (0, 0), None
#     Edge 51, Type (0, 0), None
#     Edge 52, Type (0, 0), None
#     Edge 53, Type (0, 0), None
#     Edge 54, Type (0, 0), None
#     Edge 55, Type (0, 0), None
#     Edge 56, Type (0, 0), None
#     Edge 57, Type (0, 0), None
#     Edge 58, Type (0, 0), None
#     Edge 59, Type (0, 0), None
#     Edge 60, Type (0, 0), None
#     Edge 61, Type (0, 0), None
#     Edge 62, Type (0, 0), None
#     Edge 63, Type (0, 0), None
#     Edge 64, Type (0, 0), None
#     Edge 65, Type (0, 0), None
#     Edge 66, Type (0, 0), None
#     Edge 67, Type (0, 0), None
#     Edge 68, Type (0, 0), None
#     Edge 69, Type (0, 0), None
#     Edge 70, Type (0, 0), None
#     Edge 71, Type (0, 0), None
#     Edge 72, Type (0, 0), None
#     Edge 73, Type (0, 0), None
#     Edge 74, Type (0, 0), None
#     Edge 75, Type (0, 0), None
#     Edge 76, Type (0, 0), None
#     Edge 77, Type (0, 0), None
#     Edge 78, Type (0, 0), None
#     Edge 79, Type (0, 0), None
#     Edge 80, Type (0, 0), None
#     Edge 81, Type (0, 0), None
#     Edge 82, Type (0, 0), None
#     Edge 83, Type (0, 0), None
#     Edge 84, Type (0, 0), None
#     Edge 85, Type (0, 0), None
#     Edge 86, Type (0, 0), None
#     Edge 87, Type (0, 0), None
#     Edge 88, Type (0, 0), None
#     Edge 89, Type (0, 0), None
#     Edge 90, Type (0, 0), None
#     Edge 91, Type (0, 0), None
#     Edge 92, Type (0, 0), None
#     Edge 93, Type (0, 0), None
#     Edge 94, Type (0, 0), None
#     Edge 95, Type (0, 0), None
#     Edge 96, Type (0, 0), None
#     Edge 97, Type (0, 0), None
#     Edge 98, Type (0, 0), None
#     Edge 99, Type (0, 0), None
#     Edge 100, Type (0, 0), None
#     Edge 101, Type (0, 0), None
#     Edge 102, Type (0, 0), None
#     Edge 103, Type (0, 0), None
#     Edge 104, Type (0, 0), None
#     Edge 105, Type (0, 0), None
#     Edge 106, Type (0, 0), None
#     Edge 107, Type (0, 0), None
#     Edge 108, Type (0, 0), None
#     Edge 109, Type (0, 0), None
#     Edge 110, Type (0, 0), None
#     Edge 111, Type (0, 0), None
#     Edge 112, Type (0, 0), None
#     Edge 113, Type (0, 0), None
#     Edge 114, Type (0, 0), None
#     Edge 115, Type (0, 0), None
#     Edge 116, Type (0, 0), None
#     Edge 117, Type (0, 0), None
#     Edge 118, Type (0, 0), None
#     Edge 119, Type (0, 0), None
#     Edge 120, Type (0, 0), None
#     Edge 121, Type (0, 0), None
#     Edge 122, Type (0, 0), None
#     Edge 123, Type (0, 0), None
#     Edge 124, Type (0, 0), None
#     Edge 125, Type (0, 0), None
#     Edge 126, Type (0, 0), None
#     Edge 127, Type (0, 0), None
#     Edge 128, Type (0, 0), None
#     Edge 129, Type (0, 0), None
#     Edge 130, Type (0, 0), None
#     Edge 131, Type (0, 0), None
#     Edge 132, Type (0, 0), None
#     Edge 133, Type (0, 0), None
#     Edge 134, Type (0, 0), None
#     Edge 135, Type (0, 0), None
#     Edge 136, Type (0, 0), None
#     Edge 137, Type (0, 0), None
#     Edge 138, Type (0, 0), None
#     Edge 139, Type (0, 0), None
#     Edge 140, Type (0, 0), None
#     Edge 141, Type (0, 0), None
#     Edge 142, Type (0, 0), None
#     Edge 143, Type (0, 0), None
#     Edge 144, Type (0, 0), None
#     Edge 145, Type (0, 0), None
#     Edge 146, Type (0, 0), None
#     Edge 147, Type (0, 0), None
#     Edge 148, Type (0, 0), None
#     Edge 149, Type (0, 0), None
#     Edge 150, Type (0, 0), None
#     Edge 151, Type (0, 0), None
#     Edge 152, Type (0, 0), None
#     Edge 153, Type (0, 0), None
#     Edge 154, Type (0, 0), None
#     Edge 155, Type (0, 0), None
#     Edge 156, Type (0, 0), None
#     Edge 157, Type (0, 0), None
#     Edge 158, Type (0, 0), None
#     Edge 159, Type (0, 0), None
#     Edge 160, Type (0, 0), None
#     Edge 161, Type (0, 0), None
#     Edge 162, Type (0, 0), None
#     Edge 163, Type (0, 0), None
#     Edge 164, Type (0, 0), None
#     Edge 165, Type (0, 0), None
#     Edge 166, Type (0, 0), None
#     Edge 167, Type (0, 0), None
# Relax obj value: 0.455
# Max RMSD: 0.265
# Mean RMSD: 0.265
data_MOF--net-fcq--node1-XOMCOT_clean_sbu_1--edge1-none
_symmetry_space_group_name_H-M    P1
_symmetry_Int_Tables_number       1
_symmetry_cell_setting            triclinic
loop_
_symmetry_equiv_pos_as_xyz
'x, y, z'
_cell_length_a     33.723924
_cell_length_b     33.724938
_cell_length_c     33.725448
_cell_angle_alpha  89.999484
_cell_angle_beta   89.999932
_cell_angle_gamma 89.999883
loop_
_atom_site_label
_atom_site_type_symbol
_atom_site_fract_x
_atom_site_fract_y
_atom_site_fract_z
_atom_type_partial_charge
C0 C 0.24576 0.2428 0.42447 0.0
C1 C 0.27158 0.25111 0.45513 0.0
N2 N 0.25075 0.25107 0.48918 0.0
N3 N 0.20901 0.23691 0.43922 0.0
C4 C 0.21289 0.24299 0.47874 0.0
H5 H 0.25378 0.23869 0.3937 0.0
Co6 Co 0.16599 0.2154 0.41092 0.0
C7 C 0.11922 0.18205 0.48173 0.0
O8 O 0.08316 0.19369 0.47275 0.0
N9 N 0.12343 0.19402 0.3824 0.0
C10 C 0.07304 0.18889 0.34004 0.0
C11 C 0.1051 0.21154 0.35143 0.0
C12 C 0.10284 0.16016 0.38851 0.0
N13 N 0.07152 0.1568 0.36372 0.0
O14 O 0.1344 0.26104 0.42308 0.0
H15 H 0.11378 0.23961 0.33862 0.0
H16 H 0.10976 0.13905 0.41168 0.0
O17 O 0.1482 0.18996 0.45885 0.0
C18 C 0.13786 0.29192 0.40156 0.0
O19 O 0.16565 0.29286 0.37424 0.0
N20 N 0.19731 0.17104 0.39761 0.0
C21 C 0.25161 0.11198 0.37698 0.0
C22 C 0.23692 0.11498 0.41569 0.0
C23 C 0.21056 0.14496 0.42556 0.0
C24 C 0.2094 0.16741 0.35914 0.0
C25 C 0.23671 0.13794 0.34807 0.0
H26 H 0.20262 0.14791 0.45622 0.0
H27 H 0.1991 0.18852 0.33729 0.0
H28 H 0.18898 0.23912 0.49971 0.0
H29 H 0.30335 0.25484 0.45273 0.0
H30 H 0.05174 0.19619 0.31713 0.0
H31 H 0.2471 0.09547 0.439 0.0
H32 H 0.24746 0.13682 0.31784 0.0
C33 C 0.49281 0.52154 0.8428 0.0
C34 C 0.50112 0.49573 0.81214 0.0
N35 N 0.50108 0.51655 0.77809 0.0
N36 N 0.48692 0.5583 0.82805 0.0
C37 C 0.493 0.55442 0.78853 0.0
H38 H 0.4887 0.51352 0.87357 0.0
Co39 Co 0.46541 0.60131 0.85636 0.0
C40 C 0.43206 0.64808 0.78554 0.0
O41 O 0.4437 0.68414 0.79453 0.0
N42 N 0.44404 0.64387 0.88488 0.0
C43 C 0.43891 0.69426 0.92723 0.0
C44 C 0.46155 0.66219 0.91585 0.0
C45 C 0.41017 0.66447 0.87876 0.0
N46 N 0.40681 0.69578 0.90355 0.0
O47 O 0.51105 0.6329 0.84419 0.0
H48 H 0.48962 0.65352 0.92866 0.0
H49 H 0.38906 0.65755 0.85559 0.0
O50 O 0.43997 0.6191 0.80842 0.0
C51 C 0.54194 0.62944 0.86572 0.0
O52 O 0.54287 0.60165 0.89303 0.0
N53 N 0.42105 0.56999 0.86966 0.0
C54 C 0.36199 0.51569 0.89029 0.0
C55 C 0.36499 0.53038 0.85158 0.0
C56 C 0.39497 0.55674 0.84172 0.0
C57 C 0.41742 0.5579 0.90814 0.0
C58 C 0.38795 0.53059 0.9192 0.0
H59 H 0.39793 0.56468 0.81105 0.0
H60 H 0.43853 0.5682 0.92998 0.0
H61 H 0.48913 0.57832 0.76756 0.0
H62 H 0.50485 0.46396 0.81454 0.0
H63 H 0.4462 0.71555 0.95014 0.0
H64 H 0.34548 0.5202 0.82827 0.0
H65 H 0.38683 0.51984 0.94944 0.0
C66 C 0.77155 0.27449 0.42448 0.0
C67 C 0.74574 0.26618 0.45514 0.0
N68 N 0.76656 0.26622 0.48919 0.0
N69 N 0.80831 0.28038 0.43922 0.0
C70 C 0.80443 0.2743 0.47875 0.0
H71 H 0.76353 0.27861 0.3937 0.0
Co72 Co 0.85132 0.30189 0.41092 0.0
C73 C 0.8981 0.33524 0.48173 0.0
O74 O 0.93416 0.3236 0.47274 0.0
N75 N 0.89388 0.32326 0.3824 0.0
C76 C 0.94427 0.32839 0.34004 0.0
C77 C 0.91221 0.30574 0.35143 0.0
C78 C 0.91447 0.35713 0.38851 0.0
N79 N 0.94579 0.36049 0.36372 0.0
O80 O 0.88291 0.25625 0.42308 0.0
H81 H 0.90353 0.27767 0.33862 0.0
H82 H 0.90755 0.37824 0.41167 0.0
O83 O 0.86912 0.32733 0.45886 0.0
C84 C 0.87945 0.22536 0.40156 0.0
O85 O 0.85166 0.22443 0.37424 0.0
N86 N 0.82 0.34625 0.39762 0.0
C87 C 0.7657 0.40531 0.37698 0.0
C88 C 0.78039 0.40231 0.4157 0.0
C89 C 0.80675 0.37233 0.42556 0.0
C90 C 0.80791 0.34988 0.35914 0.0
C91 C 0.78061 0.37935 0.34808 0.0
H92 H 0.81469 0.36938 0.45623 0.0
H93 H 0.81821 0.32877 0.33729 0.0
H94 H 0.82833 0.27817 0.49972 0.0
H95 H 0.71396 0.26246 0.45273 0.0
H96 H 0.96556 0.3211 0.31713 0.0
H97 H 0.77022 0.42182 0.439 0.0
H98 H 0.76985 0.38047 0.31784 0.0
C99 C 0.5245 0.99574 0.8428 0.0
C100 C 0.51619 0.02156 0.81214 0.0
N101 N 0.51623 1.00073 0.77809 0.0
N102 N 0.5304 0.95899 0.82805 0.0
C103 C 0.52431 0.96287 0.78853 0.0
H104 H 0.52862 1.00376 0.87357 0.0
Co105 Co 0.55191 0.91597 0.85636 0.0
C106 C 0.58526 0.86921 0.78554 0.0
O107 O 0.57362 0.83314 0.79452 0.0
N108 N 0.57328 0.87341 0.88487 0.0
C109 C 0.57841 0.82302 0.92723 0.0
C110 C 0.55576 0.85509 0.91584 0.0
C111 C 0.60715 0.85282 0.87876 0.0
N112 N 0.61051 0.82151 0.90355 0.0
O113 O 0.50627 0.88439 0.84419 0.0
H114 H 0.52769 0.86376 0.92865 0.0
H115 H 0.62826 0.85974 0.85559 0.0
O116 O 0.57734 0.89818 0.80842 0.0
C117 C 0.47538 0.88784 0.86571 0.0
O118 O 0.47444 0.91564 0.89303 0.0
N119 N 0.59627 0.9473 0.86966 0.0
C120 C 0.65532 1.0016 0.8903 0.0
C121 C 0.65232 0.98691 0.85158 0.0
C122 C 0.62235 0.96054 0.84172 0.0
C123 C 0.59989 0.95938 0.90814 0.0
C124 C 0.62936 0.98669 0.9192 0.0
H125 H 0.61939 0.95261 0.81105 0.0
H126 H 0.57878 0.94908 0.92999 0.0
H127 H 0.52818 0.93896 0.76756 0.0
H128 H 0.51247 0.05333 0.81454 0.0
H129 H 0.57112 0.80173 0.95014 0.0
H130 H 0.67183 0.99708 0.82828 0.0
H131 H 0.63048 0.99744 0.94944 0.0
C132 C 0.24577 0.77448 0.0928 0.0
C133 C 0.27158 0.76618 0.06214 0.0
N134 N 0.25075 0.76621 0.02809 0.0
N135 N 0.20901 0.78038 0.07806 0.0
C136 C 0.21289 0.77429 0.03853 0.0
H137 H 0.25379 0.7786 0.12358 0.0
Co138 Co 0.166 0.80189 0.10636 0.0
C139 C 0.11923 0.83524 0.03554 0.0
O140 O 0.08316 0.8236 0.04453 0.0
N141 N 0.12344 0.82326 0.13488 0.0
C142 C 0.07304 0.82839 0.17723 0.0
C143 C 0.10511 0.80574 0.16585 0.0
C144 C 0.10284 0.85713 0.12877 0.0
N145 N 0.07153 0.86048 0.15355 0.0
O146 O 0.13441 0.75625 0.0942 0.0
H147 H 0.11378 0.77767 0.17865 0.0
H148 H 0.10976 0.87823 0.1056 0.0
O149 O 0.1482 0.82732 0.05842 0.0
C150 C 0.13787 0.72536 0.11572 0.0
O151 O 0.16566 0.72443 0.14304 0.0
N152 N 0.19732 0.84625 0.11966 0.0
C153 C 0.25162 0.90531 0.1403 0.0
C154 C 0.23693 0.90231 0.10158 0.0
C155 C 0.21056 0.87233 0.09172 0.0
C156 C 0.20941 0.84987 0.15814 0.0
C157 C 0.23671 0.87935 0.1692 0.0
H158 H 0.20263 0.86937 0.06105 0.0
H159 H 0.19911 0.82877 0.17999 0.0
H160 H 0.18898 0.77816 0.01756 0.0
H161 H 0.30335 0.76245 0.06454 0.0
H162 H 0.05175 0.82109 0.20014 0.0
H163 H 0.2471 0.92182 0.07828 0.0
H164 H 0.24746 0.88047 0.19944 0.0
C165 C 0.02451 0.52153 0.17447 0.0
C166 C 0.0162 0.49572 0.20513 0.0
N167 N 0.01623 0.51655 0.23918 0.0
N168 N 0.0304 0.55829 0.18922 0.0
C169 C 0.0243 0.55441 0.22874 0.0
H170 H 0.02863 0.51351 0.1437 0.0
Co171 Co 0.0519 0.6013 0.16092 0.0
C172 C 0.08523 0.64807 0.23174 0.0
O173 O 0.07358 0.68413 0.22276 0.0
N174 N 0.07327 0.64387 0.1324 0.0
C175 C 0.0784 0.69427 0.09005 0.0
C176 C 0.05576 0.66219 0.10143 0.0
C177 C 0.10713 0.66448 0.13853 0.0
N178 N 0.11047 0.69581 0.11376 0.0
O179 O 1.00626 0.63288 0.17308 0.0
H180 H 0.0277 0.65349 0.0886 0.0
H181 H 0.12824 0.65756 0.1617 0.0
O182 O 0.07733 0.6191 0.20886 0.0
C183 C 0.97537 0.62943 0.15155 0.0
O184 O 0.97444 0.60164 0.12423 0.0
N185 N 0.09627 0.56999 0.14762 0.0
C186 C 0.15533 0.51569 0.12698 0.0
C187 C 0.15233 0.53038 0.1657 0.0
C188 C 0.12235 0.55675 0.17556 0.0
C189 C 0.0999 0.5579 0.10914 0.0
C190 C 0.12937 0.5306 0.09808 0.0
H191 H 0.1194 0.56469 0.20622 0.0
H192 H 0.07879 0.5682 0.08729 0.0
H193 H 0.02817 0.57832 0.24971 0.0
H194 H 0.01248 0.46395 0.20273 0.0
H195 H 0.07111 0.71555 0.06713 0.0
H196 H 0.17185 0.52021 0.189 0.0
H197 H 0.13049 0.51984 0.06784 0.0
C198 C 0.77156 0.74281 0.09279 0.0
C199 C 0.74574 0.75111 0.06213 0.0
N200 N 0.76657 0.75108 0.02808 0.0
N201 N 0.80831 0.73691 0.07805 0.0
C202 C 0.80443 0.743 0.03852 0.0
H203 H 0.76353 0.73869 0.12357 0.0
Co204 Co 0.85133 0.71541 0.10635 0.0
C205 C 0.89809 0.68206 0.03552 0.0
O206 O 0.93415 0.69372 0.0445 0.0
N207 N 0.89389 0.69404 0.13486 0.0
C208 C 0.94428 0.68891 0.17722 0.0
C209 C 0.91221 0.71155 0.16584 0.0
C210 C 0.9145 0.66018 0.12874 0.0
N211 N 0.94582 0.65683 0.15351 0.0
O212 O 0.88291 0.76105 0.09418 0.0
H213 H 0.90352 0.7396 0.17867 0.0
H214 H 0.90758 0.63907 0.10557 0.0
O215 O 0.86912 0.68997 0.05841 0.0
C216 C 0.87946 0.79193 0.11572 0.0
O217 O 0.85167 0.79286 0.14304 0.0
N218 N 0.82001 0.67104 0.11965 0.0
C219 C 0.76571 0.61199 0.1403 0.0
C220 C 0.7804 0.61499 0.10158 0.0
C221 C 0.80676 0.64496 0.09172 0.0
C222 C 0.80792 0.66742 0.15813 0.0
C223 C 0.78061 0.63795 0.1692 0.0
H224 H 0.8147 0.64792 0.06105 0.0
H225 H 0.81822 0.68853 0.17998 0.0
H226 H 0.82834 0.73913 0.01755 0.0
H227 H 0.71397 0.75484 0.06454 0.0
H228 H 0.96557 0.69619 0.20015 0.0
H229 H 0.77022 0.59547 0.07828 0.0
H230 H 0.76986 0.63684 0.19944 0.0
C231 C 0.99282 0.99575 0.17448 0.0
C232 C 1.00112 0.02157 0.20514 0.0
N233 N 1.00109 1.00074 0.23918 0.0
N234 N 0.98693 0.959 0.18922 0.0
C235 C 0.99301 0.96288 0.22874 0.0
H236 H 0.9887 1.00378 0.1437 0.0
Co237 Co 0.96542 0.91598 0.16092 0.0
C238 C 0.93208 0.86922 0.23174 0.0
O239 O 0.94374 0.83315 0.22277 0.0
N240 N 0.94406 0.87342 0.1324 0.0
C241 C 0.93894 0.82302 0.09005 0.0
C242 C 0.96158 0.8551 0.10143 0.0
C243 C 0.9102 0.85281 0.13853 0.0
N244 N 0.90686 0.82148 0.11375 0.0
O245 O 0.01107 0.8844 0.17309 0.0
H246 H 0.98963 0.86379 0.0886 0.0
H247 H 0.88909 0.85973 0.16169 0.0
O248 O 0.93999 0.89819 0.20886 0.0
C249 C 0.04196 0.88786 0.15156 0.0
O250 O 0.04289 0.91565 0.12424 0.0
N251 N 0.92106 0.9473 0.14761 0.0
C252 C 0.862 1.0016 0.12697 0.0
C253 C 0.865 0.98691 0.16569 0.0
C254 C 0.89498 0.96054 0.17555 0.0
C255 C 0.91744 0.95939 0.10913 0.0
C256 C 0.88796 0.98669 0.09807 0.0
H257 H 0.89793 0.9526 0.20622 0.0
H258 H 0.93854 0.94909 0.08729 0.0
H259 H 0.98915 0.93897 0.24971 0.0
H260 H 1.00484 0.05334 0.20273 0.0
H261 H 0.94623 0.80174 0.06712 0.0
H262 H 0.84549 0.99708 0.18899 0.0
H263 H 0.88685 0.99744 0.06783 0.0
C264 C 0.42449 0.24574 0.2428 0.0
C265 C 0.45515 0.27156 0.2511 0.0
N266 N 0.48921 0.25074 0.25107 0.0
N267 N 0.43924 0.20899 0.2369 0.0
C268 C 0.47877 0.21287 0.24299 0.0
H269 H 0.39372 0.25376 0.23868 0.0
Co270 Co 0.41094 0.16598 0.21539 0.0
C271 C 0.48176 0.11921 0.18205 0.0
O272 O 0.47277 0.08314 0.19369 0.0
N273 N 0.38242 0.12342 0.19402 0.0
C274 C 0.34007 0.07302 0.18888 0.0
C275 C 0.35145 0.10509 0.21153 0.0
C276 C 0.38854 0.10282 0.16015 0.0
N277 N 0.36375 0.07151 0.15679 0.0
O278 O 0.4231 0.13439 0.26103 0.0
H279 H 0.33864 0.11376 0.2396 0.0
H280 H 0.41171 0.10974 0.13904 0.0
O281 O 0.45888 0.14819 0.18996 0.0
C282 C 0.40158 0.13784 0.29192 0.0
O283 O 0.37426 0.16564 0.29286 0.0
N284 N 0.39764 0.1973 0.17103 0.0
C285 C 0.377 0.2516 0.11198 0.0
C286 C 0.41571 0.23691 0.11497 0.0
C287 C 0.42558 0.21054 0.14495 0.0
C288 C 0.35916 0.20939 0.16741 0.0
C289 C 0.34809 0.2367 0.13794 0.0
H290 H 0.45624 0.2026 0.1479 0.0
H291 H 0.33731 0.19909 0.18852 0.0
H292 H 0.49974 0.18897 0.23912 0.0
H293 H 0.45274 0.30333 0.25483 0.0
H294 H 0.31716 0.05173 0.19618 0.0
H295 H 0.43902 0.24708 0.09546 0.0
H296 H 0.31786 0.24746 0.13683 0.0
C297 C 0.49576 0.34281 0.02447 0.0
C298 C 0.52158 0.31215 0.01616 0.0
N299 N 0.50075 0.2781 0.0162 0.0
N300 N 0.45901 0.32806 0.03037 0.0
C301 C 0.46289 0.28854 0.02428 0.0
H302 H 0.50378 0.37359 0.02858 0.0
Co303 Co 0.41599 0.35637 0.05188 0.0
C304 C 0.36922 0.28555 0.08523 0.0
O305 O 0.33316 0.29454 0.07359 0.0
N306 N 0.37343 0.38488 0.07325 0.0
C307 C 0.32304 0.42724 0.07838 0.0
C308 C 0.3551 0.41585 0.05573 0.0
C309 C 0.35284 0.37877 0.10712 0.0
N310 N 0.32153 0.40356 0.11048 0.0
O311 O 0.3844 0.3442 1.00624 0.0
H312 H 0.36377 0.42866 0.02766 0.0
H313 H 0.35977 0.3556 0.12823 0.0
O314 O 0.3982 0.30843 0.07731 0.0
C315 C 0.38786 0.36572 0.97535 0.0
O316 O 0.41566 0.39304 0.97441 0.0
N317 N 0.44732 0.36967 0.09623 0.0
C318 C 0.50162 0.39031 0.15529 0.0
C319 C 0.48693 0.35159 0.15229 0.0
C320 C 0.46056 0.34173 0.12231 0.0
C321 C 0.45941 0.40815 0.09985 0.0
C322 C 0.48671 0.41921 0.12933 0.0
H323 H 0.45262 0.31106 0.11936 0.0
H324 H 0.44911 0.42999 0.07875 0.0
H325 H 0.43899 0.26757 0.02816 0.0
H326 H 0.55335 0.31456 0.01244 0.0
H327 H 0.30174 0.45015 0.07109 0.0
H328 H 0.4971 0.32829 0.1718 0.0
H329 H 0.49747 0.44945 0.13044 0.0
C330 C 0.59284 0.27155 0.2428 0.0
C331 C 0.56218 0.24572 0.25109 0.0
N332 N 0.52812 0.26652 0.25098 0.0
N333 N 0.57808 0.30829 0.23689 0.0
C334 C 0.53855 0.3044 0.24294 0.0
H335 H 0.62363 0.26355 0.23873 0.0
Co336 Co 0.60638 0.35131 0.21539 0.0
C337 C 0.53556 0.39809 0.18204 0.0
O338 O 0.54455 0.43415 0.19367 0.0
N339 N 0.6349 0.39388 0.19403 0.0
C340 C 0.67725 0.44428 0.1889 0.0
C341 C 0.66587 0.41221 0.21155 0.0
C342 C 0.62879 0.41447 0.16016 0.0
N343 N 0.65357 0.44579 0.1568 0.0
O344 O 0.59421 0.38289 0.26103 0.0
H345 H 0.67867 0.40354 0.23962 0.0
H346 H 0.60563 0.40755 0.13905 0.0
O347 O 0.55844 0.36911 0.18995 0.0
C348 C 0.61574 0.37944 0.29192 0.0
O349 O 0.64306 0.35165 0.29286 0.0
N350 N 0.61969 0.32 0.17103 0.0
C351 C 0.64033 0.26569 0.11198 0.0
C352 C 0.60162 0.28038 0.11497 0.0
C353 C 0.59175 0.30676 0.14494 0.0
C354 C 0.65817 0.30791 0.16741 0.0
C355 C 0.66924 0.2806 0.13794 0.0
H356 H 0.56109 0.3147 0.14789 0.0
H357 H 0.68002 0.3182 0.18852 0.0
H358 H 0.51757 0.3283 0.23909 0.0
H359 H 0.5646 0.21395 0.25487 0.0
H360 H 0.70016 0.46558 0.19619 0.0
H361 H 0.57831 0.27021 0.09546 0.0
H362 H 0.69947 0.26984 0.13684 0.0
C363 C 0.52156 0.17447 0.02448 0.0
C364 C 0.49573 0.20512 0.01619 0.0
N365 N 0.51654 0.23918 0.01629 0.0
N366 N 0.55831 0.18923 0.03039 0.0
C367 C 0.55442 0.22876 0.02433 0.0
H368 H 0.51356 0.14368 0.02855 0.0
Co369 Co 0.60133 0.16092 0.05189 0.0
C370 C 0.64811 0.23174 0.08523 0.0
O371 O 0.68417 0.22275 0.0736 0.0
N372 N 0.6439 0.13241 0.07325 0.0
C373 C 0.69429 0.09005 0.07838 0.0
C374 C 0.66223 0.10144 0.05573 0.0
C375 C 0.66449 0.13852 0.10712 0.0
N376 N 0.69581 0.11373 0.11048 0.0
O377 O 0.63291 0.17309 1.00625 0.0
H378 H 0.65355 0.08864 0.02766 0.0
H379 H 0.65757 0.16168 0.12823 0.0
O380 O 0.61913 0.20886 0.07732 0.0
C381 C 0.62945 0.15157 0.97536 0.0
O382 O 0.60166 0.12425 0.97443 0.0
N383 N 0.57002 0.14762 0.09626 0.0
C384 C 0.51571 0.12698 0.1553 0.0
C385 C 0.5304 0.1657 0.15231 0.0
C386 C 0.55678 0.17556 0.12234 0.0
C387 C 0.55792 0.10915 0.09987 0.0
C388 C 0.53061 0.09808 0.12934 0.0
H389 H 0.56473 0.20622 0.11939 0.0
H390 H 0.56822 0.0873 0.07876 0.0
H391 H 0.57832 0.24973 0.02818 0.0
H392 H 0.46397 0.2027 0.01241 0.0
H393 H 0.71559 0.06715 0.07109 0.0
H394 H 0.52023 0.189 0.17183 0.0
H395 H 0.51985 0.06784 0.13045 0.0
C396 C 0.42449 0.77154 0.27447 0.0
C397 C 0.45515 0.74573 0.26617 0.0
N398 N 0.4892 0.76655 0.26621 0.0
N399 N 0.43923 0.8083 0.28037 0.0
C400 C 0.47876 0.80442 0.27429 0.0
H401 H 0.39371 0.76353 0.27859 0.0
Co402 Co 0.41093 0.85131 0.30188 0.0
C403 C 0.48175 0.89808 0.33523 0.0
O404 O 0.47277 0.93414 0.32359 0.0
N405 N 0.38241 0.89387 0.32326 0.0
C406 C 0.34006 0.94426 0.32839 0.0
C407 C 0.35145 0.9122 0.30574 0.0
C408 C 0.38853 0.91446 0.35713 0.0
N409 N 0.36374 0.94578 0.36049 0.0
O410 O 0.4231 0.8829 0.25625 0.0
H411 H 0.33864 0.90353 0.27767 0.0
H412 H 0.4117 0.90754 0.37823 0.0
O413 O 0.45887 0.8691 0.32732 0.0
C414 C 0.40158 0.87944 0.22535 0.0
O415 O 0.37426 0.85165 0.22442 0.0
N416 N 0.39763 0.81999 0.34624 0.0
C417 C 0.37699 0.76568 0.4053 0.0
C418 C 0.41571 0.78037 0.40229 0.0
C419 C 0.42557 0.80674 0.37232 0.0
C420 C 0.35915 0.8079 0.34987 0.0
C421 C 0.34809 0.7806 0.37934 0.0
H422 H 0.45624 0.81467 0.36936 0.0
H423 H 0.3373 0.81821 0.32877 0.0
H424 H 0.49973 0.82832 0.27816 0.0
H425 H 0.45274 0.71396 0.26244 0.0
H426 H 0.31715 0.96556 0.3211 0.0
H427 H 0.43902 0.7702 0.4218 0.0
H428 H 0.31785 0.76985 0.38046 0.0
C429 C 0.02156 0.34281 0.99279 0.0
C430 C 0.99574 0.31215 1.0011 0.0
N431 N 0.01657 0.2781 1.00107 0.0
N432 N 0.05831 0.32806 0.9869 0.0
C433 C 0.05443 0.28854 0.99299 0.0
H434 H 0.01354 0.37358 0.98868 0.0
Co435 Co 0.10133 0.35637 0.96539 0.0
C436 C 0.1481 0.28555 0.93205 0.0
O437 O 0.18417 0.29454 0.94368 0.0
N438 N 0.14389 0.38488 0.94402 0.0
C439 C 0.19428 0.42724 0.93888 0.0
C440 C 0.16222 0.41585 0.96154 0.0
C441 C 0.16448 0.37877 0.91015 0.0
N442 N 0.19579 0.40356 0.90679 0.0
O443 O 0.13291 0.3442 0.01103 0.0
H444 H 0.15355 0.42866 0.9896 0.0
H445 H 0.15755 0.3556 0.88904 0.0
O446 O 0.11912 0.30842 0.93996 0.0
C447 C 0.12946 0.36573 0.04192 0.0
O448 O 0.10166 0.39305 0.04285 0.0
N449 N 0.07 0.36966 0.92103 0.0
C450 C 0.01571 0.3903 0.86197 0.0
C451 C 0.0304 0.35158 0.86497 0.0
C452 C 0.05676 0.34172 0.89495 0.0
C453 C 0.05792 0.40814 0.9174 0.0
C454 C 0.03061 0.41921 0.88793 0.0
H455 H 0.0647 0.31106 0.8979 0.0
H456 H 0.06821 0.42999 0.93851 0.0
H457 H 0.07834 0.26757 0.98912 0.0
H458 H 0.96397 0.31455 1.00482 0.0
H459 H 0.21558 0.45015 0.94617 0.0
H460 H 0.02023 0.32828 0.84546 0.0
H461 H 0.01986 0.44944 0.88681 0.0
C462 C 0.59283 0.74575 0.27448 0.0
C463 C 0.56218 0.77158 0.26619 0.0
N464 N 0.52812 0.75077 0.26629 0.0
N465 N 0.57808 0.709 0.28039 0.0
C466 C 0.53855 0.71289 0.27433 0.0
H467 H 0.62362 0.75375 0.27855 0.0
Co468 Co 0.60638 0.66598 0.30189 0.0
C469 C 0.53556 0.6192 0.33523 0.0
O470 O 0.54455 0.58314 0.32359 0.0
N471 N 0.6349 0.62342 0.32325 0.0
C472 C 0.67725 0.57302 0.32838 0.0
C473 C 0.66586 0.60508 0.30573 0.0
C474 C 0.62879 0.60282 0.35712 0.0
N475 N 0.65357 0.57151 0.36048 0.0
O476 O 0.59421 0.6344 0.25624 0.0
H477 H 0.67867 0.61376 0.27766 0.0
H478 H 0.60562 0.60975 0.37823 0.0
O479 O 0.55844 0.64818 0.32732 0.0
C480 C 0.61574 0.63786 0.22535 0.0
O481 O 0.64306 0.66565 0.22442 0.0
N482 N 0.61968 0.69729 0.34626 0.0
C483 C 0.64032 0.75159 0.40531 0.0
C484 C 0.6016 0.7369 0.40231 0.0
C485 C 0.59174 0.71053 0.37234 0.0
C486 C 0.65816 0.70939 0.34987 0.0
C487 C 0.66923 0.73669 0.37935 0.0
H488 H 0.56108 0.70259 0.36939 0.0
H489 H 0.68001 0.69909 0.32877 0.0
H490 H 0.51757 0.68899 0.27818 0.0
H491 H 0.5646 0.80334 0.26241 0.0
H492 H 0.70015 0.55172 0.32108 0.0
H493 H 0.5783 0.74707 0.42183 0.0
H494 H 0.69946 0.74745 0.38046 0.0
C495 C 0.99576 0.17447 0.9928 0.0
C496 C 0.02159 0.20512 1.00109 0.0
N497 N 1.00078 0.23918 1.00098 0.0
N498 N 0.95902 0.18922 0.98688 0.0
C499 C 0.96291 0.22875 0.99294 0.0
H500 H 1.00377 0.14368 0.98873 0.0
Co501 Co 0.916 0.16092 0.96538 0.0
C502 C 0.86922 0.23174 0.93203 0.0
O503 O 0.83316 0.22275 0.94367 0.0
N504 N 0.87343 0.1324 0.94402 0.0
C505 C 0.82304 0.09005 0.93889 0.0
C506 C 0.8551 0.10144 0.96154 0.0
C507 C 0.85284 0.13851 0.91015 0.0
N508 N 0.82152 0.11373 0.90679 0.0
O509 O 0.88442 0.17309 0.01102 0.0
H510 H 0.86378 0.08863 0.98961 0.0
H511 H 0.85976 0.16168 0.88904 0.0
O512 O 0.8982 0.20886 0.93994 0.0
C513 C 0.88787 0.15157 0.04191 0.0
O514 O 0.91567 0.12425 0.04285 0.0
N515 N 0.94732 0.14761 0.92102 0.0
C516 C 1.00163 0.12697 0.86197 0.0
C517 C 0.98693 0.16569 0.86496 0.0
C518 C 0.96056 0.17555 0.89494 0.0
C519 C 0.95941 0.10914 0.9174 0.0
C520 C 0.98672 0.09807 0.88793 0.0
H521 H 0.95261 0.20622 0.89788 0.0
H522 H 0.94911 0.08729 0.93851 0.0
H523 H 0.939 0.24973 0.98908 0.0
H524 H 0.05336 0.20271 1.00487 0.0
H525 H 0.80174 0.06714 0.94619 0.0
H526 H 0.9971 0.18899 0.84545 0.0
H527 H 0.99748 0.06784 0.88683 0.0
C528 C 0.24281 0.42447 0.24575 0.0
C529 C 0.25111 0.45513 0.27157 0.0
N530 N 0.25108 0.48918 0.25074 0.0
N531 N 0.23692 0.43922 0.209 0.0
C532 C 0.24301 0.47874 0.21288 0.0
H533 H 0.23869 0.3937 0.25377 0.0
Co534 Co 0.21542 0.41092 0.16598 0.0
C535 C 0.18209 0.48175 0.11921 0.0
O536 O 0.19374 0.47277 0.08315 0.0
N537 N 0.19405 0.38241 0.12341 0.0
C538 C 0.18893 0.34006 0.07301 0.0
C539 C 0.21157 0.35144 0.10509 0.0
C540 C 0.1602 0.38854 0.1028 0.0
N541 N 0.15686 0.36377 0.07147 0.0
O542 O 0.26107 0.42309 0.1344 0.0
H543 H 0.23963 0.33861 0.11378 0.0
H544 H 0.13909 0.4117 0.10972 0.0
O545 O 0.18999 0.45886 0.14819 0.0
C546 C 0.29196 0.40156 0.13786 0.0
O547 O 0.29289 0.37424 0.16565 0.0
N548 N 0.17105 0.39762 0.19729 0.0
C549 C 0.11199 0.37698 0.25159 0.0
C550 C 0.115 0.4157 0.23691 0.0
C551 C 0.14498 0.42556 0.21054 0.0
C552 C 0.16742 0.35914 0.20937 0.0
C553 C 0.13795 0.34808 0.23668 0.0
H554 H 0.14793 0.45623 0.2026 0.0
H555 H 0.18853 0.33729 0.19907 0.0
H556 H 0.23915 0.49972 0.18897 0.0
H557 H 0.25483 0.45272 0.30334 0.0
H558 H 0.19622 0.31714 0.05173 0.0
H559 H 0.09549 0.43901 0.24708 0.0
H560 H 0.13683 0.31784 0.24743 0.0
C561 C 0.24281 0.59281 0.27155 0.0
C562 C 0.2511 0.56216 0.24572 0.0
N563 N 0.251 0.5281 0.26653 0.0
N564 N 0.2369 0.57806 0.30829 0.0
C565 C 0.24296 0.53853 0.3044 0.0
H566 H 0.23874 0.6236 0.26354 0.0
Co567 Co 0.2154 0.60636 0.35131 0.0
C568 C 0.18205 0.53554 0.39809 0.0
O569 O 0.19369 0.54453 0.43415 0.0
N570 N 0.19403 0.63488 0.39387 0.0
C571 C 0.1889 0.67723 0.44427 0.0
C572 C 0.21155 0.66584 0.4122 0.0
C573 C 0.16016 0.62877 0.41447 0.0
N574 N 0.1568 0.65355 0.44578 0.0
O575 O 0.26104 0.59419 0.38289 0.0
H576 H 0.23962 0.67865 0.40353 0.0
H577 H 0.13905 0.6056 0.40755 0.0
O578 O 0.18997 0.55842 0.36911 0.0
C579 C 0.29193 0.61572 0.37943 0.0
O580 O 0.29287 0.64304 0.35164 0.0
N581 N 0.17103 0.61966 0.32 0.0
C582 C 0.11199 0.6403 0.26569 0.0
C583 C 0.11498 0.60158 0.28038 0.0
C584 C 0.14495 0.59172 0.30675 0.0
C585 C 0.16741 0.65814 0.30791 0.0
C586 C 0.13794 0.66921 0.2806 0.0
H587 H 0.1479 0.56106 0.3147 0.0
H588 H 0.18852 0.67999 0.31821 0.0
H589 H 0.23911 0.51756 0.32831 0.0
H590 H 0.25488 0.56458 0.21395 0.0
H591 H 0.1962 0.70014 0.46556 0.0
H592 H 0.09546 0.57828 0.27021 0.0
H593 H 0.13683 0.69944 0.26984 0.0
C594 C 0.84282 0.52449 0.99573 0.0
C595 C 0.81216 0.51618 0.02155 0.0
N596 N 0.77811 0.51622 1.00073 0.0
N597 N 0.82808 0.53038 0.95898 0.0
C598 C 0.78855 0.52429 0.96286 0.0
H599 H 0.8736 0.52861 1.00375 0.0
Co600 Co 0.85638 0.55189 0.91597 0.0
C601 C 0.78556 0.58523 0.8692 0.0
O602 O 0.79455 0.57359 0.83313 0.0
N603 N 0.88489 0.57326 0.8734 0.0
C604 C 0.92724 0.57839 0.82301 0.0
C605 C 0.91586 0.55574 0.85507 0.0
C606 C 0.87878 0.60713 0.85281 0.0
N607 N 0.90356 0.61049 0.82149 0.0
O608 O 0.84421 0.50624 0.88438 0.0
H609 H 0.92867 0.52767 0.86375 0.0
H610 H 0.85561 0.62823 0.85973 0.0
O611 O 0.80843 0.57732 0.89817 0.0
C612 C 0.86574 0.47536 0.88784 0.0
O613 O 0.89306 0.47442 0.91563 0.0
N614 N 0.86967 0.59625 0.94729 0.0
C615 C 0.89031 0.65531 1.00158 0.0
C616 C 0.85159 0.65231 0.9869 0.0
C617 C 0.84173 0.62233 0.96053 0.0
C618 C 0.90815 0.59988 0.95937 0.0
C619 C 0.91922 0.62935 0.98667 0.0
H620 H 0.81107 0.61937 0.95259 0.0
H621 H 0.93 0.57877 0.94907 0.0
H622 H 0.76758 0.52816 0.93896 0.0
H623 H 0.81457 0.51246 0.05332 0.0
H624 H 0.95015 0.5711 0.80171 0.0
H625 H 0.82829 0.67182 0.99707 0.0
H626 H 0.94946 0.63047 0.99742 0.0
C627 C 0.77451 0.92449 0.27153 0.0
C628 C 0.7662 0.95515 0.24571 0.0
N629 N 0.76623 0.9892 0.26654 0.0
N630 N 0.78039 0.93923 0.30828 0.0
C631 C 0.77431 0.97876 0.3044 0.0
H632 H 0.77862 0.89371 0.26351 0.0
Co633 Co 0.8019 0.91093 0.3513 0.0
C634 C 0.83525 0.98174 0.39807 0.0
O635 O 0.82361 0.97275 0.43413 0.0
N636 N 0.82327 0.88241 0.39386 0.0
C637 C 0.8284 0.84006 0.44425 0.0
C638 C 0.80575 0.85144 0.41219 0.0
C639 C 0.85714 0.88852 0.41445 0.0
N640 N 0.8605 0.86374 0.44577 0.0
O641 O 0.75626 0.92309 0.38288 0.0
H642 H 0.77768 0.83863 0.40352 0.0
H643 H 0.87825 0.91169 0.40753 0.0
O644 O 0.82733 0.95887 0.36909 0.0
C645 C 0.72537 0.90156 0.37942 0.0
O646 O 0.72444 0.87424 0.35163 0.0
N647 N 0.84627 0.89763 0.31998 0.0
C648 C 0.90532 0.87699 0.26568 0.0
C649 C 0.90233 0.91571 0.28037 0.0
C650 C 0.87235 0.92557 0.30674 0.0
C651 C 0.84989 0.85915 0.30789 0.0
C652 C 0.87937 0.84808 0.28059 0.0
H653 H 0.86939 0.95624 0.31468 0.0
H654 H 0.82879 0.8373 0.31819 0.0
H655 H 0.77817 0.99972 0.32831 0.0
H656 H 0.76248 0.95274 0.21394 0.0
H657 H 0.8211 0.81715 0.46555 0.0
H658 H 0.92184 0.93901 0.2702 0.0
H659 H 0.88049 0.81785 0.26984 0.0
C660 C 0.67449 0.4928 0.49575 0.0
C661 C 0.70515 0.50111 0.52156 0.0
N662 N 0.7392 0.50107 0.50073 0.0
N663 N 0.68923 0.48691 0.45899 0.0
C664 C 0.72876 0.493 0.46287 0.0
H665 H 0.64371 0.48868 0.50377 0.0
Co666 Co 0.66093 0.4654 0.41597 0.0
C667 C 0.73176 0.43207 0.36921 0.0
O668 O 0.72278 0.44372 0.33315 0.0
N669 N 0.63242 0.44404 0.37341 0.0
C670 C 0.59007 0.43891 0.32301 0.0
C671 C 0.60144 0.46155 0.35509 0.0
C672 C 0.63854 0.41018 0.3528 0.0
N673 N 0.61377 0.40684 0.32147 0.0
O674 O 0.6731 0.51105 0.3844 0.0
H675 H 0.58862 0.48961 0.36377 0.0
H676 H 0.66171 0.38907 0.35972 0.0
O677 O 0.70887 0.43997 0.39819 0.0
C678 C 0.65158 0.54194 0.38785 0.0
O679 O 0.62425 0.54287 0.41564 0.0
N680 N 0.64763 0.42104 0.44729 0.0
C681 C 0.62699 0.36199 0.5016 0.0
C682 C 0.6657 0.36499 0.48691 0.0
C683 C 0.67557 0.39496 0.46054 0.0
C684 C 0.60915 0.41742 0.45938 0.0
C685 C 0.59808 0.38795 0.48669 0.0
H686 H 0.70623 0.39791 0.45259 0.0
H687 H 0.5873 0.43853 0.44908 0.0
H688 H 0.74973 0.48913 0.43897 0.0
H689 H 0.70274 0.50483 0.55333 0.0
H690 H 0.56715 0.4462 0.30172 0.0
H691 H 0.68901 0.34548 0.49708 0.0
H692 H 0.56785 0.38684 0.49745 0.0
C693 C 0.2745 0.5928 0.74573 0.0
C694 C 0.26619 0.56214 0.77155 0.0
N695 N 0.26623 0.52809 0.75072 0.0
N696 N 0.28039 0.57806 0.70898 0.0
C697 C 0.2743 0.53853 0.71286 0.0
H698 H 0.27862 0.62358 0.75375 0.0
Co699 Co 0.3019 0.60636 0.66597 0.0
C700 C 0.33525 0.53555 0.6192 0.0
O701 O 0.32361 0.54454 0.58313 0.0
N702 N 0.32327 0.63488 0.62341 0.0
C703 C 0.3284 0.67724 0.57301 0.0
C704 C 0.30575 0.66585 0.60508 0.0
C705 C 0.35714 0.62877 0.60281 0.0
N706 N 0.3605 0.65355 0.5715 0.0
O707 O 0.25626 0.5942 0.63438 0.0
H708 H 0.27769 0.67866 0.61375 0.0
H709 H 0.37825 0.6056 0.60973 0.0
O710 O 0.32734 0.55842 0.64818 0.0
C711 C 0.22537 0.61572 0.63784 0.0
O712 O 0.22444 0.64304 0.66564 0.0
N713 N 0.34626 0.61966 0.69729 0.0
C714 C 0.40531 0.6403 0.7516 0.0
C715 C 0.40232 0.60159 0.7369 0.0
C716 C 0.37235 0.59173 0.71053 0.0
C717 C 0.34988 0.65814 0.70938 0.0
C718 C 0.37935 0.66921 0.73669 0.0
H719 H 0.3694 0.56106 0.70258 0.0
H720 H 0.32877 0.67999 0.69908 0.0
H721 H 0.27817 0.51756 0.68895 0.0
H722 H 0.26247 0.56455 0.80332 0.0
H723 H 0.32111 0.70015 0.55172 0.0
H724 H 0.42184 0.57829 0.74707 0.0
H725 H 0.38046 0.69944 0.74744 0.0
C726 C 0.84283 0.49281 0.52153 0.0
C727 C 0.81217 0.5011 0.4957 0.0
N728 N 0.77812 0.50099 0.51652 0.0
N729 N 0.82808 0.4869 0.55828 0.0
C730 C 0.78855 0.49295 0.55439 0.0
H731 H 0.87362 0.48874 0.51353 0.0
Co732 Co 0.85638 0.4654 0.6013 0.0
C733 C 0.78557 0.43205 0.64808 0.0
O734 O 0.79456 0.4437 0.68414 0.0
N735 N 0.8849 0.44404 0.64386 0.0
C736 C 0.92725 0.43891 0.69426 0.0
C737 C 0.91587 0.46156 0.66219 0.0
C738 C 0.87879 0.41017 0.66445 0.0
N739 N 0.90358 0.40681 0.69577 0.0
O740 O 0.84421 0.51105 0.63288 0.0
H741 H 0.92867 0.48963 0.65352 0.0
H742 H 0.85563 0.38906 0.65753 0.0
O743 O 0.80845 0.43997 0.6191 0.0
C744 C 0.86574 0.54194 0.62942 0.0
O745 O 0.89306 0.54287 0.60163 0.0
N746 N 0.86969 0.42103 0.56998 0.0
C747 C 0.89033 0.36199 0.51568 0.0
C748 C 0.85161 0.36497 0.53038 0.0
C749 C 0.84175 0.39495 0.55675 0.0
C750 C 0.90816 0.41742 0.55789 0.0
C751 C 0.91923 0.38795 0.53058 0.0
H752 H 0.81109 0.39789 0.5647 0.0
H753 H 0.93001 0.43854 0.56818 0.0
H754 H 0.76757 0.48911 0.5783 0.0
H755 H 0.81459 0.50488 0.46394 0.0
H756 H 0.95016 0.44621 0.71556 0.0
H757 H 0.82831 0.34546 0.52021 0.0
H758 H 0.94947 0.38685 0.51982 0.0
C759 C 0.17449 0.02449 0.52154 0.0
C760 C 0.20516 0.01618 0.49572 0.0
N761 N 0.23921 0.01621 0.51655 0.0
N762 N 0.18924 0.03038 0.55829 0.0
C763 C 0.22877 0.02429 0.55441 0.0
H764 H 0.14372 0.02861 0.51352 0.0
Co765 Co 0.16094 0.05189 0.60131 0.0
C766 C 0.23176 0.08523 0.64807 0.0
O767 O 0.22277 0.07359 0.68414 0.0
N768 N 0.13242 0.07326 0.64387 0.0
C769 C 0.09007 0.07839 0.69426 0.0
C770 C 0.10145 0.05574 0.6622 0.0
C771 C 0.13854 0.10713 0.66446 0.0
N772 N 0.11375 0.11049 0.69578 0.0
O773 O 0.1731 1.00625 0.63289 0.0
H774 H 0.08864 0.02767 0.65353 0.0
H775 H 0.1617 0.12824 0.65754 0.0
O776 O 0.20888 0.07732 0.6191 0.0
C777 C 0.15158 0.97536 0.62943 0.0
O778 O 0.12426 0.97443 0.60164 0.0
N779 N 0.14764 0.09625 0.56999 0.0
C780 C 0.127 0.1553 0.51568 0.0
C781 C 0.16571 0.15231 0.53037 0.0
C782 C 0.17558 0.12233 0.55674 0.0
C783 C 0.10916 0.09987 0.5579 0.0
C784 C 0.09809 0.12934 0.53059 0.0
H785 H 0.20624 0.11938 0.56469 0.0
H786 H 0.08731 0.07876 0.56819 0.0
H787 H 0.24974 0.02816 0.57832 0.0
H788 H 0.20275 0.01246 0.46395 0.0
H789 H 0.06716 0.0711 0.71556 0.0
H790 H 0.18901 0.17182 0.5202 0.0
H791 H 0.06785 0.13045 0.51983 0.0
C792 C 0.74577 0.74279 0.92446 0.0
C793 C 0.7716 0.75109 0.95511 0.0
N794 N 0.75079 0.75099 0.98916 0.0
N795 N 0.70902 0.73689 0.93921 0.0
C796 C 0.71291 0.74295 0.97874 0.0
H797 H 0.75377 0.73872 0.89367 0.0
Co798 Co 0.66599 0.7154 0.91091 0.0
C799 C 0.61922 0.68206 0.98174 0.0
O800 O 0.58316 0.69372 0.97276 0.0
N801 N 0.62342 0.69404 0.8824 0.0
C802 C 0.57302 0.68892 0.84005 0.0
C803 C 0.6051 0.71156 0.85143 0.0
C804 C 0.60282 0.66018 0.88853 0.0
N805 N 0.57149 0.65684 0.86376 0.0
O806 O 0.63443 0.76105 0.92308 0.0
H807 H 0.61379 0.73962 0.83861 0.0
H808 H 0.60974 0.63907 0.91169 0.0
O809 O 0.6482 0.68997 0.95885 0.0
C810 C 0.63788 0.79194 0.90156 0.0
O811 O 0.66567 0.79287 0.87423 0.0
N812 N 0.6973 0.67103 0.89761 0.0
C813 C 0.75161 0.61198 0.87697 0.0
C814 C 0.73691 0.61496 0.91568 0.0
C815 C 0.71053 0.64494 0.92554 0.0
C816 C 0.7094 0.66741 0.85913 0.0
C817 C 0.73671 0.63794 0.84806 0.0
H818 H 0.70258 0.64788 0.95621 0.0
H819 H 0.69911 0.68853 0.83729 0.0
H820 H 0.689 0.73911 0.99971 0.0
H821 H 0.80337 0.75486 0.95269 0.0
H822 H 0.55173 0.69621 0.81714 0.0
H823 H 0.74707 0.59545 0.93898 0.0
H824 H 0.74747 0.63684 0.81783 0.0
C825 C 0.99281 0.02153 0.34281 0.0
C826 C 1.0011 0.99571 0.31216 0.0
N827 N 1.001 0.01652 0.2781 0.0
N828 N 0.9869 0.05828 0.32806 0.0
C829 C 0.99297 0.05439 0.28853 0.0
H830 H 0.98873 0.01353 0.3736 0.0
Co831 Co 0.96541 0.10131 0.35636 0.0
C832 C 0.93208 0.14808 0.28553 0.0
O833 O 0.94373 0.18414 0.29451 0.0
N834 N 0.94405 0.14388 0.38487 0.0
C835 C 0.93894 0.19428 0.42722 0.0
C836 C 0.96157 0.1622 0.41584 0.0
C837 C 0.91019 0.16449 0.37875 0.0
N838 N 0.90685 0.19581 0.40352 0.0
O839 O 0.01106 0.13288 0.34419 0.0
H840 H 0.98963 0.15351 0.42866 0.0
H841 H 0.88908 0.15756 0.35559 0.0
O842 O 0.93998 0.1191 0.30842 0.0
C843 C 0.04195 0.12942 0.36572 0.0
O844 O 0.04288 0.10163 0.39304 0.0
N845 N 0.92104 0.07 0.36966 0.0
C846 C 0.862 0.01569 0.3903 0.0
C847 C 0.86498 0.03039 0.35159 0.0
C848 C 0.89495 0.05677 0.34173 0.0
C849 C 0.91743 0.0579 0.40814 0.0
C850 C 0.88796 0.03059 0.4192 0.0
H851 H 0.89789 0.06472 0.31106 0.0
H852 H 0.93854 0.0682 0.42998 0.0
H853 H 0.98913 0.0783 0.26756 0.0
H854 H 1.00487 0.96394 0.31457 0.0
H855 H 0.94622 0.21556 0.45014 0.0
H856 H 0.84546 0.02023 0.32829 0.0
H857 H 0.88685 0.01983 0.44944 0.0
C858 C 0.27155 0.77449 0.92446 0.0
C859 C 0.24572 0.7662 0.95512 0.0
N860 N 0.26653 0.7663 0.98917 0.0
N861 N 0.3083 0.7804 0.93921 0.0
C862 C 0.30441 0.77434 0.97874 0.0
H863 H 0.26354 0.77857 0.89368 0.0
Co864 Co 0.35132 0.80189 0.91092 0.0
C865 C 0.3981 0.83523 0.98174 0.0
O866 O 0.43416 0.82358 0.97276 0.0
N867 N 0.39389 0.82324 0.8824 0.0
C868 C 0.4443 0.82836 0.84005 0.0
C869 C 0.41222 0.80572 0.85143 0.0
C870 C 0.4145 0.8571 0.88852 0.0
N871 N 0.44583 0.86044 0.86375 0.0
O872 O 0.38289 0.75624 0.92309 0.0
H873 H 0.40353 0.77767 0.83861 0.0
H874 H 0.40758 0.87822 0.91168 0.0
O875 O 0.36912 0.82732 0.95886 0.0
C876 C 0.37943 0.72535 0.90156 0.0
O877 O 0.35165 0.72442 0.87423 0.0
N878 N 0.32002 0.84626 0.89761 0.0
C879 C 0.26571 0.90531 0.87697 0.0
C880 C 0.28041 0.90232 0.91569 0.0
C881 C 0.30678 0.87235 0.92555 0.0
C882 C 0.30792 0.84988 0.85914 0.0
C883 C 0.28062 0.87935 0.84807 0.0
H884 H 0.31472 0.8694 0.95621 0.0
H885 H 0.31822 0.82877 0.83729 0.0
H886 H 0.32832 0.77818 0.99972 0.0
H887 H 0.21395 0.76243 0.9527 0.0
H888 H 0.46558 0.82107 0.81713 0.0
H889 H 0.27024 0.92183 0.93899 0.0
H890 H 0.26986 0.88046 0.81783 0.0
C891 C 0.0245 0.49575 0.34281 0.0
C892 C 0.01621 0.52158 0.31215 0.0
N893 N 0.01631 0.50076 0.2781 0.0
N894 N 0.03041 0.459 0.32806 0.0
C895 C 0.02435 0.46289 0.28853 0.0
H896 H 0.02857 0.50375 0.3736 0.0
Co897 Co 0.0519 0.41598 0.35636 0.0
C898 C 0.08524 0.36921 0.28553 0.0
O899 O 0.07359 0.33314 0.29451 0.0
N900 N 0.07325 0.37341 0.38487 0.0
C901 C 0.07837 0.323 0.42722 0.0
C902 C 0.05573 0.35508 0.41584 0.0
C903 C 0.10711 0.3528 0.37875 0.0
N904 N 0.11045 0.32147 0.40352 0.0
O905 O 1.00625 0.38441 0.34418 0.0
H906 H 0.02767 0.36377 0.42866 0.0
H907 H 0.12823 0.35973 0.35559 0.0
O908 O 0.07733 0.39818 0.30842 0.0
C909 C 0.97536 0.38787 0.36571 0.0
O910 O 0.97443 0.41565 0.39303 0.0
N911 N 0.09626 0.44728 0.36967 0.0
C912 C 0.1553 0.5016 0.39031 0.0
C913 C 0.15232 0.4869 0.3516 0.0
C914 C 0.12235 0.46052 0.34173 0.0
C915 C 0.09988 0.45938 0.40814 0.0
C916 C 0.12934 0.48669 0.41921 0.0
H917 H 0.11941 0.45258 0.31107 0.0
H918 H 0.07876 0.44908 0.42999 0.0
H919 H 0.02819 0.43898 0.26756 0.0
H920 H 0.01243 0.55334 0.31457 0.0
H921 H 0.07108 0.30172 0.45014 0.0
H922 H 0.17184 0.49707 0.3283 0.0
H923 H 0.13045 0.49745 0.44945 0.0
C924 C 0.74576 0.27449 0.59282 0.0
C925 C 0.77159 0.2662 0.56216 0.0
N926 N 0.75078 0.2663 0.52811 0.0
N927 N 0.70901 0.2804 0.57806 0.0
C928 C 0.71291 0.27434 0.53853 0.0
H929 H 0.75377 0.27856 0.6236 0.0
Co930 Co 0.66599 0.3019 0.60636 0.0
C931 C 0.61922 0.33524 0.53555 0.0
O932 O 0.58315 0.32361 0.54454 0.0
N933 N 0.62343 0.32326 0.63488 0.0
C934 C 0.57303 0.32839 0.67723 0.0
C935 C 0.6051 0.30574 0.66585 0.0
C936 C 0.60283 0.35713 0.62877 0.0
N937 N 0.57152 0.36049 0.65355 0.0
O938 O 0.63441 0.25625 0.59419 0.0
H939 H 0.61377 0.27767 0.67865 0.0
H940 H 0.60976 0.37824 0.60561 0.0
O941 O 0.6482 0.32733 0.55842 0.0
C942 C 0.63787 0.22537 0.61572 0.0
O943 O 0.66566 0.22444 0.64304 0.0
N944 N 0.69731 0.34626 0.61967 0.0
C945 C 0.75162 0.4053 0.6403 0.0
C946 C 0.73692 0.40232 0.60159 0.0
C947 C 0.71055 0.37234 0.59173 0.0
C948 C 0.7094 0.34988 0.65814 0.0
C949 C 0.73671 0.37935 0.66921 0.0
H950 H 0.7026 0.3694 0.56106 0.0
H951 H 0.6991 0.32877 0.67999 0.0
H952 H 0.689 0.27819 0.51756 0.0
H953 H 0.80336 0.26242 0.56458 0.0
H954 H 0.55173 0.32109 0.70014 0.0
H955 H 0.7471 0.42183 0.57829 0.0
H956 H 0.74747 0.38046 0.69944 0.0
C957 C 0.52452 0.02154 0.67446 0.0
C958 C 0.51622 0.9957 0.70511 0.0
N959 N 0.51632 0.01652 0.73917 0.0
N960 N 0.53042 0.05828 0.68922 0.0
C961 C 0.52436 0.05439 0.72874 0.0
H962 H 0.52859 0.01353 0.64367 0.0
Co963 Co 0.55192 0.10131 0.66092 0.0
C964 C 0.58525 0.14808 0.73174 0.0
O965 O 0.57359 0.18414 0.72276 0.0
N966 N 0.57328 0.14388 0.63241 0.0
C967 C 0.5784 0.19427 0.59005 0.0
C968 C 0.55576 0.16219 0.60143 0.0
C969 C 0.60713 0.16449 0.63853 0.0
N970 N 0.61047 0.19581 0.61376 0.0
O971 O 0.50627 0.13288 0.67309 0.0
H972 H 0.5277 0.1535 0.58861 0.0
H973 H 0.62824 0.15757 0.6617 0.0
O974 O 0.57734 0.1191 0.70886 0.0
C975 C 0.47538 0.12943 0.65155 0.0
O976 O 0.47445 0.10164 0.62423 0.0
N977 N 0.59629 0.07 0.64762 0.0
C978 C 0.65534 0.0157 0.62698 0.0
C979 C 0.65235 0.03039 0.66569 0.0
C980 C 0.62237 0.05676 0.67556 0.0
C981 C 0.59991 0.05791 0.60914 0.0
C982 C 0.62938 0.0306 0.59807 0.0
H983 H 0.61942 0.0647 0.70622 0.0
H984 H 0.5788 0.0682 0.58729 0.0
H985 H 0.5282 0.0783 0.74972 0.0
H986 H 0.51245 0.96394 0.7027 0.0
H987 H 0.57111 0.21556 0.56713 0.0
H988 H 0.67186 0.02022 0.689 0.0
H989 H 0.63049 0.01985 0.56784 0.0
C990 C 0.27156 0.2428 0.59281 0.0
C991 C 0.24572 0.25109 0.56216 0.0
N992 N 0.26654 0.25098 0.5281 0.0
N993 N 0.3083 0.23689 0.57805 0.0
C994 C 0.30441 0.24295 0.53853 0.0
H995 H 0.26355 0.23872 0.6236 0.0
Co996 Co 0.35133 0.21539 0.60635 0.0
C997 C 0.3981 0.18206 0.53553 0.0
O998 O 0.43416 0.19371 0.5445 0.0
N999 N 0.3939 0.19403 0.63487 0.0
C1000 C 0.44429 0.1889 0.67722 0.0
C1001 C 0.41221 0.21154 0.66584 0.0
C1002 C 0.41451 0.16017 0.62874 0.0
N1003 N 0.44583 0.15683 0.65351 0.0
O1004 O 0.38291 0.26104 0.59418 0.0
H1005 H 0.40352 0.2396 0.67867 0.0
H1006 H 0.40759 0.13906 0.60557 0.0
O1007 O 0.36912 0.18996 0.55841 0.0
C1008 C 0.37945 0.29192 0.61572 0.0
O1009 O 0.35166 0.29285 0.64304 0.0
N1010 N 0.32002 0.17102 0.61966 0.0
C1011 C 0.2657 0.11198 0.6403 0.0
C1012 C 0.2804 0.11496 0.60159 0.0
C1013 C 0.30678 0.14494 0.59172 0.0
C1014 C 0.30792 0.16741 0.65813 0.0
C1015 C 0.28061 0.13794 0.6692 0.0
H1016 H 0.31473 0.14788 0.56106 0.0
H1017 H 0.31822 0.18852 0.67998 0.0
H1018 H 0.32832 0.2391 0.51755 0.0
H1019 H 0.21396 0.25487 0.56458 0.0
H1020 H 0.46557 0.19619 0.70015 0.0
H1021 H 0.27023 0.09545 0.57829 0.0
H1022 H 0.26985 0.13684 0.69944 0.0
C1023 C 0.49281 0.49575 0.67446 0.0
C1024 C 0.50109 0.52158 0.70511 0.0
N1025 N 0.50099 0.50077 0.73917 0.0
N1026 N 0.4869 0.459 0.68921 0.0
C1027 C 0.49296 0.4629 0.72874 0.0
H1028 H 0.48873 0.50376 0.64367 0.0
Co1029 Co 0.46541 0.41598 0.66092 0.0
C1030 C 0.43207 0.36921 0.73174 0.0
O1031 O 0.44373 0.33315 0.72276 0.0
N1032 N 0.44405 0.37341 0.6324 0.0
C1033 C 0.43893 0.32301 0.59005 0.0
C1034 C 0.46157 0.35509 0.60143 0.0
C1035 C 0.41019 0.3528 0.63853 0.0
N1036 N 0.40685 0.32147 0.61376 0.0
O1037 O 0.51106 0.38441 0.67309 0.0
H1038 H 0.48963 0.36378 0.58861 0.0
H1039 H 0.38908 0.35972 0.66169 0.0
O1040 O 0.43998 0.39818 0.70886 0.0
C1041 C 0.54195 0.38787 0.65156 0.0
O1042 O 0.54288 0.41565 0.62424 0.0
N1043 N 0.42104 0.44729 0.64761 0.0
C1044 C 0.362 0.5016 0.62697 0.0
C1045 C 0.36498 0.4869 0.66568 0.0
C1046 C 0.39495 0.46052 0.67555 0.0
C1047 C 0.41742 0.45938 0.60913 0.0
C1048 C 0.38796 0.48669 0.59807 0.0
H1049 H 0.39789 0.45258 0.70621 0.0
H1050 H 0.43854 0.44908 0.58729 0.0
H1051 H 0.48912 0.43899 0.74972 0.0
H1052 H 0.50487 0.55335 0.7027 0.0
H1053 H 0.44622 0.30173 0.56713 0.0
H1054 H 0.34546 0.49707 0.68898 0.0
H1055 H 0.38685 0.49745 0.56783 0.0
C1056 C 0.92448 0.74576 0.74278 0.0
C1057 C 0.95514 0.77157 0.75109 0.0
N1058 N 0.98919 0.75074 0.75106 0.0
N1059 N 0.93922 0.709 0.7369 0.0
C1060 C 0.97875 0.71288 0.74299 0.0
H1061 H 0.8937 0.75378 0.73866 0.0
Co1062 Co 0.91093 0.66599 0.71539 0.0
C1063 C 0.98175 0.61922 0.68206 0.0
O1064 O 0.97277 0.58316 0.69371 0.0
N1065 N 0.88241 0.62342 0.69402 0.0
C1066 C 0.84006 0.57302 0.6889 0.0
C1067 C 0.85144 0.6051 0.71154 0.0
C1068 C 0.88854 0.60281 0.66016 0.0
N1069 N 0.86377 0.57149 0.65682 0.0
O1070 O 0.92309 0.63441 0.76103 0.0
H1071 H 0.83861 0.61378 0.73959 0.0
H1072 H 0.91171 0.60974 0.63906 0.0
O1073 O 0.95887 0.64819 0.68996 0.0
C1074 C 0.90157 0.63786 0.79193 0.0
O1075 O 0.87424 0.66565 0.79286 0.0
N1076 N 0.89763 0.6973 0.67102 0.0
C1077 C 0.87699 0.75161 0.61197 0.0
C1078 C 0.9157 0.73691 0.61496 0.0
C1079 C 0.92557 0.71054 0.64494 0.0
C1080 C 0.85915 0.7094 0.66741 0.0
C1081 C 0.84808 0.73671 0.63794 0.0
H1082 H 0.95623 0.70259 0.64788 0.0
H1083 H 0.8373 0.69911 0.68852 0.0
H1084 H 0.99972 0.68897 0.73912 0.0
H1085 H 0.95274 0.80334 0.75481 0.0
H1086 H 0.81714 0.55173 0.69618 0.0
H1087 H 0.93901 0.74708 0.59545 0.0
H1088 H 0.81785 0.74747 0.63683 0.0
C1089 C 0.99576 0.84281 0.52447 0.0
C1090 C 0.02158 0.81215 0.51617 0.0
N1091 N 1.00075 0.7781 0.5162 0.0
N1092 N 0.95901 0.82807 0.53037 0.0
C1093 C 0.96288 0.78854 0.52428 0.0
H1094 H 1.00379 0.87358 0.52859 0.0
Co1095 Co 0.91599 0.85637 0.55187 0.0
C1096 C 0.86922 0.78555 0.58522 0.0
O1097 O 0.83315 0.79455 0.57359 0.0
N1098 N 0.87343 0.88489 0.57324 0.0
C1099 C 0.82303 0.92724 0.57837 0.0
C1100 C 0.8551 0.91585 0.55572 0.0
C1101 C 0.85284 0.87878 0.60711 0.0
N1102 N 0.82153 0.90356 0.61047 0.0
O1103 O 0.88441 0.8442 0.50623 0.0
H1104 H 0.86377 0.92866 0.52765 0.0
H1105 H 0.85977 0.85561 0.62822 0.0
O1106 O 0.8982 0.80843 0.57731 0.0
C1107 C 0.88787 0.86573 0.47534 0.0
O1108 O 0.91567 0.89305 0.4744 0.0
N1109 N 0.94731 0.86967 0.59624 0.0
C1110 C 1.00161 0.89031 0.65529 0.0
C1111 C 0.98692 0.85159 0.65229 0.0
C1112 C 0.96056 0.84173 0.62231 0.0
C1113 C 0.9594 0.90815 0.59986 0.0
C1114 C 0.9867 0.91921 0.62934 0.0
H1115 H 0.95262 0.81106 0.61936 0.0
H1116 H 0.9491 0.93 0.57876 0.0
H1117 H 0.93898 0.76757 0.52815 0.0
H1118 H 0.05335 0.81455 0.51245 0.0
H1119 H 0.80174 0.95015 0.57108 0.0
H1120 H 0.99709 0.82828 0.6718 0.0
H1121 H 0.99745 0.94945 0.63045 0.0
C1122 C 0.09283 0.77154 0.7428 0.0
C1123 C 0.06217 0.74571 0.75109 0.0
N1124 N 0.02811 0.76652 0.75098 0.0
N1125 N 0.07808 0.80829 0.73688 0.0
C1126 C 0.03854 0.8044 0.74294 0.0
H1127 H 0.12362 0.76353 0.73872 0.0
Co1128 Co 0.10638 0.85131 0.71539 0.0
C1129 C 0.03555 0.89808 0.68205 0.0
O1130 O 0.04453 0.93414 0.6937 0.0
N1131 N 0.1349 0.89387 0.69403 0.0
C1132 C 0.17725 0.94427 0.68891 0.0
C1133 C 0.16587 0.91219 0.71155 0.0
C1134 C 0.12877 0.91448 0.66017 0.0
N1135 N 0.15354 0.94581 0.65683 0.0
O1136 O 0.09421 0.88288 0.76104 0.0
H1137 H 0.17869 0.9035 0.7396 0.0
H1138 H 0.10561 0.90756 0.63906 0.0
O1139 O 0.05844 0.8691 0.68996 0.0
C1140 C 0.11574 0.87943 0.79192 0.0
O1141 O 0.14306 0.85164 0.79285 0.0
N1142 N 0.11968 0.81999 0.67102 0.0
C1143 C 0.14032 0.76569 0.61197 0.0
C1144 C 0.1016 0.78039 0.61497 0.0
C1145 C 0.09174 0.80675 0.64494 0.0
C1146 C 0.15816 0.8079 0.6674 0.0
C1147 C 0.16923 0.78059 0.63793 0.0
H1148 H 0.06108 0.8147 0.64789 0.0
H1149 H 0.18001 0.8182 0.68851 0.0
H1150 H 0.01757 0.8283 0.7391 0.0
H1151 H 0.06458 0.71395 0.75487 0.0
H1152 H 0.20017 0.96556 0.6962 0.0
H1153 H 0.0783 0.77021 0.59545 0.0
H1154 H 0.19946 0.76984 0.63682 0.0
C1155 C 0.02154 0.67447 0.52449 0.0
C1156 C 0.99571 0.70512 0.5162 0.0
N1157 N 0.01653 0.73918 0.51629 0.0
N1158 N 0.05829 0.68922 0.5304 0.0
C1159 C 0.0544 0.72875 0.52433 0.0
H1160 H 0.01353 0.64368 0.52857 0.0
Co1161 Co 0.10131 0.66092 0.55189 0.0
C1162 C 0.14809 0.73174 0.58522 0.0
O1163 O 0.18416 0.72276 0.57358 0.0
N1164 N 0.14388 0.63241 0.57325 0.0
C1165 C 0.19429 0.59006 0.57836 0.0
C1166 C 0.16221 0.60144 0.55573 0.0
C1167 C 0.16449 0.63853 0.6071 0.0
N1168 N 0.19582 0.61376 0.61044 0.0
O1169 O 0.13289 0.67309 0.50624 0.0
H1170 H 0.15352 0.58862 0.52767 0.0
H1171 H 0.15757 0.66169 0.62821 0.0
O1172 O 0.11911 0.70886 0.57732 0.0
C1173 C 0.12943 0.65156 0.47535 0.0
O1174 O 0.10164 0.62424 0.47442 0.0
N1175 N 0.07001 0.64762 0.59626 0.0
C1176 C 0.0157 0.62699 0.65531 0.0
C1177 C 0.0304 0.6657 0.65232 0.0
C1178 C 0.05677 0.67556 0.62234 0.0
C1179 C 0.05792 0.60914 0.59988 0.0
C1180 C 0.03061 0.59808 0.62936 0.0
H1181 H 0.06471 0.70623 0.61939 0.0
H1182 H 0.06821 0.58729 0.57878 0.0
H1183 H 0.07831 0.74972 0.52817 0.0
H1184 H 0.96395 0.70271 0.51242 0.0
H1185 H 0.21557 0.56714 0.57107 0.0
H1186 H 0.02022 0.68901 0.67183 0.0
H1187 H 0.01985 0.56784 0.63047 0.0
C1188 C 0.9245 0.27154 0.77447 0.0
C1189 C 0.95516 0.24572 0.76617 0.0
N1190 N 0.98921 0.26655 0.7662 0.0
N1191 N 0.93924 0.30829 0.78037 0.0
C1192 C 0.97877 0.30441 0.77428 0.0
H1193 H 0.89372 0.26352 0.77859 0.0
Co1194 Co 0.91094 0.35131 0.80187 0.0
C1195 C 0.98177 0.39807 0.83521 0.0
O1196 O 0.97279 0.43414 0.82356 0.0
N1197 N 0.88243 0.39387 0.82324 0.0
C1198 C 0.84007 0.44427 0.82836 0.0
C1199 C 0.85145 0.4122 0.80572 0.0
C1200 C 0.88855 0.41448 0.8571 0.0
N1201 N 0.86378 0.44581 0.86044 0.0
O1202 O 0.92311 0.38289 0.75623 0.0
H1203 H 0.83863 0.40351 0.77766 0.0
H1204 H 0.91172 0.40756 0.8782 0.0
O1205 O 0.95888 0.3691 0.8273 0.0
C1206 C 0.90159 0.37943 0.72534 0.0
O1207 O 0.87426 0.35164 0.7244 0.0
N1208 N 0.89764 0.31999 0.84623 0.0
C1209 C 0.877 0.26568 0.90528 0.0
C1210 C 0.91571 0.28037 0.90228 0.0
C1211 C 0.92558 0.30674 0.87231 0.0
C1212 C 0.85916 0.3079 0.84985 0.0
C1213 C 0.84809 0.28059 0.87932 0.0
H1214 H 0.95624 0.31469 0.86936 0.0
H1215 H 0.83731 0.3182 0.82875 0.0
H1216 H 0.99974 0.32832 0.77815 0.0
H1217 H 0.95276 0.21395 0.76245 0.0
H1218 H 0.81715 0.46556 0.82107 0.0
H1219 H 0.93902 0.2702 0.92179 0.0
H1220 H 0.81785 0.26984 0.88044 0.0
C1221 C 0.52155 0.8428 0.4928 0.0
C1222 C 0.49573 0.81214 0.5011 0.0
N1223 N 0.51656 0.77809 0.50107 0.0
N1224 N 0.55831 0.82806 0.48691 0.0
C1225 C 0.55443 0.78853 0.49299 0.0
H1226 H 0.51353 0.87358 0.48868 0.0
Co1227 Co 0.60132 0.85636 0.4654 0.0
C1228 C 0.64809 0.78554 0.43206 0.0
O1229 O 0.68416 0.79452 0.44371 0.0
N1230 N 0.64389 0.88488 0.44403 0.0
C1231 C 0.69428 0.92723 0.4389 0.0
C1232 C 0.66221 0.91585 0.46154 0.0
C1233 C 0.66449 0.87875 0.41017 0.0
N1234 N 0.69582 0.90352 0.40682 0.0
O1235 O 0.63291 0.8442 0.51104 0.0
H1236 H 0.65352 0.92868 0.4896 0.0
H1237 H 0.65757 0.85558 0.38906 0.0
O1238 O 0.61912 0.80842 0.43997 0.0
C1239 C 0.62946 0.86573 0.54193 0.0
O1240 O 0.60166 0.89305 0.54286 0.0
N1241 N 0.57 0.86966 0.42103 0.0
C1242 C 0.5157 0.8903 0.36199 0.0
C1243 C 0.5304 0.85159 0.36497 0.0
C1244 C 0.55676 0.84172 0.39495 0.0
C1245 C 0.55791 0.90814 0.41742 0.0
C1246 C 0.5306 0.91921 0.38795 0.0
H1247 H 0.56471 0.81106 0.3979 0.0
H1248 H 0.56821 0.92999 0.43853 0.0
H1249 H 0.57834 0.76756 0.48913 0.0
H1250 H 0.46396 0.81455 0.50482 0.0
H1251 H 0.71557 0.95016 0.44618 0.0
H1252 H 0.52023 0.82829 0.34546 0.0
H1253 H 0.51984 0.94944 0.38684 0.0
C1254 C 0.09285 0.24575 0.77448 0.0
C1255 C 0.06219 0.27158 0.76619 0.0
N1256 N 0.02813 0.25077 0.76629 0.0
N1257 N 0.07809 0.209 0.78039 0.0
C1258 C 0.03856 0.21289 0.77433 0.0
H1259 H 0.12363 0.25376 0.77856 0.0
Co1260 Co 0.10639 0.16598 0.80189 0.0
C1261 C 0.03557 0.1192 0.83523 0.0
O1262 O 0.04457 0.08314 0.82359 0.0
N1263 N 0.13491 0.12341 0.82325 0.0
C1264 C 0.17725 0.07301 0.82837 0.0
C1265 C 0.16587 0.10508 0.80572 0.0
C1266 C 0.1288 0.10282 0.85712 0.0
N1267 N 0.15358 0.0715 0.86047 0.0
O1268 O 0.09422 0.13441 0.75624 0.0
H1269 H 0.17867 0.11375 0.77765 0.0
H1270 H 0.10564 0.10975 0.87823 0.0
O1271 O 0.05845 0.14818 0.82731 0.0
C1272 C 0.11575 0.13787 0.72534 0.0
O1273 O 0.14307 0.16566 0.72441 0.0
N1274 N 0.1197 0.19729 0.84625 0.0
C1275 C 0.14033 0.2516 0.9053 0.0
C1276 C 0.10162 0.2369 0.90231 0.0
C1277 C 0.09176 0.21053 0.87234 0.0
C1278 C 0.15817 0.20939 0.84987 0.0
C1279 C 0.16924 0.2367 0.87934 0.0
H1280 H 0.06109 0.20258 0.8694 0.0
H1281 H 0.18002 0.1991 0.82876 0.0
H1282 H 0.01759 0.18899 0.77817 0.0
H1283 H 0.06461 0.30334 0.76241 0.0
H1284 H 0.20016 0.05171 0.82107 0.0
H1285 H 0.07831 0.24707 0.92183 0.0
H1286 H 0.19947 0.24746 0.88044 0.0
C1287 C 0.49576 0.67446 0.49279 0.0
C1288 C 0.52159 0.70512 0.50108 0.0
N1289 N 0.50078 0.73917 0.50098 0.0
N1290 N 0.45902 0.68922 0.48688 0.0
C1291 C 0.46291 0.72875 0.49294 0.0
H1292 H 0.50377 0.64368 0.48872 0.0
Co1293 Co 0.41599 0.66092 0.46539 0.0
C1294 C 0.36922 0.73174 0.43205 0.0
O1295 O 0.33315 0.72276 0.4437 0.0
N1296 N 0.37342 0.6324 0.44403 0.0
C1297 C 0.32302 0.59005 0.43891 0.0
C1298 C 0.3551 0.60143 0.46155 0.0
C1299 C 0.35281 0.63853 0.41017 0.0
N1300 N 0.32148 0.61376 0.40683 0.0
O1301 O 0.38442 0.67309 0.51104 0.0
H1302 H 0.36378 0.58861 0.48961 0.0
H1303 H 0.35974 0.66169 0.38906 0.0
O1304 O 0.39819 0.70886 0.43996 0.0
C1305 C 0.38788 0.65156 0.54193 0.0
O1306 O 0.41567 0.62424 0.54286 0.0
N1307 N 0.4473 0.64761 0.42102 0.0
C1308 C 0.50161 0.62697 0.36198 0.0
C1309 C 0.48691 0.66569 0.36497 0.0
C1310 C 0.46054 0.67555 0.39494 0.0
C1311 C 0.4594 0.60913 0.41741 0.0
C1312 C 0.48671 0.59807 0.38794 0.0
H1313 H 0.45259 0.70621 0.39788 0.0
H1314 H 0.4491 0.58729 0.43852 0.0
H1315 H 0.439 0.74972 0.4891 0.0
H1316 H 0.55336 0.7027 0.50486 0.0
H1317 H 0.30173 0.56713 0.4462 0.0
H1318 H 0.49708 0.68899 0.34546 0.0
H1319 H 0.49747 0.56783 0.38683 0.0
C1320 C 0.74281 0.92448 0.74575 0.0
C1321 C 0.75112 0.95514 0.77156 0.0
N1322 N 0.75109 0.98919 0.75074 0.0
N1323 N 0.73693 0.93922 0.70899 0.0
C1324 C 0.74302 0.97875 0.71287 0.0
H1325 H 0.73869 0.8937 0.75377 0.0
Co1326 Co 0.71542 0.91093 0.66597 0.0
C1327 C 0.68209 0.98175 0.61921 0.0
O1328 O 0.69374 0.97277 0.58314 0.0
N1329 N 0.69406 0.88241 0.62341 0.0
C1330 C 0.68893 0.84006 0.57301 0.0
C1331 C 0.71157 0.85144 0.60509 0.0
C1332 C 0.6602 0.88854 0.6028 0.0
N1333 N 0.65686 0.86377 0.57147 0.0
O1334 O 0.76107 0.92309 0.6344 0.0
H1335 H 0.73963 0.83862 0.61378 0.0
H1336 H 0.63909 0.91171 0.60972 0.0
O1337 O 0.68999 0.95887 0.64818 0.0
C1338 C 0.79196 0.90157 0.63785 0.0
O1339 O 0.7929 0.87425 0.66564 0.0
N1340 N 0.67106 0.89762 0.69729 0.0
C1341 C 0.61201 0.87698 0.7516 0.0
C1342 C 0.615 0.9157 0.7369 0.0
C1343 C 0.64497 0.92556 0.71053 0.0
C1344 C 0.66744 0.85915 0.70938 0.0
C1345 C 0.63797 0.84808 0.73669 0.0
H1346 H 0.64792 0.95623 0.70258 0.0
H1347 H 0.68855 0.8373 0.69908 0.0
H1348 H 0.73916 0.99972 0.68897 0.0
H1349 H 0.75484 0.95273 0.80333 0.0
H1350 H 0.69622 0.81714 0.55173 0.0
H1351 H 0.59548 0.939 0.74707 0.0
H1352 H 0.63686 0.81784 0.74744 0.0
C1353 C 0.74281 0.09282 0.77154 0.0
C1354 C 0.7511 0.06217 0.74571 0.0
N1355 N 0.751 0.02811 0.76652 0.0
N1356 N 0.73691 0.07807 0.80828 0.0
C1357 C 0.74297 0.03854 0.80439 0.0
H1358 H 0.73874 0.12361 0.76353 0.0
Co1359 Co 0.71541 0.10637 0.85131 0.0
C1360 C 0.68208 0.03554 0.89808 0.0
O1361 O 0.69372 0.04452 0.93414 0.0
N1362 N 0.69405 0.13488 0.89388 0.0
C1363 C 0.68894 0.17723 0.94427 0.0
C1364 C 0.71158 0.16585 0.9122 0.0
C1365 C 0.66019 0.12876 0.91448 0.0
N1366 N 0.65685 0.15353 0.94581 0.0
O1367 O 0.76106 0.09419 0.88288 0.0
H1368 H 0.73963 0.17867 0.90351 0.0
H1369 H 0.63908 0.10559 0.90756 0.0
O1370 O 0.68998 0.05843 0.8691 0.0
C1371 C 0.79195 0.11572 0.87942 0.0
O1372 O 0.79289 0.14304 0.85163 0.0
N1373 N 0.67104 0.11967 0.82 0.0
C1374 C 0.612 0.14031 0.76569 0.0
C1375 C 0.61499 0.10159 0.78038 0.0
C1376 C 0.64496 0.09173 0.80675 0.0
C1377 C 0.66742 0.15815 0.80791 0.0
C1378 C 0.63795 0.16921 0.7806 0.0
H1379 H 0.64792 0.06107 0.81469 0.0
H1380 H 0.68853 0.18 0.81821 0.0
H1381 H 0.73913 0.01756 0.8283 0.0
H1382 H 0.75488 0.06458 0.71394 0.0
H1383 H 0.69623 0.20015 0.96556 0.0
H1384 H 0.59548 0.07829 0.77021 0.0
H1385 H 0.63684 0.19945 0.76985 0.0
C1386 C 0.34284 0.02449 0.49575 0.0
C1387 C 0.31218 0.0162 0.52158 0.0
N1388 N 0.27813 0.0163 0.50077 0.0
N1389 N 0.32808 0.03039 0.459 0.0
C1390 C 0.28855 0.02433 0.46289 0.0
H1391 H 0.37363 0.02856 0.50375 0.0
Co1392 Co 0.35638 0.05189 0.41597 0.0
C1393 C 0.28556 0.08522 0.3692 0.0
O1394 O 0.29454 0.07358 0.33314 0.0
N1395 N 0.38489 0.07324 0.3734 0.0
C1396 C 0.42724 0.07836 0.323 0.0
C1397 C 0.41586 0.05572 0.35508 0.0
C1398 C 0.37877 0.1071 0.3528 0.0
N1399 N 0.40354 0.11044 0.32147 0.0
O1400 O 0.34421 1.00624 0.3844 0.0
H1401 H 0.42868 0.02766 0.36376 0.0
H1402 H 0.35561 0.12821 0.35972 0.0
O1403 O 0.30844 0.07732 0.39818 0.0
C1404 C 0.36574 0.97535 0.38786 0.0
O1405 O 0.39306 0.97441 0.41565 0.0
N1406 N 0.36969 0.09626 0.44728 0.0
C1407 C 0.39033 0.1553 0.50158 0.0
C1408 C 0.35161 0.15231 0.48689 0.0
C1409 C 0.34175 0.12233 0.46052 0.0
C1410 C 0.40817 0.09988 0.45936 0.0
C1411 C 0.41923 0.12935 0.48667 0.0
H1412 H 0.31108 0.11938 0.45259 0.0
H1413 H 0.43002 0.07877 0.44906 0.0
H1414 H 0.26758 0.02818 0.43899 0.0
H1415 H 0.3146 0.01242 0.55334 0.0
H1416 H 0.45016 0.07107 0.30171 0.0
H1417 H 0.3283 0.17181 0.49707 0.0
H1418 H 0.44947 0.13047 0.49742 0.0
C1419 C 0.2745 0.42446 0.77152 0.0
C1420 C 0.26621 0.45512 0.74569 0.0
N1421 N 0.26631 0.48917 0.7665 0.0
N1422 N 0.28041 0.43922 0.80827 0.0
C1423 C 0.27435 0.47875 0.80438 0.0
H1424 H 0.27858 0.39368 0.76352 0.0
Co1425 Co 0.3019 0.41092 0.8513 0.0
C1426 C 0.33524 0.48174 0.89807 0.0
O1427 O 0.32359 0.47276 0.93413 0.0
N1428 N 0.32326 0.38241 0.89387 0.0
C1429 C 0.32838 0.34006 0.94427 0.0
C1430 C 0.30574 0.35144 0.91219 0.0
C1431 C 0.35712 0.38853 0.91447 0.0
N1432 N 0.36046 0.36376 0.9458 0.0
O1433 O 0.25625 0.42309 0.88286 0.0
H1434 H 0.27768 0.33862 0.90351 0.0
H1435 H 0.37823 0.41169 0.90755 0.0
O1436 O 0.32733 0.45886 0.86909 0.0
C1437 C 0.22536 0.40156 0.87941 0.0
O1438 O 0.22443 0.37424 0.85162 0.0
N1439 N 0.34627 0.39761 0.81999 0.0
C1440 C 0.40532 0.37698 0.76568 0.0
C1441 C 0.40233 0.41569 0.78038 0.0
C1442 C 0.37235 0.42556 0.80674 0.0
C1443 C 0.3499 0.35914 0.80791 0.0
C1444 C 0.37937 0.34807 0.7806 0.0
H1445 H 0.36939 0.45622 0.81468 0.0
H1446 H 0.32879 0.33729 0.81821 0.0
H1447 H 0.27819 0.49972 0.82829 0.0
H1448 H 0.26244 0.4527 0.71393 0.0
H1449 H 0.32108 0.31714 0.96556 0.0
H1450 H 0.42183 0.439 0.7702 0.0
H1451 H 0.38049 0.31783 0.76985 0.0
C1452 C 0.1745 0.99279 0.99574 0.0
C1453 C 0.20516 1.0011 0.02155 0.0
N1454 N 0.23921 1.00107 1.00073 0.0
N1455 N 0.18924 0.9869 0.95899 0.0
C1456 C 0.22877 0.99299 0.96286 0.0
H1457 H 0.14372 0.98867 1.00376 0.0
Co1458 Co 0.16094 0.9654 0.91597 0.0
C1459 C 0.23177 0.93206 0.8692 0.0
O1460 O 0.22278 0.94371 0.83314 0.0
N1461 N 0.13243 0.94403 0.8734 0.0
C1462 C 0.09007 0.9389 0.82301 0.0
C1463 C 0.10145 0.96154 0.85509 0.0
C1464 C 0.13855 0.91017 0.8528 0.0
N1465 N 0.11378 0.90683 0.82147 0.0
O1466 O 0.17311 0.01104 0.88439 0.0
H1467 H 0.08863 0.9896 0.86377 0.0
H1468 H 0.16172 0.88906 0.85972 0.0
O1469 O 0.20888 0.93997 0.89818 0.0
C1470 C 0.15158 0.04193 0.88785 0.0
O1471 O 0.12426 0.04287 0.91564 0.0
N1472 N 0.14764 0.92103 0.94729 0.0
C1473 C 0.127 0.86199 1.0016 0.0
C1474 C 0.16572 0.86498 0.9869 0.0
C1475 C 0.17558 0.89495 0.96053 0.0
C1476 C 0.10916 0.91741 0.95938 0.0
C1477 C 0.09809 0.88795 0.98669 0.0
H1478 H 0.20624 0.89789 0.95258 0.0
H1479 H 0.08731 0.93852 0.94908 0.0
H1480 H 0.24974 0.98913 0.93896 0.0
H1481 H 0.20275 1.00482 0.05333 0.0
H1482 H 0.06715 0.94619 0.80173 0.0
H1483 H 0.18902 0.84546 0.99707 0.0
H1484 H 0.06786 0.88684 0.99745 0.0
C1485 C 0.77451 0.09283 0.24574 0.0
C1486 C 0.76622 0.06217 0.27157 0.0
N1487 N 0.76632 0.02812 0.25076 0.0
N1488 N 0.78042 0.07807 0.20899 0.0
C1489 C 0.77436 0.03854 0.21288 0.0
H1490 H 0.77859 0.12361 0.25374 0.0
Co1491 Co 0.80192 0.10637 0.16597 0.0
C1492 C 0.83525 0.03555 0.1192 0.0
O1493 O 0.8236 0.04453 0.08314 0.0
N1494 N 0.82328 0.13488 0.1234 0.0
C1495 C 0.82839 0.17723 0.073 0.0
C1496 C 0.80575 0.16585 0.10508 0.0
C1497 C 0.85713 0.12876 0.10279 0.0
N1498 N 0.86047 0.15353 0.07146 0.0
O1499 O 0.75627 0.0942 0.1344 0.0
H1500 H 0.7777 0.17867 0.11376 0.0
H1501 H 0.87825 0.1056 0.10971 0.0
O1502 O 0.82735 0.05843 0.14817 0.0
C1503 C 0.72538 0.11572 0.13786 0.0
O1504 O 0.72444 0.14305 0.16565 0.0
N1505 N 0.84629 0.11968 0.19728 0.0
C1506 C 0.90533 0.14031 0.25159 0.0
C1507 C 0.90234 0.10159 0.2369 0.0
C1508 C 0.87236 0.09173 0.21052 0.0
C1509 C 0.84991 0.15815 0.20936 0.0
C1510 C 0.87938 0.16922 0.23667 0.0
H1511 H 0.86941 0.06107 0.20258 0.0
H1512 H 0.8288 0.18 0.19906 0.0
H1513 H 0.7782 0.01757 0.18898 0.0
H1514 H 0.76245 0.06459 0.30333 0.0
H1515 H 0.8211 0.20015 0.05171 0.0
H1516 H 0.92184 0.07829 0.24708 0.0
H1517 H 0.8805 0.19945 0.24742 0.0
C1518 C 0.34284 0.9928 0.02153 0.0
C1519 C 0.31218 1.00109 0.9957 0.0
N1520 N 0.27813 1.00098 0.01651 0.0
N1521 N 0.32809 0.98689 0.05827 0.0
C1522 C 0.28856 0.99295 0.05438 0.0
H1523 H 0.37363 0.98872 0.01352 0.0
Co1524 Co 0.35639 0.9654 0.1013 0.0
C1525 C 0.28556 0.93206 0.14807 0.0
O1526 O 0.29454 0.94371 0.18413 0.0
N1527 N 0.3849 0.94404 0.14387 0.0
C1528 C 0.42724 0.93892 0.19427 0.0
C1529 C 0.41587 0.96156 0.16219 0.0
C1530 C 0.37877 0.91018 0.16447 0.0
N1531 N 0.40354 0.90684 0.19581 0.0
O1532 O 0.34422 0.01105 0.13287 0.0
H1533 H 0.42869 0.98962 0.15351 0.0
H1534 H 0.35561 0.88907 0.15755 0.0
O1535 O 0.30844 0.93997 0.11909 0.0
C1536 C 0.36574 0.04194 0.12941 0.0
O1537 O 0.39307 0.04287 0.10163 0.0
N1538 N 0.36969 0.92103 0.06999 0.0
C1539 C 0.39033 0.86198 0.01568 0.0
C1540 C 0.35161 0.86497 0.03038 0.0
C1541 C 0.34175 0.89495 0.05675 0.0
C1542 C 0.40817 0.9174 0.0579 0.0
C1543 C 0.41923 0.88793 0.03059 0.0
H1544 H 0.31108 0.8979 0.06469 0.0
H1545 H 0.43002 0.93851 0.0682 0.0
H1546 H 0.26758 0.98911 0.07829 0.0
H1547 H 0.3146 1.00486 0.96393 0.0
H1548 H 0.45016 0.94621 0.21556 0.0
H1549 H 0.3283 0.84547 0.0202 0.0
H1550 H 0.44947 0.88682 0.01984 0.0
C1551 C 0.67448 0.52449 0.02153 0.0
C1552 C 0.70513 0.5162 0.9957 0.0
N1553 N 0.73919 0.5163 0.01651 0.0
N1554 N 0.68923 0.5304 0.05828 0.0
C1555 C 0.72876 0.52434 0.05439 0.0
H1556 H 0.64369 0.52857 0.01353 0.0
Co1557 Co 0.66093 0.5519 0.1013 0.0
C1558 C 0.73176 0.58523 0.14807 0.0
O1559 O 0.72278 0.57359 0.18414 0.0
N1560 N 0.63242 0.57326 0.14387 0.0
C1561 C 0.59007 0.57838 0.19427 0.0
C1562 C 0.60145 0.55574 0.1622 0.0
C1563 C 0.63855 0.60712 0.16448 0.0
N1564 N 0.61378 0.61046 0.19581 0.0
O1565 O 0.67311 0.50625 0.13288 0.0
H1566 H 0.58863 0.52768 0.15351 0.0
H1567 H 0.66171 0.62823 0.15755 0.0
O1568 O 0.70888 0.57733 0.1191 0.0
C1569 C 0.65158 0.47536 0.12942 0.0
O1570 O 0.62426 0.47442 0.10163 0.0
N1571 N 0.64763 0.59627 0.06999 0.0
C1572 C 0.627 0.65531 0.01568 0.0
C1573 C 0.66571 0.65232 0.03037 0.0
C1574 C 0.67557 0.62234 0.05674 0.0
C1575 C 0.60915 0.59989 0.05791 0.0
C1576 C 0.59809 0.62936 0.0306 0.0
H1577 H 0.70624 0.61939 0.06468 0.0
H1578 H 0.5873 0.57879 0.06821 0.0
H1579 H 0.74974 0.52819 0.07829 0.0
H1580 H 0.70271 0.51242 0.96394 0.0
H1581 H 0.56715 0.57109 0.21556 0.0
H1582 H 0.68902 0.67182 0.0202 0.0
H1583 H 0.56785 0.63048 0.01985 0.0
loop_
_geom_bond_atom_site_label_1
_geom_bond_atom_site_label_2
_geom_bond_distance
_geom_bond_site_symmetry_2
_ccdc_geom_bond_type
C0 C1 1.351 . S
C0 N3 1.368 . S
C0 H5 0.931 . S
C1 C0 1.351 . S
C1 N2 1.373 . S
C1 H29 0.930 . S
N2 C1 1.373 . S
N2 C4 1.340 . S
N3 C0 1.368 . S
N3 C4 1.321 . S
N3 Co6 2.135 . S
C4 N2 1.340 . S
C4 N3 1.321 . S
C4 H28 0.930 . S
H5 C0 0.931 . S
Co6 N3 2.135 . S
Co6 N9 2.121 . S
Co6 O14 2.055 . S
Co6 O17 2.039 . S
Co6 N20 2.140 . S
C7 O8 1.227 . S
C7 O17 1.265 . S
O8 C7 1.227 . S
N9 Co6 2.121 . S
N9 C11 1.375 . S
N9 C12 1.313 . S
C10 C11 1.338 . S
C10 N13 1.377 . S
C10 H30 0.930 . S
C11 N9 1.375 . S
C11 C10 1.338 . S
C11 H15 0.931 . S
C12 N9 1.313 . S
C12 N13 1.344 . S
C12 H16 0.930 . S
N13 C10 1.377 . S
N13 C12 1.344 . S
O14 Co6 2.055 . S
O14 C18 1.253 . S
H15 C11 0.931 . S
H16 C12 0.930 . S
O17 Co6 2.039 . S
O17 C7 1.265 . S
C18 O14 1.253 . S
C18 O19 1.227 . S
O19 C18 1.227 . S
N20 Co6 2.140 . S
N20 C23 1.346 . S
N20 C24 1.345 . S
C21 C22 1.387 . S
C21 C25 1.391 . S
C22 C21 1.387 . S
C22 C23 1.369 . S
C22 H31 0.929 . S
C23 N20 1.346 . S
C23 C22 1.369 . S
C23 H26 0.928 . S
C24 N20 1.345 . S
C24 C25 1.371 . S
C24 H27 0.931 . S
C25 C21 1.391 . S
C25 C24 1.371 . S
C25 H32 0.930 . S
H26 C23 0.928 . S
H27 C24 0.931 . S
H28 C4 0.930 . S
H29 C1 0.930 . S
H30 C10 0.930 . S
H31 C22 0.929 . S
H32 C25 0.930 . S
C33 C34 1.351 . S
C33 N36 1.368 . S
C33 H38 0.931 . S
C34 C33 1.351 . S
C34 N35 1.373 . S
C34 H62 0.930 . S
N35 C34 1.373 . S
N35 C37 1.340 . S
N36 C33 1.368 . S
N36 C37 1.321 . S
N36 Co39 2.135 . S
C37 N35 1.340 . S
C37 N36 1.321 . S
C37 H61 0.930 . S
H38 C33 0.931 . S
Co39 N36 2.135 . S
Co39 N42 2.121 . S
Co39 O47 2.055 . S
Co39 O50 2.039 . S
Co39 N53 2.140 . S
C40 O41 1.227 . S
C40 O50 1.265 . S
O41 C40 1.227 . S
N42 Co39 2.121 . S
N42 C44 1.375 . S
N42 C45 1.313 . S
C43 C44 1.338 . S
C43 N46 1.377 . S
C43 H63 0.930 . S
C44 N42 1.375 . S
C44 C43 1.338 . S
C44 H48 0.931 . S
C45 N42 1.313 . S
C45 N46 1.344 . S
C45 H49 0.930 . S
N46 C43 1.377 . S
N46 C45 1.344 . S
O47 Co39 2.055 . S
O47 C51 1.253 . S
H48 C44 0.931 . S
H49 C45 0.930 . S
O50 Co39 2.039 . S
O50 C40 1.265 . S
C51 O47 1.253 . S
C51 O52 1.227 . S
O52 C51 1.227 . S
N53 Co39 2.140 . S
N53 C56 1.346 . S
N53 C57 1.345 . S
C54 C55 1.387 . S
C54 C58 1.391 . S
C55 C54 1.387 . S
C55 C56 1.369 . S
C55 H64 0.929 . S
C56 N53 1.346 . S
C56 C55 1.369 . S
C56 H59 0.928 . S
C57 N53 1.345 . S
C57 C58 1.371 . S
C57 H60 0.931 . S
C58 C54 1.391 . S
C58 C57 1.371 . S
C58 H65 0.930 . S
H59 C56 0.928 . S
H60 C57 0.931 . S
H61 C37 0.930 . S
H62 C34 0.930 . S
H63 C43 0.930 . S
H64 C55 0.929 . S
H65 C58 0.930 . S
C66 C67 1.351 . S
C66 N69 1.368 . S
C66 H71 0.931 . S
C67 C66 1.351 . S
C67 N68 1.373 . S
C67 H95 0.930 . S
N68 C67 1.373 . S
N68 C70 1.340 . S
N69 C66 1.368 . S
N69 C70 1.321 . S
N69 Co72 2.135 . S
C70 N68 1.340 . S
C70 N69 1.321 . S
C70 H94 0.930 . S
H71 C66 0.931 . S
Co72 N69 2.135 . S
Co72 N75 2.121 . S
Co72 O80 2.055 . S
Co72 O83 2.039 . S
Co72 N86 2.140 . S
C73 O74 1.227 . S
C73 O83 1.265 . S
O74 C73 1.227 . S
N75 Co72 2.121 . S
N75 C77 1.375 . S
N75 C78 1.313 . S
C76 C77 1.338 . S
C76 N79 1.377 . S
C76 H96 0.930 . S
C77 N75 1.375 . S
C77 C76 1.338 . S
C77 H81 0.931 . S
C78 N75 1.313 . S
C78 N79 1.344 . S
C78 H82 0.930 . S
N79 C76 1.377 . S
N79 C78 1.344 . S
O80 Co72 2.055 . S
O80 C84 1.253 . S
H81 C77 0.931 . S
H82 C78 0.930 . S
O83 Co72 2.039 . S
O83 C73 1.265 . S
C84 O80 1.253 . S
C84 O85 1.227 . S
O85 C84 1.227 . S
N86 Co72 2.140 . S
N86 C89 1.346 . S
N86 C90 1.345 . S
C87 C88 1.387 . S
C87 C91 1.391 . S
C88 C87 1.387 . S
C88 C89 1.369 . S
C88 H97 0.929 . S
C89 N86 1.346 . S
C89 C88 1.369 . S
C89 H92 0.928 . S
C90 N86 1.345 . S
C90 C91 1.371 . S
C90 H93 0.931 . S
C91 C87 1.391 . S
C91 C90 1.371 . S
C91 H98 0.930 . S
H92 C89 0.928 . S
H93 C90 0.931 . S
H94 C70 0.930 . S
H95 C67 0.930 . S
H96 C76 0.930 . S
H97 C88 0.929 . S
H98 C91 0.930 . S
C99 C100 1.351 . S
C99 N102 1.368 . S
C99 H104 0.931 . S
C100 C99 1.351 . S
C100 N101 1.373 . S
C100 H128 0.930 1_565 S
N101 C100 1.373 . S
N101 C103 1.340 . S
N102 C99 1.368 . S
N102 C103 1.321 . S
N102 Co105 2.135 . S
C103 N101 1.340 . S
C103 N102 1.321 . S
C103 H127 0.930 . S
H104 C99 0.931 . S
Co105 N102 2.135 . S
Co105 N108 2.121 . S
Co105 O113 2.055 . S
Co105 O116 2.039 . S
Co105 N119 2.140 . S
C106 O107 1.227 . S
C106 O116 1.265 . S
O107 C106 1.227 . S
N108 Co105 2.121 . S
N108 C110 1.375 . S
N108 C111 1.313 . S
C109 C110 1.338 . S
C109 N112 1.377 . S
C109 H129 0.930 . S
C110 N108 1.375 . S
C110 C109 1.338 . S
C110 H114 0.931 . S
C111 N108 1.313 . S
C111 N112 1.344 . S
C111 H115 0.930 . S
N112 C109 1.377 . S
N112 C111 1.344 . S
O113 Co105 2.055 . S
O113 C117 1.253 . S
H114 C110 0.931 . S
H115 C111 0.930 . S
O116 Co105 2.039 . S
O116 C106 1.265 . S
C117 O113 1.253 . S
C117 O118 1.227 . S
O118 C117 1.227 . S
N119 Co105 2.140 . S
N119 C122 1.346 . S
N119 C123 1.345 . S
C120 C121 1.387 . S
C120 C124 1.391 . S
C121 C120 1.387 . S
C121 C122 1.369 . S
C121 H130 0.929 1_565 S
C122 N119 1.346 . S
C122 C121 1.369 . S
C122 H125 0.928 . S
C123 N119 1.345 . S
C123 C124 1.371 . S
C123 H126 0.931 . S
C124 C120 1.391 . S
C124 C123 1.371 . S
C124 H131 0.930 . S
H125 C122 0.928 . S
H126 C123 0.931 . S
H127 C103 0.930 . S
H128 C100 0.930 1_545 S
H129 C109 0.930 . S
H130 C121 0.929 1_545 S
H131 C124 0.930 . S
C132 C133 1.351 . S
C132 N135 1.368 . S
C132 H137 0.931 . S
C133 C132 1.351 . S
C133 N134 1.373 . S
C133 H161 0.930 . S
N134 C133 1.373 . S
N134 C136 1.340 . S
N135 C132 1.368 . S
N135 C136 1.321 . S
N135 Co138 2.135 . S
C136 N134 1.340 . S
C136 N135 1.321 . S
C136 H160 0.930 1_554 S
H137 C132 0.931 . S
Co138 N135 2.135 . S
Co138 N141 2.121 . S
Co138 O146 2.055 . S
Co138 O149 2.039 . S
Co138 N152 2.140 . S
C139 O140 1.227 . S
C139 O149 1.265 . S
O140 C139 1.227 . S
N141 Co138 2.121 . S
N141 C143 1.375 . S
N141 C144 1.313 . S
C142 C143 1.338 . S
C142 N145 1.377 . S
C142 H162 0.930 . S
C143 N141 1.375 . S
C143 C142 1.338 . S
C143 H147 0.931 . S
C144 N141 1.313 . S
C144 N145 1.344 . S
C144 H148 0.930 . S
N145 C142 1.377 . S
N145 C144 1.344 . S
O146 Co138 2.055 . S
O146 C150 1.253 . S
H147 C143 0.931 . S
H148 C144 0.930 . S
O149 Co138 2.039 . S
O149 C139 1.265 . S
C150 O146 1.253 . S
C150 O151 1.227 . S
O151 C150 1.227 . S
N152 Co138 2.140 . S
N152 C155 1.346 . S
N152 C156 1.345 . S
C153 C154 1.387 . S
C153 C157 1.391 . S
C154 C153 1.387 . S
C154 C155 1.369 . S
C154 H163 0.929 . S
C155 N152 1.346 . S
C155 C154 1.369 . S
C155 H158 0.928 . S
C156 N152 1.345 . S
C156 C157 1.371 . S
C156 H159 0.931 . S
C157 C153 1.391 . S
C157 C156 1.371 . S
C157 H164 0.930 . S
H158 C155 0.928 . S
H159 C156 0.931 . S
H160 C136 0.930 1_556 S
H161 C133 0.930 . S
H162 C142 0.930 . S
H163 C154 0.929 . S
H164 C157 0.930 . S
C165 C166 1.351 1_455 S
C165 N168 1.368 . S
C165 H170 0.931 1_455 S
C166 C165 1.351 1_655 S
C166 N167 1.373 1_655 S
C166 H194 0.930 . S
N167 C166 1.373 1_455 S
N167 C169 1.340 . S
N168 C165 1.368 . S
N168 C169 1.321 . S
N168 Co171 2.135 . S
C169 N167 1.340 . S
C169 N168 1.321 . S
C169 H193 0.930 . S
H170 C165 0.931 1_655 S
Co171 N168 2.135 . S
Co171 N174 2.121 . S
Co171 O179 2.055 . S
Co171 O182 2.039 . S
Co171 N185 2.140 . S
C172 O173 1.227 . S
C172 O182 1.265 . S
O173 C172 1.227 . S
N174 Co171 2.121 . S
N174 C176 1.375 . S
N174 C177 1.313 . S
C175 C176 1.338 . S
C175 N178 1.377 . S
C175 H195 0.930 . S
C176 N174 1.375 . S
C176 C175 1.338 . S
C176 H180 0.931 . S
C177 N174 1.313 . S
C177 N178 1.344 . S
C177 H181 0.930 . S
N178 C175 1.377 . S
N178 C177 1.344 . S
O179 Co171 2.055 . S
O179 C183 1.253 1_455 S
H180 C176 0.931 . S
H181 C177 0.930 . S
O182 Co171 2.039 . S
O182 C172 1.265 . S
C183 O179 1.253 1_655 S
C183 O184 1.227 1_655 S
O184 C183 1.227 1_455 S
N185 Co171 2.140 . S
N185 C188 1.346 . S
N185 C189 1.345 . S
C186 C187 1.387 . S
C186 C190 1.391 . S
C187 C186 1.387 . S
C187 C188 1.369 . S
C187 H196 0.929 . S
C188 N185 1.346 . S
C188 C187 1.369 . S
C188 H191 0.928 . S
C189 N185 1.345 . S
C189 C190 1.371 . S
C189 H192 0.931 . S
C190 C186 1.391 . S
C190 C189 1.371 . S
C190 H197 0.930 . S
H191 C188 0.928 . S
H192 C189 0.931 . S
H193 C169 0.930 . S
H194 C166 0.930 . S
H195 C175 0.930 . S
H196 C187 0.929 . S
H197 C190 0.930 . S
C198 C199 1.351 . S
C198 N201 1.368 . S
C198 H203 0.931 . S
C199 C198 1.351 . S
C199 N200 1.373 . S
C199 H227 0.930 . S
N200 C199 1.373 . S
N200 C202 1.340 . S
N201 C198 1.368 . S
N201 C202 1.321 . S
N201 Co204 2.135 . S
C202 N200 1.340 . S
C202 N201 1.321 . S
C202 H226 0.930 1_554 S
H203 C198 0.931 . S
Co204 N201 2.135 . S
Co204 N207 2.121 . S
Co204 O212 2.055 . S
Co204 O215 2.039 . S
Co204 N218 2.140 . S
C205 O206 1.227 . S
C205 O215 1.265 . S
O206 C205 1.227 . S
N207 Co204 2.121 . S
N207 C209 1.375 . S
N207 C210 1.313 . S
C208 C209 1.338 . S
C208 N211 1.377 . S
C208 H228 0.930 . S
C209 N207 1.375 . S
C209 C208 1.338 . S
C209 H213 0.931 . S
C210 N207 1.313 . S
C210 N211 1.344 . S
C210 H214 0.930 . S
N211 C208 1.377 . S
N211 C210 1.344 . S
O212 Co204 2.055 . S
O212 C216 1.253 . S
H213 C209 0.931 . S
H214 C210 0.930 . S
O215 Co204 2.039 . S
O215 C205 1.265 . S
C216 O212 1.253 . S
C216 O217 1.227 . S
O217 C216 1.227 . S
N218 Co204 2.140 . S
N218 C221 1.346 . S
N218 C222 1.345 . S
C219 C220 1.387 . S
C219 C223 1.391 . S
C220 C219 1.387 . S
C220 C221 1.369 . S
C220 H229 0.929 . S
C221 N218 1.346 . S
C221 C220 1.369 . S
C221 H224 0.928 . S
C222 N218 1.345 . S
C222 C223 1.371 . S
C222 H225 0.931 . S
C223 C219 1.391 . S
C223 C222 1.371 . S
C223 H230 0.930 . S
H224 C221 0.928 . S
H225 C222 0.931 . S
H226 C202 0.930 1_556 S
H227 C199 0.930 . S
H228 C208 0.930 . S
H229 C220 0.929 . S
H230 C223 0.930 . S
C231 C232 1.351 1_655 S
C231 N234 1.368 . S
C231 H236 0.931 1_655 S
C232 C231 1.351 1_455 S
C232 N233 1.373 1_455 S
C232 H260 0.930 1_565 S
N233 C232 1.373 1_655 S
N233 C235 1.340 . S
N234 C231 1.368 . S
N234 C235 1.321 . S
N234 Co237 2.135 . S
C235 N233 1.340 . S
C235 N234 1.321 . S
C235 H259 0.930 . S
H236 C231 0.931 1_455 S
Co237 N234 2.135 . S
Co237 N240 2.121 . S
Co237 O245 2.055 . S
Co237 O248 2.039 . S
Co237 N251 2.140 . S
C238 O239 1.227 . S
C238 O248 1.265 . S
O239 C238 1.227 . S
N240 Co237 2.121 . S
N240 C242 1.375 . S
N240 C243 1.313 . S
C241 C242 1.338 . S
C241 N244 1.377 . S
C241 H261 0.930 . S
C242 N240 1.375 . S
C242 C241 1.338 . S
C242 H246 0.931 . S
C243 N240 1.313 . S
C243 N244 1.344 . S
C243 H247 0.930 . S
N244 C241 1.377 . S
N244 C243 1.344 . S
O245 Co237 2.055 . S
O245 C249 1.253 1_655 S
H246 C242 0.931 . S
H247 C243 0.930 . S
O248 Co237 2.039 . S
O248 C238 1.265 . S
C249 O245 1.253 1_455 S
C249 O250 1.227 1_455 S
O250 C249 1.227 1_655 S
N251 Co237 2.140 . S
N251 C254 1.346 . S
N251 C255 1.345 . S
C252 C253 1.387 . S
C252 C256 1.391 . S
C253 C252 1.387 . S
C253 C254 1.369 . S
C253 H262 0.929 1_565 S
C254 N251 1.346 . S
C254 C253 1.369 . S
C254 H257 0.928 . S
C255 N251 1.345 . S
C255 C256 1.371 . S
C255 H258 0.931 . S
C256 C252 1.391 . S
C256 C255 1.371 . S
C256 H263 0.930 . S
H257 C254 0.928 . S
H258 C255 0.931 . S
H259 C235 0.930 . S
H260 C232 0.930 1_545 S
H261 C241 0.930 . S
H262 C253 0.929 1_545 S
H263 C256 0.930 . S
C264 C265 1.351 . S
C264 N267 1.368 . S
C264 H269 0.931 . S
C265 C264 1.351 . S
C265 N266 1.373 . S
C265 H293 0.930 . S
N266 C265 1.373 . S
N266 C268 1.340 . S
N267 C264 1.368 . S
N267 C268 1.321 . S
N267 Co270 2.135 . S
C268 N266 1.340 . S
C268 N267 1.321 . S
C268 H292 0.930 . S
H269 C264 0.931 . S
Co270 N267 2.135 . S
Co270 N273 2.121 . S
Co270 O278 2.055 . S
Co270 O281 2.039 . S
Co270 N284 2.140 . S
C271 O272 1.227 . S
C271 O281 1.265 . S
O272 C271 1.227 . S
N273 Co270 2.121 . S
N273 C275 1.375 . S
N273 C276 1.313 . S
C274 C275 1.338 . S
C274 N277 1.377 . S
C274 H294 0.930 . S
C275 N273 1.375 . S
C275 C274 1.338 . S
C275 H279 0.931 . S
C276 N273 1.313 . S
C276 N277 1.344 . S
C276 H280 0.930 . S
N277 C274 1.377 . S
N277 C276 1.344 . S
O278 Co270 2.055 . S
O278 C282 1.253 . S
H279 C275 0.931 . S
H280 C276 0.930 . S
O281 Co270 2.039 . S
O281 C271 1.265 . S
C282 O278 1.253 . S
C282 O283 1.227 . S
O283 C282 1.227 . S
N284 Co270 2.140 . S
N284 C287 1.346 . S
N284 C288 1.345 . S
C285 C286 1.387 . S
C285 C289 1.391 . S
C286 C285 1.387 . S
C286 C287 1.369 . S
C286 H295 0.929 . S
C287 N284 1.346 . S
C287 C286 1.369 . S
C287 H290 0.928 . S
C288 N284 1.345 . S
C288 C289 1.371 . S
C288 H291 0.931 . S
C289 C285 1.391 . S
C289 C288 1.371 . S
C289 H296 0.930 . S
H290 C287 0.928 . S
H291 C288 0.931 . S
H292 C268 0.930 . S
H293 C265 0.930 . S
H294 C274 0.930 . S
H295 C286 0.929 . S
H296 C289 0.930 . S
C297 C298 1.351 1_554 S
C297 N300 1.368 . S
C297 H302 0.931 1_554 S
C298 C297 1.351 1_556 S
C298 N299 1.373 1_556 S
C298 H326 0.930 . S
N299 C298 1.373 1_554 S
N299 C301 1.340 . S
N300 C297 1.368 . S
N300 C301 1.321 . S
N300 Co303 2.135 . S
C301 N299 1.340 . S
C301 N300 1.321 . S
C301 H325 0.930 . S
H302 C297 0.931 1_556 S
Co303 N300 2.135 . S
Co303 N306 2.121 . S
Co303 O311 2.055 . S
Co303 O314 2.039 . S
Co303 N317 2.140 . S
C304 O305 1.227 . S
C304 O314 1.265 . S
O305 C304 1.227 . S
N306 Co303 2.121 . S
N306 C308 1.375 . S
N306 C309 1.313 . S
C307 C308 1.338 . S
C307 N310 1.377 . S
C307 H327 0.930 . S
C308 N306 1.375 . S
C308 C307 1.338 . S
C308 H312 0.931 . S
C309 N306 1.313 . S
C309 N310 1.344 . S
C309 H313 0.930 . S
N310 C307 1.377 . S
N310 C309 1.344 . S
O311 Co303 2.055 . S
O311 C315 1.253 1_554 S
H312 C308 0.931 . S
H313 C309 0.930 . S
O314 Co303 2.039 . S
O314 C304 1.265 . S
C315 O311 1.253 1_556 S
C315 O316 1.227 1_556 S
O316 C315 1.227 1_554 S
N317 Co303 2.140 . S
N317 C320 1.346 . S
N317 C321 1.345 . S
C318 C319 1.387 . S
C318 C322 1.391 . S
C319 C318 1.387 . S
C319 C320 1.369 . S
C319 H328 0.929 . S
C320 N317 1.346 . S
C320 C319 1.369 . S
C320 H323 0.928 . S
C321 N317 1.345 . S
C321 C322 1.371 . S
C321 H324 0.931 . S
C322 C318 1.391 . S
C322 C321 1.371 . S
C322 H329 0.930 . S
H323 C320 0.928 . S
H324 C321 0.931 . S
H325 C301 0.930 . S
H326 C298 0.930 . S
H327 C307 0.930 . S
H328 C319 0.929 . S
H329 C322 0.930 . S
C330 C331 1.351 . S
C330 N333 1.368 . S
C330 H335 0.931 . S
C331 C330 1.351 . S
C331 N332 1.373 . S
C331 H359 0.930 . S
N332 C331 1.373 . S
N332 C334 1.340 . S
N333 C330 1.368 . S
N333 C334 1.321 . S
N333 Co336 2.135 . S
C334 N332 1.340 . S
C334 N333 1.321 . S
C334 H358 0.930 . S
H335 C330 0.931 . S
Co336 N333 2.135 . S
Co336 N339 2.121 . S
Co336 O344 2.055 . S
Co336 O347 2.039 . S
Co336 N350 2.140 . S
C337 O338 1.227 . S
C337 O347 1.265 . S
O338 C337 1.227 . S
N339 Co336 2.121 . S
N339 C341 1.375 . S
N339 C342 1.313 . S
C340 C341 1.338 . S
C340 N343 1.377 . S
C340 H360 0.930 . S
C341 N339 1.375 . S
C341 C340 1.338 . S
C341 H345 0.931 . S
C342 N339 1.313 . S
C342 N343 1.344 . S
C342 H346 0.930 . S
N343 C340 1.377 . S
N343 C342 1.344 . S
O344 Co336 2.055 . S
O344 C348 1.253 . S
H345 C341 0.931 . S
H346 C342 0.930 . S
O347 Co336 2.039 . S
O347 C337 1.265 . S
C348 O344 1.253 . S
C348 O349 1.227 . S
O349 C348 1.227 . S
N350 Co336 2.140 . S
N350 C353 1.346 . S
N350 C354 1.345 . S
C351 C352 1.387 . S
C351 C355 1.391 . S
C352 C351 1.387 . S
C352 C353 1.369 . S
C352 H361 0.929 . S
C353 N350 1.346 . S
C353 C352 1.369 . S
C353 H356 0.928 . S
C354 N350 1.345 . S
C354 C355 1.371 . S
C354 H357 0.931 . S
C355 C351 1.391 . S
C355 C354 1.371 . S
C355 H362 0.930 . S
H356 C353 0.928 . S
H357 C354 0.931 . S
H358 C334 0.930 . S
H359 C331 0.930 . S
H360 C340 0.930 . S
H361 C352 0.929 . S
H362 C355 0.930 . S
C363 C364 1.351 1_554 S
C363 N366 1.368 . S
C363 H368 0.931 1_554 S
C364 C363 1.351 1_556 S
C364 N365 1.373 1_556 S
C364 H392 0.930 . S
N365 C364 1.373 1_554 S
N365 C367 1.340 . S
N366 C363 1.368 . S
N366 C367 1.321 . S
N366 Co369 2.135 . S
C367 N365 1.340 . S
C367 N366 1.321 . S
C367 H391 0.930 . S
H368 C363 0.931 1_556 S
Co369 N366 2.135 . S
Co369 N372 2.121 . S
Co369 O377 2.055 . S
Co369 O380 2.039 . S
Co369 N383 2.140 . S
C370 O371 1.227 . S
C370 O380 1.265 . S
O371 C370 1.227 . S
N372 Co369 2.121 . S
N372 C374 1.375 . S
N372 C375 1.313 . S
C373 C374 1.338 . S
C373 N376 1.377 . S
C373 H393 0.930 . S
C374 N372 1.375 . S
C374 C373 1.338 . S
C374 H378 0.931 . S
C375 N372 1.313 . S
C375 N376 1.344 . S
C375 H379 0.930 . S
N376 C373 1.377 . S
N376 C375 1.344 . S
O377 Co369 2.055 . S
O377 C381 1.253 1_554 S
H378 C374 0.931 . S
H379 C375 0.930 . S
O380 Co369 2.039 . S
O380 C370 1.265 . S
C381 O377 1.253 1_556 S
C381 O382 1.227 1_556 S
O382 C381 1.227 1_554 S
N383 Co369 2.140 . S
N383 C386 1.346 . S
N383 C387 1.345 . S
C384 C385 1.387 . S
C384 C388 1.391 . S
C385 C384 1.387 . S
C385 C386 1.369 . S
C385 H394 0.929 . S
C386 N383 1.346 . S
C386 C385 1.369 . S
C386 H389 0.928 . S
C387 N383 1.345 . S
C387 C388 1.371 . S
C387 H390 0.931 . S
C388 C384 1.391 . S
C388 C387 1.371 . S
C388 H395 0.930 . S
H389 C386 0.928 . S
H390 C387 0.931 . S
H391 C367 0.930 . S
H392 C364 0.930 . S
H393 C373 0.930 . S
H394 C385 0.929 . S
H395 C388 0.930 . S
C396 C397 1.351 . S
C396 N399 1.368 . S
C396 H401 0.931 . S
C397 C396 1.351 . S
C397 N398 1.373 . S
C397 H425 0.930 . S
N398 C397 1.373 . S
N398 C400 1.340 . S
N399 C396 1.368 . S
N399 C400 1.321 . S
N399 Co402 2.135 . S
C400 N398 1.340 . S
C400 N399 1.321 . S
C400 H424 0.930 . S
H401 C396 0.931 . S
Co402 N399 2.135 . S
Co402 N405 2.121 . S
Co402 O410 2.055 . S
Co402 O413 2.039 . S
Co402 N416 2.140 . S
C403 O404 1.227 . S
C403 O413 1.265 . S
O404 C403 1.227 . S
N405 Co402 2.121 . S
N405 C407 1.375 . S
N405 C408 1.313 . S
C406 C407 1.338 . S
C406 N409 1.377 . S
C406 H426 0.930 . S
C407 N405 1.375 . S
C407 C406 1.338 . S
C407 H411 0.931 . S
C408 N405 1.313 . S
C408 N409 1.344 . S
C408 H412 0.930 . S
N409 C406 1.377 . S
N409 C408 1.344 . S
O410 Co402 2.055 . S
O410 C414 1.253 . S
H411 C407 0.931 . S
H412 C408 0.930 . S
O413 Co402 2.039 . S
O413 C403 1.265 . S
C414 O410 1.253 . S
C414 O415 1.227 . S
O415 C414 1.227 . S
N416 Co402 2.140 . S
N416 C419 1.346 . S
N416 C420 1.345 . S
C417 C418 1.387 . S
C417 C421 1.391 . S
C418 C417 1.387 . S
C418 C419 1.369 . S
C418 H427 0.929 . S
C419 N416 1.346 . S
C419 C418 1.369 . S
C419 H422 0.928 . S
C420 N416 1.345 . S
C420 C421 1.371 . S
C420 H423 0.931 . S
C421 C417 1.391 . S
C421 C420 1.371 . S
C421 H428 0.930 . S
H422 C419 0.928 . S
H423 C420 0.931 . S
H424 C400 0.930 . S
H425 C397 0.930 . S
H426 C406 0.930 . S
H427 C418 0.929 . S
H428 C421 0.930 . S
C429 C430 1.351 1_556 S
C429 N432 1.368 . S
C429 H434 0.931 1_556 S
C430 C429 1.351 1_554 S
C430 N431 1.373 1_554 S
C430 H458 0.930 1_455 S
N431 C430 1.373 1_556 S
N431 C433 1.340 . S
N432 C429 1.368 . S
N432 C433 1.321 . S
N432 Co435 2.135 . S
C433 N431 1.340 . S
C433 N432 1.321 . S
C433 H457 0.930 . S
H434 C429 0.931 1_554 S
Co435 N432 2.135 . S
Co435 N438 2.121 . S
Co435 O443 2.055 . S
Co435 O446 2.039 . S
Co435 N449 2.140 . S
C436 O437 1.227 . S
C436 O446 1.265 . S
O437 C436 1.227 . S
N438 Co435 2.121 . S
N438 C440 1.375 . S
N438 C441 1.313 . S
C439 C440 1.338 . S
C439 N442 1.377 . S
C439 H459 0.930 . S
C440 N438 1.375 . S
C440 C439 1.338 . S
C440 H444 0.931 . S
C441 N438 1.313 . S
C441 N442 1.344 . S
C441 H445 0.930 . S
N442 C439 1.377 . S
N442 C441 1.344 . S
O443 Co435 2.055 . S
O443 C447 1.253 1_556 S
H444 C440 0.931 . S
H445 C441 0.930 . S
O446 Co435 2.039 . S
O446 C436 1.265 . S
C447 O443 1.253 1_554 S
C447 O448 1.227 1_554 S
O448 C447 1.227 1_556 S
N449 Co435 2.140 . S
N449 C452 1.346 . S
N449 C453 1.345 . S
C450 C451 1.387 . S
C450 C454 1.391 . S
C451 C450 1.387 . S
C451 C452 1.369 . S
C451 H460 0.929 1_455 S
C452 N449 1.346 . S
C452 C451 1.369 . S
C452 H455 0.928 . S
C453 N449 1.345 . S
C453 C454 1.371 . S
C453 H456 0.931 . S
C454 C450 1.391 . S
C454 C453 1.371 . S
C454 H461 0.930 . S
H455 C452 0.928 . S
H456 C453 0.931 . S
H457 C433 0.930 . S
H458 C430 0.930 1_655 S
H459 C439 0.930 . S
H460 C451 0.929 1_655 S
H461 C454 0.930 . S
C462 C463 1.351 . S
C462 N465 1.368 . S
C462 H467 0.931 . S
C463 C462 1.351 . S
C463 N464 1.373 . S
C463 H491 0.930 . S
N464 C463 1.373 . S
N464 C466 1.340 . S
N465 C462 1.368 . S
N465 C466 1.321 . S
N465 Co468 2.135 . S
C466 N464 1.340 . S
C466 N465 1.321 . S
C466 H490 0.930 . S
H467 C462 0.931 . S
Co468 N465 2.135 . S
Co468 N471 2.121 . S
Co468 O476 2.055 . S
Co468 O479 2.039 . S
Co468 N482 2.140 . S
C469 O470 1.227 . S
C469 O479 1.265 . S
O470 C469 1.227 . S
N471 Co468 2.121 . S
N471 C473 1.375 . S
N471 C474 1.313 . S
C472 C473 1.338 . S
C472 N475 1.377 . S
C472 H492 0.930 . S
C473 N471 1.375 . S
C473 C472 1.338 . S
C473 H477 0.931 . S
C474 N471 1.313 . S
C474 N475 1.344 . S
C474 H478 0.930 . S
N475 C472 1.377 . S
N475 C474 1.344 . S
O476 Co468 2.055 . S
O476 C480 1.253 . S
H477 C473 0.931 . S
H478 C474 0.930 . S
O479 Co468 2.039 . S
O479 C469 1.265 . S
C480 O476 1.253 . S
C480 O481 1.227 . S
O481 C480 1.227 . S
N482 Co468 2.140 . S
N482 C485 1.346 . S
N482 C486 1.345 . S
C483 C484 1.387 . S
C483 C487 1.391 . S
C484 C483 1.387 . S
C484 C485 1.369 . S
C484 H493 0.929 . S
C485 N482 1.346 . S
C485 C484 1.369 . S
C485 H488 0.928 . S
C486 N482 1.345 . S
C486 C487 1.371 . S
C486 H489 0.931 . S
C487 C483 1.391 . S
C487 C486 1.371 . S
C487 H494 0.930 . S
H488 C485 0.928 . S
H489 C486 0.931 . S
H490 C466 0.930 . S
H491 C463 0.930 . S
H492 C472 0.930 . S
H493 C484 0.929 . S
H494 C487 0.930 . S
C495 C496 1.351 1_556 S
C495 N498 1.368 . S
C495 H500 0.931 1_556 S
C496 C495 1.351 1_554 S
C496 N497 1.373 1_554 S
C496 H524 0.930 1_655 S
N497 C496 1.373 1_556 S
N497 C499 1.340 . S
N498 C495 1.368 . S
N498 C499 1.321 . S
N498 Co501 2.135 . S
C499 N497 1.340 . S
C499 N498 1.321 . S
C499 H523 0.930 . S
H500 C495 0.931 1_554 S
Co501 N498 2.135 . S
Co501 N504 2.121 . S
Co501 O509 2.055 . S
Co501 O512 2.039 . S
Co501 N515 2.140 . S
C502 O503 1.227 . S
C502 O512 1.265 . S
O503 C502 1.227 . S
N504 Co501 2.121 . S
N504 C506 1.375 . S
N504 C507 1.313 . S
C505 C506 1.338 . S
C505 N508 1.377 . S
C505 H525 0.930 . S
C506 N504 1.375 . S
C506 C505 1.338 . S
C506 H510 0.931 . S
C507 N504 1.313 . S
C507 N508 1.344 . S
C507 H511 0.930 . S
N508 C505 1.377 . S
N508 C507 1.344 . S
O509 Co501 2.055 . S
O509 C513 1.253 1_556 S
H510 C506 0.931 . S
H511 C507 0.930 . S
O512 Co501 2.039 . S
O512 C502 1.265 . S
C513 O509 1.253 1_554 S
C513 O514 1.227 1_554 S
O514 C513 1.227 1_556 S
N515 Co501 2.140 . S
N515 C518 1.346 . S
N515 C519 1.345 . S
C516 C517 1.387 . S
C516 C520 1.391 . S
C517 C516 1.387 . S
C517 C518 1.369 . S
C517 H526 0.929 1_655 S
C518 N515 1.346 . S
C518 C517 1.369 . S
C518 H521 0.928 . S
C519 N515 1.345 . S
C519 C520 1.371 . S
C519 H522 0.931 . S
C520 C516 1.391 . S
C520 C519 1.371 . S
C520 H527 0.930 . S
H521 C518 0.928 . S
H522 C519 0.931 . S
H523 C499 0.930 . S
H524 C496 0.930 1_455 S
H525 C505 0.930 . S
H526 C517 0.929 1_455 S
H527 C520 0.930 . S
C528 C529 1.351 . S
C528 N531 1.368 . S
C528 H533 0.931 . S
C529 C528 1.351 . S
C529 N530 1.373 . S
C529 H557 0.930 . S
N530 C529 1.373 . S
N530 C532 1.340 . S
N531 C528 1.368 . S
N531 C532 1.321 . S
N531 Co534 2.135 . S
C532 N530 1.340 . S
C532 N531 1.321 . S
C532 H556 0.930 . S
H533 C528 0.931 . S
Co534 N531 2.135 . S
Co534 N537 2.121 . S
Co534 O542 2.055 . S
Co534 O545 2.039 . S
Co534 N548 2.140 . S
C535 O536 1.227 . S
C535 O545 1.265 . S
O536 C535 1.227 . S
N537 Co534 2.121 . S
N537 C539 1.375 . S
N537 C540 1.313 . S
C538 C539 1.338 . S
C538 N541 1.377 . S
C538 H558 0.930 . S
C539 N537 1.375 . S
C539 C538 1.338 . S
C539 H543 0.931 . S
C540 N537 1.313 . S
C540 N541 1.344 . S
C540 H544 0.930 . S
N541 C538 1.377 . S
N541 C540 1.344 . S
O542 Co534 2.055 . S
O542 C546 1.253 . S
H543 C539 0.931 . S
H544 C540 0.930 . S
O545 Co534 2.039 . S
O545 C535 1.265 . S
C546 O542 1.253 . S
C546 O547 1.227 . S
O547 C546 1.227 . S
N548 Co534 2.140 . S
N548 C551 1.346 . S
N548 C552 1.345 . S
C549 C550 1.387 . S
C549 C553 1.391 . S
C550 C549 1.387 . S
C550 C551 1.369 . S
C550 H559 0.929 . S
C551 N548 1.346 . S
C551 C550 1.369 . S
C551 H554 0.928 . S
C552 N548 1.345 . S
C552 C553 1.371 . S
C552 H555 0.931 . S
C553 C549 1.391 . S
C553 C552 1.371 . S
C553 H560 0.930 . S
H554 C551 0.928 . S
H555 C552 0.931 . S
H556 C532 0.930 . S
H557 C529 0.930 . S
H558 C538 0.930 . S
H559 C550 0.929 . S
H560 C553 0.930 . S
C561 C562 1.351 . S
C561 N564 1.368 . S
C561 H566 0.931 . S
C562 C561 1.351 . S
C562 N563 1.373 . S
C562 H590 0.930 . S
N563 C562 1.373 . S
N563 C565 1.340 . S
N564 C561 1.368 . S
N564 C565 1.321 . S
N564 Co567 2.135 . S
C565 N563 1.340 . S
C565 N564 1.321 . S
C565 H589 0.930 . S
H566 C561 0.931 . S
Co567 N564 2.135 . S
Co567 N570 2.121 . S
Co567 O575 2.055 . S
Co567 O578 2.039 . S
Co567 N581 2.140 . S
C568 O569 1.227 . S
C568 O578 1.265 . S
O569 C568 1.227 . S
N570 Co567 2.121 . S
N570 C572 1.375 . S
N570 C573 1.313 . S
C571 C572 1.338 . S
C571 N574 1.377 . S
C571 H591 0.930 . S
C572 N570 1.375 . S
C572 C571 1.338 . S
C572 H576 0.931 . S
C573 N570 1.313 . S
C573 N574 1.344 . S
C573 H577 0.930 . S
N574 C571 1.377 . S
N574 C573 1.344 . S
O575 Co567 2.055 . S
O575 C579 1.253 . S
H576 C572 0.931 . S
H577 C573 0.930 . S
O578 Co567 2.039 . S
O578 C568 1.265 . S
C579 O575 1.253 . S
C579 O580 1.227 . S
O580 C579 1.227 . S
N581 Co567 2.140 . S
N581 C584 1.346 . S
N581 C585 1.345 . S
C582 C583 1.387 . S
C582 C586 1.391 . S
C583 C582 1.387 . S
C583 C584 1.369 . S
C583 H592 0.929 . S
C584 N581 1.346 . S
C584 C583 1.369 . S
C584 H587 0.928 . S
C585 N581 1.345 . S
C585 C586 1.371 . S
C585 H588 0.931 . S
C586 C582 1.391 . S
C586 C585 1.371 . S
C586 H593 0.930 . S
H587 C584 0.928 . S
H588 C585 0.931 . S
H589 C565 0.930 . S
H590 C562 0.930 . S
H591 C571 0.930 . S
H592 C583 0.929 . S
H593 C586 0.930 . S
C594 C595 1.351 . S
C594 N597 1.368 . S
C594 H599 0.931 . S
C595 C594 1.351 . S
C595 N596 1.373 . S
C595 H623 0.930 1_556 S
N596 C595 1.373 . S
N596 C598 1.340 . S
N597 C594 1.368 . S
N597 C598 1.321 . S
N597 Co600 2.135 . S
C598 N596 1.340 . S
C598 N597 1.321 . S
C598 H622 0.930 . S
H599 C594 0.931 . S
Co600 N597 2.135 . S
Co600 N603 2.121 . S
Co600 O608 2.055 . S
Co600 O611 2.039 . S
Co600 N614 2.140 . S
C601 O602 1.227 . S
C601 O611 1.265 . S
O602 C601 1.227 . S
N603 Co600 2.121 . S
N603 C605 1.375 . S
N603 C606 1.313 . S
C604 C605 1.338 . S
C604 N607 1.377 . S
C604 H624 0.930 . S
C605 N603 1.375 . S
C605 C604 1.338 . S
C605 H609 0.931 . S
C606 N603 1.313 . S
C606 N607 1.344 . S
C606 H610 0.930 . S
N607 C604 1.377 . S
N607 C606 1.344 . S
O608 Co600 2.055 . S
O608 C612 1.253 . S
H609 C605 0.931 . S
H610 C606 0.930 . S
O611 Co600 2.039 . S
O611 C601 1.265 . S
C612 O608 1.253 . S
C612 O613 1.227 . S
O613 C612 1.227 . S
N614 Co600 2.140 . S
N614 C617 1.346 . S
N614 C618 1.345 . S
C615 C616 1.387 . S
C615 C619 1.391 . S
C616 C615 1.387 . S
C616 C617 1.369 . S
C616 H625 0.929 1_556 S
C617 N614 1.346 . S
C617 C616 1.369 . S
C617 H620 0.928 . S
C618 N614 1.345 . S
C618 C619 1.371 . S
C618 H621 0.931 . S
C619 C615 1.391 . S
C619 C618 1.371 . S
C619 H626 0.930 . S
H620 C617 0.928 . S
H621 C618 0.931 . S
H622 C598 0.930 . S
H623 C595 0.930 1_554 S
H624 C604 0.930 . S
H625 C616 0.929 1_554 S
H626 C619 0.930 . S
C627 C628 1.351 . S
C627 N630 1.368 . S
C627 H632 0.931 . S
C628 C627 1.351 . S
C628 N629 1.373 . S
C628 H656 0.930 . S
N629 C628 1.373 . S
N629 C631 1.340 . S
N630 C627 1.368 . S
N630 C631 1.321 . S
N630 Co633 2.135 . S
C631 N629 1.340 . S
C631 N630 1.321 . S
C631 H655 0.930 1_565 S
H632 C627 0.931 . S
Co633 N630 2.135 . S
Co633 N636 2.121 . S
Co633 O641 2.055 . S
Co633 O644 2.039 . S
Co633 N647 2.140 . S
C634 O635 1.227 . S
C634 O644 1.265 . S
O635 C634 1.227 . S
N636 Co633 2.121 . S
N636 C638 1.375 . S
N636 C639 1.313 . S
C637 C638 1.338 . S
C637 N640 1.377 . S
C637 H657 0.930 . S
C638 N636 1.375 . S
C638 C637 1.338 . S
C638 H642 0.931 . S
C639 N636 1.313 . S
C639 N640 1.344 . S
C639 H643 0.930 . S
N640 C637 1.377 . S
N640 C639 1.344 . S
O641 Co633 2.055 . S
O641 C645 1.253 . S
H642 C638 0.931 . S
H643 C639 0.930 . S
O644 Co633 2.039 . S
O644 C634 1.265 . S
C645 O641 1.253 . S
C645 O646 1.227 . S
O646 C645 1.227 . S
N647 Co633 2.140 . S
N647 C650 1.346 . S
N647 C651 1.345 . S
C648 C649 1.387 . S
C648 C652 1.391 . S
C649 C648 1.387 . S
C649 C650 1.369 . S
C649 H658 0.929 . S
C650 N647 1.346 . S
C650 C649 1.369 . S
C650 H653 0.928 . S
C651 N647 1.345 . S
C651 C652 1.371 . S
C651 H654 0.931 . S
C652 C648 1.391 . S
C652 C651 1.371 . S
C652 H659 0.930 . S
H653 C650 0.928 . S
H654 C651 0.931 . S
H655 C631 0.930 1_545 S
H656 C628 0.930 . S
H657 C637 0.930 . S
H658 C649 0.929 . S
H659 C652 0.930 . S
C660 C661 1.351 . S
C660 N663 1.368 . S
C660 H665 0.931 . S
C661 C660 1.351 . S
C661 N662 1.373 . S
C661 H689 0.930 . S
N662 C661 1.373 . S
N662 C664 1.340 . S
N663 C660 1.368 . S
N663 C664 1.321 . S
N663 Co666 2.135 . S
C664 N662 1.340 . S
C664 N663 1.321 . S
C664 H688 0.930 . S
H665 C660 0.931 . S
Co666 N663 2.135 . S
Co666 N669 2.121 . S
Co666 O674 2.055 . S
Co666 O677 2.039 . S
Co666 N680 2.140 . S
C667 O668 1.227 . S
C667 O677 1.265 . S
O668 C667 1.227 . S
N669 Co666 2.121 . S
N669 C671 1.375 . S
N669 C672 1.313 . S
C670 C671 1.338 . S
C670 N673 1.377 . S
C670 H690 0.930 . S
C671 N669 1.375 . S
C671 C670 1.338 . S
C671 H675 0.931 . S
C672 N669 1.313 . S
C672 N673 1.344 . S
C672 H676 0.930 . S
N673 C670 1.377 . S
N673 C672 1.344 . S
O674 Co666 2.055 . S
O674 C678 1.253 . S
H675 C671 0.931 . S
H676 C672 0.930 . S
O677 Co666 2.039 . S
O677 C667 1.265 . S
C678 O674 1.253 . S
C678 O679 1.227 . S
O679 C678 1.227 . S
N680 Co666 2.140 . S
N680 C683 1.346 . S
N680 C684 1.345 . S
C681 C682 1.387 . S
C681 C685 1.391 . S
C682 C681 1.387 . S
C682 C683 1.369 . S
C682 H691 0.929 . S
C683 N680 1.346 . S
C683 C682 1.369 . S
C683 H686 0.928 . S
C684 N680 1.345 . S
C684 C685 1.371 . S
C684 H687 0.931 . S
C685 C681 1.391 . S
C685 C684 1.371 . S
C685 H692 0.930 . S
H686 C683 0.928 . S
H687 C684 0.931 . S
H688 C664 0.930 . S
H689 C661 0.930 . S
H690 C670 0.930 . S
H691 C682 0.929 . S
H692 C685 0.930 . S
C693 C694 1.351 . S
C693 N696 1.368 . S
C693 H698 0.931 . S
C694 C693 1.351 . S
C694 N695 1.373 . S
C694 H722 0.930 . S
N695 C694 1.373 . S
N695 C697 1.340 . S
N696 C693 1.368 . S
N696 C697 1.321 . S
N696 Co699 2.135 . S
C697 N695 1.340 . S
C697 N696 1.321 . S
C697 H721 0.930 . S
H698 C693 0.931 . S
Co699 N696 2.135 . S
Co699 N702 2.121 . S
Co699 O707 2.055 . S
Co699 O710 2.039 . S
Co699 N713 2.140 . S
C700 O701 1.227 . S
C700 O710 1.265 . S
O701 C700 1.227 . S
N702 Co699 2.121 . S
N702 C704 1.375 . S
N702 C705 1.313 . S
C703 C704 1.338 . S
C703 N706 1.377 . S
C703 H723 0.930 . S
C704 N702 1.375 . S
C704 C703 1.338 . S
C704 H708 0.931 . S
C705 N702 1.313 . S
C705 N706 1.344 . S
C705 H709 0.930 . S
N706 C703 1.377 . S
N706 C705 1.344 . S
O707 Co699 2.055 . S
O707 C711 1.253 . S
H708 C704 0.931 . S
H709 C705 0.930 . S
O710 Co699 2.039 . S
O710 C700 1.265 . S
C711 O707 1.253 . S
C711 O712 1.227 . S
O712 C711 1.227 . S
N713 Co699 2.140 . S
N713 C716 1.346 . S
N713 C717 1.345 . S
C714 C715 1.387 . S
C714 C718 1.391 . S
C715 C714 1.387 . S
C715 C716 1.369 . S
C715 H724 0.929 . S
C716 N713 1.346 . S
C716 C715 1.369 . S
C716 H719 0.928 . S
C717 N713 1.345 . S
C717 C718 1.371 . S
C717 H720 0.931 . S
C718 C714 1.391 . S
C718 C717 1.371 . S
C718 H725 0.930 . S
H719 C716 0.928 . S
H720 C717 0.931 . S
H721 C697 0.930 . S
H722 C694 0.930 . S
H723 C703 0.930 . S
H724 C715 0.929 . S
H725 C718 0.930 . S
C726 C727 1.351 . S
C726 N729 1.368 . S
C726 H731 0.931 . S
C727 C726 1.351 . S
C727 N728 1.373 . S
C727 H755 0.930 . S
N728 C727 1.373 . S
N728 C730 1.340 . S
N729 C726 1.368 . S
N729 C730 1.321 . S
N729 Co732 2.135 . S
C730 N728 1.340 . S
C730 N729 1.321 . S
C730 H754 0.930 . S
H731 C726 0.931 . S
Co732 N729 2.135 . S
Co732 N735 2.121 . S
Co732 O740 2.055 . S
Co732 O743 2.039 . S
Co732 N746 2.140 . S
C733 O734 1.227 . S
C733 O743 1.265 . S
O734 C733 1.227 . S
N735 Co732 2.121 . S
N735 C737 1.375 . S
N735 C738 1.313 . S
C736 C737 1.338 . S
C736 N739 1.377 . S
C736 H756 0.930 . S
C737 N735 1.375 . S
C737 C736 1.338 . S
C737 H741 0.931 . S
C738 N735 1.313 . S
C738 N739 1.344 . S
C738 H742 0.930 . S
N739 C736 1.377 . S
N739 C738 1.344 . S
O740 Co732 2.055 . S
O740 C744 1.253 . S
H741 C737 0.931 . S
H742 C738 0.930 . S
O743 Co732 2.039 . S
O743 C733 1.265 . S
C744 O740 1.253 . S
C744 O745 1.227 . S
O745 C744 1.227 . S
N746 Co732 2.140 . S
N746 C749 1.346 . S
N746 C750 1.345 . S
C747 C748 1.387 . S
C747 C751 1.391 . S
C748 C747 1.387 . S
C748 C749 1.369 . S
C748 H757 0.929 . S
C749 N746 1.346 . S
C749 C748 1.369 . S
C749 H752 0.928 . S
C750 N746 1.345 . S
C750 C751 1.371 . S
C750 H753 0.931 . S
C751 C747 1.391 . S
C751 C750 1.371 . S
C751 H758 0.930 . S
H752 C749 0.928 . S
H753 C750 0.931 . S
H754 C730 0.930 . S
H755 C727 0.930 . S
H756 C736 0.930 . S
H757 C748 0.929 . S
H758 C751 0.930 . S
C759 C760 1.351 1_545 S
C759 N762 1.368 . S
C759 H764 0.931 1_545 S
C760 C759 1.351 1_565 S
C760 N761 1.373 1_565 S
C760 H788 0.930 . S
N761 C760 1.373 1_545 S
N761 C763 1.340 . S
N762 C759 1.368 . S
N762 C763 1.321 . S
N762 Co765 2.135 . S
C763 N761 1.340 . S
C763 N762 1.321 . S
C763 H787 0.930 . S
H764 C759 0.931 1_565 S
Co765 N762 2.135 . S
Co765 N768 2.121 . S
Co765 O773 2.055 . S
Co765 O776 2.039 . S
Co765 N779 2.140 . S
C766 O767 1.227 . S
C766 O776 1.265 . S
O767 C766 1.227 . S
N768 Co765 2.121 . S
N768 C770 1.375 . S
N768 C771 1.313 . S
C769 C770 1.338 . S
C769 N772 1.377 . S
C769 H789 0.930 . S
C770 N768 1.375 . S
C770 C769 1.338 . S
C770 H774 0.931 . S
C771 N768 1.313 . S
C771 N772 1.344 . S
C771 H775 0.930 . S
N772 C769 1.377 . S
N772 C771 1.344 . S
O773 Co765 2.055 . S
O773 C777 1.253 1_545 S
H774 C770 0.931 . S
H775 C771 0.930 . S
O776 Co765 2.039 . S
O776 C766 1.265 . S
C777 O773 1.253 1_565 S
C777 O778 1.227 1_565 S
O778 C777 1.227 1_545 S
N779 Co765 2.140 . S
N779 C782 1.346 . S
N779 C783 1.345 . S
C780 C781 1.387 . S
C780 C784 1.391 . S
C781 C780 1.387 . S
C781 C782 1.369 . S
C781 H790 0.929 . S
C782 N779 1.346 . S
C782 C781 1.369 . S
C782 H785 0.928 . S
C783 N779 1.345 . S
C783 C784 1.371 . S
C783 H786 0.931 . S
C784 C780 1.391 . S
C784 C783 1.371 . S
C784 H791 0.930 . S
H785 C782 0.928 . S
H786 C783 0.931 . S
H787 C763 0.930 . S
H788 C760 0.930 . S
H789 C769 0.930 . S
H790 C781 0.929 . S
H791 C784 0.930 . S
C792 C793 1.351 . S
C792 N795 1.368 . S
C792 H797 0.931 . S
C793 C792 1.351 . S
C793 N794 1.373 . S
C793 H821 0.930 . S
N794 C793 1.373 . S
N794 C796 1.340 . S
N795 C792 1.368 . S
N795 C796 1.321 . S
N795 Co798 2.135 . S
C796 N794 1.340 . S
C796 N795 1.321 . S
C796 H820 0.930 1_556 S
H797 C792 0.931 . S
Co798 N795 2.135 . S
Co798 N801 2.121 . S
Co798 O806 2.055 . S
Co798 O809 2.039 . S
Co798 N812 2.140 . S
C799 O800 1.227 . S
C799 O809 1.265 . S
O800 C799 1.227 . S
N801 Co798 2.121 . S
N801 C803 1.375 . S
N801 C804 1.313 . S
C802 C803 1.338 . S
C802 N805 1.377 . S
C802 H822 0.930 . S
C803 N801 1.375 . S
C803 C802 1.338 . S
C803 H807 0.931 . S
C804 N801 1.313 . S
C804 N805 1.344 . S
C804 H808 0.930 . S
N805 C802 1.377 . S
N805 C804 1.344 . S
O806 Co798 2.055 . S
O806 C810 1.253 . S
H807 C803 0.931 . S
H808 C804 0.930 . S
O809 Co798 2.039 . S
O809 C799 1.265 . S
C810 O806 1.253 . S
C810 O811 1.227 . S
O811 C810 1.227 . S
N812 Co798 2.140 . S
N812 C815 1.346 . S
N812 C816 1.345 . S
C813 C814 1.387 . S
C813 C817 1.391 . S
C814 C813 1.387 . S
C814 C815 1.369 . S
C814 H823 0.929 . S
C815 N812 1.346 . S
C815 C814 1.369 . S
C815 H818 0.928 . S
C816 N812 1.345 . S
C816 C817 1.371 . S
C816 H819 0.931 . S
C817 C813 1.391 . S
C817 C816 1.371 . S
C817 H824 0.930 . S
H818 C815 0.928 . S
H819 C816 0.931 . S
H820 C796 0.930 1_554 S
H821 C793 0.930 . S
H822 C802 0.930 . S
H823 C814 0.929 . S
H824 C817 0.930 . S
C825 C826 1.351 1_655 S
C825 N828 1.368 . S
C825 H830 0.931 1_655 S
C826 C825 1.351 1_455 S
C826 N827 1.373 1_455 S
C826 H854 0.930 1_545 S
N827 C826 1.373 1_655 S
N827 C829 1.340 . S
N828 C825 1.368 . S
N828 C829 1.321 . S
N828 Co831 2.135 . S
C829 N827 1.340 . S
C829 N828 1.321 . S
C829 H853 0.930 . S
H830 C825 0.931 1_455 S
Co831 N828 2.135 . S
Co831 N834 2.121 . S
Co831 O839 2.055 . S
Co831 O842 2.039 . S
Co831 N845 2.140 . S
C832 O833 1.227 . S
C832 O842 1.265 . S
O833 C832 1.227 . S
N834 Co831 2.121 . S
N834 C836 1.375 . S
N834 C837 1.313 . S
C835 C836 1.338 . S
C835 N838 1.377 . S
C835 H855 0.930 . S
C836 N834 1.375 . S
C836 C835 1.338 . S
C836 H840 0.931 . S
C837 N834 1.313 . S
C837 N838 1.344 . S
C837 H841 0.930 . S
N838 C835 1.377 . S
N838 C837 1.344 . S
O839 Co831 2.055 . S
O839 C843 1.253 1_655 S
H840 C836 0.931 . S
H841 C837 0.930 . S
O842 Co831 2.039 . S
O842 C832 1.265 . S
C843 O839 1.253 1_455 S
C843 O844 1.227 1_455 S
O844 C843 1.227 1_655 S
N845 Co831 2.140 . S
N845 C848 1.346 . S
N845 C849 1.345 . S
C846 C847 1.387 . S
C846 C850 1.391 . S
C847 C846 1.387 . S
C847 C848 1.369 . S
C847 H856 0.929 1_545 S
C848 N845 1.346 . S
C848 C847 1.369 . S
C848 H851 0.928 . S
C849 N845 1.345 . S
C849 C850 1.371 . S
C849 H852 0.931 . S
C850 C846 1.391 . S
C850 C849 1.371 . S
C850 H857 0.930 . S
H851 C848 0.928 . S
H852 C849 0.931 . S
H853 C829 0.930 . S
H854 C826 0.930 1_565 S
H855 C835 0.930 . S
H856 C847 0.929 1_565 S
H857 C850 0.930 . S
C858 C859 1.351 . S
C858 N861 1.368 . S
C858 H863 0.931 . S
C859 C858 1.351 . S
C859 N860 1.373 . S
C859 H887 0.930 . S
N860 C859 1.373 . S
N860 C862 1.340 . S
N861 C858 1.368 . S
N861 C862 1.321 . S
N861 Co864 2.135 . S
C862 N860 1.340 . S
C862 N861 1.321 . S
C862 H886 0.930 1_556 S
H863 C858 0.931 . S
Co864 N861 2.135 . S
Co864 N867 2.121 . S
Co864 O872 2.055 . S
Co864 O875 2.039 . S
Co864 N878 2.140 . S
C865 O866 1.227 . S
C865 O875 1.265 . S
O866 C865 1.227 . S
N867 Co864 2.121 . S
N867 C869 1.375 . S
N867 C870 1.313 . S
C868 C869 1.338 . S
C868 N871 1.377 . S
C868 H888 0.930 . S
C869 N867 1.375 . S
C869 C868 1.338 . S
C869 H873 0.931 . S
C870 N867 1.313 . S
C870 N871 1.344 . S
C870 H874 0.930 . S
N871 C868 1.377 . S
N871 C870 1.344 . S
O872 Co864 2.055 . S
O872 C876 1.253 . S
H873 C869 0.931 . S
H874 C870 0.930 . S
O875 Co864 2.039 . S
O875 C865 1.265 . S
C876 O872 1.253 . S
C876 O877 1.227 . S
O877 C876 1.227 . S
N878 Co864 2.140 . S
N878 C881 1.346 . S
N878 C882 1.345 . S
C879 C880 1.387 . S
C879 C883 1.391 . S
C880 C879 1.387 . S
C880 C881 1.369 . S
C880 H889 0.929 . S
C881 N878 1.346 . S
C881 C880 1.369 . S
C881 H884 0.928 . S
C882 N878 1.345 . S
C882 C883 1.371 . S
C882 H885 0.931 . S
C883 C879 1.391 . S
C883 C882 1.371 . S
C883 H890 0.930 . S
H884 C881 0.928 . S
H885 C882 0.931 . S
H886 C862 0.930 1_554 S
H887 C859 0.930 . S
H888 C868 0.930 . S
H889 C880 0.929 . S
H890 C883 0.930 . S
C891 C892 1.351 1_455 S
C891 N894 1.368 . S
C891 H896 0.931 1_455 S
C892 C891 1.351 1_655 S
C892 N893 1.373 1_655 S
C892 H920 0.930 . S
N893 C892 1.373 1_455 S
N893 C895 1.340 . S
N894 C891 1.368 . S
N894 C895 1.321 . S
N894 Co897 2.135 . S
C895 N893 1.340 . S
C895 N894 1.321 . S
C895 H919 0.930 . S
H896 C891 0.931 1_655 S
Co897 N894 2.135 . S
Co897 N900 2.121 . S
Co897 O905 2.055 . S
Co897 O908 2.039 . S
Co897 N911 2.140 . S
C898 O899 1.227 . S
C898 O908 1.265 . S
O899 C898 1.227 . S
N900 Co897 2.121 . S
N900 C902 1.375 . S
N900 C903 1.313 . S
C901 C902 1.338 . S
C901 N904 1.377 . S
C901 H921 0.930 . S
C902 N900 1.375 . S
C902 C901 1.338 . S
C902 H906 0.931 . S
C903 N900 1.313 . S
C903 N904 1.344 . S
C903 H907 0.930 . S
N904 C901 1.377 . S
N904 C903 1.344 . S
O905 Co897 2.055 . S
O905 C909 1.253 1_455 S
H906 C902 0.931 . S
H907 C903 0.930 . S
O908 Co897 2.039 . S
O908 C898 1.265 . S
C909 O905 1.253 1_655 S
C909 O910 1.227 1_655 S
O910 C909 1.227 1_455 S
N911 Co897 2.140 . S
N911 C914 1.346 . S
N911 C915 1.345 . S
C912 C913 1.387 . S
C912 C916 1.391 . S
C913 C912 1.387 . S
C913 C914 1.369 . S
C913 H922 0.929 . S
C914 N911 1.346 . S
C914 C913 1.369 . S
C914 H917 0.928 . S
C915 N911 1.345 . S
C915 C916 1.371 . S
C915 H918 0.931 . S
C916 C912 1.391 . S
C916 C915 1.371 . S
C916 H923 0.930 . S
H917 C914 0.928 . S
H918 C915 0.931 . S
H919 C895 0.930 . S
H920 C892 0.930 . S
H921 C901 0.930 . S
H922 C913 0.929 . S
H923 C916 0.930 . S
C924 C925 1.351 . S
C924 N927 1.368 . S
C924 H929 0.931 . S
C925 C924 1.351 . S
C925 N926 1.373 . S
C925 H953 0.930 . S
N926 C925 1.373 . S
N926 C928 1.340 . S
N927 C924 1.368 . S
N927 C928 1.321 . S
N927 Co930 2.135 . S
C928 N926 1.340 . S
C928 N927 1.321 . S
C928 H952 0.930 . S
H929 C924 0.931 . S
Co930 N927 2.135 . S
Co930 N933 2.121 . S
Co930 O938 2.055 . S
Co930 O941 2.039 . S
Co930 N944 2.140 . S
C931 O932 1.227 . S
C931 O941 1.265 . S
O932 C931 1.227 . S
N933 Co930 2.121 . S
N933 C935 1.375 . S
N933 C936 1.313 . S
C934 C935 1.338 . S
C934 N937 1.377 . S
C934 H954 0.930 . S
C935 N933 1.375 . S
C935 C934 1.338 . S
C935 H939 0.931 . S
C936 N933 1.313 . S
C936 N937 1.344 . S
C936 H940 0.930 . S
N937 C934 1.377 . S
N937 C936 1.344 . S
O938 Co930 2.055 . S
O938 C942 1.253 . S
H939 C935 0.931 . S
H940 C936 0.930 . S
O941 Co930 2.039 . S
O941 C931 1.265 . S
C942 O938 1.253 . S
C942 O943 1.227 . S
O943 C942 1.227 . S
N944 Co930 2.140 . S
N944 C947 1.346 . S
N944 C948 1.345 . S
C945 C946 1.387 . S
C945 C949 1.391 . S
C946 C945 1.387 . S
C946 C947 1.369 . S
C946 H955 0.929 . S
C947 N944 1.346 . S
C947 C946 1.369 . S
C947 H950 0.928 . S
C948 N944 1.345 . S
C948 C949 1.371 . S
C948 H951 0.931 . S
C949 C945 1.391 . S
C949 C948 1.371 . S
C949 H956 0.930 . S
H950 C947 0.928 . S
H951 C948 0.931 . S
H952 C928 0.930 . S
H953 C925 0.930 . S
H954 C934 0.930 . S
H955 C946 0.929 . S
H956 C949 0.930 . S
C957 C958 1.351 . S
C957 N960 1.368 . S
C957 H962 0.931 . S
C958 C957 1.351 . S
C958 N959 1.373 . S
C958 H986 0.930 1_545 S
N959 C958 1.373 . S
N959 C961 1.340 . S
N960 C957 1.368 . S
N960 C961 1.321 . S
N960 Co963 2.135 . S
C961 N959 1.340 . S
C961 N960 1.321 . S
C961 H985 0.930 . S
H962 C957 0.931 . S
Co963 N960 2.135 . S
Co963 N966 2.121 . S
Co963 O971 2.055 . S
Co963 O974 2.039 . S
Co963 N977 2.140 . S
C964 O965 1.227 . S
C964 O974 1.265 . S
O965 C964 1.227 . S
N966 Co963 2.121 . S
N966 C968 1.375 . S
N966 C969 1.313 . S
C967 C968 1.338 . S
C967 N970 1.377 . S
C967 H987 0.930 . S
C968 N966 1.375 . S
C968 C967 1.338 . S
C968 H972 0.931 . S
C969 N966 1.313 . S
C969 N970 1.344 . S
C969 H973 0.930 . S
N970 C967 1.377 . S
N970 C969 1.344 . S
O971 Co963 2.055 . S
O971 C975 1.253 . S
H972 C968 0.931 . S
H973 C969 0.930 . S
O974 Co963 2.039 . S
O974 C964 1.265 . S
C975 O971 1.253 . S
C975 O976 1.227 . S
O976 C975 1.227 . S
N977 Co963 2.140 . S
N977 C980 1.346 . S
N977 C981 1.345 . S
C978 C979 1.387 . S
C978 C982 1.391 . S
C979 C978 1.387 . S
C979 C980 1.369 . S
C979 H988 0.929 1_545 S
C980 N977 1.346 . S
C980 C979 1.369 . S
C980 H983 0.928 . S
C981 N977 1.345 . S
C981 C982 1.371 . S
C981 H984 0.931 . S
C982 C978 1.391 . S
C982 C981 1.371 . S
C982 H989 0.930 . S
H983 C980 0.928 . S
H984 C981 0.931 . S
H985 C961 0.930 . S
H986 C958 0.930 1_565 S
H987 C967 0.930 . S
H988 C979 0.929 1_565 S
H989 C982 0.930 . S
C990 C991 1.351 . S
C990 N993 1.368 . S
C990 H995 0.931 . S
C991 C990 1.351 . S
C991 N992 1.373 . S
C991 H1019 0.930 . S
N992 C991 1.373 . S
N992 C994 1.340 . S
N993 C990 1.368 . S
N993 C994 1.321 . S
N993 Co996 2.135 . S
C994 N992 1.340 . S
C994 N993 1.321 . S
C994 H1018 0.930 . S
H995 C990 0.931 . S
Co996 N993 2.135 . S
Co996 N999 2.121 . S
Co996 O1004 2.055 . S
Co996 O1007 2.039 . S
Co996 N1010 2.140 . S
C997 O998 1.227 . S
C997 O1007 1.265 . S
O998 C997 1.227 . S
N999 Co996 2.121 . S
N999 C1001 1.375 . S
N999 C1002 1.313 . S
C1000 C1001 1.338 . S
C1000 N1003 1.377 . S
C1000 H1020 0.930 . S
C1001 N999 1.375 . S
C1001 C1000 1.338 . S
C1001 H1005 0.931 . S
C1002 N999 1.313 . S
C1002 N1003 1.344 . S
C1002 H1006 0.930 . S
N1003 C1000 1.377 . S
N1003 C1002 1.344 . S
O1004 Co996 2.055 . S
O1004 C1008 1.253 . S
H1005 C1001 0.931 . S
H1006 C1002 0.930 . S
O1007 Co996 2.039 . S
O1007 C997 1.265 . S
C1008 O1004 1.253 . S
C1008 O1009 1.227 . S
O1009 C1008 1.227 . S
N1010 Co996 2.140 . S
N1010 C1013 1.346 . S
N1010 C1014 1.345 . S
C1011 C1012 1.387 . S
C1011 C1015 1.391 . S
C1012 C1011 1.387 . S
C1012 C1013 1.369 . S
C1012 H1021 0.929 . S
C1013 N1010 1.346 . S
C1013 C1012 1.369 . S
C1013 H1016 0.928 . S
C1014 N1010 1.345 . S
C1014 C1015 1.371 . S
C1014 H1017 0.931 . S
C1015 C1011 1.391 . S
C1015 C1014 1.371 . S
C1015 H1022 0.930 . S
H1016 C1013 0.928 . S
H1017 C1014 0.931 . S
H1018 C994 0.930 . S
H1019 C991 0.930 . S
H1020 C1000 0.930 . S
H1021 C1012 0.929 . S
H1022 C1015 0.930 . S
C1023 C1024 1.351 . S
C1023 N1026 1.368 . S
C1023 H1028 0.931 . S
C1024 C1023 1.351 . S
C1024 N1025 1.373 . S
C1024 H1052 0.930 . S
N1025 C1024 1.373 . S
N1025 C1027 1.340 . S
N1026 C1023 1.368 . S
N1026 C1027 1.321 . S
N1026 Co1029 2.135 . S
C1027 N1025 1.340 . S
C1027 N1026 1.321 . S
C1027 H1051 0.930 . S
H1028 C1023 0.931 . S
Co1029 N1026 2.135 . S
Co1029 N1032 2.121 . S
Co1029 O1037 2.055 . S
Co1029 O1040 2.039 . S
Co1029 N1043 2.140 . S
C1030 O1031 1.227 . S
C1030 O1040 1.265 . S
O1031 C1030 1.227 . S
N1032 Co1029 2.121 . S
N1032 C1034 1.375 . S
N1032 C1035 1.313 . S
C1033 C1034 1.338 . S
C1033 N1036 1.377 . S
C1033 H1053 0.930 . S
C1034 N1032 1.375 . S
C1034 C1033 1.338 . S
C1034 H1038 0.931 . S
C1035 N1032 1.313 . S
C1035 N1036 1.344 . S
C1035 H1039 0.930 . S
N1036 C1033 1.377 . S
N1036 C1035 1.344 . S
O1037 Co1029 2.055 . S
O1037 C1041 1.253 . S
H1038 C1034 0.931 . S
H1039 C1035 0.930 . S
O1040 Co1029 2.039 . S
O1040 C1030 1.265 . S
C1041 O1037 1.253 . S
C1041 O1042 1.227 . S
O1042 C1041 1.227 . S
N1043 Co1029 2.140 . S
N1043 C1046 1.346 . S
N1043 C1047 1.345 . S
C1044 C1045 1.387 . S
C1044 C1048 1.391 . S
C1045 C1044 1.387 . S
C1045 C1046 1.369 . S
C1045 H1054 0.929 . S
C1046 N1043 1.346 . S
C1046 C1045 1.369 . S
C1046 H1049 0.928 . S
C1047 N1043 1.345 . S
C1047 C1048 1.371 . S
C1047 H1050 0.931 . S
C1048 C1044 1.391 . S
C1048 C1047 1.371 . S
C1048 H1055 0.930 . S
H1049 C1046 0.928 . S
H1050 C1047 0.931 . S
H1051 C1027 0.930 . S
H1052 C1024 0.930 . S
H1053 C1033 0.930 . S
H1054 C1045 0.929 . S
H1055 C1048 0.930 . S
C1056 C1057 1.351 . S
C1056 N1059 1.368 . S
C1056 H1061 0.931 . S
C1057 C1056 1.351 . S
C1057 N1058 1.373 . S
C1057 H1085 0.930 . S
N1058 C1057 1.373 . S
N1058 C1060 1.340 . S
N1059 C1056 1.368 . S
N1059 C1060 1.321 . S
N1059 Co1062 2.135 . S
C1060 N1058 1.340 . S
C1060 N1059 1.321 . S
C1060 H1084 0.930 1_655 S
H1061 C1056 0.931 . S
Co1062 N1059 2.135 . S
Co1062 N1065 2.121 . S
Co1062 O1070 2.055 . S
Co1062 O1073 2.039 . S
Co1062 N1076 2.140 . S
C1063 O1064 1.227 . S
C1063 O1073 1.265 . S
O1064 C1063 1.227 . S
N1065 Co1062 2.121 . S
N1065 C1067 1.375 . S
N1065 C1068 1.313 . S
C1066 C1067 1.338 . S
C1066 N1069 1.377 . S
C1066 H1086 0.930 . S
C1067 N1065 1.375 . S
C1067 C1066 1.338 . S
C1067 H1071 0.931 . S
C1068 N1065 1.313 . S
C1068 N1069 1.344 . S
C1068 H1072 0.930 . S
N1069 C1066 1.377 . S
N1069 C1068 1.344 . S
O1070 Co1062 2.055 . S
O1070 C1074 1.253 . S
H1071 C1067 0.931 . S
H1072 C1068 0.930 . S
O1073 Co1062 2.039 . S
O1073 C1063 1.265 . S
C1074 O1070 1.253 . S
C1074 O1075 1.227 . S
O1075 C1074 1.227 . S
N1076 Co1062 2.140 . S
N1076 C1079 1.346 . S
N1076 C1080 1.345 . S
C1077 C1078 1.387 . S
C1077 C1081 1.391 . S
C1078 C1077 1.387 . S
C1078 C1079 1.369 . S
C1078 H1087 0.929 . S
C1079 N1076 1.346 . S
C1079 C1078 1.369 . S
C1079 H1082 0.928 . S
C1080 N1076 1.345 . S
C1080 C1081 1.371 . S
C1080 H1083 0.931 . S
C1081 C1077 1.391 . S
C1081 C1080 1.371 . S
C1081 H1088 0.930 . S
H1082 C1079 0.928 . S
H1083 C1080 0.931 . S
H1084 C1060 0.930 1_455 S
H1085 C1057 0.930 . S
H1086 C1066 0.930 . S
H1087 C1078 0.929 . S
H1088 C1081 0.930 . S
C1089 C1090 1.351 . S
C1089 N1092 1.368 . S
C1089 H1094 0.931 . S
C1090 C1089 1.351 . S
C1090 N1091 1.373 . S
C1090 H1118 0.930 1_655 S
N1091 C1090 1.373 . S
N1091 C1093 1.340 . S
N1092 C1089 1.368 . S
N1092 C1093 1.321 . S
N1092 Co1095 2.135 . S
C1093 N1091 1.340 . S
C1093 N1092 1.321 . S
C1093 H1117 0.930 . S
H1094 C1089 0.931 . S
Co1095 N1092 2.135 . S
Co1095 N1098 2.121 . S
Co1095 O1103 2.055 . S
Co1095 O1106 2.039 . S
Co1095 N1109 2.140 . S
C1096 O1097 1.227 . S
C1096 O1106 1.265 . S
O1097 C1096 1.227 . S
N1098 Co1095 2.121 . S
N1098 C1100 1.375 . S
N1098 C1101 1.313 . S
C1099 C1100 1.338 . S
C1099 N1102 1.377 . S
C1099 H1119 0.930 . S
C1100 N1098 1.375 . S
C1100 C1099 1.338 . S
C1100 H1104 0.931 . S
C1101 N1098 1.313 . S
C1101 N1102 1.344 . S
C1101 H1105 0.930 . S
N1102 C1099 1.377 . S
N1102 C1101 1.344 . S
O1103 Co1095 2.055 . S
O1103 C1107 1.253 . S
H1104 C1100 0.931 . S
H1105 C1101 0.930 . S
O1106 Co1095 2.039 . S
O1106 C1096 1.265 . S
C1107 O1103 1.253 . S
C1107 O1108 1.227 . S
O1108 C1107 1.227 . S
N1109 Co1095 2.140 . S
N1109 C1112 1.346 . S
N1109 C1113 1.345 . S
C1110 C1111 1.387 . S
C1110 C1114 1.391 . S
C1111 C1110 1.387 . S
C1111 C1112 1.369 . S
C1111 H1120 0.929 1_655 S
C1112 N1109 1.346 . S
C1112 C1111 1.369 . S
C1112 H1115 0.928 . S
C1113 N1109 1.345 . S
C1113 C1114 1.371 . S
C1113 H1116 0.931 . S
C1114 C1110 1.391 . S
C1114 C1113 1.371 . S
C1114 H1121 0.930 . S
H1115 C1112 0.928 . S
H1116 C1113 0.931 . S
H1117 C1093 0.930 . S
H1118 C1090 0.930 1_455 S
H1119 C1099 0.930 . S
H1120 C1111 0.929 1_455 S
H1121 C1114 0.930 . S
C1122 C1123 1.351 . S
C1122 N1125 1.368 . S
C1122 H1127 0.931 . S
C1123 C1122 1.351 . S
C1123 N1124 1.373 . S
C1123 H1151 0.930 . S
N1124 C1123 1.373 . S
N1124 C1126 1.340 . S
N1125 C1122 1.368 . S
N1125 C1126 1.321 . S
N1125 Co1128 2.135 . S
C1126 N1124 1.340 . S
C1126 N1125 1.321 . S
C1126 H1150 0.930 1_455 S
H1127 C1122 0.931 . S
Co1128 N1125 2.135 . S
Co1128 N1131 2.121 . S
Co1128 O1136 2.055 . S
Co1128 O1139 2.039 . S
Co1128 N1142 2.140 . S
C1129 O1130 1.227 . S
C1129 O1139 1.265 . S
O1130 C1129 1.227 . S
N1131 Co1128 2.121 . S
N1131 C1133 1.375 . S
N1131 C1134 1.313 . S
C1132 C1133 1.338 . S
C1132 N1135 1.377 . S
C1132 H1152 0.930 . S
C1133 N1131 1.375 . S
C1133 C1132 1.338 . S
C1133 H1137 0.931 . S
C1134 N1131 1.313 . S
C1134 N1135 1.344 . S
C1134 H1138 0.930 . S
N1135 C1132 1.377 . S
N1135 C1134 1.344 . S
O1136 Co1128 2.055 . S
O1136 C1140 1.253 . S
H1137 C1133 0.931 . S
H1138 C1134 0.930 . S
O1139 Co1128 2.039 . S
O1139 C1129 1.265 . S
C1140 O1136 1.253 . S
C1140 O1141 1.227 . S
O1141 C1140 1.227 . S
N1142 Co1128 2.140 . S
N1142 C1145 1.346 . S
N1142 C1146 1.345 . S
C1143 C1144 1.387 . S
C1143 C1147 1.391 . S
C1144 C1143 1.387 . S
C1144 C1145 1.369 . S
C1144 H1153 0.929 . S
C1145 N1142 1.346 . S
C1145 C1144 1.369 . S
C1145 H1148 0.928 . S
C1146 N1142 1.345 . S
C1146 C1147 1.371 . S
C1146 H1149 0.931 . S
C1147 C1143 1.391 . S
C1147 C1146 1.371 . S
C1147 H1154 0.930 . S
H1148 C1145 0.928 . S
H1149 C1146 0.931 . S
H1150 C1126 0.930 1_655 S
H1151 C1123 0.930 . S
H1152 C1132 0.930 . S
H1153 C1144 0.929 . S
H1154 C1147 0.930 . S
C1155 C1156 1.351 . S
C1155 N1158 1.368 . S
C1155 H1160 0.931 . S
C1156 C1155 1.351 . S
C1156 N1157 1.373 . S
C1156 H1184 0.930 1_455 S
N1157 C1156 1.373 . S
N1157 C1159 1.340 . S
N1158 C1155 1.368 . S
N1158 C1159 1.321 . S
N1158 Co1161 2.135 . S
C1159 N1157 1.340 . S
C1159 N1158 1.321 . S
C1159 H1183 0.930 . S
H1160 C1155 0.931 . S
Co1161 N1158 2.135 . S
Co1161 N1164 2.121 . S
Co1161 O1169 2.055 . S
Co1161 O1172 2.039 . S
Co1161 N1175 2.140 . S
C1162 O1163 1.227 . S
C1162 O1172 1.265 . S
O1163 C1162 1.227 . S
N1164 Co1161 2.121 . S
N1164 C1166 1.375 . S
N1164 C1167 1.313 . S
C1165 C1166 1.338 . S
C1165 N1168 1.377 . S
C1165 H1185 0.930 . S
C1166 N1164 1.375 . S
C1166 C1165 1.338 . S
C1166 H1170 0.931 . S
C1167 N1164 1.313 . S
C1167 N1168 1.344 . S
C1167 H1171 0.930 . S
N1168 C1165 1.377 . S
N1168 C1167 1.344 . S
O1169 Co1161 2.055 . S
O1169 C1173 1.253 . S
H1170 C1166 0.931 . S
H1171 C1167 0.930 . S
O1172 Co1161 2.039 . S
O1172 C1162 1.265 . S
C1173 O1169 1.253 . S
C1173 O1174 1.227 . S
O1174 C1173 1.227 . S
N1175 Co1161 2.140 . S
N1175 C1178 1.346 . S
N1175 C1179 1.345 . S
C1176 C1177 1.387 . S
C1176 C1180 1.391 . S
C1177 C1176 1.387 . S
C1177 C1178 1.369 . S
C1177 H1186 0.929 1_455 S
C1178 N1175 1.346 . S
C1178 C1177 1.369 . S
C1178 H1181 0.928 . S
C1179 N1175 1.345 . S
C1179 C1180 1.371 . S
C1179 H1182 0.931 . S
C1180 C1176 1.391 . S
C1180 C1179 1.371 . S
C1180 H1187 0.930 . S
H1181 C1178 0.928 . S
H1182 C1179 0.931 . S
H1183 C1159 0.930 . S
H1184 C1156 0.930 1_655 S
H1185 C1165 0.930 . S
H1186 C1177 0.929 1_655 S
H1187 C1180 0.930 . S
C1188 C1189 1.351 . S
C1188 N1191 1.368 . S
C1188 H1193 0.931 . S
C1189 C1188 1.351 . S
C1189 N1190 1.373 . S
C1189 H1217 0.930 . S
N1190 C1189 1.373 . S
N1190 C1192 1.340 . S
N1191 C1188 1.368 . S
N1191 C1192 1.321 . S
N1191 Co1194 2.135 . S
C1192 N1190 1.340 . S
C1192 N1191 1.321 . S
C1192 H1216 0.930 1_655 S
H1193 C1188 0.931 . S
Co1194 N1191 2.135 . S
Co1194 N1197 2.121 . S
Co1194 O1202 2.055 . S
Co1194 O1205 2.039 . S
Co1194 N1208 2.140 . S
C1195 O1196 1.227 . S
C1195 O1205 1.265 . S
O1196 C1195 1.227 . S
N1197 Co1194 2.121 . S
N1197 C1199 1.375 . S
N1197 C1200 1.313 . S
C1198 C1199 1.338 . S
C1198 N1201 1.377 . S
C1198 H1218 0.930 . S
C1199 N1197 1.375 . S
C1199 C1198 1.338 . S
C1199 H1203 0.931 . S
C1200 N1197 1.313 . S
C1200 N1201 1.344 . S
C1200 H1204 0.930 . S
N1201 C1198 1.377 . S
N1201 C1200 1.344 . S
O1202 Co1194 2.055 . S
O1202 C1206 1.253 . S
H1203 C1199 0.931 . S
H1204 C1200 0.930 . S
O1205 Co1194 2.039 . S
O1205 C1195 1.265 . S
C1206 O1202 1.253 . S
C1206 O1207 1.227 . S
O1207 C1206 1.227 . S
N1208 Co1194 2.140 . S
N1208 C1211 1.346 . S
N1208 C1212 1.345 . S
C1209 C1210 1.387 . S
C1209 C1213 1.391 . S
C1210 C1209 1.387 . S
C1210 C1211 1.369 . S
C1210 H1219 0.929 . S
C1211 N1208 1.346 . S
C1211 C1210 1.369 . S
C1211 H1214 0.928 . S
C1212 N1208 1.345 . S
C1212 C1213 1.371 . S
C1212 H1215 0.931 . S
C1213 C1209 1.391 . S
C1213 C1212 1.371 . S
C1213 H1220 0.930 . S
H1214 C1211 0.928 . S
H1215 C1212 0.931 . S
H1216 C1192 0.930 1_455 S
H1217 C1189 0.930 . S
H1218 C1198 0.930 . S
H1219 C1210 0.929 . S
H1220 C1213 0.930 . S
C1221 C1222 1.351 . S
C1221 N1224 1.368 . S
C1221 H1226 0.931 . S
C1222 C1221 1.351 . S
C1222 N1223 1.373 . S
C1222 H1250 0.930 . S
N1223 C1222 1.373 . S
N1223 C1225 1.340 . S
N1224 C1221 1.368 . S
N1224 C1225 1.321 . S
N1224 Co1227 2.135 . S
C1225 N1223 1.340 . S
C1225 N1224 1.321 . S
C1225 H1249 0.930 . S
H1226 C1221 0.931 . S
Co1227 N1224 2.135 . S
Co1227 N1230 2.121 . S
Co1227 O1235 2.055 . S
Co1227 O1238 2.039 . S
Co1227 N1241 2.140 . S
C1228 O1229 1.227 . S
C1228 O1238 1.265 . S
O1229 C1228 1.227 . S
N1230 Co1227 2.121 . S
N1230 C1232 1.375 . S
N1230 C1233 1.313 . S
C1231 C1232 1.338 . S
C1231 N1234 1.377 . S
C1231 H1251 0.930 . S
C1232 N1230 1.375 . S
C1232 C1231 1.338 . S
C1232 H1236 0.931 . S
C1233 N1230 1.313 . S
C1233 N1234 1.344 . S
C1233 H1237 0.930 . S
N1234 C1231 1.377 . S
N1234 C1233 1.344 . S
O1235 Co1227 2.055 . S
O1235 C1239 1.253 . S
H1236 C1232 0.931 . S
H1237 C1233 0.930 . S
O1238 Co1227 2.039 . S
O1238 C1228 1.265 . S
C1239 O1235 1.253 . S
C1239 O1240 1.227 . S
O1240 C1239 1.227 . S
N1241 Co1227 2.140 . S
N1241 C1244 1.346 . S
N1241 C1245 1.345 . S
C1242 C1243 1.387 . S
C1242 C1246 1.391 . S
C1243 C1242 1.387 . S
C1243 C1244 1.369 . S
C1243 H1252 0.929 . S
C1244 N1241 1.346 . S
C1244 C1243 1.369 . S
C1244 H1247 0.928 . S
C1245 N1241 1.345 . S
C1245 C1246 1.371 . S
C1245 H1248 0.931 . S
C1246 C1242 1.391 . S
C1246 C1245 1.371 . S
C1246 H1253 0.930 . S
H1247 C1244 0.928 . S
H1248 C1245 0.931 . S
H1249 C1225 0.930 . S
H1250 C1222 0.930 . S
H1251 C1231 0.930 . S
H1252 C1243 0.929 . S
H1253 C1246 0.930 . S
C1254 C1255 1.351 . S
C1254 N1257 1.368 . S
C1254 H1259 0.931 . S
C1255 C1254 1.351 . S
C1255 N1256 1.373 . S
C1255 H1283 0.930 . S
N1256 C1255 1.373 . S
N1256 C1258 1.340 . S
N1257 C1254 1.368 . S
N1257 C1258 1.321 . S
N1257 Co1260 2.135 . S
C1258 N1256 1.340 . S
C1258 N1257 1.321 . S
C1258 H1282 0.930 1_455 S
H1259 C1254 0.931 . S
Co1260 N1257 2.135 . S
Co1260 N1263 2.121 . S
Co1260 O1268 2.055 . S
Co1260 O1271 2.039 . S
Co1260 N1274 2.140 . S
C1261 O1262 1.227 . S
C1261 O1271 1.265 . S
O1262 C1261 1.227 . S
N1263 Co1260 2.121 . S
N1263 C1265 1.375 . S
N1263 C1266 1.313 . S
C1264 C1265 1.338 . S
C1264 N1267 1.377 . S
C1264 H1284 0.930 . S
C1265 N1263 1.375 . S
C1265 C1264 1.338 . S
C1265 H1269 0.931 . S
C1266 N1263 1.313 . S
C1266 N1267 1.344 . S
C1266 H1270 0.930 . S
N1267 C1264 1.377 . S
N1267 C1266 1.344 . S
O1268 Co1260 2.055 . S
O1268 C1272 1.253 . S
H1269 C1265 0.931 . S
H1270 C1266 0.930 . S
O1271 Co1260 2.039 . S
O1271 C1261 1.265 . S
C1272 O1268 1.253 . S
C1272 O1273 1.227 . S
O1273 C1272 1.227 . S
N1274 Co1260 2.140 . S
N1274 C1277 1.346 . S
N1274 C1278 1.345 . S
C1275 C1276 1.387 . S
C1275 C1279 1.391 . S
C1276 C1275 1.387 . S
C1276 C1277 1.369 . S
C1276 H1285 0.929 . S
C1277 N1274 1.346 . S
C1277 C1276 1.369 . S
C1277 H1280 0.928 . S
C1278 N1274 1.345 . S
C1278 C1279 1.371 . S
C1278 H1281 0.931 . S
C1279 C1275 1.391 . S
C1279 C1278 1.371 . S
C1279 H1286 0.930 . S
H1280 C1277 0.928 . S
H1281 C1278 0.931 . S
H1282 C1258 0.930 1_655 S
H1283 C1255 0.930 . S
H1284 C1264 0.930 . S
H1285 C1276 0.929 . S
H1286 C1279 0.930 . S
C1287 C1288 1.351 . S
C1287 N1290 1.368 . S
C1287 H1292 0.931 . S
C1288 C1287 1.351 . S
C1288 N1289 1.373 . S
C1288 H1316 0.930 . S
N1289 C1288 1.373 . S
N1289 C1291 1.340 . S
N1290 C1287 1.368 . S
N1290 C1291 1.321 . S
N1290 Co1293 2.135 . S
C1291 N1289 1.340 . S
C1291 N1290 1.321 . S
C1291 H1315 0.930 . S
H1292 C1287 0.931 . S
Co1293 N1290 2.135 . S
Co1293 N1296 2.121 . S
Co1293 O1301 2.055 . S
Co1293 O1304 2.039 . S
Co1293 N1307 2.140 . S
C1294 O1295 1.227 . S
C1294 O1304 1.265 . S
O1295 C1294 1.227 . S
N1296 Co1293 2.121 . S
N1296 C1298 1.375 . S
N1296 C1299 1.313 . S
C1297 C1298 1.338 . S
C1297 N1300 1.377 . S
C1297 H1317 0.930 . S
C1298 N1296 1.375 . S
C1298 C1297 1.338 . S
C1298 H1302 0.931 . S
C1299 N1296 1.313 . S
C1299 N1300 1.344 . S
C1299 H1303 0.930 . S
N1300 C1297 1.377 . S
N1300 C1299 1.344 . S
O1301 Co1293 2.055 . S
O1301 C1305 1.253 . S
H1302 C1298 0.931 . S
H1303 C1299 0.930 . S
O1304 Co1293 2.039 . S
O1304 C1294 1.265 . S
C1305 O1301 1.253 . S
C1305 O1306 1.227 . S
O1306 C1305 1.227 . S
N1307 Co1293 2.140 . S
N1307 C1310 1.346 . S
N1307 C1311 1.345 . S
C1308 C1309 1.387 . S
C1308 C1312 1.391 . S
C1309 C1308 1.387 . S
C1309 C1310 1.369 . S
C1309 H1318 0.929 . S
C1310 N1307 1.346 . S
C1310 C1309 1.369 . S
C1310 H1313 0.928 . S
C1311 N1307 1.345 . S
C1311 C1312 1.371 . S
C1311 H1314 0.931 . S
C1312 C1308 1.391 . S
C1312 C1311 1.371 . S
C1312 H1319 0.930 . S
H1313 C1310 0.928 . S
H1314 C1311 0.931 . S
H1315 C1291 0.930 . S
H1316 C1288 0.930 . S
H1317 C1297 0.930 . S
H1318 C1309 0.929 . S
H1319 C1312 0.930 . S
C1320 C1321 1.351 . S
C1320 N1323 1.368 . S
C1320 H1325 0.931 . S
C1321 C1320 1.351 . S
C1321 N1322 1.373 . S
C1321 H1349 0.930 . S
N1322 C1321 1.373 . S
N1322 C1324 1.340 . S
N1323 C1320 1.368 . S
N1323 C1324 1.321 . S
N1323 Co1326 2.135 . S
C1324 N1322 1.340 . S
C1324 N1323 1.321 . S
C1324 H1348 0.930 1_565 S
H1325 C1320 0.931 . S
Co1326 N1323 2.135 . S
Co1326 N1329 2.121 . S
Co1326 O1334 2.055 . S
Co1326 O1337 2.039 . S
Co1326 N1340 2.140 . S
C1327 O1328 1.227 . S
C1327 O1337 1.265 . S
O1328 C1327 1.227 . S
N1329 Co1326 2.121 . S
N1329 C1331 1.375 . S
N1329 C1332 1.313 . S
C1330 C1331 1.338 . S
C1330 N1333 1.377 . S
C1330 H1350 0.930 . S
C1331 N1329 1.375 . S
C1331 C1330 1.338 . S
C1331 H1335 0.931 . S
C1332 N1329 1.313 . S
C1332 N1333 1.344 . S
C1332 H1336 0.930 . S
N1333 C1330 1.377 . S
N1333 C1332 1.344 . S
O1334 Co1326 2.055 . S
O1334 C1338 1.253 . S
H1335 C1331 0.931 . S
H1336 C1332 0.930 . S
O1337 Co1326 2.039 . S
O1337 C1327 1.265 . S
C1338 O1334 1.253 . S
C1338 O1339 1.227 . S
O1339 C1338 1.227 . S
N1340 Co1326 2.140 . S
N1340 C1343 1.346 . S
N1340 C1344 1.345 . S
C1341 C1342 1.387 . S
C1341 C1345 1.391 . S
C1342 C1341 1.387 . S
C1342 C1343 1.369 . S
C1342 H1351 0.929 . S
C1343 N1340 1.346 . S
C1343 C1342 1.369 . S
C1343 H1346 0.928 . S
C1344 N1340 1.345 . S
C1344 C1345 1.371 . S
C1344 H1347 0.931 . S
C1345 C1341 1.391 . S
C1345 C1344 1.371 . S
C1345 H1352 0.930 . S
H1346 C1343 0.928 . S
H1347 C1344 0.931 . S
H1348 C1324 0.930 1_545 S
H1349 C1321 0.930 . S
H1350 C1330 0.930 . S
H1351 C1342 0.929 . S
H1352 C1345 0.930 . S
C1353 C1354 1.351 . S
C1353 N1356 1.368 . S
C1353 H1358 0.931 . S
C1354 C1353 1.351 . S
C1354 N1355 1.373 . S
C1354 H1382 0.930 . S
N1355 C1354 1.373 . S
N1355 C1357 1.340 . S
N1356 C1353 1.368 . S
N1356 C1357 1.321 . S
N1356 Co1359 2.135 . S
C1357 N1355 1.340 . S
C1357 N1356 1.321 . S
C1357 H1381 0.930 1_545 S
H1358 C1353 0.931 . S
Co1359 N1356 2.135 . S
Co1359 N1362 2.121 . S
Co1359 O1367 2.055 . S
Co1359 O1370 2.039 . S
Co1359 N1373 2.140 . S
C1360 O1361 1.227 . S
C1360 O1370 1.265 . S
O1361 C1360 1.227 . S
N1362 Co1359 2.121 . S
N1362 C1364 1.375 . S
N1362 C1365 1.313 . S
C1363 C1364 1.338 . S
C1363 N1366 1.377 . S
C1363 H1383 0.930 . S
C1364 N1362 1.375 . S
C1364 C1363 1.338 . S
C1364 H1368 0.931 . S
C1365 N1362 1.313 . S
C1365 N1366 1.344 . S
C1365 H1369 0.930 . S
N1366 C1363 1.377 . S
N1366 C1365 1.344 . S
O1367 Co1359 2.055 . S
O1367 C1371 1.253 . S
H1368 C1364 0.931 . S
H1369 C1365 0.930 . S
O1370 Co1359 2.039 . S
O1370 C1360 1.265 . S
C1371 O1367 1.253 . S
C1371 O1372 1.227 . S
O1372 C1371 1.227 . S
N1373 Co1359 2.140 . S
N1373 C1376 1.346 . S
N1373 C1377 1.345 . S
C1374 C1375 1.387 . S
C1374 C1378 1.391 . S
C1375 C1374 1.387 . S
C1375 C1376 1.369 . S
C1375 H1384 0.929 . S
C1376 N1373 1.346 . S
C1376 C1375 1.369 . S
C1376 H1379 0.928 . S
C1377 N1373 1.345 . S
C1377 C1378 1.371 . S
C1377 H1380 0.931 . S
C1378 C1374 1.391 . S
C1378 C1377 1.371 . S
C1378 H1385 0.930 . S
H1379 C1376 0.928 . S
H1380 C1377 0.931 . S
H1381 C1357 0.930 1_565 S
H1382 C1354 0.930 . S
H1383 C1363 0.930 . S
H1384 C1375 0.929 . S
H1385 C1378 0.930 . S
C1386 C1387 1.351 1_545 S
C1386 N1389 1.368 . S
C1386 H1391 0.931 1_545 S
C1387 C1386 1.351 1_565 S
C1387 N1388 1.373 1_565 S
C1387 H1415 0.930 . S
N1388 C1387 1.373 1_545 S
N1388 C1390 1.340 . S
N1389 C1386 1.368 . S
N1389 C1390 1.321 . S
N1389 Co1392 2.135 . S
C1390 N1388 1.340 . S
C1390 N1389 1.321 . S
C1390 H1414 0.930 . S
H1391 C1386 0.931 1_565 S
Co1392 N1389 2.135 . S
Co1392 N1395 2.121 . S
Co1392 O1400 2.055 . S
Co1392 O1403 2.039 . S
Co1392 N1406 2.140 . S
C1393 O1394 1.227 . S
C1393 O1403 1.265 . S
O1394 C1393 1.227 . S
N1395 Co1392 2.121 . S
N1395 C1397 1.375 . S
N1395 C1398 1.313 . S
C1396 C1397 1.338 . S
C1396 N1399 1.377 . S
C1396 H1416 0.930 . S
C1397 N1395 1.375 . S
C1397 C1396 1.338 . S
C1397 H1401 0.931 . S
C1398 N1395 1.313 . S
C1398 N1399 1.344 . S
C1398 H1402 0.930 . S
N1399 C1396 1.377 . S
N1399 C1398 1.344 . S
O1400 Co1392 2.055 . S
O1400 C1404 1.253 1_545 S
H1401 C1397 0.931 . S
H1402 C1398 0.930 . S
O1403 Co1392 2.039 . S
O1403 C1393 1.265 . S
C1404 O1400 1.253 1_565 S
C1404 O1405 1.227 1_565 S
O1405 C1404 1.227 1_545 S
N1406 Co1392 2.140 . S
N1406 C1409 1.346 . S
N1406 C1410 1.345 . S
C1407 C1408 1.387 . S
C1407 C1411 1.391 . S
C1408 C1407 1.387 . S
C1408 C1409 1.369 . S
C1408 H1417 0.929 . S
C1409 N1406 1.346 . S
C1409 C1408 1.369 . S
C1409 H1412 0.928 . S
C1410 N1406 1.345 . S
C1410 C1411 1.371 . S
C1410 H1413 0.931 . S
C1411 C1407 1.391 . S
C1411 C1410 1.371 . S
C1411 H1418 0.930 . S
H1412 C1409 0.928 . S
H1413 C1410 0.931 . S
H1414 C1390 0.930 . S
H1415 C1387 0.930 . S
H1416 C1396 0.930 . S
H1417 C1408 0.929 . S
H1418 C1411 0.930 . S
C1419 C1420 1.351 . S
C1419 N1422 1.368 . S
C1419 H1424 0.931 . S
C1420 C1419 1.351 . S
C1420 N1421 1.373 . S
C1420 H1448 0.930 . S
N1421 C1420 1.373 . S
N1421 C1423 1.340 . S
N1422 C1419 1.368 . S
N1422 C1423 1.321 . S
N1422 Co1425 2.135 . S
C1423 N1421 1.340 . S
C1423 N1422 1.321 . S
C1423 H1447 0.930 . S
H1424 C1419 0.931 . S
Co1425 N1422 2.135 . S
Co1425 N1428 2.121 . S
Co1425 O1433 2.055 . S
Co1425 O1436 2.039 . S
Co1425 N1439 2.140 . S
C1426 O1427 1.227 . S
C1426 O1436 1.265 . S
O1427 C1426 1.227 . S
N1428 Co1425 2.121 . S
N1428 C1430 1.375 . S
N1428 C1431 1.313 . S
C1429 C1430 1.338 . S
C1429 N1432 1.377 . S
C1429 H1449 0.930 . S
C1430 N1428 1.375 . S
C1430 C1429 1.338 . S
C1430 H1434 0.931 . S
C1431 N1428 1.313 . S
C1431 N1432 1.344 . S
C1431 H1435 0.930 . S
N1432 C1429 1.377 . S
N1432 C1431 1.344 . S
O1433 Co1425 2.055 . S
O1433 C1437 1.253 . S
H1434 C1430 0.931 . S
H1435 C1431 0.930 . S
O1436 Co1425 2.039 . S
O1436 C1426 1.265 . S
C1437 O1433 1.253 . S
C1437 O1438 1.227 . S
O1438 C1437 1.227 . S
N1439 Co1425 2.140 . S
N1439 C1442 1.346 . S
N1439 C1443 1.345 . S
C1440 C1441 1.387 . S
C1440 C1444 1.391 . S
C1441 C1440 1.387 . S
C1441 C1442 1.369 . S
C1441 H1450 0.929 . S
C1442 N1439 1.346 . S
C1442 C1441 1.369 . S
C1442 H1445 0.928 . S
C1443 N1439 1.345 . S
C1443 C1444 1.371 . S
C1443 H1446 0.931 . S
C1444 C1440 1.391 . S
C1444 C1443 1.371 . S
C1444 H1451 0.930 . S
H1445 C1442 0.928 . S
H1446 C1443 0.931 . S
H1447 C1423 0.930 . S
H1448 C1420 0.930 . S
H1449 C1429 0.930 . S
H1450 C1441 0.929 . S
H1451 C1444 0.930 . S
C1452 C1453 1.351 1_565 S
C1452 N1455 1.368 . S
C1452 H1457 0.931 1_565 S
C1453 C1452 1.351 1_545 S
C1453 N1454 1.373 1_545 S
C1453 H1481 0.930 1_556 S
N1454 C1453 1.373 1_565 S
N1454 C1456 1.340 . S
N1455 C1452 1.368 . S
N1455 C1456 1.321 . S
N1455 Co1458 2.135 . S
C1456 N1454 1.340 . S
C1456 N1455 1.321 . S
C1456 H1480 0.930 . S
H1457 C1452 0.931 1_545 S
Co1458 N1455 2.135 . S
Co1458 N1461 2.121 . S
Co1458 O1466 2.055 . S
Co1458 O1469 2.039 . S
Co1458 N1472 2.140 . S
C1459 O1460 1.227 . S
C1459 O1469 1.265 . S
O1460 C1459 1.227 . S
N1461 Co1458 2.121 . S
N1461 C1463 1.375 . S
N1461 C1464 1.313 . S
C1462 C1463 1.338 . S
C1462 N1465 1.377 . S
C1462 H1482 0.930 . S
C1463 N1461 1.375 . S
C1463 C1462 1.338 . S
C1463 H1467 0.931 . S
C1464 N1461 1.313 . S
C1464 N1465 1.344 . S
C1464 H1468 0.930 . S
N1465 C1462 1.377 . S
N1465 C1464 1.344 . S
O1466 Co1458 2.055 . S
O1466 C1470 1.253 1_565 S
H1467 C1463 0.931 . S
H1468 C1464 0.930 . S
O1469 Co1458 2.039 . S
O1469 C1459 1.265 . S
C1470 O1466 1.253 1_545 S
C1470 O1471 1.227 1_545 S
O1471 C1470 1.227 1_565 S
N1472 Co1458 2.140 . S
N1472 C1475 1.346 . S
N1472 C1476 1.345 . S
C1473 C1474 1.387 . S
C1473 C1477 1.391 . S
C1474 C1473 1.387 . S
C1474 C1475 1.369 . S
C1474 H1483 0.929 1_556 S
C1475 N1472 1.346 . S
C1475 C1474 1.369 . S
C1475 H1478 0.928 . S
C1476 N1472 1.345 . S
C1476 C1477 1.371 . S
C1476 H1479 0.931 . S
C1477 C1473 1.391 . S
C1477 C1476 1.371 . S
C1477 H1484 0.930 . S
H1478 C1475 0.928 . S
H1479 C1476 0.931 . S
H1480 C1456 0.930 . S
H1481 C1453 0.930 1_554 S
H1482 C1462 0.930 . S
H1483 C1474 0.929 1_554 S
H1484 C1477 0.930 . S
C1485 C1486 1.351 . S
C1485 N1488 1.368 . S
C1485 H1490 0.931 . S
C1486 C1485 1.351 . S
C1486 N1487 1.373 . S
C1486 H1514 0.930 . S
N1487 C1486 1.373 . S
N1487 C1489 1.340 . S
N1488 C1485 1.368 . S
N1488 C1489 1.321 . S
N1488 Co1491 2.135 . S
C1489 N1487 1.340 . S
C1489 N1488 1.321 . S
C1489 H1513 0.930 1_545 S
H1490 C1485 0.931 . S
Co1491 N1488 2.135 . S
Co1491 N1494 2.121 . S
Co1491 O1499 2.055 . S
Co1491 O1502 2.039 . S
Co1491 N1505 2.140 . S
C1492 O1493 1.227 . S
C1492 O1502 1.265 . S
O1493 C1492 1.227 . S
N1494 Co1491 2.121 . S
N1494 C1496 1.375 . S
N1494 C1497 1.313 . S
C1495 C1496 1.338 . S
C1495 N1498 1.377 . S
C1495 H1515 0.930 . S
C1496 N1494 1.375 . S
C1496 C1495 1.338 . S
C1496 H1500 0.931 . S
C1497 N1494 1.313 . S
C1497 N1498 1.344 . S
C1497 H1501 0.930 . S
N1498 C1495 1.377 . S
N1498 C1497 1.344 . S
O1499 Co1491 2.055 . S
O1499 C1503 1.253 . S
H1500 C1496 0.931 . S
H1501 C1497 0.930 . S
O1502 Co1491 2.039 . S
O1502 C1492 1.265 . S
C1503 O1499 1.253 . S
C1503 O1504 1.227 . S
O1504 C1503 1.227 . S
N1505 Co1491 2.140 . S
N1505 C1508 1.346 . S
N1505 C1509 1.345 . S
C1506 C1507 1.387 . S
C1506 C1510 1.391 . S
C1507 C1506 1.387 . S
C1507 C1508 1.369 . S
C1507 H1516 0.929 . S
C1508 N1505 1.346 . S
C1508 C1507 1.369 . S
C1508 H1511 0.928 . S
C1509 N1505 1.345 . S
C1509 C1510 1.371 . S
C1509 H1512 0.931 . S
C1510 C1506 1.391 . S
C1510 C1509 1.371 . S
C1510 H1517 0.930 . S
H1511 C1508 0.928 . S
H1512 C1509 0.931 . S
H1513 C1489 0.930 1_565 S
H1514 C1486 0.930 . S
H1515 C1495 0.930 . S
H1516 C1507 0.929 . S
H1517 C1510 0.930 . S
C1518 C1519 1.351 1_565 S
C1518 N1521 1.368 . S
C1518 H1523 0.931 1_565 S
C1519 C1518 1.351 1_545 S
C1519 N1520 1.373 1_545 S
C1519 H1547 0.930 1_554 S
N1520 C1519 1.373 1_565 S
N1520 C1522 1.340 . S
N1521 C1518 1.368 . S
N1521 C1522 1.321 . S
N1521 Co1524 2.135 . S
C1522 N1520 1.340 . S
C1522 N1521 1.321 . S
C1522 H1546 0.930 . S
H1523 C1518 0.931 1_545 S
Co1524 N1521 2.135 . S
Co1524 N1527 2.121 . S
Co1524 O1532 2.055 . S
Co1524 O1535 2.039 . S
Co1524 N1538 2.140 . S
C1525 O1526 1.227 . S
C1525 O1535 1.265 . S
O1526 C1525 1.227 . S
N1527 Co1524 2.121 . S
N1527 C1529 1.375 . S
N1527 C1530 1.313 . S
C1528 C1529 1.338 . S
C1528 N1531 1.377 . S
C1528 H1548 0.930 . S
C1529 N1527 1.375 . S
C1529 C1528 1.338 . S
C1529 H1533 0.931 . S
C1530 N1527 1.313 . S
C1530 N1531 1.344 . S
C1530 H1534 0.930 . S
N1531 C1528 1.377 . S
N1531 C1530 1.344 . S
O1532 Co1524 2.055 . S
O1532 C1536 1.253 1_565 S
H1533 C1529 0.931 . S
H1534 C1530 0.930 . S
O1535 Co1524 2.039 . S
O1535 C1525 1.265 . S
C1536 O1532 1.253 1_545 S
C1536 O1537 1.227 1_545 S
O1537 C1536 1.227 1_565 S
N1538 Co1524 2.140 . S
N1538 C1541 1.346 . S
N1538 C1542 1.345 . S
C1539 C1540 1.387 . S
C1539 C1543 1.391 . S
C1540 C1539 1.387 . S
C1540 C1541 1.369 . S
C1540 H1549 0.929 1_554 S
C1541 N1538 1.346 . S
C1541 C1540 1.369 . S
C1541 H1544 0.928 . S
C1542 N1538 1.345 . S
C1542 C1543 1.371 . S
C1542 H1545 0.931 . S
C1543 C1539 1.391 . S
C1543 C1542 1.371 . S
C1543 H1550 0.930 . S
H1544 C1541 0.928 . S
H1545 C1542 0.931 . S
H1546 C1522 0.930 . S
H1547 C1519 0.930 1_556 S
H1548 C1528 0.930 . S
H1549 C1540 0.929 1_556 S
H1550 C1543 0.930 . S
C1551 C1552 1.351 . S
C1551 N1554 1.368 . S
C1551 H1556 0.931 . S
C1552 C1551 1.351 . S
C1552 N1553 1.373 . S
C1552 H1580 0.930 1_554 S
N1553 C1552 1.373 . S
N1553 C1555 1.340 . S
N1554 C1551 1.368 . S
N1554 C1555 1.321 . S
N1554 Co1557 2.135 . S
C1555 N1553 1.340 . S
C1555 N1554 1.321 . S
C1555 H1579 0.930 . S
H1556 C1551 0.931 . S
Co1557 N1554 2.135 . S
Co1557 N1560 2.121 . S
Co1557 O1565 2.055 . S
Co1557 O1568 2.039 . S
Co1557 N1571 2.140 . S
C1558 O1559 1.227 . S
C1558 O1568 1.265 . S
O1559 C1558 1.227 . S
N1560 Co1557 2.121 . S
N1560 C1562 1.375 . S
N1560 C1563 1.313 . S
C1561 C1562 1.338 . S
C1561 N1564 1.377 . S
C1561 H1581 0.930 . S
C1562 N1560 1.375 . S
C1562 C1561 1.338 . S
C1562 H1566 0.931 . S
C1563 N1560 1.313 . S
C1563 N1564 1.344 . S
C1563 H1567 0.930 . S
N1564 C1561 1.377 . S
N1564 C1563 1.344 . S
O1565 Co1557 2.055 . S
O1565 C1569 1.253 . S
H1566 C1562 0.931 . S
H1567 C1563 0.930 . S
O1568 Co1557 2.039 . S
O1568 C1558 1.265 . S
C1569 O1565 1.253 . S
C1569 O1570 1.227 . S
O1570 C1569 1.227 . S
N1571 Co1557 2.140 . S
N1571 C1574 1.346 . S
N1571 C1575 1.345 . S
C1572 C1573 1.387 . S
C1572 C1576 1.391 . S
C1573 C1572 1.387 . S
C1573 C1574 1.369 . S
C1573 H1582 0.929 1_554 S
C1574 N1571 1.346 . S
C1574 C1573 1.369 . S
C1574 H1577 0.928 . S
C1575 N1571 1.345 . S
C1575 C1576 1.371 . S
C1575 H1578 0.931 . S
C1576 C1572 1.391 . S
C1576 C1575 1.371 . S
C1576 H1583 0.930 . S
H1577 C1574 0.928 . S
H1578 C1575 0.931 . S
H1579 C1555 0.930 . S
H1580 C1552 0.930 1_556 S
H1581 C1561 0.930 . S
H1582 C1573 0.929 1_556 S
H1583 C1576 0.930 . S
N904 C18 1.220 . S
C51 N805 1.220 . S
C84 N838 1.220 . S
N871 C117 1.220 . S
C150 N178 1.220 . S
N211 C183 1.220 . S
N244 C216 1.220 . S
C249 N145 1.220 . S
C282 N1399 1.220 . S
C315 N1432 1.220 . S
C348 N673 1.220 . S
N1366 C381 1.220 . S
N1531 C414 1.220 . S
N541 C447 1.220 . S
C480 N1564 1.220 . S
C513 N1498 1.220 . S
N310 C546 1.220 . S
N1300 C579 1.219 . S
N1201 C612 1.220 . S
N1234 C645 1.220 . S
C678 N475 1.220 . S
C711 N1168 1.220 . S
N1069 C744 1.219 . S
C777 N1135 1.220 . S
C810 N112 1.220 . S
C843 N13 1.220 . S
N46 C876 1.220 . S
N79 C909 1.220 . S
N970 C942 1.220 . S
N1003 C975 1.220 . S
C1008 N1036 1.220 . S
C1041 N937 1.220 . S
C1074 N607 1.220 . S
N640 C1107 1.220 . S
N1465 C1140 1.220 . S
C1173 N574 1.220 . S
N739 C1206 1.220 . S
C1239 N1333 1.220 . S
C1272 N772 1.220 . S
N706 C1305 1.220 . S
N1102 C1338 1.220 . S
N508 C1371 1.219 . S
C1404 N409 1.220 . S
N442 C1437 1.220 . S
C1470 N1267 1.220 . S
C1503 N376 1.220 . S
N277 C1536 1.219 . S
N343 C1569 1.220 . S
C1393 C21 1.257 . S
C1426 C54 1.257 . S
C667 C87 1.257 . S
C1360 C120 1.257 1_545 S
C153 C1525 1.257 . S
C535 C186 1.257 . S
C1558 C219 1.257 . S
C252 C1492 1.257 1_565 S
C285 C304 1.257 . S
C337 C318 1.257 . S
C370 C351 1.257 . S
C271 C384 1.257 . S
C1294 C417 1.257 . S
C1195 C450 1.257 1_655 S
C1228 C483 1.257 . S
C516 C1261 1.257 1_655 S
C898 C549 1.257 . S
C582 C172 1.257 . S
C205 C615 1.257 1_554 S
C238 C648 1.257 . S
C681 C931 1.257 . S
C40 C714 1.257 . S
C747 C73 1.257 . S
C780 C7 1.257 . S
C601 C813 1.257 . S
C634 C846 1.257 1_565 S
C879 C1459 1.257 . S
C912 C568 1.257 . S
C733 C945 1.257 . S
C1327 C978 1.257 1_565 S
C766 C1011 1.257 . S
C1044 C700 1.257 . S
C1077 C1096 1.257 . S
C1129 C1110 1.257 1_455 S
C1143 C1162 1.257 . S
C1176 C1063 1.257 1_455 S
C1209 C502 1.257 . S
C403 C1242 1.257 . S
C436 C1275 1.257 . S
C469 C1308 1.257 . S
C106 C1341 1.257 . S
C964 C1374 1.257 . S
C1407 C997 1.257 . S
C1440 C1030 1.257 . S
C1473 C139 1.257 1_556 S
C1506 C832 1.257 . S
C1539 C865 1.257 1_554 S
C799 C1572 1.257 1_556 S
N2 N992 1.247 . S
N35 N1025 1.247 . S
N926 N68 1.247 . S
N959 N101 1.247 1_545 S
N134 N860 1.247 1_554 S
N893 N167 1.247 . S
N794 N200 1.247 1_556 S
N827 N233 1.247 1_545 S
N266 N332 1.247 . S
N299 N365 1.247 . S
N464 N398 1.247 . S
N431 N497 1.247 1_455 S
N530 N563 1.247 . S
N1553 N596 1.247 1_554 S
N1487 N629 1.247 1_545 S
N662 N728 1.247 . S
N695 N1421 1.247 . S
N761 N1388 1.247 . S
N1124 N1058 1.247 1_455 S
N1157 N1091 1.247 1_455 S
N1256 N1190 1.247 1_455 S
N1289 N1223 1.247 . S
N1322 N1355 1.247 1_565 S
N1520 N1454 1.247 1_554 S
