# Generated by pormake.
# Topology umw, (4)-cn, num edge types: 1
# Building blocks:
#     Node 0, Type 0, BuildingBlock: AZAVOO_clean_sbu_0, # of connection points: 4
#     Node 1, Type 0, BuildingBlock: AZAVOO_clean_sbu_0, # of connection points: 4
#     Node 2, Type 0, BuildingBlock: AZAVOO_clean_sbu_0, # of connection points: 4
#     Node 3, Type 0, BuildingBlock: AZAVOO_clean_sbu_0, # of connection points: 4
#     Node 4, Type 0, BuildingBlock: AZAVOO_clean_sbu_0, # of connection points: 4
#     Node 5, Type 0, BuildingBlock: AZAVOO_clean_sbu_0, # of connection points: 4
#     Node 6, Type 0, BuildingBlock: AZAVOO_clean_sbu_0, # of connection points: 4
#     Node 7, Type 0, BuildingBlock: AZAVOO_clean_sbu_0, # of connection points: 4
#     Edge 8, Type (0, 0), BuildingBlock: UVAHIK_clean_linker_0, # of connection points: 2
#     Edge 9, Type (0, 0), BuildingBlock: UVAHIK_clean_linker_0, # of connection points: 2
#     Edge 10, Type (0, 0), BuildingBlock: UVAHIK_clean_linker_0, # of connection points: 2
#     Edge 11, Type (0, 0), BuildingBlock: UVAHIK_clean_linker_0, # of connection points: 2
#     Edge 12, Type (0, 0), BuildingBlock: UVAHIK_clean_linker_0, # of connection points: 2
#     Edge 13, Type (0, 0), BuildingBlock: UVAHIK_clean_linker_0, # of connection points: 2
#     Edge 14, Type (0, 0), BuildingBlock: UVAHIK_clean_linker_0, # of connection points: 2
#     Edge 15, Type (0, 0), BuildingBlock: UVAHIK_clean_linker_0, # of connection points: 2
#     Edge 16, Type (0, 0), BuildingBlock: UVAHIK_clean_linker_0, # of connection points: 2
#     Edge 17, Type (0, 0), BuildingBlock: UVAHIK_clean_linker_0, # of connection points: 2
#     Edge 18, Type (0, 0), BuildingBlock: UVAHIK_clean_linker_0, # of connection points: 2
#     Edge 19, Type (0, 0), BuildingBlock: UVAHIK_clean_linker_0, # of connection points: 2
#     Edge 20, Type (0, 0), BuildingBlock: UVAHIK_clean_linker_0, # of connection points: 2
#     Edge 21, Type (0, 0), BuildingBlock: UVAHIK_clean_linker_0, # of connection points: 2
#     Edge 22, Type (0, 0), BuildingBlock: UVAHIK_clean_linker_0, # of connection points: 2
#     Edge 23, Type (0, 0), BuildingBlock: UVAHIK_clean_linker_0, # of connection points: 2
# Relax obj value: 0.148
# Max RMSD: 0.118
# Mean RMSD: 0.118
data_MOF--net-umw--node1-AZAVOO_clean_sbu_0--edge1-UVAHIK_clean_linker_0
_symmetry_space_group_name_H-M    P1
_symmetry_Int_Tables_number       1
_symmetry_cell_setting            triclinic
loop_
_symmetry_equiv_pos_as_xyz
'x, y, z'
_cell_length_a     56.237725
_cell_length_b     56.252772
_cell_length_c     30.22942
_cell_angle_alpha  89.998064
_cell_angle_beta   90.005192
_cell_angle_gamma 89.989002
loop_
_atom_site_label
_atom_site_type_symbol
_atom_site_fract_x
_atom_site_fract_y
_atom_site_fract_z
_atom_type_partial_charge
Mg0 Mg 0.38854 0.16796 0.249 0.0
O1 O 0.41647 0.16807 0.30456 0.0
O2 O 0.44682 0.14511 0.28287 0.0
Mg3 Mg 0.43821 0.13025 0.21475 0.0
C4 C 0.4369 0.15876 0.31109 0.0
C5 C 0.35654 0.21211 0.25598 0.0
O6 O 0.35444 0.20676 0.21384 0.0
O7 O 0.41166 0.19265 0.2082 0.0
O8 O 0.44142 0.16848 0.18818 0.0
O9 O 0.37137 0.13648 0.27925 0.0
O10 O 0.40002 0.13439 0.22928 0.0
C11 C 0.43127 0.18878 0.18839 0.0
C12 C 0.38616 0.12362 0.25675 0.0
O13 O 0.36991 0.19943 0.28025 0.0
Mg14 Mg 0.8256 0.39273 0.49373 0.0
O15 O 0.82511 0.4208 0.54921 0.0
O16 O 0.84776 0.4513 0.52736 0.0
Mg17 Mg 0.86155 0.44349 0.45819 0.0
C18 C 0.83442 0.44123 0.55593 0.0
C19 C 0.79912 0.35077 0.53351 0.0
O20 O 0.81925 0.34142 0.51996 0.0
O21 O 0.79975 0.41491 0.45361 0.0
O22 O 0.82294 0.44521 0.43294 0.0
O23 O 0.85782 0.37628 0.52261 0.0
O24 O 0.85887 0.40531 0.47334 0.0
C25 C 0.80287 0.43456 0.43345 0.0
C26 C 0.87016 0.39148 0.50016 0.0
O27 O 0.79538 0.37274 0.52679 0.0
Mg28 Mg 0.59548 0.82321 0.74702 0.0
O29 O 0.56937 0.82324 0.80554 0.0
O30 O 0.53746 0.84448 0.78572 0.0
Mg31 Mg 0.54319 0.85805 0.7156 0.0
C32 C 0.54885 0.83194 0.8138 0.0
C33 C 0.63872 0.79803 0.78533 0.0
O34 O 0.64729 0.81855 0.77203 0.0
O35 O 0.5725 0.79662 0.71004 0.0
O36 O 0.54142 0.8193 0.69133 0.0
O37 O 0.6119 0.85611 0.77301 0.0
O38 O 0.58192 0.85587 0.72573 0.0
C39 C 0.55233 0.79936 0.69147 0.0
C40 C 0.59609 0.86783 0.75083 0.0
O41 O 0.6168 0.79367 0.77934 0.0
Mg42 Mg 0.16887 0.59673 -0.00256 0.0
O43 O 0.16754 0.57077 0.05629 0.0
O44 O 0.14559 0.53952 0.03536 0.0
Mg45 Mg 0.1322 0.54589 0.96536 0.0
C46 C 0.15825 0.55043 0.06391 0.0
C47 C 0.20852 0.63394 0.00823 0.0
O48 O 0.19988 0.63962 0.96924 0.0
O49 O 0.19454 0.57242 0.96127 0.0
O50 O 0.17086 0.54237 0.94136 0.0
O51 O 0.1368 0.61525 0.02232 0.0
O52 O 0.1357 0.58444 0.97688 0.0
C53 C 0.1912 0.55247 0.94228 0.0
C54 C 0.1244 0.59956 0.00115 0.0
O55 O 0.19959 0.61646 0.02896 0.0
Mg56 Mg 0.38957 0.82456 0.30231 0.0
O57 O 0.41705 0.82704 0.24626 0.0
O58 O 0.44744 0.84954 0.26907 0.0
Mg59 Mg 0.43938 0.86133 0.33952 0.0
C60 C 0.43723 0.83684 0.23971 0.0
C61 C 0.36483 0.79744 0.22625 0.0
O62 O 0.36926 0.8179 0.20699 0.0
O63 O 0.41327 0.79853 0.33902 0.0
O64 O 0.44312 0.82217 0.36073 0.0
O65 O 0.37184 0.85701 0.27732 0.0
O66 O 0.40095 0.8574 0.32652 0.0
C67 C 0.43312 0.80182 0.35839 0.0
C68 C 0.38667 0.86909 0.30115 0.0
O69 O 0.37118 0.79437 0.26618 0.0
Mg70 Mg 0.16825 0.39224 0.5551 0.0
O71 O 0.16638 0.41945 0.4985 0.0
O72 O 0.14561 0.45112 0.52098 0.0
Mg73 Mg 0.13405 0.44404 0.59198 0.0
C74 C 0.15751 0.44002 0.49157 0.0
C75 C 0.19408 0.36731 0.47802 0.0
O76 O 0.17401 0.37354 0.45903 0.0
O77 O 0.19557 0.41502 0.59049 0.0
O78 O 0.17343 0.44591 0.6125 0.0
O79 O 0.13495 0.37534 0.53198 0.0
O80 O 0.13604 0.40544 0.57914 0.0
C81 C 0.1933 0.43502 0.60978 0.0
C82 C 0.12366 0.39113 0.55499 0.0
O83 O 0.19735 0.37234 0.51855 0.0
Mg84 Mg 0.59826 0.16667 0.79949 0.0
O85 O 0.57231 0.16814 0.74083 0.0
O86 O 0.54037 0.14636 0.75831 0.0
Mg87 Mg 0.54586 0.1311 0.82724 0.0
C88 C 0.55183 0.15966 0.73157 0.0
C89 C 0.64175 0.19356 0.76602 0.0
O90 O 0.65077 0.17331 0.77974 0.0
O91 O 0.57504 0.19237 0.83815 0.0
O92 O 0.54383 0.16928 0.8541 0.0
O93 O 0.61472 0.13436 0.77081 0.0
O94 O 0.58458 0.13361 0.81774 0.0
C95 C 0.55469 0.18922 0.85579 0.0
C96 C 0.59872 0.12221 0.7917 0.0
O97 O 0.61953 0.19701 0.76995 0.0
Mg98 Mg 0.82535 0.59826 0.05021 0.0
O99 O 0.8268 0.57309 0.99005 0.0
O100 O 0.84949 0.54201 0.00866 0.0
Mg101 Mg 0.86123 0.54637 0.08008 0.0
C102 C 0.8367 0.55324 0.98075 0.0
C103 C 0.7987 0.64155 0.01478 0.0
O104 O 0.81833 0.6509 0.03067 0.0
O105 O 0.79892 0.57372 0.08369 0.0
O106 O 0.82197 0.54256 0.10057 0.0
O107 O 0.85812 0.61656 0.02769 0.0
O108 O 0.85815 0.5851 0.07155 0.0
C109 C 0.80181 0.55302 0.09991 0.0
C110 C 0.87 0.6004 0.04864 0.0
O111 O 0.79556 0.61927 0.0181 0.0
C112 C 0.47451 0.16234 0.35432 0.0
C113 C 0.4496 0.16372 0.3528 0.0
C114 C 0.48663 0.16592 0.39403 0.0
C115 C 0.4788 0.18733 0.51022 0.0
H116 H 0.53342 0.14676 0.53129 0.0
C117 C 0.5163 0.16347 0.68254 0.0
C118 C 0.54107 0.16493 0.68812 0.0
C119 C 0.50609 0.16705 0.641 0.0
C120 C 0.51839 0.15842 0.5256 0.0
H121 H 0.4178 0.17026 0.39138 0.0
H122 H 0.4388 0.17539 0.46124 0.0
H123 H 0.51353 0.14552 0.45992 0.0
H124 H 0.57455 0.17171 0.65481 0.0
H125 H 0.55663 0.1773 0.58167 0.0
H126 H 0.48311 0.19911 0.57725 0.0
C127 C 0.44913 0.17229 0.43159 0.0
C128 C 0.507 0.15783 0.48462 0.0
C129 C 0.43704 0.16919 0.3916 0.0
C130 C 0.55541 0.17051 0.65149 0.0
C131 C 0.5452 0.17364 0.60971 0.0
C132 C 0.48997 0.18759 0.55151 0.0
C133 C 0.4741 0.17045 0.43342 0.0
C134 C 0.48693 0.17214 0.47642 0.0
C135 C 0.52049 0.17174 0.60412 0.0
C136 C 0.50976 0.17302 0.55958 0.0
H137 H 0.48468 0.15851 0.32473 0.0
H138 H 0.50586 0.16498 0.39378 0.0
H139 H 0.46372 0.19896 0.50494 0.0
H140 H 0.50479 0.15935 0.71024 0.0
H141 H 0.487 0.16532 0.63741 0.0
C142 C 0.84163 0.47521 0.60763 0.0
C143 C 0.83005 0.45361 0.59841 0.0
C144 C 0.83837 0.4866 0.64815 0.0
C145 C 0.8215 0.47424 0.76323 0.0
H146 H 0.82212 0.54302 0.77237 0.0
C147 C 0.84532 0.52165 0.92483 0.0
C148 C 0.83307 0.54252 0.93649 0.0
C149 C 0.84183 0.51112 0.88361 0.0
C150 C 0.82158 0.5238 0.77043 0.0
H151 H 0.80537 0.42741 0.6243 0.0
H152 H 0.79947 0.44751 0.695 0.0
H153 H 0.8204 0.52433 0.69969 0.0
H154 H 0.80745 0.56867 0.91374 0.0
H155 H 0.80121 0.55006 0.84163 0.0
H156 H 0.82255 0.47369 0.83391 0.0
C157 C 0.81137 0.45541 0.671 0.0
C158 C 0.82088 0.51308 0.72875 0.0
C159 C 0.8147 0.44394 0.63041 0.0
C160 C 0.81725 0.55265 0.90577 0.0
C161 C 0.8137 0.54203 0.86442 0.0
C162 C 0.82211 0.48495 0.80486 0.0
C163 C 0.82336 0.47677 0.68048 0.0
C164 C 0.82137 0.48817 0.72465 0.0
C165 C 0.82592 0.52109 0.85297 0.0
C166 C 0.82272 0.50985 0.80892 0.0
H167 H 0.85362 0.4832 0.58387 0.0
H168 H 0.8482 0.50279 0.65458 0.0
H169 H 0.82205 0.45502 0.76133 0.0
H170 H 0.85776 0.51341 0.94746 0.0
H171 H 0.85193 0.4953 0.87553 0.0
C172 C 0.43621 0.82768 0.15866 0.0
C173 C 0.44929 0.83335 0.1968 0.0
C174 C 0.44765 0.82519 0.11787 0.0
C175 C 0.50432 0.8406 0.06099 0.0
H176 H 0.48046 0.79709 0.97193 0.0
C177 C 0.55242 0.8237 0.89496 0.0
C178 C 0.53808 0.82805 0.85776 0.0
C179 C 0.54224 0.82196 0.93702 0.0
C180 C 0.48729 0.80926 -0.00338 0.0
H181 H 0.48466 0.83992 0.22256 0.0
H182 H 0.50472 0.8346 0.15206 0.0
H183 H 0.46167 0.79832 0.04471 0.0
H184 H 0.50179 0.83294 0.83509 0.0
H185 H 0.48402 0.82933 0.90851 0.0
H186 H 0.53022 0.85111 0.01286 0.0
C187 C 0.48555 0.83295 0.15303 0.0
C188 C 0.47645 0.81015 0.03819 0.0
C189 C 0.47406 0.83588 0.19359 0.0
C190 C 0.51331 0.82972 0.8632 0.0
C191 C 0.50311 0.82752 0.90509 0.0
C192 C 0.5154 0.83938 0.01973 0.0
C193 C 0.47248 0.82788 0.11446 0.0
C194 C 0.48464 0.82604 0.0708 0.0
C195 C 0.51752 0.82404 0.94242 0.0
C196 C 0.50681 0.82392 0.98706 0.0
H197 H 0.41706 0.82573 0.16011 0.0
H198 H 0.43689 0.8217 0.08889 0.0
H199 H 0.51088 0.85343 0.08472 0.0
H200 H 0.57156 0.8224 0.89176 0.0
H201 H 0.55367 0.81919 0.96541 0.0
C202 C 0.15812 0.47597 0.44284 0.0
C203 C 0.16081 0.45127 0.44782 0.0
C204 C 0.16052 0.48656 0.40128 0.0
C205 C 0.1521 0.4744 0.28516 0.0
H206 H 0.19207 0.52945 0.26439 0.0
C207 C 0.16059 0.51422 0.11127 0.0
C208 C 0.16192 0.53905 0.10738 0.0
C209 C 0.16277 0.5033 0.15249 0.0
C210 C 0.18056 0.5143 0.26971 0.0
H211 H 0.16836 0.41832 0.41324 0.0
H212 H 0.17195 0.43683 0.34036 0.0
H213 H 0.19139 0.51094 0.3375 0.0
H214 H 0.1669 0.57196 0.14342 0.0
H215 H 0.16967 0.55303 0.21583 0.0
H216 H 0.14032 0.47813 0.21849 0.0
C217 C 0.16818 0.44794 0.3688 0.0
C218 C 0.18032 0.50364 0.31151 0.0
C219 C 0.16621 0.43739 0.41047 0.0
C220 C 0.16592 0.55276 0.14546 0.0
C221 C 0.16763 0.54186 0.18693 0.0
C222 C 0.15201 0.48525 0.24367 0.0
C223 C 0.16526 0.47258 0.36386 0.0
C224 C 0.16611 0.48359 0.31949 0.0
C225 C 0.16582 0.51697 0.19104 0.0
C226 C 0.16628 0.50532 0.23529 0.0
H227 H 0.1541 0.48715 0.47104 0.0
H228 H 0.15804 0.50558 0.3982 0.0
H229 H 0.14072 0.45915 0.29076 0.0
H230 H 0.15787 0.50317 0.08235 0.0
H231 H 0.16195 0.48409 0.15403 0.0
C232 C 0.34485 0.23748 0.32042 0.0
C233 C 0.34237 0.23159 0.27547 0.0
C234 C 0.33033 0.2548 0.33955 0.0
C235 C 0.27184 0.28217 0.32599 0.0
H236 H 0.29514 0.3277 0.41201 0.0
C237 C 0.20966 0.35078 0.40694 0.0
C238 C 0.21239 0.35432 0.45266 0.0
C239 C 0.22658 0.33793 0.38308 0.0
C240 C 0.28834 0.31497 0.3883 0.0
H241 H 0.32328 0.23982 0.21498 0.0
H242 H 0.29794 0.27006 0.24847 0.0
H243 H 0.32317 0.30159 0.37397 0.0
H244 H 0.23518 0.34746 0.50914 0.0
H245 H 0.26446 0.32461 0.46769 0.0
H246 H 0.237 0.29501 0.34095 0.0
C247 C 0.31096 0.2611 0.26895 0.0
C248 C 0.30439 0.30007 0.36648 0.0
C249 C 0.32554 0.24386 0.24976 0.0
C250 C 0.23258 0.34506 0.47392 0.0
C251 C 0.24945 0.3321 0.45009 0.0
C252 C 0.25579 0.29697 0.34791 0.0
C253 C 0.31299 0.26651 0.31417 0.0
C254 C 0.29627 0.28339 0.33538 0.0
C255 C 0.24655 0.32823 0.40445 0.0
C256 C 0.26382 0.3134 0.3796 0.0
H257 H 0.35769 0.2284 0.3411 0.0
H258 H 0.33216 0.25844 0.37457 0.0
H259 H 0.26501 0.26922 0.3027 0.0
H260 H 0.1944 0.35788 0.3895 0.0
H261 H 0.22401 0.33559 0.34784 0.0
C262 C 0.75934 0.34521 0.56973 0.0
C263 C 0.78174 0.33609 0.55795 0.0
C264 C 0.74332 0.33133 0.59391 0.0
C265 C 0.74133 0.28062 0.67012 0.0
H266 H 0.67553 0.27443 0.63355 0.0
C267 C 0.68123 0.20653 0.737 0.0
C268 C 0.65718 0.21162 0.74518 0.0
C269 C 0.6958 0.22322 0.7163 0.0
C270 C 0.69374 0.27627 0.64466 0.0
H271 H 0.80482 0.30522 0.56198 0.0
H272 H 0.77694 0.28115 0.60419 0.0
H273 H 0.70204 0.30107 0.59307 0.0
H274 H 0.62961 0.23837 0.73858 0.0
H275 H 0.65523 0.26773 0.70302 0.0
H276 H 0.7332 0.25593 0.72165 0.0
C277 C 0.77183 0.29905 0.595 0.0
C278 C 0.70891 0.29148 0.6214 0.0
C279 C 0.78773 0.31281 0.57057 0.0
C280 C 0.64806 0.23389 0.73259 0.0
C281 C 0.6627 0.25066 0.71201 0.0
C282 C 0.72616 0.26557 0.69352 0.0
C283 C 0.74953 0.30819 0.60711 0.0
C284 C 0.73294 0.29347 0.63348 0.0
C285 C 0.68673 0.24547 0.70351 0.0
C286 C 0.7023 0.26289 0.68061 0.0
H287 H 0.75422 0.36309 0.56044 0.0
H288 H 0.72626 0.33882 0.60298 0.0
H289 H 0.75968 0.28216 0.68062 0.0
H290 H 0.68879 0.1895 0.74606 0.0
H291 H 0.71411 0.21845 0.70955 0.0
C292 C 0.78635 0.68062 0.98301 0.0
C293 C 0.78111 0.65667 0.99181 0.0
C294 C 0.77025 0.69481 0.95988 0.0
C295 C 0.70746 0.70096 0.93038 0.0
H296 H 0.73193 0.74061 0.83582 0.0
C297 C 0.64615 0.75778 0.81837 0.0
C298 C 0.65437 0.78066 0.80762 0.0
C299 C 0.66112 0.74155 0.83966 0.0
C300 C 0.72483 0.72985 0.86243 0.0
H301 H 0.75465 0.62891 0.98401 0.0
H302 H 0.72637 0.65387 0.94375 0.0
H303 H 0.75886 0.71453 0.87611 0.0
H304 H 0.68461 0.80454 0.8112 0.0
H305 H 0.71043 0.77654 0.84898 0.0
H306 H 0.67349 0.71666 0.91734 0.0
C307 C 0.74299 0.66158 0.9548 0.0
C308 C 0.74026 0.71488 0.88541 0.0
C309 C 0.75921 0.6473 0.97767 0.0
C310 C 0.67777 0.787 0.8187 0.0
C311 C 0.69265 0.77087 0.84015 0.0
C312 C 0.69201 0.7161 0.90756 0.0
C313 C 0.74848 0.6854 0.94532 0.0
C314 C 0.73178 0.70047 0.91989 0.0
C315 C 0.68456 0.74792 0.85077 0.0
C316 C 0.70058 0.7309 0.87362 0.0
H317 H 0.80303 0.68841 0.99352 0.0
H318 H 0.77479 0.71321 0.95354 0.0
H319 H 0.7005 0.69014 0.95704 0.0
H320 H 0.62821 0.75236 0.81015 0.0
H321 H 0.65442 0.72394 0.84695 0.0
C322 C 0.2359 0.669 0.00755 0.0
C323 C 0.2275 0.6484 0.02868 0.0
C324 C 0.25292 0.68337 0.02797 0.0
C325 C 0.27619 0.6983 0.13814 0.0
H326 H 0.32658 0.72898 0.07171 0.0
C327 C 0.34661 0.75686 0.22315 0.0
C328 C 0.35177 0.7786 0.20236 0.0
C329 C 0.33331 0.73951 0.20125 0.0
C330 C 0.3125 0.72064 0.09062 0.0
H331 H 0.23092 0.6263 0.08719 0.0
H332 H 0.2608 0.65125 0.12256 0.0
H333 H 0.30002 0.70107 0.0345 0.0
H334 H 0.34749 0.79898 0.14192 0.0
H335 H 0.32407 0.76881 0.10395 0.0
H336 H 0.28842 0.71806 0.19409 0.0
C337 C 0.25394 0.6565 0.09054 0.0
C338 C 0.2973 0.70468 0.06933 0.0
C339 C 0.2369 0.64215 0.07016 0.0
C340 C 0.3438 0.78242 0.15888 0.0
C341 C 0.33051 0.76507 0.13699 0.0
C342 C 0.29138 0.71423 0.1594 0.0
C343 C 0.26192 0.67742 0.06991 0.0
C344 C 0.27886 0.69347 0.09279 0.0
C345 C 0.32491 0.74353 0.15811 0.0
C346 C 0.30959 0.72572 0.13582 0.0
H347 H 0.22901 0.67431 0.97558 0.0
H348 H 0.2585 0.69951 0.01143 0.0
H349 H 0.26192 0.69028 0.15699 0.0
H350 H 0.35261 0.7533 0.25654 0.0
H351 H 0.32957 0.72296 0.21816 0.0
C352 C 0.37239 0.90736 0.26867 0.0
C353 C 0.38779 0.89528 0.29758 0.0
C354 C 0.37296 0.93211 0.26568 0.0
C355 C 0.36777 0.98444 0.28779 0.0
H356 H 0.42779 0.01813 0.27997 0.0
C357 C 0.37308 0.08659 0.29548 0.0
C358 C 0.38768 0.09766 0.26387 0.0
C359 C 0.37388 0.06199 0.30141 0.0
C360 C 0.41091 0.00894 0.28199 0.0
H361 H 0.41584 0.89978 0.34613 0.0
H362 H 0.41694 0.94307 0.3406 0.0
H363 H 0.42764 0.97478 0.28612 0.0
H364 H 0.41465 0.09155 0.21384 0.0
H365 H 0.41608 0.04859 0.22435 0.0
H366 H 0.351 0.01847 0.28306 0.0
C367 C 0.40456 0.9333 0.32004 0.0
C368 C 0.41082 0.98417 0.28591 0.0
C369 C 0.40389 0.90851 0.32325 0.0
C370 C 0.40332 0.08362 0.23872 0.0
C371 C 0.40419 0.05901 0.24481 0.0
C372 C 0.36785 0.00917 0.28416 0.0
C373 C 0.38899 0.94535 0.29141 0.0
C374 C 0.38924 0.97167 0.28853 0.0
C375 C 0.38933 0.04791 0.27596 0.0
C376 C 0.38941 0.02168 0.28099 0.0
H377 H 0.35979 0.89772 0.24837 0.0
H378 H 0.36095 0.94088 0.2429 0.0
H379 H 0.35086 0.97531 0.29021 0.0
H380 H 0.36088 0.09689 0.3155 0.0
H381 H 0.36241 0.05397 0.32604 0.0
C382 C 0.90842 0.41446 0.49893 0.0
C383 C 0.8961 0.39319 0.50679 0.0
C384 C 0.93292 0.41584 0.50649 0.0
C385 C 0.9825 0.38346 0.56274 0.0
H386 H 0.02213 0.42204 0.48612 0.0
C387 C 0.08402 0.37245 0.54403 0.0
C388 C 0.09757 0.39297 0.552 0.0
C389 C 0.0593 0.37383 0.54101 0.0
C390 C 0.01117 0.41137 0.50792 0.0
H391 H 0.89973 0.35653 0.52773 0.0
H392 H 0.94244 0.35848 0.53877 0.0
H393 H 0.97912 0.42158 0.47507 0.0
H394 H 0.096 0.4311 0.56188 0.0
H395 H 0.05264 0.43359 0.55528 0.0
H396 H 0.0149 0.37238 0.59391 0.0
C397 C 0.93325 0.37447 0.52849 0.0
C398 C 0.98653 0.41116 0.50184 0.0
C399 C 0.90874 0.37326 0.52179 0.0
C400 C 0.08599 0.41497 0.55634 0.0
C401 C 0.06125 0.41644 0.55227 0.0
C402 C 0.00714 0.38331 0.56816 0.0
C403 C 0.94569 0.39583 0.52131 0.0
C404 C 0.97186 0.39702 0.52893 0.0
C405 C 0.04775 0.39584 0.54486 0.0
C406 C 0.02165 0.39714 0.54063 0.0
H407 H 0.89913 0.4302 0.48792 0.0
H408 H 0.94174 0.43272 0.50129 0.0
H409 H 0.97184 0.37285 0.58508 0.0
H410 H 0.09253 0.35527 0.5406 0.0
H411 H 0.0492 0.35775 0.53501 0.0
C412 C 0.60927 0.90614 0.78443 0.0
C413 C 0.59411 0.89391 0.75534 0.0
C414 C 0.60839 0.93087 0.78746 0.0
C415 C 0.57086 0.98309 0.76519 0.0
H416 H 0.63113 0.0166 0.76775 0.0
C417 C 0.57984 0.08293 0.80906 0.0
C418 C 0.59625 0.09635 0.78445 0.0
C419 C 0.5783 0.05832 0.80332 0.0
C420 C 0.61414 0.00753 0.76667 0.0
H421 H 0.56589 0.89803 0.70702 0.0
H422 H 0.56433 0.94134 0.71242 0.0
H423 H 0.63073 0.97343 0.76216 0.0
H424 H 0.62355 0.09456 0.73384 0.0
H425 H 0.62081 0.05168 0.72379 0.0
H426 H 0.55431 0.01734 0.76943 0.0
C427 C 0.57678 0.93171 0.73308 0.0
C428 C 0.61392 0.98279 0.764 0.0
C429 C 0.57771 0.90692 0.72993 0.0
C430 C 0.61081 0.08472 0.75349 0.0
C431 C 0.60931 0.06014 0.74784 0.0
C432 C 0.57108 0.0079 0.76808 0.0
C433 C 0.59232 0.94394 0.7615 0.0
C434 C 0.5923 0.97028 0.76346 0.0
C435 C 0.59322 0.04664 0.77302 0.0
C436 C 0.59275 0.02037 0.76893 0.0
H437 H 0.62204 0.89666 0.80464 0.0
H438 H 0.62032 0.93977 0.81019 0.0
H439 H 0.55393 0.97391 0.76506 0.0
H440 H 0.56849 0.09133 0.83339 0.0
H441 H 0.56592 0.04836 0.82355 0.0
C442 C 0.90907 0.62019 0.03661 0.0
C443 C 0.89612 0.5993 0.04481 0.0
C444 C 0.93382 0.6195 0.03321 0.0
C445 C 0.98305 0.58215 0.00184 0.0
H446 H 0.02141 0.62298 0.07656 0.0
C447 C 0.08566 0.57748 -2e-05 0.0
C448 C 0.09832 0.5987 0.00635 0.0
C449 C 0.06101 0.57687 0.00578 0.0
C450 C 0.01102 0.61174 0.05486 0.0
H451 H 0.89887 0.56123 0.05469 0.0
H452 H 0.94217 0.55996 0.0476 0.0
H453 H 0.97825 0.62349 0.08375 0.0
H454 H 0.09514 0.63603 0.02293 0.0
H455 H 0.05215 0.63535 0.03099 0.0
H456 H 0.0155 0.57106 0.97145 0.0
C457 C 0.93309 0.57687 0.04455 0.0
C458 C 0.98631 0.61194 0.0593 0.0
C459 C 0.90835 0.57764 0.04892 0.0
C460 C 0.08586 0.61935 0.01818 0.0
C461 C 0.06118 0.61888 0.02313 0.0
C462 C 0.00775 0.58226 -0.00325 0.0
C463 C 0.946 0.59782 0.03697 0.0
C464 C 0.97215 0.59717 0.03282 0.0
C465 C 0.0484 0.5976 0.01731 0.0
C466 C 0.02209 0.59711 0.02314 0.0
H467 H 0.90009 0.63714 0.03336 0.0
H468 H 0.94344 0.63586 0.02708 0.0
H469 H 0.9724 0.57075 0.98081 0.0
H470 H 0.09477 0.56121 0.99146 0.0
H471 H 0.05193 0.56004 0.00184 0.0
C472 C 0.55803 0.22369 0.90769 0.0
C473 C 0.54384 0.20842 0.8821 0.0
C474 C 0.54765 0.23787 0.94047 0.0
C475 C 0.48992 0.256 0.99092 0.0
H476 H 0.51664 0.22746 0.09633 0.0
C477 C 0.43249 0.21444 0.12199 0.0
C478 C 0.44227 0.2079 0.16274 0.0
C479 C 0.44568 0.22822 0.09245 0.0
C480 C 0.50906 0.23647 0.06803 0.0
H481 H 0.50768 0.19809 0.8666 0.0
H482 H 0.48958 0.22287 0.92318 0.0
H483 H 0.5399 0.22876 0.02961 0.0
H484 H 0.47202 0.21233 0.20723 0.0
H485 H 0.49462 0.23772 0.15692 0.0
H486 H 0.45857 0.2627 0.02897 0.0
C487 C 0.50865 0.22393 0.91843 0.0
C488 C 0.52257 0.23718 0.02942 0.0
C489 C 0.51903 0.20949 0.88634 0.0
C490 C 0.46433 0.21713 0.17559 0.0
C491 C 0.47728 0.23148 0.14658 0.0
C492 C 0.47649 0.25569 0.02986 0.0
C493 C 0.52293 0.23724 0.94742 0.0
C494 C 0.5125 0.24536 0.98978 0.0
C495 C 0.46878 0.23599 0.10352 0.0
C496 C 0.48524 0.24424 0.06798 0.0
H497 H 0.57723 0.22324 0.90491 0.0
H498 H 0.55903 0.248 0.96238 0.0
H499 H 0.4819 0.26278 0.96087 0.0
H500 H 0.41548 0.20732 0.11156 0.0
H501 H 0.43844 0.23096 0.05967 0.0
C502 C 0.77282 0.55181 0.16136 0.0
C503 C 0.782 0.54148 0.1229 0.0
C504 C 0.75893 0.53833 0.19025 0.0
C505 C 0.75473 0.47472 0.21873 0.0
H506 H 0.72621 0.50248 0.32335 0.0
C507 C 0.76812 0.4295 0.38276 0.0
C508 C 0.78345 0.44454 0.40651 0.0
C509 C 0.75363 0.43878 0.34933 0.0
C510 C 0.73359 0.49426 0.29399 0.0
H511 H 0.78167 0.51037 0.08097 0.0
H512 H 0.75574 0.48732 0.12936 0.0
H513 H 0.7252 0.52427 0.25358 0.0
H514 H 0.79362 0.48115 0.41802 0.0
H515 H 0.76811 0.49739 0.36041 0.0
H516 H 0.76376 0.44512 0.25949 0.0
C517 C 0.76028 0.50527 0.13902 0.0
C518 C 0.73334 0.50684 0.25407 0.0
C519 C 0.77492 0.5185 0.11094 0.0
C520 C 0.78215 0.46918 0.39978 0.0
C521 C 0.76732 0.47848 0.36713 0.0
C522 C 0.75442 0.46196 0.25822 0.0
C523 C 0.75354 0.51437 0.18064 0.0
C524 C 0.74567 0.49807 0.21688 0.0
C525 C 0.75391 0.46326 0.34002 0.0
C526 C 0.74544 0.47235 0.29691 0.0
H527 H 0.7782 0.56956 0.17112 0.0
H528 H 0.75438 0.54621 0.22177 0.0
H529 H 0.76442 0.46704 0.19134 0.0
H530 H 0.76879 0.41042 0.38743 0.0
H531 H 0.7435 0.4267 0.32875 0.0
C532 C 0.51731 0.77841 0.6598 0.0
C533 C 0.54204 0.77976 0.66539 0.0
C534 C 0.50761 0.76385 0.62715 0.0
C535 C 0.52344 0.75189 0.51703 0.0
H536 H 0.46016 0.72479 0.51263 0.0
C537 C 0.46689 0.77408 0.36996 0.0
C538 C 0.44425 0.78207 0.3822 0.0
C539 C 0.47981 0.75926 0.39822 0.0
C540 C 0.47787 0.73231 0.51308 0.0
H541 H 0.57593 0.76524 0.64449 0.0
H542 H 0.55894 0.74034 0.58601 0.0
H543 H 0.48235 0.7244 0.58202 0.0
H544 H 0.41647 0.7799 0.43134 0.0
H545 H 0.43931 0.75559 0.48217 0.0
H546 H 0.51834 0.76254 0.45044 0.0
C547 C 0.54709 0.7503 0.60735 0.0
C548 C 0.49067 0.73178 0.55276 0.0
C549 C 0.55679 0.76456 0.64072 0.0
C550 C 0.43393 0.77377 0.42135 0.0
C551 C 0.44709 0.7596 0.4503 0.0
C552 C 0.51051 0.7529 0.47776 0.0
C553 C 0.52251 0.75074 0.59891 0.0
C554 C 0.51296 0.74291 0.55567 0.0
C555 C 0.47072 0.75313 0.44017 0.0
C556 C 0.48689 0.74461 0.47607 0.0
H557 H 0.50556 0.78976 0.67877 0.0
H558 H 0.48863 0.76474 0.62124 0.0
H559 H 0.54056 0.76069 0.51824 0.0
H560 H 0.47502 0.78022 0.33952 0.0
H561 H 0.49755 0.75399 0.38836 0.0
C562 C 0.22742 0.55566 0.89465 0.0
C563 C 0.21078 0.54146 0.91713 0.0
C564 C 0.24229 0.54557 0.86264 0.0
C565 C 0.24295 0.52244 0.77166 0.0
H566 H 0.26809 0.45833 0.76957 0.0
C567 C 0.2207 0.43415 0.67356 0.0
C568 C 0.21348 0.44496 0.63413 0.0
C569 C 0.23486 0.44661 0.70357 0.0
C570 C 0.26114 0.47627 0.76937 0.0
H571 H 0.19861 0.50541 0.92803 0.0
H572 H 0.22468 0.48779 0.87282 0.0
H573 H 0.26663 0.4802 0.83923 0.0
H574 H 0.21739 0.47573 0.59198 0.0
H575 H 0.24371 0.49694 0.64264 0.0
H576 H 0.23454 0.51797 0.70385 0.0
C577 C 0.22623 0.50665 0.87946 0.0
C578 C 0.26063 0.48887 0.80925 0.0
C579 C 0.21108 0.51676 0.91072 0.0
C580 C 0.22269 0.46724 0.6226 0.0
C581 C 0.23753 0.47942 0.65194 0.0
C582 C 0.24293 0.5097 0.73213 0.0
C583 C 0.24103 0.52111 0.85343 0.0
C584 C 0.25013 0.51149 0.81114 0.0
C585 C 0.2424 0.47001 0.69424 0.0
C586 C 0.25044 0.4858 0.73108 0.0
H587 H 0.22759 0.57477 0.89912 0.0
H588 H 0.25353 0.55708 0.84294 0.0
H589 H 0.2347 0.53985 0.77208 0.0
H590 H 0.21362 0.41697 0.68301 0.0
H591 H 0.23789 0.43856 0.73557 0.0
loop_
_geom_bond_atom_site_label_1
_geom_bond_atom_site_label_2
_geom_bond_distance
_geom_bond_site_symmetry_2
_ccdc_geom_bond_type
Mg0 O1 2.028 . S
Mg0 O7 1.986 . S
Mg0 O9 2.114 . S
Mg0 O10 2.251 . S
Mg0 O13 2.010 . S
O1 Mg0 2.028 . S
O1 C4 1.250 . S
O2 Mg3 2.028 . S
O2 C4 1.248 . S
Mg3 O2 2.028 . S
Mg3 O8 2.032 . S
Mg3 O10 2.079 . S
C4 O1 1.250 . S
C4 O2 1.248 . S
C5 O6 1.264 . S
C5 O13 1.249 . S
O6 C5 1.264 . S
O7 Mg0 1.986 . S
O7 C11 1.246 . S
O8 Mg3 2.032 . S
O8 C11 1.259 . S
O9 Mg0 2.114 . S
O9 C12 1.252 . S
O10 Mg0 2.251 . S
O10 Mg3 2.079 . S
O10 C12 1.273 . S
C11 O7 1.246 . S
C11 O8 1.259 . S
C12 O9 1.252 . S
C12 O10 1.273 . S
O13 Mg0 2.010 . S
O13 C5 1.249 . S
Mg14 O15 2.028 . S
Mg14 O21 1.986 . S
Mg14 O23 2.114 . S
Mg14 O24 2.251 . S
Mg14 O27 2.010 . S
O15 Mg14 2.028 . S
O15 C18 1.250 . S
O16 Mg17 2.028 . S
O16 C18 1.248 . S
Mg17 O16 2.028 . S
Mg17 O22 2.032 . S
Mg17 O24 2.079 . S
C18 O15 1.250 . S
C18 O16 1.248 . S
C19 O20 1.264 . S
C19 O27 1.249 . S
O20 C19 1.264 . S
O21 Mg14 1.986 . S
O21 C25 1.246 . S
O22 Mg17 2.032 . S
O22 C25 1.259 . S
O23 Mg14 2.114 . S
O23 C26 1.252 . S
O24 Mg14 2.251 . S
O24 Mg17 2.079 . S
O24 C26 1.273 . S
C25 O21 1.246 . S
C25 O22 1.259 . S
C26 O23 1.252 . S
C26 O24 1.273 . S
O27 Mg14 2.010 . S
O27 C19 1.249 . S
Mg28 O29 2.028 . S
Mg28 O35 1.986 . S
Mg28 O37 2.114 . S
Mg28 O38 2.251 . S
Mg28 O41 2.010 . S
O29 Mg28 2.028 . S
O29 C32 1.250 . S
O30 Mg31 2.028 . S
O30 C32 1.248 . S
Mg31 O30 2.028 . S
Mg31 O36 2.032 . S
Mg31 O38 2.079 . S
C32 O29 1.250 . S
C32 O30 1.248 . S
C33 O34 1.264 . S
C33 O41 1.249 . S
O34 C33 1.264 . S
O35 Mg28 1.986 . S
O35 C39 1.246 . S
O36 Mg31 2.032 . S
O36 C39 1.259 . S
O37 Mg28 2.114 . S
O37 C40 1.252 . S
O38 Mg28 2.251 . S
O38 Mg31 2.079 . S
O38 C40 1.273 . S
C39 O35 1.246 . S
C39 O36 1.259 . S
C40 O37 1.252 . S
C40 O38 1.273 . S
O41 Mg28 2.010 . S
O41 C33 1.249 . S
Mg42 O43 2.028 . S
Mg42 O49 1.986 1_554 S
Mg42 O51 2.114 . S
Mg42 O52 2.251 . S
Mg42 O55 2.010 . S
O43 Mg42 2.028 . S
O43 C46 1.250 . S
O44 Mg45 2.028 . S
O44 C46 1.248 . S
Mg45 O44 2.028 . S
Mg45 O50 2.032 1_554 S
Mg45 O52 2.079 . S
C46 O43 1.250 . S
C46 O44 1.248 . S
C47 O48 1.264 . S
C47 O55 1.249 . S
O48 C47 1.264 . S
O49 Mg42 1.986 1_556 S
O49 C53 1.246 . S
O50 Mg45 2.032 1_556 S
O50 C53 1.259 . S
O51 Mg42 2.114 . S
O51 C54 1.252 . S
O52 Mg42 2.251 . S
O52 Mg45 2.079 . S
O52 C54 1.273 . S
C53 O49 1.246 . S
C53 O50 1.259 . S
C54 O51 1.252 . S
C54 O52 1.273 . S
O55 Mg42 2.010 . S
O55 C47 1.249 . S
Mg56 O57 2.028 . S
Mg56 O63 1.986 . S
Mg56 O65 2.114 . S
Mg56 O66 2.251 . S
Mg56 O69 2.010 . S
O57 Mg56 2.028 . S
O57 C60 1.250 . S
O58 Mg59 2.028 . S
O58 C60 1.248 . S
Mg59 O58 2.028 . S
Mg59 O64 2.032 . S
Mg59 O66 2.079 . S
C60 O57 1.250 . S
C60 O58 1.248 . S
C61 O62 1.264 . S
C61 O69 1.249 . S
O62 C61 1.264 . S
O63 Mg56 1.986 . S
O63 C67 1.246 . S
O64 Mg59 2.032 . S
O64 C67 1.259 . S
O65 Mg56 2.114 . S
O65 C68 1.252 . S
O66 Mg56 2.251 . S
O66 Mg59 2.079 . S
O66 C68 1.273 . S
C67 O63 1.246 . S
C67 O64 1.259 . S
C68 O65 1.252 . S
C68 O66 1.273 . S
O69 Mg56 2.010 . S
O69 C61 1.249 . S
Mg70 O71 2.028 . S
Mg70 O77 1.986 . S
Mg70 O79 2.114 . S
Mg70 O80 2.251 . S
Mg70 O83 2.010 . S
O71 Mg70 2.028 . S
O71 C74 1.250 . S
O72 Mg73 2.028 . S
O72 C74 1.248 . S
Mg73 O72 2.028 . S
Mg73 O78 2.032 . S
Mg73 O80 2.079 . S
C74 O71 1.250 . S
C74 O72 1.248 . S
C75 O76 1.264 . S
C75 O83 1.249 . S
O76 C75 1.264 . S
O77 Mg70 1.986 . S
O77 C81 1.246 . S
O78 Mg73 2.032 . S
O78 C81 1.259 . S
O79 Mg70 2.114 . S
O79 C82 1.252 . S
O80 Mg70 2.251 . S
O80 Mg73 2.079 . S
O80 C82 1.273 . S
C81 O77 1.246 . S
C81 O78 1.259 . S
C82 O79 1.252 . S
C82 O80 1.273 . S
O83 Mg70 2.010 . S
O83 C75 1.249 . S
Mg84 O85 2.028 . S
Mg84 O91 1.986 . S
Mg84 O93 2.114 . S
Mg84 O94 2.251 . S
Mg84 O97 2.010 . S
O85 Mg84 2.028 . S
O85 C88 1.250 . S
O86 Mg87 2.028 . S
O86 C88 1.248 . S
Mg87 O86 2.028 . S
Mg87 O92 2.032 . S
Mg87 O94 2.079 . S
C88 O85 1.250 . S
C88 O86 1.248 . S
C89 O90 1.264 . S
C89 O97 1.249 . S
O90 C89 1.264 . S
O91 Mg84 1.986 . S
O91 C95 1.246 . S
O92 Mg87 2.032 . S
O92 C95 1.259 . S
O93 Mg84 2.114 . S
O93 C96 1.252 . S
O94 Mg84 2.251 . S
O94 Mg87 2.079 . S
O94 C96 1.273 . S
C95 O91 1.246 . S
C95 O92 1.259 . S
C96 O93 1.252 . S
C96 O94 1.273 . S
O97 Mg84 2.010 . S
O97 C89 1.249 . S
Mg98 O99 2.028 1_554 S
Mg98 O105 1.986 . S
Mg98 O107 2.114 1_554 S
Mg98 O108 2.251 . S
Mg98 O111 2.010 . S
O99 Mg98 2.028 1_556 S
O99 C102 1.250 . S
O100 Mg101 2.028 1_556 S
O100 C102 1.248 . S
Mg101 O100 2.028 1_554 S
Mg101 O106 2.032 . S
Mg101 O108 2.079 . S
C102 O99 1.250 . S
C102 O100 1.248 . S
C103 O104 1.264 . S
C103 O111 1.249 . S
O104 C103 1.264 . S
O105 Mg98 1.986 . S
O105 C109 1.246 . S
O106 Mg101 2.032 . S
O106 C109 1.259 . S
O107 Mg98 2.114 1_556 S
O107 C110 1.252 1_556 S
O108 Mg98 2.251 . S
O108 Mg101 2.079 . S
O108 C110 1.273 . S
C109 O105 1.246 . S
C109 O106 1.259 . S
C110 O107 1.252 1_554 S
C110 O108 1.273 . S
O111 Mg98 2.010 . S
O111 C103 1.249 . S
C112 C113 1.349 . S
C112 C114 1.327 . S
C112 H137 0.950 . S
C113 C112 1.349 . S
C113 C129 1.349 . S
C114 C112 1.327 . S
C114 C133 1.429 . S
C114 H138 0.950 . S
C115 C132 1.574 . S
C115 C134 1.368 . S
C115 H139 0.949 . S
H116 C120 0.949 . S
C117 C118 1.349 . S
C117 C119 1.327 . S
C117 H140 0.950 . S
C118 C117 1.349 . S
C118 C130 1.349 . S
C119 C117 1.327 . S
C119 C135 1.429 . S
C119 H141 0.950 . S
C120 H116 0.949 . S
C120 C128 1.574 . S
C120 C136 1.368 . S
H121 C129 0.950 . S
H122 C127 0.950 . S
H123 C128 0.949 . S
H124 C130 0.950 . S
H125 C131 0.950 . S
H126 C132 0.949 . S
C127 H122 0.950 . S
C127 C129 1.327 . S
C127 C133 1.429 . S
C128 C120 1.574 . S
C128 H123 0.949 . S
C128 C134 1.368 . S
C129 C113 1.349 . S
C129 H121 0.950 . S
C129 C127 1.327 . S
C130 C118 1.349 . S
C130 H124 0.950 . S
C130 C131 1.327 . S
C131 H125 0.950 . S
C131 C130 1.327 . S
C131 C135 1.429 . S
C132 C115 1.574 . S
C132 H126 0.949 . S
C132 C136 1.368 . S
C133 C114 1.429 . S
C133 C127 1.429 . S
C133 C134 1.523 . S
C134 C115 1.368 . S
C134 C128 1.368 . S
C134 C133 1.523 . S
C135 C119 1.429 . S
C135 C131 1.429 . S
C135 C136 1.523 . S
C136 C120 1.368 . S
C136 C132 1.368 . S
C136 C135 1.523 . S
H137 C112 0.950 . S
H138 C114 0.950 . S
H139 C115 0.949 . S
H140 C117 0.950 . S
H141 C119 0.950 . S
C142 C143 1.349 . S
C142 C144 1.327 . S
C142 H167 0.950 . S
C143 C142 1.349 . S
C143 C159 1.349 . S
C144 C142 1.327 . S
C144 C163 1.429 . S
C144 H168 0.950 . S
C145 C162 1.574 . S
C145 C164 1.368 . S
C145 H169 0.949 . S
H146 C150 0.949 . S
C147 C148 1.349 . S
C147 C149 1.327 . S
C147 H170 0.950 . S
C148 C147 1.349 . S
C148 C160 1.349 . S
C149 C147 1.327 . S
C149 C165 1.429 . S
C149 H171 0.950 . S
C150 H146 0.949 . S
C150 C158 1.574 . S
C150 C166 1.368 . S
H151 C159 0.950 . S
H152 C157 0.950 . S
H153 C158 0.949 . S
H154 C160 0.950 . S
H155 C161 0.950 . S
H156 C162 0.949 . S
C157 H152 0.950 . S
C157 C159 1.327 . S
C157 C163 1.429 . S
C158 C150 1.574 . S
C158 H153 0.949 . S
C158 C164 1.368 . S
C159 C143 1.349 . S
C159 H151 0.950 . S
C159 C157 1.327 . S
C160 C148 1.349 . S
C160 H154 0.950 . S
C160 C161 1.327 . S
C161 H155 0.950 . S
C161 C160 1.327 . S
C161 C165 1.429 . S
C162 C145 1.574 . S
C162 H156 0.949 . S
C162 C166 1.368 . S
C163 C144 1.429 . S
C163 C157 1.429 . S
C163 C164 1.523 . S
C164 C145 1.368 . S
C164 C158 1.368 . S
C164 C163 1.523 . S
C165 C149 1.429 . S
C165 C161 1.429 . S
C165 C166 1.523 . S
C166 C150 1.368 . S
C166 C162 1.368 . S
C166 C165 1.523 . S
H167 C142 0.950 . S
H168 C144 0.950 . S
H169 C145 0.949 . S
H170 C147 0.950 . S
H171 C149 0.950 . S
C172 C173 1.349 . S
C172 C174 1.327 . S
C172 H197 0.950 . S
C173 C172 1.349 . S
C173 C189 1.349 . S
C174 C172 1.327 . S
C174 C193 1.429 . S
C174 H198 0.950 . S
C175 C192 1.574 . S
C175 C194 1.368 . S
C175 H199 0.949 . S
H176 C180 0.949 . S
C177 C178 1.349 . S
C177 C179 1.327 . S
C177 H200 0.950 . S
C178 C177 1.349 . S
C178 C190 1.349 . S
C179 C177 1.327 . S
C179 C195 1.429 . S
C179 H201 0.950 . S
C180 H176 0.949 . S
C180 C188 1.574 1_556 S
C180 C196 1.368 . S
H181 C189 0.950 . S
H182 C187 0.950 . S
H183 C188 0.949 . S
H184 C190 0.950 . S
H185 C191 0.950 . S
H186 C192 0.949 . S
C187 H182 0.950 . S
C187 C189 1.327 . S
C187 C193 1.429 . S
C188 C180 1.574 1_554 S
C188 H183 0.949 . S
C188 C194 1.368 . S
C189 C173 1.349 . S
C189 H181 0.950 . S
C189 C187 1.327 . S
C190 C178 1.349 . S
C190 H184 0.950 . S
C190 C191 1.327 . S
C191 H185 0.950 . S
C191 C190 1.327 . S
C191 C195 1.429 . S
C192 C175 1.574 . S
C192 H186 0.949 . S
C192 C196 1.368 1_554 S
C193 C174 1.429 . S
C193 C187 1.429 . S
C193 C194 1.523 . S
C194 C175 1.368 . S
C194 C188 1.368 . S
C194 C193 1.523 . S
C195 C179 1.429 . S
C195 C191 1.429 . S
C195 C196 1.523 . S
C196 C180 1.368 . S
C196 C192 1.368 1_556 S
C196 C195 1.523 . S
H197 C172 0.950 . S
H198 C174 0.950 . S
H199 C175 0.949 . S
H200 C177 0.950 . S
H201 C179 0.950 . S
C202 C203 1.349 . S
C202 C204 1.327 . S
C202 H227 0.950 . S
C203 C202 1.349 . S
C203 C219 1.349 . S
C204 C202 1.327 . S
C204 C223 1.429 . S
C204 H228 0.950 . S
C205 C222 1.574 . S
C205 C224 1.368 . S
C205 H229 0.949 . S
H206 C210 0.949 . S
C207 C208 1.349 . S
C207 C209 1.327 . S
C207 H230 0.950 . S
C208 C207 1.349 . S
C208 C220 1.349 . S
C209 C207 1.327 . S
C209 C225 1.429 . S
C209 H231 0.950 . S
C210 H206 0.949 . S
C210 C218 1.574 . S
C210 C226 1.368 . S
H211 C219 0.950 . S
H212 C217 0.950 . S
H213 C218 0.949 . S
H214 C220 0.950 . S
H215 C221 0.950 . S
H216 C222 0.949 . S
C217 H212 0.950 . S
C217 C219 1.327 . S
C217 C223 1.429 . S
C218 C210 1.574 . S
C218 H213 0.949 . S
C218 C224 1.368 . S
C219 C203 1.349 . S
C219 H211 0.950 . S
C219 C217 1.327 . S
C220 C208 1.349 . S
C220 H214 0.950 . S
C220 C221 1.327 . S
C221 H215 0.950 . S
C221 C220 1.327 . S
C221 C225 1.429 . S
C222 C205 1.574 . S
C222 H216 0.949 . S
C222 C226 1.368 . S
C223 C204 1.429 . S
C223 C217 1.429 . S
C223 C224 1.523 . S
C224 C205 1.368 . S
C224 C218 1.368 . S
C224 C223 1.523 . S
C225 C209 1.429 . S
C225 C221 1.429 . S
C225 C226 1.523 . S
C226 C210 1.368 . S
C226 C222 1.368 . S
C226 C225 1.523 . S
H227 C202 0.950 . S
H228 C204 0.950 . S
H229 C205 0.949 . S
H230 C207 0.950 . S
H231 C209 0.950 . S
C232 C233 1.349 . S
C232 C234 1.327 . S
C232 H257 0.950 . S
C233 C232 1.349 . S
C233 C249 1.349 . S
C234 C232 1.327 . S
C234 C253 1.429 . S
C234 H258 0.950 . S
C235 C252 1.574 . S
C235 C254 1.368 . S
C235 H259 0.949 . S
H236 C240 0.949 . S
C237 C238 1.349 . S
C237 C239 1.327 . S
C237 H260 0.950 . S
C238 C237 1.349 . S
C238 C250 1.349 . S
C239 C237 1.327 . S
C239 C255 1.429 . S
C239 H261 0.950 . S
C240 H236 0.949 . S
C240 C248 1.574 . S
C240 C256 1.368 . S
H241 C249 0.950 . S
H242 C247 0.950 . S
H243 C248 0.949 . S
H244 C250 0.950 . S
H245 C251 0.950 . S
H246 C252 0.949 . S
C247 H242 0.950 . S
C247 C249 1.327 . S
C247 C253 1.429 . S
C248 C240 1.574 . S
C248 H243 0.949 . S
C248 C254 1.368 . S
C249 C233 1.349 . S
C249 H241 0.950 . S
C249 C247 1.327 . S
C250 C238 1.349 . S
C250 H244 0.950 . S
C250 C251 1.327 . S
C251 H245 0.950 . S
C251 C250 1.327 . S
C251 C255 1.429 . S
C252 C235 1.574 . S
C252 H246 0.949 . S
C252 C256 1.368 . S
C253 C234 1.429 . S
C253 C247 1.429 . S
C253 C254 1.523 . S
C254 C235 1.368 . S
C254 C248 1.368 . S
C254 C253 1.523 . S
C255 C239 1.429 . S
C255 C251 1.429 . S
C255 C256 1.523 . S
C256 C240 1.368 . S
C256 C252 1.368 . S
C256 C255 1.523 . S
H257 C232 0.950 . S
H258 C234 0.950 . S
H259 C235 0.949 . S
H260 C237 0.950 . S
H261 C239 0.950 . S
C262 C263 1.349 . S
C262 C264 1.327 . S
C262 H287 0.950 . S
C263 C262 1.349 . S
C263 C279 1.349 . S
C264 C262 1.327 . S
C264 C283 1.429 . S
C264 H288 0.950 . S
C265 C282 1.574 . S
C265 C284 1.368 . S
C265 H289 0.949 . S
H266 C270 0.949 . S
C267 C268 1.349 . S
C267 C269 1.327 . S
C267 H290 0.950 . S
C268 C267 1.349 . S
C268 C280 1.349 . S
C269 C267 1.327 . S
C269 C285 1.429 . S
C269 H291 0.950 . S
C270 H266 0.949 . S
C270 C278 1.574 . S
C270 C286 1.368 . S
H271 C279 0.950 . S
H272 C277 0.950 . S
H273 C278 0.949 . S
H274 C280 0.950 . S
H275 C281 0.950 . S
H276 C282 0.949 . S
C277 H272 0.950 . S
C277 C279 1.327 . S
C277 C283 1.429 . S
C278 C270 1.574 . S
C278 H273 0.949 . S
C278 C284 1.368 . S
C279 C263 1.349 . S
C279 H271 0.950 . S
C279 C277 1.327 . S
C280 C268 1.349 . S
C280 H274 0.950 . S
C280 C281 1.327 . S
C281 H275 0.950 . S
C281 C280 1.327 . S
C281 C285 1.429 . S
C282 C265 1.574 . S
C282 H276 0.949 . S
C282 C286 1.368 . S
C283 C264 1.429 . S
C283 C277 1.429 . S
C283 C284 1.523 . S
C284 C265 1.368 . S
C284 C278 1.368 . S
C284 C283 1.523 . S
C285 C269 1.429 . S
C285 C281 1.429 . S
C285 C286 1.523 . S
C286 C270 1.368 . S
C286 C282 1.368 . S
C286 C285 1.523 . S
H287 C262 0.950 . S
H288 C264 0.950 . S
H289 C265 0.949 . S
H290 C267 0.950 . S
H291 C269 0.950 . S
C292 C293 1.349 . S
C292 C294 1.327 . S
C292 H317 0.950 . S
C293 C292 1.349 . S
C293 C309 1.349 . S
C294 C292 1.327 . S
C294 C313 1.429 . S
C294 H318 0.950 . S
C295 C312 1.574 . S
C295 C314 1.368 . S
C295 H319 0.949 . S
H296 C300 0.949 . S
C297 C298 1.349 . S
C297 C299 1.327 . S
C297 H320 0.950 . S
C298 C297 1.349 . S
C298 C310 1.349 . S
C299 C297 1.327 . S
C299 C315 1.429 . S
C299 H321 0.950 . S
C300 H296 0.949 . S
C300 C308 1.574 . S
C300 C316 1.368 . S
H301 C309 0.950 . S
H302 C307 0.950 . S
H303 C308 0.949 . S
H304 C310 0.950 . S
H305 C311 0.950 . S
H306 C312 0.949 . S
C307 H302 0.950 . S
C307 C309 1.327 . S
C307 C313 1.429 . S
C308 C300 1.574 . S
C308 H303 0.949 . S
C308 C314 1.368 . S
C309 C293 1.349 . S
C309 H301 0.950 . S
C309 C307 1.327 . S
C310 C298 1.349 . S
C310 H304 0.950 . S
C310 C311 1.327 . S
C311 H305 0.950 . S
C311 C310 1.327 . S
C311 C315 1.429 . S
C312 C295 1.574 . S
C312 H306 0.949 . S
C312 C316 1.368 . S
C313 C294 1.429 . S
C313 C307 1.429 . S
C313 C314 1.523 . S
C314 C295 1.368 . S
C314 C308 1.368 . S
C314 C313 1.523 . S
C315 C299 1.429 . S
C315 C311 1.429 . S
C315 C316 1.523 . S
C316 C300 1.368 . S
C316 C312 1.368 . S
C316 C315 1.523 . S
H317 C292 0.950 . S
H318 C294 0.950 . S
H319 C295 0.949 . S
H320 C297 0.950 . S
H321 C299 0.950 . S
C322 C323 1.349 . S
C322 C324 1.327 . S
C322 H347 0.950 . S
C323 C322 1.349 . S
C323 C339 1.349 . S
C324 C322 1.327 . S
C324 C343 1.429 . S
C324 H348 0.950 . S
C325 C342 1.574 . S
C325 C344 1.368 . S
C325 H349 0.949 . S
H326 C330 0.949 . S
C327 C328 1.349 . S
C327 C329 1.327 . S
C327 H350 0.950 . S
C328 C327 1.349 . S
C328 C340 1.349 . S
C329 C327 1.327 . S
C329 C345 1.429 . S
C329 H351 0.950 . S
C330 H326 0.949 . S
C330 C338 1.574 . S
C330 C346 1.368 . S
H331 C339 0.950 . S
H332 C337 0.950 . S
H333 C338 0.949 . S
H334 C340 0.950 . S
H335 C341 0.950 . S
H336 C342 0.949 . S
C337 H332 0.950 . S
C337 C339 1.327 . S
C337 C343 1.429 . S
C338 C330 1.574 . S
C338 H333 0.949 . S
C338 C344 1.368 . S
C339 C323 1.349 . S
C339 H331 0.950 . S
C339 C337 1.327 . S
C340 C328 1.349 . S
C340 H334 0.950 . S
C340 C341 1.327 . S
C341 H335 0.950 . S
C341 C340 1.327 . S
C341 C345 1.429 . S
C342 C325 1.574 . S
C342 H336 0.949 . S
C342 C346 1.368 . S
C343 C324 1.429 . S
C343 C337 1.429 . S
C343 C344 1.523 . S
C344 C325 1.368 . S
C344 C338 1.368 . S
C344 C343 1.523 . S
C345 C329 1.429 . S
C345 C341 1.429 . S
C345 C346 1.523 . S
C346 C330 1.368 . S
C346 C342 1.368 . S
C346 C345 1.523 . S
H347 C322 0.950 . S
H348 C324 0.950 . S
H349 C325 0.949 . S
H350 C327 0.950 . S
H351 C329 0.950 . S
C352 C353 1.349 . S
C352 C354 1.327 . S
C352 H377 0.950 . S
C353 C352 1.349 . S
C353 C369 1.349 . S
C354 C352 1.327 . S
C354 C373 1.429 . S
C354 H378 0.950 . S
C355 C372 1.574 1_565 S
C355 C374 1.368 . S
C355 H379 0.949 . S
H356 C360 0.949 . S
C357 C358 1.349 . S
C357 C359 1.327 . S
C357 H380 0.950 . S
C358 C357 1.349 . S
C358 C370 1.349 . S
C359 C357 1.327 . S
C359 C375 1.429 . S
C359 H381 0.950 . S
C360 H356 0.949 . S
C360 C368 1.574 1_545 S
C360 C376 1.368 . S
H361 C369 0.950 . S
H362 C367 0.950 . S
H363 C368 0.949 . S
H364 C370 0.950 . S
H365 C371 0.950 . S
H366 C372 0.949 . S
C367 H362 0.950 . S
C367 C369 1.327 . S
C367 C373 1.429 . S
C368 C360 1.574 1_565 S
C368 H363 0.949 . S
C368 C374 1.368 . S
C369 C353 1.349 . S
C369 H361 0.950 . S
C369 C367 1.327 . S
C370 C358 1.349 . S
C370 H364 0.950 . S
C370 C371 1.327 . S
C371 H365 0.950 . S
C371 C370 1.327 . S
C371 C375 1.429 . S
C372 C355 1.574 1_545 S
C372 H366 0.949 . S
C372 C376 1.368 . S
C373 C354 1.429 . S
C373 C367 1.429 . S
C373 C374 1.523 . S
C374 C355 1.368 . S
C374 C368 1.368 . S
C374 C373 1.523 . S
C375 C359 1.429 . S
C375 C371 1.429 . S
C375 C376 1.523 . S
C376 C360 1.368 . S
C376 C372 1.368 . S
C376 C375 1.523 . S
H377 C352 0.950 . S
H378 C354 0.950 . S
H379 C355 0.949 . S
H380 C357 0.950 . S
H381 C359 0.950 . S
C382 C383 1.349 . S
C382 C384 1.327 . S
C382 H407 0.950 . S
C383 C382 1.349 . S
C383 C399 1.349 . S
C384 C382 1.327 . S
C384 C403 1.429 . S
C384 H408 0.950 . S
C385 C402 1.574 1_655 S
C385 C404 1.368 . S
C385 H409 0.949 . S
H386 C390 0.949 . S
C387 C388 1.349 . S
C387 C389 1.327 . S
C387 H410 0.950 . S
C388 C387 1.349 . S
C388 C400 1.349 . S
C389 C387 1.327 . S
C389 C405 1.429 . S
C389 H411 0.950 . S
C390 H386 0.949 . S
C390 C398 1.574 1_455 S
C390 C406 1.368 . S
H391 C399 0.950 . S
H392 C397 0.950 . S
H393 C398 0.949 . S
H394 C400 0.950 . S
H395 C401 0.950 . S
H396 C402 0.949 . S
C397 H392 0.950 . S
C397 C399 1.327 . S
C397 C403 1.429 . S
C398 C390 1.574 1_655 S
C398 H393 0.949 . S
C398 C404 1.368 . S
C399 C383 1.349 . S
C399 H391 0.950 . S
C399 C397 1.327 . S
C400 C388 1.349 . S
C400 H394 0.950 . S
C400 C401 1.327 . S
C401 H395 0.950 . S
C401 C400 1.327 . S
C401 C405 1.429 . S
C402 C385 1.574 1_455 S
C402 H396 0.949 . S
C402 C406 1.368 . S
C403 C384 1.429 . S
C403 C397 1.429 . S
C403 C404 1.523 . S
C404 C385 1.368 . S
C404 C398 1.368 . S
C404 C403 1.523 . S
C405 C389 1.429 . S
C405 C401 1.429 . S
C405 C406 1.523 . S
C406 C390 1.368 . S
C406 C402 1.368 . S
C406 C405 1.523 . S
H407 C382 0.950 . S
H408 C384 0.950 . S
H409 C385 0.949 . S
H410 C387 0.950 . S
H411 C389 0.950 . S
C412 C413 1.349 . S
C412 C414 1.327 . S
C412 H437 0.950 . S
C413 C412 1.349 . S
C413 C429 1.349 . S
C414 C412 1.327 . S
C414 C433 1.429 . S
C414 H438 0.950 . S
C415 C432 1.574 1_565 S
C415 C434 1.368 . S
C415 H439 0.949 . S
H416 C420 0.949 . S
C417 C418 1.349 . S
C417 C419 1.327 . S
C417 H440 0.950 . S
C418 C417 1.349 . S
C418 C430 1.349 . S
C419 C417 1.327 . S
C419 C435 1.429 . S
C419 H441 0.950 . S
C420 H416 0.949 . S
C420 C428 1.574 1_545 S
C420 C436 1.368 . S
H421 C429 0.950 . S
H422 C427 0.950 . S
H423 C428 0.949 . S
H424 C430 0.950 . S
H425 C431 0.950 . S
H426 C432 0.949 . S
C427 H422 0.950 . S
C427 C429 1.327 . S
C427 C433 1.429 . S
C428 C420 1.574 1_565 S
C428 H423 0.949 . S
C428 C434 1.368 . S
C429 C413 1.349 . S
C429 H421 0.950 . S
C429 C427 1.327 . S
C430 C418 1.349 . S
C430 H424 0.950 . S
C430 C431 1.327 . S
C431 H425 0.950 . S
C431 C430 1.327 . S
C431 C435 1.429 . S
C432 C415 1.574 1_545 S
C432 H426 0.949 . S
C432 C436 1.368 . S
C433 C414 1.429 . S
C433 C427 1.429 . S
C433 C434 1.523 . S
C434 C415 1.368 . S
C434 C428 1.368 . S
C434 C433 1.523 . S
C435 C419 1.429 . S
C435 C431 1.429 . S
C435 C436 1.523 . S
C436 C420 1.368 . S
C436 C432 1.368 . S
C436 C435 1.523 . S
H437 C412 0.950 . S
H438 C414 0.950 . S
H439 C415 0.949 . S
H440 C417 0.950 . S
H441 C419 0.950 . S
C442 C443 1.349 . S
C442 C444 1.327 . S
C442 H467 0.950 . S
C443 C442 1.349 . S
C443 C459 1.349 1_554 S
C444 C442 1.327 . S
C444 C463 1.429 . S
C444 H468 0.950 . S
C445 C462 1.573 1_656 S
C445 C464 1.365 1_556 S
C445 H469 0.953 . S
H446 C450 0.949 . S
C447 C448 1.349 . S
C447 C449 1.327 . S
C447 H470 0.950 1_554 S
C448 C447 1.349 . S
C448 C460 1.349 . S
C449 C447 1.327 . S
C449 C465 1.429 . S
C449 H471 0.950 1_554 S
C450 H446 0.949 . S
C450 C458 1.574 1_455 S
C450 C466 1.368 . S
H451 C459 0.950 . S
H452 C457 0.950 . S
H453 C458 0.949 . S
H454 C460 0.950 . S
H455 C461 0.950 . S
H456 C462 0.949 1_556 S
C457 H452 0.950 . S
C457 C459 1.327 . S
C457 C463 1.429 1_556 S
C458 C450 1.574 1_655 S
C458 H453 0.949 . S
C458 C464 1.368 . S
C459 C443 1.349 1_556 S
C459 H451 0.950 . S
C459 C457 1.327 . S
C460 C448 1.349 . S
C460 H454 0.950 . S
C460 C461 1.327 . S
C461 H455 0.950 . S
C461 C460 1.327 . S
C461 C465 1.429 . S
C462 C445 1.573 1_454 S
C462 H456 0.949 1_554 S
C462 C466 1.368 . S
C463 C444 1.429 . S
C463 C457 1.429 1_554 S
C463 C464 1.523 . S
C464 C445 1.365 1_554 S
C464 C458 1.368 . S
C464 C463 1.523 . S
C465 C449 1.429 . S
C465 C461 1.429 . S
C465 C466 1.523 . S
C466 C450 1.368 . S
C466 C462 1.368 . S
C466 C465 1.523 . S
H467 C442 0.950 . S
H468 C444 0.950 . S
H469 C445 0.953 . S
H470 C447 0.950 1_556 S
H471 C449 0.950 1_556 S
C472 C473 1.349 . S
C472 C474 1.327 . S
C472 H497 0.950 . S
C473 C472 1.349 . S
C473 C489 1.349 . S
C474 C472 1.327 . S
C474 C493 1.429 . S
C474 H498 0.950 . S
C475 C492 1.574 1_556 S
C475 C494 1.368 . S
C475 H499 0.949 . S
H476 C480 0.949 . S
C477 C478 1.349 . S
C477 C479 1.327 . S
C477 H500 0.950 . S
C478 C477 1.349 . S
C478 C490 1.349 . S
C479 C477 1.327 . S
C479 C495 1.429 . S
C479 H501 0.950 . S
C480 H476 0.949 . S
C480 C488 1.574 . S
C480 C496 1.368 . S
H481 C489 0.950 . S
H482 C487 0.950 . S
H483 C488 0.949 . S
H484 C490 0.950 . S
H485 C491 0.950 . S
H486 C492 0.949 . S
C487 H482 0.950 . S
C487 C489 1.327 . S
C487 C493 1.429 . S
C488 C480 1.574 . S
C488 H483 0.949 . S
C488 C494 1.368 1_554 S
C489 C473 1.349 . S
C489 H481 0.950 . S
C489 C487 1.327 . S
C490 C478 1.349 . S
C490 H484 0.950 . S
C490 C491 1.327 . S
C491 H485 0.950 . S
C491 C490 1.327 . S
C491 C495 1.429 . S
C492 C475 1.574 1_554 S
C492 H486 0.949 . S
C492 C496 1.368 . S
C493 C474 1.429 . S
C493 C487 1.429 . S
C493 C494 1.523 . S
C494 C475 1.368 . S
C494 C488 1.368 1_556 S
C494 C493 1.523 . S
C495 C479 1.429 . S
C495 C491 1.429 . S
C495 C496 1.523 . S
C496 C480 1.368 . S
C496 C492 1.368 . S
C496 C495 1.523 . S
H497 C472 0.950 . S
H498 C474 0.950 . S
H499 C475 0.949 . S
H500 C477 0.950 . S
H501 C479 0.950 . S
C502 C503 1.349 . S
C502 C504 1.327 . S
C502 H527 0.950 . S
C503 C502 1.349 . S
C503 C519 1.349 . S
C504 C502 1.327 . S
C504 C523 1.429 . S
C504 H528 0.950 . S
C505 C522 1.574 . S
C505 C524 1.368 . S
C505 H529 0.949 . S
H506 C510 0.949 . S
C507 C508 1.349 . S
C507 C509 1.327 . S
C507 H530 0.950 . S
C508 C507 1.349 . S
C508 C520 1.349 . S
C509 C507 1.327 . S
C509 C525 1.429 . S
C509 H531 0.950 . S
C510 H506 0.949 . S
C510 C518 1.574 . S
C510 C526 1.368 . S
H511 C519 0.950 . S
H512 C517 0.950 . S
H513 C518 0.949 . S
H514 C520 0.950 . S
H515 C521 0.950 . S
H516 C522 0.949 . S
C517 H512 0.950 . S
C517 C519 1.327 . S
C517 C523 1.429 . S
C518 C510 1.574 . S
C518 H513 0.949 . S
C518 C524 1.368 . S
C519 C503 1.349 . S
C519 H511 0.950 . S
C519 C517 1.327 . S
C520 C508 1.349 . S
C520 H514 0.950 . S
C520 C521 1.327 . S
C521 H515 0.950 . S
C521 C520 1.327 . S
C521 C525 1.429 . S
C522 C505 1.574 . S
C522 H516 0.949 . S
C522 C526 1.368 . S
C523 C504 1.429 . S
C523 C517 1.429 . S
C523 C524 1.523 . S
C524 C505 1.368 . S
C524 C518 1.368 . S
C524 C523 1.523 . S
C525 C509 1.429 . S
C525 C521 1.429 . S
C525 C526 1.523 . S
C526 C510 1.368 . S
C526 C522 1.368 . S
C526 C525 1.523 . S
H527 C502 0.950 . S
H528 C504 0.950 . S
H529 C505 0.949 . S
H530 C507 0.950 . S
H531 C509 0.950 . S
C532 C533 1.349 . S
C532 C534 1.327 . S
C532 H557 0.950 . S
C533 C532 1.349 . S
C533 C549 1.349 . S
C534 C532 1.327 . S
C534 C553 1.429 . S
C534 H558 0.950 . S
C535 C552 1.574 . S
C535 C554 1.368 . S
C535 H559 0.949 . S
H536 C540 0.949 . S
C537 C538 1.349 . S
C537 C539 1.327 . S
C537 H560 0.950 . S
C538 C537 1.349 . S
C538 C550 1.349 . S
C539 C537 1.327 . S
C539 C555 1.429 . S
C539 H561 0.950 . S
C540 H536 0.949 . S
C540 C548 1.574 . S
C540 C556 1.368 . S
H541 C549 0.950 . S
H542 C547 0.950 . S
H543 C548 0.949 . S
H544 C550 0.950 . S
H545 C551 0.950 . S
H546 C552 0.949 . S
C547 H542 0.950 . S
C547 C549 1.327 . S
C547 C553 1.429 . S
C548 C540 1.574 . S
C548 H543 0.949 . S
C548 C554 1.368 . S
C549 C533 1.349 . S
C549 H541 0.950 . S
C549 C547 1.327 . S
C550 C538 1.349 . S
C550 H544 0.950 . S
C550 C551 1.327 . S
C551 H545 0.950 . S
C551 C550 1.327 . S
C551 C555 1.429 . S
C552 C535 1.574 . S
C552 H546 0.949 . S
C552 C556 1.368 . S
C553 C534 1.429 . S
C553 C547 1.429 . S
C553 C554 1.523 . S
C554 C535 1.368 . S
C554 C548 1.368 . S
C554 C553 1.523 . S
C555 C539 1.429 . S
C555 C551 1.429 . S
C555 C556 1.523 . S
C556 C540 1.368 . S
C556 C552 1.368 . S
C556 C555 1.523 . S
H557 C532 0.950 . S
H558 C534 0.950 . S
H559 C535 0.949 . S
H560 C537 0.950 . S
H561 C539 0.950 . S
C562 C563 1.349 . S
C562 C564 1.327 . S
C562 H587 0.950 . S
C563 C562 1.349 . S
C563 C579 1.349 . S
C564 C562 1.327 . S
C564 C583 1.429 . S
C564 H588 0.950 . S
C565 C582 1.574 . S
C565 C584 1.368 . S
C565 H589 0.949 . S
H566 C570 0.949 . S
C567 C568 1.349 . S
C567 C569 1.327 . S
C567 H590 0.950 . S
C568 C567 1.349 . S
C568 C580 1.349 . S
C569 C567 1.327 . S
C569 C585 1.429 . S
C569 H591 0.950 . S
C570 H566 0.949 . S
C570 C578 1.574 . S
C570 C586 1.368 . S
H571 C579 0.950 . S
H572 C577 0.950 . S
H573 C578 0.949 . S
H574 C580 0.950 . S
H575 C581 0.950 . S
H576 C582 0.949 . S
C577 H572 0.950 . S
C577 C579 1.327 . S
C577 C583 1.429 . S
C578 C570 1.574 . S
C578 H573 0.949 . S
C578 C584 1.368 . S
C579 C563 1.349 . S
C579 H571 0.950 . S
C579 C577 1.327 . S
C580 C568 1.349 . S
C580 H574 0.950 . S
C580 C581 1.327 . S
C581 H575 0.950 . S
C581 C580 1.327 . S
C581 C585 1.429 . S
C582 C565 1.574 . S
C582 H576 0.949 . S
C582 C586 1.368 . S
C583 C564 1.429 . S
C583 C577 1.429 . S
C583 C584 1.523 . S
C584 C565 1.368 . S
C584 C578 1.368 . S
C584 C583 1.523 . S
C585 C569 1.429 . S
C585 C581 1.429 . S
C585 C586 1.523 . S
C586 C570 1.368 . S
C586 C582 1.368 . S
C586 C585 1.523 . S
H587 C562 0.950 . S
H588 C564 0.950 . S
H589 C565 0.949 . S
H590 C567 0.950 . S
H591 C569 0.950 . S
C113 C4 1.278 . S
C118 C88 1.278 . S
C143 C18 1.278 . S
C148 C102 1.278 . S
C173 C60 1.278 . S
C178 C32 1.278 . S
C203 C74 1.278 . S
C208 C46 1.278 . S
C233 C5 1.035 . S
C238 C75 1.035 . S
C263 C19 1.035 . S
C268 C89 1.035 . S
C293 C103 1.035 1_556 S
C298 C33 1.035 . S
C323 C47 1.035 . S
C328 C61 1.035 . S
C353 C68 1.248 . S
C358 C12 1.248 . S
C383 C26 1.247 . S
C388 C82 1.247 . S
C413 C40 1.247 . S
C418 C96 1.247 . S
C443 C110 1.248 . S
C448 C54 1.248 . S
C473 C95 1.251 . S
C478 C11 1.251 . S
C503 C109 1.251 . S
C508 C25 1.251 . S
C533 C39 1.251 . S
C538 C67 1.251 . S
C563 C53 1.250 . S
C568 C81 1.250 . S
