# Generated by pormake.
# Topology umo, (4)-cn, num edge types: 1
# Building blocks:
#     Node 0, Type 0, BuildingBlock: MUDLON_clean_sbu_0, # of connection points: 4
#     Node 1, Type 0, BuildingBlock: MUDLON_clean_sbu_0, # of connection points: 4
#     Node 2, Type 0, BuildingBlock: MUDLON_clean_sbu_0, # of connection points: 4
#     Node 3, Type 0, BuildingBlock: MUDLON_clean_sbu_0, # of connection points: 4
#     Node 4, Type 0, BuildingBlock: MUDLON_clean_sbu_0, # of connection points: 4
#     Node 5, Type 0, BuildingBlock: MUDLON_clean_sbu_0, # of connection points: 4
#     Node 6, Type 0, BuildingBlock: MUDLON_clean_sbu_0, # of connection points: 4
#     Node 7, Type 0, BuildingBlock: MUDLON_clean_sbu_0, # of connection points: 4
#     Node 8, Type 0, BuildingBlock: MUDLON_clean_sbu_0, # of connection points: 4
#     Node 9, Type 0, BuildingBlock: MUDLON_clean_sbu_0, # of connection points: 4
#     Node 10, Type 0, BuildingBlock: MUDLON_clean_sbu_0, # of connection points: 4
#     Node 11, Type 0, BuildingBlock: MUDLON_clean_sbu_0, # of connection points: 4
#     Edge 12, Type (0, 0), BuildingBlock: XIVTED_clean_linker_0, # of connection points: 2
#     Edge 13, Type (0, 0), BuildingBlock: XIVTED_clean_linker_0, # of connection points: 2
#     Edge 14, Type (0, 0), BuildingBlock: XIVTED_clean_linker_0, # of connection points: 2
#     Edge 15, Type (0, 0), BuildingBlock: XIVTED_clean_linker_0, # of connection points: 2
#     Edge 16, Type (0, 0), BuildingBlock: XIVTED_clean_linker_0, # of connection points: 2
#     Edge 17, Type (0, 0), BuildingBlock: XIVTED_clean_linker_0, # of connection points: 2
#     Edge 18, Type (0, 0), BuildingBlock: XIVTED_clean_linker_0, # of connection points: 2
#     Edge 19, Type (0, 0), BuildingBlock: XIVTED_clean_linker_0, # of connection points: 2
#     Edge 20, Type (0, 0), BuildingBlock: XIVTED_clean_linker_0, # of connection points: 2
#     Edge 21, Type (0, 0), BuildingBlock: XIVTED_clean_linker_0, # of connection points: 2
#     Edge 22, Type (0, 0), BuildingBlock: XIVTED_clean_linker_0, # of connection points: 2
#     Edge 23, Type (0, 0), BuildingBlock: XIVTED_clean_linker_0, # of connection points: 2
#     Edge 24, Type (0, 0), BuildingBlock: XIVTED_clean_linker_0, # of connection points: 2
#     Edge 25, Type (0, 0), BuildingBlock: XIVTED_clean_linker_0, # of connection points: 2
#     Edge 26, Type (0, 0), BuildingBlock: XIVTED_clean_linker_0, # of connection points: 2
#     Edge 27, Type (0, 0), BuildingBlock: XIVTED_clean_linker_0, # of connection points: 2
#     Edge 28, Type (0, 0), BuildingBlock: XIVTED_clean_linker_0, # of connection points: 2
#     Edge 29, Type (0, 0), BuildingBlock: XIVTED_clean_linker_0, # of connection points: 2
#     Edge 30, Type (0, 0), BuildingBlock: XIVTED_clean_linker_0, # of connection points: 2
#     Edge 31, Type (0, 0), BuildingBlock: XIVTED_clean_linker_0, # of connection points: 2
#     Edge 32, Type (0, 0), BuildingBlock: XIVTED_clean_linker_0, # of connection points: 2
#     Edge 33, Type (0, 0), BuildingBlock: XIVTED_clean_linker_0, # of connection points: 2
#     Edge 34, Type (0, 0), BuildingBlock: XIVTED_clean_linker_0, # of connection points: 2
#     Edge 35, Type (0, 0), BuildingBlock: XIVTED_clean_linker_0, # of connection points: 2
# Relax obj value: 0.142
# Max RMSD: 0.179
# Mean RMSD: 0.179
data_MOF--net-umo--node1-MUDLON_clean_sbu_0--edge1-XIVTED_clean_linker_0
_symmetry_space_group_name_H-M    P1
_symmetry_Int_Tables_number       1
_symmetry_cell_setting            triclinic
loop_
_symmetry_equiv_pos_as_xyz
'x, y, z'
_cell_length_a     50.805579
_cell_length_b     50.9338662
_cell_length_c     39.406987
_cell_angle_alpha  90.013189
_cell_angle_beta   89.831779
_cell_angle_gamma 119.96839
loop_
_atom_site_label
_atom_site_type_symbol
_atom_site_fract_x
_atom_site_fract_y
_atom_site_fract_z
_atom_type_partial_charge
Mg0 Mg 0.16468 0.55863 0.41533 0.0
C1 C 0.13881 0.541 0.48565 0.0
O2 O 0.11367 0.5307 0.468 0.0
C3 C 0.18881 0.54317 0.35384 0.0
O4 O 0.1666 0.54608 0.34089 0.0
C5 C 0.10478 0.54974 0.38939 0.0
O6 O 0.1187 0.57918 0.39409 0.0
O7 O 0.1188 0.53547 0.39558 0.0
O8 O 0.1639 0.551 0.46984 0.0
O9 O 0.18424 0.60735 0.41277 0.0
C10 C 0.17746 0.62032 0.43601 0.0
O11 O 0.15639 0.60361 0.45827 0.0
O12 O 0.19338 0.5465 0.38571 0.0
Mg13 Mg 0.61562 0.159 0.57353 0.0
C14 C 0.59509 0.14378 0.64317 0.0
O15 O 0.57027 0.13345 0.62489 0.0
C16 C 0.65364 0.18453 0.51218 0.0
O17 O 0.62712 0.16455 0.49971 0.0
C18 C 0.56558 0.10354 0.53844 0.0
O19 O 0.55422 0.1215 0.53413 0.0
O20 O 0.59093 0.11359 0.55335 0.0
O21 O 0.62058 0.15524 0.62785 0.0
O22 O 0.58936 0.18184 0.57157 0.0
C23 C 0.59808 0.20274 0.59361 0.0
O24 O 0.62181 0.20893 0.61238 0.0
O25 O 0.65676 0.18689 0.54426 0.0
Mg26 Mg 0.41116 0.58405 0.73818 0.0
C27 C 0.40069 0.56233 0.80828 0.0
O28 O 0.38295 0.53834 0.79005 0.0
C29 C 0.4289 0.62626 0.67924 0.0
O30 O 0.42694 0.60187 0.66541 0.0
C31 C 0.42211 0.53393 0.71384 0.0
O32 O 0.3932 0.51711 0.72165 0.0
O33 O 0.43504 0.56247 0.71761 0.0
O34 O 0.41765 0.58733 0.79305 0.0
O35 O 0.36253 0.55545 0.73416 0.0
C36 C 0.3455 0.5535 0.70967 0.0
O37 O 0.35773 0.5684 0.68143 0.0
O38 O 0.4243 0.62622 0.71103 0.0
Mg39 Mg 0.81672 0.4401 0.91403 0.0
C40 C 0.83658 0.45521 0.98653 0.0
O41 O 0.86296 0.46384 0.97196 0.0
C42 C 0.79334 0.45414 0.85049 0.0
O43 O 0.81616 0.45193 0.83798 0.0
C44 C 0.87643 0.44942 0.88711 0.0
O45 O 0.86064 0.4197 0.88608 0.0
O46 O 0.86365 0.46403 0.89719 0.0
O47 O 0.81351 0.44758 0.96783 0.0
O48 O 0.79852 0.3915 0.91303 0.0
C49 C 0.807 0.37981 0.93603 0.0
O50 O 0.82901 0.3977 0.95656 0.0
O51 O 0.78836 0.4509 0.8823 0.0
Mg52 Mg 0.3724 0.82612 0.08061 0.0
C53 C 0.39372 0.83766 0.1508 0.0
O54 O 0.41813 0.85512 0.13278 0.0
C55 C 0.3265 0.80331 0.02329 0.0
O56 O 0.34603 0.83011 1.01107 0.0
C57 C 0.40977 0.88103 0.0377 0.0
O58 O 0.41318 0.8608 0.02057 0.0
O59 O 0.3934 0.87287 0.0643 0.0
O60 O 0.36842 0.8228 0.13552 0.0
O61 O 0.40305 0.80914 0.07157 0.0
C62 C 0.40218 0.79486 0.04482 0.0
O63 O 0.38434 0.7932 0.01985 0.0
O64 O 0.33077 0.79618 0.05291 0.0
Mg65 Mg 0.56656 0.39508 0.23266 0.0
C66 C 0.58059 0.39145 0.30546 0.0
O67 O 0.60477 0.39356 0.29062 0.0
C68 C 0.5509 0.35363 0.17304 0.0
O69 O 0.55135 0.37733 0.1592 0.0
C70 C 0.54229 0.43789 0.22632 0.0
O71 O 0.56161 0.45129 0.2512 0.0
O72 O 0.54005 0.41408 0.2132 0.0
O73 O 0.55893 0.38901 0.28707 0.0
O74 O 0.61459 0.42721 0.22905 0.0
C75 C 0.63193 0.42795 0.20537 0.0
O76 O 0.62003 0.41045 0.17875 0.0
O77 O 0.55603 0.35408 0.2047 0.0
Mg78 Mg 0.43081 0.81916 0.46705 0.0
C79 C 0.41566 0.79798 0.3957 0.0
O80 O 0.39205 0.77671 0.41207 0.0
C81 C 0.44164 0.79193 0.52954 0.0
O82 O 0.44183 0.81573 0.54271 0.0
C83 C 0.44932 0.88408 0.47359 0.0
O84 O 0.42574 0.87429 0.45338 0.0
O85 O 0.45716 0.86544 0.48421 0.0
O86 O 0.43789 0.818 0.41275 0.0
O87 O 0.38327 0.80555 0.46893 0.0
C88 C 0.36555 0.79631 0.49436 0.0
O89 O 0.37643 0.79621 0.52453 0.0
O90 O 0.43838 0.78784 0.49761 0.0
Mg91 Mg 0.60387 0.43782 0.62614 0.0
C92 C 0.59341 0.44427 0.55259 0.0
O93 O 0.57061 0.44571 0.56645 0.0
C94 C 0.64056 0.45275 0.68921 0.0
O95 O 0.61311 0.44338 0.70122 0.0
C96 C 0.54899 0.44157 0.6483 0.0
O97 O 0.5365 0.41197 0.64657 0.0
O98 O 0.57705 0.45811 0.64139 0.0
O99 O 0.61283 0.44307 0.57185 0.0
O100 O 0.57911 0.38938 0.63444 0.0
C101 C 0.56124 0.37109 0.61224 0.0
O102 O 0.55528 0.38189 0.5849 0.0
O103 O 0.64445 0.45436 0.6572 0.0
Mg104 Mg 0.15716 0.60929 0.79715 0.0
C105 C 0.13481 0.6043 0.72582 0.0
O106 O 0.10885 0.58886 0.74204 0.0
C107 C 0.18501 0.64326 0.86082 0.0
O108 O 0.16774 0.61547 0.87205 0.0
C109 C 0.09787 0.56024 0.82675 0.0
O110 O 0.11355 0.54619 0.82892 0.0
O111 O 0.11058 0.58705 0.81499 0.0
O112 O 0.15906 0.61877 0.74303 0.0
O113 O 0.17484 0.57844 0.79801 0.0
C114 C 0.16539 0.55797 0.77532 0.0
O115 O 0.14293 0.55406 0.7556 0.0
O116 O 0.18539 0.64826 0.82912 0.0
Mg117 Mg 0.56054 0.16515 0.96485 0.0
C118 C 0.57683 0.15866 0.89513 0.0
O119 O 0.5932 0.15116 0.91421 0.0
C120 C 0.54225 0.19051 0.02266 0.0
O121 O 0.54148 0.16678 0.03682 0.0
C122 C 0.51959 0.09764 0.96215 0.0
O123 O 0.52132 0.10394 0.92964 0.0
O124 O 0.5337 0.11906 0.98321 0.0
O125 O 0.55872 0.16574 0.90948 0.0
O126 O 0.60833 0.18228 0.97355 0.0
C127 C 0.62405 0.1977 0.99863 0.0
O128 O 0.61046 0.20184 0.02479 0.0
O129 O 0.54842 0.19527 0.99116 0.0
Mg130 Mg 0.37599 0.54856 0.13052 0.0
C131 C 0.39513 0.54549 0.06228 0.0
O132 O 0.42009 0.56231 0.07961 0.0
C133 C 0.3392 0.53703 0.19332 0.0
O134 O 0.36629 0.54517 0.2054 0.0
C135 C 0.40083 0.50886 0.14733 0.0
O136 O 0.37787 0.49153 0.12749 0.0
O137 O 0.40583 0.5353 0.15434 0.0
O138 O 0.3699 0.5327 0.07821 0.0
O139 O 0.39801 0.59713 0.12302 0.0
C140 C 0.38693 0.60396 0.09791 0.0
O141 O 0.36311 0.58232 0.08238 0.0
O142 O 0.33545 0.53503 0.1613 0.0
Mg143 Mg 0.82668 0.3848 0.29444 0.0
C144 C 0.80334 0.37324 0.22368 0.0
O145 O 0.77896 0.36845 0.2405 0.0
C146 C 0.80379 0.34607 0.35675 0.0
O147 O 0.8263 0.37111 0.36932 0.0
C148 C 0.88475 0.43396 0.32514 0.0
O149 O 0.86784 0.44657 0.32907 0.0
O150 O 0.87322 0.40781 0.31184 0.0
O151 O 0.8263 0.37673 0.24032 0.0
O152 O 0.80831 0.41502 0.29578 0.0
C153 C 0.8175 0.43526 0.27278 0.0
O154 O 0.84021 0.43939 0.25315 0.0
O155 O 0.79854 0.34474 0.32505 0.0
H156 H 0.21673 0.66363 0.39175 0.0
H157 H 0.31922 0.76293 0.53942 0.0
H158 H 0.18432 0.65104 0.49513 0.0
H159 H 0.33644 0.79169 0.43467 0.0
H160 H 0.26673 0.72621 0.52458 0.0
H161 H 0.25736 0.71438 0.40647 0.0
C162 C 0.21782 0.67181 0.41738 0.0
C163 C 0.19753 0.65295 0.44239 0.0
C164 C 0.28182 0.74107 0.50501 0.0
C165 C 0.24426 0.71067 0.45966 0.0
C166 C 0.31181 0.76205 0.51349 0.0
C167 C 0.33247 0.77979 0.48809 0.0
C168 C 0.27271 0.73764 0.47087 0.0
C169 C 0.3215 0.77793 0.45497 0.0
C170 C 0.24098 0.70081 0.42581 0.0
C171 C 0.19972 0.66476 0.47513 0.0
N172 N 0.29257 0.75673 0.44717 0.0
N173 N 0.22317 0.69263 0.48305 0.0
H174 H 0.56118 0.21105 0.54919 0.0
H175 H 0.56494 0.34006 0.66675 0.0
H176 H 0.59886 0.23343 0.65004 0.0
H177 H 0.53971 0.32918 0.561 0.0
H178 H 0.56361 0.29159 0.66522 0.0
H179 H 0.54076 0.2454 0.55703 0.0
C180 C 0.56475 0.22284 0.5731 0.0
C181 C 0.58228 0.22003 0.59872 0.0
C182 C 0.55788 0.29954 0.64245 0.0
C183 C 0.55894 0.25884 0.60796 0.0
C184 C 0.55855 0.32719 0.64336 0.0
C185 C 0.55319 0.339 0.61374 0.0
C186 C 0.55219 0.28379 0.61161 0.0
C187 C 0.54448 0.32111 0.5843 0.0
C188 C 0.55313 0.24238 0.57757 0.0
C189 C 0.58607 0.23553 0.62932 0.0
N190 N 0.54488 0.29463 0.58376 0.0
N191 N 0.57475 0.25445 0.63296 0.0
H192 H 0.16823 0.5345 0.71406 0.0
H193 H 0.31452 0.52556 0.76763 0.0
H194 H 0.20496 0.55045 0.81545 0.0
H195 H 0.30152 0.55143 0.66739 0.0
H196 H 0.26376 0.51514 0.7834 0.0
H197 H 0.2066 0.52169 0.69603 0.0
C198 C 0.18382 0.5345 0.73276 0.0
C199 C 0.18378 0.54398 0.76622 0.0
C200 C 0.27183 0.52251 0.75776 0.0
C201 C 0.22736 0.52922 0.74574 0.0
C202 C 0.30078 0.52845 0.74864 0.0
C203 C 0.31263 0.54022 0.71635 0.0
C204 C 0.2545 0.52812 0.7344 0.0
C205 C 0.29352 0.54293 0.69272 0.0
C206 C 0.20574 0.52733 0.72236 0.0
C207 C 0.20452 0.54365 0.78933 0.0
N208 N 0.26548 0.53739 0.70239 0.0
N209 N 0.2257 0.53668 0.77857 0.0
H210 H 0.76867 0.33374 0.89419 0.0
H211 H 0.66602 0.23902 0.04289 0.0
H212 H 0.80133 0.35257 0.99729 0.0
H213 H 0.65781 0.20017 0.94335 0.0
H214 H 0.71767 0.2786 0.02838 0.0
H215 H 0.72986 0.28281 0.91171 0.0
C216 C 0.76804 0.32691 0.92035 0.0
C217 C 0.78792 0.34743 0.9444 0.0
C218 C 0.70478 0.26095 1.01005 0.0
C219 C 0.74331 0.28964 0.96478 0.0
C220 C 0.67528 0.23836 0.01832 0.0
C221 C 0.65727 0.21672 0.99401 0.0
C222 C 0.71597 0.26209 0.9771 0.0
C223 C 0.67061 0.21678 0.96268 0.0
C224 C 0.74597 0.29784 0.93035 0.0
C225 C 0.7863 0.33744 0.97796 0.0
N226 N 0.69888 0.23959 0.95481 0.0
N227 N 0.76384 0.30945 0.98737 0.0
H228 H 0.4361 0.78905 0.09506 0.0
H229 H 0.38197 0.62205 0.03479 0.0
H230 H 0.39595 0.75285 0.99743 0.0
H231 H 0.42249 0.65701 0.1325 0.0
H232 H 0.39813 0.67338 1.0159 0.0
H233 H 0.44331 0.74565 0.10368 0.0
C234 C 0.42944 0.77234 0.07505 0.0
C235 C 0.41449 0.77405 0.04591 0.0
C236 C 0.40387 0.67 0.04135 0.0
C237 C 0.42239 0.72422 0.05586 0.0
C238 C 0.39448 0.64065 0.05223 0.0
C239 C 0.40024 0.63531 0.08554 0.0
C240 C 0.41867 0.6942 0.06415 0.0
C241 C 0.41722 0.66021 0.10677 0.0
C242 C 0.43351 0.74751 0.08007 0.0
C243 C 0.40693 0.7521 0.02062 0.0
N244 N 0.42535 0.68863 0.09592 0.0
N245 N 0.41037 0.72774 0.02651 0.0
H246 H 0.81172 0.45373 0.20967 0.0
H247 H 0.66243 0.45791 0.26264 0.0
H248 H 0.77801 0.44361 0.31228 0.0
H249 H 0.67666 0.43106 0.16339 0.0
H250 H 0.714 0.47103 0.2782 0.0
H251 H 0.77145 0.46329 0.19071 0.0
C252 C 0.79642 0.45443 0.22838 0.0
C253 C 0.79795 0.4476 0.26259 0.0
C254 C 0.706 0.46283 0.25281 0.0
C255 C 0.75203 0.4585 0.24102 0.0
C256 C 0.67659 0.45539 0.2438 0.0
C257 C 0.66493 0.44264 0.21188 0.0
C258 C 0.72395 0.45769 0.22969 0.0
C259 C 0.68453 0.44031 0.18846 0.0
C260 C 0.77336 0.4597 0.21747 0.0
C261 C 0.77738 0.4485 0.28565 0.0
N262 N 0.713 0.44732 0.19801 0.0
N263 N 0.75506 0.45356 0.27439 0.0
H264 H 0.18563 0.62172 0.68627 0.0
H265 H 0.08937 0.52324 0.52678 0.0
H266 H 0.08762 0.57265 0.68216 0.0
H267 H 0.1874 0.57441 0.52777 0.0
H268 H 0.08871 0.54008 0.58453 0.0
H269 H 0.18715 0.60519 0.62832 0.0
C270 C 0.16443 0.60788 0.67304 0.0
C271 C 0.13643 0.59857 0.68918 0.0
C272 C 0.11041 0.54752 0.57224 0.0
C273 C 0.13804 0.57911 0.62304 0.0
C274 C 0.1108 0.53774 0.53928 0.0
C275 C 0.13848 0.54742 0.5223 0.0
C276 C 0.13789 0.56727 0.5885 0.0
C277 C 0.16552 0.56626 0.53987 0.0
C278 C 0.16533 0.59823 0.64003 0.0
C279 C 0.10973 0.58039 0.67082 0.0
N280 N 0.16455 0.5757 0.57193 0.0
N281 N 0.11121 0.57116 0.63888 0.0
H282 H 0.64018 0.15924 0.69051 0.0
H283 H 0.53829 0.15886 0.84626 0.0
H284 H 0.54558 0.13311 0.68077 0.0
H285 H 0.6218 0.15721 0.85904 0.0
H286 H 0.54307 0.15561 0.78459 0.0
H287 H 0.63619 0.16423 0.75196 0.0
C288 C 0.61858 0.15443 0.70128 0.0
C289 C 0.59316 0.14557 0.6805 0.0
C290 C 0.56033 0.15599 0.80098 0.0
C291 C 0.58853 0.15167 0.75052 0.0
C292 C 0.55767 0.15799 0.83611 0.0
C293 C 0.57957 0.15814 0.8578 0.0
C294 C 0.58525 0.15453 0.78753 0.0
C295 C 0.60423 0.15691 0.84329 0.0
C296 C 0.61631 0.1573 0.73631 0.0
C297 C 0.56574 0.13978 0.69581 0.0
N298 N 0.60643 0.15522 0.80911 0.0
N299 N 0.56419 0.14306 0.72983 0.0
H300 H 0.44419 0.58048 0.02214 0.0
H301 H 0.35793 0.51636 0.84684 0.0
H302 H 0.34915 0.51259 1.01676 0.0
H303 H 0.44122 0.60212 0.85504 0.0
H304 H 0.3565 0.51124 0.90845 0.0
H305 H 0.4457 0.5848 0.96049 0.0
C306 C 0.42365 0.56623 1.008 0.0
C307 C 0.39645 0.54607 0.02473 0.0
C308 C 0.37506 0.5312 0.89681 0.0
C309 C 0.39814 0.55109 0.95391 0.0
C310 C 0.376 0.53414 0.8616 0.0
C311 C 0.39981 0.55973 0.84572 0.0
C312 C 0.39831 0.55381 0.91642 0.0
C313 C 0.42243 0.58207 0.86622 0.0
C314 C 0.42454 0.56891 0.97277 0.0
C315 C 0.37059 0.52838 1.00495 0.0
N316 N 0.42122 0.57851 0.90054 0.0
N317 N 0.37208 0.53126 0.97054 0.0
H318 H 0.76069 0.37387 0.18188 0.0
H319 H 0.87967 0.46092 0.03209 0.0
H320 H 0.85401 0.39427 0.18329 0.0
H321 H 0.7837 0.4294 0.02382 0.0
H322 H 0.87115 0.43984 0.08929 0.0
H323 H 0.76878 0.39562 0.12496 0.0
C324 C 0.78277 0.38251 0.17006 0.0
C325 C 0.80669 0.38215 0.18744 0.0
C326 C 0.85197 0.43767 0.07505 0.0
C327 C 0.81625 0.40764 0.12243 0.0
C328 C 0.85684 0.44994 0.04244 0.0
C329 C 0.83236 0.44689 0.02299 0.0
C330 C 0.82238 0.42226 0.08848 0.0
C331 C 0.80328 0.43233 0.03783 0.0
C332 C 0.78742 0.39512 0.13761 0.0
C333 C 0.83486 0.39393 0.17087 0.0
N334 N 0.79909 0.42043 0.06961 0.0
N335 N 0.8389 0.40634 0.13941 0.0
H336 H 0.44382 0.86861 0.19074 0.0
H337 H 0.36862 0.7625 0.35324 0.0
H338 H 0.35081 0.79548 0.19401 0.0
H339 H 0.45788 0.84215 0.35371 0.0
H340 H 0.36301 0.7722 0.29382 0.0
H341 H 0.45012 0.85798 0.24959 0.0
C342 C 0.42462 0.85041 0.2039 0.0
C343 C 0.39671 0.83291 0.18736 0.0
C344 C 0.38389 0.78748 0.30685 0.0
C345 C 0.40393 0.8204 0.25483 0.0
C346 C 0.38722 0.78186 0.34078 0.0
C347 C 0.41376 0.8016 0.35861 0.0
C348 C 0.40728 0.81299 0.29047 0.0
C349 C 0.43702 0.82633 0.34103 0.0
C350 C 0.42829 0.84432 0.23752 0.0
C351 C 0.37269 0.80963 0.20576 0.0
N352 N 0.43318 0.83138 0.30799 0.0
N353 N 0.3769 0.80397 0.23846 0.0
H354 H 0.53791 0.39615 0.34377 0.0
H355 H 0.63457 0.43598 0.51555 0.0
H356 H 0.62417 0.39924 0.35145 0.0
H357 H 0.55166 0.43928 0.50554 0.0
H358 H 0.63092 0.42187 0.4557 0.0
H359 H 0.54157 0.40992 0.4037 0.0
C360 C 0.55747 0.39941 0.35811 0.0
C361 C 0.58078 0.39656 0.34249 0.0
C362 C 0.6136 0.42582 0.46657 0.0
C363 C 0.5853 0.4127 0.41109 0.0
C364 C 0.61575 0.43402 0.50072 0.0
C365 C 0.59338 0.43882 0.51565 0.0
C366 C 0.58884 0.42226 0.44719 0.0
C367 C 0.56946 0.43583 0.49516 0.0
C368 C 0.55965 0.40747 0.39231 0.0
C369 C 0.60565 0.4012 0.36237 0.0
N370 N 0.56776 0.42762 0.46207 0.0
N371 N 0.6073 0.40912 0.39557 0.0
H372 H 0.92509 0.41311 0.32486 0.0
H373 H 0.06631 0.5722 0.38075 0.0
H374 H 0.9182 0.49245 0.34739 0.0
H375 H 0.06998 0.48947 0.374 0.0
H376 H 0.01272 0.54401 0.36508 0.0
H377 H 0.97889 0.44133 0.33978 0.0
C378 C 0.93487 0.43645 0.333 0.0
C379 C 0.91711 0.45045 0.3349 0.0
C380 C 0.02525 0.53203 0.36701 0.0
C381 C 0.9787 0.4829 0.35183 0.0
C382 C 0.05589 0.54813 0.37585 0.0
C383 C 0.07265 0.53316 0.37874 0.0
C384 C 0.01129 0.50075 0.36085 0.0
C385 C 0.05792 0.50192 0.37214 0.0
C386 C 0.96559 0.45254 0.34152 0.0
C387 C 0.931 0.48073 0.34562 0.0
N388 N 0.02808 0.48675 0.36349 0.0
N389 N 0.96099 0.49597 0.35359 0.0
H390 H 0.50136 0.91269 0.51137 0.0
H391 H 0.51152 0.0745 0.50416 0.0
H392 H 0.43697 0.9291 0.45772 0.0
H393 H 0.5808 0.05961 0.54794 0.0
H394 H 0.48316 0.02105 0.48799 0.0
H395 H 0.52998 0.96631 0.52644 0.0
C396 C 0.49321 0.92755 0.50279 0.0
C397 C 0.46673 0.91639 0.48325 0.0
C398 C 0.50461 0.02952 0.50106 0.0
C399 C 0.49939 0.97782 0.5004 0.0
C400 C 0.52081 0.06003 0.5103 0.0
C401 C 0.54856 0.07155 0.52746 0.0
C402 C 0.51618 0.01036 0.50919 0.0
C403 C 0.55951 0.05174 0.53474 0.0
C404 C 0.5096 0.95819 0.51134 0.0
C405 C 0.45728 0.93672 0.4728 0.0
N406 N 0.54325 0.02212 0.52566 0.0
N407 N 0.47357 0.96645 0.48155 0.0
H408 H 0.40276 0.47349 0.70611 0.0
H409 H 0.56735 0.50193 0.65334 0.0
H410 H 0.48218 0.56226 0.69594 0.0
H411 H 0.48838 0.41292 0.66403 0.0
H412 H 0.5362 0.52439 0.6681 0.0
H413 H 0.43339 0.4508 0.68954 0.0
C414 C 0.4266 0.48822 0.70027 0.0
C415 C 0.43993 0.51982 0.70249 0.0
C416 C 0.52566 0.49994 0.66721 0.0
C417 C 0.47513 0.494 0.68364 0.0
C418 C 0.54346 0.48709 0.65882 0.0
C419 C 0.53046 0.45549 0.65748 0.0
C420 C 0.49462 0.48107 0.67434 0.0
C421 C 0.49936 0.4374 0.66478 0.0
C422 C 0.44409 0.47524 0.69086 0.0
C423 C 0.47093 0.53778 0.69464 0.0
N424 N 0.48251 0.45046 0.67291 0.0
N425 N 0.48747 0.52462 0.68564 0.0
H426 H 0.06006 0.58401 0.83073 0.0
H427 H 0.91244 0.42499 0.87303 0.0
H428 H 0.06176 0.5008 0.84479 0.0
H429 H 0.91457 0.51063 0.88013 0.0
H430 H 0.96647 0.45209 0.85883 0.0
H431 H 0.00605 0.55722 0.84538 0.0
C432 C 0.0491 0.56013 0.83697 0.0
C433 C 0.06545 0.54461 0.83654 0.0
C434 C 0.95513 0.46496 0.86352 0.0
C435 C 0.00364 0.51381 0.8531 0.0
C436 C 0.92424 0.4495 0.8715 0.0
C437 C 0.90896 0.46558 0.87778 0.0
C438 C 0.97083 0.49673 0.86154 0.0
C439 C 0.92546 0.49733 0.87555 0.0
C440 C 0.01828 0.54486 0.84536 0.0
C441 C 0.05008 0.51368 0.84486 0.0
N442 N 0.9555 0.51187 0.86753 0.0
N443 N 0.02001 0.49927 0.85266 0.0
H444 H 0.50321 0.07666 0.02725 0.0
H445 H 0.43661 0.90358 0.97632 0.0
H446 H 0.49641 0.04638 0.92363 0.0
H447 H 0.41742 0.93082 0.07275 0.0
H448 H 0.46236 0.95641 0.95782 0.0
H449 H 0.4753 0.02369 0.04579 0.0
C450 C 0.49583 0.05889 1.00841 0.0
C451 C 0.50218 0.06591 0.97385 0.0
C452 C 0.45241 0.95081 0.98298 0.0
C453 C 0.4705 0.00545 0.99488 0.0
C454 C 0.43781 0.92068 0.99361 0.0
C455 C 0.42488 0.91282 0.02613 0.0
C456 C 0.45445 0.9733 1.00518 0.0
C457 C 0.42702 0.9359 0.04742 0.0
C458 C 0.47983 0.0287 0.019 0.0
C459 C 0.49198 0.042 0.95052 0.0
N460 N 0.44171 0.96517 0.03664 0.0
N461 N 0.47682 0.01284 0.96149 0.0
H462 H 0.39871 0.45551 0.13249 0.0
H463 H 0.54174 0.48896 0.24735 0.0
H464 H 0.44949 0.5378 0.19033 0.0
H465 H 0.49719 0.41298 0.17893 0.0
H466 H 0.50723 0.50653 0.22874 0.0
H467 H 0.43337 0.43861 0.15167 0.0
C468 C 0.41711 0.47001 0.14933 0.0
C469 C 0.42123 0.49814 0.15979 0.0
C470 C 0.50509 0.48606 0.21778 0.0
C471 C 0.46111 0.47891 0.18182 0.0
C472 C 0.52477 0.47601 0.22837 0.0
C473 C 0.52234 0.44945 0.21469 0.0
C474 C 0.48274 0.46932 0.19346 0.0
C475 C 0.49993 0.43359 0.19018 0.0
C476 C 0.43697 0.46037 0.1602 0.0
C477 C 0.4455 0.51596 0.1816 0.0
N478 N 0.48097 0.44373 0.18044 0.0
N479 N 0.46455 0.50604 0.19192 0.0
H480 H 0.23998 0.5406 0.37068 0.0
H481 H 0.28219 0.52705 0.17749 0.0
H482 H 0.18428 0.53432 0.28511 0.0
H483 H 0.34017 0.53848 0.26268 0.0
H484 H 0.24389 0.52509 0.2169 0.0
H485 H 0.27484 0.53542 0.33193 0.0
C486 C 0.23495 0.53794 0.3438 0.0
C487 C 0.20922 0.53808 0.33117 0.0
C488 C 0.26493 0.52784 0.22698 0.0
C489 C 0.24912 0.53222 0.28656 0.0
C490 C 0.28678 0.52888 0.20447 0.0
C491 C 0.31456 0.53313 0.21673 0.0
C492 C 0.27085 0.53105 0.26203 0.0
C493 C 0.3192 0.53536 0.252 0.0
C494 C 0.2549 0.53502 0.32165 0.0
C495 C 0.20389 0.5345 0.29603 0.0
N496 N 0.29768 0.53445 0.27334 0.0
N497 N 0.22371 0.53186 0.275 0.0
H498 H 0.8089 0.3422 0.42548 0.0
H499 H 0.65408 0.18372 0.44287 0.0
H500 H 0.75342 0.29182 0.34025 0.0
H501 H 0.70885 0.23397 0.52856 0.0
H502 H 0.69221 0.22126 0.40479 0.0
H503 H 0.77452 0.30127 0.46328 0.0
C504 C 0.78957 0.32247 0.41465 0.0
C505 C 0.78397 0.32057 0.37959 0.0
C506 C 0.69603 0.22403 0.4319 0.0
C507 C 0.7444 0.27354 0.42289 0.0
C508 C 0.67425 0.20254 0.45372 0.0
C509 C 0.67814 0.20576 0.48904 0.0
C510 C 0.72196 0.24909 0.44539 0.0
C511 C 0.70484 0.23059 0.50153 0.0
C512 C 0.76993 0.29908 0.4363 0.0
C513 C 0.7586 0.29436 0.36709 0.0
N514 N 0.72563 0.2514 0.47974 0.0
N515 N 0.7397 0.27197 0.38872 0.0
H516 H 0.43734 0.63171 0.61051 0.0
H517 H 0.44481 0.79232 0.59894 0.0
H518 H 0.43214 0.6799 0.69805 0.0
H519 H 0.4414 0.73969 0.51147 0.0
H520 H 0.44424 0.75345 0.63575 0.0
H521 H 0.44294 0.673 0.57426 0.0
C522 C 0.43754 0.65106 0.62219 0.0
C523 C 0.43414 0.65222 0.65746 0.0
C524 C 0.44373 0.75044 0.60851 0.0
C525 C 0.44049 0.69974 0.61584 0.0
C526 C 0.44412 0.77268 0.58741 0.0
C527 C 0.44305 0.76926 0.55197 0.0
C528 C 0.44233 0.72454 0.59416 0.0
C529 C 0.44218 0.74329 0.53861 0.0
C530 C 0.44069 0.67464 0.60139 0.0
C531 C 0.43463 0.67797 0.67102 0.0
N532 N 0.44176 0.72192 0.55969 0.0
N533 N 0.43764 0.70065 0.65019 0.0
H534 H 0.74161 0.45577 0.86694 0.0
H535 H 0.69841 0.46507 0.67343 0.0
H536 H 0.79778 0.4619 0.78149 0.0
H537 H 0.63956 0.45235 0.75861 0.0
H538 H 0.73736 0.46908 0.71291 0.0
H539 H 0.70622 0.45942 0.82795 0.0
C540 C 0.74663 0.45808 0.84001 0.0
C541 C 0.77265 0.45833 0.8275 0.0
C542 C 0.71599 0.46561 0.72296 0.0
C543 C 0.73212 0.46246 0.78263 0.0
C544 C 0.69376 0.46341 0.70042 0.0
C545 C 0.66556 0.45816 0.71267 0.0
C546 C 0.71001 0.46257 0.75804 0.0
C547 C 0.66087 0.45621 0.74795 0.0
C548 C 0.72637 0.46013 0.81773 0.0
C549 C 0.77795 0.46144 0.79232 0.0
N550 N 0.68277 0.45825 0.76933 0.0
N551 N 0.75782 0.46324 0.77114 0.0
H552 H 0.28424 0.74422 0.03826 0.0
H553 H 0.22335 0.70372 0.84713 0.0
H554 H 0.31416 0.81014 0.95733 0.0
H555 H 0.19025 0.63902 0.9294 0.0
H556 H 0.25556 0.74343 0.88741 0.0
H557 H 0.24811 0.70586 0.99927 0.0
C558 C 0.28303 0.75072 1.0124 0.0
C559 C 0.30239 0.78047 1.00108 0.0
C560 C 0.24116 0.72056 0.89666 0.0
C561 C 0.26121 0.73652 0.95611 0.0
C562 C 0.22277 0.69786 0.87365 0.0
C563 C 0.20412 0.66793 0.88483 0.0
C564 C 0.24098 0.7133 0.93113 0.0
C565 C 0.2043 0.66173 0.91955 0.0
C566 C 0.26243 0.72877 0.99009 0.0
C567 C 0.29977 0.78751 0.96722 0.0
N568 N 0.22249 0.68415 0.94138 0.0
N569 N 0.27975 0.76569 0.94592 0.0
H570 H 0.54724 0.30015 0.19279 0.0
H571 H 0.54346 0.24283 1.00265 0.0
H572 H 0.54428 0.34831 0.10408 0.0
H573 H 0.53495 0.18957 0.09154 0.0
H574 H 0.54284 0.28132 0.03928 0.0
H575 H 0.54203 0.25905 0.15613 0.0
C576 C 0.54536 0.30204 0.16564 0.0
C577 C 0.54631 0.3278 0.15152 0.0
C578 C 0.5409 0.26111 0.05075 0.0
C579 C 0.54048 0.28086 0.10933 0.0
C580 C 0.54123 0.2391 0.02982 0.0
C581 C 0.53938 0.21295 0.04401 0.0
C582 C 0.53892 0.25708 0.08615 0.0
C583 C 0.53651 0.20937 0.07943 0.0
C584 C 0.54236 0.27854 0.1447 0.0
C585 C 0.54372 0.32894 0.11613 0.0
N586 N 0.53657 0.23125 0.09925 0.0
N587 N 0.5411 0.30592 0.09628 0.0
loop_
_geom_bond_atom_site_label_1
_geom_bond_atom_site_label_2
_geom_bond_distance
_geom_bond_site_symmetry_2
_ccdc_geom_bond_type
Mg0 O7 2.141 . S
Mg0 O8 2.048 . S
Mg0 O9 2.048 . S
Mg0 O12 2.141 . S
C1 O2 1.313 . S
C1 O8 1.195 . S
O2 C1 1.313 . S
C3 O4 1.245 . S
C3 O12 1.289 . S
O4 C3 1.245 . S
C5 O6 1.245 . S
C5 O7 1.289 . S
O6 C5 1.245 . S
O7 Mg0 2.141 . S
O7 C5 1.289 . S
O8 Mg0 2.048 . S
O8 C1 1.195 . S
O9 Mg0 2.048 . S
O9 C10 1.195 . S
C10 O9 1.195 . S
C10 O11 1.313 . S
O11 C10 1.313 . S
O12 Mg0 2.141 . S
O12 C3 1.289 . S
Mg13 O20 2.141 . S
Mg13 O21 2.048 . S
Mg13 O22 2.048 . S
Mg13 O25 2.141 . S
C14 O15 1.313 . S
C14 O21 1.195 . S
O15 C14 1.313 . S
C16 O17 1.245 . S
C16 O25 1.289 . S
O17 C16 1.245 . S
C18 O19 1.245 . S
C18 O20 1.289 . S
O19 C18 1.245 . S
O20 Mg13 2.141 . S
O20 C18 1.289 . S
O21 Mg13 2.048 . S
O21 C14 1.195 . S
O22 Mg13 2.048 . S
O22 C23 1.195 . S
C23 O22 1.195 . S
C23 O24 1.313 . S
O24 C23 1.313 . S
O25 Mg13 2.141 . S
O25 C16 1.289 . S
Mg26 O33 2.141 . S
Mg26 O34 2.048 . S
Mg26 O35 2.048 . S
Mg26 O38 2.141 . S
C27 O28 1.313 . S
C27 O34 1.195 . S
O28 C27 1.313 . S
C29 O30 1.245 . S
C29 O38 1.289 . S
O30 C29 1.245 . S
C31 O32 1.245 . S
C31 O33 1.289 . S
O32 C31 1.245 . S
O33 Mg26 2.141 . S
O33 C31 1.289 . S
O34 Mg26 2.048 . S
O34 C27 1.195 . S
O35 Mg26 2.048 . S
O35 C36 1.195 . S
C36 O35 1.195 . S
C36 O37 1.313 . S
O37 C36 1.313 . S
O38 Mg26 2.141 . S
O38 C29 1.289 . S
Mg39 O46 2.141 . S
Mg39 O47 2.048 . S
Mg39 O48 2.048 . S
Mg39 O51 2.141 . S
C40 O41 1.313 . S
C40 O47 1.195 . S
O41 C40 1.313 . S
C42 O43 1.245 . S
C42 O51 1.289 . S
O43 C42 1.245 . S
C44 O45 1.245 . S
C44 O46 1.289 . S
O45 C44 1.245 . S
O46 Mg39 2.141 . S
O46 C44 1.289 . S
O47 Mg39 2.048 . S
O47 C40 1.195 . S
O48 Mg39 2.048 . S
O48 C49 1.195 . S
C49 O48 1.195 . S
C49 O50 1.313 . S
O50 C49 1.313 . S
O51 Mg39 2.141 . S
O51 C42 1.289 . S
Mg52 O59 2.141 . S
Mg52 O60 2.048 . S
Mg52 O61 2.048 . S
Mg52 O64 2.141 . S
C53 O54 1.313 . S
C53 O60 1.195 . S
O54 C53 1.313 . S
C55 O56 1.245 . S
C55 O64 1.289 . S
O56 C55 1.245 . S
C57 O58 1.245 . S
C57 O59 1.289 . S
O58 C57 1.245 . S
O59 Mg52 2.141 . S
O59 C57 1.289 . S
O60 Mg52 2.048 . S
O60 C53 1.195 . S
O61 Mg52 2.048 . S
O61 C62 1.195 . S
C62 O61 1.195 . S
C62 O63 1.313 . S
O63 C62 1.313 . S
O64 Mg52 2.141 . S
O64 C55 1.289 . S
Mg65 O72 2.141 . S
Mg65 O73 2.048 . S
Mg65 O74 2.048 . S
Mg65 O77 2.141 . S
C66 O67 1.313 . S
C66 O73 1.195 . S
O67 C66 1.313 . S
C68 O69 1.245 . S
C68 O77 1.289 . S
O69 C68 1.245 . S
C70 O71 1.245 . S
C70 O72 1.289 . S
O71 C70 1.245 . S
O72 Mg65 2.141 . S
O72 C70 1.289 . S
O73 Mg65 2.048 . S
O73 C66 1.195 . S
O74 Mg65 2.048 . S
O74 C75 1.195 . S
C75 O74 1.195 . S
C75 O76 1.313 . S
O76 C75 1.313 . S
O77 Mg65 2.141 . S
O77 C68 1.289 . S
Mg78 O85 2.141 . S
Mg78 O86 2.048 . S
Mg78 O87 2.048 . S
Mg78 O90 2.141 . S
C79 O80 1.313 . S
C79 O86 1.195 . S
O80 C79 1.313 . S
C81 O82 1.245 . S
C81 O90 1.289 . S
O82 C81 1.245 . S
C83 O84 1.245 . S
C83 O85 1.289 . S
O84 C83 1.245 . S
O85 Mg78 2.141 . S
O85 C83 1.289 . S
O86 Mg78 2.048 . S
O86 C79 1.195 . S
O87 Mg78 2.048 . S
O87 C88 1.195 . S
C88 O87 1.195 . S
C88 O89 1.313 . S
O89 C88 1.313 . S
O90 Mg78 2.141 . S
O90 C81 1.289 . S
Mg91 O98 2.141 . S
Mg91 O99 2.048 . S
Mg91 O100 2.048 . S
Mg91 O103 2.141 . S
C92 O93 1.313 . S
C92 O99 1.195 . S
O93 C92 1.313 . S
C94 O95 1.245 . S
C94 O103 1.289 . S
O95 C94 1.245 . S
C96 O97 1.245 . S
C96 O98 1.289 . S
O97 C96 1.245 . S
O98 Mg91 2.141 . S
O98 C96 1.289 . S
O99 Mg91 2.048 . S
O99 C92 1.195 . S
O100 Mg91 2.048 . S
O100 C101 1.195 . S
C101 O100 1.195 . S
C101 O102 1.313 . S
O102 C101 1.313 . S
O103 Mg91 2.141 . S
O103 C94 1.289 . S
Mg104 O111 2.141 . S
Mg104 O112 2.048 . S
Mg104 O113 2.048 . S
Mg104 O116 2.141 . S
C105 O106 1.313 . S
C105 O112 1.195 . S
O106 C105 1.313 . S
C107 O108 1.245 . S
C107 O116 1.289 . S
O108 C107 1.245 . S
C109 O110 1.245 . S
C109 O111 1.289 . S
O110 C109 1.245 . S
O111 Mg104 2.141 . S
O111 C109 1.289 . S
O112 Mg104 2.048 . S
O112 C105 1.195 . S
O113 Mg104 2.048 . S
O113 C114 1.195 . S
C114 O113 1.195 . S
C114 O115 1.313 . S
O115 C114 1.313 . S
O116 Mg104 2.141 . S
O116 C107 1.289 . S
Mg117 O124 2.141 . S
Mg117 O125 2.048 . S
Mg117 O126 2.048 . S
Mg117 O129 2.141 . S
C118 O119 1.313 . S
C118 O125 1.195 . S
O119 C118 1.313 . S
C120 O121 1.245 . S
C120 O129 1.289 . S
O121 C120 1.245 . S
C122 O123 1.245 . S
C122 O124 1.289 . S
O123 C122 1.245 . S
O124 Mg117 2.141 . S
O124 C122 1.289 . S
O125 Mg117 2.048 . S
O125 C118 1.195 . S
O126 Mg117 2.048 . S
O126 C127 1.195 . S
C127 O126 1.195 . S
C127 O128 1.313 . S
O128 C127 1.313 . S
O129 Mg117 2.141 . S
O129 C120 1.289 . S
Mg130 O137 2.141 . S
Mg130 O138 2.048 . S
Mg130 O139 2.048 . S
Mg130 O142 2.141 . S
C131 O132 1.313 . S
C131 O138 1.195 . S
O132 C131 1.313 . S
C133 O134 1.245 . S
C133 O142 1.289 . S
O134 C133 1.245 . S
C135 O136 1.245 . S
C135 O137 1.289 . S
O136 C135 1.245 . S
O137 Mg130 2.141 . S
O137 C135 1.289 . S
O138 Mg130 2.048 . S
O138 C131 1.195 . S
O139 Mg130 2.048 . S
O139 C140 1.195 . S
C140 O139 1.195 . S
C140 O141 1.313 . S
O141 C140 1.313 . S
O142 Mg130 2.141 . S
O142 C133 1.289 . S
Mg143 O150 2.141 . S
Mg143 O151 2.048 . S
Mg143 O152 2.048 . S
Mg143 O155 2.141 . S
C144 O145 1.313 . S
C144 O151 1.195 . S
O145 C144 1.313 . S
C146 O147 1.245 . S
C146 O155 1.289 . S
O147 C146 1.245 . S
C148 O149 1.245 . S
C148 O150 1.289 . S
O149 C148 1.245 . S
O150 Mg143 2.141 . S
O150 C148 1.289 . S
O151 Mg143 2.048 . S
O151 C144 1.195 . S
O152 Mg143 2.048 . S
O152 C153 1.195 . S
C153 O152 1.195 . S
C153 O154 1.313 . S
O154 C153 1.313 . S
O155 Mg143 2.141 . S
O155 C146 1.289 . S
H156 C162 0.930 . S
H157 C166 0.930 . S
H158 C171 0.929 . S
H159 C169 0.929 . S
H160 C164 0.929 . S
H161 C170 0.929 . S
C162 H156 0.930 . S
C162 C163 1.367 . S
C162 C170 1.378 . S
C163 C162 1.367 . S
C163 C171 1.433 . S
C164 H160 0.929 . S
C164 C166 1.378 . S
C164 C168 1.350 . S
C165 C168 1.463 . S
C165 C170 1.350 . S
C165 N173 1.427 . S
C166 H157 0.930 . S
C166 C164 1.378 . S
C166 C167 1.367 . S
C167 C166 1.367 . S
C167 C169 1.433 . S
C168 C164 1.350 . S
C168 C165 1.463 . S
C168 N172 1.427 . S
C169 H159 0.929 . S
C169 C167 1.433 . S
C169 N172 1.384 . S
C170 H161 0.929 . S
C170 C162 1.378 . S
C170 C165 1.350 . S
C171 H158 0.929 . S
C171 C163 1.433 . S
C171 N173 1.384 . S
N172 C168 1.427 . S
N172 C169 1.384 . S
N173 C165 1.427 . S
N173 C171 1.384 . S
H174 C180 0.930 . S
H175 C184 0.930 . S
H176 C189 0.929 . S
H177 C187 0.929 . S
H178 C182 0.929 . S
H179 C188 0.929 . S
C180 H174 0.930 . S
C180 C181 1.367 . S
C180 C188 1.378 . S
C181 C180 1.367 . S
C181 C189 1.433 . S
C182 H178 0.929 . S
C182 C184 1.378 . S
C182 C186 1.350 . S
C183 C186 1.463 . S
C183 C188 1.350 . S
C183 N191 1.427 . S
C184 H175 0.930 . S
C184 C182 1.378 . S
C184 C185 1.367 . S
C185 C184 1.367 . S
C185 C187 1.433 . S
C186 C182 1.350 . S
C186 C183 1.463 . S
C186 N190 1.427 . S
C187 H177 0.929 . S
C187 C185 1.433 . S
C187 N190 1.384 . S
C188 H179 0.929 . S
C188 C180 1.378 . S
C188 C183 1.350 . S
C189 H176 0.929 . S
C189 C181 1.433 . S
C189 N191 1.384 . S
N190 C186 1.427 . S
N190 C187 1.384 . S
N191 C183 1.427 . S
N191 C189 1.384 . S
H192 C198 0.930 . S
H193 C202 0.930 . S
H194 C207 0.929 . S
H195 C205 0.929 . S
H196 C200 0.929 . S
H197 C206 0.929 . S
C198 H192 0.930 . S
C198 C199 1.367 . S
C198 C206 1.378 . S
C199 C198 1.367 . S
C199 C207 1.433 . S
C200 H196 0.929 . S
C200 C202 1.378 . S
C200 C204 1.350 . S
C201 C204 1.463 . S
C201 C206 1.350 . S
C201 N209 1.427 . S
C202 H193 0.930 . S
C202 C200 1.378 . S
C202 C203 1.367 . S
C203 C202 1.367 . S
C203 C205 1.433 . S
C204 C200 1.350 . S
C204 C201 1.463 . S
C204 N208 1.427 . S
C205 H195 0.929 . S
C205 C203 1.433 . S
C205 N208 1.384 . S
C206 H197 0.929 . S
C206 C198 1.378 . S
C206 C201 1.350 . S
C207 H194 0.929 . S
C207 C199 1.433 . S
C207 N209 1.384 . S
N208 C204 1.427 . S
N208 C205 1.384 . S
N209 C201 1.427 . S
N209 C207 1.384 . S
H210 C216 0.930 . S
H211 C220 0.930 . S
H212 C225 0.929 . S
H213 C223 0.929 . S
H214 C218 0.929 . S
H215 C224 0.929 . S
C216 H210 0.930 . S
C216 C217 1.367 . S
C216 C224 1.378 . S
C217 C216 1.367 . S
C217 C225 1.433 . S
C218 H214 0.929 . S
C218 C220 1.378 . S
C218 C222 1.350 . S
C219 C222 1.463 . S
C219 C224 1.350 . S
C219 N227 1.427 . S
C220 H211 0.930 . S
C220 C218 1.378 . S
C220 C221 1.367 . S
C221 C220 1.367 . S
C221 C223 1.433 . S
C222 C218 1.350 . S
C222 C219 1.463 . S
C222 N226 1.427 . S
C223 H213 0.929 . S
C223 C221 1.433 . S
C223 N226 1.384 . S
C224 H215 0.929 . S
C224 C216 1.378 . S
C224 C219 1.350 . S
C225 H212 0.929 . S
C225 C217 1.433 . S
C225 N227 1.384 . S
N226 C222 1.427 . S
N226 C223 1.384 . S
N227 C219 1.427 . S
N227 C225 1.384 . S
H228 C234 0.930 . S
H229 C238 0.930 . S
H230 C243 0.929 . S
H231 C241 0.929 . S
H232 C236 0.929 . S
H233 C242 0.929 . S
C234 H228 0.930 . S
C234 C235 1.367 . S
C234 C242 1.378 . S
C235 C234 1.367 . S
C235 C243 1.433 . S
C236 H232 0.929 . S
C236 C238 1.378 . S
C236 C240 1.350 . S
C237 C240 1.463 . S
C237 C242 1.350 . S
C237 N245 1.427 . S
C238 H229 0.930 . S
C238 C236 1.378 . S
C238 C239 1.367 . S
C239 C238 1.367 . S
C239 C241 1.433 . S
C240 C236 1.350 . S
C240 C237 1.463 . S
C240 N244 1.427 . S
C241 H231 0.929 . S
C241 C239 1.433 . S
C241 N244 1.384 . S
C242 H233 0.929 . S
C242 C234 1.378 . S
C242 C237 1.350 . S
C243 H230 0.929 . S
C243 C235 1.433 . S
C243 N245 1.384 . S
N244 C240 1.427 . S
N244 C241 1.384 . S
N245 C237 1.427 . S
N245 C243 1.384 . S
H246 C252 0.930 . S
H247 C256 0.930 . S
H248 C261 0.929 . S
H249 C259 0.929 . S
H250 C254 0.929 . S
H251 C260 0.929 . S
C252 H246 0.930 . S
C252 C253 1.367 . S
C252 C260 1.378 . S
C253 C252 1.367 . S
C253 C261 1.433 . S
C254 H250 0.929 . S
C254 C256 1.378 . S
C254 C258 1.350 . S
C255 C258 1.463 . S
C255 C260 1.350 . S
C255 N263 1.427 . S
C256 H247 0.930 . S
C256 C254 1.378 . S
C256 C257 1.367 . S
C257 C256 1.367 . S
C257 C259 1.433 . S
C258 C254 1.350 . S
C258 C255 1.463 . S
C258 N262 1.427 . S
C259 H249 0.929 . S
C259 C257 1.433 . S
C259 N262 1.384 . S
C260 H251 0.929 . S
C260 C252 1.378 . S
C260 C255 1.350 . S
C261 H248 0.929 . S
C261 C253 1.433 . S
C261 N263 1.384 . S
N262 C258 1.427 . S
N262 C259 1.384 . S
N263 C255 1.427 . S
N263 C261 1.384 . S
H264 C270 0.930 . S
H265 C274 0.930 . S
H266 C279 0.929 . S
H267 C277 0.929 . S
H268 C272 0.929 . S
H269 C278 0.929 . S
C270 H264 0.930 . S
C270 C271 1.367 . S
C270 C278 1.378 . S
C271 C270 1.367 . S
C271 C279 1.433 . S
C272 H268 0.929 . S
C272 C274 1.378 . S
C272 C276 1.350 . S
C273 C276 1.463 . S
C273 C278 1.350 . S
C273 N281 1.427 . S
C274 H265 0.930 . S
C274 C272 1.378 . S
C274 C275 1.367 . S
C275 C274 1.367 . S
C275 C277 1.433 . S
C276 C272 1.350 . S
C276 C273 1.463 . S
C276 N280 1.427 . S
C277 H267 0.929 . S
C277 C275 1.433 . S
C277 N280 1.384 . S
C278 H269 0.929 . S
C278 C270 1.378 . S
C278 C273 1.350 . S
C279 H266 0.929 . S
C279 C271 1.433 . S
C279 N281 1.384 . S
N280 C276 1.427 . S
N280 C277 1.384 . S
N281 C273 1.427 . S
N281 C279 1.384 . S
H282 C288 0.930 . S
H283 C292 0.930 . S
H284 C297 0.929 . S
H285 C295 0.929 . S
H286 C290 0.929 . S
H287 C296 0.929 . S
C288 H282 0.930 . S
C288 C289 1.367 . S
C288 C296 1.378 . S
C289 C288 1.367 . S
C289 C297 1.433 . S
C290 H286 0.929 . S
C290 C292 1.378 . S
C290 C294 1.350 . S
C291 C294 1.463 . S
C291 C296 1.350 . S
C291 N299 1.427 . S
C292 H283 0.930 . S
C292 C290 1.378 . S
C292 C293 1.367 . S
C293 C292 1.367 . S
C293 C295 1.433 . S
C294 C290 1.350 . S
C294 C291 1.463 . S
C294 N298 1.427 . S
C295 H285 0.929 . S
C295 C293 1.433 . S
C295 N298 1.384 . S
C296 H287 0.929 . S
C296 C288 1.378 . S
C296 C291 1.350 . S
C297 H284 0.929 . S
C297 C289 1.433 . S
C297 N299 1.384 . S
N298 C294 1.427 . S
N298 C295 1.384 . S
N299 C291 1.427 . S
N299 C297 1.384 . S
H300 C306 0.930 1_554 S
H301 C310 0.930 . S
H302 C315 0.929 . S
H303 C313 0.929 . S
H304 C308 0.929 . S
H305 C314 0.929 . S
C306 H300 0.930 1_556 S
C306 C307 1.367 . S
C306 C314 1.378 . S
C307 C306 1.367 . S
C307 C315 1.433 . S
C308 H304 0.929 . S
C308 C310 1.378 . S
C308 C312 1.350 . S
C309 C312 1.463 . S
C309 C314 1.350 . S
C309 N317 1.427 . S
C310 H301 0.930 . S
C310 C308 1.378 . S
C310 C311 1.367 . S
C311 C310 1.367 . S
C311 C313 1.433 . S
C312 C308 1.350 . S
C312 C309 1.463 . S
C312 N316 1.427 . S
C313 H303 0.929 . S
C313 C311 1.433 . S
C313 N316 1.384 . S
C314 H305 0.929 . S
C314 C306 1.378 . S
C314 C309 1.350 . S
C315 H302 0.929 . S
C315 C307 1.433 . S
C315 N317 1.384 . S
N316 C312 1.427 . S
N316 C313 1.384 . S
N317 C309 1.427 . S
N317 C315 1.384 . S
H318 C324 0.930 . S
H319 C328 0.930 1_556 S
H320 C333 0.929 . S
H321 C331 0.929 . S
H322 C326 0.929 . S
H323 C332 0.929 . S
C324 H318 0.930 . S
C324 C325 1.367 . S
C324 C332 1.378 . S
C325 C324 1.367 . S
C325 C333 1.433 . S
C326 H322 0.929 . S
C326 C328 1.378 . S
C326 C330 1.350 . S
C327 C330 1.463 . S
C327 C332 1.350 . S
C327 N335 1.427 . S
C328 H319 0.930 1_554 S
C328 C326 1.378 . S
C328 C329 1.367 . S
C329 C328 1.367 . S
C329 C331 1.433 . S
C330 C326 1.350 . S
C330 C327 1.463 . S
C330 N334 1.427 . S
C331 H321 0.929 . S
C331 C329 1.433 . S
C331 N334 1.384 . S
C332 H323 0.929 . S
C332 C324 1.378 . S
C332 C327 1.350 . S
C333 H320 0.929 . S
C333 C325 1.433 . S
C333 N335 1.384 . S
N334 C330 1.427 . S
N334 C331 1.384 . S
N335 C327 1.427 . S
N335 C333 1.384 . S
H336 C342 0.930 . S
H337 C346 0.930 . S
H338 C351 0.929 . S
H339 C349 0.929 . S
H340 C344 0.929 . S
H341 C350 0.929 . S
C342 H336 0.930 . S
C342 C343 1.367 . S
C342 C350 1.378 . S
C343 C342 1.367 . S
C343 C351 1.433 . S
C344 H340 0.929 . S
C344 C346 1.378 . S
C344 C348 1.350 . S
C345 C348 1.463 . S
C345 C350 1.350 . S
C345 N353 1.427 . S
C346 H337 0.930 . S
C346 C344 1.378 . S
C346 C347 1.367 . S
C347 C346 1.367 . S
C347 C349 1.433 . S
C348 C344 1.350 . S
C348 C345 1.463 . S
C348 N352 1.427 . S
C349 H339 0.929 . S
C349 C347 1.433 . S
C349 N352 1.384 . S
C350 H341 0.929 . S
C350 C342 1.378 . S
C350 C345 1.350 . S
C351 H338 0.929 . S
C351 C343 1.433 . S
C351 N353 1.384 . S
N352 C348 1.427 . S
N352 C349 1.384 . S
N353 C345 1.427 . S
N353 C351 1.384 . S
H354 C360 0.930 . S
H355 C364 0.930 . S
H356 C369 0.929 . S
H357 C367 0.929 . S
H358 C362 0.929 . S
H359 C368 0.929 . S
C360 H354 0.930 . S
C360 C361 1.367 . S
C360 C368 1.378 . S
C361 C360 1.367 . S
C361 C369 1.433 . S
C362 H358 0.929 . S
C362 C364 1.378 . S
C362 C366 1.350 . S
C363 C366 1.463 . S
C363 C368 1.350 . S
C363 N371 1.427 . S
C364 H355 0.930 . S
C364 C362 1.378 . S
C364 C365 1.367 . S
C365 C364 1.367 . S
C365 C367 1.433 . S
C366 C362 1.350 . S
C366 C363 1.463 . S
C366 N370 1.427 . S
C367 H357 0.929 . S
C367 C365 1.433 . S
C367 N370 1.384 . S
C368 H359 0.929 . S
C368 C360 1.378 . S
C368 C363 1.350 . S
C369 H356 0.929 . S
C369 C361 1.433 . S
C369 N371 1.384 . S
N370 C366 1.427 . S
N370 C367 1.384 . S
N371 C363 1.427 . S
N371 C369 1.384 . S
H372 C378 0.930 . S
H373 C382 0.930 . S
H374 C387 0.929 . S
H375 C385 0.929 . S
H376 C380 0.889 1_655 S
H377 C386 0.890 1_455 S
C378 H372 0.930 . S
C378 C379 1.367 . S
C378 C386 1.378 . S
C379 C378 1.367 . S
C379 C387 1.433 . S
C380 H376 0.889 1_455 S
C380 C382 1.378 . S
C380 C384 1.350 . S
C381 C384 1.463 1_655 S
C381 C386 1.350 . S
C381 N389 1.427 . S
C382 H373 0.930 . S
C382 C380 1.378 . S
C382 C383 1.367 . S
C383 C382 1.367 . S
C383 C385 1.433 . S
C384 C380 1.350 . S
C384 C381 1.463 1_455 S
C384 N388 1.427 . S
C385 H375 0.929 . S
C385 C383 1.433 . S
C385 N388 1.384 . S
C386 H377 0.890 1_655 S
C386 C378 1.378 . S
C386 C381 1.350 . S
C387 H374 0.929 . S
C387 C379 1.433 . S
C387 N389 1.384 . S
N388 C384 1.427 . S
N388 C385 1.384 . S
N389 C381 1.427 . S
N389 C387 1.384 . S
H390 C396 0.930 . S
H391 C400 0.930 . S
H392 C405 0.929 . S
H393 C403 0.929 . S
H394 C398 0.929 . S
H395 C404 0.929 . S
C396 H390 0.930 . S
C396 C397 1.367 . S
C396 C404 1.378 . S
C397 C396 1.367 . S
C397 C405 1.433 . S
C398 H394 0.929 . S
C398 C400 1.378 . S
C398 C402 1.350 . S
C399 C402 1.463 1_565 S
C399 C404 1.350 . S
C399 N407 1.427 . S
C400 H391 0.930 . S
C400 C398 1.378 . S
C400 C401 1.367 . S
C401 C400 1.367 . S
C401 C403 1.433 . S
C402 C398 1.350 . S
C402 C399 1.463 1_545 S
C402 N406 1.427 . S
C403 H393 0.929 . S
C403 C401 1.433 . S
C403 N406 1.384 . S
C404 H395 0.929 . S
C404 C396 1.378 . S
C404 C399 1.350 . S
C405 H392 0.929 . S
C405 C397 1.433 . S
C405 N407 1.384 . S
N406 C402 1.427 . S
N406 C403 1.384 . S
N407 C399 1.427 . S
N407 C405 1.384 . S
H408 C414 0.930 . S
H409 C418 0.930 . S
H410 C423 0.929 . S
H411 C421 0.929 . S
H412 C416 0.929 . S
H413 C422 0.929 . S
C414 H408 0.930 . S
C414 C415 1.367 . S
C414 C422 1.378 . S
C415 C414 1.367 . S
C415 C423 1.433 . S
C416 H412 0.929 . S
C416 C418 1.378 . S
C416 C420 1.350 . S
C417 C420 1.463 . S
C417 C422 1.350 . S
C417 N425 1.427 . S
C418 H409 0.930 . S
C418 C416 1.378 . S
C418 C419 1.367 . S
C419 C418 1.367 . S
C419 C421 1.433 . S
C420 C416 1.350 . S
C420 C417 1.463 . S
C420 N424 1.427 . S
C421 H411 0.929 . S
C421 C419 1.433 . S
C421 N424 1.384 . S
C422 H413 0.929 . S
C422 C414 1.378 . S
C422 C417 1.350 . S
C423 H410 0.929 . S
C423 C415 1.433 . S
C423 N425 1.384 . S
N424 C420 1.427 . S
N424 C421 1.384 . S
N425 C417 1.427 . S
N425 C423 1.384 . S
H426 C432 0.930 . S
H427 C436 0.930 . S
H428 C441 0.929 . S
H429 C439 0.929 . S
H430 C434 0.929 . S
H431 C440 0.929 . S
C432 H426 0.930 . S
C432 C433 1.367 . S
C432 C440 1.378 . S
C433 C432 1.367 . S
C433 C441 1.433 . S
C434 H430 0.929 . S
C434 C436 1.378 . S
C434 C438 1.350 . S
C435 C438 1.463 1_455 S
C435 C440 1.350 . S
C435 N443 1.427 . S
C436 H427 0.930 . S
C436 C434 1.378 . S
C436 C437 1.367 . S
C437 C436 1.367 . S
C437 C439 1.433 . S
C438 C434 1.350 . S
C438 C435 1.463 1_655 S
C438 N442 1.427 . S
C439 H429 0.929 . S
C439 C437 1.433 . S
C439 N442 1.384 . S
C440 H431 0.929 . S
C440 C432 1.378 . S
C440 C435 1.350 . S
C441 H428 0.929 . S
C441 C433 1.433 . S
C441 N443 1.384 . S
N442 C438 1.427 . S
N442 C439 1.384 . S
N443 C435 1.427 . S
N443 C441 1.384 . S
H444 C450 0.930 . S
H445 C454 0.930 . S
H446 C459 0.929 . S
H447 C457 0.929 . S
H448 C452 0.929 . S
H449 C458 0.929 . S
C450 H444 0.930 . S
C450 C451 1.367 . S
C450 C458 1.378 1_556 S
C451 C450 1.367 . S
C451 C459 1.433 . S
C452 H448 0.929 . S
C452 C454 1.378 1_556 S
C452 C456 1.350 1_556 S
C453 C456 1.463 1_546 S
C453 C458 1.350 1_556 S
C453 N461 1.427 . S
C454 H445 0.930 . S
C454 C452 1.378 1_554 S
C454 C455 1.367 . S
C455 C454 1.367 . S
C455 C457 1.433 . S
C456 C452 1.350 1_554 S
C456 C453 1.463 1_564 S
C456 N460 1.427 . S
C457 H447 0.929 . S
C457 C455 1.433 . S
C457 N460 1.384 . S
C458 H449 0.929 . S
C458 C450 1.378 1_554 S
C458 C453 1.350 1_554 S
C459 H446 0.929 . S
C459 C451 1.433 . S
C459 N461 1.384 . S
N460 C456 1.427 . S
N460 C457 1.384 . S
N461 C453 1.427 . S
N461 C459 1.384 . S
H462 C468 0.930 . S
H463 C472 0.930 . S
H464 C477 0.929 . S
H465 C475 0.929 . S
H466 C470 0.929 . S
H467 C476 0.929 . S
C468 H462 0.930 . S
C468 C469 1.367 . S
C468 C476 1.378 . S
C469 C468 1.367 . S
C469 C477 1.433 . S
C470 H466 0.929 . S
C470 C472 1.378 . S
C470 C474 1.350 . S
C471 C474 1.463 . S
C471 C476 1.350 . S
C471 N479 1.427 . S
C472 H463 0.930 . S
C472 C470 1.378 . S
C472 C473 1.367 . S
C473 C472 1.367 . S
C473 C475 1.433 . S
C474 C470 1.350 . S
C474 C471 1.463 . S
C474 N478 1.427 . S
C475 H465 0.929 . S
C475 C473 1.433 . S
C475 N478 1.384 . S
C476 H467 0.929 . S
C476 C468 1.378 . S
C476 C471 1.350 . S
C477 H464 0.929 . S
C477 C469 1.433 . S
C477 N479 1.384 . S
N478 C474 1.427 . S
N478 C475 1.384 . S
N479 C471 1.427 . S
N479 C477 1.384 . S
H480 C486 0.930 . S
H481 C490 0.930 . S
H482 C495 0.929 . S
H483 C493 0.929 . S
H484 C488 0.929 . S
H485 C494 0.929 . S
C486 H480 0.930 . S
C486 C487 1.367 . S
C486 C494 1.378 . S
C487 C486 1.367 . S
C487 C495 1.433 . S
C488 H484 0.929 . S
C488 C490 1.378 . S
C488 C492 1.350 . S
C489 C492 1.463 . S
C489 C494 1.350 . S
C489 N497 1.427 . S
C490 H481 0.930 . S
C490 C488 1.378 . S
C490 C491 1.367 . S
C491 C490 1.367 . S
C491 C493 1.433 . S
C492 C488 1.350 . S
C492 C489 1.463 . S
C492 N496 1.427 . S
C493 H483 0.929 . S
C493 C491 1.433 . S
C493 N496 1.384 . S
C494 H485 0.929 . S
C494 C486 1.378 . S
C494 C489 1.350 . S
C495 H482 0.929 . S
C495 C487 1.433 . S
C495 N497 1.384 . S
N496 C492 1.427 . S
N496 C493 1.384 . S
N497 C489 1.427 . S
N497 C495 1.384 . S
H498 C504 0.930 . S
H499 C508 0.930 . S
H500 C513 0.929 . S
H501 C511 0.929 . S
H502 C506 0.929 . S
H503 C512 0.929 . S
C504 H498 0.930 . S
C504 C505 1.367 . S
C504 C512 1.378 . S
C505 C504 1.367 . S
C505 C513 1.433 . S
C506 H502 0.929 . S
C506 C508 1.378 . S
C506 C510 1.350 . S
C507 C510 1.463 . S
C507 C512 1.350 . S
C507 N515 1.427 . S
C508 H499 0.930 . S
C508 C506 1.378 . S
C508 C509 1.367 . S
C509 C508 1.367 . S
C509 C511 1.433 . S
C510 C506 1.350 . S
C510 C507 1.463 . S
C510 N514 1.427 . S
C511 H501 0.929 . S
C511 C509 1.433 . S
C511 N514 1.384 . S
C512 H503 0.929 . S
C512 C504 1.378 . S
C512 C507 1.350 . S
C513 H500 0.929 . S
C513 C505 1.433 . S
C513 N515 1.384 . S
N514 C510 1.427 . S
N514 C511 1.384 . S
N515 C507 1.427 . S
N515 C513 1.384 . S
H516 C522 0.930 . S
H517 C526 0.930 . S
H518 C531 0.929 . S
H519 C529 0.929 . S
H520 C524 0.929 . S
H521 C530 0.929 . S
C522 H516 0.930 . S
C522 C523 1.367 . S
C522 C530 1.378 . S
C523 C522 1.367 . S
C523 C531 1.433 . S
C524 H520 0.929 . S
C524 C526 1.378 . S
C524 C528 1.350 . S
C525 C528 1.463 . S
C525 C530 1.350 . S
C525 N533 1.427 . S
C526 H517 0.930 . S
C526 C524 1.378 . S
C526 C527 1.367 . S
C527 C526 1.367 . S
C527 C529 1.433 . S
C528 C524 1.350 . S
C528 C525 1.463 . S
C528 N532 1.427 . S
C529 H519 0.929 . S
C529 C527 1.433 . S
C529 N532 1.384 . S
C530 H521 0.929 . S
C530 C522 1.378 . S
C530 C525 1.350 . S
C531 H518 0.929 . S
C531 C523 1.433 . S
C531 N533 1.384 . S
N532 C528 1.427 . S
N532 C529 1.384 . S
N533 C525 1.427 . S
N533 C531 1.384 . S
H534 C540 0.930 . S
H535 C544 0.930 . S
H536 C549 0.929 . S
H537 C547 0.929 . S
H538 C542 0.929 . S
H539 C548 0.929 . S
C540 H534 0.930 . S
C540 C541 1.367 . S
C540 C548 1.378 . S
C541 C540 1.367 . S
C541 C549 1.433 . S
C542 H538 0.929 . S
C542 C544 1.378 . S
C542 C546 1.350 . S
C543 C546 1.463 . S
C543 C548 1.350 . S
C543 N551 1.427 . S
C544 H535 0.930 . S
C544 C542 1.378 . S
C544 C545 1.367 . S
C545 C544 1.367 . S
C545 C547 1.433 . S
C546 C542 1.350 . S
C546 C543 1.463 . S
C546 N550 1.427 . S
C547 H537 0.929 . S
C547 C545 1.433 . S
C547 N550 1.384 . S
C548 H539 0.929 . S
C548 C540 1.378 . S
C548 C543 1.350 . S
C549 H536 0.929 . S
C549 C541 1.433 . S
C549 N551 1.384 . S
N550 C546 1.427 . S
N550 C547 1.384 . S
N551 C543 1.427 . S
N551 C549 1.384 . S
H552 C558 0.931 . S
H553 C562 0.930 . S
H554 C567 0.929 . S
H555 C565 0.929 . S
H556 C560 0.929 . S
H557 C566 0.929 . S
C558 H552 0.931 . S
C558 C559 1.367 . S
C558 C566 1.378 . S
C559 C558 1.367 . S
C559 C567 1.433 . S
C560 H556 0.929 . S
C560 C562 1.378 . S
C560 C564 1.350 . S
C561 C564 1.463 . S
C561 C566 1.350 . S
C561 N569 1.427 . S
C562 H553 0.930 . S
C562 C560 1.378 . S
C562 C563 1.367 . S
C563 C562 1.367 . S
C563 C565 1.433 . S
C564 C560 1.350 . S
C564 C561 1.463 . S
C564 N568 1.427 . S
C565 H555 0.929 . S
C565 C563 1.433 . S
C565 N568 1.384 . S
C566 H557 0.929 . S
C566 C558 1.378 . S
C566 C561 1.350 . S
C567 H554 0.929 . S
C567 C559 1.433 . S
C567 N569 1.384 . S
N568 C564 1.427 . S
N568 C565 1.384 . S
N569 C561 1.427 . S
N569 C567 1.384 . S
H570 C576 0.930 . S
H571 C580 0.930 . S
H572 C585 0.929 . S
H573 C583 0.929 . S
H574 C578 0.929 . S
H575 C584 0.929 . S
C576 H570 0.930 . S
C576 C577 1.367 . S
C576 C584 1.378 . S
C577 C576 1.367 . S
C577 C585 1.433 . S
C578 H574 0.929 . S
C578 C580 1.378 . S
C578 C582 1.350 . S
C579 C582 1.463 . S
C579 C584 1.350 . S
C579 N587 1.427 . S
C580 H571 0.930 . S
C580 C578 1.378 . S
C580 C581 1.367 . S
C581 C580 1.367 . S
C581 C583 1.433 . S
C582 C578 1.350 . S
C582 C579 1.463 . S
C582 N586 1.427 . S
C583 H573 0.929 . S
C583 C581 1.433 . S
C583 N586 1.384 . S
C584 H575 0.929 . S
C584 C576 1.378 . S
C584 C579 1.350 . S
C585 H572 0.929 . S
C585 C577 1.433 . S
C585 N587 1.384 . S
N586 C582 1.427 . S
N586 C583 1.384 . S
N587 C579 1.427 . S
N587 C585 1.384 . S
C163 C10 1.509 . S
C167 C88 1.497 . S
C181 C23 1.497 . S
C185 C101 1.504 . S
C199 C114 1.497 . S
C203 C36 1.508 . S
C217 C49 1.510 . S
C221 C127 1.499 . S
C235 C62 1.509 . S
C239 C140 1.504 . S
C253 C153 1.497 . S
C257 C75 1.509 . S
C271 C105 1.701 . S
C275 C1 1.709 . S
C289 C14 1.708 . S
C293 C118 1.710 . S
C307 C131 1.702 1_556 S
C311 C27 1.704 . S
C325 C144 1.701 . S
C329 C40 1.706 1_554 S
C343 C53 1.701 . S
C347 C79 1.707 . S
C361 C66 1.711 . S
C365 C92 1.706 . S
C379 C148 1.869 . S
C383 C5 1.863 . S
C397 C83 1.859 . S
C401 C18 1.856 . S
C415 C31 1.862 . S
C419 C96 1.870 . S
C433 C109 1.869 . S
C437 C44 1.859 . S
C451 C122 1.861 . S
C455 C57 1.856 . S
C469 C135 1.868 . S
C473 C70 1.868 . S
C487 C3 1.420 . S
C491 C133 1.414 . S
C505 C146 1.415 . S
C509 C16 1.421 . S
C523 C29 1.416 . S
C527 C81 1.420 . S
C541 C42 1.414 . S
C545 C94 1.421 . S
C559 C55 1.420 1_556 S
C563 C107 1.414 . S
C577 C68 1.421 . S
C581 C120 1.414 1_554 S
