# Generated by pormake.
# Topology bcu, (8)-cn, num edge types: 1
# Building blocks:
#     Node 0, Type 0, BuildingBlock: TAGTUT_clean_sbu_1, # of connection points: 8
#     Node 1, Type 0, BuildingBlock: TAGTUT_clean_sbu_1, # of connection points: 8
#     Edge 2, Type (0, 0), BuildingBlock: FUNLAD_clean_linker_1, # of connection points: 2
#     Edge 3, Type (0, 0), BuildingBlock: FUNLAD_clean_linker_1, # of connection points: 2
#     Edge 4, Type (0, 0), BuildingBlock: FUNLAD_clean_linker_1, # of connection points: 2
#     Edge 5, Type (0, 0), BuildingBlock: FUNLAD_clean_linker_1, # of connection points: 2
#     Edge 6, Type (0, 0), BuildingBlock: FUNLAD_clean_linker_1, # of connection points: 2
#     Edge 7, Type (0, 0), BuildingBlock: FUNLAD_clean_linker_1, # of connection points: 2
#     Edge 8, Type (0, 0), BuildingBlock: FUNLAD_clean_linker_1, # of connection points: 2
#     Edge 9, Type (0, 0), BuildingBlock: FUNLAD_clean_linker_1, # of connection points: 2
# Relax obj value: 0.018
# Max RMSD: 0.078
# Mean RMSD: 0.078
data_MOF--net-bcu--node1-TAGTUT_clean_sbu_1--edge1-FUNLAD_clean_linker_1
_symmetry_space_group_name_H-M    P1
_symmetry_Int_Tables_number       1
_symmetry_cell_setting            triclinic
loop_
_symmetry_equiv_pos_as_xyz
'x, y, z'
_cell_length_a     20.88092
_cell_length_b     19.632921
_cell_length_c     22.166591
_cell_angle_alpha  90.49085
_cell_angle_beta   93.890145
_cell_angle_gamma 106.74832
loop_
_atom_site_label
_atom_site_type_symbol
_atom_site_fract_x
_atom_site_fract_y
_atom_site_fract_z
_atom_type_partial_charge
C0 C 0.83747 0.12585 0.05116 0.0
C1 C 0.90046 0.12299 0.87058 0.0
C2 C 0.89184 0.84857 0.91742 0.0
Mg3 Mg 0.9737 0.14158 -0.0037 0.0
O4 O 0.94537 0.04365 0.0084 0.0
Mg5 Mg 0.85642 -0.01147 0.96869 0.0
Mg6 Mg 0.00156 -0.01666 -0.01615 0.0
O7 O 0.05774 0.92265 0.95975 0.0
Mg8 Mg 0.0303 0.82458 0.97279 0.0
Mg9 Mg 0.14688 0.97906 -0.00196 0.0
C10 C 0.11199 0.11858 0.04956 0.0
C11 C 0.10611 0.07075 0.88954 0.0
O12 O 0.81297 0.06495 0.02361 0.0
O13 O 0.8984 0.16375 0.04791 0.0
O14 O 0.86392 0.06337 0.8881 0.0
O15 O 0.95137 0.16053 0.90296 0.0
O16 O 0.07633 0.16034 0.03481 0.0
O17 O 0.09019 0.05088 0.04163 0.0
C18 C 0.89577 0.89467 0.07673 0.0
O19 O 0.95687 0.91117 0.06249 0.0
O20 O 0.85165 0.91776 0.04776 0.0
O21 O 0.19017 0.90163 0.94363 0.0
O22 O 0.10446 0.80301 0.91959 0.0
O23 O 0.14009 0.90848 0.08026 0.0
C24 C 0.16535 0.84078 0.916 0.0
O25 O 0.05813 0.80632 0.0661 0.0
O26 O 0.92711 0.80666 0.93347 0.0
C27 C 0.10669 0.84819 0.09863 0.0
O28 O 0.91353 0.91635 0.92541 0.0
O29 O 0.04559 0.05537 0.9051 0.0
O30 O 0.15049 0.04756 0.91788 0.0
C31 C 0.33523 0.62452 0.55065 0.0
C32 C 0.39554 0.61918 0.36843 0.0
C33 C 0.38911 0.34848 0.41455 0.0
Mg34 Mg 0.47083 0.64107 0.49469 0.0
O35 O 0.44304 0.54288 0.507 0.0
Mg36 Mg 0.35409 0.48709 0.46776 0.0
Mg37 Mg 0.49934 0.48235 0.48274 0.0
O38 O 0.55536 0.42203 0.4579 0.0
Mg39 Mg 0.52626 0.32383 0.46874 0.0
Mg40 Mg 0.64403 0.47613 0.49863 0.0
C41 C 0.6087 0.61594 0.55066 0.0
C42 C 0.60645 0.57206 0.3914 0.0
O43 O 0.31048 0.56397 0.52253 0.0
O44 O 0.39624 0.66221 0.54759 0.0
O45 O 0.36181 0.55875 0.38623 0.0
O46 O 0.44396 0.66056 0.40144 0.0
O47 O 0.57363 0.65805 0.53459 0.0
O48 O 0.58703 0.54819 0.54236 0.0
C49 C 0.39352 0.39373 0.57559 0.0
O50 O 0.45422 0.40924 0.5605 0.0
O51 O 0.34949 0.41743 0.54725 0.0
O52 O 0.68763 0.40018 0.44326 0.0
O53 O 0.60204 0.30197 0.41762 0.0
O54 O 0.63507 0.39983 0.57828 0.0
C55 C 0.66316 0.33966 0.4151 0.0
O56 O 0.54726 0.30325 0.56197 0.0
O57 O 0.42419 0.30605 0.42895 0.0
C58 C 0.598 0.34006 0.59498 0.0
O59 O 0.41121 0.41594 0.42395 0.0
O60 O 0.54515 0.55556 0.4051 0.0
O61 O 0.65011 0.54831 0.42037 0.0
H62 H 0.19772 0.10973 0.10797 0.0
C63 C 0.17454 0.14758 0.08703 0.0
H64 H 0.16745 0.25273 0.0895 0.0
H65 H 0.18757 0.24207 0.37373 0.0
H66 H 0.07064 0.23681 0.35166 0.0
H67 H 0.02216 0.22816 0.2462 0.0
H68 H 0.09009 0.22501 0.16248 0.0
C69 C 0.19175 0.21487 0.10852 0.0
C70 C 0.2236 0.22986 0.17036 0.0
C71 C 0.18288 0.23294 0.2185 0.0
C72 C 0.21054 0.23812 0.27906 0.0
C73 C 0.16896 0.23927 0.32673 0.0
C74 C 0.10176 0.23591 0.31471 0.0
C75 C 0.07448 0.231 0.25537 0.0
C76 C 0.1142 0.22931 0.20766 0.0
H77 H 0.30449 0.35952 0.35571 0.0
C78 C 0.32721 0.32091 0.37591 0.0
H79 H 0.33409 0.21578 0.37113 0.0
H80 H 0.31458 0.22894 0.08747 0.0
H81 H 0.43165 0.23462 0.10948 0.0
H82 H 0.48025 0.24364 0.21492 0.0
H83 H 0.41233 0.24668 0.29867 0.0
C84 C 0.31011 0.25429 0.3529 0.0
C85 C 0.2786 0.24098 0.29085 0.0
C86 C 0.31941 0.2383 0.24269 0.0
C87 C 0.29173 0.23303 0.18215 0.0
C88 C 0.33327 0.23188 0.13446 0.0
C89 C 0.40053 0.23548 0.14644 0.0
C90 C 0.42788 0.24059 0.20578 0.0
C91 C 0.38815 0.24219 0.25351 0.0
H92 H 0.7446 0.11612 0.09699 0.0
C93 C 0.79596 0.14883 0.09372 0.0
H94 H 0.87391 0.23672 0.13121 0.0
H95 H 0.67072 0.3647 0.26333 0.0
H96 H 0.68762 0.44018 0.17643 0.0
H97 H 0.74947 0.41518 0.09202 0.0
H98 H 0.79451 0.31406 0.09401 0.0
C99 C 0.82261 0.20347 0.1334 0.0
C100 C 0.78499 0.21796 0.184 0.0
C101 C 0.76007 0.27782 0.18256 0.0
C102 C 0.72522 0.29271 0.23157 0.0
C103 C 0.69887 0.35163 0.22804 0.0
C104 C 0.70791 0.39527 0.17821 0.0
C105 C 0.74269 0.38116 0.13068 0.0
C106 C 0.7684 0.32307 0.13246 0.0
H107 H 0.75643 0.34961 0.36984 0.0
C108 C 0.70499 0.31692 0.37272 0.0
H109 H 0.62724 0.22926 0.3346 0.0
H110 H 0.831 0.10163 0.2031 0.0
H111 H 0.81417 0.0262 0.29004 0.0
H112 H 0.75229 0.05118 0.37443 0.0
H113 H 0.70715 0.15224 0.37239 0.0
C114 C 0.6786 0.26249 0.33278 0.0
C115 C 0.71656 0.24824 0.28234 0.0
C116 C 0.74156 0.18843 0.28383 0.0
C117 C 0.7764 0.17355 0.23482 0.0
C118 C 0.80282 0.11468 0.23838 0.0
C119 C 0.79384 0.07107 0.28823 0.0
C120 C 0.75903 0.08517 0.33576 0.0
C121 C 0.73326 0.14322 0.33394 0.0
H122 H 0.90979 0.82531 0.15229 0.0
C123 C 0.87398 0.84713 0.12736 0.0
H124 H 0.77334 0.85052 0.11609 0.0
H125 H 0.63765 0.5606 0.23205 0.0
H126 H 0.61329 0.5267 0.1257 0.0
H127 H 0.66588 0.60825 0.04724 0.0
H128 H 0.74373 0.72389 0.07479 0.0
C129 C 0.80974 0.83033 0.14192 0.0
C130 C 0.78292 0.77989 0.18961 0.0
C131 C 0.73674 0.71293 0.17264 0.0
C132 C 0.70579 0.66634 0.21776 0.0
C133 C 0.66159 0.59877 0.19966 0.0
C134 C 0.64734 0.57847 0.13871 0.0
C135 C 0.67697 0.62435 0.09454 0.0
C136 C 0.72135 0.69073 0.11101 0.0
H137 H 0.59328 0.64196 0.31601 0.0
C138 C 0.62889 0.62014 0.34126 0.0
H139 H 0.72955 0.617 0.35349 0.0
H140 H 0.86602 0.90659 0.23715 0.0
H141 H 0.89037 0.94054 0.3435 0.0
H142 H 0.83772 0.85906 0.42197 0.0
H143 H 0.75978 0.74345 0.39444 0.0
C144 C 0.69335 0.63715 0.32732 0.0
C145 C 0.72052 0.68745 0.27963 0.0
C146 C 0.76677 0.75438 0.2966 0.0
C147 C 0.79773 0.80096 0.25147 0.0
C148 C 0.84202 0.86849 0.26956 0.0
C149 C 0.85628 0.8888 0.3305 0.0
C150 C 0.82661 0.84295 0.37468 0.0
C151 C 0.78218 0.77659 0.35822 0.0
H152 H 0.16426 0.86391 0.18672 0.0
C153 C 0.1346 0.82341 0.15414 0.0
H154 H 0.11729 0.71847 0.12087 0.0
H155 H 0.40914 0.71151 0.20654 0.0
H156 H 0.41187 0.71126 0.09729 0.0
H157 H 0.31664 0.72632 0.03211 0.0
H158 H 0.2183 0.74174 0.07561 0.0
C159 C 0.14158 0.75756 0.15652 0.0
C160 C 0.19675 0.74377 0.1964 0.0
C161 C 0.25373 0.73386 0.17004 0.0
C162 C 0.30861 0.72474 0.20752 0.0
C163 C 0.36555 0.71707 0.1801 0.0
C164 C 0.36797 0.71731 0.11746 0.0
C165 C 0.31437 0.72584 0.08078 0.0
C166 C 0.258 0.73439 0.10645 0.0
H167 H 0.33859 0.60454 0.28009 0.0
C168 C 0.36813 0.64468 0.31303 0.0
H169 H 0.38544 0.7493 0.34707 0.0
H170 H 0.09398 0.75736 0.26112 0.0
H171 H 0.09122 0.75758 0.37037 0.0
H172 H 0.18637 0.74234 0.43554 0.0
H173 H 0.28467 0.7268 0.39206 0.0
C174 C 0.36125 0.71059 0.31111 0.0
C175 C 0.30626 0.7248 0.27126 0.0
C176 C 0.2493 0.73479 0.29763 0.0
C177 C 0.19444 0.74394 0.26014 0.0
C178 C 0.13754 0.75171 0.28756 0.0
C179 C 0.13511 0.75147 0.3502 0.0
C180 C 0.18866 0.74284 0.38688 0.0
C181 C 0.24501 0.73423 0.36121 0.0
H182 H 0.25798 0.84953 0.86992 0.0
C183 C 0.20655 0.81715 0.87345 0.0
H184 H 0.12739 0.7309 0.83584 0.0
H185 H 0.23013 0.75001 0.57495 0.0
H186 H 0.13356 0.79448 0.55927 0.0
H187 H 0.07365 0.81786 0.64568 0.0
H188 H 0.11009 0.79707 0.74826 0.0
C189 C 0.17973 0.76147 0.83474 0.0
C190 C 0.2162 0.74676 0.78322 0.0
C191 C 0.19345 0.75813 0.72337 0.0
C192 C 0.22754 0.74407 0.67347 0.0
C193 C 0.20519 0.75819 0.6144 0.0
C194 C 0.15001 0.78416 0.60476 0.0
C195 C 0.11632 0.79735 0.6534 0.0
C196 C 0.13768 0.78489 0.7121 0.0
H197 H 0.24234 0.6154 0.59645 0.0
C198 C 0.29378 0.64785 0.59315 0.0
H199 H 0.37274 0.73404 0.63116 0.0
H200 H 0.26976 0.71452 0.89181 0.0
H201 H 0.36625 0.66991 0.9075 0.0
H202 H 0.4261 0.64642 0.82109 0.0
H203 H 0.38975 0.66732 0.71851 0.0
C204 C 0.32039 0.70338 0.63207 0.0
C205 C 0.28374 0.7178 0.68355 0.0
C206 C 0.30644 0.70636 0.74339 0.0
C207 C 0.27236 0.72044 0.79329 0.0
C208 C 0.29469 0.7063 0.85237 0.0
C209 C 0.34982 0.68025 0.86201 0.0
C210 C 0.38349 0.66701 0.81336 0.0
C211 C 0.36217 0.67952 0.75467 0.0
H212 H 0.40567 0.31843 0.64674 0.0
C213 C 0.37185 0.34586 0.62592 0.0
H214 H 0.27535 0.36118 0.62298 0.0
H215 H 0.11809 0.07011 0.72284 0.0
H216 H 0.08119 0.05251 0.61634 0.0
H217 H 0.13516 0.13911 0.5418 0.0
H218 H 0.2267 0.24347 0.57335 0.0
C219 C 0.3096 0.33467 0.64446 0.0
C220 C 0.28105 0.28103 0.68928 0.0
C221 C 0.22697 0.22074 0.67005 0.0
C222 C 0.19541 0.17123 0.71297 0.0
C223 C 0.14298 0.11027 0.69236 0.0
C224 C 0.12147 0.09929 0.63124 0.0
C225 C 0.15186 0.14802 0.58929 0.0
C226 C 0.20418 0.20793 0.60812 0.0
H227 H 0.09335 0.1456 0.8182 0.0
C228 C 0.12725 0.11811 0.83878 0.0
H229 H 0.22358 0.10246 0.84102 0.0
H230 H 0.38039 0.39389 0.74152 0.0
H231 H 0.41725 0.41149 0.84802 0.0
H232 H 0.36338 0.32478 0.92252 0.0
H233 H 0.27197 0.22033 0.89092 0.0
C234 C 0.18927 0.12904 0.81978 0.0
C235 C 0.21766 0.18278 0.77499 0.0
C236 C 0.27169 0.2431 0.79423 0.0
C237 C 0.30323 0.29263 0.75132 0.0
C238 C 0.35556 0.35367 0.77197 0.0
C239 C 0.37704 0.36465 0.83309 0.0
C240 C 0.34671 0.31587 0.87502 0.0
C241 C 0.29446 0.25591 0.85617 0.0
H242 H 0.90782 0.20653 0.80316 0.0
C243 C 0.87568 0.15645 0.81814 0.0
H244 H 0.77682 0.08795 0.81612 0.0
H245 H 0.64119 0.33155 0.77215 0.0
H246 H 0.62194 0.30619 0.87745 0.0
H247 H 0.67444 0.22492 0.9323 0.0
H248 H 0.7464 0.16856 0.88235 0.0
C249 C 0.81045 0.13528 0.79824 0.0
C250 C 0.77904 0.18388 0.76434 0.0
C251 C 0.73628 0.21571 0.79417 0.0
C252 C 0.70581 0.26245 0.76261 0.0
C253 C 0.66475 0.29484 0.7938 0.0
C254 C 0.65351 0.28098 0.85431 0.0
C255 C 0.68306 0.23523 0.88519 0.0
C256 C 0.72413 0.203 0.85581 0.0
H257 H 0.58944 0.25543 0.66156 0.0
C258 C 0.62199 0.30559 0.64719 0.0
H259 H 0.72114 0.37357 0.65027 0.0
H260 H 0.85544 0.12898 0.69339 0.0
H261 H 0.87462 0.15428 0.58807 0.0
H262 H 0.8222 0.23564 0.53325 0.0
H263 H 0.75038 0.29215 0.58326 0.0
C264 C 0.68707 0.32615 0.66759 0.0
C265 C 0.71787 0.27693 0.70129 0.0
C266 C 0.76052 0.24499 0.67143 0.0
C267 C 0.79097 0.19823 0.70298 0.0
C268 C 0.83194 0.16575 0.67176 0.0
C269 C 0.84313 0.17956 0.61123 0.0
C270 C 0.81361 0.22537 0.58037 0.0
C271 C 0.77263 0.25767 0.60978 0.0
H272 H 0.69373 0.60635 0.60992 0.0
C273 C 0.67001 0.64436 0.59009 0.0
H274 H 0.66096 0.74858 0.59586 0.0
H275 H 0.69249 0.74099 0.87971 0.0
H276 H 0.57508 0.73575 0.86125 0.0
H277 H 0.5227 0.72568 0.75711 0.0
H278 H 0.58681 0.72033 0.67118 0.0
C279 C 0.68613 0.7108 0.61351 0.0
C280 C 0.72018 0.72528 0.67475 0.0
C281 C 0.68162 0.72924 0.72432 0.0
C282 C 0.71169 0.73555 0.78415 0.0
C283 C 0.6721 0.73751 0.83321 0.0
C284 C 0.60465 0.73414 0.82328 0.0
C285 C 0.57512 0.72834 0.76468 0.0
C286 C 0.61273 0.72554 0.71565 0.0
H287 H 0.80642 0.85776 0.85852 0.0
C288 C 0.83029 0.81988 0.87836 0.0
H289 H 0.83948 0.71571 0.87278 0.0
H290 H 0.80779 0.72304 0.58891 0.0
H291 H 0.92522 0.72835 0.60737 0.0
H292 H 0.97761 0.73845 0.7115 0.0
H293 H 0.91349 0.74373 0.79744 0.0
C294 C 0.81418 0.75337 0.85511 0.0
C295 C 0.7801 0.73873 0.79389 0.0
C296 C 0.81867 0.73476 0.74431 0.0
C297 C 0.78859 0.72844 0.68448 0.0
C298 C 0.82818 0.72651 0.63542 0.0
C299 C 0.89564 0.72993 0.64534 0.0
C300 C 0.92518 0.73575 0.70394 0.0
C301 C 0.88756 0.7385 0.75297 0.0
loop_
_geom_bond_atom_site_label_1
_geom_bond_atom_site_label_2
_geom_bond_distance
_geom_bond_site_symmetry_2
_ccdc_geom_bond_type
C0 O12 1.241 . S
C0 O13 1.280 . S
C1 O14 1.277 . S
C1 O15 1.245 . S
C2 O26 1.247 . S
C2 O28 1.289 . S
Mg3 O4 1.926 . S
Mg3 O13 1.984 . S
Mg3 O15 1.988 1_554 S
Mg3 O16 2.061 1_655 S
O4 Mg3 1.926 . S
O4 Mg5 1.986 1_554 S
O4 Mg6 1.917 1_655 S
Mg5 O4 1.986 1_556 S
Mg5 O12 2.042 1_556 S
Mg5 O14 2.041 . S
Mg5 O20 2.038 1_546 S
Mg5 O28 2.238 1_545 S
Mg6 O4 1.917 1_455 S
Mg6 O7 1.917 1_544 S
Mg6 O17 2.106 . S
Mg6 O19 2.079 1_445 S
Mg6 O28 2.106 1_444 S
Mg6 O29 2.079 1_554 S
O7 Mg6 1.917 1_566 S
O7 Mg8 1.926 . S
O7 Mg9 1.986 1_556 S
Mg8 O7 1.926 . S
Mg8 O22 1.984 . S
Mg8 O25 1.988 1_556 S
Mg8 O26 2.061 1_455 S
Mg9 O7 1.986 1_554 S
Mg9 O17 2.238 1_565 S
Mg9 O21 2.042 1_554 S
Mg9 O23 2.041 . S
Mg9 O30 2.038 1_564 S
C10 O16 1.247 . S
C10 O17 1.289 . S
C11 O29 1.245 . S
C11 O30 1.274 . S
O12 C0 1.241 . S
O12 Mg5 2.042 1_554 S
O13 C0 1.280 . S
O13 Mg3 1.984 . S
O14 C1 1.277 . S
O14 Mg5 2.041 . S
O15 C1 1.245 . S
O15 Mg3 1.988 1_556 S
O16 Mg3 2.061 1_455 S
O16 C10 1.247 . S
O17 Mg6 2.106 . S
O17 Mg9 2.238 1_545 S
O17 C10 1.289 . S
C18 O19 1.245 . S
C18 O20 1.274 . S
O19 Mg6 2.079 1_665 S
O19 C18 1.245 . S
O20 Mg5 2.038 1_564 S
O20 C18 1.274 . S
O21 Mg9 2.042 1_556 S
O21 C24 1.241 . S
O22 Mg8 1.984 . S
O22 C24 1.280 . S
O23 Mg9 2.041 . S
O23 C27 1.277 . S
C24 O21 1.241 . S
C24 O22 1.280 . S
O25 Mg8 1.988 1_554 S
O25 C27 1.245 . S
O26 C2 1.247 . S
O26 Mg8 2.061 1_655 S
C27 O23 1.277 . S
C27 O25 1.245 . S
O28 C2 1.289 . S
O28 Mg5 2.238 1_565 S
O28 Mg6 2.106 1_666 S
O29 Mg6 2.079 1_556 S
O29 C11 1.245 . S
O30 Mg9 2.038 1_546 S
O30 C11 1.274 . S
C31 O43 1.241 . S
C31 O44 1.280 . S
C32 O45 1.277 . S
C32 O46 1.245 . S
C33 O57 1.247 . S
C33 O59 1.289 . S
Mg34 O35 1.926 . S
Mg34 O44 1.984 . S
Mg34 O46 1.988 . S
Mg34 O47 2.061 . S
O35 Mg34 1.926 . S
O35 Mg36 1.986 . S
O35 Mg37 1.917 . S
Mg36 O35 1.986 . S
Mg36 O43 2.042 . S
Mg36 O45 2.041 . S
Mg36 O51 2.038 . S
Mg36 O59 2.238 . S
Mg37 O35 1.917 . S
Mg37 O38 1.917 . S
Mg37 O48 2.106 . S
Mg37 O50 2.079 . S
Mg37 O59 2.106 . S
Mg37 O60 2.079 . S
O38 Mg37 1.917 . S
O38 Mg39 1.926 . S
O38 Mg40 1.986 . S
Mg39 O38 1.926 . S
Mg39 O53 1.984 . S
Mg39 O56 1.988 . S
Mg39 O57 2.061 . S
Mg40 O38 1.986 . S
Mg40 O48 2.238 . S
Mg40 O52 2.042 . S
Mg40 O54 2.041 . S
Mg40 O61 2.038 . S
C41 O47 1.247 . S
C41 O48 1.289 . S
C42 O60 1.245 . S
C42 O61 1.274 . S
O43 C31 1.241 . S
O43 Mg36 2.042 . S
O44 C31 1.280 . S
O44 Mg34 1.984 . S
O45 C32 1.277 . S
O45 Mg36 2.041 . S
O46 C32 1.245 . S
O46 Mg34 1.988 . S
O47 Mg34 2.061 . S
O47 C41 1.247 . S
O48 Mg37 2.106 . S
O48 Mg40 2.238 . S
O48 C41 1.289 . S
C49 O50 1.245 . S
C49 O51 1.274 . S
O50 Mg37 2.079 . S
O50 C49 1.245 . S
O51 Mg36 2.038 . S
O51 C49 1.274 . S
O52 Mg40 2.042 . S
O52 C55 1.241 . S
O53 Mg39 1.984 . S
O53 C55 1.280 . S
O54 Mg40 2.041 . S
O54 C58 1.277 . S
C55 O52 1.241 . S
C55 O53 1.280 . S
O56 Mg39 1.988 . S
O56 C58 1.245 . S
O57 C33 1.247 . S
O57 Mg39 2.061 . S
C58 O54 1.277 . S
C58 O56 1.245 . S
O59 C33 1.289 . S
O59 Mg36 2.238 . S
O59 Mg37 2.106 . S
O60 Mg37 2.079 . S
O60 C42 1.245 . S
O61 Mg40 2.038 . S
O61 C42 1.274 . S
H62 C63 0.951 . S
C63 H62 0.951 . S
C63 C69 1.265 . S
H64 C69 0.950 . S
H65 C73 0.949 . S
H66 C74 0.950 . S
H67 C75 0.951 . S
H68 C76 0.951 . S
C69 C63 1.265 . S
C69 H64 0.950 . S
C69 C70 1.478 . S
C70 C69 1.478 . S
C70 C71 1.397 . S
C70 C87 1.394 . S
C71 C70 1.397 . S
C71 C72 1.438 . S
C71 C76 1.429 . S
C72 C71 1.438 . S
C72 C73 1.428 . S
C72 C85 1.394 . S
C73 H65 0.949 . S
C73 C72 1.428 . S
C73 C74 1.345 . S
C74 H66 0.950 . S
C74 C73 1.345 . S
C74 C75 1.424 . S
C75 H67 0.951 . S
C75 C74 1.424 . S
C75 C76 1.347 . S
C76 H68 0.951 . S
C76 C71 1.429 . S
C76 C75 1.347 . S
H77 C78 0.951 . S
C78 H77 0.951 . S
C78 C84 1.265 . S
H79 C84 0.950 . S
H80 C88 0.949 . S
H81 C89 0.950 . S
H82 C90 0.951 . S
H83 C91 0.951 . S
C84 C78 1.265 . S
C84 H79 0.950 . S
C84 C85 1.478 . S
C85 C72 1.394 . S
C85 C84 1.478 . S
C85 C86 1.397 . S
C86 C85 1.397 . S
C86 C87 1.438 . S
C86 C91 1.429 . S
C87 C70 1.394 . S
C87 C86 1.438 . S
C87 C88 1.428 . S
C88 H80 0.949 . S
C88 C87 1.428 . S
C88 C89 1.345 . S
C89 H81 0.950 . S
C89 C88 1.345 . S
C89 C90 1.424 . S
C90 H82 0.951 . S
C90 C89 1.424 . S
C90 C91 1.347 . S
C91 H83 0.951 . S
C91 C86 1.429 . S
C91 C90 1.347 . S
H92 C93 0.951 . S
C93 H92 0.951 . S
C93 C99 1.265 . S
H94 C99 0.950 . S
H95 C103 0.949 . S
H96 C104 0.950 . S
H97 C105 0.951 . S
H98 C106 0.951 . S
C99 C93 1.265 . S
C99 H94 0.950 . S
C99 C100 1.478 . S
C100 C99 1.478 . S
C100 C101 1.397 . S
C100 C117 1.394 . S
C101 C100 1.397 . S
C101 C102 1.438 . S
C101 C106 1.429 . S
C102 C101 1.438 . S
C102 C103 1.428 . S
C102 C115 1.394 . S
C103 H95 0.949 . S
C103 C102 1.428 . S
C103 C104 1.345 . S
C104 H96 0.950 . S
C104 C103 1.345 . S
C104 C105 1.424 . S
C105 H97 0.951 . S
C105 C104 1.424 . S
C105 C106 1.347 . S
C106 H98 0.951 . S
C106 C101 1.429 . S
C106 C105 1.347 . S
H107 C108 0.951 . S
C108 H107 0.951 . S
C108 C114 1.265 . S
H109 C114 0.950 . S
H110 C118 0.949 . S
H111 C119 0.950 . S
H112 C120 0.951 . S
H113 C121 0.951 . S
C114 C108 1.265 . S
C114 H109 0.950 . S
C114 C115 1.478 . S
C115 C102 1.394 . S
C115 C114 1.478 . S
C115 C116 1.397 . S
C116 C115 1.397 . S
C116 C117 1.438 . S
C116 C121 1.429 . S
C117 C100 1.394 . S
C117 C116 1.438 . S
C117 C118 1.428 . S
C118 H110 0.949 . S
C118 C117 1.428 . S
C118 C119 1.345 . S
C119 H111 0.950 . S
C119 C118 1.345 . S
C119 C120 1.424 . S
C120 H112 0.951 . S
C120 C119 1.424 . S
C120 C121 1.347 . S
C121 H113 0.951 . S
C121 C116 1.429 . S
C121 C120 1.347 . S
H122 C123 0.951 . S
C123 H122 0.951 . S
C123 C129 1.265 . S
H124 C129 0.950 . S
H125 C133 0.949 . S
H126 C134 0.950 . S
H127 C135 0.951 . S
H128 C136 0.951 . S
C129 C123 1.265 . S
C129 H124 0.950 . S
C129 C130 1.478 . S
C130 C129 1.478 . S
C130 C131 1.397 . S
C130 C147 1.394 . S
C131 C130 1.397 . S
C131 C132 1.438 . S
C131 C136 1.429 . S
C132 C131 1.438 . S
C132 C133 1.428 . S
C132 C145 1.394 . S
C133 H125 0.949 . S
C133 C132 1.428 . S
C133 C134 1.345 . S
C134 H126 0.950 . S
C134 C133 1.345 . S
C134 C135 1.424 . S
C135 H127 0.951 . S
C135 C134 1.424 . S
C135 C136 1.347 . S
C136 H128 0.951 . S
C136 C131 1.429 . S
C136 C135 1.347 . S
H137 C138 0.951 . S
C138 H137 0.951 . S
C138 C144 1.265 . S
H139 C144 0.950 . S
H140 C148 0.949 . S
H141 C149 0.950 . S
H142 C150 0.951 . S
H143 C151 0.951 . S
C144 C138 1.265 . S
C144 H139 0.950 . S
C144 C145 1.478 . S
C145 C132 1.394 . S
C145 C144 1.478 . S
C145 C146 1.397 . S
C146 C145 1.397 . S
C146 C147 1.438 . S
C146 C151 1.429 . S
C147 C130 1.394 . S
C147 C146 1.438 . S
C147 C148 1.428 . S
C148 H140 0.949 . S
C148 C147 1.428 . S
C148 C149 1.345 . S
C149 H141 0.950 . S
C149 C148 1.345 . S
C149 C150 1.424 . S
C150 H142 0.951 . S
C150 C149 1.424 . S
C150 C151 1.347 . S
C151 H143 0.951 . S
C151 C146 1.429 . S
C151 C150 1.347 . S
H152 C153 0.951 . S
C153 H152 0.951 . S
C153 C159 1.265 . S
H154 C159 0.950 . S
H155 C163 0.949 . S
H156 C164 0.950 . S
H157 C165 0.951 . S
H158 C166 0.951 . S
C159 C153 1.265 . S
C159 H154 0.950 . S
C159 C160 1.478 . S
C160 C159 1.478 . S
C160 C161 1.397 . S
C160 C177 1.394 . S
C161 C160 1.397 . S
C161 C162 1.438 . S
C161 C166 1.429 . S
C162 C161 1.438 . S
C162 C163 1.428 . S
C162 C175 1.394 . S
C163 H155 0.949 . S
C163 C162 1.428 . S
C163 C164 1.345 . S
C164 H156 0.950 . S
C164 C163 1.345 . S
C164 C165 1.424 . S
C165 H157 0.951 . S
C165 C164 1.424 . S
C165 C166 1.347 . S
C166 H158 0.951 . S
C166 C161 1.429 . S
C166 C165 1.347 . S
H167 C168 0.951 . S
C168 H167 0.951 . S
C168 C174 1.265 . S
H169 C174 0.950 . S
H170 C178 0.949 . S
H171 C179 0.950 . S
H172 C180 0.951 . S
H173 C181 0.951 . S
C174 C168 1.265 . S
C174 H169 0.950 . S
C174 C175 1.478 . S
C175 C162 1.394 . S
C175 C174 1.478 . S
C175 C176 1.397 . S
C176 C175 1.397 . S
C176 C177 1.438 . S
C176 C181 1.429 . S
C177 C160 1.394 . S
C177 C176 1.438 . S
C177 C178 1.428 . S
C178 H170 0.949 . S
C178 C177 1.428 . S
C178 C179 1.345 . S
C179 H171 0.950 . S
C179 C178 1.345 . S
C179 C180 1.424 . S
C180 H172 0.951 . S
C180 C179 1.424 . S
C180 C181 1.347 . S
C181 H173 0.951 . S
C181 C176 1.429 . S
C181 C180 1.347 . S
H182 C183 0.951 . S
C183 H182 0.951 . S
C183 C189 1.265 . S
H184 C189 0.950 . S
H185 C193 0.949 . S
H186 C194 0.950 . S
H187 C195 0.951 . S
H188 C196 0.951 . S
C189 C183 1.265 . S
C189 H184 0.950 . S
C189 C190 1.478 . S
C190 C189 1.478 . S
C190 C191 1.397 . S
C190 C207 1.394 . S
C191 C190 1.397 . S
C191 C192 1.438 . S
C191 C196 1.429 . S
C192 C191 1.438 . S
C192 C193 1.428 . S
C192 C205 1.394 . S
C193 H185 0.949 . S
C193 C192 1.428 . S
C193 C194 1.345 . S
C194 H186 0.950 . S
C194 C193 1.345 . S
C194 C195 1.424 . S
C195 H187 0.951 . S
C195 C194 1.424 . S
C195 C196 1.347 . S
C196 H188 0.951 . S
C196 C191 1.429 . S
C196 C195 1.347 . S
H197 C198 0.951 . S
C198 H197 0.951 . S
C198 C204 1.265 . S
H199 C204 0.950 . S
H200 C208 0.949 . S
H201 C209 0.948 . S
H202 C210 0.951 . S
H203 C211 0.951 . S
C204 C198 1.265 . S
C204 H199 0.950 . S
C204 C205 1.478 . S
C205 C192 1.394 . S
C205 C204 1.478 . S
C205 C206 1.397 . S
C206 C205 1.397 . S
C206 C207 1.438 . S
C206 C211 1.429 . S
C207 C190 1.394 . S
C207 C206 1.438 . S
C207 C208 1.428 . S
C208 H200 0.949 . S
C208 C207 1.428 . S
C208 C209 1.345 . S
C209 H201 0.948 . S
C209 C208 1.345 . S
C209 C210 1.424 . S
C210 H202 0.951 . S
C210 C209 1.424 . S
C210 C211 1.347 . S
C211 H203 0.951 . S
C211 C206 1.429 . S
C211 C210 1.347 . S
H212 C213 0.951 . S
C213 H212 0.951 . S
C213 C219 1.265 . S
H214 C219 0.950 . S
H215 C223 0.949 . S
H216 C224 0.950 . S
H217 C225 0.951 . S
H218 C226 0.951 . S
C219 C213 1.265 . S
C219 H214 0.950 . S
C219 C220 1.478 . S
C220 C219 1.478 . S
C220 C221 1.397 . S
C220 C237 1.394 . S
C221 C220 1.397 . S
C221 C222 1.438 . S
C221 C226 1.429 . S
C222 C221 1.438 . S
C222 C223 1.428 . S
C222 C235 1.394 . S
C223 H215 0.949 . S
C223 C222 1.428 . S
C223 C224 1.345 . S
C224 H216 0.950 . S
C224 C223 1.345 . S
C224 C225 1.424 . S
C225 H217 0.951 . S
C225 C224 1.424 . S
C225 C226 1.347 . S
C226 H218 0.951 . S
C226 C221 1.429 . S
C226 C225 1.347 . S
H227 C228 0.951 . S
C228 H227 0.951 . S
C228 C234 1.265 . S
H229 C234 0.950 . S
H230 C238 0.949 . S
H231 C239 0.950 . S
H232 C240 0.951 . S
H233 C241 0.951 . S
C234 C228 1.265 . S
C234 H229 0.950 . S
C234 C235 1.478 . S
C235 C222 1.394 . S
C235 C234 1.478 . S
C235 C236 1.397 . S
C236 C235 1.397 . S
C236 C237 1.438 . S
C236 C241 1.429 . S
C237 C220 1.394 . S
C237 C236 1.438 . S
C237 C238 1.428 . S
C238 H230 0.949 . S
C238 C237 1.428 . S
C238 C239 1.345 . S
C239 H231 0.950 . S
C239 C238 1.345 . S
C239 C240 1.424 . S
C240 H232 0.951 . S
C240 C239 1.424 . S
C240 C241 1.347 . S
C241 H233 0.951 . S
C241 C236 1.429 . S
C241 C240 1.347 . S
H242 C243 0.951 . S
C243 H242 0.951 . S
C243 C249 1.265 . S
H244 C249 0.950 . S
H245 C253 0.949 . S
H246 C254 0.950 . S
H247 C255 0.951 . S
H248 C256 0.951 . S
C249 C243 1.265 . S
C249 H244 0.950 . S
C249 C250 1.478 . S
C250 C249 1.478 . S
C250 C251 1.397 . S
C250 C267 1.394 . S
C251 C250 1.397 . S
C251 C252 1.438 . S
C251 C256 1.429 . S
C252 C251 1.438 . S
C252 C253 1.428 . S
C252 C265 1.394 . S
C253 H245 0.949 . S
C253 C252 1.428 . S
C253 C254 1.345 . S
C254 H246 0.950 . S
C254 C253 1.345 . S
C254 C255 1.424 . S
C255 H247 0.951 . S
C255 C254 1.424 . S
C255 C256 1.347 . S
C256 H248 0.951 . S
C256 C251 1.429 . S
C256 C255 1.347 . S
H257 C258 0.951 . S
C258 H257 0.951 . S
C258 C264 1.265 . S
H259 C264 0.950 . S
H260 C268 0.949 . S
H261 C269 0.950 . S
H262 C270 0.951 . S
H263 C271 0.951 . S
C264 C258 1.265 . S
C264 H259 0.950 . S
C264 C265 1.478 . S
C265 C252 1.394 . S
C265 C264 1.478 . S
C265 C266 1.397 . S
C266 C265 1.397 . S
C266 C267 1.438 . S
C266 C271 1.429 . S
C267 C250 1.394 . S
C267 C266 1.438 . S
C267 C268 1.428 . S
C268 H260 0.949 . S
C268 C267 1.428 . S
C268 C269 1.345 . S
C269 H261 0.950 . S
C269 C268 1.345 . S
C269 C270 1.424 . S
C270 H262 0.951 . S
C270 C269 1.424 . S
C270 C271 1.347 . S
C271 H263 0.951 . S
C271 C266 1.429 . S
C271 C270 1.347 . S
H272 C273 0.951 . S
C273 H272 0.951 . S
C273 C279 1.265 . S
H274 C279 0.950 . S
H275 C283 0.949 . S
H276 C284 0.950 . S
H277 C285 0.951 . S
H278 C286 0.951 . S
C279 C273 1.265 . S
C279 H274 0.950 . S
C279 C280 1.478 . S
C280 C279 1.478 . S
C280 C281 1.397 . S
C280 C297 1.394 . S
C281 C280 1.397 . S
C281 C282 1.438 . S
C281 C286 1.429 . S
C282 C281 1.438 . S
C282 C283 1.428 . S
C282 C295 1.394 . S
C283 H275 0.949 . S
C283 C282 1.428 . S
C283 C284 1.345 . S
C284 H276 0.950 . S
C284 C283 1.345 . S
C284 C285 1.424 . S
C285 H277 0.951 . S
C285 C284 1.424 . S
C285 C286 1.347 . S
C286 H278 0.951 . S
C286 C281 1.429 . S
C286 C285 1.347 . S
H287 C288 0.951 . S
C288 H287 0.951 . S
C288 C294 1.265 . S
H289 C294 0.950 . S
H290 C298 0.949 . S
H291 C299 0.950 . S
H292 C300 0.951 . S
H293 C301 0.951 . S
C294 C288 1.265 . S
C294 H289 0.950 . S
C294 C295 1.478 . S
C295 C282 1.394 . S
C295 C294 1.478 . S
C295 C296 1.397 . S
C296 C295 1.397 . S
C296 C297 1.438 . S
C296 C301 1.429 . S
C297 C280 1.394 . S
C297 C296 1.438 . S
C297 C298 1.428 . S
C298 H290 0.949 . S
C298 C297 1.428 . S
C298 C299 1.345 . S
C299 H291 0.950 . S
C299 C298 1.345 . S
C299 C300 1.424 . S
C300 H292 0.951 . S
C300 C299 1.424 . S
C300 C301 1.347 . S
C301 H293 0.951 . S
C301 C296 1.429 . S
C301 C300 1.347 . S
C63 C10 0.898 . S
C78 C33 0.896 . S
C93 C0 1.552 . S
C108 C55 1.551 . S
C123 C18 1.565 . S
C138 C42 1.564 . S
C153 C27 1.701 . S
C168 C32 1.699 . S
C183 C24 1.604 . S
C198 C31 1.605 . S
C213 C49 1.575 . S
C228 C11 1.576 . S
C243 C1 1.704 . S
C258 C58 1.705 . S
C273 C41 0.941 . S
C288 C2 0.944 . S
