# Generated by pormake.
# Topology zfx, (5)-cn, num edge types: 1
# Building blocks:
#     Node 0, Type 0, BuildingBlock: XOMCOT_clean_sbu_1, # of connection points: 5
#     Node 1, Type 0, BuildingBlock: XOMCOT_clean_sbu_1, # of connection points: 5
#     Node 2, Type 0, BuildingBlock: XOMCOT_clean_sbu_1, # of connection points: 5
#     Node 3, Type 0, BuildingBlock: XOMCOT_clean_sbu_1, # of connection points: 5
#     Node 4, Type 0, BuildingBlock: XOMCOT_clean_sbu_1, # of connection points: 5
#     Node 5, Type 0, BuildingBlock: XOMCOT_clean_sbu_1, # of connection points: 5
#     Node 6, Type 0, BuildingBlock: XOMCOT_clean_sbu_1, # of connection points: 5
#     Node 7, Type 0, BuildingBlock: XOMCOT_clean_sbu_1, # of connection points: 5
#     Node 8, Type 0, BuildingBlock: XOMCOT_clean_sbu_1, # of connection points: 5
#     Node 9, Type 0, BuildingBlock: XOMCOT_clean_sbu_1, # of connection points: 5
#     Node 10, Type 0, BuildingBlock: XOMCOT_clean_sbu_1, # of connection points: 5
#     Node 11, Type 0, BuildingBlock: XOMCOT_clean_sbu_1, # of connection points: 5
#     Node 12, Type 0, BuildingBlock: XOMCOT_clean_sbu_1, # of connection points: 5
#     Node 13, Type 0, BuildingBlock: XOMCOT_clean_sbu_1, # of connection points: 5
#     Node 14, Type 0, BuildingBlock: XOMCOT_clean_sbu_1, # of connection points: 5
#     Node 15, Type 0, BuildingBlock: XOMCOT_clean_sbu_1, # of connection points: 5
#     Edge 16, Type (0, 0), BuildingBlock: AJUNOK_clean_linker_0, # of connection points: 2
#     Edge 17, Type (0, 0), BuildingBlock: AJUNOK_clean_linker_0, # of connection points: 2
#     Edge 18, Type (0, 0), BuildingBlock: AJUNOK_clean_linker_0, # of connection points: 2
#     Edge 19, Type (0, 0), BuildingBlock: AJUNOK_clean_linker_0, # of connection points: 2
#     Edge 20, Type (0, 0), BuildingBlock: AJUNOK_clean_linker_0, # of connection points: 2
#     Edge 21, Type (0, 0), BuildingBlock: AJUNOK_clean_linker_0, # of connection points: 2
#     Edge 22, Type (0, 0), BuildingBlock: AJUNOK_clean_linker_0, # of connection points: 2
#     Edge 23, Type (0, 0), BuildingBlock: AJUNOK_clean_linker_0, # of connection points: 2
#     Edge 24, Type (0, 0), BuildingBlock: AJUNOK_clean_linker_0, # of connection points: 2
#     Edge 25, Type (0, 0), BuildingBlock: AJUNOK_clean_linker_0, # of connection points: 2
#     Edge 26, Type (0, 0), BuildingBlock: AJUNOK_clean_linker_0, # of connection points: 2
#     Edge 27, Type (0, 0), BuildingBlock: AJUNOK_clean_linker_0, # of connection points: 2
#     Edge 28, Type (0, 0), BuildingBlock: AJUNOK_clean_linker_0, # of connection points: 2
#     Edge 29, Type (0, 0), BuildingBlock: AJUNOK_clean_linker_0, # of connection points: 2
#     Edge 30, Type (0, 0), BuildingBlock: AJUNOK_clean_linker_0, # of connection points: 2
#     Edge 31, Type (0, 0), BuildingBlock: AJUNOK_clean_linker_0, # of connection points: 2
#     Edge 32, Type (0, 0), BuildingBlock: AJUNOK_clean_linker_0, # of connection points: 2
#     Edge 33, Type (0, 0), BuildingBlock: AJUNOK_clean_linker_0, # of connection points: 2
#     Edge 34, Type (0, 0), BuildingBlock: AJUNOK_clean_linker_0, # of connection points: 2
#     Edge 35, Type (0, 0), BuildingBlock: AJUNOK_clean_linker_0, # of connection points: 2
#     Edge 36, Type (0, 0), BuildingBlock: AJUNOK_clean_linker_0, # of connection points: 2
#     Edge 37, Type (0, 0), BuildingBlock: AJUNOK_clean_linker_0, # of connection points: 2
#     Edge 38, Type (0, 0), BuildingBlock: AJUNOK_clean_linker_0, # of connection points: 2
#     Edge 39, Type (0, 0), BuildingBlock: AJUNOK_clean_linker_0, # of connection points: 2
#     Edge 40, Type (0, 0), BuildingBlock: AJUNOK_clean_linker_0, # of connection points: 2
#     Edge 41, Type (0, 0), BuildingBlock: AJUNOK_clean_linker_0, # of connection points: 2
#     Edge 42, Type (0, 0), BuildingBlock: AJUNOK_clean_linker_0, # of connection points: 2
#     Edge 43, Type (0, 0), BuildingBlock: AJUNOK_clean_linker_0, # of connection points: 2
#     Edge 44, Type (0, 0), BuildingBlock: AJUNOK_clean_linker_0, # of connection points: 2
#     Edge 45, Type (0, 0), BuildingBlock: AJUNOK_clean_linker_0, # of connection points: 2
#     Edge 46, Type (0, 0), BuildingBlock: AJUNOK_clean_linker_0, # of connection points: 2
#     Edge 47, Type (0, 0), BuildingBlock: AJUNOK_clean_linker_0, # of connection points: 2
#     Edge 48, Type (0, 0), BuildingBlock: AJUNOK_clean_linker_0, # of connection points: 2
#     Edge 49, Type (0, 0), BuildingBlock: AJUNOK_clean_linker_0, # of connection points: 2
#     Edge 50, Type (0, 0), BuildingBlock: AJUNOK_clean_linker_0, # of connection points: 2
#     Edge 51, Type (0, 0), BuildingBlock: AJUNOK_clean_linker_0, # of connection points: 2
#     Edge 52, Type (0, 0), BuildingBlock: AJUNOK_clean_linker_0, # of connection points: 2
#     Edge 53, Type (0, 0), BuildingBlock: AJUNOK_clean_linker_0, # of connection points: 2
#     Edge 54, Type (0, 0), BuildingBlock: AJUNOK_clean_linker_0, # of connection points: 2
#     Edge 55, Type (0, 0), BuildingBlock: AJUNOK_clean_linker_0, # of connection points: 2
# Relax obj value: 0.377
# Max RMSD: 0.203
# Mean RMSD: 0.203
data_MOF--net-zfx--node1-XOMCOT_clean_sbu_1--edge1-AJUNOK_clean_linker_0
_symmetry_space_group_name_H-M    P1
_symmetry_Int_Tables_number       1
_symmetry_cell_setting            triclinic
loop_
_symmetry_equiv_pos_as_xyz
'x, y, z'
_cell_length_a     48.603938
_cell_length_b     48.440067
_cell_length_c     17.959965
_cell_angle_alpha  89.964384
_cell_angle_beta   89.910546
_cell_angle_gamma 89.982198
loop_
_atom_site_label
_atom_site_type_symbol
_atom_site_fract_x
_atom_site_fract_y
_atom_site_fract_z
_atom_type_partial_charge
C0 C 0.57095 0.14478 0.39557 0.0
C1 C 0.59417 0.14757 0.43898 0.0
N2 N 0.59034 0.16952 0.48374 0.0
N3 N 0.55257 0.16432 0.41566 0.0
C4 C 0.56541 0.17964 0.4669 0.0
H5 H 0.56655 0.12794 0.35789 0.0
Co6 Co 0.51571 0.16565 0.39412 0.0
C7 C 0.49627 0.18025 0.55553 0.0
O8 O 0.49071 0.15436 0.57028 0.0
N9 N 0.47861 0.16708 0.37088 0.0
C10 C 0.43321 0.16114 0.37131 0.0
C11 C 0.45639 0.16217 0.41449 0.0
C12 C 0.46842 0.16883 0.30165 0.0
N13 N 0.44107 0.16509 0.30053 0.0
O14 O 0.5229 0.2005 0.33675 0.0
H15 H 0.45682 0.15743 0.4728 0.0
H16 H 0.48075 0.17196 0.25235 0.0
O17 O 0.50631 0.18702 0.49111 0.0
C18 C 0.5314 0.19617 0.26953 0.0
O19 O 0.53277 0.17048 0.24642 0.0
N20 N 0.51093 0.12958 0.43874 0.0
C21 C 0.51052 0.07284 0.4754 0.0
C22 C 0.52596 0.09188 0.51719 0.0
C23 C 0.52587 0.12001 0.49813 0.0
C24 C 0.49626 0.11108 0.39714 0.0
C25 C 0.49475 0.08322 0.41639 0.0
H26 H 0.53853 0.13397 0.53012 0.0
H27 H 0.48617 0.11744 0.34652 0.0
H28 H 0.55556 0.19608 0.49776 0.0
H29 H 0.61134 0.13338 0.4419 0.0
H30 H 0.41247 0.15675 0.38985 0.0
H31 H 0.53876 0.08508 0.56295 0.0
H32 H 0.48162 0.06992 0.38366 0.0
C33 C 0.14023 0.3147 0.64157 0.0
C34 C 0.13898 0.33733 0.68803 0.0
N35 N 0.11674 0.33435 0.73202 0.0
N36 N 0.11921 0.2975 0.65797 0.0
C37 C 0.1049 0.31047 0.71146 0.0
H38 H 0.15649 0.31016 0.60229 0.0
Co39 Co 0.11486 0.26133 0.62853 0.0
C40 C 0.09547 0.23023 0.76501 0.0
O41 O 0.11351 0.2111 0.74726 0.0
N42 N 0.11026 0.22489 0.59756 0.0
C43 C 0.08901 0.18611 0.56691 0.0
C44 C 0.08657 0.21061 0.60403 0.0
C45 C 0.12652 0.20879 0.55477 0.0
N46 N 0.11401 0.18508 0.53455 0.0
O47 O 0.08125 0.27199 0.57292 0.0
H48 H 0.068 0.21834 0.62992 0.0
H49 H 0.14604 0.21532 0.53244 0.0
O50 O 0.09364 0.25202 0.72382 0.0
C51 C 0.08529 0.27321 0.50211 0.0
O52 O 0.1094 0.26525 0.4768 0.0
N53 N 0.14947 0.25326 0.67274 0.0
C54 C 0.20496 0.25216 0.71543 0.0
C55 C 0.18396 0.25307 0.76916 0.0
C56 C 0.1563 0.25442 0.74661 0.0
C57 C 0.16982 0.25314 0.62033 0.0
C58 C 0.19755 0.25229 0.64026 0.0
H59 H 0.14078 0.25799 0.78849 0.0
H60 H 0.16457 0.25564 0.56228 0.0
H61 H 0.08724 0.30166 0.73918 0.0
H62 H 0.15392 0.35382 0.69184 0.0
H63 H 0.0724 0.17176 0.55708 0.0
H64 H 0.18894 0.25424 0.82784 0.0
H65 H 0.21314 0.25257 0.59708 0.0
C66 C 0.95511 0.86901 0.91731 0.0
C67 C 0.93569 0.87036 0.97344 0.0
N68 N 0.94804 0.86317 0.03771 0.0
N69 N 0.9793 0.86084 0.94661 0.0
C70 C 0.97421 0.85732 1.01964 0.0
H71 H 0.95213 0.87462 0.85959 0.0
Co72 Co 0.01312 0.85999 0.90044 0.0
C73 C 0.0538 0.84471 1.01991 0.0
O74 O 0.06908 0.86448 0.99146 0.0
N75 N 0.04711 0.85878 0.85321 0.0
C76 C 0.08514 0.84054 0.80611 0.0
C77 C 0.0632 0.83605 0.85212 0.0
C78 C 0.05931 0.87649 0.80544 0.0
N79 N 0.08254 0.86591 0.77651 0.0
O80 O 1.0025 0.82537 0.84652 0.0
H81 H 0.05844 0.81682 0.87991 0.0
H82 H 0.05043 0.8957 0.78693 0.0
O83 O 0.03017 0.83967 0.98992 0.0
C84 C 0.99958 0.82908 0.77569 0.0
O85 O 1.00437 0.85382 0.74873 0.0
N86 N 0.02052 0.89565 0.94189 0.0
C87 C 0.02303 0.95164 0.98284 0.0
C88 C 0.02548 0.93068 0.03652 0.0
C89 C 0.02383 0.90281 1.01513 0.0
C90 C 0.01649 0.91594 0.89024 0.0
C91 C 0.0185 0.94391 0.90886 0.0
H92 H 0.02418 0.88731 0.05821 0.0
H93 H 1.01064 0.91038 0.83419 0.0
H94 H 0.98951 0.85128 0.05987 0.0
H95 H 0.91455 0.87707 0.96785 0.0
H96 H 0.1003 0.82531 0.78967 0.0
H97 H 0.02814 0.93581 0.09476 0.0
H98 H 0.0153 0.9594 0.86622 0.0
C99 C 0.39963 0.71036 0.13277 0.0
C100 C 0.39986 0.6872 0.17728 0.0
N101 N 0.42023 0.69021 0.22712 0.0
N102 N 0.41922 0.72801 0.15648 0.0
C103 C 0.43184 0.71487 0.21283 0.0
H104 H 0.38437 0.7153 0.09105 0.0
Co105 Co 0.42082 0.76469 0.12908 0.0
C106 C 0.44016 0.78726 0.28187 0.0
O107 O 0.41553 0.79675 0.29731 0.0
N108 N 0.42183 0.80142 0.09839 0.0
C109 C 0.41821 0.84699 0.08548 0.0
C110 C 0.42239 0.82577 0.1352 0.0
C111 C 0.41756 0.80848 0.02698 0.0
N112 N 0.41458 0.83586 1.01769 0.0
O113 O 0.45409 0.75635 0.069 0.0
H114 H 0.42503 0.82843 0.19413 0.0
H115 H 0.41642 0.7937 0.98231 0.0
O116 O 0.44443 0.77476 0.21938 0.0
C117 C 0.44877 0.7465 1.00407 0.0
O118 O 0.42289 0.74317 0.98522 0.0
N119 N 0.38627 0.7709 0.17872 0.0
C120 C 0.33122 0.77248 0.22807 0.0
C121 C 0.35185 0.76004 0.27133 0.0
C122 C 0.37908 0.75921 0.24538 0.0
C123 C 0.36619 0.78241 0.13538 0.0
C124 C 0.33887 0.78389 0.15943 0.0
H125 H 0.39433 0.74867 0.27848 0.0
H126 H 0.3708 0.78942 0.07982 0.0
H127 H 0.44697 0.7244 0.24869 0.0
H128 H 0.38475 0.67079 0.17767 0.0
H129 H 0.41789 0.86884 0.0981 0.0
H130 H 0.34685 0.75003 0.3235 0.0
H131 H 0.32371 0.79336 0.1234 0.0
C132 C 0.57261 0.89207 0.64521 0.0
C133 C 0.59697 0.89161 0.60624 0.0
N134 N 0.59841 0.86757 0.56885 0.0
N135 N 0.55842 0.86881 0.63028 0.0
C136 C 0.57554 0.85353 0.58838 0.0
H137 H 0.56426 0.90964 0.67473 0.0
Co138 Co 0.52099 0.86476 0.64843 0.0
C139 C 0.52061 0.83587 0.48724 0.0
O140 O 0.54277 0.847 0.45829 0.0
N141 N 0.48386 0.86144 0.66884 0.0
C142 C 0.4381 0.86311 0.6639 0.0
C143 C 0.46198 0.86177 0.62236 0.0
C144 C 0.47297 0.86294 0.73729 0.0
N145 N 0.4454 0.86429 0.73597 0.0
O146 O 0.52908 0.83161 0.70989 0.0
H147 H 0.4633 0.86247 0.5623 0.0
H148 H 0.48496 0.86387 0.78771 0.0
O149 O 0.5135 0.84197 0.55465 0.0
C150 C 0.53506 0.83778 0.77772 0.0
O151 O 0.53577 0.864 0.79626 0.0
N152 N 0.51388 0.89896 0.59831 0.0
C153 C 0.51051 0.95429 0.55009 0.0
C154 C 0.52452 0.93421 0.50798 0.0
C155 C 0.52553 0.90671 0.53231 0.0
C156 C 0.50047 0.91828 0.6403 0.0
C157 C 0.49784 0.9456 0.61636 0.0
H158 H 0.53784 0.89245 0.50129 0.0
H159 H 0.49264 0.91296 0.69471 0.0
H160 H 0.56999 0.83375 0.56527 0.0
H161 H 0.61066 0.90899 0.59806 0.0
H162 H 0.41725 0.86398 0.64299 0.0
H163 H 0.53604 0.93974 0.45867 0.0
H164 H 0.48667 0.95998 0.65125 0.0
C165 C 0.43067 0.3157 0.89561 0.0
C166 C 0.43499 0.33405 0.83791 0.0
N167 N 0.42504 0.32265 0.77496 0.0
N168 N 0.41819 0.29304 0.8683 0.0
C169 C 0.41492 0.29807 0.79543 0.0
H170 H 0.43633 0.31866 0.95326 0.0
Co171 Co 0.40664 0.26082 0.91244 0.0
C172 C 0.45329 0.24183 0.813 0.0
O173 O 0.46977 0.25852 0.84939 0.0
N174 N 0.394 0.22843 0.95684 0.0
C175 C 0.36554 0.19891 1.01225 0.0
C176 C 0.36725 0.22194 0.96878 0.0
C177 C 0.40809 0.20906 0.99451 0.0
N178 N 0.39122 0.19143 0.03064 0.0
O179 O 0.43855 0.2631 0.98309 0.0
H180 H 0.3498 0.23442 0.953 0.0
H181 H 0.4301 0.21 1.00337 0.0
O182 O 0.42814 0.23947 0.83493 0.0
C183 C 0.43387 0.26792 0.05255 0.0
O184 O 0.40816 0.26836 0.07521 0.0
N185 N 0.3747 0.26064 0.85123 0.0
C186 C 0.3213 0.25855 0.79413 0.0
C187 C 0.34046 0.23782 0.77689 0.0
C188 C 0.36726 0.23935 0.80551 0.0
C189 C 0.35664 0.28155 0.86573 0.0
C190 C 0.32994 0.28107 0.83697 0.0
H191 H 0.38111 0.22224 0.7966 0.0
H192 H 0.36255 0.29797 0.90323 0.0
H193 H 0.4046 0.28398 0.75843 0.0
H194 H 0.44504 0.35393 0.84181 0.0
H195 H 0.34691 0.19072 0.03699 0.0
H196 H 0.33445 0.22009 0.744 0.0
H197 H 0.31569 0.29739 0.85165 0.0
C198 C 0.95887 0.16032 0.15097 0.0
C199 C 0.93809 0.16014 0.09834 0.0
N200 N 0.94989 0.16087 0.03052 0.0
N201 N 0.98341 0.16184 0.11584 0.0
C202 C 0.97707 0.16241 0.0429 0.0
H203 H 0.95621 0.15895 0.21061 0.0
Co204 Co 0.01913 0.15967 0.15201 0.0
C205 C 0.03442 0.20555 0.04179 0.0
O206 O 0.02398 0.2249 0.08451 0.0
N207 N 0.05524 0.15679 0.18507 0.0
C208 C 0.10089 0.15293 0.18679 0.0
C209 C 0.07826 0.15721 0.14256 0.0
C210 C 0.06434 0.15129 0.25417 0.0
N211 N 0.09195 0.14883 0.25667 0.0
O212 O 0.0129 0.19365 0.21322 0.0
H213 H 0.0788 0.16042 0.08303 0.0
H214 H 0.05123 0.15007 0.30265 0.0
O215 O 0.03306 0.18029 0.06307 0.0
C216 C 1.00464 0.18779 0.27972 0.0
O217 O 1.00157 0.1616 0.29684 0.0
N218 N 0.02332 0.12506 0.10499 0.0
C219 C 0.02381 0.06925 0.06239 0.0
C220 C 0.02777 0.09044 1.0095 0.0
C221 C 0.02761 0.11832 0.03203 0.0
C222 C 0.02018 0.10481 0.15693 0.0
C223 C 0.02079 0.07697 0.13724 0.0
H224 H 0.03027 0.13426 0.9907 0.0
H225 H 0.01701 0.11044 0.21459 0.0
H226 H 0.99209 0.16403 0.9988 0.0
H227 H 0.91618 0.15917 0.1089 0.0
H228 H 0.12224 0.1537 0.16968 0.0
H229 H 0.03035 0.08556 0.95108 0.0
H230 H 0.01884 0.06162 0.18075 0.0
C231 C 0.10495 0.712 0.4025 0.0
C232 C 0.10045 0.69389 0.34421 0.0
N233 N 0.11164 0.7049 0.28227 0.0
N234 N 0.11885 0.73414 0.37656 0.0
C235 C 0.12314 0.72868 0.30412 0.0
H236 H 0.09713 0.70987 0.45858 0.0
Co237 Co 0.12646 0.76858 0.41657 0.0
C238 C 0.10149 0.80913 0.30296 0.0
O239 O 0.115 0.83013 0.33096 0.0
N240 N 0.13472 0.80368 0.45593 0.0
C241 C 0.15736 0.84111 0.49397 0.0
C242 C 0.15968 0.81609 0.45931 0.0
C243 C 0.11769 0.82169 0.48999 0.0
N244 N 0.13094 0.8446 0.51354 0.0
O245 O 0.09297 0.7653 0.48035 0.0
H246 H 0.17898 0.8073 0.44147 0.0
H247 H 0.09627 0.81737 0.50158 0.0
O248 O 0.10465 0.785 0.33145 0.0
C249 C 0.09717 0.7597 0.54949 0.0
O250 O 0.12271 0.75994 0.57335 0.0
N251 N 0.16022 0.76922 0.36303 0.0
C252 C 0.21505 0.76937 0.31524 0.0
C253 C 0.19493 0.78446 0.27659 0.0
C254 C 0.16755 0.78429 0.30165 0.0
C255 C 0.17929 0.75335 0.39864 0.0
C256 C 0.20678 0.7532 0.37596 0.0
H257 H 0.1527 0.79672 0.2727 0.0
H258 H 0.17323 0.74155 0.44711 0.0
H259 H 0.13345 0.74268 0.26673 0.0
H260 H 0.08833 0.67516 0.34617 0.0
H261 H 0.17417 0.85464 0.50914 0.0
H262 H 0.20051 0.79706 0.22905 0.0
H263 H 0.22155 0.74084 0.40642 0.0
C264 C 0.88723 0.81346 0.40313 0.0
C265 C 0.88988 0.83798 0.36549 0.0
N266 N 0.91452 0.83812 0.33125 0.0
N267 N 0.90984 0.79794 0.39112 0.0
C268 C 0.92689 0.81444 0.35235 0.0
H269 H 0.86882 0.80633 0.4309 0.0
Co270 Co 0.91167 0.76033 0.41092 0.0
C271 C 0.94062 0.75959 0.25099 0.0
O272 O 0.92937 0.78236 0.22562 0.0
N273 N 0.91223 0.72316 0.43254 0.0
C274 C 0.9093 0.67734 0.4269 0.0
C275 C 0.91205 0.70125 0.3859 0.0
C276 C 0.90851 0.71231 0.5005 0.0
N277 N 0.90642 0.68466 0.49858 0.0
O278 O 0.94466 0.76696 0.4747 0.0
H279 H 0.91288 0.70257 0.32595 0.0
H280 H 0.90761 0.72435 0.55107 0.0
O281 O 0.93487 0.75135 0.31779 0.0
C282 C 0.93749 0.77464 0.54074 0.0
O283 O 0.911 0.77683 0.55439 0.0
N284 N 0.87768 0.75481 0.3611 0.0
C285 C 0.82247 0.75272 0.31674 0.0
C286 C 0.84363 0.75589 0.26404 0.0
C287 C 0.87117 0.75669 0.2873 0.0
C288 C 0.85733 0.75077 0.41245 0.0
C289 C 0.8297 0.74946 0.39156 0.0
H290 H 0.88673 0.75941 0.2458 0.0
H291 H 0.86254 0.74969 0.4709 0.0
H292 H 0.94679 0.80788 0.33197 0.0
H293 H 0.87357 0.85278 0.35573 0.0
H294 H 0.90944 0.65637 0.40611 0.0
H295 H 0.83889 0.75809 0.20542 0.0
H296 H 0.81405 0.74712 0.4341 0.0
C297 C 0.60108 0.21008 0.8987 0.0
C298 C 0.59829 0.19136 0.84103 0.0
N299 N 0.60901 0.20278 0.77881 0.0
N300 N 0.61311 0.23312 0.8721 0.0
C301 C 0.61761 0.22791 0.79972 0.0
H302 H 0.59433 0.20723 0.95559 0.0
Co303 Co 0.62293 0.26639 0.91467 0.0
C304 C 0.57831 0.28411 0.80472 0.0
O305 O 0.56107 0.26676 0.83612 0.0
N306 N 0.63373 0.3002 0.95587 0.0
C307 C 0.65949 0.33501 0.99651 0.0
C308 C 0.65979 0.30959 0.96379 0.0
C309 C 0.61805 0.32028 0.98559 0.0
N310 N 0.63324 0.3416 1.0118 0.0
O311 O 0.58991 0.26402 0.98233 0.0
H312 H 0.67831 0.29835 0.95032 0.0
H313 H 0.5961 0.31812 0.99376 0.0
O314 O 0.60266 0.28651 0.83227 0.0
C315 C 0.59517 0.25882 0.0514 0.0
O316 O 0.6211 0.25872 0.07194 0.0
N317 N 0.65609 0.26605 0.85874 0.0
C318 C 0.71036 0.26578 0.80697 0.0
C319 C 0.6908 0.28383 0.77606 0.0
C320 C 0.66367 0.28383 0.80322 0.0
C321 C 0.67455 0.24756 0.88676 0.0
C322 C 0.7018 0.24722 0.8621 0.0
H323 H 0.64933 0.299 0.78262 0.0
H324 H 0.66834 0.23391 0.93141 0.0
H325 H 0.62696 0.24267 0.76249 0.0
H326 H 0.58816 0.17153 0.84452 0.0
H327 H 0.67742 0.34657 1.0139 0.0
H328 H 0.69675 0.29865 0.73383 0.0
H329 H 0.71624 0.23292 0.88707 0.0
C330 C 0.61862 0.82727 0.15311 0.0
C331 C 0.62099 0.84748 0.20694 0.0
N332 N 0.61965 0.83519 0.27418 0.0
N333 N 0.6155 0.80251 0.18657 0.0
C334 C 0.61635 0.80817 0.25985 0.0
H335 H 0.62027 0.83049 0.09377 0.0
Co336 Co 0.6164 0.76696 0.14774 0.0
C337 C 0.57637 0.73508 0.24839 0.0
O338 O 0.56601 0.72198 0.19088 0.0
N339 N 0.6185 0.73132 0.10979 0.0
C340 C 0.62815 0.6867 0.09642 0.0
C341 C 0.62549 0.70799 0.14656 0.0
C342 C 0.61731 0.72372 0.03784 0.0
N343 N 0.62333 0.69688 0.02797 0.0
O344 O 0.58272 0.77473 0.08799 0.0
H345 H 0.62877 0.70658 0.20596 0.0
H346 H 0.61163 0.7373 0.99306 0.0
O347 O 0.59538 0.75306 0.23747 0.0
C348 C 0.58994 0.78458 0.02414 0.0
O349 O 0.6164 0.78785 1.01162 0.0
N350 N 0.65059 0.76142 0.19407 0.0
C351 C 0.70583 0.7584 0.23705 0.0
C352 C 0.6846 0.75223 0.28794 0.0
C353 C 0.65694 0.75382 0.26527 0.0
C354 C 0.6709 0.76684 0.14392 0.0
C355 C 0.69853 0.76521 0.16385 0.0
H356 H 0.64084 0.74923 0.30493 0.0
H357 H 0.66547 0.77255 0.08759 0.0
H358 H 0.61556 0.79258 0.30243 0.0
H359 H 0.62447 0.86923 0.19706 0.0
H360 H 0.63319 0.66545 0.10919 0.0
H361 H 0.68932 0.74669 0.34493 0.0
H362 H 0.71406 0.76919 0.12191 0.0
C363 C 0.89822 0.20833 0.64347 0.0
C364 C 0.89886 0.18569 0.69013 0.0
N365 N 0.91905 0.18968 0.74001 0.0
N366 N 0.91741 0.22666 0.66581 0.0
C367 C 0.93022 0.21432 0.72341 0.0
H368 H 0.88283 0.21252 0.60151 0.0
Co369 Co 0.91856 0.26373 0.63924 0.0
C370 C 0.93663 0.28391 0.79541 0.0
O371 O 0.91153 0.29097 0.81397 0.0
N372 N 0.91977 0.30107 0.61229 0.0
C373 C 0.91608 0.34698 0.6111 0.0
C374 C 0.91714 0.32389 0.65531 0.0
C375 C 0.92006 0.31093 0.54227 0.0
N376 N 0.91771 0.3386 0.54014 0.0
O377 O 0.95197 0.2559 0.57782 0.0
H378 H 0.91469 0.32416 0.71466 0.0
H379 H 0.9214 0.29817 0.49319 0.0
O380 O 0.94164 0.27341 0.73072 0.0
C381 C 0.94616 0.24784 0.51117 0.0
O382 O 0.92008 0.24637 0.49242 0.0
N383 N 0.88349 0.2693 0.68756 0.0
C384 C 0.82735 0.26947 0.72788 0.0
C385 C 0.84706 0.25606 0.7722 0.0
C386 C 0.87486 0.25595 0.75071 0.0
C387 C 0.86435 0.28226 0.64398 0.0
C388 C 0.8366 0.2833 0.66409 0.0
H389 H 0.88928 0.24443 0.78407 0.0
H390 H 0.87011 0.29091 0.59084 0.0
H391 H 0.9453 0.22435 0.75835 0.0
H392 H 0.88409 0.16897 0.69173 0.0
H393 H 0.91343 0.36809 0.62947 0.0
H394 H 0.84094 0.24478 0.8216 0.0
H395 H 0.82241 0.29434 0.62846 0.0
C396 C 0.06829 0.64333 0.90272 0.0
C397 C 0.09013 0.64676 0.95082 0.0
N398 N 0.0859 0.67022 0.98929 0.0
N399 N 0.05025 0.66417 0.91306 0.0
C400 C 0.06187 0.68042 0.96452 0.0
H401 H 0.0647 0.62564 0.86732 0.0
Co402 Co 0.01442 0.66685 0.88123 0.0
C403 C 0.98342 0.68555 1.01984 0.0
O404 O 0.96608 0.66506 1.01034 0.0
N405 N 0.97815 0.66982 0.84827 0.0
C406 C 0.93915 0.68958 0.81262 0.0
C407 C 0.96239 0.69261 0.85488 0.0
C408 C 0.96399 0.65334 0.80148 0.0
N409 N 0.94027 0.66486 0.77836 0.0
O410 O 0.0243 0.70103 0.82564 0.0
H411 H 0.96856 0.71136 0.88281 0.0
H412 H 0.97202 0.63461 0.77782 0.0
O413 O 1.00353 0.68865 0.97371 0.0
C414 C 0.0254 0.69915 0.7542 0.0
O415 O 0.01728 0.67594 0.72345 0.0
N416 N 1.00741 0.63182 0.92667 0.0
C417 C 1.0069 0.57592 0.97071 0.0
C418 C 1.00913 0.59725 0.02362 0.0
C419 C 1.00992 0.62504 1.00038 0.0
C420 C 1.00667 0.61123 0.87499 0.0
C421 C 1.00518 0.58349 0.89555 0.0
H422 H 0.01409 0.64078 0.04134 0.0
H423 H 1.00915 0.61616 0.81681 0.0
H424 H 0.05169 0.69809 0.98884 0.0
H425 H 0.10674 0.6323 0.9604 0.0
H426 H 0.92452 0.70583 0.80063 0.0
H427 H 1.01153 0.59249 0.08217 0.0
H428 H 1.00352 0.56809 0.85216 0.0
C429 C 0.45795 0.36201 0.3743 0.0
C430 C 0.43531 0.36337 0.42032 0.0
N431 N 0.44435 0.36573 0.49082 0.0
N432 N 0.48084 0.36251 0.41656 0.0
C433 C 0.47192 0.36531 0.48667 0.0
H434 H 0.45773 0.35921 0.31459 0.0
Co435 Co 0.51639 0.35935 0.38587 0.0
C436 C 0.5504 0.34109 0.52092 0.0
O437 O 0.56958 0.35811 0.4973 0.0
N438 N 0.5519 0.35669 0.35162 0.0
C439 C 0.59098 0.33927 0.30972 0.0
C440 C 0.56841 0.33435 0.35351 0.0
C441 C 0.5645 0.37459 0.30546 0.0
N442 N 0.58819 0.36441 0.27858 0.0
O443 O 0.5068 0.32414 0.33405 0.0
H444 H 0.56336 0.31506 0.38064 0.0
H445 H 0.55527 0.39342 0.28546 0.0
O446 O 0.52765 0.33942 0.48351 0.0
C447 C 0.50427 0.32685 0.26294 0.0
O448 O 0.51095 0.3508 0.23369 0.0
N449 N 0.52306 0.3952 0.42526 0.0
C450 C 0.52329 0.45182 0.4581 0.0
C451 C 0.52926 0.43221 0.51337 0.0
C452 C 0.52839 0.40391 0.49631 0.0
C453 C 0.51669 0.41415 0.37173 0.0
C454 C 0.51704 0.44242 0.38649 0.0
H455 H 0.53056 0.38946 0.54138 0.0
H456 H 0.51059 0.40711 0.31704 0.0
H457 H 0.48523 0.3643 0.53485 0.0
H458 H 0.41409 0.36023 0.4042 0.0
H459 H 0.60662 0.32434 0.2949 0.0
H460 H 0.53329 0.43867 0.57004 0.0
H461 H 0.512 0.45682 0.34239 0.0
C462 C 0.07492 0.35535 0.14084 0.0
C463 C 0.09423 0.35386 0.08452 0.0
N464 N 0.08316 0.36475 0.02221 0.0
N465 N 0.05169 0.36676 0.11365 0.0
C466 C 0.05765 0.37261 0.04218 0.0
H467 H 0.07722 0.34688 0.1961 0.0
Co468 Co 0.01614 0.36958 0.15146 0.0
C469 C 1.00128 0.32255 0.04768 0.0
O470 O 1.01049 0.30469 0.09665 0.0
N471 N 0.98055 0.37274 0.186 0.0
C472 C 0.93507 0.37559 0.19486 0.0
C473 C 0.95681 0.37148 0.14714 0.0
C474 C 0.97282 0.37831 0.25613 0.0
N475 N 0.94529 0.37999 0.26341 0.0
O476 O 0.02198 0.33583 0.21294 0.0
H477 H 0.95521 0.36734 0.08818 0.0
H478 H 0.98697 0.3796 0.30213 0.0
O479 O 1.00245 0.34845 0.06264 0.0
C480 C 0.03047 0.34081 0.27948 0.0
O481 O 0.03541 0.36659 0.29775 0.0
N482 N 1.0117 0.4041 0.10393 0.0
C483 C 1.0079 0.45924 0.0585 0.0
C484 C 0.99642 0.43801 1.01516 0.0
C485 C 0.9981 0.41046 0.03961 0.0
C486 C 0.02278 0.42453 0.14655 0.0
C487 C 0.02099 0.45221 0.12517 0.0
H488 H 0.98857 0.39443 1.00698 0.0
H489 H 0.03297 0.4192 0.1981 0.0
H490 H 0.04276 0.3809 1.00379 0.0
H491 H 0.11384 0.3434 0.08806 0.0
H492 H 0.91344 0.3741 0.18106 0.0
H493 H 0.986 0.44273 0.96344 0.0
H494 H 0.0301 0.46799 0.16001 0.0
C495 C 0.45791 0.66365 0.64062 0.0
C496 C 0.43772 0.66455 0.58675 0.0
N497 N 0.45013 0.66518 0.51954 0.0
N498 N 0.48271 0.66382 0.60702 0.0
C499 C 0.47729 0.66497 0.5338 0.0
H500 H 0.45476 0.66119 0.69988 0.0
Co501 Co 0.5163 0.65537 0.64774 0.0
C502 C 0.53705 0.70166 0.54754 0.0
O503 O 0.52623 0.72041 0.59148 0.0
N504 N 0.55014 0.64583 0.68978 0.0
C505 C 0.58177 0.62069 0.74794 0.0
C506 C 0.55871 0.61983 0.7045 0.0
C507 C 0.56848 0.66211 0.72489 0.0
N508 N 0.58763 0.64728 0.76189 0.0
O509 O 0.51292 0.68805 0.71418 0.0
H510 H 0.5477 0.60119 0.69056 0.0
H511 H 0.56597 0.68422 0.7306 0.0
O512 O 0.53519 0.67612 0.56578 0.0
C513 C 0.50785 0.68278 0.78305 0.0
O514 O 0.50811 0.65682 0.80432 0.0
N515 N 0.51717 0.62266 0.59035 0.0
C516 C 0.51834 0.56897 0.53347 0.0
C517 C 0.53773 0.58867 0.51005 0.0
C518 C 0.53666 0.61563 0.53873 0.0
C519 C 0.49793 0.60386 0.61244 0.0
C520 C 0.498 0.57703 0.5843 0.0
H521 H 0.5524 0.63025 0.5228 0.0
H522 H 0.48314 0.60938 0.65492 0.0
H523 H 0.49307 0.66434 0.49138 0.0
H524 H 0.41579 0.66328 0.59647 0.0
H525 H 0.59167 0.60313 0.77389 0.0
H526 H 0.55385 0.5831 0.47115 0.0
H527 H 0.48298 0.56234 0.60476 0.0
C528 C 0.51205 0.03317 0.56667 0.0
C529 C 0.51111 0.04243 0.4924 0.0
C530 C 0.51207 1.00491 0.5843 0.0
C531 C 0.51056 0.98435 0.5287 0.0
H532 H 0.51251 0.04786 0.61207 0.0
H533 H 0.51351 0.99925 0.64248 0.0
S534 S 0.50858 0.99736 0.32475 0.0
N535 N 0.51065 0.02838 0.36212 0.0
N536 N 0.5078 0.97564 0.39547 0.0
C537 C 0.50957 0.99331 0.45403 0.0
C538 C 0.51046 0.02213 0.43592 0.0
C539 C 0.27938 0.27638 0.72822 0.0
C540 C 0.29187 0.25599 0.77251 0.0
C541 C 0.25131 0.27489 0.70987 0.0
C542 C 0.23454 0.25332 0.73662 0.0
H543 H 0.29144 0.29354 0.70741 0.0
H544 H 0.24255 0.29094 0.67518 0.0
S545 S 0.25716 0.19527 0.8563 0.0
N546 N 0.28534 0.21374 0.84326 0.0
N547 N 0.23249 0.21129 0.81009 0.0
C548 C 0.24673 0.233 0.78163 0.0
C549 C 0.27541 0.23423 0.79915 0.0
C550 C 0.04173 0.02832 0.98899 0.0
C551 C 0.0228 0.0393 0.04072 0.0
C552 C 0.04178 1.00001 0.97068 0.0
C553 C 0.02314 0.98145 1.004 0.0
H554 H 0.05695 0.04159 0.9633 0.0
H555 H 0.05674 0.9925 0.93079 0.0
S556 S 0.96736 0.99974 0.13595 0.0
N557 N 0.98316 0.02929 0.11944 0.0
N558 N 0.98407 0.97628 0.08692 0.0
C559 C 1.00381 0.99214 0.05449 0.0
C560 C 1.00343 0.02095 0.07233 0.0
C561 C 0.28085 0.7658 0.19976 0.0
C562 C 0.30166 0.77222 0.2517 0.0
C563 C 0.25292 0.76528 0.2203 0.0
C564 C 0.24466 0.77085 0.2938 0.0
H565 H 0.28617 0.76072 0.14283 0.0
H566 H 0.23773 0.75995 0.17865 0.0
S567 S 0.2904 0.79096 0.44983 0.0
N568 N 0.31156 0.78598 0.37907 0.0
N569 N 0.25925 0.78442 0.41779 0.0
C570 C 0.26511 0.77763 0.34609 0.0
C571 C 0.29352 0.7784 0.32509 0.0
C572 C 0.77425 0.73366 0.318 0.0
C573 C 0.79292 0.75423 0.29503 0.0
C574 C 0.74611 0.73529 0.3001 0.0
C575 C 0.7355 0.75766 0.25902 0.0
H576 H 0.78152 0.71603 0.34945 0.0
H577 H 0.73266 0.71866 0.3175 0.0
S578 S 0.77537 0.81848 0.19336 0.0
N579 N 0.79853 0.79851 0.23356 0.0
N580 N 0.7458 0.80196 0.20122 0.0
C581 C 0.75392 0.77873 0.2376 0.0
C582 C 0.78254 0.77692 0.2552 0.0
C583 C 0.78838 0.27201 0.82069 0.0
C584 C 0.79729 0.26839 0.74664 0.0
C585 C 0.7603 0.27122 0.83952 0.0
C586 C 0.73991 0.26703 0.78505 0.0
H587 H 0.80321 0.27578 0.86448 0.0
H588 H 0.75444 0.27418 0.8972 0.0
S589 S 0.75199 0.25408 0.58444 0.0
N590 N 0.7831 0.25845 0.61935 0.0
N591 N 0.73047 0.25794 0.65489 0.0
C592 C 0.7484 0.26318 0.71109 0.0
C593 C 0.777 0.26361 0.69189 0.0
C594 C 0.99261 0.53656 0.05519 0.0
C595 C 1.00759 0.54599 0.99282 0.0
C596 C 0.99251 0.50846 0.07568 0.0
C597 C 1.00705 0.48861 0.03408 0.0
H598 H 0.98063 0.55094 0.08808 0.0
H599 H 0.98085 0.50217 0.12427 0.0
S600 S 0.05177 0.50229 0.87115 0.0
N601 N 0.03941 0.53291 0.89381 0.0
N602 N 0.03803 0.48029 0.93077 0.0
C603 C 0.02233 0.49763 0.97244 0.0
C604 C 0.02289 0.52622 0.95222 0.0
C605 C 0.54478 0.49553 0.50668 0.0
C606 C 0.52198 0.48185 0.47555 0.0
C607 C 0.54385 0.52398 0.52258 0.0
C608 C 0.51994 0.53963 0.50911 0.0
H609 H 0.56348 0.48418 0.51848 0.0
H610 H 0.56171 0.53365 0.54745 0.0
S611 S 0.45471 0.5136 0.42872 0.0
N612 N 0.47489 0.48618 0.43179 0.0
N613 N 0.4731 0.53939 0.46234 0.0
C614 C 0.49709 0.52619 0.47787 0.0
C615 C 0.49813 0.49739 0.4609 0.0
C616 C 0.43353 0.15435 0.16924 0.0
C617 C 0.42418 0.16625 0.23597 0.0
C618 C 0.42089 0.16068 0.10172 0.0
C619 C 0.39854 0.17889 0.09956 0.0
H620 H 0.45171 0.14142 0.16898 0.0
H621 H 0.42967 0.15289 0.05041 0.0
S622 S 0.36585 0.21441 0.26 0.0
N623 N 0.39077 0.19579 0.29689 0.0
N624 N 0.36682 0.20785 0.16989 0.0
C625 C 0.38785 0.18939 0.16671 0.0
C626 C 0.40075 0.18295 0.23522 0.0
C627 C 0.1248 0.17364 0.33384 0.0
C628 C 0.10779 0.15061 0.32333 0.0
C629 C 0.13071 0.18297 0.40556 0.0
C630 C 0.11975 0.16938 0.46839 0.0
H631 H 0.13044 0.18653 0.28696 0.0
H632 H 0.1407 0.20282 0.41068 0.0
S633 S 0.08301 0.10243 0.46823 0.0
N634 N 0.08633 0.11049 0.37926 0.0
N635 N 0.09844 0.12737 0.515 0.0
C636 C 0.10737 0.14347 0.45792 0.0
C637 C 0.10096 0.13427 0.3849 0.0
C638 C 0.13718 0.86469 0.63704 0.0
C639 C 0.12129 0.86217 0.57201 0.0
C640 C 0.12465 0.87051 0.70508 0.0
C641 C 0.09609 0.8741 0.70952 0.0
H642 H 0.15859 0.85853 0.63743 0.0
H643 H 0.13666 0.8686 0.75558 0.0
S644 S 0.04759 0.87929 0.55118 0.0
N645 N 0.07737 0.87098 0.51274 0.0
N646 N 0.05355 0.8819 0.64143 0.0
C647 C 0.08099 0.87663 0.64325 0.0
C648 C 0.09374 0.87058 0.57395 0.0
C649 C 0.42993 0.8729 0.93491 0.0
C650 C 0.41324 0.84973 0.9473 0.0
C651 C 0.43739 0.88036 0.86265 0.0
C652 C 0.42858 0.86472 0.80123 0.0
H653 H 0.43983 0.88328 0.981 0.0
H654 H 0.45266 0.89642 0.85519 0.0
S655 S 0.37768 0.80802 0.80375 0.0
N656 N 0.38219 0.81605 0.89226 0.0
N657 N 0.39758 0.82928 0.756 0.0
C658 C 0.40848 0.84446 0.81223 0.0
C659 C 0.40052 0.8371 0.88578 0.0
C660 C 0.56683 0.80081 0.82592 0.0
C661 C 0.54331 0.81722 0.83607 0.0
C662 C 0.58028 0.78842 0.88707 0.0
C663 C 0.57072 0.79155 0.9612 0.0
H664 H 0.57627 0.79943 0.77135 0.0
H665 H 0.59938 0.77755 0.8765 0.0
S666 S 0.5071 0.82855 1.01603 0.0
N667 N 0.50905 0.8332 0.92497 0.0
N668 N 0.534 0.80946 0.03898 0.0
C669 C 0.54575 0.80569 0.97111 0.0
C670 C 0.53223 0.81868 0.90889 0.0
C671 C 0.96235 0.79591 0.73537 0.0
C672 C 0.98815 0.80805 0.72234 0.0
C673 C 0.94719 0.78359 0.67696 0.0
C674 C 0.95707 0.78261 0.60257 0.0
H675 H 0.9528 0.79783 0.78967 0.0
H676 H 0.9268 0.77594 0.68983 0.0
S677 S 0.02567 0.80742 0.54167 0.0
N678 N 0.02443 0.81535 0.63111 0.0
N679 N 0.99616 0.79209 0.52239 0.0
C680 C 0.98389 0.79253 0.59035 0.0
C681 C 0.99926 0.8053 0.64976 0.0
C682 C 0.97723 0.22984 0.32092 0.0
C683 C 0.99604 0.20864 0.33768 0.0
C684 C 0.96283 0.24404 0.37803 0.0
C685 C 0.96698 0.23819 0.45455 0.0
H686 H 0.9719 0.23397 0.26344 0.0
H687 H 0.94713 0.25874 0.36191 0.0
S688 S 0.01567 0.18631 0.52851 0.0
N689 N 0.01928 0.1839 0.43726 0.0
N690 N 0.99283 0.21095 0.54306 0.0
C691 C 0.98723 0.21859 0.47193 0.0
C692 C 1.00151 0.20376 0.41402 0.0
C693 C 0.53709 0.21602 0.13993 0.0
C694 C 0.54221 0.21815 0.2174 0.0
C695 C 0.55233 0.23123 0.08635 0.0
C696 C 0.57401 0.24886 0.10746 0.0
H697 H 0.52204 0.20126 0.12013 0.0
H698 H 0.54845 0.22748 0.02785 0.0
S699 S 0.59467 0.26343 0.3031 0.0
N700 N 0.56929 0.24103 0.3119 0.0
N701 N 0.59821 0.26902 0.21281 0.0
C702 C 0.5782 0.25239 0.18505 0.0
C703 C 0.5623 0.23727 0.23944 0.0
C704 C 0.94157 0.64864 0.64861 0.0
C705 C 0.92629 0.65846 0.71004 0.0
C706 C 0.93243 0.65313 0.57597 0.0
C707 C 0.908 0.66767 0.56317 0.0
H708 H 0.96222 0.64075 0.65553 0.0
H709 H 0.94634 0.64888 0.53021 0.0
S710 S 0.85646 0.68878 0.7035 0.0
N711 N 0.88225 0.67615 0.75279 0.0
N712 N 0.86558 0.68547 0.61529 0.0
C713 C 0.89047 0.67309 0.62333 0.0
C714 C 0.89956 0.66828 0.69729 0.0
C715 C 0.60837 0.65563 0.96021 0.0
C716 C 0.62054 0.68189 0.95955 0.0
C717 C 0.5995 0.64337 0.8942 0.0
C718 C 0.6025 0.657 0.82545 0.0
H719 H 0.60375 0.64543 1.01239 0.0
H720 H 0.58834 0.62408 0.89783 0.0
S721 S 0.63815 0.7233 0.79218 0.0
N722 N 0.63939 0.71899 0.88337 0.0
N723 N 0.62175 0.69608 0.75914 0.0
C724 C 0.61672 0.68209 0.82329 0.0
C725 C 0.62604 0.69448 0.89042 0.0
C726 C 0.64125 0.36227 0.13434 0.0
C727 C 0.62466 0.35979 0.0704 0.0
C728 C 0.62953 0.36818 0.20334 0.0
C729 C 0.60109 0.37196 0.21001 0.0
H730 H 0.66261 0.356 0.13361 0.0
H731 H 0.64208 0.36627 0.25286 0.0
S732 S 0.55088 0.37747 0.05526 0.0
N733 N 0.58027 0.36935 1.01453 0.0
N734 N 0.55786 0.37998 0.14494 0.0
C735 C 0.5853 0.37467 0.14478 0.0
C736 C 0.59729 0.36871 0.07445 0.0
C737 C 0.9048 0.34539 0.40999 0.0
C738 C 0.91808 0.3551 0.4742 0.0
C739 C 0.91113 0.35628 0.34018 0.0
C740 C 0.93106 0.3771 0.33281 0.0
H741 H 0.89111 0.32779 0.41327 0.0
H742 H 0.90262 0.34629 0.2915 0.0
S743 S 0.9666 0.41383 0.48569 0.0
N744 N 0.94833 0.38968 0.52782 0.0
N745 N 0.9597 0.4108 0.39605 0.0
C746 C 0.94155 0.38948 0.39751 0.0
C747 C 0.93523 0.37826 0.46862 0.0
C748 C 0.05569 0.29712 0.31525 0.0
C749 C 0.0381 0.31894 0.335 0.0
C750 C 0.0692 0.2812 0.37016 0.0
C751 C 0.06559 0.28615 0.4474 0.0
H752 H 0.06068 0.29362 0.25721 0.0
H753 H 0.08377 0.26573 0.35161 0.0
S754 S 0.01779 0.33788 0.528 0.0
N755 N 0.01512 0.34248 0.43713 0.0
N756 N 0.04006 0.31244 0.53953 0.0
C757 C 0.04612 0.3063 0.46757 0.0
C758 C 0.03261 0.32272 0.41167 0.0
C759 C 0.4779 0.29373 0.08283 0.0
C760 C 0.45584 0.27708 0.10653 0.0
C761 C 0.49465 0.30799 0.13443 0.0
C762 C 0.49049 0.3061 0.21243 0.0
H763 H 0.48113 0.29733 0.02393 0.0
H764 H 0.51025 0.32177 0.11257 0.0
S765 S 0.43863 0.26126 0.30402 0.0
N766 N 0.43305 0.25674 0.21411 0.0
N767 N 0.46455 0.28321 0.31012 0.0
C768 C 0.47007 0.2876 0.23692 0.0
C769 C 0.45278 0.27329 0.18434 0.0
C770 C 0.48765 0.71439 0.97054 0.0
C771 C 0.47016 0.73629 0.95064 0.0
C772 C 0.50141 0.69859 0.91581 0.0
C773 C 0.49861 0.70412 0.83873 0.0
H774 H 0.48896 0.70798 0.02822 0.0
H775 H 0.51322 0.68086 0.93405 0.0
S776 S 0.45838 0.762 0.75841 0.0
N777 N 0.45303 0.76454 0.84904 0.0
N778 N 0.47926 0.7354 0.74693 0.0
C779 C 0.48309 0.72751 0.81876 0.0
C780 C 0.46875 0.74334 0.87443 0.0
C781 C 0.06302 0.73433 0.72995 0.0
C782 C 0.03954 0.72008 0.70517 0.0
C783 C 0.0804 0.74853 0.67961 0.0
C784 C 0.07509 0.74945 0.60205 0.0
H785 H 0.06909 0.73298 0.78785 0.0
H786 H 0.09894 0.75787 0.70154 0.0
S787 S 0.01362 0.71943 0.51037 0.0
N788 N 1.01004 0.71077 0.59883 0.0
N789 N 0.04249 0.73732 0.50515 0.0
C790 C 0.05045 0.7372 0.57761 0.0
C791 C 0.03283 0.72258 0.62879 0.0
C792 C 0.49262 0.22381 0.73269 0.0
C793 C 0.46398 0.22756 0.74371 0.0
C794 C 0.50336 0.21056 0.66853 0.0
C795 C 0.48603 0.20088 0.61144 0.0
H796 H 0.50696 0.23048 0.77511 0.0
H797 H 0.52531 0.20684 0.66516 0.0
S798 S 0.40986 0.20685 0.6091 0.0
N799 N 0.41882 0.2214 0.68856 0.0
N800 N 0.43882 0.19675 0.56939 0.0
C801 C 0.45753 0.20522 0.62061 0.0
C802 C 0.44658 0.21846 0.68603 0.0
C803 C 0.05927 0.19198 0.92357 0.0
C804 C 0.04852 0.21296 0.96947 0.0
C805 C 0.07355 0.198 0.85732 0.0
C806 C 0.07787 0.22536 0.83273 0.0
H807 H 0.05707 0.17054 0.93928 0.0
H808 H 0.08155 0.18084 0.82525 0.0
S809 S 0.05457 0.28833 0.93178 0.0
N810 N 0.04354 0.26272 0.98477 0.0
N811 N 0.07025 0.27377 0.86029 0.0
C812 C 0.06693 0.24664 0.87708 0.0
C813 C 0.0524 0.24053 0.94522 0.0
C814 C 0.09328 0.83186 0.1021 0.0
C815 C 0.0647 0.83043 0.08839 0.0
C816 C 0.10482 0.82359 0.17015 0.0
C817 C 0.08857 0.81294 0.22813 0.0
H818 H 0.10701 0.84047 0.06059 0.0
H819 H 0.12674 0.82635 0.17819 0.0
S820 S 0.01295 0.80315 0.22192 0.0
N821 N 0.02049 0.81623 0.13928 0.0
N822 N 0.04245 0.80019 0.26694 0.0
C823 C 0.06018 0.8099 0.21464 0.0
C824 C 0.04821 0.81866 0.14492 0.0
C825 C 0.45624 0.8 0.41049 0.0
C826 C 0.46283 0.79462 0.33518 0.0
C827 C 0.4754 0.81167 0.46025 0.0
C828 C 0.50204 0.81919 0.437 0.0
H829 H 0.43567 0.79588 0.43096 0.0
H830 H 0.46879 0.81573 0.51673 0.0
S831 S 0.53103 0.80629 0.24774 0.0
N832 N 0.49902 0.79509 0.24199 0.0
N833 N 0.53481 0.81755 0.3339 0.0
C834 C 0.50947 0.81235 0.36276 0.0
C835 C 0.49 0.79998 0.31241 0.0
C836 C 0.62514 0.83948 0.48172 0.0
C837 C 0.611 0.86398 0.4973 0.0
C838 C 0.63021 0.83146 0.40813 0.0
C839 C 0.62045 0.84723 0.34752 0.0
H840 H 0.63071 0.82567 0.52668 0.0
H841 H 0.64039 0.81189 0.39873 0.0
S842 S 0.58415 0.91439 0.35998 0.0
N843 N 0.58967 0.90536 0.44731 0.0
N844 N 0.59782 0.88961 0.30884 0.0
C845 C 0.60801 0.87277 0.36266 0.0
C846 C 0.60352 0.88126 0.43768 0.0
C847 C 0.94514 0.86297 0.24602 0.0
C848 C 0.91973 0.85038 0.25998 0.0
C849 C 0.95344 0.86892 0.17309 0.0
C850 C 0.93679 0.86195 0.11167 0.0
H851 H 0.95918 0.86691 0.29155 0.0
H852 H 0.97359 0.8779 0.16443 0.0
S853 S 0.86839 0.82841 0.11928 0.0
N854 N 0.87769 0.83153 0.20722 0.0
N855 N 0.89356 0.84226 0.07 0.0
C856 C 0.9108 0.85044 0.1252 0.0
C857 C 0.90224 0.84467 0.19947 0.0
C858 C 0.90802 0.18828 0.87308 0.0
C859 C 0.92162 0.17678 0.81125 0.0
C860 C 0.91565 0.18113 0.94584 0.0
C861 C 0.93719 0.16239 0.95847 0.0
H862 H 0.89274 0.20426 0.86495 0.0
H863 H 0.90622 0.1919 0.99213 0.0
S864 S 0.97602 0.12358 0.81458 0.0
N865 N 0.95525 0.1439 0.7666 0.0
N866 N 0.96925 0.12965 0.90326 0.0
C867 C 0.94916 0.149 0.89681 0.0
C868 C 0.94148 0.15646 0.82305 0.0
C869 C 0.60691 0.20374 0.57039 0.0
C870 C 0.60359 0.17589 0.55243 0.0
C871 C 0.60917 0.21214 0.64404 0.0
C872 C 0.60903 0.1929 0.70311 0.0
H873 H 0.60506 0.21932 0.52736 0.0
H874 H 0.60922 0.23413 0.65408 0.0
S875 S 0.60509 0.11677 0.68334 0.0
N876 N 0.60255 0.12861 0.59736 0.0
N877 N 0.60889 0.14421 0.73695 0.0
C878 C 0.60815 0.16464 0.68522 0.0
C879 C 0.60521 0.15615 0.60956 0.0
C880 C 0.96978 0.69543 0.15264 0.0
C881 C 0.97789 0.70542 0.08211 0.0
C882 C 0.95979 0.71319 0.20895 0.0
C883 C 0.95625 0.7417 0.19638 0.0
H884 H 0.97055 0.67346 0.16389 0.0
H885 H 0.95369 0.70418 0.26146 0.0
S886 S 0.97629 0.77865 0.02234 0.0
N887 N 0.9839 0.74605 1.00505 0.0
N888 N 0.96376 0.77922 0.10787 0.0
C889 C 0.96543 0.75209 0.12674 0.0
C890 C 0.97651 0.73406 0.07049 0.0
C891 C 0.55685 0.70028 0.33996 0.0
C892 C 0.56727 0.72704 0.32598 0.0
C893 C 0.54805 0.69195 0.41167 0.0
C894 C 0.54866 0.71014 0.47297 0.0
H895 H 0.55558 0.68544 0.29501 0.0
H896 H 0.54008 0.67123 0.41858 0.0
S897 S 0.57414 0.78241 0.46764 0.0
N898 N 0.57782 0.7715 0.38118 0.0
N899 N 0.56099 0.75622 0.51451 0.0
C900 C 0.55905 0.73692 0.4599 0.0
C901 C 0.56843 0.74523 0.38713 0.0
C902 C 0.58337 0.32458 0.62036 0.0
C903 C 0.55611 0.32548 0.59254 0.0
C904 C 0.59016 0.31169 0.68846 0.0
C905 C 0.57014 0.29881 0.73331 0.0
H906 H 0.59997 0.33399 0.58907 0.0
H907 H 0.61148 0.31169 0.70555 0.0
S908 S 0.49533 0.29599 0.68904 0.0
N909 N 0.50876 0.31263 0.61739 0.0
N910 N 0.52125 0.28852 0.7449 0.0
C911 C 0.54268 0.29956 0.7065 0.0
C912 C 0.53576 0.31275 0.63664 0.0
C913 C 0.9772 0.2849 0.97542 0.0
C914 C 0.98791 0.31202 0.97766 0.0
C915 C 0.96261 0.27493 0.91311 0.0
C916 C 0.9587 0.2913 0.8493 0.0
H917 H 0.97901 0.27155 0.02356 0.0
H918 H 0.9532 0.25468 0.91631 0.0
S919 S 0.98484 0.36252 0.82224 0.0
N920 N 0.99511 0.35421 0.90698 0.0
N921 N 0.96802 0.33536 0.79033 0.0
C922 C 0.97045 0.31784 0.84904 0.0
C923 C 0.98498 0.32819 0.91287 0.0
C924 C 0.082 0.35266 0.81619 0.0
C925 C 0.10982 0.34876 0.7991 0.0
C926 C 0.07364 0.35912 0.88823 0.0
C927 C 0.09283 0.3622 0.94649 0.0
H928 H 0.06643 0.34877 0.77438 0.0
H929 H 0.05178 0.35978 0.89853 0.0
S930 S 0.16873 0.3581 0.92748 0.0
N931 N 0.15698 0.35083 0.84351 0.0
N932 N 0.14133 0.36431 0.97939 0.0
C933 C 0.12099 0.36055 0.92869 0.0
C934 C 0.12949 0.35365 0.85483 0.0
C935 C 0.42549 0.36237 0.68916 0.0
C936 C 0.4254 0.33364 0.70065 0.0
C937 C 0.42851 0.37336 0.61758 0.0
C938 C 0.43074 0.35596 0.55562 0.0
H939 H 0.42435 0.3764 0.73593 0.0
H940 H 0.43102 0.39544 0.6109 0.0
S941 S 0.43182 0.27976 0.55368 0.0
N942 N 0.4283 0.28813 0.64216 0.0
N943 N 0.43205 0.30932 0.50825 0.0
C944 C 0.42881 0.32744 0.56544 0.0
C945 C 0.42672 0.3161 0.63793 0.0
C946 C 0.45299 0.65458 0.38566 0.0
C947 C 0.43811 0.66556 0.44638 0.0
C948 C 0.44553 0.66057 0.31234 0.0
C949 C 0.4224 0.67675 0.29745 0.0
H950 H 0.47152 0.64267 0.3947 0.0
H951 H 0.45884 0.6541 0.2672 0.0
S952 S 0.37374 0.70645 0.43419 0.0
N953 N 0.3974 0.69106 0.48544 0.0
N954 N 0.38255 0.70059 0.34678 0.0
C955 C 0.40561 0.68521 0.3567 0.0
C956 C 0.41359 0.67991 0.43158 0.0
C957 C 0.10838 0.66809 0.18772 0.0
C958 C 0.10809 0.69627 0.20631 0.0
C959 C 0.10356 0.65946 0.11434 0.0
C960 C 0.09845 0.6788 0.05755 0.0
H961 H 0.11167 0.6527 0.23052 0.0
H962 H 0.10213 0.63756 0.10292 0.0
S963 S 0.09629 0.75484 0.07587 0.0
N964 N 0.10197 0.74343 0.16099 0.0
N965 N 0.09532 0.72705 0.02302 0.0
C966 C 0.09972 0.70696 0.07462 0.0
C967 C 0.10379 0.71577 0.14908 0.0
loop_
_geom_bond_atom_site_label_1
_geom_bond_atom_site_label_2
_geom_bond_distance
_geom_bond_site_symmetry_2
_ccdc_geom_bond_type
C0 C1 1.351 . S
C0 N3 1.368 . S
C0 H5 0.931 . S
C1 C0 1.351 . S
C1 N2 1.373 . S
C1 H29 0.930 . S
N2 C1 1.373 . S
N2 C4 1.340 . S
N3 C0 1.368 . S
N3 C4 1.321 . S
N3 Co6 2.135 . S
C4 N2 1.340 . S
C4 N3 1.321 . S
C4 H28 0.930 . S
H5 C0 0.931 . S
Co6 N3 2.135 . S
Co6 N9 2.121 . S
Co6 O14 2.055 . S
Co6 O17 2.039 . S
Co6 N20 2.140 . S
C7 O8 1.227 . S
C7 O17 1.265 . S
O8 C7 1.227 . S
N9 Co6 2.121 . S
N9 C11 1.375 . S
N9 C12 1.313 . S
C10 C11 1.338 . S
C10 N13 1.377 . S
C10 H30 0.930 . S
C11 N9 1.375 . S
C11 C10 1.338 . S
C11 H15 0.931 . S
C12 N9 1.313 . S
C12 N13 1.344 . S
C12 H16 0.930 . S
N13 C10 1.377 . S
N13 C12 1.344 . S
O14 Co6 2.055 . S
O14 C18 1.253 . S
H15 C11 0.931 . S
H16 C12 0.930 . S
O17 Co6 2.039 . S
O17 C7 1.265 . S
C18 O14 1.253 . S
C18 O19 1.227 . S
O19 C18 1.227 . S
N20 Co6 2.140 . S
N20 C23 1.346 . S
N20 C24 1.345 . S
C21 C22 1.387 . S
C21 C25 1.391 . S
C22 C21 1.387 . S
C22 C23 1.369 . S
C22 H31 0.929 . S
C23 N20 1.346 . S
C23 C22 1.369 . S
C23 H26 0.928 . S
C24 N20 1.345 . S
C24 C25 1.371 . S
C24 H27 0.931 . S
C25 C21 1.391 . S
C25 C24 1.371 . S
C25 H32 0.930 . S
H26 C23 0.928 . S
H27 C24 0.931 . S
H28 C4 0.930 . S
H29 C1 0.930 . S
H30 C10 0.930 . S
H31 C22 0.929 . S
H32 C25 0.930 . S
C33 C34 1.351 . S
C33 N36 1.368 . S
C33 H38 0.931 . S
C34 C33 1.351 . S
C34 N35 1.373 . S
C34 H62 0.930 . S
N35 C34 1.373 . S
N35 C37 1.340 . S
N36 C33 1.368 . S
N36 C37 1.321 . S
N36 Co39 2.135 . S
C37 N35 1.340 . S
C37 N36 1.321 . S
C37 H61 0.930 . S
H38 C33 0.931 . S
Co39 N36 2.135 . S
Co39 N42 2.121 . S
Co39 O47 2.055 . S
Co39 O50 2.039 . S
Co39 N53 2.140 . S
C40 O41 1.227 . S
C40 O50 1.265 . S
O41 C40 1.227 . S
N42 Co39 2.121 . S
N42 C44 1.375 . S
N42 C45 1.313 . S
C43 C44 1.338 . S
C43 N46 1.377 . S
C43 H63 0.930 . S
C44 N42 1.375 . S
C44 C43 1.338 . S
C44 H48 0.931 . S
C45 N42 1.313 . S
C45 N46 1.344 . S
C45 H49 0.930 . S
N46 C43 1.377 . S
N46 C45 1.344 . S
O47 Co39 2.055 . S
O47 C51 1.253 . S
H48 C44 0.931 . S
H49 C45 0.930 . S
O50 Co39 2.039 . S
O50 C40 1.265 . S
C51 O47 1.253 . S
C51 O52 1.227 . S
O52 C51 1.227 . S
N53 Co39 2.140 . S
N53 C56 1.346 . S
N53 C57 1.345 . S
C54 C55 1.387 . S
C54 C58 1.391 . S
C55 C54 1.387 . S
C55 C56 1.369 . S
C55 H64 0.929 . S
C56 N53 1.346 . S
C56 C55 1.369 . S
C56 H59 0.928 . S
C57 N53 1.345 . S
C57 C58 1.371 . S
C57 H60 0.931 . S
C58 C54 1.391 . S
C58 C57 1.371 . S
C58 H65 0.930 . S
H59 C56 0.928 . S
H60 C57 0.931 . S
H61 C37 0.930 . S
H62 C34 0.930 . S
H63 C43 0.930 . S
H64 C55 0.929 . S
H65 C58 0.930 . S
C66 C67 1.351 . S
C66 N69 1.368 . S
C66 H71 0.931 . S
C67 C66 1.351 . S
C67 N68 1.373 1_556 S
C67 H95 0.930 . S
N68 C67 1.373 1_554 S
N68 C70 1.340 . S
N69 C66 1.368 . S
N69 C70 1.321 1_556 S
N69 Co72 2.135 1_655 S
C70 N68 1.340 . S
C70 N69 1.321 1_554 S
C70 H94 0.930 . S
H71 C66 0.931 . S
Co72 N69 2.135 1_455 S
Co72 N75 2.121 . S
Co72 O80 2.055 1_455 S
Co72 O83 2.039 . S
Co72 N86 2.140 . S
C73 O74 1.227 1_556 S
C73 O83 1.265 . S
O74 C73 1.227 1_554 S
N75 Co72 2.121 . S
N75 C77 1.375 . S
N75 C78 1.313 . S
C76 C77 1.338 . S
C76 N79 1.377 . S
C76 H96 0.930 . S
C77 N75 1.375 . S
C77 C76 1.338 . S
C77 H81 0.931 . S
C78 N75 1.313 . S
C78 N79 1.344 . S
C78 H82 0.930 . S
N79 C76 1.377 . S
N79 C78 1.344 . S
O80 Co72 2.055 1_655 S
O80 C84 1.253 . S
H81 C77 0.931 . S
H82 C78 0.930 . S
O83 Co72 2.039 . S
O83 C73 1.265 . S
C84 O80 1.253 . S
C84 O85 1.227 . S
O85 C84 1.227 . S
N86 Co72 2.140 . S
N86 C89 1.346 . S
N86 C90 1.345 . S
C87 C88 1.387 . S
C87 C91 1.391 . S
C88 C87 1.387 . S
C88 C89 1.369 . S
C88 H97 0.928 1_456 S
C89 N86 1.346 . S
C89 C88 1.369 . S
C89 H92 0.924 1_455 S
C90 N86 1.345 . S
C90 C91 1.371 . S
C90 H93 0.931 . S
C91 C87 1.391 . S
C91 C90 1.371 . S
C91 H98 0.930 . S
H92 C89 0.924 1_655 S
H93 C90 0.931 . S
H94 C70 0.930 . S
H95 C67 0.930 . S
H96 C76 0.930 . S
H97 C88 0.928 1_654 S
H98 C91 0.930 . S
C99 C100 1.351 . S
C99 N102 1.368 . S
C99 H104 0.931 . S
C100 C99 1.351 . S
C100 N101 1.373 . S
C100 H128 0.930 . S
N101 C100 1.373 . S
N101 C103 1.340 . S
N102 C99 1.368 . S
N102 C103 1.321 . S
N102 Co105 2.135 . S
C103 N101 1.340 . S
C103 N102 1.321 . S
C103 H127 0.930 . S
H104 C99 0.931 . S
Co105 N102 2.135 . S
Co105 N108 2.121 . S
Co105 O113 2.055 . S
Co105 O116 2.039 . S
Co105 N119 2.140 . S
C106 O107 1.227 . S
C106 O116 1.265 . S
O107 C106 1.227 . S
N108 Co105 2.121 . S
N108 C110 1.375 . S
N108 C111 1.313 1_554 S
C109 C110 1.338 . S
C109 N112 1.377 1_554 S
C109 H129 0.930 . S
C110 N108 1.375 . S
C110 C109 1.338 . S
C110 H114 0.931 . S
C111 N108 1.313 1_556 S
C111 N112 1.344 . S
C111 H115 0.930 . S
N112 C109 1.377 1_556 S
N112 C111 1.344 . S
O113 Co105 2.055 . S
O113 C117 1.253 . S
H114 C110 0.931 . S
H115 C111 0.930 . S
O116 Co105 2.039 . S
O116 C106 1.265 . S
C117 O113 1.253 . S
C117 O118 1.227 . S
O118 C117 1.227 . S
N119 Co105 2.140 . S
N119 C122 1.346 . S
N119 C123 1.345 . S
C120 C121 1.387 . S
C120 C124 1.391 . S
C121 C120 1.387 . S
C121 C122 1.369 . S
C121 H130 0.929 . S
C122 N119 1.346 . S
C122 C121 1.369 . S
C122 H125 0.928 . S
C123 N119 1.345 . S
C123 C124 1.371 . S
C123 H126 0.931 . S
C124 C120 1.391 . S
C124 C123 1.371 . S
C124 H131 0.930 . S
H125 C122 0.928 . S
H126 C123 0.931 . S
H127 C103 0.930 . S
H128 C100 0.930 . S
H129 C109 0.930 . S
H130 C121 0.929 . S
H131 C124 0.930 . S
C132 C133 1.351 . S
C132 N135 1.368 . S
C132 H137 0.931 . S
C133 C132 1.351 . S
C133 N134 1.373 . S
C133 H161 0.930 . S
N134 C133 1.373 . S
N134 C136 1.340 . S
N135 C132 1.368 . S
N135 C136 1.321 . S
N135 Co138 2.135 . S
C136 N134 1.340 . S
C136 N135 1.321 . S
C136 H160 0.930 . S
H137 C132 0.931 . S
Co138 N135 2.135 . S
Co138 N141 2.121 . S
Co138 O146 2.055 . S
Co138 O149 2.039 . S
Co138 N152 2.140 . S
C139 O140 1.227 . S
C139 O149 1.265 . S
O140 C139 1.227 . S
N141 Co138 2.121 . S
N141 C143 1.375 . S
N141 C144 1.313 . S
C142 C143 1.338 . S
C142 N145 1.377 . S
C142 H162 0.930 . S
C143 N141 1.375 . S
C143 C142 1.338 . S
C143 H147 0.931 . S
C144 N141 1.313 . S
C144 N145 1.344 . S
C144 H148 0.930 . S
N145 C142 1.377 . S
N145 C144 1.344 . S
O146 Co138 2.055 . S
O146 C150 1.253 . S
H147 C143 0.931 . S
H148 C144 0.930 . S
O149 Co138 2.039 . S
O149 C139 1.265 . S
C150 O146 1.253 . S
C150 O151 1.227 . S
O151 C150 1.227 . S
N152 Co138 2.140 . S
N152 C155 1.346 . S
N152 C156 1.345 . S
C153 C154 1.387 . S
C153 C157 1.391 . S
C154 C153 1.387 . S
C154 C155 1.369 . S
C154 H163 0.929 . S
C155 N152 1.346 . S
C155 C154 1.369 . S
C155 H158 0.928 . S
C156 N152 1.345 . S
C156 C157 1.371 . S
C156 H159 0.931 . S
C157 C153 1.391 . S
C157 C156 1.371 . S
C157 H164 0.930 . S
H158 C155 0.928 . S
H159 C156 0.931 . S
H160 C136 0.930 . S
H161 C133 0.930 . S
H162 C142 0.930 . S
H163 C154 0.929 . S
H164 C157 0.930 . S
C165 C166 1.351 . S
C165 N168 1.368 . S
C165 H170 0.931 . S
C166 C165 1.351 . S
C166 N167 1.373 . S
C166 H194 0.930 . S
N167 C166 1.373 . S
N167 C169 1.340 . S
N168 C165 1.368 . S
N168 C169 1.321 . S
N168 Co171 2.135 . S
C169 N167 1.340 . S
C169 N168 1.321 . S
C169 H193 0.930 . S
H170 C165 0.931 . S
Co171 N168 2.135 . S
Co171 N174 2.121 . S
Co171 O179 2.055 . S
Co171 O182 2.039 . S
Co171 N185 2.140 . S
C172 O173 1.227 . S
C172 O182 1.265 . S
O173 C172 1.227 . S
N174 Co171 2.121 . S
N174 C176 1.375 . S
N174 C177 1.313 1_556 S
C175 C176 1.338 . S
C175 N178 1.377 1_556 S
C175 H195 0.930 . S
C176 N174 1.375 . S
C176 C175 1.338 . S
C176 H180 0.931 . S
C177 N174 1.313 1_554 S
C177 N178 1.344 . S
C177 H181 0.930 . S
N178 C175 1.377 1_554 S
N178 C177 1.344 . S
O179 Co171 2.055 . S
O179 C183 1.253 . S
H180 C176 0.931 . S
H181 C177 0.930 . S
O182 Co171 2.039 . S
O182 C172 1.265 . S
C183 O179 1.253 . S
C183 O184 1.227 . S
O184 C183 1.227 . S
N185 Co171 2.140 . S
N185 C188 1.346 . S
N185 C189 1.345 . S
C186 C187 1.387 . S
C186 C190 1.391 . S
C187 C186 1.387 . S
C187 C188 1.369 . S
C187 H196 0.929 . S
C188 N185 1.346 . S
C188 C187 1.369 . S
C188 H191 0.928 . S
C189 N185 1.345 . S
C189 C190 1.371 . S
C189 H192 0.931 . S
C190 C186 1.391 . S
C190 C189 1.371 . S
C190 H197 0.930 . S
H191 C188 0.928 . S
H192 C189 0.931 . S
H193 C169 0.930 . S
H194 C166 0.930 . S
H195 C175 0.930 . S
H196 C187 0.929 . S
H197 C190 0.930 . S
C198 C199 1.351 . S
C198 N201 1.368 . S
C198 H203 0.931 . S
C199 C198 1.351 . S
C199 N200 1.373 1_554 S
C199 H227 0.930 . S
N200 C199 1.373 1_556 S
N200 C202 1.340 . S
N201 C198 1.368 . S
N201 C202 1.321 1_554 S
N201 Co204 2.135 1_655 S
C202 N200 1.340 . S
C202 N201 1.321 1_556 S
C202 H226 0.930 . S
H203 C198 0.931 . S
Co204 N201 2.135 1_455 S
Co204 N207 2.121 . S
Co204 O212 2.055 1_455 S
Co204 O215 2.039 . S
Co204 N218 2.140 . S
C205 O206 1.227 1_554 S
C205 O215 1.265 . S
O206 C205 1.227 1_556 S
N207 Co204 2.121 . S
N207 C209 1.375 . S
N207 C210 1.313 . S
C208 C209 1.338 . S
C208 N211 1.377 . S
C208 H228 0.930 . S
C209 N207 1.375 . S
C209 C208 1.338 . S
C209 H213 0.931 . S
C210 N207 1.313 . S
C210 N211 1.344 . S
C210 H214 0.930 . S
N211 C208 1.377 . S
N211 C210 1.344 . S
O212 Co204 2.055 1_655 S
O212 C216 1.253 . S
H213 C209 0.931 . S
H214 C210 0.930 . S
O215 Co204 2.039 . S
O215 C205 1.265 . S
C216 O212 1.253 . S
C216 O217 1.227 . S
O217 C216 1.227 . S
N218 Co204 2.140 . S
N218 C221 1.346 . S
N218 C222 1.345 . S
C219 C220 1.387 . S
C219 C223 1.391 . S
C220 C219 1.387 . S
C220 C221 1.369 . S
C220 H229 0.928 1_454 S
C221 N218 1.346 . S
C221 C220 1.369 . S
C221 H224 0.924 1_455 S
C222 N218 1.345 . S
C222 C223 1.371 . S
C222 H225 0.931 . S
C223 C219 1.391 . S
C223 C222 1.371 . S
C223 H230 0.930 . S
H224 C221 0.924 1_655 S
H225 C222 0.931 . S
H226 C202 0.930 . S
H227 C199 0.930 . S
H228 C208 0.930 . S
H229 C220 0.928 1_656 S
H230 C223 0.930 . S
C231 C232 1.351 . S
C231 N234 1.368 . S
C231 H236 0.931 . S
C232 C231 1.351 . S
C232 N233 1.373 . S
C232 H260 0.930 . S
N233 C232 1.373 . S
N233 C235 1.340 . S
N234 C231 1.368 . S
N234 C235 1.321 . S
N234 Co237 2.135 . S
C235 N233 1.340 . S
C235 N234 1.321 . S
C235 H259 0.930 . S
H236 C231 0.931 . S
Co237 N234 2.135 . S
Co237 N240 2.121 . S
Co237 O245 2.055 . S
Co237 O248 2.039 . S
Co237 N251 2.140 . S
C238 O239 1.227 . S
C238 O248 1.265 . S
O239 C238 1.227 . S
N240 Co237 2.121 . S
N240 C242 1.375 . S
N240 C243 1.313 . S
C241 C242 1.338 . S
C241 N244 1.377 . S
C241 H261 0.930 . S
C242 N240 1.375 . S
C242 C241 1.338 . S
C242 H246 0.931 . S
C243 N240 1.313 . S
C243 N244 1.344 . S
C243 H247 0.930 . S
N244 C241 1.377 . S
N244 C243 1.344 . S
O245 Co237 2.055 . S
O245 C249 1.253 . S
H246 C242 0.931 . S
H247 C243 0.930 . S
O248 Co237 2.039 . S
O248 C238 1.265 . S
C249 O245 1.253 . S
C249 O250 1.227 . S
O250 C249 1.227 . S
N251 Co237 2.140 . S
N251 C254 1.346 . S
N251 C255 1.345 . S
C252 C253 1.387 . S
C252 C256 1.391 . S
C253 C252 1.387 . S
C253 C254 1.369 . S
C253 H262 0.929 . S
C254 N251 1.346 . S
C254 C253 1.369 . S
C254 H257 0.928 . S
C255 N251 1.345 . S
C255 C256 1.371 . S
C255 H258 0.931 . S
C256 C252 1.391 . S
C256 C255 1.371 . S
C256 H263 0.930 . S
H257 C254 0.928 . S
H258 C255 0.931 . S
H259 C235 0.930 . S
H260 C232 0.930 . S
H261 C241 0.930 . S
H262 C253 0.929 . S
H263 C256 0.930 . S
C264 C265 1.351 . S
C264 N267 1.368 . S
C264 H269 0.931 . S
C265 C264 1.351 . S
C265 N266 1.373 . S
C265 H293 0.930 . S
N266 C265 1.373 . S
N266 C268 1.340 . S
N267 C264 1.368 . S
N267 C268 1.321 . S
N267 Co270 2.135 . S
C268 N266 1.340 . S
C268 N267 1.321 . S
C268 H292 0.930 . S
H269 C264 0.931 . S
Co270 N267 2.135 . S
Co270 N273 2.121 . S
Co270 O278 2.055 . S
Co270 O281 2.039 . S
Co270 N284 2.140 . S
C271 O272 1.227 . S
C271 O281 1.265 . S
O272 C271 1.227 . S
N273 Co270 2.121 . S
N273 C275 1.375 . S
N273 C276 1.313 . S
C274 C275 1.338 . S
C274 N277 1.377 . S
C274 H294 0.930 . S
C275 N273 1.375 . S
C275 C274 1.338 . S
C275 H279 0.931 . S
C276 N273 1.313 . S
C276 N277 1.344 . S
C276 H280 0.930 . S
N277 C274 1.377 . S
N277 C276 1.344 . S
O278 Co270 2.055 . S
O278 C282 1.253 . S
H279 C275 0.931 . S
H280 C276 0.930 . S
O281 Co270 2.039 . S
O281 C271 1.265 . S
C282 O278 1.253 . S
C282 O283 1.227 . S
O283 C282 1.227 . S
N284 Co270 2.140 . S
N284 C287 1.346 . S
N284 C288 1.345 . S
C285 C286 1.387 . S
C285 C289 1.391 . S
C286 C285 1.387 . S
C286 C287 1.369 . S
C286 H295 0.929 . S
C287 N284 1.346 . S
C287 C286 1.369 . S
C287 H290 0.928 . S
C288 N284 1.345 . S
C288 C289 1.371 . S
C288 H291 0.931 . S
C289 C285 1.391 . S
C289 C288 1.371 . S
C289 H296 0.930 . S
H290 C287 0.928 . S
H291 C288 0.931 . S
H292 C268 0.930 . S
H293 C265 0.930 . S
H294 C274 0.930 . S
H295 C286 0.929 . S
H296 C289 0.930 . S
C297 C298 1.351 . S
C297 N300 1.368 . S
C297 H302 0.931 . S
C298 C297 1.351 . S
C298 N299 1.373 . S
C298 H326 0.930 . S
N299 C298 1.373 . S
N299 C301 1.340 . S
N300 C297 1.368 . S
N300 C301 1.321 . S
N300 Co303 2.135 . S
C301 N299 1.340 . S
C301 N300 1.321 . S
C301 H325 0.930 . S
H302 C297 0.931 . S
Co303 N300 2.135 . S
Co303 N306 2.121 . S
Co303 O311 2.055 . S
Co303 O314 2.039 . S
Co303 N317 2.140 . S
C304 O305 1.227 . S
C304 O314 1.265 . S
O305 C304 1.227 . S
N306 Co303 2.121 . S
N306 C308 1.375 . S
N306 C309 1.313 1_556 S
C307 C308 1.338 . S
C307 N310 1.377 1_556 S
C307 H327 0.930 . S
C308 N306 1.375 . S
C308 C307 1.338 . S
C308 H312 0.931 . S
C309 N306 1.313 1_554 S
C309 N310 1.344 . S
C309 H313 0.930 . S
N310 C307 1.377 1_554 S
N310 C309 1.344 . S
O311 Co303 2.055 . S
O311 C315 1.253 . S
H312 C308 0.931 . S
H313 C309 0.930 . S
O314 Co303 2.039 . S
O314 C304 1.265 . S
C315 O311 1.253 . S
C315 O316 1.227 . S
O316 C315 1.227 . S
N317 Co303 2.140 . S
N317 C320 1.346 . S
N317 C321 1.345 . S
C318 C319 1.387 . S
C318 C322 1.391 . S
C319 C318 1.387 . S
C319 C320 1.369 . S
C319 H328 0.929 . S
C320 N317 1.346 . S
C320 C319 1.369 . S
C320 H323 0.928 . S
C321 N317 1.345 . S
C321 C322 1.371 . S
C321 H324 0.931 . S
C322 C318 1.391 . S
C322 C321 1.371 . S
C322 H329 0.930 . S
H323 C320 0.928 . S
H324 C321 0.931 . S
H325 C301 0.930 . S
H326 C298 0.930 . S
H327 C307 0.930 . S
H328 C319 0.929 . S
H329 C322 0.930 . S
C330 C331 1.351 . S
C330 N333 1.368 . S
C330 H335 0.931 . S
C331 C330 1.351 . S
C331 N332 1.373 . S
C331 H359 0.930 . S
N332 C331 1.373 . S
N332 C334 1.340 . S
N333 C330 1.368 . S
N333 C334 1.321 . S
N333 Co336 2.135 . S
C334 N332 1.340 . S
C334 N333 1.321 . S
C334 H358 0.930 . S
H335 C330 0.931 . S
Co336 N333 2.135 . S
Co336 N339 2.121 . S
Co336 O344 2.055 . S
Co336 O347 2.039 . S
Co336 N350 2.140 . S
C337 O338 1.227 . S
C337 O347 1.265 . S
O338 C337 1.227 . S
N339 Co336 2.121 . S
N339 C341 1.375 . S
N339 C342 1.313 1_554 S
C340 C341 1.338 . S
C340 N343 1.377 1_554 S
C340 H360 0.930 . S
C341 N339 1.375 . S
C341 C340 1.338 . S
C341 H345 0.931 . S
C342 N339 1.313 1_556 S
C342 N343 1.344 . S
C342 H346 0.930 . S
N343 C340 1.377 1_556 S
N343 C342 1.344 . S
O344 Co336 2.055 . S
O344 C348 1.253 . S
H345 C341 0.931 . S
H346 C342 0.930 . S
O347 Co336 2.039 . S
O347 C337 1.265 . S
C348 O344 1.253 . S
C348 O349 1.227 . S
O349 C348 1.227 . S
N350 Co336 2.140 . S
N350 C353 1.346 . S
N350 C354 1.345 . S
C351 C352 1.387 . S
C351 C355 1.391 . S
C352 C351 1.387 . S
C352 C353 1.369 . S
C352 H361 0.929 . S
C353 N350 1.346 . S
C353 C352 1.369 . S
C353 H356 0.928 . S
C354 N350 1.345 . S
C354 C355 1.371 . S
C354 H357 0.931 . S
C355 C351 1.391 . S
C355 C354 1.371 . S
C355 H362 0.930 . S
H356 C353 0.928 . S
H357 C354 0.931 . S
H358 C334 0.930 . S
H359 C331 0.930 . S
H360 C340 0.930 . S
H361 C352 0.929 . S
H362 C355 0.930 . S
C363 C364 1.351 . S
C363 N366 1.368 . S
C363 H368 0.931 . S
C364 C363 1.351 . S
C364 N365 1.373 . S
C364 H392 0.930 . S
N365 C364 1.373 . S
N365 C367 1.340 . S
N366 C363 1.368 . S
N366 C367 1.321 . S
N366 Co369 2.135 . S
C367 N365 1.340 . S
C367 N366 1.321 . S
C367 H391 0.930 . S
H368 C363 0.931 . S
Co369 N366 2.135 . S
Co369 N372 2.121 . S
Co369 O377 2.055 . S
Co369 O380 2.039 . S
Co369 N383 2.140 . S
C370 O371 1.227 . S
C370 O380 1.265 . S
O371 C370 1.227 . S
N372 Co369 2.121 . S
N372 C374 1.375 . S
N372 C375 1.313 . S
C373 C374 1.338 . S
C373 N376 1.377 . S
C373 H393 0.930 . S
C374 N372 1.375 . S
C374 C373 1.338 . S
C374 H378 0.931 . S
C375 N372 1.313 . S
C375 N376 1.344 . S
C375 H379 0.930 . S
N376 C373 1.377 . S
N376 C375 1.344 . S
O377 Co369 2.055 . S
O377 C381 1.253 . S
H378 C374 0.931 . S
H379 C375 0.930 . S
O380 Co369 2.039 . S
O380 C370 1.265 . S
C381 O377 1.253 . S
C381 O382 1.227 . S
O382 C381 1.227 . S
N383 Co369 2.140 . S
N383 C386 1.346 . S
N383 C387 1.345 . S
C384 C385 1.387 . S
C384 C388 1.391 . S
C385 C384 1.387 . S
C385 C386 1.369 . S
C385 H394 0.929 . S
C386 N383 1.346 . S
C386 C385 1.369 . S
C386 H389 0.928 . S
C387 N383 1.345 . S
C387 C388 1.371 . S
C387 H390 0.931 . S
C388 C384 1.391 . S
C388 C387 1.371 . S
C388 H395 0.930 . S
H389 C386 0.928 . S
H390 C387 0.931 . S
H391 C367 0.930 . S
H392 C364 0.930 . S
H393 C373 0.930 . S
H394 C385 0.929 . S
H395 C388 0.930 . S
C396 C397 1.351 . S
C396 N399 1.368 . S
C396 H401 0.931 . S
C397 C396 1.351 . S
C397 N398 1.373 1_556 S
C397 H425 0.930 . S
N398 C397 1.373 1_554 S
N398 C400 1.340 . S
N399 C396 1.368 . S
N399 C400 1.321 1_556 S
N399 Co402 2.135 . S
C400 N398 1.340 . S
C400 N399 1.321 1_554 S
C400 H424 0.930 . S
H401 C396 0.931 . S
Co402 N399 2.135 . S
Co402 N405 2.121 1_455 S
Co402 O410 2.055 . S
Co402 O413 2.039 1_455 S
Co402 N416 2.140 . S
C403 O404 1.227 1_556 S
C403 O413 1.265 . S
O404 C403 1.227 1_554 S
N405 Co402 2.121 1_655 S
N405 C407 1.375 . S
N405 C408 1.313 . S
C406 C407 1.338 . S
C406 N409 1.377 . S
C406 H426 0.930 . S
C407 N405 1.375 . S
C407 C406 1.338 . S
C407 H411 0.931 . S
C408 N405 1.313 . S
C408 N409 1.344 . S
C408 H412 0.930 . S
N409 C406 1.377 . S
N409 C408 1.344 . S
O410 Co402 2.055 . S
O410 C414 1.253 . S
H411 C407 0.931 . S
H412 C408 0.930 . S
O413 Co402 2.039 1_655 S
O413 C403 1.265 . S
C414 O410 1.253 . S
C414 O415 1.227 . S
O415 C414 1.227 . S
N416 Co402 2.140 . S
N416 C419 1.346 . S
N416 C420 1.345 . S
C417 C418 1.387 . S
C417 C421 1.395 . S
C418 C417 1.387 . S
C418 C419 1.369 . S
C418 H427 0.929 1_556 S
C419 N416 1.346 . S
C419 C418 1.369 . S
C419 H422 0.928 . S
C420 N416 1.345 . S
C420 C421 1.372 . S
C420 H423 0.931 1_455 S
C421 C417 1.395 . S
C421 C420 1.372 . S
C421 H428 0.926 1_455 S
H422 C419 0.928 . S
H423 C420 0.931 1_655 S
H424 C400 0.930 . S
H425 C397 0.930 . S
H426 C406 0.930 . S
H427 C418 0.929 1_554 S
H428 C421 0.926 1_655 S
C429 C430 1.351 . S
C429 N432 1.368 . S
C429 H434 0.931 . S
C430 C429 1.351 . S
C430 N431 1.373 . S
C430 H458 0.930 . S
N431 C430 1.373 . S
N431 C433 1.340 . S
N432 C429 1.368 . S
N432 C433 1.321 . S
N432 Co435 2.135 . S
C433 N431 1.340 . S
C433 N432 1.321 . S
C433 H457 0.930 . S
H434 C429 0.931 . S
Co435 N432 2.135 . S
Co435 N438 2.121 . S
Co435 O443 2.055 . S
Co435 O446 2.039 . S
Co435 N449 2.140 . S
C436 O437 1.227 . S
C436 O446 1.265 . S
O437 C436 1.227 . S
N438 Co435 2.121 . S
N438 C440 1.375 . S
N438 C441 1.313 . S
C439 C440 1.338 . S
C439 N442 1.377 . S
C439 H459 0.930 . S
C440 N438 1.375 . S
C440 C439 1.338 . S
C440 H444 0.931 . S
C441 N438 1.313 . S
C441 N442 1.344 . S
C441 H445 0.930 . S
N442 C439 1.377 . S
N442 C441 1.344 . S
O443 Co435 2.055 . S
O443 C447 1.253 . S
H444 C440 0.931 . S
H445 C441 0.930 . S
O446 Co435 2.039 . S
O446 C436 1.265 . S
C447 O443 1.253 . S
C447 O448 1.227 . S
O448 C447 1.227 . S
N449 Co435 2.140 . S
N449 C452 1.346 . S
N449 C453 1.345 . S
C450 C451 1.387 . S
C450 C454 1.391 . S
C451 C450 1.387 . S
C451 C452 1.369 . S
C451 H460 0.929 . S
C452 N449 1.346 . S
C452 C451 1.369 . S
C452 H455 0.928 . S
C453 N449 1.345 . S
C453 C454 1.371 . S
C453 H456 0.931 . S
C454 C450 1.391 . S
C454 C453 1.371 . S
C454 H461 0.930 . S
H455 C452 0.928 . S
H456 C453 0.931 . S
H457 C433 0.930 . S
H458 C430 0.930 . S
H459 C439 0.930 . S
H460 C451 0.929 . S
H461 C454 0.930 . S
C462 C463 1.351 . S
C462 N465 1.368 . S
C462 H467 0.931 . S
C463 C462 1.351 . S
C463 N464 1.373 1_554 S
C463 H491 0.930 . S
N464 C463 1.373 1_556 S
N464 C466 1.340 . S
N465 C462 1.368 . S
N465 C466 1.321 1_554 S
N465 Co468 2.135 . S
C466 N464 1.340 . S
C466 N465 1.321 1_556 S
C466 H490 0.930 . S
H467 C462 0.931 . S
Co468 N465 2.135 . S
Co468 N471 2.121 1_455 S
Co468 O476 2.055 . S
Co468 O479 2.039 1_455 S
Co468 N482 2.140 . S
C469 O470 1.227 1_554 S
C469 O479 1.265 . S
O470 C469 1.227 1_556 S
N471 Co468 2.121 1_655 S
N471 C473 1.375 . S
N471 C474 1.313 . S
C472 C473 1.338 . S
C472 N475 1.377 . S
C472 H492 0.930 . S
C473 N471 1.375 . S
C473 C472 1.338 . S
C473 H477 0.931 . S
C474 N471 1.313 . S
C474 N475 1.344 . S
C474 H478 0.930 . S
N475 C472 1.377 . S
N475 C474 1.344 . S
O476 Co468 2.055 . S
O476 C480 1.253 . S
H477 C473 0.931 . S
H478 C474 0.930 . S
O479 Co468 2.039 1_655 S
O479 C469 1.265 . S
C480 O476 1.253 . S
C480 O481 1.227 . S
O481 C480 1.227 . S
N482 Co468 2.140 . S
N482 C485 1.346 . S
N482 C486 1.345 . S
C483 C484 1.387 . S
C483 C487 1.395 . S
C484 C483 1.387 . S
C484 C485 1.369 . S
C484 H493 0.929 1_554 S
C485 N482 1.346 . S
C485 C484 1.369 . S
C485 H488 0.928 . S
C486 N482 1.345 . S
C486 C487 1.372 . S
C486 H489 0.931 1_455 S
C487 C483 1.395 . S
C487 C486 1.372 . S
C487 H494 0.926 1_455 S
H488 C485 0.928 . S
H489 C486 0.931 1_655 S
H490 C466 0.930 . S
H491 C463 0.930 . S
H492 C472 0.930 . S
H493 C484 0.929 1_556 S
H494 C487 0.926 1_655 S
C495 C496 1.351 . S
C495 N498 1.368 . S
C495 H500 0.931 . S
C496 C495 1.351 . S
C496 N497 1.373 . S
C496 H524 0.930 . S
N497 C496 1.373 . S
N497 C499 1.340 . S
N498 C495 1.368 . S
N498 C499 1.321 . S
N498 Co501 2.135 . S
C499 N497 1.340 . S
C499 N498 1.321 . S
C499 H523 0.930 . S
H500 C495 0.931 . S
Co501 N498 2.135 . S
Co501 N504 2.121 . S
Co501 O509 2.055 . S
Co501 O512 2.039 . S
Co501 N515 2.140 . S
C502 O503 1.227 . S
C502 O512 1.265 . S
O503 C502 1.227 . S
N504 Co501 2.121 . S
N504 C506 1.375 . S
N504 C507 1.313 . S
C505 C506 1.338 . S
C505 N508 1.377 . S
C505 H525 0.930 . S
C506 N504 1.375 . S
C506 C505 1.338 . S
C506 H510 0.931 . S
C507 N504 1.313 . S
C507 N508 1.344 . S
C507 H511 0.930 . S
N508 C505 1.377 . S
N508 C507 1.344 . S
O509 Co501 2.055 . S
O509 C513 1.253 . S
H510 C506 0.931 . S
H511 C507 0.930 . S
O512 Co501 2.039 . S
O512 C502 1.265 . S
C513 O509 1.253 . S
C513 O514 1.227 . S
O514 C513 1.227 . S
N515 Co501 2.140 . S
N515 C518 1.346 . S
N515 C519 1.345 . S
C516 C517 1.387 . S
C516 C520 1.391 . S
C517 C516 1.387 . S
C517 C518 1.369 . S
C517 H526 0.929 . S
C518 N515 1.346 . S
C518 C517 1.369 . S
C518 H521 0.928 . S
C519 N515 1.345 . S
C519 C520 1.371 . S
C519 H522 0.931 . S
C520 C516 1.391 . S
C520 C519 1.371 . S
C520 H527 0.930 . S
H521 C518 0.928 . S
H522 C519 0.931 . S
H523 C499 0.930 . S
H524 C496 0.930 . S
H525 C505 0.930 . S
H526 C517 0.929 . S
H527 C520 0.930 . S
C528 C529 1.369 . S
C528 C530 1.419 . S
C528 H532 0.930 . S
C529 C528 1.369 . S
C529 C538 1.429 1_545 S
C530 C528 1.419 . S
C530 C531 1.363 1_545 S
C530 H533 0.929 . S
C531 C530 1.363 1_565 S
C531 C537 1.428 . S
H532 C528 0.930 . S
H533 C530 0.929 . S
S534 N535 1.613 . S
S534 N536 1.610 . S
N535 S534 1.613 . S
N535 C538 1.350 . S
N536 S534 1.610 . S
N536 C537 1.351 . S
C537 C531 1.428 . S
C537 N536 1.351 . S
C537 C538 1.434 . S
C538 C529 1.429 1_565 S
C538 N535 1.350 . S
C538 C537 1.434 . S
C539 C540 1.369 . S
C539 C541 1.419 . S
C539 H543 0.930 . S
C540 C539 1.369 . S
C540 C549 1.429 . S
C541 C539 1.419 . S
C541 C542 1.363 . S
C541 H544 0.929 . S
C542 C541 1.363 . S
C542 C548 1.428 . S
H543 C539 0.930 . S
H544 C541 0.929 . S
S545 N546 1.613 . S
S545 N547 1.610 . S
N546 S545 1.613 . S
N546 C549 1.350 . S
N547 S545 1.610 . S
N547 C548 1.351 . S
C548 C542 1.428 . S
C548 N547 1.351 . S
C548 C549 1.434 . S
C549 C540 1.429 . S
C549 N546 1.350 . S
C549 C548 1.434 . S
C550 C551 1.369 1_556 S
C550 C552 1.419 . S
C550 H554 0.930 . S
C551 C550 1.369 1_554 S
C551 C560 1.429 1_545 S
C552 C550 1.419 . S
C552 C553 1.363 1_545 S
C552 H555 0.929 . S
C553 C552 1.363 1_565 S
C553 C559 1.428 1_556 S
H554 C550 0.930 . S
H555 C552 0.929 . S
S556 N557 1.615 . S
S556 N558 1.610 . S
N557 S556 1.615 . S
N557 C560 1.348 1_655 S
N558 S556 1.610 . S
N558 C559 1.351 1_655 S
C559 C553 1.428 1_554 S
C559 N558 1.351 1_455 S
C559 C560 1.434 . S
C560 C551 1.429 1_565 S
C560 N557 1.348 1_455 S
C560 C559 1.434 . S
C561 C562 1.369 . S
C561 C563 1.419 . S
C561 H565 0.930 . S
C562 C561 1.369 . S
C562 C571 1.429 . S
C563 C561 1.419 . S
C563 C564 1.363 . S
C563 H566 0.929 . S
C564 C563 1.363 . S
C564 C570 1.428 . S
H565 C561 0.930 . S
H566 C563 0.929 . S
S567 N568 1.613 . S
S567 N569 1.610 . S
N568 S567 1.613 . S
N568 C571 1.350 . S
N569 S567 1.610 . S
N569 C570 1.351 . S
C570 C564 1.428 . S
C570 N569 1.351 . S
C570 C571 1.434 . S
C571 C562 1.429 . S
C571 N568 1.350 . S
C571 C570 1.434 . S
C572 C573 1.369 . S
C572 C574 1.419 . S
C572 H576 0.930 . S
C573 C572 1.369 . S
C573 C582 1.429 . S
C574 C572 1.419 . S
C574 C575 1.363 . S
C574 H577 0.929 . S
C575 C574 1.363 . S
C575 C581 1.428 . S
H576 C572 0.930 . S
H577 C574 0.929 . S
S578 N579 1.613 . S
S578 N580 1.610 . S
N579 S578 1.613 . S
N579 C582 1.350 . S
N580 S578 1.610 . S
N580 C581 1.351 . S
C581 C575 1.428 . S
C581 N580 1.351 . S
C581 C582 1.434 . S
C582 C573 1.429 . S
C582 N579 1.350 . S
C582 C581 1.434 . S
C583 C584 1.369 . S
C583 C585 1.419 . S
C583 H587 0.930 . S
C584 C583 1.369 . S
C584 C593 1.429 . S
C585 C583 1.419 . S
C585 C586 1.363 . S
C585 H588 0.929 . S
C586 C585 1.363 . S
C586 C592 1.428 . S
H587 C583 0.930 . S
H588 C585 0.929 . S
S589 N590 1.613 . S
S589 N591 1.610 . S
N590 S589 1.613 . S
N590 C593 1.350 . S
N591 S589 1.610 . S
N591 C592 1.351 . S
C592 C586 1.428 . S
C592 N591 1.351 . S
C592 C593 1.434 . S
C593 C584 1.429 . S
C593 N590 1.350 . S
C593 C592 1.434 . S
C594 C595 1.369 1_654 S
C594 C596 1.419 . S
C594 H598 0.930 . S
C595 C594 1.369 1_456 S
C595 C604 1.429 . S
C596 C594 1.419 . S
C596 C597 1.363 1_655 S
C596 H599 0.929 . S
C597 C596 1.363 1_455 S
C597 C603 1.428 1_554 S
H598 C594 0.930 . S
H599 C596 0.929 . S
S600 N601 1.613 . S
S600 N602 1.610 . S
N601 S600 1.613 . S
N601 C604 1.350 . S
N602 S600 1.610 . S
N602 C603 1.351 . S
C603 C597 1.428 1_556 S
C603 N602 1.351 . S
C603 C604 1.434 . S
C604 C595 1.429 . S
C604 N601 1.350 . S
C604 C603 1.434 . S
C605 C606 1.369 . S
C605 C607 1.419 . S
C605 H609 0.930 . S
C606 C605 1.369 . S
C606 C615 1.429 . S
C607 C605 1.419 . S
C607 C608 1.363 . S
C607 H610 0.929 . S
C608 C607 1.363 . S
C608 C614 1.428 . S
H609 C605 0.930 . S
H610 C607 0.929 . S
S611 N612 1.613 . S
S611 N613 1.610 . S
N612 S611 1.613 . S
N612 C615 1.350 . S
N613 S611 1.610 . S
N613 C614 1.351 . S
C614 C608 1.428 . S
C614 N613 1.351 . S
C614 C615 1.434 . S
C615 C606 1.429 . S
C615 N612 1.350 . S
C615 C614 1.434 . S
C616 C617 1.369 . S
C616 C618 1.419 . S
C616 H620 0.930 . S
C617 C616 1.369 . S
C617 C626 1.429 . S
C618 C616 1.419 . S
C618 C619 1.363 . S
C618 H621 0.929 . S
C619 C618 1.363 . S
C619 C625 1.428 . S
H620 C616 0.930 . S
H621 C618 0.929 . S
S622 N623 1.613 . S
S622 N624 1.610 . S
N623 S622 1.613 . S
N623 C626 1.350 . S
N624 S622 1.610 . S
N624 C625 1.351 . S
C625 C619 1.428 . S
C625 N624 1.351 . S
C625 C626 1.434 . S
C626 C617 1.429 . S
C626 N623 1.350 . S
C626 C625 1.434 . S
C627 C628 1.369 . S
C627 C629 1.419 . S
C627 H631 0.930 . S
C628 C627 1.369 . S
C628 C637 1.429 . S
C629 C627 1.419 . S
C629 C630 1.363 . S
C629 H632 0.929 . S
C630 C629 1.363 . S
C630 C636 1.428 . S
H631 C627 0.930 . S
H632 C629 0.929 . S
S633 N634 1.613 . S
S633 N635 1.610 . S
N634 S633 1.613 . S
N634 C637 1.350 . S
N635 S633 1.610 . S
N635 C636 1.351 . S
C636 C630 1.428 . S
C636 N635 1.351 . S
C636 C637 1.434 . S
C637 C628 1.429 . S
C637 N634 1.350 . S
C637 C636 1.434 . S
C638 C639 1.369 . S
C638 C640 1.419 . S
C638 H642 0.930 . S
C639 C638 1.369 . S
C639 C648 1.429 . S
C640 C638 1.419 . S
C640 C641 1.363 . S
C640 H643 0.929 . S
C641 C640 1.363 . S
C641 C647 1.428 . S
H642 C638 0.930 . S
H643 C640 0.929 . S
S644 N645 1.613 . S
S644 N646 1.610 . S
N645 S644 1.613 . S
N645 C648 1.350 . S
N646 S644 1.610 . S
N646 C647 1.351 . S
C647 C641 1.428 . S
C647 N646 1.351 . S
C647 C648 1.434 . S
C648 C639 1.429 . S
C648 N645 1.350 . S
C648 C647 1.434 . S
C649 C650 1.369 . S
C649 C651 1.419 . S
C649 H653 0.930 . S
C650 C649 1.369 . S
C650 C659 1.429 . S
C651 C649 1.419 . S
C651 C652 1.363 . S
C651 H654 0.929 . S
C652 C651 1.363 . S
C652 C658 1.428 . S
H653 C649 0.930 . S
H654 C651 0.929 . S
S655 N656 1.613 . S
S655 N657 1.610 . S
N656 S655 1.613 . S
N656 C659 1.350 . S
N657 S655 1.610 . S
N657 C658 1.351 . S
C658 C652 1.428 . S
C658 N657 1.351 . S
C658 C659 1.434 . S
C659 C650 1.429 . S
C659 N656 1.350 . S
C659 C658 1.434 . S
C660 C661 1.369 . S
C660 C662 1.419 . S
C660 H664 0.930 . S
C661 C660 1.369 . S
C661 C670 1.429 . S
C662 C660 1.419 . S
C662 C663 1.363 . S
C662 H665 0.929 . S
C663 C662 1.363 . S
C663 C669 1.428 . S
H664 C660 0.930 . S
H665 C662 0.929 . S
S666 N667 1.613 . S
S666 N668 1.610 1_556 S
N667 S666 1.613 . S
N667 C670 1.350 . S
N668 S666 1.610 1_554 S
N668 C669 1.351 1_554 S
C669 C663 1.428 . S
C669 N668 1.351 1_556 S
C669 C670 1.434 . S
C670 C661 1.429 . S
C670 N667 1.350 . S
C670 C669 1.434 . S
C671 C672 1.369 . S
C671 C673 1.419 . S
C671 H675 0.930 . S
C672 C671 1.369 . S
C672 C681 1.429 . S
C673 C671 1.419 . S
C673 C674 1.363 . S
C673 H676 0.929 . S
C674 C673 1.363 . S
C674 C680 1.428 . S
H675 C671 0.930 . S
H676 C673 0.929 . S
S677 N678 1.613 . S
S677 N679 1.610 . S
N678 S677 1.613 . S
N678 C681 1.350 . S
N679 S677 1.610 . S
N679 C680 1.351 . S
C680 C674 1.428 . S
C680 N679 1.351 . S
C680 C681 1.434 . S
C681 C672 1.429 . S
C681 N678 1.350 . S
C681 C680 1.434 . S
C682 C683 1.369 . S
C682 C684 1.419 . S
C682 H686 0.930 . S
C683 C682 1.369 . S
C683 C692 1.429 . S
C684 C682 1.419 . S
C684 C685 1.363 . S
C684 H687 0.929 . S
C685 C684 1.363 . S
C685 C691 1.428 . S
H686 C682 0.930 . S
H687 C684 0.929 . S
S688 N689 1.613 . S
S688 N690 1.610 . S
N689 S688 1.613 . S
N689 C692 1.350 . S
N690 S688 1.610 . S
N690 C691 1.351 . S
C691 C685 1.428 . S
C691 N690 1.351 . S
C691 C692 1.434 . S
C692 C683 1.429 . S
C692 N689 1.350 . S
C692 C691 1.434 . S
C693 C694 1.369 . S
C693 C695 1.419 . S
C693 H697 0.930 . S
C694 C693 1.369 . S
C694 C703 1.429 . S
C695 C693 1.419 . S
C695 C696 1.363 . S
C695 H698 0.929 . S
C696 C695 1.363 . S
C696 C702 1.428 . S
H697 C693 0.930 . S
H698 C695 0.929 . S
S699 N700 1.613 . S
S699 N701 1.610 . S
N700 S699 1.613 . S
N700 C703 1.350 . S
N701 S699 1.610 . S
N701 C702 1.351 . S
C702 C696 1.428 . S
C702 N701 1.351 . S
C702 C703 1.434 . S
C703 C694 1.429 . S
C703 N700 1.350 . S
C703 C702 1.434 . S
C704 C705 1.369 . S
C704 C706 1.419 . S
C704 H708 0.930 . S
C705 C704 1.369 . S
C705 C714 1.429 . S
C706 C704 1.419 . S
C706 C707 1.363 . S
C706 H709 0.929 . S
C707 C706 1.363 . S
C707 C713 1.428 . S
H708 C704 0.930 . S
H709 C706 0.929 . S
S710 N711 1.613 . S
S710 N712 1.610 . S
N711 S710 1.613 . S
N711 C714 1.350 . S
N712 S710 1.610 . S
N712 C713 1.351 . S
C713 C707 1.428 . S
C713 N712 1.351 . S
C713 C714 1.434 . S
C714 C705 1.429 . S
C714 N711 1.350 . S
C714 C713 1.434 . S
C715 C716 1.369 . S
C715 C717 1.419 . S
C715 H719 0.930 . S
C716 C715 1.369 . S
C716 C725 1.429 . S
C717 C715 1.419 . S
C717 C718 1.363 . S
C717 H720 0.929 . S
C718 C717 1.363 . S
C718 C724 1.428 . S
H719 C715 0.930 . S
H720 C717 0.929 . S
S721 N722 1.613 . S
S721 N723 1.610 . S
N722 S721 1.613 . S
N722 C725 1.350 . S
N723 S721 1.610 . S
N723 C724 1.351 . S
C724 C718 1.428 . S
C724 N723 1.351 . S
C724 C725 1.434 . S
C725 C716 1.429 . S
C725 N722 1.350 . S
C725 C724 1.434 . S
C726 C727 1.369 . S
C726 C728 1.419 . S
C726 H730 0.930 . S
C727 C726 1.369 . S
C727 C736 1.429 . S
C728 C726 1.419 . S
C728 C729 1.363 . S
C728 H731 0.929 . S
C729 C728 1.363 . S
C729 C735 1.428 . S
H730 C726 0.930 . S
H731 C728 0.929 . S
S732 N733 1.613 . S
S732 N734 1.610 . S
N733 S732 1.613 . S
N733 C736 1.350 . S
N734 S732 1.610 . S
N734 C735 1.351 . S
C735 C729 1.428 . S
C735 N734 1.351 . S
C735 C736 1.434 . S
C736 C727 1.429 . S
C736 N733 1.350 . S
C736 C735 1.434 . S
C737 C738 1.369 . S
C737 C739 1.419 . S
C737 H741 0.930 . S
C738 C737 1.369 . S
C738 C747 1.429 . S
C739 C737 1.419 . S
C739 C740 1.363 . S
C739 H742 0.929 . S
C740 C739 1.363 . S
C740 C746 1.428 . S
H741 C737 0.930 . S
H742 C739 0.929 . S
S743 N744 1.613 . S
S743 N745 1.610 . S
N744 S743 1.613 . S
N744 C747 1.350 . S
N745 S743 1.610 . S
N745 C746 1.351 . S
C746 C740 1.428 . S
C746 N745 1.351 . S
C746 C747 1.434 . S
C747 C738 1.429 . S
C747 N744 1.350 . S
C747 C746 1.434 . S
C748 C749 1.369 . S
C748 C750 1.419 . S
C748 H752 0.930 . S
C749 C748 1.369 . S
C749 C758 1.429 . S
C750 C748 1.419 . S
C750 C751 1.363 . S
C750 H753 0.929 . S
C751 C750 1.363 . S
C751 C757 1.428 . S
H752 C748 0.930 . S
H753 C750 0.929 . S
S754 N755 1.613 . S
S754 N756 1.610 . S
N755 S754 1.613 . S
N755 C758 1.350 . S
N756 S754 1.610 . S
N756 C757 1.351 . S
C757 C751 1.428 . S
C757 N756 1.351 . S
C757 C758 1.434 . S
C758 C749 1.429 . S
C758 N755 1.350 . S
C758 C757 1.434 . S
C759 C760 1.369 . S
C759 C761 1.419 . S
C759 H763 0.930 . S
C760 C759 1.369 . S
C760 C769 1.429 . S
C761 C759 1.419 . S
C761 C762 1.363 . S
C761 H764 0.929 . S
C762 C761 1.363 . S
C762 C768 1.428 . S
H763 C759 0.930 . S
H764 C761 0.929 . S
S765 N766 1.613 . S
S765 N767 1.610 . S
N766 S765 1.613 . S
N766 C769 1.350 . S
N767 S765 1.610 . S
N767 C768 1.351 . S
C768 C762 1.428 . S
C768 N767 1.351 . S
C768 C769 1.434 . S
C769 C760 1.429 . S
C769 N766 1.350 . S
C769 C768 1.434 . S
C770 C771 1.369 . S
C770 C772 1.419 . S
C770 H774 0.930 . S
C771 C770 1.369 . S
C771 C780 1.429 . S
C772 C770 1.419 . S
C772 C773 1.363 . S
C772 H775 0.929 . S
C773 C772 1.363 . S
C773 C779 1.428 . S
H774 C770 0.930 . S
H775 C772 0.929 . S
S776 N777 1.613 . S
S776 N778 1.610 . S
N777 S776 1.613 . S
N777 C780 1.350 . S
N778 S776 1.610 . S
N778 C779 1.351 . S
C779 C773 1.428 . S
C779 N778 1.351 . S
C779 C780 1.434 . S
C780 C771 1.429 . S
C780 N777 1.350 . S
C780 C779 1.434 . S
C781 C782 1.369 . S
C781 C783 1.419 . S
C781 H785 0.930 . S
C782 C781 1.369 . S
C782 C791 1.429 . S
C783 C781 1.419 . S
C783 C784 1.363 . S
C783 H786 0.929 . S
C784 C783 1.363 . S
C784 C790 1.428 . S
H785 C781 0.930 . S
H786 C783 0.929 . S
S787 N788 1.613 . S
S787 N789 1.610 . S
N788 S787 1.613 . S
N788 C791 1.350 . S
N789 S787 1.610 . S
N789 C790 1.351 . S
C790 C784 1.428 . S
C790 N789 1.351 . S
C790 C791 1.434 . S
C791 C782 1.429 . S
C791 N788 1.350 . S
C791 C790 1.434 . S
C792 C793 1.369 . S
C792 C794 1.419 . S
C792 H796 0.930 . S
C793 C792 1.369 . S
C793 C802 1.429 . S
C794 C792 1.419 . S
C794 C795 1.363 . S
C794 H797 0.929 . S
C795 C794 1.363 . S
C795 C801 1.428 . S
H796 C792 0.930 . S
H797 C794 0.929 . S
S798 N799 1.613 . S
S798 N800 1.610 . S
N799 S798 1.613 . S
N799 C802 1.350 . S
N800 S798 1.610 . S
N800 C801 1.351 . S
C801 C795 1.428 . S
C801 N800 1.351 . S
C801 C802 1.434 . S
C802 C793 1.429 . S
C802 N799 1.350 . S
C802 C801 1.434 . S
C803 C804 1.369 . S
C803 C805 1.419 . S
C803 H807 0.930 . S
C804 C803 1.369 . S
C804 C813 1.429 . S
C805 C803 1.419 . S
C805 C806 1.363 . S
C805 H808 0.929 . S
C806 C805 1.363 . S
C806 C812 1.428 . S
H807 C803 0.930 . S
H808 C805 0.929 . S
S809 N810 1.613 . S
S809 N811 1.610 . S
N810 S809 1.613 . S
N810 C813 1.350 . S
N811 S809 1.610 . S
N811 C812 1.351 . S
C812 C806 1.428 . S
C812 N811 1.351 . S
C812 C813 1.434 . S
C813 C804 1.429 . S
C813 N810 1.350 . S
C813 C812 1.434 . S
C814 C815 1.369 . S
C814 C816 1.419 . S
C814 H818 0.930 . S
C815 C814 1.369 . S
C815 C824 1.429 . S
C816 C814 1.419 . S
C816 C817 1.363 . S
C816 H819 0.929 . S
C817 C816 1.363 . S
C817 C823 1.428 . S
H818 C814 0.930 . S
H819 C816 0.929 . S
S820 N821 1.613 . S
S820 N822 1.610 . S
N821 S820 1.613 . S
N821 C824 1.350 . S
N822 S820 1.610 . S
N822 C823 1.351 . S
C823 C817 1.428 . S
C823 N822 1.351 . S
C823 C824 1.434 . S
C824 C815 1.429 . S
C824 N821 1.350 . S
C824 C823 1.434 . S
C825 C826 1.369 . S
C825 C827 1.419 . S
C825 H829 0.930 . S
C826 C825 1.369 . S
C826 C835 1.429 . S
C827 C825 1.419 . S
C827 C828 1.363 . S
C827 H830 0.929 . S
C828 C827 1.363 . S
C828 C834 1.428 . S
H829 C825 0.930 . S
H830 C827 0.929 . S
S831 N832 1.613 . S
S831 N833 1.610 . S
N832 S831 1.613 . S
N832 C835 1.350 . S
N833 S831 1.610 . S
N833 C834 1.351 . S
C834 C828 1.428 . S
C834 N833 1.351 . S
C834 C835 1.434 . S
C835 C826 1.429 . S
C835 N832 1.350 . S
C835 C834 1.434 . S
C836 C837 1.369 . S
C836 C838 1.419 . S
C836 H840 0.930 . S
C837 C836 1.369 . S
C837 C846 1.429 . S
C838 C836 1.419 . S
C838 C839 1.363 . S
C838 H841 0.929 . S
C839 C838 1.363 . S
C839 C845 1.428 . S
H840 C836 0.930 . S
H841 C838 0.929 . S
S842 N843 1.613 . S
S842 N844 1.610 . S
N843 S842 1.613 . S
N843 C846 1.350 . S
N844 S842 1.610 . S
N844 C845 1.351 . S
C845 C839 1.428 . S
C845 N844 1.351 . S
C845 C846 1.434 . S
C846 C837 1.429 . S
C846 N843 1.350 . S
C846 C845 1.434 . S
C847 C848 1.369 . S
C847 C849 1.419 . S
C847 H851 0.930 . S
C848 C847 1.369 . S
C848 C857 1.429 . S
C849 C847 1.419 . S
C849 C850 1.363 . S
C849 H852 0.929 . S
C850 C849 1.363 . S
C850 C856 1.428 . S
H851 C847 0.930 . S
H852 C849 0.929 . S
S853 N854 1.613 1_556 S
S853 N855 1.610 . S
N854 S853 1.613 1_554 S
N854 C857 1.350 . S
N855 S853 1.610 . S
N855 C856 1.351 1_556 S
C856 C850 1.428 . S
C856 N855 1.351 1_554 S
C856 C857 1.434 . S
C857 C848 1.429 . S
C857 N854 1.350 . S
C857 C856 1.434 . S
C858 C859 1.369 . S
C858 C860 1.419 . S
C858 H862 0.930 . S
C859 C858 1.369 . S
C859 C868 1.429 . S
C860 C858 1.419 . S
C860 C861 1.363 . S
C860 H863 0.929 . S
C861 C860 1.363 . S
C861 C867 1.428 . S
H862 C858 0.930 . S
H863 C860 0.929 . S
S864 N865 1.613 . S
S864 N866 1.610 . S
N865 S864 1.613 . S
N865 C868 1.350 . S
N866 S864 1.610 . S
N866 C867 1.351 . S
C867 C861 1.428 . S
C867 N866 1.351 . S
C867 C868 1.434 . S
C868 C859 1.429 . S
C868 N865 1.350 . S
C868 C867 1.434 . S
C869 C870 1.369 . S
C869 C871 1.419 . S
C869 H873 0.930 . S
C870 C869 1.369 . S
C870 C879 1.429 . S
C871 C869 1.419 . S
C871 C872 1.363 . S
C871 H874 0.929 . S
C872 C871 1.363 . S
C872 C878 1.428 . S
H873 C869 0.930 . S
H874 C871 0.929 . S
S875 N876 1.613 . S
S875 N877 1.610 . S
N876 S875 1.613 . S
N876 C879 1.350 . S
N877 S875 1.610 . S
N877 C878 1.351 . S
C878 C872 1.428 . S
C878 N877 1.351 . S
C878 C879 1.434 . S
C879 C870 1.429 . S
C879 N876 1.350 . S
C879 C878 1.434 . S
C880 C881 1.369 . S
C880 C882 1.419 . S
C880 H884 0.930 . S
C881 C880 1.369 . S
C881 C890 1.429 . S
C882 C880 1.419 . S
C882 C883 1.363 . S
C882 H885 0.929 . S
C883 C882 1.363 . S
C883 C889 1.428 . S
H884 C880 0.930 . S
H885 C882 0.929 . S
S886 N887 1.613 1_554 S
S886 N888 1.610 . S
N887 S886 1.613 1_556 S
N887 C890 1.350 1_556 S
N888 S886 1.610 . S
N888 C889 1.351 . S
C889 C883 1.428 . S
C889 N888 1.351 . S
C889 C890 1.434 . S
C890 C881 1.429 . S
C890 N887 1.350 1_554 S
C890 C889 1.434 . S
C891 C892 1.369 . S
C891 C893 1.419 . S
C891 H895 0.930 . S
C892 C891 1.369 . S
C892 C901 1.429 . S
C893 C891 1.419 . S
C893 C894 1.363 . S
C893 H896 0.929 . S
C894 C893 1.363 . S
C894 C900 1.428 . S
H895 C891 0.930 . S
H896 C893 0.929 . S
S897 N898 1.613 . S
S897 N899 1.610 . S
N898 S897 1.613 . S
N898 C901 1.350 . S
N899 S897 1.610 . S
N899 C900 1.351 . S
C900 C894 1.428 . S
C900 N899 1.351 . S
C900 C901 1.434 . S
C901 C892 1.429 . S
C901 N898 1.350 . S
C901 C900 1.434 . S
C902 C903 1.369 . S
C902 C904 1.419 . S
C902 H906 0.930 . S
C903 C902 1.369 . S
C903 C912 1.429 . S
C904 C902 1.419 . S
C904 C905 1.363 . S
C904 H907 0.929 . S
C905 C904 1.363 . S
C905 C911 1.428 . S
H906 C902 0.930 . S
H907 C904 0.929 . S
S908 N909 1.613 . S
S908 N910 1.610 . S
N909 S908 1.613 . S
N909 C912 1.350 . S
N910 S908 1.610 . S
N910 C911 1.351 . S
C911 C905 1.428 . S
C911 N910 1.351 . S
C911 C912 1.434 . S
C912 C903 1.429 . S
C912 N909 1.350 . S
C912 C911 1.434 . S
C913 C914 1.369 . S
C913 C915 1.419 . S
C913 H917 0.930 . S
C914 C913 1.369 . S
C914 C923 1.429 . S
C915 C913 1.419 . S
C915 C916 1.363 . S
C915 H918 0.929 . S
C916 C915 1.363 . S
C916 C922 1.428 . S
H917 C913 0.930 . S
H918 C915 0.929 . S
S919 N920 1.613 1_455 S
S919 N921 1.609 1_455 S
N920 S919 1.613 1_655 S
N920 C923 1.350 . S
N921 S919 1.609 1_655 S
N921 C922 1.351 . S
C922 C916 1.428 . S
C922 N921 1.351 . S
C922 C923 1.434 . S
C923 C914 1.429 . S
C923 N920 1.350 . S
C923 C922 1.434 . S
C924 C925 1.369 . S
C924 C926 1.419 . S
C924 H928 0.930 . S
C925 C924 1.369 . S
C925 C934 1.429 . S
C926 C924 1.419 . S
C926 C927 1.363 . S
C926 H929 0.929 . S
C927 C926 1.363 . S
C927 C933 1.428 . S
H928 C924 0.930 . S
H929 C926 0.929 . S
S930 N931 1.613 . S
S930 N932 1.610 . S
N931 S930 1.613 . S
N931 C934 1.350 . S
N932 S930 1.610 . S
N932 C933 1.351 . S
C933 C927 1.428 . S
C933 N932 1.351 . S
C933 C934 1.434 . S
C934 C925 1.429 . S
C934 N931 1.350 . S
C934 C933 1.434 . S
C935 C936 1.369 . S
C935 C937 1.419 . S
C935 H939 0.930 . S
C936 C935 1.369 . S
C936 C945 1.429 . S
C937 C935 1.419 . S
C937 C938 1.363 . S
C937 H940 0.929 . S
C938 C937 1.363 . S
C938 C944 1.428 . S
H939 C935 0.930 . S
H940 C937 0.929 . S
S941 N942 1.613 . S
S941 N943 1.610 . S
N942 S941 1.613 . S
N942 C945 1.350 . S
N943 S941 1.610 . S
N943 C944 1.351 . S
C944 C938 1.428 . S
C944 N943 1.351 . S
C944 C945 1.434 . S
C945 C936 1.429 . S
C945 N942 1.350 . S
C945 C944 1.434 . S
C946 C947 1.369 . S
C946 C948 1.419 . S
C946 H950 0.930 . S
C947 C946 1.369 . S
C947 C956 1.429 . S
C948 C946 1.419 . S
C948 C949 1.363 . S
C948 H951 0.929 . S
C949 C948 1.363 . S
C949 C955 1.428 . S
H950 C946 0.930 . S
H951 C948 0.929 . S
S952 N953 1.613 . S
S952 N954 1.610 . S
N953 S952 1.613 . S
N953 C956 1.350 . S
N954 S952 1.610 . S
N954 C955 1.351 . S
C955 C949 1.428 . S
C955 N954 1.351 . S
C955 C956 1.434 . S
C956 C947 1.429 . S
C956 N953 1.350 . S
C956 C955 1.434 . S
C957 C958 1.369 . S
C957 C959 1.419 . S
C957 H961 0.930 . S
C958 C957 1.369 . S
C958 C967 1.429 . S
C959 C957 1.419 . S
C959 C960 1.363 . S
C959 H962 0.929 . S
C960 C959 1.363 . S
C960 C966 1.428 . S
H961 C957 0.930 . S
H962 C959 0.929 . S
S963 N964 1.613 . S
S963 N965 1.610 . S
N964 S963 1.613 . S
N964 C967 1.350 . S
N965 S963 1.610 . S
N965 C966 1.351 . S
C966 C960 1.428 . S
C966 N965 1.351 . S
C966 C967 1.434 . S
C967 C958 1.429 . S
C967 N964 1.350 . S
C967 C966 1.434 . S
C529 C21 1.329 . S
C531 C153 1.319 . S
C540 C186 1.327 . S
C542 C54 1.320 . S
C551 C219 1.330 . S
C553 C87 1.319 . S
C562 C120 1.317 . S
C564 C252 1.328 . S
C573 C285 1.323 . S
C575 C351 1.324 . S
C584 C384 1.329 . S
C586 C318 1.319 . S
C595 C417 1.329 . S
C597 C483 1.319 . S
C606 C450 1.329 . S
C608 C516 1.319 . S
C617 N13 1.217 . S
C619 N178 1.230 . S
C628 N211 1.233 . S
C630 N46 1.223 . S
C639 N244 1.219 . S
C641 N79 1.228 . S
C650 N112 1.226 . S
C652 N145 1.221 . S
C661 C150 2.015 . S
C663 C348 2.017 1_556 S
C672 C84 2.016 . S
C674 C282 2.017 . S
C683 C216 2.015 . S
C685 C381 2.017 . S
C694 C18 2.015 . S
C696 C315 2.015 1_554 S
C705 N409 1.231 . S
C707 N277 1.225 . S
C716 N343 1.233 . S
C718 N508 1.219 . S
C727 N310 1.219 . S
C729 N442 1.228 . S
C738 N376 1.218 . S
C740 N475 1.228 . S
C749 C480 2.015 . S
C751 C51 2.016 . S
C760 C183 2.016 1_554 S
C762 C447 2.016 . S
C771 C117 2.015 1_556 S
C773 C513 2.017 . S
C782 C414 2.015 . S
C784 C249 2.017 . S
C793 C172 1.810 . S
C795 C7 1.809 . S
C804 C205 1.809 1_556 S
C806 C40 1.807 . S
C815 C73 1.805 1_554 S
C817 C238 1.811 . S
C826 C106 1.810 . S
C828 C139 1.807 . S
C837 N134 0.833 . S
C839 N332 0.819 . S
C848 N266 0.831 . S
C850 N68 0.814 . S
C859 N365 0.811 . S
C861 N200 0.830 . S
C870 N2 0.829 . S
C872 N299 0.823 . S
C881 C403 1.812 1_554 S
C883 C271 1.806 . S
C892 C337 1.805 . S
C894 C502 1.811 . S
C903 C436 1.810 . S
C905 C304 1.809 . S
C914 C469 1.805 1_556 S
C916 C370 1.811 . S
C925 N35 0.834 . S
C927 N464 0.818 . S
C936 N167 0.815 . S
C938 N431 0.825 . S
C947 N497 0.811 . S
C949 N101 0.832 . S
C958 N233 0.816 . S
C960 N398 0.823 . S
