# Generated by pormake.
# Topology gme, (4)-cn, num edge types: 1
# Building blocks:
#     Node 0, Type 0, BuildingBlock: TATPOV_clean_sbu_0, # of connection points: 4
#     Node 1, Type 0, BuildingBlock: TATPOV_clean_sbu_0, # of connection points: 4
#     Node 2, Type 0, BuildingBlock: TATPOV_clean_sbu_0, # of connection points: 4
#     Node 3, Type 0, BuildingBlock: TATPOV_clean_sbu_0, # of connection points: 4
#     Node 4, Type 0, BuildingBlock: TATPOV_clean_sbu_0, # of connection points: 4
#     Node 5, Type 0, BuildingBlock: TATPOV_clean_sbu_0, # of connection points: 4
#     Node 6, Type 0, BuildingBlock: TATPOV_clean_sbu_0, # of connection points: 4
#     Node 7, Type 0, BuildingBlock: TATPOV_clean_sbu_0, # of connection points: 4
#     Node 8, Type 0, BuildingBlock: TATPOV_clean_sbu_0, # of connection points: 4
#     Node 9, Type 0, BuildingBlock: TATPOV_clean_sbu_0, # of connection points: 4
#     Node 10, Type 0, BuildingBlock: TATPOV_clean_sbu_0, # of connection points: 4
#     Node 11, Type 0, BuildingBlock: TATPOV_clean_sbu_0, # of connection points: 4
#     Node 12, Type 0, BuildingBlock: TATPOV_clean_sbu_0, # of connection points: 4
#     Node 13, Type 0, BuildingBlock: TATPOV_clean_sbu_0, # of connection points: 4
#     Node 14, Type 0, BuildingBlock: TATPOV_clean_sbu_0, # of connection points: 4
#     Node 15, Type 0, BuildingBlock: TATPOV_clean_sbu_0, # of connection points: 4
#     Node 16, Type 0, BuildingBlock: TATPOV_clean_sbu_0, # of connection points: 4
#     Node 17, Type 0, BuildingBlock: TATPOV_clean_sbu_0, # of connection points: 4
#     Node 18, Type 0, BuildingBlock: TATPOV_clean_sbu_0, # of connection points: 4
#     Node 19, Type 0, BuildingBlock: TATPOV_clean_sbu_0, # of connection points: 4
#     Node 20, Type 0, BuildingBlock: TATPOV_clean_sbu_0, # of connection points: 4
#     Node 21, Type 0, BuildingBlock: TATPOV_clean_sbu_0, # of connection points: 4
#     Node 22, Type 0, BuildingBlock: TATPOV_clean_sbu_0, # of connection points: 4
#     Node 23, Type 0, BuildingBlock: TATPOV_clean_sbu_0, # of connection points: 4
#     Edge 24, Type (0, 0), BuildingBlock: EZIPEK_clean_linker_0, # of connection points: 2
#     Edge 25, Type (0, 0), BuildingBlock: EZIPEK_clean_linker_0, # of connection points: 2
#     Edge 26, Type (0, 0), BuildingBlock: EZIPEK_clean_linker_0, # of connection points: 2
#     Edge 27, Type (0, 0), BuildingBlock: EZIPEK_clean_linker_0, # of connection points: 2
#     Edge 28, Type (0, 0), BuildingBlock: EZIPEK_clean_linker_0, # of connection points: 2
#     Edge 29, Type (0, 0), BuildingBlock: EZIPEK_clean_linker_0, # of connection points: 2
#     Edge 30, Type (0, 0), BuildingBlock: EZIPEK_clean_linker_0, # of connection points: 2
#     Edge 31, Type (0, 0), BuildingBlock: EZIPEK_clean_linker_0, # of connection points: 2
#     Edge 32, Type (0, 0), BuildingBlock: EZIPEK_clean_linker_0, # of connection points: 2
#     Edge 33, Type (0, 0), BuildingBlock: EZIPEK_clean_linker_0, # of connection points: 2
#     Edge 34, Type (0, 0), BuildingBlock: EZIPEK_clean_linker_0, # of connection points: 2
#     Edge 35, Type (0, 0), BuildingBlock: EZIPEK_clean_linker_0, # of connection points: 2
#     Edge 36, Type (0, 0), BuildingBlock: EZIPEK_clean_linker_0, # of connection points: 2
#     Edge 37, Type (0, 0), BuildingBlock: EZIPEK_clean_linker_0, # of connection points: 2
#     Edge 38, Type (0, 0), BuildingBlock: EZIPEK_clean_linker_0, # of connection points: 2
#     Edge 39, Type (0, 0), BuildingBlock: EZIPEK_clean_linker_0, # of connection points: 2
#     Edge 40, Type (0, 0), BuildingBlock: EZIPEK_clean_linker_0, # of connection points: 2
#     Edge 41, Type (0, 0), BuildingBlock: EZIPEK_clean_linker_0, # of connection points: 2
#     Edge 42, Type (0, 0), BuildingBlock: EZIPEK_clean_linker_0, # of connection points: 2
#     Edge 43, Type (0, 0), BuildingBlock: EZIPEK_clean_linker_0, # of connection points: 2
#     Edge 44, Type (0, 0), BuildingBlock: EZIPEK_clean_linker_0, # of connection points: 2
#     Edge 45, Type (0, 0), BuildingBlock: EZIPEK_clean_linker_0, # of connection points: 2
#     Edge 46, Type (0, 0), BuildingBlock: EZIPEK_clean_linker_0, # of connection points: 2
#     Edge 47, Type (0, 0), BuildingBlock: EZIPEK_clean_linker_0, # of connection points: 2
#     Edge 48, Type (0, 0), BuildingBlock: EZIPEK_clean_linker_0, # of connection points: 2
#     Edge 49, Type (0, 0), BuildingBlock: EZIPEK_clean_linker_0, # of connection points: 2
#     Edge 50, Type (0, 0), BuildingBlock: EZIPEK_clean_linker_0, # of connection points: 2
#     Edge 51, Type (0, 0), BuildingBlock: EZIPEK_clean_linker_0, # of connection points: 2
#     Edge 52, Type (0, 0), BuildingBlock: EZIPEK_clean_linker_0, # of connection points: 2
#     Edge 53, Type (0, 0), BuildingBlock: EZIPEK_clean_linker_0, # of connection points: 2
#     Edge 54, Type (0, 0), BuildingBlock: EZIPEK_clean_linker_0, # of connection points: 2
#     Edge 55, Type (0, 0), BuildingBlock: EZIPEK_clean_linker_0, # of connection points: 2
#     Edge 56, Type (0, 0), BuildingBlock: EZIPEK_clean_linker_0, # of connection points: 2
#     Edge 57, Type (0, 0), BuildingBlock: EZIPEK_clean_linker_0, # of connection points: 2
#     Edge 58, Type (0, 0), BuildingBlock: EZIPEK_clean_linker_0, # of connection points: 2
#     Edge 59, Type (0, 0), BuildingBlock: EZIPEK_clean_linker_0, # of connection points: 2
#     Edge 60, Type (0, 0), BuildingBlock: EZIPEK_clean_linker_0, # of connection points: 2
#     Edge 61, Type (0, 0), BuildingBlock: EZIPEK_clean_linker_0, # of connection points: 2
#     Edge 62, Type (0, 0), BuildingBlock: EZIPEK_clean_linker_0, # of connection points: 2
#     Edge 63, Type (0, 0), BuildingBlock: EZIPEK_clean_linker_0, # of connection points: 2
#     Edge 64, Type (0, 0), BuildingBlock: EZIPEK_clean_linker_0, # of connection points: 2
#     Edge 65, Type (0, 0), BuildingBlock: EZIPEK_clean_linker_0, # of connection points: 2
#     Edge 66, Type (0, 0), BuildingBlock: EZIPEK_clean_linker_0, # of connection points: 2
#     Edge 67, Type (0, 0), BuildingBlock: EZIPEK_clean_linker_0, # of connection points: 2
#     Edge 68, Type (0, 0), BuildingBlock: EZIPEK_clean_linker_0, # of connection points: 2
#     Edge 69, Type (0, 0), BuildingBlock: EZIPEK_clean_linker_0, # of connection points: 2
#     Edge 70, Type (0, 0), BuildingBlock: EZIPEK_clean_linker_0, # of connection points: 2
#     Edge 71, Type (0, 0), BuildingBlock: EZIPEK_clean_linker_0, # of connection points: 2
# Relax obj value: 0.147
# Max RMSD: 0.133
# Mean RMSD: 0.133
data_MOF--net-gme--node1-TATPOV_clean_sbu_0--edge1-EZIPEK_clean_linker_0
_symmetry_space_group_name_H-M    P1
_symmetry_Int_Tables_number       1
_symmetry_cell_setting            triclinic
loop_
_symmetry_equiv_pos_as_xyz
'x, y, z'
_cell_length_a     47.328597
_cell_length_b     47.050472
_cell_length_c     37.160615
_cell_angle_alpha  89.864567
_cell_angle_beta   89.67967
_cell_angle_gamma 120.2132
loop_
_atom_site_label
_atom_site_type_symbol
_atom_site_fract_x
_atom_site_fract_y
_atom_site_fract_z
_atom_type_partial_charge
Zn0 Zn 0.41029 0.03735 0.08769 0.0
Zn1 Zn 0.41691 0.09668 0.0737 0.0
O2 O 0.38064 0.06511 0.03952 0.0
O3 O 0.37459 0.01658 0.05089 0.0
O4 O 0.41922 0.1399 0.0642 0.0
O5 O 0.40037 0.04135 0.13965 0.0
O6 O 0.40584 0.08981 0.1276 0.0
C7 C 0.36641 0.03439 0.03334 0.0
C8 C 0.47512 0.08616 0.06346 0.0
O9 O 0.46325 0.10518 0.06213 0.0
O10 O 0.45743 0.05629 0.07263 0.0
C11 C 0.43182 0.15724 0.03606 0.0
O12 O 0.4444 0.14721 0.01097 0.0
C13 C 0.40053 0.06705 0.14992 0.0
Zn14 Zn 0.3583 0.4166 0.599 0.0
Zn15 Zn 0.30584 0.41973 0.57936 0.0
O16 O 0.30502 0.38427 0.54559 0.0
O17 O 0.34746 0.38099 0.56309 0.0
O18 O 0.26599 0.42218 0.56622 0.0
O19 O 0.34135 0.40587 0.64964 0.0
O20 O 0.29761 0.40774 0.63318 0.0
C21 C 0.32291 0.37125 0.54281 0.0
C22 C 0.37415 0.48081 0.57484 0.0
O23 O 0.34332 0.46738 0.57106 0.0
O24 O 0.38683 0.46421 0.58544 0.0
C25 C 0.25912 0.42707 0.53465 0.0
O26 O 0.27861 0.4307 0.50755 0.0
C27 C 0.31438 0.40392 0.65739 0.0
Zn28 Zn 0.94578 0.35924 0.11497 0.0
Zn29 Zn 0.89283 0.31346 0.08167 0.0
O30 O 0.93092 0.31928 0.04899 0.0
O31 O 0.97441 0.35663 0.07674 0.0
O32 O 0.85264 0.27613 0.05954 0.0
O33 O 0.93469 0.33146 0.15945 0.0
O34 O 0.88989 0.29476 0.13259 0.0
C35 C 0.96198 0.33673 0.0509 0.0
C36 C 0.90135 0.38137 0.09382 0.0
O37 O 0.88459 0.35254 0.08094 0.0
O38 O 0.92812 0.39016 0.10961 0.0
C39 C 0.836 0.27839 0.03417 0.0
O40 O 0.84549 0.30694 0.01863 0.0
C41 C 0.90805 0.30433 0.16022 0.0
Zn42 Zn 0.56336 0.95609 0.58634 0.0
Zn43 Zn 0.55831 0.89735 0.57332 0.0
O44 O 0.59514 0.92931 0.53916 0.0
O45 O 0.59895 0.9771 0.54877 0.0
O46 O 0.5561 0.854 0.56461 0.0
O47 O 0.57354 0.95295 0.63828 0.0
O48 O 0.56847 0.90453 0.62734 0.0
C49 C 0.60841 0.95989 0.53211 0.0
C50 C 0.49923 0.90657 0.56264 0.0
O51 O 0.51197 0.88832 0.56091 0.0
O52 O 0.51612 0.93631 0.5722 0.0
C53 C 0.5476 0.83889 0.5348 0.0
O54 O 0.53927 0.85128 0.50793 0.0
C55 C 0.57351 0.92743 0.64916 0.0
Zn56 Zn 0.6154 0.57864 0.09666 0.0
Zn57 Zn 0.66272 0.56774 0.07201 0.0
O58 O 0.66782 0.60638 0.04094 0.0
O59 O 0.63036 0.61643 0.06182 0.0
O60 O 0.70077 0.5623 0.05739 0.0
O61 O 0.63379 0.58633 0.14665 0.0
O62 O 0.67188 0.5767 0.12603 0.0
C63 C 0.65405 0.6237 0.04052 0.0
C64 C 0.59145 0.51323 0.06754 0.0
O65 O 0.62155 0.5232 0.0614 0.0
O66 O 0.58276 0.53217 0.0816 0.0
C67 C 0.72885 0.58651 0.06444 0.0
O68 O 0.73118 0.61327 0.07829 0.0
C69 C 0.65851 0.58328 0.15197 0.0
Zn70 Zn 0.03592 0.6188 0.62376 0.0
Zn71 Zn 0.09009 0.66469 0.59055 0.0
O72 O 0.0537 0.65463 0.55364 0.0
O73 O 0.00873 0.62033 0.58351 0.0
O74 O 0.13178 0.70194 0.5697 0.0
O75 O 0.04523 0.64667 0.66742 0.0
O76 O 0.08853 0.68525 0.63893 0.0
C77 C 0.02263 0.63671 0.55533 0.0
C78 C 0.08166 0.5972 0.60649 0.0
O79 O 0.09946 0.62653 0.59484 0.0
O80 O 0.05368 0.5879 0.61992 0.0
C81 C 0.1389 0.71047 0.53695 0.0
O82 O 0.11805 0.69355 0.51149 0.0
C83 C 0.07029 0.67507 0.6668 0.0
Zn84 Zn 0.9356 0.57319 0.35784 0.0
Zn85 Zn 0.88036 0.56606 0.38553 0.0
O86 O 0.91487 0.59124 0.42478 0.0
O87 O 0.96084 0.5986 0.40075 0.0
O88 O 0.83934 0.56452 0.4031 0.0
O89 O 0.93238 0.59588 0.31383 0.0
O90 O 0.88555 0.58737 0.33555 0.0
C91 C 0.9456 0.60237 0.42661 0.0
C92 C 0.88518 0.50524 0.37139 0.0
O93 O 0.86828 0.5176 0.38277 0.0
O94 O 0.91384 0.5235 0.3591 0.0
C95 C 0.82258 0.54909 0.43065 0.0
O96 O 0.83234 0.53318 0.45152 0.0
C97 C 0.90691 0.59798 0.31049 0.0
Zn98 Zn 0.36271 0.95263 0.85886 0.0
Zn99 Zn 0.31378 0.89484 0.88275 0.0
O100 O 0.31031 0.92929 0.91377 0.0
O101 O 0.34909 0.97668 0.89296 0.0
O102 O 0.27523 0.85201 0.89875 0.0
O103 O 0.34506 0.94252 0.80868 0.0
O104 O 0.30534 0.8946 0.8284 0.0
C105 C 0.32529 0.96059 0.91437 0.0
C106 C 0.38377 0.90923 0.88841 0.0
O107 O 0.35338 0.88963 0.89388 0.0
O108 O 0.39382 0.93741 0.87467 0.0
C109 C 0.2709 0.84043 0.9305 0.0
O110 O 0.29273 0.85645 0.95544 0.0
C111 C 0.31988 0.91497 0.80279 0.0
Zn112 Zn 0.41005 0.37065 0.36786 0.0
Zn113 Zn 0.41192 0.31605 0.38422 0.0
O114 O 0.37677 0.31469 0.4188 0.0
O115 O 0.37738 0.36087 0.40732 0.0
O116 O 0.41145 0.27376 0.3944 0.0
O117 O 0.39661 0.35486 0.3172 0.0
O118 O 0.40199 0.31207 0.33024 0.0
C119 C 0.36668 0.33466 0.42557 0.0
C120 C 0.47379 0.3832 0.38961 0.0
O121 O 0.4595 0.35216 0.39427 0.0
O122 O 0.4581 0.39676 0.3787 0.0
C123 C 0.42242 0.26816 0.42302 0.0
O124 O 0.4349 0.2906 0.44823 0.0
C125 C 0.39645 0.32901 0.30762 0.0
Zn126 Zn 0.03904 0.41839 0.85721 0.0
Zn127 Zn 0.09811 0.42827 0.87858 0.0
O128 O 0.06674 0.39819 0.91819 0.0
O129 O 0.01891 0.39138 0.90223 0.0
O130 O 0.14237 0.43525 0.89189 0.0
O131 O 0.04363 0.39823 0.81139 0.0
O132 O 0.09151 0.40664 0.82924 0.0
C133 C 0.03629 0.38634 0.92422 0.0
C134 C 0.08655 0.48648 0.86831 0.0
O135 O 0.10513 0.47532 0.87719 0.0
O136 O 0.05745 0.46732 0.85847 0.0
C137 C 0.15279 0.43633 0.92358 0.0
O138 O 0.13441 0.43348 0.9515 0.0
C139 C 0.06924 0.39673 0.80561 0.0
Zn140 Zn 0.61237 0.04165 0.35747 0.0
Zn141 Zn 0.65826 0.09967 0.38336 0.0
O142 O 0.66349 0.06578 0.41384 0.0
O143 O 0.62719 0.01842 0.39108 0.0
O144 O 0.6946 0.1438 0.39939 0.0
O145 O 0.63132 0.05395 0.30774 0.0
O146 O 0.66878 0.10188 0.3291 0.0
C147 C 0.65002 0.03453 0.41316 0.0
C148 C 0.58646 0.08035 0.38821 0.0
O149 O 0.61635 0.10109 0.39448 0.0
O150 O 0.57847 0.05317 0.37331 0.0
C151 C 0.70539 0.15194 0.43116 0.0
O152 O 0.69201 0.13084 0.45783 0.0
C153 C 0.65593 0.08223 0.30284 0.0
Zn154 Zn 0.57223 0.61755 0.86581 0.0
Zn155 Zn 0.55995 0.66453 0.88908 0.0
O156 O 0.59852 0.67043 0.92001 0.0
O157 O 0.61006 0.63369 0.89991 0.0
O158 O 0.55391 0.70234 0.90364 0.0
O159 O 0.57924 0.63579 0.81538 0.0
O160 O 0.56918 0.67398 0.8351 0.0
C161 C 0.61655 0.65749 0.92066 0.0
C162 C 0.50667 0.59239 0.89467 0.0
O163 O 0.51579 0.62262 0.89951 0.0
O164 O 0.52627 0.58404 0.88184 0.0
C165 C 0.57834 0.73078 0.89763 0.0
O166 O 0.60543 0.73347 0.88455 0.0
C167 C 0.57591 0.66044 0.80949 0.0
Zn168 Zn 0.56798 0.96148 0.86474 0.0
Zn169 Zn 0.56073 0.90171 0.87937 0.0
O170 O 0.5967 0.93343 0.91416 0.0
O171 O 0.60108 0.98159 0.90408 0.0
O172 O 0.55769 0.85758 0.88629 0.0
O173 O 0.58017 0.95902 0.81316 0.0
O174 O 0.57044 0.90896 0.82522 0.0
C175 C 0.60903 0.96375 0.92187 0.0
C176 C 0.50279 0.91232 0.8887 0.0
O177 O 0.51471 0.89344 0.89178 0.0
O178 O 0.52029 0.94169 0.87775 0.0
C179 C 0.57445 0.85139 0.90823 0.0
O180 O 0.5946 0.87422 0.93039 0.0
C181 C 0.57769 0.93224 0.80289 0.0
Zn182 Zn 0.60915 0.56201 0.35326 0.0
Zn183 Zn 0.65877 0.55959 0.38122 0.0
O184 O 0.6506 0.58894 0.41641 0.0
O185 O 0.61354 0.59593 0.38854 0.0
O186 O 0.69909 0.56013 0.39906 0.0
O187 O 0.62934 0.57455 0.30459 0.0
O188 O 0.67184 0.57429 0.32805 0.0
C189 C 0.63224 0.60155 0.41505 0.0
C190 C 0.59238 0.49762 0.38024 0.0
O191 O 0.62275 0.51117 0.38714 0.0
O192 O 0.58064 0.51399 0.36631 0.0
C193 C 0.70231 0.55063 0.42999 0.0
O194 O 0.67873 0.54084 0.45403 0.0
C195 C 0.65754 0.57821 0.30114 0.0
Zn196 Zn 0.04134 0.62831 0.85457 0.0
Zn197 Zn 0.09807 0.67441 0.88226 0.0
O198 O 0.06439 0.66553 0.92252 0.0
O199 O 0.01734 0.62916 0.89863 0.0
O200 O 0.14059 0.71181 0.89987 0.0
O201 O 0.04666 0.65657 0.81175 0.0
O202 O 0.09392 0.69339 0.83391 0.0
C203 C 0.03343 0.64702 0.92476 0.0
C204 C 0.08854 0.60693 0.86637 0.0
O205 O 0.10694 0.63618 0.87742 0.0
O206 O 0.06017 0.59793 0.85469 0.0
C207 C 0.14962 0.71903 0.9323 0.0
O208 O 0.13068 0.70064 0.95876 0.0
C209 C 0.07267 0.68418 0.80919 0.0
Zn210 Zn 0.39973 0.02681 0.36347 0.0
Zn211 Zn 0.4082 0.08612 0.38108 0.0
O212 O 0.37017 0.0534 0.41382 0.0
O213 O 0.36232 0.00498 0.39863 0.0
O214 O 0.41249 0.1301 0.39164 0.0
O215 O 0.39193 0.03357 0.31181 0.0
O216 O 0.40011 0.08252 0.32658 0.0
C217 C 0.35416 0.0222 0.41732 0.0
C218 C 0.46432 0.07272 0.39059 0.0
O219 O 0.45322 0.0923 0.39347 0.0
O220 O 0.4463 0.04363 0.37944 0.0
C221 C 0.41589 0.1424 0.42281 0.0
O222 O 0.41713 0.12629 0.4511 0.0
C223 C 0.39431 0.06068 0.30302 0.0
Zn224 Zn 0.36378 0.40656 0.86349 0.0
Zn225 Zn 0.31605 0.41727 0.88796 0.0
O226 O 0.311 0.37851 0.91855 0.0
O227 O 0.34883 0.36874 0.89832 0.0
O228 O 0.27756 0.42172 0.90325 0.0
O229 O 0.34515 0.39879 0.81362 0.0
O230 O 0.30707 0.40866 0.83395 0.0
C231 C 0.32486 0.36128 0.91924 0.0
C232 C 0.38737 0.47191 0.89275 0.0
O233 O 0.35722 0.46172 0.89886 0.0
O234 O 0.39623 0.45314 0.87858 0.0
C235 C 0.27824 0.44465 0.92189 0.0
O236 O 0.30606 0.4682 0.93458 0.0
C237 C 0.32049 0.40192 0.80817 0.0
Zn238 Zn 0.93192 0.36806 0.34835 0.0
Zn239 Zn 0.87795 0.31939 0.3798 0.0
O240 O 0.91418 0.32917 0.41645 0.0
O241 O 0.95893 0.36763 0.38951 0.0
O242 O 0.8379 0.27998 0.40011 0.0
O243 O 0.92529 0.3412 0.30435 0.0
O244 O 0.88079 0.3015 0.33011 0.0
C245 C 0.94499 0.34886 0.41619 0.0
C246 C 0.88311 0.38573 0.36643 0.0
O247 O 0.86661 0.35633 0.37834 0.0
O248 O 0.911 0.39619 0.35215 0.0
C249 C 0.81943 0.27993 0.42505 0.0
O250 O 0.82641 0.30744 0.44131 0.0
C251 C 0.90029 0.3128 0.3033 0.0
Zn252 Zn 0.03003 0.40805 0.61712 0.0
Zn253 Zn 0.0851 0.41707 0.58634 0.0
O254 O 0.05033 0.39232 0.54747 0.0
O255 O 0.00472 0.38391 0.57355 0.0
O256 O 0.12641 0.42001 0.56768 0.0
O257 O 0.03431 0.38414 0.65949 0.0
O258 O 0.0811 0.39502 0.63545 0.0
C259 C 0.01956 0.38103 0.54666 0.0
C260 C 0.0792 0.47666 0.6039 0.0
O261 O 0.09599 0.465 0.59033 0.0
O262 O 0.05128 0.4578 0.61767 0.0
C263 C 0.14039 0.43148 0.53756 0.0
O264 O 0.12794 0.44334 0.51454 0.0
C265 C 0.06039 0.38297 0.66108 0.0
Zn266 Zn 0.61574 0.04862 0.09726 0.0
Zn267 Zn 0.66501 0.10481 0.07227 0.0
O268 O 0.6677 0.06953 0.04148 0.0
O269 O 0.6289 0.02334 0.06467 0.0
O270 O 0.70404 0.14774 0.05687 0.0
O271 O 0.63257 0.05888 0.14753 0.0
O272 O 0.67397 0.10512 0.12671 0.0
C273 C 0.65227 0.03818 0.04243 0.0
C274 C 0.59499 0.0912 0.06611 0.0
O275 O 0.6255 0.11054 0.06086 0.0
O276 O 0.58461 0.06317 0.08033 0.0
C277 C 0.71593 0.15587 0.0253 0.0
O278 O 0.70194 0.13571 -0.0017 0.0
C279 C 0.65875 0.0857 0.15283 0.0
Zn280 Zn 0.55292 0.61503 0.60543 0.0
Zn281 Zn 0.55076 0.66625 0.58068 0.0
O282 O 0.57971 0.6596 0.54327 0.0
O283 O 0.5862 0.62084 0.56851 0.0
O284 O 0.55126 0.70786 0.56664 0.0
O285 O 0.56589 0.63297 0.65469 0.0
O286 O 0.56571 0.6767 0.63376 0.0
C287 C 0.59198 0.64086 0.54294 0.0
C288 C 0.48883 0.59963 0.58113 0.0
O289 O 0.50246 0.63042 0.57511 0.0
O290 O 0.50505 0.58715 0.59353 0.0
C291 C 0.54752 0.71628 0.53534 0.0
O292 O 0.54326 0.69719 0.50773 0.0
C293 C 0.5697 0.66122 0.65958 0.0
Zn294 Zn 0.94402 0.56577 0.12225 0.0
Zn295 Zn 0.89014 0.55849 0.0902 0.0
O296 O 0.92645 0.58679 0.05365 0.0
O297 O 0.97111 0.59629 0.08231 0.0
O298 O 0.84882 0.55531 0.07139 0.0
O299 O 0.93508 0.58304 0.16732 0.0
O300 O 0.89211 0.57883 0.13987 0.0
C301 C 0.95746 0.60005 0.05497 0.0
C302 C 0.89833 0.49884 0.10135 0.0
O303 O 0.88084 0.51073 0.09067 0.0
O304 O 0.92581 0.51702 0.11582 0.0
C305 C 0.84828 0.58181 0.06697 0.0
O306 O 0.87512 0.61014 0.07197 0.0
C307 C 0.91019 0.58636 0.16748 0.0
Zn308 Zn 0.35931 0.94557 0.59178 0.0
Zn309 Zn 0.30914 0.88686 0.57281 0.0
O310 O 0.30459 0.92028 0.54076 0.0
O311 O 0.34409 0.96845 0.55802 0.0
O312 O 0.26955 0.84337 0.56053 0.0
O313 O 0.34396 0.93713 0.64327 0.0
O314 O 0.3022 0.88939 0.62717 0.0
C315 C 0.31928 0.95157 0.53862 0.0
C316 C 0.3793 0.90117 0.56345 0.0
O317 O 0.34867 0.88105 0.5611 0.0
O318 O 0.38988 0.93019 0.57457 0.0
C319 C 0.26184 0.83118 0.52921 0.0
O320 O 0.28087 0.84674 0.50156 0.0
C321 C 0.31834 0.91044 0.65133 0.0
Zn322 Zn 0.40541 0.3728 0.09425 0.0
Zn323 Zn 0.41611 0.32331 0.0772 0.0
O324 O 0.37844 0.31618 0.04412 0.0
O325 O 0.36783 0.35478 0.05958 0.0
O326 O 0.4221 0.28476 0.06652 0.0
O327 O 0.39804 0.35802 0.14603 0.0
O328 O 0.40526 0.31677 0.13113 0.0
C329 C 0.36107 0.3297 0.0409 0.0
C330 C 0.47076 0.39477 0.06757 0.0
O331 O 0.4609 0.36412 0.06575 0.0
O332 O 0.45156 0.40465 0.07762 0.0
C333 C 0.42632 0.27673 0.03521 0.0
O334 O 0.42714 0.29408 0.00709 0.0
C335 C 0.3995 0.33279 0.15474 0.0
C336 C 0.36498 0.04947 0.24456 0.0
C337 C 0.39405 0.06804 0.26442 0.0
C338 C 0.42456 0.09352 0.20878 0.0
C339 C 0.39674 0.07115 0.18874 0.0
N340 N 0.34016 0.0285 0.18638 0.0
N341 N 0.45212 0.10659 0.26623 0.0
C342 C 0.36671 0.04951 0.20633 0.0
C343 C 0.42389 0.09033 0.24684 0.0
N344 N 0.33578 0.03219 0.26245 0.0
N345 N 0.45189 0.11732 0.19143 0.0
H346 H 0.45283 0.10529 0.29418 0.0
H347 H 0.47531 0.11969 0.25463 0.0
H348 H 0.45423 0.11943 0.16353 0.0
H349 H 0.47142 0.13666 0.20463 0.0
H350 H 0.31318 0.02027 0.2498 0.0
H351 H 0.33397 0.03207 0.29047 0.0
H352 H 0.31867 0.00937 0.19734 0.0
H353 H 0.34007 0.02947 0.15832 0.0
C354 C 0.29726 0.37037 0.71375 0.0
C355 C 0.30432 0.39976 0.6956 0.0
C356 C 0.31398 0.42862 0.75288 0.0
C357 C 0.30896 0.39977 0.7709 0.0
N358 N 0.28713 0.34127 0.77077 0.0
N359 N 0.30985 0.45356 0.69744 0.0
C360 C 0.29759 0.3699 0.75197 0.0
C361 C 0.30908 0.42767 0.71512 0.0
N362 N 0.29148 0.3434 0.69422 0.0
N363 N 0.32596 0.45755 0.77125 0.0
H364 H 0.30722 0.45406 0.66967 0.0
H365 H 0.31007 0.47322 0.71049 0.0
H366 H 0.32973 0.45943 0.79894 0.0
H367 H 0.3342 0.48027 0.75883 0.0
H368 H 0.29002 0.32239 0.70537 0.0
H369 H 0.28914 0.34258 0.66626 0.0
H370 H 0.27615 0.31815 0.75894 0.0
H371 H 0.28687 0.34046 0.79885 0.0
C372 C 0.86744 0.28203 0.21055 0.0
C373 C 0.89699 0.28685 0.19529 0.0
C374 C 0.91807 0.28832 0.25555 0.0
C375 C 0.89352 0.2941 0.26949 0.0
N376 N 0.84256 0.29349 0.26131 0.0
N377 N 0.94661 0.2855 0.20218 0.0
C378 C 0.86689 0.28902 0.2476 0.0
C379 C 0.92075 0.28622 0.21768 0.0
N380 N 0.84035 0.27132 0.18969 0.0
N381 N 0.93908 0.28587 0.27868 0.0
H382 H 0.94764 0.28234 0.17448 0.0
H383 H 0.9668 0.28833 0.21624 0.0
H384 H 0.9369 0.2871 0.30654 0.0
H385 H 0.95675 0.28015 0.27076 0.0
H386 H 0.8175 0.26541 0.19996 0.0
H387 H 0.83977 0.26418 0.16306 0.0
H388 H 0.82502 0.29446 0.24539 0.0
H389 H 0.84076 0.29788 0.28844 0.0
C390 C 0.60643 0.94533 0.70571 0.0
C391 C 0.57672 0.92356 0.68817 0.0
C392 C 0.54863 0.90456 0.74631 0.0
C393 C 0.57832 0.92644 0.76391 0.0
N394 N 0.63662 0.96241 0.76178 0.0
N395 N 0.52148 0.87747 0.69119 0.0
C396 C 0.60764 0.9452 0.74397 0.0
C397 C 0.54857 0.90129 0.70833 0.0
N398 N 0.6332 0.96657 0.68569 0.0
N399 N 0.51997 0.88878 0.76554 0.0
H400 H 0.51949 0.8753 0.66331 0.0
H401 H 0.50179 0.85814 0.70463 0.0
H402 H 0.51862 0.89048 0.79338 0.0
H403 H 0.497 0.87596 0.75376 0.0
H404 H 0.65443 0.98578 0.69659 0.0
H405 H 0.6337 0.96575 0.65764 0.0
H406 H 0.65937 0.97432 0.74905 0.0
H407 H 0.6381 0.96252 0.7898 0.0
C408 C 0.67855 0.61398 0.24671 0.0
C409 C 0.67202 0.58468 0.26462 0.0
C410 C 0.66693 0.55748 0.20709 0.0
C411 C 0.67038 0.58579 0.1892 0.0
N412 N 0.68962 0.64379 0.19005 0.0
N413 N 0.67123 0.53314 0.263 0.0
C414 C 0.67978 0.61512 0.2085 0.0
C415 C 0.67044 0.55813 0.24509 0.0
N416 N 0.68206 0.64002 0.26641 0.0
N417 N 0.65761 0.52916 0.18836 0.0
H418 H 0.67334 0.53284 0.29088 0.0
H419 H 0.67306 0.51449 0.25016 0.0
H420 H 0.65499 0.52753 0.16051 0.0
H421 H 0.65055 0.50659 0.20055 0.0
H422 H 0.68303 0.66081 0.25526 0.0
H423 H 0.68308 0.64022 0.29449 0.0
H424 H 0.69903 0.66664 0.20228 0.0
H425 H 0.69103 0.64502 0.16198 0.0
C426 C 0.05334 0.69806 0.71689 0.0
C427 C 0.07855 0.69499 0.69995 0.0
C428 C 0.10916 0.71082 0.75614 0.0
C429 C 0.07971 0.70234 0.77449 0.0
N430 N 0.0271 0.69804 0.77344 0.0
N431 N 0.13303 0.70241 0.70249 0.0
C432 C 0.05309 0.7001 0.755 0.0
C433 C 0.10778 0.70363 0.71891 0.0
N434 N 0.02943 0.69791 0.69635 0.0
N435 N 0.13804 0.72532 0.77424 0.0
H436 H 0.13374 0.69834 0.67509 0.0
H437 H 0.1528 0.70408 0.71652 0.0
H438 H 0.13966 0.73284 0.80088 0.0
H439 H 0.16064 0.73386 0.76163 0.0
H440 H 0.01094 0.70149 0.70655 0.0
H441 H 0.02988 0.69678 0.6683 0.0
H442 H 0.00522 0.69305 0.76158 0.0
H443 H 0.02778 0.70115 0.80131 0.0
C444 C 0.87301 0.57819 0.22022 0.0
C445 C 0.90242 0.5984 0.20071 0.0
C446 C 0.92745 0.63125 0.25436 0.0
C447 C 0.90043 0.60757 0.2747 0.0
N448 N 0.84208 0.57146 0.27505 0.0
N449 N 0.9518 0.6508 0.19509 0.0
C450 C 0.87119 0.58549 0.25691 0.0
C451 C 0.92762 0.6275 0.21647 0.0
N452 N 0.84797 0.55075 0.20492 0.0
N453 N 0.95342 0.656 0.27189 0.0
H454 H 0.9517 0.64831 0.16716 0.0
H455 H 0.97016 0.67344 0.20437 0.0
H456 H 0.95246 0.65959 0.29951 0.0
H457 H 0.97558 0.67235 0.25958 0.0
H458 H 0.82792 0.53306 0.21954 0.0
H459 H 0.84783 0.54461 0.17802 0.0
H460 H 0.81965 0.55666 0.26271 0.0
H461 H 0.84013 0.57834 0.30117 0.0
C462 C 0.31678 0.88373 0.74715 0.0
C463 C 0.30949 0.90588 0.76516 0.0
C464 C 0.29897 0.92423 0.7077 0.0
C465 C 0.30842 0.90377 0.68961 0.0
N466 N 0.31772 0.85786 0.69108 0.0
N467 N 0.28548 0.94032 0.76452 0.0
C468 C 0.31408 0.88116 0.70906 0.0
C469 C 0.29776 0.92382 0.74594 0.0
N470 N 0.32866 0.86709 0.76614 0.0
N471 N 0.29227 0.94477 0.68817 0.0
H472 H 0.28415 0.93995 0.79259 0.0
H473 H 0.27421 0.95197 0.75247 0.0
H474 H 0.29096 0.94401 0.66013 0.0
H475 H 0.28897 0.96314 0.69942 0.0
H476 H 0.33855 0.854 0.75424 0.0
H477 H 0.33038 0.86774 0.7941 0.0
H478 H 0.31863 0.83861 0.7038 0.0
H479 H 0.31713 0.85602 0.66314 0.0
C480 C 0.3657 0.31157 0.24995 0.0
C481 C 0.39516 0.32192 0.26884 0.0
C482 C 0.42462 0.32876 0.21208 0.0
C483 C 0.39642 0.32352 0.19318 0.0
N484 N 0.33964 0.30834 0.19277 0.0
N485 N 0.4532 0.34182 0.2689 0.0
C486 C 0.36666 0.31408 0.21175 0.0
C487 C 0.42464 0.33018 0.25025 0.0
N488 N 0.33693 0.29912 0.26873 0.0
N489 N 0.45165 0.3332 0.19363 0.0
H490 H 0.4544 0.34289 0.29689 0.0
H491 H 0.47619 0.3525 0.25677 0.0
H492 H 0.45361 0.33443 0.16568 0.0
H493 H 0.47139 0.33321 0.20586 0.0
H494 H 0.31405 0.28861 0.25679 0.0
H495 H 0.33579 0.29693 0.29674 0.0
H496 H 0.31823 0.30516 0.20453 0.0
H497 H 0.339 0.30779 0.16469 0.0
C498 C 0.09959 0.3954 0.71113 0.0
C499 C 0.06886 0.37368 0.69597 0.0
C500 C 0.04638 0.35541 0.75648 0.0
C501 C 0.07317 0.38463 0.77022 0.0
N502 N 0.12681 0.43273 0.75996 0.0
N503 N 0.01541 0.32648 0.70345 0.0
C504 C 0.10076 0.40428 0.74773 0.0
C505 C 0.04319 0.35102 0.7186 0.0
N506 N 0.12733 0.40764 0.69066 0.0
N507 N 0.0241 0.33242 0.77972 0.0
H508 H 0.01393 0.32212 0.67577 0.0
H509 H -0.0059 0.31115 0.71783 0.0
H510 H 0.02667 0.33511 0.80759 0.0
H511 H 0.00499 0.30967 0.77168 0.0
H512 H 0.15067 0.42214 0.7012 0.0
H513 H 0.12714 0.39934 0.66462 0.0
H514 H 0.14535 0.44954 0.74299 0.0
H515 H 0.12903 0.441 0.78628 0.0
C516 C 0.66104 0.11453 0.24709 0.0
C517 C 0.66813 0.09248 0.26568 0.0
C518 C 0.68032 0.0746 0.20887 0.0
C519 C 0.67031 0.0943 0.19021 0.0
N520 N 0.66079 0.14 0.19024 0.0
N521 N 0.69345 0.05925 0.26628 0.0
C522 C 0.6643 0.11694 0.20897 0.0
C523 C 0.68095 0.07518 0.24709 0.0
N524 N 0.64881 0.13115 0.26555 0.0
N525 N 0.68784 0.05441 0.18988 0.0
H526 H 0.69433 0.05981 0.29436 0.0
H527 H 0.70532 0.04796 0.25469 0.0
H528 H 0.68937 0.05507 0.16182 0.0
H529 H 0.6917 0.03655 0.20158 0.0
H530 H 0.63917 0.14427 0.25323 0.0
H531 H 0.64677 0.13059 0.29351 0.0
H532 H 0.65924 0.15909 0.20234 0.0
H533 H 0.66234 0.14183 0.16226 0.0
C534 C 0.54959 0.67197 0.71697 0.0
C535 C 0.57602 0.67425 0.69657 0.0
C536 C 0.60674 0.68144 0.75182 0.0
C537 C 0.57775 0.67172 0.77196 0.0
N538 N 0.52101 0.65743 0.77424 0.0
N539 N 0.63101 0.68427 0.69319 0.0
C540 C 0.54923 0.66783 0.75488 0.0
C541 C 0.60527 0.68054 0.71364 0.0
N542 N 0.52442 0.67271 0.70001 0.0
N543 N 0.63548 0.6914 0.76943 0.0
H544 H 0.63105 0.68561 0.66513 0.0
H545 H 0.65169 0.685 0.70374 0.0
H546 H 0.63702 0.69259 0.79746 0.0
H547 H 0.65808 0.70115 0.75653 0.0
H548 H 0.50594 0.67423 0.71363 0.0
H549 H 0.52368 0.6751 0.67221 0.0
H550 H 0.49842 0.64998 0.76253 0.0
H551 H 0.51942 0.65402 0.80203 0.0
C552 C 0.46013 0.21883 0.03034 0.0
C553 C 0.43072 0.18791 0.03118 0.0
C554 C 0.39836 0.21538 0.03218 0.0
C555 C 0.42771 0.24626 0.03061 0.0
N556 N 0.486 0.27789 0.02127 0.0
N557 N 0.3722 0.15631 0.02445 0.0
C558 C 0.45845 0.24812 0.02728 0.0
C559 C 0.39989 0.18606 0.0296 0.0
N560 N 0.48953 0.2203 0.03452 0.0
N561 N 0.36906 0.2141 0.03691 0.0
H562 H 0.37251 0.1344 0.02185 0.0
H563 H 0.34936 0.15362 0.01942 0.0
H564 H 0.36677 0.23502 0.03714 0.0
H565 H 0.34726 0.19252 0.04273 0.0
H566 H 0.51151 0.24211 0.03832 0.0
H567 H 0.49178 0.19944 0.03685 0.0
H568 H 0.50867 0.2806 0.01487 0.0
H569 H 0.48569 0.29988 0.01986 0.0
C570 C 0.20023 0.45816 0.54963 0.0
C571 C 0.1725 0.4343 0.53065 0.0
C572 C 0.203 0.40791 0.50996 0.0
C573 C 0.23055 0.43146 0.52948 0.0
N574 N 0.25857 0.48356 0.5599 0.0
N575 N 0.14895 0.39115 0.48666 0.0
C576 C 0.23012 0.45804 0.54687 0.0
C577 C 0.17448 0.41081 0.50859 0.0
N578 N 0.1977 0.48041 0.57102 0.0
N579 N 0.20343 0.38177 0.49454 0.0
H580 H 0.1275 0.39225 0.48576 0.0
H581 H 0.14994 0.3757 0.46734 0.0
H582 H 0.22396 0.37901 0.4947 0.0
H583 H 0.18296 0.36172 0.48352 0.0
H584 H 0.21559 0.49564 0.58918 0.0
H585 H 0.17684 0.48261 0.5719 0.0
H586 H 0.26066 0.5052 0.56983 0.0
H587 H 0.28099 0.48444 0.55774 0.0
C588 C 0.77462 0.24714 0.03297 0.0
C589 C 0.80473 0.24889 0.0244 0.0
C590 C 0.77597 0.18991 0.01107 0.0
C591 C 0.7459 0.18817 0.01975 0.0
N592 N 0.71542 0.21585 0.02947 0.0
N593 N 0.83369 0.22462 -0.00314 0.0
C594 C 0.74489 0.21712 0.02757 0.0
C595 C 0.80523 0.22107 0.01063 0.0
N596 N 0.77445 0.27342 0.04835 0.0
N597 N 0.77689 0.16169 0.00535 0.0
H598 H 0.85543 0.24724 -0.00396 0.0
H599 H 0.83511 0.20604 -0.01671 0.0
H600 H 0.75601 0.13843 0.00506 0.0
H601 H 0.7985 0.16103 0.00323 0.0
H602 H 0.75356 0.27226 0.0592 0.0
H603 H 0.79562 0.29594 0.0527 0.0
H604 H 0.71308 0.23663 0.03161 0.0
H605 H 0.69324 0.19418 0.02538 0.0
C606 C 0.51962 0.74828 0.54844 0.0
C607 C 0.54543 0.74649 0.53102 0.0
C608 C 0.56887 0.80354 0.51005 0.0
C609 C 0.54546 0.80651 0.53129 0.0
N610 N 0.49904 0.78257 0.57175 0.0
N611 N 0.59603 0.77247 0.49734 0.0
C612 C 0.52091 0.77907 0.55074 0.0
C613 C 0.57023 0.774 0.51193 0.0
N614 N 0.49329 0.7202 0.56164 0.0
N615 N 0.58995 0.82904 0.4883 0.0
H616 H 0.59772 0.75122 0.49791 0.0
H617 H 0.61686 0.79275 0.4868 0.0
H618 H 0.59073 0.85157 0.48748 0.0
H619 H 0.60512 0.82722 0.46919 0.0
H620 H 0.47211 0.71908 0.57143 0.0
H621 H 0.49129 0.69712 0.55983 0.0
H622 H 0.48333 0.7649 0.5902 0.0
H623 H 0.49763 0.80399 0.57216 0.0
C624 C 0.7727 0.58139 0.03157 0.0
C625 C 0.75781 0.58236 0.06444 0.0
C626 C 0.80206 0.58266 0.09863 0.0
C627 C 0.81651 0.58067 0.06585 0.0
N628 N 0.81365 0.57281 0.00171 0.0
N629 N 0.7538 0.57636 0.12905 0.0
C630 C 0.80115 0.5783 0.03244 0.0
C631 C 0.77121 0.58082 0.09794 0.0
N632 N 0.76036 0.58473 -0.00032 0.0
N633 N 0.81817 0.58702 0.13041 0.0
H634 H 0.73086 0.57442 0.12962 0.0
H635 H 0.76054 0.57148 0.15391 0.0
H636 H 0.84016 0.58708 0.13241 0.0
H637 H 0.81096 0.59278 0.15453 0.0
H638 H 0.77197 0.5878 0.97492 0.0
H639 H 0.73929 0.5865 -0.00183 0.0
H640 H 0.80193 0.56756 0.97696 0.0
H641 H 0.83485 0.5712 0.00148 0.0
C642 C 0.20353 0.79764 0.5095 0.0
C643 C 0.23163 0.79896 0.52461 0.0
C644 C 0.19992 0.73989 0.5381 0.0
C645 C 0.17096 0.73978 0.52821 0.0
N646 N 0.14432 0.76872 0.50658 0.0
N647 N 0.25736 0.77198 0.55349 0.0
C648 C 0.17253 0.76854 0.51383 0.0
C649 C 0.23008 0.77017 0.53876 0.0
N650 N 0.20642 0.82433 0.49143 0.0
N651 N 0.19856 0.71082 0.546 0.0
H652 H 0.28035 0.79321 0.5523 0.0
H653 H 0.25702 0.75303 0.56834 0.0
H654 H 0.17686 0.68819 0.54513 0.0
H655 H 0.21911 0.70863 0.55017 0.0
H656 H 0.18761 0.82383 0.47655 0.0
H657 H 0.2285 0.84639 0.48881 0.0
H658 H 0.14359 0.78991 0.50028 0.0
H659 H 0.12114 0.74799 0.50931 0.0
C660 C 0.79202 0.5784 0.44394 0.0
C661 C 0.79138 0.54835 0.43782 0.0
C662 C 0.73139 0.51889 0.43731 0.0
C663 C 0.73238 0.54953 0.4378 0.0
N664 N 0.76299 0.60866 0.44139 0.0
N665 N 0.76093 0.49002 0.42617 0.0
C666 C 0.76254 0.57937 0.44135 0.0
C667 C 0.76117 0.51844 0.43451 0.0
N668 N 0.82078 0.60582 0.45299 0.0
N669 N 0.70197 0.49022 0.4389 0.0
H670 H 0.78211 0.48854 0.42381 0.0
H671 H 0.73996 0.46832 0.41899 0.0
H672 H 0.67961 0.48953 0.43941 0.0
H673 H 0.69969 0.46722 0.44262 0.0
H674 H 0.82255 0.62782 0.46106 0.0
H675 H 0.84266 0.60567 0.4556 0.0
H676 H 0.78429 0.63146 0.43934 0.0
H677 H 0.74173 0.61015 0.44181 0.0
C678 C 0.2103 0.74885 0.92602 0.0
C679 C 0.18191 0.74825 0.93946 0.0
C680 C 0.21488 0.8061 0.95706 0.0
C681 C 0.24192 0.80795 0.93826 0.0
N682 N 0.26647 0.78172 0.9053 0.0
N683 N 0.15616 0.77598 0.96688 0.0
C684 C 0.24003 0.77939 0.92315 0.0
C685 C 0.18399 0.77661 0.95544 0.0
N686 N 0.20878 0.72002 0.91667 0.0
N687 N 0.2187 0.83267 0.97598 0.0
H688 H 0.13316 0.75481 0.9665 0.0
H689 H 0.1554 0.79681 0.9747 0.0
H690 H 0.24077 0.8549 0.97683 0.0
H691 H 0.20091 0.83196 -0.00682 0.0
H692 H 0.22913 0.71818 0.90971 0.0
H693 H 0.18736 0.69723 0.91904 0.0
H694 H 0.26559 0.76291 0.88978 0.0
H695 H 0.28927 0.80323 0.9047 0.0
C696 C 0.44575 0.20259 0.40834 0.0
C697 C 0.41964 0.1755 0.42662 0.0
C698 C 0.39962 0.2114 0.44869 0.0
C699 C 0.42306 0.23717 0.42652 0.0
N700 N 0.4676 0.25754 0.38369 0.0
N701 N 0.36972 0.15285 0.46153 0.0
C702 C 0.44595 0.23284 0.40593 0.0
C703 C 0.39623 0.17962 0.44652 0.0
N704 N 0.47101 0.19969 0.39446 0.0
N705 N 0.38048 0.21729 0.47165 0.0
H706 H 0.36618 0.12915 0.46036 0.0
H707 H 0.34989 0.15356 0.47277 0.0
H708 H 0.38147 0.23992 0.47297 0.0
H709 H 0.36546 0.20065 0.49132 0.0
H710 H 0.49238 0.21939 0.38399 0.0
H711 H 0.47207 0.17812 0.39648 0.0
H712 H 0.48204 0.2545 0.3646 0.0
H713 H 0.4699 0.28078 0.38282 0.0
C714 C 0.22103 0.41871 0.94577 0.0
C715 C 0.24755 0.44526 0.92738 0.0
C716 C 0.21336 0.46956 0.91494 0.0
C717 C 0.18576 0.44066 0.92846 0.0
N718 N 0.16229 0.38613 0.95405 0.0
N719 N 0.2685 0.49453 0.89106 0.0
C720 C 0.18932 0.41491 0.94359 0.0
C721 C 0.24377 0.47057 0.91139 0.0
N722 N 0.22634 0.39743 0.96578 0.0
N723 N 0.21059 0.49627 0.90607 0.0
H724 H 0.29116 0.49619 0.88757 0.0
H725 H 0.26575 0.51127 0.87526 0.0
H726 H 0.18869 0.49642 0.90867 0.0
H727 H 0.23052 0.51919 0.89951 0.0
H728 H 0.20876 0.37951 -0.0173 0.0
H729 H 0.24935 0.39969 0.96809 0.0
H730 H 0.16299 0.3651 0.96128 0.0
H731 H 0.13862 0.38232 0.95297 0.0
C732 C 0.72988 0.2129 0.43004 0.0
C733 C 0.73349 0.18531 0.43731 0.0
C734 C 0.7921 0.22192 0.44731 0.0
C735 C 0.78929 0.24868 0.43411 0.0
N736 N 0.75594 0.26982 0.41069 0.0
N737 N 0.76804 0.16274 0.45126 0.0
C738 C 0.75822 0.2444 0.42542 0.0
C739 C 0.76453 0.18959 0.44611 0.0
N740 N 0.69926 0.20891 0.42792 0.0
N741 N 0.82113 0.22759 0.46132 0.0
H742 H 0.74843 0.13867 0.451 0.0
H743 H 0.79062 0.16413 0.4534 0.0
H744 H 0.84166 0.2511 0.46275 0.0
H745 H 0.82402 0.20969 0.47453 0.0
H746 H 0.69487 0.22844 0.42617 0.0
H747 H 0.67806 0.1861 0.43141 0.0
H748 H 0.7345 0.26709 0.39977 0.0
H749 H 0.77602 0.29335 0.407 0.0
C750 C 0.57989 0.77968 0.86921 0.0
C751 C 0.57518 0.76044 0.90051 0.0
C752 C 0.56562 0.7987 0.9361 0.0
C753 C 0.57423 0.81985 0.90567 0.0
N754 N 0.59602 0.83351 0.84508 0.0
N755 N 0.56761 0.75337 0.96481 0.0
C756 C 0.58304 0.81115 0.87265 0.0
C757 C 0.56899 0.77031 0.93429 0.0
N758 N 0.58025 0.76743 0.83597 0.0
N759 N 0.55326 0.80518 0.96631 0.0
H760 H 0.56994 0.73247 0.96452 0.0
H761 H 0.56677 0.76147 -0.00936 0.0
H762 H 0.55025 0.8256 0.96848 0.0
H763 H 0.54335 0.7889 -0.01206 0.0
H764 H 0.58017 0.77898 0.81205 0.0
H765 H 0.57716 0.74407 0.83215 0.0
H766 H 0.60611 0.82963 0.82194 0.0
H767 H 0.59983 0.85731 0.8467 0.0
C768 C 0.30624 0.96468 0.97731 0.0
C769 C 0.31905 0.97903 0.94315 0.0
C770 C 0.34678 0.03393 0.96958 0.0
C771 C 0.34195 0.01877 0.00398 0.0
N772 N 0.30556 0.97347 0.04192 0.0
N773 N 0.33344 0.02606 0.90587 0.0
C774 C 0.31757 0.98517 0.00824 0.0
C775 C 0.33337 0.01346 0.93902 0.0
N776 N 0.28366 0.93198 0.97997 0.0
N777 N 0.36515 0.06728 0.96568 0.0
H778 H 0.32212 0.01074 0.88391 0.0
H779 H 0.34134 0.05076 0.90102 0.0
H780 H 0.37095 0.08349 -0.01299 0.0
H781 H 0.37395 0.079 0.94095 0.0
H782 H 0.27599 0.91894 0.00409 0.0
H783 H 0.27102 0.91818 0.95762 0.0
H784 H 0.28734 0.94948 0.04765 0.0
H785 H 0.31267 0.98901 0.0642 0.0
C786 C 0.31917 0.33798 0.44945 0.0
C787 C 0.34324 0.32895 0.45544 0.0
C788 C 0.3324 0.32717 0.51997 0.0
C789 C 0.31815 0.34697 0.51412 0.0
N790 N 0.28837 0.36227 0.47333 0.0
N791 N 0.36998 0.31076 0.49774 0.0
C792 C 0.30789 0.34907 0.47888 0.0
C793 C 0.34832 0.32122 0.49098 0.0
N794 N 0.30714 0.33559 0.41556 0.0
N795 N 0.33095 0.31464 0.55353 0.0
H796 H 0.38139 0.30451 0.47789 0.0
H797 H 0.37768 0.30944 0.52358 0.0
H798 H 0.31856 0.31838 0.57468 0.0
H799 H 0.33861 0.29787 0.55915 0.0
H800 H 0.28793 0.33951 0.40941 0.0
H801 H 0.31449 0.32644 0.39412 0.0
H802 H 0.28454 0.36939 0.44813 0.0
H803 H 0.27509 0.36519 0.49395 0.0
C804 C 0.0345 0.37954 -0.00827 0.0
C805 C 0.02069 0.36715 0.95748 0.0
C806 C 0.97113 0.32314 -0.0132 0.0
C807 C 0.98382 0.33839 0.02046 0.0
N808 N 0.03362 0.36582 0.05454 0.0
N809 N 0.98147 0.32084 0.92291 0.0
C810 C 0.01764 0.36149 0.0228 0.0
C811 C -0.00937 0.33684 0.95513 0.0
N812 N 0.06212 0.40959 -0.00479 0.0
N813 N 0.941 0.29553 -0.01478 0.0
H814 H -0.00388 0.32962 0.89985 0.0
H815 H 0.96104 0.29764 0.91956 0.0
H816 H 0.92934 0.28135 0.00799 0.0
H817 H 0.92811 0.28609 0.96148 0.0
H818 H 0.0709 0.42047 0.02016 0.0
H819 H 0.07432 0.4252 0.9736 0.0
H820 H 0.05886 0.38096 0.05691 0.0
H821 H 0.02214 0.35076 0.07687 0.0
C822 C 0.64218 0.98147 0.43767 0.0
C823 C 0.65635 0.01585 0.44156 0.0
C824 C 0.65719 0.00977 0.50665 0.0
C825 C 0.63329 0.97595 0.50276 0.0
N826 N 0.61099 0.92753 0.46501 0.0
N827 N 0.69377 0.06212 0.477 0.0
C828 C 0.62894 0.96089 0.4685 0.0
C829 C 0.66939 0.03004 0.47534 0.0
N830 N 0.64233 0.96905 0.40455 0.0
N831 N 0.66726 0.02211 0.54036 0.0
H832 H 0.70566 0.07549 0.45386 0.0
H833 H 0.70448 0.07449 0.50068 0.0
H834 H 0.66026 0.00679 0.56301 0.0
H835 H 0.68261 0.04687 0.54604 0.0
H836 H 0.6345 0.94439 0.3998 0.0
H837 H 0.65376 0.98449 0.38245 0.0
H838 H 0.60246 0.91574 0.44046 0.0
H839 H 0.60525 0.91138 0.48655 0.0
C840 C 0.67554 0.64718 0.97853 0.0
C841 C 0.66157 0.64885 0.01168 0.0
C842 C 0.6399 0.68028 -0.01806 0.0
C843 C 0.64196 0.66628 0.94901 0.0
N844 N 0.67391 0.64998 0.91325 0.0
N845 N 0.64366 0.67964 0.04718 0.0
C846 C 0.66414 0.65438 0.94637 0.0
C847 C 0.64827 0.66993 0.01415 0.0
N848 N 0.70016 0.64007 0.97815 0.0
N849 N 0.63135 0.70398 -0.01798 0.0
H850 H 0.65338 0.67548 0.07042 0.0
H851 H 0.63066 0.69178 0.05152 0.0
H852 H 0.6294 0.71468 0.95825 0.0
H853 H 0.63023 0.7159 0.00506 0.0
H854 H 0.71214 0.63935 0.95491 0.0
H855 H 0.71137 0.63893 0.00177 0.0
H856 H 0.68694 0.63787 0.90893 0.0
H857 H 0.66891 0.65899 0.8899 0.0
C858 C -0.0008 0.65366 0.50421 0.0
C859 C 0.00286 0.62913 0.52234 0.0
C860 C 0.96342 0.587 0.482 0.0
C861 C 0.9622 0.61183 0.46163 0.0
N862 N 0.98056 0.66895 0.45056 0.0
N863 N -0.00551 0.57402 0.52338 0.0
C864 C 0.98053 0.64529 0.47196 0.0
C865 C 0.98651 0.59618 0.50994 0.0
N866 N 0.01282 0.68455 0.51831 0.0
N867 N 0.94244 0.55454 0.47463 0.0
H868 H 0.01242 0.57996 0.5428 0.0
H869 H 0.98591 0.5507 0.51258 0.0
H870 H 0.9254 0.54669 0.45391 0.0
H871 H 0.93982 0.5354 0.49111 0.0
H872 H 0.00844 0.70268 0.50841 0.0
H873 H 0.02685 0.69139 0.54164 0.0
H874 H -0.00392 0.69406 0.45435 0.0
H875 H 0.96607 0.66328 0.42765 0.0
C876 C 0.65838 0.01104 0.94914 0.0
C877 C 0.63111 0.97868 0.95313 0.0
C878 C 0.63892 0.98361 0.01816 0.0
C879 C 0.65684 0.01814 0.01414 0.0
N880 N 0.69534 0.06349 0.97738 0.0
N881 N 0.59666 0.93291 -0.00679 0.0
C882 C 0.67072 0.03157 0.98003 0.0
C883 C 0.62239 0.96405 -0.01197 0.0
N884 N 0.67218 0.02166 0.91584 0.0
N885 N 0.63735 0.96989 0.05103 0.0
H886 H 0.58314 0.91711 0.97262 0.0
H887 H 0.58727 0.92334 0.01865 0.0
H888 H 0.65037 0.98435 0.07295 0.0
H889 H 0.62658 0.94461 0.05518 0.0
H890 H 0.69287 0.04439 0.91074 0.0
H891 H 0.66409 0.00627 0.89345 0.0
H892 H 0.70394 0.0763 0.95321 0.0
H893 H 0.70818 0.07679 -9e-05 0.0
C894 C 0.59302 0.59153 0.46434 0.0
C895 C 0.62401 0.61279 0.44848 0.0
C896 C 0.63509 0.65409 0.49493 0.0
C897 C 0.60295 0.63374 0.50861 0.0
N898 N 0.54879 0.58675 0.50132 0.0
N899 N 0.67372 0.66523 0.44583 0.0
C900 C 0.58117 0.6036 0.49171 0.0
C901 C 0.64494 0.64442 0.46298 0.0
N902 N 0.57534 0.55925 0.4542 0.0
N903 N 0.6562 0.68204 0.51294 0.0
H904 H 0.68166 0.6583 0.42299 0.0
H905 H 0.68874 0.68975 0.45292 0.0
H906 H 0.64913 0.68994 0.53571 0.0
H907 H 0.68094 0.69638 0.50655 0.0
H908 H 0.55436 0.54181 0.46775 0.0
H909 H 0.58329 0.54896 0.43462 0.0
H910 H 0.53115 0.56661 0.4871 0.0
H911 H 0.53889 0.59476 0.52128 0.0
C912 C -0.00731 0.59687 0.00735 0.0
C913 C 0.9773 0.61357 0.02193 0.0
C914 C -2e-05 0.65416 0.97291 0.0
C915 C 0.0173 0.63879 0.96029 0.0
N916 N 0.03558 0.59975 0.96926 0.0
N917 N 0.96891 0.65999 0.02181 0.0
C918 C 0.01549 0.6116 0.97888 0.0
C919 C 0.98163 0.64281 0.00561 0.0
N920 N 0.984 0.56593 0.01921 0.0
N921 N 0.00058 0.67903 0.95325 0.0
H922 H 0.95511 0.65202 0.04553 0.0
H923 H 0.97379 0.68311 0.01322 0.0
H924 H 0.01488 0.68858 0.93003 0.0
H925 H 0.98577 0.689 0.95878 0.0
H926 H -0.00823 0.5512 0.00678 0.0
H927 H 0.96626 0.55337 0.03903 0.0
H928 H 0.03786 0.58238 -0.01556 0.0
H929 H 0.05224 0.60937 0.94792 0.0
C930 C 0.32449 0.00334 0.512 0.0
C931 C 0.31118 0.96877 0.51004 0.0
C932 C 0.30747 0.97109 0.44485 0.0
C933 C 0.32923 0.00557 0.44658 0.0
N934 N 0.3405 0.05422 0.47938 0.0
N935 N 0.27217 0.92057 0.47792 0.0
C936 C 0.33197 0.02187 0.47949 0.0
C937 C 0.29668 0.95264 0.47742 0.0
N938 N 0.33 0.01802 0.54486 0.0
N939 N 0.29776 0.95636 0.4121 0.0
H940 H 0.26135 0.90828 0.50193 0.0
H941 H 0.25978 0.90761 0.45511 0.0
H942 H 0.30271 0.97013 0.38842 0.0
H943 H 0.28511 0.93101 0.4084 0.0
H944 H 0.34306 0.04335 0.54868 0.0
H945 H 0.32103 0.00424 0.56853 0.0
H946 H 0.34217 0.06746 0.50244 0.0
H947 H 0.34182 0.06668 0.45563 0.0
C948 C 0.33931 0.30597 0.97948 0.0
C949 C 0.33604 0.31979 0.01198 0.0
C950 C 0.30212 0.3375 0.98073 0.0
C951 C 0.3171 0.33617 0.94818 0.0
N952 N 0.33677 0.30615 0.91409 0.0
N953 N 0.30289 0.33565 0.04611 0.0
C954 C 0.3312 0.31576 0.9467 0.0
C955 C 0.31325 0.33098 0.01347 0.0
N956 N 0.3489 0.28305 0.98028 0.0
N957 N 0.27694 0.34376 0.97999 0.0
H958 H 0.30815 0.32752 0.06996 0.0
H959 H 0.28931 0.34729 0.04953 0.0
H960 H 0.26616 0.34457 0.95589 0.0
H961 H 0.2642 0.34407 0.00275 0.0
H962 H 0.35112 0.27142 0.95758 0.0
H963 H 0.35065 0.27264 0.00434 0.0
H964 H 0.35027 0.29445 0.91048 0.0
H965 H 0.32726 0.30988 0.89041 0.0
C966 C -0.00935 0.34104 0.49642 0.0
C967 C 0.0024 0.37248 0.51194 0.0
C968 C 0.97332 0.38603 0.4672 0.0
C969 C 0.96356 0.35569 0.44988 0.0
N970 N 0.96519 0.30552 0.44491 0.0
N971 N 0.01091 0.42751 0.50812 0.0
C972 C 0.97281 0.33341 0.46363 0.0
C973 C -0.00447 0.39576 0.49609 0.0
N974 N -0.00412 0.31837 0.51352 0.0
N975 N 0.96029 0.405 0.457 0.0
H976 H 0.02747 0.43577 0.52933 0.0
H977 H 0.00968 0.44642 0.49496 0.0
H978 H 0.94342 0.39859 0.43625 0.0
H979 H 0.96369 0.42547 0.47133 0.0
H980 H 0.98519 0.29389 0.50575 0.0
H981 H 0.00964 0.32373 0.53698 0.0
H982 H 0.97393 0.28983 0.45146 0.0
H983 H 0.95161 0.29911 0.42126 0.0
C984 C 0.51852 0.0844 0.0273 0.0
C985 C 0.51018 0.09849 0.05613 0.0
C986 C 0.56526 0.12096 0.08079 0.0
C987 C 0.57068 0.10089 0.05667 0.0
N988 N 0.55508 0.06631 0.00447 0.0
N989 N 0.52553 0.13191 0.1095 0.0
C990 C 0.54831 0.08396 0.02865 0.0
C991 C 0.53388 0.11814 0.08209 0.0
N992 N 0.49759 0.07123 -0.00099 0.0
N993 N 0.58982 0.14188 0.10305 0.0
H994 H 0.50312 0.13107 0.11079 0.0
H995 H 0.54012 0.14296 0.13183 0.0
H996 H 0.6128 0.14391 0.10293 0.0
H997 H 0.58853 0.15921 0.11925 0.0
H998 H 0.50286 0.06242 0.97578 0.0
H999 H 0.47582 0.07175 -0.00237 0.0
H1000 H 0.53841 0.05025 -0.01418 0.0
H1001 H 0.57757 0.06719 0.00385 0.0
C1002 C 0.44515 0.55948 0.5409 0.0
C1003 C 0.45387 0.5773 0.57354 0.0
C1004 C 0.40212 0.53684 0.60145 0.0
C1005 C 0.39572 0.51668 0.57075 0.0
N1006 N 0.40506 0.51101 0.50836 0.0
N1007 N 0.43808 0.58923 0.6304 0.0
C1008 C 0.41518 0.52902 0.53926 0.0
C1009 C 0.43117 0.56814 0.60225 0.0
N1010 N 0.46637 0.57125 0.51236 0.0
N1011 N 0.38141 0.52497 0.63047 0.0
H1012 H 0.45934 0.61226 0.63099 0.0
H1013 H 0.4221 0.58525 0.65166 0.0
H1014 H 0.3594 0.50263 0.62987 0.0
H1015 H 0.38599 0.53667 0.65523 0.0
H1016 H 0.46342 0.55854 0.48854 0.0
H1017 H 0.4874 0.59446 0.51272 0.0
H1018 H 0.41721 0.5186 0.48375 0.0
H1019 H 0.38289 0.48885 0.50702 0.0
C1020 C 0.89666 0.42504 0.06039 0.0
C1021 C 0.88976 0.4052 0.09161 0.0
C1022 C 0.87815 0.44245 0.12614 0.0
C1023 C 0.88787 0.4638 0.09589 0.0
N1024 N 0.89823 0.47254 0.03217 0.0
N1025 N 0.86544 0.38923 0.1505 0.0
C1026 C 0.89408 0.45388 0.06215 0.0
C1027 C 0.87748 0.41199 0.12328 0.0
N1028 N 0.90753 0.41725 0.02988 0.0
N1029 N 0.87096 0.45214 0.15789 0.0
H1030 H 0.86461 0.36668 0.14865 0.0
H1031 H 0.85394 0.3913 0.17346 0.0
H1032 H 0.86958 0.47353 0.16001 0.0
H1033 H 0.8673 0.43974 0.18222 0.0
H1034 H 0.91666 0.43246 0.00735 0.0
H1035 H 0.90844 0.39563 0.02755 0.0
H1036 H 0.90042 0.46565 0.0062 0.0
H1037 H 0.89699 0.49404 0.03295 0.0
C1038 C 0.4101 0.87318 0.5818 0.0
C1039 C 0.40355 0.89094 0.55546 0.0
C1040 C 0.45615 0.90831 0.52595 0.0
C1041 C 0.46425 0.89373 0.55453 0.0
N1042 N 0.44643 0.85437 0.60316 0.0
N1043 N 0.41484 0.91691 0.49739 0.0
C1044 C 0.44014 0.87312 0.58005 0.0
C1045 C 0.42479 0.9055 0.52561 0.0
N1046 N 0.38869 0.85851 0.60985 0.0
N1047 N 0.47914 0.92597 0.50014 0.0
H1048 H 0.39172 0.91463 0.49684 0.0
H1049 H 0.42804 0.92612 0.47356 0.0
H1050 H 0.5015 0.92662 0.49879 0.0
H1051 H 0.47656 0.94039 0.48065 0.0
H1052 H 0.39366 0.84871 0.63244 0.0
H1053 H 0.36605 0.85721 0.6112 0.0
H1054 H 0.42905 0.83681 0.62052 0.0
H1055 H 0.46842 0.85432 0.60288 0.0
C1056 C 0.54196 0.47373 0.0331 0.0
C1057 C 0.5657 0.47909 0.05942 0.0
C1058 C 0.52997 0.42421 0.08497 0.0
C1059 C 0.50534 0.41979 0.0602 0.0
N1060 N 0.49041 0.43527 0.00495 0.0
N1061 N 0.58659 0.45689 0.10354 0.0
C1062 C 0.51231 0.44295 0.03221 0.0
C1063 C 0.56123 0.45325 0.08279 0.0
N1064 N 0.54742 0.49862 0.0099 0.0
N1065 N 0.52271 0.40199 0.11229 0.0
H1066 H 0.60948 0.47822 0.10333 0.0
H1067 H 0.58597 0.43789 0.11857 0.0
H1068 H 0.50036 0.38017 0.11457 0.0
H1069 H 0.53807 0.40588 0.13394 0.0
H1070 H 0.52974 0.49803 -0.00709 0.0
H1071 H 0.56977 0.52062 0.00853 0.0
H1072 H 0.49477 0.44985 -0.01783 0.0
H1073 H 0.46874 0.41261 0.00372 0.0
C1074 C 0.09786 0.52973 0.63542 0.0
C1075 C 0.09108 0.51235 0.6026 0.0
C1076 C 0.09238 0.55864 0.57059 0.0
C1077 C 0.09269 0.57287 0.6043 0.0
N1078 N 0.09914 0.57483 0.66858 0.0
N1079 N 0.08349 0.51 0.53837 0.0
C1080 C 0.09702 0.5595 0.63666 0.0
C1081 C 0.08969 0.52712 0.56981 0.0
N1082 N 0.10501 0.5175 0.66522 0.0
N1083 N 0.09384 0.5749 0.53947 0.0
H1084 H 0.08264 0.48748 0.53659 0.0
H1085 H 0.07781 0.51723 0.5143 0.0
H1086 H 0.0949 0.59756 0.53913 0.0
H1087 H 0.0967 0.56742 0.51405 0.0
H1088 H 0.11244 0.5298 0.68962 0.0
H1089 H 0.10607 0.49587 0.66455 0.0
H1090 H 0.09854 0.56474 0.69371 0.0
H1091 H 0.1007 0.59775 0.66986 0.0
C1092 C 0.87292 0.45426 0.4051 0.0
C1093 C 0.87218 0.46933 0.37233 0.0
C1094 C 0.86358 0.42084 0.33888 0.0
C1095 C 0.87116 0.40916 0.3704 0.0
N1096 N 0.88116 0.41272 0.43418 0.0
N1097 N 0.86329 0.4665 0.30847 0.0
C1098 C 0.87438 0.42479 0.40397 0.0
C1099 C 0.8658 0.45212 0.33937 0.0
N1100 N 0.87305 0.46864 0.43706 0.0
N1101 N 0.8546 0.40193 0.3086 0.0
H1102 H 0.863 0.48854 0.30858 0.0
H1103 H 0.86234 0.45727 0.28281 0.0
H1104 H 0.85261 0.37879 0.30811 0.0
H1105 H 0.8466 0.40766 0.28513 0.0
H1106 H 0.87098 0.45774 0.46207 0.0
H1107 H 0.87241 0.49044 0.43849 0.0
H1108 H 0.88793 0.42506 0.45861 0.0
H1109 H 0.88132 0.39064 0.43445 0.0
C1110 C 0.44384 0.88092 0.87124 0.0
C1111 C 0.468 0.90053 0.89675 0.0
C1112 C 0.43102 0.91631 0.92468 0.0
C1113 C 0.40823 0.89954 0.89695 0.0
N1114 N 0.38797 0.85842 0.85059 0.0
N1115 N 0.48195 0.92849 0.95344 0.0
C1116 C 0.41286 0.87898 0.87272 0.0
C1117 C 0.4605 0.91527 0.92559 0.0
N1118 N 0.45143 0.86622 0.84415 0.0
N1119 N 0.42489 0.93431 0.94905 0.0
H1120 H 0.5035 0.92753 0.95447 0.0
H1121 H 0.47736 0.93785 0.97667 0.0
H1122 H 0.40262 0.93386 0.95004 0.0
H1123 H 0.44187 0.95021 0.96757 0.0
H1124 H 0.43662 0.85509 0.822 0.0
H1125 H 0.47344 0.86622 0.84313 0.0
H1126 H 0.38869 0.84084 0.8343 0.0
H1127 H 0.36528 0.85704 0.8507 0.0
C1128 C 0.53065 0.40837 0.36601 0.0
C1129 C 0.50933 0.40441 0.39494 0.0
C1130 C 0.55172 0.45544 0.42196 0.0
C1131 C 0.56963 0.46279 0.38931 0.0
N1132 N 0.57957 0.44592 0.33194 0.0
N1133 N 0.49998 0.42074 0.45289 0.0
C1134 C 0.56052 0.43874 0.36215 0.0
C1135 C 0.52036 0.42661 0.42415 0.0
N1136 N 0.52166 0.38345 0.34189 0.0
N1137 N 0.56459 0.47656 0.45025 0.0
H1138 H 0.47759 0.39891 0.45555 0.0
H1139 H 0.50471 0.43741 0.47355 0.0
H1140 H 0.58773 0.4976 0.4489 0.0
H1141 H 0.55382 0.47214 0.47567 0.0
H1142 H 0.53665 0.38373 0.32115 0.0
H1143 H 0.49986 0.36107 0.34453 0.0
H1144 H 0.57289 0.43118 0.30918 0.0
H1145 H 0.60217 0.46752 0.32945 0.0
C1146 C 0.10362 0.53903 0.83594 0.0
C1147 C 0.09829 0.52211 0.86908 0.0
C1148 C 0.10042 0.56854 0.90126 0.0
C1149 C 0.0993 0.58234 0.86763 0.0
N1150 N 0.10312 0.58346 0.80299 0.0
N1151 N 0.09329 0.52037 0.93362 0.0
C1152 C 0.10244 0.56863 0.83493 0.0
C1153 C 0.09801 0.53714 0.90198 0.0
N1154 N 0.10967 0.5265 0.8056 0.0
N1155 N 0.10305 0.58512 0.93237 0.0
H1156 H 0.09264 0.49789 0.93507 0.0
H1157 H 0.08868 0.52782 0.95822 0.0
H1158 H 0.10421 0.60782 0.93284 0.0
H1159 H 0.10677 0.57786 0.95753 0.0
H1160 H 0.11604 0.53849 0.7808 0.0
H1161 H 0.1109 0.50496 0.80604 0.0
H1162 H 0.10157 0.57305 0.77788 0.0
H1163 H 0.10442 0.60626 0.80169 0.0
C1164 C 0.55535 0.1091 0.37512 0.0
C1165 C 0.56018 0.08744 0.3974 0.0
C1166 C 0.50629 0.06738 0.42518 0.0
C1167 C 0.49905 0.08382 0.39799 0.0
N1168 N 0.51635 0.12134 0.34744 0.0
N1169 N 0.54242 0.0482 0.44603 0.0
C1170 C 0.52376 0.10574 0.37367 0.0
C1171 C 0.53644 0.06763 0.42363 0.0
N1172 N 0.58069 0.13221 0.35473 0.0
N1173 N 0.48414 0.05155 0.45229 0.0
H1174 H 0.5651 0.04951 0.44688 0.0
H1175 H 0.5249 0.0302 0.4629 0.0
H1176 H 0.4621 0.05154 0.45397 0.0
H1177 H 0.48857 0.04096 0.47456 0.0
H1178 H 0.57973 0.15077 0.34047 0.0
H1179 H 0.60384 0.13467 0.3545 0.0
H1180 H 0.53182 0.13409 0.32596 0.0
H1181 H 0.49384 0.12023 0.34601 0.0
C1182 C 0.46646 0.54222 0.92843 0.0
C1183 C 0.47248 0.56623 0.90179 0.0
C1184 C 0.41653 0.53236 0.87944 0.0
C1185 C 0.41297 0.50602 0.90139 0.0
N1186 N 0.43253 0.48574 0.94896 0.0
N1187 N 0.45379 0.58518 0.8519 0.0
C1188 C 0.43721 0.51111 0.92697 0.0
C1189 C 0.44736 0.562 0.87788 0.0
N1190 N 0.48889 0.54943 0.95503 0.0
N1191 N 0.39076 0.52874 0.85948 0.0
H1192 H 0.47576 0.60747 0.85031 0.0
H1193 H 0.43815 0.58174 0.83067 0.0
H1194 H 0.3682 0.50705 0.85906 0.0
H1195 H 0.3907 0.54799 0.84568 0.0
H1196 H 0.48526 0.53414 0.97697 0.0
H1197 H 0.51028 0.57227 0.95668 0.0
H1198 H 0.45059 0.48621 0.96522 0.0
H1199 H 0.41043 0.46347 0.95011 0.0
loop_
_geom_bond_atom_site_label_1
_geom_bond_atom_site_label_2
_geom_bond_distance
_geom_bond_site_symmetry_2
_ccdc_geom_bond_type
Zn0 O3 2.031 . S
Zn0 O5 2.049 . S
Zn0 O10 2.067 . S
Zn1 O2 1.962 . S
Zn1 O4 1.986 . S
Zn1 O6 1.996 . S
Zn1 O9 1.943 . S
O2 Zn1 1.962 . S
O2 C7 1.254 . S
O3 Zn0 2.031 . S
O3 C7 1.269 . S
O4 Zn1 1.986 . S
O4 C11 1.262 . S
O5 Zn0 2.049 . S
O5 C13 1.260 . S
O6 Zn1 1.996 . S
O6 C13 1.257 . S
C7 O2 1.254 . S
C7 O3 1.269 . S
C8 O9 1.249 . S
C8 O10 1.270 . S
O9 Zn1 1.943 . S
O9 C8 1.249 . S
O10 Zn0 2.067 . S
O10 C8 1.270 . S
C11 O4 1.262 . S
C11 O12 1.232 . S
O12 C11 1.232 . S
C13 O5 1.260 . S
C13 O6 1.257 . S
Zn14 O17 2.031 . S
Zn14 O19 2.049 . S
Zn14 O24 2.067 . S
Zn15 O16 1.962 . S
Zn15 O18 1.986 . S
Zn15 O20 1.996 . S
Zn15 O23 1.943 . S
O16 Zn15 1.962 . S
O16 C21 1.254 . S
O17 Zn14 2.031 . S
O17 C21 1.269 . S
O18 Zn15 1.986 . S
O18 C25 1.262 . S
O19 Zn14 2.049 . S
O19 C27 1.260 . S
O20 Zn15 1.996 . S
O20 C27 1.257 . S
C21 O16 1.254 . S
C21 O17 1.269 . S
C22 O23 1.249 . S
C22 O24 1.270 . S
O23 Zn15 1.943 . S
O23 C22 1.249 . S
O24 Zn14 2.067 . S
O24 C22 1.270 . S
C25 O18 1.262 . S
C25 O26 1.232 . S
O26 C25 1.232 . S
C27 O19 1.260 . S
C27 O20 1.257 . S
Zn28 O31 2.031 . S
Zn28 O33 2.049 . S
Zn28 O38 2.067 . S
Zn29 O30 1.962 . S
Zn29 O32 1.986 . S
Zn29 O34 1.996 . S
Zn29 O37 1.943 . S
O30 Zn29 1.962 . S
O30 C35 1.254 . S
O31 Zn28 2.031 . S
O31 C35 1.269 . S
O32 Zn29 1.986 . S
O32 C39 1.262 . S
O33 Zn28 2.049 . S
O33 C41 1.260 . S
O34 Zn29 1.996 . S
O34 C41 1.257 . S
C35 O30 1.254 . S
C35 O31 1.269 . S
C36 O37 1.249 . S
C36 O38 1.270 . S
O37 Zn29 1.943 . S
O37 C36 1.249 . S
O38 Zn28 2.067 . S
O38 C36 1.270 . S
C39 O32 1.262 . S
C39 O40 1.232 . S
O40 C39 1.232 . S
C41 O33 1.260 . S
C41 O34 1.257 . S
Zn42 O45 2.031 . S
Zn42 O47 2.049 . S
Zn42 O52 2.067 . S
Zn43 O44 1.962 . S
Zn43 O46 1.986 . S
Zn43 O48 1.996 . S
Zn43 O51 1.943 . S
O44 Zn43 1.962 . S
O44 C49 1.254 . S
O45 Zn42 2.031 . S
O45 C49 1.269 . S
O46 Zn43 1.986 . S
O46 C53 1.262 . S
O47 Zn42 2.049 . S
O47 C55 1.260 . S
O48 Zn43 1.996 . S
O48 C55 1.257 . S
C49 O44 1.254 . S
C49 O45 1.269 . S
C50 O51 1.249 . S
C50 O52 1.270 . S
O51 Zn43 1.943 . S
O51 C50 1.249 . S
O52 Zn42 2.067 . S
O52 C50 1.270 . S
C53 O46 1.262 . S
C53 O54 1.232 . S
O54 C53 1.232 . S
C55 O47 1.260 . S
C55 O48 1.257 . S
Zn56 O59 2.031 . S
Zn56 O61 2.049 . S
Zn56 O66 2.067 . S
Zn57 O58 1.962 . S
Zn57 O60 1.986 . S
Zn57 O62 1.996 . S
Zn57 O65 1.943 . S
O58 Zn57 1.962 . S
O58 C63 1.254 . S
O59 Zn56 2.031 . S
O59 C63 1.269 . S
O60 Zn57 1.986 . S
O60 C67 1.262 . S
O61 Zn56 2.049 . S
O61 C69 1.260 . S
O62 Zn57 1.996 . S
O62 C69 1.257 . S
C63 O58 1.254 . S
C63 O59 1.269 . S
C64 O65 1.249 . S
C64 O66 1.270 . S
O65 Zn57 1.943 . S
O65 C64 1.249 . S
O66 Zn56 2.067 . S
O66 C64 1.270 . S
C67 O60 1.262 . S
C67 O68 1.232 . S
O68 C67 1.232 . S
C69 O61 1.260 . S
C69 O62 1.257 . S
Zn70 O73 2.031 . S
Zn70 O75 2.049 . S
Zn70 O80 2.067 . S
Zn71 O72 1.962 . S
Zn71 O74 1.986 . S
Zn71 O76 1.996 . S
Zn71 O79 1.943 . S
O72 Zn71 1.962 . S
O72 C77 1.254 . S
O73 Zn70 2.031 . S
O73 C77 1.269 . S
O74 Zn71 1.986 . S
O74 C81 1.262 . S
O75 Zn70 2.049 . S
O75 C83 1.260 . S
O76 Zn71 1.996 . S
O76 C83 1.257 . S
C77 O72 1.254 . S
C77 O73 1.269 . S
C78 O79 1.249 . S
C78 O80 1.270 . S
O79 Zn71 1.943 . S
O79 C78 1.249 . S
O80 Zn70 2.067 . S
O80 C78 1.270 . S
C81 O74 1.262 . S
C81 O82 1.232 . S
O82 C81 1.232 . S
C83 O75 1.260 . S
C83 O76 1.257 . S
Zn84 O87 2.031 . S
Zn84 O89 2.049 . S
Zn84 O94 2.067 . S
Zn85 O86 1.962 . S
Zn85 O88 1.986 . S
Zn85 O90 1.996 . S
Zn85 O93 1.943 . S
O86 Zn85 1.962 . S
O86 C91 1.254 . S
O87 Zn84 2.031 . S
O87 C91 1.269 . S
O88 Zn85 1.986 . S
O88 C95 1.262 . S
O89 Zn84 2.049 . S
O89 C97 1.260 . S
O90 Zn85 1.996 . S
O90 C97 1.257 . S
C91 O86 1.254 . S
C91 O87 1.269 . S
C92 O93 1.249 . S
C92 O94 1.270 . S
O93 Zn85 1.943 . S
O93 C92 1.249 . S
O94 Zn84 2.067 . S
O94 C92 1.270 . S
C95 O88 1.262 . S
C95 O96 1.232 . S
O96 C95 1.232 . S
C97 O89 1.260 . S
C97 O90 1.257 . S
Zn98 O101 2.031 . S
Zn98 O103 2.049 . S
Zn98 O108 2.067 . S
Zn99 O100 1.962 . S
Zn99 O102 1.986 . S
Zn99 O104 1.996 . S
Zn99 O107 1.943 . S
O100 Zn99 1.962 . S
O100 C105 1.254 . S
O101 Zn98 2.031 . S
O101 C105 1.269 . S
O102 Zn99 1.986 . S
O102 C109 1.262 . S
O103 Zn98 2.049 . S
O103 C111 1.260 . S
O104 Zn99 1.996 . S
O104 C111 1.257 . S
C105 O100 1.254 . S
C105 O101 1.269 . S
C106 O107 1.249 . S
C106 O108 1.270 . S
O107 Zn99 1.943 . S
O107 C106 1.249 . S
O108 Zn98 2.067 . S
O108 C106 1.270 . S
C109 O102 1.262 . S
C109 O110 1.232 . S
O110 C109 1.232 . S
C111 O103 1.260 . S
C111 O104 1.257 . S
Zn112 O115 2.031 . S
Zn112 O117 2.049 . S
Zn112 O122 2.067 . S
Zn113 O114 1.962 . S
Zn113 O116 1.986 . S
Zn113 O118 1.996 . S
Zn113 O121 1.943 . S
O114 Zn113 1.962 . S
O114 C119 1.254 . S
O115 Zn112 2.031 . S
O115 C119 1.269 . S
O116 Zn113 1.986 . S
O116 C123 1.262 . S
O117 Zn112 2.049 . S
O117 C125 1.260 . S
O118 Zn113 1.996 . S
O118 C125 1.257 . S
C119 O114 1.254 . S
C119 O115 1.269 . S
C120 O121 1.249 . S
C120 O122 1.270 . S
O121 Zn113 1.943 . S
O121 C120 1.249 . S
O122 Zn112 2.067 . S
O122 C120 1.270 . S
C123 O116 1.262 . S
C123 O124 1.232 . S
O124 C123 1.232 . S
C125 O117 1.260 . S
C125 O118 1.257 . S
Zn126 O129 2.031 . S
Zn126 O131 2.049 . S
Zn126 O136 2.067 . S
Zn127 O128 1.962 . S
Zn127 O130 1.986 . S
Zn127 O132 1.996 . S
Zn127 O135 1.943 . S
O128 Zn127 1.962 . S
O128 C133 1.254 . S
O129 Zn126 2.031 . S
O129 C133 1.269 . S
O130 Zn127 1.986 . S
O130 C137 1.262 . S
O131 Zn126 2.049 . S
O131 C139 1.260 . S
O132 Zn127 1.996 . S
O132 C139 1.257 . S
C133 O128 1.254 . S
C133 O129 1.269 . S
C134 O135 1.249 . S
C134 O136 1.270 . S
O135 Zn127 1.943 . S
O135 C134 1.249 . S
O136 Zn126 2.067 . S
O136 C134 1.270 . S
C137 O130 1.262 . S
C137 O138 1.232 . S
O138 C137 1.232 . S
C139 O131 1.260 . S
C139 O132 1.257 . S
Zn140 O143 2.031 . S
Zn140 O145 2.049 . S
Zn140 O150 2.067 . S
Zn141 O142 1.962 . S
Zn141 O144 1.986 . S
Zn141 O146 1.996 . S
Zn141 O149 1.943 . S
O142 Zn141 1.962 . S
O142 C147 1.254 . S
O143 Zn140 2.031 . S
O143 C147 1.269 . S
O144 Zn141 1.986 . S
O144 C151 1.262 . S
O145 Zn140 2.049 . S
O145 C153 1.260 . S
O146 Zn141 1.996 . S
O146 C153 1.257 . S
C147 O142 1.254 . S
C147 O143 1.269 . S
C148 O149 1.249 . S
C148 O150 1.270 . S
O149 Zn141 1.943 . S
O149 C148 1.249 . S
O150 Zn140 2.067 . S
O150 C148 1.270 . S
C151 O144 1.262 . S
C151 O152 1.232 . S
O152 C151 1.232 . S
C153 O145 1.260 . S
C153 O146 1.257 . S
Zn154 O157 2.031 . S
Zn154 O159 2.049 . S
Zn154 O164 2.067 . S
Zn155 O156 1.962 . S
Zn155 O158 1.986 . S
Zn155 O160 1.996 . S
Zn155 O163 1.943 . S
O156 Zn155 1.962 . S
O156 C161 1.254 . S
O157 Zn154 2.031 . S
O157 C161 1.269 . S
O158 Zn155 1.986 . S
O158 C165 1.262 . S
O159 Zn154 2.049 . S
O159 C167 1.260 . S
O160 Zn155 1.996 . S
O160 C167 1.257 . S
C161 O156 1.254 . S
C161 O157 1.269 . S
C162 O163 1.249 . S
C162 O164 1.270 . S
O163 Zn155 1.943 . S
O163 C162 1.249 . S
O164 Zn154 2.067 . S
O164 C162 1.270 . S
C165 O158 1.262 . S
C165 O166 1.232 . S
O166 C165 1.232 . S
C167 O159 1.260 . S
C167 O160 1.257 . S
Zn168 O171 2.031 . S
Zn168 O173 2.049 . S
Zn168 O178 2.067 . S
Zn169 O170 1.962 . S
Zn169 O172 1.986 . S
Zn169 O174 1.996 . S
Zn169 O177 1.943 . S
O170 Zn169 1.962 . S
O170 C175 1.254 . S
O171 Zn168 2.031 . S
O171 C175 1.269 . S
O172 Zn169 1.986 . S
O172 C179 1.262 . S
O173 Zn168 2.049 . S
O173 C181 1.260 . S
O174 Zn169 1.996 . S
O174 C181 1.257 . S
C175 O170 1.254 . S
C175 O171 1.269 . S
C176 O177 1.249 . S
C176 O178 1.270 . S
O177 Zn169 1.943 . S
O177 C176 1.249 . S
O178 Zn168 2.067 . S
O178 C176 1.270 . S
C179 O172 1.262 . S
C179 O180 1.232 . S
O180 C179 1.232 . S
C181 O173 1.260 . S
C181 O174 1.257 . S
Zn182 O185 2.031 . S
Zn182 O187 2.049 . S
Zn182 O192 2.067 . S
Zn183 O184 1.962 . S
Zn183 O186 1.986 . S
Zn183 O188 1.996 . S
Zn183 O191 1.943 . S
O184 Zn183 1.962 . S
O184 C189 1.254 . S
O185 Zn182 2.031 . S
O185 C189 1.269 . S
O186 Zn183 1.986 . S
O186 C193 1.262 . S
O187 Zn182 2.049 . S
O187 C195 1.260 . S
O188 Zn183 1.996 . S
O188 C195 1.257 . S
C189 O184 1.254 . S
C189 O185 1.269 . S
C190 O191 1.249 . S
C190 O192 1.270 . S
O191 Zn183 1.943 . S
O191 C190 1.249 . S
O192 Zn182 2.067 . S
O192 C190 1.270 . S
C193 O186 1.262 . S
C193 O194 1.232 . S
O194 C193 1.232 . S
C195 O187 1.260 . S
C195 O188 1.257 . S
Zn196 O199 2.031 . S
Zn196 O201 2.049 . S
Zn196 O206 2.067 . S
Zn197 O198 1.962 . S
Zn197 O200 1.986 . S
Zn197 O202 1.996 . S
Zn197 O205 1.943 . S
O198 Zn197 1.962 . S
O198 C203 1.254 . S
O199 Zn196 2.031 . S
O199 C203 1.269 . S
O200 Zn197 1.986 . S
O200 C207 1.262 . S
O201 Zn196 2.049 . S
O201 C209 1.260 . S
O202 Zn197 1.996 . S
O202 C209 1.257 . S
C203 O198 1.254 . S
C203 O199 1.269 . S
C204 O205 1.249 . S
C204 O206 1.270 . S
O205 Zn197 1.943 . S
O205 C204 1.249 . S
O206 Zn196 2.067 . S
O206 C204 1.270 . S
C207 O200 1.262 . S
C207 O208 1.232 . S
O208 C207 1.232 . S
C209 O201 1.260 . S
C209 O202 1.257 . S
Zn210 O213 2.031 . S
Zn210 O215 2.049 . S
Zn210 O220 2.067 . S
Zn211 O212 1.962 . S
Zn211 O214 1.986 . S
Zn211 O216 1.996 . S
Zn211 O219 1.943 . S
O212 Zn211 1.962 . S
O212 C217 1.254 . S
O213 Zn210 2.031 . S
O213 C217 1.269 . S
O214 Zn211 1.986 . S
O214 C221 1.262 . S
O215 Zn210 2.049 . S
O215 C223 1.260 . S
O216 Zn211 1.996 . S
O216 C223 1.257 . S
C217 O212 1.254 . S
C217 O213 1.269 . S
C218 O219 1.249 . S
C218 O220 1.270 . S
O219 Zn211 1.943 . S
O219 C218 1.249 . S
O220 Zn210 2.067 . S
O220 C218 1.270 . S
C221 O214 1.262 . S
C221 O222 1.232 . S
O222 C221 1.232 . S
C223 O215 1.260 . S
C223 O216 1.257 . S
Zn224 O227 2.031 . S
Zn224 O229 2.049 . S
Zn224 O234 2.067 . S
Zn225 O226 1.962 . S
Zn225 O228 1.986 . S
Zn225 O230 1.996 . S
Zn225 O233 1.943 . S
O226 Zn225 1.962 . S
O226 C231 1.254 . S
O227 Zn224 2.031 . S
O227 C231 1.269 . S
O228 Zn225 1.986 . S
O228 C235 1.262 . S
O229 Zn224 2.049 . S
O229 C237 1.260 . S
O230 Zn225 1.996 . S
O230 C237 1.257 . S
C231 O226 1.254 . S
C231 O227 1.269 . S
C232 O233 1.249 . S
C232 O234 1.270 . S
O233 Zn225 1.943 . S
O233 C232 1.249 . S
O234 Zn224 2.067 . S
O234 C232 1.270 . S
C235 O228 1.262 . S
C235 O236 1.232 . S
O236 C235 1.232 . S
C237 O229 1.260 . S
C237 O230 1.257 . S
Zn238 O241 2.031 . S
Zn238 O243 2.049 . S
Zn238 O248 2.067 . S
Zn239 O240 1.962 . S
Zn239 O242 1.986 . S
Zn239 O244 1.996 . S
Zn239 O247 1.943 . S
O240 Zn239 1.962 . S
O240 C245 1.254 . S
O241 Zn238 2.031 . S
O241 C245 1.269 . S
O242 Zn239 1.986 . S
O242 C249 1.262 . S
O243 Zn238 2.049 . S
O243 C251 1.260 . S
O244 Zn239 1.996 . S
O244 C251 1.257 . S
C245 O240 1.254 . S
C245 O241 1.269 . S
C246 O247 1.249 . S
C246 O248 1.270 . S
O247 Zn239 1.943 . S
O247 C246 1.249 . S
O248 Zn238 2.067 . S
O248 C246 1.270 . S
C249 O242 1.262 . S
C249 O250 1.232 . S
O250 C249 1.232 . S
C251 O243 1.260 . S
C251 O244 1.257 . S
Zn252 O255 2.031 . S
Zn252 O257 2.049 . S
Zn252 O262 2.067 . S
Zn253 O254 1.962 . S
Zn253 O256 1.986 . S
Zn253 O258 1.996 . S
Zn253 O261 1.943 . S
O254 Zn253 1.962 . S
O254 C259 1.254 . S
O255 Zn252 2.031 . S
O255 C259 1.269 . S
O256 Zn253 1.986 . S
O256 C263 1.262 . S
O257 Zn252 2.049 . S
O257 C265 1.260 . S
O258 Zn253 1.996 . S
O258 C265 1.257 . S
C259 O254 1.254 . S
C259 O255 1.269 . S
C260 O261 1.249 . S
C260 O262 1.270 . S
O261 Zn253 1.943 . S
O261 C260 1.249 . S
O262 Zn252 2.067 . S
O262 C260 1.270 . S
C263 O256 1.262 . S
C263 O264 1.232 . S
O264 C263 1.232 . S
C265 O257 1.260 . S
C265 O258 1.257 . S
Zn266 O269 2.031 . S
Zn266 O271 2.049 . S
Zn266 O276 2.067 . S
Zn267 O268 1.962 . S
Zn267 O270 1.986 . S
Zn267 O272 1.996 . S
Zn267 O275 1.943 . S
O268 Zn267 1.962 . S
O268 C273 1.254 . S
O269 Zn266 2.031 . S
O269 C273 1.269 . S
O270 Zn267 1.986 . S
O270 C277 1.262 . S
O271 Zn266 2.049 . S
O271 C279 1.260 . S
O272 Zn267 1.996 . S
O272 C279 1.257 . S
C273 O268 1.254 . S
C273 O269 1.269 . S
C274 O275 1.249 . S
C274 O276 1.270 . S
O275 Zn267 1.943 . S
O275 C274 1.249 . S
O276 Zn266 2.067 . S
O276 C274 1.270 . S
C277 O270 1.262 . S
C277 O278 1.232 . S
O278 C277 1.232 . S
C279 O271 1.260 . S
C279 O272 1.257 . S
Zn280 O283 2.031 . S
Zn280 O285 2.049 . S
Zn280 O290 2.067 . S
Zn281 O282 1.962 . S
Zn281 O284 1.986 . S
Zn281 O286 1.996 . S
Zn281 O289 1.943 . S
O282 Zn281 1.962 . S
O282 C287 1.254 . S
O283 Zn280 2.031 . S
O283 C287 1.269 . S
O284 Zn281 1.986 . S
O284 C291 1.262 . S
O285 Zn280 2.049 . S
O285 C293 1.260 . S
O286 Zn281 1.996 . S
O286 C293 1.257 . S
C287 O282 1.254 . S
C287 O283 1.269 . S
C288 O289 1.249 . S
C288 O290 1.270 . S
O289 Zn281 1.943 . S
O289 C288 1.249 . S
O290 Zn280 2.067 . S
O290 C288 1.270 . S
C291 O284 1.262 . S
C291 O292 1.232 . S
O292 C291 1.232 . S
C293 O285 1.260 . S
C293 O286 1.257 . S
Zn294 O297 2.031 . S
Zn294 O299 2.049 . S
Zn294 O304 2.067 . S
Zn295 O296 1.962 . S
Zn295 O298 1.986 . S
Zn295 O300 1.996 . S
Zn295 O303 1.943 . S
O296 Zn295 1.962 . S
O296 C301 1.254 . S
O297 Zn294 2.031 . S
O297 C301 1.269 . S
O298 Zn295 1.986 . S
O298 C305 1.262 . S
O299 Zn294 2.049 . S
O299 C307 1.260 . S
O300 Zn295 1.996 . S
O300 C307 1.257 . S
C301 O296 1.254 . S
C301 O297 1.269 . S
C302 O303 1.249 . S
C302 O304 1.270 . S
O303 Zn295 1.943 . S
O303 C302 1.249 . S
O304 Zn294 2.067 . S
O304 C302 1.270 . S
C305 O298 1.262 . S
C305 O306 1.232 . S
O306 C305 1.232 . S
C307 O299 1.260 . S
C307 O300 1.257 . S
Zn308 O311 2.031 . S
Zn308 O313 2.049 . S
Zn308 O318 2.067 . S
Zn309 O310 1.962 . S
Zn309 O312 1.986 . S
Zn309 O314 1.996 . S
Zn309 O317 1.943 . S
O310 Zn309 1.962 . S
O310 C315 1.254 . S
O311 Zn308 2.031 . S
O311 C315 1.269 . S
O312 Zn309 1.986 . S
O312 C319 1.262 . S
O313 Zn308 2.049 . S
O313 C321 1.260 . S
O314 Zn309 1.996 . S
O314 C321 1.257 . S
C315 O310 1.254 . S
C315 O311 1.269 . S
C316 O317 1.249 . S
C316 O318 1.270 . S
O317 Zn309 1.943 . S
O317 C316 1.249 . S
O318 Zn308 2.067 . S
O318 C316 1.270 . S
C319 O312 1.262 . S
C319 O320 1.232 . S
O320 C319 1.232 . S
C321 O313 1.260 . S
C321 O314 1.257 . S
Zn322 O325 2.031 . S
Zn322 O327 2.049 . S
Zn322 O332 2.067 . S
Zn323 O324 1.962 . S
Zn323 O326 1.986 . S
Zn323 O328 1.996 . S
Zn323 O331 1.943 . S
O324 Zn323 1.962 . S
O324 C329 1.254 . S
O325 Zn322 2.031 . S
O325 C329 1.269 . S
O326 Zn323 1.986 . S
O326 C333 1.262 . S
O327 Zn322 2.049 . S
O327 C335 1.260 . S
O328 Zn323 1.996 . S
O328 C335 1.257 . S
C329 O324 1.254 . S
C329 O325 1.269 . S
C330 O331 1.249 . S
C330 O332 1.270 . S
O331 Zn323 1.943 . S
O331 C330 1.249 . S
O332 Zn322 2.067 . S
O332 C330 1.270 . S
C333 O326 1.262 . S
C333 O334 1.232 . S
O334 C333 1.232 . S
C335 O327 1.260 . S
C335 O328 1.257 . S
C336 C337 1.363 . S
C336 C342 1.379 . S
C336 N344 1.356 . S
C337 C336 1.363 . S
C337 C343 1.363 . S
C338 C339 1.363 . S
C338 C343 1.379 . S
C338 N345 1.356 . S
C339 C338 1.363 . S
C339 C342 1.363 . S
N340 C342 1.356 . S
N340 H352 0.984 . S
N340 H353 0.985 . S
N341 C343 1.356 . S
N341 H346 0.984 . S
N341 H347 0.985 . S
C342 C336 1.379 . S
C342 C339 1.363 . S
C342 N340 1.356 . S
C343 C337 1.363 . S
C343 C338 1.379 . S
C343 N341 1.356 . S
N344 C336 1.356 . S
N344 H350 0.984 . S
N344 H351 0.984 . S
N345 C338 1.356 . S
N345 H348 0.984 . S
N345 H349 0.985 . S
H346 N341 0.984 . S
H347 N341 0.985 . S
H348 N345 0.984 . S
H349 N345 0.985 . S
H350 N344 0.984 . S
H351 N344 0.984 . S
H352 N340 0.984 . S
H353 N340 0.985 . S
C354 C355 1.363 . S
C354 C360 1.379 . S
C354 N362 1.356 . S
C355 C354 1.363 . S
C355 C361 1.363 . S
C356 C357 1.363 . S
C356 C361 1.379 . S
C356 N363 1.356 . S
C357 C356 1.363 . S
C357 C360 1.363 . S
N358 C360 1.356 . S
N358 H370 0.984 . S
N358 H371 0.985 . S
N359 C361 1.356 . S
N359 H364 0.984 . S
N359 H365 0.985 . S
C360 C354 1.379 . S
C360 C357 1.363 . S
C360 N358 1.356 . S
C361 C355 1.363 . S
C361 C356 1.379 . S
C361 N359 1.356 . S
N362 C354 1.356 . S
N362 H368 0.984 . S
N362 H369 0.984 . S
N363 C356 1.356 . S
N363 H366 0.984 . S
N363 H367 0.985 . S
H364 N359 0.984 . S
H365 N359 0.985 . S
H366 N363 0.984 . S
H367 N363 0.985 . S
H368 N362 0.984 . S
H369 N362 0.984 . S
H370 N358 0.984 . S
H371 N358 0.985 . S
C372 C373 1.363 . S
C372 C378 1.379 . S
C372 N380 1.356 . S
C373 C372 1.363 . S
C373 C379 1.363 . S
C374 C375 1.363 . S
C374 C379 1.379 . S
C374 N381 1.356 . S
C375 C374 1.363 . S
C375 C378 1.363 . S
N376 C378 1.356 . S
N376 H388 0.984 . S
N376 H389 0.985 . S
N377 C379 1.356 . S
N377 H382 0.984 . S
N377 H383 0.985 . S
C378 C372 1.379 . S
C378 C375 1.363 . S
C378 N376 1.356 . S
C379 C373 1.363 . S
C379 C374 1.379 . S
C379 N377 1.356 . S
N380 C372 1.356 . S
N380 H386 0.984 . S
N380 H387 0.984 . S
N381 C374 1.356 . S
N381 H384 0.984 . S
N381 H385 0.985 . S
H382 N377 0.984 . S
H383 N377 0.985 . S
H384 N381 0.984 . S
H385 N381 0.985 . S
H386 N380 0.984 . S
H387 N380 0.984 . S
H388 N376 0.984 . S
H389 N376 0.985 . S
C390 C391 1.363 . S
C390 C396 1.379 . S
C390 N398 1.356 . S
C391 C390 1.363 . S
C391 C397 1.363 . S
C392 C393 1.363 . S
C392 C397 1.379 . S
C392 N399 1.356 . S
C393 C392 1.363 . S
C393 C396 1.363 . S
N394 C396 1.356 . S
N394 H406 0.984 . S
N394 H407 0.985 . S
N395 C397 1.356 . S
N395 H400 0.984 . S
N395 H401 0.985 . S
C396 C390 1.379 . S
C396 C393 1.363 . S
C396 N394 1.356 . S
C397 C391 1.363 . S
C397 C392 1.379 . S
C397 N395 1.356 . S
N398 C390 1.356 . S
N398 H404 0.984 . S
N398 H405 0.984 . S
N399 C392 1.356 . S
N399 H402 0.984 . S
N399 H403 0.985 . S
H400 N395 0.984 . S
H401 N395 0.985 . S
H402 N399 0.984 . S
H403 N399 0.985 . S
H404 N398 0.984 . S
H405 N398 0.984 . S
H406 N394 0.984 . S
H407 N394 0.985 . S
C408 C409 1.363 . S
C408 C414 1.379 . S
C408 N416 1.356 . S
C409 C408 1.363 . S
C409 C415 1.363 . S
C410 C411 1.363 . S
C410 C415 1.379 . S
C410 N417 1.356 . S
C411 C410 1.363 . S
C411 C414 1.363 . S
N412 C414 1.356 . S
N412 H424 0.984 . S
N412 H425 0.985 . S
N413 C415 1.356 . S
N413 H418 0.984 . S
N413 H419 0.985 . S
C414 C408 1.379 . S
C414 C411 1.363 . S
C414 N412 1.356 . S
C415 C409 1.363 . S
C415 C410 1.379 . S
C415 N413 1.356 . S
N416 C408 1.356 . S
N416 H422 0.984 . S
N416 H423 0.984 . S
N417 C410 1.356 . S
N417 H420 0.984 . S
N417 H421 0.985 . S
H418 N413 0.984 . S
H419 N413 0.985 . S
H420 N417 0.984 . S
H421 N417 0.985 . S
H422 N416 0.984 . S
H423 N416 0.984 . S
H424 N412 0.984 . S
H425 N412 0.985 . S
C426 C427 1.363 . S
C426 C432 1.379 . S
C426 N434 1.356 . S
C427 C426 1.363 . S
C427 C433 1.363 . S
C428 C429 1.363 . S
C428 C433 1.379 . S
C428 N435 1.356 . S
C429 C428 1.363 . S
C429 C432 1.363 . S
N430 C432 1.356 . S
N430 H442 0.984 . S
N430 H443 0.985 . S
N431 C433 1.356 . S
N431 H436 0.984 . S
N431 H437 0.985 . S
C432 C426 1.379 . S
C432 C429 1.363 . S
C432 N430 1.356 . S
C433 C427 1.363 . S
C433 C428 1.379 . S
C433 N431 1.356 . S
N434 C426 1.356 . S
N434 H440 0.984 . S
N434 H441 0.984 . S
N435 C428 1.356 . S
N435 H438 0.984 . S
N435 H439 0.985 . S
H436 N431 0.984 . S
H437 N431 0.985 . S
H438 N435 0.984 . S
H439 N435 0.985 . S
H440 N434 0.984 . S
H441 N434 0.984 . S
H442 N430 0.984 . S
H443 N430 0.985 . S
C444 C445 1.363 . S
C444 C450 1.379 . S
C444 N452 1.356 . S
C445 C444 1.363 . S
C445 C451 1.363 . S
C446 C447 1.363 . S
C446 C451 1.379 . S
C446 N453 1.356 . S
C447 C446 1.363 . S
C447 C450 1.363 . S
N448 C450 1.356 . S
N448 H460 0.984 . S
N448 H461 0.985 . S
N449 C451 1.356 . S
N449 H454 0.984 . S
N449 H455 0.985 . S
C450 C444 1.379 . S
C450 C447 1.363 . S
C450 N448 1.356 . S
C451 C445 1.363 . S
C451 C446 1.379 . S
C451 N449 1.356 . S
N452 C444 1.356 . S
N452 H458 0.984 . S
N452 H459 0.984 . S
N453 C446 1.356 . S
N453 H456 0.984 . S
N453 H457 0.985 . S
H454 N449 0.984 . S
H455 N449 0.985 . S
H456 N453 0.984 . S
H457 N453 0.985 . S
H458 N452 0.984 . S
H459 N452 0.984 . S
H460 N448 0.984 . S
H461 N448 0.985 . S
C462 C463 1.363 . S
C462 C468 1.379 . S
C462 N470 1.356 . S
C463 C462 1.363 . S
C463 C469 1.363 . S
C464 C465 1.363 . S
C464 C469 1.379 . S
C464 N471 1.356 . S
C465 C464 1.363 . S
C465 C468 1.363 . S
N466 C468 1.356 . S
N466 H478 0.984 . S
N466 H479 0.985 . S
N467 C469 1.356 . S
N467 H472 0.984 . S
N467 H473 0.985 . S
C468 C462 1.379 . S
C468 C465 1.363 . S
C468 N466 1.356 . S
C469 C463 1.363 . S
C469 C464 1.379 . S
C469 N467 1.356 . S
N470 C462 1.356 . S
N470 H476 0.984 . S
N470 H477 0.984 . S
N471 C464 1.356 . S
N471 H474 0.984 . S
N471 H475 0.985 . S
H472 N467 0.984 . S
H473 N467 0.985 . S
H474 N471 0.984 . S
H475 N471 0.985 . S
H476 N470 0.984 . S
H477 N470 0.984 . S
H478 N466 0.984 . S
H479 N466 0.985 . S
C480 C481 1.363 . S
C480 C486 1.379 . S
C480 N488 1.356 . S
C481 C480 1.363 . S
C481 C487 1.363 . S
C482 C483 1.363 . S
C482 C487 1.379 . S
C482 N489 1.356 . S
C483 C482 1.363 . S
C483 C486 1.363 . S
N484 C486 1.356 . S
N484 H496 0.984 . S
N484 H497 0.985 . S
N485 C487 1.356 . S
N485 H490 0.984 . S
N485 H491 0.985 . S
C486 C480 1.379 . S
C486 C483 1.363 . S
C486 N484 1.356 . S
C487 C481 1.363 . S
C487 C482 1.379 . S
C487 N485 1.356 . S
N488 C480 1.356 . S
N488 H494 0.984 . S
N488 H495 0.984 . S
N489 C482 1.356 . S
N489 H492 0.984 . S
N489 H493 0.985 . S
H490 N485 0.984 . S
H491 N485 0.985 . S
H492 N489 0.984 . S
H493 N489 0.985 . S
H494 N488 0.984 . S
H495 N488 0.984 . S
H496 N484 0.984 . S
H497 N484 0.985 . S
C498 C499 1.363 . S
C498 C504 1.379 . S
C498 N506 1.356 . S
C499 C498 1.363 . S
C499 C505 1.363 . S
C500 C501 1.363 . S
C500 C505 1.379 . S
C500 N507 1.356 . S
C501 C500 1.363 . S
C501 C504 1.363 . S
N502 C504 1.356 . S
N502 H514 0.984 . S
N502 H515 0.985 . S
N503 C505 1.356 . S
N503 H508 0.984 . S
N503 H509 0.985 . S
C504 C498 1.379 . S
C504 C501 1.363 . S
C504 N502 1.356 . S
C505 C499 1.363 . S
C505 C500 1.379 . S
C505 N503 1.356 . S
N506 C498 1.356 . S
N506 H512 0.984 . S
N506 H513 0.984 . S
N507 C500 1.356 . S
N507 H510 0.984 . S
N507 H511 0.985 . S
H508 N503 0.984 . S
H509 N503 0.985 . S
H510 N507 0.984 . S
H511 N507 0.985 . S
H512 N506 0.984 . S
H513 N506 0.984 . S
H514 N502 0.984 . S
H515 N502 0.985 . S
C516 C517 1.363 . S
C516 C522 1.379 . S
C516 N524 1.356 . S
C517 C516 1.363 . S
C517 C523 1.363 . S
C518 C519 1.363 . S
C518 C523 1.379 . S
C518 N525 1.356 . S
C519 C518 1.363 . S
C519 C522 1.363 . S
N520 C522 1.356 . S
N520 H532 0.984 . S
N520 H533 0.985 . S
N521 C523 1.356 . S
N521 H526 0.984 . S
N521 H527 0.985 . S
C522 C516 1.379 . S
C522 C519 1.363 . S
C522 N520 1.356 . S
C523 C517 1.363 . S
C523 C518 1.379 . S
C523 N521 1.356 . S
N524 C516 1.356 . S
N524 H530 0.984 . S
N524 H531 0.984 . S
N525 C518 1.356 . S
N525 H528 0.984 . S
N525 H529 0.985 . S
H526 N521 0.984 . S
H527 N521 0.985 . S
H528 N525 0.984 . S
H529 N525 0.985 . S
H530 N524 0.984 . S
H531 N524 0.984 . S
H532 N520 0.984 . S
H533 N520 0.985 . S
C534 C535 1.363 . S
C534 C540 1.379 . S
C534 N542 1.356 . S
C535 C534 1.363 . S
C535 C541 1.363 . S
C536 C537 1.363 . S
C536 C541 1.379 . S
C536 N543 1.356 . S
C537 C536 1.363 . S
C537 C540 1.363 . S
N538 C540 1.356 . S
N538 H550 0.984 . S
N538 H551 0.985 . S
N539 C541 1.356 . S
N539 H544 0.984 . S
N539 H545 0.985 . S
C540 C534 1.379 . S
C540 C537 1.363 . S
C540 N538 1.356 . S
C541 C535 1.363 . S
C541 C536 1.379 . S
C541 N539 1.356 . S
N542 C534 1.356 . S
N542 H548 0.984 . S
N542 H549 0.984 . S
N543 C536 1.356 . S
N543 H546 0.984 . S
N543 H547 0.985 . S
H544 N539 0.984 . S
H545 N539 0.985 . S
H546 N543 0.984 . S
H547 N543 0.985 . S
H548 N542 0.984 . S
H549 N542 0.984 . S
H550 N538 0.984 . S
H551 N538 0.985 . S
C552 C553 1.363 . S
C552 C558 1.379 . S
C552 N560 1.356 . S
C553 C552 1.363 . S
C553 C559 1.363 . S
C554 C555 1.363 . S
C554 C559 1.379 . S
C554 N561 1.356 . S
C555 C554 1.363 . S
C555 C558 1.363 . S
N556 C558 1.356 . S
N556 H568 0.984 . S
N556 H569 0.985 . S
N557 C559 1.356 . S
N557 H562 0.984 . S
N557 H563 0.985 . S
C558 C552 1.379 . S
C558 C555 1.363 . S
C558 N556 1.356 . S
C559 C553 1.363 . S
C559 C554 1.379 . S
C559 N557 1.356 . S
N560 C552 1.356 . S
N560 H566 0.984 . S
N560 H567 0.984 . S
N561 C554 1.356 . S
N561 H564 0.984 . S
N561 H565 0.985 . S
H562 N557 0.984 . S
H563 N557 0.985 . S
H564 N561 0.984 . S
H565 N561 0.985 . S
H566 N560 0.984 . S
H567 N560 0.984 . S
H568 N556 0.984 . S
H569 N556 0.985 . S
C570 C571 1.363 . S
C570 C576 1.379 . S
C570 N578 1.356 . S
C571 C570 1.363 . S
C571 C577 1.363 . S
C572 C573 1.363 . S
C572 C577 1.379 . S
C572 N579 1.356 . S
C573 C572 1.363 . S
C573 C576 1.363 . S
N574 C576 1.356 . S
N574 H586 0.984 . S
N574 H587 0.985 . S
N575 C577 1.356 . S
N575 H580 0.984 . S
N575 H581 0.985 . S
C576 C570 1.379 . S
C576 C573 1.363 . S
C576 N574 1.356 . S
C577 C571 1.363 . S
C577 C572 1.379 . S
C577 N575 1.356 . S
N578 C570 1.356 . S
N578 H584 0.984 . S
N578 H585 0.984 . S
N579 C572 1.356 . S
N579 H582 0.984 . S
N579 H583 0.985 . S
H580 N575 0.984 . S
H581 N575 0.985 . S
H582 N579 0.984 . S
H583 N579 0.985 . S
H584 N578 0.984 . S
H585 N578 0.984 . S
H586 N574 0.984 . S
H587 N574 0.985 . S
C588 C589 1.363 . S
C588 C594 1.379 . S
C588 N596 1.356 . S
C589 C588 1.363 . S
C589 C595 1.363 . S
C590 C591 1.363 . S
C590 C595 1.379 . S
C590 N597 1.356 . S
C591 C590 1.363 . S
C591 C594 1.363 . S
N592 C594 1.356 . S
N592 H604 0.984 . S
N592 H605 0.985 . S
N593 C595 1.356 . S
N593 H598 0.984 . S
N593 H599 0.985 . S
C594 C588 1.379 . S
C594 C591 1.363 . S
C594 N592 1.356 . S
C595 C589 1.363 . S
C595 C590 1.379 . S
C595 N593 1.356 . S
N596 C588 1.356 . S
N596 H602 0.984 . S
N596 H603 0.984 . S
N597 C590 1.356 . S
N597 H600 0.984 . S
N597 H601 0.985 . S
H598 N593 0.984 . S
H599 N593 0.985 . S
H600 N597 0.984 . S
H601 N597 0.985 . S
H602 N596 0.984 . S
H603 N596 0.984 . S
H604 N592 0.984 . S
H605 N592 0.985 . S
C606 C607 1.363 . S
C606 C612 1.379 . S
C606 N614 1.356 . S
C607 C606 1.363 . S
C607 C613 1.363 . S
C608 C609 1.363 . S
C608 C613 1.379 . S
C608 N615 1.356 . S
C609 C608 1.363 . S
C609 C612 1.363 . S
N610 C612 1.356 . S
N610 H622 0.984 . S
N610 H623 0.985 . S
N611 C613 1.356 . S
N611 H616 0.984 . S
N611 H617 0.985 . S
C612 C606 1.379 . S
C612 C609 1.363 . S
C612 N610 1.356 . S
C613 C607 1.363 . S
C613 C608 1.379 . S
C613 N611 1.356 . S
N614 C606 1.356 . S
N614 H620 0.984 . S
N614 H621 0.984 . S
N615 C608 1.356 . S
N615 H618 0.984 . S
N615 H619 0.985 . S
H616 N611 0.984 . S
H617 N611 0.985 . S
H618 N615 0.984 . S
H619 N615 0.985 . S
H620 N614 0.984 . S
H621 N614 0.984 . S
H622 N610 0.984 . S
H623 N610 0.985 . S
C624 C625 1.363 . S
C624 C630 1.379 . S
C624 N632 1.356 . S
C625 C624 1.363 . S
C625 C631 1.363 . S
C626 C627 1.363 . S
C626 C631 1.379 . S
C626 N633 1.356 . S
C627 C626 1.363 . S
C627 C630 1.363 . S
N628 C630 1.356 . S
N628 H640 0.984 . S
N628 H641 0.985 . S
N629 C631 1.356 . S
N629 H634 0.984 . S
N629 H635 0.985 . S
C630 C624 1.379 . S
C630 C627 1.363 . S
C630 N628 1.356 . S
C631 C625 1.363 . S
C631 C626 1.379 . S
C631 N629 1.356 . S
N632 C624 1.356 . S
N632 H638 0.984 . S
N632 H639 0.984 . S
N633 C626 1.356 . S
N633 H636 0.984 . S
N633 H637 0.985 . S
H634 N629 0.984 . S
H635 N629 0.985 . S
H636 N633 0.984 . S
H637 N633 0.985 . S
H638 N632 0.984 . S
H639 N632 0.984 . S
H640 N628 0.984 . S
H641 N628 0.985 . S
C642 C643 1.363 . S
C642 C648 1.379 . S
C642 N650 1.356 . S
C643 C642 1.363 . S
C643 C649 1.363 . S
C644 C645 1.363 . S
C644 C649 1.379 . S
C644 N651 1.356 . S
C645 C644 1.363 . S
C645 C648 1.363 . S
N646 C648 1.356 . S
N646 H658 0.984 . S
N646 H659 0.985 . S
N647 C649 1.356 . S
N647 H652 0.984 . S
N647 H653 0.985 . S
C648 C642 1.379 . S
C648 C645 1.363 . S
C648 N646 1.356 . S
C649 C643 1.363 . S
C649 C644 1.379 . S
C649 N647 1.356 . S
N650 C642 1.356 . S
N650 H656 0.984 . S
N650 H657 0.984 . S
N651 C644 1.356 . S
N651 H654 0.984 . S
N651 H655 0.985 . S
H652 N647 0.984 . S
H653 N647 0.985 . S
H654 N651 0.984 . S
H655 N651 0.985 . S
H656 N650 0.984 . S
H657 N650 0.984 . S
H658 N646 0.984 . S
H659 N646 0.985 . S
C660 C661 1.363 . S
C660 C666 1.379 . S
C660 N668 1.356 . S
C661 C660 1.363 . S
C661 C667 1.363 . S
C662 C663 1.363 . S
C662 C667 1.379 . S
C662 N669 1.356 . S
C663 C662 1.363 . S
C663 C666 1.363 . S
N664 C666 1.356 . S
N664 H676 0.984 . S
N664 H677 0.985 . S
N665 C667 1.356 . S
N665 H670 0.984 . S
N665 H671 0.985 . S
C666 C660 1.379 . S
C666 C663 1.363 . S
C666 N664 1.356 . S
C667 C661 1.363 . S
C667 C662 1.379 . S
C667 N665 1.356 . S
N668 C660 1.356 . S
N668 H674 0.984 . S
N668 H675 0.984 . S
N669 C662 1.356 . S
N669 H672 0.984 . S
N669 H673 0.985 . S
H670 N665 0.984 . S
H671 N665 0.985 . S
H672 N669 0.984 . S
H673 N669 0.985 . S
H674 N668 0.984 . S
H675 N668 0.984 . S
H676 N664 0.984 . S
H677 N664 0.985 . S
C678 C679 1.363 . S
C678 C684 1.379 . S
C678 N686 1.356 . S
C679 C678 1.363 . S
C679 C685 1.363 . S
C680 C681 1.363 . S
C680 C685 1.379 . S
C680 N687 1.356 . S
C681 C680 1.363 . S
C681 C684 1.363 . S
N682 C684 1.356 . S
N682 H694 0.984 . S
N682 H695 0.985 . S
N683 C685 1.356 . S
N683 H688 0.984 . S
N683 H689 0.985 . S
C684 C678 1.379 . S
C684 C681 1.363 . S
C684 N682 1.356 . S
C685 C679 1.363 . S
C685 C680 1.379 . S
C685 N683 1.356 . S
N686 C678 1.356 . S
N686 H692 0.984 . S
N686 H693 0.984 . S
N687 C680 1.356 . S
N687 H690 0.984 . S
N687 H691 0.985 . S
H688 N683 0.984 . S
H689 N683 0.985 . S
H690 N687 0.984 . S
H691 N687 0.985 . S
H692 N686 0.984 . S
H693 N686 0.984 . S
H694 N682 0.984 . S
H695 N682 0.985 . S
C696 C697 1.363 . S
C696 C702 1.379 . S
C696 N704 1.356 . S
C697 C696 1.363 . S
C697 C703 1.363 . S
C698 C699 1.363 . S
C698 C703 1.379 . S
C698 N705 1.356 . S
C699 C698 1.363 . S
C699 C702 1.363 . S
N700 C702 1.356 . S
N700 H712 0.984 . S
N700 H713 0.985 . S
N701 C703 1.356 . S
N701 H706 0.984 . S
N701 H707 0.985 . S
C702 C696 1.379 . S
C702 C699 1.363 . S
C702 N700 1.356 . S
C703 C697 1.363 . S
C703 C698 1.379 . S
C703 N701 1.356 . S
N704 C696 1.356 . S
N704 H710 0.984 . S
N704 H711 0.984 . S
N705 C698 1.356 . S
N705 H708 0.984 . S
N705 H709 0.985 . S
H706 N701 0.984 . S
H707 N701 0.985 . S
H708 N705 0.984 . S
H709 N705 0.985 . S
H710 N704 0.984 . S
H711 N704 0.984 . S
H712 N700 0.984 . S
H713 N700 0.985 . S
C714 C715 1.363 . S
C714 C720 1.379 . S
C714 N722 1.356 . S
C715 C714 1.363 . S
C715 C721 1.363 . S
C716 C717 1.363 . S
C716 C721 1.379 . S
C716 N723 1.356 . S
C717 C716 1.363 . S
C717 C720 1.363 . S
N718 C720 1.356 . S
N718 H730 0.984 . S
N718 H731 0.985 . S
N719 C721 1.356 . S
N719 H724 0.984 . S
N719 H725 0.985 . S
C720 C714 1.379 . S
C720 C717 1.363 . S
C720 N718 1.356 . S
C721 C715 1.363 . S
C721 C716 1.379 . S
C721 N719 1.356 . S
N722 C714 1.356 . S
N722 H728 0.984 . S
N722 H729 0.984 . S
N723 C716 1.356 . S
N723 H726 0.984 . S
N723 H727 0.985 . S
H724 N719 0.984 . S
H725 N719 0.985 . S
H726 N723 0.984 . S
H727 N723 0.985 . S
H728 N722 0.984 . S
H729 N722 0.984 . S
H730 N718 0.984 . S
H731 N718 0.985 . S
C732 C733 1.363 . S
C732 C738 1.379 . S
C732 N740 1.356 . S
C733 C732 1.363 . S
C733 C739 1.363 . S
C734 C735 1.363 . S
C734 C739 1.379 . S
C734 N741 1.356 . S
C735 C734 1.363 . S
C735 C738 1.363 . S
N736 C738 1.356 . S
N736 H748 0.984 . S
N736 H749 0.985 . S
N737 C739 1.356 . S
N737 H742 0.984 . S
N737 H743 0.985 . S
C738 C732 1.379 . S
C738 C735 1.363 . S
C738 N736 1.356 . S
C739 C733 1.363 . S
C739 C734 1.379 . S
C739 N737 1.356 . S
N740 C732 1.356 . S
N740 H746 0.984 . S
N740 H747 0.984 . S
N741 C734 1.356 . S
N741 H744 0.984 . S
N741 H745 0.985 . S
H742 N737 0.984 . S
H743 N737 0.985 . S
H744 N741 0.984 . S
H745 N741 0.985 . S
H746 N740 0.984 . S
H747 N740 0.984 . S
H748 N736 0.984 . S
H749 N736 0.985 . S
C750 C751 1.363 . S
C750 C756 1.379 . S
C750 N758 1.356 . S
C751 C750 1.363 . S
C751 C757 1.363 . S
C752 C753 1.363 . S
C752 C757 1.379 . S
C752 N759 1.356 . S
C753 C752 1.363 . S
C753 C756 1.363 . S
N754 C756 1.356 . S
N754 H766 0.984 . S
N754 H767 0.985 . S
N755 C757 1.356 . S
N755 H760 0.984 . S
N755 H761 0.985 . S
C756 C750 1.379 . S
C756 C753 1.363 . S
C756 N754 1.356 . S
C757 C751 1.363 . S
C757 C752 1.379 . S
C757 N755 1.356 . S
N758 C750 1.356 . S
N758 H764 0.984 . S
N758 H765 0.984 . S
N759 C752 1.356 . S
N759 H762 0.984 . S
N759 H763 0.985 . S
H760 N755 0.984 . S
H761 N755 0.985 . S
H762 N759 0.984 . S
H763 N759 0.985 . S
H764 N758 0.984 . S
H765 N758 0.984 . S
H766 N754 0.984 . S
H767 N754 0.985 . S
C768 C769 1.363 1_554 S
C768 C774 1.379 . S
C768 N776 1.356 . S
C769 C768 1.363 1_556 S
C769 C775 1.363 1_565 S
C770 C771 1.363 1_556 S
C770 C775 1.379 . S
C770 N777 1.356 . S
C771 C770 1.363 1_554 S
C771 C774 1.363 1_545 S
N772 C774 1.356 . S
N772 H784 0.984 . S
N772 H785 0.985 1_565 S
N773 C775 1.356 . S
N773 H778 0.984 1_545 S
N773 H779 0.985 . S
C774 C768 1.379 . S
C774 C771 1.363 1_565 S
C774 N772 1.356 . S
C775 C769 1.363 1_545 S
C775 C770 1.379 . S
C775 N773 1.356 . S
N776 C768 1.356 . S
N776 H782 0.984 . S
N776 H783 0.984 1_554 S
N777 C770 1.356 . S
N777 H780 0.984 1_556 S
N777 H781 0.985 . S
H778 N773 0.984 1_565 S
H779 N773 0.985 . S
H780 N777 0.984 1_554 S
H781 N777 0.985 . S
H782 N776 0.984 . S
H783 N776 0.984 1_556 S
H784 N772 0.984 . S
H785 N772 0.985 1_545 S
C786 C787 1.363 . S
C786 C792 1.379 . S
C786 N794 1.356 . S
C787 C786 1.363 . S
C787 C793 1.363 . S
C788 C789 1.363 . S
C788 C793 1.379 . S
C788 N795 1.356 . S
C789 C788 1.363 . S
C789 C792 1.363 . S
N790 C792 1.356 . S
N790 H802 0.984 . S
N790 H803 0.985 . S
N791 C793 1.356 . S
N791 H796 0.984 . S
N791 H797 0.985 . S
C792 C786 1.379 . S
C792 C789 1.363 . S
C792 N790 1.356 . S
C793 C787 1.363 . S
C793 C788 1.379 . S
C793 N791 1.356 . S
N794 C786 1.356 . S
N794 H800 0.984 . S
N794 H801 0.984 . S
N795 C788 1.356 . S
N795 H798 0.984 . S
N795 H799 0.985 . S
H796 N791 0.984 . S
H797 N791 0.985 . S
H798 N795 0.984 . S
H799 N795 0.985 . S
H800 N794 0.984 . S
H801 N794 0.984 . S
H802 N790 0.984 . S
H803 N790 0.985 . S
C804 C805 1.363 . S
C804 C810 1.379 1_456 S
C804 N812 1.356 . S
C805 C804 1.363 . S
C805 C811 1.363 . S
C806 C807 1.363 . S
C806 C811 1.379 1_654 S
C806 N813 1.356 . S
C807 C806 1.363 . S
C807 C810 1.363 . S
N808 C810 1.356 . S
N808 H820 0.985 . S
N808 H821 0.985 . S
N809 C811 1.356 . S
N809 H814 0.984 . S
N809 H815 0.985 . S
C810 C804 1.379 1_654 S
C810 C807 1.363 . S
C810 N808 1.356 . S
C811 C805 1.363 . S
C811 C806 1.379 1_456 S
C811 N809 1.356 . S
N812 C804 1.356 . S
N812 H818 0.991 . S
N812 H819 0.984 . S
N813 C806 1.356 . S
N813 H816 0.984 . S
N813 H817 0.991 . S
H814 N809 0.984 . S
H815 N809 0.985 . S
H816 N813 0.984 . S
H817 N813 0.991 . S
H818 N812 0.991 . S
H819 N812 0.984 . S
H820 N808 0.985 . S
H821 N808 0.985 . S
C822 C823 1.363 . S
C822 C828 1.379 1_545 S
C822 N830 1.356 . S
C823 C822 1.363 . S
C823 C829 1.363 . S
C824 C825 1.363 . S
C824 C829 1.379 1_565 S
C824 N831 1.356 . S
C825 C824 1.363 . S
C825 C828 1.363 . S
N826 C828 1.356 . S
N826 H838 0.984 . S
N826 H839 0.985 . S
N827 C829 1.356 . S
N827 H832 0.984 . S
N827 H833 0.985 . S
C828 C822 1.379 1_565 S
C828 C825 1.363 . S
C828 N826 1.356 . S
C829 C823 1.363 . S
C829 C824 1.379 1_545 S
C829 N827 1.356 . S
N830 C822 1.356 . S
N830 H836 0.985 1_545 S
N830 H837 0.984 . S
N831 C824 1.356 . S
N831 H834 0.984 . S
N831 H835 0.985 1_565 S
H832 N827 0.984 . S
H833 N827 0.985 . S
H834 N831 0.984 . S
H835 N831 0.985 1_545 S
H836 N830 0.985 1_565 S
H837 N830 0.984 . S
H838 N826 0.984 . S
H839 N826 0.985 . S
C840 C841 1.363 1_556 S
C840 C846 1.379 . S
C840 N848 1.356 . S
C841 C840 1.363 1_554 S
C841 C847 1.363 . S
C842 C843 1.363 1_554 S
C842 C847 1.379 . S
C842 N849 1.356 . S
C843 C842 1.363 1_556 S
C843 C846 1.363 . S
N844 C846 1.356 . S
N844 H856 0.984 . S
N844 H857 0.985 . S
N845 C847 1.356 . S
N845 H850 0.984 . S
N845 H851 0.985 . S
C846 C840 1.379 . S
C846 C843 1.363 . S
C846 N844 1.356 . S
C847 C841 1.363 . S
C847 C842 1.379 . S
C847 N845 1.356 . S
N848 C840 1.356 . S
N848 H854 0.984 . S
N848 H855 0.984 1_556 S
N849 C842 1.356 . S
N849 H852 0.984 1_554 S
N849 H853 0.985 . S
H850 N845 0.984 . S
H851 N845 0.985 . S
H852 N849 0.984 1_556 S
H853 N849 0.985 . S
H854 N848 0.984 . S
H855 N848 0.984 1_554 S
H856 N844 0.984 . S
H857 N844 0.985 . S
C858 C859 1.363 . S
C858 C864 1.379 1_455 S
C858 N866 1.356 . S
C859 C858 1.363 . S
C859 C865 1.363 . S
C860 C861 1.363 . S
C860 C865 1.379 1_655 S
C860 N867 1.356 . S
C861 C860 1.363 . S
C861 C864 1.363 . S
N862 C864 1.356 . S
N862 H874 0.984 . S
N862 H875 0.985 . S
N863 C865 1.356 . S
N863 H868 0.984 . S
N863 H869 0.985 . S
C864 C858 1.379 1_655 S
C864 C861 1.363 . S
C864 N862 1.356 . S
C865 C859 1.363 . S
C865 C860 1.379 1_455 S
C865 N863 1.356 . S
N866 C858 1.356 . S
N866 H872 0.984 . S
N866 H873 0.984 . S
N867 C860 1.356 . S
N867 H870 0.984 . S
N867 H871 0.985 . S
H868 N863 0.984 . S
H869 N863 0.985 . S
H870 N867 0.984 . S
H871 N867 0.985 . S
H872 N866 0.984 . S
H873 N866 0.984 . S
H874 N862 0.984 . S
H875 N862 0.985 . S
C876 C877 1.363 1_545 S
C876 C882 1.379 . S
C876 N884 1.356 1_545 S
C877 C876 1.363 1_565 S
C877 C883 1.363 1_556 S
C878 C879 1.363 1_565 S
C878 C883 1.379 . S
C878 N885 1.356 1_565 S
C879 C878 1.363 1_545 S
C879 C882 1.363 1_554 S
N880 C882 1.356 1_554 S
N880 H892 0.984 1_554 S
N880 H893 0.985 . S
N881 C883 1.356 1_556 S
N881 H886 0.984 . S
N881 H887 0.985 1_556 S
C882 C876 1.379 . S
C882 C879 1.363 1_556 S
C882 N880 1.356 1_556 S
C883 C877 1.363 1_554 S
C883 C878 1.379 . S
C883 N881 1.356 1_554 S
N884 C876 1.356 1_565 S
N884 H890 0.984 1_565 S
N884 H891 0.984 . S
N885 C878 1.356 1_545 S
N885 H888 0.984 . S
N885 H889 0.985 1_545 S
H886 N881 0.984 . S
H887 N881 0.985 1_554 S
H888 N885 0.984 . S
H889 N885 0.985 1_565 S
H890 N884 0.984 1_545 S
H891 N884 0.984 . S
H892 N880 0.984 1_556 S
H893 N880 0.985 . S
C894 C895 1.363 . S
C894 C900 1.379 . S
C894 N902 1.356 . S
C895 C894 1.363 . S
C895 C901 1.363 . S
C896 C897 1.363 . S
C896 C901 1.379 . S
C896 N903 1.356 . S
C897 C896 1.363 . S
C897 C900 1.363 . S
N898 C900 1.356 . S
N898 H910 0.984 . S
N898 H911 0.985 . S
N899 C901 1.356 . S
N899 H904 0.984 . S
N899 H905 0.985 . S
C900 C894 1.379 . S
C900 C897 1.363 . S
C900 N898 1.356 . S
C901 C895 1.363 . S
C901 C896 1.379 . S
C901 N899 1.356 . S
N902 C894 1.356 . S
N902 H908 0.984 . S
N902 H909 0.984 . S
N903 C896 1.356 . S
N903 H906 0.984 . S
N903 H907 0.985 . S
H904 N899 0.984 . S
H905 N899 0.985 . S
H906 N903 0.984 . S
H907 N903 0.985 . S
H908 N902 0.984 . S
H909 N902 0.984 . S
H910 N898 0.984 . S
H911 N898 0.985 . S
C912 C913 1.363 . S
C912 C918 1.379 1_654 S
C912 N920 1.356 . S
C913 C912 1.363 . S
C913 C919 1.363 . S
C914 C915 1.363 . S
C914 C919 1.379 1_456 S
C914 N921 1.356 . S
C915 C914 1.363 . S
C915 C918 1.363 . S
N916 C918 1.356 . S
N916 H928 0.984 . S
N916 H929 0.985 . S
N917 C919 1.356 . S
N917 H922 0.984 . S
N917 H923 0.985 . S
C918 C912 1.379 1_456 S
C918 C915 1.363 . S
C918 N916 1.356 . S
C919 C913 1.363 . S
C919 C914 1.379 1_654 S
C919 N917 1.356 . S
N920 C912 1.356 . S
N920 H926 0.984 . S
N920 H927 0.984 . S
N921 C914 1.356 . S
N921 H924 0.984 . S
N921 H925 0.985 . S
H922 N917 0.984 . S
H923 N917 0.985 . S
H924 N921 0.984 . S
H925 N921 0.985 . S
H926 N920 0.984 . S
H927 N920 0.984 . S
H928 N916 0.984 . S
H929 N916 0.985 . S
C930 C931 1.363 1_545 S
C930 C936 1.379 . S
C930 N938 1.356 . S
C931 C930 1.363 1_565 S
C931 C937 1.363 . S
C932 C933 1.363 1_565 S
C932 C937 1.379 . S
C932 N939 1.356 . S
C933 C932 1.363 1_545 S
C933 C936 1.363 . S
N934 C936 1.356 . S
N934 H946 0.984 . S
N934 H947 0.985 . S
N935 C937 1.356 . S
N935 H940 0.984 . S
N935 H941 0.985 . S
C936 C930 1.379 . S
C936 C933 1.363 . S
C936 N934 1.356 . S
C937 C931 1.363 . S
C937 C932 1.379 . S
C937 N935 1.356 . S
N938 C930 1.356 . S
N938 H944 0.984 . S
N938 H945 0.984 1_545 S
N939 C932 1.356 . S
N939 H942 0.984 1_565 S
N939 H943 0.985 . S
H940 N935 0.984 . S
H941 N935 0.985 . S
H942 N939 0.984 1_545 S
H943 N939 0.985 . S
H944 N938 0.984 . S
H945 N938 0.984 1_565 S
H946 N934 0.984 . S
H947 N934 0.985 . S
C948 C949 1.363 1_556 S
C948 C954 1.379 . S
C948 N956 1.356 . S
C949 C948 1.363 1_554 S
C949 C955 1.363 . S
C950 C951 1.363 1_554 S
C950 C955 1.379 . S
C950 N957 1.356 . S
C951 C950 1.363 1_556 S
C951 C954 1.363 . S
N952 C954 1.356 . S
N952 H964 0.984 . S
N952 H965 0.985 . S
N953 C955 1.356 . S
N953 H958 0.984 . S
N953 H959 0.985 . S
C954 C948 1.379 . S
C954 C951 1.363 . S
C954 N952 1.356 . S
C955 C949 1.363 . S
C955 C950 1.379 . S
C955 N953 1.356 . S
N956 C948 1.356 . S
N956 H962 0.984 . S
N956 H963 0.984 1_556 S
N957 C950 1.356 . S
N957 H960 0.984 1_554 S
N957 H961 0.985 . S
H958 N953 0.984 . S
H959 N953 0.985 . S
H960 N957 0.984 1_556 S
H961 N957 0.985 . S
H962 N956 0.984 . S
H963 N956 0.984 1_554 S
H964 N952 0.984 . S
H965 N952 0.985 . S
C966 C967 1.363 . S
C966 C972 1.379 1_455 S
C966 N974 1.356 . S
C967 C966 1.363 . S
C967 C973 1.363 . S
C968 C969 1.363 . S
C968 C973 1.379 1_655 S
C968 N975 1.356 . S
C969 C968 1.363 . S
C969 C972 1.363 . S
N970 C972 1.356 . S
N970 H982 0.984 . S
N970 H983 0.985 . S
N971 C973 1.356 . S
N971 H976 0.984 . S
N971 H977 0.985 . S
C972 C966 1.379 1_655 S
C972 C969 1.363 . S
C972 N970 1.356 . S
C973 C967 1.363 . S
C973 C968 1.379 1_455 S
C973 N971 1.356 . S
N974 C966 1.356 . S
N974 H980 0.984 . S
N974 H981 0.984 . S
N975 C968 1.356 . S
N975 H978 0.984 . S
N975 H979 0.985 . S
H976 N971 0.984 . S
H977 N971 0.985 . S
H978 N975 0.984 . S
H979 N975 0.985 . S
H980 N974 0.984 . S
H981 N974 0.984 . S
H982 N970 0.984 . S
H983 N970 0.985 . S
C984 C985 1.363 . S
C984 C990 1.379 . S
C984 N992 1.356 . S
C985 C984 1.363 . S
C985 C991 1.363 . S
C986 C987 1.363 . S
C986 C991 1.379 . S
C986 N993 1.356 . S
C987 C986 1.363 . S
C987 C990 1.363 . S
N988 C990 1.356 . S
N988 H1000 0.984 . S
N988 H1001 0.985 . S
N989 C991 1.356 . S
N989 H994 0.984 . S
N989 H995 0.985 . S
C990 C984 1.379 . S
C990 C987 1.363 . S
C990 N988 1.356 . S
C991 C985 1.363 . S
C991 C986 1.379 . S
C991 N989 1.356 . S
N992 C984 1.356 . S
N992 H998 0.984 . S
N992 H999 0.984 . S
N993 C986 1.356 . S
N993 H996 0.984 . S
N993 H997 0.985 . S
H994 N989 0.984 . S
H995 N989 0.985 . S
H996 N993 0.984 . S
H997 N993 0.985 . S
H998 N992 0.984 . S
H999 N992 0.984 . S
H1000 N988 0.984 . S
H1001 N988 0.985 . S
C1002 C1003 1.363 . S
C1002 C1008 1.379 . S
C1002 N1010 1.356 . S
C1003 C1002 1.363 . S
C1003 C1009 1.363 . S
C1004 C1005 1.363 . S
C1004 C1009 1.379 . S
C1004 N1011 1.356 . S
C1005 C1004 1.363 . S
C1005 C1008 1.363 . S
N1006 C1008 1.356 . S
N1006 H1018 0.984 . S
N1006 H1019 0.985 . S
N1007 C1009 1.356 . S
N1007 H1012 0.984 . S
N1007 H1013 0.985 . S
C1008 C1002 1.379 . S
C1008 C1005 1.363 . S
C1008 N1006 1.356 . S
C1009 C1003 1.363 . S
C1009 C1004 1.379 . S
C1009 N1007 1.356 . S
N1010 C1002 1.356 . S
N1010 H1016 0.984 . S
N1010 H1017 0.984 . S
N1011 C1004 1.356 . S
N1011 H1014 0.984 . S
N1011 H1015 0.985 . S
H1012 N1007 0.984 . S
H1013 N1007 0.985 . S
H1014 N1011 0.984 . S
H1015 N1011 0.985 . S
H1016 N1010 0.984 . S
H1017 N1010 0.984 . S
H1018 N1006 0.984 . S
H1019 N1006 0.985 . S
C1020 C1021 1.363 . S
C1020 C1026 1.379 . S
C1020 N1028 1.356 . S
C1021 C1020 1.363 . S
C1021 C1027 1.363 . S
C1022 C1023 1.363 . S
C1022 C1027 1.379 . S
C1022 N1029 1.356 . S
C1023 C1022 1.363 . S
C1023 C1026 1.363 . S
N1024 C1026 1.356 . S
N1024 H1036 0.984 . S
N1024 H1037 0.985 . S
N1025 C1027 1.356 . S
N1025 H1030 0.984 . S
N1025 H1031 0.985 . S
C1026 C1020 1.379 . S
C1026 C1023 1.363 . S
C1026 N1024 1.356 . S
C1027 C1021 1.363 . S
C1027 C1022 1.379 . S
C1027 N1025 1.356 . S
N1028 C1020 1.356 . S
N1028 H1034 0.984 . S
N1028 H1035 0.984 . S
N1029 C1022 1.356 . S
N1029 H1032 0.984 . S
N1029 H1033 0.985 . S
H1030 N1025 0.984 . S
H1031 N1025 0.985 . S
H1032 N1029 0.984 . S
H1033 N1029 0.985 . S
H1034 N1028 0.984 . S
H1035 N1028 0.984 . S
H1036 N1024 0.984 . S
H1037 N1024 0.985 . S
C1038 C1039 1.363 . S
C1038 C1044 1.379 . S
C1038 N1046 1.356 . S
C1039 C1038 1.363 . S
C1039 C1045 1.363 . S
C1040 C1041 1.363 . S
C1040 C1045 1.379 . S
C1040 N1047 1.356 . S
C1041 C1040 1.363 . S
C1041 C1044 1.363 . S
N1042 C1044 1.356 . S
N1042 H1054 0.984 . S
N1042 H1055 0.985 . S
N1043 C1045 1.356 . S
N1043 H1048 0.984 . S
N1043 H1049 0.985 . S
C1044 C1038 1.379 . S
C1044 C1041 1.363 . S
C1044 N1042 1.356 . S
C1045 C1039 1.363 . S
C1045 C1040 1.379 . S
C1045 N1043 1.356 . S
N1046 C1038 1.356 . S
N1046 H1052 0.984 . S
N1046 H1053 0.984 . S
N1047 C1040 1.356 . S
N1047 H1050 0.984 . S
N1047 H1051 0.985 . S
H1048 N1043 0.984 . S
H1049 N1043 0.985 . S
H1050 N1047 0.984 . S
H1051 N1047 0.985 . S
H1052 N1046 0.984 . S
H1053 N1046 0.984 . S
H1054 N1042 0.984 . S
H1055 N1042 0.985 . S
C1056 C1057 1.363 . S
C1056 C1062 1.379 . S
C1056 N1064 1.356 . S
C1057 C1056 1.363 . S
C1057 C1063 1.363 . S
C1058 C1059 1.363 . S
C1058 C1063 1.379 . S
C1058 N1065 1.356 . S
C1059 C1058 1.363 . S
C1059 C1062 1.363 . S
N1060 C1062 1.356 . S
N1060 H1072 0.984 . S
N1060 H1073 0.985 . S
N1061 C1063 1.356 . S
N1061 H1066 0.984 . S
N1061 H1067 0.985 . S
C1062 C1056 1.379 . S
C1062 C1059 1.363 . S
C1062 N1060 1.356 . S
C1063 C1057 1.363 . S
C1063 C1058 1.379 . S
C1063 N1061 1.356 . S
N1064 C1056 1.356 . S
N1064 H1070 0.984 . S
N1064 H1071 0.984 . S
N1065 C1058 1.356 . S
N1065 H1068 0.984 . S
N1065 H1069 0.985 . S
H1066 N1061 0.984 . S
H1067 N1061 0.985 . S
H1068 N1065 0.984 . S
H1069 N1065 0.985 . S
H1070 N1064 0.984 . S
H1071 N1064 0.984 . S
H1072 N1060 0.984 . S
H1073 N1060 0.985 . S
C1074 C1075 1.363 . S
C1074 C1080 1.379 . S
C1074 N1082 1.356 . S
C1075 C1074 1.363 . S
C1075 C1081 1.363 . S
C1076 C1077 1.363 . S
C1076 C1081 1.379 . S
C1076 N1083 1.356 . S
C1077 C1076 1.363 . S
C1077 C1080 1.363 . S
N1078 C1080 1.356 . S
N1078 H1090 0.984 . S
N1078 H1091 0.985 . S
N1079 C1081 1.356 . S
N1079 H1084 0.984 . S
N1079 H1085 0.985 . S
C1080 C1074 1.379 . S
C1080 C1077 1.363 . S
C1080 N1078 1.356 . S
C1081 C1075 1.363 . S
C1081 C1076 1.379 . S
C1081 N1079 1.356 . S
N1082 C1074 1.356 . S
N1082 H1088 0.984 . S
N1082 H1089 0.984 . S
N1083 C1076 1.356 . S
N1083 H1086 0.984 . S
N1083 H1087 0.985 . S
H1084 N1079 0.984 . S
H1085 N1079 0.985 . S
H1086 N1083 0.984 . S
H1087 N1083 0.985 . S
H1088 N1082 0.984 . S
H1089 N1082 0.984 . S
H1090 N1078 0.984 . S
H1091 N1078 0.985 . S
C1092 C1093 1.363 . S
C1092 C1098 1.379 . S
C1092 N1100 1.356 . S
C1093 C1092 1.363 . S
C1093 C1099 1.363 . S
C1094 C1095 1.363 . S
C1094 C1099 1.379 . S
C1094 N1101 1.356 . S
C1095 C1094 1.363 . S
C1095 C1098 1.363 . S
N1096 C1098 1.356 . S
N1096 H1108 0.984 . S
N1096 H1109 0.985 . S
N1097 C1099 1.356 . S
N1097 H1102 0.984 . S
N1097 H1103 0.985 . S
C1098 C1092 1.379 . S
C1098 C1095 1.363 . S
C1098 N1096 1.356 . S
C1099 C1093 1.363 . S
C1099 C1094 1.379 . S
C1099 N1097 1.356 . S
N1100 C1092 1.356 . S
N1100 H1106 0.984 . S
N1100 H1107 0.984 . S
N1101 C1094 1.356 . S
N1101 H1104 0.984 . S
N1101 H1105 0.985 . S
H1102 N1097 0.984 . S
H1103 N1097 0.985 . S
H1104 N1101 0.984 . S
H1105 N1101 0.985 . S
H1106 N1100 0.984 . S
H1107 N1100 0.984 . S
H1108 N1096 0.984 . S
H1109 N1096 0.985 . S
C1110 C1111 1.363 . S
C1110 C1116 1.379 . S
C1110 N1118 1.356 . S
C1111 C1110 1.363 . S
C1111 C1117 1.363 . S
C1112 C1113 1.363 . S
C1112 C1117 1.379 . S
C1112 N1119 1.356 . S
C1113 C1112 1.363 . S
C1113 C1116 1.363 . S
N1114 C1116 1.356 . S
N1114 H1126 0.984 . S
N1114 H1127 0.985 . S
N1115 C1117 1.356 . S
N1115 H1120 0.984 . S
N1115 H1121 0.985 . S
C1116 C1110 1.379 . S
C1116 C1113 1.363 . S
C1116 N1114 1.356 . S
C1117 C1111 1.363 . S
C1117 C1112 1.379 . S
C1117 N1115 1.356 . S
N1118 C1110 1.356 . S
N1118 H1124 0.984 . S
N1118 H1125 0.984 . S
N1119 C1112 1.356 . S
N1119 H1122 0.984 . S
N1119 H1123 0.985 . S
H1120 N1115 0.984 . S
H1121 N1115 0.985 . S
H1122 N1119 0.984 . S
H1123 N1119 0.985 . S
H1124 N1118 0.984 . S
H1125 N1118 0.984 . S
H1126 N1114 0.984 . S
H1127 N1114 0.985 . S
C1128 C1129 1.363 . S
C1128 C1134 1.379 . S
C1128 N1136 1.356 . S
C1129 C1128 1.363 . S
C1129 C1135 1.363 . S
C1130 C1131 1.363 . S
C1130 C1135 1.379 . S
C1130 N1137 1.356 . S
C1131 C1130 1.363 . S
C1131 C1134 1.363 . S
N1132 C1134 1.356 . S
N1132 H1144 0.984 . S
N1132 H1145 0.985 . S
N1133 C1135 1.356 . S
N1133 H1138 0.984 . S
N1133 H1139 0.985 . S
C1134 C1128 1.379 . S
C1134 C1131 1.363 . S
C1134 N1132 1.356 . S
C1135 C1129 1.363 . S
C1135 C1130 1.379 . S
C1135 N1133 1.356 . S
N1136 C1128 1.356 . S
N1136 H1142 0.984 . S
N1136 H1143 0.984 . S
N1137 C1130 1.356 . S
N1137 H1140 0.984 . S
N1137 H1141 0.985 . S
H1138 N1133 0.984 . S
H1139 N1133 0.985 . S
H1140 N1137 0.984 . S
H1141 N1137 0.985 . S
H1142 N1136 0.984 . S
H1143 N1136 0.984 . S
H1144 N1132 0.984 . S
H1145 N1132 0.985 . S
C1146 C1147 1.363 . S
C1146 C1152 1.379 . S
C1146 N1154 1.356 . S
C1147 C1146 1.363 . S
C1147 C1153 1.363 . S
C1148 C1149 1.363 . S
C1148 C1153 1.379 . S
C1148 N1155 1.356 . S
C1149 C1148 1.363 . S
C1149 C1152 1.363 . S
N1150 C1152 1.356 . S
N1150 H1162 0.984 . S
N1150 H1163 0.985 . S
N1151 C1153 1.356 . S
N1151 H1156 0.984 . S
N1151 H1157 0.985 . S
C1152 C1146 1.379 . S
C1152 C1149 1.363 . S
C1152 N1150 1.356 . S
C1153 C1147 1.363 . S
C1153 C1148 1.379 . S
C1153 N1151 1.356 . S
N1154 C1146 1.356 . S
N1154 H1160 0.984 . S
N1154 H1161 0.984 . S
N1155 C1148 1.356 . S
N1155 H1158 0.984 . S
N1155 H1159 0.985 . S
H1156 N1151 0.984 . S
H1157 N1151 0.985 . S
H1158 N1155 0.984 . S
H1159 N1155 0.985 . S
H1160 N1154 0.984 . S
H1161 N1154 0.984 . S
H1162 N1150 0.984 . S
H1163 N1150 0.985 . S
C1164 C1165 1.363 . S
C1164 C1170 1.379 . S
C1164 N1172 1.356 . S
C1165 C1164 1.363 . S
C1165 C1171 1.363 . S
C1166 C1167 1.363 . S
C1166 C1171 1.379 . S
C1166 N1173 1.356 . S
C1167 C1166 1.363 . S
C1167 C1170 1.363 . S
N1168 C1170 1.356 . S
N1168 H1180 0.984 . S
N1168 H1181 0.985 . S
N1169 C1171 1.356 . S
N1169 H1174 0.984 . S
N1169 H1175 0.985 . S
C1170 C1164 1.379 . S
C1170 C1167 1.363 . S
C1170 N1168 1.356 . S
C1171 C1165 1.363 . S
C1171 C1166 1.379 . S
C1171 N1169 1.356 . S
N1172 C1164 1.356 . S
N1172 H1178 0.984 . S
N1172 H1179 0.984 . S
N1173 C1166 1.356 . S
N1173 H1176 0.984 . S
N1173 H1177 0.985 . S
H1174 N1169 0.984 . S
H1175 N1169 0.985 . S
H1176 N1173 0.984 . S
H1177 N1173 0.985 . S
H1178 N1172 0.984 . S
H1179 N1172 0.984 . S
H1180 N1168 0.984 . S
H1181 N1168 0.985 . S
C1182 C1183 1.363 . S
C1182 C1188 1.379 . S
C1182 N1190 1.356 . S
C1183 C1182 1.363 . S
C1183 C1189 1.363 . S
C1184 C1185 1.363 . S
C1184 C1189 1.379 . S
C1184 N1191 1.356 . S
C1185 C1184 1.363 . S
C1185 C1188 1.363 . S
N1186 C1188 1.356 . S
N1186 H1198 0.984 . S
N1186 H1199 0.985 . S
N1187 C1189 1.356 . S
N1187 H1192 0.984 . S
N1187 H1193 0.985 . S
C1188 C1182 1.379 . S
C1188 C1185 1.363 . S
C1188 N1186 1.356 . S
C1189 C1183 1.363 . S
C1189 C1184 1.379 . S
C1189 N1187 1.356 . S
N1190 C1182 1.356 . S
N1190 H1196 0.984 . S
N1190 H1197 0.984 . S
N1191 C1184 1.356 . S
N1191 H1194 0.984 . S
N1191 H1195 0.985 . S
H1192 N1187 0.984 . S
H1193 N1187 0.985 . S
H1194 N1191 0.984 . S
H1195 N1191 0.985 . S
H1196 N1190 0.984 . S
H1197 N1190 0.984 . S
H1198 N1186 0.984 . S
H1199 N1186 0.985 . S
C337 C223 1.388 . S
C339 C13 1.388 . S
C355 C27 1.388 . S
C357 C237 1.388 . S
C373 C41 1.388 . S
C375 C251 1.388 . S
C391 C55 1.388 . S
C393 C181 1.388 . S
C409 C195 1.388 . S
C411 C69 1.388 . S
C427 C83 1.388 . S
C429 C209 1.388 . S
C445 C307 1.388 . S
C447 C97 1.388 . S
C463 C111 1.388 . S
C465 C321 1.388 . S
C481 C125 1.388 . S
C483 C335 1.388 . S
C499 C265 1.388 . S
C501 C139 1.388 . S
C517 C153 1.388 . S
C519 C279 1.388 . S
C535 C293 1.388 . S
C537 C167 1.388 . S
C553 C11 1.400 . S
C555 C333 1.400 . S
C571 C263 1.399 . S
C573 C25 1.399 . S
C589 C39 1.399 . S
C591 C277 1.399 . S
C607 C291 1.400 . S
C609 C53 1.400 . S
C625 C67 1.399 . S
C627 C305 1.399 . S
C643 C319 1.399 . S
C645 C81 1.399 . S
C661 C95 1.400 . S
C663 C193 1.400 . S
C679 C207 1.399 . S
C681 C109 1.399 . S
C697 C221 1.399 . S
C699 C123 1.399 . S
C715 C235 1.400 . S
C717 C137 1.400 . S
C733 C151 1.399 . S
C735 C249 1.399 . S
C751 C165 1.399 . S
C753 C179 1.399 . S
C769 C105 1.167 . S
C771 C7 1.167 . S
C787 C119 1.168 . S
C789 C21 1.168 . S
C805 C133 1.167 . S
C807 C35 1.167 . S
C823 C147 1.167 . S
C825 C49 1.167 . S
C841 C63 1.167 . S
C843 C161 1.167 . S
C859 C77 1.167 . S
C861 C91 1.167 . S
C877 C175 1.167 . S
C879 C273 1.167 . S
C895 C189 1.167 . S
C897 C287 1.167 . S
C913 C301 1.167 . S
C915 C203 1.167 . S
C931 C315 1.167 . S
C933 C217 1.167 . S
C949 C329 1.167 . S
C951 C231 1.167 . S
C967 C259 1.167 . S
C969 C245 1.167 . S
C985 C8 1.435 . S
C987 C274 1.435 . S
C1003 C288 1.435 . S
C1005 C22 1.435 . S
C1021 C36 1.435 . S
C1023 C302 1.435 . S
C1039 C316 1.435 . S
C1041 C50 1.435 . S
C1057 C64 1.435 . S
C1059 C330 1.435 . S
C1075 C260 1.435 . S
C1077 C78 1.435 . S
C1093 C92 1.435 . S
C1095 C246 1.435 . S
C1111 C176 1.435 . S
C1113 C106 1.435 . S
C1129 C120 1.435 . S
C1131 C190 1.435 . S
C1147 C134 1.435 . S
C1149 C204 1.435 . S
C1165 C148 1.435 . S
C1167 C218 1.435 . S
C1183 C162 1.435 . S
C1185 C232 1.435 . S
