# Generated by pormake.
# Topology snk, (6)-cn, num edge types: 1
# Building blocks:
#     Node 0, Type 0, BuildingBlock: UKALOJ_clean_sbu_0, # of connection points: 6
#     Node 1, Type 0, BuildingBlock: UKALOJ_clean_sbu_0, # of connection points: 6
#     Node 2, Type 0, BuildingBlock: UKALOJ_clean_sbu_0, # of connection points: 6
#     Node 3, Type 0, BuildingBlock: UKALOJ_clean_sbu_0, # of connection points: 6
#     Node 4, Type 0, BuildingBlock: UKALOJ_clean_sbu_0, # of connection points: 6
#     Node 5, Type 0, BuildingBlock: UKALOJ_clean_sbu_0, # of connection points: 6
#     Node 6, Type 0, BuildingBlock: UKALOJ_clean_sbu_0, # of connection points: 6
#     Node 7, Type 0, BuildingBlock: UKALOJ_clean_sbu_0, # of connection points: 6
#     Edge 8, Type (0, 0), BuildingBlock: ZUJKAS_clean_linker_0, # of connection points: 2
#     Edge 9, Type (0, 0), BuildingBlock: ZUJKAS_clean_linker_0, # of connection points: 2
#     Edge 10, Type (0, 0), BuildingBlock: ZUJKAS_clean_linker_0, # of connection points: 2
#     Edge 11, Type (0, 0), BuildingBlock: ZUJKAS_clean_linker_0, # of connection points: 2
#     Edge 12, Type (0, 0), BuildingBlock: ZUJKAS_clean_linker_0, # of connection points: 2
#     Edge 13, Type (0, 0), BuildingBlock: ZUJKAS_clean_linker_0, # of connection points: 2
#     Edge 14, Type (0, 0), BuildingBlock: ZUJKAS_clean_linker_0, # of connection points: 2
#     Edge 15, Type (0, 0), BuildingBlock: ZUJKAS_clean_linker_0, # of connection points: 2
#     Edge 16, Type (0, 0), BuildingBlock: ZUJKAS_clean_linker_0, # of connection points: 2
#     Edge 17, Type (0, 0), BuildingBlock: ZUJKAS_clean_linker_0, # of connection points: 2
#     Edge 18, Type (0, 0), BuildingBlock: ZUJKAS_clean_linker_0, # of connection points: 2
#     Edge 19, Type (0, 0), BuildingBlock: ZUJKAS_clean_linker_0, # of connection points: 2
#     Edge 20, Type (0, 0), BuildingBlock: ZUJKAS_clean_linker_0, # of connection points: 2
#     Edge 21, Type (0, 0), BuildingBlock: ZUJKAS_clean_linker_0, # of connection points: 2
#     Edge 22, Type (0, 0), BuildingBlock: ZUJKAS_clean_linker_0, # of connection points: 2
#     Edge 23, Type (0, 0), BuildingBlock: ZUJKAS_clean_linker_0, # of connection points: 2
#     Edge 24, Type (0, 0), BuildingBlock: ZUJKAS_clean_linker_0, # of connection points: 2
#     Edge 25, Type (0, 0), BuildingBlock: ZUJKAS_clean_linker_0, # of connection points: 2
#     Edge 26, Type (0, 0), BuildingBlock: ZUJKAS_clean_linker_0, # of connection points: 2
#     Edge 27, Type (0, 0), BuildingBlock: ZUJKAS_clean_linker_0, # of connection points: 2
#     Edge 28, Type (0, 0), BuildingBlock: ZUJKAS_clean_linker_0, # of connection points: 2
#     Edge 29, Type (0, 0), BuildingBlock: ZUJKAS_clean_linker_0, # of connection points: 2
#     Edge 30, Type (0, 0), BuildingBlock: ZUJKAS_clean_linker_0, # of connection points: 2
#     Edge 31, Type (0, 0), BuildingBlock: ZUJKAS_clean_linker_0, # of connection points: 2
# Relax obj value: 0.096
# Max RMSD: 0.097
# Mean RMSD: 0.088
data_MOF--net-snk--node1-UKALOJ_clean_sbu_0--edge1-ZUJKAS_clean_linker_0
_symmetry_space_group_name_H-M    P1
_symmetry_Int_Tables_number       1
_symmetry_cell_setting            triclinic
loop_
_symmetry_equiv_pos_as_xyz
'x, y, z'
_cell_length_a     59.973671
_cell_length_b     59.692253
_cell_length_c     19.780236
_cell_angle_alpha  83.464277
_cell_angle_beta   83.527443
_cell_angle_gamma 93.20165
loop_
_atom_site_label
_atom_site_type_symbol
_atom_site_fract_x
_atom_site_fract_y
_atom_site_fract_z
_atom_type_partial_charge
Zn0 Zn 0.03829 1.01676 0.49102 0.0
O1 O 0.04036 1.01903 0.59538 0.0
C2 C 0.99216 0.99222 0.5249 0.0
Zn3 Zn 1.01179 0.04151 0.49151 0.0
C4 C 0.0275 0.03135 0.62799 0.0
O5 O 1.01369 0.04272 0.5967 0.0
C6 C 0.02262 0.02695 0.35447 0.0
O7 O 0.03723 0.06984 0.46697 0.0
O8 O 0.0631 0.04542 0.46425 0.0
N9 N 0.98621 0.06294 0.49562 0.0
C10 C 0.9805 0.08002 0.45144 0.0
C11 C 0.95615 0.07661 0.53983 0.0
N12 N 0.97104 0.06089 0.5504 0.0
N13 N 0.96158 0.08883 0.47794 0.0
C14 C 0.06966 0.97786 0.52851 0.0
C15 C 0.09696 0.98611 0.44915 0.0
N16 N 0.06413 0.99569 0.48678 0.0
N17 N 0.08107 1.00061 0.43733 0.0
N18 N 0.09028 0.9716 0.50603 0.0
H19 H 0.06599 0.9649 0.63543 0.0
H20 H 0.04806 0.95072 0.58449 0.0
H21 H 0.04146 0.97789 0.60741 0.0
C22 C 0.05547 0.96747 0.59287 0.0
C23 C 0.99408 0.08865 0.38428 0.0
H24 H 1.0118 0.08442 0.38396 0.0
H25 H 0.99343 0.10723 0.37332 0.0
H26 H 0.98699 0.08061 0.34283 0.0
O27 O 1.01018 0.0398 0.38647 0.0
O28 O 0.03599 1.01512 0.38634 0.0
C29 C 0.05799 0.06594 0.45765 0.0
O30 O 1.01298 0.98841 0.5175 0.0
O31 O 0.98692 1.01271 0.51663 0.0
Zn32 Zn 0.26684 0.77262 0.76182 0.0
O33 O 0.24265 0.79666 0.7505 0.0
C34 C 0.28087 0.78012 0.61436 0.0
Zn35 Zn 0.29372 0.80007 0.73895 0.0
C36 C 0.24832 0.81757 0.73409 0.0
O37 O 0.26909 0.82424 0.72601 0.0
C38 C 0.31171 0.75438 0.76635 0.0
O39 O 0.29354 0.80568 0.84328 0.0
O40 O 0.26717 0.77804 0.86482 0.0
N41 N 0.31885 0.82429 0.70576 0.0
C42 C 0.34005 0.82574 0.72147 0.0
C43 C 0.33873 0.84954 0.63314 0.0
N44 N 0.31799 0.83912 0.65096 0.0
N45 N 0.35284 0.84099 0.67599 0.0
C46 C 0.22571 0.73934 0.76317 0.0
C47 C 0.22556 0.71904 0.85926 0.0
N48 N 0.24256 0.74778 0.79398 0.0
N49 N 0.24235 0.73531 0.85399 0.0
N50 N 0.21491 0.72128 0.80284 0.0
H51 H 0.2234 0.76749 0.68608 0.0
H52 H 0.20133 0.74518 0.69195 0.0
H53 H 0.22926 0.74116 0.65394 0.0
C54 C 0.2195 0.74896 0.69499 0.0
C55 C 0.34825 0.81309 0.78277 0.0
H56 H 0.33435 0.80424 0.81905 0.0
H57 H 0.35777 0.82506 0.80975 0.0
H58 H 0.36003 0.80067 0.76563 0.0
O59 O 0.31793 0.77523 0.75145 0.0
O60 O 0.29088 0.74839 0.7733 0.0
C61 C 0.27986 0.79272 0.88623 0.0
O62 O 0.26692 0.7674 0.65707 0.0
O63 O 0.29372 0.79455 0.63613 0.0
Zn64 Zn 0.52886 0.03659 0.96816 0.0
O65 O 0.50215 0.05803 0.98066 0.0
C66 C 0.51913 1.01842 0.11664 0.0
Zn67 Zn 0.50272 1.00835 -0.0119 0.0
C68 C 0.48158 0.05125 -0.00327 0.0
O69 O 0.47604 0.03014 0.00364 0.0
C70 C 0.55044 0.99402 0.96001 0.0
O71 O 0.4998 1.01213 0.88152 0.0
O72 O 0.52661 0.03941 0.86242 0.0
N73 N 0.48102 0.98043 0.00568 0.0
C74 C 0.48231 0.96087 0.9782 0.0
C75 C 0.45592 0.95571 0.06143 0.0
N76 N 0.46464 0.97723 0.05748 0.0
N77 N 0.46718 0.94505 0.01323 0.0
C78 C 0.55537 0.07917 -0.0045 0.0
C79 C 0.58334 0.08219 0.91768 0.0
N80 N 0.55165 0.06345 0.95376 0.0
N81 N 0.56887 0.06554 0.9047 0.0
N82 N 0.57515 0.09096 0.97436 0.0
H83 H 0.52278 0.07648 0.05752 0.0
H84 H 0.54099 0.1008 0.06613 0.0
H85 H 0.54647 0.0734 0.10446 0.0
C86 C 0.54037 0.0826 0.05912 0.0
C87 C 0.49722 0.95737 0.91441 0.0
H88 H 0.5058 0.97318 0.88737 0.0
H89 H 0.4871 0.94931 0.87895 0.0
H90 H 0.51017 0.94571 0.92782 0.0
O91 O 0.5299 0.98684 0.97366 0.0
O92 O 0.55545 1.01512 0.95477 0.0
C93 C 0.51246 0.02645 0.83971 0.0
O94 O 0.53125 0.03321 0.07516 0.0
O95 O 0.50541 1.00517 0.09357 0.0
Zn96 Zn 0.2869 0.26588 0.23788 0.0
O97 O 0.28494 0.26346 0.13325 0.0
C98 C 0.31118 0.31249 0.20299 0.0
Zn99 Zn 0.26237 0.29269 0.23753 0.0
C100 C 0.27238 0.27622 0.10114 0.0
O101 O 0.26106 0.28998 0.13281 0.0
C102 C 0.2768 0.28238 0.37425 0.0
O103 O 0.23437 0.26704 0.26415 0.0
O104 O 0.25849 0.2408 0.26486 0.0
N105 N 0.24064 0.31804 0.2311 0.0
C106 C 0.22437 0.32473 0.27581 0.0
C107 C 0.22531 0.34646 0.18208 0.0
N108 N 0.24115 0.33159 0.17297 0.0
N109 N 0.2146 0.34259 0.2463 0.0
C110 C 0.32375 0.23282 0.19815 0.0
C111 C 0.32244 0.2107 0.29121 0.0
N112 N 0.30838 0.24026 0.24408 0.0
N113 N 0.30768 0.2265 0.30188 0.0
N114 N 0.33268 0.21419 0.22637 0.0
H115 H 0.3285 0.26283 0.12491 0.0
H116 H 0.32056 0.23714 0.09123 0.0
H117 H 0.34881 0.24198 0.11097 0.0
C118 C 0.3309 0.24449 0.12731 0.0
C119 C 0.21722 0.31302 0.34662 0.0
H120 H 0.22073 0.29493 0.34997 0.0
H121 H 0.19902 0.31449 0.36162 0.0
H122 H 0.22673 0.32117 0.38323 0.0
O123 O 0.26423 0.29511 0.34204 0.0
O124 O 0.28821 0.26864 0.34267 0.0
C125 C 0.23812 0.24613 0.27269 0.0
O126 O 0.31496 0.29156 0.2112 0.0
O127 O 0.29079 0.31778 0.21078 0.0
Zn128 Zn 0.76746 0.27521 0.27308 0.0
O129 O 0.74441 0.30029 0.25835 0.0
C130 C 0.78191 0.28212 0.12482 0.0
Zn131 Zn 0.79498 0.30201 0.24851 0.0
C132 C 0.75062 0.32109 0.24174 0.0
O133 O 0.77151 0.32728 0.23483 0.0
C134 C 0.81135 0.25557 0.2787 0.0
O135 O 0.79488 0.30743 0.35327 0.0
O136 O 0.7673 0.28105 0.3757 0.0
N137 N 0.82145 0.32495 0.21655 0.0
C138 C 0.84263 0.32451 0.23257 0.0
C139 C 0.84313 0.34887 0.14457 0.0
N140 N 0.82173 0.34012 0.16194 0.0
N141 N 0.85655 0.33889 0.18732 0.0
C142 C 0.72523 0.2435 0.27281 0.0
C143 C 0.72377 0.22337 0.3697 0.0
N144 N 0.74213 0.25138 0.30454 0.0
N145 N 0.7411 0.23903 0.36505 0.0
N146 N 0.7136 0.22589 0.31239 0.0
H147 H 0.72451 0.27163 0.19433 0.0
H148 H 0.70162 0.25019 0.1997 0.0
H149 H 0.72942 0.24488 0.1637 0.0
C150 C 0.71982 0.25323 0.20378 0.0
C151 C 0.8497 0.31082 0.2941 0.0
H152 H 0.8353 0.3053 0.33344 0.0
H153 H 0.86235 0.32086 0.31715 0.0
H154 H 0.85767 0.29565 0.27818 0.0
O155 O 0.81792 0.27618 0.26076 0.0
O156 O 0.79043 0.25 0.28834 0.0
C157 C 0.78064 0.29526 0.39659 0.0
O158 O 0.76803 0.26953 0.16818 0.0
O159 O 0.79481 0.29669 0.14577 0.0
Zn160 Zn 0.78684 0.76578 0.7367 0.0
O161 O 0.78444 0.76341 0.63255 0.0
C162 C 0.81148 0.81198 0.70121 0.0
Zn163 Zn 0.76236 0.7926 0.73619 0.0
C164 C 0.77204 0.77622 0.60003 0.0
O165 O 0.76078 0.79013 0.63129 0.0
C166 C 0.77719 0.78205 0.87295 0.0
O167 O 0.734 0.76733 0.76278 0.0
O168 O 0.75811 0.74113 0.76423 0.0
N169 N 0.74102 0.81832 0.73062 0.0
C170 C 0.72486 0.82503 0.77562 0.0
C171 C 0.72615 0.84723 0.68269 0.0
N172 N 0.74175 0.83216 0.67298 0.0
N173 N 0.71537 0.8432 0.74681 0.0
C174 C 0.82473 0.73325 0.69931 0.0
C175 C 0.81659 0.70649 0.78089 0.0
N176 N 0.80755 0.73954 0.74171 0.0
N177 N 0.80271 0.72294 0.79254 0.0
N178 N 0.83062 0.71246 0.72271 0.0
H179 H 0.82522 0.7617 0.62039 0.0
H180 H 0.83559 0.73603 0.59123 0.0
H181 H 0.85217 0.75312 0.63863 0.0
C182 C 0.83478 0.74683 0.63343 0.0
C183 C 0.71752 0.81307 0.84602 0.0
H184 H 0.72106 0.795 0.84898 0.0
H185 H 0.69928 0.81449 0.86054 0.0
H186 H 0.72686 0.8211 0.88324 0.0
O187 O 0.76451 0.79471 0.84091 0.0
O188 O 0.78863 0.76836 0.84124 0.0
C189 C 0.73775 0.74643 0.77175 0.0
O190 O 0.81523 0.79104 0.70936 0.0
O191 O 0.79111 0.81734 0.70932 0.0
Zn192 Zn 0.53829 0.51698 -0.00783 0.0
O193 O 0.54065 0.51921 0.09644 0.0
C194 C 0.49216 0.4924 0.02707 0.0
Zn195 Zn 0.5117 0.54164 -0.00739 0.0
C196 C 0.5279 0.53166 0.12892 0.0
O197 O 0.5141 0.54303 0.09757 0.0
C198 C 0.52217 0.52692 0.8558 0.0
O199 O 0.53697 0.56999 0.9666 0.0
O200 O 0.56302 0.54574 0.96494 0.0
N201 N 0.48627 0.56322 -0.00198 0.0
C202 C 0.47991 0.57972 0.95315 0.0
C203 C 0.45739 0.57811 0.04524 0.0
N204 N 0.47224 0.5623 0.05515 0.0
N205 N 0.46176 0.58924 0.98153 0.0
C206 C 0.57041 0.47867 0.02947 0.0
C207 C 0.59687 0.48652 0.94727 0.0
N208 N 0.5642 0.49597 -0.01296 0.0
N209 N 0.58061 0.50062 0.93581 0.0
N210 N 0.59095 0.47252 0.00568 0.0
H211 H 0.54191 0.47802 0.10771 0.0
H212 H 0.56783 0.46906 0.13811 0.0
H213 H 0.55156 0.45101 0.09279 0.0
C214 C 0.5571 0.46884 0.09595 0.0
C215 C 0.4922 0.5873 0.88338 0.0
H216 H 0.49098 0.60569 0.86936 0.0
H217 H 0.4844 0.57816 0.84529 0.0
H218 H 0.51013 0.58359 0.88114 0.0
O219 O 0.50962 0.53969 0.88779 0.0
O220 O 0.53573 0.51533 0.8876 0.0
C221 C 0.55776 0.56621 0.95761 0.0
O222 O 0.51299 0.48858 0.01914 0.0
O223 O 0.4869 0.51289 0.01897 0.0
Zn224 Zn 1.00146 0.50888 0.47636 0.0
O225 O 0.99819 0.51237 0.36993 0.0
C226 C 0.04899 0.49414 0.44867 0.0
Zn227 Zn 0.02773 0.53701 0.45573 0.0
C228 C 1.01104 0.52646 0.32787 0.0
O229 O 0.02538 0.53928 0.35028 0.0
C230 C 1.0182 0.5194 0.60435 0.0
O231 O 1.00131 0.55874 0.46704 0.0
O232 O 0.97505 0.53101 0.49219 0.0
N233 N 0.0508 0.56364 0.43951 0.0
C234 C 0.0548 0.57964 0.48005 0.0
C235 C 0.08293 0.58144 0.4032 0.0
N236 N 0.06811 0.565 0.39094 0.0
N237 N 0.07487 0.59087 0.45878 0.0
C238 C 0.98085 0.46117 0.47045 0.0
C239 C 0.95551 0.45627 0.55658 0.0
N240 N 0.97953 0.48106 0.49601 0.0
N241 N 0.96376 0.47804 0.54951 0.0
N242 N 0.96641 0.44531 0.50845 0.0
H243 H 1.00229 0.47314 0.37534 0.0
H244 H 0.98536 0.44735 0.37447 0.0
H245 H 1.0095 0.4473 0.41969 0.0
C246 C 0.99532 0.45729 0.40623 0.0
C247 C 0.03997 0.58365 0.54337 0.0
H248 H 0.02227 0.57781 0.54207 0.0
H249 H 0.04095 0.60193 0.54938 0.0
H250 H 0.04598 0.57458 0.58907 0.0
O251 O 0.03022 0.53422 0.56267 0.0
O252 O 1.00456 0.50601 0.58149 0.0
C253 C 0.98073 0.55211 0.484 0.0
O254 O 0.02841 0.48707 0.4617 0.0
O255 O 0.0541 0.51522 0.4435 0.0
H256 H 0.05353 0.11205 0.43699 0.0
H257 H 0.08326 0.14264 0.40487 0.0
H258 H 0.13339 0.09369 0.40469 0.0
H259 H 0.10386 0.06312 0.43574 0.0
H260 H 0.119 0.15667 0.46793 0.0
H261 H 0.15203 0.12953 0.2198 0.0
H262 H 0.12569 0.11775 0.26696 0.0
H263 H 0.15187 0.10782 0.29048 0.0
C264 C 0.07087 0.10774 0.42992 0.0
C265 C 0.0761 0.08492 0.43876 0.0
C266 C 0.08795 0.12534 0.41153 0.0
C267 C 0.11079 0.12071 0.4008 0.0
C268 C 0.11602 0.09794 0.41067 0.0
H269 H 0.24036 0.19988 0.29365 0.0
H270 H 0.20956 0.17055 0.32518 0.0
C271 C 0.099 0.08036 0.42904 0.0
C272 C 0.12909 0.13956 0.38061 0.0
H273 H 0.17417 0.15823 0.2607 0.0
C274 C 0.13094 0.15704 0.4223 0.0
C275 C 0.14491 0.14032 0.3211 0.0
C276 C 0.14345 0.12299 0.27161 0.0
C277 C 0.14825 0.17465 0.40741 0.0
C278 C 0.16415 0.17532 0.34813 0.0
C279 C 0.1622 0.15791 0.30624 0.0
C280 C 0.18303 0.19365 0.32903 0.0
C281 C 0.14972 0.19199 0.45686 0.0
C282 C 0.17876 0.21672 0.31944 0.0
C283 C 0.19648 0.23366 0.30137 0.0
C284 C 0.21908 0.2281 0.29177 0.0
C285 C 0.22329 0.20499 0.30063 0.0
C286 C 0.20558 0.18808 0.31867 0.0
H287 H 0.14073 0.18567 0.5083 0.0
H288 H 0.16749 0.19683 0.46256 0.0
H289 H 0.14178 0.20737 0.43713 0.0
H290 H 0.16163 0.22169 0.3252 0.0
H291 H 0.19241 0.25116 0.29472 0.0
H292 H 0.13407 0.97857 0.51909 0.0
H293 H 0.1588 0.95132 0.56721 0.0
H294 H 0.10288 0.90118 0.61314 0.0
H295 H 0.07826 0.92825 0.56267 0.0
H296 H 0.15633 0.92772 0.69879 0.0
H297 H 0.15029 0.86938 0.50052 0.0
H298 H 0.1408 0.8976 0.49061 0.0
H299 H 0.1239 0.87536 0.54506 0.0
C300 C 0.12708 0.96172 0.53952 0.0
C301 C 0.10419 0.95562 0.53792 0.0
C302 C 0.14117 0.94622 0.56724 0.0
C303 C 0.13274 0.92417 0.5933 0.0
C304 C 0.10979 0.91805 0.59268 0.0
H305 H 0.20288 0.80812 0.74411 0.0
H306 H 0.17418 0.83397 0.71615 0.0
C307 C 0.09565 0.93362 0.56483 0.0
C308 C 0.14822 0.90767 0.61986 0.0
H309 H 0.17198 0.85856 0.58947 0.0
C310 C 0.15971 0.91255 0.67508 0.0
C311 C 0.15261 0.88792 0.58875 0.0
C312 C 0.14143 0.88225 0.52759 0.0
C313 C 0.1755 0.89819 0.70005 0.0
C314 C 0.18016 0.87865 0.6682 0.0
C315 C 0.16838 0.87357 0.61378 0.0
C316 C 0.19752 0.86343 0.68938 0.0
C317 C 0.18689 0.90396 0.76067 0.0
C318 C 0.22021 0.87142 0.68367 0.0
C319 C 0.23672 0.85668 0.6997 0.0
C320 C 0.23083 0.83363 0.72137 0.0
C321 C 0.20803 0.82577 0.72777 0.0
C322 C 0.19158 0.84051 0.71172 0.0
H323 H 0.17721 0.91568 0.79038 0.0
H324 H 0.18909 0.88849 0.79546 0.0
H325 H 0.20378 0.91239 0.74211 0.0
H326 H 0.22524 0.88896 0.6652 0.0
H327 H 0.25412 0.86325 0.6938 0.0
H328 H 0.38603 0.81316 0.65753 0.0
H329 H 0.42327 0.81848 0.69624 0.0
H330 H 0.409 0.88647 0.73251 0.0
H331 H 0.37202 0.88104 0.69357 0.0
H332 H 0.45652 0.8793 0.69815 0.0
H333 H 0.41222 0.81628 0.90745 0.0
H334 H 0.41725 0.80922 0.82125 0.0
H335 H 0.39684 0.82906 0.84177 0.0
C336 C 0.39144 0.82951 0.67105 0.0
C337 C 0.37634 0.84662 0.67437 0.0
C338 C 0.41259 0.83251 0.69304 0.0
C339 C 0.41856 0.85264 0.71867 0.0
C340 C 0.40463 0.87077 0.71294 0.0
H341 H 0.42773 0.92699 -0.01299 0.0
H342 H 0.42308 0.8942 0.92476 0.0
C343 C 0.38356 0.86775 0.6908 0.0
C344 C 0.43589 0.85358 0.76563 0.0
H345 H 0.43629 0.84443 0.93869 0.0
C346 C 0.45304 0.87092 0.7502 0.0
C347 C 0.43134 0.84236 0.83333 0.0
C348 C 0.41346 0.82315 0.85244 0.0
C349 C 0.46329 0.87969 0.80264 0.0
C350 C 0.45605 0.87076 0.87142 0.0
C351 C 0.44156 0.85121 0.88569 0.0
C352 C 0.45757 0.88528 0.92612 0.0
C353 C 0.47942 0.90042 0.78511 0.0
C354 C 0.47802 0.88996 0.95112 0.0
C355 C 0.48048 0.90848 -0.01256 0.0
C356 C 0.46269 0.92258 -0.0025 0.0
C357 C 0.44157 0.91629 0.97946 0.0
C358 C 0.43901 0.89768 0.94386 0.0
H359 H 0.48432 0.90441 0.72898 0.0
H360 H 0.4715 0.91519 0.80452 0.0
H361 H 0.49485 0.89786 0.81032 0.0
H362 H 0.49241 0.88041 0.93823 0.0
H363 H 0.49675 0.91288 0.00292 0.0
H364 H 0.48958 0.09649 -5e-05 0.0
H365 H 0.46284 0.12369 0.03272 0.0
H366 H 0.4087 0.07164 0.05758 0.0
H367 H 0.43561 0.04394 0.02674 0.0
H368 H 0.42678 0.13924 0.97935 0.0
H369 H 0.40082 0.09523 0.24141 0.0
H370 H 0.42445 0.08735 0.18653 0.0
H371 H 0.39623 0.07826 0.17431 0.0
C372 C 0.47198 0.09074 0.01217 0.0
C373 C 0.46478 0.06793 0.01129 0.0
C374 C 0.45668 0.10638 0.03082 0.0
C375 C 0.4338 0.09968 0.04885 0.0
C376 C 0.42636 0.07711 0.04554 0.0
H377 H 0.33151 0.19769 0.1048 0.0
H378 H 0.3559 0.17015 0.05814 0.0
C379 C 0.44174 0.06132 0.02741 0.0
C380 C 0.41804 0.11639 0.07215 0.0
H381 H 0.38182 0.12756 0.20831 0.0
C382 C 0.4169 0.13667 0.02936 0.0
C383 C 0.40542 0.1132 0.13787 0.0
C384 C 0.40689 0.09245 0.18803 0.0
C385 C 0.40362 0.15386 0.05052 0.0
C386 C 0.39064 0.15046 0.11567 0.0
C387 C 0.39167 0.13012 0.15824 0.0
C388 C 0.37638 0.16796 0.14181 0.0
C389 C 0.40427 0.17577 0.00378 0.0
C390 C 0.37943 0.17562 0.20495 0.0
C391 C 0.36539 0.19121 0.23175 0.0
C392 C 0.34818 0.19964 0.19567 0.0
C393 C 0.34516 0.19208 0.13238 0.0
C394 C 0.35906 0.17629 0.10584 0.0
H395 H 0.41957 0.17809 0.96573 0.0
H396 H 0.3894 0.17562 0.9751 0.0
H397 H 0.40381 0.19049 0.03344 0.0
H398 H 0.39257 0.16938 0.23386 0.0
H399 H 0.36784 0.19662 0.28098 0.0
H400 H 0.94614 0.99463 0.54424 0.0
H401 H 0.91678 0.96378 0.57411 0.0
H402 H 0.96743 0.91537 0.57516 0.0
H403 H 0.99693 0.9462 0.54645 0.0
H404 H 0.90443 0.92873 0.50888 0.0
H405 H 0.93099 0.89368 0.75627 0.0
H406 H 0.94245 0.92062 0.71157 0.0
H407 H 0.95272 0.89478 0.68553 0.0
C408 C 0.95113 0.97744 0.55112 0.0
C409 C 0.97412 0.97312 0.54308 0.0
C410 C 0.9342 0.9597 0.56821 0.0
C411 C 0.93961 0.93698 0.57837 0.0
C412 C 0.96256 0.9326 0.56959 0.0
H413 H 0.85732 0.80717 0.67991 0.0
H414 H 0.888 0.83685 0.64909 0.0
C415 C 0.97952 0.95036 0.55251 0.0
C416 C 0.92123 0.91807 0.59638 0.0
H417 H 0.90216 0.87229 0.71424 0.0
C418 C 0.90397 0.91649 0.55402 0.0
C419 C 0.92034 0.9018 0.65514 0.0
C420 C 0.93747 0.90286 0.70516 0.0
C421 C 0.88633 0.89921 0.56791 0.0
C422 C 0.88535 0.88303 0.62686 0.0
C423 C 0.90269 0.8845 0.669 0.0
C424 C 0.86643 0.86474 0.64604 0.0
C425 C 0.86915 0.8982 0.51799 0.0
C426 C 0.84382 0.87016 0.65595 0.0
C427 C 0.82619 0.85315 0.67361 0.0
C428 C 0.83051 0.83007 0.68249 0.0
C429 C 0.85317 0.82465 0.67344 0.0
C430 C 0.87083 0.84171 0.65582 0.0
H431 H 0.87577 0.90704 0.46655 0.0
H432 H 0.86383 0.88045 0.51244 0.0
H433 H 0.8541 0.90667 0.53708 0.0
H434 H 0.83974 0.88766 0.65066 0.0
H435 H 0.80909 0.85818 0.6805 0.0
H436 H 0.95257 0.09834 0.34604 0.0
H437 H 0.93026 0.12848 0.3014 0.0
H438 H 0.9175 0.14866 0.504 0.0
H439 H 0.94094 0.11944 0.54779 0.0
H440 H 0.88715 0.13397 0.33166 0.0
H441 H 0.93516 0.20893 0.395 0.0
H442 H 0.94625 0.18139 0.39888 0.0
H443 H 0.92741 0.18871 0.46931 0.0
C444 C 0.94578 0.10975 0.38049 0.0
C445 C 0.9492 0.10701 0.45004 0.0
C446 C 0.93272 0.12677 0.35513 0.0
C447 C 0.92262 0.14125 0.39893 0.0
C448 C 0.92569 0.13825 0.46863 0.0
H449 H 0.80373 0.21352 0.35071 0.0
H450 H 0.83128 0.18591 0.37438 0.0
C451 C 0.9389 0.1214 0.49378 0.0
C452 C 0.90775 0.15855 0.37294 0.0
H453 H 0.8972 0.21421 0.37202 0.0
C454 C 0.88951 0.15157 0.33978 0.0
C455 C 0.91099 0.18162 0.38233 0.0
C456 C 0.93116 0.19065 0.41264 0.0
C457 C 0.87401 0.16682 0.31802 0.0
C458 C 0.87642 0.18956 0.33161 0.0
C459 C 0.89512 0.19672 0.36248 0.0
C460 C 0.85956 0.20612 0.31557 0.0
C461 C 0.85536 0.15839 0.28015 0.0
C462 C 0.86631 0.22699 0.27625 0.0
C463 C 0.85063 0.24299 0.26366 0.0
C464 C 0.82786 0.23841 0.29006 0.0
C465 C 0.8211 0.21746 0.32902 0.0
C466 C 0.83683 0.20158 0.34223 0.0
H467 H 0.86014 0.14352 0.25412 0.0
H468 H 0.84022 0.15302 0.3173 0.0
H469 H 0.8509 0.17177 0.24121 0.0
H470 H 0.88376 0.23093 0.25533 0.0
H471 H 0.85634 0.2589 0.233 0.0
H472 H 0.67359 0.21004 0.38176 0.0
H473 H 0.64646 0.18257 0.34513 0.0
H474 H 0.69198 0.17837 0.16237 0.0
H475 H 0.71896 0.20501 0.19969 0.0
H476 H 0.62657 0.18808 0.22241 0.0
H477 H 0.67538 0.11226 0.23696 0.0
H478 H 0.68183 0.13635 0.28075 0.0
H479 H 0.69203 0.13635 0.19153 0.0
C480 C 0.67763 0.203 0.33413 0.0
C481 C 0.69789 0.20981 0.29244 0.0
C482 C 0.6623 0.18744 0.3134 0.0
C483 C 0.66746 0.17836 0.25159 0.0
C484 C 0.6879 0.18495 0.21077 0.0
H485 H 0.59318 0.13376 0.94568 0.0
H486 H 0.61406 0.15471 0.02177 0.0
C487 C 0.70309 0.20041 0.23136 0.0
C488 C 0.65115 0.16312 0.22612 0.0
H489 H 0.64804 0.11388 0.15541 0.0
C490 C 0.63093 0.1716 0.20905 0.0
C491 C 0.65683 0.14157 0.2099 0.0
C492 C 0.6776 0.13101 0.23147 0.0
C493 C 0.61689 0.15966 0.17163 0.0
C494 C 0.6237 0.1391 0.1497 0.0
C495 C 0.64314 0.12992 0.171 0.0
C496 C 0.61116 0.12691 0.10376 0.0
C497 C 0.59515 0.16931 0.15515 0.0
C498 C 0.60369 0.10424 0.12361 0.0
C499 C 0.59243 0.09235 0.07988 0.0
C500 C 0.58817 0.10304 0.01619 0.0
C501 C 0.59617 0.12549 -0.00485 0.0
C502 C 0.60773 0.1374 0.03877 0.0
H503 H 0.58912 0.18075 0.19283 0.0
H504 H 0.59794 0.17934 0.10377 0.0
H505 H 0.58178 0.15571 0.15454 0.0
H506 H 0.60653 0.09576 0.17301 0.0
H507 H 0.58686 0.07478 0.0958 0.0
H508 H 0.71306 0.86036 0.86802 0.0
H509 H 0.68508 0.88528 0.91153 0.0
H510 H 0.65083 0.88074 0.73248 0.0
H511 H 0.67925 0.85639 0.68833 0.0
H512 H 0.65599 0.92291 0.75541 0.0
H513 H 0.62173 0.87198 0.00055 0.0
H514 H 0.65161 0.87787 -0.00648 0.0
H515 H 0.63981 0.86067 0.93548 0.0
C516 C 0.69924 0.86432 0.83895 0.0
C517 C 0.69799 0.85619 0.7755 0.0
C518 C 0.68325 0.87854 0.86377 0.0
C519 C 0.66554 0.88459 0.82599 0.0
C520 C 0.66425 0.87626 0.76279 0.0
H521 H 0.5453 0.94793 0.9672 0.0
H522 H 0.57367 0.92205 0.9354 0.0
C523 C 0.6804 0.86234 0.73762 0.0
C524 C 0.64907 0.9006 0.84995 0.0
H525 H 0.6111 0.90989 0.98439 0.0
C526 C 0.64612 0.92 0.80542 0.0
C527 C 0.63599 0.89673 0.91493 0.0
C528 C 0.63725 0.87557 0.9636 0.0
C529 C 0.63051 0.93558 0.82382 0.0
C530 C 0.618 0.93213 0.88972 0.0
C531 C 0.62089 0.91271 0.93426 0.0
C532 C 0.60109 0.94793 0.91212 0.0
C533 C 0.62712 0.95516 0.77145 0.0
C534 C 0.60708 0.97106 0.91141 0.0
C535 C 0.59073 0.98601 0.92818 0.0
C536 C 0.56811 0.97805 0.94716 0.0
C537 C 0.56241 0.95472 0.95128 0.0
C538 C 0.57869 0.93985 0.93363 0.0
H539 H 0.63296 0.95177 0.71849 0.0
H540 H 0.60915 0.95893 0.77398 0.0
H541 H 0.63703 0.97042 0.78166 0.0
H542 H 0.62437 0.97762 0.89711 0.0
H543 H 0.59579 1.00383 0.92536 0.0
H544 H 0.60372 0.56381 0.9351 0.0
H545 H 0.633 0.59471 0.90452 0.0
H546 H 0.58224 0.64302 0.9045 0.0
H547 H 0.55286 0.61218 0.93608 0.0
H548 H 0.64181 0.62634 0.79348 0.0
H549 H 0.62412 0.67063 0.02299 0.0
H550 H 0.61199 0.6426 0.01806 0.0
H551 H 0.60022 0.66695 0.97734 0.0
C552 C 0.5987 0.581 0.92901 0.0
C553 C 0.57573 0.58531 0.93872 0.0
C554 C 0.61557 0.59876 0.9113 0.0
C555 C 0.61013 0.62149 0.90311 0.0
C556 C 0.58718 0.62583 0.91202 0.0
H557 H 0.69192 0.75121 0.79308 0.0
H558 H 0.66127 0.72146 0.82288 0.0
C559 C 0.57027 0.60806 0.92973 0.0
C560 C 0.62841 0.64039 0.88373 0.0
H561 H 0.65057 0.68939 0.93341 0.0
C562 C 0.64371 0.64005 0.82441 0.0
C563 C 0.63112 0.65855 0.92339 0.0
C564 C 0.61615 0.65968 -0.01067 0.0
C565 C 0.66116 0.65722 0.80338 0.0
C566 C 0.66399 0.67528 0.84332 0.0
C567 C 0.64861 0.67572 0.90239 0.0
C568 C 0.68289 0.69361 0.82519 0.0
C569 C 0.67608 0.65607 0.73733 0.0
C570 C 0.70555 0.68826 0.81735 0.0
C571 C 0.72315 0.70529 0.80012 0.0
C572 C 0.71877 0.72834 0.79059 0.0
C573 C 0.6961 0.73373 0.79953 0.0
C574 C 0.67847 0.71665 0.81679 0.0
H575 H 0.66777 0.64566 0.70298 0.0
H576 H 0.68077 0.6732 0.70944 0.0
H577 H 0.69171 0.64814 0.74905 0.0
H578 H 0.70971 0.67081 0.82515 0.0
H579 H 0.74029 0.70032 0.79441 0.0
H580 H 0.7051 0.31266 0.24934 0.0
H581 H 0.67736 0.33883 0.21523 0.0
H582 H 0.72957 0.39276 0.16613 0.0
H583 H 0.75759 0.36661 0.19935 0.0
H584 H 0.66491 0.37964 0.26132 0.0
H585 H 0.70094 0.39208 -0.01256 0.0
H586 H 0.70866 0.3697 0.04785 0.0
H587 H 0.72066 0.39807 0.04603 0.0
C588 C 0.71073 0.33013 0.2317 0.0
C589 C 0.73364 0.3375 0.22662 0.0
C590 C 0.69481 0.34506 0.21227 0.0
C591 C 0.70145 0.36763 0.18708 0.0
C592 C 0.72416 0.37528 0.18419 0.0
H593 H 0.63448 0.48164 0.01791 0.0
H594 H 0.66052 0.45584 0.06615 0.0
C595 C 0.74013 0.36035 0.20359 0.0
C596 C 0.68466 0.38297 0.16237 0.0
H597 H 0.67161 0.41505 0.0199 0.0
C598 C 0.66631 0.38736 0.20852 0.0
C599 C 0.68644 0.39285 0.09332 0.0
C600 C 0.7051 0.38782 0.04052 0.0
C601 C 0.65 0.40185 0.18781 0.0
C602 C 0.65195 0.41193 0.11894 0.0
C603 C 0.6702 0.40737 0.07275 0.0
C604 C 0.63561 0.42769 0.09366 0.0
C605 C 0.63111 0.4067 0.24007 0.0
C606 C 0.61294 0.42042 0.09291 0.0
C607 C 0.59803 0.43519 0.06526 0.0
C608 C 0.60558 0.45744 0.03798 0.0
C609 C 0.62825 0.46461 0.03891 0.0
C610 C 0.64309 0.44991 0.06648 0.0
H611 H 0.63482 0.40185 0.29336 0.0
H612 H 0.62785 0.4249 0.23378 0.0
H613 H 0.61552 0.39685 0.23258 0.0
H614 H 0.60695 0.40316 0.11196 0.0
H615 H 0.58089 0.42897 0.06292 0.0
H616 H 0.92722 0.42322 0.49623 0.0
H617 H 0.92326 0.38811 0.44454 0.0
H618 H 0.99447 0.38058 0.44265 0.0
H619 H 0.99813 0.41522 0.49767 0.0
H620 H 0.97865 0.38874 0.31116 0.0
H621 H 0.92793 0.31856 0.47323 0.0
H622 H 0.91724 0.3453 0.48799 0.0
H623 H 0.94503 0.33934 0.50816 0.0
C624 C 0.94173 0.41342 0.48786 0.0
C625 C 0.96304 0.42208 0.49828 0.0
C626 C 0.93952 0.39337 0.4586 0.0
C627 C 0.95865 0.38187 0.43958 0.0
C628 C 0.97957 0.38923 0.45706 0.0
H629 H 0.88706 0.3075 0.18502 0.0
H630 H 0.92414 0.31189 0.22474 0.0
C631 C 0.98166 0.40908 0.48747 0.0
C632 C 0.9572 0.3662 0.38771 0.0
H633 H 0.91964 0.32564 0.35355 0.0
C634 C 0.96652 0.37422 0.32035 0.0
C635 C 0.9419 0.347 0.39981 0.0
C636 C 0.93264 0.33691 0.47144 0.0
C637 C 0.95789 0.36596 0.26442 0.0
C638 C 0.93973 0.3494 0.27694 0.0
C639 C 0.93334 0.33868 0.34391 0.0
C640 C 0.92306 0.3479 0.22802 0.0
C641 C 0.9665 0.3767 0.19293 0.0
C642 C 0.91086 0.36693 0.21285 0.0
C643 C 0.88957 0.36433 0.19175 0.0
C644 C 0.88035 0.34272 0.18585 0.0
C645 C 0.89382 0.32423 0.19139 0.0
C646 C 0.91502 0.32674 0.21319 0.0
H647 H 0.9848 0.38159 0.18875 0.0
H648 H 0.96345 0.36514 0.15424 0.0
H649 H 0.95775 0.39233 0.18118 0.0
H650 H 0.91657 0.38338 0.22502 0.0
H651 H 0.87938 0.37873 0.18736 0.0
H652 H 0.82182 0.66845 0.71306 0.0
H653 H 0.84747 0.64229 0.66484 0.0
H654 H 0.89902 0.69676 0.61133 0.0
H655 H 0.87362 0.72277 0.66211 0.0
H656 H 0.86944 0.64259 0.5334 0.0
H657 H 0.93041 0.64906 0.72313 0.0
H658 H 0.90284 0.65974 0.73443 0.0
H659 H 0.9251 0.67557 0.67719 0.0
C660 C 0.83864 0.67481 0.69094 0.0
C661 C 0.84562 0.69771 0.69054 0.0
C662 C 0.85323 0.6599 0.66317 0.0
C663 C 0.87522 0.66751 0.63499 0.0
C664 C 0.88219 0.69046 0.6335 0.0
H665 H 0.98838 0.59795 0.47029 0.0
H666 H 0.96221 0.62587 0.50202 0.0
C667 C 0.86755 0.70542 0.66146 0.0
C668 C 0.89082 0.6512 0.60842 0.0
H669 H 0.94007 0.62718 0.63328 0.0
C670 C 0.8849 0.63921 0.55519 0.0
C671 C 0.91092 0.64674 0.63715 0.0
C672 C 0.91767 0.65828 0.69654 0.0
C673 C 0.89867 0.62307 0.52938 0.0
C674 C 0.91871 0.61859 0.55826 0.0
C675 C 0.92469 0.63067 0.61118 0.0
C676 C 0.93388 0.60153 0.53439 0.0
C677 C 0.89185 0.61121 0.47073 0.0
C678 C 0.92661 0.57849 0.54167 0.0
C679 C 0.94159 0.56237 0.52345 0.0
C680 C 0.96412 0.56902 0.49797 0.0
C681 C 0.97115 0.59218 0.48964 0.0
C682 C 0.95623 0.60821 0.50785 0.0
H683 H 0.87918 0.62037 0.44366 0.0
H684 H 0.90668 0.60944 0.43318 0.0
H685 H 0.88432 0.59402 0.49095 0.0
H686 H 0.90953 0.57291 0.56319 0.0
H687 H 0.93566 0.54468 0.53092 0.0
H688 H 0.35701 0.30769 0.18262 0.0
H689 H 0.38774 0.33739 0.15458 0.0
H690 H 0.33944 0.38816 0.15217 0.0
H691 H 0.30875 0.35868 0.18124 0.0
H692 H 0.39912 0.36961 0.04563 0.0
H693 H 0.38076 0.41296 0.27628 0.0
H694 H 0.3677 0.38554 0.26869 0.0
H695 H 0.35712 0.41077 0.22879 0.0
C696 C 0.35287 0.32518 0.17649 0.0
C697 C 0.3302 0.3306 0.18493 0.0
C698 C 0.37056 0.34224 0.16024 0.0
C699 C 0.36621 0.36531 0.15236 0.0
C700 C 0.34355 0.3707 0.15964 0.0
H701 H 0.44618 0.49492 0.04773 0.0
H702 H 0.41675 0.46412 0.07674 0.0
C703 C 0.32589 0.35368 0.17589 0.0
C704 C 0.38521 0.38362 0.13538 0.0
H705 H 0.4072 0.43233 0.18718 0.0
C706 C 0.40092 0.38321 0.07701 0.0
C707 C 0.38786 0.40158 0.17579 0.0
C708 C 0.37261 0.40269 0.24124 0.0
C709 C 0.41855 0.40032 0.05718 0.0
C710 C 0.42108 0.41838 0.0973 0.0
C711 C 0.40546 0.41869 0.1559 0.0
C712 C 0.4395 0.43724 0.07907 0.0
C713 C 0.43389 0.39921 -0.00808 0.0
C714 C 0.46245 0.43282 0.07126 0.0
C715 C 0.47946 0.45054 0.05449 0.0
C716 C 0.4741 0.47333 0.04533 0.0
C717 C 0.45114 0.47771 0.054 0.0
C718 C 0.43417 0.46 0.0708 0.0
H719 H 0.42612 0.38835 0.95762 0.0
H720 H 0.43824 0.41631 0.96352 0.0
H721 H 0.44969 0.39185 0.00478 0.0
H722 H 0.4673 0.4156 0.07887 0.0
H723 H 0.49686 0.44636 0.04891 0.0
H724 H 0.44713 0.62451 0.04258 0.0
H725 H 0.42278 0.65298 -0.00156 0.0
H726 H 0.42209 0.62142 0.81296 0.0
H727 H 0.44669 0.59311 0.85691 0.0
H728 H 0.42634 0.66769 0.78677 0.0
H729 H 0.35613 0.64037 -0.00835 0.0
H730 H 0.38174 0.64817 0.02465 0.0
H731 H 0.38034 0.62414 0.97755 0.0
C732 C 0.44189 0.62384 -0.00781 0.0
C733 C 0.44895 0.60683 0.9528 0.0
C734 C 0.42789 0.63997 0.96718 0.0
C735 C 0.42028 0.6391 0.90289 0.0
C736 C 0.42775 0.62242 0.8627 0.0
H737 H 0.30412 0.7084 0.78587 0.0
H738 H 0.3309 0.68025 0.81223 0.0
C739 C 0.44193 0.60636 0.88755 0.0
C740 C 0.40418 0.65529 0.87834 0.0
H741 H 0.35273 0.67486 0.92165 0.0
C742 C 0.41018 0.6692 0.81602 0.0
C743 C 0.38292 0.65695 0.91589 0.0
C744 C 0.37477 0.64145 0.98077 0.0
C745 C 0.39573 0.6851 0.79107 0.0
C746 C 0.37493 0.68748 0.83031 0.0
C747 C 0.36875 0.67321 0.89185 0.0
C748 C 0.35923 0.70462 0.80898 0.0
C749 C 0.40276 0.6989 0.72245 0.0
C750 C 0.36621 0.72773 0.79805 0.0
C751 C 0.35096 0.74387 0.78224 0.0
C752 C 0.32832 0.73728 0.77822 0.0
C753 C 0.32142 0.71411 0.78864 0.0
C754 C 0.33671 0.69797 0.80379 0.0
H755 H 0.41525 0.69039 0.6902 0.0
H756 H 0.38807 0.70204 0.69404 0.0
H757 H 0.41073 0.71545 0.73054 0.0
H758 H 0.38332 0.73336 0.80344 0.0
H759 H 0.35682 0.76152 0.77489 0.0
H760 H 0.17541 0.70458 0.87368 0.0
H761 H 0.1483 0.67714 0.83691 0.0
H762 H 0.19335 0.67393 0.65242 0.0
H763 H 0.22029 0.7006 0.68986 0.0
H764 H 0.12809 0.68372 0.71612 0.0
H765 H 0.17642 0.60762 0.72111 0.0
H766 H 0.18334 0.63114 0.76673 0.0
H767 H 0.19312 0.63186 0.67692 0.0
C768 C 0.17938 0.6977 0.82577 0.0
C769 C 0.19946 0.70484 0.78355 0.0
C770 C 0.16407 0.68215 0.80495 0.0
C771 C 0.16907 0.6734 0.74249 0.0
C772 C 0.18941 0.68021 0.70135 0.0
H773 H 0.09334 0.63358 0.43389 0.0
H774 H 0.11481 0.65318 0.51162 0.0
C775 C 0.20457 0.69568 0.72203 0.0
C776 C 0.15255 0.65861 0.71624 0.0
H777 H 0.1489 0.6105 0.63991 0.0
C778 C 0.1323 0.66744 0.70079 0.0
C779 C 0.15804 0.6373 0.69738 0.0
C780 C 0.17882 0.62634 0.71712 0.0
C781 C 0.11807 0.65615 0.66239 0.0
C782 C 0.1247 0.63592 0.6378 0.0
C783 C 0.14415 0.62633 0.65752 0.0
C784 C 0.11194 0.6245 0.59073 0.0
C785 C 0.09632 0.66617 0.64768 0.0
C786 C 0.10429 0.60178 0.60838 0.0
C787 C 0.09269 0.59066 0.56371 0.0
C788 C 0.08831 0.60218 0.50127 0.0
C789 C 0.09647 0.62467 0.48237 0.0
C790 C 0.10836 0.63582 0.52693 0.0
H791 H 0.09048 0.67713 0.68697 0.0
H792 H 0.09903 0.67678 0.59724 0.0
H793 H 0.08287 0.65276 0.64594 0.0
H794 H 0.1072 0.59269 0.65687 0.0
H795 H 0.08688 0.57308 0.57802 0.0
H796 H 0.21224 0.36063 0.36604 0.0
H797 H 0.18406 0.38563 0.40797 0.0
H798 H 0.14947 0.37901 0.23061 0.0
H799 H 0.17811 0.35465 0.18792 0.0
H800 H 0.15432 0.42145 0.24951 0.0
H801 H 0.12099 0.37271 0.499 0.0
H802 H 0.15084 0.37892 0.49097 0.0
H803 H 0.13907 0.36087 0.43509 0.0
C804 C 0.19831 0.36416 0.33705 0.0
C805 C 0.19704 0.35548 0.27442 0.0
C806 C 0.18219 0.37841 0.36097 0.0
C807 C 0.16434 0.38392 0.32317 0.0
C808 C 0.163 0.37497 0.26091 0.0
H809 H 0.04401 0.44791 0.46089 0.0
H810 H 0.07238 0.42181 0.43097 0.0
C811 C 0.17927 0.36104 0.23659 0.0
C812 C 0.1478 0.40005 0.34587 0.0
H813 H 0.11009 0.41046 0.4796 0.0
C814 C 0.14459 0.41897 0.29977 0.0
C815 C 0.1349 0.39675 0.41119 0.0
C816 C 0.13643 0.3761 0.46165 0.0
C817 C 0.12891 0.43462 0.3169 0.0
C818 C 0.11659 0.43177 0.38308 0.0
C819 C 0.11973 0.41282 0.42921 0.0
C820 C 0.09967 0.44772 0.40426 0.0
C821 C 0.12524 0.45363 0.26294 0.0
C822 C 0.10559 0.47097 0.40099 0.0
C823 C 0.08922 0.48602 0.41656 0.0
C824 C 0.06666 0.47809 0.43685 0.0
C825 C 0.06104 0.45468 0.4436 0.0
C826 C 0.07734 0.43969 0.42714 0.0
H827 H 0.1309 0.44965 0.21046 0.0
H828 H 0.10722 0.45727 0.26562 0.0
H829 H 0.13514 0.46913 0.27121 0.0
H830 H 0.12283 0.47752 0.38564 0.0
H831 H 0.09423 0.50391 0.41177 0.0
H832 H 1.00218 0.05569 0.71272 0.0
H833 H 1.00193 0.0551 0.83657 0.0
H834 H 0.05317 1.0072 0.83494 0.0
H835 H 0.05374 1.00778 0.71101 0.0
H836 H 0.99242 1.01632 0.93509 0.0
H837 H 0.07772 0.05705 0.94073 0.0
H838 H 0.06376 0.05885 0.86422 0.0
H839 H 0.07686 0.03358 0.8915 0.0
C840 C 1.01355 0.04518 0.73857 0.0
C841 C 0.02804 0.03183 0.70212 0.0
C842 C 1.01335 0.04485 0.80924 0.0
C843 C 0.0277 0.03131 0.84442 0.0
C844 C 0.04226 1.01806 0.80828 0.0
H845 H 0.04833 1.00279 0.27021 0.0
H846 H 0.04861 1.00303 0.14648 0.0
C847 C 0.04249 1.01836 0.73759 0.0
C848 C 0.02674 0.03032 0.91947 0.0
H849 H 0.05784 0.04127 0.04746 0.0
C850 C 1.00666 1.02185 0.95981 0.0
C851 C 0.04542 0.0375 0.95109 0.0
C852 C 0.06712 0.04744 0.90978 0.0
C853 C 1.00484 1.02005 0.03148 0.0
C854 C 0.02351 0.02726 0.06311 0.0
C855 C 0.0436 0.03571 0.02275 0.0
C856 C 0.02251 0.02643 0.13815 0.0
C857 C 0.98315 1.01005 0.07274 0.0
C858 C 1.00773 0.03955 0.17403 0.0
C859 C 1.00747 0.03942 0.24466 0.0
C860 C 0.02212 0.02629 0.28037 0.0
C861 C 0.03681 1.01305 0.2442 0.0
C862 C 0.03703 1.01319 0.17358 0.0
H863 H 0.97271 1.00021 0.04193 0.0
H864 H 0.9865 0.99885 0.11874 0.0
H865 H 0.97324 0.02391 0.09027 0.0
H866 H 0.99667 0.05018 0.1472 0.0
H867 H 0.99598 0.04982 0.27103 0.0
H868 H 0.3114 0.80265 0.51412 0.0
H869 H 0.31112 0.80467 0.39054 0.0
H870 H 0.25182 0.75871 0.42074 0.0
H871 H 0.25204 0.75637 0.54532 0.0
H872 H 0.28601 0.74963 0.31589 0.0
H873 H 0.26536 0.8395 0.28698 0.0
H874 H 0.28936 0.83408 0.3315 0.0
H875 H 0.26196 0.82213 0.36887 0.0
C876 C 0.29832 0.79285 0.49472 0.0
C877 C 0.28159 0.77948 0.53966 0.0
C878 C 0.29814 0.79415 0.42402 0.0
C879 C 0.28118 0.78226 0.39675 0.0
C880 C 0.26493 0.76819 0.44108 0.0
H881 H 0.24943 0.77035 -0.01294 0.0
H882 H 0.25 0.7684 0.11052 0.0
C883 C 0.2651 0.76683 0.51213 0.0
C884 C 0.28047 0.78469 0.32184 0.0
H885 H 0.27534 0.82339 0.18437 0.0
C886 C 0.28355 0.7657 0.28709 0.0
C887 C 0.27736 0.80575 0.28461 0.0
C888 C 0.27312 0.82651 0.31983 0.0
C889 C 0.284 0.76728 0.21565 0.0
C890 C 0.28089 0.78833 0.17843 0.0
C891 C 0.27782 0.80733 0.21316 0.0
C892 C 0.28004 0.79073 0.10358 0.0
C893 C 0.28819 0.74651 0.18044 0.0
C894 C 0.29626 0.80472 0.0589 0.0
C895 C 0.29593 0.80603 -0.01211 0.0
C896 C 0.27929 0.79342 0.96084 0.0
C897 C 0.26261 0.78013 0.00613 0.0
C898 C 0.26295 0.77887 0.07675 0.0
H899 H 0.29599 0.73352 0.21324 0.0
H900 H 0.27193 0.73893 0.16897 0.0
H901 H 0.2993 0.75087 0.13131 0.0
H902 H 0.30947 0.81415 0.07891 0.0
H903 H 0.30899 0.8164 0.95431 0.0
H904 H 0.53925 0.05285 0.73681 0.0
H905 H 0.54019 0.05154 0.61365 0.0
H906 H 0.4853 1.00013 0.65035 0.0
H907 H 0.4845 1.00096 0.77394 0.0
H908 H 0.52093 0.98923 0.56224 0.0
H909 H 0.49727 0.07602 0.48288 0.0
H910 H 0.52061 0.07522 0.53228 0.0
H911 H 0.49331 0.06336 0.57109 0.0
C912 C 0.52717 0.04145 0.71874 0.0
C913 C 0.51174 0.02705 0.76515 0.0
C914 C 0.52768 0.04081 0.64829 0.0
C915 C 0.51261 0.02597 0.62294 0.0
C916 C 0.49699 1.01179 0.66901 0.0
H917 H 0.49061 0.9939 0.21916 0.0
H918 H 0.49004 0.99483 0.3425 0.0
C919 C 0.49652 1.01234 0.73954 0.0
C920 C 0.51397 0.02437 0.54857 0.0
H921 H 0.51117 0.05506 0.39369 0.0
C922 C 0.51866 1.00357 0.52537 0.0
C923 C 0.51109 0.04316 0.50073 0.0
C924 C 0.50508 0.06565 0.52293 0.0
C925 C 0.52086 1.00113 0.45531 0.0
C926 C 0.51807 1.01993 0.40756 0.0
C927 C 0.51342 0.04073 0.43066 0.0
C928 C 0.51935 1.01828 0.33335 0.0
C929 C 0.52653 0.9786 0.43279 0.0
C930 C 0.53603 0.03121 0.28759 0.0
C931 C 0.53643 0.03072 0.21706 0.0
C932 C 0.51998 1.0175 0.19121 0.0
C933 C 0.50357 1.00421 0.23742 0.0
C934 C 0.50323 1.00466 0.30791 0.0
H935 H 0.53338 0.96762 0.47364 0.0
H936 H 0.51105 0.96971 0.42026 0.0
H937 H 0.53899 0.98089 0.38612 0.0
H938 H 0.54862 0.04181 0.30648 0.0
H939 H 0.54948 0.04086 0.18289 0.0
H940 H 0.25027 0.30394 0.01602 0.0
H941 H 0.25067 0.30464 0.89222 0.0
H942 H 0.29289 0.24847 0.89466 0.0
H943 H 0.29265 0.24761 0.01858 0.0
H944 H 0.30841 0.28618 0.79553 0.0
H945 H 0.21871 0.25928 0.786 0.0
H946 H 0.22322 0.28227 0.83528 0.0
H947 H 0.2321 0.25484 0.86331 0.0
C948 C 0.25948 0.29157 -0.00958 0.0
C949 C 0.27153 0.27576 0.02708 0.0
C950 C 0.2596 0.29197 0.91976 0.0
C951 C 0.27163 0.27647 0.88474 0.0
C952 C 0.28347 0.26052 0.9211 0.0
H953 H 0.29933 0.25513 0.45946 0.0
H954 H 0.29878 0.25448 0.58328 0.0
C955 C 0.28335 0.26009 -0.00819 0.0
C956 C 0.2727 0.27761 0.80962 0.0
H957 H 0.2405 0.27262 0.67996 0.0
C958 C 0.29361 0.28311 0.77011 0.0
C959 C 0.2533 0.2737 0.77708 0.0
C960 C 0.23057 0.267 0.81748 0.0
C961 C 0.29561 0.28514 0.6984 0.0
C962 C 0.27622 0.28118 0.66583 0.0
C963 C 0.25529 0.2757 0.70536 0.0
C964 C 0.27729 0.28225 0.5907 0.0
C965 C 0.31834 0.29191 0.65807 0.0
C966 C 0.26516 0.29792 0.55429 0.0
C967 C 0.26534 0.29829 0.48358 0.0
C968 C 0.27754 0.28287 0.44833 0.0
C969 C 0.28985 0.26732 0.48504 0.0
C970 C 0.28964 0.26696 0.55571 0.0
H971 H 0.33006 0.2999 0.68941 0.0
H972 H 0.32587 0.27663 0.64102 0.0
H973 H 0.31678 0.30386 0.61181 0.0
H974 H 0.25547 0.30979 0.58069 0.0
H975 H 0.25575 0.31051 0.45677 0.0
H976 H 0.81252 0.30401 0.02358 0.0
H977 H 0.8119 0.30577 0.90015 0.0
H978 H 0.7524 0.26004 0.93264 0.0
H979 H 0.75273 0.25829 0.05701 0.0
H980 H 0.81287 0.27108 0.81376 0.0
H981 H 0.73422 0.31624 0.81383 0.0
H982 H 0.75012 0.31377 0.88627 0.0
H983 H 0.73239 0.29018 0.87014 0.0
C984 C 0.79933 0.29418 0.00471 0.0
C985 C 0.78252 0.28114 0.05026 0.0
C986 C 0.79905 0.29522 0.93408 0.0
C987 C 0.78192 0.28335 0.90745 0.0
C988 C 0.76555 0.26965 0.95242 0.0
H989 H 0.7497 0.27407 0.49814 0.0
H990 H 0.75054 0.2722 0.62146 0.0
C991 C 0.76584 0.26854 0.0234 0.0
C992 C 0.78114 0.28581 0.83252 0.0
H993 H 0.75013 0.30619 0.7076 0.0
C994 C 0.79918 0.27876 0.79041 0.0
C995 C 0.76331 0.29598 0.80248 0.0
C996 C 0.74397 0.30468 0.84528 0.0
C997 C 0.79968 0.28124 0.71885 0.0
C998 C 0.78185 0.29144 0.68878 0.0
C999 C 0.76382 0.29849 0.73092 0.0
C1000 C 0.78105 0.2939 0.61382 0.0
C1001 C 0.81897 0.27243 0.67615 0.0
C1002 C 0.79766 0.30724 0.56862 0.0
C1003 C 0.79725 0.30837 0.49767 0.0
C1004 C 0.78018 0.29621 0.47109 0.0
C1005 C 0.76317 0.28356 0.51682 0.0
C1006 C 0.76358 0.28247 0.58741 0.0
H1007 H 0.8285 0.26064 0.70761 0.0
H1008 H 0.81283 0.26355 0.63473 0.0
H1009 H 0.83075 0.28685 0.65191 0.0
H1010 H 0.81105 0.31654 0.58819 0.0
H1011 H 0.81057 0.31829 0.46377 0.0
H1012 H 0.74789 0.8018 0.51524 0.0
H1013 H 0.74863 0.80231 0.39136 0.0
H1014 H 0.79549 0.75006 0.39324 0.0
H1015 H 0.79513 0.74958 0.51715 0.0
H1016 H 0.80836 0.78761 0.29417 0.0
H1017 H 0.72026 0.75518 0.28494 0.0
H1018 H 0.72296 0.77869 0.33329 0.0
H1019 H 0.73363 0.75221 0.36253 0.0
C1020 C 0.7582 0.79025 0.48946 0.0
C1021 C 0.77142 0.77561 0.52597 0.0
C1022 C 0.75851 0.79051 0.41878 0.0
C1023 C 0.77189 0.77603 0.38358 0.0
C1024 C 0.78498 0.76127 0.4198 0.0
H1025 H 0.80078 0.75566 0.95734 0.0
H1026 H 0.80027 0.75492 0.08122 0.0
C1027 C 0.7847 0.761 0.49051 0.0
C1028 C 0.77305 0.77704 0.30842 0.0
H1029 H 0.74131 0.77004 0.1788 0.0
C1030 C 0.79376 0.78365 0.26882 0.0
C1031 C 0.75391 0.77193 0.2759 0.0
C1032 C 0.73146 0.76391 0.31627 0.0
C1033 C 0.79577 0.78565 0.1971 0.0
C1034 C 0.77662 0.78061 0.1646 0.0
C1035 C 0.75592 0.77397 0.20417 0.0
C1036 C 0.77773 0.7818 0.08945 0.0
C1037 C 0.81823 0.79357 0.15662 0.0
C1038 C 0.76505 0.79703 0.05349 0.0
C1039 C 0.76524 0.79748 0.98275 0.0
C1040 C 0.77798 0.78254 0.94703 0.0
C1041 C 0.79086 0.76745 0.98329 0.0
C1042 C 0.79067 0.76704 0.054 0.0
H1043 H 0.82966 0.80188 0.18817 0.0
H1044 H 0.82643 0.7788 0.13836 0.0
H1045 H 0.81607 0.8056 0.11107 0.0
H1046 H 0.75492 0.80849 0.08026 0.0
H1047 H 0.75521 0.80934 0.95633 0.0
H1048 H 0.49518 0.54922 0.77214 0.0
H1049 H 0.49598 0.54944 0.64823 0.0
H1050 H 0.54895 0.50347 0.6479 0.0
H1051 H 0.54826 0.50303 0.77173 0.0
H1052 H 0.53426 0.56277 0.54958 0.0
H1053 H 0.50196 0.47412 0.54143 0.0
H1054 H 0.49842 0.48788 0.6183 0.0
H1055 H 0.52498 0.47725 0.59119 0.0
C1056 C 0.5069 0.53904 0.74585 0.0
C1057 C 0.52168 0.52614 0.78172 0.0
C1058 C 0.50732 0.53919 0.67514 0.0
C1059 C 0.52236 0.5263 0.63937 0.0
C1060 C 0.53697 0.51322 0.67498 0.0
H1061 H 0.55425 0.50829 0.21215 0.0
H1062 H 0.55376 0.50797 0.33606 0.0
C1063 C 0.5366 0.51308 0.74565 0.0
C1064 C 0.52351 0.52734 0.56426 0.0
H1065 H 0.51632 0.49532 0.4352 0.0
C1066 C 0.53025 0.54808 0.52442 0.0
C1067 C 0.51836 0.50808 0.53205 0.0
C1068 C 0.51034 0.48559 0.57281 0.0
C1069 C 0.53229 0.55001 0.45271 0.0
C1070 C 0.52707 0.53076 0.42048 0.0
C1071 C 0.52036 0.51001 0.46034 0.0
C1072 C 0.52806 0.53184 0.34535 0.0
C1073 C 0.5404 0.57249 0.41205 0.0
C1074 C 0.51371 0.54534 0.30997 0.0
C1075 C 0.51397 0.54562 0.23931 0.0
C1076 C 0.52848 0.53226 0.203 0.0
C1077 C 0.54294 0.51883 0.23864 0.0
C1078 C 0.54266 0.51859 0.30935 0.0
H1079 H 0.54916 0.58373 0.44324 0.0
H1080 H 0.55202 0.57019 0.3659 0.0
H1081 H 0.52575 0.58111 0.39482 0.0
H1082 H 0.50203 0.55535 0.33723 0.0
H1083 H 0.50254 0.55604 0.21338 0.0
H1084 H 0.04791 0.54271 0.67072 0.0
H1085 H 0.04702 0.54351 0.7944 0.0
H1086 H 0.98974 0.49488 0.83012 0.0
H1087 H 0.99035 0.49409 0.70678 0.0
H1088 H 1.00906 0.55547 0.88246 0.0
H1089 H 0.03401 0.46888 0.96009 0.0
H1090 H 0.03926 0.48242 0.87282 0.0
H1091 H 1.01162 0.47032 0.90687 0.0
C1092 C 0.03515 0.53218 0.70483 0.0
C1093 C 1.01906 0.51852 0.67891 0.0
C1094 C 0.03472 0.53258 0.77542 0.0
C1095 C 1.01841 0.51914 0.82112 0.0
C1096 C 1.00266 0.50512 0.79557 0.0
H1097 H 0.98352 0.50049 0.26196 0.0
H1098 H 0.98436 0.49978 0.13823 0.0
C1099 C 1.00301 0.50475 0.72507 0.0
C1100 C 1.01707 0.52064 0.89541 0.0
H1101 H 1.02067 0.48983 0.04943 0.0
C1102 C 1.01172 0.54119 0.91908 0.0
C1103 C 1.02039 0.5019 0.94269 0.0
C1104 C 0.02682 0.47966 0.91953 0.0
C1105 C 1.00923 0.5434 -0.01071 0.0
C1106 C 1.01262 0.52467 0.03666 0.0
C1107 C 1.01799 0.50412 0.01289 0.0
C1108 C 1.0112 0.52612 0.11108 0.0
C1109 C 1.00251 0.5656 0.01216 0.0
C1110 C 0.02599 0.5412 0.13655 0.0
C1111 C 0.02548 0.54175 0.20701 0.0
C1112 C 1.0103 0.52705 0.25333 0.0
C1113 C 0.99533 0.5121 0.22762 0.0
C1114 C 0.99583 0.51162 0.15703 0.0
H1115 H 0.99448 0.57582 0.97231 0.0
H1116 H 0.99068 0.56286 0.06023 0.0
H1117 H 1.01775 0.57554 0.02201 0.0
H1118 H 0.0383 0.55219 0.10197 0.0
H1119 H 0.03734 0.55335 0.22514 0.0
loop_
_geom_bond_atom_site_label_1
_geom_bond_atom_site_label_2
_geom_bond_distance
_geom_bond_site_symmetry_2
_ccdc_geom_bond_type
Zn0 O1 2.055 . S
Zn0 O8 2.046 1_565 S
Zn0 N16 2.036 . S
Zn0 O28 2.053 . S
Zn0 O30 2.041 1_455 S
O1 Zn0 2.055 . S
O1 C4 1.259 1_565 S
C2 O30 1.288 . S
C2 O31 1.244 . S
Zn3 O5 2.046 . S
Zn3 O7 2.055 1_655 S
Zn3 N9 2.036 . S
Zn3 O27 2.066 . S
Zn3 O31 2.053 1_545 S
C4 O1 1.259 1_545 S
C4 O5 1.254 1_455 S
O5 Zn3 2.046 . S
O5 C4 1.254 1_655 S
C6 O27 1.256 1_455 S
C6 O28 1.244 1_545 S
O7 Zn3 2.055 1_455 S
O7 C29 1.259 . S
O8 Zn0 2.046 1_545 S
O8 C29 1.254 . S
N9 Zn3 2.036 . S
N9 C10 1.298 . S
N9 N12 1.398 . S
C10 N9 1.298 . S
C10 N13 1.367 . S
C10 C23 1.481 . S
C11 N12 1.299 . S
C11 N13 1.379 . S
N12 N9 1.398 . S
N12 C11 1.299 . S
N13 C10 1.367 . S
N13 C11 1.379 . S
C14 N16 1.298 . S
C14 N18 1.367 . S
C14 C22 1.481 . S
C15 N17 1.299 . S
C15 N18 1.379 . S
N16 Zn0 2.036 . S
N16 C14 1.298 . S
N16 N17 1.398 . S
N17 C15 1.299 . S
N17 N16 1.398 . S
N18 C14 1.367 . S
N18 C15 1.379 . S
H19 C22 0.980 . S
H20 C22 0.981 . S
H21 C22 0.981 . S
C22 C14 1.481 . S
C22 H19 0.980 . S
C22 H20 0.981 . S
C22 H21 0.981 . S
C23 C10 1.481 . S
C23 H24 0.980 . S
C23 H25 0.981 . S
C23 H26 0.981 . S
H24 C23 0.980 . S
H25 C23 0.981 . S
H26 C23 0.981 . S
O27 Zn3 2.066 . S
O27 C6 1.256 1_655 S
O28 Zn0 2.053 . S
O28 C6 1.244 1_565 S
C29 O7 1.259 . S
C29 O8 1.254 . S
O30 Zn0 2.041 1_655 S
O30 C2 1.288 . S
O31 C2 1.244 . S
O31 Zn3 2.053 1_565 S
Zn32 O33 2.055 . S
Zn32 O40 2.046 . S
Zn32 N48 2.036 . S
Zn32 O60 2.053 . S
Zn32 O62 2.066 . S
O33 Zn32 2.055 . S
O33 C36 1.259 . S
C34 O62 1.256 . S
C34 O63 1.244 . S
Zn35 O37 2.046 . S
Zn35 O39 2.055 . S
Zn35 N41 2.036 . S
Zn35 O59 2.066 . S
Zn35 O63 2.053 . S
C36 O33 1.259 . S
C36 O37 1.254 . S
O37 Zn35 2.046 . S
O37 C36 1.254 . S
C38 O59 1.256 . S
C38 O60 1.244 . S
O39 Zn35 2.055 . S
O39 C61 1.259 . S
O40 Zn32 2.046 . S
O40 C61 1.254 . S
N41 Zn35 2.036 . S
N41 C42 1.298 . S
N41 N44 1.398 . S
C42 N41 1.298 . S
C42 N45 1.367 . S
C42 C55 1.481 . S
C43 N44 1.299 . S
C43 N45 1.379 . S
N44 N41 1.398 . S
N44 C43 1.299 . S
N45 C42 1.367 . S
N45 C43 1.379 . S
C46 N48 1.298 . S
C46 N50 1.367 . S
C46 C54 1.481 . S
C47 N49 1.299 . S
C47 N50 1.379 . S
N48 Zn32 2.036 . S
N48 C46 1.298 . S
N48 N49 1.398 . S
N49 C47 1.299 . S
N49 N48 1.398 . S
N50 C46 1.367 . S
N50 C47 1.379 . S
H51 C54 0.980 . S
H52 C54 0.981 . S
H53 C54 0.981 . S
C54 C46 1.481 . S
C54 H51 0.980 . S
C54 H52 0.981 . S
C54 H53 0.981 . S
C55 C42 1.481 . S
C55 H56 0.980 . S
C55 H57 0.981 . S
C55 H58 0.981 . S
H56 C55 0.980 . S
H57 C55 0.981 . S
H58 C55 0.981 . S
O59 Zn35 2.066 . S
O59 C38 1.256 . S
O60 Zn32 2.053 . S
O60 C38 1.244 . S
C61 O39 1.259 . S
C61 O40 1.254 . S
O62 Zn32 2.066 . S
O62 C34 1.256 . S
O63 C34 1.244 . S
O63 Zn35 2.053 . S
Zn64 O65 2.055 1_556 S
Zn64 O72 2.046 . S
Zn64 N80 2.036 . S
Zn64 O92 2.053 1_545 S
Zn64 O94 2.066 1_556 S
O65 Zn64 2.055 1_554 S
O65 C68 1.259 . S
C66 O94 1.256 . S
C66 O95 1.244 1_545 S
Zn67 O69 2.044 1_566 S
Zn67 O71 2.065 . S
Zn67 N73 2.036 . S
Zn67 O91 2.066 . S
Zn67 O95 2.053 1_556 S
C68 O65 1.259 . S
C68 O69 1.259 . S
O69 Zn67 2.044 1_544 S
O69 C68 1.259 . S
C70 O91 1.256 . S
C70 O92 1.244 . S
O71 Zn67 2.065 . S
O71 C93 1.226 1_565 S
O72 Zn64 2.046 . S
O72 C93 1.254 . S
N73 Zn67 2.036 . S
N73 C74 1.302 . S
N73 N76 1.393 1_556 S
C74 N73 1.302 . S
C74 N77 1.367 . S
C74 C87 1.481 . S
C75 N76 1.299 . S
C75 N77 1.379 1_554 S
N76 N73 1.393 1_554 S
N76 C75 1.299 . S
N77 C74 1.367 . S
N77 C75 1.379 1_556 S
C78 N80 1.298 1_554 S
C78 N82 1.367 . S
C78 C86 1.481 . S
C79 N81 1.299 . S
C79 N82 1.379 1_556 S
N80 Zn64 2.036 . S
N80 C78 1.298 1_556 S
N80 N81 1.398 . S
N81 C79 1.299 . S
N81 N80 1.398 . S
N82 C78 1.367 . S
N82 C79 1.379 1_554 S
H83 C86 0.980 . S
H84 C86 0.981 . S
H85 C86 0.981 . S
C86 C78 1.481 . S
C86 H83 0.980 . S
C86 H84 0.981 . S
C86 H85 0.981 . S
C87 C74 1.481 . S
C87 H88 0.980 . S
C87 H89 0.981 . S
C87 H90 0.981 . S
H88 C87 0.980 . S
H89 C87 0.981 . S
H90 C87 0.981 . S
O91 Zn67 2.066 . S
O91 C70 1.256 . S
O92 Zn64 2.053 1_565 S
O92 C70 1.244 . S
C93 O71 1.226 1_545 S
C93 O72 1.254 . S
O94 Zn64 2.066 1_554 S
O94 C66 1.256 . S
O95 C66 1.244 1_565 S
O95 Zn67 2.053 1_554 S
Zn96 O97 2.055 . S
Zn96 O104 2.046 . S
Zn96 N112 2.036 . S
Zn96 O124 2.053 . S
Zn96 O126 2.066 . S
O97 Zn96 2.055 . S
O97 C100 1.259 . S
C98 O126 1.256 . S
C98 O127 1.244 . S
Zn99 O101 2.046 . S
Zn99 O103 2.055 . S
Zn99 N105 2.036 . S
Zn99 O123 2.066 . S
Zn99 O127 2.053 . S
C100 O97 1.259 . S
C100 O101 1.254 . S
O101 Zn99 2.046 . S
O101 C100 1.254 . S
C102 O123 1.256 . S
C102 O124 1.244 . S
O103 Zn99 2.055 . S
O103 C125 1.259 . S
O104 Zn96 2.046 . S
O104 C125 1.254 . S
N105 Zn99 2.036 . S
N105 C106 1.298 . S
N105 N108 1.398 . S
C106 N105 1.298 . S
C106 N109 1.367 . S
C106 C119 1.481 . S
C107 N108 1.299 . S
C107 N109 1.379 . S
N108 N105 1.398 . S
N108 C107 1.299 . S
N109 C106 1.367 . S
N109 C107 1.379 . S
C110 N112 1.298 . S
C110 N114 1.367 . S
C110 C118 1.481 . S
C111 N113 1.299 . S
C111 N114 1.379 . S
N112 Zn96 2.036 . S
N112 C110 1.298 . S
N112 N113 1.398 . S
N113 C111 1.299 . S
N113 N112 1.398 . S
N114 C110 1.367 . S
N114 C111 1.379 . S
H115 C118 0.980 . S
H116 C118 0.981 . S
H117 C118 0.981 . S
C118 C110 1.481 . S
C118 H115 0.980 . S
C118 H116 0.981 . S
C118 H117 0.981 . S
C119 C106 1.481 . S
C119 H120 0.980 . S
C119 H121 0.981 . S
C119 H122 0.981 . S
H120 C119 0.980 . S
H121 C119 0.981 . S
H122 C119 0.981 . S
O123 Zn99 2.066 . S
O123 C102 1.256 . S
O124 Zn96 2.053 . S
O124 C102 1.244 . S
C125 O103 1.259 . S
C125 O104 1.254 . S
O126 Zn96 2.066 . S
O126 C98 1.256 . S
O127 C98 1.244 . S
O127 Zn99 2.053 . S
Zn128 O129 2.055 . S
Zn128 O136 2.046 . S
Zn128 N144 2.036 . S
Zn128 O156 2.053 . S
Zn128 O158 2.066 . S
O129 Zn128 2.055 . S
O129 C132 1.259 . S
C130 O158 1.256 . S
C130 O159 1.244 . S
Zn131 O133 2.046 . S
Zn131 O135 2.055 . S
Zn131 N137 2.036 . S
Zn131 O155 2.066 . S
Zn131 O159 2.053 . S
C132 O129 1.259 . S
C132 O133 1.254 . S
O133 Zn131 2.046 . S
O133 C132 1.254 . S
C134 O155 1.256 . S
C134 O156 1.244 . S
O135 Zn131 2.055 . S
O135 C157 1.259 . S
O136 Zn128 2.046 . S
O136 C157 1.254 . S
N137 Zn131 2.036 . S
N137 C138 1.298 . S
N137 N140 1.398 . S
C138 N137 1.298 . S
C138 N141 1.367 . S
C138 C151 1.481 . S
C139 N140 1.299 . S
C139 N141 1.379 . S
N140 N137 1.398 . S
N140 C139 1.299 . S
N141 C138 1.367 . S
N141 C139 1.379 . S
C142 N144 1.298 . S
C142 N146 1.367 . S
C142 C150 1.481 . S
C143 N145 1.299 . S
C143 N146 1.379 . S
N144 Zn128 2.036 . S
N144 C142 1.298 . S
N144 N145 1.398 . S
N145 C143 1.299 . S
N145 N144 1.398 . S
N146 C142 1.367 . S
N146 C143 1.379 . S
H147 C150 0.980 . S
H148 C150 0.981 . S
H149 C150 0.981 . S
C150 C142 1.481 . S
C150 H147 0.980 . S
C150 H148 0.981 . S
C150 H149 0.981 . S
C151 C138 1.481 . S
C151 H152 0.980 . S
C151 H153 0.981 . S
C151 H154 0.981 . S
H152 C151 0.980 . S
H153 C151 0.981 . S
H154 C151 0.981 . S
O155 Zn131 2.066 . S
O155 C134 1.256 . S
O156 Zn128 2.053 . S
O156 C134 1.244 . S
C157 O135 1.259 . S
C157 O136 1.254 . S
O158 Zn128 2.066 . S
O158 C130 1.256 . S
O159 C130 1.244 . S
O159 Zn131 2.053 . S
Zn160 O161 2.055 . S
Zn160 O168 2.046 . S
Zn160 N176 2.036 . S
Zn160 O188 2.053 . S
Zn160 O190 2.066 . S
O161 Zn160 2.055 . S
O161 C164 1.259 . S
C162 O190 1.256 . S
C162 O191 1.244 . S
Zn163 O165 2.046 . S
Zn163 O167 2.055 . S
Zn163 N169 2.036 . S
Zn163 O187 2.066 . S
Zn163 O191 2.053 . S
C164 O161 1.259 . S
C164 O165 1.254 . S
O165 Zn163 2.046 . S
O165 C164 1.254 . S
C166 O187 1.256 . S
C166 O188 1.244 . S
O167 Zn163 2.055 . S
O167 C189 1.259 . S
O168 Zn160 2.046 . S
O168 C189 1.254 . S
N169 Zn163 2.036 . S
N169 C170 1.298 . S
N169 N172 1.398 . S
C170 N169 1.298 . S
C170 N173 1.367 . S
C170 C183 1.481 . S
C171 N172 1.299 . S
C171 N173 1.379 . S
N172 N169 1.398 . S
N172 C171 1.299 . S
N173 C170 1.367 . S
N173 C171 1.379 . S
C174 N176 1.298 . S
C174 N178 1.367 . S
C174 C182 1.481 . S
C175 N177 1.299 . S
C175 N178 1.379 . S
N176 Zn160 2.036 . S
N176 C174 1.298 . S
N176 N177 1.398 . S
N177 C175 1.299 . S
N177 N176 1.398 . S
N178 C174 1.367 . S
N178 C175 1.379 . S
H179 C182 0.980 . S
H180 C182 0.981 . S
H181 C182 0.981 . S
C182 C174 1.481 . S
C182 H179 0.980 . S
C182 H180 0.981 . S
C182 H181 0.981 . S
C183 C170 1.481 . S
C183 H184 0.980 . S
C183 H185 0.981 . S
C183 H186 0.981 . S
H184 C183 0.980 . S
H185 C183 0.981 . S
H186 C183 0.981 . S
O187 Zn163 2.066 . S
O187 C166 1.256 . S
O188 Zn160 2.053 . S
O188 C166 1.244 . S
C189 O167 1.259 . S
C189 O168 1.254 . S
O190 Zn160 2.066 . S
O190 C162 1.256 . S
O191 C162 1.244 . S
O191 Zn163 2.053 . S
Zn192 O193 2.055 . S
Zn192 O200 2.046 . S
Zn192 N208 2.036 . S
Zn192 O220 2.053 1_554 S
Zn192 O222 2.066 . S
O193 Zn192 2.055 . S
O193 C196 1.259 . S
C194 O222 1.256 . S
C194 O223 1.244 . S
Zn195 O197 2.046 . S
Zn195 O199 2.055 1_554 S
Zn195 N201 2.036 . S
Zn195 O219 2.066 1_554 S
Zn195 O223 2.053 . S
C196 O193 1.259 . S
C196 O197 1.254 . S
O197 Zn195 2.046 . S
O197 C196 1.254 . S
C198 O219 1.256 . S
C198 O220 1.244 . S
O199 Zn195 2.055 1_556 S
O199 C221 1.259 . S
O200 Zn192 2.046 . S
O200 C221 1.254 1_554 S
N201 Zn195 2.036 . S
N201 C202 1.298 1_554 S
N201 N204 1.398 . S
C202 N201 1.298 1_556 S
C202 N205 1.367 . S
C202 C215 1.481 . S
C203 N204 1.299 . S
C203 N205 1.379 1_554 S
N204 N201 1.398 . S
N204 C203 1.299 . S
N205 C202 1.367 . S
N205 C203 1.379 1_556 S
C206 N208 1.298 . S
C206 N210 1.367 . S
C206 C214 1.481 . S
C207 N209 1.299 . S
C207 N210 1.379 1_556 S
N208 Zn192 2.036 . S
N208 C206 1.298 . S
N208 N209 1.398 1_554 S
N209 C207 1.299 . S
N209 N208 1.398 1_556 S
N210 C206 1.367 . S
N210 C207 1.379 1_554 S
H211 C214 0.980 . S
H212 C214 0.981 . S
H213 C214 0.981 . S
C214 C206 1.481 . S
C214 H211 0.980 . S
C214 H212 0.981 . S
C214 H213 0.981 . S
C215 C202 1.481 . S
C215 H216 0.980 . S
C215 H217 0.981 . S
C215 H218 0.981 . S
H216 C215 0.980 . S
H217 C215 0.981 . S
H218 C215 0.981 . S
O219 Zn195 2.066 1_556 S
O219 C198 1.256 . S
O220 Zn192 2.053 1_556 S
O220 C198 1.244 . S
C221 O199 1.259 . S
C221 O200 1.254 1_556 S
O222 Zn192 2.066 . S
O222 C194 1.256 . S
O223 C194 1.244 . S
O223 Zn195 2.053 . S
Zn224 O225 2.055 . S
Zn224 O232 2.046 . S
Zn224 N240 2.036 . S
Zn224 O252 2.053 . S
Zn224 O254 2.066 1_655 S
O225 Zn224 2.055 . S
O225 C228 1.259 1_655 S
C226 O254 1.256 . S
C226 O255 1.244 . S
Zn227 O229 2.046 . S
Zn227 O231 2.055 1_455 S
Zn227 N233 2.036 . S
Zn227 O251 2.066 . S
Zn227 O255 2.053 . S
C228 O225 1.259 1_455 S
C228 O229 1.254 . S
O229 Zn227 2.046 . S
O229 C228 1.254 . S
C230 O251 1.256 . S
C230 O252 1.244 1_455 S
O231 Zn227 2.055 1_655 S
O231 C253 1.259 . S
O232 Zn224 2.046 . S
O232 C253 1.254 . S
N233 Zn227 2.036 . S
N233 C234 1.298 . S
N233 N236 1.398 . S
C234 N233 1.298 . S
C234 N237 1.367 . S
C234 C247 1.481 . S
C235 N236 1.299 . S
C235 N237 1.379 . S
N236 N233 1.398 . S
N236 C235 1.299 . S
N237 C234 1.367 . S
N237 C235 1.379 . S
C238 N240 1.298 . S
C238 N242 1.367 . S
C238 C246 1.481 . S
C239 N241 1.299 . S
C239 N242 1.379 . S
N240 Zn224 2.036 . S
N240 C238 1.298 . S
N240 N241 1.398 . S
N241 C239 1.299 . S
N241 N240 1.398 . S
N242 C238 1.367 . S
N242 C239 1.379 . S
H243 C246 0.980 . S
H244 C246 0.981 . S
H245 C246 0.981 . S
C246 C238 1.481 . S
C246 H243 0.980 . S
C246 H244 0.981 . S
C246 H245 0.981 . S
C247 C234 1.481 . S
C247 H248 0.980 . S
C247 H249 0.981 . S
C247 H250 0.981 . S
H248 C247 0.980 . S
H249 C247 0.981 . S
H250 C247 0.981 . S
O251 Zn227 2.066 . S
O251 C230 1.256 . S
O252 Zn224 2.053 . S
O252 C230 1.244 1_655 S
C253 O231 1.259 . S
C253 O232 1.254 . S
O254 Zn224 2.066 1_455 S
O254 C226 1.256 . S
O255 C226 1.244 . S
O255 Zn227 2.053 . S
H256 C264 0.929 . S
H257 C266 0.930 . S
H258 C268 0.930 . S
H259 C271 0.929 . S
H260 C274 0.930 . S
H261 C276 0.960 . S
H262 C276 0.960 . S
H263 C276 0.960 . S
C264 H256 0.929 . S
C264 C265 1.377 . S
C264 C266 1.384 . S
C265 C264 1.377 . S
C265 C271 1.390 . S
C266 H257 0.930 . S
C266 C264 1.384 . S
C266 C267 1.372 . S
C267 C266 1.372 . S
C267 C268 1.400 . S
C267 C272 1.490 . S
C268 H258 0.930 . S
C268 C267 1.400 . S
C268 C271 1.386 . S
H269 C285 0.930 . S
H270 C286 0.931 . S
C271 H259 0.929 . S
C271 C265 1.390 . S
C271 C268 1.386 . S
C272 C267 1.490 . S
C272 C274 1.395 . S
C272 C275 1.403 . S
H273 C279 0.930 . S
C274 H260 0.930 . S
C274 C272 1.395 . S
C274 C277 1.403 . S
C275 C272 1.403 . S
C275 C276 1.524 . S
C275 C279 1.400 . S
C276 H261 0.960 . S
C276 H262 0.960 . S
C276 H263 0.960 . S
C276 C275 1.524 . S
C277 C274 1.403 . S
C277 C278 1.392 . S
C277 C281 1.495 . S
C278 C277 1.392 . S
C278 C279 1.385 . S
C278 C280 1.478 . S
C279 H273 0.930 . S
C279 C275 1.400 . S
C279 C278 1.385 . S
C280 C278 1.478 . S
C280 C282 1.381 . S
C280 C286 1.383 . S
C281 C277 1.495 . S
C281 H287 0.959 . S
C281 H288 0.961 . S
C281 H289 0.960 . S
C282 C280 1.381 . S
C282 C283 1.394 . S
C282 H290 0.930 . S
C283 C282 1.394 . S
C283 C284 1.383 . S
C283 H291 0.929 . S
C284 C283 1.383 . S
C284 C285 1.377 . S
C285 H269 0.930 . S
C285 C284 1.377 . S
C285 C286 1.379 . S
C286 H270 0.931 . S
C286 C280 1.383 . S
C286 C285 1.379 . S
H287 C281 0.959 . S
H288 C281 0.961 . S
H289 C281 0.960 . S
H290 C282 0.930 . S
H291 C283 0.929 . S
H292 C300 0.929 . S
H293 C302 0.930 . S
H294 C304 0.930 . S
H295 C307 0.929 . S
H296 C310 0.930 . S
H297 C312 0.960 . S
H298 C312 0.960 . S
H299 C312 0.960 . S
C300 H292 0.929 . S
C300 C301 1.377 . S
C300 C302 1.384 . S
C301 C300 1.377 . S
C301 C307 1.390 . S
C302 H293 0.930 . S
C302 C300 1.384 . S
C302 C303 1.372 . S
C303 C302 1.372 . S
C303 C304 1.400 . S
C303 C308 1.490 . S
C304 H294 0.930 . S
C304 C303 1.400 . S
C304 C307 1.386 . S
H305 C321 0.930 . S
H306 C322 0.931 . S
C307 H295 0.929 . S
C307 C301 1.390 . S
C307 C304 1.386 . S
C308 C303 1.490 . S
C308 C310 1.395 . S
C308 C311 1.403 . S
H309 C315 0.930 . S
C310 H296 0.930 . S
C310 C308 1.395 . S
C310 C313 1.403 . S
C311 C308 1.403 . S
C311 C312 1.524 . S
C311 C315 1.400 . S
C312 H297 0.960 . S
C312 H298 0.960 . S
C312 H299 0.960 . S
C312 C311 1.524 . S
C313 C310 1.403 . S
C313 C314 1.392 . S
C313 C317 1.495 . S
C314 C313 1.392 . S
C314 C315 1.385 . S
C314 C316 1.478 . S
C315 H309 0.930 . S
C315 C311 1.400 . S
C315 C314 1.385 . S
C316 C314 1.478 . S
C316 C318 1.381 . S
C316 C322 1.383 . S
C317 C313 1.495 . S
C317 H323 0.959 . S
C317 H324 0.961 . S
C317 H325 0.960 . S
C318 C316 1.381 . S
C318 C319 1.394 . S
C318 H326 0.930 . S
C319 C318 1.394 . S
C319 C320 1.383 . S
C319 H327 0.929 . S
C320 C319 1.383 . S
C320 C321 1.377 . S
C321 H305 0.930 . S
C321 C320 1.377 . S
C321 C322 1.379 . S
C322 H306 0.931 . S
C322 C316 1.383 . S
C322 C321 1.379 . S
H323 C317 0.959 . S
H324 C317 0.961 . S
H325 C317 0.960 . S
H326 C318 0.930 . S
H327 C319 0.929 . S
H328 C336 0.929 . S
H329 C338 0.930 . S
H330 C340 0.930 . S
H331 C343 0.929 . S
H332 C346 0.930 . S
H333 C348 0.960 . S
H334 C348 0.960 . S
H335 C348 0.960 . S
C336 H328 0.929 . S
C336 C337 1.377 . S
C336 C338 1.384 . S
C337 C336 1.377 . S
C337 C343 1.390 . S
C338 H329 0.930 . S
C338 C336 1.384 . S
C338 C339 1.372 . S
C339 C338 1.372 . S
C339 C340 1.400 . S
C339 C344 1.490 . S
C340 H330 0.930 . S
C340 C339 1.400 . S
C340 C343 1.386 . S
H341 C357 0.930 . S
H342 C358 0.931 . S
C343 H331 0.929 . S
C343 C337 1.390 . S
C343 C340 1.386 . S
C344 C339 1.490 . S
C344 C346 1.395 . S
C344 C347 1.403 . S
H345 C351 0.930 . S
C346 H332 0.930 . S
C346 C344 1.395 . S
C346 C349 1.403 . S
C347 C344 1.403 . S
C347 C348 1.524 . S
C347 C351 1.400 . S
C348 H333 0.960 . S
C348 H334 0.960 . S
C348 H335 0.960 . S
C348 C347 1.524 . S
C349 C346 1.403 . S
C349 C350 1.392 . S
C349 C353 1.495 . S
C350 C349 1.392 . S
C350 C351 1.385 . S
C350 C352 1.478 . S
C351 H345 0.930 . S
C351 C347 1.400 . S
C351 C350 1.385 . S
C352 C350 1.478 . S
C352 C354 1.381 . S
C352 C358 1.383 . S
C353 C349 1.495 . S
C353 H359 0.959 . S
C353 H360 0.961 . S
C353 H361 0.960 . S
C354 C352 1.381 . S
C354 C355 1.394 1_556 S
C354 H362 0.930 1_556 S
C355 C354 1.394 1_554 S
C355 C356 1.383 1_554 S
C355 H363 0.929 . S
C356 C355 1.383 1_556 S
C356 C357 1.377 . S
C357 H341 0.930 . S
C357 C356 1.377 . S
C357 C358 1.379 . S
C358 H342 0.931 . S
C358 C352 1.383 . S
C358 C357 1.379 . S
H359 C353 0.959 . S
H360 C353 0.961 . S
H361 C353 0.960 . S
H362 C354 0.930 1_554 S
H363 C355 0.929 . S
H364 C372 0.929 . S
H365 C374 0.930 . S
H366 C376 0.930 1_556 S
H367 C379 0.929 . S
H368 C382 0.930 . S
H369 C384 0.960 . S
H370 C384 0.960 . S
H371 C384 0.960 . S
C372 H364 0.929 . S
C372 C373 1.377 . S
C372 C374 1.384 . S
C373 C372 1.377 . S
C373 C379 1.390 1_554 S
C374 H365 0.930 . S
C374 C372 1.384 . S
C374 C375 1.372 . S
C375 C374 1.372 . S
C375 C376 1.400 . S
C375 C380 1.490 . S
C376 H366 0.930 1_554 S
C376 C375 1.400 . S
C376 C379 1.386 1_554 S
H377 C393 0.930 . S
H378 C394 0.931 . S
C379 H367 0.929 . S
C379 C373 1.390 1_556 S
C379 C376 1.386 1_556 S
C380 C375 1.490 . S
C380 C382 1.395 . S
C380 C383 1.403 . S
H381 C387 0.930 . S
C382 H368 0.930 . S
C382 C380 1.395 . S
C382 C385 1.403 . S
C383 C380 1.403 . S
C383 C384 1.524 . S
C383 C387 1.400 . S
C384 H369 0.960 . S
C384 H370 0.960 . S
C384 H371 0.960 . S
C384 C383 1.524 . S
C385 C382 1.403 . S
C385 C386 1.392 . S
C385 C389 1.495 . S
C386 C385 1.392 . S
C386 C387 1.385 . S
C386 C388 1.478 . S
C387 H381 0.930 . S
C387 C383 1.400 . S
C387 C386 1.385 . S
C388 C386 1.478 . S
C388 C390 1.381 . S
C388 C394 1.383 . S
C389 C385 1.495 . S
C389 H395 0.959 . S
C389 H396 0.961 . S
C389 H397 0.960 . S
C390 C388 1.381 . S
C390 C391 1.394 . S
C390 H398 0.930 . S
C391 C390 1.394 . S
C391 C392 1.383 . S
C391 H399 0.929 . S
C392 C391 1.383 . S
C392 C393 1.377 . S
C393 H377 0.930 . S
C393 C392 1.377 . S
C393 C394 1.379 . S
C394 H378 0.931 . S
C394 C388 1.383 . S
C394 C393 1.379 . S
H395 C389 0.959 . S
H396 C389 0.961 . S
H397 C389 0.960 . S
H398 C390 0.930 . S
H399 C391 0.929 . S
H400 C408 0.929 . S
H401 C410 0.930 . S
H402 C412 0.930 . S
H403 C415 0.929 . S
H404 C418 0.930 . S
H405 C420 0.960 . S
H406 C420 0.960 . S
H407 C420 0.960 . S
C408 H400 0.929 . S
C408 C409 1.377 . S
C408 C410 1.384 . S
C409 C408 1.377 . S
C409 C415 1.390 . S
C410 H401 0.930 . S
C410 C408 1.384 . S
C410 C411 1.372 . S
C411 C410 1.372 . S
C411 C412 1.400 . S
C411 C416 1.490 . S
C412 H402 0.930 . S
C412 C411 1.400 . S
C412 C415 1.386 . S
H413 C429 0.930 . S
H414 C430 0.931 . S
C415 H403 0.929 . S
C415 C409 1.390 . S
C415 C412 1.386 . S
C416 C411 1.490 . S
C416 C418 1.395 . S
C416 C419 1.403 . S
H417 C423 0.930 . S
C418 H404 0.930 . S
C418 C416 1.395 . S
C418 C421 1.403 . S
C419 C416 1.403 . S
C419 C420 1.524 . S
C419 C423 1.400 . S
C420 H405 0.960 . S
C420 H406 0.960 . S
C420 H407 0.960 . S
C420 C419 1.524 . S
C421 C418 1.403 . S
C421 C422 1.392 . S
C421 C425 1.495 . S
C422 C421 1.392 . S
C422 C423 1.385 . S
C422 C424 1.478 . S
C423 H417 0.930 . S
C423 C419 1.400 . S
C423 C422 1.385 . S
C424 C422 1.478 . S
C424 C426 1.381 . S
C424 C430 1.383 . S
C425 C421 1.495 . S
C425 H431 0.959 . S
C425 H432 0.961 . S
C425 H433 0.960 . S
C426 C424 1.381 . S
C426 C427 1.394 . S
C426 H434 0.930 . S
C427 C426 1.394 . S
C427 C428 1.383 . S
C427 H435 0.929 . S
C428 C427 1.383 . S
C428 C429 1.377 . S
C429 H413 0.930 . S
C429 C428 1.377 . S
C429 C430 1.379 . S
C430 H414 0.931 . S
C430 C424 1.383 . S
C430 C429 1.379 . S
H431 C425 0.959 . S
H432 C425 0.961 . S
H433 C425 0.960 . S
H434 C426 0.930 . S
H435 C427 0.929 . S
H436 C444 0.929 . S
H437 C446 0.930 . S
H438 C448 0.930 . S
H439 C451 0.929 . S
H440 C454 0.930 . S
H441 C456 0.960 . S
H442 C456 0.960 . S
H443 C456 0.960 . S
C444 H436 0.929 . S
C444 C445 1.377 . S
C444 C446 1.384 . S
C445 C444 1.377 . S
C445 C451 1.390 . S
C446 H437 0.930 . S
C446 C444 1.384 . S
C446 C447 1.372 . S
C447 C446 1.372 . S
C447 C448 1.400 . S
C447 C452 1.490 . S
C448 H438 0.930 . S
C448 C447 1.400 . S
C448 C451 1.386 . S
H449 C465 0.930 . S
H450 C466 0.931 . S
C451 H439 0.929 . S
C451 C445 1.390 . S
C451 C448 1.386 . S
C452 C447 1.490 . S
C452 C454 1.395 . S
C452 C455 1.403 . S
H453 C459 0.930 . S
C454 H440 0.930 . S
C454 C452 1.395 . S
C454 C457 1.403 . S
C455 C452 1.403 . S
C455 C456 1.524 . S
C455 C459 1.400 . S
C456 H441 0.960 . S
C456 H442 0.960 . S
C456 H443 0.960 . S
C456 C455 1.524 . S
C457 C454 1.403 . S
C457 C458 1.392 . S
C457 C461 1.495 . S
C458 C457 1.392 . S
C458 C459 1.385 . S
C458 C460 1.478 . S
C459 H453 0.930 . S
C459 C455 1.400 . S
C459 C458 1.385 . S
C460 C458 1.478 . S
C460 C462 1.381 . S
C460 C466 1.383 . S
C461 C457 1.495 . S
C461 H467 0.959 . S
C461 H468 0.961 . S
C461 H469 0.960 . S
C462 C460 1.381 . S
C462 C463 1.394 . S
C462 H470 0.930 . S
C463 C462 1.394 . S
C463 C464 1.383 . S
C463 H471 0.929 . S
C464 C463 1.383 . S
C464 C465 1.377 . S
C465 H449 0.930 . S
C465 C464 1.377 . S
C465 C466 1.379 . S
C466 H450 0.931 . S
C466 C460 1.383 . S
C466 C465 1.379 . S
H467 C461 0.959 . S
H468 C461 0.961 . S
H469 C461 0.960 . S
H470 C462 0.930 . S
H471 C463 0.929 . S
H472 C480 0.929 . S
H473 C482 0.930 . S
H474 C484 0.930 . S
H475 C487 0.929 . S
H476 C490 0.930 . S
H477 C492 0.960 . S
H478 C492 0.960 . S
H479 C492 0.960 . S
C480 H472 0.929 . S
C480 C481 1.377 . S
C480 C482 1.384 . S
C481 C480 1.377 . S
C481 C487 1.390 . S
C482 H473 0.930 . S
C482 C480 1.384 . S
C482 C483 1.372 . S
C483 C482 1.372 . S
C483 C484 1.400 . S
C483 C488 1.490 . S
C484 H474 0.930 . S
C484 C483 1.400 . S
C484 C487 1.386 . S
H485 C501 0.928 . S
H486 C502 0.931 1_556 S
C487 H475 0.929 . S
C487 C481 1.390 . S
C487 C484 1.386 . S
C488 C483 1.490 . S
C488 C490 1.395 . S
C488 C491 1.403 . S
H489 C495 0.930 . S
C490 H476 0.930 . S
C490 C488 1.395 . S
C490 C493 1.403 . S
C491 C488 1.403 . S
C491 C492 1.524 . S
C491 C495 1.400 . S
C492 H477 0.960 . S
C492 H478 0.960 . S
C492 H479 0.960 . S
C492 C491 1.524 . S
C493 C490 1.403 . S
C493 C494 1.392 . S
C493 C497 1.495 . S
C494 C493 1.392 . S
C494 C495 1.385 . S
C494 C496 1.478 . S
C495 H489 0.930 . S
C495 C491 1.400 . S
C495 C494 1.385 . S
C496 C494 1.478 . S
C496 C498 1.381 . S
C496 C502 1.383 . S
C497 C493 1.495 . S
C497 H503 0.959 . S
C497 H504 0.961 . S
C497 H505 0.960 . S
C498 C496 1.381 . S
C498 C499 1.394 . S
C498 H506 0.930 . S
C499 C498 1.394 . S
C499 C500 1.383 . S
C499 H507 0.929 . S
C500 C499 1.383 . S
C500 C501 1.378 1_554 S
C501 H485 0.928 . S
C501 C500 1.378 1_556 S
C501 C502 1.380 1_556 S
C502 H486 0.931 1_554 S
C502 C496 1.383 . S
C502 C501 1.380 1_554 S
H503 C497 0.959 . S
H504 C497 0.961 . S
H505 C497 0.960 . S
H506 C498 0.930 . S
H507 C499 0.929 . S
H508 C516 0.929 . S
H509 C518 0.930 . S
H510 C520 0.930 . S
H511 C523 0.929 . S
H512 C526 0.930 . S
H513 C528 0.960 . S
H514 C528 0.960 . S
H515 C528 0.960 . S
C516 H508 0.929 . S
C516 C517 1.377 . S
C516 C518 1.384 . S
C517 C516 1.377 . S
C517 C523 1.390 . S
C518 H509 0.930 . S
C518 C516 1.384 . S
C518 C519 1.372 . S
C519 C518 1.372 . S
C519 C520 1.400 . S
C519 C524 1.490 . S
C520 H510 0.930 . S
C520 C519 1.400 . S
C520 C523 1.386 . S
H521 C537 0.930 . S
H522 C538 0.931 . S
C523 H511 0.929 . S
C523 C517 1.390 . S
C523 C520 1.386 . S
C524 C519 1.490 . S
C524 C526 1.395 . S
C524 C527 1.403 . S
H525 C531 0.930 . S
C526 H512 0.930 . S
C526 C524 1.395 . S
C526 C529 1.403 . S
C527 C524 1.403 . S
C527 C528 1.524 . S
C527 C531 1.400 . S
C528 H513 0.960 . S
C528 H514 0.960 . S
C528 H515 0.960 . S
C528 C527 1.524 . S
C529 C526 1.403 . S
C529 C530 1.392 . S
C529 C533 1.495 . S
C530 C529 1.392 . S
C530 C531 1.385 . S
C530 C532 1.478 . S
C531 H525 0.930 . S
C531 C527 1.400 . S
C531 C530 1.385 . S
C532 C530 1.478 . S
C532 C534 1.381 . S
C532 C538 1.383 . S
C533 C529 1.495 . S
C533 H539 0.959 . S
C533 H540 0.961 . S
C533 H541 0.960 . S
C534 C532 1.381 . S
C534 C535 1.396 . S
C534 H542 0.930 1_556 S
C535 C534 1.396 . S
C535 C536 1.390 . S
C535 H543 0.921 1_556 S
C536 C535 1.390 . S
C536 C537 1.377 . S
C537 H521 0.930 . S
C537 C536 1.377 . S
C537 C538 1.379 . S
C538 H522 0.931 . S
C538 C532 1.383 . S
C538 C537 1.379 . S
H539 C533 0.959 . S
H540 C533 0.961 . S
H541 C533 0.960 . S
H542 C534 0.930 1_554 S
H543 C535 0.921 1_554 S
H544 C552 0.929 . S
H545 C554 0.930 . S
H546 C556 0.930 . S
H547 C559 0.929 . S
H548 C562 0.930 . S
H549 C564 0.960 . S
H550 C564 0.960 . S
H551 C564 0.960 . S
C552 H544 0.929 . S
C552 C553 1.377 . S
C552 C554 1.384 . S
C553 C552 1.377 . S
C553 C559 1.390 . S
C554 H545 0.930 . S
C554 C552 1.384 . S
C554 C555 1.372 . S
C555 C554 1.372 . S
C555 C556 1.400 . S
C555 C560 1.490 . S
C556 H546 0.930 . S
C556 C555 1.400 . S
C556 C559 1.386 . S
H557 C573 0.930 . S
H558 C574 0.931 . S
C559 H547 0.929 . S
C559 C553 1.390 . S
C559 C556 1.386 . S
C560 C555 1.490 . S
C560 C562 1.395 . S
C560 C563 1.403 . S
H561 C567 0.930 . S
C562 H548 0.930 . S
C562 C560 1.395 . S
C562 C565 1.403 . S
C563 C560 1.403 . S
C563 C564 1.524 1_556 S
C563 C567 1.400 . S
C564 H549 0.960 . S
C564 H550 0.960 . S
C564 H551 0.960 . S
C564 C563 1.524 1_554 S
C565 C562 1.403 . S
C565 C566 1.392 . S
C565 C569 1.495 . S
C566 C565 1.392 . S
C566 C567 1.385 . S
C566 C568 1.478 . S
C567 H561 0.930 . S
C567 C563 1.400 . S
C567 C566 1.385 . S
C568 C566 1.478 . S
C568 C570 1.381 . S
C568 C574 1.383 . S
C569 C565 1.495 . S
C569 H575 0.959 . S
C569 H576 0.961 . S
C569 H577 0.960 . S
C570 C568 1.381 . S
C570 C571 1.394 . S
C570 H578 0.930 . S
C571 C570 1.394 . S
C571 C572 1.383 . S
C571 H579 0.929 . S
C572 C571 1.383 . S
C572 C573 1.377 . S
C573 H557 0.930 . S
C573 C572 1.377 . S
C573 C574 1.379 . S
C574 H558 0.931 . S
C574 C568 1.383 . S
C574 C573 1.379 . S
H575 C569 0.959 . S
H576 C569 0.961 . S
H577 C569 0.960 . S
H578 C570 0.930 . S
H579 C571 0.929 . S
H580 C588 0.929 . S
H581 C590 0.930 . S
H582 C592 0.930 . S
H583 C595 0.929 . S
H584 C598 0.930 . S
H585 C600 0.960 . S
H586 C600 0.960 . S
H587 C600 0.960 . S
C588 H580 0.929 . S
C588 C589 1.377 . S
C588 C590 1.384 . S
C589 C588 1.377 . S
C589 C595 1.390 . S
C590 H581 0.930 . S
C590 C588 1.384 . S
C590 C591 1.372 . S
C591 C590 1.372 . S
C591 C592 1.400 . S
C591 C596 1.490 . S
C592 H582 0.930 . S
C592 C591 1.400 . S
C592 C595 1.386 . S
H593 C609 0.930 . S
H594 C610 0.931 . S
C595 H583 0.929 . S
C595 C589 1.390 . S
C595 C592 1.386 . S
C596 C591 1.490 . S
C596 C598 1.395 . S
C596 C599 1.403 . S
H597 C603 0.930 . S
C598 H584 0.930 . S
C598 C596 1.395 . S
C598 C601 1.403 . S
C599 C596 1.403 . S
C599 C600 1.524 . S
C599 C603 1.400 . S
C600 H585 0.960 . S
C600 H586 0.960 . S
C600 H587 0.960 . S
C600 C599 1.524 . S
C601 C598 1.403 . S
C601 C602 1.392 . S
C601 C605 1.495 . S
C602 C601 1.392 . S
C602 C603 1.385 . S
C602 C604 1.478 . S
C603 H597 0.930 . S
C603 C599 1.400 . S
C603 C602 1.385 . S
C604 C602 1.478 . S
C604 C606 1.381 . S
C604 C610 1.383 . S
C605 C601 1.495 . S
C605 H611 0.959 . S
C605 H612 0.961 . S
C605 H613 0.960 . S
C606 C604 1.381 . S
C606 C607 1.394 . S
C606 H614 0.930 . S
C607 C606 1.394 . S
C607 C608 1.383 . S
C607 H615 0.929 . S
C608 C607 1.383 . S
C608 C609 1.377 . S
C609 H593 0.930 . S
C609 C608 1.377 . S
C609 C610 1.379 . S
C610 H594 0.931 . S
C610 C604 1.383 . S
C610 C609 1.379 . S
H611 C605 0.959 . S
H612 C605 0.961 . S
H613 C605 0.960 . S
H614 C606 0.930 . S
H615 C607 0.929 . S
H616 C624 0.929 . S
H617 C626 0.930 . S
H618 C628 0.930 . S
H619 C631 0.929 . S
H620 C634 0.930 . S
H621 C636 0.960 . S
H622 C636 0.960 . S
H623 C636 0.960 . S
C624 H616 0.929 . S
C624 C625 1.377 . S
C624 C626 1.384 . S
C625 C624 1.377 . S
C625 C631 1.390 . S
C626 H617 0.930 . S
C626 C624 1.384 . S
C626 C627 1.372 . S
C627 C626 1.372 . S
C627 C628 1.400 . S
C627 C632 1.490 . S
C628 H618 0.930 . S
C628 C627 1.400 . S
C628 C631 1.386 . S
H629 C645 0.930 . S
H630 C646 0.931 . S
C631 H619 0.929 . S
C631 C625 1.390 . S
C631 C628 1.386 . S
C632 C627 1.490 . S
C632 C634 1.395 . S
C632 C635 1.403 . S
H633 C639 0.930 . S
C634 H620 0.930 . S
C634 C632 1.395 . S
C634 C637 1.403 . S
C635 C632 1.403 . S
C635 C636 1.524 . S
C635 C639 1.400 . S
C636 H621 0.960 . S
C636 H622 0.960 . S
C636 H623 0.960 . S
C636 C635 1.524 . S
C637 C634 1.403 . S
C637 C638 1.392 . S
C637 C641 1.495 . S
C638 C637 1.392 . S
C638 C639 1.385 . S
C638 C640 1.478 . S
C639 H633 0.930 . S
C639 C635 1.400 . S
C639 C638 1.385 . S
C640 C638 1.478 . S
C640 C642 1.381 . S
C640 C646 1.383 . S
C641 C637 1.495 . S
C641 H647 0.959 . S
C641 H648 0.961 . S
C641 H649 0.960 . S
C642 C640 1.381 . S
C642 C643 1.394 . S
C642 H650 0.930 . S
C643 C642 1.394 . S
C643 C644 1.383 . S
C643 H651 0.929 . S
C644 C643 1.383 . S
C644 C645 1.377 . S
C645 H629 0.930 . S
C645 C644 1.377 . S
C645 C646 1.379 . S
C646 H630 0.931 . S
C646 C640 1.383 . S
C646 C645 1.379 . S
H647 C641 0.959 . S
H648 C641 0.961 . S
H649 C641 0.960 . S
H650 C642 0.930 . S
H651 C643 0.929 . S
H652 C660 0.929 . S
H653 C662 0.930 . S
H654 C664 0.930 . S
H655 C667 0.929 . S
H656 C670 0.930 . S
H657 C672 0.960 . S
H658 C672 0.960 . S
H659 C672 0.960 . S
C660 H652 0.929 . S
C660 C661 1.377 . S
C660 C662 1.384 . S
C661 C660 1.377 . S
C661 C667 1.390 . S
C662 H653 0.930 . S
C662 C660 1.384 . S
C662 C663 1.372 . S
C663 C662 1.372 . S
C663 C664 1.400 . S
C663 C668 1.490 . S
C664 H654 0.930 . S
C664 C663 1.400 . S
C664 C667 1.386 . S
H665 C681 0.930 . S
H666 C682 0.931 . S
C667 H655 0.929 . S
C667 C661 1.390 . S
C667 C664 1.386 . S
C668 C663 1.490 . S
C668 C670 1.395 . S
C668 C671 1.403 . S
H669 C675 0.930 . S
C670 H656 0.930 . S
C670 C668 1.395 . S
C670 C673 1.403 . S
C671 C668 1.403 . S
C671 C672 1.524 . S
C671 C675 1.400 . S
C672 H657 0.960 . S
C672 H658 0.960 . S
C672 H659 0.960 . S
C672 C671 1.524 . S
C673 C670 1.403 . S
C673 C674 1.392 . S
C673 C677 1.495 . S
C674 C673 1.392 . S
C674 C675 1.385 . S
C674 C676 1.478 . S
C675 H669 0.930 . S
C675 C671 1.400 . S
C675 C674 1.385 . S
C676 C674 1.478 . S
C676 C678 1.381 . S
C676 C682 1.383 . S
C677 C673 1.495 . S
C677 H683 0.959 . S
C677 H684 0.961 . S
C677 H685 0.960 . S
C678 C676 1.381 . S
C678 C679 1.394 . S
C678 H686 0.930 . S
C679 C678 1.394 . S
C679 C680 1.383 . S
C679 H687 0.929 . S
C680 C679 1.383 . S
C680 C681 1.377 . S
C681 H665 0.930 . S
C681 C680 1.377 . S
C681 C682 1.379 . S
C682 H666 0.931 . S
C682 C676 1.383 . S
C682 C681 1.379 . S
H683 C677 0.959 . S
H684 C677 0.961 . S
H685 C677 0.960 . S
H686 C678 0.930 . S
H687 C679 0.929 . S
H688 C696 0.929 . S
H689 C698 0.930 . S
H690 C700 0.930 . S
H691 C703 0.929 . S
H692 C706 0.930 . S
H693 C708 0.960 . S
H694 C708 0.960 . S
H695 C708 0.960 . S
C696 H688 0.929 . S
C696 C697 1.377 . S
C696 C698 1.384 . S
C697 C696 1.377 . S
C697 C703 1.390 . S
C698 H689 0.930 . S
C698 C696 1.384 . S
C698 C699 1.372 . S
C699 C698 1.372 . S
C699 C700 1.400 . S
C699 C704 1.490 . S
C700 H690 0.930 . S
C700 C699 1.400 . S
C700 C703 1.386 . S
H701 C717 0.930 1_556 S
H702 C718 0.931 . S
C703 H691 0.929 . S
C703 C697 1.390 . S
C703 C700 1.386 . S
C704 C699 1.490 . S
C704 C706 1.395 . S
C704 C707 1.403 . S
H705 C711 0.930 . S
C706 H692 0.930 . S
C706 C704 1.395 . S
C706 C709 1.403 . S
C707 C704 1.403 . S
C707 C708 1.524 . S
C707 C711 1.400 . S
C708 H693 0.960 . S
C708 H694 0.960 . S
C708 H695 0.960 . S
C708 C707 1.524 . S
C709 C706 1.403 . S
C709 C710 1.392 . S
C709 C713 1.495 . S
C710 C709 1.392 . S
C710 C711 1.385 . S
C710 C712 1.478 . S
C711 H705 0.930 . S
C711 C707 1.400 . S
C711 C710 1.385 . S
C712 C710 1.478 . S
C712 C714 1.381 . S
C712 C718 1.383 . S
C713 C709 1.495 . S
C713 H719 0.959 . S
C713 H720 0.961 . S
C713 H721 0.960 . S
C714 C712 1.381 . S
C714 C715 1.394 . S
C714 H722 0.930 . S
C715 C714 1.394 . S
C715 C716 1.383 . S
C715 H723 0.929 . S
C716 C715 1.383 . S
C716 C717 1.377 . S
C717 H701 0.930 1_554 S
C717 C716 1.377 . S
C717 C718 1.379 . S
C718 H702 0.931 . S
C718 C712 1.383 . S
C718 C717 1.379 . S
H719 C713 0.959 . S
H720 C713 0.961 . S
H721 C713 0.960 . S
H722 C714 0.930 . S
H723 C715 0.929 . S
H724 C732 0.929 1_554 S
H725 C734 0.930 . S
H726 C736 0.930 . S
H727 C739 0.929 . S
H728 C742 0.930 . S
H729 C744 0.960 . S
H730 C744 0.960 . S
H731 C744 0.960 . S
C732 H724 0.929 1_556 S
C732 C733 1.377 . S
C732 C734 1.384 . S
C733 C732 1.377 . S
C733 C739 1.390 . S
C734 H725 0.930 . S
C734 C732 1.384 . S
C734 C735 1.372 . S
C735 C734 1.372 . S
C735 C736 1.400 . S
C735 C740 1.490 . S
C736 H726 0.930 . S
C736 C735 1.400 . S
C736 C739 1.386 . S
H737 C753 0.930 . S
H738 C754 0.931 . S
C739 H727 0.929 . S
C739 C733 1.390 . S
C739 C736 1.386 . S
C740 C735 1.490 . S
C740 C742 1.395 . S
C740 C743 1.403 . S
H741 C747 0.930 . S
C742 H728 0.930 . S
C742 C740 1.395 . S
C742 C745 1.403 . S
C743 C740 1.403 . S
C743 C744 1.524 . S
C743 C747 1.400 . S
C744 H729 0.960 . S
C744 H730 0.960 . S
C744 H731 0.960 . S
C744 C743 1.524 . S
C745 C742 1.403 . S
C745 C746 1.392 . S
C745 C749 1.495 . S
C746 C745 1.392 . S
C746 C747 1.385 . S
C746 C748 1.478 . S
C747 H741 0.930 . S
C747 C743 1.400 . S
C747 C746 1.385 . S
C748 C746 1.478 . S
C748 C750 1.381 . S
C748 C754 1.383 . S
C749 C745 1.495 . S
C749 H755 0.959 . S
C749 H756 0.961 . S
C749 H757 0.960 . S
C750 C748 1.381 . S
C750 C751 1.394 . S
C750 H758 0.930 . S
C751 C750 1.394 . S
C751 C752 1.383 . S
C751 H759 0.929 . S
C752 C751 1.383 . S
C752 C753 1.377 . S
C753 H737 0.930 . S
C753 C752 1.377 . S
C753 C754 1.379 . S
C754 H738 0.931 . S
C754 C748 1.383 . S
C754 C753 1.379 . S
H755 C749 0.959 . S
H756 C749 0.961 . S
H757 C749 0.960 . S
H758 C750 0.930 . S
H759 C751 0.929 . S
H760 C768 0.929 . S
H761 C770 0.930 . S
H762 C772 0.930 . S
H763 C775 0.929 . S
H764 C778 0.930 . S
H765 C780 0.960 . S
H766 C780 0.960 . S
H767 C780 0.960 . S
C768 H760 0.929 . S
C768 C769 1.377 . S
C768 C770 1.384 . S
C769 C768 1.377 . S
C769 C775 1.390 . S
C770 H761 0.930 . S
C770 C768 1.384 . S
C770 C771 1.372 . S
C771 C770 1.372 . S
C771 C772 1.400 . S
C771 C776 1.490 . S
C772 H762 0.930 . S
C772 C771 1.400 . S
C772 C775 1.386 . S
H773 C789 0.930 . S
H774 C790 0.931 . S
C775 H763 0.929 . S
C775 C769 1.390 . S
C775 C772 1.386 . S
C776 C771 1.490 . S
C776 C778 1.395 . S
C776 C779 1.403 . S
H777 C783 0.930 . S
C778 H764 0.930 . S
C778 C776 1.395 . S
C778 C781 1.403 . S
C779 C776 1.403 . S
C779 C780 1.524 . S
C779 C783 1.400 . S
C780 H765 0.960 . S
C780 H766 0.960 . S
C780 H767 0.960 . S
C780 C779 1.524 . S
C781 C778 1.403 . S
C781 C782 1.392 . S
C781 C785 1.495 . S
C782 C781 1.392 . S
C782 C783 1.385 . S
C782 C784 1.478 . S
C783 H777 0.930 . S
C783 C779 1.400 . S
C783 C782 1.385 . S
C784 C782 1.478 . S
C784 C786 1.381 . S
C784 C790 1.383 . S
C785 C781 1.495 . S
C785 H791 0.959 . S
C785 H792 0.961 . S
C785 H793 0.960 . S
C786 C784 1.381 . S
C786 C787 1.394 . S
C786 H794 0.930 . S
C787 C786 1.394 . S
C787 C788 1.383 . S
C787 H795 0.929 . S
C788 C787 1.383 . S
C788 C789 1.377 . S
C789 H773 0.930 . S
C789 C788 1.377 . S
C789 C790 1.379 . S
C790 H774 0.931 . S
C790 C784 1.383 . S
C790 C789 1.379 . S
H791 C785 0.959 . S
H792 C785 0.961 . S
H793 C785 0.960 . S
H794 C786 0.930 . S
H795 C787 0.929 . S
H796 C804 0.929 . S
H797 C806 0.930 . S
H798 C808 0.930 . S
H799 C811 0.929 . S
H800 C814 0.930 . S
H801 C816 0.960 . S
H802 C816 0.960 . S
H803 C816 0.960 . S
C804 H796 0.929 . S
C804 C805 1.377 . S
C804 C806 1.384 . S
C805 C804 1.377 . S
C805 C811 1.390 . S
C806 H797 0.930 . S
C806 C804 1.384 . S
C806 C807 1.372 . S
C807 C806 1.372 . S
C807 C808 1.400 . S
C807 C812 1.490 . S
C808 H798 0.930 . S
C808 C807 1.400 . S
C808 C811 1.386 . S
H809 C825 0.930 . S
H810 C826 0.931 . S
C811 H799 0.929 . S
C811 C805 1.390 . S
C811 C808 1.386 . S
C812 C807 1.490 . S
C812 C814 1.395 . S
C812 C815 1.403 . S
H813 C819 0.930 . S
C814 H800 0.930 . S
C814 C812 1.395 . S
C814 C817 1.403 . S
C815 C812 1.403 . S
C815 C816 1.524 . S
C815 C819 1.400 . S
C816 H801 0.960 . S
C816 H802 0.960 . S
C816 H803 0.960 . S
C816 C815 1.524 . S
C817 C814 1.403 . S
C817 C818 1.392 . S
C817 C821 1.495 . S
C818 C817 1.392 . S
C818 C819 1.385 . S
C818 C820 1.478 . S
C819 H813 0.930 . S
C819 C815 1.400 . S
C819 C818 1.385 . S
C820 C818 1.478 . S
C820 C822 1.381 . S
C820 C826 1.383 . S
C821 C817 1.495 . S
C821 H827 0.959 . S
C821 H828 0.961 . S
C821 H829 0.960 . S
C822 C820 1.381 . S
C822 C823 1.394 . S
C822 H830 0.930 . S
C823 C822 1.394 . S
C823 C824 1.383 . S
C823 H831 0.929 . S
C824 C823 1.383 . S
C824 C825 1.377 . S
C825 H809 0.930 . S
C825 C824 1.377 . S
C825 C826 1.379 . S
C826 H810 0.931 . S
C826 C820 1.383 . S
C826 C825 1.379 . S
H827 C821 0.959 . S
H828 C821 0.961 . S
H829 C821 0.960 . S
H830 C822 0.930 . S
H831 C823 0.929 . S
H832 C840 0.929 . S
H833 C842 0.930 . S
H834 C844 0.930 . S
H835 C847 0.929 . S
H836 C850 0.930 . S
H837 C852 0.960 . S
H838 C852 0.960 1_545 S
H839 C852 0.960 . S
C840 H832 0.929 . S
C840 C841 1.377 1_655 S
C840 C842 1.384 . S
C841 C840 1.377 1_455 S
C841 C847 1.390 1_545 S
C842 H833 0.930 . S
C842 C840 1.384 . S
C842 C843 1.372 1_655 S
C843 C842 1.372 1_455 S
C843 C844 1.400 1_545 S
C843 C848 1.490 . S
C844 H834 0.930 . S
C844 C843 1.400 1_565 S
C844 C847 1.386 . S
H845 C861 0.930 . S
H846 C862 0.931 . S
C847 H835 0.929 . S
C847 C841 1.390 1_565 S
C847 C844 1.386 . S
C848 C843 1.490 . S
C848 C850 1.395 1_455 S
C848 C851 1.403 . S
H849 C855 0.930 1_565 S
C850 H836 0.930 . S
C850 C848 1.395 1_655 S
C850 C853 1.403 1_556 S
C851 C848 1.403 . S
C851 C852 1.524 1_545 S
C851 C855 1.400 1_556 S
C852 H837 0.960 . S
C852 H838 0.960 1_565 S
C852 H839 0.960 . S
C852 C851 1.524 1_565 S
C853 C850 1.403 1_554 S
C853 C854 1.372 1_655 S
C853 C857 1.495 . S
C854 C853 1.372 1_455 S
C854 C855 1.404 . S
C854 C856 1.476 . S
C855 H849 0.930 1_545 S
C855 C851 1.400 1_554 S
C855 C854 1.404 . S
C856 C854 1.476 . S
C856 C858 1.382 1_455 S
C856 C862 1.390 1_545 S
C857 C853 1.495 . S
C857 H863 0.959 . S
C857 H864 0.961 . S
C857 H865 0.960 . S
C858 C856 1.382 1_655 S
C858 C859 1.392 1_655 S
C858 H866 0.932 . S
C859 C858 1.392 1_455 S
C859 C860 1.383 . S
C859 H867 0.929 . S
C860 C859 1.383 . S
C860 C861 1.377 1_545 S
C861 H845 0.930 . S
C861 C860 1.377 1_565 S
C861 C862 1.379 . S
C862 H846 0.931 . S
C862 C856 1.390 1_565 S
C862 C861 1.379 . S
H863 C857 0.959 . S
H864 C857 0.961 . S
H865 C857 0.960 . S
H866 C858 0.932 . S
H867 C859 0.929 . S
H868 C876 0.929 . S
H869 C878 0.930 . S
H870 C880 0.930 . S
H871 C883 0.929 . S
H872 C886 0.930 . S
H873 C888 0.960 . S
H874 C888 0.960 . S
H875 C888 0.960 . S
C876 H868 0.929 . S
C876 C877 1.377 . S
C876 C878 1.384 . S
C877 C876 1.377 . S
C877 C883 1.390 . S
C878 H869 0.930 . S
C878 C876 1.384 . S
C878 C879 1.372 . S
C879 C878 1.372 . S
C879 C880 1.400 . S
C879 C884 1.490 . S
C880 H870 0.930 . S
C880 C879 1.400 . S
C880 C883 1.386 . S
H881 C897 0.930 1_556 S
H882 C898 0.931 . S
C883 H871 0.929 . S
C883 C877 1.390 . S
C883 C880 1.386 . S
C884 C879 1.490 . S
C884 C886 1.395 . S
C884 C887 1.403 . S
H885 C891 0.930 . S
C886 H872 0.930 . S
C886 C884 1.395 . S
C886 C889 1.403 . S
C887 C884 1.403 . S
C887 C888 1.524 . S
C887 C891 1.400 . S
C888 H873 0.960 . S
C888 H874 0.960 . S
C888 H875 0.960 . S
C888 C887 1.524 . S
C889 C886 1.403 . S
C889 C890 1.392 . S
C889 C893 1.495 . S
C890 C889 1.392 . S
C890 C891 1.385 . S
C890 C892 1.478 . S
C891 H885 0.930 . S
C891 C887 1.400 . S
C891 C890 1.385 . S
C892 C890 1.478 . S
C892 C894 1.381 . S
C892 C898 1.383 . S
C893 C889 1.495 . S
C893 H899 0.959 . S
C893 H900 0.961 . S
C893 H901 0.960 . S
C894 C892 1.381 . S
C894 C895 1.394 . S
C894 H902 0.930 . S
C895 C894 1.394 . S
C895 C896 1.383 1_554 S
C895 H903 0.929 1_554 S
C896 C895 1.383 1_556 S
C896 C897 1.377 1_556 S
C897 H881 0.930 1_554 S
C897 C896 1.377 1_554 S
C897 C898 1.379 . S
C898 H882 0.931 . S
C898 C892 1.383 . S
C898 C897 1.379 . S
H899 C893 0.959 . S
H900 C893 0.961 . S
H901 C893 0.960 . S
H902 C894 0.930 . S
H903 C895 0.929 1_556 S
H904 C912 0.918 1_565 S
H905 C914 0.959 . S
H906 C916 0.930 . S
H907 C919 0.929 . S
H908 C922 0.930 . S
H909 C924 0.960 . S
H910 C924 0.960 . S
H911 C924 0.960 . S
C912 H904 0.918 1_545 S
C912 C913 1.393 . S
C912 C914 1.375 1_545 S
C913 C912 1.393 . S
C913 C919 1.390 . S
C914 H905 0.959 . S
C914 C912 1.375 1_565 S
C914 C915 1.352 1_565 S
C915 C914 1.352 1_545 S
C915 C916 1.400 . S
C915 C920 1.490 . S
C916 H906 0.930 . S
C916 C915 1.400 . S
C916 C919 1.386 . S
H917 C933 0.930 . S
H918 C934 0.931 . S
C919 H907 0.929 . S
C919 C913 1.390 . S
C919 C916 1.386 . S
C920 C915 1.490 . S
C920 C922 1.395 1_545 S
C920 C923 1.403 . S
H921 C927 0.930 . S
C922 H908 0.930 . S
C922 C920 1.395 1_565 S
C922 C925 1.403 . S
C923 C920 1.403 . S
C923 C924 1.524 . S
C923 C927 1.400 . S
C924 H909 0.960 . S
C924 H910 0.960 . S
C924 H911 0.960 . S
C924 C923 1.524 . S
C925 C922 1.403 . S
C925 C926 1.392 1_565 S
C925 C929 1.495 . S
C926 C925 1.392 1_545 S
C926 C927 1.385 . S
C926 C928 1.481 . S
C927 H921 0.930 . S
C927 C923 1.400 . S
C927 C926 1.385 . S
C928 C926 1.481 . S
C928 C930 1.369 1_545 S
C928 C934 1.393 . S
C929 C925 1.495 . S
C929 H935 0.959 . S
C929 H936 0.961 . S
C929 H937 0.960 . S
C930 C928 1.369 1_565 S
C930 C931 1.394 . S
C930 H938 0.930 . S
C931 C930 1.394 . S
C931 C932 1.383 1_565 S
C931 H939 0.929 . S
C932 C931 1.383 1_545 S
C932 C933 1.377 . S
C933 H917 0.930 . S
C933 C932 1.377 . S
C933 C934 1.379 . S
C934 H918 0.931 . S
C934 C928 1.393 . S
C934 C933 1.379 . S
H935 C929 0.959 . S
H936 C929 0.961 . S
H937 C929 0.960 . S
H938 C930 0.930 . S
H939 C931 0.929 . S
H940 C948 0.929 1_554 S
H941 C950 0.930 . S
H942 C952 0.930 . S
H943 C955 0.929 . S
H944 C958 0.930 . S
H945 C960 0.960 . S
H946 C960 0.960 . S
H947 C960 0.960 . S
C948 H940 0.929 1_556 S
C948 C949 1.377 1_556 S
C948 C950 1.384 . S
C949 C948 1.377 1_554 S
C949 C955 1.390 . S
C950 H941 0.930 . S
C950 C948 1.384 . S
C950 C951 1.372 . S
C951 C950 1.372 . S
C951 C952 1.400 . S
C951 C956 1.490 . S
C952 H942 0.930 . S
C952 C951 1.400 . S
C952 C955 1.386 1_556 S
H953 C969 0.930 . S
H954 C970 0.931 . S
C955 H943 0.929 . S
C955 C949 1.390 . S
C955 C952 1.386 1_554 S
C956 C951 1.490 . S
C956 C958 1.395 . S
C956 C959 1.403 . S
H957 C963 0.930 . S
C958 H944 0.930 . S
C958 C956 1.395 . S
C958 C961 1.403 . S
C959 C956 1.403 . S
C959 C960 1.524 . S
C959 C963 1.400 . S
C960 H945 0.960 . S
C960 H946 0.960 . S
C960 H947 0.960 . S
C960 C959 1.524 . S
C961 C958 1.403 . S
C961 C962 1.392 . S
C961 C965 1.495 . S
C962 C961 1.392 . S
C962 C963 1.385 . S
C962 C964 1.478 . S
C963 H957 0.930 . S
C963 C959 1.400 . S
C963 C962 1.385 . S
C964 C962 1.478 . S
C964 C966 1.381 . S
C964 C970 1.383 . S
C965 C961 1.495 . S
C965 H971 0.959 . S
C965 H972 0.961 . S
C965 H973 0.960 . S
C966 C964 1.381 . S
C966 C967 1.394 . S
C966 H974 0.930 . S
C967 C966 1.394 . S
C967 C968 1.383 . S
C967 H975 0.929 . S
C968 C967 1.383 . S
C968 C969 1.377 . S
C969 H953 0.930 . S
C969 C968 1.377 . S
C969 C970 1.379 . S
C970 H954 0.931 . S
C970 C964 1.383 . S
C970 C969 1.379 . S
H971 C965 0.959 . S
H972 C965 0.961 . S
H973 C965 0.960 . S
H974 C966 0.930 . S
H975 C967 0.929 . S
H976 C984 0.929 . S
H977 C986 0.930 . S
H978 C988 0.930 . S
H979 C991 0.929 . S
H980 C994 0.930 . S
H981 C996 0.960 . S
H982 C996 0.960 . S
H983 C996 0.960 . S
C984 H976 0.929 . S
C984 C985 1.377 . S
C984 C986 1.384 1_554 S
C985 C984 1.377 . S
C985 C991 1.390 . S
C986 H977 0.930 . S
C986 C984 1.384 1_556 S
C986 C987 1.372 . S
C987 C986 1.372 . S
C987 C988 1.400 . S
C987 C992 1.490 . S
C988 H978 0.930 . S
C988 C987 1.400 . S
C988 C991 1.386 1_556 S
H989 C1005 0.930 . S
H990 C1006 0.931 . S
C991 H979 0.929 . S
C991 C985 1.390 . S
C991 C988 1.386 1_554 S
C992 C987 1.490 . S
C992 C994 1.395 . S
C992 C995 1.403 . S
H993 C999 0.930 . S
C994 H980 0.930 . S
C994 C992 1.395 . S
C994 C997 1.403 . S
C995 C992 1.403 . S
C995 C996 1.524 . S
C995 C999 1.400 . S
C996 H981 0.960 . S
C996 H982 0.960 . S
C996 H983 0.960 . S
C996 C995 1.524 . S
C997 C994 1.403 . S
C997 C998 1.392 . S
C997 C1001 1.495 . S
C998 C997 1.392 . S
C998 C999 1.385 . S
C998 C1000 1.478 . S
C999 H993 0.930 . S
C999 C995 1.400 . S
C999 C998 1.385 . S
C1000 C998 1.478 . S
C1000 C1002 1.381 . S
C1000 C1006 1.383 . S
C1001 C997 1.495 . S
C1001 H1007 0.959 . S
C1001 H1008 0.961 . S
C1001 H1009 0.960 . S
C1002 C1000 1.381 . S
C1002 C1003 1.394 . S
C1002 H1010 0.930 . S
C1003 C1002 1.394 . S
C1003 C1004 1.383 . S
C1003 H1011 0.929 . S
C1004 C1003 1.383 . S
C1004 C1005 1.377 . S
C1005 H989 0.930 . S
C1005 C1004 1.377 . S
C1005 C1006 1.379 . S
C1006 H990 0.931 . S
C1006 C1000 1.383 . S
C1006 C1005 1.379 . S
H1007 C1001 0.959 . S
H1008 C1001 0.961 . S
H1009 C1001 0.960 . S
H1010 C1002 0.930 . S
H1011 C1003 0.929 . S
H1012 C1020 0.929 . S
H1013 C1022 0.930 . S
H1014 C1024 0.930 . S
H1015 C1027 0.929 . S
H1016 C1030 0.930 . S
H1017 C1032 0.960 . S
H1018 C1032 0.960 . S
H1019 C1032 0.960 . S
C1020 H1012 0.929 . S
C1020 C1021 1.377 . S
C1020 C1022 1.384 . S
C1021 C1020 1.377 . S
C1021 C1027 1.390 . S
C1022 H1013 0.930 . S
C1022 C1020 1.384 . S
C1022 C1023 1.372 . S
C1023 C1022 1.372 . S
C1023 C1024 1.400 . S
C1023 C1028 1.490 . S
C1024 H1014 0.930 . S
C1024 C1023 1.400 . S
C1024 C1027 1.386 . S
H1025 C1041 0.930 . S
H1026 C1042 0.931 . S
C1027 H1015 0.929 . S
C1027 C1021 1.390 . S
C1027 C1024 1.386 . S
C1028 C1023 1.490 . S
C1028 C1030 1.395 . S
C1028 C1031 1.403 . S
H1029 C1035 0.930 . S
C1030 H1016 0.930 . S
C1030 C1028 1.395 . S
C1030 C1033 1.403 . S
C1031 C1028 1.403 . S
C1031 C1032 1.524 . S
C1031 C1035 1.400 . S
C1032 H1017 0.960 . S
C1032 H1018 0.960 . S
C1032 H1019 0.960 . S
C1032 C1031 1.524 . S
C1033 C1030 1.403 . S
C1033 C1034 1.392 . S
C1033 C1037 1.495 . S
C1034 C1033 1.392 . S
C1034 C1035 1.385 . S
C1034 C1036 1.478 . S
C1035 H1029 0.930 . S
C1035 C1031 1.400 . S
C1035 C1034 1.385 . S
C1036 C1034 1.478 . S
C1036 C1038 1.381 . S
C1036 C1042 1.383 . S
C1037 C1033 1.495 . S
C1037 H1043 0.959 . S
C1037 H1044 0.961 . S
C1037 H1045 0.960 . S
C1038 C1036 1.381 . S
C1038 C1039 1.394 1_554 S
C1038 H1046 0.930 . S
C1039 C1038 1.394 1_556 S
C1039 C1040 1.383 . S
C1039 H1047 0.929 . S
C1040 C1039 1.383 . S
C1040 C1041 1.377 . S
C1041 H1025 0.930 . S
C1041 C1040 1.377 . S
C1041 C1042 1.379 1_556 S
C1042 H1026 0.931 . S
C1042 C1036 1.383 . S
C1042 C1041 1.379 1_554 S
H1043 C1037 0.959 . S
H1044 C1037 0.961 . S
H1045 C1037 0.960 . S
H1046 C1038 0.930 . S
H1047 C1039 0.929 . S
H1048 C1056 0.929 . S
H1049 C1058 0.930 . S
H1050 C1060 0.930 . S
H1051 C1063 0.929 . S
H1052 C1066 0.930 . S
H1053 C1068 0.960 . S
H1054 C1068 0.960 . S
H1055 C1068 0.960 . S
C1056 H1048 0.929 . S
C1056 C1057 1.377 . S
C1056 C1058 1.384 . S
C1057 C1056 1.377 . S
C1057 C1063 1.390 . S
C1058 H1049 0.930 . S
C1058 C1056 1.384 . S
C1058 C1059 1.372 . S
C1059 C1058 1.372 . S
C1059 C1060 1.400 . S
C1059 C1064 1.490 . S
C1060 H1050 0.930 . S
C1060 C1059 1.400 . S
C1060 C1063 1.386 . S
H1061 C1077 0.930 . S
H1062 C1078 0.931 . S
C1063 H1051 0.929 . S
C1063 C1057 1.390 . S
C1063 C1060 1.386 . S
C1064 C1059 1.490 . S
C1064 C1066 1.395 . S
C1064 C1067 1.403 . S
H1065 C1071 0.930 . S
C1066 H1052 0.930 . S
C1066 C1064 1.395 . S
C1066 C1069 1.403 . S
C1067 C1064 1.403 . S
C1067 C1068 1.524 . S
C1067 C1071 1.400 . S
C1068 H1053 0.960 . S
C1068 H1054 0.960 . S
C1068 H1055 0.960 . S
C1068 C1067 1.524 . S
C1069 C1066 1.403 . S
C1069 C1070 1.392 . S
C1069 C1073 1.495 . S
C1070 C1069 1.392 . S
C1070 C1071 1.385 . S
C1070 C1072 1.478 . S
C1071 H1065 0.930 . S
C1071 C1067 1.400 . S
C1071 C1070 1.385 . S
C1072 C1070 1.478 . S
C1072 C1074 1.381 . S
C1072 C1078 1.383 . S
C1073 C1069 1.495 . S
C1073 H1079 0.959 . S
C1073 H1080 0.961 . S
C1073 H1081 0.960 . S
C1074 C1072 1.381 . S
C1074 C1075 1.394 . S
C1074 H1082 0.930 . S
C1075 C1074 1.394 . S
C1075 C1076 1.383 . S
C1075 H1083 0.929 . S
C1076 C1075 1.383 . S
C1076 C1077 1.377 . S
C1077 H1061 0.930 . S
C1077 C1076 1.377 . S
C1077 C1078 1.379 . S
C1078 H1062 0.931 . S
C1078 C1072 1.383 . S
C1078 C1077 1.379 . S
H1079 C1073 0.959 . S
H1080 C1073 0.961 . S
H1081 C1073 0.960 . S
H1082 C1074 0.930 . S
H1083 C1075 0.929 . S
H1084 C1092 0.929 . S
H1085 C1094 0.930 . S
H1086 C1096 0.930 . S
H1087 C1099 0.929 . S
H1088 C1102 0.930 . S
H1089 C1104 0.960 . S
H1090 C1104 0.960 . S
H1091 C1104 0.960 . S
C1092 H1084 0.929 . S
C1092 C1093 1.377 . S
C1092 C1094 1.384 . S
C1093 C1092 1.377 . S
C1093 C1099 1.390 1_455 S
C1094 H1085 0.930 . S
C1094 C1092 1.384 . S
C1094 C1095 1.372 . S
C1095 C1094 1.372 . S
C1095 C1096 1.400 1_455 S
C1095 C1100 1.490 . S
C1096 H1086 0.930 . S
C1096 C1095 1.400 1_655 S
C1096 C1099 1.386 . S
H1097 C1113 0.930 . S
H1098 C1114 0.931 . S
C1099 H1087 0.929 . S
C1099 C1093 1.390 1_655 S
C1099 C1096 1.386 . S
C1100 C1095 1.490 . S
C1100 C1102 1.395 . S
C1100 C1103 1.403 1_455 S
H1101 C1107 0.930 . S
C1102 H1088 0.930 . S
C1102 C1100 1.395 . S
C1102 C1105 1.403 1_556 S
C1103 C1100 1.403 1_655 S
C1103 C1104 1.524 . S
C1103 C1107 1.400 1_556 S
C1104 H1089 0.960 . S
C1104 H1090 0.960 . S
C1104 H1091 0.960 . S
C1104 C1103 1.524 . S
C1105 C1102 1.403 1_554 S
C1105 C1106 1.392 . S
C1105 C1109 1.495 . S
C1106 C1105 1.392 . S
C1106 C1107 1.385 1_455 S
C1106 C1108 1.478 . S
C1107 H1101 0.930 . S
C1107 C1103 1.400 1_554 S
C1107 C1106 1.385 1_655 S
C1108 C1106 1.478 . S
C1108 C1110 1.381 . S
C1108 C1114 1.383 1_455 S
C1109 C1105 1.495 . S
C1109 H1115 0.959 1_554 S
C1109 H1116 0.961 . S
C1109 H1117 0.960 . S
C1110 C1108 1.381 . S
C1110 C1111 1.394 . S
C1110 H1118 0.930 . S
C1111 C1110 1.394 . S
C1111 C1112 1.383 . S
C1111 H1119 0.929 . S
C1112 C1111 1.383 . S
C1112 C1113 1.377 1_455 S
C1113 H1097 0.930 . S
C1113 C1112 1.377 1_655 S
C1113 C1114 1.379 . S
C1114 H1098 0.931 . S
C1114 C1108 1.383 1_655 S
C1114 C1113 1.379 . S
H1115 C1109 0.959 1_556 S
H1116 C1109 0.961 . S
H1117 C1109 0.960 . S
H1118 C1110 0.930 . S
H1119 C1111 0.929 . S
C265 C29 2.668 . S
C284 C125 2.663 . S
C301 N18 1.483 . S
C320 C36 1.523 . S
C337 N45 0.614 . S
C356 N77 0.663 . S
C373 C68 1.528 . S
C392 N114 1.502 . S
C409 C2 3.052 . S
C428 C162 3.049 . S
C445 N13 1.457 . S
C464 C134 1.487 . S
C481 N146 0.267 . S
C500 N82 0.370 . S
C517 N173 1.458 . S
C536 C70 1.488 . S
C553 C221 2.666 . S
C572 C189 2.658 . S
C589 C132 1.528 . S
C608 N210 1.501 . S
C625 N242 0.607 . S
C644 N141 0.653 . S
C661 N178 1.483 . S
C680 C253 1.524 . S
C697 C98 3.051 . S
C716 C194 3.048 . S
C733 N205 1.449 . S
C752 C38 1.488 . S
C769 N50 0.271 . S
C788 N237 0.331 . S
C805 N109 1.458 . S
C824 C226 1.488 . S
C841 C4 1.287 . S
C860 C6 1.282 . S
C877 C34 1.311 . S
C896 C61 1.317 . S
C913 C93 1.311 . S
C932 C66 1.315 . S
C949 C100 1.291 . S
C968 C102 1.294 . S
C985 C130 1.311 . S
C1004 C157 1.313 . S
C1021 C164 1.291 . S
C1040 C166 1.295 . S
C1057 C198 1.292 . S
C1076 C196 1.288 . S
C1093 C230 1.310 . S
C1112 C228 1.316 . S
