# Generated by pormake.
# Topology wkl, (6)-cn, num edge types: 1
# Building blocks:
#     Node 0, Type 0, BuildingBlock: OJICUG_clean_sbu_0, # of connection points: 6
#     Node 1, Type 0, BuildingBlock: OJICUG_clean_sbu_0, # of connection points: 6
#     Node 2, Type 0, BuildingBlock: OJICUG_clean_sbu_0, # of connection points: 6
#     Node 3, Type 0, BuildingBlock: OJICUG_clean_sbu_0, # of connection points: 6
#     Node 4, Type 0, BuildingBlock: OJICUG_clean_sbu_0, # of connection points: 6
#     Node 5, Type 0, BuildingBlock: OJICUG_clean_sbu_0, # of connection points: 6
#     Node 6, Type 0, BuildingBlock: OJICUG_clean_sbu_0, # of connection points: 6
#     Node 7, Type 0, BuildingBlock: OJICUG_clean_sbu_0, # of connection points: 6
#     Node 8, Type 0, BuildingBlock: OJICUG_clean_sbu_0, # of connection points: 6
#     Node 9, Type 0, BuildingBlock: OJICUG_clean_sbu_0, # of connection points: 6
#     Node 10, Type 0, BuildingBlock: OJICUG_clean_sbu_0, # of connection points: 6
#     Node 11, Type 0, BuildingBlock: OJICUG_clean_sbu_0, # of connection points: 6
#     Edge 12, Type (0, 0), BuildingBlock: XIVTED_clean_linker_0, # of connection points: 2
#     Edge 13, Type (0, 0), BuildingBlock: XIVTED_clean_linker_0, # of connection points: 2
#     Edge 14, Type (0, 0), BuildingBlock: XIVTED_clean_linker_0, # of connection points: 2
#     Edge 15, Type (0, 0), BuildingBlock: XIVTED_clean_linker_0, # of connection points: 2
#     Edge 16, Type (0, 0), BuildingBlock: XIVTED_clean_linker_0, # of connection points: 2
#     Edge 17, Type (0, 0), BuildingBlock: XIVTED_clean_linker_0, # of connection points: 2
#     Edge 18, Type (0, 0), BuildingBlock: XIVTED_clean_linker_0, # of connection points: 2
#     Edge 19, Type (0, 0), BuildingBlock: XIVTED_clean_linker_0, # of connection points: 2
#     Edge 20, Type (0, 0), BuildingBlock: XIVTED_clean_linker_0, # of connection points: 2
#     Edge 21, Type (0, 0), BuildingBlock: XIVTED_clean_linker_0, # of connection points: 2
#     Edge 22, Type (0, 0), BuildingBlock: XIVTED_clean_linker_0, # of connection points: 2
#     Edge 23, Type (0, 0), BuildingBlock: XIVTED_clean_linker_0, # of connection points: 2
#     Edge 24, Type (0, 0), BuildingBlock: XIVTED_clean_linker_0, # of connection points: 2
#     Edge 25, Type (0, 0), BuildingBlock: XIVTED_clean_linker_0, # of connection points: 2
#     Edge 26, Type (0, 0), BuildingBlock: XIVTED_clean_linker_0, # of connection points: 2
#     Edge 27, Type (0, 0), BuildingBlock: XIVTED_clean_linker_0, # of connection points: 2
#     Edge 28, Type (0, 0), BuildingBlock: XIVTED_clean_linker_0, # of connection points: 2
#     Edge 29, Type (0, 0), BuildingBlock: XIVTED_clean_linker_0, # of connection points: 2
#     Edge 30, Type (0, 0), BuildingBlock: XIVTED_clean_linker_0, # of connection points: 2
#     Edge 31, Type (0, 0), BuildingBlock: XIVTED_clean_linker_0, # of connection points: 2
#     Edge 32, Type (0, 0), BuildingBlock: XIVTED_clean_linker_0, # of connection points: 2
#     Edge 33, Type (0, 0), BuildingBlock: XIVTED_clean_linker_0, # of connection points: 2
#     Edge 34, Type (0, 0), BuildingBlock: XIVTED_clean_linker_0, # of connection points: 2
#     Edge 35, Type (0, 0), BuildingBlock: XIVTED_clean_linker_0, # of connection points: 2
#     Edge 36, Type (0, 0), BuildingBlock: XIVTED_clean_linker_0, # of connection points: 2
#     Edge 37, Type (0, 0), BuildingBlock: XIVTED_clean_linker_0, # of connection points: 2
#     Edge 38, Type (0, 0), BuildingBlock: XIVTED_clean_linker_0, # of connection points: 2
#     Edge 39, Type (0, 0), BuildingBlock: XIVTED_clean_linker_0, # of connection points: 2
#     Edge 40, Type (0, 0), BuildingBlock: XIVTED_clean_linker_0, # of connection points: 2
#     Edge 41, Type (0, 0), BuildingBlock: XIVTED_clean_linker_0, # of connection points: 2
#     Edge 42, Type (0, 0), BuildingBlock: XIVTED_clean_linker_0, # of connection points: 2
#     Edge 43, Type (0, 0), BuildingBlock: XIVTED_clean_linker_0, # of connection points: 2
#     Edge 44, Type (0, 0), BuildingBlock: XIVTED_clean_linker_0, # of connection points: 2
#     Edge 45, Type (0, 0), BuildingBlock: XIVTED_clean_linker_0, # of connection points: 2
#     Edge 46, Type (0, 0), BuildingBlock: XIVTED_clean_linker_0, # of connection points: 2
#     Edge 47, Type (0, 0), BuildingBlock: XIVTED_clean_linker_0, # of connection points: 2
# Relax obj value: 0.345
# Max RMSD: 0.288
# Mean RMSD: 0.288
data_MOF--net-wkl--node1-OJICUG_clean_sbu_0--edge1-XIVTED_clean_linker_0
_symmetry_space_group_name_H-M    P1
_symmetry_Int_Tables_number       1
_symmetry_cell_setting            triclinic
loop_
_symmetry_equiv_pos_as_xyz
'x, y, z'
_cell_length_a     72.676601
_cell_length_b     72.708161
_cell_length_c     15.859494
_cell_angle_alpha  89.967476
_cell_angle_beta   89.998363
_cell_angle_gamma 120.01778
loop_
_atom_site_label
_atom_site_type_symbol
_atom_site_fract_x
_atom_site_fract_y
_atom_site_fract_z
_atom_type_partial_charge
Sc0 Sc 0.45731 0.10202 0.05363 0.0
Sc1 Sc 0.48198 0.14324 0.90988 0.0
Sc2 Sc 0.43009 0.12632 0.97532 0.0
O3 O 0.45647 0.12392 0.97978 0.0
C4 C 0.41146 0.07654 0.98223 0.0
C5 C 0.48219 0.10089 0.88942 0.0
C6 C 0.44317 0.133 0.78558 0.0
C7 C 0.50295 0.13977 0.0828 0.0
C8 C 0.43208 0.11835 0.16757 0.0
C9 C 0.46776 0.17467 0.96755 0.0
O10 O 0.42927 0.07775 0.99499 0.0
O11 O 0.48243 0.11667 0.85387 0.0
O12 O 0.42858 0.12307 0.83988 0.0
O13 O 0.48562 0.12554 0.11521 0.0
O14 O 0.43045 0.12985 0.11086 0.0
O15 O 0.4829 0.1708 0.96184 0.0
O16 O 0.43886 0.10559 0.15242 0.0
O17 O 0.50436 0.14581 0.00641 0.0
O18 O 0.44825 0.16037 0.96393 0.0
O19 O 0.47599 0.09546 0.96507 0.0
O20 O 0.40859 0.09239 0.9853 0.0
O21 O 0.46285 0.14307 0.8046 0.0
Sc22 Sc 0.35334 0.45935 0.23031 0.0
Sc23 Sc 0.33589 0.48339 0.08672 0.0
Sc24 Sc 0.3015 0.43159 0.1549 0.0
O25 O 0.33027 0.45803 0.15697 0.0
C26 C 0.33273 0.41286 0.16621 0.0
C27 C 0.3785 0.48384 0.06299 0.0
C28 C 0.3068 0.44431 0.96491 0.0
C29 C 0.36109 0.50511 0.25662 0.0
C30 C 0.3122 0.43452 0.34737 0.0
C31 C 0.29085 0.46899 0.15686 0.0
O32 O 0.34948 0.43067 0.17709 0.0
O33 O 0.36282 0.48404 0.02834 0.0
O34 O 0.30258 0.42983 0.01924 0.0
O35 O 0.35827 0.48794 0.2893 0.0
O36 O 0.29881 0.43204 0.29043 0.0
O37 O 0.3096 0.48408 0.14357 0.0
O38 O 0.33183 0.44179 0.33195 0.0
O39 O 0.35626 0.50632 0.18045 0.0
O40 O 0.28531 0.4495 0.14796 0.0
O41 O 0.37793 0.47744 0.13828 0.0
O42 O 0.31416 0.41042 0.16532 0.0
O43 O 0.31629 0.46398 0.98352 0.0
Sc44 Sc 0.89194 0.35801 0.44093 0.0
Sc45 Sc 0.85145 0.33719 0.29183 0.0
Sc46 Sc 0.87301 0.30662 0.36459 0.0
O47 O 0.87226 0.33396 0.36564 0.0
C48 C 0.92205 0.34143 0.38203 0.0
C49 C 0.8918 0.3816 0.2699 0.0
C50 C 0.86537 0.31059 0.17357 0.0
C51 C 0.85125 0.36171 0.45871 0.0
C52 C 0.8789 0.31743 0.55783 0.0
C53 C 0.82348 0.29141 0.36062 0.0
O54 O 0.91897 0.35688 0.39594 0.0
O55 O 0.87671 0.36522 0.23518 0.0
O56 O 0.8762 0.30765 0.22935 0.0
O57 O 0.86621 0.36045 0.49427 0.0
O58 O 0.86986 0.30365 0.50004 0.0
O59 O 0.82545 0.30949 0.34604 0.0
O60 O 0.88889 0.33732 0.54389 0.0
O61 O 0.84595 0.35631 0.38236 0.0
O62 O 0.83892 0.28784 0.35717 0.0
O63 O 0.89741 0.38183 0.34625 0.0
O64 O 0.9072 0.32228 0.37458 0.0
O65 O 0.8538 0.31869 0.19008 0.0
Sc66 Sc 0.52399 0.88928 0.58971 0.0
Sc67 Sc 0.50048 0.84817 0.44473 0.0
Sc68 Sc 0.55276 0.86672 0.50951 0.0
O69 O 0.52574 0.868 0.51487 0.0
C70 C 0.56977 0.91615 0.51713 0.0
C71 C 0.49874 0.88979 0.42552 0.0
C72 C 0.5395 0.85954 0.31996 0.0
C73 C 0.47876 0.85069 0.61717 0.0
C74 C 0.55036 0.87407 0.70269 0.0
C75 C 0.51625 0.81787 0.50136 0.0
O76 O 0.55178 0.91431 0.53228 0.0
O77 O 0.49901 0.87432 0.38949 0.0
O78 O 0.55404 0.86984 0.37396 0.0
O79 O 0.49586 0.8651 0.65032 0.0
O80 O 0.55287 0.86333 0.64504 0.0
O81 O 0.5006 0.82098 0.49572 0.0
O82 O 0.5426 0.88605 0.68855 0.0
O83 O 0.47774 0.84475 0.54091 0.0
O84 O 0.53554 0.83272 0.49867 0.0
O85 O 0.50495 0.89529 0.50108 0.0
O86 O 0.57329 0.90072 0.51802 0.0
O87 O 0.51986 0.84907 0.33924 0.0
Sc88 Sc 0.62955 0.52455 0.76003 0.0
Sc89 Sc 0.64713 0.50062 0.61701 0.0
Sc90 Sc 0.68099 0.55284 0.68182 0.0
O91 O 0.65261 0.52596 0.68651 0.0
C92 C 0.64883 0.57012 0.68684 0.0
C93 C 0.60373 0.49879 0.59687 0.0
C94 C 0.67482 0.53964 0.49215 0.0
C95 C 0.62247 0.4793 0.7897 0.0
C96 C 0.67096 0.55071 0.87393 0.0
C97 C 0.69321 0.51629 0.67402 0.0
O98 O 0.63253 0.5521 0.69984 0.0
O99 O 0.61948 0.49903 0.56092 0.0
O100 O 0.67913 0.55416 0.54633 0.0
O101 O 0.62537 0.49653 0.82225 0.0
O102 O 0.68424 0.55264 0.81735 0.0
O103 O 0.6744 0.5007 0.66872 0.0
O104 O 0.65135 0.54351 0.85861 0.0
O105 O 0.62762 0.47814 0.71385 0.0
O106 O 0.6977 0.53558 0.67062 0.0
O107 O 0.60454 0.50526 0.672 0.0
O108 O 0.66775 0.57359 0.69122 0.0
O109 O 0.66571 0.51999 0.51136 0.0
Sc110 Sc 0.09781 0.63732 0.88812 0.0
Sc111 Sc 0.13941 0.65481 0.74574 0.0
Sc112 Sc 0.12111 0.68874 0.80979 0.0
O113 O 0.11952 0.66034 0.81471 0.0
C114 C 0.07156 0.65662 0.81468 0.0
C115 C 0.0977 0.61168 0.72439 0.0
C116 C 0.12843 0.68264 0.62047 0.0
C117 C 0.13593 0.63024 0.91852 0.0
C118 C 0.1131 0.67869 1.00201 0.0
C119 C 0.16985 0.70069 0.8045 0.0
O120 O 0.07327 0.64033 0.82804 0.0
O121 O 0.1133 0.62744 0.68887 0.0
O122 O 0.11808 0.68688 0.67431 0.0
O123 O 0.12165 0.63325 0.95075 0.0
O124 O 0.12444 0.69196 0.94537 0.0
O125 O 0.16651 0.68185 0.79888 0.0
O126 O 0.10062 0.65909 0.98672 0.0
O127 O 0.14212 0.63504 0.84235 0.0
O128 O 0.15517 0.70535 0.79958 0.0
O129 O 0.09209 0.61233 0.79982 0.0
O130 O 0.08704 0.67554 0.81864 0.0
O131 O 0.13901 0.67361 0.64015 0.0
Sc132 Sc 0.87208 0.55133 0.86568 0.0
Sc133 Sc 0.85003 0.49918 0.93732 0.0
Sc134 Sc 0.89088 0.51887 0.78986 0.0
O135 O 0.87113 0.52321 0.86445 0.0
C136 C 0.87788 0.54644 0.67281 0.0
C137 C 0.82258 0.51749 0.86894 0.0
C138 C 0.8501 0.47467 0.77022 0.0
C139 C 0.86447 0.53972 0.05614 0.0
C140 C 0.92112 0.56544 0.84675 0.0
C141 C 0.89015 0.49479 0.96061 0.0
O142 O 0.86846 0.55082 0.73033 0.0
O143 O 0.82434 0.50118 0.88132 0.0
O144 O 0.86513 0.49096 0.73518 0.0
O145 O 0.87572 0.55343 1.00075 0.0
O146 O 0.91794 0.54674 0.83682 0.0
O147 O 0.87506 0.49616 0.99499 0.0
O148 O 0.90618 0.56966 0.85283 0.0
O149 O 0.85236 0.52015 0.03894 0.0
O150 O 0.89589 0.50019 0.88435 0.0
O151 O 0.83807 0.53638 0.87587 0.0
O152 O 0.88824 0.53692 0.68724 0.0
O153 O 0.84469 0.47464 0.84655 0.0
Sc154 Sc 0.31202 0.87662 0.02999 0.0
Sc155 Sc 0.34171 0.8541 0.10126 0.0
Sc156 Sc 0.36311 0.89462 0.95287 0.0
O157 O 0.33899 0.87527 0.02819 0.0
C158 C 0.3226 0.88235 0.83655 0.0
C159 C 0.29602 0.82705 0.03159 0.0
C160 C 0.36656 0.85394 0.93535 0.0
C161 C 0.31557 0.86845 0.22017 0.0
C162 C 0.34747 0.92546 0.01042 0.0
C163 C 0.38635 0.89382 0.12385 0.0
O164 O 0.30877 0.87324 0.89433 0.0
O165 O 0.31403 0.82865 0.04404 0.0
O166 O 0.36495 0.86859 0.89881 0.0
O167 O 0.3135 0.88006 0.16534 0.0
O168 O 0.36274 0.92195 0.99899 0.0
O169 O 0.36979 0.87907 0.1592 0.0
O170 O 0.32822 0.91078 0.01791 0.0
O171 O 0.32286 0.85624 0.20236 0.0
O172 O 0.38665 0.89935 0.04732 0.0
O173 O 0.29272 0.84261 0.03953 0.0
O174 O 0.3425 0.89217 0.85052 0.0
O175 O 0.36116 0.8488 0.01183 0.0
Sc176 Sc 0.43027 0.3103 0.21025 0.0
Sc177 Sc 0.48215 0.34293 0.27845 0.0
Sc178 Sc 0.45895 0.36219 0.13912 0.0
O179 O 0.45714 0.33855 0.20951 0.0
C180 C 0.43374 0.32167 0.01964 0.0
C181 C 0.46617 0.29794 0.20639 0.0
C182 C 0.50414 0.36877 0.10953 0.0
C183 C 0.44255 0.31509 0.3999 0.0
C184 C 0.41282 0.34245 0.2042 0.0
C185 C 0.48446 0.38622 0.30626 0.0
O186 O 0.43157 0.30804 0.07503 0.0
O187 O 0.48178 0.3165 0.21753 0.0
O188 O 0.48709 0.36648 0.07742 0.0
O189 O 0.42834 0.31175 0.34544 0.0
O190 O 0.43098 0.35901 0.19773 0.0
O191 O 0.48385 0.37002 0.33977 0.0
O192 O 0.40983 0.32374 0.19787 0.0
O193 O 0.46216 0.32319 0.38102 0.0
O194 O 0.47808 0.38618 0.23139 0.0
O195 O 0.44705 0.29307 0.22076 0.0
O196 O 0.44041 0.34111 0.03725 0.0
O197 O 0.5052 0.36337 0.18503 0.0
Sc198 Sc 0.12308 0.44387 0.35584 0.0
Sc199 Sc 0.13949 0.49555 0.42074 0.0
Sc200 Sc 0.09784 0.47016 0.27923 0.0
O201 O 0.12024 0.46993 0.35169 0.0
C202 C 0.11484 0.44568 0.16437 0.0
C203 C 0.17126 0.48181 0.3643 0.0
C204 C 0.13501 0.51596 0.24785 0.0
C205 C 0.1296 0.45688 0.54537 0.0
C206 C 0.07324 0.42445 0.35085 0.0
C207 C 0.09694 0.49531 0.44274 0.0
O208 O 0.12686 0.44467 0.22039 0.0
O209 O 0.16723 0.49687 0.3679 0.0
O210 O 0.12091 0.49847 0.21607 0.0
O211 O 0.1196 0.44224 0.49128 0.0
O212 O 0.07408 0.44217 0.34053 0.0
O213 O 0.11283 0.49568 0.47786 0.0
O214 O 0.08931 0.422 0.34442 0.0
O215 O 0.13972 0.47654 0.52597 0.0
O216 O 0.09135 0.48892 0.36744 0.0
O217 O 0.15704 0.46231 0.36876 0.0
O218 O 0.10143 0.45161 0.18062 0.0
O219 O 0.14138 0.51759 0.32386 0.0
Sc220 Sc 0.67008 0.11652 0.50664 0.0
Sc221 Sc 0.63949 0.13838 0.57426 0.0
Sc222 Sc 0.61969 0.09864 0.4222 0.0
O223 O 0.64308 0.11777 0.50101 0.0
C224 C 0.66139 0.11201 0.31209 0.0
C225 C 0.68628 0.16622 0.52099 0.0
C226 C 0.61641 0.13947 0.4041 0.0
C227 C 0.6645 0.12316 0.69641 0.0
C228 C 0.63509 0.06778 0.48206 0.0
C229 C 0.59465 0.09819 0.5891 0.0
O230 O 0.67468 0.12104 0.37165 0.0
O231 O 0.6681 0.16467 0.52556 0.0
O232 O 0.61816 0.12482 0.36827 0.0
O233 O 0.66728 0.11206 0.64139 0.0
O234 O 0.61983 0.07117 0.46808 0.0
O235 O 0.61077 0.11297 0.62641 0.0
O236 O 0.65424 0.08252 0.49128 0.0
O237 O 0.65699 0.13519 0.6784 0.0
O238 O 0.59506 0.09304 0.51262 0.0
O239 O 0.68906 0.15029 0.5229 0.0
O240 O 0.64139 0.10183 0.32333 0.0
O241 O 0.62126 0.14444 0.48111 0.0
Sc242 Sc 0.55128 0.67309 0.6754 0.0
Sc243 Sc 0.49882 0.64242 0.74496 0.0
Sc244 Sc 0.51896 0.62199 0.59604 0.0
O245 O 0.52313 0.6458 0.67235 0.0
C246 C 0.54701 0.66288 0.48138 0.0
C247 C 0.51711 0.6884 0.67775 0.0
C248 C 0.47452 0.61812 0.5769 0.0
C249 C 0.53897 0.66877 0.86576 0.0
C250 C 0.56551 0.63836 0.65626 0.0
C251 C 0.49449 0.59783 0.76515 0.0
O252 O 0.55166 0.67652 0.53971 0.0
O253 O 0.50085 0.67034 0.69113 0.0
O254 O 0.49087 0.61954 0.54184 0.0
O255 O 0.55295 0.67174 0.81087 0.0
O256 O 0.547 0.62296 0.64149 0.0
O257 O 0.49561 0.61405 0.80072 0.0
O258 O 0.56974 0.65744 0.6656 0.0
O259 O 0.51935 0.66065 0.848 0.0
O260 O 0.50038 0.598 0.68931 0.0
O261 O 0.53606 0.69186 0.68293 0.0
O262 O 0.5369 0.64296 0.49439 0.0
O263 O 0.47451 0.62358 0.65308 0.0
H264 H 0.46415 0.1634 0.66595 0.0
H265 H 0.41288 0.08702 0.28441 0.0
H266 H 0.40935 0.10116 0.70091 0.0
H267 H 0.44174 0.15479 0.2529 0.0
H268 H 0.41137 0.09143 0.43679 0.0
H269 H 0.45679 0.16067 0.51451 0.0
C270 C 0.45044 0.14924 0.64175 0.0
C271 C 0.43742 0.1324 0.69584 0.0
C272 C 0.41763 0.1053 0.39645 0.0
C273 C 0.42911 0.12909 0.52272 0.0
C274 C 0.41853 0.1028 0.30965 0.0
C275 C 0.42749 0.12059 0.25635 0.0
C276 C 0.42635 0.12579 0.43039 0.0
C277 C 0.43461 0.14069 0.29198 0.0
C278 C 0.44619 0.14776 0.55549 0.0
C279 C 0.41977 0.11449 0.66133 0.0
N280 N 0.43432 0.14281 0.37717 0.0
N281 N 0.41636 0.11312 0.5766 0.0
H282 H 0.2951 0.46408 0.84867 0.0
H283 H 0.28005 0.43766 0.424 0.0
H284 H 0.30688 0.41186 0.87738 0.0
H285 H 0.32908 0.4221 0.47357 0.0
H286 H 0.27313 0.43615 0.57614 0.0
H287 H 0.29084 0.45746 0.69691 0.0
C288 C 0.29642 0.45097 0.82304 0.0
C289 C 0.30138 0.4385 0.87544 0.0
C290 C 0.28528 0.43293 0.55342 0.0
C291 C 0.29657 0.43087 0.70196 0.0
C292 C 0.28909 0.43358 0.46674 0.0
C293 C 0.30538 0.43032 0.43647 0.0
C294 C 0.29771 0.42878 0.60969 0.0
C295 C 0.31661 0.42507 0.49454 0.0
C296 C 0.29379 0.44708 0.73656 0.0
C297 C 0.30295 0.42175 0.83911 0.0
N298 N 0.31262 0.42453 0.57844 0.0
N299 N 0.30102 0.41871 0.75415 0.0
H300 H 0.8442 0.28578 0.63848 0.0
H301 H 0.89986 0.31348 0.09167 0.0
H302 H 0.90968 0.33378 0.67753 0.0
H303 H 0.83447 0.29656 0.05353 0.0
H304 H 0.90335 0.31011 0.93912 0.0
H305 H 0.84047 0.2789 0.7913 0.0
C306 C 0.85788 0.29447 0.67903 0.0
C307 C 0.87721 0.31049 0.64609 0.0
C308 C 0.88817 0.30678 0.96469 0.0
C309 C 0.87317 0.30259 0.81911 0.0
C310 C 0.88614 0.30862 0.05143 0.0
C311 C 0.86693 0.30554 0.08473 0.0
C312 C 0.87073 0.3014 0.91165 0.0
C313 C 0.84964 0.29934 0.02997 0.0
C314 C 0.85573 0.29064 0.76585 0.0
C315 C 0.89446 0.32146 0.70099 0.0
N316 N 0.85196 0.29754 0.94593 0.0
N317 N 0.89203 0.31735 0.78499 0.0
H318 H 0.51945 0.82822 0.20339 0.0
H319 H 0.5468 0.83868 0.78017 0.0
H320 H 0.57227 0.8919 0.23253 0.0
H321 H 0.56379 0.90373 0.82736 0.0
H322 H 0.54797 0.83339 0.93268 0.0
H323 H 0.52653 0.83035 0.05204 0.0
C324 C 0.53275 0.84255 0.17795 0.0
C325 C 0.54527 0.85995 0.23036 0.0
C326 C 0.55161 0.84885 0.90935 0.0
C327 C 0.55349 0.86248 0.05731 0.0
C328 C 0.55118 0.85194 0.82246 0.0
C329 C 0.55489 0.87158 0.79146 0.0
C330 C 0.556 0.8656 0.96502 0.0
C331 C 0.5605 0.88824 0.84894 0.0
C332 C 0.53692 0.84366 0.09171 0.0
C333 C 0.56231 0.87811 0.19425 0.0
N334 N 0.56079 0.88485 0.93302 0.0
N335 N 0.56565 0.87909 0.10949 0.0
H336 H 0.658 0.56914 0.9908 0.0
H337 H 0.68497 0.51928 0.3724 0.0
H338 H 0.69844 0.542 0.95935 0.0
H339 H 0.67577 0.57297 0.4074 0.0
H340 H 0.68943 0.5267 0.22094 0.0
H341 H 0.66389 0.5707 0.14322 0.0
C342 C 0.66845 0.56388 0.01606 0.0
C343 C 0.67773 0.55539 0.96276 0.0
C344 C 0.68677 0.53705 0.26193 0.0
C345 C 0.68404 0.55657 0.13685 0.0
C346 C 0.68409 0.53275 0.34821 0.0
C347 C 0.67984 0.54545 0.40232 0.0
C348 C 0.68464 0.55382 0.22919 0.0
C349 C 0.67902 0.56281 0.36781 0.0
C350 C 0.67183 0.5648 0.10289 0.0
C351 C 0.69111 0.54876 0.99843 0.0
N352 N 0.681 0.56625 0.28309 0.0
N353 N 0.69351 0.54906 0.08364 0.0
H354 H 0.15878 0.69222 0.50028 0.0
H355 H 0.0818 0.66598 0.11941 0.0
H356 H 0.09622 0.68394 0.53579 0.0
H357 H 0.14948 0.70581 0.08705 0.0
H358 H 0.08632 0.6718 0.27184 0.0
H359 H 0.15579 0.69657 0.34873 0.0
C360 C 0.14449 0.69152 0.4762 0.0
C361 C 0.12765 0.68757 0.53051 0.0
C362 C 0.10013 0.67962 0.23131 0.0
C363 C 0.12405 0.69224 0.35728 0.0
C364 C 0.09757 0.67629 0.14448 0.0
C365 C 0.11531 0.68543 0.09091 0.0
C366 C 0.12064 0.69164 0.26499 0.0
C367 C 0.13541 0.6986 0.12634 0.0
C368 C 0.14286 0.69413 0.38987 0.0
C369 C 0.10957 0.68697 0.49608 0.0
N370 N 0.1376 0.70096 0.21154 0.0
N371 N 0.10807 0.68888 0.41135 0.0
H372 H 0.89913 0.57097 0.13856 0.0
H373 H 0.84316 0.54323 0.59153 0.0
H374 H 0.83351 0.52303 0.17623 0.0
H375 H 0.90872 0.56087 0.55313 0.0
H376 H 0.83952 0.54629 0.4386 0.0
H377 H 0.9026 0.57775 0.29112 0.0
C378 C 0.88536 0.5622 0.17869 0.0
C379 C 0.86608 0.54624 0.14519 0.0
C380 C 0.85477 0.54985 0.4642 0.0
C381 C 0.86987 0.55409 0.31843 0.0
C382 C 0.85688 0.54823 0.55111 0.0
C383 C 0.8762 0.55161 0.58434 0.0
C384 C 0.87224 0.55534 0.41106 0.0
C385 C 0.89349 0.55791 0.52952 0.0
C386 C 0.88738 0.56602 0.26547 0.0
C387 C 0.84873 0.53527 0.19989 0.0
N388 N 0.8911 0.55952 0.44543 0.0
N389 N 0.85105 0.53935 0.28397 0.0
H390 H 0.33896 0.91384 0.71994 0.0
H391 H 0.30063 0.83684 0.33746 0.0
H392 H 0.29139 0.84797 0.75239 0.0
H393 H 0.31909 0.9028 0.30577 0.0
H394 H 0.29689 0.8402 0.48912 0.0
H395 H 0.33192 0.91041 0.56827 0.0
C396 C 0.32677 0.89874 0.69502 0.0
C397 C 0.31579 0.88112 0.74825 0.0
C398 C 0.30138 0.85383 0.44881 0.0
C399 C 0.30803 0.87695 0.57501 0.0
C400 C 0.30363 0.85197 0.36242 0.0
C401 C 0.31037 0.86964 0.30928 0.0
C402 C 0.30646 0.87364 0.48259 0.0
C403 C 0.31388 0.88881 0.34465 0.0
C404 C 0.32271 0.8968 0.60866 0.0
C405 C 0.30013 0.86191 0.71321 0.0
N406 N 0.31232 0.89043 0.42951 0.0
N407 N 0.29702 0.86019 0.62825 0.0
H408 H 0.44042 0.29241 0.93768 0.0
H409 H 0.4104 0.31686 0.48238 0.0
H410 H 0.41849 0.33699 0.89782 0.0
H411 H 0.46135 0.30357 0.52199 0.0
H412 H 0.40402 0.31417 0.63516 0.0
H413 H 0.4388 0.28637 0.78467 0.0
C414 C 0.43483 0.30055 0.89691 0.0
C415 C 0.42973 0.31534 0.93008 0.0
C416 C 0.41637 0.31154 0.60997 0.0
C417 C 0.42767 0.30836 0.75623 0.0
C418 C 0.41995 0.31296 0.52301 0.0
C419 C 0.43655 0.31061 0.48976 0.0
C420 C 0.42919 0.30731 0.66356 0.0
C421 C 0.44854 0.30571 0.54526 0.0
C422 C 0.43404 0.2972 0.80987 0.0
C423 C 0.42274 0.32561 0.87454 0.0
N424 N 0.44465 0.30425 0.62953 0.0
N425 N 0.42194 0.32195 0.79025 0.0
H426 H 0.08354 0.42639 0.04733 0.0
H427 H 0.16 0.47798 0.66486 0.0
H428 H 0.15142 0.45594 0.07844 0.0
H429 H 0.09778 0.4231 0.63066 0.0
H430 H 0.15727 0.47079 0.81646 0.0
H431 H 0.088 0.42503 0.89489 0.0
C432 C 0.09936 0.43225 0.02201 0.0
C433 C 0.11716 0.44134 0.07526 0.0
C434 C 0.14436 0.46013 0.77563 0.0
C435 C 0.12241 0.44035 0.90108 0.0
C436 C 0.14584 0.46429 0.68925 0.0
C437 C 0.12901 0.4512 0.63529 0.0
C438 C 0.12569 0.44308 0.80866 0.0
C439 C 0.11111 0.43358 0.6701 0.0
C440 C 0.10189 0.43144 0.93515 0.0
C441 C 0.1373 0.44872 0.03945 0.0
N442 N 0.10974 0.43025 0.75491 0.0
N443 N 0.13944 0.44847 0.95423 0.0
H444 H 0.66348 0.08961 0.7798 0.0
H445 H 0.69093 0.14762 0.22893 0.0
H446 H 0.67751 0.15419 0.81553 0.0
H447 H 0.64803 0.08049 0.19658 0.0
H448 H 0.69698 0.15102 0.07552 0.0
H449 H 0.66847 0.08714 0.93179 0.0
C450 C 0.66795 0.10335 0.81936 0.0
C451 C 0.66977 0.12202 0.7855 0.0
C452 C 0.68662 0.1355 0.10253 0.0
C453 C 0.6758 0.11942 0.95811 0.0
C454 C 0.68331 0.13355 0.18975 0.0
C455 C 0.66887 0.11379 0.22468 0.0
C456 C 0.67569 0.11749 0.05089 0.0
C457 C 0.65916 0.09602 0.17151 0.0
C458 C 0.67075 0.10192 0.90583 0.0
C459 C 0.67561 0.13938 0.83946 0.0
N460 N 0.66266 0.0983 0.0871 0.0
N461 N 0.67835 0.13765 0.9232 0.0
H462 H 0.56345 0.64774 0.36544 0.0
H463 H 0.52104 0.6822 0.98358 0.0
H464 H 0.54252 0.69329 0.39736 0.0
H465 H 0.57096 0.66713 0.95067 0.0
H466 H 0.52848 0.68651 0.13495 0.0
H467 H 0.56669 0.65465 0.21361 0.0
C468 C 0.55992 0.6595 0.34035 0.0
C469 C 0.55264 0.66993 0.39342 0.0
C470 C 0.53806 0.68264 0.09442 0.0
C471 C 0.55576 0.67748 0.22012 0.0
C472 C 0.53374 0.68004 0.00822 0.0
C473 C 0.54528 0.67409 0.95485 0.0
C474 C 0.55363 0.6787 0.12778 0.0
C475 C 0.56168 0.67169 0.98977 0.0
C476 C 0.56182 0.66348 0.25393 0.0
C477 C 0.54826 0.68501 0.35825 0.0
N478 N 0.56509 0.67356 0.07448 0.0
N479 N 0.54942 0.68801 0.27325 0.0
H480 H 0.40503 0.05265 0.84437 0.0
H481 H 0.3278 0.94513 0.08657 0.0
H482 H 0.37842 0.05262 0.0871 0.0
H483 H 0.37689 0.95518 0.90838 0.0
H484 H 0.33631 0.98217 0.06364 0.0
H485 H 0.38254 0.01406 0.83835 0.0
C486 C 0.39383 0.04446 0.89495 0.0
C487 C 0.39348 0.05546 0.96646 0.0
C488 C 0.34498 0.97605 0.02931 0.0
C489 C 0.36864 0.01164 0.96219 0.0
C490 C 0.34029 0.95512 0.04276 0.0
C491 C 0.35207 0.94742 1.00089 0.0
C492 C 0.36106 0.98885 0.9719 0.0
C493 C 0.36783 0.9607 0.9437 0.0
C494 C 0.38116 0.02252 0.89199 0.0
C495 C 0.37894 0.0444 0.031 0.0
N496 N 0.37185 0.98074 0.93095 0.0
N497 N 0.36734 0.02285 0.02843 0.0
H498 H 0.37816 0.32523 0.10284 0.0
H499 H 0.33349 0.3945 0.311 0.0
H500 H 0.40616 0.36637 0.31741 0.0
H501 H 0.33802 0.38998 0.0417 0.0
H502 H 0.34644 0.36946 0.33009 0.0
H503 H 0.35049 0.33533 0.09807 0.0
C504 C 0.37804 0.33589 0.15031 0.0
C505 C 0.39434 0.34522 0.21024 0.0
C506 C 0.34393 0.37343 0.26688 0.0
C507 C 0.36295 0.35624 0.20622 0.0
C508 C 0.33655 0.38758 0.25599 0.0
C509 C 0.33491 0.39415 0.17482 0.0
C510 C 0.34963 0.36594 0.19597 0.0
C511 C 0.33917 0.38512 0.10512 0.0
C512 C 0.36239 0.34161 0.14738 0.0
C513 C 0.39384 0.35906 0.27002 0.0
N514 N 0.34667 0.37155 0.11726 0.0
N515 N 0.37837 0.36424 0.26639 0.0
H516 H 0.05281 0.38654 0.26793 0.0
H517 H 0.94667 0.35668 0.51838 0.0
H518 H 0.04706 0.42124 0.47679 0.0
H519 H 0.94648 0.33605 0.26354 0.0
H520 H 0.98481 0.37018 0.52657 0.0
H521 H 0.01534 0.35887 0.28774 0.0
C522 C 0.04375 0.38796 0.31921 0.0
C523 C 0.05261 0.4061 0.37033 0.0
C524 C 0.97643 0.36241 0.46921 0.0
C525 C 0.01052 0.3749 0.3937 0.0
C526 C 0.95477 0.35478 0.46455 0.0
C527 C 0.94384 0.34581 0.38958 0.0
C528 C 0.98726 0.36149 0.39761 0.0
C529 C 0.95467 0.34321 0.3219 0.0
C530 C 0.02251 0.37231 0.33028 0.0
C531 C 0.04052 0.40752 0.43567 0.0
N532 N 0.97608 0.35151 0.32674 0.0
N533 N 0.02 0.39216 0.4452 0.0
H534 H 0.57412 0.93653 0.37111 0.0
H535 H 0.65434 0.04941 0.56967 0.0
H536 H 0.60322 0.94327 0.61434 0.0
H537 H 0.60599 0.03654 0.38376 0.0
H538 H 0.64497 0.01184 0.56299 0.0
H539 H 0.59666 0.9747 0.3479 0.0
C540 C 0.58578 0.9461 0.41842 0.0
C541 C 0.58692 0.93716 0.49473 0.0
C542 C 0.63667 0.01743 0.52315 0.0
C543 C 0.61195 0.98052 0.47061 0.0
C544 C 0.6419 0.0387 0.52722 0.0
C545 C 0.63051 0.04577 0.4787 0.0
C546 C 0.62036 0.00356 0.46876 0.0
C547 C 0.61474 0.03153 0.42383 0.0
C548 C 0.5985 0.96779 0.40558 0.0
C549 C 0.60206 0.9499 0.55475 0.0
N550 N 0.6101 0.01108 0.42055 0.0
N551 N 0.61381 0.97121 0.54222 0.0
H552 H 0.66025 0.6064 0.77524 0.0
H553 H 0.57077 0.61635 0.53281 0.0
H554 H 0.62852 0.57231 0.54959 0.0
H555 H 0.60037 0.65172 0.75902 0.0
H556 H 0.59839 0.60703 0.52077 0.0
H557 H 0.64548 0.62998 0.75352 0.0
C558 C 0.65074 0.60442 0.71973 0.0
C559 C 0.64521 0.58745 0.66445 0.0
C560 C 0.59905 0.61692 0.57304 0.0
C561 C 0.62827 0.61377 0.63982 0.0
C562 C 0.58317 0.62206 0.58021 0.0
C563 C 0.58309 0.63418 0.64844 0.0
C564 C 0.61464 0.62342 0.63602 0.0
C565 C 0.59981 0.64193 0.70655 0.0
C566 C 0.64226 0.61773 0.70753 0.0
C567 C 0.63283 0.58519 0.59381 0.0
N568 N 0.61478 0.63598 0.70018 0.0
N569 N 0.62455 0.59806 0.58401 0.0
H570 H 0.04787 0.63763 0.6779 0.0
H571 H 0.93947 0.60549 0.916 0.0
H572 H 0.04702 0.66574 0.91587 0.0
H573 H 0.95188 0.56568 0.7512 0.0
H574 H 0.97605 0.63478 0.89085 0.0
H575 H 0.00914 0.62009 0.6725 0.0
C576 C 0.03945 0.64068 0.72739 0.0
C577 C 0.05029 0.65285 0.79763 0.0
C578 C 0.97054 0.61962 0.86 0.0
C579 C 0.00637 0.63226 0.79414 0.0
C580 C 0.94988 0.60296 0.87476 0.0
C581 C 0.94295 0.58309 0.83713 0.0
C582 C 0.98384 0.61635 0.80544 0.0
C583 C 0.95678 0.58058 0.7832 0.0
C584 C 0.01744 0.63057 0.72481 0.0
C585 C 0.03894 0.65636 0.86079 0.0
N586 N 0.97653 0.59702 0.76894 0.0
N587 N 0.01735 0.64561 0.85875 0.0
H588 H 0.50214 0.08108 0.95827 0.0
H589 H 0.55504 0.08053 0.51933 0.0
H590 H 0.48554 0.09736 0.7194 0.0
H591 H 0.58742 0.09439 0.75906 0.0
H592 H 0.52213 0.0721 0.59291 0.0
H593 H 0.52561 0.07135 0.88423 0.0
C594 C 0.50296 0.08202 0.89008 0.0
C595 C 0.49226 0.09044 0.84483 0.0
C596 C 0.53635 0.07649 0.62931 0.0
C597 C 0.51885 0.07928 0.76045 0.0
C598 C 0.55511 0.08123 0.58757 0.0
C599 C 0.57405 0.0886 0.63323 0.0
C600 C 0.53658 0.07888 0.7171 0.0
C601 C 0.57322 0.08918 0.72148 0.0
C602 C 0.51639 0.07655 0.84809 0.0
C603 C 0.49386 0.09133 0.75664 0.0
N604 N 0.55482 0.08464 0.76061 0.0
N605 N 0.50716 0.08606 0.71727 0.0
H606 H 0.41819 0.50411 0.1322 0.0
H607 H 0.47305 0.55816 0.69618 0.0
H608 H 0.38555 0.48821 0.89286 0.0
H609 H 0.48976 0.59084 0.93544 0.0
H610 H 0.44814 0.52532 0.76908 0.0
H611 H 0.45132 0.52841 0.0594 0.0
C612 C 0.41811 0.50524 0.0641 0.0
C613 C 0.39906 0.49443 0.01844 0.0
C614 C 0.45767 0.5396 0.80558 0.0
C615 C 0.43678 0.52199 0.93548 0.0
C616 C 0.47194 0.55831 0.76427 0.0
C617 C 0.48319 0.57732 0.80984 0.0
C618 C 0.45493 0.53989 0.89296 0.0
C619 C 0.4811 0.57659 0.89788 0.0
C620 C 0.43698 0.51917 0.02286 0.0
C621 C 0.39985 0.49654 0.93042 0.0
N622 N 0.46703 0.55819 0.93663 0.0
N623 N 0.4184 0.51027 0.89175 0.0
H624 H 0.89276 0.49202 0.13159 0.0
H625 H 0.89517 0.38726 0.09916 0.0
H626 H 0.90835 0.47268 0.89765 0.0
H627 H 0.90886 0.42173 0.33371 0.0
H628 H 0.9031 0.41965 0.02324 0.0
H629 H 0.90163 0.46828 0.2078 0.0
C630 C 0.89843 0.48306 0.09646 0.0
C631 C 0.8995 0.48403 0.00816 0.0
C632 C 0.90487 0.42027 0.09115 0.0
C633 C 0.90931 0.45663 0.09461 0.0
C634 C 0.90028 0.40177 0.13448 0.0
C635 C 0.90105 0.40177 0.22283 0.0
C636 C 0.9097 0.43869 0.13674 0.0
C637 C 0.90795 0.42103 0.26555 0.0
C638 C 0.90359 0.46959 0.13997 0.0
C639 C 0.90717 0.47229 0.96574 0.0
N640 N 0.91151 0.43863 0.22221 0.0
N641 N 0.91131 0.45866 0.00923 0.0
H642 H 0.47787 0.90846 0.49585 0.0
H643 H 0.42633 0.91205 0.05743 0.0
H644 H 0.49512 0.89347 0.25569 0.0
H645 H 0.39259 0.89558 0.29457 0.0
H646 H 0.45876 0.91952 0.13229 0.0
H647 H 0.45408 0.91794 0.42288 0.0
C648 C 0.47711 0.90773 0.42763 0.0
C649 C 0.48815 0.89981 0.38164 0.0
C650 C 0.44434 0.91475 0.16791 0.0
C651 C 0.46121 0.91073 0.29851 0.0
C652 C 0.42586 0.91055 0.12547 0.0
C653 C 0.40666 0.90277 0.16982 0.0
C654 C 0.44363 0.9114 0.25518 0.0
C655 C 0.40699 0.90116 0.25789 0.0
C656 C 0.46348 0.91305 0.38628 0.0
C657 C 0.48657 0.89916 0.29346 0.0
N658 N 0.42517 0.9052 0.29772 0.0
N659 N 0.47313 0.90433 0.25469 0.0
H660 H 0.56437 0.47906 0.66905 0.0
H661 H 0.50612 0.42586 0.2373 0.0
H662 H 0.59588 0.49354 0.42724 0.0
H663 H 0.49005 0.39301 0.47635 0.0
H664 H 0.53223 0.45832 0.30904 0.0
H665 H 0.53067 0.45531 0.5989 0.0
C666 C 0.56412 0.47769 0.601 0.0
C667 C 0.58298 0.48798 0.55385 0.0
C668 C 0.52258 0.44411 0.34581 0.0
C669 C 0.54458 0.46111 0.47389 0.0
C670 C 0.50761 0.42563 0.3052 0.0
C671 C 0.49619 0.40666 0.35096 0.0
C672 C 0.52583 0.44363 0.43269 0.0
C673 C 0.4988 0.40725 0.4387 0.0
C674 C 0.54491 0.4641 0.56127 0.0
C675 C 0.58173 0.48561 0.46594 0.0
N676 N 0.51355 0.42542 0.47676 0.0
N677 N 0.56285 0.47224 0.42873 0.0
H678 H 0.09372 0.49931 0.61253 0.0
H679 H 0.09497 0.60446 0.55454 0.0
H680 H 0.07771 0.51563 0.37253 0.0
H681 H 0.07824 0.57209 0.79452 0.0
H682 H 0.08542 0.57083 0.48535 0.0
H683 H 0.08469 0.52376 0.68183 0.0
C684 C 0.08784 0.50769 0.57472 0.0
C685 C 0.08681 0.50578 0.48668 0.0
C686 C 0.08332 0.57098 0.5529 0.0
C687 C 0.07692 0.53401 0.565 0.0
C688 C 0.08887 0.59018 0.59239 0.0
C689 C 0.08775 0.59108 0.6804 0.0
C690 C 0.07719 0.55276 0.60214 0.0
C691 C 0.07951 0.5721 0.7265 0.0
C692 C 0.08261 0.52158 0.61425 0.0
C693 C 0.07889 0.5168 0.44058 0.0
N694 N 0.07506 0.55376 0.68702 0.0
N695 N 0.07478 0.53092 0.4801 0.0
H696 H 0.44592 0.19286 0.90783 0.0
H697 H 0.50279 0.29541 0.20114 0.0
H698 H 0.50031 0.20575 0.06002 0.0
H699 H 0.43755 0.26425 0.11651 0.0
H700 H 0.50746 0.26838 0.12555 0.0
H701 H 0.44933 0.22635 0.95335 0.0
C702 C 0.45875 0.20294 0.95021 0.0
C703 C 0.47254 0.19647 0.98208 0.0
C704 C 0.49222 0.26766 0.12383 0.0
C705 C 0.47625 0.23443 0.03581 0.0
C706 C 0.48951 0.28291 0.16703 0.0
C707 C 0.46966 0.28178 0.16622 0.0
C708 C 0.47507 0.25171 0.07847 0.0
C709 C 0.453 0.26549 0.12044 0.0
C710 C 0.46068 0.222 0.97625 0.0
C711 C 0.48923 0.21024 0.0351 0.0
N712 N 0.45612 0.25117 0.07839 0.0
N713 N 0.49041 0.22854 0.06204 0.0
H714 H 0.20189 0.51139 0.26021 0.0
H715 H 0.25834 0.44364 0.25928 0.0
H716 H 0.18984 0.4625 0.44216 0.0
H717 H 0.28852 0.5055 0.14138 0.0
H718 H 0.23315 0.45146 0.32609 0.0
H719 H 0.23485 0.51201 0.21889 0.0
C720 C 0.20655 0.50128 0.29297 0.0
C721 C 0.19312 0.48651 0.35301 0.0
C722 C 0.2453 0.46345 0.28601 0.0
C723 C 0.2301 0.48697 0.30629 0.0
C724 C 0.25951 0.45885 0.24678 0.0
C725 C 0.27526 0.47382 0.19362 0.0
C726 C 0.24653 0.48305 0.27106 0.0
C727 C 0.2764 0.49349 0.18147 0.0
C728 C 0.22523 0.50158 0.26933 0.0
C729 C 0.19964 0.47374 0.39407 0.0
N730 N 0.26195 0.49749 0.21919 0.0
N731 N 0.21755 0.47404 0.36908 0.0
H732 H 0.69008 0.2021 0.44627 0.0
H733 H 0.81556 0.25459 0.43521 0.0
H734 H 0.72572 0.17771 0.57535 0.0
H735 H 0.78439 0.28871 0.35111 0.0
H736 H 0.78188 0.22628 0.48592 0.0
H737 H 0.72364 0.23472 0.41366 0.0
C738 C 0.70492 0.2038 0.46888 0.0
C739 C 0.70531 0.18715 0.51186 0.0
C740 C 0.78231 0.23995 0.45665 0.0
C741 C 0.74329 0.22387 0.47483 0.0
C742 C 0.80157 0.25608 0.42685 0.0
C743 C 0.80275 0.27396 0.38819 0.0
C744 C 0.76395 0.24151 0.44718 0.0
C745 C 0.7841 0.27511 0.38035 0.0
C746 C 0.72399 0.22229 0.4501 0.0
C747 C 0.72481 0.19001 0.54023 0.0
N748 N 0.76532 0.25896 0.4092 0.0
N749 N 0.74301 0.20792 0.5205 0.0
H750 H 0.53999 0.80231 0.43743 0.0
H751 H 0.48138 0.69242 0.68677 0.0
H752 H 0.4838 0.78448 0.58627 0.0
H753 H 0.54634 0.72402 0.59801 0.0
H754 H 0.47769 0.72193 0.62994 0.0
H755 H 0.53719 0.76839 0.46971 0.0
C756 C 0.52696 0.79111 0.47667 0.0
C757 C 0.51238 0.79624 0.51103 0.0
C758 C 0.49267 0.72222 0.62315 0.0
C759 C 0.50927 0.7576 0.54954 0.0
C760 C 0.49481 0.70552 0.65561 0.0
C761 C 0.51427 0.70593 0.64792 0.0
C762 C 0.50999 0.73905 0.58186 0.0
C763 C 0.53114 0.72314 0.60662 0.0
C764 C 0.52536 0.77177 0.49515 0.0
C765 C 0.49546 0.78104 0.55956 0.0
N766 N 0.52857 0.73894 0.57515 0.0
N767 N 0.49453 0.76237 0.57886 0.0
H768 H 0.78306 0.48133 0.86944 0.0
H769 H 0.73307 0.54034 0.61513 0.0
H770 H 0.81617 0.54744 0.79551 0.0
H771 H 0.69358 0.48361 0.75945 0.0
H772 H 0.76407 0.53785 0.65362 0.0
H773 H 0.75024 0.47768 0.80856 0.0
C774 C 0.78341 0.49504 0.84083 0.0
C775 C 0.8023 0.51476 0.83814 0.0
C776 C 0.74863 0.52584 0.67661 0.0
C777 C 0.76534 0.51054 0.76737 0.0
C778 C 0.73096 0.52724 0.65454 0.0
C779 C 0.71094 0.51243 0.68594 0.0
C780 C 0.74632 0.50968 0.73141 0.0
C781 C 0.7089 0.49544 0.7349 0.0
C782 C 0.76478 0.49291 0.80604 0.0
C783 C 0.80197 0.53199 0.80004 0.0
N784 N 0.72656 0.49468 0.7576 0.0
N785 N 0.78383 0.52942 0.76601 0.0
H786 H 0.18644 0.74141 0.75445 0.0
H787 H 0.29313 0.7878 0.0218 0.0
H788 H 0.20195 0.69969 0.89185 0.0
H789 H 0.25921 0.82097 0.96324 0.0
H790 H 0.2645 0.75585 0.95364 0.0
H791 H 0.21937 0.77172 0.80277 0.0
C792 C 0.19694 0.73866 0.79427 0.0
C793 C 0.19137 0.71818 0.82097 0.0
C794 C 0.26349 0.7702 0.95624 0.0
C795 C 0.22881 0.75273 0.87758 0.0
C796 C 0.27968 0.78834 0.99523 0.0
C797 C 0.27849 0.80704 0.99852 0.0
C798 C 0.24642 0.77111 0.91938 0.0
C799 C 0.2608 0.80694 0.96292 0.0
C800 C 0.21568 0.75593 0.822 0.0
C801 C 0.20572 0.71536 0.87079 0.0
N802 N 0.24557 0.78931 0.92452 0.0
N803 N 0.22379 0.7326 0.89897 0.0
H804 H 0.50666 0.14015 0.25458 0.0
H805 H 0.61591 0.1449 0.23403 0.0
H806 H 0.54387 0.15735 0.02593 0.0
H807 H 0.5912 0.15413 0.4677 0.0
H808 H 0.59132 0.15234 0.15646 0.0
H809 H 0.53839 0.14781 0.33498 0.0
C810 C 0.52159 0.14585 0.22146 0.0
C811 C 0.52257 0.14781 0.13331 0.0
C812 C 0.5916 0.15323 0.22465 0.0
C813 C 0.55883 0.15633 0.22473 0.0
C814 C 0.60561 0.14896 0.2689 0.0
C815 C 0.60539 0.14866 0.35732 0.0
C816 C 0.57691 0.15669 0.26922 0.0
C817 C 0.59184 0.15414 0.39949 0.0
C818 C 0.53971 0.15032 0.26742 0.0
C819 C 0.54236 0.15549 0.09375 0.0
N820 N 0.57776 0.15745 0.35505 0.0
N821 N 0.55963 0.15905 0.13956 0.0
H822 H 0.363 0.50874 0.42807 0.0
H823 H 0.43405 0.59871 0.64105 0.0
H824 H 0.38524 0.54596 0.20003 0.0
H825 H 0.46871 0.61208 0.40672 0.0
H826 H 0.40145 0.57419 0.56602 0.0
H827 H 0.38667 0.54017 0.50988 0.0
C828 C 0.37254 0.52368 0.39541 0.0
C829 C 0.37235 0.52471 0.30713 0.0
C830 C 0.41618 0.5826 0.53108 0.0
C831 C 0.39939 0.56085 0.40036 0.0
C832 C 0.43475 0.59678 0.57361 0.0
C833 C 0.45422 0.60703 0.53038 0.0
C834 C 0.41717 0.57871 0.44491 0.0
C835 C 0.45413 0.60411 0.44287 0.0
C836 C 0.3859 0.54171 0.44227 0.0
C837 C 0.38495 0.54447 0.26801 0.0
N838 N 0.43592 0.59002 0.40315 0.0
N839 N 0.39836 0.56167 0.31481 0.0
H840 H 0.84693 0.36316 0.62907 0.0
H841 H 0.84609 0.46914 0.5997 0.0
H842 H 0.83421 0.38486 0.39466 0.0
H843 H 0.83322 0.43444 0.8335 0.0
H844 H 0.83788 0.43685 0.52267 0.0
H845 H 0.8381 0.38684 0.70565 0.0
C846 C 0.84187 0.37263 0.59385 0.0
C847 C 0.84163 0.37233 0.50543 0.0
C848 C 0.83635 0.43614 0.59069 0.0
C849 C 0.83189 0.39972 0.59242 0.0
C850 C 0.84111 0.45458 0.63467 0.0
C851 C 0.84066 0.4545 0.7231 0.0
C852 C 0.83165 0.41765 0.63561 0.0
C853 C 0.83389 0.4352 0.76532 0.0
C854 C 0.83675 0.38609 0.63758 0.0
C855 C 0.83473 0.38472 0.46287 0.0
N856 N 0.83014 0.41763 0.72125 0.0
N857 N 0.83061 0.39832 0.50672 0.0
H858 H 0.39025 0.83795 0.00309 0.0
H859 H 0.43822 0.8331 0.55646 0.0
H860 H 0.3689 0.84949 0.76532 0.0
H861 H 0.47404 0.85026 0.78859 0.0
H862 H 0.4066 0.8264 0.63592 0.0
H863 H 0.41459 0.82977 0.92673 0.0
C864 C 0.39026 0.83821 0.93479 0.0
C865 C 0.37779 0.8447 0.89034 0.0
C866 C 0.4213 0.83123 0.66945 0.0
C867 C 0.40544 0.83533 0.80323 0.0
C868 C 0.43933 0.83496 0.62435 0.0
C869 C 0.45887 0.8426 0.6659 0.0
C870 C 0.4228 0.83489 0.75667 0.0
C871 C 0.45936 0.84473 0.75396 0.0
C872 C 0.40423 0.83366 0.89144 0.0
C873 C 0.3785 0.84485 0.80193 0.0
N874 N 0.44162 0.84109 0.79641 0.0
N875 N 0.39226 0.84043 0.76121 0.0
H876 H 0.60118 0.43853 0.7295 0.0
H877 H 0.50814 0.37159 0.93806 0.0
H878 H 0.61464 0.47476 0.95964 0.0
H879 H 0.54491 0.39214 0.16753 0.0
H880 H 0.54016 0.39477 0.85765 0.0
H881 H 0.57459 0.40707 0.80502 0.0
C882 C 0.59883 0.43981 0.79621 0.0
C883 C 0.60982 0.45944 0.83793 0.0
C884 C 0.5414 0.39374 0.92531 0.0
C885 C 0.57916 0.42365 0.92391 0.0
C886 C 0.52306 0.38067 0.97132 0.0
C887 C 0.52387 0.38005 0.05956 0.0
C888 C 0.56059 0.40654 0.96805 0.0
C889 C 0.54361 0.39213 0.09953 0.0
C890 C 0.58347 0.42189 0.83895 0.0
C891 C 0.60622 0.46006 0.92459 0.0
N892 N 0.56112 0.40526 0.05356 0.0
N893 N 0.59104 0.44246 0.96458 0.0
H894 H 0.13562 0.51962 0.07606 0.0
H895 H 0.13767 0.62789 0.09008 0.0
H896 H 0.15084 0.55662 0.30459 0.0
H897 H 0.15076 0.60467 0.86048 0.0
H898 H 0.14388 0.60282 0.17057 0.0
H899 H 0.14244 0.55104 0.9951 0.0
C900 C 0.14071 0.53444 0.10903 0.0
C901 C 0.14244 0.53547 0.19722 0.0
C902 C 0.14582 0.60351 0.10272 0.0
C903 C 0.14993 0.57133 0.10525 0.0
C904 C 0.14222 0.61776 0.05678 0.0
C905 C 0.1435 0.61819 0.96848 0.0
C906 C 0.15022 0.58925 0.05987 0.0
C907 C 0.14957 0.60483 0.92849 0.0
C908 C 0.14468 0.55238 0.06279 0.0
C909 C 0.14925 0.55511 0.2367 0.0
N910 N 0.15228 0.59057 0.97438 0.0
N911 N 0.15234 0.57218 0.19058 0.0
loop_
_geom_bond_atom_site_label_1
_geom_bond_atom_site_label_2
_geom_bond_distance
_geom_bond_site_symmetry_2
_ccdc_geom_bond_type
Sc0 O3 2.025 . S
Sc0 O10 2.105 . S
Sc0 O13 2.105 . S
Sc0 O16 2.105 . S
Sc0 O19 2.105 1_554 S
Sc1 O3 2.025 1_556 S
Sc1 O11 2.105 . S
Sc1 O15 2.105 1_556 S
Sc1 O17 2.105 1_556 S
Sc1 O21 2.105 . S
Sc2 O3 2.025 . S
Sc2 O12 2.105 1_554 S
Sc2 O14 2.105 . S
Sc2 O18 2.105 . S
Sc2 O20 2.103 1_554 S
O3 Sc0 2.025 . S
O3 Sc1 2.025 1_554 S
O3 Sc2 2.025 . S
C4 O10 1.268 . S
C4 O20 1.268 1_554 S
C5 O11 1.268 . S
C5 O19 1.268 . S
C6 O12 1.268 . S
C6 O21 1.268 . S
C7 O13 1.268 . S
C7 O17 1.268 . S
C8 O14 1.268 . S
C8 O16 1.268 . S
C9 O15 1.268 . S
C9 O18 1.268 . S
O10 Sc0 2.105 . S
O10 C4 1.268 . S
O11 Sc1 2.105 . S
O11 C5 1.268 . S
O12 Sc2 2.105 1_556 S
O12 C6 1.268 . S
O13 Sc0 2.105 . S
O13 C7 1.268 . S
O14 Sc2 2.105 . S
O14 C8 1.268 . S
O15 Sc1 2.105 1_554 S
O15 C9 1.268 . S
O16 Sc0 2.105 . S
O16 C8 1.268 . S
O17 Sc1 2.105 1_554 S
O17 C7 1.268 . S
O18 Sc2 2.105 . S
O18 C9 1.268 . S
O19 Sc0 2.105 1_556 S
O19 C5 1.268 . S
O20 Sc2 2.103 1_556 S
O20 C4 1.268 1_556 S
O21 Sc1 2.105 . S
O21 C6 1.268 . S
Sc22 O25 2.025 . S
Sc22 O32 2.105 . S
Sc22 O35 2.105 . S
Sc22 O38 2.105 . S
Sc22 O41 2.105 . S
Sc23 O25 2.025 . S
Sc23 O33 2.105 . S
Sc23 O37 2.105 . S
Sc23 O39 2.105 . S
Sc23 O43 2.105 . S
Sc24 O25 2.025 . S
Sc24 O34 2.105 . S
Sc24 O36 2.105 . S
Sc24 O40 2.105 . S
Sc24 O42 2.105 . S
O25 Sc22 2.025 . S
O25 Sc23 2.025 . S
O25 Sc24 2.025 . S
C26 O32 1.268 . S
C26 O42 1.268 . S
C27 O33 1.268 . S
C27 O41 1.268 . S
C28 O34 1.268 . S
C28 O43 1.268 . S
C29 O35 1.268 . S
C29 O39 1.268 . S
C30 O36 1.268 . S
C30 O38 1.268 . S
C31 O37 1.268 . S
C31 O40 1.268 . S
O32 Sc22 2.105 . S
O32 C26 1.268 . S
O33 Sc23 2.105 . S
O33 C27 1.268 . S
O34 Sc24 2.105 . S
O34 C28 1.268 . S
O35 Sc22 2.105 . S
O35 C29 1.268 . S
O36 Sc24 2.105 . S
O36 C30 1.268 . S
O37 Sc23 2.105 . S
O37 C31 1.268 . S
O38 Sc22 2.105 . S
O38 C30 1.268 . S
O39 Sc23 2.105 . S
O39 C29 1.268 . S
O40 Sc24 2.105 . S
O40 C31 1.268 . S
O41 Sc22 2.105 . S
O41 C27 1.268 . S
O42 Sc24 2.105 . S
O42 C26 1.268 . S
O43 Sc23 2.105 . S
O43 C28 1.268 . S
Sc44 O47 2.025 . S
Sc44 O54 2.105 . S
Sc44 O57 2.105 . S
Sc44 O60 2.105 . S
Sc44 O63 2.105 . S
Sc45 O47 2.025 . S
Sc45 O55 2.105 . S
Sc45 O59 2.105 . S
Sc45 O61 2.105 . S
Sc45 O65 2.105 . S
Sc46 O47 2.025 . S
Sc46 O56 2.105 . S
Sc46 O58 2.105 . S
Sc46 O62 2.105 . S
Sc46 O64 2.105 . S
O47 Sc44 2.025 . S
O47 Sc45 2.025 . S
O47 Sc46 2.025 . S
C48 O54 1.268 . S
C48 O64 1.268 . S
C49 O55 1.268 . S
C49 O63 1.268 . S
C50 O56 1.268 . S
C50 O65 1.268 . S
C51 O57 1.268 . S
C51 O61 1.268 . S
C52 O58 1.268 . S
C52 O60 1.268 . S
C53 O59 1.268 . S
C53 O62 1.268 . S
O54 Sc44 2.105 . S
O54 C48 1.268 . S
O55 Sc45 2.105 . S
O55 C49 1.268 . S
O56 Sc46 2.105 . S
O56 C50 1.268 . S
O57 Sc44 2.105 . S
O57 C51 1.268 . S
O58 Sc46 2.105 . S
O58 C52 1.268 . S
O59 Sc45 2.105 . S
O59 C53 1.268 . S
O60 Sc44 2.105 . S
O60 C52 1.268 . S
O61 Sc45 2.105 . S
O61 C51 1.268 . S
O62 Sc46 2.105 . S
O62 C53 1.268 . S
O63 Sc44 2.105 . S
O63 C49 1.268 . S
O64 Sc46 2.105 . S
O64 C48 1.268 . S
O65 Sc45 2.105 . S
O65 C50 1.268 . S
Sc66 O69 2.025 . S
Sc66 O76 2.105 . S
Sc66 O79 2.105 . S
Sc66 O82 2.105 . S
Sc66 O85 2.105 . S
Sc67 O69 2.025 . S
Sc67 O77 2.105 . S
Sc67 O81 2.105 . S
Sc67 O83 2.105 . S
Sc67 O87 2.105 . S
Sc68 O69 2.025 . S
Sc68 O78 2.105 . S
Sc68 O80 2.105 . S
Sc68 O84 2.105 . S
Sc68 O86 2.105 . S
O69 Sc66 2.025 . S
O69 Sc67 2.025 . S
O69 Sc68 2.025 . S
C70 O76 1.268 . S
C70 O86 1.268 . S
C71 O77 1.268 . S
C71 O85 1.268 . S
C72 O78 1.268 . S
C72 O87 1.268 . S
C73 O79 1.268 . S
C73 O83 1.268 . S
C74 O80 1.268 . S
C74 O82 1.268 . S
C75 O81 1.268 . S
C75 O84 1.268 . S
O76 Sc66 2.105 . S
O76 C70 1.268 . S
O77 Sc67 2.105 . S
O77 C71 1.268 . S
O78 Sc68 2.105 . S
O78 C72 1.268 . S
O79 Sc66 2.105 . S
O79 C73 1.268 . S
O80 Sc68 2.105 . S
O80 C74 1.268 . S
O81 Sc67 2.105 . S
O81 C75 1.268 . S
O82 Sc66 2.105 . S
O82 C74 1.268 . S
O83 Sc67 2.105 . S
O83 C73 1.268 . S
O84 Sc68 2.105 . S
O84 C75 1.268 . S
O85 Sc66 2.105 . S
O85 C71 1.268 . S
O86 Sc68 2.105 . S
O86 C70 1.268 . S
O87 Sc67 2.105 . S
O87 C72 1.268 . S
Sc88 O91 2.025 . S
Sc88 O98 2.105 . S
Sc88 O101 2.105 . S
Sc88 O104 2.105 . S
Sc88 O107 2.105 . S
Sc89 O91 2.025 . S
Sc89 O99 2.105 . S
Sc89 O103 2.105 . S
Sc89 O105 2.105 . S
Sc89 O109 2.105 . S
Sc90 O91 2.025 . S
Sc90 O100 2.105 . S
Sc90 O102 2.105 . S
Sc90 O106 2.105 . S
Sc90 O108 2.105 . S
O91 Sc88 2.025 . S
O91 Sc89 2.025 . S
O91 Sc90 2.025 . S
C92 O98 1.268 . S
C92 O108 1.268 . S
C93 O99 1.268 . S
C93 O107 1.268 . S
C94 O100 1.268 . S
C94 O109 1.268 . S
C95 O101 1.268 . S
C95 O105 1.268 . S
C96 O102 1.268 . S
C96 O104 1.268 . S
C97 O103 1.268 . S
C97 O106 1.268 . S
O98 Sc88 2.105 . S
O98 C92 1.268 . S
O99 Sc89 2.105 . S
O99 C93 1.268 . S
O100 Sc90 2.105 . S
O100 C94 1.268 . S
O101 Sc88 2.105 . S
O101 C95 1.268 . S
O102 Sc90 2.105 . S
O102 C96 1.268 . S
O103 Sc89 2.105 . S
O103 C97 1.268 . S
O104 Sc88 2.105 . S
O104 C96 1.268 . S
O105 Sc89 2.105 . S
O105 C95 1.268 . S
O106 Sc90 2.105 . S
O106 C97 1.268 . S
O107 Sc88 2.105 . S
O107 C93 1.268 . S
O108 Sc90 2.105 . S
O108 C92 1.268 . S
O109 Sc89 2.105 . S
O109 C94 1.268 . S
Sc110 O113 2.025 . S
Sc110 O120 2.105 . S
Sc110 O123 2.105 . S
Sc110 O126 2.105 1_556 S
Sc110 O129 2.105 . S
Sc111 O113 2.025 . S
Sc111 O121 2.105 . S
Sc111 O125 2.105 . S
Sc111 O127 2.105 . S
Sc111 O131 2.105 . S
Sc112 O113 2.025 . S
Sc112 O122 2.105 . S
Sc112 O124 2.105 . S
Sc112 O128 2.105 . S
Sc112 O130 2.105 . S
O113 Sc110 2.025 . S
O113 Sc111 2.025 . S
O113 Sc112 2.025 . S
C114 O120 1.268 . S
C114 O130 1.268 . S
C115 O121 1.268 . S
C115 O129 1.268 . S
C116 O122 1.268 . S
C116 O131 1.268 . S
C117 O123 1.268 . S
C117 O127 1.268 . S
C118 O124 1.268 1_554 S
C118 O126 1.268 . S
C119 O125 1.268 . S
C119 O128 1.268 . S
O120 Sc110 2.105 . S
O120 C114 1.268 . S
O121 Sc111 2.105 . S
O121 C115 1.268 . S
O122 Sc112 2.105 . S
O122 C116 1.268 . S
O123 Sc110 2.105 . S
O123 C117 1.268 . S
O124 Sc112 2.105 . S
O124 C118 1.268 1_556 S
O125 Sc111 2.105 . S
O125 C119 1.268 . S
O126 Sc110 2.105 1_554 S
O126 C118 1.268 . S
O127 Sc111 2.105 . S
O127 C117 1.268 . S
O128 Sc112 2.105 . S
O128 C119 1.268 . S
O129 Sc110 2.105 . S
O129 C115 1.268 . S
O130 Sc112 2.105 . S
O130 C114 1.268 . S
O131 Sc111 2.105 . S
O131 C116 1.268 . S
Sc132 O135 2.025 . S
Sc132 O142 2.105 . S
Sc132 O145 2.105 . S
Sc132 O148 2.105 . S
Sc132 O151 2.105 . S
Sc133 O135 2.025 . S
Sc133 O143 2.105 . S
Sc133 O147 2.105 . S
Sc133 O149 2.105 . S
Sc133 O153 2.105 . S
Sc134 O135 2.025 . S
Sc134 O144 2.105 . S
Sc134 O146 2.105 . S
Sc134 O150 2.105 . S
Sc134 O152 2.105 . S
O135 Sc132 2.025 . S
O135 Sc133 2.025 . S
O135 Sc134 2.025 . S
C136 O142 1.268 . S
C136 O152 1.268 . S
C137 O143 1.268 . S
C137 O151 1.268 . S
C138 O144 1.268 . S
C138 O153 1.268 . S
C139 O145 1.268 1_554 S
C139 O149 1.268 1_554 S
C140 O146 1.268 . S
C140 O148 1.268 . S
C141 O147 1.268 . S
C141 O150 1.268 . S
O142 Sc132 2.105 . S
O142 C136 1.268 . S
O143 Sc133 2.105 . S
O143 C137 1.268 . S
O144 Sc134 2.105 . S
O144 C138 1.268 . S
O145 Sc132 2.105 . S
O145 C139 1.268 1_556 S
O146 Sc134 2.105 . S
O146 C140 1.268 . S
O147 Sc133 2.105 . S
O147 C141 1.268 . S
O148 Sc132 2.105 . S
O148 C140 1.268 . S
O149 Sc133 2.105 . S
O149 C139 1.268 1_556 S
O150 Sc134 2.105 . S
O150 C141 1.268 . S
O151 Sc132 2.105 . S
O151 C137 1.268 . S
O152 Sc134 2.105 . S
O152 C136 1.268 . S
O153 Sc133 2.105 . S
O153 C138 1.268 . S
Sc154 O157 2.025 . S
Sc154 O164 2.105 . S
Sc154 O167 2.105 1_556 S
Sc154 O170 2.105 1_556 S
Sc154 O173 2.105 . S
Sc155 O157 2.025 1_554 S
Sc155 O165 2.105 . S
Sc155 O169 2.105 . S
Sc155 O171 2.105 . S
Sc155 O175 2.105 1_554 S
Sc156 O157 2.025 . S
Sc156 O166 2.105 . S
Sc156 O168 2.105 . S
Sc156 O172 2.105 1_556 S
Sc156 O174 2.105 . S
O157 Sc154 2.025 . S
O157 Sc155 2.025 1_556 S
O157 Sc156 2.025 . S
C158 O164 1.268 . S
C158 O174 1.268 . S
C159 O165 1.268 1_556 S
C159 O173 1.268 . S
C160 O166 1.268 . S
C160 O175 1.268 . S
C161 O167 1.268 . S
C161 O171 1.268 . S
C162 O168 1.268 1_554 S
C162 O170 1.268 . S
C163 O169 1.268 . S
C163 O172 1.268 . S
O164 Sc154 2.105 . S
O164 C158 1.268 . S
O165 Sc155 2.105 . S
O165 C159 1.268 1_554 S
O166 Sc156 2.105 . S
O166 C160 1.268 . S
O167 Sc154 2.105 1_554 S
O167 C161 1.268 . S
O168 Sc156 2.105 . S
O168 C162 1.268 1_556 S
O169 Sc155 2.105 . S
O169 C163 1.268 . S
O170 Sc154 2.105 1_554 S
O170 C162 1.268 . S
O171 Sc155 2.105 . S
O171 C161 1.268 . S
O172 Sc156 2.105 1_554 S
O172 C163 1.268 . S
O173 Sc154 2.105 . S
O173 C159 1.268 . S
O174 Sc156 2.105 . S
O174 C158 1.268 . S
O175 Sc155 2.105 1_556 S
O175 C160 1.268 . S
Sc176 O179 2.025 . S
Sc176 O186 2.105 . S
Sc176 O189 2.105 . S
Sc176 O192 2.105 . S
Sc176 O195 2.105 . S
Sc177 O179 2.025 . S
Sc177 O187 2.105 . S
Sc177 O191 2.105 . S
Sc177 O193 2.105 . S
Sc177 O197 2.105 . S
Sc178 O179 2.025 . S
Sc178 O188 2.105 . S
Sc178 O190 2.105 . S
Sc178 O194 2.105 . S
Sc178 O196 2.105 1_554 S
O179 Sc176 2.025 . S
O179 Sc177 2.025 . S
O179 Sc178 2.025 . S
C180 O186 1.268 1_556 S
C180 O196 1.268 . S
C181 O187 1.268 . S
C181 O195 1.268 . S
C182 O188 1.268 . S
C182 O197 1.268 . S
C183 O189 1.268 . S
C183 O193 1.268 . S
C184 O190 1.268 . S
C184 O192 1.268 . S
C185 O191 1.268 . S
C185 O194 1.268 . S
O186 Sc176 2.105 . S
O186 C180 1.268 1_554 S
O187 Sc177 2.105 . S
O187 C181 1.268 . S
O188 Sc178 2.105 . S
O188 C182 1.268 . S
O189 Sc176 2.105 . S
O189 C183 1.268 . S
O190 Sc178 2.105 . S
O190 C184 1.268 . S
O191 Sc177 2.105 . S
O191 C185 1.268 . S
O192 Sc176 2.105 . S
O192 C184 1.268 . S
O193 Sc177 2.105 . S
O193 C183 1.268 . S
O194 Sc178 2.105 . S
O194 C185 1.268 . S
O195 Sc176 2.105 . S
O195 C181 1.268 . S
O196 Sc178 2.105 1_556 S
O196 C180 1.268 . S
O197 Sc177 2.105 . S
O197 C182 1.268 . S
Sc198 O201 2.025 . S
Sc198 O208 2.105 . S
Sc198 O211 2.105 . S
Sc198 O214 2.105 . S
Sc198 O217 2.105 . S
Sc199 O201 2.025 . S
Sc199 O209 2.105 . S
Sc199 O213 2.105 . S
Sc199 O215 2.105 . S
Sc199 O219 2.105 . S
Sc200 O201 2.025 . S
Sc200 O210 2.105 . S
Sc200 O212 2.105 . S
Sc200 O216 2.105 . S
Sc200 O218 2.105 . S
O201 Sc198 2.025 . S
O201 Sc199 2.025 . S
O201 Sc200 2.025 . S
C202 O208 1.268 . S
C202 O218 1.268 . S
C203 O209 1.268 . S
C203 O217 1.268 . S
C204 O210 1.268 . S
C204 O219 1.268 . S
C205 O211 1.268 . S
C205 O215 1.268 . S
C206 O212 1.268 . S
C206 O214 1.268 . S
C207 O213 1.268 . S
C207 O216 1.268 . S
O208 Sc198 2.105 . S
O208 C202 1.268 . S
O209 Sc199 2.105 . S
O209 C203 1.268 . S
O210 Sc200 2.105 . S
O210 C204 1.268 . S
O211 Sc198 2.105 . S
O211 C205 1.268 . S
O212 Sc200 2.105 . S
O212 C206 1.268 . S
O213 Sc199 2.105 . S
O213 C207 1.268 . S
O214 Sc198 2.105 . S
O214 C206 1.268 . S
O215 Sc199 2.105 . S
O215 C205 1.268 . S
O216 Sc200 2.105 . S
O216 C207 1.268 . S
O217 Sc198 2.105 . S
O217 C203 1.268 . S
O218 Sc200 2.105 . S
O218 C202 1.268 . S
O219 Sc199 2.105 . S
O219 C204 1.268 . S
Sc220 O223 2.025 . S
Sc220 O230 2.105 . S
Sc220 O233 2.105 . S
Sc220 O236 2.105 . S
Sc220 O239 2.105 . S
Sc221 O223 2.025 . S
Sc221 O231 2.105 . S
Sc221 O235 2.105 . S
Sc221 O237 2.105 . S
Sc221 O241 2.105 . S
Sc222 O223 2.025 . S
Sc222 O232 2.105 . S
Sc222 O234 2.105 . S
Sc222 O238 2.105 . S
Sc222 O240 2.105 . S
O223 Sc220 2.025 . S
O223 Sc221 2.025 . S
O223 Sc222 2.025 . S
C224 O230 1.268 . S
C224 O240 1.268 . S
C225 O231 1.268 . S
C225 O239 1.268 . S
C226 O232 1.268 . S
C226 O241 1.268 . S
C227 O233 1.268 . S
C227 O237 1.268 . S
C228 O234 1.268 . S
C228 O236 1.268 . S
C229 O235 1.268 . S
C229 O238 1.268 . S
O230 Sc220 2.105 . S
O230 C224 1.268 . S
O231 Sc221 2.105 . S
O231 C225 1.268 . S
O232 Sc222 2.105 . S
O232 C226 1.268 . S
O233 Sc220 2.105 . S
O233 C227 1.268 . S
O234 Sc222 2.105 . S
O234 C228 1.268 . S
O235 Sc221 2.105 . S
O235 C229 1.268 . S
O236 Sc220 2.105 . S
O236 C228 1.268 . S
O237 Sc221 2.105 . S
O237 C227 1.268 . S
O238 Sc222 2.105 . S
O238 C229 1.268 . S
O239 Sc220 2.105 . S
O239 C225 1.268 . S
O240 Sc222 2.105 . S
O240 C224 1.268 . S
O241 Sc221 2.105 . S
O241 C226 1.268 . S
Sc242 O245 2.025 . S
Sc242 O252 2.105 . S
Sc242 O255 2.105 . S
Sc242 O258 2.105 . S
Sc242 O261 2.105 . S
Sc243 O245 2.025 . S
Sc243 O253 2.105 . S
Sc243 O257 2.105 . S
Sc243 O259 2.105 . S
Sc243 O263 2.105 . S
Sc244 O245 2.025 . S
Sc244 O254 2.105 . S
Sc244 O256 2.105 . S
Sc244 O260 2.105 . S
Sc244 O262 2.105 . S
O245 Sc242 2.025 . S
O245 Sc243 2.025 . S
O245 Sc244 2.025 . S
C246 O252 1.268 . S
C246 O262 1.268 . S
C247 O253 1.268 . S
C247 O261 1.268 . S
C248 O254 1.268 . S
C248 O263 1.268 . S
C249 O255 1.268 . S
C249 O259 1.268 . S
C250 O256 1.268 . S
C250 O258 1.268 . S
C251 O257 1.268 . S
C251 O260 1.268 . S
O252 Sc242 2.105 . S
O252 C246 1.268 . S
O253 Sc243 2.105 . S
O253 C247 1.268 . S
O254 Sc244 2.105 . S
O254 C248 1.268 . S
O255 Sc242 2.105 . S
O255 C249 1.268 . S
O256 Sc244 2.105 . S
O256 C250 1.268 . S
O257 Sc243 2.105 . S
O257 C251 1.268 . S
O258 Sc242 2.105 . S
O258 C250 1.268 . S
O259 Sc243 2.105 . S
O259 C249 1.268 . S
O260 Sc244 2.105 . S
O260 C251 1.268 . S
O261 Sc242 2.105 . S
O261 C247 1.268 . S
O262 Sc244 2.105 . S
O262 C246 1.268 . S
O263 Sc243 2.105 . S
O263 C248 1.268 . S
H264 C270 0.930 . S
H265 C274 0.930 . S
H266 C279 0.929 . S
H267 C277 0.929 . S
H268 C272 0.929 . S
H269 C278 0.929 . S
C270 H264 0.930 . S
C270 C271 1.367 . S
C270 C278 1.378 . S
C271 C270 1.367 . S
C271 C279 1.433 . S
C272 H268 0.929 . S
C272 C274 1.378 . S
C272 C276 1.350 . S
C273 C276 1.463 . S
C273 C278 1.350 . S
C273 N281 1.427 . S
C274 H265 0.930 . S
C274 C272 1.378 . S
C274 C275 1.367 . S
C275 C274 1.367 . S
C275 C277 1.433 . S
C276 C272 1.350 . S
C276 C273 1.463 . S
C276 N280 1.427 . S
C277 H267 0.929 . S
C277 C275 1.433 . S
C277 N280 1.384 . S
C278 H269 0.929 . S
C278 C270 1.378 . S
C278 C273 1.350 . S
C279 H266 0.929 . S
C279 C271 1.433 . S
C279 N281 1.384 . S
N280 C276 1.427 . S
N280 C277 1.384 . S
N281 C273 1.427 . S
N281 C279 1.384 . S
H282 C288 0.930 . S
H283 C292 0.930 . S
H284 C297 0.929 . S
H285 C295 0.929 . S
H286 C290 0.929 . S
H287 C296 0.929 . S
C288 H282 0.930 . S
C288 C289 1.367 . S
C288 C296 1.378 . S
C289 C288 1.367 . S
C289 C297 1.433 . S
C290 H286 0.929 . S
C290 C292 1.378 . S
C290 C294 1.350 . S
C291 C294 1.463 . S
C291 C296 1.350 . S
C291 N299 1.427 . S
C292 H283 0.930 . S
C292 C290 1.378 . S
C292 C293 1.367 . S
C293 C292 1.367 . S
C293 C295 1.433 . S
C294 C290 1.350 . S
C294 C291 1.463 . S
C294 N298 1.427 . S
C295 H285 0.929 . S
C295 C293 1.433 . S
C295 N298 1.384 . S
C296 H287 0.929 . S
C296 C288 1.378 . S
C296 C291 1.350 . S
C297 H284 0.929 . S
C297 C289 1.433 . S
C297 N299 1.384 . S
N298 C294 1.427 . S
N298 C295 1.384 . S
N299 C291 1.427 . S
N299 C297 1.384 . S
H300 C306 0.930 . S
H301 C310 0.930 . S
H302 C315 0.929 . S
H303 C313 0.929 . S
H304 C308 0.929 . S
H305 C314 0.929 . S
C306 H300 0.930 . S
C306 C307 1.367 . S
C306 C314 1.378 . S
C307 C306 1.367 . S
C307 C315 1.433 . S
C308 H304 0.929 . S
C308 C310 1.378 1_556 S
C308 C312 1.350 . S
C309 C312 1.463 . S
C309 C314 1.350 . S
C309 N317 1.427 . S
C310 H301 0.930 . S
C310 C308 1.378 1_554 S
C310 C311 1.367 . S
C311 C310 1.367 . S
C311 C313 1.433 . S
C312 C308 1.350 . S
C312 C309 1.463 . S
C312 N316 1.427 . S
C313 H303 0.929 . S
C313 C311 1.433 . S
C313 N316 1.384 1_554 S
C314 H305 0.929 . S
C314 C306 1.378 . S
C314 C309 1.350 . S
C315 H302 0.929 . S
C315 C307 1.433 . S
C315 N317 1.384 . S
N316 C312 1.427 . S
N316 C313 1.384 1_556 S
N317 C309 1.427 . S
N317 C315 1.384 . S
H318 C324 0.930 . S
H319 C328 0.930 . S
H320 C333 0.929 . S
H321 C331 0.929 . S
H322 C326 0.929 . S
H323 C332 0.929 . S
C324 H318 0.930 . S
C324 C325 1.367 . S
C324 C332 1.378 . S
C325 C324 1.367 . S
C325 C333 1.433 . S
C326 H322 0.929 . S
C326 C328 1.378 . S
C326 C330 1.350 . S
C327 C330 1.463 1_554 S
C327 C332 1.350 . S
C327 N335 1.427 . S
C328 H319 0.930 . S
C328 C326 1.378 . S
C328 C329 1.367 . S
C329 C328 1.367 . S
C329 C331 1.433 . S
C330 C326 1.350 . S
C330 C327 1.463 1_556 S
C330 N334 1.427 . S
C331 H321 0.929 . S
C331 C329 1.433 . S
C331 N334 1.384 . S
C332 H323 0.929 . S
C332 C324 1.378 . S
C332 C327 1.350 . S
C333 H320 0.929 . S
C333 C325 1.433 . S
C333 N335 1.384 . S
N334 C330 1.427 . S
N334 C331 1.384 . S
N335 C327 1.427 . S
N335 C333 1.384 . S
H336 C342 0.930 . S
H337 C346 0.930 . S
H338 C351 0.929 1_556 S
H339 C349 0.929 . S
H340 C344 0.929 . S
H341 C350 0.929 . S
C342 H336 0.930 . S
C342 C343 1.367 1_554 S
C342 C350 1.378 . S
C343 C342 1.367 1_556 S
C343 C351 1.433 1_556 S
C344 H340 0.929 . S
C344 C346 1.378 . S
C344 C348 1.350 . S
C345 C348 1.463 . S
C345 C350 1.350 . S
C345 N353 1.427 . S
C346 H337 0.930 . S
C346 C344 1.378 . S
C346 C347 1.367 . S
C347 C346 1.367 . S
C347 C349 1.433 . S
C348 C344 1.350 . S
C348 C345 1.463 . S
C348 N352 1.427 . S
C349 H339 0.929 . S
C349 C347 1.433 . S
C349 N352 1.384 . S
C350 H341 0.929 . S
C350 C342 1.378 . S
C350 C345 1.350 . S
C351 H338 0.929 1_554 S
C351 C343 1.433 1_554 S
C351 N353 1.384 . S
N352 C348 1.427 . S
N352 C349 1.384 . S
N353 C345 1.427 . S
N353 C351 1.384 . S
H354 C360 0.930 . S
H355 C364 0.930 . S
H356 C369 0.929 . S
H357 C367 0.929 . S
H358 C362 0.929 . S
H359 C368 0.929 . S
C360 H354 0.930 . S
C360 C361 1.367 . S
C360 C368 1.378 . S
C361 C360 1.367 . S
C361 C369 1.433 . S
C362 H358 0.929 . S
C362 C364 1.378 . S
C362 C366 1.350 . S
C363 C366 1.463 . S
C363 C368 1.350 . S
C363 N371 1.427 . S
C364 H355 0.930 . S
C364 C362 1.378 . S
C364 C365 1.367 . S
C365 C364 1.367 . S
C365 C367 1.433 . S
C366 C362 1.350 . S
C366 C363 1.463 . S
C366 N370 1.427 . S
C367 H357 0.929 . S
C367 C365 1.433 . S
C367 N370 1.384 . S
C368 H359 0.929 . S
C368 C360 1.378 . S
C368 C363 1.350 . S
C369 H356 0.929 . S
C369 C361 1.433 . S
C369 N371 1.384 . S
N370 C366 1.427 . S
N370 C367 1.384 . S
N371 C363 1.427 . S
N371 C369 1.384 . S
H372 C378 0.930 . S
H373 C382 0.930 . S
H374 C387 0.929 . S
H375 C385 0.929 . S
H376 C380 0.929 . S
H377 C386 0.929 . S
C378 H372 0.930 . S
C378 C379 1.367 . S
C378 C386 1.378 . S
C379 C378 1.367 . S
C379 C387 1.433 . S
C380 H376 0.929 . S
C380 C382 1.378 . S
C380 C384 1.350 . S
C381 C384 1.463 . S
C381 C386 1.350 . S
C381 N389 1.427 . S
C382 H373 0.930 . S
C382 C380 1.378 . S
C382 C383 1.367 . S
C383 C382 1.367 . S
C383 C385 1.433 . S
C384 C380 1.350 . S
C384 C381 1.463 . S
C384 N388 1.427 . S
C385 H375 0.929 . S
C385 C383 1.433 . S
C385 N388 1.384 . S
C386 H377 0.929 . S
C386 C378 1.378 . S
C386 C381 1.350 . S
C387 H374 0.929 . S
C387 C379 1.433 . S
C387 N389 1.384 . S
N388 C384 1.427 . S
N388 C385 1.384 . S
N389 C381 1.427 . S
N389 C387 1.384 . S
H390 C396 0.930 . S
H391 C400 0.930 . S
H392 C405 0.929 . S
H393 C403 0.929 . S
H394 C398 0.929 . S
H395 C404 0.929 . S
C396 H390 0.930 . S
C396 C397 1.367 . S
C396 C404 1.378 . S
C397 C396 1.367 . S
C397 C405 1.433 . S
C398 H394 0.929 . S
C398 C400 1.378 . S
C398 C402 1.350 . S
C399 C402 1.463 . S
C399 C404 1.350 . S
C399 N407 1.427 . S
C400 H391 0.930 . S
C400 C398 1.378 . S
C400 C401 1.367 . S
C401 C400 1.367 . S
C401 C403 1.433 . S
C402 C398 1.350 . S
C402 C399 1.463 . S
C402 N406 1.427 . S
C403 H393 0.929 . S
C403 C401 1.433 . S
C403 N406 1.384 . S
C404 H395 0.929 . S
C404 C396 1.378 . S
C404 C399 1.350 . S
C405 H392 0.929 . S
C405 C397 1.433 . S
C405 N407 1.384 . S
N406 C402 1.427 . S
N406 C403 1.384 . S
N407 C399 1.427 . S
N407 C405 1.384 . S
H408 C414 0.930 . S
H409 C418 0.930 . S
H410 C423 0.929 . S
H411 C421 0.929 . S
H412 C416 0.929 . S
H413 C422 0.929 . S
C414 H408 0.930 . S
C414 C415 1.367 . S
C414 C422 1.378 . S
C415 C414 1.367 . S
C415 C423 1.433 . S
C416 H412 0.929 . S
C416 C418 1.378 . S
C416 C420 1.350 . S
C417 C420 1.463 . S
C417 C422 1.350 . S
C417 N425 1.427 . S
C418 H409 0.930 . S
C418 C416 1.378 . S
C418 C419 1.367 . S
C419 C418 1.367 . S
C419 C421 1.433 . S
C420 C416 1.350 . S
C420 C417 1.463 . S
C420 N424 1.427 . S
C421 H411 0.929 . S
C421 C419 1.433 . S
C421 N424 1.384 . S
C422 H413 0.929 . S
C422 C414 1.378 . S
C422 C417 1.350 . S
C423 H410 0.929 . S
C423 C415 1.433 . S
C423 N425 1.384 . S
N424 C420 1.427 . S
N424 C421 1.384 . S
N425 C417 1.427 . S
N425 C423 1.384 . S
H426 C432 0.930 1_554 S
H427 C436 0.930 . S
H428 C441 0.929 . S
H429 C439 0.929 . S
H430 C434 0.929 . S
H431 C440 0.929 . S
C432 H426 0.930 1_556 S
C432 C433 1.367 1_556 S
C432 C440 1.378 . S
C433 C432 1.367 1_554 S
C433 C441 1.433 . S
C434 H430 0.929 . S
C434 C436 1.378 . S
C434 C438 1.350 . S
C435 C438 1.463 . S
C435 C440 1.350 . S
C435 N443 1.427 . S
C436 H427 0.930 . S
C436 C434 1.378 . S
C436 C437 1.367 . S
C437 C436 1.367 . S
C437 C439 1.433 . S
C438 C434 1.350 . S
C438 C435 1.463 . S
C438 N442 1.427 . S
C439 H429 0.929 . S
C439 C437 1.433 . S
C439 N442 1.384 . S
C440 H431 0.929 . S
C440 C432 1.378 . S
C440 C435 1.350 . S
C441 H428 0.929 . S
C441 C433 1.433 . S
C441 N443 1.384 1_554 S
N442 C438 1.427 . S
N442 C439 1.384 . S
N443 C435 1.427 . S
N443 C441 1.384 1_556 S
H444 C450 0.930 . S
H445 C454 0.930 . S
H446 C459 0.929 . S
H447 C457 0.929 . S
H448 C452 0.929 . S
H449 C458 0.929 . S
C450 H444 0.930 . S
C450 C451 1.367 . S
C450 C458 1.378 . S
C451 C450 1.367 . S
C451 C459 1.433 . S
C452 H448 0.929 . S
C452 C454 1.378 . S
C452 C456 1.350 . S
C453 C456 1.463 1_556 S
C453 C458 1.350 . S
C453 N461 1.427 . S
C454 H445 0.930 . S
C454 C452 1.378 . S
C454 C455 1.367 . S
C455 C454 1.367 . S
C455 C457 1.433 . S
C456 C452 1.350 . S
C456 C453 1.463 1_554 S
C456 N460 1.427 . S
C457 H447 0.929 . S
C457 C455 1.433 . S
C457 N460 1.384 . S
C458 H449 0.929 . S
C458 C450 1.378 . S
C458 C453 1.350 . S
C459 H446 0.929 . S
C459 C451 1.433 . S
C459 N461 1.384 . S
N460 C456 1.427 . S
N460 C457 1.384 . S
N461 C453 1.427 . S
N461 C459 1.384 . S
H462 C468 0.930 . S
H463 C472 0.930 . S
H464 C477 0.929 . S
H465 C475 0.929 . S
H466 C470 0.929 . S
H467 C476 0.929 . S
C468 H462 0.930 . S
C468 C469 1.367 . S
C468 C476 1.378 . S
C469 C468 1.367 . S
C469 C477 1.433 . S
C470 H466 0.929 . S
C470 C472 1.378 1_554 S
C470 C474 1.350 . S
C471 C474 1.463 . S
C471 C476 1.350 . S
C471 N479 1.427 . S
C472 H463 0.930 . S
C472 C470 1.378 1_556 S
C472 C473 1.367 . S
C473 C472 1.367 . S
C473 C475 1.433 . S
C474 C470 1.350 . S
C474 C471 1.463 . S
C474 N478 1.427 . S
C475 H465 0.929 . S
C475 C473 1.433 . S
C475 N478 1.384 1_556 S
C476 H467 0.929 . S
C476 C468 1.378 . S
C476 C471 1.350 . S
C477 H464 0.929 . S
C477 C469 1.433 . S
C477 N479 1.384 . S
N478 C474 1.427 . S
N478 C475 1.384 1_554 S
N479 C471 1.427 . S
N479 C477 1.384 . S
H480 C486 0.930 . S
H481 C490 0.930 . S
H482 C495 0.929 . S
H483 C493 0.929 . S
H484 C488 0.929 . S
H485 C494 0.929 . S
C486 H480 0.930 . S
C486 C487 1.367 . S
C486 C494 1.378 . S
C487 C486 1.367 . S
C487 C495 1.433 1_556 S
C488 H484 0.929 . S
C488 C490 1.378 . S
C488 C492 1.350 . S
C489 C492 1.463 1_545 S
C489 C494 1.348 1_554 S
C489 N497 1.429 . S
C490 H481 0.930 . S
C490 C488 1.378 . S
C490 C491 1.367 . S
C491 C490 1.367 . S
C491 C493 1.433 1_554 S
C492 C488 1.350 . S
C492 C489 1.463 1_565 S
C492 N496 1.427 1_554 S
C493 H483 0.929 . S
C493 C491 1.433 1_556 S
C493 N496 1.384 . S
C494 H485 0.929 . S
C494 C486 1.378 . S
C494 C489 1.348 1_556 S
C495 H482 0.929 . S
C495 C487 1.433 1_554 S
C495 N497 1.384 . S
N496 C492 1.427 1_556 S
N496 C493 1.384 . S
N497 C489 1.429 . S
N497 C495 1.384 . S
H498 C504 0.930 . S
H499 C508 0.930 . S
H500 C513 0.929 . S
H501 C511 0.929 . S
H502 C506 0.929 . S
H503 C512 0.929 . S
C504 H498 0.930 . S
C504 C505 1.367 . S
C504 C512 1.378 . S
C505 C504 1.367 . S
C505 C513 1.433 . S
C506 H502 0.929 . S
C506 C508 1.378 . S
C506 C510 1.350 . S
C507 C510 1.463 . S
C507 C512 1.350 . S
C507 N515 1.427 . S
C508 H499 0.930 . S
C508 C506 1.378 . S
C508 C509 1.367 . S
C509 C508 1.367 . S
C509 C511 1.433 . S
C510 C506 1.350 . S
C510 C507 1.463 . S
C510 N514 1.427 . S
C511 H501 0.929 . S
C511 C509 1.433 . S
C511 N514 1.384 . S
C512 H503 0.929 . S
C512 C504 1.378 . S
C512 C507 1.350 . S
C513 H500 0.929 . S
C513 C505 1.433 . S
C513 N515 1.384 . S
N514 C510 1.427 . S
N514 C511 1.384 . S
N515 C507 1.427 . S
N515 C513 1.384 . S
H516 C522 0.930 . S
H517 C526 0.930 . S
H518 C531 0.929 . S
H519 C529 0.929 . S
H520 C524 0.929 . S
H521 C530 0.929 . S
C522 H516 0.930 . S
C522 C523 1.367 . S
C522 C530 1.378 . S
C523 C522 1.367 . S
C523 C531 1.433 . S
C524 H520 0.929 . S
C524 C526 1.378 . S
C524 C528 1.350 . S
C525 C528 1.463 1_455 S
C525 C530 1.350 . S
C525 N533 1.427 . S
C526 H517 0.930 . S
C526 C524 1.378 . S
C526 C527 1.367 . S
C527 C526 1.367 . S
C527 C529 1.433 . S
C528 C524 1.350 . S
C528 C525 1.463 1_655 S
C528 N532 1.427 . S
C529 H519 0.929 . S
C529 C527 1.433 . S
C529 N532 1.384 . S
C530 H521 0.929 . S
C530 C522 1.378 . S
C530 C525 1.350 . S
C531 H518 0.929 . S
C531 C523 1.433 . S
C531 N533 1.384 . S
N532 C528 1.427 . S
N532 C529 1.384 . S
N533 C525 1.427 . S
N533 C531 1.384 . S
H534 C540 0.930 . S
H535 C544 0.930 . S
H536 C549 0.929 . S
H537 C547 0.929 . S
H538 C542 0.929 . S
H539 C548 0.929 . S
C540 H534 0.930 . S
C540 C541 1.367 . S
C540 C548 1.378 . S
C541 C540 1.367 . S
C541 C549 1.433 . S
C542 H538 0.929 . S
C542 C544 1.378 . S
C542 C546 1.350 . S
C543 C546 1.463 1_565 S
C543 C548 1.350 . S
C543 N551 1.427 . S
C544 H535 0.930 . S
C544 C542 1.378 . S
C544 C545 1.367 . S
C545 C544 1.367 . S
C545 C547 1.433 . S
C546 C542 1.350 . S
C546 C543 1.463 1_545 S
C546 N550 1.427 . S
C547 H537 0.929 . S
C547 C545 1.433 . S
C547 N550 1.384 . S
C548 H539 0.929 . S
C548 C540 1.378 . S
C548 C543 1.350 . S
C549 H536 0.929 . S
C549 C541 1.433 . S
C549 N551 1.384 . S
N550 C546 1.427 . S
N550 C547 1.384 . S
N551 C543 1.427 . S
N551 C549 1.384 . S
H552 C558 0.930 . S
H553 C562 0.930 . S
H554 C567 0.929 . S
H555 C565 0.929 . S
H556 C560 0.929 . S
H557 C566 0.929 . S
C558 H552 0.930 . S
C558 C559 1.367 . S
C558 C566 1.378 . S
C559 C558 1.367 . S
C559 C567 1.433 . S
C560 H556 0.929 . S
C560 C562 1.378 . S
C560 C564 1.350 . S
C561 C564 1.463 . S
C561 C566 1.350 . S
C561 N569 1.427 . S
C562 H553 0.930 . S
C562 C560 1.378 . S
C562 C563 1.367 . S
C563 C562 1.367 . S
C563 C565 1.433 . S
C564 C560 1.350 . S
C564 C561 1.463 . S
C564 N568 1.427 . S
C565 H555 0.929 . S
C565 C563 1.433 . S
C565 N568 1.384 . S
C566 H557 0.929 . S
C566 C558 1.378 . S
C566 C561 1.350 . S
C567 H554 0.929 . S
C567 C559 1.433 . S
C567 N569 1.384 . S
N568 C564 1.427 . S
N568 C565 1.384 . S
N569 C561 1.427 . S
N569 C567 1.384 . S
H570 C576 0.930 . S
H571 C580 0.930 . S
H572 C585 0.929 . S
H573 C583 0.929 . S
H574 C578 0.929 . S
H575 C584 0.929 . S
C576 H570 0.930 . S
C576 C577 1.367 . S
C576 C584 1.378 . S
C577 C576 1.367 . S
C577 C585 1.433 . S
C578 H574 0.929 . S
C578 C580 1.378 . S
C578 C582 1.350 . S
C579 C582 1.463 1_455 S
C579 C584 1.350 . S
C579 N587 1.427 . S
C580 H571 0.930 . S
C580 C578 1.378 . S
C580 C581 1.367 . S
C581 C580 1.367 . S
C581 C583 1.433 . S
C582 C578 1.350 . S
C582 C579 1.463 1_655 S
C582 N586 1.427 . S
C583 H573 0.929 . S
C583 C581 1.433 . S
C583 N586 1.384 . S
C584 H575 0.929 . S
C584 C576 1.378 . S
C584 C579 1.350 . S
C585 H572 0.929 . S
C585 C577 1.433 . S
C585 N587 1.384 . S
N586 C582 1.427 . S
N586 C583 1.384 . S
N587 C579 1.427 . S
N587 C585 1.384 . S
H588 C594 0.930 . S
H589 C598 0.930 . S
H590 C603 0.929 . S
H591 C601 0.929 . S
H592 C596 0.929 . S
H593 C602 0.929 . S
C594 H588 0.930 . S
C594 C595 1.367 . S
C594 C602 1.378 . S
C595 C594 1.367 . S
C595 C603 1.433 . S
C596 H592 0.929 . S
C596 C598 1.378 . S
C596 C600 1.350 . S
C597 C600 1.463 . S
C597 C602 1.350 . S
C597 N605 1.427 . S
C598 H589 0.930 . S
C598 C596 1.378 . S
C598 C599 1.367 . S
C599 C598 1.367 . S
C599 C601 1.433 . S
C600 C596 1.350 . S
C600 C597 1.463 . S
C600 N604 1.427 . S
C601 H591 0.929 . S
C601 C599 1.433 . S
C601 N604 1.384 . S
C602 H593 0.929 . S
C602 C594 1.378 . S
C602 C597 1.350 . S
C603 H590 0.929 . S
C603 C595 1.433 . S
C603 N605 1.384 . S
N604 C600 1.427 . S
N604 C601 1.384 . S
N605 C597 1.427 . S
N605 C603 1.384 . S
H606 C612 0.930 . S
H607 C616 0.930 . S
H608 C621 0.929 . S
H609 C619 0.929 . S
H610 C614 0.929 . S
H611 C620 0.929 . S
C612 H606 0.930 . S
C612 C613 1.367 . S
C612 C620 1.378 1_554 S
C613 C612 1.367 . S
C613 C621 1.433 1_554 S
C614 H610 0.929 . S
C614 C616 1.378 . S
C614 C618 1.350 . S
C615 C618 1.463 . S
C615 C620 1.350 . S
C615 N623 1.427 . S
C616 H607 0.930 . S
C616 C614 1.378 . S
C616 C617 1.367 . S
C617 C616 1.367 . S
C617 C619 1.433 . S
C618 C614 1.350 . S
C618 C615 1.463 . S
C618 N622 1.427 . S
C619 H609 0.929 . S
C619 C617 1.433 . S
C619 N622 1.384 . S
C620 H611 0.929 . S
C620 C612 1.378 1_556 S
C620 C615 1.350 . S
C621 H608 0.929 . S
C621 C613 1.433 1_556 S
C621 N623 1.384 . S
N622 C618 1.427 . S
N622 C619 1.384 . S
N623 C615 1.427 . S
N623 C621 1.384 . S
H624 C630 0.930 . S
H625 C634 0.930 . S
H626 C639 0.929 . S
H627 C637 0.929 . S
H628 C632 0.929 . S
H629 C638 0.929 . S
C630 H624 0.930 . S
C630 C631 1.367 1_554 S
C630 C638 1.378 . S
C631 C630 1.367 1_556 S
C631 C639 1.433 . S
C632 H628 0.929 . S
C632 C634 1.378 . S
C632 C636 1.350 . S
C633 C636 1.463 . S
C633 C638 1.350 . S
C633 N641 1.427 1_554 S
C634 H625 0.930 . S
C634 C632 1.378 . S
C634 C635 1.367 . S
C635 C634 1.367 . S
C635 C637 1.433 . S
C636 C632 1.350 . S
C636 C633 1.463 . S
C636 N640 1.427 . S
C637 H627 0.929 . S
C637 C635 1.433 . S
C637 N640 1.384 . S
C638 H629 0.929 . S
C638 C630 1.378 . S
C638 C633 1.350 . S
C639 H626 0.929 . S
C639 C631 1.433 . S
C639 N641 1.384 . S
N640 C636 1.427 . S
N640 C637 1.384 . S
N641 C633 1.427 1_556 S
N641 C639 1.384 . S
H642 C648 0.930 . S
H643 C652 0.930 . S
H644 C657 0.929 . S
H645 C655 0.929 . S
H646 C650 0.929 . S
H647 C656 0.929 . S
C648 H642 0.930 . S
C648 C649 1.367 . S
C648 C656 1.378 . S
C649 C648 1.367 . S
C649 C657 1.433 . S
C650 H646 0.929 . S
C650 C652 1.378 . S
C650 C654 1.350 . S
C651 C654 1.463 . S
C651 C656 1.350 . S
C651 N659 1.427 . S
C652 H643 0.930 . S
C652 C650 1.378 . S
C652 C653 1.367 . S
C653 C652 1.367 . S
C653 C655 1.433 . S
C654 C650 1.350 . S
C654 C651 1.463 . S
C654 N658 1.427 . S
C655 H645 0.929 . S
C655 C653 1.433 . S
C655 N658 1.384 . S
C656 H647 0.929 . S
C656 C648 1.378 . S
C656 C651 1.350 . S
C657 H644 0.929 . S
C657 C649 1.433 . S
C657 N659 1.384 . S
N658 C654 1.427 . S
N658 C655 1.384 . S
N659 C651 1.427 . S
N659 C657 1.384 . S
H660 C666 0.930 . S
H661 C670 0.930 . S
H662 C675 0.929 . S
H663 C673 0.929 . S
H664 C668 0.929 . S
H665 C674 0.929 . S
C666 H660 0.930 . S
C666 C667 1.367 . S
C666 C674 1.378 . S
C667 C666 1.367 . S
C667 C675 1.433 . S
C668 H664 0.929 . S
C668 C670 1.378 . S
C668 C672 1.350 . S
C669 C672 1.463 . S
C669 C674 1.350 . S
C669 N677 1.427 . S
C670 H661 0.930 . S
C670 C668 1.378 . S
C670 C671 1.367 . S
C671 C670 1.367 . S
C671 C673 1.433 . S
C672 C668 1.350 . S
C672 C669 1.463 . S
C672 N676 1.427 . S
C673 H663 0.929 . S
C673 C671 1.433 . S
C673 N676 1.384 . S
C674 H665 0.929 . S
C674 C666 1.378 . S
C674 C669 1.350 . S
C675 H662 0.929 . S
C675 C667 1.433 . S
C675 N677 1.384 . S
N676 C672 1.427 . S
N676 C673 1.384 . S
N677 C669 1.427 . S
N677 C675 1.384 . S
H678 C684 0.930 . S
H679 C688 0.930 . S
H680 C693 0.929 . S
H681 C691 0.929 . S
H682 C686 0.929 . S
H683 C692 0.929 . S
C684 H678 0.930 . S
C684 C685 1.367 . S
C684 C692 1.378 . S
C685 C684 1.367 . S
C685 C693 1.433 . S
C686 H682 0.929 . S
C686 C688 1.378 . S
C686 C690 1.350 . S
C687 C690 1.463 . S
C687 C692 1.350 . S
C687 N695 1.427 . S
C688 H679 0.930 . S
C688 C686 1.378 . S
C688 C689 1.367 . S
C689 C688 1.367 . S
C689 C691 1.433 . S
C690 C686 1.350 . S
C690 C687 1.463 . S
C690 N694 1.427 . S
C691 H681 0.929 . S
C691 C689 1.433 . S
C691 N694 1.384 . S
C692 H683 0.929 . S
C692 C684 1.378 . S
C692 C687 1.350 . S
C693 H680 0.929 . S
C693 C685 1.433 . S
C693 N695 1.384 . S
N694 C690 1.427 . S
N694 C691 1.384 . S
N695 C687 1.427 . S
N695 C693 1.384 . S
H696 C702 0.930 1_556 S
H697 C706 0.930 . S
H698 C711 0.929 . S
H699 C709 0.929 . S
H700 C704 0.929 . S
H701 C710 0.925 1_556 S
C702 H696 0.930 1_554 S
C702 C703 1.367 . S
C702 C710 1.378 . S
C703 C702 1.367 . S
C703 C711 1.433 . S
C704 H700 0.929 . S
C704 C706 1.378 . S
C704 C708 1.350 . S
C705 C708 1.463 . S
C705 C710 1.350 . S
C705 N713 1.427 . S
C706 H697 0.930 . S
C706 C704 1.378 . S
C706 C707 1.367 . S
C707 C706 1.367 . S
C707 C709 1.433 . S
C708 C704 1.350 . S
C708 C705 1.463 . S
C708 N712 1.427 . S
C709 H699 0.929 . S
C709 C707 1.433 . S
C709 N712 1.384 . S
C710 H701 0.925 1_554 S
C710 C702 1.378 . S
C710 C705 1.350 . S
C711 H698 0.929 . S
C711 C703 1.433 . S
C711 N713 1.384 . S
N712 C708 1.427 . S
N712 C709 1.384 . S
N713 C705 1.427 . S
N713 C711 1.384 . S
H714 C720 0.930 . S
H715 C724 0.930 . S
H716 C729 0.929 . S
H717 C727 0.929 . S
H718 C722 0.929 . S
H719 C728 0.929 . S
C720 H714 0.930 . S
C720 C721 1.367 . S
C720 C728 1.378 . S
C721 C720 1.367 . S
C721 C729 1.433 . S
C722 H718 0.929 . S
C722 C724 1.378 . S
C722 C726 1.350 . S
C723 C726 1.463 . S
C723 C728 1.350 . S
C723 N731 1.427 . S
C724 H715 0.930 . S
C724 C722 1.378 . S
C724 C725 1.367 . S
C725 C724 1.367 . S
C725 C727 1.433 . S
C726 C722 1.350 . S
C726 C723 1.463 . S
C726 N730 1.427 . S
C727 H717 0.929 . S
C727 C725 1.433 . S
C727 N730 1.384 . S
C728 H719 0.929 . S
C728 C720 1.378 . S
C728 C723 1.350 . S
C729 H716 0.929 . S
C729 C721 1.433 . S
C729 N731 1.384 . S
N730 C726 1.427 . S
N730 C727 1.384 . S
N731 C723 1.427 . S
N731 C729 1.384 . S
H732 C738 0.930 . S
H733 C742 0.930 . S
H734 C747 0.929 . S
H735 C745 0.929 . S
H736 C740 0.929 . S
H737 C746 0.929 . S
C738 H732 0.930 . S
C738 C739 1.367 . S
C738 C746 1.378 . S
C739 C738 1.367 . S
C739 C747 1.433 . S
C740 H736 0.929 . S
C740 C742 1.378 . S
C740 C744 1.350 . S
C741 C744 1.463 . S
C741 C746 1.350 . S
C741 N749 1.427 . S
C742 H733 0.930 . S
C742 C740 1.378 . S
C742 C743 1.367 . S
C743 C742 1.367 . S
C743 C745 1.433 . S
C744 C740 1.350 . S
C744 C741 1.463 . S
C744 N748 1.427 . S
C745 H735 0.929 . S
C745 C743 1.433 . S
C745 N748 1.384 . S
C746 H737 0.929 . S
C746 C738 1.378 . S
C746 C741 1.350 . S
C747 H734 0.929 . S
C747 C739 1.433 . S
C747 N749 1.384 . S
N748 C744 1.427 . S
N748 C745 1.384 . S
N749 C741 1.427 . S
N749 C747 1.384 . S
H750 C756 0.930 . S
H751 C760 0.930 . S
H752 C765 0.929 . S
H753 C763 0.929 . S
H754 C758 0.929 . S
H755 C764 0.929 . S
C756 H750 0.930 . S
C756 C757 1.367 . S
C756 C764 1.378 . S
C757 C756 1.367 . S
C757 C765 1.433 . S
C758 H754 0.929 . S
C758 C760 1.378 . S
C758 C762 1.350 . S
C759 C762 1.463 . S
C759 C764 1.350 . S
C759 N767 1.427 . S
C760 H751 0.930 . S
C760 C758 1.378 . S
C760 C761 1.367 . S
C761 C760 1.367 . S
C761 C763 1.433 . S
C762 C758 1.350 . S
C762 C759 1.463 . S
C762 N766 1.427 . S
C763 H753 0.929 . S
C763 C761 1.433 . S
C763 N766 1.384 . S
C764 H755 0.929 . S
C764 C756 1.378 . S
C764 C759 1.350 . S
C765 H752 0.929 . S
C765 C757 1.433 . S
C765 N767 1.384 . S
N766 C762 1.427 . S
N766 C763 1.384 . S
N767 C759 1.427 . S
N767 C765 1.384 . S
H768 C774 0.930 . S
H769 C778 0.930 . S
H770 C783 0.929 . S
H771 C781 0.929 . S
H772 C776 0.929 . S
H773 C782 0.929 . S
C774 H768 0.930 . S
C774 C775 1.367 . S
C774 C782 1.378 . S
C775 C774 1.367 . S
C775 C783 1.433 . S
C776 H772 0.929 . S
C776 C778 1.378 . S
C776 C780 1.350 . S
C777 C780 1.463 . S
C777 C782 1.350 . S
C777 N785 1.427 . S
C778 H769 0.930 . S
C778 C776 1.378 . S
C778 C779 1.367 . S
C779 C778 1.367 . S
C779 C781 1.433 . S
C780 C776 1.350 . S
C780 C777 1.463 . S
C780 N784 1.427 . S
C781 H771 0.929 . S
C781 C779 1.433 . S
C781 N784 1.384 . S
C782 H773 0.929 . S
C782 C774 1.378 . S
C782 C777 1.350 . S
C783 H770 0.929 . S
C783 C775 1.433 . S
C783 N785 1.384 . S
N784 C780 1.427 . S
N784 C781 1.384 . S
N785 C777 1.427 . S
N785 C783 1.384 . S
H786 C792 0.930 . S
H787 C796 0.930 . S
H788 C801 0.929 1_554 S
H789 C799 0.929 . S
H790 C794 0.929 . S
H791 C800 0.929 . S
C792 H786 0.930 . S
C792 C793 1.367 . S
C792 C800 1.378 . S
C793 C792 1.367 . S
C793 C801 1.433 . S
C794 H790 0.929 . S
C794 C796 1.378 . S
C794 C798 1.350 1_554 S
C795 C798 1.463 . S
C795 C800 1.350 . S
C795 N803 1.427 . S
C796 H787 0.930 . S
C796 C794 1.378 . S
C796 C797 1.367 1_554 S
C797 C796 1.367 1_556 S
C797 C799 1.433 . S
C798 C794 1.350 1_556 S
C798 C795 1.463 . S
C798 N802 1.427 . S
C799 H789 0.929 . S
C799 C797 1.433 . S
C799 N802 1.384 . S
C800 H791 0.929 . S
C800 C792 1.378 . S
C800 C795 1.350 . S
C801 H788 0.929 1_556 S
C801 C793 1.433 . S
C801 N803 1.384 . S
N802 C798 1.427 . S
N802 C799 1.384 . S
N803 C795 1.427 . S
N803 C801 1.384 . S
H804 C810 0.930 . S
H805 C814 0.930 . S
H806 C819 0.929 . S
H807 C817 0.929 . S
H808 C812 0.929 . S
H809 C818 0.929 . S
C810 H804 0.930 . S
C810 C811 1.367 . S
C810 C818 1.378 . S
C811 C810 1.367 . S
C811 C819 1.433 . S
C812 H808 0.929 . S
C812 C814 1.378 . S
C812 C816 1.350 . S
C813 C816 1.463 . S
C813 C818 1.350 . S
C813 N821 1.427 . S
C814 H805 0.930 . S
C814 C812 1.378 . S
C814 C815 1.367 . S
C815 C814 1.367 . S
C815 C817 1.433 . S
C816 C812 1.350 . S
C816 C813 1.463 . S
C816 N820 1.427 . S
C817 H807 0.929 . S
C817 C815 1.433 . S
C817 N820 1.384 . S
C818 H809 0.929 . S
C818 C810 1.378 . S
C818 C813 1.350 . S
C819 H806 0.929 . S
C819 C811 1.433 . S
C819 N821 1.384 . S
N820 C816 1.427 . S
N820 C817 1.384 . S
N821 C813 1.427 . S
N821 C819 1.384 . S
H822 C828 0.930 . S
H823 C832 0.930 . S
H824 C837 0.929 . S
H825 C835 0.929 . S
H826 C830 0.929 . S
H827 C836 0.929 . S
C828 H822 0.930 . S
C828 C829 1.367 . S
C828 C836 1.378 . S
C829 C828 1.367 . S
C829 C837 1.433 . S
C830 H826 0.929 . S
C830 C832 1.378 . S
C830 C834 1.350 . S
C831 C834 1.463 . S
C831 C836 1.350 . S
C831 N839 1.427 . S
C832 H823 0.930 . S
C832 C830 1.378 . S
C832 C833 1.367 . S
C833 C832 1.367 . S
C833 C835 1.433 . S
C834 C830 1.350 . S
C834 C831 1.463 . S
C834 N838 1.427 . S
C835 H825 0.929 . S
C835 C833 1.433 . S
C835 N838 1.384 . S
C836 H827 0.929 . S
C836 C828 1.378 . S
C836 C831 1.350 . S
C837 H824 0.929 . S
C837 C829 1.433 . S
C837 N839 1.384 . S
N838 C834 1.427 . S
N838 C835 1.384 . S
N839 C831 1.427 . S
N839 C837 1.384 . S
H840 C846 0.930 . S
H841 C850 0.930 . S
H842 C855 0.929 . S
H843 C853 0.929 . S
H844 C848 0.929 . S
H845 C854 0.929 . S
C846 H840 0.930 . S
C846 C847 1.367 . S
C846 C854 1.378 . S
C847 C846 1.367 . S
C847 C855 1.433 . S
C848 H844 0.929 . S
C848 C850 1.378 . S
C848 C852 1.350 . S
C849 C852 1.463 . S
C849 C854 1.350 . S
C849 N857 1.427 . S
C850 H841 0.930 . S
C850 C848 1.378 . S
C850 C851 1.367 . S
C851 C850 1.367 . S
C851 C853 1.433 . S
C852 C848 1.350 . S
C852 C849 1.463 . S
C852 N856 1.427 . S
C853 H843 0.929 . S
C853 C851 1.433 . S
C853 N856 1.384 . S
C854 H845 0.929 . S
C854 C846 1.378 . S
C854 C849 1.350 . S
C855 H842 0.929 . S
C855 C847 1.433 . S
C855 N857 1.384 . S
N856 C852 1.427 . S
N856 C853 1.384 . S
N857 C849 1.427 . S
N857 C855 1.384 . S
H858 C864 0.930 . S
H859 C868 0.930 . S
H860 C873 0.929 . S
H861 C871 0.929 . S
H862 C866 0.929 . S
H863 C872 0.929 . S
C864 H858 0.930 . S
C864 C865 1.367 . S
C864 C872 1.378 . S
C865 C864 1.367 . S
C865 C873 1.433 . S
C866 H862 0.929 . S
C866 C868 1.378 . S
C866 C870 1.350 . S
C867 C870 1.463 . S
C867 C872 1.350 . S
C867 N875 1.427 . S
C868 H859 0.930 . S
C868 C866 1.378 . S
C868 C869 1.367 . S
C869 C868 1.367 . S
C869 C871 1.433 . S
C870 C866 1.350 . S
C870 C867 1.463 . S
C870 N874 1.427 . S
C871 H861 0.929 . S
C871 C869 1.433 . S
C871 N874 1.384 . S
C872 H863 0.929 . S
C872 C864 1.378 . S
C872 C867 1.350 . S
C873 H860 0.929 . S
C873 C865 1.433 . S
C873 N875 1.384 . S
N874 C870 1.427 . S
N874 C871 1.384 . S
N875 C867 1.427 . S
N875 C873 1.384 . S
H876 C882 0.930 . S
H877 C886 0.930 . S
H878 C891 0.929 . S
H879 C889 0.929 . S
H880 C884 0.929 . S
H881 C890 0.929 . S
C882 H876 0.930 . S
C882 C883 1.367 . S
C882 C890 1.378 . S
C883 C882 1.367 . S
C883 C891 1.433 . S
C884 H880 0.929 . S
C884 C886 1.378 1_556 S
C884 C888 1.350 . S
C885 C888 1.463 . S
C885 C890 1.350 . S
C885 N893 1.427 . S
C886 H877 0.930 . S
C886 C884 1.378 1_554 S
C886 C887 1.367 . S
C887 C886 1.367 . S
C887 C889 1.433 1_554 S
C888 C884 1.350 . S
C888 C885 1.463 . S
C888 N892 1.427 . S
C889 H879 0.929 . S
C889 C887 1.433 1_556 S
C889 N892 1.384 . S
C890 H881 0.929 . S
C890 C882 1.378 . S
C890 C885 1.350 . S
C891 H878 0.929 . S
C891 C883 1.433 . S
C891 N893 1.384 . S
N892 C888 1.427 . S
N892 C889 1.384 . S
N893 C885 1.427 . S
N893 C891 1.384 . S
H894 C900 0.930 . S
H895 C904 0.930 . S
H896 C909 0.929 . S
H897 C907 0.929 . S
H898 C902 0.929 . S
H899 C908 0.930 . S
C900 H894 0.930 . S
C900 C901 1.367 . S
C900 C908 1.378 . S
C901 C900 1.367 . S
C901 C909 1.433 . S
C902 H898 0.929 . S
C902 C904 1.378 . S
C902 C906 1.350 . S
C903 C906 1.463 . S
C903 C908 1.350 . S
C903 N911 1.427 . S
C904 H895 0.930 . S
C904 C902 1.378 . S
C904 C905 1.367 . S
C905 C904 1.367 . S
C905 C907 1.433 1_554 S
C906 C902 1.350 . S
C906 C903 1.463 . S
C906 N910 1.427 1_554 S
C907 H897 0.929 . S
C907 C905 1.433 1_556 S
C907 N910 1.384 . S
C908 H899 0.930 . S
C908 C900 1.378 . S
C908 C903 1.350 . S
C909 H896 0.929 . S
C909 C901 1.433 . S
C909 N911 1.384 . S
N910 C906 1.427 1_556 S
N910 C907 1.384 . S
N911 C903 1.427 . S
N911 C909 1.384 . S
C271 C6 1.626 . S
C275 C8 1.636 . S
C289 C28 1.625 1_556 S
C293 C30 1.637 . S
C307 C52 1.632 . S
C311 C50 1.632 . S
C325 C72 1.625 . S
C329 C74 1.637 . S
C343 C96 1.636 . S
C347 C94 1.626 . S
C361 C116 1.627 . S
C365 C118 1.635 . S
C379 C139 1.629 . S
C383 C136 1.634 . S
C397 C158 1.632 . S
C401 C161 1.631 . S
C415 C180 1.633 . S
C419 C183 1.630 . S
C433 C202 1.636 . S
C437 C205 1.626 . S
C451 C227 1.630 . S
C455 C224 1.633 . S
C469 C246 1.637 . S
C473 C249 1.625 . S
C487 C4 1.472 1_556 S
C491 C162 1.474 . S
C505 C184 1.458 . S
C509 C26 1.457 . S
C523 C206 1.458 . S
C527 C48 1.458 . S
C541 C70 1.471 . S
C545 C228 1.473 . S
C559 C92 1.460 . S
C563 C250 1.458 . S
C577 C114 1.470 . S
C581 C140 1.473 . S
C595 C5 1.066 . S
C599 C229 1.082 . S
C613 C27 1.081 . S
C617 C251 1.065 . S
C631 C141 1.080 . S
C635 C49 1.082 . S
C649 C71 1.066 . S
C653 C163 1.071 . S
C667 C93 1.067 . S
C671 C185 1.070 . S
C685 C207 1.079 . S
C689 C115 1.083 . S
C703 C9 1.145 . S
C707 C181 1.148 . S
C721 C203 1.159 . S
C725 C31 1.158 . S
C739 C225 1.156 . S
C743 C53 1.153 . S
C757 C75 1.146 . S
C761 C247 1.149 . S
C775 C137 1.151 . S
C779 C97 1.148 . S
C793 C119 1.145 . S
C797 C159 1.146 . S
C811 C7 1.159 . S
C815 C226 1.177 . S
C829 C29 1.155 . S
C833 C248 1.176 . S
C847 C51 1.162 . S
C851 C138 1.178 . S
C865 C160 1.167 . S
C869 C73 1.151 . S
C883 C95 1.171 . S
C887 C182 1.152 . S
C901 C204 1.171 . S
C905 C117 1.174 1_554 S
