# Generated by pormake.
# Topology vbb, (4)-cn, num edge types: 1
# Building blocks:
#     Node 0, Type 0, BuildingBlock: ESEHIV_clean_sbu_0, # of connection points: 4
#     Node 1, Type 0, BuildingBlock: ESEHIV_clean_sbu_0, # of connection points: 4
#     Node 2, Type 0, BuildingBlock: ESEHIV_clean_sbu_0, # of connection points: 4
#     Node 3, Type 0, BuildingBlock: ESEHIV_clean_sbu_0, # of connection points: 4
#     Node 4, Type 0, BuildingBlock: ESEHIV_clean_sbu_0, # of connection points: 4
#     Node 5, Type 0, BuildingBlock: ESEHIV_clean_sbu_0, # of connection points: 4
#     Node 6, Type 0, BuildingBlock: ESEHIV_clean_sbu_0, # of connection points: 4
#     Node 7, Type 0, BuildingBlock: ESEHIV_clean_sbu_0, # of connection points: 4
#     Node 8, Type 0, BuildingBlock: ESEHIV_clean_sbu_0, # of connection points: 4
#     Node 9, Type 0, BuildingBlock: ESEHIV_clean_sbu_0, # of connection points: 4
#     Node 10, Type 0, BuildingBlock: ESEHIV_clean_sbu_0, # of connection points: 4
#     Node 11, Type 0, BuildingBlock: ESEHIV_clean_sbu_0, # of connection points: 4
#     Node 12, Type 0, BuildingBlock: ESEHIV_clean_sbu_0, # of connection points: 4
#     Node 13, Type 0, BuildingBlock: ESEHIV_clean_sbu_0, # of connection points: 4
#     Node 14, Type 0, BuildingBlock: ESEHIV_clean_sbu_0, # of connection points: 4
#     Node 15, Type 0, BuildingBlock: ESEHIV_clean_sbu_0, # of connection points: 4
#     Node 16, Type 0, BuildingBlock: ESEHIV_clean_sbu_0, # of connection points: 4
#     Node 17, Type 0, BuildingBlock: ESEHIV_clean_sbu_0, # of connection points: 4
#     Node 18, Type 0, BuildingBlock: ESEHIV_clean_sbu_0, # of connection points: 4
#     Node 19, Type 0, BuildingBlock: ESEHIV_clean_sbu_0, # of connection points: 4
#     Node 20, Type 0, BuildingBlock: ESEHIV_clean_sbu_0, # of connection points: 4
#     Node 21, Type 0, BuildingBlock: ESEHIV_clean_sbu_0, # of connection points: 4
#     Node 22, Type 0, BuildingBlock: ESEHIV_clean_sbu_0, # of connection points: 4
#     Node 23, Type 0, BuildingBlock: ESEHIV_clean_sbu_0, # of connection points: 4
#     Node 24, Type 0, BuildingBlock: ESEHIV_clean_sbu_0, # of connection points: 4
#     Node 25, Type 0, BuildingBlock: ESEHIV_clean_sbu_0, # of connection points: 4
#     Node 26, Type 0, BuildingBlock: ESEHIV_clean_sbu_0, # of connection points: 4
#     Node 27, Type 0, BuildingBlock: ESEHIV_clean_sbu_0, # of connection points: 4
#     Node 28, Type 0, BuildingBlock: ESEHIV_clean_sbu_0, # of connection points: 4
#     Node 29, Type 0, BuildingBlock: ESEHIV_clean_sbu_0, # of connection points: 4
#     Node 30, Type 0, BuildingBlock: ESEHIV_clean_sbu_0, # of connection points: 4
#     Node 31, Type 0, BuildingBlock: ESEHIV_clean_sbu_0, # of connection points: 4
#     Edge 32, Type (0, 0), BuildingBlock: ZUJKAS_clean_linker_0, # of connection points: 2
#     Edge 33, Type (0, 0), BuildingBlock: ZUJKAS_clean_linker_0, # of connection points: 2
#     Edge 34, Type (0, 0), BuildingBlock: ZUJKAS_clean_linker_0, # of connection points: 2
#     Edge 35, Type (0, 0), BuildingBlock: ZUJKAS_clean_linker_0, # of connection points: 2
#     Edge 36, Type (0, 0), BuildingBlock: ZUJKAS_clean_linker_0, # of connection points: 2
#     Edge 37, Type (0, 0), BuildingBlock: ZUJKAS_clean_linker_0, # of connection points: 2
#     Edge 38, Type (0, 0), BuildingBlock: ZUJKAS_clean_linker_0, # of connection points: 2
#     Edge 39, Type (0, 0), BuildingBlock: ZUJKAS_clean_linker_0, # of connection points: 2
#     Edge 40, Type (0, 0), BuildingBlock: ZUJKAS_clean_linker_0, # of connection points: 2
#     Edge 41, Type (0, 0), BuildingBlock: ZUJKAS_clean_linker_0, # of connection points: 2
#     Edge 42, Type (0, 0), BuildingBlock: ZUJKAS_clean_linker_0, # of connection points: 2
#     Edge 43, Type (0, 0), BuildingBlock: ZUJKAS_clean_linker_0, # of connection points: 2
#     Edge 44, Type (0, 0), BuildingBlock: ZUJKAS_clean_linker_0, # of connection points: 2
#     Edge 45, Type (0, 0), BuildingBlock: ZUJKAS_clean_linker_0, # of connection points: 2
#     Edge 46, Type (0, 0), BuildingBlock: ZUJKAS_clean_linker_0, # of connection points: 2
#     Edge 47, Type (0, 0), BuildingBlock: ZUJKAS_clean_linker_0, # of connection points: 2
#     Edge 48, Type (0, 0), BuildingBlock: ZUJKAS_clean_linker_0, # of connection points: 2
#     Edge 49, Type (0, 0), BuildingBlock: ZUJKAS_clean_linker_0, # of connection points: 2
#     Edge 50, Type (0, 0), BuildingBlock: ZUJKAS_clean_linker_0, # of connection points: 2
#     Edge 51, Type (0, 0), BuildingBlock: ZUJKAS_clean_linker_0, # of connection points: 2
#     Edge 52, Type (0, 0), BuildingBlock: ZUJKAS_clean_linker_0, # of connection points: 2
#     Edge 53, Type (0, 0), BuildingBlock: ZUJKAS_clean_linker_0, # of connection points: 2
#     Edge 54, Type (0, 0), BuildingBlock: ZUJKAS_clean_linker_0, # of connection points: 2
#     Edge 55, Type (0, 0), BuildingBlock: ZUJKAS_clean_linker_0, # of connection points: 2
#     Edge 56, Type (0, 0), BuildingBlock: ZUJKAS_clean_linker_0, # of connection points: 2
#     Edge 57, Type (0, 0), BuildingBlock: ZUJKAS_clean_linker_0, # of connection points: 2
#     Edge 58, Type (0, 0), BuildingBlock: ZUJKAS_clean_linker_0, # of connection points: 2
#     Edge 59, Type (0, 0), BuildingBlock: ZUJKAS_clean_linker_0, # of connection points: 2
#     Edge 60, Type (0, 0), BuildingBlock: ZUJKAS_clean_linker_0, # of connection points: 2
#     Edge 61, Type (0, 0), BuildingBlock: ZUJKAS_clean_linker_0, # of connection points: 2
#     Edge 62, Type (0, 0), BuildingBlock: ZUJKAS_clean_linker_0, # of connection points: 2
#     Edge 63, Type (0, 0), BuildingBlock: ZUJKAS_clean_linker_0, # of connection points: 2
#     Edge 64, Type (0, 0), BuildingBlock: ZUJKAS_clean_linker_0, # of connection points: 2
#     Edge 65, Type (0, 0), BuildingBlock: ZUJKAS_clean_linker_0, # of connection points: 2
#     Edge 66, Type (0, 0), BuildingBlock: ZUJKAS_clean_linker_0, # of connection points: 2
#     Edge 67, Type (0, 0), BuildingBlock: ZUJKAS_clean_linker_0, # of connection points: 2
#     Edge 68, Type (0, 0), BuildingBlock: ZUJKAS_clean_linker_0, # of connection points: 2
#     Edge 69, Type (0, 0), BuildingBlock: ZUJKAS_clean_linker_0, # of connection points: 2
#     Edge 70, Type (0, 0), BuildingBlock: ZUJKAS_clean_linker_0, # of connection points: 2
#     Edge 71, Type (0, 0), BuildingBlock: ZUJKAS_clean_linker_0, # of connection points: 2
#     Edge 72, Type (0, 0), BuildingBlock: ZUJKAS_clean_linker_0, # of connection points: 2
#     Edge 73, Type (0, 0), BuildingBlock: ZUJKAS_clean_linker_0, # of connection points: 2
#     Edge 74, Type (0, 0), BuildingBlock: ZUJKAS_clean_linker_0, # of connection points: 2
#     Edge 75, Type (0, 0), BuildingBlock: ZUJKAS_clean_linker_0, # of connection points: 2
#     Edge 76, Type (0, 0), BuildingBlock: ZUJKAS_clean_linker_0, # of connection points: 2
#     Edge 77, Type (0, 0), BuildingBlock: ZUJKAS_clean_linker_0, # of connection points: 2
#     Edge 78, Type (0, 0), BuildingBlock: ZUJKAS_clean_linker_0, # of connection points: 2
#     Edge 79, Type (0, 0), BuildingBlock: ZUJKAS_clean_linker_0, # of connection points: 2
#     Edge 80, Type (0, 0), BuildingBlock: ZUJKAS_clean_linker_0, # of connection points: 2
#     Edge 81, Type (0, 0), BuildingBlock: ZUJKAS_clean_linker_0, # of connection points: 2
#     Edge 82, Type (0, 0), BuildingBlock: ZUJKAS_clean_linker_0, # of connection points: 2
#     Edge 83, Type (0, 0), BuildingBlock: ZUJKAS_clean_linker_0, # of connection points: 2
#     Edge 84, Type (0, 0), BuildingBlock: ZUJKAS_clean_linker_0, # of connection points: 2
#     Edge 85, Type (0, 0), BuildingBlock: ZUJKAS_clean_linker_0, # of connection points: 2
#     Edge 86, Type (0, 0), BuildingBlock: ZUJKAS_clean_linker_0, # of connection points: 2
#     Edge 87, Type (0, 0), BuildingBlock: ZUJKAS_clean_linker_0, # of connection points: 2
#     Edge 88, Type (0, 0), BuildingBlock: ZUJKAS_clean_linker_0, # of connection points: 2
#     Edge 89, Type (0, 0), BuildingBlock: ZUJKAS_clean_linker_0, # of connection points: 2
#     Edge 90, Type (0, 0), BuildingBlock: ZUJKAS_clean_linker_0, # of connection points: 2
#     Edge 91, Type (0, 0), BuildingBlock: ZUJKAS_clean_linker_0, # of connection points: 2
#     Edge 92, Type (0, 0), BuildingBlock: ZUJKAS_clean_linker_0, # of connection points: 2
#     Edge 93, Type (0, 0), BuildingBlock: ZUJKAS_clean_linker_0, # of connection points: 2
#     Edge 94, Type (0, 0), BuildingBlock: ZUJKAS_clean_linker_0, # of connection points: 2
#     Edge 95, Type (0, 0), BuildingBlock: ZUJKAS_clean_linker_0, # of connection points: 2
# Relax obj value: 0.030
# Max RMSD: 0.075
# Mean RMSD: 0.075
data_MOF--net-vbb--node1-ESEHIV_clean_sbu_0--edge1-ZUJKAS_clean_linker_0
_symmetry_space_group_name_H-M    P1
_symmetry_Int_Tables_number       1
_symmetry_cell_setting            triclinic
loop_
_symmetry_equiv_pos_as_xyz
'x, y, z'
_cell_length_a     73.713487
_cell_length_b     45.28537
_cell_length_c     142.92676
_cell_angle_alpha  90.063031
_cell_angle_beta   89.794392
_cell_angle_gamma 90.005599
loop_
_atom_site_label
_atom_site_type_symbol
_atom_site_fract_x
_atom_site_fract_y
_atom_site_fract_z
_atom_type_partial_charge
Cu0 Cu 0.51785 0.01874 0.08773 0.0
N1 N 0.54311 0.0153 0.08845 0.0
N2 N 0.57216 0.02926 0.0894 0.0
C3 C 0.55482 0.03578 0.09167 0.0
C4 C 0.57135 1.00345 0.08469 0.0
C5 C 0.55343 0.99491 0.08412 0.0
O6 O 0.50917 0.04484 0.09761 0.0
C7 C 0.52227 0.04317 0.06948 0.0
O8 O 0.53692 0.05543 0.07295 0.0
H9 H 0.55063 0.05618 0.09495 0.0
H10 H 0.54817 0.97613 0.08031 0.0
N11 N 0.50679 0.98238 0.08994 0.0
N12 N 0.48465 0.94875 0.09114 0.0
C13 C 0.48908 0.97657 0.08859 0.0
C14 C 0.51391 0.95745 0.09347 0.0
C15 C 0.5003 0.93662 0.0942 0.0
C16 C 0.51246 0.07222 0.09863 0.0
O17 O 0.52127 0.08652 0.09204 0.0
H18 H 0.47968 0.99258 0.08578 0.0
H19 H 0.52793 0.95478 0.09552 0.0
O20 O 0.5115 0.0294 0.07493 0.0
H21 H 0.58278 0.99221 0.08152 0.0
H22 H 0.50177 0.91455 0.09699 0.0
Cu23 Cu 0.77373 0.24639 0.08537 0.0
N24 N 0.74867 0.24926 0.08739 0.0
N25 N 0.71985 0.23482 0.08927 0.0
C26 C 0.73749 0.22749 0.09025 0.0
C27 C 0.71992 0.26244 0.08574 0.0
C28 C 0.73769 0.27127 0.08459 0.0
O29 O 0.78379 0.21733 0.09394 0.0
C30 C 0.77606 0.26079 0.06654 0.0
O31 O 0.77354 0.2871 0.07019 0.0
H32 H 0.74212 0.20595 0.09243 0.0
H33 H 0.74228 0.29168 0.08145 0.0
N34 N 0.78544 0.28169 0.08848 0.0
N35 N 0.80791 0.31433 0.09042 0.0
C36 C 0.80318 0.28742 0.08714 0.0
C37 C 0.77864 0.30567 0.0928 0.0
C38 C 0.79245 0.3259 0.09397 0.0
C39 C 0.78047 0.18982 0.09446 0.0
O40 O 0.77043 0.17711 0.08804 0.0
H41 H 0.81239 0.27205 0.08379 0.0
H42 H 0.76471 0.3081 0.09507 0.0
O43 O 0.77721 0.23859 0.072 0.0
H44 H 0.708 0.27494 0.08379 0.0
H45 H 0.79125 0.34713 0.0974 0.0
Cu46 Cu 0.51619 0.24528 0.20204 0.0
N47 N 0.54147 0.24665 0.20062 0.0
N48 N 0.57006 0.23071 0.19895 0.0
C49 C 0.55229 0.22379 0.19829 0.0
C50 C 0.57044 0.25926 0.20168 0.0
C51 C 0.55279 0.26897 0.20275 0.0
O52 O 0.50648 0.21879 0.19256 0.0
C53 C 0.52084 0.22175 0.22043 0.0
O54 O 0.53479 0.20779 0.21679 0.0
H55 H 0.54726 0.2022 0.19642 0.0
H56 H 0.54852 0.2904 0.20528 0.0
N57 N 0.50578 0.28199 0.19951 0.0
N58 N 0.48416 0.31635 0.19799 0.0
C59 C 0.48857 0.2897 0.20158 0.0
C60 C 0.51255 0.30448 0.19445 0.0
C61 C 0.49926 0.32574 0.19351 0.0
C62 C 0.50872 0.19103 0.19181 0.0
O63 O 0.5166 0.17644 0.19862 0.0
H64 H 0.47923 0.27535 0.20526 0.0
H65 H 0.52599 0.30497 0.19139 0.0
O66 O 0.51038 0.23637 0.21508 0.0
H67 H 0.58257 0.27176 0.20325 0.0
H68 H 0.50055 0.34628 0.18971 0.0
Cu69 Cu 0.77551 0.02056 0.19799 0.0
N70 N 0.75033 0.01731 0.19695 0.0
N71 N 0.7214 0.03192 0.19575 0.0
C72 C 0.73902 0.04015 0.19547 0.0
C73 C 0.72175 1.00251 0.19738 0.0
C74 C 0.73961 0.99359 0.19812 0.0
O75 O 0.78234 0.05259 0.18957 0.0
C76 C 0.77135 0.04019 0.21688 0.0
O77 O 0.75757 0.05538 0.21364 0.0
H78 H 0.74373 0.06263 0.19465 0.0
H79 H 0.74442 0.97153 0.19961 0.0
N80 N 0.78698 0.98578 0.19413 0.0
N81 N 0.80879 0.95176 0.19241 0.0
C82 C 0.80333 0.97628 0.19703 0.0
C83 C 0.78174 0.96654 0.1875 0.0
C84 C 0.79515 0.94552 0.18642 0.0
C85 C 0.79663 0.05271 0.18453 0.0
O86 O 0.80926 0.03284 0.18603 0.0
H87 H 0.81141 0.98804 0.20213 0.0
H88 H 0.76926 0.96811 0.18357 0.0
O89 O 0.78148 0.02616 0.21116 0.0
H90 H 0.70999 0.9884 0.19809 0.0
H91 H 0.79491 0.92727 0.18153 0.0
Cu92 Cu 0.52451 0.99237 0.95229 0.0
N93 N 0.49945 0.99766 0.9515 0.0
N94 N 0.47026 0.98477 0.95038 0.0
C95 C 0.48762 0.97688 0.94866 0.0
C96 C 0.47124 0.01173 0.9544 0.0
C97 C 0.48929 0.01965 0.95507 0.0
O98 O 0.53009 0.95954 0.94392 0.0
C99 C 0.51986 0.97349 0.97111 0.0
O100 O 0.5057 0.9594 0.96777 0.0
H101 H 0.49173 0.95547 0.94603 0.0
H102 H 0.49467 0.03927 0.95837 0.0
N103 N 0.53677 0.02604 0.94817 0.0
N104 N 0.55924 0.05858 0.94605 0.0
C105 C 0.55323 0.0352 0.95104 0.0
C106 C 0.53208 0.04437 0.94119 0.0
C107 C 0.54592 0.06446 0.93986 0.0
C108 C 0.54443 0.95748 0.93897 0.0
O109 O 0.55791 0.97584 0.94046 0.0
H110 H 0.56101 0.02394 0.95637 0.0
H111 H 0.5197 0.04266 0.93719 0.0
O112 O 0.53051 0.98666 0.96545 0.0
H113 H 0.45979 0.02436 0.95697 0.0
H114 H 0.54625 0.08175 0.93464 0.0
Cu115 Cu 0.26619 0.77151 0.95137 0.0
N116 N 0.29149 0.7686 0.9504 0.0
N117 N 0.32051 0.78283 0.94947 0.0
C118 C 0.30312 0.78969 0.94749 0.0
C119 C 0.31981 0.75616 0.95367 0.0
C120 C 0.30191 0.74745 0.95422 0.0
O121 O 0.25711 0.79874 0.94193 0.0
C122 C 0.27085 0.79332 0.96995 0.0
O123 O 0.28545 0.80605 0.96653 0.0
H124 H 0.29887 0.81063 0.94462 0.0
H125 H 0.29675 0.72792 0.95767 0.0
N126 N 0.25545 0.73516 0.94872 0.0
N127 N 0.23386 0.70074 0.94726 0.0
C128 C 0.23807 0.72791 0.95052 0.0
C129 C 0.26256 0.71183 0.94417 0.0
C130 C 0.24927 0.69055 0.94326 0.0
C131 C 0.26052 0.82617 0.94113 0.0
O132 O 0.2697 0.83973 0.94772 0.0
H133 H 0.22856 0.74277 0.95388 0.0
H134 H 0.27634 0.7106 0.94157 0.0
O135 O 0.26 0.78028 0.96438 0.0
H136 H 0.33132 0.74433 0.95648 0.0
H137 H 0.25085 0.66929 0.93989 0.0
Cu138 Cu 0.52423 0.77151 0.8357 0.0
N139 N 0.49917 0.76794 0.8373 0.0
N140 N 0.47049 0.78349 0.83878 0.0
C141 C 0.4881 0.78918 0.84066 0.0
C142 C 0.47051 0.75757 0.83411 0.0
C143 C 0.48819 0.74816 0.83315 0.0
O144 O 0.5326 0.79993 0.84507 0.0
C145 C 0.53952 0.77526 0.8171 0.0
O146 O 0.55364 0.76135 0.82049 0.0
H147 H 0.49299 0.80964 0.84366 0.0
H148 H 0.49278 0.7295 0.82906 0.0
N149 N 0.53612 0.73525 0.83757 0.0
N150 N 0.55861 0.7025 0.83953 0.0
C151 C 0.55417 0.73128 0.83847 0.0
C152 C 0.52883 0.70812 0.83829 0.0
C153 C 0.54262 0.68791 0.83946 0.0
C154 C 0.53486 0.79021 0.85336 0.0
O155 O 0.53214 0.76203 0.85502 0.0
H156 H 0.56383 0.74922 0.83812 0.0
H157 H 0.51451 0.70324 0.83802 0.0
O158 O 0.52693 0.78364 0.82263 0.0
H159 H 0.45868 0.74696 0.83115 0.0
H160 H 0.54091 0.66432 0.84026 0.0
Cu161 Cu 0.26883 0.99785 0.83746 0.0
N162 N 0.29388 1.00214 0.83883 0.0
N163 N 0.32281 0.98829 0.84044 0.0
C164 C 0.30526 0.98002 0.84107 0.0
C165 C 0.32246 0.01681 0.83772 0.0
C166 C 0.30457 0.02534 0.83676 0.0
O167 O 0.26237 0.96533 0.84583 0.0
C168 C 0.26673 0.01372 0.81881 0.0
O169 O 0.27082 0.03915 0.8227 0.0
H170 H 0.30075 0.95782 0.84266 0.0
H171 H 0.29974 0.04663 0.83442 0.0
N172 N 0.2565 0.03207 0.84122 0.0
N173 N 0.23421 0.06524 0.8429 0.0
C174 C 0.23939 0.03952 0.8389 0.0
C175 C 0.26243 0.0539 0.84682 0.0
C176 C 0.24873 0.07445 0.84785 0.0
C177 C 0.24791 0.96399 0.85073 0.0
O178 O 0.23476 0.98283 0.84914 0.0
H179 H 0.23091 0.02621 0.8344 0.0
H180 H 0.2757 0.05463 0.85001 0.0
O181 O 0.26449 0.99129 0.8241 0.0
H182 H 0.33428 0.03036 0.83636 0.0
H183 H 0.24926 0.0942 0.85211 0.0
Cu184 Cu 0.51855 0.51521 0.58642 0.0
N185 N 0.54381 0.51148 0.58721 0.0
N186 N 0.57316 0.52393 0.58805 0.0
C187 C 0.55587 0.53243 0.58973 0.0
C188 C 0.5719 0.49643 0.58446 0.0
C189 C 0.55382 0.48884 0.58395 0.0
O190 O 0.51002 0.54247 0.596 0.0
C191 C 0.52272 0.53925 0.5681 0.0
O192 O 0.537 0.55245 0.57163 0.0
H193 H 0.55203 0.55417 0.59215 0.0
H194 H 0.54829 0.46876 0.58101 0.0
N195 N 0.50741 0.47921 0.58918 0.0
N196 N 0.48545 0.44551 0.59089 0.0
C197 C 0.49034 0.47138 0.58691 0.0
C198 C 0.51358 0.45758 0.59477 0.0
C199 C 0.50006 0.43674 0.59584 0.0
C200 C 0.51306 0.57003 0.59672 0.0
O201 O 0.52166 0.58384 0.58995 0.0
H202 H 0.48141 0.48511 0.58278 0.0
H203 H 0.52675 0.45747 0.59808 0.0
O204 O 0.51226 0.52467 0.5735 0.0
H205 H 0.58321 0.48308 0.5821 0.0
H206 H 0.50084 0.41692 0.60004 0.0
Cu207 Cu 0.78384 0.72152 0.58229 0.0
N208 N 0.75863 0.72558 0.58317 0.0
N209 N 0.72952 0.71187 0.58436 0.0
C210 C 0.74689 0.70536 0.58657 0.0
C211 C 0.73042 0.73722 0.57942 0.0
C212 C 0.74834 0.74545 0.57864 0.0
O213 O 0.79144 0.69553 0.59247 0.0
C214 C 0.80158 0.70923 0.56447 0.0
O215 O 0.81632 0.72105 0.56797 0.0
H216 H 0.75113 0.68514 0.58995 0.0
H217 H 0.75358 0.76353 0.57449 0.0
N218 N 0.79543 0.75841 0.58352 0.0
N219 N 0.81718 0.79247 0.58537 0.0
C220 C 0.81344 0.76359 0.58397 0.0
C221 C 0.78756 0.78495 0.58482 0.0
C222 C 0.8009 0.80595 0.58595 0.0
C223 C 0.79368 0.7071 0.60053 0.0
O224 O 0.79143 0.73569 0.60152 0.0
H225 H 0.82361 0.74639 0.58361 0.0
H226 H 0.77311 0.7888 0.58517 0.0
O227 O 0.78767 0.7058 0.56968 0.0
H228 H 0.71902 0.74835 0.57623 0.0
H229 H 0.79879 0.82934 0.58707 0.0
Cu230 Cu 0.51631 0.74302 0.70018 0.0
N231 N 0.54089 0.74422 0.69697 0.0
N232 N 0.56942 0.72809 0.69544 0.0
C233 C 0.55335 0.72453 0.69985 0.0
C234 C 0.56705 0.75131 0.68965 0.0
C235 C 0.54938 0.7611 0.69057 0.0
O236 O 0.50487 0.71613 0.69134 0.0
C237 C 0.50247 0.73944 0.71893 0.0
O238 O 0.48773 0.7515 0.7155 0.0
H239 H 0.55044 0.70726 0.70486 0.0
H240 H 0.54296 0.77837 0.68655 0.0
N241 N 0.50538 0.77997 0.69863 0.0
N242 N 0.48347 0.8138 0.69721 0.0
C243 C 0.48747 0.78474 0.6976 0.0
C244 C 0.51304 0.80694 0.69881 0.0
C245 C 0.49955 0.82788 0.69789 0.0
C246 C 0.51123 0.69068 0.68944 0.0
O247 O 0.52402 0.67967 0.69477 0.0
H248 H 0.47752 0.76717 0.69732 0.0
H249 H 0.52736 0.8111 0.69978 0.0
O250 O 0.51523 0.73196 0.71337 0.0
H251 H 0.57703 0.75959 0.68474 0.0
H252 H 0.50134 0.8516 0.69806 0.0
Cu253 Cu 0.77631 0.52026 0.70168 0.0
N254 N 0.75111 0.51722 0.70101 0.0
N255 N 0.72232 0.5327 0.70002 0.0
C256 C 0.73996 0.53928 0.69844 0.0
C257 C 0.72249 0.50507 0.70361 0.0
C258 C 0.74026 0.49564 0.70423 0.0
O259 O 0.78298 0.55194 0.69311 0.0
C260 C 0.77267 0.54104 0.72038 0.0
O261 O 0.75903 0.55629 0.71699 0.0
H262 H 0.74489 0.56019 0.69581 0.0
H263 H 0.745 0.47517 0.70725 0.0
N264 N 0.78739 0.48528 0.69777 0.0
N265 N 0.80884 0.45081 0.69582 0.0
C266 C 0.80383 0.47555 0.70046 0.0
C267 C 0.78165 0.46597 0.69127 0.0
C268 C 0.79485 0.44468 0.69005 0.0
C269 C 0.7977 0.55295 0.68843 0.0
O270 O 0.81073 0.53413 0.69031 0.0
H271 H 0.81227 0.48723 0.70542 0.0
H272 H 0.76895 0.46767 0.68754 0.0
O273 O 0.78269 0.52637 0.71477 0.0
H274 H 0.71075 0.49301 0.70608 0.0
H275 H 0.79423 0.4263 0.68522 0.0
Cu276 Cu 0.52232 0.50229 0.45018 0.0
N277 N 0.49701 0.50192 0.44937 0.0
N278 N 0.46879 0.48391 0.44815 0.0
C279 C 0.48672 0.47852 0.44699 0.0
C280 C 0.46789 0.51206 0.45129 0.0
C281 C 0.48529 0.52304 0.45206 0.0
O282 O 0.53101 0.47176 0.44157 0.0
C283 C 0.51933 0.48125 0.46892 0.0
O284 O 0.50608 0.46501 0.46558 0.0
H285 H 0.49242 0.45769 0.44472 0.0
H286 H 0.48917 0.54448 0.45473 0.0
N287 N 0.53137 0.53924 0.4466 0.0
N288 N 0.54977 0.57848 0.44553 0.0
C289 C 0.54668 0.55217 0.44972 0.0
C290 C 0.52446 0.55797 0.44025 0.0
C291 C 0.53574 0.5822 0.43959 0.0
C292 C 0.54444 0.47515 0.43603 0.0
O293 O 0.55468 0.49874 0.43685 0.0
H294 H 0.55537 0.54232 0.45494 0.0
H295 H 0.5122 0.55406 0.4363 0.0
O296 O 0.52884 0.49669 0.46329 0.0
H297 H 0.45563 0.52358 0.45331 0.0
H298 H 0.53396 0.60072 0.4349 0.0
Cu299 Cu 0.26464 0.27088 0.45082 0.0
N300 N 0.28945 0.26747 0.44837 0.0
N301 N 0.31815 0.28309 0.44667 0.0
C302 C 0.30037 0.29052 0.44644 0.0
C303 C 0.31827 0.25397 0.44877 0.0
C304 C 0.30059 0.24448 0.44988 0.0
O305 O 0.25681 0.30296 0.44262 0.0
C306 C 0.25017 0.28038 0.46976 0.0
O307 O 0.23368 0.28035 0.46633 0.0
H308 H 0.29525 0.31257 0.44527 0.0
H309 H 0.29623 0.22282 0.45214 0.0
N310 N 0.25238 0.23556 0.44795 0.0
N311 N 0.23019 0.2019 0.44655 0.0
C312 C 0.23526 0.228 0.45034 0.0
C313 C 0.25838 0.21337 0.44248 0.0
C314 C 0.24478 0.19262 0.44162 0.0
C315 C 0.24319 0.30186 0.43716 0.0
O316 O 0.23136 0.28039 0.43809 0.0
H317 H 0.22635 0.24207 0.45436 0.0
H318 H 0.27158 0.21265 0.43917 0.0
O319 O 0.26375 0.27849 0.46427 0.0
H320 H 0.33025 0.24074 0.44998 0.0
H321 H 0.24557 0.1724 0.4376 0.0
Cu322 Cu 0.5287 0.27064 0.33794 0.0
N323 N 0.50354 0.26812 0.33944 0.0
N324 N 0.47472 0.28306 0.34107 0.0
C325 C 0.49237 0.29119 0.34095 0.0
C326 C 0.47491 0.25352 0.33966 0.0
C327 C 0.49269 0.24441 0.33865 0.0
O328 O 0.5363 0.30371 0.34582 0.0
C329 C 0.52384 0.28927 0.31903 0.0
O330 O 0.51082 0.30578 0.32251 0.0
H331 H 0.49717 0.31369 0.34153 0.0
H332 H 0.49735 0.22219 0.33725 0.0
N333 N 0.53986 0.23579 0.34198 0.0
N334 N 0.56082 0.20039 0.34374 0.0
C335 C 0.55589 0.22491 0.33898 0.0
C336 C 0.53433 0.21747 0.34882 0.0
C337 C 0.54719 0.19563 0.34992 0.0
C338 C 0.54994 0.30291 0.35128 0.0
O339 O 0.56132 0.28069 0.35068 0.0
H340 H 0.56407 0.23555 0.33367 0.0
H341 H 0.52197 0.22014 0.35283 0.0
O342 O 0.53389 0.27463 0.32458 0.0
H343 H 0.46309 0.23942 0.3393 0.0
H344 H 0.54654 0.17775 0.35492 0.0
Cu345 Cu 0.26813 0.49389 0.33704 0.0
N346 N 0.29341 0.49515 0.33858 0.0
N347 N 0.32207 0.47955 0.34018 0.0
C348 C 0.30432 0.47238 0.34085 0.0
C349 C 0.32233 0.50814 0.33753 0.0
C350 C 0.30465 0.51763 0.3365 0.0
O351 O 0.25777 0.46646 0.3461 0.0
C352 C 0.27361 0.4741 0.31822 0.0
O353 O 0.28826 0.46141 0.32154 0.0
H354 H 0.29939 0.45068 0.34266 0.0
H355 H 0.30031 0.53902 0.334 0.0
N356 N 0.25774 0.53042 0.33991 0.0
N357 N 0.23623 0.56492 0.34164 0.0
C358 C 0.24054 0.5383 0.33796 0.0
C359 C 0.26461 0.55275 0.34499 0.0
C360 C 0.25139 0.57409 0.34606 0.0
C361 C 0.26035 0.43876 0.34672 0.0
O362 O 0.26943 0.42498 0.3401 0.0
H363 H 0.23116 0.52413 0.33426 0.0
H364 H 0.2781 0.55313 0.34794 0.0
O365 O 0.26258 0.48648 0.32388 0.0
H366 H 0.3344 0.52083 0.33595 0.0
H367 H 0.25281 0.59459 0.34988 0.0
Cu368 Cu 1.01871 0.01553 0.58655 0.0
N369 N 0.04409 0.01431 0.5872 0.0
N370 N 0.07282 0.02965 0.58858 0.0
C371 C 0.05522 0.03552 0.59048 0.0
C372 C 0.07275 1.00352 0.58402 0.0
C373 C 0.05503 0.99412 0.58319 0.0
O374 O 1.00957 0.04129 0.59644 0.0
C375 C 0.02195 0.03894 0.56807 0.0
O376 O 0.03673 0.0515 0.57128 0.0
H377 H 0.05049 0.05571 0.5937 0.0
H378 H 0.05035 0.97461 0.57956 0.0
N379 N 1.00912 0.97824 0.58911 0.0
N380 N 0.98879 0.94178 0.59038 0.0
C381 C 0.9926 0.96839 0.58658 0.0
C382 C 1.01607 0.95715 0.59466 0.0
C383 C 1.00355 0.93463 0.59547 0.0
C384 C 1.01229 0.06888 0.59739 0.0
O385 O 1.02042 0.08357 0.59065 0.0
H386 H 0.98323 0.98114 0.58239 0.0
H387 H 0.02908 0.95851 0.59811 0.0
O388 O 1.01161 0.02511 0.57374 0.0
H389 H 0.0846 0.99238 0.58126 0.0
H390 H 1.00508 0.91474 0.59958 0.0
Cu391 Cu 0.27248 0.24819 0.58673 0.0
N392 N 0.24747 0.25227 0.58872 0.0
N393 N 0.21857 0.2378 0.5904 0.0
C394 C 0.23616 0.23137 0.59209 0.0
C395 C 0.21883 0.26394 0.58588 0.0
C396 C 0.23663 0.27268 0.5848 0.0
O397 O 0.28201 0.22159 0.59623 0.0
C398 C 0.28711 0.24153 0.56797 0.0
O399 O 0.30217 0.25321 0.57115 0.0
H400 H 0.24075 0.21068 0.59499 0.0
H401 H 0.24135 0.29137 0.58077 0.0
N402 N 0.28458 0.28433 0.58837 0.0
N403 N 0.30735 0.31674 0.58991 0.0
C404 C 0.30272 0.28822 0.58851 0.0
C405 C 0.2775 0.3113 0.58994 0.0
C406 C 0.2915 0.33132 0.59087 0.0
C407 C 0.27862 0.19421 0.59719 0.0
O408 O 0.26943 0.18032 0.59067 0.0
H409 H 0.31237 0.27036 0.58772 0.0
H410 H 0.26319 0.31617 0.59043 0.0
O411 O 0.27433 0.23541 0.57367 0.0
H412 H 0.20709 0.27519 0.58308 0.0
H413 H 0.2901 0.35485 0.59202 0.0
Cu414 Cu 1.01675 0.24303 0.70139 0.0
N415 N 0.04204 0.24626 0.70072 0.0
N416 N 0.07106 0.23213 0.69974 0.0
C417 C 0.05376 0.22597 0.69735 0.0
C418 C 0.07021 0.25749 0.70468 0.0
C419 C 0.05231 0.26616 0.70526 0.0
O420 O 1.00828 0.21659 0.69155 0.0
C421 C 1.0209 0.2193 0.71975 0.0
O422 O 0.0354 0.2065 0.71625 0.0
H423 H 0.04961 0.20592 0.69385 0.0
H424 H 0.04701 0.28462 0.70922 0.0
N425 N 1.00596 0.2795 0.69901 0.0
N426 N 0.98428 0.31382 0.69768 0.0
C427 C 0.98836 0.2861 0.70046 0.0
C428 C 1.01335 0.30382 0.69518 0.0
C429 C 1.00001 0.32504 0.69435 0.0
C430 C 1.01182 0.18925 0.69058 0.0
O431 O 1.02054 0.17524 0.69723 0.0
H432 H 0.97866 0.27048 0.70328 0.0
H433 H 0.02739 0.30584 0.69305 0.0
O434 O 1.01022 0.23304 0.71427 0.0
H435 H 0.08161 0.2683 0.708 0.0
H436 H 1.00181 0.34703 0.69154 0.0
Cu437 Cu 0.27339 0.01465 0.69928 0.0
N438 N 0.2482 0.01254 0.69771 0.0
N439 N 0.21941 0.0276 0.69646 0.0
C440 C 0.23705 0.03542 0.69594 0.0
C441 C 0.21943 0.99859 0.69859 0.0
C442 C 0.23721 0.98934 0.69933 0.0
O443 O 0.28295 0.04289 0.69024 0.0
C444 C 0.27451 1.00082 0.71804 0.0
O445 O 0.26907 0.97575 0.71436 0.0
H446 H 0.24169 0.05774 0.6948 0.0
H447 H 0.24179 0.96749 0.70125 0.0
N448 N 0.28445 0.9789 0.69607 0.0
N449 N 0.30637 0.94531 0.69414 0.0
C450 C 0.30122 0.97025 0.6986 0.0
C451 C 0.27877 0.95876 0.6898 0.0
C452 C 0.29228 0.93798 0.6886 0.0
C453 C 0.28025 0.07059 0.68971 0.0
O454 O 0.27182 0.0843 0.69656 0.0
H455 H 0.3098 0.98285 0.70326 0.0
H456 H 0.26601 0.95976 0.68611 0.0
O457 O 0.27788 0.02242 0.71256 0.0
H458 H 0.20746 0.98519 0.69974 0.0
H459 H 0.29189 0.91927 0.68388 0.0
Cu460 Cu 1.01507 0.01007 0.45056 0.0
N461 N 0.99002 0.01776 0.45047 0.0
N462 N 0.95991 0.01076 0.45083 0.0
C463 C 0.97628 0.99874 0.44882 0.0
C464 C 0.96354 0.03853 0.45372 0.0
C465 C 0.98205 0.04271 0.45351 0.0
O466 O 0.0215 0.98291 0.44045 0.0
C467 C 1.01117 0.9852 0.46884 0.0
O468 O 0.99601 0.97409 0.46557 0.0
H469 H 0.97828 0.97599 0.44677 0.0
H470 H 0.98927 0.06219 0.45582 0.0
N471 N 0.02794 0.04476 0.44798 0.0
N472 N 0.05121 0.07634 0.44658 0.0
C473 C 0.04546 0.0502 0.45008 0.0
C474 C 0.02239 0.06819 0.44298 0.0
C475 C 0.03666 0.08772 0.44212 0.0
C476 C 1.01673 0.95614 0.43929 0.0
O477 O 1.00729 0.94277 0.44585 0.0
H478 H 0.05396 0.03474 0.45382 0.0
H479 H 1.00902 0.07061 0.43999 0.0
O480 O 0.0219 0.99854 0.46325 0.0
H481 H 0.95359 0.05449 0.45607 0.0
H482 H 0.03633 0.1086 0.43845 0.0
Cu483 Cu 0.75463 0.79527 0.45355 0.0
N484 N 0.7652 0.83148 0.45676 0.0
N485 N 0.78682 0.86624 0.4577 0.0
C486 C 0.78162 0.84047 0.45372 0.0
C487 C 0.77297 0.87363 0.46348 0.0
C488 C 0.75974 0.85211 0.46292 0.0
O489 O 0.75979 0.78962 0.44023 0.0
C490 C 0.75726 0.76615 0.47037 0.0
O491 O 0.74365 0.78415 0.47202 0.0
H492 H 0.78984 0.82757 0.44895 0.0
H493 H 0.74731 0.85117 0.46695 0.0
N494 N 0.72918 0.79475 0.4548 0.0
N495 N 0.70082 0.77684 0.45493 0.0
C496 C 0.71867 0.77052 0.45397 0.0
C497 C 0.71761 0.81724 0.45633 0.0
C498 C 0.70014 0.80629 0.45641 0.0
C499 C 0.75167 0.80859 0.43515 0.0
O500 O 0.74161 0.82869 0.43929 0.0
H501 H 0.72406 0.74877 0.45251 0.0
H502 H 0.72153 0.84008 0.45717 0.0
O503 O 0.76467 0.7663 0.46229 0.0
H504 H 0.77243 0.89298 0.46791 0.0
H505 H 0.68792 0.81908 0.45751 0.0
Cu506 Cu 0.02448 0.76501 0.3387 0.0
N507 N 0.99934 0.76078 0.34018 0.0
N508 N 0.97018 0.77405 0.34134 0.0
C509 C 0.98761 0.78268 0.34223 0.0
C510 C 0.97094 0.74549 0.33866 0.0
C511 C 0.98894 0.73734 0.33798 0.0
O512 O 0.03261 0.79437 0.34778 0.0
C513 C 0.02641 0.7511 0.31995 0.0
O514 O 0.02225 0.72547 0.32367 0.0
H515 H 0.9917 0.80502 0.34381 0.0
H516 H 0.99407 0.7162 0.33565 0.0
N517 N 0.03667 0.73019 0.34185 0.0
N518 N 0.05935 0.69776 0.34352 0.0
C519 C 0.05412 0.72387 0.33983 0.0
C520 C 0.03062 0.70739 0.34701 0.0
C521 C 0.04456 0.68733 0.34804 0.0
C522 C 0.02897 0.82184 0.34803 0.0
O523 O 1.02079 0.83416 0.34087 0.0
H524 H 0.0629 0.73862 0.33595 0.0
H525 H 1.01711 0.70568 0.34993 0.0
O526 O 0.0288 0.77313 0.3254 0.0
H527 H 0.95934 0.73175 0.33707 0.0
H528 H 0.04382 0.6667 0.35183 0.0
Cu529 Cu 0.76632 0.98248 0.33331 0.0
N530 N 0.79144 0.98724 0.33408 0.0
N531 N 0.82053 0.97423 0.33559 0.0
C532 C 0.80312 0.96695 0.3374 0.0
C533 C 0.81979 1.00022 0.33099 0.0
C534 C 0.8018 0.00821 0.33007 0.0
O535 O 0.76018 0.94986 0.34166 0.0
C536 C 0.77096 0.96298 0.31455 0.0
O537 O 0.78504 0.9488 0.31792 0.0
H538 H 0.79887 0.94625 0.34048 0.0
H539 H 0.79659 0.02714 0.32634 0.0
N540 N 0.75429 0.01682 0.33719 0.0
N541 N 0.73219 0.04995 0.33964 0.0
C542 C 0.73649 0.02296 0.33621 0.0
C543 C 0.76153 0.04069 0.34135 0.0
C544 C 0.74797 0.0611 0.34289 0.0
C545 C 0.76267 0.95503 0.35033 0.0
O546 O 0.76788 0.98162 0.35284 0.0
H547 H 0.72692 0.00778 0.3331 0.0
H548 H 0.77572 0.04313 0.3431 0.0
O549 O 0.76036 0.97644 0.32018 0.0
H550 H 0.83136 0.01211 0.32823 0.0
H551 H 0.74972 0.08272 0.34599 0.0
Cu552 Cu 1.01673 0.51889 0.08728 0.0
N553 N 0.04202 0.51692 0.08833 0.0
N554 N 0.07061 0.53302 0.08978 0.0
C555 C 0.05291 0.53842 0.09161 0.0
C556 C 0.07082 0.50669 0.08532 0.0
C557 C 0.05318 0.4969 0.08441 0.0
O558 O 1.00737 0.545 0.09702 0.0
C559 C 0.02159 0.54207 0.06885 0.0
O560 O 0.03611 0.5547 0.07233 0.0
H561 H 0.04789 0.55829 0.09489 0.0
H562 H 0.04873 0.47751 0.08064 0.0
N563 N 1.00622 0.48213 0.08955 0.0
N564 N 0.98453 0.44777 0.09084 0.0
C565 C 0.98853 0.47583 0.08836 0.0
C566 C 1.01377 0.45729 0.0929 0.0
C567 C 1.00043 0.436 0.09368 0.0
C568 C 1.01015 0.57259 0.09792 0.0
O569 O 1.01846 0.58707 0.09119 0.0
H570 H 0.97884 0.49163 0.0857 0.0
H571 H 0.0279 0.45493 0.09478 0.0
O572 O 1.01071 0.52863 0.07433 0.0
H573 H 0.08271 0.49617 0.08237 0.0
H574 H 1.00225 0.41384 0.09634 0.0
Cu575 Cu 0.27528 0.7455 0.08676 0.0
N576 N 0.25002 0.74778 0.08797 0.0
N577 N 0.22132 0.73234 0.08964 0.0
C578 C 0.239 0.72641 0.09126 0.0
C579 C 0.22125 0.75884 0.0853 0.0
C580 C 0.23895 0.76821 0.08425 0.0
O581 O 0.2846 0.71909 0.09636 0.0
C582 C 0.27025 0.72298 0.06828 0.0
O583 O 0.25557 0.7107 0.07176 0.0
H584 H 0.2439 0.70633 0.09442 0.0
H585 H 0.2435 0.78769 0.08055 0.0
N586 N 0.28597 0.78204 0.08914 0.0
N587 N 0.30786 0.81595 0.09062 0.0
C588 C 0.30368 0.78817 0.08791 0.0
C589 C 0.27857 0.80671 0.09275 0.0
C590 C 0.29204 0.82772 0.09364 0.0
C591 C 0.28166 0.69155 0.09725 0.0
O592 O 0.27313 0.67721 0.09059 0.0
H593 H 0.31327 0.77239 0.0851 0.0
H594 H 0.26449 0.80908 0.09476 0.0
O595 O 0.28125 0.73599 0.07377 0.0
H596 H 0.20938 0.76981 0.08254 0.0
H597 H 0.29036 0.84964 0.09654 0.0
Cu598 Cu 1.01923 0.75088 0.20036 0.0
N599 N 0.04444 0.75294 0.19861 0.0
N600 N 0.07316 0.73755 0.19705 0.0
C601 C 0.05546 0.73028 0.1963 0.0
C602 C 0.07331 0.76598 0.19987 0.0
C603 C 0.0556 0.77541 0.20081 0.0
O604 O 1.00946 0.72268 0.19136 0.0
C605 C 1.01798 0.76496 0.21912 0.0
O606 O 0.02275 0.79028 0.21538 0.0
H607 H 0.05067 0.70838 0.19464 0.0
H608 H 0.05119 0.79678 0.20333 0.0
N609 N 1.00791 0.78662 0.19736 0.0
N610 N 0.98567 0.8198 0.19554 0.0
C611 C 0.99032 0.79303 0.19896 0.0
C612 C 1.01469 0.81005 0.19276 0.0
C613 C 1.00103 0.83058 0.19164 0.0
C614 C 1.01223 0.69502 0.19072 0.0
O615 O 1.02095 0.68125 0.19742 0.0
H616 H 0.98103 0.77785 0.20232 0.0
H617 H 0.0285 0.81189 0.19024 0.0
O618 O 1.01503 0.74307 0.21369 0.0
H619 H 0.08534 0.77881 0.20138 0.0
H620 H 1.00235 0.85175 0.1882 0.0
Cu621 Cu 0.27469 0.52018 0.20138 0.0
N622 N 0.24938 0.5173 0.2006 0.0
N623 N 0.22042 0.53157 0.1994 0.0
C624 C 0.23785 0.53781 0.19724 0.0
C625 C 0.22098 0.50591 0.20419 0.0
C626 C 0.23885 0.49717 0.20491 0.0
O627 O 0.28353 0.54633 0.19156 0.0
C628 C 0.27027 0.54341 0.21983 0.0
O629 O 0.25541 0.55537 0.21649 0.0
H630 H 0.24221 0.55796 0.19388 0.0
H631 H 0.24391 0.47837 0.20876 0.0
N632 N 0.28549 0.48364 0.19904 0.0
N633 N 0.3073 0.44948 0.19774 0.0
C634 C 0.30293 0.47681 0.20081 0.0
C635 C 0.27851 0.45986 0.1947 0.0
C636 C 0.29194 0.43874 0.19389 0.0
C637 C 0.28026 0.57373 0.19056 0.0
O638 O 0.27152 0.58804 0.19719 0.0
H639 H 0.31237 0.49208 0.204 0.0
H640 H 0.26475 0.45825 0.19215 0.0
O641 O 0.28113 0.53035 0.21423 0.0
H642 H 0.20939 0.49484 0.20726 0.0
H643 H 0.2905 0.41723 0.19067 0.0
Cu644 Cu 0.02624 0.49245 0.95165 0.0
N645 N 1.00098 0.4943 0.95017 0.0
N646 N 0.97212 0.47946 0.9486 0.0
C647 C 0.98981 0.4717 0.94806 0.0
C648 C 0.97225 0.50829 0.95105 0.0
C649 C 0.99002 0.51731 0.95203 0.0
O650 O 0.03628 0.46509 0.94243 0.0
C651 C 1.02085 0.47197 0.97039 0.0
O652 O 1.00646 0.45876 0.96698 0.0
H653 H 0.99455 0.44959 0.94668 0.0
H654 H 0.99461 0.53886 0.95427 0.0
N655 N 0.03677 0.52886 0.9488 0.0
N656 N 0.05832 0.56331 0.94716 0.0
C657 C 0.05382 0.53702 0.95099 0.0
C658 C 0.03021 0.55068 0.94341 0.0
C659 C 0.04345 0.572 0.9424 0.0
C660 C 0.03353 0.43745 0.94166 0.0
O661 O 0.02454 0.42342 0.94824 0.0
H662 H 0.06298 0.52322 0.95495 0.0
H663 H 1.01695 0.55067 0.94019 0.0
O664 O 0.03179 0.48488 0.9648 0.0
H665 H 0.96039 0.52188 0.95224 0.0
H666 H 0.04228 0.5921 0.93836 0.0
Cu667 Cu 0.7682 0.26085 0.94795 0.0
N668 N 0.79307 0.26134 0.94504 0.0
N669 N 0.82147 0.27899 0.94401 0.0
C670 C 0.80474 0.28259 0.94776 0.0
C671 C 0.82033 0.25397 0.9389 0.0
C672 C 0.80289 0.24312 0.93957 0.0
O673 O 0.75655 0.2904 0.9401 0.0
C674 C 0.7526 0.2698 0.96653 0.0
O675 O 0.73652 0.27112 0.96263 0.0
H676 H 0.8009 0.30044 0.95239 0.0
H677 H 0.7978 0.22356 0.93616 0.0
N678 N 0.75725 0.22501 0.94453 0.0
N679 N 0.73536 0.19098 0.94292 0.0
C680 C 0.74251 0.21224 0.94846 0.0
C681 C 0.75943 0.21129 0.93625 0.0
C682 C 0.74616 0.19019 0.93528 0.0
C683 C 0.76198 0.31681 0.9389 0.0
O684 O 0.7745 0.32762 0.94444 0.0
H685 H 0.73625 0.21997 0.95485 0.0
H686 H 0.76897 0.21787 0.93089 0.0
O687 O 0.76666 0.26691 0.96142 0.0
H688 H 0.83111 0.24455 0.9347 0.0
H689 H 0.74407 0.17647 0.92917 0.0
Cu690 Cu 0.02566 0.27211 0.837 0.0
N691 N 1.00054 0.26856 0.83829 0.0
N692 N 0.97165 0.28298 0.84 0.0
C693 C 0.98928 0.29111 0.8403 0.0
C694 C 0.97193 0.25395 0.83777 0.0
C695 C 0.98976 0.24514 0.83672 0.0
O696 O 0.03242 0.30418 0.84549 0.0
C697 C 1.02055 0.29094 0.81811 0.0
O698 O 1.00657 0.30543 0.82151 0.0
H699 H 0.99402 0.31341 0.84149 0.0
H700 H 0.99452 0.22344 0.83471 0.0
N701 N 0.03728 0.23735 0.84072 0.0
N702 N 0.05923 0.2037 0.84249 0.0
C703 C 0.05424 0.22915 0.83831 0.0
C704 C 0.03123 0.21625 0.84656 0.0
C705 C 0.04472 0.19539 0.84765 0.0
C706 C 0.0468 0.30475 0.85041 0.0
O707 O 0.05971 0.28548 0.84874 0.0
H708 H 0.06283 0.24195 0.83368 0.0
H709 H 1.01809 0.21637 0.84996 0.0
O710 O 0.0312 0.27773 0.82373 0.0
H711 H 0.96013 0.24006 0.83684 0.0
H712 H 0.04412 0.17619 0.85214 0.0
Cu713 Cu 0.7669 0.49784 0.83737 0.0
N714 N 0.79215 0.49864 0.83878 0.0
N715 N 0.82057 0.48197 0.84037 0.0
C716 C 0.80273 0.47545 0.84101 0.0
C717 C 0.82124 0.5106 0.83776 0.0
C718 C 0.80369 0.52077 0.83674 0.0
O719 O 0.75683 0.47127 0.84672 0.0
C720 C 0.77156 0.47482 0.81887 0.0
O721 O 0.78565 0.46103 0.82238 0.0
H722 H 0.79746 0.4539 0.84278 0.0
H723 H 0.79964 0.54238 0.83431 0.0
N724 N 0.75672 0.53466 0.84 0.0
N725 N 0.73521 0.5693 0.84146 0.0
C726 C 0.73962 0.54257 0.8379 0.0
C727 C 0.7635 0.55709 0.84507 0.0
C728 C 0.7503 0.57855 0.84595 0.0
C729 C 0.75852 0.44337 0.84722 0.0
O730 O 0.7662 0.42894 0.84028 0.0
H731 H 0.73052 0.52857 0.83395 0.0
H732 H 0.77685 0.55736 0.84818 0.0
O733 O 0.7611 0.48922 0.82433 0.0
H734 H 0.83349 0.52288 0.83624 0.0
H735 H 0.75154 0.59881 0.84992 0.0
H736 H 0.49331 0.04944 0.11339 0.0
H737 H 0.48998 0.07019 0.12908 0.0
H738 H 0.51969 0.14765 0.12052 0.0
H739 H 0.52325 0.12693 0.10478 0.0
H740 H 0.53279 0.12202 0.13692 0.0
H741 H 0.45825 0.13759 0.13908 0.0
H742 H 0.46508 0.10121 0.13549 0.0
H743 H 0.47005 0.13229 0.12811 0.0
C744 C 0.49892 0.07111 0.11478 0.0
C745 C 0.50856 0.08651 0.10779 0.0
C746 C 0.49691 0.08301 0.12376 0.0
C747 C 0.50443 0.11061 0.12597 0.0
C748 C 0.5137 0.12636 0.11896 0.0
H749 H 0.49194 0.21474 0.17652 0.0
H750 H 0.49021 0.194 0.16076 0.0
C751 C 0.51567 0.11453 0.10995 0.0
C752 C 0.50369 0.12203 0.13573 0.0
H753 H 0.47466 0.14214 0.15333 0.0
C754 C 0.52008 0.12652 0.1405 0.0
C755 C 0.48711 0.12804 0.14037 0.0
C756 C 0.46911 0.12482 0.13549 0.0
C757 C 0.52035 0.1365 0.14981 0.0
C758 C 0.50375 0.14175 0.15455 0.0
C759 C 0.48736 0.1377 0.14974 0.0
C760 C 0.50326 0.15281 0.16435 0.0
C761 C 0.53842 0.14188 0.15444 0.0
C762 C 0.5106 0.13612 0.17171 0.0
C763 C 0.5116 0.1479 0.18076 0.0
C764 C 0.50525 0.17662 0.18264 0.0
C765 C 0.49706 0.19263 0.17534 0.0
C766 C 0.49604 0.18081 0.16631 0.0
H767 H 0.54964 0.14333 0.14925 0.0
H768 H 0.53814 0.16258 0.15861 0.0
H769 H 0.54143 0.12332 0.15926 0.0
H770 H 0.51595 0.11422 0.17039 0.0
H771 H 0.51794 0.13492 0.18621 0.0
H772 H 0.82519 0.05956 0.17241 0.0
H773 H 0.82518 0.08481 0.15729 0.0
H774 H 0.76973 0.11167 0.16188 0.0
H775 H 0.76977 0.08718 0.17709 0.0
H776 H 0.80465 0.07212 0.14242 0.0
H777 H 0.7916 0.18782 0.15292 0.0
H778 H 0.79804 0.15976 0.16123 0.0
H779 H 0.77482 0.16299 0.15748 0.0
C780 C 0.8131 0.07136 0.1703 0.0
C781 C 0.7975 0.0714 0.176 0.0
C782 C 0.8131 0.08569 0.16162 0.0
C783 C 0.79751 0.10041 0.15845 0.0
C784 C 0.78206 0.10108 0.16423 0.0
H785 H 0.7673 0.13692 0.10091 0.0
H786 H 0.77275 0.11437 0.11619 0.0
C787 C 0.78209 0.08695 0.17294 0.0
C788 C 0.79702 0.11333 0.14887 0.0
H789 H 0.787 0.17621 0.13677 0.0
C790 C 0.80095 0.09497 0.14119 0.0
C791 C 0.79241 0.14322 0.14724 0.0
C792 C 0.78917 0.16466 0.15516 0.0
C793 C 0.79999 0.10546 0.13194 0.0
C794 C 0.79452 0.13496 0.1303 0.0
C795 C 0.79101 0.1535 0.13799 0.0
C796 C 0.79225 0.14717 0.1207 0.0
C797 C 0.80509 0.08489 0.12405 0.0
C798 C 0.80128 0.17324 0.11811 0.0
C799 C 0.79802 0.18635 0.10942 0.0
C800 C 0.78566 0.17369 0.10309 0.0
C801 C 0.77706 0.14707 0.10556 0.0
C802 C 0.78022 0.13408 0.1143 0.0
H803 H 0.81418 0.06693 0.12649 0.0
H804 H 0.79262 0.07448 0.12123 0.0
H805 H 0.81196 0.09695 0.11828 0.0
H806 H 0.81062 0.18379 0.1229 0.0
H807 H 0.80488 0.20685 0.10776 0.0
H808 H 0.55289 0.77596 0.8692 0.0
H809 H 0.55612 0.80544 0.8834 0.0
H810 H 0.52843 0.87795 0.87009 0.0
H811 H 0.5258 0.8487 0.85565 0.0
H812 H 0.55544 0.89777 0.88105 0.0
H813 H 0.51459 0.81719 0.90115 0.0
H814 H 0.5343 0.80043 0.89604 0.0
H815 H 0.51687 0.8153 0.8886 0.0
C816 C 0.54768 0.79834 0.86925 0.0
C817 C 0.53895 0.80996 0.86134 0.0
C818 C 0.5494 0.81509 0.87741 0.0
C819 C 0.54197 0.84358 0.87795 0.0
C820 C 0.53409 0.85588 0.86989 0.0
H821 H 0.51574 0.92916 0.93083 0.0
H822 H 0.51542 0.90245 0.91599 0.0
C823 C 0.53265 0.83923 0.86163 0.0
C824 C 0.54201 0.85996 0.887 0.0
H825 H 0.5301 0.85373 0.91005 0.0
C826 C 0.54982 0.88821 0.88738 0.0
C827 C 0.53434 0.8478 0.89525 0.0
C828 C 0.52438 0.81867 0.89524 0.0
C829 C 0.55052 0.90433 0.8958 0.0
C830 C 0.54371 0.89149 0.90416 0.0
C831 C 0.5356 0.86346 0.90371 0.0
C832 C 0.54423 0.90702 0.91336 0.0
C833 C 0.55813 0.93526 0.89559 0.0
C834 C 0.56061 0.91784 0.91703 0.0
C835 C 0.5608 0.93345 0.9255 0.0
C836 C 0.54467 0.93804 0.93059 0.0
C837 C 0.52844 0.92597 0.92712 0.0
C838 C 0.52822 0.91075 0.9186 0.0
H839 H 0.5575 0.94488 0.88844 0.0
H840 H 0.55068 0.95006 0.90046 0.0
H841 H 0.57259 0.93467 0.8977 0.0
H842 H 0.57326 0.91442 0.91332 0.0
H843 H 0.57356 0.94226 0.928 0.0
H844 H 0.27555 0.93199 0.85857 0.0
H845 H 0.2755 0.90693 0.87369 0.0
H846 H 0.21888 0.9281 0.87736 0.0
H847 H 0.21893 0.95391 0.86234 0.0
H848 H 0.2377 0.94206 0.89264 0.0
H849 H 0.25608 0.82839 0.88202 0.0
H850 H 0.27218 0.85514 0.87792 0.0
H851 H 0.24921 0.85607 0.87369 0.0
C852 C 0.26297 0.93084 0.86249 0.0
C853 C 0.24723 0.94496 0.8592 0.0
C854 C 0.26295 0.91637 0.87115 0.0
C855 C 0.24713 0.91527 0.87666 0.0
C856 C 0.23126 0.92859 0.87326 0.0
H857 H 0.23879 0.80658 0.92693 0.0
H858 H 0.23418 0.82913 0.91159 0.0
C859 C 0.23129 0.94325 0.86463 0.0
C860 C 0.24743 0.90201 0.88621 0.0
H861 H 0.25875 0.83967 0.89831 0.0
C862 C 0.24216 0.91957 0.89387 0.0
C863 C 0.25303 0.87256 0.88784 0.0
C864 C 0.25777 0.85185 0.87992 0.0
C865 C 0.24271 0.90877 0.90309 0.0
C866 C 0.24913 0.87978 0.90475 0.0
C867 C 0.25401 0.862 0.89708 0.0
C868 C 0.25093 0.86737 0.91437 0.0
C869 C 0.23612 0.92842 0.91093 0.0
C870 C 0.26176 0.88142 0.92112 0.0
C871 C 0.26426 0.86872 0.92996 0.0
C872 C 0.25622 0.84143 0.9322 0.0
C873 C 0.24518 0.82763 0.92547 0.0
C874 C 0.24257 0.84045 0.91667 0.0
H875 H 0.22662 0.94559 0.90833 0.0
H876 H 0.22917 0.91544 0.91647 0.0
H877 H 0.2479 0.93988 0.9141 0.0
H878 H 0.26872 0.90182 0.91947 0.0
H879 H 0.27302 0.87978 0.93492 0.0
H880 H 0.49594 0.54721 0.6121 0.0
H881 H 0.49236 0.5699 0.62748 0.0
H882 H 0.51726 0.64981 0.61725 0.0
H883 H 0.52122 0.62703 0.60182 0.0
H884 H 0.53256 0.63093 0.63342 0.0
H885 H 0.45788 0.63184 0.6376 0.0
H886 H 0.46652 0.59599 0.63461 0.0
H887 H 0.46882 0.62594 0.62643 0.0
C888 C 0.50042 0.5698 0.61305 0.0
C889 C 0.5089 0.58527 0.6057 0.0
C890 C 0.49823 0.58283 0.62186 0.0
C891 C 0.50431 0.61172 0.62352 0.0
C892 C 0.51237 0.62753 0.61613 0.0
H893 H 0.48945 0.71166 0.67538 0.0
H894 H 0.4869 0.69244 0.65943 0.0
C895 C 0.51458 0.6145 0.6073 0.0
C896 C 0.50363 0.62439 0.63313 0.0
H897 H 0.47527 0.63877 0.65158 0.0
C898 C 0.52 0.63287 0.63735 0.0
C899 C 0.48724 0.6272 0.63826 0.0
C900 C 0.4691 0.62005 0.63396 0.0
C901 C 0.5205 0.64329 0.64661 0.0
C902 C 0.50423 0.64477 0.65189 0.0
C903 C 0.48777 0.63716 0.64759 0.0
C904 C 0.50413 0.65455 0.66183 0.0
C905 C 0.53847 0.6529 0.65062 0.0
C906 C 0.51404 0.63899 0.66859 0.0
C907 C 0.51554 0.64991 0.67772 0.0
C908 C 0.50705 0.67655 0.6803 0.0
C909 C 0.49621 0.69112 0.67365 0.0
C910 C 0.49475 0.6802 0.66451 0.0
H911 H 0.54855 0.65781 0.64504 0.0
H912 H 0.53685 0.67283 0.65509 0.0
H913 H 0.54402 0.63487 0.65501 0.0
H914 H 0.52105 0.61878 0.66674 0.0
H915 H 0.52389 0.63798 0.68266 0.0
H916 H 0.82775 0.56504 0.67775 0.0
H917 H 0.82902 0.59213 0.66295 0.0
H918 H 0.7715 0.60872 0.66479 0.0
H919 H 0.77025 0.58273 0.67971 0.0
H920 H 0.8134 0.58018 0.64677 0.0
H921 H 0.78908 0.68955 0.6586 0.0
H922 H 0.79541 0.66091 0.66671 0.0
H923 H 0.77322 0.66093 0.66146 0.0
C924 C 0.81543 0.57494 0.67509 0.0
C925 C 0.79893 0.57191 0.67998 0.0
C926 C 0.81616 0.5903 0.6666 0.0
C927 C 0.80041 0.60287 0.66278 0.0
C928 C 0.78395 0.6 0.66768 0.0
H929 H 0.78422 0.64941 0.60395 0.0
H930 H 0.78682 0.6229 0.61886 0.0
C931 C 0.78325 0.58499 0.67622 0.0
C932 C 0.80102 0.61778 0.65348 0.0
H933 H 0.78894 0.68102 0.64211 0.0
C934 C 0.8082 0.60235 0.64577 0.0
C935 C 0.79446 0.64685 0.65215 0.0
C936 C 0.78779 0.66563 0.66019 0.0
C937 C 0.80873 0.61495 0.63678 0.0
C938 C 0.80138 0.64349 0.63537 0.0
C939 C 0.79443 0.65904 0.64312 0.0
C940 C 0.80102 0.65816 0.62603 0.0
C941 C 0.81753 0.59774 0.62894 0.0
C942 C 0.80795 0.68688 0.62506 0.0
C943 C 0.80611 0.7022 0.61664 0.0
C944 C 0.7975 0.68906 0.60893 0.0
C945 C 0.79116 0.65991 0.60974 0.0
C946 C 0.79271 0.64471 0.61826 0.0
H947 H 0.82731 0.5812 0.63165 0.0
H948 H 0.80691 0.58562 0.62501 0.0
H949 H 0.82479 0.61257 0.624 0.0
H950 H 0.81446 0.69778 0.6309 0.0
H951 H 0.81117 0.72463 0.61622 0.0
H952 H 0.52283 0.42891 0.43052 0.0
H953 H 0.52527 0.39984 0.41613 0.0
H954 H 0.57399 0.44698 0.4086 0.0
H955 H 0.57153 0.47643 0.42289 0.0
H956 H 0.54964 0.44468 0.39418 0.0
H957 H 0.55948 0.33288 0.4091 0.0
H958 H 0.53976 0.35155 0.41354 0.0
H959 H 0.56196 0.36607 0.41598 0.0
C960 C 0.53424 0.43279 0.42589 0.0
C961 C 0.54701 0.45501 0.4279 0.0
C962 C 0.53564 0.41606 0.41766 0.0
C963 C 0.54991 0.421 0.41131 0.0
C964 C 0.56287 0.44273 0.41339 0.0
H965 H 0.57713 0.30707 0.36419 0.0
H966 H 0.57773 0.33731 0.37835 0.0
C967 C 0.56147 0.45948 0.4216 0.0
C968 C 0.55086 0.40464 0.40227 0.0
H969 H 0.55328 0.33542 0.39279 0.0
C970 C 0.55051 0.42079 0.39388 0.0
C971 C 0.5522 0.37348 0.40186 0.0
C972 C 0.55355 0.35495 0.41059 0.0
C973 C 0.55117 0.40665 0.38511 0.0
C974 C 0.55192 0.37545 0.3847 0.0
C975 C 0.55257 0.35933 0.39309 0.0
C976 C 0.55212 0.35898 0.37567 0.0
C977 C 0.55135 0.42531 0.37637 0.0
C978 C 0.53763 0.36132 0.36935 0.0
C979 C 0.5373 0.34414 0.36119 0.0
C980 C 0.55138 0.32405 0.35922 0.0
C981 C 0.56607 0.32232 0.36545 0.0
C982 C 0.56641 0.33953 0.37359 0.0
H983 H 0.55579 0.44829 0.37786 0.0
H984 H 0.56048 0.41572 0.37097 0.0
H985 H 0.53744 0.42628 0.37345 0.0
H986 H 0.52628 0.37573 0.37087 0.0
H987 H 0.52568 0.34586 0.3566 0.0
H988 H 0.23697 0.45735 0.36041 0.0
H989 H 0.23182 0.43517 0.37577 0.0
H990 H 0.26837 0.36416 0.36869 0.0
H991 H 0.27311 0.38572 0.35318 0.0
H992 H 0.23991 0.34361 0.37815 0.0
H993 H 0.26706 0.44092 0.39699 0.0
H994 H 0.24808 0.44985 0.38971 0.0
H995 H 0.26887 0.43694 0.38447 0.0
C996 C 0.24378 0.43684 0.36208 0.0
C997 C 0.25556 0.42342 0.35557 0.0
C998 C 0.24095 0.42432 0.37092 0.0
C999 C 0.25012 0.39843 0.37353 0.0
C1000 C 0.26127 0.38429 0.36689 0.0
H1001 H 0.27045 0.33616 0.42991 0.0
H1002 H 0.27125 0.3602 0.41461 0.0
C1003 C 0.26393 0.39661 0.358 0.0
C1004 C 0.2483 0.38627 0.38318 0.0
H1005 H 0.25337 0.4037 0.40632 0.0
C1006 C 0.24287 0.35676 0.38431 0.0
C1007 C 0.25246 0.40322 0.39124 0.0
C1008 C 0.25962 0.43438 0.39056 0.0
C1009 C 0.24137 0.34381 0.39322 0.0
C1010 C 0.24487 0.36109 0.40129 0.0
C1011 C 0.25042 0.39055 0.40017 0.0
C1012 C 0.24368 0.34863 0.41094 0.0
C1013 C 0.23663 0.31144 0.39385 0.0
C1014 C 0.2277 0.33509 0.41417 0.0
C1015 C 0.22725 0.32106 0.4229 0.0
C1016 C 0.24268 0.32076 0.42867 0.0
C1017 C 0.2583 0.33598 0.42567 0.0
C1018 C 0.2588 0.34968 0.41689 0.0
H1019 H 0.23951 0.2997 0.38717 0.0
H1020 H 0.24431 0.30043 0.39953 0.0
H1021 H 0.22193 0.30912 0.39535 0.0
H1022 H 0.21565 0.33479 0.40986 0.0
H1023 H 0.21495 0.30979 0.42502 0.0
H1024 H 0.02198 0.1245 0.60322 0.0
H1025 H 1.01951 0.14504 0.61904 0.0
H1026 H 0.9928 0.06565 0.62839 0.0
H1027 H 0.99505 0.04503 0.61262 0.0
H1028 H 0.97708 0.11815 0.63558 0.0
H1029 H 0.05174 0.11544 0.64065 0.0
H1030 H 0.04434 0.13533 0.63049 0.0
H1031 H 0.04067 0.09617 0.6312 0.0
C1032 C 1.01536 0.11153 0.60861 0.0
C1033 C 1.00883 0.083 0.60664 0.0
C1034 C 1.01408 0.12324 0.61767 0.0
C1035 C 1.00627 0.10666 0.62495 0.0
C1036 C 0.99899 0.07877 0.62291 0.0
H1037 H 0.02277 0.13428 0.68471 0.0
H1038 H 1.0201 0.11311 0.66899 0.0
C1039 C 1.0003 0.06702 0.61387 0.0
C1040 C 1.00624 0.11783 0.63475 0.0
H1041 H 0.0343 0.13762 0.65269 0.0
C1042 C 0.98958 0.12243 0.63933 0.0
C1043 C 0.02256 0.12291 0.63969 0.0
C1044 C 0.04086 0.11699 0.63531 0.0
C1045 C 0.98881 0.13248 0.64865 0.0
C1046 C 1.00514 0.13834 0.6535 0.0
C1047 C 0.02178 0.13326 0.64896 0.0
C1048 C 1.00535 0.15013 0.66323 0.0
C1049 C 0.97053 0.1363 0.65327 0.0
C1050 C 0.99781 0.17788 0.66526 0.0
C1051 C 0.9993 0.19003 0.67424 0.0
C1052 C 1.00843 0.17476 0.68139 0.0
C1053 C 1.01557 0.14661 0.6794 0.0
C1054 C 1.01412 0.13452 0.6704 0.0
H1055 H 0.95981 0.12355 0.6496 0.0
H1056 H 0.97093 0.12921 0.6607 0.0
H1057 H 0.96668 0.15998 0.65308 0.0
H1058 H 0.99127 0.19061 0.65982 0.0
H1059 H 0.9937 0.2118 0.67549 0.0
H1060 H 0.29726 0.21688 0.6121 0.0
H1061 H 0.30026 0.19573 0.62773 0.0
H1062 H 0.27161 0.11779 0.61872 0.0
H1063 H 0.26833 0.13895 0.60305 0.0
H1064 H 0.25765 0.14178 0.63504 0.0
H1065 H 0.33229 0.12962 0.63784 0.0
H1066 H 0.32508 0.16596 0.63447 0.0
H1067 H 0.32099 0.13522 0.62679 0.0
C1068 C 0.29184 0.19501 0.61338 0.0
C1069 C 0.28254 0.17963 0.60629 0.0
C1070 C 0.29365 0.18288 0.62233 0.0
C1071 C 0.28632 0.15503 0.6244 0.0
C1072 C 0.27744 0.13928 0.61728 0.0
H1073 H 0.2984 0.04895 0.67444 0.0
H1074 H 0.30052 0.07081 0.65886 0.0
C1075 C 0.27564 0.15137 0.60831 0.0
C1076 C 0.28679 0.1433 0.63413 0.0
H1077 H 0.31529 0.12377 0.65191 0.0
C1078 C 0.27026 0.13776 0.63872 0.0
C1079 C 0.30324 0.13789 0.63892 0.0
C1080 C 0.32142 0.1422 0.63424 0.0
C1081 C 0.26971 0.12728 0.64797 0.0
C1082 C 0.28614 0.12262 0.65285 0.0
C1083 C 0.30269 0.12777 0.64822 0.0
C1084 C 0.28635 0.11096 0.66258 0.0
C1085 C 0.25152 0.12071 0.65237 0.0
C1086 C 0.27823 0.12671 0.66997 0.0
C1087 C 0.27701 0.11427 0.67893 0.0
C1088 C 0.2839 0.08584 0.68068 0.0
C1089 C 0.29284 0.07082 0.67336 0.0
C1090 C 0.29409 0.08329 0.66443 0.0
H1091 H 0.24061 0.11894 0.64706 0.0
H1092 H 0.25199 0.09981 0.65642 0.0
H1093 H 0.24787 0.13883 0.65726 0.0
H1094 H 0.27247 0.14836 0.66875 0.0
H1095 H 0.27008 0.1265 0.68439 0.0
H1096 H 1.01725 0.87781 0.35238 0.0
H1097 H 1.01759 0.90195 0.36772 0.0
H1098 H 0.04524 0.82675 0.37942 0.0
H1099 H 0.04517 0.80267 0.36413 0.0
H1100 H 1.0011 0.88106 0.38376 0.0
H1101 H 0.07482 0.89527 0.38978 0.0
H1102 H 0.06555 0.88718 0.37839 0.0
H1103 H 0.06853 0.85813 0.38681 0.0
C1104 C 0.02374 0.86664 0.35816 0.0
C1105 C 0.03122 0.83828 0.35698 0.0
C1106 C 0.02384 0.88043 0.36696 0.0
C1107 C 0.03158 0.86632 0.37474 0.0
C1108 C 0.03949 0.83837 0.37352 0.0
H1109 H 1.00556 0.90126 0.43342 0.0
H1110 H 1.0096 0.87904 0.41791 0.0
C1111 C 0.03937 0.82455 0.36475 0.0
C1112 C 0.03027 0.87985 0.38423 0.0
H1113 H 0.05544 0.90246 0.40299 0.0
C1114 C 1.01299 0.88587 0.38794 0.0
C1115 C 0.04578 0.88633 0.38968 0.0
C1116 C 0.06473 0.88168 0.38594 0.0
C1117 C 1.01077 0.89772 0.39698 0.0
C1118 C 0.02625 0.90331 0.40255 0.0
C1119 C 0.04356 0.89781 0.39878 0.0
C1120 C 0.02474 0.9158 0.41217 0.0
C1121 C 0.99186 0.90461 0.40042 0.0
C1122 C 0.03246 0.94337 0.41424 0.0
C1123 C 0.03026 0.95605 0.42311 0.0
C1124 C 1.02037 0.94137 0.43016 0.0
C1125 C 1.01318 0.91326 0.42817 0.0
C1126 C 1.01538 0.90061 0.41927 0.0
H1127 H 0.98202 0.90598 0.39456 0.0
H1128 H 0.9873 0.88682 0.40521 0.0
H1129 H 0.99159 0.9258 0.40433 0.0
H1130 H 0.03983 0.95545 0.4089 0.0
H1131 H 0.03606 0.97766 0.42438 0.0
H1132 H 0.72799 0.83295 0.42308 0.0
H1133 H 0.73226 0.84308 0.40657 0.0
H1134 H 0.78374 0.79782 0.40709 0.0
H1135 H 0.77959 0.78789 0.42392 0.0
H1136 H 0.78695 0.85165 0.39955 0.0
H1137 H 0.72883 0.79802 0.38259 0.0
H1138 H 0.7208 0.8193 0.39232 0.0
H1139 H 0.73585 0.78853 0.3943 0.0
C1140 C 0.7401 0.82458 0.41968 0.0
C1141 C 0.7535 0.80973 0.42482 0.0
C1142 C 0.74242 0.83011 0.41016 0.0
C1143 C 0.75817 0.8208 0.40549 0.0
C1144 C 0.77137 0.80493 0.41052 0.0
H1145 H 0.76082 0.89453 0.34789 0.0
H1146 H 0.76194 0.85653 0.3602 0.0
C1147 C 0.76898 0.79919 0.42011 0.0
C1148 C 0.76153 0.83145 0.39578 0.0
H1149 H 0.73927 0.8443 0.37524 0.0
C1150 C 0.77677 0.84933 0.39414 0.0
C1151 C 0.74851 0.82808 0.38858 0.0
C1152 C 0.73271 0.80713 0.38952 0.0
C1153 C 0.7784 0.86606 0.38591 0.0
C1154 C 0.76424 0.86545 0.37924 0.0
C1155 C 0.74992 0.84538 0.38044 0.0
C1156 C 0.7631 0.88781 0.37164 0.0
C1157 C 0.795 0.88514 0.38462 0.0
C1158 C 0.7627 0.91788 0.374 0.0
C1159 C 0.76205 0.93942 0.36705 0.0
C1160 C 0.76155 0.93151 0.35754 0.0
C1161 C 0.76119 0.90134 0.35515 0.0
C1162 C 0.76192 0.87963 0.36217 0.0
H1163 H 0.80691 0.87552 0.38826 0.0
H1164 H 0.79842 0.88798 0.3771 0.0
H1165 H 0.79241 0.90724 0.38771 0.0
H1166 H 0.76299 0.92476 0.38126 0.0
H1167 H 0.76212 0.9624 0.36916 0.0
H1168 H 0.02263 0.63946 0.18507 0.0
H1169 H 1.01966 0.61785 0.16942 0.0
H1170 H 0.99048 0.69493 0.1602 0.0
H1171 H 0.9932 0.71657 0.1758 0.0
H1172 H 0.97579 0.64137 0.15343 0.0
H1173 H 0.05009 0.64863 0.14721 0.0
H1174 H 0.0436 0.62854 0.15752 0.0
H1175 H 0.039 0.66743 0.15679 0.0
C1176 C 1.01533 0.65164 0.17976 0.0
C1177 C 1.00828 0.67989 0.1817 0.0
C1178 C 1.01377 0.63934 0.17079 0.0
C1179 C 1.00515 0.65502 0.16358 0.0
C1180 C 0.99729 0.6825 0.16563 0.0
H1181 H 1.01988 0.62826 0.10366 0.0
H1182 H 1.01726 0.64917 0.11942 0.0
C1183 C 0.99888 0.69485 0.17457 0.0
C1184 C 1.00495 0.64351 0.15382 0.0
H1185 H 0.03265 0.62544 0.13546 0.0
C1186 C 0.98821 0.63783 0.1495 0.0
C1187 C 0.02115 0.63943 0.14863 0.0
C1188 C 0.0395 0.64654 0.15271 0.0
C1189 C 0.98727 0.62773 0.1402 0.0
C1190 C 1.00351 0.62292 0.13509 0.0
C1191 C 1.02021 0.629 0.13937 0.0
C1192 C 1.00357 0.61125 0.12534 0.0
C1193 C 0.9689 0.62278 0.13585 0.0
C1194 C 0.99658 0.58309 0.12338 0.0
C1195 C 0.99803 0.57109 0.11438 0.0
C1196 C 1.00659 0.58693 0.10712 0.0
C1197 C 1.01313 0.61548 0.10904 0.0
C1198 C 1.01171 0.62744 0.11807 0.0
H1199 H 0.95805 0.63484 0.13969 0.0
H1200 H 0.9688 0.62992 0.12842 0.0
H1201 H 0.96561 0.59888 0.13608 0.0
H1202 H 0.99054 0.56993 0.12889 0.0
H1203 H 0.99291 0.54899 0.11318 0.0
H1204 H 0.2985 0.55043 0.17556 0.0
H1205 H 0.30136 0.5711 0.15986 0.0
H1206 H 0.27304 0.6495 0.16884 0.0
H1207 H 0.26992 0.62883 0.1846 0.0
H1208 H 0.25886 0.62498 0.15264 0.0
H1209 H 0.33349 0.63686 0.14942 0.0
H1210 H 0.32629 0.60067 0.15297 0.0
H1211 H 0.32223 0.63173 0.16055 0.0
C1212 C 0.29311 0.57229 0.17426 0.0
C1213 C 0.28398 0.58796 0.18138 0.0
C1214 C 0.29485 0.58414 0.16527 0.0
C1215 C 0.28758 0.61199 0.16317 0.0
C1216 C 0.27882 0.62801 0.1703 0.0
H1217 H 0.29962 0.71475 0.11229 0.0
H1218 H 0.30165 0.69438 0.12807 0.0
C1219 C 0.27711 0.6162 0.17932 0.0
C1220 C 0.288 0.62342 0.15341 0.0
H1221 H 0.31643 0.64191 0.13538 0.0
C1222 C 0.27145 0.62879 0.14888 0.0
C1223 C 0.30443 0.62856 0.14852 0.0
C1224 C 0.32263 0.62444 0.15313 0.0
C1225 C 0.27087 0.63876 0.13958 0.0
C1226 C 0.28729 0.64308 0.13459 0.0
C1227 C 0.30386 0.63818 0.13916 0.0
C1228 C 0.28746 0.65391 0.12476 0.0
C1229 C 0.25267 0.64511 0.13522 0.0
C1230 C 0.27935 0.6375 0.11755 0.0
C1231 C 0.27819 0.64908 0.10848 0.0
C1232 C 0.28514 0.6773 0.10645 0.0
C1233 C 0.29404 0.69301 0.1136 0.0
C1234 C 0.29522 0.6814 0.12264 0.0
H1235 H 0.2418 0.64733 0.14058 0.0
H1236 H 0.25316 0.6657 0.13101 0.0
H1237 H 0.24895 0.62665 0.13049 0.0
H1238 H 0.27358 0.61598 0.11899 0.0
H1239 H 0.27129 0.63632 0.10316 0.0
H1240 H 1.01934 0.33682 0.8585 0.0
H1241 H 1.01943 0.36087 0.8738 0.0
H1242 H 0.07586 0.33837 0.87725 0.0
H1243 H 0.07575 0.31352 0.86205 0.0
H1244 H 0.05699 0.32396 0.89246 0.0
H1245 H 0.03914 0.43843 0.88267 0.0
H1246 H 0.02287 0.41222 0.87845 0.0
H1247 H 0.04584 0.41118 0.87412 0.0
C1248 C 0.03189 0.33748 0.86242 0.0
C1249 C 0.04756 0.32326 0.85901 0.0
C1250 C 0.03193 0.35136 0.87118 0.0
C1251 C 0.04771 0.3518 0.87668 0.0
C1252 C 0.06352 0.3384 0.87316 0.0
H1253 H 0.05554 0.45774 0.92761 0.0
H1254 H 0.06047 0.43592 0.91217 0.0
C1255 C 0.06345 0.32429 0.86443 0.0
C1256 C 0.04742 0.36447 0.88632 0.0
H1257 H 0.03621 0.42613 0.89888 0.0
C1258 C 0.0526 0.3464 0.89385 0.0
C1259 C 0.04191 0.39387 0.88817 0.0
C1260 C 0.03731 0.41514 0.88042 0.0
C1261 C 0.05204 0.35664 0.90314 0.0
C1262 C 0.04568 0.38556 0.90503 0.0
C1263 C 0.0409 0.40385 0.89748 0.0
C1264 C 0.04383 0.39738 0.91474 0.0
C1265 C 0.05855 0.33645 0.91082 0.0
C1266 C 0.03299 0.38289 0.92143 0.0
C1267 C 0.03033 0.39517 0.93034 0.0
C1268 C 0.0382 0.42247 0.9327 0.0
C1269 C 0.04928 0.43667 0.92605 0.0
C1270 C 0.05207 0.42426 0.91718 0.0
H1271 H 0.06809 0.31949 0.90809 0.0
H1272 H 0.06542 0.34904 0.91646 0.0
H1273 H 0.04674 0.32474 0.91391 0.0
H1274 H 0.0261 0.36253 0.91967 0.0
H1275 H 0.02153 0.38381 0.93523 0.0
H1276 H 0.77394 0.37093 0.93294 0.0
H1277 H 0.76963 0.39318 0.91752 0.0
H1278 H 0.73521 0.32051 0.90952 0.0
H1279 H 0.73921 0.2983 0.92494 0.0
H1280 H 0.78039 0.36708 0.90109 0.0
H1281 H 0.70669 0.39131 0.89994 0.0
H1282 H 0.7185 0.38376 0.91072 0.0
H1283 H 0.71191 0.35394 0.90315 0.0
C1284 C 0.7651 0.35999 0.92799 0.0
C1285 C 0.75695 0.33277 0.9302 0.0
C1286 C 0.76271 0.3727 0.91915 0.0
C1287 C 0.75202 0.35862 0.91236 0.0
C1288 C 0.74326 0.33208 0.91468 0.0
H1289 H 0.76565 0.38591 0.85216 0.0
H1290 H 0.76281 0.36382 0.86774 0.0
C1291 C 0.74563 0.31934 0.92351 0.0
C1292 C 0.75139 0.37031 0.90264 0.0
H1293 H 0.72281 0.39454 0.8855 0.0
C1294 C 0.7678 0.37317 0.8977 0.0
C1295 C 0.73497 0.37837 0.89822 0.0
C1296 C 0.71702 0.37698 0.9033 0.0
C1297 C 0.76824 0.38366 0.88845 0.0
C1298 C 0.75179 0.39103 0.88394 0.0
C1299 C 0.73538 0.38848 0.88891 0.0
C1300 C 0.75155 0.40294 0.87425 0.0
C1301 C 0.7864 0.38743 0.88368 0.0
C1302 C 0.74536 0.43177 0.87263 0.0
C1303 C 0.74684 0.44437 0.86373 0.0
C1304 C 0.7545 0.42837 0.85624 0.0
C1305 C 0.75977 0.39891 0.85777 0.0
C1306 C 0.75828 0.38632 0.86669 0.0
H1307 H 0.79776 0.38743 0.88877 0.0
H1308 H 0.78859 0.36886 0.87873 0.0
H1309 H 0.78686 0.40835 0.87964 0.0
H1310 H 0.74002 0.44495 0.87834 0.0
H1311 H 0.74254 0.46705 0.86281 0.0
H1312 H 0.34067 0.78847 0.09095 0.0
H1313 H 0.37055 0.81164 0.0909 0.0
H1314 H 0.34556 0.89765 0.09024 0.0
H1315 H 0.31554 0.87467 0.09018 0.0
H1316 H 0.38591 0.85032 0.07758 0.0
H1317 H 0.38047 0.90317 0.11257 0.0
H1318 H 0.36523 0.87438 0.10877 0.0
H1319 H 0.36224 0.91158 0.1047 0.0
C1320 C 0.34144 0.8123 0.09072 0.0
C1321 C 0.32559 0.82965 0.09059 0.0
C1322 C 0.35859 0.82552 0.09074 0.0
C1323 C 0.36029 0.85636 0.0907 0.0
C1324 C 0.34456 0.8738 0.09047 0.0
H1325 H 0.45197 0.97662 0.09139 0.0
H1326 H 0.42199 0.95387 0.09088 0.0
C1327 C 0.32738 0.8606 0.09045 0.0
C1328 C 0.37857 0.87018 0.09075 0.0
H1329 H 0.40631 0.91526 0.10346 0.0
C1330 C 0.39041 0.86444 0.08325 0.0
C1331 C 0.38439 0.88863 0.09814 0.0
C1332 C 0.37251 0.89468 0.10655 0.0
C1333 C 0.40782 0.87705 0.08287 0.0
C1334 C 0.41368 0.89542 0.09029 0.0
C1335 C 0.40181 0.90118 0.09778 0.0
C1336 C 0.43203 0.90902 0.09041 0.0
C1337 C 0.41963 0.87112 0.07443 0.0
C1338 C 0.44769 0.89138 0.0904 0.0
C1339 C 0.46493 0.90435 0.09061 0.0
C1340 C 0.46687 0.93527 0.0909 0.0
C1341 C 0.45109 0.95282 0.091 0.0
C1342 C 0.43389 0.93983 0.09078 0.0
H1343 H 0.41153 0.86343 0.06835 0.0
H1344 H 0.42727 0.89122 0.07235 0.0
H1345 H 0.42957 0.85358 0.07615 0.0
H1346 H 0.4466 0.86753 0.0903 0.0
H1347 H 0.47671 0.89012 0.09047 0.0
H1348 H 0.84043 0.28602 0.08971 0.0
H1349 H 0.87057 0.30846 0.08977 0.0
H1350 H 0.84636 0.39501 0.09116 0.0
H1351 H 0.81615 0.37279 0.09102 0.0
H1352 H 0.88597 0.34898 0.07723 0.0
H1353 H 0.88202 0.39582 0.11308 0.0
H1354 H 0.86629 0.3683 0.10889 0.0
H1355 H 0.86361 0.40635 0.1056 0.0
C1356 C 0.84145 0.30983 0.08996 0.0
C1357 C 0.82577 0.32755 0.0904 0.0
C1358 C 0.85873 0.32262 0.09004 0.0
C1359 C 0.86073 0.35338 0.09062 0.0
C1360 C 0.84516 0.37118 0.09093 0.0
H1361 H 0.95158 0.47458 0.09174 0.0
H1362 H 0.92183 0.45097 0.09135 0.0
C1363 C 0.82787 0.35842 0.09085 0.0
C1364 C 0.87912 0.36683 0.09075 0.0
H1365 H 0.90729 0.41018 0.10381 0.0
C1366 C 0.89069 0.36223 0.08306 0.0
C1367 C 0.88524 0.38412 0.09836 0.0
C1368 C 0.87373 0.38878 0.10699 0.0
C1369 C 0.90806 0.375 0.08268 0.0
C1370 C 0.91415 0.3924 0.09028 0.0
C1371 C 0.9026 0.39687 0.09799 0.0
C1372 C 0.93235 0.4065 0.09034 0.0
C1373 C 0.91956 0.37039 0.07405 0.0
C1374 C 0.94821 0.38934 0.08999 0.0
C1375 C 0.9653 0.40282 0.09014 0.0
C1376 C 0.9669 0.43375 0.09069 0.0
C1377 C 0.95094 0.4508 0.09114 0.0
C1378 C 0.93388 0.43731 0.09099 0.0
H1379 H 0.91131 0.36302 0.06799 0.0
H1380 H 0.92682 0.39099 0.0721 0.0
H1381 H 0.92984 0.35309 0.07548 0.0
H1382 H 0.94737 0.36549 0.08966 0.0
H1383 H 0.97724 0.38899 0.08973 0.0
H1384 H 0.45833 0.31086 0.21145 0.0
H1385 H 0.4282 0.3335 0.21166 0.0
H1386 H 0.43982 0.37648 0.18541 0.0
H1387 H 0.47 0.3541 0.18519 0.0
H1388 H 0.42361 0.41379 0.19774 0.0
H1389 H 0.38503 0.30882 0.19606 0.0
H1390 H 0.40044 0.31061 0.20574 0.0
H1391 H 0.40916 0.31062 0.19396 0.0
C1392 C 0.45444 0.32496 0.20569 0.0
C1393 C 0.46658 0.33049 0.19828 0.0
C1394 C 0.43717 0.33785 0.20581 0.0
C1395 C 0.43158 0.35625 0.19846 0.0
C1396 C 0.44379 0.36227 0.19115 0.0
H1397 H 0.3209 0.40865 0.18568 0.0
H1398 H 0.35112 0.3864 0.18596 0.0
C1399 C 0.4611 0.34954 0.19105 0.0
C1400 C 0.41309 0.3695 0.19842 0.0
H1401 H 0.36793 0.35238 0.19893 0.0
C1402 C 0.41144 0.40036 0.19798 0.0
C1403 C 0.39718 0.35197 0.1986 0.0
C1404 C 0.39798 0.31867 0.19852 0.0
C1405 C 0.39436 0.41417 0.19782 0.0
C1406 C 0.37845 0.39669 0.19832 0.0
C1407 C 0.3801 0.36581 0.19865 0.0
C1408 C 0.35997 0.40994 0.19831 0.0
C1409 C 0.39354 0.44734 0.1969 0.0
C1410 C 0.35471 0.43019 0.20526 0.0
C1411 C 0.33743 0.443 0.2051 0.0
C1412 C 0.32493 0.43557 0.19806 0.0
C1413 C 0.33009 0.41472 0.19124 0.0
C1414 C 0.34741 0.40205 0.19137 0.0
H1415 H 0.40636 0.45647 0.19398 0.0
H1416 H 0.38215 0.45419 0.19232 0.0
H1417 H 0.39141 0.45727 0.20391 0.0
H1418 H 0.36395 0.43603 0.21083 0.0
H1419 H 0.3338 0.45852 0.21056 0.0
H1420 H 0.82575 0.91808 0.17924 0.0
H1421 H 0.85546 0.89461 0.18045 0.0
H1422 H 0.86126 0.92845 0.20847 0.0
H1423 H 0.83145 0.95181 0.20738 0.0
H1424 H 0.89172 0.93816 0.19733 0.0
H1425 H 0.86993 0.82109 0.19532 0.0
H1426 H 0.86163 0.84361 0.18592 0.0
H1427 H 0.85429 0.85086 0.19771 0.0
C1428 C 0.83315 0.92018 0.18573 0.0
C1429 C 0.82608 0.93687 0.19322 0.0
C1430 C 0.85019 0.90672 0.1864 0.0
C1431 C 0.86051 0.90945 0.19459 0.0
C1432 C 0.85352 0.926 0.20209 0.0
H1433 H 0.95815 0.8091 0.2078 0.0
H1434 H 0.92792 0.8313 0.20783 0.0
C1435 C 0.83648 0.93947 0.20143 0.0
C1436 C 0.87887 0.89599 0.1952 0.0
H1437 H 0.9016 0.83034 0.19387 0.0
C1438 C 0.89387 0.91457 0.19661 0.0
C1439 C 0.88166 0.86517 0.19439 0.0
C1440 C 0.86603 0.84395 0.19334 0.0
C1441 C 0.91161 0.90325 0.19702 0.0
C1442 C 0.91446 0.87255 0.19586 0.0
C1443 C 0.89943 0.8539 0.19467 0.0
C1444 C 0.93294 0.85936 0.19586 0.0
C1445 C 0.92712 0.92423 0.19881 0.0
C1446 C 0.94579 0.86751 0.18907 0.0
C1447 C 0.96309 0.85475 0.189 0.0
C1448 C 0.9679 0.83338 0.1957 0.0
C1449 C 0.95492 0.82519 0.20248 0.0
C1450 C 0.93763 0.83797 0.20253 0.0
H1451 H 0.92236 0.94526 0.20199 0.0
H1452 H 0.93736 0.91412 0.2035 0.0
H1453 H 0.93387 0.92957 0.19207 0.0
H1454 H 0.94236 0.88348 0.18373 0.0
H1455 H 0.97255 0.86125 0.18358 0.0
H1456 H 0.71861 0.17649 0.95926 0.0
H1457 H 0.68907 0.15204 0.96112 0.0
H1458 H 0.68335 0.14838 0.93113 0.0
H1459 H 0.71265 0.17241 0.92923 0.0
H1460 H 0.65527 0.16919 0.95546 0.0
H1461 H 0.67314 0.0638 0.93815 0.0
H1462 H 0.69006 0.09035 0.94166 0.0
H1463 H 0.67798 0.09495 0.93082 0.0
C1464 C 0.71107 0.17034 0.95307 0.0
C1465 C 0.71817 0.17605 0.9441 0.0
C1466 C 0.69421 0.15633 0.95414 0.0
C1467 C 0.68415 0.14774 0.94626 0.0
C1468 C 0.69109 0.15389 0.93731 0.0
H1469 H 0.57813 0.08468 0.932 0.0
H1470 H 0.60843 0.10653 0.93288 0.0
C1471 C 0.70791 0.16768 0.93625 0.0
C1472 C 0.66612 0.13329 0.94727 0.0
H1473 H 0.64133 0.07394 0.93987 0.0
C1474 C 0.65229 0.14816 0.95217 0.0
C1475 C 0.66222 0.10575 0.94302 0.0
C1476 C 0.67669 0.08764 0.9382 0.0
C1477 C 0.63452 0.13684 0.95256 0.0
C1478 C 0.63052 0.10998 0.94796 0.0
C1479 C 0.64442 0.0947 0.94331 0.0
C1480 C 0.61186 0.09775 0.94764 0.0
C1481 C 0.61996 0.15411 0.95759 0.0
C1482 C 0.60376 0.08556 0.95565 0.0
C1483 C 0.58643 0.07297 0.95516 0.0
C1484 C 0.57684 0.07248 0.94666 0.0
C1485 C 0.58498 0.08504 0.93868 0.0
C1486 C 0.60235 0.09737 0.93916 0.0
H1487 H 0.62471 0.17639 0.95974 0.0
H1488 H 0.60786 0.1566 0.95305 0.0
H1489 H 0.61569 0.14188 0.96395 0.0
H1490 H 0.61095 0.08542 0.96224 0.0
H1491 H 0.5805 0.06368 0.96144 0.0
H1492 H 0.22068 0.65988 0.93513 0.0
H1493 H 0.1907 0.6368 0.93544 0.0
H1494 H 0.17724 0.68563 0.96043 0.0
H1495 H 0.20718 0.70887 0.96015 0.0
H1496 H 0.17418 0.60214 0.94864 0.0
H1497 H 0.13485 0.70521 0.94344 0.0
H1498 H 0.15908 0.7034 0.9417 0.0
H1499 H 0.1498 0.70646 0.95332 0.0
C1500 C 0.21141 0.66559 0.94073 0.0
C1501 C 0.21634 0.68643 0.94758 0.0
C1502 C 0.19423 0.65245 0.94088 0.0
C1503 C 0.18157 0.65987 0.94786 0.0
C1504 C 0.18658 0.68013 0.95483 0.0
H1505 H 0.08354 0.55921 0.96089 0.0
H1506 H 0.11348 0.5825 0.96123 0.0
C1507 C 0.20373 0.69338 0.95467 0.0
C1508 C 0.16324 0.64614 0.94788 0.0
H1509 H 0.11795 0.66208 0.94708 0.0
C1510 C 0.16188 0.61524 0.94829 0.0
C1511 C 0.14719 0.66322 0.94729 0.0
C1512 C 0.14773 0.69639 0.94632 0.0
C1513 C 0.14494 0.60096 0.94822 0.0
C1514 C 0.12888 0.61808 0.94792 0.0
C1515 C 0.13025 0.64897 0.94741 0.0
C1516 C 0.11054 0.60437 0.94786 0.0
C1517 C 0.14444 0.56765 0.94825 0.0
C1518 C 0.09866 0.60962 0.94039 0.0
C1519 C 0.08149 0.59647 0.94021 0.0
C1520 C 0.07579 0.57778 0.94751 0.0
C1521 C 0.08761 0.57301 0.95507 0.0
C1522 C 0.10475 0.58628 0.95527 0.0
H1523 H 0.1576 0.55801 0.94597 0.0
H1524 H 0.14163 0.55979 0.95546 0.0
H1525 H 0.13358 0.5592 0.9436 0.0
H1526 H 0.1028 0.62356 0.93461 0.0
H1527 H 0.07286 0.60044 0.93424 0.0
H1528 H 0.56864 0.646 0.83559 0.0
H1529 H 0.59907 0.62505 0.8363 0.0
H1530 H 0.62033 0.70939 0.84497 0.0
H1531 H 0.58982 0.73029 0.84467 0.0
H1532 H 0.62915 0.64078 0.82631 0.0
H1533 H 0.64222 0.65466 0.86428 0.0
H1534 H 0.6199 0.65864 0.8593 0.0
H1535 H 0.63609 0.68822 0.85842 0.0
C1536 C 0.57967 0.66006 0.83782 0.0
C1537 C 0.57662 0.68991 0.84012 0.0
C1538 C 0.59713 0.64805 0.83815 0.0
C1539 C 0.61198 0.6655 0.84081 0.0
C1540 C 0.60905 0.6953 0.84308 0.0
H1541 H 0.72813 0.62782 0.84398 0.0
H1542 H 0.69847 0.65204 0.84364 0.0
C1543 C 0.59157 0.70734 0.84278 0.0
C1544 C 0.63055 0.65266 0.84089 0.0
H1545 H 0.66703 0.63881 0.85493 0.0
C1546 C 0.6374 0.64029 0.83258 0.0
C1547 C 0.64136 0.65211 0.84906 0.0
C1548 C 0.63449 0.66386 0.8583 0.0
C1549 C 0.65476 0.62753 0.8322 0.0
C1550 C 0.6655 0.62681 0.84038 0.0
C1551 C 0.65878 0.63947 0.84866 0.0
C1552 C 0.68352 0.61216 0.84054 0.0
C1553 C 0.66157 0.61521 0.82303 0.0
C1554 C 0.68493 0.58164 0.83903 0.0
C1555 C 0.70183 0.56766 0.83929 0.0
C1556 C 0.71775 0.58389 0.84109 0.0
C1557 C 0.71623 0.61451 0.84265 0.0
C1558 C 0.69927 0.62846 0.84242 0.0
H1559 H 0.65379 0.624 0.81699 0.0
H1560 H 0.67616 0.62041 0.82198 0.0
H1561 H 0.66004 0.59083 0.82307 0.0
H1562 H 0.67289 0.56853 0.83775 0.0
H1563 H 0.70229 0.54403 0.83824 0.0
H1564 H 0.0665 0.14527 0.84428 0.0
H1565 H 0.09646 0.12162 0.84403 0.0
H1566 H 0.12168 0.2063 0.83954 0.0
H1567 H 0.09187 0.2301 0.83984 0.0
H1568 H 0.125 0.12718 0.82854 0.0
H1569 H 0.14642 0.16794 0.86355 0.0
H1570 H 0.12286 0.16518 0.86023 0.0
H1571 H 0.13666 0.19449 0.85567 0.0
C1572 C 0.07843 0.15885 0.84327 0.0
C1573 C 0.07678 0.18957 0.84208 0.0
C1574 C 0.09551 0.1453 0.84308 0.0
C1575 C 0.11126 0.16226 0.84183 0.0
C1576 C 0.10968 0.19286 0.84057 0.0
H1577 H 0.22678 0.12377 0.84404 0.0
H1578 H 0.19689 0.14724 0.84336 0.0
C1579 C 0.09262 0.20639 0.84067 0.0
C1580 C 0.12938 0.14803 0.84187 0.0
H1581 H 0.16813 0.14162 0.85472 0.0
C1582 C 0.13444 0.13021 0.83426 0.0
C1583 C 0.14167 0.15227 0.84931 0.0
C1584 C 0.1367 0.17084 0.85771 0.0
C1585 C 0.15164 0.11682 0.83384 0.0
C1586 C 0.16391 0.12071 0.84136 0.0
C1587 C 0.15877 0.1386 0.84896 0.0
C1588 C 0.18209 0.10636 0.84153 0.0
C1589 C 0.15666 0.09934 0.82521 0.0
C1590 C 0.18377 0.07554 0.84082 0.0
C1591 C 0.20085 0.06212 0.84115 0.0
C1592 C 0.21663 0.07918 0.84235 0.0
C1593 C 0.2149 0.11 0.84317 0.0
C1594 C 0.19782 0.12344 0.84276 0.0
H1595 H 0.14836 0.10598 0.81909 0.0
H1596 H 0.17121 0.10219 0.8234 0.0
H1597 H 0.15411 0.07556 0.82654 0.0
H1598 H 0.17183 0.06177 0.84016 0.0
H1599 H 0.20167 0.0383 0.84069 0.0
H1600 H 0.46925 0.4132 0.60451 0.0
H1601 H 0.43916 0.39061 0.60406 0.0
H1602 H 0.43162 0.42319 0.57599 0.0
H1603 H 0.46161 0.44645 0.57651 0.0
H1604 H 0.40206 0.43232 0.58607 0.0
H1605 H 0.42342 0.31641 0.59127 0.0
H1606 H 0.43108 0.33996 0.60054 0.0
H1607 H 0.43942 0.34555 0.58881 0.0
C1608 C 0.46128 0.41523 0.5982 0.0
C1609 C 0.46788 0.43146 0.59052 0.0
C1610 C 0.44407 0.40221 0.59793 0.0
C1611 C 0.4332 0.40461 0.58991 0.0
C1612 C 0.43975 0.42089 0.58224 0.0
H1613 H 0.33664 0.29763 0.58013 0.0
H1614 H 0.367 0.31947 0.57992 0.0
C1615 C 0.45688 0.43423 0.58255 0.0
C1616 C 0.41478 0.39105 0.58964 0.0
H1617 H 0.39178 0.32636 0.59302 0.0
C1618 C 0.39984 0.4091 0.58753 0.0
C1619 C 0.41183 0.36063 0.5914 0.0
C1620 C 0.42731 0.33946 0.59303 0.0
C1621 C 0.38209 0.39777 0.5873 0.0
C1622 C 0.37905 0.36768 0.58951 0.0
C1623 C 0.39402 0.3495 0.59145 0.0
C1624 C 0.36053 0.35446 0.58971 0.0
C1625 C 0.36684 0.4181 0.58447 0.0
C1626 C 0.34678 0.36648 0.59539 0.0
C1627 C 0.32936 0.35416 0.59546 0.0
C1628 C 0.3254 0.32916 0.58999 0.0
C1629 C 0.33929 0.31671 0.58448 0.0
C1630 C 0.35664 0.32926 0.58433 0.0
H1631 H 0.37191 0.43704 0.58027 0.0
H1632 H 0.35643 0.4062 0.58032 0.0
H1633 H 0.36026 0.42717 0.59084 0.0
H1634 H 0.34953 0.38533 0.59983 0.0
H1635 H 0.31904 0.36394 0.59988 0.0
H1636 H 0.84804 0.77635 0.57639 0.0
H1637 H 0.87763 0.80079 0.5772 0.0
H1638 H 0.85588 0.86379 0.59693 0.0
H1639 H 0.82619 0.83987 0.59593 0.0
H1640 H 0.87527 0.89121 0.58418 0.0
H1641 H 0.91545 0.79648 0.59709 0.0
H1642 H 0.9041 0.78836 0.58632 0.0
H1643 H 0.891 0.79589 0.59671 0.0
C1644 C 0.84966 0.7952 0.58098 0.0
C1645 C 0.8348 0.80613 0.58612 0.0
C1646 C 0.8666 0.80911 0.58147 0.0
C1647 C 0.86915 0.83387 0.58726 0.0
C1648 C 0.85432 0.84472 0.59242 0.0
H1649 H 0.97353 0.90691 0.60364 0.0
H1650 H 0.94444 0.88109 0.60275 0.0
C1651 C 0.83733 0.83107 0.59183 0.0
C1652 C 0.88704 0.84917 0.58771 0.0
H1653 H 0.9322 0.83835 0.59186 0.0
C1654 C 0.8877 0.87964 0.5859 0.0
C1655 C 0.90327 0.83425 0.59009 0.0
C1656 C 0.90344 0.80202 0.59276 0.0
C1657 C 0.90406 0.89552 0.58631 0.0
C1658 C 0.92041 0.88037 0.58831 0.0
C1659 C 0.91974 0.84995 0.59021 0.0
C1660 C 0.93827 0.89576 0.58871 0.0
C1661 C 0.90352 0.92852 0.58487 0.0
C1662 C 0.94472 0.91225 0.58106 0.0
C1663 C 0.96128 0.92729 0.5816 0.0
C1664 C 0.97195 0.92565 0.58972 0.0
C1665 C 0.96572 0.90844 0.59726 0.0
C1666 C 0.94905 0.89372 0.59677 0.0
H1667 H 0.88978 0.93764 0.58626 0.0
H1668 H 0.91336 0.93999 0.58948 0.0
H1669 H 0.90704 0.93357 0.57749 0.0
H1670 H 0.93697 0.91347 0.57466 0.0
H1671 H 0.96586 0.93996 0.57563 0.0
H1672 H 0.47389 0.86485 0.68871 0.0
H1673 H 0.4436 0.88711 0.68825 0.0
H1674 H 0.42258 0.81514 0.70481 0.0
H1675 H 0.45267 0.79249 0.70503 0.0
H1676 H 0.40018 0.82689 0.69114 0.0
H1677 H 0.41814 0.93239 0.70836 0.0
H1678 H 0.43132 0.92595 0.69799 0.0
H1679 H 0.43357 0.90153 0.70786 0.0
C1680 C 0.4628 0.85392 0.69229 0.0
C1681 C 0.46566 0.82695 0.69691 0.0
C1682 C 0.44551 0.86672 0.69207 0.0
C1683 C 0.43081 0.85315 0.69666 0.0
C1684 C 0.43366 0.82611 0.70123 0.0
H1685 H 0.32835 0.94148 0.70921 0.0
H1686 H 0.35825 0.91798 0.70995 0.0
C1687 C 0.45087 0.81311 0.70133 0.0
C1688 C 0.41237 0.86662 0.69653 0.0
H1689 H 0.38893 0.93002 0.7013 0.0
C1690 C 0.39773 0.8494 0.69341 0.0
C1691 C 0.40903 0.89584 0.69965 0.0
C1692 C 0.42381 0.91489 0.70375 0.0
C1693 C 0.37996 0.86063 0.69319 0.0
C1694 C 0.37677 0.8903 0.69588 0.0
C1695 C 0.39136 0.90739 0.69913 0.0
C1696 C 0.35841 0.90402 0.69545 0.0
C1697 C 0.36477 0.84026 0.6903 0.0
C1698 C 0.34855 0.90427 0.68706 0.0
C1699 C 0.33137 0.91734 0.68667 0.0
C1700 C 0.32385 0.93104 0.69462 0.0
C1701 C 0.33384 0.93121 0.70298 0.0
C1702 C 0.35091 0.91776 0.7034 0.0
H1703 H 0.36843 0.81672 0.69141 0.0
H1704 H 0.35211 0.84503 0.69426 0.0
H1705 H 0.36203 0.84326 0.68274 0.0
H1706 H 0.35423 0.8947 0.68075 0.0
H1707 H 0.32418 0.91739 0.68008 0.0
H1708 H 0.82523 0.41764 0.68237 0.0
H1709 H 0.85478 0.39346 0.68327 0.0
H1710 H 0.86136 0.42541 0.71148 0.0
H1711 H 0.83176 0.44961 0.71066 0.0
H1712 H 0.89167 0.43482 0.70058 0.0
H1713 H 0.86874 0.31867 0.69733 0.0
H1714 H 0.86084 0.34207 0.68807 0.0
H1715 H 0.85334 0.34862 0.69988 0.0
C1716 C 0.83279 0.41917 0.68883 0.0
C1717 C 0.82602 0.43556 0.69645 0.0
C1718 C 0.84972 0.4053 0.68933 0.0
C1719 C 0.8602 0.40727 0.69749 0.0
C1720 C 0.8535 0.42355 0.70512 0.0
H1721 H 0.95628 0.30187 0.7095 0.0
H1722 H 0.92636 0.32512 0.70971 0.0
C1723 C 0.83659 0.43747 0.70462 0.0
C1724 C 0.87843 0.39327 0.69795 0.0
H1725 H 0.90051 0.32722 0.69588 0.0
C1726 C 0.8936 0.41127 0.69959 0.0
C1727 C 0.88092 0.36248 0.69679 0.0
C1728 C 0.86509 0.34176 0.69551 0.0
C1729 C 0.91122 0.39944 0.69991 0.0
C1730 C 0.91377 0.36883 0.69839 0.0
C1731 C 0.89856 0.35073 0.69695 0.0
C1732 C 0.9321 0.3551 0.69831 0.0
C1733 C 0.9269 0.4198 0.70202 0.0
C1734 C 0.94527 0.364 0.69177 0.0
C1735 C 0.9624 0.3507 0.69162 0.0
C1736 C 0.9667 0.32799 0.69795 0.0
C1737 C 0.95342 0.31903 0.70446 0.0
C1738 C 0.93631 0.3324 0.70462 0.0
H1739 H 0.92229 0.4404 0.70552 0.0
H1740 H 0.93705 0.40879 0.70655 0.0
H1741 H 0.93367 0.42605 0.69536 0.0
H1742 H 0.9422 0.38098 0.68669 0.0
H1743 H 0.97214 0.35782 0.68641 0.0
H1744 H 0.55095 0.63768 0.44251 0.0
H1745 H 0.57708 0.67043 0.44435 0.0
H1746 H 0.60945 0.59694 0.45367 0.0
H1747 H 0.58354 0.56388 0.45162 0.0
H1748 H 0.59757 0.68257 0.4605 0.0
H1749 H 0.64042 0.63268 0.43262 0.0
H1750 H 0.61641 0.6254 0.43361 0.0
H1751 H 0.63215 0.60711 0.44123 0.0
C1752 C 0.56365 0.62837 0.44486 0.0
C1753 C 0.56509 0.59802 0.44686 0.0
C1754 C 0.57857 0.64719 0.44596 0.0
C1755 C 0.59531 0.6361 0.44902 0.0
C1756 C 0.59676 0.60593 0.45115 0.0
H1757 H 0.70104 0.71775 0.45833 0.0
H1758 H 0.67543 0.68357 0.45719 0.0
C1759 C 0.58184 0.58709 0.45007 0.0
C1760 C 0.61114 0.65621 0.45007 0.0
H1761 H 0.65406 0.6696 0.44198 0.0
C1762 C 0.60991 0.67979 0.45643 0.0
C1763 C 0.62727 0.6525 0.4448 0.0
C1764 C 0.62918 0.62823 0.43762 0.0
C1765 C 0.62441 0.69954 0.45774 0.0
C1766 C 0.64048 0.69603 0.45239 0.0
C1767 C 0.64176 0.67231 0.44608 0.0
C1768 C 0.656 0.71694 0.45313 0.0
C1769 C 0.62251 0.72365 0.46497 0.0
C1770 C 0.65371 0.74704 0.4511 0.0
C1771 C 0.66835 0.76664 0.45173 0.0
C1772 C 0.68569 0.75656 0.45431 0.0
C1773 C 0.68797 0.7263 0.45623 0.0
C1774 C 0.67331 0.70672 0.45563 0.0
H1775 H 0.61185 0.71832 0.47022 0.0
H1776 H 0.63551 0.72745 0.46868 0.0
H1777 H 0.61857 0.7445 0.46145 0.0
H1778 H 0.64062 0.75536 0.44893 0.0
H1779 H 0.66611 0.78962 0.45002 0.0
H1780 H 0.07679 0.06627 0.45987 0.0
H1781 H 0.10733 0.0874 0.46063 0.0
H1782 H 0.09735 0.13557 0.43516 0.0
H1783 H 0.0669 0.1146 0.43435 0.0
H1784 H 0.13584 0.08348 0.44826 0.0
H1785 H 0.11522 0.20039 0.45249 0.0
H1786 H 0.0995 0.17015 0.45391 0.0
H1787 H 0.10541 0.18313 0.4424 0.0
C1788 C 0.08109 0.08129 0.45441 0.0
C1789 C 0.06926 0.08885 0.44708 0.0
C1790 C 0.09855 0.09345 0.45488 0.0
C1791 C 0.10456 0.11351 0.44805 0.0
C1792 C 0.09289 0.12077 0.44066 0.0
H1793 H 0.215 0.16379 0.43411 0.0
H1794 H 0.18488 0.1415 0.43495 0.0
C1795 C 0.07543 0.10872 0.4402 0.0
C1796 C 0.12316 0.12631 0.4485 0.0
H1797 H 0.14638 0.19165 0.44892 0.0
C1798 C 0.13814 0.10713 0.44846 0.0
C1799 C 0.1262 0.15716 0.4489 0.0
C1800 C 0.11074 0.17892 0.44953 0.0
C1801 C 0.15603 0.11796 0.44855 0.0
C1802 C 0.15906 0.14885 0.44853 0.0
C1803 C 0.14408 0.168 0.44883 0.0
C1804 C 0.17764 0.16179 0.44815 0.0
C1805 C 0.17152 0.0962 0.44879 0.0
C1806 C 0.18355 0.18114 0.4552 0.0
C1807 C 0.2008 0.19402 0.45473 0.0
C1808 C 0.21254 0.18798 0.44717 0.0
C1809 C 0.20654 0.16858 0.44012 0.0
C1810 C 0.18928 0.15576 0.44059 0.0
H1811 H 0.16708 0.07433 0.45146 0.0
H1812 H 0.17683 0.09299 0.44158 0.0
H1813 H 0.18277 0.10441 0.45323 0.0
H1814 H 0.1748 0.18621 0.46109 0.0
H1815 H 0.20498 0.20857 0.46033 0.0
H1816 H 0.70363 0.03916 0.32808 0.0
H1817 H 0.67415 0.064 0.32812 0.0
H1818 H 0.69111 0.11787 0.35138 0.0
H1819 H 0.72051 0.09308 0.35145 0.0
H1820 H 0.64792 0.06829 0.34213 0.0
H1821 H 0.67368 0.17921 0.33247 0.0
H1822 H 0.68725 0.14622 0.33132 0.0
H1823 H 0.68461 0.16372 0.34254 0.0
C1824 C 0.70109 0.05614 0.33325 0.0
C1825 C 0.71459 0.06419 0.33972 0.0
C1826 C 0.68423 0.07044 0.33324 0.0
C1827 C 0.68051 0.09319 0.33965 0.0
C1828 C 0.69381 0.10091 0.34622 0.0
H1829 H 0.57694 0.1659 0.35689 0.0
H1830 H 0.60545 0.13891 0.35542 0.0
C1831 C 0.71065 0.08667 0.34624 0.0
C1832 C 0.66265 0.10854 0.33958 0.0
H1833 H 0.64297 0.17661 0.33765 0.0
C1834 C 0.64682 0.09195 0.3411 0.0
C1835 C 0.66118 0.13936 0.3381 0.0
C1836 C 0.67756 0.15817 0.33592 0.0
C1837 C 0.62964 0.10543 0.34143 0.0
C1838 C 0.62826 0.13643 0.34035 0.0
C1839 C 0.64404 0.1529 0.33857 0.0
C1840 C 0.61061 0.15226 0.34113 0.0
C1841 C 0.6131 0.08631 0.34285 0.0
C1842 C 0.60412 0.16929 0.33365 0.0
C1843 C 0.58775 0.18482 0.33447 0.0
C1844 C 0.57754 0.18384 0.34281 0.0
C1845 C 0.58416 0.1668 0.3503 0.0
C1846 C 0.60052 0.15129 0.34947 0.0
H1847 H 0.61582 0.06293 0.34094 0.0
H1848 H 0.60907 0.08694 0.35033 0.0
H1849 H 0.60151 0.09441 0.33862 0.0
H1850 H 0.61169 0.17046 0.32715 0.0
H1851 H 0.58305 0.19741 0.32852 0.0
H1852 H 0.22253 0.60371 0.35435 0.0
H1853 H 0.19249 0.62654 0.35428 0.0
H1854 H 0.18003 0.58198 0.32842 0.0
H1855 H 0.21006 0.55903 0.32844 0.0
H1856 H 0.17598 0.66321 0.34155 0.0
H1857 H 0.13745 0.55853 0.34505 0.0
H1858 H 0.16162 0.56065 0.3469 0.0
H1859 H 0.15268 0.55926 0.33522 0.0
C1860 C 0.21349 0.59892 0.3486 0.0
C1861 C 0.21872 0.57932 0.34144 0.0
C1862 C 0.19626 0.61191 0.3486 0.0
C1863 C 0.18386 0.60557 0.34144 0.0
C1864 C 0.18918 0.58662 0.33415 0.0
H1865 H 0.08484 0.70523 0.32995 0.0
H1866 H 0.11513 0.68328 0.32931 0.0
C1867 C 0.20638 0.57353 0.33417 0.0
C1868 C 0.16541 0.6189 0.34161 0.0
H1869 H 0.12025 0.60183 0.34219 0.0
C1870 C 0.16379 0.6498 0.3417 0.0
C1871 C 0.1495 0.60139 0.34193 0.0
C1872 C 0.15033 0.56812 0.34236 0.0
C1873 C 0.14673 0.66366 0.342 0.0
C1874 C 0.13081 0.64615 0.34205 0.0
C1875 C 0.13244 0.61525 0.34206 0.0
C1876 C 0.11234 0.6594 0.34234 0.0
C1877 C 0.14593 0.69693 0.34247 0.0
C1878 C 0.10046 0.65269 0.34974 0.0
C1879 C 0.08309 0.6651 0.3501 0.0
C1880 C 0.07718 0.68449 0.34305 0.0
C1881 C 0.08904 0.69086 0.33558 0.0
C1882 C 0.1064 0.67834 0.33521 0.0
H1883 H 0.15899 0.70653 0.34486 0.0
H1884 H 0.14305 0.7058 0.3354 0.0
H1885 H 0.13498 0.70439 0.34728 0.0
H1886 H 0.10472 0.63808 0.35531 0.0
H1887 H 0.07443 0.6599 0.356 0.0
H1888 H 0.49665 0.01177 0.05973 0.0
H1889 H 0.49645 1.00094 0.04295 0.0
H1890 H 0.5432 0.05685 0.03905 0.0
H1891 H 0.54367 0.06751 0.05582 0.0
H1892 H 0.49429 0.03635 0.02695 0.0
H1893 H 0.56037 0.97774 0.02839 0.0
H1894 H 0.54771 0.9875 0.03877 0.0
H1895 H 0.56097 0.01492 0.03276 0.0
C1896 C 0.50676 0.0221 0.0553 0.0
C1897 C 0.52028 0.04032 0.05916 0.0
C1898 C 0.50665 0.0158 0.0457 0.0
C1899 C 0.52008 0.02749 0.03977 0.0
C1900 C 0.53298 0.04696 0.04352 0.0
H1901 H 0.54498 1.00713 0.98045 0.0
H1902 H 0.54513 0.01979 0.99712 0.0
C1903 C 0.53313 0.05324 0.05311 0.0
C1904 C 0.52083 0.01875 0.02974 0.0
H1905 H 0.54765 0.98485 1.01336 0.0
C1906 C 0.50593 0.02502 0.02399 0.0
C1907 C 0.53604 1.00392 0.02586 0.0
C1908 C 0.55213 0.99534 0.03177 0.0
C1909 C 0.50592 0.01732 1.01445 0.0
C1910 C 0.52111 1.00243 1.01059 0.0
C1911 C 0.53604 0.99625 1.01632 0.0
C1912 C 0.52171 0.99313 1.0006 0.0
C1913 C 0.4898 0.02574 1.00855 0.0
C1914 C 0.5089 0.97312 0.99707 0.0
C1915 C 0.50879 0.96577 0.98756 0.0
C1916 C 0.52157 0.97817 0.98136 0.0
C1917 C 0.53492 0.99718 0.98501 0.0
C1918 C 0.53501 1.00451 0.99453 0.0
H1919 H 0.48159 0.04344 1.01189 0.0
H1920 H 0.49418 0.03336 1.00151 0.0
H1921 H 0.48094 1.00614 1.00763 0.0
H1922 H 0.49878 0.9635 1.00166 0.0
H1923 H 0.49838 0.95094 0.98503 0.0
H1924 H 0.76759 0.21192 0.05588 0.0
H1925 H 0.76345 0.21035 0.03883 0.0
H1926 H 0.78022 0.30142 0.03691 0.0
H1927 H 0.78386 0.3033 0.05383 0.0
H1928 H 0.74923 0.29265 0.02776 0.0
H1929 H 0.79894 0.20664 1.01722 0.0
H1930 H 0.7828 0.1948 0.02588 0.0
H1931 H 0.79892 0.2232 0.02871 0.0
C1932 C 0.77071 0.23138 0.05178 0.0
C1933 C 0.77601 0.25774 0.0562 0.0
C1934 C 0.76837 0.23047 0.04203 0.0
C1935 C 0.77159 0.25575 0.03655 0.0
C1936 C 0.77755 0.28166 0.04096 0.0
H1937 H 0.78381 0.27398 0.97672 0.0
H1938 H 0.78733 0.27012 0.99366 0.0
C1939 C 0.77968 0.28268 0.05066 0.0
C1940 C 0.76783 0.25623 0.0263 0.0
H1941 H 0.77963 0.22501 1.00537 0.0
C1942 C 0.75587 0.2778 0.02286 0.0
C1943 C 0.77657 0.23704 0.0199 0.0
C1944 C 0.79015 0.21428 0.02308 0.0
C1945 C 0.75262 0.28103 1.01324 0.0
C1946 C 0.76117 0.2616 1.00683 0.0
C1947 C 0.77298 0.23979 1.01027 0.0
C1948 C 0.7587 0.26436 0.99652 0.0
C1949 C 0.74055 0.30593 1.01002 0.0
C1950 C 0.74141 0.26247 0.99244 0.0
C1951 C 0.73932 0.26505 0.98273 0.0
C1952 C 0.75451 0.26912 0.97688 0.0
C1953 C 0.7718 0.27092 0.981 0.0
C1954 C 0.77385 0.26858 0.9907 0.0
H1955 H 0.73911 0.32332 1.01546 0.0
H1956 H 0.74593 0.31626 1.00354 0.0
H1957 H 0.72682 0.2971 1.00851 0.0
H1958 H 0.72954 0.25858 0.99675 0.0
H1959 H 0.72584 0.26319 0.97979 0.0
H1960 H 0.49706 0.25623 0.23047 0.0
H1961 H 0.49772 0.26672 0.24727 0.0
H1962 H 0.54182 0.20518 0.25063 0.0
H1963 H 0.54146 0.19486 0.23385 0.0
H1964 H 0.49411 0.23137 0.26317 0.0
H1965 H 0.5628 0.28136 0.26145 0.0
H1966 H 0.54962 0.27352 0.25112 0.0
H1967 H 0.56162 0.24435 0.25697 0.0
C1968 C 0.50677 0.24464 0.23479 0.0
C1969 C 0.51933 0.22488 0.23077 0.0
C1970 C 0.50715 0.25073 0.2444 0.0
C1971 C 0.52011 0.23729 0.25018 0.0
C1972 C 0.53201 0.21641 0.24628 0.0
H1973 H 0.54677 0.25215 0.3094 0.0
H1974 H 0.54593 0.23987 0.2927 0.0
C1975 C 0.53168 0.21034 0.23667 0.0
C1976 C 0.52141 0.24556 0.26025 0.0
H1977 H 0.55003 0.27513 0.27656 0.0
C1978 C 0.50631 0.24102 0.26609 0.0
C1979 C 0.53734 0.2582 0.26406 0.0
C1980 C 0.55373 0.26493 0.25807 0.0
C1981 C 0.50681 0.24829 0.27566 0.0
C1982 C 0.52274 0.26095 0.27947 0.0
C1983 C 0.53785 0.26542 0.27364 0.0
C1984 C 0.52393 0.26974 0.28948 0.0
C1985 C 0.4904 0.24178 0.28165 0.0
C1986 C 0.51226 0.29133 0.29317 0.0
C1987 C 0.51273 0.29848 0.3027 0.0
C1988 C 0.52495 0.28427 0.30875 0.0
C1989 C 0.53716 0.26352 0.30496 0.0
C1990 C 0.53668 0.2564 0.29541 0.0
H1991 H 0.48128 0.22539 0.27829 0.0
H1992 H 0.49447 0.23327 0.28861 0.0
H1993 H 0.48258 0.26245 0.28272 0.0
H1994 H 0.50259 0.30243 0.28869 0.0
H1995 H 0.50319 0.31467 0.30535 0.0
H1996 H 0.75054 0.06364 0.23093 0.0
H1997 H 0.75098 0.05082 0.24754 0.0
H1998 H 0.79607 0.99211 0.24264 0.0
H1999 H 0.79588 1.00501 0.22603 0.0
H2000 H 0.74556 0.99443 0.2548 0.0
H2001 H 0.81253 0.03852 0.26563 0.0
H2002 H 0.80167 0.04934 0.25486 0.0
H2003 H 0.81337 0.0146 0.25561 0.0
C2004 C 0.76078 0.04839 0.2334 0.0
C2005 C 0.7732 0.0354 0.22712 0.0
C2006 C 0.76096 0.041 0.2429 0.0
C2007 C 0.77362 0.02065 0.24636 0.0
C2008 C 0.78636 0.00825 0.24017 0.0
H2009 H 0.79231 0.93988 0.30065 0.0
H2010 H 0.79203 0.95234 0.28401 0.0
C2011 C 0.7862 0.01561 0.23066 0.0
C2012 C 0.77276 0.01109 0.25631 0.0
H2013 H 0.79716 0.00793 0.27656 0.0
C2014 C 0.75681 0.99751 0.25957 0.0
C2015 C 0.78747 0.01498 0.26252 0.0
C2016 C 0.80468 0.03038 0.25953 0.0
C2017 C 0.75527 0.98732 0.26883 0.0
C2018 C 0.76997 0.99126 0.27505 0.0
C2019 C 0.78592 1.00481 0.27178 0.0
C2020 C 0.76905 0.98189 0.28502 0.0
C2021 C 0.73807 0.97182 0.2718 0.0
C2022 C 0.75607 0.99405 0.29113 0.0
C2023 C 0.75612 0.98684 0.30065 0.0
C2024 C 0.76927 0.9675 0.30429 0.0
C2025 C 0.78195 0.95477 0.2981 0.0
C2026 C 0.78187 0.96197 0.28858 0.0
H2027 H 0.7304 0.9633 0.26569 0.0
H2028 H 0.74105 0.95312 0.27657 0.0
H2029 H 0.72921 0.98769 0.27558 0.0
H2030 H 0.74626 0.0099 0.28859 0.0
H2031 H 0.74625 0.99726 0.30521 0.0
H2032 H 0.29282 0.81518 0.98371 0.0
H2033 H 0.29246 0.8027 1.00035 0.0
H2034 H 0.24453 0.74978 0.99623 0.0
H2035 H 0.24491 0.7618 0.97953 0.0
H2036 H 0.26674 0.81017 1.01447 0.0
H2037 H 0.27992 0.69114 1.00803 0.0
H2038 H 0.28244 0.71874 0.99902 0.0
H2039 H 0.26027 0.70544 1.00218 0.0
C2040 C 0.28206 0.80114 0.98634 0.0
C2041 C 0.26898 0.78932 0.98024 0.0
C2042 C 0.28191 0.79397 0.99587 0.0
C2043 C 0.26872 0.77475 0.99951 0.0
C2044 C 0.2551 0.76408 0.99354 0.0
H2045 H 0.24808 0.701 0.05461 0.0
H2046 H 0.24837 0.71313 0.03794 0.0
C2047 C 0.25524 0.77122 0.984 0.0
C2048 C 0.26949 0.76552 1.0095 0.0
H2049 H 0.27414 0.7053 0.02372 0.0
C2050 C 0.26841 0.78726 1.01649 0.0
C2051 C 0.27173 0.7356 1.01214 0.0
C2052 C 0.27383 0.71137 1.00496 0.0
C2053 C 0.26915 0.77987 0.02604 0.0
C2054 C 0.27139 0.74995 0.02868 0.0
C2055 C 0.27246 0.72821 0.02169 0.0
C2056 C 0.27224 0.74078 0.03867 0.0
C2057 C 0.26708 0.8041 0.03322 0.0
C2058 C 0.28598 0.75138 0.04458 0.0
C2059 C 0.28589 0.74443 0.05414 0.0
C2060 C 0.27208 0.72663 0.05797 0.0
C2061 C 0.25889 0.71484 0.05192 0.0
C2062 C 0.259 0.72179 0.04238 0.0
H2063 H 0.26102 0.82435 0.03015 0.0
H2064 H 0.25846 0.79674 0.03916 0.0
H2065 H 0.28064 0.80997 0.03601 0.0
H2066 H 0.29658 0.76551 0.04184 0.0
H2067 H 0.2963 0.75382 0.05856 0.0
H2068 H 0.53284 0.72179 0.72848 0.0
H2069 H 0.53893 0.72745 0.74521 0.0
H2070 H 0.48538 0.76357 0.74933 0.0
H2071 H 0.47907 0.75763 0.73268 0.0
H2072 H 0.53911 0.7802 0.75506 0.0
H2073 H 0.4885 0.70344 0.77038 0.0
H2074 H 0.49472 0.70254 0.75815 0.0
H2075 H 0.47893 0.72973 0.7624 0.0
C2076 C 0.52222 0.73042 0.73297 0.0
C2077 C 0.50543 0.73918 0.72921 0.0
C2078 C 0.52576 0.73376 0.74253 0.0
C2079 C 0.51257 0.74571 0.74856 0.0
C2080 C 0.49566 0.75378 0.74487 0.0
H2081 H 0.50951 0.7944 0.80752 0.0
H2082 H 0.50352 0.78941 0.79076 0.0
C2083 C 0.49209 0.75045 0.73532 0.0
C2084 C 0.51686 0.7514 0.75857 0.0
H2085 H 0.50317 0.73623 0.78092 0.0
C2086 C 0.53132 0.77044 0.76072 0.0
C2087 C 0.50664 0.73882 0.76596 0.0
C2088 C 0.49143 0.71728 0.76414 0.0
C2089 C 0.53564 0.7776 0.77002 0.0
C2090 C 0.52541 0.76503 0.77741 0.0
C2091 C 0.51095 0.746 0.77526 0.0
C2092 C 0.52973 0.77062 0.78742 0.0
C2093 C 0.55089 0.79905 0.77186 0.0
C2094 C 0.54655 0.76208 0.79111 0.0
C2095 C 0.55006 0.765 0.80068 0.0
C2096 C 0.53676 0.77634 0.8068 0.0
C2097 C 0.52011 0.78572 0.80303 0.0
C2098 C 0.51661 0.78275 0.79345 0.0
H2099 H 0.55392 0.81279 0.76561 0.0
H2100 H 0.54758 0.81386 0.77782 0.0
H2101 H 0.56334 0.78652 0.77364 0.0
H2102 H 0.55678 0.75218 0.78664 0.0
H2103 H 0.56298 0.75738 0.80333 0.0
H2104 H 0.27792 0.05104 0.72891 0.0
H2105 H 0.27733 0.05391 0.74611 0.0
H2106 H 0.27251 0.95917 0.74765 0.0
H2107 H 0.27323 0.95608 0.73066 0.0
H2108 H 0.24899 0.03333 0.7581 0.0
H2109 H 0.3138 0.97655 0.76593 0.0
H2110 H 0.30864 0.99119 0.7545 0.0
H2111 H 0.29935 0.95631 0.75813 0.0
C2112 C 0.277 0.03084 0.73293 0.0
C2113 C 0.27566 1.00335 0.72839 0.0
C2114 C 0.2766 0.0325 0.74275 0.0
C2115 C 0.2751 1.0067 0.74818 0.0
C2116 C 0.27402 0.97932 0.74364 0.0
H2117 H 0.26446 0.96396 0.80767 0.0
H2118 H 0.26548 0.96192 0.79047 0.0
C2119 C 0.27432 0.97765 0.73389 0.0
C2120 C 0.27371 0.00813 0.75857 0.0
H2121 H 0.29335 0.98313 0.7787 0.0
C2122 C 0.25877 0.0226 0.76261 0.0
C2123 C 0.28637 0.99382 0.76445 0.0
C2124 C 0.30304 0.97881 0.76055 0.0
C2125 C 0.25597 0.02267 0.77235 0.0
C2126 C 0.26861 0.00832 0.77824 0.0
C2127 C 0.28358 0.99391 0.7742 0.0
C2128 C 0.26707 0.0093 0.78863 0.0
C2129 C 0.23924 0.03754 0.77624 0.0
C2130 C 0.26767 0.0365 0.79331 0.0
C2131 C 0.26708 0.03771 0.80307 0.0
C2132 C 0.26598 0.0117 0.80844 0.0
C2133 C 0.26519 0.98439 0.80376 0.0
C2134 C 0.26584 0.98321 0.79393 0.0
H2135 H 0.22849 0.0397 0.77085 0.0
H2136 H 0.23364 0.02513 0.78229 0.0
H2137 H 0.24284 0.06008 0.77865 0.0
H2138 H 0.26899 0.05688 0.7894 0.0
H2139 H 0.26777 0.05916 0.8064 0.0
H2140 H 0.4997 0.4544 0.48279 0.0
H2141 H 0.5003 0.46499 0.49956 0.0
H2142 H 0.5434 0.52787 0.4952 0.0
H2143 H 0.54302 0.51729 0.47838 0.0
H2144 H 0.54844 0.49062 0.51095 0.0
H2145 H 0.47993 0.54152 0.51106 0.0
H2146 H 0.48082 0.50496 0.5062 0.0
H2147 H 0.4925 0.53465 0.50041 0.0
C2148 C 0.50944 0.4703 0.48538 0.0
C2149 C 0.52124 0.48512 0.4792 0.0
C2150 C 0.50966 0.47649 0.49498 0.0
C2151 C 0.52161 0.4977 0.49861 0.0
C2152 C 0.53394 0.51161 0.49254 0.0
H2153 H 0.54298 0.56671 0.55458 0.0
H2154 H 0.54237 0.55794 0.53771 0.0
C2155 C 0.53373 0.50547 0.48292 0.0
C2156 C 0.52109 0.50555 0.50872 0.0
H2157 H 0.49367 0.53403 0.52584 0.0
C2158 C 0.53651 0.50025 0.5142 0.0
C2159 C 0.5055 0.5181 0.51296 0.0
C2160 C 0.48878 0.52542 0.50736 0.0
C2161 C 0.53662 0.50653 0.52384 0.0
C2162 C 0.52101 0.51907 0.52809 0.0
C2163 C 0.50562 0.52445 0.52259 0.0
C2164 C 0.52036 0.52637 0.53824 0.0
C2165 C 0.55329 0.4989 0.52944 0.0
C2166 C 0.50757 0.51272 0.54413 0.0
C2167 C 0.50774 0.51794 0.55379 0.0
C2168 C 0.5207 0.537 0.55777 0.0
C2169 C 0.5329 0.55173 0.55179 0.0
C2170 C 0.53268 0.54655 0.54213 0.0
H2171 H 0.56201 0.48259 0.52574 0.0
H2172 H 0.56143 0.51919 0.53057 0.0
H2173 H 0.54954 0.48977 0.53639 0.0
H2174 H 0.49782 0.49727 0.54128 0.0
H2175 H 0.49813 0.50622 0.55818 0.0
H2176 H 0.82726 0.71972 0.55091 0.0
H2177 H 0.8226 0.72117 0.53394 0.0
H2178 H 0.76758 0.69129 0.53774 0.0
H2179 H 0.77201 0.68978 0.55467 0.0
H2180 H 0.80709 0.67611 0.51968 0.0
H2181 H 0.76636 0.77774 0.52584 0.0
H2182 H 0.78224 0.76366 0.53433 0.0
H2183 H 0.76052 0.74631 0.53292 0.0
C2184 C 0.81427 0.71284 0.54814 0.0
C2185 C 0.79994 0.70496 0.55419 0.0
C2186 C 0.81167 0.71363 0.53843 0.0
C2187 C 0.79471 0.7066 0.53461 0.0
C2188 C 0.78075 0.69694 0.54056 0.0
H2189 H 0.73746 0.74028 0.48395 0.0
H2190 H 0.74821 0.72161 0.49893 0.0
C2191 C 0.78333 0.69609 0.55025 0.0
C2192 C 0.79087 0.71251 0.52459 0.0
H2193 H 0.76669 0.75868 0.51051 0.0
C2194 C 0.79832 0.69419 0.51763 0.0
C2195 C 0.77958 0.73629 0.52196 0.0
C2196 C 0.77179 0.75735 0.52912 0.0
C2197 C 0.79417 0.69845 0.5081 0.0
C2198 C 0.78251 0.72187 0.50551 0.0
C2199 C 0.7755 0.74055 0.51249 0.0
C2200 C 0.77669 0.72728 0.49569 0.0
C2201 C 0.8018 0.6774 0.50092 0.0
C2202 C 0.78915 0.73554 0.48868 0.0
C2203 C 0.78297 0.74588 0.47998 0.0
C2204 C 0.76427 0.74851 0.47827 0.0
C2205 C 0.75195 0.73852 0.48509 0.0
C2206 C 0.75808 0.7279 0.49367 0.0
H2207 H 0.80714 0.65693 0.50419 0.0
H2208 H 0.79131 0.67128 0.49571 0.0
H2209 H 0.81312 0.68832 0.49714 0.0
H2210 H 0.80355 0.73574 0.49012 0.0
H2211 H 0.79273 0.75385 0.47489 0.0
H2212 H 0.74708 0.50837 0.80911 0.0
H2213 H 0.74711 0.51877 0.79233 0.0
H2214 H 0.79222 0.45934 0.78847 0.0
H2215 H 0.79247 0.4491 0.80526 0.0
H2216 H 0.79802 0.51371 0.78034 0.0
H2217 H 0.73071 0.47009 0.76998 0.0
H2218 H 0.72981 0.49569 0.77957 0.0
H2219 H 0.74121 0.46089 0.78099 0.0
C2220 C 0.7568 0.49705 0.80468 0.0
C2221 C 0.76977 0.47787 0.80856 0.0
C2222 C 0.75677 0.50298 0.79506 0.0
C2223 C 0.76958 0.48967 0.78911 0.0
C2224 C 0.78219 0.46985 0.79292 0.0
H2225 H 0.7967 0.50579 0.72985 0.0
H2226 H 0.79669 0.49435 0.74657 0.0
C2227 C 0.78226 0.46393 0.80253 0.0
C2228 C 0.77061 0.49781 0.77903 0.0
H2229 H 0.74624 0.49951 0.75875 0.0
C2230 C 0.78674 0.51042 0.7756 0.0
C2231 C 0.75587 0.49365 0.77285 0.0
C2232 C 0.73847 0.47909 0.776 0.0
C2233 C 0.78841 0.51948 0.76623 0.0
C2234 C 0.77364 0.51541 0.76007 0.0
C2235 C 0.75753 0.50274 0.76348 0.0
C2236 C 0.7746 0.52394 0.75002 0.0
C2237 C 0.80581 0.53397 0.76307 0.0
C2238 C 0.76219 0.54438 0.74637 0.0
C2239 C 0.76213 0.55094 0.73681 0.0
C2240 C 0.77441 0.53702 0.73066 0.0
C2241 C 0.78714 0.5171 0.73438 0.0
C2242 C 0.78719 0.51057 0.74395 0.0
H2243 H 0.81379 0.54246 0.76908 0.0
H2244 H 0.81427 0.51749 0.75932 0.0
H2245 H 0.80304 0.55253 0.75821 0.0
H2246 H 0.75234 0.55494 0.75092 0.0
H2247 H 0.7521 0.5663 0.7342 0.0
H2248 H 0.28233 0.28499 0.47915 0.0
H2249 H 0.28776 0.27757 0.49585 0.0
H2250 H 0.2305 0.2645 0.50041 0.0
H2251 H 0.22488 0.27185 0.48367 0.0
H2252 H 0.27283 0.30827 0.5118 0.0
H2253 H 0.25474 0.18907 0.5114 0.0
H2254 H 0.25974 0.20947 0.50085 0.0
H2255 H 0.23818 0.21383 0.50657 0.0
C2256 C 0.27084 0.28076 0.4837 0.0
C2257 C 0.25316 0.2789 0.48004 0.0
C2258 C 0.27399 0.27649 0.49325 0.0
C2259 C 0.25959 0.26998 0.49935 0.0
C2260 C 0.24185 0.269 0.4958 0.0
H2261 H 0.25528 0.22888 0.55889 0.0
H2262 H 0.24874 0.23507 0.54224 0.0
C2263 C 0.23866 0.27346 0.48624 0.0
C2264 C 0.26325 0.26406 0.5094 0.0
H2265 H 0.26199 0.20997 0.52607 0.0
C2266 C 0.27048 0.28679 0.51492 0.0
C2267 C 0.26013 0.23602 0.51347 0.0
C2268 C 0.2529 0.21055 0.50778 0.0
C2269 C 0.27448 0.28237 0.52443 0.0
C2270 C 0.27163 0.25419 0.52848 0.0
C2271 C 0.26426 0.23151 0.52296 0.0
C2272 C 0.27605 0.24799 0.53846 0.0
C2273 C 0.28134 0.30818 0.5301 0.0
C2274 C 0.29375 0.25202 0.54184 0.0
C2275 C 0.29754 0.24857 0.55136 0.0
C2276 C 0.28374 0.24068 0.55772 0.0
C2277 C 0.26625 0.235 0.55422 0.0
C2278 C 0.26246 0.23861 0.54469 0.0
H2279 H 0.27796 0.32962 0.52675 0.0
H2280 H 0.27555 0.308 0.53728 0.0
H2281 H 0.29633 0.30678 0.53064 0.0
H2282 H 0.30459 0.25845 0.53713 0.0
H2283 H 0.3112 0.2529 0.55378 0.0
H2284 H 0.29566 0.45298 0.30429 0.0
H2285 H 0.29495 0.46549 0.28766 0.0
H2286 H 0.24671 0.51747 0.29216 0.0
H2287 H 0.24742 0.50542 0.30885 0.0
H2288 H 0.26895 0.45727 0.27381 0.0
H2289 H 0.28138 0.57665 0.27993 0.0
H2290 H 0.28433 0.54925 0.28895 0.0
H2291 H 0.26199 0.56205 0.28599 0.0
C2292 C 0.28477 0.46686 0.30175 0.0
C2293 C 0.27167 0.47837 0.30795 0.0
C2294 C 0.28442 0.47403 0.29223 0.0
C2295 C 0.27102 0.49297 0.28869 0.0
C2296 C 0.25743 0.5034 0.29477 0.0
H2297 H 0.24838 0.56533 0.23371 0.0
H2298 H 0.24926 0.55358 0.25039 0.0
C2299 C 0.25777 0.49624 0.3043 0.0
C2300 C 0.2715 0.50205 0.27868 0.0
H2301 H 0.27533 0.56212 0.26432 0.0
C2302 C 0.27041 0.48018 0.27173 0.0
C2303 C 0.27344 0.53197 0.27597 0.0
C2304 C 0.27552 0.55636 0.28308 0.0
C2305 C 0.27084 0.48743 0.26217 0.0
C2306 C 0.2728 0.51734 0.25945 0.0
C2307 C 0.27388 0.53922 0.2664 0.0
C2308 C 0.2733 0.52636 0.24944 0.0
C2309 C 0.26876 0.46303 0.25505 0.0
C2310 C 0.28693 0.5159 0.24339 0.0
C2311 C 0.2865 0.52263 0.23383 0.0
C2312 C 0.27246 0.54008 0.23012 0.0
C2313 C 0.25937 0.55176 0.23629 0.0
C2314 C 0.25982 0.54502 0.24585 0.0
H2315 H 0.26293 0.44272 0.25821 0.0
H2316 H 0.25994 0.47012 0.24919 0.0
H2317 H 0.28229 0.45737 0.25213 0.0
H2318 H 0.29772 0.50202 0.24604 0.0
H2319 H 0.29684 0.51333 0.2293 0.0
H2320 H 0.038 0.01464 0.47835 0.0
H2321 H 0.04004 0.02282 0.49526 0.0
H2322 H 0.99245 0.96909 0.49952 0.0
H2323 H 0.9904 0.96053 0.48268 0.0
H2324 H 1.01358 0.05012 0.5063 0.0
H2325 H 0.02718 0.9368 0.51919 0.0
H2326 H 0.0301 0.9471 0.50708 0.0
H2327 H 1.00784 0.93943 0.51164 0.0
C2328 C 0.02817 1.00405 0.48289 0.0
C2329 C 1.01405 0.98685 0.47913 0.0
C2330 C 0.02931 0.00888 0.49256 0.0
C2331 C 1.01649 0.99641 0.49869 0.0
C2332 C 1.0027 0.97854 0.49498 0.0
H2333 H 0.99551 0.00806 0.55871 0.0
H2334 H 0.99338 0.99942 0.54183 0.0
C2335 C 1.00152 0.97375 0.48532 0.0
C2336 C 1.01681 1.00358 0.50886 0.0
H2337 H 1.01937 0.97274 0.53064 0.0
C2338 C 1.01496 0.03322 0.51163 0.0
C2339 C 1.01847 0.98152 0.51582 0.0
C2340 C 0.02117 0.94945 0.51331 0.0
C2341 C 1.01444 0.04134 0.52113 0.0
C2342 C 1.01614 0.01929 0.52809 0.0
C2343 C 1.01798 0.98965 0.52532 0.0
C2344 C 1.01657 0.02651 0.53826 0.0
C2345 C 1.01165 0.07341 0.52362 0.0
C2346 C 0.03019 0.04486 0.5419 0.0
C2347 C 0.0314 0.04996 0.55154 0.0
C2348 C 1.01908 0.03665 0.55779 0.0
C2349 C 1.00517 0.01883 0.55411 0.0
C2350 C 1.00398 0.01373 0.54446 0.0
H2351 H 1.00538 0.08587 0.51778 0.0
H2352 H 1.00291 0.07575 0.52993 0.0
H2353 H 0.02499 0.08366 0.52514 0.0
H2354 H 0.04028 0.05452 0.53731 0.0
H2355 H 0.04237 0.06363 0.5541 0.0
H2356 H 0.99589 0.25223 0.72953 0.0
H2357 H 0.996 0.26361 0.74629 0.0
H2358 H 0.04184 0.20584 0.75011 0.0
H2359 H 0.04201 0.19462 0.73338 0.0
H2360 H 0.99332 0.22881 0.7624 0.0
H2361 H 0.06038 0.28427 0.76055 0.0
H2362 H 0.04754 0.27486 0.75024 0.0
H2363 H 0.06037 0.247 0.75625 0.0
C2364 C 1.00586 0.24162 0.73395 0.0
C2365 C 1.01905 0.22268 0.73007 0.0
C2366 C 1.00594 0.24824 0.74353 0.0
C2367 C 1.01921 0.23616 0.74943 0.0
C2368 C 0.03176 0.21604 0.74567 0.0
H2369 H 0.04503 0.25615 0.80861 0.0
H2370 H 0.04479 0.24332 0.79195 0.0
C2371 C 0.03173 0.20944 0.73609 0.0
C2372 C 1.02015 0.24509 0.75946 0.0
H2373 H 0.04771 0.27778 0.77567 0.0
C2374 C 1.00518 0.2396 0.7653 0.0
C2375 C 0.03564 0.25921 0.76324 0.0
C2376 C 0.05185 0.26696 0.75724 0.0
C2377 C 1.00539 0.24735 0.77483 0.0
C2378 C 1.02087 0.2615 0.77861 0.0
C2379 C 0.03586 0.26693 0.77278 0.0
C2380 C 0.02173 0.27083 0.7886 0.0
C2381 C 0.98917 0.23972 0.78083 0.0
C2382 C 1.00926 0.29137 0.79221 0.0
C2383 C 1.00938 0.29882 0.80171 0.0
C2384 C 0.02206 0.28601 0.80784 0.0
C2385 C 0.03507 0.26644 0.80412 0.0
C2386 C 0.03492 0.259 0.79459 0.0
H2387 H 0.98065 0.22235 0.77755 0.0
H2388 H 0.99345 0.23199 0.78785 0.0
H2389 H 0.98064 0.25971 0.78177 0.0
H2390 H 0.99923 0.30135 0.78768 0.0
H2391 H 0.99923 0.31408 0.8043 0.0
H2392 H 1.01903 0.80995 0.23169 0.0
H2393 H 1.02048 0.80722 0.24866 0.0
H2394 H 1.01712 0.71228 0.2473 0.0
H2395 H 1.01546 0.71481 0.23011 0.0
H2396 H 0.99503 0.73811 0.26143 0.0
H2397 H 0.06529 0.78144 0.26327 0.0
H2398 H 0.05011 0.80466 0.25682 0.0
H2399 H 0.05538 0.76832 0.25251 0.0
C2400 C 1.01856 0.78838 0.23495 0.0
C2401 C 1.01731 0.76253 0.2295 0.0
C2402 C 1.0195 0.7869 0.24469 0.0
C2403 C 1.01938 0.75955 0.24926 0.0
C2404 C 1.01744 0.73365 0.2439 0.0
H2405 H 0.02565 0.70624 0.30733 0.0
H2406 H 0.02405 0.70914 0.29036 0.0
C2407 C 1.01645 0.73511 0.23409 0.0
C2408 C 0.02121 0.75836 0.25963 0.0
H2409 H 0.04909 0.77834 0.27766 0.0
C2410 C 1.0069 0.74669 0.26497 0.0
C2411 C 0.03666 0.76979 0.26428 0.0
C2412 C 0.05282 0.78152 0.25893 0.0
C2413 C 1.00748 0.74664 0.27481 0.0
C2414 C 0.02292 0.75809 0.27945 0.0
C2415 C 0.03722 0.76976 0.27412 0.0
C2416 C 0.02477 0.75683 0.28982 0.0
C2417 C 0.99136 0.73482 0.28016 0.0
C2418 C 0.0265 0.78271 0.2952 0.0
C2419 C 0.02756 0.78116 0.30501 0.0
C2420 C 0.02698 0.75366 0.30958 0.0
C2421 C 0.02592 0.72785 0.30409 0.0
C2422 C 0.02489 0.72943 0.29436 0.0
H2423 H 0.97889 0.7347 0.27582 0.0
H2424 H 0.99416 0.71174 0.28232 0.0
H2425 H 0.98874 0.7481 0.28656 0.0
H2426 H 0.02663 0.80412 0.29183 0.0
H2427 H 0.02839 0.80143 0.30902 0.0
H2428 H 0.9992 0.44907 0.98418 0.0
H2429 H 0.99937 0.4612 1.00084 0.0
H2430 H 0.04593 0.5173 0.99664 0.0
H2431 H 0.04601 0.50504 0.97994 0.0
H2432 H 0.04811 0.48254 1.01286 0.0
H2433 H 0.98197 0.54077 1.01112 0.0
H2434 H 0.98141 0.50347 1.00686 0.0
H2435 H 0.99472 0.53072 1.00079 0.0
C2436 C 1.00962 0.46375 0.98679 0.0
C2437 C 0.02252 0.47623 0.98068 0.0
C2438 C 1.00959 0.47087 0.99633 0.0
C2439 C 0.02238 0.49074 0.99996 0.0
C2440 C 0.03581 0.50214 0.99398 0.0
H2441 H 0.04322 0.56587 0.05519 0.0
H2442 H 0.04309 0.55459 0.03846 0.0
C2443 C 0.03587 0.49502 0.98443 0.0
C2444 C 0.02157 0.49994 1.00997 0.0
H2445 H 0.99439 0.5336 0.02624 0.0
C2446 C 0.03641 0.49383 1.01578 0.0
C2447 C 1.00628 0.51469 1.01378 0.0
C2448 C 0.99024 0.52308 1.00781 0.0
C2449 C 0.03624 0.50148 0.02532 0.0
C2450 C 1.02093 0.51619 0.02914 0.0
C2451 C 1.0061 0.52234 0.02332 0.0
C2452 C 1.02004 0.52509 0.03917 0.0
C2453 C 0.05226 0.49304 0.03129 0.0
C2454 C 1.00655 0.51348 0.04508 0.0
C2455 C 1.00647 0.52012 0.05466 0.0
C2456 C 1.01985 0.53863 0.05853 0.0
C2457 C 0.03278 0.55139 0.05249 0.0
C2458 C 0.03283 0.54476 0.04292 0.0
H2459 H 0.06058 0.47545 0.02796 0.0
H2460 H 0.06106 0.51267 0.03229 0.0
H2461 H 0.04777 0.48524 0.03829 0.0
H2462 H 0.99644 0.49847 0.04234 0.0
H2463 H 0.99631 0.50989 0.05909 0.0
H2464 H 0.57892 0.06734 0.10358 0.0
H2465 H 0.60428 0.10215 0.10474 0.0
H2466 H 0.62543 0.07026 0.07842 0.0
H2467 H 0.60042 0.03503 0.07737 0.0
H2468 H 0.6521 0.07805 0.09053 0.0
H2469 H 0.60881 0.17813 0.09056 0.0
H2470 H 0.60371 0.15339 0.1 0.0
H2471 H 0.59993 0.14185 0.08811 0.0
C2472 C 0.58902 0.06777 0.09806 0.0
C2473 C 0.58765 0.04849 0.09038 0.0
C2474 C 0.60344 0.08779 0.09869 0.0
C2475 C 0.61658 0.08934 0.09156 0.0
C2476 C 0.61545 0.06959 0.084 0.0
H2477 H 0.68908 0.2342 0.07896 0.0
H2478 H 0.66417 0.19875 0.08003 0.0
C2479 C 0.60118 0.04933 0.08342 0.0
C2480 C 0.6315 0.11148 0.0919 0.0
H2481 H 0.64019 0.1855 0.09325 0.0
C2482 C 0.64949 0.10155 0.09113 0.0
C2483 C 0.62811 0.14222 0.09254 0.0
C2484 C 0.6091 0.1546 0.09275 0.0
C2485 C 0.66415 0.12139 0.09095 0.0
C2486 C 0.66079 0.15206 0.09188 0.0
C2487 C 0.6428 0.162 0.09266 0.0
C2488 C 0.67566 0.17431 0.09159 0.0
C2489 C 0.68302 0.10927 0.08945 0.0
C2490 C 0.69026 0.17291 0.09787 0.0
C2491 C 0.70461 0.19305 0.09721 0.0
C2492 C 0.70449 0.21538 0.09038 0.0
C2493 C 0.68952 0.21746 0.08435 0.0
C2494 C 0.67529 0.1971 0.08493 0.0
H2495 H 0.6827 0.08691 0.08624 0.0
H2496 H 0.69117 0.12401 0.08487 0.0
H2497 H 0.68996 0.10742 0.0963 0.0
H2498 H 0.69062 0.15612 0.10325 0.0
H2499 H 0.71584 0.19118 0.10204 0.0
H2500 H 0.5704 0.17175 0.20226 0.0
H2501 H 0.59632 0.13838 0.20112 0.0
H2502 H 0.63024 0.21081 0.19226 0.0
H2503 H 0.60431 0.24448 0.19351 0.0
H2504 H 0.61758 0.12269 0.18655 0.0
H2505 H 0.65952 0.17779 0.21358 0.0
H2506 H 0.6359 0.18658 0.21187 0.0
H2507 H 0.65293 0.20195 0.20425 0.0
C2508 C 0.58332 0.1806 0.2 0.0
C2509 C 0.58529 0.21085 0.19799 0.0
C2510 C 0.59818 0.16147 0.19939 0.0
C2511 C 0.61533 0.17212 0.19676 0.0
C2512 C 0.61726 0.20219 0.19455 0.0
H2513 H 0.71979 0.08694 0.18812 0.0
H2514 H 0.69389 0.12048 0.18809 0.0
C2515 C 0.60243 0.22141 0.19523 0.0
C2516 C 0.63109 0.15159 0.19628 0.0
H2517 H 0.67373 0.13963 0.20482 0.0
C2518 C 0.62983 0.12637 0.19057 0.0
C2519 C 0.64707 0.15629 0.20156 0.0
C2520 C 0.64893 0.18195 0.20823 0.0
C2521 C 0.64416 0.10599 0.18991 0.0
C2522 C 0.66014 0.11085 0.19513 0.0
C2523 C 0.66147 0.13607 0.2008 0.0
C2524 C 0.67561 0.08989 0.19488 0.0
C2525 C 0.64224 0.07959 0.18355 0.0
C2526 C 0.67393 0.06153 0.19872 0.0
C2527 C 0.68882 0.04231 0.19887 0.0
C2528 C 0.70572 0.05109 0.19516 0.0
C2529 C 0.70718 0.07945 0.19118 0.0
C2530 C 0.69233 0.09867 0.1911 0.0
H2531 H 0.63072 0.08208 0.17863 0.0
H2532 H 0.65489 0.07603 0.17945 0.0
H2533 H 0.63983 0.05957 0.18785 0.0
H2534 H 0.6612 0.05447 0.2018 0.0
H2535 H 0.68714 0.02092 0.20211 0.0
H2536 H 0.44049 0.98347 0.96157 0.0
H2537 H 0.41496 0.9491 0.96059 0.0
H2538 H 0.4385 0.90992 0.93585 0.0
H2539 H 0.46428 0.94384 0.93695 0.0
H2540 H 0.3895 0.93875 0.94778 0.0
H2541 H 0.43147 0.83812 0.9519 0.0
H2542 H 0.44044 0.87471 0.95371 0.0
H2543 H 0.43817 0.86013 0.94205 0.0
C2544 C 0.44014 0.96773 0.95587 0.0
C2545 C 0.45447 0.96622 0.94937 0.0
C2546 C 0.42557 0.94799 0.95534 0.0
C2547 C 0.42497 0.92643 0.94827 0.0
C2548 C 0.4389 0.92571 0.94154 0.0
H2549 H 0.32678 0.82392 0.93609 0.0
H2550 H 0.35223 0.85868 0.93531 0.0
C2551 C 0.45358 0.94521 0.94214 0.0
C2552 C 0.40984 0.90465 0.94801 0.0
H2553 H 0.40052 0.83072 0.94808 0.0
C2554 C 0.39191 0.91513 0.94785 0.0
C2555 C 0.41295 0.87379 0.94826 0.0
C2556 C 0.43178 0.86098 0.94909 0.0
C2557 C 0.37704 0.89568 0.9479 0.0
C2558 C 0.38017 0.86481 0.94782 0.0
C2559 C 0.3981 0.85435 0.94802 0.0
C2560 C 0.36507 0.84295 0.94797 0.0
C2561 C 0.35815 0.90849 0.94832 0.0
C2562 C 0.36418 0.82166 0.95509 0.0
C2563 C 0.34983 0.80148 0.95545 0.0
C2564 C 0.336 0.8022 0.9487 0.0
C2565 C 0.33711 0.8231 0.94145 0.0
C2566 C 0.35159 0.84308 0.94104 0.0
H2567 H 0.35822 0.93152 0.95102 0.0
H2568 H 0.35233 0.90889 0.94118 0.0
H2569 H 0.34914 0.895 0.95286 0.0
H2570 H 0.37442 0.82102 0.96051 0.0
H2571 H 0.34929 0.78592 0.96118 0.0
H2572 H 0.46512 0.82215 0.85299 0.0
H2573 H 0.43981 0.85695 0.85479 0.0
H2574 H 0.41702 0.82576 0.82884 0.0
H2575 H 0.44189 0.79061 0.82717 0.0
H2576 H 0.42947 0.90203 0.84447 0.0
H2577 H 0.37322 0.82147 0.84519 0.0
H2578 H 0.39663 0.81035 0.84613 0.0
H2579 H 0.38673 0.8172 0.83483 0.0
C2580 C 0.4546 0.82261 0.84773 0.0
C2581 C 0.45537 0.80336 0.84001 0.0
C2582 C 0.44015 0.84247 0.84875 0.0
C2583 C 0.42624 0.84359 0.84206 0.0
C2584 C 0.42719 0.82468 0.83427 0.0
H2585 H 0.35419 0.99025 0.83057 0.0
H2586 H 0.37972 0.95595 0.83166 0.0
C2587 C 0.44147 0.80459 0.83331 0.0
C2588 C 0.41114 0.86528 0.84297 0.0
H2589 H 0.36502 0.87171 0.84201 0.0
C2590 C 0.41536 0.89535 0.84404 0.0
C2591 C 0.39269 0.85664 0.84259 0.0
C2592 C 0.38704 0.82462 0.84223 0.0
C2593 C 0.40172 0.91703 0.84443 0.0
C2594 C 0.38333 0.90854 0.84342 0.0
C2595 C 0.3791 0.87838 0.84265 0.0
C2596 C 0.36824 0.93041 0.84304 0.0
C2597 C 0.40721 0.94872 0.84604 0.0
C2598 C 0.353 0.92719 0.84889 0.0
C2599 C 0.33824 0.94645 0.84814 0.0
C2600 C 0.33845 0.96952 0.84156 0.0
C2601 C 0.3538 0.97304 0.83581 0.0
C2602 C 0.36844 0.95348 0.83647 0.0
H2603 H 0.42038 0.95015 0.84978 0.0
H2604 H 0.40892 0.95989 0.83919 0.0
H2605 H 0.39682 0.96085 0.85017 0.0
H2606 H 0.35244 0.90957 0.85401 0.0
H2607 H 0.32663 0.94332 0.85269 0.0
H2608 H 0.72279 0.67459 0.5988 0.0
H2609 H 0.69622 0.64255 0.60084 0.0
H2610 H 0.67423 0.67478 0.57485 0.0
H2611 H 0.70044 0.70708 0.57291 0.0
H2612 H 0.64847 0.672 0.58786 0.0
H2613 H 0.68635 0.56615 0.58748 0.0
H2614 H 0.69346 0.59105 0.59652 0.0
H2615 H 0.69682 0.60084 0.58444 0.0
C2616 C 0.71229 0.67473 0.59353 0.0
C2617 C 0.71374 0.69341 0.5857 0.0
C2618 C 0.69715 0.65632 0.59467 0.0
C2619 C 0.68332 0.65582 0.58792 0.0
C2620 C 0.68468 0.67472 0.58017 0.0
H2621 H 0.60309 0.52161 0.57701 0.0
H2622 H 0.62962 0.55383 0.57766 0.0
C2623 C 0.69967 0.69331 0.57908 0.0
C2624 C 0.66734 0.63586 0.58886 0.0
H2625 H 0.65486 0.56336 0.59061 0.0
C2626 C 0.64988 0.64824 0.58849 0.0
C2627 C 0.66913 0.60479 0.58955 0.0
C2628 C 0.68743 0.58984 0.58943 0.0
C2629 C 0.63422 0.63052 0.58869 0.0
C2630 C 0.636 0.5995 0.58957 0.0
C2631 C 0.65346 0.58713 0.59003 0.0
C2632 C 0.62001 0.57936 0.5895 0.0
C2633 C 0.61597 0.6452 0.58758 0.0
C2634 C 0.60585 0.58252 0.59604 0.0
C2635 C 0.59055 0.5642 0.59562 0.0
C2636 C 0.58926 0.54197 0.58877 0.0
C2637 C 0.60371 0.53827 0.58243 0.0
C2638 C 0.61889 0.55678 0.58278 0.0
H2639 H 0.61722 0.66755 0.58444 0.0
H2640 H 0.60683 0.63175 0.58312 0.0
H2641 H 0.60953 0.64773 0.59457 0.0
H2642 H 0.60659 0.59919 0.60145 0.0
H2643 H 0.57976 0.5673 0.60068 0.0
H2644 H 0.5696 0.66946 0.69927 0.0
H2645 H 0.59596 0.63681 0.69995 0.0
H2646 H 0.63105 0.71 0.69325 0.0
H2647 H 0.60467 0.74301 0.69266 0.0
H2648 H 0.62248 0.62706 0.68482 0.0
H2649 H 0.65295 0.67157 0.71749 0.0
H2650 H 0.62941 0.67731 0.7145 0.0
H2651 H 0.64682 0.69814 0.7087 0.0
C2652 C 0.58293 0.67876 0.69807 0.0
C2653 C 0.58504 0.70895 0.69599 0.0
C2654 C 0.59796 0.65999 0.69839 0.0
C2655 C 0.61545 0.67104 0.69673 0.0
C2656 C 0.61767 0.70111 0.69465 0.0
H2657 H 0.72263 0.59279 0.69853 0.0
H2658 H 0.69666 0.62551 0.69717 0.0
C2659 C 0.60259 0.7199 0.69426 0.0
C2660 C 0.63129 0.65088 0.69702 0.0
H2661 H 0.66956 0.63497 0.70941 0.0
C2662 C 0.63279 0.62871 0.6902 0.0
C2663 C 0.64469 0.6532 0.70403 0.0
C2664 C 0.64343 0.67617 0.71165 0.0
C2665 C 0.64753 0.60902 0.6901 0.0
C2666 C 0.66088 0.61109 0.69718 0.0
C2667 C 0.65934 0.63334 0.704 0.0
C2668 C 0.67664 0.59062 0.69762 0.0
C2669 C 0.64888 0.58671 0.68228 0.0
C2670 C 0.67411 0.55997 0.69834 0.0
C2671 C 0.68904 0.54096 0.69898 0.0
C2672 C 0.70686 0.5522 0.69903 0.0
C2673 C 0.70927 0.58301 0.69835 0.0
C2674 C 0.69435 0.60192 0.69765 0.0
H2675 H 0.64083 0.59355 0.67609 0.0
H2676 H 0.66319 0.58342 0.68005 0.0
H2677 H 0.64346 0.56522 0.68474 0.0
H2678 H 0.66057 0.55072 0.69855 0.0
H2679 H 0.68656 0.51747 0.69944 0.0
H2680 H 0.47056 0.42373 0.44772 0.0
H2681 H 0.44541 0.38917 0.44628 0.0
H2682 H 0.40775 0.4619 0.44527 0.0
H2683 H 0.43288 0.49676 0.44625 0.0
H2684 H 0.41729 0.38059 0.458 0.0
H2685 H 0.39084 0.41352 0.42332 0.0
H2686 H 0.41263 0.42566 0.42757 0.0
H2687 H 0.39217 0.44386 0.43136 0.0
C2688 C 0.45702 0.43257 0.44699 0.0
C2689 C 0.45391 0.46328 0.44706 0.0
C2690 C 0.44258 0.41265 0.44625 0.0
C2691 C 0.42466 0.42285 0.44552 0.0
C2692 C 0.42146 0.45342 0.4456 0.0
H2693 H 0.31834 0.3433 0.4481 0.0
H2694 H 0.34452 0.37595 0.44741 0.0
C2695 C 0.4359 0.47339 0.4463 0.0
C2696 C 0.40931 0.40149 0.44513 0.0
H2697 H 0.37186 0.38197 0.43248 0.0
C2698 C 0.40747 0.38073 0.45237 0.0
C2699 C 0.39647 0.40161 0.43778 0.0
C2700 C 0.39819 0.42216 0.42952 0.0
C2701 C 0.39293 0.36064 0.45259 0.0
C2702 C 0.37995 0.36114 0.44533 0.0
C2703 C 0.38183 0.38169 0.43805 0.0
C2704 C 0.36406 0.34098 0.44533 0.0
C2705 C 0.39127 0.33953 0.4607 0.0
C2706 C 0.36629 0.31041 0.4442 0.0
C2707 C 0.35126 0.2915 0.44448 0.0
C2708 C 0.33363 0.30274 0.44592 0.0
C2709 C 0.33152 0.33356 0.44688 0.0
C2710 C 0.34654 0.35241 0.44654 0.0
H2711 H 0.40042 0.34559 0.46656 0.0
H2712 H 0.3771 0.33893 0.46335 0.0
H2713 H 0.39488 0.31695 0.45832 0.0
H2714 H 0.37969 0.30117 0.44312 0.0
H2715 H 0.35351 0.26808 0.44356 0.0
H2716 H 0.47358 0.33868 0.34834 0.0
H2717 H 0.44756 0.37199 0.34885 0.0
H2718 H 0.41408 0.30492 0.33628 0.0
H2719 H 0.44007 0.27159 0.33551 0.0
H2720 H 0.42613 0.39073 0.33289 0.0
H2721 H 0.38504 0.3325 0.35983 0.0
H2722 H 0.4091 0.32629 0.35837 0.0
H2723 H 0.39329 0.30997 0.35036 0.0
C2724 C 0.46075 0.33091 0.34563 0.0
C2725 C 0.45907 0.30228 0.34185 0.0
C2726 C 0.44584 0.35001 0.34599 0.0
C2727 C 0.42885 0.34085 0.34269 0.0
C2728 C 0.42701 0.31227 0.33901 0.0
H2729 H 0.32275 0.42053 0.33685 0.0
H2730 H 0.34897 0.3877 0.33766 0.0
C2731 C 0.44193 0.29319 0.3386 0.0
C2732 C 0.41324 0.36158 0.34276 0.0
H2733 H 0.37097 0.37241 0.352 0.0
C2734 C 0.4141 0.38687 0.33711 0.0
C2735 C 0.39755 0.35636 0.34822 0.0
C2736 C 0.39614 0.32995 0.35461 0.0
C2737 C 0.3995 0.40676 0.3366 0.0
C2738 C 0.38378 0.40165 0.3421 0.0
C2739 C 0.383 0.3764 0.3478 0.0
C2740 C 0.36782 0.42179 0.34188 0.0
C2741 C 0.40084 0.43252 0.32994 0.0
C2742 C 0.36956 0.45187 0.34414 0.0
C2743 C 0.35455 0.47077 0.34365 0.0
C2744 C 0.33743 0.45991 0.34103 0.0
C2745 C 0.33565 0.42962 0.339 0.0
C2746 C 0.35068 0.41081 0.33942 0.0
H2747 H 0.41129 0.42871 0.32445 0.0
H2748 H 0.38764 0.43679 0.32648 0.0
H2749 H 0.40476 0.45261 0.3339 0.0
H2750 H 0.38253 0.46075 0.3463 0.0
H2751 H 0.35632 0.49386 0.34539 0.0
H2752 H 0.10299 0.03457 0.57778 0.0
H2753 H 0.12789 0.06954 0.57973 0.0
H2754 H 0.10229 0.10417 0.6046 0.0
H2755 H 0.07711 0.06945 0.60258 0.0
H2756 H 0.11323 0.14778 0.59361 0.0
H2757 H 0.16998 0.06896 0.59737 0.0
H2758 H 0.15756 0.06258 0.5868 0.0
H2759 H 0.14656 0.05752 0.59796 0.0
C2760 C 0.1028 0.04923 0.58376 0.0
C2761 C 0.08809 0.04907 0.59006 0.0
C2762 C 0.1171 0.06923 0.58488 0.0
C2763 C 0.1172 0.08918 0.59242 0.0
C2764 C 0.10259 0.08893 0.59876 0.0
H2765 H 0.21381 0.19654 0.60393 0.0
H2766 H 0.18863 0.16142 0.60535 0.0
C2767 C 0.08818 0.06911 0.59759 0.0
C2768 C 0.13202 0.11134 0.59336 0.0
H2769 H 0.17814 0.11895 0.5937 0.0
C2770 C 0.12742 0.14143 0.59373 0.0
C2771 C 0.15056 0.10317 0.5937 0.0
C2772 C 0.15646 0.07128 0.59404 0.0
C2773 C 0.1408 0.16352 0.59408 0.0
C2774 C 0.15935 0.15539 0.59381 0.0
C2775 C 0.16394 0.12528 0.59379 0.0
C2776 C 0.17417 0.17768 0.59325 0.0
C2777 C 0.13486 0.19533 0.59483 0.0
C2778 C 0.17452 0.19845 0.58596 0.0
C2779 C 0.1888 0.21864 0.58519 0.0
C2780 C 0.20325 0.21824 0.59159 0.0
C2781 C 0.20292 0.19737 0.59887 0.0
C2782 C 0.18853 0.17732 0.5997 0.0
H2783 H 0.12121 0.1972 0.59809 0.0
H2784 H 0.14459 0.20858 0.599 0.0
H2785 H 0.13404 0.20497 0.58771 0.0
H2786 H 0.16396 0.19862 0.58072 0.0
H2787 H 0.1888 0.23389 0.57936 0.0
H2788 H 0.21583 0.07525 0.68524 0.0
H2789 H 0.19044 0.11008 0.68488 0.0
H2790 H 0.16303 0.05963 0.70627 0.0
H2791 H 0.18815 0.02428 0.70641 0.0
H2792 H 0.13963 0.07677 0.6935 0.0
H2793 H 0.18107 0.17351 0.70371 0.0
H2794 H 0.18903 0.15653 0.69313 0.0
H2795 H 0.18983 0.13636 0.70397 0.0
C2796 C 0.20437 0.07164 0.68985 0.0
C2797 C 0.20401 0.04715 0.69589 0.0
C2798 C 0.18991 0.09164 0.68969 0.0
C2799 C 0.17498 0.08797 0.69572 0.0
C2800 C 0.17441 0.06307 0.70158 0.0
H2801 H 0.09853 0.22414 0.71199 0.0
H2802 H 0.12353 0.18894 0.71067 0.0
C2803 C 0.18874 0.04281 0.70164 0.0
C2804 C 0.15997 0.10998 0.69596 0.0
H2805 H 0.15081 0.18335 0.699 0.0
C2806 C 0.14208 0.10007 0.69472 0.0
C2807 C 0.16309 0.14036 0.69771 0.0
C2808 C 0.18177 0.1523 0.6998 0.0
C2809 C 0.12727 0.1196 0.69515 0.0
C2810 C 0.13046 0.15015 0.69654 0.0
C2811 C 0.14835 0.16003 0.69781 0.0
C2812 C 0.11543 0.17208 0.69712 0.0
C2813 C 0.10836 0.10706 0.69441 0.0
C2814 C 0.1027 0.17487 0.68988 0.0
C2815 C 0.08825 0.19481 0.69069 0.0
C2816 C 0.0865 0.21287 0.69864 0.0
C2817 C 0.09962 0.21079 0.70573 0.0
C2818 C 0.11388 0.19056 0.70499 0.0
H2819 H 0.10806 0.08317 0.69616 0.0
H2820 H 0.09878 0.11881 0.69913 0.0
H2821 H 0.1035 0.10951 0.68711 0.0
H2822 H 0.10388 0.16157 0.68361 0.0
H2823 H 0.07847 0.19622 0.68508 0.0
H2824 H 0.93117 0.02282 0.46212 0.0
H2825 H 0.90195 0.99756 0.46253 0.0
H2826 H 0.91951 0.94016 0.44017 0.0
H2827 H 0.94898 0.96524 0.43981 0.0
H2828 H 0.876 0.99179 0.44948 0.0
H2829 H 0.90169 0.88073 0.45906 0.0
H2830 H 0.91575 0.9133 0.45952 0.0
H2831 H 0.91154 0.89523 0.44852 0.0
C2832 C 0.92883 1.00496 0.45724 0.0
C2833 C 0.94248 0.99608 0.45093 0.0
C2834 C 0.9121 0.99041 0.45752 0.0
C2835 C 0.90856 0.9666 0.45149 0.0
C2836 C 0.92204 0.95795 0.44507 0.0
H2837 H 0.81131 0.85918 0.44349 0.0
H2838 H 0.84065 0.88357 0.44173 0.0
C2839 C 0.93887 0.97238 0.44484 0.0
C2840 C 0.89064 0.95136 0.4519 0.0
H2841 H 0.87038 0.88431 0.45548 0.0
C2842 C 0.8748 0.96829 0.45081 0.0
C2843 C 0.88901 0.92066 0.45363 0.0
C2844 C 0.90538 0.90143 0.45534 0.0
C2845 C 0.85747 0.95543 0.45138 0.0
C2846 C 0.85587 0.92482 0.45314 0.0
C2847 C 0.87165 0.90777 0.45411 0.0
C2848 C 0.83791 0.91023 0.4542 0.0
C2849 C 0.84096 0.9746 0.45001 0.0
C2850 C 0.82665 0.91694 0.46185 0.0
C2851 C 0.8099 0.90275 0.46296 0.0
C2852 C 0.80398 0.88149 0.45644 0.0
C2853 C 0.81535 0.87501 0.44875 0.0
C2854 C 0.83216 0.88908 0.44769 0.0
H2855 H 0.84446 0.99613 0.44675 0.0
H2856 H 0.8308 0.96323 0.44556 0.0
H2857 H 0.83457 0.97905 0.45691 0.0
H2858 H 0.83094 0.9329 0.46704 0.0
H2859 H 0.8018 0.90817 0.46905 0.0
H2860 H 0.96496 0.81998 0.35313 0.0
H2861 H 0.93902 0.85377 0.3535 0.0
H2862 H 0.91427 0.80531 0.33089 0.0
H2863 H 0.9399 0.77105 0.33072 0.0
H2864 H 0.92748 0.89052 0.34078 0.0
H2865 H 0.87195 0.81182 0.34816 0.0
H2866 H 0.89551 0.80166 0.34917 0.0
H2867 H 0.8845 0.80131 0.33793 0.0
C2868 C 0.95387 0.8164 0.34832 0.0
C2869 C 0.95439 0.79275 0.34194 0.0
C2870 C 0.93905 0.83569 0.34853 0.0
C2871 C 0.92449 0.83188 0.34233 0.0
C2872 C 0.92501 0.80825 0.33595 0.0
H2873 H 0.85019 0.96906 0.32448 0.0
H2874 H 0.87574 0.93535 0.3266 0.0
C2875 C 0.93971 0.78869 0.33583 0.0
C2876 C 0.90928 0.85354 0.34219 0.0
H2877 H 0.86308 0.8593 0.34238 0.0
C2878 C 0.9134 0.88369 0.34122 0.0
C2879 C 0.89088 0.84481 0.34292 0.0
C2880 C 0.88545 0.81317 0.34471 0.0
C2881 C 0.89969 0.90518 0.34074 0.0
C2882 C 0.88128 0.89625 0.34091 0.0
C2883 C 0.87716 0.8662 0.34212 0.0
C2884 C 0.86607 0.91758 0.33977 0.0
C2885 C 0.90516 0.93726 0.3402 0.0
C2886 C 0.85181 0.91838 0.34632 0.0
C2887 C 0.83702 0.9373 0.34502 0.0
C2888 C 0.83624 0.95597 0.33718 0.0
C2889 C 0.85059 0.95539 0.33069 0.0
C2890 C 0.86525 0.93616 0.33191 0.0
H2891 H 0.91881 0.9409 0.34327 0.0
H2892 H 0.90578 0.94411 0.33276 0.0
H2893 H 0.89528 0.95165 0.34392 0.0
H2894 H 0.85206 0.90422 0.35242 0.0
H2895 H 0.82618 0.93736 0.35015 0.0
H2896 H 0.18576 0.74731 0.09129 0.0
H2897 H 0.15985 0.71365 0.09251 0.0
H2898 H 0.19622 0.63913 0.09208 0.0
H2899 H 0.22207 0.67237 0.09078 0.0
H2900 H 0.15022 0.67006 0.07962 0.0
H2901 H 0.16339 0.6205 0.11442 0.0
H2902 H 0.17429 0.65407 0.11054 0.0
H2903 H 0.18237 0.61878 0.10653 0.0
C2904 C 0.18826 0.72378 0.09149 0.0
C2905 C 0.20607 0.71268 0.09098 0.0
C2906 C 0.17344 0.70457 0.09223 0.0
C2907 C 0.17612 0.67389 0.09253 0.0
C2908 C 0.19385 0.66273 0.0921 0.0
H2909 H 0.10643 0.51921 0.09083 0.0
H2910 H 0.13196 0.55374 0.09164 0.0
C2911 C 0.20866 0.68188 0.09136 0.0
C2912 C 0.16035 0.65347 0.09271 0.0
H2913 H 0.14084 0.59719 0.10509 0.0
C2914 C 0.14808 0.6543 0.08523 0.0
C2915 C 0.15766 0.63276 0.09999 0.0
C2916 C 0.17002 0.63156 0.10837 0.0
C2917 C 0.13339 0.63462 0.08474 0.0
C2918 C 0.13069 0.61389 0.09202 0.0
C2919 C 0.14294 0.61308 0.09951 0.0
C2920 C 0.1152 0.59293 0.09195 0.0
C2921 C 0.12116 0.63568 0.07629 0.0
C2922 C 0.09731 0.60346 0.09207 0.0
C2923 C 0.08271 0.58384 0.09154 0.0
C2924 C 0.08567 0.55315 0.09095 0.0
C2925 C 0.10364 0.54265 0.09113 0.0
C2926 C 0.11825 0.56235 0.09165 0.0
H2927 H 0.12772 0.64721 0.07031 0.0
H2928 H 0.11729 0.61309 0.07402 0.0
H2929 H 0.10858 0.64788 0.07812 0.0
H2930 H 0.09463 0.62694 0.09246 0.0
H2931 H 0.06916 0.59292 0.09134 0.0
H2932 H 0.10432 0.73859 0.20703 0.0
H2933 H 0.12936 0.70334 0.20615 0.0
H2934 H 0.10183 0.65651 0.18406 0.0
H2935 H 0.07648 0.69136 0.18512 0.0
H2936 H 0.11427 0.61887 0.19632 0.0
H2937 H 0.16989 0.69618 0.18778 0.0
H2938 H 0.15845 0.70681 0.19834 0.0
H2939 H 0.14637 0.70705 0.1874 0.0
C2940 C 0.10374 0.72108 0.20188 0.0
C2941 C 0.08847 0.71787 0.19611 0.0
C2942 C 0.11811 0.70095 0.20136 0.0
C2943 C 0.11773 0.67752 0.1949 0.0
C2944 C 0.10253 0.67443 0.18907 0.0
H2945 H 0.21437 0.56887 0.18495 0.0
H2946 H 0.1888 0.603 0.18314 0.0
C2947 C 0.08803 0.69433 0.18969 0.0
C2948 C 0.1327 0.6554 0.19458 0.0
H2949 H 0.1788 0.64838 0.19332 0.0
C2950 C 0.12836 0.62534 0.19557 0.0
C2951 C 0.15112 0.66363 0.19343 0.0
C2952 C 0.15672 0.69514 0.19158 0.0
C2953 C 0.14189 0.60347 0.19571 0.0
C2954 C 0.16037 0.6119 0.19516 0.0
C2955 C 0.16468 0.64186 0.19388 0.0
C2956 C 0.17546 0.59015 0.19603 0.0
C2957 C 0.13615 0.57154 0.19633 0.0
C2958 C 0.17659 0.5716 0.20388 0.0
C2959 C 0.19105 0.55186 0.20486 0.0
C2960 C 0.20494 0.55064 0.1981 0.0
C2961 C 0.20389 0.56936 0.19028 0.0
C2962 C 0.18928 0.58885 0.18924 0.0
H2963 H 0.12226 0.5683 0.19351 0.0
H2964 H 0.14562 0.55692 0.19243 0.0
H2965 H 0.13596 0.56464 0.20377 0.0
H2966 H 0.16648 0.5728 0.20938 0.0
H2967 H 0.19167 0.53824 0.21107 0.0
H2968 H 0.82114 0.33684 0.94938 0.0
H2969 H 0.84691 0.37046 0.95017 0.0
H2970 H 0.88256 0.30095 0.94085 0.0
H2971 H 0.85697 0.26671 0.94028 0.0
H2972 H 0.88155 0.36168 0.96074 0.0
H2973 H 0.89029 0.37266 0.92221 0.0
H2974 H 0.86931 0.36031 0.92748 0.0
H2975 H 0.88838 0.33579 0.9268 0.0
C2976 C 0.83443 0.32838 0.94761 0.0
C2977 C 0.83682 0.29882 0.94474 0.0
C2978 C 0.84916 0.3478 0.94801 0.0
C2979 C 0.86658 0.33827 0.94547 0.0
C2980 C 0.86915 0.30883 0.94272 0.0
H2981 H 0.97069 0.42616 0.93977 0.0
H2982 H 0.94513 0.39203 0.93929 0.0
C2983 C 0.85445 0.28929 0.94237 0.0
C2984 C 0.88206 0.35917 0.94572 0.0
H2985 H 0.91181 0.39669 0.93174 0.0
C2986 C 0.88817 0.36943 0.95442 0.0
C2987 C 0.89068 0.36906 0.93745 0.0
C2988 C 0.88433 0.35913 0.92793 0.0
C2989 C 0.90291 0.38902 0.95508 0.0
C2990 C 0.91142 0.39928 0.94679 0.0
C2991 C 0.90527 0.38892 0.93809 0.0
C2992 C 0.92683 0.4205 0.94699 0.0
C2993 C 0.9095 0.39786 0.96467 0.0
C2994 C 0.925 0.44821 0.9513 0.0
C2995 C 0.93971 0.46771 0.95172 0.0
C2996 C 0.95657 0.46009 0.94772 0.0
C2997 C 0.95812 0.43268 0.94311 0.0
C2998 C 0.94344 0.41314 0.94276 0.0
H2999 H 0.9052 0.38176 0.9701 0.0
H3000 H 0.92452 0.39973 0.96482 0.0
H3001 H 0.90365 0.41965 0.96655 0.0
H3002 H 0.91219 0.45476 0.9544 0.0
H3003 H 0.93789 0.48846 0.95534 0.0
H3004 H 0.93738 0.27355 0.83351 0.0
H3005 H 0.91159 0.30734 0.83452 0.0
H3006 H 0.94441 0.36998 0.84959 0.0
H3007 H 0.97015 0.33616 0.84886 0.0
H3008 H 0.89539 0.33571 0.85177 0.0
H3009 H 0.92395 0.41473 0.82581 0.0
H3010 H 0.93141 0.3768 0.82654 0.0
H3011 H 0.93872 0.40316 0.83512 0.0
C3012 C 0.93913 0.29427 0.83716 0.0
C3013 C 0.95603 0.3021 0.84102 0.0
C3014 C 0.92435 0.31364 0.83769 0.0
C3015 C 0.92619 0.34128 0.84202 0.0
C3016 C 0.94281 0.34892 0.84609 0.0
H3017 H 0.85498 0.49482 0.84565 0.0
H3018 H 0.88062 0.46049 0.84667 0.0
C3019 C 0.95756 0.32953 0.84562 0.0
C3020 C 0.9108 0.36236 0.84217 0.0
H3021 H 0.8964 0.42799 0.83309 0.0
C3022 C 0.89555 0.35588 0.84769 0.0
C3023 C 0.91116 0.38872 0.83688 0.0
C3024 C 0.9271 0.39635 0.83069 0.0
C3025 C 0.88068 0.37528 0.84815 0.0
C3026 C 0.88088 0.40147 0.84273 0.0
C3027 C 0.89623 0.40797 0.83725 0.0
C3028 C 0.86518 0.42209 0.84245 0.0
C3029 C 0.86509 0.3678 0.8546 0.0
C3030 C 0.84801 0.41205 0.83965 0.0
C3031 C 0.83336 0.43157 0.83911 0.0
C3032 C 0.83559 0.46171 0.84123 0.0
C3033 C 0.85284 0.4718 0.84395 0.0
C3034 C 0.86748 0.45218 0.84455 0.0
H3035 H 0.8694 0.35266 0.86028 0.0
H3036 H 0.85918 0.38798 0.8578 0.0
H3037 H 0.85434 0.35646 0.85053 0.0
H3038 H 0.84599 0.38917 0.8377 0.0
H3039 H 0.8204 0.42316 0.83678 0.0
loop_
_geom_bond_atom_site_label_1
_geom_bond_atom_site_label_2
_geom_bond_distance
_geom_bond_site_symmetry_2
_ccdc_geom_bond_type
Cu0 N1 1.999 . S
Cu0 O6 1.974 . S
Cu0 N11 1.985 1_545 S
Cu0 O20 1.959 1_545 S
N1 Cu0 1.999 . S
N1 C3 1.263 . S
N1 C5 1.389 . S
N2 C3 1.358 . S
N2 C4 1.400 . S
C3 N1 1.263 . S
C3 N2 1.358 . S
C3 H9 0.930 . S
C4 N2 1.400 . S
C4 C5 1.351 . S
C4 H21 0.930 . S
C5 N1 1.389 . S
C5 C4 1.351 . S
C5 H10 0.930 1_545 S
O6 Cu0 1.974 . S
O6 C16 1.282 . S
C7 O8 1.261 . S
C7 O20 1.251 1_545 S
O8 C7 1.261 . S
H9 C3 0.930 . S
H10 C5 0.930 1_565 S
N11 Cu0 1.985 1_565 S
N11 C13 1.335 . S
N11 C14 1.390 1_565 S
N12 C13 1.345 . S
N12 C15 1.336 . S
C13 N11 1.335 . S
C13 N12 1.345 . S
C13 H18 0.930 . S
C14 N11 1.390 1_545 S
C14 C15 1.346 1_545 S
C14 H19 0.930 . S
C15 N12 1.336 . S
C15 C14 1.346 1_565 S
C15 H22 0.929 . S
C16 O6 1.282 . S
C16 O17 1.216 . S
O17 C16 1.216 . S
H18 C13 0.930 . S
H19 C14 0.930 . S
O20 Cu0 1.959 1_565 S
O20 C7 1.251 1_565 S
H21 C4 0.930 . S
H22 C15 0.929 . S
Cu23 N24 1.999 . S
Cu23 O29 1.974 . S
Cu23 N34 1.985 . S
Cu23 O43 1.959 . S
N24 Cu23 1.999 . S
N24 C26 1.263 . S
N24 C28 1.389 . S
N25 C26 1.358 . S
N25 C27 1.400 . S
C26 N24 1.263 . S
C26 N25 1.358 . S
C26 H32 0.930 . S
C27 N25 1.400 . S
C27 C28 1.351 . S
C27 H44 0.930 . S
C28 N24 1.389 . S
C28 C27 1.351 . S
C28 H33 0.930 . S
O29 Cu23 1.974 . S
O29 C39 1.282 . S
C30 O31 1.261 . S
C30 O43 1.251 . S
O31 C30 1.261 . S
H32 C26 0.930 . S
H33 C28 0.930 . S
N34 Cu23 1.985 . S
N34 C36 1.335 . S
N34 C37 1.390 . S
N35 C36 1.345 . S
N35 C38 1.336 . S
C36 N34 1.335 . S
C36 N35 1.345 . S
C36 H41 0.930 . S
C37 N34 1.390 . S
C37 C38 1.346 . S
C37 H42 0.930 . S
C38 N35 1.336 . S
C38 C37 1.346 . S
C38 H45 0.929 . S
C39 O29 1.282 . S
C39 O40 1.216 . S
O40 C39 1.216 . S
H41 C36 0.930 . S
H42 C37 0.930 . S
O43 Cu23 1.959 . S
O43 C30 1.251 . S
H44 C27 0.930 . S
H45 C38 0.929 . S
Cu46 N47 1.999 . S
Cu46 O52 1.974 . S
Cu46 N57 1.985 . S
Cu46 O66 1.959 . S
N47 Cu46 1.999 . S
N47 C49 1.263 . S
N47 C51 1.389 . S
N48 C49 1.358 . S
N48 C50 1.400 . S
C49 N47 1.263 . S
C49 N48 1.358 . S
C49 H55 0.930 . S
C50 N48 1.400 . S
C50 C51 1.351 . S
C50 H67 0.930 . S
C51 N47 1.389 . S
C51 C50 1.351 . S
C51 H56 0.930 . S
O52 Cu46 1.974 . S
O52 C62 1.282 . S
C53 O54 1.261 . S
C53 O66 1.251 . S
O54 C53 1.261 . S
H55 C49 0.930 . S
H56 C51 0.930 . S
N57 Cu46 1.985 . S
N57 C59 1.335 . S
N57 C60 1.390 . S
N58 C59 1.345 . S
N58 C61 1.336 . S
C59 N57 1.335 . S
C59 N58 1.345 . S
C59 H64 0.930 . S
C60 N57 1.390 . S
C60 C61 1.346 . S
C60 H65 0.930 . S
C61 N58 1.336 . S
C61 C60 1.346 . S
C61 H68 0.929 . S
C62 O52 1.282 . S
C62 O63 1.216 . S
O63 C62 1.216 . S
H64 C59 0.930 . S
H65 C60 0.930 . S
O66 Cu46 1.959 . S
O66 C53 1.251 . S
H67 C50 0.930 . S
H68 C61 0.929 . S
Cu69 N70 1.999 . S
Cu69 O75 1.974 . S
Cu69 N80 1.985 1_545 S
Cu69 O89 1.959 1_545 S
N70 Cu69 1.999 . S
N70 C72 1.263 . S
N70 C74 1.389 . S
N71 C72 1.358 . S
N71 C73 1.400 . S
C72 N70 1.263 . S
C72 N71 1.358 . S
C72 H78 0.930 . S
C73 N71 1.400 . S
C73 C74 1.351 . S
C73 H90 0.930 . S
C74 N70 1.389 . S
C74 C73 1.351 . S
C74 H79 0.930 1_545 S
O75 Cu69 1.974 . S
O75 C85 1.282 . S
C76 O77 1.261 . S
C76 O89 1.251 1_545 S
O77 C76 1.261 . S
H78 C72 0.930 . S
H79 C74 0.930 1_565 S
N80 Cu69 1.985 1_565 S
N80 C82 1.335 . S
N80 C83 1.390 1_565 S
N81 C82 1.345 . S
N81 C84 1.336 . S
C82 N80 1.335 . S
C82 N81 1.345 . S
C82 H87 0.930 . S
C83 N80 1.390 1_545 S
C83 C84 1.346 1_545 S
C83 H88 0.930 . S
C84 N81 1.336 . S
C84 C83 1.346 1_565 S
C84 H91 0.929 . S
C85 O75 1.282 . S
C85 O86 1.216 . S
O86 C85 1.216 . S
H87 C82 0.930 . S
H88 C83 0.930 . S
O89 Cu69 1.959 1_565 S
O89 C76 1.251 1_565 S
H90 C73 0.930 . S
H91 C84 0.929 . S
Cu92 N93 1.999 . S
Cu92 O98 1.974 . S
Cu92 N103 1.985 1_565 S
Cu92 O112 1.959 1_565 S
N93 Cu92 1.999 . S
N93 C95 1.263 . S
N93 C97 1.389 . S
N94 C95 1.358 . S
N94 C96 1.400 . S
C95 N93 1.263 . S
C95 N94 1.358 . S
C95 H101 0.930 . S
C96 N94 1.400 . S
C96 C97 1.351 . S
C96 H113 0.930 . S
C97 N93 1.389 . S
C97 C96 1.351 . S
C97 H102 0.930 1_565 S
O98 Cu92 1.974 . S
O98 C108 1.282 . S
C99 O100 1.261 . S
C99 O112 1.251 1_565 S
O100 C99 1.261 . S
H101 C95 0.930 . S
H102 C97 0.930 1_545 S
N103 Cu92 1.985 1_545 S
N103 C105 1.335 . S
N103 C106 1.390 1_545 S
N104 C105 1.345 . S
N104 C107 1.336 . S
C105 N103 1.335 . S
C105 N104 1.345 . S
C105 H110 0.930 . S
C106 N103 1.390 1_565 S
C106 C107 1.346 1_565 S
C106 H111 0.930 . S
C107 N104 1.336 . S
C107 C106 1.346 1_545 S
C107 H114 0.929 . S
C108 O98 1.282 . S
C108 O109 1.216 . S
O109 C108 1.216 . S
H110 C105 0.930 . S
H111 C106 0.930 . S
O112 Cu92 1.959 1_545 S
O112 C99 1.251 1_545 S
H113 C96 0.930 . S
H114 C107 0.929 . S
Cu115 N116 1.999 . S
Cu115 O121 1.974 . S
Cu115 N126 1.985 . S
Cu115 O135 1.959 . S
N116 Cu115 1.999 . S
N116 C118 1.263 . S
N116 C120 1.389 . S
N117 C118 1.358 . S
N117 C119 1.400 . S
C118 N116 1.263 . S
C118 N117 1.358 . S
C118 H124 0.930 . S
C119 N117 1.400 . S
C119 C120 1.351 . S
C119 H136 0.930 . S
C120 N116 1.389 . S
C120 C119 1.351 . S
C120 H125 0.930 . S
O121 Cu115 1.974 . S
O121 C131 1.282 . S
C122 O123 1.261 . S
C122 O135 1.251 . S
O123 C122 1.261 . S
H124 C118 0.930 . S
H125 C120 0.930 . S
N126 Cu115 1.985 . S
N126 C128 1.335 . S
N126 C129 1.390 . S
N127 C128 1.345 . S
N127 C130 1.336 . S
C128 N126 1.335 . S
C128 N127 1.345 . S
C128 H133 0.930 . S
C129 N126 1.390 . S
C129 C130 1.346 . S
C129 H134 0.930 . S
C130 N127 1.336 . S
C130 C129 1.346 . S
C130 H137 0.929 . S
C131 O121 1.282 . S
C131 O132 1.216 . S
O132 C131 1.216 . S
H133 C128 0.930 . S
H134 C129 0.930 . S
O135 Cu115 1.959 . S
O135 C122 1.251 . S
H136 C119 0.930 . S
H137 C130 0.929 . S
Cu138 N139 1.999 . S
Cu138 O144 1.974 . S
Cu138 N149 1.985 . S
Cu138 O158 1.959 . S
N139 Cu138 1.999 . S
N139 C141 1.263 . S
N139 C143 1.389 . S
N140 C141 1.358 . S
N140 C142 1.400 . S
C141 N139 1.263 . S
C141 N140 1.358 . S
C141 H147 0.930 . S
C142 N140 1.400 . S
C142 C143 1.351 . S
C142 H159 0.930 . S
C143 N139 1.389 . S
C143 C142 1.351 . S
C143 H148 0.930 . S
O144 Cu138 1.974 . S
O144 C154 1.282 . S
C145 O146 1.261 . S
C145 O158 1.251 . S
O146 C145 1.261 . S
H147 C141 0.930 . S
H148 C143 0.930 . S
N149 Cu138 1.985 . S
N149 C151 1.335 . S
N149 C152 1.390 . S
N150 C151 1.345 . S
N150 C153 1.336 . S
C151 N149 1.335 . S
C151 N150 1.345 . S
C151 H156 0.930 . S
C152 N149 1.390 . S
C152 C153 1.346 . S
C152 H157 0.930 . S
C153 N150 1.336 . S
C153 C152 1.346 . S
C153 H160 0.929 . S
C154 O144 1.282 . S
C154 O155 1.216 . S
O155 C154 1.216 . S
H156 C151 0.930 . S
H157 C152 0.930 . S
O158 Cu138 1.959 . S
O158 C145 1.251 . S
H159 C142 0.930 . S
H160 C153 0.929 . S
Cu161 N162 1.999 . S
Cu161 O167 1.974 . S
Cu161 N172 1.985 1_565 S
Cu161 O181 1.959 1_565 S
N162 Cu161 1.999 . S
N162 C164 1.263 . S
N162 C166 1.389 . S
N163 C164 1.358 . S
N163 C165 1.400 . S
C164 N162 1.263 . S
C164 N163 1.358 . S
C164 H170 0.930 . S
C165 N163 1.400 . S
C165 C166 1.351 . S
C165 H182 0.930 . S
C166 N162 1.389 . S
C166 C165 1.351 . S
C166 H171 0.930 1_565 S
O167 Cu161 1.974 . S
O167 C177 1.282 . S
C168 O169 1.261 . S
C168 O181 1.251 1_565 S
O169 C168 1.261 . S
H170 C164 0.930 . S
H171 C166 0.930 1_545 S
N172 Cu161 1.985 1_545 S
N172 C174 1.335 . S
N172 C175 1.390 1_545 S
N173 C174 1.345 . S
N173 C176 1.336 . S
C174 N172 1.335 . S
C174 N173 1.345 . S
C174 H179 0.930 . S
C175 N172 1.390 1_565 S
C175 C176 1.346 1_565 S
C175 H180 0.930 . S
C176 N173 1.336 . S
C176 C175 1.346 1_545 S
C176 H183 0.929 . S
C177 O167 1.282 . S
C177 O178 1.216 . S
O178 C177 1.216 . S
H179 C174 0.930 . S
H180 C175 0.930 . S
O181 Cu161 1.959 1_545 S
O181 C168 1.251 1_545 S
H182 C165 0.930 . S
H183 C176 0.929 . S
Cu184 N185 1.999 . S
Cu184 O190 1.974 . S
Cu184 N195 1.985 . S
Cu184 O204 1.959 . S
N185 Cu184 1.999 . S
N185 C187 1.263 . S
N185 C189 1.389 . S
N186 C187 1.358 . S
N186 C188 1.400 . S
C187 N185 1.263 . S
C187 N186 1.358 . S
C187 H193 0.930 . S
C188 N186 1.400 . S
C188 C189 1.351 . S
C188 H205 0.930 . S
C189 N185 1.389 . S
C189 C188 1.351 . S
C189 H194 0.930 . S
O190 Cu184 1.974 . S
O190 C200 1.282 . S
C191 O192 1.261 . S
C191 O204 1.251 . S
O192 C191 1.261 . S
H193 C187 0.930 . S
H194 C189 0.930 . S
N195 Cu184 1.985 . S
N195 C197 1.335 . S
N195 C198 1.390 . S
N196 C197 1.345 . S
N196 C199 1.336 . S
C197 N195 1.335 . S
C197 N196 1.345 . S
C197 H202 0.930 . S
C198 N195 1.390 . S
C198 C199 1.346 . S
C198 H203 0.930 . S
C199 N196 1.336 . S
C199 C198 1.346 . S
C199 H206 0.929 . S
C200 O190 1.282 . S
C200 O201 1.216 . S
O201 C200 1.216 . S
H202 C197 0.930 . S
H203 C198 0.930 . S
O204 Cu184 1.959 . S
O204 C191 1.251 . S
H205 C188 0.930 . S
H206 C199 0.929 . S
Cu207 N208 1.999 . S
Cu207 O213 1.974 . S
Cu207 N218 1.985 . S
Cu207 O227 1.959 . S
N208 Cu207 1.999 . S
N208 C210 1.263 . S
N208 C212 1.389 . S
N209 C210 1.358 . S
N209 C211 1.400 . S
C210 N208 1.263 . S
C210 N209 1.358 . S
C210 H216 0.930 . S
C211 N209 1.400 . S
C211 C212 1.351 . S
C211 H228 0.930 . S
C212 N208 1.389 . S
C212 C211 1.351 . S
C212 H217 0.930 . S
O213 Cu207 1.974 . S
O213 C223 1.282 . S
C214 O215 1.261 . S
C214 O227 1.251 . S
O215 C214 1.261 . S
H216 C210 0.930 . S
H217 C212 0.930 . S
N218 Cu207 1.985 . S
N218 C220 1.335 . S
N218 C221 1.390 . S
N219 C220 1.345 . S
N219 C222 1.336 . S
C220 N218 1.335 . S
C220 N219 1.345 . S
C220 H225 0.930 . S
C221 N218 1.390 . S
C221 C222 1.346 . S
C221 H226 0.930 . S
C222 N219 1.336 . S
C222 C221 1.346 . S
C222 H229 0.929 . S
C223 O213 1.282 . S
C223 O224 1.216 . S
O224 C223 1.216 . S
H225 C220 0.930 . S
H226 C221 0.930 . S
O227 Cu207 1.959 . S
O227 C214 1.251 . S
H228 C211 0.930 . S
H229 C222 0.929 . S
Cu230 N231 1.999 . S
Cu230 O236 1.974 . S
Cu230 N241 1.985 . S
Cu230 O250 1.959 . S
N231 Cu230 1.999 . S
N231 C233 1.263 . S
N231 C235 1.389 . S
N232 C233 1.358 . S
N232 C234 1.400 . S
C233 N231 1.263 . S
C233 N232 1.358 . S
C233 H239 0.930 . S
C234 N232 1.400 . S
C234 C235 1.351 . S
C234 H251 0.930 . S
C235 N231 1.389 . S
C235 C234 1.351 . S
C235 H240 0.930 . S
O236 Cu230 1.974 . S
O236 C246 1.282 . S
C237 O238 1.261 . S
C237 O250 1.251 . S
O238 C237 1.261 . S
H239 C233 0.930 . S
H240 C235 0.930 . S
N241 Cu230 1.985 . S
N241 C243 1.335 . S
N241 C244 1.390 . S
N242 C243 1.345 . S
N242 C245 1.336 . S
C243 N241 1.335 . S
C243 N242 1.345 . S
C243 H248 0.930 . S
C244 N241 1.390 . S
C244 C245 1.346 . S
C244 H249 0.930 . S
C245 N242 1.336 . S
C245 C244 1.346 . S
C245 H252 0.929 . S
C246 O236 1.282 . S
C246 O247 1.216 . S
O247 C246 1.216 . S
H248 C243 0.930 . S
H249 C244 0.930 . S
O250 Cu230 1.959 . S
O250 C237 1.251 . S
H251 C234 0.930 . S
H252 C245 0.929 . S
Cu253 N254 1.999 . S
Cu253 O259 1.974 . S
Cu253 N264 1.985 . S
Cu253 O273 1.959 . S
N254 Cu253 1.999 . S
N254 C256 1.263 . S
N254 C258 1.389 . S
N255 C256 1.358 . S
N255 C257 1.400 . S
C256 N254 1.263 . S
C256 N255 1.358 . S
C256 H262 0.930 . S
C257 N255 1.400 . S
C257 C258 1.351 . S
C257 H274 0.930 . S
C258 N254 1.389 . S
C258 C257 1.351 . S
C258 H263 0.930 . S
O259 Cu253 1.974 . S
O259 C269 1.282 . S
C260 O261 1.261 . S
C260 O273 1.251 . S
O261 C260 1.261 . S
H262 C256 0.930 . S
H263 C258 0.930 . S
N264 Cu253 1.985 . S
N264 C266 1.335 . S
N264 C267 1.390 . S
N265 C266 1.345 . S
N265 C268 1.336 . S
C266 N264 1.335 . S
C266 N265 1.345 . S
C266 H271 0.930 . S
C267 N264 1.390 . S
C267 C268 1.346 . S
C267 H272 0.930 . S
C268 N265 1.336 . S
C268 C267 1.346 . S
C268 H275 0.929 . S
C269 O259 1.282 . S
C269 O270 1.216 . S
O270 C269 1.216 . S
H271 C266 0.930 . S
H272 C267 0.930 . S
O273 Cu253 1.959 . S
O273 C260 1.251 . S
H274 C257 0.930 . S
H275 C268 0.929 . S
Cu276 N277 1.999 . S
Cu276 O282 1.974 . S
Cu276 N287 1.985 . S
Cu276 O296 1.959 . S
N277 Cu276 1.999 . S
N277 C279 1.263 . S
N277 C281 1.389 . S
N278 C279 1.358 . S
N278 C280 1.400 . S
C279 N277 1.263 . S
C279 N278 1.358 . S
C279 H285 0.930 . S
C280 N278 1.400 . S
C280 C281 1.351 . S
C280 H297 0.930 . S
C281 N277 1.389 . S
C281 C280 1.351 . S
C281 H286 0.930 . S
O282 Cu276 1.974 . S
O282 C292 1.282 . S
C283 O284 1.261 . S
C283 O296 1.251 . S
O284 C283 1.261 . S
H285 C279 0.930 . S
H286 C281 0.930 . S
N287 Cu276 1.985 . S
N287 C289 1.335 . S
N287 C290 1.390 . S
N288 C289 1.345 . S
N288 C291 1.336 . S
C289 N287 1.335 . S
C289 N288 1.345 . S
C289 H294 0.930 . S
C290 N287 1.390 . S
C290 C291 1.346 . S
C290 H295 0.930 . S
C291 N288 1.336 . S
C291 C290 1.346 . S
C291 H298 0.929 . S
C292 O282 1.282 . S
C292 O293 1.216 . S
O293 C292 1.216 . S
H294 C289 0.930 . S
H295 C290 0.930 . S
O296 Cu276 1.959 . S
O296 C283 1.251 . S
H297 C280 0.930 . S
H298 C291 0.929 . S
Cu299 N300 1.999 . S
Cu299 O305 1.974 . S
Cu299 N310 1.985 . S
Cu299 O319 1.959 . S
N300 Cu299 1.999 . S
N300 C302 1.263 . S
N300 C304 1.389 . S
N301 C302 1.358 . S
N301 C303 1.400 . S
C302 N300 1.263 . S
C302 N301 1.358 . S
C302 H308 0.930 . S
C303 N301 1.400 . S
C303 C304 1.351 . S
C303 H320 0.930 . S
C304 N300 1.389 . S
C304 C303 1.351 . S
C304 H309 0.930 . S
O305 Cu299 1.974 . S
O305 C315 1.282 . S
C306 O307 1.261 . S
C306 O319 1.251 . S
O307 C306 1.261 . S
H308 C302 0.930 . S
H309 C304 0.930 . S
N310 Cu299 1.985 . S
N310 C312 1.335 . S
N310 C313 1.390 . S
N311 C312 1.345 . S
N311 C314 1.336 . S
C312 N310 1.335 . S
C312 N311 1.345 . S
C312 H317 0.930 . S
C313 N310 1.390 . S
C313 C314 1.346 . S
C313 H318 0.930 . S
C314 N311 1.336 . S
C314 C313 1.346 . S
C314 H321 0.929 . S
C315 O305 1.282 . S
C315 O316 1.216 . S
O316 C315 1.216 . S
H317 C312 0.930 . S
H318 C313 0.930 . S
O319 Cu299 1.959 . S
O319 C306 1.251 . S
H320 C303 0.930 . S
H321 C314 0.929 . S
Cu322 N323 1.999 . S
Cu322 O328 1.974 . S
Cu322 N333 1.985 . S
Cu322 O342 1.959 . S
N323 Cu322 1.999 . S
N323 C325 1.263 . S
N323 C327 1.389 . S
N324 C325 1.358 . S
N324 C326 1.400 . S
C325 N323 1.263 . S
C325 N324 1.358 . S
C325 H331 0.930 . S
C326 N324 1.400 . S
C326 C327 1.351 . S
C326 H343 0.930 . S
C327 N323 1.389 . S
C327 C326 1.351 . S
C327 H332 0.930 . S
O328 Cu322 1.974 . S
O328 C338 1.282 . S
C329 O330 1.261 . S
C329 O342 1.251 . S
O330 C329 1.261 . S
H331 C325 0.930 . S
H332 C327 0.930 . S
N333 Cu322 1.985 . S
N333 C335 1.335 . S
N333 C336 1.390 . S
N334 C335 1.345 . S
N334 C337 1.336 . S
C335 N333 1.335 . S
C335 N334 1.345 . S
C335 H340 0.930 . S
C336 N333 1.390 . S
C336 C337 1.346 . S
C336 H341 0.930 . S
C337 N334 1.336 . S
C337 C336 1.346 . S
C337 H344 0.929 . S
C338 O328 1.282 . S
C338 O339 1.216 . S
O339 C338 1.216 . S
H340 C335 0.930 . S
H341 C336 0.930 . S
O342 Cu322 1.959 . S
O342 C329 1.251 . S
H343 C326 0.930 . S
H344 C337 0.929 . S
Cu345 N346 1.999 . S
Cu345 O351 1.974 . S
Cu345 N356 1.985 . S
Cu345 O365 1.959 . S
N346 Cu345 1.999 . S
N346 C348 1.263 . S
N346 C350 1.389 . S
N347 C348 1.358 . S
N347 C349 1.400 . S
C348 N346 1.263 . S
C348 N347 1.358 . S
C348 H354 0.930 . S
C349 N347 1.400 . S
C349 C350 1.351 . S
C349 H366 0.930 . S
C350 N346 1.389 . S
C350 C349 1.351 . S
C350 H355 0.930 . S
O351 Cu345 1.974 . S
O351 C361 1.282 . S
C352 O353 1.261 . S
C352 O365 1.251 . S
O353 C352 1.261 . S
H354 C348 0.930 . S
H355 C350 0.930 . S
N356 Cu345 1.985 . S
N356 C358 1.335 . S
N356 C359 1.390 . S
N357 C358 1.345 . S
N357 C360 1.336 . S
C358 N356 1.335 . S
C358 N357 1.345 . S
C358 H363 0.930 . S
C359 N356 1.390 . S
C359 C360 1.346 . S
C359 H364 0.930 . S
C360 N357 1.336 . S
C360 C359 1.346 . S
C360 H367 0.929 . S
C361 O351 1.282 . S
C361 O362 1.216 . S
O362 C361 1.216 . S
H363 C358 0.930 . S
H364 C359 0.930 . S
O365 Cu345 1.959 . S
O365 C352 1.251 . S
H366 C349 0.930 . S
H367 C360 0.929 . S
Cu368 N369 1.999 . S
Cu368 O374 1.974 . S
Cu368 N379 1.985 1_445 S
Cu368 O388 1.959 1_545 S
N369 Cu368 1.999 . S
N369 C371 1.263 . S
N369 C373 1.389 . S
N370 C371 1.358 . S
N370 C372 1.400 . S
C371 N369 1.263 . S
C371 N370 1.358 . S
C371 H377 0.930 . S
C372 N370 1.400 . S
C372 C373 1.351 . S
C372 H389 0.930 . S
C373 N369 1.389 . S
C373 C372 1.351 . S
C373 H378 0.930 1_545 S
O374 Cu368 1.974 . S
O374 C384 1.282 1_455 S
C375 O376 1.261 . S
C375 O388 1.251 1_645 S
O376 C375 1.261 . S
H377 C371 0.930 . S
H378 C373 0.930 1_565 S
N379 Cu368 1.985 1_665 S
N379 C381 1.335 . S
N379 C382 1.390 1_565 S
N380 C381 1.345 . S
N380 C383 1.336 . S
C381 N379 1.335 . S
C381 N380 1.345 . S
C381 H386 0.930 . S
C382 N379 1.390 1_545 S
C382 C383 1.346 1_545 S
C382 H387 0.930 . S
C383 N380 1.336 . S
C383 C382 1.346 1_565 S
C383 H390 0.929 . S
C384 O374 1.282 1_655 S
C384 O385 1.216 . S
O385 C384 1.216 . S
H386 C381 0.930 . S
H387 C382 0.930 . S
O388 Cu368 1.959 1_565 S
O388 C375 1.251 1_465 S
H389 C372 0.930 . S
H390 C383 0.929 . S
Cu391 N392 1.999 . S
Cu391 O397 1.974 . S
Cu391 N402 1.985 . S
Cu391 O411 1.959 . S
N392 Cu391 1.999 . S
N392 C394 1.263 . S
N392 C396 1.389 . S
N393 C394 1.358 . S
N393 C395 1.400 . S
C394 N392 1.263 . S
C394 N393 1.358 . S
C394 H400 0.930 . S
C395 N393 1.400 . S
C395 C396 1.351 . S
C395 H412 0.930 . S
C396 N392 1.389 . S
C396 C395 1.351 . S
C396 H401 0.930 . S
O397 Cu391 1.974 . S
O397 C407 1.282 . S
C398 O399 1.261 . S
C398 O411 1.251 . S
O399 C398 1.261 . S
H400 C394 0.930 . S
H401 C396 0.930 . S
N402 Cu391 1.985 . S
N402 C404 1.335 . S
N402 C405 1.390 . S
N403 C404 1.345 . S
N403 C406 1.336 . S
C404 N402 1.335 . S
C404 N403 1.345 . S
C404 H409 0.930 . S
C405 N402 1.390 . S
C405 C406 1.346 . S
C405 H410 0.930 . S
C406 N403 1.336 . S
C406 C405 1.346 . S
C406 H413 0.929 . S
C407 O397 1.282 . S
C407 O408 1.216 . S
O408 C407 1.216 . S
H409 C404 0.930 . S
H410 C405 0.930 . S
O411 Cu391 1.959 . S
O411 C398 1.251 . S
H412 C395 0.930 . S
H413 C406 0.929 . S
Cu414 N415 1.999 . S
Cu414 O420 1.974 . S
Cu414 N425 1.985 1_455 S
Cu414 O434 1.959 . S
N415 Cu414 1.999 . S
N415 C417 1.263 . S
N415 C419 1.389 . S
N416 C417 1.358 . S
N416 C418 1.400 . S
C417 N415 1.263 . S
C417 N416 1.358 . S
C417 H423 0.930 . S
C418 N416 1.400 . S
C418 C419 1.351 . S
C418 H435 0.930 . S
C419 N415 1.389 . S
C419 C418 1.351 . S
C419 H424 0.930 . S
O420 Cu414 1.974 . S
O420 C430 1.282 1_455 S
C421 O422 1.261 . S
C421 O434 1.251 1_655 S
O422 C421 1.261 . S
H423 C417 0.930 . S
H424 C419 0.930 . S
N425 Cu414 1.985 1_655 S
N425 C427 1.335 . S
N425 C428 1.390 . S
N426 C427 1.345 . S
N426 C429 1.336 . S
C427 N425 1.335 . S
C427 N426 1.345 . S
C427 H432 0.930 . S
C428 N425 1.390 . S
C428 C429 1.346 . S
C428 H433 0.930 . S
C429 N426 1.336 . S
C429 C428 1.346 . S
C429 H436 0.929 . S
C430 O420 1.282 1_655 S
C430 O431 1.216 . S
O431 C430 1.216 . S
H432 C427 0.930 . S
H433 C428 0.930 . S
O434 Cu414 1.959 . S
O434 C421 1.251 1_455 S
H435 C418 0.930 . S
H436 C429 0.929 . S
Cu437 N438 1.999 . S
Cu437 O443 1.974 . S
Cu437 N448 1.985 1_545 S
Cu437 O457 1.959 1_545 S
N438 Cu437 1.999 . S
N438 C440 1.263 . S
N438 C442 1.389 . S
N439 C440 1.358 . S
N439 C441 1.400 . S
C440 N438 1.263 . S
C440 N439 1.358 . S
C440 H446 0.930 . S
C441 N439 1.400 . S
C441 C442 1.351 . S
C441 H458 0.930 . S
C442 N438 1.389 . S
C442 C441 1.351 . S
C442 H447 0.930 1_545 S
O443 Cu437 1.974 . S
O443 C453 1.282 . S
C444 O445 1.261 . S
C444 O457 1.251 1_545 S
O445 C444 1.261 . S
H446 C440 0.930 . S
H447 C442 0.930 1_565 S
N448 Cu437 1.985 1_565 S
N448 C450 1.335 . S
N448 C451 1.390 1_565 S
N449 C450 1.345 . S
N449 C452 1.336 . S
C450 N448 1.335 . S
C450 N449 1.345 . S
C450 H455 0.930 . S
C451 N448 1.390 1_545 S
C451 C452 1.346 1_545 S
C451 H456 0.930 . S
C452 N449 1.336 . S
C452 C451 1.346 1_565 S
C452 H459 0.929 . S
C453 O443 1.282 . S
C453 O454 1.216 . S
O454 C453 1.216 . S
H455 C450 0.930 . S
H456 C451 0.930 . S
O457 Cu437 1.959 1_565 S
O457 C444 1.251 1_565 S
H458 C441 0.930 . S
H459 C452 0.929 . S
Cu460 N461 1.999 . S
Cu460 O466 1.974 . S
Cu460 N471 1.985 1_665 S
Cu460 O480 1.959 1_565 S
N461 Cu460 1.999 . S
N461 C463 1.263 . S
N461 C465 1.389 . S
N462 C463 1.358 . S
N462 C464 1.400 . S
C463 N461 1.263 . S
C463 N462 1.358 . S
C463 H469 0.930 . S
C464 N462 1.400 . S
C464 C465 1.351 . S
C464 H481 0.930 . S
C465 N461 1.389 . S
C465 C464 1.351 . S
C465 H470 0.930 1_565 S
O466 Cu460 1.974 . S
O466 C476 1.282 1_655 S
C467 O468 1.261 . S
C467 O480 1.251 1_465 S
O468 C467 1.261 . S
H469 C463 0.930 . S
H470 C465 0.930 1_545 S
N471 Cu460 1.985 1_445 S
N471 C473 1.335 . S
N471 C474 1.390 1_545 S
N472 C473 1.345 . S
N472 C475 1.336 . S
C473 N471 1.335 . S
C473 N472 1.345 . S
C473 H478 0.930 . S
C474 N471 1.390 1_565 S
C474 C475 1.346 1_565 S
C474 H479 0.930 . S
C475 N472 1.336 . S
C475 C474 1.346 1_545 S
C475 H482 0.929 . S
C476 O466 1.282 1_455 S
C476 O477 1.216 . S
O477 C476 1.216 . S
H478 C473 0.930 . S
H479 C474 0.930 . S
O480 Cu460 1.959 1_545 S
O480 C467 1.251 1_645 S
H481 C464 0.930 . S
H482 C475 0.929 . S
Cu483 N484 1.999 . S
Cu483 O489 1.974 . S
Cu483 N494 1.985 . S
Cu483 O503 1.959 . S
N484 Cu483 1.999 . S
N484 C486 1.263 . S
N484 C488 1.389 . S
N485 C486 1.358 . S
N485 C487 1.400 . S
C486 N484 1.263 . S
C486 N485 1.358 . S
C486 H492 0.930 . S
C487 N485 1.400 . S
C487 C488 1.351 . S
C487 H504 0.930 . S
C488 N484 1.389 . S
C488 C487 1.351 . S
C488 H493 0.930 . S
O489 Cu483 1.974 . S
O489 C499 1.282 . S
C490 O491 1.261 . S
C490 O503 1.251 . S
O491 C490 1.261 . S
H492 C486 0.930 . S
H493 C488 0.930 . S
N494 Cu483 1.985 . S
N494 C496 1.335 . S
N494 C497 1.390 . S
N495 C496 1.345 . S
N495 C498 1.336 . S
C496 N494 1.335 . S
C496 N495 1.345 . S
C496 H501 0.930 . S
C497 N494 1.390 . S
C497 C498 1.346 . S
C497 H502 0.930 . S
C498 N495 1.336 . S
C498 C497 1.346 . S
C498 H505 0.929 . S
C499 O489 1.282 . S
C499 O500 1.216 . S
O500 C499 1.216 . S
H501 C496 0.930 . S
H502 C497 0.930 . S
O503 Cu483 1.959 . S
O503 C490 1.251 . S
H504 C487 0.930 . S
H505 C498 0.929 . S
Cu506 N507 1.999 . S
Cu506 O512 1.974 . S
Cu506 N517 1.985 1_655 S
Cu506 O526 1.959 . S
N507 Cu506 1.999 . S
N507 C509 1.263 . S
N507 C511 1.389 . S
N508 C509 1.358 . S
N508 C510 1.400 . S
C509 N507 1.263 . S
C509 N508 1.358 . S
C509 H515 0.930 . S
C510 N508 1.400 . S
C510 C511 1.351 . S
C510 H527 0.930 . S
C511 N507 1.389 . S
C511 C510 1.351 . S
C511 H516 0.930 . S
O512 Cu506 1.974 . S
O512 C522 1.282 1_655 S
C513 O514 1.261 . S
C513 O526 1.251 1_455 S
O514 C513 1.261 . S
H515 C509 0.930 . S
H516 C511 0.930 . S
N517 Cu506 1.985 1_455 S
N517 C519 1.335 . S
N517 C520 1.390 . S
N518 C519 1.345 . S
N518 C521 1.336 . S
C519 N517 1.335 . S
C519 N518 1.345 . S
C519 H524 0.930 . S
C520 N517 1.390 . S
C520 C521 1.346 . S
C520 H525 0.930 . S
C521 N518 1.336 . S
C521 C520 1.346 . S
C521 H528 0.929 . S
C522 O512 1.282 1_455 S
C522 O523 1.216 . S
O523 C522 1.216 . S
H524 C519 0.930 . S
H525 C520 0.930 . S
O526 Cu506 1.959 . S
O526 C513 1.251 1_655 S
H527 C510 0.930 . S
H528 C521 0.929 . S
Cu529 N530 1.999 . S
Cu529 O535 1.974 . S
Cu529 N540 1.985 1_565 S
Cu529 O549 1.959 1_565 S
N530 Cu529 1.999 . S
N530 C532 1.263 . S
N530 C534 1.389 . S
N531 C532 1.358 . S
N531 C533 1.400 . S
C532 N530 1.263 . S
C532 N531 1.358 . S
C532 H538 0.930 . S
C533 N531 1.400 . S
C533 C534 1.351 . S
C533 H550 0.930 . S
C534 N530 1.389 . S
C534 C533 1.351 . S
C534 H539 0.930 1_565 S
O535 Cu529 1.974 . S
O535 C545 1.282 . S
C536 O537 1.261 . S
C536 O549 1.251 1_565 S
O537 C536 1.261 . S
H538 C532 0.930 . S
H539 C534 0.930 1_545 S
N540 Cu529 1.985 1_545 S
N540 C542 1.335 . S
N540 C543 1.390 1_545 S
N541 C542 1.345 . S
N541 C544 1.336 . S
C542 N540 1.335 . S
C542 N541 1.345 . S
C542 H547 0.930 . S
C543 N540 1.390 1_565 S
C543 C544 1.346 1_565 S
C543 H548 0.930 . S
C544 N541 1.336 . S
C544 C543 1.346 1_545 S
C544 H551 0.929 . S
C545 O535 1.282 . S
C545 O546 1.216 . S
O546 C545 1.216 . S
H547 C542 0.930 . S
H548 C543 0.930 . S
O549 Cu529 1.959 1_545 S
O549 C536 1.251 1_545 S
H550 C533 0.930 . S
H551 C544 0.929 . S
Cu552 N553 1.999 . S
Cu552 O558 1.974 . S
Cu552 N563 1.985 1_455 S
Cu552 O572 1.959 . S
N553 Cu552 1.999 . S
N553 C555 1.263 . S
N553 C557 1.389 . S
N554 C555 1.358 . S
N554 C556 1.400 . S
C555 N553 1.263 . S
C555 N554 1.358 . S
C555 H561 0.930 . S
C556 N554 1.400 . S
C556 C557 1.351 . S
C556 H573 0.930 . S
C557 N553 1.389 . S
C557 C556 1.351 . S
C557 H562 0.930 . S
O558 Cu552 1.974 . S
O558 C568 1.282 1_455 S
C559 O560 1.261 . S
C559 O572 1.251 1_655 S
O560 C559 1.261 . S
H561 C555 0.930 . S
H562 C557 0.930 . S
N563 Cu552 1.985 1_655 S
N563 C565 1.335 . S
N563 C566 1.390 . S
N564 C565 1.345 . S
N564 C567 1.336 . S
C565 N563 1.335 . S
C565 N564 1.345 . S
C565 H570 0.930 . S
C566 N563 1.390 . S
C566 C567 1.346 . S
C566 H571 0.930 . S
C567 N564 1.336 . S
C567 C566 1.346 . S
C567 H574 0.929 . S
C568 O558 1.282 1_655 S
C568 O569 1.216 . S
O569 C568 1.216 . S
H570 C565 0.930 . S
H571 C566 0.930 . S
O572 Cu552 1.959 . S
O572 C559 1.251 1_455 S
H573 C556 0.930 . S
H574 C567 0.929 . S
Cu575 N576 1.999 . S
Cu575 O581 1.974 . S
Cu575 N586 1.985 . S
Cu575 O595 1.959 . S
N576 Cu575 1.999 . S
N576 C578 1.263 . S
N576 C580 1.389 . S
N577 C578 1.358 . S
N577 C579 1.400 . S
C578 N576 1.263 . S
C578 N577 1.358 . S
C578 H584 0.930 . S
C579 N577 1.400 . S
C579 C580 1.351 . S
C579 H596 0.930 . S
C580 N576 1.389 . S
C580 C579 1.351 . S
C580 H585 0.930 . S
O581 Cu575 1.974 . S
O581 C591 1.282 . S
C582 O583 1.261 . S
C582 O595 1.251 . S
O583 C582 1.261 . S
H584 C578 0.930 . S
H585 C580 0.930 . S
N586 Cu575 1.985 . S
N586 C588 1.335 . S
N586 C589 1.390 . S
N587 C588 1.345 . S
N587 C590 1.336 . S
C588 N586 1.335 . S
C588 N587 1.345 . S
C588 H593 0.930 . S
C589 N586 1.390 . S
C589 C590 1.346 . S
C589 H594 0.930 . S
C590 N587 1.336 . S
C590 C589 1.346 . S
C590 H597 0.929 . S
C591 O581 1.282 . S
C591 O592 1.216 . S
O592 C591 1.216 . S
H593 C588 0.930 . S
H594 C589 0.930 . S
O595 Cu575 1.959 . S
O595 C582 1.251 . S
H596 C579 0.930 . S
H597 C590 0.929 . S
Cu598 N599 1.999 . S
Cu598 O604 1.974 . S
Cu598 N609 1.985 1_455 S
Cu598 O618 1.959 . S
N599 Cu598 1.999 . S
N599 C601 1.263 . S
N599 C603 1.389 . S
N600 C601 1.358 . S
N600 C602 1.400 . S
C601 N599 1.263 . S
C601 N600 1.358 . S
C601 H607 0.930 . S
C602 N600 1.400 . S
C602 C603 1.351 . S
C602 H619 0.930 . S
C603 N599 1.389 . S
C603 C602 1.351 . S
C603 H608 0.930 . S
O604 Cu598 1.974 . S
O604 C614 1.282 1_455 S
C605 O606 1.261 . S
C605 O618 1.251 1_655 S
O606 C605 1.261 . S
H607 C601 0.930 . S
H608 C603 0.930 . S
N609 Cu598 1.985 1_655 S
N609 C611 1.335 . S
N609 C612 1.390 . S
N610 C611 1.345 . S
N610 C613 1.336 . S
C611 N609 1.335 . S
C611 N610 1.345 . S
C611 H616 0.930 . S
C612 N609 1.390 . S
C612 C613 1.346 . S
C612 H617 0.930 . S
C613 N610 1.336 . S
C613 C612 1.346 . S
C613 H620 0.929 . S
C614 O604 1.282 1_655 S
C614 O615 1.216 . S
O615 C614 1.216 . S
H616 C611 0.930 . S
H617 C612 0.930 . S
O618 Cu598 1.959 . S
O618 C605 1.251 1_455 S
H619 C602 0.930 . S
H620 C613 0.929 . S
Cu621 N622 1.999 . S
Cu621 O627 1.974 . S
Cu621 N632 1.985 . S
Cu621 O641 1.959 . S
N622 Cu621 1.999 . S
N622 C624 1.263 . S
N622 C626 1.389 . S
N623 C624 1.358 . S
N623 C625 1.400 . S
C624 N622 1.263 . S
C624 N623 1.358 . S
C624 H630 0.930 . S
C625 N623 1.400 . S
C625 C626 1.351 . S
C625 H642 0.930 . S
C626 N622 1.389 . S
C626 C625 1.351 . S
C626 H631 0.930 . S
O627 Cu621 1.974 . S
O627 C637 1.282 . S
C628 O629 1.261 . S
C628 O641 1.251 . S
O629 C628 1.261 . S
H630 C624 0.930 . S
H631 C626 0.930 . S
N632 Cu621 1.985 . S
N632 C634 1.335 . S
N632 C635 1.390 . S
N633 C634 1.345 . S
N633 C636 1.336 . S
C634 N632 1.335 . S
C634 N633 1.345 . S
C634 H639 0.930 . S
C635 N632 1.390 . S
C635 C636 1.346 . S
C635 H640 0.930 . S
C636 N633 1.336 . S
C636 C635 1.346 . S
C636 H643 0.929 . S
C637 O627 1.282 . S
C637 O638 1.216 . S
O638 C637 1.216 . S
H639 C634 0.930 . S
H640 C635 0.930 . S
O641 Cu621 1.959 . S
O641 C628 1.251 . S
H642 C625 0.930 . S
H643 C636 0.929 . S
Cu644 N645 1.999 . S
Cu644 O650 1.974 . S
Cu644 N655 1.985 1_655 S
Cu644 O664 1.959 . S
N645 Cu644 1.999 . S
N645 C647 1.263 . S
N645 C649 1.389 . S
N646 C647 1.358 . S
N646 C648 1.400 . S
C647 N645 1.263 . S
C647 N646 1.358 . S
C647 H653 0.930 . S
C648 N646 1.400 . S
C648 C649 1.351 . S
C648 H665 0.930 . S
C649 N645 1.389 . S
C649 C648 1.351 . S
C649 H654 0.930 . S
O650 Cu644 1.974 . S
O650 C660 1.282 1_655 S
C651 O652 1.261 . S
C651 O664 1.251 1_455 S
O652 C651 1.261 . S
H653 C647 0.930 . S
H654 C649 0.930 . S
N655 Cu644 1.985 1_455 S
N655 C657 1.335 . S
N655 C658 1.390 . S
N656 C657 1.345 . S
N656 C659 1.336 . S
C657 N655 1.335 . S
C657 N656 1.345 . S
C657 H662 0.930 . S
C658 N655 1.390 . S
C658 C659 1.346 . S
C658 H663 0.930 . S
C659 N656 1.336 . S
C659 C658 1.346 . S
C659 H666 0.929 . S
C660 O650 1.282 1_455 S
C660 O661 1.216 . S
O661 C660 1.216 . S
H662 C657 0.930 . S
H663 C658 0.930 . S
O664 Cu644 1.959 . S
O664 C651 1.251 1_655 S
H665 C648 0.930 . S
H666 C659 0.929 . S
Cu667 N668 1.999 . S
Cu667 O673 1.974 . S
Cu667 N678 1.985 . S
Cu667 O687 1.959 . S
N668 Cu667 1.999 . S
N668 C670 1.263 . S
N668 C672 1.389 . S
N669 C670 1.358 . S
N669 C671 1.400 . S
C670 N668 1.263 . S
C670 N669 1.358 . S
C670 H676 0.930 . S
C671 N669 1.400 . S
C671 C672 1.351 . S
C671 H688 0.930 . S
C672 N668 1.389 . S
C672 C671 1.351 . S
C672 H677 0.930 . S
O673 Cu667 1.974 . S
O673 C683 1.282 . S
C674 O675 1.261 . S
C674 O687 1.251 . S
O675 C674 1.261 . S
H676 C670 0.930 . S
H677 C672 0.930 . S
N678 Cu667 1.985 . S
N678 C680 1.335 . S
N678 C681 1.390 . S
N679 C680 1.345 . S
N679 C682 1.336 . S
C680 N678 1.335 . S
C680 N679 1.345 . S
C680 H685 0.930 . S
C681 N678 1.390 . S
C681 C682 1.346 . S
C681 H686 0.930 . S
C682 N679 1.336 . S
C682 C681 1.346 . S
C682 H689 0.929 . S
C683 O673 1.282 . S
C683 O684 1.216 . S
O684 C683 1.216 . S
H685 C680 0.930 . S
H686 C681 0.930 . S
O687 Cu667 1.959 . S
O687 C674 1.251 . S
H688 C671 0.930 . S
H689 C682 0.929 . S
Cu690 N691 1.999 . S
Cu690 O696 1.974 . S
Cu690 N701 1.985 1_655 S
Cu690 O710 1.959 . S
N691 Cu690 1.999 . S
N691 C693 1.263 . S
N691 C695 1.389 . S
N692 C693 1.358 . S
N692 C694 1.400 . S
C693 N691 1.263 . S
C693 N692 1.358 . S
C693 H699 0.930 . S
C694 N692 1.400 . S
C694 C695 1.351 . S
C694 H711 0.930 . S
C695 N691 1.389 . S
C695 C694 1.351 . S
C695 H700 0.930 . S
O696 Cu690 1.974 . S
O696 C706 1.282 1_655 S
C697 O698 1.261 . S
C697 O710 1.251 1_455 S
O698 C697 1.261 . S
H699 C693 0.930 . S
H700 C695 0.930 . S
N701 Cu690 1.985 1_455 S
N701 C703 1.335 . S
N701 C704 1.390 . S
N702 C703 1.345 . S
N702 C705 1.336 . S
C703 N701 1.335 . S
C703 N702 1.345 . S
C703 H708 0.930 . S
C704 N701 1.390 . S
C704 C705 1.346 . S
C704 H709 0.930 . S
C705 N702 1.336 . S
C705 C704 1.346 . S
C705 H712 0.929 . S
C706 O696 1.282 1_455 S
C706 O707 1.216 . S
O707 C706 1.216 . S
H708 C703 0.930 . S
H709 C704 0.930 . S
O710 Cu690 1.959 . S
O710 C697 1.251 1_655 S
H711 C694 0.930 . S
H712 C705 0.929 . S
Cu713 N714 1.999 . S
Cu713 O719 1.974 . S
Cu713 N724 1.985 . S
Cu713 O733 1.959 . S
N714 Cu713 1.999 . S
N714 C716 1.263 . S
N714 C718 1.389 . S
N715 C716 1.358 . S
N715 C717 1.400 . S
C716 N714 1.263 . S
C716 N715 1.358 . S
C716 H722 0.930 . S
C717 N715 1.400 . S
C717 C718 1.351 . S
C717 H734 0.930 . S
C718 N714 1.389 . S
C718 C717 1.351 . S
C718 H723 0.930 . S
O719 Cu713 1.974 . S
O719 C729 1.282 . S
C720 O721 1.261 . S
C720 O733 1.251 . S
O721 C720 1.261 . S
H722 C716 0.930 . S
H723 C718 0.930 . S
N724 Cu713 1.985 . S
N724 C726 1.335 . S
N724 C727 1.390 . S
N725 C726 1.345 . S
N725 C728 1.336 . S
C726 N724 1.335 . S
C726 N725 1.345 . S
C726 H731 0.930 . S
C727 N724 1.390 . S
C727 C728 1.346 . S
C727 H732 0.930 . S
C728 N725 1.336 . S
C728 C727 1.346 . S
C728 H735 0.929 . S
C729 O719 1.282 . S
C729 O730 1.216 . S
O730 C729 1.216 . S
H731 C726 0.930 . S
H732 C727 0.930 . S
O733 Cu713 1.959 . S
O733 C720 1.251 . S
H734 C717 0.930 . S
H735 C728 0.929 . S
H736 C744 0.929 . S
H737 C746 0.930 . S
H738 C748 0.930 . S
H739 C751 0.929 . S
H740 C754 0.930 . S
H741 C756 0.960 . S
H742 C756 0.960 . S
H743 C756 0.960 . S
C744 H736 0.929 . S
C744 C745 1.377 . S
C744 C746 1.384 . S
C745 C744 1.377 . S
C745 C751 1.390 . S
C746 H737 0.930 . S
C746 C744 1.384 . S
C746 C747 1.372 . S
C747 C746 1.372 . S
C747 C748 1.400 . S
C747 C752 1.490 . S
C748 H738 0.930 . S
C748 C747 1.400 . S
C748 C751 1.386 . S
H749 C765 0.930 . S
H750 C766 0.931 . S
C751 H739 0.929 . S
C751 C745 1.390 . S
C751 C748 1.386 . S
C752 C747 1.490 . S
C752 C754 1.395 . S
C752 C755 1.403 . S
H753 C759 0.930 . S
C754 H740 0.930 . S
C754 C752 1.395 . S
C754 C757 1.403 . S
C755 C752 1.403 . S
C755 C756 1.524 . S
C755 C759 1.400 . S
C756 H741 0.960 . S
C756 H742 0.960 . S
C756 H743 0.960 . S
C756 C755 1.524 . S
C757 C754 1.403 . S
C757 C758 1.392 . S
C757 C761 1.495 . S
C758 C757 1.392 . S
C758 C759 1.385 . S
C758 C760 1.478 . S
C759 H753 0.930 . S
C759 C755 1.400 . S
C759 C758 1.385 . S
C760 C758 1.478 . S
C760 C762 1.381 . S
C760 C766 1.383 . S
C761 C757 1.495 . S
C761 H767 0.959 . S
C761 H768 0.961 . S
C761 H769 0.960 . S
C762 C760 1.381 . S
C762 C763 1.394 . S
C762 H770 0.930 . S
C763 C762 1.394 . S
C763 C764 1.383 . S
C763 H771 0.929 . S
C764 C763 1.383 . S
C764 C765 1.377 . S
C765 H749 0.930 . S
C765 C764 1.377 . S
C765 C766 1.379 . S
C766 H750 0.931 . S
C766 C760 1.383 . S
C766 C765 1.379 . S
H767 C761 0.959 . S
H768 C761 0.961 . S
H769 C761 0.960 . S
H770 C762 0.930 . S
H771 C763 0.929 . S
H772 C780 0.929 . S
H773 C782 0.930 . S
H774 C784 0.930 . S
H775 C787 0.929 . S
H776 C790 0.930 . S
H777 C792 0.960 . S
H778 C792 0.960 . S
H779 C792 0.960 . S
C780 H772 0.929 . S
C780 C781 1.377 . S
C780 C782 1.384 . S
C781 C780 1.377 . S
C781 C787 1.390 . S
C782 H773 0.930 . S
C782 C780 1.384 . S
C782 C783 1.372 . S
C783 C782 1.372 . S
C783 C784 1.400 . S
C783 C788 1.490 . S
C784 H774 0.930 . S
C784 C783 1.400 . S
C784 C787 1.386 . S
H785 C801 0.930 . S
H786 C802 0.931 . S
C787 H775 0.929 . S
C787 C781 1.390 . S
C787 C784 1.386 . S
C788 C783 1.490 . S
C788 C790 1.395 . S
C788 C791 1.403 . S
H789 C795 0.930 . S
C790 H776 0.930 . S
C790 C788 1.395 . S
C790 C793 1.403 . S
C791 C788 1.403 . S
C791 C792 1.524 . S
C791 C795 1.400 . S
C792 H777 0.960 . S
C792 H778 0.960 . S
C792 H779 0.960 . S
C792 C791 1.524 . S
C793 C790 1.403 . S
C793 C794 1.392 . S
C793 C797 1.495 . S
C794 C793 1.392 . S
C794 C795 1.385 . S
C794 C796 1.478 . S
C795 H789 0.930 . S
C795 C791 1.400 . S
C795 C794 1.385 . S
C796 C794 1.478 . S
C796 C798 1.381 . S
C796 C802 1.383 . S
C797 C793 1.495 . S
C797 H803 0.959 . S
C797 H804 0.961 . S
C797 H805 0.960 . S
C798 C796 1.381 . S
C798 C799 1.394 . S
C798 H806 0.930 . S
C799 C798 1.394 . S
C799 C800 1.383 . S
C799 H807 0.929 . S
C800 C799 1.383 . S
C800 C801 1.377 . S
C801 H785 0.930 . S
C801 C800 1.377 . S
C801 C802 1.379 . S
C802 H786 0.931 . S
C802 C796 1.383 . S
C802 C801 1.379 . S
H803 C797 0.959 . S
H804 C797 0.961 . S
H805 C797 0.960 . S
H806 C798 0.930 . S
H807 C799 0.929 . S
H808 C816 0.929 . S
H809 C818 0.930 . S
H810 C820 0.930 . S
H811 C823 0.929 . S
H812 C826 0.930 . S
H813 C828 0.960 . S
H814 C828 0.960 . S
H815 C828 0.960 . S
C816 H808 0.929 . S
C816 C817 1.377 . S
C816 C818 1.384 . S
C817 C816 1.377 . S
C817 C823 1.390 . S
C818 H809 0.930 . S
C818 C816 1.384 . S
C818 C819 1.372 . S
C819 C818 1.372 . S
C819 C820 1.400 . S
C819 C824 1.490 . S
C820 H810 0.930 . S
C820 C819 1.400 . S
C820 C823 1.386 . S
H821 C837 0.930 . S
H822 C838 0.931 . S
C823 H811 0.929 . S
C823 C817 1.390 . S
C823 C820 1.386 . S
C824 C819 1.490 . S
C824 C826 1.395 . S
C824 C827 1.403 . S
H825 C831 0.930 . S
C826 H812 0.930 . S
C826 C824 1.395 . S
C826 C829 1.403 . S
C827 C824 1.403 . S
C827 C828 1.524 . S
C827 C831 1.400 . S
C828 H813 0.960 . S
C828 H814 0.960 . S
C828 H815 0.960 . S
C828 C827 1.524 . S
C829 C826 1.403 . S
C829 C830 1.392 . S
C829 C833 1.495 . S
C830 C829 1.392 . S
C830 C831 1.385 . S
C830 C832 1.478 . S
C831 H825 0.930 . S
C831 C827 1.400 . S
C831 C830 1.385 . S
C832 C830 1.478 . S
C832 C834 1.381 . S
C832 C838 1.383 . S
C833 C829 1.495 . S
C833 H839 0.959 . S
C833 H840 0.961 . S
C833 H841 0.960 . S
C834 C832 1.381 . S
C834 C835 1.394 . S
C834 H842 0.930 . S
C835 C834 1.394 . S
C835 C836 1.383 . S
C835 H843 0.929 . S
C836 C835 1.383 . S
C836 C837 1.377 . S
C837 H821 0.930 . S
C837 C836 1.377 . S
C837 C838 1.379 . S
C838 H822 0.931 . S
C838 C832 1.383 . S
C838 C837 1.379 . S
H839 C833 0.959 . S
H840 C833 0.961 . S
H841 C833 0.960 . S
H842 C834 0.930 . S
H843 C835 0.929 . S
H844 C852 0.929 . S
H845 C854 0.930 . S
H846 C856 0.930 . S
H847 C859 0.929 . S
H848 C862 0.930 . S
H849 C864 0.960 . S
H850 C864 0.960 . S
H851 C864 0.960 . S
C852 H844 0.929 . S
C852 C853 1.377 . S
C852 C854 1.384 . S
C853 C852 1.377 . S
C853 C859 1.390 . S
C854 H845 0.930 . S
C854 C852 1.384 . S
C854 C855 1.372 . S
C855 C854 1.372 . S
C855 C856 1.400 . S
C855 C860 1.490 . S
C856 H846 0.930 . S
C856 C855 1.400 . S
C856 C859 1.386 . S
H857 C873 0.930 . S
H858 C874 0.931 . S
C859 H847 0.929 . S
C859 C853 1.390 . S
C859 C856 1.386 . S
C860 C855 1.490 . S
C860 C862 1.395 . S
C860 C863 1.403 . S
H861 C867 0.930 . S
C862 H848 0.930 . S
C862 C860 1.395 . S
C862 C865 1.403 . S
C863 C860 1.403 . S
C863 C864 1.524 . S
C863 C867 1.400 . S
C864 H849 0.960 . S
C864 H850 0.960 . S
C864 H851 0.960 . S
C864 C863 1.524 . S
C865 C862 1.403 . S
C865 C866 1.392 . S
C865 C869 1.495 . S
C866 C865 1.392 . S
C866 C867 1.385 . S
C866 C868 1.478 . S
C867 H861 0.930 . S
C867 C863 1.400 . S
C867 C866 1.385 . S
C868 C866 1.478 . S
C868 C870 1.381 . S
C868 C874 1.383 . S
C869 C865 1.495 . S
C869 H875 0.959 . S
C869 H876 0.961 . S
C869 H877 0.960 . S
C870 C868 1.381 . S
C870 C871 1.394 . S
C870 H878 0.930 . S
C871 C870 1.394 . S
C871 C872 1.383 . S
C871 H879 0.929 . S
C872 C871 1.383 . S
C872 C873 1.377 . S
C873 H857 0.930 . S
C873 C872 1.377 . S
C873 C874 1.379 . S
C874 H858 0.931 . S
C874 C868 1.383 . S
C874 C873 1.379 . S
H875 C869 0.959 . S
H876 C869 0.961 . S
H877 C869 0.960 . S
H878 C870 0.930 . S
H879 C871 0.929 . S
H880 C888 0.929 . S
H881 C890 0.930 . S
H882 C892 0.930 . S
H883 C895 0.929 . S
H884 C898 0.930 . S
H885 C900 0.960 . S
H886 C900 0.960 . S
H887 C900 0.960 . S
C888 H880 0.929 . S
C888 C889 1.377 . S
C888 C890 1.384 . S
C889 C888 1.377 . S
C889 C895 1.390 . S
C890 H881 0.930 . S
C890 C888 1.384 . S
C890 C891 1.372 . S
C891 C890 1.372 . S
C891 C892 1.400 . S
C891 C896 1.490 . S
C892 H882 0.930 . S
C892 C891 1.400 . S
C892 C895 1.386 . S
H893 C909 0.930 . S
H894 C910 0.931 . S
C895 H883 0.929 . S
C895 C889 1.390 . S
C895 C892 1.386 . S
C896 C891 1.490 . S
C896 C898 1.395 . S
C896 C899 1.403 . S
H897 C903 0.930 . S
C898 H884 0.930 . S
C898 C896 1.395 . S
C898 C901 1.403 . S
C899 C896 1.403 . S
C899 C900 1.524 . S
C899 C903 1.400 . S
C900 H885 0.960 . S
C900 H886 0.960 . S
C900 H887 0.960 . S
C900 C899 1.524 . S
C901 C898 1.403 . S
C901 C902 1.392 . S
C901 C905 1.495 . S
C902 C901 1.392 . S
C902 C903 1.385 . S
C902 C904 1.478 . S
C903 H897 0.930 . S
C903 C899 1.400 . S
C903 C902 1.385 . S
C904 C902 1.478 . S
C904 C906 1.381 . S
C904 C910 1.383 . S
C905 C901 1.495 . S
C905 H911 0.959 . S
C905 H912 0.961 . S
C905 H913 0.960 . S
C906 C904 1.381 . S
C906 C907 1.394 . S
C906 H914 0.930 . S
C907 C906 1.394 . S
C907 C908 1.383 . S
C907 H915 0.929 . S
C908 C907 1.383 . S
C908 C909 1.377 . S
C909 H893 0.930 . S
C909 C908 1.377 . S
C909 C910 1.379 . S
C910 H894 0.931 . S
C910 C904 1.383 . S
C910 C909 1.379 . S
H911 C905 0.959 . S
H912 C905 0.961 . S
H913 C905 0.960 . S
H914 C906 0.930 . S
H915 C907 0.929 . S
H916 C924 0.929 . S
H917 C926 0.930 . S
H918 C928 0.930 . S
H919 C931 0.929 . S
H920 C934 0.930 . S
H921 C936 0.960 . S
H922 C936 0.960 . S
H923 C936 0.960 . S
C924 H916 0.929 . S
C924 C925 1.377 . S
C924 C926 1.384 . S
C925 C924 1.377 . S
C925 C931 1.390 . S
C926 H917 0.930 . S
C926 C924 1.384 . S
C926 C927 1.372 . S
C927 C926 1.372 . S
C927 C928 1.400 . S
C927 C932 1.490 . S
C928 H918 0.930 . S
C928 C927 1.400 . S
C928 C931 1.386 . S
H929 C945 0.930 . S
H930 C946 0.931 . S
C931 H919 0.929 . S
C931 C925 1.390 . S
C931 C928 1.386 . S
C932 C927 1.490 . S
C932 C934 1.395 . S
C932 C935 1.403 . S
H933 C939 0.930 . S
C934 H920 0.930 . S
C934 C932 1.395 . S
C934 C937 1.403 . S
C935 C932 1.403 . S
C935 C936 1.524 . S
C935 C939 1.400 . S
C936 H921 0.960 . S
C936 H922 0.960 . S
C936 H923 0.960 . S
C936 C935 1.524 . S
C937 C934 1.403 . S
C937 C938 1.392 . S
C937 C941 1.495 . S
C938 C937 1.392 . S
C938 C939 1.385 . S
C938 C940 1.478 . S
C939 H933 0.930 . S
C939 C935 1.400 . S
C939 C938 1.385 . S
C940 C938 1.478 . S
C940 C942 1.381 . S
C940 C946 1.383 . S
C941 C937 1.495 . S
C941 H947 0.959 . S
C941 H948 0.961 . S
C941 H949 0.960 . S
C942 C940 1.381 . S
C942 C943 1.394 . S
C942 H950 0.930 . S
C943 C942 1.394 . S
C943 C944 1.383 . S
C943 H951 0.929 . S
C944 C943 1.383 . S
C944 C945 1.377 . S
C945 H929 0.930 . S
C945 C944 1.377 . S
C945 C946 1.379 . S
C946 H930 0.931 . S
C946 C940 1.383 . S
C946 C945 1.379 . S
H947 C941 0.959 . S
H948 C941 0.961 . S
H949 C941 0.960 . S
H950 C942 0.930 . S
H951 C943 0.929 . S
H952 C960 0.929 . S
H953 C962 0.930 . S
H954 C964 0.930 . S
H955 C967 0.929 . S
H956 C970 0.930 . S
H957 C972 0.960 . S
H958 C972 0.960 . S
H959 C972 0.960 . S
C960 H952 0.929 . S
C960 C961 1.377 . S
C960 C962 1.384 . S
C961 C960 1.377 . S
C961 C967 1.390 . S
C962 H953 0.930 . S
C962 C960 1.384 . S
C962 C963 1.372 . S
C963 C962 1.372 . S
C963 C964 1.400 . S
C963 C968 1.490 . S
C964 H954 0.930 . S
C964 C963 1.400 . S
C964 C967 1.386 . S
H965 C981 0.930 . S
H966 C982 0.931 . S
C967 H955 0.929 . S
C967 C961 1.390 . S
C967 C964 1.386 . S
C968 C963 1.490 . S
C968 C970 1.395 . S
C968 C971 1.403 . S
H969 C975 0.930 . S
C970 H956 0.930 . S
C970 C968 1.395 . S
C970 C973 1.403 . S
C971 C968 1.403 . S
C971 C972 1.524 . S
C971 C975 1.400 . S
C972 H957 0.960 . S
C972 H958 0.960 . S
C972 H959 0.960 . S
C972 C971 1.524 . S
C973 C970 1.403 . S
C973 C974 1.392 . S
C973 C977 1.495 . S
C974 C973 1.392 . S
C974 C975 1.385 . S
C974 C976 1.478 . S
C975 H969 0.930 . S
C975 C971 1.400 . S
C975 C974 1.385 . S
C976 C974 1.478 . S
C976 C978 1.381 . S
C976 C982 1.383 . S
C977 C973 1.495 . S
C977 H983 0.959 . S
C977 H984 0.961 . S
C977 H985 0.960 . S
C978 C976 1.381 . S
C978 C979 1.394 . S
C978 H986 0.930 . S
C979 C978 1.394 . S
C979 C980 1.383 . S
C979 H987 0.929 . S
C980 C979 1.383 . S
C980 C981 1.377 . S
C981 H965 0.930 . S
C981 C980 1.377 . S
C981 C982 1.379 . S
C982 H966 0.931 . S
C982 C976 1.383 . S
C982 C981 1.379 . S
H983 C977 0.959 . S
H984 C977 0.961 . S
H985 C977 0.960 . S
H986 C978 0.930 . S
H987 C979 0.929 . S
H988 C996 0.929 . S
H989 C998 0.930 . S
H990 C1000 0.930 . S
H991 C1003 0.929 . S
H992 C1006 0.930 . S
H993 C1008 0.960 . S
H994 C1008 0.960 . S
H995 C1008 0.960 . S
C996 H988 0.929 . S
C996 C997 1.377 . S
C996 C998 1.384 . S
C997 C996 1.377 . S
C997 C1003 1.390 . S
C998 H989 0.930 . S
C998 C996 1.384 . S
C998 C999 1.372 . S
C999 C998 1.372 . S
C999 C1000 1.400 . S
C999 C1004 1.490 . S
C1000 H990 0.930 . S
C1000 C999 1.400 . S
C1000 C1003 1.386 . S
H1001 C1017 0.930 . S
H1002 C1018 0.931 . S
C1003 H991 0.929 . S
C1003 C997 1.390 . S
C1003 C1000 1.386 . S
C1004 C999 1.490 . S
C1004 C1006 1.395 . S
C1004 C1007 1.403 . S
H1005 C1011 0.930 . S
C1006 H992 0.930 . S
C1006 C1004 1.395 . S
C1006 C1009 1.403 . S
C1007 C1004 1.403 . S
C1007 C1008 1.524 . S
C1007 C1011 1.400 . S
C1008 H993 0.960 . S
C1008 H994 0.960 . S
C1008 H995 0.960 . S
C1008 C1007 1.524 . S
C1009 C1006 1.403 . S
C1009 C1010 1.392 . S
C1009 C1013 1.495 . S
C1010 C1009 1.392 . S
C1010 C1011 1.385 . S
C1010 C1012 1.478 . S
C1011 H1005 0.930 . S
C1011 C1007 1.400 . S
C1011 C1010 1.385 . S
C1012 C1010 1.478 . S
C1012 C1014 1.381 . S
C1012 C1018 1.383 . S
C1013 C1009 1.495 . S
C1013 H1019 0.959 . S
C1013 H1020 0.961 . S
C1013 H1021 0.960 . S
C1014 C1012 1.381 . S
C1014 C1015 1.394 . S
C1014 H1022 0.930 . S
C1015 C1014 1.394 . S
C1015 C1016 1.383 . S
C1015 H1023 0.929 . S
C1016 C1015 1.383 . S
C1016 C1017 1.377 . S
C1017 H1001 0.930 . S
C1017 C1016 1.377 . S
C1017 C1018 1.379 . S
C1018 H1002 0.931 . S
C1018 C1012 1.383 . S
C1018 C1017 1.379 . S
H1019 C1013 0.959 . S
H1020 C1013 0.961 . S
H1021 C1013 0.960 . S
H1022 C1014 0.930 . S
H1023 C1015 0.929 . S
H1024 C1032 0.929 . S
H1025 C1034 0.930 . S
H1026 C1036 0.930 . S
H1027 C1039 0.929 . S
H1028 C1042 0.930 . S
H1029 C1044 0.960 . S
H1030 C1044 0.960 . S
H1031 C1044 0.960 . S
C1032 H1024 0.929 . S
C1032 C1033 1.378 1_655 S
C1032 C1034 1.384 . S
C1033 C1032 1.378 1_455 S
C1033 C1039 1.389 . S
C1034 H1025 0.930 . S
C1034 C1032 1.384 . S
C1034 C1035 1.373 . S
C1035 C1034 1.373 . S
C1035 C1036 1.398 1_655 S
C1035 C1040 1.489 . S
C1036 H1026 0.930 . S
C1036 C1035 1.398 1_455 S
C1036 C1039 1.386 . S
H1037 C1053 0.931 1_455 S
H1038 C1054 0.932 . S
C1039 H1027 0.929 . S
C1039 C1033 1.389 . S
C1039 C1036 1.386 . S
C1040 C1035 1.489 . S
C1040 C1042 1.441 . S
C1040 C1043 1.360 1_655 S
H1041 C1047 0.930 . S
C1042 H1028 0.930 . S
C1042 C1040 1.441 . S
C1042 C1045 1.403 . S
C1043 C1040 1.360 1_455 S
C1043 C1044 1.524 . S
C1043 C1047 1.400 . S
C1044 H1029 0.960 . S
C1044 H1030 0.960 . S
C1044 H1031 0.960 . S
C1044 C1043 1.524 . S
C1045 C1042 1.403 . S
C1045 C1046 1.392 . S
C1045 C1049 1.495 . S
C1046 C1045 1.392 . S
C1046 C1047 1.385 1_655 S
C1046 C1048 1.478 . S
C1047 H1041 0.930 . S
C1047 C1043 1.400 . S
C1047 C1046 1.385 1_455 S
C1048 C1046 1.478 . S
C1048 C1050 1.381 . S
C1048 C1054 1.383 . S
C1049 C1045 1.495 . S
C1049 H1055 0.959 . S
C1049 H1056 0.961 . S
C1049 H1057 0.960 . S
C1050 C1048 1.381 . S
C1050 C1051 1.394 . S
C1050 H1058 0.930 . S
C1051 C1050 1.394 . S
C1051 C1052 1.383 . S
C1051 H1059 0.929 . S
C1052 C1051 1.383 . S
C1052 C1053 1.376 . S
C1053 H1037 0.931 1_655 S
C1053 C1052 1.376 . S
C1053 C1054 1.379 . S
C1054 H1038 0.932 . S
C1054 C1048 1.383 . S
C1054 C1053 1.379 . S
H1055 C1049 0.959 . S
H1056 C1049 0.961 . S
H1057 C1049 0.960 . S
H1058 C1050 0.930 . S
H1059 C1051 0.929 . S
H1060 C1068 0.929 . S
H1061 C1070 0.930 . S
H1062 C1072 0.930 . S
H1063 C1075 0.929 . S
H1064 C1078 0.930 . S
H1065 C1080 0.960 . S
H1066 C1080 0.960 . S
H1067 C1080 0.960 . S
C1068 H1060 0.929 . S
C1068 C1069 1.377 . S
C1068 C1070 1.384 . S
C1069 C1068 1.377 . S
C1069 C1075 1.390 . S
C1070 H1061 0.930 . S
C1070 C1068 1.384 . S
C1070 C1071 1.372 . S
C1071 C1070 1.372 . S
C1071 C1072 1.400 . S
C1071 C1076 1.490 . S
C1072 H1062 0.930 . S
C1072 C1071 1.400 . S
C1072 C1075 1.386 . S
H1073 C1089 0.930 . S
H1074 C1090 0.931 . S
C1075 H1063 0.929 . S
C1075 C1069 1.390 . S
C1075 C1072 1.386 . S
C1076 C1071 1.490 . S
C1076 C1078 1.395 . S
C1076 C1079 1.403 . S
H1077 C1083 0.930 . S
C1078 H1064 0.930 . S
C1078 C1076 1.395 . S
C1078 C1081 1.403 . S
C1079 C1076 1.403 . S
C1079 C1080 1.524 . S
C1079 C1083 1.400 . S
C1080 H1065 0.960 . S
C1080 H1066 0.960 . S
C1080 H1067 0.960 . S
C1080 C1079 1.524 . S
C1081 C1078 1.403 . S
C1081 C1082 1.392 . S
C1081 C1085 1.495 . S
C1082 C1081 1.392 . S
C1082 C1083 1.385 . S
C1082 C1084 1.478 . S
C1083 H1077 0.930 . S
C1083 C1079 1.400 . S
C1083 C1082 1.385 . S
C1084 C1082 1.478 . S
C1084 C1086 1.381 . S
C1084 C1090 1.383 . S
C1085 C1081 1.495 . S
C1085 H1091 0.959 . S
C1085 H1092 0.961 . S
C1085 H1093 0.960 . S
C1086 C1084 1.381 . S
C1086 C1087 1.394 . S
C1086 H1094 0.930 . S
C1087 C1086 1.394 . S
C1087 C1088 1.383 . S
C1087 H1095 0.929 . S
C1088 C1087 1.383 . S
C1088 C1089 1.377 . S
C1089 H1073 0.930 . S
C1089 C1088 1.377 . S
C1089 C1090 1.379 . S
C1090 H1074 0.931 . S
C1090 C1084 1.383 . S
C1090 C1089 1.379 . S
H1091 C1085 0.959 . S
H1092 C1085 0.961 . S
H1093 C1085 0.960 . S
H1094 C1086 0.930 . S
H1095 C1087 0.929 . S
H1096 C1104 0.929 . S
H1097 C1106 0.930 . S
H1098 C1108 0.930 . S
H1099 C1111 0.929 . S
H1100 C1114 0.930 . S
H1101 C1116 0.960 . S
H1102 C1116 0.960 . S
H1103 C1116 0.960 . S
C1104 H1096 0.929 . S
C1104 C1105 1.375 1_655 S
C1104 C1106 1.384 . S
C1105 C1104 1.375 1_455 S
C1105 C1111 1.393 . S
C1106 H1097 0.930 . S
C1106 C1104 1.384 . S
C1106 C1107 1.388 . S
C1107 C1106 1.388 . S
C1107 C1108 1.383 1_655 S
C1107 C1112 1.491 . S
C1108 H1098 0.930 . S
C1108 C1107 1.383 1_455 S
C1108 C1111 1.386 . S
H1109 C1125 0.930 . S
H1110 C1126 0.931 . S
C1111 H1099 0.929 . S
C1111 C1105 1.393 . S
C1111 C1108 1.386 . S
C1112 C1107 1.491 . S
C1112 C1114 1.395 . S
C1112 C1115 1.403 1_655 S
H1113 C1119 0.930 . S
C1114 H1100 0.930 . S
C1114 C1112 1.395 . S
C1114 C1117 1.403 . S
C1115 C1112 1.403 1_455 S
C1115 C1116 1.524 . S
C1115 C1119 1.400 . S
C1116 H1101 0.960 . S
C1116 H1102 0.960 . S
C1116 H1103 0.960 . S
C1116 C1115 1.524 . S
C1117 C1114 1.403 . S
C1117 C1118 1.392 . S
C1117 C1121 1.495 . S
C1118 C1117 1.392 . S
C1118 C1119 1.385 1_655 S
C1118 C1120 1.478 . S
C1119 H1113 0.930 . S
C1119 C1115 1.400 . S
C1119 C1118 1.385 1_455 S
C1120 C1118 1.478 . S
C1120 C1122 1.381 . S
C1120 C1126 1.383 1_655 S
C1121 C1117 1.495 . S
C1121 H1127 0.959 . S
C1121 H1128 0.961 . S
C1121 H1129 0.960 . S
C1122 C1120 1.381 . S
C1122 C1123 1.394 . S
C1122 H1130 0.930 . S
C1123 C1122 1.394 . S
C1123 C1124 1.383 . S
C1123 H1131 0.929 . S
C1124 C1123 1.383 . S
C1124 C1125 1.377 1_655 S
C1125 H1109 0.930 . S
C1125 C1124 1.377 1_455 S
C1125 C1126 1.379 . S
C1126 H1110 0.931 . S
C1126 C1120 1.383 1_455 S
C1126 C1125 1.379 . S
H1127 C1121 0.959 . S
H1128 C1121 0.961 . S
H1129 C1121 0.960 . S
H1130 C1122 0.930 . S
H1131 C1123 0.929 . S
H1132 C1140 0.929 . S
H1133 C1142 0.930 . S
H1134 C1144 0.930 . S
H1135 C1147 0.929 . S
H1136 C1150 0.930 . S
H1137 C1152 0.960 . S
H1138 C1152 0.960 . S
H1139 C1152 0.960 . S
C1140 H1132 0.929 . S
C1140 C1141 1.377 . S
C1140 C1142 1.384 . S
C1141 C1140 1.377 . S
C1141 C1147 1.390 . S
C1142 H1133 0.930 . S
C1142 C1140 1.384 . S
C1142 C1143 1.372 . S
C1143 C1142 1.372 . S
C1143 C1144 1.400 . S
C1143 C1148 1.490 . S
C1144 H1134 0.930 . S
C1144 C1143 1.400 . S
C1144 C1147 1.386 . S
H1145 C1161 0.930 . S
H1146 C1162 0.931 . S
C1147 H1135 0.929 . S
C1147 C1141 1.390 . S
C1147 C1144 1.386 . S
C1148 C1143 1.490 . S
C1148 C1150 1.395 . S
C1148 C1151 1.403 . S
H1149 C1155 0.930 . S
C1150 H1136 0.930 . S
C1150 C1148 1.395 . S
C1150 C1153 1.403 . S
C1151 C1148 1.403 . S
C1151 C1152 1.524 . S
C1151 C1155 1.400 . S
C1152 H1137 0.960 . S
C1152 H1138 0.960 . S
C1152 H1139 0.960 . S
C1152 C1151 1.524 . S
C1153 C1150 1.403 . S
C1153 C1154 1.392 . S
C1153 C1157 1.495 . S
C1154 C1153 1.392 . S
C1154 C1155 1.385 . S
C1154 C1156 1.478 . S
C1155 H1149 0.930 . S
C1155 C1151 1.400 . S
C1155 C1154 1.385 . S
C1156 C1154 1.478 . S
C1156 C1158 1.381 . S
C1156 C1162 1.383 . S
C1157 C1153 1.495 . S
C1157 H1163 0.959 . S
C1157 H1164 0.961 . S
C1157 H1165 0.960 . S
C1158 C1156 1.381 . S
C1158 C1159 1.394 . S
C1158 H1166 0.930 . S
C1159 C1158 1.394 . S
C1159 C1160 1.383 . S
C1159 H1167 0.929 . S
C1160 C1159 1.383 . S
C1160 C1161 1.377 . S
C1161 H1145 0.930 . S
C1161 C1160 1.377 . S
C1161 C1162 1.379 . S
C1162 H1146 0.931 . S
C1162 C1156 1.383 . S
C1162 C1161 1.379 . S
H1163 C1157 0.959 . S
H1164 C1157 0.961 . S
H1165 C1157 0.960 . S
H1166 C1158 0.930 . S
H1167 C1159 0.929 . S
H1168 C1176 0.929 . S
H1169 C1178 0.930 . S
H1170 C1180 0.930 . S
H1171 C1183 0.929 . S
H1172 C1186 0.930 . S
H1173 C1188 0.960 . S
H1174 C1188 0.960 . S
H1175 C1188 0.960 . S
C1176 H1168 0.929 . S
C1176 C1177 1.379 . S
C1176 C1178 1.384 . S
C1177 C1176 1.379 . S
C1177 C1183 1.388 1_455 S
C1178 H1169 0.930 . S
C1178 C1176 1.384 . S
C1178 C1179 1.390 . S
C1179 C1178 1.390 . S
C1179 C1180 1.382 1_455 S
C1179 C1184 1.490 . S
C1180 H1170 0.930 . S
C1180 C1179 1.382 1_655 S
C1180 C1183 1.386 . S
H1181 C1197 0.930 . S
H1182 C1198 0.931 . S
C1183 H1171 0.929 . S
C1183 C1177 1.388 1_655 S
C1183 C1180 1.386 . S
C1184 C1179 1.490 . S
C1184 C1186 1.389 1_455 S
C1184 C1187 1.408 . S
H1185 C1191 0.930 . S
C1186 H1172 0.930 . S
C1186 C1184 1.389 1_655 S
C1186 C1189 1.403 . S
C1187 C1184 1.408 . S
C1187 C1188 1.524 . S
C1187 C1191 1.400 . S
C1188 H1173 0.960 . S
C1188 H1174 0.960 . S
C1188 H1175 0.960 . S
C1188 C1187 1.524 . S
C1189 C1186 1.403 . S
C1189 C1190 1.392 . S
C1189 C1193 1.495 . S
C1190 C1189 1.392 . S
C1190 C1191 1.385 1_655 S
C1190 C1192 1.478 . S
C1191 H1185 0.930 . S
C1191 C1187 1.400 . S
C1191 C1190 1.385 1_455 S
C1192 C1190 1.478 . S
C1192 C1194 1.381 1_655 S
C1192 C1198 1.383 . S
C1193 C1189 1.495 . S
C1193 H1199 0.959 . S
C1193 H1200 0.961 . S
C1193 H1201 0.960 . S
C1194 C1192 1.381 1_455 S
C1194 C1195 1.394 . S
C1194 H1202 0.930 . S
C1195 C1194 1.394 . S
C1195 C1196 1.354 1_455 S
C1195 H1203 0.929 . S
C1196 C1195 1.354 1_655 S
C1196 C1197 1.409 . S
C1197 H1181 0.930 . S
C1197 C1196 1.409 . S
C1197 C1198 1.379 . S
C1198 H1182 0.931 . S
C1198 C1192 1.383 . S
C1198 C1197 1.379 . S
H1199 C1193 0.959 . S
H1200 C1193 0.961 . S
H1201 C1193 0.960 . S
H1202 C1194 0.930 . S
H1203 C1195 0.929 . S
H1204 C1212 0.929 . S
H1205 C1214 0.930 . S
H1206 C1216 0.930 . S
H1207 C1219 0.929 . S
H1208 C1222 0.930 . S
H1209 C1224 0.960 . S
H1210 C1224 0.960 . S
H1211 C1224 0.960 . S
C1212 H1204 0.929 . S
C1212 C1213 1.377 . S
C1212 C1214 1.384 . S
C1213 C1212 1.377 . S
C1213 C1219 1.390 . S
C1214 H1205 0.930 . S
C1214 C1212 1.384 . S
C1214 C1215 1.372 . S
C1215 C1214 1.372 . S
C1215 C1216 1.400 . S
C1215 C1220 1.490 . S
C1216 H1206 0.930 . S
C1216 C1215 1.400 . S
C1216 C1219 1.386 . S
H1217 C1233 0.930 . S
H1218 C1234 0.931 . S
C1219 H1207 0.929 . S
C1219 C1213 1.390 . S
C1219 C1216 1.386 . S
C1220 C1215 1.490 . S
C1220 C1222 1.395 . S
C1220 C1223 1.403 . S
H1221 C1227 0.930 . S
C1222 H1208 0.930 . S
C1222 C1220 1.395 . S
C1222 C1225 1.403 . S
C1223 C1220 1.403 . S
C1223 C1224 1.524 . S
C1223 C1227 1.400 . S
C1224 H1209 0.960 . S
C1224 H1210 0.960 . S
C1224 H1211 0.960 . S
C1224 C1223 1.524 . S
C1225 C1222 1.403 . S
C1225 C1226 1.392 . S
C1225 C1229 1.495 . S
C1226 C1225 1.392 . S
C1226 C1227 1.385 . S
C1226 C1228 1.478 . S
C1227 H1221 0.930 . S
C1227 C1223 1.400 . S
C1227 C1226 1.385 . S
C1228 C1226 1.478 . S
C1228 C1230 1.381 . S
C1228 C1234 1.383 . S
C1229 C1225 1.495 . S
C1229 H1235 0.959 . S
C1229 H1236 0.961 . S
C1229 H1237 0.960 . S
C1230 C1228 1.381 . S
C1230 C1231 1.394 . S
C1230 H1238 0.930 . S
C1231 C1230 1.394 . S
C1231 C1232 1.383 . S
C1231 H1239 0.929 . S
C1232 C1231 1.383 . S
C1232 C1233 1.377 . S
C1233 H1217 0.930 . S
C1233 C1232 1.377 . S
C1233 C1234 1.379 . S
C1234 H1218 0.931 . S
C1234 C1228 1.383 . S
C1234 C1233 1.379 . S
H1235 C1229 0.959 . S
H1236 C1229 0.961 . S
H1237 C1229 0.960 . S
H1238 C1230 0.930 . S
H1239 C1231 0.929 . S
H1240 C1248 0.929 . S
H1241 C1250 0.930 . S
H1242 C1252 0.930 . S
H1243 C1255 0.929 . S
H1244 C1258 0.930 . S
H1245 C1260 0.960 . S
H1246 C1260 0.960 . S
H1247 C1260 0.960 1_455 S
C1248 H1240 0.929 . S
C1248 C1249 1.379 . S
C1248 C1250 1.384 . S
C1249 C1248 1.379 . S
C1249 C1255 1.388 1_655 S
C1250 H1241 0.930 . S
C1250 C1248 1.384 . S
C1250 C1251 1.404 . S
C1251 C1250 1.404 . S
C1251 C1252 1.368 1_655 S
C1251 C1256 1.490 . S
C1252 H1242 0.930 . S
C1252 C1251 1.368 1_455 S
C1252 C1255 1.386 . S
H1253 C1269 0.930 . S
H1254 C1270 0.931 . S
C1255 H1243 0.929 . S
C1255 C1249 1.388 1_455 S
C1255 C1252 1.386 . S
C1256 C1251 1.490 . S
C1256 C1258 1.389 1_655 S
C1256 C1259 1.409 . S
H1257 C1263 0.930 . S
C1258 H1244 0.930 . S
C1258 C1256 1.389 1_455 S
C1258 C1261 1.403 . S
C1259 C1256 1.409 . S
C1259 C1260 1.524 . S
C1259 C1263 1.400 . S
C1260 H1245 0.960 . S
C1260 H1246 0.960 . S
C1260 H1247 0.960 1_655 S
C1260 C1259 1.524 . S
C1261 C1258 1.403 . S
C1261 C1262 1.393 . S
C1261 C1265 1.495 . S
C1262 C1261 1.393 . S
C1262 C1263 1.384 1_455 S
C1262 C1264 1.477 . S
C1263 H1257 0.930 . S
C1263 C1259 1.400 . S
C1263 C1262 1.384 1_655 S
C1264 C1262 1.477 . S
C1264 C1266 1.350 1_455 S
C1264 C1270 1.415 . S
C1265 C1261 1.495 . S
C1265 H1271 0.959 . S
C1265 H1272 0.961 . S
C1265 H1273 0.960 1_455 S
C1266 C1264 1.350 1_655 S
C1266 C1267 1.394 . S
C1266 H1274 0.930 . S
C1267 C1266 1.394 . S
C1267 C1268 1.363 1_655 S
C1267 H1275 0.929 . S
C1268 C1267 1.363 1_455 S
C1268 C1269 1.397 . S
C1269 H1253 0.930 . S
C1269 C1268 1.397 . S
C1269 C1270 1.379 . S
C1270 H1254 0.931 . S
C1270 C1264 1.415 . S
C1270 C1269 1.379 . S
H1271 C1265 0.959 . S
H1272 C1265 0.961 . S
H1273 C1265 0.960 1_655 S
H1274 C1266 0.930 . S
H1275 C1267 0.929 . S
H1276 C1284 0.929 . S
H1277 C1286 0.930 . S
H1278 C1288 0.930 . S
H1279 C1291 0.929 . S
H1280 C1294 0.930 . S
H1281 C1296 0.960 . S
H1282 C1296 0.960 . S
H1283 C1296 0.960 . S
C1284 H1276 0.929 . S
C1284 C1285 1.377 . S
C1284 C1286 1.384 . S
C1285 C1284 1.377 . S
C1285 C1291 1.390 . S
C1286 H1277 0.930 . S
C1286 C1284 1.384 . S
C1286 C1287 1.372 . S
C1287 C1286 1.372 . S
C1287 C1288 1.400 . S
C1287 C1292 1.490 . S
C1288 H1278 0.930 . S
C1288 C1287 1.400 . S
C1288 C1291 1.386 . S
H1289 C1305 0.930 . S
H1290 C1306 0.931 . S
C1291 H1279 0.929 . S
C1291 C1285 1.390 . S
C1291 C1288 1.386 . S
C1292 C1287 1.490 . S
C1292 C1294 1.395 . S
C1292 C1295 1.403 . S
H1293 C1299 0.930 . S
C1294 H1280 0.930 . S
C1294 C1292 1.395 . S
C1294 C1297 1.403 . S
C1295 C1292 1.403 . S
C1295 C1296 1.524 . S
C1295 C1299 1.400 . S
C1296 H1281 0.960 . S
C1296 H1282 0.960 . S
C1296 H1283 0.960 . S
C1296 C1295 1.524 . S
C1297 C1294 1.403 . S
C1297 C1298 1.392 . S
C1297 C1301 1.495 . S
C1298 C1297 1.392 . S
C1298 C1299 1.385 . S
C1298 C1300 1.478 . S
C1299 H1293 0.930 . S
C1299 C1295 1.400 . S
C1299 C1298 1.385 . S
C1300 C1298 1.478 . S
C1300 C1302 1.381 . S
C1300 C1306 1.383 . S
C1301 C1297 1.495 . S
C1301 H1307 0.959 . S
C1301 H1308 0.961 . S
C1301 H1309 0.960 . S
C1302 C1300 1.381 . S
C1302 C1303 1.394 . S
C1302 H1310 0.930 . S
C1303 C1302 1.394 . S
C1303 C1304 1.383 . S
C1303 H1311 0.929 . S
C1304 C1303 1.383 . S
C1304 C1305 1.377 . S
C1305 H1289 0.930 . S
C1305 C1304 1.377 . S
C1305 C1306 1.379 . S
C1306 H1290 0.931 . S
C1306 C1300 1.383 . S
C1306 C1305 1.379 . S
H1307 C1301 0.959 . S
H1308 C1301 0.961 . S
H1309 C1301 0.960 . S
H1310 C1302 0.930 . S
H1311 C1303 0.929 . S
H1312 C1320 0.929 . S
H1313 C1322 0.930 . S
H1314 C1324 0.930 . S
H1315 C1327 0.929 . S
H1316 C1330 0.930 . S
H1317 C1332 0.960 . S
H1318 C1332 0.960 . S
H1319 C1332 0.960 . S
C1320 H1312 0.929 . S
C1320 C1321 1.377 . S
C1320 C1322 1.384 . S
C1321 C1320 1.377 . S
C1321 C1327 1.390 . S
C1322 H1313 0.930 . S
C1322 C1320 1.384 . S
C1322 C1323 1.372 . S
C1323 C1322 1.372 . S
C1323 C1324 1.400 . S
C1323 C1328 1.490 . S
C1324 H1314 0.930 . S
C1324 C1323 1.400 . S
C1324 C1327 1.386 . S
H1325 C1341 0.930 . S
H1326 C1342 0.931 . S
C1327 H1315 0.929 . S
C1327 C1321 1.390 . S
C1327 C1324 1.386 . S
C1328 C1323 1.490 . S
C1328 C1330 1.395 . S
C1328 C1331 1.403 . S
H1329 C1335 0.930 . S
C1330 H1316 0.930 . S
C1330 C1328 1.395 . S
C1330 C1333 1.403 . S
C1331 C1328 1.403 . S
C1331 C1332 1.524 . S
C1331 C1335 1.400 . S
C1332 H1317 0.960 . S
C1332 H1318 0.960 . S
C1332 H1319 0.960 . S
C1332 C1331 1.524 . S
C1333 C1330 1.403 . S
C1333 C1334 1.392 . S
C1333 C1337 1.495 . S
C1334 C1333 1.392 . S
C1334 C1335 1.385 . S
C1334 C1336 1.478 . S
C1335 H1329 0.930 . S
C1335 C1331 1.400 . S
C1335 C1334 1.385 . S
C1336 C1334 1.478 . S
C1336 C1338 1.381 . S
C1336 C1342 1.383 . S
C1337 C1333 1.495 . S
C1337 H1343 0.959 . S
C1337 H1344 0.961 . S
C1337 H1345 0.960 . S
C1338 C1336 1.381 . S
C1338 C1339 1.394 . S
C1338 H1346 0.930 . S
C1339 C1338 1.394 . S
C1339 C1340 1.383 . S
C1339 H1347 0.929 . S
C1340 C1339 1.383 . S
C1340 C1341 1.377 . S
C1341 H1325 0.930 . S
C1341 C1340 1.377 . S
C1341 C1342 1.379 . S
C1342 H1326 0.931 . S
C1342 C1336 1.383 . S
C1342 C1341 1.379 . S
H1343 C1337 0.959 . S
H1344 C1337 0.961 . S
H1345 C1337 0.960 . S
H1346 C1338 0.930 . S
H1347 C1339 0.929 . S
H1348 C1356 0.929 . S
H1349 C1358 0.930 . S
H1350 C1360 0.930 . S
H1351 C1363 0.929 . S
H1352 C1366 0.930 . S
H1353 C1368 0.960 . S
H1354 C1368 0.960 . S
H1355 C1368 0.960 . S
C1356 H1348 0.929 . S
C1356 C1357 1.377 . S
C1356 C1358 1.384 . S
C1357 C1356 1.377 . S
C1357 C1363 1.390 . S
C1358 H1349 0.930 . S
C1358 C1356 1.384 . S
C1358 C1359 1.372 . S
C1359 C1358 1.372 . S
C1359 C1360 1.400 . S
C1359 C1364 1.490 . S
C1360 H1350 0.930 . S
C1360 C1359 1.400 . S
C1360 C1363 1.386 . S
H1361 C1377 0.930 . S
H1362 C1378 0.931 . S
C1363 H1351 0.929 . S
C1363 C1357 1.390 . S
C1363 C1360 1.386 . S
C1364 C1359 1.490 . S
C1364 C1366 1.395 . S
C1364 C1367 1.403 . S
H1365 C1371 0.930 . S
C1366 H1352 0.930 . S
C1366 C1364 1.395 . S
C1366 C1369 1.403 . S
C1367 C1364 1.403 . S
C1367 C1368 1.524 . S
C1367 C1371 1.400 . S
C1368 H1353 0.960 . S
C1368 H1354 0.960 . S
C1368 H1355 0.960 . S
C1368 C1367 1.524 . S
C1369 C1366 1.403 . S
C1369 C1370 1.392 . S
C1369 C1373 1.495 . S
C1370 C1369 1.392 . S
C1370 C1371 1.385 . S
C1370 C1372 1.478 . S
C1371 H1365 0.930 . S
C1371 C1367 1.400 . S
C1371 C1370 1.385 . S
C1372 C1370 1.478 . S
C1372 C1374 1.381 . S
C1372 C1378 1.383 . S
C1373 C1369 1.495 . S
C1373 H1379 0.959 . S
C1373 H1380 0.961 . S
C1373 H1381 0.960 . S
C1374 C1372 1.381 . S
C1374 C1375 1.394 . S
C1374 H1382 0.930 . S
C1375 C1374 1.394 . S
C1375 C1376 1.383 . S
C1375 H1383 0.929 . S
C1376 C1375 1.383 . S
C1376 C1377 1.377 . S
C1377 H1361 0.930 . S
C1377 C1376 1.377 . S
C1377 C1378 1.379 . S
C1378 H1362 0.931 . S
C1378 C1372 1.383 . S
C1378 C1377 1.379 . S
H1379 C1373 0.959 . S
H1380 C1373 0.961 . S
H1381 C1373 0.960 . S
H1382 C1374 0.930 . S
H1383 C1375 0.929 . S
H1384 C1392 0.929 . S
H1385 C1394 0.930 . S
H1386 C1396 0.930 . S
H1387 C1399 0.929 . S
H1388 C1402 0.930 . S
H1389 C1404 0.960 . S
H1390 C1404 0.960 . S
H1391 C1404 0.960 . S
C1392 H1384 0.929 . S
C1392 C1393 1.377 . S
C1392 C1394 1.384 . S
C1393 C1392 1.377 . S
C1393 C1399 1.390 . S
C1394 H1385 0.930 . S
C1394 C1392 1.384 . S
C1394 C1395 1.372 . S
C1395 C1394 1.372 . S
C1395 C1396 1.400 . S
C1395 C1400 1.490 . S
C1396 H1386 0.930 . S
C1396 C1395 1.400 . S
C1396 C1399 1.386 . S
H1397 C1413 0.930 . S
H1398 C1414 0.931 . S
C1399 H1387 0.929 . S
C1399 C1393 1.390 . S
C1399 C1396 1.386 . S
C1400 C1395 1.490 . S
C1400 C1402 1.395 . S
C1400 C1403 1.403 . S
H1401 C1407 0.930 . S
C1402 H1388 0.930 . S
C1402 C1400 1.395 . S
C1402 C1405 1.403 . S
C1403 C1400 1.403 . S
C1403 C1404 1.524 . S
C1403 C1407 1.400 . S
C1404 H1389 0.960 . S
C1404 H1390 0.960 . S
C1404 H1391 0.960 . S
C1404 C1403 1.524 . S
C1405 C1402 1.403 . S
C1405 C1406 1.392 . S
C1405 C1409 1.495 . S
C1406 C1405 1.392 . S
C1406 C1407 1.385 . S
C1406 C1408 1.478 . S
C1407 H1401 0.930 . S
C1407 C1403 1.400 . S
C1407 C1406 1.385 . S
C1408 C1406 1.478 . S
C1408 C1410 1.381 . S
C1408 C1414 1.383 . S
C1409 C1405 1.495 . S
C1409 H1415 0.959 . S
C1409 H1416 0.961 . S
C1409 H1417 0.960 . S
C1410 C1408 1.381 . S
C1410 C1411 1.394 . S
C1410 H1418 0.930 . S
C1411 C1410 1.394 . S
C1411 C1412 1.383 . S
C1411 H1419 0.929 . S
C1412 C1411 1.383 . S
C1412 C1413 1.377 . S
C1413 H1397 0.930 . S
C1413 C1412 1.377 . S
C1413 C1414 1.379 . S
C1414 H1398 0.931 . S
C1414 C1408 1.383 . S
C1414 C1413 1.379 . S
H1415 C1409 0.959 . S
H1416 C1409 0.961 . S
H1417 C1409 0.960 . S
H1418 C1410 0.930 . S
H1419 C1411 0.929 . S
H1420 C1428 0.929 . S
H1421 C1430 0.930 . S
H1422 C1432 0.930 . S
H1423 C1435 0.929 . S
H1424 C1438 0.930 . S
H1425 C1440 0.960 . S
H1426 C1440 0.960 . S
H1427 C1440 0.960 . S
C1428 H1420 0.929 . S
C1428 C1429 1.377 . S
C1428 C1430 1.384 . S
C1429 C1428 1.377 . S
C1429 C1435 1.390 . S
C1430 H1421 0.930 . S
C1430 C1428 1.384 . S
C1430 C1431 1.372 . S
C1431 C1430 1.372 . S
C1431 C1432 1.400 . S
C1431 C1436 1.490 . S
C1432 H1422 0.930 . S
C1432 C1431 1.400 . S
C1432 C1435 1.386 . S
H1433 C1449 0.930 . S
H1434 C1450 0.931 . S
C1435 H1423 0.929 . S
C1435 C1429 1.390 . S
C1435 C1432 1.386 . S
C1436 C1431 1.490 . S
C1436 C1438 1.395 . S
C1436 C1439 1.403 . S
H1437 C1443 0.930 . S
C1438 H1424 0.930 . S
C1438 C1436 1.395 . S
C1438 C1441 1.403 . S
C1439 C1436 1.403 . S
C1439 C1440 1.524 . S
C1439 C1443 1.400 . S
C1440 H1425 0.960 . S
C1440 H1426 0.960 . S
C1440 H1427 0.960 . S
C1440 C1439 1.524 . S
C1441 C1438 1.403 . S
C1441 C1442 1.392 . S
C1441 C1445 1.495 . S
C1442 C1441 1.392 . S
C1442 C1443 1.385 . S
C1442 C1444 1.478 . S
C1443 H1437 0.930 . S
C1443 C1439 1.400 . S
C1443 C1442 1.385 . S
C1444 C1442 1.478 . S
C1444 C1446 1.381 . S
C1444 C1450 1.383 . S
C1445 C1441 1.495 . S
C1445 H1451 0.959 . S
C1445 H1452 0.961 . S
C1445 H1453 0.960 . S
C1446 C1444 1.381 . S
C1446 C1447 1.394 . S
C1446 H1454 0.930 . S
C1447 C1446 1.394 . S
C1447 C1448 1.383 . S
C1447 H1455 0.929 . S
C1448 C1447 1.383 . S
C1448 C1449 1.377 . S
C1449 H1433 0.930 . S
C1449 C1448 1.377 . S
C1449 C1450 1.379 . S
C1450 H1434 0.931 . S
C1450 C1444 1.383 . S
C1450 C1449 1.379 . S
H1451 C1445 0.959 . S
H1452 C1445 0.961 . S
H1453 C1445 0.960 . S
H1454 C1446 0.930 . S
H1455 C1447 0.929 . S
H1456 C1464 0.929 . S
H1457 C1466 0.930 . S
H1458 C1468 0.930 . S
H1459 C1471 0.929 . S
H1460 C1474 0.930 . S
H1461 C1476 0.960 . S
H1462 C1476 0.960 . S
H1463 C1476 0.960 . S
C1464 H1456 0.929 . S
C1464 C1465 1.377 . S
C1464 C1466 1.384 . S
C1465 C1464 1.377 . S
C1465 C1471 1.390 . S
C1466 H1457 0.930 . S
C1466 C1464 1.384 . S
C1466 C1467 1.372 . S
C1467 C1466 1.372 . S
C1467 C1468 1.400 . S
C1467 C1472 1.490 . S
C1468 H1458 0.930 . S
C1468 C1467 1.400 . S
C1468 C1471 1.386 . S
H1469 C1485 0.930 . S
H1470 C1486 0.931 . S
C1471 H1459 0.929 . S
C1471 C1465 1.390 . S
C1471 C1468 1.386 . S
C1472 C1467 1.490 . S
C1472 C1474 1.395 . S
C1472 C1475 1.403 . S
H1473 C1479 0.930 . S
C1474 H1460 0.930 . S
C1474 C1472 1.395 . S
C1474 C1477 1.403 . S
C1475 C1472 1.403 . S
C1475 C1476 1.524 . S
C1475 C1479 1.400 . S
C1476 H1461 0.960 . S
C1476 H1462 0.960 . S
C1476 H1463 0.960 . S
C1476 C1475 1.524 . S
C1477 C1474 1.403 . S
C1477 C1478 1.392 . S
C1477 C1481 1.495 . S
C1478 C1477 1.392 . S
C1478 C1479 1.385 . S
C1478 C1480 1.478 . S
C1479 H1473 0.930 . S
C1479 C1475 1.400 . S
C1479 C1478 1.385 . S
C1480 C1478 1.478 . S
C1480 C1482 1.381 . S
C1480 C1486 1.383 . S
C1481 C1477 1.495 . S
C1481 H1487 0.959 . S
C1481 H1488 0.961 . S
C1481 H1489 0.960 . S
C1482 C1480 1.381 . S
C1482 C1483 1.394 . S
C1482 H1490 0.930 . S
C1483 C1482 1.394 . S
C1483 C1484 1.383 . S
C1483 H1491 0.929 . S
C1484 C1483 1.383 . S
C1484 C1485 1.377 . S
C1485 H1469 0.930 . S
C1485 C1484 1.377 . S
C1485 C1486 1.379 . S
C1486 H1470 0.931 . S
C1486 C1480 1.383 . S
C1486 C1485 1.379 . S
H1487 C1481 0.959 . S
H1488 C1481 0.961 . S
H1489 C1481 0.960 . S
H1490 C1482 0.930 . S
H1491 C1483 0.929 . S
H1492 C1500 0.929 . S
H1493 C1502 0.930 . S
H1494 C1504 0.930 . S
H1495 C1507 0.929 . S
H1496 C1510 0.930 . S
H1497 C1512 0.960 . S
H1498 C1512 0.960 . S
H1499 C1512 0.960 . S
C1500 H1492 0.929 . S
C1500 C1501 1.377 . S
C1500 C1502 1.384 . S
C1501 C1500 1.377 . S
C1501 C1507 1.390 . S
C1502 H1493 0.930 . S
C1502 C1500 1.384 . S
C1502 C1503 1.372 . S
C1503 C1502 1.372 . S
C1503 C1504 1.400 . S
C1503 C1508 1.490 . S
C1504 H1494 0.930 . S
C1504 C1503 1.400 . S
C1504 C1507 1.386 . S
H1505 C1521 0.930 . S
H1506 C1522 0.931 . S
C1507 H1495 0.929 . S
C1507 C1501 1.390 . S
C1507 C1504 1.386 . S
C1508 C1503 1.490 . S
C1508 C1510 1.395 . S
C1508 C1511 1.403 . S
H1509 C1515 0.930 . S
C1510 H1496 0.930 . S
C1510 C1508 1.395 . S
C1510 C1513 1.403 . S
C1511 C1508 1.403 . S
C1511 C1512 1.524 . S
C1511 C1515 1.400 . S
C1512 H1497 0.960 . S
C1512 H1498 0.960 . S
C1512 H1499 0.960 . S
C1512 C1511 1.524 . S
C1513 C1510 1.403 . S
C1513 C1514 1.392 . S
C1513 C1517 1.495 . S
C1514 C1513 1.392 . S
C1514 C1515 1.385 . S
C1514 C1516 1.478 . S
C1515 H1509 0.930 . S
C1515 C1511 1.400 . S
C1515 C1514 1.385 . S
C1516 C1514 1.478 . S
C1516 C1518 1.381 . S
C1516 C1522 1.383 . S
C1517 C1513 1.495 . S
C1517 H1523 0.959 . S
C1517 H1524 0.961 . S
C1517 H1525 0.960 . S
C1518 C1516 1.381 . S
C1518 C1519 1.394 . S
C1518 H1526 0.930 . S
C1519 C1518 1.394 . S
C1519 C1520 1.383 . S
C1519 H1527 0.929 . S
C1520 C1519 1.383 . S
C1520 C1521 1.377 . S
C1521 H1505 0.930 . S
C1521 C1520 1.377 . S
C1521 C1522 1.379 . S
C1522 H1506 0.931 . S
C1522 C1516 1.383 . S
C1522 C1521 1.379 . S
H1523 C1517 0.959 . S
H1524 C1517 0.961 . S
H1525 C1517 0.960 . S
H1526 C1518 0.930 . S
H1527 C1519 0.929 . S
H1528 C1536 0.929 . S
H1529 C1538 0.930 . S
H1530 C1540 0.930 . S
H1531 C1543 0.929 . S
H1532 C1546 0.930 . S
H1533 C1548 0.960 . S
H1534 C1548 0.960 . S
H1535 C1548 0.960 . S
C1536 H1528 0.929 . S
C1536 C1537 1.377 . S
C1536 C1538 1.384 . S
C1537 C1536 1.377 . S
C1537 C1543 1.390 . S
C1538 H1529 0.930 . S
C1538 C1536 1.384 . S
C1538 C1539 1.372 . S
C1539 C1538 1.372 . S
C1539 C1540 1.400 . S
C1539 C1544 1.490 . S
C1540 H1530 0.930 . S
C1540 C1539 1.400 . S
C1540 C1543 1.386 . S
H1541 C1557 0.930 . S
H1542 C1558 0.931 . S
C1543 H1531 0.929 . S
C1543 C1537 1.390 . S
C1543 C1540 1.386 . S
C1544 C1539 1.490 . S
C1544 C1546 1.395 . S
C1544 C1547 1.403 . S
H1545 C1551 0.930 . S
C1546 H1532 0.930 . S
C1546 C1544 1.395 . S
C1546 C1549 1.403 . S
C1547 C1544 1.403 . S
C1547 C1548 1.524 . S
C1547 C1551 1.400 . S
C1548 H1533 0.960 . S
C1548 H1534 0.960 . S
C1548 H1535 0.960 . S
C1548 C1547 1.524 . S
C1549 C1546 1.403 . S
C1549 C1550 1.392 . S
C1549 C1553 1.495 . S
C1550 C1549 1.392 . S
C1550 C1551 1.385 . S
C1550 C1552 1.478 . S
C1551 H1545 0.930 . S
C1551 C1547 1.400 . S
C1551 C1550 1.385 . S
C1552 C1550 1.478 . S
C1552 C1554 1.381 . S
C1552 C1558 1.383 . S
C1553 C1549 1.495 . S
C1553 H1559 0.959 . S
C1553 H1560 0.961 . S
C1553 H1561 0.960 . S
C1554 C1552 1.381 . S
C1554 C1555 1.394 . S
C1554 H1562 0.930 . S
C1555 C1554 1.394 . S
C1555 C1556 1.383 . S
C1555 H1563 0.929 . S
C1556 C1555 1.383 . S
C1556 C1557 1.377 . S
C1557 H1541 0.930 . S
C1557 C1556 1.377 . S
C1557 C1558 1.379 . S
C1558 H1542 0.931 . S
C1558 C1552 1.383 . S
C1558 C1557 1.379 . S
H1559 C1553 0.959 . S
H1560 C1553 0.961 . S
H1561 C1553 0.960 . S
H1562 C1554 0.930 . S
H1563 C1555 0.929 . S
H1564 C1572 0.929 . S
H1565 C1574 0.930 . S
H1566 C1576 0.930 . S
H1567 C1579 0.929 . S
H1568 C1582 0.930 . S
H1569 C1584 0.960 . S
H1570 C1584 0.960 . S
H1571 C1584 0.960 . S
C1572 H1564 0.929 . S
C1572 C1573 1.377 . S
C1572 C1574 1.384 . S
C1573 C1572 1.377 . S
C1573 C1579 1.390 . S
C1574 H1565 0.930 . S
C1574 C1572 1.384 . S
C1574 C1575 1.372 . S
C1575 C1574 1.372 . S
C1575 C1576 1.400 . S
C1575 C1580 1.490 . S
C1576 H1566 0.930 . S
C1576 C1575 1.400 . S
C1576 C1579 1.386 . S
H1577 C1593 0.930 . S
H1578 C1594 0.931 . S
C1579 H1567 0.929 . S
C1579 C1573 1.390 . S
C1579 C1576 1.386 . S
C1580 C1575 1.490 . S
C1580 C1582 1.395 . S
C1580 C1583 1.403 . S
H1581 C1587 0.930 . S
C1582 H1568 0.930 . S
C1582 C1580 1.395 . S
C1582 C1585 1.403 . S
C1583 C1580 1.403 . S
C1583 C1584 1.524 . S
C1583 C1587 1.400 . S
C1584 H1569 0.960 . S
C1584 H1570 0.960 . S
C1584 H1571 0.960 . S
C1584 C1583 1.524 . S
C1585 C1582 1.403 . S
C1585 C1586 1.392 . S
C1585 C1589 1.495 . S
C1586 C1585 1.392 . S
C1586 C1587 1.385 . S
C1586 C1588 1.478 . S
C1587 H1581 0.930 . S
C1587 C1583 1.400 . S
C1587 C1586 1.385 . S
C1588 C1586 1.478 . S
C1588 C1590 1.381 . S
C1588 C1594 1.383 . S
C1589 C1585 1.495 . S
C1589 H1595 0.959 . S
C1589 H1596 0.961 . S
C1589 H1597 0.960 . S
C1590 C1588 1.381 . S
C1590 C1591 1.394 . S
C1590 H1598 0.930 . S
C1591 C1590 1.394 . S
C1591 C1592 1.383 . S
C1591 H1599 0.929 . S
C1592 C1591 1.383 . S
C1592 C1593 1.377 . S
C1593 H1577 0.930 . S
C1593 C1592 1.377 . S
C1593 C1594 1.379 . S
C1594 H1578 0.931 . S
C1594 C1588 1.383 . S
C1594 C1593 1.379 . S
H1595 C1589 0.959 . S
H1596 C1589 0.961 . S
H1597 C1589 0.960 . S
H1598 C1590 0.930 . S
H1599 C1591 0.929 . S
H1600 C1608 0.929 . S
H1601 C1610 0.930 . S
H1602 C1612 0.930 . S
H1603 C1615 0.929 . S
H1604 C1618 0.930 . S
H1605 C1620 0.960 . S
H1606 C1620 0.960 . S
H1607 C1620 0.960 . S
C1608 H1600 0.929 . S
C1608 C1609 1.377 . S
C1608 C1610 1.384 . S
C1609 C1608 1.377 . S
C1609 C1615 1.390 . S
C1610 H1601 0.930 . S
C1610 C1608 1.384 . S
C1610 C1611 1.372 . S
C1611 C1610 1.372 . S
C1611 C1612 1.400 . S
C1611 C1616 1.490 . S
C1612 H1602 0.930 . S
C1612 C1611 1.400 . S
C1612 C1615 1.386 . S
H1613 C1629 0.930 . S
H1614 C1630 0.931 . S
C1615 H1603 0.929 . S
C1615 C1609 1.390 . S
C1615 C1612 1.386 . S
C1616 C1611 1.490 . S
C1616 C1618 1.395 . S
C1616 C1619 1.403 . S
H1617 C1623 0.930 . S
C1618 H1604 0.930 . S
C1618 C1616 1.395 . S
C1618 C1621 1.403 . S
C1619 C1616 1.403 . S
C1619 C1620 1.524 . S
C1619 C1623 1.400 . S
C1620 H1605 0.960 . S
C1620 H1606 0.960 . S
C1620 H1607 0.960 . S
C1620 C1619 1.524 . S
C1621 C1618 1.403 . S
C1621 C1622 1.392 . S
C1621 C1625 1.495 . S
C1622 C1621 1.392 . S
C1622 C1623 1.385 . S
C1622 C1624 1.478 . S
C1623 H1617 0.930 . S
C1623 C1619 1.400 . S
C1623 C1622 1.385 . S
C1624 C1622 1.478 . S
C1624 C1626 1.381 . S
C1624 C1630 1.383 . S
C1625 C1621 1.495 . S
C1625 H1631 0.959 . S
C1625 H1632 0.961 . S
C1625 H1633 0.960 . S
C1626 C1624 1.381 . S
C1626 C1627 1.394 . S
C1626 H1634 0.930 . S
C1627 C1626 1.394 . S
C1627 C1628 1.383 . S
C1627 H1635 0.929 . S
C1628 C1627 1.383 . S
C1628 C1629 1.377 . S
C1629 H1613 0.930 . S
C1629 C1628 1.377 . S
C1629 C1630 1.379 . S
C1630 H1614 0.931 . S
C1630 C1624 1.383 . S
C1630 C1629 1.379 . S
H1631 C1625 0.959 . S
H1632 C1625 0.961 . S
H1633 C1625 0.960 . S
H1634 C1626 0.930 . S
H1635 C1627 0.929 . S
H1636 C1644 0.929 . S
H1637 C1646 0.930 . S
H1638 C1648 0.930 . S
H1639 C1651 0.929 . S
H1640 C1654 0.930 . S
H1641 C1656 0.960 . S
H1642 C1656 0.960 . S
H1643 C1656 0.960 . S
C1644 H1636 0.929 . S
C1644 C1645 1.377 . S
C1644 C1646 1.384 . S
C1645 C1644 1.377 . S
C1645 C1651 1.390 . S
C1646 H1637 0.930 . S
C1646 C1644 1.384 . S
C1646 C1647 1.372 . S
C1647 C1646 1.372 . S
C1647 C1648 1.400 . S
C1647 C1652 1.490 . S
C1648 H1638 0.930 . S
C1648 C1647 1.400 . S
C1648 C1651 1.386 . S
H1649 C1665 0.930 . S
H1650 C1666 0.931 . S
C1651 H1639 0.929 . S
C1651 C1645 1.390 . S
C1651 C1648 1.386 . S
C1652 C1647 1.490 . S
C1652 C1654 1.395 . S
C1652 C1655 1.403 . S
H1653 C1659 0.930 . S
C1654 H1640 0.930 . S
C1654 C1652 1.395 . S
C1654 C1657 1.403 . S
C1655 C1652 1.403 . S
C1655 C1656 1.524 . S
C1655 C1659 1.400 . S
C1656 H1641 0.960 . S
C1656 H1642 0.960 . S
C1656 H1643 0.960 . S
C1656 C1655 1.524 . S
C1657 C1654 1.403 . S
C1657 C1658 1.392 . S
C1657 C1661 1.495 . S
C1658 C1657 1.392 . S
C1658 C1659 1.385 . S
C1658 C1660 1.478 . S
C1659 H1653 0.930 . S
C1659 C1655 1.400 . S
C1659 C1658 1.385 . S
C1660 C1658 1.478 . S
C1660 C1662 1.381 . S
C1660 C1666 1.383 . S
C1661 C1657 1.495 . S
C1661 H1667 0.959 . S
C1661 H1668 0.961 . S
C1661 H1669 0.960 . S
C1662 C1660 1.381 . S
C1662 C1663 1.394 . S
C1662 H1670 0.930 . S
C1663 C1662 1.394 . S
C1663 C1664 1.383 . S
C1663 H1671 0.929 . S
C1664 C1663 1.383 . S
C1664 C1665 1.377 . S
C1665 H1649 0.930 . S
C1665 C1664 1.377 . S
C1665 C1666 1.379 . S
C1666 H1650 0.931 . S
C1666 C1660 1.383 . S
C1666 C1665 1.379 . S
H1667 C1661 0.959 . S
H1668 C1661 0.961 . S
H1669 C1661 0.960 . S
H1670 C1662 0.930 . S
H1671 C1663 0.929 . S
H1672 C1680 0.929 . S
H1673 C1682 0.930 . S
H1674 C1684 0.930 . S
H1675 C1687 0.929 . S
H1676 C1690 0.930 . S
H1677 C1692 0.960 . S
H1678 C1692 0.960 . S
H1679 C1692 0.960 . S
C1680 H1672 0.929 . S
C1680 C1681 1.377 . S
C1680 C1682 1.384 . S
C1681 C1680 1.377 . S
C1681 C1687 1.390 . S
C1682 H1673 0.930 . S
C1682 C1680 1.384 . S
C1682 C1683 1.372 . S
C1683 C1682 1.372 . S
C1683 C1684 1.400 . S
C1683 C1688 1.490 . S
C1684 H1674 0.930 . S
C1684 C1683 1.400 . S
C1684 C1687 1.386 . S
H1685 C1701 0.930 . S
H1686 C1702 0.931 . S
C1687 H1675 0.929 . S
C1687 C1681 1.390 . S
C1687 C1684 1.386 . S
C1688 C1683 1.490 . S
C1688 C1690 1.395 . S
C1688 C1691 1.403 . S
H1689 C1695 0.930 . S
C1690 H1676 0.930 . S
C1690 C1688 1.395 . S
C1690 C1693 1.403 . S
C1691 C1688 1.403 . S
C1691 C1692 1.524 . S
C1691 C1695 1.400 . S
C1692 H1677 0.960 . S
C1692 H1678 0.960 . S
C1692 H1679 0.960 . S
C1692 C1691 1.524 . S
C1693 C1690 1.403 . S
C1693 C1694 1.392 . S
C1693 C1697 1.495 . S
C1694 C1693 1.392 . S
C1694 C1695 1.385 . S
C1694 C1696 1.478 . S
C1695 H1689 0.930 . S
C1695 C1691 1.400 . S
C1695 C1694 1.385 . S
C1696 C1694 1.478 . S
C1696 C1698 1.381 . S
C1696 C1702 1.383 . S
C1697 C1693 1.495 . S
C1697 H1703 0.959 . S
C1697 H1704 0.961 . S
C1697 H1705 0.960 . S
C1698 C1696 1.381 . S
C1698 C1699 1.394 . S
C1698 H1706 0.930 . S
C1699 C1698 1.394 . S
C1699 C1700 1.383 . S
C1699 H1707 0.929 . S
C1700 C1699 1.383 . S
C1700 C1701 1.377 . S
C1701 H1685 0.930 . S
C1701 C1700 1.377 . S
C1701 C1702 1.379 . S
C1702 H1686 0.931 . S
C1702 C1696 1.383 . S
C1702 C1701 1.379 . S
H1703 C1697 0.959 . S
H1704 C1697 0.961 . S
H1705 C1697 0.960 . S
H1706 C1698 0.930 . S
H1707 C1699 0.929 . S
H1708 C1716 0.929 . S
H1709 C1718 0.930 . S
H1710 C1720 0.930 . S
H1711 C1723 0.929 . S
H1712 C1726 0.930 . S
H1713 C1728 0.960 . S
H1714 C1728 0.960 . S
H1715 C1728 0.960 . S
C1716 H1708 0.929 . S
C1716 C1717 1.377 . S
C1716 C1718 1.384 . S
C1717 C1716 1.377 . S
C1717 C1723 1.390 . S
C1718 H1709 0.930 . S
C1718 C1716 1.384 . S
C1718 C1719 1.372 . S
C1719 C1718 1.372 . S
C1719 C1720 1.400 . S
C1719 C1724 1.490 . S
C1720 H1710 0.930 . S
C1720 C1719 1.400 . S
C1720 C1723 1.386 . S
H1721 C1737 0.930 . S
H1722 C1738 0.931 . S
C1723 H1711 0.929 . S
C1723 C1717 1.390 . S
C1723 C1720 1.386 . S
C1724 C1719 1.490 . S
C1724 C1726 1.395 . S
C1724 C1727 1.403 . S
H1725 C1731 0.930 . S
C1726 H1712 0.930 . S
C1726 C1724 1.395 . S
C1726 C1729 1.403 . S
C1727 C1724 1.403 . S
C1727 C1728 1.524 . S
C1727 C1731 1.400 . S
C1728 H1713 0.960 . S
C1728 H1714 0.960 . S
C1728 H1715 0.960 . S
C1728 C1727 1.524 . S
C1729 C1726 1.403 . S
C1729 C1730 1.392 . S
C1729 C1733 1.495 . S
C1730 C1729 1.392 . S
C1730 C1731 1.385 . S
C1730 C1732 1.478 . S
C1731 H1725 0.930 . S
C1731 C1727 1.400 . S
C1731 C1730 1.385 . S
C1732 C1730 1.478 . S
C1732 C1734 1.381 . S
C1732 C1738 1.383 . S
C1733 C1729 1.495 . S
C1733 H1739 0.959 . S
C1733 H1740 0.961 . S
C1733 H1741 0.960 . S
C1734 C1732 1.381 . S
C1734 C1735 1.394 . S
C1734 H1742 0.930 . S
C1735 C1734 1.394 . S
C1735 C1736 1.383 . S
C1735 H1743 0.929 . S
C1736 C1735 1.383 . S
C1736 C1737 1.377 . S
C1737 H1721 0.930 . S
C1737 C1736 1.377 . S
C1737 C1738 1.379 . S
C1738 H1722 0.931 . S
C1738 C1732 1.383 . S
C1738 C1737 1.379 . S
H1739 C1733 0.959 . S
H1740 C1733 0.961 . S
H1741 C1733 0.960 . S
H1742 C1734 0.930 . S
H1743 C1735 0.929 . S
H1744 C1752 0.929 . S
H1745 C1754 0.930 . S
H1746 C1756 0.930 . S
H1747 C1759 0.929 . S
H1748 C1762 0.930 . S
H1749 C1764 0.960 . S
H1750 C1764 0.960 . S
H1751 C1764 0.960 . S
C1752 H1744 0.929 . S
C1752 C1753 1.377 . S
C1752 C1754 1.384 . S
C1753 C1752 1.377 . S
C1753 C1759 1.390 . S
C1754 H1745 0.930 . S
C1754 C1752 1.384 . S
C1754 C1755 1.372 . S
C1755 C1754 1.372 . S
C1755 C1756 1.400 . S
C1755 C1760 1.490 . S
C1756 H1746 0.930 . S
C1756 C1755 1.400 . S
C1756 C1759 1.386 . S
H1757 C1773 0.930 . S
H1758 C1774 0.931 . S
C1759 H1747 0.929 . S
C1759 C1753 1.390 . S
C1759 C1756 1.386 . S
C1760 C1755 1.490 . S
C1760 C1762 1.395 . S
C1760 C1763 1.403 . S
H1761 C1767 0.930 . S
C1762 H1748 0.930 . S
C1762 C1760 1.395 . S
C1762 C1765 1.403 . S
C1763 C1760 1.403 . S
C1763 C1764 1.524 . S
C1763 C1767 1.400 . S
C1764 H1749 0.960 . S
C1764 H1750 0.960 . S
C1764 H1751 0.960 . S
C1764 C1763 1.524 . S
C1765 C1762 1.403 . S
C1765 C1766 1.392 . S
C1765 C1769 1.495 . S
C1766 C1765 1.392 . S
C1766 C1767 1.385 . S
C1766 C1768 1.478 . S
C1767 H1761 0.930 . S
C1767 C1763 1.400 . S
C1767 C1766 1.385 . S
C1768 C1766 1.478 . S
C1768 C1770 1.381 . S
C1768 C1774 1.383 . S
C1769 C1765 1.495 . S
C1769 H1775 0.959 . S
C1769 H1776 0.961 . S
C1769 H1777 0.960 . S
C1770 C1768 1.381 . S
C1770 C1771 1.394 . S
C1770 H1778 0.930 . S
C1771 C1770 1.394 . S
C1771 C1772 1.383 . S
C1771 H1779 0.929 . S
C1772 C1771 1.383 . S
C1772 C1773 1.377 . S
C1773 H1757 0.930 . S
C1773 C1772 1.377 . S
C1773 C1774 1.379 . S
C1774 H1758 0.931 . S
C1774 C1768 1.383 . S
C1774 C1773 1.379 . S
H1775 C1769 0.959 . S
H1776 C1769 0.961 . S
H1777 C1769 0.960 . S
H1778 C1770 0.930 . S
H1779 C1771 0.929 . S
H1780 C1788 0.929 . S
H1781 C1790 0.930 . S
H1782 C1792 0.930 . S
H1783 C1795 0.929 . S
H1784 C1798 0.930 . S
H1785 C1800 0.960 . S
H1786 C1800 0.960 . S
H1787 C1800 0.960 . S
C1788 H1780 0.929 . S
C1788 C1789 1.377 . S
C1788 C1790 1.384 . S
C1789 C1788 1.377 . S
C1789 C1795 1.390 . S
C1790 H1781 0.930 . S
C1790 C1788 1.384 . S
C1790 C1791 1.372 . S
C1791 C1790 1.372 . S
C1791 C1792 1.400 . S
C1791 C1796 1.490 . S
C1792 H1782 0.930 . S
C1792 C1791 1.400 . S
C1792 C1795 1.386 . S
H1793 C1809 0.930 . S
H1794 C1810 0.931 . S
C1795 H1783 0.929 . S
C1795 C1789 1.390 . S
C1795 C1792 1.386 . S
C1796 C1791 1.490 . S
C1796 C1798 1.395 . S
C1796 C1799 1.403 . S
H1797 C1803 0.930 . S
C1798 H1784 0.930 . S
C1798 C1796 1.395 . S
C1798 C1801 1.403 . S
C1799 C1796 1.403 . S
C1799 C1800 1.524 . S
C1799 C1803 1.400 . S
C1800 H1785 0.960 . S
C1800 H1786 0.960 . S
C1800 H1787 0.960 . S
C1800 C1799 1.524 . S
C1801 C1798 1.403 . S
C1801 C1802 1.392 . S
C1801 C1805 1.495 . S
C1802 C1801 1.392 . S
C1802 C1803 1.385 . S
C1802 C1804 1.478 . S
C1803 H1797 0.930 . S
C1803 C1799 1.400 . S
C1803 C1802 1.385 . S
C1804 C1802 1.478 . S
C1804 C1806 1.381 . S
C1804 C1810 1.383 . S
C1805 C1801 1.495 . S
C1805 H1811 0.959 . S
C1805 H1812 0.961 . S
C1805 H1813 0.960 . S
C1806 C1804 1.381 . S
C1806 C1807 1.394 . S
C1806 H1814 0.930 . S
C1807 C1806 1.394 . S
C1807 C1808 1.383 . S
C1807 H1815 0.929 . S
C1808 C1807 1.383 . S
C1808 C1809 1.377 . S
C1809 H1793 0.930 . S
C1809 C1808 1.377 . S
C1809 C1810 1.379 . S
C1810 H1794 0.931 . S
C1810 C1804 1.383 . S
C1810 C1809 1.379 . S
H1811 C1805 0.959 . S
H1812 C1805 0.961 . S
H1813 C1805 0.960 . S
H1814 C1806 0.930 . S
H1815 C1807 0.929 . S
H1816 C1824 0.929 . S
H1817 C1826 0.930 . S
H1818 C1828 0.930 . S
H1819 C1831 0.929 . S
H1820 C1834 0.930 . S
H1821 C1836 0.960 . S
H1822 C1836 0.960 . S
H1823 C1836 0.960 . S
C1824 H1816 0.929 . S
C1824 C1825 1.377 . S
C1824 C1826 1.384 . S
C1825 C1824 1.377 . S
C1825 C1831 1.390 . S
C1826 H1817 0.930 . S
C1826 C1824 1.384 . S
C1826 C1827 1.372 . S
C1827 C1826 1.372 . S
C1827 C1828 1.400 . S
C1827 C1832 1.490 . S
C1828 H1818 0.930 . S
C1828 C1827 1.400 . S
C1828 C1831 1.386 . S
H1829 C1845 0.930 . S
H1830 C1846 0.931 . S
C1831 H1819 0.929 . S
C1831 C1825 1.390 . S
C1831 C1828 1.386 . S
C1832 C1827 1.490 . S
C1832 C1834 1.395 . S
C1832 C1835 1.403 . S
H1833 C1839 0.930 . S
C1834 H1820 0.930 . S
C1834 C1832 1.395 . S
C1834 C1837 1.403 . S
C1835 C1832 1.403 . S
C1835 C1836 1.524 . S
C1835 C1839 1.400 . S
C1836 H1821 0.960 . S
C1836 H1822 0.960 . S
C1836 H1823 0.960 . S
C1836 C1835 1.524 . S
C1837 C1834 1.403 . S
C1837 C1838 1.392 . S
C1837 C1841 1.495 . S
C1838 C1837 1.392 . S
C1838 C1839 1.385 . S
C1838 C1840 1.478 . S
C1839 H1833 0.930 . S
C1839 C1835 1.400 . S
C1839 C1838 1.385 . S
C1840 C1838 1.478 . S
C1840 C1842 1.381 . S
C1840 C1846 1.383 . S
C1841 C1837 1.495 . S
C1841 H1847 0.959 . S
C1841 H1848 0.961 . S
C1841 H1849 0.960 . S
C1842 C1840 1.381 . S
C1842 C1843 1.394 . S
C1842 H1850 0.930 . S
C1843 C1842 1.394 . S
C1843 C1844 1.383 . S
C1843 H1851 0.929 . S
C1844 C1843 1.383 . S
C1844 C1845 1.377 . S
C1845 H1829 0.930 . S
C1845 C1844 1.377 . S
C1845 C1846 1.379 . S
C1846 H1830 0.931 . S
C1846 C1840 1.383 . S
C1846 C1845 1.379 . S
H1847 C1841 0.959 . S
H1848 C1841 0.961 . S
H1849 C1841 0.960 . S
H1850 C1842 0.930 . S
H1851 C1843 0.929 . S
H1852 C1860 0.929 . S
H1853 C1862 0.930 . S
H1854 C1864 0.930 . S
H1855 C1867 0.929 . S
H1856 C1870 0.930 . S
H1857 C1872 0.960 . S
H1858 C1872 0.960 . S
H1859 C1872 0.960 . S
C1860 H1852 0.929 . S
C1860 C1861 1.377 . S
C1860 C1862 1.384 . S
C1861 C1860 1.377 . S
C1861 C1867 1.390 . S
C1862 H1853 0.930 . S
C1862 C1860 1.384 . S
C1862 C1863 1.372 . S
C1863 C1862 1.372 . S
C1863 C1864 1.400 . S
C1863 C1868 1.490 . S
C1864 H1854 0.930 . S
C1864 C1863 1.400 . S
C1864 C1867 1.386 . S
H1865 C1881 0.930 . S
H1866 C1882 0.931 . S
C1867 H1855 0.929 . S
C1867 C1861 1.390 . S
C1867 C1864 1.386 . S
C1868 C1863 1.490 . S
C1868 C1870 1.395 . S
C1868 C1871 1.403 . S
H1869 C1875 0.930 . S
C1870 H1856 0.930 . S
C1870 C1868 1.395 . S
C1870 C1873 1.403 . S
C1871 C1868 1.403 . S
C1871 C1872 1.524 . S
C1871 C1875 1.400 . S
C1872 H1857 0.960 . S
C1872 H1858 0.960 . S
C1872 H1859 0.960 . S
C1872 C1871 1.524 . S
C1873 C1870 1.403 . S
C1873 C1874 1.392 . S
C1873 C1877 1.495 . S
C1874 C1873 1.392 . S
C1874 C1875 1.385 . S
C1874 C1876 1.478 . S
C1875 H1869 0.930 . S
C1875 C1871 1.400 . S
C1875 C1874 1.385 . S
C1876 C1874 1.478 . S
C1876 C1878 1.381 . S
C1876 C1882 1.383 . S
C1877 C1873 1.495 . S
C1877 H1883 0.959 . S
C1877 H1884 0.961 . S
C1877 H1885 0.960 . S
C1878 C1876 1.381 . S
C1878 C1879 1.394 . S
C1878 H1886 0.930 . S
C1879 C1878 1.394 . S
C1879 C1880 1.383 . S
C1879 H1887 0.929 . S
C1880 C1879 1.383 . S
C1880 C1881 1.377 . S
C1881 H1865 0.930 . S
C1881 C1880 1.377 . S
C1881 C1882 1.379 . S
C1882 H1866 0.931 . S
C1882 C1876 1.383 . S
C1882 C1881 1.379 . S
H1883 C1877 0.959 . S
H1884 C1877 0.961 . S
H1885 C1877 0.960 . S
H1886 C1878 0.930 . S
H1887 C1879 0.929 . S
H1888 C1896 0.929 . S
H1889 C1898 0.930 . S
H1890 C1900 0.930 . S
H1891 C1903 0.929 . S
H1892 C1906 0.930 . S
H1893 C1908 0.960 . S
H1894 C1908 0.960 . S
H1895 C1908 0.960 . S
C1896 H1888 0.929 . S
C1896 C1897 1.377 1_565 S
C1896 C1898 1.384 . S
C1897 C1896 1.377 1_545 S
C1897 C1903 1.390 . S
C1898 H1889 0.930 . S
C1898 C1896 1.384 . S
C1898 C1899 1.373 1_565 S
C1899 C1898 1.373 1_545 S
C1899 C1900 1.399 . S
C1899 C1904 1.490 1_545 S
C1900 H1890 0.930 . S
C1900 C1899 1.399 . S
C1900 C1903 1.386 . S
H1901 C1917 0.930 . S
H1902 C1918 0.931 . S
C1903 H1891 0.929 . S
C1903 C1897 1.390 . S
C1903 C1900 1.386 . S
C1904 C1899 1.490 1_565 S
C1904 C1906 1.395 . S
C1904 C1907 1.403 1_565 S
H1905 C1911 0.930 . S
C1906 H1892 0.930 . S
C1906 C1904 1.395 . S
C1906 C1909 1.403 1_554 S
C1907 C1904 1.403 1_545 S
C1907 C1908 1.524 . S
C1907 C1911 1.400 1_554 S
C1908 H1893 0.960 . S
C1908 H1894 0.960 . S
C1908 H1895 0.960 . S
C1908 C1907 1.524 . S
C1909 C1906 1.403 1_556 S
C1909 C1910 1.392 . S
C1909 C1913 1.495 . S
C1910 C1909 1.392 . S
C1910 C1911 1.385 1_565 S
C1910 C1912 1.478 . S
C1911 H1905 0.930 . S
C1911 C1907 1.400 1_556 S
C1911 C1910 1.385 1_545 S
C1912 C1910 1.478 . S
C1912 C1914 1.381 . S
C1912 C1918 1.383 1_565 S
C1913 C1909 1.495 . S
C1913 H1919 0.959 . S
C1913 H1920 0.961 . S
C1913 H1921 0.960 . S
C1914 C1912 1.381 . S
C1914 C1915 1.394 . S
C1914 H1922 0.930 . S
C1915 C1914 1.394 . S
C1915 C1916 1.383 . S
C1915 H1923 0.929 . S
C1916 C1915 1.383 . S
C1916 C1917 1.377 1_565 S
C1917 H1901 0.930 . S
C1917 C1916 1.377 1_545 S
C1917 C1918 1.379 . S
C1918 H1902 0.931 . S
C1918 C1912 1.383 1_545 S
C1918 C1917 1.379 . S
H1919 C1913 0.959 . S
H1920 C1913 0.961 . S
H1921 C1913 0.960 . S
H1922 C1914 0.930 . S
H1923 C1915 0.929 . S
H1924 C1932 0.929 . S
H1925 C1934 0.930 . S
H1926 C1936 0.930 . S
H1927 C1939 0.929 . S
H1928 C1942 0.930 . S
H1929 C1944 0.960 . S
H1930 C1944 0.960 . S
H1931 C1944 0.960 . S
C1932 H1924 0.929 . S
C1932 C1933 1.377 . S
C1932 C1934 1.384 . S
C1933 C1932 1.377 . S
C1933 C1939 1.390 . S
C1934 H1925 0.930 . S
C1934 C1932 1.384 . S
C1934 C1935 1.372 . S
C1935 C1934 1.372 . S
C1935 C1936 1.400 . S
C1935 C1940 1.490 . S
C1936 H1926 0.930 . S
C1936 C1935 1.400 . S
C1936 C1939 1.386 . S
H1937 C1953 0.930 . S
H1938 C1954 0.931 . S
C1939 H1927 0.929 . S
C1939 C1933 1.390 . S
C1939 C1936 1.386 . S
C1940 C1935 1.490 . S
C1940 C1942 1.395 . S
C1940 C1943 1.403 . S
H1941 C1947 0.930 . S
C1942 H1928 0.930 . S
C1942 C1940 1.395 . S
C1942 C1945 1.403 1_554 S
C1943 C1940 1.403 . S
C1943 C1944 1.524 . S
C1943 C1947 1.400 1_554 S
C1944 H1929 0.960 . S
C1944 H1930 0.960 . S
C1944 H1931 0.960 . S
C1944 C1943 1.524 . S
C1945 C1942 1.403 1_556 S
C1945 C1946 1.392 . S
C1945 C1949 1.495 . S
C1946 C1945 1.392 . S
C1946 C1947 1.385 . S
C1946 C1948 1.478 . S
C1947 H1941 0.930 . S
C1947 C1943 1.400 1_556 S
C1947 C1946 1.385 . S
C1948 C1946 1.478 . S
C1948 C1950 1.381 . S
C1948 C1954 1.383 . S
C1949 C1945 1.495 . S
C1949 H1955 0.959 . S
C1949 H1956 0.961 . S
C1949 H1957 0.960 . S
C1950 C1948 1.381 . S
C1950 C1951 1.394 . S
C1950 H1958 0.930 . S
C1951 C1950 1.394 . S
C1951 C1952 1.383 . S
C1951 H1959 0.929 . S
C1952 C1951 1.383 . S
C1952 C1953 1.377 . S
C1953 H1937 0.930 . S
C1953 C1952 1.377 . S
C1953 C1954 1.379 . S
C1954 H1938 0.931 . S
C1954 C1948 1.383 . S
C1954 C1953 1.379 . S
H1955 C1949 0.959 . S
H1956 C1949 0.961 . S
H1957 C1949 0.960 . S
H1958 C1950 0.930 . S
H1959 C1951 0.929 . S
H1960 C1968 0.929 . S
H1961 C1970 0.930 . S
H1962 C1972 0.930 . S
H1963 C1975 0.929 . S
H1964 C1978 0.930 . S
H1965 C1980 0.960 . S
H1966 C1980 0.960 . S
H1967 C1980 0.960 . S
C1968 H1960 0.929 . S
C1968 C1969 1.377 . S
C1968 C1970 1.384 . S
C1969 C1968 1.377 . S
C1969 C1975 1.390 . S
C1970 H1961 0.930 . S
C1970 C1968 1.384 . S
C1970 C1971 1.372 . S
C1971 C1970 1.372 . S
C1971 C1972 1.400 . S
C1971 C1976 1.490 . S
C1972 H1962 0.930 . S
C1972 C1971 1.400 . S
C1972 C1975 1.386 . S
H1973 C1989 0.930 . S
H1974 C1990 0.931 . S
C1975 H1963 0.929 . S
C1975 C1969 1.390 . S
C1975 C1972 1.386 . S
C1976 C1971 1.490 . S
C1976 C1978 1.395 . S
C1976 C1979 1.403 . S
H1977 C1983 0.930 . S
C1978 H1964 0.930 . S
C1978 C1976 1.395 . S
C1978 C1981 1.403 . S
C1979 C1976 1.403 . S
C1979 C1980 1.524 . S
C1979 C1983 1.400 . S
C1980 H1965 0.960 . S
C1980 H1966 0.960 . S
C1980 H1967 0.960 . S
C1980 C1979 1.524 . S
C1981 C1978 1.403 . S
C1981 C1982 1.392 . S
C1981 C1985 1.495 . S
C1982 C1981 1.392 . S
C1982 C1983 1.385 . S
C1982 C1984 1.478 . S
C1983 H1977 0.930 . S
C1983 C1979 1.400 . S
C1983 C1982 1.385 . S
C1984 C1982 1.478 . S
C1984 C1986 1.381 . S
C1984 C1990 1.383 . S
C1985 C1981 1.495 . S
C1985 H1991 0.959 . S
C1985 H1992 0.961 . S
C1985 H1993 0.960 . S
C1986 C1984 1.381 . S
C1986 C1987 1.394 . S
C1986 H1994 0.930 . S
C1987 C1986 1.394 . S
C1987 C1988 1.383 . S
C1987 H1995 0.929 . S
C1988 C1987 1.383 . S
C1988 C1989 1.377 . S
C1989 H1973 0.930 . S
C1989 C1988 1.377 . S
C1989 C1990 1.379 . S
C1990 H1974 0.931 . S
C1990 C1984 1.383 . S
C1990 C1989 1.379 . S
H1991 C1985 0.959 . S
H1992 C1985 0.961 . S
H1993 C1985 0.960 . S
H1994 C1986 0.930 . S
H1995 C1987 0.929 . S
H1996 C2004 0.929 . S
H1997 C2006 0.930 . S
H1998 C2008 0.930 . S
H1999 C2011 0.929 . S
H2000 C2014 0.930 . S
H2001 C2016 0.960 . S
H2002 C2016 0.960 1_545 S
H2003 C2016 0.960 . S
C2004 H1996 0.929 . S
C2004 C2005 1.377 . S
C2004 C2006 1.384 . S
C2005 C2004 1.377 . S
C2005 C2011 1.390 1_545 S
C2006 H1997 0.930 . S
C2006 C2004 1.384 . S
C2006 C2007 1.372 . S
C2007 C2006 1.372 . S
C2007 C2008 1.400 1_545 S
C2007 C2012 1.490 . S
C2008 H1998 0.930 . S
C2008 C2007 1.400 1_565 S
C2008 C2011 1.386 . S
H2009 C2025 0.930 . S
H2010 C2026 0.931 . S
C2011 H1999 0.929 . S
C2011 C2005 1.390 1_565 S
C2011 C2008 1.386 . S
C2012 C2007 1.490 . S
C2012 C2014 1.395 . S
C2012 C2015 1.403 1_545 S
H2013 C2019 0.930 . S
C2014 H2000 0.930 . S
C2014 C2012 1.395 . S
C2014 C2017 1.403 . S
C2015 C2012 1.403 1_565 S
C2015 C2016 1.524 . S
C2015 C2019 1.400 . S
C2016 H2001 0.960 . S
C2016 H2002 0.960 1_565 S
C2016 H2003 0.960 . S
C2016 C2015 1.524 . S
C2017 C2014 1.403 . S
C2017 C2018 1.392 . S
C2017 C2021 1.495 . S
C2018 C2017 1.392 . S
C2018 C2019 1.385 1_545 S
C2018 C2020 1.478 1_545 S
C2019 H2013 0.930 . S
C2019 C2015 1.400 . S
C2019 C2018 1.385 1_565 S
C2020 C2018 1.478 1_565 S
C2020 C2022 1.381 1_565 S
C2020 C2026 1.383 . S
C2021 C2017 1.495 . S
C2021 H2027 0.959 . S
C2021 H2028 0.961 1_545 S
C2021 H2029 0.960 . S
C2022 C2020 1.381 1_545 S
C2022 C2023 1.394 . S
C2022 H2030 0.930 . S
C2023 C2022 1.394 . S
C2023 C2024 1.383 1_545 S
C2023 H2031 0.929 . S
C2024 C2023 1.383 1_565 S
C2024 C2025 1.377 . S
C2025 H2009 0.930 . S
C2025 C2024 1.377 . S
C2025 C2026 1.379 . S
C2026 H2010 0.931 . S
C2026 C2020 1.383 . S
C2026 C2025 1.379 . S
H2027 C2021 0.959 . S
H2028 C2021 0.961 1_565 S
H2029 C2021 0.960 . S
H2030 C2022 0.930 . S
H2031 C2023 0.929 . S
H2032 C2040 0.929 . S
H2033 C2042 0.930 . S
H2034 C2044 0.930 . S
H2035 C2047 0.929 . S
H2036 C2050 0.930 . S
H2037 C2052 0.960 . S
H2038 C2052 0.960 . S
H2039 C2052 0.960 . S
C2040 H2032 0.929 . S
C2040 C2041 1.377 . S
C2040 C2042 1.384 . S
C2041 C2040 1.377 . S
C2041 C2047 1.390 . S
C2042 H2033 0.930 . S
C2042 C2040 1.384 . S
C2042 C2043 1.372 . S
C2043 C2042 1.372 . S
C2043 C2044 1.400 . S
C2043 C2048 1.490 . S
C2044 H2034 0.930 . S
C2044 C2043 1.400 . S
C2044 C2047 1.386 . S
H2045 C2061 0.930 . S
H2046 C2062 0.931 . S
C2047 H2035 0.929 . S
C2047 C2041 1.390 . S
C2047 C2044 1.386 . S
C2048 C2043 1.490 . S
C2048 C2050 1.395 . S
C2048 C2051 1.403 . S
H2049 C2055 0.930 . S
C2050 H2036 0.930 . S
C2050 C2048 1.395 . S
C2050 C2053 1.403 1_556 S
C2051 C2048 1.403 . S
C2051 C2052 1.524 . S
C2051 C2055 1.400 1_556 S
C2052 H2037 0.960 . S
C2052 H2038 0.960 . S
C2052 H2039 0.960 . S
C2052 C2051 1.524 . S
C2053 C2050 1.403 1_554 S
C2053 C2054 1.392 . S
C2053 C2057 1.495 . S
C2054 C2053 1.392 . S
C2054 C2055 1.385 . S
C2054 C2056 1.478 . S
C2055 H2049 0.930 . S
C2055 C2051 1.400 1_554 S
C2055 C2054 1.385 . S
C2056 C2054 1.478 . S
C2056 C2058 1.381 . S
C2056 C2062 1.383 . S
C2057 C2053 1.495 . S
C2057 H2063 0.959 . S
C2057 H2064 0.961 . S
C2057 H2065 0.960 . S
C2058 C2056 1.381 . S
C2058 C2059 1.394 . S
C2058 H2066 0.930 . S
C2059 C2058 1.394 . S
C2059 C2060 1.383 . S
C2059 H2067 0.929 . S
C2060 C2059 1.383 . S
C2060 C2061 1.377 . S
C2061 H2045 0.930 . S
C2061 C2060 1.377 . S
C2061 C2062 1.379 . S
C2062 H2046 0.931 . S
C2062 C2056 1.383 . S
C2062 C2061 1.379 . S
H2063 C2057 0.959 . S
H2064 C2057 0.961 . S
H2065 C2057 0.960 . S
H2066 C2058 0.930 . S
H2067 C2059 0.929 . S
H2068 C2076 0.929 . S
H2069 C2078 0.930 . S
H2070 C2080 0.930 . S
H2071 C2083 0.929 . S
H2072 C2086 0.930 . S
H2073 C2088 0.960 . S
H2074 C2088 0.960 . S
H2075 C2088 0.960 . S
C2076 H2068 0.929 . S
C2076 C2077 1.377 . S
C2076 C2078 1.384 . S
C2077 C2076 1.377 . S
C2077 C2083 1.390 . S
C2078 H2069 0.930 . S
C2078 C2076 1.384 . S
C2078 C2079 1.372 . S
C2079 C2078 1.372 . S
C2079 C2080 1.400 . S
C2079 C2084 1.490 . S
C2080 H2070 0.930 . S
C2080 C2079 1.400 . S
C2080 C2083 1.386 . S
H2081 C2097 0.930 . S
H2082 C2098 0.931 . S
C2083 H2071 0.929 . S
C2083 C2077 1.390 . S
C2083 C2080 1.386 . S
C2084 C2079 1.490 . S
C2084 C2086 1.395 . S
C2084 C2087 1.403 . S
H2085 C2091 0.930 . S
C2086 H2072 0.930 . S
C2086 C2084 1.395 . S
C2086 C2089 1.403 . S
C2087 C2084 1.403 . S
C2087 C2088 1.524 . S
C2087 C2091 1.400 . S
C2088 H2073 0.960 . S
C2088 H2074 0.960 . S
C2088 H2075 0.960 . S
C2088 C2087 1.524 . S
C2089 C2086 1.403 . S
C2089 C2090 1.392 . S
C2089 C2093 1.495 . S
C2090 C2089 1.392 . S
C2090 C2091 1.385 . S
C2090 C2092 1.478 . S
C2091 H2085 0.930 . S
C2091 C2087 1.400 . S
C2091 C2090 1.385 . S
C2092 C2090 1.478 . S
C2092 C2094 1.381 . S
C2092 C2098 1.383 . S
C2093 C2089 1.495 . S
C2093 H2099 0.959 . S
C2093 H2100 0.961 . S
C2093 H2101 0.960 . S
C2094 C2092 1.381 . S
C2094 C2095 1.394 . S
C2094 H2102 0.930 . S
C2095 C2094 1.394 . S
C2095 C2096 1.383 . S
C2095 H2103 0.929 . S
C2096 C2095 1.383 . S
C2096 C2097 1.377 . S
C2097 H2081 0.930 . S
C2097 C2096 1.377 . S
C2097 C2098 1.379 . S
C2098 H2082 0.931 . S
C2098 C2092 1.383 . S
C2098 C2097 1.379 . S
H2099 C2093 0.959 . S
H2100 C2093 0.961 . S
H2101 C2093 0.960 . S
H2102 C2094 0.930 . S
H2103 C2095 0.929 . S
H2104 C2112 0.929 . S
H2105 C2114 0.930 . S
H2106 C2116 0.931 . S
H2107 C2119 0.929 . S
H2108 C2122 0.930 . S
H2109 C2124 0.960 . S
H2110 C2124 0.960 . S
H2111 C2124 0.960 . S
C2112 H2104 0.929 . S
C2112 C2113 1.377 . S
C2112 C2114 1.384 . S
C2113 C2112 1.377 . S
C2113 C2119 1.390 . S
C2114 H2105 0.930 . S
C2114 C2112 1.384 . S
C2114 C2115 1.372 . S
C2115 C2114 1.372 . S
C2115 C2116 1.400 . S
C2115 C2120 1.490 1_545 S
C2116 H2106 0.931 . S
C2116 C2115 1.400 . S
C2116 C2119 1.386 . S
H2117 C2133 0.930 . S
H2118 C2134 0.931 . S
C2119 H2107 0.929 . S
C2119 C2113 1.390 . S
C2119 C2116 1.386 . S
C2120 C2115 1.490 1_565 S
C2120 C2122 1.396 . S
C2120 C2123 1.401 1_565 S
H2121 C2127 0.930 . S
C2122 H2108 0.930 . S
C2122 C2120 1.396 . S
C2122 C2125 1.403 . S
C2123 C2120 1.401 1_545 S
C2123 C2124 1.524 . S
C2123 C2127 1.400 . S
C2124 H2109 0.960 . S
C2124 H2110 0.960 . S
C2124 H2111 0.960 . S
C2124 C2123 1.524 . S
C2125 C2122 1.403 . S
C2125 C2126 1.392 . S
C2125 C2129 1.495 . S
C2126 C2125 1.392 . S
C2126 C2127 1.385 1_565 S
C2126 C2128 1.478 . S
C2127 H2121 0.930 . S
C2127 C2123 1.400 . S
C2127 C2126 1.385 1_545 S
C2128 C2126 1.478 . S
C2128 C2130 1.381 . S
C2128 C2134 1.383 . S
C2129 C2125 1.495 . S
C2129 H2135 0.959 . S
C2129 H2136 0.961 . S
C2129 H2137 0.960 . S
C2130 C2128 1.381 . S
C2130 C2131 1.394 . S
C2130 H2138 0.934 . S
C2131 C2130 1.394 . S
C2131 C2132 1.383 . S
C2131 H2139 0.929 1_565 S
C2132 C2131 1.383 . S
C2132 C2133 1.377 . S
C2133 H2117 0.930 . S
C2133 C2132 1.377 . S
C2133 C2134 1.379 . S
C2134 H2118 0.931 . S
C2134 C2128 1.383 . S
C2134 C2133 1.379 . S
H2135 C2129 0.959 . S
H2136 C2129 0.961 . S
H2137 C2129 0.960 . S
H2138 C2130 0.934 . S
H2139 C2131 0.929 1_545 S
H2140 C2148 0.929 . S
H2141 C2150 0.930 . S
H2142 C2152 0.930 . S
H2143 C2155 0.929 . S
H2144 C2158 0.930 . S
H2145 C2160 0.960 . S
H2146 C2160 0.960 . S
H2147 C2160 0.960 . S
C2148 H2140 0.929 . S
C2148 C2149 1.377 . S
C2148 C2150 1.384 . S
C2149 C2148 1.377 . S
C2149 C2155 1.390 . S
C2150 H2141 0.930 . S
C2150 C2148 1.384 . S
C2150 C2151 1.372 . S
C2151 C2150 1.372 . S
C2151 C2152 1.400 . S
C2151 C2156 1.490 . S
C2152 H2142 0.930 . S
C2152 C2151 1.400 . S
C2152 C2155 1.386 . S
H2153 C2169 0.930 . S
H2154 C2170 0.931 . S
C2155 H2143 0.929 . S
C2155 C2149 1.390 . S
C2155 C2152 1.386 . S
C2156 C2151 1.490 . S
C2156 C2158 1.395 . S
C2156 C2159 1.403 . S
H2157 C2163 0.930 . S
C2158 H2144 0.930 . S
C2158 C2156 1.395 . S
C2158 C2161 1.403 . S
C2159 C2156 1.403 . S
C2159 C2160 1.524 . S
C2159 C2163 1.400 . S
C2160 H2145 0.960 . S
C2160 H2146 0.960 . S
C2160 H2147 0.960 . S
C2160 C2159 1.524 . S
C2161 C2158 1.403 . S
C2161 C2162 1.392 . S
C2161 C2165 1.495 . S
C2162 C2161 1.392 . S
C2162 C2163 1.385 . S
C2162 C2164 1.478 . S
C2163 H2157 0.930 . S
C2163 C2159 1.400 . S
C2163 C2162 1.385 . S
C2164 C2162 1.478 . S
C2164 C2166 1.381 . S
C2164 C2170 1.383 . S
C2165 C2161 1.495 . S
C2165 H2171 0.959 . S
C2165 H2172 0.961 . S
C2165 H2173 0.960 . S
C2166 C2164 1.381 . S
C2166 C2167 1.394 . S
C2166 H2174 0.930 . S
C2167 C2166 1.394 . S
C2167 C2168 1.383 . S
C2167 H2175 0.929 . S
C2168 C2167 1.383 . S
C2168 C2169 1.377 . S
C2169 H2153 0.930 . S
C2169 C2168 1.377 . S
C2169 C2170 1.379 . S
C2170 H2154 0.931 . S
C2170 C2164 1.383 . S
C2170 C2169 1.379 . S
H2171 C2165 0.959 . S
H2172 C2165 0.961 . S
H2173 C2165 0.960 . S
H2174 C2166 0.930 . S
H2175 C2167 0.929 . S
H2176 C2184 0.929 . S
H2177 C2186 0.930 . S
H2178 C2188 0.930 . S
H2179 C2191 0.929 . S
H2180 C2194 0.930 . S
H2181 C2196 0.960 . S
H2182 C2196 0.960 . S
H2183 C2196 0.960 . S
C2184 H2176 0.929 . S
C2184 C2185 1.377 . S
C2184 C2186 1.384 . S
C2185 C2184 1.377 . S
C2185 C2191 1.390 . S
C2186 H2177 0.930 . S
C2186 C2184 1.384 . S
C2186 C2187 1.372 . S
C2187 C2186 1.372 . S
C2187 C2188 1.400 . S
C2187 C2192 1.490 . S
C2188 H2178 0.930 . S
C2188 C2187 1.400 . S
C2188 C2191 1.386 . S
H2189 C2205 0.930 . S
H2190 C2206 0.931 . S
C2191 H2179 0.929 . S
C2191 C2185 1.390 . S
C2191 C2188 1.386 . S
C2192 C2187 1.490 . S
C2192 C2194 1.395 . S
C2192 C2195 1.403 . S
H2193 C2199 0.930 . S
C2194 H2180 0.930 . S
C2194 C2192 1.395 . S
C2194 C2197 1.403 . S
C2195 C2192 1.403 . S
C2195 C2196 1.524 . S
C2195 C2199 1.400 . S
C2196 H2181 0.960 . S
C2196 H2182 0.960 . S
C2196 H2183 0.960 . S
C2196 C2195 1.524 . S
C2197 C2194 1.403 . S
C2197 C2198 1.392 . S
C2197 C2201 1.495 . S
C2198 C2197 1.392 . S
C2198 C2199 1.385 . S
C2198 C2200 1.478 . S
C2199 H2193 0.930 . S
C2199 C2195 1.400 . S
C2199 C2198 1.385 . S
C2200 C2198 1.478 . S
C2200 C2202 1.381 . S
C2200 C2206 1.383 . S
C2201 C2197 1.495 . S
C2201 H2207 0.959 . S
C2201 H2208 0.961 . S
C2201 H2209 0.960 . S
C2202 C2200 1.381 . S
C2202 C2203 1.394 . S
C2202 H2210 0.930 . S
C2203 C2202 1.394 . S
C2203 C2204 1.383 . S
C2203 H2211 0.929 . S
C2204 C2203 1.383 . S
C2204 C2205 1.377 . S
C2205 H2189 0.930 . S
C2205 C2204 1.377 . S
C2205 C2206 1.379 . S
C2206 H2190 0.931 . S
C2206 C2200 1.383 . S
C2206 C2205 1.379 . S
H2207 C2201 0.959 . S
H2208 C2201 0.961 . S
H2209 C2201 0.960 . S
H2210 C2202 0.930 . S
H2211 C2203 0.929 . S
H2212 C2220 0.929 . S
H2213 C2222 0.930 . S
H2214 C2224 0.930 . S
H2215 C2227 0.929 . S
H2216 C2230 0.930 . S
H2217 C2232 0.960 . S
H2218 C2232 0.960 . S
H2219 C2232 0.960 . S
C2220 H2212 0.929 . S
C2220 C2221 1.377 . S
C2220 C2222 1.384 . S
C2221 C2220 1.377 . S
C2221 C2227 1.390 . S
C2222 H2213 0.930 . S
C2222 C2220 1.384 . S
C2222 C2223 1.372 . S
C2223 C2222 1.372 . S
C2223 C2224 1.400 . S
C2223 C2228 1.490 . S
C2224 H2214 0.930 . S
C2224 C2223 1.400 . S
C2224 C2227 1.386 . S
H2225 C2241 0.930 . S
H2226 C2242 0.931 . S
C2227 H2215 0.929 . S
C2227 C2221 1.390 . S
C2227 C2224 1.386 . S
C2228 C2223 1.490 . S
C2228 C2230 1.395 . S
C2228 C2231 1.403 . S
H2229 C2235 0.930 . S
C2230 H2216 0.930 . S
C2230 C2228 1.395 . S
C2230 C2233 1.403 . S
C2231 C2228 1.403 . S
C2231 C2232 1.524 . S
C2231 C2235 1.400 . S
C2232 H2217 0.960 . S
C2232 H2218 0.960 . S
C2232 H2219 0.960 . S
C2232 C2231 1.524 . S
C2233 C2230 1.403 . S
C2233 C2234 1.392 . S
C2233 C2237 1.495 . S
C2234 C2233 1.392 . S
C2234 C2235 1.385 . S
C2234 C2236 1.478 . S
C2235 H2229 0.930 . S
C2235 C2231 1.400 . S
C2235 C2234 1.385 . S
C2236 C2234 1.478 . S
C2236 C2238 1.381 . S
C2236 C2242 1.383 . S
C2237 C2233 1.495 . S
C2237 H2243 0.959 . S
C2237 H2244 0.961 . S
C2237 H2245 0.960 . S
C2238 C2236 1.381 . S
C2238 C2239 1.394 . S
C2238 H2246 0.930 . S
C2239 C2238 1.394 . S
C2239 C2240 1.383 . S
C2239 H2247 0.929 . S
C2240 C2239 1.383 . S
C2240 C2241 1.377 . S
C2241 H2225 0.930 . S
C2241 C2240 1.377 . S
C2241 C2242 1.379 . S
C2242 H2226 0.931 . S
C2242 C2236 1.383 . S
C2242 C2241 1.379 . S
H2243 C2237 0.959 . S
H2244 C2237 0.961 . S
H2245 C2237 0.960 . S
H2246 C2238 0.930 . S
H2247 C2239 0.929 . S
H2248 C2256 0.929 . S
H2249 C2258 0.930 . S
H2250 C2260 0.930 . S
H2251 C2263 0.929 . S
H2252 C2266 0.930 . S
H2253 C2268 0.960 . S
H2254 C2268 0.960 . S
H2255 C2268 0.960 . S
C2256 H2248 0.929 . S
C2256 C2257 1.377 . S
C2256 C2258 1.384 . S
C2257 C2256 1.377 . S
C2257 C2263 1.390 . S
C2258 H2249 0.930 . S
C2258 C2256 1.384 . S
C2258 C2259 1.372 . S
C2259 C2258 1.372 . S
C2259 C2260 1.400 . S
C2259 C2264 1.490 . S
C2260 H2250 0.930 . S
C2260 C2259 1.400 . S
C2260 C2263 1.386 . S
H2261 C2277 0.930 . S
H2262 C2278 0.931 . S
C2263 H2251 0.929 . S
C2263 C2257 1.390 . S
C2263 C2260 1.386 . S
C2264 C2259 1.490 . S
C2264 C2266 1.395 . S
C2264 C2267 1.403 . S
H2265 C2271 0.930 . S
C2266 H2252 0.930 . S
C2266 C2264 1.395 . S
C2266 C2269 1.403 . S
C2267 C2264 1.403 . S
C2267 C2268 1.524 . S
C2267 C2271 1.400 . S
C2268 H2253 0.960 . S
C2268 H2254 0.960 . S
C2268 H2255 0.960 . S
C2268 C2267 1.524 . S
C2269 C2266 1.403 . S
C2269 C2270 1.392 . S
C2269 C2273 1.495 . S
C2270 C2269 1.392 . S
C2270 C2271 1.385 . S
C2270 C2272 1.478 . S
C2271 H2265 0.930 . S
C2271 C2267 1.400 . S
C2271 C2270 1.385 . S
C2272 C2270 1.478 . S
C2272 C2274 1.381 . S
C2272 C2278 1.383 . S
C2273 C2269 1.495 . S
C2273 H2279 0.959 . S
C2273 H2280 0.961 . S
C2273 H2281 0.960 . S
C2274 C2272 1.381 . S
C2274 C2275 1.394 . S
C2274 H2282 0.930 . S
C2275 C2274 1.394 . S
C2275 C2276 1.383 . S
C2275 H2283 0.929 . S
C2276 C2275 1.383 . S
C2276 C2277 1.377 . S
C2277 H2261 0.930 . S
C2277 C2276 1.377 . S
C2277 C2278 1.379 . S
C2278 H2262 0.931 . S
C2278 C2272 1.383 . S
C2278 C2277 1.379 . S
H2279 C2273 0.959 . S
H2280 C2273 0.961 . S
H2281 C2273 0.960 . S
H2282 C2274 0.930 . S
H2283 C2275 0.929 . S
H2284 C2292 0.929 . S
H2285 C2294 0.930 . S
H2286 C2296 0.930 . S
H2287 C2299 0.929 . S
H2288 C2302 0.930 . S
H2289 C2304 0.960 . S
H2290 C2304 0.960 . S
H2291 C2304 0.960 . S
C2292 H2284 0.929 . S
C2292 C2293 1.377 . S
C2292 C2294 1.384 . S
C2293 C2292 1.377 . S
C2293 C2299 1.390 . S
C2294 H2285 0.930 . S
C2294 C2292 1.384 . S
C2294 C2295 1.372 . S
C2295 C2294 1.372 . S
C2295 C2296 1.400 . S
C2295 C2300 1.490 . S
C2296 H2286 0.930 . S
C2296 C2295 1.400 . S
C2296 C2299 1.386 . S
H2297 C2313 0.930 . S
H2298 C2314 0.931 . S
C2299 H2287 0.929 . S
C2299 C2293 1.390 . S
C2299 C2296 1.386 . S
C2300 C2295 1.490 . S
C2300 C2302 1.395 . S
C2300 C2303 1.403 . S
H2301 C2307 0.930 . S
C2302 H2288 0.930 . S
C2302 C2300 1.395 . S
C2302 C2305 1.403 . S
C2303 C2300 1.403 . S
C2303 C2304 1.524 . S
C2303 C2307 1.400 . S
C2304 H2289 0.960 . S
C2304 H2290 0.960 . S
C2304 H2291 0.960 . S
C2304 C2303 1.524 . S
C2305 C2302 1.403 . S
C2305 C2306 1.392 . S
C2305 C2309 1.495 . S
C2306 C2305 1.392 . S
C2306 C2307 1.385 . S
C2306 C2308 1.478 . S
C2307 H2301 0.930 . S
C2307 C2303 1.400 . S
C2307 C2306 1.385 . S
C2308 C2306 1.478 . S
C2308 C2310 1.381 . S
C2308 C2314 1.383 . S
C2309 C2305 1.495 . S
C2309 H2315 0.959 . S
C2309 H2316 0.961 . S
C2309 H2317 0.960 . S
C2310 C2308 1.381 . S
C2310 C2311 1.394 . S
C2310 H2318 0.930 . S
C2311 C2310 1.394 . S
C2311 C2312 1.383 . S
C2311 H2319 0.929 . S
C2312 C2311 1.383 . S
C2312 C2313 1.377 . S
C2313 H2297 0.930 . S
C2313 C2312 1.377 . S
C2313 C2314 1.379 . S
C2314 H2298 0.931 . S
C2314 C2308 1.383 . S
C2314 C2313 1.379 . S
H2315 C2309 0.959 . S
H2316 C2309 0.961 . S
H2317 C2309 0.960 . S
H2318 C2310 0.930 . S
H2319 C2311 0.929 . S
H2320 C2328 0.929 . S
H2321 C2330 0.930 . S
H2322 C2332 0.930 . S
H2323 C2335 0.929 . S
H2324 C2338 0.930 . S
H2325 C2340 0.960 . S
H2326 C2340 0.960 . S
H2327 C2340 0.960 . S
C2328 H2320 0.929 . S
C2328 C2329 1.377 1_545 S
C2328 C2330 1.384 . S
C2329 C2328 1.377 1_565 S
C2329 C2335 1.390 1_455 S
C2330 H2321 0.930 . S
C2330 C2328 1.384 . S
C2330 C2331 1.347 1_545 S
C2331 C2330 1.347 1_565 S
C2331 C2332 1.427 1_455 S
C2331 C2336 1.488 1_565 S
C2332 H2322 0.930 . S
C2332 C2331 1.427 1_655 S
C2332 C2335 1.386 . S
H2333 C2349 0.930 . S
H2334 C2350 0.931 . S
C2335 H2323 0.929 . S
C2335 C2329 1.390 1_655 S
C2335 C2332 1.386 . S
C2336 C2331 1.488 1_545 S
C2336 C2338 1.395 1_455 S
C2336 C2339 1.403 1_545 S
H2337 C2343 0.930 . S
C2338 H2324 0.930 . S
C2338 C2336 1.395 1_655 S
C2338 C2341 1.403 . S
C2339 C2336 1.403 1_565 S
C2339 C2340 1.524 . S
C2339 C2343 1.400 . S
C2340 H2325 0.960 . S
C2340 H2326 0.960 . S
C2340 H2327 0.960 . S
C2340 C2339 1.524 . S
C2341 C2338 1.403 . S
C2341 C2342 1.392 . S
C2341 C2345 1.495 . S
C2342 C2341 1.392 . S
C2342 C2343 1.385 1_645 S
C2342 C2344 1.478 . S
C2343 H2337 0.930 . S
C2343 C2339 1.400 . S
C2343 C2342 1.385 1_465 S
C2344 C2342 1.478 . S
C2344 C2346 1.381 1_655 S
C2344 C2350 1.383 1_545 S
C2345 C2341 1.495 . S
C2345 H2351 0.959 . S
C2345 H2352 0.961 . S
C2345 H2353 0.960 . S
C2346 C2344 1.381 1_455 S
C2346 C2347 1.394 . S
C2346 H2354 0.930 . S
C2347 C2346 1.394 . S
C2347 C2348 1.383 1_455 S
C2347 H2355 0.929 . S
C2348 C2347 1.383 1_655 S
C2348 C2349 1.377 1_545 S
C2349 H2333 0.930 . S
C2349 C2348 1.377 1_565 S
C2349 C2350 1.379 . S
C2350 H2334 0.931 . S
C2350 C2344 1.383 1_565 S
C2350 C2349 1.379 . S
H2351 C2345 0.959 . S
H2352 C2345 0.961 . S
H2353 C2345 0.960 . S
H2354 C2346 0.930 . S
H2355 C2347 0.929 . S
H2356 C2364 0.929 . S
H2357 C2366 0.930 . S
H2358 C2368 0.930 . S
H2359 C2371 0.929 . S
H2360 C2374 0.930 . S
H2361 C2376 0.960 . S
H2362 C2376 0.960 . S
H2363 C2376 0.960 . S
C2364 H2356 0.929 . S
C2364 C2365 1.377 1_455 S
C2364 C2366 1.384 . S
C2365 C2364 1.377 1_655 S
C2365 C2371 1.390 . S
C2366 H2357 0.930 . S
C2366 C2364 1.384 . S
C2366 C2367 1.372 1_455 S
C2367 C2366 1.372 1_655 S
C2367 C2368 1.400 . S
C2367 C2372 1.491 . S
C2368 H2358 0.930 . S
C2368 C2367 1.400 . S
C2368 C2371 1.386 . S
H2369 C2385 0.930 . S
H2370 C2386 0.931 . S
C2371 H2359 0.929 . S
C2371 C2365 1.390 . S
C2371 C2368 1.386 . S
C2372 C2367 1.491 . S
C2372 C2374 1.409 . S
C2372 C2375 1.388 1_655 S
H2373 C2379 0.930 . S
C2374 H2360 0.930 . S
C2374 C2372 1.409 . S
C2374 C2377 1.403 . S
C2375 C2372 1.388 1_455 S
C2375 C2376 1.524 . S
C2375 C2379 1.400 . S
C2376 H2361 0.960 . S
C2376 H2362 0.960 . S
C2376 H2363 0.960 . S
C2376 C2375 1.524 . S
C2377 C2374 1.403 . S
C2377 C2378 1.405 . S
C2377 C2381 1.495 . S
C2378 C2377 1.405 . S
C2378 C2379 1.374 1_655 S
C2378 C2380 1.477 . S
C2379 H2373 0.930 . S
C2379 C2375 1.400 . S
C2379 C2378 1.374 1_455 S
C2380 C2378 1.477 . S
C2380 C2382 1.383 1_655 S
C2380 C2386 1.381 . S
C2381 C2377 1.495 . S
C2381 H2387 0.959 . S
C2381 H2388 0.961 . S
C2381 H2389 0.960 . S
C2382 C2380 1.383 1_455 S
C2382 C2383 1.394 . S
C2382 H2390 0.930 . S
C2383 C2382 1.394 . S
C2383 C2384 1.383 . S
C2383 H2391 0.929 . S
C2384 C2383 1.383 . S
C2384 C2385 1.377 1_455 S
C2385 H2369 0.930 . S
C2385 C2384 1.377 1_655 S
C2385 C2386 1.379 . S
C2386 H2370 0.931 . S
C2386 C2380 1.381 . S
C2386 C2385 1.379 . S
H2387 C2381 0.959 . S
H2388 C2381 0.961 . S
H2389 C2381 0.960 . S
H2390 C2382 0.930 . S
H2391 C2383 0.929 . S
H2392 C2400 0.929 . S
H2393 C2402 0.930 . S
H2394 C2404 0.930 . S
H2395 C2407 0.929 . S
H2396 C2410 0.930 . S
H2397 C2412 0.960 . S
H2398 C2412 0.960 . S
H2399 C2412 0.960 . S
C2400 H2392 0.929 . S
C2400 C2401 1.377 . S
C2400 C2402 1.384 . S
C2401 C2400 1.377 . S
C2401 C2407 1.390 1_655 S
C2402 H2393 0.930 . S
C2402 C2400 1.384 . S
C2402 C2403 1.372 . S
C2403 C2402 1.372 . S
C2403 C2404 1.400 1_655 S
C2403 C2408 1.490 . S
C2404 H2394 0.930 . S
C2404 C2403 1.400 1_455 S
C2404 C2407 1.386 . S
H2405 C2421 0.930 . S
H2406 C2422 0.931 . S
C2407 H2395 0.929 . S
C2407 C2401 1.390 1_455 S
C2407 C2404 1.386 . S
C2408 C2403 1.490 . S
C2408 C2410 1.395 1_655 S
C2408 C2411 1.403 . S
H2409 C2415 0.930 . S
C2410 H2396 0.930 . S
C2410 C2408 1.395 1_455 S
C2410 C2413 1.403 . S
C2411 C2408 1.403 . S
C2411 C2412 1.524 . S
C2411 C2415 1.400 . S
C2412 H2397 0.960 . S
C2412 H2398 0.960 . S
C2412 H2399 0.960 . S
C2412 C2411 1.524 . S
C2413 C2410 1.403 . S
C2413 C2414 1.392 . S
C2413 C2417 1.495 . S
C2414 C2413 1.392 . S
C2414 C2415 1.385 1_455 S
C2414 C2416 1.478 . S
C2415 H2409 0.930 . S
C2415 C2411 1.400 . S
C2415 C2414 1.385 1_655 S
C2416 C2414 1.478 . S
C2416 C2418 1.381 1_455 S
C2416 C2422 1.383 . S
C2417 C2413 1.495 . S
C2417 H2423 0.959 . S
C2417 H2424 0.961 . S
C2417 H2425 0.960 . S
C2418 C2416 1.381 1_655 S
C2418 C2419 1.394 . S
C2418 H2426 0.930 . S
C2419 C2418 1.394 . S
C2419 C2420 1.383 1_655 S
C2419 H2427 0.929 . S
C2420 C2419 1.383 1_455 S
C2420 C2421 1.377 . S
C2421 H2405 0.930 . S
C2421 C2420 1.377 . S
C2421 C2422 1.379 . S
C2422 H2406 0.931 . S
C2422 C2416 1.383 . S
C2422 C2421 1.379 . S
H2423 C2417 0.959 . S
H2424 C2417 0.961 . S
H2425 C2417 0.960 . S
H2426 C2418 0.930 . S
H2427 C2419 0.929 . S
H2428 C2436 0.929 . S
H2429 C2438 0.930 . S
H2430 C2440 0.933 . S
H2431 C2443 0.925 1_655 S
H2432 C2446 0.930 . S
H2433 C2448 0.960 . S
H2434 C2448 0.960 . S
H2435 C2448 0.960 . S
C2436 H2428 0.929 . S
C2436 C2437 1.377 . S
C2436 C2438 1.384 . S
C2437 C2436 1.377 . S
C2437 C2443 1.395 . S
C2438 H2429 0.930 . S
C2438 C2436 1.384 . S
C2438 C2439 1.372 . S
C2439 C2438 1.372 . S
C2439 C2440 1.398 1_455 S
C2439 C2444 1.490 . S
C2440 H2430 0.933 . S
C2440 C2439 1.398 1_655 S
C2440 C2443 1.384 1_655 S
H2441 C2457 0.930 . S
H2442 C2458 0.931 . S
C2443 H2431 0.925 1_455 S
C2443 C2437 1.395 . S
C2443 C2440 1.384 1_455 S
C2444 C2439 1.490 . S
C2444 C2446 1.395 . S
C2444 C2447 1.403 1_455 S
H2445 C2451 0.930 . S
C2446 H2432 0.930 . S
C2446 C2444 1.395 . S
C2446 C2449 1.403 1_556 S
C2447 C2444 1.403 1_655 S
C2447 C2448 1.524 . S
C2447 C2451 1.400 1_556 S
C2448 H2433 0.960 . S
C2448 H2434 0.960 . S
C2448 H2435 0.960 . S
C2448 C2447 1.524 . S
C2449 C2446 1.403 1_554 S
C2449 C2450 1.392 . S
C2449 C2453 1.495 . S
C2450 C2449 1.392 . S
C2450 C2451 1.385 1_455 S
C2450 C2452 1.478 . S
C2451 H2445 0.930 . S
C2451 C2447 1.400 1_554 S
C2451 C2450 1.385 1_655 S
C2452 C2450 1.478 . S
C2452 C2454 1.381 . S
C2452 C2458 1.384 . S
C2453 C2449 1.495 . S
C2453 H2459 0.959 . S
C2453 H2460 0.961 . S
C2453 H2461 0.960 . S
C2454 C2452 1.381 . S
C2454 C2455 1.390 1_455 S
C2454 H2462 0.930 . S
C2455 C2454 1.390 1_655 S
C2455 C2456 1.387 . S
C2455 H2463 0.931 . S
C2456 C2455 1.387 . S
C2456 C2457 1.377 . S
C2457 H2441 0.930 . S
C2457 C2456 1.377 . S
C2457 C2458 1.378 1_655 S
C2458 H2442 0.931 . S
C2458 C2452 1.384 . S
C2458 C2457 1.378 1_455 S
H2459 C2453 0.959 . S
H2460 C2453 0.961 . S
H2461 C2453 0.960 . S
H2462 C2454 0.930 . S
H2463 C2455 0.931 . S
H2464 C2472 0.929 . S
H2465 C2474 0.930 . S
H2466 C2476 0.930 . S
H2467 C2479 0.929 . S
H2468 C2482 0.930 . S
H2469 C2484 0.960 . S
H2470 C2484 0.960 . S
H2471 C2484 0.960 . S
C2472 H2464 0.929 . S
C2472 C2473 1.377 . S
C2472 C2474 1.384 . S
C2473 C2472 1.377 . S
C2473 C2479 1.390 . S
C2474 H2465 0.930 . S
C2474 C2472 1.384 . S
C2474 C2475 1.372 . S
C2475 C2474 1.372 . S
C2475 C2476 1.400 . S
C2475 C2480 1.490 . S
C2476 H2466 0.930 . S
C2476 C2475 1.400 . S
C2476 C2479 1.386 . S
H2477 C2493 0.930 . S
H2478 C2494 0.931 . S
C2479 H2467 0.929 . S
C2479 C2473 1.390 . S
C2479 C2476 1.386 . S
C2480 C2475 1.490 . S
C2480 C2482 1.395 . S
C2480 C2483 1.403 . S
H2481 C2487 0.930 . S
C2482 H2468 0.930 . S
C2482 C2480 1.395 . S
C2482 C2485 1.403 . S
C2483 C2480 1.403 . S
C2483 C2484 1.524 . S
C2483 C2487 1.400 . S
C2484 H2469 0.960 . S
C2484 H2470 0.960 . S
C2484 H2471 0.960 . S
C2484 C2483 1.524 . S
C2485 C2482 1.403 . S
C2485 C2486 1.392 . S
C2485 C2489 1.495 . S
C2486 C2485 1.392 . S
C2486 C2487 1.385 . S
C2486 C2488 1.478 . S
C2487 H2481 0.930 . S
C2487 C2483 1.400 . S
C2487 C2486 1.385 . S
C2488 C2486 1.478 . S
C2488 C2490 1.381 . S
C2488 C2494 1.383 . S
C2489 C2485 1.495 . S
C2489 H2495 0.959 . S
C2489 H2496 0.961 . S
C2489 H2497 0.960 . S
C2490 C2488 1.381 . S
C2490 C2491 1.394 . S
C2490 H2498 0.930 . S
C2491 C2490 1.394 . S
C2491 C2492 1.383 . S
C2491 H2499 0.929 . S
C2492 C2491 1.383 . S
C2492 C2493 1.377 . S
C2493 H2477 0.930 . S
C2493 C2492 1.377 . S
C2493 C2494 1.379 . S
C2494 H2478 0.931 . S
C2494 C2488 1.383 . S
C2494 C2493 1.379 . S
H2495 C2489 0.959 . S
H2496 C2489 0.961 . S
H2497 C2489 0.960 . S
H2498 C2490 0.930 . S
H2499 C2491 0.929 . S
H2500 C2508 0.929 . S
H2501 C2510 0.930 . S
H2502 C2512 0.930 . S
H2503 C2515 0.929 . S
H2504 C2518 0.930 . S
H2505 C2520 0.960 . S
H2506 C2520 0.960 . S
H2507 C2520 0.960 . S
C2508 H2500 0.929 . S
C2508 C2509 1.377 . S
C2508 C2510 1.384 . S
C2509 C2508 1.377 . S
C2509 C2515 1.390 . S
C2510 H2501 0.930 . S
C2510 C2508 1.384 . S
C2510 C2511 1.372 . S
C2511 C2510 1.372 . S
C2511 C2512 1.400 . S
C2511 C2516 1.490 . S
C2512 H2502 0.930 . S
C2512 C2511 1.400 . S
C2512 C2515 1.386 . S
H2513 C2529 0.930 . S
H2514 C2530 0.931 . S
C2515 H2503 0.929 . S
C2515 C2509 1.390 . S
C2515 C2512 1.386 . S
C2516 C2511 1.490 . S
C2516 C2518 1.395 . S
C2516 C2519 1.403 . S
H2517 C2523 0.930 . S
C2518 H2504 0.930 . S
C2518 C2516 1.395 . S
C2518 C2521 1.403 . S
C2519 C2516 1.403 . S
C2519 C2520 1.524 . S
C2519 C2523 1.400 . S
C2520 H2505 0.960 . S
C2520 H2506 0.960 . S
C2520 H2507 0.960 . S
C2520 C2519 1.524 . S
C2521 C2518 1.403 . S
C2521 C2522 1.392 . S
C2521 C2525 1.495 . S
C2522 C2521 1.392 . S
C2522 C2523 1.385 . S
C2522 C2524 1.478 . S
C2523 H2517 0.930 . S
C2523 C2519 1.400 . S
C2523 C2522 1.385 . S
C2524 C2522 1.478 . S
C2524 C2526 1.381 . S
C2524 C2530 1.383 . S
C2525 C2521 1.495 . S
C2525 H2531 0.959 . S
C2525 H2532 0.961 . S
C2525 H2533 0.960 . S
C2526 C2524 1.381 . S
C2526 C2527 1.394 . S
C2526 H2534 0.930 . S
C2527 C2526 1.394 . S
C2527 C2528 1.383 . S
C2527 H2535 0.929 . S
C2528 C2527 1.383 . S
C2528 C2529 1.377 . S
C2529 H2513 0.930 . S
C2529 C2528 1.377 . S
C2529 C2530 1.379 . S
C2530 H2514 0.931 . S
C2530 C2524 1.383 . S
C2530 C2529 1.379 . S
H2531 C2525 0.959 . S
H2532 C2525 0.961 . S
H2533 C2525 0.960 . S
H2534 C2526 0.930 . S
H2535 C2527 0.929 . S
H2536 C2544 0.929 . S
H2537 C2546 0.930 . S
H2538 C2548 0.930 . S
H2539 C2551 0.929 . S
H2540 C2554 0.930 . S
H2541 C2556 0.960 . S
H2542 C2556 0.960 . S
H2543 C2556 0.960 . S
C2544 H2536 0.929 . S
C2544 C2545 1.377 . S
C2544 C2546 1.384 . S
C2545 C2544 1.377 . S
C2545 C2551 1.390 . S
C2546 H2537 0.930 . S
C2546 C2544 1.384 . S
C2546 C2547 1.372 . S
C2547 C2546 1.372 . S
C2547 C2548 1.400 . S
C2547 C2552 1.490 . S
C2548 H2538 0.930 . S
C2548 C2547 1.400 . S
C2548 C2551 1.386 . S
H2549 C2565 0.930 . S
H2550 C2566 0.931 . S
C2551 H2539 0.929 . S
C2551 C2545 1.390 . S
C2551 C2548 1.386 . S
C2552 C2547 1.490 . S
C2552 C2554 1.395 . S
C2552 C2555 1.403 . S
H2553 C2559 0.930 . S
C2554 H2540 0.930 . S
C2554 C2552 1.395 . S
C2554 C2557 1.403 . S
C2555 C2552 1.403 . S
C2555 C2556 1.524 . S
C2555 C2559 1.400 . S
C2556 H2541 0.960 . S
C2556 H2542 0.960 . S
C2556 H2543 0.960 . S
C2556 C2555 1.524 . S
C2557 C2554 1.403 . S
C2557 C2558 1.392 . S
C2557 C2561 1.495 . S
C2558 C2557 1.392 . S
C2558 C2559 1.385 . S
C2558 C2560 1.478 . S
C2559 H2553 0.930 . S
C2559 C2555 1.400 . S
C2559 C2558 1.385 . S
C2560 C2558 1.478 . S
C2560 C2562 1.381 . S
C2560 C2566 1.383 . S
C2561 C2557 1.495 . S
C2561 H2567 0.959 . S
C2561 H2568 0.961 . S
C2561 H2569 0.960 . S
C2562 C2560 1.381 . S
C2562 C2563 1.394 . S
C2562 H2570 0.930 . S
C2563 C2562 1.394 . S
C2563 C2564 1.383 . S
C2563 H2571 0.929 . S
C2564 C2563 1.383 . S
C2564 C2565 1.377 . S
C2565 H2549 0.930 . S
C2565 C2564 1.377 . S
C2565 C2566 1.379 . S
C2566 H2550 0.931 . S
C2566 C2560 1.383 . S
C2566 C2565 1.379 . S
H2567 C2561 0.959 . S
H2568 C2561 0.961 . S
H2569 C2561 0.960 . S
H2570 C2562 0.930 . S
H2571 C2563 0.929 . S
H2572 C2580 0.929 . S
H2573 C2582 0.930 . S
H2574 C2584 0.930 . S
H2575 C2587 0.929 . S
H2576 C2590 0.930 . S
H2577 C2592 0.960 . S
H2578 C2592 0.960 . S
H2579 C2592 0.960 . S
C2580 H2572 0.929 . S
C2580 C2581 1.377 . S
C2580 C2582 1.384 . S
C2581 C2580 1.377 . S
C2581 C2587 1.390 . S
C2582 H2573 0.930 . S
C2582 C2580 1.384 . S
C2582 C2583 1.372 . S
C2583 C2582 1.372 . S
C2583 C2584 1.400 . S
C2583 C2588 1.490 . S
C2584 H2574 0.930 . S
C2584 C2583 1.400 . S
C2584 C2587 1.386 . S
H2585 C2601 0.930 . S
H2586 C2602 0.931 . S
C2587 H2575 0.929 . S
C2587 C2581 1.390 . S
C2587 C2584 1.386 . S
C2588 C2583 1.490 . S
C2588 C2590 1.395 . S
C2588 C2591 1.403 . S
H2589 C2595 0.930 . S
C2590 H2576 0.930 . S
C2590 C2588 1.395 . S
C2590 C2593 1.403 . S
C2591 C2588 1.403 . S
C2591 C2592 1.524 . S
C2591 C2595 1.400 . S
C2592 H2577 0.960 . S
C2592 H2578 0.960 . S
C2592 H2579 0.960 . S
C2592 C2591 1.524 . S
C2593 C2590 1.403 . S
C2593 C2594 1.392 . S
C2593 C2597 1.495 . S
C2594 C2593 1.392 . S
C2594 C2595 1.385 . S
C2594 C2596 1.478 . S
C2595 H2589 0.930 . S
C2595 C2591 1.400 . S
C2595 C2594 1.385 . S
C2596 C2594 1.478 . S
C2596 C2598 1.381 . S
C2596 C2602 1.383 . S
C2597 C2593 1.495 . S
C2597 H2603 0.959 . S
C2597 H2604 0.961 . S
C2597 H2605 0.960 . S
C2598 C2596 1.381 . S
C2598 C2599 1.394 . S
C2598 H2606 0.930 . S
C2599 C2598 1.394 . S
C2599 C2600 1.383 . S
C2599 H2607 0.929 . S
C2600 C2599 1.383 . S
C2600 C2601 1.377 . S
C2601 H2585 0.930 . S
C2601 C2600 1.377 . S
C2601 C2602 1.379 . S
C2602 H2586 0.931 . S
C2602 C2596 1.383 . S
C2602 C2601 1.379 . S
H2603 C2597 0.959 . S
H2604 C2597 0.961 . S
H2605 C2597 0.960 . S
H2606 C2598 0.930 . S
H2607 C2599 0.929 . S
H2608 C2616 0.929 . S
H2609 C2618 0.930 . S
H2610 C2620 0.930 . S
H2611 C2623 0.929 . S
H2612 C2626 0.930 . S
H2613 C2628 0.960 . S
H2614 C2628 0.960 . S
H2615 C2628 0.960 . S
C2616 H2608 0.929 . S
C2616 C2617 1.377 . S
C2616 C2618 1.384 . S
C2617 C2616 1.377 . S
C2617 C2623 1.390 . S
C2618 H2609 0.930 . S
C2618 C2616 1.384 . S
C2618 C2619 1.372 . S
C2619 C2618 1.372 . S
C2619 C2620 1.400 . S
C2619 C2624 1.490 . S
C2620 H2610 0.930 . S
C2620 C2619 1.400 . S
C2620 C2623 1.386 . S
H2621 C2637 0.930 . S
H2622 C2638 0.931 . S
C2623 H2611 0.929 . S
C2623 C2617 1.390 . S
C2623 C2620 1.386 . S
C2624 C2619 1.490 . S
C2624 C2626 1.395 . S
C2624 C2627 1.403 . S
H2625 C2631 0.930 . S
C2626 H2612 0.930 . S
C2626 C2624 1.395 . S
C2626 C2629 1.403 . S
C2627 C2624 1.403 . S
C2627 C2628 1.524 . S
C2627 C2631 1.400 . S
C2628 H2613 0.960 . S
C2628 H2614 0.960 . S
C2628 H2615 0.960 . S
C2628 C2627 1.524 . S
C2629 C2626 1.403 . S
C2629 C2630 1.392 . S
C2629 C2633 1.495 . S
C2630 C2629 1.392 . S
C2630 C2631 1.385 . S
C2630 C2632 1.478 . S
C2631 H2625 0.930 . S
C2631 C2627 1.400 . S
C2631 C2630 1.385 . S
C2632 C2630 1.478 . S
C2632 C2634 1.381 . S
C2632 C2638 1.383 . S
C2633 C2629 1.495 . S
C2633 H2639 0.959 . S
C2633 H2640 0.961 . S
C2633 H2641 0.960 . S
C2634 C2632 1.381 . S
C2634 C2635 1.394 . S
C2634 H2642 0.930 . S
C2635 C2634 1.394 . S
C2635 C2636 1.383 . S
C2635 H2643 0.929 . S
C2636 C2635 1.383 . S
C2636 C2637 1.377 . S
C2637 H2621 0.930 . S
C2637 C2636 1.377 . S
C2637 C2638 1.379 . S
C2638 H2622 0.931 . S
C2638 C2632 1.383 . S
C2638 C2637 1.379 . S
H2639 C2633 0.959 . S
H2640 C2633 0.961 . S
H2641 C2633 0.960 . S
H2642 C2634 0.930 . S
H2643 C2635 0.929 . S
H2644 C2652 0.929 . S
H2645 C2654 0.930 . S
H2646 C2656 0.930 . S
H2647 C2659 0.929 . S
H2648 C2662 0.930 . S
H2649 C2664 0.960 . S
H2650 C2664 0.960 . S
H2651 C2664 0.960 . S
C2652 H2644 0.929 . S
C2652 C2653 1.377 . S
C2652 C2654 1.384 . S
C2653 C2652 1.377 . S
C2653 C2659 1.390 . S
C2654 H2645 0.930 . S
C2654 C2652 1.384 . S
C2654 C2655 1.372 . S
C2655 C2654 1.372 . S
C2655 C2656 1.400 . S
C2655 C2660 1.490 . S
C2656 H2646 0.930 . S
C2656 C2655 1.400 . S
C2656 C2659 1.386 . S
H2657 C2673 0.930 . S
H2658 C2674 0.931 . S
C2659 H2647 0.929 . S
C2659 C2653 1.390 . S
C2659 C2656 1.386 . S
C2660 C2655 1.490 . S
C2660 C2662 1.395 . S
C2660 C2663 1.403 . S
H2661 C2667 0.930 . S
C2662 H2648 0.930 . S
C2662 C2660 1.395 . S
C2662 C2665 1.403 . S
C2663 C2660 1.403 . S
C2663 C2664 1.524 . S
C2663 C2667 1.400 . S
C2664 H2649 0.960 . S
C2664 H2650 0.960 . S
C2664 H2651 0.960 . S
C2664 C2663 1.524 . S
C2665 C2662 1.403 . S
C2665 C2666 1.392 . S
C2665 C2669 1.495 . S
C2666 C2665 1.392 . S
C2666 C2667 1.385 . S
C2666 C2668 1.478 . S
C2667 H2661 0.930 . S
C2667 C2663 1.400 . S
C2667 C2666 1.385 . S
C2668 C2666 1.478 . S
C2668 C2670 1.381 . S
C2668 C2674 1.383 . S
C2669 C2665 1.495 . S
C2669 H2675 0.959 . S
C2669 H2676 0.961 . S
C2669 H2677 0.960 . S
C2670 C2668 1.381 . S
C2670 C2671 1.394 . S
C2670 H2678 0.930 . S
C2671 C2670 1.394 . S
C2671 C2672 1.383 . S
C2671 H2679 0.929 . S
C2672 C2671 1.383 . S
C2672 C2673 1.377 . S
C2673 H2657 0.930 . S
C2673 C2672 1.377 . S
C2673 C2674 1.379 . S
C2674 H2658 0.931 . S
C2674 C2668 1.383 . S
C2674 C2673 1.379 . S
H2675 C2669 0.959 . S
H2676 C2669 0.961 . S
H2677 C2669 0.960 . S
H2678 C2670 0.930 . S
H2679 C2671 0.929 . S
H2680 C2688 0.929 . S
H2681 C2690 0.930 . S
H2682 C2692 0.930 . S
H2683 C2695 0.929 . S
H2684 C2698 0.930 . S
H2685 C2700 0.960 . S
H2686 C2700 0.960 . S
H2687 C2700 0.960 . S
C2688 H2680 0.929 . S
C2688 C2689 1.377 . S
C2688 C2690 1.384 . S
C2689 C2688 1.377 . S
C2689 C2695 1.390 . S
C2690 H2681 0.930 . S
C2690 C2688 1.384 . S
C2690 C2691 1.372 . S
C2691 C2690 1.372 . S
C2691 C2692 1.400 . S
C2691 C2696 1.490 . S
C2692 H2682 0.930 . S
C2692 C2691 1.400 . S
C2692 C2695 1.386 . S
H2693 C2709 0.930 . S
H2694 C2710 0.931 . S
C2695 H2683 0.929 . S
C2695 C2689 1.390 . S
C2695 C2692 1.386 . S
C2696 C2691 1.490 . S
C2696 C2698 1.395 . S
C2696 C2699 1.403 . S
H2697 C2703 0.930 . S
C2698 H2684 0.930 . S
C2698 C2696 1.395 . S
C2698 C2701 1.403 . S
C2699 C2696 1.403 . S
C2699 C2700 1.524 . S
C2699 C2703 1.400 . S
C2700 H2685 0.960 . S
C2700 H2686 0.960 . S
C2700 H2687 0.960 . S
C2700 C2699 1.524 . S
C2701 C2698 1.403 . S
C2701 C2702 1.392 . S
C2701 C2705 1.495 . S
C2702 C2701 1.392 . S
C2702 C2703 1.385 . S
C2702 C2704 1.478 . S
C2703 H2697 0.930 . S
C2703 C2699 1.400 . S
C2703 C2702 1.385 . S
C2704 C2702 1.478 . S
C2704 C2706 1.381 . S
C2704 C2710 1.383 . S
C2705 C2701 1.495 . S
C2705 H2711 0.959 . S
C2705 H2712 0.961 . S
C2705 H2713 0.960 . S
C2706 C2704 1.381 . S
C2706 C2707 1.394 . S
C2706 H2714 0.930 . S
C2707 C2706 1.394 . S
C2707 C2708 1.383 . S
C2707 H2715 0.929 . S
C2708 C2707 1.383 . S
C2708 C2709 1.377 . S
C2709 H2693 0.930 . S
C2709 C2708 1.377 . S
C2709 C2710 1.379 . S
C2710 H2694 0.931 . S
C2710 C2704 1.383 . S
C2710 C2709 1.379 . S
H2711 C2705 0.959 . S
H2712 C2705 0.961 . S
H2713 C2705 0.960 . S
H2714 C2706 0.930 . S
H2715 C2707 0.929 . S
H2716 C2724 0.929 . S
H2717 C2726 0.930 . S
H2718 C2728 0.930 . S
H2719 C2731 0.929 . S
H2720 C2734 0.930 . S
H2721 C2736 0.960 . S
H2722 C2736 0.960 . S
H2723 C2736 0.960 . S
C2724 H2716 0.929 . S
C2724 C2725 1.377 . S
C2724 C2726 1.384 . S
C2725 C2724 1.377 . S
C2725 C2731 1.390 . S
C2726 H2717 0.930 . S
C2726 C2724 1.384 . S
C2726 C2727 1.372 . S
C2727 C2726 1.372 . S
C2727 C2728 1.400 . S
C2727 C2732 1.490 . S
C2728 H2718 0.930 . S
C2728 C2727 1.400 . S
C2728 C2731 1.386 . S
H2729 C2745 0.930 . S
H2730 C2746 0.931 . S
C2731 H2719 0.929 . S
C2731 C2725 1.390 . S
C2731 C2728 1.386 . S
C2732 C2727 1.490 . S
C2732 C2734 1.395 . S
C2732 C2735 1.403 . S
H2733 C2739 0.930 . S
C2734 H2720 0.930 . S
C2734 C2732 1.395 . S
C2734 C2737 1.403 . S
C2735 C2732 1.403 . S
C2735 C2736 1.524 . S
C2735 C2739 1.400 . S
C2736 H2721 0.960 . S
C2736 H2722 0.960 . S
C2736 H2723 0.960 . S
C2736 C2735 1.524 . S
C2737 C2734 1.403 . S
C2737 C2738 1.392 . S
C2737 C2741 1.495 . S
C2738 C2737 1.392 . S
C2738 C2739 1.385 . S
C2738 C2740 1.478 . S
C2739 H2733 0.930 . S
C2739 C2735 1.400 . S
C2739 C2738 1.385 . S
C2740 C2738 1.478 . S
C2740 C2742 1.381 . S
C2740 C2746 1.383 . S
C2741 C2737 1.495 . S
C2741 H2747 0.959 . S
C2741 H2748 0.961 . S
C2741 H2749 0.960 . S
C2742 C2740 1.381 . S
C2742 C2743 1.394 . S
C2742 H2750 0.930 . S
C2743 C2742 1.394 . S
C2743 C2744 1.383 . S
C2743 H2751 0.929 . S
C2744 C2743 1.383 . S
C2744 C2745 1.377 . S
C2745 H2729 0.930 . S
C2745 C2744 1.377 . S
C2745 C2746 1.379 . S
C2746 H2730 0.931 . S
C2746 C2740 1.383 . S
C2746 C2745 1.379 . S
H2747 C2741 0.959 . S
H2748 C2741 0.961 . S
H2749 C2741 0.960 . S
H2750 C2742 0.930 . S
H2751 C2743 0.929 . S
H2752 C2760 0.929 . S
H2753 C2762 0.930 . S
H2754 C2764 0.930 . S
H2755 C2767 0.929 . S
H2756 C2770 0.930 . S
H2757 C2772 0.960 . S
H2758 C2772 0.960 . S
H2759 C2772 0.960 . S
C2760 H2752 0.929 . S
C2760 C2761 1.377 . S
C2760 C2762 1.384 . S
C2761 C2760 1.377 . S
C2761 C2767 1.390 . S
C2762 H2753 0.930 . S
C2762 C2760 1.384 . S
C2762 C2763 1.372 . S
C2763 C2762 1.372 . S
C2763 C2764 1.400 . S
C2763 C2768 1.490 . S
C2764 H2754 0.930 . S
C2764 C2763 1.400 . S
C2764 C2767 1.386 . S
H2765 C2781 0.930 . S
H2766 C2782 0.931 . S
C2767 H2755 0.929 . S
C2767 C2761 1.390 . S
C2767 C2764 1.386 . S
C2768 C2763 1.490 . S
C2768 C2770 1.395 . S
C2768 C2771 1.403 . S
H2769 C2775 0.930 . S
C2770 H2756 0.930 . S
C2770 C2768 1.395 . S
C2770 C2773 1.403 . S
C2771 C2768 1.403 . S
C2771 C2772 1.524 . S
C2771 C2775 1.400 . S
C2772 H2757 0.960 . S
C2772 H2758 0.960 . S
C2772 H2759 0.960 . S
C2772 C2771 1.524 . S
C2773 C2770 1.403 . S
C2773 C2774 1.392 . S
C2773 C2777 1.495 . S
C2774 C2773 1.392 . S
C2774 C2775 1.385 . S
C2774 C2776 1.478 . S
C2775 H2769 0.930 . S
C2775 C2771 1.400 . S
C2775 C2774 1.385 . S
C2776 C2774 1.478 . S
C2776 C2778 1.381 . S
C2776 C2782 1.383 . S
C2777 C2773 1.495 . S
C2777 H2783 0.959 . S
C2777 H2784 0.961 . S
C2777 H2785 0.960 . S
C2778 C2776 1.381 . S
C2778 C2779 1.394 . S
C2778 H2786 0.930 . S
C2779 C2778 1.394 . S
C2779 C2780 1.383 . S
C2779 H2787 0.929 . S
C2780 C2779 1.383 . S
C2780 C2781 1.377 . S
C2781 H2765 0.930 . S
C2781 C2780 1.377 . S
C2781 C2782 1.379 . S
C2782 H2766 0.931 . S
C2782 C2776 1.383 . S
C2782 C2781 1.379 . S
H2783 C2777 0.959 . S
H2784 C2777 0.961 . S
H2785 C2777 0.960 . S
H2786 C2778 0.930 . S
H2787 C2779 0.929 . S
H2788 C2796 0.929 . S
H2789 C2798 0.930 . S
H2790 C2800 0.930 . S
H2791 C2803 0.929 . S
H2792 C2806 0.930 . S
H2793 C2808 0.960 . S
H2794 C2808 0.960 . S
H2795 C2808 0.960 . S
C2796 H2788 0.929 . S
C2796 C2797 1.377 . S
C2796 C2798 1.384 . S
C2797 C2796 1.377 . S
C2797 C2803 1.390 . S
C2798 H2789 0.930 . S
C2798 C2796 1.384 . S
C2798 C2799 1.372 . S
C2799 C2798 1.372 . S
C2799 C2800 1.400 . S
C2799 C2804 1.490 . S
C2800 H2790 0.930 . S
C2800 C2799 1.400 . S
C2800 C2803 1.386 . S
H2801 C2817 0.930 . S
H2802 C2818 0.931 . S
C2803 H2791 0.929 . S
C2803 C2797 1.390 . S
C2803 C2800 1.386 . S
C2804 C2799 1.490 . S
C2804 C2806 1.395 . S
C2804 C2807 1.403 . S
H2805 C2811 0.930 . S
C2806 H2792 0.930 . S
C2806 C2804 1.395 . S
C2806 C2809 1.403 . S
C2807 C2804 1.403 . S
C2807 C2808 1.524 . S
C2807 C2811 1.400 . S
C2808 H2793 0.960 . S
C2808 H2794 0.960 . S
C2808 H2795 0.960 . S
C2808 C2807 1.524 . S
C2809 C2806 1.403 . S
C2809 C2810 1.392 . S
C2809 C2813 1.495 . S
C2810 C2809 1.392 . S
C2810 C2811 1.385 . S
C2810 C2812 1.478 . S
C2811 H2805 0.930 . S
C2811 C2807 1.400 . S
C2811 C2810 1.385 . S
C2812 C2810 1.478 . S
C2812 C2814 1.381 . S
C2812 C2818 1.383 . S
C2813 C2809 1.495 . S
C2813 H2819 0.959 . S
C2813 H2820 0.961 . S
C2813 H2821 0.960 . S
C2814 C2812 1.381 . S
C2814 C2815 1.394 . S
C2814 H2822 0.930 . S
C2815 C2814 1.394 . S
C2815 C2816 1.383 . S
C2815 H2823 0.929 . S
C2816 C2815 1.383 . S
C2816 C2817 1.377 . S
C2817 H2801 0.930 . S
C2817 C2816 1.377 . S
C2817 C2818 1.379 . S
C2818 H2802 0.931 . S
C2818 C2812 1.383 . S
C2818 C2817 1.379 . S
H2819 C2813 0.959 . S
H2820 C2813 0.961 . S
H2821 C2813 0.960 . S
H2822 C2814 0.930 . S
H2823 C2815 0.929 . S
H2824 C2832 0.929 . S
H2825 C2834 0.930 . S
H2826 C2836 0.930 . S
H2827 C2839 0.929 . S
H2828 C2842 0.930 . S
H2829 C2844 0.960 . S
H2830 C2844 0.960 . S
H2831 C2844 0.960 . S
C2832 H2824 0.929 . S
C2832 C2833 1.377 . S
C2832 C2834 1.384 . S
C2833 C2832 1.377 . S
C2833 C2839 1.390 . S
C2834 H2825 0.930 . S
C2834 C2832 1.384 . S
C2834 C2835 1.372 . S
C2835 C2834 1.372 . S
C2835 C2836 1.400 . S
C2835 C2840 1.490 . S
C2836 H2826 0.930 . S
C2836 C2835 1.400 . S
C2836 C2839 1.386 . S
H2837 C2853 0.930 . S
H2838 C2854 0.931 . S
C2839 H2827 0.929 . S
C2839 C2833 1.390 . S
C2839 C2836 1.386 . S
C2840 C2835 1.490 . S
C2840 C2842 1.395 . S
C2840 C2843 1.403 . S
H2841 C2847 0.930 . S
C2842 H2828 0.930 . S
C2842 C2840 1.395 . S
C2842 C2845 1.403 . S
C2843 C2840 1.403 . S
C2843 C2844 1.524 . S
C2843 C2847 1.400 . S
C2844 H2829 0.960 . S
C2844 H2830 0.960 . S
C2844 H2831 0.960 . S
C2844 C2843 1.524 . S
C2845 C2842 1.403 . S
C2845 C2846 1.392 . S
C2845 C2849 1.495 . S
C2846 C2845 1.392 . S
C2846 C2847 1.385 . S
C2846 C2848 1.478 . S
C2847 H2841 0.930 . S
C2847 C2843 1.400 . S
C2847 C2846 1.385 . S
C2848 C2846 1.478 . S
C2848 C2850 1.381 . S
C2848 C2854 1.383 . S
C2849 C2845 1.495 . S
C2849 H2855 0.959 . S
C2849 H2856 0.961 . S
C2849 H2857 0.960 . S
C2850 C2848 1.381 . S
C2850 C2851 1.394 . S
C2850 H2858 0.930 . S
C2851 C2850 1.394 . S
C2851 C2852 1.383 . S
C2851 H2859 0.929 . S
C2852 C2851 1.383 . S
C2852 C2853 1.377 . S
C2853 H2837 0.930 . S
C2853 C2852 1.377 . S
C2853 C2854 1.379 . S
C2854 H2838 0.931 . S
C2854 C2848 1.383 . S
C2854 C2853 1.379 . S
H2855 C2849 0.959 . S
H2856 C2849 0.961 . S
H2857 C2849 0.960 . S
H2858 C2850 0.930 . S
H2859 C2851 0.929 . S
H2860 C2868 0.929 . S
H2861 C2870 0.930 . S
H2862 C2872 0.930 . S
H2863 C2875 0.929 . S
H2864 C2878 0.930 . S
H2865 C2880 0.960 . S
H2866 C2880 0.960 . S
H2867 C2880 0.960 . S
C2868 H2860 0.929 . S
C2868 C2869 1.377 . S
C2868 C2870 1.384 . S
C2869 C2868 1.377 . S
C2869 C2875 1.390 . S
C2870 H2861 0.930 . S
C2870 C2868 1.384 . S
C2870 C2871 1.372 . S
C2871 C2870 1.372 . S
C2871 C2872 1.400 . S
C2871 C2876 1.490 . S
C2872 H2862 0.930 . S
C2872 C2871 1.400 . S
C2872 C2875 1.386 . S
H2873 C2889 0.930 . S
H2874 C2890 0.931 . S
C2875 H2863 0.929 . S
C2875 C2869 1.390 . S
C2875 C2872 1.386 . S
C2876 C2871 1.490 . S
C2876 C2878 1.395 . S
C2876 C2879 1.403 . S
H2877 C2883 0.930 . S
C2878 H2864 0.930 . S
C2878 C2876 1.395 . S
C2878 C2881 1.403 . S
C2879 C2876 1.403 . S
C2879 C2880 1.524 . S
C2879 C2883 1.400 . S
C2880 H2865 0.960 . S
C2880 H2866 0.960 . S
C2880 H2867 0.960 . S
C2880 C2879 1.524 . S
C2881 C2878 1.403 . S
C2881 C2882 1.392 . S
C2881 C2885 1.495 . S
C2882 C2881 1.392 . S
C2882 C2883 1.385 . S
C2882 C2884 1.478 . S
C2883 H2877 0.930 . S
C2883 C2879 1.400 . S
C2883 C2882 1.385 . S
C2884 C2882 1.478 . S
C2884 C2886 1.381 . S
C2884 C2890 1.383 . S
C2885 C2881 1.495 . S
C2885 H2891 0.959 . S
C2885 H2892 0.961 . S
C2885 H2893 0.960 . S
C2886 C2884 1.381 . S
C2886 C2887 1.394 . S
C2886 H2894 0.930 . S
C2887 C2886 1.394 . S
C2887 C2888 1.383 . S
C2887 H2895 0.929 . S
C2888 C2887 1.383 . S
C2888 C2889 1.377 . S
C2889 H2873 0.930 . S
C2889 C2888 1.377 . S
C2889 C2890 1.379 . S
C2890 H2874 0.931 . S
C2890 C2884 1.383 . S
C2890 C2889 1.379 . S
H2891 C2885 0.959 . S
H2892 C2885 0.961 . S
H2893 C2885 0.960 . S
H2894 C2886 0.930 . S
H2895 C2887 0.929 . S
H2896 C2904 0.929 . S
H2897 C2906 0.930 . S
H2898 C2908 0.930 . S
H2899 C2911 0.929 . S
H2900 C2914 0.930 . S
H2901 C2916 0.960 . S
H2902 C2916 0.960 . S
H2903 C2916 0.960 . S
C2904 H2896 0.929 . S
C2904 C2905 1.377 . S
C2904 C2906 1.384 . S
C2905 C2904 1.377 . S
C2905 C2911 1.390 . S
C2906 H2897 0.930 . S
C2906 C2904 1.384 . S
C2906 C2907 1.372 . S
C2907 C2906 1.372 . S
C2907 C2908 1.400 . S
C2907 C2912 1.490 . S
C2908 H2898 0.930 . S
C2908 C2907 1.400 . S
C2908 C2911 1.386 . S
H2909 C2925 0.930 . S
H2910 C2926 0.931 . S
C2911 H2899 0.929 . S
C2911 C2905 1.390 . S
C2911 C2908 1.386 . S
C2912 C2907 1.490 . S
C2912 C2914 1.395 . S
C2912 C2915 1.403 . S
H2913 C2919 0.930 . S
C2914 H2900 0.930 . S
C2914 C2912 1.395 . S
C2914 C2917 1.403 . S
C2915 C2912 1.403 . S
C2915 C2916 1.524 . S
C2915 C2919 1.400 . S
C2916 H2901 0.960 . S
C2916 H2902 0.960 . S
C2916 H2903 0.960 . S
C2916 C2915 1.524 . S
C2917 C2914 1.403 . S
C2917 C2918 1.392 . S
C2917 C2921 1.495 . S
C2918 C2917 1.392 . S
C2918 C2919 1.385 . S
C2918 C2920 1.478 . S
C2919 H2913 0.930 . S
C2919 C2915 1.400 . S
C2919 C2918 1.385 . S
C2920 C2918 1.478 . S
C2920 C2922 1.381 . S
C2920 C2926 1.383 . S
C2921 C2917 1.495 . S
C2921 H2927 0.959 . S
C2921 H2928 0.961 . S
C2921 H2929 0.960 . S
C2922 C2920 1.381 . S
C2922 C2923 1.394 . S
C2922 H2930 0.930 . S
C2923 C2922 1.394 . S
C2923 C2924 1.383 . S
C2923 H2931 0.929 . S
C2924 C2923 1.383 . S
C2924 C2925 1.377 . S
C2925 H2909 0.930 . S
C2925 C2924 1.377 . S
C2925 C2926 1.379 . S
C2926 H2910 0.931 . S
C2926 C2920 1.383 . S
C2926 C2925 1.379 . S
H2927 C2921 0.959 . S
H2928 C2921 0.961 . S
H2929 C2921 0.960 . S
H2930 C2922 0.930 . S
H2931 C2923 0.929 . S
H2932 C2940 0.929 . S
H2933 C2942 0.930 . S
H2934 C2944 0.930 . S
H2935 C2947 0.929 . S
H2936 C2950 0.930 . S
H2937 C2952 0.960 . S
H2938 C2952 0.960 . S
H2939 C2952 0.960 . S
C2940 H2932 0.929 . S
C2940 C2941 1.377 . S
C2940 C2942 1.384 . S
C2941 C2940 1.377 . S
C2941 C2947 1.390 . S
C2942 H2933 0.930 . S
C2942 C2940 1.384 . S
C2942 C2943 1.372 . S
C2943 C2942 1.372 . S
C2943 C2944 1.400 . S
C2943 C2948 1.490 . S
C2944 H2934 0.930 . S
C2944 C2943 1.400 . S
C2944 C2947 1.386 . S
H2945 C2961 0.930 . S
H2946 C2962 0.931 . S
C2947 H2935 0.929 . S
C2947 C2941 1.390 . S
C2947 C2944 1.386 . S
C2948 C2943 1.490 . S
C2948 C2950 1.395 . S
C2948 C2951 1.403 . S
H2949 C2955 0.930 . S
C2950 H2936 0.930 . S
C2950 C2948 1.395 . S
C2950 C2953 1.403 . S
C2951 C2948 1.403 . S
C2951 C2952 1.524 . S
C2951 C2955 1.400 . S
C2952 H2937 0.960 . S
C2952 H2938 0.960 . S
C2952 H2939 0.960 . S
C2952 C2951 1.524 . S
C2953 C2950 1.403 . S
C2953 C2954 1.392 . S
C2953 C2957 1.495 . S
C2954 C2953 1.392 . S
C2954 C2955 1.385 . S
C2954 C2956 1.478 . S
C2955 H2949 0.930 . S
C2955 C2951 1.400 . S
C2955 C2954 1.385 . S
C2956 C2954 1.478 . S
C2956 C2958 1.381 . S
C2956 C2962 1.383 . S
C2957 C2953 1.495 . S
C2957 H2963 0.959 . S
C2957 H2964 0.961 . S
C2957 H2965 0.960 . S
C2958 C2956 1.381 . S
C2958 C2959 1.394 . S
C2958 H2966 0.930 . S
C2959 C2958 1.394 . S
C2959 C2960 1.383 . S
C2959 H2967 0.929 . S
C2960 C2959 1.383 . S
C2960 C2961 1.377 . S
C2961 H2945 0.930 . S
C2961 C2960 1.377 . S
C2961 C2962 1.379 . S
C2962 H2946 0.931 . S
C2962 C2956 1.383 . S
C2962 C2961 1.379 . S
H2963 C2957 0.959 . S
H2964 C2957 0.961 . S
H2965 C2957 0.960 . S
H2966 C2958 0.930 . S
H2967 C2959 0.929 . S
H2968 C2976 0.929 . S
H2969 C2978 0.930 . S
H2970 C2980 0.930 . S
H2971 C2983 0.929 . S
H2972 C2986 0.930 . S
H2973 C2988 0.960 . S
H2974 C2988 0.960 . S
H2975 C2988 0.960 . S
C2976 H2968 0.929 . S
C2976 C2977 1.377 . S
C2976 C2978 1.384 . S
C2977 C2976 1.377 . S
C2977 C2983 1.390 . S
C2978 H2969 0.930 . S
C2978 C2976 1.384 . S
C2978 C2979 1.372 . S
C2979 C2978 1.372 . S
C2979 C2980 1.400 . S
C2979 C2984 1.490 . S
C2980 H2970 0.930 . S
C2980 C2979 1.400 . S
C2980 C2983 1.386 . S
H2981 C2997 0.930 . S
H2982 C2998 0.931 . S
C2983 H2971 0.929 . S
C2983 C2977 1.390 . S
C2983 C2980 1.386 . S
C2984 C2979 1.490 . S
C2984 C2986 1.395 . S
C2984 C2987 1.403 . S
H2985 C2991 0.930 . S
C2986 H2972 0.930 . S
C2986 C2984 1.395 . S
C2986 C2989 1.403 . S
C2987 C2984 1.403 . S
C2987 C2988 1.524 . S
C2987 C2991 1.400 . S
C2988 H2973 0.960 . S
C2988 H2974 0.960 . S
C2988 H2975 0.960 . S
C2988 C2987 1.524 . S
C2989 C2986 1.403 . S
C2989 C2990 1.392 . S
C2989 C2993 1.495 . S
C2990 C2989 1.392 . S
C2990 C2991 1.385 . S
C2990 C2992 1.478 . S
C2991 H2985 0.930 . S
C2991 C2987 1.400 . S
C2991 C2990 1.385 . S
C2992 C2990 1.478 . S
C2992 C2994 1.381 . S
C2992 C2998 1.383 . S
C2993 C2989 1.495 . S
C2993 H2999 0.959 . S
C2993 H3000 0.961 . S
C2993 H3001 0.960 . S
C2994 C2992 1.381 . S
C2994 C2995 1.394 . S
C2994 H3002 0.930 . S
C2995 C2994 1.394 . S
C2995 C2996 1.383 . S
C2995 H3003 0.929 . S
C2996 C2995 1.383 . S
C2996 C2997 1.377 . S
C2997 H2981 0.930 . S
C2997 C2996 1.377 . S
C2997 C2998 1.379 . S
C2998 H2982 0.931 . S
C2998 C2992 1.383 . S
C2998 C2997 1.379 . S
H2999 C2993 0.959 . S
H3000 C2993 0.961 . S
H3001 C2993 0.960 . S
H3002 C2994 0.930 . S
H3003 C2995 0.929 . S
H3004 C3012 0.929 . S
H3005 C3014 0.930 . S
H3006 C3016 0.930 . S
H3007 C3019 0.929 . S
H3008 C3022 0.930 . S
H3009 C3024 0.960 . S
H3010 C3024 0.960 . S
H3011 C3024 0.960 . S
C3012 H3004 0.929 . S
C3012 C3013 1.377 . S
C3012 C3014 1.384 . S
C3013 C3012 1.377 . S
C3013 C3019 1.390 . S
C3014 H3005 0.930 . S
C3014 C3012 1.384 . S
C3014 C3015 1.372 . S
C3015 C3014 1.372 . S
C3015 C3016 1.400 . S
C3015 C3020 1.490 . S
C3016 H3006 0.930 . S
C3016 C3015 1.400 . S
C3016 C3019 1.386 . S
H3017 C3033 0.930 . S
H3018 C3034 0.931 . S
C3019 H3007 0.929 . S
C3019 C3013 1.390 . S
C3019 C3016 1.386 . S
C3020 C3015 1.490 . S
C3020 C3022 1.395 . S
C3020 C3023 1.403 . S
H3021 C3027 0.930 . S
C3022 H3008 0.930 . S
C3022 C3020 1.395 . S
C3022 C3025 1.403 . S
C3023 C3020 1.403 . S
C3023 C3024 1.524 . S
C3023 C3027 1.400 . S
C3024 H3009 0.960 . S
C3024 H3010 0.960 . S
C3024 H3011 0.960 . S
C3024 C3023 1.524 . S
C3025 C3022 1.403 . S
C3025 C3026 1.392 . S
C3025 C3029 1.495 . S
C3026 C3025 1.392 . S
C3026 C3027 1.385 . S
C3026 C3028 1.478 . S
C3027 H3021 0.930 . S
C3027 C3023 1.400 . S
C3027 C3026 1.385 . S
C3028 C3026 1.478 . S
C3028 C3030 1.381 . S
C3028 C3034 1.383 . S
C3029 C3025 1.495 . S
C3029 H3035 0.959 . S
C3029 H3036 0.961 . S
C3029 H3037 0.960 . S
C3030 C3028 1.381 . S
C3030 C3031 1.394 . S
C3030 H3038 0.930 . S
C3031 C3030 1.394 . S
C3031 C3032 1.383 . S
C3031 H3039 0.929 . S
C3032 C3031 1.383 . S
C3032 C3033 1.377 . S
C3033 H3017 0.930 . S
C3033 C3032 1.377 . S
C3033 C3034 1.379 . S
C3034 H3018 0.931 . S
C3034 C3028 1.383 . S
C3034 C3033 1.379 . S
H3035 C3029 0.959 . S
H3036 C3029 0.961 . S
H3037 C3029 0.960 . S
H3038 C3030 0.930 . S
H3039 C3031 0.929 . S
C745 C16 1.598 . S
C764 C62 1.590 . S
C781 C85 1.591 . S
C800 C39 1.573 . S
C817 C154 1.602 . S
C836 C108 1.601 . S
C853 C177 1.595 . S
C872 C131 1.575 . S
C889 C200 1.600 . S
C908 C246 1.602 . S
C925 C269 1.590 . S
C944 C223 1.573 . S
C961 C292 1.600 . S
C980 C338 1.584 . S
C997 C361 1.596 . S
C1016 C315 1.594 . S
C1033 C384 1.591 1_455 S
C1052 C430 1.580 . S
C1069 C407 1.597 . S
C1088 C453 1.598 . S
C1105 C522 1.589 . S
C1124 C476 1.592 1_655 S
C1141 C499 1.598 . S
C1160 C545 1.601 . S
C1177 C614 1.593 1_455 S
C1196 C568 1.600 . S
C1213 C637 1.599 . S
C1232 C591 1.608 . S
C1249 C706 1.593 1_655 S
C1268 C660 1.574 . S
C1285 C683 1.593 . S
C1304 C729 1.610 . S
C1321 N587 1.914 . S
C1340 N12 1.928 . S
C1357 N35 1.911 . S
C1376 N564 1.921 . S
C1393 N58 1.918 . S
C1412 N633 1.910 . S
C1429 N81 1.911 . S
C1448 N610 1.916 . S
C1465 N679 1.919 . S
C1484 N104 1.930 . S
C1501 N127 1.911 . S
C1520 N656 1.894 . S
C1537 N150 1.916 . S
C1556 N725 1.927 . S
C1573 N702 1.914 . S
C1592 N173 1.921 . S
C1609 N196 1.915 . S
C1628 N403 1.918 . S
C1645 N219 1.917 . S
C1664 N380 1.894 . S
C1681 N242 1.916 . S
C1700 N449 1.914 . S
C1717 N265 1.912 . S
C1736 N426 1.911 . S
C1753 N288 1.913 . S
C1772 N495 1.907 . S
C1789 N472 1.917 . S
C1808 N311 1.918 . S
C1825 N541 1.920 . S
C1844 N334 1.913 . S
C1861 N357 1.911 . S
C1880 N518 1.897 . S
C1897 C7 1.629 . S
C1916 C99 1.612 . S
C1933 C30 1.621 . S
C1952 C674 1.604 . S
C1969 C53 1.631 . S
C1988 C329 1.627 . S
C2005 C76 1.622 . S
C2024 C536 1.628 . S
C2041 C122 1.623 . S
C2060 C582 1.634 . S
C2077 C237 1.625 . S
C2096 C145 1.611 . S
C2113 C444 1.620 . S
C2132 C168 1.610 . S
C2149 C283 1.625 . S
C2168 C191 1.618 . S
C2185 C214 1.626 . S
C2204 C490 1.634 . S
C2221 C720 1.627 . S
C2240 C260 1.625 . S
C2257 C306 1.626 . S
C2276 C398 1.633 . S
C2293 C352 1.622 . S
C2312 C628 1.631 . S
C2329 C467 1.623 . S
C2348 C375 1.608 . S
C2365 C421 1.621 . S
C2384 C697 1.602 . S
C2401 C605 1.624 . S
C2420 C513 1.634 . S
C2437 C651 1.618 . S
C2456 C559 1.616 . S
C2473 N2 1.012 . S
C2492 N25 1.037 . S
C2509 N48 1.002 . S
C2528 N71 0.990 . S
C2545 N94 1.004 . S
C2564 N117 1.036 . S
C2581 N140 1.004 . S
C2600 N163 0.971 . S
C2617 N209 1.011 . S
C2636 N186 1.037 . S
C2653 N232 1.006 . S
C2672 N255 1.008 . S
C2689 N278 1.012 . S
C2708 N301 0.970 . S
C2725 N324 1.007 . S
C2744 N347 0.965 . S
C2761 N370 1.002 . S
C2780 N393 0.980 . S
C2797 N439 1.016 . S
C2816 N416 1.048 . S
C2833 N462 1.008 . S
C2852 N485 1.046 . S
C2869 N508 1.007 . S
C2888 N531 0.985 . S
C2905 N577 1.002 . S
C2924 N554 0.981 . S
C2941 N600 1.002 . S
C2960 N623 0.982 . S
C2977 N669 1.017 . S
C2996 N646 0.994 . S
C3013 N692 1.007 . S
C3032 N715 1.048 . S
