# Generated by pormake.
# Topology sxa, (6)-cn, num edge types: 1
# Building blocks:
#     Node 0, Type 0, BuildingBlock: LEVNOQ01_clean_sbu_1, # of connection points: 6
#     Node 1, Type 0, BuildingBlock: LEVNOQ01_clean_sbu_1, # of connection points: 6
#     Node 2, Type 0, BuildingBlock: LEVNOQ01_clean_sbu_1, # of connection points: 6
#     Node 3, Type 0, BuildingBlock: LEVNOQ01_clean_sbu_1, # of connection points: 6
#     Edge 4, Type (0, 0), BuildingBlock: FUNLAD_clean_linker_0, # of connection points: 2
#     Edge 5, Type (0, 0), BuildingBlock: FUNLAD_clean_linker_0, # of connection points: 2
#     Edge 6, Type (0, 0), BuildingBlock: FUNLAD_clean_linker_0, # of connection points: 2
#     Edge 7, Type (0, 0), BuildingBlock: FUNLAD_clean_linker_0, # of connection points: 2
#     Edge 8, Type (0, 0), BuildingBlock: FUNLAD_clean_linker_0, # of connection points: 2
#     Edge 9, Type (0, 0), BuildingBlock: FUNLAD_clean_linker_0, # of connection points: 2
#     Edge 10, Type (0, 0), BuildingBlock: FUNLAD_clean_linker_0, # of connection points: 2
#     Edge 11, Type (0, 0), BuildingBlock: FUNLAD_clean_linker_0, # of connection points: 2
#     Edge 12, Type (0, 0), BuildingBlock: FUNLAD_clean_linker_0, # of connection points: 2
#     Edge 13, Type (0, 0), BuildingBlock: FUNLAD_clean_linker_0, # of connection points: 2
#     Edge 14, Type (0, 0), BuildingBlock: FUNLAD_clean_linker_0, # of connection points: 2
#     Edge 15, Type (0, 0), BuildingBlock: FUNLAD_clean_linker_0, # of connection points: 2
# Relax obj value: 0.189
# Max RMSD: 0.231
# Mean RMSD: 0.231
data_MOF--net-sxa--node1-LEVNOQ01_clean_sbu_1--edge1-FUNLAD_clean_linker_0
_symmetry_space_group_name_H-M    P1
_symmetry_Int_Tables_number       1
_symmetry_cell_setting            triclinic
loop_
_symmetry_equiv_pos_as_xyz
'x, y, z'
_cell_length_a     29.009568
_cell_length_b     34.429295
_cell_length_c     18.271792
_cell_angle_alpha  89.975952
_cell_angle_beta   89.933455
_cell_angle_gamma 90.060968
loop_
_atom_site_label
_atom_site_type_symbol
_atom_site_fract_x
_atom_site_fract_y
_atom_site_fract_z
_atom_type_partial_charge
O0 O 0.10761 0.70832 0.06979 0.0
Mg1 Mg 0.0822 0.6845 0.16931 0.0
O2 O 0.05778 0.75605 0.08396 0.0
Mg3 Mg 0.00266 0.74621 0.17103 0.0
O4 O 0.01247 0.67849 0.16663 0.0
O5 O 0.06074 0.62813 0.17505 0.0
O6 O 0.94311 0.73768 0.26102 0.0
O7 O 0.95094 0.72761 0.08218 0.0
Mg8 Mg 0.9309 0.79744 0.12952 0.0
O9 O 0.99633 0.81556 0.15483 0.0
O10 O 0.8892 0.77514 0.21284 0.0
O11 O 0.91726 0.775 0.02425 0.0
O12 O 0.93617 0.8554 0.13243 0.0
C13 C 0.09464 0.74294 0.28976 0.0
C14 C 0.09218 0.74131 0.05109 0.0
C15 C 0.01948 0.64105 0.16503 0.0
C16 C 0.90178 0.75094 0.26088 0.0
C17 C 0.92465 0.73909 0.03111 0.0
C18 C 0.9796 0.85047 0.14419 0.0
O19 O 0.10773 0.71084 0.26327 0.0
O20 O 0.05851 0.76021 0.26527 0.0
O21 O 0.59225 0.21639 0.02579 0.0
Mg22 Mg 0.57905 0.19711 0.13317 0.0
O23 O 0.55155 0.26524 0.06659 0.0
Mg24 Mg 0.50691 0.25228 0.16791 0.0
O25 O 0.51203 0.18307 0.15887 0.0
O26 O 0.56936 0.13971 0.14271 0.0
O27 O 0.45737 0.24279 0.27067 0.0
O28 O 0.44485 0.23619 0.09478 0.0
Mg29 Mg 0.43741 0.30287 0.14436 0.0
O30 O 0.50294 0.32278 0.16123 0.0
O31 O 0.39896 0.27711 0.22879 0.0
O32 O 0.41885 0.28647 0.03728 0.0
O33 O 0.43928 0.36046 0.15559 0.0
C34 C 0.61062 0.24774 0.25487 0.0
C35 C 0.57867 0.25102 0.01899 0.0
C36 C 0.52623 0.14713 0.15265 0.0
C37 C 0.41526 0.2538 0.27551 0.0
C38 C 0.41667 0.25042 0.04901 0.0
C39 C 0.48352 0.35713 0.15798 0.0
O40 O 0.62188 0.21964 0.21421 0.0
O41 O 0.57066 0.26328 0.24887 0.0
O42 O 0.10084 0.29734 0.94462 0.0
Mg43 Mg 0.08337 0.31718 0.83835 0.0
O44 O 0.0532 0.24834 0.92622 0.0
Mg45 Mg 0.00624 0.25492 0.82686 0.0
O46 O 0.01373 0.32311 0.82825 0.0
O47 O 0.06294 0.37312 0.82323 0.0
O48 O 0.955 0.25957 0.72469 0.0
O49 O 0.94771 0.27393 0.90395 0.0
Mg50 Mg 0.93283 0.20146 0.85213 0.0
O51 O 0.00097 0.18563 0.84666 0.0
O52 O 0.90132 0.21645 0.75354 0.0
O53 O 0.90636 0.22655 0.94861 0.0
O54 O 0.94133 0.14402 0.86017 0.0
C55 C 0.10591 0.25787 0.72412 0.0
C56 C 0.08391 0.26505 0.96447 0.0
C57 C 0.02111 0.36055 0.82787 0.0
C58 C 0.91721 0.24178 0.71025 0.0
C59 C 0.9162 0.26221 0.94679 0.0
C60 C 0.98508 0.15036 0.8569 0.0
O61 O 0.1171 0.29014 0.75195 0.0
O62 O 0.06851 0.24059 0.74342 0.0
O63 O 0.42252 0.74226 0.98405 0.0
Mg64 Mg 0.43307 0.72175 0.87653 0.0
O65 O 0.45225 0.78801 0.91752 0.0
Mg66 Mg 0.5027 0.76222 0.83145 0.0
O67 O 0.49264 0.69224 0.85006 0.0
O68 O 0.42485 0.66453 0.87947 0.0
O69 O 0.55812 0.74378 0.73963 0.0
O70 O 0.55599 0.75262 0.92124 0.0
Mg71 Mg 0.58527 0.82172 0.82093 0.0
O72 O 0.51616 0.82913 0.83001 0.0
O73 O 0.6037 0.79498 0.72275 0.0
O74 O 0.61145 0.79671 0.91918 0.0
O75 O 0.56518 0.87865 0.81739 0.0
C76 C 0.40322 0.76214 0.74149 0.0
C77 C 0.42844 0.77795 0.97263 0.0
C78 C 0.46824 0.66125 0.86587 0.0
C79 C 0.59071 0.7612 0.70494 0.0
C80 C 0.59289 0.76683 0.94747 0.0
C81 C 0.52379 0.86642 0.82913 0.0
O82 O 0.3882 0.74335 0.7959 0.0
O83 O 0.44616 0.77066 0.73803 0.0
C84 C 0.98759 0.42689 0.82999 0.0
C85 C 0.98696 0.38858 0.85648 0.0
C86 C 0.97139 0.45765 0.87308 0.0
C87 C 0.95411 0.45079 0.94415 0.0
C88 C 0.9497 0.412 0.9676 0.0
C89 C 0.96618 0.3813 0.92453 0.0
C90 C 0.94733 0.48262 0.9992 0.0
C91 C 0.94881 0.52102 0.98353 0.0
C92 C 0.95512 0.55266 0.03911 0.0
C93 C 0.95459 0.59148 0.01491 0.0
C94 C 0.97054 0.62158 0.05989 0.0
C95 C 0.98661 0.61375 0.13076 0.0
H96 H 0.96988 0.51614 0.13379 0.0
C97 C 0.98378 0.57552 0.15722 0.0
C98 C 0.96818 0.5453 0.1122 0.0
H99 H 0.99731 0.56847 0.21085 0.0
H100 H 0.00456 0.43348 0.77859 0.0
H101 H 0.97612 0.48672 0.85215 0.0
H102 H 0.93677 0.40555 0.02193 0.0
H103 H 0.96703 0.35242 0.94798 0.0
H104 H 0.94421 0.47353 0.05579 0.0
H105 H 0.94857 0.53013 0.92675 0.0
H106 H 0.94506 0.59829 0.95904 0.0
H107 H 0.97437 0.65035 0.03662 0.0
C108 C 0.52856 0.39692 0.07001 0.0
C109 C 0.50989 0.39266 0.14066 0.0
C110 C 0.53656 0.43394 0.04028 0.0
C111 C 0.52507 0.46746 0.0804 0.0
C112 C 0.50971 0.46302 0.15295 0.0
C113 C 0.50218 0.42609 0.18271 0.0
C114 C 0.51955 0.50618 0.04481 0.0
C115 C 0.54074 0.51794 0.98276 0.0
C116 C 0.52431 0.55328 0.94366 0.0
C117 C 0.55462 0.58306 0.92171 0.0
C118 C 0.5373 0.61772 0.89109 0.0
C119 C 0.48953 0.62266 0.88101 0.0
H120 H 0.45315 0.53441 0.94329 0.0
C121 C 0.46013 0.59124 0.89758 0.0
C122 C 0.47717 0.55732 0.92897 0.0
H123 H 0.42322 0.59342 0.88973 0.0
H124 H 0.53165 0.37197 0.03445 0.0
H125 H 0.54719 0.43604 0.98361 0.0
H126 H 0.50011 0.48824 0.18495 0.0
H127 H 0.48626 0.42375 0.23621 0.0
H128 H 0.49412 0.52549 0.06916 0.0
H129 H 0.56889 0.50128 0.95942 0.0
H130 H 0.59129 0.58028 0.93142 0.0
H131 H 0.56096 0.64109 0.87837 0.0
C132 C 0.47704 0.89254 0.93199 0.0
C133 C 0.49074 0.895 0.85839 0.0
C134 C 0.46062 0.92547 0.96902 0.0
C135 C 0.45852 0.96177 0.93323 0.0
C136 C 0.46849 0.9631 0.85791 0.0
C137 C 0.48485 0.93025 0.82116 0.0
C138 C 0.45101 0.99947 0.97246 0.0
C139 C 0.45661 1.00435 0.04541 0.0
C140 C 0.46305 0.04309 0.0814 0.0
C141 C 0.48616 0.04427 0.14898 0.0
C142 C 0.50196 0.07948 0.17782 0.0
C143 C 0.49422 0.11447 0.14055 0.0
H144 H 0.4325 0.07944 0.99677 0.0
C145 C 0.46725 0.11394 0.07679 0.0
C146 C 0.45146 0.07864 0.04764 0.0
H147 H 0.46235 0.1403 0.0454 0.0
H148 H 0.48247 0.86597 0.96258 0.0
H149 H 0.45192 0.92253 0.02628 0.0
H150 H 0.46691 0.99037 0.82838 0.0
H151 H 0.49621 0.93316 0.7649 0.0
H152 H 0.44693 0.0249 0.93807 0.0
H153 H 0.46317 0.97913 0.07934 0.0
H154 H 0.4953 0.0176 0.17689 0.0
H155 H 0.52358 0.07899 0.22613 0.0
C156 C 0.0324 0.88709 0.06252 0.0
C157 C 0.0094 0.8844 0.13004 0.0
C158 C 0.04657 0.92325 0.03501 0.0
C159 C 0.03714 0.95765 0.0741 0.0
C160 C 0.01728 0.95438 0.14414 0.0
C161 C 0.00308 0.91826 0.1714 0.0
C162 C 0.04353 0.99745 0.04233 0.0
C163 C 0.04603 1.005 0.96968 0.0
C164 C 0.04091 0.04471 0.93697 0.0
C165 C 0.0264 0.04767 0.86372 0.0
C166 C 0.01318 0.0835 0.83415 0.0
C167 C 0.01503 0.11739 0.87658 0.0
H168 H 0.05832 0.07873 0.03353 0.0
C169 C 0.0328 0.11509 0.94791 0.0
C170 C 0.04615 0.07925 0.97765 0.0
H171 H 0.03229 0.14033 0.98314 0.0
H172 H 0.03565 0.86176 0.02783 0.0
H173 H 0.06284 0.92405 0.98176 0.0
H174 H 0.00976 0.98016 0.17596 0.0
H175 H 0.98416 0.91716 0.22252 0.0
H176 H 0.0403 0.0215 0.08027 0.0
H177 H 0.04618 0.9809 0.93149 0.0
H178 H 0.02218 0.02181 0.83063 0.0
H179 H 0.99823 0.08425 0.77984 0.0
C180 C 0.32208 0.76873 0.69675 0.0
C181 C 0.36968 0.77303 0.68322 0.0
C182 C 0.28954 0.77543 0.64186 0.0
C183 C 0.30348 0.7869 0.57136 0.0
C184 C 0.35101 0.79239 0.55835 0.0
C185 C 0.38376 0.78574 0.61367 0.0
C186 C 0.27035 0.78938 0.50861 0.0
C187 C 0.22371 0.78954 0.51516 0.0
C188 C 0.19124 0.78327 0.45242 0.0
C189 C 0.14375 0.79133 0.46072 0.0
C190 C 0.11168 0.78062 0.40638 0.0
C191 C 0.12661 0.76106 0.34332 0.0
H192 H 0.24154 0.75759 0.37838 0.0
C193 C 0.17417 0.75466 0.33384 0.0
C194 C 0.20591 0.7654 0.38731 0.0
H195 H 0.18695 0.73986 0.28556 0.0
H196 H 0.30971 0.75922 0.74979 0.0
H197 H 0.25375 0.76997 0.65476 0.0
H198 H 0.36303 0.80094 0.50453 0.0
H199 H 0.42003 0.78935 0.60128 0.0
H200 H 0.2856 0.7897 0.4544 0.0
H201 H 0.20818 0.79279 0.56881 0.0
H202 H 0.13123 0.80482 0.51046 0.0
H203 H 0.07529 0.78577 0.41539 0.0
C204 C 0.18655 0.24983 0.68109 0.0
C205 C 0.13957 0.24076 0.67189 0.0
C206 C 0.21915 0.24009 0.62811 0.0
C207 C 0.20595 0.22064 0.56384 0.0
C208 C 0.15917 0.21002 0.55583 0.0
C209 C 0.12627 0.2197 0.60964 0.0
C210 C 0.23888 0.21532 0.50136 0.0
C211 C 0.28541 0.21779 0.50785 0.0
C212 C 0.31826 0.22159 0.44487 0.0
C213 C 0.36613 0.21841 0.4575 0.0
C214 C 0.3983 0.22703 0.40209 0.0
C215 C 0.38315 0.23956 0.33314 0.0
H216 H 0.26731 0.23599 0.36179 0.0
C217 C 0.33535 0.24112 0.31972 0.0
C218 C 0.30342 0.23239 0.37453 0.0
H219 H 0.32232 0.25022 0.26686 0.0
H220 H 0.1981 0.26594 0.72862 0.0
H221 H 0.25414 0.24989 0.63658 0.0
H222 H 0.14776 0.19531 0.50667 0.0
H223 H 0.09035 0.21256 0.60071 0.0
H224 H 0.22367 0.21082 0.44786 0.0
H225 H 0.3006 0.21868 0.56203 0.0
H226 H 0.37876 0.21037 0.51117 0.0
H227 H 0.43479 0.22551 0.41417 0.0
C228 C 0.87334 0.28515 0.62352 0.0
C229 C 0.89081 0.24839 0.64228 0.0
C230 C 0.83991 0.28876 0.56798 0.0
C231 C 0.82414 0.25564 0.53012 0.0
C232 C 0.84327 0.21938 0.54734 0.0
C233 C 0.87563 0.21573 0.60318 0.0
C234 C 0.78905 0.25703 0.47078 0.0
C235 C 0.7528 0.28164 0.46822 0.0
C236 C 0.71645 0.27789 0.41054 0.0
C237 C 0.67005 0.2869 0.4261 0.0
C238 C 0.63506 0.27906 0.37467 0.0
C239 C 0.6461 0.26207 0.30695 0.0
H240 H 0.76278 0.25815 0.32482 0.0
C241 C 0.69281 0.25567 0.28997 0.0
C242 C 0.72741 0.26374 0.34054 0.0
H243 H 0.70278 0.24358 0.23754 0.0
H244 H 0.88381 0.31066 0.65398 0.0
H245 H 0.82642 0.31723 0.55497 0.0
H246 H 0.83202 0.19341 0.51896 0.0
H247 H 0.88792 0.18697 0.61737 0.0
H248 H 0.79103 0.23378 0.43071 0.0
H249 H 0.74765 0.30242 0.51218 0.0
H250 H 0.66064 0.29846 0.47917 0.0
H251 H 0.59945 0.28459 0.38912 0.0
C252 C 0.86999 0.73377 0.38664 0.0
C253 C 0.86498 0.73628 0.31026 0.0
C254 C 0.83095 0.72782 0.43159 0.0
C255 C 0.78655 0.72408 0.40042 0.0
C256 C 0.78264 0.72424 0.32398 0.0
C257 C 0.8211 0.73016 0.27972 0.0
C258 C 0.74277 0.72462 0.4437 0.0
C259 C 0.73864 0.71653 0.51566 0.0
C260 C 0.69456 0.72289 0.55677 0.0
C261 C 0.68514 0.70137 0.62061 0.0
C262 C 0.64721 0.71066 0.66531 0.0
C263 C 0.61844 0.74206 0.64748 0.0
H264 H 0.67039 0.77096 0.48977 0.0
C265 C 0.62656 0.76234 0.58204 0.0
C266 C 0.66392 0.75285 0.5371 0.0
H267 H 0.60583 0.78748 0.56827 0.0
H268 H 0.90329 0.73881 0.41164 0.0
H269 H 0.83536 0.72836 0.49036 0.0
H270 H 0.7492 0.72138 0.29809 0.0
H271 H 0.81609 0.73168 0.22098 0.0
H272 H 0.71182 0.73247 0.41371 0.0
H273 H 0.76808 0.70532 0.54558 0.0
H274 H 0.70826 0.67839 0.63757 0.0
H275 H 0.64271 0.69543 0.71673 0.0
C276 C 0.36867 0.79604 0.06471 0.0
C277 C 0.39514 0.80588 0.0031 0.0
C278 C 0.32607 0.8139 0.07616 0.0
C279 C 0.30947 0.8411 0.02538 0.0
C280 C 0.33885 0.85508 0.97054 0.0
C281 C 0.38149 0.83757 0.95948 0.0
C282 C 0.25923 0.84574 0.01858 0.0
C283 C 0.23866 0.83445 0.9559 0.0
C284 C 0.19379 0.81463 0.95935 0.0
C285 C 0.1913 0.77581 0.9361 0.0
C286 C 0.15539 0.75197 0.96022 0.0
C287 C 0.12113 0.76713 0.00621 0.0
H288 H 0.15841 0.86071 0.01685 0.0
C289 C 0.12085 0.8072 0.02151 0.0
C290 C 0.15709 0.83078 0.99861 0.0
H291 H 0.09547 0.81955 0.05807 0.0
H292 H 0.37851 0.77189 0.09936 0.0
H293 H 0.3038 0.8029 0.11912 0.0
H294 H 0.3267 0.87627 0.93119 0.0
H295 H 0.40065 0.84559 0.91092 0.0
H296 H 0.23934 0.84648 0.06907 0.0
H297 H 0.2596 0.82909 0.90751 0.0
H298 H 0.21951 0.7629 0.90573 0.0
H299 H 0.15637 0.72122 0.94768 0.0
C300 C 0.13198 0.26176 0.07728 0.0
C301 C 0.10611 0.2429 0.02338 0.0
C302 C 0.16293 0.24069 0.12003 0.0
C303 C 0.16932 0.20047 0.10778 0.0
C304 C 0.13904 0.18119 0.06035 0.0
C305 C 0.10778 0.20224 0.0184 0.0
C306 C 0.21312 0.18045 0.12662 0.0
C307 C 0.24746 0.19936 0.15987 0.0
C308 C 0.28859 0.20802 0.11587 0.0
C309 C 0.29097 0.24387 0.07966 0.0
C310 C 0.33147 0.25534 0.04485 0.0
C311 C 0.37081 0.23162 0.04828 0.0
H312 H 0.32345 0.15376 0.13677 0.0
C313 C 0.36623 0.19366 0.07663 0.0
C314 C 0.3253 0.18195 0.11057 0.0
H315 H 0.39573 0.17462 0.07993 0.0
H316 H 0.13075 0.29308 0.08278 0.0
H317 H 0.18458 0.25705 0.15687 0.0
H318 H 0.14282 0.15037 0.04992 0.0
H319 H 0.08863 0.18709 0.97648 0.0
H320 H 0.22264 0.15666 0.09038 0.0
H321 H 0.2392 0.22122 0.20053 0.0
H322 H 0.26219 0.26389 0.08152 0.0
H323 H 0.33333 0.28456 0.02303 0.0
C324 C 0.61038 0.31657 0.99544 0.0
C325 C 0.60514 0.27785 0.97225 0.0
C326 C 0.64783 0.33858 0.97197 0.0
C327 C 0.68054 0.32204 0.92504 0.0
C328 C 0.67158 0.28572 0.8931 0.0
C329 C 0.63419 0.2635 0.91711 0.0
C330 C 0.72827 0.33669 0.92366 0.0
C331 C 0.75073 0.34194 0.98756 0.0
C332 C 0.79973 0.33123 0.99292 0.0
C333 C 0.81219 0.30187 0.0425 0.0
C334 C 0.85311 0.2812 0.03243 0.0
C335 C 0.88234 0.2905 0.97385 0.0
H336 H 0.82246 0.36613 0.90126 0.0
C337 C 0.87242 0.32315 0.93027 0.0
C338 C 0.83136 0.34339 0.93971 0.0
H339 H 0.89377 0.33051 0.88362 0.0
H340 H 0.58933 0.32816 0.03906 0.0
H341 H 0.65395 0.36671 0.99674 0.0
H342 H 0.69644 0.27257 0.85639 0.0
H343 H 0.63084 0.23383 0.89808 0.0
H344 H 0.74794 0.33158 0.87388 0.0
H345 H 0.73125 0.34251 0.03846 0.0
H346 H 0.7881 0.29213 0.08403 0.0
H347 H 0.85999 0.25612 0.06655 0.0
C348 C 0.87858 0.67896 0.04482 0.0
C349 C 0.89072 0.71133 0.00166 0.0
C350 C 0.83658 0.66027 0.03456 0.0
C351 C 0.80592 0.6739 0.98142 0.0
C352 C 0.82058 0.70248 0.93164 0.0
C353 C 0.8627 0.72143 0.94212 0.0
C354 C 0.75607 0.66679 0.98899 0.0
C355 C 0.73541 0.67537 0.05314 0.0
C356 C 0.6911 0.69587 0.05104 0.0
C357 C 0.69126 0.73586 0.06581 0.0
C358 C 0.6562 0.75942 0.03846 0.0
C359 C 0.62003 0.74287 0.99825 0.0
H360 H 0.65186 0.64791 0.00684 0.0
C361 C 0.61654 0.70215 0.99364 0.0
C362 C 0.65245 0.67876 0.01854 0.0
H363 H 0.58877 0.68861 0.9635 0.0
H364 H 0.89862 0.67097 0.09241 0.0
H365 H 0.82595 0.63814 0.07327 0.0
H366 H 0.79726 0.71334 0.89012 0.0
H367 H 0.87116 0.74625 0.90818 0.0
H368 H 0.73571 0.66715 0.93898 0.0
H369 H 0.75635 0.67973 0.10182 0.0
H370 H 0.72103 0.74944 0.0909 0.0
H371 H 0.65942 0.79067 0.04329 0.0
loop_
_geom_bond_atom_site_label_1
_geom_bond_atom_site_label_2
_geom_bond_distance
_geom_bond_site_symmetry_2
_ccdc_geom_bond_type
O0 Mg1 1.990 . S
O0 C14 1.253 . S
Mg1 O0 1.990 . S
Mg1 O4 2.180 . S
Mg1 O5 2.117 . S
Mg1 O19 2.030 . S
O2 Mg3 2.074 . S
O2 C14 1.260 . S
Mg3 O2 2.074 . S
Mg3 O4 2.099 . S
Mg3 O6 2.077 1_455 S
Mg3 O7 2.071 1_455 S
Mg3 O9 2.098 1_455 S
Mg3 O20 2.080 . S
O4 Mg1 2.180 . S
O4 Mg3 2.099 . S
O4 C15 1.279 . S
O5 Mg1 2.117 . S
O5 C15 1.250 . S
O6 Mg3 2.077 1_655 S
O6 C16 1.264 . S
O7 Mg3 2.071 1_655 S
O7 C17 1.260 . S
Mg8 O9 2.180 . S
Mg8 O10 2.030 . S
Mg8 O11 1.990 . S
Mg8 O12 2.117 . S
O9 Mg3 2.098 1_655 S
O9 Mg8 2.180 . S
O9 C18 1.279 . S
O10 Mg8 2.030 . S
O10 C16 1.248 . S
O11 Mg8 1.990 . S
O11 C17 1.253 . S
O12 Mg8 2.117 . S
O12 C18 1.250 . S
C13 O19 1.248 . S
C13 O20 1.264 . S
C14 O0 1.253 . S
C14 O2 1.260 . S
C15 O4 1.279 . S
C15 O5 1.250 . S
C16 O6 1.264 . S
C16 O10 1.248 . S
C17 O7 1.260 . S
C17 O11 1.253 . S
C18 O9 1.279 . S
C18 O12 1.250 . S
O19 Mg1 2.030 . S
O19 C13 1.248 . S
O20 Mg3 2.080 . S
O20 C13 1.264 . S
O21 Mg22 1.990 . S
O21 C35 1.253 . S
Mg22 O21 1.990 . S
Mg22 O25 2.180 . S
Mg22 O26 2.117 . S
Mg22 O40 2.030 . S
O23 Mg24 2.072 . S
O23 C35 1.260 . S
Mg24 O23 2.072 . S
Mg24 O25 2.099 . S
Mg24 O27 2.079 . S
Mg24 O28 2.072 . S
Mg24 O30 2.099 . S
Mg24 O41 2.079 . S
O25 Mg22 2.180 . S
O25 Mg24 2.099 . S
O25 C36 1.279 . S
O26 Mg22 2.117 . S
O26 C36 1.250 . S
O27 Mg24 2.079 . S
O27 C37 1.264 . S
O28 Mg24 2.072 . S
O28 C38 1.260 . S
Mg29 O30 2.180 . S
Mg29 O31 2.030 . S
Mg29 O32 1.990 . S
Mg29 O33 2.117 . S
O30 Mg24 2.099 . S
O30 Mg29 2.180 . S
O30 C39 1.279 . S
O31 Mg29 2.030 . S
O31 C37 1.248 . S
O32 Mg29 1.990 . S
O32 C38 1.253 . S
O33 Mg29 2.117 . S
O33 C39 1.250 . S
C34 O40 1.248 . S
C34 O41 1.264 . S
C35 O21 1.253 . S
C35 O23 1.260 . S
C36 O25 1.279 . S
C36 O26 1.250 . S
C37 O27 1.264 . S
C37 O31 1.248 . S
C38 O28 1.260 . S
C38 O32 1.253 . S
C39 O30 1.279 . S
C39 O33 1.250 . S
O40 Mg22 2.030 . S
O40 C34 1.248 . S
O41 Mg24 2.079 . S
O41 C34 1.264 . S
O42 Mg43 1.990 . S
O42 C56 1.253 . S
Mg43 O42 1.990 . S
Mg43 O46 2.180 . S
Mg43 O47 2.117 . S
Mg43 O61 2.030 . S
O44 Mg45 2.074 . S
O44 C56 1.260 . S
Mg45 O44 2.074 . S
Mg45 O46 2.099 . S
Mg45 O48 2.077 1_455 S
Mg45 O49 2.071 1_455 S
Mg45 O51 2.098 1_455 S
Mg45 O62 2.080 . S
O46 Mg43 2.180 . S
O46 Mg45 2.099 . S
O46 C57 1.279 . S
O47 Mg43 2.117 . S
O47 C57 1.250 . S
O48 Mg45 2.077 1_655 S
O48 C58 1.264 . S
O49 Mg45 2.071 1_655 S
O49 C59 1.260 . S
Mg50 O51 2.180 . S
Mg50 O52 2.030 . S
Mg50 O53 1.990 . S
Mg50 O54 2.117 . S
O51 Mg45 2.098 1_655 S
O51 Mg50 2.180 . S
O51 C60 1.279 . S
O52 Mg50 2.030 . S
O52 C58 1.248 . S
O53 Mg50 1.990 . S
O53 C59 1.253 . S
O54 Mg50 2.117 . S
O54 C60 1.250 . S
C55 O61 1.248 . S
C55 O62 1.264 . S
C56 O42 1.253 . S
C56 O44 1.260 . S
C57 O46 1.279 . S
C57 O47 1.250 . S
C58 O48 1.264 . S
C58 O52 1.248 . S
C59 O49 1.260 . S
C59 O53 1.253 . S
C60 O51 1.279 . S
C60 O54 1.250 . S
O61 Mg43 2.030 . S
O61 C55 1.248 . S
O62 Mg45 2.080 . S
O62 C55 1.264 . S
O63 Mg64 1.990 . S
O63 C77 1.253 . S
Mg64 O63 1.990 . S
Mg64 O67 2.180 . S
Mg64 O68 2.117 . S
Mg64 O82 2.030 . S
O65 Mg66 2.072 . S
O65 C77 1.260 . S
Mg66 O65 2.072 . S
Mg66 O67 2.099 . S
Mg66 O69 2.079 . S
Mg66 O70 2.072 . S
Mg66 O72 2.099 . S
Mg66 O83 2.079 . S
O67 Mg64 2.180 . S
O67 Mg66 2.099 . S
O67 C78 1.279 . S
O68 Mg64 2.117 . S
O68 C78 1.250 . S
O69 Mg66 2.079 . S
O69 C79 1.264 . S
O70 Mg66 2.072 . S
O70 C80 1.260 . S
Mg71 O72 2.180 . S
Mg71 O73 2.030 . S
Mg71 O74 1.990 . S
Mg71 O75 2.117 . S
O72 Mg66 2.099 . S
O72 Mg71 2.180 . S
O72 C81 1.279 . S
O73 Mg71 2.030 . S
O73 C79 1.248 . S
O74 Mg71 1.990 . S
O74 C80 1.253 . S
O75 Mg71 2.117 . S
O75 C81 1.250 . S
C76 O82 1.248 . S
C76 O83 1.264 . S
C77 O63 1.253 . S
C77 O65 1.260 . S
C78 O67 1.279 . S
C78 O68 1.250 . S
C79 O69 1.264 . S
C79 O73 1.248 . S
C80 O70 1.260 . S
C80 O74 1.253 . S
C81 O72 1.279 . S
C81 O75 1.250 . S
O82 Mg64 2.030 . S
O82 C76 1.248 . S
O83 Mg66 2.079 . S
O83 C76 1.264 . S
C84 C85 1.386 . S
C84 C86 1.383 . S
C84 H100 0.951 . S
C85 C84 1.386 . S
C85 C89 1.383 . S
C86 C84 1.383 . S
C86 C87 1.402 . S
C86 H101 0.951 . S
C87 C86 1.402 . S
C87 C88 1.375 . S
C87 C90 1.481 1_556 S
C88 C87 1.375 . S
C88 C89 1.367 . S
C88 H102 0.951 1_556 S
C89 C85 1.383 . S
C89 C88 1.367 . S
C89 H103 0.950 . S
C90 C87 1.481 1_554 S
C90 C91 1.297 . S
C90 H104 0.950 . S
C91 C90 1.297 . S
C91 C92 1.479 . S
C91 H105 0.950 1_554 S
C92 C91 1.479 . S
C92 C93 1.375 . S
C92 C98 1.404 . S
C93 C92 1.375 . S
C93 C94 1.369 . S
C93 H106 0.950 1_554 S
C94 C93 1.369 . S
C94 C95 1.392 . S
C94 H107 0.951 . S
C95 C94 1.392 . S
C95 C97 1.384 . S
H96 C98 0.949 . S
C97 C95 1.384 . S
C97 C98 1.385 . S
C97 H99 0.950 . S
C98 C92 1.404 . S
C98 H96 0.949 . S
C98 C97 1.385 . S
H99 C97 0.950 . S
H100 C84 0.951 . S
H101 C86 0.951 . S
H102 C88 0.951 1_554 S
H103 C89 0.950 . S
H104 C90 0.950 . S
H105 C91 0.950 1_556 S
H106 C93 0.950 1_556 S
H107 C94 0.951 . S
C108 C109 1.386 . S
C108 C110 1.383 . S
C108 H124 0.951 . S
C109 C108 1.386 . S
C109 C113 1.383 . S
C110 C108 1.383 . S
C110 C111 1.402 . S
C110 H125 0.951 1_554 S
C111 C110 1.402 . S
C111 C112 1.375 . S
C111 C114 1.481 . S
C112 C111 1.375 . S
C112 C113 1.367 . S
C112 H126 0.951 . S
C113 C109 1.383 . S
C113 C112 1.367 . S
C113 H127 0.950 . S
C114 C111 1.481 . S
C114 C115 1.297 1_554 S
C114 H128 0.950 . S
C115 C114 1.297 1_556 S
C115 C116 1.479 . S
C115 H129 0.950 . S
C116 C115 1.479 . S
C116 C117 1.375 . S
C116 C122 1.404 . S
C117 C116 1.375 . S
C117 C118 1.369 . S
C117 H130 0.950 . S
C118 C117 1.369 . S
C118 C119 1.392 . S
C118 H131 0.951 . S
C119 C118 1.392 . S
C119 C121 1.384 . S
H120 C122 0.949 . S
C121 C119 1.384 . S
C121 C122 1.385 . S
C121 H123 0.950 . S
C122 C116 1.404 . S
C122 H120 0.949 . S
C122 C121 1.385 . S
H123 C121 0.950 . S
H124 C108 0.951 . S
H125 C110 0.951 1_556 S
H126 C112 0.951 . S
H127 C113 0.950 . S
H128 C114 0.950 . S
H129 C115 0.950 . S
H130 C117 0.950 . S
H131 C118 0.951 . S
C132 C133 1.386 . S
C132 C134 1.383 . S
C132 H148 0.951 . S
C133 C132 1.386 . S
C133 C137 1.383 . S
C134 C132 1.383 . S
C134 C135 1.402 . S
C134 H149 0.951 1_556 S
C135 C134 1.402 . S
C135 C136 1.375 . S
C135 C138 1.488 . S
C136 C135 1.375 . S
C136 C137 1.367 . S
C136 H150 0.951 . S
C137 C133 1.383 . S
C137 C136 1.367 . S
C137 H151 0.950 . S
C138 C135 1.488 . S
C138 C139 1.295 1_566 S
C138 H152 0.945 1_565 S
C139 C138 1.295 1_544 S
C139 C140 1.479 . S
C139 H153 0.950 1_545 S
C140 C139 1.479 . S
C140 C141 1.375 . S
C140 C146 1.404 . S
C141 C140 1.375 . S
C141 C142 1.369 . S
C141 H154 0.950 . S
C142 C141 1.369 . S
C142 C143 1.392 . S
C142 H155 0.951 . S
C143 C142 1.392 . S
C143 C145 1.384 . S
H144 C146 0.949 1_556 S
C145 C143 1.384 . S
C145 C146 1.385 . S
C145 H147 0.950 . S
C146 C140 1.404 . S
C146 H144 0.949 1_554 S
C146 C145 1.385 . S
H147 C145 0.950 . S
H148 C132 0.951 . S
H149 C134 0.951 1_554 S
H150 C136 0.951 . S
H151 C137 0.950 . S
H152 C138 0.945 1_545 S
H153 C139 0.950 1_565 S
H154 C141 0.950 . S
H155 C142 0.951 . S
C156 C157 1.386 . S
C156 C158 1.383 . S
C156 H172 0.951 . S
C157 C156 1.386 . S
C157 C161 1.383 . S
C158 C156 1.383 . S
C158 C159 1.402 . S
C158 H173 0.951 1_554 S
C159 C158 1.402 . S
C159 C160 1.375 . S
C159 C162 1.482 . S
C160 C159 1.375 . S
C160 C161 1.367 . S
C160 H174 0.951 . S
C161 C157 1.383 . S
C161 C160 1.367 . S
C161 H175 0.950 . S
C162 C159 1.482 . S
C162 C163 1.295 1_464 S
C162 H176 0.951 1_565 S
C163 C162 1.295 1_646 S
C163 C164 1.479 . S
C163 H177 0.950 1_545 S
C164 C163 1.479 . S
C164 C165 1.377 . S
C164 C170 1.404 . S
C165 C164 1.377 . S
C165 C166 1.367 1_655 S
C165 H178 0.951 . S
C166 C165 1.367 1_455 S
C166 C167 1.392 . S
C166 H179 0.951 . S
C167 C166 1.392 . S
C167 C169 1.384 . S
H168 C170 0.949 1_554 S
C169 C167 1.384 . S
C169 C170 1.385 1_455 S
C169 H171 0.950 . S
C170 C164 1.404 . S
C170 H168 0.949 1_556 S
C170 C169 1.385 1_655 S
H171 C169 0.950 . S
H172 C156 0.951 . S
H173 C158 0.951 1_556 S
H174 C160 0.951 . S
H175 C161 0.950 . S
H176 C162 0.951 1_545 S
H177 C163 0.950 1_565 S
H178 C165 0.951 . S
H179 C166 0.951 . S
C180 C181 1.386 . S
C180 C182 1.383 . S
C180 H196 0.951 . S
C181 C180 1.386 . S
C181 C185 1.383 . S
C182 C180 1.383 . S
C182 C183 1.402 . S
C182 H197 0.951 . S
C183 C182 1.402 . S
C183 C184 1.375 . S
C183 C186 1.481 . S
C184 C183 1.375 . S
C184 C185 1.367 . S
C184 H198 0.951 . S
C185 C181 1.383 . S
C185 C184 1.367 . S
C185 H199 0.950 . S
C186 C183 1.481 . S
C186 C187 1.297 . S
C186 H200 0.950 . S
C187 C186 1.297 . S
C187 C188 1.479 . S
C187 H201 0.950 . S
C188 C187 1.479 . S
C188 C189 1.375 . S
C188 C194 1.404 . S
C189 C188 1.375 . S
C189 C190 1.369 . S
C189 H202 0.950 . S
C190 C189 1.369 . S
C190 C191 1.392 . S
C190 H203 0.951 . S
C191 C190 1.392 . S
C191 C193 1.384 . S
H192 C194 0.949 . S
C193 C191 1.384 . S
C193 C194 1.385 . S
C193 H195 0.950 . S
C194 C188 1.404 . S
C194 H192 0.949 . S
C194 C193 1.385 . S
H195 C193 0.950 . S
H196 C180 0.951 . S
H197 C182 0.951 . S
H198 C184 0.951 . S
H199 C185 0.950 . S
H200 C186 0.950 . S
H201 C187 0.950 . S
H202 C189 0.950 . S
H203 C190 0.951 . S
C204 C205 1.386 . S
C204 C206 1.383 . S
C204 H220 0.951 . S
C205 C204 1.386 . S
C205 C209 1.383 . S
C206 C204 1.383 . S
C206 C207 1.402 . S
C206 H221 0.951 . S
C207 C206 1.402 . S
C207 C208 1.375 . S
C207 C210 1.481 . S
C208 C207 1.375 . S
C208 C209 1.367 . S
C208 H222 0.951 . S
C209 C205 1.383 . S
C209 C208 1.367 . S
C209 H223 0.950 . S
C210 C207 1.481 . S
C210 C211 1.297 . S
C210 H224 0.950 . S
C211 C210 1.297 . S
C211 C212 1.479 . S
C211 H225 0.950 . S
C212 C211 1.479 . S
C212 C213 1.375 . S
C212 C218 1.404 . S
C213 C212 1.375 . S
C213 C214 1.369 . S
C213 H226 0.950 . S
C214 C213 1.369 . S
C214 C215 1.392 . S
C214 H227 0.951 . S
C215 C214 1.392 . S
C215 C217 1.384 . S
H216 C218 0.949 . S
C217 C215 1.384 . S
C217 C218 1.385 . S
C217 H219 0.950 . S
C218 C212 1.404 . S
C218 H216 0.949 . S
C218 C217 1.385 . S
H219 C217 0.950 . S
H220 C204 0.951 . S
H221 C206 0.951 . S
H222 C208 0.951 . S
H223 C209 0.950 . S
H224 C210 0.950 . S
H225 C211 0.950 . S
H226 C213 0.950 . S
H227 C214 0.951 . S
C228 C229 1.386 . S
C228 C230 1.383 . S
C228 H244 0.951 . S
C229 C228 1.386 . S
C229 C233 1.383 . S
C230 C228 1.383 . S
C230 C231 1.402 . S
C230 H245 0.951 . S
C231 C230 1.402 . S
C231 C232 1.375 . S
C231 C234 1.481 . S
C232 C231 1.375 . S
C232 C233 1.367 . S
C232 H246 0.951 . S
C233 C229 1.383 . S
C233 C232 1.367 . S
C233 H247 0.950 . S
C234 C231 1.481 . S
C234 C235 1.297 . S
C234 H248 0.950 . S
C235 C234 1.297 . S
C235 C236 1.479 . S
C235 H249 0.950 . S
C236 C235 1.479 . S
C236 C237 1.375 . S
C236 C242 1.404 . S
C237 C236 1.375 . S
C237 C238 1.369 . S
C237 H250 0.950 . S
C238 C237 1.369 . S
C238 C239 1.392 . S
C238 H251 0.951 . S
C239 C238 1.392 . S
C239 C241 1.384 . S
H240 C242 0.949 . S
C241 C239 1.384 . S
C241 C242 1.385 . S
C241 H243 0.950 . S
C242 C236 1.404 . S
C242 H240 0.949 . S
C242 C241 1.385 . S
H243 C241 0.950 . S
H244 C228 0.951 . S
H245 C230 0.951 . S
H246 C232 0.951 . S
H247 C233 0.950 . S
H248 C234 0.950 . S
H249 C235 0.950 . S
H250 C237 0.950 . S
H251 C238 0.951 . S
C252 C253 1.386 . S
C252 C254 1.383 . S
C252 H268 0.951 . S
C253 C252 1.386 . S
C253 C257 1.383 . S
C254 C252 1.383 . S
C254 C255 1.402 . S
C254 H269 0.951 . S
C255 C254 1.402 . S
C255 C256 1.375 . S
C255 C258 1.481 . S
C256 C255 1.375 . S
C256 C257 1.367 . S
C256 H270 0.951 . S
C257 C253 1.383 . S
C257 C256 1.367 . S
C257 H271 0.950 . S
C258 C255 1.481 . S
C258 C259 1.297 . S
C258 H272 0.950 . S
C259 C258 1.297 . S
C259 C260 1.479 . S
C259 H273 0.950 . S
C260 C259 1.479 . S
C260 C261 1.375 . S
C260 C266 1.404 . S
C261 C260 1.375 . S
C261 C262 1.369 . S
C261 H274 0.950 . S
C262 C261 1.369 . S
C262 C263 1.392 . S
C262 H275 0.951 . S
C263 C262 1.392 . S
C263 C265 1.384 . S
H264 C266 0.949 . S
C265 C263 1.384 . S
C265 C266 1.385 . S
C265 H267 0.950 . S
C266 C260 1.404 . S
C266 H264 0.949 . S
C266 C265 1.385 . S
H267 C265 0.950 . S
H268 C252 0.951 . S
H269 C254 0.951 . S
H270 C256 0.951 . S
H271 C257 0.950 . S
H272 C258 0.950 . S
H273 C259 0.950 . S
H274 C261 0.950 . S
H275 C262 0.951 . S
C276 C277 1.386 . S
C276 C278 1.383 . S
C276 H292 0.951 . S
C277 C276 1.386 . S
C277 C281 1.383 . S
C278 C276 1.383 . S
C278 C279 1.402 . S
C278 H293 0.951 . S
C279 C278 1.402 . S
C279 C280 1.375 . S
C279 C282 1.481 1_556 S
C280 C279 1.375 . S
C280 C281 1.367 . S
C280 H294 0.951 . S
C281 C277 1.383 . S
C281 C280 1.367 . S
C281 H295 0.950 . S
C282 C279 1.481 1_554 S
C282 C283 1.297 . S
C282 H296 0.950 . S
C283 C282 1.297 . S
C283 C284 1.479 . S
C283 H297 0.950 . S
C284 C283 1.479 . S
C284 C285 1.375 . S
C284 C290 1.404 . S
C285 C284 1.375 . S
C285 C286 1.369 . S
C285 H298 0.950 . S
C286 C285 1.369 . S
C286 C287 1.392 . S
C286 H299 0.951 . S
C287 C286 1.392 . S
C287 C289 1.384 . S
H288 C290 0.949 . S
C289 C287 1.384 . S
C289 C290 1.385 . S
C289 H291 0.950 . S
C290 C284 1.404 . S
C290 H288 0.949 . S
C290 C289 1.385 . S
H291 C289 0.950 . S
H292 C276 0.951 . S
H293 C278 0.951 . S
H294 C280 0.951 . S
H295 C281 0.950 . S
H296 C282 0.950 . S
H297 C283 0.950 . S
H298 C285 0.950 . S
H299 C286 0.951 . S
C300 C301 1.386 . S
C300 C302 1.383 1_556 S
C300 H316 0.951 . S
C301 C300 1.386 . S
C301 C305 1.383 . S
C302 C300 1.383 1_554 S
C302 C303 1.402 1_554 S
C302 H317 0.951 . S
C303 C302 1.402 1_556 S
C303 C304 1.375 . S
C303 C306 1.481 1_556 S
C304 C303 1.375 . S
C304 C305 1.367 . S
C304 H318 0.951 . S
C305 C301 1.383 . S
C305 C304 1.367 . S
C305 H319 0.950 . S
C306 C303 1.481 1_554 S
C306 C307 1.296 . S
C306 H320 0.951 1_554 S
C307 C306 1.296 . S
C307 C308 1.479 . S
C307 H321 0.950 . S
C308 C307 1.479 . S
C308 C309 1.375 . S
C308 C314 1.404 . S
C309 C308 1.375 . S
C309 C310 1.369 . S
C309 H322 0.950 . S
C310 C309 1.369 . S
C310 C311 1.392 . S
C310 H323 0.951 . S
C311 C310 1.392 . S
C311 C313 1.384 . S
H312 C314 0.949 . S
C313 C311 1.384 . S
C313 C314 1.385 . S
C313 H315 0.950 . S
C314 C308 1.404 . S
C314 H312 0.949 . S
C314 C313 1.385 . S
H315 C313 0.950 . S
H316 C300 0.951 . S
H317 C302 0.951 . S
H318 C304 0.951 . S
H319 C305 0.950 . S
H320 C306 0.951 1_556 S
H321 C307 0.950 . S
H322 C309 0.950 . S
H323 C310 0.951 . S
C324 C325 1.386 . S
C324 C326 1.383 . S
C324 H340 0.951 . S
C325 C324 1.386 . S
C325 C329 1.383 1_554 S
C326 C324 1.383 . S
C326 C327 1.402 . S
C326 H341 0.951 . S
C327 C326 1.402 . S
C327 C328 1.375 1_554 S
C327 C330 1.481 1_554 S
C328 C327 1.375 1_556 S
C328 C329 1.367 . S
C328 H342 0.951 . S
C329 C325 1.383 1_556 S
C329 C328 1.367 . S
C329 H343 0.950 . S
C330 C327 1.481 1_556 S
C330 C331 1.297 1_556 S
C330 H344 0.950 . S
C331 C330 1.297 1_554 S
C331 C332 1.479 1_554 S
C331 H345 0.950 . S
C332 C331 1.479 1_556 S
C332 C333 1.375 1_556 S
C332 C338 1.404 . S
C333 C332 1.375 1_554 S
C333 C334 1.369 . S
C333 H346 0.950 . S
C334 C333 1.369 . S
C334 C335 1.392 1_554 S
C334 H347 0.951 . S
C335 C334 1.392 1_556 S
C335 C337 1.384 . S
H336 C338 0.949 . S
C337 C335 1.384 . S
C337 C338 1.385 . S
C337 H339 0.950 . S
C338 C332 1.404 . S
C338 H336 0.949 . S
C338 C337 1.385 . S
H339 C337 0.950 . S
H340 C324 0.951 . S
H341 C326 0.951 . S
H342 C328 0.951 . S
H343 C329 0.950 . S
H344 C330 0.950 . S
H345 C331 0.950 . S
H346 C333 0.950 . S
H347 C334 0.951 . S
C348 C349 1.386 . S
C348 C350 1.383 . S
C348 H364 0.951 . S
C349 C348 1.386 . S
C349 C353 1.383 1_554 S
C350 C348 1.383 . S
C350 C351 1.402 . S
C350 H365 0.951 . S
C351 C350 1.402 . S
C351 C352 1.375 1_554 S
C351 C354 1.481 1_554 S
C352 C351 1.375 1_556 S
C352 C353 1.367 . S
C352 H366 0.951 . S
C353 C349 1.383 1_556 S
C353 C352 1.367 . S
C353 H367 0.950 . S
C354 C351 1.481 1_556 S
C354 C355 1.297 1_556 S
C354 H368 0.950 . S
C355 C354 1.297 1_554 S
C355 C356 1.479 1_554 S
C355 H369 0.950 . S
C356 C355 1.479 1_556 S
C356 C357 1.375 1_556 S
C356 C362 1.404 . S
C357 C356 1.375 1_554 S
C357 C358 1.369 . S
C357 H370 0.950 . S
C358 C357 1.369 . S
C358 C359 1.392 1_554 S
C358 H371 0.951 . S
C359 C358 1.392 1_556 S
C359 C361 1.384 . S
H360 C362 0.949 . S
C361 C359 1.384 . S
C361 C362 1.385 . S
C361 H363 0.950 . S
C362 C356 1.404 . S
C362 H360 0.949 . S
C362 C361 1.385 . S
H363 C361 0.950 . S
H364 C348 0.951 . S
H365 C350 0.951 . S
H366 C352 0.951 . S
H367 C353 0.950 . S
H368 C354 0.950 . S
H369 C355 0.950 . S
H370 C357 0.950 . S
H371 C358 0.951 . S
C85 C57 1.779 1_655 S
C95 C15 1.831 1_655 S
C109 C39 1.722 . S
C119 C78 1.739 . S
C133 C81 1.763 . S
C143 C36 1.683 . S
C157 C18 1.747 1_455 S
C167 C60 1.686 1_455 S
C181 C76 1.497 . S
C191 C13 1.486 . S
C205 C55 1.515 . S
C215 C37 1.530 . S
C229 C58 1.468 . S
C239 C34 1.439 . S
C253 C16 1.464 . S
C263 C79 1.434 . S
C277 C77 0.772 . S
C287 C14 0.583 . S
C301 C56 0.763 . S
C311 C38 0.647 . S
C325 C35 0.673 . S
C335 C59 0.617 . S
C349 C17 0.669 . S
C359 C80 0.624 . S
