# Generated by pormake.
# Topology ths, (3)-cn, num edge types: 1
# Building blocks:
#     Node 0, Type 0, BuildingBlock: OLANEW_clean_sbu_2, # of connection points: 3
#     Node 1, Type 0, BuildingBlock: OLANEW_clean_sbu_2, # of connection points: 3
#     Node 2, Type 0, BuildingBlock: OLANEW_clean_sbu_2, # of connection points: 3
#     Node 3, Type 0, BuildingBlock: OLANEW_clean_sbu_2, # of connection points: 3
#     Node 4, Type 0, BuildingBlock: OLANEW_clean_sbu_2, # of connection points: 3
#     Node 5, Type 0, BuildingBlock: OLANEW_clean_sbu_2, # of connection points: 3
#     Node 6, Type 0, BuildingBlock: OLANEW_clean_sbu_2, # of connection points: 3
#     Node 7, Type 0, BuildingBlock: OLANEW_clean_sbu_2, # of connection points: 3
#     Edge 8, Type (0, 0), BuildingBlock: CIFDUS_clean_linker_0, # of connection points: 2
#     Edge 9, Type (0, 0), BuildingBlock: CIFDUS_clean_linker_0, # of connection points: 2
#     Edge 10, Type (0, 0), BuildingBlock: CIFDUS_clean_linker_0, # of connection points: 2
#     Edge 11, Type (0, 0), BuildingBlock: CIFDUS_clean_linker_0, # of connection points: 2
#     Edge 12, Type (0, 0), BuildingBlock: CIFDUS_clean_linker_0, # of connection points: 2
#     Edge 13, Type (0, 0), BuildingBlock: CIFDUS_clean_linker_0, # of connection points: 2
#     Edge 14, Type (0, 0), BuildingBlock: CIFDUS_clean_linker_0, # of connection points: 2
#     Edge 15, Type (0, 0), BuildingBlock: CIFDUS_clean_linker_0, # of connection points: 2
#     Edge 16, Type (0, 0), BuildingBlock: CIFDUS_clean_linker_0, # of connection points: 2
#     Edge 17, Type (0, 0), BuildingBlock: CIFDUS_clean_linker_0, # of connection points: 2
#     Edge 18, Type (0, 0), BuildingBlock: CIFDUS_clean_linker_0, # of connection points: 2
#     Edge 19, Type (0, 0), BuildingBlock: CIFDUS_clean_linker_0, # of connection points: 2
# Relax obj value: 0.000
# Max RMSD: 0.052
# Mean RMSD: 0.046
data_MOF--net-ths--node1-OLANEW_clean_sbu_2--edge1-CIFDUS_clean_linker_0
_symmetry_space_group_name_H-M    P1
_symmetry_Int_Tables_number       1
_symmetry_cell_setting            triclinic
loop_
_symmetry_equiv_pos_as_xyz
'x, y, z'
_cell_length_a     28.988438
_cell_length_b     29.463176
_cell_length_c     71.888826
_cell_angle_alpha  99.372947
_cell_angle_beta   91.003669
_cell_angle_gamma 89.259601
loop_
_atom_site_label
_atom_site_type_symbol
_atom_site_fract_x
_atom_site_fract_y
_atom_site_fract_z
_atom_type_partial_charge
O0 O 0.10993 0.76117 0.04047 0.0
Cd1 Cd 0.10457 0.7423 0.00616 0.0
O2 O 0.17413 0.72179 0.0429 0.0
Cd3 Cd 0.16947 0.68445 0.01415 0.0
O4 O 0.164 0.62013 -0.00569 0.0
C5 C 0.16099 0.58388 0.00168 0.0
O6 O 0.1611 0.58782 0.02016 0.0
C7 C 0.1432 0.74939 0.05048 0.0
C8 C 0.11038 0.82375 -0.0088 0.0
O9 O 0.07129 0.80842 -0.00471 0.0
O10 O 0.1466 0.80002 -0.00618 0.0
O11 O 0.62806 0.77139 0.30565 0.0
Cd12 Cd 0.6381 0.82662 0.28414 0.0
O13 O 0.59153 0.72319 0.28389 0.0
Cd14 Cd 0.58076 0.76956 0.26344 0.0
O15 O 0.51862 0.78698 0.24833 0.0
C16 C 0.49322 0.75277 0.24216 0.0
O17 O 0.50787 0.71141 0.24415 0.0
C18 C 0.60897 0.73271 0.3004 0.0
C19 C 0.72104 0.81348 0.26471 0.0
O20 O 0.71863 0.84058 0.28055 0.0
O21 O 0.68432 0.79243 0.25817 0.0
O22 O 0.60817 0.22222 0.52755 0.0
Cd23 Cd 0.58396 0.19575 0.49497 0.0
O24 O 0.67498 0.18584 0.52653 0.0
Cd25 Cd 0.66074 0.15055 0.49793 0.0
O26 O 0.64004 0.0935 0.47616 0.0
C27 C 0.64316 0.05392 0.48097 0.0
O28 O 0.65897 0.05069 0.49796 0.0
C29 C 0.64568 0.2129 0.53561 0.0
C30 C 0.5593 0.271 0.47789 0.0
O31 O 0.53146 0.25484 0.48875 0.0
O32 O 0.59874 0.25127 0.47486 0.0
O33 O 0.15997 0.18302 0.7826 0.0
Cd34 Cd 0.15201 0.19491 0.74991 0.0
O35 O 0.09479 0.14612 0.78379 0.0
Cd36 Cd 0.06839 0.15655 0.75617 0.0
O37 O 0.00955 0.17384 0.73915 0.0
C38 C -0.00075 0.21586 0.73904 0.0
O39 O 0.02638 0.24779 0.74806 0.0
C40 C 0.13226 0.16184 0.7916 0.0
C41 C 0.23956 0.20145 0.73499 0.0
O42 O 0.21897 0.237 0.7439 0.0
O43 O 0.21848 0.16293 0.73291 0.0
O44 O 0.0963 0.14238 0.91154 0.0
Cd45 Cd 0.09572 0.15444 0.94595 0.0
O46 O 0.15445 0.18897 0.91022 0.0
Cd47 Cd 0.1536 0.2198 0.93991 0.0
O48 O 0.15297 0.28385 0.96006 0.0
C49 C 0.1519 0.32034 0.95273 0.0
O50 O 0.151 0.31652 0.93425 0.0
C51 C 0.12567 0.15996 0.90195 0.0
C52 C 0.08865 0.06992 0.95845 0.0
O53 O 0.05255 0.09359 0.95561 0.0
O54 O 0.12808 0.08653 0.95561 0.0
O55 O 0.13892 0.82493 0.17018 0.0
Cd56 Cd 0.14485 0.83436 0.20446 0.0
O57 O 0.06534 0.84353 0.16828 0.0
Cd58 Cd 0.05023 0.85043 0.19827 0.0
O59 O -0.0015 0.84969 0.21999 0.0
C60 C 0.96438 0.82338 0.21524 0.0
O61 O 0.96397 0.79795 0.19842 0.0
C62 C 0.10346 0.83179 0.16033 0.0
C63 C 0.23738 0.82491 0.21482 0.0
O64 O 0.21099 0.78991 0.21121 0.0
O65 O 0.21983 0.86463 0.21386 0.0
O66 O 0.5184 0.57457 0.38099 0.0
Cd67 Cd 0.46435 0.53641 0.3989 0.0
O68 O 0.52386 0.63536 0.40287 0.0
Cd69 Cd 0.5406 0.70579 0.416 0.0
O70 O 0.56569 0.76971 0.43258 0.0
C71 C 0.56581 0.80771 0.42637 0.0
O72 O 0.54998 0.80923 0.40924 0.0
C73 C 0.53428 0.6146 0.38651 0.0
C74 C 0.50263 0.46696 0.41641 0.0
O75 O 0.49376 0.46013 0.39866 0.0
O76 O 0.49423 0.50688 0.42587 0.0
O77 O 0.65328 0.27252 0.6553 0.0
Cd78 Cd 0.65462 0.27299 0.68926 0.0
O79 O 0.58555 0.30692 0.65451 0.0
Cd80 Cd 0.56694 0.30605 0.68374 0.0
O81 O 0.51032 0.29782 0.70258 0.0
C82 C 0.48691 0.2612 0.69868 0.0
O83 O 0.49989 0.22971 0.68458 0.0
C84 C 0.62151 0.28971 0.64612 0.0
C85 C 0.74248 0.24757 0.7007 0.0
O86 O 0.71124 0.21739 0.69577 0.0
O87 O 0.73197 0.28986 0.70044 0.0
H88 H 0.15283 0.40335 0.94093 0.0
H89 H 0.15217 0.34092 -0.00874 0.0
H90 H 0.15422 0.41699 0.01075 0.0
H91 H 0.15722 0.50099 0.0135 0.0
H92 H 0.15852 0.56335 0.96316 0.0
H93 H 0.15513 0.48734 0.94367 0.0
C94 C 0.15306 0.40629 0.95616 0.0
C95 C 0.15242 0.36641 0.9646 0.0
C96 C 0.1544 0.4501 0.96728 0.0
C97 C 0.15272 0.37099 -0.01562 0.0
C98 C 0.15389 0.41449 -0.00446 0.0
C99 C 0.15669 0.49805 -0.00173 0.0
C100 C 0.1582 0.53788 -0.01018 0.0
C101 C 0.1549 0.45425 -0.01285 0.0
C102 C 0.15747 0.53331 0.97005 0.0
C103 C 0.15553 0.48984 0.95889 0.0
H104 H 0.88587 0.77396 0.20806 0.0
H105 H 0.95211 0.87399 0.25035 0.0
H106 H 0.88329 0.87833 0.26975 0.0
H107 H 0.803 0.85634 0.27401 0.0
H108 H 0.73684 0.75721 0.23132 0.0
H109 H 0.80705 0.74991 0.21282 0.0
C110 C 0.88546 0.79655 0.22157 0.0
C111 C 0.92407 0.82378 0.22767 0.0
C112 C 0.84568 0.79921 0.23256 0.0
C113 C 0.92286 0.85272 0.24526 0.0
C114 C 0.88347 0.8553 0.25636 0.0
C115 C 0.804 0.83296 0.26071 0.0
C116 C 0.76456 0.80756 0.25404 0.0
C117 C 0.84446 0.82912 0.25004 0.0
C118 C 0.76656 0.77734 0.23678 0.0
C119 C 0.80673 0.77313 0.22617 0.0
H120 H 0.58615 0.29037 0.44413 0.0
H121 H 0.50282 0.34186 0.49226 0.0
H122 H 0.4807 0.4091 0.47806 0.0
H123 H 0.48336 0.45215 0.45155 0.0
H124 H 0.56007 0.39672 0.40201 0.0
H125 H 0.58674 0.33221 0.41713 0.0
C126 C 0.56333 0.31649 0.4515 0.0
C127 C 0.54626 0.31144 0.46921 0.0
C128 C 0.54963 0.35426 0.44299 0.0
C129 C 0.51621 0.34505 0.47856 0.0
C130 C 0.50367 0.3835 0.47048 0.0
C131 C 0.50626 0.4261 0.44417 0.0
C132 C 0.52017 0.42921 0.42581 0.0
C133 C 0.51997 0.38834 0.45267 0.0
C134 C 0.54905 0.39492 0.41619 0.0
C135 C 0.56425 0.3581 0.42482 0.0
H136 H 0.92914 0.15916 0.72491 0.0
H137 H 0.96931 0.30177 0.73461 0.0
H138 H 0.89385 0.32402 0.72324 0.0
H139 H 0.81541 0.3034 0.71174 0.0
H140 H 0.77481 0.16093 0.7026 0.0
H141 H 0.85146 0.13833 0.71259 0.0
C142 C 0.92159 0.19508 0.72439 0.0
C143 C 0.95488 0.22873 0.73065 0.0
C144 C 0.87788 0.20774 0.71807 0.0
C145 C 0.94435 0.27513 0.72992 0.0
C146 C 0.90113 0.28793 0.72346 0.0
C147 C 0.82331 0.26739 0.71189 0.0
C148 C 0.78928 0.23397 0.7065 0.0
C149 C 0.86744 0.2546 0.71772 0.0
C150 C 0.80024 0.18743 0.70674 0.0
C151 C 0.84412 0.17443 0.71244 0.0
H152 H 0.43144 0.18646 0.69418 0.0
H153 H 0.44388 0.32432 0.72511 0.0
H154 H 0.36868 0.31779 0.73921 0.0
H155 H 0.29802 0.27406 0.74178 0.0
H156 H 0.28623 0.13593 0.71107 0.0
H157 H 0.36252 0.14158 0.69784 0.0
C158 C 0.41789 0.21503 0.70409 0.0
C159 C 0.44322 0.25591 0.70848 0.0
C160 C 0.37456 0.21113 0.71209 0.0
C161 C 0.42516 0.29245 0.72145 0.0
C162 C 0.38205 0.28882 0.72948 0.0
C163 C 0.31213 0.24518 0.7322 0.0
C164 C 0.28626 0.20477 0.72732 0.0
C165 C 0.3562 0.24854 0.72472 0.0
C166 C 0.3053 0.1675 0.71503 0.0
C167 C 0.34896 0.17069 0.70745 0.0
H168 H 0.28602 0.74517 0.21378 0.0
H169 H 0.29977 0.89265 0.22694 0.0
H170 H 0.38086 0.8836 0.23563 0.0
H171 H 0.44727 0.8336 0.24049 0.0
H172 H 0.43279 0.68613 0.22721 0.0
H173 H 0.35284 0.69551 0.21741 0.0
C174 C 0.30671 0.77538 0.21855 0.0
C175 C 0.28672 0.8195 0.21984 0.0
C176 C 0.35331 0.76995 0.22345 0.0
C177 C 0.31422 0.85825 0.22588 0.0
C178 C 0.36063 0.85312 0.23084 0.0
C179 C 0.42675 0.80353 0.23529 0.0
C180 C 0.44605 0.75924 0.23468 0.0
C181 C 0.38049 0.80911 0.2298 0.0
C182 C 0.41888 0.72066 0.22791 0.0
C183 C 0.37304 0.72594 0.22233 0.0
H184 H 0.56605 0.89542 0.41861 0.0
H185 H 0.60522 0.81437 0.46141 0.0
H186 H 0.63333 0.88307 0.48171 0.0
H187 H 0.64575 0.96602 0.48765 0.0
H188 H 0.60631 0.04803 0.44527 0.0
H189 H 0.57947 -0.02098 0.42448 0.0
C190 C 0.58081 0.89276 0.43236 0.0
C191 C 0.58337 0.84972 0.43846 0.0
C192 C 0.59685 0.93256 0.44407 0.0
C193 C 0.60263 0.84698 0.45634 0.0
C194 C 0.61878 0.88629 0.46799 0.0
C195 C 0.63139 0.96891 0.47385 0.0
C196 C 0.62801 0.01219 0.46806 0.0
C197 C 0.61588 0.92923 0.46204 0.0
C198 C 0.60933 0.01516 0.4501 0.0
C199 C 0.59393 -0.0243 0.43821 0.0
H200 H 0.04043 0.88266 -0.0146 0.0
H201 H 0.1882 0.86491 -0.01859 0.0
H202 H 0.19445 0.93936 -0.02901 0.0
H203 H 0.15822 0.00997 0.9634 0.0
H204 H 0.01046 0.02778 0.96733 0.0
H205 H 0.00406 0.95292 -0.02258 0.0
C206 C 0.074 0.89497 -0.01781 0.0
C207 C 0.11377 0.86818 -0.0158 0.0
C208 C 0.07741 0.93794 -0.02374 0.0
C209 C 0.15699 0.88475 -0.02001 0.0
C210 C 0.16064 0.92739 -0.02595 0.0
C211 C 0.12459 -0.00247 0.96648 0.0
C212 C 0.08491 0.02457 0.96466 0.0
C213 C 0.12112 0.95437 -0.02778 0.0
C214 C 0.04161 0.00777 0.96864 0.0
C215 C 0.03789 0.96491 -0.0256 0.0
H216 H 0.1744 0.79381 0.13858 0.0
H217 H 0.03746 0.85165 0.13518 0.0
H218 H 0.03887 0.8337 0.10085 0.0
H219 H 0.07716 0.79795 0.07191 0.0
H220 H 0.21305 0.73781 0.07535 0.0
H221 H 0.21385 0.76057 0.10954 0.0
C222 C 0.145 0.80288 0.13034 0.0
C223 C 0.10582 0.82388 0.13948 0.0
C224 C 0.14573 0.79187 0.1106 0.0
C225 C 0.068 0.83527 0.12855 0.0
C226 C 0.06874 0.825 0.1089 0.0
C227 C 0.10713 0.79012 0.0801 0.0
C228 C 0.14488 0.76601 0.07106 0.0
C229 C 0.10715 0.80274 0.09979 0.0
C230 C 0.18339 0.75613 0.08194 0.0
C231 C 0.18391 0.76912 0.10151 0.0
H232 H 0.53273 0.59227 0.34864 0.0
H233 H 0.5959 0.68675 0.39374 0.0
H234 H 0.62721 0.73056 0.3709 0.0
H235 H 0.63084 0.74546 0.33809 0.0
H236 H 0.56995 0.64796 0.29325 0.0
H237 H 0.54507 0.60109 0.31602 0.0
C238 C 0.55379 0.62213 0.35355 0.0
C239 C 0.55978 0.63759 0.373 0.0
C240 C 0.57244 0.64649 0.34032 0.0
C241 C 0.58806 0.67576 0.37898 0.0
C242 C 0.60673 0.70039 0.36586 0.0
C243 C 0.61281 0.71358 0.33326 0.0
C244 C 0.60166 0.70076 0.31398 0.0
C245 C 0.59802 0.68679 0.3465 0.0
C246 C 0.57861 0.65907 0.30799 0.0
C247 C 0.56418 0.63221 0.32102 0.0
H248 H 0.5909 0.2723 0.55848 0.0
H249 H 0.71667 0.1922 0.55859 0.0
H250 H 0.72265 0.2126 0.59286 0.0
H251 H 0.68803 0.2469 0.62296 0.0
H252 H 0.56107 0.32517 0.62259 0.0
H253 H 0.56004 0.31195 0.58825 0.0
C254 C 0.61996 0.25967 0.56594 0.0
C255 C 0.65296 0.23028 0.55597 0.0
C256 C 0.62282 0.27092 0.58564 0.0
C257 C 0.69059 0.21467 0.56589 0.0
C258 C 0.69398 0.22619 0.58552 0.0
C259 C 0.66044 0.26158 0.61539 0.0
C260 C 0.6244 0.28651 0.62539 0.0
C261 C 0.65964 0.25332 0.59557 0.0
C262 C 0.58906 0.30547 0.6153 0.0
C263 C 0.58837 0.2979 0.59563 0.0
H264 H 0.18665 0.18695 0.87774 0.0
H265 H 0.06166 0.10954 0.87923 0.0
H266 H 0.05483 0.1 0.84491 0.0
H267 H 0.0807 0.11931 0.81486 0.0
H268 H 0.20514 0.19773 0.81356 0.0
H269 H 0.21594 0.20076 0.84745 0.0
C270 C 0.15811 0.16761 0.87058 0.0
C271 C 0.12444 0.14947 0.88109 0.0
C272 C 0.15413 0.16262 0.85088 0.0
C273 C 0.08798 0.12408 0.87152 0.0
C274 C 0.08395 0.11871 0.85189 0.0
C275 C 0.11047 0.13666 0.82193 0.0
C276 C 0.14174 0.15871 0.81167 0.0
C277 C 0.11627 0.13871 0.84147 0.0
C278 C 0.18033 0.18069 0.82108 0.0
C279 C 0.18651 0.18256 0.84049 0.0
loop_
_geom_bond_atom_site_label_1
_geom_bond_atom_site_label_2
_geom_bond_distance
_geom_bond_site_symmetry_2
_ccdc_geom_bond_type
O0 Cd1 2.300 . S
O0 C7 1.275 . S
Cd1 O0 2.300 . S
Cd1 O9 2.381 . S
Cd1 O10 2.378 . S
O2 Cd3 2.385 . S
O2 C7 1.255 . S
Cd3 O2 2.385 . S
Cd3 O4 2.317 . S
O4 Cd3 2.317 . S
O4 C5 1.232 . S
C5 O4 1.232 . S
C5 O6 1.218 . S
O6 C5 1.218 . S
C7 O0 1.275 . S
C7 O2 1.255 . S
C8 O9 1.258 . S
C8 O10 1.256 . S
O9 Cd1 2.381 . S
O9 C8 1.258 . S
O10 Cd1 2.378 . S
O10 C8 1.256 . S
O11 Cd12 2.300 . S
O11 C18 1.275 . S
Cd12 O11 2.300 . S
Cd12 O20 2.381 . S
Cd12 O21 2.378 . S
O13 Cd14 2.385 . S
O13 C18 1.255 . S
Cd14 O13 2.385 . S
Cd14 O15 2.317 . S
O15 Cd14 2.317 . S
O15 C16 1.232 . S
C16 O15 1.232 . S
C16 O17 1.218 . S
O17 C16 1.218 . S
C18 O11 1.275 . S
C18 O13 1.255 . S
C19 O20 1.258 . S
C19 O21 1.256 . S
O20 Cd12 2.381 . S
O20 C19 1.258 . S
O21 Cd12 2.378 . S
O21 C19 1.256 . S
O22 Cd23 2.300 . S
O22 C29 1.275 . S
Cd23 O22 2.300 . S
Cd23 O31 2.381 . S
Cd23 O32 2.378 . S
O24 Cd25 2.385 . S
O24 C29 1.255 . S
Cd25 O24 2.385 . S
Cd25 O26 2.317 . S
O26 Cd25 2.317 . S
O26 C27 1.232 . S
C27 O26 1.232 . S
C27 O28 1.218 . S
O28 C27 1.218 . S
C29 O22 1.275 . S
C29 O24 1.255 . S
C30 O31 1.258 . S
C30 O32 1.256 . S
O31 Cd23 2.381 . S
O31 C30 1.258 . S
O32 Cd23 2.378 . S
O32 C30 1.256 . S
O33 Cd34 2.300 . S
O33 C40 1.275 . S
Cd34 O33 2.300 . S
Cd34 O42 2.381 . S
Cd34 O43 2.378 . S
O35 Cd36 2.385 . S
O35 C40 1.255 . S
Cd36 O35 2.385 . S
Cd36 O37 2.317 . S
O37 Cd36 2.317 . S
O37 C38 1.232 . S
C38 O37 1.232 . S
C38 O39 1.218 . S
O39 C38 1.218 . S
C40 O33 1.275 . S
C40 O35 1.255 . S
C41 O42 1.258 . S
C41 O43 1.256 . S
O42 Cd34 2.381 . S
O42 C41 1.258 . S
O43 Cd34 2.378 . S
O43 C41 1.256 . S
O44 Cd45 2.300 . S
O44 C51 1.275 . S
Cd45 O44 2.300 . S
Cd45 O53 2.381 . S
Cd45 O54 2.378 . S
O46 Cd47 2.385 . S
O46 C51 1.255 . S
Cd47 O46 2.385 . S
Cd47 O48 2.317 . S
O48 Cd47 2.317 . S
O48 C49 1.232 . S
C49 O48 1.232 . S
C49 O50 1.218 . S
O50 C49 1.218 . S
C51 O44 1.275 . S
C51 O46 1.255 . S
C52 O53 1.258 . S
C52 O54 1.256 . S
O53 Cd45 2.381 . S
O53 C52 1.258 . S
O54 Cd45 2.378 . S
O54 C52 1.256 . S
O55 Cd56 2.300 . S
O55 C62 1.275 . S
Cd56 O55 2.300 . S
Cd56 O64 2.381 . S
Cd56 O65 2.378 . S
O57 Cd58 2.385 . S
O57 C62 1.255 . S
Cd58 O57 2.385 . S
Cd58 O59 2.317 . S
O59 Cd58 2.317 . S
O59 C60 1.232 . S
C60 O59 1.232 . S
C60 O61 1.218 . S
O61 C60 1.218 . S
C62 O55 1.275 . S
C62 O57 1.255 . S
C63 O64 1.258 . S
C63 O65 1.256 . S
O64 Cd56 2.381 . S
O64 C63 1.258 . S
O65 Cd56 2.378 . S
O65 C63 1.256 . S
O66 Cd67 2.300 . S
O66 C73 1.275 . S
Cd67 O66 2.300 . S
Cd67 O75 2.381 . S
Cd67 O76 2.378 . S
O68 Cd69 2.385 . S
O68 C73 1.255 . S
Cd69 O68 2.385 . S
Cd69 O70 2.317 . S
O70 Cd69 2.317 . S
O70 C71 1.232 . S
C71 O70 1.232 . S
C71 O72 1.218 . S
O72 C71 1.218 . S
C73 O66 1.275 . S
C73 O68 1.255 . S
C74 O75 1.258 . S
C74 O76 1.256 . S
O75 Cd67 2.381 . S
O75 C74 1.258 . S
O76 Cd67 2.378 . S
O76 C74 1.256 . S
O77 Cd78 2.300 . S
O77 C84 1.275 . S
Cd78 O77 2.300 . S
Cd78 O86 2.381 . S
Cd78 O87 2.378 . S
O79 Cd80 2.385 . S
O79 C84 1.255 . S
Cd80 O79 2.385 . S
Cd80 O81 2.317 . S
O81 Cd80 2.317 . S
O81 C82 1.232 . S
C82 O81 1.232 . S
C82 O83 1.218 . S
O83 C82 1.218 . S
C84 O77 1.275 . S
C84 O79 1.255 . S
C85 O86 1.258 . S
C85 O87 1.256 . S
O86 Cd78 2.381 . S
O86 C85 1.258 . S
O87 Cd78 2.378 . S
O87 C85 1.256 . S
H88 C94 0.930 . S
H89 C97 0.930 . S
H90 C98 0.930 . S
H91 C99 0.930 . S
H92 C102 0.930 . S
H93 C103 0.930 . S
C94 H88 0.930 . S
C94 C95 1.355 . S
C94 C96 1.415 . S
C95 C94 1.355 . S
C95 C97 1.419 1_556 S
C96 C94 1.415 . S
C96 C101 1.425 1_556 S
C96 C103 1.409 . S
C97 H89 0.930 . S
C97 C95 1.419 1_554 S
C97 C98 1.362 . S
C98 H90 0.930 . S
C98 C97 1.362 . S
C98 C101 1.409 . S
C99 H91 0.930 . S
C99 C100 1.355 . S
C99 C101 1.415 . S
C100 C99 1.355 . S
C100 C102 1.419 1_554 S
C101 C96 1.425 1_554 S
C101 C98 1.409 . S
C101 C99 1.415 . S
C102 H92 0.930 . S
C102 C100 1.419 1_556 S
C102 C103 1.362 . S
C103 H93 0.930 . S
C103 C96 1.409 . S
C103 C102 1.362 . S
H104 C110 0.930 . S
H105 C113 0.930 . S
H106 C114 0.930 . S
H107 C115 0.930 . S
H108 C118 0.930 . S
H109 C119 0.930 . S
C110 H104 0.930 . S
C110 C111 1.355 1_655 S
C110 C112 1.415 . S
C111 C110 1.355 1_455 S
C111 C113 1.419 . S
C112 C110 1.415 . S
C112 C117 1.425 . S
C112 C119 1.409 . S
C113 H105 0.930 . S
C113 C111 1.419 . S
C113 C114 1.362 1_455 S
C114 H106 0.930 . S
C114 C113 1.362 1_655 S
C114 C117 1.409 . S
C115 H107 0.930 . S
C115 C116 1.355 . S
C115 C117 1.415 . S
C116 C115 1.355 . S
C116 C118 1.419 . S
C117 C112 1.425 . S
C117 C114 1.409 . S
C117 C115 1.415 . S
C118 H108 0.930 . S
C118 C116 1.419 . S
C118 C119 1.362 . S
C119 H109 0.930 . S
C119 C112 1.409 . S
C119 C118 1.362 . S
H120 C126 0.930 . S
H121 C129 0.930 . S
H122 C130 0.930 . S
H123 C131 0.930 . S
H124 C134 0.930 . S
H125 C135 0.930 . S
C126 H120 0.930 . S
C126 C127 1.355 . S
C126 C128 1.415 . S
C127 C126 1.355 . S
C127 C129 1.419 . S
C128 C126 1.415 . S
C128 C133 1.425 . S
C128 C135 1.409 . S
C129 H121 0.930 . S
C129 C127 1.419 . S
C129 C130 1.362 . S
C130 H122 0.930 . S
C130 C129 1.362 . S
C130 C133 1.409 . S
C131 H123 0.930 . S
C131 C132 1.355 . S
C131 C133 1.415 . S
C132 C131 1.355 . S
C132 C134 1.419 . S
C133 C128 1.425 . S
C133 C130 1.409 . S
C133 C131 1.415 . S
C134 H124 0.930 . S
C134 C132 1.419 . S
C134 C135 1.362 . S
C135 H125 0.930 . S
C135 C128 1.409 . S
C135 C134 1.362 . S
H136 C142 0.930 1_455 S
H137 C145 0.930 . S
H138 C146 0.930 . S
H139 C147 0.930 . S
H140 C150 0.930 . S
H141 C151 0.930 . S
C142 H136 0.930 1_655 S
C142 C143 1.355 1_655 S
C142 C144 1.415 . S
C143 C142 1.355 1_455 S
C143 C145 1.419 1_455 S
C144 C142 1.415 . S
C144 C149 1.425 . S
C144 C151 1.409 . S
C145 H137 0.930 . S
C145 C143 1.419 1_655 S
C145 C146 1.362 . S
C146 H138 0.930 . S
C146 C145 1.362 . S
C146 C149 1.409 . S
C147 H139 0.930 . S
C147 C148 1.355 . S
C147 C149 1.415 . S
C148 C147 1.355 . S
C148 C150 1.419 . S
C149 C144 1.425 . S
C149 C146 1.409 . S
C149 C147 1.415 . S
C150 H140 0.930 . S
C150 C148 1.419 . S
C150 C151 1.362 . S
C151 H141 0.930 . S
C151 C144 1.409 . S
C151 C150 1.362 . S
H152 C158 0.930 . S
H153 C161 0.930 . S
H154 C162 0.930 . S
H155 C163 0.930 . S
H156 C166 0.930 . S
H157 C167 0.930 . S
C158 H152 0.930 . S
C158 C159 1.355 . S
C158 C160 1.415 . S
C159 C158 1.355 . S
C159 C161 1.419 . S
C160 C158 1.415 . S
C160 C165 1.425 . S
C160 C167 1.409 . S
C161 H153 0.930 . S
C161 C159 1.419 . S
C161 C162 1.362 . S
C162 H154 0.930 . S
C162 C161 1.362 . S
C162 C165 1.409 . S
C163 H155 0.930 . S
C163 C164 1.355 . S
C163 C165 1.415 . S
C164 C163 1.355 . S
C164 C166 1.419 . S
C165 C160 1.425 . S
C165 C162 1.409 . S
C165 C163 1.415 . S
C166 H156 0.930 . S
C166 C164 1.419 . S
C166 C167 1.362 . S
C167 H157 0.930 . S
C167 C160 1.409 . S
C167 C166 1.362 . S
H168 C174 0.930 . S
H169 C177 0.930 . S
H170 C178 0.930 . S
H171 C179 0.930 . S
H172 C182 0.930 . S
H173 C183 0.930 . S
C174 H168 0.930 . S
C174 C175 1.355 . S
C174 C176 1.415 . S
C175 C174 1.355 . S
C175 C177 1.419 . S
C176 C174 1.415 . S
C176 C181 1.425 . S
C176 C183 1.409 . S
C177 H169 0.930 . S
C177 C175 1.419 . S
C177 C178 1.362 . S
C178 H170 0.930 . S
C178 C177 1.362 . S
C178 C181 1.409 . S
C179 H171 0.930 . S
C179 C180 1.355 . S
C179 C181 1.415 . S
C180 C179 1.355 . S
C180 C182 1.419 . S
C181 C176 1.425 . S
C181 C178 1.409 . S
C181 C179 1.415 . S
C182 H172 0.930 . S
C182 C180 1.419 . S
C182 C183 1.362 . S
C183 H173 0.930 . S
C183 C176 1.409 . S
C183 C182 1.362 . S
H184 C190 0.930 . S
H185 C193 0.930 . S
H186 C194 0.930 . S
H187 C195 0.930 . S
H188 C198 0.930 . S
H189 C199 0.930 . S
C190 H184 0.930 . S
C190 C191 1.355 . S
C190 C192 1.415 . S
C191 C190 1.355 . S
C191 C193 1.419 . S
C192 C190 1.415 . S
C192 C197 1.425 1_565 S
C192 C199 1.409 1_565 S
C193 H185 0.930 . S
C193 C191 1.419 . S
C193 C194 1.362 . S
C194 H186 0.930 . S
C194 C193 1.362 . S
C194 C197 1.409 1_565 S
C195 H187 0.930 . S
C195 C196 1.355 . S
C195 C197 1.415 . S
C196 C195 1.355 . S
C196 C198 1.419 . S
C197 C192 1.425 1_545 S
C197 C194 1.409 1_545 S
C197 C195 1.415 . S
C198 H188 0.930 . S
C198 C196 1.419 . S
C198 C199 1.362 . S
C199 H189 0.930 . S
C199 C192 1.409 1_545 S
C199 C198 1.362 . S
H200 C206 0.928 . S
H201 C209 0.930 . S
H202 C210 0.923 1_556 S
H203 C211 0.930 . S
H204 C214 0.930 1_655 S
H205 C215 0.923 1_654 S
C206 H200 0.928 . S
C206 C207 1.355 . S
C206 C208 1.415 . S
C207 C206 1.355 . S
C207 C209 1.419 . S
C208 C206 1.415 . S
C208 C213 1.425 1_564 S
C208 C215 1.402 1_564 S
C209 H201 0.930 . S
C209 C207 1.419 . S
C209 C210 1.377 . S
C210 H202 0.923 1_554 S
C210 C209 1.377 . S
C210 C213 1.402 1_564 S
C211 H203 0.930 . S
C211 C212 1.355 . S
C211 C213 1.415 . S
C212 C211 1.355 . S
C212 C214 1.419 . S
C213 C208 1.425 1_546 S
C213 C210 1.402 1_546 S
C213 C211 1.415 . S
C214 H204 0.930 1_455 S
C214 C212 1.419 . S
C214 C215 1.376 . S
C215 H205 0.923 1_456 S
C215 C208 1.402 1_546 S
C215 C214 1.376 . S
H216 C222 0.930 . S
H217 C225 0.930 . S
H218 C226 0.930 . S
H219 C227 0.930 . S
H220 C230 0.930 . S
H221 C231 0.930 . S
C222 H216 0.930 . S
C222 C223 1.355 . S
C222 C224 1.415 . S
C223 C222 1.355 . S
C223 C225 1.419 . S
C224 C222 1.415 . S
C224 C229 1.425 . S
C224 C231 1.409 . S
C225 H217 0.930 . S
C225 C223 1.419 . S
C225 C226 1.362 . S
C226 H218 0.930 . S
C226 C225 1.362 . S
C226 C229 1.409 . S
C227 H219 0.930 . S
C227 C228 1.355 . S
C227 C229 1.415 . S
C228 C227 1.355 . S
C228 C230 1.419 . S
C229 C224 1.425 . S
C229 C226 1.409 . S
C229 C227 1.415 . S
C230 H220 0.930 . S
C230 C228 1.419 . S
C230 C231 1.362 . S
C231 H221 0.930 . S
C231 C224 1.409 . S
C231 C230 1.362 . S
H232 C238 0.930 . S
H233 C241 0.930 . S
H234 C242 0.930 . S
H235 C243 0.930 . S
H236 C246 0.930 . S
H237 C247 0.930 . S
C238 H232 0.930 . S
C238 C239 1.355 . S
C238 C240 1.415 . S
C239 C238 1.355 . S
C239 C241 1.419 . S
C240 C238 1.415 . S
C240 C245 1.425 . S
C240 C247 1.409 . S
C241 H233 0.930 . S
C241 C239 1.419 . S
C241 C242 1.362 . S
C242 H234 0.930 . S
C242 C241 1.362 . S
C242 C245 1.409 . S
C243 H235 0.930 . S
C243 C244 1.355 . S
C243 C245 1.415 . S
C244 C243 1.355 . S
C244 C246 1.419 . S
C245 C240 1.425 . S
C245 C242 1.409 . S
C245 C243 1.415 . S
C246 H236 0.930 . S
C246 C244 1.419 . S
C246 C247 1.362 . S
C247 H237 0.930 . S
C247 C240 1.409 . S
C247 C246 1.362 . S
H248 C254 0.930 . S
H249 C257 0.930 . S
H250 C258 0.930 . S
H251 C259 0.930 . S
H252 C262 0.930 . S
H253 C263 0.930 . S
C254 H248 0.930 . S
C254 C255 1.355 . S
C254 C256 1.415 . S
C255 C254 1.355 . S
C255 C257 1.419 . S
C256 C254 1.415 . S
C256 C261 1.425 . S
C256 C263 1.409 . S
C257 H249 0.930 . S
C257 C255 1.419 . S
C257 C258 1.362 . S
C258 H250 0.930 . S
C258 C257 1.362 . S
C258 C261 1.409 . S
C259 H251 0.930 . S
C259 C260 1.355 . S
C259 C261 1.415 . S
C260 C259 1.355 . S
C260 C262 1.419 . S
C261 C256 1.425 . S
C261 C258 1.409 . S
C261 C259 1.415 . S
C262 H252 0.930 . S
C262 C260 1.419 . S
C262 C263 1.362 . S
C263 H253 0.930 . S
C263 C256 1.409 . S
C263 C262 1.362 . S
H264 C270 0.930 . S
H265 C273 0.930 . S
H266 C274 0.930 . S
H267 C275 0.930 . S
H268 C278 0.930 . S
H269 C279 0.930 . S
C270 H264 0.930 . S
C270 C271 1.355 . S
C270 C272 1.415 . S
C271 C270 1.355 . S
C271 C273 1.419 . S
C272 C270 1.415 . S
C272 C277 1.425 . S
C272 C279 1.409 . S
C273 H265 0.930 . S
C273 C271 1.419 . S
C273 C274 1.362 . S
C274 H266 0.930 . S
C274 C273 1.362 . S
C274 C277 1.409 . S
C275 H267 0.930 . S
C275 C276 1.355 . S
C275 C277 1.415 . S
C276 C275 1.355 . S
C276 C278 1.419 . S
C277 C272 1.425 . S
C277 C274 1.409 . S
C277 C275 1.415 . S
C278 H268 0.930 . S
C278 C276 1.419 . S
C278 C279 1.362 . S
C279 H269 0.930 . S
C279 C272 1.409 . S
C279 C278 1.362 . S
C95 C49 1.271 . S
C100 C5 1.327 . S
C111 C60 1.282 . S
C116 C19 1.481 . S
C127 C30 1.481 . S
C132 C74 1.498 . S
C143 C38 1.280 . S
C148 C85 1.480 . S
C159 C82 1.276 . S
C164 C41 1.480 . S
C175 C63 1.466 . S
C180 C16 1.218 . S
C191 C71 1.218 . S
C196 C27 1.355 . S
C207 C8 1.476 . S
C212 C52 1.509 . S
C223 C62 1.487 . S
C228 C7 1.414 . S
C239 C73 1.427 . S
C244 C18 1.473 . S
C255 C29 1.412 . S
C260 C84 1.492 . S
C271 C51 1.436 . S
C276 C40 1.480 . S
