# Generated by pormake.
# Topology yfj, (5)-cn, num edge types: 1
# Building blocks:
#     Node 0, Type 0, BuildingBlock: BEQFEK_clean_sbu_0, # of connection points: 5
#     Node 1, Type 0, BuildingBlock: BEQFEK_clean_sbu_0, # of connection points: 5
#     Node 2, Type 0, BuildingBlock: BEQFEK_clean_sbu_0, # of connection points: 5
#     Node 3, Type 0, BuildingBlock: BEQFEK_clean_sbu_0, # of connection points: 5
#     Node 4, Type 0, BuildingBlock: BEQFEK_clean_sbu_0, # of connection points: 5
#     Node 5, Type 0, BuildingBlock: BEQFEK_clean_sbu_0, # of connection points: 5
#     Node 6, Type 0, BuildingBlock: BEQFEK_clean_sbu_0, # of connection points: 5
#     Node 7, Type 0, BuildingBlock: BEQFEK_clean_sbu_0, # of connection points: 5
#     Node 8, Type 0, BuildingBlock: BEQFEK_clean_sbu_0, # of connection points: 5
#     Node 9, Type 0, BuildingBlock: BEQFEK_clean_sbu_0, # of connection points: 5
#     Node 10, Type 0, BuildingBlock: BEQFEK_clean_sbu_0, # of connection points: 5
#     Node 11, Type 0, BuildingBlock: BEQFEK_clean_sbu_0, # of connection points: 5
#     Node 12, Type 0, BuildingBlock: BEQFEK_clean_sbu_0, # of connection points: 5
#     Node 13, Type 0, BuildingBlock: BEQFEK_clean_sbu_0, # of connection points: 5
#     Node 14, Type 0, BuildingBlock: BEQFEK_clean_sbu_0, # of connection points: 5
#     Node 15, Type 0, BuildingBlock: BEQFEK_clean_sbu_0, # of connection points: 5
#     Edge 16, Type (0, 0), BuildingBlock: XIVTED_clean_linker_0, # of connection points: 2
#     Edge 17, Type (0, 0), BuildingBlock: XIVTED_clean_linker_0, # of connection points: 2
#     Edge 18, Type (0, 0), BuildingBlock: XIVTED_clean_linker_0, # of connection points: 2
#     Edge 19, Type (0, 0), BuildingBlock: XIVTED_clean_linker_0, # of connection points: 2
#     Edge 20, Type (0, 0), BuildingBlock: XIVTED_clean_linker_0, # of connection points: 2
#     Edge 21, Type (0, 0), BuildingBlock: XIVTED_clean_linker_0, # of connection points: 2
#     Edge 22, Type (0, 0), BuildingBlock: XIVTED_clean_linker_0, # of connection points: 2
#     Edge 23, Type (0, 0), BuildingBlock: XIVTED_clean_linker_0, # of connection points: 2
#     Edge 24, Type (0, 0), BuildingBlock: XIVTED_clean_linker_0, # of connection points: 2
#     Edge 25, Type (0, 0), BuildingBlock: XIVTED_clean_linker_0, # of connection points: 2
#     Edge 26, Type (0, 0), BuildingBlock: XIVTED_clean_linker_0, # of connection points: 2
#     Edge 27, Type (0, 0), BuildingBlock: XIVTED_clean_linker_0, # of connection points: 2
#     Edge 28, Type (0, 0), BuildingBlock: XIVTED_clean_linker_0, # of connection points: 2
#     Edge 29, Type (0, 0), BuildingBlock: XIVTED_clean_linker_0, # of connection points: 2
#     Edge 30, Type (0, 0), BuildingBlock: XIVTED_clean_linker_0, # of connection points: 2
#     Edge 31, Type (0, 0), BuildingBlock: XIVTED_clean_linker_0, # of connection points: 2
#     Edge 32, Type (0, 0), BuildingBlock: XIVTED_clean_linker_0, # of connection points: 2
#     Edge 33, Type (0, 0), BuildingBlock: XIVTED_clean_linker_0, # of connection points: 2
#     Edge 34, Type (0, 0), BuildingBlock: XIVTED_clean_linker_0, # of connection points: 2
#     Edge 35, Type (0, 0), BuildingBlock: XIVTED_clean_linker_0, # of connection points: 2
#     Edge 36, Type (0, 0), BuildingBlock: XIVTED_clean_linker_0, # of connection points: 2
#     Edge 37, Type (0, 0), BuildingBlock: XIVTED_clean_linker_0, # of connection points: 2
#     Edge 38, Type (0, 0), BuildingBlock: XIVTED_clean_linker_0, # of connection points: 2
#     Edge 39, Type (0, 0), BuildingBlock: XIVTED_clean_linker_0, # of connection points: 2
#     Edge 40, Type (0, 0), BuildingBlock: XIVTED_clean_linker_0, # of connection points: 2
#     Edge 41, Type (0, 0), BuildingBlock: XIVTED_clean_linker_0, # of connection points: 2
#     Edge 42, Type (0, 0), BuildingBlock: XIVTED_clean_linker_0, # of connection points: 2
#     Edge 43, Type (0, 0), BuildingBlock: XIVTED_clean_linker_0, # of connection points: 2
#     Edge 44, Type (0, 0), BuildingBlock: XIVTED_clean_linker_0, # of connection points: 2
#     Edge 45, Type (0, 0), BuildingBlock: XIVTED_clean_linker_0, # of connection points: 2
#     Edge 46, Type (0, 0), BuildingBlock: XIVTED_clean_linker_0, # of connection points: 2
#     Edge 47, Type (0, 0), BuildingBlock: XIVTED_clean_linker_0, # of connection points: 2
#     Edge 48, Type (0, 0), BuildingBlock: XIVTED_clean_linker_0, # of connection points: 2
#     Edge 49, Type (0, 0), BuildingBlock: XIVTED_clean_linker_0, # of connection points: 2
#     Edge 50, Type (0, 0), BuildingBlock: XIVTED_clean_linker_0, # of connection points: 2
#     Edge 51, Type (0, 0), BuildingBlock: XIVTED_clean_linker_0, # of connection points: 2
#     Edge 52, Type (0, 0), BuildingBlock: XIVTED_clean_linker_0, # of connection points: 2
#     Edge 53, Type (0, 0), BuildingBlock: XIVTED_clean_linker_0, # of connection points: 2
#     Edge 54, Type (0, 0), BuildingBlock: XIVTED_clean_linker_0, # of connection points: 2
#     Edge 55, Type (0, 0), BuildingBlock: XIVTED_clean_linker_0, # of connection points: 2
# Relax obj value: 0.521
# Max RMSD: 0.226
# Mean RMSD: 0.226
data_MOF--net-yfj--node1-BEQFEK_clean_sbu_0--edge1-XIVTED_clean_linker_0
_symmetry_space_group_name_H-M    P1
_symmetry_Int_Tables_number       1
_symmetry_cell_setting            triclinic
loop_
_symmetry_equiv_pos_as_xyz
'x, y, z'
_cell_length_a     46.110451
_cell_length_b     46.105072
_cell_length_c     49.741643
_cell_angle_alpha  89.989839
_cell_angle_beta   90.007637
_cell_angle_gamma 89.966954
loop_
_atom_site_label
_atom_site_type_symbol
_atom_site_fract_x
_atom_site_fract_y
_atom_site_fract_z
_atom_type_partial_charge
Co0 Co 0.09077 0.13129 0.36191 0.0
Co1 Co 0.11996 0.14755 0.30599 0.0
C2 C 0.15132 0.11263 0.34694 0.0
O3 O 0.13009 0.11457 0.36311 0.0
O4 O 0.15038 0.12413 0.3237 0.0
C5 C 0.07866 0.09285 0.40524 0.0
O6 O 0.09563 0.07572 0.39116 0.0
C7 C 0.15302 0.14212 0.25503 0.0
C8 C 0.1298 0.17212 0.22797 0.0
C9 C 0.15231 0.1522 0.22866 0.0
N10 N 0.13151 0.1549 0.26907 0.0
N11 N 0.1179 0.17302 0.25275 0.0
C12 C 0.17526 0.12264 0.26744 0.0
H13 H 0.18465 0.13368 0.28521 0.0
H14 H 0.16472 0.10229 0.27423 0.0
H15 H 0.19329 0.11752 0.25352 0.0
C16 C 0.0499 0.10146 0.32614 0.0
N17 N 0.07191 0.12014 0.32991 0.0
N18 N 0.08453 0.12558 0.30668 0.0
C19 C 0.07145 0.10944 0.28754 0.0
C20 C 0.04897 0.09378 0.2992 0.0
C21 C 0.03346 0.08745 0.34859 0.0
H22 H 0.02897 0.10357 0.36459 0.0
H23 H 0.04676 0.06968 0.35721 0.0
H24 H 0.01268 0.07816 0.34144 0.0
O25 O 0.09443 0.1735 0.36413 0.0
O26 O 0.1174 0.18568 0.32642 0.0
H27 H 0.08113 0.12728 0.24897 0.0
H28 H 0.06994 0.08987 0.24794 0.0
C29 C 0.0826 0.10613 0.25946 0.0
H30 H 0.10572 0.09952 0.26004 0.0
H31 H 0.10016 0.18568 0.25842 0.0
O32 O 0.07161 0.11742 0.39553 0.0
C33 C 0.10637 0.19243 0.34919 0.0
Co34 Co 0.87451 0.59172 0.61644 0.0
Co35 Co 0.85186 0.61598 0.56063 0.0
C36 C 0.88717 0.65202 0.5989 0.0
O37 O 0.88943 0.63152 0.61579 0.0
O38 O 0.87313 0.64877 0.57712 0.0
C39 C 0.91415 0.58303 0.65975 0.0
O40 O 0.93 0.60103 0.64551 0.0
C41 C 0.86265 0.64466 0.50937 0.0
C42 C 0.82124 0.64065 0.48752 0.0
C43 C 0.84866 0.65296 0.48572 0.0
N44 N 0.84428 0.6288 0.52439 0.0
N45 N 0.81958 0.62629 0.51113 0.0
C46 C 0.89339 0.65048 0.51746 0.0
H47 H 0.90103 0.63386 0.53196 0.0
H48 H 0.90781 0.65064 0.49959 0.0
H49 H 0.89468 0.67187 0.52754 0.0
C50 C 0.90358 0.55004 0.58096 0.0
N51 N 0.88472 0.57189 0.58472 0.0
N52 N 0.87571 0.58162 0.56123 0.0
C53 C 0.889 0.56611 0.54172 0.0
C54 C 0.90711 0.54571 0.55359 0.0
C55 C 0.92081 0.53646 0.60315 0.0
H56 H 0.90613 0.5304 0.61989 0.0
H57 H 0.93669 0.55248 0.61086 0.0
H58 H 0.9327 0.51692 0.59627 0.0
O59 O 0.8322 0.59361 0.62014 0.0
O60 O 0.81453 0.61126 0.58184 0.0
H61 H 0.86342 0.57813 0.50738 0.0
H62 H 0.89159 0.55172 0.50061 0.0
C63 C 0.88592 0.5715 0.51221 0.0
H64 H 0.90097 0.58903 0.50608 0.0
H65 H 0.80138 0.61542 0.51845 0.0
O66 O 0.89018 0.5741 0.65011 0.0
C67 C 0.81087 0.60193 0.60583 0.0
Co68 Co 0.40946 0.36687 0.86316 0.0
Co69 Co 0.38019 0.35009 0.80743 0.0
C70 C 0.34833 0.38403 0.8487 0.0
O71 O 0.36973 0.38254 0.86473 0.0
O72 O 0.34934 0.3727 0.8254 0.0
C73 C 0.42097 0.40525 0.90676 0.0
O74 O 0.40339 0.42208 0.893 0.0
C75 C 0.34736 0.35551 0.75637 0.0
C76 C 0.37026 0.3249 0.72966 0.0
C77 C 0.34805 0.34516 0.73009 0.0
N78 N 0.36861 0.34254 0.77059 0.0
N79 N 0.38202 0.32406 0.7545 0.0
C80 C 0.32542 0.3755 0.76854 0.0
H81 H 0.31546 0.36461 0.78612 0.0
H82 H 0.33636 0.39552 0.77563 0.0
H83 H 0.30777 0.38117 0.75439 0.0
C84 C 0.44914 0.39801 0.8271 0.0
N85 N 0.4277 0.37871 0.83105 0.0
N86 N 0.41508 0.37287 0.8079 0.0
C87 C 0.42763 0.38925 0.78863 0.0
C88 C 0.44971 0.40559 0.80012 0.0
C89 C 0.46529 0.41259 0.84942 0.0
H90 H 0.47055 0.39661 0.86536 0.0
H91 H 0.45142 0.42981 0.85821 0.0
H92 H 0.48563 0.42267 0.84208 0.0
O93 O 0.40691 0.32454 0.86521 0.0
O94 O 0.38381 0.31199 0.82768 0.0
H95 H 0.41766 0.37078 0.75037 0.0
H96 H 0.42896 0.40814 0.74874 0.0
C97 C 0.41633 0.39211 0.76056 0.0
H98 H 0.39324 0.39883 0.76117 0.0
H99 H 0.39956 0.3112 0.76034 0.0
O100 O 0.42858 0.381 0.89672 0.0
C101 C 0.39525 0.30541 0.85031 0.0
Co102 Co 0.63264 0.90654 0.11624 0.0
Co103 Co 0.65053 0.88093 0.05951 0.0
C104 C 0.61537 0.84686 0.09881 0.0
O105 O 0.61601 0.86726 0.11593 0.0
O106 O 0.6278 0.84936 0.07614 0.0
C107 C 0.5937 0.91661 0.15963 0.0
O108 O 0.57693 0.9 0.14485 0.0
C109 C 0.6384 0.85283 0.00805 0.0
C110 C 0.67935 0.85749 0.98556 0.0
C111 C 0.65194 0.84511 0.98402 0.0
N112 N 0.65702 0.86845 0.02303 0.0
N113 N 0.68142 0.87134 0.00938 0.0
C114 C 0.60783 0.84675 0.0165 0.0
H115 H 0.6004 0.86301 0.03142 0.0
H116 H 0.5931 0.84694 0.99885 0.0
H117 H 0.6068 0.82512 0.02616 0.0
C118 C 0.60324 0.94933 0.08175 0.0
N119 N 0.62166 0.92695 0.08485 0.0
N120 N 0.62878 0.91655 0.06105 0.0
C121 C 0.61471 0.93212 0.04207 0.0
C122 C 0.59791 0.95321 0.05454 0.0
C123 C 0.5877 0.96366 0.10459 0.0
H124 H 0.60312 0.96797 0.1212 0.0
H125 H 0.57053 0.94891 0.1121 0.0
H126 H 0.57747 0.98435 0.09836 0.0
O127 O 0.67514 0.90289 0.11868 0.0
O128 O 0.68849 0.88294 0.07982 0.0
H129 H 0.60929 0.94554 1.0009 0.0
H130 H 0.5999 0.90849 0.00775 0.0
C131 C 0.61554 0.92597 0.01256 0.0
H132 H 0.63757 0.91897 0.00648 0.0
H133 H 0.69972 0.88218 0.01656 0.0
O134 O 0.61831 0.92424 0.15041 0.0
C135 C 0.6946 0.89244 0.1033 0.0
Co136 Co 0.09095 0.37414 0.8965 0.0
Co137 Co 0.11482 0.35153 0.95247 0.0
C138 C 0.15103 0.38702 0.91447 0.0
O139 O 0.13066 0.38926 0.89746 0.0
O140 O 0.14766 0.37291 0.9362 0.0
C141 C 0.08239 0.41392 0.85328 0.0
O142 O 0.09999 0.42989 0.86785 0.0
C143 C 0.14318 0.36234 1.00385 0.0
C144 C 0.13941 0.32078 0.02552 0.0
C145 C 0.15156 0.34828 0.02745 0.0
N146 N 0.12744 0.34394 0.98874 0.0
N147 N 0.12507 0.31916 1.00191 0.0
C148 C 0.14885 0.39313 0.99584 0.0
H149 H 0.13225 0.40071 0.9813 0.0
H150 H 0.14887 0.4075 0.01374 0.0
H151 H 0.17026 0.39456 0.98581 0.0
C152 C 0.04892 0.40312 0.93175 0.0
N153 N 0.07081 0.38427 0.9281 0.0
N154 N 0.08039 0.37527 0.95165 0.0
C155 C 0.06474 0.38855 0.97107 0.0
C156 C 0.04442 0.40666 0.95909 0.0
C157 C 0.03549 0.42036 0.90948 0.0
H158 H 0.0298 0.40574 0.89259 0.0
H159 H 0.05146 0.43646 0.90207 0.0
H160 H 0.01575 0.43202 0.9162 0.0
O161 O 0.0931 0.33183 0.8928 0.0
O162 O 0.11036 0.31421 0.93127 0.0
H163 H 0.07668 0.36301 1.00547 0.0
H164 H 0.05005 0.39101 0.01208 0.0
C165 C 0.06995 0.38548 1.00061 0.0
H166 H 0.08733 0.40064 0.00687 0.0
H167 H 0.11434 0.30092 0.99449 0.0
O168 O 0.07362 0.38978 0.86268 0.0
C169 C 0.10133 0.31051 0.90718 0.0
Co170 Co 0.6303 0.59039 0.15088 0.0
Co171 Co 0.64685 0.61924 0.20688 0.0
C172 C 0.61222 0.65105 0.16597 0.0
O173 O 0.6139 0.62984 0.14975 0.0
O174 O 0.62374 0.64993 0.18919 0.0
C175 C 0.59191 0.5786 0.10742 0.0
O176 O 0.57487 0.59574 0.12142 0.0
C177 C 0.64126 0.65193 0.25802 0.0
C178 C 0.6716 0.62889 0.28488 0.0
C179 C 0.65144 0.65119 0.28435 0.0
N180 N 0.65423 0.63065 0.24384 0.0
N181 N 0.67255 0.61714 0.26004 0.0
C182 C 0.62154 0.67405 0.24575 0.0
H183 H 0.63259 0.68386 0.22819 0.0
H184 H 0.60142 0.66329 0.23865 0.0
H185 H 0.61601 0.69179 0.25985 0.0
C186 C 0.6003 0.54955 0.18655 0.0
N187 N 0.61904 0.57152 0.18282 0.0
N188 N 0.62464 0.58395 0.2061 0.0
C189 C 0.60861 0.57076 0.22525 0.0
C190 C 0.59279 0.54843 0.21353 0.0
C191 C 0.58614 0.53332 0.16404 0.0
H192 H 0.60223 0.5287 0.14805 0.0
H193 H 0.56854 0.54685 0.15542 0.0
H194 H 0.5766 0.51261 0.1711 0.0
O195 O 0.67253 0.59376 0.14868 0.0
O196 O 0.68498 0.61644 0.18647 0.0
H197 H 0.5897 0.56866 0.2651 0.0
H198 H 0.59885 0.60465 0.2532 0.0
C199 C 0.60566 0.58157 0.25348 0.0
H200 H 0.62699 0.58018 0.26366 0.0
H201 H 0.68538 0.59957 0.25425 0.0
O202 O 0.61638 0.57136 0.11723 0.0
C203 C 0.69159 0.60547 0.16364 0.0
Co204 Co 0.40671 0.12978 0.39697 0.0
Co205 Co 0.381 0.14884 0.4533 0.0
C206 C 0.34695 0.11318 0.41416 0.0
O207 O 0.36746 0.11316 0.39716 0.0
O208 O 0.34943 0.12617 0.43657 0.0
C209 C 0.41719 0.09055 0.35389 0.0
O210 O 0.4005 0.07382 0.36863 0.0
C211 C 0.35259 0.13643 0.50443 0.0
C212 C 0.35599 0.17753 0.52689 0.0
C213 C 0.34418 0.14986 0.52831 0.0
N214 N 0.36806 0.15535 0.48963 0.0
N215 N 0.37021 0.17985 0.50327 0.0
C216 C 0.34728 0.10573 0.49595 0.0
H217 H 0.36395 0.09859 0.48129 0.0
H218 H 0.34744 0.09103 0.51363 0.0
H219 H 0.32587 0.10423 0.48595 0.0
C220 C 0.44921 0.10078 0.432 0.0
N221 N 0.42691 0.11923 0.42856 0.0
N222 N 0.41652 0.12687 0.45222 0.0
C223 C 0.43203 0.11313 0.47146 0.0
C224 C 0.45305 0.096 0.4593 0.0
C225 C 0.46351 0.08473 0.40944 0.0
H226 H 0.46806 0.09985 0.39264 0.0
H227 H 0.44862 0.0676 0.40209 0.0
H228 H 0.48406 0.07439 0.41589 0.0
O229 O 0.40307 0.17221 0.39409 0.0
O230 O 0.38344 0.18667 0.43275 0.0
H231 H 0.44563 0.10895 0.51268 0.0
H232 H 0.40872 0.09889 0.50618 0.0
C233 C 0.42594 0.11465 0.50096 0.0
H234 H 0.41868 0.13674 0.50658 0.0
H235 H 0.38074 0.19836 0.49619 0.0
O236 O 0.4247 0.11522 0.36305 0.0
C237 C 0.39292 0.19214 0.40912 0.0
Co238 Co 0.86456 0.9098 0.65062 0.0
Co239 Co 0.84839 0.8806 0.70653 0.0
C240 C 0.88258 0.84893 0.66541 0.0
O241 O 0.8807 0.87025 0.64931 0.0
O242 O 0.87135 0.8499 0.68875 0.0
C243 C 0.90331 0.92143 0.60752 0.0
O244 O 0.9203 0.90474 0.62203 0.0
C245 C 0.85415 0.84809 0.75772 0.0
C246 C 0.82338 0.87085 0.78437 0.0
C247 C 0.84381 0.84879 0.784 0.0
N248 N 0.841 0.86918 0.74343 0.0
N249 N 0.82243 0.88251 0.7595 0.0
C250 C 0.87431 0.82626 0.74562 0.0
H251 H 0.86345 0.81607 0.72814 0.0
H252 H 0.89419 0.83734 0.7384 0.0
H253 H 0.8802 0.80875 0.75986 0.0
C254 C 0.89517 0.95018 0.68644 0.0
N255 N 0.87619 0.92843 0.68262 0.0
N256 N 0.8707 0.91578 0.70583 0.0
C257 C 0.88704 0.92858 0.72498 0.0
C258 C 0.90295 0.95089 0.71336 0.0
C259 C 0.90931 0.96662 0.66406 0.0
H260 H 0.89331 0.97111 0.64795 0.0
H261 H 0.92717 0.95336 0.65557 0.0
H262 H 0.91852 0.98741 0.67132 0.0
O263 O 0.82226 0.90666 0.64858 0.0
O264 O 0.81024 0.88358 0.68627 0.0
H265 H 0.90642 0.93005 0.76466 0.0
H266 H 0.89722 0.89426 0.75233 0.0
C267 C 0.89033 0.9173 0.75301 0.0
H268 H 0.86913 0.91845 0.76343 0.0
H269 H 0.80942 0.89992 0.7536 0.0
O270 O 0.87865 0.92865 0.61691 0.0
C271 C 0.80338 0.89476 0.6636 0.0
Co272 Co 0.59149 0.6246 0.86592 0.0
Co273 Co 0.61661 0.64665 0.81026 0.0
C274 C 0.65191 0.6112 0.84898 0.0
O275 O 0.63117 0.60929 0.86564 0.0
O276 O 0.64911 0.62516 0.82709 0.0
C277 C 0.58212 0.58525 0.90932 0.0
O278 O 0.60013 0.56916 0.8953 0.0
C279 C 0.6457 0.63603 0.7591 0.0
C280 C 0.64055 0.67716 0.73696 0.0
C281 C 0.65344 0.64997 0.73527 0.0
N282 N 0.62956 0.6542 0.7741 0.0
N283 N 0.6264 0.67873 0.76067 0.0
C284 C 0.65218 0.60545 0.76731 0.0
H285 H 0.63577 0.59757 0.78188 0.0
H286 H 0.65257 0.59094 0.74951 0.0
H287 H 0.67365 0.60466 0.77732 0.0
C288 C 0.55013 0.59552 0.83018 0.0
N289 N 0.57194 0.61436 0.83408 0.0
N290 N 0.58208 0.62308 0.81065 0.0
C291 C 0.56689 0.60961 0.79104 0.0
C292 C 0.54626 0.59167 0.80278 0.0
C293 C 0.53631 0.57846 0.85235 0.0
H294 H 0.53022 0.59323 0.86901 0.0
H295 H 0.5522 0.56249 0.86019 0.0
H296 H 0.51676 0.56666 0.84541 0.0
O297 O 0.59364 0.6669 0.86947 0.0
O298 O 0.61192 0.68409 0.83125 0.0
H299 H 0.55349 0.60603 0.74969 0.0
H300 H 0.59086 0.59745 0.75606 0.0
C301 C 0.57289 0.61225 0.7616 0.0
H302 H 0.57918 0.63479 0.75656 0.0
H303 H 0.61511 0.69673 0.7679 0.0
O304 O 0.57346 0.60925 0.89951 0.0
C305 C 0.60232 0.68803 0.85511 0.0
Co306 Co 0.37073 0.09014 0.11277 0.0
Co307 Co 0.35361 0.11798 0.05654 0.0
C308 C 0.38796 0.15086 0.09672 0.0
O309 O 0.38659 0.12982 0.11316 0.0
O310 O 0.37631 0.14935 0.07358 0.0
C311 C 0.40983 0.07994 0.15593 0.0
O312 O 0.42648 0.09673 0.1412 0.0
C313 C 0.35753 0.15019 1.00503 0.0
C314 C 0.32845 0.12526 0.97846 0.0
C315 C 0.34742 0.14856 0.97872 0.0
N316 N 0.34569 0.12848 0.01947 0.0
N317 N 0.32811 0.11383 1.00344 0.0
C318 C 0.37609 0.17345 0.01699 0.0
H319 H 0.3647 0.18272 0.03462 0.0
H320 H 0.39688 0.16388 0.02391 0.0
H321 H 0.38043 0.19138 1.00273 0.0
C322 C 0.40177 0.04957 0.07758 0.0
N323 N 0.38229 0.07096 0.08107 0.0
N324 N 0.3766 0.08318 0.05769 0.0
C325 C 0.39338 0.07053 0.03878 0.0
C326 C 0.40974 0.04871 0.05072 0.0
C327 C 0.41622 0.03381 0.10022 0.0
H328 H 0.40032 0.02932 0.11639 0.0
H329 H 0.43384 0.04754 0.10848 0.0
H330 H 0.42583 0.01306 0.09328 0.0
O331 O 0.32844 0.0929 0.11518 0.0
O332 O 0.31566 0.11493 0.07716 0.0
H333 H 0.37581 0.07931 0.99991 0.0
H334 H 0.41368 0.06967 0.99947 0.0
C335 C 0.3967 0.08169 0.0107 0.0
H336 H 0.40231 0.10507 0.01127 0.0
H337 H 0.31621 0.09571 0.00945 0.0
O338 O 0.3853 0.07214 0.14666 0.0
C339 C 0.30921 0.1042 0.10012 0.0
Co340 Co 0.90489 0.87353 0.36627 0.0
Co341 Co 0.88007 0.85211 0.30997 0.0
C342 C 0.84441 0.88731 0.34829 0.0
O343 O 0.86504 0.88841 0.36516 0.0
O344 O 0.84713 0.87388 0.32607 0.0
C345 C 0.91303 0.91346 0.40939 0.0
O346 O 0.89546 0.92932 0.39467 0.0
C347 C 0.85116 0.85754 0.2571 0.0
C348 C 0.87108 0.82244 0.23326 0.0
C349 C 0.85131 0.84504 0.23164 0.0
N350 N 0.87028 0.84338 0.27286 0.0
N351 N 0.88208 0.82237 0.25843 0.0
C352 C 0.83096 0.88031 0.26745 0.0
H353 H 0.84348 0.89755 0.27781 0.0
H354 H 0.81717 0.89001 0.25164 0.0
H355 H 0.81638 0.86992 0.28227 0.0
C356 C 0.94636 0.90321 0.33111 0.0
N357 N 0.92478 0.88402 0.33474 0.0
N358 N 0.9142 0.87622 0.31121 0.0
C359 C 0.92843 0.89105 0.29185 0.0
C360 C 0.94934 0.9085 0.30382 0.0
C361 C 0.96055 0.91947 0.35358 0.0
H362 H 0.96576 0.90437 0.37024 0.0
H363 H 0.94529 0.93613 0.36124 0.0
H364 H 0.98069 0.93044 0.34689 0.0
O365 O 0.90309 0.83135 0.36979 0.0
O366 O 0.88451 0.81475 0.33149 0.0
H367 H 0.9207 0.86832 0.2551 0.0
H368 H 0.93537 0.90429 0.25059 0.0
C369 C 0.92028 0.89089 0.26275 0.0
H370 H 0.89794 0.89944 0.26045 0.0
H371 H 0.8977 0.80801 0.26573 0.0
O372 O 0.92195 0.8893 0.40014 0.0
C373 C 0.89418 0.81045 0.35529 0.0
Co374 Co 0.13173 0.40881 0.61236 0.0
Co375 Co 0.14856 0.37968 0.55658 0.0
C376 C 0.11413 0.34788 0.59745 0.0
O377 O 0.11573 0.36921 0.61355 0.0
O378 O 0.12557 0.3489 0.57419 0.0
C379 C 0.09261 0.42041 0.65523 0.0
O380 O 0.07582 0.40352 0.64074 0.0
C381 C 0.14354 0.34706 0.50537 0.0
C382 C 0.17439 0.36999 0.47894 0.0
C383 C 0.15416 0.34777 0.47919 0.0
N384 N 0.15636 0.36828 0.51973 0.0
N385 N 0.17497 0.38172 0.5038 0.0
C386 C 0.12346 0.32509 0.51734 0.0
H387 H 0.1034 0.33604 0.52435 0.0
H388 H 0.11788 0.30751 0.50309 0.0
H389 H 0.13422 0.31504 0.53495 0.0
C390 C 0.10144 0.44921 0.57632 0.0
N391 N 0.12038 0.42743 0.58027 0.0
N392 N 0.12609 0.4148 0.5571 0.0
C393 C 0.10991 0.42763 0.53784 0.0
C394 C 0.09392 0.44997 0.54934 0.0
C395 C 0.08714 0.46567 0.5986 0.0
H396 H 0.10306 0.47025 0.61476 0.0
H397 H 0.06931 0.45236 0.60707 0.0
H398 H 0.07785 0.4864 0.59126 0.0
O399 O 0.17399 0.40578 0.61478 0.0
O400 O 0.1865 0.38275 0.5772 0.0
H401 H 0.12812 0.41768 0.49947 0.0
H402 H 0.09074 0.42902 0.49807 0.0
C403 C 0.10686 0.41636 0.50978 0.0
H404 H 0.10017 0.39327 0.51041 0.0
H405 H 0.18777 0.39923 0.50977 0.0
O406 O 0.11728 0.42769 0.64591 0.0
C407 C 0.19308 0.39393 0.59994 0.0
Co408 Co 0.58821 0.86858 0.40097 0.0
Co409 Co 0.61651 0.85147 0.45705 0.0
C410 C 0.64902 0.88585 0.41657 0.0
O411 O 0.62772 0.8847 0.40041 0.0
O412 O 0.64787 0.87393 0.43962 0.0
C413 C 0.57786 0.90743 0.35763 0.0
O414 O 0.59448 0.92426 0.37234 0.0
C415 C 0.64836 0.85675 0.50861 0.0
C416 C 0.62498 0.82625 0.53504 0.0
C417 C 0.64726 0.8464 0.53486 0.0
N418 N 0.62731 0.84385 0.49411 0.0
N419 N 0.61357 0.82547 0.51005 0.0
C420 C 0.67065 0.87647 0.49668 0.0
H421 H 0.68122 0.865 0.47975 0.0
H422 H 0.65995 0.89624 0.48871 0.0
H423 H 0.68779 0.88259 0.51119 0.0
C424 C 0.54787 0.89958 0.43637 0.0
N425 N 0.56924 0.88011 0.43276 0.0
N426 N 0.58163 0.87443 0.45605 0.0
C427 C 0.56903 0.89114 0.47506 0.0
C428 C 0.54715 0.90751 0.46325 0.0
C429 C 0.53202 0.91409 0.41381 0.0
H430 H 0.5275 0.89823 0.3976 0.0
H431 H 0.54572 0.93174 0.40555 0.0
H432 H 0.5113 0.92367 0.42082 0.0
O433 O 0.59126 0.82627 0.39863 0.0
O434 O 0.61333 0.81345 0.43662 0.0
H435 H 0.57876 0.87322 0.51361 0.0
H436 H 0.56765 0.91068 0.51467 0.0
C437 C 0.58024 0.89437 0.50313 0.0
H438 H 0.60337 0.90093 0.5025 0.0
H439 H 0.59608 0.81268 0.50399 0.0
O440 O 0.57006 0.88295 0.36704 0.0
C441 C 0.60258 0.80702 0.41366 0.0
Co442 Co 0.124 0.09068 0.64699 0.0
Co443 Co 0.14587 0.11514 0.70295 0.0
C444 C 0.11078 0.15095 0.66426 0.0
O445 O 0.1088 0.1304 0.64741 0.0
O446 O 0.12461 0.14781 0.68617 0.0
C447 C 0.08488 0.08169 0.60337 0.0
O448 O 0.06875 0.09957 0.61749 0.0
C449 C 0.13442 0.14397 0.75395 0.0
C450 C 0.17556 0.14001 0.77627 0.0
C451 C 0.14811 0.15235 0.7777 0.0
N452 N 0.15298 0.12803 0.73919 0.0
N453 N 0.17751 0.12554 0.75274 0.0
C454 C 0.10378 0.14979 0.74553 0.0
H455 H 0.09626 0.13306 0.7311 0.0
H456 H 0.08918 0.15019 0.76327 0.0
H457 H 0.10263 0.17109 0.73526 0.0
C458 C 0.09469 0.049 0.6823 0.0
N459 N 0.11355 0.07084 0.67864 0.0
N460 N 0.12226 0.08068 0.70219 0.0
C461 C 0.10878 0.06523 0.72162 0.0
C462 C 0.09084 0.04478 0.70965 0.0
C463 C 0.0777 0.03536 0.65999 0.0
H464 H 0.09252 0.0294 0.64333 0.0
H465 H 0.06176 0.05132 0.65222 0.0
H466 H 0.06588 0.01576 0.66679 0.0
O467 O 0.16634 0.09286 0.64369 0.0
O468 O 0.18344 0.11059 0.68217 0.0
H469 H 0.1339 0.07738 0.7562 0.0
H470 H 0.10563 0.05107 0.76277 0.0
C471 C 0.11146 0.07078 0.75114 0.0
H472 H 0.09635 0.08837 0.75701 0.0
H473 H 0.19581 0.11462 0.74566 0.0
O474 O 0.10884 0.07293 0.6132 0.0
C475 C 0.18744 0.10131 0.65821 0.0
Co476 Co 0.9096 0.63276 0.90089 0.0
Co477 Co 0.87951 0.64873 0.95643 0.0
C478 C 0.8486 0.61443 0.91494 0.0
O479 O 0.87016 0.61642 0.89914 0.0
O480 O 0.84915 0.62562 0.93832 0.0
C481 C 0.92197 0.59421 0.85778 0.0
O482 O 0.90497 0.57717 0.8719 0.0
C483 C 0.84626 0.64339 0.00729 0.0
C484 C 0.86927 0.67368 0.03422 0.0
C485 C 0.84687 0.65365 0.03361 0.0
N486 N 0.86771 0.65619 0.99322 0.0
N487 N 0.88119 0.67448 0.00945 0.0
C488 C 0.82423 0.62364 0.99496 0.0
H489 H 0.81475 0.6345 0.97712 0.0
H490 H 0.83498 0.60337 0.98821 0.0
H491 H 0.80626 0.61841 0.0089 0.0
C492 C 0.94963 0.60228 0.93711 0.0
N493 N 0.92787 0.62123 0.93308 0.0
N494 N 0.91481 0.62653 0.95613 0.0
C495 C 0.92733 0.61007 0.97536 0.0
C496 C 0.94991 0.5943 0.96398 0.0
C497 C 0.96645 0.58832 0.91487 0.0
H498 H 0.97117 0.60444 0.89893 0.0
H499 H 0.95336 0.57051 0.90609 0.0
H500 H 0.98713 0.57905 0.92237 0.0
O501 O 0.90619 0.67502 0.89875 0.0
O502 O 0.88245 0.68686 0.93613 0.0
H503 H 0.91672 0.62748 0.01389 0.0
H504 H 0.92785 0.59003 0.01478 0.0
C505 C 0.9155 0.60646 1.00317 0.0
H506 H 0.89239 0.5999 1.00203 0.0
H507 H 0.89887 0.68718 1.00374 0.0
O508 O 0.92902 0.6188 0.86744 0.0
C509 C 0.89388 0.69381 0.9136 0.0
Co510 Co 0.37154 0.40772 0.14654 0.0
Co511 Co 0.3516 0.37994 0.20211 0.0
C512 C 0.38747 0.34699 0.16248 0.0
O513 O 0.38752 0.36825 0.14627 0.0
O514 O 0.37437 0.34842 0.18497 0.0
C515 C 0.41186 0.41879 0.10449 0.0
O516 O 0.42862 0.40283 0.11992 0.0
C517 C 0.35567 0.34737 0.2534 0.0
C518 C 0.32538 0.37096 0.27987 0.0
C519 C 0.34527 0.34841 0.27963 0.0
N520 N 0.34316 0.36874 0.23898 0.0
N521 N 0.32483 0.38256 0.25494 0.0
C522 C 0.37512 0.32486 0.24144 0.0
H523 H 0.39537 0.33526 0.2342 0.0
H524 H 0.38043 0.30722 0.25572 0.0
H525 H 0.36385 0.31496 0.22404 0.0
C526 C 0.40061 0.44851 0.18292 0.0
N527 N 0.3818 0.42672 0.17867 0.0
N528 N 0.37489 0.41465 0.20183 0.0
C529 C 0.39021 0.42789 0.22147 0.0
C530 C 0.40683 0.44988 0.21016 0.0
C531 C 0.41588 0.46445 0.16087 0.0
H532 H 0.40074 0.46849 0.14397 0.0
H533 H 0.43419 0.45103 0.15348 0.0
H534 H 0.42467 0.48544 0.16804 0.0
O535 O 0.32945 0.40493 0.14317 0.0
O536 O 0.314 0.38407 0.18087 0.0
H537 H 0.36982 0.41965 0.25922 0.0
H538 H 0.40725 0.43036 0.26202 0.0
C539 C 0.39157 0.41757 0.24996 0.0
H540 H 0.39788 0.39436 0.25034 0.0
H541 H 0.31233 0.40031 0.24896 0.0
O542 O 0.3868 0.42589 0.113 0.0
C543 C 0.30907 0.39466 0.15752 0.0
H544 H 0.04362 0.12238 0.44054 0.0
H545 H 0.11243 0.04521 0.56796 0.0
H546 H 0.09949 0.04746 0.43495 0.0
H547 H 0.04174 0.10637 0.57331 0.0
H548 H 0.10537 0.04299 0.51928 0.0
H549 H 0.03974 0.11446 0.48903 0.0
C550 C 0.05473 0.10402 0.44943 0.0
C551 C 0.07219 0.08578 0.43367 0.0
C552 C 0.09111 0.05657 0.53115 0.0
C553 C 0.06816 0.0768 0.48923 0.0
C554 C 0.09514 0.05784 0.55897 0.0
C555 C 0.07789 0.07628 0.57473 0.0
C556 C 0.06994 0.07415 0.51895 0.0
C557 C 0.05571 0.09201 0.56197 0.0
C558 C 0.05251 0.0995 0.47713 0.0
C559 C 0.08596 0.06223 0.44629 0.0
N560 N 0.05267 0.09093 0.53481 0.0
N561 N 0.084 0.05869 0.47336 0.0
H562 H 0.9567 0.6238 0.82226 0.0
H563 H 0.88725 0.54632 0.69537 0.0
H564 H 0.90122 0.54869 0.82825 0.0
H565 H 0.95739 0.60797 0.68947 0.0
H566 H 0.89479 0.54409 0.74398 0.0
H567 H 0.96026 0.61589 0.77376 0.0
C568 C 0.94562 0.6054 0.81346 0.0
C569 C 0.92834 0.58711 0.82934 0.0
C570 C 0.90882 0.55778 0.73201 0.0
C571 C 0.932 0.57814 0.77375 0.0
C572 C 0.90452 0.55906 0.70422 0.0
C573 C 0.92146 0.57763 0.68833 0.0
C574 C 0.92997 0.57549 0.74404 0.0
C575 C 0.94364 0.5935 0.70092 0.0
C576 C 0.94765 0.60088 0.78574 0.0
C577 C 0.91461 0.5635 0.81682 0.0
N578 N 0.94695 0.59241 0.72806 0.0
N579 N 0.91637 0.55996 0.78974 0.0
H580 H 0.46162 0.40207 0.0787 0.0
H581 H 0.45597 0.37536 0.9418 0.0
H582 H 0.3803 0.44613 0.06507 0.0
H583 H 0.40016 0.45037 0.93685 0.0
H584 H 0.45982 0.38263 0.99019 0.0
H585 H 0.4709 0.40287 0.03044 0.0
C586 C 0.44577 0.41211 0.06559 0.0
C587 C 0.41985 0.42355 0.07596 0.0
C588 C 0.44742 0.39807 0.97852 0.0
C589 C 0.42995 0.42374 0.02045 0.0
C590 C 0.44505 0.39376 0.9508 0.0
C591 C 0.42756 0.41214 0.93521 0.0
C592 C 0.43208 0.4209 0.9908 0.0
C593 C 0.41382 0.43557 0.94804 0.0
C594 C 0.45095 0.41223 0.03792 0.0
C595 C 0.40039 0.43669 0.05798 0.0
N596 N 0.41598 0.43897 0.97511 0.0
N597 N 0.40573 0.43618 0.03109 0.0
H598 H 0.54365 0.87875 0.32106 0.0
H599 H 0.62194 0.95128 0.19613 0.0
H600 H 0.60171 0.95173 0.32853 0.0
H601 H 0.54829 0.89416 0.18819 0.0
H602 H 0.61287 0.9541 0.24452 0.0
H603 H 0.54266 0.88616 0.27238 0.0
C604 C 0.55584 0.8966 0.31253 0.0
C605 C 0.57304 0.91443 0.3289 0.0
C606 C 0.59844 0.94127 0.23212 0.0
C607 C 0.57235 0.92278 0.27314 0.0
C608 C 0.60363 0.93966 0.20448 0.0
C609 C 0.58606 0.9222 0.18809 0.0
C610 C 0.57577 0.92501 0.24352 0.0
C611 C 0.56254 0.90774 0.20003 0.0
C612 C 0.55527 0.90083 0.28471 0.0
C613 C 0.58828 0.93731 0.31671 0.0
N614 N 0.55835 0.90912 0.22705 0.0
N615 N 0.58793 0.94055 0.28956 0.0
H616 H 0.04633 0.39976 0.68381 0.0
H617 H 0.10642 0.45836 0.82441 0.0
H618 H 0.12189 0.45437 0.69162 0.0
H619 H 0.04717 0.38636 0.8168 0.0
H620 H 0.10411 0.46557 0.77581 0.0
H621 H 0.03852 0.40338 0.73226 0.0
C622 C 0.06104 0.41292 0.69561 0.0
C623 C 0.08506 0.42647 0.68364 0.0
C624 C 0.09134 0.44843 0.78483 0.0
C625 C 0.07621 0.4306 0.73919 0.0
C626 C 0.09253 0.44434 0.81261 0.0
C627 C 0.07726 0.42143 0.82471 0.0
C628 C 0.07462 0.4296 0.76898 0.0
C629 C 0.05954 0.40409 0.80833 0.0
C630 C 0.0566 0.41486 0.72331 0.0
C631 C 0.10327 0.44331 0.70001 0.0
N632 N 0.05891 0.40837 0.78128 0.0
N633 N 0.09861 0.44469 0.72699 0.0
H634 H 0.54536 0.6127 0.94453 0.0
H635 H 0.62136 0.54332 0.07228 0.0
H636 H 0.60646 0.54194 0.93944 0.0
H637 H 0.54682 0.59973 0.07751 0.0
H638 H 0.6137 0.53949 0.02376 0.0
H639 H 0.54271 0.6055 0.99316 0.0
C640 C 0.55788 0.59537 0.95356 0.0
C641 C 0.57643 0.57815 0.93789 0.0
C642 C 0.59876 0.55237 0.03558 0.0
C643 C 0.57382 0.57003 0.99363 0.0
C644 C 0.60313 0.55456 0.06331 0.0
C645 C 0.58494 0.57216 0.07897 0.0
C646 C 0.57626 0.56819 0.02337 0.0
C647 C 0.56156 0.58608 0.06624 0.0
C648 C 0.55637 0.59126 0.98136 0.0
C649 C 0.59202 0.5559 0.95071 0.0
N650 N 0.55816 0.58416 0.03915 0.0
N651 N 0.59071 0.55278 0.97785 0.0
H652 H 0.39557 0.04456 0.32553 0.0
H653 H 0.45507 0.10268 0.18458 0.0
H654 H 0.45137 0.1192 0.31726 0.0
H655 H 0.38127 0.04575 0.19259 0.0
H656 H 0.46236 0.10035 0.23317 0.0
H657 H 0.39884 0.03652 0.2771 0.0
C658 C 0.40891 0.05901 0.31363 0.0
C659 C 0.42291 0.08286 0.32547 0.0
C660 C 0.4448 0.08808 0.22424 0.0
C661 C 0.42665 0.07372 0.26995 0.0
C662 C 0.44066 0.08928 0.19646 0.0
C663 C 0.41725 0.07469 0.18449 0.0
C664 C 0.42551 0.07203 0.24019 0.0
C665 C 0.3994 0.05759 0.20097 0.0
C666 C 0.41064 0.05444 0.28594 0.0
C667 C 0.43996 0.10073 0.30897 0.0
N668 N 0.40376 0.05693 0.22801 0.0
N669 N 0.44116 0.09594 0.28201 0.0
H670 H 0.8885 0.95781 0.43804 0.0
H671 H 0.94967 0.90095 0.57891 0.0
H672 H 0.9485 0.8864 0.44603 0.0
H673 H 0.87349 0.95477 0.57096 0.0
H674 H 0.9572 0.90418 0.53041 0.0
H675 H 0.89081 0.96537 0.4866 0.0
C676 C 0.90255 0.944 0.44991 0.0
C677 C 0.91805 0.92116 0.43794 0.0
C678 C 0.93904 0.91557 0.53933 0.0
C679 C 0.92068 0.92974 0.49361 0.0
C680 C 0.93476 0.91386 0.56706 0.0
C681 C 0.91065 0.9273 0.57903 0.0
C682 C 0.9192 0.93098 0.5234 0.0
C683 C 0.89219 0.94381 0.56259 0.0
C684 C 0.90373 0.94828 0.47767 0.0
C685 C 0.93595 0.90407 0.45441 0.0
N686 N 0.8967 0.94498 0.53558 0.0
N687 N 0.93658 0.90855 0.48143 0.0
H688 H 0.27115 0.14946 0.09289 0.0
H689 H 0.16969 0.09742 0.21468 0.0
H690 H 0.28134 0.06839 0.13509 0.0
H691 H 0.17548 0.18657 0.18915 0.0
H692 H 0.20325 0.08372 0.17882 0.0
H693 H 0.22843 0.16024 0.12078 0.0
C694 C 0.26391 0.13357 0.10745 0.0
C695 C 0.27986 0.10803 0.11175 0.0
C696 C 0.1972 0.1063 0.18101 0.0
C697 C 0.23136 0.12032 0.14383 0.0
C698 C 0.17828 0.11417 0.20166 0.0
C699 C 0.17079 0.14336 0.20561 0.0
C700 C 0.20847 0.12768 0.16381 0.0
C701 C 0.18124 0.1639 0.18715 0.0
C702 C 0.23974 0.13987 0.12356 0.0
C703 C 0.26976 0.0884 0.13119 0.0
N704 N 0.19982 0.15574 0.16721 0.0
N705 N 0.24633 0.09502 0.14657 0.0
H706 H 0.88688 0.69892 0.48938 0.0
H707 H 0.85611 0.76534 0.34517 0.0
H708 H 0.8317 0.65448 0.43274 0.0
H709 H 0.92756 0.79028 0.39614 0.0
H710 H 0.84723 0.72339 0.37477 0.0
H711 H 0.9019 0.73176 0.45429 0.0
C712 C 0.87855 0.69528 0.46941 0.0
C713 C 0.85878 0.6729 0.464 0.0
C714 C 0.86516 0.7378 0.37911 0.0
C715 C 0.87487 0.71218 0.42342 0.0
C716 C 0.87038 0.76159 0.36211 0.0
C717 C 0.89241 0.78154 0.36835 0.0
C718 C 0.88203 0.73416 0.40246 0.0
C719 C 0.91007 0.77574 0.39072 0.0
C720 C 0.88689 0.71454 0.44926 0.0
C721 C 0.84729 0.67114 0.43781 0.0
N722 N 0.90428 0.75291 0.40705 0.0
N723 N 0.85537 0.69059 0.41851 0.0
H724 H 0.33169 0.40006 0.71544 0.0
H725 H 0.23051 0.34805 0.59346 0.0
H726 H 0.32462 0.31073 0.6908 0.0
H727 H 0.22136 0.42994 0.63446 0.0
H728 H 0.27285 0.33702 0.62176 0.0
H729 H 0.29873 0.4139 0.67912 0.0
C730 C 0.32293 0.38331 0.70253 0.0
C731 C 0.32987 0.35405 0.70685 0.0
C732 C 0.26186 0.35762 0.62418 0.0
C733 C 0.29293 0.36986 0.66453 0.0
C734 C 0.23792 0.36406 0.60783 0.0
C735 C 0.22234 0.38991 0.6117 0.0
C736 C 0.2704 0.37733 0.64425 0.0
C737 C 0.23264 0.40969 0.63091 0.0
C738 C 0.30437 0.39125 0.68161 0.0
C739 C 0.31927 0.33346 0.68851 0.0
N740 N 0.25584 0.40292 0.64654 0.0
N741 N 0.30105 0.34169 0.66832 0.0
H742 H 0.66787 0.84518 0.93083 0.0
H743 H 0.5687 0.70776 0.89597 0.0
H744 H 0.61381 0.79902 0.98721 0.0
H745 H 0.64018 0.73334 0.84531 0.0
H746 H 0.57795 0.7494 0.92473 0.0
H747 H 0.65255 0.81115 0.89548 0.0
C748 C 0.65243 0.82831 0.93575 0.0
C749 C 0.64146 0.82574 0.96205 0.0
C750 C 0.59147 0.74619 0.90717 0.0
C751 C 0.62383 0.78686 0.92169 0.0
C752 C 0.58609 0.72248 0.89061 0.0
C753 C 0.60391 0.71682 0.86834 0.0
C754 C 0.61503 0.76451 0.9017 0.0
C755 C 0.62592 0.73687 0.86228 0.0
C756 C 0.64371 0.80894 0.91555 0.0
C757 C 0.62186 0.80312 0.96724 0.0
N758 N 0.63117 0.75967 0.87912 0.0
N759 N 0.61371 0.78474 0.94732 0.0
H760 H 0.19714 0.38701 0.02401 0.0
H761 H 0.26523 0.35495 0.16705 0.0
H762 H 0.15345 0.33074 0.08025 0.0
H763 H 0.28741 0.42867 0.11776 0.0
H764 H 0.22322 0.34572 0.13762 0.0
H765 H 0.22989 0.402 0.05914 0.0
C766 C 0.19363 0.37843 0.0439 0.0
C767 C 0.17147 0.35837 0.04919 0.0
C768 C 0.23703 0.36421 0.13363 0.0
C769 C 0.2107 0.37444 0.08981 0.0
C770 C 0.26086 0.36962 0.15053 0.0
C771 C 0.28007 0.39242 0.14468 0.0
C772 C 0.23263 0.38167 0.11076 0.0
C773 C 0.27347 0.41059 0.12285 0.0
C774 C 0.21284 0.38676 0.06408 0.0
C775 C 0.16992 0.34658 0.07528 0.0
N776 N 0.25065 0.4046 0.10658 0.0
N777 N 0.18934 0.35465 0.0946 0.0
H778 H 0.64804 0.76919 0.42073 0.0
H779 H 0.59654 0.66787 0.29865 0.0
H780 H 0.56686 0.77907 0.37867 0.0
H781 H 0.68572 0.67455 0.32382 0.0
H782 H 0.58264 0.70112 0.3347 0.0
H783 H 0.65906 0.72668 0.39264 0.0
C784 C 0.63217 0.76191 0.40616 0.0
C785 C 0.60653 0.77772 0.40195 0.0
C786 C 0.60526 0.69533 0.33239 0.0
C787 C 0.6191 0.72946 0.36966 0.0
C788 C 0.61325 0.67659 0.31163 0.0
C789 C 0.64249 0.66946 0.30752 0.0
C790 C 0.6266 0.70675 0.34955 0.0
C791 C 0.66301 0.68004 0.32594 0.0
C792 C 0.63861 0.73787 0.38994 0.0
C793 C 0.58694 0.76759 0.3825 0.0
N794 N 0.65474 0.69843 0.34599 0.0
N795 N 0.5937 0.74428 0.36701 0.0
H796 H 0.23299 0.13851 0.66915 0.0
H797 H 0.29866 0.11124 0.52405 0.0
H798 H 0.20699 0.06901 0.61634 0.0
H799 H 0.34283 0.16557 0.58159 0.0
H800 H 0.26607 0.09519 0.55893 0.0
H801 H 0.27487 0.14787 0.63966 0.0
C802 C 0.23649 0.12475 0.6518 0.0
C803 C 0.21626 0.10316 0.64503 0.0
C804 C 0.28319 0.11023 0.5642 0.0
C805 C 0.26359 0.11409 0.61107 0.0
C806 C 0.3023 0.11916 0.54417 0.0
C807 C 0.3245 0.13903 0.54988 0.0
C808 C 0.28552 0.12173 0.59024 0.0
C809 C 0.32628 0.14993 0.57628 0.0
C810 C 0.26025 0.13025 0.63487 0.0
C811 C 0.22175 0.08615 0.62218 0.0
N812 N 0.30697 0.14128 0.59546 0.0
N813 N 0.24457 0.09221 0.60594 0.0
H814 H 0.8475 0.73061 0.92008 0.0
H815 H 0.89884 0.8331 0.7988 0.0
H816 H 0.92976 0.72284 0.87948 0.0
H817 H 0.80952 0.82492 0.82316 0.0
H818 H 0.91294 0.8002 0.83508 0.0
H819 H 0.83611 0.77302 0.89201 0.0
C820 C 0.86351 0.73834 0.90585 0.0
C821 C 0.88958 0.72312 0.90202 0.0
C822 C 0.89024 0.80558 0.83254 0.0
C823 C 0.87658 0.77127 0.86972 0.0
C824 C 0.88215 0.82412 0.81166 0.0
C825 C 0.85283 0.83072 0.80726 0.0
C826 C 0.86892 0.79383 0.84952 0.0
C827 C 0.83231 0.81983 0.82551 0.0
C828 C 0.85686 0.76232 0.88963 0.0
C829 C 0.90935 0.73383 0.88299 0.0
N830 N 0.84068 0.80163 0.84568 0.0
N831 N 0.90237 0.75706 0.86747 0.0
H832 H 0.65331 0.66619 0.68213 0.0
H833 H 0.79179 0.56842 0.64701 0.0
H834 H 0.70017 0.61261 0.73847 0.0
H835 H 0.76512 0.63939 0.59617 0.0
H836 H 0.75029 0.57745 0.676 0.0
H837 H 0.68756 0.65135 0.64677 0.0
C838 C 0.67041 0.65097 0.68704 0.0
C839 C 0.67309 0.63995 0.71332 0.0
C840 C 0.75323 0.59091 0.65837 0.0
C841 C 0.71223 0.62288 0.67294 0.0
C842 C 0.77687 0.58564 0.64166 0.0
C843 C 0.78216 0.60338 0.61926 0.0
C844 C 0.73461 0.61427 0.65289 0.0
C845 C 0.76186 0.62519 0.61324 0.0
C846 C 0.68989 0.64252 0.66683 0.0
C847 C 0.696 0.62066 0.7185 0.0
N848 N 0.73913 0.63032 0.6302 0.0
N849 N 0.71449 0.61276 0.69857 0.0
H850 H 0.31194 0.17012 0.93928 0.0
H851 H 0.43285 0.27692 0.88311 0.0
H852 H 0.40144 0.16746 0.96411 0.0
H853 H 0.34929 0.2679 0.84515 0.0
H854 H 0.42258 0.23427 0.91051 0.0
H855 H 0.32534 0.20334 0.90268 0.0
C856 C 0.33441 0.17648 0.93697 0.0
C857 C 0.35544 0.16694 0.95536 0.0
C858 C 0.40662 0.2412 0.89588 0.0
C859 C 0.37099 0.20465 0.91352 0.0
C860 C 0.41256 0.26551 0.88013 0.0
C861 C 0.39189 0.27598 0.86184 0.0
C862 C 0.3795 0.2275 0.89384 0.0
C863 C 0.36591 0.26042 0.85887 0.0
C864 C 0.34206 0.19538 0.91607 0.0
C865 C 0.38432 0.17533 0.95113 0.0
N866 N 0.36021 0.23725 0.87509 0.0
N867 N 0.39117 0.19395 0.93092 0.0
H868 H 0.84114 0.89933 0.2112 0.0
H869 H 0.73139 0.84629 0.09642 0.0
H870 H 0.82276 0.80903 0.19673 0.0
H871 H 0.72348 0.92808 0.13778 0.0
H872 H 0.7744 0.83503 0.12384 0.0
H873 H 0.80732 0.91247 0.1752 0.0
C874 C 0.8298 0.88227 0.20055 0.0
C875 C 0.83365 0.85311 0.20779 0.0
C876 C 0.76352 0.85566 0.12649 0.0
C877 C 0.79598 0.86792 0.16577 0.0
C878 C 0.73922 0.86223 0.11068 0.0
C879 C 0.72388 0.88815 0.11489 0.0
C880 C 0.77278 0.87542 0.14621 0.0
C881 C 0.73464 0.90783 0.13396 0.0
C882 C 0.81076 0.88977 0.17985 0.0
C883 C 0.81985 0.83181 0.19219 0.0
N884 N 0.75835 0.90103 0.14895 0.0
N885 N 0.80135 0.83963 0.17207 0.0
H886 H 0.15274 0.22932 0.34317 0.0
H887 H 0.09944 0.33163 0.46391 0.0
H888 H 0.07007 0.22131 0.38297 0.0
H889 H 0.18907 0.32404 0.44039 0.0
H890 H 0.08599 0.2986 0.42755 0.0
H891 H 0.16365 0.27176 0.37139 0.0
C892 C 0.13655 0.23701 0.35725 0.0
C893 C 0.11049 0.22173 0.36081 0.0
C894 C 0.10862 0.30413 0.43029 0.0
C895 C 0.12293 0.26988 0.39326 0.0
C896 C 0.11634 0.32275 0.45123 0.0
C897 C 0.14555 0.32957 0.45588 0.0
C898 C 0.13022 0.2925 0.41352 0.0
C899 C 0.16636 0.31879 0.43784 0.0
C900 C 0.14292 0.261 0.37355 0.0
C901 C 0.09047 0.23236 0.37966 0.0
N902 N 0.15835 0.3005 0.41762 0.0
N903 N 0.09717 0.25559 0.39525 0.0
H904 H 0.66306 0.90124 0.54998 0.0
H905 H 0.76617 0.84881 0.67044 0.0
H906 H 0.67103 0.81173 0.57386 0.0
H907 H 0.77454 0.93081 0.62948 0.0
H908 H 0.72339 0.83784 0.64271 0.0
H909 H 0.69626 0.91496 0.58613 0.0
C910 C 0.67202 0.88443 0.56273 0.0
C911 C 0.6653 0.85517 0.55822 0.0
C912 C 0.73431 0.85845 0.64018 0.0
C913 C 0.70257 0.87081 0.6003 0.0
C914 C 0.75851 0.86485 0.6562 0.0
C915 C 0.77398 0.89072 0.65217 0.0
C916 C 0.72541 0.87823 0.62029 0.0
C917 C 0.76335 0.91055 0.63315 0.0
C918 C 0.69075 0.8923 0.58353 0.0
C919 C 0.67621 0.83448 0.57631 0.0
N920 N 0.7399 0.90382 0.61784 0.0
N921 N 0.6946 0.84263 0.59639 0.0
H922 H 0.13772 0.26429 0.91835 0.0
H923 H 0.11065 0.19878 0.77297 0.0
H924 H 0.06961 0.29181 0.86462 0.0
H925 H 0.1637 0.15379 0.83103 0.0
H926 H 0.09516 0.23201 0.80757 0.0
H927 H 0.14679 0.22231 0.88887 0.0
C928 C 0.12421 0.26113 0.90078 0.0
C929 C 0.10309 0.28179 0.89378 0.0
C930 C 0.10979 0.21459 0.81302 0.0
C931 C 0.11368 0.23433 0.85984 0.0
C932 C 0.1184 0.19513 0.79315 0.0
C933 C 0.13771 0.17249 0.7991 0.0
C934 C 0.12108 0.21216 0.83914 0.0
C935 C 0.14847 0.17066 0.82555 0.0
C936 C 0.12954 0.23731 0.88386 0.0
C937 C 0.08639 0.27672 0.87065 0.0
N938 N 0.14013 0.19029 0.84458 0.0
N939 N 0.09227 0.25381 0.85445 0.0
H940 H 0.82981 0.59887 0.04793 0.0
H941 H 0.72892 0.65144 0.16997 0.0
H942 H 0.82373 0.68814 0.07301 0.0
H943 H 0.71999 0.56929 0.1294 0.0
H944 H 0.77127 0.66234 0.14164 0.0
H945 H 0.79677 0.58522 0.0842 0.0
C946 C 0.82124 0.61566 0.06092 0.0
C947 C 0.82851 0.64486 0.05675 0.0
C948 C 0.76032 0.64171 0.13932 0.0
C949 C 0.79145 0.62924 0.09903 0.0
C950 C 0.73639 0.63534 0.15569 0.0
C951 C 0.72088 0.60946 0.15195 0.0
C952 C 0.76891 0.62189 0.11935 0.0
C953 C 0.73123 0.58957 0.13285 0.0
C954 C 0.80263 0.60781 0.08182 0.0
C955 C 0.81813 0.66546 0.07519 0.0
N956 N 0.75441 0.59627 0.11719 0.0
N957 N 0.79984 0.65733 0.09536 0.0
H958 H 0.40001 0.33172 0.29429 0.0
H959 H 0.34854 0.23108 0.41684 0.0
H960 H 0.31068 0.32521 0.31903 0.0
H961 H 0.42796 0.21858 0.37257 0.0
H962 H 0.33778 0.2737 0.38872 0.0
H963 H 0.41362 0.29819 0.33023 0.0
C964 C 0.3832 0.32301 0.30718 0.0
C965 C 0.354 0.33023 0.30295 0.0
C966 C 0.35779 0.26188 0.38554 0.0
C967 C 0.36957 0.29262 0.34483 0.0
C968 C 0.36409 0.23779 0.40175 0.0
C969 C 0.38915 0.22125 0.39697 0.0
C970 C 0.37692 0.26966 0.36474 0.0
C971 C 0.40834 0.23064 0.37686 0.0
C972 C 0.39102 0.30409 0.32785 0.0
C973 C 0.33336 0.31964 0.32125 0.0
N974 N 0.40177 0.25407 0.36145 0.0
N975 N 0.34147 0.30108 0.34124 0.0
H976 H 0.07507 0.04322 0.28524 0.0
H977 H 0.92477 0.95704 0.2829 0.0
H978 H 0.99134 0.08419 0.29093 0.0
H979 H 0.00749 0.91752 0.29952 0.0
H980 H 0.94951 0.00286 0.27268 0.0
H981 H 0.05115 0.99651 0.27731 0.0
C982 C 0.05162 0.04241 0.28404 0.0
C983 C 0.03501 0.06734 0.2887 0.0
C984 C 0.96231 0.98401 0.27801 0.0
C985 C 0.00757 0.01423 0.28016 0.0
C986 C 0.94824 0.9579 0.28363 0.0
C987 C 0.96427 0.93375 0.29207 0.0
C988 C 0.99257 0.98582 0.28088 0.0
C989 C 0.99453 0.93583 0.29307 0.0
C990 C 0.03799 0.0158 0.27973 0.0
C991 C 0.00476 0.0653 0.28737 0.0
N992 N 0.00774 0.96156 0.28782 0.0
N993 N 0.99194 0.03909 0.28348 0.0
H994 H 0.08431 0.50727 0.53953 0.0
H995 H 0.91536 0.48738 0.55011 0.0
H996 H 0.04324 0.42349 0.53655 0.0
H997 H 0.95493 0.56929 0.53065 0.0
H998 H 0.9612 0.46284 0.53977 0.0
H999 H 0.0372 0.53024 0.53101 0.0
C1000 C 0.06539 0.49378 0.53635 0.0
C1001 C 0.0674 0.46361 0.53865 0.0
C1002 C 0.95974 0.4861 0.53708 0.0
C1003 C 0.01352 0.48945 0.52967 0.0
C1004 C 0.93357 0.5 0.54286 0.0
C1005 C 0.93163 0.53023 0.54117 0.0
C1006 C 0.9842 0.50272 0.53016 0.0
C1007 C 0.95573 0.54586 0.53205 0.0
C1008 C 0.03853 0.5068 0.53156 0.0
C1009 C 0.0424 0.44689 0.53475 0.0
N1010 N 0.98125 0.53199 0.52736 0.0
N1011 N 0.01635 0.46005 0.53089 0.0
H1012 H 0.42227 0.45543 0.78616 0.0
H1013 H 0.57071 0.54441 0.77956 0.0
H1014 H 0.50698 0.41641 0.79108 0.0
H1015 H 0.48805 0.58225 0.79946 0.0
H1016 H 0.54635 0.49835 0.76958 0.0
H1017 H 0.44501 0.50254 0.77714 0.0
C1018 C 0.44567 0.45675 0.78459 0.0
C1019 C 0.46292 0.43227 0.78935 0.0
C1020 C 0.53346 0.51691 0.77553 0.0
C1021 C 0.489 0.48578 0.77945 0.0
C1022 C 0.54729 0.54318 0.78097 0.0
C1023 C 0.53122 0.56687 0.79038 0.0
C1024 C 0.50339 0.5145 0.77951 0.0
C1025 C 0.50105 0.5643 0.79225 0.0
C1026 C 0.45862 0.48357 0.77963 0.0
C1027 C 0.49308 0.43494 0.78748 0.0
N1028 N 0.48808 0.53841 0.78718 0.0
N1029 N 0.50524 0.46134 0.78292 0.0
H1030 H 0.45981 0.07651 0.03826 0.0
H1031 H 0.55019 0.92862 0.03228 0.0
H1032 H 0.42127 0.99155 0.04181 0.0
H1033 H 0.58743 0.01145 0.05248 0.0
H1034 H 0.50388 0.95266 0.02267 0.0
H1035 H 0.50737 0.05408 0.03057 0.0
C1036 C 0.46136 0.05313 0.03665 0.0
C1037 C 0.43684 0.03571 0.04058 0.0
C1038 C 0.52233 0.96567 0.02868 0.0
C1039 C 0.49088 0.00998 0.03226 0.0
C1040 C 0.54874 0.95201 0.03394 0.0
C1041 C 0.5724 0.96821 0.04324 0.0
C1042 C 0.51968 0.9957 0.03273 0.0
C1043 C 0.56951 0.99834 0.0454 0.0
C1044 C 0.48844 0.04035 0.03248 0.0
C1045 C 0.43981 0.00557 0.03877 0.0
N1046 N 0.54348 0.01114 0.04047 0.0
N1047 N 0.46644 0.99359 0.03496 0.0
H1048 H 0.98611 0.41533 0.96205 0.0
H1049 H 0.00702 0.58417 0.97434 0.0
H1050 H 0.06808 0.45424 0.9824 0.0
H1051 H 0.92297 0.54357 0.97573 0.0
H1052 H 0.02957 0.53679 0.98256 0.0
H1053 H 0.96178 0.46127 0.97241 0.0
C1054 C 0.99879 0.43341 0.96948 0.0
C1055 C 0.02897 0.43126 0.97143 0.0
C1056 C 0.00615 0.53828 0.98172 0.0
C1057 C 0.00172 0.48395 0.98249 0.0
C1058 C 0.99337 0.56529 0.9771 0.0
C1059 C 0.96325 0.56752 0.97445 0.0
C1060 C 0.98862 0.51335 0.98309 0.0
C1061 C 0.94633 0.54257 0.97782 0.0
C1062 C 0.985 0.45964 0.97528 0.0
C1063 C 0.04468 0.4552 0.9808 0.0
N1064 N 0.95927 0.51639 0.98153 0.0
N1065 N 0.03093 0.48078 0.98552 0.0
H1066 H 0.4562 0.42417 0.22799 0.0
H1067 H 0.54259 0.57427 0.22901 0.0
H1068 H 0.41609 0.50773 0.21717 0.0
H1069 H 0.58322 0.49063 0.2207 0.0
H1070 H 0.49602 0.55025 0.2373 0.0
H1071 H 0.50237 0.44827 0.23794 0.0
C1072 C 0.45704 0.44765 0.22848 0.0
C1073 C 0.43256 0.46413 0.22177 0.0
C1074 C 0.51521 0.53711 0.23421 0.0
C1075 C 0.48509 0.49177 0.23258 0.0
C1076 C 0.54175 0.5508 0.2297 0.0
C1077 C 0.56653 0.53426 0.22418 0.0
C1078 C 0.51355 0.50671 0.23309 0.0
C1079 C 0.56444 0.50399 0.22489 0.0
C1080 C 0.48335 0.46138 0.23394 0.0
C1081 C 0.43464 0.49441 0.22227 0.0
N1082 N 0.53829 0.49113 0.22896 0.0
N1083 N 0.46058 0.50731 0.22728 0.0
H1084 H 0.57528 0.95729 0.47612 0.0
H1085 H 0.42807 0.04868 0.48189 0.0
H1086 H 0.49004 0.91942 0.47204 0.0
H1087 H 0.51121 0.0853 0.46186 0.0
H1088 H 0.45176 0.00224 0.49172 0.0
H1089 H 0.55319 0.00495 0.48408 0.0
C1090 C 0.5519 0.959 0.47766 0.0
C1091 C 0.53431 0.93465 0.47348 0.0
C1092 C 0.46492 0.02059 0.48572 0.0
C1093 C 0.50898 0.98881 0.48215 0.0
C1094 C 0.45146 0.04708 0.48035 0.0
C1095 C 0.46784 0.07059 0.471 0.0
C1096 C 0.49494 0.01773 0.48174 0.0
C1097 C 0.49796 0.06751 0.46898 0.0
C1098 C 0.53932 0.98614 0.482 0.0
C1099 C 0.5042 0.93783 0.47524 0.0
N1100 N 0.51057 0.0414 0.47401 0.0
N1101 N 0.49241 0.96452 0.47922 0.0
H1102 H 0.08201 0.98653 0.71318 0.0
H1103 H 0.9131 0.00818 0.7228 0.0
H1104 H 0.04301 0.0689 0.73211 0.0
H1105 H 0.95343 0.924 0.72615 0.0
H1106 H 0.9604 0.0307 0.73135 0.0
H1107 H 0.03586 0.9625 0.72322 0.0
C1108 C 0.06386 0.99936 0.72024 0.0
C1109 C 0.06605 0.02957 0.72187 0.0
C1110 C 0.95886 0.00727 0.73085 0.0
C1111 C 0.01314 0.00264 0.73255 0.0
C1112 C 0.9319 0.99451 0.72604 0.0
C1113 C 0.92963 0.96435 0.72386 0.0
C1114 C 0.9837 0.98967 0.7329 0.0
C1115 C 0.95447 0.94739 0.72786 0.0
C1116 C 0.03751 0.98575 0.72585 0.0
C1117 C 0.04201 0.04548 0.73076 0.0
N1118 N 0.98062 0.9603 0.73176 0.0
N1119 N 0.01633 0.03188 0.73529 0.0
H1120 H 0.29804 0.10801 0.44506 0.0
H1121 H 0.19916 0.09699 0.31746 0.0
H1122 H 0.33132 0.08986 0.36566 0.0
H1123 H 0.16587 0.09856 0.39857 0.0
H1124 H 0.24712 0.0855 0.33509 0.0
H1125 H 0.24957 0.09572 0.4295 0.0
C1126 C 0.29528 0.10092 0.42449 0.0
C1127 C 0.3187 0.10061 0.4065 0.0
C1128 C 0.22923 0.08786 0.34902 0.0
C1129 C 0.26311 0.08699 0.38839 0.0
C1130 C 0.20184 0.0946 0.33894 0.0
C1131 C 0.1787 0.09974 0.35659 0.0
C1132 C 0.23351 0.08665 0.37696 0.0
C1133 C 0.18324 0.0954 0.38421 0.0
C1134 C 0.26753 0.09388 0.41558 0.0
C1135 C 0.3138 0.09094 0.38012 0.0
N1136 N 0.21027 0.08972 0.39359 0.0
N1137 N 0.28643 0.0851 0.3717 0.0
H1138 H 0.88795 0.70115 0.5679 0.0
H1139 H 0.89876 0.80118 0.69474 0.0
H1140 H 0.91154 0.66906 0.64652 0.0
H1141 H 0.89563 0.8343 0.61359 0.0
H1142 H 0.91076 0.75335 0.67704 0.0
H1143 H 0.89806 0.7503 0.58308 0.0
C1144 C 0.89578 0.70435 0.5882 0.0
C1145 C 0.89831 0.68099 0.60611 0.0
C1146 C 0.90794 0.77119 0.66312 0.0
C1147 C 0.90945 0.73729 0.62379 0.0
C1148 C 0.9009 0.79848 0.67323 0.0
C1149 C 0.89528 0.82154 0.6556 0.0
C1150 C 0.90896 0.7669 0.63517 0.0
C1151 C 0.89922 0.81699 0.62793 0.0
C1152 C 0.90157 0.73247 0.59688 0.0
C1153 C 0.90879 0.68647 0.63213 0.0
N1154 N 0.90523 0.79004 0.61853 0.0
N1155 N 0.91341 0.71414 0.64036 0.0
H1156 H 0.20001 0.3876 0.94568 0.0
H1157 H 0.30061 0.40021 0.81935 0.0
H1158 H 0.16823 0.41194 0.86715 0.0
H1159 H 0.33338 0.39635 0.90059 0.0
H1160 H 0.25264 0.41174 0.83697 0.0
H1161 H 0.2492 0.39802 0.93079 0.0
C1162 C 0.20328 0.39565 0.92547 0.0
C1163 C 0.18 0.39831 0.90748 0.0
C1164 C 0.27043 0.40886 0.85094 0.0
C1165 C 0.23635 0.4098 0.89014 0.0
C1166 C 0.2978 0.40207 0.84087 0.0
C1167 C 0.32081 0.39641 0.85853 0.0
C1168 C 0.26601 0.40955 0.87888 0.0
C1169 C 0.31612 0.40001 0.88622 0.0
C1170 C 0.23143 0.40162 0.91696 0.0
C1171 C 0.18558 0.40908 0.88158 0.0
N1172 N 0.28909 0.40576 0.89557 0.0
N1173 N 0.21327 0.41388 0.87351 0.0
H1174 H 0.6091 0.7981 0.06787 0.0
H1175 H 0.59708 0.69901 0.19551 0.0
H1176 H 0.59258 0.83139 0.14757 0.0
H1177 H 0.5985 0.66593 0.11434 0.0
H1178 H 0.58638 0.74719 0.17796 0.0
H1179 H 0.59626 0.74976 0.08346 0.0
C1180 C 0.60227 0.79537 0.08852 0.0
C1181 C 0.60257 0.81874 0.10657 0.0
C1182 C 0.58854 0.7293 0.164 0.0
C1183 C 0.58829 0.76331 0.1247 0.0
C1184 C 0.59483 0.70179 0.17403 0.0
C1185 C 0.59971 0.67862 0.15634 0.0
C1186 C 0.5875 0.73368 0.13606 0.0
C1187 C 0.59553 0.6833 0.12872 0.0
C1188 C 0.59491 0.76771 0.09744 0.0
C1189 C 0.5932 0.81391 0.13305 0.0
N1190 N 0.59029 0.71044 0.11939 0.0
N1191 N 0.58701 0.78661 0.14147 0.0
H1192 H 0.66746 0.58516 0.89632 0.0
H1193 H 0.83548 0.59992 0.86306 0.0
H1194 H 0.7019 0.61095 0.81916 0.0
H1195 H 0.79976 0.59958 0.94331 0.0
H1196 H 0.78767 0.58792 0.84529 0.0
H1197 H 0.71666 0.57466 0.91157 0.0
C1198 C 0.68527 0.58812 0.88239 0.0
C1199 C 0.68061 0.59961 0.85659 0.0
C1200 C 0.79044 0.59004 0.86682 0.0
C1201 C 0.73682 0.58757 0.87398 0.0
C1202 C 0.81772 0.59685 0.87703 0.0
C1203 C 0.82141 0.60168 0.9047 0.0
C1204 C 0.76677 0.58793 0.88441 0.0
C1205 C 0.79772 0.59693 0.92181 0.0
C1206 C 0.71333 0.58212 0.89115 0.0
C1207 C 0.70449 0.60258 0.83934 0.0
N1208 N 0.77126 0.59073 0.91135 0.0
N1209 N 0.73165 0.597 0.84849 0.0
H1210 H 0.40625 0.16493 0.14739 0.0
H1211 H 0.40707 0.33278 0.11229 0.0
H1212 H 0.39911 0.19985 0.0671 0.0
H1213 H 0.39759 0.29789 0.19235 0.0
H1214 H 0.41919 0.28442 0.096 0.0
H1215 H 0.4181 0.21324 0.16396 0.0
C1216 C 0.4076 0.18263 0.13313 0.0
C1217 C 0.40067 0.17852 0.1059 0.0
C1218 C 0.41486 0.28745 0.11721 0.0
C1219 C 0.41418 0.2338 0.12482 0.0
C1220 C 0.40795 0.31507 0.12658 0.0
C1221 C 0.40026 0.31922 0.15363 0.0
C1222 C 0.41408 0.26387 0.13503 0.0
C1223 C 0.40235 0.29555 0.17122 0.0
C1224 C 0.41436 0.21022 0.14265 0.0
C1225 C 0.40335 0.20217 0.08835 0.0
N1226 N 0.40859 0.26876 0.16153 0.0
N1227 N 0.40942 0.22893 0.09819 0.0
H1228 H 0.79587 0.89431 0.31699 0.0
H1229 H 0.6597 0.91232 0.36825 0.0
H1230 H 0.82793 0.90799 0.3975 0.0
H1231 H 0.70108 0.88925 0.44314 0.0
H1232 H 0.70693 0.92497 0.34979 0.0
H1233 H 0.74724 0.90502 0.33241 0.0
C1234 C 0.7928 0.9001 0.3378 0.0
C1235 C 0.81595 0.89939 0.35605 0.0
C1236 C 0.70572 0.91703 0.37022 0.0
C1237 C 0.76013 0.91253 0.374 0.0
C1238 C 0.67868 0.91004 0.38091 0.0
C1239 C 0.67651 0.89866 0.40704 0.0
C1240 C 0.73074 0.91225 0.3857 0.0
C1241 C 0.70173 0.89709 0.42271 0.0
C1242 C 0.7649 0.90667 0.34663 0.0
C1243 C 0.81066 0.90774 0.38275 0.0
N1244 N 0.72787 0.90333 0.41164 0.0
N1245 N 0.7832 0.91334 0.39105 0.0
H1246 H 0.10955 0.20019 0.6951 0.0
H1247 H 0.09867 0.29995 0.56806 0.0
H1248 H 0.08665 0.16775 0.61644 0.0
H1249 H 0.10072 0.3332 0.64917 0.0
H1250 H 0.08706 0.25203 0.58574 0.0
H1251 H 0.09915 0.24923 0.67975 0.0
C1252 C 0.10181 0.20328 0.67475 0.0
C1253 C 0.09954 0.17986 0.65689 0.0
C1254 C 0.08955 0.26991 0.59966 0.0
C1255 C 0.08809 0.23605 0.63903 0.0
C1256 C 0.09637 0.29726 0.58955 0.0
C1257 C 0.10158 0.3204 0.60719 0.0
C1258 C 0.08835 0.26565 0.6276 0.0
C1259 C 0.09745 0.31585 0.63483 0.0
C1260 C 0.09585 0.23135 0.66598 0.0
C1261 C 0.08919 0.18521 0.6308 0.0
N1262 N 0.09167 0.28885 0.64423 0.0
N1263 N 0.08441 0.21283 0.62248 0.0
loop_
_geom_bond_atom_site_label_1
_geom_bond_atom_site_label_2
_geom_bond_distance
_geom_bond_site_symmetry_2
_ccdc_geom_bond_type
Co0 O3 1.970 . S
Co0 N17 1.989 . S
Co0 O25 1.967 . S
Co0 O32 1.920 . S
Co1 O4 1.966 . S
Co1 N10 2.022 . S
Co1 N18 1.993 . S
Co1 O26 1.941 . S
C2 O3 1.258 . S
C2 O4 1.263 . S
O3 Co0 1.970 . S
O3 C2 1.258 . S
O4 Co1 1.966 . S
O4 C2 1.263 . S
C5 O6 1.235 . S
C5 O32 1.289 . S
O6 C5 1.235 . S
C7 C9 1.400 . S
C7 N10 1.351 . S
C7 C12 1.501 . S
C8 C9 1.387 . S
C8 N11 1.341 . S
C9 C7 1.400 . S
C9 C8 1.387 . S
N10 Co1 2.022 . S
N10 C7 1.351 . S
N10 N11 1.365 . S
N11 C8 1.341 . S
N11 N10 1.365 . S
N11 H31 0.862 . S
C12 C7 1.501 . S
C12 H13 0.961 . S
C12 H14 0.961 . S
C12 H15 0.960 . S
H13 C12 0.961 . S
H14 C12 0.961 . S
H15 C12 0.960 . S
C16 N17 1.342 . S
C16 C20 1.401 . S
C16 C21 1.499 . S
N17 Co0 1.989 . S
N17 C16 1.342 . S
N17 N18 1.388 . S
N18 Co1 1.993 . S
N18 N17 1.388 . S
N18 C19 1.346 . S
C19 N18 1.346 . S
C19 C20 1.396 . S
C19 C29 1.510 . S
C20 C16 1.401 . S
C20 C19 1.396 . S
C21 C16 1.499 . S
C21 H22 0.959 . S
C21 H23 0.960 . S
C21 H24 0.961 . S
H22 C21 0.959 . S
H23 C21 0.960 . S
H24 C21 0.961 . S
O25 Co0 1.967 . S
O25 C33 1.258 . S
O26 Co1 1.941 . S
O26 C33 1.266 . S
H27 C29 0.959 . S
H28 C29 0.961 . S
C29 C19 1.510 . S
C29 H27 0.959 . S
C29 H28 0.961 . S
C29 H30 0.960 . S
H30 C29 0.960 . S
H31 N11 0.862 . S
O32 Co0 1.920 . S
O32 C5 1.289 . S
C33 O25 1.258 . S
C33 O26 1.266 . S
Co34 O37 1.970 . S
Co34 N51 1.989 . S
Co34 O59 1.967 . S
Co34 O66 1.920 . S
Co35 O38 1.966 . S
Co35 N44 2.022 . S
Co35 N52 1.993 . S
Co35 O60 1.941 . S
C36 O37 1.258 . S
C36 O38 1.263 . S
O37 Co34 1.970 . S
O37 C36 1.258 . S
O38 Co35 1.966 . S
O38 C36 1.263 . S
C39 O40 1.235 . S
C39 O66 1.289 . S
O40 C39 1.235 . S
C41 C43 1.400 . S
C41 N44 1.351 . S
C41 C46 1.501 . S
C42 C43 1.387 . S
C42 N45 1.341 . S
C43 C41 1.400 . S
C43 C42 1.387 . S
N44 Co35 2.022 . S
N44 C41 1.351 . S
N44 N45 1.365 . S
N45 C42 1.341 . S
N45 N44 1.365 . S
N45 H65 0.862 . S
C46 C41 1.501 . S
C46 H47 0.961 . S
C46 H48 0.961 . S
C46 H49 0.960 . S
H47 C46 0.961 . S
H48 C46 0.961 . S
H49 C46 0.960 . S
C50 N51 1.342 . S
C50 C54 1.401 . S
C50 C55 1.499 . S
N51 Co34 1.989 . S
N51 C50 1.342 . S
N51 N52 1.388 . S
N52 Co35 1.993 . S
N52 N51 1.388 . S
N52 C53 1.346 . S
C53 N52 1.346 . S
C53 C54 1.396 . S
C53 C63 1.510 . S
C54 C50 1.401 . S
C54 C53 1.396 . S
C55 C50 1.499 . S
C55 H56 0.959 . S
C55 H57 0.960 . S
C55 H58 0.961 . S
H56 C55 0.959 . S
H57 C55 0.960 . S
H58 C55 0.961 . S
O59 Co34 1.967 . S
O59 C67 1.258 . S
O60 Co35 1.941 . S
O60 C67 1.266 . S
H61 C63 0.959 . S
H62 C63 0.961 . S
C63 C53 1.510 . S
C63 H61 0.959 . S
C63 H62 0.961 . S
C63 H64 0.960 . S
H64 C63 0.960 . S
H65 N45 0.862 . S
O66 Co34 1.920 . S
O66 C39 1.289 . S
C67 O59 1.258 . S
C67 O60 1.266 . S
Co68 O71 1.970 . S
Co68 N85 1.989 . S
Co68 O93 1.967 . S
Co68 O100 1.920 . S
Co69 O72 1.966 . S
Co69 N78 2.022 . S
Co69 N86 1.993 . S
Co69 O94 1.941 . S
C70 O71 1.258 . S
C70 O72 1.263 . S
O71 Co68 1.970 . S
O71 C70 1.258 . S
O72 Co69 1.966 . S
O72 C70 1.263 . S
C73 O74 1.235 . S
C73 O100 1.289 . S
O74 C73 1.235 . S
C75 C77 1.400 . S
C75 N78 1.351 . S
C75 C80 1.501 . S
C76 C77 1.387 . S
C76 N79 1.341 . S
C77 C75 1.400 . S
C77 C76 1.387 . S
N78 Co69 2.022 . S
N78 C75 1.351 . S
N78 N79 1.365 . S
N79 C76 1.341 . S
N79 N78 1.365 . S
N79 H99 0.862 . S
C80 C75 1.501 . S
C80 H81 0.961 . S
C80 H82 0.961 . S
C80 H83 0.960 . S
H81 C80 0.961 . S
H82 C80 0.961 . S
H83 C80 0.960 . S
C84 N85 1.342 . S
C84 C88 1.401 . S
C84 C89 1.499 . S
N85 Co68 1.989 . S
N85 C84 1.342 . S
N85 N86 1.388 . S
N86 Co69 1.993 . S
N86 N85 1.388 . S
N86 C87 1.346 . S
C87 N86 1.346 . S
C87 C88 1.396 . S
C87 C97 1.510 . S
C88 C84 1.401 . S
C88 C87 1.396 . S
C89 C84 1.499 . S
C89 H90 0.959 . S
C89 H91 0.960 . S
C89 H92 0.961 . S
H90 C89 0.959 . S
H91 C89 0.960 . S
H92 C89 0.961 . S
O93 Co68 1.967 . S
O93 C101 1.258 . S
O94 Co69 1.941 . S
O94 C101 1.266 . S
H95 C97 0.959 . S
H96 C97 0.961 . S
C97 C87 1.510 . S
C97 H95 0.959 . S
C97 H96 0.961 . S
C97 H98 0.960 . S
H98 C97 0.960 . S
H99 N79 0.862 . S
O100 Co68 1.920 . S
O100 C73 1.289 . S
C101 O93 1.258 . S
C101 O94 1.266 . S
Co102 O105 1.970 . S
Co102 N119 1.989 . S
Co102 O127 1.967 . S
Co102 O134 1.920 . S
Co103 O106 1.966 . S
Co103 N112 2.022 . S
Co103 N120 1.993 . S
Co103 O128 1.941 . S
C104 O105 1.258 . S
C104 O106 1.263 . S
O105 Co102 1.970 . S
O105 C104 1.258 . S
O106 Co103 1.966 . S
O106 C104 1.263 . S
C107 O108 1.235 . S
C107 O134 1.289 . S
O108 C107 1.235 . S
C109 C111 1.401 1_554 S
C109 N112 1.351 . S
C109 C114 1.500 . S
C110 C111 1.387 . S
C110 N113 1.338 . S
C111 C109 1.401 1_556 S
C111 C110 1.387 . S
N112 Co103 2.022 . S
N112 C109 1.351 . S
N112 N113 1.367 1_554 S
N113 C110 1.338 . S
N113 N112 1.367 1_556 S
N113 H133 0.863 1_556 S
C114 C109 1.500 . S
C114 H115 0.961 . S
C114 H116 0.961 . S
C114 H117 0.960 . S
H115 C114 0.961 . S
H116 C114 0.961 . S
H117 C114 0.960 . S
C118 N119 1.342 . S
C118 C122 1.401 . S
C118 C123 1.499 . S
N119 Co102 1.989 . S
N119 C118 1.342 . S
N119 N120 1.388 . S
N120 Co103 1.993 . S
N120 N119 1.388 . S
N120 C121 1.346 . S
C121 N120 1.346 . S
C121 C122 1.396 . S
C121 C131 1.510 . S
C122 C118 1.401 . S
C122 C121 1.396 . S
C123 C118 1.499 . S
C123 H124 0.959 . S
C123 H125 0.960 . S
C123 H126 0.961 . S
H124 C123 0.959 . S
H125 C123 0.960 . S
H126 C123 0.961 . S
O127 Co102 1.967 . S
O127 C135 1.258 . S
O128 Co103 1.941 . S
O128 C135 1.266 . S
H129 C131 0.959 . S
H130 C131 0.961 . S
C131 C121 1.510 . S
C131 H129 0.959 . S
C131 H130 0.961 . S
C131 H132 0.960 . S
H132 C131 0.960 . S
H133 N113 0.863 1_554 S
O134 Co102 1.920 . S
O134 C107 1.289 . S
C135 O127 1.258 . S
C135 O128 1.266 . S
Co136 O139 1.970 . S
Co136 N153 1.989 . S
Co136 O161 1.967 . S
Co136 O168 1.920 . S
Co137 O140 1.966 . S
Co137 N146 2.022 . S
Co137 N154 1.993 . S
Co137 O162 1.941 . S
C138 O139 1.258 . S
C138 O140 1.263 . S
O139 Co136 1.970 . S
O139 C138 1.258 . S
O140 Co137 1.966 . S
O140 C138 1.263 . S
C141 O142 1.235 . S
C141 O168 1.289 . S
O142 C141 1.235 . S
C143 C145 1.401 1_556 S
C143 N146 1.351 . S
C143 C148 1.500 . S
C144 C145 1.387 . S
C144 N147 1.338 . S
C145 C143 1.401 1_554 S
C145 C144 1.387 . S
N146 Co137 2.022 . S
N146 C143 1.351 . S
N146 N147 1.367 1_556 S
N147 C144 1.338 . S
N147 N146 1.367 1_554 S
N147 H167 0.863 1_554 S
C148 C143 1.500 . S
C148 H149 0.961 . S
C148 H150 0.961 . S
C148 H151 0.960 . S
H149 C148 0.961 . S
H150 C148 0.961 . S
H151 C148 0.960 . S
C152 N153 1.342 . S
C152 C156 1.401 . S
C152 C157 1.499 . S
N153 Co136 1.989 . S
N153 C152 1.342 . S
N153 N154 1.388 . S
N154 Co137 1.993 . S
N154 N153 1.388 . S
N154 C155 1.346 . S
C155 N154 1.346 . S
C155 C156 1.396 . S
C155 C165 1.510 . S
C156 C152 1.401 . S
C156 C155 1.396 . S
C157 C152 1.499 . S
C157 H158 0.959 . S
C157 H159 0.960 . S
C157 H160 0.961 . S
H158 C157 0.959 . S
H159 C157 0.960 . S
H160 C157 0.961 . S
O161 Co136 1.967 . S
O161 C169 1.258 . S
O162 Co137 1.941 . S
O162 C169 1.266 . S
H163 C165 0.959 . S
H164 C165 0.961 . S
C165 C155 1.510 . S
C165 H163 0.959 . S
C165 H164 0.961 . S
C165 H166 0.960 . S
H166 C165 0.960 . S
H167 N147 0.863 1_556 S
O168 Co136 1.920 . S
O168 C141 1.289 . S
C169 O161 1.258 . S
C169 O162 1.266 . S
Co170 O173 1.970 . S
Co170 N187 1.989 . S
Co170 O195 1.967 . S
Co170 O202 1.920 . S
Co171 O174 1.966 . S
Co171 N180 2.022 . S
Co171 N188 1.993 . S
Co171 O196 1.941 . S
C172 O173 1.258 . S
C172 O174 1.263 . S
O173 Co170 1.970 . S
O173 C172 1.258 . S
O174 Co171 1.966 . S
O174 C172 1.263 . S
C175 O176 1.235 . S
C175 O202 1.289 . S
O176 C175 1.235 . S
C177 C179 1.400 . S
C177 N180 1.351 . S
C177 C182 1.501 . S
C178 C179 1.387 . S
C178 N181 1.341 . S
C179 C177 1.400 . S
C179 C178 1.387 . S
N180 Co171 2.022 . S
N180 C177 1.351 . S
N180 N181 1.365 . S
N181 C178 1.341 . S
N181 N180 1.365 . S
N181 H201 0.862 . S
C182 C177 1.501 . S
C182 H183 0.961 . S
C182 H184 0.961 . S
C182 H185 0.960 . S
H183 C182 0.961 . S
H184 C182 0.961 . S
H185 C182 0.960 . S
C186 N187 1.342 . S
C186 C190 1.401 . S
C186 C191 1.499 . S
N187 Co170 1.989 . S
N187 C186 1.342 . S
N187 N188 1.388 . S
N188 Co171 1.993 . S
N188 N187 1.388 . S
N188 C189 1.346 . S
C189 N188 1.346 . S
C189 C190 1.396 . S
C189 C199 1.510 . S
C190 C186 1.401 . S
C190 C189 1.396 . S
C191 C186 1.499 . S
C191 H192 0.959 . S
C191 H193 0.960 . S
C191 H194 0.961 . S
H192 C191 0.959 . S
H193 C191 0.960 . S
H194 C191 0.961 . S
O195 Co170 1.967 . S
O195 C203 1.258 . S
O196 Co171 1.941 . S
O196 C203 1.266 . S
H197 C199 0.959 . S
H198 C199 0.961 . S
C199 C189 1.510 . S
C199 H197 0.959 . S
C199 H198 0.961 . S
C199 H200 0.960 . S
H200 C199 0.960 . S
H201 N181 0.862 . S
O202 Co170 1.920 . S
O202 C175 1.289 . S
C203 O195 1.258 . S
C203 O196 1.266 . S
Co204 O207 1.970 . S
Co204 N221 1.989 . S
Co204 O229 1.967 . S
Co204 O236 1.920 . S
Co205 O208 1.966 . S
Co205 N214 2.022 . S
Co205 N222 1.993 . S
Co205 O230 1.941 . S
C206 O207 1.258 . S
C206 O208 1.263 . S
O207 Co204 1.970 . S
O207 C206 1.258 . S
O208 Co205 1.966 . S
O208 C206 1.263 . S
C209 O210 1.235 . S
C209 O236 1.289 . S
O210 C209 1.235 . S
C211 C213 1.400 . S
C211 N214 1.351 . S
C211 C216 1.501 . S
C212 C213 1.387 . S
C212 N215 1.341 . S
C213 C211 1.400 . S
C213 C212 1.387 . S
N214 Co205 2.022 . S
N214 C211 1.351 . S
N214 N215 1.365 . S
N215 C212 1.341 . S
N215 N214 1.365 . S
N215 H235 0.862 . S
C216 C211 1.501 . S
C216 H217 0.961 . S
C216 H218 0.961 . S
C216 H219 0.960 . S
H217 C216 0.961 . S
H218 C216 0.961 . S
H219 C216 0.960 . S
C220 N221 1.342 . S
C220 C224 1.401 . S
C220 C225 1.499 . S
N221 Co204 1.989 . S
N221 C220 1.342 . S
N221 N222 1.388 . S
N222 Co205 1.993 . S
N222 N221 1.388 . S
N222 C223 1.346 . S
C223 N222 1.346 . S
C223 C224 1.396 . S
C223 C233 1.510 . S
C224 C220 1.401 . S
C224 C223 1.396 . S
C225 C220 1.499 . S
C225 H226 0.959 . S
C225 H227 0.960 . S
C225 H228 0.961 . S
H226 C225 0.959 . S
H227 C225 0.960 . S
H228 C225 0.961 . S
O229 Co204 1.967 . S
O229 C237 1.258 . S
O230 Co205 1.941 . S
O230 C237 1.266 . S
H231 C233 0.959 . S
H232 C233 0.961 . S
C233 C223 1.510 . S
C233 H231 0.959 . S
C233 H232 0.961 . S
C233 H234 0.960 . S
H234 C233 0.960 . S
H235 N215 0.862 . S
O236 Co204 1.920 . S
O236 C209 1.289 . S
C237 O229 1.258 . S
C237 O230 1.266 . S
Co238 O241 1.970 . S
Co238 N255 1.989 . S
Co238 O263 1.967 . S
Co238 O270 1.920 . S
Co239 O242 1.966 . S
Co239 N248 2.022 . S
Co239 N256 1.993 . S
Co239 O264 1.941 . S
C240 O241 1.258 . S
C240 O242 1.263 . S
O241 Co238 1.970 . S
O241 C240 1.258 . S
O242 Co239 1.966 . S
O242 C240 1.263 . S
C243 O244 1.235 . S
C243 O270 1.289 . S
O244 C243 1.235 . S
C245 C247 1.400 . S
C245 N248 1.351 . S
C245 C250 1.501 . S
C246 C247 1.387 . S
C246 N249 1.341 . S
C247 C245 1.400 . S
C247 C246 1.387 . S
N248 Co239 2.022 . S
N248 C245 1.351 . S
N248 N249 1.365 . S
N249 C246 1.341 . S
N249 N248 1.365 . S
N249 H269 0.862 . S
C250 C245 1.501 . S
C250 H251 0.961 . S
C250 H252 0.961 . S
C250 H253 0.960 . S
H251 C250 0.961 . S
H252 C250 0.961 . S
H253 C250 0.960 . S
C254 N255 1.342 . S
C254 C258 1.401 . S
C254 C259 1.499 . S
N255 Co238 1.989 . S
N255 C254 1.342 . S
N255 N256 1.388 . S
N256 Co239 1.993 . S
N256 N255 1.388 . S
N256 C257 1.346 . S
C257 N256 1.346 . S
C257 C258 1.396 . S
C257 C267 1.510 . S
C258 C254 1.401 . S
C258 C257 1.396 . S
C259 C254 1.499 . S
C259 H260 0.959 . S
C259 H261 0.960 . S
C259 H262 0.961 . S
H260 C259 0.959 . S
H261 C259 0.960 . S
H262 C259 0.961 . S
O263 Co238 1.967 . S
O263 C271 1.258 . S
O264 Co239 1.941 . S
O264 C271 1.266 . S
H265 C267 0.959 . S
H266 C267 0.961 . S
C267 C257 1.510 . S
C267 H265 0.959 . S
C267 H266 0.961 . S
C267 H268 0.960 . S
H268 C267 0.960 . S
H269 N249 0.862 . S
O270 Co238 1.920 . S
O270 C243 1.289 . S
C271 O263 1.258 . S
C271 O264 1.266 . S
Co272 O275 1.970 . S
Co272 N289 1.989 . S
Co272 O297 1.967 . S
Co272 O304 1.920 . S
Co273 O276 1.966 . S
Co273 N282 2.022 . S
Co273 N290 1.993 . S
Co273 O298 1.941 . S
C274 O275 1.258 . S
C274 O276 1.263 . S
O275 Co272 1.970 . S
O275 C274 1.258 . S
O276 Co273 1.966 . S
O276 C274 1.263 . S
C277 O278 1.235 . S
C277 O304 1.289 . S
O278 C277 1.235 . S
C279 C281 1.400 . S
C279 N282 1.351 . S
C279 C284 1.501 . S
C280 C281 1.387 . S
C280 N283 1.341 . S
C281 C279 1.400 . S
C281 C280 1.387 . S
N282 Co273 2.022 . S
N282 C279 1.351 . S
N282 N283 1.365 . S
N283 C280 1.341 . S
N283 N282 1.365 . S
N283 H303 0.862 . S
C284 C279 1.501 . S
C284 H285 0.961 . S
C284 H286 0.961 . S
C284 H287 0.960 . S
H285 C284 0.961 . S
H286 C284 0.961 . S
H287 C284 0.960 . S
C288 N289 1.342 . S
C288 C292 1.401 . S
C288 C293 1.499 . S
N289 Co272 1.989 . S
N289 C288 1.342 . S
N289 N290 1.388 . S
N290 Co273 1.993 . S
N290 N289 1.388 . S
N290 C291 1.346 . S
C291 N290 1.346 . S
C291 C292 1.396 . S
C291 C301 1.510 . S
C292 C288 1.401 . S
C292 C291 1.396 . S
C293 C288 1.499 . S
C293 H294 0.959 . S
C293 H295 0.960 . S
C293 H296 0.961 . S
H294 C293 0.959 . S
H295 C293 0.960 . S
H296 C293 0.961 . S
O297 Co272 1.967 . S
O297 C305 1.258 . S
O298 Co273 1.941 . S
O298 C305 1.266 . S
H299 C301 0.959 . S
H300 C301 0.961 . S
C301 C291 1.510 . S
C301 H299 0.959 . S
C301 H300 0.961 . S
C301 H302 0.960 . S
H302 C301 0.960 . S
H303 N283 0.862 . S
O304 Co272 1.920 . S
O304 C277 1.289 . S
C305 O297 1.258 . S
C305 O298 1.266 . S
Co306 O309 1.970 . S
Co306 N323 1.989 . S
Co306 O331 1.967 . S
Co306 O338 1.920 . S
Co307 O310 1.966 . S
Co307 N316 2.022 . S
Co307 N324 1.993 . S
Co307 O332 1.941 . S
C308 O309 1.258 . S
C308 O310 1.263 . S
O309 Co306 1.970 . S
O309 C308 1.258 . S
O310 Co307 1.966 . S
O310 C308 1.263 . S
C311 O312 1.235 . S
C311 O338 1.289 . S
O312 C311 1.235 . S
C313 C315 1.401 1_554 S
C313 N316 1.351 . S
C313 C318 1.500 . S
C314 C315 1.387 . S
C314 N317 1.338 . S
C315 C313 1.401 1_556 S
C315 C314 1.387 . S
N316 Co307 2.022 . S
N316 C313 1.351 . S
N316 N317 1.367 1_554 S
N317 C314 1.338 . S
N317 N316 1.367 1_556 S
N317 H337 0.863 1_556 S
C318 C313 1.500 . S
C318 H319 0.961 . S
C318 H320 0.961 . S
C318 H321 0.960 . S
H319 C318 0.961 . S
H320 C318 0.961 . S
H321 C318 0.960 . S
C322 N323 1.342 . S
C322 C326 1.401 . S
C322 C327 1.499 . S
N323 Co306 1.989 . S
N323 C322 1.342 . S
N323 N324 1.388 . S
N324 Co307 1.993 . S
N324 N323 1.388 . S
N324 C325 1.346 . S
C325 N324 1.346 . S
C325 C326 1.396 . S
C325 C335 1.510 . S
C326 C322 1.401 . S
C326 C325 1.396 . S
C327 C322 1.499 . S
C327 H328 0.959 . S
C327 H329 0.960 . S
C327 H330 0.961 . S
H328 C327 0.959 . S
H329 C327 0.960 . S
H330 C327 0.961 . S
O331 Co306 1.967 . S
O331 C339 1.258 . S
O332 Co307 1.941 . S
O332 C339 1.266 . S
H333 C335 0.959 . S
H334 C335 0.961 . S
C335 C325 1.510 . S
C335 H333 0.959 . S
C335 H334 0.961 . S
C335 H336 0.960 . S
H336 C335 0.960 . S
H337 N317 0.863 1_554 S
O338 Co306 1.920 . S
O338 C311 1.289 . S
C339 O331 1.258 . S
C339 O332 1.266 . S
Co340 O343 1.970 . S
Co340 N357 1.989 . S
Co340 O365 1.967 . S
Co340 O372 1.920 . S
Co341 O344 1.966 . S
Co341 N350 2.022 . S
Co341 N358 1.993 . S
Co341 O366 1.941 . S
C342 O343 1.258 . S
C342 O344 1.263 . S
O343 Co340 1.970 . S
O343 C342 1.258 . S
O344 Co341 1.966 . S
O344 C342 1.263 . S
C345 O346 1.235 . S
C345 O372 1.289 . S
O346 C345 1.235 . S
C347 C349 1.400 . S
C347 N350 1.351 . S
C347 C352 1.501 . S
C348 C349 1.387 . S
C348 N351 1.341 . S
C349 C347 1.400 . S
C349 C348 1.387 . S
N350 Co341 2.022 . S
N350 C347 1.351 . S
N350 N351 1.365 . S
N351 C348 1.341 . S
N351 N350 1.365 . S
N351 H371 0.862 . S
C352 C347 1.501 . S
C352 H353 0.961 . S
C352 H354 0.961 . S
C352 H355 0.960 . S
H353 C352 0.961 . S
H354 C352 0.961 . S
H355 C352 0.960 . S
C356 N357 1.342 . S
C356 C360 1.401 . S
C356 C361 1.499 . S
N357 Co340 1.989 . S
N357 C356 1.342 . S
N357 N358 1.388 . S
N358 Co341 1.993 . S
N358 N357 1.388 . S
N358 C359 1.346 . S
C359 N358 1.346 . S
C359 C360 1.396 . S
C359 C369 1.510 . S
C360 C356 1.401 . S
C360 C359 1.396 . S
C361 C356 1.499 . S
C361 H362 0.959 . S
C361 H363 0.960 . S
C361 H364 0.961 . S
H362 C361 0.959 . S
H363 C361 0.960 . S
H364 C361 0.961 . S
O365 Co340 1.967 . S
O365 C373 1.258 . S
O366 Co341 1.941 . S
O366 C373 1.266 . S
H367 C369 0.959 . S
H368 C369 0.961 . S
C369 C359 1.510 . S
C369 H367 0.959 . S
C369 H368 0.961 . S
C369 H370 0.960 . S
H370 C369 0.960 . S
H371 N351 0.862 . S
O372 Co340 1.920 . S
O372 C345 1.289 . S
C373 O365 1.258 . S
C373 O366 1.266 . S
Co374 O377 1.970 . S
Co374 N391 1.989 . S
Co374 O399 1.967 . S
Co374 O406 1.920 . S
Co375 O378 1.966 . S
Co375 N384 2.022 . S
Co375 N392 1.993 . S
Co375 O400 1.941 . S
C376 O377 1.258 . S
C376 O378 1.263 . S
O377 Co374 1.970 . S
O377 C376 1.258 . S
O378 Co375 1.966 . S
O378 C376 1.263 . S
C379 O380 1.235 . S
C379 O406 1.289 . S
O380 C379 1.235 . S
C381 C383 1.400 . S
C381 N384 1.351 . S
C381 C386 1.501 . S
C382 C383 1.387 . S
C382 N385 1.341 . S
C383 C381 1.400 . S
C383 C382 1.387 . S
N384 Co375 2.022 . S
N384 C381 1.351 . S
N384 N385 1.365 . S
N385 C382 1.341 . S
N385 N384 1.365 . S
N385 H405 0.862 . S
C386 C381 1.501 . S
C386 H387 0.961 . S
C386 H388 0.961 . S
C386 H389 0.960 . S
H387 C386 0.961 . S
H388 C386 0.961 . S
H389 C386 0.960 . S
C390 N391 1.342 . S
C390 C394 1.401 . S
C390 C395 1.499 . S
N391 Co374 1.989 . S
N391 C390 1.342 . S
N391 N392 1.388 . S
N392 Co375 1.993 . S
N392 N391 1.388 . S
N392 C393 1.346 . S
C393 N392 1.346 . S
C393 C394 1.396 . S
C393 C403 1.510 . S
C394 C390 1.401 . S
C394 C393 1.396 . S
C395 C390 1.499 . S
C395 H396 0.959 . S
C395 H397 0.960 . S
C395 H398 0.961 . S
H396 C395 0.959 . S
H397 C395 0.960 . S
H398 C395 0.961 . S
O399 Co374 1.967 . S
O399 C407 1.258 . S
O400 Co375 1.941 . S
O400 C407 1.266 . S
H401 C403 0.959 . S
H402 C403 0.961 . S
C403 C393 1.510 . S
C403 H401 0.959 . S
C403 H402 0.961 . S
C403 H404 0.960 . S
H404 C403 0.960 . S
H405 N385 0.862 . S
O406 Co374 1.920 . S
O406 C379 1.289 . S
C407 O399 1.258 . S
C407 O400 1.266 . S
Co408 O411 1.970 . S
Co408 N425 1.989 . S
Co408 O433 1.967 . S
Co408 O440 1.920 . S
Co409 O412 1.966 . S
Co409 N418 2.022 . S
Co409 N426 1.993 . S
Co409 O434 1.941 . S
C410 O411 1.258 . S
C410 O412 1.263 . S
O411 Co408 1.970 . S
O411 C410 1.258 . S
O412 Co409 1.966 . S
O412 C410 1.263 . S
C413 O414 1.235 . S
C413 O440 1.289 . S
O414 C413 1.235 . S
C415 C417 1.400 . S
C415 N418 1.351 . S
C415 C420 1.501 . S
C416 C417 1.387 . S
C416 N419 1.341 . S
C417 C415 1.400 . S
C417 C416 1.387 . S
N418 Co409 2.022 . S
N418 C415 1.351 . S
N418 N419 1.365 . S
N419 C416 1.341 . S
N419 N418 1.365 . S
N419 H439 0.862 . S
C420 C415 1.501 . S
C420 H421 0.961 . S
C420 H422 0.961 . S
C420 H423 0.960 . S
H421 C420 0.961 . S
H422 C420 0.961 . S
H423 C420 0.960 . S
C424 N425 1.342 . S
C424 C428 1.401 . S
C424 C429 1.499 . S
N425 Co408 1.989 . S
N425 C424 1.342 . S
N425 N426 1.388 . S
N426 Co409 1.993 . S
N426 N425 1.388 . S
N426 C427 1.346 . S
C427 N426 1.346 . S
C427 C428 1.396 . S
C427 C437 1.510 . S
C428 C424 1.401 . S
C428 C427 1.396 . S
C429 C424 1.499 . S
C429 H430 0.959 . S
C429 H431 0.960 . S
C429 H432 0.961 . S
H430 C429 0.959 . S
H431 C429 0.960 . S
H432 C429 0.961 . S
O433 Co408 1.967 . S
O433 C441 1.258 . S
O434 Co409 1.941 . S
O434 C441 1.266 . S
H435 C437 0.959 . S
H436 C437 0.961 . S
C437 C427 1.510 . S
C437 H435 0.959 . S
C437 H436 0.961 . S
C437 H438 0.960 . S
H438 C437 0.960 . S
H439 N419 0.862 . S
O440 Co408 1.920 . S
O440 C413 1.289 . S
C441 O433 1.258 . S
C441 O434 1.266 . S
Co442 O445 1.970 . S
Co442 N459 1.989 . S
Co442 O467 1.967 . S
Co442 O474 1.920 . S
Co443 O446 1.966 . S
Co443 N452 2.022 . S
Co443 N460 1.993 . S
Co443 O468 1.941 . S
C444 O445 1.258 . S
C444 O446 1.263 . S
O445 Co442 1.970 . S
O445 C444 1.258 . S
O446 Co443 1.966 . S
O446 C444 1.263 . S
C447 O448 1.235 . S
C447 O474 1.289 . S
O448 C447 1.235 . S
C449 C451 1.400 . S
C449 N452 1.351 . S
C449 C454 1.501 . S
C450 C451 1.387 . S
C450 N453 1.341 . S
C451 C449 1.400 . S
C451 C450 1.387 . S
N452 Co443 2.022 . S
N452 C449 1.351 . S
N452 N453 1.365 . S
N453 C450 1.341 . S
N453 N452 1.365 . S
N453 H473 0.862 . S
C454 C449 1.501 . S
C454 H455 0.961 . S
C454 H456 0.961 . S
C454 H457 0.960 . S
H455 C454 0.961 . S
H456 C454 0.961 . S
H457 C454 0.960 . S
C458 N459 1.342 . S
C458 C462 1.401 . S
C458 C463 1.499 . S
N459 Co442 1.989 . S
N459 C458 1.342 . S
N459 N460 1.388 . S
N460 Co443 1.993 . S
N460 N459 1.388 . S
N460 C461 1.346 . S
C461 N460 1.346 . S
C461 C462 1.396 . S
C461 C471 1.510 . S
C462 C458 1.401 . S
C462 C461 1.396 . S
C463 C458 1.499 . S
C463 H464 0.959 . S
C463 H465 0.960 . S
C463 H466 0.961 . S
H464 C463 0.959 . S
H465 C463 0.960 . S
H466 C463 0.961 . S
O467 Co442 1.967 . S
O467 C475 1.258 . S
O468 Co443 1.941 . S
O468 C475 1.266 . S
H469 C471 0.959 . S
H470 C471 0.961 . S
C471 C461 1.510 . S
C471 H469 0.959 . S
C471 H470 0.961 . S
C471 H472 0.960 . S
H472 C471 0.960 . S
H473 N453 0.862 . S
O474 Co442 1.920 . S
O474 C447 1.289 . S
C475 O467 1.258 . S
C475 O468 1.266 . S
Co476 O479 1.970 . S
Co476 N493 1.989 . S
Co476 O501 1.967 . S
Co476 O508 1.920 . S
Co477 O480 1.966 . S
Co477 N486 2.022 . S
Co477 N494 1.993 . S
Co477 O502 1.941 . S
C478 O479 1.258 . S
C478 O480 1.263 . S
O479 Co476 1.970 . S
O479 C478 1.258 . S
O480 Co477 1.966 . S
O480 C478 1.263 . S
C481 O482 1.235 . S
C481 O508 1.289 . S
O482 C481 1.235 . S
C483 C485 1.401 1_556 S
C483 N486 1.351 . S
C483 C488 1.500 . S
C484 C485 1.387 . S
C484 N487 1.338 . S
C485 C483 1.401 1_554 S
C485 C484 1.387 . S
N486 Co477 2.022 . S
N486 C483 1.351 . S
N486 N487 1.367 1_556 S
N487 C484 1.338 . S
N487 N486 1.367 1_554 S
N487 H507 0.863 1_554 S
C488 C483 1.500 . S
C488 H489 0.961 . S
C488 H490 0.961 . S
C488 H491 0.960 . S
H489 C488 0.961 . S
H490 C488 0.961 . S
H491 C488 0.960 . S
C492 N493 1.342 . S
C492 C496 1.401 . S
C492 C497 1.499 . S
N493 Co476 1.989 . S
N493 C492 1.342 . S
N493 N494 1.388 . S
N494 Co477 1.993 . S
N494 N493 1.388 . S
N494 C495 1.346 . S
C495 N494 1.346 . S
C495 C496 1.396 . S
C495 C505 1.510 . S
C496 C492 1.401 . S
C496 C495 1.396 . S
C497 C492 1.499 . S
C497 H498 0.959 . S
C497 H499 0.960 . S
C497 H500 0.961 . S
H498 C497 0.959 . S
H499 C497 0.960 . S
H500 C497 0.961 . S
O501 Co476 1.967 . S
O501 C509 1.258 . S
O502 Co477 1.941 . S
O502 C509 1.266 . S
H503 C505 0.959 . S
H504 C505 0.961 . S
C505 C495 1.510 . S
C505 H503 0.959 . S
C505 H504 0.961 . S
C505 H506 0.960 . S
H506 C505 0.960 . S
H507 N487 0.863 1_556 S
O508 Co476 1.920 . S
O508 C481 1.289 . S
C509 O501 1.258 . S
C509 O502 1.266 . S
Co510 O513 1.970 . S
Co510 N527 1.989 . S
Co510 O535 1.967 . S
Co510 O542 1.920 . S
Co511 O514 1.966 . S
Co511 N520 2.022 . S
Co511 N528 1.993 . S
Co511 O536 1.941 . S
C512 O513 1.258 . S
C512 O514 1.263 . S
O513 Co510 1.970 . S
O513 C512 1.258 . S
O514 Co511 1.966 . S
O514 C512 1.263 . S
C515 O516 1.235 . S
C515 O542 1.289 . S
O516 C515 1.235 . S
C517 C519 1.400 . S
C517 N520 1.351 . S
C517 C522 1.501 . S
C518 C519 1.387 . S
C518 N521 1.341 . S
C519 C517 1.400 . S
C519 C518 1.387 . S
N520 Co511 2.022 . S
N520 C517 1.351 . S
N520 N521 1.365 . S
N521 C518 1.341 . S
N521 N520 1.365 . S
N521 H541 0.862 . S
C522 C517 1.501 . S
C522 H523 0.961 . S
C522 H524 0.961 . S
C522 H525 0.960 . S
H523 C522 0.961 . S
H524 C522 0.961 . S
H525 C522 0.960 . S
C526 N527 1.342 . S
C526 C530 1.401 . S
C526 C531 1.499 . S
N527 Co510 1.989 . S
N527 C526 1.342 . S
N527 N528 1.388 . S
N528 Co511 1.993 . S
N528 N527 1.388 . S
N528 C529 1.346 . S
C529 N528 1.346 . S
C529 C530 1.396 . S
C529 C539 1.510 . S
C530 C526 1.401 . S
C530 C529 1.396 . S
C531 C526 1.499 . S
C531 H532 0.959 . S
C531 H533 0.960 . S
C531 H534 0.961 . S
H532 C531 0.959 . S
H533 C531 0.960 . S
H534 C531 0.961 . S
O535 Co510 1.967 . S
O535 C543 1.258 . S
O536 Co511 1.941 . S
O536 C543 1.266 . S
H537 C539 0.959 . S
H538 C539 0.961 . S
C539 C529 1.510 . S
C539 H537 0.959 . S
C539 H538 0.961 . S
C539 H540 0.960 . S
H540 C539 0.960 . S
H541 N521 0.862 . S
O542 Co510 1.920 . S
O542 C515 1.289 . S
C543 O535 1.258 . S
C543 O536 1.266 . S
H544 C550 0.930 . S
H545 C554 0.930 . S
H546 C559 0.929 . S
H547 C557 0.929 . S
H548 C552 0.929 . S
H549 C558 0.929 . S
C550 H544 0.930 . S
C550 C551 1.367 . S
C550 C558 1.378 . S
C551 C550 1.367 . S
C551 C559 1.433 . S
C552 H548 0.929 . S
C552 C554 1.378 . S
C552 C556 1.350 . S
C553 C556 1.463 . S
C553 C558 1.350 . S
C553 N561 1.427 . S
C554 H545 0.930 . S
C554 C552 1.378 . S
C554 C555 1.367 . S
C555 C554 1.367 . S
C555 C557 1.433 . S
C556 C552 1.350 . S
C556 C553 1.463 . S
C556 N560 1.427 . S
C557 H547 0.929 . S
C557 C555 1.433 . S
C557 N560 1.384 . S
C558 H549 0.929 . S
C558 C550 1.378 . S
C558 C553 1.350 . S
C559 H546 0.929 . S
C559 C551 1.433 . S
C559 N561 1.384 . S
N560 C556 1.427 . S
N560 C557 1.384 . S
N561 C553 1.427 . S
N561 C559 1.384 . S
H562 C568 0.930 . S
H563 C572 0.930 . S
H564 C577 0.929 . S
H565 C575 0.929 . S
H566 C570 0.929 . S
H567 C576 0.929 . S
C568 H562 0.930 . S
C568 C569 1.367 . S
C568 C576 1.378 . S
C569 C568 1.367 . S
C569 C577 1.433 . S
C570 H566 0.929 . S
C570 C572 1.378 . S
C570 C574 1.350 . S
C571 C574 1.463 . S
C571 C576 1.350 . S
C571 N579 1.427 . S
C572 H563 0.930 . S
C572 C570 1.378 . S
C572 C573 1.367 . S
C573 C572 1.367 . S
C573 C575 1.433 . S
C574 C570 1.350 . S
C574 C571 1.463 . S
C574 N578 1.427 . S
C575 H565 0.929 . S
C575 C573 1.433 . S
C575 N578 1.384 . S
C576 H567 0.929 . S
C576 C568 1.378 . S
C576 C571 1.350 . S
C577 H564 0.929 . S
C577 C569 1.433 . S
C577 N579 1.384 . S
N578 C574 1.427 . S
N578 C575 1.384 . S
N579 C571 1.427 . S
N579 C577 1.384 . S
H580 C586 0.930 . S
H581 C590 0.930 . S
H582 C595 0.929 . S
H583 C593 0.929 . S
H584 C588 0.929 . S
H585 C594 0.929 . S
C586 H580 0.930 . S
C586 C587 1.367 . S
C586 C594 1.378 . S
C587 C586 1.367 . S
C587 C595 1.433 . S
C588 H584 0.929 . S
C588 C590 1.378 . S
C588 C592 1.350 . S
C589 C592 1.463 1_554 S
C589 C594 1.350 . S
C589 N597 1.427 . S
C590 H581 0.930 . S
C590 C588 1.378 . S
C590 C591 1.367 . S
C591 C590 1.367 . S
C591 C593 1.433 . S
C592 C588 1.350 . S
C592 C589 1.463 1_556 S
C592 N596 1.427 . S
C593 H583 0.929 . S
C593 C591 1.433 . S
C593 N596 1.384 . S
C594 H585 0.929 . S
C594 C586 1.378 . S
C594 C589 1.350 . S
C595 H582 0.929 . S
C595 C587 1.433 . S
C595 N597 1.384 . S
N596 C592 1.427 . S
N596 C593 1.384 . S
N597 C589 1.427 . S
N597 C595 1.384 . S
H598 C604 0.930 . S
H599 C608 0.930 . S
H600 C613 0.929 . S
H601 C611 0.929 . S
H602 C606 0.929 . S
H603 C612 0.929 . S
C604 H598 0.930 . S
C604 C605 1.367 . S
C604 C612 1.378 . S
C605 C604 1.367 . S
C605 C613 1.433 . S
C606 H602 0.929 . S
C606 C608 1.378 . S
C606 C610 1.350 . S
C607 C610 1.463 . S
C607 C612 1.350 . S
C607 N615 1.427 . S
C608 H599 0.930 . S
C608 C606 1.378 . S
C608 C609 1.367 . S
C609 C608 1.367 . S
C609 C611 1.433 . S
C610 C606 1.350 . S
C610 C607 1.463 . S
C610 N614 1.427 . S
C611 H601 0.929 . S
C611 C609 1.433 . S
C611 N614 1.384 . S
C612 H603 0.929 . S
C612 C604 1.378 . S
C612 C607 1.350 . S
C613 H600 0.929 . S
C613 C605 1.433 . S
C613 N615 1.384 . S
N614 C610 1.427 . S
N614 C611 1.384 . S
N615 C607 1.427 . S
N615 C613 1.384 . S
H616 C622 0.930 . S
H617 C626 0.930 . S
H618 C631 0.929 . S
H619 C629 0.929 . S
H620 C624 0.929 . S
H621 C630 0.929 . S
C622 H616 0.930 . S
C622 C623 1.367 . S
C622 C630 1.378 . S
C623 C622 1.367 . S
C623 C631 1.433 . S
C624 H620 0.929 . S
C624 C626 1.378 . S
C624 C628 1.350 . S
C625 C628 1.463 . S
C625 C630 1.350 . S
C625 N633 1.427 . S
C626 H617 0.930 . S
C626 C624 1.378 . S
C626 C627 1.367 . S
C627 C626 1.367 . S
C627 C629 1.433 . S
C628 C624 1.350 . S
C628 C625 1.463 . S
C628 N632 1.427 . S
C629 H619 0.929 . S
C629 C627 1.433 . S
C629 N632 1.384 . S
C630 H621 0.929 . S
C630 C622 1.378 . S
C630 C625 1.350 . S
C631 H618 0.929 . S
C631 C623 1.433 . S
C631 N633 1.384 . S
N632 C628 1.427 . S
N632 C629 1.384 . S
N633 C625 1.427 . S
N633 C631 1.384 . S
H634 C640 0.930 . S
H635 C644 0.930 . S
H636 C649 0.929 . S
H637 C647 0.929 . S
H638 C642 0.929 . S
H639 C648 0.929 . S
C640 H634 0.930 . S
C640 C641 1.367 . S
C640 C648 1.378 . S
C641 C640 1.367 . S
C641 C649 1.433 . S
C642 H638 0.929 . S
C642 C644 1.378 . S
C642 C646 1.350 . S
C643 C646 1.463 1_556 S
C643 C648 1.350 . S
C643 N651 1.427 . S
C644 H635 0.930 . S
C644 C642 1.378 . S
C644 C645 1.367 . S
C645 C644 1.367 . S
C645 C647 1.433 . S
C646 C642 1.350 . S
C646 C643 1.463 1_554 S
C646 N650 1.427 . S
C647 H637 0.929 . S
C647 C645 1.433 . S
C647 N650 1.384 . S
C648 H639 0.929 . S
C648 C640 1.378 . S
C648 C643 1.350 . S
C649 H636 0.929 . S
C649 C641 1.433 . S
C649 N651 1.384 . S
N650 C646 1.427 . S
N650 C647 1.384 . S
N651 C643 1.427 . S
N651 C649 1.384 . S
H652 C658 0.930 . S
H653 C662 0.930 . S
H654 C667 0.929 . S
H655 C665 0.929 . S
H656 C660 0.929 . S
H657 C666 0.929 . S
C658 H652 0.930 . S
C658 C659 1.367 . S
C658 C666 1.378 . S
C659 C658 1.367 . S
C659 C667 1.433 . S
C660 H656 0.929 . S
C660 C662 1.378 . S
C660 C664 1.350 . S
C661 C664 1.463 . S
C661 C666 1.350 . S
C661 N669 1.427 . S
C662 H653 0.930 . S
C662 C660 1.378 . S
C662 C663 1.367 . S
C663 C662 1.367 . S
C663 C665 1.433 . S
C664 C660 1.350 . S
C664 C661 1.463 . S
C664 N668 1.427 . S
C665 H655 0.929 . S
C665 C663 1.433 . S
C665 N668 1.384 . S
C666 H657 0.929 . S
C666 C658 1.378 . S
C666 C661 1.350 . S
C667 H654 0.929 . S
C667 C659 1.433 . S
C667 N669 1.384 . S
N668 C664 1.427 . S
N668 C665 1.384 . S
N669 C661 1.427 . S
N669 C667 1.384 . S
H670 C676 0.930 . S
H671 C680 0.930 . S
H672 C685 0.929 . S
H673 C683 0.929 . S
H674 C678 0.929 . S
H675 C684 0.929 . S
C676 H670 0.930 . S
C676 C677 1.367 . S
C676 C684 1.378 . S
C677 C676 1.367 . S
C677 C685 1.433 . S
C678 H674 0.929 . S
C678 C680 1.378 . S
C678 C682 1.350 . S
C679 C682 1.463 . S
C679 C684 1.350 . S
C679 N687 1.427 . S
C680 H671 0.930 . S
C680 C678 1.378 . S
C680 C681 1.367 . S
C681 C680 1.367 . S
C681 C683 1.433 . S
C682 C678 1.350 . S
C682 C679 1.463 . S
C682 N686 1.427 . S
C683 H673 0.929 . S
C683 C681 1.433 . S
C683 N686 1.384 . S
C684 H675 0.929 . S
C684 C676 1.378 . S
C684 C679 1.350 . S
C685 H672 0.929 . S
C685 C677 1.433 . S
C685 N687 1.384 . S
N686 C682 1.427 . S
N686 C683 1.384 . S
N687 C679 1.427 . S
N687 C685 1.384 . S
H688 C694 0.930 . S
H689 C698 0.930 . S
H690 C703 0.929 . S
H691 C701 0.929 . S
H692 C696 0.929 . S
H693 C702 0.929 . S
C694 H688 0.930 . S
C694 C695 1.367 . S
C694 C702 1.378 . S
C695 C694 1.367 . S
C695 C703 1.433 . S
C696 H692 0.929 . S
C696 C698 1.378 . S
C696 C700 1.350 . S
C697 C700 1.463 . S
C697 C702 1.350 . S
C697 N705 1.427 . S
C698 H689 0.930 . S
C698 C696 1.378 . S
C698 C699 1.367 . S
C699 C698 1.367 . S
C699 C701 1.433 . S
C700 C696 1.350 . S
C700 C697 1.463 . S
C700 N704 1.427 . S
C701 H691 0.929 . S
C701 C699 1.433 . S
C701 N704 1.384 . S
C702 H693 0.929 . S
C702 C694 1.378 . S
C702 C697 1.350 . S
C703 H690 0.929 . S
C703 C695 1.433 . S
C703 N705 1.384 . S
N704 C700 1.427 . S
N704 C701 1.384 . S
N705 C697 1.427 . S
N705 C703 1.384 . S
H706 C712 0.930 . S
H707 C716 0.930 . S
H708 C721 0.929 . S
H709 C719 0.929 . S
H710 C714 0.929 . S
H711 C720 0.929 . S
C712 H706 0.930 . S
C712 C713 1.367 . S
C712 C720 1.378 . S
C713 C712 1.367 . S
C713 C721 1.433 . S
C714 H710 0.929 . S
C714 C716 1.378 . S
C714 C718 1.350 . S
C715 C718 1.463 . S
C715 C720 1.350 . S
C715 N723 1.427 . S
C716 H707 0.930 . S
C716 C714 1.378 . S
C716 C717 1.367 . S
C717 C716 1.367 . S
C717 C719 1.433 . S
C718 C714 1.350 . S
C718 C715 1.463 . S
C718 N722 1.427 . S
C719 H709 0.929 . S
C719 C717 1.433 . S
C719 N722 1.384 . S
C720 H711 0.929 . S
C720 C712 1.378 . S
C720 C715 1.350 . S
C721 H708 0.929 . S
C721 C713 1.433 . S
C721 N723 1.384 . S
N722 C718 1.427 . S
N722 C719 1.384 . S
N723 C715 1.427 . S
N723 C721 1.384 . S
H724 C730 0.930 . S
H725 C734 0.930 . S
H726 C739 0.929 . S
H727 C737 0.929 . S
H728 C732 0.929 . S
H729 C738 0.929 . S
C730 H724 0.930 . S
C730 C731 1.367 . S
C730 C738 1.378 . S
C731 C730 1.367 . S
C731 C739 1.433 . S
C732 H728 0.929 . S
C732 C734 1.378 . S
C732 C736 1.350 . S
C733 C736 1.463 . S
C733 C738 1.350 . S
C733 N741 1.427 . S
C734 H725 0.930 . S
C734 C732 1.378 . S
C734 C735 1.367 . S
C735 C734 1.367 . S
C735 C737 1.433 . S
C736 C732 1.350 . S
C736 C733 1.463 . S
C736 N740 1.427 . S
C737 H727 0.929 . S
C737 C735 1.433 . S
C737 N740 1.384 . S
C738 H729 0.929 . S
C738 C730 1.378 . S
C738 C733 1.350 . S
C739 H726 0.929 . S
C739 C731 1.433 . S
C739 N741 1.384 . S
N740 C736 1.427 . S
N740 C737 1.384 . S
N741 C733 1.427 . S
N741 C739 1.384 . S
H742 C748 0.930 . S
H743 C752 0.930 . S
H744 C757 0.929 . S
H745 C755 0.929 . S
H746 C750 0.929 . S
H747 C756 0.929 . S
C748 H742 0.930 . S
C748 C749 1.367 . S
C748 C756 1.378 . S
C749 C748 1.367 . S
C749 C757 1.433 . S
C750 H746 0.929 . S
C750 C752 1.378 . S
C750 C754 1.350 . S
C751 C754 1.463 . S
C751 C756 1.350 . S
C751 N759 1.427 . S
C752 H743 0.930 . S
C752 C750 1.378 . S
C752 C753 1.367 . S
C753 C752 1.367 . S
C753 C755 1.433 . S
C754 C750 1.350 . S
C754 C751 1.463 . S
C754 N758 1.427 . S
C755 H745 0.929 . S
C755 C753 1.433 . S
C755 N758 1.384 . S
C756 H747 0.929 . S
C756 C748 1.378 . S
C756 C751 1.350 . S
C757 H744 0.929 . S
C757 C749 1.433 . S
C757 N759 1.384 . S
N758 C754 1.427 . S
N758 C755 1.384 . S
N759 C751 1.427 . S
N759 C757 1.384 . S
H760 C766 0.930 . S
H761 C770 0.930 . S
H762 C775 0.929 . S
H763 C773 0.929 . S
H764 C768 0.929 . S
H765 C774 0.929 . S
C766 H760 0.930 . S
C766 C767 1.367 . S
C766 C774 1.378 . S
C767 C766 1.367 . S
C767 C775 1.433 . S
C768 H764 0.929 . S
C768 C770 1.378 . S
C768 C772 1.350 . S
C769 C772 1.463 . S
C769 C774 1.350 . S
C769 N777 1.427 . S
C770 H761 0.930 . S
C770 C768 1.378 . S
C770 C771 1.367 . S
C771 C770 1.367 . S
C771 C773 1.433 . S
C772 C768 1.350 . S
C772 C769 1.463 . S
C772 N776 1.427 . S
C773 H763 0.929 . S
C773 C771 1.433 . S
C773 N776 1.384 . S
C774 H765 0.929 . S
C774 C766 1.378 . S
C774 C769 1.350 . S
C775 H762 0.929 . S
C775 C767 1.433 . S
C775 N777 1.384 . S
N776 C772 1.427 . S
N776 C773 1.384 . S
N777 C769 1.427 . S
N777 C775 1.384 . S
H778 C784 0.930 . S
H779 C788 0.930 . S
H780 C793 0.929 . S
H781 C791 0.929 . S
H782 C786 0.929 . S
H783 C792 0.929 . S
C784 H778 0.930 . S
C784 C785 1.367 . S
C784 C792 1.378 . S
C785 C784 1.367 . S
C785 C793 1.433 . S
C786 H782 0.929 . S
C786 C788 1.378 . S
C786 C790 1.350 . S
C787 C790 1.463 . S
C787 C792 1.350 . S
C787 N795 1.427 . S
C788 H779 0.930 . S
C788 C786 1.378 . S
C788 C789 1.367 . S
C789 C788 1.367 . S
C789 C791 1.433 . S
C790 C786 1.350 . S
C790 C787 1.463 . S
C790 N794 1.427 . S
C791 H781 0.929 . S
C791 C789 1.433 . S
C791 N794 1.384 . S
C792 H783 0.929 . S
C792 C784 1.378 . S
C792 C787 1.350 . S
C793 H780 0.929 . S
C793 C785 1.433 . S
C793 N795 1.384 . S
N794 C790 1.427 . S
N794 C791 1.384 . S
N795 C787 1.427 . S
N795 C793 1.384 . S
H796 C802 0.930 . S
H797 C806 0.930 . S
H798 C811 0.929 . S
H799 C809 0.929 . S
H800 C804 0.929 . S
H801 C810 0.929 . S
C802 H796 0.930 . S
C802 C803 1.367 . S
C802 C810 1.378 . S
C803 C802 1.367 . S
C803 C811 1.433 . S
C804 H800 0.929 . S
C804 C806 1.378 . S
C804 C808 1.350 . S
C805 C808 1.463 . S
C805 C810 1.350 . S
C805 N813 1.427 . S
C806 H797 0.930 . S
C806 C804 1.378 . S
C806 C807 1.367 . S
C807 C806 1.367 . S
C807 C809 1.433 . S
C808 C804 1.350 . S
C808 C805 1.463 . S
C808 N812 1.427 . S
C809 H799 0.929 . S
C809 C807 1.433 . S
C809 N812 1.384 . S
C810 H801 0.929 . S
C810 C802 1.378 . S
C810 C805 1.350 . S
C811 H798 0.929 . S
C811 C803 1.433 . S
C811 N813 1.384 . S
N812 C808 1.427 . S
N812 C809 1.384 . S
N813 C805 1.427 . S
N813 C811 1.384 . S
H814 C820 0.930 . S
H815 C824 0.930 . S
H816 C829 0.929 . S
H817 C827 0.929 . S
H818 C822 0.929 . S
H819 C828 0.929 . S
C820 H814 0.930 . S
C820 C821 1.367 . S
C820 C828 1.378 . S
C821 C820 1.367 . S
C821 C829 1.433 . S
C822 H818 0.929 . S
C822 C824 1.378 . S
C822 C826 1.350 . S
C823 C826 1.463 . S
C823 C828 1.350 . S
C823 N831 1.427 . S
C824 H815 0.930 . S
C824 C822 1.378 . S
C824 C825 1.367 . S
C825 C824 1.367 . S
C825 C827 1.433 . S
C826 C822 1.350 . S
C826 C823 1.463 . S
C826 N830 1.427 . S
C827 H817 0.929 . S
C827 C825 1.433 . S
C827 N830 1.384 . S
C828 H819 0.929 . S
C828 C820 1.378 . S
C828 C823 1.350 . S
C829 H816 0.929 . S
C829 C821 1.433 . S
C829 N831 1.384 . S
N830 C826 1.427 . S
N830 C827 1.384 . S
N831 C823 1.427 . S
N831 C829 1.384 . S
H832 C838 0.930 . S
H833 C842 0.930 . S
H834 C847 0.929 . S
H835 C845 0.929 . S
H836 C840 0.929 . S
H837 C846 0.929 . S
C838 H832 0.930 . S
C838 C839 1.367 . S
C838 C846 1.378 . S
C839 C838 1.367 . S
C839 C847 1.433 . S
C840 H836 0.929 . S
C840 C842 1.378 . S
C840 C844 1.350 . S
C841 C844 1.463 . S
C841 C846 1.350 . S
C841 N849 1.427 . S
C842 H833 0.930 . S
C842 C840 1.378 . S
C842 C843 1.367 . S
C843 C842 1.367 . S
C843 C845 1.433 . S
C844 C840 1.350 . S
C844 C841 1.463 . S
C844 N848 1.427 . S
C845 H835 0.929 . S
C845 C843 1.433 . S
C845 N848 1.384 . S
C846 H837 0.929 . S
C846 C838 1.378 . S
C846 C841 1.350 . S
C847 H834 0.929 . S
C847 C839 1.433 . S
C847 N849 1.384 . S
N848 C844 1.427 . S
N848 C845 1.384 . S
N849 C841 1.427 . S
N849 C847 1.384 . S
H850 C856 0.930 . S
H851 C860 0.930 . S
H852 C865 0.929 . S
H853 C863 0.929 . S
H854 C858 0.929 . S
H855 C864 0.929 . S
C856 H850 0.930 . S
C856 C857 1.367 . S
C856 C864 1.378 . S
C857 C856 1.367 . S
C857 C865 1.433 . S
C858 H854 0.929 . S
C858 C860 1.378 . S
C858 C862 1.350 . S
C859 C862 1.463 . S
C859 C864 1.350 . S
C859 N867 1.427 . S
C860 H851 0.930 . S
C860 C858 1.378 . S
C860 C861 1.367 . S
C861 C860 1.367 . S
C861 C863 1.433 . S
C862 C858 1.350 . S
C862 C859 1.463 . S
C862 N866 1.427 . S
C863 H853 0.929 . S
C863 C861 1.433 . S
C863 N866 1.384 . S
C864 H855 0.929 . S
C864 C856 1.378 . S
C864 C859 1.350 . S
C865 H852 0.929 . S
C865 C857 1.433 . S
C865 N867 1.384 . S
N866 C862 1.427 . S
N866 C863 1.384 . S
N867 C859 1.427 . S
N867 C865 1.384 . S
H868 C874 0.930 . S
H869 C878 0.930 . S
H870 C883 0.929 . S
H871 C881 0.929 . S
H872 C876 0.929 . S
H873 C882 0.929 . S
C874 H868 0.930 . S
C874 C875 1.367 . S
C874 C882 1.378 . S
C875 C874 1.367 . S
C875 C883 1.433 . S
C876 H872 0.929 . S
C876 C878 1.378 . S
C876 C880 1.350 . S
C877 C880 1.463 . S
C877 C882 1.350 . S
C877 N885 1.427 . S
C878 H869 0.930 . S
C878 C876 1.378 . S
C878 C879 1.367 . S
C879 C878 1.367 . S
C879 C881 1.433 . S
C880 C876 1.350 . S
C880 C877 1.463 . S
C880 N884 1.427 . S
C881 H871 0.929 . S
C881 C879 1.433 . S
C881 N884 1.384 . S
C882 H873 0.929 . S
C882 C874 1.378 . S
C882 C877 1.350 . S
C883 H870 0.929 . S
C883 C875 1.433 . S
C883 N885 1.384 . S
N884 C880 1.427 . S
N884 C881 1.384 . S
N885 C877 1.427 . S
N885 C883 1.384 . S
H886 C892 0.930 . S
H887 C896 0.930 . S
H888 C901 0.929 . S
H889 C899 0.929 . S
H890 C894 0.929 . S
H891 C900 0.929 . S
C892 H886 0.930 . S
C892 C893 1.367 . S
C892 C900 1.378 . S
C893 C892 1.367 . S
C893 C901 1.433 . S
C894 H890 0.929 . S
C894 C896 1.378 . S
C894 C898 1.350 . S
C895 C898 1.463 . S
C895 C900 1.350 . S
C895 N903 1.427 . S
C896 H887 0.930 . S
C896 C894 1.378 . S
C896 C897 1.367 . S
C897 C896 1.367 . S
C897 C899 1.433 . S
C898 C894 1.350 . S
C898 C895 1.463 . S
C898 N902 1.427 . S
C899 H889 0.929 . S
C899 C897 1.433 . S
C899 N902 1.384 . S
C900 H891 0.929 . S
C900 C892 1.378 . S
C900 C895 1.350 . S
C901 H888 0.929 . S
C901 C893 1.433 . S
C901 N903 1.384 . S
N902 C898 1.427 . S
N902 C899 1.384 . S
N903 C895 1.427 . S
N903 C901 1.384 . S
H904 C910 0.930 . S
H905 C914 0.930 . S
H906 C919 0.929 . S
H907 C917 0.929 . S
H908 C912 0.929 . S
H909 C918 0.929 . S
C910 H904 0.930 . S
C910 C911 1.367 . S
C910 C918 1.378 . S
C911 C910 1.367 . S
C911 C919 1.433 . S
C912 H908 0.929 . S
C912 C914 1.378 . S
C912 C916 1.350 . S
C913 C916 1.463 . S
C913 C918 1.350 . S
C913 N921 1.427 . S
C914 H905 0.930 . S
C914 C912 1.378 . S
C914 C915 1.367 . S
C915 C914 1.367 . S
C915 C917 1.433 . S
C916 C912 1.350 . S
C916 C913 1.463 . S
C916 N920 1.427 . S
C917 H907 0.929 . S
C917 C915 1.433 . S
C917 N920 1.384 . S
C918 H909 0.929 . S
C918 C910 1.378 . S
C918 C913 1.350 . S
C919 H906 0.929 . S
C919 C911 1.433 . S
C919 N921 1.384 . S
N920 C916 1.427 . S
N920 C917 1.384 . S
N921 C913 1.427 . S
N921 C919 1.384 . S
H922 C928 0.930 . S
H923 C932 0.930 . S
H924 C937 0.929 . S
H925 C935 0.929 . S
H926 C930 0.929 . S
H927 C936 0.929 . S
C928 H922 0.930 . S
C928 C929 1.367 . S
C928 C936 1.378 . S
C929 C928 1.367 . S
C929 C937 1.433 . S
C930 H926 0.929 . S
C930 C932 1.378 . S
C930 C934 1.350 . S
C931 C934 1.463 . S
C931 C936 1.350 . S
C931 N939 1.427 . S
C932 H923 0.930 . S
C932 C930 1.378 . S
C932 C933 1.367 . S
C933 C932 1.367 . S
C933 C935 1.433 . S
C934 C930 1.350 . S
C934 C931 1.463 . S
C934 N938 1.427 . S
C935 H925 0.929 . S
C935 C933 1.433 . S
C935 N938 1.384 . S
C936 H927 0.929 . S
C936 C928 1.378 . S
C936 C931 1.350 . S
C937 H924 0.929 . S
C937 C929 1.433 . S
C937 N939 1.384 . S
N938 C934 1.427 . S
N938 C935 1.384 . S
N939 C931 1.427 . S
N939 C937 1.384 . S
H940 C946 0.930 . S
H941 C950 0.930 . S
H942 C955 0.929 . S
H943 C953 0.929 . S
H944 C948 0.929 . S
H945 C954 0.929 . S
C946 H940 0.930 . S
C946 C947 1.367 . S
C946 C954 1.378 . S
C947 C946 1.367 . S
C947 C955 1.433 . S
C948 H944 0.929 . S
C948 C950 1.378 . S
C948 C952 1.350 . S
C949 C952 1.463 . S
C949 C954 1.350 . S
C949 N957 1.427 . S
C950 H941 0.930 . S
C950 C948 1.378 . S
C950 C951 1.367 . S
C951 C950 1.367 . S
C951 C953 1.433 . S
C952 C948 1.350 . S
C952 C949 1.463 . S
C952 N956 1.427 . S
C953 H943 0.929 . S
C953 C951 1.433 . S
C953 N956 1.384 . S
C954 H945 0.929 . S
C954 C946 1.378 . S
C954 C949 1.350 . S
C955 H942 0.929 . S
C955 C947 1.433 . S
C955 N957 1.384 . S
N956 C952 1.427 . S
N956 C953 1.384 . S
N957 C949 1.427 . S
N957 C955 1.384 . S
H958 C964 0.930 . S
H959 C968 0.930 . S
H960 C973 0.929 . S
H961 C971 0.929 . S
H962 C966 0.929 . S
H963 C972 0.929 . S
C964 H958 0.930 . S
C964 C965 1.367 . S
C964 C972 1.378 . S
C965 C964 1.367 . S
C965 C973 1.433 . S
C966 H962 0.929 . S
C966 C968 1.378 . S
C966 C970 1.350 . S
C967 C970 1.463 . S
C967 C972 1.350 . S
C967 N975 1.427 . S
C968 H959 0.930 . S
C968 C966 1.378 . S
C968 C969 1.367 . S
C969 C968 1.367 . S
C969 C971 1.433 . S
C970 C966 1.350 . S
C970 C967 1.463 . S
C970 N974 1.427 . S
C971 H961 0.929 . S
C971 C969 1.433 . S
C971 N974 1.384 . S
C972 H963 0.929 . S
C972 C964 1.378 . S
C972 C967 1.350 . S
C973 H960 0.929 . S
C973 C965 1.433 . S
C973 N975 1.384 . S
N974 C970 1.427 . S
N974 C971 1.384 . S
N975 C967 1.427 . S
N975 C973 1.384 . S
H976 C982 0.930 . S
H977 C986 0.930 . S
H978 C991 0.929 1_655 S
H979 C989 0.929 1_455 S
H980 C984 0.929 . S
H981 C990 0.929 . S
C982 H976 0.930 . S
C982 C983 1.367 . S
C982 C990 1.378 . S
C983 C982 1.367 . S
C983 C991 1.433 . S
C984 H980 0.929 . S
C984 C986 1.378 . S
C984 C988 1.350 . S
C985 C988 1.463 1_445 S
C985 C990 1.350 . S
C985 N993 1.427 1_455 S
C986 H977 0.930 . S
C986 C984 1.378 . S
C986 C987 1.367 . S
C987 C986 1.367 . S
C987 C989 1.433 . S
C988 C984 1.350 . S
C988 C985 1.463 1_665 S
C988 N992 1.427 1_655 S
C989 H979 0.929 1_655 S
C989 C987 1.433 . S
C989 N992 1.384 1_655 S
C990 H981 0.929 . S
C990 C982 1.378 . S
C990 C985 1.350 . S
C991 H978 0.929 1_455 S
C991 C983 1.433 . S
C991 N993 1.384 1_455 S
N992 C988 1.427 1_455 S
N992 C989 1.384 1_455 S
N993 C985 1.427 1_655 S
N993 C991 1.384 1_655 S
H994 C1000 0.930 . S
H995 C1004 0.930 . S
H996 C1009 0.929 . S
H997 C1007 0.929 . S
H998 C1002 0.929 . S
H999 C1008 0.929 . S
C1000 H994 0.930 . S
C1000 C1001 1.367 . S
C1000 C1008 1.378 . S
C1001 C1000 1.367 . S
C1001 C1009 1.433 . S
C1002 H998 0.929 . S
C1002 C1004 1.378 . S
C1002 C1006 1.350 . S
C1003 C1006 1.463 1_455 S
C1003 C1008 1.350 . S
C1003 N1011 1.427 . S
C1004 H995 0.930 . S
C1004 C1002 1.378 . S
C1004 C1005 1.367 . S
C1005 C1004 1.367 . S
C1005 C1007 1.433 . S
C1006 C1002 1.350 . S
C1006 C1003 1.463 1_655 S
C1006 N1010 1.427 . S
C1007 H997 0.929 . S
C1007 C1005 1.433 . S
C1007 N1010 1.384 . S
C1008 H999 0.929 . S
C1008 C1000 1.378 . S
C1008 C1003 1.350 . S
C1009 H996 0.929 . S
C1009 C1001 1.433 . S
C1009 N1011 1.384 . S
N1010 C1006 1.427 . S
N1010 C1007 1.384 . S
N1011 C1003 1.427 . S
N1011 C1009 1.384 . S
H1012 C1018 0.930 . S
H1013 C1022 0.930 . S
H1014 C1027 0.929 . S
H1015 C1025 0.929 . S
H1016 C1020 0.929 . S
H1017 C1026 0.929 . S
C1018 H1012 0.930 . S
C1018 C1019 1.367 . S
C1018 C1026 1.378 . S
C1019 C1018 1.367 . S
C1019 C1027 1.433 . S
C1020 H1016 0.929 . S
C1020 C1022 1.378 . S
C1020 C1024 1.350 . S
C1021 C1024 1.463 . S
C1021 C1026 1.350 . S
C1021 N1029 1.427 . S
C1022 H1013 0.930 . S
C1022 C1020 1.378 . S
C1022 C1023 1.367 . S
C1023 C1022 1.367 . S
C1023 C1025 1.433 . S
C1024 C1020 1.350 . S
C1024 C1021 1.463 . S
C1024 N1028 1.427 . S
C1025 H1015 0.929 . S
C1025 C1023 1.433 . S
C1025 N1028 1.384 . S
C1026 H1017 0.929 . S
C1026 C1018 1.378 . S
C1026 C1021 1.350 . S
C1027 H1014 0.929 . S
C1027 C1019 1.433 . S
C1027 N1029 1.384 . S
N1028 C1024 1.427 . S
N1028 C1025 1.384 . S
N1029 C1021 1.427 . S
N1029 C1027 1.384 . S
H1030 C1036 0.930 . S
H1031 C1040 0.930 . S
H1032 C1045 0.929 . S
H1033 C1043 0.929 . S
H1034 C1038 0.929 . S
H1035 C1044 0.929 . S
C1036 H1030 0.930 . S
C1036 C1037 1.367 . S
C1036 C1044 1.378 . S
C1037 C1036 1.367 . S
C1037 C1045 1.433 . S
C1038 H1034 0.929 . S
C1038 C1040 1.378 . S
C1038 C1042 1.350 . S
C1039 C1042 1.463 1_545 S
C1039 C1044 1.350 . S
C1039 N1047 1.427 . S
C1040 H1031 0.930 . S
C1040 C1038 1.378 . S
C1040 C1041 1.367 . S
C1041 C1040 1.367 . S
C1041 C1043 1.433 . S
C1042 C1038 1.350 . S
C1042 C1039 1.463 1_565 S
C1042 N1046 1.427 . S
C1043 H1033 0.929 . S
C1043 C1041 1.433 . S
C1043 N1046 1.384 . S
C1044 H1035 0.929 . S
C1044 C1036 1.378 . S
C1044 C1039 1.350 . S
C1045 H1032 0.929 . S
C1045 C1037 1.433 . S
C1045 N1047 1.384 . S
N1046 C1042 1.427 . S
N1046 C1043 1.384 . S
N1047 C1039 1.427 . S
N1047 C1045 1.384 . S
H1048 C1054 0.913 1_655 S
H1049 C1058 0.913 1_455 S
H1050 C1063 0.929 . S
H1051 C1061 0.929 . S
H1052 C1056 0.929 . S
H1053 C1062 0.929 . S
C1054 H1048 0.913 1_455 S
C1054 C1055 1.397 . S
C1054 C1062 1.365 1_455 S
C1055 C1054 1.397 . S
C1055 C1063 1.433 . S
C1056 H1052 0.929 . S
C1056 C1058 1.365 1_455 S
C1056 C1060 1.350 1_455 S
C1057 C1060 1.463 1_455 S
C1057 C1062 1.350 1_455 S
C1057 N1065 1.427 . S
C1058 H1049 0.913 1_655 S
C1058 C1056 1.365 1_655 S
C1058 C1059 1.397 . S
C1059 C1058 1.397 . S
C1059 C1061 1.433 . S
C1060 C1056 1.350 1_655 S
C1060 C1057 1.463 1_655 S
C1060 N1064 1.427 . S
C1061 H1051 0.929 . S
C1061 C1059 1.433 . S
C1061 N1064 1.384 . S
C1062 H1053 0.929 . S
C1062 C1054 1.365 1_655 S
C1062 C1057 1.350 1_655 S
C1063 H1050 0.929 . S
C1063 C1055 1.433 . S
C1063 N1065 1.384 . S
N1064 C1060 1.427 . S
N1064 C1061 1.384 . S
N1065 C1057 1.427 . S
N1065 C1063 1.384 . S
H1066 C1072 0.930 . S
H1067 C1076 0.930 . S
H1068 C1081 0.929 . S
H1069 C1079 0.929 . S
H1070 C1074 0.929 . S
H1071 C1080 0.929 . S
C1072 H1066 0.930 . S
C1072 C1073 1.367 . S
C1072 C1080 1.378 . S
C1073 C1072 1.367 . S
C1073 C1081 1.433 . S
C1074 H1070 0.929 . S
C1074 C1076 1.378 . S
C1074 C1078 1.350 . S
C1075 C1078 1.463 . S
C1075 C1080 1.350 . S
C1075 N1083 1.427 . S
C1076 H1067 0.930 . S
C1076 C1074 1.378 . S
C1076 C1077 1.367 . S
C1077 C1076 1.367 . S
C1077 C1079 1.433 . S
C1078 C1074 1.350 . S
C1078 C1075 1.463 . S
C1078 N1082 1.427 . S
C1079 H1069 0.929 . S
C1079 C1077 1.433 . S
C1079 N1082 1.384 . S
C1080 H1071 0.929 . S
C1080 C1072 1.378 . S
C1080 C1075 1.350 . S
C1081 H1068 0.929 . S
C1081 C1073 1.433 . S
C1081 N1083 1.384 . S
N1082 C1078 1.427 . S
N1082 C1079 1.384 . S
N1083 C1075 1.427 . S
N1083 C1081 1.384 . S
H1084 C1090 0.930 . S
H1085 C1094 0.930 . S
H1086 C1099 0.929 . S
H1087 C1097 0.929 . S
H1088 C1092 0.929 . S
H1089 C1098 0.929 . S
C1090 H1084 0.930 . S
C1090 C1091 1.367 . S
C1090 C1098 1.378 . S
C1091 C1090 1.367 . S
C1091 C1099 1.433 . S
C1092 H1088 0.929 . S
C1092 C1094 1.378 . S
C1092 C1096 1.350 . S
C1093 C1096 1.463 1_565 S
C1093 C1098 1.350 . S
C1093 N1101 1.427 . S
C1094 H1085 0.930 . S
C1094 C1092 1.378 . S
C1094 C1095 1.367 . S
C1095 C1094 1.367 . S
C1095 C1097 1.433 . S
C1096 C1092 1.350 . S
C1096 C1093 1.463 1_545 S
C1096 N1100 1.427 . S
C1097 H1087 0.929 . S
C1097 C1095 1.433 . S
C1097 N1100 1.384 . S
C1098 H1089 0.929 . S
C1098 C1090 1.378 . S
C1098 C1093 1.350 . S
C1099 H1086 0.929 . S
C1099 C1091 1.433 . S
C1099 N1101 1.384 . S
N1100 C1096 1.427 . S
N1100 C1097 1.384 . S
N1101 C1093 1.427 . S
N1101 C1099 1.384 . S
H1102 C1108 0.930 . S
H1103 C1112 0.930 . S
H1104 C1117 0.929 . S
H1105 C1115 0.929 . S
H1106 C1110 0.929 1_545 S
H1107 C1116 0.929 1_565 S
C1108 H1102 0.930 . S
C1108 C1109 1.367 . S
C1108 C1116 1.378 . S
C1109 C1108 1.367 . S
C1109 C1117 1.433 . S
C1110 H1106 0.929 1_565 S
C1110 C1112 1.378 . S
C1110 C1114 1.350 . S
C1111 C1114 1.463 1_445 S
C1111 C1116 1.350 . S
C1111 N1119 1.427 . S
C1112 H1103 0.930 . S
C1112 C1110 1.378 . S
C1112 C1113 1.367 . S
C1113 C1112 1.367 . S
C1113 C1115 1.433 . S
C1114 C1110 1.350 . S
C1114 C1111 1.463 1_665 S
C1114 N1118 1.427 . S
C1115 H1105 0.929 . S
C1115 C1113 1.433 . S
C1115 N1118 1.384 . S
C1116 H1107 0.929 1_545 S
C1116 C1108 1.378 . S
C1116 C1111 1.350 . S
C1117 H1104 0.929 . S
C1117 C1109 1.433 . S
C1117 N1119 1.384 . S
N1118 C1114 1.427 . S
N1118 C1115 1.384 . S
N1119 C1111 1.427 . S
N1119 C1117 1.384 . S
H1120 C1126 0.930 . S
H1121 C1130 0.930 . S
H1122 C1135 0.929 . S
H1123 C1133 0.929 . S
H1124 C1128 0.929 . S
H1125 C1134 0.929 . S
C1126 H1120 0.930 . S
C1126 C1127 1.367 . S
C1126 C1134 1.378 . S
C1127 C1126 1.367 . S
C1127 C1135 1.433 . S
C1128 H1124 0.929 . S
C1128 C1130 1.378 . S
C1128 C1132 1.350 . S
C1129 C1132 1.463 . S
C1129 C1134 1.350 . S
C1129 N1137 1.427 . S
C1130 H1121 0.930 . S
C1130 C1128 1.378 . S
C1130 C1131 1.367 . S
C1131 C1130 1.367 . S
C1131 C1133 1.433 . S
C1132 C1128 1.350 . S
C1132 C1129 1.463 . S
C1132 N1136 1.427 . S
C1133 H1123 0.929 . S
C1133 C1131 1.433 . S
C1133 N1136 1.384 . S
C1134 H1125 0.929 . S
C1134 C1126 1.378 . S
C1134 C1129 1.350 . S
C1135 H1122 0.929 . S
C1135 C1127 1.433 . S
C1135 N1137 1.384 . S
N1136 C1132 1.427 . S
N1136 C1133 1.384 . S
N1137 C1129 1.427 . S
N1137 C1135 1.384 . S
H1138 C1144 0.930 . S
H1139 C1148 0.930 . S
H1140 C1153 0.929 . S
H1141 C1151 0.929 . S
H1142 C1146 0.929 . S
H1143 C1152 0.929 . S
C1144 H1138 0.930 . S
C1144 C1145 1.367 . S
C1144 C1152 1.378 . S
C1145 C1144 1.367 . S
C1145 C1153 1.433 . S
C1146 H1142 0.929 . S
C1146 C1148 1.378 . S
C1146 C1150 1.350 . S
C1147 C1150 1.463 . S
C1147 C1152 1.350 . S
C1147 N1155 1.427 . S
C1148 H1139 0.930 . S
C1148 C1146 1.378 . S
C1148 C1149 1.367 . S
C1149 C1148 1.367 . S
C1149 C1151 1.433 . S
C1150 C1146 1.350 . S
C1150 C1147 1.463 . S
C1150 N1154 1.427 . S
C1151 H1141 0.929 . S
C1151 C1149 1.433 . S
C1151 N1154 1.384 . S
C1152 H1143 0.929 . S
C1152 C1144 1.378 . S
C1152 C1147 1.350 . S
C1153 H1140 0.929 . S
C1153 C1145 1.433 . S
C1153 N1155 1.384 . S
N1154 C1150 1.427 . S
N1154 C1151 1.384 . S
N1155 C1147 1.427 . S
N1155 C1153 1.384 . S
H1156 C1162 0.930 . S
H1157 C1166 0.930 . S
H1158 C1171 0.929 . S
H1159 C1169 0.929 . S
H1160 C1164 0.929 . S
H1161 C1170 0.929 . S
C1162 H1156 0.930 . S
C1162 C1163 1.367 . S
C1162 C1170 1.378 . S
C1163 C1162 1.367 . S
C1163 C1171 1.433 . S
C1164 H1160 0.929 . S
C1164 C1166 1.378 . S
C1164 C1168 1.350 . S
C1165 C1168 1.463 . S
C1165 C1170 1.350 . S
C1165 N1173 1.427 . S
C1166 H1157 0.930 . S
C1166 C1164 1.378 . S
C1166 C1167 1.367 . S
C1167 C1166 1.367 . S
C1167 C1169 1.433 . S
C1168 C1164 1.350 . S
C1168 C1165 1.463 . S
C1168 N1172 1.427 . S
C1169 H1159 0.929 . S
C1169 C1167 1.433 . S
C1169 N1172 1.384 . S
C1170 H1161 0.929 . S
C1170 C1162 1.378 . S
C1170 C1165 1.350 . S
C1171 H1158 0.929 . S
C1171 C1163 1.433 . S
C1171 N1173 1.384 . S
N1172 C1168 1.427 . S
N1172 C1169 1.384 . S
N1173 C1165 1.427 . S
N1173 C1171 1.384 . S
H1174 C1180 0.930 . S
H1175 C1184 0.930 . S
H1176 C1189 0.929 . S
H1177 C1187 0.929 . S
H1178 C1182 0.929 . S
H1179 C1188 0.929 . S
C1180 H1174 0.930 . S
C1180 C1181 1.367 . S
C1180 C1188 1.378 . S
C1181 C1180 1.367 . S
C1181 C1189 1.433 . S
C1182 H1178 0.929 . S
C1182 C1184 1.378 . S
C1182 C1186 1.350 . S
C1183 C1186 1.463 . S
C1183 C1188 1.350 . S
C1183 N1191 1.427 . S
C1184 H1175 0.930 . S
C1184 C1182 1.378 . S
C1184 C1185 1.367 . S
C1185 C1184 1.367 . S
C1185 C1187 1.433 . S
C1186 C1182 1.350 . S
C1186 C1183 1.463 . S
C1186 N1190 1.427 . S
C1187 H1177 0.929 . S
C1187 C1185 1.433 . S
C1187 N1190 1.384 . S
C1188 H1179 0.929 . S
C1188 C1180 1.378 . S
C1188 C1183 1.350 . S
C1189 H1176 0.929 . S
C1189 C1181 1.433 . S
C1189 N1191 1.384 . S
N1190 C1186 1.427 . S
N1190 C1187 1.384 . S
N1191 C1183 1.427 . S
N1191 C1189 1.384 . S
H1192 C1198 0.930 . S
H1193 C1202 0.930 . S
H1194 C1207 0.929 . S
H1195 C1205 0.929 . S
H1196 C1200 0.929 . S
H1197 C1206 0.929 . S
C1198 H1192 0.930 . S
C1198 C1199 1.367 . S
C1198 C1206 1.378 . S
C1199 C1198 1.367 . S
C1199 C1207 1.433 . S
C1200 H1196 0.929 . S
C1200 C1202 1.378 . S
C1200 C1204 1.350 . S
C1201 C1204 1.463 . S
C1201 C1206 1.350 . S
C1201 N1209 1.427 . S
C1202 H1193 0.930 . S
C1202 C1200 1.378 . S
C1202 C1203 1.367 . S
C1203 C1202 1.367 . S
C1203 C1205 1.433 . S
C1204 C1200 1.350 . S
C1204 C1201 1.463 . S
C1204 N1208 1.427 . S
C1205 H1195 0.929 . S
C1205 C1203 1.433 . S
C1205 N1208 1.384 . S
C1206 H1197 0.929 . S
C1206 C1198 1.378 . S
C1206 C1201 1.350 . S
C1207 H1194 0.929 . S
C1207 C1199 1.433 . S
C1207 N1209 1.384 . S
N1208 C1204 1.427 . S
N1208 C1205 1.384 . S
N1209 C1201 1.427 . S
N1209 C1207 1.384 . S
H1210 C1216 0.930 . S
H1211 C1220 0.930 . S
H1212 C1225 0.929 . S
H1213 C1223 0.929 . S
H1214 C1218 0.929 . S
H1215 C1224 0.929 . S
C1216 H1210 0.930 . S
C1216 C1217 1.367 . S
C1216 C1224 1.378 . S
C1217 C1216 1.367 . S
C1217 C1225 1.433 . S
C1218 H1214 0.929 . S
C1218 C1220 1.378 . S
C1218 C1222 1.350 . S
C1219 C1222 1.463 . S
C1219 C1224 1.350 . S
C1219 N1227 1.427 . S
C1220 H1211 0.930 . S
C1220 C1218 1.378 . S
C1220 C1221 1.367 . S
C1221 C1220 1.367 . S
C1221 C1223 1.433 . S
C1222 C1218 1.350 . S
C1222 C1219 1.463 . S
C1222 N1226 1.427 . S
C1223 H1213 0.929 . S
C1223 C1221 1.433 . S
C1223 N1226 1.384 . S
C1224 H1215 0.929 . S
C1224 C1216 1.378 . S
C1224 C1219 1.350 . S
C1225 H1212 0.929 . S
C1225 C1217 1.433 . S
C1225 N1227 1.384 . S
N1226 C1222 1.427 . S
N1226 C1223 1.384 . S
N1227 C1219 1.427 . S
N1227 C1225 1.384 . S
H1228 C1234 0.930 . S
H1229 C1238 0.930 . S
H1230 C1243 0.929 . S
H1231 C1241 0.929 . S
H1232 C1236 0.929 . S
H1233 C1242 0.929 . S
C1234 H1228 0.930 . S
C1234 C1235 1.367 . S
C1234 C1242 1.378 . S
C1235 C1234 1.367 . S
C1235 C1243 1.433 . S
C1236 H1232 0.929 . S
C1236 C1238 1.378 . S
C1236 C1240 1.350 . S
C1237 C1240 1.463 . S
C1237 C1242 1.350 . S
C1237 N1245 1.427 . S
C1238 H1229 0.930 . S
C1238 C1236 1.378 . S
C1238 C1239 1.367 . S
C1239 C1238 1.367 . S
C1239 C1241 1.433 . S
C1240 C1236 1.350 . S
C1240 C1237 1.463 . S
C1240 N1244 1.427 . S
C1241 H1231 0.929 . S
C1241 C1239 1.433 . S
C1241 N1244 1.384 . S
C1242 H1233 0.929 . S
C1242 C1234 1.378 . S
C1242 C1237 1.350 . S
C1243 H1230 0.929 . S
C1243 C1235 1.433 . S
C1243 N1245 1.384 . S
N1244 C1240 1.427 . S
N1244 C1241 1.384 . S
N1245 C1237 1.427 . S
N1245 C1243 1.384 . S
H1246 C1252 0.930 . S
H1247 C1256 0.930 . S
H1248 C1261 0.929 . S
H1249 C1259 0.929 . S
H1250 C1254 0.929 . S
H1251 C1260 0.929 . S
C1252 H1246 0.930 . S
C1252 C1253 1.367 . S
C1252 C1260 1.378 . S
C1253 C1252 1.367 . S
C1253 C1261 1.433 . S
C1254 H1250 0.929 . S
C1254 C1256 1.378 . S
C1254 C1258 1.350 . S
C1255 C1258 1.463 . S
C1255 C1260 1.350 . S
C1255 N1263 1.427 . S
C1256 H1247 0.930 . S
C1256 C1254 1.378 . S
C1256 C1257 1.367 . S
C1257 C1256 1.367 . S
C1257 C1259 1.433 . S
C1258 C1254 1.350 . S
C1258 C1255 1.463 . S
C1258 N1262 1.427 . S
C1259 H1249 0.929 . S
C1259 C1257 1.433 . S
C1259 N1262 1.384 . S
C1260 H1251 0.929 . S
C1260 C1252 1.378 . S
C1260 C1255 1.350 . S
C1261 H1248 0.929 . S
C1261 C1253 1.433 . S
C1261 N1263 1.384 . S
N1262 C1258 1.427 . S
N1262 C1259 1.384 . S
N1263 C1255 1.427 . S
N1263 C1261 1.384 . S
C551 C5 0.912 . S
C555 C447 0.913 . S
C569 C481 0.911 . S
C573 C39 0.913 . S
C587 C515 0.911 . S
C591 C73 0.901 . S
C605 C413 0.911 . S
C609 C107 0.913 . S
C623 C379 0.897 . S
C627 C141 0.903 . S
C641 C277 0.909 . S
C645 C175 0.914 . S
C659 C209 0.898 . S
C663 C311 0.906 . S
C677 C345 0.900 . S
C681 C243 0.898 . S
C695 C339 1.715 . S
C699 C9 1.797 . S
C713 C43 1.795 . S
C717 C373 1.720 . S
C731 C77 1.800 . S
C735 C407 1.708 . S
C749 C111 1.801 . S
C753 C305 1.708 . S
C767 C145 1.795 . S
C771 C543 1.720 . S
C785 C441 1.718 . S
C789 C179 1.796 . S
C803 C475 1.721 . S
C807 C213 1.795 . S
C821 C509 1.707 . S
C825 C247 1.801 . S
C839 C281 1.801 . S
C843 C67 1.709 . S
C857 C315 1.799 . S
C861 C101 1.715 . S
C875 C349 1.801 . S
C879 C135 1.707 . S
C893 C33 1.707 . S
C897 C383 1.801 . S
C911 C417 1.798 . S
C915 C271 1.711 . S
C929 C169 1.721 . S
C933 C451 1.795 . S
C947 C485 1.801 . S
C951 C203 1.707 . S
C965 C519 1.801 . S
C969 C237 1.707 . S
C983 C20 1.719 . S
C987 C360 1.716 . S
C1001 C394 1.726 . S
C1005 C54 1.730 . S
C1019 C88 1.719 . S
C1023 C292 1.726 . S
C1037 C326 1.718 . S
C1041 C122 1.725 . S
C1055 C156 1.728 . S
C1059 C496 1.729 . S
C1073 C530 1.717 . S
C1077 C190 1.724 . S
C1091 C428 1.717 . S
C1095 C224 1.724 . S
C1109 C462 1.728 . S
C1113 C258 1.721 . S
C1127 C206 0.847 . S
C1131 C2 0.850 . S
C1145 C36 0.854 . S
C1149 C240 0.855 . S
C1163 C138 0.852 . S
C1167 C70 0.854 . S
C1181 C104 0.855 . S
C1185 C172 0.855 . S
C1199 C274 0.839 . S
C1203 C478 0.840 . S
C1217 C308 0.839 . S
C1221 C512 0.839 . S
C1235 C342 0.848 . S
C1239 C410 0.846 . S
C1253 C444 0.855 . S
C1257 C376 0.855 . S
