# Generated by pormake.
# Topology qtz-x, (6)-cn, num edge types: 1
# Building blocks:
#     Node 0, Type 0, BuildingBlock: KUMBOL_clean_sbu_1, # of connection points: 6
#     Node 1, Type 0, BuildingBlock: KUMBOL_clean_sbu_1, # of connection points: 6
#     Node 2, Type 0, BuildingBlock: KUMBOL_clean_sbu_1, # of connection points: 6
#     Edge 3, Type (0, 0), BuildingBlock: XUDNAN_clean_linker_2, # of connection points: 2
#     Edge 4, Type (0, 0), BuildingBlock: XUDNAN_clean_linker_2, # of connection points: 2
#     Edge 5, Type (0, 0), BuildingBlock: XUDNAN_clean_linker_2, # of connection points: 2
#     Edge 6, Type (0, 0), BuildingBlock: XUDNAN_clean_linker_2, # of connection points: 2
#     Edge 7, Type (0, 0), BuildingBlock: XUDNAN_clean_linker_2, # of connection points: 2
#     Edge 8, Type (0, 0), BuildingBlock: XUDNAN_clean_linker_2, # of connection points: 2
#     Edge 9, Type (0, 0), BuildingBlock: XUDNAN_clean_linker_2, # of connection points: 2
#     Edge 10, Type (0, 0), BuildingBlock: XUDNAN_clean_linker_2, # of connection points: 2
#     Edge 11, Type (0, 0), BuildingBlock: XUDNAN_clean_linker_2, # of connection points: 2
# Relax obj value: 0.199
# Max RMSD: 0.278
# Mean RMSD: 0.278
data_MOF--net-qtz-x--node1-KUMBOL_clean_sbu_1--edge1-XUDNAN_clean_linker_2
_symmetry_space_group_name_H-M    P1
_symmetry_Int_Tables_number       1
_symmetry_cell_setting            triclinic
loop_
_symmetry_equiv_pos_as_xyz
'x, y, z'
_cell_length_a     14.929741
_cell_length_b     14.920084
_cell_length_c     52.803351
_cell_angle_alpha  90.176096
_cell_angle_beta   90.154435
_cell_angle_gamma 119.84071
loop_
_atom_site_label
_atom_site_type_symbol
_atom_site_fract_x
_atom_site_fract_y
_atom_site_fract_z
_atom_type_partial_charge
C0 C 0.42616 0.62108 0.14914 0.0
C1 C 0.49055 0.79877 0.1363 0.0
C2 C 0.41826 0.71035 0.14968 0.0
C3 C 0.56619 0.79435 0.12144 0.0
C4 C 0.50338 0.61717 0.13465 0.0
C5 C 0.57252 0.70385 0.12061 0.0
N6 N 0.35653 0.53695 0.16235 0.0
C7 C 0.36291 0.44863 0.16298 0.0
C8 C 0.50865 0.52599 0.13463 0.0
C9 C 0.43858 0.44167 0.14899 0.0
Gd10 Gd 0.96723 0.44793 0.14218 0.0
Gd11 Gd 0.22974 0.55484 0.18435 0.0
N12 N 0.34349 0.71246 0.16409 0.0
C13 C 0.48707 0.89028 0.1389 0.0
C14 C 0.34783 0.80481 0.16878 0.0
C15 C 0.41693 0.89385 0.15566 0.0
H16 H 0.3005 0.81204 0.1831 0.0
H17 H 0.4177 0.96588 0.15896 0.0
H18 H 0.87497 0.18779 0.14584 0.0
H19 H 0.30782 0.38307 0.17389 0.0
H20 H 0.7312 0.03716 0.16573 0.0
H21 H 0.54134 0.95982 0.12901 0.0
H22 H 0.62153 0.86128 0.1109 0.0
H23 H 0.90523 0.63385 0.14424 0.0
H24 H 0.56696 0.52013 0.12374 0.0
H25 H 0.44271 0.37128 0.14923 0.0
H26 H 0.51936 0.16567 0.19962 0.0
H27 H 0.63201 0.7021 0.10926 0.0
H28 H 0.62119 0.52032 0.18461 0.0
H29 H 0.769 0.66256 0.16236 0.0
N30 N 0.83768 0.47929 0.15716 0.0
C31 C 0.75519 0.39883 0.1684 0.0
C32 C 0.84221 0.57231 0.15439 0.0
C33 C 0.68106 0.50765 0.17682 0.0
C34 C 0.76461 0.58829 0.16438 0.0
C35 C 0.67474 0.41105 0.17864 0.0
H36 H 0.52806 0.33461 0.19818 0.0
N37 N 0.83055 0.29492 0.15947 0.0
C38 C 0.75189 0.30423 0.16974 0.0
C39 C 0.66035 0.12231 0.17991 0.0
C40 C 0.66558 0.2185 0.1806 0.0
C41 C 0.82086 0.19924 0.15685 0.0
C42 C 0.73727 0.1123 0.16752 0.0
O43 O 0.22056 0.49513 0.14453 0.0
O44 O 0.12413 0.55552 0.12632 0.0
O45 O 0.9184 0.35274 0.10814 0.0
O46 O 0.89909 0.48671 0.11073 0.0
O47 O 0.14908 0.64958 0.18389 0.0
O48 O 0.07336 0.62173 0.14429 0.0
O49 O 0.9563 0.48294 0.18339 0.0
O50 O 0.0768 0.45443 0.2039 0.0
O51 O 0.29 0.64417 0.2194 0.0
O52 O 0.32974 0.52873 0.20915 0.0
O53 O 0.03538 0.34052 0.14757 0.0
O54 O 0.11962 0.38389 0.18659 0.0
C55 C 0.19373 0.52755 0.12458 0.0
C56 C 0.10669 0.6756 0.16545 0.0
C57 C 0.78038 0.34996 0.08503 0.0
C58 C 0.67179 0.33253 0.04862 0.0
C59 C 0.60233 0.21101 0.08352 0.0
C60 C 0.69736 0.26322 0.09616 0.0
C61 C 0.58957 0.24491 0.0598 0.0
C62 C 0.76693 0.38462 0.06146 0.0
C63 C 0.88201 0.40655 0.09739 0.0
C64 C 0.58586 0.23061 0.19111 0.0
C65 C 0.5906 0.32671 0.19021 0.0
H66 H 0.5954 0.05465 0.18803 0.0
C67 C 0.99354 0.46371 0.20392 0.0
C68 C 0.07064 0.31723 0.16815 0.0
C69 C 0.31979 0.55522 0.25279 0.0
C70 C 0.35784 0.59283 0.29792 0.0
C71 C 0.26776 0.415 0.28278 0.0
C72 C 0.27138 0.44894 0.25802 0.0
C73 C 0.31009 0.48613 0.30263 0.0
C74 C 0.36203 0.62664 0.27282 0.0
C75 C 0.335 0.59281 0.22647 0.0
H76 H 0.53852 0.14382 0.09209 0.0
H77 H 0.706 0.23568 0.11443 0.0
H78 H 0.51548 0.20323 0.05028 0.0
H79 H 0.83162 0.45119 0.05284 0.0
H80 H 0.23169 0.33308 0.28661 0.0
H81 H 0.2381 0.39209 0.24295 0.0
H82 H 0.30754 0.45753 0.3216 0.0
H83 H 0.39956 0.70858 0.26875 0.0
C84 C 0.47052 0.69494 0.4908 0.0
C85 C 0.57222 0.61905 0.4762 0.0
C86 C 0.56592 0.70002 0.48844 0.0
C87 C 0.48254 0.53463 0.46615 0.0
C88 C 0.38096 0.61171 0.48013 0.0
C89 C 0.38728 0.53102 0.4681 0.0
N90 N 0.46612 0.7738 0.50261 0.0
C91 C 0.3753 0.77421 0.50469 0.0
C92 C 0.28795 0.61303 0.48148 0.0
C93 C 0.28504 0.69441 0.49389 0.0
Gd94 Gd 0.76234 0.17341 0.47924 0.0
Gd95 Gd 0.62119 0.90431 0.51957 0.0
N96 N 0.65197 0.78328 0.49819 0.0
C97 C 0.6683 0.62447 0.47469 0.0
C98 C 0.74454 0.78539 0.49805 0.0
C99 C 0.75445 0.7073 0.48594 0.0
H100 H 0.81079 0.84465 0.50789 0.0
H101 H 0.82829 0.71005 0.48571 0.0
H102 H 0.57682 0.24196 0.47709 0.0
H103 H 0.37282 0.83645 0.51455 0.0
H104 H 0.54134 0.3701 0.49695 0.0
H105 H 0.67631 0.56386 0.46546 0.0
H106 H 0.48606 0.4717 0.4568 0.0
H107 H 0.01483 0.26221 0.48674 0.0
H108 H 0.21809 0.55182 0.47292 0.0
H109 H 0.21323 0.69548 0.4952 0.0
H110 H 0.85542 0.59813 0.54089 0.0
H111 H 0.31902 0.46588 0.46001 0.0
H112 H 0.14054 0.53752 0.53197 0.0
H113 H 0.16275 0.40426 0.5094 0.0
N114 N 0.90974 0.31252 0.49734 0.0
C115 C 0.89631 0.38618 0.50908 0.0
C116 C 1.00441 0.31955 0.49674 0.0
C117 C 0.07539 0.4752 0.52215 0.0
C118 C 0.08825 0.40006 0.50945 0.0
C119 C 0.979 0.46975 0.52177 0.0
H120 H 0.02549 0.6097 0.54349 0.0
N121 N 0.7213 0.29572 0.49583 0.0
C122 C 0.7991 0.37706 0.50846 0.0
C123 C 0.68849 0.44969 0.51603 0.0
C124 C 0.78407 0.45511 0.51934 0.0
C125 C 0.63235 0.2967 0.49029 0.0
C126 C 0.61321 0.37148 0.50091 0.0
O127 O 0.57309 0.89942 0.4786 0.0
O128 O 0.73055 0.01875 0.46532 0.0
O129 O 0.70706 0.19635 0.44314 0.0
O130 O 0.87095 0.26522 0.44992 0.0
O131 O 0.79625 0.99182 0.51847 0.0
O132 O 0.85016 0.08537 0.48101 0.0
O133 O 0.80878 0.18273 0.52042 0.0
O134 O 0.66204 0.05539 0.53902 0.0
O135 O 0.67207 0.84873 0.55144 0.0
O136 O 0.51453 0.81954 0.54975 0.0
O137 O 0.58616 0.08892 0.48331 0.0
O138 O 0.55172 0.00718 0.52215 0.0
C139 C 0.6369 0.94655 0.46005 0.0
C140 C 0.86762 0.045 0.50141 0.0
C141 C 0.81553 0.3525 0.42241 0.0
C142 C 0.82789 0.44562 0.38345 0.0
C143 C 0.84942 0.529 0.42451 0.0
C144 C 0.83456 0.43965 0.43668 0.0
C145 C 0.84657 0.53238 0.39807 0.0
C146 C 0.81113 0.35541 0.39596 0.0
C147 C 0.7993 0.25723 0.43451 0.0
C148 C 0.86588 0.53798 0.53227 0.0
C149 C 0.96292 0.54493 0.53362 0.0
H150 H 0.67392 0.50821 0.52402 0.0
C151 C 0.75421 0.13739 0.54061 0.0
C152 C 0.52873 0.05168 0.50375 0.0
C153 C 0.54626 0.70605 0.5748 0.0
C154 C 0.54917 0.6197 0.61387 0.0
C155 C 0.42292 0.52463 0.58055 0.0
C156 C 0.46246 0.61387 0.5658 0.0
C157 C 0.46443 0.52765 0.60458 0.0
C158 C 0.59171 0.70713 0.59808 0.0
C159 C 0.58187 0.80563 0.56219 0.0
H160 H 0.86436 0.59625 0.4356 0.0
H161 H 0.83829 0.4388 0.45712 0.0
H162 H 0.86128 0.6036 0.38911 0.0
H163 H 0.79447 0.28686 0.38516 0.0
H164 H 0.35739 0.4537 0.57373 0.0
H165 H 0.4264 0.61147 0.54779 0.0
H166 H 0.42759 0.45864 0.61601 0.0
H167 H 0.65871 0.77852 0.60411 0.0
C168 C 0.42961 0.63295 0.81464 0.0
C169 C 0.25122 0.49627 0.81421 0.0
C170 C 0.35419 0.53663 0.82247 0.0
C171 C 0.22686 0.55277 0.79701 0.0
C172 C 0.40526 0.69219 0.79823 0.0
C173 C 0.30381 0.65064 0.78903 0.0
N174 N 0.52607 0.671 0.82421 0.0
C175 C 0.60075 0.7708 0.81959 0.0
C176 C 0.48304 0.79228 0.79212 0.0
C177 C 0.58108 0.83195 0.80299 0.0
Gd178 Gd 0.71156 0.39749 0.81433 0.0
Gd179 Gd 0.5578 0.55945 0.84926 0.0
N180 N 0.38013 0.48619 0.83974 0.0
C181 C 0.1754 0.40242 0.82428 0.0
C182 C 0.30457 0.4009 0.85163 0.0
C183 C 0.2019 0.35565 0.84348 0.0
H184 H 0.3231 0.36703 0.8674 0.0
H185 H 0.14305 0.28575 0.8523 0.0
H186 H 0.95285 0.55039 0.83541 0.0
H187 H 0.67682 0.80115 0.82786 0.0
H188 H 0.0836 0.5341 0.86069 0.0
H189 H 0.09558 0.36811 0.81828 0.0
H190 H 0.14829 0.52309 0.79043 0.0
H191 H 0.51227 0.15646 0.80631 0.0
H192 H 0.46764 0.84026 0.77952 0.0
H193 H 0.64137 0.90971 0.79867 0.0
H194 H 0.92501 0.17075 0.8778 0.0
H195 H 0.28353 0.69458 0.77628 0.0
H196 H 0.5812 0.94976 0.84675 0.0
H197 H 0.46093 0.98007 0.82065 0.0
N198 N 0.65774 0.22564 0.82502 0.0
C199 C 0.72689 0.20994 0.83833 0.0
C200 C 0.56435 0.14444 0.8181 0.0
C201 C 0.60407 0.02725 0.84046 0.0
C202 C 0.53566 0.04421 0.82591 0.0
C203 C 0.70168 0.11027 0.84652 0.0
H204 H 0.75605 0.02071 0.86706 0.0
N205 N 0.84291 0.39002 0.83694 0.0
C206 C 0.82275 0.29432 0.84421 0.0
C207 C 0.98903 0.36919 0.86496 0.0
C208 C 0.895 0.28147 0.85865 0.0
C209 C 0.9361 0.47527 0.84204 0.0
C210 C 0.01025 0.46625 0.85631 0.0
O211 O 0.60314 0.59678 0.80849 0.0
O212 O 0.59871 0.4464 0.80131 0.0
O213 O 0.8208 0.47104 0.78376 0.0
O214 O 0.70278 0.31002 0.78058 0.0
O215 O 0.4785 0.38065 0.85061 0.0
O216 O 0.53605 0.3305 0.8147 0.0
O217 O 0.72193 0.39442 0.85713 0.0
O218 O 0.6446 0.47916 0.85004 0.0
O219 O 0.50485 0.55074 0.88884 0.0
O220 O 0.63051 0.69312 0.87341 0.0
O221 O 0.80712 0.57235 0.81997 0.0
O222 O 0.73274 0.65578 0.84367 0.0
C223 C 0.62382 0.53917 0.79363 0.0
C224 C 0.46634 0.31228 0.83265 0.0
C225 C 0.8576 0.36231 0.75849 0.0
C226 C 0.92354 0.32423 0.72015 0.0
C227 C 1.0015 0.33041 0.7611 0.0
C228 C 0.93163 0.35333 0.77296 0.0
C229 C 0.99803 0.31647 0.73485 0.0
C230 C 0.85348 0.34717 0.7322 0.0
C231 C 0.78326 0.38671 0.77022 0.0
C232 C 0.87041 0.18218 0.8667 0.0
C233 C 0.77406 0.09678 0.86063 0.0
H234 H 0.04598 0.36277 0.87636 0.0
C235 C 0.68036 0.44334 0.86715 0.0
C236 C 0.80949 0.65351 0.83131 0.0
C237 C 0.58542 0.7058 0.91637 0.0
C238 C 0.54617 0.71367 0.9609 0.0
C239 C 0.66551 0.87056 0.93872 0.0
C240 C 0.65186 0.81353 0.91669 0.0
C241 C 0.61304 0.82122 0.96069 0.0
C242 C 0.53308 0.65593 0.93864 0.0
C243 C 0.57194 0.64782 0.89263 0.0
H244 H 0.05858 0.32337 0.77225 0.0
H245 H 0.93553 0.36416 0.79328 0.0
H246 H 0.05257 0.29822 0.72609 0.0
H247 H 0.79654 0.35472 0.72108 0.0
H248 H 0.71686 0.95339 0.93875 0.0
H249 H 0.69328 0.8542 0.89985 0.0
H250 H 0.6255 0.86717 0.97764 0.0
H251 H 0.48147 0.57304 0.93857 0.0
H252 H 0.0984 0.80878 0.13007 0.0
H253 H 0.0819 0.74649 0.21068 0.0
H254 H 0.05867 0.89587 0.2192 0.0
H255 H 0.24355 0.08471 0.13575 0.0
H256 H 0.17816 0.10903 0.11023 0.0
H257 H 0.1879 0.99345 0.10999 0.0
H258 H 0.98882 0.88208 0.1061 0.0
H259 H 0.97834 0.99736 0.10645 0.0
H260 H 0.90845 0.89679 0.12925 0.0
H261 H 0.04459 0.05366 0.2197 0.0
H262 H 0.04604 0.21704 0.21235 0.0
H263 H 0.07091 0.18344 0.13139 0.0
C264 C 0.0891 0.82644 0.14946 0.0
C265 C 0.09207 0.76591 0.16974 0.0
C266 C 0.08071 0.792 0.19487 0.0
C267 C 0.06675 0.87638 0.1999 0.0
C268 C 0.06452 0.93465 0.17962 0.0
C269 C 0.07567 0.91147 0.15489 0.0
C270 C 0.07465 0.99034 0.13683 0.0
C271 C 0.17716 0.04777 0.12235 0.0
C272 C 0.98204 0.93853 0.11858 0.0
C273 C 0.06254 0.06186 0.15537 0.0
C274 C 0.05616 0.02724 0.17991 0.0
C275 C 0.04884 0.08127 0.20057 0.0
C276 C 0.04994 0.17421 0.19618 0.0
C277 C 0.05814 0.21283 0.17131 0.0
C278 C 0.06282 0.15489 0.15056 0.0
H279 H 0.40502 0.07293 0.46759 0.0
H280 H 0.44358 0.05556 0.54867 0.0
H281 H 0.28602 0.06416 0.55634 0.0
H282 H 0.29979 0.25237 0.47208 0.0
H283 H 0.21011 0.19088 0.4463 0.0
H284 H 0.3311 0.19132 0.44681 0.0
H285 H 0.23255 0.99142 0.4431 0.0
H286 H 0.1114 0.99028 0.44264 0.0
H287 H 0.13437 0.91597 0.46598 0.0
H288 H 0.12036 0.06114 0.55578 0.0
H289 H 0.95281 0.04872 0.54694 0.0
H290 H 0.01677 0.07189 0.46631 0.0
C291 C 0.381 0.07274 0.48693 0.0
C292 C 0.43683 0.06357 0.50752 0.0
C293 C 0.40206 0.06192 0.53256 0.0
C294 C 0.31284 0.06741 0.53716 0.0
C295 C 0.25899 0.07518 0.51657 0.0
C296 C 0.29156 0.07858 0.49194 0.0
C297 C 0.21584 0.08291 0.47336 0.0
C298 C 0.26728 0.18546 0.45878 0.0
C299 C 0.17089 0.98958 0.4552 0.0
C300 C 0.13425 0.0776 0.49143 0.0
C301 C 0.16189 0.07432 0.51626 0.0
C302 C 0.09808 0.06458 0.53645 0.0
C303 C 1.00273 0.05691 0.5312 0.0
C304 C 0.97164 0.05898 0.50595 0.0
C305 C 0.03905 0.07103 0.4858 0.0
H306 H 0.92096 0.80894 0.86634 0.0
H307 H 0.91233 0.72231 0.78746 0.0
H308 H 0.07065 0.88761 0.77934 0.0
H309 H 0.02708 0.08694 0.85621 0.0
H310 H 0.11103 0.12584 0.88353 0.0
H311 H 0.99161 1.0042 0.88351 0.0
H312 H 0.09062 0.90697 0.89346 0.0
H313 H 0.21032 0.02803 0.89395 0.0
H314 H 0.19553 0.92508 0.87328 0.0
H315 H 0.2264 0.05775 0.7792 0.0
H316 H 0.38697 0.21899 0.78758 0.0
H317 H 0.31137 0.19593 0.86761 0.0
C318 C 0.95245 0.82574 0.84738 0.0
C319 C 0.90465 0.75335 0.82744 0.0
C320 C 0.94826 0.77664 0.80295 0.0
C321 C 0.03764 0.87057 0.79813 0.0
C322 C 0.08351 0.94009 0.81808 0.0
C323 C 0.04383 0.91886 0.84231 0.0
C324 C 0.11396 1.00504 0.86051 0.0
C325 C 0.05757 0.05869 0.8716 0.0
C326 C 0.15504 0.96379 0.88154 0.0
C327 C 0.19983 0.07656 0.84272 0.0
C328 C 0.17854 0.03792 0.81828 0.0
C329 C 0.24447 0.08858 0.79827 0.0
C330 C 0.33605 0.18021 0.80334 0.0
C331 C 0.36295 0.22007 0.82835 0.0
C332 C 0.29289 0.16801 0.84829 0.0
H333 H 0.44261 0.7769 0.99206 0.0
H334 H 0.52391 0.53731 0.9828 0.0
H335 H 0.44182 0.46191 0.02393 0.0
H336 H 0.48703 0.8123 0.0589 0.0
H337 H 0.37977 0.8331 0.06452 0.0
H338 H 0.44458 0.86695 0.03443 0.0
H339 H 0.27008 0.7504 0.01145 0.0
H340 H 0.20497 0.7164 0.04151 0.0
H341 H 0.19372 0.61646 0.02027 0.0
H342 H 0.35936 0.42013 0.06744 0.0
H343 H 0.2695 0.40544 0.10786 0.0
H344 H 0.23597 0.66824 0.08715 0.0
C345 C 0.44308 0.7085 0.99869 0.0
C346 C 0.49043 0.6633 0.98446 0.0
C347 C 0.48805 0.57292 0.9935 0.0
C348 C 0.442 0.52998 0.01683 0.0
C349 C 0.3975 0.5777 0.03061 0.0
C350 C 0.39666 0.66428 0.02171 0.0
C351 C 0.34301 0.7005 0.03991 0.0
C352 C 0.41809 0.80967 0.05003 0.0
C353 C 0.24726 0.69559 0.02754 0.0
C354 C 0.31324 0.62058 0.06046 0.0
C355 C 0.34653 0.55119 0.05496 0.0
C356 C 0.33188 0.47324 0.07176 0.0
C357 C 0.28118 0.46569 0.09465 0.0
C358 C 0.24504 0.535 0.10032 0.0
C359 C 0.26114 0.61309 0.08298 0.0
H360 H 0.9077 0.35975 0.35109 0.0
H361 H 0.75486 0.54262 0.35191 0.0
H362 H 0.76713 0.55516 0.30522 0.0
H363 H 0.08554 0.49087 0.30401 0.0
H364 H 0.07535 0.37589 0.28994 0.0
H365 H 0.04858 0.37739 0.32301 0.0
H366 H 0.86917 0.21414 0.31542 0.0
H367 H 0.89813 0.21552 0.28225 0.0
H368 H 0.78336 0.21748 0.29183 0.0
H369 H 0.80561 0.55498 0.25832 0.0
H370 H 0.87471 0.54991 0.21616 0.0
H371 H 1.00056 0.36614 0.24693 0.0
C372 C 0.87425 0.40031 0.34153 0.0
C373 C 0.82992 0.44981 0.35527 0.0
C374 C 0.79013 0.50479 0.34188 0.0
C375 C 0.79575 0.51143 0.31533 0.0
C376 C 0.84037 0.46181 0.30244 0.0
C377 C 0.87837 0.40692 0.31517 0.0
C378 C 0.9272 0.36475 0.29724 0.0
C379 C 0.04105 0.40496 0.30403 0.0
C380 C 0.86578 0.24593 0.29665 0.0
C381 C 0.9162 0.40918 0.27253 0.0
C382 C 0.86346 0.4627 0.27574 0.0
C383 C 0.84626 0.51257 0.2556 0.0
C384 C 0.88564 0.50911 0.23172 0.0
C385 C 0.94314 0.4578 0.22835 0.0
C386 C 0.95713 0.40615 0.24898 0.0
H387 H 0.58484 0.41602 0.7513 0.0
H388 H 0.72047 0.73485 0.77632 0.0
H389 H 0.73579 0.79115 0.73208 0.0
H390 H 0.73769 0.47308 0.69038 0.0
H391 H 0.62888 0.37544 0.67283 0.0
H392 H 0.6427 0.35732 0.70603 0.0
H393 H 0.46213 0.33071 0.71521 0.0
H394 H 0.44476 0.34653 0.68214 0.0
H395 H 0.43038 0.42722 0.70537 0.0
H396 H 0.70076 0.80909 0.6879 0.0
H397 H 0.6392 0.79304 0.64457 0.0
H398 H 0.54207 0.46506 0.64502 0.0
C399 C 0.6214 0.49788 0.74731 0.0
C400 C 0.65129 0.57127 0.76714 0.0
C401 C 0.6966 0.67751 0.76136 0.0
C402 C 0.70604 0.71029 0.73629 0.0
C403 C 0.67112 0.63597 0.71717 0.0
C404 C 0.63169 0.53215 0.72219 0.0
C405 C 0.59095 0.46816 0.6981 0.0
C406 C 0.65393 0.41547 0.69144 0.0
C407 C 0.47521 0.3885 0.70036 0.0
C408 C 0.60932 0.55194 0.67915 0.0
C409 C 0.65594 0.64787 0.69068 0.0
C410 C 0.6687 0.73531 0.67825 0.0
C411 C 0.63387 0.72509 0.65328 0.0
C412 C 0.58861 0.62828 0.64043 0.0
C413 C 0.57706 0.5407 0.65378 0.0
H414 H 0.59982 0.28182 0.89925 0.0
H415 H 0.74328 0.61485 0.89659 0.0
H416 H 0.73672 0.62145 0.94346 0.0
H417 H 0.43215 0.24003 0.95499 0.0
H418 H 0.45186 0.13813 0.96699 0.0
H419 H 0.45471 0.1597 0.93335 0.0
H420 H 0.63674 0.17854 0.93098 0.0
H421 H 0.63459 0.15735 0.96453 0.0
H422 H 0.73889 0.27256 0.95087 0.0
H423 H 0.73222 0.59194 0.99049 0.0
H424 H 0.73088 0.52998 0.03396 0.0
H425 H 0.59218 0.21543 0.00574 0.0
C426 C 0.62726 0.35569 0.90864 0.0
C427 C 0.66817 0.44771 0.89458 0.0
C428 C 0.70718 0.54352 0.9072 0.0
C429 C 0.70458 0.54781 0.93375 0.0
C430 C 0.66336 0.45537 0.9472 0.0
C431 C 0.62511 0.36102 0.93504 0.0
C432 C 0.59285 0.2738 0.95378 0.0
C433 C 0.47593 0.19847 0.95218 0.0
C434 C 0.65447 0.21731 0.9498 0.0
C435 C 0.62198 0.33397 0.97842 0.0
C436 C 0.6616 0.43846 0.97425 0.0
C437 C 0.70022 0.51022 0.994 0.0
C438 C 0.69949 0.47444 0.01858 0.0
C439 C 0.66095 0.36795 0.02317 0.0
C440 C 0.62003 0.29692 0.00285 0.0
H441 H 0.28826 0.58342 0.34668 0.0
H442 H 0.54502 0.77116 0.29691 0.0
H443 H 0.63718 0.88925 0.33242 0.0
H444 H 0.30821 0.79842 0.38592 0.0
H445 H 0.27621 0.72409 0.41467 0.0
H446 H 0.22475 0.66019 0.38476 0.0
H447 H 0.30267 0.54044 0.39246 0.0
H448 H 0.34994 0.60343 0.42252 0.0
H449 H 0.43812 0.59801 0.40013 0.0
H450 H 0.70819 0.97793 0.37363 0.0
H451 H 0.75333 0.03344 0.418 0.0
H452 H 0.45228 0.78775 0.44175 0.0
C453 C 0.36353 0.64986 0.34321 0.0
C454 C 0.40908 0.66825 0.31891 0.0
C455 C 0.50753 0.75638 0.31516 0.0
C456 C 0.56082 0.82369 0.33527 0.0
C457 C 0.51457 0.80222 0.35902 0.0
C458 C 0.41792 0.7179 0.3631 0.0
C459 C 0.38814 0.70971 0.39079 0.0
C460 C 0.29373 0.72399 0.39423 0.0
C461 C 0.36872 0.60675 0.40211 0.0
C462 C 0.48482 0.80047 0.40177 0.0
C463 C 0.55608 0.85341 0.38301 0.0
C464 C 0.65273 0.93771 0.38846 0.0
C465 C 0.6777 0.96844 0.41378 0.0
C466 C 0.6065 0.91484 0.4334 0.0
C467 C 0.50835 0.83036 0.42721 0.0
H468 H 0.75209 0.20743 0.69073 0.0
H469 H 0.08439 0.40653 0.68676 0.0
H470 H 0.0766 0.38312 0.64025 0.0
H471 H 0.73435 0.02714 0.64279 0.0
H472 H 0.61332 0.00693 0.63022 0.0
H473 H 0.64499 0.04094 0.66308 0.0
H474 H 0.61727 0.19789 0.65729 0.0
H475 H 0.58598 0.16494 0.62436 0.0
H476 H 0.68824 0.29192 0.63318 0.0
H477 H 0.03233 0.33948 0.59426 0.0
H478 H 0.95626 0.27146 0.55223 0.0
H479 H 0.65267 0.0984 0.58614 0.0
C480 C 0.8231 0.24653 0.68003 0.0
C481 C 0.91891 0.30903 0.69229 0.0
C482 C 0.01036 0.35774 0.67772 0.0
C483 C 1.00659 0.34534 0.65132 0.0
C484 C 0.91086 0.28338 0.63983 0.0
C485 C 0.82084 0.23411 0.65371 0.0
C486 C 0.72833 0.16958 0.6368 0.0
C487 C 0.67728 0.05434 0.64363 0.0
C488 C 0.65037 0.20844 0.63798 0.0
C489 C 0.78032 0.19066 0.6112 0.0
C490 C 0.88553 0.25695 0.61336 0.0
C491 C 0.95001 0.28774 0.59234 0.0
C492 C 0.90592 0.2492 0.56849 0.0
C493 C 0.79841 0.18041 0.56582 0.0
C494 C 0.73507 0.15097 0.58754 0.0
loop_
_geom_bond_atom_site_label_1
_geom_bond_atom_site_label_2
_geom_bond_distance
_geom_bond_site_symmetry_2
_ccdc_geom_bond_type
C0 C2 1.422 . S
C0 C4 1.415 . S
C0 N6 1.369 . S
C1 C2 1.421 . S
C1 C3 1.417 . S
C1 C13 1.422 . S
C2 C0 1.422 . S
C2 C1 1.421 . S
C2 N12 1.359 . S
C3 C1 1.417 . S
C3 C5 1.329 . S
C3 H22 0.930 . S
C4 C0 1.415 . S
C4 C5 1.437 . S
C4 C8 1.413 . S
C5 C3 1.329 . S
C5 C4 1.437 . S
C5 H27 0.929 . S
N6 C0 1.369 . S
N6 C7 1.338 . S
N6 Gd11 2.622 . S
C7 N6 1.338 . S
C7 C9 1.378 . S
C7 H19 0.929 . S
C8 C4 1.413 . S
C8 C9 1.348 . S
C8 H24 0.931 . S
C9 C7 1.378 . S
C9 C8 1.348 . S
C9 H25 0.930 . S
Gd10 N30 2.622 . S
Gd10 N37 2.570 . S
Gd10 O44 2.353 1_655 S
Gd10 O45 2.468 . S
Gd10 O46 2.427 . S
Gd10 O48 2.388 . S
Gd10 O49 2.386 . S
Gd10 O53 2.307 . S
Gd10 C63 2.805 . S
Gd11 N6 2.622 . S
Gd11 N12 2.570 . S
Gd11 O43 2.386 . S
Gd11 O47 2.307 . S
Gd11 O50 2.353 1_455 S
Gd11 O51 2.468 . S
Gd11 O52 2.427 . S
Gd11 O54 2.388 . S
Gd11 C75 2.805 . S
N12 C2 1.359 . S
N12 Gd11 2.570 . S
N12 C14 1.343 . S
C13 C1 1.422 . S
C13 C15 1.321 . S
C13 H21 0.931 . S
C14 N12 1.343 . S
C14 C15 1.390 . S
C14 H16 0.931 . S
C15 C13 1.321 . S
C15 C14 1.390 . S
C15 H17 0.930 . S
H16 C14 0.931 . S
H17 C15 0.930 . S
H18 C41 0.931 . S
H19 C7 0.929 . S
H20 C42 0.930 . S
H21 C13 0.931 . S
H22 C3 0.930 . S
H23 C32 0.929 . S
H24 C8 0.931 . S
H25 C9 0.930 . S
H26 C64 0.930 . S
H27 C5 0.929 . S
H28 C33 0.931 . S
H29 C34 0.930 . S
N30 Gd10 2.622 . S
N30 C31 1.369 . S
N30 C32 1.338 . S
C31 N30 1.369 . S
C31 C35 1.415 . S
C31 C38 1.422 . S
C32 H23 0.929 . S
C32 N30 1.338 . S
C32 C34 1.378 . S
C33 H28 0.931 . S
C33 C34 1.348 . S
C33 C35 1.413 . S
C34 H29 0.930 . S
C34 C32 1.378 . S
C34 C33 1.348 . S
C35 C31 1.415 . S
C35 C33 1.413 . S
C35 C65 1.437 . S
H36 C65 0.929 . S
N37 Gd10 2.570 . S
N37 C38 1.359 . S
N37 C41 1.343 . S
C38 C31 1.422 . S
C38 N37 1.359 . S
C38 C40 1.421 . S
C39 C40 1.422 . S
C39 C42 1.321 . S
C39 H66 0.931 . S
C40 C38 1.421 . S
C40 C39 1.422 . S
C40 C64 1.417 . S
C41 H18 0.931 . S
C41 N37 1.343 . S
C41 C42 1.390 . S
C42 H20 0.930 . S
C42 C39 1.321 . S
C42 C41 1.390 . S
O43 Gd11 2.386 . S
O43 C55 1.265 . S
O44 Gd10 2.353 1_455 S
O44 C55 1.242 . S
O45 Gd10 2.468 . S
O45 C63 1.263 . S
O46 Gd10 2.427 . S
O46 C63 1.252 . S
O47 Gd11 2.307 . S
O47 C56 1.261 . S
O48 Gd10 2.388 . S
O48 C56 1.252 1_655 S
O49 Gd10 2.386 . S
O49 C67 1.265 . S
O50 Gd11 2.353 1_655 S
O50 C67 1.242 . S
O51 Gd11 2.468 . S
O51 C75 1.263 . S
O52 Gd11 2.427 . S
O52 C75 1.252 . S
O53 Gd10 2.307 . S
O53 C68 1.261 . S
O54 Gd11 2.388 . S
O54 C68 1.252 1_455 S
C55 O43 1.265 . S
C55 O44 1.242 . S
C56 O47 1.261 . S
C56 O48 1.252 1_455 S
C57 C60 1.394 . S
C57 C62 1.370 . S
C57 C63 1.500 . S
C58 C61 1.383 . S
C58 C62 1.395 . S
C59 C60 1.396 . S
C59 C61 1.365 . S
C59 H76 0.929 . S
C60 C57 1.394 . S
C60 C59 1.396 . S
C60 H77 0.930 . S
C61 C58 1.383 . S
C61 C59 1.365 . S
C61 H78 0.931 . S
C62 C57 1.370 . S
C62 C58 1.395 . S
C62 H79 0.930 . S
C63 Gd10 2.805 . S
C63 O45 1.263 . S
C63 O46 1.252 . S
C63 C57 1.500 . S
C64 H26 0.930 . S
C64 C40 1.417 . S
C64 C65 1.329 . S
C65 C35 1.437 . S
C65 H36 0.929 . S
C65 C64 1.329 . S
H66 C39 0.931 . S
C67 O49 1.265 . S
C67 O50 1.242 . S
C68 O53 1.261 . S
C68 O54 1.252 1_655 S
C69 C72 1.394 . S
C69 C74 1.370 . S
C69 C75 1.500 . S
C70 C73 1.383 . S
C70 C74 1.395 . S
C71 C72 1.396 . S
C71 C73 1.365 . S
C71 H80 0.929 . S
C72 C69 1.394 . S
C72 C71 1.396 . S
C72 H81 0.930 . S
C73 C70 1.383 . S
C73 C71 1.365 . S
C73 H82 0.931 . S
C74 C69 1.370 . S
C74 C70 1.395 . S
C74 H83 0.930 . S
C75 Gd11 2.805 . S
C75 O51 1.263 . S
C75 O52 1.252 . S
C75 C69 1.500 . S
H76 C59 0.929 . S
H77 C60 0.930 . S
H78 C61 0.931 . S
H79 C62 0.930 . S
H80 C71 0.929 . S
H81 C72 0.930 . S
H82 C73 0.931 . S
H83 C74 0.930 . S
C84 C86 1.422 . S
C84 C88 1.415 . S
C84 N90 1.369 . S
C85 C86 1.421 . S
C85 C87 1.417 . S
C85 C97 1.422 . S
C86 C84 1.422 . S
C86 C85 1.421 . S
C86 N96 1.359 . S
C87 C85 1.417 . S
C87 C89 1.329 . S
C87 H106 0.930 . S
C88 C84 1.415 . S
C88 C89 1.437 . S
C88 C92 1.413 . S
C89 C87 1.329 . S
C89 C88 1.437 . S
C89 H111 0.929 . S
N90 C84 1.369 . S
N90 C91 1.338 . S
N90 Gd95 2.622 . S
C91 N90 1.338 . S
C91 C93 1.378 . S
C91 H103 0.929 . S
C92 C88 1.413 . S
C92 C93 1.348 . S
C92 H108 0.931 . S
C93 C91 1.378 . S
C93 C92 1.348 . S
C93 H109 0.930 . S
Gd94 N114 2.622 . S
Gd94 N121 2.570 . S
Gd94 O128 2.353 . S
Gd94 O129 2.468 . S
Gd94 O130 2.427 . S
Gd94 O132 2.388 . S
Gd94 O133 2.386 . S
Gd94 O137 2.307 . S
Gd94 C147 2.805 . S
Gd95 N90 2.622 . S
Gd95 N96 2.570 . S
Gd95 O127 2.386 . S
Gd95 O131 2.307 1_565 S
Gd95 O134 2.353 1_565 S
Gd95 O135 2.468 . S
Gd95 O136 2.427 . S
Gd95 O138 2.388 1_565 S
Gd95 C159 2.805 . S
N96 C86 1.359 . S
N96 Gd95 2.570 . S
N96 C98 1.343 . S
C97 C85 1.422 . S
C97 C99 1.321 . S
C97 H105 0.931 . S
C98 N96 1.343 . S
C98 C99 1.390 . S
C98 H100 0.931 . S
C99 C97 1.321 . S
C99 C98 1.390 . S
C99 H101 0.930 . S
H100 C98 0.931 . S
H101 C99 0.930 . S
H102 C125 0.931 . S
H103 C91 0.929 . S
H104 C126 0.930 . S
H105 C97 0.931 . S
H106 C87 0.930 . S
H107 C116 0.929 . S
H108 C92 0.931 . S
H109 C93 0.930 . S
H110 C148 0.930 . S
H111 C89 0.929 . S
H112 C117 0.931 . S
H113 C118 0.930 . S
N114 Gd94 2.622 . S
N114 C115 1.369 . S
N114 C116 1.338 1_655 S
C115 N114 1.369 . S
C115 C119 1.415 1_655 S
C115 C122 1.422 . S
C116 H107 0.929 . S
C116 N114 1.338 1_455 S
C116 C118 1.378 . S
C117 H112 0.931 . S
C117 C118 1.348 . S
C117 C119 1.413 . S
C118 H113 0.930 . S
C118 C116 1.378 . S
C118 C117 1.348 . S
C119 C115 1.415 1_455 S
C119 C117 1.413 . S
C119 C149 1.437 . S
H120 C149 0.929 . S
N121 Gd94 2.570 . S
N121 C122 1.359 . S
N121 C125 1.343 . S
C122 C115 1.422 . S
C122 N121 1.359 . S
C122 C124 1.421 . S
C123 C124 1.422 . S
C123 C126 1.321 . S
C123 H150 0.931 . S
C124 C122 1.421 . S
C124 C123 1.422 . S
C124 C148 1.417 1_655 S
C125 H102 0.931 . S
C125 N121 1.343 . S
C125 C126 1.390 . S
C126 H104 0.930 . S
C126 C123 1.321 . S
C126 C125 1.390 . S
O127 Gd95 2.386 . S
O127 C139 1.265 1_565 S
O128 Gd94 2.353 . S
O128 C139 1.242 . S
O129 Gd94 2.468 . S
O129 C147 1.263 . S
O130 Gd94 2.427 . S
O130 C147 1.252 . S
O131 Gd95 2.307 1_545 S
O131 C140 1.261 . S
O132 Gd94 2.388 . S
O132 C140 1.252 . S
O133 Gd94 2.386 . S
O133 C151 1.265 . S
O134 Gd95 2.353 1_545 S
O134 C151 1.242 . S
O135 Gd95 2.468 . S
O135 C159 1.263 . S
O136 Gd95 2.427 . S
O136 C159 1.252 . S
O137 Gd94 2.307 . S
O137 C152 1.261 . S
O138 Gd95 2.388 1_545 S
O138 C152 1.252 . S
C139 O127 1.265 1_545 S
C139 O128 1.242 . S
C140 O131 1.261 . S
C140 O132 1.252 . S
C141 C144 1.394 . S
C141 C146 1.370 . S
C141 C147 1.500 . S
C142 C145 1.383 . S
C142 C146 1.395 . S
C143 C144 1.396 . S
C143 C145 1.365 . S
C143 H160 0.929 . S
C144 C141 1.394 . S
C144 C143 1.396 . S
C144 H161 0.930 . S
C145 C142 1.383 . S
C145 C143 1.365 . S
C145 H162 0.931 . S
C146 C141 1.370 . S
C146 C142 1.395 . S
C146 H163 0.930 . S
C147 Gd94 2.805 . S
C147 O129 1.263 . S
C147 O130 1.252 . S
C147 C141 1.500 . S
C148 H110 0.930 . S
C148 C124 1.417 1_455 S
C148 C149 1.329 . S
C149 C119 1.437 . S
C149 H120 0.929 . S
C149 C148 1.329 . S
H150 C123 0.931 . S
C151 O133 1.265 . S
C151 O134 1.242 . S
C152 O137 1.261 . S
C152 O138 1.252 . S
C153 C156 1.394 . S
C153 C158 1.370 . S
C153 C159 1.500 . S
C154 C157 1.383 . S
C154 C158 1.395 . S
C155 C156 1.396 . S
C155 C157 1.365 . S
C155 H164 0.929 . S
C156 C153 1.394 . S
C156 C155 1.396 . S
C156 H165 0.930 . S
C157 C154 1.383 . S
C157 C155 1.365 . S
C157 H166 0.931 . S
C158 C153 1.370 . S
C158 C154 1.395 . S
C158 H167 0.930 . S
C159 Gd95 2.805 . S
C159 O135 1.263 . S
C159 O136 1.252 . S
C159 C153 1.500 . S
H160 C143 0.929 . S
H161 C144 0.930 . S
H162 C145 0.931 . S
H163 C146 0.930 . S
H164 C155 0.929 . S
H165 C156 0.930 . S
H166 C157 0.931 . S
H167 C158 0.930 . S
C168 C170 1.422 . S
C168 C172 1.415 . S
C168 N174 1.369 . S
C169 C170 1.421 . S
C169 C171 1.417 . S
C169 C181 1.422 . S
C170 C168 1.422 . S
C170 C169 1.421 . S
C170 N180 1.359 . S
C171 C169 1.417 . S
C171 C173 1.329 . S
C171 H190 0.930 . S
C172 C168 1.415 . S
C172 C173 1.437 . S
C172 C176 1.413 . S
C173 C171 1.329 . S
C173 C172 1.437 . S
C173 H195 0.929 . S
N174 C168 1.369 . S
N174 C175 1.338 . S
N174 Gd179 2.622 . S
C175 N174 1.338 . S
C175 C177 1.378 . S
C175 H187 0.929 . S
C176 C172 1.413 . S
C176 C177 1.348 . S
C176 H192 0.931 . S
C177 C175 1.378 . S
C177 C176 1.348 . S
C177 H193 0.930 . S
Gd178 N198 2.622 . S
Gd178 N205 2.570 . S
Gd178 O212 2.353 . S
Gd178 O213 2.468 . S
Gd178 O214 2.427 . S
Gd178 O216 2.388 . S
Gd178 O217 2.386 . S
Gd178 O221 2.307 . S
Gd178 C231 2.805 . S
Gd179 N174 2.622 . S
Gd179 N180 2.570 . S
Gd179 O211 2.386 . S
Gd179 O215 2.307 . S
Gd179 O218 2.353 . S
Gd179 O219 2.468 . S
Gd179 O220 2.427 . S
Gd179 O222 2.388 . S
Gd179 C243 2.805 . S
N180 C170 1.359 . S
N180 Gd179 2.570 . S
N180 C182 1.343 . S
C181 C169 1.422 . S
C181 C183 1.321 . S
C181 H189 0.931 . S
C182 N180 1.343 . S
C182 C183 1.390 . S
C182 H184 0.931 . S
C183 C181 1.321 . S
C183 C182 1.390 . S
C183 H185 0.930 . S
H184 C182 0.931 . S
H185 C183 0.930 . S
H186 C209 0.931 . S
H187 C175 0.929 . S
H188 C210 0.930 . S
H189 C181 0.931 . S
H190 C171 0.930 . S
H191 C200 0.929 . S
H192 C176 0.931 . S
H193 C177 0.930 . S
H194 C232 0.930 . S
H195 C173 0.929 . S
H196 C201 0.931 . S
H197 C202 0.930 . S
N198 Gd178 2.622 . S
N198 C199 1.369 . S
N198 C200 1.338 . S
C199 N198 1.369 . S
C199 C203 1.415 . S
C199 C206 1.422 . S
C200 H191 0.929 . S
C200 N198 1.338 . S
C200 C202 1.378 1_545 S
C201 H196 0.931 . S
C201 C202 1.348 . S
C201 C203 1.413 1_565 S
C202 H197 0.930 . S
C202 C200 1.378 1_565 S
C202 C201 1.348 . S
C203 C199 1.415 . S
C203 C201 1.413 1_545 S
C203 C233 1.437 . S
H204 C233 0.929 1_565 S
N205 Gd178 2.570 . S
N205 C206 1.359 . S
N205 C209 1.343 . S
C206 C199 1.422 . S
C206 N205 1.359 . S
C206 C208 1.421 . S
C207 C208 1.422 1_455 S
C207 C210 1.321 . S
C207 H234 0.931 . S
C208 C206 1.421 . S
C208 C207 1.422 1_655 S
C208 C232 1.417 . S
C209 H186 0.931 . S
C209 N205 1.343 . S
C209 C210 1.390 1_655 S
C210 H188 0.930 . S
C210 C207 1.321 . S
C210 C209 1.390 1_455 S
O211 Gd179 2.386 . S
O211 C223 1.265 . S
O212 Gd178 2.353 . S
O212 C223 1.242 . S
O213 Gd178 2.468 . S
O213 C231 1.263 . S
O214 Gd178 2.427 . S
O214 C231 1.252 . S
O215 Gd179 2.307 . S
O215 C224 1.261 . S
O216 Gd178 2.388 . S
O216 C224 1.252 . S
O217 Gd178 2.386 . S
O217 C235 1.265 . S
O218 Gd179 2.353 . S
O218 C235 1.242 . S
O219 Gd179 2.468 . S
O219 C243 1.263 . S
O220 Gd179 2.427 . S
O220 C243 1.252 . S
O221 Gd178 2.307 . S
O221 C236 1.261 . S
O222 Gd179 2.388 . S
O222 C236 1.252 . S
C223 O211 1.265 . S
C223 O212 1.242 . S
C224 O215 1.261 . S
C224 O216 1.252 . S
C225 C228 1.394 . S
C225 C230 1.370 . S
C225 C231 1.500 . S
C226 C229 1.383 . S
C226 C230 1.395 . S
C227 C228 1.396 . S
C227 C229 1.365 . S
C227 H244 0.929 . S
C228 C225 1.394 . S
C228 C227 1.396 . S
C228 H245 0.930 . S
C229 C226 1.383 . S
C229 C227 1.365 . S
C229 H246 0.931 . S
C230 C225 1.370 . S
C230 C226 1.395 . S
C230 H247 0.930 . S
C231 Gd178 2.805 . S
C231 O213 1.263 . S
C231 O214 1.252 . S
C231 C225 1.500 . S
C232 H194 0.930 . S
C232 C208 1.417 . S
C232 C233 1.329 . S
C233 C203 1.437 . S
C233 H204 0.929 1_545 S
C233 C232 1.329 . S
H234 C207 0.931 . S
C235 O217 1.265 . S
C235 O218 1.242 . S
C236 O221 1.261 . S
C236 O222 1.252 . S
C237 C240 1.394 . S
C237 C242 1.370 . S
C237 C243 1.500 . S
C238 C241 1.383 . S
C238 C242 1.395 . S
C239 C240 1.396 . S
C239 C241 1.365 . S
C239 H248 0.929 . S
C240 C237 1.394 . S
C240 C239 1.396 . S
C240 H249 0.930 . S
C241 C238 1.383 . S
C241 C239 1.365 . S
C241 H250 0.931 . S
C242 C237 1.370 . S
C242 C238 1.395 . S
C242 H251 0.930 . S
C243 Gd179 2.805 . S
C243 O219 1.263 . S
C243 O220 1.252 . S
C243 C237 1.500 . S
H244 C227 0.929 . S
H245 C228 0.930 . S
H246 C229 0.931 . S
H247 C230 0.930 . S
H248 C239 0.929 . S
H249 C240 0.930 . S
H250 C241 0.931 . S
H251 C242 0.930 . S
H252 C264 0.930 . S
H253 C266 0.930 . S
H254 C267 0.930 . S
H255 C271 0.959 . S
H256 C271 0.959 . S
H257 C271 0.961 . S
H258 C272 0.960 . S
H259 C272 0.961 1_545 S
H260 C272 0.959 1_655 S
H261 C275 0.929 . S
H262 C276 0.931 . S
H263 C278 0.930 . S
C264 H252 0.930 . S
C264 C265 1.399 . S
C264 C269 1.399 . S
C265 C264 1.399 . S
C265 C266 1.376 1_455 S
C266 H253 0.930 . S
C266 C265 1.376 1_655 S
C266 C267 1.388 . S
C267 H254 0.930 . S
C267 C266 1.388 . S
C267 C268 1.390 . S
C268 C267 1.390 . S
C268 C269 1.394 1_655 S
C268 C274 1.465 . S
C269 C264 1.399 . S
C269 C268 1.394 1_455 S
C269 C270 1.516 . S
C270 C269 1.516 . S
C270 C271 1.502 1_565 S
C270 C272 1.561 . S
C270 C273 1.526 1_565 S
C271 H255 0.959 . S
C271 H256 0.959 . S
C271 H257 0.961 . S
C271 C270 1.502 1_545 S
C272 H258 0.960 . S
C272 H259 0.961 1_565 S
C272 H260 0.959 1_455 S
C272 C270 1.561 . S
C273 C270 1.526 1_545 S
C273 C274 1.396 1_445 S
C273 C278 1.390 . S
C274 C268 1.465 . S
C274 C273 1.396 1_665 S
C274 C275 1.399 . S
C275 H261 0.929 . S
C275 C274 1.399 . S
C275 C276 1.385 1_565 S
C276 H262 0.931 . S
C276 C275 1.385 1_545 S
C276 C277 1.389 . S
C277 C276 1.389 . S
C277 C278 1.387 1_655 S
C278 H263 0.930 . S
C278 C273 1.390 . S
C278 C277 1.387 1_455 S
H279 C291 0.930 . S
H280 C293 0.930 . S
H281 C294 0.930 . S
H282 C298 0.959 . S
H283 C298 0.959 . S
H284 C298 0.961 . S
H285 C299 0.960 . S
H286 C299 0.961 . S
H287 C299 0.959 . S
H288 C302 0.929 . S
H289 C303 0.931 1_655 S
H290 C305 0.930 . S
C291 H279 0.930 . S
C291 C292 1.399 . S
C291 C296 1.399 . S
C292 C291 1.399 . S
C292 C293 1.376 . S
C293 H280 0.930 . S
C293 C292 1.376 . S
C293 C294 1.388 . S
C294 H281 0.930 . S
C294 C293 1.388 . S
C294 C295 1.390 . S
C295 C294 1.390 . S
C295 C296 1.394 . S
C295 C301 1.465 . S
C296 C291 1.399 . S
C296 C295 1.394 . S
C296 C297 1.516 . S
C297 C296 1.516 . S
C297 C298 1.502 . S
C297 C299 1.561 1_545 S
C297 C300 1.526 . S
C298 H282 0.959 . S
C298 H283 0.959 . S
C298 H284 0.961 . S
C298 C297 1.502 . S
C299 H285 0.960 . S
C299 H286 0.961 . S
C299 H287 0.959 . S
C299 C297 1.561 1_565 S
C300 C297 1.526 . S
C300 C301 1.396 . S
C300 C305 1.390 1_455 S
C301 C295 1.465 . S
C301 C300 1.396 . S
C301 C302 1.399 . S
C302 H288 0.929 . S
C302 C301 1.399 . S
C302 C303 1.385 . S
C303 H289 0.931 1_455 S
C303 C302 1.385 . S
C303 C304 1.389 1_455 S
C304 C303 1.389 1_655 S
C304 C305 1.387 . S
C305 H290 0.930 . S
C305 C300 1.390 1_655 S
C305 C304 1.387 . S
H306 C318 0.930 1_655 S
H307 C320 0.930 1_655 S
H308 C321 0.930 . S
H309 C325 0.959 . S
H310 C325 0.959 1_545 S
H311 C325 0.961 . S
H312 C326 0.960 . S
H313 C326 0.961 . S
H314 C326 0.959 . S
H315 C329 0.929 . S
H316 C330 0.931 . S
H317 C332 0.930 . S
C318 H306 0.930 1_455 S
C318 C319 1.399 1_455 S
C318 C323 1.399 . S
C319 C318 1.399 1_655 S
C319 C320 1.376 1_655 S
C320 H307 0.930 1_455 S
C320 C319 1.376 1_455 S
C320 C321 1.388 . S
C321 H308 0.930 . S
C321 C320 1.388 . S
C321 C322 1.390 . S
C322 C321 1.390 . S
C322 C323 1.394 . S
C322 C328 1.465 . S
C323 C318 1.399 . S
C323 C322 1.394 . S
C323 C324 1.516 . S
C324 C323 1.516 . S
C324 C325 1.502 . S
C324 C326 1.561 . S
C324 C327 1.526 1_565 S
C325 H309 0.959 . S
C325 H310 0.959 1_565 S
C325 H311 0.961 . S
C325 C324 1.502 . S
C326 H312 0.960 . S
C326 H313 0.961 . S
C326 H314 0.959 . S
C326 C324 1.561 . S
C327 C324 1.526 1_545 S
C327 C328 1.396 1_545 S
C327 C332 1.390 . S
C328 C322 1.465 . S
C328 C327 1.396 1_565 S
C328 C329 1.399 1_565 S
C329 H315 0.929 . S
C329 C328 1.399 1_545 S
C329 C330 1.385 . S
C330 H316 0.931 . S
C330 C329 1.385 . S
C330 C331 1.389 . S
C331 C330 1.389 . S
C331 C332 1.387 . S
C332 H317 0.930 . S
C332 C327 1.390 . S
C332 C331 1.387 . S
H333 C345 0.930 . S
H334 C347 0.930 . S
H335 C348 0.930 . S
H336 C352 0.959 . S
H337 C352 0.959 . S
H338 C352 0.961 . S
H339 C353 0.960 . S
H340 C353 0.961 . S
H341 C353 0.959 . S
H342 C356 0.929 . S
H343 C357 0.931 . S
H344 C359 0.930 . S
C345 H333 0.930 . S
C345 C346 1.399 . S
C345 C350 1.399 1_556 S
C346 C345 1.399 . S
C346 C347 1.376 . S
C347 H334 0.930 . S
C347 C346 1.376 . S
C347 C348 1.388 1_556 S
C348 H335 0.930 . S
C348 C347 1.388 1_554 S
C348 C349 1.390 . S
C349 C348 1.390 . S
C349 C350 1.394 . S
C349 C355 1.465 . S
C350 C345 1.399 1_554 S
C350 C349 1.394 . S
C350 C351 1.516 . S
C351 C350 1.516 . S
C351 C352 1.502 . S
C351 C353 1.561 . S
C351 C354 1.526 . S
C352 H336 0.959 . S
C352 H337 0.959 . S
C352 H338 0.961 . S
C352 C351 1.502 . S
C353 H339 0.960 . S
C353 H340 0.961 . S
C353 H341 0.959 . S
C353 C351 1.561 . S
C354 C351 1.526 . S
C354 C355 1.396 . S
C354 C359 1.390 . S
C355 C349 1.465 . S
C355 C354 1.396 . S
C355 C356 1.399 . S
C356 H342 0.929 . S
C356 C355 1.399 . S
C356 C357 1.385 . S
C357 H343 0.931 . S
C357 C356 1.385 . S
C357 C358 1.389 . S
C358 C357 1.389 . S
C358 C359 1.387 . S
C359 H344 0.930 . S
C359 C354 1.390 . S
C359 C358 1.387 . S
H360 C372 0.930 . S
H361 C374 0.930 . S
H362 C375 0.930 . S
H363 C379 0.959 . S
H364 C379 0.959 . S
H365 C379 0.961 . S
H366 C380 0.960 . S
H367 C380 0.961 . S
H368 C380 0.959 . S
H369 C383 0.929 . S
H370 C384 0.931 . S
H371 C386 0.930 . S
C372 H360 0.930 . S
C372 C373 1.399 . S
C372 C377 1.399 . S
C373 C372 1.399 . S
C373 C374 1.376 . S
C374 H361 0.930 . S
C374 C373 1.376 . S
C374 C375 1.388 . S
C375 H362 0.930 . S
C375 C374 1.388 . S
C375 C376 1.390 . S
C376 C375 1.390 . S
C376 C377 1.394 . S
C376 C382 1.465 . S
C377 C372 1.399 . S
C377 C376 1.394 . S
C377 C378 1.516 . S
C378 C377 1.516 . S
C378 C379 1.502 . S
C378 C380 1.561 . S
C378 C381 1.526 . S
C379 H363 0.959 . S
C379 H364 0.959 . S
C379 H365 0.961 . S
C379 C378 1.502 . S
C380 H366 0.960 . S
C380 H367 0.961 . S
C380 H368 0.959 . S
C380 C378 1.561 . S
C381 C378 1.526 . S
C381 C382 1.396 . S
C381 C386 1.390 . S
C382 C376 1.465 . S
C382 C381 1.396 . S
C382 C383 1.399 . S
C383 H369 0.929 . S
C383 C382 1.399 . S
C383 C384 1.385 . S
C384 H370 0.931 . S
C384 C383 1.385 . S
C384 C385 1.389 . S
C385 C384 1.389 . S
C385 C386 1.387 . S
C386 H371 0.930 . S
C386 C381 1.390 . S
C386 C385 1.387 . S
H387 C399 0.930 . S
H388 C401 0.930 . S
H389 C402 0.930 . S
H390 C406 0.959 . S
H391 C406 0.959 . S
H392 C406 0.961 . S
H393 C407 0.960 . S
H394 C407 0.961 . S
H395 C407 0.959 . S
H396 C410 0.929 . S
H397 C411 0.931 . S
H398 C413 0.930 . S
C399 H387 0.930 . S
C399 C400 1.399 . S
C399 C404 1.399 . S
C400 C399 1.399 . S
C400 C401 1.376 . S
C401 H388 0.930 . S
C401 C400 1.376 . S
C401 C402 1.388 . S
C402 H389 0.930 . S
C402 C401 1.388 . S
C402 C403 1.390 . S
C403 C402 1.390 . S
C403 C404 1.394 . S
C403 C409 1.465 . S
C404 C399 1.399 . S
C404 C403 1.394 . S
C404 C405 1.516 . S
C405 C404 1.516 . S
C405 C406 1.502 . S
C405 C407 1.561 . S
C405 C408 1.526 . S
C406 H390 0.959 . S
C406 H391 0.959 . S
C406 H392 0.961 . S
C406 C405 1.502 . S
C407 H393 0.960 . S
C407 H394 0.961 . S
C407 H395 0.959 . S
C407 C405 1.561 . S
C408 C405 1.526 . S
C408 C409 1.396 . S
C408 C413 1.390 . S
C409 C403 1.465 . S
C409 C408 1.396 . S
C409 C410 1.399 . S
C410 H396 0.929 . S
C410 C409 1.399 . S
C410 C411 1.385 . S
C411 H397 0.931 . S
C411 C410 1.385 . S
C411 C412 1.389 . S
C412 C411 1.389 . S
C412 C413 1.387 . S
C413 H398 0.930 . S
C413 C408 1.390 . S
C413 C412 1.387 . S
H414 C426 0.930 . S
H415 C428 0.930 . S
H416 C429 0.930 . S
H417 C433 0.959 . S
H418 C433 0.959 . S
H419 C433 0.961 . S
H420 C434 0.960 . S
H421 C434 0.961 . S
H422 C434 0.959 . S
H423 C437 0.929 . S
H424 C438 0.931 . S
H425 C440 0.930 . S
C426 H414 0.930 . S
C426 C427 1.399 . S
C426 C431 1.399 . S
C427 C426 1.399 . S
C427 C428 1.376 . S
C428 H415 0.930 . S
C428 C427 1.376 . S
C428 C429 1.388 . S
C429 H416 0.930 . S
C429 C428 1.388 . S
C429 C430 1.390 . S
C430 C429 1.390 . S
C430 C431 1.394 . S
C430 C436 1.465 . S
C431 C426 1.399 . S
C431 C430 1.394 . S
C431 C432 1.516 . S
C432 C431 1.516 . S
C432 C433 1.502 . S
C432 C434 1.561 . S
C432 C435 1.526 . S
C433 H417 0.959 . S
C433 H418 0.959 . S
C433 H419 0.961 . S
C433 C432 1.502 . S
C434 H420 0.960 . S
C434 H421 0.961 . S
C434 H422 0.959 . S
C434 C432 1.561 . S
C435 C432 1.526 . S
C435 C436 1.396 . S
C435 C440 1.390 . S
C436 C430 1.465 . S
C436 C435 1.396 . S
C436 C437 1.399 1_556 S
C437 H423 0.929 . S
C437 C436 1.399 1_554 S
C437 C438 1.385 . S
C438 H424 0.931 . S
C438 C437 1.385 . S
C438 C439 1.389 . S
C439 C438 1.389 . S
C439 C440 1.387 1_554 S
C440 H425 0.930 . S
C440 C435 1.390 . S
C440 C439 1.387 1_556 S
H441 C453 0.930 . S
H442 C455 0.930 . S
H443 C456 0.930 . S
H444 C460 0.959 . S
H445 C460 0.959 . S
H446 C460 0.961 . S
H447 C461 0.960 . S
H448 C461 0.961 . S
H449 C461 0.959 . S
H450 C464 0.929 . S
H451 C465 0.931 . S
H452 C467 0.930 . S
C453 H441 0.930 . S
C453 C454 1.399 . S
C453 C458 1.399 . S
C454 C453 1.399 . S
C454 C455 1.376 . S
C455 H442 0.930 . S
C455 C454 1.376 . S
C455 C456 1.388 . S
C456 H443 0.930 . S
C456 C455 1.388 . S
C456 C457 1.390 . S
C457 C456 1.390 . S
C457 C458 1.394 . S
C457 C463 1.465 . S
C458 C453 1.399 . S
C458 C457 1.394 . S
C458 C459 1.516 . S
C459 C458 1.516 . S
C459 C460 1.502 . S
C459 C461 1.561 . S
C459 C462 1.526 . S
C460 H444 0.959 . S
C460 H445 0.959 . S
C460 H446 0.961 . S
C460 C459 1.502 . S
C461 H447 0.960 . S
C461 H448 0.961 . S
C461 H449 0.959 . S
C461 C459 1.561 . S
C462 C459 1.526 . S
C462 C463 1.396 . S
C462 C467 1.390 . S
C463 C457 1.465 . S
C463 C462 1.396 . S
C463 C464 1.399 1_565 S
C464 H450 0.929 . S
C464 C463 1.399 1_545 S
C464 C465 1.385 . S
C465 H451 0.931 . S
C465 C464 1.385 . S
C465 C466 1.389 1_545 S
C466 C465 1.389 1_565 S
C466 C467 1.387 . S
C467 H452 0.930 . S
C467 C462 1.390 . S
C467 C466 1.387 . S
H468 C480 0.930 . S
H469 C482 0.930 . S
H470 C483 0.930 . S
H471 C487 0.959 . S
H472 C487 0.959 . S
H473 C487 0.961 . S
H474 C488 0.960 . S
H475 C488 0.961 . S
H476 C488 0.959 . S
H477 C491 0.929 . S
H478 C492 0.931 . S
H479 C494 0.930 . S
C480 H468 0.930 . S
C480 C481 1.399 . S
C480 C485 1.399 . S
C481 C480 1.399 . S
C481 C482 1.376 1_655 S
C482 H469 0.930 . S
C482 C481 1.376 1_455 S
C482 C483 1.388 . S
C483 H470 0.930 . S
C483 C482 1.388 . S
C483 C484 1.390 1_455 S
C484 C483 1.390 1_655 S
C484 C485 1.394 . S
C484 C490 1.465 . S
C485 C480 1.399 . S
C485 C484 1.394 . S
C485 C486 1.516 . S
C486 C485 1.516 . S
C486 C487 1.502 . S
C486 C488 1.561 . S
C486 C489 1.526 . S
C487 H471 0.959 . S
C487 H472 0.959 . S
C487 H473 0.961 . S
C487 C486 1.502 . S
C488 H474 0.960 . S
C488 H475 0.961 . S
C488 H476 0.959 . S
C488 C486 1.561 . S
C489 C486 1.526 . S
C489 C490 1.396 . S
C489 C494 1.390 . S
C490 C484 1.465 . S
C490 C489 1.396 . S
C490 C491 1.399 . S
C491 H477 0.929 . S
C491 C490 1.399 . S
C491 C492 1.385 . S
C492 H478 0.931 . S
C492 C491 1.385 . S
C492 C493 1.389 . S
C493 C492 1.389 . S
C493 C494 1.387 . S
C494 H479 0.930 . S
C494 C489 1.390 . S
C494 C493 1.387 . S
C265 C56 1.529 . S
C277 C68 1.530 . S
C292 C152 1.504 . S
C304 C140 1.557 . S
C319 C236 1.574 . S
C331 C224 1.497 . S
C346 C238 1.486 . S
C358 C55 1.528 . S
C373 C142 1.124 . S
C385 C67 1.372 . S
C400 C223 1.548 . S
C412 C154 1.441 . S
C427 C235 1.411 . S
C439 C58 0.927 . S
C454 C70 1.428 . S
C466 C139 1.568 1_565 S
C481 C226 1.113 . S
C493 C151 1.416 . S
