# Generated by pormake.
# Topology fst, (5)-cn, num edge types: 1
# Building blocks:
#     Node 0, Type 0, BuildingBlock: BEQFEK_clean_sbu_0, # of connection points: 5
#     Node 1, Type 0, BuildingBlock: BEQFEK_clean_sbu_0, # of connection points: 5
#     Node 2, Type 0, BuildingBlock: BEQFEK_clean_sbu_0, # of connection points: 5
#     Node 3, Type 0, BuildingBlock: BEQFEK_clean_sbu_0, # of connection points: 5
#     Node 4, Type 0, BuildingBlock: BEQFEK_clean_sbu_0, # of connection points: 5
#     Node 5, Type 0, BuildingBlock: BEQFEK_clean_sbu_0, # of connection points: 5
#     Node 6, Type 0, BuildingBlock: BEQFEK_clean_sbu_0, # of connection points: 5
#     Node 7, Type 0, BuildingBlock: BEQFEK_clean_sbu_0, # of connection points: 5
#     Node 8, Type 0, BuildingBlock: BEQFEK_clean_sbu_0, # of connection points: 5
#     Node 9, Type 0, BuildingBlock: BEQFEK_clean_sbu_0, # of connection points: 5
#     Node 10, Type 0, BuildingBlock: BEQFEK_clean_sbu_0, # of connection points: 5
#     Node 11, Type 0, BuildingBlock: BEQFEK_clean_sbu_0, # of connection points: 5
#     Edge 12, Type (0, 0), BuildingBlock: TEMPAE_clean_linker_10, # of connection points: 2
#     Edge 13, Type (0, 0), BuildingBlock: TEMPAE_clean_linker_10, # of connection points: 2
#     Edge 14, Type (0, 0), BuildingBlock: TEMPAE_clean_linker_10, # of connection points: 2
#     Edge 15, Type (0, 0), BuildingBlock: TEMPAE_clean_linker_10, # of connection points: 2
#     Edge 16, Type (0, 0), BuildingBlock: TEMPAE_clean_linker_10, # of connection points: 2
#     Edge 17, Type (0, 0), BuildingBlock: TEMPAE_clean_linker_10, # of connection points: 2
#     Edge 18, Type (0, 0), BuildingBlock: TEMPAE_clean_linker_10, # of connection points: 2
#     Edge 19, Type (0, 0), BuildingBlock: TEMPAE_clean_linker_10, # of connection points: 2
#     Edge 20, Type (0, 0), BuildingBlock: TEMPAE_clean_linker_10, # of connection points: 2
#     Edge 21, Type (0, 0), BuildingBlock: TEMPAE_clean_linker_10, # of connection points: 2
#     Edge 22, Type (0, 0), BuildingBlock: TEMPAE_clean_linker_10, # of connection points: 2
#     Edge 23, Type (0, 0), BuildingBlock: TEMPAE_clean_linker_10, # of connection points: 2
#     Edge 24, Type (0, 0), BuildingBlock: TEMPAE_clean_linker_10, # of connection points: 2
#     Edge 25, Type (0, 0), BuildingBlock: TEMPAE_clean_linker_10, # of connection points: 2
#     Edge 26, Type (0, 0), BuildingBlock: TEMPAE_clean_linker_10, # of connection points: 2
#     Edge 27, Type (0, 0), BuildingBlock: TEMPAE_clean_linker_10, # of connection points: 2
#     Edge 28, Type (0, 0), BuildingBlock: TEMPAE_clean_linker_10, # of connection points: 2
#     Edge 29, Type (0, 0), BuildingBlock: TEMPAE_clean_linker_10, # of connection points: 2
#     Edge 30, Type (0, 0), BuildingBlock: TEMPAE_clean_linker_10, # of connection points: 2
#     Edge 31, Type (0, 0), BuildingBlock: TEMPAE_clean_linker_10, # of connection points: 2
#     Edge 32, Type (0, 0), BuildingBlock: TEMPAE_clean_linker_10, # of connection points: 2
#     Edge 33, Type (0, 0), BuildingBlock: TEMPAE_clean_linker_10, # of connection points: 2
#     Edge 34, Type (0, 0), BuildingBlock: TEMPAE_clean_linker_10, # of connection points: 2
#     Edge 35, Type (0, 0), BuildingBlock: TEMPAE_clean_linker_10, # of connection points: 2
#     Edge 36, Type (0, 0), BuildingBlock: TEMPAE_clean_linker_10, # of connection points: 2
#     Edge 37, Type (0, 0), BuildingBlock: TEMPAE_clean_linker_10, # of connection points: 2
#     Edge 38, Type (0, 0), BuildingBlock: TEMPAE_clean_linker_10, # of connection points: 2
#     Edge 39, Type (0, 0), BuildingBlock: TEMPAE_clean_linker_10, # of connection points: 2
#     Edge 40, Type (0, 0), BuildingBlock: TEMPAE_clean_linker_10, # of connection points: 2
#     Edge 41, Type (0, 0), BuildingBlock: TEMPAE_clean_linker_10, # of connection points: 2
# Relax obj value: 0.025
# Max RMSD: 0.072
# Mean RMSD: 0.072
data_MOF--net-fst--node1-BEQFEK_clean_sbu_0--edge1-TEMPAE_clean_linker_10
_symmetry_space_group_name_H-M    P1
_symmetry_Int_Tables_number       1
_symmetry_cell_setting            triclinic
loop_
_symmetry_equiv_pos_as_xyz
'x, y, z'
_cell_length_a     75.883386
_cell_length_b     75.875048
_cell_length_c     19.722702
_cell_angle_alpha  89.976505
_cell_angle_beta   90.039754
_cell_angle_gamma 120.02441
loop_
_atom_site_label
_atom_site_type_symbol
_atom_site_fract_x
_atom_site_fract_y
_atom_site_fract_z
_atom_type_partial_charge
Co0 Co 0.11313 0.45659 0.3065 0.0
Co1 Co 0.11594 0.4599 0.14782 0.0
C2 C 0.0769 0.43176 0.21663 0.0
O3 O 0.08523 0.43764 0.27453 0.0
O4 O 0.08697 0.43865 0.16186 0.0
C5 C 0.09975 0.44052 0.44141 0.0
O6 O 0.08192 0.42911 0.4128 0.0
C7 C 0.11329 0.45121 0.00109 0.0
C8 C 0.13629 0.48142 0.96191 0.0
C9 C 0.12194 0.46196 0.94178 0.0
N10 N 0.12224 0.46384 0.05378 0.0
N11 N 0.13604 0.4818 0.02999 0.0
C12 C 0.09544 0.43017 0.00816 0.0
H13 H 0.08183 0.43124 0.02198 0.0
H14 H 0.09829 0.42211 0.04997 0.0
H15 H 0.09216 0.42133 0.96055 0.0
C16 C 0.1469 0.44817 0.28419 0.0
N17 N 0.13247 0.452 0.26077 0.0
N18 N 0.13355 0.45316 0.19421 0.0
C19 C 0.14871 0.45014 0.17302 0.0
C20 C 0.1577 0.44688 0.22941 0.0
C21 C 0.15007 0.44568 0.3577 0.0
H22 H 0.15523 0.46035 0.38428 0.0
H23 H 0.1354 0.43423 0.38059 0.0
H24 H 0.16141 0.44071 0.3652 0.0
O25 O 0.11851 0.48471 0.29203 0.0
O26 O 0.12043 0.48656 0.17971 0.0
H27 H 0.16013 0.46785 0.08278 0.0
H28 H 0.1686 0.44977 0.09428 0.0
C29 C 0.15554 0.45229 0.10075 0.0
H30 H 0.14266 0.44131 0.06883 0.0
H31 H 0.14494 0.49448 0.06029 0.0
O32 O 0.11473 0.45296 0.40531 0.0
C33 C 0.12108 0.49449 0.23708 0.0
Co34 Co 0.65908 0.11353 0.26 0.0
Co35 Co 0.65445 0.11287 0.10248 0.0
C36 C 0.64843 0.07624 0.17457 0.0
O37 O 0.65218 0.08572 0.23074 0.0
O38 O 0.64879 0.0848 0.11862 0.0
C39 C 0.65521 0.10051 0.39463 0.0
O40 O 0.6405 0.08386 0.36705 0.0
C41 C 0.65574 0.10901 0.95343 0.0
C42 C 0.65391 0.13598 0.92109 0.0
C43 C 0.65543 0.11969 0.89665 0.0
N44 N 0.65475 0.11879 0.00882 0.0
N45 N 0.65358 0.13482 0.98907 0.0
C46 C 0.65546 0.08915 0.95564 0.0
H47 H 0.64349 0.07866 0.99123 0.0
H48 H 0.67033 0.09177 0.97489 0.0
H49 H 0.65238 0.08179 0.90512 0.0
C50 C 0.69935 0.14889 0.22699 0.0
N51 N 0.68108 0.13324 0.20894 0.0
N52 N 0.67956 0.13244 0.14247 0.0
C53 C 0.69709 0.14734 0.11589 0.0
C54 C 0.71018 0.15837 0.16852 0.0
C55 C 0.70557 0.15531 0.2989 0.0
H56 H 0.69233 0.15347 0.3285 0.0
H57 H 0.71082 0.14538 0.32184 0.0
H58 H 0.71801 0.17139 0.3021 0.0
O59 O 0.63509 0.11721 0.25103 0.0
O60 O 0.63129 0.1149 0.13927 0.0
H61 H 0.69467 0.1589 0.01967 0.0
H62 H 0.71828 0.15903 0.03211 0.0
C63 C 0.70163 0.15034 0.04158 0.0
H64 H 0.69508 0.13538 0.01584 0.0
H65 H 0.65256 0.14499 0.02222 0.0
O66 O 0.66593 0.11582 0.3571 0.0
C67 C 0.62545 0.11682 0.19778 0.0
Co68 Co 0.54066 0.65494 0.25969 0.0
Co69 Co 0.54228 0.65669 0.10061 0.0
C70 C 0.56909 0.64605 0.17749 0.0
O71 O 0.5612 0.64759 0.23253 0.0
O72 O 0.56374 0.64959 0.12008 0.0
C73 C 0.55895 0.66807 0.39106 0.0
O74 O 0.57599 0.6776 0.35642 0.0
C75 C 0.55257 0.66396 0.9538 0.0
C76 C 0.52543 0.66461 0.91629 0.0
C77 C 0.54372 0.6665 0.89561 0.0
N78 N 0.54003 0.66082 0.00638 0.0
N79 N 0.52382 0.6611 0.98337 0.0
C80 C 0.57301 0.66569 0.96046 0.0
H81 H 0.58005 0.6729 0.0096 0.0
H82 H 0.5832 0.67472 0.9182 0.0
H83 H 0.57111 0.65021 0.95968 0.0
C84 C 0.54739 0.69676 0.23982 0.0
N85 N 0.54539 0.67919 0.21612 0.0
N86 N 0.54708 0.68023 0.14963 0.0
C87 C 0.5507 0.69868 0.12909 0.0
C88 C 0.55081 0.70969 0.18536 0.0
C89 C 0.54447 0.7004 0.31246 0.0
H90 H 0.53275 0.68603 0.33626 0.0
H91 H 0.55903 0.7058 0.34007 0.0
H92 H 0.53983 0.71209 0.31713 0.0
O93 O 0.51358 0.63196 0.23677 0.0
O94 O 0.51521 0.63314 0.12443 0.0
H95 H 0.54003 0.70014 0.03011 0.0
H96 H 0.56302 0.72286 0.05477 0.0
C97 C 0.55472 0.70598 0.05721 0.0
H98 H 0.56388 0.70031 0.03144 0.0
H99 H 0.5117 0.65908 0.01382 0.0
O100 O 0.54219 0.65795 0.35951 0.0
C101 C 0.50567 0.62497 0.17906 0.0
Co102 Co 0.88671 0.54319 0.29816 0.0
Co103 Co 0.88552 0.54147 0.1396 0.0
C104 C 0.92369 0.56912 0.21081 0.0
O105 O 0.9147 0.56247 0.26732 0.0
O106 O 0.91429 0.56288 0.15464 0.0
C107 C 0.90096 0.5565 0.43344 0.0
O108 O 0.91904 0.56365 0.40598 0.0
C109 C 0.8888 0.5489 0.99198 0.0
C110 C 0.86247 0.52007 0.95621 0.0
C111 C 0.87861 0.53833 0.934 0.0
N112 N 0.87897 0.53734 0.046 0.0
N113 N 0.86322 0.52021 0.02427 0.0
C114 C 0.90847 0.56862 0.99661 0.0
H115 H 0.92016 0.56581 0.01981 0.0
H116 H 0.90649 0.57917 0.03052 0.0
H117 H 0.91399 0.57578 0.94631 0.0
C118 C 0.85196 0.55006 0.2739 0.0
N119 N 0.86729 0.54746 0.25166 0.0
N120 N 0.86753 0.54782 0.18503 0.0
C121 C 0.85269 0.55114 0.16258 0.0
C122 C 0.84216 0.55248 0.21807 0.0
C123 C 0.84588 0.54844 0.34683 0.0
H124 H 0.84721 0.53603 0.37166 0.0
H125 H 0.85639 0.56291 0.37301 0.0
H126 H 0.83005 0.54538 0.3524 0.0
O127 O 0.88172 0.51532 0.28373 0.0
O128 O 0.88118 0.51473 0.17116 0.0
H129 H 0.84031 0.53824 0.06577 0.0
H130 H 0.84027 0.56154 0.08357 0.0
C131 C 0.84902 0.5535 0.08941 0.0
H132 H 0.86376 0.56222 0.06253 0.0
H133 H 0.85321 0.50843 0.05603 0.0
O134 O 0.8852 0.54729 0.39641 0.0
C135 C 0.87993 0.50619 0.22788 0.0
Co136 Co 0.3446 0.88929 0.26869 0.0
Co137 Co 0.34437 0.88628 0.1097 0.0
C138 C 0.35268 0.92457 0.17859 0.0
O139 O 0.34976 0.91615 0.23651 0.0
O140 O 0.35159 0.91505 0.12409 0.0
C141 C 0.32837 0.89119 0.40024 0.0
O142 O 0.31407 0.8924 0.36661 0.0
C143 C 0.34152 0.88919 0.95949 0.0
C144 C 0.33323 0.85785 0.93046 0.0
C145 C 0.33651 0.87616 0.90387 0.0
N146 N 0.34054 0.87872 0.01591 0.0
N147 N 0.33596 0.86015 0.99783 0.0
C148 C 0.34909 0.91159 0.95907 0.0
H149 H 0.36022 0.91917 0.00055 0.0
H150 H 0.33609 0.91418 0.96708 0.0
H151 H 0.35664 0.91859 0.91032 0.0
C152 C 0.30369 0.85223 0.24935 0.0
N153 N 0.32115 0.86805 0.22574 0.0
N154 N 0.32038 0.86824 0.15903 0.0
C155 C 0.30201 0.8532 0.13846 0.0
C156 C 0.29099 0.84236 0.19474 0.0
C157 C 0.29998 0.8455 0.32181 0.0
H158 H 0.3146 0.85071 0.34871 0.0
H159 H 0.29144 0.85198 0.34706 0.0
H160 H 0.29065 0.82866 0.32511 0.0
O161 O 0.36885 0.88679 0.25065 0.0
O162 O 0.36756 0.88289 0.13889 0.0
H163 H 0.29754 0.83901 0.04133 0.0
H164 H 0.27761 0.84379 0.06624 0.0
C165 C 0.29434 0.85011 0.067 0.0
H166 H 0.30178 0.8647 0.03883 0.0
H167 H 0.33449 0.84895 0.0318 0.0
O168 O 0.34188 0.8893 0.36843 0.0
C169 C 0.37588 0.8839 0.19589 0.0
Co170 Co 0.45769 0.34432 0.26927 0.0
Co171 Co 0.45756 0.34318 0.11016 0.0
C172 C 0.42997 0.35344 0.18381 0.0
O173 O 0.43679 0.35129 0.24041 0.0
O174 O 0.43655 0.35078 0.1275 0.0
C175 C 0.43926 0.33146 0.40118 0.0
O176 O 0.42207 0.32203 0.36722 0.0
C177 C 0.44763 0.3361 0.96341 0.0
C178 C 0.47467 0.33525 0.9261 0.0
C179 C 0.45645 0.33354 0.90528 0.0
N180 N 0.46011 0.33912 0.01609 0.0
N181 N 0.47627 0.33871 0.99324 0.0
C182 C 0.42722 0.33445 0.96996 0.0
H183 H 0.42007 0.32702 0.01871 0.0
H184 H 0.41709 0.32565 0.92728 0.0
H185 H 0.42922 0.34997 0.97004 0.0
C186 C 0.45095 0.30259 0.25034 0.0
N187 N 0.45325 0.32023 0.22617 0.0
N188 N 0.45222 0.31939 0.15954 0.0
C189 C 0.44869 0.30093 0.1393 0.0
C190 C 0.44795 0.28974 0.19604 0.0
C191 C 0.45332 0.29886 0.32343 0.0
H192 H 0.465 0.31316 0.34772 0.0
H193 H 0.43862 0.29359 0.34984 0.0
H194 H 0.4578 0.28708 0.32916 0.0
O195 O 0.48526 0.36706 0.24801 0.0
O196 O 0.48424 0.36674 0.13555 0.0
H197 H 0.46024 0.29974 0.0417 0.0
H198 H 0.43704 0.27693 0.06433 0.0
C199 C 0.44531 0.2938 0.06723 0.0
H200 H 0.43639 0.29954 0.0402 0.0
H201 H 0.48833 0.3406 0.0238 0.0
O202 O 0.45592 0.34132 0.36903 0.0
C203 C 0.49348 0.37444 0.19099 0.0
Co204 Co 0.54532 0.89012 0.12243 0.0
Co205 Co 0.54299 0.88681 0.28135 0.0
C206 C 0.57303 0.92514 0.2128 0.0
O207 O 0.56723 0.91685 0.1548 0.0
O208 O 0.56474 0.91554 0.26734 0.0
C209 C 0.56336 0.89229 0.99092 0.0
O210 O 0.57885 0.89351 0.0247 0.0
C211 C 0.54875 0.88965 0.43145 0.0
C212 C 0.52612 0.85814 0.46036 0.0
C213 C 0.54089 0.87658 0.48704 0.0
N214 N 0.53943 0.87909 0.37498 0.0
N215 N 0.52569 0.86041 0.39298 0.0
C216 C 0.56313 0.91215 0.43198 0.0
H217 H 0.55935 0.91951 0.39038 0.0
H218 H 0.57889 0.91518 0.42423 0.0
H219 H 0.5623 0.91901 0.48066 0.0
C220 C 0.54892 0.8529 0.13951 0.0
N221 N 0.54749 0.86872 0.16415 0.0
N222 N 0.54864 0.86874 0.23081 0.0
C223 C 0.55191 0.85358 0.25027 0.0
C224 C 0.55184 0.84285 0.19333 0.0
C225 C 0.54563 0.84633 0.06686 0.0
H226 H 0.53617 0.85166 0.04092 0.0
H227 H 0.56056 0.85284 0.04097 0.0
H228 H 0.53805 0.8295 0.06306 0.0
O229 O 0.51864 0.88765 0.14159 0.0
O230 O 0.51642 0.88367 0.25334 0.0
H231 H 0.54248 0.839 0.34695 0.0
H232 H 0.56717 0.84403 0.32081 0.0
C233 C 0.55668 0.85026 0.32121 0.0
H234 H 0.56383 0.86475 0.35 0.0
H235 H 0.51606 0.84914 0.35898 0.0
O236 O 0.5479 0.8903 0.02264 0.0
C237 C 0.50892 0.88475 0.19681 0.0
Co238 Co 0.65701 0.54305 0.11688 0.0
Co239 Co 0.65493 0.54358 0.27539 0.0
C240 C 0.64539 0.57022 0.19757 0.0
O241 O 0.64712 0.56192 0.1438 0.0
O242 O 0.64921 0.56575 0.25591 0.0
C243 C 0.66356 0.56118 0.98441 0.0
O244 O 0.66023 0.57455 0.01538 0.0
C245 C 0.65927 0.55161 0.42342 0.0
C246 C 0.65235 0.52132 0.46097 0.0
C247 C 0.65715 0.5406 0.4821 0.0
N248 N 0.65592 0.53931 0.37001 0.0
N249 N 0.65188 0.52129 0.39289 0.0
C250 C 0.66284 0.57281 0.41761 0.0
H251 H 0.64928 0.57227 0.39414 0.0
H252 H 0.67594 0.58181 0.38337 0.0
H253 H 0.66566 0.58041 0.46766 0.0
C254 C 0.69833 0.55041 0.14831 0.0
N255 N 0.68022 0.54802 0.16724 0.0
N256 N 0.67955 0.54871 0.23374 0.0
C257 C 0.69741 0.55202 0.25937 0.0
C258 C 0.70989 0.55307 0.20615 0.0
C259 C 0.70354 0.54831 0.07667 0.0
H260 H 0.68993 0.53611 0.05067 0.0
H261 H 0.70832 0.5628 0.04934 0.0
H262 H 0.71601 0.54472 0.07433 0.0
O263 O 0.63484 0.51492 0.13207 0.0
O264 O 0.63151 0.51748 0.2429 0.0
H265 H 0.69479 0.53958 0.35851 0.0
H266 H 0.7192 0.56188 0.3417 0.0
C267 C 0.70255 0.55468 0.33331 0.0
H268 H 0.69709 0.56433 0.35674 0.0
H269 H 0.64854 0.50887 0.36185 0.0
O270 O 0.66324 0.54675 0.01832 0.0
C271 C 0.62557 0.50753 0.18765 0.0
Co272 Co 0.11333 0.6548 0.12445 0.0
Co273 Co 0.11414 0.65712 0.28358 0.0
C274 C 0.07613 0.64531 0.20807 0.0
O275 O 0.08529 0.64679 0.15244 0.0
O276 O 0.08536 0.64931 0.26494 0.0
C277 C 0.10798 0.66781 0.99302 0.0
O278 O 0.10066 0.67749 0.02772 0.0
C279 C 0.11118 0.66457 0.43023 0.0
C280 C 0.13911 0.66553 0.46781 0.0
C281 C 0.12259 0.66721 0.48848 0.0
N282 N 0.12067 0.66155 0.37768 0.0
N283 N 0.13726 0.66203 0.40072 0.0
C284 C 0.09234 0.66606 0.4235 0.0
H285 H 0.09235 0.67307 0.3741 0.0
H286 H 0.09116 0.67517 0.46543 0.0
H287 H 0.07885 0.65052 0.42489 0.0
C288 C 0.14829 0.69691 0.14289 0.0
N289 N 0.13275 0.67938 0.16717 0.0
N290 N 0.13227 0.68063 0.23364 0.0
C291 C 0.14712 0.69914 0.25357 0.0
C292 C 0.15792 0.71 0.19695 0.0
C293 C 0.15483 0.7003 0.07023 0.0
H294 H 0.15212 0.68585 0.04701 0.0
H295 H 0.14572 0.70567 0.0422 0.0
H296 H 0.17118 0.71194 0.06535 0.0
O297 O 0.11806 0.63222 0.14755 0.0
O298 O 0.11852 0.63411 0.25996 0.0
H299 H 0.1596 0.70081 0.3521 0.0
H300 H 0.15919 0.72345 0.32738 0.0
C301 C 0.15063 0.70657 0.32532 0.0
H302 H 0.13587 0.7009 0.35165 0.0
H303 H 0.14743 0.66011 0.37032 0.0
O304 O 0.11453 0.65761 0.02455 0.0
C305 C 0.11973 0.62582 0.20545 0.0
Co306 Co 0.4579 0.11279 0.13606 0.0
Co307 Co 0.45751 0.1129 0.29515 0.0
C308 C 0.42954 0.07567 0.21936 0.0
O309 O 0.43664 0.08497 0.16345 0.0
O310 O 0.43612 0.08445 0.27639 0.0
C311 C 0.43956 0.10741 0.00426 0.0
O312 O 0.42236 0.09926 0.03817 0.0
C313 C 0.44763 0.10974 0.44209 0.0
C314 C 0.47461 0.13772 0.47944 0.0
C315 C 0.45642 0.12117 0.50018 0.0
N316 N 0.46009 0.11924 0.38943 0.0
N317 N 0.47622 0.13585 0.41233 0.0
C318 C 0.42726 0.09092 0.43557 0.0
H319 H 0.41996 0.09128 0.38724 0.0
H320 H 0.41722 0.08939 0.47874 0.0
H321 H 0.42935 0.07745 0.43451 0.0
C322 C 0.45143 0.14782 0.15714 0.0
N323 N 0.45369 0.13237 0.18037 0.0
N324 N 0.45254 0.13184 0.24699 0.0
C325 C 0.44896 0.14666 0.26814 0.0
C326 C 0.44832 0.15739 0.21205 0.0
C327 C 0.45379 0.15418 0.08433 0.0
H328 H 0.46549 0.15169 0.05967 0.0
H329 H 0.43909 0.14478 0.05774 0.0
H330 H 0.45822 0.17045 0.07934 0.0
O331 O 0.4853 0.11721 0.15731 0.0
O332 O 0.48408 0.11572 0.26971 0.0
H333 H 0.46009 0.1589 0.36663 0.0
H334 H 0.43687 0.1584 0.34363 0.0
C335 C 0.44527 0.14994 0.34037 0.0
H336 H 0.43634 0.1351 0.36643 0.0
H337 H 0.48824 0.14608 0.38177 0.0
O338 O 0.45626 0.11446 0.03645 0.0
C339 C 0.49337 0.11755 0.2142 0.0
Co340 Co 0.34121 0.45271 0.11665 0.0
Co341 Co 0.34686 0.46088 0.27395 0.0
C342 C 0.35431 0.42966 0.20531 0.0
O343 O 0.34867 0.43263 0.14774 0.0
O344 O 0.35485 0.43982 0.25756 0.0
C345 C 0.3365 0.4363 0.98105 0.0
O346 O 0.34338 0.42505 0.00791 0.0
C347 C 0.34006 0.45276 0.42178 0.0
C348 C 0.35577 0.48423 0.46143 0.0
C349 C 0.34533 0.46403 0.48149 0.0
N350 N 0.34711 0.4658 0.36911 0.0
N351 N 0.35635 0.48455 0.39333 0.0
C352 C 0.32967 0.43011 0.41482 0.0
H353 H 0.33194 0.42574 0.36336 0.0
H354 H 0.3131 0.42356 0.42301 0.0
H355 H 0.33544 0.42365 0.45363 0.0
C356 C 0.30033 0.44613 0.15023 0.0
N357 N 0.31909 0.45024 0.16866 0.0
N358 N 0.32132 0.45363 0.23442 0.0
C359 C 0.30416 0.45221 0.25974 0.0
C360 C 0.29022 0.44729 0.20727 0.0
C361 C 0.29225 0.44081 0.07943 0.0
H362 H 0.29601 0.42957 0.058 0.0
H363 H 0.27551 0.43434 0.07777 0.0
H364 H 0.29972 0.4547 0.04746 0.0
O365 O 0.36549 0.4806 0.12399 0.0
O366 O 0.36776 0.4868 0.23469 0.0
H367 H 0.28884 0.45995 0.33712 0.0
H368 H 0.29999 0.44505 0.36535 0.0
C369 C 0.30201 0.45754 0.33119 0.0
H370 H 0.31601 0.47163 0.34663 0.0
H371 H 0.36338 0.49762 0.36333 0.0
O372 O 0.33405 0.44851 0.01868 0.0
C373 C 0.37386 0.49237 0.17438 0.0
Co374 Co 0.88816 0.34676 0.10438 0.0
Co375 Co 0.88601 0.34279 0.26324 0.0
C376 C 0.92464 0.35539 0.1907 0.0
O377 O 0.91604 0.35451 0.13433 0.0
O378 O 0.91488 0.35079 0.24653 0.0
C379 C 0.89416 0.33459 0.97262 0.0
O380 O 0.90135 0.32478 0.00732 0.0
C381 C 0.88876 0.33509 0.40971 0.0
C382 C 0.8601 0.33265 0.44654 0.0
C383 C 0.87715 0.33199 0.46776 0.0
N384 N 0.87892 0.33747 0.35681 0.0
N385 N 0.86187 0.33606 0.37937 0.0
C386 C 0.90826 0.33482 0.40358 0.0
H387 H 0.90851 0.32753 0.35509 0.0
H388 H 0.91023 0.3265 0.44655 0.0
H389 H 0.92116 0.35071 0.40321 0.0
C390 C 0.85294 0.30457 0.11748 0.0
N391 N 0.86833 0.32179 0.14409 0.0
N392 N 0.86833 0.31981 0.21038 0.0
C393 C 0.85339 0.30107 0.22785 0.0
C394 C 0.84294 0.29085 0.16977 0.0
C395 C 0.84682 0.30208 0.0444 0.0
H396 H 0.84992 0.31686 0.0229 0.0
H397 H 0.85586 0.29674 0.01583 0.0
H398 H 0.83043 0.29075 0.03807 0.0
O399 O 0.88329 0.36912 0.12918 0.0
O400 O 0.88181 0.36605 0.24135 0.0
H401 H 0.84003 0.29778 0.32575 0.0
H402 H 0.84149 0.27591 0.29836 0.0
C403 C 0.84958 0.2928 0.29858 0.0
H404 H 0.86419 0.2986 0.32607 0.0
H405 H 0.85141 0.33744 0.34869 0.0
O406 O 0.88755 0.34471 0.00423 0.0
C407 C 0.88111 0.37493 0.18749 0.0
C408 C 0.13487 0.60663 0.25885 0.0
C409 C 0.12205 0.60771 0.20993 0.0
C410 C 0.1366 0.58912 0.26513 0.0
C411 C 0.12456 0.57205 0.22338 0.0
C412 C 0.1115 0.57308 0.17413 0.0
C413 C 0.11071 0.59107 0.16714 0.0
C414 C 0.15126 0.58887 0.31636 0.0
C415 C 0.09794 0.55501 0.13009 0.0
C416 C 0.13663 0.52987 0.19245 0.0
C417 C 0.12365 0.51506 0.23886 0.0
C418 C 0.13788 0.54894 0.18934 0.0
C419 C 0.12523 0.55292 0.23177 0.0
C420 C 0.11232 0.53809 0.27948 0.0
C421 C 0.11196 0.51944 0.28327 0.0
C422 C 0.15237 0.56461 0.13954 0.0
C423 C 0.09814 0.54151 0.32412 0.0
H424 H 0.14372 0.61959 0.29168 0.0
H425 H 0.10062 0.59187 0.12984 0.0
H426 H 0.14278 0.57721 0.35572 0.0
H427 H 0.16171 0.58465 0.2912 0.0
H428 H 0.16048 0.60384 0.34169 0.0
H429 H 0.08824 0.55814 0.09562 0.0
H430 H 0.10729 0.55062 0.09897 0.0
H431 H 0.08792 0.54174 0.16244 0.0
H432 H 0.14574 0.52647 0.15834 0.0
H433 H 0.10176 0.50787 0.31861 0.0
H434 H 0.16168 0.57948 0.16525 0.0
H435 H 0.14364 0.5669 0.09877 0.0
H436 H 0.16272 0.56 0.11584 0.0
H437 H 0.10683 0.55569 0.35398 0.0
H438 H 0.08945 0.52867 0.35971 0.0
H439 H 0.08718 0.54342 0.29206 0.0
C440 C 0.60512 0.13102 0.24957 0.0
C441 C 0.6066 0.11781 0.2034 0.0
C442 C 0.58733 0.13237 0.25322 0.0
C443 C 0.57047 0.11962 0.21156 0.0
C444 C 0.57182 0.10593 0.16598 0.0
C445 C 0.59001 0.10548 0.16157 0.0
C446 C 0.58668 0.14762 0.30075 0.0
C447 C 0.55397 0.09159 0.12238 0.0
C448 C 0.51758 0.10797 0.26382 0.0
C449 C 0.51354 0.11915 0.21596 0.0
C450 C 0.53615 0.10814 0.26346 0.0
C451 C 0.55129 0.12037 0.21562 0.0
C452 C 0.54757 0.13236 0.16899 0.0
C453 C 0.52856 0.13129 0.16885 0.0
C454 C 0.53923 0.09461 0.31242 0.0
C455 C 0.56358 0.14609 0.11869 0.0
H456 H 0.61805 0.14066 0.2815 0.0
H457 H 0.59114 0.09513 0.12628 0.0
H458 H 0.58309 0.158 0.27188 0.0
H459 H 0.57442 0.13967 0.33874 0.0
H460 H 0.60132 0.15689 0.32796 0.0
H461 H 0.55723 0.08123 0.09196 0.0
H462 H 0.54048 0.08224 0.15472 0.0
H463 H 0.54987 0.10039 0.08723 0.0
H464 H 0.50587 0.09844 0.29991 0.0
H465 H 0.52547 0.14007 0.13225 0.0
H466 H 0.55314 0.10374 0.34319 0.0
H467 H 0.54148 0.0833 0.28375 0.0
H468 H 0.5261 0.08632 0.34725 0.0
H469 H 0.5782 0.15597 0.14512 0.0
H470 H 0.55905 0.1559 0.0906 0.0
H471 H 0.56633 0.13679 0.08145 0.0
C472 C 0.3925 0.5297 0.19397 0.0
C473 C 0.39175 0.51262 0.16401 0.0
C474 C 0.41029 0.54879 0.19118 0.0
C475 C 0.42795 0.55056 0.16035 0.0
C476 C 0.4271 0.53336 0.12889 0.0
C477 C 0.40883 0.51461 0.13005 0.0
C478 C 0.41036 0.56691 0.22314 0.0
C479 C 0.44577 0.53446 0.09743 0.0
C480 C 0.47312 0.60246 0.11765 0.0
C481 C 0.48542 0.60641 0.17519 0.0
C482 C 0.45416 0.58452 0.11259 0.0
C483 C 0.44765 0.56998 0.16549 0.0
C484 C 0.46005 0.57389 0.2236 0.0
C485 C 0.47866 0.59219 0.22814 0.0
C486 C 0.44108 0.58115 0.05081 0.0
C487 C 0.45386 0.55857 0.28045 0.0
H488 H 0.37919 0.52804 0.22016 0.0
H489 H 0.40823 0.50126 0.10777 0.0
H490 H 0.41998 0.57159 0.26937 0.0
H491 H 0.41701 0.58003 0.18772 0.0
H492 H 0.39482 0.56352 0.23751 0.0
H493 H 0.44235 0.51995 0.07255 0.0
H494 H 0.45252 0.54686 0.05934 0.0
H495 H 0.45744 0.53807 0.13722 0.0
H496 H 0.47827 0.61348 0.07677 0.0
H497 H 0.4882 0.59509 0.27242 0.0
H498 H 0.42585 0.57835 0.06647 0.0
H499 H 0.43874 0.56744 0.023 0.0
H500 H 0.44795 0.59434 0.01559 0.0
H501 H 0.43931 0.55578 0.30308 0.0
H502 H 0.46551 0.5637 0.32121 0.0
H503 H 0.45131 0.54382 0.26028 0.0
C504 C 0.8902 0.40987 0.15122 0.0
C505 C 0.87885 0.39305 0.19331 0.0
C506 C 0.88945 0.42785 0.15934 0.0
C507 C 0.87644 0.4287 0.20907 0.0
C508 C 0.8644 0.41147 0.25017 0.0
C509 C 0.86607 0.39396 0.24272 0.0
C510 C 0.90301 0.44609 0.11594 0.0
C511 C 0.84979 0.41155 0.30194 0.0
C512 C 0.88913 0.48108 0.27179 0.0
C513 C 0.87745 0.48566 0.22803 0.0
C514 C 0.88876 0.46244 0.26682 0.0
C515 C 0.87581 0.44782 0.21863 0.0
C516 C 0.86317 0.45202 0.17681 0.0
C517 C 0.86447 0.47109 0.18104 0.0
C518 C 0.90295 0.45882 0.31077 0.0
C519 C 0.84863 0.43655 0.12659 0.0
H520 H 0.90026 0.40922 0.11354 0.0
H521 H 0.85721 0.38087 0.27501 0.0
H522 H 0.89364 0.45062 0.08538 0.0
H523 H 0.91305 0.45922 0.14875 0.0
H524 H 0.91267 0.44308 0.08098 0.0
H525 H 0.84058 0.39649 0.32669 0.0
H526 H 0.85832 0.42305 0.34169 0.0
H527 H 0.83934 0.41589 0.27741 0.0
H528 H 0.89933 0.49249 0.3076 0.0
H529 H 0.85536 0.47466 0.14746 0.0
H530 H 0.91384 0.45697 0.27822 0.0
H531 H 0.89425 0.44455 0.34017 0.0
H532 H 0.91171 0.47153 0.34674 0.0
H533 H 0.85731 0.43437 0.08544 0.0
H534 H 0.83829 0.44129 0.10345 0.0
H535 H 0.83929 0.42159 0.15176 0.0
C536 C 0.41022 0.89472 0.24334 0.0
C537 C 0.39458 0.88254 0.19807 0.0
C538 C 0.42866 0.89461 0.24317 0.0
C539 C 0.43117 0.88146 0.19829 0.0
C540 C 0.41512 0.86863 0.15404 0.0
C541 C 0.39713 0.86961 0.15356 0.0
C542 C 0.44564 0.90898 0.2896 0.0
C543 C 0.41698 0.85393 0.10707 0.0
C544 C 0.48479 0.89477 0.14904 0.0
C545 C 0.48878 0.88325 0.19562 0.0
C546 C 0.46611 0.89438 0.14956 0.0
C547 C 0.45085 0.88164 0.19628 0.0
C548 C 0.4546 0.86951 0.24209 0.0
C549 C 0.47368 0.87074 0.24202 0.0
C550 C 0.46293 0.90801 0.10131 0.0
C551 C 0.43847 0.85526 0.29116 0.0
H552 H 0.40831 0.90487 0.2773 0.0
H553 H 0.38494 0.86009 0.11888 0.0
H554 H 0.4501 0.9003 0.32393 0.0
H555 H 0.45925 0.9193 0.25915 0.0
H556 H 0.44128 0.91837 0.32093 0.0
H557 H 0.40259 0.844 0.07939 0.0
H558 H 0.42919 0.86245 0.06941 0.0
H559 H 0.42131 0.84417 0.13631 0.0
H560 H 0.49654 0.90459 0.11356 0.0
H561 H 0.47673 0.86172 0.27771 0.0
H562 H 0.45952 0.91847 0.13038 0.0
H563 H 0.44966 0.89874 0.06804 0.0
H564 H 0.47645 0.91723 0.06887 0.0
H565 H 0.43477 0.8641 0.32745 0.0
H566 H 0.44336 0.84592 0.32037 0.0
H567 H 0.42427 0.84492 0.26334 0.0
C568 C 0.60555 0.47146 0.1481 0.0
C569 C 0.60699 0.48736 0.18821 0.0
C570 C 0.58784 0.45222 0.14888 0.0
C571 C 0.57099 0.44916 0.18864 0.0
C572 C 0.57237 0.46529 0.22866 0.0
C573 C 0.59051 0.48409 0.2289 0.0
C574 C 0.58716 0.43518 0.10738 0.0
C575 C 0.55453 0.46287 0.26995 0.0
C576 C 0.51823 0.40739 0.1375 0.0
C577 C 0.51373 0.39296 0.18876 0.0
C578 C 0.53688 0.4257 0.13662 0.0
C579 C 0.55163 0.42933 0.18693 0.0
C580 C 0.54745 0.41445 0.2374 0.0
C581 C 0.52836 0.39656 0.23844 0.0
C582 C 0.54049 0.44145 0.08327 0.0
C583 C 0.56304 0.4175 0.29059 0.0
H584 H 0.6184 0.47399 0.1171 0.0
H585 H 0.5916 0.49647 0.25949 0.0
H586 H 0.58289 0.42172 0.1401 0.0
H587 H 0.57537 0.43041 0.06739 0.0
H588 H 0.602 0.43968 0.08282 0.0
H589 H 0.55799 0.47705 0.29719 0.0
H590 H 0.54123 0.45846 0.23631 0.0
H591 H 0.55002 0.45051 0.3077 0.0
H592 H 0.50684 0.40468 0.09936 0.0
H593 H 0.52493 0.38531 0.27777 0.0
H594 H 0.55439 0.44528 0.05374 0.0
H595 H 0.54304 0.45567 0.10803 0.0
H596 H 0.52749 0.4362 0.04756 0.0
H597 H 0.57773 0.42144 0.26613 0.0
H598 H 0.55809 0.40374 0.32249 0.0
H599 H 0.56586 0.4304 0.32407 0.0
C600 C 0.25584 0.43332 0.25963 0.0
C601 C 0.26999 0.44562 0.21051 0.0
C602 C 0.23691 0.4323 0.26505 0.0
C603 C 0.23208 0.44379 0.21994 0.0
C604 C 0.24625 0.45599 0.16953 0.0
C605 C 0.26509 0.45681 0.16562 0.0
C606 C 0.22222 0.41918 0.31953 0.0
C607 C 0.24163 0.46843 0.12043 0.0
C608 C 0.17719 0.43015 0.19212 0.0
C609 C 0.17616 0.44504 0.23093 0.0
C610 C 0.1952 0.42925 0.18916 0.0
C611 C 0.21245 0.44354 0.22633 0.0
C612 C 0.21124 0.45822 0.26729 0.0
C613 C 0.19307 0.45882 0.26892 0.0
C614 C 0.19594 0.41341 0.14489 0.0
C615 C 0.22928 0.47364 0.30784 0.0
H616 H 0.25966 0.42458 0.29404 0.0
H617 H 0.27617 0.46652 0.1282 0.0
H618 H 0.2191 0.42877 0.35441 0.0
H619 H 0.20749 0.40792 0.29643 0.0
H620 H 0.22815 0.41088 0.34967 0.0
H621 H 0.25399 0.47654 0.08272 0.0
H622 H 0.22726 0.45845 0.09289 0.0
H623 H 0.23944 0.47984 0.14861 0.0
H624 H 0.16398 0.41942 0.16323 0.0
H625 H 0.19224 0.47042 0.29855 0.0
H626 H 0.20099 0.40438 0.17496 0.0
H627 H 0.20722 0.421 0.1037 0.0
H628 H 0.18094 0.40286 0.12168 0.0
H629 H 0.23512 0.46584 0.34076 0.0
H630 H 0.22546 0.48325 0.34014 0.0
H631 H 0.24179 0.48371 0.273 0.0
C632 C 0.82173 0.25623 0.11888 0.0
C633 C 0.82392 0.27096 0.16614 0.0
C634 C 0.80369 0.23729 0.11576 0.0
C635 C 0.78759 0.2331 0.16114 0.0
C636 C 0.78978 0.248 0.20883 0.0
C637 C 0.80788 0.26679 0.21045 0.0
C638 C 0.80183 0.2218 0.06404 0.0
C639 C 0.77296 0.24413 0.25802 0.0
C640 C 0.73309 0.19302 0.12152 0.0
C641 C 0.73039 0.17695 0.16343 0.0
C642 C 0.75188 0.21114 0.1184 0.0
C643 C 0.76828 0.21326 0.15867 0.0
C644 C 0.76575 0.19688 0.2 0.0
C645 C 0.7468 0.17887 0.20172 0.0
C646 C 0.75398 0.22825 0.07365 0.0
C647 C 0.78286 0.1986 0.24381 0.0
H648 H 0.8342 0.25947 0.08483 0.0
H649 H 0.80943 0.27834 0.24612 0.0
H650 H 0.79902 0.20764 0.08997 0.0
H651 H 0.78861 0.21771 0.0304 0.0
H652 H 0.81571 0.22746 0.03226 0.0
H653 H 0.77727 0.25719 0.29276 0.0
H654 H 0.75908 0.24112 0.22978 0.0
H655 H 0.76899 0.23042 0.28892 0.0
H656 H 0.72032 0.19161 0.09246 0.0
H657 H 0.74474 0.16632 0.23353 0.0
H658 H 0.76742 0.23358 0.04 0.0
H659 H 0.7565 0.24136 0.1055 0.0
H660 H 0.74028 0.22361 0.04175 0.0
H661 H 0.79663 0.20313 0.21257 0.0
H662 H 0.77876 0.18411 0.27021 0.0
H663 H 0.78692 0.21066 0.28248 0.0
C664 C 0.56547 0.74518 0.22939 0.0
C665 C 0.55199 0.72972 0.18585 0.0
C666 C 0.56651 0.76419 0.23025 0.0
C667 C 0.55367 0.76764 0.18681 0.0
C668 C 0.5401 0.75204 0.14254 0.0
C669 C 0.53944 0.73325 0.14263 0.0
C670 C 0.5812 0.7805 0.27797 0.0
C671 C 0.52603 0.75507 0.09593 0.0
C672 C 0.54013 0.80775 0.23516 0.0
C673 C 0.55263 0.82379 0.19171 0.0
C674 C 0.54051 0.78949 0.23463 0.0
C675 C 0.55374 0.78725 0.18946 0.0
C676 C 0.56648 0.80345 0.14556 0.0
C677 C 0.56572 0.82157 0.14706 0.0
C678 C 0.52654 0.77249 0.28172 0.0
C679 C 0.58082 0.80161 0.09691 0.0
H680 H 0.57524 0.74241 0.26247 0.0
H681 H 0.52882 0.72115 0.10963 0.0
H682 H 0.59146 0.7945 0.24914 0.0
H683 H 0.57269 0.78452 0.31461 0.0
H684 H 0.59062 0.77561 0.30676 0.0
H685 H 0.51685 0.74161 0.06314 0.0
H686 H 0.51551 0.75807 0.12631 0.0
H687 H 0.53494 0.76853 0.06304 0.0
H688 H 0.52974 0.80937 0.26882 0.0
H689 H 0.57548 0.83407 0.11383 0.0
H690 H 0.53552 0.76793 0.31425 0.0
H691 H 0.51586 0.75893 0.25172 0.0
H692 H 0.51754 0.77689 0.31489 0.0
H693 H 0.59125 0.79796 0.12514 0.0
H694 H 0.59007 0.8158 0.06736 0.0
H695 H 0.57206 0.78892 0.06097 0.0
C696 C 0.73299 0.54194 0.25549 0.0
C697 C 0.73002 0.55451 0.21056 0.0
C698 C 0.75176 0.54261 0.25905 0.0
C699 C 0.76782 0.55598 0.21584 0.0
C700 C 0.76495 0.56887 0.17079 0.0
C701 C 0.74606 0.56803 0.16891 0.0
C702 C 0.75425 0.52868 0.30792 0.0
C703 C 0.78168 0.5832 0.1236 0.0
C704 C 0.8214 0.56759 0.25894 0.0
C705 C 0.82336 0.55377 0.21711 0.0
C706 C 0.80343 0.56863 0.25881 0.0
C707 C 0.78721 0.55563 0.21538 0.0
C708 C 0.78925 0.54179 0.17257 0.0
C709 C 0.80726 0.54093 0.17435 0.0
C710 C 0.80172 0.58346 0.30551 0.0
C711 C 0.77232 0.52771 0.1254 0.0
H712 H 0.72048 0.53125 0.28699 0.0
H713 H 0.74376 0.57786 0.13456 0.0
H714 H 0.7568 0.51756 0.27931 0.0
H715 H 0.7678 0.53759 0.3405 0.0
H716 H 0.74072 0.52014 0.34097 0.0
H717 H 0.77723 0.59272 0.09338 0.0
H718 H 0.7956 0.59336 0.15297 0.0
H719 H 0.78565 0.57435 0.08823 0.0
H720 H 0.83394 0.57761 0.29165 0.0
H721 H 0.80866 0.53 0.1428 0.0
H722 H 0.78881 0.57508 0.34099 0.0
H723 H 0.79848 0.59391 0.27568 0.0
H724 H 0.81581 0.59266 0.33556 0.0
H725 H 0.75863 0.51727 0.15526 0.0
H726 H 0.77667 0.51844 0.09346 0.0
H727 H 0.76801 0.53665 0.09168 0.0
C728 C 0.19299 0.73308 0.23946 0.0
C729 C 0.17701 0.72983 0.19617 0.0
C730 C 0.21125 0.75175 0.24007 0.0
C731 C 0.21355 0.76751 0.19613 0.0
C732 C 0.19741 0.76431 0.15227 0.0
C733 C 0.17929 0.74541 0.15269 0.0
C734 C 0.22816 0.7545 0.28712 0.0
C735 C 0.19933 0.78079 0.10479 0.0
C736 C 0.25554 0.82113 0.2389 0.0
C737 C 0.27104 0.82339 0.19509 0.0
C738 C 0.23655 0.80312 0.23904 0.0
C739 C 0.23316 0.78706 0.19456 0.0
C740 C 0.24881 0.78934 0.15019 0.0
C741 C 0.26758 0.80749 0.15109 0.0
C742 C 0.22019 0.80122 0.28697 0.0
C743 C 0.24586 0.7725 0.10251 0.0
H744 H 0.1913 0.72087 0.27233 0.0
H745 H 0.16683 0.74285 0.11947 0.0
H746 H 0.24178 0.75758 0.25714 0.0
H747 H 0.23265 0.76783 0.32059 0.0
H748 H 0.22371 0.74089 0.31932 0.0
H749 H 0.18519 0.77603 0.07517 0.0
H750 H 0.20296 0.7947 0.13398 0.0
H751 H 0.21207 0.78492 0.06891 0.0
H752 H 0.25822 0.83353 0.27254 0.0
H753 H 0.27972 0.80912 0.11808 0.0
H754 H 0.21602 0.78839 0.3225 0.0
H755 H 0.20627 0.79775 0.25809 0.0
H756 H 0.22508 0.81531 0.31698 0.0
H757 H 0.24282 0.75881 0.13203 0.0
H758 H 0.25936 0.77697 0.0698 0.0
H759 H 0.23244 0.76812 0.06954 0.0
C760 C 0.43319 0.17771 0.16729 0.0
C761 C 0.44669 0.176 0.21153 0.0
C762 C 0.43211 0.19564 0.16478 0.0
C763 C 0.44487 0.21216 0.20759 0.0
C764 C 0.45829 0.21033 0.25314 0.0
C765 C 0.45906 0.19226 0.25442 0.0
C766 C 0.41761 0.19705 0.11562 0.0
C767 C 0.47217 0.22762 0.29944 0.0
C768 C 0.45913 0.26579 0.15567 0.0
C769 C 0.44653 0.26959 0.19759 0.0
C770 C 0.45846 0.247 0.15756 0.0
C771 C 0.44491 0.23171 0.20276 0.0
C772 C 0.43198 0.23543 0.2448 0.0
C773 C 0.43296 0.25439 0.2417 0.0
C774 C 0.47253 0.24365 0.11211 0.0
C775 C 0.41734 0.21949 0.29357 0.0
H776 H 0.42351 0.16503 0.13454 0.0
H777 H 0.4697 0.191 0.288 0.0
H778 H 0.40736 0.20109 0.14302 0.0
H779 H 0.42629 0.20931 0.07822 0.0
H780 H 0.40818 0.18257 0.08775 0.0
H781 H 0.48103 0.22339 0.33401 0.0
H782 H 0.48299 0.24093 0.26875 0.0
H783 H 0.46316 0.23247 0.33047 0.0
H784 H 0.46983 0.27768 0.12227 0.0
H785 H 0.42313 0.25735 0.27377 0.0
H786 H 0.46363 0.22987 0.08051 0.0
H787 H 0.48315 0.24101 0.14341 0.0
H788 H 0.48161 0.25681 0.07809 0.0
H789 H 0.4071 0.20524 0.26584 0.0
H790 H 0.40791 0.22456 0.32122 0.0
H791 H 0.4259 0.2158 0.33116 0.0
C792 C 0.12158 0.45059 0.54503 0.0
C793 C 0.10217 0.43998 0.51567 0.0
C794 C 0.12404 0.45179 0.61562 0.0
C795 C 0.10665 0.44226 0.65784 0.0
C796 C 0.08708 0.43076 0.62858 0.0
C797 C 0.08507 0.4297 0.55772 0.0
C798 C 0.1452 0.46406 0.64493 0.0
C799 C 0.0682 0.4204 0.67203 0.0
C800 C 0.1157 0.43813 0.84535 0.0
C801 C 0.11624 0.45561 0.87083 0.0
C802 C 0.11204 0.43319 0.77617 0.0
C803 C 0.10889 0.4461 0.73204 0.0
C804 C 0.10897 0.46351 0.75817 0.0
C805 C 0.11281 0.46813 0.8272 0.0
C806 C 0.11226 0.41462 0.74993 0.0
C807 C 0.10554 0.47759 0.7129 0.0
H808 H 0.13489 0.45837 0.51285 0.0
H809 H 0.07002 0.42139 0.53539 0.0
H810 H 0.14684 0.4779 0.66997 0.0
H811 H 0.14778 0.4551 0.68413 0.0
H812 H 0.1572 0.46884 0.60554 0.0
H813 H 0.05437 0.41038 0.64187 0.0
H814 H 0.06999 0.41116 0.71215 0.0
H815 H 0.06586 0.43208 0.69775 0.0
H816 H 0.11886 0.42875 0.87899 0.0
H817 H 0.11329 0.48169 0.84714 0.0
H818 H 0.12545 0.41939 0.71556 0.0
H819 H 0.09831 0.40496 0.71992 0.0
H820 H 0.11331 0.40532 0.79154 0.0
H821 H 0.118 0.48476 0.67511 0.0
H822 H 0.10496 0.48984 0.74191 0.0
H823 H 0.09108 0.46885 0.68442 0.0
C824 C 0.67197 0.12051 0.49923 0.0
C825 C 0.65791 0.102 0.46898 0.0
C826 C 0.67305 0.12272 0.56991 0.0
C827 C 0.65978 0.10602 0.61109 0.0
C828 C 0.64633 0.08701 0.58101 0.0
C829 C 0.64554 0.08523 0.51021 0.0
C830 C 0.68763 0.14323 0.60029 0.0
C831 C 0.63205 0.06882 0.62342 0.0
C832 C 0.66968 0.10915 0.80063 0.0
C833 C 0.65617 0.11528 0.82428 0.0
C834 C 0.67091 0.10582 0.73124 0.0
C835 C 0.65852 0.10898 0.68483 0.0
C836 C 0.64493 0.11526 0.70861 0.0
C837 C 0.64399 0.11841 0.7781 0.0
C838 C 0.68563 0.09922 0.70749 0.0
C839 C 0.63149 0.11882 0.66062 0.0
H840 H 0.68168 0.1335 0.46767 0.0
H841 H 0.63477 0.07082 0.48721 0.0
H842 H 0.67891 0.14992 0.62289 0.0
H843 H 0.69662 0.14157 0.6416 0.0
H844 H 0.69829 0.15403 0.56197 0.0
H845 H 0.62404 0.05466 0.59285 0.0
H846 H 0.64051 0.0664 0.66484 0.0
H847 H 0.62049 0.07167 0.6474 0.0
H848 H 0.67961 0.10741 0.83613 0.0
H849 H 0.63364 0.12329 0.79645 0.0
H850 H 0.69716 0.11097 0.67345 0.0
H851 H 0.67745 0.08494 0.67774 0.0
H852 H 0.69362 0.0967 0.75035 0.0
H853 H 0.641 0.13082 0.62343 0.0
H854 H 0.62164 0.12352 0.68751 0.0
H855 H 0.62162 0.10472 0.63158 0.0
C856 C 0.54146 0.65594 0.50266 0.0
C857 C 0.55914 0.66887 0.46609 0.0
C858 C 0.54123 0.65644 0.57366 0.0
C859 C 0.55906 0.67036 0.60912 0.0
C860 C 0.57702 0.68338 0.57266 0.0
C861 C 0.57688 0.68242 0.50147 0.0
C862 C 0.5218 0.64219 0.61071 0.0
C863 C 0.59624 0.69854 0.60878 0.0
C864 C 0.54769 0.68294 0.78348 0.0
C865 C 0.55092 0.66978 0.82471 0.0
C866 C 0.55153 0.68422 0.71365 0.0
C867 C 0.55841 0.67173 0.6842 0.0
C868 C 0.56256 0.65906 0.7261 0.0
C869 C 0.55879 0.65826 0.7961 0.0
C870 C 0.54715 0.69811 0.67094 0.0
C871 C 0.56976 0.64542 0.6965 0.0
H872 H 0.52773 0.64533 0.47578 0.0
H873 H 0.5906 0.69247 0.47354 0.0
H874 H 0.52467 0.633 0.64819 0.0
H875 H 0.5163 0.65111 0.63916 0.0
H876 H 0.50953 0.63167 0.57576 0.0
H877 H 0.60913 0.70706 0.57323 0.0
H878 H 0.59351 0.7096 0.63694 0.0
H879 H 0.60069 0.69063 0.64657 0.0
H880 H 0.54164 0.69188 0.80569 0.0
H881 H 0.5609 0.64777 0.82766 0.0
H882 H 0.53365 0.68885 0.63852 0.0
H883 H 0.56015 0.70747 0.63678 0.0
H884 H 0.54409 0.70844 0.70238 0.0
H885 H 0.55725 0.63311 0.66667 0.0
H886 H 0.57456 0.63834 0.73637 0.0
H887 H 0.58269 0.65409 0.66138 0.0
C888 C 0.87954 0.55034 0.53647 0.0
C889 C 0.89886 0.55776 0.50748 0.0
C890 C 0.87707 0.54958 0.607 0.0
C891 C 0.89432 0.55635 0.64941 0.0
C892 C 0.91395 0.56482 0.6205 0.0
C893 C 0.916 0.56544 0.54975 0.0
C894 C 0.85588 0.54058 0.63603 0.0
C895 C 0.93269 0.57223 0.66424 0.0
C896 C 0.88775 0.56261 0.83717 0.0
C897 C 0.88403 0.54381 0.86244 0.0
C898 C 0.89152 0.56716 0.76784 0.0
C899 C 0.89152 0.5525 0.72341 0.0
C900 C 0.88807 0.53362 0.7492 0.0
C901 C 0.8842 0.52945 0.81841 0.0
C902 C 0.89493 0.58735 0.74189 0.0
C903 C 0.88808 0.51765 0.70349 0.0
H904 H 0.86624 0.54459 0.50412 0.0
H905 H 0.93099 0.57135 0.5277 0.0
H906 H 0.85151 0.52578 0.6605 0.0
H907 H 0.85543 0.55072 0.67563 0.0
H908 H 0.84439 0.53801 0.59655 0.0
H909 H 0.94696 0.58038 0.63429 0.0
H910 H 0.93291 0.58256 0.70444 0.0
H911 H 0.93241 0.55906 0.68981 0.0
H912 H 0.88711 0.57349 0.87125 0.0
H913 H 0.88125 0.51489 0.83824 0.0
H914 H 0.88237 0.5848 0.7071 0.0
H915 H 0.90928 0.59519 0.71238 0.0
H916 H 0.89567 0.59753 0.7836 0.0
H917 H 0.87569 0.5126 0.66553 0.0
H918 H 0.88595 0.50411 0.73213 0.0
H919 H 0.90265 0.52416 0.67523 0.0
C920 C 0.32988 0.89439 0.80862 0.0
C921 C 0.33482 0.8798 0.83068 0.0
C922 C 0.32836 0.8976 0.73918 0.0
C923 C 0.33089 0.88527 0.69082 0.0
C924 C 0.33506 0.86997 0.7128 0.0
C925 C 0.3372 0.8676 0.78223 0.0
C926 C 0.32421 0.91427 0.71756 0.0
C927 C 0.33734 0.85613 0.66294 0.0
C928 C 0.3105 0.87998 0.5114 0.0
C929 C 0.32856 0.89123 0.47482 0.0
C930 C 0.31091 0.87823 0.58225 0.0
C931 C 0.32977 0.88857 0.617 0.0
C932 C 0.34791 0.90084 0.58027 0.0
C933 C 0.34712 0.90171 0.50942 0.0
C934 C 0.29134 0.86449 0.61934 0.0
C935 C 0.36823 0.91259 0.61559 0.0
H936 H 0.32685 0.90314 0.84523 0.0
H937 H 0.34075 0.85609 0.79856 0.0
H938 H 0.33645 0.92501 0.68305 0.0
H939 H 0.3097 0.9077 0.68895 0.0
H940 H 0.32329 0.92297 0.76139 0.0
H941 H 0.3392 0.84412 0.68856 0.0
H942 H 0.32381 0.84869 0.62932 0.0
H943 H 0.3508 0.86517 0.63021 0.0
H944 H 0.29618 0.87175 0.4843 0.0
H945 H 0.36106 0.91055 0.4809 0.0
H946 H 0.28927 0.87268 0.66236 0.0
H947 H 0.29205 0.85134 0.64084 0.0
H948 H 0.27783 0.85862 0.58564 0.0
H949 H 0.36717 0.92155 0.65828 0.0
H950 H 0.38047 0.92313 0.58063 0.0
H951 H 0.37263 0.90185 0.63721 0.0
C952 C 0.42179 0.31741 0.51244 0.0
C953 C 0.43939 0.33079 0.47619 0.0
C954 C 0.42201 0.31654 0.58362 0.0
C955 C 0.4402 0.32949 0.61916 0.0
C956 C 0.4579 0.34324 0.58283 0.0
C957 C 0.4573 0.34364 0.51188 0.0
C958 C 0.40292 0.30156 0.6207 0.0
C959 C 0.47757 0.35741 0.61888 0.0
C960 C 0.44144 0.34199 0.80609 0.0
C961 C 0.44923 0.33036 0.83439 0.0
C962 C 0.4374 0.34112 0.73626 0.0
C963 C 0.44121 0.32826 0.69419 0.0
C964 C 0.44809 0.31572 0.72331 0.0
C965 C 0.45219 0.31707 0.79299 0.0
C966 C 0.43027 0.35486 0.70699 0.0
C967 C 0.45211 0.30163 0.68039 0.0
H968 H 0.4079 0.30742 0.48519 0.0
H969 H 0.47093 0.35412 0.48434 0.0
H970 H 0.40568 0.29048 0.64865 0.0
H971 H 0.39876 0.30961 0.65876 0.0
H972 H 0.38984 0.29305 0.58581 0.0
H973 H 0.4897 0.36779 0.58333 0.0
H974 H 0.47501 0.36675 0.6566 0.0
H975 H 0.48308 0.34843 0.64695 0.0
H976 H 0.43954 0.35259 0.83776 0.0
H977 H 0.4582 0.30805 0.81497 0.0
H978 H 0.4171 0.34619 0.67269 0.0
H979 H 0.44267 0.36699 0.67634 0.0
H980 H 0.42582 0.36218 0.74707 0.0
H981 H 0.43891 0.29226 0.64694 0.0
H982 H 0.45524 0.29131 0.71166 0.0
H983 H 0.46546 0.31074 0.64723 0.0
C984 C 0.56545 0.89526 0.58258 0.0
C985 C 0.54608 0.88033 0.56029 0.0
C986 C 0.57004 0.89858 0.65208 0.0
C987 C 0.55523 0.88605 0.70028 0.0
C988 C 0.53595 0.87043 0.67809 0.0
C989 C 0.53155 0.86792 0.60859 0.0
C990 C 0.59066 0.9156 0.67393 0.0
C991 C 0.51989 0.85637 0.7278 0.0
C992 C 0.57045 0.88131 0.88006 0.0
C993 C 0.56324 0.89226 0.91634 0.0
C994 C 0.56838 0.87949 0.80922 0.0
C995 C 0.55951 0.88944 0.77415 0.0
C996 C 0.55323 0.90142 0.81056 0.0
C997 C 0.55482 0.90237 0.88142 0.0
C998 C 0.57466 0.86606 0.77245 0.0
C999 C 0.54428 0.91277 0.77488 0.0
H1000 H 0.57721 0.90418 0.54611 0.0
H1001 H 0.51661 0.85616 0.59208 0.0
H1002 H 0.58881 0.92616 0.70822 0.0
H1003 H 0.59884 0.90935 0.70285 0.0
H1004 H 0.60025 0.92442 0.63019 0.0
H1005 H 0.50618 0.84415 0.70205 0.0
H1006 H 0.5262 0.8492 0.76168 0.0
H1007 H 0.51515 0.86519 0.76028 0.0
H1008 H 0.5768 0.87336 0.90739 0.0
H1009 H 0.54941 0.91099 0.9097 0.0
H1010 H 0.58493 0.8744 0.72959 0.0
H1011 H 0.56099 0.85273 0.75078 0.0
H1012 H 0.58249 0.86045 0.80643 0.0
H1013 H 0.55425 0.92186 0.73229 0.0
H1014 H 0.54223 0.92312 0.80965 0.0
H1015 H 0.52925 0.90176 0.75307 0.0
C1016 C 0.65913 0.57273 0.87034 0.0
C1017 C 0.66569 0.56173 0.90987 0.0
C1018 C 0.65897 0.57163 0.79932 0.0
C1019 C 0.66584 0.55949 0.76724 0.0
C1020 C 0.67353 0.54926 0.80683 0.0
C1021 C 0.67321 0.55036 0.87776 0.0
C1022 C 0.65044 0.58257 0.75885 0.0
C1023 C 0.68132 0.53644 0.77437 0.0
C1024 C 0.64331 0.53443 0.59876 0.0
C1025 C 0.65875 0.54688 0.55346 0.0
C1026 C 0.64518 0.53882 0.6682 0.0
C1027 C 0.66316 0.55584 0.69299 0.0
C1028 C 0.67872 0.56867 0.6472 0.0
C1029 C 0.67627 0.56406 0.57763 0.0
C1030 C 0.62811 0.52494 0.71521 0.0
C1031 C 0.69821 0.58675 0.67196 0.0
H1032 H 0.65329 0.58155 0.89488 0.0
H1033 H 0.67852 0.54203 0.90811 0.0
H1034 H 0.66108 0.59166 0.71768 0.0
H1035 H 0.63595 0.57123 0.73457 0.0
H1036 H 0.64745 0.59282 0.7909 0.0
H1037 H 0.68875 0.53127 0.8117 0.0
H1038 H 0.66848 0.52282 0.75049 0.0
H1039 H 0.69241 0.54515 0.73374 0.0
H1040 H 0.6298 0.52109 0.57976 0.0
H1041 H 0.68838 0.5734 0.5425 0.0
H1042 H 0.62329 0.53393 0.74651 0.0
H1043 H 0.63349 0.51722 0.7504 0.0
H1044 H 0.61464 0.51312 0.68726 0.0
H1045 H 0.69482 0.59671 0.70394 0.0
H1046 H 0.70823 0.59592 0.62951 0.0
H1047 H 0.70664 0.58143 0.70407 0.0
C1048 C 0.13486 0.68328 0.60125 0.0
C1049 C 0.11854 0.67029 0.55947 0.0
C1050 C 0.13216 0.68438 0.67108 0.0
C1051 C 0.1127 0.6719 0.69997 0.0
C1052 C 0.09595 0.6594 0.65755 0.0
C1053 C 0.09908 0.65876 0.58758 0.0
C1054 C 0.15038 0.69807 0.71438 0.0
C1055 C 0.07501 0.64578 0.68653 0.0
C1056 C 0.11329 0.65568 0.88137 0.0
C1057 C 0.10863 0.66866 0.918 0.0
C1058 C 0.11416 0.65629 0.81038 0.0
C1059 C 0.11048 0.67037 0.775 0.0
C1060 C 0.1056 0.68342 0.81151 0.0
C1061 C 0.10464 0.68235 0.88268 0.0
C1062 C 0.11929 0.64201 0.77327 0.0
C1063 C 0.10176 0.69874 0.77548 0.0
H1064 H 0.14993 0.69224 0.57946 0.0
H1065 H 0.08651 0.64837 0.55566 0.0
H1066 H 0.14675 0.70743 0.74854 0.0
H1067 H 0.15441 0.68865 0.74681 0.0
H1068 H 0.16388 0.70838 0.68338 0.0
H1069 H 0.06322 0.63885 0.64633 0.0
H1070 H 0.07504 0.63336 0.71616 0.0
H1071 H 0.07074 0.65443 0.72171 0.0
H1072 H 0.11626 0.64496 0.90819 0.0
H1073 H 0.10104 0.69244 0.91065 0.0
H1074 H 0.1338 0.65091 0.74522 0.0
H1075 H 0.10729 0.63297 0.73543 0.0
H1076 H 0.12084 0.63136 0.80813 0.0
H1077 H 0.11567 0.70981 0.74783 0.0
H1078 H 0.09736 0.70723 0.81103 0.0
H1079 H 0.0895 0.69098 0.73728 0.0
C1080 C 0.45155 0.13344 0.61139 0.0
C1081 C 0.44913 0.11721 0.57091 0.0
C1082 C 0.44743 0.13086 0.68105 0.0
C1083 C 0.44115 0.11167 0.71111 0.0
C1084 C 0.43786 0.09499 0.66991 0.0
C1085 C 0.44183 0.09796 0.60002 0.0
C1086 C 0.45085 0.14895 0.723 0.0
C1087 C 0.43139 0.07437 0.70021 0.0
C1088 C 0.45768 0.11372 0.89363 0.0
C1089 C 0.43965 0.10815 0.92925 0.0
C1090 C 0.45819 0.11448 0.82265 0.0
C1091 C 0.44028 0.10976 0.78622 0.0
C1092 C 0.42198 0.10404 0.82171 0.0
C1093 C 0.42186 0.1032 0.89292 0.0
C1094 C 0.47799 0.12052 0.78666 0.0
C1095 C 0.40266 0.09911 0.78451 0.0
H1096 H 0.45716 0.14832 0.5887 0.0
H1097 H 0.44032 0.08549 0.56896 0.0
H1098 H 0.43759 0.1448 0.75647 0.0
H1099 H 0.46434 0.15382 0.75609 0.0
H1100 H 0.45343 0.16209 0.69099 0.0
H1101 H 0.42728 0.0625 0.66071 0.0
H1102 H 0.44403 0.07524 0.73112 0.0
H1103 H 0.41818 0.0696 0.73447 0.0
H1104 H 0.47147 0.11743 0.92123 0.0
H1105 H 0.40787 0.0989 0.92012 0.0
H1106 H 0.48301 0.13482 0.7579 0.0
H1107 H 0.47582 0.1086 0.74956 0.0
H1108 H 0.49033 0.12288 0.82234 0.0
H1109 H 0.40494 0.11265 0.75568 0.0
H1110 H 0.38956 0.09432 0.81942 0.0
H1111 H 0.39881 0.08677 0.7472 0.0
C1112 C 0.32674 0.44869 0.87791 0.0
C1113 C 0.33384 0.43648 0.90664 0.0
C1114 C 0.32647 0.45097 0.80737 0.0
C1115 C 0.33352 0.44083 0.76451 0.0
C1116 C 0.33964 0.42761 0.79299 0.0
C1117 C 0.3397 0.42556 0.86374 0.0
C1118 C 0.31968 0.4651 0.77897 0.0
C1119 C 0.34718 0.41648 0.74896 0.0
C1120 C 0.32397 0.44031 0.57469 0.0
C1121 C 0.34232 0.457 0.55277 0.0
C1122 C 0.32092 0.43458 0.64341 0.0
C1123 C 0.33659 0.44585 0.69097 0.0
C1124 C 0.35524 0.46252 0.66873 0.0
C1125 C 0.3578 0.46795 0.60006 0.0
C1126 C 0.30078 0.41683 0.66539 0.0
C1127 C 0.3724 0.47486 0.71767 0.0
H1128 H 0.32197 0.45702 0.91061 0.0
H1129 H 0.34508 0.41598 0.88542 0.0
H1130 H 0.33299 0.47882 0.75746 0.0
H1131 H 0.3086 0.45758 0.73721 0.0
H1132 H 0.31259 0.47007 0.81821 0.0
H1133 H 0.34922 0.40509 0.77807 0.0
H1134 H 0.33642 0.40862 0.70666 0.0
H1135 H 0.36203 0.4276 0.72618 0.0
H1136 H 0.31175 0.43215 0.53875 0.0
H1137 H 0.37203 0.48085 0.58325 0.0
H1138 H 0.29292 0.42228 0.69963 0.0
H1139 H 0.30324 0.40572 0.69439 0.0
H1140 H 0.29064 0.40889 0.62167 0.0
H1141 H 0.36738 0.48215 0.75593 0.0
H1142 H 0.38617 0.48694 0.69178 0.0
H1143 H 0.37661 0.46477 0.74536 0.0
C1144 C 0.88785 0.34598 0.86091 0.0
C1145 C 0.89332 0.33361 0.8976 0.0
C1146 C 0.88659 0.34505 0.78997 0.0
C1147 C 0.89074 0.33128 0.75471 0.0
C1148 C 0.89648 0.31888 0.79127 0.0
C1149 C 0.89777 0.32024 0.86235 0.0
C1150 C 0.88052 0.35862 0.75281 0.0
C1151 C 0.9009 0.30394 0.75537 0.0
C1152 C 0.8657 0.3166 0.58193 0.0
C1153 C 0.88164 0.32975 0.53916 0.0
C1154 C 0.86876 0.31615 0.65185 0.0
C1155 C 0.88818 0.3294 0.6798 0.0
C1156 C 0.90455 0.34214 0.63648 0.0
C1157 C 0.90108 0.34217 0.5665 0.0
C1158 C 0.85094 0.3022 0.69618 0.0
C1159 C 0.92544 0.35658 0.66444 0.0
H1160 H 0.88449 0.35643 0.88766 0.0
H1161 H 0.902 0.31061 0.89033 0.0
H1162 H 0.89217 0.36784 0.71429 0.0
H1163 H 0.86595 0.34916 0.72556 0.0
H1164 H 0.87862 0.36908 0.78753 0.0
H1165 H 0.90594 0.29597 0.79089 0.0
H1166 H 0.88703 0.2924 0.72855 0.0
H1167 H 0.91288 0.31192 0.7165 0.0
H1168 H 0.85065 0.30699 0.56079 0.0
H1169 H 0.91332 0.35272 0.5339 0.0
H1170 H 0.84664 0.3114 0.7286 0.0
H1171 H 0.85516 0.29329 0.73037 0.0
H1172 H 0.83742 0.29146 0.66598 0.0
H1173 H 0.92491 0.36876 0.69389 0.0
H1174 H 0.937 0.36379 0.62369 0.0
H1175 H 0.93041 0.34848 0.69958 0.0
C1176 C 0.04224 0.42055 0.26025 0.0
C1177 C 0.05471 0.418 0.21365 0.0
C1178 C 0.02101 0.4088 0.25598 0.0
C1179 C 0.01205 0.39357 0.20546 0.0
C1180 C 0.02462 0.39029 0.16013 0.0
C1181 C 0.04586 0.4029 0.16378 0.0
C1182 C 0.0082 0.41334 0.30361 0.0
C1183 C 0.01561 0.37369 0.10732 0.0
C1184 C 0.95593 0.35628 0.23571 0.0
C1185 C 0.94685 0.36383 0.19139 0.0
C1186 C 0.9772 0.36505 0.23797 0.0
C1187 C 0.98956 0.38229 0.19722 0.0
C1188 C 0.98037 0.38983 0.15213 0.0
C1189 C 0.95911 0.38024 0.14884 0.0
C1190 C 0.98645 0.35611 0.28472 0.0
C1191 C 0.99295 0.40864 0.10976 0.0
H1192 H 0.04912 0.43237 0.29845 0.0
H1193 H 0.05557 0.40086 0.1281 0.0
H1194 H 0.99875 0.41799 0.27397 0.0
H1195 H 0.99765 0.39951 0.33259 0.0
H1196 H 0.01758 0.42567 0.34015 0.0
H1197 H 0.02743 0.37157 0.08151 0.0
H1198 H 0.00433 0.35906 0.13099 0.0
H1199 H 0.00745 0.37746 0.06847 0.0
H1200 H 0.94639 0.34348 0.26826 0.0
H1201 H 0.95206 0.3862 0.11502 0.0
H1202 H 0.99441 0.36677 0.32715 0.0
H1203 H 0.99795 0.35391 0.25714 0.0
H1204 H 0.9748 0.34128 0.30633 0.0
H1205 H 0.00218 0.42184 0.14343 0.0
H1206 H 0.98341 0.41239 0.07673 0.0
H1207 H 0.00369 0.40656 0.0773 0.0
C1208 C 0.60429 0.95545 0.16903 0.0
C1209 C 0.58816 0.94701 0.21544 0.0
C1210 C 0.617 0.97661 0.16399 0.0
C1211 C 0.61286 0.98956 0.20427 0.0
C1212 C 0.59701 0.98104 0.25297 0.0
C1213 C 0.58507 0.95981 0.25881 0.0
C1214 C 0.63429 0.9851 0.11361 0.0
C1215 C 0.59175 0.99429 0.29564 0.0
C1216 C 0.649 0.04632 0.22459 0.0
C1217 C 0.64142 0.05429 0.17594 0.0
C1218 C 0.64063 0.02521 0.23183 0.0
C1219 C 0.62376 0.01185 0.1914 0.0
C1220 C 0.61639 0.01988 0.14106 0.0
C1221 C 0.62558 0.04103 0.13311 0.0
C1222 C 0.64946 0.01723 0.28402 0.0
C1223 C 0.59808 0.00618 0.09809 0.0
H1224 H 0.60671 0.94548 0.13574 0.0
H1225 H 0.57245 0.95324 0.29421 0.0
H1226 H 0.63047 0.9918 0.06995 0.0
H1227 H 0.64837 0.99744 0.13711 0.0
H1228 H 0.63741 0.9732 0.09414 0.0
H1229 H 0.57956 0.98532 0.33306 0.0
H1230 H 0.60537 0.00586 0.32332 0.0
H1231 H 0.58656 0.00258 0.26225 0.0
H1232 H 0.66134 0.05661 0.25751 0.0
H1233 H 0.61957 0.04721 0.09598 0.0
H1234 H 0.65184 0.00516 0.26165 0.0
H1235 H 0.63865 0.01029 0.32678 0.0
H1236 H 0.66418 0.02945 0.30452 0.0
H1237 H 0.60076 0.99505 0.0702 0.0
H1238 H 0.59441 0.01485 0.06078 0.0
H1239 H 0.58463 0.99738 0.1312 0.0
C1240 C 0.61942 0.57768 0.15246 0.0
C1241 C 0.63689 0.58381 0.1918 0.0
C1242 C 0.61008 0.58957 0.149 0.0
C1243 C 0.61897 0.60847 0.18346 0.0
C1244 C 0.63722 0.61518 0.22072 0.0
C1245 C 0.64573 0.60249 0.22583 0.0
C1246 C 0.59021 0.58145 0.11102 0.0
C1247 C 0.64754 0.63558 0.25588 0.0
C1248 C 0.59746 0.64201 0.12908 0.0
C1249 C 0.58339 0.6382 0.18099 0.0
C1250 C 0.61012 0.6334 0.13114 0.0
C1251 C 0.60807 0.62016 0.18509 0.0
C1252 C 0.59414 0.6166 0.23814 0.0
C1253 C 0.58221 0.6259 0.23592 0.0
C1254 C 0.6253 0.63806 0.07487 0.0
C1255 C 0.59101 0.60211 0.29554 0.0
H1256 H 0.61257 0.56312 0.12658 0.0
H1257 H 0.65938 0.60724 0.25571 0.0
H1258 H 0.57804 0.57959 0.14646 0.0
H1259 H 0.59153 0.59238 0.07131 0.0
H1260 H 0.58544 0.56653 0.08661 0.0
H1261 H 0.66284 0.63961 0.27542 0.0
H1262 H 0.64915 0.64768 0.22049 0.0
H1263 H 0.6381 0.63538 0.29909 0.0
H1264 H 0.59853 0.65165 0.08685 0.0
H1265 H 0.57126 0.62279 0.27601 0.0
H1266 H 0.62038 0.62433 0.04306 0.0
H1267 H 0.64043 0.64226 0.09628 0.0
H1268 H 0.6269 0.65064 0.0418 0.0
H1269 H 0.58534 0.58657 0.27501 0.0
H1270 H 0.57995 0.60146 0.33376 0.0
H1271 H 0.60565 0.60671 0.32147 0.0
C1272 C 0.04223 0.62159 0.15934 0.0
C1273 C 0.05393 0.63693 0.2062 0.0
C1274 C 0.02097 0.61209 0.15933 0.0
C1275 C 0.0112 0.61865 0.20568 0.0
C1276 C 0.02301 0.63485 0.251 0.0
C1277 C 0.04429 0.64352 0.25176 0.0
C1278 C 0.00895 0.59438 0.11198 0.0
C1279 C 0.01315 0.64273 0.2994 0.0
C1280 C 0.9554 0.59898 0.16543 0.0
C1281 C 0.9459 0.58279 0.21128 0.0
C1282 C 0.97668 0.61161 0.16554 0.0
C1283 C 0.98862 0.60726 0.21039 0.0
C1284 C 0.97899 0.59089 0.25673 0.0
C1285 C 0.95773 0.57913 0.25748 0.0
C1286 C 0.98639 0.6294 0.11725 0.0
C1287 C 0.99114 0.58521 0.3035 0.0
H1288 H 0.04969 0.61636 0.12448 0.0
H1289 H 0.05339 0.65551 0.28762 0.0
H1290 H 0.99925 0.58043 0.14195 0.0
H1291 H 0.99868 0.59728 0.07983 0.0
H1292 H 0.01892 0.59139 0.07839 0.0
H1293 H 0.02452 0.65699 0.32496 0.0
H1294 H 0.00208 0.64564 0.272 0.0
H1295 H 0.0046 0.63112 0.33882 0.0
H1296 H 0.94618 0.60186 0.13007 0.0
H1297 H 0.95035 0.56646 0.29252 0.0
H1298 H 0.99508 0.62655 0.07787 0.0
H1299 H 0.99733 0.64342 0.1448 0.0
H1300 H 0.97493 0.63214 0.09165 0.0
H1301 H 0.001 0.58127 0.27313 0.0
H1302 H 0.98127 0.57205 0.33655 0.0
H1303 H 0.00126 0.5983 0.33619 0.0
C1304 C 0.35189 0.95505 0.22135 0.0
C1305 C 0.35977 0.94651 0.17614 0.0
C1306 C 0.36061 0.97625 0.22667 0.0
C1307 C 0.37814 0.98909 0.18805 0.0
C1308 C 0.38573 0.98048 0.14067 0.0
C1309 C 0.37618 0.95924 0.13438 0.0
C1310 C 0.35154 0.98485 0.27552 0.0
C1311 C 0.40473 0.99361 0.09989 0.0
C1312 C 0.39953 0.04592 0.16681 0.0
C1313 C 0.41459 0.05375 0.21712 0.0
C1314 C 0.38668 0.02485 0.15924 0.0
C1315 C 0.38963 0.01137 0.20107 0.0
C1316 C 0.40456 0.01927 0.25296 0.0
C1317 C 0.41661 0.04041 0.26119 0.0
C1318 C 0.37035 0.01702 0.10536 0.0
C1319 C 0.40858 0.00544 0.29741 0.0
H1320 H 0.33912 0.94514 0.25343 0.0
H1321 H 0.38239 0.95259 0.09999 0.0
H1322 H 0.36168 0.9914 0.32014 0.0
H1323 H 0.35019 0.99732 0.2512 0.0
H1324 H 0.33628 0.97305 0.29368 0.0
H1325 H 0.40821 0.98457 0.06361 0.0
H1326 H 0.40311 0.00527 0.07112 0.0
H1327 H 0.41788 0.00179 0.13469 0.0
H1328 H 0.39794 0.05631 0.13297 0.0
H1329 H 0.42842 0.04651 0.29962 0.0
H1330 H 0.35562 0.00513 0.12671 0.0
H1331 H 0.37444 0.00988 0.06379 0.0
H1332 H 0.36829 0.02936 0.08346 0.0
H1333 H 0.39447 0.99441 0.32417 0.0
H1334 H 0.42061 0.01401 0.33577 0.0
H1335 H 0.41338 0.99653 0.26552 0.0
C1336 C 0.35355 0.39781 0.16899 0.0
C1337 C 0.36204 0.41533 0.20955 0.0
C1338 C 0.36225 0.38528 0.16661 0.0
C1339 C 0.38029 0.3909 0.20358 0.0
C1340 C 0.38861 0.40831 0.24598 0.0
C1341 C 0.37914 0.42013 0.24936 0.0
C1342 C 0.35249 0.36641 0.12295 0.0
C1343 C 0.40813 0.41513 0.28481 0.0
C1344 C 0.40105 0.35536 0.23605 0.0
C1345 C 0.41547 0.361 0.18408 0.0
C1346 C 0.38864 0.36416 0.24091 0.0
C1347 C 0.39136 0.37953 0.19433 0.0
C1348 C 0.40563 0.38494 0.14088 0.0
C1349 C 0.41726 0.37532 0.13571 0.0
C1350 C 0.37302 0.35741 0.29688 0.0
C1351 C 0.40938 0.40162 0.09123 0.0
H1352 H 0.34022 0.39405 0.1385 0.0
H1353 H 0.38581 0.43379 0.2802 0.0
H1354 H 0.36222 0.36862 0.07819 0.0
H1355 H 0.35105 0.35317 0.15162 0.0
H1356 H 0.33717 0.36276 0.10474 0.0
H1357 H 0.4123 0.42871 0.3168 0.0
H1358 H 0.40675 0.40267 0.31785 0.0
H1359 H 0.42075 0.41887 0.24872 0.0
H1360 H 0.39959 0.34418 0.27323 0.0
H1361 H 0.42857 0.37981 0.09591 0.0
H1362 H 0.35807 0.35409 0.27607 0.0
H1363 H 0.37772 0.36982 0.33454 0.0
H1364 H 0.3711 0.34366 0.32353 0.0
H1365 H 0.39501 0.39813 0.06542 0.0
H1366 H 0.42081 0.40379 0.05207 0.0
H1367 H 0.41487 0.41619 0.11887 0.0
loop_
_geom_bond_atom_site_label_1
_geom_bond_atom_site_label_2
_geom_bond_distance
_geom_bond_site_symmetry_2
_ccdc_geom_bond_type
Co0 O3 1.970 . S
Co0 N17 1.989 . S
Co0 O25 1.967 . S
Co0 O32 1.920 . S
Co1 O4 1.966 . S
Co1 N10 2.034 . S
Co1 N18 1.993 . S
Co1 O26 1.941 . S
C2 O3 1.258 . S
C2 O4 1.263 . S
O3 Co0 1.970 . S
O3 C2 1.258 . S
O4 Co1 1.966 . S
O4 C2 1.263 . S
C5 O6 1.235 . S
C5 O32 1.289 . S
O6 C5 1.235 . S
C7 C9 1.400 . S
C7 N10 1.344 1_556 S
C7 C12 1.501 . S
C8 C9 1.387 . S
C8 N11 1.341 . S
C9 C7 1.400 . S
C9 C8 1.387 . S
N10 Co1 2.034 . S
N10 C7 1.344 1_554 S
N10 N11 1.359 1_554 S
N11 C8 1.341 . S
N11 N10 1.359 1_556 S
N11 H31 0.862 . S
C12 C7 1.501 . S
C12 H13 0.961 1_556 S
C12 H14 0.961 . S
C12 H15 0.960 . S
H13 C12 0.961 1_554 S
H14 C12 0.961 . S
H15 C12 0.960 . S
C16 N17 1.342 . S
C16 C20 1.401 . S
C16 C21 1.499 . S
N17 Co0 1.989 . S
N17 C16 1.342 . S
N17 N18 1.388 . S
N18 Co1 1.993 . S
N18 N17 1.388 . S
N18 C19 1.346 . S
C19 N18 1.346 . S
C19 C20 1.396 . S
C19 C29 1.510 . S
C20 C16 1.401 . S
C20 C19 1.396 . S
C21 C16 1.499 . S
C21 H22 0.959 . S
C21 H23 0.960 . S
C21 H24 0.961 . S
H22 C21 0.959 . S
H23 C21 0.960 . S
H24 C21 0.961 . S
O25 Co0 1.967 . S
O25 C33 1.258 . S
O26 Co1 1.941 . S
O26 C33 1.266 . S
H27 C29 0.959 . S
H28 C29 0.961 . S
C29 C19 1.510 . S
C29 H27 0.959 . S
C29 H28 0.961 . S
C29 H30 0.960 . S
H30 C29 0.960 . S
H31 N11 0.862 . S
O32 Co0 1.920 . S
O32 C5 1.289 . S
C33 O25 1.258 . S
C33 O26 1.266 . S
Co34 O37 1.970 . S
Co34 N51 1.989 . S
Co34 O59 1.967 . S
Co34 O66 1.920 . S
Co35 O38 1.966 . S
Co35 N44 2.034 . S
Co35 N52 1.993 . S
Co35 O60 1.941 . S
C36 O37 1.258 . S
C36 O38 1.263 . S
O37 Co34 1.970 . S
O37 C36 1.258 . S
O38 Co35 1.966 . S
O38 C36 1.263 . S
C39 O40 1.235 . S
C39 O66 1.289 . S
O40 C39 1.235 . S
C41 C43 1.400 . S
C41 N44 1.344 1_556 S
C41 C46 1.501 . S
C42 C43 1.387 . S
C42 N45 1.341 . S
C43 C41 1.400 . S
C43 C42 1.387 . S
N44 Co35 2.034 . S
N44 C41 1.344 1_554 S
N44 N45 1.359 1_554 S
N45 C42 1.341 . S
N45 N44 1.359 1_556 S
N45 H65 0.862 . S
C46 C41 1.501 . S
C46 H47 0.961 1_556 S
C46 H48 0.961 . S
C46 H49 0.960 . S
H47 C46 0.961 1_554 S
H48 C46 0.961 . S
H49 C46 0.960 . S
C50 N51 1.342 . S
C50 C54 1.401 . S
C50 C55 1.499 . S
N51 Co34 1.989 . S
N51 C50 1.342 . S
N51 N52 1.388 . S
N52 Co35 1.993 . S
N52 N51 1.388 . S
N52 C53 1.346 . S
C53 N52 1.346 . S
C53 C54 1.396 . S
C53 C63 1.510 . S
C54 C50 1.401 . S
C54 C53 1.396 . S
C55 C50 1.499 . S
C55 H56 0.959 . S
C55 H57 0.960 . S
C55 H58 0.961 . S
H56 C55 0.959 . S
H57 C55 0.960 . S
H58 C55 0.961 . S
O59 Co34 1.967 . S
O59 C67 1.258 . S
O60 Co35 1.941 . S
O60 C67 1.266 . S
H61 C63 0.959 . S
H62 C63 0.961 . S
C63 C53 1.510 . S
C63 H61 0.959 . S
C63 H62 0.961 . S
C63 H64 0.960 . S
H64 C63 0.960 . S
H65 N45 0.862 . S
O66 Co34 1.920 . S
O66 C39 1.289 . S
C67 O59 1.258 . S
C67 O60 1.266 . S
Co68 O71 1.970 . S
Co68 N85 1.989 . S
Co68 O93 1.967 . S
Co68 O100 1.920 . S
Co69 O72 1.966 . S
Co69 N78 2.035 . S
Co69 N86 1.993 . S
Co69 O94 1.941 . S
C70 O71 1.258 . S
C70 O72 1.263 . S
O71 Co68 1.970 . S
O71 C70 1.258 . S
O72 Co69 1.966 . S
O72 C70 1.263 . S
C73 O74 1.235 . S
C73 O100 1.289 . S
O74 C73 1.235 . S
C75 C77 1.400 . S
C75 N78 1.343 1_556 S
C75 C80 1.501 . S
C76 C77 1.387 . S
C76 N79 1.341 . S
C77 C75 1.400 . S
C77 C76 1.387 . S
N78 Co69 2.035 . S
N78 C75 1.343 1_554 S
N78 N79 1.359 1_554 S
N79 C76 1.341 . S
N79 N78 1.359 1_556 S
N79 H99 0.862 . S
C80 C75 1.501 . S
C80 H81 0.961 1_556 S
C80 H82 0.961 . S
C80 H83 0.960 . S
H81 C80 0.961 1_554 S
H82 C80 0.961 . S
H83 C80 0.960 . S
C84 N85 1.342 . S
C84 C88 1.401 . S
C84 C89 1.499 . S
N85 Co68 1.989 . S
N85 C84 1.342 . S
N85 N86 1.388 . S
N86 Co69 1.993 . S
N86 N85 1.388 . S
N86 C87 1.346 . S
C87 N86 1.346 . S
C87 C88 1.396 . S
C87 C97 1.510 . S
C88 C84 1.401 . S
C88 C87 1.396 . S
C89 C84 1.499 . S
C89 H90 0.959 . S
C89 H91 0.960 . S
C89 H92 0.961 . S
H90 C89 0.959 . S
H91 C89 0.960 . S
H92 C89 0.961 . S
O93 Co68 1.967 . S
O93 C101 1.258 . S
O94 Co69 1.941 . S
O94 C101 1.266 . S
H95 C97 0.959 . S
H96 C97 0.961 . S
C97 C87 1.510 . S
C97 H95 0.959 . S
C97 H96 0.961 . S
C97 H98 0.960 . S
H98 C97 0.960 . S
H99 N79 0.862 . S
O100 Co68 1.920 . S
O100 C73 1.289 . S
C101 O93 1.258 . S
C101 O94 1.266 . S
Co102 O105 1.970 . S
Co102 N119 1.989 . S
Co102 O127 1.967 . S
Co102 O134 1.920 . S
Co103 O106 1.966 . S
Co103 N112 2.034 . S
Co103 N120 1.993 . S
Co103 O128 1.941 . S
C104 O105 1.258 . S
C104 O106 1.263 . S
O105 Co102 1.970 . S
O105 C104 1.258 . S
O106 Co103 1.966 . S
O106 C104 1.263 . S
C107 O108 1.235 . S
C107 O134 1.289 . S
O108 C107 1.235 . S
C109 C111 1.400 . S
C109 N112 1.344 1_556 S
C109 C114 1.501 . S
C110 C111 1.387 . S
C110 N113 1.341 . S
C111 C109 1.400 . S
C111 C110 1.387 . S
N112 Co103 2.034 . S
N112 C109 1.344 1_554 S
N112 N113 1.359 1_554 S
N113 C110 1.341 . S
N113 N112 1.359 1_556 S
N113 H133 0.862 . S
C114 C109 1.501 . S
C114 H115 0.961 1_556 S
C114 H116 0.961 . S
C114 H117 0.960 . S
H115 C114 0.961 1_554 S
H116 C114 0.961 . S
H117 C114 0.960 . S
C118 N119 1.342 . S
C118 C122 1.401 . S
C118 C123 1.499 . S
N119 Co102 1.989 . S
N119 C118 1.342 . S
N119 N120 1.388 . S
N120 Co103 1.993 . S
N120 N119 1.388 . S
N120 C121 1.346 . S
C121 N120 1.346 . S
C121 C122 1.396 . S
C121 C131 1.510 . S
C122 C118 1.401 . S
C122 C121 1.396 . S
C123 C118 1.499 . S
C123 H124 0.959 . S
C123 H125 0.960 . S
C123 H126 0.961 . S
H124 C123 0.959 . S
H125 C123 0.960 . S
H126 C123 0.961 . S
O127 Co102 1.967 . S
O127 C135 1.258 . S
O128 Co103 1.941 . S
O128 C135 1.266 . S
H129 C131 0.959 . S
H130 C131 0.961 . S
C131 C121 1.510 . S
C131 H129 0.959 . S
C131 H130 0.961 . S
C131 H132 0.960 . S
H132 C131 0.960 . S
H133 N113 0.862 . S
O134 Co102 1.920 . S
O134 C107 1.289 . S
C135 O127 1.258 . S
C135 O128 1.266 . S
Co136 O139 1.970 . S
Co136 N153 1.989 . S
Co136 O161 1.967 . S
Co136 O168 1.920 . S
Co137 O140 1.966 . S
Co137 N146 2.034 . S
Co137 N154 1.993 . S
Co137 O162 1.941 . S
C138 O139 1.258 . S
C138 O140 1.263 . S
O139 Co136 1.970 . S
O139 C138 1.258 . S
O140 Co137 1.966 . S
O140 C138 1.263 . S
C141 O142 1.235 . S
C141 O168 1.289 . S
O142 C141 1.235 . S
C143 C145 1.400 . S
C143 N146 1.344 1_556 S
C143 C148 1.501 . S
C144 C145 1.387 . S
C144 N147 1.341 . S
C145 C143 1.400 . S
C145 C144 1.387 . S
N146 Co137 2.034 . S
N146 C143 1.344 1_554 S
N146 N147 1.359 1_554 S
N147 C144 1.341 . S
N147 N146 1.359 1_556 S
N147 H167 0.862 . S
C148 C143 1.501 . S
C148 H149 0.961 1_556 S
C148 H150 0.961 . S
C148 H151 0.960 . S
H149 C148 0.961 1_554 S
H150 C148 0.961 . S
H151 C148 0.960 . S
C152 N153 1.342 . S
C152 C156 1.401 . S
C152 C157 1.499 . S
N153 Co136 1.989 . S
N153 C152 1.342 . S
N153 N154 1.388 . S
N154 Co137 1.993 . S
N154 N153 1.388 . S
N154 C155 1.346 . S
C155 N154 1.346 . S
C155 C156 1.396 . S
C155 C165 1.510 . S
C156 C152 1.401 . S
C156 C155 1.396 . S
C157 C152 1.499 . S
C157 H158 0.959 . S
C157 H159 0.960 . S
C157 H160 0.961 . S
H158 C157 0.959 . S
H159 C157 0.960 . S
H160 C157 0.961 . S
O161 Co136 1.967 . S
O161 C169 1.258 . S
O162 Co137 1.941 . S
O162 C169 1.266 . S
H163 C165 0.959 . S
H164 C165 0.961 . S
C165 C155 1.510 . S
C165 H163 0.959 . S
C165 H164 0.961 . S
C165 H166 0.960 . S
H166 C165 0.960 . S
H167 N147 0.862 . S
O168 Co136 1.920 . S
O168 C141 1.289 . S
C169 O161 1.258 . S
C169 O162 1.266 . S
Co170 O173 1.970 . S
Co170 N187 1.989 . S
Co170 O195 1.967 . S
Co170 O202 1.920 . S
Co171 O174 1.966 . S
Co171 N180 2.035 . S
Co171 N188 1.993 . S
Co171 O196 1.941 . S
C172 O173 1.258 . S
C172 O174 1.263 . S
O173 Co170 1.970 . S
O173 C172 1.258 . S
O174 Co171 1.966 . S
O174 C172 1.263 . S
C175 O176 1.235 . S
C175 O202 1.289 . S
O176 C175 1.235 . S
C177 C179 1.400 . S
C177 N180 1.343 1_556 S
C177 C182 1.501 . S
C178 C179 1.387 . S
C178 N181 1.341 . S
C179 C177 1.400 . S
C179 C178 1.387 . S
N180 Co171 2.035 . S
N180 C177 1.343 1_554 S
N180 N181 1.359 1_554 S
N181 C178 1.341 . S
N181 N180 1.359 1_556 S
N181 H201 0.862 . S
C182 C177 1.501 . S
C182 H183 0.961 1_556 S
C182 H184 0.961 . S
C182 H185 0.960 . S
H183 C182 0.961 1_554 S
H184 C182 0.961 . S
H185 C182 0.960 . S
C186 N187 1.342 . S
C186 C190 1.401 . S
C186 C191 1.499 . S
N187 Co170 1.989 . S
N187 C186 1.342 . S
N187 N188 1.388 . S
N188 Co171 1.993 . S
N188 N187 1.388 . S
N188 C189 1.346 . S
C189 N188 1.346 . S
C189 C190 1.396 . S
C189 C199 1.510 . S
C190 C186 1.401 . S
C190 C189 1.396 . S
C191 C186 1.499 . S
C191 H192 0.959 . S
C191 H193 0.960 . S
C191 H194 0.961 . S
H192 C191 0.959 . S
H193 C191 0.960 . S
H194 C191 0.961 . S
O195 Co170 1.967 . S
O195 C203 1.258 . S
O196 Co171 1.941 . S
O196 C203 1.266 . S
H197 C199 0.959 . S
H198 C199 0.961 . S
C199 C189 1.510 . S
C199 H197 0.959 . S
C199 H198 0.961 . S
C199 H200 0.960 . S
H200 C199 0.960 . S
H201 N181 0.862 . S
O202 Co170 1.920 . S
O202 C175 1.289 . S
C203 O195 1.258 . S
C203 O196 1.266 . S
Co204 O207 1.970 . S
Co204 N221 1.989 . S
Co204 O229 1.967 . S
Co204 O236 1.920 . S
Co205 O208 1.966 . S
Co205 N214 2.022 . S
Co205 N222 1.993 . S
Co205 O230 1.941 . S
C206 O207 1.258 . S
C206 O208 1.263 . S
O207 Co204 1.970 . S
O207 C206 1.258 . S
O208 Co205 1.966 . S
O208 C206 1.263 . S
C209 O210 1.235 1_556 S
C209 O236 1.289 1_556 S
O210 C209 1.235 1_554 S
C211 C213 1.400 . S
C211 N214 1.351 . S
C211 C216 1.501 . S
C212 C213 1.387 . S
C212 N215 1.341 . S
C213 C211 1.400 . S
C213 C212 1.387 . S
N214 Co205 2.022 . S
N214 C211 1.351 . S
N214 N215 1.365 . S
N215 C212 1.341 . S
N215 N214 1.365 . S
N215 H235 0.862 . S
C216 C211 1.501 . S
C216 H217 0.961 . S
C216 H218 0.961 . S
C216 H219 0.960 . S
H217 C216 0.961 . S
H218 C216 0.961 . S
H219 C216 0.960 . S
C220 N221 1.342 . S
C220 C224 1.401 . S
C220 C225 1.499 . S
N221 Co204 1.989 . S
N221 C220 1.342 . S
N221 N222 1.388 . S
N222 Co205 1.993 . S
N222 N221 1.388 . S
N222 C223 1.346 . S
C223 N222 1.346 . S
C223 C224 1.396 . S
C223 C233 1.510 . S
C224 C220 1.401 . S
C224 C223 1.396 . S
C225 C220 1.499 . S
C225 H226 0.959 . S
C225 H227 0.960 . S
C225 H228 0.961 . S
H226 C225 0.959 . S
H227 C225 0.960 . S
H228 C225 0.961 . S
O229 Co204 1.967 . S
O229 C237 1.258 . S
O230 Co205 1.941 . S
O230 C237 1.266 . S
H231 C233 0.959 . S
H232 C233 0.961 . S
C233 C223 1.510 . S
C233 H231 0.959 . S
C233 H232 0.961 . S
C233 H234 0.960 . S
H234 C233 0.960 . S
H235 N215 0.862 . S
O236 Co204 1.920 . S
O236 C209 1.289 1_554 S
C237 O229 1.258 . S
C237 O230 1.266 . S
Co238 O241 1.970 . S
Co238 N255 1.989 . S
Co238 O263 1.967 . S
Co238 O270 1.920 . S
Co239 O242 1.966 . S
Co239 N248 2.022 . S
Co239 N256 1.993 . S
Co239 O264 1.941 . S
C240 O241 1.258 . S
C240 O242 1.263 . S
O241 Co238 1.970 . S
O241 C240 1.258 . S
O242 Co239 1.966 . S
O242 C240 1.263 . S
C243 O244 1.235 1_556 S
C243 O270 1.289 1_556 S
O244 C243 1.235 1_554 S
C245 C247 1.400 . S
C245 N248 1.351 . S
C245 C250 1.501 . S
C246 C247 1.387 . S
C246 N249 1.341 . S
C247 C245 1.400 . S
C247 C246 1.387 . S
N248 Co239 2.022 . S
N248 C245 1.351 . S
N248 N249 1.365 . S
N249 C246 1.341 . S
N249 N248 1.365 . S
N249 H269 0.862 . S
C250 C245 1.501 . S
C250 H251 0.961 . S
C250 H252 0.961 . S
C250 H253 0.960 . S
H251 C250 0.961 . S
H252 C250 0.961 . S
H253 C250 0.960 . S
C254 N255 1.342 . S
C254 C258 1.401 . S
C254 C259 1.499 . S
N255 Co238 1.989 . S
N255 C254 1.342 . S
N255 N256 1.388 . S
N256 Co239 1.993 . S
N256 N255 1.388 . S
N256 C257 1.346 . S
C257 N256 1.346 . S
C257 C258 1.396 . S
C257 C267 1.510 . S
C258 C254 1.401 . S
C258 C257 1.396 . S
C259 C254 1.499 . S
C259 H260 0.959 . S
C259 H261 0.960 . S
C259 H262 0.961 . S
H260 C259 0.959 . S
H261 C259 0.960 . S
H262 C259 0.961 . S
O263 Co238 1.967 . S
O263 C271 1.258 . S
O264 Co239 1.941 . S
O264 C271 1.266 . S
H265 C267 0.959 . S
H266 C267 0.961 . S
C267 C257 1.510 . S
C267 H265 0.959 . S
C267 H266 0.961 . S
C267 H268 0.960 . S
H268 C267 0.960 . S
H269 N249 0.862 . S
O270 Co238 1.920 . S
O270 C243 1.289 1_554 S
C271 O263 1.258 . S
C271 O264 1.266 . S
Co272 O275 1.970 . S
Co272 N289 1.989 . S
Co272 O297 1.967 . S
Co272 O304 1.920 . S
Co273 O276 1.966 . S
Co273 N282 2.022 . S
Co273 N290 1.993 . S
Co273 O298 1.941 . S
C274 O275 1.258 . S
C274 O276 1.263 . S
O275 Co272 1.970 . S
O275 C274 1.258 . S
O276 Co273 1.966 . S
O276 C274 1.263 . S
C277 O278 1.235 1_556 S
C277 O304 1.289 1_556 S
O278 C277 1.235 1_554 S
C279 C281 1.400 . S
C279 N282 1.351 . S
C279 C284 1.501 . S
C280 C281 1.387 . S
C280 N283 1.341 . S
C281 C279 1.400 . S
C281 C280 1.387 . S
N282 Co273 2.022 . S
N282 C279 1.351 . S
N282 N283 1.365 . S
N283 C280 1.341 . S
N283 N282 1.365 . S
N283 H303 0.862 . S
C284 C279 1.501 . S
C284 H285 0.961 . S
C284 H286 0.961 . S
C284 H287 0.960 . S
H285 C284 0.961 . S
H286 C284 0.961 . S
H287 C284 0.960 . S
C288 N289 1.342 . S
C288 C292 1.401 . S
C288 C293 1.499 . S
N289 Co272 1.989 . S
N289 C288 1.342 . S
N289 N290 1.388 . S
N290 Co273 1.993 . S
N290 N289 1.388 . S
N290 C291 1.346 . S
C291 N290 1.346 . S
C291 C292 1.396 . S
C291 C301 1.510 . S
C292 C288 1.401 . S
C292 C291 1.396 . S
C293 C288 1.499 . S
C293 H294 0.959 . S
C293 H295 0.960 . S
C293 H296 0.961 . S
H294 C293 0.959 . S
H295 C293 0.960 . S
H296 C293 0.961 . S
O297 Co272 1.967 . S
O297 C305 1.258 . S
O298 Co273 1.941 . S
O298 C305 1.266 . S
H299 C301 0.959 . S
H300 C301 0.961 . S
C301 C291 1.510 . S
C301 H299 0.959 . S
C301 H300 0.961 . S
C301 H302 0.960 . S
H302 C301 0.960 . S
H303 N283 0.862 . S
O304 Co272 1.920 . S
O304 C277 1.289 1_554 S
C305 O297 1.258 . S
C305 O298 1.266 . S
Co306 O309 1.970 . S
Co306 N323 1.989 . S
Co306 O331 1.967 . S
Co306 O338 1.920 . S
Co307 O310 1.966 . S
Co307 N316 2.022 . S
Co307 N324 1.993 . S
Co307 O332 1.941 . S
C308 O309 1.258 . S
C308 O310 1.263 . S
O309 Co306 1.970 . S
O309 C308 1.258 . S
O310 Co307 1.966 . S
O310 C308 1.263 . S
C311 O312 1.235 1_556 S
C311 O338 1.289 1_556 S
O312 C311 1.235 1_554 S
C313 C315 1.400 . S
C313 N316 1.351 . S
C313 C318 1.501 . S
C314 C315 1.387 . S
C314 N317 1.341 . S
C315 C313 1.400 . S
C315 C314 1.387 . S
N316 Co307 2.022 . S
N316 C313 1.351 . S
N316 N317 1.365 . S
N317 C314 1.341 . S
N317 N316 1.365 . S
N317 H337 0.862 . S
C318 C313 1.501 . S
C318 H319 0.961 . S
C318 H320 0.961 . S
C318 H321 0.960 . S
H319 C318 0.961 . S
H320 C318 0.961 . S
H321 C318 0.960 . S
C322 N323 1.342 . S
C322 C326 1.401 . S
C322 C327 1.499 . S
N323 Co306 1.989 . S
N323 C322 1.342 . S
N323 N324 1.388 . S
N324 Co307 1.993 . S
N324 N323 1.388 . S
N324 C325 1.346 . S
C325 N324 1.346 . S
C325 C326 1.396 . S
C325 C335 1.510 . S
C326 C322 1.401 . S
C326 C325 1.396 . S
C327 C322 1.499 . S
C327 H328 0.959 . S
C327 H329 0.960 . S
C327 H330 0.961 . S
H328 C327 0.959 . S
H329 C327 0.960 . S
H330 C327 0.961 . S
O331 Co306 1.967 . S
O331 C339 1.258 . S
O332 Co307 1.941 . S
O332 C339 1.266 . S
H333 C335 0.959 . S
H334 C335 0.961 . S
C335 C325 1.510 . S
C335 H333 0.959 . S
C335 H334 0.961 . S
C335 H336 0.960 . S
H336 C335 0.960 . S
H337 N317 0.862 . S
O338 Co306 1.920 . S
O338 C311 1.289 1_554 S
C339 O331 1.258 . S
C339 O332 1.266 . S
Co340 O343 1.970 . S
Co340 N357 1.989 . S
Co340 O365 1.967 . S
Co340 O372 1.920 . S
Co341 O344 1.966 . S
Co341 N350 2.022 . S
Co341 N358 1.993 . S
Co341 O366 1.941 . S
C342 O343 1.258 . S
C342 O344 1.263 . S
O343 Co340 1.970 . S
O343 C342 1.258 . S
O344 Co341 1.966 . S
O344 C342 1.263 . S
C345 O346 1.235 1_556 S
C345 O372 1.289 1_556 S
O346 C345 1.235 1_554 S
C347 C349 1.400 . S
C347 N350 1.351 . S
C347 C352 1.501 . S
C348 C349 1.387 . S
C348 N351 1.341 . S
C349 C347 1.400 . S
C349 C348 1.387 . S
N350 Co341 2.022 . S
N350 C347 1.351 . S
N350 N351 1.365 . S
N351 C348 1.341 . S
N351 N350 1.365 . S
N351 H371 0.862 . S
C352 C347 1.501 . S
C352 H353 0.961 . S
C352 H354 0.961 . S
C352 H355 0.960 . S
H353 C352 0.961 . S
H354 C352 0.961 . S
H355 C352 0.960 . S
C356 N357 1.342 . S
C356 C360 1.401 . S
C356 C361 1.499 . S
N357 Co340 1.989 . S
N357 C356 1.342 . S
N357 N358 1.388 . S
N358 Co341 1.993 . S
N358 N357 1.388 . S
N358 C359 1.346 . S
C359 N358 1.346 . S
C359 C360 1.396 . S
C359 C369 1.510 . S
C360 C356 1.401 . S
C360 C359 1.396 . S
C361 C356 1.499 . S
C361 H362 0.959 . S
C361 H363 0.960 . S
C361 H364 0.961 . S
H362 C361 0.959 . S
H363 C361 0.960 . S
H364 C361 0.961 . S
O365 Co340 1.967 . S
O365 C373 1.258 . S
O366 Co341 1.941 . S
O366 C373 1.266 . S
H367 C369 0.959 . S
H368 C369 0.961 . S
C369 C359 1.510 . S
C369 H367 0.959 . S
C369 H368 0.961 . S
C369 H370 0.960 . S
H370 C369 0.960 . S
H371 N351 0.862 . S
O372 Co340 1.920 . S
O372 C345 1.289 1_554 S
C373 O365 1.258 . S
C373 O366 1.266 . S
Co374 O377 1.970 . S
Co374 N391 1.989 . S
Co374 O399 1.967 . S
Co374 O406 1.920 . S
Co375 O378 1.966 . S
Co375 N384 2.022 . S
Co375 N392 1.993 . S
Co375 O400 1.941 . S
C376 O377 1.258 . S
C376 O378 1.263 . S
O377 Co374 1.970 . S
O377 C376 1.258 . S
O378 Co375 1.966 . S
O378 C376 1.263 . S
C379 O380 1.235 1_556 S
C379 O406 1.289 1_556 S
O380 C379 1.235 1_554 S
C381 C383 1.400 . S
C381 N384 1.351 . S
C381 C386 1.501 . S
C382 C383 1.387 . S
C382 N385 1.341 . S
C383 C381 1.400 . S
C383 C382 1.387 . S
N384 Co375 2.022 . S
N384 C381 1.351 . S
N384 N385 1.365 . S
N385 C382 1.341 . S
N385 N384 1.365 . S
N385 H405 0.862 . S
C386 C381 1.501 . S
C386 H387 0.961 . S
C386 H388 0.961 . S
C386 H389 0.960 . S
H387 C386 0.961 . S
H388 C386 0.961 . S
H389 C386 0.960 . S
C390 N391 1.342 . S
C390 C394 1.401 . S
C390 C395 1.499 . S
N391 Co374 1.989 . S
N391 C390 1.342 . S
N391 N392 1.388 . S
N392 Co375 1.993 . S
N392 N391 1.388 . S
N392 C393 1.346 . S
C393 N392 1.346 . S
C393 C394 1.396 . S
C393 C403 1.510 . S
C394 C390 1.401 . S
C394 C393 1.396 . S
C395 C390 1.499 . S
C395 H396 0.959 . S
C395 H397 0.960 . S
C395 H398 0.961 . S
H396 C395 0.959 . S
H397 C395 0.960 . S
H398 C395 0.961 . S
O399 Co374 1.967 . S
O399 C407 1.258 . S
O400 Co375 1.941 . S
O400 C407 1.266 . S
H401 C403 0.959 . S
H402 C403 0.961 . S
C403 C393 1.510 . S
C403 H401 0.959 . S
C403 H402 0.961 . S
C403 H404 0.960 . S
H404 C403 0.960 . S
H405 N385 0.862 . S
O406 Co374 1.920 . S
O406 C379 1.289 1_554 S
C407 O399 1.258 . S
C407 O400 1.266 . S
C408 C409 1.391 . S
C408 C410 1.394 . S
C408 H424 0.931 . S
C409 C408 1.391 . S
C409 C413 1.376 . S
C410 C408 1.394 . S
C410 C411 1.369 . S
C410 C414 1.531 . S
C411 C410 1.369 . S
C411 C412 1.410 . S
C411 C419 1.503 . S
C412 C411 1.410 . S
C412 C413 1.392 . S
C412 C415 1.511 . S
C413 C409 1.376 . S
C413 C412 1.392 . S
C413 H425 0.929 . S
C414 C410 1.531 . S
C414 H426 0.960 . S
C414 H427 0.962 . S
C414 H428 0.960 . S
C415 C412 1.511 . S
C415 H429 0.961 . S
C415 H430 0.961 . S
C415 H431 0.961 . S
C416 C417 1.370 . S
C416 C418 1.363 . S
C416 H432 0.931 . S
C417 C416 1.370 . S
C417 C421 1.408 . S
C418 C416 1.363 . S
C418 C419 1.370 . S
C418 C422 1.524 . S
C419 C411 1.503 . S
C419 C418 1.370 . S
C419 C420 1.403 . S
C420 C419 1.403 . S
C420 C421 1.404 . S
C420 C423 1.539 . S
C421 C417 1.408 . S
C421 C420 1.404 . S
C421 H433 0.930 . S
C422 C418 1.524 . S
C422 H434 0.956 . S
C422 H435 0.961 . S
C422 H436 0.961 . S
C423 C420 1.539 . S
C423 H437 0.958 . S
C423 H438 0.961 . S
C423 H439 0.960 . S
H424 C408 0.931 . S
H425 C413 0.929 . S
H426 C414 0.960 . S
H427 C414 0.962 . S
H428 C414 0.960 . S
H429 C415 0.961 . S
H430 C415 0.961 . S
H431 C415 0.961 . S
H432 C416 0.931 . S
H433 C421 0.930 . S
H434 C422 0.956 . S
H435 C422 0.961 . S
H436 C422 0.961 . S
H437 C423 0.958 . S
H438 C423 0.961 . S
H439 C423 0.960 . S
C440 C441 1.391 . S
C440 C442 1.394 . S
C440 H456 0.931 . S
C441 C440 1.391 . S
C441 C445 1.376 . S
C442 C440 1.394 . S
C442 C443 1.369 . S
C442 C446 1.531 . S
C443 C442 1.369 . S
C443 C444 1.410 . S
C443 C451 1.503 . S
C444 C443 1.410 . S
C444 C445 1.392 . S
C444 C447 1.511 . S
C445 C441 1.376 . S
C445 C444 1.392 . S
C445 H457 0.929 . S
C446 C442 1.531 . S
C446 H458 0.960 . S
C446 H459 0.962 . S
C446 H460 0.960 . S
C447 C444 1.511 . S
C447 H461 0.961 . S
C447 H462 0.961 . S
C447 H463 0.961 . S
C448 C449 1.370 . S
C448 C450 1.363 . S
C448 H464 0.931 . S
C449 C448 1.370 . S
C449 C453 1.408 . S
C450 C448 1.363 . S
C450 C451 1.370 . S
C450 C454 1.524 . S
C451 C443 1.503 . S
C451 C450 1.370 . S
C451 C452 1.403 . S
C452 C451 1.403 . S
C452 C453 1.404 . S
C452 C455 1.539 . S
C453 C449 1.408 . S
C453 C452 1.404 . S
C453 H465 0.930 . S
C454 C450 1.524 . S
C454 H466 0.956 . S
C454 H467 0.961 . S
C454 H468 0.961 . S
C455 C452 1.539 . S
C455 H469 0.958 . S
C455 H470 0.961 . S
C455 H471 0.960 . S
H456 C440 0.931 . S
H457 C445 0.929 . S
H458 C446 0.960 . S
H459 C446 0.962 . S
H460 C446 0.960 . S
H461 C447 0.961 . S
H462 C447 0.961 . S
H463 C447 0.961 . S
H464 C448 0.931 . S
H465 C453 0.930 . S
H466 C454 0.956 . S
H467 C454 0.961 . S
H468 C454 0.961 . S
H469 C455 0.958 . S
H470 C455 0.961 . S
H471 C455 0.960 . S
C472 C473 1.391 . S
C472 C474 1.394 . S
C472 H488 0.931 . S
C473 C472 1.391 . S
C473 C477 1.376 . S
C474 C472 1.394 . S
C474 C475 1.369 . S
C474 C478 1.531 . S
C475 C474 1.369 . S
C475 C476 1.410 . S
C475 C483 1.503 . S
C476 C475 1.410 . S
C476 C477 1.392 . S
C476 C479 1.511 . S
C477 C473 1.376 . S
C477 C476 1.392 . S
C477 H489 0.929 . S
C478 C474 1.531 . S
C478 H490 0.960 . S
C478 H491 0.962 . S
C478 H492 0.960 . S
C479 C476 1.511 . S
C479 H493 0.961 . S
C479 H494 0.961 . S
C479 H495 0.961 . S
C480 C481 1.370 . S
C480 C482 1.363 . S
C480 H496 0.931 . S
C481 C480 1.370 . S
C481 C485 1.408 . S
C482 C480 1.363 . S
C482 C483 1.370 . S
C482 C486 1.524 . S
C483 C475 1.503 . S
C483 C482 1.370 . S
C483 C484 1.403 . S
C484 C483 1.403 . S
C484 C485 1.404 . S
C484 C487 1.539 . S
C485 C481 1.408 . S
C485 C484 1.404 . S
C485 H497 0.930 . S
C486 C482 1.524 . S
C486 H498 0.956 . S
C486 H499 0.961 . S
C486 H500 0.961 . S
C487 C484 1.539 . S
C487 H501 0.958 . S
C487 H502 0.961 . S
C487 H503 0.960 . S
H488 C472 0.931 . S
H489 C477 0.929 . S
H490 C478 0.960 . S
H491 C478 0.962 . S
H492 C478 0.960 . S
H493 C479 0.961 . S
H494 C479 0.961 . S
H495 C479 0.961 . S
H496 C480 0.931 . S
H497 C485 0.930 . S
H498 C486 0.956 . S
H499 C486 0.961 . S
H500 C486 0.961 . S
H501 C487 0.958 . S
H502 C487 0.961 . S
H503 C487 0.960 . S
C504 C505 1.391 . S
C504 C506 1.394 . S
C504 H520 0.931 . S
C505 C504 1.391 . S
C505 C509 1.376 . S
C506 C504 1.394 . S
C506 C507 1.369 . S
C506 C510 1.531 . S
C507 C506 1.369 . S
C507 C508 1.410 . S
C507 C515 1.503 . S
C508 C507 1.410 . S
C508 C509 1.392 . S
C508 C511 1.511 . S
C509 C505 1.376 . S
C509 C508 1.392 . S
C509 H521 0.929 . S
C510 C506 1.531 . S
C510 H522 0.960 . S
C510 H523 0.962 . S
C510 H524 0.960 . S
C511 C508 1.511 . S
C511 H525 0.961 . S
C511 H526 0.961 . S
C511 H527 0.961 . S
C512 C513 1.370 . S
C512 C514 1.363 . S
C512 H528 0.931 . S
C513 C512 1.370 . S
C513 C517 1.408 . S
C514 C512 1.363 . S
C514 C515 1.370 . S
C514 C518 1.524 . S
C515 C507 1.503 . S
C515 C514 1.370 . S
C515 C516 1.403 . S
C516 C515 1.403 . S
C516 C517 1.404 . S
C516 C519 1.539 . S
C517 C513 1.408 . S
C517 C516 1.404 . S
C517 H529 0.930 . S
C518 C514 1.524 . S
C518 H530 0.956 . S
C518 H531 0.961 . S
C518 H532 0.961 . S
C519 C516 1.539 . S
C519 H533 0.958 . S
C519 H534 0.961 . S
C519 H535 0.960 . S
H520 C504 0.931 . S
H521 C509 0.929 . S
H522 C510 0.960 . S
H523 C510 0.962 . S
H524 C510 0.960 . S
H525 C511 0.961 . S
H526 C511 0.961 . S
H527 C511 0.961 . S
H528 C512 0.931 . S
H529 C517 0.930 . S
H530 C518 0.956 . S
H531 C518 0.961 . S
H532 C518 0.961 . S
H533 C519 0.958 . S
H534 C519 0.961 . S
H535 C519 0.960 . S
C536 C537 1.391 . S
C536 C538 1.394 . S
C536 H552 0.931 . S
C537 C536 1.391 . S
C537 C541 1.376 . S
C538 C536 1.394 . S
C538 C539 1.369 . S
C538 C542 1.531 . S
C539 C538 1.369 . S
C539 C540 1.410 . S
C539 C547 1.503 . S
C540 C539 1.410 . S
C540 C541 1.392 . S
C540 C543 1.511 . S
C541 C537 1.376 . S
C541 C540 1.392 . S
C541 H553 0.929 . S
C542 C538 1.531 . S
C542 H554 0.960 . S
C542 H555 0.962 . S
C542 H556 0.960 . S
C543 C540 1.511 . S
C543 H557 0.961 . S
C543 H558 0.961 . S
C543 H559 0.961 . S
C544 C545 1.370 . S
C544 C546 1.363 . S
C544 H560 0.931 . S
C545 C544 1.370 . S
C545 C549 1.408 . S
C546 C544 1.363 . S
C546 C547 1.370 . S
C546 C550 1.524 . S
C547 C539 1.503 . S
C547 C546 1.370 . S
C547 C548 1.403 . S
C548 C547 1.403 . S
C548 C549 1.404 . S
C548 C551 1.539 . S
C549 C545 1.408 . S
C549 C548 1.404 . S
C549 H561 0.930 . S
C550 C546 1.524 . S
C550 H562 0.956 . S
C550 H563 0.961 . S
C550 H564 0.961 . S
C551 C548 1.539 . S
C551 H565 0.958 . S
C551 H566 0.961 . S
C551 H567 0.960 . S
H552 C536 0.931 . S
H553 C541 0.929 . S
H554 C542 0.960 . S
H555 C542 0.962 . S
H556 C542 0.960 . S
H557 C543 0.961 . S
H558 C543 0.961 . S
H559 C543 0.961 . S
H560 C544 0.931 . S
H561 C549 0.930 . S
H562 C550 0.956 . S
H563 C550 0.961 . S
H564 C550 0.961 . S
H565 C551 0.958 . S
H566 C551 0.961 . S
H567 C551 0.960 . S
C568 C569 1.391 . S
C568 C570 1.394 . S
C568 H584 0.931 . S
C569 C568 1.391 . S
C569 C573 1.376 . S
C570 C568 1.394 . S
C570 C571 1.369 . S
C570 C574 1.531 . S
C571 C570 1.369 . S
C571 C572 1.410 . S
C571 C579 1.503 . S
C572 C571 1.410 . S
C572 C573 1.392 . S
C572 C575 1.511 . S
C573 C569 1.376 . S
C573 C572 1.392 . S
C573 H585 0.929 . S
C574 C570 1.531 . S
C574 H586 0.960 . S
C574 H587 0.962 . S
C574 H588 0.960 . S
C575 C572 1.511 . S
C575 H589 0.961 . S
C575 H590 0.961 . S
C575 H591 0.961 . S
C576 C577 1.370 . S
C576 C578 1.363 . S
C576 H592 0.931 . S
C577 C576 1.370 . S
C577 C581 1.408 . S
C578 C576 1.363 . S
C578 C579 1.370 . S
C578 C582 1.524 . S
C579 C571 1.503 . S
C579 C578 1.370 . S
C579 C580 1.403 . S
C580 C579 1.403 . S
C580 C581 1.404 . S
C580 C583 1.539 . S
C581 C577 1.408 . S
C581 C580 1.404 . S
C581 H593 0.930 . S
C582 C578 1.524 . S
C582 H594 0.956 . S
C582 H595 0.961 . S
C582 H596 0.961 . S
C583 C580 1.539 . S
C583 H597 0.958 . S
C583 H598 0.961 . S
C583 H599 0.960 . S
H584 C568 0.931 . S
H585 C573 0.929 . S
H586 C574 0.960 . S
H587 C574 0.962 . S
H588 C574 0.960 . S
H589 C575 0.961 . S
H590 C575 0.961 . S
H591 C575 0.961 . S
H592 C576 0.931 . S
H593 C581 0.930 . S
H594 C582 0.956 . S
H595 C582 0.961 . S
H596 C582 0.961 . S
H597 C583 0.958 . S
H598 C583 0.961 . S
H599 C583 0.960 . S
C600 C601 1.391 . S
C600 C602 1.394 . S
C600 H616 0.931 . S
C601 C600 1.391 . S
C601 C605 1.376 . S
C602 C600 1.394 . S
C602 C603 1.369 . S
C602 C606 1.531 . S
C603 C602 1.369 . S
C603 C604 1.410 . S
C603 C611 1.503 . S
C604 C603 1.410 . S
C604 C605 1.392 . S
C604 C607 1.511 . S
C605 C601 1.376 . S
C605 C604 1.392 . S
C605 H617 0.929 . S
C606 C602 1.531 . S
C606 H618 0.960 . S
C606 H619 0.962 . S
C606 H620 0.960 . S
C607 C604 1.511 . S
C607 H621 0.961 . S
C607 H622 0.961 . S
C607 H623 0.961 . S
C608 C609 1.370 . S
C608 C610 1.363 . S
C608 H624 0.931 . S
C609 C608 1.370 . S
C609 C613 1.408 . S
C610 C608 1.363 . S
C610 C611 1.370 . S
C610 C614 1.524 . S
C611 C603 1.503 . S
C611 C610 1.370 . S
C611 C612 1.403 . S
C612 C611 1.403 . S
C612 C613 1.404 . S
C612 C615 1.539 . S
C613 C609 1.408 . S
C613 C612 1.404 . S
C613 H625 0.930 . S
C614 C610 1.524 . S
C614 H626 0.956 . S
C614 H627 0.961 . S
C614 H628 0.961 . S
C615 C612 1.539 . S
C615 H629 0.958 . S
C615 H630 0.961 . S
C615 H631 0.960 . S
H616 C600 0.931 . S
H617 C605 0.929 . S
H618 C606 0.960 . S
H619 C606 0.962 . S
H620 C606 0.960 . S
H621 C607 0.961 . S
H622 C607 0.961 . S
H623 C607 0.961 . S
H624 C608 0.931 . S
H625 C613 0.930 . S
H626 C614 0.956 . S
H627 C614 0.961 . S
H628 C614 0.961 . S
H629 C615 0.958 . S
H630 C615 0.961 . S
H631 C615 0.960 . S
C632 C633 1.391 . S
C632 C634 1.394 . S
C632 H648 0.931 . S
C633 C632 1.391 . S
C633 C637 1.376 . S
C634 C632 1.394 . S
C634 C635 1.369 . S
C634 C638 1.531 . S
C635 C634 1.369 . S
C635 C636 1.410 . S
C635 C643 1.503 . S
C636 C635 1.410 . S
C636 C637 1.392 . S
C636 C639 1.511 . S
C637 C633 1.376 . S
C637 C636 1.392 . S
C637 H649 0.929 . S
C638 C634 1.531 . S
C638 H650 0.960 . S
C638 H651 0.962 . S
C638 H652 0.960 . S
C639 C636 1.511 . S
C639 H653 0.961 . S
C639 H654 0.961 . S
C639 H655 0.961 . S
C640 C641 1.370 . S
C640 C642 1.363 . S
C640 H656 0.931 . S
C641 C640 1.370 . S
C641 C645 1.408 . S
C642 C640 1.363 . S
C642 C643 1.370 . S
C642 C646 1.524 . S
C643 C635 1.503 . S
C643 C642 1.370 . S
C643 C644 1.403 . S
C644 C643 1.403 . S
C644 C645 1.404 . S
C644 C647 1.539 . S
C645 C641 1.408 . S
C645 C644 1.404 . S
C645 H657 0.930 . S
C646 C642 1.524 . S
C646 H658 0.956 . S
C646 H659 0.961 . S
C646 H660 0.961 . S
C647 C644 1.539 . S
C647 H661 0.958 . S
C647 H662 0.961 . S
C647 H663 0.960 . S
H648 C632 0.931 . S
H649 C637 0.929 . S
H650 C638 0.960 . S
H651 C638 0.962 . S
H652 C638 0.960 . S
H653 C639 0.961 . S
H654 C639 0.961 . S
H655 C639 0.961 . S
H656 C640 0.931 . S
H657 C645 0.930 . S
H658 C646 0.956 . S
H659 C646 0.961 . S
H660 C646 0.961 . S
H661 C647 0.958 . S
H662 C647 0.961 . S
H663 C647 0.960 . S
C664 C665 1.391 . S
C664 C666 1.394 . S
C664 H680 0.931 . S
C665 C664 1.391 . S
C665 C669 1.376 . S
C666 C664 1.394 . S
C666 C667 1.369 . S
C666 C670 1.531 . S
C667 C666 1.369 . S
C667 C668 1.410 . S
C667 C675 1.503 . S
C668 C667 1.410 . S
C668 C669 1.392 . S
C668 C671 1.511 . S
C669 C665 1.376 . S
C669 C668 1.392 . S
C669 H681 0.929 . S
C670 C666 1.531 . S
C670 H682 0.960 . S
C670 H683 0.962 . S
C670 H684 0.960 . S
C671 C668 1.511 . S
C671 H685 0.961 . S
C671 H686 0.961 . S
C671 H687 0.961 . S
C672 C673 1.370 . S
C672 C674 1.363 . S
C672 H688 0.931 . S
C673 C672 1.370 . S
C673 C677 1.408 . S
C674 C672 1.363 . S
C674 C675 1.370 . S
C674 C678 1.524 . S
C675 C667 1.503 . S
C675 C674 1.370 . S
C675 C676 1.403 . S
C676 C675 1.403 . S
C676 C677 1.404 . S
C676 C679 1.539 . S
C677 C673 1.408 . S
C677 C676 1.404 . S
C677 H689 0.930 . S
C678 C674 1.524 . S
C678 H690 0.956 . S
C678 H691 0.961 . S
C678 H692 0.961 . S
C679 C676 1.539 . S
C679 H693 0.958 . S
C679 H694 0.961 . S
C679 H695 0.960 . S
H680 C664 0.931 . S
H681 C669 0.929 . S
H682 C670 0.960 . S
H683 C670 0.962 . S
H684 C670 0.960 . S
H685 C671 0.961 . S
H686 C671 0.961 . S
H687 C671 0.961 . S
H688 C672 0.931 . S
H689 C677 0.930 . S
H690 C678 0.956 . S
H691 C678 0.961 . S
H692 C678 0.961 . S
H693 C679 0.958 . S
H694 C679 0.961 . S
H695 C679 0.960 . S
C696 C697 1.391 . S
C696 C698 1.394 . S
C696 H712 0.931 . S
C697 C696 1.391 . S
C697 C701 1.376 . S
C698 C696 1.394 . S
C698 C699 1.369 . S
C698 C702 1.531 . S
C699 C698 1.369 . S
C699 C700 1.410 . S
C699 C707 1.503 . S
C700 C699 1.410 . S
C700 C701 1.392 . S
C700 C703 1.511 . S
C701 C697 1.376 . S
C701 C700 1.392 . S
C701 H713 0.929 . S
C702 C698 1.531 . S
C702 H714 0.960 . S
C702 H715 0.962 . S
C702 H716 0.960 . S
C703 C700 1.511 . S
C703 H717 0.961 . S
C703 H718 0.961 . S
C703 H719 0.961 . S
C704 C705 1.370 . S
C704 C706 1.363 . S
C704 H720 0.931 . S
C705 C704 1.370 . S
C705 C709 1.408 . S
C706 C704 1.363 . S
C706 C707 1.370 . S
C706 C710 1.524 . S
C707 C699 1.503 . S
C707 C706 1.370 . S
C707 C708 1.403 . S
C708 C707 1.403 . S
C708 C709 1.404 . S
C708 C711 1.539 . S
C709 C705 1.408 . S
C709 C708 1.404 . S
C709 H721 0.930 . S
C710 C706 1.524 . S
C710 H722 0.956 . S
C710 H723 0.961 . S
C710 H724 0.961 . S
C711 C708 1.539 . S
C711 H725 0.958 . S
C711 H726 0.961 . S
C711 H727 0.960 . S
H712 C696 0.931 . S
H713 C701 0.929 . S
H714 C702 0.960 . S
H715 C702 0.962 . S
H716 C702 0.960 . S
H717 C703 0.961 . S
H718 C703 0.961 . S
H719 C703 0.961 . S
H720 C704 0.931 . S
H721 C709 0.930 . S
H722 C710 0.956 . S
H723 C710 0.961 . S
H724 C710 0.961 . S
H725 C711 0.958 . S
H726 C711 0.961 . S
H727 C711 0.960 . S
C728 C729 1.391 . S
C728 C730 1.394 . S
C728 H744 0.931 . S
C729 C728 1.391 . S
C729 C733 1.376 . S
C730 C728 1.394 . S
C730 C731 1.369 . S
C730 C734 1.531 . S
C731 C730 1.369 . S
C731 C732 1.410 . S
C731 C739 1.503 . S
C732 C731 1.410 . S
C732 C733 1.392 . S
C732 C735 1.511 . S
C733 C729 1.376 . S
C733 C732 1.392 . S
C733 H745 0.929 . S
C734 C730 1.531 . S
C734 H746 0.960 . S
C734 H747 0.962 . S
C734 H748 0.960 . S
C735 C732 1.511 . S
C735 H749 0.961 . S
C735 H750 0.961 . S
C735 H751 0.961 . S
C736 C737 1.370 . S
C736 C738 1.363 . S
C736 H752 0.931 . S
C737 C736 1.370 . S
C737 C741 1.408 . S
C738 C736 1.363 . S
C738 C739 1.370 . S
C738 C742 1.524 . S
C739 C731 1.503 . S
C739 C738 1.370 . S
C739 C740 1.403 . S
C740 C739 1.403 . S
C740 C741 1.404 . S
C740 C743 1.539 . S
C741 C737 1.408 . S
C741 C740 1.404 . S
C741 H753 0.930 . S
C742 C738 1.524 . S
C742 H754 0.956 . S
C742 H755 0.961 . S
C742 H756 0.961 . S
C743 C740 1.539 . S
C743 H757 0.958 . S
C743 H758 0.961 . S
C743 H759 0.960 . S
H744 C728 0.931 . S
H745 C733 0.929 . S
H746 C734 0.960 . S
H747 C734 0.962 . S
H748 C734 0.960 . S
H749 C735 0.961 . S
H750 C735 0.961 . S
H751 C735 0.961 . S
H752 C736 0.931 . S
H753 C741 0.930 . S
H754 C742 0.956 . S
H755 C742 0.961 . S
H756 C742 0.961 . S
H757 C743 0.958 . S
H758 C743 0.961 . S
H759 C743 0.960 . S
C760 C761 1.391 . S
C760 C762 1.394 . S
C760 H776 0.931 . S
C761 C760 1.391 . S
C761 C765 1.376 . S
C762 C760 1.394 . S
C762 C763 1.369 . S
C762 C766 1.531 . S
C763 C762 1.369 . S
C763 C764 1.410 . S
C763 C771 1.503 . S
C764 C763 1.410 . S
C764 C765 1.392 . S
C764 C767 1.511 . S
C765 C761 1.376 . S
C765 C764 1.392 . S
C765 H777 0.929 . S
C766 C762 1.531 . S
C766 H778 0.960 . S
C766 H779 0.962 . S
C766 H780 0.960 . S
C767 C764 1.511 . S
C767 H781 0.961 . S
C767 H782 0.961 . S
C767 H783 0.961 . S
C768 C769 1.370 . S
C768 C770 1.363 . S
C768 H784 0.931 . S
C769 C768 1.370 . S
C769 C773 1.408 . S
C770 C768 1.363 . S
C770 C771 1.370 . S
C770 C774 1.524 . S
C771 C763 1.503 . S
C771 C770 1.370 . S
C771 C772 1.403 . S
C772 C771 1.403 . S
C772 C773 1.404 . S
C772 C775 1.539 . S
C773 C769 1.408 . S
C773 C772 1.404 . S
C773 H785 0.930 . S
C774 C770 1.524 . S
C774 H786 0.956 . S
C774 H787 0.961 . S
C774 H788 0.961 . S
C775 C772 1.539 . S
C775 H789 0.958 . S
C775 H790 0.961 . S
C775 H791 0.960 . S
H776 C760 0.931 . S
H777 C765 0.929 . S
H778 C766 0.960 . S
H779 C766 0.962 . S
H780 C766 0.960 . S
H781 C767 0.961 . S
H782 C767 0.961 . S
H783 C767 0.961 . S
H784 C768 0.931 . S
H785 C773 0.930 . S
H786 C774 0.956 . S
H787 C774 0.961 . S
H788 C774 0.961 . S
H789 C775 0.958 . S
H790 C775 0.961 . S
H791 C775 0.960 . S
C792 C793 1.391 . S
C792 C794 1.394 . S
C792 H808 0.931 . S
C793 C792 1.391 . S
C793 C797 1.376 . S
C794 C792 1.394 . S
C794 C795 1.369 . S
C794 C798 1.531 . S
C795 C794 1.369 . S
C795 C796 1.410 . S
C795 C803 1.503 . S
C796 C795 1.410 . S
C796 C797 1.392 . S
C796 C799 1.511 . S
C797 C793 1.376 . S
C797 C796 1.392 . S
C797 H809 0.929 . S
C798 C794 1.531 . S
C798 H810 0.960 . S
C798 H811 0.962 . S
C798 H812 0.960 . S
C799 C796 1.511 . S
C799 H813 0.961 . S
C799 H814 0.961 . S
C799 H815 0.961 . S
C800 C801 1.370 . S
C800 C802 1.363 . S
C800 H816 0.931 . S
C801 C800 1.370 . S
C801 C805 1.408 . S
C802 C800 1.363 . S
C802 C803 1.370 . S
C802 C806 1.524 . S
C803 C795 1.503 . S
C803 C802 1.370 . S
C803 C804 1.403 . S
C804 C803 1.403 . S
C804 C805 1.404 . S
C804 C807 1.539 . S
C805 C801 1.408 . S
C805 C804 1.404 . S
C805 H817 0.930 . S
C806 C802 1.524 . S
C806 H818 0.956 . S
C806 H819 0.961 . S
C806 H820 0.961 . S
C807 C804 1.539 . S
C807 H821 0.958 . S
C807 H822 0.961 . S
C807 H823 0.960 . S
H808 C792 0.931 . S
H809 C797 0.929 . S
H810 C798 0.960 . S
H811 C798 0.962 . S
H812 C798 0.960 . S
H813 C799 0.961 . S
H814 C799 0.961 . S
H815 C799 0.961 . S
H816 C800 0.931 . S
H817 C805 0.930 . S
H818 C806 0.956 . S
H819 C806 0.961 . S
H820 C806 0.961 . S
H821 C807 0.958 . S
H822 C807 0.961 . S
H823 C807 0.960 . S
C824 C825 1.391 . S
C824 C826 1.394 . S
C824 H840 0.931 . S
C825 C824 1.391 . S
C825 C829 1.376 . S
C826 C824 1.394 . S
C826 C827 1.369 . S
C826 C830 1.531 . S
C827 C826 1.369 . S
C827 C828 1.410 . S
C827 C835 1.503 . S
C828 C827 1.410 . S
C828 C829 1.392 . S
C828 C831 1.511 . S
C829 C825 1.376 . S
C829 C828 1.392 . S
C829 H841 0.929 . S
C830 C826 1.531 . S
C830 H842 0.960 . S
C830 H843 0.962 . S
C830 H844 0.960 . S
C831 C828 1.511 . S
C831 H845 0.961 . S
C831 H846 0.961 . S
C831 H847 0.961 . S
C832 C833 1.370 . S
C832 C834 1.363 . S
C832 H848 0.931 . S
C833 C832 1.370 . S
C833 C837 1.408 . S
C834 C832 1.363 . S
C834 C835 1.370 . S
C834 C838 1.524 . S
C835 C827 1.503 . S
C835 C834 1.370 . S
C835 C836 1.403 . S
C836 C835 1.403 . S
C836 C837 1.404 . S
C836 C839 1.539 . S
C837 C833 1.408 . S
C837 C836 1.404 . S
C837 H849 0.930 . S
C838 C834 1.524 . S
C838 H850 0.956 . S
C838 H851 0.961 . S
C838 H852 0.961 . S
C839 C836 1.539 . S
C839 H853 0.958 . S
C839 H854 0.961 . S
C839 H855 0.960 . S
H840 C824 0.931 . S
H841 C829 0.929 . S
H842 C830 0.960 . S
H843 C830 0.962 . S
H844 C830 0.960 . S
H845 C831 0.961 . S
H846 C831 0.961 . S
H847 C831 0.961 . S
H848 C832 0.931 . S
H849 C837 0.930 . S
H850 C838 0.956 . S
H851 C838 0.961 . S
H852 C838 0.961 . S
H853 C839 0.958 . S
H854 C839 0.961 . S
H855 C839 0.960 . S
C856 C857 1.391 . S
C856 C858 1.394 . S
C856 H872 0.931 . S
C857 C856 1.391 . S
C857 C861 1.376 . S
C858 C856 1.394 . S
C858 C859 1.369 . S
C858 C862 1.531 . S
C859 C858 1.369 . S
C859 C860 1.410 . S
C859 C867 1.503 . S
C860 C859 1.410 . S
C860 C861 1.392 . S
C860 C863 1.511 . S
C861 C857 1.376 . S
C861 C860 1.392 . S
C861 H873 0.929 . S
C862 C858 1.531 . S
C862 H874 0.960 . S
C862 H875 0.962 . S
C862 H876 0.960 . S
C863 C860 1.511 . S
C863 H877 0.961 . S
C863 H878 0.961 . S
C863 H879 0.961 . S
C864 C865 1.370 . S
C864 C866 1.363 . S
C864 H880 0.931 . S
C865 C864 1.370 . S
C865 C869 1.408 . S
C866 C864 1.363 . S
C866 C867 1.370 . S
C866 C870 1.524 . S
C867 C859 1.503 . S
C867 C866 1.370 . S
C867 C868 1.403 . S
C868 C867 1.403 . S
C868 C869 1.404 . S
C868 C871 1.539 . S
C869 C865 1.408 . S
C869 C868 1.404 . S
C869 H881 0.930 . S
C870 C866 1.524 . S
C870 H882 0.956 . S
C870 H883 0.961 . S
C870 H884 0.961 . S
C871 C868 1.539 . S
C871 H885 0.958 . S
C871 H886 0.961 . S
C871 H887 0.960 . S
H872 C856 0.931 . S
H873 C861 0.929 . S
H874 C862 0.960 . S
H875 C862 0.962 . S
H876 C862 0.960 . S
H877 C863 0.961 . S
H878 C863 0.961 . S
H879 C863 0.961 . S
H880 C864 0.931 . S
H881 C869 0.930 . S
H882 C870 0.956 . S
H883 C870 0.961 . S
H884 C870 0.961 . S
H885 C871 0.958 . S
H886 C871 0.961 . S
H887 C871 0.960 . S
C888 C889 1.391 . S
C888 C890 1.394 . S
C888 H904 0.931 . S
C889 C888 1.391 . S
C889 C893 1.376 . S
C890 C888 1.394 . S
C890 C891 1.369 . S
C890 C894 1.531 . S
C891 C890 1.369 . S
C891 C892 1.410 . S
C891 C899 1.503 . S
C892 C891 1.410 . S
C892 C893 1.392 . S
C892 C895 1.511 . S
C893 C889 1.376 . S
C893 C892 1.392 . S
C893 H905 0.929 . S
C894 C890 1.531 . S
C894 H906 0.960 . S
C894 H907 0.962 . S
C894 H908 0.960 . S
C895 C892 1.511 . S
C895 H909 0.961 . S
C895 H910 0.961 . S
C895 H911 0.961 . S
C896 C897 1.370 . S
C896 C898 1.363 . S
C896 H912 0.931 . S
C897 C896 1.370 . S
C897 C901 1.408 . S
C898 C896 1.363 . S
C898 C899 1.370 . S
C898 C902 1.524 . S
C899 C891 1.503 . S
C899 C898 1.370 . S
C899 C900 1.403 . S
C900 C899 1.403 . S
C900 C901 1.404 . S
C900 C903 1.539 . S
C901 C897 1.408 . S
C901 C900 1.404 . S
C901 H913 0.930 . S
C902 C898 1.524 . S
C902 H914 0.956 . S
C902 H915 0.961 . S
C902 H916 0.961 . S
C903 C900 1.539 . S
C903 H917 0.958 . S
C903 H918 0.961 . S
C903 H919 0.960 . S
H904 C888 0.931 . S
H905 C893 0.929 . S
H906 C894 0.960 . S
H907 C894 0.962 . S
H908 C894 0.960 . S
H909 C895 0.961 . S
H910 C895 0.961 . S
H911 C895 0.961 . S
H912 C896 0.931 . S
H913 C901 0.930 . S
H914 C902 0.956 . S
H915 C902 0.961 . S
H916 C902 0.961 . S
H917 C903 0.958 . S
H918 C903 0.961 . S
H919 C903 0.960 . S
C920 C921 1.391 . S
C920 C922 1.394 . S
C920 H936 0.931 . S
C921 C920 1.391 . S
C921 C925 1.376 . S
C922 C920 1.394 . S
C922 C923 1.369 . S
C922 C926 1.531 . S
C923 C922 1.369 . S
C923 C924 1.410 . S
C923 C931 1.503 . S
C924 C923 1.410 . S
C924 C925 1.392 . S
C924 C927 1.511 . S
C925 C921 1.376 . S
C925 C924 1.392 . S
C925 H937 0.929 . S
C926 C922 1.531 . S
C926 H938 0.960 . S
C926 H939 0.962 . S
C926 H940 0.960 . S
C927 C924 1.511 . S
C927 H941 0.961 . S
C927 H942 0.961 . S
C927 H943 0.961 . S
C928 C929 1.370 . S
C928 C930 1.363 . S
C928 H944 0.931 . S
C929 C928 1.370 . S
C929 C933 1.408 . S
C930 C928 1.363 . S
C930 C931 1.370 . S
C930 C934 1.524 . S
C931 C923 1.503 . S
C931 C930 1.370 . S
C931 C932 1.403 . S
C932 C931 1.403 . S
C932 C933 1.404 . S
C932 C935 1.539 . S
C933 C929 1.408 . S
C933 C932 1.404 . S
C933 H945 0.930 . S
C934 C930 1.524 . S
C934 H946 0.956 . S
C934 H947 0.961 . S
C934 H948 0.961 . S
C935 C932 1.539 . S
C935 H949 0.958 . S
C935 H950 0.961 . S
C935 H951 0.960 . S
H936 C920 0.931 . S
H937 C925 0.929 . S
H938 C926 0.960 . S
H939 C926 0.962 . S
H940 C926 0.960 . S
H941 C927 0.961 . S
H942 C927 0.961 . S
H943 C927 0.961 . S
H944 C928 0.931 . S
H945 C933 0.930 . S
H946 C934 0.956 . S
H947 C934 0.961 . S
H948 C934 0.961 . S
H949 C935 0.958 . S
H950 C935 0.961 . S
H951 C935 0.960 . S
C952 C953 1.391 . S
C952 C954 1.394 . S
C952 H968 0.931 . S
C953 C952 1.391 . S
C953 C957 1.376 . S
C954 C952 1.394 . S
C954 C955 1.369 . S
C954 C958 1.531 . S
C955 C954 1.369 . S
C955 C956 1.410 . S
C955 C963 1.503 . S
C956 C955 1.410 . S
C956 C957 1.392 . S
C956 C959 1.511 . S
C957 C953 1.376 . S
C957 C956 1.392 . S
C957 H969 0.929 . S
C958 C954 1.531 . S
C958 H970 0.960 . S
C958 H971 0.962 . S
C958 H972 0.960 . S
C959 C956 1.511 . S
C959 H973 0.961 . S
C959 H974 0.961 . S
C959 H975 0.961 . S
C960 C961 1.370 . S
C960 C962 1.363 . S
C960 H976 0.931 . S
C961 C960 1.370 . S
C961 C965 1.408 . S
C962 C960 1.363 . S
C962 C963 1.370 . S
C962 C966 1.524 . S
C963 C955 1.503 . S
C963 C962 1.370 . S
C963 C964 1.403 . S
C964 C963 1.403 . S
C964 C965 1.404 . S
C964 C967 1.539 . S
C965 C961 1.408 . S
C965 C964 1.404 . S
C965 H977 0.930 . S
C966 C962 1.524 . S
C966 H978 0.956 . S
C966 H979 0.961 . S
C966 H980 0.961 . S
C967 C964 1.539 . S
C967 H981 0.958 . S
C967 H982 0.961 . S
C967 H983 0.960 . S
H968 C952 0.931 . S
H969 C957 0.929 . S
H970 C958 0.960 . S
H971 C958 0.962 . S
H972 C958 0.960 . S
H973 C959 0.961 . S
H974 C959 0.961 . S
H975 C959 0.961 . S
H976 C960 0.931 . S
H977 C965 0.930 . S
H978 C966 0.956 . S
H979 C966 0.961 . S
H980 C966 0.961 . S
H981 C967 0.958 . S
H982 C967 0.961 . S
H983 C967 0.960 . S
C984 C985 1.391 . S
C984 C986 1.394 . S
C984 H1000 0.931 . S
C985 C984 1.391 . S
C985 C989 1.376 . S
C986 C984 1.394 . S
C986 C987 1.369 . S
C986 C990 1.531 . S
C987 C986 1.369 . S
C987 C988 1.410 . S
C987 C995 1.503 . S
C988 C987 1.410 . S
C988 C989 1.392 . S
C988 C991 1.511 . S
C989 C985 1.376 . S
C989 C988 1.392 . S
C989 H1001 0.929 . S
C990 C986 1.531 . S
C990 H1002 0.960 . S
C990 H1003 0.962 . S
C990 H1004 0.960 . S
C991 C988 1.511 . S
C991 H1005 0.961 . S
C991 H1006 0.961 . S
C991 H1007 0.961 . S
C992 C993 1.370 . S
C992 C994 1.363 . S
C992 H1008 0.931 . S
C993 C992 1.370 . S
C993 C997 1.408 . S
C994 C992 1.363 . S
C994 C995 1.370 . S
C994 C998 1.524 . S
C995 C987 1.503 . S
C995 C994 1.370 . S
C995 C996 1.403 . S
C996 C995 1.403 . S
C996 C997 1.404 . S
C996 C999 1.539 . S
C997 C993 1.408 . S
C997 C996 1.404 . S
C997 H1009 0.930 . S
C998 C994 1.524 . S
C998 H1010 0.956 . S
C998 H1011 0.961 . S
C998 H1012 0.961 . S
C999 C996 1.539 . S
C999 H1013 0.958 . S
C999 H1014 0.961 . S
C999 H1015 0.960 . S
H1000 C984 0.931 . S
H1001 C989 0.929 . S
H1002 C990 0.960 . S
H1003 C990 0.962 . S
H1004 C990 0.960 . S
H1005 C991 0.961 . S
H1006 C991 0.961 . S
H1007 C991 0.961 . S
H1008 C992 0.931 . S
H1009 C997 0.930 . S
H1010 C998 0.956 . S
H1011 C998 0.961 . S
H1012 C998 0.961 . S
H1013 C999 0.958 . S
H1014 C999 0.961 . S
H1015 C999 0.960 . S
C1016 C1017 1.391 . S
C1016 C1018 1.394 . S
C1016 H1032 0.931 . S
C1017 C1016 1.391 . S
C1017 C1021 1.376 . S
C1018 C1016 1.394 . S
C1018 C1019 1.369 . S
C1018 C1022 1.531 . S
C1019 C1018 1.369 . S
C1019 C1020 1.410 . S
C1019 C1027 1.503 . S
C1020 C1019 1.410 . S
C1020 C1021 1.392 . S
C1020 C1023 1.511 . S
C1021 C1017 1.376 . S
C1021 C1020 1.392 . S
C1021 H1033 0.929 . S
C1022 C1018 1.531 . S
C1022 H1034 0.960 . S
C1022 H1035 0.962 . S
C1022 H1036 0.960 . S
C1023 C1020 1.511 . S
C1023 H1037 0.961 . S
C1023 H1038 0.961 . S
C1023 H1039 0.961 . S
C1024 C1025 1.370 . S
C1024 C1026 1.363 . S
C1024 H1040 0.931 . S
C1025 C1024 1.370 . S
C1025 C1029 1.408 . S
C1026 C1024 1.363 . S
C1026 C1027 1.370 . S
C1026 C1030 1.524 . S
C1027 C1019 1.503 . S
C1027 C1026 1.370 . S
C1027 C1028 1.403 . S
C1028 C1027 1.403 . S
C1028 C1029 1.404 . S
C1028 C1031 1.539 . S
C1029 C1025 1.408 . S
C1029 C1028 1.404 . S
C1029 H1041 0.930 . S
C1030 C1026 1.524 . S
C1030 H1042 0.956 . S
C1030 H1043 0.961 . S
C1030 H1044 0.961 . S
C1031 C1028 1.539 . S
C1031 H1045 0.958 . S
C1031 H1046 0.961 . S
C1031 H1047 0.960 . S
H1032 C1016 0.931 . S
H1033 C1021 0.929 . S
H1034 C1022 0.960 . S
H1035 C1022 0.962 . S
H1036 C1022 0.960 . S
H1037 C1023 0.961 . S
H1038 C1023 0.961 . S
H1039 C1023 0.961 . S
H1040 C1024 0.931 . S
H1041 C1029 0.930 . S
H1042 C1030 0.956 . S
H1043 C1030 0.961 . S
H1044 C1030 0.961 . S
H1045 C1031 0.958 . S
H1046 C1031 0.961 . S
H1047 C1031 0.960 . S
C1048 C1049 1.391 . S
C1048 C1050 1.394 . S
C1048 H1064 0.931 . S
C1049 C1048 1.391 . S
C1049 C1053 1.376 . S
C1050 C1048 1.394 . S
C1050 C1051 1.369 . S
C1050 C1054 1.531 . S
C1051 C1050 1.369 . S
C1051 C1052 1.410 . S
C1051 C1059 1.503 . S
C1052 C1051 1.410 . S
C1052 C1053 1.392 . S
C1052 C1055 1.511 . S
C1053 C1049 1.376 . S
C1053 C1052 1.392 . S
C1053 H1065 0.929 . S
C1054 C1050 1.531 . S
C1054 H1066 0.960 . S
C1054 H1067 0.962 . S
C1054 H1068 0.960 . S
C1055 C1052 1.511 . S
C1055 H1069 0.961 . S
C1055 H1070 0.961 . S
C1055 H1071 0.961 . S
C1056 C1057 1.370 . S
C1056 C1058 1.363 . S
C1056 H1072 0.931 . S
C1057 C1056 1.370 . S
C1057 C1061 1.408 . S
C1058 C1056 1.363 . S
C1058 C1059 1.370 . S
C1058 C1062 1.524 . S
C1059 C1051 1.503 . S
C1059 C1058 1.370 . S
C1059 C1060 1.403 . S
C1060 C1059 1.403 . S
C1060 C1061 1.404 . S
C1060 C1063 1.539 . S
C1061 C1057 1.408 . S
C1061 C1060 1.404 . S
C1061 H1073 0.930 . S
C1062 C1058 1.524 . S
C1062 H1074 0.956 . S
C1062 H1075 0.961 . S
C1062 H1076 0.961 . S
C1063 C1060 1.539 . S
C1063 H1077 0.958 . S
C1063 H1078 0.961 . S
C1063 H1079 0.960 . S
H1064 C1048 0.931 . S
H1065 C1053 0.929 . S
H1066 C1054 0.960 . S
H1067 C1054 0.962 . S
H1068 C1054 0.960 . S
H1069 C1055 0.961 . S
H1070 C1055 0.961 . S
H1071 C1055 0.961 . S
H1072 C1056 0.931 . S
H1073 C1061 0.930 . S
H1074 C1062 0.956 . S
H1075 C1062 0.961 . S
H1076 C1062 0.961 . S
H1077 C1063 0.958 . S
H1078 C1063 0.961 . S
H1079 C1063 0.960 . S
C1080 C1081 1.391 . S
C1080 C1082 1.394 . S
C1080 H1096 0.931 . S
C1081 C1080 1.391 . S
C1081 C1085 1.376 . S
C1082 C1080 1.394 . S
C1082 C1083 1.369 . S
C1082 C1086 1.531 . S
C1083 C1082 1.369 . S
C1083 C1084 1.410 . S
C1083 C1091 1.503 . S
C1084 C1083 1.410 . S
C1084 C1085 1.392 . S
C1084 C1087 1.511 . S
C1085 C1081 1.376 . S
C1085 C1084 1.392 . S
C1085 H1097 0.929 . S
C1086 C1082 1.531 . S
C1086 H1098 0.960 . S
C1086 H1099 0.962 . S
C1086 H1100 0.960 . S
C1087 C1084 1.511 . S
C1087 H1101 0.961 . S
C1087 H1102 0.961 . S
C1087 H1103 0.961 . S
C1088 C1089 1.370 . S
C1088 C1090 1.363 . S
C1088 H1104 0.931 . S
C1089 C1088 1.370 . S
C1089 C1093 1.408 . S
C1090 C1088 1.363 . S
C1090 C1091 1.370 . S
C1090 C1094 1.524 . S
C1091 C1083 1.503 . S
C1091 C1090 1.370 . S
C1091 C1092 1.403 . S
C1092 C1091 1.403 . S
C1092 C1093 1.404 . S
C1092 C1095 1.539 . S
C1093 C1089 1.408 . S
C1093 C1092 1.404 . S
C1093 H1105 0.930 . S
C1094 C1090 1.524 . S
C1094 H1106 0.956 . S
C1094 H1107 0.961 . S
C1094 H1108 0.961 . S
C1095 C1092 1.539 . S
C1095 H1109 0.958 . S
C1095 H1110 0.961 . S
C1095 H1111 0.960 . S
H1096 C1080 0.931 . S
H1097 C1085 0.929 . S
H1098 C1086 0.960 . S
H1099 C1086 0.962 . S
H1100 C1086 0.960 . S
H1101 C1087 0.961 . S
H1102 C1087 0.961 . S
H1103 C1087 0.961 . S
H1104 C1088 0.931 . S
H1105 C1093 0.930 . S
H1106 C1094 0.956 . S
H1107 C1094 0.961 . S
H1108 C1094 0.961 . S
H1109 C1095 0.958 . S
H1110 C1095 0.961 . S
H1111 C1095 0.960 . S
C1112 C1113 1.391 . S
C1112 C1114 1.394 . S
C1112 H1128 0.931 . S
C1113 C1112 1.391 . S
C1113 C1117 1.376 . S
C1114 C1112 1.394 . S
C1114 C1115 1.369 . S
C1114 C1118 1.531 . S
C1115 C1114 1.369 . S
C1115 C1116 1.410 . S
C1115 C1123 1.503 . S
C1116 C1115 1.410 . S
C1116 C1117 1.392 . S
C1116 C1119 1.511 . S
C1117 C1113 1.376 . S
C1117 C1116 1.392 . S
C1117 H1129 0.929 . S
C1118 C1114 1.531 . S
C1118 H1130 0.960 . S
C1118 H1131 0.962 . S
C1118 H1132 0.960 . S
C1119 C1116 1.511 . S
C1119 H1133 0.961 . S
C1119 H1134 0.961 . S
C1119 H1135 0.961 . S
C1120 C1121 1.370 . S
C1120 C1122 1.363 . S
C1120 H1136 0.931 . S
C1121 C1120 1.370 . S
C1121 C1125 1.408 . S
C1122 C1120 1.363 . S
C1122 C1123 1.370 . S
C1122 C1126 1.524 . S
C1123 C1115 1.503 . S
C1123 C1122 1.370 . S
C1123 C1124 1.403 . S
C1124 C1123 1.403 . S
C1124 C1125 1.404 . S
C1124 C1127 1.539 . S
C1125 C1121 1.408 . S
C1125 C1124 1.404 . S
C1125 H1137 0.930 . S
C1126 C1122 1.524 . S
C1126 H1138 0.956 . S
C1126 H1139 0.961 . S
C1126 H1140 0.961 . S
C1127 C1124 1.539 . S
C1127 H1141 0.958 . S
C1127 H1142 0.961 . S
C1127 H1143 0.960 . S
H1128 C1112 0.931 . S
H1129 C1117 0.929 . S
H1130 C1118 0.960 . S
H1131 C1118 0.962 . S
H1132 C1118 0.960 . S
H1133 C1119 0.961 . S
H1134 C1119 0.961 . S
H1135 C1119 0.961 . S
H1136 C1120 0.931 . S
H1137 C1125 0.930 . S
H1138 C1126 0.956 . S
H1139 C1126 0.961 . S
H1140 C1126 0.961 . S
H1141 C1127 0.958 . S
H1142 C1127 0.961 . S
H1143 C1127 0.960 . S
C1144 C1145 1.391 . S
C1144 C1146 1.394 . S
C1144 H1160 0.931 . S
C1145 C1144 1.391 . S
C1145 C1149 1.376 . S
C1146 C1144 1.394 . S
C1146 C1147 1.369 . S
C1146 C1150 1.531 . S
C1147 C1146 1.369 . S
C1147 C1148 1.410 . S
C1147 C1155 1.503 . S
C1148 C1147 1.410 . S
C1148 C1149 1.392 . S
C1148 C1151 1.511 . S
C1149 C1145 1.376 . S
C1149 C1148 1.392 . S
C1149 H1161 0.929 . S
C1150 C1146 1.531 . S
C1150 H1162 0.960 . S
C1150 H1163 0.962 . S
C1150 H1164 0.960 . S
C1151 C1148 1.511 . S
C1151 H1165 0.961 . S
C1151 H1166 0.961 . S
C1151 H1167 0.961 . S
C1152 C1153 1.370 . S
C1152 C1154 1.363 . S
C1152 H1168 0.931 . S
C1153 C1152 1.370 . S
C1153 C1157 1.408 . S
C1154 C1152 1.363 . S
C1154 C1155 1.370 . S
C1154 C1158 1.524 . S
C1155 C1147 1.503 . S
C1155 C1154 1.370 . S
C1155 C1156 1.403 . S
C1156 C1155 1.403 . S
C1156 C1157 1.404 . S
C1156 C1159 1.539 . S
C1157 C1153 1.408 . S
C1157 C1156 1.404 . S
C1157 H1169 0.930 . S
C1158 C1154 1.524 . S
C1158 H1170 0.956 . S
C1158 H1171 0.961 . S
C1158 H1172 0.961 . S
C1159 C1156 1.539 . S
C1159 H1173 0.958 . S
C1159 H1174 0.961 . S
C1159 H1175 0.960 . S
H1160 C1144 0.931 . S
H1161 C1149 0.929 . S
H1162 C1150 0.960 . S
H1163 C1150 0.962 . S
H1164 C1150 0.960 . S
H1165 C1151 0.961 . S
H1166 C1151 0.961 . S
H1167 C1151 0.961 . S
H1168 C1152 0.931 . S
H1169 C1157 0.930 . S
H1170 C1158 0.956 . S
H1171 C1158 0.961 . S
H1172 C1158 0.961 . S
H1173 C1159 0.958 . S
H1174 C1159 0.961 . S
H1175 C1159 0.960 . S
C1176 C1177 1.391 . S
C1176 C1178 1.394 . S
C1176 H1192 0.931 . S
C1177 C1176 1.391 . S
C1177 C1181 1.376 . S
C1178 C1176 1.394 . S
C1178 C1179 1.369 . S
C1178 C1182 1.531 . S
C1179 C1178 1.369 . S
C1179 C1180 1.410 . S
C1179 C1187 1.503 1_455 S
C1180 C1179 1.410 . S
C1180 C1181 1.392 . S
C1180 C1183 1.511 . S
C1181 C1177 1.376 . S
C1181 C1180 1.392 . S
C1181 H1193 0.929 . S
C1182 C1178 1.531 . S
C1182 H1194 0.982 . S
C1182 H1195 0.962 . S
C1182 H1196 0.960 . S
C1183 C1180 1.511 . S
C1183 H1197 0.961 . S
C1183 H1198 0.961 1_455 S
C1183 H1199 0.961 . S
C1184 C1185 1.370 . S
C1184 C1186 1.363 . S
C1184 H1200 0.931 . S
C1185 C1184 1.370 . S
C1185 C1189 1.408 . S
C1186 C1184 1.363 . S
C1186 C1187 1.370 . S
C1186 C1190 1.524 . S
C1187 C1179 1.503 1_655 S
C1187 C1186 1.370 . S
C1187 C1188 1.403 . S
C1188 C1187 1.403 . S
C1188 C1189 1.404 . S
C1188 C1191 1.539 . S
C1189 C1185 1.408 . S
C1189 C1188 1.404 . S
C1189 H1201 0.930 . S
C1190 C1186 1.524 . S
C1190 H1202 0.956 1_655 S
C1190 H1203 0.961 1_655 S
C1190 H1204 0.961 . S
C1191 C1188 1.539 . S
C1191 H1205 0.958 . S
C1191 H1206 0.961 . S
C1191 H1207 0.960 . S
H1192 C1176 0.931 . S
H1193 C1181 0.929 . S
H1194 C1182 0.982 . S
H1195 C1182 0.962 . S
H1196 C1182 0.960 . S
H1197 C1183 0.961 . S
H1198 C1183 0.961 1_655 S
H1199 C1183 0.961 . S
H1200 C1184 0.931 . S
H1201 C1189 0.930 . S
H1202 C1190 0.956 1_455 S
H1203 C1190 0.961 1_455 S
H1204 C1190 0.961 . S
H1205 C1191 0.958 . S
H1206 C1191 0.961 . S
H1207 C1191 0.960 . S
C1208 C1209 1.391 . S
C1208 C1210 1.394 . S
C1208 H1224 0.931 . S
C1209 C1208 1.391 . S
C1209 C1213 1.376 . S
C1210 C1208 1.394 . S
C1210 C1211 1.369 . S
C1210 C1214 1.531 . S
C1211 C1210 1.369 . S
C1211 C1212 1.410 . S
C1211 C1219 1.503 1_565 S
C1212 C1211 1.410 . S
C1212 C1213 1.392 . S
C1212 C1215 1.511 . S
C1213 C1209 1.376 . S
C1213 C1212 1.392 . S
C1213 H1225 0.929 . S
C1214 C1210 1.531 . S
C1214 H1226 0.960 . S
C1214 H1227 0.962 . S
C1214 H1228 0.960 . S
C1215 C1212 1.511 . S
C1215 H1229 0.961 . S
C1215 H1230 0.961 1_565 S
C1215 H1231 0.961 . S
C1216 C1217 1.370 . S
C1216 C1218 1.363 . S
C1216 H1232 0.931 . S
C1217 C1216 1.370 . S
C1217 C1221 1.408 . S
C1218 C1216 1.363 . S
C1218 C1219 1.370 . S
C1218 C1222 1.524 . S
C1219 C1211 1.503 1_545 S
C1219 C1218 1.370 . S
C1219 C1220 1.403 . S
C1220 C1219 1.403 . S
C1220 C1221 1.404 . S
C1220 C1223 1.539 . S
C1221 C1217 1.408 . S
C1221 C1220 1.404 . S
C1221 H1233 0.930 . S
C1222 C1218 1.524 . S
C1222 H1234 0.956 . S
C1222 H1235 0.961 . S
C1222 H1236 0.961 . S
C1223 C1220 1.539 . S
C1223 H1237 0.958 . S
C1223 H1238 0.961 . S
C1223 H1239 0.960 1_545 S
H1224 C1208 0.931 . S
H1225 C1213 0.929 . S
H1226 C1214 0.960 . S
H1227 C1214 0.962 . S
H1228 C1214 0.960 . S
H1229 C1215 0.961 . S
H1230 C1215 0.961 1_545 S
H1231 C1215 0.961 . S
H1232 C1216 0.931 . S
H1233 C1221 0.930 . S
H1234 C1222 0.956 . S
H1235 C1222 0.961 . S
H1236 C1222 0.961 . S
H1237 C1223 0.958 . S
H1238 C1223 0.961 . S
H1239 C1223 0.960 1_565 S
C1240 C1241 1.391 . S
C1240 C1242 1.394 . S
C1240 H1256 0.931 . S
C1241 C1240 1.391 . S
C1241 C1245 1.376 . S
C1242 C1240 1.394 . S
C1242 C1243 1.369 . S
C1242 C1246 1.531 . S
C1243 C1242 1.369 . S
C1243 C1244 1.410 . S
C1243 C1251 1.503 . S
C1244 C1243 1.410 . S
C1244 C1245 1.392 . S
C1244 C1247 1.511 . S
C1245 C1241 1.376 . S
C1245 C1244 1.392 . S
C1245 H1257 0.929 . S
C1246 C1242 1.531 . S
C1246 H1258 0.960 . S
C1246 H1259 0.962 . S
C1246 H1260 0.960 . S
C1247 C1244 1.511 . S
C1247 H1261 0.961 . S
C1247 H1262 0.961 . S
C1247 H1263 0.961 . S
C1248 C1249 1.370 . S
C1248 C1250 1.363 . S
C1248 H1264 0.931 . S
C1249 C1248 1.370 . S
C1249 C1253 1.408 . S
C1250 C1248 1.363 . S
C1250 C1251 1.370 . S
C1250 C1254 1.524 . S
C1251 C1243 1.503 . S
C1251 C1250 1.370 . S
C1251 C1252 1.403 . S
C1252 C1251 1.403 . S
C1252 C1253 1.404 . S
C1252 C1255 1.539 . S
C1253 C1249 1.408 . S
C1253 C1252 1.404 . S
C1253 H1265 0.930 . S
C1254 C1250 1.524 . S
C1254 H1266 0.956 . S
C1254 H1267 0.961 . S
C1254 H1268 0.961 . S
C1255 C1252 1.539 . S
C1255 H1269 0.958 . S
C1255 H1270 0.961 . S
C1255 H1271 0.960 . S
H1256 C1240 0.931 . S
H1257 C1245 0.929 . S
H1258 C1246 0.960 . S
H1259 C1246 0.962 . S
H1260 C1246 0.960 . S
H1261 C1247 0.961 . S
H1262 C1247 0.961 . S
H1263 C1247 0.961 . S
H1264 C1248 0.931 . S
H1265 C1253 0.930 . S
H1266 C1254 0.956 . S
H1267 C1254 0.961 . S
H1268 C1254 0.961 . S
H1269 C1255 0.958 . S
H1270 C1255 0.961 . S
H1271 C1255 0.960 . S
C1272 C1273 1.391 . S
C1272 C1274 1.394 . S
C1272 H1288 0.931 . S
C1273 C1272 1.391 . S
C1273 C1277 1.376 . S
C1274 C1272 1.394 . S
C1274 C1275 1.369 . S
C1274 C1278 1.531 . S
C1275 C1274 1.369 . S
C1275 C1276 1.410 . S
C1275 C1283 1.503 1_455 S
C1276 C1275 1.410 . S
C1276 C1277 1.392 . S
C1276 C1279 1.511 . S
C1277 C1273 1.376 . S
C1277 C1276 1.392 . S
C1277 H1289 0.929 . S
C1278 C1274 1.531 . S
C1278 H1290 0.990 . S
C1278 H1291 0.962 . S
C1278 H1292 0.960 . S
C1279 C1276 1.511 . S
C1279 H1293 0.961 . S
C1279 H1294 0.961 1_455 S
C1279 H1295 0.961 . S
C1280 C1281 1.370 . S
C1280 C1282 1.363 . S
C1280 H1296 0.931 . S
C1281 C1280 1.370 . S
C1281 C1285 1.408 . S
C1282 C1280 1.363 . S
C1282 C1283 1.370 . S
C1282 C1286 1.524 . S
C1283 C1275 1.503 1_655 S
C1283 C1282 1.370 . S
C1283 C1284 1.403 . S
C1284 C1283 1.403 . S
C1284 C1285 1.404 . S
C1284 C1287 1.539 . S
C1285 C1281 1.408 . S
C1285 C1284 1.404 . S
C1285 H1297 0.930 . S
C1286 C1282 1.524 . S
C1286 H1298 0.956 1_655 S
C1286 H1299 0.961 1_655 S
C1286 H1300 0.961 . S
C1287 C1284 1.539 . S
C1287 H1301 0.958 . S
C1287 H1302 0.961 . S
C1287 H1303 0.960 . S
H1288 C1272 0.931 . S
H1289 C1277 0.929 . S
H1290 C1278 0.990 . S
H1291 C1278 0.962 . S
H1292 C1278 0.960 . S
H1293 C1279 0.961 . S
H1294 C1279 0.961 1_655 S
H1295 C1279 0.961 . S
H1296 C1280 0.931 . S
H1297 C1285 0.930 . S
H1298 C1286 0.956 1_455 S
H1299 C1286 0.961 1_455 S
H1300 C1286 0.961 . S
H1301 C1287 0.958 . S
H1302 C1287 0.961 . S
H1303 C1287 0.960 . S
C1304 C1305 1.391 . S
C1304 C1306 1.394 . S
C1304 H1320 0.931 . S
C1305 C1304 1.391 . S
C1305 C1309 1.376 . S
C1306 C1304 1.394 . S
C1306 C1307 1.369 . S
C1306 C1310 1.531 . S
C1307 C1306 1.369 . S
C1307 C1308 1.410 . S
C1307 C1315 1.503 1_565 S
C1308 C1307 1.410 . S
C1308 C1309 1.392 . S
C1308 C1311 1.511 . S
C1309 C1305 1.376 . S
C1309 C1308 1.392 . S
C1309 H1321 0.929 . S
C1310 C1306 1.531 . S
C1310 H1322 0.960 . S
C1310 H1323 0.962 . S
C1310 H1324 0.960 . S
C1311 C1308 1.511 . S
C1311 H1325 0.961 . S
C1311 H1326 0.961 1_565 S
C1311 H1327 0.961 . S
C1312 C1313 1.370 . S
C1312 C1314 1.363 . S
C1312 H1328 0.931 . S
C1313 C1312 1.370 . S
C1313 C1317 1.408 . S
C1314 C1312 1.363 . S
C1314 C1315 1.370 . S
C1314 C1318 1.524 . S
C1315 C1307 1.503 1_545 S
C1315 C1314 1.370 . S
C1315 C1316 1.403 . S
C1316 C1315 1.403 . S
C1316 C1317 1.404 . S
C1316 C1319 1.539 . S
C1317 C1313 1.408 . S
C1317 C1316 1.404 . S
C1317 H1329 0.930 . S
C1318 C1314 1.524 . S
C1318 H1330 0.956 . S
C1318 H1331 0.961 . S
C1318 H1332 0.961 . S
C1319 C1316 1.539 . S
C1319 H1333 0.958 . S
C1319 H1334 0.961 . S
C1319 H1335 0.960 1_545 S
H1320 C1304 0.931 . S
H1321 C1309 0.929 . S
H1322 C1310 0.960 . S
H1323 C1310 0.962 . S
H1324 C1310 0.960 . S
H1325 C1311 0.961 . S
H1326 C1311 0.961 1_545 S
H1327 C1311 0.961 . S
H1328 C1312 0.931 . S
H1329 C1317 0.930 . S
H1330 C1318 0.956 . S
H1331 C1318 0.961 . S
H1332 C1318 0.961 . S
H1333 C1319 0.958 . S
H1334 C1319 0.961 . S
H1335 C1319 0.960 1_565 S
C1336 C1337 1.391 . S
C1336 C1338 1.394 . S
C1336 H1352 0.931 . S
C1337 C1336 1.391 . S
C1337 C1341 1.376 . S
C1338 C1336 1.394 . S
C1338 C1339 1.369 . S
C1338 C1342 1.531 . S
C1339 C1338 1.369 . S
C1339 C1340 1.410 . S
C1339 C1347 1.503 . S
C1340 C1339 1.410 . S
C1340 C1341 1.392 . S
C1340 C1343 1.511 . S
C1341 C1337 1.376 . S
C1341 C1340 1.392 . S
C1341 H1353 0.929 . S
C1342 C1338 1.531 . S
C1342 H1354 0.960 . S
C1342 H1355 0.962 . S
C1342 H1356 0.960 . S
C1343 C1340 1.511 . S
C1343 H1357 0.961 . S
C1343 H1358 0.961 . S
C1343 H1359 0.961 . S
C1344 C1345 1.370 . S
C1344 C1346 1.363 . S
C1344 H1360 0.931 . S
C1345 C1344 1.370 . S
C1345 C1349 1.408 . S
C1346 C1344 1.363 . S
C1346 C1347 1.370 . S
C1346 C1350 1.524 . S
C1347 C1339 1.503 . S
C1347 C1346 1.370 . S
C1347 C1348 1.403 . S
C1348 C1347 1.403 . S
C1348 C1349 1.404 . S
C1348 C1351 1.539 . S
C1349 C1345 1.408 . S
C1349 C1348 1.404 . S
C1349 H1361 0.930 . S
C1350 C1346 1.524 . S
C1350 H1362 0.956 . S
C1350 H1363 0.961 . S
C1350 H1364 0.961 . S
C1351 C1348 1.539 . S
C1351 H1365 0.958 . S
C1351 H1366 0.961 . S
C1351 H1367 0.960 . S
H1352 C1336 0.931 . S
H1353 C1341 0.929 . S
H1354 C1342 0.960 . S
H1355 C1342 0.962 . S
H1356 C1342 0.960 . S
H1357 C1343 0.961 . S
H1358 C1343 0.961 . S
H1359 C1343 0.961 . S
H1360 C1344 0.931 . S
H1361 C1349 0.930 . S
H1362 C1350 0.956 . S
H1363 C1350 0.961 . S
H1364 C1350 0.961 . S
H1365 C1351 0.958 . S
H1366 C1351 0.961 . S
H1367 C1351 0.960 . S
C409 C305 1.483 . S
C417 C33 1.496 . S
C441 C67 1.487 . S
C449 C339 1.497 . S
C473 C373 1.484 . S
C481 C101 1.497 . S
C505 C407 1.497 . S
C513 C135 1.495 . S
C537 C169 1.497 . S
C545 C237 1.492 . S
C569 C271 1.485 . S
C577 C203 1.497 . S
C601 C360 1.482 . S
C609 C20 1.481 . S
C633 C394 1.478 . S
C641 C54 1.475 . S
C665 C88 1.484 . S
C673 C224 1.476 . S
C697 C258 1.477 . S
C705 C122 1.482 . S
C729 C292 1.471 . S
C737 C156 1.482 . S
C761 C326 1.485 . S
C769 C190 1.477 . S
C793 C5 1.502 . S
C801 C9 1.385 . S
C825 C39 1.502 . S
C833 C43 1.381 . S
C857 C73 1.488 . S
C865 C77 1.407 . S
C889 C107 1.501 . S
C897 C111 1.385 . S
C921 C145 1.392 . S
C929 C141 1.495 . S
C953 C175 1.488 . S
C961 C179 1.397 . S
C985 C213 1.395 . S
C993 C209 1.495 . S
C1017 C243 1.478 . S
C1025 C247 1.413 . S
C1049 C281 1.425 . S
C1057 C277 1.489 . S
C1081 C315 1.434 . S
C1089 C311 1.490 . S
C1113 C345 1.498 . S
C1121 C349 1.391 . S
C1145 C379 1.485 . S
C1153 C383 1.410 . S
C1177 C2 1.474 . S
C1185 C376 1.473 . S
C1209 C206 1.463 . S
C1217 C36 1.478 . S
C1241 C240 1.484 . S
C1249 C70 1.475 . S
C1273 C274 1.472 . S
C1281 C104 1.474 . S
C1305 C138 1.464 . S
C1313 C308 1.478 . S
C1337 C342 1.465 . S
C1345 C172 1.478 . S
