# Generated by pormake.
# Topology uov, (4)-cn, num edge types: 1
# Building blocks:
#     Node 0, Type 0, BuildingBlock: ICAMEG_clean_sbu_1, # of connection points: 4
#     Node 1, Type 0, BuildingBlock: ICAMEG_clean_sbu_1, # of connection points: 4
#     Node 2, Type 0, BuildingBlock: ICAMEG_clean_sbu_1, # of connection points: 4
#     Node 3, Type 0, BuildingBlock: ICAMEG_clean_sbu_1, # of connection points: 4
#     Node 4, Type 0, BuildingBlock: ICAMEG_clean_sbu_1, # of connection points: 4
#     Node 5, Type 0, BuildingBlock: ICAMEG_clean_sbu_1, # of connection points: 4
#     Node 6, Type 0, BuildingBlock: ICAMEG_clean_sbu_1, # of connection points: 4
#     Node 7, Type 0, BuildingBlock: ICAMEG_clean_sbu_1, # of connection points: 4
#     Edge 8, Type (0, 0), BuildingBlock: CIFDUS_clean_linker_0, # of connection points: 2
#     Edge 9, Type (0, 0), BuildingBlock: CIFDUS_clean_linker_0, # of connection points: 2
#     Edge 10, Type (0, 0), BuildingBlock: CIFDUS_clean_linker_0, # of connection points: 2
#     Edge 11, Type (0, 0), BuildingBlock: CIFDUS_clean_linker_0, # of connection points: 2
#     Edge 12, Type (0, 0), BuildingBlock: CIFDUS_clean_linker_0, # of connection points: 2
#     Edge 13, Type (0, 0), BuildingBlock: CIFDUS_clean_linker_0, # of connection points: 2
#     Edge 14, Type (0, 0), BuildingBlock: CIFDUS_clean_linker_0, # of connection points: 2
#     Edge 15, Type (0, 0), BuildingBlock: CIFDUS_clean_linker_0, # of connection points: 2
#     Edge 16, Type (0, 0), BuildingBlock: CIFDUS_clean_linker_0, # of connection points: 2
#     Edge 17, Type (0, 0), BuildingBlock: CIFDUS_clean_linker_0, # of connection points: 2
#     Edge 18, Type (0, 0), BuildingBlock: CIFDUS_clean_linker_0, # of connection points: 2
#     Edge 19, Type (0, 0), BuildingBlock: CIFDUS_clean_linker_0, # of connection points: 2
#     Edge 20, Type (0, 0), BuildingBlock: CIFDUS_clean_linker_0, # of connection points: 2
#     Edge 21, Type (0, 0), BuildingBlock: CIFDUS_clean_linker_0, # of connection points: 2
#     Edge 22, Type (0, 0), BuildingBlock: CIFDUS_clean_linker_0, # of connection points: 2
#     Edge 23, Type (0, 0), BuildingBlock: CIFDUS_clean_linker_0, # of connection points: 2
# Relax obj value: 0.048
# Max RMSD: 0.046
# Mean RMSD: 0.046
data_MOF--net-uov--node1-ICAMEG_clean_sbu_1--edge1-CIFDUS_clean_linker_0
_symmetry_space_group_name_H-M    P1
_symmetry_Int_Tables_number       1
_symmetry_cell_setting            triclinic
loop_
_symmetry_equiv_pos_as_xyz
'x, y, z'
_cell_length_a     28.139893
_cell_length_b     28.229523
_cell_length_c     41.625597
_cell_angle_alpha  89.986463
_cell_angle_beta   90.022467
_cell_angle_gamma 90.196786
loop_
_atom_site_label
_atom_site_type_symbol
_atom_site_fract_x
_atom_site_fract_y
_atom_site_fract_z
_atom_type_partial_charge
Co0 Co 0.07447 0.20347 0.60719 0.0
Co1 Co 0.10995 0.29918 0.56391 0.0
O2 O 0.09165 0.27041 0.605 0.0
C3 C 0.14402 0.21059 0.6624 0.0
O4 O 0.17649 0.22943 0.64364 0.0
C5 C 0.04237 0.37079 0.58893 0.0
O6 O 0.00996 0.33737 0.59117 0.0
O7 O 0.04698 0.28147 0.54576 0.0
O8 O 0.04232 0.20647 0.56377 0.0
H9 H 0.12193 0.30826 0.4436 0.0
H10 H 0.04568 0.26949 0.65884 0.0
O11 O 0.10346 0.19915 0.65116 0.0
H12 H 0.89711 0.19409 0.62179 0.0
H13 H 0.04114 0.05033 0.66406 0.0
H14 H 0.0775 0.1255 0.56009 0.0
H15 H 0.974 0.17259 0.5975 0.0
H16 H 0.04119 0.13723 0.65881 0.0
O17 O 0.08412 0.36109 0.57925 0.0
H18 H 0.10178 0.27102 0.49544 0.0
H19 H 0.15261 0.39215 0.54547 0.0
H20 H 0.07669 0.03863 0.56404 0.0
H21 H 0.96955 0.29197 0.68391 0.0
H22 H 0.06189 0.00062 0.61658 0.0
H23 H 0.89457 0.25418 0.66534 0.0
O24 O 0.13611 0.18648 0.58729 0.0
H25 H 0.21925 0.36262 0.64921 0.0
H26 H 0.21042 0.28937 0.54181 0.0
H27 H 0.28876 0.3081 0.56526 0.0
H28 H 0.29351 0.34509 0.61931 0.0
H29 H 0.14164 0.34293 0.62496 0.0
H30 H 0.17296 0.43087 0.49414 0.0
H31 H 0.15781 0.38877 0.44273 0.0
O32 O 0.13687 0.23826 0.54695 0.0
C33 C 0.02812 0.24033 0.54577 0.0
C34 C 0.1289 0.32688 0.46585 0.0
C35 C 0.15748 0.39572 0.49421 0.0
N36 N 0.12654 0.32913 0.52347 0.0
C37 C 0.11771 0.3059 0.49529 0.0
C38 C 0.14583 0.37363 0.5232 0.0
C39 C 0.14898 0.37207 0.46537 0.0
C40 C 0.01319 0.25281 0.65074 0.0
N41 N 0.01425 0.21975 0.6268 0.0
C42 C 0.9702 0.2657 0.66498 0.0
C43 C 0.92814 0.24449 0.65455 0.0
C44 C 0.92954 0.21076 0.63012 0.0
C45 C 0.97318 0.19875 0.61645 0.0
C46 C 0.0484 0.06651 0.64101 0.0
C47 C 0.06834 0.10923 0.58275 0.0
C48 C 0.0485 0.11574 0.63793 0.0
N49 N 0.05996 0.13645 0.60929 0.0
C50 C 0.06835 0.05997 0.58488 0.0
C51 C 0.05947 0.03863 0.6144 0.0
C52 C 0.15002 0.19932 0.55959 0.0
C53 C 0.21764 0.34663 0.6256 0.0
C54 C 0.21219 0.30532 0.56539 0.0
C55 C 0.25665 0.31594 0.57851 0.0
C56 C 0.25929 0.33672 0.60883 0.0
N57 N 0.17149 0.31524 0.58196 0.0
C58 C 0.1738 0.33555 0.61171 0.0
Co59 Co 0.22085 0.92405 0.40646 0.0
Co60 Co 0.31272 0.8888 0.45582 0.0
O61 O 0.28625 0.90423 0.41366 0.0
C62 C 0.22823 0.84187 0.36081 0.0
O63 O 0.24387 0.81469 0.38412 0.0
C64 C 0.37803 0.96374 0.43268 0.0
O65 O 0.33999 0.98933 0.42723 0.0
O66 O 0.28842 0.94887 0.47464 0.0
O67 O 0.22253 0.96496 0.44583 0.0
H68 H 0.31248 0.87254 0.5761 0.0
H69 H 0.29376 0.93498 0.35555 0.0
O70 O 0.21811 0.88506 0.36624 0.0
H71 H 0.22952 0.09523 0.37304 0.0
H72 H 0.07957 0.96365 0.33769 0.0
H73 H 0.1365 0.93561 0.44811 0.0
H74 H 0.19825 0.02699 0.40356 0.0
H75 H 0.16482 0.9513 0.34843 0.0
O76 O 0.37377 0.92156 0.44337 0.0
H77 H 0.27796 0.89121 0.52315 0.0
H78 H 0.40757 0.85476 0.47738 0.0
H79 H 0.05097 0.94805 0.43845 0.0
H80 H 0.32576 0.00208 0.32421 0.0
H81 H 0.02201 0.95973 0.38272 0.0
H82 H 0.29372 0.08293 0.33298 0.0
O83 O 0.19602 0.86977 0.43229 0.0
H84 H 0.39394 0.78869 0.3727 0.0
H85 H 0.3079 0.78753 0.4759 0.0
H86 H 0.33501 0.71203 0.45247 0.0
H87 H 0.37844 0.71234 0.40053 0.0
H88 H 0.36587 0.86332 0.39687 0.0
H89 H 0.44369 0.83601 0.52985 0.0
H90 H 0.39596 0.84469 0.57968 0.0
O91 O 0.25221 0.85681 0.46955 0.0
C92 C 0.251 0.97296 0.46916 0.0
C93 C 0.33358 0.86843 0.55456 0.0
C94 C 0.40724 0.84799 0.5286 0.0
N95 N 0.34052 0.87362 0.4972 0.0
C96 C 0.31416 0.87881 0.5245 0.0
C97 C 0.38662 0.85872 0.49897 0.0
C98 C 0.38044 0.85286 0.55655 0.0
C99 C 0.27953 0.97004 0.35939 0.0
N100 N 0.24439 0.97716 0.38149 0.0
C101 C 0.29783 0.0079 0.34162 0.0
C102 C 0.27986 0.05326 0.34657 0.0
C103 C 0.24387 0.0602 0.36906 0.0
C104 C 0.22646 0.02149 0.38638 0.0
C105 C 0.09185 0.95795 0.36203 0.0
C106 C 0.12427 0.94253 0.42395 0.0
C107 C 0.14005 0.95098 0.36827 0.0
N108 N 0.15557 0.94261 0.39887 0.0
C109 C 0.07579 0.94927 0.41861 0.0
C110 C 0.05955 0.95627 0.38736 0.0
C111 C 0.21036 0.85071 0.45833 0.0
C112 C 0.37517 0.78811 0.39539 0.0
C113 C 0.32666 0.78791 0.45324 0.0
C114 C 0.34202 0.74508 0.44013 0.0
C115 C 0.36641 0.74528 0.41099 0.0
N116 N 0.33553 0.82977 0.43783 0.0
C117 C 0.35935 0.83026 0.40924 0.0
Co118 Co 0.93541 0.78999 0.61633 0.0
Co119 Co 0.88385 0.71405 0.56108 0.0
O120 O 0.90257 0.73132 0.60489 0.0
C121 C 0.86085 0.77675 0.66945 0.0
O122 O 0.84366 0.73723 0.65755 0.0
C123 C 0.94337 0.63421 0.58233 0.0
O124 O 0.97516 0.66587 0.591 0.0
O125 O 0.94818 0.72984 0.5438 0.0
O126 O 0.97738 0.78515 0.57744 0.0
H127 H 0.86976 0.73559 0.44157 0.0
H128 H 0.92981 0.70849 0.66214 0.0
O129 O 0.89502 0.79851 0.65574 0.0
H130 H 0.1005 0.74341 0.65005 0.0
H131 H 1.00039 0.90773 0.69511 0.0
H132 H 0.96421 0.87684 0.581 0.0
H133 H 0.04078 0.79105 0.62135 0.0
H134 H 0.97253 0.82915 0.67765 0.0
O135 O 0.90447 0.64735 0.56954 0.0
H136 H 0.89309 0.75808 0.49661 0.0
H137 H 0.83457 0.63007 0.53301 0.0
H138 H 0.99112 0.95641 0.59754 0.0
H139 H 0.98814 0.66049 0.69161 0.0
H140 H 0.00778 0.97233 0.65543 0.0
H141 H 0.07429 0.67767 0.68561 0.0
O142 O 0.88838 0.82815 0.59153 0.0
H143 H 0.76725 0.63633 0.63609 0.0
H144 H 0.78542 0.74032 0.54165 0.0
H145 H 0.70518 0.72221 0.56212 0.0
H146 H 0.6957 0.66973 0.60961 0.0
H147 H 0.84687 0.65589 0.61512 0.0
H148 H 0.81092 0.60595 0.47833 0.0
H149 H 0.82836 0.65897 0.43215 0.0
O150 O 0.86338 0.78027 0.55181 0.0
C151 C 0.97969 0.76023 0.55186 0.0
C152 C 0.86186 0.71222 0.46149 0.0
C153 C 0.82889 0.63944 0.48213 0.0
N154 N 0.86498 0.6956 0.51801 0.0
C155 C 0.8749 0.72483 0.49272 0.0
C156 C 0.84247 0.65325 0.51303 0.0
C157 C 0.83867 0.66921 0.45623 0.0
C158 C 0.96701 0.71686 0.65975 0.0
N159 N 0.98164 0.7531 0.64034 0.0
C160 C 1.0 0.68925 0.67636 0.0
C161 C 0.04833 0.69882 0.67292 0.0
C162 C 0.06306 0.73567 0.65297 0.0
C163 C 0.02905 0.76247 0.63672 0.0
C164 C 0.99295 0.90116 0.66998 0.0
C165 C 0.97285 0.88333 0.60593 0.0
C166 C 0.97742 0.85668 0.65989 0.0
N167 N 0.96685 0.84846 0.6283 0.0
C168 C 0.98789 0.92846 0.61521 0.0
C169 C 0.9974 0.9374 0.64755 0.0
C170 C 0.86566 0.82067 0.56547 0.0
C171 C 0.77091 0.65919 0.61535 0.0
C172 C 0.78164 0.71781 0.56252 0.0
C173 C 0.73608 0.7075 0.5739 0.0
C174 C 0.73079 0.678 0.60051 0.0
N175 N 0.82084 0.69925 0.57721 0.0
C176 C 0.81591 0.67024 0.60329 0.0
Co177 Co 0.79972 0.0679 0.37758 0.0
Co178 Co 0.72465 0.11039 0.43667 0.0
O179 O 0.73942 0.09411 0.39206 0.0
C180 C 0.79104 0.15425 0.33615 0.0
O181 O 0.78135 0.17971 0.36171 0.0
C182 C 0.65215 0.03872 0.42004 0.0
O183 O 0.68768 0.01331 0.40923 0.0
O184 O 0.75039 0.0492 0.45305 0.0
O185 O 0.80192 0.02421 0.41539 0.0
H186 H 0.75736 0.12818 0.55478 0.0
H187 H 0.71626 0.07003 0.33417 0.0
O188 O 0.79869 0.10998 0.33879 0.0
H189 H 0.76238 0.90194 0.34089 0.0
H190 H 0.91723 0.01112 0.29493 0.0
H191 H 0.89033 0.04528 0.40965 0.0
H192 H 0.80818 0.96326 0.36977 0.0
H193 H 0.83864 0.03775 0.31391 0.0
O194 O 0.66 0.07997 0.43152 0.0
H195 H 0.77674 0.10784 0.49869 0.0
H196 H 0.63803 0.14748 0.469 0.0
H197 H 0.96957 0.02082 0.39171 0.0
H198 H 0.66974 0.00999 0.30457 0.0
H199 H 0.98358 0.00276 0.33388 0.0
H200 H 0.69263 0.92523 0.30795 0.0
O201 O 0.83604 0.11671 0.40212 0.0
H202 H 0.62765 0.21388 0.36376 0.0
H203 H 0.73867 0.21135 0.45545 0.0
H204 H 0.70908 0.28793 0.43523 0.0
H205 H 0.65309 0.28949 0.38909 0.0
H206 H 0.65841 0.13811 0.3846 0.0
H207 H 0.617 0.16788 0.52484 0.0
H208 H 0.67697 0.15843 0.56815 0.0
O209 O 0.78902 0.13993 0.44278 0.0
C210 C 0.78124 0.02008 0.44254 0.0
C211 C 0.73097 0.13259 0.53611 0.0
C212 C 0.65217 0.15481 0.5193 0.0
N213 N 0.70866 0.1268 0.48058 0.0
C214 C 0.74177 0.12125 0.50429 0.0
C215 C 0.66424 0.1431 0.48775 0.0
C216 C 0.68584 0.14951 0.5436 0.0
C217 C 0.72656 0.03324 0.33561 0.0
N218 N 0.76474 0.02009 0.35379 0.0
C219 C 0.70003 0.9994 0.31886 0.0
C220 C 0.71287 0.95184 0.32079 0.0
C221 C 0.75196 0.93874 0.3393 0.0
C222 C 0.77762 0.97356 0.35573 0.0
C223 C 0.91159 0.01843 0.32017 0.0
C224 C 0.89596 0.03748 0.38452 0.0
C225 C 0.86716 0.0334 0.33106 0.0
N226 N 0.85986 0.04268 0.3629 0.0
C227 C 0.941 0.02345 0.37445 0.0
C228 C 0.94879 0.01368 0.34205 0.0
C229 C 0.82881 0.1399 0.42797 0.0
C230 C 0.65193 0.21365 0.38393 0.0
C231 C 0.71442 0.21176 0.43531 0.0
C232 C 0.69771 0.25522 0.42401 0.0
C233 C 0.66627 0.25607 0.39813 0.0
N234 N 0.70008 0.17033 0.4213 0.0
C235 C 0.66933 0.17086 0.3959 0.0
Co236 Co 0.92463 0.21177 0.10105 0.0
Co237 Co 0.88785 0.30433 0.05184 0.0
O238 O 0.90344 0.27746 0.09452 0.0
C239 C 0.85436 0.22886 0.15615 0.0
O240 O 0.84505 0.27255 0.14753 0.0
C241 C 0.94429 0.38055 0.08678 0.0
O242 O 0.94925 0.35409 0.11242 0.0
O243 O 0.94879 0.28128 0.03349 0.0
O244 O 0.96685 0.21639 0.06238 0.0
H245 H 0.87245 0.30135 0.93149 0.0
H246 H 0.93497 0.28134 0.15493 0.0
O247 O 0.88342 0.20356 0.14017 0.0
H248 H 0.09551 0.21811 0.13628 0.0
H249 H 0.95996 0.06622 0.16607 0.0
H250 H 0.93899 0.13096 0.05699 0.0
H251 H 0.02778 0.19035 0.10376 0.0
H252 H 0.95083 0.15214 0.15774 0.0
O253 O 0.92063 0.36604 0.06253 0.0
H254 H 0.89072 0.26822 0.98488 0.0
H255 H 0.853 0.39827 0.02912 0.0
H256 H 0.94874 0.0449 0.06422 0.0
H257 H 1.00135 0.30937 0.18841 0.0
H258 H 0.95617 0.01192 0.11918 0.0
H259 H 0.0825 0.27792 0.17911 0.0
O260 O 0.87139 0.18744 0.07454 0.0
H261 H 0.78268 0.38558 0.13281 0.0
H262 H 0.78731 0.29868 0.03018 0.0
H263 H 0.71043 0.32584 0.05146 0.0
H264 H 0.70775 0.36987 0.10308 0.0
H265 H 0.85852 0.35721 0.11096 0.0
H266 H 0.83462 0.43297 0.9762 0.0
H267 H 0.84417 0.38434 0.92691 0.0
O268 O 0.85616 0.24391 0.03826 0.0
C269 C 0.97422 0.24495 0.03912 0.0
C270 C 0.86803 0.32287 0.95279 0.0
C271 C 0.84686 0.39674 0.97788 0.0
N272 N 0.87269 0.33112 0.01011 0.0
C273 C 0.87824 0.30425 0.9831 0.0
C274 C 0.85743 0.37693 0.00778 0.0
C275 C 0.85221 0.36944 0.95024 0.0
C276 C 0.96983 0.26695 0.15092 0.0
N277 N 0.97722 0.23415 0.12736 0.0
C278 C 0.00747 0.28321 0.16988 0.0
C279 C 0.05301 0.26563 0.16461 0.0
C280 C 0.06034 0.23214 0.14057 0.0
C281 C 0.02184 0.21673 0.1221 0.0
C282 C 0.95607 0.08021 0.14201 0.0
C283 C 0.94472 0.11705 0.08088 0.0
C284 C 0.95099 0.12884 0.13713 0.0
N285 N 0.94417 0.14654 0.10691 0.0
C286 C 0.9498 0.06825 0.08483 0.0
C287 C 0.95448 0.04977 0.11568 0.0
C288 C 0.85101 0.20203 0.04916 0.0
C289 C 0.7834 0.36667 0.1102 0.0
C290 C 0.78654 0.3176 0.05274 0.0
C291 C 0.74284 0.33302 0.06462 0.0
C292 C 0.74136 0.35775 0.09355 0.0
N293 N 0.82774 0.32671 0.0691 0.0
C294 C 0.82645 0.35075 0.09755 0.0
Co295 Co 0.2042 0.07308 0.88935 0.0
Co296 Co 0.29538 0.09502 0.94329 0.0
O297 O 0.27095 0.08696 0.89938 0.0
C298 C 0.23425 0.14713 0.83979 0.0
O299 O 0.27432 0.15611 0.8547 0.0
C300 C 0.35974 0.0197 0.91902 0.0
O301 O 0.32202 0.99423 0.91196 0.0
O302 O 0.26587 0.03423 0.95731 0.0
O303 O 0.20049 0.02752 0.92639 0.0
H304 H 0.28592 0.09481 0.0639 0.0
H305 H 0.28136 0.0607 0.84115 0.0
O306 O 0.20479 0.11716 0.85123 0.0
H307 H 0.19851 0.90676 0.84591 0.0
H308 H 0.06351 0.05268 0.81602 0.0
H309 H 0.11691 0.06353 0.92865 0.0
H310 H 0.17163 0.97374 0.87918 0.0
H311 H 0.14889 0.05634 0.82903 0.0
O312 O 0.35518 0.061 0.93095 0.0
H313 H 0.25479 0.086 0.00885 0.0
H314 H 0.39045 0.11979 0.97031 0.0
H315 H 0.03111 0.05942 0.91668 0.0
H316 H 0.30909 0.99496 0.8072 0.0
H317 H 0.004 0.05628 0.85992 0.0
H318 H 0.26766 0.9172 0.80949 0.0
O319 O 0.18255 0.12614 0.91732 0.0
H320 H 0.3951 0.20003 0.87257 0.0
H321 H 0.2939 0.19354 0.96916 0.0
H322 H 0.32962 0.26965 0.95276 0.0
H323 H 0.3808 0.2732 0.9042 0.0
H324 H 0.35799 0.12482 0.8895 0.0
H325 H 0.42315 0.12871 0.02496 0.0
H326 H 0.37071 0.11634 0.07223 0.0
O327 O 0.23643 0.12871 0.95699 0.0
C328 C 0.22681 0.01407 0.94971 0.0
C329 C 0.3091 0.10044 0.0435 0.0
C330 C 0.38612 0.11941 0.02164 0.0
N331 N 0.32063 0.10269 0.98638 0.0
C332 C 0.29164 0.0956 0.01226 0.0
C333 C 0.36741 0.11423 0.99075 0.0
C334 C 0.35668 0.11247 0.04816 0.0
C335 C 0.26283 0.02721 0.84213 0.0
N336 N 0.22474 0.02122 0.86209 0.0
C337 C 0.27884 0.98999 0.82291 0.0
C338 C 0.25563 0.94636 0.82423 0.0
C339 C 0.21686 0.94046 0.84468 0.0
C340 C 0.2019 0.97847 0.86356 0.0
C341 C 0.07493 0.0547 0.84082 0.0
C342 C 0.10539 0.06038 0.90396 0.0
C343 C 0.12324 0.05669 0.84835 0.0
N344 N 0.1379 0.06039 0.87958 0.0
C345 C 0.05676 0.05844 0.89733 0.0
C346 C 0.04156 0.05644 0.86549 0.0
C347 C 0.19651 0.14028 0.94485 0.0
C348 C 0.37289 0.19894 0.89378 0.0
C349 C 0.31564 0.19487 0.94778 0.0
C350 C 0.33601 0.23803 0.93872 0.0
C351 C 0.36479 0.23999 0.91151 0.0
N352 N 0.32367 0.15477 0.93022 0.0
C353 C 0.35195 0.1564 0.90357 0.0
Co354 Co 0.06618 0.80488 0.13158 0.0
Co355 Co 0.09827 0.7198 0.07567 0.0
O356 O 0.08857 0.74131 0.12026 0.0
C357 C 0.14319 0.78393 0.1819 0.0
O358 O 0.15288 0.74167 0.17059 0.0
C359 C 0.03414 0.64759 0.10387 0.0
O360 O 0.0112 0.68226 0.11792 0.0
O361 O 0.03409 0.74199 0.06259 0.0
O362 O 0.01909 0.80357 0.09524 0.0
H363 H 0.09484 0.73451 0.95534 0.0
H364 H 0.06489 0.72564 0.17932 0.0
O365 O 0.11176 0.80991 0.1687 0.0
H366 H 0.90114 0.78656 0.17666 0.0
H367 H 0.02539 0.93765 0.20726 0.0
H368 H 0.04654 0.89138 0.09393 0.0
H369 H 0.96342 0.82273 0.14296 0.0
H370 H 0.04265 0.85476 0.19289 0.0
O371 O 0.07044 0.65625 0.08655 0.0
H372 H 0.08338 0.76173 0.01108 0.0
H373 H 0.13308 0.62985 0.04657 0.0
H374 H 0.03139 0.97488 0.10729 0.0
H375 H 0.00414 0.68907 0.21384 0.0
H376 H 0.02073 0.99857 0.16442 0.0
H377 H 0.9214 0.71932 0.21258 0.0
O378 O 0.11541 0.83423 0.10346 0.0
H379 H 0.21471 0.63264 0.14532 0.0
H380 H 0.19593 0.73276 0.04908 0.0
H381 H 0.27594 0.7062 0.06501 0.0
H382 H 0.2857 0.65565 0.1134 0.0
H383 H 0.1354 0.66047 0.12873 0.0
H384 H 0.14471 0.601 0.99122 0.0
H385 H 0.12572 0.65356 0.94513 0.0
O386 O 0.12555 0.78268 0.06302 0.0
C387 C 0.00882 0.77708 0.07131 0.0
C388 C 0.10343 0.71133 0.97522 0.0
C389 C 0.13136 0.63639 0.99535 0.0
N390 N 0.10798 0.69763 0.03205 0.0
C391 C 0.09717 0.72663 0.00683 0.0
C392 C 0.12463 0.6529 0.02664 0.0
C393 C 0.1207 0.6659 0.96951 0.0
C394 C 0.02939 0.73971 0.17897 0.0
N395 N 0.01805 0.77672 0.15927 0.0
C396 C 0.99492 0.71853 0.19843 0.0
C397 C 0.94848 0.73543 0.19766 0.0
C398 C 0.93709 0.77309 0.17748 0.0
C399 C 0.97248 0.79332 0.15833 0.0
C400 C 0.02976 0.92776 0.18232 0.0
C401 C 0.04142 0.90128 0.11877 0.0
C402 C 0.03929 0.88084 0.17401 0.0
N403 N 0.04524 0.8682 0.14255 0.0
C404 C 0.03285 0.94866 0.12622 0.0
C405 C 0.02703 0.96191 0.15824 0.0
C406 C 0.13208 0.82307 0.07605 0.0
C407 C 0.21092 0.65459 0.12416 0.0
C408 C 0.19991 0.71108 0.07031 0.0
C409 C 0.24529 0.69598 0.07913 0.0
C410 C 0.25074 0.66758 0.10627 0.0
N411 N 0.16103 0.69819 0.08799 0.0
C412 C 0.16608 0.67031 0.11459 0.0
Co413 Co 0.79257 0.92483 0.89434 0.0
Co414 Co 0.70466 0.8833 0.94494 0.0
O415 O 0.72874 0.90076 0.90244 0.0
C416 C 0.78559 0.84271 0.84913 0.0
O417 O 0.76947 0.81626 0.87271 0.0
C418 C 0.63534 0.95339 0.92172 0.0
O419 O 0.6722 0.98034 0.91518 0.0
O420 O 0.72595 0.94475 0.96358 0.0
O421 O 0.78982 0.96538 0.93392 0.0
H422 H 0.70969 0.86622 0.06512 0.0
H423 H 0.71822 0.93129 0.84408 0.0
O424 O 0.79623 0.88599 0.85412 0.0
H425 H 0.77221 0.09549 0.86228 0.0
H426 H 0.92944 0.97327 0.82387 0.0
H427 H 0.87729 0.94162 0.93492 0.0
H428 H 0.80833 0.02923 0.89213 0.0
H429 H 0.84527 0.95583 0.83566 0.0
O430 O 0.64155 0.91208 0.93338 0.0
H431 H 0.74126 0.88757 0.01178 0.0
H432 H 0.61266 0.84306 0.96766 0.0
H433 H 0.9617 0.95937 0.92423 0.0
H434 H 0.68142 0.9964 0.81342 0.0
H435 H 0.98851 0.9727 0.86819 0.0
H436 H 0.7083 0.07922 0.82255 0.0
O437 O 0.8211 0.872 0.91941 0.0
H438 H 0.62656 0.77848 0.86275 0.0
H439 H 0.71626 0.78243 0.96453 0.0
H440 H 0.69293 0.70543 0.94125 0.0
H441 H 0.64768 0.70315 0.89001 0.0
H442 H 0.65097 0.85467 0.88674 0.0
H443 H 0.57941 0.82155 0.02054 0.0
H444 H 0.62814 0.83291 0.06974 0.0
O445 O 0.76738 0.85529 0.95775 0.0
C446 C 0.76165 0.97133 0.95765 0.0
C447 C 0.68817 0.8609 0.04386 0.0
C448 C 0.61504 0.8359 0.01884 0.0
N449 N 0.6791 0.86609 0.98662 0.0
C450 C 0.70596 0.87278 0.01358 0.0
C451 C 0.63403 0.84821 0.98897 0.0
C452 C 0.6424 0.84227 0.04643 0.0
C453 C 0.73029 0.96721 0.84801 0.0
N454 N 0.76528 0.9765 0.8699 0.0
C455 C 0.70925 0.00394 0.83065 0.0
C456 C 0.72432 0.0504 0.83581 0.0
C457 C 0.76015 0.05956 0.85811 0.0
C458 C 0.78035 0.02194 0.87502 0.0
C459 C 0.9182 0.96679 0.84834 0.0
C460 C 0.88842 0.94935 0.91062 0.0
C461 C 0.8706 0.95696 0.85517 0.0
N462 N 0.85644 0.94755 0.88594 0.0
C463 C 0.9363 0.95905 0.90469 0.0
C464 C 0.95129 0.96697 0.87326 0.0
C465 C 0.80884 0.85176 0.94551 0.0
C466 C 0.64615 0.77901 0.88513 0.0
C467 C 0.69669 0.78171 0.94219 0.0
C468 C 0.68349 0.73801 0.92915 0.0
C469 C 0.65807 0.73676 0.90042 0.0
N470 N 0.68477 0.82298 0.92708 0.0
C471 C 0.65989 0.82205 0.8989 0.0
H472 H 0.02742 0.59274 0.5978 0.0
H473 H 0.88086 0.56067 0.57583 0.0
H474 H 0.89752 0.47602 0.57926 0.0
H475 H 0.95488 0.41097 0.5848 0.0
H476 H 0.10224 0.44339 0.60359 0.0
H477 H 0.08399 0.52783 0.60548 0.0
C478 C 0.99903 0.56726 0.594 0.0
C479 C 0.95308 0.58306 0.58634 0.0
C480 C 0.009 0.51859 0.59543 0.0
C481 C 0.9167 0.5495 0.58149 0.0
C482 C 0.92614 0.50104 0.5835 0.0
C483 C 0.9828 0.4365 0.58983 0.0
C484 C 0.0298 0.421 0.59402 0.0
C485 C 0.97232 0.48515 0.58996 0.0
C486 C 0.06577 0.4545 0.60015 0.0
C487 C 0.0554 0.50279 0.60117 0.0
H488 H 0.56724 0.08509 0.42394 0.0
H489 H 0.62819 0.94539 0.4172 0.0
H490 H 0.54918 0.90984 0.42028 0.0
H491 H 0.46263 0.91805 0.42627 0.0
H492 H 0.40096 0.05765 0.42992 0.0
H493 H 0.47999 0.0934 0.42649 0.0
C494 C 0.56315 0.04688 0.42309 0.0
C495 C 0.60364 0.01799 0.42057 0.0
C496 C 0.51738 0.02656 0.42432 0.0
C497 C 0.59769 0.96853 0.41911 0.0
C498 C 0.55247 0.9481 0.42094 0.0
C499 C 0.4665 0.9563 0.42621 0.0
C500 C 0.42592 0.98507 0.42857 0.0
C501 C 0.51206 0.9767 0.42376 0.0
C502 C 0.43154 0.03461 0.42808 0.0
C503 C 0.47679 0.05513 0.42624 0.0
H504 H 0.94661 0.44592 0.13473 0.0
H505 H 0.98802 0.42244 0.03633 0.0
H506 H 0.02211 0.50216 0.03357 0.0
H507 H 0.03847 0.57914 0.05867 0.0
H508 H 0.98951 0.60644 0.155 0.0
H509 H 0.95994 0.52483 0.15918 0.0
C510 C 0.96342 0.45834 0.11282 0.0
C511 C 0.96534 0.42844 0.08586 0.0
C512 C 0.98134 0.50489 0.11105 0.0
C513 C 0.98628 0.44499 0.05736 0.0
C514 C 0.00576 0.49048 0.05579 0.0
C515 C 0.02155 0.56707 0.08064 0.0
C516 C 0.01649 0.59843 0.10661 0.0
C517 C 0.00328 0.5208 0.08241 0.0
C518 C 0.99376 0.58278 0.13472 0.0
C519 C 0.97694 0.53617 0.13711 0.0
H520 H 0.44325 0.06756 0.91504 0.0
H521 H 0.38454 0.9262 0.91598 0.0
H522 H 0.46471 0.89286 0.91618 0.0
H523 H 0.55172 0.90414 0.91904 0.0
H524 H 0.60969 0.04584 0.91573 0.0
H525 H 0.5297 0.07865 0.91339 0.0
C526 C 0.44799 0.02943 0.91506 0.0
C527 C 0.40799 0.99941 0.91578 0.0
C528 C 0.49411 0.01054 0.91491 0.0
C529 C 0.41472 0.9501 0.9154 0.0
C530 C 0.46058 0.93101 0.91567 0.0
C531 C 0.5468 0.94218 0.91764 0.0
C532 C 0.58666 0.97248 0.91788 0.0
C533 C 0.50056 0.96091 0.9159 0.0
C534 C 0.5797 0.02166 0.91563 0.0
C535 C 0.53393 0.04052 0.91438 0.0
H536 H 0.22604 0.06181 0.45245 0.0
H537 H 0.25109 0.97258 0.53461 0.0
H538 H 0.22493 0.03614 0.57053 0.0
H539 H 0.18962 0.11521 0.57798 0.0
H540 H 0.16778 0.20502 0.49524 0.0
H541 H 0.19852 0.14333 0.46021 0.0
C542 C 0.22579 0.0564 0.47821 0.0
C543 C 0.23961 0.0125 0.49091 0.0
C544 C 0.2114 0.09322 0.49859 0.0
C545 C 0.24043 0.00615 0.52436 0.0
C546 C 0.22537 0.04241 0.54485 0.0
C547 C 0.1922 0.12158 0.55234 0.0
C548 C 0.17583 0.16464 0.53934 0.0
C549 C 0.21006 0.08588 0.53218 0.0
C550 C 0.17987 0.1723 0.50604 0.0
C551 C 0.19726 0.13691 0.48587 0.0
H552 H 0.12222 0.81743 0.44114 0.0
H553 H 0.21808 0.82759 0.52191 0.0
H554 H 0.15583 0.79951 0.55777 0.0
H555 H 0.07206 0.77815 0.56717 0.0
H556 H 0.97755 0.76229 0.48637 0.0
H557 H 0.04116 0.78612 0.44973 0.0
C558 C 0.12978 0.81281 0.46649 0.0
C559 C 0.17486 0.8254 0.47869 0.0
C560 C 0.09379 0.79598 0.48715 0.0
C561 C 0.18389 0.81859 0.51166 0.0
C562 C 0.14812 0.80267 0.53234 0.0
C563 C 0.06554 0.77956 0.54153 0.0
C564 C 0.01991 0.76913 0.5296 0.0
C565 C 0.10262 0.79234 0.5205 0.0
C566 C 0.01226 0.77024 0.49622 0.0
C567 C 0.04864 0.78403 0.47524 0.0
H568 H 0.79446 0.01551 0.50736 0.0
H569 H 0.79313 0.93025 0.42143 0.0
H570 H 0.81495 0.86043 0.45248 0.0
H571 H 0.83781 0.82442 0.50319 0.0
H572 H 0.84646 0.90961 0.5891 0.0
H573 H 0.81775 0.97848 0.55909 0.0
C574 C 0.79866 0.9815 0.4956 0.0
C575 C 0.7925 0.978 0.46213 0.0
C576 C 0.81246 0.94156 0.51359 0.0
C577 C 0.79837 0.93394 0.44705 0.0
C578 C 0.8106 0.89395 0.46483 0.0
C579 C 0.83311 0.85783 0.51558 0.0
C580 C 0.84426 0.86163 0.54844 0.0
C581 C 0.81828 0.89747 0.49801 0.0
C582 C 0.83814 0.90556 0.56384 0.0
C583 C 0.82185 0.94501 0.54666 0.0
H584 H 0.83025 0.19259 0.48322 0.0
H585 H 0.92147 0.14064 0.40765 0.0
H586 H 0.99111 0.16939 0.43654 0.0
H587 H 0.02716 0.20356 0.4856 0.0
H588 H 0.93629 0.25619 0.56062 0.0
H589 H 0.86573 0.23291 0.52981 0.0
C590 C 0.86525 0.18808 0.47278 0.0
C591 C 0.87026 0.16397 0.44331 0.0
C592 C 0.90545 0.20449 0.48964 0.0
C593 C 0.91617 0.15881 0.43027 0.0
C594 C 0.95624 0.17511 0.44686 0.0
C595 C 0.99179 0.21048 0.49481 0.0
C596 C 0.98653 0.23136 0.52519 0.0
C597 C 0.95144 0.19709 0.47688 0.0
C598 C 0.94084 0.2401 0.53719 0.0
C599 C 0.9006 0.22675 0.51962 0.0
H600 H 0.77546 0.06336 0.94204 0.0
H601 H 0.76963 0.96777 0.02262 0.0
H602 H 0.79324 0.03192 0.05892 0.0
H603 H 0.82127 0.11367 0.06686 0.0
H604 H 0.82326 0.21027 0.98637 0.0
H605 H 0.79469 0.14753 0.95105 0.0
C606 C 0.77922 0.05679 0.96757 0.0
C607 C 0.77158 0.01097 0.97969 0.0
C608 C 0.79197 0.09401 0.98828 0.0
C609 C 0.77543 0.00285 0.01284 0.0
C610 C 0.78903 0.03947 0.03354 0.0
C611 C 0.81479 0.12129 0.0417 0.0
C612 C 0.82517 0.16662 0.02931 0.0
C613 C 0.79815 0.08502 0.02144 0.0
C614 C 0.81595 0.1758 0.99666 0.0
C615 C 0.79981 0.1398 0.97632 0.0
H616 H 0.11137 0.18023 0.92786 0.0
H617 H 0.20529 0.15996 0.00882 0.0
H618 H 0.14548 0.19178 0.04484 0.0
H619 H 0.06415 0.21974 0.05426 0.0
H620 H 0.97153 0.24498 0.9737 0.0
H621 H 0.03312 0.21735 0.93671 0.0
C622 C 0.11906 0.18338 0.9533 0.0
C623 C 0.16272 0.16689 0.9655 0.0
C624 C 0.08453 0.20234 0.97409 0.0
C625 C 0.17205 0.17185 0.99858 0.0
C626 C 0.13773 0.18998 0.01936 0.0
C627 C 0.05765 0.21943 0.02859 0.0
C628 C 0.01326 0.2337 0.01671 0.0
C629 C 0.09348 0.20429 0.0075 0.0
C630 C 0.00549 0.23413 0.98338 0.0
C631 C 0.04063 0.21815 0.96224 0.0
H632 H 0.13802 0.82991 0.01124 0.0
H633 H 0.18106 0.9003 0.09853 0.0
H634 H 0.21744 0.96413 0.06703 0.0
H635 H 0.23362 0.00173 0.01449 0.0
H636 H 0.18349 0.93404 0.92799 0.0
H637 H 0.1534 0.86734 0.95927 0.0
C638 C 0.15584 0.85888 0.02342 0.0
C639 C 0.15714 0.86009 0.0572 0.0
C640 C 0.17514 0.89615 0.00523 0.0
C641 C 0.17965 0.89845 0.07255 0.0
C642 C 0.2004 0.93498 0.05455 0.0
C643 C 0.21641 0.97221 1.00253 0.0
C644 C 0.21072 0.9729 0.96892 0.0
C645 C 0.19787 0.93449 0.02085 0.0
C646 C 0.18791 0.93462 0.95378 0.0
C647 C 0.17082 0.89636 0.97167 0.0
H648 H 0.81622 0.84731 0.01028 0.0
H649 H 0.88723 0.805 0.9232 0.0
H650 H 0.95407 0.77455 0.95472 0.0
H651 H 0.9945 0.76488 0.007 0.0
H652 H 0.92601 0.81516 0.09309 0.0
H653 H 0.85603 0.83743 0.06211 0.0
C654 C 0.84584 0.83059 0.9982 0.0
C655 C 0.84643 0.82788 0.96445 0.0
C656 C 0.8849 0.81507 0.01636 0.0
C657 C 0.88577 0.80721 0.94916 0.0
C658 C 0.92406 0.78999 0.96718 0.0
C659 C 0.96411 0.78035 0.01899 0.0
C660 C 0.96561 0.78837 0.05239 0.0
C661 C 0.92439 0.79449 1.00079 0.0
C662 C 0.92605 0.80891 0.06748 0.0
C663 C 0.88589 0.82155 0.04975 0.0
H664 H 0.22732 0.22358 0.69643 0.0
H665 H 0.08215 0.17537 0.70656 0.0
H666 H 0.09682 0.15426 0.76212 0.0
H667 H 0.15078 0.14598 0.8074 0.0
H668 H 0.29615 0.19338 0.79913 0.0
H669 H 0.28119 0.21889 0.74374 0.0
C670 C 0.19887 0.2087 0.71085 0.0
C671 C 0.15382 0.20068 0.69693 0.0
C672 C 0.20746 0.19649 0.74327 0.0
C673 C 0.11735 0.18158 0.71622 0.0
C674 C 0.12561 0.16951 0.74819 0.0
C675 C 0.17928 0.16208 0.79362 0.0
C676 C 0.22463 0.16736 0.80743 0.0
C677 C 0.17056 0.17625 0.76184 0.0
C678 C 0.26084 0.18888 0.78919 0.0
C679 C 0.25236 0.20327 0.75741 0.0
H680 H 0.18277 0.73215 0.23112 0.0
H681 H 0.1514 0.87513 0.20113 0.0
H682 H 0.17743 0.9053 0.25294 0.0
H683 H 0.20394 0.89144 0.30765 0.0
H684 H 0.23372 0.74932 0.33988 0.0
H685 H 0.21394 0.71865 0.28636 0.0
C686 C 0.18239 0.76993 0.23581 0.0
C687 C 0.16495 0.80126 0.21222 0.0
C688 C 0.19673 0.78725 0.26617 0.0
C689 C 0.16432 0.85013 0.21882 0.0
C690 C 0.17917 0.8675 0.24851 0.0
C691 C 0.20634 0.85369 0.3031 0.0
C692 C 0.21987 0.82273 0.32798 0.0
C693 C 0.19451 0.83638 0.27254 0.0
C694 C 0.22323 0.77401 0.32129 0.0
C695 C 0.21184 0.75644 0.29066 0.0
H696 H 0.81647 0.72952 0.71894 0.0
H697 H 0.86704 0.86756 0.68971 0.0
H698 H 0.84642 0.89996 0.74196 0.0
H699 H 0.81812 0.88901 0.79653 0.0
H700 H 0.76944 0.75152 0.82802 0.0
H701 H 0.78505 0.71917 0.7744 0.0
C702 C 0.82234 0.76678 0.72394 0.0
C703 C 0.84338 0.79599 0.7004 0.0
C704 C 0.81114 0.78528 0.75453 0.0
C705 C 0.85117 0.84415 0.70738 0.0
C706 C 0.83943 0.8628 0.7373 0.0
C707 C 0.81071 0.85194 0.79182 0.0
C708 C 0.79291 0.82273 0.81646 0.0
C709 C 0.82013 0.8336 0.76118 0.0
C710 C 0.78336 0.77484 0.8096 0.0
C711 C 0.79228 0.75631 0.7789 0.0
H712 H 0.805 0.10978 0.2793 0.0
H713 H 0.78762 0.249 0.32033 0.0
H714 H 0.80145 0.28483 0.26748 0.0
H715 H 0.82416 0.27639 0.21002 0.0
H716 H 0.84366 0.13612 0.17095 0.0
H717 H 0.82303 0.10113 0.22252 0.0
C718 C 0.80398 0.14801 0.27682 0.0
C719 C 0.79572 0.1766 0.30393 0.0
C720 C 0.81243 0.16827 0.24657 0.0
C721 C 0.7941 0.22606 0.29996 0.0
C722 C 0.80207 0.24659 0.26971 0.0
C723 C 0.82308 0.23819 0.21272 0.0
C724 C 0.8356 0.20897 0.18662 0.0
C725 C 0.81201 0.21805 0.24288 0.0
C726 C 0.83447 0.1595 0.19062 0.0
C727 C 0.82274 0.13938 0.22015 0.0
loop_
_geom_bond_atom_site_label_1
_geom_bond_atom_site_label_2
_geom_bond_distance
_geom_bond_site_symmetry_2
_ccdc_geom_bond_type
Co0 O2 2.143 . S
Co0 O8 2.074 . S
Co0 O11 2.093 . S
Co0 O24 2.097 . S
Co0 N41 2.151 . S
Co0 N49 2.214 . S
Co1 O2 2.160 . S
Co1 O7 2.058 . S
Co1 O17 2.057 . S
Co1 O32 2.037 . S
Co1 N36 2.145 . S
Co1 N57 2.257 . S
O2 Co0 2.143 . S
O2 Co1 2.160 . S
C3 O4 1.278 . S
C3 O11 1.224 . S
O4 C3 1.278 . S
C5 O6 1.245 . S
C5 O17 1.232 . S
O6 C5 1.245 . S
O7 Co1 2.058 . S
O7 C33 1.269 . S
O8 Co0 2.074 . S
O8 C33 1.257 . S
H9 C34 0.930 . S
H10 C40 0.930 . S
O11 Co0 2.093 . S
O11 C3 1.224 . S
H12 C44 0.929 . S
H13 C46 0.930 . S
H14 C47 0.930 . S
H15 C45 0.929 . S
H16 C48 0.928 . S
O17 Co1 2.057 . S
O17 C5 1.232 . S
H18 C37 0.929 . S
H19 C38 0.929 . S
H20 C50 0.931 . S
H21 C42 0.929 . S
H22 C51 0.930 1_565 S
H23 C43 0.931 . S
O24 Co0 2.097 . S
O24 C52 1.214 . S
H25 C53 0.929 . S
H26 C54 0.929 . S
H27 C55 0.930 . S
H28 C56 0.929 . S
H29 C58 0.930 . S
H30 C35 0.930 . S
H31 C39 0.930 . S
O32 Co1 2.037 . S
O32 C52 1.234 . S
C33 O7 1.269 . S
C33 O8 1.257 . S
C34 H9 0.930 . S
C34 C37 1.388 . S
C34 C39 1.418 . S
C35 H30 0.930 . S
C35 C38 1.404 . S
C35 C39 1.353 . S
N36 Co1 2.145 . S
N36 C37 1.397 . S
N36 C38 1.334 . S
C37 H18 0.929 . S
C37 C34 1.388 . S
C37 N36 1.397 . S
C38 H19 0.929 . S
C38 C35 1.404 . S
C38 N36 1.334 . S
C39 H31 0.930 . S
C39 C34 1.418 . S
C39 C35 1.353 . S
C40 H10 0.930 . S
C40 N41 1.330 . S
C40 C42 1.446 1_455 S
N41 Co0 2.151 . S
N41 C40 1.330 . S
N41 C45 1.418 1_455 S
C42 H21 0.929 . S
C42 C40 1.446 1_655 S
C42 C43 1.332 . S
C43 H23 0.931 . S
C43 C42 1.332 . S
C43 C44 1.267 . S
C44 H12 0.929 . S
C44 C43 1.267 . S
C44 C45 1.251 . S
C45 H15 0.929 . S
C45 N41 1.418 1_655 S
C45 C44 1.251 . S
C46 H13 0.930 . S
C46 C48 1.406 . S
C46 C51 1.261 . S
C47 H14 0.930 . S
C47 N49 1.325 . S
C47 C50 1.357 . S
C48 H16 0.928 . S
C48 C46 1.406 . S
C48 N49 1.261 . S
N49 Co0 2.214 . S
N49 C47 1.325 . S
N49 C48 1.261 . S
C50 H20 0.931 . S
C50 C47 1.357 . S
C50 C51 1.312 . S
C51 H22 0.930 1_545 S
C51 C46 1.261 . S
C51 C50 1.312 . S
C52 O24 1.214 . S
C52 O32 1.234 . S
C53 H25 0.929 . S
C53 C56 1.391 . S
C53 C58 1.391 . S
C54 H26 0.929 . S
C54 C55 1.390 . S
C54 N57 1.391 . S
C55 H27 0.930 . S
C55 C54 1.390 . S
C55 C56 1.392 . S
C56 H28 0.929 . S
C56 C53 1.391 . S
C56 C55 1.392 . S
N57 Co1 2.257 . S
N57 C54 1.391 . S
N57 C58 1.388 . S
C58 H29 0.930 . S
C58 C53 1.391 . S
C58 N57 1.388 . S
Co59 O61 2.143 . S
Co59 O67 2.074 . S
Co59 O70 2.093 . S
Co59 O83 2.097 . S
Co59 N100 2.151 . S
Co59 N108 2.214 . S
Co60 O61 2.160 . S
Co60 O66 2.058 . S
Co60 O76 2.057 . S
Co60 O91 2.037 . S
Co60 N95 2.145 . S
Co60 N116 2.257 . S
O61 Co59 2.143 . S
O61 Co60 2.160 . S
C62 O63 1.278 . S
C62 O70 1.224 . S
O63 C62 1.278 . S
C64 O65 1.245 . S
C64 O76 1.232 . S
O65 C64 1.245 . S
O66 Co60 2.058 . S
O66 C92 1.269 . S
O67 Co59 2.074 . S
O67 C92 1.257 . S
H68 C93 0.930 . S
H69 C99 0.930 . S
O70 Co59 2.093 . S
O70 C62 1.224 . S
H71 C103 0.929 . S
H72 C105 0.930 . S
H73 C106 0.930 . S
H74 C104 0.929 . S
H75 C107 0.928 . S
O76 Co60 2.057 . S
O76 C64 1.232 . S
H77 C96 0.929 . S
H78 C97 0.929 . S
H79 C109 0.931 . S
H80 C101 0.929 . S
H81 C110 0.930 1_655 S
H82 C102 0.931 . S
O83 Co59 2.097 . S
O83 C111 1.214 . S
H84 C112 0.929 . S
H85 C113 0.929 . S
H86 C114 0.930 . S
H87 C115 0.929 . S
H88 C117 0.930 . S
H89 C94 0.930 . S
H90 C98 0.930 . S
O91 Co60 2.037 . S
O91 C111 1.234 . S
C92 O66 1.269 . S
C92 O67 1.257 . S
C93 H68 0.930 . S
C93 C96 1.388 . S
C93 C98 1.418 . S
C94 H89 0.930 . S
C94 C97 1.404 . S
C94 C98 1.353 . S
N95 Co60 2.145 . S
N95 C96 1.397 . S
N95 C97 1.334 . S
C96 H77 0.929 . S
C96 C93 1.388 . S
C96 N95 1.397 . S
C97 H78 0.929 . S
C97 C94 1.404 . S
C97 N95 1.334 . S
C98 H90 0.930 . S
C98 C93 1.418 . S
C98 C94 1.353 . S
C99 H69 0.930 . S
C99 N100 1.330 . S
C99 C101 1.446 1_565 S
N100 Co59 2.151 . S
N100 C99 1.330 . S
N100 C104 1.418 1_565 S
C101 H80 0.929 . S
C101 C99 1.446 1_545 S
C101 C102 1.332 . S
C102 H82 0.931 . S
C102 C101 1.332 . S
C102 C103 1.267 . S
C103 H71 0.929 . S
C103 C102 1.267 . S
C103 C104 1.251 . S
C104 H74 0.929 . S
C104 N100 1.418 1_545 S
C104 C103 1.251 . S
C105 H72 0.930 . S
C105 C107 1.406 . S
C105 C110 1.261 . S
C106 H73 0.930 . S
C106 N108 1.325 . S
C106 C109 1.357 . S
C107 H75 0.928 . S
C107 C105 1.406 . S
C107 N108 1.261 . S
N108 Co59 2.214 . S
N108 C106 1.325 . S
N108 C107 1.261 . S
C109 H79 0.931 . S
C109 C106 1.357 . S
C109 C110 1.312 . S
C110 H81 0.930 1_455 S
C110 C105 1.261 . S
C110 C109 1.312 . S
C111 O83 1.214 . S
C111 O91 1.234 . S
C112 H84 0.929 . S
C112 C115 1.391 . S
C112 C117 1.391 . S
C113 H85 0.929 . S
C113 C114 1.390 . S
C113 N116 1.391 . S
C114 H86 0.930 . S
C114 C113 1.390 . S
C114 C115 1.392 . S
C115 H87 0.929 . S
C115 C112 1.391 . S
C115 C114 1.392 . S
N116 Co60 2.257 . S
N116 C113 1.391 . S
N116 C117 1.388 . S
C117 H88 0.930 . S
C117 C112 1.391 . S
C117 N116 1.388 . S
Co118 O120 2.143 . S
Co118 O126 2.074 . S
Co118 O129 2.093 . S
Co118 O142 2.097 . S
Co118 N159 2.151 . S
Co118 N167 2.214 . S
Co119 O120 2.160 . S
Co119 O125 2.058 . S
Co119 O135 2.057 . S
Co119 O150 2.037 . S
Co119 N154 2.145 . S
Co119 N175 2.257 . S
O120 Co118 2.143 . S
O120 Co119 2.160 . S
C121 O122 1.278 . S
C121 O129 1.224 . S
O122 C121 1.278 . S
C123 O124 1.245 . S
C123 O135 1.232 . S
O124 C123 1.245 . S
O125 Co119 2.058 . S
O125 C151 1.269 . S
O126 Co118 2.074 . S
O126 C151 1.257 . S
H127 C152 0.930 . S
H128 C158 0.930 . S
O129 Co118 2.093 . S
O129 C121 1.224 . S
H130 C162 0.929 . S
H131 C164 0.930 . S
H132 C165 0.930 . S
H133 C163 0.929 . S
H134 C166 0.928 . S
O135 Co119 2.057 . S
O135 C123 1.232 . S
H136 C155 0.929 . S
H137 C156 0.929 . S
H138 C168 0.931 . S
H139 C160 0.929 . S
H140 C169 0.930 1_545 S
H141 C161 0.931 . S
O142 Co118 2.097 . S
O142 C170 1.214 . S
H143 C171 0.929 . S
H144 C172 0.929 . S
H145 C173 0.930 . S
H146 C174 0.929 . S
H147 C176 0.930 . S
H148 C153 0.930 . S
H149 C157 0.930 . S
O150 Co119 2.037 . S
O150 C170 1.234 . S
C151 O125 1.269 . S
C151 O126 1.257 . S
C152 H127 0.930 . S
C152 C155 1.388 . S
C152 C157 1.418 . S
C153 H148 0.930 . S
C153 C156 1.404 . S
C153 C157 1.353 . S
N154 Co119 2.145 . S
N154 C155 1.397 . S
N154 C156 1.334 . S
C155 H136 0.929 . S
C155 C152 1.388 . S
C155 N154 1.397 . S
C156 H137 0.929 . S
C156 C153 1.404 . S
C156 N154 1.334 . S
C157 H149 0.930 . S
C157 C152 1.418 . S
C157 C153 1.353 . S
C158 H128 0.930 . S
C158 N159 1.330 . S
C158 C160 1.446 1_655 S
N159 Co118 2.151 . S
N159 C158 1.330 . S
N159 C163 1.418 1_655 S
C160 H139 0.929 . S
C160 C158 1.446 1_455 S
C160 C161 1.332 . S
C161 H141 0.931 . S
C161 C160 1.332 . S
C161 C162 1.267 . S
C162 H130 0.929 . S
C162 C161 1.267 . S
C162 C163 1.251 . S
C163 H133 0.929 . S
C163 N159 1.418 1_455 S
C163 C162 1.251 . S
C164 H131 0.930 . S
C164 C166 1.406 . S
C164 C169 1.261 . S
C165 H132 0.930 . S
C165 N167 1.325 . S
C165 C168 1.357 . S
C166 H134 0.928 . S
C166 C164 1.406 . S
C166 N167 1.261 . S
N167 Co118 2.214 . S
N167 C165 1.325 . S
N167 C166 1.261 . S
C168 H138 0.931 . S
C168 C165 1.357 . S
C168 C169 1.312 . S
C169 H140 0.930 1_565 S
C169 C164 1.261 . S
C169 C168 1.312 . S
C170 O142 1.214 . S
C170 O150 1.234 . S
C171 H143 0.929 . S
C171 C174 1.391 . S
C171 C176 1.391 . S
C172 H144 0.929 . S
C172 C173 1.390 . S
C172 N175 1.391 . S
C173 H145 0.930 . S
C173 C172 1.390 . S
C173 C174 1.392 . S
C174 H146 0.929 . S
C174 C171 1.391 . S
C174 C173 1.392 . S
N175 Co119 2.257 . S
N175 C172 1.391 . S
N175 C176 1.388 . S
C176 H147 0.930 . S
C176 C171 1.391 . S
C176 N175 1.388 . S
Co177 O179 2.143 . S
Co177 O185 2.074 . S
Co177 O188 2.093 . S
Co177 O201 2.097 . S
Co177 N218 2.151 . S
Co177 N226 2.214 . S
Co178 O179 2.160 . S
Co178 O184 2.058 . S
Co178 O194 2.057 . S
Co178 O209 2.037 . S
Co178 N213 2.145 . S
Co178 N234 2.257 . S
O179 Co177 2.143 . S
O179 Co178 2.160 . S
C180 O181 1.278 . S
C180 O188 1.224 . S
O181 C180 1.278 . S
C182 O183 1.245 . S
C182 O194 1.232 . S
O183 C182 1.245 . S
O184 Co178 2.058 . S
O184 C210 1.269 . S
O185 Co177 2.074 . S
O185 C210 1.257 . S
H186 C211 0.930 . S
H187 C217 0.930 . S
O188 Co177 2.093 . S
O188 C180 1.224 . S
H189 C221 0.929 . S
H190 C223 0.930 . S
H191 C224 0.930 . S
H192 C222 0.929 . S
H193 C225 0.928 . S
O194 Co178 2.057 . S
O194 C182 1.232 . S
H195 C214 0.929 . S
H196 C215 0.929 . S
H197 C227 0.931 . S
H198 C219 0.929 . S
H199 C228 0.930 1_455 S
H200 C220 0.931 . S
O201 Co177 2.097 . S
O201 C229 1.214 . S
H202 C230 0.929 . S
H203 C231 0.929 . S
H204 C232 0.930 . S
H205 C233 0.929 . S
H206 C235 0.930 . S
H207 C212 0.930 . S
H208 C216 0.930 . S
O209 Co178 2.037 . S
O209 C229 1.234 . S
C210 O184 1.269 . S
C210 O185 1.257 . S
C211 H186 0.930 . S
C211 C214 1.388 . S
C211 C216 1.418 . S
C212 H207 0.930 . S
C212 C215 1.404 . S
C212 C216 1.353 . S
N213 Co178 2.145 . S
N213 C214 1.397 . S
N213 C215 1.334 . S
C214 H195 0.929 . S
C214 C211 1.388 . S
C214 N213 1.397 . S
C215 H196 0.929 . S
C215 C212 1.404 . S
C215 N213 1.334 . S
C216 H208 0.930 . S
C216 C211 1.418 . S
C216 C212 1.353 . S
C217 H187 0.930 . S
C217 N218 1.330 . S
C217 C219 1.446 1_545 S
N218 Co177 2.151 . S
N218 C217 1.330 . S
N218 C222 1.418 1_545 S
C219 H198 0.929 . S
C219 C217 1.446 1_565 S
C219 C220 1.332 . S
C220 H200 0.931 . S
C220 C219 1.332 . S
C220 C221 1.267 . S
C221 H189 0.929 . S
C221 C220 1.267 . S
C221 C222 1.251 . S
C222 H192 0.929 . S
C222 N218 1.418 1_565 S
C222 C221 1.251 . S
C223 H190 0.930 . S
C223 C225 1.406 . S
C223 C228 1.261 . S
C224 H191 0.930 . S
C224 N226 1.325 . S
C224 C227 1.357 . S
C225 H193 0.928 . S
C225 C223 1.406 . S
C225 N226 1.261 . S
N226 Co177 2.214 . S
N226 C224 1.325 . S
N226 C225 1.261 . S
C227 H197 0.931 . S
C227 C224 1.357 . S
C227 C228 1.312 . S
C228 H199 0.930 1_655 S
C228 C223 1.261 . S
C228 C227 1.312 . S
C229 O201 1.214 . S
C229 O209 1.234 . S
C230 H202 0.929 . S
C230 C233 1.391 . S
C230 C235 1.391 . S
C231 H203 0.929 . S
C231 C232 1.390 . S
C231 N234 1.391 . S
C232 H204 0.930 . S
C232 C231 1.390 . S
C232 C233 1.392 . S
C233 H205 0.929 . S
C233 C230 1.391 . S
C233 C232 1.392 . S
N234 Co178 2.257 . S
N234 C231 1.391 . S
N234 C235 1.388 . S
C235 H206 0.930 . S
C235 C230 1.391 . S
C235 N234 1.388 . S
Co236 O238 2.143 . S
Co236 O244 2.074 . S
Co236 O247 2.093 . S
Co236 O260 2.097 . S
Co236 N277 2.151 . S
Co236 N285 2.214 . S
Co237 O238 2.160 . S
Co237 O243 2.058 . S
Co237 O253 2.057 . S
Co237 O268 2.037 . S
Co237 N272 2.145 . S
Co237 N293 2.257 . S
O238 Co236 2.143 . S
O238 Co237 2.160 . S
C239 O240 1.278 . S
C239 O247 1.224 . S
O240 C239 1.278 . S
C241 O242 1.245 . S
C241 O253 1.232 . S
O242 C241 1.245 . S
O243 Co237 2.058 . S
O243 C269 1.269 . S
O244 Co236 2.074 . S
O244 C269 1.257 . S
H245 C270 0.930 . S
H246 C276 0.930 . S
O247 Co236 2.093 . S
O247 C239 1.224 . S
H248 C280 0.929 . S
H249 C282 0.930 . S
H250 C283 0.930 . S
H251 C281 0.929 . S
H252 C284 0.928 . S
O253 Co237 2.057 . S
O253 C241 1.232 . S
H254 C273 0.929 . S
H255 C274 0.929 . S
H256 C286 0.931 . S
H257 C278 0.929 . S
H258 C287 0.930 1_565 S
H259 C279 0.931 . S
O260 Co236 2.097 . S
O260 C288 1.214 . S
H261 C289 0.929 . S
H262 C290 0.929 . S
H263 C291 0.930 . S
H264 C292 0.929 . S
H265 C294 0.930 . S
H266 C271 0.930 . S
H267 C275 0.930 . S
O268 Co237 2.037 . S
O268 C288 1.234 . S
C269 O243 1.269 . S
C269 O244 1.257 . S
C270 H245 0.930 . S
C270 C273 1.388 . S
C270 C275 1.418 . S
C271 H266 0.930 . S
C271 C274 1.404 1_556 S
C271 C275 1.353 . S
N272 Co237 2.145 . S
N272 C273 1.397 1_554 S
N272 C274 1.334 . S
C273 H254 0.929 . S
C273 C270 1.388 . S
C273 N272 1.397 1_556 S
C274 H255 0.929 . S
C274 C271 1.404 1_554 S
C274 N272 1.334 . S
C275 H267 0.930 . S
C275 C270 1.418 . S
C275 C271 1.353 . S
C276 H246 0.930 . S
C276 N277 1.330 . S
C276 C278 1.446 1_655 S
N277 Co236 2.151 . S
N277 C276 1.330 . S
N277 C281 1.418 1_655 S
C278 H257 0.929 . S
C278 C276 1.446 1_455 S
C278 C279 1.332 . S
C279 H259 0.931 . S
C279 C278 1.332 . S
C279 C280 1.267 . S
C280 H248 0.929 . S
C280 C279 1.267 . S
C280 C281 1.251 . S
C281 H251 0.929 . S
C281 N277 1.418 1_455 S
C281 C280 1.251 . S
C282 H249 0.930 . S
C282 C284 1.406 . S
C282 C287 1.261 . S
C283 H250 0.930 . S
C283 N285 1.325 . S
C283 C286 1.357 . S
C284 H252 0.928 . S
C284 C282 1.406 . S
C284 N285 1.261 . S
N285 Co236 2.214 . S
N285 C283 1.325 . S
N285 C284 1.261 . S
C286 H256 0.931 . S
C286 C283 1.357 . S
C286 C287 1.312 . S
C287 H258 0.930 1_545 S
C287 C282 1.261 . S
C287 C286 1.312 . S
C288 O260 1.214 . S
C288 O268 1.234 . S
C289 H261 0.929 . S
C289 C292 1.391 . S
C289 C294 1.391 . S
C290 H262 0.929 . S
C290 C291 1.390 . S
C290 N293 1.391 . S
C291 H263 0.930 . S
C291 C290 1.390 . S
C291 C292 1.392 . S
C292 H264 0.929 . S
C292 C289 1.391 . S
C292 C291 1.392 . S
N293 Co237 2.257 . S
N293 C290 1.391 . S
N293 C294 1.388 . S
C294 H265 0.930 . S
C294 C289 1.391 . S
C294 N293 1.388 . S
Co295 O297 2.143 . S
Co295 O303 2.074 . S
Co295 O306 2.093 . S
Co295 O319 2.097 . S
Co295 N336 2.151 . S
Co295 N344 2.214 . S
Co296 O297 2.160 . S
Co296 O302 2.058 . S
Co296 O312 2.057 . S
Co296 O327 2.037 . S
Co296 N331 2.145 . S
Co296 N352 2.257 . S
O297 Co295 2.143 . S
O297 Co296 2.160 . S
C298 O299 1.278 . S
C298 O306 1.224 . S
O299 C298 1.278 . S
C300 O301 1.245 . S
C300 O312 1.232 . S
O301 C300 1.245 . S
O302 Co296 2.058 . S
O302 C328 1.269 . S
O303 Co295 2.074 . S
O303 C328 1.257 . S
H304 C329 0.930 . S
H305 C335 0.930 . S
O306 Co295 2.093 . S
O306 C298 1.224 . S
H307 C339 0.929 . S
H308 C341 0.930 . S
H309 C342 0.930 . S
H310 C340 0.929 . S
H311 C343 0.928 . S
O312 Co296 2.057 . S
O312 C300 1.232 . S
H313 C332 0.929 . S
H314 C333 0.929 . S
H315 C345 0.931 . S
H316 C337 0.929 . S
H317 C346 0.930 1_655 S
H318 C338 0.931 . S
O319 Co295 2.097 . S
O319 C347 1.214 . S
H320 C348 0.929 . S
H321 C349 0.929 . S
H322 C350 0.930 . S
H323 C351 0.929 . S
H324 C353 0.930 . S
H325 C330 0.930 . S
H326 C334 0.930 . S
O327 Co296 2.037 . S
O327 C347 1.234 . S
C328 O302 1.269 . S
C328 O303 1.257 . S
C329 H304 0.930 . S
C329 C332 1.388 . S
C329 C334 1.418 . S
C330 H325 0.930 . S
C330 C333 1.404 1_554 S
C330 C334 1.353 . S
N331 Co296 2.145 . S
N331 C332 1.397 1_556 S
N331 C333 1.334 . S
C332 H313 0.929 . S
C332 C329 1.388 . S
C332 N331 1.397 1_554 S
C333 H314 0.929 . S
C333 C330 1.404 1_556 S
C333 N331 1.334 . S
C334 H326 0.930 . S
C334 C329 1.418 . S
C334 C330 1.353 . S
C335 H305 0.930 . S
C335 N336 1.330 . S
C335 C337 1.446 1_545 S
N336 Co295 2.151 . S
N336 C335 1.330 . S
N336 C340 1.418 1_545 S
C337 H316 0.929 . S
C337 C335 1.446 1_565 S
C337 C338 1.332 . S
C338 H318 0.931 . S
C338 C337 1.332 . S
C338 C339 1.267 . S
C339 H307 0.929 . S
C339 C338 1.267 . S
C339 C340 1.251 . S
C340 H310 0.929 . S
C340 N336 1.418 1_565 S
C340 C339 1.251 . S
C341 H308 0.930 . S
C341 C343 1.406 . S
C341 C346 1.261 . S
C342 H309 0.930 . S
C342 N344 1.325 . S
C342 C345 1.357 . S
C343 H311 0.928 . S
C343 C341 1.406 . S
C343 N344 1.261 . S
N344 Co295 2.214 . S
N344 C342 1.325 . S
N344 C343 1.261 . S
C345 H315 0.931 . S
C345 C342 1.357 . S
C345 C346 1.312 . S
C346 H317 0.930 1_455 S
C346 C341 1.261 . S
C346 C345 1.312 . S
C347 O319 1.214 . S
C347 O327 1.234 . S
C348 H320 0.929 . S
C348 C351 1.391 . S
C348 C353 1.391 . S
C349 H321 0.929 . S
C349 C350 1.390 . S
C349 N352 1.391 . S
C350 H322 0.930 . S
C350 C349 1.390 . S
C350 C351 1.392 . S
C351 H323 0.929 . S
C351 C348 1.391 . S
C351 C350 1.392 . S
N352 Co296 2.257 . S
N352 C349 1.391 . S
N352 C353 1.388 . S
C353 H324 0.930 . S
C353 C348 1.391 . S
C353 N352 1.388 . S
Co354 O356 2.143 . S
Co354 O362 2.074 . S
Co354 O365 2.093 . S
Co354 O378 2.097 . S
Co354 N395 2.151 . S
Co354 N403 2.214 . S
Co355 O356 2.160 . S
Co355 O361 2.058 . S
Co355 O371 2.057 . S
Co355 O386 2.037 . S
Co355 N390 2.145 . S
Co355 N411 2.257 . S
O356 Co354 2.143 . S
O356 Co355 2.160 . S
C357 O358 1.278 . S
C357 O365 1.224 . S
O358 C357 1.278 . S
C359 O360 1.245 . S
C359 O371 1.232 . S
O360 C359 1.245 . S
O361 Co355 2.058 . S
O361 C387 1.269 . S
O362 Co354 2.074 . S
O362 C387 1.257 . S
H363 C388 0.930 . S
H364 C394 0.930 . S
O365 Co354 2.093 . S
O365 C357 1.224 . S
H366 C398 0.929 . S
H367 C400 0.930 . S
H368 C401 0.930 . S
H369 C399 0.929 . S
H370 C402 0.928 . S
O371 Co355 2.057 . S
O371 C359 1.232 . S
H372 C391 0.929 . S
H373 C392 0.929 . S
H374 C404 0.931 . S
H375 C396 0.929 . S
H376 C405 0.930 1_545 S
H377 C397 0.931 . S
O378 Co354 2.097 . S
O378 C406 1.214 . S
H379 C407 0.929 . S
H380 C408 0.929 . S
H381 C409 0.930 . S
H382 C410 0.929 . S
H383 C412 0.930 . S
H384 C389 0.930 . S
H385 C393 0.930 . S
O386 Co355 2.037 . S
O386 C406 1.234 . S
C387 O361 1.269 . S
C387 O362 1.257 . S
C388 H363 0.930 . S
C388 C391 1.388 . S
C388 C393 1.418 . S
C389 H384 0.930 . S
C389 C392 1.404 1_556 S
C389 C393 1.353 . S
N390 Co355 2.145 . S
N390 C391 1.397 1_554 S
N390 C392 1.334 . S
C391 H372 0.929 . S
C391 C388 1.388 . S
C391 N390 1.397 1_556 S
C392 H373 0.929 . S
C392 C389 1.404 1_554 S
C392 N390 1.334 . S
C393 H385 0.930 . S
C393 C388 1.418 . S
C393 C389 1.353 . S
C394 H364 0.930 . S
C394 N395 1.330 . S
C394 C396 1.446 1_455 S
N395 Co354 2.151 . S
N395 C394 1.330 . S
N395 C399 1.418 1_455 S
C396 H375 0.929 . S
C396 C394 1.446 1_655 S
C396 C397 1.332 . S
C397 H377 0.931 . S
C397 C396 1.332 . S
C397 C398 1.267 . S
C398 H366 0.929 . S
C398 C397 1.267 . S
C398 C399 1.251 . S
C399 H369 0.929 . S
C399 N395 1.418 1_655 S
C399 C398 1.251 . S
C400 H367 0.930 . S
C400 C402 1.406 . S
C400 C405 1.261 . S
C401 H368 0.930 . S
C401 N403 1.325 . S
C401 C404 1.357 . S
C402 H370 0.928 . S
C402 C400 1.406 . S
C402 N403 1.261 . S
N403 Co354 2.214 . S
N403 C401 1.325 . S
N403 C402 1.261 . S
C404 H374 0.931 . S
C404 C401 1.357 . S
C404 C405 1.312 . S
C405 H376 0.930 1_565 S
C405 C400 1.261 . S
C405 C404 1.312 . S
C406 O378 1.214 . S
C406 O386 1.234 . S
C407 H379 0.929 . S
C407 C410 1.391 . S
C407 C412 1.391 . S
C408 H380 0.929 . S
C408 C409 1.390 . S
C408 N411 1.391 . S
C409 H381 0.930 . S
C409 C408 1.390 . S
C409 C410 1.392 . S
C410 H382 0.929 . S
C410 C407 1.391 . S
C410 C409 1.392 . S
N411 Co355 2.257 . S
N411 C408 1.391 . S
N411 C412 1.388 . S
C412 H383 0.930 . S
C412 C407 1.391 . S
C412 N411 1.388 . S
Co413 O415 2.143 . S
Co413 O421 2.074 . S
Co413 O424 2.093 . S
Co413 O437 2.097 . S
Co413 N454 2.151 . S
Co413 N462 2.214 . S
Co414 O415 2.160 . S
Co414 O420 2.058 . S
Co414 O430 2.057 . S
Co414 O445 2.037 . S
Co414 N449 2.145 . S
Co414 N470 2.257 . S
O415 Co413 2.143 . S
O415 Co414 2.160 . S
C416 O417 1.278 . S
C416 O424 1.224 . S
O417 C416 1.278 . S
C418 O419 1.245 . S
C418 O430 1.232 . S
O419 C418 1.245 . S
O420 Co414 2.058 . S
O420 C446 1.269 . S
O421 Co413 2.074 . S
O421 C446 1.257 . S
H422 C447 0.930 . S
H423 C453 0.930 . S
O424 Co413 2.093 . S
O424 C416 1.224 . S
H425 C457 0.929 . S
H426 C459 0.930 . S
H427 C460 0.930 . S
H428 C458 0.929 . S
H429 C461 0.928 . S
O430 Co414 2.057 . S
O430 C418 1.232 . S
H431 C450 0.929 . S
H432 C451 0.929 . S
H433 C463 0.931 . S
H434 C455 0.929 . S
H435 C464 0.930 1_455 S
H436 C456 0.931 . S
O437 Co413 2.097 . S
O437 C465 1.214 . S
H438 C466 0.929 . S
H439 C467 0.929 . S
H440 C468 0.930 . S
H441 C469 0.929 . S
H442 C471 0.930 . S
H443 C448 0.930 . S
H444 C452 0.930 . S
O445 Co414 2.037 . S
O445 C465 1.234 . S
C446 O420 1.269 . S
C446 O421 1.257 . S
C447 H422 0.930 . S
C447 C450 1.388 . S
C447 C452 1.418 . S
C448 H443 0.930 . S
C448 C451 1.404 1_554 S
C448 C452 1.353 . S
N449 Co414 2.145 . S
N449 C450 1.397 1_556 S
N449 C451 1.334 . S
C450 H431 0.929 . S
C450 C447 1.388 . S
C450 N449 1.397 1_554 S
C451 H432 0.929 . S
C451 C448 1.404 1_556 S
C451 N449 1.334 . S
C452 H444 0.930 . S
C452 C447 1.418 . S
C452 C448 1.353 . S
C453 H423 0.930 . S
C453 N454 1.330 . S
C453 C455 1.446 1_565 S
N454 Co413 2.151 . S
N454 C453 1.330 . S
N454 C458 1.418 1_565 S
C455 H434 0.929 . S
C455 C453 1.446 1_545 S
C455 C456 1.332 . S
C456 H436 0.931 . S
C456 C455 1.332 . S
C456 C457 1.267 . S
C457 H425 0.929 . S
C457 C456 1.267 . S
C457 C458 1.251 . S
C458 H428 0.929 . S
C458 N454 1.418 1_545 S
C458 C457 1.251 . S
C459 H426 0.930 . S
C459 C461 1.406 . S
C459 C464 1.261 . S
C460 H427 0.930 . S
C460 N462 1.325 . S
C460 C463 1.357 . S
C461 H429 0.928 . S
C461 C459 1.406 . S
C461 N462 1.261 . S
N462 Co413 2.214 . S
N462 C460 1.325 . S
N462 C461 1.261 . S
C463 H433 0.931 . S
C463 C460 1.357 . S
C463 C464 1.312 . S
C464 H435 0.930 1_655 S
C464 C459 1.261 . S
C464 C463 1.312 . S
C465 O437 1.214 . S
C465 O445 1.234 . S
C466 H438 0.929 . S
C466 C469 1.391 . S
C466 C471 1.391 . S
C467 H439 0.929 . S
C467 C468 1.390 . S
C467 N470 1.391 . S
C468 H440 0.930 . S
C468 C467 1.390 . S
C468 C469 1.392 . S
C469 H441 0.929 . S
C469 C466 1.391 . S
C469 C468 1.392 . S
N470 Co414 2.257 . S
N470 C467 1.391 . S
N470 C471 1.388 . S
C471 H442 0.930 . S
C471 C466 1.391 . S
C471 N470 1.388 . S
H472 C478 0.930 1_455 S
H473 C481 0.930 . S
H474 C482 0.930 . S
H475 C483 0.930 1_655 S
H476 C486 0.930 . S
H477 C487 0.930 . S
C478 H472 0.930 1_655 S
C478 C479 1.355 . S
C478 C480 1.415 1_655 S
C479 C478 1.355 . S
C479 C481 1.419 . S
C480 C478 1.415 1_455 S
C480 C485 1.425 1_455 S
C480 C487 1.409 . S
C481 H473 0.930 . S
C481 C479 1.419 . S
C481 C482 1.362 . S
C482 H474 0.930 . S
C482 C481 1.362 . S
C482 C485 1.409 . S
C483 H475 0.930 1_455 S
C483 C484 1.355 . S
C483 C485 1.415 1_455 S
C484 C483 1.355 . S
C484 C486 1.419 . S
C485 C480 1.425 1_655 S
C485 C482 1.409 . S
C485 C483 1.415 1_655 S
C486 H476 0.930 . S
C486 C484 1.419 . S
C486 C487 1.362 . S
C487 H477 0.930 . S
C487 C480 1.409 . S
C487 C486 1.362 . S
H488 C494 0.930 . S
H489 C497 0.930 . S
H490 C498 0.930 . S
H491 C499 0.930 . S
H492 C502 0.930 . S
H493 C503 0.930 . S
C494 H488 0.930 . S
C494 C495 1.355 . S
C494 C496 1.415 . S
C495 C494 1.355 . S
C495 C497 1.419 1_545 S
C496 C494 1.415 . S
C496 C501 1.425 1_545 S
C496 C503 1.409 . S
C497 H489 0.930 . S
C497 C495 1.419 1_565 S
C497 C498 1.362 . S
C498 H490 0.930 . S
C498 C497 1.362 . S
C498 C501 1.409 . S
C499 H491 0.930 . S
C499 C500 1.355 . S
C499 C501 1.415 . S
C500 C499 1.355 . S
C500 C502 1.419 1_565 S
C501 C496 1.425 1_565 S
C501 C498 1.409 . S
C501 C499 1.415 . S
C502 H492 0.930 . S
C502 C500 1.419 1_545 S
C502 C503 1.362 . S
C503 H493 0.930 . S
C503 C496 1.409 . S
C503 C502 1.362 . S
H504 C510 0.930 . S
H505 C513 0.930 . S
H506 C514 0.930 . S
H507 C515 0.930 . S
H508 C518 0.930 . S
H509 C519 0.930 . S
C510 H504 0.930 . S
C510 C511 1.355 . S
C510 C512 1.415 . S
C511 C510 1.355 . S
C511 C513 1.419 . S
C512 C510 1.415 . S
C512 C517 1.425 1_655 S
C512 C519 1.409 . S
C513 H505 0.930 . S
C513 C511 1.419 . S
C513 C514 1.362 1_655 S
C514 H506 0.930 . S
C514 C513 1.362 1_455 S
C514 C517 1.409 . S
C515 H507 0.930 . S
C515 C516 1.355 . S
C515 C517 1.415 . S
C516 C515 1.355 . S
C516 C518 1.419 . S
C517 C512 1.425 1_455 S
C517 C514 1.409 . S
C517 C515 1.415 . S
C518 H508 0.930 . S
C518 C516 1.419 . S
C518 C519 1.362 1_455 S
C519 H509 0.930 . S
C519 C512 1.409 . S
C519 C518 1.362 1_655 S
H520 C526 0.930 . S
H521 C529 0.930 . S
H522 C530 0.930 . S
H523 C531 0.930 . S
H524 C534 0.930 . S
H525 C535 0.930 . S
C526 H520 0.930 . S
C526 C527 1.355 . S
C526 C528 1.415 . S
C527 C526 1.355 . S
C527 C529 1.419 1_545 S
C528 C526 1.415 . S
C528 C533 1.425 1_545 S
C528 C535 1.409 . S
C529 H521 0.930 . S
C529 C527 1.419 1_565 S
C529 C530 1.362 . S
C530 H522 0.930 . S
C530 C529 1.362 . S
C530 C533 1.409 . S
C531 H523 0.930 . S
C531 C532 1.355 . S
C531 C533 1.415 . S
C532 C531 1.355 . S
C532 C534 1.419 1_565 S
C533 C528 1.425 1_565 S
C533 C530 1.409 . S
C533 C531 1.415 . S
C534 H524 0.930 . S
C534 C532 1.419 1_545 S
C534 C535 1.362 . S
C535 H525 0.930 . S
C535 C528 1.409 . S
C535 C534 1.362 . S
H536 C542 0.930 . S
H537 C545 0.930 . S
H538 C546 0.930 . S
H539 C547 0.930 . S
H540 C550 0.930 . S
H541 C551 0.930 . S
C542 H536 0.930 . S
C542 C543 1.355 . S
C542 C544 1.415 . S
C543 C542 1.355 . S
C543 C545 1.419 . S
C544 C542 1.415 . S
C544 C549 1.425 . S
C544 C551 1.409 . S
C545 H537 0.930 . S
C545 C543 1.419 . S
C545 C546 1.362 . S
C546 H538 0.930 . S
C546 C545 1.362 . S
C546 C549 1.409 . S
C547 H539 0.930 . S
C547 C548 1.355 . S
C547 C549 1.415 . S
C548 C547 1.355 . S
C548 C550 1.419 . S
C549 C544 1.425 . S
C549 C546 1.409 . S
C549 C547 1.415 . S
C550 H540 0.930 . S
C550 C548 1.419 . S
C550 C551 1.362 . S
C551 H541 0.930 . S
C551 C544 1.409 . S
C551 C550 1.362 . S
H552 C558 0.930 . S
H553 C561 0.930 . S
H554 C562 0.930 . S
H555 C563 0.930 . S
H556 C566 0.930 . S
H557 C567 0.930 . S
C558 H552 0.930 . S
C558 C559 1.355 . S
C558 C560 1.415 . S
C559 C558 1.355 . S
C559 C561 1.419 . S
C560 C558 1.415 . S
C560 C565 1.425 . S
C560 C567 1.409 . S
C561 H553 0.930 . S
C561 C559 1.419 . S
C561 C562 1.362 . S
C562 H554 0.930 . S
C562 C561 1.362 . S
C562 C565 1.409 . S
C563 H555 0.930 . S
C563 C564 1.355 . S
C563 C565 1.415 . S
C564 C563 1.355 . S
C564 C566 1.419 . S
C565 C560 1.425 . S
C565 C562 1.409 . S
C565 C563 1.415 . S
C566 H556 0.930 . S
C566 C564 1.419 . S
C566 C567 1.362 . S
C567 H557 0.930 . S
C567 C560 1.409 . S
C567 C566 1.362 . S
H568 C574 0.930 1_545 S
H569 C577 0.930 . S
H570 C578 0.930 . S
H571 C579 0.930 . S
H572 C582 0.930 . S
H573 C583 0.930 . S
C574 H568 0.930 1_565 S
C574 C575 1.355 . S
C574 C576 1.415 . S
C575 C574 1.355 . S
C575 C577 1.419 . S
C576 C574 1.415 . S
C576 C581 1.425 . S
C576 C583 1.409 . S
C577 H569 0.930 . S
C577 C575 1.419 . S
C577 C578 1.362 . S
C578 H570 0.930 . S
C578 C577 1.362 . S
C578 C581 1.409 . S
C579 H571 0.930 . S
C579 C580 1.355 . S
C579 C581 1.415 . S
C580 C579 1.355 . S
C580 C582 1.419 . S
C581 C576 1.425 . S
C581 C578 1.409 . S
C581 C579 1.415 . S
C582 H572 0.930 . S
C582 C580 1.419 . S
C582 C583 1.362 . S
C583 H573 0.930 . S
C583 C576 1.409 . S
C583 C582 1.362 . S
H584 C590 0.930 . S
H585 C593 0.930 . S
H586 C594 0.930 . S
H587 C595 0.921 1_455 S
H588 C598 0.930 . S
H589 C599 0.930 . S
C590 H584 0.930 . S
C590 C591 1.355 . S
C590 C592 1.415 . S
C591 C590 1.355 . S
C591 C593 1.419 . S
C592 C590 1.415 . S
C592 C597 1.425 . S
C592 C599 1.409 . S
C593 H585 0.930 . S
C593 C591 1.419 . S
C593 C594 1.362 . S
C594 H586 0.930 . S
C594 C593 1.362 . S
C594 C597 1.409 . S
C595 H587 0.921 1_655 S
C595 C596 1.355 . S
C595 C597 1.415 . S
C596 C595 1.355 . S
C596 C598 1.419 . S
C597 C592 1.425 . S
C597 C594 1.409 . S
C597 C595 1.415 . S
C598 H588 0.930 . S
C598 C596 1.419 . S
C598 C599 1.362 . S
C599 H589 0.930 . S
C599 C592 1.409 . S
C599 C598 1.362 . S
H600 C606 0.930 . S
H601 C609 0.930 1_565 S
H602 C610 0.930 . S
H603 C611 0.930 . S
H604 C614 0.930 . S
H605 C615 0.930 . S
C606 H600 0.930 . S
C606 C607 1.355 . S
C606 C608 1.415 . S
C607 C606 1.355 . S
C607 C609 1.419 . S
C608 C606 1.415 . S
C608 C613 1.425 1_556 S
C608 C615 1.409 . S
C609 H601 0.930 1_545 S
C609 C607 1.419 . S
C609 C610 1.362 1_556 S
C610 H602 0.930 . S
C610 C609 1.362 1_554 S
C610 C613 1.409 . S
C611 H603 0.930 . S
C611 C612 1.355 . S
C611 C613 1.415 . S
C612 C611 1.355 . S
C612 C614 1.419 . S
C613 C608 1.425 1_554 S
C613 C610 1.409 . S
C613 C611 1.415 . S
C614 H604 0.930 . S
C614 C612 1.419 . S
C614 C615 1.362 1_554 S
C615 H605 0.930 . S
C615 C608 1.409 . S
C615 C614 1.362 1_556 S
H616 C622 0.930 . S
H617 C625 0.931 . S
H618 C626 0.930 . S
H619 C627 0.930 . S
H620 C630 0.930 1_655 S
H621 C631 0.930 . S
C622 H616 0.930 . S
C622 C623 1.355 . S
C622 C624 1.415 . S
C623 C622 1.355 . S
C623 C625 1.416 1_556 S
C624 C622 1.415 . S
C624 C629 1.425 1_556 S
C624 C631 1.409 . S
C625 H617 0.931 . S
C625 C623 1.416 1_554 S
C625 C626 1.364 . S
C626 H618 0.930 . S
C626 C625 1.364 . S
C626 C629 1.409 . S
C627 H619 0.930 . S
C627 C628 1.355 . S
C627 C629 1.415 . S
C628 C627 1.355 . S
C628 C630 1.419 1_554 S
C629 C624 1.425 1_554 S
C629 C626 1.409 . S
C629 C627 1.415 . S
C630 H620 0.930 1_455 S
C630 C628 1.419 1_556 S
C630 C631 1.362 . S
C631 H621 0.930 . S
C631 C624 1.409 . S
C631 C630 1.362 . S
H632 C638 0.930 . S
H633 C641 0.930 . S
H634 C642 0.930 . S
H635 C643 0.930 . S
H636 C646 0.930 . S
H637 C647 0.930 . S
C638 H632 0.930 . S
C638 C639 1.355 . S
C638 C640 1.407 1_554 S
C639 C638 1.355 . S
C639 C641 1.419 . S
C640 C638 1.407 1_556 S
C640 C645 1.423 1_556 S
C640 C647 1.420 . S
C641 H633 0.930 . S
C641 C639 1.419 . S
C641 C642 1.362 . S
C642 H634 0.930 . S
C642 C641 1.362 . S
C642 C645 1.409 . S
C643 H635 0.930 . S
C643 C644 1.355 . S
C643 C645 1.415 1_556 S
C644 C643 1.355 . S
C644 C646 1.419 . S
C645 C640 1.423 1_554 S
C645 C642 1.409 . S
C645 C643 1.415 1_554 S
C646 H636 0.930 . S
C646 C644 1.419 . S
C646 C647 1.362 . S
C647 H637 0.930 . S
C647 C640 1.420 . S
C647 C646 1.362 . S
H648 C654 0.930 1_554 S
H649 C657 0.930 . S
H650 C658 0.930 . S
H651 C659 0.930 1_456 S
H652 C662 0.930 . S
H653 C663 0.930 . S
C654 H648 0.930 1_556 S
C654 C655 1.355 . S
C654 C656 1.415 1_556 S
C655 C654 1.355 . S
C655 C657 1.419 . S
C656 C654 1.415 1_554 S
C656 C661 1.425 1_554 S
C656 C663 1.409 . S
C657 H649 0.930 . S
C657 C655 1.419 . S
C657 C658 1.362 . S
C658 H650 0.930 . S
C658 C657 1.362 . S
C658 C661 1.409 . S
C659 H651 0.930 1_654 S
C659 C660 1.355 . S
C659 C661 1.415 1_554 S
C660 C659 1.355 . S
C660 C662 1.419 . S
C661 C656 1.425 1_556 S
C661 C658 1.409 . S
C661 C659 1.415 1_556 S
C662 H652 0.930 . S
C662 C660 1.419 . S
C662 C663 1.362 . S
C663 H653 0.930 . S
C663 C656 1.409 . S
C663 C662 1.362 . S
H664 C670 0.930 . S
H665 C673 0.930 . S
H666 C674 0.930 . S
H667 C675 0.930 . S
H668 C678 0.930 . S
H669 C679 0.930 . S
C670 H664 0.930 . S
C670 C671 1.355 . S
C670 C672 1.415 . S
C671 C670 1.355 . S
C671 C673 1.419 . S
C672 C670 1.415 . S
C672 C677 1.425 . S
C672 C679 1.409 . S
C673 H665 0.930 . S
C673 C671 1.419 . S
C673 C674 1.362 . S
C674 H666 0.930 . S
C674 C673 1.362 . S
C674 C677 1.409 . S
C675 H667 0.930 . S
C675 C676 1.355 . S
C675 C677 1.415 . S
C676 C675 1.355 . S
C676 C678 1.419 . S
C677 C672 1.425 . S
C677 C674 1.409 . S
C677 C675 1.415 . S
C678 H668 0.930 . S
C678 C676 1.419 . S
C678 C679 1.362 . S
C679 H669 0.930 . S
C679 C672 1.409 . S
C679 C678 1.362 . S
H680 C686 0.930 . S
H681 C689 0.930 . S
H682 C690 0.930 . S
H683 C691 0.930 . S
H684 C694 0.930 . S
H685 C695 0.930 . S
C686 H680 0.930 . S
C686 C687 1.355 . S
C686 C688 1.415 . S
C687 C686 1.355 . S
C687 C689 1.419 . S
C688 C686 1.415 . S
C688 C693 1.425 . S
C688 C695 1.409 . S
C689 H681 0.930 . S
C689 C687 1.419 . S
C689 C690 1.362 . S
C690 H682 0.930 . S
C690 C689 1.362 . S
C690 C693 1.409 . S
C691 H683 0.930 . S
C691 C692 1.355 . S
C691 C693 1.415 . S
C692 C691 1.355 . S
C692 C694 1.419 . S
C693 C688 1.425 . S
C693 C690 1.409 . S
C693 C691 1.415 . S
C694 H684 0.930 . S
C694 C692 1.419 . S
C694 C695 1.362 . S
C695 H685 0.930 . S
C695 C688 1.409 . S
C695 C694 1.362 . S
H696 C702 0.930 . S
H697 C705 0.930 . S
H698 C706 0.930 . S
H699 C707 0.930 . S
H700 C710 0.930 . S
H701 C711 0.930 . S
C702 H696 0.930 . S
C702 C703 1.355 . S
C702 C704 1.415 . S
C703 C702 1.355 . S
C703 C705 1.419 . S
C704 C702 1.415 . S
C704 C709 1.425 . S
C704 C711 1.409 . S
C705 H697 0.930 . S
C705 C703 1.419 . S
C705 C706 1.362 . S
C706 H698 0.930 . S
C706 C705 1.362 . S
C706 C709 1.409 . S
C707 H699 0.930 . S
C707 C708 1.355 . S
C707 C709 1.415 . S
C708 C707 1.355 . S
C708 C710 1.419 . S
C709 C704 1.425 . S
C709 C706 1.409 . S
C709 C707 1.415 . S
C710 H700 0.930 . S
C710 C708 1.419 . S
C710 C711 1.362 . S
C711 H701 0.930 . S
C711 C704 1.409 . S
C711 C710 1.362 . S
H712 C718 0.930 . S
H713 C721 0.930 . S
H714 C722 0.930 . S
H715 C723 0.930 . S
H716 C726 0.930 . S
H717 C727 0.930 . S
C718 H712 0.930 . S
C718 C719 1.355 . S
C718 C720 1.415 . S
C719 C718 1.355 . S
C719 C721 1.419 . S
C720 C718 1.415 . S
C720 C725 1.425 . S
C720 C727 1.409 . S
C721 H713 0.930 . S
C721 C719 1.419 . S
C721 C722 1.362 . S
C722 H714 0.930 . S
C722 C721 1.362 . S
C722 C725 1.409 . S
C723 H715 0.930 . S
C723 C724 1.355 . S
C723 C725 1.415 . S
C724 C723 1.355 . S
C724 C726 1.419 . S
C725 C720 1.425 . S
C725 C722 1.409 . S
C725 C723 1.415 . S
C726 H716 0.930 . S
C726 C724 1.419 . S
C726 C727 1.362 . S
C727 H717 0.930 . S
C727 C720 1.409 . S
C727 C726 1.362 . S
C479 C123 1.508 . S
C484 C5 1.518 . S
C495 C182 1.469 . S
C500 C64 1.475 . S
C511 C241 1.489 . S
C516 C359 1.501 . S
C527 C300 1.468 . S
C532 C418 1.468 . S
C543 C92 1.394 1_545 S
C548 C52 1.362 . S
C559 C111 1.362 . S
C564 C151 1.394 1_455 S
C575 C210 1.395 1_565 S
C580 C170 1.378 . S
C591 C229 1.365 . S
C596 C33 1.395 1_655 S
C607 C446 1.391 1_545 S
C612 C288 1.400 . S
C623 C347 1.388 . S
C628 C269 1.390 1_455 S
C639 C406 1.399 . S
C644 C328 1.392 1_565 S
C655 C465 1.362 . S
C660 C387 1.394 1_655 S
C671 C3 1.626 . S
C676 C298 1.641 . S
C687 C357 1.625 . S
C692 C62 1.641 . S
C703 C121 1.607 . S
C708 C416 1.629 . S
C719 C180 1.629 . S
C724 C239 1.607 . S
