# Generated by pormake.
# Topology umn, (4)-cn, num edge types: 1
# Building blocks:
#     Node 0, Type 0, BuildingBlock: GALJAG_clean_sbu_0, # of connection points: 4
#     Node 1, Type 0, BuildingBlock: GALJAG_clean_sbu_0, # of connection points: 4
#     Node 2, Type 0, BuildingBlock: GALJAG_clean_sbu_0, # of connection points: 4
#     Node 3, Type 0, BuildingBlock: GALJAG_clean_sbu_0, # of connection points: 4
#     Node 4, Type 0, BuildingBlock: GALJAG_clean_sbu_0, # of connection points: 4
#     Node 5, Type 0, BuildingBlock: GALJAG_clean_sbu_0, # of connection points: 4
#     Node 6, Type 0, BuildingBlock: GALJAG_clean_sbu_0, # of connection points: 4
#     Node 7, Type 0, BuildingBlock: GALJAG_clean_sbu_0, # of connection points: 4
#     Node 8, Type 0, BuildingBlock: GALJAG_clean_sbu_0, # of connection points: 4
#     Node 9, Type 0, BuildingBlock: GALJAG_clean_sbu_0, # of connection points: 4
#     Node 10, Type 0, BuildingBlock: GALJAG_clean_sbu_0, # of connection points: 4
#     Node 11, Type 0, BuildingBlock: GALJAG_clean_sbu_0, # of connection points: 4
#     Node 12, Type 0, BuildingBlock: GALJAG_clean_sbu_0, # of connection points: 4
#     Node 13, Type 0, BuildingBlock: GALJAG_clean_sbu_0, # of connection points: 4
#     Node 14, Type 0, BuildingBlock: GALJAG_clean_sbu_0, # of connection points: 4
#     Node 15, Type 0, BuildingBlock: GALJAG_clean_sbu_0, # of connection points: 4
#     Node 16, Type 0, BuildingBlock: GALJAG_clean_sbu_0, # of connection points: 4
#     Node 17, Type 0, BuildingBlock: GALJAG_clean_sbu_0, # of connection points: 4
#     Node 18, Type 0, BuildingBlock: GALJAG_clean_sbu_0, # of connection points: 4
#     Node 19, Type 0, BuildingBlock: GALJAG_clean_sbu_0, # of connection points: 4
#     Node 20, Type 0, BuildingBlock: GALJAG_clean_sbu_0, # of connection points: 4
#     Node 21, Type 0, BuildingBlock: GALJAG_clean_sbu_0, # of connection points: 4
#     Node 22, Type 0, BuildingBlock: GALJAG_clean_sbu_0, # of connection points: 4
#     Node 23, Type 0, BuildingBlock: GALJAG_clean_sbu_0, # of connection points: 4
#     Node 24, Type 0, BuildingBlock: GALJAG_clean_sbu_0, # of connection points: 4
#     Node 25, Type 0, BuildingBlock: GALJAG_clean_sbu_0, # of connection points: 4
#     Node 26, Type 0, BuildingBlock: GALJAG_clean_sbu_0, # of connection points: 4
#     Node 27, Type 0, BuildingBlock: GALJAG_clean_sbu_0, # of connection points: 4
#     Node 28, Type 0, BuildingBlock: GALJAG_clean_sbu_0, # of connection points: 4
#     Node 29, Type 0, BuildingBlock: GALJAG_clean_sbu_0, # of connection points: 4
#     Node 30, Type 0, BuildingBlock: GALJAG_clean_sbu_0, # of connection points: 4
#     Node 31, Type 0, BuildingBlock: GALJAG_clean_sbu_0, # of connection points: 4
#     Node 32, Type 0, BuildingBlock: GALJAG_clean_sbu_0, # of connection points: 4
#     Node 33, Type 0, BuildingBlock: GALJAG_clean_sbu_0, # of connection points: 4
#     Node 34, Type 0, BuildingBlock: GALJAG_clean_sbu_0, # of connection points: 4
#     Node 35, Type 0, BuildingBlock: GALJAG_clean_sbu_0, # of connection points: 4
#     Edge 36, Type (0, 0), BuildingBlock: XUDNAN_clean_linker_2, # of connection points: 2
#     Edge 37, Type (0, 0), BuildingBlock: XUDNAN_clean_linker_2, # of connection points: 2
#     Edge 38, Type (0, 0), BuildingBlock: XUDNAN_clean_linker_2, # of connection points: 2
#     Edge 39, Type (0, 0), BuildingBlock: XUDNAN_clean_linker_2, # of connection points: 2
#     Edge 40, Type (0, 0), BuildingBlock: XUDNAN_clean_linker_2, # of connection points: 2
#     Edge 41, Type (0, 0), BuildingBlock: XUDNAN_clean_linker_2, # of connection points: 2
#     Edge 42, Type (0, 0), BuildingBlock: XUDNAN_clean_linker_2, # of connection points: 2
#     Edge 43, Type (0, 0), BuildingBlock: XUDNAN_clean_linker_2, # of connection points: 2
#     Edge 44, Type (0, 0), BuildingBlock: XUDNAN_clean_linker_2, # of connection points: 2
#     Edge 45, Type (0, 0), BuildingBlock: XUDNAN_clean_linker_2, # of connection points: 2
#     Edge 46, Type (0, 0), BuildingBlock: XUDNAN_clean_linker_2, # of connection points: 2
#     Edge 47, Type (0, 0), BuildingBlock: XUDNAN_clean_linker_2, # of connection points: 2
#     Edge 48, Type (0, 0), BuildingBlock: XUDNAN_clean_linker_2, # of connection points: 2
#     Edge 49, Type (0, 0), BuildingBlock: XUDNAN_clean_linker_2, # of connection points: 2
#     Edge 50, Type (0, 0), BuildingBlock: XUDNAN_clean_linker_2, # of connection points: 2
#     Edge 51, Type (0, 0), BuildingBlock: XUDNAN_clean_linker_2, # of connection points: 2
#     Edge 52, Type (0, 0), BuildingBlock: XUDNAN_clean_linker_2, # of connection points: 2
#     Edge 53, Type (0, 0), BuildingBlock: XUDNAN_clean_linker_2, # of connection points: 2
#     Edge 54, Type (0, 0), BuildingBlock: XUDNAN_clean_linker_2, # of connection points: 2
#     Edge 55, Type (0, 0), BuildingBlock: XUDNAN_clean_linker_2, # of connection points: 2
#     Edge 56, Type (0, 0), BuildingBlock: XUDNAN_clean_linker_2, # of connection points: 2
#     Edge 57, Type (0, 0), BuildingBlock: XUDNAN_clean_linker_2, # of connection points: 2
#     Edge 58, Type (0, 0), BuildingBlock: XUDNAN_clean_linker_2, # of connection points: 2
#     Edge 59, Type (0, 0), BuildingBlock: XUDNAN_clean_linker_2, # of connection points: 2
#     Edge 60, Type (0, 0), BuildingBlock: XUDNAN_clean_linker_2, # of connection points: 2
#     Edge 61, Type (0, 0), BuildingBlock: XUDNAN_clean_linker_2, # of connection points: 2
#     Edge 62, Type (0, 0), BuildingBlock: XUDNAN_clean_linker_2, # of connection points: 2
#     Edge 63, Type (0, 0), BuildingBlock: XUDNAN_clean_linker_2, # of connection points: 2
#     Edge 64, Type (0, 0), BuildingBlock: XUDNAN_clean_linker_2, # of connection points: 2
#     Edge 65, Type (0, 0), BuildingBlock: XUDNAN_clean_linker_2, # of connection points: 2
#     Edge 66, Type (0, 0), BuildingBlock: XUDNAN_clean_linker_2, # of connection points: 2
#     Edge 67, Type (0, 0), BuildingBlock: XUDNAN_clean_linker_2, # of connection points: 2
#     Edge 68, Type (0, 0), BuildingBlock: XUDNAN_clean_linker_2, # of connection points: 2
#     Edge 69, Type (0, 0), BuildingBlock: XUDNAN_clean_linker_2, # of connection points: 2
#     Edge 70, Type (0, 0), BuildingBlock: XUDNAN_clean_linker_2, # of connection points: 2
#     Edge 71, Type (0, 0), BuildingBlock: XUDNAN_clean_linker_2, # of connection points: 2
#     Edge 72, Type (0, 0), BuildingBlock: XUDNAN_clean_linker_2, # of connection points: 2
#     Edge 73, Type (0, 0), BuildingBlock: XUDNAN_clean_linker_2, # of connection points: 2
#     Edge 74, Type (0, 0), BuildingBlock: XUDNAN_clean_linker_2, # of connection points: 2
#     Edge 75, Type (0, 0), BuildingBlock: XUDNAN_clean_linker_2, # of connection points: 2
#     Edge 76, Type (0, 0), BuildingBlock: XUDNAN_clean_linker_2, # of connection points: 2
#     Edge 77, Type (0, 0), BuildingBlock: XUDNAN_clean_linker_2, # of connection points: 2
#     Edge 78, Type (0, 0), BuildingBlock: XUDNAN_clean_linker_2, # of connection points: 2
#     Edge 79, Type (0, 0), BuildingBlock: XUDNAN_clean_linker_2, # of connection points: 2
#     Edge 80, Type (0, 0), BuildingBlock: XUDNAN_clean_linker_2, # of connection points: 2
#     Edge 81, Type (0, 0), BuildingBlock: XUDNAN_clean_linker_2, # of connection points: 2
#     Edge 82, Type (0, 0), BuildingBlock: XUDNAN_clean_linker_2, # of connection points: 2
#     Edge 83, Type (0, 0), BuildingBlock: XUDNAN_clean_linker_2, # of connection points: 2
#     Edge 84, Type (0, 0), BuildingBlock: XUDNAN_clean_linker_2, # of connection points: 2
#     Edge 85, Type (0, 0), BuildingBlock: XUDNAN_clean_linker_2, # of connection points: 2
#     Edge 86, Type (0, 0), BuildingBlock: XUDNAN_clean_linker_2, # of connection points: 2
#     Edge 87, Type (0, 0), BuildingBlock: XUDNAN_clean_linker_2, # of connection points: 2
#     Edge 88, Type (0, 0), BuildingBlock: XUDNAN_clean_linker_2, # of connection points: 2
#     Edge 89, Type (0, 0), BuildingBlock: XUDNAN_clean_linker_2, # of connection points: 2
#     Edge 90, Type (0, 0), BuildingBlock: XUDNAN_clean_linker_2, # of connection points: 2
#     Edge 91, Type (0, 0), BuildingBlock: XUDNAN_clean_linker_2, # of connection points: 2
#     Edge 92, Type (0, 0), BuildingBlock: XUDNAN_clean_linker_2, # of connection points: 2
#     Edge 93, Type (0, 0), BuildingBlock: XUDNAN_clean_linker_2, # of connection points: 2
#     Edge 94, Type (0, 0), BuildingBlock: XUDNAN_clean_linker_2, # of connection points: 2
#     Edge 95, Type (0, 0), BuildingBlock: XUDNAN_clean_linker_2, # of connection points: 2
#     Edge 96, Type (0, 0), BuildingBlock: XUDNAN_clean_linker_2, # of connection points: 2
#     Edge 97, Type (0, 0), BuildingBlock: XUDNAN_clean_linker_2, # of connection points: 2
#     Edge 98, Type (0, 0), BuildingBlock: XUDNAN_clean_linker_2, # of connection points: 2
#     Edge 99, Type (0, 0), BuildingBlock: XUDNAN_clean_linker_2, # of connection points: 2
#     Edge 100, Type (0, 0), BuildingBlock: XUDNAN_clean_linker_2, # of connection points: 2
#     Edge 101, Type (0, 0), BuildingBlock: XUDNAN_clean_linker_2, # of connection points: 2
#     Edge 102, Type (0, 0), BuildingBlock: XUDNAN_clean_linker_2, # of connection points: 2
#     Edge 103, Type (0, 0), BuildingBlock: XUDNAN_clean_linker_2, # of connection points: 2
#     Edge 104, Type (0, 0), BuildingBlock: XUDNAN_clean_linker_2, # of connection points: 2
#     Edge 105, Type (0, 0), BuildingBlock: XUDNAN_clean_linker_2, # of connection points: 2
#     Edge 106, Type (0, 0), BuildingBlock: XUDNAN_clean_linker_2, # of connection points: 2
#     Edge 107, Type (0, 0), BuildingBlock: XUDNAN_clean_linker_2, # of connection points: 2
# Relax obj value: 0.191
# Max RMSD: 0.184
# Mean RMSD: 0.184
data_MOF--net-umn--node1-GALJAG_clean_sbu_0--edge1-XUDNAN_clean_linker_2
_symmetry_space_group_name_H-M    P1
_symmetry_Int_Tables_number       1
_symmetry_cell_setting            triclinic
loop_
_symmetry_equiv_pos_as_xyz
'x, y, z'
_cell_length_a     84.022118
_cell_length_b     83.924204
_cell_length_c     36.499421
_cell_angle_alpha  89.935708
_cell_angle_beta   90.024777
_cell_angle_gamma 120.02293
loop_
_atom_site_label
_atom_site_type_symbol
_atom_site_fract_x
_atom_site_fract_y
_atom_site_fract_z
_atom_type_partial_charge
In0 In 0.34431 0.08673 0.2367 0.0
O1 O 0.34864 0.08833 0.29967 0.0
O2 O 0.32287 0.083 0.27782 0.0
C3 C 0.37368 0.0894 0.20021 0.0
C4 C 0.34498 0.11814 0.22144 0.0
C5 C 0.3197 0.05215 0.21904 0.0
O6 O 0.37041 0.08398 0.23319 0.0
O7 O 0.36281 0.09411 0.18696 0.0
O8 O 0.32132 0.06544 0.19987 0.0
O9 O 0.3306 0.05639 0.24568 0.0
C10 C 0.33237 0.08499 0.30604 0.0
O11 O 0.33338 0.10294 0.20721 0.0
O12 O 0.35656 0.11751 0.24275 0.0
In13 In 0.8926 0.24939 0.24025 0.0
O14 O 0.882 0.24479 0.29923 0.0
O15 O 0.89398 0.2292 0.27786 0.0
C16 C 0.89452 0.27289 0.18885 0.0
C17 C 0.86648 0.21913 0.20911 0.0
C18 C 0.92636 0.2718 0.26297 0.0
O19 O 0.88436 0.26959 0.21704 0.0
O20 O 0.90315 0.2641 0.18689 0.0
O21 O 0.9228 0.25853 0.24124 0.0
O22 O 0.91285 0.27378 0.27204 0.0
C23 C 0.8869 0.23283 0.30499 0.0
O24 O 0.8834 0.22395 0.20576 0.0
O25 O 0.86308 0.23004 0.22709 0.0
In26 In 0.73314 0.64096 0.23265 0.0
O27 O 0.75561 0.65923 0.19226 0.0
O28 O 0.75904 0.63946 0.22248 0.0
C29 C 0.73278 0.67276 0.23279 0.0
C30 C 0.7347 0.63592 0.30579 0.0
C31 C 0.70448 0.61296 0.1957 0.0
O32 O 0.74258 0.66964 0.25444 0.0
O33 O 0.72385 0.66016 0.20976 0.0
O34 O 0.70244 0.62259 0.21957 0.0
O35 O 0.72085 0.6165 0.19217 0.0
C36 C 0.76578 0.6526 0.19979 0.0
O37 O 0.74425 0.63313 0.28282 0.0
O38 O 0.72288 0.63904 0.29153 0.0
In39 In 0.09123 0.36899 0.2771 0.0
O40 O 0.09413 0.37963 0.21779 0.0
O41 O 0.07916 0.35079 0.2275 0.0
C42 C 0.10157 0.39838 0.32099 0.0
C43 C 0.11876 0.36187 0.28374 0.0
C44 C 0.0568 0.3487 0.30213 0.0
O45 O 0.09543 0.39764 0.28896 0.0
O46 O 0.10334 0.3848 0.3298 0.0
O47 O 0.0674 0.34216 0.29914 0.0
O48 O 0.06366 0.36535 0.29306 0.0
C49 C 0.08513 0.3636 0.20433 0.0
O50 O 0.10367 0.35264 0.30052 0.0
O51 O 0.12008 0.37499 0.26445 0.0
In52 In 0.63502 0.73878 0.28308 0.0
O53 O 0.63181 0.7371 0.2198 0.0
O54 O 0.65597 0.75898 0.24432 0.0
C55 C 0.60903 0.71126 0.32385 0.0
C56 C 0.63194 0.76753 0.30359 0.0
C57 C 0.66041 0.72888 0.28738 0.0
O58 O 0.60723 0.71195 0.28938 0.0
O59 O 0.62344 0.72459 0.33704 0.0
O60 O 0.66171 0.74213 0.30638 0.0
O61 O 0.64588 0.72025 0.26868 0.0
C62 C 0.64764 0.75121 0.21517 0.0
O63 O 0.64404 0.76431 0.31657 0.0
O64 O 0.62079 0.75567 0.28116 0.0
In65 In 0.26679 0.8927 0.28078 0.0
O66 O 0.27049 0.88663 0.2206 0.0
O67 O 0.24376 0.87937 0.23996 0.0
C68 C 0.29584 0.90095 0.32488 0.0
C69 C 0.23909 0.86602 0.31875 0.0
C70 C 0.27259 0.92538 0.25871 0.0
O71 O 0.29135 0.88924 0.29927 0.0
O72 O 0.28596 0.90831 0.32727 0.0
O73 O 0.26192 0.91701 0.28534 0.0
O74 O 0.28101 0.9178 0.24542 0.0
C75 C 0.25369 0.88074 0.21293 0.0
O76 O 0.2418 0.8823 0.31753 0.0
O77 O 0.25085 0.86353 0.30194 0.0
In78 In 0.64391 0.9095 0.77906 0.0
O79 O 0.62729 0.89521 0.72719 0.0
O80 O 0.65578 0.90362 0.72907 0.0
C81 C 0.62044 0.91155 0.82712 0.0
C82 C 0.65726 0.89075 0.81508 0.0
C83 C 0.66253 0.94401 0.75387 0.0
O84 O 0.61501 0.89835 0.80468 0.0
O85 O 0.63731 0.92324 0.82514 0.0
O86 O 0.66939 0.93798 0.77718 0.0
O87 O 0.64616 0.93286 0.7446 0.0
C88 C 0.64122 0.89675 0.7104 0.0
O89 O 0.66611 0.90807 0.81212 0.0
O90 O 0.64143 0.88297 0.80092 0.0
In91 In 0.08583 0.72799 0.80249 0.0
O92 O 0.09858 0.75411 0.83661 0.0
O93 O 0.11629 0.74512 0.8147 0.0
C94 C 0.05781 0.73445 0.81244 0.0
C95 C 0.09129 0.73035 0.72888 0.0
C96 C 0.07846 0.69597 0.83601 0.0
O97 O 0.06089 0.7245 0.83392 0.0
O98 O 0.06951 0.74196 0.7873 0.0
O99 O 0.09233 0.71127 0.84344 0.0
O100 O 0.06887 0.69654 0.81004 0.0
C101 C 0.11482 0.75718 0.83267 0.0
O102 O 0.07597 0.71939 0.74312 0.0
O103 O 0.10408 0.73851 0.75172 0.0
In104 In 0.24929 0.33951 0.77105 0.0
O105 O 0.24664 0.35021 0.71424 0.0
O106 O 0.22643 0.3232 0.7314 0.0
C107 C 0.2766 0.36476 0.81369 0.0
C108 C 0.22029 0.33047 0.81412 0.0
C109 C 0.2645 0.32088 0.74365 0.0
O110 O 0.26892 0.36954 0.78952 0.0
O111 O 0.27067 0.34769 0.81544 0.0
O112 O 0.25313 0.31454 0.76998 0.0
O113 O 0.26878 0.33687 0.73298 0.0
C114 C 0.23233 0.33506 0.70614 0.0
O115 O 0.22761 0.32048 0.81188 0.0
O116 O 0.22802 0.34517 0.79555 0.0
In117 In 0.89796 0.63807 0.75443 0.0
O118 O 0.88431 0.65214 0.72674 0.0
O119 O 0.86694 0.62635 0.75282 0.0
C120 C 0.93215 0.66686 0.75657 0.0
C121 C 0.89756 0.63798 0.82843 0.0
C122 C 0.89816 0.61387 0.70551 0.0
O123 O 0.91931 0.66806 0.74122 0.0
O124 O 0.92792 0.65105 0.76791 0.0
O125 O 0.89207 0.60917 0.73775 0.0
O126 O 0.90399 0.63057 0.69821 0.0
C127 C 0.86816 0.63985 0.73499 0.0
O128 O 0.90067 0.62701 0.81019 0.0
O129 O 0.89303 0.64761 0.80936 0.0
In130 In 0.35962 0.25846 0.71628 0.0
O131 O 0.36208 0.25345 0.77764 0.0
O132 O 0.35488 0.27346 0.76324 0.0
C133 C 0.38968 0.28395 0.67892 0.0
C134 C 0.35463 0.22453 0.70717 0.0
C135 C 0.32981 0.25854 0.68941 0.0
O136 O 0.38417 0.28773 0.70804 0.0
O137 O 0.38085 0.26719 0.67027 0.0
O138 O 0.32914 0.24903 0.71671 0.0
O139 O 0.34535 0.26715 0.67422 0.0
C140 C 0.35693 0.26443 0.78851 0.0
O141 O 0.34422 0.22966 0.693 0.0
O142 O 0.3679 0.2367 0.72557 0.0
In143 In 0.73295 0.10608 0.74881 0.0
O144 O 0.76079 0.11629 0.72152 0.0
O145 O 0.75601 0.13576 0.74947 0.0
C146 C 0.72788 0.07458 0.7189 0.0
C147 C 0.73378 0.10263 0.82276 0.0
C148 C 0.7075 0.11239 0.71645 0.0
O149 O 0.73864 0.08232 0.74544 0.0
O150 O 0.72051 0.08331 0.70616 0.0
O151 O 0.70336 0.1009 0.74225 0.0
O152 O 0.7244 0.12137 0.70924 0.0
C153 C 0.76707 0.13277 0.73151 0.0
O154 O 0.74163 0.1179 0.80646 0.0
O155 O 0.7236 0.08925 0.80236 0.0
In156 In 0.0218 0.42828 0.54832 0.0
O157 O -0.00174 0.42884 0.51917 0.0
O158 O 0.02067 0.45432 0.53791 0.0
C159 C 0.00934 0.39206 0.54647 0.0
C160 C 0.01542 0.43154 0.61934 0.0
C161 C 0.05228 0.43902 0.50728 0.0
O162 O 0.0045 0.39982 0.52285 0.0
O163 O 0.02046 0.40252 0.57039 0.0
O164 O 0.05289 0.43909 0.54194 0.0
O165 O 0.03672 0.43447 0.49417 0.0
C166 C 0.00518 0.44606 0.52226 0.0
O167 O 0.03127 0.4413 0.60538 0.0
O168 O 0.00323 0.42063 0.59741 0.0
In169 In 0.56246 0.5929 0.56273 0.0
O170 O 0.55129 0.5664 0.53083 0.0
O171 O 0.53247 0.57461 0.5516 0.0
C172 C 0.59769 0.61009 0.58031 0.0
C173 C 0.55523 0.57879 0.63055 0.0
C174 C 0.56344 0.61602 0.51086 0.0
O175 O 0.59107 0.59654 0.55827 0.0
O176 O 0.58678 0.61542 0.59083 0.0
O177 O 0.55823 0.61664 0.54332 0.0
O178 O 0.56813 0.60407 0.50531 0.0
C179 C 0.53475 0.56278 0.53431 0.0
O180 O 0.55258 0.59203 0.622 0.0
O181 O 0.56067 0.57267 0.60467 0.0
In182 In 0.40859 0.97732 0.57557 0.0
O183 O 0.41282 0.96787 0.63266 0.0
O184 O 0.42687 -0.00348 0.61888 0.0
C185 C 0.38684 0.954 0.52325 0.0
C186 C 0.44035 0.9926 0.53946 0.0
C187 C 0.38399 0.98592 0.59879 0.0
O188 O 0.39264 0.94824 0.54955 0.0
O189 O 0.39239 0.97104 0.52372 0.0
O190 O 0.39768 -0.00305 0.57944 0.0
O191 O 0.38265 0.9705 0.60557 0.0
C192 C 0.42355 0.98441 0.64288 0.0
O193 O 0.43059 0.0002 0.54162 0.0
O194 O 0.43368 0.97694 0.55464 0.0
In195 In 0.7623 0.69254 0.62375 0.0
O196 O 0.75418 0.69346 0.56388 0.0
O197 O 0.77841 0.69236 0.57331 0.0
C198 C 0.76929 0.72491 0.65521 0.0
C199 C 0.78066 0.67779 0.65624 0.0
C200 C 0.72711 0.66741 0.63749 0.0
O201 O 0.77853 0.71721 0.66196 0.0
O202 O 0.75753 0.71718 0.63022 0.0
O203 O 0.73657 0.68053 0.65912 0.0
O204 O 0.73568 0.66656 0.60994 0.0
C205 C 0.76697 0.69168 0.55018 0.0
O206 O 0.78864 0.69261 0.63815 0.0
O207 O 0.76343 0.67058 0.65847 0.0
In208 In 0.29036 0.05826 0.63832 0.0
O209 O 0.27844 0.05927 0.58161 0.0
O210 O 0.30514 0.06261 0.58405 0.0
C211 C 0.26068 0.03863 0.68199 0.0
C212 C 0.30641 0.09315 0.66207 0.0
C213 C 0.30743 0.03915 0.65167 0.0
O214 O 0.26162 0.03358 0.64983 0.0
O215 O 0.27397 0.05412 0.6908 0.0
O216 O 0.31576 0.05651 0.65237 0.0
O217 O 0.2905 0.03148 0.64464 0.0
C218 C 0.29265 0.06208 0.56423 0.0
O219 O 0.31185 0.08217 0.67135 0.0
O220 O 0.2925 0.0864 0.64126 0.0
In221 In 0.92808 0.22686 0.62556 0.0
O222 O 0.90607 0.22838 0.65857 0.0
O223 O 0.90193 0.20181 0.64467 0.0
C224 C 0.95154 0.26167 0.60666 0.0
C225 C 0.91365 0.21746 0.55801 0.0
C226 C 0.94923 0.221 0.67311 0.0
O227 O 0.93944 0.25768 0.6311 0.0
O228 O 0.95222 0.24821 0.59306 0.0
O229 O 0.94663 0.21477 0.64067 0.0
O230 O 0.94103 0.22968 0.6809 0.0
C231 C 0.89571 0.21109 0.66001 0.0
O232 O 0.92194 0.20987 0.57257 0.0
O233 O 0.91246 0.22911 0.57791 0.0
In234 In 0.31466 0.24122 0.11496 0.0
O235 O 0.32938 0.23378 0.15763 0.0
O236 O 0.30929 0.21204 0.1248 0.0
C237 C 0.34726 0.27265 0.11936 0.0
C238 C 0.31037 0.23961 0.04105 0.0
C239 C 0.28647 0.24144 0.15105 0.0
O240 O 0.33437 0.26858 0.14184 0.0
O241 O 0.3439 0.26056 0.09549 0.0
O242 O 0.29974 0.25556 0.13701 0.0
O243 O 0.28682 0.22676 0.1455 0.0
C244 C 0.32125 0.21689 0.14982 0.0
O245 O 0.30513 0.24819 0.06151 0.0
O246 O 0.31618 0.23047 0.05811 0.0
In247 In 0.76811 0.05541 0.11777 0.0
O248 O 0.78283 0.06635 0.06239 0.0
O249 O 0.75384 0.05079 0.06215 0.0
C250 C 0.77933 0.035 0.15548 0.0
C251 C 0.78546 0.09005 0.14301 0.0
C252 C 0.73294 0.0371 0.13901 0.0
O253 O 0.7733 0.0311 0.12304 0.0
O254 O 0.78139 0.05005 0.16706 0.0
O255 O 0.74163 0.05437 0.1349 0.0
O256 O 0.74203 0.02918 0.13263 0.0
C257 C 0.76823 0.06058 0.04408 0.0
O258 O 0.7684 0.07933 0.14704 0.0
O259 O 0.79393 0.08309 0.12719 0.0
In260 In 0.92708 0.69541 0.14593 0.0
O261 O 0.90069 0.68618 0.17705 0.0
O262 O 0.90823 0.70751 0.13766 0.0
C263 C 0.92011 0.66091 0.1582 0.0
C264 C 0.93251 0.69231 0.07373 0.0
C265 C 0.95489 0.72196 0.18629 0.0
O266 O 0.90851 0.66434 0.14386 0.0
O267 O 0.93478 0.67494 0.16847 0.0
O268 O 0.95411 0.72307 0.15187 0.0
O269 O 0.9414 0.70796 0.20009 0.0
C270 C 0.89643 0.69671 0.16049 0.0
O271 O 0.94184 0.69047 0.09868 0.0
O272 O 0.92169 0.69759 0.08489 0.0
In273 In 0.5692 0.97197 0.08084 0.0
O274 O 0.56435 0.97393 0.14115 0.0
O275 O 0.57723 -0.00121 0.10832 0.0
C276 C 0.57054 0.95261 0.02471 0.0
C277 C 0.5385 0.97083 0.06242 0.0
C278 C 0.60202 0.97945 0.10044 0.0
O279 O 0.56245 0.94479 0.05455 0.0
O280 O 0.57725 0.96998 0.02331 0.0
O281 O 0.59938 0.9898 0.0786 0.0
O282 O 0.5878 0.96476 0.11136 0.0
C283 C 0.57178 0.99146 0.13981 0.0
O284 O 0.55408 0.98333 0.05064 0.0
O285 O 0.53851 0.95843 0.08263 0.0
In286 In 0.98321 0.56792 0.04879 0.0
O287 O 0.96482 0.54372 0.01257 0.0
O288 O 0.9894 0.54544 0.03356 0.0
C289 C 0.96288 0.58326 0.06452 0.0
C290 C 0.97923 0.55637 0.11883 0.0
C291 C 0.00979 0.59335 1.00511 0.0
O292 O 0.95706 0.56973 0.04281 0.0
O293 O 0.97912 0.5895 0.07576 0.0
O294 O 0.01354 0.58819 0.03495 0.0
O295 O 0.99288 0.58554 0.99758 0.0
C296 C 0.97479 0.53641 0.01515 0.0
O297 O -0.00607 0.5704 0.10798 0.0
O298 O 0.96761 0.5479 0.09399 0.0
In299 In 0.39468 0.42839 0.06122 0.0
O300 O 0.37858 0.4229 0.11507 0.0
O301 O 0.4077 0.43711 0.11779 0.0
C302 C 0.36884 0.42146 1.00899 0.0
C303 C 0.42484 0.45985 0.04155 0.0
C304 C 0.39622 0.39752 0.0686 0.0
O305 O 0.37147 0.4322 0.03553 0.0
O306 O 0.37916 0.41461 1.00901 0.0
O307 O 0.40816 0.4109 0.05001 0.0
O308 O 0.38332 0.39948 0.08102 0.0
C309 C 0.39275 0.42942 0.13519 0.0
O310 O 0.42286 0.44414 0.03561 0.0
O311 O 0.41121 0.45975 0.0565 0.0
In312 In 0.70191 0.7738 0.89059 0.0
O313 O 0.68545 0.78606 0.86611 0.0
O314 O 0.71133 0.80413 0.89117 0.0
C315 C 0.68311 0.73753 0.88216 0.0
C316 C 0.69691 0.77244 0.96377 0.0
C317 C 0.72723 0.77753 0.84072 0.0
O318 O 0.67578 0.74727 0.87541 0.0
O319 O 0.6996 0.74614 0.8929 0.0
O320 O 0.73094 0.77997 0.87471 0.0
O321 O 0.71129 0.77431 0.83232 0.0
C322 C 0.69717 0.80236 0.87525 0.0
O323 O 0.71291 0.78033 0.94981 0.0
O324 O 0.68393 0.76551 0.94094 0.0
In325 In 0.22484 0.92111 0.90342 0.0
O326 O 0.2213 0.89536 0.87639 0.0
O327 O 0.19731 0.89449 0.8979 0.0
C328 C 0.2604 0.93538 0.8876 0.0
C329 C 0.22505 0.91598 0.97711 0.0
C330 C 0.21691 0.94378 0.86405 0.0
O331 O 0.24866 0.91882 0.88075 0.0
O332 O 0.25402 0.94483 0.90143 0.0
O333 O 0.21846 0.94483 0.89855 0.0
O334 O 0.21817 0.93071 0.85028 0.0
C335 C 0.20427 0.88593 0.88238 0.0
O336 O 0.21041 0.91169 0.95982 0.0
O337 O 0.23933 0.92408 0.95794 0.0
In338 In 0.06279 0.29666 0.88999 0.0
O339 O 0.09094 0.30937 0.86388 0.0
O340 O 0.08434 0.28927 0.90611 0.0
C341 C 0.04509 0.31183 0.85771 0.0
C342 C 0.06663 0.31321 0.95519 0.0
C343 C 0.04178 0.26428 0.8565 0.0
O344 O 0.06236 0.319 0.85465 0.0
O345 O 0.03713 0.29725 0.87636 0.0
O346 O 0.03849 0.26717 0.88904 0.0
O347 O 0.0562 0.27722 0.84235 0.0
C348 C 0.09613 0.30034 0.88351 0.0
O349 O 0.05845 0.29577 0.95282 0.0
O350 O 0.0727 0.32162 0.92533 0.0
In351 In 0.42373 0.01545 0.97475 0.0
O352 O 0.43873 0.03002 0.92093 0.0
O353 O 0.42258 0.00081 0.92221 0.0
C354 C 0.42374 0.04024 0.02247 0.0
C355 C 0.44511 0.00429 1.00697 0.0
C356 C 0.38789 0.99495 0.96119 0.0
O357 O 0.43 0.04473 0.99019 0.0
O358 O 0.41808 0.02364 0.03044 0.0
O359 O 0.39703 0.98839 0.97572 0.0
O360 O 0.39666 0.01208 0.95528 0.0
C361 C 0.43253 0.01497 0.90351 0.0
O362 O 0.42783 0.99559 1.00986 0.0
O363 O 0.45172 0.01907 0.98875 0.0
In364 In 0.9562 0.38536 0.93318 0.0
O365 O 0.96686 0.41141 0.96602 0.0
O366 O 0.94057 0.40028 0.93874 0.0
C367 C 0.97161 0.36647 0.91092 0.0
C368 C 0.96874 0.40317 0.87043 0.0
C369 C 0.93652 0.36144 0.98554 0.0
O370 O 0.97969 0.37972 0.93363 0.0
O371 O 0.95544 0.36238 0.90129 0.0
O372 O 0.92906 0.36238 0.95577 0.0
O373 O 0.95366 0.37266 0.9885 0.0
C374 C 0.95302 0.41312 0.95793 0.0
O375 O 0.95219 0.38984 0.87322 0.0
O376 O 0.97833 0.40747 0.89954 0.0
In377 In 0.58585 0.5731 0.96102 0.0
O378 O 0.58259 0.55731 0.90725 0.0
O379 O 0.57327 0.57676 0.90959 0.0
C380 C 0.6072 0.56975 0.01229 0.0
C381 C 0.55219 0.55402 0.99004 0.0
C382 C 0.60999 0.60782 0.94425 0.0
O383 O 0.60445 0.562 0.98121 0.0
O384 O 0.59863 0.57835 0.01749 0.0
O385 O 0.59526 0.60369 0.96131 0.0
O386 O 0.6125 0.59452 0.93702 0.0
C387 C 0.57538 0.56544 0.89048 0.0
O388 O 0.56115 0.57146 0.99046 0.0
O389 O 0.56054 0.54645 0.97616 0.0
In390 In 0.95495 0.5592 0.45416 0.0
O391 O 0.97158 0.547 0.47707 0.0
O392 O 0.94528 0.52867 0.45393 0.0
C393 C 0.98236 0.59409 0.45807 0.0
C394 C 0.95248 0.55524 0.38051 0.0
C395 C 0.93184 0.55939 0.50584 0.0
O396 O 0.98441 0.58086 0.46855 0.0
O397 O 0.96637 0.58964 0.44741 0.0
O398 O 0.93179 0.56447 0.47327 0.0
O399 O 0.94286 0.55362 0.51167 0.0
C400 C 0.95973 0.53063 0.46886 0.0
O401 O 0.93833 0.5474 0.40068 0.0
O402 O 0.96728 0.56501 0.39744 0.0
In403 In 0.42227 0.40045 0.45288 0.0
O404 O 0.42753 0.42683 0.47859 0.0
O405 O 0.45075 0.42648 0.45582 0.0
C406 C 0.38749 0.39174 0.46626 0.0
C407 C 0.41811 0.39748 0.37879 0.0
C408 C 0.43049 0.37974 0.49781 0.0
O409 O 0.40007 0.408 0.46001 0.0
O410 O 0.39261 0.37994 0.46691 0.0
O411 O 0.4327 0.37998 0.46348 0.0
O412 O 0.42515 0.39047 0.50888 0.0
C413 C 0.4445 0.43564 0.47167 0.0
O414 O 0.4079 0.3849 0.40071 0.0
O415 O 0.43179 0.41085 0.39382 0.0
In416 In 0.60365 0.0492 0.45911 0.0
O417 O 0.57542 0.03092 0.48367 0.0
O418 O 0.58166 0.05703 0.46123 0.0
C419 C 0.62373 0.03282 0.45719 0.0
C420 C 0.59801 0.04508 0.38653 0.0
C421 C 0.62259 0.07213 0.51414 0.0
O422 O 0.60704 0.0242 0.46731 0.0
O423 O 0.63015 0.0496 0.44919 0.0
O424 O 0.62392 0.07794 0.48144 0.0
O425 O 0.61142 0.05515 0.51856 0.0
C426 C 0.56991 0.04214 0.4763 0.0
O427 O 0.60774 0.06102 0.40046 0.0
O428 O 0.59128 0.03199 0.40925 0.0
In429 In 0.22556 0.30806 0.37354 0.0
O430 O 0.21108 0.29269 0.42697 0.0
O431 O 0.22445 0.32196 0.42528 0.0
C432 C 0.22894 0.28487 0.32677 0.0
C433 C 0.20405 0.31788 0.33723 0.0
C434 C 0.26073 0.33033 0.39084 0.0
O435 O 0.22013 0.27909 0.35661 0.0
O436 O 0.23535 0.30179 0.32094 0.0
O437 O 0.25132 0.336 0.37421 0.0
O438 O 0.25259 0.31324 0.39718 0.0
C439 C 0.21587 0.30756 0.44418 0.0
O440 O 0.22135 0.32679 0.33549 0.0
O441 O 0.19737 0.30356 0.35691 0.0
In442 In 0.6837 0.92909 0.38281 0.0
O443 O 0.66143 0.91514 0.42454 0.0
O444 O 0.68876 0.9238 0.44268 0.0
C445 C 0.71358 0.94676 0.3399 0.0
C446 C 0.66921 0.8957 0.35354 0.0
C447 C 0.67638 0.95642 0.38871 0.0
O448 O 0.71498 0.9447 0.37403 0.0
O449 O 0.69729 0.93959 0.32802 0.0
O450 O 0.69064 0.95721 0.40198 0.0
O451 O 0.66577 0.94181 0.37131 0.0
C452 C 0.67174 0.916 0.45052 0.0
O453 O 0.66281 0.90621 0.34638 0.0
O454 O 0.6832 0.90246 0.37416 0.0
In455 In 0.07648 0.7593 0.40511 0.0
O456 O 0.08744 0.77647 0.45763 0.0
O457 O 0.06479 0.74954 0.46263 0.0
C458 C 0.05549 0.76664 0.35915 0.0
C459 C 0.11167 0.77852 0.38336 0.0
C460 C 0.06491 0.72316 0.40034 0.0
O461 O 0.05167 0.76312 0.3927 0.0
O462 O 0.07022 0.76736 0.34949 0.0
O463 O 0.08059 0.73462 0.41245 0.0
O464 O 0.05554 0.7301 0.38891 0.0
C465 C 0.07675 0.76372 0.47884 0.0
O466 O 0.10203 0.76127 0.37979 0.0
O467 O 0.10334 0.7862 0.39686 0.0
H468 H 0.26947 0.95241 0.29348 0.0
H469 H 0.28097 0.93658 0.1882 0.0
H470 H 0.28737 0.9663 0.16184 0.0
H471 H 0.25097 0.98264 0.25777 0.0
H472 H 0.26238 -0.0009 0.29394 0.0
H473 H 0.25401 0.97498 0.30203 0.0
H474 H 0.28659 0.98249 0.32273 0.0
H475 H 0.29491 0.0065 0.31506 0.0
H476 H 0.30583 0.99538 0.29247 0.0
H477 H 0.29745 -0.00084 0.14968 0.0
H478 H 0.31355 0.03316 0.15504 0.0
H479 H 0.297 0.02802 0.26866 0.0
C480 C 0.27274 0.95505 0.26462 0.0
C481 C 0.27465 0.94234 0.24272 0.0
C482 C 0.27948 0.94629 0.20533 0.0
C483 C 0.28292 0.96302 0.19003 0.0
C484 C 0.28149 0.97562 0.21258 0.0
C485 C 0.27658 0.97185 0.24916 0.0
C486 C 0.27911 0.98873 0.26907 0.0
C487 C 0.26051 0.9862 0.28142 0.0
C488 C 0.29241 0.99356 0.30171 0.0
C489 C 0.28735 0.00281 0.23868 0.0
C490 C 0.28793 0.99488 0.20588 0.0
C491 C 0.29667 0.0055 0.17492 0.0
C492 C 0.30571 0.02473 0.17806 0.0
C493 C 0.30618 0.0329 0.2121 0.0
C494 C 0.29639 0.02187 0.24222 0.0
H495 H 0.03409 0.31319 0.28228 0.0
H496 H 0.03545 0.35952 0.33758 0.0
H497 H 0.00152 0.34271 0.34029 0.0
H498 H -0.00051 0.30567 0.22417 0.0
H499 H 0.98836 0.28092 0.22295 0.0
H500 H 0.0125 0.29431 0.23296 0.0
H501 H 0.00763 0.27667 0.29403 0.0
H502 H 0.98344 0.26293 0.28393 0.0
H503 H 0.99087 0.27543 0.32647 0.0
H504 H 0.96815 0.32322 0.32921 0.0
H505 H 0.93713 0.30217 0.30534 0.0
H506 H 0.95732 0.2691 0.25371 0.0
C507 C 0.02719 0.31938 0.29641 0.0
C508 C 0.03719 0.33739 0.31046 0.0
C509 C 0.02787 0.34556 0.32722 0.0
C510 C 0.00866 0.33613 0.3289 0.0
C511 C -0.00091 0.31865 0.31336 0.0
C512 C 0.008 0.31029 0.29755 0.0
C513 C -0.00544 0.29261 0.27831 0.0
C514 C -0.001 0.29345 0.23718 0.0
C515 C -0.0059 0.27592 0.2968 0.0
C516 C 0.97682 0.29272 0.28463 0.0
C517 C 0.97971 0.30766 0.30552 0.0
C518 C 0.96564 0.31131 0.31332 0.0
C519 C 0.9481 0.29933 0.29945 0.0
C520 C 0.94488 0.28405 0.27765 0.0
C521 C 0.95941 0.28066 0.27038 0.0
H522 H 0.70832 0.67897 0.19632 0.0
H523 H 0.74829 0.69995 0.2844 0.0
H524 H 0.73631 0.72005 0.30443 0.0
H525 H 0.7058 0.72232 0.18005 0.0
H526 H 0.6814 0.70876 0.17206 0.0
H527 H 0.69621 0.69987 0.15937 0.0
H528 H 0.67618 0.67076 0.19846 0.0
H529 H 0.66163 0.67969 0.21212 0.0
H530 H 0.67282 0.67326 0.24645 0.0
H531 H 0.71637 0.73363 0.32112 0.0
H532 H 0.69111 0.74045 0.33075 0.0
H533 H 0.66381 0.70888 0.23347 0.0
C534 C 0.71509 0.68839 0.2188 0.0
C535 C 0.72925 0.68803 0.23868 0.0
C536 C 0.7375 0.70019 0.26857 0.0
C537 C 0.73078 0.71163 0.28018 0.0
C538 C 0.71596 0.7108 0.26134 0.0
C539 C 0.70842 0.69968 0.23087 0.0
C540 C 0.69112 0.69929 0.21831 0.0
C541 C 0.6938 0.70809 0.18019 0.0
C542 C 0.67447 0.67959 0.21891 0.0
C543 C 0.68957 0.71113 0.2475 0.0
C544 C 0.70417 0.71802 0.27167 0.0
C545 C 0.70502 0.72855 0.30201 0.0
C546 C 0.69061 0.73223 0.30746 0.0
C547 C 0.67551 0.72501 0.28308 0.0
C548 C 0.67512 0.71445 0.25277 0.0
H549 H 0.69472 0.97314 0.77846 0.0
H550 H 0.65344 0.9566 0.69321 0.0
H551 H 0.66989 0.98795 0.66732 0.0
H552 H 0.69837 0.01512 0.79557 0.0
H553 H 0.72275 0.02736 0.8044 0.0
H554 H 0.70959 0.00297 0.81208 0.0
H555 H 0.73136 -0.00168 0.76863 0.0
H556 H 0.74448 0.02278 0.76049 0.0
H557 H 0.73488 0.00711 0.72246 0.0
H558 H 0.68808 0.02148 0.65567 0.0
H559 H 0.7052 0.05525 0.66226 0.0
H560 H 0.73487 0.05028 0.75477 0.0
C561 C 0.68941 0.97605 0.75387 0.0
C562 C 0.6729 0.96252 0.73771 0.0
C563 C 0.66609 0.96685 0.70601 0.0
C564 C 0.67543 0.98454 0.69089 0.0
C565 C 0.69157 -0.0023 0.70773 0.0
C566 C 0.6985 0.99371 0.7386 0.0
C567 C 0.71477 0.01084 0.75405 0.0
C568 C 0.71114 0.01427 0.79385 0.0
C569 C 0.73242 0.00969 0.75122 0.0
C570 C 0.71534 0.0252 0.7281 0.0
C571 C 0.70214 0.01728 0.70103 0.0
C572 C 0.69873 0.02785 0.67621 0.0
C573 C 0.70854 0.04702 0.68013 0.0
C574 C 0.72143 0.05532 0.70883 0.0
C575 C 0.72539 0.0443 0.73207 0.0
H576 H 0.02765 0.71233 0.85274 0.0
H577 H 0.0474 0.75349 0.76682 0.0
H578 H 0.01544 0.74415 0.75041 0.0
H579 H -0.0026 0.67917 0.80347 0.0
H580 H 0.97949 0.66759 0.83709 0.0
H581 H 0.00287 0.68143 0.85166 0.0
H582 H -0.00577 0.70123 0.89236 0.0
H583 H 0.97054 0.68705 0.8788 0.0
H584 H 0.98193 0.71165 0.87273 0.0
H585 H 0.98219 0.7254 0.73332 0.0
H586 H 0.95083 0.69971 0.71926 0.0
H587 H 0.95365 0.66988 0.8137 0.0
C588 C 0.02524 0.72007 0.83188 0.0
C589 C 0.0399 0.73362 0.81113 0.0
C590 C 0.0363 0.74314 0.78326 0.0
C591 C 0.01817 0.73792 0.77376 0.0
C592 C 0.0039 0.72332 0.79266 0.0
C593 C 0.00726 0.71476 0.82173 0.0
C594 C 0.99005 0.69735 0.83313 0.0
C595 C 0.99263 0.68041 0.83117 0.0
C596 C 0.98382 0.69945 0.87153 0.0
C597 C 0.97692 0.69666 0.80414 0.0
C598 C 0.98485 0.71202 0.7818 0.0
C599 C 0.97569 0.71351 0.75117 0.0
C600 C 0.95801 0.69886 0.74317 0.0
C601 C 0.95011 0.68286 0.76517 0.0
C602 C 0.95954 0.68197 0.79628 0.0
H603 H 0.30045 0.25058 0.73249 0.0
H604 H 0.32744 0.27777 0.63132 0.0
H605 H 0.30894 0.29311 0.62934 0.0
H606 H 0.25407 0.24786 0.71386 0.0
H607 H 0.25246 0.25278 0.76134 0.0
H608 H 0.26343 0.23977 0.74894 0.0
H609 H 0.29253 0.26313 0.78442 0.0
H610 H 0.282 0.27651 0.79604 0.0
H611 H 0.30371 0.28716 0.77223 0.0
H612 H 0.29396 0.31092 0.64598 0.0
H613 H 0.28111 0.32803 0.67704 0.0
H614 H 0.26403 0.28981 0.76833 0.0
C615 C 0.30173 0.25898 0.7089 0.0
C616 C 0.31522 0.26291 0.68189 0.0
C617 C 0.31702 0.27446 0.65206 0.0
C618 C 0.30658 0.28323 0.65075 0.0
C619 C 0.29435 0.28015 0.67933 0.0
C620 C 0.29159 0.268 0.70753 0.0
C621 C 0.27994 0.2693 0.73776 0.0
C622 C 0.26137 0.25136 0.74062 0.0
C623 C 0.29017 0.27433 0.77476 0.0
C624 C 0.27756 0.28485 0.72325 0.0
C625 C 0.28569 0.29068 0.68921 0.0
C626 C 0.28709 0.30616 0.67211 0.0
C627 C 0.27994 0.31591 0.69016 0.0
C628 C 0.27158 0.31017 0.72501 0.0
C629 C 0.27014 0.2943 0.74146 0.0
H630 H -0.00132 0.3707 0.60702 0.0
H631 H 0.00271 0.36882 0.4889 0.0
H632 H 0.99041 0.3351 0.49219 0.0
H633 H 0.00955 0.33542 0.63081 0.0
H634 H 0.99267 0.32598 0.66691 0.0
H635 H 0.00323 0.35004 0.65544 0.0
H636 H 0.97109 0.34647 0.64495 0.0
H637 H 0.96043 0.32245 0.65658 0.0
H638 H 0.95538 0.32931 0.61331 0.0
H639 H 0.97845 0.30194 0.50903 0.0
H640 H 0.96316 0.27084 0.53651 0.0
H641 H 0.96393 0.29424 0.64283 0.0
C642 C -0.00287 0.36315 0.58194 0.0
C643 C 0.00182 0.37214 0.54775 0.0
C644 C -0.00079 0.36198 0.51529 0.0
C645 C 0.99236 0.34294 0.51697 0.0
C646 C 0.9879 0.33443 0.55124 0.0
C647 C 0.98983 0.34415 0.58306 0.0
C648 C 0.98254 0.33158 0.61602 0.0
C649 C -0.00208 0.33602 0.64393 0.0
C650 C 0.9664 0.33251 0.63374 0.0
C651 C 0.97619 0.31321 0.59781 0.0
C652 C 0.97979 0.3152 0.56059 0.0
C653 C 0.97548 0.3002 0.53808 0.0
C654 C 0.96692 0.28265 0.55393 0.0
C655 C 0.96243 0.2803 0.59166 0.0
C656 C 0.96722 0.29576 0.61388 0.0
H657 H 0.62768 0.60903 0.55322 0.0
H658 H 0.60891 0.62848 0.6445 0.0
H659 H 0.6392 0.64106 0.67388 0.0
H660 H 0.65846 0.5979 0.60611 0.0
H661 H 0.67578 0.60635 0.57079 0.0
H662 H 0.65189 0.59669 0.55872 0.0
H663 H 0.65946 0.62668 0.52407 0.0
H664 H 0.68332 0.63626 0.53562 0.0
H665 H 0.67145 0.64841 0.54775 0.0
H666 H 0.67162 0.65349 0.69132 0.0
H667 H 0.70541 0.66811 0.69229 0.0
H668 H 0.70371 0.64134 0.58947 0.0
C669 C 0.62996 0.61576 0.57956 0.0
C670 C 0.61605 0.61781 0.59665 0.0
C671 C 0.61949 0.62691 0.63085 0.0
C672 C 0.63656 0.6339 0.64798 0.0
C673 C 0.65004 0.63173 0.63049 0.0
C674 C 0.64706 0.62309 0.59687 0.0
C675 C 0.66451 0.62436 0.58229 0.0
C676 C 0.66254 0.60518 0.57932 0.0
C677 C 0.67001 0.63454 0.54526 0.0
C678 C 0.67782 0.63557 0.61242 0.0
C679 C 0.66907 0.63929 0.64035 0.0
C680 C 0.67865 0.6505 0.66991 0.0
C681 C 0.69781 0.65871 0.67027 0.0
C682 C 0.70709 0.65577 0.64104 0.0
C683 C 0.69691 0.64359 0.61244 0.0
H684 H 0.34341 0.05158 0.63721 0.0
H685 H 0.29274 0.00301 0.67006 0.0
H686 H 0.30803 0.98441 0.66579 0.0
H687 H 0.35409 0.03015 0.56942 0.0
H688 H 0.37864 0.04285 0.57607 0.0
H689 H 0.36499 0.05305 0.58834 0.0
H690 H 0.37779 0.05848 0.65459 0.0
H691 H 0.39173 0.04852 0.6424 0.0
H692 H 0.37609 0.03941 0.68061 0.0
H693 H 0.3278 0.97075 0.65211 0.0
H694 H 0.35049 0.96271 0.62883 0.0
H695 H 0.3875 0.02001 0.60123 0.0
C696 C 0.33575 0.03716 0.64469 0.0
C697 C 0.31705 0.02869 0.65445 0.0
C698 C 0.30717 0.00969 0.66283 0.0
C699 C 0.31574 -0.00093 0.66057 0.0
C700 C 0.33408 0.00772 0.64965 0.0
C701 C 0.34398 0.02634 0.64188 0.0
C702 C 0.36279 0.03188 0.62671 0.0
C703 C 0.36525 0.03995 0.58784 0.0
C704 C 0.378 0.04537 0.65264 0.0
C705 C 0.36174 0.01339 0.62623 0.0
C706 C 0.34522 -0.00031 0.64019 0.0
C707 C 0.34086 0.98137 0.64145 0.0
C708 C 0.35378 0.97694 0.62806 0.0
C709 C 0.37064 0.99075 0.61315 0.0
C710 C 0.37467 0.00918 0.61239 0.0
H711 H 0.38214 0.37625 0.12819 0.0
H712 H 0.41228 0.38163 0.02835 0.0
H713 H 0.40933 0.35115 0.04009 0.0
H714 H 0.3988 0.34809 0.18183 0.0
H715 H 0.37649 0.3349 0.20282 0.0
H716 H 0.38527 0.3588 0.19159 0.0
H717 H 0.35596 0.34993 0.15355 0.0
H718 H 0.34713 0.32617 0.16459 0.0
H719 H 0.34953 0.33323 0.11729 0.0
H720 H 0.39671 0.31795 0.05474 0.0
H721 H 0.37541 0.28537 0.06979 0.0
H722 H 0.35437 0.30207 0.16148 0.0
C723 C 0.38858 0.3712 0.10937 0.0
C724 C 0.39729 0.38102 0.07729 0.0
C725 C 0.4056 0.3742 0.05316 0.0
C726 C 0.40408 0.357 0.05979 0.0
C727 C 0.39467 0.34722 0.0911 0.0
C728 C 0.38733 0.35427 0.11583 0.0
C729 C 0.3756 0.34024 0.14438 0.0
C730 C 0.38459 0.34584 0.18241 0.0
C731 C 0.35591 0.33721 0.14491 0.0
C732 C 0.37607 0.32361 0.13002 0.0
C733 C 0.38761 0.328 0.09998 0.0
C734 C 0.38811 0.31443 0.07886 0.0
C735 C 0.37593 0.29595 0.08757 0.0
C736 C 0.36332 0.2913 0.11686 0.0
C737 C 0.36412 0.30528 0.13939 0.0
H738 H 0.63197 0.01354 0.09724 0.0
H739 H 0.61356 0.95787 0.13446 0.0
H740 H 0.64508 0.96765 0.1562 0.0
H741 H 0.67434 0.02295 0.06297 0.0
H742 H 0.68638 0.04668 0.07728 0.0
H743 H 0.66216 0.03543 0.06789 0.0
H744 H 0.65638 0.04389 0.13299 0.0
H745 H 0.68065 0.05505 0.14269 0.0
H746 H 0.66447 0.03708 0.17246 0.0
H747 H 0.67917 0.9828 0.16673 0.0
H748 H 0.71307 0.00217 0.1657 0.0
H749 H 0.70828 0.04816 0.12519 0.0
C750 C 0.63453 0.00342 0.11018 0.0
C751 C 0.62049 0.98495 0.11401 0.0
C752 C 0.62425 0.9721 0.13129 0.0
C753 C 0.64203 0.97755 0.14385 0.0
C754 C 0.65564 0.99591 0.13946 0.0
C755 C 0.65202 0.00866 0.12328 0.0
C756 C 0.66912 0.02731 0.12001 0.0
C757 C 0.67324 0.03344 0.07966 0.0
C758 C 0.66755 0.04168 0.14345 0.0
C759 C 0.68312 0.02295 0.13563 0.0
C760 C 0.6751 0.0048 0.14696 0.0
C761 C 0.68557 -0.00287 0.15876 0.0
C762 C 0.70475 0.00817 0.15805 0.0
C763 C 0.71311 0.02663 0.14585 0.0
C764 C 0.70216 0.03422 0.13558 0.0
H765 H 0.94501 0.65142 0.18083 0.0
H766 H 0.8931 0.63044 0.12366 0.0
H767 H 0.89638 0.60485 0.09924 0.0
H768 H 0.96783 0.64709 0.11262 0.0
H769 H 0.98179 0.64015 0.13794 0.0
H770 H 0.97315 0.65335 0.16016 0.0
H771 H 0.95739 0.62833 0.21022 0.0
H772 H 0.9665 0.6152 0.18889 0.0
H773 H 0.94215 0.60477 0.19702 0.0
H774 H 0.90872 0.58614 0.06997 0.0
H775 H 0.9278 0.57405 0.04361 0.0
H776 H 0.9718 0.60823 0.1188 0.0
C777 C 0.93388 0.64091 0.16472 0.0
C778 C 0.91882 0.64285 0.15416 0.0
C779 C 0.9047 0.62909 0.13235 0.0
C780 C 0.90647 0.61453 0.11825 0.0
C781 C 0.92227 0.61382 0.12679 0.0
C782 C 0.93553 0.62641 0.15034 0.0
C783 C 0.95238 0.62434 0.15118 0.0
C784 C 0.96979 0.64229 0.13978 0.0
C785 C 0.95473 0.61776 0.18908 0.0
C786 C 0.94704 0.60949 0.12273 0.0
C787 C 0.92951 0.60327 0.10944 0.0
C788 C 0.9223 0.59059 0.0808 0.0
C789 C 0.93326 0.58395 0.06574 0.0
C790 C 0.95126 0.59031 0.07906 0.0
C791 C 0.95809 0.60313 0.108 0.0
H792 H 0.60581 0.63828 0.9456 0.0
H793 H 0.64322 0.61933 0.91269 0.0
H794 H 0.66444 0.64991 0.88719 0.0
H795 H 0.61351 0.66771 0.86627 0.0
H796 H 0.61248 0.68539 0.89239 0.0
H797 H 0.59964 0.66174 0.90714 0.0
H798 H 0.61554 0.6708 0.97068 0.0
H799 H 0.62819 0.69447 0.9563 0.0
H800 H 0.64029 0.68327 0.97313 0.0
H801 H 0.68234 0.68241 0.86881 0.0
H802 H 0.69678 0.71602 0.8608 0.0
H803 H 0.64763 0.71418 0.9028 0.0
C804 C 0.61848 0.64062 0.93306 0.0
C805 C 0.62291 0.62649 0.9311 0.0
C806 C 0.63957 0.62999 0.91445 0.0
C807 C 0.65167 0.64727 0.8997 0.0
C808 C 0.64682 0.66084 0.90161 0.0
C809 C 0.63071 0.65782 0.91795 0.0
C810 C 0.62925 0.67509 0.91751 0.0
C811 C 0.61274 0.67231 0.89445 0.0
C812 C 0.62827 0.68127 0.95673 0.0
C813 C 0.64726 0.68835 0.89908 0.0
C814 C 0.65708 0.67973 0.88993 0.0
C815 C 0.67471 0.68929 0.87525 0.0
C816 C 0.68277 0.70831 0.87077 0.0
C817 C 0.67312 0.71743 0.88063 0.0
C818 C 0.65499 0.70732 0.89406 0.0
H819 H 0.36235 0.00499 0.94638 0.0
H820 H 0.3716 0.95855 0.94458 0.0
H821 H 0.3411 0.93931 0.91626 0.0
H822 H 0.3156 0.97909 0.97271 0.0
H823 H 0.30856 0.99258 0.94598 0.0
H824 H 0.33174 0.00291 0.9628 0.0
H825 H 0.34388 0.01241 0.89639 0.0
H826 H 0.32066 0.00174 0.87933 0.0
H827 H 0.33642 0.99506 0.86125 0.0
H828 H 0.30964 0.92506 0.88976 0.0
H829 H 0.27719 0.91516 0.87665 0.0
H830 H 0.28806 0.97058 0.8981 0.0
C831 C 0.35793 0.99078 0.93988 0.0
C832 C 0.3692 0.98318 0.94745 0.0
C833 C 0.36301 0.96452 0.93911 0.0
C834 C 0.34586 0.95359 0.92262 0.0
C835 C 0.33514 0.96155 0.915 0.0
C836 C 0.34077 0.97961 0.92397 0.0
C837 C 0.32593 0.98431 0.91618 0.0
C838 C 0.32011 0.99005 0.95152 0.0
C839 C 0.3321 -0.00073 0.88652 0.0
C840 C 0.31093 0.96594 0.90217 0.0
C841 C 0.31668 0.95314 0.90081 0.0
C842 C 0.30497 0.93496 0.89046 0.0
C843 C 0.28661 0.92949 0.8829 0.0
C844 C 0.28022 0.94214 0.88644 0.0
C845 C 0.29267 0.9607 0.89492 0.0
H846 H 0.05286 0.34579 0.87804 0.0
H847 H 0.01357 0.29732 0.81869 0.0
H848 H 0.99147 0.30859 0.81903 0.0
H849 H 0.02266 0.34439 0.93862 0.0
H850 H 0.03165 0.36877 0.94399 0.0
H851 H 0.0466 0.36039 0.92975 0.0
H852 H 0.05574 0.38064 0.87136 0.0
H853 H 0.04124 0.3896 0.88592 0.0
H854 H 0.03807 0.37927 0.84129 0.0
H855 H 0.97189 0.32172 0.83597 0.0
H856 H 0.9564 0.33666 0.86566 0.0
H857 H 0.00769 0.37565 0.91816 0.0
C858 C 0.04005 0.33824 0.86312 0.0
C859 C 0.03503 0.32111 0.8471 0.0
C860 C 0.01774 0.31079 0.82995 0.0
C861 C 0.00511 0.31705 0.83022 0.0
C862 C 0.01 0.33351 0.84821 0.0
C863 C 0.02714 0.34411 0.86404 0.0
C864 C 0.02786 0.35954 0.88682 0.0
C865 C 0.03245 0.35817 0.92716 0.0
C866 C 0.04153 0.37838 0.87035 0.0
C867 C 0.00826 0.35547 0.88264 0.0
C868 C -0.00169 0.34064 0.85969 0.0
C869 C 0.97962 0.33357 0.85342 0.0
C870 C 0.97091 0.34205 0.87066 0.0
C871 C 0.98085 0.35726 0.89427 0.0
C872 C -0.00024 0.36403 0.90025 0.0
H873 H 0.02972 0.69673 0.38624 0.0
H874 H 0.08169 0.7048 0.42744 0.0
H875 H 0.06639 0.67205 0.44601 0.0
H876 H 0.00306 0.66949 0.45783 0.0
H877 H 0.98331 0.65462 0.43031 0.0
H878 H -0.0013 0.67785 0.41564 0.0
H879 H 0.00392 0.66608 0.35366 0.0
H880 H 0.98818 0.64279 0.36775 0.0
H881 H 0.01115 0.64916 0.35348 0.0
H882 H 0.04457 0.6389 0.46455 0.0
H883 H 0.01843 0.60777 0.47804 0.0
H884 H 0.98116 0.62279 0.42682 0.0
C885 C 0.03801 0.69151 0.39823 0.0
C886 C 0.05688 0.7032 0.40519 0.0
C887 C 0.06721 0.69596 0.42159 0.0
C888 C 0.05863 0.67743 0.43234 0.0
C889 C 0.03979 0.66645 0.42643 0.0
C890 C 0.02967 0.6732 0.40938 0.0
C891 C 0.00947 0.65904 0.40819 0.0
C892 C -0.00203 0.66565 0.42926 0.0
C893 C 0.00279 0.65396 0.36841 0.0
C894 C 0.00971 0.64332 0.42775 0.0
C895 C 0.02729 0.64773 0.4379 0.0
C896 C 0.03076 0.63527 0.45656 0.0
C897 C 0.01586 0.61771 0.46432 0.0
C898 C -0.00218 0.61297 0.45366 0.0
C899 C -0.00522 0.62606 0.43556 0.0
H900 H 0.28432 0.32111 0.4226 0.0
H901 H 0.27858 0.36788 0.39126 0.0
H902 H 0.30918 0.38896 0.41741 0.0
H903 H 0.31 0.34068 0.50827 0.0
H904 H 0.32443 0.33073 0.50113 0.0
H905 H 0.30121 0.31923 0.48387 0.0
H906 H 0.31316 0.31915 0.41834 0.0
H907 H 0.33629 0.33032 0.43554 0.0
H908 H 0.33039 0.34056 0.39834 0.0
H909 H 0.34104 0.40481 0.44225 0.0
H910 H 0.37321 0.41441 0.45746 0.0
H911 H 0.35804 0.35722 0.4724 0.0
C912 C 0.28944 0.33578 0.42156 0.0
C913 C 0.27918 0.34293 0.40503 0.0
C914 C 0.28634 0.36218 0.40376 0.0
C915 C 0.30357 0.37423 0.41889 0.0
C916 C 0.31333 0.36673 0.43522 0.0
C917 C 0.3066 0.34796 0.43638 0.0
C918 C 0.3205 0.34347 0.45221 0.0
C919 C 0.31362 0.3329 0.48853 0.0
C920 C 0.32537 0.33276 0.42444 0.0
C921 C 0.3364 0.36268 0.45842 0.0
C922 C 0.33185 0.3759 0.44931 0.0
C923 C 0.34472 0.39462 0.44999 0.0
C924 C 0.36293 0.39993 0.45871 0.0
C925 C 0.36801 0.38651 0.4661 0.0
C926 C 0.35445 0.36775 0.46733 0.0
H927 H 0.64231 0.95313 0.39121 0.0
H928 H 0.70045 0.99212 0.40482 0.0
H929 H 0.69314 0.01581 0.42487 0.0
H930 H 0.62874 0.98604 0.35939 0.0
H931 H 0.60736 0.97503 0.38435 0.0
H932 H 0.6173 0.96164 0.36822 0.0
H933 H 0.61648 0.95003 0.43443 0.0
H934 H 0.60684 0.96362 0.45086 0.0
H935 H 0.62777 0.9665 0.47067 0.0
H936 H 0.67974 0.03497 0.44418 0.0
H937 H 0.66083 0.04883 0.4609 0.0
H938 H 0.61127 -0.00307 0.43881 0.0
C939 C 0.65347 0.96678 0.39767 0.0
C940 C 0.67194 0.97095 0.39617 0.0
C941 C 0.68622 0.98877 0.40566 0.0
C942 C 0.68221 0.00227 0.41712 0.0
C943 C 0.66385 -0.00238 0.41928 0.0
C944 C 0.64969 0.98036 0.40976 0.0
C945 C 0.63113 0.97876 0.41609 0.0
C946 C 0.62051 0.97516 0.37986 0.0
C947 C 0.6199 0.96384 0.44472 0.0
C948 C 0.63711 -0.00219 0.43073 0.0
C949 C 0.65605 0.00848 0.43209 0.0
C950 C 0.6649 0.02676 0.44345 0.0
C951 C 0.65408 0.03447 0.45298 0.0
C952 C 0.63468 0.02383 0.45156 0.0
C953 C 0.62609 0.0052 0.44086 0.0
H954 H 0.32275 0.0689 0.52347 0.0
H955 H 0.2683 0.06238 0.51435 0.0
H956 H 0.27308 0.06834 0.44765 0.0
H957 H 0.34502 0.10575 0.45803 0.0
H958 H 0.35959 0.09758 0.4399 0.0
H959 H 0.35191 0.09277 0.48677 0.0
H960 H 0.33818 0.05787 0.47519 0.0
H961 H 0.3459 0.06257 0.42834 0.0
H962 H 0.32199 0.047 0.43834 0.0
H963 H 0.28378 0.07496 0.38238 0.0
H964 H 0.29903 0.08093 0.32239 0.0
H965 H 0.34687 0.08332 0.37343 0.0
C966 C 0.31179 0.06869 0.50746 0.0
C967 C 0.2951 0.06516 0.52411 0.0
C968 C 0.28115 0.06503 0.50218 0.0
C969 C 0.28378 0.06843 0.46433 0.0
C970 C 0.30044 0.07197 0.44887 0.0
C971 C 0.3142 0.07208 0.46971 0.0
C972 C 0.33077 0.07615 0.44633 0.0
C973 C 0.34783 0.09413 0.45849 0.0
C974 C 0.33442 0.05993 0.4471 0.0
C975 C 0.32417 0.07824 0.40892 0.0
C976 C 0.30665 0.07582 0.41115 0.0
C977 C 0.29749 0.07689 0.38035 0.0
C978 C 0.30632 0.08031 0.34634 0.0
C979 C 0.3242 0.08264 0.34312 0.0
C980 C 0.33328 0.08173 0.375 0.0
H981 H 0.90066 0.23661 0.52043 0.0
H982 H 0.91181 0.19166 0.50896 0.0
H983 H 0.9023 0.18832 0.4438 0.0
H984 H 0.86103 0.21897 0.45775 0.0
H985 H 0.86792 0.24158 0.44012 0.0
H986 H 0.87343 0.23888 0.48662 0.0
H987 H 0.90792 0.26162 0.47393 0.0
H988 H 0.90253 0.26442 0.42753 0.0
H989 H 0.9191 0.25722 0.43635 0.0
H990 H 0.89419 0.19178 0.37903 0.0
H991 H 0.88961 0.20248 0.31912 0.0
H992 H 0.88414 0.24558 0.37284 0.0
C993 C 0.90076 0.22579 0.50447 0.0
C994 C 0.90681 0.21425 0.51982 0.0
C995 C 0.9071 0.20055 0.49779 0.0
C996 C 0.90167 0.19853 0.46084 0.0
C997 C 0.89599 0.21032 0.44649 0.0
C998 C 0.89552 0.2237 0.46766 0.0
C999 C 0.89042 0.23566 0.44509 0.0
C1000 C 0.87211 0.23364 0.45818 0.0
C1001 C 0.90591 0.25592 0.44577 0.0
C1002 C 0.88846 0.22722 0.40756 0.0
C1003 C 0.89149 0.21246 0.40909 0.0
C1004 C 0.89157 0.20316 0.37762 0.0
C1005 C 0.88896 0.20936 0.3437 0.0
C1006 C 0.88638 0.22478 0.34137 0.0
C1007 C 0.8857 0.23353 0.37385 0.0
H1008 H 0.74065 0.68412 0.49757 0.0
H1009 H 0.79119 0.68338 0.51768 0.0
H1010 H 0.78715 0.66699 0.45925 0.0
H1011 H 0.71555 0.63964 0.45867 0.0
H1012 H 0.70407 0.64579 0.42447 0.0
H1013 H 0.71123 0.65831 0.46699 0.0
H1014 H 0.73007 0.68902 0.43165 0.0
H1015 H 0.72259 0.67663 0.38904 0.0
H1016 H 0.74678 0.69108 0.39819 0.0
H1017 H 0.77672 0.6491 0.40031 0.0
H1018 H 0.76317 0.63517 0.34052 0.0
H1019 H 0.71953 0.64771 0.35827 0.0
C1020 C 0.75108 0.68088 0.4893 0.0
C1021 C 0.7663 0.68513 0.51217 0.0
C1022 C 0.7795 0.68041 0.50053 0.0
C1023 C 0.77724 0.67094 0.46752 0.0
C1024 C 0.76174 0.66634 0.44629 0.0
C1025 C 0.74907 0.67147 0.45632 0.0
C1026 C 0.73369 0.66495 0.42838 0.0
C1027 C 0.71503 0.65137 0.44567 0.0
C1028 C 0.73327 0.6814 0.41077 0.0
C1029 C 0.73969 0.65535 0.40111 0.0
C1030 C 0.7558 0.65615 0.41218 0.0
C1031 C 0.76413 0.64844 0.39132 0.0
C1032 C 0.75623 0.64039 0.35751 0.0
C1033 C 0.74022 0.64021 0.34475 0.0
C1034 C 0.73163 0.64738 0.36742 0.0
H1035 H 0.06902 0.32993 0.17134 0.0
H1036 H 0.09537 0.38838 0.14766 0.0
H1037 H 0.09199 0.38147 0.08123 0.0
H1038 H 0.09027 0.31871 0.10027 0.0
H1039 H 0.07038 0.29672 0.09016 0.0
H1040 H 0.07366 0.30615 0.13563 0.0
H1041 H 0.04161 0.30351 0.13297 0.0
H1042 H 0.03818 0.294 0.0875 0.0
H1043 H 0.03625 0.31414 0.09568 0.0
H1044 H 0.08693 0.3683 0.01801 0.0
H1045 H 0.08105 0.3501 0.96177 0.0
H1046 H 0.05829 0.29993 0.02633 0.0
C1047 C 0.0739 0.34129 0.15221 0.0
C1048 C 0.08239 0.35973 0.16461 0.0
C1049 C 0.08877 0.37419 0.13872 0.0
C1050 C 0.08689 0.37038 0.101 0.0
C1051 C 0.07861 0.35205 0.08975 0.0
C1052 C 0.07221 0.33774 0.11457 0.0
C1053 C 0.06455 0.31931 0.09536 0.0
C1054 C 0.07536 0.30966 0.10599 0.0
C1055 C 0.04392 0.30702 0.10336 0.0
C1056 C 0.06786 0.32549 0.05572 0.0
C1057 C 0.07587 0.34442 0.0532 0.0
C1058 C 0.08061 0.35348 0.01965 0.0
C1059 C 0.07724 0.34297 0.98784 0.0
C1060 C 0.06924 0.32356 0.98963 0.0
C1061 C 0.06436 0.31471 0.02408 0.0
H1062 H 0.63512 0.73682 0.14551 0.0
H1063 H 0.68198 0.77991 0.20378 0.0
H1064 H 0.69973 0.78943 0.14662 0.0
H1065 H 0.66076 0.72477 0.08429 0.0
H1066 H 0.64632 0.72121 0.04504 0.0
H1067 H 0.63682 0.71764 0.09054 0.0
H1068 H 0.62564 0.74082 0.07769 0.0
H1069 H 0.63494 0.7443 0.03203 0.0
H1070 H 0.64188 0.7637 0.06209 0.0
H1071 H 0.7133 0.79352 0.08404 0.0
H1072 H 0.72048 0.79373 0.01816 0.0
H1073 H 0.66481 0.74923 0.99916 0.0
C1074 C 0.64902 0.74838 0.14608 0.0
C1075 C 0.65709 0.75757 0.17927 0.0
C1076 C 0.6754 0.7726 0.17882 0.0
C1077 C 0.68569 0.77812 0.14645 0.0
C1078 C 0.67752 0.76863 0.11439 0.0
C1079 C 0.65953 0.75425 0.11371 0.0
C1080 C 0.6541 0.74662 0.07519 0.0
C1081 C 0.64922 0.72636 0.0737 0.0
C1082 C 0.6382 0.74901 0.06091 0.0
C1083 C 0.67184 0.75894 0.05464 0.0
C1084 C 0.68523 0.7714 0.07787 0.0
C1085 C 0.70289 0.78392 0.06545 0.0
C1086 C 0.70689 0.78389 0.02808 0.0
C1087 C 0.69321 0.7716 1.00359 0.0
C1088 C 0.67552 0.7589 0.01723 0.0
H1089 H 0.27289 0.90071 0.15262 0.0
H1090 H 0.21833 0.86046 0.1901 0.0
H1091 H 0.20492 0.86533 0.13398 0.0
H1092 H 0.26117 0.93181 0.11788 0.0
H1093 H 0.27588 0.9387 0.07814 0.0
H1094 H 0.28193 0.93047 0.11834 0.0
H1095 H 0.28345 0.90515 0.08088 0.0
H1096 H 0.27816 0.91368 0.04005 0.0
H1097 H 0.26417 0.88982 0.05273 0.0
H1098 H 0.1971 0.87705 0.07719 0.0
H1099 H 0.19585 0.89177 0.01929 0.0
H1100 H 0.2554 0.92452 0.01875 0.0
C1101 C 0.25822 0.89234 0.1482 0.0
C1102 C 0.24667 0.87993 0.17539 0.0
C1103 C 0.22744 0.86981 0.16933 0.0
C1104 C 0.21968 0.8726 0.13768 0.0
C1105 C 0.23132 0.88559 0.11224 0.0
C1106 C 0.25021 0.89504 0.11673 0.0
C1107 C 0.25953 0.90886 0.08604 0.0
C1108 C 0.27025 0.92862 0.10101 0.0
C1109 C 0.27206 0.90408 0.06359 0.0
C1110 C 0.24294 0.90583 0.06396 0.0
C1111 C 0.22679 0.8924 0.0796 0.0
C1112 C 0.20967 0.88747 0.06448 0.0
C1113 C 0.20907 0.89603 0.03179 0.0
C1114 C 0.22549 0.90933 0.01455 0.0
C1115 C 0.24259 0.91445 0.03132 0.0
H1116 H 0.67145 0.90717 0.66786 0.0
H1117 H 0.61197 0.88051 0.66287 0.0
H1118 H 0.61347 0.87975 0.59518 0.0
H1119 H 0.67981 0.93678 0.59539 0.0
H1120 H 0.69963 0.93626 0.578 0.0
H1121 H 0.69383 0.93201 0.62581 0.0
H1122 H 0.69273 0.90067 0.6213 0.0
H1123 H 0.69871 0.90489 0.57345 0.0
H1124 H 0.67825 0.88414 0.58738 0.0
H1125 H 0.62165 0.88488 0.52867 0.0
H1126 H 0.63556 0.89558 0.46785 0.0
H1127 H 0.69004 0.91991 0.5159 0.0
C1128 C 0.65867 0.90066 0.65263 0.0
C1129 C 0.64154 0.89366 0.67061 0.0
C1130 C 0.6252 0.88575 0.64964 0.0
C1131 C 0.62594 0.88526 0.61123 0.0
C1132 C 0.64313 0.89277 0.59435 0.0
C1133 C 0.6592 0.90027 0.61439 0.0
C1134 C 0.67598 0.90904 0.58968 0.0
C1135 C 0.68801 0.92975 0.5977 0.0
C1136 C 0.68707 0.89908 0.59316 0.0
C1137 C 0.66686 0.90573 0.55251 0.0
C1138 C 0.6479 0.89611 0.55588 0.0
C1139 C 0.63645 0.89222 0.52569 0.0
C1140 C 0.64453 0.89843 0.49124 0.0
C1141 C 0.66392 0.90857 0.4871 0.0
C1142 C 0.6752 0.91204 0.51816 0.0
H1143 H 0.05561 0.73765 0.52997 0.0
H1144 H 0.10728 0.78869 0.51619 0.0
H1145 H 0.11705 0.78478 0.57773 0.0
H1146 H 0.05056 0.74372 0.62893 0.0
H1147 H 0.04053 0.71947 0.63817 0.0
H1148 H 0.03726 0.72711 0.59412 0.0
H1149 H 0.05045 0.70848 0.56286 0.0
H1150 H 0.05423 0.70119 0.60683 0.0
H1151 H 0.07308 0.71289 0.5752 0.0
H1152 H 0.12254 0.77367 0.63764 0.0
H1153 H 0.12118 0.75929 0.69735 0.0
H1154 H 0.06542 0.71604 0.67383 0.0
C1155 C 0.06877 0.74826 0.54031 0.0
C1156 C 0.08067 0.76352 0.51832 0.0
C1157 C 0.09787 0.77699 0.53266 0.0
C1158 C 0.10361 0.77479 0.56745 0.0
C1159 C 0.0919 0.75916 0.58773 0.0
C1160 C 0.07465 0.74637 0.57516 0.0
C1161 C 0.06474 0.73083 0.60252 0.0
C1162 C 0.04724 0.73026 0.61679 0.0
C1163 C 0.06037 0.71225 0.58584 0.0
C1164 C 0.07923 0.73677 0.63222 0.0
C1165 C 0.09487 0.75303 0.62287 0.0
C1166 C 0.11029 0.76105 0.64545 0.0
C1167 C 0.10944 0.75266 0.67919 0.0
C1168 C 0.0932 0.73652 0.69029 0.0
C1169 C 0.07805 0.7283 0.66605 0.0
H1170 H 0.23658 0.33674 0.48826 0.0
H1171 H 0.19034 0.28098 0.4902 0.0
H1172 H 0.18744 0.2836 0.55735 0.0
H1173 H 0.25674 0.33277 0.56999 0.0
H1174 H 0.26511 0.35619 0.58424 0.0
H1175 H 0.2621 0.35047 0.5363 0.0
H1176 H 0.24095 0.36458 0.53007 0.0
H1177 H 0.24377 0.37022 0.57815 0.0
H1178 H 0.22105 0.35642 0.55924 0.0
H1179 H 0.1904 0.29217 0.62427 0.0
H1180 H 0.20083 0.30412 0.68651 0.0
H1181 H 0.24643 0.35386 0.64113 0.0
C1182 C 0.22561 0.32517 0.50269 0.0
C1183 C 0.21344 0.30872 0.48404 0.0
C1184 C 0.19967 0.29371 0.504 0.0
C1185 C 0.1979 0.29515 0.54203 0.0
C1186 C 0.21016 0.3116 0.55956 0.0
C1187 C 0.2239 0.32626 0.54056 0.0
C1188 C 0.23637 0.34178 0.56612 0.0
C1189 C 0.25625 0.34551 0.56404 0.0
C1190 C 0.23547 0.35929 0.5579 0.0
C1191 C 0.22763 0.33356 0.60273 0.0
C1192 C 0.21234 0.31627 0.59822 0.0
C1193 C 0.2023 0.30569 0.62804 0.0
C1194 C 0.20834 0.31266 0.66335 0.0
C1195 C 0.22444 0.32998 0.66876 0.0
C1196 C 0.23394 0.34073 0.63792 0.0
H1197 H 0.91265 0.69347 0.01483 0.0
H1198 H 0.94921 0.67368 0.04882 0.0
H1199 H 0.94312 0.65647 0.99089 0.0
H1200 H 0.87917 0.65273 0.97247 0.0
H1201 H 0.87477 0.66387 0.93474 0.0
H1202 H 0.88274 0.67564 0.97787 0.0
H1203 H 0.91043 0.70299 0.94562 0.0
H1204 H 0.90229 0.6915 0.90227 0.0
H1205 H 0.92538 0.69867 0.91709 0.0
H1206 H 0.93116 0.63942 0.9313 0.0
H1207 H 0.9178 0.6275 0.8702 0.0
H1208 H 0.88972 0.65901 0.87412 0.0
C1209 C 0.91969 0.68586 1.00971 0.0
C1210 C 0.93148 0.685 0.03632 0.0
C1211 C 0.94027 0.6747 0.02873 0.0
C1212 C 0.93678 0.66474 0.99601 0.0
C1213 C 0.92459 0.66535 0.97092 0.0
C1214 C 0.91649 0.67595 0.977 0.0
C1215 C 0.90398 0.67427 0.94548 0.0
C1216 C 0.88398 0.66614 0.95843 0.0
C1217 C 0.91094 0.69297 0.92648 0.0
C1218 C 0.90615 0.66089 0.921 0.0
C1219 C 0.91797 0.65578 0.93632 0.0
C1220 C 0.92196 0.6434 0.91893 0.0
C1221 C 0.91415 0.63655 0.88441 0.0
C1222 C 0.90263 0.64222 0.86751 0.0
C1223 C 0.89837 0.65431 0.88646 0.0
H1224 H 0.3264 0.22672 0.99282 0.0
H1225 H 0.30179 0.26141 0.99961 0.0
H1226 H 0.31174 0.27203 0.93622 0.0
H1227 H 0.3658 0.25774 0.94372 0.0
H1228 H 0.36677 0.24069 0.91532 0.0
H1229 H 0.35645 0.23448 0.96011 0.0
H1230 H 0.32621 0.20855 0.93204 0.0
H1231 H 0.33656 0.21441 0.88723 0.0
H1232 H 0.31521 0.21398 0.89558 0.0
H1233 H 0.32648 0.28076 0.87411 0.0
H1234 H 0.34171 0.28423 0.81453 0.0
H1235 H 0.35664 0.2437 0.84746 0.0
C1236 C 0.32269 0.2362 0.98066 0.0
C1237 C 0.3132 0.24316 1.00113 0.0
C1238 C 0.3089 0.25577 0.98439 0.0
C1239 C 0.31461 0.26198 0.94847 0.0
C1240 C 0.32454 0.25538 0.92956 0.0
C1241 C 0.32827 0.24252 0.94478 0.0
C1242 C 0.33947 0.23792 0.91875 0.0
C1243 C 0.35824 0.24302 0.93549 0.0
C1244 C 0.32872 0.2175 0.90774 0.0
C1245 C 0.34162 0.25034 0.88667 0.0
C1246 C 0.33297 0.26036 0.8936 0.0
C1247 C 0.3332 0.27291 0.86831 0.0
C1248 C 0.34203 0.27489 0.83462 0.0
C1249 C 0.35047 0.26432 0.82636 0.0
C1250 C 0.35046 0.25209 0.85306 0.0
H1251 H 0.71888 0.07132 0.86576 0.0
H1252 H 0.76341 0.128 0.8612 0.0
H1253 H 0.77802 0.12244 0.91442 0.0
H1254 H 0.71703 0.06862 0.96687 0.0
H1255 H 0.71157 0.04494 0.96728 0.0
H1256 H 0.70441 0.05362 0.92935 0.0
H1257 H 0.72105 0.04274 0.88478 0.0
H1258 H 0.72866 0.03447 0.92267 0.0
H1259 H 0.7452 0.05088 0.89098 0.0
H1260 H 0.78954 0.11002 0.96377 0.0
H1261 H 0.7937 0.09363 0.0158 0.0
H1262 H 0.74065 0.04572 0.99259 0.0
C1263 C 0.73147 0.08266 0.87654 0.0
C1264 C 0.73999 0.10011 0.85926 0.0
C1265 C 0.75653 0.11456 0.87406 0.0
C1266 C 0.76507 0.11149 0.90407 0.0
C1267 C 0.75674 0.09396 0.91951 0.0
C1268 C 0.74002 0.07993 0.90708 0.0
C1269 C 0.73378 0.06257 0.92958 0.0
C1270 C 0.71562 0.05712 0.94946 0.0
C1271 C 0.73207 0.04673 0.90556 0.0
C1272 C 0.74967 0.06903 0.95636 0.0
C1273 C 0.76294 0.08707 0.94945 0.0
C1274 C 0.77915 0.09595 0.96974 0.0
C1275 C 0.7815 0.08645 0.99897 0.0
C1276 C 0.76755 0.0684 1.00814 0.0
C1277 C 0.75159 0.05948 0.98604 0.0
H1278 H 0.98353 0.40824 0.6546 0.0
H1279 H 0.03779 0.45539 0.6727 0.0
H1280 H 0.03053 0.45485 0.73867 0.0
H1281 H 0.95865 0.42033 0.72051 0.0
H1282 H 0.94391 0.39679 0.73457 0.0
H1283 H 0.9529 0.40185 0.68857 0.0
H1284 H 0.96679 0.38062 0.69736 0.0
H1285 H 0.9578 0.37545 0.74326 0.0
H1286 H 0.98202 0.38457 0.73541 0.0
H1287 H 0.01785 0.44795 0.80292 0.0
H1288 H 0.00151 0.43469 0.86095 0.0
H1289 H 0.95552 0.39178 0.80065 0.0
C1290 C 0.99383 0.41863 0.6723 0.0
C1291 C 0.01121 0.43197 0.65854 0.0
C1292 C 0.02438 0.44512 0.6827 0.0
C1293 C 0.02034 0.44494 0.72012 0.0
C1294 C 0.00308 0.43151 0.7328 0.0
C1295 C 0.99006 0.41857 0.70959 0.0
C1296 C 0.97299 0.40491 0.73028 0.0
C1297 C 0.95612 0.40604 0.71773 0.0
C1298 C 0.96972 0.38523 0.72635 0.0
C1299 C 0.97848 0.412 0.76899 0.0
C1300 C -0.00417 0.42745 0.76978 0.0
C1301 C 0.00422 0.43597 0.80256 0.0
C1302 C -0.0052 0.42832 0.83539 0.0
C1303 C 0.97719 0.41226 0.83529 0.0
C1304 C 0.96882 0.40422 0.80155 0.0
H1305 H 0.56772 0.58734 0.84751 0.0
H1306 H 0.57219 0.53805 0.84437 0.0
H1307 H 0.56437 0.53458 0.77824 0.0
H1308 H 0.53001 0.57275 0.78237 0.0
H1309 H 0.53952 0.59526 0.76196 0.0
H1310 H 0.54399 0.59301 0.80943 0.0
H1311 H 0.57905 0.61209 0.79738 0.0
H1312 H 0.57469 0.6145 0.75 0.0
H1313 H 0.58902 0.60493 0.76186 0.0
H1314 H 0.55737 0.53732 0.71225 0.0
H1315 H 0.55406 0.54704 0.65038 0.0
H1316 H 0.55489 0.59516 0.69607 0.0
C1317 C 0.56681 0.57565 0.83306 0.0
C1318 C 0.57038 0.56282 0.85113 0.0
C1319 C 0.56943 0.54796 0.83108 0.0
C1320 C 0.56492 0.54586 0.7936 0.0
C1321 C 0.56151 0.5588 0.77664 0.0
C1322 C 0.56254 0.57348 0.79568 0.0
C1323 C 0.55953 0.58617 0.77059 0.0
C1324 C 0.54223 0.58683 0.78176 0.0
C1325 C 0.57659 0.60557 0.76992 0.0
C1326 C 0.55683 0.57646 0.73421 0.0
C1327 C 0.55781 0.56058 0.73846 0.0
C1328 C 0.55647 0.54965 0.70869 0.0
C1329 C 0.55456 0.5553 0.67362 0.0
C1330 C 0.5541 0.57182 0.66837 0.0
C1331 C 0.55487 0.58232 0.69925 0.0
H1332 H 0.41379 0.98489 0.85983 0.0
H1333 H 0.45819 0.04163 0.85784 0.0
H1334 H 0.46285 0.03851 0.79169 0.0
H1335 H 0.43314 0.96623 0.79454 0.0
H1336 H 0.41119 0.95103 0.77377 0.0
H1337 H 0.41239 0.95726 0.82135 0.0
H1338 H 0.38969 0.96912 0.8094 0.0
H1339 H 0.3883 0.96278 0.76194 0.0
H1340 H 0.39485 0.98607 0.77412 0.0
H1341 H 0.46165 0.02952 0.72552 0.0
H1342 H 0.45318 0.01663 0.66331 0.0
H1343 H 0.40893 0.96574 0.70791 0.0
C1344 C 0.42468 -0.00338 0.84562 0.0
C1345 C 0.43579 0.01349 0.86405 0.0
C1346 C 0.4496 0.02859 0.8443 0.0
C1347 C 0.45238 0.02689 0.80682 0.0
C1348 C 0.44118 0.01002 0.78954 0.0
C1349 C 0.4275 0.9952 0.80826 0.0
C1350 C 0.41643 0.97902 0.78286 0.0
C1351 C 0.41841 0.96241 0.79379 0.0
C1352 C 0.39612 0.97396 0.78203 0.0
C1353 C 0.42586 0.98709 0.74662 0.0
C1354 C 0.44025 0.00491 0.75126 0.0
C1355 C 0.45051 0.01556 0.72168 0.0
C1356 C 0.44559 0.00807 0.68641 0.0
C1357 C 0.43048 0.99011 0.68075 0.0
C1358 C 0.42078 0.97933 0.71142 0.0
H1359 H 0.56475 0.97996 0.21141 0.0
H1360 H 0.58737 0.0289 0.14336 0.0
H1361 H 0.59578 0.0483 0.19883 0.0
H1362 H 0.54613 0.99635 0.28292 0.0
H1363 H 0.55198 0.98554 0.31906 0.0
H1364 H 0.54686 0.97561 0.27385 0.0
H1365 H 0.57831 0.97685 0.27226 0.0
H1366 H 0.58358 0.98688 0.31733 0.0
H1367 H 0.59909 -0.00151 0.27984 0.0
H1368 H 0.60343 0.06255 0.26278 0.0
H1369 H 0.60855 0.06991 0.32917 0.0
H1370 H 0.5806 0.01152 0.35397 0.0
C1371 C 0.57122 0.99473 0.20814 0.0
C1372 C 0.57531 0.00289 0.17303 0.0
C1373 C 0.58401 0.02232 0.16999 0.0
C1374 C 0.58887 0.03347 0.20135 0.0
C1375 C 0.58491 0.02501 0.23562 0.0
C1376 C 0.57617 0.00606 0.23913 0.0
C1377 C 0.57395 0.00036 0.27896 0.0
C1378 C 0.55352 0.98878 0.2893 0.0
C1379 C 0.58436 0.99004 0.28759 0.0
C1380 C 0.5829 0.01903 0.29729 0.0
C1381 C 0.58917 0.03313 0.272 0.0
C1382 C 0.59843 0.05158 0.28284 0.0
C1383 C 0.60131 0.05566 0.32052 0.0
C1384 C 0.5949 0.04133 0.34674 0.0
C1385 C 0.58555 0.02283 0.33471 0.0
H1386 H 0.97857 0.57769 0.33157 0.0
H1387 H 0.92678 0.52638 0.33962 0.0
H1388 H 0.92919 0.52023 0.27401 0.0
H1389 H 0.97061 0.58943 0.23972 0.0
H1390 H -0.00554 0.59975 0.22694 0.0
H1391 H 0.98829 0.59996 0.27411 0.0
H1392 H 0.00691 0.58419 0.29265 0.0
H1393 H 0.01281 0.58359 0.24544 0.0
H1394 H 0.00156 0.56261 0.27178 0.0
H1395 H 0.93806 0.51918 0.20853 0.0
H1396 H 0.95033 0.525 0.14559 0.0
H1397 H -0.00392 0.57755 0.17981 0.0
C1398 C 0.96764 0.56523 0.31942 0.0
C1399 C 0.95248 0.55244 0.34057 0.0
C1400 C 0.93842 0.53637 0.32377 0.0
C1401 C 0.93977 0.53272 0.28667 0.0
C1402 C 0.95516 0.54541 0.26683 0.0
C1403 C 0.96866 0.56152 0.28243 0.0
C1404 C 0.9835 0.57317 0.25489 0.0
C1405 C 0.98425 0.59167 0.24854 0.0
C1406 C 0.0023 0.57605 0.26692 0.0
C1407 C 0.97641 0.56098 0.22135 0.0
C1408 C 0.9601 0.54498 0.22894 0.0
C1409 C 0.95078 0.53167 0.20227 0.0
C1410 C 0.95793 0.53507 0.16663 0.0
C1411 C 0.97423 0.55169 0.15782 0.0
C1412 C 0.98378 0.56461 0.18581 0.0
H1413 H 0.42074 0.44415 0.18562 0.0
H1414 H 0.36375 0.40163 0.17164 0.0
H1415 H 0.36469 0.38807 0.23113 0.0
H1416 H 0.43647 0.41649 0.22555 0.0
H1417 H 0.45177 0.43341 0.25803 0.0
H1418 H 0.44653 0.44067 0.21548 0.0
H1419 H 0.43523 0.45997 0.25061 0.0
H1420 H 0.44089 0.45315 0.29325 0.0
H1421 H 0.41797 0.44915 0.28571 0.0
H1422 H 0.37271 0.37743 0.28909 0.0
H1423 H 0.38537 0.37346 0.34708 0.0
H1424 H 0.43684 0.42368 0.32542 0.0
C1425 C 0.40831 0.43229 0.19558 0.0
C1426 C 0.39211 0.42405 0.1741 0.0
C1427 C 0.37622 0.40837 0.18784 0.0
C1428 C 0.37669 0.40044 0.22142 0.0
C1429 C 0.39307 0.4085 0.24124 0.0
C1430 C 0.40846 0.42435 0.22933 0.0
C1431 C 0.42431 0.43029 0.25602 0.0
C1432 C 0.44074 0.4302 0.23766 0.0
C1433 C 0.42993 0.44927 0.27237 0.0
C1434 C 0.41548 0.4152 0.28464 0.0
C1435 C 0.39754 0.40265 0.27526 0.0
C1436 C 0.38668 0.38729 0.29689 0.0
C1437 C 0.39408 0.38507 0.32967 0.0
C1438 C 0.41213 0.39823 0.34085 0.0
C1439 C 0.42305 0.41332 0.31758 0.0
H1440 H 0.30743 0.18027 0.13485 0.0
H1441 H 0.34685 0.22498 0.2032 0.0
H1442 H 0.35723 0.20454 0.22902 0.0
H1443 H 0.29544 0.14371 0.20165 0.0
H1444 H 0.29346 0.12729 0.16754 0.0
H1445 H 0.28867 0.1453 0.15552 0.0
H1446 H 0.31269 0.15571 0.10319 0.0
H1447 H 0.31768 0.13785 0.11526 0.0
H1448 H 0.33595 0.16149 0.11364 0.0
H1449 H 0.36426 0.17976 0.24544 0.0
H1450 H 0.36631 0.15161 0.2538 0.0
H1451 H 0.3222 0.12304 0.1751 0.0
C1452 C 0.3181 0.18568 0.15555 0.0
C1453 C 0.32633 0.20418 0.16709 0.0
C1454 C 0.34033 0.21082 0.19404 0.0
C1455 C 0.34635 0.19934 0.20882 0.0
C1456 C 0.33818 0.18126 0.19641 0.0
C1457 C 0.32426 0.17441 0.17062 0.0
C1458 C 0.31796 0.15452 0.16167 0.0
C1459 C 0.29768 0.14197 0.17224 0.0
C1460 C 0.32128 0.15227 0.12103 0.0
C1461 C 0.3306 0.15133 0.18628 0.0
C1462 C 0.34218 0.16693 0.20604 0.0
C1463 C 0.35522 0.16741 0.23026 0.0
C1464 C 0.35632 0.1514 0.23472 0.0
C1465 C 0.34442 0.13519 0.2151 0.0
C1466 C 0.33148 0.13524 0.19047 0.0
H1467 H 0.82227 0.11536 0.14116 0.0
H1468 H 0.76911 0.10868 0.16967 0.0
H1469 H 0.78402 0.1416 0.18585 0.0
H1470 H 0.84737 0.14644 0.21407 0.0
H1471 H 0.86772 0.15995 0.18692 0.0
H1472 H 0.85274 0.13599 0.17651 0.0
H1473 H 0.84949 0.14467 0.10983 0.0
H1474 H 0.86433 0.16869 0.12016 0.0
H1475 H 0.84168 0.16084 0.10181 0.0
H1476 H 0.80453 0.17494 0.1993 0.0
H1477 H 0.82964 0.20623 0.21356 0.0
H1478 H 0.86961 0.19128 0.17702 0.0
C1479 C 0.81379 0.12084 0.15081 0.0
C1480 C 0.79455 0.10952 0.15414 0.0
C1481 C 0.78388 0.11713 0.167 0.0
C1482 C 0.79221 0.13581 0.17607 0.0
C1483 C 0.81118 0.14664 0.17218 0.0
C1484 C 0.82188 0.13944 0.16015 0.0
C1485 C 0.84206 0.15396 0.15968 0.0
C1486 C 0.85312 0.14878 0.18586 0.0
C1487 C 0.84984 0.15723 0.12054 0.0
C1488 C 0.84104 0.17041 0.17361 0.0
C1489 C 0.82308 0.16591 0.1803 0.0
C1490 C 0.81865 0.17866 0.19409 0.0
C1491 C 0.83301 0.1964 0.20202 0.0
C1492 C 0.85155 0.20117 0.1963 0.0
C1493 C 0.85556 0.18806 0.18135 0.0
H1494 H 0.79173 0.64407 0.22109 0.0
H1495 H 0.7831 0.68052 0.14993 0.0
H1496 H 0.81608 0.69676 0.13331 0.0
H1497 H 0.83502 0.67795 0.25571 0.0
H1498 H 0.8445 0.66286 0.25724 0.0
H1499 H 0.8201 0.65354 0.26203 0.0
H1500 H 0.81406 0.63142 0.20753 0.0
H1501 H 0.83843 0.64046 0.20298 0.0
H1502 H 0.82523 0.64068 0.16423 0.0
H1503 H 0.85036 0.70938 0.12565 0.0
H1504 H 0.88263 0.71611 0.12507 0.0
H1505 H 0.86834 0.67184 0.20292 0.0
C1506 C 0.79671 0.65529 0.20158 0.0
C1507 C 0.78488 0.66098 0.1866 0.0
C1508 C 0.79195 0.67588 0.16155 0.0
C1509 C 0.81065 0.68523 0.15208 0.0
C1510 C 0.82204 0.67953 0.16806 0.0
C1511 C 0.81529 0.66482 0.19208 0.0
C1512 C 0.83036 0.66154 0.20593 0.0
C1513 C 0.83262 0.66413 0.2477 0.0
C1514 C 0.82681 0.64239 0.19447 0.0
C1515 C 0.84668 0.67668 0.18592 0.0
C1516 C 0.84167 0.68695 0.16422 0.0
C1517 C 0.85445 0.70145 0.14262 0.0
C1518 C 0.87274 0.70524 0.1426 0.0
C1519 C 0.87798 0.69458 0.16411 0.0
C1520 C 0.86479 0.68036 0.18644 0.0
H1521 H 0.11878 0.33392 0.32233 0.0
H1522 H 0.15191 0.37935 0.24879 0.0
H1523 H 0.17643 0.37131 0.25072 0.0
H1524 H 0.15543 0.33911 0.37887 0.0
H1525 H 0.14622 0.31476 0.38549 0.0
H1526 H 0.13096 0.32356 0.37679 0.0
H1527 H 0.11717 0.30149 0.32138 0.0
H1528 H 0.13252 0.29272 0.32976 0.0
H1529 H 0.13218 0.30206 0.28547 0.0
H1530 H 0.19775 0.35937 0.26276 0.0
H1531 H 0.21513 0.34494 0.28599 0.0
H1532 H 0.16798 0.30694 0.35099 0.0
C1533 C 0.13117 0.34213 0.30654 0.0
C1534 C 0.13349 0.35725 0.28542 0.0
C1535 C 0.14989 0.36771 0.26518 0.0
C1536 C 0.16384 0.36321 0.26596 0.0
C1537 C 0.16109 0.34817 0.28696 0.0
C1538 C 0.1452 0.33781 0.30695 0.0
C1539 C 0.14601 0.32278 0.3284 0.0
C1540 C 0.14458 0.32521 0.36983 0.0
C1541 C 0.13108 0.30363 0.31546 0.0
C1542 C 0.165 0.32654 0.31785 0.0
C1543 C 0.17338 0.34115 0.29369 0.0
C1544 C 0.19129 0.3478 0.28139 0.0
C1545 C 0.20103 0.33952 0.29473 0.0
C1546 C 0.19283 0.32478 0.32006 0.0
C1547 C 0.17447 0.318 0.33119 0.0
H1548 H 0.67946 0.87069 0.37099 0.0
H1549 H 0.63882 0.8771 0.30939 0.0
H1550 H 0.62332 0.84407 0.2925 0.0
H1551 H 0.6832 0.83981 0.30957 0.0
H1552 H 0.68592 0.82671 0.34572 0.0
H1553 H 0.69337 0.85066 0.35261 0.0
H1554 H 0.67283 0.8422 0.41057 0.0
H1555 H 0.66513 0.81818 0.40356 0.0
H1556 H 0.6486 0.82583 0.40698 0.0
H1557 H 0.6128 0.81022 0.28177 0.0
H1558 H 0.60905 0.77912 0.27585 0.0
H1559 H 0.65637 0.79566 0.34632 0.0
C1560 C 0.66734 0.86521 0.3538 0.0
C1561 C 0.66035 0.87641 0.34135 0.0
C1562 C 0.64442 0.86871 0.31907 0.0
C1563 C 0.6355 0.84998 0.30952 0.0
C1564 C 0.64267 0.83926 0.32273 0.0
C1565 C 0.65828 0.84667 0.3443 0.0
C1566 C 0.66347 0.83245 0.3547 0.0
C1567 C 0.68262 0.83772 0.33974 0.0
C1568 C 0.66244 0.8295 0.39643 0.0
C1569 C 0.64848 0.81586 0.33526 0.0
C1570 C 0.63653 0.81996 0.31708 0.0
C1571 C 0.62201 0.80684 0.2961 0.0
C1572 C 0.61994 0.78923 0.29301 0.0
C1573 C 0.63236 0.785 0.31079 0.0
C1574 C 0.64655 0.79842 0.3327 0.0
H1575 H 0.1347 0.8159 0.38289 0.0
H1576 H 0.1332 0.76413 0.36366 0.0
H1577 H 0.16649 0.78101 0.35054 0.0
H1578 H 0.16594 0.84065 0.31079 0.0
H1579 H 0.17764 0.862 0.33577 0.0
H1580 H 0.15394 0.84573 0.34564 0.0
H1581 H 0.16228 0.8454 0.41394 0.0
H1582 H 0.18606 0.86154 0.40415 0.0
H1583 H 0.17978 0.83985 0.42577 0.0
H1584 H 0.1996 0.8034 0.33797 0.0
H1585 H 0.22981 0.82989 0.32172 0.0
H1586 H 0.20974 0.86713 0.34845 0.0
C1587 C 0.1414 0.80813 0.37605 0.0
C1588 C 0.13142 0.78872 0.37435 0.0
C1589 C 0.14061 0.77902 0.36504 0.0
C1590 C 0.15952 0.78847 0.35779 0.0
C1591 C 0.169 0.8076 0.35992 0.0
C1592 C 0.16025 0.81735 0.36852 0.0
C1593 C 0.17345 0.83789 0.36708 0.0
C1594 C 0.16738 0.8471 0.33809 0.0
C1595 C 0.17551 0.84669 0.405 0.0
C1596 C 0.19092 0.83817 0.35578 0.0
C1597 C 0.1881 0.82055 0.35227 0.0
C1598 C 0.20201 0.81727 0.34082 0.0
C1599 C 0.21914 0.8324 0.33175 0.0
C1600 C 0.22212 0.85054 0.33396 0.0
C1601 C 0.20792 0.85343 0.34689 0.0
H1602 H 0.64294 0.85346 0.81431 0.0
H1603 H 0.69036 0.90451 0.84986 0.0
H1604 H 0.70545 0.88725 0.87039 0.0
H1605 H 0.64411 0.82435 0.8879 0.0
H1606 H 0.63735 0.80494 0.85794 0.0
H1607 H 0.62979 0.8212 0.84864 0.0
H1608 H 0.64377 0.82641 0.78346 0.0
H1609 H 0.65155 0.81033 0.79267 0.0
H1610 H 0.66774 0.83344 0.77819 0.0
H1611 H 0.716 0.86475 0.88393 0.0
H1612 H 0.72099 0.83835 0.8915 0.0
H1613 H 0.66685 0.80198 0.8462 0.0
C1614 C 0.65637 0.86097 0.827 0.0
C1615 C 0.66547 0.8803 0.83072 0.0
C1616 C 0.68313 0.88969 0.84694 0.0
C1617 C 0.69181 0.88001 0.85863 0.0
C1618 C 0.68262 0.86099 0.85385 0.0
C1619 C 0.66526 0.85154 0.83864 0.0
C1620 C 0.65869 0.83119 0.8353 0.0
C1621 C 0.64147 0.81975 0.85886 0.0
C1622 C 0.65524 0.82499 0.79501 0.0
C1623 C 0.67517 0.83071 0.85064 0.0
C1624 C 0.68879 0.84803 0.86131 0.0
C1625 C 0.70541 0.85111 0.87586 0.0
C1626 C 0.70813 0.83604 0.87994 0.0
C1627 C 0.69431 0.81815 0.86938 0.0
C1628 C 0.67767 0.81551 0.85444 0.0
H1629 H 0.11508 0.78679 0.86441 0.0
H1630 H 0.15093 0.76708 0.82528 0.0
H1631 H 0.17791 0.79779 0.83608 0.0
H1632 H 0.13823 0.82983 0.82277 0.0
H1633 H 0.13514 0.84228 0.85966 0.0
H1634 H 0.11872 0.81829 0.85297 0.0
H1635 H 0.12366 0.81112 0.91972 0.0
H1636 H 0.13991 0.83516 0.92685 0.0
H1637 H 0.14659 0.81817 0.93546 0.0
H1638 H 0.20047 0.83109 0.84513 0.0
H1639 H 0.21766 0.86454 0.85642 0.0
H1640 H 0.16716 0.86262 0.89002 0.0
C1641 C 0.12864 0.78882 0.85895 0.0
C1642 C 0.13097 0.77458 0.84415 0.0
C1643 C 0.14888 0.7778 0.83681 0.0
C1644 C 0.16427 0.79519 0.84279 0.0
C1645 C 0.16146 0.80911 0.85628 0.0
C1646 C 0.14413 0.80608 0.86474 0.0
C1647 C 0.14482 0.82361 0.87724 0.0
C1648 C 0.13356 0.8288 0.85162 0.0
C1649 C 0.13837 0.82191 0.9172 0.0
C1650 C 0.1652 0.83704 0.87371 0.0
C1651 C 0.17453 0.82837 0.86167 0.0
C1652 C 0.19336 0.83801 0.85499 0.0
C1653 C 0.20297 0.85701 0.86126 0.0
C1654 C 0.19371 0.86612 0.8741 0.0
C1655 C 0.17458 0.85599 0.8803 0.0
H1656 H 0.12537 0.32703 0.84579 0.0
H1657 H 0.10863 0.27887 0.91413 0.0
H1658 H 0.13957 0.28247 0.9075 0.0
H1659 H 0.15208 0.31847 0.78302 0.0
H1660 H 0.16952 0.34231 0.77806 0.0
H1661 H 0.14638 0.33631 0.7898 0.0
H1662 H 0.15844 0.35696 0.84757 0.0
H1663 H 0.18164 0.36297 0.83606 0.0
H1664 H 0.1723 0.3532 0.8803 0.0
H1665 H 0.17172 0.29016 0.88943 0.0
H1666 H 0.2026 0.3017 0.86226 0.0
H1667 H 0.19829 0.34551 0.80842 0.0
C1668 C 0.12824 0.31729 0.85953 0.0
C1669 C 0.11465 0.30265 0.88036 0.0
C1670 C 0.11891 0.29021 0.89804 0.0
C1671 C 0.13643 0.29216 0.89449 0.0
C1672 C 0.14953 0.30674 0.87358 0.0
C1673 C 0.14566 0.31916 0.85661 0.0
C1674 C 0.16194 0.33338 0.835 0.0
C1675 C 0.15719 0.33255 0.79405 0.0
C1676 C 0.169 0.35277 0.85068 0.0
C1677 C 0.17547 0.32681 0.84177 0.0
C1678 C 0.16811 0.31146 0.86414 0.0
C1679 C 0.17773 0.30233 0.87232 0.0
C1680 C 0.19522 0.30896 0.8568 0.0
C1681 C 0.20286 0.32458 0.83361 0.0
C1682 C 0.19293 0.33373 0.82658 0.0
H1683 H 0.86816 0.66786 0.69728 0.0
H1684 H 0.832 0.61619 0.75207 0.0
H1685 H 0.80541 0.62031 0.73835 0.0
H1686 H 0.84614 0.6922 0.72851 0.0
H1687 H 0.84952 0.70455 0.68614 0.0
H1688 H 0.86551 0.69726 0.6996 0.0
H1689 H 0.8601 0.67988 0.63806 0.0
H1690 H 0.84418 0.6872 0.6243 0.0
H1691 H 0.83701 0.66306 0.62476 0.0
H1692 H 0.78295 0.63052 0.71928 0.0
H1693 H 0.76627 0.64556 0.69487 0.0
H1694 H 0.81754 0.69048 0.65305 0.0
C1695 C 0.85465 0.65734 0.70626 0.0
C1696 C 0.85209 0.64169 0.72569 0.0
C1697 C 0.83421 0.62827 0.73705 0.0
C1698 C 0.81906 0.63051 0.72946 0.0
C1699 C 0.82211 0.64623 0.7105 0.0
C1700 C 0.83946 0.65936 0.69895 0.0
C1701 C 0.83915 0.67504 0.6792 0.0
C1702 C 0.85076 0.69334 0.69959 0.0
C1703 C 0.84548 0.67636 0.63921 0.0
C1704 C 0.81889 0.66872 0.68146 0.0
C1705 C 0.80927 0.65208 0.69963 0.0
C1706 C 0.79035 0.64355 0.70498 0.0
C1707 C 0.78099 0.65219 0.69112 0.0
C1708 C 0.79064 0.66916 0.67217 0.0
C1709 C 0.80981 0.67751 0.66752 0.0
H1710 H 0.32678 0.19651 0.66908 0.0
H1711 H 0.37393 0.2095 0.73775 0.0
H1712 H 0.36661 0.17709 0.73397 0.0
H1713 H 0.29668 0.15229 0.7071 0.0
H1714 H 0.28602 0.14209 0.66396 0.0
H1715 H 0.29526 0.16636 0.67132 0.0
H1716 H 0.31568 0.17366 0.61349 0.0
H1717 H 0.30642 0.1494 0.60581 0.0
H1718 H 0.33091 0.16443 0.60959 0.0
H1719 H 0.35369 0.14316 0.72359 0.0
H1720 H 0.33671 0.11036 0.70593 0.0
H1721 H 0.29804 0.11981 0.64414 0.0
C1722 C 0.33564 0.19258 0.68316 0.0
C1723 C 0.35094 0.20548 0.70368 0.0
C1724 C 0.36217 0.19981 0.7218 0.0
C1725 C 0.3581 0.18145 0.71987 0.0
C1726 C 0.34279 0.16903 0.69967 0.0
C1727 C 0.33179 0.17438 0.68151 0.0
C1728 C 0.31608 0.15836 0.66185 0.0
C1729 C 0.29741 0.15455 0.67698 0.0
C1730 C 0.31736 0.16166 0.62022 0.0
C1731 C 0.31991 0.14312 0.67187 0.0
C1732 C 0.33536 0.14954 0.69372 0.0
C1733 C 0.34159 0.13798 0.70646 0.0
C1734 C 0.33184 0.11938 0.69634 0.0
C1735 C 0.31607 0.11258 0.67372 0.0
C1736 C 0.31003 0.12462 0.66152 0.0
H1737 H 0.86952 0.17471 0.65818 0.0
H1738 H 0.88007 0.22788 0.69779 0.0
H1739 H 0.84827 0.21347 0.72138 0.0
H1740 H 0.82418 0.15921 0.62718 0.0
H1741 H 0.81548 0.13559 0.6406 0.0
H1742 H 0.83937 0.14985 0.62883 0.0
H1743 H 0.84886 0.14291 0.69182 0.0
H1744 H 0.82499 0.12851 0.70368 0.0
H1745 H 0.83998 0.1473 0.73319 0.0
H1746 H 0.81511 0.19347 0.73859 0.0
H1747 H 0.78296 0.16914 0.7493 0.0
H1748 H 0.79411 0.12922 0.69742 0.0
C1749 C 0.86522 0.18329 0.67223 0.0
C1750 C 0.87722 0.20238 0.67634 0.0
C1751 C 0.87106 0.2132 0.69448 0.0
C1752 C 0.85305 0.20515 0.70793 0.0
C1753 C 0.84146 0.18631 0.70292 0.0
C1754 C 0.8473 0.17551 0.68562 0.0
C1755 C 0.83198 0.15571 0.68273 0.0
C1756 C 0.82749 0.14975 0.64244 0.0
C1757 C 0.83674 0.14285 0.70414 0.0
C1758 C 0.81655 0.15709 0.7009 0.0
C1759 C 0.82231 0.17484 0.71246 0.0
C1760 C 0.81045 0.17951 0.72977 0.0
C1761 C 0.79223 0.16563 0.73564 0.0
C1762 C 0.78609 0.14735 0.7241 0.0
C1763 C 0.79843 0.14309 0.70643 0.0
H1764 H 0.01692 0.48272 0.52833 0.0
H1765 H 0.97151 0.43107 0.48926 0.0
H1766 H 0.95469 0.44707 0.47163 0.0
H1767 H 0.98978 0.50027 0.56681 0.0
H1768 H 0.00536 0.52374 0.55346 0.0
H1769 H 0.014 0.50831 0.56211 0.0
H1770 H 0.02859 0.51492 0.49732 0.0
H1771 H 0.0201 0.53046 0.48856 0.0
H1772 H 0.01439 0.51157 0.45778 0.0
H1773 H 0.94266 0.46865 0.4594 0.0
H1774 H 0.93669 0.49446 0.45172 0.0
H1775 H 0.99002 0.5318 0.49909 0.0
C1776 C 0.00349 0.47479 0.51584 0.0
C1777 C -0.0045 0.45569 0.51007 0.0
C1778 C 0.97787 0.44575 0.49382 0.0
C1779 C 0.96821 0.4547 0.48379 0.0
C1780 C 0.97641 0.47354 0.49021 0.0
C1781 C 0.99368 0.48348 0.50571 0.0
C1782 C -0.00062 0.50356 0.50992 0.0
C1783 C 0.00229 0.5093 0.55049 0.0
C1784 C 0.01664 0.51585 0.48702 0.0
C1785 C 0.9826 0.50337 0.49443 0.0
C1786 C 0.96949 0.48593 0.48324 0.0
C1787 C 0.95282 0.48237 0.46802 0.0
C1788 C 0.94954 0.49709 0.46385 0.0
C1789 C 0.96289 0.51508 0.47487 0.0
C1790 C 0.97955 0.51817 0.4905 0.0
H1791 H 0.53517 0.53283 0.50517 0.0
H1792 H 0.49875 0.55341 0.53547 0.0
H1793 H 0.47194 0.52342 0.51984 0.0
H1794 H 0.50707 0.50369 0.42836 0.0
H1795 H 0.51225 0.48575 0.43853 0.0
H1796 H 0.52875 0.50935 0.44912 0.0
H1797 H 0.52948 0.50021 0.51667 0.0
H1798 H 0.51288 0.47663 0.5064 0.0
H1799 H 0.50832 0.48855 0.54229 0.0
H1800 H 0.44933 0.49109 0.50643 0.0
H1801 H 0.43162 0.45804 0.49256 0.0
H1802 H 0.48224 0.45783 0.46969 0.0
C1803 C 0.52156 0.5311 0.50784 0.0
C1804 C 0.51899 0.54542 0.52144 0.0
C1805 C 0.501 0.54261 0.52505 0.0
C1806 C 0.4857 0.52565 0.51623 0.0
C1807 C 0.48865 0.51169 0.50369 0.0
C1808 C 0.50608 0.51421 0.49914 0.0
C1809 C 0.50528 0.49659 0.48664 0.0
C1810 C 0.51385 0.49899 0.44839 0.0
C1811 C 0.51454 0.49012 0.51468 0.0
C1812 C 0.48467 0.48373 0.48562 0.0
C1813 C 0.47541 0.49282 0.4955 0.0
C1814 C 0.45638 0.48384 0.49824 0.0
C1815 C 0.44646 0.46504 0.49048 0.0
C1816 C 0.45558 0.45541 0.48 0.0
C1817 C 0.47494 0.4649 0.47739 0.0
H1818 H 0.54165 0.01066 0.50594 0.0
H1819 H 0.55516 0.06391 0.46107 0.0
H1820 H 0.52298 0.05635 0.4695 0.0
H1821 H 0.49665 0.98494 0.46542 0.0
H1822 H 0.48658 0.9703 0.50482 0.0
H1823 H 0.51067 0.97979 0.49503 0.0
H1824 H 0.51898 0.99417 0.55995 0.0
H1825 H 0.49492 0.98459 0.57004 0.0
H1826 H 0.51043 0.00897 0.57487 0.0
H1827 H 0.48953 0.04319 0.48334 0.0
H1828 H 0.45728 0.02582 0.50435 0.0
H1829 H 0.46558 0.98109 0.53967 0.0
C1830 C 0.53784 0.02074 0.49798 0.0
C1831 C 0.55087 0.03787 0.48289 0.0
C1832 C 0.54538 0.0507 0.47276 0.0
C1833 C 0.52714 0.04652 0.4773 0.0
C1834 C 0.51459 0.02944 0.49194 0.0
C1835 C 0.5197 0.01679 0.50229 0.0
C1836 C 0.50359 -0.00044 0.51797 0.0
C1837 C 0.49911 0.98265 0.49439 0.0
C1838 C 0.5072 -0.00334 0.55809 0.0
C1839 C 0.48866 0.00457 0.51506 0.0
C1840 C 0.49527 0.02183 0.49979 0.0
C1841 C 0.48416 0.02963 0.49519 0.0
C1842 C 0.46587 0.01966 0.50712 0.0
C1843 C 0.45894 0.0021 0.52346 0.0
C1844 C 0.47045 0.99441 0.52695 0.0
H1845 H 0.48191 0.01823 0.99654 0.0
H1846 H 0.43384 0.97329 0.0482 0.0
H1847 H 0.45236 0.95929 0.06705 0.0
H1848 H 0.50004 0.99122 0.96084 0.0
H1849 H 0.52371 0.00837 0.96887 0.0
H1850 H 0.5069 0.0153 0.9608 0.0
H1851 H 0.51566 0.0333 0.02211 0.0
H1852 H 0.53267 0.02663 0.03013 0.0
H1853 H 0.51514 0.0216 0.06394 0.0
H1854 H 0.47601 0.94986 0.07886 0.0
H1855 H 0.50352 0.94656 0.08548 0.0
H1856 H 0.53571 -0.00254 0.02503 0.0
C1857 C 0.47534 0.00556 0.01221 0.0
C1858 C 0.45649 -0.00315 0.02106 0.0
C1859 C 0.44831 0.9802 0.04127 0.0
C1860 C 0.45868 0.97212 0.05198 0.0
C1861 C 0.47717 0.98088 0.04218 0.0
C1862 C 0.48545 -0.00271 0.02296 0.0
C1863 C 0.50547 0.00379 0.01545 0.0
C1864 C 0.50924 0.00472 0.97403 0.0
C1865 C 0.51797 0.02243 0.03403 0.0
C1866 C 0.50716 0.98848 0.03343 0.0
C1867 C 0.4907 0.97537 0.04865 0.0
C1868 C 0.48898 0.96003 0.06706 0.0
C1869 C 0.50464 0.95824 0.07056 0.0
C1870 C 0.52168 0.97172 0.05566 0.0
C1871 C 0.52283 0.98687 0.03651 0.0
H1872 H 0.99308 0.51719 0.02061 0.0
H1873 H 0.94286 0.51343 0.97921 0.0
H1874 H 0.93144 0.48106 0.96173 0.0
H1875 H -0.00294 0.48863 0.9505 0.0
H1876 H 0.00576 0.47828 0.98209 0.0
H1877 H 0.01011 0.50129 0.99005 0.0
H1878 H -0.00438 0.49149 0.05468 0.0
H1879 H 0.99096 0.46837 0.04671 0.0
H1880 H 0.97252 0.4724 0.05924 0.0
H1881 H 0.92504 0.44893 0.95095 0.0
H1882 H 0.92505 0.41975 0.94295 0.0
H1883 H 0.97946 0.44449 0.99147 0.0
C1884 C 0.97977 0.50962 1.00745 0.0
C1885 C 0.96885 0.51779 1.00117 0.0
C1886 C 0.95148 0.50743 0.98411 0.0
C1887 C 0.94484 0.48904 0.97425 0.0
C1888 C 0.95579 0.48128 0.98158 0.0
C1889 C 0.97296 0.49128 0.99742 0.0
C1890 C 0.98194 0.47965 1.00243 0.0
C1891 C -0.00023 0.48743 0.97992 0.0
C1892 C 0.98546 0.47788 0.04319 0.0
C1893 C 0.9671 0.46152 0.98706 0.0
C1894 C 0.9521 0.46274 0.97532 0.0
C1895 C 0.93671 0.44781 0.95995 0.0
C1896 C 0.93682 0.43128 0.95567 0.0
C1897 C 0.95224 0.42986 0.96669 0.0
C1898 C 0.96744 0.44513 0.98304 0.0
H1899 H 0.45603 0.46244 0.01351 0.0
H1900 H 0.43344 0.49556 0.0542 0.0
H1901 H 0.46385 0.52367 0.0463 0.0
H1902 H 0.49929 0.48721 0.05752 0.0
H1903 H 0.51194 0.48481 0.02013 0.0
H1904 H 0.48827 0.46757 0.02751 0.0
H1905 H 0.48028 0.47194 0.96097 0.0
H1906 H 0.50397 0.48904 0.95325 0.0
H1907 H 0.48613 0.49461 0.94534 0.0
H1908 H 0.49731 0.5481 0.03495 0.0
H1909 H 0.53037 0.56664 0.01911 0.0
H1910 H 0.53031 0.51681 0.98734 0.0
C1911 C 0.45739 0.47561 0.02042 0.0
C1912 C 0.44239 0.47687 0.03432 0.0
C1913 C 0.44477 0.49434 0.04332 0.0
C1914 C 0.46198 0.51034 0.03904 0.0
C1915 C 0.47659 0.50856 0.0258 0.0
C1916 C 0.47439 0.49161 0.01648 0.0
C1917 C 0.49219 0.49322 1.00337 0.0
C1918 C 0.49828 0.48257 0.02865 0.0
C1919 C 0.49054 0.48683 0.96336 0.0
C1920 C 0.50483 0.51375 1.00678 0.0
C1921 C 0.49565 0.52242 0.01974 0.0
C1922 C 0.50461 0.54144 0.02479 0.0
C1923 C 0.52337 0.55184 0.01585 0.0
C1924 C 0.53288 0.54314 1.00215 0.0
C1925 C 0.52345 0.52385 0.99794 0.0
H1926 H 0.41097 0.03287 0.093 0.0
H1927 H 0.4312 0.07564 1.01005 0.0
H1928 H 0.42441 0.09496 0.05108 0.0
H1929 H 0.37367 0.03682 0.12039 0.0
H1930 H 0.37515 0.03261 0.16836 0.0
H1931 H 0.38385 0.02333 0.13461 0.0
H1932 H 0.41568 0.0395 0.16646 0.0
H1933 H 0.40706 0.04888 0.20036 0.0
H1934 H 0.42724 0.06399 0.17411 0.0
H1935 H 0.41138 0.10758 0.09738 0.0
H1936 H 0.39364 0.1127 0.14529 0.0
H1937 H 0.383 0.06241 0.19964 0.0
C1938 C 0.41438 0.04648 0.08375 0.0
C1939 C 0.42172 0.05279 0.04832 0.0
C1940 C 0.42571 0.07057 0.03712 0.0
C1941 C 0.42192 0.08164 0.0603 0.0
C1942 C 0.41433 0.07484 0.09478 0.0
C1943 C 0.41076 0.05772 0.1066 0.0
C1944 C 0.40134 0.05302 0.14373 0.0
C1945 C 0.38238 0.03541 0.14162 0.0
C1946 C 0.41356 0.05125 0.17289 0.0
C1947 C 0.39954 0.06988 0.15046 0.0
C1948 C 0.40727 0.08238 0.12201 0.0
C1949 C 0.40571 0.09813 0.1202 0.0
C1950 C 0.39563 0.10095 0.14755 0.0
C1951 C 0.38738 0.08821 0.17661 0.0
C1952 C 0.38977 0.07272 0.17851 0.0
H1953 H 0.92548 0.29439 0.15003 0.0
H1954 H 0.86914 0.28189 0.16328 0.0
H1955 H 0.87331 0.3031 0.11181 0.0
H1956 H 0.94415 0.34297 0.1307 0.0
H1957 H 0.96093 0.34378 0.09886 0.0
H1958 H 0.95313 0.32759 0.13624 0.0
H1959 H 0.94373 0.30087 0.09015 0.0
H1960 H 0.95136 0.31695 0.05261 0.0
H1961 H 0.92813 0.29784 0.05336 0.0
H1962 H 0.8836 0.32421 0.05479 0.0
H1963 H 0.89996 0.34603 1.00383 0.0
H1964 H 0.95006 0.34623 0.03303 0.0
C1965 C 0.91402 0.29616 0.14217 0.0
C1966 C 0.89693 0.28643 0.16028 0.0
C1967 C 0.88234 0.28927 0.14967 0.0
C1968 C 0.88458 0.30121 0.12041 0.0
C1969 C 0.90162 0.31044 0.10273 0.0
C1970 C 0.91617 0.30829 0.11382 0.0
C1971 C 0.93327 0.32013 0.09146 0.0
C1972 C 0.94878 0.33447 0.11577 0.0
C1973 C 0.93947 0.30823 0.07066 0.0
C1974 C 0.92608 0.32912 0.0655 0.0
C1975 C 0.90774 0.32324 0.07196 0.0
C1976 C 0.89802 0.32908 0.04993 0.0
C1977 C 0.90736 0.34138 0.02098 0.0
C1978 C 0.92628 0.34793 0.01484 0.0
C1979 C 0.93565 0.34166 0.03746 0.0
H1980 H 0.61433 0.58527 0.08042 0.0
H1981 H 0.63123 0.55663 1.005 0.0
H1982 H 0.65629 0.56154 0.04753 0.0
H1983 H 0.65802 0.6198 0.10432 0.0
H1984 H 0.65273 0.62117 0.15166 0.0
H1985 H 0.6349 0.61332 0.11764 0.0
H1986 H 0.61549 0.58316 0.15427 0.0
H1987 H 0.63329 0.59095 0.18853 0.0
H1988 H 0.62536 0.5691 0.16625 0.0
H1989 H 0.68182 0.57302 0.09534 0.0
H1990 H 0.70494 0.58947 0.14386 0.0
H1991 H 0.67069 0.60992 0.18822 0.0
C1992 C 0.62303 0.57964 0.07316 0.0
C1993 C 0.62074 0.57045 0.03942 0.0
C1994 C 0.6326 0.56356 0.03081 0.0
C1995 C 0.64689 0.5663 0.05482 0.0
C1996 C 0.64901 0.57581 0.08752 0.0
C1997 C 0.63726 0.58222 0.0968 0.0
C1998 C 0.64312 0.59308 0.13222 0.0
C1999 C 0.64745 0.61302 0.12607 0.0
C2000 C 0.62844 0.5835 0.16208 0.0
C2001 C 0.66033 0.5923 0.14097 0.0
C2002 C 0.66347 0.58216 0.11508 0.0
C2003 C 0.6793 0.58069 0.11608 0.0
C2004 C 0.69236 0.59008 0.14377 0.0
C2005 C 0.68953 0.60079 0.17015 0.0
C2006 C 0.67309 0.60153 0.16898 0.0
H2007 H 0.08352 0.41772 0.32139 0.0
H2008 H 0.12143 0.40787 0.38442 0.0
H2009 H 0.11772 0.42411 0.43722 0.0
H2010 H 0.0941 0.46317 0.36659 0.0
H2011 H 0.07012 0.45651 0.36525 0.0
H2012 H 0.07978 0.44906 0.32959 0.0
H2013 H 0.05493 0.41517 0.3422 0.0
H2014 H 0.04533 0.42243 0.3779 0.0
H2015 H 0.05256 0.40596 0.38782 0.0
H2016 H 0.10512 0.43545 0.48647 0.0
H2017 H 0.08413 0.43973 0.52751 0.0
H2018 H 0.05374 0.44137 0.43298 0.0
C2019 C 0.09176 0.41985 0.34567 0.0
C2020 C 0.10303 0.41189 0.34866 0.0
C2021 C 0.11295 0.41415 0.38144 0.0
C2022 C 0.11094 0.42339 0.41155 0.0
C2023 C 0.09896 0.43029 0.40845 0.0
C2024 C 0.08962 0.42875 0.37615 0.0
C2025 C 0.07526 0.43439 0.38159 0.0
C2026 C 0.08011 0.45182 0.35944 0.0
C2027 C 0.05589 0.41855 0.37183 0.0
C2028 C 0.07722 0.43832 0.42232 0.0
C2029 C 0.0913 0.43641 0.43721 0.0
C2030 C 0.09437 0.43744 0.47498 0.0
C2031 C 0.08239 0.4399 0.49813 0.0
C2032 C 0.06739 0.441 0.4834 0.0
C2033 C 0.06526 0.44086 0.44498 0.0
H2034 H 0.58091 0.65376 0.50963 0.0
H2035 H 0.54867 0.60524 0.4434 0.0
H2036 H 0.55335 0.62487 0.38927 0.0
H2037 H 0.56824 0.68536 0.46145 0.0
H2038 H 0.59132 0.7046 0.46484 0.0
H2039 H 0.58256 0.68702 0.49973 0.0
H2040 H 0.6102 0.68192 0.48942 0.0
H2041 H 0.61898 0.69939 0.4545 0.0
H2042 H 0.61465 0.67657 0.44408 0.0
H2043 H 0.5641 0.64956 0.34094 0.0
H2044 H 0.58173 0.67708 0.30186 0.0
H2045 H 0.6085 0.70943 0.39865 0.0
C2046 C 0.5743 0.64739 0.484 0.0
C2047 C 0.56402 0.62805 0.48072 0.0
C2048 C 0.55629 0.62007 0.44645 0.0
C2049 C 0.55886 0.6311 0.41561 0.0
C2050 C 0.56944 0.65015 0.41935 0.0
C2051 C 0.5771 0.65825 0.45267 0.0
C2052 C 0.58979 0.67882 0.44826 0.0
C2053 C 0.58254 0.68959 0.46985 0.0
C2054 C 0.60957 0.6845 0.45973 0.0
C2055 C 0.58841 0.68092 0.40727 0.0
C2056 C 0.57631 0.66431 0.39117 0.0
C2057 C 0.57345 0.6627 0.35332 0.0
C2058 C 0.58349 0.6784 0.3313 0.0
C2059 C 0.59643 0.6954 0.34715 0.0
C2060 C 0.5986 0.69665 0.3857 0.0
H2061 H 0.36494 0.9618 0.48178 0.0
H2062 H 0.37942 0.91952 0.49921 0.0
H2063 H 0.35853 0.90129 0.44817 0.0
H2064 H 0.31725 0.93112 0.46332 0.0
H2065 H 0.31594 0.94632 0.43008 0.0
H2066 H 0.33225 0.95565 0.46705 0.0
H2067 H 0.35865 0.97251 0.42004 0.0
H2068 H 0.34244 0.9631 0.38291 0.0
H2069 H 0.36183 0.95947 0.38448 0.0
H2070 H 0.33604 0.88834 0.39228 0.0
H2071 H 0.31272 0.88092 0.34336 0.0
H2072 H 0.31299 0.93166 0.36681 0.0
C2073 C 0.36381 0.94871 0.47491 0.0
C2074 C 0.37393 0.94214 0.49425 0.0
C2075 C 0.37179 0.92482 0.48471 0.0
C2076 C 0.36002 0.91445 0.45566 0.0
C2077 C 0.35037 0.92152 0.43685 0.0
C2078 C 0.35204 0.9382 0.44663 0.0
C2079 C 0.33988 0.94272 0.42356 0.0
C2080 C 0.32548 0.94402 0.44743 0.0
C2081 C 0.35139 0.9605 0.40144 0.0
C2082 C 0.33107 0.92606 0.39887 0.0
C2083 C 0.33732 0.91398 0.40645 0.0
C2084 C 0.33105 0.89772 0.3864 0.0
C2085 C 0.31789 0.89365 0.35852 0.0
C2086 C 0.311 0.90568 0.35134 0.0
C2087 C 0.3179 0.92212 0.3717 0.0
H2088 H 0.62611 0.94327 0.85834 0.0
H2089 H 0.58789 0.88452 0.85703 0.0
H2090 H 0.56973 0.88839 0.90639 0.0
H2091 H 0.6267 0.95005 0.9532 0.0
H2092 H 0.62781 0.97201 0.94981 0.0
H2093 H 0.63701 0.96447 0.91361 0.0
H2094 H 0.61622 0.96854 0.86647 0.0
H2095 H 0.607 0.97619 0.90254 0.0
H2096 H 0.59174 0.95706 0.874 0.0
H2097 H 0.55767 0.89898 0.96073 0.0
H2098 H 0.55143 0.91539 1.01025 0.0
H2099 H 0.59667 0.96719 0.97159 0.0
C2100 C 0.61381 0.93121 0.86818 0.0
C2101 C 0.60841 0.91357 0.85407 0.0
C2102 C 0.59219 0.89816 0.86744 0.0
C2103 C 0.58186 0.90025 0.89551 0.0
C2104 C 0.58778 0.91788 0.90927 0.0
C2105 C 0.60324 0.93311 0.8955 0.0
C2106 C 0.60689 0.95058 0.91471 0.0
C2107 C 0.62571 0.95981 0.93397 0.0
C2108 C 0.60537 0.96387 0.88782 0.0
C2109 C 0.59131 0.94285 0.94209 0.0
C2110 C 0.58044 0.92396 0.93884 0.0
C2111 C 0.56593 0.9138 0.96302 0.0
C2112 C 0.56249 0.9232 0.99109 0.0
C2113 C 0.57338 0.94257 0.9944 0.0
C2114 C 0.58785 0.95242 0.96932 0.0
H2115 H 0.00397 0.60662 0.94111 0.0
H2116 H 0.04725 0.61314 0.01511 0.0
H2117 H 0.0702 0.63847 0.97631 0.0
H2118 H 0.03041 0.61669 0.85602 0.0
H2119 H 0.01996 0.62896 0.83636 0.0
H2120 H 0.00726 0.61053 0.86843 0.0
H2121 H 0.00175 0.63254 0.90933 0.0
H2122 H 0.01435 0.65098 0.87735 0.0
H2123 H 0.02116 0.65379 0.92481 0.0
H2124 H 0.088 0.6648 0.93189 0.0
H2125 H 0.09906 0.68991 0.8862 0.0
H2126 H 0.04414 0.66555 0.8406 0.0
C2127 C 0.01831 0.61319 0.94895 0.0
C2128 C 0.02384 0.60785 0.98111 0.0
C2129 C 0.04271 0.61695 0.99054 0.0
C2130 C 0.05584 0.63133 0.96862 0.0
C2131 C 0.04988 0.63636 0.93724 0.0
C2132 C 0.03154 0.62751 0.9274 0.0
C2133 C 0.02852 0.63609 0.89347 0.0
C2134 C 0.0211 0.62224 0.86169 0.0
C2135 C 0.01569 0.64381 0.90175 0.0
C2136 C 0.04798 0.65138 0.88601 0.0
C2137 C 0.06013 0.65127 0.91145 0.0
C2138 C 0.07865 0.66483 0.91153 0.0
C2139 C 0.08482 0.67903 0.88545 0.0
C2140 C 0.07253 0.67954 0.85952 0.0
C2141 C 0.05396 0.6653 0.85949 0.0
H2142 H 0.30162 0.35922 0.85011 0.0
H2143 H 0.28364 0.39908 0.83624 0.0
H2144 H 0.30549 0.41853 0.8848 0.0
H2145 H 0.30669 0.36216 0.94593 0.0
H2146 H 0.32697 0.35997 0.94633 0.0
H2147 H 0.31051 0.34983 0.90978 0.0
H2148 H 0.33611 0.36794 0.86189 0.0
H2149 H 0.3527 0.37801 0.89829 0.0
H2150 H 0.35 0.39261 0.86564 0.0
H2151 H 0.328 0.43223 0.93954 0.0
H2152 H 0.35093 0.44025 0.9894 0.0
H2153 H 0.35473 0.39187 0.96349 0.0
C2154 C 0.3024 0.37215 0.85698 0.0
C2155 C 0.29092 0.37765 0.83949 0.0
C2156 C 0.29241 0.39468 0.84916 0.0
C2157 C 0.3047 0.40574 0.87684 0.0
C2158 C 0.31559 0.39968 0.89409 0.0
C2159 C 0.31473 0.3834 0.88395 0.0
C2160 C 0.32783 0.37984 0.90623 0.0
C2161 C 0.31737 0.36189 0.92838 0.0
C2162 C 0.34253 0.37959 0.88154 0.0
C2163 C 0.33607 0.3965 0.93102 0.0
C2164 C 0.32881 0.40778 0.92398 0.0
C2165 C 0.33391 0.42358 0.94485 0.0
C2166 C 0.34687 0.428 0.97321 0.0
C2167 C 0.35473 0.41679 0.98011 0.0
C2168 C 0.34916 0.40086 0.95863 0.0
H2169 H 0.90612 0.61995 0.63237 0.0
H2170 H 0.89273 0.57927 0.71797 0.0
H2171 H 0.89676 0.55919 0.67387 0.0
H2172 H 0.88347 0.5868 0.55677 0.0
H2173 H 0.90102 0.60106 0.52422 0.0
H2174 H 0.89558 0.61148 0.56172 0.0
H2175 H 0.92974 0.62843 0.58186 0.0
H2176 H 0.93527 0.61811 0.54446 0.0
H2177 H 0.94098 0.6153 0.59072 0.0
H2178 H 0.90599 0.54542 0.62254 0.0
H2179 H 0.91846 0.53845 0.56732 0.0
H2180 H 0.9239 0.58706 0.51387 0.0
C2181 C 0.90376 0.60669 0.64171 0.0
C2182 C 0.89911 0.60115 0.67862 0.0
C2183 C 0.89622 0.58375 0.68981 0.0
C2184 C 0.89846 0.57225 0.66493 0.0
C2185 C 0.90331 0.57823 0.62884 0.0
C2186 C 0.90572 0.59497 0.61715 0.0
C2187 C 0.91167 0.59855 0.57734 0.0
C2188 C 0.89706 0.59952 0.55361 0.0
C2189 C 0.93053 0.61613 0.57339 0.0
C2190 C 0.91279 0.58147 0.56871 0.0
C2191 C 0.90787 0.56991 0.59879 0.0
C2192 C 0.90946 0.55415 0.59858 0.0
C2193 C 0.91653 0.55029 0.56713 0.0
C2194 C 0.92171 0.56199 0.53614 0.0
C2195 C 0.91945 0.57756 0.53674 0.0
H2196 H 0.40115 0.32071 0.67906 0.0
H2197 H 0.40631 0.27896 0.61915 0.0
H2198 H 0.42236 0.3012 0.56916 0.0
H2199 H 0.3889 0.3371 0.6061 0.0
H2200 H 0.40084 0.36099 0.61935 0.0
H2201 H 0.39366 0.34339 0.65373 0.0
H2202 H 0.42714 0.35791 0.67743 0.0
H2203 H 0.43444 0.37573 0.6432 0.0
H2204 H 0.44531 0.36191 0.64599 0.0
H2205 H 0.433 0.32623 0.52133 0.0
H2206 H 0.43711 0.35164 0.48056 0.0
H2207 H 0.4247 0.37682 0.57154 0.0
C2208 C 0.40637 0.31649 0.65615 0.0
C2209 C 0.40273 0.29819 0.65324 0.0
C2210 C 0.40916 0.29299 0.62216 0.0
C2211 C 0.41831 0.30555 0.59362 0.0
C2212 C 0.42099 0.32329 0.59657 0.0
C2213 C 0.41535 0.32881 0.62728 0.0
C2214 C 0.4177 0.34777 0.62188 0.0
C2215 C 0.39918 0.34726 0.62546 0.0
C2216 C 0.432 0.36165 0.64872 0.0
C2217 C 0.42478 0.35173 0.58285 0.0
C2218 C 0.42692 0.33763 0.56886 0.0
C2219 C 0.43176 0.33754 0.53227 0.0
C2220 C 0.43407 0.35203 0.50927 0.0
C2221 C 0.43139 0.36629 0.5229 0.0
C2222 C 0.42715 0.36628 0.5604 0.0
H2223 H 0.62275 0.06123 0.58448 0.0
H2224 H 0.64951 0.10867 0.51263 0.0
H2225 H 0.67151 0.12626 0.56216 0.0
H2226 H 0.63002 0.08696 0.67234 0.0
H2227 H 0.63415 0.07081 0.69721 0.0
H2228 H 0.61874 0.06316 0.65852 0.0
H2229 H 0.63776 0.05017 0.62813 0.0
H2230 H 0.65313 0.05772 0.66663 0.0
H2231 H 0.66208 0.06517 0.62107 0.0
H2232 H 0.69313 0.13694 0.61607 0.0
H2233 H 0.71295 0.13953 0.66835 0.0
H2234 H 0.6719 0.08516 0.70535 0.0
C2235 C 0.63291 0.07549 0.57943 0.0
C2236 C 0.63433 0.08364 0.54474 0.0
C2237 C 0.64806 0.10221 0.53907 0.0
C2238 C 0.66058 0.1123 0.5671 0.0
C2239 C 0.65906 0.10367 0.60072 0.0
C2240 C 0.64548 0.08569 0.60701 0.0
C2241 C 0.64791 0.0789 0.64397 0.0
C2242 C 0.63174 0.07472 0.66952 0.0
C2243 C 0.65037 0.062 0.63967 0.0
C2244 C 0.66544 0.0956 0.65696 0.0
C2245 C 0.67149 0.10987 0.63192 0.0
C2246 C 0.68831 0.12602 0.6362 0.0
C2247 C 0.69947 0.12739 0.66605 0.0
C2248 C 0.69382 0.11267 0.69125 0.0
C2249 C 0.67632 0.09685 0.68722 0.0
H2250 H 0.74379 0.73606 0.65966 0.0
H2251 H 0.79464 0.74473 0.70809 0.0
H2252 H 0.79159 0.7632 0.75737 0.0
H2253 H 0.74869 0.78168 0.68622 0.0
H2254 H 0.72443 0.77117 0.69557 0.0
H2255 H 0.73248 0.76176 0.66058 0.0
H2256 H 0.71544 0.72993 0.69258 0.0
H2257 H 0.70749 0.73925 0.72774 0.0
H2258 H 0.72028 0.72805 0.74001 0.0
H2259 H 0.78037 0.77637 0.80668 0.0
H2260 H 0.76235 0.78366 0.85034 0.0
H2261 H 0.71897 0.76649 0.76953 0.0
C2262 C 0.75467 0.74247 0.67978 0.0
C2263 C 0.76959 0.73916 0.67971 0.0
C2264 C 0.78321 0.74727 0.70731 0.0
C2265 C 0.78158 0.75778 0.73546 0.0
C2266 C 0.76629 0.76015 0.73561 0.0
C2267 C 0.75317 0.75289 0.7082 0.0
C2268 C 0.73708 0.75569 0.71666 0.0
C2269 C 0.73559 0.76833 0.68806 0.0
C2270 C 0.71902 0.73713 0.71942 0.0
C2271 C 0.74286 0.76507 0.75365 0.0
C2272 C 0.75985 0.76774 0.76399 0.0
C2273 C 0.76725 0.77472 0.79849 0.0
C2274 C 0.75692 0.77882 0.82316 0.0
C2275 C 0.73936 0.77588 0.81325 0.0
C2276 C 0.73251 0.76927 0.77772 0.0
H2277 H 0.24208 0.00109 0.68104 0.0
H2278 H 0.25131 0.04784 0.74701 0.0
H2279 H 0.23558 0.02707 0.79924 0.0
H2280 H 0.197 0.96562 0.72446 0.0
H2281 H 0.2036 0.94825 0.7219 0.0
H2282 H 0.21142 0.96603 0.68748 0.0
H2283 H 0.24512 0.97475 0.70078 0.0
H2284 H 0.23746 0.95718 0.73532 0.0
H2285 H 0.25387 0.98069 0.74685 0.0
H2286 H 0.22399 0.00217 0.84716 0.0
H2287 H 0.21802 0.97561 0.88618 0.0
H2288 H 0.21691 0.94519 0.78935 0.0
C2289 C 0.23998 0.00682 0.70592 0.0
C2290 C 0.24757 0.02602 0.70977 0.0
C2291 C 0.24532 0.03313 0.74331 0.0
C2292 C 0.2364 0.02142 0.77313 0.0
C2293 C 0.22979 0.00261 0.76902 0.0
C2294 C 0.23135 0.99533 0.7361 0.0
C2295 C 0.22558 0.97517 0.74018 0.0
C2296 C 0.20837 0.96305 0.71714 0.0
C2297 C 0.24145 0.97177 0.73021 0.0
C2298 C 0.22127 0.97244 0.78079 0.0
C2299 C 0.22342 0.9883 0.79687 0.0
C2300 C 0.22186 0.98955 0.83472 0.0
C2301 C 0.21845 0.97439 0.85672 0.0
C2302 C 0.21681 0.95826 0.84084 0.0
C2303 C 0.21775 0.95719 0.80229 0.0
H2304 H 0.95105 0.22748 0.74627 0.0
H2305 H 0.97672 0.21304 0.65948 0.0
H2306 H 0.0012 0.2169 0.7026 0.0
H2307 H 0.99004 0.26264 0.78168 0.0
H2308 H 0.98307 0.25851 0.82904 0.0
H2309 H 0.96599 0.2511 0.79365 0.0
H2310 H 0.95046 0.21774 0.81883 0.0
H2311 H 0.96759 0.22509 0.85442 0.0
H2312 H 0.96384 0.20652 0.8243 0.0
H2313 H 0.0259 0.22879 0.75103 0.0
H2314 H 0.04779 0.24641 0.80058 0.0
H2315 H 0.00508 0.25111 0.85714 0.0
C2316 C 0.9615 0.22455 0.73661 0.0
C2317 C 0.96198 0.21989 0.69959 0.0
C2318 C 0.976 0.21642 0.68784 0.0
C2319 C 0.98994 0.21858 0.71217 0.0
C2320 C 0.98941 0.22384 0.74828 0.0
C2321 C 0.97535 0.22648 0.76056 0.0
C2322 C 0.97881 0.23394 0.7993 0.0
C2323 C 0.97953 0.25265 0.80098 0.0
C2324 C 0.96431 0.21998 0.82578 0.0
C2325 C -0.00251 0.23599 0.8064 0.0
C2326 C 0.00333 0.22992 0.77681 0.0
C2327 C 0.02122 0.23295 0.77485 0.0
C2328 C 0.03356 0.24292 0.80314 0.0
C2329 C 0.0279 0.24953 0.83317 0.0
C2330 C 0.00947 0.24542 0.83537 0.0
H2331 H 0.28238 0.2713 0.16191 0.0
H2332 H 0.26063 0.21466 0.19615 0.0
H2333 H 0.24131 0.21853 0.24264 0.0
H2334 H 0.28666 0.28986 0.24853 0.0
H2335 H 0.28019 0.30653 0.23519 0.0
H2336 H 0.29051 0.29853 0.20225 0.0
H2337 H 0.26266 0.28844 0.15883 0.0
H2338 H 0.25228 0.29654 0.19159 0.0
H2339 H 0.23976 0.27311 0.17556 0.0
H2340 H 0.2268 0.23013 0.29024 0.0
H2341 H 0.21794 0.24785 0.33173 0.0
H2342 H 0.24918 0.29636 0.26432 0.0
C2343 C 0.27326 0.25956 0.17861 0.0
C2344 C 0.27294 0.24265 0.17529 0.0
C2345 C 0.26097 0.2277 0.19799 0.0
C2346 C 0.24998 0.2298 0.22453 0.0
C2347 C 0.251 0.24687 0.22773 0.0
C2348 C 0.26221 0.2614 0.20497 0.0
C2349 C 0.26169 0.27863 0.21487 0.0
C2350 C 0.2809 0.2943 0.22587 0.0
C2351 C 0.25361 0.28452 0.18334 0.0
C2352 C 0.24881 0.27172 0.24737 0.0
C2353 C 0.24264 0.25337 0.25444 0.0
C2354 C 0.23136 0.24444 0.28455 0.0
C2355 C 0.2264 0.25459 0.308 0.0
C2356 C 0.23275 0.27345 0.30118 0.0
C2357 C 0.24391 0.28192 0.27017 0.0
H2358 H 0.75443 -0.00143 0.1543 0.0
H2359 H 0.79948 0.0404 0.21775 0.0
H2360 H 0.79055 0.01892 0.27021 0.0
H2361 H 0.72361 0.98668 0.22026 0.0
H2362 H 0.71027 0.96237 0.21081 0.0
H2363 H 0.72323 0.9781 0.17479 0.0
H2364 H 0.74055 0.96047 0.1621 0.0
H2365 H 0.72732 0.94424 0.1976 0.0
H2366 H 0.75208 0.9561 0.1991 0.0
H2367 H 0.77317 0.99534 0.3192 0.0
H2368 H 0.74873 0.97264 0.35989 0.0
H2369 H 0.71388 0.94729 0.26534 0.0
C2370 C 0.76308 0.00279 0.17845 0.0
C2371 C 0.778 0.02092 0.18164 0.0
C2372 C 0.78832 0.02638 0.21448 0.0
C2373 C 0.78329 0.01427 0.24444 0.0
C2374 C 0.7678 -0.00321 0.24122 0.0
C2375 C 0.75791 0.99102 0.20885 0.0
C2376 C 0.74002 0.97309 0.2142 0.0
C2377 C 0.72332 0.97521 0.20447 0.0
C2378 C 0.74 0.95755 0.19193 0.0
C2379 C 0.74093 0.97015 0.2549 0.0
C2380 C 0.75727 0.98362 0.26989 0.0
C2381 C 0.7605 0.98451 0.30759 0.0
C2382 C 0.74655 0.97156 0.33054 0.0
C2383 C 0.72946 0.95818 0.31575 0.0
C2384 C 0.72688 0.95726 0.27739 0.0
H2385 H 0.018 0.74885 0.36311 0.0
H2386 H 0.06394 0.78386 0.29275 0.0
H2387 H 0.04237 0.77975 0.24271 0.0
H2388 H -0.00602 0.71645 0.29758 0.0
H2389 H 0.97134 0.71111 0.31212 0.0
H2390 H 0.98988 0.71986 0.34464 0.0
H2391 H 0.98413 0.74661 0.36088 0.0
H2392 H 0.96542 0.73785 0.3285 0.0
H2393 H 0.98398 0.7613 0.32495 0.0
H2394 H 0.01616 0.76858 0.19797 0.0
H2395 H 0.98774 0.75046 0.16187 0.0
H2396 H 0.95898 0.72165 0.26061 0.0
C2397 C 0.02344 0.75625 0.33765 0.0
C2398 C 0.0426 0.76699 0.33198 0.0
C2399 C 0.04929 0.7758 0.29777 0.0
C2400 C 0.03713 0.77356 0.26923 0.0
C2401 C 0.01831 0.76235 0.27522 0.0
C2402 C 0.01149 0.75386 0.30865 0.0
C2403 C 0.99094 0.74065 0.3066 0.0
C2404 C 0.98628 0.72085 0.31576 0.0
C2405 C 0.9805 0.74699 0.33173 0.0
C2406 C 0.98738 0.74258 0.26657 0.0
C2407 C 0.00326 0.75543 0.24909 0.0
C2408 C 0.00359 0.7587 0.21151 0.0
C2409 C 0.98738 0.74835 0.19121 0.0
C2410 C 0.97112 0.73472 0.20842 0.0
C2411 C 0.97113 0.73212 0.24672 0.0
loop_
_geom_bond_atom_site_label_1
_geom_bond_atom_site_label_2
_geom_bond_distance
_geom_bond_site_symmetry_2
_ccdc_geom_bond_type
In0 O1 2.294 . S
In0 O2 2.326 . S
In0 O6 2.266 . S
In0 O7 2.326 . S
In0 O8 2.266 . S
In0 O9 2.326 . S
In0 O11 2.294 . S
In0 O12 2.326 . S
O1 In0 2.294 . S
O1 C10 1.240 . S
O2 In0 2.326 . S
O2 C10 1.252 . S
C3 O6 1.252 . S
C3 O7 1.260 . S
C4 O11 1.240 . S
C4 O12 1.252 . S
C5 O8 1.252 . S
C5 O9 1.260 . S
O6 In0 2.266 . S
O6 C3 1.252 . S
O7 In0 2.326 . S
O7 C3 1.260 . S
O8 In0 2.266 . S
O8 C5 1.252 . S
O9 In0 2.326 . S
O9 C5 1.260 . S
C10 O1 1.240 . S
C10 O2 1.252 . S
O11 In0 2.294 . S
O11 C4 1.240 . S
O12 In0 2.326 . S
O12 C4 1.252 . S
In13 O14 2.294 . S
In13 O15 2.326 . S
In13 O19 2.266 . S
In13 O20 2.326 . S
In13 O21 2.266 . S
In13 O22 2.326 . S
In13 O24 2.294 . S
In13 O25 2.326 . S
O14 In13 2.294 . S
O14 C23 1.240 . S
O15 In13 2.326 . S
O15 C23 1.252 . S
C16 O19 1.252 . S
C16 O20 1.260 . S
C17 O24 1.240 . S
C17 O25 1.252 . S
C18 O21 1.252 . S
C18 O22 1.260 . S
O19 In13 2.266 . S
O19 C16 1.252 . S
O20 In13 2.326 . S
O20 C16 1.260 . S
O21 In13 2.266 . S
O21 C18 1.252 . S
O22 In13 2.326 . S
O22 C18 1.260 . S
C23 O14 1.240 . S
C23 O15 1.252 . S
O24 In13 2.294 . S
O24 C17 1.240 . S
O25 In13 2.326 . S
O25 C17 1.252 . S
In26 O27 2.294 . S
In26 O28 2.326 . S
In26 O32 2.266 . S
In26 O33 2.326 . S
In26 O34 2.266 . S
In26 O35 2.326 . S
In26 O37 2.294 . S
In26 O38 2.326 . S
O27 In26 2.294 . S
O27 C36 1.240 . S
O28 In26 2.326 . S
O28 C36 1.252 . S
C29 O32 1.252 . S
C29 O33 1.260 . S
C30 O37 1.240 . S
C30 O38 1.252 . S
C31 O34 1.252 . S
C31 O35 1.260 . S
O32 In26 2.266 . S
O32 C29 1.252 . S
O33 In26 2.326 . S
O33 C29 1.260 . S
O34 In26 2.266 . S
O34 C31 1.252 . S
O35 In26 2.326 . S
O35 C31 1.260 . S
C36 O27 1.240 . S
C36 O28 1.252 . S
O37 In26 2.294 . S
O37 C30 1.240 . S
O38 In26 2.326 . S
O38 C30 1.252 . S
In39 O40 2.294 . S
In39 O41 2.326 . S
In39 O45 2.266 . S
In39 O46 2.326 . S
In39 O47 2.266 . S
In39 O48 2.326 . S
In39 O50 2.294 . S
In39 O51 2.326 . S
O40 In39 2.294 . S
O40 C49 1.240 . S
O41 In39 2.326 . S
O41 C49 1.252 . S
C42 O45 1.252 . S
C42 O46 1.260 . S
C43 O50 1.240 . S
C43 O51 1.252 . S
C44 O47 1.252 . S
C44 O48 1.260 . S
O45 In39 2.266 . S
O45 C42 1.252 . S
O46 In39 2.326 . S
O46 C42 1.260 . S
O47 In39 2.266 . S
O47 C44 1.252 . S
O48 In39 2.326 . S
O48 C44 1.260 . S
C49 O40 1.240 . S
C49 O41 1.252 . S
O50 In39 2.294 . S
O50 C43 1.240 . S
O51 In39 2.326 . S
O51 C43 1.252 . S
In52 O53 2.294 . S
In52 O54 2.326 . S
In52 O58 2.266 . S
In52 O59 2.326 . S
In52 O60 2.266 . S
In52 O61 2.326 . S
In52 O63 2.294 . S
In52 O64 2.326 . S
O53 In52 2.294 . S
O53 C62 1.240 . S
O54 In52 2.326 . S
O54 C62 1.252 . S
C55 O58 1.252 . S
C55 O59 1.260 . S
C56 O63 1.240 . S
C56 O64 1.252 . S
C57 O60 1.252 . S
C57 O61 1.260 . S
O58 In52 2.266 . S
O58 C55 1.252 . S
O59 In52 2.326 . S
O59 C55 1.260 . S
O60 In52 2.266 . S
O60 C57 1.252 . S
O61 In52 2.326 . S
O61 C57 1.260 . S
C62 O53 1.240 . S
C62 O54 1.252 . S
O63 In52 2.294 . S
O63 C56 1.240 . S
O64 In52 2.326 . S
O64 C56 1.252 . S
In65 O66 2.294 . S
In65 O67 2.326 . S
In65 O71 2.266 . S
In65 O72 2.326 . S
In65 O73 2.266 . S
In65 O74 2.326 . S
In65 O76 2.294 . S
In65 O77 2.326 . S
O66 In65 2.294 . S
O66 C75 1.240 . S
O67 In65 2.326 . S
O67 C75 1.252 . S
C68 O71 1.252 . S
C68 O72 1.260 . S
C69 O76 1.240 . S
C69 O77 1.252 . S
C70 O73 1.252 . S
C70 O74 1.260 . S
O71 In65 2.266 . S
O71 C68 1.252 . S
O72 In65 2.326 . S
O72 C68 1.260 . S
O73 In65 2.266 . S
O73 C70 1.252 . S
O74 In65 2.326 . S
O74 C70 1.260 . S
C75 O66 1.240 . S
C75 O67 1.252 . S
O76 In65 2.294 . S
O76 C69 1.240 . S
O77 In65 2.326 . S
O77 C69 1.252 . S
In78 O79 2.294 . S
In78 O80 2.326 . S
In78 O84 2.266 . S
In78 O85 2.326 . S
In78 O86 2.266 . S
In78 O87 2.326 . S
In78 O89 2.294 . S
In78 O90 2.326 . S
O79 In78 2.294 . S
O79 C88 1.240 . S
O80 In78 2.326 . S
O80 C88 1.252 . S
C81 O84 1.252 . S
C81 O85 1.260 . S
C82 O89 1.240 . S
C82 O90 1.252 . S
C83 O86 1.252 . S
C83 O87 1.260 . S
O84 In78 2.266 . S
O84 C81 1.252 . S
O85 In78 2.326 . S
O85 C81 1.260 . S
O86 In78 2.266 . S
O86 C83 1.252 . S
O87 In78 2.326 . S
O87 C83 1.260 . S
C88 O79 1.240 . S
C88 O80 1.252 . S
O89 In78 2.294 . S
O89 C82 1.240 . S
O90 In78 2.326 . S
O90 C82 1.252 . S
In91 O92 2.294 . S
In91 O93 2.326 . S
In91 O97 2.266 . S
In91 O98 2.326 . S
In91 O99 2.266 . S
In91 O100 2.326 . S
In91 O102 2.294 . S
In91 O103 2.326 . S
O92 In91 2.294 . S
O92 C101 1.240 . S
O93 In91 2.326 . S
O93 C101 1.252 . S
C94 O97 1.252 . S
C94 O98 1.260 . S
C95 O102 1.240 . S
C95 O103 1.252 . S
C96 O99 1.252 . S
C96 O100 1.260 . S
O97 In91 2.266 . S
O97 C94 1.252 . S
O98 In91 2.326 . S
O98 C94 1.260 . S
O99 In91 2.266 . S
O99 C96 1.252 . S
O100 In91 2.326 . S
O100 C96 1.260 . S
C101 O92 1.240 . S
C101 O93 1.252 . S
O102 In91 2.294 . S
O102 C95 1.240 . S
O103 In91 2.326 . S
O103 C95 1.252 . S
In104 O105 2.294 . S
In104 O106 2.326 . S
In104 O110 2.266 . S
In104 O111 2.326 . S
In104 O112 2.266 . S
In104 O113 2.326 . S
In104 O115 2.294 . S
In104 O116 2.326 . S
O105 In104 2.294 . S
O105 C114 1.240 . S
O106 In104 2.326 . S
O106 C114 1.252 . S
C107 O110 1.252 . S
C107 O111 1.260 . S
C108 O115 1.240 . S
C108 O116 1.252 . S
C109 O112 1.252 . S
C109 O113 1.260 . S
O110 In104 2.266 . S
O110 C107 1.252 . S
O111 In104 2.326 . S
O111 C107 1.260 . S
O112 In104 2.266 . S
O112 C109 1.252 . S
O113 In104 2.326 . S
O113 C109 1.260 . S
C114 O105 1.240 . S
C114 O106 1.252 . S
O115 In104 2.294 . S
O115 C108 1.240 . S
O116 In104 2.326 . S
O116 C108 1.252 . S
In117 O118 2.294 . S
In117 O119 2.326 . S
In117 O123 2.266 . S
In117 O124 2.326 . S
In117 O125 2.266 . S
In117 O126 2.326 . S
In117 O128 2.294 . S
In117 O129 2.326 . S
O118 In117 2.294 . S
O118 C127 1.240 . S
O119 In117 2.326 . S
O119 C127 1.252 . S
C120 O123 1.252 . S
C120 O124 1.260 . S
C121 O128 1.240 . S
C121 O129 1.252 . S
C122 O125 1.252 . S
C122 O126 1.260 . S
O123 In117 2.266 . S
O123 C120 1.252 . S
O124 In117 2.326 . S
O124 C120 1.260 . S
O125 In117 2.266 . S
O125 C122 1.252 . S
O126 In117 2.326 . S
O126 C122 1.260 . S
C127 O118 1.240 . S
C127 O119 1.252 . S
O128 In117 2.294 . S
O128 C121 1.240 . S
O129 In117 2.326 . S
O129 C121 1.252 . S
In130 O131 2.294 . S
In130 O132 2.326 . S
In130 O136 2.266 . S
In130 O137 2.326 . S
In130 O138 2.266 . S
In130 O139 2.326 . S
In130 O141 2.294 . S
In130 O142 2.326 . S
O131 In130 2.294 . S
O131 C140 1.240 . S
O132 In130 2.326 . S
O132 C140 1.252 . S
C133 O136 1.252 . S
C133 O137 1.260 . S
C134 O141 1.240 . S
C134 O142 1.252 . S
C135 O138 1.252 . S
C135 O139 1.260 . S
O136 In130 2.266 . S
O136 C133 1.252 . S
O137 In130 2.326 . S
O137 C133 1.260 . S
O138 In130 2.266 . S
O138 C135 1.252 . S
O139 In130 2.326 . S
O139 C135 1.260 . S
C140 O131 1.240 . S
C140 O132 1.252 . S
O141 In130 2.294 . S
O141 C134 1.240 . S
O142 In130 2.326 . S
O142 C134 1.252 . S
In143 O144 2.294 . S
In143 O145 2.326 . S
In143 O149 2.266 . S
In143 O150 2.326 . S
In143 O151 2.266 . S
In143 O152 2.326 . S
In143 O154 2.294 . S
In143 O155 2.326 . S
O144 In143 2.294 . S
O144 C153 1.240 . S
O145 In143 2.326 . S
O145 C153 1.252 . S
C146 O149 1.252 . S
C146 O150 1.260 . S
C147 O154 1.240 . S
C147 O155 1.252 . S
C148 O151 1.252 . S
C148 O152 1.260 . S
O149 In143 2.266 . S
O149 C146 1.252 . S
O150 In143 2.326 . S
O150 C146 1.260 . S
O151 In143 2.266 . S
O151 C148 1.252 . S
O152 In143 2.326 . S
O152 C148 1.260 . S
C153 O144 1.240 . S
C153 O145 1.252 . S
O154 In143 2.294 . S
O154 C147 1.240 . S
O155 In143 2.326 . S
O155 C147 1.252 . S
In156 O157 2.294 . S
In156 O158 2.326 . S
In156 O162 2.266 . S
In156 O163 2.326 . S
In156 O164 2.266 . S
In156 O165 2.326 . S
In156 O167 2.294 . S
In156 O168 2.326 . S
O157 In156 2.294 . S
O157 C166 1.240 . S
O158 In156 2.326 . S
O158 C166 1.252 . S
C159 O162 1.252 . S
C159 O163 1.260 . S
C160 O167 1.240 . S
C160 O168 1.252 . S
C161 O164 1.252 . S
C161 O165 1.260 . S
O162 In156 2.266 . S
O162 C159 1.252 . S
O163 In156 2.326 . S
O163 C159 1.260 . S
O164 In156 2.266 . S
O164 C161 1.252 . S
O165 In156 2.326 . S
O165 C161 1.260 . S
C166 O157 1.240 . S
C166 O158 1.252 . S
O167 In156 2.294 . S
O167 C160 1.240 . S
O168 In156 2.326 . S
O168 C160 1.252 . S
In169 O170 2.294 . S
In169 O171 2.326 . S
In169 O175 2.266 . S
In169 O176 2.326 . S
In169 O177 2.266 . S
In169 O178 2.326 . S
In169 O180 2.294 . S
In169 O181 2.326 . S
O170 In169 2.294 . S
O170 C179 1.240 . S
O171 In169 2.326 . S
O171 C179 1.252 . S
C172 O175 1.252 . S
C172 O176 1.260 . S
C173 O180 1.240 . S
C173 O181 1.252 . S
C174 O177 1.252 . S
C174 O178 1.260 . S
O175 In169 2.266 . S
O175 C172 1.252 . S
O176 In169 2.326 . S
O176 C172 1.260 . S
O177 In169 2.266 . S
O177 C174 1.252 . S
O178 In169 2.326 . S
O178 C174 1.260 . S
C179 O170 1.240 . S
C179 O171 1.252 . S
O180 In169 2.294 . S
O180 C173 1.240 . S
O181 In169 2.326 . S
O181 C173 1.252 . S
In182 O183 2.294 . S
In182 O184 2.326 . S
In182 O188 2.266 . S
In182 O189 2.326 . S
In182 O190 2.266 . S
In182 O191 2.326 . S
In182 O193 2.294 . S
In182 O194 2.326 . S
O183 In182 2.294 . S
O183 C192 1.240 . S
O184 In182 2.326 . S
O184 C192 1.252 . S
C185 O188 1.252 . S
C185 O189 1.260 . S
C186 O193 1.240 . S
C186 O194 1.252 . S
C187 O190 1.252 . S
C187 O191 1.260 . S
O188 In182 2.266 . S
O188 C185 1.252 . S
O189 In182 2.326 . S
O189 C185 1.260 . S
O190 In182 2.266 . S
O190 C187 1.252 . S
O191 In182 2.326 . S
O191 C187 1.260 . S
C192 O183 1.240 . S
C192 O184 1.252 . S
O193 In182 2.294 . S
O193 C186 1.240 . S
O194 In182 2.326 . S
O194 C186 1.252 . S
In195 O196 2.294 . S
In195 O197 2.326 . S
In195 O201 2.266 . S
In195 O202 2.326 . S
In195 O203 2.266 . S
In195 O204 2.326 . S
In195 O206 2.294 . S
In195 O207 2.326 . S
O196 In195 2.294 . S
O196 C205 1.240 . S
O197 In195 2.326 . S
O197 C205 1.252 . S
C198 O201 1.252 . S
C198 O202 1.260 . S
C199 O206 1.240 . S
C199 O207 1.252 . S
C200 O203 1.252 . S
C200 O204 1.260 . S
O201 In195 2.266 . S
O201 C198 1.252 . S
O202 In195 2.326 . S
O202 C198 1.260 . S
O203 In195 2.266 . S
O203 C200 1.252 . S
O204 In195 2.326 . S
O204 C200 1.260 . S
C205 O196 1.240 . S
C205 O197 1.252 . S
O206 In195 2.294 . S
O206 C199 1.240 . S
O207 In195 2.326 . S
O207 C199 1.252 . S
In208 O209 2.294 . S
In208 O210 2.326 . S
In208 O214 2.266 . S
In208 O215 2.326 . S
In208 O216 2.266 . S
In208 O217 2.326 . S
In208 O219 2.294 . S
In208 O220 2.326 . S
O209 In208 2.294 . S
O209 C218 1.240 . S
O210 In208 2.326 . S
O210 C218 1.252 . S
C211 O214 1.252 . S
C211 O215 1.260 . S
C212 O219 1.240 . S
C212 O220 1.252 . S
C213 O216 1.252 . S
C213 O217 1.260 . S
O214 In208 2.266 . S
O214 C211 1.252 . S
O215 In208 2.326 . S
O215 C211 1.260 . S
O216 In208 2.266 . S
O216 C213 1.252 . S
O217 In208 2.326 . S
O217 C213 1.260 . S
C218 O209 1.240 . S
C218 O210 1.252 . S
O219 In208 2.294 . S
O219 C212 1.240 . S
O220 In208 2.326 . S
O220 C212 1.252 . S
In221 O222 2.294 . S
In221 O223 2.326 . S
In221 O227 2.266 . S
In221 O228 2.326 . S
In221 O229 2.266 . S
In221 O230 2.326 . S
In221 O232 2.294 . S
In221 O233 2.326 . S
O222 In221 2.294 . S
O222 C231 1.240 . S
O223 In221 2.326 . S
O223 C231 1.252 . S
C224 O227 1.252 . S
C224 O228 1.260 . S
C225 O232 1.240 . S
C225 O233 1.252 . S
C226 O229 1.252 . S
C226 O230 1.260 . S
O227 In221 2.266 . S
O227 C224 1.252 . S
O228 In221 2.326 . S
O228 C224 1.260 . S
O229 In221 2.266 . S
O229 C226 1.252 . S
O230 In221 2.326 . S
O230 C226 1.260 . S
C231 O222 1.240 . S
C231 O223 1.252 . S
O232 In221 2.294 . S
O232 C225 1.240 . S
O233 In221 2.326 . S
O233 C225 1.252 . S
In234 O235 2.294 . S
In234 O236 2.326 . S
In234 O240 2.266 . S
In234 O241 2.326 . S
In234 O242 2.266 . S
In234 O243 2.326 . S
In234 O245 2.294 . S
In234 O246 2.326 . S
O235 In234 2.294 . S
O235 C244 1.240 . S
O236 In234 2.326 . S
O236 C244 1.252 . S
C237 O240 1.252 . S
C237 O241 1.260 . S
C238 O245 1.240 . S
C238 O246 1.252 . S
C239 O242 1.252 . S
C239 O243 1.260 . S
O240 In234 2.266 . S
O240 C237 1.252 . S
O241 In234 2.326 . S
O241 C237 1.260 . S
O242 In234 2.266 . S
O242 C239 1.252 . S
O243 In234 2.326 . S
O243 C239 1.260 . S
C244 O235 1.240 . S
C244 O236 1.252 . S
O245 In234 2.294 . S
O245 C238 1.240 . S
O246 In234 2.326 . S
O246 C238 1.252 . S
In247 O248 2.294 . S
In247 O249 2.326 . S
In247 O253 2.266 . S
In247 O254 2.326 . S
In247 O255 2.266 . S
In247 O256 2.326 . S
In247 O258 2.294 . S
In247 O259 2.326 . S
O248 In247 2.294 . S
O248 C257 1.240 . S
O249 In247 2.326 . S
O249 C257 1.252 . S
C250 O253 1.252 . S
C250 O254 1.260 . S
C251 O258 1.240 . S
C251 O259 1.252 . S
C252 O255 1.252 . S
C252 O256 1.260 . S
O253 In247 2.266 . S
O253 C250 1.252 . S
O254 In247 2.326 . S
O254 C250 1.260 . S
O255 In247 2.266 . S
O255 C252 1.252 . S
O256 In247 2.326 . S
O256 C252 1.260 . S
C257 O248 1.240 . S
C257 O249 1.252 . S
O258 In247 2.294 . S
O258 C251 1.240 . S
O259 In247 2.326 . S
O259 C251 1.252 . S
In260 O261 2.294 . S
In260 O262 2.326 . S
In260 O266 2.266 . S
In260 O267 2.326 . S
In260 O268 2.266 . S
In260 O269 2.326 . S
In260 O271 2.294 . S
In260 O272 2.326 . S
O261 In260 2.294 . S
O261 C270 1.240 . S
O262 In260 2.326 . S
O262 C270 1.252 . S
C263 O266 1.252 . S
C263 O267 1.260 . S
C264 O271 1.240 . S
C264 O272 1.252 . S
C265 O268 1.252 . S
C265 O269 1.260 . S
O266 In260 2.266 . S
O266 C263 1.252 . S
O267 In260 2.326 . S
O267 C263 1.260 . S
O268 In260 2.266 . S
O268 C265 1.252 . S
O269 In260 2.326 . S
O269 C265 1.260 . S
C270 O261 1.240 . S
C270 O262 1.252 . S
O271 In260 2.294 . S
O271 C264 1.240 . S
O272 In260 2.326 . S
O272 C264 1.252 . S
In273 O274 2.294 . S
In273 O275 2.326 . S
In273 O279 2.266 . S
In273 O280 2.326 . S
In273 O281 2.266 . S
In273 O282 2.326 . S
In273 O284 2.294 . S
In273 O285 2.326 . S
O274 In273 2.294 . S
O274 C283 1.240 . S
O275 In273 2.326 . S
O275 C283 1.252 . S
C276 O279 1.252 . S
C276 O280 1.260 . S
C277 O284 1.240 . S
C277 O285 1.252 . S
C278 O281 1.252 . S
C278 O282 1.260 . S
O279 In273 2.266 . S
O279 C276 1.252 . S
O280 In273 2.326 . S
O280 C276 1.260 . S
O281 In273 2.266 . S
O281 C278 1.252 . S
O282 In273 2.326 . S
O282 C278 1.260 . S
C283 O274 1.240 . S
C283 O275 1.252 . S
O284 In273 2.294 . S
O284 C277 1.240 . S
O285 In273 2.326 . S
O285 C277 1.252 . S
In286 O287 2.294 . S
In286 O288 2.326 . S
In286 O292 2.266 . S
In286 O293 2.326 . S
In286 O294 2.266 . S
In286 O295 2.326 . S
In286 O297 2.294 . S
In286 O298 2.326 . S
O287 In286 2.294 . S
O287 C296 1.240 . S
O288 In286 2.326 . S
O288 C296 1.252 . S
C289 O292 1.252 . S
C289 O293 1.260 . S
C290 O297 1.240 . S
C290 O298 1.252 . S
C291 O294 1.252 . S
C291 O295 1.260 . S
O292 In286 2.266 . S
O292 C289 1.252 . S
O293 In286 2.326 . S
O293 C289 1.260 . S
O294 In286 2.266 . S
O294 C291 1.252 . S
O295 In286 2.326 . S
O295 C291 1.260 . S
C296 O287 1.240 . S
C296 O288 1.252 . S
O297 In286 2.294 . S
O297 C290 1.240 . S
O298 In286 2.326 . S
O298 C290 1.252 . S
In299 O300 2.294 . S
In299 O301 2.326 . S
In299 O305 2.266 . S
In299 O306 2.326 . S
In299 O307 2.266 . S
In299 O308 2.326 . S
In299 O310 2.294 . S
In299 O311 2.326 . S
O300 In299 2.294 . S
O300 C309 1.240 . S
O301 In299 2.326 . S
O301 C309 1.252 . S
C302 O305 1.252 . S
C302 O306 1.260 . S
C303 O310 1.240 . S
C303 O311 1.252 . S
C304 O307 1.252 . S
C304 O308 1.260 . S
O305 In299 2.266 . S
O305 C302 1.252 . S
O306 In299 2.326 . S
O306 C302 1.260 . S
O307 In299 2.266 . S
O307 C304 1.252 . S
O308 In299 2.326 . S
O308 C304 1.260 . S
C309 O300 1.240 . S
C309 O301 1.252 . S
O310 In299 2.294 . S
O310 C303 1.240 . S
O311 In299 2.326 . S
O311 C303 1.252 . S
In312 O313 2.294 . S
In312 O314 2.326 . S
In312 O318 2.266 . S
In312 O319 2.326 . S
In312 O320 2.266 . S
In312 O321 2.326 . S
In312 O323 2.294 . S
In312 O324 2.326 . S
O313 In312 2.294 . S
O313 C322 1.240 . S
O314 In312 2.326 . S
O314 C322 1.252 . S
C315 O318 1.252 . S
C315 O319 1.260 . S
C316 O323 1.240 . S
C316 O324 1.252 . S
C317 O320 1.252 . S
C317 O321 1.260 . S
O318 In312 2.266 . S
O318 C315 1.252 . S
O319 In312 2.326 . S
O319 C315 1.260 . S
O320 In312 2.266 . S
O320 C317 1.252 . S
O321 In312 2.326 . S
O321 C317 1.260 . S
C322 O313 1.240 . S
C322 O314 1.252 . S
O323 In312 2.294 . S
O323 C316 1.240 . S
O324 In312 2.326 . S
O324 C316 1.252 . S
In325 O326 2.294 . S
In325 O327 2.326 . S
In325 O331 2.266 . S
In325 O332 2.326 . S
In325 O333 2.266 . S
In325 O334 2.326 . S
In325 O336 2.294 . S
In325 O337 2.326 . S
O326 In325 2.294 . S
O326 C335 1.240 . S
O327 In325 2.326 . S
O327 C335 1.252 . S
C328 O331 1.252 . S
C328 O332 1.260 . S
C329 O336 1.240 . S
C329 O337 1.252 . S
C330 O333 1.252 . S
C330 O334 1.260 . S
O331 In325 2.266 . S
O331 C328 1.252 . S
O332 In325 2.326 . S
O332 C328 1.260 . S
O333 In325 2.266 . S
O333 C330 1.252 . S
O334 In325 2.326 . S
O334 C330 1.260 . S
C335 O326 1.240 . S
C335 O327 1.252 . S
O336 In325 2.294 . S
O336 C329 1.240 . S
O337 In325 2.326 . S
O337 C329 1.252 . S
In338 O339 2.294 . S
In338 O340 2.326 . S
In338 O344 2.266 . S
In338 O345 2.326 . S
In338 O346 2.266 . S
In338 O347 2.326 . S
In338 O349 2.294 . S
In338 O350 2.326 . S
O339 In338 2.294 . S
O339 C348 1.240 . S
O340 In338 2.326 . S
O340 C348 1.252 . S
C341 O344 1.252 . S
C341 O345 1.260 . S
C342 O349 1.240 . S
C342 O350 1.252 . S
C343 O346 1.252 . S
C343 O347 1.260 . S
O344 In338 2.266 . S
O344 C341 1.252 . S
O345 In338 2.326 . S
O345 C341 1.260 . S
O346 In338 2.266 . S
O346 C343 1.252 . S
O347 In338 2.326 . S
O347 C343 1.260 . S
C348 O339 1.240 . S
C348 O340 1.252 . S
O349 In338 2.294 . S
O349 C342 1.240 . S
O350 In338 2.326 . S
O350 C342 1.252 . S
In351 O352 2.294 . S
In351 O353 2.326 . S
In351 O357 2.266 . S
In351 O358 2.326 . S
In351 O359 2.266 . S
In351 O360 2.326 . S
In351 O362 2.294 . S
In351 O363 2.326 . S
O352 In351 2.294 . S
O352 C361 1.240 . S
O353 In351 2.326 . S
O353 C361 1.252 . S
C354 O357 1.252 . S
C354 O358 1.260 . S
C355 O362 1.240 . S
C355 O363 1.252 . S
C356 O359 1.252 . S
C356 O360 1.260 . S
O357 In351 2.266 . S
O357 C354 1.252 . S
O358 In351 2.326 . S
O358 C354 1.260 . S
O359 In351 2.266 . S
O359 C356 1.252 . S
O360 In351 2.326 . S
O360 C356 1.260 . S
C361 O352 1.240 . S
C361 O353 1.252 . S
O362 In351 2.294 . S
O362 C355 1.240 . S
O363 In351 2.326 . S
O363 C355 1.252 . S
In364 O365 2.294 . S
In364 O366 2.326 . S
In364 O370 2.266 . S
In364 O371 2.326 . S
In364 O372 2.266 . S
In364 O373 2.326 . S
In364 O375 2.294 . S
In364 O376 2.326 . S
O365 In364 2.294 . S
O365 C374 1.240 . S
O366 In364 2.326 . S
O366 C374 1.252 . S
C367 O370 1.252 . S
C367 O371 1.260 . S
C368 O375 1.240 . S
C368 O376 1.252 . S
C369 O372 1.252 . S
C369 O373 1.260 . S
O370 In364 2.266 . S
O370 C367 1.252 . S
O371 In364 2.326 . S
O371 C367 1.260 . S
O372 In364 2.266 . S
O372 C369 1.252 . S
O373 In364 2.326 . S
O373 C369 1.260 . S
C374 O365 1.240 . S
C374 O366 1.252 . S
O375 In364 2.294 . S
O375 C368 1.240 . S
O376 In364 2.326 . S
O376 C368 1.252 . S
In377 O378 2.294 . S
In377 O379 2.326 . S
In377 O383 2.266 . S
In377 O384 2.326 . S
In377 O385 2.266 . S
In377 O386 2.326 . S
In377 O388 2.294 . S
In377 O389 2.326 . S
O378 In377 2.294 . S
O378 C387 1.240 . S
O379 In377 2.326 . S
O379 C387 1.252 . S
C380 O383 1.252 . S
C380 O384 1.260 . S
C381 O388 1.240 . S
C381 O389 1.252 . S
C382 O385 1.252 . S
C382 O386 1.260 . S
O383 In377 2.266 . S
O383 C380 1.252 . S
O384 In377 2.326 . S
O384 C380 1.260 . S
O385 In377 2.266 . S
O385 C382 1.252 . S
O386 In377 2.326 . S
O386 C382 1.260 . S
C387 O378 1.240 . S
C387 O379 1.252 . S
O388 In377 2.294 . S
O388 C381 1.240 . S
O389 In377 2.326 . S
O389 C381 1.252 . S
In390 O391 2.294 . S
In390 O392 2.326 . S
In390 O396 2.266 . S
In390 O397 2.326 . S
In390 O398 2.266 . S
In390 O399 2.326 . S
In390 O401 2.294 . S
In390 O402 2.326 . S
O391 In390 2.294 . S
O391 C400 1.240 . S
O392 In390 2.326 . S
O392 C400 1.252 . S
C393 O396 1.252 . S
C393 O397 1.260 . S
C394 O401 1.240 . S
C394 O402 1.252 . S
C395 O398 1.252 . S
C395 O399 1.260 . S
O396 In390 2.266 . S
O396 C393 1.252 . S
O397 In390 2.326 . S
O397 C393 1.260 . S
O398 In390 2.266 . S
O398 C395 1.252 . S
O399 In390 2.326 . S
O399 C395 1.260 . S
C400 O391 1.240 . S
C400 O392 1.252 . S
O401 In390 2.294 . S
O401 C394 1.240 . S
O402 In390 2.326 . S
O402 C394 1.252 . S
In403 O404 2.294 . S
In403 O405 2.326 . S
In403 O409 2.266 . S
In403 O410 2.326 . S
In403 O411 2.266 . S
In403 O412 2.326 . S
In403 O414 2.294 . S
In403 O415 2.326 . S
O404 In403 2.294 . S
O404 C413 1.240 . S
O405 In403 2.326 . S
O405 C413 1.252 . S
C406 O409 1.252 . S
C406 O410 1.260 . S
C407 O414 1.240 . S
C407 O415 1.252 . S
C408 O411 1.252 . S
C408 O412 1.260 . S
O409 In403 2.266 . S
O409 C406 1.252 . S
O410 In403 2.326 . S
O410 C406 1.260 . S
O411 In403 2.266 . S
O411 C408 1.252 . S
O412 In403 2.326 . S
O412 C408 1.260 . S
C413 O404 1.240 . S
C413 O405 1.252 . S
O414 In403 2.294 . S
O414 C407 1.240 . S
O415 In403 2.326 . S
O415 C407 1.252 . S
In416 O417 2.294 . S
In416 O418 2.326 . S
In416 O422 2.266 . S
In416 O423 2.326 . S
In416 O424 2.266 . S
In416 O425 2.326 . S
In416 O427 2.294 . S
In416 O428 2.326 . S
O417 In416 2.294 . S
O417 C426 1.240 . S
O418 In416 2.326 . S
O418 C426 1.252 . S
C419 O422 1.252 . S
C419 O423 1.260 . S
C420 O427 1.240 . S
C420 O428 1.252 . S
C421 O424 1.252 . S
C421 O425 1.260 . S
O422 In416 2.266 . S
O422 C419 1.252 . S
O423 In416 2.326 . S
O423 C419 1.260 . S
O424 In416 2.266 . S
O424 C421 1.252 . S
O425 In416 2.326 . S
O425 C421 1.260 . S
C426 O417 1.240 . S
C426 O418 1.252 . S
O427 In416 2.294 . S
O427 C420 1.240 . S
O428 In416 2.326 . S
O428 C420 1.252 . S
In429 O430 2.294 . S
In429 O431 2.326 . S
In429 O435 2.266 . S
In429 O436 2.326 . S
In429 O437 2.266 . S
In429 O438 2.326 . S
In429 O440 2.294 . S
In429 O441 2.326 . S
O430 In429 2.294 . S
O430 C439 1.240 . S
O431 In429 2.326 . S
O431 C439 1.252 . S
C432 O435 1.252 . S
C432 O436 1.260 . S
C433 O440 1.240 . S
C433 O441 1.252 . S
C434 O437 1.252 . S
C434 O438 1.260 . S
O435 In429 2.266 . S
O435 C432 1.252 . S
O436 In429 2.326 . S
O436 C432 1.260 . S
O437 In429 2.266 . S
O437 C434 1.252 . S
O438 In429 2.326 . S
O438 C434 1.260 . S
C439 O430 1.240 . S
C439 O431 1.252 . S
O440 In429 2.294 . S
O440 C433 1.240 . S
O441 In429 2.326 . S
O441 C433 1.252 . S
In442 O443 2.294 . S
In442 O444 2.326 . S
In442 O448 2.266 . S
In442 O449 2.326 . S
In442 O450 2.266 . S
In442 O451 2.326 . S
In442 O453 2.294 . S
In442 O454 2.326 . S
O443 In442 2.294 . S
O443 C452 1.240 . S
O444 In442 2.326 . S
O444 C452 1.252 . S
C445 O448 1.252 . S
C445 O449 1.260 . S
C446 O453 1.240 . S
C446 O454 1.252 . S
C447 O450 1.252 . S
C447 O451 1.260 . S
O448 In442 2.266 . S
O448 C445 1.252 . S
O449 In442 2.326 . S
O449 C445 1.260 . S
O450 In442 2.266 . S
O450 C447 1.252 . S
O451 In442 2.326 . S
O451 C447 1.260 . S
C452 O443 1.240 . S
C452 O444 1.252 . S
O453 In442 2.294 . S
O453 C446 1.240 . S
O454 In442 2.326 . S
O454 C446 1.252 . S
In455 O456 2.294 . S
In455 O457 2.326 . S
In455 O461 2.266 . S
In455 O462 2.326 . S
In455 O463 2.266 . S
In455 O464 2.326 . S
In455 O466 2.294 . S
In455 O467 2.326 . S
O456 In455 2.294 . S
O456 C465 1.240 . S
O457 In455 2.326 . S
O457 C465 1.252 . S
C458 O461 1.252 . S
C458 O462 1.260 . S
C459 O466 1.240 . S
C459 O467 1.252 . S
C460 O463 1.252 . S
C460 O464 1.260 . S
O461 In455 2.266 . S
O461 C458 1.252 . S
O462 In455 2.326 . S
O462 C458 1.260 . S
O463 In455 2.266 . S
O463 C460 1.252 . S
O464 In455 2.326 . S
O464 C460 1.260 . S
C465 O456 1.240 . S
C465 O457 1.252 . S
O466 In455 2.294 . S
O466 C459 1.240 . S
O467 In455 2.326 . S
O467 C459 1.252 . S
H468 C480 0.930 . S
H469 C482 0.930 . S
H470 C483 0.930 . S
H471 C487 0.959 . S
H472 C487 0.959 . S
H473 C487 0.961 1_565 S
H474 C488 0.960 1_565 S
H475 C488 0.961 . S
H476 C488 0.959 . S
H477 C491 0.929 . S
H478 C492 0.931 . S
H479 C494 0.930 . S
C480 H468 0.930 . S
C480 C481 1.399 . S
C480 C485 1.399 . S
C481 C480 1.399 . S
C481 C482 1.376 . S
C482 H469 0.930 . S
C482 C481 1.376 . S
C482 C483 1.388 . S
C483 H470 0.930 . S
C483 C482 1.388 . S
C483 C484 1.390 . S
C484 C483 1.390 . S
C484 C485 1.394 . S
C484 C490 1.465 1_565 S
C485 C480 1.399 . S
C485 C484 1.394 . S
C485 C486 1.516 1_565 S
C486 C485 1.516 1_545 S
C486 C487 1.502 . S
C486 C488 1.561 . S
C486 C489 1.526 . S
C487 H471 0.959 . S
C487 H472 0.959 . S
C487 H473 0.961 1_545 S
C487 C486 1.502 . S
C488 H474 0.960 1_545 S
C488 H475 0.961 . S
C488 H476 0.959 . S
C488 C486 1.561 . S
C489 C486 1.526 . S
C489 C490 1.396 . S
C489 C494 1.390 . S
C490 C484 1.465 1_545 S
C490 C489 1.396 . S
C490 C491 1.399 . S
C491 H477 0.929 . S
C491 C490 1.399 . S
C491 C492 1.385 . S
C492 H478 0.931 . S
C492 C491 1.385 . S
C492 C493 1.389 . S
C493 C492 1.389 . S
C493 C494 1.387 . S
C494 H479 0.930 . S
C494 C489 1.390 . S
C494 C493 1.387 . S
H495 C507 0.930 . S
H496 C509 0.930 . S
H497 C510 0.930 . S
H498 C514 0.959 . S
H499 C514 0.959 . S
H500 C514 0.961 1_455 S
H501 C515 0.960 1_455 S
H502 C515 0.961 . S
H503 C515 0.959 . S
H504 C518 0.929 . S
H505 C519 0.931 . S
H506 C521 0.930 . S
C507 H495 0.930 . S
C507 C508 1.399 . S
C507 C512 1.399 . S
C508 C507 1.399 . S
C508 C509 1.376 . S
C509 H496 0.930 . S
C509 C508 1.376 . S
C509 C510 1.388 . S
C510 H497 0.930 . S
C510 C509 1.388 . S
C510 C511 1.390 . S
C511 C510 1.390 . S
C511 C512 1.394 . S
C511 C517 1.465 1_455 S
C512 C507 1.399 . S
C512 C511 1.394 . S
C512 C513 1.516 1_455 S
C513 C512 1.516 1_655 S
C513 C514 1.502 . S
C513 C515 1.561 . S
C513 C516 1.526 . S
C514 H498 0.959 . S
C514 H499 0.959 . S
C514 H500 0.961 1_655 S
C514 C513 1.502 . S
C515 H501 0.960 1_655 S
C515 H502 0.961 . S
C515 H503 0.959 . S
C515 C513 1.561 . S
C516 C513 1.526 . S
C516 C517 1.396 . S
C516 C521 1.390 . S
C517 C511 1.465 1_655 S
C517 C516 1.396 . S
C517 C518 1.399 . S
C518 H504 0.929 . S
C518 C517 1.399 . S
C518 C519 1.385 . S
C519 H505 0.931 . S
C519 C518 1.385 . S
C519 C520 1.389 . S
C520 C519 1.389 . S
C520 C521 1.387 . S
C521 H506 0.930 . S
C521 C516 1.390 . S
C521 C520 1.387 . S
H522 C534 0.930 . S
H523 C536 0.930 . S
H524 C537 0.930 . S
H525 C541 0.959 . S
H526 C541 0.959 . S
H527 C541 0.961 . S
H528 C542 0.960 . S
H529 C542 0.961 . S
H530 C542 0.959 . S
H531 C545 0.929 . S
H532 C546 0.931 . S
H533 C548 0.930 . S
C534 H522 0.930 . S
C534 C535 1.399 . S
C534 C539 1.399 . S
C535 C534 1.399 . S
C535 C536 1.376 . S
C536 H523 0.930 . S
C536 C535 1.376 . S
C536 C537 1.388 . S
C537 H524 0.930 . S
C537 C536 1.388 . S
C537 C538 1.390 . S
C538 C537 1.390 . S
C538 C539 1.394 . S
C538 C544 1.465 . S
C539 C534 1.399 . S
C539 C538 1.394 . S
C539 C540 1.516 . S
C540 C539 1.516 . S
C540 C541 1.502 . S
C540 C542 1.561 . S
C540 C543 1.526 . S
C541 H525 0.959 . S
C541 H526 0.959 . S
C541 H527 0.961 . S
C541 C540 1.502 . S
C542 H528 0.960 . S
C542 H529 0.961 . S
C542 H530 0.959 . S
C542 C540 1.561 . S
C543 C540 1.526 . S
C543 C544 1.396 . S
C543 C548 1.390 . S
C544 C538 1.465 . S
C544 C543 1.396 . S
C544 C545 1.399 . S
C545 H531 0.929 . S
C545 C544 1.399 . S
C545 C546 1.385 . S
C546 H532 0.931 . S
C546 C545 1.385 . S
C546 C547 1.389 . S
C547 C546 1.389 . S
C547 C548 1.387 . S
C548 H533 0.930 . S
C548 C543 1.390 . S
C548 C547 1.387 . S
H549 C561 0.930 . S
H550 C563 0.930 . S
H551 C564 0.930 . S
H552 C568 0.959 . S
H553 C568 0.959 . S
H554 C568 0.961 1_565 S
H555 C569 0.960 . S
H556 C569 0.961 1_545 S
H557 C569 0.959 . S
H558 C572 0.929 . S
H559 C573 0.931 . S
H560 C575 0.930 . S
C561 H549 0.930 . S
C561 C562 1.399 . S
C561 C566 1.399 . S
C562 C561 1.399 . S
C562 C563 1.376 . S
C563 H550 0.930 . S
C563 C562 1.376 . S
C563 C564 1.388 . S
C564 H551 0.930 . S
C564 C563 1.388 . S
C564 C565 1.390 . S
C565 C564 1.390 . S
C565 C566 1.394 . S
C565 C571 1.465 1_565 S
C566 C561 1.399 . S
C566 C565 1.394 . S
C566 C567 1.517 . S
C567 C566 1.517 . S
C567 C568 1.502 1_565 S
C567 C569 1.562 . S
C567 C570 1.523 1_565 S
C568 H552 0.959 . S
C568 H553 0.959 . S
C568 H554 0.961 1_545 S
C568 C567 1.502 1_545 S
C569 H555 0.960 . S
C569 H556 0.961 1_565 S
C569 H557 0.959 . S
C569 C567 1.562 . S
C570 C567 1.523 1_545 S
C570 C571 1.396 . S
C570 C575 1.390 . S
C571 C565 1.465 1_545 S
C571 C570 1.396 . S
C571 C572 1.399 . S
C572 H558 0.929 . S
C572 C571 1.399 . S
C572 C573 1.385 . S
C573 H559 0.931 . S
C573 C572 1.385 . S
C573 C574 1.389 . S
C574 C573 1.389 . S
C574 C575 1.387 . S
C575 H560 0.930 . S
C575 C570 1.390 . S
C575 C574 1.387 . S
H576 C588 0.930 . S
H577 C590 0.930 . S
H578 C591 0.930 . S
H579 C595 0.959 . S
H580 C595 0.959 . S
H581 C595 0.961 1_455 S
H582 C596 0.960 1_455 S
H583 C596 0.961 . S
H584 C596 0.959 . S
H585 C599 0.929 . S
H586 C600 0.931 . S
H587 C602 0.930 . S
C588 H576 0.930 . S
C588 C589 1.399 . S
C588 C593 1.399 . S
C589 C588 1.399 . S
C589 C590 1.376 . S
C590 H577 0.930 . S
C590 C589 1.376 . S
C590 C591 1.388 . S
C591 H578 0.930 . S
C591 C590 1.388 . S
C591 C592 1.390 . S
C592 C591 1.390 . S
C592 C593 1.394 . S
C592 C598 1.465 1_455 S
C593 C588 1.399 . S
C593 C592 1.394 . S
C593 C594 1.516 1_455 S
C594 C593 1.516 1_655 S
C594 C595 1.502 . S
C594 C596 1.561 . S
C594 C597 1.526 . S
C595 H579 0.959 . S
C595 H580 0.959 . S
C595 H581 0.961 1_655 S
C595 C594 1.502 . S
C596 H582 0.960 1_655 S
C596 H583 0.961 . S
C596 H584 0.959 . S
C596 C594 1.561 . S
C597 C594 1.526 . S
C597 C598 1.396 . S
C597 C602 1.390 . S
C598 C592 1.465 1_655 S
C598 C597 1.396 . S
C598 C599 1.399 . S
C599 H585 0.929 . S
C599 C598 1.399 . S
C599 C600 1.385 . S
C600 H586 0.931 . S
C600 C599 1.385 . S
C600 C601 1.389 . S
C601 C600 1.389 . S
C601 C602 1.387 . S
C602 H587 0.930 . S
C602 C597 1.390 . S
C602 C601 1.387 . S
H603 C615 0.930 . S
H604 C617 0.930 . S
H605 C618 0.930 . S
H606 C622 0.959 . S
H607 C622 0.959 . S
H608 C622 0.961 . S
H609 C623 0.960 . S
H610 C623 0.961 . S
H611 C623 0.959 . S
H612 C626 0.929 . S
H613 C627 0.931 . S
H614 C629 0.930 . S
C615 H603 0.930 . S
C615 C616 1.399 . S
C615 C620 1.399 . S
C616 C615 1.399 . S
C616 C617 1.376 . S
C617 H604 0.930 . S
C617 C616 1.376 . S
C617 C618 1.388 . S
C618 H605 0.930 . S
C618 C617 1.388 . S
C618 C619 1.390 . S
C619 C618 1.390 . S
C619 C620 1.394 . S
C619 C625 1.465 . S
C620 C615 1.399 . S
C620 C619 1.394 . S
C620 C621 1.516 . S
C621 C620 1.516 . S
C621 C622 1.502 . S
C621 C623 1.561 . S
C621 C624 1.526 . S
C622 H606 0.959 . S
C622 H607 0.959 . S
C622 H608 0.961 . S
C622 C621 1.502 . S
C623 H609 0.960 . S
C623 H610 0.961 . S
C623 H611 0.959 . S
C623 C621 1.561 . S
C624 C621 1.526 . S
C624 C625 1.396 . S
C624 C629 1.390 . S
C625 C619 1.465 . S
C625 C624 1.396 . S
C625 C626 1.399 . S
C626 H612 0.929 . S
C626 C625 1.399 . S
C626 C627 1.385 . S
C627 H613 0.931 . S
C627 C626 1.385 . S
C627 C628 1.389 . S
C628 C627 1.389 . S
C628 C629 1.387 . S
C629 H614 0.930 . S
C629 C624 1.390 . S
C629 C628 1.387 . S
H630 C642 0.930 . S
H631 C644 0.930 . S
H632 C645 0.930 . S
H633 C649 0.958 1_455 S
H634 C649 0.959 . S
H635 C649 0.961 1_455 S
H636 C650 0.960 . S
H637 C650 0.961 . S
H638 C650 0.959 . S
H639 C653 0.929 . S
H640 C654 0.931 . S
H641 C656 0.930 . S
C642 H630 0.930 . S
C642 C643 1.399 . S
C642 C647 1.399 1_455 S
C643 C642 1.399 . S
C643 C644 1.376 1_455 S
C644 H631 0.930 . S
C644 C643 1.376 1_655 S
C644 C645 1.388 . S
C645 H632 0.930 . S
C645 C644 1.388 . S
C645 C646 1.390 . S
C646 C645 1.390 . S
C646 C647 1.394 . S
C646 C652 1.465 . S
C647 C642 1.399 1_655 S
C647 C646 1.394 . S
C647 C648 1.516 . S
C648 C647 1.516 . S
C648 C649 1.503 . S
C648 C650 1.561 . S
C648 C651 1.526 . S
C649 H633 0.958 1_655 S
C649 H634 0.959 . S
C649 H635 0.961 1_655 S
C649 C648 1.503 . S
C650 H636 0.960 . S
C650 H637 0.961 . S
C650 H638 0.959 . S
C650 C648 1.561 . S
C651 C648 1.526 . S
C651 C652 1.396 . S
C651 C656 1.390 . S
C652 C646 1.465 . S
C652 C651 1.396 . S
C652 C653 1.399 . S
C653 H639 0.929 . S
C653 C652 1.399 . S
C653 C654 1.385 . S
C654 H640 0.931 . S
C654 C653 1.385 . S
C654 C655 1.389 . S
C655 C654 1.389 . S
C655 C656 1.387 . S
C656 H641 0.930 . S
C656 C651 1.390 . S
C656 C655 1.387 . S
H657 C669 0.930 . S
H658 C671 0.930 . S
H659 C672 0.930 . S
H660 C676 0.959 . S
H661 C676 0.959 . S
H662 C676 0.961 . S
H663 C677 0.960 . S
H664 C677 0.961 . S
H665 C677 0.959 . S
H666 C680 0.929 . S
H667 C681 0.931 . S
H668 C683 0.930 . S
C669 H657 0.930 . S
C669 C670 1.399 . S
C669 C674 1.399 . S
C670 C669 1.399 . S
C670 C671 1.376 . S
C671 H658 0.930 . S
C671 C670 1.376 . S
C671 C672 1.388 . S
C672 H659 0.930 . S
C672 C671 1.388 . S
C672 C673 1.390 . S
C673 C672 1.390 . S
C673 C674 1.394 . S
C673 C679 1.465 . S
C674 C669 1.399 . S
C674 C673 1.394 . S
C674 C675 1.516 . S
C675 C674 1.516 . S
C675 C676 1.502 . S
C675 C677 1.561 . S
C675 C678 1.526 . S
C676 H660 0.959 . S
C676 H661 0.959 . S
C676 H662 0.961 . S
C676 C675 1.502 . S
C677 H663 0.960 . S
C677 H664 0.961 . S
C677 H665 0.959 . S
C677 C675 1.561 . S
C678 C675 1.526 . S
C678 C679 1.396 . S
C678 C683 1.390 . S
C679 C673 1.465 . S
C679 C678 1.396 . S
C679 C680 1.399 . S
C680 H666 0.929 . S
C680 C679 1.399 . S
C680 C681 1.385 . S
C681 H667 0.931 . S
C681 C680 1.385 . S
C681 C682 1.389 . S
C682 C681 1.389 . S
C682 C683 1.387 . S
C683 H668 0.930 . S
C683 C678 1.390 . S
C683 C682 1.387 . S
H684 C696 0.930 . S
H685 C698 0.930 . S
H686 C699 0.930 . S
H687 C703 0.959 . S
H688 C703 0.959 . S
H689 C703 0.961 . S
H690 C704 0.960 . S
H691 C704 0.961 . S
H692 C704 0.959 . S
H693 C707 0.929 . S
H694 C708 0.931 . S
H695 C710 0.930 . S
C696 H684 0.930 . S
C696 C697 1.399 . S
C696 C701 1.399 . S
C697 C696 1.399 . S
C697 C698 1.376 . S
C698 H685 0.930 . S
C698 C697 1.376 . S
C698 C699 1.388 . S
C699 H686 0.930 . S
C699 C698 1.388 . S
C699 C700 1.390 . S
C700 C699 1.390 . S
C700 C701 1.394 . S
C700 C706 1.465 . S
C701 C696 1.399 . S
C701 C700 1.394 . S
C701 C702 1.516 . S
C702 C701 1.516 . S
C702 C703 1.502 . S
C702 C704 1.561 . S
C702 C705 1.526 . S
C703 H687 0.959 . S
C703 H688 0.959 . S
C703 H689 0.961 . S
C703 C702 1.502 . S
C704 H690 0.960 . S
C704 H691 0.961 . S
C704 H692 0.959 . S
C704 C702 1.561 . S
C705 C702 1.526 . S
C705 C706 1.396 . S
C705 C710 1.390 . S
C706 C700 1.465 . S
C706 C705 1.396 . S
C706 C707 1.399 1_545 S
C707 H693 0.929 . S
C707 C706 1.399 1_565 S
C707 C708 1.385 . S
C708 H694 0.931 . S
C708 C707 1.385 . S
C708 C709 1.389 . S
C709 C708 1.389 . S
C709 C710 1.387 1_565 S
C710 H695 0.930 . S
C710 C705 1.390 . S
C710 C709 1.387 1_545 S
H711 C723 0.930 . S
H712 C725 0.930 . S
H713 C726 0.930 . S
H714 C730 0.959 . S
H715 C730 0.959 . S
H716 C730 0.961 . S
H717 C731 0.960 . S
H718 C731 0.961 . S
H719 C731 0.959 . S
H720 C734 0.929 . S
H721 C735 0.931 . S
H722 C737 0.930 . S
C723 H711 0.930 . S
C723 C724 1.399 . S
C723 C728 1.399 . S
C724 C723 1.399 . S
C724 C725 1.376 . S
C725 H712 0.930 . S
C725 C724 1.376 . S
C725 C726 1.388 . S
C726 H713 0.930 . S
C726 C725 1.388 . S
C726 C727 1.390 . S
C727 C726 1.390 . S
C727 C728 1.394 . S
C727 C733 1.465 . S
C728 C723 1.399 . S
C728 C727 1.394 . S
C728 C729 1.516 . S
C729 C728 1.516 . S
C729 C730 1.502 . S
C729 C731 1.561 . S
C729 C732 1.526 . S
C730 H714 0.959 . S
C730 H715 0.959 . S
C730 H716 0.961 . S
C730 C729 1.502 . S
C731 H717 0.960 . S
C731 H718 0.961 . S
C731 H719 0.959 . S
C731 C729 1.561 . S
C732 C729 1.526 . S
C732 C733 1.396 . S
C732 C737 1.390 . S
C733 C727 1.465 . S
C733 C732 1.396 . S
C733 C734 1.399 . S
C734 H720 0.929 . S
C734 C733 1.399 . S
C734 C735 1.385 . S
C735 H721 0.931 . S
C735 C734 1.385 . S
C735 C736 1.389 . S
C736 C735 1.389 . S
C736 C737 1.387 . S
C737 H722 0.930 . S
C737 C732 1.390 . S
C737 C736 1.387 . S
H738 C750 0.930 . S
H739 C752 0.930 . S
H740 C753 0.930 . S
H741 C757 0.959 . S
H742 C757 0.959 . S
H743 C757 0.961 . S
H744 C758 0.960 . S
H745 C758 0.961 . S
H746 C758 0.959 . S
H747 C761 0.929 . S
H748 C762 0.931 . S
H749 C764 0.930 . S
C750 H738 0.930 . S
C750 C751 1.399 1_545 S
C750 C755 1.399 . S
C751 C750 1.399 1_565 S
C751 C752 1.376 . S
C752 H739 0.930 . S
C752 C751 1.376 . S
C752 C753 1.388 . S
C753 H740 0.930 . S
C753 C752 1.388 . S
C753 C754 1.390 1_565 S
C754 C753 1.390 1_545 S
C754 C755 1.394 . S
C754 C760 1.465 . S
C755 C750 1.399 . S
C755 C754 1.394 . S
C755 C756 1.516 . S
C756 C755 1.516 . S
C756 C757 1.502 . S
C756 C758 1.561 . S
C756 C759 1.526 . S
C757 H741 0.959 . S
C757 H742 0.959 . S
C757 H743 0.961 . S
C757 C756 1.502 . S
C758 H744 0.960 . S
C758 H745 0.961 . S
C758 H746 0.959 . S
C758 C756 1.561 . S
C759 C756 1.526 . S
C759 C760 1.396 . S
C759 C764 1.390 . S
C760 C754 1.465 . S
C760 C759 1.396 . S
C760 C761 1.399 . S
C761 H747 0.929 . S
C761 C760 1.399 . S
C761 C762 1.385 . S
C762 H748 0.931 . S
C762 C761 1.385 . S
C762 C763 1.389 . S
C763 C762 1.389 . S
C763 C764 1.387 . S
C764 H749 0.930 . S
C764 C759 1.390 . S
C764 C763 1.387 . S
H765 C777 0.930 . S
H766 C779 0.930 . S
H767 C780 0.930 . S
H768 C784 0.968 . S
H769 C784 0.976 . S
H770 C784 0.947 1_655 S
H771 C785 0.960 . S
H772 C785 0.961 . S
H773 C785 0.959 . S
H774 C788 0.929 . S
H775 C789 0.932 1_455 S
H776 C791 0.930 . S
C777 H765 0.930 . S
C777 C778 1.399 . S
C777 C782 1.399 . S
C778 C777 1.399 . S
C778 C779 1.376 . S
C779 H766 0.930 . S
C779 C778 1.376 . S
C779 C780 1.388 . S
C780 H767 0.930 . S
C780 C779 1.388 . S
C780 C781 1.390 . S
C781 C780 1.390 . S
C781 C782 1.394 . S
C781 C787 1.465 . S
C782 C777 1.399 . S
C782 C781 1.394 . S
C782 C783 1.516 . S
C783 C782 1.516 . S
C783 C784 1.491 1_655 S
C783 C785 1.561 . S
C783 C786 1.526 . S
C784 H768 0.968 . S
C784 H769 0.976 . S
C784 H770 0.947 1_455 S
C784 C783 1.491 1_455 S
C785 H771 0.960 . S
C785 H772 0.961 . S
C785 H773 0.959 . S
C785 C783 1.561 . S
C786 C783 1.526 . S
C786 C787 1.396 . S
C786 C791 1.390 1_655 S
C787 C781 1.465 . S
C787 C786 1.396 . S
C787 C788 1.399 . S
C788 H774 0.929 . S
C788 C787 1.399 . S
C788 C789 1.385 . S
C789 H775 0.932 1_655 S
C789 C788 1.385 . S
C789 C790 1.389 1_655 S
C790 C789 1.389 1_455 S
C790 C791 1.387 . S
C791 H776 0.930 . S
C791 C786 1.390 1_455 S
C791 C790 1.387 . S
H792 C804 0.930 . S
H793 C806 0.930 . S
H794 C807 0.930 . S
H795 C811 0.959 . S
H796 C811 0.959 . S
H797 C811 0.961 . S
H798 C812 0.960 1_554 S
H799 C812 0.961 1_554 S
H800 C812 0.959 . S
H801 C815 0.929 . S
H802 C816 0.931 . S
H803 C818 0.930 . S
C804 H792 0.930 . S
C804 C805 1.399 . S
C804 C809 1.399 . S
C805 C804 1.399 . S
C805 C806 1.376 . S
C806 H793 0.930 . S
C806 C805 1.376 . S
C806 C807 1.388 . S
C807 H794 0.930 . S
C807 C806 1.388 . S
C807 C808 1.390 . S
C808 C807 1.390 . S
C808 C809 1.394 . S
C808 C814 1.465 . S
C809 C804 1.399 . S
C809 C808 1.394 . S
C809 C810 1.516 . S
C810 C809 1.516 . S
C810 C811 1.502 . S
C810 C812 1.561 . S
C810 C813 1.526 . S
C811 H795 0.959 . S
C811 H796 0.959 . S
C811 H797 0.961 . S
C811 C810 1.502 . S
C812 H798 0.960 1_556 S
C812 H799 0.961 1_556 S
C812 H800 0.959 . S
C812 C810 1.561 . S
C813 C810 1.526 . S
C813 C814 1.396 . S
C813 C818 1.390 . S
C814 C808 1.465 . S
C814 C813 1.396 . S
C814 C815 1.399 . S
C815 H801 0.929 . S
C815 C814 1.399 . S
C815 C816 1.385 . S
C816 H802 0.931 . S
C816 C815 1.385 . S
C816 C817 1.389 . S
C817 C816 1.389 . S
C817 C818 1.387 . S
C818 H803 0.930 . S
C818 C813 1.390 . S
C818 C817 1.387 . S
H819 C831 0.930 . S
H820 C833 0.930 . S
H821 C834 0.930 . S
H822 C838 0.959 . S
H823 C838 0.959 . S
H824 C838 0.961 . S
H825 C839 0.984 . S
H826 C839 0.992 . S
H827 C839 0.907 1_565 S
H828 C842 0.929 . S
H829 C843 0.931 . S
H830 C845 0.930 . S
C831 H819 0.930 . S
C831 C832 1.399 . S
C831 C836 1.399 1_545 S
C832 C831 1.399 . S
C832 C833 1.376 1_545 S
C833 H820 0.930 . S
C833 C832 1.376 1_565 S
C833 C834 1.388 . S
C834 H821 0.930 . S
C834 C833 1.388 . S
C834 C835 1.390 . S
C835 C834 1.390 . S
C835 C836 1.394 . S
C835 C841 1.465 . S
C836 C831 1.399 1_565 S
C836 C835 1.394 . S
C836 C837 1.557 . S
C837 C836 1.557 . S
C837 C838 1.433 1_565 S
C837 C839 1.566 1_565 S
C837 C840 1.566 . S
C838 H822 0.959 . S
C838 H823 0.959 . S
C838 H824 0.961 . S
C838 C837 1.433 1_545 S
C839 H825 0.984 . S
C839 H826 0.992 . S
C839 H827 0.907 1_545 S
C839 C837 1.566 1_545 S
C840 C837 1.566 . S
C840 C841 1.396 . S
C840 C845 1.390 . S
C841 C835 1.465 . S
C841 C840 1.396 . S
C841 C842 1.399 . S
C842 H828 0.929 . S
C842 C841 1.399 . S
C842 C843 1.385 . S
C843 H829 0.931 . S
C843 C842 1.385 . S
C843 C844 1.389 . S
C844 C843 1.389 . S
C844 C845 1.387 . S
C845 H830 0.930 . S
C845 C840 1.390 . S
C845 C844 1.387 . S
H846 C858 0.930 . S
H847 C860 0.930 . S
H848 C861 0.914 1_655 S
H849 C865 0.959 . S
H850 C865 0.959 . S
H851 C865 0.961 . S
H852 C866 0.960 . S
H853 C866 0.961 . S
H854 C866 0.959 . S
H855 C869 0.929 . S
H856 C870 0.931 . S
H857 C872 0.930 . S
C858 H846 0.930 . S
C858 C859 1.399 . S
C858 C863 1.399 . S
C859 C858 1.399 . S
C859 C860 1.376 . S
C860 H847 0.930 . S
C860 C859 1.376 . S
C860 C861 1.388 . S
C861 H848 0.914 1_455 S
C861 C860 1.388 . S
C861 C862 1.390 . S
C862 C861 1.390 . S
C862 C863 1.394 . S
C862 C868 1.465 . S
C863 C858 1.399 . S
C863 C862 1.394 . S
C863 C864 1.516 . S
C864 C863 1.516 . S
C864 C865 1.502 . S
C864 C866 1.561 . S
C864 C867 1.526 . S
C865 H849 0.959 . S
C865 H850 0.959 . S
C865 H851 0.961 . S
C865 C864 1.502 . S
C866 H852 0.960 . S
C866 H853 0.961 . S
C866 H854 0.959 . S
C866 C864 1.561 . S
C867 C864 1.526 . S
C867 C868 1.396 . S
C867 C872 1.390 . S
C868 C862 1.465 . S
C868 C867 1.396 . S
C868 C869 1.399 1_455 S
C869 H855 0.929 . S
C869 C868 1.399 1_655 S
C869 C870 1.385 . S
C870 H856 0.931 . S
C870 C869 1.385 . S
C870 C871 1.389 . S
C871 C870 1.389 . S
C871 C872 1.387 1_655 S
C872 H857 0.930 . S
C872 C867 1.390 . S
C872 C871 1.387 1_455 S
H873 C885 0.930 . S
H874 C887 0.930 . S
H875 C888 0.930 . S
H876 C892 0.959 . S
H877 C892 0.959 . S
H878 C892 0.961 . S
H879 C893 0.960 . S
H880 C893 0.961 . S
H881 C893 0.959 . S
H882 C896 0.929 . S
H883 C897 0.931 . S
H884 C899 0.930 . S
C885 H873 0.930 . S
C885 C886 1.399 . S
C885 C890 1.399 . S
C886 C885 1.399 . S
C886 C887 1.376 . S
C887 H874 0.930 . S
C887 C886 1.376 . S
C887 C888 1.388 . S
C888 H875 0.930 . S
C888 C887 1.388 . S
C888 C889 1.390 . S
C889 C888 1.390 . S
C889 C890 1.394 . S
C889 C895 1.465 . S
C890 C885 1.399 . S
C890 C889 1.394 . S
C890 C891 1.516 . S
C891 C890 1.516 . S
C891 C892 1.502 1_455 S
C891 C893 1.561 . S
C891 C894 1.526 . S
C892 H876 0.959 . S
C892 H877 0.959 . S
C892 H878 0.961 . S
C892 C891 1.502 1_655 S
C893 H879 0.960 . S
C893 H880 0.961 . S
C893 H881 0.959 . S
C893 C891 1.561 . S
C894 C891 1.526 . S
C894 C895 1.396 . S
C894 C899 1.390 1_455 S
C895 C889 1.465 . S
C895 C894 1.396 . S
C895 C896 1.399 . S
C896 H882 0.929 . S
C896 C895 1.399 . S
C896 C897 1.385 . S
C897 H883 0.931 . S
C897 C896 1.385 . S
C897 C898 1.389 1_455 S
C898 C897 1.389 1_655 S
C898 C899 1.387 . S
C899 H884 0.930 . S
C899 C894 1.390 1_655 S
C899 C898 1.387 . S
H900 C912 0.930 . S
H901 C914 0.930 . S
H902 C915 0.930 . S
H903 C919 0.959 . S
H904 C919 0.959 . S
H905 C919 0.961 . S
H906 C920 0.960 . S
H907 C920 0.961 . S
H908 C920 0.959 . S
H909 C923 0.929 . S
H910 C924 0.931 . S
H911 C926 0.930 . S
C912 H900 0.930 . S
C912 C913 1.399 . S
C912 C917 1.399 . S
C913 C912 1.399 . S
C913 C914 1.376 . S
C914 H901 0.930 . S
C914 C913 1.376 . S
C914 C915 1.388 . S
C915 H902 0.930 . S
C915 C914 1.388 . S
C915 C916 1.390 . S
C916 C915 1.390 . S
C916 C917 1.394 . S
C916 C922 1.465 . S
C917 C912 1.399 . S
C917 C916 1.394 . S
C917 C918 1.516 . S
C918 C917 1.516 . S
C918 C919 1.502 . S
C918 C920 1.561 . S
C918 C921 1.526 . S
C919 H903 0.959 . S
C919 H904 0.959 . S
C919 H905 0.961 . S
C919 C918 1.502 . S
C920 H906 0.960 . S
C920 H907 0.961 . S
C920 H908 0.959 . S
C920 C918 1.561 . S
C921 C918 1.526 . S
C921 C922 1.396 . S
C921 C926 1.390 . S
C922 C916 1.465 . S
C922 C921 1.396 . S
C922 C923 1.399 . S
C923 H909 0.929 . S
C923 C922 1.399 . S
C923 C924 1.385 . S
C924 H910 0.931 . S
C924 C923 1.385 . S
C924 C925 1.389 . S
C925 C924 1.389 . S
C925 C926 1.387 . S
C926 H911 0.930 . S
C926 C921 1.390 . S
C926 C925 1.387 . S
H927 C939 0.930 . S
H928 C941 0.930 . S
H929 C942 0.930 . S
H930 C946 0.959 . S
H931 C946 0.959 . S
H932 C946 0.961 . S
H933 C947 0.960 . S
H934 C947 0.961 . S
H935 C947 0.959 . S
H936 C950 0.929 . S
H937 C951 0.931 . S
H938 C953 0.930 . S
C939 H927 0.930 . S
C939 C940 1.399 . S
C939 C944 1.399 . S
C940 C939 1.399 . S
C940 C941 1.376 . S
C941 H928 0.930 . S
C941 C940 1.376 . S
C941 C942 1.388 . S
C942 H929 0.930 . S
C942 C941 1.388 . S
C942 C943 1.390 . S
C943 C942 1.390 . S
C943 C944 1.394 . S
C943 C949 1.465 . S
C944 C939 1.399 . S
C944 C943 1.394 . S
C944 C945 1.516 . S
C945 C944 1.516 . S
C945 C946 1.502 . S
C945 C947 1.561 . S
C945 C948 1.526 . S
C946 H930 0.959 . S
C946 H931 0.959 . S
C946 H932 0.961 . S
C946 C945 1.502 . S
C947 H933 0.960 . S
C947 H934 0.961 . S
C947 H935 0.959 . S
C947 C945 1.561 . S
C948 C945 1.526 . S
C948 C949 1.396 . S
C948 C953 1.390 . S
C949 C943 1.465 . S
C949 C948 1.396 . S
C949 C950 1.399 1_565 S
C950 H936 0.929 . S
C950 C949 1.399 1_545 S
C950 C951 1.385 . S
C951 H937 0.931 . S
C951 C950 1.385 . S
C951 C952 1.389 . S
C952 C951 1.389 . S
C952 C953 1.387 1_545 S
C953 H938 0.930 . S
C953 C948 1.390 . S
C953 C952 1.387 1_565 S
H954 C966 0.930 . S
H955 C968 0.930 . S
H956 C969 0.930 . S
H957 C973 0.959 . S
H958 C973 0.959 . S
H959 C973 0.961 . S
H960 C974 0.960 . S
H961 C974 0.961 . S
H962 C974 0.959 . S
H963 C977 0.929 . S
H964 C978 0.931 . S
H965 C980 0.930 . S
C966 H954 0.930 . S
C966 C967 1.399 . S
C966 C971 1.399 . S
C967 C966 1.399 . S
C967 C968 1.376 . S
C968 H955 0.930 . S
C968 C967 1.376 . S
C968 C969 1.388 . S
C969 H956 0.930 . S
C969 C968 1.388 . S
C969 C970 1.390 . S
C970 C969 1.390 . S
C970 C971 1.394 . S
C970 C976 1.465 . S
C971 C966 1.399 . S
C971 C970 1.394 . S
C971 C972 1.516 . S
C972 C971 1.516 . S
C972 C973 1.502 . S
C972 C974 1.561 . S
C972 C975 1.526 . S
C973 H957 0.959 . S
C973 H958 0.959 . S
C973 H959 0.961 . S
C973 C972 1.502 . S
C974 H960 0.960 . S
C974 H961 0.961 . S
C974 H962 0.959 . S
C974 C972 1.561 . S
C975 C972 1.526 . S
C975 C976 1.396 . S
C975 C980 1.390 . S
C976 C970 1.465 . S
C976 C975 1.396 . S
C976 C977 1.399 . S
C977 H963 0.929 . S
C977 C976 1.399 . S
C977 C978 1.385 . S
C978 H964 0.931 . S
C978 C977 1.385 . S
C978 C979 1.389 . S
C979 C978 1.389 . S
C979 C980 1.387 . S
C980 H965 0.930 . S
C980 C975 1.390 . S
C980 C979 1.387 . S
H981 C993 0.930 . S
H982 C995 0.930 . S
H983 C996 0.930 . S
H984 C1000 0.959 . S
H985 C1000 0.959 . S
H986 C1000 0.961 . S
H987 C1001 0.960 . S
H988 C1001 0.961 . S
H989 C1001 0.959 . S
H990 C1004 0.929 . S
H991 C1005 0.931 . S
H992 C1007 0.930 . S
C993 H981 0.930 . S
C993 C994 1.399 . S
C993 C998 1.399 . S
C994 C993 1.399 . S
C994 C995 1.376 . S
C995 H982 0.930 . S
C995 C994 1.376 . S
C995 C996 1.388 . S
C996 H983 0.930 . S
C996 C995 1.388 . S
C996 C997 1.390 . S
C997 C996 1.390 . S
C997 C998 1.394 . S
C997 C1003 1.465 . S
C998 C993 1.399 . S
C998 C997 1.394 . S
C998 C999 1.516 . S
C999 C998 1.516 . S
C999 C1000 1.502 . S
C999 C1001 1.561 . S
C999 C1002 1.526 . S
C1000 H984 0.959 . S
C1000 H985 0.959 . S
C1000 H986 0.961 . S
C1000 C999 1.502 . S
C1001 H987 0.960 . S
C1001 H988 0.961 . S
C1001 H989 0.959 . S
C1001 C999 1.561 . S
C1002 C999 1.526 . S
C1002 C1003 1.396 . S
C1002 C1007 1.390 . S
C1003 C997 1.465 . S
C1003 C1002 1.396 . S
C1003 C1004 1.399 . S
C1004 H990 0.929 . S
C1004 C1003 1.399 . S
C1004 C1005 1.385 . S
C1005 H991 0.931 . S
C1005 C1004 1.385 . S
C1005 C1006 1.389 . S
C1006 C1005 1.389 . S
C1006 C1007 1.387 . S
C1007 H992 0.930 . S
C1007 C1002 1.390 . S
C1007 C1006 1.387 . S
H1008 C1020 0.930 . S
H1009 C1022 0.930 . S
H1010 C1023 0.930 . S
H1011 C1027 0.959 . S
H1012 C1027 0.959 . S
H1013 C1027 0.961 . S
H1014 C1028 0.960 . S
H1015 C1028 0.961 . S
H1016 C1028 0.959 . S
H1017 C1031 0.929 . S
H1018 C1032 0.931 . S
H1019 C1034 0.930 . S
C1020 H1008 0.930 . S
C1020 C1021 1.399 . S
C1020 C1025 1.399 . S
C1021 C1020 1.399 . S
C1021 C1022 1.376 . S
C1022 H1009 0.930 . S
C1022 C1021 1.376 . S
C1022 C1023 1.388 . S
C1023 H1010 0.930 . S
C1023 C1022 1.388 . S
C1023 C1024 1.390 . S
C1024 C1023 1.390 . S
C1024 C1025 1.394 . S
C1024 C1030 1.465 . S
C1025 C1020 1.399 . S
C1025 C1024 1.394 . S
C1025 C1026 1.516 . S
C1026 C1025 1.516 . S
C1026 C1027 1.502 . S
C1026 C1028 1.561 . S
C1026 C1029 1.526 . S
C1027 H1011 0.959 . S
C1027 H1012 0.959 . S
C1027 H1013 0.961 . S
C1027 C1026 1.502 . S
C1028 H1014 0.960 . S
C1028 H1015 0.961 . S
C1028 H1016 0.959 . S
C1028 C1026 1.561 . S
C1029 C1026 1.526 . S
C1029 C1030 1.396 . S
C1029 C1034 1.390 . S
C1030 C1024 1.465 . S
C1030 C1029 1.396 . S
C1030 C1031 1.399 . S
C1031 H1017 0.929 . S
C1031 C1030 1.399 . S
C1031 C1032 1.385 . S
C1032 H1018 0.931 . S
C1032 C1031 1.385 . S
C1032 C1033 1.389 . S
C1033 C1032 1.389 . S
C1033 C1034 1.387 . S
C1034 H1019 0.930 . S
C1034 C1029 1.390 . S
C1034 C1033 1.387 . S
H1035 C1047 0.930 . S
H1036 C1049 0.930 . S
H1037 C1050 0.930 . S
H1038 C1054 0.959 . S
H1039 C1054 0.959 . S
H1040 C1054 0.961 . S
H1041 C1055 0.960 . S
H1042 C1055 0.961 . S
H1043 C1055 0.959 . S
H1044 C1058 0.929 . S
H1045 C1059 0.931 . S
H1046 C1061 0.930 . S
C1047 H1035 0.930 . S
C1047 C1048 1.399 . S
C1047 C1052 1.399 . S
C1048 C1047 1.399 . S
C1048 C1049 1.376 . S
C1049 H1036 0.930 . S
C1049 C1048 1.376 . S
C1049 C1050 1.388 . S
C1050 H1037 0.930 . S
C1050 C1049 1.388 . S
C1050 C1051 1.390 . S
C1051 C1050 1.390 . S
C1051 C1052 1.394 . S
C1051 C1057 1.465 . S
C1052 C1047 1.399 . S
C1052 C1051 1.394 . S
C1052 C1053 1.516 . S
C1053 C1052 1.516 . S
C1053 C1054 1.502 . S
C1053 C1055 1.561 . S
C1053 C1056 1.526 . S
C1054 H1038 0.959 . S
C1054 H1039 0.959 . S
C1054 H1040 0.961 . S
C1054 C1053 1.502 . S
C1055 H1041 0.960 . S
C1055 H1042 0.961 . S
C1055 H1043 0.959 . S
C1055 C1053 1.561 . S
C1056 C1053 1.526 . S
C1056 C1057 1.396 . S
C1056 C1061 1.390 . S
C1057 C1051 1.465 . S
C1057 C1056 1.396 . S
C1057 C1058 1.399 . S
C1058 H1044 0.929 . S
C1058 C1057 1.399 . S
C1058 C1059 1.385 1_554 S
C1059 H1045 0.931 . S
C1059 C1058 1.385 1_556 S
C1059 C1060 1.389 1_556 S
C1060 C1059 1.389 1_554 S
C1060 C1061 1.387 . S
C1061 H1046 0.930 . S
C1061 C1056 1.390 . S
C1061 C1060 1.387 . S
H1062 C1074 0.930 . S
H1063 C1076 0.930 . S
H1064 C1077 0.930 . S
H1065 C1081 0.959 . S
H1066 C1081 0.959 . S
H1067 C1081 0.961 . S
H1068 C1082 0.960 . S
H1069 C1082 0.961 . S
H1070 C1082 0.959 . S
H1071 C1085 0.929 . S
H1072 C1086 0.931 . S
H1073 C1088 0.930 . S
C1074 H1062 0.930 . S
C1074 C1075 1.399 . S
C1074 C1079 1.399 . S
C1075 C1074 1.399 . S
C1075 C1076 1.376 . S
C1076 H1063 0.930 . S
C1076 C1075 1.376 . S
C1076 C1077 1.388 . S
C1077 H1064 0.930 . S
C1077 C1076 1.388 . S
C1077 C1078 1.390 . S
C1078 C1077 1.390 . S
C1078 C1079 1.394 . S
C1078 C1084 1.465 . S
C1079 C1074 1.399 . S
C1079 C1078 1.394 . S
C1079 C1080 1.516 . S
C1080 C1079 1.516 . S
C1080 C1081 1.502 . S
C1080 C1082 1.561 . S
C1080 C1083 1.526 . S
C1081 H1065 0.959 . S
C1081 H1066 0.959 . S
C1081 H1067 0.961 . S
C1081 C1080 1.502 . S
C1082 H1068 0.960 . S
C1082 H1069 0.961 . S
C1082 H1070 0.959 . S
C1082 C1080 1.561 . S
C1083 C1080 1.526 . S
C1083 C1084 1.396 . S
C1083 C1088 1.390 . S
C1084 C1078 1.465 . S
C1084 C1083 1.396 . S
C1084 C1085 1.399 . S
C1085 H1071 0.929 . S
C1085 C1084 1.399 . S
C1085 C1086 1.385 . S
C1086 H1072 0.931 . S
C1086 C1085 1.385 . S
C1086 C1087 1.389 . S
C1087 C1086 1.389 . S
C1087 C1088 1.387 . S
C1088 H1073 0.930 . S
C1088 C1083 1.390 . S
C1088 C1087 1.387 . S
H1089 C1101 0.930 . S
H1090 C1103 0.930 . S
H1091 C1104 0.930 . S
H1092 C1108 0.959 . S
H1093 C1108 0.959 . S
H1094 C1108 0.961 . S
H1095 C1109 0.960 . S
H1096 C1109 0.961 . S
H1097 C1109 0.959 . S
H1098 C1112 0.929 . S
H1099 C1113 0.931 . S
H1100 C1115 0.930 . S
C1101 H1089 0.930 . S
C1101 C1102 1.399 . S
C1101 C1106 1.399 . S
C1102 C1101 1.399 . S
C1102 C1103 1.376 . S
C1103 H1090 0.930 . S
C1103 C1102 1.376 . S
C1103 C1104 1.388 . S
C1104 H1091 0.930 . S
C1104 C1103 1.388 . S
C1104 C1105 1.390 . S
C1105 C1104 1.390 . S
C1105 C1106 1.394 . S
C1105 C1111 1.465 . S
C1106 C1101 1.399 . S
C1106 C1105 1.394 . S
C1106 C1107 1.516 . S
C1107 C1106 1.516 . S
C1107 C1108 1.502 . S
C1107 C1109 1.561 . S
C1107 C1110 1.526 . S
C1108 H1092 0.959 . S
C1108 H1093 0.959 . S
C1108 H1094 0.961 . S
C1108 C1107 1.502 . S
C1109 H1095 0.960 . S
C1109 H1096 0.961 . S
C1109 H1097 0.959 . S
C1109 C1107 1.561 . S
C1110 C1107 1.526 . S
C1110 C1111 1.396 . S
C1110 C1115 1.390 . S
C1111 C1105 1.465 . S
C1111 C1110 1.396 . S
C1111 C1112 1.399 . S
C1112 H1098 0.929 . S
C1112 C1111 1.399 . S
C1112 C1113 1.385 . S
C1113 H1099 0.931 . S
C1113 C1112 1.385 . S
C1113 C1114 1.389 . S
C1114 C1113 1.389 . S
C1114 C1115 1.387 . S
C1115 H1100 0.930 . S
C1115 C1110 1.390 . S
C1115 C1114 1.387 . S
H1116 C1128 0.930 . S
H1117 C1130 0.930 . S
H1118 C1131 0.930 . S
H1119 C1135 0.959 . S
H1120 C1135 0.959 . S
H1121 C1135 0.961 . S
H1122 C1136 0.960 . S
H1123 C1136 0.961 . S
H1124 C1136 0.959 . S
H1125 C1139 0.929 . S
H1126 C1140 0.931 . S
H1127 C1142 0.930 . S
C1128 H1116 0.930 . S
C1128 C1129 1.399 . S
C1128 C1133 1.399 . S
C1129 C1128 1.399 . S
C1129 C1130 1.376 . S
C1130 H1117 0.930 . S
C1130 C1129 1.376 . S
C1130 C1131 1.388 . S
C1131 H1118 0.930 . S
C1131 C1130 1.388 . S
C1131 C1132 1.390 . S
C1132 C1131 1.390 . S
C1132 C1133 1.394 . S
C1132 C1138 1.465 . S
C1133 C1128 1.399 . S
C1133 C1132 1.394 . S
C1133 C1134 1.516 . S
C1134 C1133 1.516 . S
C1134 C1135 1.502 . S
C1134 C1136 1.561 . S
C1134 C1137 1.526 . S
C1135 H1119 0.959 . S
C1135 H1120 0.959 . S
C1135 H1121 0.961 . S
C1135 C1134 1.502 . S
C1136 H1122 0.960 . S
C1136 H1123 0.961 . S
C1136 H1124 0.959 . S
C1136 C1134 1.561 . S
C1137 C1134 1.526 . S
C1137 C1138 1.396 . S
C1137 C1142 1.390 . S
C1138 C1132 1.465 . S
C1138 C1137 1.396 . S
C1138 C1139 1.399 . S
C1139 H1125 0.929 . S
C1139 C1138 1.399 . S
C1139 C1140 1.385 . S
C1140 H1126 0.931 . S
C1140 C1139 1.385 . S
C1140 C1141 1.389 . S
C1141 C1140 1.389 . S
C1141 C1142 1.387 . S
C1142 H1127 0.930 . S
C1142 C1137 1.390 . S
C1142 C1141 1.387 . S
H1143 C1155 0.930 . S
H1144 C1157 0.930 . S
H1145 C1158 0.930 . S
H1146 C1162 0.959 . S
H1147 C1162 0.959 . S
H1148 C1162 0.961 . S
H1149 C1163 0.960 . S
H1150 C1163 0.961 . S
H1151 C1163 0.959 . S
H1152 C1166 0.929 . S
H1153 C1167 0.931 . S
H1154 C1169 0.930 . S
C1155 H1143 0.930 . S
C1155 C1156 1.399 . S
C1155 C1160 1.399 . S
C1156 C1155 1.399 . S
C1156 C1157 1.376 . S
C1157 H1144 0.930 . S
C1157 C1156 1.376 . S
C1157 C1158 1.388 . S
C1158 H1145 0.930 . S
C1158 C1157 1.388 . S
C1158 C1159 1.390 . S
C1159 C1158 1.390 . S
C1159 C1160 1.394 . S
C1159 C1165 1.465 . S
C1160 C1155 1.399 . S
C1160 C1159 1.394 . S
C1160 C1161 1.516 . S
C1161 C1160 1.516 . S
C1161 C1162 1.502 . S
C1161 C1163 1.561 . S
C1161 C1164 1.526 . S
C1162 H1146 0.959 . S
C1162 H1147 0.959 . S
C1162 H1148 0.961 . S
C1162 C1161 1.502 . S
C1163 H1149 0.960 . S
C1163 H1150 0.961 . S
C1163 H1151 0.959 . S
C1163 C1161 1.561 . S
C1164 C1161 1.526 . S
C1164 C1165 1.396 . S
C1164 C1169 1.390 . S
C1165 C1159 1.465 . S
C1165 C1164 1.396 . S
C1165 C1166 1.399 . S
C1166 H1152 0.929 . S
C1166 C1165 1.399 . S
C1166 C1167 1.385 . S
C1167 H1153 0.931 . S
C1167 C1166 1.385 . S
C1167 C1168 1.389 . S
C1168 C1167 1.389 . S
C1168 C1169 1.387 . S
C1169 H1154 0.930 . S
C1169 C1164 1.390 . S
C1169 C1168 1.387 . S
H1170 C1182 0.930 . S
H1171 C1184 0.930 . S
H1172 C1185 0.930 . S
H1173 C1189 0.959 . S
H1174 C1189 0.959 . S
H1175 C1189 0.961 . S
H1176 C1190 0.960 . S
H1177 C1190 0.961 . S
H1178 C1190 0.959 . S
H1179 C1193 0.929 . S
H1180 C1194 0.931 . S
H1181 C1196 0.930 . S
C1182 H1170 0.930 . S
C1182 C1183 1.399 . S
C1182 C1187 1.399 . S
C1183 C1182 1.399 . S
C1183 C1184 1.376 . S
C1184 H1171 0.930 . S
C1184 C1183 1.376 . S
C1184 C1185 1.388 . S
C1185 H1172 0.930 . S
C1185 C1184 1.388 . S
C1185 C1186 1.390 . S
C1186 C1185 1.390 . S
C1186 C1187 1.394 . S
C1186 C1192 1.465 . S
C1187 C1182 1.399 . S
C1187 C1186 1.394 . S
C1187 C1188 1.516 . S
C1188 C1187 1.516 . S
C1188 C1189 1.502 . S
C1188 C1190 1.561 . S
C1188 C1191 1.526 . S
C1189 H1173 0.959 . S
C1189 H1174 0.959 . S
C1189 H1175 0.961 . S
C1189 C1188 1.502 . S
C1190 H1176 0.960 . S
C1190 H1177 0.961 . S
C1190 H1178 0.959 . S
C1190 C1188 1.561 . S
C1191 C1188 1.526 . S
C1191 C1192 1.396 . S
C1191 C1196 1.390 . S
C1192 C1186 1.465 . S
C1192 C1191 1.396 . S
C1192 C1193 1.399 . S
C1193 H1179 0.929 . S
C1193 C1192 1.399 . S
C1193 C1194 1.385 . S
C1194 H1180 0.931 . S
C1194 C1193 1.385 . S
C1194 C1195 1.389 . S
C1195 C1194 1.389 . S
C1195 C1196 1.387 . S
C1196 H1181 0.930 . S
C1196 C1191 1.390 . S
C1196 C1195 1.387 . S
H1197 C1209 0.930 . S
H1198 C1211 0.930 1_554 S
H1199 C1212 0.930 . S
H1200 C1216 0.959 . S
H1201 C1216 0.959 . S
H1202 C1216 0.961 . S
H1203 C1217 0.960 . S
H1204 C1217 0.961 . S
H1205 C1217 0.959 . S
H1206 C1220 0.929 . S
H1207 C1221 0.931 . S
H1208 C1223 0.930 . S
C1209 H1197 0.930 . S
C1209 C1210 1.399 . S
C1209 C1214 1.399 . S
C1210 C1209 1.399 . S
C1210 C1211 1.376 . S
C1211 H1198 0.930 1_556 S
C1211 C1210 1.376 . S
C1211 C1212 1.388 . S
C1212 H1199 0.930 . S
C1212 C1211 1.388 . S
C1212 C1213 1.390 . S
C1213 C1212 1.390 . S
C1213 C1214 1.394 . S
C1213 C1219 1.465 . S
C1214 C1209 1.399 . S
C1214 C1213 1.394 . S
C1214 C1215 1.516 . S
C1215 C1214 1.516 . S
C1215 C1216 1.502 . S
C1215 C1217 1.561 . S
C1215 C1218 1.526 . S
C1216 H1200 0.959 . S
C1216 H1201 0.959 . S
C1216 H1202 0.961 . S
C1216 C1215 1.502 . S
C1217 H1203 0.960 . S
C1217 H1204 0.961 . S
C1217 H1205 0.959 . S
C1217 C1215 1.561 . S
C1218 C1215 1.526 . S
C1218 C1219 1.396 . S
C1218 C1223 1.390 . S
C1219 C1213 1.465 . S
C1219 C1218 1.396 . S
C1219 C1220 1.399 . S
C1220 H1206 0.929 . S
C1220 C1219 1.399 . S
C1220 C1221 1.385 . S
C1221 H1207 0.931 . S
C1221 C1220 1.385 . S
C1221 C1222 1.389 . S
C1222 C1221 1.389 . S
C1222 C1223 1.387 . S
C1223 H1208 0.930 . S
C1223 C1218 1.390 . S
C1223 C1222 1.387 . S
H1224 C1236 0.930 . S
H1225 C1238 0.930 . S
H1226 C1239 0.930 . S
H1227 C1243 0.959 . S
H1228 C1243 0.959 . S
H1229 C1243 0.961 . S
H1230 C1244 0.960 . S
H1231 C1244 0.961 . S
H1232 C1244 0.959 . S
H1233 C1247 0.929 . S
H1234 C1248 0.931 . S
H1235 C1250 0.930 . S
C1236 H1224 0.930 . S
C1236 C1237 1.399 . S
C1236 C1241 1.399 . S
C1237 C1236 1.399 . S
C1237 C1238 1.376 . S
C1238 H1225 0.930 . S
C1238 C1237 1.376 . S
C1238 C1239 1.388 . S
C1239 H1226 0.930 . S
C1239 C1238 1.388 . S
C1239 C1240 1.390 . S
C1240 C1239 1.390 . S
C1240 C1241 1.394 . S
C1240 C1246 1.465 . S
C1241 C1236 1.399 . S
C1241 C1240 1.394 . S
C1241 C1242 1.516 . S
C1242 C1241 1.516 . S
C1242 C1243 1.502 . S
C1242 C1244 1.561 . S
C1242 C1245 1.526 . S
C1243 H1227 0.959 . S
C1243 H1228 0.959 . S
C1243 H1229 0.961 . S
C1243 C1242 1.502 . S
C1244 H1230 0.960 . S
C1244 H1231 0.961 . S
C1244 H1232 0.959 . S
C1244 C1242 1.561 . S
C1245 C1242 1.526 . S
C1245 C1246 1.396 . S
C1245 C1250 1.390 . S
C1246 C1240 1.465 . S
C1246 C1245 1.396 . S
C1246 C1247 1.399 . S
C1247 H1233 0.929 . S
C1247 C1246 1.399 . S
C1247 C1248 1.385 . S
C1248 H1234 0.931 . S
C1248 C1247 1.385 . S
C1248 C1249 1.389 . S
C1249 C1248 1.389 . S
C1249 C1250 1.387 . S
C1250 H1235 0.930 . S
C1250 C1245 1.390 . S
C1250 C1249 1.387 . S
H1251 C1263 0.930 . S
H1252 C1265 0.930 . S
H1253 C1266 0.930 . S
H1254 C1270 0.959 . S
H1255 C1270 0.959 . S
H1256 C1270 0.961 . S
H1257 C1271 0.960 . S
H1258 C1271 0.961 . S
H1259 C1271 0.959 . S
H1260 C1274 0.929 . S
H1261 C1275 0.931 1_554 S
H1262 C1277 0.930 . S
C1263 H1251 0.930 . S
C1263 C1264 1.399 . S
C1263 C1268 1.399 . S
C1264 C1263 1.399 . S
C1264 C1265 1.376 . S
C1265 H1252 0.930 . S
C1265 C1264 1.376 . S
C1265 C1266 1.388 . S
C1266 H1253 0.930 . S
C1266 C1265 1.388 . S
C1266 C1267 1.390 . S
C1267 C1266 1.390 . S
C1267 C1268 1.394 . S
C1267 C1273 1.465 . S
C1268 C1263 1.399 . S
C1268 C1267 1.394 . S
C1268 C1269 1.516 . S
C1269 C1268 1.516 . S
C1269 C1270 1.502 . S
C1269 C1271 1.561 . S
C1269 C1272 1.526 . S
C1270 H1254 0.959 . S
C1270 H1255 0.959 . S
C1270 H1256 0.961 . S
C1270 C1269 1.502 . S
C1271 H1257 0.960 . S
C1271 H1258 0.961 . S
C1271 H1259 0.959 . S
C1271 C1269 1.561 . S
C1272 C1269 1.526 . S
C1272 C1273 1.396 . S
C1272 C1277 1.390 . S
C1273 C1267 1.465 . S
C1273 C1272 1.396 . S
C1273 C1274 1.399 . S
C1274 H1260 0.929 . S
C1274 C1273 1.399 . S
C1274 C1275 1.385 . S
C1275 H1261 0.931 1_556 S
C1275 C1274 1.385 . S
C1275 C1276 1.389 . S
C1276 C1275 1.389 . S
C1276 C1277 1.387 . S
C1277 H1262 0.930 . S
C1277 C1272 1.390 . S
C1277 C1276 1.387 . S
H1278 C1290 0.930 . S
H1279 C1292 0.930 . S
H1280 C1293 0.930 . S
H1281 C1297 0.959 . S
H1282 C1297 0.959 . S
H1283 C1297 0.961 . S
H1284 C1298 0.960 1_455 S
H1285 C1298 0.961 . S
H1286 C1298 0.959 1_455 S
H1287 C1301 0.931 1_455 S
H1288 C1302 0.931 . S
H1289 C1304 0.930 . S
C1290 H1278 0.930 . S
C1290 C1291 1.399 . S
C1290 C1295 1.399 . S
C1291 C1290 1.399 . S
C1291 C1292 1.376 . S
C1292 H1279 0.930 . S
C1292 C1291 1.376 . S
C1292 C1293 1.388 . S
C1293 H1280 0.930 . S
C1293 C1292 1.388 . S
C1293 C1294 1.390 . S
C1294 C1293 1.390 . S
C1294 C1295 1.394 . S
C1294 C1300 1.464 . S
C1295 C1290 1.399 . S
C1295 C1294 1.394 . S
C1295 C1296 1.516 1_455 S
C1296 C1295 1.516 1_655 S
C1296 C1297 1.502 . S
C1296 C1298 1.561 . S
C1296 C1299 1.526 . S
C1297 H1281 0.959 . S
C1297 H1282 0.959 . S
C1297 H1283 0.961 . S
C1297 C1296 1.502 . S
C1298 H1284 0.960 1_655 S
C1298 H1285 0.961 . S
C1298 H1286 0.959 1_655 S
C1298 C1296 1.561 . S
C1299 C1296 1.526 . S
C1299 C1300 1.397 1_655 S
C1299 C1304 1.390 . S
C1300 C1294 1.464 . S
C1300 C1299 1.397 1_455 S
C1300 C1301 1.402 1_455 S
C1301 H1287 0.931 1_655 S
C1301 C1300 1.402 1_655 S
C1301 C1302 1.381 . S
C1302 H1288 0.931 . S
C1302 C1301 1.381 . S
C1302 C1303 1.389 . S
C1303 C1302 1.389 . S
C1303 C1304 1.387 . S
C1304 H1289 0.930 . S
C1304 C1299 1.390 . S
C1304 C1303 1.387 . S
H1305 C1317 0.930 . S
H1306 C1319 0.930 . S
H1307 C1320 0.930 . S
H1308 C1324 0.959 . S
H1309 C1324 0.959 . S
H1310 C1324 0.961 . S
H1311 C1325 0.960 . S
H1312 C1325 0.961 . S
H1313 C1325 0.959 . S
H1314 C1328 0.929 . S
H1315 C1329 0.931 . S
H1316 C1331 0.930 . S
C1317 H1305 0.930 . S
C1317 C1318 1.399 . S
C1317 C1322 1.399 . S
C1318 C1317 1.399 . S
C1318 C1319 1.376 . S
C1319 H1306 0.930 . S
C1319 C1318 1.376 . S
C1319 C1320 1.388 . S
C1320 H1307 0.930 . S
C1320 C1319 1.388 . S
C1320 C1321 1.390 . S
C1321 C1320 1.390 . S
C1321 C1322 1.394 . S
C1321 C1327 1.465 . S
C1322 C1317 1.399 . S
C1322 C1321 1.394 . S
C1322 C1323 1.516 . S
C1323 C1322 1.516 . S
C1323 C1324 1.502 . S
C1323 C1325 1.561 . S
C1323 C1326 1.526 . S
C1324 H1308 0.959 . S
C1324 H1309 0.959 . S
C1324 H1310 0.961 . S
C1324 C1323 1.502 . S
C1325 H1311 0.960 . S
C1325 H1312 0.961 . S
C1325 H1313 0.959 . S
C1325 C1323 1.561 . S
C1326 C1323 1.526 . S
C1326 C1327 1.396 . S
C1326 C1331 1.390 . S
C1327 C1321 1.465 . S
C1327 C1326 1.396 . S
C1327 C1328 1.399 . S
C1328 H1314 0.929 . S
C1328 C1327 1.399 . S
C1328 C1329 1.385 . S
C1329 H1315 0.931 . S
C1329 C1328 1.385 . S
C1329 C1330 1.389 . S
C1330 C1329 1.389 . S
C1330 C1331 1.387 . S
C1331 H1316 0.930 . S
C1331 C1326 1.390 . S
C1331 C1330 1.387 . S
H1332 C1344 0.930 . S
H1333 C1346 0.930 . S
H1334 C1347 0.930 . S
H1335 C1351 0.959 . S
H1336 C1351 0.959 1_565 S
H1337 C1351 0.961 . S
H1338 C1352 0.960 . S
H1339 C1352 0.961 . S
H1340 C1352 0.959 . S
H1341 C1355 0.929 . S
H1342 C1356 0.931 . S
H1343 C1358 0.930 . S
C1344 H1332 0.930 . S
C1344 C1345 1.399 . S
C1344 C1349 1.399 . S
C1345 C1344 1.399 . S
C1345 C1346 1.376 . S
C1346 H1333 0.930 . S
C1346 C1345 1.376 . S
C1346 C1347 1.388 . S
C1347 H1334 0.930 . S
C1347 C1346 1.388 . S
C1347 C1348 1.390 . S
C1348 C1347 1.390 . S
C1348 C1349 1.394 . S
C1348 C1354 1.465 1_545 S
C1349 C1344 1.399 . S
C1349 C1348 1.394 . S
C1349 C1350 1.516 1_545 S
C1350 C1349 1.516 1_565 S
C1350 C1351 1.502 1_565 S
C1350 C1352 1.561 . S
C1350 C1353 1.526 . S
C1351 H1335 0.959 . S
C1351 H1336 0.959 1_545 S
C1351 H1337 0.961 . S
C1351 C1350 1.502 1_545 S
C1352 H1338 0.960 . S
C1352 H1339 0.961 . S
C1352 H1340 0.959 . S
C1352 C1350 1.561 . S
C1353 C1350 1.526 . S
C1353 C1354 1.396 . S
C1353 C1358 1.390 . S
C1354 C1348 1.465 1_565 S
C1354 C1353 1.396 . S
C1354 C1355 1.399 . S
C1355 H1341 0.929 . S
C1355 C1354 1.399 . S
C1355 C1356 1.385 . S
C1356 H1342 0.931 . S
C1356 C1355 1.385 . S
C1356 C1357 1.389 . S
C1357 C1356 1.389 . S
C1357 C1358 1.387 . S
C1358 H1343 0.930 . S
C1358 C1353 1.390 . S
C1358 C1357 1.387 . S
H1359 C1371 0.930 . S
H1360 C1373 0.930 . S
H1361 C1374 0.930 . S
H1362 C1378 0.959 . S
H1363 C1378 0.959 . S
H1364 C1378 0.961 . S
H1365 C1379 0.960 . S
H1366 C1379 0.961 . S
H1367 C1379 0.959 . S
H1368 C1382 0.929 . S
H1369 C1383 0.931 . S
H1370 C1385 0.930 . S
C1371 H1359 0.930 . S
C1371 C1372 1.399 . S
C1371 C1376 1.399 . S
C1372 C1371 1.399 . S
C1372 C1373 1.376 . S
C1373 H1360 0.930 . S
C1373 C1372 1.376 . S
C1373 C1374 1.388 1_565 S
C1374 H1361 0.930 . S
C1374 C1373 1.388 1_545 S
C1374 C1375 1.390 . S
C1375 C1374 1.390 . S
C1375 C1376 1.394 1_545 S
C1375 C1381 1.465 . S
C1376 C1371 1.399 . S
C1376 C1375 1.394 1_565 S
C1376 C1377 1.516 . S
C1377 C1376 1.516 . S
C1377 C1378 1.502 . S
C1377 C1379 1.561 . S
C1377 C1380 1.526 1_565 S
C1378 H1362 0.959 . S
C1378 H1363 0.959 . S
C1378 H1364 0.961 . S
C1378 C1377 1.502 . S
C1379 H1365 0.960 . S
C1379 H1366 0.961 . S
C1379 H1367 0.959 . S
C1379 C1377 1.561 . S
C1380 C1377 1.526 1_545 S
C1380 C1381 1.396 . S
C1380 C1385 1.390 . S
C1381 C1375 1.465 . S
C1381 C1380 1.396 . S
C1381 C1382 1.399 . S
C1382 H1368 0.929 . S
C1382 C1381 1.399 . S
C1382 C1383 1.385 . S
C1383 H1369 0.931 . S
C1383 C1382 1.385 . S
C1383 C1384 1.389 . S
C1384 C1383 1.389 . S
C1384 C1385 1.387 . S
C1385 H1370 0.930 . S
C1385 C1380 1.390 . S
C1385 C1384 1.387 . S
H1386 C1398 0.930 . S
H1387 C1400 0.930 . S
H1388 C1401 0.930 . S
H1389 C1405 0.959 . S
H1390 C1405 0.959 1_455 S
H1391 C1405 0.961 . S
H1392 C1406 0.960 . S
H1393 C1406 0.961 . S
H1394 C1406 0.959 . S
H1395 C1409 0.929 . S
H1396 C1410 0.931 . S
H1397 C1412 0.930 . S
C1398 H1386 0.930 . S
C1398 C1399 1.399 . S
C1398 C1403 1.399 . S
C1399 C1398 1.399 . S
C1399 C1400 1.376 . S
C1400 H1387 0.930 . S
C1400 C1399 1.376 . S
C1400 C1401 1.388 . S
C1401 H1388 0.930 . S
C1401 C1400 1.388 . S
C1401 C1402 1.390 . S
C1402 C1401 1.390 . S
C1402 C1403 1.394 . S
C1402 C1408 1.465 1_655 S
C1403 C1398 1.399 . S
C1403 C1402 1.394 . S
C1403 C1404 1.516 1_655 S
C1404 C1403 1.516 1_455 S
C1404 C1405 1.502 1_455 S
C1404 C1406 1.561 . S
C1404 C1407 1.526 . S
C1405 H1389 0.959 . S
C1405 H1390 0.959 1_655 S
C1405 H1391 0.961 . S
C1405 C1404 1.502 1_655 S
C1406 H1392 0.960 . S
C1406 H1393 0.961 . S
C1406 H1394 0.959 . S
C1406 C1404 1.561 . S
C1407 C1404 1.526 . S
C1407 C1408 1.396 . S
C1407 C1412 1.390 . S
C1408 C1402 1.465 1_455 S
C1408 C1407 1.396 . S
C1408 C1409 1.399 . S
C1409 H1395 0.929 . S
C1409 C1408 1.399 . S
C1409 C1410 1.385 . S
C1410 H1396 0.931 . S
C1410 C1409 1.385 . S
C1410 C1411 1.389 . S
C1411 C1410 1.389 . S
C1411 C1412 1.387 . S
C1412 H1397 0.930 . S
C1412 C1407 1.390 . S
C1412 C1411 1.387 . S
H1413 C1425 0.930 . S
H1414 C1427 0.930 . S
H1415 C1428 0.930 . S
H1416 C1432 0.959 . S
H1417 C1432 0.959 . S
H1418 C1432 0.961 . S
H1419 C1433 0.960 . S
H1420 C1433 0.961 . S
H1421 C1433 0.959 . S
H1422 C1436 0.929 . S
H1423 C1437 0.931 . S
H1424 C1439 0.930 . S
C1425 H1413 0.930 . S
C1425 C1426 1.399 . S
C1425 C1430 1.399 . S
C1426 C1425 1.399 . S
C1426 C1427 1.376 . S
C1427 H1414 0.930 . S
C1427 C1426 1.376 . S
C1427 C1428 1.388 . S
C1428 H1415 0.930 . S
C1428 C1427 1.388 . S
C1428 C1429 1.390 . S
C1429 C1428 1.390 . S
C1429 C1430 1.394 . S
C1429 C1435 1.465 . S
C1430 C1425 1.399 . S
C1430 C1429 1.394 . S
C1430 C1431 1.516 . S
C1431 C1430 1.516 . S
C1431 C1432 1.502 . S
C1431 C1433 1.561 . S
C1431 C1434 1.526 . S
C1432 H1416 0.959 . S
C1432 H1417 0.959 . S
C1432 H1418 0.961 . S
C1432 C1431 1.502 . S
C1433 H1419 0.960 . S
C1433 H1420 0.961 . S
C1433 H1421 0.959 . S
C1433 C1431 1.561 . S
C1434 C1431 1.526 . S
C1434 C1435 1.396 . S
C1434 C1439 1.390 . S
C1435 C1429 1.465 . S
C1435 C1434 1.396 . S
C1435 C1436 1.399 . S
C1436 H1422 0.929 . S
C1436 C1435 1.399 . S
C1436 C1437 1.385 . S
C1437 H1423 0.931 . S
C1437 C1436 1.385 . S
C1437 C1438 1.389 . S
C1438 C1437 1.389 . S
C1438 C1439 1.387 . S
C1439 H1424 0.930 . S
C1439 C1434 1.390 . S
C1439 C1438 1.387 . S
H1440 C1452 0.930 . S
H1441 C1454 0.930 . S
H1442 C1455 0.930 . S
H1443 C1459 0.959 . S
H1444 C1459 0.959 . S
H1445 C1459 0.961 . S
H1446 C1460 0.960 . S
H1447 C1460 0.961 . S
H1448 C1460 0.959 . S
H1449 C1463 0.929 . S
H1450 C1464 0.931 . S
H1451 C1466 0.930 . S
C1452 H1440 0.930 . S
C1452 C1453 1.399 . S
C1452 C1457 1.399 . S
C1453 C1452 1.399 . S
C1453 C1454 1.376 . S
C1454 H1441 0.930 . S
C1454 C1453 1.376 . S
C1454 C1455 1.388 . S
C1455 H1442 0.930 . S
C1455 C1454 1.388 . S
C1455 C1456 1.390 . S
C1456 C1455 1.390 . S
C1456 C1457 1.394 . S
C1456 C1462 1.465 . S
C1457 C1452 1.399 . S
C1457 C1456 1.394 . S
C1457 C1458 1.516 . S
C1458 C1457 1.516 . S
C1458 C1459 1.502 . S
C1458 C1460 1.561 . S
C1458 C1461 1.526 . S
C1459 H1443 0.959 . S
C1459 H1444 0.959 . S
C1459 H1445 0.961 . S
C1459 C1458 1.502 . S
C1460 H1446 0.960 . S
C1460 H1447 0.961 . S
C1460 H1448 0.959 . S
C1460 C1458 1.561 . S
C1461 C1458 1.526 . S
C1461 C1462 1.396 . S
C1461 C1466 1.390 . S
C1462 C1456 1.465 . S
C1462 C1461 1.396 . S
C1462 C1463 1.399 . S
C1463 H1449 0.929 . S
C1463 C1462 1.399 . S
C1463 C1464 1.385 . S
C1464 H1450 0.931 . S
C1464 C1463 1.385 . S
C1464 C1465 1.389 . S
C1465 C1464 1.389 . S
C1465 C1466 1.387 . S
C1466 H1451 0.930 . S
C1466 C1461 1.390 . S
C1466 C1465 1.387 . S
H1467 C1479 0.930 . S
H1468 C1481 0.930 . S
H1469 C1482 0.930 . S
H1470 C1486 0.959 . S
H1471 C1486 0.959 . S
H1472 C1486 0.961 . S
H1473 C1487 0.960 . S
H1474 C1487 0.961 . S
H1475 C1487 0.959 . S
H1476 C1490 0.929 . S
H1477 C1491 0.931 . S
H1478 C1493 0.930 . S
C1479 H1467 0.930 . S
C1479 C1480 1.399 . S
C1479 C1484 1.399 . S
C1480 C1479 1.399 . S
C1480 C1481 1.376 . S
C1481 H1468 0.930 . S
C1481 C1480 1.376 . S
C1481 C1482 1.388 . S
C1482 H1469 0.930 . S
C1482 C1481 1.388 . S
C1482 C1483 1.390 . S
C1483 C1482 1.390 . S
C1483 C1484 1.394 . S
C1483 C1489 1.465 . S
C1484 C1479 1.399 . S
C1484 C1483 1.394 . S
C1484 C1485 1.516 . S
C1485 C1484 1.516 . S
C1485 C1486 1.502 . S
C1485 C1487 1.561 . S
C1485 C1488 1.526 . S
C1486 H1470 0.959 . S
C1486 H1471 0.959 . S
C1486 H1472 0.961 . S
C1486 C1485 1.502 . S
C1487 H1473 0.960 . S
C1487 H1474 0.961 . S
C1487 H1475 0.959 . S
C1487 C1485 1.561 . S
C1488 C1485 1.526 . S
C1488 C1489 1.396 . S
C1488 C1493 1.390 . S
C1489 C1483 1.465 . S
C1489 C1488 1.396 . S
C1489 C1490 1.399 . S
C1490 H1476 0.929 . S
C1490 C1489 1.399 . S
C1490 C1491 1.385 . S
C1491 H1477 0.931 . S
C1491 C1490 1.385 . S
C1491 C1492 1.389 . S
C1492 C1491 1.389 . S
C1492 C1493 1.387 . S
C1493 H1478 0.930 . S
C1493 C1488 1.390 . S
C1493 C1492 1.387 . S
H1494 C1506 0.930 . S
H1495 C1508 0.930 . S
H1496 C1509 0.930 . S
H1497 C1513 0.959 . S
H1498 C1513 0.959 . S
H1499 C1513 0.961 . S
H1500 C1514 0.960 . S
H1501 C1514 0.961 . S
H1502 C1514 0.959 . S
H1503 C1517 0.929 . S
H1504 C1518 0.931 . S
H1505 C1520 0.930 . S
C1506 H1494 0.930 . S
C1506 C1507 1.399 . S
C1506 C1511 1.399 . S
C1507 C1506 1.399 . S
C1507 C1508 1.376 . S
C1508 H1495 0.930 . S
C1508 C1507 1.376 . S
C1508 C1509 1.388 . S
C1509 H1496 0.930 . S
C1509 C1508 1.388 . S
C1509 C1510 1.390 . S
C1510 C1509 1.390 . S
C1510 C1511 1.394 . S
C1510 C1516 1.465 . S
C1511 C1506 1.399 . S
C1511 C1510 1.394 . S
C1511 C1512 1.516 . S
C1512 C1511 1.516 . S
C1512 C1513 1.502 . S
C1512 C1514 1.561 . S
C1512 C1515 1.526 . S
C1513 H1497 0.959 . S
C1513 H1498 0.959 . S
C1513 H1499 0.961 . S
C1513 C1512 1.502 . S
C1514 H1500 0.960 . S
C1514 H1501 0.961 . S
C1514 H1502 0.959 . S
C1514 C1512 1.561 . S
C1515 C1512 1.526 . S
C1515 C1516 1.396 . S
C1515 C1520 1.390 . S
C1516 C1510 1.465 . S
C1516 C1515 1.396 . S
C1516 C1517 1.399 . S
C1517 H1503 0.929 . S
C1517 C1516 1.399 . S
C1517 C1518 1.385 . S
C1518 H1504 0.931 . S
C1518 C1517 1.385 . S
C1518 C1519 1.389 . S
C1519 C1518 1.389 . S
C1519 C1520 1.387 . S
C1520 H1505 0.930 . S
C1520 C1515 1.390 . S
C1520 C1519 1.387 . S
H1521 C1533 0.930 . S
H1522 C1535 0.930 . S
H1523 C1536 0.930 . S
H1524 C1540 0.959 . S
H1525 C1540 0.959 . S
H1526 C1540 0.961 . S
H1527 C1541 0.960 . S
H1528 C1541 0.961 . S
H1529 C1541 0.959 . S
H1530 C1544 0.929 . S
H1531 C1545 0.931 . S
H1532 C1547 0.930 . S
C1533 H1521 0.930 . S
C1533 C1534 1.399 . S
C1533 C1538 1.399 . S
C1534 C1533 1.399 . S
C1534 C1535 1.376 . S
C1535 H1522 0.930 . S
C1535 C1534 1.376 . S
C1535 C1536 1.388 . S
C1536 H1523 0.930 . S
C1536 C1535 1.388 . S
C1536 C1537 1.390 . S
C1537 C1536 1.390 . S
C1537 C1538 1.394 . S
C1537 C1543 1.465 . S
C1538 C1533 1.399 . S
C1538 C1537 1.394 . S
C1538 C1539 1.516 . S
C1539 C1538 1.516 . S
C1539 C1540 1.502 . S
C1539 C1541 1.561 . S
C1539 C1542 1.526 . S
C1540 H1524 0.959 . S
C1540 H1525 0.959 . S
C1540 H1526 0.961 . S
C1540 C1539 1.502 . S
C1541 H1527 0.960 . S
C1541 H1528 0.961 . S
C1541 H1529 0.959 . S
C1541 C1539 1.561 . S
C1542 C1539 1.526 . S
C1542 C1543 1.396 . S
C1542 C1547 1.390 . S
C1543 C1537 1.465 . S
C1543 C1542 1.396 . S
C1543 C1544 1.399 . S
C1544 H1530 0.929 . S
C1544 C1543 1.399 . S
C1544 C1545 1.385 . S
C1545 H1531 0.931 . S
C1545 C1544 1.385 . S
C1545 C1546 1.389 . S
C1546 C1545 1.389 . S
C1546 C1547 1.387 . S
C1547 H1532 0.930 . S
C1547 C1542 1.390 . S
C1547 C1546 1.387 . S
H1548 C1560 0.930 . S
H1549 C1562 0.930 . S
H1550 C1563 0.930 . S
H1551 C1567 0.959 . S
H1552 C1567 0.959 . S
H1553 C1567 0.961 . S
H1554 C1568 0.960 . S
H1555 C1568 0.961 . S
H1556 C1568 0.959 . S
H1557 C1571 0.929 . S
H1558 C1572 0.931 . S
H1559 C1574 0.930 . S
C1560 H1548 0.930 . S
C1560 C1561 1.399 . S
C1560 C1565 1.399 . S
C1561 C1560 1.399 . S
C1561 C1562 1.376 . S
C1562 H1549 0.930 . S
C1562 C1561 1.376 . S
C1562 C1563 1.388 . S
C1563 H1550 0.930 . S
C1563 C1562 1.388 . S
C1563 C1564 1.390 . S
C1564 C1563 1.390 . S
C1564 C1565 1.394 . S
C1564 C1570 1.465 . S
C1565 C1560 1.399 . S
C1565 C1564 1.394 . S
C1565 C1566 1.516 . S
C1566 C1565 1.516 . S
C1566 C1567 1.502 . S
C1566 C1568 1.561 . S
C1566 C1569 1.526 . S
C1567 H1551 0.959 . S
C1567 H1552 0.959 . S
C1567 H1553 0.961 . S
C1567 C1566 1.502 . S
C1568 H1554 0.960 . S
C1568 H1555 0.961 . S
C1568 H1556 0.959 . S
C1568 C1566 1.561 . S
C1569 C1566 1.526 . S
C1569 C1570 1.396 . S
C1569 C1574 1.390 . S
C1570 C1564 1.465 . S
C1570 C1569 1.396 . S
C1570 C1571 1.399 . S
C1571 H1557 0.929 . S
C1571 C1570 1.399 . S
C1571 C1572 1.385 . S
C1572 H1558 0.931 . S
C1572 C1571 1.385 . S
C1572 C1573 1.389 . S
C1573 C1572 1.389 . S
C1573 C1574 1.387 . S
C1574 H1559 0.930 . S
C1574 C1569 1.390 . S
C1574 C1573 1.387 . S
H1575 C1587 0.930 . S
H1576 C1589 0.930 . S
H1577 C1590 0.930 . S
H1578 C1594 0.959 . S
H1579 C1594 0.959 . S
H1580 C1594 0.961 . S
H1581 C1595 0.960 . S
H1582 C1595 0.961 . S
H1583 C1595 0.959 . S
H1584 C1598 0.929 . S
H1585 C1599 0.931 . S
H1586 C1601 0.930 . S
C1587 H1575 0.930 . S
C1587 C1588 1.399 . S
C1587 C1592 1.399 . S
C1588 C1587 1.399 . S
C1588 C1589 1.376 . S
C1589 H1576 0.930 . S
C1589 C1588 1.376 . S
C1589 C1590 1.388 . S
C1590 H1577 0.930 . S
C1590 C1589 1.388 . S
C1590 C1591 1.390 . S
C1591 C1590 1.390 . S
C1591 C1592 1.394 . S
C1591 C1597 1.465 . S
C1592 C1587 1.399 . S
C1592 C1591 1.394 . S
C1592 C1593 1.516 . S
C1593 C1592 1.516 . S
C1593 C1594 1.502 . S
C1593 C1595 1.561 . S
C1593 C1596 1.526 . S
C1594 H1578 0.959 . S
C1594 H1579 0.959 . S
C1594 H1580 0.961 . S
C1594 C1593 1.502 . S
C1595 H1581 0.960 . S
C1595 H1582 0.961 . S
C1595 H1583 0.959 . S
C1595 C1593 1.561 . S
C1596 C1593 1.526 . S
C1596 C1597 1.396 . S
C1596 C1601 1.390 . S
C1597 C1591 1.465 . S
C1597 C1596 1.396 . S
C1597 C1598 1.399 . S
C1598 H1584 0.929 . S
C1598 C1597 1.399 . S
C1598 C1599 1.385 . S
C1599 H1585 0.931 . S
C1599 C1598 1.385 . S
C1599 C1600 1.389 . S
C1600 C1599 1.389 . S
C1600 C1601 1.387 . S
C1601 H1586 0.930 . S
C1601 C1596 1.390 . S
C1601 C1600 1.387 . S
H1602 C1614 0.930 . S
H1603 C1616 0.930 . S
H1604 C1617 0.930 . S
H1605 C1621 0.959 . S
H1606 C1621 0.959 . S
H1607 C1621 0.961 . S
H1608 C1622 0.960 . S
H1609 C1622 0.961 . S
H1610 C1622 0.959 . S
H1611 C1625 0.929 . S
H1612 C1626 0.931 . S
H1613 C1628 0.930 . S
C1614 H1602 0.930 . S
C1614 C1615 1.399 . S
C1614 C1619 1.399 . S
C1615 C1614 1.399 . S
C1615 C1616 1.376 . S
C1616 H1603 0.930 . S
C1616 C1615 1.376 . S
C1616 C1617 1.388 . S
C1617 H1604 0.930 . S
C1617 C1616 1.388 . S
C1617 C1618 1.390 . S
C1618 C1617 1.390 . S
C1618 C1619 1.394 . S
C1618 C1624 1.465 . S
C1619 C1614 1.399 . S
C1619 C1618 1.394 . S
C1619 C1620 1.516 . S
C1620 C1619 1.516 . S
C1620 C1621 1.502 . S
C1620 C1622 1.561 . S
C1620 C1623 1.526 . S
C1621 H1605 0.959 . S
C1621 H1606 0.959 . S
C1621 H1607 0.961 . S
C1621 C1620 1.502 . S
C1622 H1608 0.960 . S
C1622 H1609 0.961 . S
C1622 H1610 0.959 . S
C1622 C1620 1.561 . S
C1623 C1620 1.526 . S
C1623 C1624 1.396 . S
C1623 C1628 1.390 . S
C1624 C1618 1.465 . S
C1624 C1623 1.396 . S
C1624 C1625 1.399 . S
C1625 H1611 0.929 . S
C1625 C1624 1.399 . S
C1625 C1626 1.385 . S
C1626 H1612 0.931 . S
C1626 C1625 1.385 . S
C1626 C1627 1.389 . S
C1627 C1626 1.389 . S
C1627 C1628 1.387 . S
C1628 H1613 0.930 . S
C1628 C1623 1.390 . S
C1628 C1627 1.387 . S
H1629 C1641 0.930 . S
H1630 C1643 0.930 . S
H1631 C1644 0.930 . S
H1632 C1648 0.959 . S
H1633 C1648 0.959 . S
H1634 C1648 0.961 . S
H1635 C1649 0.960 . S
H1636 C1649 0.961 . S
H1637 C1649 0.959 . S
H1638 C1652 0.929 . S
H1639 C1653 0.931 . S
H1640 C1655 0.930 . S
C1641 H1629 0.930 . S
C1641 C1642 1.399 . S
C1641 C1646 1.399 . S
C1642 C1641 1.399 . S
C1642 C1643 1.376 . S
C1643 H1630 0.930 . S
C1643 C1642 1.376 . S
C1643 C1644 1.388 . S
C1644 H1631 0.930 . S
C1644 C1643 1.388 . S
C1644 C1645 1.390 . S
C1645 C1644 1.390 . S
C1645 C1646 1.394 . S
C1645 C1651 1.465 . S
C1646 C1641 1.399 . S
C1646 C1645 1.394 . S
C1646 C1647 1.516 . S
C1647 C1646 1.516 . S
C1647 C1648 1.502 . S
C1647 C1649 1.561 . S
C1647 C1650 1.526 . S
C1648 H1632 0.959 . S
C1648 H1633 0.959 . S
C1648 H1634 0.961 . S
C1648 C1647 1.502 . S
C1649 H1635 0.960 . S
C1649 H1636 0.961 . S
C1649 H1637 0.959 . S
C1649 C1647 1.561 . S
C1650 C1647 1.526 . S
C1650 C1651 1.396 . S
C1650 C1655 1.390 . S
C1651 C1645 1.465 . S
C1651 C1650 1.396 . S
C1651 C1652 1.399 . S
C1652 H1638 0.929 . S
C1652 C1651 1.399 . S
C1652 C1653 1.385 . S
C1653 H1639 0.931 . S
C1653 C1652 1.385 . S
C1653 C1654 1.389 . S
C1654 C1653 1.389 . S
C1654 C1655 1.387 . S
C1655 H1640 0.930 . S
C1655 C1650 1.390 . S
C1655 C1654 1.387 . S
H1656 C1668 0.930 . S
H1657 C1670 0.930 . S
H1658 C1671 0.930 . S
H1659 C1675 0.959 . S
H1660 C1675 0.959 . S
H1661 C1675 0.961 . S
H1662 C1676 0.960 . S
H1663 C1676 0.961 . S
H1664 C1676 0.959 . S
H1665 C1679 0.929 . S
H1666 C1680 0.931 . S
H1667 C1682 0.930 . S
C1668 H1656 0.930 . S
C1668 C1669 1.399 . S
C1668 C1673 1.399 . S
C1669 C1668 1.399 . S
C1669 C1670 1.376 . S
C1670 H1657 0.930 . S
C1670 C1669 1.376 . S
C1670 C1671 1.388 . S
C1671 H1658 0.930 . S
C1671 C1670 1.388 . S
C1671 C1672 1.390 . S
C1672 C1671 1.390 . S
C1672 C1673 1.394 . S
C1672 C1678 1.465 . S
C1673 C1668 1.399 . S
C1673 C1672 1.394 . S
C1673 C1674 1.516 . S
C1674 C1673 1.516 . S
C1674 C1675 1.502 . S
C1674 C1676 1.561 . S
C1674 C1677 1.526 . S
C1675 H1659 0.959 . S
C1675 H1660 0.959 . S
C1675 H1661 0.961 . S
C1675 C1674 1.502 . S
C1676 H1662 0.960 . S
C1676 H1663 0.961 . S
C1676 H1664 0.959 . S
C1676 C1674 1.561 . S
C1677 C1674 1.526 . S
C1677 C1678 1.396 . S
C1677 C1682 1.390 . S
C1678 C1672 1.465 . S
C1678 C1677 1.396 . S
C1678 C1679 1.399 . S
C1679 H1665 0.929 . S
C1679 C1678 1.399 . S
C1679 C1680 1.385 . S
C1680 H1666 0.931 . S
C1680 C1679 1.385 . S
C1680 C1681 1.389 . S
C1681 C1680 1.389 . S
C1681 C1682 1.387 . S
C1682 H1667 0.930 . S
C1682 C1677 1.390 . S
C1682 C1681 1.387 . S
H1683 C1695 0.930 . S
H1684 C1697 0.930 . S
H1685 C1698 0.930 . S
H1686 C1702 0.959 . S
H1687 C1702 0.959 . S
H1688 C1702 0.961 . S
H1689 C1703 0.960 . S
H1690 C1703 0.961 . S
H1691 C1703 0.959 . S
H1692 C1706 0.929 . S
H1693 C1707 0.931 . S
H1694 C1709 0.930 . S
C1695 H1683 0.930 . S
C1695 C1696 1.399 . S
C1695 C1700 1.399 . S
C1696 C1695 1.399 . S
C1696 C1697 1.376 . S
C1697 H1684 0.930 . S
C1697 C1696 1.376 . S
C1697 C1698 1.388 . S
C1698 H1685 0.930 . S
C1698 C1697 1.388 . S
C1698 C1699 1.390 . S
C1699 C1698 1.390 . S
C1699 C1700 1.394 . S
C1699 C1705 1.465 . S
C1700 C1695 1.399 . S
C1700 C1699 1.394 . S
C1700 C1701 1.516 . S
C1701 C1700 1.516 . S
C1701 C1702 1.502 . S
C1701 C1703 1.561 . S
C1701 C1704 1.526 . S
C1702 H1686 0.959 . S
C1702 H1687 0.959 . S
C1702 H1688 0.961 . S
C1702 C1701 1.502 . S
C1703 H1689 0.960 . S
C1703 H1690 0.961 . S
C1703 H1691 0.959 . S
C1703 C1701 1.561 . S
C1704 C1701 1.526 . S
C1704 C1705 1.396 . S
C1704 C1709 1.390 . S
C1705 C1699 1.465 . S
C1705 C1704 1.396 . S
C1705 C1706 1.399 . S
C1706 H1692 0.929 . S
C1706 C1705 1.399 . S
C1706 C1707 1.385 . S
C1707 H1693 0.931 . S
C1707 C1706 1.385 . S
C1707 C1708 1.389 . S
C1708 C1707 1.389 . S
C1708 C1709 1.387 . S
C1709 H1694 0.930 . S
C1709 C1704 1.390 . S
C1709 C1708 1.387 . S
H1710 C1722 0.930 . S
H1711 C1724 0.930 . S
H1712 C1725 0.930 . S
H1713 C1729 0.959 . S
H1714 C1729 0.959 . S
H1715 C1729 0.961 . S
H1716 C1730 0.960 . S
H1717 C1730 0.961 . S
H1718 C1730 0.959 . S
H1719 C1733 0.929 . S
H1720 C1734 0.931 . S
H1721 C1736 0.930 . S
C1722 H1710 0.930 . S
C1722 C1723 1.399 . S
C1722 C1727 1.399 . S
C1723 C1722 1.399 . S
C1723 C1724 1.376 . S
C1724 H1711 0.930 . S
C1724 C1723 1.376 . S
C1724 C1725 1.388 . S
C1725 H1712 0.930 . S
C1725 C1724 1.388 . S
C1725 C1726 1.390 . S
C1726 C1725 1.390 . S
C1726 C1727 1.394 . S
C1726 C1732 1.465 . S
C1727 C1722 1.399 . S
C1727 C1726 1.394 . S
C1727 C1728 1.516 . S
C1728 C1727 1.516 . S
C1728 C1729 1.502 . S
C1728 C1730 1.561 . S
C1728 C1731 1.526 . S
C1729 H1713 0.959 . S
C1729 H1714 0.959 . S
C1729 H1715 0.961 . S
C1729 C1728 1.502 . S
C1730 H1716 0.960 . S
C1730 H1717 0.961 . S
C1730 H1718 0.959 . S
C1730 C1728 1.561 . S
C1731 C1728 1.526 . S
C1731 C1732 1.396 . S
C1731 C1736 1.390 . S
C1732 C1726 1.465 . S
C1732 C1731 1.396 . S
C1732 C1733 1.399 . S
C1733 H1719 0.929 . S
C1733 C1732 1.399 . S
C1733 C1734 1.385 . S
C1734 H1720 0.931 . S
C1734 C1733 1.385 . S
C1734 C1735 1.389 . S
C1735 C1734 1.389 . S
C1735 C1736 1.387 . S
C1736 H1721 0.930 . S
C1736 C1731 1.390 . S
C1736 C1735 1.387 . S
H1737 C1749 0.930 . S
H1738 C1751 0.930 . S
H1739 C1752 0.930 . S
H1740 C1756 0.959 . S
H1741 C1756 0.959 . S
H1742 C1756 0.961 . S
H1743 C1757 0.960 . S
H1744 C1757 0.961 . S
H1745 C1757 0.959 . S
H1746 C1760 0.929 . S
H1747 C1761 0.931 . S
H1748 C1763 0.930 . S
C1749 H1737 0.930 . S
C1749 C1750 1.399 . S
C1749 C1754 1.399 . S
C1750 C1749 1.399 . S
C1750 C1751 1.376 . S
C1751 H1738 0.930 . S
C1751 C1750 1.376 . S
C1751 C1752 1.388 . S
C1752 H1739 0.930 . S
C1752 C1751 1.388 . S
C1752 C1753 1.390 . S
C1753 C1752 1.390 . S
C1753 C1754 1.394 . S
C1753 C1759 1.465 . S
C1754 C1749 1.399 . S
C1754 C1753 1.394 . S
C1754 C1755 1.516 . S
C1755 C1754 1.516 . S
C1755 C1756 1.502 . S
C1755 C1757 1.561 . S
C1755 C1758 1.526 . S
C1756 H1740 0.959 . S
C1756 H1741 0.959 . S
C1756 H1742 0.961 . S
C1756 C1755 1.502 . S
C1757 H1743 0.960 . S
C1757 H1744 0.961 . S
C1757 H1745 0.959 . S
C1757 C1755 1.561 . S
C1758 C1755 1.526 . S
C1758 C1759 1.396 . S
C1758 C1763 1.390 . S
C1759 C1753 1.465 . S
C1759 C1758 1.396 . S
C1759 C1760 1.399 . S
C1760 H1746 0.929 . S
C1760 C1759 1.399 . S
C1760 C1761 1.385 . S
C1761 H1747 0.931 . S
C1761 C1760 1.385 . S
C1761 C1762 1.389 . S
C1762 C1761 1.389 . S
C1762 C1763 1.387 . S
C1763 H1748 0.930 . S
C1763 C1758 1.390 . S
C1763 C1762 1.387 . S
H1764 C1776 0.930 . S
H1765 C1778 0.930 . S
H1766 C1779 0.930 . S
H1767 C1783 0.959 . S
H1768 C1783 0.959 . S
H1769 C1783 0.961 . S
H1770 C1784 0.941 1_455 S
H1771 C1784 0.963 . S
H1772 C1784 0.975 . S
H1773 C1787 0.929 . S
H1774 C1788 0.931 . S
H1775 C1790 0.930 . S
C1776 H1764 0.930 . S
C1776 C1777 1.399 . S
C1776 C1781 1.399 . S
C1777 C1776 1.399 . S
C1777 C1778 1.376 . S
C1778 H1765 0.930 . S
C1778 C1777 1.376 . S
C1778 C1779 1.388 1_455 S
C1779 H1766 0.930 . S
C1779 C1778 1.388 1_655 S
C1779 C1780 1.390 . S
C1780 C1779 1.390 . S
C1780 C1781 1.394 1_655 S
C1780 C1786 1.465 . S
C1781 C1776 1.399 . S
C1781 C1780 1.394 1_455 S
C1781 C1782 1.516 . S
C1782 C1781 1.516 . S
C1782 C1783 1.502 . S
C1782 C1784 1.558 1_455 S
C1782 C1785 1.526 1_455 S
C1783 H1767 0.959 . S
C1783 H1768 0.959 . S
C1783 H1769 0.961 . S
C1783 C1782 1.502 . S
C1784 H1770 0.941 1_655 S
C1784 H1771 0.963 . S
C1784 H1772 0.975 . S
C1784 C1782 1.558 1_655 S
C1785 C1782 1.526 1_655 S
C1785 C1786 1.396 . S
C1785 C1790 1.390 . S
C1786 C1780 1.465 . S
C1786 C1785 1.396 . S
C1786 C1787 1.399 . S
C1787 H1773 0.929 . S
C1787 C1786 1.399 . S
C1787 C1788 1.385 . S
C1788 H1774 0.931 . S
C1788 C1787 1.385 . S
C1788 C1789 1.389 . S
C1789 C1788 1.389 . S
C1789 C1790 1.387 . S
C1790 H1775 0.930 . S
C1790 C1785 1.390 . S
C1790 C1789 1.387 . S
H1791 C1803 0.930 . S
H1792 C1805 0.930 . S
H1793 C1806 0.930 . S
H1794 C1810 0.959 . S
H1795 C1810 0.959 . S
H1796 C1810 0.961 . S
H1797 C1811 0.960 . S
H1798 C1811 0.961 . S
H1799 C1811 0.959 . S
H1800 C1814 0.929 . S
H1801 C1815 0.931 . S
H1802 C1817 0.930 . S
C1803 H1791 0.930 . S
C1803 C1804 1.399 . S
C1803 C1808 1.399 . S
C1804 C1803 1.399 . S
C1804 C1805 1.376 . S
C1805 H1792 0.930 . S
C1805 C1804 1.376 . S
C1805 C1806 1.388 . S
C1806 H1793 0.930 . S
C1806 C1805 1.388 . S
C1806 C1807 1.390 . S
C1807 C1806 1.390 . S
C1807 C1808 1.394 . S
C1807 C1813 1.465 . S
C1808 C1803 1.399 . S
C1808 C1807 1.394 . S
C1808 C1809 1.516 . S
C1809 C1808 1.516 . S
C1809 C1810 1.502 . S
C1809 C1811 1.561 . S
C1809 C1812 1.526 . S
C1810 H1794 0.959 . S
C1810 H1795 0.959 . S
C1810 H1796 0.961 . S
C1810 C1809 1.502 . S
C1811 H1797 0.960 . S
C1811 H1798 0.961 . S
C1811 H1799 0.959 . S
C1811 C1809 1.561 . S
C1812 C1809 1.526 . S
C1812 C1813 1.396 . S
C1812 C1817 1.390 . S
C1813 C1807 1.465 . S
C1813 C1812 1.396 . S
C1813 C1814 1.399 . S
C1814 H1800 0.929 . S
C1814 C1813 1.399 . S
C1814 C1815 1.385 . S
C1815 H1801 0.931 . S
C1815 C1814 1.385 . S
C1815 C1816 1.389 . S
C1816 C1815 1.389 . S
C1816 C1817 1.387 . S
C1817 H1802 0.930 . S
C1817 C1812 1.390 . S
C1817 C1816 1.387 . S
H1818 C1830 0.899 1_565 S
H1819 C1832 0.930 . S
H1820 C1833 0.930 . S
H1821 C1837 0.959 . S
H1822 C1837 0.959 . S
H1823 C1837 0.961 . S
H1824 C1838 0.960 . S
H1825 C1838 0.961 . S
H1826 C1838 0.959 . S
H1827 C1841 0.929 . S
H1828 C1842 0.939 . S
H1829 C1844 0.930 . S
C1830 H1818 0.899 1_545 S
C1830 C1831 1.399 . S
C1830 C1835 1.407 1_545 S
C1831 C1830 1.399 . S
C1831 C1832 1.376 . S
C1832 H1819 0.930 . S
C1832 C1831 1.376 . S
C1832 C1833 1.388 . S
C1833 H1820 0.930 . S
C1833 C1832 1.388 . S
C1833 C1834 1.390 . S
C1834 C1833 1.390 . S
C1834 C1835 1.373 1_545 S
C1834 C1840 1.458 . S
C1835 C1830 1.407 1_565 S
C1835 C1834 1.373 1_565 S
C1835 C1836 1.529 . S
C1836 C1835 1.529 . S
C1836 C1837 1.502 . S
C1836 C1838 1.561 . S
C1836 C1839 1.526 . S
C1837 H1821 0.959 . S
C1837 H1822 0.959 . S
C1837 H1823 0.961 . S
C1837 C1836 1.502 . S
C1838 H1824 0.960 . S
C1838 H1825 0.961 . S
C1838 H1826 0.959 . S
C1838 C1836 1.561 . S
C1839 C1836 1.526 . S
C1839 C1840 1.369 1_565 S
C1839 C1844 1.390 . S
C1840 C1834 1.458 . S
C1840 C1839 1.369 1_545 S
C1840 C1841 1.431 . S
C1841 H1827 0.929 . S
C1841 C1840 1.431 . S
C1841 C1842 1.385 1_545 S
C1842 H1828 0.939 . S
C1842 C1841 1.385 1_565 S
C1842 C1843 1.389 . S
C1843 C1842 1.389 . S
C1843 C1844 1.387 . S
C1844 H1829 0.930 . S
C1844 C1839 1.390 . S
C1844 C1843 1.387 . S
H1845 C1857 0.930 . S
H1846 C1859 0.930 . S
H1847 C1860 0.930 1_565 S
H1848 C1864 0.953 1_565 S
H1849 C1864 0.961 . S
H1850 C1864 0.967 . S
H1851 C1865 0.960 . S
H1852 C1865 0.961 . S
H1853 C1865 0.959 . S
H1854 C1868 0.929 . S
H1855 C1869 0.931 . S
H1856 C1871 0.930 1_556 S
C1857 H1845 0.930 . S
C1857 C1858 1.399 . S
C1857 C1862 1.399 . S
C1858 C1857 1.399 . S
C1858 C1859 1.376 1_556 S
C1859 H1846 0.930 . S
C1859 C1858 1.376 1_554 S
C1859 C1860 1.388 . S
C1860 H1847 0.930 1_545 S
C1860 C1859 1.388 . S
C1860 C1861 1.390 . S
C1861 C1860 1.390 . S
C1861 C1862 1.394 1_554 S
C1861 C1867 1.465 1_545 S
C1862 C1857 1.399 . S
C1862 C1861 1.394 1_556 S
C1862 C1863 1.516 . S
C1863 C1862 1.516 . S
C1863 C1864 1.507 . S
C1863 C1865 1.561 . S
C1863 C1866 1.527 1_545 S
C1864 H1848 0.953 1_545 S
C1864 H1849 0.961 . S
C1864 H1850 0.967 . S
C1864 C1863 1.507 . S
C1865 H1851 0.960 . S
C1865 H1852 0.961 . S
C1865 H1853 0.959 . S
C1865 C1863 1.561 . S
C1866 C1863 1.527 1_565 S
C1866 C1867 1.395 1_556 S
C1866 C1871 1.389 1_556 S
C1867 C1861 1.465 1_565 S
C1867 C1866 1.395 1_554 S
C1867 C1868 1.399 . S
C1868 H1854 0.929 . S
C1868 C1867 1.399 . S
C1868 C1869 1.385 . S
C1869 H1855 0.931 . S
C1869 C1868 1.385 . S
C1869 C1870 1.389 . S
C1870 C1869 1.389 . S
C1870 C1871 1.387 . S
C1871 H1856 0.930 1_554 S
C1871 C1866 1.389 1_554 S
C1871 C1870 1.387 . S
H1872 C1884 0.930 . S
H1873 C1886 0.930 . S
H1874 C1887 0.930 1_556 S
H1875 C1891 0.959 1_556 S
H1876 C1891 0.959 . S
H1877 C1891 0.961 . S
H1878 C1892 0.960 . S
H1879 C1892 0.961 . S
H1880 C1892 0.959 . S
H1881 C1895 0.929 . S
H1882 C1896 0.931 . S
H1883 C1898 0.930 1_455 S
C1884 H1872 0.930 . S
C1884 C1885 1.399 . S
C1884 C1889 1.399 . S
C1885 C1884 1.399 . S
C1885 C1886 1.376 1_455 S
C1886 H1873 0.930 . S
C1886 C1885 1.376 1_655 S
C1886 C1887 1.388 . S
C1887 H1874 0.930 1_554 S
C1887 C1886 1.388 . S
C1887 C1888 1.390 . S
C1888 C1887 1.390 . S
C1888 C1889 1.394 1_655 S
C1888 C1894 1.465 1_554 S
C1889 C1884 1.399 . S
C1889 C1888 1.394 1_455 S
C1889 C1890 1.516 . S
C1890 C1889 1.516 . S
C1890 C1891 1.502 . S
C1890 C1892 1.561 . S
C1890 C1893 1.535 1_554 S
C1891 H1875 0.959 1_554 S
C1891 H1876 0.959 . S
C1891 H1877 0.961 . S
C1891 C1890 1.502 . S
C1892 H1878 0.960 . S
C1892 H1879 0.961 . S
C1892 H1880 0.959 . S
C1892 C1890 1.561 . S
C1893 C1890 1.535 1_556 S
C1893 C1894 1.380 1_455 S
C1893 C1898 1.395 1_455 S
C1894 C1888 1.465 1_556 S
C1894 C1893 1.380 1_655 S
C1894 C1895 1.399 . S
C1895 H1881 0.929 . S
C1895 C1894 1.399 . S
C1895 C1896 1.385 . S
C1896 H1882 0.931 . S
C1896 C1895 1.385 . S
C1896 C1897 1.389 . S
C1897 C1896 1.389 . S
C1897 C1898 1.387 . S
C1898 H1883 0.930 1_655 S
C1898 C1893 1.395 1_655 S
C1898 C1897 1.387 . S
H1899 C1911 0.930 1_556 S
H1900 C1913 0.930 . S
H1901 C1914 0.930 . S
H1902 C1918 0.959 . S
H1903 C1918 0.959 . S
H1904 C1918 0.961 . S
H1905 C1919 0.960 . S
H1906 C1919 0.961 . S
H1907 C1919 0.959 . S
H1908 C1922 0.929 . S
H1909 C1923 0.931 . S
H1910 C1925 0.930 . S
C1911 H1899 0.930 1_554 S
C1911 C1912 1.399 . S
C1911 C1916 1.399 1_554 S
C1912 C1911 1.399 . S
C1912 C1913 1.376 . S
C1913 H1900 0.930 . S
C1913 C1912 1.376 . S
C1913 C1914 1.388 . S
C1914 H1901 0.930 . S
C1914 C1913 1.388 . S
C1914 C1915 1.390 . S
C1915 C1914 1.390 . S
C1915 C1916 1.394 1_554 S
C1915 C1921 1.465 . S
C1916 C1911 1.399 1_556 S
C1916 C1915 1.394 1_556 S
C1916 C1917 1.516 . S
C1917 C1916 1.516 . S
C1917 C1918 1.502 . S
C1917 C1919 1.561 . S
C1917 C1920 1.526 . S
C1918 H1902 0.959 . S
C1918 H1903 0.959 . S
C1918 H1904 0.961 . S
C1918 C1917 1.502 . S
C1919 H1905 0.960 . S
C1919 H1906 0.961 . S
C1919 H1907 0.959 . S
C1919 C1917 1.561 . S
C1920 C1917 1.526 . S
C1920 C1921 1.396 1_556 S
C1920 C1925 1.390 . S
C1921 C1915 1.465 . S
C1921 C1920 1.396 1_554 S
C1921 C1922 1.399 . S
C1922 H1908 0.929 . S
C1922 C1921 1.399 . S
C1922 C1923 1.385 . S
C1923 H1909 0.931 . S
C1923 C1922 1.385 . S
C1923 C1924 1.389 1_554 S
C1924 C1923 1.389 1_556 S
C1924 C1925 1.387 . S
C1925 H1910 0.930 . S
C1925 C1920 1.390 . S
C1925 C1924 1.387 . S
H1926 C1938 0.930 . S
H1927 C1940 0.930 . S
H1928 C1941 0.930 . S
H1929 C1945 0.959 . S
H1930 C1945 0.959 . S
H1931 C1945 0.961 . S
H1932 C1946 0.960 . S
H1933 C1946 0.961 . S
H1934 C1946 0.959 . S
H1935 C1949 0.929 . S
H1936 C1950 0.931 . S
H1937 C1952 0.930 . S
C1938 H1926 0.930 . S
C1938 C1939 1.399 . S
C1938 C1943 1.399 . S
C1939 C1938 1.399 . S
C1939 C1940 1.376 1_554 S
C1940 H1927 0.930 . S
C1940 C1939 1.376 1_556 S
C1940 C1941 1.388 1_556 S
C1941 H1928 0.930 . S
C1941 C1940 1.388 1_554 S
C1941 C1942 1.390 . S
C1942 C1941 1.390 . S
C1942 C1943 1.394 . S
C1942 C1948 1.465 . S
C1943 C1938 1.399 . S
C1943 C1942 1.394 . S
C1943 C1944 1.516 . S
C1944 C1943 1.516 . S
C1944 C1945 1.502 . S
C1944 C1946 1.561 . S
C1944 C1947 1.526 . S
C1945 H1929 0.959 . S
C1945 H1930 0.959 . S
C1945 H1931 0.961 . S
C1945 C1944 1.502 . S
C1946 H1932 0.960 . S
C1946 H1933 0.961 . S
C1946 H1934 0.959 . S
C1946 C1944 1.561 . S
C1947 C1944 1.526 . S
C1947 C1948 1.396 . S
C1947 C1952 1.390 . S
C1948 C1942 1.465 . S
C1948 C1947 1.396 . S
C1948 C1949 1.399 . S
C1949 H1935 0.929 . S
C1949 C1948 1.399 . S
C1949 C1950 1.385 . S
C1950 H1936 0.931 . S
C1950 C1949 1.385 . S
C1950 C1951 1.389 . S
C1951 C1950 1.389 . S
C1951 C1952 1.387 . S
C1952 H1937 0.930 . S
C1952 C1947 1.390 . S
C1952 C1951 1.387 . S
H1953 C1965 0.930 . S
H1954 C1967 0.930 . S
H1955 C1968 0.930 . S
H1956 C1972 0.959 . S
H1957 C1972 0.959 . S
H1958 C1972 0.961 . S
H1959 C1973 0.960 . S
H1960 C1973 0.961 . S
H1961 C1973 0.959 . S
H1962 C1976 0.929 . S
H1963 C1977 0.931 1_556 S
H1964 C1979 0.930 . S
C1965 H1953 0.930 . S
C1965 C1966 1.399 . S
C1965 C1970 1.399 . S
C1966 C1965 1.399 . S
C1966 C1967 1.376 . S
C1967 H1954 0.930 . S
C1967 C1966 1.376 . S
C1967 C1968 1.388 . S
C1968 H1955 0.930 . S
C1968 C1967 1.388 . S
C1968 C1969 1.390 . S
C1969 C1968 1.390 . S
C1969 C1970 1.394 . S
C1969 C1975 1.465 . S
C1970 C1965 1.399 . S
C1970 C1969 1.394 . S
C1970 C1971 1.516 . S
C1971 C1970 1.516 . S
C1971 C1972 1.502 . S
C1971 C1973 1.561 . S
C1971 C1974 1.526 . S
C1972 H1956 0.959 . S
C1972 H1957 0.959 . S
C1972 H1958 0.961 . S
C1972 C1971 1.502 . S
C1973 H1959 0.960 . S
C1973 H1960 0.961 . S
C1973 H1961 0.959 . S
C1973 C1971 1.561 . S
C1974 C1971 1.526 . S
C1974 C1975 1.396 . S
C1974 C1979 1.390 . S
C1975 C1969 1.465 . S
C1975 C1974 1.396 . S
C1975 C1976 1.399 . S
C1976 H1962 0.929 . S
C1976 C1975 1.399 . S
C1976 C1977 1.385 . S
C1977 H1963 0.931 1_554 S
C1977 C1976 1.385 . S
C1977 C1978 1.389 . S
C1978 C1977 1.389 . S
C1978 C1979 1.387 . S
C1979 H1964 0.930 . S
C1979 C1974 1.390 . S
C1979 C1978 1.387 . S
H1980 C1992 0.930 . S
H1981 C1994 0.930 . S
H1982 C1995 0.930 . S
H1983 C1999 0.959 . S
H1984 C1999 0.959 . S
H1985 C1999 0.961 . S
H1986 C2000 0.960 . S
H1987 C2000 0.961 . S
H1988 C2000 0.959 . S
H1989 C2003 0.929 . S
H1990 C2004 0.931 . S
H1991 C2006 0.930 . S
C1992 H1980 0.930 . S
C1992 C1993 1.399 . S
C1992 C1997 1.399 . S
C1993 C1992 1.399 . S
C1993 C1994 1.376 1_554 S
C1994 H1981 0.930 . S
C1994 C1993 1.376 1_556 S
C1994 C1995 1.388 1_556 S
C1995 H1982 0.930 . S
C1995 C1994 1.388 1_554 S
C1995 C1996 1.390 . S
C1996 C1995 1.390 . S
C1996 C1997 1.394 . S
C1996 C2002 1.465 . S
C1997 C1992 1.399 . S
C1997 C1996 1.394 . S
C1997 C1998 1.516 . S
C1998 C1997 1.516 . S
C1998 C1999 1.502 . S
C1998 C2000 1.561 . S
C1998 C2001 1.526 . S
C1999 H1983 0.959 . S
C1999 H1984 0.959 . S
C1999 H1985 0.961 . S
C1999 C1998 1.502 . S
C2000 H1986 0.960 . S
C2000 H1987 0.961 . S
C2000 H1988 0.959 . S
C2000 C1998 1.561 . S
C2001 C1998 1.526 . S
C2001 C2002 1.396 . S
C2001 C2006 1.390 . S
C2002 C1996 1.465 . S
C2002 C2001 1.396 . S
C2002 C2003 1.399 . S
C2003 H1989 0.929 . S
C2003 C2002 1.399 . S
C2003 C2004 1.385 . S
C2004 H1990 0.931 . S
C2004 C2003 1.385 . S
C2004 C2005 1.389 . S
C2005 C2004 1.389 . S
C2005 C2006 1.387 . S
C2006 H1991 0.930 . S
C2006 C2001 1.390 . S
C2006 C2005 1.387 . S
H2007 C2019 0.930 . S
H2008 C2021 0.930 . S
H2009 C2022 0.930 . S
H2010 C2026 0.959 . S
H2011 C2026 0.959 . S
H2012 C2026 0.961 . S
H2013 C2027 0.960 . S
H2014 C2027 0.961 . S
H2015 C2027 0.959 . S
H2016 C2030 0.929 . S
H2017 C2031 0.931 . S
H2018 C2033 0.930 . S
C2019 H2007 0.930 . S
C2019 C2020 1.399 . S
C2019 C2024 1.399 . S
C2020 C2019 1.399 . S
C2020 C2021 1.376 . S
C2021 H2008 0.930 . S
C2021 C2020 1.376 . S
C2021 C2022 1.388 . S
C2022 H2009 0.930 . S
C2022 C2021 1.388 . S
C2022 C2023 1.390 . S
C2023 C2022 1.390 . S
C2023 C2024 1.394 . S
C2023 C2029 1.465 . S
C2024 C2019 1.399 . S
C2024 C2023 1.394 . S
C2024 C2025 1.516 . S
C2025 C2024 1.516 . S
C2025 C2026 1.502 . S
C2025 C2027 1.561 . S
C2025 C2028 1.526 . S
C2026 H2010 0.959 . S
C2026 H2011 0.959 . S
C2026 H2012 0.961 . S
C2026 C2025 1.502 . S
C2027 H2013 0.960 . S
C2027 H2014 0.961 . S
C2027 H2015 0.959 . S
C2027 C2025 1.561 . S
C2028 C2025 1.526 . S
C2028 C2029 1.396 . S
C2028 C2033 1.390 . S
C2029 C2023 1.465 . S
C2029 C2028 1.396 . S
C2029 C2030 1.399 . S
C2030 H2016 0.929 . S
C2030 C2029 1.399 . S
C2030 C2031 1.385 . S
C2031 H2017 0.931 . S
C2031 C2030 1.385 . S
C2031 C2032 1.389 . S
C2032 C2031 1.389 . S
C2032 C2033 1.387 . S
C2033 H2018 0.930 . S
C2033 C2028 1.390 . S
C2033 C2032 1.387 . S
H2034 C2046 0.930 . S
H2035 C2048 0.930 . S
H2036 C2049 0.930 . S
H2037 C2053 0.959 . S
H2038 C2053 0.959 . S
H2039 C2053 0.961 . S
H2040 C2054 0.960 . S
H2041 C2054 0.961 . S
H2042 C2054 0.959 . S
H2043 C2057 0.929 . S
H2044 C2058 0.931 . S
H2045 C2060 0.930 . S
C2046 H2034 0.930 . S
C2046 C2047 1.399 . S
C2046 C2051 1.399 . S
C2047 C2046 1.399 . S
C2047 C2048 1.376 . S
C2048 H2035 0.930 . S
C2048 C2047 1.376 . S
C2048 C2049 1.388 . S
C2049 H2036 0.930 . S
C2049 C2048 1.388 . S
C2049 C2050 1.390 . S
C2050 C2049 1.390 . S
C2050 C2051 1.394 . S
C2050 C2056 1.465 . S
C2051 C2046 1.399 . S
C2051 C2050 1.394 . S
C2051 C2052 1.516 . S
C2052 C2051 1.516 . S
C2052 C2053 1.502 . S
C2052 C2054 1.561 . S
C2052 C2055 1.526 . S
C2053 H2037 0.959 . S
C2053 H2038 0.959 . S
C2053 H2039 0.961 . S
C2053 C2052 1.502 . S
C2054 H2040 0.960 . S
C2054 H2041 0.961 . S
C2054 H2042 0.959 . S
C2054 C2052 1.561 . S
C2055 C2052 1.526 . S
C2055 C2056 1.396 . S
C2055 C2060 1.390 . S
C2056 C2050 1.465 . S
C2056 C2055 1.396 . S
C2056 C2057 1.399 . S
C2057 H2043 0.929 . S
C2057 C2056 1.399 . S
C2057 C2058 1.385 . S
C2058 H2044 0.931 . S
C2058 C2057 1.385 . S
C2058 C2059 1.389 . S
C2059 C2058 1.389 . S
C2059 C2060 1.387 . S
C2060 H2045 0.930 . S
C2060 C2055 1.390 . S
C2060 C2059 1.387 . S
H2061 C2073 0.930 . S
H2062 C2075 0.930 . S
H2063 C2076 0.930 . S
H2064 C2080 0.959 . S
H2065 C2080 0.959 . S
H2066 C2080 0.961 . S
H2067 C2081 0.960 . S
H2068 C2081 0.961 . S
H2069 C2081 0.959 . S
H2070 C2084 0.929 . S
H2071 C2085 0.931 . S
H2072 C2087 0.930 . S
C2073 H2061 0.930 . S
C2073 C2074 1.399 . S
C2073 C2078 1.399 . S
C2074 C2073 1.399 . S
C2074 C2075 1.376 . S
C2075 H2062 0.930 . S
C2075 C2074 1.376 . S
C2075 C2076 1.388 . S
C2076 H2063 0.930 . S
C2076 C2075 1.388 . S
C2076 C2077 1.390 . S
C2077 C2076 1.390 . S
C2077 C2078 1.394 . S
C2077 C2083 1.465 . S
C2078 C2073 1.399 . S
C2078 C2077 1.394 . S
C2078 C2079 1.516 . S
C2079 C2078 1.516 . S
C2079 C2080 1.502 . S
C2079 C2081 1.561 . S
C2079 C2082 1.526 . S
C2080 H2064 0.959 . S
C2080 H2065 0.959 . S
C2080 H2066 0.961 . S
C2080 C2079 1.502 . S
C2081 H2067 0.960 . S
C2081 H2068 0.961 . S
C2081 H2069 0.959 . S
C2081 C2079 1.561 . S
C2082 C2079 1.526 . S
C2082 C2083 1.396 . S
C2082 C2087 1.390 . S
C2083 C2077 1.465 . S
C2083 C2082 1.396 . S
C2083 C2084 1.399 . S
C2084 H2070 0.929 . S
C2084 C2083 1.399 . S
C2084 C2085 1.385 . S
C2085 H2071 0.931 . S
C2085 C2084 1.385 . S
C2085 C2086 1.389 . S
C2086 C2085 1.389 . S
C2086 C2087 1.387 . S
C2087 H2072 0.930 . S
C2087 C2082 1.390 . S
C2087 C2086 1.387 . S
H2088 C2100 0.930 . S
H2089 C2102 0.930 . S
H2090 C2103 0.930 . S
H2091 C2107 0.959 . S
H2092 C2107 0.959 . S
H2093 C2107 0.961 . S
H2094 C2108 0.960 . S
H2095 C2108 0.961 . S
H2096 C2108 0.959 . S
H2097 C2111 0.929 . S
H2098 C2112 0.931 1_554 S
H2099 C2114 0.930 . S
C2100 H2088 0.930 . S
C2100 C2101 1.399 . S
C2100 C2105 1.399 . S
C2101 C2100 1.399 . S
C2101 C2102 1.376 . S
C2102 H2089 0.930 . S
C2102 C2101 1.376 . S
C2102 C2103 1.388 . S
C2103 H2090 0.930 . S
C2103 C2102 1.388 . S
C2103 C2104 1.390 . S
C2104 C2103 1.390 . S
C2104 C2105 1.394 . S
C2104 C2110 1.465 . S
C2105 C2100 1.399 . S
C2105 C2104 1.394 . S
C2105 C2106 1.516 . S
C2106 C2105 1.516 . S
C2106 C2107 1.502 . S
C2106 C2108 1.561 . S
C2106 C2109 1.526 . S
C2107 H2091 0.959 . S
C2107 H2092 0.959 . S
C2107 H2093 0.961 . S
C2107 C2106 1.502 . S
C2108 H2094 0.960 . S
C2108 H2095 0.961 . S
C2108 H2096 0.959 . S
C2108 C2106 1.561 . S
C2109 C2106 1.526 . S
C2109 C2110 1.396 . S
C2109 C2114 1.390 . S
C2110 C2104 1.465 . S
C2110 C2109 1.396 . S
C2110 C2111 1.399 . S
C2111 H2097 0.929 . S
C2111 C2110 1.399 . S
C2111 C2112 1.385 . S
C2112 H2098 0.931 1_556 S
C2112 C2111 1.385 . S
C2112 C2113 1.389 . S
C2113 C2112 1.389 . S
C2113 C2114 1.387 . S
C2114 H2099 0.930 . S
C2114 C2109 1.390 . S
C2114 C2113 1.387 . S
H2115 C2127 0.930 . S
H2116 C2129 0.930 . S
H2117 C2130 0.930 . S
H2118 C2134 0.959 . S
H2119 C2134 0.959 . S
H2120 C2134 0.961 . S
H2121 C2135 0.960 . S
H2122 C2135 0.961 . S
H2123 C2135 0.959 . S
H2124 C2138 0.929 . S
H2125 C2139 0.931 . S
H2126 C2141 0.930 . S
C2127 H2115 0.930 . S
C2127 C2128 1.399 . S
C2127 C2132 1.399 . S
C2128 C2127 1.399 . S
C2128 C2129 1.376 . S
C2129 H2116 0.930 . S
C2129 C2128 1.376 . S
C2129 C2130 1.388 . S
C2130 H2117 0.930 . S
C2130 C2129 1.388 . S
C2130 C2131 1.390 . S
C2131 C2130 1.390 . S
C2131 C2132 1.394 . S
C2131 C2137 1.465 . S
C2132 C2127 1.399 . S
C2132 C2131 1.394 . S
C2132 C2133 1.516 . S
C2133 C2132 1.516 . S
C2133 C2134 1.502 . S
C2133 C2135 1.561 . S
C2133 C2136 1.526 . S
C2134 H2118 0.959 . S
C2134 H2119 0.959 . S
C2134 H2120 0.961 . S
C2134 C2133 1.502 . S
C2135 H2121 0.960 . S
C2135 H2122 0.961 . S
C2135 H2123 0.959 . S
C2135 C2133 1.561 . S
C2136 C2133 1.526 . S
C2136 C2137 1.396 . S
C2136 C2141 1.390 . S
C2137 C2131 1.465 . S
C2137 C2136 1.396 . S
C2137 C2138 1.399 . S
C2138 H2124 0.929 . S
C2138 C2137 1.399 . S
C2138 C2139 1.385 . S
C2139 H2125 0.931 . S
C2139 C2138 1.385 . S
C2139 C2140 1.389 . S
C2140 C2139 1.389 . S
C2140 C2141 1.387 . S
C2141 H2126 0.930 . S
C2141 C2136 1.390 . S
C2141 C2140 1.387 . S
H2142 C2154 0.930 . S
H2143 C2156 0.930 . S
H2144 C2157 0.930 . S
H2145 C2161 0.959 . S
H2146 C2161 0.959 . S
H2147 C2161 0.961 . S
H2148 C2162 0.960 . S
H2149 C2162 0.961 . S
H2150 C2162 0.959 . S
H2151 C2165 0.929 . S
H2152 C2166 0.931 . S
H2153 C2168 0.930 . S
C2154 H2142 0.930 . S
C2154 C2155 1.399 . S
C2154 C2159 1.399 . S
C2155 C2154 1.399 . S
C2155 C2156 1.376 . S
C2156 H2143 0.930 . S
C2156 C2155 1.376 . S
C2156 C2157 1.388 . S
C2157 H2144 0.930 . S
C2157 C2156 1.388 . S
C2157 C2158 1.390 . S
C2158 C2157 1.390 . S
C2158 C2159 1.394 . S
C2158 C2164 1.465 . S
C2159 C2154 1.399 . S
C2159 C2158 1.394 . S
C2159 C2160 1.516 . S
C2160 C2159 1.516 . S
C2160 C2161 1.502 . S
C2160 C2162 1.561 . S
C2160 C2163 1.526 . S
C2161 H2145 0.959 . S
C2161 H2146 0.959 . S
C2161 H2147 0.961 . S
C2161 C2160 1.502 . S
C2162 H2148 0.960 . S
C2162 H2149 0.961 . S
C2162 H2150 0.959 . S
C2162 C2160 1.561 . S
C2163 C2160 1.526 . S
C2163 C2164 1.396 . S
C2163 C2168 1.390 . S
C2164 C2158 1.465 . S
C2164 C2163 1.396 . S
C2164 C2165 1.399 . S
C2165 H2151 0.929 . S
C2165 C2164 1.399 . S
C2165 C2166 1.385 . S
C2166 H2152 0.931 . S
C2166 C2165 1.385 . S
C2166 C2167 1.389 . S
C2167 C2166 1.389 . S
C2167 C2168 1.387 . S
C2168 H2153 0.930 . S
C2168 C2163 1.390 . S
C2168 C2167 1.387 . S
H2169 C2181 0.930 . S
H2170 C2183 0.930 . S
H2171 C2184 0.930 . S
H2172 C2188 0.959 . S
H2173 C2188 0.959 . S
H2174 C2188 0.961 . S
H2175 C2189 0.960 . S
H2176 C2189 0.961 . S
H2177 C2189 0.959 . S
H2178 C2192 0.929 . S
H2179 C2193 0.931 . S
H2180 C2195 0.930 . S
C2181 H2169 0.930 . S
C2181 C2182 1.399 . S
C2181 C2186 1.399 . S
C2182 C2181 1.399 . S
C2182 C2183 1.376 . S
C2183 H2170 0.930 . S
C2183 C2182 1.376 . S
C2183 C2184 1.388 . S
C2184 H2171 0.930 . S
C2184 C2183 1.388 . S
C2184 C2185 1.390 . S
C2185 C2184 1.390 . S
C2185 C2186 1.394 . S
C2185 C2191 1.465 . S
C2186 C2181 1.399 . S
C2186 C2185 1.394 . S
C2186 C2187 1.516 . S
C2187 C2186 1.516 . S
C2187 C2188 1.502 . S
C2187 C2189 1.561 . S
C2187 C2190 1.526 . S
C2188 H2172 0.959 . S
C2188 H2173 0.959 . S
C2188 H2174 0.961 . S
C2188 C2187 1.502 . S
C2189 H2175 0.960 . S
C2189 H2176 0.961 . S
C2189 H2177 0.959 . S
C2189 C2187 1.561 . S
C2190 C2187 1.526 . S
C2190 C2191 1.396 . S
C2190 C2195 1.390 . S
C2191 C2185 1.465 . S
C2191 C2190 1.396 . S
C2191 C2192 1.399 . S
C2192 H2178 0.929 . S
C2192 C2191 1.399 . S
C2192 C2193 1.385 . S
C2193 H2179 0.931 . S
C2193 C2192 1.385 . S
C2193 C2194 1.389 . S
C2194 C2193 1.389 . S
C2194 C2195 1.387 . S
C2195 H2180 0.930 . S
C2195 C2190 1.390 . S
C2195 C2194 1.387 . S
H2196 C2208 0.930 . S
H2197 C2210 0.930 . S
H2198 C2211 0.930 . S
H2199 C2215 0.959 . S
H2200 C2215 0.959 . S
H2201 C2215 0.961 . S
H2202 C2216 0.960 . S
H2203 C2216 0.961 . S
H2204 C2216 0.959 . S
H2205 C2219 0.929 . S
H2206 C2220 0.931 . S
H2207 C2222 0.930 . S
C2208 H2196 0.930 . S
C2208 C2209 1.399 . S
C2208 C2213 1.399 . S
C2209 C2208 1.399 . S
C2209 C2210 1.376 . S
C2210 H2197 0.930 . S
C2210 C2209 1.376 . S
C2210 C2211 1.388 . S
C2211 H2198 0.930 . S
C2211 C2210 1.388 . S
C2211 C2212 1.390 . S
C2212 C2211 1.390 . S
C2212 C2213 1.394 . S
C2212 C2218 1.465 . S
C2213 C2208 1.399 . S
C2213 C2212 1.394 . S
C2213 C2214 1.516 . S
C2214 C2213 1.516 . S
C2214 C2215 1.502 . S
C2214 C2216 1.561 . S
C2214 C2217 1.526 . S
C2215 H2199 0.959 . S
C2215 H2200 0.959 . S
C2215 H2201 0.961 . S
C2215 C2214 1.502 . S
C2216 H2202 0.960 . S
C2216 H2203 0.961 . S
C2216 H2204 0.959 . S
C2216 C2214 1.561 . S
C2217 C2214 1.526 . S
C2217 C2218 1.396 . S
C2217 C2222 1.390 . S
C2218 C2212 1.465 . S
C2218 C2217 1.396 . S
C2218 C2219 1.399 . S
C2219 H2205 0.929 . S
C2219 C2218 1.399 . S
C2219 C2220 1.385 . S
C2220 H2206 0.931 . S
C2220 C2219 1.385 . S
C2220 C2221 1.389 . S
C2221 C2220 1.389 . S
C2221 C2222 1.387 . S
C2222 H2207 0.930 . S
C2222 C2217 1.390 . S
C2222 C2221 1.387 . S
H2223 C2235 0.930 . S
H2224 C2237 0.930 . S
H2225 C2238 0.930 . S
H2226 C2242 0.959 . S
H2227 C2242 0.959 . S
H2228 C2242 0.961 . S
H2229 C2243 0.960 . S
H2230 C2243 0.961 . S
H2231 C2243 0.959 . S
H2232 C2246 0.929 . S
H2233 C2247 0.931 . S
H2234 C2249 0.930 . S
C2235 H2223 0.930 . S
C2235 C2236 1.399 . S
C2235 C2240 1.399 . S
C2236 C2235 1.399 . S
C2236 C2237 1.376 . S
C2237 H2224 0.930 . S
C2237 C2236 1.376 . S
C2237 C2238 1.388 . S
C2238 H2225 0.930 . S
C2238 C2237 1.388 . S
C2238 C2239 1.390 . S
C2239 C2238 1.390 . S
C2239 C2240 1.394 . S
C2239 C2245 1.465 . S
C2240 C2235 1.399 . S
C2240 C2239 1.394 . S
C2240 C2241 1.516 . S
C2241 C2240 1.516 . S
C2241 C2242 1.502 . S
C2241 C2243 1.561 . S
C2241 C2244 1.526 . S
C2242 H2226 0.959 . S
C2242 H2227 0.959 . S
C2242 H2228 0.961 . S
C2242 C2241 1.502 . S
C2243 H2229 0.960 . S
C2243 H2230 0.961 . S
C2243 H2231 0.959 . S
C2243 C2241 1.561 . S
C2244 C2241 1.526 . S
C2244 C2245 1.396 . S
C2244 C2249 1.390 . S
C2245 C2239 1.465 . S
C2245 C2244 1.396 . S
C2245 C2246 1.399 . S
C2246 H2232 0.929 . S
C2246 C2245 1.399 . S
C2246 C2247 1.385 . S
C2247 H2233 0.931 . S
C2247 C2246 1.385 . S
C2247 C2248 1.389 . S
C2248 C2247 1.389 . S
C2248 C2249 1.387 . S
C2249 H2234 0.930 . S
C2249 C2244 1.390 . S
C2249 C2248 1.387 . S
H2250 C2262 0.930 . S
H2251 C2264 0.930 . S
H2252 C2265 0.930 . S
H2253 C2269 0.959 . S
H2254 C2269 0.959 . S
H2255 C2269 0.961 . S
H2256 C2270 0.960 . S
H2257 C2270 0.961 . S
H2258 C2270 0.959 . S
H2259 C2273 0.929 . S
H2260 C2274 0.931 . S
H2261 C2276 0.930 . S
C2262 H2250 0.930 . S
C2262 C2263 1.399 . S
C2262 C2267 1.399 . S
C2263 C2262 1.399 . S
C2263 C2264 1.376 . S
C2264 H2251 0.930 . S
C2264 C2263 1.376 . S
C2264 C2265 1.388 . S
C2265 H2252 0.930 . S
C2265 C2264 1.388 . S
C2265 C2266 1.390 . S
C2266 C2265 1.390 . S
C2266 C2267 1.394 . S
C2266 C2272 1.465 . S
C2267 C2262 1.399 . S
C2267 C2266 1.394 . S
C2267 C2268 1.516 . S
C2268 C2267 1.516 . S
C2268 C2269 1.502 . S
C2268 C2270 1.561 . S
C2268 C2271 1.526 . S
C2269 H2253 0.959 . S
C2269 H2254 0.959 . S
C2269 H2255 0.961 . S
C2269 C2268 1.502 . S
C2270 H2256 0.960 . S
C2270 H2257 0.961 . S
C2270 H2258 0.959 . S
C2270 C2268 1.561 . S
C2271 C2268 1.526 . S
C2271 C2272 1.396 . S
C2271 C2276 1.390 . S
C2272 C2266 1.465 . S
C2272 C2271 1.396 . S
C2272 C2273 1.399 . S
C2273 H2259 0.929 . S
C2273 C2272 1.399 . S
C2273 C2274 1.385 . S
C2274 H2260 0.931 . S
C2274 C2273 1.385 . S
C2274 C2275 1.389 . S
C2275 C2274 1.389 . S
C2275 C2276 1.387 . S
C2276 H2261 0.930 . S
C2276 C2271 1.390 . S
C2276 C2275 1.387 . S
H2277 C2289 0.930 . S
H2278 C2291 0.930 . S
H2279 C2292 0.930 . S
H2280 C2296 0.959 1_545 S
H2281 C2296 0.959 . S
H2282 C2296 0.961 . S
H2283 C2297 0.960 . S
H2284 C2297 0.961 . S
H2285 C2297 0.959 . S
H2286 C2300 0.929 1_545 S
H2287 C2301 0.931 . S
H2288 C2303 0.930 . S
C2289 H2277 0.930 . S
C2289 C2290 1.399 . S
C2289 C2294 1.399 . S
C2290 C2289 1.399 . S
C2290 C2291 1.376 . S
C2291 H2278 0.930 . S
C2291 C2290 1.376 . S
C2291 C2292 1.388 . S
C2292 H2279 0.930 . S
C2292 C2291 1.388 . S
C2292 C2293 1.390 . S
C2293 C2292 1.390 . S
C2293 C2294 1.394 . S
C2293 C2299 1.465 1_545 S
C2294 C2289 1.399 . S
C2294 C2293 1.394 . S
C2294 C2295 1.516 1_545 S
C2295 C2294 1.516 1_565 S
C2295 C2296 1.502 . S
C2295 C2297 1.561 . S
C2295 C2298 1.526 . S
C2296 H2280 0.959 1_565 S
C2296 H2281 0.959 . S
C2296 H2282 0.961 . S
C2296 C2295 1.502 . S
C2297 H2283 0.960 . S
C2297 H2284 0.961 . S
C2297 H2285 0.959 . S
C2297 C2295 1.561 . S
C2298 C2295 1.526 . S
C2298 C2299 1.396 . S
C2298 C2303 1.390 . S
C2299 C2293 1.465 1_565 S
C2299 C2298 1.396 . S
C2299 C2300 1.399 . S
C2300 H2286 0.929 1_565 S
C2300 C2299 1.399 . S
C2300 C2301 1.385 . S
C2301 H2287 0.931 . S
C2301 C2300 1.385 . S
C2301 C2302 1.389 . S
C2302 C2301 1.389 . S
C2302 C2303 1.387 . S
C2303 H2288 0.930 . S
C2303 C2298 1.390 . S
C2303 C2302 1.387 . S
H2304 C2316 0.930 . S
H2305 C2318 0.930 . S
H2306 C2319 0.930 . S
H2307 C2323 0.959 . S
H2308 C2323 0.959 . S
H2309 C2323 0.961 . S
H2310 C2324 0.960 . S
H2311 C2324 0.961 . S
H2312 C2324 0.959 . S
H2313 C2327 0.929 . S
H2314 C2328 0.931 . S
H2315 C2330 0.930 . S
C2316 H2304 0.930 . S
C2316 C2317 1.399 . S
C2316 C2321 1.399 . S
C2317 C2316 1.399 . S
C2317 C2318 1.376 . S
C2318 H2305 0.930 . S
C2318 C2317 1.376 . S
C2318 C2319 1.388 1_655 S
C2319 H2306 0.930 . S
C2319 C2318 1.388 1_455 S
C2319 C2320 1.384 . S
C2320 C2319 1.384 . S
C2320 C2321 1.364 1_455 S
C2320 C2326 1.500 . S
C2321 C2316 1.399 . S
C2321 C2320 1.364 1_655 S
C2321 C2322 1.516 . S
C2322 C2321 1.516 . S
C2322 C2323 1.502 . S
C2322 C2324 1.561 . S
C2322 C2325 1.526 1_655 S
C2323 H2307 0.959 . S
C2323 H2308 0.959 . S
C2323 H2309 0.961 . S
C2323 C2322 1.502 . S
C2324 H2310 0.960 . S
C2324 H2311 0.961 . S
C2324 H2312 0.959 . S
C2324 C2322 1.561 . S
C2325 C2322 1.526 1_455 S
C2325 C2326 1.396 . S
C2325 C2330 1.390 . S
C2326 C2320 1.500 . S
C2326 C2325 1.396 . S
C2326 C2327 1.399 . S
C2327 H2313 0.929 . S
C2327 C2326 1.399 . S
C2327 C2328 1.385 . S
C2328 H2314 0.931 . S
C2328 C2327 1.385 . S
C2328 C2329 1.389 . S
C2329 C2328 1.389 . S
C2329 C2330 1.387 . S
C2330 H2315 0.930 . S
C2330 C2325 1.390 . S
C2330 C2329 1.387 . S
H2331 C2343 0.930 . S
H2332 C2345 0.930 . S
H2333 C2346 0.930 . S
H2334 C2350 0.959 . S
H2335 C2350 0.959 . S
H2336 C2350 0.961 . S
H2337 C2351 0.960 . S
H2338 C2351 0.961 . S
H2339 C2351 0.959 . S
H2340 C2354 0.929 . S
H2341 C2355 0.931 . S
H2342 C2357 0.930 . S
C2343 H2331 0.930 . S
C2343 C2344 1.399 . S
C2343 C2348 1.399 . S
C2344 C2343 1.399 . S
C2344 C2345 1.376 . S
C2345 H2332 0.930 . S
C2345 C2344 1.376 . S
C2345 C2346 1.388 . S
C2346 H2333 0.930 . S
C2346 C2345 1.388 . S
C2346 C2347 1.390 . S
C2347 C2346 1.390 . S
C2347 C2348 1.394 . S
C2347 C2353 1.465 . S
C2348 C2343 1.399 . S
C2348 C2347 1.394 . S
C2348 C2349 1.516 . S
C2349 C2348 1.516 . S
C2349 C2350 1.502 . S
C2349 C2351 1.561 . S
C2349 C2352 1.526 . S
C2350 H2334 0.959 . S
C2350 H2335 0.959 . S
C2350 H2336 0.961 . S
C2350 C2349 1.502 . S
C2351 H2337 0.960 . S
C2351 H2338 0.961 . S
C2351 H2339 0.959 . S
C2351 C2349 1.561 . S
C2352 C2349 1.526 . S
C2352 C2353 1.396 . S
C2352 C2357 1.390 . S
C2353 C2347 1.465 . S
C2353 C2352 1.396 . S
C2353 C2354 1.399 . S
C2354 H2340 0.929 . S
C2354 C2353 1.399 . S
C2354 C2355 1.385 . S
C2355 H2341 0.931 . S
C2355 C2354 1.385 . S
C2355 C2356 1.389 . S
C2356 C2355 1.389 . S
C2356 C2357 1.387 . S
C2357 H2342 0.930 . S
C2357 C2352 1.390 . S
C2357 C2356 1.387 . S
H2358 C2370 0.930 . S
H2359 C2372 0.930 . S
H2360 C2373 0.930 . S
H2361 C2377 0.959 . S
H2362 C2377 0.959 . S
H2363 C2377 0.961 . S
H2364 C2378 0.960 . S
H2365 C2378 0.961 . S
H2366 C2378 0.959 . S
H2367 C2381 0.929 . S
H2368 C2382 0.931 . S
H2369 C2384 0.930 . S
C2370 H2358 0.930 . S
C2370 C2371 1.399 . S
C2370 C2375 1.399 . S
C2371 C2370 1.399 . S
C2371 C2372 1.376 . S
C2372 H2359 0.930 . S
C2372 C2371 1.376 . S
C2372 C2373 1.388 . S
C2373 H2360 0.930 . S
C2373 C2372 1.388 . S
C2373 C2374 1.390 . S
C2374 C2373 1.390 . S
C2374 C2375 1.394 . S
C2374 C2380 1.465 . S
C2375 C2370 1.399 . S
C2375 C2374 1.394 . S
C2375 C2376 1.516 1_545 S
C2376 C2375 1.516 1_565 S
C2376 C2377 1.502 . S
C2376 C2378 1.561 . S
C2376 C2379 1.526 . S
C2377 H2361 0.959 . S
C2377 H2362 0.959 . S
C2377 H2363 0.961 . S
C2377 C2376 1.502 . S
C2378 H2364 0.960 . S
C2378 H2365 0.961 . S
C2378 H2366 0.959 . S
C2378 C2376 1.561 . S
C2379 C2376 1.526 . S
C2379 C2380 1.396 1_565 S
C2379 C2384 1.390 . S
C2380 C2374 1.465 . S
C2380 C2379 1.396 1_545 S
C2380 C2381 1.399 . S
C2381 H2367 0.929 . S
C2381 C2380 1.399 . S
C2381 C2382 1.385 1_545 S
C2382 H2368 0.931 . S
C2382 C2381 1.385 1_565 S
C2382 C2383 1.389 . S
C2383 C2382 1.389 . S
C2383 C2384 1.387 . S
C2384 H2369 0.930 . S
C2384 C2379 1.390 . S
C2384 C2383 1.387 . S
H2385 C2397 0.930 . S
H2386 C2399 0.930 . S
H2387 C2400 0.930 . S
H2388 C2404 0.959 . S
H2389 C2404 0.959 . S
H2390 C2404 0.961 . S
H2391 C2405 0.960 . S
H2392 C2405 0.961 . S
H2393 C2405 0.959 . S
H2394 C2408 0.929 . S
H2395 C2409 0.931 . S
H2396 C2411 0.930 . S
C2397 H2385 0.930 . S
C2397 C2398 1.399 . S
C2397 C2402 1.399 . S
C2398 C2397 1.399 . S
C2398 C2399 1.376 . S
C2399 H2386 0.930 . S
C2399 C2398 1.376 . S
C2399 C2400 1.388 . S
C2400 H2387 0.930 . S
C2400 C2399 1.388 . S
C2400 C2401 1.390 . S
C2401 C2400 1.390 . S
C2401 C2402 1.394 . S
C2401 C2407 1.475 . S
C2402 C2397 1.399 . S
C2402 C2401 1.394 . S
C2402 C2403 1.516 1_455 S
C2403 C2402 1.516 1_655 S
C2403 C2404 1.502 . S
C2403 C2405 1.561 . S
C2403 C2406 1.526 . S
C2404 H2388 0.959 . S
C2404 H2389 0.959 . S
C2404 H2390 0.961 . S
C2404 C2403 1.502 . S
C2405 H2391 0.960 . S
C2405 H2392 0.961 . S
C2405 H2393 0.959 . S
C2405 C2403 1.561 . S
C2406 C2403 1.526 . S
C2406 C2407 1.385 1_655 S
C2406 C2411 1.390 . S
C2407 C2401 1.475 . S
C2407 C2406 1.385 1_455 S
C2407 C2408 1.399 . S
C2408 H2394 0.929 . S
C2408 C2407 1.399 . S
C2408 C2409 1.385 1_455 S
C2409 H2395 0.931 . S
C2409 C2408 1.385 1_655 S
C2409 C2410 1.389 . S
C2410 C2409 1.389 . S
C2410 C2411 1.387 . S
C2411 H2396 0.930 . S
C2411 C2406 1.390 . S
C2411 C2410 1.387 . S
C481 C70 1.102 . S
C493 C5 1.133 . S
C508 C44 1.105 . S
C520 C18 1.131 . S
C535 C29 1.130 . S
C547 C57 1.108 . S
C562 C83 1.106 . S
C574 C146 1.118 . S
C589 C94 1.103 . S
C601 C120 1.137 . S
C616 C135 1.132 . S
C628 C109 1.100 . S
C643 C159 1.136 . S
C655 C224 1.102 . S
C670 C172 1.100 . S
C682 C200 1.136 . S
C697 C213 1.136 . S
C709 C187 1.100 . S
C724 C304 1.132 . S
C736 C237 1.100 . S
C751 C278 1.099 . S
C763 C252 1.131 . S
C778 C263 1.105 . S
C790 C289 1.137 . S
C805 C382 1.104 . S
C817 C315 1.131 . S
C832 C356 1.123 . S
C844 C328 1.115 . S
C859 C341 1.114 . S
C871 C367 1.121 . S
C886 C460 1.113 . S
C898 C393 1.134 . S
C913 C434 1.137 . S
C925 C406 1.102 . S
C940 C447 1.125 . S
C952 C419 1.102 . S
C967 C218 1.438 . S
C979 C10 1.440 . S
C994 C225 1.435 . S
C1006 C23 1.443 . S
C1021 C205 1.505 . S
C1033 C30 1.468 . S
C1048 C49 1.497 . S
C1060 C342 1.417 1_554 S
C1075 C62 1.484 . S
C1087 C316 1.494 1_554 S
C1102 C75 1.415 . S
C1114 C329 1.480 1_554 S
C1129 C88 1.460 . S
C1141 C452 1.445 . S
C1156 C465 1.482 . S
C1168 C95 1.469 . S
C1183 C439 1.509 . S
C1195 C114 1.430 . S
C1210 C264 1.439 1_556 S
C1222 C121 1.467 . S
C1237 C238 1.469 1_556 S
C1249 C140 1.481 . S
C1264 C147 1.472 . S
C1276 C257 1.478 1_556 S
C1291 C160 1.512 . S
C1303 C368 1.446 . S
C1318 C387 1.496 . S
C1330 C173 1.417 . S
C1345 C361 1.434 . S
C1357 C192 1.444 . S
C1372 C283 1.419 . S
C1384 C420 1.511 . S
C1399 C394 1.468 . S
C1411 C290 1.482 . S
C1426 C309 1.456 . S
C1438 C407 1.449 . S
C1453 C244 1.641 . S
C1465 C4 1.668 . S
C1480 C251 1.642 . S
C1492 C17 1.665 . S
C1507 C36 1.641 . S
C1519 C270 1.665 . S
C1534 C43 1.662 . S
C1546 C433 1.652 . S
C1561 C446 1.643 . S
C1573 C56 1.662 . S
C1588 C459 1.642 . S
C1600 C69 1.668 . S
C1615 C82 1.642 . S
C1627 C322 1.669 . S
C1642 C101 1.665 . S
C1654 C335 1.648 . S
C1669 C348 1.647 . S
C1681 C108 1.657 . S
C1696 C127 1.662 . S
C1708 C199 1.652 . S
C1723 C134 1.667 . S
C1735 C212 1.643 . S
C1750 C231 1.649 . S
C1762 C153 1.663 . S
C1777 C166 1.648 . S
C1789 C400 1.658 . S
C1804 C179 1.661 . S
C1816 C413 1.652 . S
C1831 C426 1.651 . S
C1843 C186 1.653 . S
C1858 C355 1.650 . S
C1870 C277 1.664 . S
C1885 C296 1.641 . S
C1897 C374 1.667 . S
C1912 C303 1.664 . S
C1924 C381 1.649 . S
C1939 C354 1.612 1_554 S
C1951 C3 1.589 . S
C1966 C16 1.579 . S
C1978 C369 1.589 1_554 S
C1993 C380 1.613 1_554 S
C2005 C31 1.590 . S
C2020 C42 1.582 . S
C2032 C161 1.583 . S
C2047 C174 1.582 . S
C2059 C55 1.602 . S
C2074 C185 1.621 . S
C2086 C68 1.598 . S
C2101 C81 1.634 . S
C2113 C276 1.635 1_556 S
C2128 C291 1.632 1_556 S
C2140 C96 1.634 . S
C2155 C107 1.627 . S
C2167 C302 1.622 1_556 S
C2182 C122 1.588 . S
C2194 C395 1.584 . S
C2209 C133 1.613 . S
C2221 C408 1.620 . S
C2236 C421 1.635 . S
C2248 C148 1.634 . S
C2263 C198 1.627 . S
C2275 C317 1.635 . S
C2290 C211 1.580 . S
C2302 C330 1.586 . S
C2317 C226 1.612 . S
C2329 C343 1.589 . S
C2344 C239 1.619 . S
C2356 C432 1.625 . S
C2371 C250 1.604 . S
C2383 C445 1.612 . S
C2398 C458 1.621 . S
C2410 C265 1.626 . S
