# Generated by pormake.
# Topology uka, (4)-cn, num edge types: 1
# Building blocks:
#     Node 0, Type 0, BuildingBlock: QUQFOY_clean_sbu_3, # of connection points: 4
#     Node 1, Type 0, BuildingBlock: QUQFOY_clean_sbu_3, # of connection points: 4
#     Node 2, Type 0, BuildingBlock: QUQFOY_clean_sbu_3, # of connection points: 4
#     Node 3, Type 0, BuildingBlock: QUQFOY_clean_sbu_3, # of connection points: 4
#     Node 4, Type 0, BuildingBlock: QUQFOY_clean_sbu_3, # of connection points: 4
#     Node 5, Type 0, BuildingBlock: QUQFOY_clean_sbu_3, # of connection points: 4
#     Node 6, Type 0, BuildingBlock: QUQFOY_clean_sbu_3, # of connection points: 4
#     Node 7, Type 0, BuildingBlock: QUQFOY_clean_sbu_3, # of connection points: 4
#     Node 8, Type 0, BuildingBlock: QUQFOY_clean_sbu_3, # of connection points: 4
#     Node 9, Type 0, BuildingBlock: QUQFOY_clean_sbu_3, # of connection points: 4
#     Node 10, Type 0, BuildingBlock: QUQFOY_clean_sbu_3, # of connection points: 4
#     Node 11, Type 0, BuildingBlock: QUQFOY_clean_sbu_3, # of connection points: 4
#     Node 12, Type 0, BuildingBlock: QUQFOY_clean_sbu_3, # of connection points: 4
#     Node 13, Type 0, BuildingBlock: QUQFOY_clean_sbu_3, # of connection points: 4
#     Node 14, Type 0, BuildingBlock: QUQFOY_clean_sbu_3, # of connection points: 4
#     Node 15, Type 0, BuildingBlock: QUQFOY_clean_sbu_3, # of connection points: 4
#     Node 16, Type 0, BuildingBlock: QUQFOY_clean_sbu_3, # of connection points: 4
#     Node 17, Type 0, BuildingBlock: QUQFOY_clean_sbu_3, # of connection points: 4
#     Node 18, Type 0, BuildingBlock: QUQFOY_clean_sbu_3, # of connection points: 4
#     Node 19, Type 0, BuildingBlock: QUQFOY_clean_sbu_3, # of connection points: 4
#     Node 20, Type 0, BuildingBlock: QUQFOY_clean_sbu_3, # of connection points: 4
#     Node 21, Type 0, BuildingBlock: QUQFOY_clean_sbu_3, # of connection points: 4
#     Node 22, Type 0, BuildingBlock: QUQFOY_clean_sbu_3, # of connection points: 4
#     Node 23, Type 0, BuildingBlock: QUQFOY_clean_sbu_3, # of connection points: 4
#     Node 24, Type 0, BuildingBlock: QUQFOY_clean_sbu_3, # of connection points: 4
#     Node 25, Type 0, BuildingBlock: QUQFOY_clean_sbu_3, # of connection points: 4
#     Node 26, Type 0, BuildingBlock: QUQFOY_clean_sbu_3, # of connection points: 4
#     Node 27, Type 0, BuildingBlock: QUQFOY_clean_sbu_3, # of connection points: 4
#     Node 28, Type 0, BuildingBlock: QUQFOY_clean_sbu_3, # of connection points: 4
#     Node 29, Type 0, BuildingBlock: QUQFOY_clean_sbu_3, # of connection points: 4
#     Node 30, Type 0, BuildingBlock: QUQFOY_clean_sbu_3, # of connection points: 4
#     Node 31, Type 0, BuildingBlock: QUQFOY_clean_sbu_3, # of connection points: 4
#     Edge 32, Type (0, 0), None
#     Edge 33, Type (0, 0), None
#     Edge 34, Type (0, 0), None
#     Edge 35, Type (0, 0), None
#     Edge 36, Type (0, 0), None
#     Edge 37, Type (0, 0), None
#     Edge 38, Type (0, 0), None
#     Edge 39, Type (0, 0), None
#     Edge 40, Type (0, 0), None
#     Edge 41, Type (0, 0), None
#     Edge 42, Type (0, 0), None
#     Edge 43, Type (0, 0), None
#     Edge 44, Type (0, 0), None
#     Edge 45, Type (0, 0), None
#     Edge 46, Type (0, 0), None
#     Edge 47, Type (0, 0), None
#     Edge 48, Type (0, 0), None
#     Edge 49, Type (0, 0), None
#     Edge 50, Type (0, 0), None
#     Edge 51, Type (0, 0), None
#     Edge 52, Type (0, 0), None
#     Edge 53, Type (0, 0), None
#     Edge 54, Type (0, 0), None
#     Edge 55, Type (0, 0), None
#     Edge 56, Type (0, 0), None
#     Edge 57, Type (0, 0), None
#     Edge 58, Type (0, 0), None
#     Edge 59, Type (0, 0), None
#     Edge 60, Type (0, 0), None
#     Edge 61, Type (0, 0), None
#     Edge 62, Type (0, 0), None
#     Edge 63, Type (0, 0), None
#     Edge 64, Type (0, 0), None
#     Edge 65, Type (0, 0), None
#     Edge 66, Type (0, 0), None
#     Edge 67, Type (0, 0), None
#     Edge 68, Type (0, 0), None
#     Edge 69, Type (0, 0), None
#     Edge 70, Type (0, 0), None
#     Edge 71, Type (0, 0), None
#     Edge 72, Type (0, 0), None
#     Edge 73, Type (0, 0), None
#     Edge 74, Type (0, 0), None
#     Edge 75, Type (0, 0), None
#     Edge 76, Type (0, 0), None
#     Edge 77, Type (0, 0), None
#     Edge 78, Type (0, 0), None
#     Edge 79, Type (0, 0), None
#     Edge 80, Type (0, 0), None
#     Edge 81, Type (0, 0), None
#     Edge 82, Type (0, 0), None
#     Edge 83, Type (0, 0), None
#     Edge 84, Type (0, 0), None
#     Edge 85, Type (0, 0), None
#     Edge 86, Type (0, 0), None
#     Edge 87, Type (0, 0), None
#     Edge 88, Type (0, 0), None
#     Edge 89, Type (0, 0), None
#     Edge 90, Type (0, 0), None
#     Edge 91, Type (0, 0), None
#     Edge 92, Type (0, 0), None
#     Edge 93, Type (0, 0), None
#     Edge 94, Type (0, 0), None
#     Edge 95, Type (0, 0), None
# Relax obj value: 0.116
# Max RMSD: 0.168
# Mean RMSD: 0.168
data_MOF--net-uka--node1-QUQFOY_clean_sbu_3--edge1-none
_symmetry_space_group_name_H-M    P1
_symmetry_Int_Tables_number       1
_symmetry_cell_setting            triclinic
loop_
_symmetry_equiv_pos_as_xyz
'x, y, z'
_cell_length_a     32.032558
_cell_length_b     32.029464
_cell_length_c     18.560181
_cell_angle_alpha  89.995606
_cell_angle_beta   90.002029
_cell_angle_gamma 90.012242
loop_
_atom_site_label
_atom_site_type_symbol
_atom_site_fract_x
_atom_site_fract_y
_atom_site_fract_z
_atom_type_partial_charge
C0 C 0.01914 0.13458 0.31213 0.0
O1 O -0.00426 0.13445 0.25695 0.0
Cd2 Cd -0.0157 0.20442 0.2112 0.0
O3 O 0.04527 0.1639 0.32121 0.0
Cd4 Cd 0.08114 0.22233 0.26342 0.0
C5 C 0.00839 0.2541 0.37641 0.0
O6 O 0.04308 0.23262 0.15345 0.0
O7 O 0.07115 0.28857 0.19797 0.0
O8 O 0.13519 0.17506 0.22212 0.0
C9 C 0.04775 0.27201 0.15066 0.0
O10 O -0.01575 0.24172 0.32604 0.0
C11 C 0.16477 0.1941 0.25383 0.0
O12 O 0.04796 0.25004 0.37256 0.0
O13 O 0.1557 0.22707 0.28899 0.0
C14 C -0.01205 0.76914 0.56202 0.0
O15 O -0.01197 0.74572 0.50686 0.0
Cd16 Cd 0.91805 0.7343 0.46115 0.0
O17 O -0.04135 0.79527 0.5711 0.0
Cd18 Cd 0.90021 0.83116 0.51345 0.0
C19 C 0.86844 0.75837 0.62643 0.0
O20 O 0.8899 0.79313 0.40347 0.0
O21 O 0.83398 0.82119 0.44798 0.0
O22 O -0.05253 0.88524 0.47219 0.0
C23 C 0.85053 0.79781 0.40066 0.0
O24 O 0.88079 0.73423 0.57604 0.0
C25 C 0.92844 0.91481 0.5039 0.0
O26 O 0.87252 0.79794 0.62259 0.0
O27 O 0.89548 0.90572 0.53906 0.0
C28 C 0.35336 0.73799 0.81214 0.0
O29 O 0.37676 0.7381 0.75697 0.0
Cd30 Cd 0.3882 0.66813 0.71124 0.0
O31 O 0.32723 0.70867 0.82122 0.0
Cd32 Cd 0.29133 0.65023 0.7635 0.0
C33 C 0.36411 0.61847 0.8765 0.0
O34 O 0.3294 0.63994 0.65355 0.0
O35 O 0.30132 0.584 0.69805 0.0
O36 O 0.23729 0.69749 0.72217 0.0
C37 C 0.32473 0.60056 0.65075 0.0
O38 O 0.38825 0.63084 0.82611 0.0
C39 C 0.20771 0.67846 0.75388 0.0
O40 O 0.32454 0.62254 0.87265 0.0
O41 O 0.21678 0.6455 0.78906 0.0
C42 C 0.38459 0.10335 0.06233 0.0
O43 O 0.38449 0.12676 0.00715 0.0
Cd44 Cd 0.45447 0.1382 0.96146 0.0
O45 O 0.4139 0.07723 0.07144 0.0
Cd46 Cd 0.47234 0.04135 0.01378 0.0
C47 C 0.50405 0.11415 0.12678 0.0
O48 O 0.48267 0.0794 0.90382 0.0
O49 O 0.53859 0.05134 0.94839 0.0
O50 O 0.42507 -0.0127 0.97243 0.0
C51 C 0.52205 0.07474 0.90106 0.0
O52 O 0.49171 0.13828 0.07637 0.0
C53 C 0.4441 -0.04229 0.00412 0.0
O54 O 0.49999 0.07457 0.12295 0.0
O55 O 0.47705 -0.03322 0.03932 0.0
C56 C 0.01914 0.738 0.19142 0.0
O57 O -0.00426 0.73811 0.24659 0.0
Cd58 Cd -0.01572 0.66813 0.2923 0.0
O59 O 0.04525 0.70868 0.18234 0.0
Cd60 Cd 0.08109 0.65024 0.24016 0.0
C61 C 0.00837 0.61844 0.12711 0.0
O62 O 0.04302 0.63994 0.35014 0.0
O63 O 0.07106 0.58401 0.30559 0.0
O64 O 0.13516 0.69749 0.2815 0.0
C65 C 0.04769 0.60056 0.35293 0.0
O66 O -0.01578 0.63082 0.17747 0.0
C67 C 0.16474 0.67844 0.24984 0.0
O68 O 0.04794 0.62251 0.13098 0.0
O69 O 0.15565 0.64548 0.21466 0.0
C70 C 0.38462 0.76897 0.44165 0.0
O71 O 0.38461 0.74551 0.49676 0.0
Cd72 Cd 0.45459 0.73422 0.54253 0.0
O73 O 0.41387 0.79518 0.43258 0.0
Cd74 Cd 0.47228 0.83115 0.49028 0.0
C75 C 0.50419 0.75843 0.3773 0.0
O76 O 0.48263 0.79308 0.60021 0.0
O77 O 0.53852 0.82128 0.55575 0.0
O78 O 0.42494 0.88514 0.5316 0.0
C79 C 0.522 0.79783 0.60304 0.0
O80 O 0.49188 0.73427 0.42769 0.0
C81 C 0.44395 0.91475 0.49993 0.0
O82 O 0.50003 0.798 0.38113 0.0
O83 O 0.47692 0.90572 0.46475 0.0
C84 C 0.35332 0.13454 0.69189 0.0
O85 O 0.37675 0.13447 0.74703 0.0
Cd86 Cd 0.38815 0.20446 0.79275 0.0
O87 O 0.32716 0.16383 0.68282 0.0
Cd88 Cd 0.2913 0.22225 0.74063 0.0
C89 C 0.36396 0.25415 0.62758 0.0
O90 O 0.32938 0.23258 0.8506 0.0
O91 O 0.30129 0.28849 0.80605 0.0
O92 O 0.23723 0.17498 0.78196 0.0
C93 C 0.32469 0.27196 0.85337 0.0
O94 O 0.38813 0.2418 0.67793 0.0
C95 C 0.20766 0.19402 0.75026 0.0
O96 O 0.3244 0.25002 0.63146 0.0
O97 O 0.21675 0.22699 0.71509 0.0
C98 C -0.01235 0.10356 0.94174 0.0
O99 O -0.01234 0.12704 0.99683 0.0
Cd100 Cd 0.91769 0.13833 0.04262 0.0
O101 O -0.0416 0.07735 0.93266 0.0
Cd102 Cd 0.89998 0.04138 0.99029 0.0
C103 C 0.8681 0.11414 0.87735 0.0
O104 O 0.88965 0.07943 0.10023 0.0
O105 O 0.83375 0.05125 0.05583 0.0
O106 O -0.05269 -0.01263 0.03154 0.0
C107 C 0.85029 0.07469 0.10309 0.0
O108 O 0.8804 0.1383 0.92775 0.0
C109 C 0.92832 -0.04222 0.99981 0.0
O110 O 0.87225 0.07458 0.88116 0.0
O111 O 0.89534 -0.03318 0.96466 0.0
C112 C 0.8535 0.7379 0.69166 0.0
O113 O 0.87701 0.73788 0.74669 0.0
Cd114 Cd 0.88832 0.66791 0.79252 0.0
O115 O 0.82728 0.70866 0.68256 0.0
Cd116 Cd 0.79134 0.65022 0.74025 0.0
C117 C 0.86407 0.6183 0.62729 0.0
O118 O 0.82944 0.63988 0.85015 0.0
O119 O 0.80122 0.58398 0.80578 0.0
O120 O 0.73733 0.69752 0.78157 0.0
C121 C 0.82469 0.60052 0.85302 0.0
O122 O 0.88823 0.63061 0.67768 0.0
C123 C 0.70774 0.67851 0.74986 0.0
O124 O 0.8245 0.62247 0.63112 0.0
O125 O 0.71679 0.64555 0.71468 0.0
C126 C 0.88458 0.10346 0.44163 0.0
O127 O 0.88453 0.12691 0.49675 0.0
Cd128 Cd -0.0455 0.13827 0.54254 0.0
O129 O 0.91386 0.07729 0.43257 0.0
Cd130 Cd -0.02773 0.0414 0.49034 0.0
C131 C 0.00418 0.11412 0.37736 0.0
O132 O -0.01742 0.07946 0.60032 0.0
O133 O 0.0385 0.05136 0.55583 0.0
O134 O 0.92499 -0.01266 0.53161 0.0
C135 C 0.02195 0.07475 0.60315 0.0
O136 O -0.00816 0.13828 0.42773 0.0
C137 C -0.05596 -0.04223 0.49992 0.0
O138 O 3e-05 0.07456 0.38119 0.0
O139 O -0.023 -0.03315 0.46477 0.0
C140 C 0.51896 0.13463 0.19202 0.0
O141 O 0.49543 0.13463 0.24703 0.0
Cd142 Cd 0.48409 0.2046 0.29281 0.0
O143 O 0.54517 0.16389 0.18293 0.0
Cd144 Cd 0.58105 0.22234 0.24066 0.0
C145 C 0.50836 0.25426 0.12763 0.0
O146 O 0.54294 0.23262 0.35056 0.0
O147 O 0.57113 0.28855 0.30623 0.0
O148 O 0.63509 0.17506 0.28195 0.0
C149 C 0.54767 0.27199 0.35345 0.0
O150 O 0.48418 0.24193 0.17798 0.0
C151 C 0.66467 0.19408 0.25024 0.0
O152 O 0.54792 0.25011 0.13151 0.0
O153 O 0.6556 0.22705 0.21508 0.0
C154 C 0.48791 0.76908 0.94165 0.0
O155 O 0.48796 0.74563 0.99677 0.0
Cd156 Cd 0.41799 0.73424 0.04255 0.0
O157 O 0.45864 0.79525 0.93259 0.0
Cd158 Cd 0.40023 0.83113 0.99038 0.0
C159 C 0.36833 0.75843 0.87737 0.0
O160 O 0.38989 0.79304 0.10032 0.0
O161 O 0.33398 0.82116 0.05578 0.0
O162 O 0.44751 0.88517 0.03175 0.0
C163 C 0.35051 0.79774 0.1031 0.0
O164 O 0.38066 0.73427 0.92773 0.0
C165 C 0.42849 0.91476 1.00008 0.0
O166 O 0.37248 0.798 0.8812 0.0
O167 O 0.39553 0.9057 0.96489 0.0
C168 C 0.85316 0.13459 0.8121 0.0
O169 O 0.87661 0.13449 0.757 0.0
Cd170 Cd 0.88813 0.20445 0.71124 0.0
O171 O 0.82705 0.16392 0.8212 0.0
Cd172 Cd 0.79126 0.22239 0.76343 0.0
C173 C 0.86404 0.25414 0.87644 0.0
O174 O 0.82936 0.23265 0.65349 0.0
O175 O 0.8013 0.28861 0.69791 0.0
O176 O 0.73719 0.17515 0.72211 0.0
C177 C 0.82471 0.27203 0.65065 0.0
O178 O 0.88818 0.24175 0.82609 0.0
C179 C 0.70762 0.19418 0.75381 0.0
O180 O 0.82447 0.25009 0.87257 0.0
O181 O 0.71671 0.22715 0.78897 0.0
C182 C 0.48778 0.10331 0.56245 0.0
O183 O 0.48791 0.12671 0.50727 0.0
Cd184 Cd 0.41795 0.13817 0.46148 0.0
O185 O 0.45846 0.07718 0.57152 0.0
Cd186 Cd 0.40004 0.04131 0.51369 0.0
C187 C 0.36826 0.11407 0.62667 0.0
O188 O 0.38975 0.07939 0.40373 0.0
O189 O 0.33382 0.05131 0.44823 0.0
O190 O 0.44734 -0.01269 0.47233 0.0
C191 C 0.35038 0.07471 0.40093 0.0
O192 O 0.38063 0.13821 0.5763 0.0
C193 C 0.42832 -0.0423 0.50397 0.0
O194 O 0.37234 0.0745 0.62284 0.0
O195 O 0.39535 -0.03327 0.53915 0.0
C196 C 0.51916 0.738 0.31206 0.0
O197 O 0.49569 0.73805 0.25698 0.0
Cd198 Cd 0.48426 0.66807 0.21123 0.0
O199 O 0.54532 0.70871 0.32118 0.0
Cd200 Cd 0.58118 0.65026 0.26347 0.0
C201 C 0.50841 0.61842 0.37646 0.0
O202 O 0.54308 0.63995 0.15355 0.0
O203 O 0.57121 0.58403 0.198 0.0
O204 O 0.63523 0.69753 0.22212 0.0
C205 C 0.54778 0.60057 0.15073 0.0
O206 O 0.48426 0.63077 0.32609 0.0
C207 C 0.66481 0.6785 0.25382 0.0
O208 O 0.54798 0.62253 0.37262 0.0
O209 O 0.65573 0.64554 0.28902 0.0
C210 C 0.88463 0.7691 0.06194 0.0
O211 O 0.88458 0.74565 0.00682 0.0
Cd212 Cd -0.04547 0.73431 0.96097 0.0
O213 O 0.9139 0.79529 0.071 0.0
Cd214 Cd -0.0277 0.83124 0.01329 0.0
C215 C 0.00419 0.75847 0.12619 0.0
O216 O -0.01738 0.79317 0.90336 0.0
O217 O 0.03853 0.82134 0.94778 0.0
O218 O 0.92497 0.88525 0.97202 0.0
C219 C 0.02199 0.79789 0.90053 0.0
O220 O -0.00814 0.73432 0.0758 0.0
C221 C -0.05603 0.91484 0.00375 0.0
O222 O 4e-05 0.79803 0.1224 0.0
O223 O -0.02305 0.9058 0.0389 0.0
C224 C 0.51913 0.63463 0.81209 0.0
O225 O 0.49572 0.63454 0.75693 0.0
Cd226 Cd 0.48429 0.70451 0.71117 0.0
O227 O 0.54527 0.66394 0.82117 0.0
Cd228 Cd 0.58118 0.72238 0.76348 0.0
C229 C 0.50839 0.75415 0.87643 0.0
O230 O 0.54311 0.7327 0.65354 0.0
O231 O 0.57122 0.78863 0.69802 0.0
O232 O 0.63521 0.67511 0.72216 0.0
C233 C 0.54779 0.77208 0.65076 0.0
O234 O 0.48425 0.74179 0.82604 0.0
C235 C 0.66479 0.69413 0.75386 0.0
O236 O 0.54796 0.75006 0.87262 0.0
O237 O 0.65574 0.72709 0.78905 0.0
C238 C 0.48794 0.26925 0.06239 0.0
O239 O 0.48805 0.24583 0.00725 0.0
Cd240 Cd 0.41809 0.23432 0.96153 0.0
O241 O 0.45862 0.29536 0.07151 0.0
Cd242 Cd 0.40017 0.33119 0.01375 0.0
C243 C 0.36846 0.2584 0.12679 0.0
O244 O 0.38984 0.29309 0.90384 0.0
O245 O 0.33392 0.32116 0.94838 0.0
O246 O 0.44741 0.38525 0.97234 0.0
C247 C 0.35046 0.29774 0.9011 0.0
O248 O 0.38083 0.23427 0.07641 0.0
C249 C 0.42839 0.41484 0.00402 0.0
O250 O 0.37251 0.29798 0.12293 0.0
O251 O 0.39544 0.40576 0.03924 0.0
C252 C 0.85338 0.2379 0.31201 0.0
O253 O 0.8768 0.23794 0.25686 0.0
Cd254 Cd 0.88812 0.16796 0.21108 0.0
O255 O 0.8272 0.20862 0.32112 0.0
Cd256 Cd 0.79123 0.15017 0.26359 0.0
C257 C 0.86408 0.11838 0.37642 0.0
O258 O 0.82923 0.13984 0.15361 0.0
O259 O 0.80109 0.08392 0.19811 0.0
O260 O 0.73718 0.19747 0.22239 0.0
C261 C 0.82452 0.10046 0.15082 0.0
O262 O 0.88819 0.13069 0.32597 0.0
C263 C 0.70761 0.17846 0.25416 0.0
O264 O 0.82451 0.1225 0.37268 0.0
O265 O 0.71669 0.1455 0.28933 0.0
C266 C 0.8845 0.60333 0.56206 0.0
O267 O 0.88442 0.62679 0.50695 0.0
Cd268 Cd -0.04561 0.63826 0.46125 0.0
O269 O 0.91381 0.5772 0.57118 0.0
Cd270 Cd -0.02773 0.54138 0.51346 0.0
C271 C 0.00404 0.61415 0.62649 0.0
O272 O -0.01744 0.57948 0.40352 0.0
O273 O 0.03849 0.55139 0.44801 0.0
O274 O 0.92503 0.48731 0.4721 0.0
C275 C 0.02194 0.57481 0.40073 0.0
O276 O -0.00833 0.6383 0.57612 0.0
C277 C -0.05594 0.45773 0.50379 0.0
O278 O -3e-05 0.57458 0.62262 0.0
O279 O -0.02298 0.46681 0.53899 0.0
C280 C 0.51881 0.23786 0.69204 0.0
O281 O 0.49532 0.23782 0.74711 0.0
Cd282 Cd 0.48409 0.16784 0.79297 0.0
O283 O 0.54505 0.20865 0.68296 0.0
Cd284 Cd 0.58106 0.15023 0.74049 0.0
C285 C 0.50825 0.11826 0.62768 0.0
O286 O 0.54305 0.13989 0.85045 0.0
O287 O 0.57126 0.08399 0.80607 0.0
O288 O 0.6351 0.19757 0.78165 0.0
C289 C 0.54781 0.10052 0.85332 0.0
O290 O 0.48411 0.13053 0.67812 0.0
C291 C 0.66467 0.17856 0.74988 0.0
O292 O 0.54781 0.12248 0.63142 0.0
O293 O 0.65559 0.14559 0.71473 0.0
C294 C 0.8845 0.2691 0.94166 0.0
O295 O 0.88447 0.24562 0.99674 0.0
Cd296 Cd -0.04556 0.23424 0.04247 0.0
O297 O 0.91378 0.29527 0.93253 0.0
Cd298 Cd -0.02776 0.33115 0.99023 0.0
C299 C 0.00405 0.25843 0.87722 0.0
O300 O -0.01741 0.29305 0.10016 0.0
O301 O 0.03849 0.3212 0.05563 0.0
O302 O 0.925 0.3852 0.03159 0.0
C303 C 0.02197 0.29776 0.10292 0.0
O304 O -0.00828 0.23427 0.9276 0.0
C305 C -0.05598 0.41478 0.99986 0.0
O306 O -5e-05 0.298 0.88106 0.0
O307 O -0.02303 0.40571 0.96466 0.0
C308 C 0.85344 0.63461 0.19157 0.0
O309 O 0.87687 0.63455 0.2467 0.0
Cd310 Cd 0.88827 0.70453 0.29244 0.0
O311 O 0.82728 0.66391 0.18249 0.0
Cd312 Cd 0.7914 0.72234 0.24016 0.0
C313 C 0.86416 0.75415 0.12717 0.0
O314 O 0.82946 0.73266 0.35011 0.0
O315 O 0.80136 0.78859 0.3056 0.0
O316 O 0.73734 0.67507 0.28149 0.0
C317 C 0.82478 0.77204 0.35289 0.0
O318 O 0.8883 0.74182 0.17757 0.0
C319 C 0.70777 0.69409 0.2498 0.0
O320 O 0.82459 0.75004 0.131 0.0
O321 O 0.71684 0.72705 0.2146 0.0
C322 C 0.48796 0.60346 0.44169 0.0
O323 O 0.48798 0.62694 0.49676 0.0
Cd324 Cd 0.418 0.63832 0.54244 0.0
O325 O 0.45868 0.57728 0.43258 0.0
Cd326 Cd 0.40023 0.54141 0.49034 0.0
C327 C 0.36837 0.61407 0.37724 0.0
O328 O 0.38988 0.57953 0.60025 0.0
O329 O 0.33398 0.55137 0.55573 0.0
O330 O 0.44746 0.48735 0.53177 0.0
C331 C 0.35051 0.57481 0.60301 0.0
O332 O 0.38071 0.63825 0.42759 0.0
C333 C 0.42842 0.45776 0.50009 0.0
O334 O 0.37249 0.57451 0.38114 0.0
O335 O 0.39548 0.46684 0.46487 0.0
C336 C 0.35351 0.23792 0.192 0.0
O337 O 0.37702 0.23788 0.24703 0.0
Cd338 Cd 0.3883 0.1679 0.29283 0.0
O339 O 0.32728 0.20868 0.18286 0.0
Cd340 Cd 0.29133 0.15022 0.2404 0.0
C341 C 0.36412 0.11831 0.12754 0.0
O342 O 0.32938 0.13987 0.35035 0.0
O343 O 0.30117 0.08397 0.30593 0.0
O344 O 0.23729 0.1975 0.28164 0.0
C345 C 0.32463 0.1005 0.35319 0.0
O346 O 0.38826 0.13061 0.17797 0.0
C347 C 0.20772 0.17849 0.24988 0.0
O348 O 0.32456 0.12249 0.1313 0.0
O349 O 0.21679 0.14553 0.2147 0.0
C350 C 0.38458 0.60353 0.94172 0.0
O351 O 0.38459 0.62703 0.99676 0.0
Cd352 Cd 0.45456 0.63839 0.04255 0.0
O353 O 0.41382 0.57733 0.93261 0.0
Cd354 Cd 0.47226 0.54143 0.9903 0.0
C355 C 0.50417 0.61418 0.87732 0.0
O356 O 0.48262 0.57953 0.1002 0.0
O357 O 0.53851 0.55134 0.05577 0.0
O358 O 0.42498 0.48738 0.03167 0.0
C359 C 0.52199 0.57481 0.10301 0.0
O360 O 0.49186 0.63834 0.92771 0.0
C361 C 0.444 0.4578 0.99997 0.0
O362 O 0.5 0.57461 0.88115 0.0
O363 O 0.47695 0.46686 0.96476 0.0
C364 C 0.01901 0.63461 0.69171 0.0
O365 O -0.00449 0.63462 0.74677 0.0
Cd366 Cd -0.01581 0.7046 0.79252 0.0
O367 O 0.04521 0.66386 0.68258 0.0
Cd368 Cd 0.08114 0.72232 0.74023 0.0
C369 C 0.00841 0.75418 0.62724 0.0
O370 O 0.04304 0.73271 0.85012 0.0
O371 O 0.07123 0.7886 0.8056 0.0
O372 O 0.13518 0.67505 0.7816 0.0
C373 C 0.04777 0.77209 0.85286 0.0
O374 O -0.01575 0.74187 0.67765 0.0
C375 C 0.16476 0.69406 0.74987 0.0
O376 O 0.04797 0.75002 0.63105 0.0
O377 O 0.15569 0.72701 0.71465 0.0
C378 C -0.01207 0.26906 0.44163 0.0
O379 O -0.01206 0.24557 0.4967 0.0
Cd380 Cd 0.91797 0.23421 0.54246 0.0
O381 O -0.04133 0.29524 0.43249 0.0
Cd382 Cd 0.90023 0.33113 0.49016 0.0
C383 C 0.86835 0.25836 0.37722 0.0
O384 O 0.88987 0.29305 0.60011 0.0
O385 O 0.83398 0.3212 0.55558 0.0
O386 O -0.0525 0.38519 0.53149 0.0
C387 C 0.8505 0.29777 0.60288 0.0
O388 O 0.88067 0.23422 0.42762 0.0
C389 C 0.92847 0.41477 0.49977 0.0
O390 O 0.8725 0.29793 0.38101 0.0
O391 O 0.89552 0.40568 0.46457 0.0
C392 C 0.35339 0.6345 0.312 0.0
O393 O 0.37686 0.63446 0.25691 0.0
Cd394 Cd 0.38826 0.70444 0.21115 0.0
O395 O 0.32723 0.66377 0.32112 0.0
Cd396 Cd 0.29134 0.72224 0.26349 0.0
C397 C 0.36415 0.75403 0.37643 0.0
O398 O 0.32942 0.73258 0.15358 0.0
O399 O 0.3013 0.78849 0.19807 0.0
O400 O 0.23727 0.67499 0.22215 0.0
C401 C 0.32473 0.77196 0.1508 0.0
O402 O 0.38828 0.7417 0.32603 0.0
C403 C 0.2077 0.69402 0.25387 0.0
O404 O 0.32458 0.74991 0.37263 0.0
O405 O 0.21679 0.72696 0.28907 0.0
C406 C -0.01208 0.60347 0.06189 0.0
O407 O -0.01207 0.62695 0.00682 0.0
Cd408 Cd 0.91796 0.63832 0.96106 0.0
O409 O -0.04135 0.57728 0.07103 0.0
Cd410 Cd 0.90019 0.54136 0.01342 0.0
C411 C 0.86837 0.61415 0.12635 0.0
O412 O 0.88984 0.57945 0.9035 0.0
O413 O 0.83394 0.55127 0.94797 0.0
O414 O -0.05256 0.48731 0.9721 0.0
C415 C 0.85047 0.57473 0.90071 0.0
O416 O 0.88069 0.63829 0.07593 0.0
C417 C 0.92842 0.45774 0.00385 0.0
O418 O 0.87251 0.57458 0.12255 0.0
O419 O 0.89548 0.46681 0.03905 0.0
C420 C 0.01903 0.23798 0.81201 0.0
O421 O -0.00443 0.23802 0.7569 0.0
Cd422 Cd -0.01584 0.16804 0.71116 0.0
O423 O 0.04517 0.20869 0.82117 0.0
Cd424 Cd 0.08106 0.1502 0.76369 0.0
C425 C 0.00817 0.11848 0.87654 0.0
O426 O 0.04304 0.13989 0.65372 0.0
O427 O 0.07112 0.08396 0.69821 0.0
O428 O 0.13515 0.19745 0.72244 0.0
C429 C 0.04771 0.10051 0.65092 0.0
O430 O -0.01594 0.13081 0.82608 0.0
C431 C 0.1647 0.17843 0.75422 0.0
O432 O 0.04774 0.12257 0.87279 0.0
O433 O 0.1556 0.14547 0.78941 0.0
C434 C 0.38439 0.26916 0.56236 0.0
O435 O 0.38431 0.24572 0.50722 0.0
Cd436 Cd 0.45428 0.23427 0.46153 0.0
O437 O 0.4137 0.29529 0.57151 0.0
Cd438 Cd 0.47217 0.33116 0.51384 0.0
C439 C 0.50388 0.25835 0.62683 0.0
O440 O 0.48252 0.29308 0.40391 0.0
O441 O 0.53843 0.32117 0.44849 0.0
O442 O 0.42496 0.38522 0.47245 0.0
C443 C 0.5219 0.29775 0.40119 0.0
O444 O 0.49152 0.23422 0.57643 0.0
C445 C 0.44399 0.4148 0.50415 0.0
O446 O 0.49981 0.29793 0.62301 0.0
O447 O 0.47693 0.40572 0.53938 0.0
loop_
_geom_bond_atom_site_label_1
_geom_bond_atom_site_label_2
_geom_bond_distance
_geom_bond_site_symmetry_2
_ccdc_geom_bond_type
C0 O1 1.306 . S
C0 O3 1.160 . S
O1 C0 1.306 . S
O1 Cd2 2.228 . S
Cd2 O1 2.228 . S
Cd2 O6 2.273 . S
Cd2 O10 2.277 . S
O3 C0 1.160 . S
O3 Cd4 2.203 . S
Cd4 O3 2.203 . S
Cd4 O6 2.411 . S
Cd4 O7 2.333 . S
Cd4 O8 2.352 . S
Cd4 O12 2.277 . S
Cd4 O13 2.356 . S
C5 O10 1.209 . S
C5 O12 1.226 . S
O6 Cd2 2.273 . S
O6 Cd4 2.411 . S
O6 C9 1.320 . S
O7 Cd4 2.333 . S
O7 C9 1.214 . S
O8 Cd4 2.352 . S
O8 C11 1.258 . S
C9 O6 1.320 . S
C9 O7 1.214 . S
O10 Cd2 2.277 . S
O10 C5 1.209 . S
C11 O8 1.258 . S
C11 O13 1.282 . S
O12 Cd4 2.277 . S
O12 C5 1.226 . S
O13 Cd4 2.356 . S
O13 C11 1.282 . S
C14 O15 1.306 . S
C14 O17 1.160 . S
O15 C14 1.306 . S
O15 Cd16 2.228 1_455 S
Cd16 O15 2.228 1_655 S
Cd16 O20 2.273 . S
Cd16 O24 2.277 . S
O17 C14 1.160 . S
O17 Cd18 2.203 1_455 S
Cd18 O17 2.203 1_655 S
Cd18 O20 2.411 . S
Cd18 O21 2.333 . S
Cd18 O22 2.352 . S
Cd18 O26 2.277 . S
Cd18 O27 2.356 . S
C19 O24 1.209 . S
C19 O26 1.226 . S
O20 Cd16 2.273 . S
O20 Cd18 2.411 . S
O20 C23 1.320 . S
O21 Cd18 2.333 . S
O21 C23 1.214 . S
O22 Cd18 2.352 . S
O22 C25 1.258 . S
C23 O20 1.320 . S
C23 O21 1.214 . S
O24 Cd16 2.277 . S
O24 C19 1.209 . S
C25 O22 1.258 . S
C25 O27 1.282 . S
O26 Cd18 2.277 . S
O26 C19 1.226 . S
O27 Cd18 2.356 . S
O27 C25 1.282 . S
C28 O29 1.306 . S
C28 O31 1.160 . S
O29 C28 1.306 . S
O29 Cd30 2.228 . S
Cd30 O29 2.228 . S
Cd30 O34 2.273 . S
Cd30 O38 2.277 . S
O31 C28 1.160 . S
O31 Cd32 2.203 . S
Cd32 O31 2.203 . S
Cd32 O34 2.411 . S
Cd32 O35 2.333 . S
Cd32 O36 2.352 . S
Cd32 O40 2.277 . S
Cd32 O41 2.356 . S
C33 O38 1.209 . S
C33 O40 1.226 . S
O34 Cd30 2.273 . S
O34 Cd32 2.411 . S
O34 C37 1.320 . S
O35 Cd32 2.333 . S
O35 C37 1.214 . S
O36 Cd32 2.352 . S
O36 C39 1.258 . S
C37 O34 1.320 . S
C37 O35 1.214 . S
O38 Cd30 2.277 . S
O38 C33 1.209 . S
C39 O36 1.258 . S
C39 O41 1.282 . S
O40 Cd32 2.277 . S
O40 C33 1.226 . S
O41 Cd32 2.356 . S
O41 C39 1.282 . S
C42 O43 1.306 . S
C42 O45 1.160 . S
O43 C42 1.306 . S
O43 Cd44 2.228 1_554 S
Cd44 O43 2.228 1_556 S
Cd44 O48 2.273 . S
Cd44 O52 2.277 1_556 S
O45 C42 1.160 . S
O45 Cd46 2.203 . S
Cd46 O45 2.203 . S
Cd46 O48 2.411 1_554 S
Cd46 O49 2.333 1_554 S
Cd46 O50 2.352 1_554 S
Cd46 O54 2.277 . S
Cd46 O55 2.356 . S
C47 O52 1.209 . S
C47 O54 1.226 . S
O48 Cd44 2.273 . S
O48 Cd46 2.411 1_556 S
O48 C51 1.320 . S
O49 Cd46 2.333 1_556 S
O49 C51 1.214 . S
O50 Cd46 2.352 1_556 S
O50 C53 1.258 1_556 S
C51 O48 1.320 . S
C51 O49 1.214 . S
O52 Cd44 2.277 1_554 S
O52 C47 1.209 . S
C53 O50 1.258 1_554 S
C53 O55 1.282 . S
O54 Cd46 2.277 . S
O54 C47 1.226 . S
O55 Cd46 2.356 . S
O55 C53 1.282 . S
C56 O57 1.306 . S
C56 O59 1.160 . S
O57 C56 1.306 . S
O57 Cd58 2.228 . S
Cd58 O57 2.228 . S
Cd58 O62 2.273 . S
Cd58 O66 2.277 . S
O59 C56 1.160 . S
O59 Cd60 2.203 . S
Cd60 O59 2.203 . S
Cd60 O62 2.411 . S
Cd60 O63 2.333 . S
Cd60 O64 2.352 . S
Cd60 O68 2.277 . S
Cd60 O69 2.356 . S
C61 O66 1.209 . S
C61 O68 1.226 . S
O62 Cd58 2.273 . S
O62 Cd60 2.411 . S
O62 C65 1.320 . S
O63 Cd60 2.333 . S
O63 C65 1.214 . S
O64 Cd60 2.352 . S
O64 C67 1.258 . S
C65 O62 1.320 . S
C65 O63 1.214 . S
O66 Cd58 2.277 . S
O66 C61 1.209 . S
C67 O64 1.258 . S
C67 O69 1.282 . S
O68 Cd60 2.277 . S
O68 C61 1.226 . S
O69 Cd60 2.356 . S
O69 C67 1.282 . S
C70 O71 1.306 . S
C70 O73 1.160 . S
O71 C70 1.306 . S
O71 Cd72 2.228 . S
Cd72 O71 2.228 . S
Cd72 O76 2.273 . S
Cd72 O80 2.277 . S
O73 C70 1.160 . S
O73 Cd74 2.203 . S
Cd74 O73 2.203 . S
Cd74 O76 2.411 . S
Cd74 O77 2.333 . S
Cd74 O78 2.352 . S
Cd74 O82 2.277 . S
Cd74 O83 2.356 . S
C75 O80 1.209 . S
C75 O82 1.226 . S
O76 Cd72 2.273 . S
O76 Cd74 2.411 . S
O76 C79 1.320 . S
O77 Cd74 2.333 . S
O77 C79 1.214 . S
O78 Cd74 2.352 . S
O78 C81 1.258 . S
C79 O76 1.320 . S
C79 O77 1.214 . S
O80 Cd72 2.277 . S
O80 C75 1.209 . S
C81 O78 1.258 . S
C81 O83 1.282 . S
O82 Cd74 2.277 . S
O82 C75 1.226 . S
O83 Cd74 2.356 . S
O83 C81 1.282 . S
C84 O85 1.306 . S
C84 O87 1.160 . S
O85 C84 1.306 . S
O85 Cd86 2.228 . S
Cd86 O85 2.228 . S
Cd86 O90 2.273 . S
Cd86 O94 2.277 . S
O87 C84 1.160 . S
O87 Cd88 2.203 . S
Cd88 O87 2.203 . S
Cd88 O90 2.411 . S
Cd88 O91 2.333 . S
Cd88 O92 2.352 . S
Cd88 O96 2.277 . S
Cd88 O97 2.356 . S
C89 O94 1.209 . S
C89 O96 1.226 . S
O90 Cd86 2.273 . S
O90 Cd88 2.411 . S
O90 C93 1.320 . S
O91 Cd88 2.333 . S
O91 C93 1.214 . S
O92 Cd88 2.352 . S
O92 C95 1.258 . S
C93 O90 1.320 . S
C93 O91 1.214 . S
O94 Cd86 2.277 . S
O94 C89 1.209 . S
C95 O92 1.258 . S
C95 O97 1.282 . S
O96 Cd88 2.277 . S
O96 C89 1.226 . S
O97 Cd88 2.356 . S
O97 C95 1.282 . S
C98 O99 1.306 . S
C98 O101 1.160 . S
O99 C98 1.306 . S
O99 Cd100 2.228 1_456 S
Cd100 O99 2.228 1_654 S
Cd100 O104 2.273 . S
Cd100 O108 2.277 1_554 S
O101 C98 1.160 . S
O101 Cd102 2.203 1_455 S
Cd102 O101 2.203 1_655 S
Cd102 O104 2.411 1_556 S
Cd102 O105 2.333 1_556 S
Cd102 O106 2.352 1_556 S
Cd102 O110 2.277 . S
Cd102 O111 2.356 . S
C103 O108 1.209 . S
C103 O110 1.226 . S
O104 Cd100 2.273 . S
O104 Cd102 2.411 1_554 S
O104 C107 1.320 . S
O105 Cd102 2.333 1_554 S
O105 C107 1.214 . S
O106 Cd102 2.352 1_554 S
O106 C109 1.258 1_554 S
C107 O104 1.320 . S
C107 O105 1.214 . S
O108 Cd100 2.277 1_556 S
O108 C103 1.209 . S
C109 O106 1.258 1_556 S
C109 O111 1.282 . S
O110 Cd102 2.277 . S
O110 C103 1.226 . S
O111 Cd102 2.356 . S
O111 C109 1.282 . S
C112 O113 1.306 . S
C112 O115 1.160 . S
O113 C112 1.306 . S
O113 Cd114 2.228 . S
Cd114 O113 2.228 . S
Cd114 O118 2.273 . S
Cd114 O122 2.277 . S
O115 C112 1.160 . S
O115 Cd116 2.203 . S
Cd116 O115 2.203 . S
Cd116 O118 2.411 . S
Cd116 O119 2.333 . S
Cd116 O120 2.352 . S
Cd116 O124 2.277 . S
Cd116 O125 2.356 . S
C117 O122 1.209 . S
C117 O124 1.226 . S
O118 Cd114 2.273 . S
O118 Cd116 2.411 . S
O118 C121 1.320 . S
O119 Cd116 2.333 . S
O119 C121 1.214 . S
O120 Cd116 2.352 . S
O120 C123 1.258 . S
C121 O118 1.320 . S
C121 O119 1.214 . S
O122 Cd114 2.277 . S
O122 C117 1.209 . S
C123 O120 1.258 . S
C123 O125 1.282 . S
O124 Cd116 2.277 . S
O124 C117 1.226 . S
O125 Cd116 2.356 . S
O125 C123 1.282 . S
C126 O127 1.306 . S
C126 O129 1.160 . S
O127 C126 1.306 . S
O127 Cd128 2.228 1_655 S
Cd128 O127 2.228 1_455 S
Cd128 O132 2.273 . S
Cd128 O136 2.277 . S
O129 C126 1.160 . S
O129 Cd130 2.203 1_655 S
Cd130 O129 2.203 1_455 S
Cd130 O132 2.411 . S
Cd130 O133 2.333 . S
Cd130 O134 2.352 . S
Cd130 O138 2.277 . S
Cd130 O139 2.356 . S
C131 O136 1.209 . S
C131 O138 1.226 . S
O132 Cd128 2.273 . S
O132 Cd130 2.411 . S
O132 C135 1.320 . S
O133 Cd130 2.333 . S
O133 C135 1.214 . S
O134 Cd130 2.352 . S
O134 C137 1.258 . S
C135 O132 1.320 . S
C135 O133 1.214 . S
O136 Cd128 2.277 . S
O136 C131 1.209 . S
C137 O134 1.258 . S
C137 O139 1.282 . S
O138 Cd130 2.277 . S
O138 C131 1.226 . S
O139 Cd130 2.356 . S
O139 C137 1.282 . S
C140 O141 1.306 . S
C140 O143 1.160 . S
O141 C140 1.306 . S
O141 Cd142 2.228 . S
Cd142 O141 2.228 . S
Cd142 O146 2.273 . S
Cd142 O150 2.277 . S
O143 C140 1.160 . S
O143 Cd144 2.203 . S
Cd144 O143 2.203 . S
Cd144 O146 2.411 . S
Cd144 O147 2.333 . S
Cd144 O148 2.352 . S
Cd144 O152 2.277 . S
Cd144 O153 2.356 . S
C145 O150 1.209 . S
C145 O152 1.226 . S
O146 Cd142 2.273 . S
O146 Cd144 2.411 . S
O146 C149 1.320 . S
O147 Cd144 2.333 . S
O147 C149 1.214 . S
O148 Cd144 2.352 . S
O148 C151 1.258 . S
C149 O146 1.320 . S
C149 O147 1.214 . S
O150 Cd142 2.277 . S
O150 C145 1.209 . S
C151 O148 1.258 . S
C151 O153 1.282 . S
O152 Cd144 2.277 . S
O152 C145 1.226 . S
O153 Cd144 2.356 . S
O153 C151 1.282 . S
C154 O155 1.306 . S
C154 O157 1.160 . S
O155 C154 1.306 . S
O155 Cd156 2.228 1_556 S
Cd156 O155 2.228 1_554 S
Cd156 O160 2.273 . S
Cd156 O164 2.277 1_554 S
O157 C154 1.160 . S
O157 Cd158 2.203 . S
Cd158 O157 2.203 . S
Cd158 O160 2.411 1_556 S
Cd158 O161 2.333 1_556 S
Cd158 O162 2.352 1_556 S
Cd158 O166 2.277 . S
Cd158 O167 2.356 . S
C159 O164 1.209 . S
C159 O166 1.226 . S
O160 Cd156 2.273 . S
O160 Cd158 2.411 1_554 S
O160 C163 1.320 . S
O161 Cd158 2.333 1_554 S
O161 C163 1.214 . S
O162 Cd158 2.352 1_554 S
O162 C165 1.258 1_554 S
C163 O160 1.320 . S
C163 O161 1.214 . S
O164 Cd156 2.277 1_556 S
O164 C159 1.209 . S
C165 O162 1.258 1_556 S
C165 O167 1.282 . S
O166 Cd158 2.277 . S
O166 C159 1.226 . S
O167 Cd158 2.356 . S
O167 C165 1.282 . S
C168 O169 1.306 . S
C168 O171 1.160 . S
O169 C168 1.306 . S
O169 Cd170 2.228 . S
Cd170 O169 2.228 . S
Cd170 O174 2.273 . S
Cd170 O178 2.277 . S
O171 C168 1.160 . S
O171 Cd172 2.203 . S
Cd172 O171 2.203 . S
Cd172 O174 2.411 . S
Cd172 O175 2.333 . S
Cd172 O176 2.352 . S
Cd172 O180 2.277 . S
Cd172 O181 2.356 . S
C173 O178 1.209 . S
C173 O180 1.226 . S
O174 Cd170 2.273 . S
O174 Cd172 2.411 . S
O174 C177 1.320 . S
O175 Cd172 2.333 . S
O175 C177 1.214 . S
O176 Cd172 2.352 . S
O176 C179 1.258 . S
C177 O174 1.320 . S
C177 O175 1.214 . S
O178 Cd170 2.277 . S
O178 C173 1.209 . S
C179 O176 1.258 . S
C179 O181 1.282 . S
O180 Cd172 2.277 . S
O180 C173 1.226 . S
O181 Cd172 2.356 . S
O181 C179 1.282 . S
C182 O183 1.306 . S
C182 O185 1.160 . S
O183 C182 1.306 . S
O183 Cd184 2.228 . S
Cd184 O183 2.228 . S
Cd184 O188 2.273 . S
Cd184 O192 2.277 . S
O185 C182 1.160 . S
O185 Cd186 2.203 . S
Cd186 O185 2.203 . S
Cd186 O188 2.411 . S
Cd186 O189 2.333 . S
Cd186 O190 2.352 . S
Cd186 O194 2.277 . S
Cd186 O195 2.356 . S
C187 O192 1.209 . S
C187 O194 1.226 . S
O188 Cd184 2.273 . S
O188 Cd186 2.411 . S
O188 C191 1.320 . S
O189 Cd186 2.333 . S
O189 C191 1.214 . S
O190 Cd186 2.352 . S
O190 C193 1.258 . S
C191 O188 1.320 . S
C191 O189 1.214 . S
O192 Cd184 2.277 . S
O192 C187 1.209 . S
C193 O190 1.258 . S
C193 O195 1.282 . S
O194 Cd186 2.277 . S
O194 C187 1.226 . S
O195 Cd186 2.356 . S
O195 C193 1.282 . S
C196 O197 1.306 . S
C196 O199 1.160 . S
O197 C196 1.306 . S
O197 Cd198 2.228 . S
Cd198 O197 2.228 . S
Cd198 O202 2.273 . S
Cd198 O206 2.277 . S
O199 C196 1.160 . S
O199 Cd200 2.203 . S
Cd200 O199 2.203 . S
Cd200 O202 2.411 . S
Cd200 O203 2.333 . S
Cd200 O204 2.352 . S
Cd200 O208 2.277 . S
Cd200 O209 2.356 . S
C201 O206 1.209 . S
C201 O208 1.226 . S
O202 Cd198 2.273 . S
O202 Cd200 2.411 . S
O202 C205 1.320 . S
O203 Cd200 2.333 . S
O203 C205 1.214 . S
O204 Cd200 2.352 . S
O204 C207 1.258 . S
C205 O202 1.320 . S
C205 O203 1.214 . S
O206 Cd198 2.277 . S
O206 C201 1.209 . S
C207 O204 1.258 . S
C207 O209 1.282 . S
O208 Cd200 2.277 . S
O208 C201 1.226 . S
O209 Cd200 2.356 . S
O209 C207 1.282 . S
C210 O211 1.306 . S
C210 O213 1.160 . S
O211 C210 1.306 . S
O211 Cd212 2.228 1_654 S
Cd212 O211 2.228 1_456 S
Cd212 O216 2.273 . S
Cd212 O220 2.277 1_556 S
O213 C210 1.160 . S
O213 Cd214 2.203 1_655 S
Cd214 O213 2.203 1_455 S
Cd214 O216 2.411 1_554 S
Cd214 O217 2.333 1_554 S
Cd214 O218 2.352 1_554 S
Cd214 O222 2.277 . S
Cd214 O223 2.356 . S
C215 O220 1.209 . S
C215 O222 1.226 . S
O216 Cd212 2.273 . S
O216 Cd214 2.411 1_556 S
O216 C219 1.320 . S
O217 Cd214 2.333 1_556 S
O217 C219 1.214 . S
O218 Cd214 2.352 1_556 S
O218 C221 1.258 1_556 S
C219 O216 1.320 . S
C219 O217 1.214 . S
O220 Cd212 2.277 1_554 S
O220 C215 1.209 . S
C221 O218 1.258 1_554 S
C221 O223 1.282 . S
O222 Cd214 2.277 . S
O222 C215 1.226 . S
O223 Cd214 2.356 . S
O223 C221 1.282 . S
C224 O225 1.306 . S
C224 O227 1.160 . S
O225 C224 1.306 . S
O225 Cd226 2.228 . S
Cd226 O225 2.228 . S
Cd226 O230 2.273 . S
Cd226 O234 2.277 . S
O227 C224 1.160 . S
O227 Cd228 2.203 . S
Cd228 O227 2.203 . S
Cd228 O230 2.411 . S
Cd228 O231 2.333 . S
Cd228 O232 2.352 . S
Cd228 O236 2.277 . S
Cd228 O237 2.356 . S
C229 O234 1.209 . S
C229 O236 1.226 . S
O230 Cd226 2.273 . S
O230 Cd228 2.411 . S
O230 C233 1.320 . S
O231 Cd228 2.333 . S
O231 C233 1.214 . S
O232 Cd228 2.352 . S
O232 C235 1.258 . S
C233 O230 1.320 . S
C233 O231 1.214 . S
O234 Cd226 2.277 . S
O234 C229 1.209 . S
C235 O232 1.258 . S
C235 O237 1.282 . S
O236 Cd228 2.277 . S
O236 C229 1.226 . S
O237 Cd228 2.356 . S
O237 C235 1.282 . S
C238 O239 1.306 . S
C238 O241 1.160 . S
O239 C238 1.306 . S
O239 Cd240 2.228 1_554 S
Cd240 O239 2.228 1_556 S
Cd240 O244 2.273 . S
Cd240 O248 2.277 1_556 S
O241 C238 1.160 . S
O241 Cd242 2.203 . S
Cd242 O241 2.203 . S
Cd242 O244 2.411 1_554 S
Cd242 O245 2.333 1_554 S
Cd242 O246 2.352 1_554 S
Cd242 O250 2.277 . S
Cd242 O251 2.356 . S
C243 O248 1.209 . S
C243 O250 1.226 . S
O244 Cd240 2.273 . S
O244 Cd242 2.411 1_556 S
O244 C247 1.320 . S
O245 Cd242 2.333 1_556 S
O245 C247 1.214 . S
O246 Cd242 2.352 1_556 S
O246 C249 1.258 1_556 S
C247 O244 1.320 . S
C247 O245 1.214 . S
O248 Cd240 2.277 1_554 S
O248 C243 1.209 . S
C249 O246 1.258 1_554 S
C249 O251 1.282 . S
O250 Cd242 2.277 . S
O250 C243 1.226 . S
O251 Cd242 2.356 . S
O251 C249 1.282 . S
C252 O253 1.306 . S
C252 O255 1.160 . S
O253 C252 1.306 . S
O253 Cd254 2.228 . S
Cd254 O253 2.228 . S
Cd254 O258 2.273 . S
Cd254 O262 2.277 . S
O255 C252 1.160 . S
O255 Cd256 2.203 . S
Cd256 O255 2.203 . S
Cd256 O258 2.411 . S
Cd256 O259 2.333 . S
Cd256 O260 2.352 . S
Cd256 O264 2.277 . S
Cd256 O265 2.356 . S
C257 O262 1.209 . S
C257 O264 1.226 . S
O258 Cd254 2.273 . S
O258 Cd256 2.411 . S
O258 C261 1.320 . S
O259 Cd256 2.333 . S
O259 C261 1.214 . S
O260 Cd256 2.352 . S
O260 C263 1.258 . S
C261 O258 1.320 . S
C261 O259 1.214 . S
O262 Cd254 2.277 . S
O262 C257 1.209 . S
C263 O260 1.258 . S
C263 O265 1.282 . S
O264 Cd256 2.277 . S
O264 C257 1.226 . S
O265 Cd256 2.356 . S
O265 C263 1.282 . S
C266 O267 1.306 . S
C266 O269 1.160 . S
O267 C266 1.306 . S
O267 Cd268 2.228 1_655 S
Cd268 O267 2.228 1_455 S
Cd268 O272 2.273 . S
Cd268 O276 2.277 . S
O269 C266 1.160 . S
O269 Cd270 2.203 1_655 S
Cd270 O269 2.203 1_455 S
Cd270 O272 2.411 . S
Cd270 O273 2.333 . S
Cd270 O274 2.352 . S
Cd270 O278 2.277 . S
Cd270 O279 2.356 . S
C271 O276 1.209 . S
C271 O278 1.226 . S
O272 Cd268 2.273 . S
O272 Cd270 2.411 . S
O272 C275 1.320 . S
O273 Cd270 2.333 . S
O273 C275 1.214 . S
O274 Cd270 2.352 . S
O274 C277 1.258 . S
C275 O272 1.320 . S
C275 O273 1.214 . S
O276 Cd268 2.277 . S
O276 C271 1.209 . S
C277 O274 1.258 . S
C277 O279 1.282 . S
O278 Cd270 2.277 . S
O278 C271 1.226 . S
O279 Cd270 2.356 . S
O279 C277 1.282 . S
C280 O281 1.306 . S
C280 O283 1.160 . S
O281 C280 1.306 . S
O281 Cd282 2.228 . S
Cd282 O281 2.228 . S
Cd282 O286 2.273 . S
Cd282 O290 2.277 . S
O283 C280 1.160 . S
O283 Cd284 2.203 . S
Cd284 O283 2.203 . S
Cd284 O286 2.411 . S
Cd284 O287 2.333 . S
Cd284 O288 2.352 . S
Cd284 O292 2.277 . S
Cd284 O293 2.356 . S
C285 O290 1.209 . S
C285 O292 1.226 . S
O286 Cd282 2.273 . S
O286 Cd284 2.411 . S
O286 C289 1.320 . S
O287 Cd284 2.333 . S
O287 C289 1.214 . S
O288 Cd284 2.352 . S
O288 C291 1.258 . S
C289 O286 1.320 . S
C289 O287 1.214 . S
O290 Cd282 2.277 . S
O290 C285 1.209 . S
C291 O288 1.258 . S
C291 O293 1.282 . S
O292 Cd284 2.277 . S
O292 C285 1.226 . S
O293 Cd284 2.356 . S
O293 C291 1.282 . S
C294 O295 1.306 . S
C294 O297 1.160 . S
O295 C294 1.306 . S
O295 Cd296 2.228 1_656 S
Cd296 O295 2.228 1_454 S
Cd296 O300 2.273 . S
Cd296 O304 2.277 1_554 S
O297 C294 1.160 . S
O297 Cd298 2.203 1_655 S
Cd298 O297 2.203 1_455 S
Cd298 O300 2.411 1_556 S
Cd298 O301 2.333 1_556 S
Cd298 O302 2.352 1_556 S
Cd298 O306 2.277 . S
Cd298 O307 2.356 . S
C299 O304 1.209 . S
C299 O306 1.226 . S
O300 Cd296 2.273 . S
O300 Cd298 2.411 1_554 S
O300 C303 1.320 . S
O301 Cd298 2.333 1_554 S
O301 C303 1.214 . S
O302 Cd298 2.352 1_554 S
O302 C305 1.258 1_554 S
C303 O300 1.320 . S
C303 O301 1.214 . S
O304 Cd296 2.277 1_556 S
O304 C299 1.209 . S
C305 O302 1.258 1_556 S
C305 O307 1.282 . S
O306 Cd298 2.277 . S
O306 C299 1.226 . S
O307 Cd298 2.356 . S
O307 C305 1.282 . S
C308 O309 1.306 . S
C308 O311 1.160 . S
O309 C308 1.306 . S
O309 Cd310 2.228 . S
Cd310 O309 2.228 . S
Cd310 O314 2.273 . S
Cd310 O318 2.277 . S
O311 C308 1.160 . S
O311 Cd312 2.203 . S
Cd312 O311 2.203 . S
Cd312 O314 2.411 . S
Cd312 O315 2.333 . S
Cd312 O316 2.352 . S
Cd312 O320 2.277 . S
Cd312 O321 2.356 . S
C313 O318 1.209 . S
C313 O320 1.226 . S
O314 Cd310 2.273 . S
O314 Cd312 2.411 . S
O314 C317 1.320 . S
O315 Cd312 2.333 . S
O315 C317 1.214 . S
O316 Cd312 2.352 . S
O316 C319 1.258 . S
C317 O314 1.320 . S
C317 O315 1.214 . S
O318 Cd310 2.277 . S
O318 C313 1.209 . S
C319 O316 1.258 . S
C319 O321 1.282 . S
O320 Cd312 2.277 . S
O320 C313 1.226 . S
O321 Cd312 2.356 . S
O321 C319 1.282 . S
C322 O323 1.306 . S
C322 O325 1.160 . S
O323 C322 1.306 . S
O323 Cd324 2.228 . S
Cd324 O323 2.228 . S
Cd324 O328 2.273 . S
Cd324 O332 2.277 . S
O325 C322 1.160 . S
O325 Cd326 2.203 . S
Cd326 O325 2.203 . S
Cd326 O328 2.411 . S
Cd326 O329 2.333 . S
Cd326 O330 2.352 . S
Cd326 O334 2.277 . S
Cd326 O335 2.356 . S
C327 O332 1.209 . S
C327 O334 1.226 . S
O328 Cd324 2.273 . S
O328 Cd326 2.411 . S
O328 C331 1.320 . S
O329 Cd326 2.333 . S
O329 C331 1.214 . S
O330 Cd326 2.352 . S
O330 C333 1.258 . S
C331 O328 1.320 . S
C331 O329 1.214 . S
O332 Cd324 2.277 . S
O332 C327 1.209 . S
C333 O330 1.258 . S
C333 O335 1.282 . S
O334 Cd326 2.277 . S
O334 C327 1.226 . S
O335 Cd326 2.356 . S
O335 C333 1.282 . S
C336 O337 1.306 . S
C336 O339 1.160 . S
O337 C336 1.306 . S
O337 Cd338 2.228 . S
Cd338 O337 2.228 . S
Cd338 O342 2.273 . S
Cd338 O346 2.277 . S
O339 C336 1.160 . S
O339 Cd340 2.203 . S
Cd340 O339 2.203 . S
Cd340 O342 2.411 . S
Cd340 O343 2.333 . S
Cd340 O344 2.352 . S
Cd340 O348 2.277 . S
Cd340 O349 2.356 . S
C341 O346 1.209 . S
C341 O348 1.226 . S
O342 Cd338 2.273 . S
O342 Cd340 2.411 . S
O342 C345 1.320 . S
O343 Cd340 2.333 . S
O343 C345 1.214 . S
O344 Cd340 2.352 . S
O344 C347 1.258 . S
C345 O342 1.320 . S
C345 O343 1.214 . S
O346 Cd338 2.277 . S
O346 C341 1.209 . S
C347 O344 1.258 . S
C347 O349 1.282 . S
O348 Cd340 2.277 . S
O348 C341 1.226 . S
O349 Cd340 2.356 . S
O349 C347 1.282 . S
C350 O351 1.306 . S
C350 O353 1.160 . S
O351 C350 1.306 . S
O351 Cd352 2.228 1_556 S
Cd352 O351 2.228 1_554 S
Cd352 O356 2.273 . S
Cd352 O360 2.277 1_554 S
O353 C350 1.160 . S
O353 Cd354 2.203 . S
Cd354 O353 2.203 . S
Cd354 O356 2.411 1_556 S
Cd354 O357 2.333 1_556 S
Cd354 O358 2.352 1_556 S
Cd354 O362 2.277 . S
Cd354 O363 2.356 . S
C355 O360 1.209 . S
C355 O362 1.226 . S
O356 Cd352 2.273 . S
O356 Cd354 2.411 1_554 S
O356 C359 1.320 . S
O357 Cd354 2.333 1_554 S
O357 C359 1.214 . S
O358 Cd354 2.352 1_554 S
O358 C361 1.258 1_554 S
C359 O356 1.320 . S
C359 O357 1.214 . S
O360 Cd352 2.277 1_556 S
O360 C355 1.209 . S
C361 O358 1.258 1_556 S
C361 O363 1.282 . S
O362 Cd354 2.277 . S
O362 C355 1.226 . S
O363 Cd354 2.356 . S
O363 C361 1.282 . S
C364 O365 1.306 . S
C364 O367 1.160 . S
O365 C364 1.306 . S
O365 Cd366 2.228 . S
Cd366 O365 2.228 . S
Cd366 O370 2.273 . S
Cd366 O374 2.277 . S
O367 C364 1.160 . S
O367 Cd368 2.203 . S
Cd368 O367 2.203 . S
Cd368 O370 2.411 . S
Cd368 O371 2.333 . S
Cd368 O372 2.352 . S
Cd368 O376 2.277 . S
Cd368 O377 2.356 . S
C369 O374 1.209 . S
C369 O376 1.226 . S
O370 Cd366 2.273 . S
O370 Cd368 2.411 . S
O370 C373 1.320 . S
O371 Cd368 2.333 . S
O371 C373 1.214 . S
O372 Cd368 2.352 . S
O372 C375 1.258 . S
C373 O370 1.320 . S
C373 O371 1.214 . S
O374 Cd366 2.277 . S
O374 C369 1.209 . S
C375 O372 1.258 . S
C375 O377 1.282 . S
O376 Cd368 2.277 . S
O376 C369 1.226 . S
O377 Cd368 2.356 . S
O377 C375 1.282 . S
C378 O379 1.306 . S
C378 O381 1.160 . S
O379 C378 1.306 . S
O379 Cd380 2.228 1_455 S
Cd380 O379 2.228 1_655 S
Cd380 O384 2.273 . S
Cd380 O388 2.277 . S
O381 C378 1.160 . S
O381 Cd382 2.203 1_455 S
Cd382 O381 2.203 1_655 S
Cd382 O384 2.411 . S
Cd382 O385 2.333 . S
Cd382 O386 2.352 . S
Cd382 O390 2.277 . S
Cd382 O391 2.356 . S
C383 O388 1.209 . S
C383 O390 1.226 . S
O384 Cd380 2.273 . S
O384 Cd382 2.411 . S
O384 C387 1.320 . S
O385 Cd382 2.333 . S
O385 C387 1.214 . S
O386 Cd382 2.352 . S
O386 C389 1.258 . S
C387 O384 1.320 . S
C387 O385 1.214 . S
O388 Cd380 2.277 . S
O388 C383 1.209 . S
C389 O386 1.258 . S
C389 O391 1.282 . S
O390 Cd382 2.277 . S
O390 C383 1.226 . S
O391 Cd382 2.356 . S
O391 C389 1.282 . S
C392 O393 1.306 . S
C392 O395 1.160 . S
O393 C392 1.306 . S
O393 Cd394 2.228 . S
Cd394 O393 2.228 . S
Cd394 O398 2.273 . S
Cd394 O402 2.277 . S
O395 C392 1.160 . S
O395 Cd396 2.203 . S
Cd396 O395 2.203 . S
Cd396 O398 2.411 . S
Cd396 O399 2.333 . S
Cd396 O400 2.352 . S
Cd396 O404 2.277 . S
Cd396 O405 2.356 . S
C397 O402 1.209 . S
C397 O404 1.226 . S
O398 Cd394 2.273 . S
O398 Cd396 2.411 . S
O398 C401 1.320 . S
O399 Cd396 2.333 . S
O399 C401 1.214 . S
O400 Cd396 2.352 . S
O400 C403 1.258 . S
C401 O398 1.320 . S
C401 O399 1.214 . S
O402 Cd394 2.277 . S
O402 C397 1.209 . S
C403 O400 1.258 . S
C403 O405 1.282 . S
O404 Cd396 2.277 . S
O404 C397 1.226 . S
O405 Cd396 2.356 . S
O405 C403 1.282 . S
C406 O407 1.306 . S
C406 O409 1.160 . S
O407 C406 1.306 . S
O407 Cd408 2.228 1_454 S
Cd408 O407 2.228 1_656 S
Cd408 O412 2.273 . S
Cd408 O416 2.277 1_556 S
O409 C406 1.160 . S
O409 Cd410 2.203 1_455 S
Cd410 O409 2.203 1_655 S
Cd410 O412 2.411 1_554 S
Cd410 O413 2.333 1_554 S
Cd410 O414 2.352 1_554 S
Cd410 O418 2.277 . S
Cd410 O419 2.356 . S
C411 O416 1.209 . S
C411 O418 1.226 . S
O412 Cd408 2.273 . S
O412 Cd410 2.411 1_556 S
O412 C415 1.320 . S
O413 Cd410 2.333 1_556 S
O413 C415 1.214 . S
O414 Cd410 2.352 1_556 S
O414 C417 1.258 1_556 S
C415 O412 1.320 . S
C415 O413 1.214 . S
O416 Cd408 2.277 1_554 S
O416 C411 1.209 . S
C417 O414 1.258 1_554 S
C417 O419 1.282 . S
O418 Cd410 2.277 . S
O418 C411 1.226 . S
O419 Cd410 2.356 . S
O419 C417 1.282 . S
C420 O421 1.306 . S
C420 O423 1.160 . S
O421 C420 1.306 . S
O421 Cd422 2.228 . S
Cd422 O421 2.228 . S
Cd422 O426 2.273 . S
Cd422 O430 2.277 . S
O423 C420 1.160 . S
O423 Cd424 2.203 . S
Cd424 O423 2.203 . S
Cd424 O426 2.411 . S
Cd424 O427 2.333 . S
Cd424 O428 2.352 . S
Cd424 O432 2.277 . S
Cd424 O433 2.356 . S
C425 O430 1.209 . S
C425 O432 1.226 . S
O426 Cd422 2.273 . S
O426 Cd424 2.411 . S
O426 C429 1.320 . S
O427 Cd424 2.333 . S
O427 C429 1.214 . S
O428 Cd424 2.352 . S
O428 C431 1.258 . S
C429 O426 1.320 . S
C429 O427 1.214 . S
O430 Cd422 2.277 . S
O430 C425 1.209 . S
C431 O428 1.258 . S
C431 O433 1.282 . S
O432 Cd424 2.277 . S
O432 C425 1.226 . S
O433 Cd424 2.356 . S
O433 C431 1.282 . S
C434 O435 1.306 . S
C434 O437 1.160 . S
O435 C434 1.306 . S
O435 Cd436 2.228 . S
Cd436 O435 2.228 . S
Cd436 O440 2.273 . S
Cd436 O444 2.277 . S
O437 C434 1.160 . S
O437 Cd438 2.203 . S
Cd438 O437 2.203 . S
Cd438 O440 2.411 . S
Cd438 O441 2.333 . S
Cd438 O442 2.352 . S
Cd438 O446 2.277 . S
Cd438 O447 2.356 . S
C439 O444 1.209 . S
C439 O446 1.226 . S
O440 Cd436 2.273 . S
O440 Cd438 2.411 . S
O440 C443 1.320 . S
O441 Cd438 2.333 . S
O441 C443 1.214 . S
O442 Cd438 2.352 . S
O442 C445 1.258 . S
C443 O440 1.320 . S
C443 O441 1.214 . S
O444 Cd436 2.277 . S
O444 C439 1.209 . S
C445 O442 1.258 . S
C445 O447 1.282 . S
O446 Cd438 2.277 . S
O446 C439 1.226 . S
O447 Cd438 2.356 . S
O447 C445 1.282 . S
C131 C0 1.482 . S
C14 C369 1.482 . S
C159 C28 1.482 . S
C341 C42 1.482 . S
C56 C215 1.482 . S
C397 C70 1.482 . S
C84 C187 1.482 . S
C425 C98 1.482 . S
C19 C112 1.482 . S
C126 C257 1.482 . S
C47 C140 1.482 . S
C154 C229 1.482 . S
C168 C103 1.482 . S
C285 C182 1.482 . S
C196 C75 1.482 . S
C313 C210 1.482 . S
C355 C224 1.482 . S
C145 C238 1.482 . S
C252 C383 1.482 . S
C117 C266 1.482 . S
C439 C280 1.482 . S
C294 C173 1.482 . S
C411 C308 1.482 . S
C201 C322 1.482 . S
C243 C336 1.482 . S
C350 C33 1.482 . S
C364 C271 1.482 . S
C378 C5 1.482 . S
C327 C392 1.482 . S
C406 C61 1.482 . S
C420 C299 1.482 . S
C434 C89 1.482 . S
C347 C11 2.319 . S
C25 C137 2.320 1_665 S
C39 C375 2.320 . S
C53 C165 2.319 1_544 S
C67 C403 2.319 . S
C81 C193 2.319 1_565 S
C431 C95 2.319 . S
C109 C221 2.319 1_646 S
C123 C235 2.319 . S
C151 C263 2.320 . S
C291 C179 2.319 . S
C319 C207 2.319 . S
C249 C361 2.319 1_554 S
C389 C277 2.319 1_655 S
C305 C417 2.320 1_456 S
C445 C333 2.320 . S
C303 C9 1.811 . S
C317 C23 1.811 . S
C37 C331 1.811 . S
C289 C51 1.811 . S
C275 C65 1.811 . S
C233 C79 1.811 . S
C93 C247 1.811 . S
C261 C107 1.811 . S
C415 C121 1.811 . S
C429 C135 1.811 . S
C443 C149 1.811 . S
C163 C401 1.811 . S
C387 C177 1.811 . S
C345 C191 1.811 . S
C359 C205 1.811 . S
C373 C219 1.811 . S
