# Generated by pormake.
# Topology acs-h, (5)-cn, num edge types: 1
# Building blocks:
#     Node 0, Type 0, BuildingBlock: BEQFEK_clean_sbu_0, # of connection points: 5
#     Node 1, Type 0, BuildingBlock: BEQFEK_clean_sbu_0, # of connection points: 5
#     Node 2, Type 0, BuildingBlock: BEQFEK_clean_sbu_0, # of connection points: 5
#     Node 3, Type 0, BuildingBlock: BEQFEK_clean_sbu_0, # of connection points: 5
#     Node 4, Type 0, BuildingBlock: BEQFEK_clean_sbu_0, # of connection points: 5
#     Node 5, Type 0, BuildingBlock: BEQFEK_clean_sbu_0, # of connection points: 5
#     Node 6, Type 0, BuildingBlock: BEQFEK_clean_sbu_0, # of connection points: 5
#     Node 7, Type 0, BuildingBlock: BEQFEK_clean_sbu_0, # of connection points: 5
#     Node 8, Type 0, BuildingBlock: BEQFEK_clean_sbu_0, # of connection points: 5
#     Node 9, Type 0, BuildingBlock: BEQFEK_clean_sbu_0, # of connection points: 5
#     Node 10, Type 0, BuildingBlock: BEQFEK_clean_sbu_0, # of connection points: 5
#     Node 11, Type 0, BuildingBlock: BEQFEK_clean_sbu_0, # of connection points: 5
#     Edge 12, Type (0, 0), BuildingBlock: TEMPAE_clean_linker_10, # of connection points: 2
#     Edge 13, Type (0, 0), BuildingBlock: TEMPAE_clean_linker_10, # of connection points: 2
#     Edge 14, Type (0, 0), BuildingBlock: TEMPAE_clean_linker_10, # of connection points: 2
#     Edge 15, Type (0, 0), BuildingBlock: TEMPAE_clean_linker_10, # of connection points: 2
#     Edge 16, Type (0, 0), BuildingBlock: TEMPAE_clean_linker_10, # of connection points: 2
#     Edge 17, Type (0, 0), BuildingBlock: TEMPAE_clean_linker_10, # of connection points: 2
#     Edge 18, Type (0, 0), BuildingBlock: TEMPAE_clean_linker_10, # of connection points: 2
#     Edge 19, Type (0, 0), BuildingBlock: TEMPAE_clean_linker_10, # of connection points: 2
#     Edge 20, Type (0, 0), BuildingBlock: TEMPAE_clean_linker_10, # of connection points: 2
#     Edge 21, Type (0, 0), BuildingBlock: TEMPAE_clean_linker_10, # of connection points: 2
#     Edge 22, Type (0, 0), BuildingBlock: TEMPAE_clean_linker_10, # of connection points: 2
#     Edge 23, Type (0, 0), BuildingBlock: TEMPAE_clean_linker_10, # of connection points: 2
#     Edge 24, Type (0, 0), BuildingBlock: TEMPAE_clean_linker_10, # of connection points: 2
#     Edge 25, Type (0, 0), BuildingBlock: TEMPAE_clean_linker_10, # of connection points: 2
#     Edge 26, Type (0, 0), BuildingBlock: TEMPAE_clean_linker_10, # of connection points: 2
#     Edge 27, Type (0, 0), BuildingBlock: TEMPAE_clean_linker_10, # of connection points: 2
#     Edge 28, Type (0, 0), BuildingBlock: TEMPAE_clean_linker_10, # of connection points: 2
#     Edge 29, Type (0, 0), BuildingBlock: TEMPAE_clean_linker_10, # of connection points: 2
#     Edge 30, Type (0, 0), BuildingBlock: TEMPAE_clean_linker_10, # of connection points: 2
#     Edge 31, Type (0, 0), BuildingBlock: TEMPAE_clean_linker_10, # of connection points: 2
#     Edge 32, Type (0, 0), BuildingBlock: TEMPAE_clean_linker_10, # of connection points: 2
#     Edge 33, Type (0, 0), BuildingBlock: TEMPAE_clean_linker_10, # of connection points: 2
#     Edge 34, Type (0, 0), BuildingBlock: TEMPAE_clean_linker_10, # of connection points: 2
#     Edge 35, Type (0, 0), BuildingBlock: TEMPAE_clean_linker_10, # of connection points: 2
#     Edge 36, Type (0, 0), BuildingBlock: TEMPAE_clean_linker_10, # of connection points: 2
#     Edge 37, Type (0, 0), BuildingBlock: TEMPAE_clean_linker_10, # of connection points: 2
#     Edge 38, Type (0, 0), BuildingBlock: TEMPAE_clean_linker_10, # of connection points: 2
#     Edge 39, Type (0, 0), BuildingBlock: TEMPAE_clean_linker_10, # of connection points: 2
#     Edge 40, Type (0, 0), BuildingBlock: TEMPAE_clean_linker_10, # of connection points: 2
#     Edge 41, Type (0, 0), BuildingBlock: TEMPAE_clean_linker_10, # of connection points: 2
# Relax obj value: 1.225
# Max RMSD: 0.210
# Mean RMSD: 0.210
data_MOF--net-acs-h--node1-BEQFEK_clean_sbu_0--edge1-TEMPAE_clean_linker_10
_symmetry_space_group_name_H-M    P1
_symmetry_Int_Tables_number       1
_symmetry_cell_setting            triclinic
loop_
_symmetry_equiv_pos_as_xyz
'x, y, z'
_cell_length_a     42.861691
_cell_length_b     42.89105
_cell_length_c     37.479526
_cell_angle_alpha  89.945706
_cell_angle_beta   90.031232
_cell_angle_gamma 119.95239
loop_
_atom_site_label
_atom_site_type_symbol
_atom_site_fract_x
_atom_site_fract_y
_atom_site_fract_z
_atom_type_partial_charge
Co0 Co 0.42408 0.07938 0.10215 0.0
Co1 Co 0.44026 0.15451 0.07329 0.0
C2 C 0.49902 0.14511 0.09918 0.0
O3 O 0.47777 0.11149 0.10261 0.0
O4 O 0.48722 0.16621 0.09188 0.0
C5 C 0.43206 0.04729 0.1598 0.0
O6 O 0.44544 0.08121 0.16885 0.0
C7 C 0.46539 0.23117 0.0779 0.0
C8 C 0.43243 0.24015 0.03846 0.0
C9 C 0.45773 0.25697 0.06524 0.0
N10 N 0.44477 0.20011 0.06036 0.0
N11 N 0.42542 0.20578 0.03645 0.0
C12 C 0.49295 0.23618 0.10543 0.0
H13 H 0.51457 0.23328 0.09237 0.0
H14 H 0.48039 0.21513 0.1263 0.0
H15 H 0.50586 0.2631 0.118 0.0
C16 C 0.37546 0.09121 0.15007 0.0
N17 N 0.39812 0.10021 0.12207 0.0
N18 N 0.40419 0.1313 0.1092 0.0
C19 C 0.38609 0.14323 0.12919 0.0
C20 C 0.36771 0.11847 0.15609 0.0
C21 C 0.3623 0.05786 0.17211 0.0
H22 H 0.36001 0.0354 0.15556 0.0
H23 H 0.3813 0.06301 0.19439 0.0
H24 H 0.33566 0.05014 0.18394 0.0
O25 O 0.41062 0.06757 0.05225 0.0
O26 O 0.43808 0.12363 0.03176 0.0
H27 H 0.38714 0.18554 0.09793 0.0
H28 H 0.37047 0.18284 0.14238 0.0
C29 C 0.39048 0.18003 0.12609 0.0
H30 H 0.41773 0.2003 0.13534 0.0
H31 H 0.40654 0.18592 0.01963 0.0
O32 O 0.41732 0.03717 0.12942 0.0
C33 C 0.42743 0.09016 0.02754 0.0
Co34 Co 0.93898 0.39022 0.08624 0.0
Co35 Co 0.86675 0.33437 0.05124 0.0
C36 C 0.87519 0.40022 0.08825 0.0
O37 O 0.90863 0.41283 0.09402 0.0
O38 O 0.85614 0.36923 0.07457 0.0
C39 C 0.00617 0.45128 0.10362 0.0
O40 O 0.00161 0.46319 0.07285 0.0
C41 C 0.79192 0.28396 0.06102 0.0
C42 C 0.77369 0.2548 0.00995 0.0
C43 C 0.76166 0.25741 0.04368 0.0
N44 N 0.82014 0.29642 0.03868 0.0
N45 N 0.80919 0.27897 0.00811 0.0
C46 C 0.79516 0.2959 0.09911 0.0
H47 H 0.78755 0.31702 0.10121 0.0
H48 H 0.82329 0.30767 0.10858 0.0
H49 H 0.77722 0.27298 0.11662 0.0
C50 C 0.91962 0.32672 0.13231 0.0
N51 N 0.9164 0.34202 0.10212 0.0
N52 N 0.88958 0.31762 0.08316 0.0
C53 C 0.87632 0.28556 0.09961 0.0
C54 C 0.89389 0.29028 0.13198 0.0
C55 C 0.94282 0.34786 0.16305 0.0
H56 H 0.97152 0.35967 0.15535 0.0
H57 H 0.93811 0.3705 0.16919 0.0
H58 H 0.93752 0.33086 0.18713 0.0
O59 O 0.95037 0.39469 0.0348 0.0
O60 O 0.8961 0.36344 0.0104 0.0
H61 H 0.84323 0.25167 0.05681 0.0
H62 H 0.84927 0.22814 0.09393 0.0
C63 C 0.84541 0.25099 0.08624 0.0
H64 H 0.81996 0.24621 0.09865 0.0
H65 H 0.82583 0.28363 0.98607 0.0
O66 O 0.9836 0.41934 0.11311 0.0
C67 C 0.92901 0.38829 0.00869 0.0
Co68 Co 0.63355 0.59065 0.14171 0.0
Co69 Co 0.67518 0.56475 0.09482 0.0
C70 C 0.61498 0.51166 0.134 0.0
O71 O 0.60704 0.53593 0.14121 0.0
O72 O 0.645 0.51984 0.11986 0.0
C73 C 0.60635 0.58718 0.20716 0.0
O74 O 0.62666 0.57248 0.21128 0.0
C75 C 0.71686 0.53207 0.07004 0.0
C76 C 0.76031 0.57576 0.03887 0.0
C77 C 0.74972 0.54251 0.05409 0.0
N78 N 0.70887 0.55848 0.06594 0.0
N79 N 0.73446 0.58408 0.04623 0.0
C80 C 0.69444 0.49803 0.09052 0.0
H81 H 0.66602 0.4857 0.08172 0.0
H82 H 0.696 0.50413 0.11943 0.0
H83 H 0.70362 0.47829 0.08609 0.0
C84 C 0.70476 0.63215 0.17749 0.0
N85 N 0.68301 0.61124 0.15112 0.0
N86 N 0.70075 0.60041 0.13081 0.0
C87 C 0.73379 0.61246 0.14495 0.0
C88 C 0.73751 0.63314 0.17493 0.0
C89 C 0.69426 0.64992 0.20562 0.0
H90 H 0.67315 0.65535 0.19542 0.0
H91 H 0.68384 0.63224 0.22938 0.0
H92 H 0.71813 0.67551 0.21415 0.0
O93 O 0.62872 0.60783 0.0956 0.0
O94 O 0.63671 0.56829 0.0658 0.0
H95 H 0.77054 0.60967 0.10842 0.0
H96 H 0.77985 0.60493 0.15422 0.0
C97 C 0.75808 0.59821 0.13459 0.0
H98 H 0.74206 0.56858 0.1323 0.0
H99 H 0.73587 0.60853 0.04037 0.0
O100 O 0.60746 0.60201 0.17758 0.0
C101 C 0.61993 0.58565 0.07015 0.0
Co102 Co 0.94067 0.5419 0.37942 0.0
Co103 Co 0.87834 0.52699 0.43168 0.0
C104 C 0.88145 0.46687 0.39931 0.0
O105 O 0.91267 0.48852 0.38725 0.0
O106 O 0.86222 0.47845 0.41329 0.0
C107 C 0.95976 0.52985 0.31449 0.0
O108 O 0.92466 0.50853 0.31566 0.0
C109 C 0.80348 0.50408 0.44261 0.0
C110 C 0.80122 0.53092 0.49188 0.0
C111 C 0.78031 0.50985 0.46371 0.0
N112 N 0.83672 0.52167 0.45686 0.0
N113 N 0.83518 0.53737 0.48664 0.0
C114 C 0.79439 0.48172 0.40938 0.0
H115 H 0.79436 0.4565 0.41583 0.0
H116 H 0.81516 0.49626 0.38864 0.0
H117 H 0.76747 0.47398 0.3986 0.0
C118 C 0.91217 0.5827 0.3407 0.0
N119 N 0.91209 0.56226 0.36807 0.0
N120 N 0.88883 0.55988 0.39234 0.0
C121 C 0.87356 0.57915 0.38104 0.0
C122 C 0.88753 0.59378 0.34781 0.0
C123 C 0.93599 0.59243 0.30859 0.0
H124 H 0.96365 0.59966 0.31675 0.0
H125 H 0.92537 0.569 0.29033 0.0
H126 H 0.93694 0.61542 0.29399 0.0
O127 O 0.96493 0.5653 0.42352 0.0
O128 O 0.92129 0.53313 0.46138 0.0
H129 H 0.84855 0.58227 0.42948 0.0
H130 H 0.84347 0.60615 0.39267 0.0
C131 C 0.84433 0.58166 0.40032 0.0
H132 H 0.81801 0.55813 0.39323 0.0
H133 H 0.85742 0.55356 0.5026 0.0
O134 O 0.97533 0.55002 0.34105 0.0
C135 C 0.95436 0.54707 0.45208 0.0
Co136 Co 0.44023 0.36624 0.40532 0.0
Co137 Co 0.4607 0.31764 0.44769 0.0
C138 C 0.51698 0.37784 0.4115 0.0
O139 O 0.49489 0.38916 0.40626 0.0
O140 O 0.50608 0.34614 0.42274 0.0
C141 C 0.44427 0.39767 0.3409 0.0
O142 O 0.45968 0.37835 0.33441 0.0
C143 C 0.49252 0.27591 0.47324 0.0
C144 C 0.44486 0.22456 0.48838 0.0
C145 C 0.48128 0.24019 0.48086 0.0
N146 N 0.46386 0.28075 0.47404 0.0
N147 N 0.43567 0.25027 0.48465 0.0
C148 C 0.53011 0.30483 0.46456 0.0
H149 H 0.53508 0.33103 0.4753 0.0
H150 H 0.5338 0.30722 0.43524 0.0
H151 H 0.55009 0.29835 0.47604 0.0
C152 C 0.39337 0.29846 0.36654 0.0
N153 N 0.41612 0.31734 0.39314 0.0
N154 N 0.42477 0.29638 0.41104 0.0
C155 C 0.40968 0.26403 0.39464 0.0
C156 C 0.38885 0.26417 0.36626 0.0
C157 C 0.37667 0.31296 0.34126 0.0
H158 H 0.37284 0.3339 0.35452 0.0
H159 H 0.39442 0.32497 0.31775 0.0
H160 H 0.35032 0.29097 0.33159 0.0
O161 O 0.42363 0.36969 0.45218 0.0
O162 O 0.46067 0.35619 0.47959 0.0
H163 H 0.40301 0.21734 0.42185 0.0
H164 H 0.41793 0.22071 0.37657 0.0
C165 C 0.42068 0.23638 0.40107 0.0
H166 H 0.44905 0.24949 0.41007 0.0
H167 H 0.40947 0.24594 0.48575 0.0
O168 O 0.43057 0.39535 0.37144 0.0
C169 C 0.44528 0.37509 0.47751 0.0
Co170 Co 0.63475 0.07417 0.35804 0.0
Co171 Co 0.68689 0.11284 0.42231 0.0
C172 C 0.62294 0.12303 0.40158 0.0
O173 O 0.61452 0.1042 0.37331 0.0
O174 O 0.64916 0.12721 0.42094 0.0
C175 C 0.58277 0.01417 0.31634 0.0
O176 O 0.57494 0.99621 0.34649 0.0
C177 C 0.73907 0.18516 0.43793 0.0
C178 C 0.77638 0.18308 0.47714 0.0
C179 C 0.7716 0.20633 0.455 0.0
N180 N 0.7256 0.15087 0.44846 0.0
N181 N 0.74767 0.14974 0.47244 0.0
C182 C 0.72112 0.19694 0.41096 0.0
H183 H 0.69547 0.19267 0.4222 0.0
H184 H 0.71485 0.18043 0.38644 0.0
H185 H 0.73717 0.22583 0.40409 0.0
C186 C 0.70305 0.11091 0.31818 0.0
N187 N 0.684 0.101 0.34871 0.0
N188 N 0.70605 0.11293 0.37604 0.0
C189 C 0.74019 0.12945 0.36368 0.0
C190 C 0.73956 0.12946 0.32656 0.0
C191 C 0.68627 0.10583 0.28205 0.0
H192 H 0.6833 0.0809 0.26993 0.0
H193 H 0.65922 0.10312 0.28424 0.0
H194 H 0.70333 0.12884 0.26426 0.0
O195 O 0.62498 0.04065 0.39752 0.0
O196 O 0.66089 0.06394 0.44464 0.0
H197 H 0.76628 0.12724 0.41178 0.0
H198 H 0.79469 0.14136 0.3725 0.0
C199 C 0.77292 0.1431 0.38677 0.0
H200 H 0.78303 0.17167 0.39347 0.0
H201 H 0.74432 0.1261 0.48395 0.0
O202 O 0.60794 0.04682 0.31563 0.0
C203 C 0.63438 0.0375 0.42892 0.0
Co204 Co 0.53945 0.92875 0.87203 0.0
Co205 Co 0.54196 0.89364 0.94464 0.0
C206 C 0.47258 0.87452 0.90415 0.0
O207 O 0.48769 0.89251 0.8762 0.0
O208 O 0.49124 0.87468 0.93051 0.0
C209 C 0.52775 0.93635 0.80052 0.0
O210 O 0.5092 0.90114 0.80362 0.0
C211 C 0.52028 0.82265 0.96846 0.0
C212 C 0.54868 0.82797 0.01915 0.0
C213 C 0.52681 0.80308 0.99374 0.0
N214 N 0.53811 0.85758 0.97769 0.0
N215 N 0.55468 0.86068 0.00839 0.0
C216 C 0.49728 0.80857 0.93564 0.0
H217 H 0.47165 0.80835 0.94043 0.0
H218 H 0.51097 0.82648 0.9126 0.0
H219 H 0.49016 0.78071 0.92886 0.0
C220 C 0.58775 0.9017 0.84967 0.0
N221 N 0.56949 0.90859 0.87472 0.0
N222 N 0.57185 0.89497 0.90537 0.0
C223 C 0.59203 0.87909 0.90049 0.0
C224 C 0.60159 0.88157 0.86471 0.0
C225 C 0.59107 0.91302 0.81143 0.0
H226 H 0.59597 0.94091 0.8097 0.0
H227 H 0.56579 0.89483 0.7971 0.0
H228 H 0.61355 0.91172 0.79818 0.0
O229 O 0.54932 0.96253 0.91107 0.0
O230 O 0.55533 0.94262 0.964 0.0
H231 H 0.60068 0.87113 0.95536 0.0
H232 H 0.62631 0.86132 0.92428 0.0
C233 C 0.59996 0.85952 0.92884 0.0
H234 H 0.57906 0.83077 0.92826 0.0
H235 H 0.57129 0.88507 0.0211 0.0
O236 O 0.54534 0.95496 0.82723 0.0
C237 C 0.55477 0.96693 0.94453 0.0
Co238 Co 0.05875 0.63059 0.82742 0.0
Co239 Co 0.10613 0.68244 0.88871 0.0
C240 C 0.11418 0.61982 0.86027 0.0
O241 O 0.09038 0.61019 0.83604 0.0
O242 O 0.12166 0.64647 0.88043 0.0
C243 C 0.9963 0.57581 0.79115 0.0
O244 O 0.98338 0.56589 0.8235 0.0
C245 C 0.17976 0.73092 0.90425 0.0
C246 C 0.18092 0.75554 0.95621 0.0
C247 C 0.20288 0.75406 0.92984 0.0
N248 N 0.14573 0.71866 0.91493 0.0
N249 N 0.14642 0.73352 0.94603 0.0
C250 C 0.18989 0.72212 0.86893 0.0
H251 H 0.16704 0.71156 0.84998 0.0
H252 H 0.21333 0.74637 0.85743 0.0
H253 H 0.19765 0.7013 0.87262 0.0
C254 C 0.09032 0.69928 0.78822 0.0
N255 N 0.08438 0.6803 0.8185 0.0
N256 N 0.10081 0.70238 0.84511 0.0
C257 C 0.11659 0.7365 0.83287 0.0
C258 C 0.11087 0.73585 0.79616 0.0
C259 C 0.08057 0.68218 0.75205 0.0
H260 H 0.0543 0.67907 0.74381 0.0
H261 H 0.07809 0.65519 0.75274 0.0
H262 H 0.10119 0.69888 0.73193 0.0
O263 O 0.02978 0.61926 0.87084 0.0
O264 O 0.0605 0.65465 0.91624 0.0
H265 H 0.12491 0.76335 0.88325 0.0
H266 H 0.13576 0.79239 0.84454 0.0
C267 C 0.13666 0.76899 0.85604 0.0
H268 H 0.16521 0.7759 0.85813 0.0
H269 H 0.1235 0.72817 0.96057 0.0
O270 O 0.02697 0.60382 0.78707 0.0
C271 C 0.0319 0.62807 0.90354 0.0
Co272 Co 0.37863 0.4697 0.91585 0.0
Co273 Co 0.3191 0.47769 0.95607 0.0
C274 C 0.38972 0.54136 0.93971 0.0
O275 O 0.40204 0.5215 0.92905 0.0
O276 O 0.35663 0.52819 0.94738 0.0
C277 C 0.42808 0.48959 0.86153 0.0
O278 O 0.4208 0.51594 0.86165 0.0
C279 C 0.26665 0.50046 0.95405 0.0
C280 C 0.22323 0.46381 0.99035 0.0
C281 C 0.23192 0.49028 0.96473 0.0
N282 N 0.27761 0.48018 0.97137 0.0
N283 N 0.25184 0.45878 0.99369 0.0
C284 C 0.28942 0.52889 0.92736 0.0
H285 H 0.31327 0.55036 0.94127 0.0
H286 H 0.29888 0.51719 0.9065 0.0
H287 H 0.2754 0.54189 0.9149 0.0
C288 C 0.32015 0.43668 0.86151 0.0
N289 N 0.33329 0.45165 0.89368 0.0
N290 N 0.30714 0.45033 0.91308 0.0
C291 C 0.2762 0.43315 0.89439 0.0
C292 C 0.28339 0.42462 0.86085 0.0
C293 C 0.34317 0.43703 0.83129 0.0
H294 H 0.35751 0.42262 0.83938 0.0
H295 H 0.36358 0.46526 0.82508 0.0
H296 H 0.32754 0.42471 0.80671 0.0
O297 O 0.37274 0.44327 0.96032 0.0
O298 O 0.34368 0.46385 0.99307 0.0
H299 H 0.23836 0.41633 0.93756 0.0
H300 H 0.2184 0.39923 0.89448 0.0
C301 C 0.23978 0.42292 0.90883 0.0
H302 H 0.23466 0.44557 0.90519 0.0
H303 H 0.25283 0.43925 0.00951 0.0
O304 O 0.41222 0.46418 0.88387 0.0
C305 C 0.36565 0.45193 0.99046 0.0
Co306 Co 0.07514 0.41429 0.58517 0.0
Co307 Co 0.14166 0.42261 0.54364 0.0
C308 C 0.13495 0.48588 0.55946 0.0
O309 O 0.10283 0.46552 0.56998 0.0
O310 O 0.15537 0.47316 0.55235 0.0
C311 C 0.04964 0.43697 0.63866 0.0
O312 O 0.08478 0.4575 0.6409 0.0
C313 C 0.21704 0.44633 0.54488 0.0
C314 C 0.2263 0.41663 0.50207 0.0
C315 C 0.24318 0.4405 0.52996 0.0
N316 N 0.18586 0.42632 0.52738 0.0
N317 N 0.19156 0.40882 0.5015 0.0
C318 C 0.22143 0.4707 0.57553 0.0
H319 H 0.22568 0.49661 0.56473 0.0
H320 H 0.19675 0.45871 0.59216 0.0
H321 H 0.24488 0.47663 0.5925 0.0
C322 C 0.10573 0.38717 0.64138 0.0
N323 N 0.10388 0.39836 0.60815 0.0
N324 N 0.12764 0.39618 0.5877 0.0
C325 C 0.14438 0.38234 0.60704 0.0
C326 C 0.13225 0.3775 0.64197 0.0
C327 C 0.08481 0.38873 0.67262 0.0
H328 H 0.05704 0.38081 0.66428 0.0
H329 H 0.09811 0.41662 0.68311 0.0
H330 H 0.08342 0.37071 0.69446 0.0
O331 O 0.05547 0.38429 0.54281 0.0
O332 O 0.10245 0.41018 0.5072 0.0
H333 H 0.16672 0.36658 0.56395 0.0
H334 H 0.16961 0.34986 0.60745 0.0
C335 C 0.17142 0.37319 0.59273 0.0
H336 H 0.19891 0.3961 0.59674 0.0
H337 H 0.17163 0.39082 0.48416 0.0
O338 O 0.03663 0.41196 0.61564 0.0
C339 C 0.06888 0.3981 0.51276 0.0
Co340 Co 0.56876 0.61393 0.64271 0.0
Co341 Co 0.54778 0.66642 0.60789 0.0
C342 C 0.49131 0.59413 0.62569 0.0
O343 O 0.51531 0.58581 0.63312 0.0
O344 O 0.49978 0.62661 0.61975 0.0
C345 C 0.57002 0.55104 0.66207 0.0
O346 O 0.55715 0.54119 0.62965 0.0
C347 C 0.51644 0.71257 0.59928 0.0
C348 C 0.55428 0.75517 0.5628 0.0
C349 C 0.5237 0.7446 0.58329 0.0
N350 N 0.54207 0.70492 0.58953 0.0
N351 N 0.56446 0.73032 0.56744 0.0
C352 C 0.48478 0.68851 0.62221 0.0
H353 H 0.46699 0.6637 0.60699 0.0
H354 H 0.49397 0.68058 0.64646 0.0
H355 H 0.4687 0.70114 0.62995 0.0
C356 C 0.60127 0.6726 0.69651 0.0
N357 N 0.584 0.65838 0.66553 0.0
N358 N 0.57712 0.68154 0.64952 0.0
C359 C 0.58971 0.71134 0.66982 0.0
C360 C 0.60572 0.70683 0.70023 0.0
C361 C 0.61261 0.65334 0.7221 0.0
H362 H 0.6275 0.64233 0.70752 0.0
H363 H 0.58828 0.6303 0.73396 0.0
H364 H 0.62988 0.67145 0.74368 0.0
O365 O 0.59319 0.62191 0.59714 0.0
O366 O 0.56233 0.64349 0.56973 0.0
H367 H 0.59267 0.75278 0.63565 0.0
H368 H 0.59417 0.76318 0.68239 0.0
C369 C 0.58222 0.74135 0.66241 0.0
H370 H 0.55278 0.73053 0.66269 0.0
H371 H 0.58712 0.73113 0.55621 0.0
O372 O 0.5796 0.58282 0.67228 0.0
C373 C 0.57904 0.62581 0.56897 0.0
Co374 Co 0.36197 0.92132 0.56213 0.0
Co375 Co 0.31705 0.84671 0.52591 0.0
C376 C 0.36823 0.85532 0.58052 0.0
O377 O 0.38016 0.88907 0.57959 0.0
O378 O 0.33944 0.83368 0.56428 0.0
C379 C 0.3858 0.95532 0.62555 0.0
O380 O 0.36211 0.92226 0.63492 0.0
C381 C 0.2746 0.76971 0.5115 0.0
C382 C 0.23666 0.766 0.46972 0.0
C383 C 0.24393 0.7455 0.49323 0.0
N384 N 0.28417 0.80325 0.50087 0.0
N385 N 0.26207 0.80078 0.47494 0.0
C386 C 0.29495 0.76074 0.53817 0.0
H387 H 0.32422 0.77715 0.53272 0.0
H388 H 0.28927 0.76675 0.56541 0.0
H389 H 0.28732 0.73195 0.53681 0.0
C390 C 0.28863 0.90299 0.58786 0.0
N391 N 0.31074 0.89881 0.5651 0.0
N392 N 0.29208 0.86806 0.54812 0.0
C393 C 0.25784 0.85165 0.56008 0.0
C394 C 0.25473 0.87229 0.58697 0.0
C395 C 0.30037 0.93388 0.61309 0.0
H396 H 0.32602 0.95726 0.60422 0.0
H397 H 0.30314 0.92549 0.64038 0.0
H398 H 0.27978 0.94227 0.61422 0.0
O399 O 0.38019 0.93447 0.51334 0.0
O400 O 0.36012 0.87835 0.49597 0.0
H401 H 0.20336 0.80631 0.56269 0.0
H402 H 0.23843 0.79499 0.55636 0.0
C403 C 0.22949 0.81446 0.54947 0.0
H404 H 0.22517 0.81378 0.52033 0.0
H405 H 0.2628 0.82291 0.46249 0.0
O406 O 0.38829 0.96382 0.59283 0.0
C407 C 0.38264 0.91191 0.49332 0.0
C408 C 0.56633 0.02 0.25421 0.0
C409 C 0.5575 0.00022 0.28601 0.0
C410 C 0.53954 0.01481 0.22973 0.0
C411 C 0.50325 0.98896 0.23727 0.0
C412 C 0.49519 0.96498 0.26623 0.0
C413 C 0.52252 0.97105 0.29062 0.0
C414 C 0.54957 0.04035 0.19848 0.0
C415 C 0.45715 0.93563 0.2738 0.0
C416 C 0.44915 0.03357 0.21805 0.0
C417 C 0.43975 0.0239 0.18239 0.0
C418 C 0.46664 0.01916 0.23771 0.0
C419 C 0.47461 0.99422 0.22121 0.0
C420 C 0.4609 0.98082 0.18679 0.0
C421 C 0.44366 0.99604 0.16754 0.0
C422 C 0.48015 0.03386 0.27467 0.0
C423 C 0.46724 0.953 0.16887 0.0
H424 H 0.59363 0.04179 0.24995 0.0
H425 H 0.51568 0.95493 0.3147 0.0
H426 H 0.53639 0.02545 0.17373 0.0
H427 H 0.5401 0.05978 0.20351 0.0
H428 H 0.57914 0.0558 0.19399 0.0
H429 H 0.4568 0.91344 0.28943 0.0
H430 H 0.44319 0.94682 0.28969 0.0
H431 H 0.4418 0.92453 0.2487 0.0
H432 H 0.44527 0.05449 0.2298 0.0
H433 H 0.43593 0.98814 0.14003 0.0
H434 H 0.50998 0.05044 0.27434 0.0
H435 H 0.4727 0.0116 0.29391 0.0
H436 H 0.46915 0.05087 0.28452 0.0
H437 H 0.49206 0.96676 0.15247 0.0
H438 H 0.44458 0.93588 0.15069 0.0
H439 H 0.47056 0.93553 0.18855 0.0
C440 C 0.03563 0.51274 0.12981 0.0
C441 C 0.02791 0.47692 0.13186 0.0
C442 C 0.03941 0.53221 0.16112 0.0
C443 C 0.03504 0.51506 0.19446 0.0
C444 C 0.03554 0.48237 0.1962 0.0
C445 C 0.03194 0.4635 0.1646 0.0
C446 C 0.0417 0.56836 0.15839 0.0
C447 C 0.03313 0.46418 0.23137 0.0
C448 C 0.01787 0.54786 0.28258 0.0
C449 C 0.98009 0.52971 0.28283 0.0
C450 C 0.03674 0.54507 0.25321 0.0
C451 C 0.01717 0.52332 0.22385 0.0
C452 C 0.97903 0.50633 0.22347 0.0
C453 C 0.9611 0.50986 0.25289 0.0
C454 C 0.07731 0.56427 0.25459 0.0
C455 C 0.95676 0.48314 0.19258 0.0
H456 H 0.03397 0.5239 0.10438 0.0
H457 H 0.02753 0.43633 0.1661 0.0
H458 H 0.01411 0.56453 0.15887 0.0
H459 H 0.05691 0.58585 0.18122 0.0
H460 H 0.05479 0.58215 0.13305 0.0
H461 H 0.04107 0.44328 0.22868 0.0
H462 H 0.05056 0.48411 0.25164 0.0
H463 H 0.00494 0.451 0.24119 0.0
H464 H 0.03273 0.5635 0.30563 0.0
H465 H 0.93193 0.49625 0.25267 0.0
H466 H 0.08955 0.5701 0.22759 0.0
H467 H 0.08585 0.54712 0.26891 0.0
H468 H 0.08809 0.58994 0.26959 0.0
H469 H 0.96478 0.49897 0.16748 0.0
H470 H 0.92744 0.47229 0.19653 0.0
H471 H 0.96138 0.46008 0.18907 0.0
C472 C 0.57791 0.56479 0.26572 0.0
C473 C 0.57561 0.57603 0.23132 0.0
C474 C 0.54681 0.54064 0.28419 0.0
C475 C 0.5128 0.52782 0.26762 0.0
C476 C 0.51023 0.54406 0.23574 0.0
C477 C 0.54193 0.56806 0.21765 0.0
C478 C 0.55086 0.525 0.3189 0.0
C479 C 0.47441 0.53302 0.21848 0.0
C480 C 0.46573 0.4289 0.2829 0.0
C481 C 0.45021 0.42692 0.31626 0.0
C482 C 0.48241 0.46121 0.26381 0.0
C483 C 0.48315 0.49202 0.27855 0.0
C484 C 0.46234 0.48845 0.30914 0.0
C485 C 0.44624 0.45582 0.32799 0.0
C486 C 0.50316 0.46333 0.23037 0.0
C487 C 0.46023 0.51992 0.32424 0.0
H488 H 0.60408 0.57181 0.27658 0.0
H489 H 0.54005 0.57727 0.1912 0.0
H490 H 0.53212 0.52492 0.33929 0.0
H491 H 0.54413 0.49671 0.31462 0.0
H492 H 0.5787 0.54028 0.32963 0.0
H493 H 0.47549 0.55586 0.20341 0.0
H494 H 0.46782 0.51098 0.1992 0.0
H495 H 0.45244 0.52334 0.23851 0.0
H496 H 0.46769 0.40614 0.27314 0.0
H497 H 0.43329 0.45412 0.35332 0.0
H498 H 0.53251 0.47962 0.23571 0.0
H499 H 0.49674 0.47667 0.20856 0.0
H500 H 0.49716 0.43635 0.22091 0.0
H501 H 0.48119 0.53329 0.34507 0.0
H502 H 0.43366 0.51064 0.33709 0.0
H503 H 0.46452 0.54006 0.30338 0.0
C504 C 0.50501 0.93291 0.73899 0.0
C505 C 0.52288 0.95381 0.76883 0.0
C506 C 0.49173 0.94617 0.71254 0.0
C507 C 0.49654 0.98122 0.71622 0.0
C508 C 0.51867 0.00405 0.74377 0.0
C509 C 0.53156 0.98998 0.77 0.0
C510 C 0.46927 0.92118 0.6828 0.0
C511 C 0.52594 0.0421 0.74764 0.0
C512 C 0.45102 0.99492 0.63757 0.0
C513 C 0.41548 0.97678 0.65023 0.0
C514 C 0.47965 0.00168 0.66042 0.0
C515 C 0.47206 0.98992 0.69625 0.0
C516 C 0.43705 0.97739 0.7102 0.0
C517 C 0.40905 0.97091 0.68683 0.0
C518 C 0.51694 0.01689 0.64499 0.0
C519 C 0.42796 0.96564 0.74862 0.0
H520 H 0.4992 0.90527 0.73749 0.0
H521 H 0.54612 0.00657 0.79268 0.0
H522 H 0.44059 0.91337 0.68662 0.0
H523 H 0.47795 0.93487 0.6566 0.0
H524 H 0.47112 0.89626 0.68188 0.0
H525 H 0.55222 0.05935 0.76099 0.0
H526 H 0.52592 0.05412 0.72141 0.0
H527 H 0.50466 0.04212 0.76445 0.0
H528 H 0.45614 -1e-05 0.60923 0.0
H529 H 0.38155 0.95758 0.69661 0.0
H530 H 0.52043 0.99457 0.63471 0.0
H531 H 0.538 0.03168 0.66541 0.0
H532 H 0.52101 0.03526 0.62232 0.0
H533 H 0.428 0.94002 0.75267 0.0
H534 H 0.40101 0.96127 0.75621 0.0
H535 H 0.44833 0.98597 0.76681 0.0
C536 C 0.0401 0.46329 0.69303 0.0
C537 C 0.02656 0.44547 0.66067 0.0
C538 C 0.02259 0.47832 0.71154 0.0
C539 C 0.9907 0.47557 0.69711 0.0
C540 C 0.97536 0.45522 0.66574 0.0
C541 C 0.99352 0.44015 0.64783 0.0
C542 C 0.03982 0.49938 0.74523 0.0
C543 C 0.94088 0.45085 0.65031 0.0
C544 C 0.95912 0.51301 0.76881 0.0
C545 C 0.98159 0.54974 0.76153 0.0
C546 C 0.95665 0.48695 0.74459 0.0
C547 C 0.97719 0.49827 0.71285 0.0
C548 C 0.99427 0.53497 0.70269 0.0
C549 C 0.99625 0.5604 0.72731 0.0
C550 C 0.93673 0.44793 0.75563 0.0
C551 C 0.0157 0.54821 0.66857 0.0
H552 H 0.0654 0.46685 0.70314 0.0
H553 H 0.98304 0.42618 0.62276 0.0
H554 H 0.04876 0.52824 0.74092 0.0
H555 H 0.0201 0.48959 0.76743 0.0
H556 H 0.06355 0.49724 0.75363 0.0
H557 H 0.93297 0.43484 0.62528 0.0
H558 H 0.91879 0.43729 0.67001 0.0
H559 H 0.94376 0.47755 0.64466 0.0
H560 H 0.94674 0.5045 0.79488 0.0
H561 H 0.01262 0.5888 0.72111 0.0
H562 H 0.95558 0.44141 0.76964 0.0
H563 H 0.92576 0.42993 0.73216 0.0
H564 H 0.91433 0.44234 0.77421 0.0
H565 H 0.04221 0.54992 0.67234 0.0
H566 H 0.02058 0.57536 0.66109 0.0
H567 H 0.00179 0.52944 0.64619 0.0
C568 C 0.57819 0.53443 0.72316 0.0
C569 C 0.56075 0.52374 0.6901 0.0
C570 C 0.55981 0.5175 0.75455 0.0
C571 C 0.52329 0.49016 0.75226 0.0
C572 C 0.5088 0.47428 0.71879 0.0
C573 C 0.52797 0.49131 0.6877 0.0
C574 C 0.57711 0.53347 0.78995 0.0
C575 C 0.47061 0.4437 0.71541 0.0
C576 C 0.46397 0.46347 0.83518 0.0
C577 C 0.45225 0.48872 0.83402 0.0
C578 C 0.4873 0.46331 0.80888 0.0
C579 C 0.49835 0.48851 0.78058 0.0
C580 C 0.48608 0.5137 0.77922 0.0
C581 C 0.46345 0.51357 0.80602 0.0
C582 C 0.4995 0.43591 0.81135 0.0
C583 C 0.49692 0.54117 0.74951 0.0
H584 H 0.60418 0.55884 0.72492 0.0
H585 H 0.51482 0.48223 0.66203 0.0
H586 H 0.56976 0.55389 0.79796 0.0
H587 H 0.56754 0.5125 0.81102 0.0
H588 H 0.60694 0.54697 0.7882 0.0
H589 H 0.4663 0.42922 0.6897 0.0
H590 H 0.46371 0.42434 0.73771 0.0
H591 H 0.45195 0.45459 0.71645 0.0
H592 H 0.4552 0.44405 0.85675 0.0
H593 H 0.4543 0.53298 0.8048 0.0
H594 H 0.52707 0.44646 0.80058 0.0
H595 H 0.48092 0.41185 0.79554 0.0
H596 H 0.49889 0.42713 0.83936 0.0
H597 H 0.52652 0.5594 0.74971 0.0
H598 H 0.48394 0.55792 0.75199 0.0
H599 H 0.48942 0.52749 0.72323 0.0
C600 C 0.48738 0.10302 0.00686 0.0
C601 C 0.44982 0.08093 0.00485 0.0
C602 C 0.5105 0.08985 -0.00173 0.0
C603 C 0.49584 0.05412 0.98579 0.0
C604 C 0.45811 0.03289 0.98028 0.0
C605 C 0.43547 0.04623 0.99072 0.0
C606 C 0.55009 0.11349 0.00601 0.0
C607 C 0.44148 0.99541 0.96496 0.0
C608 C 0.55304 0.02353 0.93689 0.0
C609 C 0.55144 0.99696 0.96013 0.0
C610 C 0.53645 0.04357 0.9455 0.0
C611 C 0.51941 0.03837 0.97896 0.0
C612 C 0.52235 0.01557 0.00456 0.0
C613 C 0.53783 0.99456 0.99467 0.0
C614 C 0.53458 0.06807 0.91765 0.0
C615 C 0.50715 0.01173 0.04164 0.0
H616 H 0.49878 0.1296 0.0186 0.0
H617 H 0.40648 0.0289 0.98961 0.0
H618 H 0.56725 0.10558 0.99089 0.0
H619 H 0.55894 0.14208 -5e-05 0.0
H620 H 0.55458 0.11166 0.03492 0.0
H621 H 0.41256 0.98424 0.95833 0.0
H622 H 0.45606 0.99549 0.94045 0.0
H623 H 0.44377 0.97722 0.98452 0.0
H624 H 0.56433 0.02629 0.91041 0.0
H625 H 0.53679 0.9745 0.013 0.0
H626 H 0.54523 0.09554 0.92864 0.0
H627 H 0.50607 0.05795 0.91007 0.0
H628 H 0.55005 0.06987 0.89321 0.0
H629 H 0.51509 0.03862 0.05291 0.0
H630 H 0.51645 0.99761 0.05991 0.0
H631 H 0.47731 0.9962 0.04051 0.0
C632 C 0.91611 0.43673 0.99621 0.0
C633 C 0.93644 0.42031 0.98785 0.0
C634 C 0.92758 0.47225 0.98623 0.0
C635 C 0.95915 0.49128 0.9656 0.0
C636 C 0.97871 0.47408 0.95512 0.0
C637 C 0.96774 0.43908 0.96744 0.0
C638 C 0.90737 0.49013 9e-05 0.0
C639 C 0.01182 0.493 0.93192 0.0
C640 C 0.97373 0.57207 0.91168 0.0
C641 C 0.00536 0.59953 0.92727 0.0
C642 C 0.95776 0.53667 0.92431 0.0
C643 C 0.97186 0.52924 0.9552 0.0
C644 C 0.99966 0.55802 0.97471 0.0
C645 C 0.01661 0.59293 0.96017 0.0
C646 C 0.92859 0.50687 0.90227 0.0
C647 C 0.01353 0.55154 0.00933 0.0
H648 H 0.89259 0.42271 0.01316 0.0
H649 H 0.98397 0.42674 0.96187 0.0
H650 H 0.90189 0.50433 0.97841 0.0
H651 H 0.88146 0.47051 0.0127 0.0
H652 H 0.92416 0.5106 0.02028 0.0
H653 H 0.0203 0.47411 0.92158 0.0
H654 H 0.00682 0.50629 0.90895 0.0
H655 H 0.03439 0.51421 0.94759 0.0
H656 H 0.96421 0.57736 0.88687 0.0
H657 H 0.0407 0.61401 0.97277 0.0
H658 H 0.90524 0.48876 0.91914 0.0
H659 H 0.93926 0.49036 0.8904 0.0
H660 H 0.91899 0.51739 0.88032 0.0
H661 H 0.99093 0.5321 0.02633 0.0
H662 H 0.02961 0.57689 0.02452 0.0
H663 H 0.03097 0.53985 0.00365 0.0
C664 C 0.41559 0.44752 0.01942 0.0
C665 C 0.39528 0.46483 0.01665 0.0
C666 C 0.45125 0.46604 0.0319 0.0
C667 C 0.46733 0.50311 0.04033 0.0
C668 C 0.44604 0.51987 0.04028 0.0
C669 C 0.40999 0.50021 0.02933 0.0
C670 C 0.47223 0.44641 0.03367 0.0
C671 C 0.46162 0.55913 0.0497 0.0
C672 C 0.55627 0.55367 0.0893 0.0
C673 C 0.58124 0.56635 0.06114 0.0
C674 C 0.51933 0.5322 0.08306 0.0
C675 C 0.50667 0.5247 0.04755 0.0
C676 C 0.53165 0.53852 0.01882 0.0
C677 C 0.56887 0.55837 0.026 0.0
C678 C 0.49422 0.51797 0.11475 0.0
C679 C 0.51901 0.5329 0.98055 0.0
H680 H 0.40445 0.42026 0.00949 0.0
H681 H 0.39463 0.51396 0.02704 0.0
H682 H 0.48723 0.45059 0.00838 0.0
H683 H 0.49203 0.45658 0.05584 0.0
H684 H 0.45404 0.41699 0.03718 0.0
H685 H 0.4449 0.57023 0.03921 0.0
H686 H 0.46274 0.56205 0.07911 0.0
H687 H 0.48939 0.57565 0.03925 0.0
H688 H 0.5657 0.55974 0.11661 0.0
H689 H 0.58816 0.56816 0.0043 0.0
H690 H 0.47032 0.49131 0.1092 0.0
H691 H 0.48474 0.53703 0.12142 0.0
H692 H 0.50815 0.51559 0.13873 0.0
H693 H 0.50594 0.50394 0.97371 0.0
H694 H 0.54149 0.54821 0.96156 0.0
H695 H 0.49861 0.5414 0.97694 0.0
C696 C 0.01447 0.40246 0.49771 0.0
C697 C 0.05182 0.41678 0.495 0.0
C698 C 0.99857 0.42355 0.49036 0.0
C699 C 0.02067 0.46026 0.481 0.0
C700 C 0.05825 0.47448 0.47676 0.0
C701 C 0.07323 0.4524 0.48317 0.0
C702 C 0.95825 0.40664 0.49411 0.0
C703 C 0.08308 0.5133 0.46652 0.0
C704 C 0.9838 0.51269 0.43285 0.0
C705 C 0.9729 0.52669 0.46102 0.0
C706 C 0.99815 0.49022 0.439 0.0
C707 C 0.00437 0.4834 0.47445 0.0
C708 C 0.99481 0.49862 0.50325 0.0
C709 C 0.97805 0.51917 0.49616 0.0
C710 C 0.0062 0.4738 0.40712 0.0
C711 C 0.00191 0.49323 0.54158 0.0
H712 H 0.99777 0.37508 0.50713 0.0
H713 H 0.10218 0.46398 0.48137 0.0
H714 H 0.95186 0.41231 0.52115 0.0
H715 H 0.94699 0.41764 0.47433 0.0
H716 H 0.94453 0.37695 0.49096 0.0
H717 H 0.11142 0.52255 0.47415 0.0
H718 H 0.08248 0.5162 0.43721 0.0
H719 H 0.07458 0.53129 0.47904 0.0
H720 H 0.97999 0.51828 0.40551 0.0
H721 H 0.96963 0.52983 0.518 0.0
H722 H 0.00351 0.44728 0.41339 0.0
H723 H 0.0341 0.49216 0.39795 0.0
H724 H 0.98807 0.47029 0.3844 0.0
H725 H 0.9785 0.46838 0.55209 0.0
H726 H 0.00542 0.51598 0.55858 0.0
H727 H 0.02622 0.49049 0.54424 0.0
C728 C 0.48112 0.43966 0.46294 0.0
C729 C 0.46651 0.41282 0.48931 0.0
C730 C 0.50353 0.47581 0.47174 0.0
C731 C 0.50999 0.48583 0.50801 0.0
C732 C 0.4952 0.45891 0.53496 0.0
C733 C 0.47426 0.42242 0.52519 0.0
C734 C 0.52017 0.50314 0.44205 0.0
C735 C 0.50139 0.46853 0.57404 0.0
C736 C 0.58493 0.5767 0.53989 0.0
C737 C 0.56669 0.59612 0.54285 0.0
C738 C 0.56741 0.5413 0.52681 0.0
C739 C 0.53046 0.52461 0.51759 0.0
C740 C 0.51269 0.54496 0.51819 0.0
C741 C 0.53137 0.58077 0.52973 0.0
C742 C 0.58813 0.52141 0.52531 0.0
C743 C 0.47335 0.52877 0.50862 0.0
H744 H 0.47558 0.4323 0.43506 0.0
H745 H 0.4634 0.40162 0.54547 0.0
H746 H 0.50518 0.51784 0.43898 0.0
H747 H 0.54861 0.52314 0.44825 0.0
H748 H 0.51931 0.49024 0.41608 0.0
H749 H 0.52917 0.47538 0.58132 0.0
H750 H 0.4986 0.4924 0.5798 0.0
H751 H 0.48234 0.44592 0.5913 0.0
H752 H 0.61218 0.5883 0.55004 0.0
H753 H 0.51686 0.59538 0.5319 0.0
H754 H 0.57671 0.49916 0.5056 0.0
H755 H 0.5875 0.50989 0.55199 0.0
H756 H 0.61681 0.54008 0.51851 0.0
H757 H 0.47084 0.53139 0.47948 0.0
H758 H 0.46111 0.54305 0.52227 0.0
H759 H 0.45753 0.49983 0.51566 0.0
C760 C 0.58378 0.97527 0.42954 0.0
C761 C 0.60649 0.00645 0.44904 0.0
C762 C 0.54697 0.95486 0.43748 0.0
C763 C 0.53318 0.96463 0.46703 0.0
C764 C 0.55732 0.99197 0.49055 0.0
C765 C 0.59386 0.01288 0.4811 0.0
C766 C 0.52243 0.9262 0.41144 0.0
C767 C 0.54398 0.0017 0.52362 0.0
C768 C 0.43988 0.95471 0.46186 0.0
C769 C 0.41903 0.92237 0.48022 0.0
C770 C 0.47687 0.96801 0.45615 0.0
C771 C 0.49359 0.94943 0.47081 0.0
C772 C 0.47254 0.9168 0.48936 0.0
C773 C 0.43542 0.90325 0.4931 0.0
C774 C 0.49826 0.00249 0.43534 0.0
C775 C 0.48942 0.89702 0.50666 0.0
H776 H 0.5937 0.96993 0.40501 0.0
H777 H 0.61124 0.03677 0.49648 0.0
H778 H 0.50152 0.90205 0.42553 0.0
H779 H 0.5084 0.9369 0.39485 0.0
H780 H 0.53758 0.91797 0.39338 0.0
H781 H 0.56634 0.01818 0.54235 0.0
H782 H 0.53091 0.01746 0.51594 0.0
H783 H 0.5236 0.97715 0.53771 0.0
H784 H 0.4274 0.96987 0.45264 0.0
H785 H 0.41961 0.87882 0.50841 0.0
H786 H 0.48081 0.01199 0.42325 0.0
H787 H 0.51371 0.99857 0.41376 0.0
H788 H 0.51799 0.02389 0.45319 0.0
H789 H 0.50004 0.88637 0.48593 0.0
H790 H 0.46985 0.87428 0.52336 0.0
H791 H 0.51246 0.91561 0.52368 0.0
C792 C 0.3514 0.20182 0.34239 0.0
C793 C 0.37528 0.23842 0.33631 0.0
C794 C 0.34212 0.17666 0.31468 0.0
C795 C 0.35775 0.18856 0.28053 0.0
C796 C 0.38078 0.22578 0.27407 0.0
C797 C 0.38919 0.25025 0.30208 0.0
C798 C 0.31709 0.13729 0.32238 0.0
C799 C 0.39841 0.23961 0.23816 0.0
C800 C 0.38197 0.13406 0.21971 0.0
C801 C 0.35867 0.12772 0.19099 0.0
C802 C 0.37997 0.15135 0.25053 0.0
C803 C 0.35392 0.16239 0.25257 0.0
C804 C 0.32823 0.15307 0.22491 0.0
C805 C 0.33104 0.13591 0.19419 0.0
C806 C 0.40801 0.16085 0.27929 0.0
C807 C 0.29969 0.16382 0.22645 0.0
H808 H 0.34081 0.19283 0.36901 0.0
H809 H 0.40826 0.27849 0.29762 0.0
H810 H 0.29687 0.1247 0.30077 0.0
H811 H 0.33276 0.12311 0.32348 0.0
H812 H 0.30282 0.1331 0.34821 0.0
H813 H 0.41358 0.26948 0.2369 0.0
H814 H 0.41738 0.22968 0.23259 0.0
H815 H 0.37789 0.22937 0.21667 0.0
H816 H 0.40356 0.12798 0.21698 0.0
H817 H 0.31307 0.13087 0.17183 0.0
H818 H 0.3953 0.15422 0.30606 0.0
H819 H 0.42723 0.19026 0.27869 0.0
H820 H 0.42343 0.14658 0.27571 0.0
H821 H 0.28767 0.15915 0.25351 0.0
H822 H 0.27791 0.14877 0.2067 0.0
H823 H 0.3121 0.19298 0.22058 0.0
C824 C 0.7719 0.1365 0.26884 0.0
C825 C 0.77008 0.15067 0.30192 0.0
C826 C 0.79698 0.15837 0.2429 0.0
C827 C 0.82118 0.19509 0.25056 0.0
C828 C 0.82149 0.20862 0.28506 0.0
C829 C 0.79558 0.18641 0.31013 0.0
C830 C 0.79565 0.14287 0.20643 0.0
C831 C 0.84716 0.24737 0.29472 0.0
C832 C 0.89403 0.25175 0.18252 0.0
C833 C 0.87708 0.26728 0.16358 0.0
C834 C 0.87645 0.22836 0.21136 0.0
C835 C 0.84126 0.22048 0.22103 0.0
C836 C 0.82458 0.23691 0.20227 0.0
C837 C 0.84284 0.26028 0.17404 0.0
C838 C 0.89529 0.21192 0.2313 0.0
C839 C 0.78721 0.22954 0.21171 0.0
H840 H 0.75265 0.1087 0.26265 0.0
H841 H 0.79407 0.19782 0.33536 0.0
H842 H 0.78401 0.15388 0.18707 0.0
H843 H 0.82315 0.15072 0.19707 0.0
H844 H 0.77894 0.11305 0.20619 0.0
H845 H 0.85084 0.25091 0.32407 0.0
H846 H 0.8739 0.25728 0.28215 0.0
H847 H 0.83614 0.26436 0.28498 0.0
H848 H 0.92068 0.25751 0.17446 0.0
H849 H 0.83013 0.27299 0.1598 0.0
H850 H 0.87972 0.18219 0.22876 0.0
H851 H 0.89666 0.2183 0.26014 0.0
H852 H 0.92304 0.22169 0.22126 0.0
H853 H 0.76773 0.20027 0.20991 0.0
H854 H 0.77789 0.24398 0.19391 0.0
H855 H 0.78679 0.23791 0.23962 0.0
C856 C 0.85737 0.58998 0.29027 0.0
C857 C 0.87245 0.6087 0.32196 0.0
C858 C 0.83912 0.6009 0.26696 0.0
C859 C 0.8359 0.63131 0.2757 0.0
C860 C 0.85277 0.65145 0.3068 0.0
C861 C 0.87096 0.63986 0.32965 0.0
C862 C 0.82165 0.57872 0.23397 0.0
C863 C 0.8502 0.68417 0.31673 0.0
C864 C 0.80038 0.66105 0.19814 0.0
C865 C 0.76327 0.64057 0.20427 0.0
C866 C 0.82496 0.66074 0.22271 0.0
C867 C 0.81186 0.6394 0.25392 0.0
C868 C 0.77452 0.6212 0.26154 0.0
C869 C 0.75064 0.62193 0.23651 0.0
C870 C 0.86457 0.68069 0.21377 0.0
C871 C 0.7594 0.59819 0.29454 0.0
H872 H 0.8586 0.56585 0.28444 0.0
H873 H 0.88329 0.65463 0.35393 0.0
H874 H 0.79192 0.56551 0.23639 0.0
H875 H 0.82961 0.59622 0.21 0.0
H876 H 0.82899 0.55755 0.22969 0.0
H877 H 0.86838 0.69931 0.33921 0.0
H878 H 0.8569 0.70246 0.29348 0.0
H879 H 0.82214 0.67573 0.32467 0.0
H880 H 0.80998 0.67534 0.17305 0.0
H881 H 0.7219 0.6056 0.24098 0.0
H882 H 0.87266 0.66125 0.20428 0.0
H883 H 0.88096 0.69428 0.23773 0.0
H884 H 0.87096 0.70108 0.19251 0.0
H885 H 0.76171 0.57365 0.29186 0.0
H886 H 0.73059 0.58975 0.29883 0.0
H887 H 0.7749 0.61288 0.31854 0.0
C888 C 0.58512 0.83473 0.81823 0.0
C889 C 0.60921 0.85616 0.84489 0.0
C890 C 0.59094 0.81047 0.79849 0.0
C891 C 0.62083 0.80616 0.80665 0.0
C892 C 0.64469 0.82677 0.83443 0.0
C893 C 0.63903 0.8522 0.85274 0.0
C894 C 0.56509 0.78966 0.76864 0.0
C895 C 0.67626 0.82227 0.84467 0.0
C896 C 0.60196 0.71869 0.76484 0.0
C897 C 0.61851 0.73096 0.73159 0.0
C898 C 0.60638 0.74323 0.7919 0.0
C899 C 0.62687 0.78065 0.78488 0.0
C900 C 0.64681 0.79281 0.75278 0.0
C901 C 0.64288 0.76765 0.72674 0.0
C902 C 0.58615 0.72915 0.82652 0.0
C903 C 0.66864 0.83236 0.7439 0.0
H904 H 0.56144 0.83689 0.81273 0.0
H905 H 0.65805 0.86907 0.87293 0.0
H906 H 0.58005 0.79387 0.74328 0.0
H907 H 0.55106 0.76045 0.77466 0.0
H908 H 0.54445 0.79777 0.76449 0.0
H909 H 0.68683 0.83361 0.87151 0.0
H910 H 0.66866 0.79345 0.8445 0.0
H911 H 0.69829 0.83648 0.82505 0.0
H912 H 0.5834 0.69022 0.76878 0.0
H913 H 0.65617 0.77693 0.70115 0.0
H914 H 0.56113 0.73078 0.82575 0.0
H915 H 0.60254 0.74562 0.84939 0.0
H916 H 0.57854 0.70063 0.83115 0.0
H917 H 0.6501 0.84266 0.73759 0.0
H918 H 0.68653 0.83747 0.72055 0.0
H919 H 0.68532 0.8479 0.76697 0.0
C920 C 0.16493 0.7918 0.77348 0.0
C921 C 0.12839 0.76588 0.77006 0.0
C922 C 0.18355 0.81583 0.7456 0.0
C923 C 0.16565 0.81266 0.71289 0.0
C924 C 0.12813 0.78854 0.71034 0.0
C925 C 0.1098 0.76605 0.73934 0.0
C926 C 0.22322 0.84223 0.75005 0.0
C927 C 0.10803 0.78347 0.67579 0.0
C928 C 0.21487 0.8756 0.63483 0.0
C929 C 0.23031 0.85721 0.61828 0.0
C930 C 0.19393 0.86182 0.66599 0.0
C931 C 0.18729 0.8283 0.67992 0.0
C932 C 0.20225 0.80941 0.66278 0.0
C933 C 0.22443 0.82465 0.63306 0.0
C934 C 0.17984 0.8835 0.68454 0.0
C935 C 0.19531 0.77316 0.67602 0.0
H936 H 0.1798 0.79187 0.79683 0.0
H937 H 0.08131 0.74679 0.73695 0.0
H938 H 0.23908 0.83118 0.7375 0.0
H939 H 0.23073 0.86818 0.73677 0.0
H940 H 0.23092 0.8474 0.77866 0.0
H941 H 0.07839 0.76865 0.67981 0.0
H942 H 0.11596 0.80969 0.66298 0.0
H943 H 0.11493 0.76782 0.65702 0.0
H944 H 0.21938 0.9008 0.62366 0.0
H945 H 0.23752 0.81099 0.62155 0.0
H946 H 0.19224 0.8915 0.7114 0.0
H947 H 0.15032 0.86706 0.68849 0.0
H948 H 0.18588 0.90819 0.66943 0.0
H949 H 0.20859 0.77631 0.70222 0.0
H950 H 0.20564 0.76034 0.6573 0.0
H951 H 0.16601 0.75468 0.67983 0.0
C952 C 0.18981 0.40381 0.67541 0.0
C953 C 0.15321 0.37777 0.67346 0.0
C954 C 0.21021 0.40706 0.70575 0.0
C955 C 0.19333 0.38434 0.73538 0.0
C956 C 0.15655 0.35734 0.73331 0.0
C957 C 0.13696 0.3541 0.70206 0.0
C958 C 0.24949 0.43583 0.70658 0.0
C959 C 0.13751 0.33312 0.76464 0.0
C960 C 0.25569 0.38449 0.80763 0.0
C961 C 0.25858 0.41202 0.8299 0.0
C962 C 0.23379 0.37438 0.77705 0.0
C963 C 0.21354 0.39147 0.76942 0.0
C964 C 0.21504 0.41799 0.79291 0.0
C965 C 0.238 0.42835 0.82249 0.0
C966 C 0.23338 0.34649 0.75224 0.0
C967 C 0.19348 0.43652 0.78611 0.0
H968 H 0.20232 0.42262 0.65358 0.0
H969 H 0.10881 0.33359 0.70029 0.0
H970 H 0.25393 0.45614 0.72725 0.0
H971 H 0.26632 0.4238 0.71378 0.0
H972 H 0.25889 0.44986 0.68054 0.0
H973 H 0.10974 0.3117 0.75781 0.0
H974 H 0.15285 0.32033 0.77451 0.0
H975 H 0.13599 0.34939 0.78686 0.0
H976 H 0.271 0.3713 0.81381 0.0
H977 H 0.24048 0.44996 0.8394 0.0
H978 H 0.24542 0.3592 0.72624 0.0
H979 H 0.20531 0.32499 0.74694 0.0
H980 H 0.24869 0.33403 0.76319 0.0
H981 H 0.20473 0.45464 0.76271 0.0
H982 H 0.19388 0.45277 0.80935 0.0
H983 H 0.16507 0.41649 0.77987 0.0
C984 C 0.48732 0.32336 0.05562 0.0
C985 C 0.47189 0.29398 0.07892 0.0
C986 C 0.50578 0.35871 0.0689 0.0
C987 C 0.50884 0.3646 0.10632 0.0
C988 C 0.49062 0.33501 0.12977 0.0
C989 C 0.47203 0.30004 0.1157 0.0
C990 C 0.52399 0.38962 0.04294 0.0
C991 C 0.49285 0.33991 0.16974 0.0
C992 C 0.597 0.44672 0.13203 0.0
C993 C 0.58697 0.47307 0.13556 0.0
C994 C 0.57143 0.41088 0.12444 0.0
C995 C 0.53477 0.40099 0.12049 0.0
C996 C 0.52399 0.42676 0.12705 0.0
C997 C 0.55026 0.46257 0.13466 0.0
C998 C 0.58407 0.38412 0.11842 0.0
C999 C 0.48497 0.41687 0.12462 0.0
H1000 H 0.48661 0.31865 0.02713 0.0
H1001 H 0.45893 0.27722 0.13366 0.0
H1002 H 0.51845 0.41147 0.05015 0.0
H1003 H 0.55357 0.4009 0.04424 0.0
H1004 H 0.51502 0.38113 0.01504 0.0
H1005 H 0.47207 0.31549 0.18377 0.0
H1006 H 0.51975 0.34556 0.17905 0.0
H1007 H 0.48972 0.36314 0.1775 0.0
H1008 H 0.6252 0.45444 0.1335 0.0
H1009 H 0.54223 0.48268 0.13774 0.0
H1010 H 0.5805 0.3761 0.0899 0.0
H1011 H 0.56769 0.35943 0.1344 0.0
H1012 H 0.61288 0.3953 0.12552 0.0
H1013 H 0.48147 0.44077 0.12662 0.0
H1014 H 0.46957 0.3981 0.14656 0.0
H1015 H 0.47301 0.40276 0.09916 0.0
C1016 C 0.71065 0.25132 0.08185 0.0
C1017 C 0.72401 0.23655 0.05689 0.0
C1018 C 0.67475 0.23242 0.09319 0.0
C1019 C 0.65087 0.19869 0.07772 0.0
C1020 C 0.66422 0.18319 0.05301 0.0
C1021 C 0.70066 0.20227 0.04302 0.0
C1022 C 0.66193 0.24966 0.12023 0.0
C1023 C 0.6399 0.1478 0.03492 0.0
C1024 C 0.55578 0.14483 0.11551 0.0
C1025 C 0.53802 0.15898 0.09562 0.0
C1026 C 0.59266 0.15725 0.11003 0.0
C1027 C 0.61147 0.18316 0.08304 0.0
C1028 C 0.59311 0.19637 0.0621 0.0
C1029 C 0.55692 0.18473 0.06918 0.0
C1030 C 0.61159 0.1431 0.13326 0.0
C1031 C 0.61158 0.22264 0.03191 0.0
H1032 H 0.7275 0.27837 0.09152 0.0
H1033 H 0.71062 0.19067 0.02355 0.0
H1034 H 0.6442 0.2296 0.14033 0.0
H1035 H 0.68473 0.27243 0.1343 0.0
H1036 H 0.646 0.26006 0.10658 0.0
H1037 H 0.65504 0.13424 0.02658 0.0
H1038 H 0.61728 0.12925 0.05232 0.0
H1039 H 0.62859 0.15311 0.01055 0.0
H1040 H 0.54098 0.12452 0.1356 0.0
H1041 H 0.54298 0.19491 0.05297 0.0
H1042 H 0.63383 0.1657 0.14802 0.0
H1043 H 0.62381 0.13072 0.11648 0.0
H1044 H 0.59308 0.12277 0.15281 0.0
H1045 H 0.63301 0.24869 0.04267 0.0
H1046 H 0.59258 0.22773 0.01619 0.0
H1047 H 0.6246 0.21219 0.01364 0.0
C1048 C 0.82174 0.4088 0.0869 0.0
C1049 C 0.85905 0.42374 0.09119 0.0
C1050 C 0.80631 0.43065 0.08235 0.0
C1051 C 0.82864 0.46853 0.08207 0.0
C1052 C 0.86612 0.48392 0.08804 0.0
C1053 C 0.8809 0.46133 0.0927 0.0
C1054 C 0.76621 0.4131 0.07614 0.0
C1055 C 0.89076 0.52418 0.0879 0.0
C1056 C 0.78863 0.51819 0.03286 0.0
C1057 C 0.77303 0.52689 0.06099 0.0
C1058 C 0.80789 0.50015 0.03933 0.0
C1059 C 0.81238 0.49158 0.0749 0.0
C1060 C 0.79833 0.5023 0.1035 0.0
C1061 C 0.77881 0.51979 0.09617 0.0
C1062 C 0.82311 0.49018 0.00794 0.0
C1063 C 0.80252 0.49395 0.14177 0.0
H1064 H 0.80458 0.37984 0.08569 0.0
H1065 H 0.90979 0.47318 0.09562 0.0
H1066 H 0.75402 0.4235 0.09548 0.0
H1067 H 0.76111 0.41992 0.04898 0.0
H1068 H 0.75239 0.38333 0.07865 0.0
H1069 H 0.9191 0.53196 0.09403 0.0
H1070 H 0.88992 0.53514 0.06131 0.0
H1071 H 0.88144 0.53695 0.10771 0.0
H1072 H 0.78464 0.52433 0.00574 0.0
H1073 H 0.76747 0.52742 0.11804 0.0
H1074 H 0.81932 0.46277 0.01098 0.0
H1075 H 0.85237 0.50961 0.00634 0.0
H1076 H 0.81066 0.49141 0.98236 0.0
H1077 H 0.78667 0.46445 0.14618 0.0
H1078 H 0.79319 0.50727 0.161 0.0
H1079 H 0.83109 0.50262 0.1476 0.0
C1080 C 0.73235 0.50511 0.42234 0.0
C1081 C 0.74219 0.49866 0.45607 0.0
C1082 C 0.69604 0.48989 0.4125 0.0
C1083 C 0.66887 0.46857 0.43743 0.0
C1084 C 0.67874 0.46473 0.47263 0.0
C1085 C 0.71538 0.47979 0.48153 0.0
C1086 C 0.68694 0.49468 0.3747 0.0
C1087 C 0.65057 0.44308 0.50034 0.0
C1088 C 0.57021 0.43929 0.42082 0.0
C1089 C 0.55631 0.40315 0.41102 0.0
C1090 C 0.60708 0.46144 0.42846 0.0
C1091 C 0.63052 0.44717 0.42582 0.0
C1092 C 0.61693 0.41143 0.41365 0.0
C1093 C 0.58002 0.38986 0.40657 0.0
C1094 C 0.62057 0.49944 0.44113 0.0
C1095 C 0.64107 0.39535 0.40968 0.0
H1096 H 0.75314 0.52088 0.40302 0.0
H1097 H 0.723 0.47539 0.50784 0.0
H1098 H 0.67705 0.46902 0.35996 0.0
H1099 H 0.66511 0.50143 0.37429 0.0
H1100 H 0.71065 0.51606 0.36029 0.0
H1101 H 0.66244 0.4459 0.52732 0.0
H1102 H 0.63006 0.45163 0.50153 0.0
H1103 H 0.63647 0.4142 0.49283 0.0
H1104 H 0.55198 0.44963 0.42465 0.0
H1105 H 0.56946 0.36207 0.39871 0.0
H1106 H 0.59933 0.50704 0.44014 0.0
H1107 H 0.64366 0.51872 0.42459 0.0
H1108 H 0.63045 0.50228 0.46896 0.0
H1109 H 0.66482 0.41309 0.39302 0.0
H1110 H 0.62687 0.36816 0.39739 0.0
H1111 H 0.6512 0.39315 0.43627 0.0
C1112 C 0.6138 0.16582 0.43942 0.0
C1113 C 0.6005 0.13831 0.41382 0.0
C1114 C 0.59276 0.18018 0.45183 0.0
C1115 C 0.55706 0.16588 0.43925 0.0
C1116 C 0.54294 0.13717 0.41443 0.0
C1117 C 0.565 0.12406 0.40161 0.0
C1118 C 0.60912 0.21138 0.47764 0.0
C1119 C 0.50468 0.12059 0.40109 0.0
C1120 C 0.4971 0.19188 0.49136 0.0
C1121 C 0.50002 0.2204 0.47064 0.0
C1122 C 0.51479 0.17308 0.48111 0.0
C1123 C 0.5359 0.18333 0.44958 0.0
C1124 C 0.53798 0.21143 0.42814 0.0
C1125 C 0.51943 0.22901 0.43855 0.0
C1126 C 0.51118 0.14253 0.50408 0.0
C1127 C 0.56023 0.22335 0.39438 0.0
H1128 H 0.64089 0.17654 0.44955 0.0
H1129 H 0.55422 0.10221 0.38246 0.0
H1130 H 0.60992 0.23527 0.46521 0.0
H1131 H 0.59228 0.20475 0.50198 0.0
H1132 H 0.63692 0.21869 0.48563 0.0
H1133 H 0.49663 0.09603 0.3849 0.0
H1134 H 0.4858 0.11346 0.42389 0.0
H1135 H 0.50171 0.14034 0.38444 0.0
H1136 H 0.48129 0.18453 0.51567 0.0
H1137 H 0.51984 0.24932 0.42112 0.0
H1138 H 0.53777 0.14954 0.5155 0.0
H1139 H 0.50214 0.11798 0.48765 0.0
H1140 H 0.4918 0.13626 0.52632 0.0
H1141 H 0.58867 0.23172 0.40058 0.0
H1142 H 0.55952 0.24617 0.38113 0.0
H1143 H 0.55028 0.20065 0.37526 0.0
C1144 C 0.83293 0.40327 0.40879 0.0
C1145 C 0.86924 0.42801 0.40205 0.0
C1146 C 0.82156 0.3672 0.41655 0.0
C1147 C 0.84722 0.35559 0.41816 0.0
C1148 C 0.88377 0.3801 0.41025 0.0
C1149 C 0.89432 0.41601 0.40203 0.0
C1150 C 0.78205 0.34152 0.42333 0.0
C1151 C 0.91177 0.36858 0.41076 0.0
C1152 C 0.81182 0.2704 0.47328 0.0
C1153 C 0.79798 0.24423 0.44652 0.0
C1154 C 0.83086 0.30718 0.46435 0.0
C1155 C 0.83513 0.31762 0.42793 0.0
C1156 C 0.82365 0.29108 0.40099 0.0
C1157 C 0.80629 0.25474 0.41076 0.0
C1158 C 0.84436 0.33484 0.49379 0.0
C1159 C 0.82757 0.30074 0.36184 0.0
H1160 H 0.81336 0.41223 0.40854 0.0
H1161 H 0.92245 0.43499 0.39697 0.0
H1162 H 0.77209 0.31801 0.40519 0.0
H1163 H 0.77814 0.33122 0.45109 0.0
H1164 H 0.76536 0.35442 0.41934 0.0
H1165 H 0.90831 0.35163 0.43446 0.0
H1166 H 0.90853 0.35217 0.38674 0.0
H1167 H 0.93959 0.39196 0.41072 0.0
H1168 H 0.8061 0.26223 0.50099 0.0
H1169 H 0.79679 0.23435 0.39012 0.0
H1170 H 0.82712 0.34732 0.49539 0.0
H1171 H 0.87224 0.35661 0.48803 0.0
H1172 H 0.84397 0.32278 0.52015 0.0
H1173 H 0.81093 0.27691 0.3448 0.0
H1174 H 0.85614 0.31229 0.35385 0.0
H1175 H 0.81959 0.32123 0.35635 0.0
C1176 C 0.4493 0.59091 0.96049 0.0
C1177 C 0.41475 0.57978 0.94704 0.0
C1178 C 0.47205 0.62669 0.97124 0.0
C1179 C 0.46013 0.65196 0.96773 0.0
C1180 C 0.42564 0.64097 0.95317 0.0
C1181 C 0.40319 0.6049 0.94347 0.0
C1182 C 0.50822 0.63707 0.9874 0.0
C1183 C 0.41238 0.66734 0.94779 0.0
C1184 C 0.49558 0.74016 0.0177 0.0
C1185 C 0.51643 0.76468 0.99114 0.0
C1186 C 0.47939 0.70288 0.01164 0.0
C1187 C 0.48376 0.69026 0.97808 0.0
C1188 C 0.50742 0.71509 0.95254 0.0
C1189 C 0.52403 0.75197 0.95977 0.0
C1190 C 0.45571 0.67708 0.04017 0.0
C1191 C 0.51277 0.70302 0.91632 0.0
H1192 H 0.45802 0.57132 0.96391 0.0
H1193 H 0.37659 0.59635 0.93291 0.0
H1194 H 0.52979 0.66229 0.97536 0.0
H1195 H 0.5076 0.64215 0.01635 0.0
H1196 H 0.51536 0.61565 0.98402 0.0
H1197 H 0.3855 0.65474 0.93481 0.0
H1198 H 0.41057 0.67852 0.97388 0.0
H1199 H 0.43176 0.69022 0.93104 0.0
H1200 H 0.49025 0.75002 0.04225 0.0
H1201 H 0.54097 0.77095 0.93961 0.0
H1202 H 0.46112 0.65444 0.04297 0.0
H1203 H 0.42703 0.66549 0.03247 0.0
H1204 H 0.45981 0.69056 0.06644 0.0
H1205 H 0.51897 0.68093 0.91899 0.0
H1206 H 0.53478 0.72534 0.90098 0.0
H1207 H 0.48748 0.69241 0.90069 0.0
C1208 C 0.264 0.80831 0.93696 0.0
C1209 C 0.24257 0.77156 0.9297 0.0
C1210 C 0.30166 0.82555 0.93337 0.0
C1211 C 0.31796 0.80538 0.92237 0.0
C1212 C 0.29638 0.76797 0.91628 0.0
C1213 C 0.259 0.7515 0.9204 0.0
C1214 C 0.32394 0.86539 0.94069 0.0
C1215 C 0.31266 0.74541 0.90487 0.0
C1216 C 0.41075 0.85375 0.87942 0.0
C1217 C 0.43283 0.85538 0.90782 0.0
C1218 C 0.37328 0.83764 0.88379 0.0
C1219 C 0.35762 0.82314 0.91742 0.0
C1220 C 0.37973 0.82457 0.9461 0.0
C1221 C 0.41696 0.84046 0.94091 0.0
C1222 C 0.35041 0.83613 0.85246 0.0
C1223 C 0.3641 0.80955 0.9824 0.0
H1224 H 0.25124 0.82373 0.94439 0.0
H1225 H 0.24254 0.72278 0.91616 0.0
H1226 H 0.34474 0.87056 0.9611 0.0
H1227 H 0.33827 0.87974 0.91604 0.0
H1228 H 0.30729 0.87694 0.95015 0.0
H1229 H 0.29202 0.71664 0.90114 0.0
H1230 H 0.32749 0.75588 0.8794 0.0
H1231 H 0.33238 0.74715 0.92508 0.0
H1232 H 0.42275 0.86525 0.85381 0.0
H1233 H 0.43372 0.84171 0.96316 0.0
H1234 H 0.33531 0.85012 0.85919 0.0
H1235 H 0.33027 0.80773 0.84639 0.0
H1236 H 0.3667 0.8487 0.82812 0.0
H1237 H 0.34936 0.8228 0.99273 0.0
H1238 H 0.3851 0.81337 0.0021 0.0
H1239 H 0.34441 0.78037 0.9803 0.0
C1240 C 0.10804 0.55937 0.86929 0.0
C1241 C 0.12978 0.59696 0.8693 0.0
C1242 C 0.12044 0.53744 0.8842 0.0
C1243 C 0.15567 0.55356 0.89861 0.0
C1244 C 0.1782 0.59142 0.89717 0.0
C1245 C 0.16476 0.61264 0.88305 0.0
C1246 C 0.09529 0.4973 0.88611 0.0
C1247 C 0.21632 0.60966 0.91125 0.0
C1248 C 0.18724 0.51159 0.96887 0.0
C1249 C 0.20734 0.50095 0.94801 0.0
C1250 C 0.16796 0.52653 0.95287 0.0
C1251 C 0.16943 0.53127 0.91531 0.0
C1252 C 0.18755 0.51805 0.8941 0.0
C1253 C 0.2055 0.50223 0.91071 0.0
C1254 C 0.14768 0.53901 0.97626 0.0
C1255 C 0.19005 0.52275 0.85406 0.0
H1256 H 0.08062 0.54722 0.85947 0.0
H1257 H 0.18147 0.64164 0.88333 0.0
H1258 H 0.10847 0.48267 0.8754 0.0
H1259 H 0.08847 0.4891 0.91441 0.0
H1260 H 0.06991 0.48874 0.87112 0.0
H1261 H 0.23095 0.63914 0.90622 0.0
H1262 H 0.21603 0.60513 0.94042 0.0
H1263 H 0.2315 0.59789 0.89862 0.0
H1264 H 0.18791 0.50975 -0.00232 0.0
H1265 H 0.2197 0.49245 0.89443 0.0
H1266 H 0.12047 0.52998 0.96516 0.0
H1267 H 0.16221 0.56885 0.97705 0.0
H1268 H 0.14481 0.52881 0.00401 0.0
H1269 H 0.16277 0.51093 0.84223 0.0
H1270 H 0.2044 0.51007 0.84139 0.0
H1271 H 0.20463 0.55186 0.84739 0.0
C1272 C 0.4466 0.53144 0.60621 0.0
C1273 C 0.45387 0.56552 0.61794 0.0
C1274 C 0.41266 0.50658 0.59215 0.0
C1275 C 0.38535 0.51593 0.59014 0.0
C1276 C 0.392 0.5495 0.60376 0.0
C1277 C 0.42615 0.57387 0.61736 0.0
C1278 C 0.40631 0.47077 0.57852 0.0
C1279 C 0.36345 0.56033 0.60265 0.0
C1280 C 0.30975 0.4772 0.52177 0.0
C1281 C 0.28032 0.45459 0.54316 0.0
C1282 C 0.34466 0.49585 0.53626 0.0
C1283 C 0.35005 0.49145 0.57288 0.0
C1284 C 0.32062 0.46644 0.59376 0.0
C1285 C 0.28613 0.44821 0.57856 0.0
C1286 C 0.37552 0.52138 0.51277 0.0
C1287 C 0.32488 0.46075 0.63283 0.0
H1288 H 0.46795 0.52486 0.60633 0.0
H1289 H 0.43146 0.59999 0.62665 0.0
H1290 H 0.38378 0.4486 0.5934 0.0
H1291 H 0.39833 0.46752 0.55001 0.0
H1292 H 0.4305 0.46784 0.58128 0.0
H1293 H 0.37236 0.58665 0.61583 0.0
H1294 H 0.3565 0.56222 0.5745 0.0
H1295 H 0.33854 0.53959 0.61595 0.0
H1296 H 0.30519 0.48174 0.49427 0.0
H1297 H 0.26336 0.43016 0.59494 0.0
H1298 H 0.39573 0.5125 0.51134 0.0
H1299 H 0.38904 0.54887 0.52433 0.0
H1300 H 0.36664 0.52269 0.48523 0.0
H1301 H 0.3501 0.4602 0.63779 0.0
H1302 H 0.30181 0.43532 0.64298 0.0
H1303 H 0.32631 0.48342 0.64841 0.0
C1304 C 0.42884 0.86481 0.59738 0.0
C1305 C 0.39155 0.84156 0.59413 0.0
C1306 C 0.45244 0.85114 0.60058 0.0
C1307 C 0.43832 0.81343 0.60088 0.0
C1308 C 0.40057 0.79003 0.60099 0.0
C1309 C 0.37765 0.80441 0.59784 0.0
C1310 C 0.49253 0.87695 0.60111 0.0
C1311 C 0.38442 0.74967 0.60125 0.0
C1312 C 0.49187 0.77465 0.55799 0.0
C1313 C 0.50409 0.76444 0.58787 0.0
C1314 C 0.47078 0.79103 0.56179 0.0
C1315 C 0.46262 0.79827 0.59649 0.0
C1316 C 0.4763 0.7893 0.62679 0.0
C1317 C 0.49695 0.7725 0.62208 0.0
C1318 C 0.4572 0.79966 0.52812 0.0
C1319 C 0.46806 0.79624 0.66414 0.0
H1320 H 0.43985 0.89361 0.59483 0.0
H1321 H 0.34886 0.78633 0.59621 0.0
H1322 H 0.50435 0.87311 0.62591 0.0
H1323 H 0.50553 0.87131 0.57835 0.0
H1324 H 0.49921 0.9055 0.59963 0.0
H1325 H 0.35482 0.73538 0.60554 0.0
H1326 H 0.38989 0.74093 0.57527 0.0
H1327 H 0.39696 0.74143 0.6224 0.0
H1328 H 0.49776 0.76871 0.53153 0.0
H1329 H 0.50722 0.76525 0.64519 0.0
H1330 H 0.48042 0.82153 0.51364 0.0
H1331 H 0.4369 0.808 0.53275 0.0
H1332 H 0.4452 0.77586 0.5102 0.0
H1333 H 0.47486 0.82468 0.66704 0.0
H1334 H 0.48302 0.79024 0.6847 0.0
H1335 H 0.4388 0.77922 0.66941 0.0
C1336 C 0.21347 0.69684 0.53819 0.0
C1337 C 0.22026 0.70714 0.50224 0.0
C1338 C 0.19597 0.66057 0.54809 0.0
C1339 C 0.18379 0.63388 0.52128 0.0
C1340 C 0.18752 0.64404 0.48482 0.0
C1341 C 0.20594 0.68077 0.47566 0.0
C1342 C 0.19281 0.65102 0.58724 0.0
C1343 C 0.17362 0.61617 0.45557 0.0
C1344 C 0.18391 0.54782 0.54382 0.0
C1345 C 0.14764 0.52428 0.55205 0.0
C1346 C 0.19589 0.58352 0.53385 0.0
C1347 C 0.17089 0.59589 0.53147 0.0
C1348 C 0.13426 0.57243 0.54002 0.0
C1349 C 0.12313 0.53697 0.5506 0.0
C1350 C 0.23538 0.60803 0.52582 0.0
C1351 C 0.10679 0.58459 0.53746 0.0
H1352 H 0.22313 0.71731 0.55876 0.0
H1353 H 0.21052 0.6888 0.44786 0.0
H1354 H 0.16487 0.63014 0.59394 0.0
H1355 H 0.21049 0.63968 0.59341 0.0
H1356 H 0.20074 0.67475 0.60469 0.0
H1357 H 0.17542 0.62825 0.42888 0.0
H1358 H 0.18945 0.60213 0.45507 0.0
H1359 H 0.14516 0.59556 0.46078 0.0
H1360 H 0.20303 0.53831 0.54497 0.0
H1361 H 0.09497 0.51887 0.5566 0.0
H1362 H 0.24654 0.63202 0.54341 0.0
H1363 H 0.23878 0.61773 0.49787 0.0
H1364 H 0.25141 0.59441 0.52963 0.0
H1365 H 0.11357 0.60684 0.55652 0.0
H1366 H 0.07906 0.56248 0.54324 0.0
H1367 H 0.10724 0.59518 0.51033 0.0
loop_
_geom_bond_atom_site_label_1
_geom_bond_atom_site_label_2
_geom_bond_distance
_geom_bond_site_symmetry_2
_ccdc_geom_bond_type
Co0 O3 1.970 . S
Co0 N17 1.989 . S
Co0 O25 1.967 . S
Co0 O32 1.920 . S
Co1 O4 1.966 . S
Co1 N10 2.022 . S
Co1 N18 1.993 . S
Co1 O26 1.941 . S
C2 O3 1.258 . S
C2 O4 1.263 . S
O3 Co0 1.970 . S
O3 C2 1.258 . S
O4 Co1 1.966 . S
O4 C2 1.263 . S
C5 O6 1.235 . S
C5 O32 1.289 . S
O6 C5 1.235 . S
C7 C9 1.400 . S
C7 N10 1.351 1_556 S
C7 C12 1.501 1_556 S
C8 C9 1.387 . S
C8 N11 1.341 . S
C9 C7 1.400 . S
C9 C8 1.387 . S
N10 Co1 2.022 . S
N10 C7 1.351 1_554 S
N10 N11 1.365 1_554 S
N11 C8 1.341 . S
N11 N10 1.365 1_556 S
N11 H31 0.862 . S
C12 C7 1.501 1_554 S
C12 H13 0.961 . S
C12 H14 0.961 . S
C12 H15 0.960 1_554 S
H13 C12 0.961 . S
H14 C12 0.961 . S
H15 C12 0.960 1_556 S
C16 N17 1.342 . S
C16 C20 1.401 . S
C16 C21 1.499 . S
N17 Co0 1.989 . S
N17 C16 1.342 . S
N17 N18 1.388 . S
N18 Co1 1.993 . S
N18 N17 1.388 . S
N18 C19 1.346 . S
C19 N18 1.346 . S
C19 C20 1.396 . S
C19 C29 1.510 . S
C20 C16 1.401 . S
C20 C19 1.396 . S
C21 C16 1.499 . S
C21 H22 0.959 . S
C21 H23 0.960 . S
C21 H24 0.961 . S
H22 C21 0.959 . S
H23 C21 0.960 . S
H24 C21 0.961 . S
O25 Co0 1.967 . S
O25 C33 1.258 . S
O26 Co1 1.941 . S
O26 C33 1.266 . S
H27 C29 0.959 . S
H28 C29 0.961 . S
C29 C19 1.510 . S
C29 H27 0.959 . S
C29 H28 0.961 . S
C29 H30 0.960 . S
H30 C29 0.960 . S
H31 N11 0.862 . S
O32 Co0 1.920 . S
O32 C5 1.289 . S
C33 O25 1.258 . S
C33 O26 1.266 . S
Co34 O37 1.970 . S
Co34 N51 1.989 . S
Co34 O59 1.967 . S
Co34 O66 1.920 . S
Co35 O38 1.966 . S
Co35 N44 2.022 . S
Co35 N52 1.993 . S
Co35 O60 1.941 . S
C36 O37 1.258 . S
C36 O38 1.263 . S
O37 Co34 1.970 . S
O37 C36 1.258 . S
O38 Co35 1.966 . S
O38 C36 1.263 . S
C39 O40 1.235 . S
C39 O66 1.289 . S
O40 C39 1.235 . S
C41 C43 1.400 . S
C41 N44 1.351 1_556 S
C41 C46 1.501 1_556 S
C42 C43 1.387 . S
C42 N45 1.341 . S
C43 C41 1.400 . S
C43 C42 1.387 . S
N44 Co35 2.022 . S
N44 C41 1.351 1_554 S
N44 N45 1.365 1_554 S
N45 C42 1.341 . S
N45 N44 1.365 1_556 S
N45 H65 0.862 . S
C46 C41 1.501 1_554 S
C46 H47 0.961 . S
C46 H48 0.961 . S
C46 H49 0.960 1_554 S
H47 C46 0.961 . S
H48 C46 0.961 . S
H49 C46 0.960 1_556 S
C50 N51 1.342 . S
C50 C54 1.401 . S
C50 C55 1.499 . S
N51 Co34 1.989 . S
N51 C50 1.342 . S
N51 N52 1.388 . S
N52 Co35 1.993 . S
N52 N51 1.388 . S
N52 C53 1.346 . S
C53 N52 1.346 . S
C53 C54 1.396 . S
C53 C63 1.510 . S
C54 C50 1.401 . S
C54 C53 1.396 . S
C55 C50 1.499 . S
C55 H56 0.959 . S
C55 H57 0.960 . S
C55 H58 0.961 . S
H56 C55 0.959 . S
H57 C55 0.960 . S
H58 C55 0.961 . S
O59 Co34 1.967 . S
O59 C67 1.258 . S
O60 Co35 1.941 . S
O60 C67 1.266 . S
H61 C63 0.959 . S
H62 C63 0.961 . S
C63 C53 1.510 . S
C63 H61 0.959 . S
C63 H62 0.961 . S
C63 H64 0.960 . S
H64 C63 0.960 . S
H65 N45 0.862 . S
O66 Co34 1.920 . S
O66 C39 1.289 . S
C67 O59 1.258 . S
C67 O60 1.266 . S
Co68 O71 1.970 . S
Co68 N85 1.989 . S
Co68 O93 1.967 . S
Co68 O100 1.920 . S
Co69 O72 1.966 . S
Co69 N78 2.022 . S
Co69 N86 1.993 . S
Co69 O94 1.941 . S
C70 O71 1.258 . S
C70 O72 1.263 . S
O71 Co68 1.970 . S
O71 C70 1.258 . S
O72 Co69 1.966 . S
O72 C70 1.263 . S
C73 O74 1.235 . S
C73 O100 1.289 . S
O74 C73 1.235 . S
C75 C77 1.400 . S
C75 N78 1.351 1_556 S
C75 C80 1.501 1_556 S
C76 C77 1.387 . S
C76 N79 1.341 . S
C77 C75 1.400 . S
C77 C76 1.387 . S
N78 Co69 2.022 . S
N78 C75 1.351 1_554 S
N78 N79 1.365 1_554 S
N79 C76 1.341 . S
N79 N78 1.365 1_556 S
N79 H99 0.862 . S
C80 C75 1.501 1_554 S
C80 H81 0.961 . S
C80 H82 0.961 . S
C80 H83 0.960 1_554 S
H81 C80 0.961 . S
H82 C80 0.961 . S
H83 C80 0.960 1_556 S
C84 N85 1.342 . S
C84 C88 1.401 . S
C84 C89 1.499 . S
N85 Co68 1.989 . S
N85 C84 1.342 . S
N85 N86 1.388 . S
N86 Co69 1.993 . S
N86 N85 1.388 . S
N86 C87 1.346 . S
C87 N86 1.346 . S
C87 C88 1.396 . S
C87 C97 1.510 . S
C88 C84 1.401 . S
C88 C87 1.396 . S
C89 C84 1.499 . S
C89 H90 0.959 . S
C89 H91 0.960 . S
C89 H92 0.961 . S
H90 C89 0.959 . S
H91 C89 0.960 . S
H92 C89 0.961 . S
O93 Co68 1.967 . S
O93 C101 1.258 . S
O94 Co69 1.941 . S
O94 C101 1.266 . S
H95 C97 0.959 . S
H96 C97 0.961 . S
C97 C87 1.510 . S
C97 H95 0.959 . S
C97 H96 0.961 . S
C97 H98 0.960 . S
H98 C97 0.960 . S
H99 N79 0.862 . S
O100 Co68 1.920 . S
O100 C73 1.289 . S
C101 O93 1.258 . S
C101 O94 1.266 . S
Co102 O105 1.970 . S
Co102 N119 1.989 . S
Co102 O127 1.967 . S
Co102 O134 1.920 . S
Co103 O106 1.966 . S
Co103 N112 2.022 . S
Co103 N120 1.993 . S
Co103 O128 1.941 . S
C104 O105 1.258 . S
C104 O106 1.263 . S
O105 Co102 1.970 . S
O105 C104 1.258 . S
O106 Co103 1.966 . S
O106 C104 1.263 . S
C107 O108 1.235 . S
C107 O134 1.289 . S
O108 C107 1.235 . S
C109 C111 1.400 . S
C109 N112 1.351 . S
C109 C114 1.501 . S
C110 C111 1.387 . S
C110 N113 1.341 . S
C111 C109 1.400 . S
C111 C110 1.387 . S
N112 Co103 2.022 . S
N112 C109 1.351 . S
N112 N113 1.365 . S
N113 C110 1.341 . S
N113 N112 1.365 . S
N113 H133 0.862 . S
C114 C109 1.501 . S
C114 H115 0.961 . S
C114 H116 0.961 . S
C114 H117 0.960 . S
H115 C114 0.961 . S
H116 C114 0.961 . S
H117 C114 0.960 . S
C118 N119 1.342 . S
C118 C122 1.401 . S
C118 C123 1.499 . S
N119 Co102 1.989 . S
N119 C118 1.342 . S
N119 N120 1.388 . S
N120 Co103 1.993 . S
N120 N119 1.388 . S
N120 C121 1.346 . S
C121 N120 1.346 . S
C121 C122 1.396 . S
C121 C131 1.510 . S
C122 C118 1.401 . S
C122 C121 1.396 . S
C123 C118 1.499 . S
C123 H124 0.959 . S
C123 H125 0.960 . S
C123 H126 0.961 . S
H124 C123 0.959 . S
H125 C123 0.960 . S
H126 C123 0.961 . S
O127 Co102 1.967 . S
O127 C135 1.258 . S
O128 Co103 1.941 . S
O128 C135 1.266 . S
H129 C131 0.959 . S
H130 C131 0.961 . S
C131 C121 1.510 . S
C131 H129 0.959 . S
C131 H130 0.961 . S
C131 H132 0.960 . S
H132 C131 0.960 . S
H133 N113 0.862 . S
O134 Co102 1.920 . S
O134 C107 1.289 . S
C135 O127 1.258 . S
C135 O128 1.266 . S
Co136 O139 1.970 . S
Co136 N153 1.989 . S
Co136 O161 1.967 . S
Co136 O168 1.920 . S
Co137 O140 1.966 . S
Co137 N146 2.022 . S
Co137 N154 1.993 . S
Co137 O162 1.941 . S
C138 O139 1.258 . S
C138 O140 1.263 . S
O139 Co136 1.970 . S
O139 C138 1.258 . S
O140 Co137 1.966 . S
O140 C138 1.263 . S
C141 O142 1.235 . S
C141 O168 1.289 . S
O142 C141 1.235 . S
C143 C145 1.400 . S
C143 N146 1.351 . S
C143 C148 1.501 . S
C144 C145 1.387 . S
C144 N147 1.341 . S
C145 C143 1.400 . S
C145 C144 1.387 . S
N146 Co137 2.022 . S
N146 C143 1.351 . S
N146 N147 1.365 . S
N147 C144 1.341 . S
N147 N146 1.365 . S
N147 H167 0.862 . S
C148 C143 1.501 . S
C148 H149 0.961 . S
C148 H150 0.961 . S
C148 H151 0.960 . S
H149 C148 0.961 . S
H150 C148 0.961 . S
H151 C148 0.960 . S
C152 N153 1.342 . S
C152 C156 1.401 . S
C152 C157 1.499 . S
N153 Co136 1.989 . S
N153 C152 1.342 . S
N153 N154 1.388 . S
N154 Co137 1.993 . S
N154 N153 1.388 . S
N154 C155 1.346 . S
C155 N154 1.346 . S
C155 C156 1.396 . S
C155 C165 1.510 . S
C156 C152 1.401 . S
C156 C155 1.396 . S
C157 C152 1.499 . S
C157 H158 0.959 . S
C157 H159 0.960 . S
C157 H160 0.961 . S
H158 C157 0.959 . S
H159 C157 0.960 . S
H160 C157 0.961 . S
O161 Co136 1.967 . S
O161 C169 1.258 . S
O162 Co137 1.941 . S
O162 C169 1.266 . S
H163 C165 0.959 . S
H164 C165 0.961 . S
C165 C155 1.510 . S
C165 H163 0.959 . S
C165 H164 0.961 . S
C165 H166 0.960 . S
H166 C165 0.960 . S
H167 N147 0.862 . S
O168 Co136 1.920 . S
O168 C141 1.289 . S
C169 O161 1.258 . S
C169 O162 1.266 . S
Co170 O173 1.970 . S
Co170 N187 1.989 . S
Co170 O195 1.967 . S
Co170 O202 1.920 . S
Co171 O174 1.966 . S
Co171 N180 2.022 . S
Co171 N188 1.993 . S
Co171 O196 1.941 . S
C172 O173 1.258 . S
C172 O174 1.263 . S
O173 Co170 1.970 . S
O173 C172 1.258 . S
O174 Co171 1.966 . S
O174 C172 1.263 . S
C175 O176 1.235 . S
C175 O202 1.289 . S
O176 C175 1.235 . S
C177 C179 1.400 . S
C177 N180 1.351 . S
C177 C182 1.501 . S
C178 C179 1.387 . S
C178 N181 1.341 . S
C179 C177 1.400 . S
C179 C178 1.387 . S
N180 Co171 2.022 . S
N180 C177 1.351 . S
N180 N181 1.365 . S
N181 C178 1.341 . S
N181 N180 1.365 . S
N181 H201 0.862 . S
C182 C177 1.501 . S
C182 H183 0.961 . S
C182 H184 0.961 . S
C182 H185 0.960 . S
H183 C182 0.961 . S
H184 C182 0.961 . S
H185 C182 0.960 . S
C186 N187 1.342 . S
C186 C190 1.401 . S
C186 C191 1.499 . S
N187 Co170 1.989 . S
N187 C186 1.342 . S
N187 N188 1.388 . S
N188 Co171 1.993 . S
N188 N187 1.388 . S
N188 C189 1.346 . S
C189 N188 1.346 . S
C189 C190 1.396 . S
C189 C199 1.510 . S
C190 C186 1.401 . S
C190 C189 1.396 . S
C191 C186 1.499 . S
C191 H192 0.959 . S
C191 H193 0.960 . S
C191 H194 0.961 . S
H192 C191 0.959 . S
H193 C191 0.960 . S
H194 C191 0.961 . S
O195 Co170 1.967 . S
O195 C203 1.258 . S
O196 Co171 1.941 . S
O196 C203 1.266 . S
H197 C199 0.959 . S
H198 C199 0.961 . S
C199 C189 1.510 . S
C199 H197 0.959 . S
C199 H198 0.961 . S
C199 H200 0.960 . S
H200 C199 0.960 . S
H201 N181 0.862 . S
O202 Co170 1.920 . S
O202 C175 1.289 . S
C203 O195 1.258 . S
C203 O196 1.266 . S
Co204 O207 1.970 . S
Co204 N221 1.989 . S
Co204 O229 1.967 . S
Co204 O236 1.920 . S
Co205 O208 1.966 . S
Co205 N214 2.022 . S
Co205 N222 1.993 . S
Co205 O230 1.941 . S
C206 O207 1.258 . S
C206 O208 1.263 . S
O207 Co204 1.970 . S
O207 C206 1.258 . S
O208 Co205 1.966 . S
O208 C206 1.263 . S
C209 O210 1.235 . S
C209 O236 1.289 . S
O210 C209 1.235 . S
C211 C213 1.400 . S
C211 N214 1.351 1_554 S
C211 C216 1.501 1_554 S
C212 C213 1.387 . S
C212 N215 1.341 . S
C213 C211 1.400 . S
C213 C212 1.387 . S
N214 Co205 2.022 . S
N214 C211 1.351 1_556 S
N214 N215 1.365 1_556 S
N215 C212 1.341 . S
N215 N214 1.365 1_554 S
N215 H235 0.862 . S
C216 C211 1.501 1_556 S
C216 H217 0.961 . S
C216 H218 0.961 . S
C216 H219 0.960 1_556 S
H217 C216 0.961 . S
H218 C216 0.961 . S
H219 C216 0.960 1_554 S
C220 N221 1.342 . S
C220 C224 1.401 . S
C220 C225 1.499 . S
N221 Co204 1.989 . S
N221 C220 1.342 . S
N221 N222 1.388 . S
N222 Co205 1.993 . S
N222 N221 1.388 . S
N222 C223 1.346 . S
C223 N222 1.346 . S
C223 C224 1.396 . S
C223 C233 1.510 . S
C224 C220 1.401 . S
C224 C223 1.396 . S
C225 C220 1.499 . S
C225 H226 0.959 . S
C225 H227 0.960 . S
C225 H228 0.961 . S
H226 C225 0.959 . S
H227 C225 0.960 . S
H228 C225 0.961 . S
O229 Co204 1.967 . S
O229 C237 1.258 . S
O230 Co205 1.941 . S
O230 C237 1.266 . S
H231 C233 0.959 . S
H232 C233 0.961 . S
C233 C223 1.510 . S
C233 H231 0.959 . S
C233 H232 0.961 . S
C233 H234 0.960 . S
H234 C233 0.960 . S
H235 N215 0.862 . S
O236 Co204 1.920 . S
O236 C209 1.289 . S
C237 O229 1.258 . S
C237 O230 1.266 . S
Co238 O241 1.970 . S
Co238 N255 1.989 . S
Co238 O263 1.967 . S
Co238 O270 1.920 . S
Co239 O242 1.966 . S
Co239 N248 2.022 . S
Co239 N256 1.993 . S
Co239 O264 1.941 . S
C240 O241 1.258 . S
C240 O242 1.263 . S
O241 Co238 1.970 . S
O241 C240 1.258 . S
O242 Co239 1.966 . S
O242 C240 1.263 . S
C243 O244 1.235 . S
C243 O270 1.289 . S
O244 C243 1.235 . S
C245 C247 1.400 . S
C245 N248 1.351 1_554 S
C245 C250 1.501 1_554 S
C246 C247 1.387 . S
C246 N249 1.341 . S
C247 C245 1.400 . S
C247 C246 1.387 . S
N248 Co239 2.022 . S
N248 C245 1.351 1_556 S
N248 N249 1.365 1_556 S
N249 C246 1.341 . S
N249 N248 1.365 1_554 S
N249 H269 0.862 . S
C250 C245 1.501 1_556 S
C250 H251 0.961 . S
C250 H252 0.961 . S
C250 H253 0.960 1_556 S
H251 C250 0.961 . S
H252 C250 0.961 . S
H253 C250 0.960 1_554 S
C254 N255 1.342 . S
C254 C258 1.401 . S
C254 C259 1.499 . S
N255 Co238 1.989 . S
N255 C254 1.342 . S
N255 N256 1.388 . S
N256 Co239 1.993 . S
N256 N255 1.388 . S
N256 C257 1.346 . S
C257 N256 1.346 . S
C257 C258 1.396 . S
C257 C267 1.510 . S
C258 C254 1.401 . S
C258 C257 1.396 . S
C259 C254 1.499 . S
C259 H260 0.959 . S
C259 H261 0.960 . S
C259 H262 0.961 . S
H260 C259 0.959 . S
H261 C259 0.960 . S
H262 C259 0.961 . S
O263 Co238 1.967 . S
O263 C271 1.258 . S
O264 Co239 1.941 . S
O264 C271 1.266 . S
H265 C267 0.959 . S
H266 C267 0.961 . S
C267 C257 1.510 . S
C267 H265 0.959 . S
C267 H266 0.961 . S
C267 H268 0.960 . S
H268 C267 0.960 . S
H269 N249 0.862 . S
O270 Co238 1.920 . S
O270 C243 1.289 . S
C271 O263 1.258 . S
C271 O264 1.266 . S
Co272 O275 1.970 . S
Co272 N289 1.989 . S
Co272 O297 1.967 . S
Co272 O304 1.920 . S
Co273 O276 1.966 . S
Co273 N282 2.022 . S
Co273 N290 1.993 . S
Co273 O298 1.941 . S
C274 O275 1.258 . S
C274 O276 1.263 . S
O275 Co272 1.970 . S
O275 C274 1.258 . S
O276 Co273 1.966 . S
O276 C274 1.263 . S
C277 O278 1.235 . S
C277 O304 1.289 . S
O278 C277 1.235 . S
C279 C281 1.400 . S
C279 N282 1.351 1_554 S
C279 C284 1.501 1_554 S
C280 C281 1.387 . S
C280 N283 1.341 . S
C281 C279 1.400 . S
C281 C280 1.387 . S
N282 Co273 2.022 . S
N282 C279 1.351 1_556 S
N282 N283 1.365 1_556 S
N283 C280 1.341 . S
N283 N282 1.365 1_554 S
N283 H303 0.862 . S
C284 C279 1.501 1_556 S
C284 H285 0.961 . S
C284 H286 0.961 . S
C284 H287 0.960 1_556 S
H285 C284 0.961 . S
H286 C284 0.961 . S
H287 C284 0.960 1_554 S
C288 N289 1.342 . S
C288 C292 1.401 . S
C288 C293 1.499 . S
N289 Co272 1.989 . S
N289 C288 1.342 . S
N289 N290 1.388 . S
N290 Co273 1.993 . S
N290 N289 1.388 . S
N290 C291 1.346 . S
C291 N290 1.346 . S
C291 C292 1.396 . S
C291 C301 1.510 . S
C292 C288 1.401 . S
C292 C291 1.396 . S
C293 C288 1.499 . S
C293 H294 0.959 . S
C293 H295 0.960 . S
C293 H296 0.961 . S
H294 C293 0.959 . S
H295 C293 0.960 . S
H296 C293 0.961 . S
O297 Co272 1.967 . S
O297 C305 1.258 . S
O298 Co273 1.941 . S
O298 C305 1.266 . S
H299 C301 0.959 . S
H300 C301 0.961 . S
C301 C291 1.510 . S
C301 H299 0.959 . S
C301 H300 0.961 . S
C301 H302 0.960 . S
H302 C301 0.960 . S
H303 N283 0.862 . S
O304 Co272 1.920 . S
O304 C277 1.289 . S
C305 O297 1.258 . S
C305 O298 1.266 . S
Co306 O309 1.970 . S
Co306 N323 1.989 . S
Co306 O331 1.967 . S
Co306 O338 1.920 . S
Co307 O310 1.966 . S
Co307 N316 2.022 . S
Co307 N324 1.993 . S
Co307 O332 1.941 . S
C308 O309 1.258 . S
C308 O310 1.263 . S
O309 Co306 1.970 . S
O309 C308 1.258 . S
O310 Co307 1.966 . S
O310 C308 1.263 . S
C311 O312 1.235 . S
C311 O338 1.289 . S
O312 C311 1.235 . S
C313 C315 1.400 . S
C313 N316 1.351 . S
C313 C318 1.501 . S
C314 C315 1.387 . S
C314 N317 1.341 . S
C315 C313 1.400 . S
C315 C314 1.387 . S
N316 Co307 2.022 . S
N316 C313 1.351 . S
N316 N317 1.365 . S
N317 C314 1.341 . S
N317 N316 1.365 . S
N317 H337 0.862 . S
C318 C313 1.501 . S
C318 H319 0.961 . S
C318 H320 0.961 . S
C318 H321 0.960 . S
H319 C318 0.961 . S
H320 C318 0.961 . S
H321 C318 0.960 . S
C322 N323 1.342 . S
C322 C326 1.401 . S
C322 C327 1.499 . S
N323 Co306 1.989 . S
N323 C322 1.342 . S
N323 N324 1.388 . S
N324 Co307 1.993 . S
N324 N323 1.388 . S
N324 C325 1.346 . S
C325 N324 1.346 . S
C325 C326 1.396 . S
C325 C335 1.510 . S
C326 C322 1.401 . S
C326 C325 1.396 . S
C327 C322 1.499 . S
C327 H328 0.959 . S
C327 H329 0.960 . S
C327 H330 0.961 . S
H328 C327 0.959 . S
H329 C327 0.960 . S
H330 C327 0.961 . S
O331 Co306 1.967 . S
O331 C339 1.258 . S
O332 Co307 1.941 . S
O332 C339 1.266 . S
H333 C335 0.959 . S
H334 C335 0.961 . S
C335 C325 1.510 . S
C335 H333 0.959 . S
C335 H334 0.961 . S
C335 H336 0.960 . S
H336 C335 0.960 . S
H337 N317 0.862 . S
O338 Co306 1.920 . S
O338 C311 1.289 . S
C339 O331 1.258 . S
C339 O332 1.266 . S
Co340 O343 1.970 . S
Co340 N357 1.989 . S
Co340 O365 1.967 . S
Co340 O372 1.920 . S
Co341 O344 1.966 . S
Co341 N350 2.022 . S
Co341 N358 1.993 . S
Co341 O366 1.941 . S
C342 O343 1.258 . S
C342 O344 1.263 . S
O343 Co340 1.970 . S
O343 C342 1.258 . S
O344 Co341 1.966 . S
O344 C342 1.263 . S
C345 O346 1.235 . S
C345 O372 1.289 . S
O346 C345 1.235 . S
C347 C349 1.400 . S
C347 N350 1.351 . S
C347 C352 1.501 . S
C348 C349 1.387 . S
C348 N351 1.341 . S
C349 C347 1.400 . S
C349 C348 1.387 . S
N350 Co341 2.022 . S
N350 C347 1.351 . S
N350 N351 1.365 . S
N351 C348 1.341 . S
N351 N350 1.365 . S
N351 H371 0.862 . S
C352 C347 1.501 . S
C352 H353 0.961 . S
C352 H354 0.961 . S
C352 H355 0.960 . S
H353 C352 0.961 . S
H354 C352 0.961 . S
H355 C352 0.960 . S
C356 N357 1.342 . S
C356 C360 1.401 . S
C356 C361 1.499 . S
N357 Co340 1.989 . S
N357 C356 1.342 . S
N357 N358 1.388 . S
N358 Co341 1.993 . S
N358 N357 1.388 . S
N358 C359 1.346 . S
C359 N358 1.346 . S
C359 C360 1.396 . S
C359 C369 1.510 . S
C360 C356 1.401 . S
C360 C359 1.396 . S
C361 C356 1.499 . S
C361 H362 0.959 . S
C361 H363 0.960 . S
C361 H364 0.961 . S
H362 C361 0.959 . S
H363 C361 0.960 . S
H364 C361 0.961 . S
O365 Co340 1.967 . S
O365 C373 1.258 . S
O366 Co341 1.941 . S
O366 C373 1.266 . S
H367 C369 0.959 . S
H368 C369 0.961 . S
C369 C359 1.510 . S
C369 H367 0.959 . S
C369 H368 0.961 . S
C369 H370 0.960 . S
H370 C369 0.960 . S
H371 N351 0.862 . S
O372 Co340 1.920 . S
O372 C345 1.289 . S
C373 O365 1.258 . S
C373 O366 1.266 . S
Co374 O377 1.970 . S
Co374 N391 1.989 . S
Co374 O399 1.967 . S
Co374 O406 1.920 . S
Co375 O378 1.966 . S
Co375 N384 2.022 . S
Co375 N392 1.993 . S
Co375 O400 1.941 . S
C376 O377 1.258 . S
C376 O378 1.263 . S
O377 Co374 1.970 . S
O377 C376 1.258 . S
O378 Co375 1.966 . S
O378 C376 1.263 . S
C379 O380 1.235 . S
C379 O406 1.289 . S
O380 C379 1.235 . S
C381 C383 1.400 . S
C381 N384 1.351 . S
C381 C386 1.501 . S
C382 C383 1.387 . S
C382 N385 1.341 . S
C383 C381 1.400 . S
C383 C382 1.387 . S
N384 Co375 2.022 . S
N384 C381 1.351 . S
N384 N385 1.365 . S
N385 C382 1.341 . S
N385 N384 1.365 . S
N385 H405 0.862 . S
C386 C381 1.501 . S
C386 H387 0.961 . S
C386 H388 0.961 . S
C386 H389 0.960 . S
H387 C386 0.961 . S
H388 C386 0.961 . S
H389 C386 0.960 . S
C390 N391 1.342 . S
C390 C394 1.401 . S
C390 C395 1.499 . S
N391 Co374 1.989 . S
N391 C390 1.342 . S
N391 N392 1.388 . S
N392 Co375 1.993 . S
N392 N391 1.388 . S
N392 C393 1.346 . S
C393 N392 1.346 . S
C393 C394 1.396 . S
C393 C403 1.510 . S
C394 C390 1.401 . S
C394 C393 1.396 . S
C395 C390 1.499 . S
C395 H396 0.959 . S
C395 H397 0.960 . S
C395 H398 0.961 . S
H396 C395 0.959 . S
H397 C395 0.960 . S
H398 C395 0.961 . S
O399 Co374 1.967 . S
O399 C407 1.258 . S
O400 Co375 1.941 . S
O400 C407 1.266 . S
H401 C403 0.959 . S
H402 C403 0.961 . S
C403 C393 1.510 . S
C403 H401 0.959 . S
C403 H402 0.961 . S
C403 H404 0.960 . S
H404 C403 0.960 . S
H405 N385 0.862 . S
O406 Co374 1.920 . S
O406 C379 1.289 . S
C407 O399 1.258 . S
C407 O400 1.266 . S
C408 C409 1.391 . S
C408 C410 1.394 . S
C408 H424 0.931 . S
C409 C408 1.391 . S
C409 C413 1.376 . S
C410 C408 1.394 . S
C410 C411 1.369 . S
C410 C414 1.531 . S
C411 C410 1.369 . S
C411 C412 1.410 . S
C411 C419 1.503 . S
C412 C411 1.410 . S
C412 C413 1.392 . S
C412 C415 1.511 . S
C413 C409 1.376 . S
C413 C412 1.392 . S
C413 H425 0.929 . S
C414 C410 1.531 . S
C414 H426 0.960 . S
C414 H427 0.962 . S
C414 H428 0.960 . S
C415 C412 1.511 . S
C415 H429 0.961 . S
C415 H430 0.961 . S
C415 H431 0.961 . S
C416 C417 1.370 . S
C416 C418 1.363 . S
C416 H432 0.931 . S
C417 C416 1.370 . S
C417 C421 1.408 . S
C418 C416 1.363 . S
C418 C419 1.370 . S
C418 C422 1.524 . S
C419 C411 1.503 . S
C419 C418 1.370 . S
C419 C420 1.403 . S
C420 C419 1.403 . S
C420 C421 1.404 . S
C420 C423 1.539 1_545 S
C421 C417 1.408 . S
C421 C420 1.404 . S
C421 H433 0.915 1_545 S
C422 C418 1.524 . S
C422 H434 0.956 . S
C422 H435 0.961 . S
C422 H436 0.961 . S
C423 C420 1.539 1_565 S
C423 H437 0.958 . S
C423 H438 0.961 . S
C423 H439 0.960 . S
H424 C408 0.931 . S
H425 C413 0.929 . S
H426 C414 0.960 . S
H427 C414 0.962 . S
H428 C414 0.960 . S
H429 C415 0.961 . S
H430 C415 0.961 . S
H431 C415 0.961 . S
H432 C416 0.931 . S
H433 C421 0.915 1_565 S
H434 C422 0.956 . S
H435 C422 0.961 . S
H436 C422 0.961 . S
H437 C423 0.958 . S
H438 C423 0.961 . S
H439 C423 0.960 . S
C440 C441 1.391 . S
C440 C442 1.394 . S
C440 H456 0.931 . S
C441 C440 1.391 . S
C441 C445 1.376 . S
C442 C440 1.394 . S
C442 C443 1.369 . S
C442 C446 1.531 . S
C443 C442 1.369 . S
C443 C444 1.410 . S
C443 C451 1.503 . S
C444 C443 1.410 . S
C444 C445 1.392 . S
C444 C447 1.511 . S
C445 C441 1.376 . S
C445 C444 1.392 . S
C445 H457 0.929 . S
C446 C442 1.531 . S
C446 H458 0.960 . S
C446 H459 0.962 . S
C446 H460 0.960 . S
C447 C444 1.511 . S
C447 H461 0.961 . S
C447 H462 0.961 . S
C447 H463 0.961 . S
C448 C449 1.370 . S
C448 C450 1.363 . S
C448 H464 0.931 . S
C449 C448 1.370 . S
C449 C453 1.408 . S
C450 C448 1.363 . S
C450 C451 1.370 . S
C450 C454 1.524 1_655 S
C451 C443 1.503 . S
C451 C450 1.370 . S
C451 C452 1.403 . S
C452 C451 1.403 . S
C452 C453 1.404 . S
C452 C455 1.539 . S
C453 C449 1.408 . S
C453 C452 1.404 . S
C453 H465 0.930 . S
C454 C450 1.524 1_455 S
C454 H466 0.956 . S
C454 H467 0.961 . S
C454 H468 0.961 . S
C455 C452 1.539 . S
C455 H469 0.958 . S
C455 H470 0.961 . S
C455 H471 0.960 . S
H456 C440 0.931 . S
H457 C445 0.929 . S
H458 C446 0.960 . S
H459 C446 0.962 . S
H460 C446 0.960 . S
H461 C447 0.961 . S
H462 C447 0.961 . S
H463 C447 0.961 . S
H464 C448 0.931 . S
H465 C453 0.930 . S
H466 C454 0.956 . S
H467 C454 0.961 . S
H468 C454 0.961 . S
H469 C455 0.958 . S
H470 C455 0.961 . S
H471 C455 0.960 . S
C472 C473 1.391 . S
C472 C474 1.394 . S
C472 H488 0.931 . S
C473 C472 1.391 . S
C473 C477 1.376 . S
C474 C472 1.394 . S
C474 C475 1.369 . S
C474 C478 1.531 . S
C475 C474 1.369 . S
C475 C476 1.410 . S
C475 C483 1.503 . S
C476 C475 1.410 . S
C476 C477 1.392 . S
C476 C479 1.511 . S
C477 C473 1.376 . S
C477 C476 1.392 . S
C477 H489 0.929 . S
C478 C474 1.531 . S
C478 H490 0.960 . S
C478 H491 0.962 . S
C478 H492 0.960 . S
C479 C476 1.511 . S
C479 H493 0.961 . S
C479 H494 0.961 . S
C479 H495 0.961 . S
C480 C481 1.370 . S
C480 C482 1.363 . S
C480 H496 0.931 . S
C481 C480 1.370 . S
C481 C485 1.408 . S
C482 C480 1.363 . S
C482 C483 1.370 . S
C482 C486 1.524 . S
C483 C475 1.503 . S
C483 C482 1.370 . S
C483 C484 1.403 . S
C484 C483 1.403 . S
C484 C485 1.404 . S
C484 C487 1.539 . S
C485 C481 1.408 . S
C485 C484 1.404 . S
C485 H497 0.930 . S
C486 C482 1.524 . S
C486 H498 0.956 . S
C486 H499 0.961 . S
C486 H500 0.961 . S
C487 C484 1.539 . S
C487 H501 0.958 . S
C487 H502 0.961 . S
C487 H503 0.960 . S
H488 C472 0.931 . S
H489 C477 0.929 . S
H490 C478 0.960 . S
H491 C478 0.962 . S
H492 C478 0.960 . S
H493 C479 0.961 . S
H494 C479 0.961 . S
H495 C479 0.961 . S
H496 C480 0.931 . S
H497 C485 0.930 . S
H498 C486 0.956 . S
H499 C486 0.961 . S
H500 C486 0.961 . S
H501 C487 0.958 . S
H502 C487 0.961 . S
H503 C487 0.960 . S
C504 C505 1.391 . S
C504 C506 1.394 . S
C504 H520 0.931 . S
C505 C504 1.391 . S
C505 C509 1.376 . S
C506 C504 1.394 . S
C506 C507 1.369 . S
C506 C510 1.531 . S
C507 C506 1.369 . S
C507 C508 1.410 . S
C507 C515 1.503 . S
C508 C507 1.410 . S
C508 C509 1.392 . S
C508 C511 1.511 . S
C509 C505 1.376 . S
C509 C508 1.392 . S
C509 H521 0.929 . S
C510 C506 1.531 . S
C510 H522 0.960 . S
C510 H523 0.962 . S
C510 H524 0.960 . S
C511 C508 1.511 . S
C511 H525 0.961 . S
C511 H526 0.961 . S
C511 H527 0.961 . S
C512 C513 1.370 . S
C512 C514 1.363 . S
C512 H528 0.931 . S
C513 C512 1.370 . S
C513 C517 1.408 . S
C514 C512 1.363 . S
C514 C515 1.370 . S
C514 C518 1.524 1_565 S
C515 C507 1.503 . S
C515 C514 1.370 . S
C515 C516 1.403 . S
C516 C515 1.403 . S
C516 C517 1.404 . S
C516 C519 1.539 . S
C517 C513 1.408 . S
C517 C516 1.404 . S
C517 H529 0.930 . S
C518 C514 1.524 1_545 S
C518 H530 0.956 . S
C518 H531 0.961 . S
C518 H532 0.961 . S
C519 C516 1.539 . S
C519 H533 0.958 . S
C519 H534 0.961 . S
C519 H535 0.960 . S
H520 C504 0.931 . S
H521 C509 0.929 . S
H522 C510 0.960 . S
H523 C510 0.962 . S
H524 C510 0.960 . S
H525 C511 0.961 . S
H526 C511 0.961 . S
H527 C511 0.961 . S
H528 C512 0.931 . S
H529 C517 0.930 . S
H530 C518 0.956 . S
H531 C518 0.961 . S
H532 C518 0.961 . S
H533 C519 0.958 . S
H534 C519 0.961 . S
H535 C519 0.960 . S
C536 C537 1.391 . S
C536 C538 1.394 . S
C536 H552 0.931 . S
C537 C536 1.391 . S
C537 C541 1.376 . S
C538 C536 1.394 . S
C538 C539 1.369 . S
C538 C542 1.531 . S
C539 C538 1.369 . S
C539 C540 1.410 . S
C539 C547 1.503 . S
C540 C539 1.410 . S
C540 C541 1.392 . S
C540 C543 1.511 1_455 S
C541 C537 1.376 . S
C541 C540 1.392 . S
C541 H553 0.929 . S
C542 C538 1.531 . S
C542 H554 0.960 . S
C542 H555 0.962 . S
C542 H556 0.960 . S
C543 C540 1.511 1_655 S
C543 H557 0.961 . S
C543 H558 0.961 . S
C543 H559 0.961 . S
C544 C545 1.370 . S
C544 C546 1.363 . S
C544 H560 0.931 . S
C545 C544 1.370 . S
C545 C549 1.408 . S
C546 C544 1.363 . S
C546 C547 1.370 . S
C546 C550 1.524 . S
C547 C539 1.503 . S
C547 C546 1.370 . S
C547 C548 1.403 . S
C548 C547 1.403 . S
C548 C549 1.404 . S
C548 C551 1.539 . S
C549 C545 1.408 . S
C549 C548 1.404 . S
C549 H561 0.930 . S
C550 C546 1.524 . S
C550 H562 0.956 . S
C550 H563 0.961 . S
C550 H564 0.961 . S
C551 C548 1.539 . S
C551 H565 0.958 . S
C551 H566 0.961 . S
C551 H567 0.960 . S
H552 C536 0.931 . S
H553 C541 0.929 . S
H554 C542 0.960 . S
H555 C542 0.962 . S
H556 C542 0.960 . S
H557 C543 0.961 . S
H558 C543 0.961 . S
H559 C543 0.961 . S
H560 C544 0.931 . S
H561 C549 0.930 . S
H562 C550 0.956 . S
H563 C550 0.961 . S
H564 C550 0.961 . S
H565 C551 0.958 . S
H566 C551 0.961 . S
H567 C551 0.960 . S
C568 C569 1.391 . S
C568 C570 1.394 . S
C568 H584 0.931 . S
C569 C568 1.391 . S
C569 C573 1.376 . S
C570 C568 1.394 . S
C570 C571 1.369 . S
C570 C574 1.531 . S
C571 C570 1.369 . S
C571 C572 1.410 . S
C571 C579 1.503 . S
C572 C571 1.410 . S
C572 C573 1.392 . S
C572 C575 1.511 . S
C573 C569 1.376 . S
C573 C572 1.392 . S
C573 H585 0.929 . S
C574 C570 1.531 . S
C574 H586 0.960 . S
C574 H587 0.962 . S
C574 H588 0.960 . S
C575 C572 1.511 . S
C575 H589 0.961 . S
C575 H590 0.961 . S
C575 H591 0.961 . S
C576 C577 1.370 . S
C576 C578 1.363 . S
C576 H592 0.931 . S
C577 C576 1.370 . S
C577 C581 1.408 . S
C578 C576 1.363 . S
C578 C579 1.370 . S
C578 C582 1.524 . S
C579 C571 1.503 . S
C579 C578 1.370 . S
C579 C580 1.403 . S
C580 C579 1.403 . S
C580 C581 1.404 . S
C580 C583 1.539 . S
C581 C577 1.408 . S
C581 C580 1.404 . S
C581 H593 0.930 . S
C582 C578 1.524 . S
C582 H594 0.956 . S
C582 H595 0.961 . S
C582 H596 0.961 . S
C583 C580 1.539 . S
C583 H597 0.958 . S
C583 H598 0.961 . S
C583 H599 0.960 . S
H584 C568 0.931 . S
H585 C573 0.929 . S
H586 C574 0.960 . S
H587 C574 0.962 . S
H588 C574 0.960 . S
H589 C575 0.961 . S
H590 C575 0.961 . S
H591 C575 0.961 . S
H592 C576 0.931 . S
H593 C581 0.930 . S
H594 C582 0.956 . S
H595 C582 0.961 . S
H596 C582 0.961 . S
H597 C583 0.958 . S
H598 C583 0.961 . S
H599 C583 0.960 . S
C600 C601 1.391 . S
C600 C602 1.394 . S
C600 H616 0.931 . S
C601 C600 1.391 . S
C601 C605 1.376 1_545 S
C602 C600 1.394 . S
C602 C603 1.369 . S
C602 C606 1.531 . S
C603 C602 1.369 . S
C603 C604 1.410 1_545 S
C603 C611 1.503 1_545 S
C604 C603 1.410 1_565 S
C604 C605 1.392 . S
C604 C607 1.511 1_554 S
C605 C601 1.376 1_565 S
C605 C604 1.392 . S
C605 H617 0.929 1_554 S
C606 C602 1.531 . S
C606 H618 0.960 . S
C606 H619 0.962 . S
C606 H620 0.960 . S
C607 C604 1.511 1_556 S
C607 H621 0.961 . S
C607 H622 0.961 . S
C607 H623 0.961 1_556 S
C608 C609 1.370 . S
C608 C610 1.363 . S
C608 H624 0.931 . S
C609 C608 1.370 . S
C609 C613 1.408 1_556 S
C610 C608 1.363 . S
C610 C611 1.370 1_556 S
C610 C614 1.524 1_565 S
C611 C603 1.503 1_565 S
C611 C610 1.370 1_554 S
C611 C612 1.403 . S
C612 C611 1.403 . S
C612 C613 1.404 . S
C612 C615 1.539 . S
C613 C609 1.408 1_554 S
C613 C612 1.404 . S
C613 H625 0.930 . S
C614 C610 1.524 1_545 S
C614 H626 0.956 . S
C614 H627 0.961 . S
C614 H628 0.961 . S
C615 C612 1.539 . S
C615 H629 0.958 . S
C615 H630 0.961 . S
C615 H631 0.960 . S
H616 C600 0.931 . S
H617 C605 0.929 1_556 S
H618 C606 0.960 . S
H619 C606 0.962 . S
H620 C606 0.960 . S
H621 C607 0.961 . S
H622 C607 0.961 . S
H623 C607 0.961 1_554 S
H624 C608 0.931 . S
H625 C613 0.930 . S
H626 C614 0.956 . S
H627 C614 0.961 . S
H628 C614 0.961 . S
H629 C615 0.958 . S
H630 C615 0.961 . S
H631 C615 0.960 . S
C632 C633 1.391 . S
C632 C634 1.394 . S
C632 H648 0.931 . S
C633 C632 1.391 . S
C633 C637 1.376 1_655 S
C634 C632 1.394 . S
C634 C635 1.369 . S
C634 C638 1.531 . S
C635 C634 1.369 . S
C635 C636 1.410 1_655 S
C635 C643 1.503 1_655 S
C636 C635 1.410 1_455 S
C636 C637 1.392 . S
C636 C639 1.511 1_554 S
C637 C633 1.376 1_455 S
C637 C636 1.392 . S
C637 H649 0.929 . S
C638 C634 1.531 . S
C638 H650 0.960 . S
C638 H651 0.962 . S
C638 H652 0.960 . S
C639 C636 1.511 1_556 S
C639 H653 0.961 . S
C639 H654 0.961 . S
C639 H655 0.961 1_556 S
C640 C641 1.370 . S
C640 C642 1.363 . S
C640 H656 0.931 . S
C641 C640 1.370 . S
C641 C645 1.408 1_556 S
C642 C640 1.363 . S
C642 C643 1.370 1_556 S
C642 C646 1.524 1_455 S
C643 C635 1.503 1_455 S
C643 C642 1.370 1_554 S
C643 C644 1.403 . S
C644 C643 1.403 . S
C644 C645 1.404 . S
C644 C647 1.539 . S
C645 C641 1.408 1_554 S
C645 C644 1.404 . S
C645 H657 0.930 . S
C646 C642 1.524 1_655 S
C646 H658 0.956 . S
C646 H659 0.961 1_655 S
C646 H660 0.961 . S
C647 C644 1.539 . S
C647 H661 0.958 . S
C647 H662 0.961 . S
C647 H663 0.960 . S
H648 C632 0.931 . S
H649 C637 0.929 . S
H650 C638 0.960 . S
H651 C638 0.962 . S
H652 C638 0.960 . S
H653 C639 0.961 . S
H654 C639 0.961 . S
H655 C639 0.961 1_554 S
H656 C640 0.931 . S
H657 C645 0.930 . S
H658 C646 0.956 . S
H659 C646 0.961 1_455 S
H660 C646 0.961 . S
H661 C647 0.958 . S
H662 C647 0.961 . S
H663 C647 0.960 . S
C664 C665 1.391 . S
C664 C666 1.394 . S
C664 H680 0.931 . S
C665 C664 1.391 . S
C665 C669 1.376 1_556 S
C666 C664 1.394 . S
C666 C667 1.369 . S
C666 C670 1.531 . S
C667 C666 1.369 . S
C667 C668 1.410 1_556 S
C667 C675 1.503 . S
C668 C667 1.410 1_554 S
C668 C669 1.392 . S
C668 C671 1.511 . S
C669 C665 1.376 1_554 S
C669 C668 1.392 . S
C669 H681 0.929 . S
C670 C666 1.531 . S
C670 H682 0.960 . S
C670 H683 0.962 . S
C670 H684 0.960 . S
C671 C668 1.511 . S
C671 H685 0.961 . S
C671 H686 0.961 . S
C671 H687 0.961 . S
C672 C673 1.370 . S
C672 C674 1.363 . S
C672 H688 0.931 . S
C673 C672 1.370 . S
C673 C677 1.408 1_554 S
C674 C672 1.363 . S
C674 C675 1.370 1_554 S
C674 C678 1.524 . S
C675 C667 1.503 . S
C675 C674 1.370 1_556 S
C675 C676 1.403 . S
C676 C675 1.403 . S
C676 C677 1.404 . S
C676 C679 1.539 . S
C677 C673 1.408 1_556 S
C677 C676 1.404 . S
C677 H689 0.930 . S
C678 C674 1.524 . S
C678 H690 0.956 . S
C678 H691 0.961 . S
C678 H692 0.961 . S
C679 C676 1.539 . S
C679 H693 0.958 . S
C679 H694 0.961 . S
C679 H695 0.960 . S
H680 C664 0.931 . S
H681 C669 0.929 . S
H682 C670 0.960 . S
H683 C670 0.962 . S
H684 C670 0.960 . S
H685 C671 0.961 . S
H686 C671 0.961 . S
H687 C671 0.961 . S
H688 C672 0.931 . S
H689 C677 0.930 . S
H690 C678 0.956 . S
H691 C678 0.961 . S
H692 C678 0.961 . S
H693 C679 0.958 . S
H694 C679 0.961 . S
H695 C679 0.960 . S
C696 C697 1.391 1_655 S
C696 C698 1.394 . S
C696 H712 0.931 . S
C697 C696 1.391 1_455 S
C697 C701 1.376 . S
C698 C696 1.394 . S
C698 C699 1.369 1_655 S
C698 C702 1.531 . S
C699 C698 1.369 1_455 S
C699 C700 1.410 . S
C699 C707 1.503 1_455 S
C700 C699 1.410 . S
C700 C701 1.392 . S
C700 C703 1.511 . S
C701 C697 1.376 . S
C701 C700 1.392 . S
C701 H713 0.929 . S
C702 C698 1.531 . S
C702 H714 0.960 . S
C702 H715 0.962 . S
C702 H716 0.960 . S
C703 C700 1.511 . S
C703 H717 0.961 . S
C703 H718 0.961 . S
C703 H719 0.961 . S
C704 C705 1.370 . S
C704 C706 1.363 . S
C704 H720 0.931 . S
C705 C704 1.370 . S
C705 C709 1.408 . S
C706 C704 1.363 . S
C706 C707 1.370 . S
C706 C710 1.524 . S
C707 C699 1.503 1_655 S
C707 C706 1.370 . S
C707 C708 1.403 . S
C708 C707 1.403 . S
C708 C709 1.404 . S
C708 C711 1.539 1_655 S
C709 C705 1.408 . S
C709 C708 1.404 . S
C709 H721 0.930 . S
C710 C706 1.524 . S
C710 H722 0.956 . S
C710 H723 0.961 1_655 S
C710 H724 0.961 . S
C711 C708 1.539 1_455 S
C711 H725 0.958 1_455 S
C711 H726 0.961 . S
C711 H727 0.960 . S
H712 C696 0.931 . S
H713 C701 0.929 . S
H714 C702 0.960 . S
H715 C702 0.962 . S
H716 C702 0.960 . S
H717 C703 0.961 . S
H718 C703 0.961 . S
H719 C703 0.961 . S
H720 C704 0.931 . S
H721 C709 0.930 . S
H722 C710 0.956 . S
H723 C710 0.961 1_455 S
H724 C710 0.961 . S
H725 C711 0.958 1_655 S
H726 C711 0.961 . S
H727 C711 0.960 . S
C728 C729 1.391 . S
C728 C730 1.394 . S
C728 H744 0.931 . S
C729 C728 1.391 . S
C729 C733 1.376 . S
C730 C728 1.394 . S
C730 C731 1.369 . S
C730 C734 1.531 . S
C731 C730 1.369 . S
C731 C732 1.410 . S
C731 C739 1.503 . S
C732 C731 1.410 . S
C732 C733 1.392 . S
C732 C735 1.511 . S
C733 C729 1.376 . S
C733 C732 1.392 . S
C733 H745 0.929 . S
C734 C730 1.531 . S
C734 H746 0.960 . S
C734 H747 0.962 . S
C734 H748 0.960 . S
C735 C732 1.511 . S
C735 H749 0.961 . S
C735 H750 0.961 . S
C735 H751 0.961 . S
C736 C737 1.370 . S
C736 C738 1.363 . S
C736 H752 0.931 . S
C737 C736 1.370 . S
C737 C741 1.408 . S
C738 C736 1.363 . S
C738 C739 1.370 . S
C738 C742 1.524 . S
C739 C731 1.503 . S
C739 C738 1.370 . S
C739 C740 1.403 . S
C740 C739 1.403 . S
C740 C741 1.404 . S
C740 C743 1.539 . S
C741 C737 1.408 . S
C741 C740 1.404 . S
C741 H753 0.930 . S
C742 C738 1.524 . S
C742 H754 0.956 . S
C742 H755 0.961 . S
C742 H756 0.961 . S
C743 C740 1.539 . S
C743 H757 0.958 . S
C743 H758 0.961 . S
C743 H759 0.960 . S
H744 C728 0.931 . S
H745 C733 0.929 . S
H746 C734 0.960 . S
H747 C734 0.962 . S
H748 C734 0.960 . S
H749 C735 0.961 . S
H750 C735 0.961 . S
H751 C735 0.961 . S
H752 C736 0.931 . S
H753 C741 0.930 . S
H754 C742 0.956 . S
H755 C742 0.961 . S
H756 C742 0.961 . S
H757 C743 0.958 . S
H758 C743 0.961 . S
H759 C743 0.960 . S
C760 C761 1.391 . S
C760 C762 1.394 . S
C760 H776 0.931 . S
C761 C760 1.391 . S
C761 C765 1.376 . S
C762 C760 1.394 . S
C762 C763 1.364 1_545 S
C762 C766 1.531 . S
C763 C762 1.364 1_565 S
C763 C764 1.417 . S
C763 C771 1.499 . S
C764 C763 1.417 . S
C764 C765 1.392 1_565 S
C764 C767 1.511 . S
C765 C761 1.376 . S
C765 C764 1.392 1_545 S
C765 H777 0.929 . S
C766 C762 1.531 . S
C766 H778 0.960 1_545 S
C766 H779 0.962 . S
C766 H780 0.960 . S
C767 C764 1.511 . S
C767 H781 0.961 . S
C767 H782 0.961 . S
C767 H783 0.961 . S
C768 C769 1.370 1_545 S
C768 C770 1.363 . S
C768 H784 0.931 . S
C769 C768 1.370 1_565 S
C769 C773 1.408 . S
C770 C768 1.363 . S
C770 C771 1.370 1_545 S
C770 C774 1.524 . S
C771 C763 1.499 . S
C771 C770 1.370 1_565 S
C771 C772 1.403 . S
C772 C771 1.403 . S
C772 C773 1.404 . S
C772 C775 1.539 . S
C773 C769 1.408 . S
C773 C772 1.404 . S
C773 H785 0.930 . S
C774 C770 1.524 . S
C774 H786 0.956 . S
C774 H787 0.961 . S
C774 H788 0.961 . S
C775 C772 1.539 . S
C775 H789 0.958 . S
C775 H790 0.961 . S
C775 H791 0.960 . S
H776 C760 0.931 . S
H777 C765 0.929 . S
H778 C766 0.960 1_565 S
H779 C766 0.962 . S
H780 C766 0.960 . S
H781 C767 0.961 . S
H782 C767 0.961 . S
H783 C767 0.961 . S
H784 C768 0.931 . S
H785 C773 0.930 . S
H786 C774 0.956 . S
H787 C774 0.961 . S
H788 C774 0.961 . S
H789 C775 0.958 . S
H790 C775 0.961 . S
H791 C775 0.960 . S
C792 C793 1.391 . S
C792 C794 1.394 . S
C792 H808 0.931 . S
C793 C792 1.391 . S
C793 C797 1.376 . S
C794 C792 1.394 . S
C794 C795 1.369 . S
C794 C798 1.531 . S
C795 C794 1.369 . S
C795 C796 1.410 . S
C795 C803 1.503 . S
C796 C795 1.410 . S
C796 C797 1.392 . S
C796 C799 1.511 . S
C797 C793 1.376 . S
C797 C796 1.392 . S
C797 H809 0.929 . S
C798 C794 1.531 . S
C798 H810 0.960 . S
C798 H811 0.962 . S
C798 H812 0.960 . S
C799 C796 1.511 . S
C799 H813 0.961 . S
C799 H814 0.961 . S
C799 H815 0.961 . S
C800 C801 1.370 . S
C800 C802 1.363 . S
C800 H816 0.931 . S
C801 C800 1.370 . S
C801 C805 1.408 . S
C802 C800 1.363 . S
C802 C803 1.370 . S
C802 C806 1.524 . S
C803 C795 1.503 . S
C803 C802 1.370 . S
C803 C804 1.403 . S
C804 C803 1.403 . S
C804 C805 1.404 . S
C804 C807 1.539 . S
C805 C801 1.408 . S
C805 C804 1.404 . S
C805 H817 0.930 . S
C806 C802 1.524 . S
C806 H818 0.956 . S
C806 H819 0.961 . S
C806 H820 0.961 . S
C807 C804 1.539 . S
C807 H821 0.958 . S
C807 H822 0.961 . S
C807 H823 0.960 . S
H808 C792 0.931 . S
H809 C797 0.929 . S
H810 C798 0.960 . S
H811 C798 0.962 . S
H812 C798 0.960 . S
H813 C799 0.961 . S
H814 C799 0.961 . S
H815 C799 0.961 . S
H816 C800 0.931 . S
H817 C805 0.930 . S
H818 C806 0.956 . S
H819 C806 0.961 . S
H820 C806 0.961 . S
H821 C807 0.958 . S
H822 C807 0.961 . S
H823 C807 0.960 . S
C824 C825 1.391 . S
C824 C826 1.394 . S
C824 H840 0.931 . S
C825 C824 1.391 . S
C825 C829 1.376 . S
C826 C824 1.394 . S
C826 C827 1.369 . S
C826 C830 1.531 . S
C827 C826 1.369 . S
C827 C828 1.410 . S
C827 C835 1.503 . S
C828 C827 1.410 . S
C828 C829 1.392 . S
C828 C831 1.511 . S
C829 C825 1.376 . S
C829 C828 1.392 . S
C829 H841 0.929 . S
C830 C826 1.531 . S
C830 H842 0.960 . S
C830 H843 0.962 . S
C830 H844 0.960 . S
C831 C828 1.511 . S
C831 H845 0.961 . S
C831 H846 0.961 . S
C831 H847 0.961 . S
C832 C833 1.370 . S
C832 C834 1.363 . S
C832 H848 0.931 . S
C833 C832 1.370 . S
C833 C837 1.408 . S
C834 C832 1.363 . S
C834 C835 1.370 . S
C834 C838 1.524 . S
C835 C827 1.503 . S
C835 C834 1.370 . S
C835 C836 1.403 . S
C836 C835 1.403 . S
C836 C837 1.404 . S
C836 C839 1.539 . S
C837 C833 1.408 . S
C837 C836 1.404 . S
C837 H849 0.930 . S
C838 C834 1.524 . S
C838 H850 0.956 . S
C838 H851 0.961 . S
C838 H852 0.961 . S
C839 C836 1.539 . S
C839 H853 0.958 . S
C839 H854 0.961 . S
C839 H855 0.960 . S
H840 C824 0.931 . S
H841 C829 0.929 . S
H842 C830 0.960 . S
H843 C830 0.962 . S
H844 C830 0.960 . S
H845 C831 0.961 . S
H846 C831 0.961 . S
H847 C831 0.961 . S
H848 C832 0.931 . S
H849 C837 0.930 . S
H850 C838 0.956 . S
H851 C838 0.961 . S
H852 C838 0.961 . S
H853 C839 0.958 . S
H854 C839 0.961 . S
H855 C839 0.960 . S
C856 C857 1.391 . S
C856 C858 1.394 . S
C856 H872 0.931 . S
C857 C856 1.391 . S
C857 C861 1.376 . S
C858 C856 1.394 . S
C858 C859 1.369 . S
C858 C862 1.531 . S
C859 C858 1.369 . S
C859 C860 1.410 . S
C859 C867 1.503 . S
C860 C859 1.410 . S
C860 C861 1.392 . S
C860 C863 1.511 . S
C861 C857 1.376 . S
C861 C860 1.392 . S
C861 H873 0.929 . S
C862 C858 1.531 . S
C862 H874 0.960 . S
C862 H875 0.962 . S
C862 H876 0.960 . S
C863 C860 1.511 . S
C863 H877 0.961 . S
C863 H878 0.961 . S
C863 H879 0.961 . S
C864 C865 1.370 . S
C864 C866 1.363 . S
C864 H880 0.931 . S
C865 C864 1.370 . S
C865 C869 1.408 . S
C866 C864 1.363 . S
C866 C867 1.370 . S
C866 C870 1.524 . S
C867 C859 1.503 . S
C867 C866 1.370 . S
C867 C868 1.403 . S
C868 C867 1.403 . S
C868 C869 1.404 . S
C868 C871 1.539 . S
C869 C865 1.408 . S
C869 C868 1.404 . S
C869 H881 0.930 . S
C870 C866 1.524 . S
C870 H882 0.956 . S
C870 H883 0.961 . S
C870 H884 0.961 . S
C871 C868 1.539 . S
C871 H885 0.958 . S
C871 H886 0.961 . S
C871 H887 0.960 . S
H872 C856 0.931 . S
H873 C861 0.929 . S
H874 C862 0.960 . S
H875 C862 0.962 . S
H876 C862 0.960 . S
H877 C863 0.961 . S
H878 C863 0.961 . S
H879 C863 0.961 . S
H880 C864 0.931 . S
H881 C869 0.930 . S
H882 C870 0.956 . S
H883 C870 0.961 . S
H884 C870 0.961 . S
H885 C871 0.958 . S
H886 C871 0.961 . S
H887 C871 0.960 . S
C888 C889 1.391 . S
C888 C890 1.394 . S
C888 H904 0.931 . S
C889 C888 1.391 . S
C889 C893 1.376 . S
C890 C888 1.394 . S
C890 C891 1.369 . S
C890 C894 1.531 . S
C891 C890 1.369 . S
C891 C892 1.410 . S
C891 C899 1.503 . S
C892 C891 1.410 . S
C892 C893 1.392 . S
C892 C895 1.511 . S
C893 C889 1.376 . S
C893 C892 1.392 . S
C893 H905 0.929 . S
C894 C890 1.531 . S
C894 H906 0.960 . S
C894 H907 0.962 . S
C894 H908 0.960 . S
C895 C892 1.511 . S
C895 H909 0.961 . S
C895 H910 0.961 . S
C895 H911 0.961 . S
C896 C897 1.370 . S
C896 C898 1.363 . S
C896 H912 0.931 . S
C897 C896 1.370 . S
C897 C901 1.408 . S
C898 C896 1.363 . S
C898 C899 1.370 . S
C898 C902 1.524 . S
C899 C891 1.503 . S
C899 C898 1.370 . S
C899 C900 1.403 . S
C900 C899 1.403 . S
C900 C901 1.404 . S
C900 C903 1.539 . S
C901 C897 1.408 . S
C901 C900 1.404 . S
C901 H913 0.930 . S
C902 C898 1.524 . S
C902 H914 0.956 . S
C902 H915 0.961 . S
C902 H916 0.961 . S
C903 C900 1.539 . S
C903 H917 0.958 . S
C903 H918 0.961 . S
C903 H919 0.960 . S
H904 C888 0.931 . S
H905 C893 0.929 . S
H906 C894 0.960 . S
H907 C894 0.962 . S
H908 C894 0.960 . S
H909 C895 0.961 . S
H910 C895 0.961 . S
H911 C895 0.961 . S
H912 C896 0.931 . S
H913 C901 0.930 . S
H914 C902 0.956 . S
H915 C902 0.961 . S
H916 C902 0.961 . S
H917 C903 0.958 . S
H918 C903 0.961 . S
H919 C903 0.960 . S
C920 C921 1.391 . S
C920 C922 1.394 . S
C920 H936 0.931 . S
C921 C920 1.391 . S
C921 C925 1.376 . S
C922 C920 1.394 . S
C922 C923 1.369 . S
C922 C926 1.531 . S
C923 C922 1.369 . S
C923 C924 1.410 . S
C923 C931 1.503 . S
C924 C923 1.410 . S
C924 C925 1.392 . S
C924 C927 1.511 . S
C925 C921 1.376 . S
C925 C924 1.392 . S
C925 H937 0.929 . S
C926 C922 1.531 . S
C926 H938 0.960 . S
C926 H939 0.962 . S
C926 H940 0.960 . S
C927 C924 1.511 . S
C927 H941 0.961 . S
C927 H942 0.961 . S
C927 H943 0.961 . S
C928 C929 1.370 . S
C928 C930 1.363 . S
C928 H944 0.931 . S
C929 C928 1.370 . S
C929 C933 1.408 . S
C930 C928 1.363 . S
C930 C931 1.370 . S
C930 C934 1.524 . S
C931 C923 1.503 . S
C931 C930 1.370 . S
C931 C932 1.403 . S
C932 C931 1.403 . S
C932 C933 1.404 . S
C932 C935 1.539 . S
C933 C929 1.408 . S
C933 C932 1.404 . S
C933 H945 0.930 . S
C934 C930 1.524 . S
C934 H946 0.956 . S
C934 H947 0.961 . S
C934 H948 0.961 . S
C935 C932 1.539 . S
C935 H949 0.958 . S
C935 H950 0.961 . S
C935 H951 0.960 . S
H936 C920 0.931 . S
H937 C925 0.929 . S
H938 C926 0.960 . S
H939 C926 0.962 . S
H940 C926 0.960 . S
H941 C927 0.961 . S
H942 C927 0.961 . S
H943 C927 0.961 . S
H944 C928 0.931 . S
H945 C933 0.930 . S
H946 C934 0.956 . S
H947 C934 0.961 . S
H948 C934 0.961 . S
H949 C935 0.958 . S
H950 C935 0.961 . S
H951 C935 0.960 . S
C952 C953 1.391 . S
C952 C954 1.394 . S
C952 H968 0.931 . S
C953 C952 1.391 . S
C953 C957 1.376 . S
C954 C952 1.394 . S
C954 C955 1.369 . S
C954 C958 1.531 . S
C955 C954 1.369 . S
C955 C956 1.410 . S
C955 C963 1.503 . S
C956 C955 1.410 . S
C956 C957 1.392 . S
C956 C959 1.511 . S
C957 C953 1.376 . S
C957 C956 1.392 . S
C957 H969 0.929 . S
C958 C954 1.531 . S
C958 H970 0.960 . S
C958 H971 0.962 . S
C958 H972 0.960 . S
C959 C956 1.511 . S
C959 H973 0.961 . S
C959 H974 0.961 . S
C959 H975 0.961 . S
C960 C961 1.370 . S
C960 C962 1.363 . S
C960 H976 0.931 . S
C961 C960 1.370 . S
C961 C965 1.408 . S
C962 C960 1.363 . S
C962 C963 1.370 . S
C962 C966 1.524 . S
C963 C955 1.503 . S
C963 C962 1.370 . S
C963 C964 1.403 . S
C964 C963 1.403 . S
C964 C965 1.404 . S
C964 C967 1.539 . S
C965 C961 1.408 . S
C965 C964 1.404 . S
C965 H977 0.930 . S
C966 C962 1.524 . S
C966 H978 0.956 . S
C966 H979 0.961 . S
C966 H980 0.961 . S
C967 C964 1.539 . S
C967 H981 0.958 . S
C967 H982 0.961 . S
C967 H983 0.960 . S
H968 C952 0.931 . S
H969 C957 0.929 . S
H970 C958 0.960 . S
H971 C958 0.962 . S
H972 C958 0.960 . S
H973 C959 0.961 . S
H974 C959 0.961 . S
H975 C959 0.961 . S
H976 C960 0.931 . S
H977 C965 0.930 . S
H978 C966 0.956 . S
H979 C966 0.961 . S
H980 C966 0.961 . S
H981 C967 0.958 . S
H982 C967 0.961 . S
H983 C967 0.960 . S
C984 C985 1.391 . S
C984 C986 1.394 . S
C984 H1000 0.931 . S
C985 C984 1.391 . S
C985 C989 1.376 1_556 S
C986 C984 1.394 . S
C986 C987 1.369 1_556 S
C986 C990 1.531 . S
C987 C986 1.369 1_554 S
C987 C988 1.410 . S
C987 C995 1.503 . S
C988 C987 1.410 . S
C988 C989 1.392 . S
C988 C991 1.511 . S
C989 C985 1.376 1_554 S
C989 C988 1.392 . S
C989 H1001 0.929 . S
C990 C986 1.531 . S
C990 H1002 0.960 . S
C990 H1003 0.962 . S
C990 H1004 0.960 . S
C991 C988 1.511 . S
C991 H1005 0.961 . S
C991 H1006 0.961 . S
C991 H1007 0.961 . S
C992 C993 1.370 . S
C992 C994 1.363 . S
C992 H1008 0.931 . S
C993 C992 1.370 . S
C993 C997 1.408 . S
C994 C992 1.363 . S
C994 C995 1.370 . S
C994 C998 1.524 . S
C995 C987 1.503 . S
C995 C994 1.370 . S
C995 C996 1.403 . S
C996 C995 1.403 . S
C996 C997 1.404 . S
C996 C999 1.539 1_554 S
C997 C993 1.408 . S
C997 C996 1.404 . S
C997 H1009 0.930 . S
C998 C994 1.524 . S
C998 H1010 0.956 . S
C998 H1011 0.961 . S
C998 H1012 0.961 . S
C999 C996 1.539 1_556 S
C999 H1013 0.958 . S
C999 H1014 0.961 1_556 S
C999 H1015 0.960 . S
H1000 C984 0.931 . S
H1001 C989 0.929 . S
H1002 C990 0.960 . S
H1003 C990 0.962 . S
H1004 C990 0.960 . S
H1005 C991 0.961 . S
H1006 C991 0.961 . S
H1007 C991 0.961 . S
H1008 C992 0.931 . S
H1009 C997 0.930 . S
H1010 C998 0.956 . S
H1011 C998 0.961 . S
H1012 C998 0.961 . S
H1013 C999 0.958 . S
H1014 C999 0.961 1_554 S
H1015 C999 0.960 . S
C1016 C1017 1.391 . S
C1016 C1018 1.394 . S
C1016 H1032 0.931 . S
C1017 C1016 1.391 . S
C1017 C1021 1.376 1_556 S
C1018 C1016 1.394 . S
C1018 C1019 1.356 1_556 S
C1018 C1022 1.531 . S
C1019 C1018 1.356 1_554 S
C1019 C1020 1.418 . S
C1019 C1027 1.509 . S
C1020 C1019 1.418 . S
C1020 C1021 1.392 . S
C1020 C1023 1.511 . S
C1021 C1017 1.376 1_554 S
C1021 C1020 1.392 . S
C1021 H1033 0.929 . S
C1022 C1018 1.531 . S
C1022 H1034 0.960 . S
C1022 H1035 0.962 . S
C1022 H1036 0.960 . S
C1023 C1020 1.511 . S
C1023 H1037 0.961 . S
C1023 H1038 0.961 . S
C1023 H1039 0.961 . S
C1024 C1025 1.370 . S
C1024 C1026 1.363 . S
C1024 H1040 0.931 . S
C1025 C1024 1.370 . S
C1025 C1029 1.408 . S
C1026 C1024 1.363 . S
C1026 C1027 1.370 . S
C1026 C1030 1.524 . S
C1027 C1019 1.509 . S
C1027 C1026 1.370 . S
C1027 C1028 1.403 1_554 S
C1028 C1027 1.403 1_556 S
C1028 C1029 1.404 1_556 S
C1028 C1031 1.539 . S
C1029 C1025 1.408 . S
C1029 C1028 1.404 1_554 S
C1029 H1041 0.937 . S
C1030 C1026 1.524 . S
C1030 H1042 0.956 . S
C1030 H1043 0.961 . S
C1030 H1044 0.961 . S
C1031 C1028 1.539 . S
C1031 H1045 0.958 . S
C1031 H1046 0.961 . S
C1031 H1047 0.960 . S
H1032 C1016 0.931 . S
H1033 C1021 0.929 . S
H1034 C1022 0.960 . S
H1035 C1022 0.962 . S
H1036 C1022 0.960 . S
H1037 C1023 0.961 . S
H1038 C1023 0.961 . S
H1039 C1023 0.961 . S
H1040 C1024 0.931 . S
H1041 C1029 0.937 . S
H1042 C1030 0.956 . S
H1043 C1030 0.961 . S
H1044 C1030 0.961 . S
H1045 C1031 0.958 . S
H1046 C1031 0.961 . S
H1047 C1031 0.960 . S
C1048 C1049 1.391 . S
C1048 C1050 1.394 . S
C1048 H1064 0.931 . S
C1049 C1048 1.391 . S
C1049 C1053 1.376 . S
C1050 C1048 1.394 . S
C1050 C1051 1.369 . S
C1050 C1054 1.531 1_554 S
C1051 C1050 1.369 . S
C1051 C1052 1.410 . S
C1051 C1059 1.503 . S
C1052 C1051 1.410 . S
C1052 C1053 1.392 . S
C1052 C1055 1.511 . S
C1053 C1049 1.376 . S
C1053 C1052 1.392 . S
C1053 H1065 0.929 . S
C1054 C1050 1.531 1_556 S
C1054 H1066 0.960 1_556 S
C1054 H1067 0.962 . S
C1054 H1068 0.960 1_556 S
C1055 C1052 1.511 . S
C1055 H1069 0.961 . S
C1055 H1070 0.961 . S
C1055 H1071 0.961 . S
C1056 C1057 1.370 . S
C1056 C1058 1.363 . S
C1056 H1072 0.931 . S
C1057 C1056 1.370 . S
C1057 C1061 1.408 1_556 S
C1058 C1056 1.363 . S
C1058 C1059 1.370 1_556 S
C1058 C1062 1.524 . S
C1059 C1051 1.503 . S
C1059 C1058 1.370 1_554 S
C1059 C1060 1.403 . S
C1060 C1059 1.403 . S
C1060 C1061 1.404 . S
C1060 C1063 1.539 . S
C1061 C1057 1.408 1_554 S
C1061 C1060 1.404 . S
C1061 H1073 0.930 . S
C1062 C1058 1.524 . S
C1062 H1074 0.956 . S
C1062 H1075 0.961 . S
C1062 H1076 0.961 . S
C1063 C1060 1.539 . S
C1063 H1077 0.958 . S
C1063 H1078 0.961 . S
C1063 H1079 0.960 . S
H1064 C1048 0.931 . S
H1065 C1053 0.929 . S
H1066 C1054 0.960 1_554 S
H1067 C1054 0.962 . S
H1068 C1054 0.960 1_554 S
H1069 C1055 0.961 . S
H1070 C1055 0.961 . S
H1071 C1055 0.961 . S
H1072 C1056 0.931 . S
H1073 C1061 0.930 . S
H1074 C1062 0.956 . S
H1075 C1062 0.961 . S
H1076 C1062 0.961 . S
H1077 C1063 0.958 . S
H1078 C1063 0.961 . S
H1079 C1063 0.960 . S
C1080 C1081 1.391 . S
C1080 C1082 1.394 . S
C1080 H1096 0.931 . S
C1081 C1080 1.391 . S
C1081 C1085 1.376 . S
C1082 C1080 1.394 . S
C1082 C1083 1.369 . S
C1082 C1086 1.531 . S
C1083 C1082 1.369 . S
C1083 C1084 1.410 . S
C1083 C1091 1.503 . S
C1084 C1083 1.410 . S
C1084 C1085 1.392 . S
C1084 C1087 1.511 . S
C1085 C1081 1.376 . S
C1085 C1084 1.392 . S
C1085 H1097 0.929 . S
C1086 C1082 1.531 . S
C1086 H1098 0.960 . S
C1086 H1099 0.962 . S
C1086 H1100 0.960 . S
C1087 C1084 1.511 . S
C1087 H1101 0.961 . S
C1087 H1102 0.961 . S
C1087 H1103 0.961 . S
C1088 C1089 1.370 . S
C1088 C1090 1.363 . S
C1088 H1104 0.931 . S
C1089 C1088 1.370 . S
C1089 C1093 1.408 . S
C1090 C1088 1.363 . S
C1090 C1091 1.370 . S
C1090 C1094 1.524 . S
C1091 C1083 1.503 . S
C1091 C1090 1.370 . S
C1091 C1092 1.403 . S
C1092 C1091 1.403 . S
C1092 C1093 1.404 . S
C1092 C1095 1.539 . S
C1093 C1089 1.408 . S
C1093 C1092 1.404 . S
C1093 H1105 0.930 . S
C1094 C1090 1.524 . S
C1094 H1106 0.956 . S
C1094 H1107 0.961 . S
C1094 H1108 0.961 . S
C1095 C1092 1.539 . S
C1095 H1109 0.958 . S
C1095 H1110 0.961 . S
C1095 H1111 0.960 . S
H1096 C1080 0.931 . S
H1097 C1085 0.929 . S
H1098 C1086 0.960 . S
H1099 C1086 0.962 . S
H1100 C1086 0.960 . S
H1101 C1087 0.961 . S
H1102 C1087 0.961 . S
H1103 C1087 0.961 . S
H1104 C1088 0.931 . S
H1105 C1093 0.930 . S
H1106 C1094 0.956 . S
H1107 C1094 0.961 . S
H1108 C1094 0.961 . S
H1109 C1095 0.958 . S
H1110 C1095 0.961 . S
H1111 C1095 0.960 . S
C1112 C1113 1.391 . S
C1112 C1114 1.394 . S
C1112 H1128 0.931 . S
C1113 C1112 1.391 . S
C1113 C1117 1.376 . S
C1114 C1112 1.394 . S
C1114 C1115 1.369 . S
C1114 C1118 1.531 . S
C1115 C1114 1.369 . S
C1115 C1116 1.410 . S
C1115 C1123 1.503 . S
C1116 C1115 1.410 . S
C1116 C1117 1.392 . S
C1116 C1119 1.511 . S
C1117 C1113 1.376 . S
C1117 C1116 1.392 . S
C1117 H1129 0.929 . S
C1118 C1114 1.531 . S
C1118 H1130 0.960 . S
C1118 H1131 0.962 . S
C1118 H1132 0.960 . S
C1119 C1116 1.511 . S
C1119 H1133 0.961 . S
C1119 H1134 0.961 . S
C1119 H1135 0.961 . S
C1120 C1121 1.370 . S
C1120 C1122 1.363 . S
C1120 H1136 0.931 . S
C1121 C1120 1.370 . S
C1121 C1125 1.408 . S
C1122 C1120 1.363 . S
C1122 C1123 1.370 . S
C1122 C1126 1.524 . S
C1123 C1115 1.503 . S
C1123 C1122 1.370 . S
C1123 C1124 1.403 . S
C1124 C1123 1.403 . S
C1124 C1125 1.404 . S
C1124 C1127 1.539 . S
C1125 C1121 1.408 . S
C1125 C1124 1.404 . S
C1125 H1137 0.930 . S
C1126 C1122 1.524 . S
C1126 H1138 0.956 . S
C1126 H1139 0.961 . S
C1126 H1140 0.961 . S
C1127 C1124 1.539 . S
C1127 H1141 0.958 . S
C1127 H1142 0.961 . S
C1127 H1143 0.960 . S
H1128 C1112 0.931 . S
H1129 C1117 0.929 . S
H1130 C1118 0.960 . S
H1131 C1118 0.962 . S
H1132 C1118 0.960 . S
H1133 C1119 0.961 . S
H1134 C1119 0.961 . S
H1135 C1119 0.961 . S
H1136 C1120 0.931 . S
H1137 C1125 0.930 . S
H1138 C1126 0.956 . S
H1139 C1126 0.961 . S
H1140 C1126 0.961 . S
H1141 C1127 0.958 . S
H1142 C1127 0.961 . S
H1143 C1127 0.960 . S
C1144 C1145 1.391 . S
C1144 C1146 1.394 . S
C1144 H1160 0.931 . S
C1145 C1144 1.391 . S
C1145 C1149 1.376 . S
C1146 C1144 1.394 . S
C1146 C1147 1.369 . S
C1146 C1150 1.531 . S
C1147 C1146 1.369 . S
C1147 C1148 1.410 . S
C1147 C1155 1.503 . S
C1148 C1147 1.410 . S
C1148 C1149 1.392 . S
C1148 C1151 1.511 . S
C1149 C1145 1.376 . S
C1149 C1148 1.392 . S
C1149 H1161 0.929 . S
C1150 C1146 1.531 . S
C1150 H1162 0.960 . S
C1150 H1163 0.962 . S
C1150 H1164 0.960 . S
C1151 C1148 1.511 . S
C1151 H1165 0.961 . S
C1151 H1166 0.961 . S
C1151 H1167 0.961 . S
C1152 C1153 1.370 . S
C1152 C1154 1.363 . S
C1152 H1168 0.931 . S
C1153 C1152 1.370 . S
C1153 C1157 1.408 . S
C1154 C1152 1.363 . S
C1154 C1155 1.370 . S
C1154 C1158 1.524 . S
C1155 C1147 1.503 . S
C1155 C1154 1.370 . S
C1155 C1156 1.403 . S
C1156 C1155 1.403 . S
C1156 C1157 1.404 . S
C1156 C1159 1.539 . S
C1157 C1153 1.408 . S
C1157 C1156 1.404 . S
C1157 H1169 0.930 . S
C1158 C1154 1.524 . S
C1158 H1170 0.956 . S
C1158 H1171 0.961 . S
C1158 H1172 0.961 . S
C1159 C1156 1.539 . S
C1159 H1173 0.958 . S
C1159 H1174 0.961 . S
C1159 H1175 0.960 . S
H1160 C1144 0.931 . S
H1161 C1149 0.929 . S
H1162 C1150 0.960 . S
H1163 C1150 0.962 . S
H1164 C1150 0.960 . S
H1165 C1151 0.961 . S
H1166 C1151 0.961 . S
H1167 C1151 0.961 . S
H1168 C1152 0.931 . S
H1169 C1157 0.930 . S
H1170 C1158 0.956 . S
H1171 C1158 0.961 . S
H1172 C1158 0.961 . S
H1173 C1159 0.958 . S
H1174 C1159 0.961 . S
H1175 C1159 0.960 . S
C1176 C1177 1.391 . S
C1176 C1178 1.394 . S
C1176 H1192 0.931 . S
C1177 C1176 1.391 . S
C1177 C1181 1.376 . S
C1178 C1176 1.394 . S
C1178 C1179 1.369 . S
C1178 C1182 1.531 . S
C1179 C1178 1.369 . S
C1179 C1180 1.410 . S
C1179 C1187 1.503 . S
C1180 C1179 1.410 . S
C1180 C1181 1.392 . S
C1180 C1183 1.511 1_556 S
C1181 C1177 1.376 . S
C1181 C1180 1.392 . S
C1181 H1193 0.929 . S
C1182 C1178 1.531 . S
C1182 H1194 0.960 . S
C1182 H1195 0.962 . S
C1182 H1196 0.960 . S
C1183 C1180 1.511 1_554 S
C1183 H1197 0.961 . S
C1183 H1198 0.961 . S
C1183 H1199 0.961 1_554 S
C1184 C1185 1.370 . S
C1184 C1186 1.363 . S
C1184 H1200 0.931 . S
C1185 C1184 1.370 . S
C1185 C1189 1.408 1_554 S
C1186 C1184 1.363 . S
C1186 C1187 1.370 1_554 S
C1186 C1190 1.524 . S
C1187 C1179 1.503 . S
C1187 C1186 1.370 1_556 S
C1187 C1188 1.403 . S
C1188 C1187 1.403 . S
C1188 C1189 1.404 . S
C1188 C1191 1.539 . S
C1189 C1185 1.408 1_556 S
C1189 C1188 1.404 . S
C1189 H1201 0.930 . S
C1190 C1186 1.524 . S
C1190 H1202 0.956 . S
C1190 H1203 0.961 . S
C1190 H1204 0.961 . S
C1191 C1188 1.539 . S
C1191 H1205 0.958 . S
C1191 H1206 0.961 . S
C1191 H1207 0.960 . S
H1192 C1176 0.931 . S
H1193 C1181 0.929 . S
H1194 C1182 0.960 . S
H1195 C1182 0.962 . S
H1196 C1182 0.960 . S
H1197 C1183 0.961 . S
H1198 C1183 0.961 . S
H1199 C1183 0.961 1_556 S
H1200 C1184 0.931 . S
H1201 C1189 0.930 . S
H1202 C1190 0.956 . S
H1203 C1190 0.961 . S
H1204 C1190 0.961 . S
H1205 C1191 0.958 . S
H1206 C1191 0.961 . S
H1207 C1191 0.960 . S
C1208 C1209 1.391 . S
C1208 C1210 1.394 . S
C1208 H1224 0.931 . S
C1209 C1208 1.391 . S
C1209 C1213 1.376 . S
C1210 C1208 1.394 . S
C1210 C1211 1.369 . S
C1210 C1214 1.531 . S
C1211 C1210 1.369 . S
C1211 C1212 1.410 . S
C1211 C1219 1.503 1_554 S
C1212 C1211 1.410 . S
C1212 C1213 1.392 . S
C1212 C1215 1.512 . S
C1213 C1209 1.376 . S
C1213 C1212 1.392 . S
C1213 H1225 0.929 . S
C1214 C1210 1.531 . S
C1214 H1226 0.960 . S
C1214 H1227 0.962 1_554 S
C1214 H1228 0.960 . S
C1215 C1212 1.512 . S
C1215 H1229 0.958 1_554 S
C1215 H1230 0.955 1_554 S
C1215 H1231 0.969 . S
C1216 C1217 1.370 . S
C1216 C1218 1.363 . S
C1216 H1232 0.931 . S
C1217 C1216 1.370 . S
C1217 C1221 1.394 1_556 S
C1218 C1216 1.363 . S
C1218 C1219 1.370 . S
C1218 C1222 1.524 . S
C1219 C1211 1.503 1_556 S
C1219 C1218 1.370 . S
C1219 C1220 1.403 1_556 S
C1220 C1219 1.403 1_554 S
C1220 C1221 1.409 . S
C1220 C1223 1.539 . S
C1221 C1217 1.394 1_554 S
C1221 C1220 1.409 . S
C1221 H1233 0.939 . S
C1222 C1218 1.524 . S
C1222 H1234 0.956 . S
C1222 H1235 0.961 . S
C1222 H1236 0.961 . S
C1223 C1220 1.539 . S
C1223 H1237 0.958 . S
C1223 H1238 0.961 . S
C1223 H1239 0.960 . S
H1224 C1208 0.931 . S
H1225 C1213 0.929 . S
H1226 C1214 0.960 . S
H1227 C1214 0.962 1_556 S
H1228 C1214 0.960 . S
H1229 C1215 0.958 1_556 S
H1230 C1215 0.955 1_556 S
H1231 C1215 0.969 . S
H1232 C1216 0.931 . S
H1233 C1221 0.939 . S
H1234 C1222 0.956 . S
H1235 C1222 0.961 . S
H1236 C1222 0.961 . S
H1237 C1223 0.958 . S
H1238 C1223 0.961 . S
H1239 C1223 0.960 . S
C1240 C1241 1.391 . S
C1240 C1242 1.394 . S
C1240 H1256 0.931 . S
C1241 C1240 1.391 . S
C1241 C1245 1.376 . S
C1242 C1240 1.394 . S
C1242 C1243 1.369 . S
C1242 C1246 1.531 . S
C1243 C1242 1.369 . S
C1243 C1244 1.410 . S
C1243 C1251 1.503 . S
C1244 C1243 1.410 . S
C1244 C1245 1.392 . S
C1244 C1247 1.511 . S
C1245 C1241 1.376 . S
C1245 C1244 1.392 . S
C1245 H1257 0.929 . S
C1246 C1242 1.531 . S
C1246 H1258 0.960 . S
C1246 H1259 0.962 . S
C1246 H1260 0.960 . S
C1247 C1244 1.511 . S
C1247 H1261 0.961 1_556 S
C1247 H1262 0.961 1_556 S
C1247 H1263 0.961 . S
C1248 C1249 1.370 . S
C1248 C1250 1.363 . S
C1248 H1264 0.931 . S
C1249 C1248 1.370 . S
C1249 C1253 1.408 1_554 S
C1250 C1248 1.363 . S
C1250 C1251 1.370 1_554 S
C1250 C1254 1.524 . S
C1251 C1243 1.503 . S
C1251 C1250 1.370 1_556 S
C1251 C1252 1.403 . S
C1252 C1251 1.403 . S
C1252 C1253 1.404 . S
C1252 C1255 1.539 . S
C1253 C1249 1.408 1_556 S
C1253 C1252 1.404 . S
C1253 H1265 0.930 . S
C1254 C1250 1.524 . S
C1254 H1266 0.956 . S
C1254 H1267 0.961 . S
C1254 H1268 0.961 . S
C1255 C1252 1.539 . S
C1255 H1269 0.958 . S
C1255 H1270 0.961 . S
C1255 H1271 0.960 . S
H1256 C1240 0.931 . S
H1257 C1245 0.929 . S
H1258 C1246 0.960 . S
H1259 C1246 0.962 . S
H1260 C1246 0.960 . S
H1261 C1247 0.961 1_554 S
H1262 C1247 0.961 1_554 S
H1263 C1247 0.961 . S
H1264 C1248 0.931 . S
H1265 C1253 0.930 . S
H1266 C1254 0.956 . S
H1267 C1254 0.961 . S
H1268 C1254 0.961 . S
H1269 C1255 0.958 . S
H1270 C1255 0.961 . S
H1271 C1255 0.960 . S
C1272 C1273 1.391 . S
C1272 C1274 1.394 . S
C1272 H1288 0.931 . S
C1273 C1272 1.391 . S
C1273 C1277 1.376 . S
C1274 C1272 1.394 . S
C1274 C1275 1.369 . S
C1274 C1278 1.531 . S
C1275 C1274 1.369 . S
C1275 C1276 1.410 . S
C1275 C1283 1.503 . S
C1276 C1275 1.410 . S
C1276 C1277 1.392 . S
C1276 C1279 1.511 . S
C1277 C1273 1.376 . S
C1277 C1276 1.392 . S
C1277 H1289 0.929 . S
C1278 C1274 1.531 . S
C1278 H1290 0.960 . S
C1278 H1291 0.962 . S
C1278 H1292 0.960 . S
C1279 C1276 1.511 . S
C1279 H1293 0.961 . S
C1279 H1294 0.961 . S
C1279 H1295 0.961 . S
C1280 C1281 1.370 . S
C1280 C1282 1.363 . S
C1280 H1296 0.931 . S
C1281 C1280 1.370 . S
C1281 C1285 1.408 . S
C1282 C1280 1.363 . S
C1282 C1283 1.370 . S
C1282 C1286 1.524 . S
C1283 C1275 1.503 . S
C1283 C1282 1.370 . S
C1283 C1284 1.403 . S
C1284 C1283 1.403 . S
C1284 C1285 1.404 . S
C1284 C1287 1.539 . S
C1285 C1281 1.408 . S
C1285 C1284 1.404 . S
C1285 H1297 0.930 . S
C1286 C1282 1.524 . S
C1286 H1298 0.956 . S
C1286 H1299 0.961 . S
C1286 H1300 0.961 . S
C1287 C1284 1.539 . S
C1287 H1301 0.958 . S
C1287 H1302 0.961 . S
C1287 H1303 0.960 . S
H1288 C1272 0.931 . S
H1289 C1277 0.929 . S
H1290 C1278 0.960 . S
H1291 C1278 0.962 . S
H1292 C1278 0.960 . S
H1293 C1279 0.961 . S
H1294 C1279 0.961 . S
H1295 C1279 0.961 . S
H1296 C1280 0.931 . S
H1297 C1285 0.930 . S
H1298 C1286 0.956 . S
H1299 C1286 0.961 . S
H1300 C1286 0.961 . S
H1301 C1287 0.958 . S
H1302 C1287 0.961 . S
H1303 C1287 0.960 . S
C1304 C1305 1.391 . S
C1304 C1306 1.394 . S
C1304 H1320 0.931 . S
C1305 C1304 1.391 . S
C1305 C1309 1.376 . S
C1306 C1304 1.394 . S
C1306 C1307 1.369 . S
C1306 C1310 1.531 . S
C1307 C1306 1.369 . S
C1307 C1308 1.410 . S
C1307 C1315 1.503 . S
C1308 C1307 1.410 . S
C1308 C1309 1.392 . S
C1308 C1311 1.511 . S
C1309 C1305 1.376 . S
C1309 C1308 1.392 . S
C1309 H1321 0.929 . S
C1310 C1306 1.531 . S
C1310 H1322 0.960 . S
C1310 H1323 0.962 . S
C1310 H1324 0.960 . S
C1311 C1308 1.511 . S
C1311 H1325 0.961 . S
C1311 H1326 0.961 . S
C1311 H1327 0.961 . S
C1312 C1313 1.370 . S
C1312 C1314 1.363 . S
C1312 H1328 0.931 . S
C1313 C1312 1.370 . S
C1313 C1317 1.408 . S
C1314 C1312 1.363 . S
C1314 C1315 1.370 . S
C1314 C1318 1.524 . S
C1315 C1307 1.503 . S
C1315 C1314 1.370 . S
C1315 C1316 1.403 . S
C1316 C1315 1.403 . S
C1316 C1317 1.404 . S
C1316 C1319 1.539 . S
C1317 C1313 1.408 . S
C1317 C1316 1.404 . S
C1317 H1329 0.930 . S
C1318 C1314 1.524 . S
C1318 H1330 0.956 . S
C1318 H1331 0.961 . S
C1318 H1332 0.961 . S
C1319 C1316 1.539 . S
C1319 H1333 0.958 . S
C1319 H1334 0.961 . S
C1319 H1335 0.960 . S
H1320 C1304 0.931 . S
H1321 C1309 0.929 . S
H1322 C1310 0.960 . S
H1323 C1310 0.962 . S
H1324 C1310 0.960 . S
H1325 C1311 0.961 . S
H1326 C1311 0.961 . S
H1327 C1311 0.961 . S
H1328 C1312 0.931 . S
H1329 C1317 0.930 . S
H1330 C1318 0.956 . S
H1331 C1318 0.961 . S
H1332 C1318 0.961 . S
H1333 C1319 0.958 . S
H1334 C1319 0.961 . S
H1335 C1319 0.960 . S
C1336 C1337 1.391 . S
C1336 C1338 1.394 . S
C1336 H1352 0.931 . S
C1337 C1336 1.391 . S
C1337 C1341 1.376 . S
C1338 C1336 1.394 . S
C1338 C1339 1.369 . S
C1338 C1342 1.531 . S
C1339 C1338 1.369 . S
C1339 C1340 1.410 . S
C1339 C1347 1.503 . S
C1340 C1339 1.410 . S
C1340 C1341 1.392 . S
C1340 C1343 1.511 . S
C1341 C1337 1.376 . S
C1341 C1340 1.392 . S
C1341 H1353 0.929 . S
C1342 C1338 1.531 . S
C1342 H1354 0.960 . S
C1342 H1355 0.962 . S
C1342 H1356 0.960 . S
C1343 C1340 1.511 . S
C1343 H1357 0.961 . S
C1343 H1358 0.961 . S
C1343 H1359 0.961 . S
C1344 C1345 1.370 . S
C1344 C1346 1.363 . S
C1344 H1360 0.931 . S
C1345 C1344 1.370 . S
C1345 C1349 1.408 . S
C1346 C1344 1.363 . S
C1346 C1347 1.370 . S
C1346 C1350 1.524 . S
C1347 C1339 1.503 . S
C1347 C1346 1.370 . S
C1347 C1348 1.403 . S
C1348 C1347 1.403 . S
C1348 C1349 1.404 . S
C1348 C1351 1.539 . S
C1349 C1345 1.408 . S
C1349 C1348 1.404 . S
C1349 H1361 0.930 . S
C1350 C1346 1.524 . S
C1350 H1362 0.956 . S
C1350 H1363 0.961 . S
C1350 H1364 0.961 . S
C1351 C1348 1.539 . S
C1351 H1365 0.958 . S
C1351 H1366 0.961 . S
C1351 H1367 0.960 . S
H1352 C1336 0.931 . S
H1353 C1341 0.929 . S
H1354 C1342 0.960 . S
H1355 C1342 0.962 . S
H1356 C1342 0.960 . S
H1357 C1343 0.961 . S
H1358 C1343 0.961 . S
H1359 C1343 0.961 . S
H1360 C1344 0.931 . S
H1361 C1349 0.930 . S
H1362 C1350 0.956 . S
H1363 C1350 0.961 . S
H1364 C1350 0.961 . S
H1365 C1351 0.958 . S
H1366 C1351 0.961 . S
H1367 C1351 0.960 . S
C409 C175 0.904 . S
C417 C5 0.861 . S
C441 C39 0.753 . S
C449 C107 0.799 . S
C473 C73 0.893 . S
C481 C141 0.858 . S
C505 C209 0.752 . S
C513 C379 0.800 . S
C537 C311 0.834 . S
C545 C243 0.839 . S
C569 C345 0.761 . S
C577 C277 0.799 . S
C601 C33 1.772 . S
C609 C237 1.790 . S
C633 C67 1.769 . S
C641 C271 1.791 . S
C665 C305 1.737 . S
C673 C101 1.807 . S
C697 C339 1.748 . S
C705 C135 1.804 . S
C729 C169 1.770 . S
C737 C373 1.792 . S
C761 C203 1.814 . S
C769 C407 1.774 . S
C793 C156 1.694 . S
C801 C20 1.698 . S
C825 C190 1.665 . S
C833 C54 1.685 . S
C857 C122 1.665 . S
C865 C88 1.680 . S
C889 C224 1.694 . S
C897 C360 1.702 . S
C921 C258 1.676 . S
C929 C394 1.695 . S
C953 C326 1.659 . S
C961 C292 1.686 . S
C985 C9 1.646 . S
C993 C70 1.695 . S
C1017 C43 1.651 . S
C1025 C2 1.696 . S
C1049 C36 1.695 . S
C1057 C77 1.610 . S
C1081 C111 1.588 . S
C1089 C138 1.701 . S
C1113 C172 1.703 . S
C1121 C145 1.611 . S
C1145 C104 1.686 . S
C1153 C179 1.621 . S
C1177 C274 1.696 . S
C1185 C213 1.609 . S
C1209 C247 1.644 . S
C1217 C206 1.700 . S
C1241 C240 1.694 . S
C1249 C281 1.609 . S
C1273 C342 1.696 . S
C1281 C315 1.609 . S
C1305 C376 1.702 . S
C1313 C349 1.613 . S
C1337 C383 1.599 . S
C1345 C308 1.696 . S
