# Generated by pormake.
# Topology npo, (4)-cn, num edge types: 1
# Building blocks:
#     Node 0, Type 0, BuildingBlock: UXUYUI_clean_sbu_0, # of connection points: 4
#     Node 1, Type 0, BuildingBlock: UXUYUI_clean_sbu_0, # of connection points: 4
#     Node 2, Type 0, BuildingBlock: UXUYUI_clean_sbu_0, # of connection points: 4
#     Node 3, Type 0, BuildingBlock: UXUYUI_clean_sbu_0, # of connection points: 4
#     Node 4, Type 0, BuildingBlock: UXUYUI_clean_sbu_0, # of connection points: 4
#     Node 5, Type 0, BuildingBlock: UXUYUI_clean_sbu_0, # of connection points: 4
#     Edge 6, Type (0, 0), BuildingBlock: XIVTED_clean_linker_0, # of connection points: 2
#     Edge 7, Type (0, 0), BuildingBlock: XIVTED_clean_linker_0, # of connection points: 2
#     Edge 8, Type (0, 0), BuildingBlock: XIVTED_clean_linker_0, # of connection points: 2
#     Edge 9, Type (0, 0), BuildingBlock: XIVTED_clean_linker_0, # of connection points: 2
#     Edge 10, Type (0, 0), BuildingBlock: XIVTED_clean_linker_0, # of connection points: 2
#     Edge 11, Type (0, 0), BuildingBlock: XIVTED_clean_linker_0, # of connection points: 2
#     Edge 12, Type (0, 0), BuildingBlock: XIVTED_clean_linker_0, # of connection points: 2
#     Edge 13, Type (0, 0), BuildingBlock: XIVTED_clean_linker_0, # of connection points: 2
#     Edge 14, Type (0, 0), BuildingBlock: XIVTED_clean_linker_0, # of connection points: 2
#     Edge 15, Type (0, 0), BuildingBlock: XIVTED_clean_linker_0, # of connection points: 2
#     Edge 16, Type (0, 0), BuildingBlock: XIVTED_clean_linker_0, # of connection points: 2
#     Edge 17, Type (0, 0), BuildingBlock: XIVTED_clean_linker_0, # of connection points: 2
# Relax obj value: 0.320
# Max RMSD: 0.247
# Mean RMSD: 0.247
data_MOF--net-npo--node1-UXUYUI_clean_sbu_0--edge1-XIVTED_clean_linker_0
_symmetry_space_group_name_H-M    P1
_symmetry_Int_Tables_number       1
_symmetry_cell_setting            triclinic
loop_
_symmetry_equiv_pos_as_xyz
'x, y, z'
_cell_length_a     61.359773
_cell_length_b     61.317663
_cell_length_c     38.255299
_cell_angle_alpha  89.990921
_cell_angle_beta   90.011467
_cell_angle_gamma 120.06095
loop_
_atom_site_label
_atom_site_type_symbol
_atom_site_fract_x
_atom_site_fract_y
_atom_site_fract_z
_atom_type_partial_charge
Li0 Li 0.52652 0.11435 0.2371 0.0
Li1 Li 0.56835 0.11853 0.24263 0.0
Li2 Li 0.53606 0.08732 0.20583 0.0
Li3 Li 0.53141 0.08352 0.26914 0.0
C4 C 0.55588 0.12885 0.1659 0.0
N5 N 0.56194 0.13655 0.09449 0.0
C6 C 0.58 0.14238 0.15146 0.0
C7 C 0.53486 0.11978 0.14405 0.0
C8 C 0.58268 0.14595 0.1153 0.0
C9 C 0.5383 0.12368 0.10802 0.0
C10 C 0.55571 0.1435 0.29318 0.0
C11 C 0.56575 0.17234 0.34144 0.0
N12 N 0.57414 0.19185 0.3185 0.0
C13 C 0.56449 0.16389 0.27008 0.0
C14 C 0.55635 0.14777 0.32916 0.0
C15 C 0.5737 0.18816 0.2834 0.0
C16 C 0.49665 0.13175 0.26787 0.0
N17 N 0.50904 0.13253 0.23803 0.0
C18 C 0.50011 0.16286 0.2131 0.0
C19 C 0.51072 0.14744 0.21071 0.0
C20 C 0.48774 0.16298 0.24398 0.0
C21 C 0.48563 0.14675 0.27133 0.0
H22 H 0.49602 0.12001 0.2894 0.0
H23 H 0.52117 0.14814 0.18763 0.0
C24 C 0.61764 0.13637 0.22104 0.0
N25 N 0.60392 0.13911 0.24675 0.0
C26 C 0.64385 0.1511 0.22099 0.0
C27 C 0.6414 0.17004 0.27516 0.0
C28 C 0.61526 0.15496 0.27413 0.0
C29 C 0.65603 0.16855 0.24801 0.0
H30 H 0.60813 0.12289 0.2003 0.0
H31 H 0.60418 0.1561 0.29514 0.0
C32 C 0.48172 0.07383 0.2361 0.0
N33 N 0.43438 0.06859 0.24136 0.0
C34 C 0.46906 0.06761 0.26813 0.0
C35 C 0.47009 0.07695 0.20662 0.0
C36 C 0.4452 0.06515 0.27029 0.0
C37 C 0.44622 0.07435 0.20985 0.0
C38 C 0.57296 0.07757 0.26044 0.0
C39 C 0.58153 0.06167 0.24844 0.0
C40 C 0.58014 0.08852 0.29358 0.0
C41 C 0.59712 0.05691 0.26988 0.0
C42 C 0.59575 0.08329 0.31422 0.0
N43 N 0.60384 0.06772 0.30205 0.0
C44 C 0.55209 0.07503 0.14439 0.0
C45 C 0.50791 0.05197 0.1538 0.0
C46 C 0.54927 0.06346 0.11205 0.0
N47 N 0.5315 0.06944 0.16406 0.0
C48 C 0.50425 0.03966 0.12189 0.0
C49 C 0.52509 0.04564 0.10048 0.0
H50 H 0.57063 0.08888 0.15356 0.0
H51 H 0.49196 0.04786 0.17019 0.0
C52 C 0.51544 0.0712 0.33749 0.0
N53 N 0.52053 0.06211 0.30818 0.0
C54 C 0.50867 0.05717 0.36818 0.0
C55 C 0.51216 0.02444 0.33776 0.0
C56 C 0.5188 0.03914 0.30751 0.0
C57 C 0.5073 0.03362 0.3687 0.0
H58 H 0.51666 0.0894 0.33693 0.0
H59 H 0.52306 0.0325 0.2837 0.0
O60 O 0.55291 0.12484 0.20126 0.0
O61 O 0.54623 0.11944 0.28091 0.0
O62 O 0.5053 0.07674 0.23361 0.0
O63 O 0.55775 0.0824 0.23956 0.0
H64 H 0.5965 0.15022 0.16794 0.0
H65 H 0.51609 0.10956 0.15475 0.0
H66 H 0.60125 0.15627 0.10379 0.0
H67 H 0.52216 0.11647 0.09081 0.0
H68 H 0.56637 0.17589 0.36923 0.0
H69 H 0.56426 0.16113 0.24219 0.0
H70 H 0.54976 0.13229 0.34747 0.0
H71 H 0.58052 0.20407 0.26582 0.0
H72 H 0.50271 0.17546 0.19165 0.0
H73 H 0.47614 0.14611 0.2955 0.0
H74 H 0.65443 0.14897 0.19993 0.0
H75 H 0.64997 0.18329 0.29647 0.0
H76 H 0.4776 0.06491 0.29116 0.0
H77 H 0.47934 0.08135 0.1815 0.0
H78 H 0.43529 0.06053 0.29499 0.0
H79 H 0.4371 0.0769 0.18728 0.0
H80 H 0.57619 0.05311 0.22281 0.0
H81 H 0.57378 0.10092 0.30334 0.0
H82 H 0.60389 0.04462 0.26093 0.0
H83 H 0.60143 0.09161 0.33991 0.0
H84 H 0.56576 0.06832 0.09631 0.0
H85 H 0.48532 0.02608 0.11365 0.0
H86 H 0.50457 0.06471 0.39126 0.0
H87 H 0.51149 0.00646 0.33718 0.0
Li88 Li 0.44791 0.53488 0.77371 0.0
Li89 Li 0.4514 0.57368 0.75238 0.0
Li90 Li 0.413 0.53311 0.74333 0.0
Li91 Li 0.45148 0.5443 0.71174 0.0
C92 C 0.42709 0.54852 0.82297 0.0
N93 N 0.42808 0.54399 0.89475 0.0
C94 C 0.44369 0.56921 0.84325 0.0
C95 C 0.41086 0.52558 0.83924 0.0
C96 C 0.44391 0.56653 0.8795 0.0
C97 C 0.4117 0.52364 0.87555 0.0
C98 C 0.49768 0.56531 0.73396 0.0
C99 C 0.53113 0.5845 0.69148 0.0
N100 N 0.53921 0.56837 0.70108 0.0
C101 C 0.50634 0.54895 0.74344 0.0
C102 C 0.5102 0.58329 0.70785 0.0
C103 C 0.52738 0.55081 0.72651 0.0
C104 C 0.4464 0.49702 0.81876 0.0
N105 N 0.45787 0.52203 0.81134 0.0
C106 C 0.48194 0.53239 0.86381 0.0
C107 C 0.47587 0.5396 0.8325 0.0
C108 C 0.46966 0.50683 0.87296 0.0
C109 C 0.45218 0.4889 0.84969 0.0
H110 H 0.43225 0.4835 0.80128 0.0
H111 H 0.48476 0.55934 0.82562 0.0
C112 C 0.4466 0.61384 0.77644 0.0
N113 N 0.46347 0.60792 0.76305 0.0
C114 C 0.45369 0.63887 0.78288 0.0
C115 C 0.49561 0.65123 0.76234 0.0
C116 C 0.48772 0.62587 0.75651 0.0
C117 C 0.4784 0.65796 0.77538 0.0
H118 H 0.42745 0.59907 0.78137 0.0
H119 H 0.50077 0.62055 0.74619 0.0
C120 C 0.40832 0.48965 0.7258 0.0
N121 N 0.36599 0.44536 0.70589 0.0
C122 C 0.4044 0.48252 0.69063 0.0
C123 C 0.39078 0.47419 0.75086 0.0
C124 C 0.38287 0.46006 0.68109 0.0
C125 C 0.36947 0.45191 0.74026 0.0
C126 C 0.42887 0.58093 0.69994 0.0
C127 C 0.40672 0.58124 0.7074 0.0
C128 C 0.44917 0.60206 0.68466 0.0
C129 C 0.4053 0.60275 0.69956 0.0
C130 C 0.44704 0.62323 0.67732 0.0
N131 N 0.42533 0.62314 0.68485 0.0
C132 C 0.36364 0.51716 0.76685 0.0
C133 C 0.36708 0.50952 0.70692 0.0
C134 C 0.33809 0.50895 0.76279 0.0
N135 N 0.37756 0.51757 0.73901 0.0
C136 C 0.34154 0.50094 0.70173 0.0
C137 C 0.32681 0.50117 0.7297 0.0
H138 H 0.37262 0.52433 0.79183 0.0
H139 H 0.37877 0.51067 0.68507 0.0
C140 C 0.47208 0.52336 0.66648 0.0
N141 N 0.46416 0.5404 0.66869 0.0
C142 C 0.48091 0.51956 0.63482 0.0
C143 C 0.4734 0.55106 0.60845 0.0
C144 C 0.4646 0.55415 0.64059 0.0
C145 C 0.48153 0.53344 0.6052 0.0
H146 H 0.47116 0.51248 0.68926 0.0
H147 H 0.45791 0.56734 0.64303 0.0
O148 O 0.42707 0.55056 0.78734 0.0
O149 O 0.47681 0.56346 0.74973 0.0
O150 O 0.42914 0.51171 0.73564 0.0
O151 O 0.43089 0.56029 0.70827 0.0
H152 H 0.45656 0.58705 0.83113 0.0
H153 H 0.398 0.50933 0.82396 0.0
H154 H 0.45678 0.58234 0.89548 0.0
H155 H 0.39941 0.50595 0.88844 0.0
H156 H 0.54087 0.59817 0.67103 0.0
H157 H 0.49679 0.5348 0.76339 0.0
H158 H 0.50353 0.59584 0.69978 0.0
H159 H 0.53423 0.53821 0.73348 0.0
H160 H 0.49575 0.54667 0.881 0.0
H161 H 0.44238 0.46901 0.85604 0.0
H162 H 0.43973 0.64329 0.79243 0.0
H163 H 0.51486 0.66542 0.75648 0.0
H164 H 0.41766 0.4943 0.67083 0.0
H165 H 0.39341 0.4795 0.77814 0.0
H166 H 0.37954 0.45436 0.65395 0.0
H167 H 0.35566 0.43985 0.75935 0.0
H168 H 0.39087 0.5652 0.71946 0.0
H169 H 0.46663 0.60236 0.67927 0.0
H170 H 0.38832 0.60328 0.70533 0.0
H171 H 0.46269 0.6398 0.66583 0.0
H172 H 0.32767 0.51 0.78494 0.0
H173 H 0.33364 0.49493 0.67585 0.0
H174 H 0.48656 0.50545 0.63338 0.0
H175 H 0.47378 0.56233 0.58641 0.0
Li176 Li 0.87614 0.45201 0.23598 0.0
Li177 Li 0.90375 0.44732 0.27718 0.0
Li178 Li 0.90996 0.44556 0.2129 0.0
Li179 Li 0.87538 0.41085 0.24409 0.0
C180 C 0.92171 0.49862 0.23179 0.0
N181 N 0.93929 0.54804 0.21197 0.0
C182 C 0.92981 0.5176 0.25703 0.0
C183 C 0.92304 0.5049 0.19643 0.0
C184 C 0.93848 0.54244 0.24651 0.0
C185 C 0.93186 0.52995 0.18694 0.0
C186 C 0.86051 0.43079 0.31178 0.0
C187 C 0.85799 0.41778 0.37188 0.0
N188 N 0.84964 0.43374 0.38115 0.0
C189 C 0.85167 0.44689 0.32187 0.0
C190 C 0.86346 0.41592 0.33693 0.0
C191 C 0.84635 0.44817 0.35707 0.0
C192 C 0.83404 0.4529 0.21029 0.0
N193 N 0.85573 0.46672 0.22851 0.0
C194 C 0.8447 0.49817 0.24083 0.0
C195 C 0.86143 0.48908 0.24346 0.0
C196 C 0.82195 0.48408 0.22262 0.0
C197 C 0.81691 0.46138 0.2067 0.0
H198 H 0.82966 0.43486 0.19951 0.0
H199 H 0.87837 0.49929 0.2588 0.0
C200 C 0.93329 0.44874 0.33441 0.0
N201 N 0.91956 0.45858 0.32107 0.0
C202 C 0.94336 0.4553 0.36798 0.0
C203 C 0.92538 0.4824 0.37305 0.0
C204 C 0.91572 0.47534 0.33937 0.0
C205 C 0.93923 0.47217 0.38787 0.0
H206 H 0.9362 0.43559 0.31914 0.0
H207 H 0.90456 0.48272 0.32813 0.0
C208 C 0.86813 0.42638 0.16555 0.0
N209 N 0.85668 0.42447 0.09529 0.0
C210 C 0.85907 0.40386 0.14692 0.0
C211 C 0.87082 0.44777 0.14854 0.0
C212 C 0.85356 0.40332 0.11139 0.0
C213 C 0.86507 0.44648 0.113 0.0
C214 C 0.91383 0.40313 0.25223 0.0
C215 C 0.92357 0.39639 0.22388 0.0
C216 C 0.90565 0.38778 0.28191 0.0
C217 C 0.92456 0.37414 0.22545 0.0
C218 C 0.90691 0.36566 0.28246 0.0
N219 N 0.91624 0.35934 0.25444 0.0
C220 C 0.95592 0.47601 0.178 0.0
C221 C 0.92734 0.43859 0.14811 0.0
C222 C 0.97267 0.48364 0.14992 0.0
N223 N 0.9335 0.45416 0.17615 0.0
C224 C 0.94346 0.44543 0.11949 0.0
C225 C 0.96628 0.46844 0.11991 0.0
H226 H 0.96056 0.48776 0.20101 0.0
H227 H 0.9098 0.42093 0.14782 0.0
C228 C 0.83524 0.36571 0.26923 0.0
N229 N 0.85394 0.37536 0.24504 0.0
C230 C 0.81829 0.33991 0.27039 0.0
C231 C 0.84012 0.33433 0.22167 0.0
C232 C 0.85678 0.3603 0.22158 0.0
C233 C 0.82045 0.32388 0.24618 0.0
H234 H 0.8331 0.37811 0.28713 0.0
H235 H 0.87174 0.3685 0.20248 0.0
O236 O 0.91315 0.47418 0.24173 0.0
O237 O 0.86616 0.42956 0.27746 0.0
O238 O 0.8736 0.42719 0.20042 0.0
O239 O 0.91245 0.42473 0.251 0.0
H240 H 0.92933 0.51323 0.28447 0.0
H241 H 0.91772 0.49071 0.17645 0.0
H242 H 0.94462 0.55726 0.26581 0.0
H243 H 0.93293 0.53503 0.15965 0.0
H244 H 0.8604 0.40653 0.39163 0.0
H245 H 0.84902 0.45835 0.3028 0.0
H246 H 0.87011 0.40325 0.3296 0.0
H247 H 0.83963 0.46065 0.36525 0.0
H248 H 0.84919 0.5157 0.25361 0.0
H249 H 0.79934 0.44966 0.19311 0.0
H250 H 0.95432 0.44733 0.3782 0.0
H251 H 0.92152 0.49524 0.3876 0.0
H252 H 0.85649 0.387 0.15966 0.0
H253 H 0.87683 0.46509 0.1627 0.0
H254 H 0.84675 0.38606 0.09662 0.0
H255 H 0.86713 0.46293 0.09956 0.0
H256 H 0.93024 0.40814 0.20086 0.0
H257 H 0.89823 0.39277 0.30419 0.0
H258 H 0.93194 0.36863 0.20361 0.0
H259 H 0.90046 0.35351 0.30516 0.0
H260 H 0.99028 0.50131 0.15156 0.0
H261 H 0.9377 0.43318 0.09686 0.0
H262 H 0.80306 0.33273 0.28921 0.0
H263 H 0.84244 0.3226 0.20259 0.0
Li264 Li 0.44693 0.90312 0.70618 0.0
Li265 Li 0.45199 0.91117 0.76901 0.0
Li266 Li 0.44944 0.87429 0.74503 0.0
Li267 Li 0.41281 0.87796 0.74606 0.0
C268 C 0.49575 0.90681 0.72696 0.0
N269 N 0.53517 0.89925 0.70955 0.0
C270 C 0.51518 0.91278 0.75083 0.0
C271 C 0.49642 0.8971 0.69417 0.0
C272 C 0.53493 0.90879 0.74155 0.0
C273 C 0.5165 0.8934 0.68587 0.0
C274 C 0.4352 0.9389 0.72914 0.0
C275 C 0.42469 0.97078 0.71448 0.0
N276 N 0.44963 0.98818 0.7126 0.0
C277 C 0.46074 0.95709 0.72704 0.0
C278 C 0.41701 0.94576 0.72276 0.0
C279 C 0.46765 0.9819 0.71865 0.0
C280 C 0.43671 0.91019 0.63706 0.0
N281 N 0.45496 0.91821 0.66187 0.0
C282 C 0.48497 0.94942 0.62352 0.0
C283 C 0.47873 0.93733 0.65579 0.0
C284 C 0.46648 0.94181 0.59739 0.0
C285 C 0.44211 0.9218 0.60434 0.0
H286 H 0.41793 0.89501 0.64293 0.0
H287 H 0.49281 0.9433 0.67614 0.0
C288 C 0.48157 0.92921 0.82706 0.0
N289 N 0.46674 0.93422 0.80614 0.0
C290 C 0.49128 0.94261 0.85794 0.0
C291 C 0.47057 0.96642 0.84493 0.0
C292 C 0.46102 0.95235 0.81438 0.0
C293 C 0.48554 0.96126 0.86734 0.0
H294 H 0.48496 0.91403 0.82039 0.0
H295 H 0.44827 0.95522 0.79817 0.0
C296 C 0.40966 0.8408 0.70223 0.0
N297 N 0.3778 0.78958 0.69389 0.0
C298 C 0.40321 0.82462 0.73096 0.0
C299 C 0.3999 0.83092 0.66927 0.0
C300 C 0.38709 0.79879 0.7262 0.0
C301 C 0.38383 0.80497 0.66558 0.0
C302 C 0.42058 0.87684 0.81731 0.0
C303 C 0.42094 0.86307 0.84618 0.0
C304 C 0.40884 0.89131 0.82 0.0
C305 C 0.40948 0.86394 0.8773 0.0
C306 C 0.39761 0.89169 0.85157 0.0
N307 N 0.39816 0.87811 0.87933 0.0
C308 C 0.47036 0.85052 0.78329 0.0
C309 C 0.46328 0.8386 0.72355 0.0
C310 C 0.4792 0.83389 0.78952 0.0
N311 N 0.46233 0.85225 0.75087 0.0
C312 C 0.47196 0.82174 0.72858 0.0
C313 C 0.47974 0.81898 0.76204 0.0
H314 H 0.46963 0.8619 0.80435 0.0
H315 H 0.45693 0.84055 0.69798 0.0
C316 C 0.36335 0.86486 0.72722 0.0
N317 N 0.37721 0.85982 0.75009 0.0
C318 C 0.3371 0.85002 0.72708 0.0
C319 C 0.34004 0.82569 0.77473 0.0
C320 C 0.36613 0.8408 0.77374 0.0
C321 C 0.32519 0.82996 0.75085 0.0
H322 H 0.37276 0.87994 0.70842 0.0
H323 H 0.37753 0.83671 0.79103 0.0
O324 O 0.47591 0.91 0.73582 0.0
O325 O 0.42785 0.91435 0.73662 0.0
O326 O 0.42521 0.86623 0.7061 0.0
O327 O 0.43213 0.87639 0.78692 0.0
H328 H 0.51505 0.92039 0.77626 0.0
H329 H 0.48135 0.89203 0.67555 0.0
H330 H 0.55007 0.91326 0.75981 0.0
H331 H 0.51717 0.88574 0.66068 0.0
H332 H 0.41081 0.97636 0.70949 0.0
H333 H 0.4751 0.95219 0.73198 0.0
H334 H 0.39717 0.93186 0.72414 0.0
H335 H 0.48734 -0.00383 0.71697 0.0
H336 H 0.50406 0.96453 0.61908 0.0
H337 H 0.42726 0.91558 0.58504 0.0
H338 H 0.50271 0.93807 0.87466 0.0
H339 H 0.46532 0.98033 0.85177 0.0
H340 H 0.41052 0.83186 0.7567 0.0
H341 H 0.40467 0.8432 0.64679 0.0
H342 H 0.38193 0.78607 0.74822 0.0
H343 H 0.37612 0.79707 0.64022 0.0
H344 H 0.43002 0.85185 0.84456 0.0
H345 H 0.40838 0.90216 0.79805 0.0
H346 H 0.40962 0.85336 0.89985 0.0
H347 H 0.38847 0.9028 0.85402 0.0
H348 H 0.48529 0.83254 0.8156 0.0
H349 H 0.47174 0.81038 0.70677 0.0
H350 H 0.32629 0.85388 0.70823 0.0
H351 H 0.33169 0.81006 0.79291 0.0
Li352 Li 0.53921 0.4496 0.27758 0.0
Li353 Li 0.53067 0.41173 0.24548 0.0
Li354 Li 0.57348 0.45092 0.24259 0.0
Li355 Li 0.53711 0.44764 0.2121 0.0
C356 C 0.56426 0.42896 0.31631 0.0
N357 N 0.58155 0.42904 0.38309 0.0
C358 C 0.5528 0.40706 0.33662 0.0
C359 C 0.58482 0.45075 0.32978 0.0
C360 C 0.56172 0.40752 0.37037 0.0
C361 C 0.5932 0.45045 0.36363 0.0
C362 C 0.48607 0.40863 0.25146 0.0
C363 C 0.44889 0.37222 0.22908 0.0
N364 N 0.43819 0.36808 0.26131 0.0
C365 C 0.4746 0.40416 0.28427 0.0
C366 C 0.47303 0.39269 0.22353 0.0
C367 C 0.45042 0.38352 0.28876 0.0
C368 C 0.53305 0.48475 0.31738 0.0
N369 N 0.53197 0.46207 0.31852 0.0
C370 C 0.52208 0.45783 0.37931 0.0
C371 C 0.52608 0.44834 0.34844 0.0
C372 C 0.52376 0.48151 0.37919 0.0
C373 C 0.52897 0.49491 0.34765 0.0
H374 H 0.53738 0.49507 0.29303 0.0
H375 H 0.52431 0.42993 0.34834 0.0
C376 C 0.51688 0.36366 0.22019 0.0
N377 N 0.51349 0.376 0.24724 0.0
C378 C 0.50551 0.33751 0.22062 0.0
C379 C 0.48729 0.3371 0.27682 0.0
C380 C 0.49892 0.36333 0.27517 0.0
C381 C 0.49072 0.3239 0.24938 0.0
H382 H 0.52895 0.37416 0.19865 0.0
H383 H 0.49669 0.37362 0.29648 0.0
C384 C 0.58024 0.49983 0.24622 0.0
N385 N 0.61852 0.54928 0.25329 0.0
C386 C 0.58853 0.51588 0.21725 0.0
C387 C 0.59108 0.50914 0.27893 0.0
C388 C 0.60801 0.54075 0.2213 0.0
C389 C 0.61048 0.53412 0.28195 0.0
C390 C 0.55467 0.42484 0.16946 0.0
C391 C 0.57791 0.43709 0.15232 0.0
C392 C 0.53268 0.41043 0.15011 0.0
C393 C 0.5787 0.43512 0.11601 0.0
C394 C 0.53425 0.40896 0.11384 0.0
N395 N 0.55703 0.42125 0.09768 0.0
C396 C 0.6184 0.45174 0.25921 0.0
C397 C 0.62352 0.48332 0.21888 0.0
C398 C 0.64407 0.46002 0.25796 0.0
N399 N 0.60871 0.4636 0.24018 0.0
C400 C 0.6493 0.49205 0.21647 0.0
C401 C 0.65983 0.48037 0.2363 0.0
H402 H 0.60611 0.43556 0.27498 0.0
H403 H 0.61523 0.49186 0.20308 0.0
C404 C 0.50284 0.4513 0.16681 0.0
N405 N 0.52733 0.45776 0.17121 0.0
C406 C 0.49491 0.45643 0.13525 0.0
C407 C 0.53765 0.47514 0.11378 0.0
C408 C 0.5448 0.46999 0.14587 0.0
C409 C 0.51237 0.46805 0.10812 0.0
H410 H 0.4894 0.4417 0.18752 0.0
H411 H 0.56418 0.47506 0.15023 0.0
O412 O 0.55559 0.42886 0.28327 0.0
O413 O 0.50986 0.4286 0.24667 0.0
O414 O 0.56113 0.47541 0.24266 0.0
O415 O 0.55352 0.42685 0.20498 0.0
H416 H 0.53712 0.38992 0.32653 0.0
H417 H 0.59446 0.46758 0.31411 0.0
H418 H 0.5529 0.39075 0.38643 0.0
H419 H 0.60906 0.46722 0.37436 0.0
H420 H 0.43867 0.35963 0.20775 0.0
H421 H 0.48429 0.41641 0.3061 0.0
H422 H 0.48148 0.396 0.19789 0.0
H423 H 0.44138 0.37976 0.31407 0.0
H424 H 0.51745 0.44665 0.40295 0.0
H425 H 0.53037 0.51322 0.34655 0.0
H426 H 0.50915 0.32814 0.1993 0.0
H427 H 0.47603 0.32729 0.29945 0.0
H428 H 0.58013 0.50921 0.19184 0.0
H429 H 0.58437 0.49735 0.30189 0.0
H430 H 0.61474 0.55329 0.19901 0.0
H431 H 0.61906 0.54151 0.30712 0.0
H432 H 0.59514 0.44806 0.16685 0.0
H433 H 0.51458 0.40067 0.16292 0.0
H434 H 0.59655 0.44463 0.10241 0.0
H435 H 0.51735 0.39806 0.09854 0.0
H436 H 0.65139 0.45012 0.27298 0.0
H437 H 0.66084 0.50766 0.19924 0.0
H438 H 0.47524 0.45069 0.13171 0.0
H439 H 0.55168 0.48444 0.09356 0.0
Li440 Li 0.08728 0.54514 0.77709 0.0
Li441 Li 0.11556 0.54148 0.73595 0.0
Li442 Li 0.11517 0.582 0.74437 0.0
Li443 Li 0.0812 0.5471 0.71279 0.0
C444 C 0.13044 0.56173 0.81182 0.0
N445 N 0.141 0.55728 0.88082 0.0
C446 C 0.13942 0.54557 0.82092 0.0
C447 C 0.12715 0.57587 0.83778 0.0
C448 C 0.14459 0.54353 0.85596 0.0
C449 C 0.13248 0.57327 0.87252 0.0
C450 C 0.06978 0.49424 0.73107 0.0
C451 C 0.05949 0.46313 0.68584 0.0
N452 N 0.05159 0.44483 0.71063 0.0
C453 C 0.06122 0.47504 0.75606 0.0
C454 C 0.06863 0.48818 0.69564 0.0
C455 C 0.05223 0.45022 0.74523 0.0
C456 C 0.05706 0.54253 0.83413 0.0
N457 N 0.07126 0.53324 0.82074 0.0
C458 C 0.06547 0.509 0.87229 0.0
C459 C 0.07533 0.51652 0.83879 0.0
C460 C 0.05116 0.5187 0.88718 0.0
C461 C 0.04677 0.53548 0.86751 0.0
H462 H 0.05394 0.55561 0.81903 0.0
H463 H 0.0868 0.50954 0.82749 0.0
C464 C 0.15908 0.5427 0.71252 0.0
N465 N 0.1366 0.52751 0.7282 0.0
C466 C 0.17636 0.53451 0.70786 0.0
C467 C 0.14708 0.49515 0.73571 0.0
C468 C 0.13031 0.5041 0.73976 0.0
C469 C 0.17055 0.51052 0.71981 0.0
H470 H 0.16379 0.56144 0.70429 0.0
H471 H 0.11267 0.49267 0.75309 0.0
C472 C 0.07625 0.58869 0.75286 0.0
N473 N 0.07329 0.63216 0.75611 0.0
C474 C 0.06648 0.5956 0.7247 0.0
C475 C 0.0842 0.60372 0.78287 0.0
C476 C 0.0652 0.61768 0.72681 0.0
C477 C 0.08266 0.62568 0.78394 0.0
C478 C 0.12345 0.56673 0.66587 0.0
C479 C 0.13227 0.58897 0.64662 0.0
C480 C 0.12144 0.54534 0.64973 0.0
C481 C 0.13823 0.58922 0.61132 0.0
C482 C 0.12761 0.54635 0.6144 0.0
N483 N 0.13576 0.56807 0.59606 0.0
C484 C 0.15345 0.62805 0.77084 0.0
C485 C 0.1326 0.63207 0.72118 0.0
C486 C 0.16921 0.65409 0.77241 0.0
N487 N 0.13563 0.61762 0.74549 0.0
C488 C 0.14808 0.65824 0.72164 0.0
C489 C 0.16676 0.66952 0.74744 0.0
H490 H 0.15572 0.61613 0.7895 0.0
H491 H 0.11826 0.62326 0.70131 0.0
C492 C 0.03536 0.51649 0.67759 0.0
N493 N 0.05774 0.53842 0.67596 0.0
C494 C 0.01863 0.50901 0.6495 0.0
C495 C 0.04774 0.54749 0.61953 0.0
C496 C 0.06387 0.55417 0.64813 0.0
C497 C 0.02496 0.52444 0.61974 0.0
H498 H 0.03073 0.5046 0.70045 0.0
H499 H 0.08137 0.57188 0.64804 0.0
O500 O 0.12495 0.5637 0.77768 0.0
O501 O 0.07863 0.51866 0.74134 0.0
O502 O 0.07796 0.56731 0.75108 0.0
O503 O 0.11759 0.56623 0.70054 0.0
H504 H 0.14226 0.53461 0.80122 0.0
H505 H 0.12031 0.58853 0.83123 0.0
H506 H 0.15142 0.53099 0.86338 0.0
H507 H 0.12981 0.58394 0.89289 0.0
H508 H 0.05854 0.45823 0.6585 0.0
H509 H 0.06156 0.47924 0.78355 0.0
H510 H 0.0743 0.50255 0.67584 0.0
H511 H 0.04572 0.43523 0.76433 0.0
H512 H 0.06953 0.49624 0.88666 0.0
H513 H 0.03544 0.54303 0.87775 0.0
H514 H 0.19445 0.54723 0.69617 0.0
H515 H 0.14185 0.47654 0.74532 0.0
H516 H 0.06002 0.5841 0.70142 0.0
H517 H 0.0917 0.59862 0.80495 0.0
H518 H 0.05781 0.62332 0.70513 0.0
H519 H 0.08894 0.63759 0.80688 0.0
H520 H 0.13436 0.60583 0.65872 0.0
H521 H 0.11559 0.52826 0.66438 0.0
H522 H 0.14486 0.60625 0.59608 0.0
H523 H 0.12607 0.5299 0.60162 0.0
H524 H 0.18372 0.66196 0.79229 0.0
H525 H 0.14555 0.6695 0.70199 0.0
H526 H 0.00105 0.49129 0.65095 0.0
H527 H 0.05343 0.55992 0.59709 0.0
H528 H 0.49152 0.19008 0.30285 0.0
H529 H 0.46838 0.28825 0.19806 0.0
H530 H 0.46554 0.17911 0.19593 0.0
H531 H 0.49156 0.29721 0.30609 0.0
H532 H 0.45997 0.24487 0.19973 0.0
H533 H 0.48403 0.22535 0.30766 0.0
C534 C 0.48371 0.1947 0.28056 0.0
C535 C 0.47948 0.18178 0.24874 0.0
C536 C 0.4665 0.25617 0.22325 0.0
C537 C 0.47147 0.2227 0.25387 0.0
C538 C 0.47136 0.28095 0.22227 0.0
C539 C 0.48107 0.29646 0.25181 0.0
C540 C 0.47163 0.24694 0.2539 0.0
C541 C 0.48412 0.28593 0.28269 0.0
C542 C 0.47961 0.21503 0.28328 0.0
C543 C 0.46965 0.18892 0.2207 0.0
N544 N 0.47981 0.26195 0.28277 0.0
N545 N 0.46631 0.20913 0.22376 0.0
H546 H 0.30842 0.51409 0.67296 0.0
H547 H 0.18222 0.48572 0.76945 0.0
H548 H 0.28568 0.47683 0.77312 0.0
H549 H 0.20262 0.51728 0.6657 0.0
H550 H 0.21719 0.47743 0.76839 0.0
H551 H 0.26727 0.51039 0.66682 0.0
C552 C 0.29463 0.50465 0.69341 0.0
C553 C 0.30069 0.49595 0.72379 0.0
C554 C 0.21384 0.48589 0.74568 0.0
C555 C 0.25356 0.49228 0.71725 0.0
C556 C 0.19376 0.4905 0.74617 0.0
C557 C 0.18966 0.5025 0.71776 0.0
C558 C 0.23002 0.49346 0.71665 0.0
C559 C 0.20543 0.50849 0.68848 0.0
C560 C 0.27113 0.50273 0.68998 0.0
C561 C 0.28206 0.48429 0.74958 0.0
N562 N 0.22505 0.50415 0.68884 0.0
N563 N 0.25943 0.48306 0.74591 0.0
H564 H 0.68986 0.18463 0.3023 0.0
H565 H 0.7974 0.295 0.18855 0.0
H566 H 0.6849 0.19323 0.19106 0.0
H567 H 0.79884 0.29134 0.30113 0.0
H568 H 0.76058 0.2527 0.18771 0.0
H569 H 0.73368 0.21872 0.30093 0.0
C570 C 0.69805 0.19353 0.27754 0.0
C571 C 0.68356 0.18635 0.24685 0.0
C572 C 0.76916 0.261 0.21258 0.0
C573 C 0.73369 0.22527 0.24507 0.0
C574 C 0.7903 0.28509 0.21306 0.0
C575 C 0.80095 0.29685 0.24501 0.0
C576 C 0.75857 0.24863 0.24427 0.0
C577 C 0.79085 0.28317 0.27597 0.0
C578 C 0.72309 0.21291 0.27675 0.0
C579 C 0.69533 0.19811 0.21536 0.0
N580 N 0.77003 0.2599 0.27486 0.0
N581 N 0.71961 0.21721 0.21537 0.0
H582 H 0.50799 0.80583 0.72091 0.0
H583 H 0.46736 0.68014 0.8293 0.0
H584 H 0.4666 0.78707 0.81797 0.0
H585 H 0.50511 0.69652 0.7295 0.0
H586 H 0.47362 0.72273 0.83057 0.0
H587 H 0.51367 0.76939 0.72848 0.0
C588 C 0.50029 0.79417 0.74395 0.0
C589 C 0.4865 0.79929 0.7686 0.0
C590 C 0.48083 0.71714 0.80858 0.0
C591 C 0.49297 0.75767 0.77748 0.0
C592 C 0.47719 0.69282 0.80782 0.0
C593 C 0.48542 0.68471 0.77903 0.0
C594 C 0.49259 0.7334 0.78021 0.0
C595 C 0.49848 0.70202 0.75222 0.0
C596 C 0.50363 0.77345 0.74834 0.0
C597 C 0.47741 0.7839 0.79835 0.0
N598 N 0.50137 0.72546 0.75323 0.0
N599 N 0.48054 0.76361 0.80173 0.0
H600 H 0.68762 0.4899 0.17653 0.0
H601 H 0.80651 0.5009 0.27818 0.0
H602 H 0.6932 0.4884 0.28883 0.0
H603 H 0.79251 0.48349 0.16832 0.0
H604 H 0.76997 0.50672 0.28065 0.0
H605 H 0.73073 0.49764 0.17171 0.0
C606 C 0.6981 0.49166 0.20017 0.0
C607 C 0.68681 0.48823 0.23312 0.0
C608 C 0.77509 0.50195 0.2559 0.0
C609 C 0.7359 0.49691 0.22782 0.0
C610 C 0.79606 0.49883 0.2544 0.0
C611 C 0.80238 0.49146 0.22305 0.0
C612 C 0.76037 0.49773 0.22583 0.0
C613 C 0.78801 0.48877 0.19313 0.0
C614 C 0.72261 0.49592 0.1974 0.0
C615 C 0.70112 0.49052 0.26292 0.0
N616 N 0.76752 0.4917 0.19531 0.0
N617 N 0.72488 0.49455 0.25956 0.0
H618 H 0.29631 0.80929 0.69243 0.0
H619 H 0.18414 0.70184 0.8032 0.0
H620 H 0.29176 0.80922 0.80499 0.0
H621 H 0.19074 0.69964 0.69112 0.0
H622 H 0.21892 0.74534 0.80322 0.0
H623 H 0.25317 0.77388 0.69039 0.0
C624 C 0.28603 0.80221 0.71668 0.0
C625 C 0.29776 0.81194 0.74897 0.0
C626 C 0.21254 0.73548 0.77855 0.0
C627 C 0.2486 0.77114 0.74687 0.0
C628 C 0.19276 0.71063 0.77855 0.0
C629 C 0.18485 0.69699 0.74719 0.0
C630 C 0.22467 0.74672 0.74698 0.0
C631 C 0.19627 0.70944 0.71591 0.0
C632 C 0.26146 0.78187 0.71552 0.0
C633 C 0.2836 0.80191 0.77958 0.0
N634 N 0.21587 0.7335 0.71666 0.0
N635 N 0.25988 0.78184 0.7778 0.0
H636 H 0.48197 0.93945 0.93064 0.0
H637 H 0.54473 0.06843 0.03791 0.0
H638 H 0.50696 0.01161 0.8818 0.0
H639 H 0.49719 0.99564 0.08484 0.0
H640 H 0.53703 0.04815 0.98044 0.0
H641 H 0.49361 0.96019 0.9876 0.0
C642 C 0.49017 0.95972 0.93194 0.0
C643 C 0.49357 0.97391 0.90159 0.0
C644 C 0.52836 0.03666 0.00336 0.0
C645 C 0.50673 -0.00234 0.96652 0.0
C646 C 0.53285 0.04815 0.03606 0.0
C647 C 0.52148 0.03361 0.06596 0.0
C648 C 0.51266 0.01045 0.00075 0.0
C649 C 0.50608 0.00748 0.06229 0.0
C650 C 0.49663 0.9715 0.96442 0.0
C651 C 0.50391 4e-05 0.90469 0.0
N652 N 0.50214 -0.0033 0.03023 0.0
N653 N 0.51019 0.01113 0.93667 0.0
H654 H 0.54345 0.48267 0.44355 0.0
H655 H 0.46141 0.53186 0.54062 0.0
H656 H 0.49537 0.50401 0.38912 0.0
H657 H 0.52016 0.52434 0.5915 0.0
H658 H 0.47378 0.52214 0.48481 0.0
H659 H 0.53509 0.49783 0.49813 0.0
C660 C 0.53114 0.49058 0.44315 0.0
C661 C 0.51993 0.49195 0.41191 0.0
C662 C 0.48408 0.52279 0.50815 0.0
C663 C 0.51032 0.50936 0.47413 0.0
C664 C 0.47712 0.52848 0.54004 0.0
C665 C 0.48971 0.52883 0.57088 0.0
C666 C 0.50363 0.51722 0.50708 0.0
C667 C 0.50963 0.52384 0.56852 0.0
C668 C 0.52649 0.49936 0.47424 0.0
C669 C 0.50446 0.50272 0.41266 0.0
N670 N 0.51587 0.51809 0.5372 0.0
N671 N 0.49993 0.51084 0.44337 0.0
H672 H 0.03022 0.47213 0.91795 0.0
H673 H 0.99155 0.51597 0.09226 0.0
H674 H 0.04912 0.54891 0.93826 0.0
H675 H 0.97775 0.44044 0.07559 0.0
H676 H 0.01493 0.52894 0.03744 0.0
H677 H 0.01276 0.46057 0.9768 0.0
C678 C 0.03088 0.4866 0.93488 0.0
C679 C 0.04099 0.51149 0.92308 0.0
C680 C 0.00695 0.50957 0.04589 0.0
C681 C 0.02082 0.49834 0.99034 0.0
C682 C -0.00624 0.50219 0.07734 0.0
C683 C 0.98253 0.47703 0.08844 0.0
C684 C 0.00886 0.49165 0.02526 0.0
C685 C 0.9857 0.45992 0.06772 0.0
C686 C 0.02083 0.47997 0.96844 0.0
C687 C 0.04108 0.52939 0.94603 0.0
N688 N -0.00158 0.46751 0.03701 0.0
N689 N 0.03105 0.52244 0.97851 0.0
H690 H 0.47662 0.98268 0.37847 0.0
H691 H 0.49485 0.99246 0.58597 0.0
H692 H 0.52485 0.0517 0.43403 0.0
H693 H 0.45178 0.92168 0.53168 0.0
H694 H 0.50527 0.01435 0.53009 0.0
H695 H 0.46671 0.95971 0.43394 0.0
C696 C 0.48522 0.99296 0.40229 0.0
C697 C 0.50143 0.01916 0.4017 0.0
C698 C 0.49358 0.99402 0.53031 0.0
C699 C 0.49005 0.99313 0.46507 0.0
C700 C 0.48773 0.98149 0.56223 0.0
C701 C 0.47256 0.95519 0.56346 0.0
C702 C 0.48414 0.9802 0.49929 0.0
C703 C 0.46338 0.94201 0.53191 0.0
C704 C 0.47947 0.97988 0.43392 0.0
C705 C 0.51188 0.03159 0.43334 0.0
N706 N 0.46934 0.95467 0.50104 0.0
N707 N 0.50597 0.01847 0.46371 0.0
H708 H 0.48134 0.47023 0.88773 0.0
H709 H 0.48342 0.48934 0.09451 0.0
H710 H 0.46821 0.52609 0.93628 0.0
H711 H 0.52284 0.45632 0.04392 0.0
H712 H 0.47114 0.4972 0.03697 0.0
H713 H 0.49022 0.45908 0.94558 0.0
C714 C 0.48021 0.48 0.91064 0.0
C715 C 0.4743 0.49921 0.90744 0.0
C716 C 0.48245 0.48821 0.03852 0.0
C717 C 0.48414 0.48656 0.9732 0.0
C718 C 0.48933 0.48364 0.07124 0.0
C719 C 0.50427 0.47236 0.07376 0.0
C720 C 0.49029 0.48111 0.00824 0.0
C721 C 0.51157 0.46537 0.04293 0.0
C722 C 0.48536 0.47375 0.94349 0.0
C723 C 0.47307 0.5114 0.93775 0.0
N724 N 0.50446 0.46982 0.01137 0.0
N725 N 0.47791 0.50483 0.96944 0.0
H726 H 0.01301 0.55269 0.57669 0.0
H727 H 0.94023 0.4412 0.43865 0.0
H728 H 4e-05 0.47725 0.59102 0.0
H729 H 0.96088 0.51857 0.41919 0.0
H730 H 0.9582 0.4531 0.49721 0.0
H731 H 0.98973 0.53943 0.52169 0.0
C732 C 0.00518 0.53331 0.56833 0.0
C733 C 0.00866 0.5161 0.58833 0.0
C734 C 0.95872 0.46746 0.48017 0.0
C735 C 0.98192 0.50078 0.52553 0.0
C736 C 0.94862 0.46071 0.44666 0.0
C737 C 0.94926 0.47897 0.42388 0.0
C738 C 0.96956 0.49265 0.49101 0.0
C739 C 0.95983 0.50385 0.43595 0.0
C740 C 0.99183 0.52574 0.53699 0.0
C741 C -0.00233 0.49111 0.57659 0.0
N742 N 0.96968 0.50998 0.46864 0.0
N743 N 0.98495 0.48425 0.54582 0.0
loop_
_geom_bond_atom_site_label_1
_geom_bond_atom_site_label_2
_geom_bond_distance
_geom_bond_site_symmetry_2
_ccdc_geom_bond_type
Li0 N17 1.990 . S
Li0 O60 1.956 . S
Li0 O61 1.970 . S
Li0 O62 1.961 . S
Li1 N25 1.990 . S
Li1 O60 1.970 . S
Li1 O61 1.956 . S
Li1 O63 1.961 . S
Li2 N47 1.990 . S
Li2 O60 1.961 . S
Li2 O62 1.956 . S
Li2 O63 1.970 . S
Li3 N53 1.990 . S
Li3 O61 1.961 . S
Li3 O62 1.970 . S
Li3 O63 1.956 . S
C4 C6 1.348 . S
C4 C7 1.356 . S
C4 O60 1.325 . S
N5 C8 1.314 . S
N5 C9 1.279 . S
C6 C4 1.348 . S
C6 C8 1.353 . S
C6 H64 0.929 . S
C7 C4 1.356 . S
C7 C9 1.358 . S
C7 H65 0.930 . S
C8 N5 1.314 . S
C8 C6 1.353 . S
C8 H66 0.930 . S
C9 N5 1.279 . S
C9 C7 1.358 . S
C9 H67 0.930 . S
C10 C13 1.348 . S
C10 C14 1.356 . S
C10 O61 1.325 . S
C11 N12 1.279 . S
C11 C14 1.358 . S
C11 H68 0.930 . S
N12 C11 1.279 . S
N12 C15 1.314 . S
C13 C10 1.348 . S
C13 C15 1.353 . S
C13 H69 0.929 . S
C14 C10 1.356 . S
C14 C11 1.358 . S
C14 H70 0.930 . S
C15 N12 1.314 . S
C15 C13 1.353 . S
C15 H71 0.930 . S
C16 N17 1.314 . S
C16 C21 1.353 . S
C16 H22 0.930 . S
N17 Li0 1.990 . S
N17 C16 1.314 . S
N17 C19 1.279 . S
C18 C19 1.358 . S
C18 C20 1.356 . S
C18 H72 0.930 . S
C19 N17 1.279 . S
C19 C18 1.358 . S
C19 H23 0.930 . S
C20 C18 1.356 . S
C20 C21 1.348 . S
C21 C16 1.353 . S
C21 C20 1.348 . S
C21 H73 0.929 . S
H22 C16 0.930 . S
H23 C19 0.930 . S
C24 N25 1.314 . S
C24 C26 1.353 . S
C24 H30 0.930 . S
N25 Li1 1.990 . S
N25 C24 1.314 . S
N25 C28 1.279 . S
C26 C24 1.353 . S
C26 C29 1.348 . S
C26 H74 0.929 . S
C27 C28 1.358 . S
C27 C29 1.356 . S
C27 H75 0.930 . S
C28 N25 1.279 . S
C28 C27 1.358 . S
C28 H31 0.930 . S
C29 C26 1.348 . S
C29 C27 1.356 . S
H30 C24 0.930 . S
H31 C28 0.930 . S
C32 C34 1.348 . S
C32 C35 1.356 . S
C32 O62 1.325 . S
N33 C36 1.314 . S
N33 C37 1.279 . S
C34 C32 1.348 . S
C34 C36 1.353 . S
C34 H76 0.929 . S
C35 C32 1.356 . S
C35 C37 1.358 . S
C35 H77 0.930 . S
C36 N33 1.314 . S
C36 C34 1.353 . S
C36 H78 0.930 . S
C37 N33 1.279 . S
C37 C35 1.358 . S
C37 H79 0.930 . S
C38 C39 1.348 . S
C38 C40 1.356 . S
C38 O63 1.325 . S
C39 C38 1.348 . S
C39 C41 1.353 . S
C39 H80 0.929 . S
C40 C38 1.356 . S
C40 C42 1.358 . S
C40 H81 0.930 . S
C41 C39 1.353 . S
C41 N43 1.314 . S
C41 H82 0.930 . S
C42 C40 1.358 . S
C42 N43 1.279 . S
C42 H83 0.930 . S
N43 C41 1.314 . S
N43 C42 1.279 . S
C44 C46 1.353 . S
C44 N47 1.314 . S
C44 H50 0.930 . S
C45 N47 1.279 . S
C45 C48 1.358 . S
C45 H51 0.930 . S
C46 C44 1.353 . S
C46 C49 1.348 . S
C46 H84 0.929 . S
N47 Li2 1.990 . S
N47 C44 1.314 . S
N47 C45 1.279 . S
C48 C45 1.358 . S
C48 C49 1.356 . S
C48 H85 0.930 . S
C49 C46 1.348 . S
C49 C48 1.356 . S
H50 C44 0.930 . S
H51 C45 0.930 . S
C52 N53 1.314 . S
C52 C54 1.353 . S
C52 H58 0.930 . S
N53 Li3 1.990 . S
N53 C52 1.314 . S
N53 C56 1.279 . S
C54 C52 1.353 . S
C54 C57 1.348 . S
C54 H86 0.929 . S
C55 C56 1.358 . S
C55 C57 1.356 . S
C55 H87 0.930 . S
C56 N53 1.279 . S
C56 C55 1.358 . S
C56 H59 0.930 . S
C57 C54 1.348 . S
C57 C55 1.356 . S
H58 C52 0.930 . S
H59 C56 0.930 . S
O60 Li0 1.956 . S
O60 Li1 1.970 . S
O60 Li2 1.961 . S
O60 C4 1.325 . S
O61 Li0 1.970 . S
O61 Li1 1.956 . S
O61 Li3 1.961 . S
O61 C10 1.325 . S
O62 Li0 1.961 . S
O62 Li2 1.956 . S
O62 Li3 1.970 . S
O62 C32 1.325 . S
O63 Li1 1.961 . S
O63 Li2 1.970 . S
O63 Li3 1.956 . S
O63 C38 1.325 . S
H64 C6 0.929 . S
H65 C7 0.930 . S
H66 C8 0.930 . S
H67 C9 0.930 . S
H68 C11 0.930 . S
H69 C13 0.929 . S
H70 C14 0.930 . S
H71 C15 0.930 . S
H72 C18 0.930 . S
H73 C21 0.929 . S
H74 C26 0.929 . S
H75 C27 0.930 . S
H76 C34 0.929 . S
H77 C35 0.930 . S
H78 C36 0.930 . S
H79 C37 0.930 . S
H80 C39 0.929 . S
H81 C40 0.930 . S
H82 C41 0.930 . S
H83 C42 0.930 . S
H84 C46 0.929 . S
H85 C48 0.930 . S
H86 C54 0.929 . S
H87 C55 0.930 . S
Li88 N105 1.990 . S
Li88 O148 1.956 . S
Li88 O149 1.970 . S
Li88 O150 1.961 . S
Li89 N113 1.990 . S
Li89 O148 1.970 . S
Li89 O149 1.956 . S
Li89 O151 1.961 . S
Li90 N135 1.990 . S
Li90 O148 1.961 . S
Li90 O150 1.956 . S
Li90 O151 1.970 . S
Li91 N141 1.990 . S
Li91 O149 1.961 . S
Li91 O150 1.970 . S
Li91 O151 1.956 . S
C92 C94 1.348 . S
C92 C95 1.356 . S
C92 O148 1.325 . S
N93 C96 1.314 . S
N93 C97 1.279 . S
C94 C92 1.348 . S
C94 C96 1.353 . S
C94 H152 0.929 . S
C95 C92 1.356 . S
C95 C97 1.358 . S
C95 H153 0.930 . S
C96 N93 1.314 . S
C96 C94 1.353 . S
C96 H154 0.930 . S
C97 N93 1.279 . S
C97 C95 1.358 . S
C97 H155 0.930 . S
C98 C101 1.348 . S
C98 C102 1.356 . S
C98 O149 1.325 . S
C99 N100 1.279 . S
C99 C102 1.358 . S
C99 H156 0.930 . S
N100 C99 1.279 . S
N100 C103 1.314 . S
C101 C98 1.348 . S
C101 C103 1.353 . S
C101 H157 0.929 . S
C102 C98 1.356 . S
C102 C99 1.358 . S
C102 H158 0.930 . S
C103 N100 1.314 . S
C103 C101 1.353 . S
C103 H159 0.930 . S
C104 N105 1.314 . S
C104 C109 1.353 . S
C104 H110 0.930 . S
N105 Li88 1.990 . S
N105 C104 1.314 . S
N105 C107 1.279 . S
C106 C107 1.358 . S
C106 C108 1.356 . S
C106 H160 0.930 . S
C107 N105 1.279 . S
C107 C106 1.358 . S
C107 H111 0.930 . S
C108 C106 1.356 . S
C108 C109 1.348 . S
C109 C104 1.353 . S
C109 C108 1.348 . S
C109 H161 0.929 . S
H110 C104 0.930 . S
H111 C107 0.930 . S
C112 N113 1.314 . S
C112 C114 1.353 . S
C112 H118 0.930 . S
N113 Li89 1.990 . S
N113 C112 1.314 . S
N113 C116 1.279 . S
C114 C112 1.353 . S
C114 C117 1.348 . S
C114 H162 0.929 . S
C115 C116 1.358 . S
C115 C117 1.356 . S
C115 H163 0.930 . S
C116 N113 1.279 . S
C116 C115 1.358 . S
C116 H119 0.930 . S
C117 C114 1.348 . S
C117 C115 1.356 . S
H118 C112 0.930 . S
H119 C116 0.930 . S
C120 C122 1.348 . S
C120 C123 1.356 . S
C120 O150 1.325 . S
N121 C124 1.314 . S
N121 C125 1.279 . S
C122 C120 1.348 . S
C122 C124 1.353 . S
C122 H164 0.929 . S
C123 C120 1.356 . S
C123 C125 1.358 . S
C123 H165 0.930 . S
C124 N121 1.314 . S
C124 C122 1.353 . S
C124 H166 0.930 . S
C125 N121 1.279 . S
C125 C123 1.358 . S
C125 H167 0.930 . S
C126 C127 1.348 . S
C126 C128 1.356 . S
C126 O151 1.325 . S
C127 C126 1.348 . S
C127 C129 1.353 . S
C127 H168 0.929 . S
C128 C126 1.356 . S
C128 C130 1.358 . S
C128 H169 0.930 . S
C129 C127 1.353 . S
C129 N131 1.314 . S
C129 H170 0.930 . S
C130 C128 1.358 . S
C130 N131 1.279 . S
C130 H171 0.930 . S
N131 C129 1.314 . S
N131 C130 1.279 . S
C132 C134 1.353 . S
C132 N135 1.314 . S
C132 H138 0.930 . S
C133 N135 1.279 . S
C133 C136 1.358 . S
C133 H139 0.930 . S
C134 C132 1.353 . S
C134 C137 1.348 . S
C134 H172 0.929 . S
N135 Li90 1.990 . S
N135 C132 1.314 . S
N135 C133 1.279 . S
C136 C133 1.358 . S
C136 C137 1.356 . S
C136 H173 0.930 . S
C137 C134 1.348 . S
C137 C136 1.356 . S
H138 C132 0.930 . S
H139 C133 0.930 . S
C140 N141 1.314 . S
C140 C142 1.353 . S
C140 H146 0.930 . S
N141 Li91 1.990 . S
N141 C140 1.314 . S
N141 C144 1.279 . S
C142 C140 1.353 . S
C142 C145 1.348 . S
C142 H174 0.929 . S
C143 C144 1.358 . S
C143 C145 1.356 . S
C143 H175 0.930 . S
C144 N141 1.279 . S
C144 C143 1.358 . S
C144 H147 0.930 . S
C145 C142 1.348 . S
C145 C143 1.356 . S
H146 C140 0.930 . S
H147 C144 0.930 . S
O148 Li88 1.956 . S
O148 Li89 1.970 . S
O148 Li90 1.961 . S
O148 C92 1.325 . S
O149 Li88 1.970 . S
O149 Li89 1.956 . S
O149 Li91 1.961 . S
O149 C98 1.325 . S
O150 Li88 1.961 . S
O150 Li90 1.956 . S
O150 Li91 1.970 . S
O150 C120 1.325 . S
O151 Li89 1.961 . S
O151 Li90 1.970 . S
O151 Li91 1.956 . S
O151 C126 1.325 . S
H152 C94 0.929 . S
H153 C95 0.930 . S
H154 C96 0.930 . S
H155 C97 0.930 . S
H156 C99 0.930 . S
H157 C101 0.929 . S
H158 C102 0.930 . S
H159 C103 0.930 . S
H160 C106 0.930 . S
H161 C109 0.929 . S
H162 C114 0.929 . S
H163 C115 0.930 . S
H164 C122 0.929 . S
H165 C123 0.930 . S
H166 C124 0.930 . S
H167 C125 0.930 . S
H168 C127 0.929 . S
H169 C128 0.930 . S
H170 C129 0.930 . S
H171 C130 0.930 . S
H172 C134 0.929 . S
H173 C136 0.930 . S
H174 C142 0.929 . S
H175 C143 0.930 . S
Li176 N193 1.990 . S
Li176 O236 1.956 . S
Li176 O237 1.970 . S
Li176 O238 1.961 . S
Li177 N201 1.990 . S
Li177 O236 1.970 . S
Li177 O237 1.956 . S
Li177 O239 1.961 . S
Li178 N223 1.990 . S
Li178 O236 1.961 . S
Li178 O238 1.956 . S
Li178 O239 1.970 . S
Li179 N229 1.990 . S
Li179 O237 1.961 . S
Li179 O238 1.970 . S
Li179 O239 1.956 . S
C180 C182 1.348 . S
C180 C183 1.356 . S
C180 O236 1.325 . S
N181 C184 1.314 . S
N181 C185 1.279 . S
C182 C180 1.348 . S
C182 C184 1.353 . S
C182 H240 0.929 . S
C183 C180 1.356 . S
C183 C185 1.358 . S
C183 H241 0.930 . S
C184 N181 1.314 . S
C184 C182 1.353 . S
C184 H242 0.930 . S
C185 N181 1.279 . S
C185 C183 1.358 . S
C185 H243 0.930 . S
C186 C189 1.348 . S
C186 C190 1.356 . S
C186 O237 1.325 . S
C187 N188 1.279 . S
C187 C190 1.358 . S
C187 H244 0.930 . S
N188 C187 1.279 . S
N188 C191 1.314 . S
C189 C186 1.348 . S
C189 C191 1.353 . S
C189 H245 0.929 . S
C190 C186 1.356 . S
C190 C187 1.358 . S
C190 H246 0.930 . S
C191 N188 1.314 . S
C191 C189 1.353 . S
C191 H247 0.930 . S
C192 N193 1.314 . S
C192 C197 1.353 . S
C192 H198 0.930 . S
N193 Li176 1.990 . S
N193 C192 1.314 . S
N193 C195 1.279 . S
C194 C195 1.358 . S
C194 C196 1.356 . S
C194 H248 0.930 . S
C195 N193 1.279 . S
C195 C194 1.358 . S
C195 H199 0.930 . S
C196 C194 1.356 . S
C196 C197 1.348 . S
C197 C192 1.353 . S
C197 C196 1.348 . S
C197 H249 0.929 . S
H198 C192 0.930 . S
H199 C195 0.930 . S
C200 N201 1.314 . S
C200 C202 1.353 . S
C200 H206 0.930 . S
N201 Li177 1.990 . S
N201 C200 1.314 . S
N201 C204 1.279 . S
C202 C200 1.353 . S
C202 C205 1.348 . S
C202 H250 0.929 . S
C203 C204 1.358 . S
C203 C205 1.356 . S
C203 H251 0.930 . S
C204 N201 1.279 . S
C204 C203 1.358 . S
C204 H207 0.930 . S
C205 C202 1.348 . S
C205 C203 1.356 . S
H206 C200 0.930 . S
H207 C204 0.930 . S
C208 C210 1.348 . S
C208 C211 1.356 . S
C208 O238 1.325 . S
N209 C212 1.314 . S
N209 C213 1.279 . S
C210 C208 1.348 . S
C210 C212 1.353 . S
C210 H252 0.929 . S
C211 C208 1.356 . S
C211 C213 1.358 . S
C211 H253 0.930 . S
C212 N209 1.314 . S
C212 C210 1.353 . S
C212 H254 0.930 . S
C213 N209 1.279 . S
C213 C211 1.358 . S
C213 H255 0.930 . S
C214 C215 1.348 . S
C214 C216 1.356 . S
C214 O239 1.325 . S
C215 C214 1.348 . S
C215 C217 1.353 . S
C215 H256 0.929 . S
C216 C214 1.356 . S
C216 C218 1.358 . S
C216 H257 0.930 . S
C217 C215 1.353 . S
C217 N219 1.314 . S
C217 H258 0.930 . S
C218 C216 1.358 . S
C218 N219 1.279 . S
C218 H259 0.930 . S
N219 C217 1.314 . S
N219 C218 1.279 . S
C220 C222 1.353 . S
C220 N223 1.314 . S
C220 H226 0.930 . S
C221 N223 1.279 . S
C221 C224 1.358 . S
C221 H227 0.930 . S
C222 C220 1.353 . S
C222 C225 1.348 . S
C222 H260 0.929 . S
N223 Li178 1.990 . S
N223 C220 1.314 . S
N223 C221 1.279 . S
C224 C221 1.358 . S
C224 C225 1.356 . S
C224 H261 0.930 . S
C225 C222 1.348 . S
C225 C224 1.356 . S
H226 C220 0.930 . S
H227 C221 0.930 . S
C228 N229 1.314 . S
C228 C230 1.353 . S
C228 H234 0.930 . S
N229 Li179 1.990 . S
N229 C228 1.314 . S
N229 C232 1.279 . S
C230 C228 1.353 . S
C230 C233 1.348 . S
C230 H262 0.929 . S
C231 C232 1.358 . S
C231 C233 1.356 . S
C231 H263 0.930 . S
C232 N229 1.279 . S
C232 C231 1.358 . S
C232 H235 0.930 . S
C233 C230 1.348 . S
C233 C231 1.356 . S
H234 C228 0.930 . S
H235 C232 0.930 . S
O236 Li176 1.956 . S
O236 Li177 1.970 . S
O236 Li178 1.961 . S
O236 C180 1.325 . S
O237 Li176 1.970 . S
O237 Li177 1.956 . S
O237 Li179 1.961 . S
O237 C186 1.325 . S
O238 Li176 1.961 . S
O238 Li178 1.956 . S
O238 Li179 1.970 . S
O238 C208 1.325 . S
O239 Li177 1.961 . S
O239 Li178 1.970 . S
O239 Li179 1.956 . S
O239 C214 1.325 . S
H240 C182 0.929 . S
H241 C183 0.930 . S
H242 C184 0.930 . S
H243 C185 0.930 . S
H244 C187 0.930 . S
H245 C189 0.929 . S
H246 C190 0.930 . S
H247 C191 0.930 . S
H248 C194 0.930 . S
H249 C197 0.929 . S
H250 C202 0.929 . S
H251 C203 0.930 . S
H252 C210 0.929 . S
H253 C211 0.930 . S
H254 C212 0.930 . S
H255 C213 0.930 . S
H256 C215 0.929 . S
H257 C216 0.930 . S
H258 C217 0.930 . S
H259 C218 0.930 . S
H260 C222 0.929 . S
H261 C224 0.930 . S
H262 C230 0.929 . S
H263 C231 0.930 . S
Li264 N281 1.990 . S
Li264 O324 1.956 . S
Li264 O325 1.970 . S
Li264 O326 1.961 . S
Li265 N289 1.990 . S
Li265 O324 1.970 . S
Li265 O325 1.956 . S
Li265 O327 1.961 . S
Li266 N311 1.990 . S
Li266 O324 1.961 . S
Li266 O326 1.956 . S
Li266 O327 1.970 . S
Li267 N317 1.990 . S
Li267 O325 1.961 . S
Li267 O326 1.970 . S
Li267 O327 1.956 . S
C268 C270 1.348 . S
C268 C271 1.356 . S
C268 O324 1.325 . S
N269 C272 1.314 . S
N269 C273 1.279 . S
C270 C268 1.348 . S
C270 C272 1.353 . S
C270 H328 0.929 . S
C271 C268 1.356 . S
C271 C273 1.358 . S
C271 H329 0.930 . S
C272 N269 1.314 . S
C272 C270 1.353 . S
C272 H330 0.930 . S
C273 N269 1.279 . S
C273 C271 1.358 . S
C273 H331 0.930 . S
C274 C277 1.348 . S
C274 C278 1.356 . S
C274 O325 1.325 . S
C275 N276 1.279 . S
C275 C278 1.358 . S
C275 H332 0.930 . S
N276 C275 1.279 . S
N276 C279 1.314 . S
C277 C274 1.348 . S
C277 C279 1.353 . S
C277 H333 0.929 . S
C278 C274 1.356 . S
C278 C275 1.358 . S
C278 H334 0.930 . S
C279 N276 1.314 . S
C279 C277 1.353 . S
C279 H335 0.930 . S
C280 N281 1.314 . S
C280 C285 1.353 . S
C280 H286 0.930 . S
N281 Li264 1.990 . S
N281 C280 1.314 . S
N281 C283 1.279 . S
C282 C283 1.358 . S
C282 C284 1.356 . S
C282 H336 0.930 . S
C283 N281 1.279 . S
C283 C282 1.358 . S
C283 H287 0.930 . S
C284 C282 1.356 . S
C284 C285 1.348 . S
C285 C280 1.353 . S
C285 C284 1.348 . S
C285 H337 0.929 . S
H286 C280 0.930 . S
H287 C283 0.930 . S
C288 N289 1.314 . S
C288 C290 1.353 . S
C288 H294 0.930 . S
N289 Li265 1.990 . S
N289 C288 1.314 . S
N289 C292 1.279 . S
C290 C288 1.353 . S
C290 C293 1.348 . S
C290 H338 0.929 . S
C291 C292 1.358 . S
C291 C293 1.356 . S
C291 H339 0.930 . S
C292 N289 1.279 . S
C292 C291 1.358 . S
C292 H295 0.930 . S
C293 C290 1.348 . S
C293 C291 1.356 . S
H294 C288 0.930 . S
H295 C292 0.930 . S
C296 C298 1.348 . S
C296 C299 1.356 . S
C296 O326 1.325 . S
N297 C300 1.314 . S
N297 C301 1.279 . S
C298 C296 1.348 . S
C298 C300 1.353 . S
C298 H340 0.929 . S
C299 C296 1.356 . S
C299 C301 1.358 . S
C299 H341 0.930 . S
C300 N297 1.314 . S
C300 C298 1.353 . S
C300 H342 0.930 . S
C301 N297 1.279 . S
C301 C299 1.358 . S
C301 H343 0.930 . S
C302 C303 1.348 . S
C302 C304 1.356 . S
C302 O327 1.325 . S
C303 C302 1.348 . S
C303 C305 1.353 . S
C303 H344 0.929 . S
C304 C302 1.356 . S
C304 C306 1.358 . S
C304 H345 0.930 . S
C305 C303 1.353 . S
C305 N307 1.314 . S
C305 H346 0.930 . S
C306 C304 1.358 . S
C306 N307 1.279 . S
C306 H347 0.930 . S
N307 C305 1.314 . S
N307 C306 1.279 . S
C308 C310 1.353 . S
C308 N311 1.314 . S
C308 H314 0.930 . S
C309 N311 1.279 . S
C309 C312 1.358 . S
C309 H315 0.930 . S
C310 C308 1.353 . S
C310 C313 1.348 . S
C310 H348 0.929 . S
N311 Li266 1.990 . S
N311 C308 1.314 . S
N311 C309 1.279 . S
C312 C309 1.358 . S
C312 C313 1.356 . S
C312 H349 0.930 . S
C313 C310 1.348 . S
C313 C312 1.356 . S
H314 C308 0.930 . S
H315 C309 0.930 . S
C316 N317 1.314 . S
C316 C318 1.353 . S
C316 H322 0.930 . S
N317 Li267 1.990 . S
N317 C316 1.314 . S
N317 C320 1.279 . S
C318 C316 1.353 . S
C318 C321 1.348 . S
C318 H350 0.929 . S
C319 C320 1.358 . S
C319 C321 1.356 . S
C319 H351 0.930 . S
C320 N317 1.279 . S
C320 C319 1.358 . S
C320 H323 0.930 . S
C321 C318 1.348 . S
C321 C319 1.356 . S
H322 C316 0.930 . S
H323 C320 0.930 . S
O324 Li264 1.956 . S
O324 Li265 1.970 . S
O324 Li266 1.961 . S
O324 C268 1.325 . S
O325 Li264 1.970 . S
O325 Li265 1.956 . S
O325 Li267 1.961 . S
O325 C274 1.325 . S
O326 Li264 1.961 . S
O326 Li266 1.956 . S
O326 Li267 1.970 . S
O326 C296 1.325 . S
O327 Li265 1.961 . S
O327 Li266 1.970 . S
O327 Li267 1.956 . S
O327 C302 1.325 . S
H328 C270 0.929 . S
H329 C271 0.930 . S
H330 C272 0.930 . S
H331 C273 0.930 . S
H332 C275 0.930 . S
H333 C277 0.929 . S
H334 C278 0.930 . S
H335 C279 0.930 . S
H336 C282 0.930 . S
H337 C285 0.929 . S
H338 C290 0.929 . S
H339 C291 0.930 . S
H340 C298 0.929 . S
H341 C299 0.930 . S
H342 C300 0.930 . S
H343 C301 0.930 . S
H344 C303 0.929 . S
H345 C304 0.930 . S
H346 C305 0.930 . S
H347 C306 0.930 . S
H348 C310 0.929 . S
H349 C312 0.930 . S
H350 C318 0.929 . S
H351 C319 0.930 . S
Li352 N369 1.990 . S
Li352 O412 1.956 . S
Li352 O413 1.970 . S
Li352 O414 1.961 . S
Li353 N377 1.990 . S
Li353 O412 1.970 . S
Li353 O413 1.956 . S
Li353 O415 1.961 . S
Li354 N399 1.990 . S
Li354 O412 1.961 . S
Li354 O414 1.956 . S
Li354 O415 1.970 . S
Li355 N405 1.990 . S
Li355 O413 1.961 . S
Li355 O414 1.970 . S
Li355 O415 1.956 . S
C356 C358 1.348 . S
C356 C359 1.356 . S
C356 O412 1.325 . S
N357 C360 1.314 . S
N357 C361 1.279 . S
C358 C356 1.348 . S
C358 C360 1.353 . S
C358 H416 0.929 . S
C359 C356 1.356 . S
C359 C361 1.358 . S
C359 H417 0.930 . S
C360 N357 1.314 . S
C360 C358 1.353 . S
C360 H418 0.930 . S
C361 N357 1.279 . S
C361 C359 1.358 . S
C361 H419 0.930 . S
C362 C365 1.348 . S
C362 C366 1.356 . S
C362 O413 1.325 . S
C363 N364 1.279 . S
C363 C366 1.358 . S
C363 H420 0.930 . S
N364 C363 1.279 . S
N364 C367 1.314 . S
C365 C362 1.348 . S
C365 C367 1.353 . S
C365 H421 0.929 . S
C366 C362 1.356 . S
C366 C363 1.358 . S
C366 H422 0.930 . S
C367 N364 1.314 . S
C367 C365 1.353 . S
C367 H423 0.930 . S
C368 N369 1.314 . S
C368 C373 1.353 . S
C368 H374 0.930 . S
N369 Li352 1.990 . S
N369 C368 1.314 . S
N369 C371 1.279 . S
C370 C371 1.358 . S
C370 C372 1.356 . S
C370 H424 0.930 . S
C371 N369 1.279 . S
C371 C370 1.358 . S
C371 H375 0.930 . S
C372 C370 1.356 . S
C372 C373 1.348 . S
C373 C368 1.353 . S
C373 C372 1.348 . S
C373 H425 0.929 . S
H374 C368 0.930 . S
H375 C371 0.930 . S
C376 N377 1.314 . S
C376 C378 1.353 . S
C376 H382 0.930 . S
N377 Li353 1.990 . S
N377 C376 1.314 . S
N377 C380 1.279 . S
C378 C376 1.353 . S
C378 C381 1.348 . S
C378 H426 0.929 . S
C379 C380 1.358 . S
C379 C381 1.356 . S
C379 H427 0.930 . S
C380 N377 1.279 . S
C380 C379 1.358 . S
C380 H383 0.930 . S
C381 C378 1.348 . S
C381 C379 1.356 . S
H382 C376 0.930 . S
H383 C380 0.930 . S
C384 C386 1.348 . S
C384 C387 1.356 . S
C384 O414 1.325 . S
N385 C388 1.314 . S
N385 C389 1.279 . S
C386 C384 1.348 . S
C386 C388 1.353 . S
C386 H428 0.929 . S
C387 C384 1.356 . S
C387 C389 1.358 . S
C387 H429 0.930 . S
C388 N385 1.314 . S
C388 C386 1.353 . S
C388 H430 0.930 . S
C389 N385 1.279 . S
C389 C387 1.358 . S
C389 H431 0.930 . S
C390 C391 1.348 . S
C390 C392 1.356 . S
C390 O415 1.325 . S
C391 C390 1.348 . S
C391 C393 1.353 . S
C391 H432 0.929 . S
C392 C390 1.356 . S
C392 C394 1.358 . S
C392 H433 0.930 . S
C393 C391 1.353 . S
C393 N395 1.314 . S
C393 H434 0.930 . S
C394 C392 1.358 . S
C394 N395 1.279 . S
C394 H435 0.930 . S
N395 C393 1.314 . S
N395 C394 1.279 . S
C396 C398 1.353 . S
C396 N399 1.314 . S
C396 H402 0.930 . S
C397 N399 1.279 . S
C397 C400 1.358 . S
C397 H403 0.930 . S
C398 C396 1.353 . S
C398 C401 1.348 . S
C398 H436 0.929 . S
N399 Li354 1.990 . S
N399 C396 1.314 . S
N399 C397 1.279 . S
C400 C397 1.358 . S
C400 C401 1.356 . S
C400 H437 0.930 . S
C401 C398 1.348 . S
C401 C400 1.356 . S
H402 C396 0.930 . S
H403 C397 0.930 . S
C404 N405 1.314 . S
C404 C406 1.353 . S
C404 H410 0.930 . S
N405 Li355 1.990 . S
N405 C404 1.314 . S
N405 C408 1.279 . S
C406 C404 1.353 . S
C406 C409 1.348 . S
C406 H438 0.929 . S
C407 C408 1.358 . S
C407 C409 1.356 . S
C407 H439 0.930 . S
C408 N405 1.279 . S
C408 C407 1.358 . S
C408 H411 0.930 . S
C409 C406 1.348 . S
C409 C407 1.356 . S
H410 C404 0.930 . S
H411 C408 0.930 . S
O412 Li352 1.956 . S
O412 Li353 1.970 . S
O412 Li354 1.961 . S
O412 C356 1.325 . S
O413 Li352 1.970 . S
O413 Li353 1.956 . S
O413 Li355 1.961 . S
O413 C362 1.325 . S
O414 Li352 1.961 . S
O414 Li354 1.956 . S
O414 Li355 1.970 . S
O414 C384 1.325 . S
O415 Li353 1.961 . S
O415 Li354 1.970 . S
O415 Li355 1.956 . S
O415 C390 1.325 . S
H416 C358 0.929 . S
H417 C359 0.930 . S
H418 C360 0.930 . S
H419 C361 0.930 . S
H420 C363 0.930 . S
H421 C365 0.929 . S
H422 C366 0.930 . S
H423 C367 0.930 . S
H424 C370 0.930 . S
H425 C373 0.929 . S
H426 C378 0.929 . S
H427 C379 0.930 . S
H428 C386 0.929 . S
H429 C387 0.930 . S
H430 C388 0.930 . S
H431 C389 0.930 . S
H432 C391 0.929 . S
H433 C392 0.930 . S
H434 C393 0.930 . S
H435 C394 0.930 . S
H436 C398 0.929 . S
H437 C400 0.930 . S
H438 C406 0.929 . S
H439 C407 0.930 . S
Li440 N457 1.990 . S
Li440 O500 1.956 . S
Li440 O501 1.970 . S
Li440 O502 1.961 . S
Li441 N465 1.990 . S
Li441 O500 1.970 . S
Li441 O501 1.956 . S
Li441 O503 1.961 . S
Li442 N487 1.990 . S
Li442 O500 1.961 . S
Li442 O502 1.956 . S
Li442 O503 1.970 . S
Li443 N493 1.990 . S
Li443 O501 1.961 . S
Li443 O502 1.970 . S
Li443 O503 1.956 . S
C444 C446 1.348 . S
C444 C447 1.356 . S
C444 O500 1.325 . S
N445 C448 1.314 . S
N445 C449 1.279 . S
C446 C444 1.348 . S
C446 C448 1.353 . S
C446 H504 0.929 . S
C447 C444 1.356 . S
C447 C449 1.358 . S
C447 H505 0.930 . S
C448 N445 1.314 . S
C448 C446 1.353 . S
C448 H506 0.930 . S
C449 N445 1.279 . S
C449 C447 1.358 . S
C449 H507 0.930 . S
C450 C453 1.348 . S
C450 C454 1.356 . S
C450 O501 1.325 . S
C451 N452 1.279 . S
C451 C454 1.358 . S
C451 H508 0.930 . S
N452 C451 1.279 . S
N452 C455 1.314 . S
C453 C450 1.348 . S
C453 C455 1.353 . S
C453 H509 0.929 . S
C454 C450 1.356 . S
C454 C451 1.358 . S
C454 H510 0.930 . S
C455 N452 1.314 . S
C455 C453 1.353 . S
C455 H511 0.930 . S
C456 N457 1.314 . S
C456 C461 1.353 . S
C456 H462 0.930 . S
N457 Li440 1.990 . S
N457 C456 1.314 . S
N457 C459 1.279 . S
C458 C459 1.358 . S
C458 C460 1.356 . S
C458 H512 0.930 . S
C459 N457 1.279 . S
C459 C458 1.358 . S
C459 H463 0.930 . S
C460 C458 1.356 . S
C460 C461 1.348 . S
C461 C456 1.353 . S
C461 C460 1.348 . S
C461 H513 0.929 . S
H462 C456 0.930 . S
H463 C459 0.930 . S
C464 N465 1.314 . S
C464 C466 1.353 . S
C464 H470 0.930 . S
N465 Li441 1.990 . S
N465 C464 1.314 . S
N465 C468 1.279 . S
C466 C464 1.353 . S
C466 C469 1.348 . S
C466 H514 0.929 . S
C467 C468 1.358 . S
C467 C469 1.356 . S
C467 H515 0.930 . S
C468 N465 1.279 . S
C468 C467 1.358 . S
C468 H471 0.930 . S
C469 C466 1.348 . S
C469 C467 1.356 . S
H470 C464 0.930 . S
H471 C468 0.930 . S
C472 C474 1.348 . S
C472 C475 1.356 . S
C472 O502 1.325 . S
N473 C476 1.314 . S
N473 C477 1.279 . S
C474 C472 1.348 . S
C474 C476 1.353 . S
C474 H516 0.929 . S
C475 C472 1.356 . S
C475 C477 1.358 . S
C475 H517 0.930 . S
C476 N473 1.314 . S
C476 C474 1.353 . S
C476 H518 0.930 . S
C477 N473 1.279 . S
C477 C475 1.358 . S
C477 H519 0.930 . S
C478 C479 1.348 . S
C478 C480 1.356 . S
C478 O503 1.325 . S
C479 C478 1.348 . S
C479 C481 1.353 . S
C479 H520 0.929 . S
C480 C478 1.356 . S
C480 C482 1.358 . S
C480 H521 0.930 . S
C481 C479 1.353 . S
C481 N483 1.314 . S
C481 H522 0.930 . S
C482 C480 1.358 . S
C482 N483 1.279 . S
C482 H523 0.930 . S
N483 C481 1.314 . S
N483 C482 1.279 . S
C484 C486 1.353 . S
C484 N487 1.314 . S
C484 H490 0.930 . S
C485 N487 1.279 . S
C485 C488 1.358 . S
C485 H491 0.930 . S
C486 C484 1.353 . S
C486 C489 1.348 . S
C486 H524 0.929 . S
N487 Li442 1.990 . S
N487 C484 1.314 . S
N487 C485 1.279 . S
C488 C485 1.358 . S
C488 C489 1.356 . S
C488 H525 0.930 . S
C489 C486 1.348 . S
C489 C488 1.356 . S
H490 C484 0.930 . S
H491 C485 0.930 . S
C492 N493 1.314 . S
C492 C494 1.353 . S
C492 H498 0.930 . S
N493 Li443 1.990 . S
N493 C492 1.314 . S
N493 C496 1.279 . S
C494 C492 1.353 . S
C494 C497 1.348 . S
C494 H526 0.929 . S
C495 C496 1.358 . S
C495 C497 1.356 . S
C495 H527 0.930 . S
C496 N493 1.279 . S
C496 C495 1.358 . S
C496 H499 0.930 . S
C497 C494 1.348 . S
C497 C495 1.356 . S
H498 C492 0.930 . S
H499 C496 0.930 . S
O500 Li440 1.956 . S
O500 Li441 1.970 . S
O500 Li442 1.961 . S
O500 C444 1.325 . S
O501 Li440 1.970 . S
O501 Li441 1.956 . S
O501 Li443 1.961 . S
O501 C450 1.325 . S
O502 Li440 1.961 . S
O502 Li442 1.956 . S
O502 Li443 1.970 . S
O502 C472 1.325 . S
O503 Li441 1.961 . S
O503 Li442 1.970 . S
O503 Li443 1.956 . S
O503 C478 1.325 . S
H504 C446 0.929 . S
H505 C447 0.930 . S
H506 C448 0.930 . S
H507 C449 0.930 . S
H508 C451 0.930 . S
H509 C453 0.929 . S
H510 C454 0.930 . S
H511 C455 0.930 . S
H512 C458 0.930 . S
H513 C461 0.929 . S
H514 C466 0.929 . S
H515 C467 0.930 . S
H516 C474 0.929 . S
H517 C475 0.930 . S
H518 C476 0.930 . S
H519 C477 0.930 . S
H520 C479 0.929 . S
H521 C480 0.930 . S
H522 C481 0.930 . S
H523 C482 0.930 . S
H524 C486 0.929 . S
H525 C488 0.930 . S
H526 C494 0.929 . S
H527 C495 0.930 . S
H528 C534 0.930 . S
H529 C538 0.930 . S
H530 C543 0.929 . S
H531 C541 0.929 . S
H532 C536 0.929 . S
H533 C542 0.929 . S
C534 H528 0.930 . S
C534 C535 1.367 . S
C534 C542 1.378 . S
C535 C534 1.367 . S
C535 C543 1.433 . S
C536 H532 0.929 . S
C536 C538 1.378 . S
C536 C540 1.350 . S
C537 C540 1.463 . S
C537 C542 1.350 . S
C537 N545 1.427 . S
C538 H529 0.930 . S
C538 C536 1.378 . S
C538 C539 1.367 . S
C539 C538 1.367 . S
C539 C541 1.433 . S
C540 C536 1.350 . S
C540 C537 1.463 . S
C540 N544 1.427 . S
C541 H531 0.929 . S
C541 C539 1.433 . S
C541 N544 1.384 . S
C542 H533 0.929 . S
C542 C534 1.378 . S
C542 C537 1.350 . S
C543 H530 0.929 . S
C543 C535 1.433 . S
C543 N545 1.384 . S
N544 C540 1.427 . S
N544 C541 1.384 . S
N545 C537 1.427 . S
N545 C543 1.384 . S
H546 C552 0.930 . S
H547 C556 0.930 . S
H548 C561 0.929 . S
H549 C559 0.929 . S
H550 C554 0.929 . S
H551 C560 0.929 . S
C552 H546 0.930 . S
C552 C553 1.367 . S
C552 C560 1.378 . S
C553 C552 1.367 . S
C553 C561 1.433 . S
C554 H550 0.929 . S
C554 C556 1.378 . S
C554 C558 1.350 . S
C555 C558 1.463 . S
C555 C560 1.350 . S
C555 N563 1.427 . S
C556 H547 0.930 . S
C556 C554 1.378 . S
C556 C557 1.367 . S
C557 C556 1.367 . S
C557 C559 1.433 . S
C558 C554 1.350 . S
C558 C555 1.463 . S
C558 N562 1.427 . S
C559 H549 0.929 . S
C559 C557 1.433 . S
C559 N562 1.384 . S
C560 H551 0.929 . S
C560 C552 1.378 . S
C560 C555 1.350 . S
C561 H548 0.929 . S
C561 C553 1.433 . S
C561 N563 1.384 . S
N562 C558 1.427 . S
N562 C559 1.384 . S
N563 C555 1.427 . S
N563 C561 1.384 . S
H564 C570 0.930 . S
H565 C574 0.930 . S
H566 C579 0.929 . S
H567 C577 0.929 . S
H568 C572 0.929 . S
H569 C578 0.929 . S
C570 H564 0.930 . S
C570 C571 1.367 . S
C570 C578 1.378 . S
C571 C570 1.367 . S
C571 C579 1.433 . S
C572 H568 0.929 . S
C572 C574 1.378 . S
C572 C576 1.350 . S
C573 C576 1.463 . S
C573 C578 1.350 . S
C573 N581 1.427 . S
C574 H565 0.930 . S
C574 C572 1.378 . S
C574 C575 1.367 . S
C575 C574 1.367 . S
C575 C577 1.433 . S
C576 C572 1.350 . S
C576 C573 1.463 . S
C576 N580 1.427 . S
C577 H567 0.929 . S
C577 C575 1.433 . S
C577 N580 1.384 . S
C578 H569 0.929 . S
C578 C570 1.378 . S
C578 C573 1.350 . S
C579 H566 0.929 . S
C579 C571 1.433 . S
C579 N581 1.384 . S
N580 C576 1.427 . S
N580 C577 1.384 . S
N581 C573 1.427 . S
N581 C579 1.384 . S
H582 C588 0.930 . S
H583 C592 0.930 . S
H584 C597 0.929 . S
H585 C595 0.929 . S
H586 C590 0.929 . S
H587 C596 0.929 . S
C588 H582 0.930 . S
C588 C589 1.367 . S
C588 C596 1.378 . S
C589 C588 1.367 . S
C589 C597 1.433 . S
C590 H586 0.929 . S
C590 C592 1.378 . S
C590 C594 1.350 . S
C591 C594 1.463 . S
C591 C596 1.350 . S
C591 N599 1.427 . S
C592 H583 0.930 . S
C592 C590 1.378 . S
C592 C593 1.367 . S
C593 C592 1.367 . S
C593 C595 1.433 . S
C594 C590 1.350 . S
C594 C591 1.463 . S
C594 N598 1.427 . S
C595 H585 0.929 . S
C595 C593 1.433 . S
C595 N598 1.384 . S
C596 H587 0.929 . S
C596 C588 1.378 . S
C596 C591 1.350 . S
C597 H584 0.929 . S
C597 C589 1.433 . S
C597 N599 1.384 . S
N598 C594 1.427 . S
N598 C595 1.384 . S
N599 C591 1.427 . S
N599 C597 1.384 . S
H600 C606 0.930 . S
H601 C610 0.930 . S
H602 C615 0.929 . S
H603 C613 0.929 . S
H604 C608 0.929 . S
H605 C614 0.929 . S
C606 H600 0.930 . S
C606 C607 1.367 . S
C606 C614 1.378 . S
C607 C606 1.367 . S
C607 C615 1.433 . S
C608 H604 0.929 . S
C608 C610 1.378 . S
C608 C612 1.350 . S
C609 C612 1.463 . S
C609 C614 1.350 . S
C609 N617 1.427 . S
C610 H601 0.930 . S
C610 C608 1.378 . S
C610 C611 1.367 . S
C611 C610 1.367 . S
C611 C613 1.433 . S
C612 C608 1.350 . S
C612 C609 1.463 . S
C612 N616 1.427 . S
C613 H603 0.929 . S
C613 C611 1.433 . S
C613 N616 1.384 . S
C614 H605 0.929 . S
C614 C606 1.378 . S
C614 C609 1.350 . S
C615 H602 0.929 . S
C615 C607 1.433 . S
C615 N617 1.384 . S
N616 C612 1.427 . S
N616 C613 1.384 . S
N617 C609 1.427 . S
N617 C615 1.384 . S
H618 C624 0.930 . S
H619 C628 0.930 . S
H620 C633 0.929 . S
H621 C631 0.929 . S
H622 C626 0.929 . S
H623 C632 0.929 . S
C624 H618 0.930 . S
C624 C625 1.367 . S
C624 C632 1.378 . S
C625 C624 1.367 . S
C625 C633 1.433 . S
C626 H622 0.929 . S
C626 C628 1.378 . S
C626 C630 1.350 . S
C627 C630 1.463 . S
C627 C632 1.350 . S
C627 N635 1.427 . S
C628 H619 0.930 . S
C628 C626 1.378 . S
C628 C629 1.367 . S
C629 C628 1.367 . S
C629 C631 1.433 . S
C630 C626 1.350 . S
C630 C627 1.463 . S
C630 N634 1.427 . S
C631 H621 0.929 . S
C631 C629 1.433 . S
C631 N634 1.384 . S
C632 H623 0.929 . S
C632 C624 1.378 . S
C632 C627 1.350 . S
C633 H620 0.929 . S
C633 C625 1.433 . S
C633 N635 1.384 . S
N634 C630 1.427 . S
N634 C631 1.384 . S
N635 C627 1.427 . S
N635 C633 1.384 . S
H636 C642 0.930 . S
H637 C646 0.930 . S
H638 C651 0.929 1_545 S
H639 C649 0.929 1_565 S
H640 C644 0.949 . S
H641 C650 0.948 . S
C642 H636 0.930 . S
C642 C643 1.367 . S
C642 C650 1.378 . S
C643 C642 1.367 . S
C643 C651 1.433 . S
C644 H640 0.949 . S
C644 C646 1.378 . S
C644 C648 1.350 . S
C645 C648 1.463 1_566 S
C645 C650 1.350 . S
C645 N653 1.427 1_565 S
C646 H637 0.930 . S
C646 C644 1.378 . S
C646 C647 1.367 . S
C647 C646 1.367 . S
C647 C649 1.433 . S
C648 C644 1.350 . S
C648 C645 1.463 1_544 S
C648 N652 1.427 1_545 S
C649 H639 0.929 1_545 S
C649 C647 1.433 . S
C649 N652 1.384 1_545 S
C650 H641 0.948 . S
C650 C642 1.378 . S
C650 C645 1.350 . S
C651 H638 0.929 1_565 S
C651 C643 1.433 . S
C651 N653 1.384 1_565 S
N652 C648 1.427 1_565 S
N652 C649 1.384 1_565 S
N653 C645 1.427 1_545 S
N653 C651 1.384 1_545 S
H654 C660 0.930 . S
H655 C664 0.930 . S
H656 C669 0.929 . S
H657 C667 0.929 . S
H658 C662 0.929 . S
H659 C668 0.929 . S
C660 H654 0.930 . S
C660 C661 1.367 . S
C660 C668 1.378 . S
C661 C660 1.367 . S
C661 C669 1.433 . S
C662 H658 0.929 . S
C662 C664 1.378 . S
C662 C666 1.350 . S
C663 C666 1.463 . S
C663 C668 1.350 . S
C663 N671 1.427 . S
C664 H655 0.930 . S
C664 C662 1.378 . S
C664 C665 1.367 . S
C665 C664 1.367 . S
C665 C667 1.433 . S
C666 C662 1.350 . S
C666 C663 1.463 . S
C666 N670 1.427 . S
C667 H657 0.929 . S
C667 C665 1.433 . S
C667 N670 1.384 . S
C668 H659 0.929 . S
C668 C660 1.378 . S
C668 C663 1.350 . S
C669 H656 0.929 . S
C669 C661 1.433 . S
C669 N671 1.384 . S
N670 C666 1.427 . S
N670 C667 1.384 . S
N671 C663 1.427 . S
N671 C669 1.384 . S
H672 C678 0.930 . S
H673 C682 0.930 . S
H674 C687 0.929 . S
H675 C685 0.929 . S
H676 C680 0.929 . S
H677 C686 0.929 . S
C678 H672 0.930 . S
C678 C679 1.367 . S
C678 C686 1.378 . S
C679 C678 1.367 . S
C679 C687 1.433 . S
C680 H676 0.929 . S
C680 C682 1.378 . S
C680 C684 1.350 . S
C681 C684 1.463 1_456 S
C681 C686 1.350 . S
C681 N689 1.425 1_455 S
C682 H673 0.930 . S
C682 C680 1.378 . S
C682 C683 1.367 . S
C683 C682 1.367 . S
C683 C685 1.433 . S
C684 C680 1.350 . S
C684 C681 1.463 1_654 S
C684 N688 1.432 . S
C685 H675 0.929 . S
C685 C683 1.433 . S
C685 N688 1.386 . S
C686 H677 0.929 . S
C686 C678 1.378 . S
C686 C681 1.350 . S
C687 H674 0.929 . S
C687 C679 1.433 . S
C687 N689 1.382 1_455 S
N688 C684 1.432 . S
N688 C685 1.386 . S
N689 C681 1.425 1_655 S
N689 C687 1.382 1_655 S
H690 C696 0.930 1_565 S
H691 C700 0.930 1_545 S
H692 C705 0.929 . S
H693 C703 0.929 . S
H694 C698 0.929 . S
H695 C704 0.929 . S
C696 H690 0.930 1_545 S
C696 C697 1.367 . S
C696 C704 1.378 1_545 S
C697 C696 1.367 . S
C697 C705 1.433 . S
C698 H694 0.929 . S
C698 C700 1.378 1_545 S
C698 C702 1.350 1_545 S
C699 C702 1.463 1_545 S
C699 C704 1.350 1_545 S
C699 N707 1.427 . S
C700 H691 0.930 1_565 S
C700 C698 1.378 1_565 S
C700 C701 1.367 . S
C701 C700 1.367 . S
C701 C703 1.433 . S
C702 C698 1.350 1_565 S
C702 C699 1.463 1_565 S
C702 N706 1.427 . S
C703 H693 0.929 . S
C703 C701 1.433 . S
C703 N706 1.384 . S
C704 H695 0.929 . S
C704 C696 1.378 1_565 S
C704 C699 1.350 1_565 S
C705 H692 0.929 . S
C705 C697 1.433 . S
C705 N707 1.384 . S
N706 C702 1.427 . S
N706 C703 1.384 . S
N707 C699 1.427 . S
N707 C705 1.384 . S
H708 C714 0.930 . S
H709 C718 0.930 . S
H710 C723 0.929 . S
H711 C721 0.929 . S
H712 C716 0.929 . S
H713 C722 0.929 . S
C714 H708 0.930 . S
C714 C715 1.367 . S
C714 C722 1.378 . S
C715 C714 1.367 . S
C715 C723 1.433 . S
C716 H712 0.929 . S
C716 C718 1.378 . S
C716 C720 1.350 . S
C717 C720 1.463 1_556 S
C717 C722 1.350 . S
C717 N725 1.427 . S
C718 H709 0.930 . S
C718 C716 1.378 . S
C718 C719 1.367 . S
C719 C718 1.367 . S
C719 C721 1.433 . S
C720 C716 1.350 . S
C720 C717 1.463 1_554 S
C720 N724 1.427 . S
C721 H711 0.929 . S
C721 C719 1.433 . S
C721 N724 1.384 . S
C722 H713 0.929 . S
C722 C714 1.378 . S
C722 C717 1.350 . S
C723 H710 0.929 . S
C723 C715 1.433 . S
C723 N725 1.384 . S
N724 C720 1.427 . S
N724 C721 1.384 . S
N725 C717 1.427 . S
N725 C723 1.384 . S
H726 C732 0.930 . S
H727 C736 0.930 . S
H728 C741 0.929 . S
H729 C739 0.929 . S
H730 C734 0.901 1_455 S
H731 C740 0.880 1_655 S
C732 H726 0.930 . S
C732 C733 1.367 . S
C732 C740 1.399 . S
C733 C732 1.367 . S
C733 C741 1.433 . S
C734 H730 0.901 1_655 S
C734 C736 1.390 . S
C734 C738 1.367 . S
C735 C738 1.463 1_455 S
C735 C740 1.380 . S
C735 N743 1.427 . S
C736 H727 0.930 . S
C736 C734 1.390 . S
C736 C737 1.367 . S
C737 C736 1.367 . S
C737 C739 1.433 . S
C738 C734 1.367 . S
C738 C735 1.463 1_655 S
C738 N742 1.427 . S
C739 H729 0.929 . S
C739 C737 1.433 . S
C739 N742 1.384 . S
C740 H731 0.880 1_455 S
C740 C732 1.399 . S
C740 C735 1.380 . S
C741 H728 0.929 . S
C741 C733 1.433 . S
C741 N743 1.384 . S
N742 C738 1.427 . S
N742 C739 1.384 . S
N743 C735 1.427 . S
N743 C741 1.384 . S
C535 C20 0.855 . S
C539 C381 0.876 . S
C553 C137 0.878 . S
C557 C469 0.860 . S
C571 C29 0.867 . S
C575 C233 0.863 . S
C589 C313 0.873 . S
C593 C117 0.858 . S
C607 C401 0.860 . S
C611 C196 0.878 . S
C625 C321 0.860 . S
C629 C489 0.870 . S
C643 C293 1.260 . S
C647 C49 1.259 . S
C661 C372 1.267 . S
C665 C145 1.267 . S
C679 C460 1.268 . S
C683 C225 1.268 . S
C697 C57 1.265 . S
C701 C284 1.265 . S
C715 C108 1.274 . S
C719 C409 1.273 . S
C733 C497 1.272 . S
C737 C205 1.271 . S
