# Generated by pormake.
# Topology gsi, (4)-cn, num edge types: 1
# Building blocks:
#     Node 0, Type 0, BuildingBlock: TATPOV_clean_sbu_0, # of connection points: 4
#     Node 1, Type 0, BuildingBlock: TATPOV_clean_sbu_0, # of connection points: 4
#     Node 2, Type 0, BuildingBlock: TATPOV_clean_sbu_0, # of connection points: 4
#     Node 3, Type 0, BuildingBlock: TATPOV_clean_sbu_0, # of connection points: 4
#     Node 4, Type 0, BuildingBlock: TATPOV_clean_sbu_0, # of connection points: 4
#     Node 5, Type 0, BuildingBlock: TATPOV_clean_sbu_0, # of connection points: 4
#     Node 6, Type 0, BuildingBlock: TATPOV_clean_sbu_0, # of connection points: 4
#     Node 7, Type 0, BuildingBlock: TATPOV_clean_sbu_0, # of connection points: 4
#     Node 8, Type 0, BuildingBlock: TATPOV_clean_sbu_0, # of connection points: 4
#     Node 9, Type 0, BuildingBlock: TATPOV_clean_sbu_0, # of connection points: 4
#     Node 10, Type 0, BuildingBlock: TATPOV_clean_sbu_0, # of connection points: 4
#     Node 11, Type 0, BuildingBlock: TATPOV_clean_sbu_0, # of connection points: 4
#     Node 12, Type 0, BuildingBlock: TATPOV_clean_sbu_0, # of connection points: 4
#     Node 13, Type 0, BuildingBlock: TATPOV_clean_sbu_0, # of connection points: 4
#     Node 14, Type 0, BuildingBlock: TATPOV_clean_sbu_0, # of connection points: 4
#     Node 15, Type 0, BuildingBlock: TATPOV_clean_sbu_0, # of connection points: 4
#     Edge 16, Type (0, 0), BuildingBlock: UVAHIK_clean_linker_0, # of connection points: 2
#     Edge 17, Type (0, 0), BuildingBlock: UVAHIK_clean_linker_0, # of connection points: 2
#     Edge 18, Type (0, 0), BuildingBlock: UVAHIK_clean_linker_0, # of connection points: 2
#     Edge 19, Type (0, 0), BuildingBlock: UVAHIK_clean_linker_0, # of connection points: 2
#     Edge 20, Type (0, 0), BuildingBlock: UVAHIK_clean_linker_0, # of connection points: 2
#     Edge 21, Type (0, 0), BuildingBlock: UVAHIK_clean_linker_0, # of connection points: 2
#     Edge 22, Type (0, 0), BuildingBlock: UVAHIK_clean_linker_0, # of connection points: 2
#     Edge 23, Type (0, 0), BuildingBlock: UVAHIK_clean_linker_0, # of connection points: 2
#     Edge 24, Type (0, 0), BuildingBlock: UVAHIK_clean_linker_0, # of connection points: 2
#     Edge 25, Type (0, 0), BuildingBlock: UVAHIK_clean_linker_0, # of connection points: 2
#     Edge 26, Type (0, 0), BuildingBlock: UVAHIK_clean_linker_0, # of connection points: 2
#     Edge 27, Type (0, 0), BuildingBlock: UVAHIK_clean_linker_0, # of connection points: 2
#     Edge 28, Type (0, 0), BuildingBlock: UVAHIK_clean_linker_0, # of connection points: 2
#     Edge 29, Type (0, 0), BuildingBlock: UVAHIK_clean_linker_0, # of connection points: 2
#     Edge 30, Type (0, 0), BuildingBlock: UVAHIK_clean_linker_0, # of connection points: 2
#     Edge 31, Type (0, 0), BuildingBlock: UVAHIK_clean_linker_0, # of connection points: 2
#     Edge 32, Type (0, 0), BuildingBlock: UVAHIK_clean_linker_0, # of connection points: 2
#     Edge 33, Type (0, 0), BuildingBlock: UVAHIK_clean_linker_0, # of connection points: 2
#     Edge 34, Type (0, 0), BuildingBlock: UVAHIK_clean_linker_0, # of connection points: 2
#     Edge 35, Type (0, 0), BuildingBlock: UVAHIK_clean_linker_0, # of connection points: 2
#     Edge 36, Type (0, 0), BuildingBlock: UVAHIK_clean_linker_0, # of connection points: 2
#     Edge 37, Type (0, 0), BuildingBlock: UVAHIK_clean_linker_0, # of connection points: 2
#     Edge 38, Type (0, 0), BuildingBlock: UVAHIK_clean_linker_0, # of connection points: 2
#     Edge 39, Type (0, 0), BuildingBlock: UVAHIK_clean_linker_0, # of connection points: 2
#     Edge 40, Type (0, 0), BuildingBlock: UVAHIK_clean_linker_0, # of connection points: 2
#     Edge 41, Type (0, 0), BuildingBlock: UVAHIK_clean_linker_0, # of connection points: 2
#     Edge 42, Type (0, 0), BuildingBlock: UVAHIK_clean_linker_0, # of connection points: 2
#     Edge 43, Type (0, 0), BuildingBlock: UVAHIK_clean_linker_0, # of connection points: 2
#     Edge 44, Type (0, 0), BuildingBlock: UVAHIK_clean_linker_0, # of connection points: 2
#     Edge 45, Type (0, 0), BuildingBlock: UVAHIK_clean_linker_0, # of connection points: 2
#     Edge 46, Type (0, 0), BuildingBlock: UVAHIK_clean_linker_0, # of connection points: 2
#     Edge 47, Type (0, 0), BuildingBlock: UVAHIK_clean_linker_0, # of connection points: 2
# Relax obj value: 0.045
# Max RMSD: 0.070
# Mean RMSD: 0.054
data_MOF--net-gsi--node1-TATPOV_clean_sbu_0--edge1-UVAHIK_clean_linker_0
_symmetry_space_group_name_H-M    P1
_symmetry_Int_Tables_number       1
_symmetry_cell_setting            triclinic
loop_
_symmetry_equiv_pos_as_xyz
'x, y, z'
_cell_length_a     53.86666
_cell_length_b     53.927651
_cell_length_c     55.726584
_cell_angle_alpha  90.885186
_cell_angle_beta   90.473016
_cell_angle_gamma 92.461507
loop_
_atom_site_label
_atom_site_type_symbol
_atom_site_fract_x
_atom_site_fract_y
_atom_site_fract_z
_atom_type_partial_charge
Zn0 Zn 0.10059 0.14669 0.17852 0.0
Zn1 Zn 0.13644 0.14005 0.14519 0.0
O2 O 0.13015 0.10495 0.15917 0.0
O3 O 0.10033 0.11027 0.1854 0.0
O4 O 0.1618 0.13579 0.11881 0.0
O5 O 0.07764 0.15888 0.15306 0.0
O6 O 0.10778 0.15586 0.12677 0.0
C7 C 0.11521 0.09624 0.17493 0.0
C8 C 0.14689 0.17429 0.18889 0.0
O9 O 0.15366 0.16386 0.1695 0.0
O10 O 0.12498 0.1704 0.19654 0.0
C11 C 0.18504 0.14083 0.12095 0.0
O12 O 0.19418 0.14831 0.14188 0.0
C13 C 0.08576 0.16164 0.132 0.0
Zn14 Zn 0.92329 0.35565 0.18264 0.0
Zn15 Zn 0.88835 0.36794 0.15009 0.0
O16 O 0.90034 0.40221 0.16431 0.0
O17 O 0.92866 0.39187 0.19069 0.0
O18 O 0.86151 0.37492 0.12564 0.0
O19 O 0.94301 0.34054 0.15616 0.0
O20 O 0.91327 0.34812 0.13021 0.0
C21 C 0.91642 0.40835 0.18054 0.0
C22 C 0.87477 0.33522 0.19342 0.0
O23 O 0.86929 0.34718 0.17473 0.0
O24 O 0.89712 0.33512 0.20068 0.0
C25 C 0.84646 0.35706 0.11945 0.0
O26 O 0.84912 0.33517 0.12894 0.0
C27 C 0.93417 0.33906 0.13505 0.0
Zn28 Zn 0.21382 0.87766 0.35523 0.0
Zn29 Zn 0.16892 0.85687 0.36229 0.0
O30 O 0.18292 0.86404 0.39685 0.0
O31 O 0.21846 0.88447 0.39041 0.0
O32 O 0.13433 0.84143 0.36731 0.0
O33 O 0.19971 0.90292 0.33369 0.0
O34 O 0.16222 0.88699 0.34071 0.0
C35 C 0.20253 0.87562 0.40486 0.0
C36 C 0.2091 0.82795 0.33659 0.0
O37 O 0.18679 0.82964 0.34371 0.0
O38 O 0.2248 0.84577 0.34032 0.0
C39 C 0.13095 0.81889 0.3734 0.0
O40 O 0.1504 0.80556 0.37725 0.0
C41 C 0.17646 0.90293 0.33029 0.0
Zn42 Zn 0.81529 0.62044 0.35304 0.0
Zn43 Zn 0.85398 0.65198 0.36204 0.0
O44 O 0.83791 0.64686 0.39561 0.0
O45 O 0.80551 0.62167 0.38767 0.0
O46 O 0.88551 0.67311 0.36871 0.0
O47 O 0.83692 0.59379 0.34117 0.0
O48 O 0.86802 0.62154 0.34418 0.0
C49 C 0.81863 0.63448 0.40263 0.0
C50 C 0.81362 0.66663 0.32722 0.0
O51 O 0.83304 0.67268 0.33952 0.0
O52 O 0.80308 0.64531 0.32925 0.0
C53 C 0.88717 0.69668 0.36761 0.0
O54 O 0.8672 0.70884 0.36263 0.0
C55 C 0.85948 0.60001 0.33772 0.0
Zn56 Zn 0.40924 0.84269 0.68835 0.0
Zn57 Zn 0.3793 0.86027 0.65399 0.0
O58 O 0.3939 0.89276 0.66961 0.0
O59 O 0.42047 0.87824 0.69564 0.0
O60 O 0.35488 0.87013 0.62826 0.0
O61 O 0.42591 0.82235 0.66321 0.0
O62 O 0.40397 0.83944 0.63477 0.0
C63 C 0.4105 0.89648 0.68591 0.0
C64 C 0.35876 0.82915 0.69663 0.0
O65 O 0.35637 0.84074 0.67705 0.0
O66 O 0.38006 0.8274 0.70603 0.0
C67 C 0.33936 0.85313 0.62095 0.0
O68 O 0.34042 0.83089 0.6301 0.0
C69 C 0.42071 0.8249 0.64124 0.0
Zn70 Zn 0.89222 0.84801 0.83665 0.0
Zn71 Zn 0.86124 0.8547 0.87242 0.0
O72 O 0.89117 0.83745 0.88825 0.0
O73 O 0.91667 0.83252 0.858 0.0
O74 O 0.8373 0.85856 0.90015 0.0
O75 O 0.8957 0.88418 0.8311 0.0
O76 O 0.86748 0.8905 0.85868 0.0
C77 C 0.91165 0.83005 0.87997 0.0
C78 C 0.84509 0.82313 0.82813 0.0
O79 O 0.84081 0.83184 0.84901 0.0
O80 O 0.86592 0.82756 0.81839 0.0
C81 C 0.82959 0.83871 0.91029 0.0
O82 O 0.8378 0.81744 0.90258 0.0
C83 C 0.88219 0.89883 0.84248 0.0
Zn84 Zn 0.10605 0.6671 0.80107 0.0
Zn85 Zn 0.13583 0.65442 0.83773 0.0
O86 O 0.10487 0.66719 0.85494 0.0
O87 O 0.07949 0.6748 0.82502 0.0
O88 O 0.15844 0.64527 0.86521 0.0
O89 O 0.10834 0.63267 0.78701 0.0
O90 O 0.13097 0.6218 0.81792 0.0
C91 C 0.08389 0.67407 0.84735 0.0
C92 C 0.15224 0.69524 0.80221 0.0
O93 O 0.15633 0.68117 0.81984 0.0
O94 O 0.1315 0.69363 0.79132 0.0
C95 C 0.174 0.66105 0.87464 0.0
O96 O 0.17527 0.68379 0.86651 0.0
C97 C 0.12017 0.6164 0.79793 0.0
Zn98 Zn 0.78174 0.0963 0.65134 0.0
Zn99 Zn 0.82339 0.12454 0.64352 0.0
O100 O 0.83542 0.09565 0.66406 0.0
O101 O 0.80205 0.07089 0.66765 0.0
O102 O 0.85482 0.14541 0.63683 0.0
O103 O 0.77451 0.09419 0.61598 0.0
O104 O 0.80847 0.11718 0.60952 0.0
C105 C 0.82486 0.0758 0.67194 0.0
C106 C 0.78131 0.14493 0.67368 0.0
O107 O 0.80242 0.1476 0.66369 0.0
O108 O 0.76864 0.12469 0.67123 0.0
C109 C 0.8638 0.16044 0.6528 0.0
O110 O 0.85281 0.16167 0.67372 0.0
C111 C 0.78904 0.10527 0.60155 0.0
Zn112 Zn 0.12251 0.32157 0.69465 0.0
Zn113 Zn 0.13818 0.33325 0.65193 0.0
O114 O 0.10332 0.31568 0.64494 0.0
O115 O 0.08888 0.31165 0.6816 0.0
O116 O 0.15262 0.34091 0.61917 0.0
O117 O 0.12979 0.35646 0.7064 0.0
O118 O 0.13717 0.36763 0.6692 0.0
C119 C 0.08571 0.30941 0.65914 0.0
C120 C 0.16566 0.2967 0.68384 0.0
O121 O 0.16506 0.31098 0.66587 0.0
O122 O 0.14803 0.29603 0.69867 0.0
C123 C 0.15765 0.32275 0.60546 0.0
O124 O 0.15187 0.3001 0.6125 0.0
C125 C 0.13473 0.37328 0.69137 0.0
Zn126 Zn 0.61941 0.18313 0.30015 0.0
Zn127 Zn 0.64617 0.16454 0.33606 0.0
O128 O 0.61626 0.17962 0.35344 0.0
O129 O 0.59651 0.19791 0.32427 0.0
O130 O 0.66667 0.15192 0.36345 0.0
O131 O 0.6135 0.14826 0.28671 0.0
O132 O 0.63837 0.13387 0.31433 0.0
C133 C 0.59883 0.19304 0.3463 0.0
C134 C 0.66938 0.20345 0.30213 0.0
O135 O 0.67055 0.18978 0.32052 0.0
O136 O 0.64951 0.20361 0.28984 0.0
C137 C 0.67188 0.16702 0.3807 0.0
O138 O 0.66367 0.18959 0.37983 0.0
C139 C 0.62479 0.13039 0.29561 0.0
Zn140 Zn 0.60771 0.65914 0.68551 0.0
Zn141 Zn 0.64059 0.6476 0.65162 0.0
O142 O 0.63181 0.61332 0.66644 0.0
O143 O 0.60658 0.62351 0.69555 0.0
O144 O 0.66568 0.64097 0.62558 0.0
O145 O 0.58399 0.66989 0.66028 0.0
O146 O 0.61252 0.66431 0.63284 0.0
C147 C 0.61833 0.6072 0.68433 0.0
C148 C 0.65494 0.68381 0.6934 0.0
O149 O 0.66044 0.67043 0.67534 0.0
O150 O 0.63281 0.68364 0.70091 0.0
C151 C 0.6797 0.65897 0.6185 0.0
O152 O 0.67746 0.68104 0.62837 0.0
C153 C 0.59104 0.67124 0.63873 0.0
Zn154 Zn 0.71045 0.38348 0.85983 0.0
Zn155 Zn 0.66596 0.36107 0.8666 0.0
O156 O 0.68028 0.36679 0.90132 0.0
O157 O 0.71601 0.38706 0.89521 0.0
O158 O 0.63177 0.34455 0.87122 0.0
O159 O 0.69517 0.41073 0.84175 0.0
O160 O 0.65841 0.39203 0.84639 0.0
C161 C 0.7002 0.37769 0.90948 0.0
C162 C 0.70608 0.33477 0.8383 0.0
O163 O 0.6842 0.33517 0.84679 0.0
O164 O 0.72122 0.35312 0.84175 0.0
C165 C 0.62911 0.32181 0.87681 0.0
O166 O 0.64902 0.30907 0.88046 0.0
C167 C 0.67196 0.40978 0.83796 0.0
Zn168 Zn 0.32105 0.11328 0.85166 0.0
Zn169 Zn 0.3583 0.1449 0.86055 0.0
O170 O 0.33977 0.14211 0.89358 0.0
O171 O 0.30807 0.11643 0.88474 0.0
O172 O 0.38905 0.16698 0.86773 0.0
O173 O 0.34286 0.08567 0.84277 0.0
O174 O 0.37389 0.11344 0.84596 0.0
C175 C 0.31982 0.13029 0.89983 0.0
C176 C 0.31997 0.15657 0.82218 0.0
O177 O 0.33916 0.16347 0.83452 0.0
O178 O 0.30912 0.13572 0.82597 0.0
C179 C 0.3899 0.19053 0.86629 0.0
O180 O 0.36959 0.20184 0.86058 0.0
C181 C 0.36566 0.09155 0.84037 0.0
Zn182 Zn 0.38528 0.33307 0.33092 0.0
Zn183 Zn 0.35523 0.34511 0.36617 0.0
O184 O 0.38513 0.32909 0.38343 0.0
O185 O 0.4103 0.32072 0.35364 0.0
O186 O 0.33165 0.3517 0.39366 0.0
O187 O 0.38811 0.36841 0.32116 0.0
O188 O 0.36249 0.37929 0.34972 0.0
C189 C 0.4055 0.32079 0.37579 0.0
C190 C 0.33773 0.30892 0.32523 0.0
O191 O 0.33374 0.32129 0.34439 0.0
O192 O 0.359 0.31017 0.31575 0.0
C193 C 0.322 0.3325 0.40352 0.0
O194 O 0.32822 0.31054 0.39566 0.0
C195 C 0.37625 0.38497 0.33186 0.0
Zn196 Zn 0.28387 0.59389 0.14367 0.0
Zn197 Zn 0.32715 0.62109 0.13935 0.0
O198 O 0.33703 0.5899 0.15781 0.0
O199 O 0.30233 0.56682 0.1596 0.0
O200 O 0.3593 0.64167 0.135 0.0
O201 O 0.27877 0.5938 0.10788 0.0
O202 O 0.31328 0.61686 0.10462 0.0
C203 C 0.32524 0.5702 0.16445 0.0
C204 C 0.28471 0.64116 0.16911 0.0
O205 O 0.30656 0.64337 0.16059 0.0
O206 O 0.2711 0.62193 0.16434 0.0
C207 C 0.37788 0.64037 0.14911 0.0
O208 O 0.37654 0.62488 0.16706 0.0
C209 C 0.29423 0.60573 0.09498 0.0
Zn210 Zn 0.61404 0.84621 0.19512 0.0
Zn211 Zn 0.63345 0.84538 0.15125 0.0
O212 O 0.60002 0.8247 0.14614 0.0
O213 O 0.58488 0.82542 0.18277 0.0
O214 O 0.6501 0.84679 0.11865 0.0
O215 O 0.61236 0.88297 0.19552 0.0
O216 O 0.63109 0.88292 0.16045 0.0
C217 C 0.58294 0.81857 0.16099 0.0
C218 C 0.66099 0.82356 0.19413 0.0
O219 O 0.65887 0.82724 0.17168 0.0
O220 O 0.64448 0.83063 0.20842 0.0
C221 C 0.65983 0.82785 0.10938 0.0
O222 O 0.65775 0.8066 0.12057 0.0
C223 C 0.6219 0.8946 0.17815 0.0
C224 C 0.15822 0.20104 0.22494 0.0
C225 C 0.16497 0.19018 0.20297 0.0
C226 C 0.17572 0.21501 0.23873 0.0
C227 C 0.23689 0.24865 0.23485 0.0
H228 H 0.23988 0.23864 0.30358 0.0
C229 C 0.3216 0.28195 0.2912 0.0
C230 C 0.31728 0.29426 0.31309 0.0
C231 C 0.30212 0.2697 0.27861 0.0
C232 C 0.23908 0.24183 0.28445 0.0
H233 H 0.19537 0.18582 0.17813 0.0
H234 H 0.22582 0.20986 0.20224 0.0
H235 H 0.20719 0.21711 0.2796 0.0
H236 H 0.28914 0.30267 0.3393 0.0
H237 H 0.25501 0.28112 0.31719 0.0
H238 H 0.26895 0.27305 0.23961 0.0
C239 C 0.20695 0.20787 0.20871 0.0
C240 C 0.22035 0.22956 0.27072 0.0
C241 C 0.18949 0.19393 0.19493 0.0
C242 C 0.29309 0.29339 0.32247 0.0
C243 C 0.27356 0.281 0.30986 0.0
C244 C 0.25561 0.26083 0.24854 0.0
C245 C 0.20032 0.21846 0.23083 0.0
C246 C 0.21923 0.2326 0.24571 0.0
C247 C 0.27784 0.26938 0.2876 0.0
C248 C 0.25712 0.25731 0.27343 0.0
H249 H 0.13948 0.19856 0.23164 0.0
H250 H 0.16995 0.22319 0.25555 0.0
H251 H 0.23626 0.25181 0.21571 0.0
H252 H 0.34 0.2821 0.2835 0.0
H253 H 0.30608 0.26051 0.26174 0.0
C254 C 0.86025 0.30864 0.22763 0.0
C255 C 0.85483 0.32195 0.20685 0.0
C256 C 0.84118 0.29667 0.24051 0.0
C257 C 0.77356 0.29736 0.25023 0.0
H258 H 0.78002 0.22978 0.27146 0.0
C259 C 0.68936 0.23478 0.27505 0.0
C260 C 0.69131 0.21875 0.29455 0.0
C261 C 0.7101 0.24853 0.26706 0.0
C262 C 0.77809 0.2488 0.26601 0.0
H263 H 0.82512 0.33285 0.18319 0.0
H264 H 0.79203 0.31189 0.20551 0.0
H265 H 0.81508 0.25142 0.25214 0.0
H266 H 0.71657 0.20488 0.32123 0.0
H267 H 0.75294 0.22905 0.30721 0.0
H268 H 0.73651 0.29467 0.26371 0.0
C269 C 0.81096 0.311 0.21205 0.0
C270 C 0.79815 0.26117 0.25492 0.0
C271 C 0.82997 0.32287 0.19916 0.0
C272 C 0.71446 0.21704 0.30613 0.0
C273 C 0.7353 0.23078 0.29804 0.0
C274 C 0.75357 0.28503 0.26132 0.0
C275 C 0.81632 0.29788 0.23293 0.0
C276 C 0.7959 0.28541 0.24649 0.0
C277 C 0.73333 0.24658 0.27835 0.0
C278 C 0.75543 0.26045 0.26889 0.0
H279 H 0.87921 0.30759 0.23404 0.0
H280 H 0.84585 0.28681 0.2566 0.0
H281 H 0.77145 0.31623 0.24439 0.0
H282 H 0.67184 0.23656 0.26569 0.0
H283 H 0.70803 0.26024 0.25162 0.0
C284 C 0.29145 0.68054 0.19311 0.0
C285 C 0.27559 0.66054 0.1855 0.0
C286 C 0.28329 0.69812 0.20957 0.0
C287 C 0.23615 0.70715 0.25634 0.0
H288 H 0.25609 0.77657 0.24929 0.0
C289 C 0.19881 0.78754 0.31491 0.0
C290 C 0.21643 0.80622 0.32219 0.0
C291 C 0.20543 0.76865 0.29899 0.0
C292 C 0.25056 0.75721 0.25162 0.0
H293 H 0.23853 0.64358 0.1889 0.0
H294 H 0.22418 0.67454 0.21731 0.0
H295 H 0.26826 0.74639 0.21916 0.0
H296 H 0.25511 0.81892 0.31944 0.0
H297 H 0.26653 0.78603 0.29192 0.0
H298 H 0.21828 0.71818 0.28881 0.0
C299 C 0.24307 0.67637 0.21087 0.0
C300 C 0.25755 0.73991 0.23436 0.0
C301 C 0.25126 0.65873 0.19445 0.0
C302 C 0.24099 0.80499 0.31404 0.0
C303 C 0.24753 0.78623 0.29814 0.0
C304 C 0.22905 0.72452 0.27358 0.0
C305 C 0.25905 0.69618 0.21873 0.0
C306 C 0.25065 0.71464 0.23663 0.0
C307 C 0.22972 0.76819 0.29002 0.0
C308 C 0.23643 0.74968 0.27151 0.0
H309 H 0.31035 0.68243 0.18669 0.0
H310 H 0.2962 0.71295 0.21551 0.0
H311 H 0.23077 0.68777 0.25876 0.0
H312 H 0.17975 0.78794 0.32088 0.0
H313 H 0.19131 0.75498 0.29299 0.0
C314 C 0.8037 0.7097 0.31533 0.0
C315 C 0.80325 0.68415 0.31019 0.0
C316 C 0.79191 0.72581 0.29989 0.0
C317 C 0.74401 0.72425 0.251 0.0
H318 H 0.76354 0.79408 0.24688 0.0
C319 C 0.69355 0.79206 0.18998 0.0
C320 C 0.68226 0.81041 0.20373 0.0
C321 C 0.7118 0.77775 0.20023 0.0
C322 C 0.75808 0.77455 0.24777 0.0
H323 H 0.79177 0.6555 0.28428 0.0
H324 H 0.77268 0.68355 0.25665 0.0
H325 H 0.7895 0.76645 0.26952 0.0
H326 H 0.68215 0.82928 0.23838 0.0
H327 H 0.71461 0.80478 0.25599 0.0
H328 H 0.71284 0.73248 0.22884 0.0
C329 C 0.78084 0.69124 0.2731 0.0
C330 C 0.77275 0.75872 0.26092 0.0
C331 C 0.79197 0.67512 0.28884 0.0
C332 C 0.69046 0.81513 0.22744 0.0
C333 C 0.7091 0.80127 0.23746 0.0
C334 C 0.72974 0.73994 0.23742 0.0
C335 C 0.78001 0.71674 0.27868 0.0
C336 C 0.76567 0.7334 0.26311 0.0
C337 C 0.71948 0.7821 0.22413 0.0
C338 C 0.73642 0.76525 0.23604 0.0
H339 H 0.81226 0.71707 0.33175 0.0
H340 H 0.79145 0.7452 0.30509 0.0
H341 H 0.73744 0.7051 0.25263 0.0
H342 H 0.68751 0.78803 0.17168 0.0
H343 H 0.71958 0.76297 0.18969 0.0
C344 C 0.31287 0.8194 0.69817 0.0
C345 C 0.33668 0.81763 0.70836 0.0
C346 C 0.2921 0.80824 0.70915 0.0
C347 C 0.27004 0.78285 0.7669 0.0
H348 H 0.22141 0.74653 0.72674 0.0
C349 C 0.19592 0.71329 0.80423 0.0
C350 C 0.17216 0.71255 0.79355 0.0
C351 C 0.21521 0.72819 0.79477 0.0
C352 C 0.23462 0.7569 0.73819 0.0
H353 H 0.35729 0.80285 0.73816 0.0
H354 H 0.32114 0.78315 0.75708 0.0
H355 H 0.25654 0.76853 0.70826 0.0
H356 H 0.1498 0.72765 0.76513 0.0
H357 H 0.18338 0.75375 0.74884 0.0
H358 H 0.24823 0.77087 0.79686 0.0
C359 C 0.31847 0.79346 0.7408 0.0
C360 C 0.25476 0.76951 0.72759 0.0
C361 C 0.33922 0.80462 0.72985 0.0
C362 C 0.16792 0.72763 0.7737 0.0
C363 C 0.18719 0.7425 0.76426 0.0
C364 C 0.24989 0.7702 0.77751 0.0
C365 C 0.29469 0.79506 0.73054 0.0
C366 C 0.27278 0.7825 0.74182 0.0
C367 C 0.21115 0.74265 0.77445 0.0
C368 C 0.23203 0.75697 0.76327 0.0
H369 H 0.31024 0.82937 0.68167 0.0
H370 H 0.27399 0.81006 0.70094 0.0
H371 H 0.28342 0.793 0.77833 0.0
H372 H 0.19982 0.7019 0.81953 0.0
H373 H 0.23352 0.72773 0.80291 0.0
C374 C 0.66856 0.71941 0.72036 0.0
C375 C 0.67456 0.69873 0.70631 0.0
C376 C 0.68702 0.73296 0.7333 0.0
C377 C 0.756 0.74219 0.73896 0.0
H378 H 0.73894 0.77288 0.79961 0.0
C379 C 0.80643 0.79553 0.82679 0.0
C380 C 0.82557 0.80854 0.81475 0.0
C381 C 0.78815 0.78166 0.81384 0.0
C382 C 0.7442 0.76414 0.7829 0.0
H383 H 0.70449 0.6758 0.69492 0.0
H384 H 0.73648 0.69853 0.71833 0.0
H385 H 0.70736 0.749 0.77693 0.0
H386 H 0.84026 0.81789 0.77978 0.0
H387 H 0.80788 0.79495 0.75723 0.0
H388 H 0.79315 0.75597 0.7456 0.0
C389 C 0.71775 0.70502 0.71877 0.0
C390 C 0.72588 0.75079 0.76959 0.0
C391 C 0.69937 0.69184 0.70541 0.0
C392 C 0.8259 0.80775 0.78957 0.0
C393 C 0.80737 0.7944 0.77663 0.0
C394 C 0.77441 0.75508 0.7525 0.0
C395 C 0.71186 0.72579 0.73293 0.0
C396 C 0.73146 0.73978 0.74732 0.0
C397 C 0.78832 0.78097 0.78855 0.0
C398 C 0.76876 0.76647 0.77456 0.0
H399 H 0.64959 0.72525 0.72122 0.0
H400 H 0.68176 0.74914 0.74346 0.0
H401 H 0.76107 0.73435 0.72178 0.0
H402 H 0.80583 0.79573 0.84622 0.0
H403 H 0.77409 0.77126 0.82373 0.0
C404 C 0.6969 0.29333 0.81821 0.0
C405 C 0.71359 0.31352 0.82332 0.0
C406 C 0.7037 0.27412 0.80278 0.0
C407 C 0.75851 0.24616 0.77519 0.0
H408 H 0.71095 0.22142 0.72698 0.0
C409 C 0.78745 0.18607 0.69487 0.0
C410 C 0.77221 0.16489 0.6894 0.0
C411 C 0.77964 0.20396 0.7112 0.0
C412 C 0.72435 0.22799 0.74049 0.0
H413 H 0.75067 0.3291 0.81654 0.0
H414 H 0.76232 0.29591 0.78956 0.0
H415 H 0.69863 0.25229 0.75658 0.0
H416 H 0.73649 0.14628 0.69628 0.0
H417 H 0.7229 0.17757 0.72474 0.0
H418 H 0.78431 0.2221 0.75892 0.0
C419 C 0.74412 0.29468 0.79767 0.0
C420 C 0.71727 0.2456 0.75749 0.0
C421 C 0.73736 0.31381 0.81307 0.0
C422 C 0.7487 0.16236 0.7001 0.0
C423 C 0.74085 0.18033 0.71634 0.0
C424 C 0.7656 0.22866 0.75815 0.0
C425 C 0.72732 0.27471 0.79218 0.0
C426 C 0.73435 0.25501 0.77492 0.0
C427 C 0.75639 0.20113 0.72232 0.0
C428 C 0.74865 0.21952 0.74052 0.0
H429 H 0.67848 0.2925 0.82587 0.0
H430 H 0.69046 0.25881 0.79915 0.0
H431 H 0.77198 0.25271 0.78863 0.0
H432 H 0.80564 0.18864 0.68691 0.0
H433 H 0.79185 0.22 0.71519 0.0
C434 C 0.21163 0.29188 0.68562 0.0
C435 C 0.18737 0.2818 0.68855 0.0
C436 C 0.23201 0.27917 0.69408 0.0
C437 C 0.25258 0.21838 0.71201 0.0
H438 H 0.28607 0.2517 0.76615 0.0
C439 C 0.28853 0.16437 0.79044 0.0
C440 C 0.3102 0.17235 0.80305 0.0
C441 C 0.27901 0.17861 0.77221 0.0
C442 C 0.27746 0.24228 0.75071 0.0
H443 H 0.16532 0.25016 0.7011 0.0
H444 H 0.20087 0.22756 0.71494 0.0
H445 H 0.25967 0.2751 0.73962 0.0
H446 H 0.33896 0.20165 0.80623 0.0
H447 H 0.32218 0.22674 0.77404 0.0
H448 H 0.26962 0.18542 0.72332 0.0
C449 C 0.20418 0.24533 0.70646 0.0
C450 C 0.26235 0.25569 0.73554 0.0
C451 C 0.18386 0.25826 0.69864 0.0
C452 C 0.32219 0.19502 0.79689 0.0
C453 C 0.31259 0.20938 0.77848 0.0
C454 C 0.26789 0.20506 0.72693 0.0
C455 C 0.22835 0.25594 0.70486 0.0
C456 C 0.24896 0.24356 0.71674 0.0
C457 C 0.2909 0.20124 0.7659 0.0
C458 C 0.27951 0.21657 0.74717 0.0
H459 H 0.21471 0.31013 0.67807 0.0
H460 H 0.25052 0.2877 0.69277 0.0
H461 H 0.24256 0.20871 0.69748 0.0
H462 H 0.27869 0.14709 0.79473 0.0
H463 H 0.26191 0.17206 0.76342 0.0
C464 C 0.14075 0.92299 0.30976 0.0
C465 C 0.16645 0.92036 0.31272 0.0
C466 C 0.13179 0.93877 0.29221 0.0
C467 C 0.14939 0.96845 0.23536 0.0
H468 H 0.10388 0.01901 0.25357 0.0
C469 C 0.13937 0.05842 0.18235 0.0
C470 C 0.11684 0.07051 0.18338 0.0
C471 C 0.1423 0.03644 0.19491 0.0
C472 C 0.11613 0.00469 0.24791 0.0
H473 H 0.20283 0.93224 0.29951 0.0
H474 H 0.18721 0.95941 0.26909 0.0
H475 H 0.11439 0.98751 0.28231 0.0
H476 H 0.07902 0.06797 0.19642 0.0
H477 H 0.0838 0.02923 0.21748 0.0
H478 H 0.15141 0.98568 0.20106 0.0
C479 C 0.17399 0.94924 0.28019 0.0
C480 C 0.1222 0.98668 0.26448 0.0
C481 C 0.18292 0.93383 0.29782 0.0
C482 C 0.09672 0.05921 0.19557 0.0
C483 C 0.09953 0.03711 0.20781 0.0
C484 C 0.14314 0.9863 0.21869 0.0
C485 C 0.14837 0.95183 0.27711 0.0
C486 C 0.13937 0.96878 0.25857 0.0
C487 C 0.12264 0.02597 0.20847 0.0
C488 C 0.1269 0.00504 0.22494 0.0
H489 H 0.12759 0.91283 0.32091 0.0
H490 H 0.11192 0.94049 0.2902 0.0
H491 H 0.16243 0.95462 0.23025 0.0
H492 H 0.15523 0.06677 0.17321 0.0
H493 H 0.16044 0.02854 0.1951 0.0
C494 C 0.93919 0.44099 0.20528 0.0
C495 C 0.91899 0.4341 0.1901 0.0
C496 C 0.93918 0.46289 0.21892 0.0
C497 C 0.90769 0.52172 0.22966 0.0
H498 H 0.91828 0.50644 0.29671 0.0
C499 C 0.89232 0.59236 0.30728 0.0
C500 C 0.87474 0.58303 0.32371 0.0
C501 C 0.90315 0.57636 0.29072 0.0
C502 C 0.91556 0.51108 0.27805 0.0
H503 H 0.88399 0.44593 0.17569 0.0
H504 H 0.88393 0.48429 0.19968 0.0
H505 H 0.9272 0.47575 0.26577 0.0
H506 H 0.85583 0.54969 0.33676 0.0
H507 H 0.87532 0.52174 0.30849 0.0
H508 H 0.89515 0.55681 0.24225 0.0
C509 C 0.8998 0.47269 0.20096 0.0
C510 C 0.9208 0.49359 0.2603 0.0
C511 C 0.89981 0.4507 0.18723 0.0
C512 C 0.86935 0.55735 0.32431 0.0
C513 C 0.88053 0.54136 0.30816 0.0
C514 C 0.90272 0.53938 0.24747 0.0
C515 C 0.91897 0.47842 0.21771 0.0
C516 C 0.9164 0.49848 0.23594 0.0
C517 C 0.89698 0.55078 0.29078 0.0
C518 C 0.90602 0.53393 0.27185 0.0
H519 H 0.95446 0.42879 0.20764 0.0
H520 H 0.95445 0.46708 0.2313 0.0
H521 H 0.90421 0.52601 0.21104 0.0
H522 H 0.89661 0.61212 0.3063 0.0
H523 H 0.91587 0.58402 0.27753 0.0
C524 C 0.32188 0.14628 0.94288 0.0
C525 C 0.30915 0.13315 0.92417 0.0
C526 C 0.31072 0.14907 0.96543 0.0
C527 C 0.24897 0.14963 0.99287 0.0
H528 H 0.28064 0.13123 0.05232 0.0
C529 C 0.19166 0.13143 0.07734 0.0
C530 C 0.20129 0.14001 0.09961 0.0
C531 C 0.20647 0.13202 0.05688 0.0
C532 C 0.27165 0.13679 0.03593 0.0
H533 H 0.27478 0.11252 0.91475 0.0
H534 H 0.25563 0.1176 0.95349 0.0
H535 H 0.30421 0.13093 0.01487 0.0
H536 H 0.23429 0.15547 0.11787 0.0
H537 H 0.26007 0.15674 0.08203 0.0
H538 H 0.21645 0.1554 0.01353 0.0
C539 C 0.27409 0.12582 0.95083 0.0
C540 C 0.28518 0.13664 0.01452 0.0
C541 C 0.28523 0.1228 0.9286 0.0
C542 C 0.22628 0.14869 0.101 0.0
C543 C 0.24111 0.14935 0.08046 0.0
C544 C 0.23555 0.14991 0.01416 0.0
C545 C 0.28654 0.13914 0.96945 0.0
C546 C 0.27374 0.14247 0.9927 0.0
C547 C 0.23127 0.14132 0.05807 0.0
C548 C 0.24648 0.14289 0.03588 0.0
H549 H 0.34034 0.15442 0.94007 0.0
H550 H 0.32073 0.15941 0.97954 0.0
H551 H 0.2398 0.15462 0.97636 0.0
H552 H 0.17256 0.12445 0.07562 0.0
H553 H 0.19841 0.12515 0.04005 0.0
C554 C 0.80829 0.34139 0.09709 0.0
C555 C 0.82647 0.36045 0.10149 0.0
C556 C 0.78993 0.34396 0.07954 0.0
C557 C 0.7603 0.39037 0.04094 0.0
H558 H 0.7452 0.33315 0.99953 0.0
C559 C 0.72307 0.39681 0.94457 0.0
C560 C 0.70634 0.37824 0.93541 0.0
C561 C 0.73256 0.39549 0.96785 0.0
C562 C 0.74878 0.34917 0.01121 0.0
H563 H 0.83932 0.39738 0.09117 0.0
H564 H 0.80765 0.40166 0.06015 0.0
H565 H 0.7725 0.32913 0.03413 0.0
H566 H 0.68543 0.34434 0.94387 0.0
H567 H 0.70233 0.34183 0.98478 0.0
H568 H 0.73732 0.4106 0.01729 0.0
C569 C 0.80728 0.38487 0.07057 0.0
C570 C 0.7645 0.3469 0.03108 0.0
C571 C 0.82557 0.38236 0.08825 0.0
C572 C 0.69823 0.35895 0.9505 0.0
C573 C 0.70804 0.35743 0.97381 0.0
C574 C 0.74468 0.39266 0.02098 0.0
C575 C 0.78935 0.36559 0.06582 0.0
C576 C 0.77086 0.36758 0.04594 0.0
C577 C 0.72578 0.3754 0.98249 0.0
C578 C 0.73915 0.3722 0.00562 0.0
H579 H 0.80827 0.32435 0.10713 0.0
H580 H 0.7762 0.32891 0.07671 0.0
H581 H 0.76435 0.40656 0.05226 0.0
H582 H 0.72958 0.41197 0.93339 0.0
H583 H 0.74632 0.40951 0.97386 0.0
C584 C 0.30113 0.84012 0.59749 0.0
C585 C 0.32059 0.85779 0.60215 0.0
C586 C 0.28396 0.84359 0.57906 0.0
C587 C 0.26039 0.89072 0.53731 0.0
H588 H 0.2423 0.83275 0.49787 0.0
C589 C 0.22601 0.8951 0.43952 0.0
C590 C 0.2083 0.87716 0.43087 0.0
C591 C 0.23493 0.89434 0.46306 0.0
C592 C 0.24673 0.84905 0.50895 0.0
H593 H 0.33694 0.89328 0.59144 0.0
H594 H 0.30734 0.8991 0.55878 0.0
H595 H 0.26781 0.82828 0.53359 0.0
H596 H 0.18502 0.84516 0.44054 0.0
H597 H 0.20081 0.84371 0.48186 0.0
H598 H 0.24004 0.91157 0.51193 0.0
C599 C 0.30505 0.88273 0.56968 0.0
C600 C 0.26142 0.84651 0.52948 0.0
C601 C 0.32215 0.87934 0.58831 0.0
C602 C 0.19864 0.85925 0.44671 0.0
C603 C 0.20782 0.85831 0.47028 0.0
C604 C 0.2458 0.89327 0.51666 0.0
C605 C 0.28591 0.86473 0.56463 0.0
C606 C 0.26878 0.86736 0.54375 0.0
C607 C 0.22653 0.87549 0.4785 0.0
C608 C 0.23914 0.87251 0.50205 0.0
H609 H 0.29919 0.82343 0.60801 0.0
H610 H 0.2692 0.82959 0.57607 0.0
H611 H 0.26528 0.9071 0.54809 0.0
H612 H 0.23373 0.90923 0.42779 0.0
H613 H 0.24946 0.90773 0.46872 0.0
C614 C 0.69767 0.63341 0.58532 0.0
C615 C 0.69787 0.65552 0.59901 0.0
C616 C 0.71415 0.63081 0.56624 0.0
C617 C 0.7532 0.66843 0.52463 0.0
H618 H 0.77998 0.60479 0.50841 0.0
C619 C 0.81796 0.65551 0.44328 0.0
C620 C 0.81046 0.6356 0.42794 0.0
C621 C 0.80768 0.6577 0.46622 0.0
C622 C 0.77264 0.62269 0.51273 0.0
H623 H 0.71611 0.69193 0.60386 0.0
H624 H 0.74512 0.6872 0.57104 0.0
H625 H 0.75521 0.60908 0.54459 0.0
H626 H 0.78729 0.60173 0.42511 0.0
H627 H 0.76967 0.60544 0.46494 0.0
H628 H 0.7705 0.68194 0.49263 0.0
C629 C 0.73187 0.67206 0.57461 0.0
C630 C 0.75833 0.62513 0.5334 0.0
C631 C 0.71529 0.67472 0.59354 0.0
C632 C 0.79339 0.61738 0.43642 0.0
C633 C 0.78339 0.6194 0.45935 0.0
C634 C 0.76766 0.66602 0.50406 0.0
C635 C 0.73135 0.65019 0.5605 0.0
C636 C 0.74805 0.64794 0.53942 0.0
C637 C 0.79002 0.63981 0.47435 0.0
C638 C 0.77718 0.64302 0.49765 0.0
H639 H 0.68444 0.61829 0.58901 0.0
H640 H 0.71294 0.61382 0.5556 0.0
H641 H 0.74533 0.6862 0.52844 0.0
H642 H 0.83104 0.66986 0.43725 0.0
H643 H 0.81327 0.67355 0.47748 0.0
C644 C 0.93411 0.30643 0.10281 0.0
C645 C 0.94725 0.32433 0.11706 0.0
C646 C 0.94687 0.2879 0.09084 0.0
C647 C 0.00859 0.26606 0.07381 0.0
H648 H 0.98842 0.20661 0.10791 0.0
C649 C 0.0787 0.19764 0.10611 0.0
C650 C 0.07041 0.17449 0.11466 0.0
C651 C 0.06197 0.21324 0.09529 0.0
C652 C 0.99416 0.22251 0.0974 0.0
H653 H 0.98381 0.3387 0.12801 0.0
H654 H 0.0061 0.30693 0.10651 0.0
H655 H 0.96129 0.24098 0.10702 0.0
H656 H 0.03918 0.14809 0.11649 0.0
H657 H 0.01037 0.17422 0.09571 0.0
H658 H 0.04169 0.24782 0.06446 0.0
C659 C 0.98606 0.30695 0.10471 0.0
C660 C 0.97844 0.24238 0.097 0.0
C661 C 0.97332 0.32503 0.11713 0.0
C662 C 0.04586 0.16602 0.1101 0.0
C663 C 0.02932 0.18122 0.0985 0.0
C664 C 0.02412 0.24589 0.07367 0.0
C665 C 0.97291 0.2875 0.09249 0.0
C666 C 0.98605 0.26476 0.08628 0.0
C667 C 0.0367 0.20569 0.09231 0.0
C668 C 0.01777 0.22433 0.08667 0.0
H669 H 0.91398 0.30543 0.10264 0.0
H670 H 0.93636 0.27302 0.0816 0.0
H671 H 0.01477 0.28312 0.06529 0.0
H672 H 0.09756 0.20459 0.1097 0.0
H673 H 0.06861 0.23187 0.09111 0.0
C674 C 0.93314 0.69722 0.37585 0.0
C675 C 0.91166 0.71015 0.37066 0.0
C676 C 0.95637 0.70978 0.37771 0.0
C677 C 0.99007 0.76717 0.3587 0.0
H678 H 0.03801 0.7497 0.4072 0.0
C679 C 0.08449 0.82146 0.37081 0.0
C680 C 0.10546 0.80744 0.37507 0.0
C681 C 0.06053 0.81035 0.37153 0.0
C682 C 0.02494 0.75465 0.39339 0.0
H683 H 0.89781 0.74657 0.36376 0.0
H684 H 0.93829 0.76846 0.36714 0.0
H685 H 0.99687 0.72894 0.40624 0.0
H686 H 0.11757 0.77074 0.38364 0.0
H687 H 0.07594 0.75136 0.38459 0.0
H688 H 0.01818 0.79265 0.34566 0.0
C689 C 0.9372 0.74854 0.3695 0.0
C690 C 1.00133 0.74274 0.39285 0.0
C691 C 0.91395 0.736 0.36771 0.0
C692 C 0.10186 0.78213 0.38034 0.0
C693 C 0.07793 0.77103 0.38103 0.0
C694 C 0.01369 0.77904 0.35921 0.0
C695 C 0.95874 0.73557 0.37436 0.0
C696 C 0.98363 0.74876 0.37543 0.0
C697 C 0.05694 0.78494 0.3765 0.0
C698 C 0.03149 0.77285 0.37648 0.0
H699 H 0.93209 0.6773 0.3782 0.0
H700 H 0.97259 0.69915 0.38121 0.0
H701 H 0.97704 0.772 0.34481 0.0
H702 H 0.08655 0.84102 0.36678 0.0
H703 H 0.0448 0.82173 0.36829 0.0
C704 C 0.54865 0.67815 0.62341 0.0
C705 C 0.57439 0.68227 0.62114 0.0
C706 C 0.53224 0.69231 0.6106 0.0
C707 C 0.52955 0.75542 0.59217 0.0
H708 H 0.46179 0.73337 0.57663 0.0
C709 C 0.44964 0.82046 0.60671 0.0
C710 C 0.4335 0.80964 0.6236 0.0
C711 C 0.46578 0.80564 0.59375 0.0
C712 C 0.48073 0.73992 0.58045 0.0
H713 H 0.60332 0.70318 0.60252 0.0
H714 H 0.57442 0.72867 0.58036 0.0
H715 H 0.49467 0.70359 0.57577 0.0
H716 H 0.42007 0.77519 0.63918 0.0
H717 H 0.44757 0.74931 0.61637 0.0
H718 H 0.51531 0.79128 0.5988 0.0
C719 C 0.567 0.71423 0.59191 0.0
C720 C 0.49954 0.72288 0.57997 0.0
C721 C 0.5835 0.69962 0.60448 0.0
C722 C 0.43232 0.78382 0.62611 0.0
C723 C 0.44797 0.76903 0.6129 0.0
C724 C 0.51073 0.77248 0.59261 0.0
C725 C 0.54121 0.71126 0.5955 0.0
C726 C 0.52381 0.73013 0.58741 0.0
C727 C 0.46556 0.77983 0.59726 0.0
C728 C 0.48588 0.7645 0.58832 0.0
H729 H 0.54118 0.6648 0.6361 0.0
H730 H 0.51255 0.6897 0.61408 0.0
H731 H 0.54804 0.76162 0.59804 0.0
H732 H 0.45094 0.84042 0.60474 0.0
H733 H 0.47919 0.81443 0.58187 0.0
C734 C 0.85457 0.07037 0.706 0.0
C735 C 0.83796 0.05984 0.68871 0.0
C736 C 0.86323 0.05598 0.72478 0.0
C737 C 0.87489 0.99317 0.74268 0.0
H738 H 0.85693 0.01247 0.80747 0.0
C739 C 0.85959 0.93757 0.83397 0.0
C740 C 0.8817 0.92466 0.83402 0.0
C741 C 0.85741 0.95848 0.81951 0.0
C742 C 0.86221 0.00702 0.78949 0.0
H743 H 0.81838 0.0259 0.67673 0.0
H744 H 0.83446 0.00053 0.70886 0.0
H745 H 0.84838 0.03993 0.77379 0.0
H746 H 0.91969 0.92512 0.82135 0.0
H747 H 0.91584 0.96139 0.79636 0.0
H748 H 0.88845 0.96024 0.75807 0.0
C749 C 0.84039 0.01995 0.70813 0.0
C750 C 0.85748 0.02272 0.77032 0.0
C751 C 0.83126 0.03443 0.68976 0.0
C752 C 0.9023 0.9345 0.82143 0.0
C753 C 0.9001 0.95521 0.80704 0.0
C754 C 0.88005 0.97777 0.76181 0.0
C755 C 0.85592 0.03074 0.72614 0.0
C756 C 0.86343 0.01568 0.74672 0.0
C757 C 0.8773 0.96663 0.805 0.0
C758 C 0.87346 0.98435 0.78537 0.0
H759 H 0.85976 0.09 0.70577 0.0
H760 H 0.87529 0.06463 0.73844 0.0
H761 H 0.87955 0.98733 0.72464 0.0
H762 H 0.8434 0.93035 0.84339 0.0
H763 H 0.83961 0.967 0.81824 0.0
C764 C 0.13253 0.57198 0.79909 0.0
C765 C 0.12239 0.59159 0.78654 0.0
C766 C 0.13523 0.5489 0.78777 0.0
C767 C 0.11321 0.51118 0.73461 0.0
H768 H 0.17039 0.47271 0.74942 0.0
C769 C 0.13326 0.41921 0.68464 0.0
C770 C 0.13713 0.39933 0.70004 0.0
C771 C 0.13339 0.44358 0.69378 0.0
C772 C 0.15434 0.48329 0.74512 0.0
H773 H 0.10737 0.6024 0.75215 0.0
H774 H 0.11266 0.56263 0.73238 0.0
H775 H 0.16624 0.51328 0.76862 0.0
H776 H 0.1453 0.38947 0.7368 0.0
H777 H 0.14589 0.43181 0.75253 0.0
H778 H 0.10147 0.48115 0.71097 0.0
C779 C 0.11796 0.56472 0.75112 0.0
C780 C 0.15184 0.50644 0.75625 0.0
C781 C 0.11503 0.58763 0.76247 0.0
C782 C 0.1421 0.40437 0.72448 0.0
C783 C 0.14261 0.42864 0.73349 0.0
C784 C 0.11586 0.48815 0.7233 0.0
C785 C 0.12808 0.54502 0.76359 0.0
C786 C 0.1311 0.52058 0.75134 0.0
C787 C 0.13786 0.44846 0.71835 0.0
C788 C 0.1363 0.47385 0.72865 0.0
H789 H 0.13833 0.57441 0.81767 0.0
H790 H 0.14272 0.53404 0.79808 0.0
H791 H 0.09678 0.52131 0.73064 0.0
H792 H 0.12935 0.41588 0.66574 0.0
H793 H 0.1298 0.45859 0.6817 0.0
C794 C 0.6798 0.8532 0.07661 0.0
C795 C 0.67486 0.83 0.0872 0.0
C796 C 0.69518 0.85528 0.05651 0.0
C797 C 0.72177 0.81833 0.00699 0.0
H798 H 0.77193 0.87204 0.00523 0.0
C799 C 0.80337 0.81687 0.94101 0.0
C800 C 0.81133 0.83914 0.93012 0.0
C801 C 0.78589 0.81685 0.9594 0.0
C802 C 0.75782 0.85712 0.00525 0.0
H803 H 0.68197 0.79077 0.08463 0.0
H804 H 0.70872 0.7944 0.04976 0.0
H805 H 0.74254 0.86999 0.03834 0.0
H806 H 0.80713 0.87895 0.9302 0.0
H807 H 0.77639 0.8789 0.9623 0.0
H808 H 0.73706 0.80534 0.97403 0.0
C809 C 0.70057 0.81098 0.05682 0.0
C810 C 0.74095 0.85594 0.02425 0.0
C811 C 0.6853 0.80891 0.07694 0.0
C812 C 0.80145 0.86147 0.93822 0.0
C813 C 0.7839 0.86144 0.9567 0.0
C814 C 0.73858 0.81953 0.988 0.0
C815 C 0.70587 0.8342 0.04644 0.0
C816 C 0.72291 0.83635 0.02552 0.0
C817 C 0.77581 0.83908 0.96744 0.0
C818 C 0.75704 0.83874 0.98702 0.0
H819 H 0.67207 0.86983 0.08403 0.0
H820 H 0.69865 0.8734 0.04881 0.0
H821 H 0.70783 0.80325 0.00713 0.0
H822 H 0.81064 0.79932 0.93535 0.0
H823 H 0.78049 0.79933 0.96752 0.0
C824 C 0.18655 0.63122 0.90623 0.0
C825 C 0.19031 0.65409 0.89478 0.0
C826 C 0.20148 0.62512 0.92575 0.0
C827 C 0.24265 0.65433 0.97274 0.0
H828 H 0.25985 0.58635 0.9839 0.0
C829 C 0.27035 0.59273 0.0579 0.0
C830 C 0.28866 0.60839 0.06909 0.0
C831 C 0.2624 0.59716 0.03451 0.0
C832 C 0.2552 0.60542 0.981 0.0
H833 H 0.2132 0.68817 0.8944 0.0
H834 H 0.23952 0.67734 0.92803 0.0
H835 H 0.23802 0.5965 0.94701 0.0
H836 H 0.31381 0.64034 0.06406 0.0
H837 H 0.29974 0.64819 0.0231 0.0
H838 H 0.25964 0.66317 0.00684 0.0
C839 C 0.22469 0.66432 0.92234 0.0
C840 C 0.24257 0.61124 0.95992 0.0
C841 C 0.20964 0.67049 0.90296 0.0
C842 C 0.29968 0.62793 0.05594 0.0
C843 C 0.29151 0.63253 0.03257 0.0
C844 C 0.25543 0.64854 0.99371 0.0
C845 C 0.22065 0.64166 0.93417 0.0
C846 C 0.23574 0.6357 0.95571 0.0
C847 C 0.27241 0.61748 0.0218 0.0
C848 C 0.26147 0.62396 0.99827 0.0
H849 H 0.17177 0.61819 0.90042 0.0
H850 H 0.19755 0.60767 0.9346 0.0
H851 H 0.2374 0.67329 0.97034 0.0
H852 H 0.26155 0.57745 0.06749 0.0
H853 H 0.24753 0.58534 0.02681 0.0
C854 C 0.68714 0.17403 0.42282 0.0
C855 C 0.68646 0.15935 0.40175 0.0
C856 C 0.70024 0.16668 0.44303 0.0
C857 C 0.75082 0.12933 0.46394 0.0
H858 H 0.71495 0.12889 0.52402 0.0
C859 C 0.79481 0.12196 0.55986 0.0
C860 C 0.78164 0.10649 0.5759 0.0
C861 C 0.78526 0.12601 0.53683 0.0
C862 C 0.72518 0.12879 0.50736 0.0
H863 H 0.69957 0.12575 0.38516 0.0
H864 H 0.72286 0.11308 0.42059 0.0
H865 H 0.6942 0.14135 0.48736 0.0
H866 H 0.74903 0.08175 0.57959 0.0
H867 H 0.73249 0.08899 0.53972 0.0
H868 H 0.782 0.11711 0.48426 0.0
C869 C 0.71309 0.13022 0.42135 0.0
C870 C 0.71336 0.1361 0.48644 0.0
C871 C 0.69965 0.13739 0.40117 0.0
C872 C 0.75957 0.09401 0.56787 0.0
C873 C 0.75 0.09819 0.54503 0.0
C874 C 0.76283 0.12235 0.48505 0.0
C875 C 0.71324 0.14466 0.44256 0.0
C876 C 0.72602 0.13647 0.46453 0.0
C877 C 0.76233 0.11478 0.52956 0.0
C878 C 0.75004 0.12192 0.50693 0.0
H879 H 0.67722 0.19106 0.42387 0.0
H880 H 0.70021 0.17825 0.4591 0.0
H881 H 0.76101 0.12958 0.44726 0.0
H882 H 0.81188 0.13182 0.56545 0.0
H883 H 0.79512 0.13892 0.52522 0.0
C884 C 0.18062 0.35048 0.57628 0.0
C885 C 0.17152 0.3267 0.58281 0.0
C886 C 0.19508 0.35367 0.55566 0.0
C887 C 0.21176 0.32201 0.49857 0.0
H888 H 0.27163 0.36452 0.5025 0.0
C889 C 0.29157 0.31276 0.43184 0.0
C890 C 0.30371 0.33439 0.4232 0.0
C891 C 0.2742 0.31407 0.45022 0.0
C892 C 0.2548 0.35286 0.50098 0.0
H893 H 0.17021 0.28771 0.57245 0.0
H894 H 0.1954 0.29321 0.53683 0.0
H895 H 0.24312 0.36283 0.53639 0.0
H896 H 0.30711 0.37444 0.42729 0.0
H897 H 0.27669 0.37672 0.45966 0.0
H898 H 0.22366 0.31161 0.46342 0.0
C899 C 0.19118 0.30949 0.54741 0.0
C900 C 0.23843 0.3519 0.52041 0.0
C901 C 0.17682 0.30631 0.56798 0.0
C902 C 0.29809 0.35743 0.43353 0.0
C903 C 0.28075 0.35872 0.45212 0.0
C904 C 0.22812 0.32292 0.47923 0.0
C905 C 0.20068 0.33317 0.54103 0.0
C906 C 0.21693 0.33608 0.51962 0.0
C907 C 0.26851 0.33703 0.46059 0.0
C908 C 0.25008 0.33797 0.48036 0.0
H909 H 0.17689 0.36659 0.5873 0.0
H910 H 0.20188 0.37219 0.55116 0.0
H911 H 0.19513 0.31005 0.4971 0.0
H912 H 0.29543 0.29468 0.42438 0.0
H913 H 0.26546 0.29696 0.45656 0.0
C914 C 0.07162 0.69175 0.88739 0.0
C915 C 0.06501 0.68297 0.86422 0.0
C916 C 0.05433 0.70384 0.90159 0.0
C917 C 0.02181 0.74721 0.9141 0.0
H918 H 0.95094 0.73325 0.90673 0.0
C919 C 0.95478 0.81993 0.89026 0.0
C920 C 0.92931 0.81684 0.89495 0.0
C921 C 0.97146 0.80319 0.89906 0.0
C922 C 0.97059 0.73732 0.90971 0.0
H923 H 0.03463 0.6782 0.83856 0.0
H924 H 0.00477 0.69914 0.863 0.0
H925 H 0.97965 0.70065 0.89866 0.0
H926 H 0.90144 0.79523 0.91426 0.0
H927 H 0.93075 0.76553 0.92966 0.0
H928 H 0.01277 0.7842 0.92416 0.0
C929 C 0.02314 0.69675 0.87044 0.0
C930 C 0.9871 0.71865 0.90476 0.0
C931 C 0.04038 0.68494 0.85625 0.0
C932 C 0.92105 0.79802 0.91047 0.0
C933 C 0.93779 0.78095 0.9191 0.0
C934 C 0.00528 0.76585 0.9192 0.0
C935 C 0.03005 0.70705 0.89297 0.0
C936 C 0.01291 0.72385 0.9054 0.0
C937 C 0.96302 0.78274 0.91256 0.0
C938 C 0.97957 0.76156 0.91553 0.0
H939 H 0.09047 0.69046 0.89404 0.0
H940 H 0.06018 0.71143 0.91893 0.0
H941 H 0.04156 0.75188 0.91491 0.0
H942 H 0.9616 0.83438 0.87839 0.0
H943 H 0.99062 0.80514 0.8934 0.0
C944 C 0.05953 0.28429 0.629 0.0
C945 C 0.06154 0.29869 0.65023 0.0
C946 C 0.03709 0.27127 0.62307 0.0
C947 C 0.96979 0.26704 0.63826 0.0
H948 H 0.97431 0.19654 0.6253 0.0
C949 C 0.89261 0.19645 0.66392 0.0
C950 C 0.88583 0.17695 0.64784 0.0
C951 C 0.91313 0.21234 0.6594 0.0
C952 C 0.9727 0.21626 0.62849 0.0
H953 H 0.04135 0.31193 0.68106 0.0
H954 H 0.00264 0.28967 0.67074 0.0
H955 H 0.01191 0.22364 0.62474 0.0
H956 H 0.89546 0.15879 0.61439 0.0
H957 H 0.93171 0.18651 0.60667 0.0
H958 H 0.93082 0.25955 0.64306 0.0
C959 C 0.01813 0.28826 0.6586 0.0
C960 C 0.99422 0.23181 0.62809 0.0
C961 C 0.04044 0.30091 0.66463 0.0
C962 C 0.90018 0.17365 0.62713 0.0
C963 C 0.92096 0.18946 0.62273 0.0
C964 C 0.94837 0.25153 0.63877 0.0
C965 C 0.01625 0.27285 0.63805 0.0
C966 C 0.99311 0.25725 0.63377 0.0
C967 C 0.92755 0.20906 0.63878 0.0
C968 C 0.94969 0.22585 0.63467 0.0
H969 H 0.07554 0.28217 0.61764 0.0
H970 H 0.03617 0.25964 0.60705 0.0
H971 H 0.96821 0.28663 0.64224 0.0
H972 H 0.882 0.19956 0.68003 0.0
H973 H 0.91795 0.22701 0.67232 0.0
C974 C 0.57042 0.1908 0.38185 0.0
C975 C 0.58203 0.20452 0.36353 0.0
C976 C 0.55232 0.20161 0.39616 0.0
C977 C 0.52815 0.26131 0.41575 0.0
H978 H 0.46224 0.23326 0.40106 0.0
C979 C 0.44884 0.31946 0.38996 0.0
C980 C 0.42408 0.31084 0.39207 0.0
C981 C 0.46802 0.30594 0.39933 0.0
C982 C 0.4804 0.24107 0.4062 0.0
H983 H 0.58518 0.2404 0.34666 0.0
H984 H 0.55447 0.25944 0.37205 0.0
H985 H 0.4984 0.20875 0.39351 0.0
H986 H 0.39953 0.28239 0.40701 0.0
H987 H 0.43329 0.25835 0.42348 0.0
H988 H 0.51038 0.29416 0.42711 0.0
C989 C 0.55898 0.24037 0.37526 0.0
C990 C 0.50114 0.22698 0.4018 0.0
C991 C 0.57638 0.22944 0.36061 0.0
C992 C 0.41856 0.2895 0.40545 0.0
C993 C 0.43788 0.27567 0.41464 0.0
C994 C 0.50744 0.27528 0.42044 0.0
C995 C 0.54638 0.22647 0.39282 0.0
C996 C 0.5252 0.23757 0.40514 0.0
C997 C 0.46288 0.28321 0.41073 0.0
C998 C 0.48342 0.26594 0.41415 0.0
H999 H 0.57447 0.1715 0.38432 0.0
H1000 H 0.54265 0.1905 0.40946 0.0
H1001 H 0.54655 0.26977 0.41868 0.0
H1002 H 0.45348 0.33578 0.37952 0.0
H1003 H 0.48694 0.31225 0.39563 0.0
C1004 C 0.60314 0.57566 0.71374 0.0
C1005 C 0.61794 0.58164 0.6938 0.0
C1006 C 0.60537 0.55316 0.72538 0.0
C1007 C 0.65229 0.50708 0.73559 0.0
H1008 H 0.59963 0.47566 0.77297 0.0
C1009 C 0.67511 0.45066 0.81781 0.0
C1010 C 0.66145 0.4284 0.82199 0.0
C1011 C 0.66745 0.46694 0.80034 0.0
C1012 C 0.6145 0.48398 0.76243 0.0
H1013 H 0.64532 0.56771 0.66931 0.0
H1014 H 0.64888 0.52803 0.68938 0.0
H1015 H 0.58951 0.50632 0.74306 0.0
H1016 H 0.62845 0.40619 0.81175 0.0
H1017 H 0.61509 0.43471 0.78084 0.0
H1018 H 0.67725 0.48469 0.75472 0.0
C1019 C 0.63596 0.54112 0.69637 0.0
C1020 C 0.60874 0.50173 0.74542 0.0
C1021 C 0.63382 0.56379 0.68474 0.0
C1022 C 0.63929 0.42328 0.80899 0.0
C1023 C 0.63169 0.43958 0.79126 0.0
C1024 C 0.658 0.48926 0.75241 0.0
C1025 C 0.62235 0.53589 0.71732 0.0
C1026 C 0.62767 0.51406 0.7323 0.0
C1027 C 0.64606 0.46131 0.78636 0.0
C1028 C 0.6393 0.47807 0.7666 0.0
H1029 H 0.59055 0.58887 0.72115 0.0
H1030 H 0.59476 0.55002 0.74155 0.0
H1031 H 0.66743 0.51623 0.72603 0.0
H1032 H 0.6921 0.4553 0.82772 0.0
H1033 H 0.67854 0.48388 0.7976 0.0
C1034 C 0.40001 0.08217 0.81209 0.0
C1035 C 0.38152 0.07379 0.82806 0.0
C1036 C 0.411 0.06542 0.79638 0.0
C1037 C 0.41053 0.0283 0.75367 0.0
H1038 H 0.42831 0.9624 0.77236 0.0
C1039 C 0.39955 0.94081 0.69278 0.0
C1040 C 0.41609 0.92167 0.69608 0.0
C1041 C 0.40195 0.96263 0.70672 0.0
C1042 C 0.42387 0.98085 0.76677 0.0
H1043 H 0.36136 0.0413 0.8414 0.0
H1044 H 0.38096 0.01207 0.81458 0.0
H1045 H 0.42168 0.99391 0.80313 0.0
H1046 H 0.44959 0.91147 0.71474 0.0
H1047 H 0.45388 0.94953 0.73872 0.0
H1048 H 0.41172 0.01486 0.71727 0.0
C1049 C 0.38685 0.03151 0.81396 0.0
C1050 C 0.4199 -0.00117 0.78444 0.0
C1051 C 0.37558 0.04824 0.82929 0.0
C1052 C 0.43629 0.9257 0.71202 0.0
C1053 C 0.43872 0.94748 0.72585 0.0
C1054 C 0.41431 0.01021 0.73594 0.0
C1055 C 0.40404 0.04 0.7968 0.0
C1056 C 0.41257 0.02253 0.77811 0.0
C1057 C 0.42098 0.96571 0.72412 0.0
C1058 C 0.42046 0.9861 0.74233 0.0
H1059 H 0.40477 0.10181 0.81063 0.0
H1060 H 0.42431 0.0724 0.7834 0.0
H1061 H 0.40468 0.04638 0.74828 0.0
H1062 H 0.3838 0.93829 0.68065 0.0
H1063 H 0.38791 0.97629 0.705 0.0
C1064 C 0.43571 0.19288 0.87546 0.0
C1065 C 0.41382 0.20494 0.8698 0.0
C1066 C 0.45843 0.20632 0.87777 0.0
C1067 C 0.4903 0.26503 0.85953 0.0
H1068 H 0.53805 0.24911 0.90878 0.0
C1069 C 0.58254 0.32271 0.87365 0.0
C1070 C 0.60398 0.30945 0.87806 0.0
C1071 C 0.55896 0.31073 0.87391 0.0
C1072 C 0.52503 0.25365 0.89477 0.0
H1073 H 0.39868 0.24072 0.86253 0.0
H1074 H 0.43827 0.26415 0.86675 0.0
H1075 H 0.49769 0.22683 0.90699 0.0
H1076 H 0.61733 0.27317 0.88646 0.0
H1077 H 0.57635 0.2523 0.88666 0.0
H1078 H 0.5177 0.29165 0.84714 0.0
C1079 C 0.43791 0.24424 0.8691 0.0
C1080 C 0.50187 0.24087 0.89376 0.0
C1081 C 0.41517 0.23081 0.86683 0.0
C1082 C 0.60124 0.284 0.88305 0.0
C1083 C 0.57768 0.27203 0.8833 0.0
C1084 C 0.51347 0.27779 0.86053 0.0
C1085 C 0.45987 0.23215 0.87445 0.0
C1086 C 0.48425 0.2463 0.87604 0.0
C1087 C 0.55623 0.28519 0.87859 0.0
C1088 C 0.53121 0.27218 0.87808 0.0
H1089 H 0.43539 0.17297 0.87782 0.0
H1090 H 0.475 0.19635 0.88163 0.0
H1091 H 0.47735 0.26945 0.84542 0.0
H1092 H 0.58395 0.34235 0.86981 0.0
H1093 H 0.54284 0.32154 0.87053 0.0
C1094 C 0.3281 0.52765 0.18086 0.0
C1095 C 0.33715 0.55245 0.18034 0.0
C1096 C 0.33648 0.51164 0.19833 0.0
C1097 C 0.35798 0.5109 0.25974 0.0
H1098 H 0.37889 0.44479 0.24381 0.0
C1099 C 0.39644 0.41686 0.30586 0.0
C1100 C 0.37694 0.41006 0.32139 0.0
C1101 C 0.39486 0.43743 0.29121 0.0
C1102 C 0.3733 0.46327 0.24857 0.0
H1103 H 0.3624 0.57985 0.1974 0.0
H1104 H 0.37671 0.55181 0.2284 0.0
H1105 H 0.37072 0.47371 0.21173 0.0
H1106 H 0.34147 0.42084 0.33529 0.0
H1107 H 0.33875 0.45722 0.30956 0.0
H1108 H 0.35971 0.5 0.29665 0.0
C1109 C 0.36331 0.54483 0.21508 0.0
C1110 C 0.36852 0.47974 0.2302 0.0
C1111 C 0.35532 0.56075 0.19722 0.0
C1112 C 0.35678 0.42564 0.32353 0.0
C1113 C 0.35522 0.44641 0.30879 0.0
C1114 C 0.36236 0.49421 0.27818 0.0
C1115 C 0.35369 0.52024 0.21594 0.0
C1116 C 0.36068 0.50364 0.23558 0.0
C1117 C 0.37377 0.45179 0.29177 0.0
C1118 C 0.37001 0.47021 0.27273 0.0
H1119 H 0.31403 0.52079 0.16813 0.0
H1120 H 0.32873 0.49277 0.19866 0.0
H1121 H 0.35171 0.52919 0.2643 0.0
H1122 H 0.41242 0.40545 0.30405 0.0
H1123 H 0.40963 0.44144 0.27859 0.0
C1124 C 0.60422 0.10018 0.26644 0.0
C1125 C 0.62353 0.10602 0.28298 0.0
C1126 C 0.60409 0.07818 0.25286 0.0
C1127 C 0.64516 0.03305 0.22737 0.0
H1128 H 0.58646 0.98896 0.22419 0.0
C1129 C 0.64636 0.93292 0.18931 0.0
C1130 C 0.62422 0.92172 0.18023 0.0
C1131 C 0.64678 0.95727 0.19834 0.0
C1132 C 0.60286 0.00127 0.22432 0.0
H1133 H 0.65771 0.09327 0.2984 0.0
H1134 H 0.65762 0.05489 0.27431 0.0
H1135 H 0.58586 0.02709 0.248 0.0
H1136 H 0.58556 0.92714 0.17209 0.0
H1137 H 0.58651 0.97024 0.18634 0.0
H1138 H 0.66211 0.00761 0.20337 0.0
C1139 C 0.6426 0.06739 0.27199 0.0
C1140 C 0.60254 0.02304 0.23821 0.0
C1141 C 0.64251 0.08921 0.28591 0.0
C1142 C 0.60293 0.93564 0.17874 0.0
C1143 C 0.60342 0.96015 0.18733 0.0
C1144 C 0.64538 0.01146 0.21314 0.0
C1145 C 0.62347 0.06178 0.25523 0.0
C1146 C 0.62375 0.03897 0.24009 0.0
C1147 C 0.62505 0.97092 0.19828 0.0
C1148 C 0.62431 0.9951 0.21162 0.0
H1149 H 0.58933 0.11276 0.26378 0.0
H1150 H 0.58915 0.07431 0.24003 0.0
H1151 H 0.66166 0.04525 0.22827 0.0
H1152 H 0.66283 0.92222 0.19114 0.0
H1153 H 0.66372 0.96467 0.20683 0.0
C1154 C 0.53937 0.80336 0.16771 0.0
C1155 C 0.56096 0.80264 0.15377 0.0
C1156 C 0.51972 0.78609 0.16391 0.0
C1157 C 0.49167 0.73816 0.12275 0.0
H1158 H 0.46596 0.71146 0.18229 0.0
C1159 C 0.40088 0.67595 0.12912 0.0
C1160 C 0.40031 0.65698 0.14619 0.0
C1161 C 0.42149 0.69261 0.12766 0.0
C1162 C 0.47305 0.71845 0.16544 0.0
H1163 H 0.57825 0.78405 0.12392 0.0
H1164 H 0.54367 0.75335 0.11738 0.0
H1165 H 0.49945 0.74297 0.18346 0.0
H1166 H 0.42151 0.63997 0.17431 0.0
H1167 H 0.4574 0.66869 0.17156 0.0
H1168 H 0.4652 0.71322 0.1048 0.0
C1169 C 0.54206 0.76751 0.13121 0.0
C1170 C 0.49207 0.73682 0.16613 0.0
C1171 C 0.56183 0.78506 0.13493 0.0
C1172 C 0.42116 0.65452 0.16114 0.0
C1173 C 0.44174 0.67108 0.15963 0.0
C1174 C 0.47247 0.7197 0.12206 0.0
C1175 C 0.52113 0.76739 0.14622 0.0
C1176 C 0.50147 0.74713 0.14485 0.0
C1177 C 0.44199 0.69064 0.14321 0.0
C1178 C 0.46289 0.70969 0.14345 0.0
H1179 H 0.53792 0.81694 0.18211 0.0
H1180 H 0.5036 0.78699 0.17534 0.0
H1181 H 0.49849 0.74575 0.10605 0.0
H1182 H 0.38514 0.67835 0.11729 0.0
H1183 H 0.42096 0.70756 0.11493 0.0
loop_
_geom_bond_atom_site_label_1
_geom_bond_atom_site_label_2
_geom_bond_distance
_geom_bond_site_symmetry_2
_ccdc_geom_bond_type
Zn0 O3 2.031 . S
Zn0 O5 2.049 . S
Zn0 O10 2.067 . S
Zn1 O2 1.962 . S
Zn1 O4 1.986 . S
Zn1 O6 1.996 . S
Zn1 O9 1.943 . S
O2 Zn1 1.962 . S
O2 C7 1.254 . S
O3 Zn0 2.031 . S
O3 C7 1.269 . S
O4 Zn1 1.986 . S
O4 C11 1.262 . S
O5 Zn0 2.049 . S
O5 C13 1.260 . S
O6 Zn1 1.996 . S
O6 C13 1.257 . S
C7 O2 1.254 . S
C7 O3 1.269 . S
C8 O9 1.249 . S
C8 O10 1.270 . S
O9 Zn1 1.943 . S
O9 C8 1.249 . S
O10 Zn0 2.067 . S
O10 C8 1.270 . S
C11 O4 1.262 . S
C11 O12 1.232 . S
O12 C11 1.232 . S
C13 O5 1.260 . S
C13 O6 1.257 . S
Zn14 O17 2.031 . S
Zn14 O19 2.049 . S
Zn14 O24 2.067 . S
Zn15 O16 1.962 . S
Zn15 O18 1.986 . S
Zn15 O20 1.996 . S
Zn15 O23 1.943 . S
O16 Zn15 1.962 . S
O16 C21 1.254 . S
O17 Zn14 2.031 . S
O17 C21 1.269 . S
O18 Zn15 1.986 . S
O18 C25 1.262 . S
O19 Zn14 2.049 . S
O19 C27 1.260 . S
O20 Zn15 1.996 . S
O20 C27 1.257 . S
C21 O16 1.254 . S
C21 O17 1.269 . S
C22 O23 1.249 . S
C22 O24 1.270 . S
O23 Zn15 1.943 . S
O23 C22 1.249 . S
O24 Zn14 2.067 . S
O24 C22 1.270 . S
C25 O18 1.262 . S
C25 O26 1.232 . S
O26 C25 1.232 . S
C27 O19 1.260 . S
C27 O20 1.257 . S
Zn28 O31 2.031 . S
Zn28 O33 2.049 . S
Zn28 O38 2.067 . S
Zn29 O30 1.962 . S
Zn29 O32 1.986 . S
Zn29 O34 1.996 . S
Zn29 O37 1.943 . S
O30 Zn29 1.962 . S
O30 C35 1.254 . S
O31 Zn28 2.031 . S
O31 C35 1.269 . S
O32 Zn29 1.986 . S
O32 C39 1.262 . S
O33 Zn28 2.049 . S
O33 C41 1.260 . S
O34 Zn29 1.996 . S
O34 C41 1.257 . S
C35 O30 1.254 . S
C35 O31 1.269 . S
C36 O37 1.249 . S
C36 O38 1.270 . S
O37 Zn29 1.943 . S
O37 C36 1.249 . S
O38 Zn28 2.067 . S
O38 C36 1.270 . S
C39 O32 1.262 . S
C39 O40 1.232 . S
O40 C39 1.232 . S
C41 O33 1.260 . S
C41 O34 1.257 . S
Zn42 O45 2.031 . S
Zn42 O47 2.049 . S
Zn42 O52 2.067 . S
Zn43 O44 1.962 . S
Zn43 O46 1.986 . S
Zn43 O48 1.996 . S
Zn43 O51 1.943 . S
O44 Zn43 1.962 . S
O44 C49 1.254 . S
O45 Zn42 2.031 . S
O45 C49 1.269 . S
O46 Zn43 1.986 . S
O46 C53 1.262 . S
O47 Zn42 2.049 . S
O47 C55 1.260 . S
O48 Zn43 1.996 . S
O48 C55 1.257 . S
C49 O44 1.254 . S
C49 O45 1.269 . S
C50 O51 1.249 . S
C50 O52 1.270 . S
O51 Zn43 1.943 . S
O51 C50 1.249 . S
O52 Zn42 2.067 . S
O52 C50 1.270 . S
C53 O46 1.262 . S
C53 O54 1.232 . S
O54 C53 1.232 . S
C55 O47 1.260 . S
C55 O48 1.257 . S
Zn56 O59 2.031 . S
Zn56 O61 2.049 . S
Zn56 O66 2.067 . S
Zn57 O58 1.962 . S
Zn57 O60 1.986 . S
Zn57 O62 1.996 . S
Zn57 O65 1.943 . S
O58 Zn57 1.962 . S
O58 C63 1.254 . S
O59 Zn56 2.031 . S
O59 C63 1.269 . S
O60 Zn57 1.986 . S
O60 C67 1.262 . S
O61 Zn56 2.049 . S
O61 C69 1.260 . S
O62 Zn57 1.996 . S
O62 C69 1.257 . S
C63 O58 1.254 . S
C63 O59 1.269 . S
C64 O65 1.249 . S
C64 O66 1.270 . S
O65 Zn57 1.943 . S
O65 C64 1.249 . S
O66 Zn56 2.067 . S
O66 C64 1.270 . S
C67 O60 1.262 . S
C67 O68 1.232 . S
O68 C67 1.232 . S
C69 O61 1.260 . S
C69 O62 1.257 . S
Zn70 O73 2.031 . S
Zn70 O75 2.049 . S
Zn70 O80 2.067 . S
Zn71 O72 1.962 . S
Zn71 O74 1.986 . S
Zn71 O76 1.996 . S
Zn71 O79 1.943 . S
O72 Zn71 1.962 . S
O72 C77 1.254 . S
O73 Zn70 2.031 . S
O73 C77 1.269 . S
O74 Zn71 1.986 . S
O74 C81 1.262 . S
O75 Zn70 2.049 . S
O75 C83 1.260 . S
O76 Zn71 1.996 . S
O76 C83 1.257 . S
C77 O72 1.254 . S
C77 O73 1.269 . S
C78 O79 1.249 . S
C78 O80 1.270 . S
O79 Zn71 1.943 . S
O79 C78 1.249 . S
O80 Zn70 2.067 . S
O80 C78 1.270 . S
C81 O74 1.262 . S
C81 O82 1.232 . S
O82 C81 1.232 . S
C83 O75 1.260 . S
C83 O76 1.257 . S
Zn84 O87 2.031 . S
Zn84 O89 2.049 . S
Zn84 O94 2.067 . S
Zn85 O86 1.962 . S
Zn85 O88 1.986 . S
Zn85 O90 1.996 . S
Zn85 O93 1.943 . S
O86 Zn85 1.962 . S
O86 C91 1.254 . S
O87 Zn84 2.031 . S
O87 C91 1.269 . S
O88 Zn85 1.986 . S
O88 C95 1.262 . S
O89 Zn84 2.049 . S
O89 C97 1.260 . S
O90 Zn85 1.996 . S
O90 C97 1.257 . S
C91 O86 1.254 . S
C91 O87 1.269 . S
C92 O93 1.249 . S
C92 O94 1.270 . S
O93 Zn85 1.943 . S
O93 C92 1.249 . S
O94 Zn84 2.067 . S
O94 C92 1.270 . S
C95 O88 1.262 . S
C95 O96 1.232 . S
O96 C95 1.232 . S
C97 O89 1.260 . S
C97 O90 1.257 . S
Zn98 O101 2.031 . S
Zn98 O103 2.049 . S
Zn98 O108 2.067 . S
Zn99 O100 1.962 . S
Zn99 O102 1.986 . S
Zn99 O104 1.996 . S
Zn99 O107 1.943 . S
O100 Zn99 1.962 . S
O100 C105 1.254 . S
O101 Zn98 2.031 . S
O101 C105 1.269 . S
O102 Zn99 1.986 . S
O102 C109 1.262 . S
O103 Zn98 2.049 . S
O103 C111 1.260 . S
O104 Zn99 1.996 . S
O104 C111 1.257 . S
C105 O100 1.254 . S
C105 O101 1.269 . S
C106 O107 1.249 . S
C106 O108 1.270 . S
O107 Zn99 1.943 . S
O107 C106 1.249 . S
O108 Zn98 2.067 . S
O108 C106 1.270 . S
C109 O102 1.262 . S
C109 O110 1.232 . S
O110 C109 1.232 . S
C111 O103 1.260 . S
C111 O104 1.257 . S
Zn112 O115 2.031 . S
Zn112 O117 2.049 . S
Zn112 O122 2.067 . S
Zn113 O114 1.962 . S
Zn113 O116 1.986 . S
Zn113 O118 1.996 . S
Zn113 O121 1.943 . S
O114 Zn113 1.962 . S
O114 C119 1.254 . S
O115 Zn112 2.031 . S
O115 C119 1.269 . S
O116 Zn113 1.986 . S
O116 C123 1.262 . S
O117 Zn112 2.049 . S
O117 C125 1.260 . S
O118 Zn113 1.996 . S
O118 C125 1.257 . S
C119 O114 1.254 . S
C119 O115 1.269 . S
C120 O121 1.249 . S
C120 O122 1.270 . S
O121 Zn113 1.943 . S
O121 C120 1.249 . S
O122 Zn112 2.067 . S
O122 C120 1.270 . S
C123 O116 1.262 . S
C123 O124 1.232 . S
O124 C123 1.232 . S
C125 O117 1.260 . S
C125 O118 1.257 . S
Zn126 O129 2.031 . S
Zn126 O131 2.049 . S
Zn126 O136 2.067 . S
Zn127 O128 1.962 . S
Zn127 O130 1.986 . S
Zn127 O132 1.996 . S
Zn127 O135 1.943 . S
O128 Zn127 1.962 . S
O128 C133 1.254 . S
O129 Zn126 2.031 . S
O129 C133 1.269 . S
O130 Zn127 1.986 . S
O130 C137 1.262 . S
O131 Zn126 2.049 . S
O131 C139 1.260 . S
O132 Zn127 1.996 . S
O132 C139 1.257 . S
C133 O128 1.254 . S
C133 O129 1.269 . S
C134 O135 1.249 . S
C134 O136 1.270 . S
O135 Zn127 1.943 . S
O135 C134 1.249 . S
O136 Zn126 2.067 . S
O136 C134 1.270 . S
C137 O130 1.262 . S
C137 O138 1.232 . S
O138 C137 1.232 . S
C139 O131 1.260 . S
C139 O132 1.257 . S
Zn140 O143 2.031 . S
Zn140 O145 2.049 . S
Zn140 O150 2.067 . S
Zn141 O142 1.962 . S
Zn141 O144 1.986 . S
Zn141 O146 1.996 . S
Zn141 O149 1.943 . S
O142 Zn141 1.962 . S
O142 C147 1.254 . S
O143 Zn140 2.031 . S
O143 C147 1.269 . S
O144 Zn141 1.986 . S
O144 C151 1.262 . S
O145 Zn140 2.049 . S
O145 C153 1.260 . S
O146 Zn141 1.996 . S
O146 C153 1.257 . S
C147 O142 1.254 . S
C147 O143 1.269 . S
C148 O149 1.249 . S
C148 O150 1.270 . S
O149 Zn141 1.943 . S
O149 C148 1.249 . S
O150 Zn140 2.067 . S
O150 C148 1.270 . S
C151 O144 1.262 . S
C151 O152 1.232 . S
O152 C151 1.232 . S
C153 O145 1.260 . S
C153 O146 1.257 . S
Zn154 O157 2.031 . S
Zn154 O159 2.049 . S
Zn154 O164 2.067 . S
Zn155 O156 1.962 . S
Zn155 O158 1.986 . S
Zn155 O160 1.996 . S
Zn155 O163 1.943 . S
O156 Zn155 1.962 . S
O156 C161 1.254 . S
O157 Zn154 2.031 . S
O157 C161 1.269 . S
O158 Zn155 1.986 . S
O158 C165 1.262 . S
O159 Zn154 2.049 . S
O159 C167 1.260 . S
O160 Zn155 1.996 . S
O160 C167 1.257 . S
C161 O156 1.254 . S
C161 O157 1.269 . S
C162 O163 1.249 . S
C162 O164 1.270 . S
O163 Zn155 1.943 . S
O163 C162 1.249 . S
O164 Zn154 2.067 . S
O164 C162 1.270 . S
C165 O158 1.262 . S
C165 O166 1.232 . S
O166 C165 1.232 . S
C167 O159 1.260 . S
C167 O160 1.257 . S
Zn168 O171 2.031 . S
Zn168 O173 2.049 . S
Zn168 O178 2.067 . S
Zn169 O170 1.962 . S
Zn169 O172 1.986 . S
Zn169 O174 1.996 . S
Zn169 O177 1.943 . S
O170 Zn169 1.962 . S
O170 C175 1.254 . S
O171 Zn168 2.031 . S
O171 C175 1.269 . S
O172 Zn169 1.986 . S
O172 C179 1.262 . S
O173 Zn168 2.049 . S
O173 C181 1.260 . S
O174 Zn169 1.996 . S
O174 C181 1.257 . S
C175 O170 1.254 . S
C175 O171 1.269 . S
C176 O177 1.249 . S
C176 O178 1.270 . S
O177 Zn169 1.943 . S
O177 C176 1.249 . S
O178 Zn168 2.067 . S
O178 C176 1.270 . S
C179 O172 1.262 . S
C179 O180 1.232 . S
O180 C179 1.232 . S
C181 O173 1.260 . S
C181 O174 1.257 . S
Zn182 O185 2.031 . S
Zn182 O187 2.049 . S
Zn182 O192 2.067 . S
Zn183 O184 1.962 . S
Zn183 O186 1.986 . S
Zn183 O188 1.996 . S
Zn183 O191 1.943 . S
O184 Zn183 1.962 . S
O184 C189 1.254 . S
O185 Zn182 2.031 . S
O185 C189 1.269 . S
O186 Zn183 1.986 . S
O186 C193 1.262 . S
O187 Zn182 2.049 . S
O187 C195 1.260 . S
O188 Zn183 1.996 . S
O188 C195 1.257 . S
C189 O184 1.254 . S
C189 O185 1.269 . S
C190 O191 1.249 . S
C190 O192 1.270 . S
O191 Zn183 1.943 . S
O191 C190 1.249 . S
O192 Zn182 2.067 . S
O192 C190 1.270 . S
C193 O186 1.262 . S
C193 O194 1.232 . S
O194 C193 1.232 . S
C195 O187 1.260 . S
C195 O188 1.257 . S
Zn196 O199 2.031 . S
Zn196 O201 2.049 . S
Zn196 O206 2.067 . S
Zn197 O198 1.962 . S
Zn197 O200 1.986 . S
Zn197 O202 1.996 . S
Zn197 O205 1.943 . S
O198 Zn197 1.962 . S
O198 C203 1.254 . S
O199 Zn196 2.031 . S
O199 C203 1.269 . S
O200 Zn197 1.986 . S
O200 C207 1.262 . S
O201 Zn196 2.049 . S
O201 C209 1.260 . S
O202 Zn197 1.996 . S
O202 C209 1.257 . S
C203 O198 1.254 . S
C203 O199 1.269 . S
C204 O205 1.249 . S
C204 O206 1.270 . S
O205 Zn197 1.943 . S
O205 C204 1.249 . S
O206 Zn196 2.067 . S
O206 C204 1.270 . S
C207 O200 1.262 . S
C207 O208 1.232 . S
O208 C207 1.232 . S
C209 O201 1.260 . S
C209 O202 1.257 . S
Zn210 O213 2.031 . S
Zn210 O215 2.049 . S
Zn210 O220 2.067 . S
Zn211 O212 1.962 . S
Zn211 O214 1.986 . S
Zn211 O216 1.996 . S
Zn211 O219 1.943 . S
O212 Zn211 1.962 . S
O212 C217 1.254 . S
O213 Zn210 2.031 . S
O213 C217 1.269 . S
O214 Zn211 1.986 . S
O214 C221 1.262 . S
O215 Zn210 2.049 . S
O215 C223 1.260 . S
O216 Zn211 1.996 . S
O216 C223 1.257 . S
C217 O212 1.254 . S
C217 O213 1.269 . S
C218 O219 1.249 . S
C218 O220 1.270 . S
O219 Zn211 1.943 . S
O219 C218 1.249 . S
O220 Zn210 2.067 . S
O220 C218 1.270 . S
C221 O214 1.262 . S
C221 O222 1.232 . S
O222 C221 1.232 . S
C223 O215 1.260 . S
C223 O216 1.257 . S
C224 C225 1.349 . S
C224 C226 1.327 . S
C224 H249 0.950 . S
C225 C224 1.349 . S
C225 C241 1.349 . S
C226 C224 1.327 . S
C226 C245 1.429 . S
C226 H250 0.950 . S
C227 C244 1.574 . S
C227 C246 1.368 . S
C227 H251 0.949 . S
H228 C232 0.949 . S
C229 C230 1.349 . S
C229 C231 1.327 . S
C229 H252 0.950 . S
C230 C229 1.349 . S
C230 C242 1.349 . S
C231 C229 1.327 . S
C231 C247 1.429 . S
C231 H253 0.950 . S
C232 H228 0.949 . S
C232 C240 1.574 . S
C232 C248 1.368 . S
H233 C241 0.950 . S
H234 C239 0.950 . S
H235 C240 0.949 . S
H236 C242 0.950 . S
H237 C243 0.950 . S
H238 C244 0.949 . S
C239 H234 0.950 . S
C239 C241 1.327 . S
C239 C245 1.429 . S
C240 C232 1.574 . S
C240 H235 0.949 . S
C240 C246 1.368 . S
C241 C225 1.349 . S
C241 H233 0.950 . S
C241 C239 1.327 . S
C242 C230 1.349 . S
C242 H236 0.950 . S
C242 C243 1.327 . S
C243 H237 0.950 . S
C243 C242 1.327 . S
C243 C247 1.429 . S
C244 C227 1.574 . S
C244 H238 0.949 . S
C244 C248 1.368 . S
C245 C226 1.429 . S
C245 C239 1.429 . S
C245 C246 1.523 . S
C246 C227 1.368 . S
C246 C240 1.368 . S
C246 C245 1.523 . S
C247 C231 1.429 . S
C247 C243 1.429 . S
C247 C248 1.523 . S
C248 C232 1.368 . S
C248 C244 1.368 . S
C248 C247 1.523 . S
H249 C224 0.950 . S
H250 C226 0.950 . S
H251 C227 0.949 . S
H252 C229 0.950 . S
H253 C231 0.950 . S
C254 C255 1.349 . S
C254 C256 1.327 . S
C254 H279 0.950 . S
C255 C254 1.349 . S
C255 C271 1.349 . S
C256 C254 1.327 . S
C256 C275 1.429 . S
C256 H280 0.950 . S
C257 C274 1.574 . S
C257 C276 1.368 . S
C257 H281 0.949 . S
H258 C262 0.949 . S
C259 C260 1.349 . S
C259 C261 1.327 . S
C259 H282 0.950 . S
C260 C259 1.349 . S
C260 C272 1.349 . S
C261 C259 1.327 . S
C261 C277 1.429 . S
C261 H283 0.950 . S
C262 H258 0.949 . S
C262 C270 1.574 . S
C262 C278 1.368 . S
H263 C271 0.950 . S
H264 C269 0.950 . S
H265 C270 0.949 . S
H266 C272 0.950 . S
H267 C273 0.950 . S
H268 C274 0.949 . S
C269 H264 0.950 . S
C269 C271 1.327 . S
C269 C275 1.429 . S
C270 C262 1.574 . S
C270 H265 0.949 . S
C270 C276 1.368 . S
C271 C255 1.349 . S
C271 H263 0.950 . S
C271 C269 1.327 . S
C272 C260 1.349 . S
C272 H266 0.950 . S
C272 C273 1.327 . S
C273 H267 0.950 . S
C273 C272 1.327 . S
C273 C277 1.429 . S
C274 C257 1.574 . S
C274 H268 0.949 . S
C274 C278 1.368 . S
C275 C256 1.429 . S
C275 C269 1.429 . S
C275 C276 1.523 . S
C276 C257 1.368 . S
C276 C270 1.368 . S
C276 C275 1.523 . S
C277 C261 1.429 . S
C277 C273 1.429 . S
C277 C278 1.523 . S
C278 C262 1.368 . S
C278 C274 1.368 . S
C278 C277 1.523 . S
H279 C254 0.950 . S
H280 C256 0.950 . S
H281 C257 0.949 . S
H282 C259 0.950 . S
H283 C261 0.950 . S
C284 C285 1.349 . S
C284 C286 1.327 . S
C284 H309 0.950 . S
C285 C284 1.349 . S
C285 C301 1.349 . S
C286 C284 1.327 . S
C286 C305 1.429 . S
C286 H310 0.950 . S
C287 C304 1.574 . S
C287 C306 1.368 . S
C287 H311 0.949 . S
H288 C292 0.949 . S
C289 C290 1.349 . S
C289 C291 1.327 . S
C289 H312 0.950 . S
C290 C289 1.349 . S
C290 C302 1.349 . S
C291 C289 1.327 . S
C291 C307 1.429 . S
C291 H313 0.950 . S
C292 H288 0.949 . S
C292 C300 1.574 . S
C292 C308 1.368 . S
H293 C301 0.950 . S
H294 C299 0.950 . S
H295 C300 0.949 . S
H296 C302 0.950 . S
H297 C303 0.950 . S
H298 C304 0.949 . S
C299 H294 0.950 . S
C299 C301 1.327 . S
C299 C305 1.429 . S
C300 C292 1.574 . S
C300 H295 0.949 . S
C300 C306 1.368 . S
C301 C285 1.349 . S
C301 H293 0.950 . S
C301 C299 1.327 . S
C302 C290 1.349 . S
C302 H296 0.950 . S
C302 C303 1.327 . S
C303 H297 0.950 . S
C303 C302 1.327 . S
C303 C307 1.429 . S
C304 C287 1.574 . S
C304 H298 0.949 . S
C304 C308 1.368 . S
C305 C286 1.429 . S
C305 C299 1.429 . S
C305 C306 1.523 . S
C306 C287 1.368 . S
C306 C300 1.368 . S
C306 C305 1.523 . S
C307 C291 1.429 . S
C307 C303 1.429 . S
C307 C308 1.523 . S
C308 C292 1.368 . S
C308 C304 1.368 . S
C308 C307 1.523 . S
H309 C284 0.950 . S
H310 C286 0.950 . S
H311 C287 0.949 . S
H312 C289 0.950 . S
H313 C291 0.950 . S
C314 C315 1.349 . S
C314 C316 1.327 . S
C314 H339 0.950 . S
C315 C314 1.349 . S
C315 C331 1.349 . S
C316 C314 1.327 . S
C316 C335 1.429 . S
C316 H340 0.950 . S
C317 C334 1.574 . S
C317 C336 1.368 . S
C317 H341 0.949 . S
H318 C322 0.949 . S
C319 C320 1.349 . S
C319 C321 1.327 . S
C319 H342 0.950 . S
C320 C319 1.349 . S
C320 C332 1.349 . S
C321 C319 1.327 . S
C321 C337 1.429 . S
C321 H343 0.950 . S
C322 H318 0.949 . S
C322 C330 1.574 . S
C322 C338 1.368 . S
H323 C331 0.950 . S
H324 C329 0.950 . S
H325 C330 0.949 . S
H326 C332 0.950 . S
H327 C333 0.950 . S
H328 C334 0.949 . S
C329 H324 0.950 . S
C329 C331 1.327 . S
C329 C335 1.429 . S
C330 C322 1.574 . S
C330 H325 0.949 . S
C330 C336 1.368 . S
C331 C315 1.349 . S
C331 H323 0.950 . S
C331 C329 1.327 . S
C332 C320 1.349 . S
C332 H326 0.950 . S
C332 C333 1.327 . S
C333 H327 0.950 . S
C333 C332 1.327 . S
C333 C337 1.429 . S
C334 C317 1.574 . S
C334 H328 0.949 . S
C334 C338 1.368 . S
C335 C316 1.429 . S
C335 C329 1.429 . S
C335 C336 1.523 . S
C336 C317 1.368 . S
C336 C330 1.368 . S
C336 C335 1.523 . S
C337 C321 1.429 . S
C337 C333 1.429 . S
C337 C338 1.523 . S
C338 C322 1.368 . S
C338 C334 1.368 . S
C338 C337 1.523 . S
H339 C314 0.950 . S
H340 C316 0.950 . S
H341 C317 0.949 . S
H342 C319 0.950 . S
H343 C321 0.950 . S
C344 C345 1.349 . S
C344 C346 1.327 . S
C344 H369 0.950 . S
C345 C344 1.349 . S
C345 C361 1.349 . S
C346 C344 1.327 . S
C346 C365 1.429 . S
C346 H370 0.950 . S
C347 C364 1.574 . S
C347 C366 1.368 . S
C347 H371 0.949 . S
H348 C352 0.949 . S
C349 C350 1.349 . S
C349 C351 1.327 . S
C349 H372 0.950 . S
C350 C349 1.349 . S
C350 C362 1.349 . S
C351 C349 1.327 . S
C351 C367 1.429 . S
C351 H373 0.950 . S
C352 H348 0.949 . S
C352 C360 1.574 . S
C352 C368 1.368 . S
H353 C361 0.950 . S
H354 C359 0.950 . S
H355 C360 0.949 . S
H356 C362 0.950 . S
H357 C363 0.950 . S
H358 C364 0.949 . S
C359 H354 0.950 . S
C359 C361 1.327 . S
C359 C365 1.429 . S
C360 C352 1.574 . S
C360 H355 0.949 . S
C360 C366 1.368 . S
C361 C345 1.349 . S
C361 H353 0.950 . S
C361 C359 1.327 . S
C362 C350 1.349 . S
C362 H356 0.950 . S
C362 C363 1.327 . S
C363 H357 0.950 . S
C363 C362 1.327 . S
C363 C367 1.429 . S
C364 C347 1.574 . S
C364 H358 0.949 . S
C364 C368 1.368 . S
C365 C346 1.429 . S
C365 C359 1.429 . S
C365 C366 1.523 . S
C366 C347 1.368 . S
C366 C360 1.368 . S
C366 C365 1.523 . S
C367 C351 1.429 . S
C367 C363 1.429 . S
C367 C368 1.523 . S
C368 C352 1.368 . S
C368 C364 1.368 . S
C368 C367 1.523 . S
H369 C344 0.950 . S
H370 C346 0.950 . S
H371 C347 0.949 . S
H372 C349 0.950 . S
H373 C351 0.950 . S
C374 C375 1.349 . S
C374 C376 1.327 . S
C374 H399 0.950 . S
C375 C374 1.349 . S
C375 C391 1.349 . S
C376 C374 1.327 . S
C376 C395 1.429 . S
C376 H400 0.950 . S
C377 C394 1.574 . S
C377 C396 1.368 . S
C377 H401 0.949 . S
H378 C382 0.949 . S
C379 C380 1.349 . S
C379 C381 1.327 . S
C379 H402 0.950 . S
C380 C379 1.349 . S
C380 C392 1.349 . S
C381 C379 1.327 . S
C381 C397 1.429 . S
C381 H403 0.950 . S
C382 H378 0.949 . S
C382 C390 1.574 . S
C382 C398 1.368 . S
H383 C391 0.950 . S
H384 C389 0.950 . S
H385 C390 0.949 . S
H386 C392 0.950 . S
H387 C393 0.950 . S
H388 C394 0.949 . S
C389 H384 0.950 . S
C389 C391 1.327 . S
C389 C395 1.429 . S
C390 C382 1.574 . S
C390 H385 0.949 . S
C390 C396 1.368 . S
C391 C375 1.349 . S
C391 H383 0.950 . S
C391 C389 1.327 . S
C392 C380 1.349 . S
C392 H386 0.950 . S
C392 C393 1.327 . S
C393 H387 0.950 . S
C393 C392 1.327 . S
C393 C397 1.429 . S
C394 C377 1.574 . S
C394 H388 0.949 . S
C394 C398 1.368 . S
C395 C376 1.429 . S
C395 C389 1.429 . S
C395 C396 1.523 . S
C396 C377 1.368 . S
C396 C390 1.368 . S
C396 C395 1.523 . S
C397 C381 1.429 . S
C397 C393 1.429 . S
C397 C398 1.523 . S
C398 C382 1.368 . S
C398 C394 1.368 . S
C398 C397 1.523 . S
H399 C374 0.950 . S
H400 C376 0.950 . S
H401 C377 0.949 . S
H402 C379 0.950 . S
H403 C381 0.950 . S
C404 C405 1.349 . S
C404 C406 1.327 . S
C404 H429 0.950 . S
C405 C404 1.349 . S
C405 C421 1.349 . S
C406 C404 1.327 . S
C406 C425 1.429 . S
C406 H430 0.950 . S
C407 C424 1.574 . S
C407 C426 1.368 . S
C407 H431 0.949 . S
H408 C412 0.949 . S
C409 C410 1.349 . S
C409 C411 1.327 . S
C409 H432 0.950 . S
C410 C409 1.349 . S
C410 C422 1.349 . S
C411 C409 1.327 . S
C411 C427 1.429 . S
C411 H433 0.950 . S
C412 H408 0.949 . S
C412 C420 1.574 . S
C412 C428 1.368 . S
H413 C421 0.950 . S
H414 C419 0.950 . S
H415 C420 0.949 . S
H416 C422 0.950 . S
H417 C423 0.950 . S
H418 C424 0.949 . S
C419 H414 0.950 . S
C419 C421 1.327 . S
C419 C425 1.429 . S
C420 C412 1.574 . S
C420 H415 0.949 . S
C420 C426 1.368 . S
C421 C405 1.349 . S
C421 H413 0.950 . S
C421 C419 1.327 . S
C422 C410 1.349 . S
C422 H416 0.950 . S
C422 C423 1.327 . S
C423 H417 0.950 . S
C423 C422 1.327 . S
C423 C427 1.429 . S
C424 C407 1.574 . S
C424 H418 0.949 . S
C424 C428 1.368 . S
C425 C406 1.429 . S
C425 C419 1.429 . S
C425 C426 1.523 . S
C426 C407 1.368 . S
C426 C420 1.368 . S
C426 C425 1.523 . S
C427 C411 1.429 . S
C427 C423 1.429 . S
C427 C428 1.523 . S
C428 C412 1.368 . S
C428 C424 1.368 . S
C428 C427 1.523 . S
H429 C404 0.950 . S
H430 C406 0.950 . S
H431 C407 0.949 . S
H432 C409 0.950 . S
H433 C411 0.950 . S
C434 C435 1.349 . S
C434 C436 1.327 . S
C434 H459 0.950 . S
C435 C434 1.349 . S
C435 C451 1.349 . S
C436 C434 1.327 . S
C436 C455 1.429 . S
C436 H460 0.950 . S
C437 C454 1.574 . S
C437 C456 1.368 . S
C437 H461 0.949 . S
H438 C442 0.949 . S
C439 C440 1.349 . S
C439 C441 1.327 . S
C439 H462 0.950 . S
C440 C439 1.349 . S
C440 C452 1.349 . S
C441 C439 1.327 . S
C441 C457 1.429 . S
C441 H463 0.950 . S
C442 H438 0.949 . S
C442 C450 1.574 . S
C442 C458 1.368 . S
H443 C451 0.950 . S
H444 C449 0.950 . S
H445 C450 0.949 . S
H446 C452 0.950 . S
H447 C453 0.950 . S
H448 C454 0.949 . S
C449 H444 0.950 . S
C449 C451 1.327 . S
C449 C455 1.429 . S
C450 C442 1.574 . S
C450 H445 0.949 . S
C450 C456 1.368 . S
C451 C435 1.349 . S
C451 H443 0.950 . S
C451 C449 1.327 . S
C452 C440 1.349 . S
C452 H446 0.950 . S
C452 C453 1.327 . S
C453 H447 0.950 . S
C453 C452 1.327 . S
C453 C457 1.429 . S
C454 C437 1.574 . S
C454 H448 0.949 . S
C454 C458 1.368 . S
C455 C436 1.429 . S
C455 C449 1.429 . S
C455 C456 1.523 . S
C456 C437 1.368 . S
C456 C450 1.368 . S
C456 C455 1.523 . S
C457 C441 1.429 . S
C457 C453 1.429 . S
C457 C458 1.523 . S
C458 C442 1.368 . S
C458 C454 1.368 . S
C458 C457 1.523 . S
H459 C434 0.950 . S
H460 C436 0.950 . S
H461 C437 0.949 . S
H462 C439 0.950 . S
H463 C441 0.950 . S
C464 C465 1.349 . S
C464 C466 1.327 . S
C464 H489 0.950 . S
C465 C464 1.349 . S
C465 C481 1.349 . S
C466 C464 1.327 . S
C466 C485 1.429 . S
C466 H490 0.950 . S
C467 C484 1.574 1_565 S
C467 C486 1.368 . S
C467 H491 0.949 . S
H468 C472 0.961 . S
C469 C470 1.349 . S
C469 C471 1.327 . S
C469 H492 0.950 . S
C470 C469 1.349 . S
C470 C482 1.349 . S
C471 C469 1.327 . S
C471 C487 1.429 . S
C471 H493 0.950 . S
C472 H468 0.961 . S
C472 C480 1.537 1_545 S
C472 C488 1.394 . S
H473 C481 0.950 . S
H474 C479 0.950 . S
H475 C480 0.949 . S
H476 C482 0.950 . S
H477 C483 0.950 . S
H478 C484 0.949 . S
C479 H474 0.950 . S
C479 C481 1.327 . S
C479 C485 1.429 . S
C480 C472 1.537 1_565 S
C480 H475 0.949 . S
C480 C486 1.368 . S
C481 C465 1.349 . S
C481 H473 0.950 . S
C481 C479 1.327 . S
C482 C470 1.349 . S
C482 H476 0.950 . S
C482 C483 1.327 . S
C483 H477 0.950 . S
C483 C482 1.327 . S
C483 C487 1.429 . S
C484 C467 1.574 1_545 S
C484 H478 0.949 . S
C484 C488 1.368 . S
C485 C466 1.429 . S
C485 C479 1.429 . S
C485 C486 1.523 . S
C486 C467 1.368 . S
C486 C480 1.368 . S
C486 C485 1.523 . S
C487 C471 1.429 . S
C487 C483 1.429 . S
C487 C488 1.523 . S
C488 C472 1.394 . S
C488 C484 1.368 . S
C488 C487 1.523 . S
H489 C464 0.950 . S
H490 C466 0.950 . S
H491 C467 0.949 . S
H492 C469 0.950 . S
H493 C471 0.950 . S
C494 C495 1.349 . S
C494 C496 1.327 . S
C494 H519 0.950 . S
C495 C494 1.349 . S
C495 C511 1.349 . S
C496 C494 1.327 . S
C496 C515 1.429 . S
C496 H520 0.950 . S
C497 C514 1.574 . S
C497 C516 1.368 . S
C497 H521 0.949 . S
H498 C502 0.949 . S
C499 C500 1.349 . S
C499 C501 1.327 . S
C499 H522 0.950 . S
C500 C499 1.349 . S
C500 C512 1.349 . S
C501 C499 1.327 . S
C501 C517 1.429 . S
C501 H523 0.950 . S
C502 H498 0.949 . S
C502 C510 1.574 . S
C502 C518 1.368 . S
H503 C511 0.950 . S
H504 C509 0.950 . S
H505 C510 0.949 . S
H506 C512 0.950 . S
H507 C513 0.950 . S
H508 C514 0.949 . S
C509 H504 0.950 . S
C509 C511 1.327 . S
C509 C515 1.429 . S
C510 C502 1.574 . S
C510 H505 0.949 . S
C510 C516 1.368 . S
C511 C495 1.349 . S
C511 H503 0.950 . S
C511 C509 1.327 . S
C512 C500 1.349 . S
C512 H506 0.950 . S
C512 C513 1.327 . S
C513 H507 0.950 . S
C513 C512 1.327 . S
C513 C517 1.429 . S
C514 C497 1.574 . S
C514 H508 0.949 . S
C514 C518 1.368 . S
C515 C496 1.429 . S
C515 C509 1.429 . S
C515 C516 1.523 . S
C516 C497 1.368 . S
C516 C510 1.368 . S
C516 C515 1.523 . S
C517 C501 1.429 . S
C517 C513 1.429 . S
C517 C518 1.523 . S
C518 C502 1.368 . S
C518 C514 1.368 . S
C518 C517 1.523 . S
H519 C494 0.950 . S
H520 C496 0.950 . S
H521 C497 0.949 . S
H522 C499 0.950 . S
H523 C501 0.950 . S
C524 C525 1.349 . S
C524 C526 1.327 . S
C524 H549 0.950 . S
C525 C524 1.349 . S
C525 C541 1.349 . S
C526 C524 1.327 . S
C526 C545 1.429 . S
C526 H550 0.950 . S
C527 C544 1.574 . S
C527 C546 1.368 . S
C527 H551 0.949 . S
H528 C532 0.949 . S
C529 C530 1.349 . S
C529 C531 1.327 . S
C529 H552 0.950 . S
C530 C529 1.349 . S
C530 C542 1.349 . S
C531 C529 1.327 . S
C531 C547 1.429 . S
C531 H553 0.950 . S
C532 H528 0.949 . S
C532 C540 1.574 1_554 S
C532 C548 1.368 . S
H533 C541 0.950 . S
H534 C539 0.950 . S
H535 C540 0.949 . S
H536 C542 0.950 . S
H537 C543 0.950 . S
H538 C544 0.949 . S
C539 H534 0.950 . S
C539 C541 1.327 . S
C539 C545 1.429 . S
C540 C532 1.574 1_556 S
C540 H535 0.949 . S
C540 C546 1.368 . S
C541 C525 1.349 . S
C541 H533 0.950 . S
C541 C539 1.327 . S
C542 C530 1.349 . S
C542 H536 0.950 . S
C542 C543 1.327 . S
C543 H537 0.950 . S
C543 C542 1.327 . S
C543 C547 1.429 . S
C544 C527 1.574 . S
C544 H538 0.949 . S
C544 C548 1.368 1_556 S
C545 C526 1.429 . S
C545 C539 1.429 . S
C545 C546 1.523 . S
C546 C527 1.368 . S
C546 C540 1.368 . S
C546 C545 1.523 . S
C547 C531 1.429 . S
C547 C543 1.429 . S
C547 C548 1.523 . S
C548 C532 1.368 . S
C548 C544 1.368 1_554 S
C548 C547 1.523 . S
H549 C524 0.950 . S
H550 C526 0.950 . S
H551 C527 0.949 . S
H552 C529 0.950 . S
H553 C531 0.950 . S
C554 C555 1.349 . S
C554 C556 1.327 . S
C554 H579 0.950 . S
C555 C554 1.349 . S
C555 C571 1.349 . S
C556 C554 1.327 . S
C556 C575 1.429 . S
C556 H580 0.950 . S
C557 C574 1.574 . S
C557 C576 1.368 1_556 S
C557 H581 0.949 . S
H558 C562 0.949 . S
C559 C560 1.349 . S
C559 C561 1.327 . S
C559 H582 0.950 . S
C560 C559 1.349 . S
C560 C572 1.349 . S
C561 C559 1.327 . S
C561 C577 1.429 . S
C561 H583 0.950 . S
C562 H558 0.949 . S
C562 C570 1.574 1_556 S
C562 C578 1.368 . S
H563 C571 0.950 . S
H564 C569 0.950 . S
H565 C570 0.949 . S
H566 C572 0.950 . S
H567 C573 0.950 . S
H568 C574 0.949 . S
C569 H564 0.950 . S
C569 C571 1.327 . S
C569 C575 1.429 . S
C570 C562 1.574 1_554 S
C570 H565 0.949 . S
C570 C576 1.368 . S
C571 C555 1.349 . S
C571 H563 0.950 . S
C571 C569 1.327 . S
C572 C560 1.349 . S
C572 H566 0.950 . S
C572 C573 1.327 . S
C573 H567 0.950 . S
C573 C572 1.327 . S
C573 C577 1.429 . S
C574 C557 1.574 . S
C574 H568 0.949 . S
C574 C578 1.368 . S
C575 C556 1.429 . S
C575 C569 1.429 . S
C575 C576 1.523 . S
C576 C557 1.368 1_554 S
C576 C570 1.368 . S
C576 C575 1.523 . S
C577 C561 1.429 . S
C577 C573 1.429 . S
C577 C578 1.523 . S
C578 C562 1.368 . S
C578 C574 1.368 . S
C578 C577 1.523 . S
H579 C554 0.950 . S
H580 C556 0.950 . S
H581 C557 0.949 . S
H582 C559 0.950 . S
H583 C561 0.950 . S
C584 C585 1.349 . S
C584 C586 1.327 . S
C584 H609 0.950 . S
C585 C584 1.349 . S
C585 C601 1.349 . S
C586 C584 1.327 . S
C586 C605 1.429 . S
C586 H610 0.950 . S
C587 C604 1.574 . S
C587 C606 1.368 . S
C587 H611 0.949 . S
H588 C592 0.949 . S
C589 C590 1.349 . S
C589 C591 1.327 . S
C589 H612 0.950 . S
C590 C589 1.349 . S
C590 C602 1.349 . S
C591 C589 1.327 . S
C591 C607 1.429 . S
C591 H613 0.950 . S
C592 H588 0.949 . S
C592 C600 1.574 . S
C592 C608 1.368 . S
H593 C601 0.950 . S
H594 C599 0.950 . S
H595 C600 0.949 . S
H596 C602 0.950 . S
H597 C603 0.950 . S
H598 C604 0.949 . S
C599 H594 0.950 . S
C599 C601 1.327 . S
C599 C605 1.429 . S
C600 C592 1.574 . S
C600 H595 0.949 . S
C600 C606 1.368 . S
C601 C585 1.349 . S
C601 H593 0.950 . S
C601 C599 1.327 . S
C602 C590 1.349 . S
C602 H596 0.950 . S
C602 C603 1.327 . S
C603 H597 0.950 . S
C603 C602 1.327 . S
C603 C607 1.429 . S
C604 C587 1.574 . S
C604 H598 0.949 . S
C604 C608 1.368 . S
C605 C586 1.429 . S
C605 C599 1.429 . S
C605 C606 1.523 . S
C606 C587 1.368 . S
C606 C600 1.368 . S
C606 C605 1.523 . S
C607 C591 1.429 . S
C607 C603 1.429 . S
C607 C608 1.523 . S
C608 C592 1.368 . S
C608 C604 1.368 . S
C608 C607 1.523 . S
H609 C584 0.950 . S
H610 C586 0.950 . S
H611 C587 0.949 . S
H612 C589 0.950 . S
H613 C591 0.950 . S
C614 C615 1.349 . S
C614 C616 1.327 . S
C614 H639 0.950 . S
C615 C614 1.349 . S
C615 C631 1.349 . S
C616 C614 1.327 . S
C616 C635 1.429 . S
C616 H640 0.950 . S
C617 C634 1.574 . S
C617 C636 1.368 . S
C617 H641 0.949 . S
H618 C622 0.949 . S
C619 C620 1.349 . S
C619 C621 1.327 . S
C619 H642 0.950 . S
C620 C619 1.349 . S
C620 C632 1.349 . S
C621 C619 1.327 . S
C621 C637 1.429 . S
C621 H643 0.950 . S
C622 H618 0.949 . S
C622 C630 1.574 . S
C622 C638 1.368 . S
H623 C631 0.950 . S
H624 C629 0.950 . S
H625 C630 0.949 . S
H626 C632 0.950 . S
H627 C633 0.950 . S
H628 C634 0.949 . S
C629 H624 0.950 . S
C629 C631 1.327 . S
C629 C635 1.429 . S
C630 C622 1.574 . S
C630 H625 0.949 . S
C630 C636 1.368 . S
C631 C615 1.349 . S
C631 H623 0.950 . S
C631 C629 1.327 . S
C632 C620 1.349 . S
C632 H626 0.950 . S
C632 C633 1.327 . S
C633 H627 0.950 . S
C633 C632 1.327 . S
C633 C637 1.429 . S
C634 C617 1.574 . S
C634 H628 0.949 . S
C634 C638 1.368 . S
C635 C616 1.429 . S
C635 C629 1.429 . S
C635 C636 1.523 . S
C636 C617 1.368 . S
C636 C630 1.368 . S
C636 C635 1.523 . S
C637 C621 1.429 . S
C637 C633 1.429 . S
C637 C638 1.523 . S
C638 C622 1.368 . S
C638 C634 1.368 . S
C638 C637 1.523 . S
H639 C614 0.950 . S
H640 C616 0.950 . S
H641 C617 0.949 . S
H642 C619 0.950 . S
H643 C621 0.950 . S
C644 C645 1.349 . S
C644 C646 1.327 . S
C644 H669 0.950 . S
C645 C644 1.349 . S
C645 C661 1.349 . S
C646 C644 1.327 . S
C646 C665 1.429 . S
C646 H670 0.950 . S
C647 C664 1.574 1_655 S
C647 C666 1.368 . S
C647 H671 0.949 . S
H648 C652 0.949 . S
C649 C650 1.349 . S
C649 C651 1.327 . S
C649 H672 0.950 . S
C650 C649 1.349 . S
C650 C662 1.349 . S
C651 C649 1.327 . S
C651 C667 1.429 . S
C651 H673 0.950 . S
C652 H648 0.949 . S
C652 C660 1.574 1_455 S
C652 C668 1.368 . S
H653 C661 0.950 . S
H654 C659 0.950 . S
H655 C660 0.949 . S
H656 C662 0.950 . S
H657 C663 0.950 . S
H658 C664 0.949 . S
C659 H654 0.950 . S
C659 C661 1.327 . S
C659 C665 1.429 . S
C660 C652 1.574 1_655 S
C660 H655 0.949 . S
C660 C666 1.368 . S
C661 C645 1.349 . S
C661 H653 0.950 . S
C661 C659 1.327 . S
C662 C650 1.349 . S
C662 H656 0.950 . S
C662 C663 1.327 . S
C663 H657 0.950 . S
C663 C662 1.327 . S
C663 C667 1.429 . S
C664 C647 1.574 1_455 S
C664 H658 0.949 . S
C664 C668 1.368 . S
C665 C646 1.429 . S
C665 C659 1.429 . S
C665 C666 1.523 . S
C666 C647 1.368 . S
C666 C660 1.368 . S
C666 C665 1.523 . S
C667 C651 1.429 . S
C667 C663 1.429 . S
C667 C668 1.523 . S
C668 C652 1.368 . S
C668 C664 1.368 . S
C668 C667 1.523 . S
H669 C644 0.950 . S
H670 C646 0.950 . S
H671 C647 0.949 . S
H672 C649 0.950 . S
H673 C651 0.950 . S
C674 C675 1.349 . S
C674 C676 1.327 . S
C674 H699 0.950 . S
C675 C674 1.349 . S
C675 C691 1.349 . S
C676 C674 1.327 . S
C676 C695 1.429 . S
C676 H700 0.950 . S
C677 C694 1.574 . S
C677 C696 1.368 . S
C677 H701 0.949 . S
H678 C682 0.949 . S
C679 C680 1.349 . S
C679 C681 1.327 . S
C679 H702 0.950 . S
C680 C679 1.349 . S
C680 C692 1.349 . S
C681 C679 1.327 . S
C681 C697 1.429 . S
C681 H703 0.950 . S
C682 H678 0.949 . S
C682 C690 1.574 1_455 S
C682 C698 1.368 . S
H683 C691 0.950 . S
H684 C689 0.950 . S
H685 C690 0.949 . S
H686 C692 0.950 . S
H687 C693 0.950 . S
H688 C694 0.949 1_455 S
C689 H684 0.950 . S
C689 C691 1.327 . S
C689 C695 1.429 . S
C690 C682 1.574 1_655 S
C690 H685 0.949 . S
C690 C696 1.368 . S
C691 C675 1.349 . S
C691 H683 0.950 . S
C691 C689 1.327 . S
C692 C680 1.349 . S
C692 H686 0.950 . S
C692 C693 1.327 . S
C693 H687 0.950 . S
C693 C692 1.327 . S
C693 C697 1.429 . S
C694 C677 1.574 . S
C694 H688 0.949 1_655 S
C694 C698 1.368 1_655 S
C695 C676 1.429 . S
C695 C689 1.429 . S
C695 C696 1.523 . S
C696 C677 1.368 . S
C696 C690 1.368 . S
C696 C695 1.523 . S
C697 C681 1.429 . S
C697 C693 1.429 . S
C697 C698 1.523 . S
C698 C682 1.368 . S
C698 C694 1.368 1_455 S
C698 C697 1.523 . S
H699 C674 0.950 . S
H700 C676 0.950 . S
H701 C677 0.949 . S
H702 C679 0.950 . S
H703 C681 0.950 . S
C704 C705 1.349 . S
C704 C706 1.327 . S
C704 H729 0.950 . S
C705 C704 1.349 . S
C705 C721 1.349 . S
C706 C704 1.327 . S
C706 C725 1.429 . S
C706 H730 0.950 . S
C707 C724 1.574 . S
C707 C726 1.368 . S
C707 H731 0.949 . S
H708 C712 0.949 . S
C709 C710 1.349 . S
C709 C711 1.327 . S
C709 H732 0.950 . S
C710 C709 1.349 . S
C710 C722 1.349 . S
C711 C709 1.327 . S
C711 C727 1.429 . S
C711 H733 0.950 . S
C712 H708 0.949 . S
C712 C720 1.574 . S
C712 C728 1.368 . S
H713 C721 0.950 . S
H714 C719 0.950 . S
H715 C720 0.949 . S
H716 C722 0.950 . S
H717 C723 0.950 . S
H718 C724 0.949 . S
C719 H714 0.950 . S
C719 C721 1.327 . S
C719 C725 1.429 . S
C720 C712 1.574 . S
C720 H715 0.949 . S
C720 C726 1.368 . S
C721 C705 1.349 . S
C721 H713 0.950 . S
C721 C719 1.327 . S
C722 C710 1.349 . S
C722 H716 0.950 . S
C722 C723 1.327 . S
C723 H717 0.950 . S
C723 C722 1.327 . S
C723 C727 1.429 . S
C724 C707 1.574 . S
C724 H718 0.949 . S
C724 C728 1.368 . S
C725 C706 1.429 . S
C725 C719 1.429 . S
C725 C726 1.523 . S
C726 C707 1.368 . S
C726 C720 1.368 . S
C726 C725 1.523 . S
C727 C711 1.429 . S
C727 C723 1.429 . S
C727 C728 1.523 . S
C728 C712 1.368 . S
C728 C724 1.368 . S
C728 C727 1.523 . S
H729 C704 0.950 . S
H730 C706 0.950 . S
H731 C707 0.949 . S
H732 C709 0.950 . S
H733 C711 0.950 . S
C734 C735 1.349 . S
C734 C736 1.327 . S
C734 H759 0.950 . S
C735 C734 1.349 . S
C735 C751 1.349 . S
C736 C734 1.327 . S
C736 C755 1.429 . S
C736 H760 0.950 . S
C737 C754 1.574 1_545 S
C737 C756 1.368 . S
C737 H761 0.949 . S
H738 C742 0.949 . S
C739 C740 1.349 . S
C739 C741 1.327 . S
C739 H762 0.950 . S
C740 C739 1.349 . S
C740 C752 1.349 . S
C741 C739 1.327 . S
C741 C757 1.429 . S
C741 H763 0.950 . S
C742 H738 0.949 . S
C742 C750 1.574 . S
C742 C758 1.368 1_545 S
H743 C751 0.950 . S
H744 C749 0.950 . S
H745 C750 0.949 . S
H746 C752 0.950 . S
H747 C753 0.950 . S
H748 C754 0.949 . S
C749 H744 0.950 . S
C749 C751 1.327 . S
C749 C755 1.429 . S
C750 C742 1.574 . S
C750 H745 0.949 . S
C750 C756 1.368 . S
C751 C735 1.349 . S
C751 H743 0.950 . S
C751 C749 1.327 . S
C752 C740 1.349 . S
C752 H746 0.950 . S
C752 C753 1.327 . S
C753 H747 0.950 . S
C753 C752 1.327 . S
C753 C757 1.429 . S
C754 C737 1.574 1_565 S
C754 H748 0.949 . S
C754 C758 1.368 . S
C755 C736 1.429 . S
C755 C749 1.429 . S
C755 C756 1.523 . S
C756 C737 1.368 . S
C756 C750 1.368 . S
C756 C755 1.523 . S
C757 C741 1.429 . S
C757 C753 1.429 . S
C757 C758 1.523 . S
C758 C742 1.368 1_565 S
C758 C754 1.368 . S
C758 C757 1.523 . S
H759 C734 0.950 . S
H760 C736 0.950 . S
H761 C737 0.949 . S
H762 C739 0.950 . S
H763 C741 0.950 . S
C764 C765 1.349 . S
C764 C766 1.327 . S
C764 H789 0.950 . S
C765 C764 1.349 . S
C765 C781 1.349 . S
C766 C764 1.327 . S
C766 C785 1.429 . S
C766 H790 0.950 . S
C767 C784 1.574 . S
C767 C786 1.368 . S
C767 H791 0.949 . S
H768 C772 0.949 . S
C769 C770 1.349 . S
C769 C771 1.327 . S
C769 H792 0.950 . S
C770 C769 1.349 . S
C770 C782 1.349 . S
C771 C769 1.327 . S
C771 C787 1.429 . S
C771 H793 0.950 . S
C772 H768 0.949 . S
C772 C780 1.574 . S
C772 C788 1.368 . S
H773 C781 0.950 . S
H774 C779 0.950 . S
H775 C780 0.949 . S
H776 C782 0.950 . S
H777 C783 0.950 . S
H778 C784 0.949 . S
C779 H774 0.950 . S
C779 C781 1.327 . S
C779 C785 1.429 . S
C780 C772 1.574 . S
C780 H775 0.949 . S
C780 C786 1.368 . S
C781 C765 1.349 . S
C781 H773 0.950 . S
C781 C779 1.327 . S
C782 C770 1.349 . S
C782 H776 0.950 . S
C782 C783 1.327 . S
C783 H777 0.950 . S
C783 C782 1.327 . S
C783 C787 1.429 . S
C784 C767 1.574 . S
C784 H778 0.949 . S
C784 C788 1.368 . S
C785 C766 1.429 . S
C785 C779 1.429 . S
C785 C786 1.523 . S
C786 C767 1.368 . S
C786 C780 1.368 . S
C786 C785 1.523 . S
C787 C771 1.429 . S
C787 C783 1.429 . S
C787 C788 1.523 . S
C788 C772 1.368 . S
C788 C784 1.368 . S
C788 C787 1.523 . S
H789 C764 0.950 . S
H790 C766 0.950 . S
H791 C767 0.949 . S
H792 C769 0.950 . S
H793 C771 0.950 . S
C794 C795 1.349 . S
C794 C796 1.327 . S
C794 H819 0.950 . S
C795 C794 1.349 . S
C795 C811 1.349 . S
C796 C794 1.327 . S
C796 C815 1.429 . S
C796 H820 0.950 . S
C797 C814 1.574 1_554 S
C797 C816 1.368 . S
C797 H821 0.949 . S
H798 C802 0.950 . S
C799 C800 1.349 . S
C799 C801 1.327 . S
C799 H822 0.950 . S
C800 C799 1.349 . S
C800 C812 1.349 . S
C801 C799 1.327 . S
C801 C817 1.429 . S
C801 H823 0.950 . S
C802 H798 0.950 . S
C802 C810 1.574 . S
C802 C818 1.368 1_554 S
H803 C811 0.950 . S
H804 C809 0.950 . S
H805 C810 0.949 . S
H806 C812 0.950 . S
H807 C813 0.950 . S
H808 C814 0.949 . S
C809 H804 0.950 . S
C809 C811 1.327 . S
C809 C815 1.429 . S
C810 C802 1.574 . S
C810 H805 0.949 . S
C810 C816 1.368 . S
C811 C795 1.349 . S
C811 H803 0.950 . S
C811 C809 1.327 . S
C812 C800 1.349 . S
C812 H806 0.950 . S
C812 C813 1.327 . S
C813 H807 0.950 . S
C813 C812 1.327 . S
C813 C817 1.429 . S
C814 C797 1.574 1_556 S
C814 H808 0.949 . S
C814 C818 1.368 . S
C815 C796 1.429 . S
C815 C809 1.429 . S
C815 C816 1.523 . S
C816 C797 1.368 . S
C816 C810 1.368 . S
C816 C815 1.523 . S
C817 C801 1.429 . S
C817 C813 1.429 . S
C817 C818 1.523 . S
C818 C802 1.368 1_556 S
C818 C814 1.368 . S
C818 C817 1.523 . S
H819 C794 0.950 . S
H820 C796 0.950 . S
H821 C797 0.949 . S
H822 C799 0.950 . S
H823 C801 0.950 . S
C824 C825 1.349 . S
C824 C826 1.327 . S
C824 H849 0.950 . S
C825 C824 1.349 . S
C825 C841 1.349 . S
C826 C824 1.327 . S
C826 C845 1.429 . S
C826 H850 0.950 . S
C827 C844 1.574 . S
C827 C846 1.368 1_554 S
C827 H851 0.950 1_554 S
H828 C832 0.949 . S
C829 C830 1.349 . S
C829 C831 1.327 . S
C829 H852 0.950 . S
C830 C829 1.349 . S
C830 C842 1.349 . S
C831 C829 1.327 . S
C831 C847 1.429 . S
C831 H853 0.950 . S
C832 H828 0.949 . S
C832 C840 1.574 1_554 S
C832 C848 1.368 . S
H833 C841 0.950 . S
H834 C839 0.950 . S
H835 C840 0.949 . S
H836 C842 0.950 . S
H837 C843 0.950 . S
H838 C844 0.949 . S
C839 H834 0.950 . S
C839 C841 1.327 . S
C839 C845 1.429 . S
C840 C832 1.574 1_556 S
C840 H835 0.949 . S
C840 C846 1.368 . S
C841 C825 1.349 . S
C841 H833 0.950 . S
C841 C839 1.327 . S
C842 C830 1.349 . S
C842 H836 0.950 . S
C842 C843 1.327 . S
C843 H837 0.950 . S
C843 C842 1.327 . S
C843 C847 1.429 . S
C844 C827 1.574 . S
C844 H838 0.949 . S
C844 C848 1.368 . S
C845 C826 1.429 . S
C845 C839 1.429 . S
C845 C846 1.523 . S
C846 C827 1.368 1_556 S
C846 C840 1.368 . S
C846 C845 1.523 . S
C847 C831 1.429 . S
C847 C843 1.429 . S
C847 C848 1.523 . S
C848 C832 1.368 . S
C848 C844 1.368 . S
C848 C847 1.523 . S
H849 C824 0.950 . S
H850 C826 0.950 . S
H851 C827 0.950 1_556 S
H852 C829 0.950 . S
H853 C831 0.950 . S
C854 C855 1.349 . S
C854 C856 1.327 . S
C854 H879 0.950 . S
C855 C854 1.349 . S
C855 C871 1.349 . S
C856 C854 1.327 . S
C856 C875 1.429 . S
C856 H880 0.950 . S
C857 C874 1.574 . S
C857 C876 1.368 . S
C857 H881 0.949 . S
H858 C862 0.949 . S
C859 C860 1.349 . S
C859 C861 1.327 . S
C859 H882 0.950 . S
C860 C859 1.349 . S
C860 C872 1.349 . S
C861 C859 1.327 . S
C861 C877 1.429 . S
C861 H883 0.950 . S
C862 H858 0.949 . S
C862 C870 1.574 . S
C862 C878 1.368 . S
H863 C871 0.950 . S
H864 C869 0.950 . S
H865 C870 0.949 . S
H866 C872 0.950 . S
H867 C873 0.950 . S
H868 C874 0.949 . S
C869 H864 0.950 . S
C869 C871 1.327 . S
C869 C875 1.429 . S
C870 C862 1.574 . S
C870 H865 0.949 . S
C870 C876 1.368 . S
C871 C855 1.349 . S
C871 H863 0.950 . S
C871 C869 1.327 . S
C872 C860 1.349 . S
C872 H866 0.950 . S
C872 C873 1.327 . S
C873 H867 0.950 . S
C873 C872 1.327 . S
C873 C877 1.429 . S
C874 C857 1.574 . S
C874 H868 0.949 . S
C874 C878 1.368 . S
C875 C856 1.429 . S
C875 C869 1.429 . S
C875 C876 1.523 . S
C876 C857 1.368 . S
C876 C870 1.368 . S
C876 C875 1.523 . S
C877 C861 1.429 . S
C877 C873 1.429 . S
C877 C878 1.523 . S
C878 C862 1.368 . S
C878 C874 1.368 . S
C878 C877 1.523 . S
H879 C854 0.950 . S
H880 C856 0.950 . S
H881 C857 0.949 . S
H882 C859 0.950 . S
H883 C861 0.950 . S
C884 C885 1.349 . S
C884 C886 1.327 . S
C884 H909 0.950 . S
C885 C884 1.349 . S
C885 C901 1.349 . S
C886 C884 1.327 . S
C886 C905 1.429 . S
C886 H910 0.950 . S
C887 C904 1.574 . S
C887 C906 1.368 . S
C887 H911 0.949 . S
H888 C892 0.949 . S
C889 C890 1.349 . S
C889 C891 1.327 . S
C889 H912 0.950 . S
C890 C889 1.349 . S
C890 C902 1.349 . S
C891 C889 1.327 . S
C891 C907 1.429 . S
C891 H913 0.950 . S
C892 H888 0.949 . S
C892 C900 1.574 . S
C892 C908 1.368 . S
H893 C901 0.950 . S
H894 C899 0.950 . S
H895 C900 0.949 . S
H896 C902 0.950 . S
H897 C903 0.950 . S
H898 C904 0.949 . S
C899 H894 0.950 . S
C899 C901 1.327 . S
C899 C905 1.429 . S
C900 C892 1.574 . S
C900 H895 0.949 . S
C900 C906 1.368 . S
C901 C885 1.349 . S
C901 H893 0.950 . S
C901 C899 1.327 . S
C902 C890 1.349 . S
C902 H896 0.950 . S
C902 C903 1.327 . S
C903 H897 0.950 . S
C903 C902 1.327 . S
C903 C907 1.429 . S
C904 C887 1.574 . S
C904 H898 0.949 . S
C904 C908 1.368 . S
C905 C886 1.429 . S
C905 C899 1.429 . S
C905 C906 1.523 . S
C906 C887 1.368 . S
C906 C900 1.368 . S
C906 C905 1.523 . S
C907 C891 1.429 . S
C907 C903 1.429 . S
C907 C908 1.523 . S
C908 C892 1.368 . S
C908 C904 1.368 . S
C908 C907 1.523 . S
H909 C884 0.950 . S
H910 C886 0.950 . S
H911 C887 0.949 . S
H912 C889 0.950 . S
H913 C891 0.950 . S
C914 C915 1.349 . S
C914 C916 1.327 . S
C914 H939 0.950 . S
C915 C914 1.349 . S
C915 C931 1.349 . S
C916 C914 1.327 . S
C916 C935 1.429 . S
C916 H940 0.950 . S
C917 C934 1.574 1_455 S
C917 C936 1.368 . S
C917 H941 0.949 . S
H918 C922 0.958 . S
C919 C920 1.349 . S
C919 C921 1.327 . S
C919 H942 0.950 . S
C920 C919 1.349 . S
C920 C932 1.349 . S
C921 C919 1.327 . S
C921 C937 1.429 . S
C921 H943 0.950 . S
C922 H918 0.958 . S
C922 C930 1.544 1_655 S
C922 C938 1.389 . S
H923 C931 0.950 . S
H924 C929 0.950 . S
H925 C930 0.949 . S
H926 C932 0.950 . S
H927 C933 0.950 . S
H928 C934 0.949 . S
C929 H924 0.950 . S
C929 C931 1.327 . S
C929 C935 1.429 . S
C930 C922 1.544 1_455 S
C930 H925 0.949 . S
C930 C936 1.368 . S
C931 C915 1.349 . S
C931 H923 0.950 . S
C931 C929 1.327 . S
C932 C920 1.349 . S
C932 H926 0.950 . S
C932 C933 1.327 . S
C933 H927 0.950 . S
C933 C932 1.327 . S
C933 C937 1.429 . S
C934 C917 1.574 1_655 S
C934 H928 0.949 . S
C934 C938 1.368 . S
C935 C916 1.429 . S
C935 C929 1.429 . S
C935 C936 1.523 . S
C936 C917 1.368 . S
C936 C930 1.368 . S
C936 C935 1.523 . S
C937 C921 1.429 . S
C937 C933 1.429 . S
C937 C938 1.523 . S
C938 C922 1.389 . S
C938 C934 1.368 . S
C938 C937 1.523 . S
H939 C914 0.950 . S
H940 C916 0.950 . S
H941 C917 0.949 . S
H942 C919 0.950 . S
H943 C921 0.950 . S
C944 C945 1.349 . S
C944 C946 1.327 . S
C944 H969 0.950 . S
C945 C944 1.349 . S
C945 C961 1.349 . S
C946 C944 1.327 . S
C946 C965 1.429 . S
C946 H970 0.950 . S
C947 C964 1.574 1_455 S
C947 C966 1.368 . S
C947 H971 0.949 . S
H948 C952 0.946 1_655 S
C949 C950 1.349 . S
C949 C951 1.327 . S
C949 H972 0.950 . S
C950 C949 1.349 . S
C950 C962 1.349 . S
C951 C949 1.327 . S
C951 C967 1.429 . S
C951 H973 0.950 . S
C952 H948 0.946 1_455 S
C952 C960 1.574 . S
C952 C968 1.368 1_455 S
H953 C961 0.950 . S
H954 C959 0.950 . S
H955 C960 0.949 . S
H956 C962 0.950 . S
H957 C963 0.950 . S
H958 C964 0.949 . S
C959 H954 0.950 . S
C959 C961 1.327 . S
C959 C965 1.429 . S
C960 C952 1.574 . S
C960 H955 0.949 . S
C960 C966 1.368 . S
C961 C945 1.349 . S
C961 H953 0.950 . S
C961 C959 1.327 . S
C962 C950 1.349 . S
C962 H956 0.950 . S
C962 C963 1.327 . S
C963 H957 0.950 . S
C963 C962 1.327 . S
C963 C967 1.429 . S
C964 C947 1.574 1_655 S
C964 H958 0.949 . S
C964 C968 1.368 . S
C965 C946 1.429 . S
C965 C959 1.429 . S
C965 C966 1.523 . S
C966 C947 1.368 . S
C966 C960 1.368 . S
C966 C965 1.523 . S
C967 C951 1.429 . S
C967 C963 1.429 . S
C967 C968 1.523 . S
C968 C952 1.368 1_655 S
C968 C964 1.368 . S
C968 C967 1.523 . S
H969 C944 0.950 . S
H970 C946 0.950 . S
H971 C947 0.949 . S
H972 C949 0.950 . S
H973 C951 0.950 . S
C974 C975 1.349 . S
C974 C976 1.327 . S
C974 H999 0.950 . S
C975 C974 1.349 . S
C975 C991 1.349 . S
C976 C974 1.327 . S
C976 C995 1.429 . S
C976 H1000 0.950 . S
C977 C994 1.574 . S
C977 C996 1.368 . S
C977 H1001 0.949 . S
H978 C982 0.949 . S
C979 C980 1.349 . S
C979 C981 1.327 . S
C979 H1002 0.950 . S
C980 C979 1.349 . S
C980 C992 1.349 . S
C981 C979 1.327 . S
C981 C997 1.429 . S
C981 H1003 0.950 . S
C982 H978 0.949 . S
C982 C990 1.574 . S
C982 C998 1.368 . S
H983 C991 0.950 . S
H984 C989 0.950 . S
H985 C990 0.949 . S
H986 C992 0.950 . S
H987 C993 0.950 . S
H988 C994 0.949 . S
C989 H984 0.950 . S
C989 C991 1.327 . S
C989 C995 1.429 . S
C990 C982 1.574 . S
C990 H985 0.949 . S
C990 C996 1.368 . S
C991 C975 1.349 . S
C991 H983 0.950 . S
C991 C989 1.327 . S
C992 C980 1.349 . S
C992 H986 0.950 . S
C992 C993 1.327 . S
C993 H987 0.950 . S
C993 C992 1.327 . S
C993 C997 1.429 . S
C994 C977 1.574 . S
C994 H988 0.949 . S
C994 C998 1.368 . S
C995 C976 1.429 . S
C995 C989 1.429 . S
C995 C996 1.523 . S
C996 C977 1.368 . S
C996 C990 1.368 . S
C996 C995 1.523 . S
C997 C981 1.429 . S
C997 C993 1.429 . S
C997 C998 1.523 . S
C998 C982 1.368 . S
C998 C994 1.368 . S
C998 C997 1.523 . S
H999 C974 0.950 . S
H1000 C976 0.950 . S
H1001 C977 0.949 . S
H1002 C979 0.950 . S
H1003 C981 0.950 . S
C1004 C1005 1.349 . S
C1004 C1006 1.327 . S
C1004 H1029 0.950 . S
C1005 C1004 1.349 . S
C1005 C1021 1.349 . S
C1006 C1004 1.327 . S
C1006 C1025 1.429 . S
C1006 H1030 0.950 . S
C1007 C1024 1.574 . S
C1007 C1026 1.368 . S
C1007 H1031 0.949 . S
H1008 C1012 0.949 . S
C1009 C1010 1.349 . S
C1009 C1011 1.327 . S
C1009 H1032 0.950 . S
C1010 C1009 1.349 . S
C1010 C1022 1.349 . S
C1011 C1009 1.327 . S
C1011 C1027 1.429 . S
C1011 H1033 0.950 . S
C1012 H1008 0.949 . S
C1012 C1020 1.574 . S
C1012 C1028 1.368 . S
H1013 C1021 0.950 . S
H1014 C1019 0.950 . S
H1015 C1020 0.949 . S
H1016 C1022 0.950 . S
H1017 C1023 0.950 . S
H1018 C1024 0.949 . S
C1019 H1014 0.950 . S
C1019 C1021 1.327 . S
C1019 C1025 1.429 . S
C1020 C1012 1.574 . S
C1020 H1015 0.949 . S
C1020 C1026 1.368 . S
C1021 C1005 1.349 . S
C1021 H1013 0.950 . S
C1021 C1019 1.327 . S
C1022 C1010 1.349 . S
C1022 H1016 0.950 . S
C1022 C1023 1.327 . S
C1023 H1017 0.950 . S
C1023 C1022 1.327 . S
C1023 C1027 1.429 . S
C1024 C1007 1.574 . S
C1024 H1018 0.949 . S
C1024 C1028 1.368 . S
C1025 C1006 1.429 . S
C1025 C1019 1.429 . S
C1025 C1026 1.523 . S
C1026 C1007 1.368 . S
C1026 C1020 1.368 . S
C1026 C1025 1.523 . S
C1027 C1011 1.429 . S
C1027 C1023 1.429 . S
C1027 C1028 1.523 . S
C1028 C1012 1.368 . S
C1028 C1024 1.368 . S
C1028 C1027 1.523 . S
H1029 C1004 0.950 . S
H1030 C1006 0.950 . S
H1031 C1007 0.949 . S
H1032 C1009 0.950 . S
H1033 C1011 0.950 . S
C1034 C1035 1.349 . S
C1034 C1036 1.327 . S
C1034 H1059 0.950 . S
C1035 C1034 1.349 . S
C1035 C1051 1.349 . S
C1036 C1034 1.327 . S
C1036 C1055 1.429 . S
C1036 H1060 0.950 . S
C1037 C1054 1.574 . S
C1037 C1056 1.368 1_565 S
C1037 H1061 0.953 . S
H1038 C1042 0.949 . S
C1039 C1040 1.349 . S
C1039 C1041 1.327 . S
C1039 H1062 0.950 . S
C1040 C1039 1.349 . S
C1040 C1052 1.349 . S
C1041 C1039 1.327 . S
C1041 C1057 1.429 . S
C1041 H1063 0.950 . S
C1042 H1038 0.949 . S
C1042 C1050 1.574 1_565 S
C1042 C1058 1.368 . S
H1043 C1051 0.950 . S
H1044 C1049 0.950 . S
H1045 C1050 0.949 . S
H1046 C1052 0.950 . S
H1047 C1053 0.950 . S
H1048 C1054 0.949 . S
C1049 H1044 0.950 . S
C1049 C1051 1.327 . S
C1049 C1055 1.429 . S
C1050 C1042 1.574 1_545 S
C1050 H1045 0.949 . S
C1050 C1056 1.368 . S
C1051 C1035 1.349 . S
C1051 H1043 0.950 . S
C1051 C1049 1.327 . S
C1052 C1040 1.349 . S
C1052 H1046 0.950 . S
C1052 C1053 1.327 . S
C1053 H1047 0.950 . S
C1053 C1052 1.327 . S
C1053 C1057 1.429 . S
C1054 C1037 1.574 . S
C1054 H1048 0.949 . S
C1054 C1058 1.368 . S
C1055 C1036 1.429 . S
C1055 C1049 1.429 . S
C1055 C1056 1.523 . S
C1056 C1037 1.368 1_545 S
C1056 C1050 1.368 . S
C1056 C1055 1.523 . S
C1057 C1041 1.429 . S
C1057 C1053 1.429 . S
C1057 C1058 1.523 . S
C1058 C1042 1.368 . S
C1058 C1054 1.368 . S
C1058 C1057 1.523 . S
H1059 C1034 0.950 . S
H1060 C1036 0.950 . S
H1061 C1037 0.953 . S
H1062 C1039 0.950 . S
H1063 C1041 0.950 . S
C1064 C1065 1.349 . S
C1064 C1066 1.327 . S
C1064 H1089 0.950 . S
C1065 C1064 1.349 . S
C1065 C1081 1.349 . S
C1066 C1064 1.327 . S
C1066 C1085 1.429 . S
C1066 H1090 0.950 . S
C1067 C1084 1.574 . S
C1067 C1086 1.368 . S
C1067 H1091 0.949 . S
H1068 C1072 0.949 . S
C1069 C1070 1.349 . S
C1069 C1071 1.327 . S
C1069 H1092 0.950 . S
C1070 C1069 1.349 . S
C1070 C1082 1.349 . S
C1071 C1069 1.327 . S
C1071 C1087 1.429 . S
C1071 H1093 0.950 . S
C1072 H1068 0.949 . S
C1072 C1080 1.574 . S
C1072 C1088 1.368 . S
H1073 C1081 0.950 . S
H1074 C1079 0.950 . S
H1075 C1080 0.949 . S
H1076 C1082 0.950 . S
H1077 C1083 0.950 . S
H1078 C1084 0.949 . S
C1079 H1074 0.950 . S
C1079 C1081 1.327 . S
C1079 C1085 1.429 . S
C1080 C1072 1.574 . S
C1080 H1075 0.949 . S
C1080 C1086 1.368 . S
C1081 C1065 1.349 . S
C1081 H1073 0.950 . S
C1081 C1079 1.327 . S
C1082 C1070 1.349 . S
C1082 H1076 0.950 . S
C1082 C1083 1.327 . S
C1083 H1077 0.950 . S
C1083 C1082 1.327 . S
C1083 C1087 1.429 . S
C1084 C1067 1.574 . S
C1084 H1078 0.949 . S
C1084 C1088 1.368 . S
C1085 C1066 1.429 . S
C1085 C1079 1.429 . S
C1085 C1086 1.523 . S
C1086 C1067 1.368 . S
C1086 C1080 1.368 . S
C1086 C1085 1.523 . S
C1087 C1071 1.429 . S
C1087 C1083 1.429 . S
C1087 C1088 1.523 . S
C1088 C1072 1.368 . S
C1088 C1084 1.368 . S
C1088 C1087 1.523 . S
H1089 C1064 0.950 . S
H1090 C1066 0.950 . S
H1091 C1067 0.949 . S
H1092 C1069 0.950 . S
H1093 C1071 0.950 . S
C1094 C1095 1.349 . S
C1094 C1096 1.327 . S
C1094 H1119 0.950 . S
C1095 C1094 1.349 . S
C1095 C1111 1.349 . S
C1096 C1094 1.327 . S
C1096 C1115 1.429 . S
C1096 H1120 0.950 . S
C1097 C1114 1.574 . S
C1097 C1116 1.368 . S
C1097 H1121 0.949 . S
H1098 C1102 0.949 . S
C1099 C1100 1.349 . S
C1099 C1101 1.327 . S
C1099 H1122 0.950 . S
C1100 C1099 1.349 . S
C1100 C1112 1.349 . S
C1101 C1099 1.327 . S
C1101 C1117 1.429 . S
C1101 H1123 0.950 . S
C1102 H1098 0.949 . S
C1102 C1110 1.574 . S
C1102 C1118 1.368 . S
H1103 C1111 0.950 . S
H1104 C1109 0.950 . S
H1105 C1110 0.949 . S
H1106 C1112 0.950 . S
H1107 C1113 0.950 . S
H1108 C1114 0.949 . S
C1109 H1104 0.950 . S
C1109 C1111 1.327 . S
C1109 C1115 1.429 . S
C1110 C1102 1.574 . S
C1110 H1105 0.949 . S
C1110 C1116 1.368 . S
C1111 C1095 1.349 . S
C1111 H1103 0.950 . S
C1111 C1109 1.327 . S
C1112 C1100 1.349 . S
C1112 H1106 0.950 . S
C1112 C1113 1.327 . S
C1113 H1107 0.950 . S
C1113 C1112 1.327 . S
C1113 C1117 1.429 . S
C1114 C1097 1.574 . S
C1114 H1108 0.949 . S
C1114 C1118 1.368 . S
C1115 C1096 1.429 . S
C1115 C1109 1.429 . S
C1115 C1116 1.523 . S
C1116 C1097 1.368 . S
C1116 C1110 1.368 . S
C1116 C1115 1.523 . S
C1117 C1101 1.429 . S
C1117 C1113 1.429 . S
C1117 C1118 1.523 . S
C1118 C1102 1.368 . S
C1118 C1114 1.368 . S
C1118 C1117 1.523 . S
H1119 C1094 0.950 . S
H1120 C1096 0.950 . S
H1121 C1097 0.949 . S
H1122 C1099 0.950 . S
H1123 C1101 0.950 . S
C1124 C1125 1.349 . S
C1124 C1126 1.327 . S
C1124 H1149 0.950 . S
C1125 C1124 1.349 . S
C1125 C1141 1.349 . S
C1126 C1124 1.327 . S
C1126 C1145 1.429 . S
C1126 H1150 0.950 . S
C1127 C1144 1.574 . S
C1127 C1146 1.368 . S
C1127 H1151 0.949 . S
H1128 C1132 0.949 . S
C1129 C1130 1.349 . S
C1129 C1131 1.327 . S
C1129 H1152 0.950 . S
C1130 C1129 1.349 . S
C1130 C1142 1.349 . S
C1131 C1129 1.327 . S
C1131 C1147 1.429 . S
C1131 H1153 0.950 . S
C1132 H1128 0.949 . S
C1132 C1140 1.574 1_565 S
C1132 C1148 1.368 . S
H1133 C1141 0.950 . S
H1134 C1139 0.950 . S
H1135 C1140 0.949 . S
H1136 C1142 0.950 . S
H1137 C1143 0.950 . S
H1138 C1144 0.949 . S
C1139 H1134 0.950 . S
C1139 C1141 1.327 . S
C1139 C1145 1.429 . S
C1140 C1132 1.574 1_545 S
C1140 H1135 0.949 . S
C1140 C1146 1.368 . S
C1141 C1125 1.349 . S
C1141 H1133 0.950 . S
C1141 C1139 1.327 . S
C1142 C1130 1.349 . S
C1142 H1136 0.950 . S
C1142 C1143 1.327 . S
C1143 H1137 0.950 . S
C1143 C1142 1.327 . S
C1143 C1147 1.429 . S
C1144 C1127 1.574 . S
C1144 H1138 0.949 . S
C1144 C1148 1.368 1_545 S
C1145 C1126 1.429 . S
C1145 C1139 1.429 . S
C1145 C1146 1.523 . S
C1146 C1127 1.368 . S
C1146 C1140 1.368 . S
C1146 C1145 1.523 . S
C1147 C1131 1.429 . S
C1147 C1143 1.429 . S
C1147 C1148 1.523 . S
C1148 C1132 1.368 . S
C1148 C1144 1.368 1_565 S
C1148 C1147 1.523 . S
H1149 C1124 0.950 . S
H1150 C1126 0.950 . S
H1151 C1127 0.949 . S
H1152 C1129 0.950 . S
H1153 C1131 0.950 . S
C1154 C1155 1.349 . S
C1154 C1156 1.327 . S
C1154 H1179 0.950 . S
C1155 C1154 1.349 . S
C1155 C1171 1.349 . S
C1156 C1154 1.327 . S
C1156 C1175 1.429 . S
C1156 H1180 0.950 . S
C1157 C1174 1.574 . S
C1157 C1176 1.368 . S
C1157 H1181 0.949 . S
H1158 C1162 0.949 . S
C1159 C1160 1.349 . S
C1159 C1161 1.327 . S
C1159 H1182 0.950 . S
C1160 C1159 1.349 . S
C1160 C1172 1.349 . S
C1161 C1159 1.327 . S
C1161 C1177 1.429 . S
C1161 H1183 0.950 . S
C1162 H1158 0.949 . S
C1162 C1170 1.574 . S
C1162 C1178 1.368 . S
H1163 C1171 0.950 . S
H1164 C1169 0.950 . S
H1165 C1170 0.949 . S
H1166 C1172 0.950 . S
H1167 C1173 0.950 . S
H1168 C1174 0.949 . S
C1169 H1164 0.950 . S
C1169 C1171 1.327 . S
C1169 C1175 1.429 . S
C1170 C1162 1.574 . S
C1170 H1165 0.949 . S
C1170 C1176 1.368 . S
C1171 C1155 1.349 . S
C1171 H1163 0.950 . S
C1171 C1169 1.327 . S
C1172 C1160 1.349 . S
C1172 H1166 0.950 . S
C1172 C1173 1.327 . S
C1173 H1167 0.950 . S
C1173 C1172 1.327 . S
C1173 C1177 1.429 . S
C1174 C1157 1.574 . S
C1174 H1168 0.949 . S
C1174 C1178 1.368 . S
C1175 C1156 1.429 . S
C1175 C1169 1.429 . S
C1175 C1176 1.523 . S
C1176 C1157 1.368 . S
C1176 C1170 1.368 . S
C1176 C1175 1.523 . S
C1177 C1161 1.429 . S
C1177 C1173 1.429 . S
C1177 C1178 1.523 . S
C1178 C1162 1.368 . S
C1178 C1174 1.368 . S
C1178 C1177 1.523 . S
H1179 C1154 0.950 . S
H1180 C1156 0.950 . S
H1181 C1157 0.949 . S
H1182 C1159 0.950 . S
H1183 C1161 0.950 . S
C225 C8 1.305 . S
C230 C190 1.302 . S
C255 C22 1.096 . S
C260 C134 1.089 . S
C285 C204 0.910 . S
C290 C36 0.911 . S
C315 C50 0.862 . S
C320 C218 0.862 . S
C345 C64 1.096 . S
C350 C92 1.089 . S
C375 C148 1.305 . S
C380 C78 1.302 . S
C405 C162 0.911 . S
C410 C106 0.910 . S
C435 C120 0.862 . S
C440 C176 0.862 . S
C465 C41 1.664 . S
C470 C7 1.770 . S
C495 C21 1.536 . S
C500 C55 1.458 . S
C525 C175 1.465 . S
C530 C11 1.469 . S
C555 C25 1.454 . S
C560 C161 1.450 . S
C585 C67 1.454 . S
C590 C35 1.450 . S
C615 C151 1.469 . S
C620 C49 1.465 . S
C645 C27 1.558 . S
C650 C13 1.561 . S
C675 C53 1.449 . S
C680 C39 1.449 . S
C705 C153 1.561 . S
C710 C69 1.558 . S
C735 C105 1.479 . S
C740 C83 1.352 . S
C765 C97 1.373 . S
C770 C125 1.370 . S
C795 C221 1.577 . S
C800 C81 1.578 . S
C825 C95 1.667 . S
C830 C209 1.545 . S
C855 C137 1.667 . S
C860 C111 1.545 . S
C885 C123 1.577 . S
C890 C193 1.578 . S
C915 C91 1.833 . S
C920 C77 1.832 . S
C945 C119 1.299 . S
C950 C109 1.302 . S
C975 C133 1.833 . S
C980 C189 1.832 . S
C1005 C147 1.770 . S
C1010 C167 1.664 . S
C1035 C181 1.458 . S
C1040 C63 1.536 . S
C1065 C179 1.449 . S
C1070 C165 1.449 . S
C1095 C203 1.479 . S
C1100 C195 1.352 . S
C1125 C139 1.373 . S
C1130 C223 1.370 . S
C1155 C217 1.299 . S
C1160 C207 1.302 . S
