# Generated by pormake.
# Topology sme, (6)-cn, num edge types: 1
# Building blocks:
#     Node 0, Type 0, BuildingBlock: IZENUY_clean_sbu_0, # of connection points: 6
#     Node 1, Type 0, BuildingBlock: IZENUY_clean_sbu_0, # of connection points: 6
#     Node 2, Type 0, BuildingBlock: IZENUY_clean_sbu_0, # of connection points: 6
#     Node 3, Type 0, BuildingBlock: IZENUY_clean_sbu_0, # of connection points: 6
#     Node 4, Type 0, BuildingBlock: IZENUY_clean_sbu_0, # of connection points: 6
#     Node 5, Type 0, BuildingBlock: IZENUY_clean_sbu_0, # of connection points: 6
#     Node 6, Type 0, BuildingBlock: IZENUY_clean_sbu_0, # of connection points: 6
#     Node 7, Type 0, BuildingBlock: IZENUY_clean_sbu_0, # of connection points: 6
#     Node 8, Type 0, BuildingBlock: IZENUY_clean_sbu_0, # of connection points: 6
#     Node 9, Type 0, BuildingBlock: IZENUY_clean_sbu_0, # of connection points: 6
#     Node 10, Type 0, BuildingBlock: IZENUY_clean_sbu_0, # of connection points: 6
#     Node 11, Type 0, BuildingBlock: IZENUY_clean_sbu_0, # of connection points: 6
#     Node 12, Type 0, BuildingBlock: IZENUY_clean_sbu_0, # of connection points: 6
#     Node 13, Type 0, BuildingBlock: IZENUY_clean_sbu_0, # of connection points: 6
#     Node 14, Type 0, BuildingBlock: IZENUY_clean_sbu_0, # of connection points: 6
#     Node 15, Type 0, BuildingBlock: IZENUY_clean_sbu_0, # of connection points: 6
#     Node 16, Type 0, BuildingBlock: IZENUY_clean_sbu_0, # of connection points: 6
#     Node 17, Type 0, BuildingBlock: IZENUY_clean_sbu_0, # of connection points: 6
#     Edge 18, Type (0, 0), BuildingBlock: ZUJKAS_clean_linker_0, # of connection points: 2
#     Edge 19, Type (0, 0), BuildingBlock: ZUJKAS_clean_linker_0, # of connection points: 2
#     Edge 20, Type (0, 0), BuildingBlock: ZUJKAS_clean_linker_0, # of connection points: 2
#     Edge 21, Type (0, 0), BuildingBlock: ZUJKAS_clean_linker_0, # of connection points: 2
#     Edge 22, Type (0, 0), BuildingBlock: ZUJKAS_clean_linker_0, # of connection points: 2
#     Edge 23, Type (0, 0), BuildingBlock: ZUJKAS_clean_linker_0, # of connection points: 2
#     Edge 24, Type (0, 0), BuildingBlock: ZUJKAS_clean_linker_0, # of connection points: 2
#     Edge 25, Type (0, 0), BuildingBlock: ZUJKAS_clean_linker_0, # of connection points: 2
#     Edge 26, Type (0, 0), BuildingBlock: ZUJKAS_clean_linker_0, # of connection points: 2
#     Edge 27, Type (0, 0), BuildingBlock: ZUJKAS_clean_linker_0, # of connection points: 2
#     Edge 28, Type (0, 0), BuildingBlock: ZUJKAS_clean_linker_0, # of connection points: 2
#     Edge 29, Type (0, 0), BuildingBlock: ZUJKAS_clean_linker_0, # of connection points: 2
#     Edge 30, Type (0, 0), BuildingBlock: ZUJKAS_clean_linker_0, # of connection points: 2
#     Edge 31, Type (0, 0), BuildingBlock: ZUJKAS_clean_linker_0, # of connection points: 2
#     Edge 32, Type (0, 0), BuildingBlock: ZUJKAS_clean_linker_0, # of connection points: 2
#     Edge 33, Type (0, 0), BuildingBlock: ZUJKAS_clean_linker_0, # of connection points: 2
#     Edge 34, Type (0, 0), BuildingBlock: ZUJKAS_clean_linker_0, # of connection points: 2
#     Edge 35, Type (0, 0), BuildingBlock: ZUJKAS_clean_linker_0, # of connection points: 2
#     Edge 36, Type (0, 0), BuildingBlock: ZUJKAS_clean_linker_0, # of connection points: 2
#     Edge 37, Type (0, 0), BuildingBlock: ZUJKAS_clean_linker_0, # of connection points: 2
#     Edge 38, Type (0, 0), BuildingBlock: ZUJKAS_clean_linker_0, # of connection points: 2
#     Edge 39, Type (0, 0), BuildingBlock: ZUJKAS_clean_linker_0, # of connection points: 2
#     Edge 40, Type (0, 0), BuildingBlock: ZUJKAS_clean_linker_0, # of connection points: 2
#     Edge 41, Type (0, 0), BuildingBlock: ZUJKAS_clean_linker_0, # of connection points: 2
#     Edge 42, Type (0, 0), BuildingBlock: ZUJKAS_clean_linker_0, # of connection points: 2
#     Edge 43, Type (0, 0), BuildingBlock: ZUJKAS_clean_linker_0, # of connection points: 2
#     Edge 44, Type (0, 0), BuildingBlock: ZUJKAS_clean_linker_0, # of connection points: 2
#     Edge 45, Type (0, 0), BuildingBlock: ZUJKAS_clean_linker_0, # of connection points: 2
#     Edge 46, Type (0, 0), BuildingBlock: ZUJKAS_clean_linker_0, # of connection points: 2
#     Edge 47, Type (0, 0), BuildingBlock: ZUJKAS_clean_linker_0, # of connection points: 2
#     Edge 48, Type (0, 0), BuildingBlock: ZUJKAS_clean_linker_0, # of connection points: 2
#     Edge 49, Type (0, 0), BuildingBlock: ZUJKAS_clean_linker_0, # of connection points: 2
#     Edge 50, Type (0, 0), BuildingBlock: ZUJKAS_clean_linker_0, # of connection points: 2
#     Edge 51, Type (0, 0), BuildingBlock: ZUJKAS_clean_linker_0, # of connection points: 2
#     Edge 52, Type (0, 0), BuildingBlock: ZUJKAS_clean_linker_0, # of connection points: 2
#     Edge 53, Type (0, 0), BuildingBlock: ZUJKAS_clean_linker_0, # of connection points: 2
#     Edge 54, Type (0, 0), BuildingBlock: ZUJKAS_clean_linker_0, # of connection points: 2
#     Edge 55, Type (0, 0), BuildingBlock: ZUJKAS_clean_linker_0, # of connection points: 2
#     Edge 56, Type (0, 0), BuildingBlock: ZUJKAS_clean_linker_0, # of connection points: 2
#     Edge 57, Type (0, 0), BuildingBlock: ZUJKAS_clean_linker_0, # of connection points: 2
#     Edge 58, Type (0, 0), BuildingBlock: ZUJKAS_clean_linker_0, # of connection points: 2
#     Edge 59, Type (0, 0), BuildingBlock: ZUJKAS_clean_linker_0, # of connection points: 2
#     Edge 60, Type (0, 0), BuildingBlock: ZUJKAS_clean_linker_0, # of connection points: 2
#     Edge 61, Type (0, 0), BuildingBlock: ZUJKAS_clean_linker_0, # of connection points: 2
#     Edge 62, Type (0, 0), BuildingBlock: ZUJKAS_clean_linker_0, # of connection points: 2
#     Edge 63, Type (0, 0), BuildingBlock: ZUJKAS_clean_linker_0, # of connection points: 2
#     Edge 64, Type (0, 0), BuildingBlock: ZUJKAS_clean_linker_0, # of connection points: 2
#     Edge 65, Type (0, 0), BuildingBlock: ZUJKAS_clean_linker_0, # of connection points: 2
#     Edge 66, Type (0, 0), BuildingBlock: ZUJKAS_clean_linker_0, # of connection points: 2
#     Edge 67, Type (0, 0), BuildingBlock: ZUJKAS_clean_linker_0, # of connection points: 2
#     Edge 68, Type (0, 0), BuildingBlock: ZUJKAS_clean_linker_0, # of connection points: 2
#     Edge 69, Type (0, 0), BuildingBlock: ZUJKAS_clean_linker_0, # of connection points: 2
#     Edge 70, Type (0, 0), BuildingBlock: ZUJKAS_clean_linker_0, # of connection points: 2
#     Edge 71, Type (0, 0), BuildingBlock: ZUJKAS_clean_linker_0, # of connection points: 2
# Relax obj value: 0.119
# Max RMSD: 0.169
# Mean RMSD: 0.168
data_MOF--net-sme--node1-IZENUY_clean_sbu_0--edge1-ZUJKAS_clean_linker_0
_symmetry_space_group_name_H-M    P1
_symmetry_Int_Tables_number       1
_symmetry_cell_setting            triclinic
loop_
_symmetry_equiv_pos_as_xyz
'x, y, z'
_cell_length_a     56.640835
_cell_length_b     56.639923
_cell_length_c     49.946095
_cell_angle_alpha  89.877553
_cell_angle_beta   90.144205
_cell_angle_gamma 119.88618
loop_
_atom_site_label
_atom_site_type_symbol
_atom_site_fract_x
_atom_site_fract_y
_atom_site_fract_z
_atom_type_partial_charge
Fe0 Fe 0.06221 0.31742 0.76908 0.0
Fe1 Fe 0.05496 0.26556 0.79585 0.0
O2 O 0.05745 0.2839 0.76596 0.0
Fe3 Fe 0.05595 0.27032 0.73348 0.0
O4 O 0.08684 0.30058 0.7211 0.0
O5 O 0.07672 0.33034 0.73585 0.0
O6 O 0.09616 0.329 0.78191 0.0
C7 C 0.10062 0.31709 0.80115 0.0
C8 C 0.02049 0.29278 0.73363 0.0
O9 O 0.0813 0.29628 0.8123 0.0
C10 C 0.01787 0.22322 0.76114 0.0
O11 O 0.0484 0.31368 0.80325 0.0
O12 O 0.02719 0.27 0.80972 0.0
O13 O 0.0335 0.28296 0.72145 0.0
O14 O 0.02856 0.30548 0.75572 0.0
C15 C 0.08809 0.25308 0.76341 0.0
O16 O 0.02915 0.23225 0.78355 0.0
O17 O 0.02518 0.23809 0.7405 0.0
C18 C 0.03037 0.29311 0.81557 0.0
O19 O 0.08192 0.25882 0.78585 0.0
O20 O 0.07772 0.25563 0.74176 0.0
C21 C 0.08925 0.32388 0.71935 0.0
Fe22 Fe 0.87077 0.88856 0.78713 0.0
Fe23 Fe 0.86718 0.88126 0.72618 0.0
O24 O 0.85163 0.87088 0.75826 0.0
Fe25 Fe 0.81751 0.84334 0.76107 0.0
O26 O 0.80826 0.85922 0.78759 0.0
O27 O 0.84588 0.89785 0.79652 0.0
O28 O 0.88876 0.92171 0.77003 0.0
C29 C 0.88278 0.93069 0.7493 0.0
C30 C 0.83966 0.83368 0.807 0.0
O31 O 0.87035 0.91491 0.72983 0.0
C32 C 0.8428 0.82574 0.72346 0.0
O33 O 0.89791 0.88101 0.77983 0.0
O34 O 0.9023 0.8943 0.73811 0.0
O35 O 0.82641 0.82478 0.78544 0.0
O36 O 0.85575 0.85898 0.81002 0.0
C37 C 0.81141 0.86324 0.71276 0.0
O38 O 0.86467 0.84838 0.72134 0.0
O39 O 0.82192 0.82349 0.73506 0.0
C40 C 0.91206 0.88932 0.75878 0.0
O41 O 0.83564 0.87 0.70683 0.0
O42 O 0.80376 0.85792 0.73686 0.0
C43 C 0.82048 0.88267 0.79803 0.0
Fe44 Fe 0.29928 0.07542 0.76339 0.0
Fe45 Fe 0.25367 0.07728 0.73166 0.0
O46 O 0.26716 0.0743 0.76295 0.0
Fe47 Fe 0.25026 0.07109 0.79375 0.0
O48 O 0.28013 0.10004 0.80952 0.0
O49 O 0.30855 0.0866 0.79833 0.0
O50 O 0.3155 0.11075 0.75392 0.0
C51 C 0.30689 0.11958 0.73523 0.0
C52 C 0.26785 0.03186 0.79459 0.0
O53 O 0.28766 0.10309 0.72008 0.0
C54 C 0.20617 0.03836 0.7601 0.0
O55 O 0.29858 0.06464 0.72842 0.0
O56 O 0.25651 0.04911 0.71636 0.0
O57 O 0.2595 0.04629 0.80639 0.0
O58 O 0.28269 0.04018 0.77379 0.0
C59 C 0.23989 0.10875 0.76458 0.0
O60 O 0.21801 0.05251 0.73954 0.0
O61 O 0.2186 0.04214 0.78212 0.0
C62 C 0.27899 0.04982 0.71306 0.0
O63 O 0.24904 0.10535 0.74276 0.0
O64 O 0.238 0.09477 0.78517 0.0
C65 C 0.30249 0.10066 0.81332 0.0
Fe66 Fe 0.03904 0.86468 0.24949 0.0
Fe67 Fe 0.03574 0.81537 0.27829 0.0
O68 O 0.04072 0.84902 0.27988 0.0
Fe69 Fe 0.04631 0.86528 0.31151 0.0
O70 O 0.0243 0.88014 0.30491 0.0
O71 O 0.013 0.87151 0.26216 0.0
O72 O 0.01112 0.83244 0.23653 0.0
C73 C 0.99356 0.81283 0.25055 0.0
C74 C 0.08046 0.90978 0.27881 0.0
O75 O 1.00066 0.80301 0.26961 0.0
C76 C 0.08097 0.84179 0.30882 0.0
O77 O 0.06536 0.85966 0.23312 0.0
O78 O 0.04573 0.81659 0.24294 0.0
O79 O 0.07634 0.89634 0.30022 0.0
O80 O 0.06582 0.89921 0.25827 0.0
C81 C 0.01383 0.81286 0.33001 0.0
O82 O 0.07051 0.82792 0.28779 0.0
O83 O 0.06972 0.853 0.32182 0.0
C84 C 0.0625 0.83639 0.22881 0.0
O85 O 0.02504 0.80525 0.31308 0.0
O86 O 0.0166 0.8363 0.32761 0.0
C87 C 0.0106 0.88019 0.28471 0.0
Fe88 Fe 0.24011 0.24939 0.25591 0.0
Fe89 Fe 0.27948 0.29836 0.29047 0.0
O90 O 0.25094 0.26483 0.28801 0.0
Fe91 Fe 0.23384 0.24809 0.31808 0.0
O92 O 0.22581 0.21387 0.30775 0.0
O93 O 0.23948 0.21809 0.2659 0.0
O94 O 0.27555 0.26227 0.24489 0.0
C95 C 0.29844 0.27416 0.25709 0.0
C96 C 0.19011 0.23467 0.28317 0.0
O97 O 0.30167 0.28645 0.2791 0.0
C98 C 0.24152 0.30092 0.32114 0.0
O99 O 0.23895 0.27861 0.24102 0.0
O100 O 0.27795 0.30992 0.25644 0.0
O101 O 0.20126 0.24235 0.30584 0.0
O102 O 0.20341 0.23441 0.26283 0.0
C103 C 0.28554 0.27528 0.33875 0.0
O104 O 0.25745 0.31079 0.30143 0.0
O105 O 0.23808 0.27956 0.33297 0.0
C106 C 0.25922 0.30232 0.23931 0.0
O107 O 0.28886 0.29554 0.32518 0.0
O108 O 0.26513 0.25221 0.33388 0.0
C109 C 0.22996 0.20393 0.28683 0.0
Fe110 Fe 0.85412 0.06544 0.32032 0.0
Fe111 Fe 0.80316 0.0591 0.29209 0.0
O112 O 0.83683 0.06408 0.28994 0.0
Fe113 Fe 0.85159 0.06679 0.25785 0.0
O114 O 0.86645 0.04516 0.26604 0.0
O115 O 0.86114 0.03884 0.3098 0.0
O116 O 0.82285 0.03853 0.3356 0.0
C117 C 0.80245 0.01967 0.3235 0.0
C118 C 0.89755 0.10384 0.28736 0.0
O119 O 0.79134 0.02492 0.30411 0.0
C120 C 0.82836 0.10171 0.25771 0.0
O121 O 0.84921 0.09264 0.33479 0.0
O122 O 0.80581 0.07202 0.32638 0.0
O123 O 0.88324 0.0975 0.26635 0.0
O124 O 0.88789 0.09165 0.30928 0.0
C125 C 0.79843 0.03285 0.24234 0.0
O126 O 0.81515 0.09303 0.27944 0.0
O127 O 0.83897 0.08928 0.24578 0.0
C128 C 0.82591 0.08947 0.33967 0.0
O129 O 0.79134 0.04517 0.25846 0.0
O130 O 0.82203 0.03605 0.24426 0.0
C131 C 0.86803 0.03382 0.28741 0.0
Fe132 Fe 0.7352 0.65753 0.09673 0.0
Fe133 Fe 0.73663 0.61078 0.12652 0.0
O134 O 0.73461 0.62581 0.09577 0.0
Fe135 Fe 0.73178 0.60972 0.06428 0.0
O136 O 0.76097 0.63982 0.04932 0.0
O137 O 0.74965 0.66932 0.06315 0.0
O138 O 0.76926 0.67433 0.1103 0.0
C139 C 0.77397 0.6678 0.13303 0.0
C140 C 0.69356 0.62833 0.06222 0.0
O141 O 0.75971 0.64375 0.14203 0.0
C142 C 0.69936 0.56433 0.09579 0.0
O143 O 0.72027 0.65322 0.13043 0.0
O144 O 0.70668 0.61094 0.1411 0.0
O145 O 0.7075 0.61932 0.05075 0.0
O146 O 0.70136 0.64195 0.08356 0.0
C147 C 0.76953 0.59944 0.0938 0.0
O148 O 0.71409 0.5753 0.11619 0.0
O149 O 0.70225 0.57797 0.07483 0.0
C150 C 0.70583 0.63265 0.14493 0.0
O151 O 0.76648 0.6091 0.11554 0.0
O152 O 0.7551 0.59703 0.07333 0.0
C153 C 0.76224 0.66265 0.04676 0.0
Fe154 Fe 0.47942 0.18181 0.10268 0.0
Fe155 Fe 0.53067 0.2271 0.12918 0.0
O156 O 0.51349 0.20936 0.09954 0.0
Fe157 Fe 0.52912 0.21848 0.0674 0.0
O158 O 0.50053 0.21995 0.05136 0.0
O159 O 0.46811 0.18246 0.0684 0.0
O160 O 0.46831 0.20543 0.11226 0.0
C161 C 0.47917 0.22215 0.13128 0.0
C162 C 0.50352 0.16048 0.07174 0.0
O163 O 0.4997 0.22419 0.14363 0.0
C164 C 0.57412 0.22849 0.09899 0.0
O165 O 0.48205 0.17341 0.13791 0.0
O166 O 0.52562 0.19579 0.14579 0.0
O167 O 0.5154 0.18249 0.0581 0.0
O168 O 0.49014 0.15827 0.09277 0.0
C169 C 0.54569 0.26994 0.09281 0.0
O170 O 0.56454 0.23393 0.11934 0.0
O171 O 0.55987 0.21843 0.07823 0.0
C172 C 0.5023 0.17589 0.15099 0.0
O173 O 0.53741 0.25966 0.11574 0.0
O174 O 0.54523 0.25558 0.07303 0.0
C175 C 0.47641 0.20028 0.0503 0.0
Fe176 Fe 0.91339 0.40397 0.13149 0.0
Fe177 Fe 0.91713 0.40513 0.06906 0.0
O178 O 0.92933 0.40233 0.10127 0.0
Fe179 Fe 0.95797 0.39733 0.10368 0.0
O180 O 0.93673 0.3639 0.11792 0.0
O181 O 0.91846 0.37809 0.14837 0.0
O182 O 0.88023 0.3764 0.12114 0.0
C183 C 0.86815 0.37236 0.09887 0.0
C184 C 0.9661 0.42993 0.15005 0.0
O185 O 0.88083 0.38476 0.07782 0.0
C186 C 0.97539 0.43709 0.06632 0.0
O187 O 0.90486 0.42943 0.11959 0.0
O188 O 0.91756 0.43682 0.07736 0.0
O189 O 0.96939 0.41263 0.13711 0.0
O190 O 0.9452 0.43197 0.14547 0.0
C191 C 0.93515 0.36997 0.05403 0.0
O192 O 0.95174 0.42587 0.05584 0.0
O193 O 0.97987 0.43033 0.08911 0.0
C194 C 0.90863 0.44261 0.09806 0.0
O195 O 0.91499 0.37374 0.05578 0.0
O196 O 0.95421 0.38122 0.07084 0.0
C197 C 0.92243 0.35967 0.13868 0.0
Fe198 Fe 0.70994 0.19824 0.65742 0.0
Fe199 Fe 0.70278 0.15028 0.62263 0.0
O200 O 0.70774 0.18396 0.62515 0.0
Fe201 Fe 0.70969 0.20153 0.59489 0.0
O202 O 0.73719 0.23462 0.60545 0.0
O203 O 0.73955 0.23115 0.64928 0.0
O204 O 0.73392 0.187 0.66837 0.0
C205 C 0.74645 0.1769 0.65563 0.0
C206 C 0.67721 0.21477 0.62808 0.0
O207 O 0.73709 0.1629 0.63434 0.0
C208 C 0.66289 0.15017 0.59257 0.0
O209 O 0.68008 0.16784 0.67128 0.0
O210 O 0.69032 0.1383 0.65657 0.0
O211 O 0.68419 0.21021 0.6055 0.0
O212 O 0.68681 0.21126 0.64975 0.0
C213 C 0.73232 0.17227 0.57482 0.0
O214 O 0.66821 0.13847 0.61147 0.0
O215 O 0.68171 0.17056 0.58029 0.0
C216 C 0.67815 0.14481 0.67334 0.0
O217 O 0.71444 0.1523 0.58783 0.0
O218 O 0.7361 0.19562 0.58021 0.0
C219 C 0.74794 0.24454 0.62777 0.0
Fe220 Fe 0.90097 0.58063 0.64484 0.0
Fe221 Fe 0.94506 0.63123 0.61636 0.0
O222 O 0.91669 0.5975 0.61432 0.0
Fe223 Fe 0.90499 0.5822 0.58223 0.0
O224 O 0.86851 0.56783 0.5899 0.0
O225 O 0.86727 0.57266 0.63377 0.0
O226 O 0.90398 0.61178 0.65937 0.0
C227 C 0.90718 0.63313 0.64763 0.0
C228 C 0.897 0.53699 0.61316 0.0
O229 O 0.92283 0.6432 0.62768 0.0
C230 C 0.96342 0.60645 0.58296 0.0
O231 O 0.93311 0.58629 0.65982 0.0
O232 O 0.95526 0.62943 0.65095 0.0
O233 O 0.90344 0.5503 0.59151 0.0
O234 O 0.89475 0.54708 0.63483 0.0
C235 C 0.92463 0.63524 0.56545 0.0
O236 O 0.96709 0.61931 0.60471 0.0
O237 O 0.94037 0.5945 0.5709 0.0
C238 C 0.95305 0.60962 0.66441 0.0
O239 O 0.94341 0.64264 0.5824 0.0
O240 O 0.90416 0.61173 0.56749 0.0
C241 C 0.85552 0.56597 0.61127 0.0
Fe242 Fe 0.46874 0.39494 0.62087 0.0
Fe243 Fe 0.51452 0.39242 0.59074 0.0
O244 O 0.49894 0.39265 0.62165 0.0
Fe245 Fe 0.51282 0.39078 0.65319 0.0
O246 O 0.47899 0.36922 0.66816 0.0
O247 O 0.44951 0.36154 0.63542 0.0
O248 O 0.45682 0.37953 0.58762 0.0
C249 C 0.46146 0.36381 0.57353 0.0
C250 C 0.49331 0.42432 0.66906 0.0
O251 O 0.48331 0.36333 0.57721 0.0
C252 C 0.56038 0.4248 0.62178 0.0
O253 O 0.48712 0.42842 0.60655 0.0
O254 O 0.50696 0.41723 0.57491 0.0
O255 O 0.51419 0.42183 0.6664 0.0
O256 O 0.47311 0.41098 0.65386 0.0
C257 C 0.52223 0.35487 0.62311 0.0
O258 O 0.54712 0.42119 0.60037 0.0
O259 O 0.54876 0.41185 0.643 0.0
C260 C 0.50064 0.43385 0.58515 0.0
O261 O 0.52531 0.36832 0.60183 0.0
O262 O 0.51301 0.35968 0.64418 0.0
C263 C 0.4552 0.3559 0.65816 0.0
Fe264 Fe 0.39726 0.939 0.45913 0.0
Fe265 Fe 0.39515 0.93741 0.39644 0.0
O266 O 0.3942 0.95229 0.42764 0.0
Fe267 Fe 0.38955 0.98123 0.42693 0.0
O268 O 0.4232 1.00235 0.44016 0.0
O269 O 0.41998 0.97342 0.47226 0.0
O270 O 0.42775 0.93775 0.44944 0.0
C271 C 0.43368 0.93043 0.42776 0.0
C272 C 0.36393 0.9585 0.47695 0.0
O273 O 0.42121 0.92899 0.40627 0.0
C274 C 0.35026 0.94591 0.39328 0.0
O275 O 0.37527 0.90301 0.44981 0.0
O276 O 0.36831 0.90372 0.40626 0.0
O277 O 0.37538 0.97779 0.46054 0.0
O278 O 0.36692 0.93797 0.47421 0.0
C279 C 0.4199 0.99041 0.379 0.0
O280 O 0.36834 0.94254 0.38178 0.0
O281 O 0.35555 0.96029 0.41416 0.0
C282 C 0.36363 0.891 0.42821 0.0
O283 O 0.42253 0.96974 0.38259 0.0
O284 O 0.4029 0.99303 0.39306 0.0
C285 C 0.43138 0.9972 0.46187 0.0
Fe286 Fe 0.19939 0.55235 0.46264 0.0
Fe287 Fe 0.19662 0.54438 0.40062 0.0
O288 O 0.18157 0.53505 0.43305 0.0
Fe289 Fe 0.14743 0.5078 0.43651 0.0
O290 O 0.13695 0.5315 0.44715 0.0
O291 O 0.16891 0.54993 0.47806 0.0
O292 O 0.20638 0.58511 0.44981 0.0
C293 C 0.21439 0.59573 0.42698 0.0
C294 C 0.1708 0.50121 0.48437 0.0
O295 O 0.21326 0.58153 0.40674 0.0
C296 C 0.16925 0.48589 0.40352 0.0
O297 O 0.23291 0.55882 0.45186 0.0
O298 O 0.22737 0.54383 0.41045 0.0
O299 O 0.15052 0.49882 0.47141 0.0
O300 O 0.19418 0.5208 0.47878 0.0
C301 C 0.14376 0.52708 0.38467 0.0
O302 O 0.18211 0.50832 0.39062 0.0
O303 O 0.15732 0.48399 0.42547 0.0
C304 C 0.2421 0.55376 0.43096 0.0
O305 O 0.16802 0.54649 0.38551 0.0
O306 O 0.1355 0.50914 0.40265 0.0
C307 C 0.14785 0.54762 0.46656 0.0
Fe308 Fe 0.62674 0.73372 0.4323 0.0
Fe309 Fe 0.58623 0.74188 0.39764 0.0
O310 O 0.59719 0.73706 0.42976 0.0
Fe311 Fe 0.57921 0.7352 0.45968 0.0
O312 O 0.60933 0.76296 0.47613 0.0
O313 O 0.63611 0.74674 0.46684 0.0
O314 O 0.64762 0.76781 0.42049 0.0
C315 C 0.64448 0.77562 0.39776 0.0
C316 C 0.59138 0.6926 0.46412 0.0
O317 O 0.62143 0.76455 0.38598 0.0
C318 C 0.53621 0.70528 0.42446 0.0
O319 O 0.62508 0.72022 0.39844 0.0
O320 O 0.58583 0.71192 0.38249 0.0
O321 O 0.58511 0.70902 0.47487 0.0
O322 O 0.60658 0.69928 0.44385 0.0
C323 C 0.57459 0.77564 0.42908 0.0
O324 O 0.54945 0.71999 0.40461 0.0
O325 O 0.54756 0.70749 0.44683 0.0
C326 C 0.60657 0.70903 0.38104 0.0
O327 O 0.5853 0.77231 0.40826 0.0
O328 O 0.56959 0.76036 0.4493 0.0
C329 C 0.63081 0.76207 0.48089 0.0
Fe330 Fe 0.37198 0.52778 0.92325 0.0
Fe331 Fe 0.37837 0.48529 0.95619 0.0
O332 O 0.37502 0.51491 0.95496 0.0
Fe333 Fe 0.37507 0.53099 0.98568 0.0
O334 O 0.35013 0.54085 0.97497 0.0
O335 O 0.34109 0.52813 0.93278 0.0
O336 O 0.34995 0.49343 0.9096 0.0
C337 C 0.33788 0.46977 0.92008 0.0
C338 C 0.40678 0.57614 0.95316 0.0
O339 O 0.34487 0.46495 0.94256 0.0
C340 C 0.41771 0.51887 0.99062 0.0
O341 O 0.4027 0.52914 0.90919 0.0
O342 O 0.39353 0.48892 0.92285 0.0
O343 O 0.40314 0.56367 0.97511 0.0
O344 O 0.39339 0.56396 0.93231 0.0
C345 C 0.34802 0.47825 1.004 0.0
O346 O 0.41208 0.50486 0.96954 0.0
O347 O 0.40085 0.52464 1.00122 0.0
C348 C 0.40584 0.50865 0.90691 0.0
O349 O 0.36401 0.47403 0.98989 0.0
O350 O 0.34672 0.49964 1.00004 0.0
C351 C 0.3364 0.53744 0.95383 0.0
Fe352 Fe 0.57383 0.91584 0.92632 0.0
Fe353 Fe 0.61585 0.96435 0.95949 0.0
O354 O 0.58592 0.93175 0.95806 0.0
Fe355 Fe 0.56897 0.91625 0.98858 0.0
O356 O 0.55899 0.88131 0.97877 0.0
O357 O 0.57203 0.88417 0.9368 0.0
O358 O 0.60861 0.92676 0.91434 0.0
C359 C 0.63133 0.93662 0.92666 0.0
C360 C 0.52485 0.90335 0.95452 0.0
O361 O 0.63588 0.94999 0.9481 0.0
C362 C 0.58144 0.97118 0.99167 0.0
O363 O 0.57381 0.94559 0.91128 0.0
O364 O 0.61411 0.97552 0.92531 0.0
O365 O 0.53671 0.91192 0.97677 0.0
O366 O 0.53753 0.90223 0.93407 0.0
C367 C 0.62126 0.94142 1.00817 0.0
O368 O 0.59616 0.97926 0.97095 0.0
O369 O 0.57539 0.94873 1.00296 0.0
C370 C 0.59484 0.96872 0.90893 0.0
O371 O 0.62572 0.96164 0.99393 0.0
O372 O 0.59975 0.91892 1.00422 0.0
C373 C 0.56229 0.87054 0.95798 0.0
Fe374 Fe 0.18651 0.7285 0.91544 0.0
Fe375 Fe 0.18129 0.72289 0.97762 0.0
O376 O 0.16951 0.72704 0.94576 0.0
Fe377 Fe 0.13914 0.72914 0.94396 0.0
O378 O 0.13023 0.71807 0.90903 0.0
O379 O 0.15575 0.70069 0.89961 0.0
O380 O 0.19605 0.70306 0.92489 0.0
C381 C 0.19302 0.68911 0.94574 0.0
C382 C 0.1741 0.77131 0.91305 0.0
O383 O 0.18409 0.69353 0.96718 0.0
C384 C 0.15866 0.75333 0.99498 0.0
O385 O 0.21887 0.75594 0.92744 0.0
O386 O 0.21759 0.74614 0.97051 0.0
O387 O 0.15872 0.76428 0.93345 0.0
O388 O 0.18027 0.75498 0.90168 0.0
C389 C 0.12591 0.68399 0.97359 0.0
O390 O 0.18016 0.75195 0.99287 0.0
O391 O 0.13962 0.74046 0.9785 0.0
C392 C 0.23049 0.75948 0.9499 0.0
O393 O 0.14641 0.69851 0.98844 0.0
O394 O 0.11997 0.69403 0.95379 0.0
C395 C 0.13456 0.70212 0.89508 0.0
H396 H 0.23815 0.14064 0.72379 0.0
H397 H 0.21536 0.1676 0.72339 0.0
H398 H 0.19371 0.14777 0.80639 0.0
H399 H 0.21577 0.12003 0.80673 0.0
H400 H 0.15078 0.14059 0.77909 0.0
H401 H 0.2363 0.24155 0.75038 0.0
H402 H 0.23107 0.21557 0.72679 0.0
H403 H 0.24143 0.21386 0.76054 0.0
C404 C 0.22884 0.14222 0.74211 0.0
C405 C 0.22884 0.12794 0.76529 0.0
C406 C 0.21592 0.15792 0.7419 0.0
C407 C 0.20295 0.16019 0.76495 0.0
C408 C 0.20352 0.1465 0.7883 0.0
H409 H 0.10942 0.23943 0.80623 0.0
H410 H 0.13747 0.21781 0.80597 0.0
C411 C 0.2163 0.13067 0.78849 0.0
C412 C 0.18734 0.17528 0.76433 0.0
H413 H 0.19177 0.23628 0.74813 0.0
C414 C 0.15991 0.16158 0.7725 0.0
C415 C 0.19898 0.20274 0.75567 0.0
C416 C 0.22862 0.21939 0.74811 0.0
C417 C 0.1439 0.17427 0.77191 0.0
C418 C 0.15546 0.20155 0.76302 0.0
C419 C 0.1828 0.21531 0.75478 0.0
C420 C 0.13951 0.21615 0.76287 0.0
C421 C 0.11451 0.15825 0.7805 0.0
C422 C 0.13168 0.2231 0.73869 0.0
C423 C 0.11543 0.23548 0.73871 0.0
C424 C 0.10685 0.24151 0.76296 0.0
C425 C 0.11548 0.2352 0.78711 0.0
C426 C 0.13151 0.22267 0.78704 0.0
H427 H 0.10717 0.13607 0.78181 0.0
H428 H 0.11232 0.16537 0.80054 0.0
H429 H 0.10128 0.16153 0.76632 0.0
H430 H 0.13765 0.21837 0.71975 0.0
H431 H 0.10931 0.24002 0.71971 0.0
H432 H 0.99128 0.19458 0.71574 0.0
H433 H 0.96476 0.14504 0.71036 0.0
H434 H 0.97342 0.13466 0.79462 0.0
H435 H 0.99997 0.18398 0.80024 0.0
H436 H 0.99002 0.10563 0.76078 0.0
H437 H 0.88689 0.08655 0.7328 0.0
H438 H 0.91489 0.11251 0.71402 0.0
H439 H 0.9118 0.11758 0.74901 0.0
C440 C 0.98707 0.18182 0.73328 0.0
C441 C 0.99792 0.19348 0.75844 0.0
C442 C 0.9718 0.15342 0.73015 0.0
C443 C 0.96695 0.13603 0.7521 0.0
C444 C 0.97684 0.14761 0.77738 0.0
H445 H 0.90318 0.96741 0.78996 0.0
H446 H 0.92269 0.01654 0.78811 0.0
C447 C 0.99199 0.17593 0.78056 0.0
C448 C 0.9537 0.10591 0.74855 0.0
H449 H 0.89379 0.04863 0.73222 0.0
C450 C 0.96898 0.09322 0.7545 0.0
C451 C 0.92636 0.08966 0.73999 0.0
C452 C 0.90885 0.10212 0.73373 0.0
C453 C 0.95768 0.06486 0.75246 0.0
C454 C 0.93005 0.04844 0.74483 0.0
C455 C 0.91492 0.06115 0.73812 0.0
C456 C 0.91631 0.01807 0.7456 0.0
C457 C 0.97556 0.05272 0.75845 0.0
C458 C 0.90507 1.00217 0.72245 0.0
C459 C 0.89361 0.97367 0.72343 0.0
C460 C 0.89316 0.96061 0.74761 0.0
C461 C 0.90355 0.97665 0.77084 0.0
C462 C 0.91483 1.00489 0.76985 0.0
H463 H 0.99748 0.06795 0.75585 0.0
H464 H 0.9725 0.04569 0.77957 0.0
H465 H 0.97042 0.035 0.74532 0.0
H466 H 0.90575 0.01186 0.70353 0.0
H467 H 0.88566 0.96199 0.70521 0.0
H468 H 0.94761 0.90759 0.71679 0.0
H469 H 0.99708 0.9288 0.71791 0.0
H470 H 0.99437 0.9149 0.803 0.0
H471 H 0.94451 0.89342 0.80208 0.0
H472 H 0.03155 0.97564 0.74723 0.0
H473 H 0.04714 0.88968 0.77645 0.0
H474 H 0.01508 0.88453 0.76357 0.0
H475 H 0.02469 0.89516 0.79762 0.0
C476 C 0.95737 0.9086 0.73576 0.0
C477 C 0.94187 0.89875 0.75937 0.0
C478 C 0.98578 0.92084 0.73635 0.0
C479 C 0.9996 0.92342 0.76048 0.0
C480 C 0.98423 0.91283 0.78402 0.0
H481 H 0.17289 0.00714 0.80114 0.0
H482 H 0.12329 0.97891 0.801 0.0
C483 C 0.95566 0.90056 0.78347 0.0
C484 C 0.03006 0.9389 0.76101 0.0
H485 H 0.0865 0.93335 0.77387 0.0
C486 C 0.04354 0.96633 0.75298 0.0
C487 C 0.0458 0.92691 0.76871 0.0
C488 C 0.03255 0.89739 0.7769 0.0
C489 C 0.07216 0.98211 0.75262 0.0
C490 C 0.08798 0.97002 0.75981 0.0
C491 C 0.0745 0.94264 0.76815 0.0
C492 C 0.11847 0.98567 0.7592 0.0
C493 C 0.08512 0.01184 0.74518 0.0
C494 C 0.13261 0.9983 0.73554 0.0
C495 C 0.1611 0.01463 0.73555 0.0
C496 C 0.17624 0.01853 0.75918 0.0
C497 C 0.16207 1.00478 0.78254 0.0
C498 C 0.13359 0.98856 0.78252 0.0
H499 H 0.07074 0.01964 0.74773 0.0
H500 H 0.10353 0.02446 0.7575 0.0
H501 H 0.09127 0.01442 0.72382 0.0
H502 H 0.12157 0.99586 0.71707 0.0
H503 H 0.17118 0.02466 0.71712 0.0
H504 H 0.9803 0.88579 0.24482 0.0
H505 H 0.95493 0.91012 0.24621 0.0
H506 H 0.97397 0.92693 0.33007 0.0
H507 H 1.0003 0.90331 0.32865 0.0
H508 H 0.91147 0.90382 0.27202 0.0
H509 H 0.99927 1.00241 0.3034 0.0
H510 H 1.00311 0.974 0.29318 0.0
H511 H 0.99198 0.97541 0.32658 0.0
C512 C 0.97916 0.8946 0.26366 0.0
C513 C 0.99278 0.89274 0.28658 0.0
C514 C 0.96452 0.90855 0.26441 0.0
C515 C 0.96294 0.92109 0.28806 0.0
C516 C 0.97548 0.91826 0.3113 0.0
H517 H 0.88151 0.01218 0.33005 0.0
H518 H 0.90323 0.98423 0.32957 0.0
C519 C 0.99036 0.90444 0.31054 0.0
C520 C 0.94835 0.93715 0.28813 0.0
H521 H 0.95608 0.99974 0.30276 0.0
C522 C 0.92134 0.92483 0.27865 0.0
C523 C 0.96108 0.96473 0.29657 0.0
C524 C 0.99053 0.98003 0.30524 0.0
C525 C 0.90676 0.93904 0.27783 0.0
C526 C 0.9194 0.96639 0.28662 0.0
C527 C 0.94632 0.97874 0.2961 0.0
C528 C 0.90498 0.98248 0.28646 0.0
C529 C 0.87772 0.92459 0.26798 0.0
C530 C 0.89857 0.9909 0.26233 0.0
C531 C 0.8862 0.00715 0.26247 0.0
C532 C 0.8798 0.01526 0.28678 0.0
C533 C 0.88591 0.00635 0.31088 0.0
C534 C 0.89846 0.99036 0.31069 0.0
H535 H 0.86941 0.9023 0.26597 0.0
H536 H 0.86454 0.9282 0.28184 0.0
H537 H 0.87679 0.93285 0.24808 0.0
H538 H 0.90361 0.98531 0.24335 0.0
H539 H 0.88192 0.01359 0.24353 0.0
H540 H 0.10966 0.94202 0.32132 0.0
H541 H 0.13858 0.99161 0.32227 0.0
H542 H 0.12668 0.99524 0.23749 0.0
H543 H 0.09751 0.94558 0.23627 0.0
H544 H 0.18413 0.03044 0.25916 0.0
H545 H 0.10467 0.04302 0.31176 0.0
H546 H 0.11272 0.01854 0.32568 0.0
H547 H 0.09685 0.01254 0.29336 0.0
C548 C 0.11342 0.95322 0.30274 0.0
C549 C 0.10103 0.93957 0.27871 0.0
C550 C 0.12991 0.98168 0.30337 0.0
C551 C 0.13459 0.99726 0.28002 0.0
C552 C 0.1233 0.9837 0.25579 0.0
H553 H 0.22341 0.17191 0.24292 0.0
H554 H 0.20197 0.12233 0.24114 0.0
C555 C 0.10661 0.95523 0.25515 0.0
C556 C 0.15026 0.02769 0.28115 0.0
H557 H 0.14693 0.08264 0.30463 0.0
C558 C 0.17603 0.0419 0.26906 0.0
C559 C 0.13976 0.04267 0.29413 0.0
C560 C 0.11191 0.02857 0.30685 0.0
C561 C 0.19174 0.0706 0.27006 0.0
C562 C 0.18113 0.08569 0.28286 0.0
C563 C 0.15528 0.07132 0.29488 0.0
C564 C 0.19616 0.11626 0.28396 0.0
C565 C 0.21989 0.08435 0.25802 0.0
C566 C 0.19992 0.1298 0.30854 0.0
C567 C 0.21189 0.15826 0.30959 0.0
C568 C 0.22053 0.17409 0.28606 0.0
C569 C 0.21742 0.16058 0.26152 0.0
C570 C 0.2052 0.13207 0.26048 0.0
H571 H 0.22821 0.07027 0.257 0.0
H572 H 0.21886 0.09083 0.23727 0.0
H573 H 0.23422 0.1026 0.2697 0.0
H574 H 0.19315 0.11826 0.327 0.0
H575 H 0.21381 0.16779 0.32886 0.0
H576 H 0.15688 0.21591 0.23851 0.0
H577 H 0.10761 0.1984 0.2362 0.0
H578 H 0.10639 0.21232 0.32088 0.0
H579 H 0.15532 0.23041 0.32326 0.0
H580 H 0.06647 0.15504 0.26016 0.0
H581 H 0.064 0.24664 0.29386 0.0
H582 H 0.09523 0.24768 0.28441 0.0
H583 H 0.08137 0.23678 0.31749 0.0
C584 C 0.14618 0.21553 0.25658 0.0
C585 C 0.16028 0.22473 0.28104 0.0
C586 C 0.11795 0.20547 0.25525 0.0
C587 C 0.10319 0.20448 0.27827 0.0
C588 C 0.11725 0.21355 0.30265 0.0
H589 H 0.93508 0.12508 0.32819 0.0
H590 H 0.98476 0.15123 0.3243 0.0
C591 C 0.14536 0.22371 0.30399 0.0
C592 C 0.07297 0.19268 0.27729 0.0
H593 H 0.02152 0.20441 0.29586 0.0
C594 C 0.0567 0.16602 0.26761 0.0
C595 C 0.06003 0.20691 0.28698 0.0
C596 C 0.07609 0.23618 0.296 0.0
C597 C 0.02806 0.15295 0.26829 0.0
C598 C 0.01521 0.16688 0.27879 0.0
C599 C 0.03138 0.19368 0.28797 0.0
C600 C 0.98501 0.1535 0.28108 0.0
C601 C 0.01167 0.12395 0.25857 0.0
C602 C 0.96856 0.14689 0.25813 0.0
C603 C 0.9401 0.13214 0.26027 0.0
C604 C 0.9274 0.12351 0.28544 0.0
C605 C 0.94402 0.13129 0.30848 0.0
C606 C 0.97248 0.14623 0.3063 0.0
H607 H 0.02458 0.11459 0.25503 0.0
H608 H 0.99562 0.11132 0.27332 0.0
H609 H 1.00143 0.12357 0.23948 0.0
H610 H 0.97778 0.15255 0.23848 0.0
H611 H 0.9281 0.12655 0.24206 0.0
H612 H 0.89473 0.46513 0.13953 0.0
H613 H 0.87473 0.4947 0.13707 0.0
H614 H 0.88093 0.49641 0.05108 0.0
H615 H 0.90106 0.46683 0.0533 0.0
H616 H 0.89431 0.54818 0.11296 0.0
H617 H 0.79873 0.46847 0.06572 0.0
H618 H 0.82238 0.46066 0.08233 0.0
H619 H 0.82987 0.4755 0.04947 0.0
C620 C 0.89216 0.47198 0.12004 0.0
C621 C 0.89955 0.46338 0.09661 0.0
C622 C 0.88065 0.48894 0.11869 0.0
C623 C 0.87586 0.49755 0.09388 0.0
C624 C 0.88401 0.48978 0.07047 0.0
H625 H 0.78454 0.57998 0.05034 0.0
H626 H 0.81187 0.55747 0.04991 0.0
C627 C 0.89576 0.47299 0.0718 0.0
C628 C 0.86174 0.51401 0.0926 0.0
H629 H 0.80278 0.51152 0.07209 0.0
C630 C 0.87431 0.54018 0.10399 0.0
C631 C 0.83563 0.50372 0.08087 0.0
C632 C 0.82065 0.47548 0.06905 0.0
C633 C 0.86174 0.55637 0.10365 0.0
C634 C 0.83536 0.5459 0.09232 0.0
C635 C 0.82292 0.51976 0.08078 0.0
C636 C 0.8201 0.56138 0.09249 0.0
C637 C 0.87727 0.58483 0.1149 0.0
C638 C 0.81542 0.57138 0.11651 0.0
C639 C 0.8 0.58462 0.11676 0.0
C640 C 0.78836 0.58792 0.09306 0.0
C641 C 0.7932 0.57804 0.06901 0.0
C642 C 0.80881 0.56499 0.06875 0.0
H643 H 0.89959 0.59281 0.1144 0.0
H644 H 0.87278 0.59906 0.10365 0.0
H645 H 0.87136 0.5845 0.13612 0.0
H646 H 0.82307 0.5683 0.1353 0.0
H647 H 0.79651 0.59153 0.13577 0.0
H648 H 0.54137 0.3052 0.12718 0.0
H649 H 0.56497 0.35485 0.12519 0.0
H650 H 0.60223 0.35327 0.0506 0.0
H651 H 0.57868 0.30331 0.05246 0.0
H652 H 0.63948 0.38961 0.08875 0.0
H653 H 0.55129 0.406 0.07744 0.0
H654 H 0.54818 0.38397 0.10478 0.0
H655 H 0.54899 0.37355 0.07098 0.0
C656 C 0.55432 0.3153 0.11013 0.0
C657 C 0.55803 0.30008 0.08994 0.0
C658 C 0.56772 0.34379 0.10897 0.0
C659 C 0.58522 0.35793 0.08762 0.0
C660 C 0.58873 0.34286 0.06722 0.0
H661 H 0.66276 0.53341 0.05655 0.0
H662 H 0.63493 0.4837 0.05427 0.0
C663 C 0.57513 0.31426 0.06825 0.0
C664 C 0.6009 0.38838 0.08746 0.0
H665 H 0.5938 0.44498 0.08865 0.0
C666 C 0.62947 0.4017 0.08856 0.0
C667 C 0.58794 0.40428 0.08703 0.0
C668 C 0.55742 0.39129 0.08474 0.0
C669 C 0.64533 0.4303 0.08989 0.0
C670 C 0.63234 0.44616 0.09039 0.0
C671 C 0.6038 0.43289 0.08858 0.0
C672 C 0.64812 0.47653 0.09258 0.0
C673 C 0.67594 0.44333 0.0905 0.0
C674 C 0.66428 0.48922 0.11522 0.0
C675 C 0.68015 0.51769 0.11667 0.0
C676 C 0.68029 0.53424 0.09548 0.0
C677 C 0.66333 0.52145 0.07322 0.0
C678 C 0.64737 0.49296 0.07186 0.0
H679 H 0.68281 0.42917 0.08336 0.0
H680 H 0.68563 0.46201 0.07795 0.0
H681 H 0.68322 0.44921 0.11138 0.0
H682 H 0.66484 0.47707 0.13171 0.0
H683 H 0.69283 0.52668 0.13416 0.0
H684 H 0.61005 0.24558 0.14118 0.0
H685 H 0.65964 0.26609 0.13951 0.0
H686 H 0.65549 0.25294 0.0543 0.0
H687 H 0.60582 0.23225 0.05572 0.0
H688 H 0.69465 0.24502 0.11737 0.0
H689 H 0.70668 0.33749 0.06566 0.0
H690 H 0.67604 0.31434 0.08353 0.0
H691 H 0.68277 0.30512 0.05127 0.0
C692 C 0.61957 0.24665 0.12209 0.0
C693 C 0.60377 0.23728 0.09856 0.0
C694 C 0.64799 0.25844 0.12119 0.0
C695 C 0.66137 0.26143 0.09674 0.0
C696 C 0.64566 0.25115 0.07337 0.0
H697 H 0.83447 0.35555 0.05469 0.0
H698 H 0.78481 0.32698 0.05356 0.0
C699 C 0.61719 0.23913 0.07426 0.0
C700 C 0.69175 0.27629 0.09562 0.0
H701 H 0.7466 0.33564 0.0741 0.0
C702 C 0.70604 0.26481 0.10786 0.0
C703 C 0.70664 0.30207 0.08314 0.0
C704 C 0.69239 0.31571 0.07027 0.0
C705 C 0.73474 0.27828 0.10777 0.0
C706 C 0.74972 0.30439 0.09577 0.0
C707 C 0.73532 0.31569 0.0833 0.0
C708 C 0.78021 0.32065 0.09642 0.0
C709 C 0.74866 0.26405 0.12006 0.0
C710 C 0.79445 0.32686 0.12085 0.0
C711 C 0.82291 0.34301 0.12153 0.0
C712 C 0.83797 0.35381 0.09782 0.0
C713 C 0.82368 0.3476 0.07336 0.0
C714 C 0.7952 0.33126 0.07268 0.0
H715 H 0.73507 0.24159 0.12016 0.0
H716 H 0.76761 0.26893 0.10914 0.0
H717 H 0.75402 0.27074 0.14116 0.0
H718 H 0.78351 0.31971 0.13955 0.0
H719 H 0.83304 0.34749 0.1408 0.0
H720 H 0.65562 0.22877 0.58571 0.0
H721 H 0.6266 0.24926 0.58678 0.0
H722 H 0.62545 0.24589 0.67301 0.0
H723 H 0.65506 0.22586 0.67218 0.0
H724 H 0.57606 0.23246 0.60537 0.0
H725 H 0.64922 0.32495 0.66118 0.0
H726 H 0.6586 0.30135 0.64747 0.0
H727 H 0.64019 0.29382 0.67853 0.0
C728 C 0.64922 0.23228 0.60498 0.0
C729 C 0.65801 0.22575 0.62889 0.0
C730 C 0.63253 0.24406 0.60554 0.0
C731 C 0.62416 0.24975 0.62997 0.0
C732 C 0.63216 0.24247 0.65387 0.0
H733 H 0.52901 0.32946 0.66715 0.0
H734 H 0.55156 0.30214 0.66919 0.0
C735 C 0.64898 0.23077 0.65336 0.0
C736 C 0.60722 0.26334 0.63023 0.0
H737 H 0.6056 0.31952 0.65305 0.0
C738 C 0.58258 0.25151 0.61581 0.0
C739 C 0.61559 0.28829 0.64377 0.0
C740 C 0.64245 0.30302 0.6584 0.0
C741 C 0.56614 0.26372 0.61471 0.0
C742 C 0.57457 0.28866 0.62817 0.0
C743 C 0.59901 0.30035 0.64284 0.0
C744 C 0.55889 0.30348 0.62659 0.0
C745 C 0.53967 0.24962 0.59938 0.0
C746 C 0.55523 0.31328 0.60196 0.0
C747 C 0.54236 0.32898 0.60071 0.0
C748 C 0.53279 0.33534 0.62409 0.0
C749 C 0.53587 0.32488 0.64868 0.0
C750 C 0.54891 0.30933 0.64991 0.0
H751 H 0.53263 0.22766 0.59636 0.0
H752 H 0.52348 0.25156 0.60991 0.0
H753 H 0.54265 0.25925 0.57937 0.0
H754 H 0.5631 0.30951 0.58371 0.0
H755 H 0.54058 0.33673 0.58142 0.0
H756 H 0.79521 0.27217 0.59906 0.0
H757 H 0.82672 0.3215 0.59823 0.0
H758 H 0.77574 0.33256 0.65511 0.0
H759 H 0.74599 0.28331 0.65773 0.0
H760 H 0.82369 0.36033 0.58164 0.0
H761 H 0.84377 0.38322 0.68882 0.0
H762 H 0.82604 0.34869 0.67678 0.0
H763 H 0.80778 0.36664 0.68364 0.0
C764 C 0.79134 0.28521 0.61197 0.0
C765 C 0.76857 0.27391 0.62895 0.0
C766 C 0.80921 0.31349 0.61136 0.0
C767 C 0.80427 0.33124 0.62708 0.0
C768 C 0.7811 0.31971 0.6437 0.0
H769 H 0.85966 0.49884 0.57996 0.0
H770 H 0.83913 0.44948 0.583 0.0
C771 C 0.76386 0.29143 0.64506 0.0
C772 C 0.82207 0.36167 0.62472 0.0
H773 H 0.85019 0.42083 0.66081 0.0
C774 C 0.82984 0.37343 0.59909 0.0
C775 C 0.83105 0.37929 0.64726 0.0
C776 C 0.82698 0.36872 0.67562 0.0
C777 C 0.84529 0.40185 0.59536 0.0
C778 C 0.85185 0.4195 0.61772 0.0
C779 C 0.8449 0.40772 0.64341 0.0
C780 C 0.86529 0.45 0.61508 0.0
C781 C 0.85493 0.41234 0.56739 0.0
C782 C 0.88621 0.46737 0.63278 0.0
C783 C 0.89712 0.49573 0.63183 0.0
C784 C 0.88802 0.5075 0.61257 0.0
C785 C 0.86765 0.49036 0.59448 0.0
C786 C 0.85602 0.462 0.5961 0.0
H787 H 0.8582 0.39758 0.55565 0.0
H788 H 0.83906 0.41486 0.55684 0.0
H789 H 0.87425 0.43213 0.56756 0.0
H790 H 0.89387 0.459 0.64774 0.0
H791 H 0.91254 0.50847 0.64626 0.0
H792 H 0.5928 0.4499 0.57818 0.0
H793 H 0.64243 0.47482 0.57585 0.0
H794 H 0.64692 0.46561 0.6611 0.0
H795 H 0.59712 0.43981 0.6635 0.0
H796 H 0.68166 0.52087 0.59647 0.0
H797 H 0.69425 0.43633 0.63582 0.0
H798 H 0.66143 0.43181 0.62672 0.0
H799 H 0.67641 0.44625 0.65868 0.0
C800 C 0.60424 0.4532 0.59654 0.0
C801 C 0.59072 0.44251 0.62104 0.0
C802 C 0.63277 0.46752 0.59514 0.0
C803 C 0.64868 0.47164 0.61816 0.0
C804 C 0.63527 0.46205 0.64285 0.0
H805 H 0.82136 0.5562 0.65376 0.0
H806 H 0.77183 0.53421 0.65384 0.0
C807 C 0.60669 0.44749 0.64425 0.0
C808 C 0.67915 0.48582 0.61617 0.0
H809 H 0.73467 0.47932 0.63137 0.0
C810 C 0.69318 0.51165 0.60397 0.0
C811 C 0.69443 0.47384 0.62566 0.0
C812 C 0.68086 0.44542 0.63719 0.0
C813 C 0.72182 0.52597 0.60167 0.0
C814 C 0.737 0.51424 0.61175 0.0
C815 C 0.72306 0.48838 0.62373 0.0
C816 C 0.76742 0.52879 0.61096 0.0
C817 C 0.73579 0.55387 0.58903 0.0
C818 C 0.78167 0.53324 0.58674 0.0
C819 C 0.81027 0.54575 0.58656 0.0
C820 C 0.82525 0.55419 0.61064 0.0
C821 C 0.81076 0.55007 0.63476 0.0
C822 C 0.7823 0.53741 0.6349 0.0
H823 H 0.7216 0.56181 0.58576 0.0
H824 H 0.75295 0.56845 0.60181 0.0
H825 H 0.74434 0.55285 0.56938 0.0
H826 H 0.77063 0.52654 0.568 0.0
H827 H 0.82059 0.54845 0.56762 0.0
H828 H 0.57031 0.80448 0.38652 0.0
H829 H 0.55038 0.83427 0.3863 0.0
H830 H 0.53671 0.82262 0.47131 0.0
H831 H 0.55649 0.79286 0.47175 0.0
H832 H 0.49624 0.81919 0.4027 0.0
H833 H 0.5728 0.90607 0.46286 0.0
H834 H 0.58004 0.88156 0.44744 0.0
H835 H 0.56059 0.87313 0.47783 0.0
C836 C 0.56349 0.80857 0.40528 0.0
C837 C 0.5652 0.79619 0.42917 0.0
C838 C 0.55195 0.82557 0.4051 0.0
C839 C 0.5422 0.83103 0.42883 0.0
C840 C 0.54443 0.81919 0.45278 0.0
H841 H 0.45528 0.91738 0.47111 0.0
H842 H 0.48214 0.8943 0.47086 0.0
C843 C 0.55571 0.80202 0.45296 0.0
C844 C 0.52831 0.84772 0.42834 0.0
H845 H 0.53146 0.90554 0.45333 0.0
C846 C 0.50408 0.83819 0.4136 0.0
C847 C 0.53824 0.87239 0.44279 0.0
C848 C 0.56446 0.8841 0.45848 0.0
C849 C 0.4893 0.85219 0.41336 0.0
C850 C 0.49935 0.87708 0.42758 0.0
C851 C 0.52365 0.88663 0.44231 0.0
C852 C 0.48473 0.89316 0.4277 0.0
C853 C 0.46246 0.83952 0.39861 0.0
C854 C 0.47794 0.90132 0.40362 0.0
C855 C 0.4624 0.91441 0.4037 0.0
C856 C 0.45356 0.92021 0.4279 0.0
C857 C 0.46169 0.9134 0.45206 0.0
C858 C 0.47704 0.90005 0.45194 0.0
H859 H 0.45382 0.81724 0.39593 0.0
H860 H 0.4473 0.84296 0.40937 0.0
H861 H 0.46565 0.84881 0.37841 0.0
H862 H 0.48428 0.89718 0.38462 0.0
H863 H 0.45682 0.91948 0.38468 0.0
H864 H 0.341 0.85771 0.38464 0.0
H865 H 0.31402 0.80805 0.38353 0.0
H866 H 0.31778 0.80537 0.46955 0.0
H867 H 0.34516 0.85526 0.47096 0.0
H868 H 0.3315 0.77045 0.40724 0.0
H869 H 0.23429 0.75671 0.4484 0.0
H870 H 0.25945 0.78818 0.43301 0.0
H871 H 0.26507 0.77955 0.46608 0.0
C872 C 0.33597 0.84671 0.40344 0.0
C873 C 0.34537 0.86073 0.42794 0.0
C874 C 0.32056 0.81821 0.40271 0.0
C875 C 0.31374 0.80291 0.42643 0.0
C876 C 0.32259 0.81673 0.45098 0.0
H877 H 0.22217 0.63176 0.46709 0.0
H878 H 0.24591 0.68122 0.46531 0.0
C879 C 0.33829 0.84531 0.45174 0.0
C880 C 0.29817 0.77252 0.42531 0.0
H881 H 0.23674 0.71692 0.44064 0.0
C882 C 0.31073 0.7587 0.41444 0.0
C883 C 0.27113 0.75721 0.43476 0.0
C884 C 0.25647 0.77103 0.4461 0.0
C885 C 0.29729 0.73002 0.4134 0.0
C886 C 0.27008 0.71458 0.4227 0.0
C887 C 0.25748 0.72854 0.43336 0.0
C888 C 0.25482 0.68402 0.42295 0.0
C889 C 0.31281 0.71659 0.40328 0.0
C890 C 0.25121 0.66864 0.3996 0.0
C891 C 0.23772 0.64 0.40057 0.0
C892 C 0.22717 0.62604 0.42487 0.0
C893 C 0.23004 0.64156 0.44796 0.0
C894 C 0.24365 0.67004 0.447 0.0
H895 H 0.33518 0.73064 0.40409 0.0
H896 H 0.30791 0.6981 0.41513 0.0
H897 H 0.30717 0.71049 0.3821 0.0
H898 H 0.25889 0.67876 0.38058 0.0
H899 H 0.2358 0.62884 0.38235 0.0
H900 H 0.27899 0.56943 0.47222 0.0
H901 H 0.3286 0.59204 0.46918 0.0
H902 H 0.32295 0.58425 0.38324 0.0
H903 H 0.2732 0.56086 0.38616 0.0
H904 H 0.36335 0.57643 0.40191 0.0
H905 H 0.37416 0.67036 0.44741 0.0
H906 H 0.35641 0.64132 0.46886 0.0
H907 H 0.34161 0.64244 0.43724 0.0
C908 C 0.28822 0.57214 0.45266 0.0
C909 C 0.27192 0.56341 0.42943 0.0
C910 C 0.3167 0.58538 0.45092 0.0
C911 C 0.32975 0.59073 0.42591 0.0
C912 C 0.31352 0.58069 0.40279 0.0
H913 H 0.50252 0.69285 0.38021 0.0
H914 H 0.45264 0.66417 0.37872 0.0
C915 C 0.28497 0.56718 0.40451 0.0
C916 C 0.36016 0.6074 0.42388 0.0
H917 H 0.41498 0.66841 0.44237 0.0
C918 C 0.37458 0.59662 0.41058 0.0
C919 C 0.37503 0.63398 0.43489 0.0
C920 C 0.36101 0.64784 0.44764 0.0
C921 C 0.40327 0.61124 0.40881 0.0
C922 C 0.41802 0.63735 0.42058 0.0
C923 C 0.40367 0.64832 0.43348 0.0
C924 C 0.44842 0.65329 0.42068 0.0
C925 C 0.41779 0.5985 0.39498 0.0
C926 C 0.46266 0.65663 0.44466 0.0
C927 C 0.49107 0.67277 0.44555 0.0
C928 C 0.5061 0.68639 0.4225 0.0
C929 C 0.49176 0.68271 0.39833 0.0
C930 C 0.46322 0.66627 0.39743 0.0
H931 H 0.40369 0.57701 0.38922 0.0
H932 H 0.42786 0.6103 0.37663 0.0
H933 H 0.43392 0.59924 0.40824 0.0
H934 H 0.45172 0.6469 0.46285 0.0
H935 H 0.50119 0.67502 0.46458 0.0
H936 H 0.21088 0.6715 0.90309 0.0
H937 H 0.23047 0.64156 0.90385 0.0
H938 H 0.21798 0.63166 0.98917 0.0
H939 H 0.19761 0.66085 0.98845 0.0
H940 H 0.27517 0.64879 0.92722 0.0
H941 H 0.1901 0.55421 0.96916 0.0
H942 H 0.18571 0.582 0.95767 0.0
H943 H 0.19935 0.58292 0.99052 0.0
C944 C 0.21183 0.66259 0.92199 0.0
C945 C 0.20247 0.66865 0.94569 0.0
C946 C 0.22317 0.64547 0.92241 0.0
C947 C 0.22551 0.63387 0.94651 0.0
C948 C 0.21585 0.6396 0.97014 0.0
H949 H 0.31744 0.55502 0.99562 0.0
H950 H 0.28937 0.57677 0.99327 0.0
C951 C 0.20429 0.65654 0.96972 0.0
C952 C 0.23963 0.61735 0.94711 0.0
H953 H 0.2338 0.55715 0.96879 0.0
C954 C 0.26591 0.62864 0.93608 0.0
C955 C 0.22778 0.59096 0.95868 0.0
C956 C 0.19908 0.57669 0.96942 0.0
C957 C 0.28073 0.61471 0.9368 0.0
C958 C 0.26908 0.58861 0.94876 0.0
C959 C 0.24281 0.57719 0.9597 0.0
C960 C 0.28417 0.57319 0.95031 0.0
C961 C 0.3091 0.6283 0.92528 0.0
C962 C 0.29005 0.56319 0.92704 0.0
C963 C 0.30591 0.55048 0.92831 0.0
C964 C 0.31649 0.54758 0.95291 0.0
C965 C 0.30975 0.55684 0.97631 0.0
C966 C 0.29368 0.56933 0.97502 0.0
H967 H 0.31703 0.65025 0.9211 0.0
H968 H 0.32332 0.62628 0.9392 0.0
H969 H 0.30886 0.61815 0.90621 0.0
H970 H 0.28275 0.56567 0.90775 0.0
H971 H 0.31063 0.54374 0.90984 0.0
H972 H 0.54344 0.83455 1.00019 0.0
H973 H 0.5207 0.78483 0.99856 0.0
H974 H 0.53193 0.78825 0.91301 0.0
H975 H 0.55539 0.83792 0.91457 0.0
H976 H 0.47436 0.75073 0.97469 0.0
H977 H 0.55462 0.73382 0.93144 0.0
H978 H 0.56166 0.76662 0.94376 0.0
H979 H 0.54734 0.75541 0.91087 0.0
C980 C 0.54159 0.8248 0.98107 0.0
C981 C 0.55149 0.84046 0.95755 0.0
C982 C 0.52843 0.79626 0.98014 0.0
C983 C 0.52475 0.78253 0.9557 0.0
C984 C 0.53504 0.79814 0.93225 0.0
H985 H 0.42222 0.61109 0.90986 0.0
H986 H 0.45134 0.66086 0.90996 0.0
C987 C 0.54841 0.82669 0.93318 0.0
C988 C 0.50861 0.75202 0.95461 0.0
H989 H 0.50972 0.69524 0.9327 0.0
C990 C 0.48227 0.73868 0.96566 0.0
C991 C 0.51868 0.73602 0.94275 0.0
C992 C 0.54722 0.74867 0.93177 0.0
C993 C 0.46579 0.71013 0.96495 0.0
C994 C 0.47578 0.69425 0.95294 0.0
C995 C 0.502 0.70743 0.94176 0.0
C996 C 0.45939 0.66388 0.95251 0.0
C997 C 0.43757 0.69705 0.97678 0.0
C998 C 0.45464 0.64894 0.97629 0.0
C999 C 0.4382 0.62052 0.9763 0.0
C1000 C 0.4259 0.60624 0.95252 0.0
C1001 C 0.43122 0.62128 0.92857 0.0
C1002 C 0.4479 0.64977 0.92857 0.0
H1003 H 0.43104 0.7122 0.98105 0.0
H1004 H 0.42257 0.68135 0.963 0.0
H1005 H 0.43727 0.68679 0.99583 0.0
H1006 H 0.46346 0.65934 0.99497 0.0
H1007 H 0.43473 0.6098 0.99515 0.0
H1008 H 0.26515 0.78812 0.90885 0.0
H1009 H 0.31482 0.81485 0.90977 0.0
H1010 H 0.31449 0.80011 0.99443 0.0
H1011 H 0.26454 0.77292 0.9938 0.0
H1012 H 0.35167 0.85998 0.96997 0.0
H1013 H 0.36325 0.776 0.92614 0.0
H1014 H 0.33831 0.78314 0.91164 0.0
H1015 H 0.33339 0.76959 0.94491 0.0
C1016 C 0.27547 0.79067 0.92781 0.0
C1017 C 0.26062 0.77814 0.95127 0.0
C1018 C 0.30396 0.80597 0.92823 0.0
C1019 C 0.31838 0.80931 0.9521 0.0
C1020 C 0.30375 0.79773 0.97577 0.0
H1021 H 0.49022 0.89726 0.9956 0.0
H1022 H 0.44077 0.87579 0.99447 0.0
C1023 C 0.27517 0.7822 0.97536 0.0
C1024 C 0.34871 0.82415 0.95201 0.0
H1025 H 0.40334 0.81779 0.93346 0.0
C1026 C 0.36302 0.85079 0.96208 0.0
C1027 C 0.36346 0.81224 0.94138 0.0
C1028 C 0.34899 0.78362 0.93047 0.0
C1029 C 0.39172 0.86592 0.96162 0.0
C1030 C 0.40659 0.85382 0.95146 0.0
C1031 C 0.39212 0.82718 0.94124 0.0
C1032 C 0.43707 0.86807 0.95182 0.0
C1033 C 0.40571 0.89498 0.97137 0.0
C1034 C 0.4518 0.87048 0.92834 0.0
C1035 C 0.4803 0.88251 0.92896 0.0
C1036 C 0.49479 0.89238 0.95313 0.0
C1037 C 0.47995 0.89018 0.97653 0.0
C1038 C 0.45152 0.87802 0.97591 0.0
H1039 H 0.39207 0.90379 0.96997 0.0
H1040 H 0.4114 0.89551 0.99273 0.0
H1041 H 0.42449 0.90803 0.95973 0.0
H1042 H 0.44122 0.86286 0.90948 0.0
H1043 H 0.49091 0.8837 0.91056 0.0
H1044 H 0.09465 0.37395 0.7096 0.0
H1045 H 0.11194 0.40249 0.66991 0.0
H1046 H 0.1328 0.34567 0.63525 0.0
H1047 H 0.11451 0.31628 0.67493 0.0
H1048 H 0.15893 0.43027 0.64629 0.0
H1049 H 0.09023 0.35135 0.57437 0.0
H1050 H 0.08638 0.3463 0.61008 0.0
H1051 H 0.11179 0.34212 0.59255 0.0
C1052 C 0.10296 0.36736 0.69366 0.0
C1053 C 0.10287 0.34244 0.69573 0.0
C1054 C 0.11296 0.38391 0.67077 0.0
C1055 C 0.12332 0.3763 0.64891 0.0
C1056 C 0.12427 0.35191 0.65126 0.0
H1057 H 0.20838 0.49834 0.51839 0.0
H1058 H 0.1992 0.46826 0.55724 0.0
C1059 C 0.11405 0.33515 0.67423 0.0
C1060 C 0.13272 0.39397 0.62399 0.0
H1061 H 0.12273 0.39367 0.55612 0.0
C1062 C 0.15104 0.42214 0.62658 0.0
C1063 C 0.12235 0.38383 0.59803 0.0
C1064 C 0.10141 0.35432 0.59351 0.0
C1065 C 0.15892 0.44019 0.60445 0.0
C1066 C 0.14887 0.42998 0.57843 0.0
C1067 C 0.13079 0.40177 0.5758 0.0
C1068 C 0.15523 0.44821 0.55407 0.0
C1069 C 0.17706 0.47025 0.60953 0.0
C1070 C 0.1339 0.44671 0.5383 0.0
C1071 C 0.13914 0.4636 0.51582 0.0
C1072 C 0.16598 0.48279 0.50813 0.0
C1073 C 0.18745 0.48409 0.52364 0.0
C1074 C 0.18216 0.46695 0.54614 0.0
H1075 H 0.17676 0.47546 0.63092 0.0
H1076 H 0.19834 0.4762 0.60432 0.0
H1077 H 0.17079 0.48249 0.59713 0.0
H1078 H 0.11293 0.4326 0.54358 0.0
H1079 H 0.12192 0.46173 0.50458 0.0
H1080 H 0.61953 0.78411 0.52547 0.0
H1081 H 0.64773 0.80356 0.56589 0.0
H1082 H 0.71025 0.79102 0.53157 0.0
H1083 H 0.68227 0.77133 0.49151 0.0
H1084 H 0.67555 0.77283 0.59886 0.0
H1085 H 0.74468 0.87656 0.55878 0.0
H1086 H 0.70997 0.85615 0.54718 0.0
H1087 H 0.73524 0.84772 0.53719 0.0
C1088 C 0.63937 0.78569 0.52639 0.0
C1089 C 0.64846 0.77605 0.50496 0.0
C1090 C 0.65547 0.79673 0.54964 0.0
C1091 C 0.68125 0.79883 0.55197 0.0
C1092 C 0.69053 0.78971 0.53043 0.0
H1093 H 0.82093 0.86677 0.65865 0.0
H1094 H 0.78836 0.85165 0.62188 0.0
C1095 C 0.6744 0.77842 0.50741 0.0
C1096 C 0.69847 0.81005 0.57682 0.0
H1097 H 0.75563 0.866 0.60101 0.0
C1098 C 0.6929 0.7933 0.59947 0.0
C1099 C 0.72136 0.83663 0.57767 0.0
C1100 C 0.72832 0.85553 0.55403 0.0
C1101 C 0.70989 0.80206 0.62246 0.0
C1102 C 0.73293 0.82878 0.6234 0.0
C1103 C 0.73813 0.84561 0.60075 0.0
C1104 C 0.75281 0.8391 0.64671 0.0
C1105 C 0.70362 0.78197 0.64494 0.0
C1106 C 0.74433 0.838 0.6735 0.0
C1107 C 0.76317 0.84654 0.69495 0.0
C1108 C 0.79119 0.85691 0.69028 0.0
C1109 C 0.79967 0.859 0.66338 0.0
C1110 C 0.78089 0.85027 0.64209 0.0
H1111 H 0.69049 0.76064 0.63811 0.0
H1112 H 0.72256 0.78389 0.65362 0.0
H1113 H 0.69253 0.78596 0.66097 0.0
H1114 H 0.72305 0.83038 0.67795 0.0
H1115 H 0.75569 0.8446 0.71522 0.0
H1116 H 0.24234 0.01288 0.67588 0.0
H1117 H 0.25225 0.9921 0.63742 0.0
H1118 H 0.33768 0.03682 0.65705 0.0
H1119 H 0.32788 0.05657 0.69567 0.0
H1120 H 0.27883 0.00984 0.59308 0.0
H1121 H 0.33223 0.9654 0.64716 0.0
H1122 H 0.31419 0.97946 0.66452 0.0
H1123 H 0.34869 1.00128 0.65329 0.0
C1124 C 0.26321 0.01805 0.6722 0.0
C1125 C 0.28417 0.03634 0.68938 0.0
C1126 C 0.26894 0.00614 0.65003 0.0
C1127 C 0.29579 0.0121 0.64426 0.0
C1128 C 0.31667 0.03076 0.66118 0.0
H1129 H 0.35873 1.00291 0.48831 0.0
H1130 H 0.34077 0.01302 0.52792 0.0
C1131 C 0.31097 0.04237 0.68338 0.0
C1132 C 0.3023 0.99997 0.62013 0.0
H1133 H 0.34021 0.97114 0.59962 0.0
C1134 C 0.29205 1.00116 0.59473 0.0
C1135 C 0.31904 0.98781 0.6217 0.0
C1136 C 0.32889 0.98312 0.64819 0.0
C1137 C 0.29885 0.99184 0.57123 0.0
C1138 C 0.31727 0.98164 0.57254 0.0
C1139 C 0.32655 0.97931 0.59807 0.0
C1140 C 0.32799 0.97452 0.54773 0.0
C1141 C 0.28568 0.99272 0.54523 0.0
C1142 C 0.32808 0.94967 0.54527 0.0
C1143 C 0.33897 0.94382 0.52229 0.0
C1144 C 0.35021 0.9627 0.50107 0.0
C1145 C 0.35004 0.98747 0.50375 0.0
C1146 C 0.33944 0.99332 0.5266 0.0
H1147 H 0.26547 0.99088 0.54879 0.0
H1148 H 0.29869 0.0126 0.53527 0.0
H1149 H 0.28293 0.97616 0.53147 0.0
H1150 H 0.31972 0.93471 0.56117 0.0
H1151 H 0.33889 0.92469 0.52134 0.0
H1152 H 0.48919 0.22528 1.00012 0.0
H1153 H 0.46 0.21212 0.96005 0.0
H1154 H 0.39334 0.15018 1.00567 0.0
H1155 H 0.42222 0.16288 0.04533 0.0
H1156 H 0.39832 0.12915 0.96007 0.0
H1157 H 0.39914 0.22501 0.93575 0.0
H1158 H 0.43249 0.22879 0.9381 0.0
H1159 H 0.4113 0.21969 0.96738 0.0
C1160 C 0.46817 0.2092 1.00176 0.0
C1161 C 0.45828 0.19528 0.02625 0.0
C1162 C 0.45136 0.20167 0.97872 0.0
C1163 C 0.4241 0.18014 0.97953 0.0
C1164 C 0.41414 0.16678 1.00415 0.0
H1165 H 0.29463 0.12818 0.85561 0.0
H1166 H 0.32365 0.14815 0.89545 0.0
C1167 C 0.43082 0.17421 0.02702 0.0
C1168 C 0.40628 0.17019 0.95475 0.0
H1169 H 0.37904 0.18953 0.90335 0.0
C1170 C 0.39416 0.14248 0.94779 0.0
C1171 C 0.40024 0.18719 0.93858 0.0
C1172 C 0.41123 0.21677 0.9454 0.0
C1173 C 0.37683 0.13151 0.92531 0.0
C1174 C 0.37146 0.14863 0.90864 0.0
C1175 C 0.38314 0.17627 0.9158 0.0
C1176 C 0.35431 0.13811 0.88354 0.0
C1177 C 0.364 0.10138 0.91994 0.0
C1178 C 0.36192 0.12636 0.86296 0.0
C1179 C 0.34541 0.11497 0.84023 0.0
C1180 C 0.32062 0.11497 0.83704 0.0
C1181 C 0.31341 0.12762 0.85722 0.0
C1182 C 0.33008 0.1391 0.88009 0.0
H1183 H 0.36364 0.08998 0.93821 0.0
H1184 H 0.34283 0.09281 0.91242 0.0
H1185 H 0.37606 0.09801 0.9045 0.0
H1186 H 0.38068 0.12575 0.86454 0.0
H1187 H 0.35204 0.10577 0.82522 0.0
H1188 H 0.98989 0.25486 0.84913 0.0
H1189 H 0.96857 0.26339 0.88806 0.0
H1190 H 0.01867 0.34983 0.87555 0.0
H1191 H 0.03914 0.34152 0.83658 0.0
H1192 H 0.98619 0.2867 0.93479 0.0
H1193 H 0.94823 0.34759 0.8838 0.0
H1194 H 0.96141 0.32927 0.86549 0.0
H1195 H 0.98419 0.36261 0.87895 0.0
C1196 C 0.99613 0.27568 0.85446 0.0
C1197 C 0.01621 0.2974 0.83921 0.0
C1198 C 0.98393 0.28061 0.87691 0.0
C1199 C 0.99131 0.30738 0.88481 0.0
C1200 C 0.01162 0.32895 0.86975 0.0
H1201 H 0.97853 0.3625 0.04408 0.0
H1202 H 0.98941 0.34574 1.00395 0.0
C1203 C 0.0236 0.32409 0.84734 0.0
C1204 C 0.97885 0.313 0.90921 0.0
H1205 H 0.95196 0.35196 0.93175 0.0
C1206 C 0.97849 0.30079 0.93392 0.0
C1207 C 0.96801 0.33091 0.90857 0.0
C1208 C 0.96518 0.34308 0.88271 0.0
C1209 C 0.96887 0.30672 0.95774 0.0
C1210 C 0.95988 0.32614 0.95745 0.0
C1211 C 0.95915 0.33745 0.93253 0.0
C1212 C 0.95223 0.3357 0.98272 0.0
C1213 C 0.96811 0.29162 0.98293 0.0
C1214 C 0.92785 0.33673 0.98465 0.0
C1215 C 0.92158 0.34685 1.0079 0.0
C1216 C 0.93956 0.35636 0.02997 0.0
C1217 C 0.96379 0.3551 0.02793 0.0
C1218 C 0.97007 0.34523 1.00479 0.0
H1219 H 0.96568 0.27136 0.97821 0.0
H1220 H 0.98765 0.30342 0.99386 0.0
H1221 H 0.9512 0.28861 0.9963 0.0
H1222 H 0.91363 0.32982 0.96806 0.0
H1223 H 0.90291 0.34771 1.00834 0.0
H1224 H 0.78458 0.65304 1.00116 0.0
H1225 H 0.7998 0.6804 0.95987 0.0
H1226 H 0.78241 0.73941 0.9951 0.0
H1227 H 0.76727 0.71244 0.03603 0.0
H1228 H 0.76085 0.72541 0.94465 0.0
H1229 H 0.86921 0.75185 0.94217 0.0
H1230 H 0.84514 0.71607 0.94482 0.0
H1231 H 0.84841 0.73848 0.97176 0.0
C1232 C 0.78442 0.67206 1.00032 0.0
C1233 C 0.77467 0.68034 1.0223 0.0
C1234 C 0.7932 0.68781 0.97658 0.0
C1235 C 0.79252 0.71231 0.97409 0.0
C1236 C 0.78323 0.72073 0.99618 0.0
H1237 H 0.86515 0.84487 0.85635 0.0
H1238 H 0.854 0.81484 0.89535 0.0
C1239 C 0.77461 0.70517 1.01981 0.0
C1240 C 0.80024 0.72875 0.94842 0.0
H1241 H 0.85293 0.76528 0.90472 0.0
C1242 C 0.78098 0.73398 0.93593 0.0
C1243 C 0.8266 0.74042 0.93688 0.0
C1244 C 0.84868 0.7367 0.94964 0.0
C1245 C 0.78717 0.75021 0.91258 0.0
C1246 C 0.81339 0.76158 0.9008 0.0
C1247 C 0.83274 0.75651 0.91336 0.0
C1248 C 0.82123 0.77946 0.87611 0.0
C1249 C 0.76567 0.75567 0.90114 0.0
C1250 C 0.80713 0.76976 0.85169 0.0
C1251 C 0.81359 0.78697 0.82916 0.0
C1252 C 0.8344 0.81451 0.83024 0.0
C1253 C 0.849 0.82393 0.85451 0.0
C1254 C 0.84261 0.80666 0.87697 0.0
H1255 H 0.74931 0.75127 0.91587 0.0
H1256 H 0.77473 0.77719 0.89456 0.0
H1257 H 0.75619 0.74242 0.88345 0.0
H1258 H 0.7909 0.74882 0.85007 0.0
H1259 H 0.80183 0.77875 0.81099 0.0
H1260 H 0.88915 0.62997 0.52382 0.0
H1261 H 0.8989 0.65978 0.48458 0.0
H1262 H 0.98101 0.71098 0.51287 0.0
H1263 H 0.97113 0.68231 0.55221 0.0
H1264 H 0.96525 0.74256 0.49389 0.0
H1265 H 0.93691 0.66193 0.41769 0.0
H1266 H 0.90915 0.65594 0.43916 0.0
H1267 H 0.93847 0.65567 0.45284 0.0
C1268 C 0.90924 0.64765 0.52174 0.0
C1269 C 0.92924 0.65345 0.54149 0.0
C1270 C 0.91497 0.66466 0.499 0.0
C1271 C 0.94105 0.68769 0.49499 0.0
C1272 C 0.96075 0.69357 0.515 0.0
H1273 H 0.01587 0.76747 0.3451 0.0
H1274 H 0.99694 0.73887 0.38442 0.0
C1275 C 0.95497 0.67692 0.53773 0.0
C1276 C 0.9483 0.70586 0.47039 0.0
H1277 H 0.94947 0.70583 0.40164 0.0
C1278 C 0.9617 0.73439 0.47374 0.0
C1279 C 0.94415 0.69571 0.44377 0.0
C1280 C 0.93164 0.66569 0.43806 0.0
C1281 C 0.97134 0.7527 0.45178 0.0
C1282 C 0.96682 0.74254 0.42515 0.0
C1283 C 0.95296 0.714 0.42179 0.0
C1284 C 0.97803 0.7608 0.40065 0.0
C1285 C 0.98746 0.78282 0.45759 0.0
C1286 C 0.97387 0.78309 0.39577 0.0
C1287 C 0.98526 0.80009 0.37307 0.0
C1288 C 1.00067 0.79499 0.35421 0.0
C1289 C 1.00415 0.7723 0.35888 0.0
C1290 C 0.99317 0.75568 0.38159 0.0
H1291 H 0.99567 0.7869 0.47833 0.0
H1292 H 1.00475 0.79341 0.44347 0.0
H1293 H 0.97396 0.79169 0.45548 0.0
H1294 H 0.96167 0.78735 0.40942 0.0
H1295 H 0.98185 0.81712 0.37022 0.0
H1296 H 0.32847 0.3237 0.35553 0.0
H1297 H 0.35757 0.33322 0.39454 0.0
H1298 H 0.31472 0.24808 0.41549 0.0
H1299 H 0.28467 0.23838 0.37639 0.0
H1300 H 0.32333 0.27801 0.45943 0.0
H1301 H 0.42134 0.32278 0.40601 0.0
H1302 H 0.40332 0.34029 0.39753 0.0
H1303 H 0.38915 0.30493 0.3887 0.0
C1304 C 0.32518 0.30678 0.36818 0.0
C1305 C 0.30405 0.28013 0.36241 0.0
C1306 C 0.34218 0.31232 0.39058 0.0
C1307 C 0.33908 0.29141 0.40798 0.0
C1308 C 0.31792 0.2647 0.40243 0.0
H1309 H 0.46606 0.3322 0.53336 0.0
H1310 H 0.43617 0.31167 0.49425 0.0
C1311 C 0.3007 0.25911 0.37993 0.0
C1312 C 0.35721 0.29789 0.43236 0.0
H1313 H 0.42392 0.33332 0.45298 0.0
C1314 C 0.34533 0.28985 0.45788 0.0
C1315 C 0.38611 0.3129 0.4308 0.0
C1316 C 0.40072 0.32045 0.40426 0.0
C1317 C 0.36121 0.29733 0.48156 0.0
C1318 C 0.39 0.31401 0.48008 0.0
C1319 C 0.40195 0.32097 0.45451 0.0
C1320 C 0.40785 0.32536 0.50467 0.0
C1321 C 0.3468 0.28696 0.50796 0.0
C1322 C 0.40237 0.34017 0.52381 0.0
C1323 C 0.41929 0.35171 0.54623 0.0
C1324 C 0.44266 0.34927 0.55032 0.0
C1325 C 0.44824 0.33443 0.53119 0.0
C1326 C 0.43113 0.32274 0.50865 0.0
H1327 H 0.32736 0.26748 0.50539 0.0
H1328 H 0.35967 0.28371 0.52263 0.0
H1329 H 0.34177 0.30205 0.51634 0.0
H1330 H 0.38523 0.34342 0.52115 0.0
H1331 H 0.41422 0.36312 0.56018 0.0
H1332 H 0.7694 0.20929 0.53831 0.0
H1333 H 0.78963 0.19981 0.49921 0.0
H1334 H 0.7459 0.11424 0.51832 0.0
H1335 H 0.72618 0.12357 0.55747 0.0
H1336 H 0.79654 0.1286 0.50343 0.0
H1337 H 0.754 0.16931 0.42812 0.0
H1338 H 0.77495 0.1937 0.45295 0.0
H1339 H 0.74341 0.16429 0.46267 0.0
C1340 C 0.76411 0.18845 0.53425 0.0
C1341 C 0.74589 0.16726 0.55124 0.0
C1342 C 0.77557 0.18297 0.51163 0.0
C1343 C 0.76905 0.15613 0.50517 0.0
C1344 C 0.75136 0.13512 0.52249 0.0
H1345 H 0.77796 0.08696 0.35334 0.0
H1346 H 0.76705 0.10467 0.39291 0.0
C1347 C 0.73997 0.14055 0.54502 0.0
C1348 C 0.78036 0.14959 0.48058 0.0
H1349 H 0.78339 0.15425 0.41199 0.0
C1350 C 0.79375 0.13439 0.48346 0.0
C1351 C 0.77662 0.15668 0.45424 0.0
C1352 C 0.76125 0.17166 0.44916 0.0
C1353 C 0.80317 0.12602 0.46114 0.0
C1354 C 0.79967 0.13336 0.43483 0.0
C1355 C 0.78647 0.14874 0.43197 0.0
C1356 C 0.80751 0.12354 0.40999 0.0
C1357 C 0.81579 0.10841 0.466 0.0
C1358 C 0.83422 0.12846 0.40554 0.0
C1359 C 0.84064 0.11814 0.38259 0.0
C1360 C 0.82055 0.1027 0.36334 0.0
C1361 C 0.79411 0.09857 0.36757 0.0
C1362 C 0.78776 0.10881 0.39036 0.0
H1363 H 0.81091 0.09905 0.48626 0.0
H1364 H 0.80872 0.09189 0.45089 0.0
H1365 H 0.83826 0.1211 0.46444 0.0
H1366 H 0.85018 0.14027 0.41984 0.0
H1367 H 0.86123 0.12192 0.38016 0.0
H1368 H 0.7446 0.01746 0.23684 0.0
H1369 H 0.71493 0.99781 0.19809 0.0
H1370 H 0.77987 0.99557 0.15552 0.0
H1371 H 0.80975 0.01492 0.19476 0.0
H1372 H 0.71939 0.01878 0.15015 0.0
H1373 H 0.71787 0.92097 0.13732 0.0
H1374 H 0.73113 0.94148 0.1671 0.0
H1375 H 0.75158 0.95002 0.13731 0.0
C1376 C 0.75262 0.01246 0.21944 0.0
C1377 C 0.77978 0.01786 0.21921 0.0
C1378 C 0.7355 1.0012 0.19709 0.0
C1379 C 0.74476 0.99482 0.17359 0.0
C1380 C 0.77174 0.99963 0.17341 0.0
H1381 H 0.67172 0.98525 1.0169 0.0
H1382 H 0.70088 0.99636 0.05621 0.0
C1383 C 0.78896 0.01085 0.19594 0.0
C1384 C 0.72659 0.9849 0.14909 0.0
H1385 H 0.69822 0.93398 0.10202 0.0
C1386 C 0.71479 1.00017 0.13978 0.0
C1387 C 0.72 0.96039 0.1354 0.0
C1388 C 0.73056 0.94209 0.1449 0.0
C1389 C 0.69724 0.99205 0.11736 0.0
C1390 C 0.69139 0.96808 0.10309 0.0
C1391 C 0.70272 0.95246 0.11261 0.0
C1392 C 0.67414 0.95959 0.07801 0.0
C1393 C 0.68471 0.00913 0.10944 0.0
C1394 C 0.64962 0.93446 0.07618 0.0
C1395 C 0.6327 0.92782 0.05329 0.0
C1396 C 0.63994 0.94613 0.0316 0.0
C1397 C 0.66508 0.97067 0.03317 0.0
C1398 C 0.68188 0.97719 0.05585 0.0
H1399 H 0.6846 0.02174 0.1264 0.0
H1400 H 0.69683 0.02313 0.09301 0.0
H1401 H 0.66347 0.99621 0.10224 0.0
H1402 H 0.64313 0.92031 0.09281 0.0
H1403 H 0.6136 0.90875 0.05295 0.0
H1404 H 0.11878 0.76684 1.00001 0.0
H1405 H 0.10636 0.78408 0.03899 0.0
H1406 H 0.17264 0.7862 0.08356 0.0
H1407 H 0.18567 0.76947 0.04404 0.0
H1408 H 0.08795 0.76199 0.08524 0.0
H1409 H 0.18307 0.85873 0.105 0.0
H1410 H 0.17776 0.8396 0.07456 0.0
H1411 H 0.188 0.82981 0.10481 0.0
C1412 C 0.13108 0.7713 1.01794 0.0
C1413 C 0.1534 0.76672 1.01856 0.0
C1414 C 0.12383 0.78117 0.04043 0.0
C1415 C 0.13851 0.78686 0.06459 0.0
C1416 C 0.16115 0.78273 0.06523 0.0
H1417 H 0.06402 0.78977 0.21792 0.0
H1418 H 0.08317 0.77899 0.1793 0.0
C1419 C 0.1686 0.773 0.04252 0.0
C1420 C 0.12891 0.79551 0.0891 0.0
H1421 H 0.14878 0.84385 0.13864 0.0
C1422 C 0.10139 0.77997 0.09677 0.0
C1423 C 0.14599 0.81921 0.10433 0.0
C1424 C 0.17527 0.83798 0.09665 0.0
C1425 C 0.09068 0.78706 0.11893 0.0
C1426 C 0.10795 0.81015 0.13478 0.0
C1427 C 0.1354 0.826 0.12693 0.0
C1428 C 0.0978 0.81782 0.15951 0.0
C1429 C 0.06061 0.76996 0.12463 0.0
C1430 C 0.1005 0.84385 0.16246 0.0
C1431 C 0.08971 0.8503 0.18502 0.0
C1432 C 0.07591 0.83091 0.20535 0.0
C1433 C 0.07408 0.80524 0.20268 0.0
C1434 C 0.08496 0.79891 0.18033 0.0
H1435 H 0.04902 0.75894 0.10646 0.0
H1436 H 0.05735 0.7545 0.14005 0.0
H1437 H 0.05211 0.78261 0.13217 0.0
H1438 H 0.11045 0.85905 0.14698 0.0
H1439 H 0.09169 0.8703 0.18624 0.0
H1440 H 0.3537 0.43539 1.021 0.0
H1441 H 0.334 0.4061 0.05974 0.0
H1442 H 0.29051 0.44806 0.0797 0.0
H1443 H 0.31122 0.47851 0.04098 0.0
H1444 H 0.30987 0.43927 0.12393 0.0
H1445 H 0.26148 0.3414 0.07029 0.0
H1446 H 0.29715 0.35995 0.06299 0.0
H1447 H 0.27563 0.37349 0.05285 0.0
C1448 C 0.33975 0.43843 0.03335 0.0
C1449 C 0.33404 0.45947 0.0274 0.0
C1450 C 0.3282 0.42129 0.05561 0.0
C1451 C 0.30998 0.42402 0.07266 0.0
C1452 C 0.30423 0.44509 0.06693 0.0
H1453 H 0.22465 0.29487 0.19627 0.0
H1454 H 0.23409 0.32439 0.15681 0.0
C1455 C 0.31606 0.46255 0.04463 0.0
C1456 C 0.29818 0.40566 0.09691 0.0
H1457 H 0.26895 0.33905 0.11753 0.0
C1458 C 0.30066 0.41733 0.12236 0.0
C1459 C 0.28542 0.37679 0.09536 0.0
C1460 C 0.27948 0.36218 0.06886 0.0
C1461 C 0.29204 0.40137 0.14599 0.0
C1462 C 0.28125 0.37271 0.14461 0.0
C1463 C 0.2776 0.36092 0.11906 0.0
C1464 C 0.27466 0.35489 0.16931 0.0
C1465 C 0.29433 0.41558 0.17218 0.0
C1466 C 0.29412 0.3616 0.18974 0.0
C1467 C 0.28861 0.34495 0.21242 0.0
C1468 C 0.26356 0.32052 0.21548 0.0
C1469 C 0.24406 0.31353 0.19493 0.0
C1470 C 0.24955 0.33045 0.1722 0.0
H1471 H 0.29297 0.4343 0.16905 0.0
H1472 H 0.27814 0.40213 0.18642 0.0
H1473 H 0.31447 0.42186 0.18135 0.0
H1474 H 0.31401 0.37959 0.18797 0.0
H1475 H 0.30446 0.35108 0.2274 0.0
H1476 H 0.08923 0.49057 0.38018 0.0
H1477 H 0.06015 0.47814 0.34063 0.0
H1478 H 0.12695 0.53929 0.2946 0.0
H1479 H 0.15641 0.5522 0.33456 0.0
H1480 H 0.07703 0.53628 0.28129 0.0
H1481 H 0.06453 0.43294 0.27995 0.0
H1482 H 0.05467 0.44106 0.31118 0.0
H1483 H 0.08965 0.4599 0.30059 0.0
C1484 C 0.09788 0.50168 0.36178 0.0
C1485 C 0.12548 0.52239 0.36082 0.0
C1486 C 0.08111 0.49433 0.33896 0.0
C1487 C 0.09127 0.50719 0.31416 0.0
C1488 C 0.11847 0.52877 0.31331 0.0
H1489 H 0.01479 0.4328 0.16133 0.0
H1490 H 0.04471 0.45305 0.19979 0.0
C1491 C 0.13536 0.53624 0.33628 0.0
C1492 C 0.07366 0.49738 0.28927 0.0
H1493 H 0.0358 0.44051 0.25086 0.0
C1494 C 0.0681 0.51535 0.27462 0.0
C1495 C 0.06206 0.47013 0.28004 0.0
C1496 C 0.0682 0.44994 0.29356 0.0
C1497 C 0.05109 0.50678 0.2516 0.0
C1498 C 0.0388 0.47927 0.2429 0.0
C1499 C 0.04476 0.4615 0.25737 0.0
C1500 C 0.0207 0.46855 0.21833 0.0
C1501 C 0.04701 0.52753 0.23647 0.0
C1502 C 0.99688 0.47041 0.21522 0.0
C1503 C 0.97951 0.4588 0.19281 0.0
C1504 C 0.98532 0.44474 0.17295 0.0
C1505 C 0.00937 0.44332 0.17602 0.0
C1506 C 0.02664 0.45494 0.19823 0.0
H1507 H 0.06334 0.54864 0.24098 0.0
H1508 H 0.04653 0.52419 0.21453 0.0
H1509 H 0.02728 0.52564 0.24244 0.0
H1510 H 0.99121 0.48017 0.2305 0.0
H1511 H 0.96116 0.46019 0.19145 0.0
H1512 H 0.5738 0.68297 0.33643 0.0
H1513 H 0.58539 0.66481 0.2969 0.0
H1514 H 0.66435 0.68959 0.33084 0.0
H1515 H 0.65269 0.70659 0.37026 0.0
H1516 H 0.62142 0.68649 0.25884 0.0
H1517 H 0.64639 0.61547 0.30989 0.0
H1518 H 0.63025 0.63157 0.32716 0.0
H1519 H 0.66676 0.64904 0.32321 0.0
C1520 C 0.59344 0.68411 0.3357 0.0
C1521 C 0.61202 0.69607 0.35706 0.0
C1522 C 0.60018 0.67378 0.3129 0.0
C1523 C 0.62568 0.67502 0.31071 0.0
C1524 C 0.6442 0.68721 0.33197 0.0
H1525 H 0.71019 0.68011 0.16344 0.0
H1526 H 0.68931 0.68798 0.20223 0.0
C1527 C 0.63745 0.69724 0.35469 0.0
C1528 C 0.63367 0.66499 0.28597 0.0
H1529 H 0.66469 0.62914 0.26541 0.0
C1530 C 0.6306 0.6737 0.26042 0.0
C1531 C 0.64521 0.6477 0.28731 0.0
C1532 C 0.64705 0.63517 0.31335 0.0
C1533 C 0.63961 0.66676 0.2368 0.0
C1534 C 0.65304 0.6512 0.23837 0.0
C1535 C 0.655 0.64146 0.26378 0.0
C1536 C 0.66592 0.64572 0.21421 0.0
C1537 C 0.63414 0.67596 0.21029 0.0
C1538 C 0.66111 0.61933 0.20794 0.0
C1539 C 0.67364 0.6147 0.18556 0.0
C1540 C 0.6914 0.63632 0.16872 0.0
C1541 C 0.69634 0.66266 0.17534 0.0
C1542 C 0.68411 0.66727 0.19768 0.0
H1543 H 0.61578 0.67823 0.21135 0.0
H1544 H 0.65167 0.69617 0.2051 0.0
H1545 H 0.63115 0.66141 0.194 0.0
H1546 H 0.64749 0.60219 0.2203 0.0
H1547 H 0.6694 0.59418 0.18146 0.0
H1548 H 0.53956 0.17515 0.18706 0.0
H1549 H 0.53038 0.14369 0.22479 0.0
H1550 H 0.44482 0.10233 0.20565 0.0
H1551 H 0.4538 0.13302 0.16798 0.0
H1552 H 0.50092 0.13344 0.26988 0.0
H1553 H 0.45556 0.03789 0.21194 0.0
H1554 H 0.47335 0.07087 0.19608 0.0
H1555 H 0.43817 0.0565 0.20565 0.0
C1556 C 0.51881 0.15922 0.19074 0.0
C1557 C 0.49753 0.15677 0.17411 0.0
C1558 C 0.51353 0.14118 0.21245 0.0
C1559 C 0.48687 0.11998 0.21807 0.0
C1560 C 0.46567 0.11778 0.2016 0.0
H1561 H 0.41826 0.03692 0.36818 0.0
H1562 H 0.43658 0.06758 0.33011 0.0
C1563 C 0.4709 0.13568 0.18 0.0
C1564 C 0.48086 0.10079 0.2415 0.0
H1565 H 0.44673 0.03316 0.25923 0.0
C1566 C 0.48929 0.11152 0.2674 0.0
C1567 C 0.46611 0.07197 0.2387 0.0
C1568 C 0.45804 0.05862 0.21156 0.0
C1569 C 0.4825 0.09459 0.29031 0.0
C1570 C 0.46623 0.06584 0.28766 0.0
C1571 C 0.45882 0.05506 0.26165 0.0
C1572 C 0.45568 0.04688 0.31157 0.0
C1573 C 0.49311 0.10783 0.31717 0.0
C1574 C 0.45944 0.02411 0.31409 0.0
C1575 C 0.44862 0.00607 0.33612 0.0
C1576 C 0.43348 0.01012 0.35615 0.0
C1577 C 0.42988 0.03296 0.35347 0.0
C1578 C 0.44061 0.05085 0.3316 0.0
H1579 H 0.51217 0.12773 0.31501 0.0
H1580 H 0.47775 0.11174 0.32678 0.0
H1581 H 0.49717 0.09462 0.33062 0.0
H1582 H 0.47074 0.02024 0.29896 0.0
H1583 H 0.45174 0.98871 0.33721 0.0
H1584 H 0.67926 0.09848 0.68659 0.0
H1585 H 0.66095 0.06954 0.72577 0.0
H1586 H 0.62811 0.11912 0.75402 0.0
H1587 H 0.6476 0.1492 0.71486 0.0
H1588 H 0.64856 0.10697 0.79482 0.0
H1589 H 0.58701 0.00994 0.74183 0.0
H1590 H 0.62176 0.02524 0.73131 0.0
H1591 H 0.60254 0.04217 0.72453 0.0
C1592 C 0.6679 0.10327 0.70087 0.0
C1593 C 0.66484 0.12631 0.69709 0.0
C1594 C 0.65713 0.08634 0.72341 0.0
C1595 C 0.64227 0.09131 0.74293 0.0
C1596 C 0.63918 0.11439 0.73934 0.0
H1597 H 0.55837 0.96433 0.86888 0.0
H1598 H 0.56737 0.9943 0.82986 0.0
C1599 C 0.65029 0.13164 0.71678 0.0
C1600 C 0.63132 0.07315 0.76744 0.0
H1601 H 0.59807 0.00627 0.78775 0.0
C1602 C 0.63726 0.08496 0.79312 0.0
C1603 C 0.61588 0.04424 0.76583 0.0
C1604 C 0.60617 0.0297 0.73938 0.0
C1605 C 0.62941 0.069 0.81676 0.0
C1606 C 0.61589 0.04009 0.81511 0.0
C1607 C 0.60885 0.02828 0.78945 0.0
C1608 C 0.60974 0.02192 0.8395 0.0
C1609 C 0.63544 0.08355 0.84332 0.0
C1610 C 0.63035 0.0268 0.85814 0.0
C1611 C 0.62513 0.00993 0.88061 0.0
C1612 C 0.59918 0.98704 0.88518 0.0
C1613 C 0.57854 0.98177 0.86633 0.0
C1614 C 0.58375 0.99896 0.84386 0.0
H1615 H 0.636 0.10337 0.84135 0.0
H1616 H 0.62002 0.07113 0.85864 0.0
H1617 H 0.65578 0.08789 0.85046 0.0
H1618 H 0.65085 0.04351 0.85514 0.0
H1619 H 0.64182 0.01466 0.89422 0.0
H1620 H 0.13811 0.66905 0.8558 0.0
H1621 H 0.10804 0.64842 0.81684 0.0
H1622 H 0.05935 0.68341 0.84187 0.0
H1623 H 0.08858 0.70333 0.88073 0.0
H1624 H 0.0269 0.63278 0.82545 0.0
H1625 H 0.10689 0.68573 0.74855 0.0
H1626 H 0.11345 0.66514 0.77139 0.0
H1627 H 0.11274 0.69465 0.78353 0.0
C1628 C 0.12095 0.67228 0.85305 0.0
C1629 C 0.11609 0.68813 0.87157 0.0
C1630 C 0.10381 0.66062 0.83054 0.0
C1631 C 0.08145 0.66463 0.82584 0.0
C1632 C 0.07634 0.67992 0.84469 0.0
H1633 H 0.99594 0.65859 0.68013 0.0
H1634 H 0.02607 0.66891 0.71854 0.0
C1635 C 0.09329 0.69144 0.86705 0.0
C1636 C 0.06322 0.65325 0.80156 0.0
H1637 H 0.06271 0.65507 0.73289 0.0
C1638 C 0.03482 0.63754 0.80522 0.0
C1639 C 0.07322 0.65956 0.77495 0.0
C1640 C 0.10319 0.67738 0.76923 0.0
C1641 C 0.01639 0.62846 0.78342 0.0
C1642 C 0.02639 0.63466 0.7568 0.0
C1643 C 0.05481 0.65001 0.75311 0.0
C1644 C 1.00785 0.62737 0.73269 0.0
C1645 C 0.98626 0.61334 0.78926 0.0
C1646 C 0.98743 0.60035 0.72709 0.0
C1647 C 0.96979 0.5943 0.70491 0.0
C1648 C 0.97222 0.61507 0.68756 0.0
C1649 C 0.99314 0.64192 0.69291 0.0
C1650 C 0.0106 0.64792 0.715 0.0
H1651 H 0.98191 0.61623 0.81031 0.0
H1652 H 0.9752 0.62015 0.77576 0.0
H1653 H 0.9781 0.59124 0.78604 0.0
H1654 H 0.98509 0.58386 0.73985 0.0
H1655 H 0.95415 0.57337 0.70147 0.0
H1656 H 0.52486 0.44482 0.71533 0.0
H1657 H 0.51402 0.46262 0.75567 0.0
H1658 H 0.44215 0.45394 0.71685 0.0
H1659 H 0.45264 0.43627 0.67694 0.0
H1660 H 0.50417 0.50743 0.76603 0.0
H1661 H 0.41145 0.4081 0.78503 0.0
H1662 H 0.43751 0.41185 0.76187 0.0
H1663 H 0.41279 0.42131 0.75202 0.0
C1664 C 0.50697 0.44707 0.71522 0.0
C1665 C 0.48963 0.43882 0.69266 0.0
C1666 C 0.50071 0.45722 0.73841 0.0
C1667 C 0.47687 0.45923 0.73975 0.0
C1668 C 0.46032 0.45216 0.71681 0.0
H1669 H 0.4252 0.53957 0.86023 0.0
H1670 H 0.44389 0.52936 0.82031 0.0
C1671 C 0.46652 0.44212 0.69378 0.0
C1672 C 0.4685 0.46763 0.76512 0.0
H1673 H 0.41676 0.44543 0.81101 0.0
C1674 C 0.4851 0.49381 0.77591 0.0
C1675 C 0.44373 0.44997 0.77844 0.0
C1676 C 0.42542 0.42115 0.76896 0.0
C1677 C 0.47741 0.50285 0.79906 0.0
C1678 C 0.45222 0.48542 0.8119 0.0
C1679 C 0.43593 0.45909 0.8013 0.0
C1680 C 0.44264 0.49336 0.83685 0.0
C1681 C 0.49667 0.53084 0.80986 0.0
C1682 C 0.43542 0.47674 0.85977 0.0
C1683 C 0.42465 0.4825 0.88255 0.0
C1684 C 0.42051 0.50509 0.88338 0.0
C1685 C 0.4283 0.52219 0.86066 0.0
C1686 C 0.43912 0.51635 0.83771 0.0
H1687 H 0.51775 0.53865 0.80243 0.0
H1688 H 0.4898 0.54514 0.80319 0.0
H1689 H 0.49699 0.53077 0.83209 0.0
H1690 H 0.43781 0.45891 0.85997 0.0
H1691 H 0.41901 0.46872 0.89945 0.0
H1692 H 0.11773 0.28546 0.82517 0.0
H1693 H 0.16398 0.29784 0.83763 0.0
H1694 H 0.19267 0.37955 0.80871 0.0
H1695 H 0.14637 0.36672 0.79438 0.0
H1696 H 0.22886 0.35968 0.79865 0.0
H1697 H 0.19271 0.34322 0.90467 0.0
H1698 H 0.17679 0.3145 0.88257 0.0
H1699 H 0.17168 0.34307 0.87751 0.0
C1700 C 0.13388 0.30605 0.82128 0.0
C1701 C 0.12849 0.32541 0.80936 0.0
C1702 C 0.16027 0.31297 0.82829 0.0
C1703 C 0.18145 0.33962 0.82444 0.0
C1704 C 0.17639 0.35879 0.81173 0.0
H1705 H 0.31279 0.47104 0.87404 0.0
H1706 H 0.28084 0.43228 0.84726 0.0
C1707 C 0.15001 0.35164 0.80394 0.0
C1708 C 0.20815 0.34871 0.83667 0.0
H1709 H 0.23916 0.36684 0.89741 0.0
C1710 C 0.23126 0.36073 0.82024 0.0
C1711 C 0.21102 0.34941 0.86484 0.0
C1712 C 0.18681 0.33702 0.88351 0.0
C1713 C 0.25726 0.37592 0.83139 0.0
C1714 C 0.25977 0.37918 0.85944 0.0
C1715 C 0.23701 0.36437 0.87585 0.0
C1716 C 0.28354 0.40217 0.87194 0.0
C1717 C 0.28154 0.38972 0.81307 0.0
C1718 C 0.29522 0.39797 0.89489 0.0
C1719 C 0.31279 0.42001 0.91069 0.0
C1720 C 0.31901 0.44655 0.90363 0.0
C1721 C 0.30819 0.45078 0.88002 0.0
C1722 C 0.29042 0.42871 0.86439 0.0
H1723 H 0.27865 0.37697 0.79515 0.0
H1724 H 0.28371 0.4093 0.80599 0.0
H1725 H 0.30063 0.39394 0.82343 0.0
H1726 H 0.28975 0.37756 0.9012 0.0
H1727 H 0.32126 0.41618 0.92854 0.0
H1728 H 0.83796 0.93373 0.81751 0.0
H1729 H 0.81142 0.94914 0.84314 0.0
H1730 H 0.7412 0.86858 0.83855 0.0
H1731 H 0.76737 0.85284 0.81309 0.0
H1732 H 0.76027 0.94493 0.82492 0.0
H1733 H 0.75114 0.88979 0.9198 0.0
H1734 H 0.77732 0.897 0.89529 0.0
H1735 H 0.74337 0.86908 0.89031 0.0
C1736 C 0.81693 0.91926 0.82211 0.0
C1737 C 0.80472 0.89206 0.8134 0.0
C1738 C 0.80188 0.9281 0.83669 0.0
C1739 C 0.77468 0.9098 0.84289 0.0
C1740 C 0.7624 0.88275 0.8342 0.0
H1741 H 0.63216 0.91451 0.87832 0.0
H1742 H 0.67051 0.91246 0.85848 0.0
C1743 C 0.77733 0.87391 0.81954 0.0
C1744 C 0.75838 0.91897 0.85743 0.0
H1745 H 0.71911 0.90519 0.91301 0.0
C1746 C 0.75159 0.93671 0.8444 0.0
C1747 C 0.74756 0.90834 0.88289 0.0
C1748 C 0.75539 0.89018 0.89805 0.0
C1749 C 0.73273 0.94285 0.85564 0.0
C1750 C 0.72043 0.93062 0.88021 0.0
C1751 C 0.72849 0.91421 0.89397 0.0
C1752 C 0.69804 0.9333 0.89139 0.0
C1753 C 0.72566 0.96181 0.84095 0.0
C1754 C 0.70097 0.94515 0.91657 0.0
C1755 C 0.67917 0.94613 0.92804 0.0
C1756 C 0.65409 0.93514 0.91446 0.0
C1757 C 0.65124 0.92319 0.8892 0.0
C1758 C 0.67313 0.92223 0.87775 0.0
H1759 H 0.74192 0.97504 0.82662 0.0
H1760 H 0.70659 0.9496 0.82942 0.0
H1761 H 0.72231 0.97489 0.85518 0.0
H1762 H 0.72007 0.95348 0.92739 0.0
H1763 H 0.68199 0.95541 0.94759 0.0
H1764 H 0.20337 0.79034 0.86719 0.0
H1765 H 0.22074 0.83507 0.8471 0.0
H1766 H 0.18451 0.85798 0.91042 0.0
H1767 H 0.16662 0.81286 0.93084 0.0
H1768 H 0.17479 0.8696 0.85653 0.0
H1769 H 0.28427 0.90672 0.87727 0.0
H1770 H 0.26635 0.87405 0.8612 0.0
H1771 H 0.25715 0.87802 0.8946 0.0
C1772 C 0.199 0.80479 0.87694 0.0
C1773 C 0.18364 0.79811 0.90067 0.0
C1774 C 0.20912 0.83037 0.86548 0.0
C1775 C 0.20424 0.84974 0.87763 0.0
C1776 C 0.18857 0.84315 0.90101 0.0
H1777 H 0.24398 0.01247 0.84285 0.0
H1778 H 0.22954 0.96784 0.86193 0.0
C1779 C 0.17836 0.81745 0.91256 0.0
C1780 C 0.21503 0.87667 0.86534 0.0
H1781 H 0.27411 0.93404 0.84867 0.0
C1782 C 0.19647 0.88378 0.85488 0.0
C1783 C 0.24334 0.89478 0.86314 0.0
C1784 C 0.26398 0.88818 0.87483 0.0
C1785 C 0.20557 0.90875 0.84201 0.0
C1786 C 0.23385 0.92694 0.83999 0.0
C1787 C 0.25244 0.91977 0.85022 0.0
C1788 C 0.24433 0.95428 0.82887 0.0
C1789 C 0.18494 0.9155 0.83057 0.0
C1790 C 0.25821 0.96145 0.80438 0.0
C1791 C 0.26662 0.98708 0.79331 0.0
C1792 C 0.26125 0.00566 0.80678 0.0
C1793 C 0.2482 0.99855 0.83181 0.0
C1794 C 0.23988 0.97308 0.84277 0.0
H1795 H 0.16458 0.89705 0.82822 0.0
H1796 H 0.18281 0.92972 0.84428 0.0
H1797 H 0.1917 0.92567 0.81079 0.0
H1798 H 0.26188 0.94702 0.7936 0.0
H1799 H 0.27667 0.99205 0.77402 0.0
H1800 H 0.44851 0.36537 0.70992 0.0
H1801 H 0.41025 0.33629 0.7393 0.0
H1802 H 0.37308 0.27853 0.67479 0.0
H1803 H 0.41042 0.30831 0.64508 0.0
H1804 H 0.33471 0.28177 0.7073 0.0
H1805 H 0.41156 0.27115 0.76886 0.0
H1806 H 0.414 0.30388 0.76581 0.0
H1807 H 0.42135 0.2891 0.73745 0.0
C1808 C 0.43207 0.34641 0.70216 0.0
C1809 C 0.43258 0.33836 0.67567 0.0
C1810 C 0.41019 0.33005 0.71881 0.0
C1811 C 0.38914 0.30511 0.70934 0.0
C1812 C 0.38911 0.2978 0.68245 0.0
H1813 H 0.30728 0.1523 0.6949 0.0
H1814 H 0.31719 0.19936 0.69897 0.0
C1815 C 0.41056 0.31449 0.66563 0.0
C1816 C 0.36949 0.28425 0.72769 0.0
H1817 H 0.36817 0.23428 0.76632 0.0
C1818 C 0.34172 0.27173 0.72108 0.0
C1819 C 0.37852 0.2717 0.74644 0.0
C1820 C 0.40794 0.28451 0.75516 0.0
C1821 C 0.32371 0.24495 0.72912 0.0
C1822 C 0.33406 0.23073 0.74372 0.0
C1823 C 0.36045 0.24503 0.75444 0.0
C1824 C 0.32146 0.20087 0.74227 0.0
C1825 C 0.29447 0.23147 0.71999 0.0
C1826 C 0.32094 0.18619 0.76507 0.0
C1827 C 0.31681 0.15998 0.7625 0.0
C1828 C 0.31251 0.14772 0.73715 0.0
C1829 C 0.31113 0.16161 0.71453 0.0
C1830 C 0.31603 0.1882 0.71701 0.0
H1831 H 0.28673 0.246 0.72132 0.0
H1832 H 0.2932 0.22548 0.69866 0.0
H1833 H 0.28117 0.21308 0.73207 0.0
H1834 H 0.3252 0.19557 0.78469 0.0
H1835 H 0.31704 0.14934 0.78045 0.0
H1836 H 0.78521 0.17157 0.6285 0.0
H1837 H 0.83296 0.1911 0.64126 0.0
H1838 H 0.8164 0.21624 0.71705 0.0
H1839 H 0.7687 0.19706 0.70448 0.0
H1840 H 0.85657 0.25863 0.68496 0.0
H1841 H 0.87472 0.1712 0.69642 0.0
H1842 H 0.85732 0.17126 0.66629 0.0
H1843 H 0.84113 0.16737 0.69814 0.0
C1844 C 0.79156 0.18054 0.6482 0.0
C1845 C 0.77337 0.18311 0.66539 0.0
C1846 C 0.81879 0.19163 0.65543 0.0
C1847 C 0.82795 0.20502 0.68002 0.0
C1848 C 0.8095 0.20596 0.69796 0.0
H1849 H 0.98079 0.29881 0.75797 0.0
H1850 H 0.93435 0.28138 0.74171 0.0
C1851 C 0.78234 0.19502 0.69073 0.0
C1852 C 0.85716 0.22085 0.68569 0.0
H1853 H 0.91349 0.21537 0.69658 0.0
C1854 C 0.86909 0.24925 0.6876 0.0
C1855 C 0.87317 0.20836 0.68879 0.0
C1856 C 0.86098 0.17785 0.68753 0.0
C1857 C 0.89693 0.26565 0.6926 0.0
C1858 C 0.91289 0.25313 0.69595 0.0
C1859 C 0.90101 0.22477 0.69376 0.0
C1860 C 0.94174 0.26872 0.70326 0.0
C1861 C 0.9091 0.29614 0.69406 0.0
C1862 C 0.96114 0.2679 0.68662 0.0
C1863 C 0.98755 0.27763 0.69587 0.0
C1864 C 0.99475 0.28813 0.72194 0.0
C1865 C 0.97578 0.29083 0.73778 0.0
C1866 C 0.94931 0.281 0.72852 0.0
H1867 H 0.89578 0.30287 0.68436 0.0
H1868 H 0.91172 0.30245 0.71537 0.0
H1869 H 0.92944 0.30675 0.68437 0.0
H1870 H 0.95546 0.25844 0.66706 0.0
H1871 H 1.00186 0.27558 0.6831 0.0
H1872 H 0.88413 0.81862 0.70496 0.0
H1873 H 0.88081 0.77541 0.69205 0.0
H1874 H 0.79396 0.73374 0.70447 0.0
H1875 H 0.79681 0.77665 0.71711 0.0
H1876 H 0.85114 0.72616 0.73274 0.0
H1877 H 0.81265 0.71 0.62762 0.0
H1878 H 0.83312 0.74415 0.64043 0.0
H1879 H 0.79936 0.72288 0.65301 0.0
C1880 C 0.86429 0.80038 0.70444 0.0
C1881 C 0.84083 0.80092 0.7123 0.0
C1882 C 0.86243 0.77582 0.69716 0.0
C1883 C 0.83715 0.75174 0.69753 0.0
C1884 C 0.81354 0.75231 0.70412 0.0
H1885 H 0.86375 0.612 0.68155 0.0
H1886 H 0.83729 0.63336 0.69538 0.0
C1887 C 0.81533 0.77681 0.71139 0.0
C1888 C 0.83617 0.72586 0.69303 0.0
H1889 H 0.83176 0.68362 0.64274 0.0
C1890 C 0.8462 0.71619 0.71336 0.0
C1891 C 0.82918 0.71305 0.66785 0.0
C1892 C 0.81789 0.72287 0.64585 0.0
C1893 C 0.85222 0.69556 0.7082 0.0
C1894 C 0.84778 0.68455 0.68214 0.0
C1895 C 0.83505 0.69229 0.66267 0.0
C1896 C 0.86197 0.67045 0.6731 0.0
C1897 C 0.86576 0.68764 0.72969 0.0
C1898 C 0.88438 0.68445 0.65609 0.0
C1899 C 0.89948 0.67251 0.64826 0.0
C1900 C 0.89241 0.64641 0.65746 0.0
C1901 C 0.86989 0.63237 0.67455 0.0
C1902 C 0.85465 0.64434 0.68228 0.0
H1903 H 0.86868 0.69908 0.7486 0.0
H1904 H 0.85312 0.66556 0.73405 0.0
H1905 H 0.88594 0.69144 0.72263 0.0
H1906 H 0.89037 0.70481 0.64912 0.0
H1907 H 0.91665 0.68373 0.63499 0.0
H1908 H 0.95779 0.80251 0.29057 0.0
H1909 H 0.91019 0.79116 0.28642 0.0
H1910 H 0.91804 0.79486 0.20029 0.0
H1911 H 0.96602 0.80785 0.2045 0.0
H1912 H 0.88413 0.81399 0.2187 0.0
H1913 H 0.85726 0.71407 0.26598 0.0
H1914 H 0.87621 0.74486 0.28489 0.0
H1915 H 0.89202 0.7378 0.25724 0.0
C1916 C 0.94917 0.80076 0.27078 0.0
C1917 C 0.96495 0.80495 0.24772 0.0
C1918 C 0.92219 0.79461 0.26849 0.0
C1919 C 0.91055 0.79173 0.24309 0.0
C1920 C 0.92674 0.79711 0.22011 0.0
H1921 H 0.82034 0.71648 0.12554 0.0
H1922 H 0.84419 0.75199 0.15915 0.0
C1923 C 0.9539 0.80402 0.22243 0.0
C1924 C 0.88094 0.77914 0.23957 0.0
H1925 H 0.82748 0.71479 0.23492 0.0
C1926 C 0.8712 0.79247 0.22299 0.0
C1927 C 0.86378 0.75136 0.24605 0.0
C1928 C 0.87269 0.73605 0.26448 0.0
C1929 C 0.84662 0.77764 0.20912 0.0
C1930 C 0.83197 0.74906 0.21196 0.0
C1931 C 0.83921 0.7367 0.23225 0.0
C1932 C 0.81432 0.73115 0.19047 0.0
C1933 C 0.83786 0.79234 0.18985 0.0
C1934 C 0.78993 0.70756 0.19698 0.0
C1935 C 0.77717 0.68685 0.17825 0.0
C1936 C 0.78836 0.68959 0.15255 0.0
C1937 C 0.81174 0.71385 0.14541 0.0
C1938 C 0.8249 0.73436 0.1644 0.0
H1939 H 0.8422 0.81221 0.19837 0.0
H1940 H 0.84976 0.79668 0.17106 0.0
H1941 H 0.81583 0.78012 0.18501 0.0
H1942 H 0.78155 0.7046 0.21699 0.0
H1943 H 0.75854 0.66862 0.18392 0.0
H1944 H 0.30073 0.24592 0.21406 0.0
H1945 H 0.34155 0.2535 0.19019 0.0
H1946 H 0.39166 0.31953 0.24372 0.0
H1947 H 0.35116 0.31176 0.26814 0.0
H1948 H 0.38423 0.30177 0.16474 0.0
H1949 H 0.41999 0.26582 0.25184 0.0
H1950 H 0.38583 0.26037 0.25009 0.0
H1951 H 0.41387 0.29367 0.25724 0.0
C1952 C 0.32044 0.26198 0.22078 0.0
C1953 C 0.32283 0.27793 0.24317 0.0
C1954 C 0.34364 0.26645 0.20702 0.0
C1955 C 0.36941 0.287 0.21537 0.0
C1956 C 0.37186 0.30342 0.23726 0.0
H1957 H 0.50388 0.26762 0.16194 0.0
H1958 H 0.48427 0.29457 0.17849 0.0
C1959 C 0.34873 0.29878 0.25123 0.0
C1960 C 0.39364 0.28948 0.20229 0.0
H1961 H 0.44175 0.27104 0.21108 0.0
C1962 C 0.3973 0.29566 0.17489 0.0
C1963 C 0.41078 0.28194 0.21588 0.0
C1964 C 0.40749 0.27492 0.24535 0.0
C1965 C 0.41641 0.29236 0.16016 0.0
C1966 C 0.43166 0.28227 0.17328 0.0
C1967 C 0.42984 0.27868 0.20113 0.0
C1968 C 0.44559 0.27042 0.15847 0.0
C1969 C 0.41914 0.2984 0.13056 0.0
C1970 C 0.43033 0.24816 0.14148 0.0
C1971 C 0.44139 0.23266 0.13207 0.0
C1972 C 0.46765 0.23896 0.13998 0.0
C1973 C 0.48331 0.26196 0.15604 0.0
C1974 C 0.47235 0.27761 0.16519 0.0
H1975 H 0.41503 0.31521 0.12589 0.0
H1976 H 0.43977 0.30402 0.12318 0.0
H1977 H 0.40392 0.28006 0.11956 0.0
H1978 H 0.40933 0.24182 0.13673 0.0
H1979 H 0.42902 0.21517 0.11952 0.0
H1980 H 0.8141 0.13734 0.27893 0.0
H1981 H 0.82231 0.18044 0.25935 0.0
H1982 H 0.85669 0.16492 0.18917 0.0
H1983 H 0.84839 0.12191 0.20822 0.0
H1984 H 0.87469 0.2218 0.24633 0.0
H1985 H 0.80709 0.19122 0.15755 0.0
H1986 H 0.80186 0.16821 0.18494 0.0
H1987 H 0.82657 0.17416 0.15939 0.0
C1988 C 0.82293 0.14287 0.2591 0.0
C1989 C 0.83073 0.12632 0.24516 0.0
C1990 C 0.82754 0.16742 0.24799 0.0
C1991 C 0.8397 0.17552 0.22273 0.0
C1992 C 0.8467 0.15865 0.20844 0.0
H1993 H 0.92584 0.31488 0.12433 0.0
H1994 H 0.90405 0.27043 0.14651 0.0
C1995 C 0.84219 0.13421 0.21951 0.0
C1996 C 0.84825 0.20294 0.21249 0.0
H1997 H 0.84572 0.23672 0.15704 0.0
C1998 C 0.86801 0.22521 0.22706 0.0
C1999 C 0.83946 0.20707 0.18733 0.0
C2000 C 0.81737 0.18389 0.17151 0.0
C2001 C 0.88038 0.25154 0.2164 0.0
C2002 C 0.87241 0.25548 0.19074 0.0
C2003 C 0.85187 0.23339 0.17663 0.0
C2004 C 0.88577 0.28233 0.17783 0.0
C2005 C 0.90271 0.27471 0.23204 0.0
C2006 C 0.88256 0.30344 0.18829 0.0
C2007 C 0.89502 0.32879 0.17583 0.0
C2008 C 0.91077 0.33332 0.15262 0.0
C2009 C 0.91399 0.31206 0.14226 0.0
C2010 C 0.90149 0.28668 0.15478 0.0
H2011 H 0.90988 0.26737 0.24917 0.0
H2012 H 0.92034 0.28749 0.2189 0.0
H2013 H 0.89495 0.28781 0.24006 0.0
H2014 H 0.87017 0.3002 0.2059 0.0
H2015 H 0.89195 0.34468 0.18421 0.0
H2016 H 0.75474 0.97393 0.31129 0.0
H2017 H 0.74448 0.92688 0.31656 0.0
H2018 H 0.82461 0.95497 0.34972 0.0
H2019 H 0.83402 1.00176 0.34682 0.0
H2020 H 0.76818 0.89837 0.29677 0.0
H2021 H 0.77802 0.90668 0.40827 0.0
H2022 H 0.7785 0.93348 0.38847 0.0
H2023 H 0.80741 0.92841 0.38857 0.0
C2024 C 0.76991 0.96999 0.32017 0.0
C2025 C 0.79493 0.99138 0.32904 0.0
C2026 C 0.76428 0.94322 0.32273 0.0
C2027 C 0.78383 0.93755 0.33358 0.0
C2028 C 0.80911 0.95892 0.34176 0.0
H2029 H 0.69446 0.78114 0.40449 0.0
H2030 H 0.73639 0.81265 0.38148 0.0
C2031 C 0.81437 0.98562 0.34012 0.0
C2032 C 0.77613 0.90904 0.33857 0.0
H2033 H 0.75294 0.86387 0.39 0.0
C2034 C 0.7655 0.89068 0.3171 0.0
C2035 C 0.77355 0.89914 0.36504 0.0
C2036 C 0.78485 0.91784 0.38897 0.0
C2037 C 0.74876 0.8628 0.32178 0.0
C2038 C 0.7428 0.85354 0.34844 0.0
C2039 C 0.75721 0.87125 0.36953 0.0
C2040 C 0.71725 0.82891 0.35561 0.0
C2041 C 0.7357 0.84395 0.29835 0.0
C2042 C 0.69247 0.82717 0.34812 0.0
C2043 C 0.66845 0.80929 0.36133 0.0
C2044 C 0.66911 0.79341 0.38251 0.0
C2045 C 0.69358 0.79387 0.38875 0.0
C2046 C 0.71745 0.81139 0.37528 0.0
H2047 H 0.75007 0.85021 0.28122 0.0
H2048 H 0.7291 0.8225 0.3037 0.0
H2049 H 0.71765 0.84519 0.29165 0.0
H2050 H 0.69199 0.84108 0.33352 0.0
H2051 H 0.64973 0.80892 0.35595 0.0
H2052 H 0.11023 0.82032 0.2869 0.0
H2053 H 0.15448 0.8277 0.30166 0.0
H2054 H 0.15309 0.87529 0.36833 0.0
H2055 H 0.10877 0.86789 0.35401 0.0
H2056 H 0.19824 0.88045 0.30397 0.0
H2057 H 0.18223 0.82862 0.40186 0.0
H2058 H 0.15499 0.81975 0.37804 0.0
H2059 H 0.16576 0.84865 0.39978 0.0
C2060 C 0.11907 0.83192 0.30501 0.0
C2061 C 0.10617 0.84378 0.31919 0.0
C2062 C 0.14424 0.83595 0.31343 0.0
C2063 C 0.15667 0.85166 0.3362 0.0
C2064 C 0.14338 0.86255 0.35103 0.0
H2065 H 0.30719 0.95118 0.40964 0.0
H2066 H 0.26025 0.92522 0.39367 0.0
C2067 C 0.11823 0.85857 0.34264 0.0
C2068 C 0.18518 0.86038 0.3422 0.0
H2069 H 0.22749 0.86621 0.39338 0.0
C2070 C 0.20475 0.87686 0.32326 0.0
C2071 C 0.1933 0.85557 0.36739 0.0
C2072 C 0.17293 0.83695 0.38783 0.0
C2073 C 0.23245 0.89032 0.32959 0.0
C2074 C 0.24047 0.8867 0.35533 0.0
C2075 C 0.22101 0.86901 0.37374 0.0
C2076 C 0.26881 0.90256 0.36418 0.0
C2077 C 0.25276 0.9095 0.30936 0.0
C2078 C 0.28885 0.89839 0.35253 0.0
C2079 C 0.31565 0.91332 0.36136 0.0
C2080 C 0.32262 0.93242 0.38213 0.0
C2081 C 0.30244 0.93671 0.39353 0.0
C2082 C 0.27567 0.92183 0.38459 0.0
H2083 H 0.24271 0.91343 0.29217 0.0
H2084 H 0.26714 0.92925 0.31889 0.0
H2085 H 0.26482 0.90048 0.3015 0.0
H2086 H 0.28367 0.88331 0.33694 0.0
H2087 H 0.33071 0.90932 0.3524 0.0
H2088 H 0.19638 0.48057 0.3609 0.0
H2089 H 0.19257 0.43838 0.34398 0.0
H2090 H 0.12975 0.39212 0.40189 0.0
H2091 H 0.13363 0.43403 0.41922 0.0
H2092 H 0.17309 0.38449 0.40559 0.0
H2093 H 0.13861 0.37244 0.30046 0.0
H2094 H 0.16546 0.4065 0.30696 0.0
H2095 H 0.13338 0.39357 0.32406 0.0
C2096 C 0.18145 0.46138 0.3697 0.0
C2097 C 0.16567 0.46063 0.39163 0.0
C2098 C 0.17901 0.4373 0.3598 0.0
C2099 C 0.16054 0.41222 0.37147 0.0
C2100 C 0.14388 0.41132 0.39251 0.0
H2101 H 0.19599 0.27864 0.35211 0.0
H2102 H 0.16847 0.29929 0.3642 0.0
C2103 C 0.1464 0.43533 0.40253 0.0
C2104 C 0.16231 0.38793 0.36493 0.0
H2105 H 0.16784 0.3535 0.31186 0.0
C2106 C 0.17113 0.37701 0.38526 0.0
C2107 C 0.15948 0.37824 0.33846 0.0
C2108 C 0.14842 0.38813 0.31632 0.0
C2109 C 0.18004 0.35865 0.37929 0.0
C2110 C 0.17955 0.35088 0.35237 0.0
C2111 C 0.16833 0.35982 0.33244 0.0
C2112 C 0.19464 0.33738 0.34401 0.0
C2113 C 0.1921 0.34965 0.40135 0.0
C2114 C 0.21815 0.35204 0.32851 0.0
C2115 C 0.23382 0.3404 0.32154 0.0
C2116 C 0.22623 0.31398 0.33017 0.0
C2117 C 0.20259 0.29929 0.34568 0.0
C2118 C 0.18676 0.31089 0.35243 0.0
H2119 H 0.19382 0.36025 0.42057 0.0
H2120 H 0.17899 0.32744 0.40471 0.0
H2121 H 0.21265 0.35353 0.39558 0.0
H2122 H 0.22453 0.37264 0.32205 0.0
H2123 H 0.25182 0.35207 0.30941 0.0
H2124 H 0.9796 0.43231 1.01298 0.0
H2125 H 0.01562 0.46457 0.98353 0.0
H2126 H 0.05904 0.51336 0.05215 0.0
H2127 H 0.02352 0.48055 0.08173 0.0
H2128 H 0.01886 0.51193 0.9824 0.0
H2129 H 0.12169 0.52982 1.00337 0.0
H2130 H 0.09145 0.4984 1.01255 0.0
H2131 H 0.10512 0.52753 0.03453 0.0
C2132 C 0.99717 0.44969 1.02175 0.0
C2133 C 0.99858 0.45471 0.0494 0.0
C2134 C 0.01791 0.46773 1.00498 0.0
C2135 C 0.04003 0.49124 1.01563 0.0
C2136 C 0.0425 0.49501 0.04353 0.0
H2137 H 0.1202 0.65416 1.01839 0.0
H2138 H 0.10237 0.60495 1.02053 0.0
C2139 C 0.02197 0.47663 0.06039 0.0
C2140 C 0.05574 0.51493 0.9982 0.0
H2141 H 0.11841 0.57145 0.99438 0.0
C2142 C 0.0408 0.52459 0.98408 0.0
C2143 C 0.08429 0.5312 1.00022 0.0
C2144 C 0.1015 0.52096 1.01328 0.0
C2145 C 0.05306 0.55152 0.97533 0.0
C2146 C 0.08115 0.56878 0.98018 0.0
C2147 C 0.09674 0.55816 0.99122 0.0
C2148 C 0.09348 0.59843 0.97808 0.0
C2149 C 0.03528 0.56189 0.96364 0.0
C2150 C 0.09406 0.61072 0.95359 0.0
C2151 C 0.10317 0.63847 0.95256 0.0
C2152 C 0.11255 0.65439 0.9759 0.0
C2153 C 0.11258 0.64216 1.00029 0.0
C2154 C 0.10286 0.61426 1.00141 0.0
H2155 H 0.01324 0.54671 0.96523 0.0
H2156 H 0.03903 0.58082 0.97392 0.0
H2157 H 0.04015 0.56664 0.94211 0.0
H2158 H 0.08735 0.59884 0.93535 0.0
H2159 H 0.10381 0.64761 0.9333 0.0
H2160 H 0.44157 0.55759 0.02941 0.0
H2161 H 0.48878 0.57837 0.04494 0.0
H2162 H 0.50126 0.52362 0.9948 0.0
H2163 H 0.45428 0.50256 0.97936 0.0
H2164 H 0.52396 0.53269 0.04875 0.0
H2165 H 0.55104 0.62716 0.99084 0.0
H2166 H 0.52314 0.61536 1.01402 0.0
H2167 H 0.51994 0.59548 0.98491 0.0
C2168 C 0.45424 0.54965 1.02211 0.0
C2169 C 0.44444 0.5287 1.00298 0.0
C2170 C 0.48112 0.56161 0.03087 0.0
C2171 C 0.49825 0.55266 1.02058 0.0
C2172 C 0.48813 0.53075 1.00274 0.0
H2173 H 0.66425 0.59098 1.02367 0.0
H2174 H 0.61668 0.57475 1.01185 0.0
C2175 C 0.46137 0.51885 0.99393 0.0
C2176 C 0.5273 0.56701 0.02689 0.0
H2177 H 0.58674 0.62504 1.01287 0.0
C2178 C 0.53774 0.55295 0.04114 0.0
C2179 C 0.54488 0.59334 1.01666 0.0
C2180 C 0.53434 0.60877 1.00059 0.0
C2181 C 0.56571 0.56455 0.04529 0.0
C2182 C 0.58336 0.59055 0.03443 0.0
C2183 C 0.5729 0.60494 1.02079 0.0
C2184 C 0.61282 0.60324 0.0377 0.0
C2185 C 0.5762 0.54899 0.06123 0.0
C2186 C 0.6263 0.62546 0.05494 0.0
C2187 C 0.65334 0.63481 0.06166 0.0
C2188 C 0.6671 0.622 0.05112 0.0
C2189 C 0.65407 0.60111 0.03218 0.0
C2190 C 0.62697 0.59175 0.02551 0.0
H2191 H 0.55974 0.53203 0.07282 0.0
H2192 H 0.58503 0.54019 0.04734 0.0
H2193 H 0.59247 0.5627 0.07531 0.0
H2194 H 0.61551 0.63457 0.06429 0.0
H2195 H 0.66302 0.65121 0.07605 0.0
H2196 H 0.53215 0.15749 0.02935 0.0
H2197 H 0.54029 0.12008 1.01889 0.0
H2198 H 0.48812 0.07301 0.08408 0.0
H2199 H 0.4796 0.11011 0.09474 0.0
H2200 H 0.56304 0.10088 0.06282 0.0
H2201 H 0.46645 0.02011 1.01693 0.0
H2202 H 0.47612 0.0557 1.0156 0.0
H2203 H 0.46464 0.03732 0.04649 0.0
C2204 C 0.52197 0.139 0.04114 0.0
C2205 C 0.50547 0.13682 0.06301 0.0
C2206 C 0.52662 0.11773 0.03513 0.0
C2207 C 0.51469 0.09405 0.05076 0.0
C2208 C 0.49719 0.09117 0.07174 0.0
H2209 H 0.54576 0.95869 0.03296 0.0
H2210 H 0.52929 0.98759 0.05192 0.0
C2211 C 0.49251 0.11243 0.07781 0.0
C2212 C 0.52309 0.07378 0.0469 0.0
H2213 H 0.50275 0.01118 1.02066 0.0
C2214 C 0.54987 0.08115 0.05382 0.0
C2215 C 0.50549 0.04808 0.03563 0.0
C2216 C 0.47655 0.03967 0.02808 0.0
C2217 C 0.55999 0.06366 0.04868 0.0
C2218 C 0.54288 0.03857 0.03602 0.0
C2219 C 0.51566 0.03059 0.03035 0.0
C2220 C 0.55372 0.02172 0.0259 0.0
C2221 C 0.58901 0.07237 0.05622 0.0
C2222 C 0.57269 0.03162 1.00502 0.0
C2223 C 0.58209 0.0153 0.99412 0.0
C2224 C 0.57253 0.98885 1.00399 0.0
C2225 C 0.55362 0.97909 0.02511 0.0
C2226 C 0.54416 0.99544 0.03593 0.0
H2227 H 0.59669 0.08811 0.07219 0.0
H2228 H 0.59087 0.05473 0.06318 0.0
H2229 H 0.60222 0.08123 0.03839 0.0
H2230 H 0.57984 0.05179 0.99685 0.0
H2231 H 0.59657 0.02332 0.97781 0.0
H2232 H 0.64486 0.18123 0.56912 0.0
H2233 H 0.59855 0.16802 0.55629 0.0
H2234 H 0.57098 0.08689 0.58642 0.0
H2235 H 0.61736 0.10057 0.60089 0.0
H2236 H 0.57584 0.13236 0.51896 0.0
H2237 H 0.50732 0.09611 0.60586 0.0
H2238 H 0.54377 0.11755 0.60939 0.0
H2239 H 0.52864 0.08109 0.60654 0.0
C2240 C 0.62887 0.16068 0.57347 0.0
C2241 C 0.63467 0.14166 0.58549 0.0
C2242 C 0.60239 0.15332 0.56642 0.0
C2243 C 0.58132 0.12665 0.57071 0.0
C2244 C 0.58685 0.10785 0.58366 0.0
H2245 H 0.46235 0.99538 0.50244 0.0
H2246 H 0.49421 0.03318 0.53045 0.0
C2247 C 0.61337 0.11545 0.59138 0.0
C2248 C 0.55529 0.11689 0.55664 0.0
H2249 H 0.48781 0.07129 0.56331 0.0
C2250 C 0.55638 0.11982 0.5287 0.0
C2251 C 0.53001 0.10094 0.56946 0.0
C2252 C 0.52739 0.09904 0.59952 0.0
C2253 C 0.5334 0.1043 0.51294 0.0
C2254 C 0.5088 0.08581 0.52569 0.0
C2255 C 0.50693 0.08532 0.55371 0.0
C2256 C 0.48717 0.06318 0.51063 0.0
C2257 C 0.5364 0.10567 0.48283 0.0
C2258 C 0.47288 0.06779 0.49032 0.0
C2259 C 0.4552 0.04638 0.47387 0.0
C2260 C 0.45134 0.02009 0.47793 0.0
C2261 C 0.46514 0.01548 0.4988 0.0
C2262 C 0.48303 0.03693 0.51497 0.0
H2263 H 0.55773 0.11943 0.47636 0.0
H2264 H 0.52955 0.08508 0.47453 0.0
H2265 H 0.52346 0.1133 0.474 0.0
H2266 H 0.47578 0.08796 0.48693 0.0
H2267 H 0.44432 0.05034 0.45826 0.0
H2268 H 0.96506 0.57784 0.53972 0.0
H2269 H 1.00576 0.58167 0.51856 0.0
H2270 H 0.05672 0.64477 0.57439 0.0
H2271 H 0.01644 0.64089 0.59597 0.0
H2272 H 0.05436 0.62938 0.49621 0.0
H2273 H 0.07461 0.58278 0.58565 0.0
H2274 H 0.04223 0.58097 0.58042 0.0
H2275 H 0.07122 0.61234 0.59094 0.0
C2276 C 0.98492 0.59255 0.54743 0.0
C2277 C 0.98756 0.60871 0.56973 0.0
C2278 C 1.00806 0.59486 0.53524 0.0
C2279 C 0.03398 0.6134 0.54516 0.0
C2280 C 0.03676 0.63022 0.56675 0.0
H2281 H 0.1692 0.58887 0.50297 0.0
H2282 H 0.14809 0.61431 0.5202 0.0
C2283 C 0.01371 0.6278 0.57908 0.0
C2284 C 0.05788 0.61333 0.53422 0.0
H2285 H 0.10099 0.58935 0.54764 0.0
C2286 C 0.06498 0.62111 0.50749 0.0
C2287 C 0.07179 0.60293 0.54933 0.0
C2288 C 0.0646 0.59411 0.57814 0.0
C2289 C 0.08471 0.61711 0.49486 0.0
C2290 C 0.09698 0.60461 0.50935 0.0
C2291 C 0.09142 0.59891 0.53666 0.0
C2292 C 0.11177 0.59292 0.49592 0.0
C2293 C 0.09146 0.62529 0.46592 0.0
C2294 C 0.09814 0.57249 0.47672 0.0
C2295 C 0.10995 0.55783 0.46702 0.0
C2296 C 0.13541 0.56315 0.47669 0.0
C2297 C 0.14932 0.58406 0.49549 0.0
C2298 C 0.13752 0.59882 0.50509 0.0
H2299 H 0.0889 0.64304 0.46105 0.0
H2300 H 0.11264 0.63046 0.46109 0.0
H2301 H 0.07729 0.60813 0.45295 0.0
H2302 H 0.07784 0.56709 0.47006 0.0
H2303 H 0.09884 0.54193 0.45243 0.0
H2304 H 0.60218 0.65314 0.44749 0.0
H2305 H 0.58566 0.60821 0.46733 0.0
H2306 H 0.54303 0.62651 0.52792 0.0
H2307 H 0.55955 0.67164 0.50844 0.0
H2308 H 0.5765 0.60427 0.54642 0.0
H2309 H 0.50527 0.54454 0.46414 0.0
H2310 H 0.53939 0.56885 0.4541 0.0
H2311 H 0.51808 0.58056 0.46856 0.0
C2312 C 0.58933 0.64767 0.46507 0.0
C2313 C 0.58213 0.66588 0.47644 0.0
C2314 C 0.57982 0.62199 0.47621 0.0
C2315 C 0.56293 0.61421 0.49872 0.0
C2316 C 0.55598 0.63235 0.51038 0.0
H2317 H 0.48792 0.47256 0.59953 0.0
H2318 H 0.50271 0.5163 0.57774 0.0
C2319 C 0.56545 0.65805 0.49927 0.0
C2320 C 0.55298 0.58724 0.51052 0.0
H2321 H 0.51188 0.51953 0.49854 0.0
C2322 C 0.5623 0.5857 0.53609 0.0
C2323 C 0.53458 0.56331 0.49669 0.0
C2324 C 0.52352 0.56425 0.46943 0.0
C2325 C 0.55384 0.56052 0.54824 0.0
C2326 C 0.53533 0.53659 0.53448 0.0
C2327 C 0.52608 0.53811 0.50886 0.0
C2328 C 0.52523 0.50972 0.54656 0.0
C2329 C 0.56504 0.55964 0.57545 0.0
C2330 C 0.53247 0.49152 0.53554 0.0
C2331 C 0.52401 0.46649 0.54782 0.0
C2332 C 0.50812 0.45943 0.57118 0.0
C2333 C 0.50027 0.4775 0.58164 0.0
C2334 C 0.50873 0.50247 0.56933 0.0
H2335 H 0.5835 0.57927 0.58052 0.0
H2336 H 0.54936 0.55541 0.59089 0.0
H2337 H 0.5702 0.54314 0.5764 0.0
H2338 H 0.54514 0.49695 0.51783 0.0
H2339 H 0.53033 0.45296 0.53928 0.0
loop_
_geom_bond_atom_site_label_1
_geom_bond_atom_site_label_2
_geom_bond_distance
_geom_bond_site_symmetry_2
_ccdc_geom_bond_type
Fe0 O2 1.918 . S
Fe0 O5 1.997 . S
Fe0 O6 2.002 . S
Fe0 O11 1.976 . S
Fe0 O14 1.996 . S
Fe1 O2 1.918 . S
Fe1 O9 1.997 . S
Fe1 O12 1.996 . S
Fe1 O16 1.976 . S
Fe1 O19 2.002 . S
O2 Fe0 1.918 . S
O2 Fe1 1.918 . S
O2 Fe3 1.918 . S
Fe3 O2 1.918 . S
Fe3 O4 2.002 . S
Fe3 O13 1.976 1_455 S
Fe3 O17 1.996 . S
Fe3 O20 1.997 . S
O4 Fe3 2.002 . S
O4 C21 1.295 . S
O5 Fe0 1.997 . S
O5 C21 1.235 . S
O6 Fe0 2.002 . S
O6 C7 1.295 . S
C7 O6 1.295 . S
C7 O9 1.235 . S
C8 O13 1.287 . S
C8 O14 1.255 1_655 S
O9 Fe1 1.997 . S
O9 C7 1.235 . S
C10 O16 1.287 . S
C10 O17 1.255 . S
O11 Fe0 1.976 . S
O11 C18 1.287 . S
O12 Fe1 1.996 . S
O12 C18 1.255 . S
O13 Fe3 1.976 1_655 S
O13 C8 1.287 . S
O14 Fe0 1.996 . S
O14 C8 1.255 1_455 S
C15 O19 1.295 . S
C15 O20 1.235 . S
O16 Fe1 1.976 . S
O16 C10 1.287 . S
O17 Fe3 1.996 . S
O17 C10 1.255 . S
C18 O11 1.287 . S
C18 O12 1.255 . S
O19 Fe1 2.002 . S
O19 C15 1.295 . S
O20 Fe3 1.997 . S
O20 C15 1.235 . S
C21 O4 1.295 . S
C21 O5 1.235 . S
Fe22 O24 1.918 . S
Fe22 O27 1.997 . S
Fe22 O28 2.002 . S
Fe22 O33 1.976 . S
Fe22 O36 1.996 . S
Fe23 O24 1.918 . S
Fe23 O31 1.997 . S
Fe23 O34 1.996 . S
Fe23 O38 1.976 . S
Fe23 O41 2.002 . S
O24 Fe22 1.918 . S
O24 Fe23 1.918 . S
O24 Fe25 1.918 . S
Fe25 O24 1.918 . S
Fe25 O26 2.002 . S
Fe25 O35 1.976 . S
Fe25 O39 1.996 . S
Fe25 O42 1.997 . S
O26 Fe25 2.002 . S
O26 C43 1.295 . S
O27 Fe22 1.997 . S
O27 C43 1.235 . S
O28 Fe22 2.002 . S
O28 C29 1.295 . S
C29 O28 1.295 . S
C29 O31 1.235 . S
C30 O35 1.287 . S
C30 O36 1.255 . S
O31 Fe23 1.997 . S
O31 C29 1.235 . S
C32 O38 1.287 . S
C32 O39 1.255 . S
O33 Fe22 1.976 . S
O33 C40 1.287 . S
O34 Fe23 1.996 . S
O34 C40 1.255 . S
O35 Fe25 1.976 . S
O35 C30 1.287 . S
O36 Fe22 1.996 . S
O36 C30 1.255 . S
C37 O41 1.295 . S
C37 O42 1.235 . S
O38 Fe23 1.976 . S
O38 C32 1.287 . S
O39 Fe25 1.996 . S
O39 C32 1.255 . S
C40 O33 1.287 . S
C40 O34 1.255 . S
O41 Fe23 2.002 . S
O41 C37 1.295 . S
O42 Fe25 1.997 . S
O42 C37 1.235 . S
C43 O26 1.295 . S
C43 O27 1.235 . S
Fe44 O46 1.918 . S
Fe44 O49 1.997 . S
Fe44 O50 2.002 . S
Fe44 O55 1.976 . S
Fe44 O58 1.996 . S
Fe45 O46 1.918 . S
Fe45 O53 1.997 . S
Fe45 O56 1.996 . S
Fe45 O60 1.976 . S
Fe45 O63 2.002 . S
O46 Fe44 1.918 . S
O46 Fe45 1.918 . S
O46 Fe47 1.918 . S
Fe47 O46 1.918 . S
Fe47 O48 2.002 . S
Fe47 O57 1.976 . S
Fe47 O61 1.996 . S
Fe47 O64 1.997 . S
O48 Fe47 2.002 . S
O48 C65 1.295 . S
O49 Fe44 1.997 . S
O49 C65 1.235 . S
O50 Fe44 2.002 . S
O50 C51 1.295 . S
C51 O50 1.295 . S
C51 O53 1.235 . S
C52 O57 1.287 . S
C52 O58 1.255 . S
O53 Fe45 1.997 . S
O53 C51 1.235 . S
C54 O60 1.287 . S
C54 O61 1.255 . S
O55 Fe44 1.976 . S
O55 C62 1.287 . S
O56 Fe45 1.996 . S
O56 C62 1.255 . S
O57 Fe47 1.976 . S
O57 C52 1.287 . S
O58 Fe44 1.996 . S
O58 C52 1.255 . S
C59 O63 1.295 . S
C59 O64 1.235 . S
O60 Fe45 1.976 . S
O60 C54 1.287 . S
O61 Fe47 1.996 . S
O61 C54 1.255 . S
C62 O55 1.287 . S
C62 O56 1.255 . S
O63 Fe45 2.002 . S
O63 C59 1.295 . S
O64 Fe47 1.997 . S
O64 C59 1.235 . S
C65 O48 1.295 . S
C65 O49 1.235 . S
Fe66 O68 1.918 . S
Fe66 O71 1.997 . S
Fe66 O72 2.002 1_455 S
Fe66 O77 1.976 . S
Fe66 O80 1.996 . S
Fe67 O68 1.918 . S
Fe67 O75 1.997 . S
Fe67 O78 1.996 . S
Fe67 O82 1.976 . S
Fe67 O85 2.002 . S
O68 Fe66 1.918 . S
O68 Fe67 1.918 . S
O68 Fe69 1.918 . S
Fe69 O68 1.918 . S
Fe69 O70 2.002 . S
Fe69 O79 1.976 . S
Fe69 O83 1.996 . S
Fe69 O86 1.997 . S
O70 Fe69 2.002 . S
O70 C87 1.295 . S
O71 Fe66 1.997 . S
O71 C87 1.235 . S
O72 Fe66 2.002 1_655 S
O72 C73 1.295 . S
C73 O72 1.295 . S
C73 O75 1.235 1_655 S
C74 O79 1.287 . S
C74 O80 1.255 . S
O75 Fe67 1.997 . S
O75 C73 1.235 1_455 S
C76 O82 1.287 . S
C76 O83 1.255 . S
O77 Fe66 1.976 . S
O77 C84 1.287 . S
O78 Fe67 1.996 . S
O78 C84 1.255 . S
O79 Fe69 1.976 . S
O79 C74 1.287 . S
O80 Fe66 1.996 . S
O80 C74 1.255 . S
C81 O85 1.295 . S
C81 O86 1.235 . S
O82 Fe67 1.976 . S
O82 C76 1.287 . S
O83 Fe69 1.996 . S
O83 C76 1.255 . S
C84 O77 1.287 . S
C84 O78 1.255 . S
O85 Fe67 2.002 . S
O85 C81 1.295 . S
O86 Fe69 1.997 . S
O86 C81 1.235 . S
C87 O70 1.295 . S
C87 O71 1.235 . S
Fe88 O90 1.918 . S
Fe88 O93 1.997 . S
Fe88 O94 2.002 . S
Fe88 O99 1.976 . S
Fe88 O102 1.996 . S
Fe89 O90 1.918 . S
Fe89 O97 1.997 . S
Fe89 O100 1.996 . S
Fe89 O104 1.976 . S
Fe89 O107 2.002 . S
O90 Fe88 1.918 . S
O90 Fe89 1.918 . S
O90 Fe91 1.918 . S
Fe91 O90 1.918 . S
Fe91 O92 2.002 . S
Fe91 O101 1.976 . S
Fe91 O105 1.996 . S
Fe91 O108 1.997 . S
O92 Fe91 2.002 . S
O92 C109 1.295 . S
O93 Fe88 1.997 . S
O93 C109 1.235 . S
O94 Fe88 2.002 . S
O94 C95 1.295 . S
C95 O94 1.295 . S
C95 O97 1.235 . S
C96 O101 1.287 . S
C96 O102 1.255 . S
O97 Fe89 1.997 . S
O97 C95 1.235 . S
C98 O104 1.287 . S
C98 O105 1.255 . S
O99 Fe88 1.976 . S
O99 C106 1.287 . S
O100 Fe89 1.996 . S
O100 C106 1.255 . S
O101 Fe91 1.976 . S
O101 C96 1.287 . S
O102 Fe88 1.996 . S
O102 C96 1.255 . S
C103 O107 1.295 . S
C103 O108 1.235 . S
O104 Fe89 1.976 . S
O104 C98 1.287 . S
O105 Fe91 1.996 . S
O105 C98 1.255 . S
C106 O99 1.287 . S
C106 O100 1.255 . S
O107 Fe89 2.002 . S
O107 C103 1.295 . S
O108 Fe91 1.997 . S
O108 C103 1.235 . S
C109 O92 1.295 . S
C109 O93 1.235 . S
Fe110 O112 1.918 . S
Fe110 O115 1.997 . S
Fe110 O116 2.002 . S
Fe110 O121 1.976 . S
Fe110 O124 1.996 . S
Fe111 O112 1.918 . S
Fe111 O119 1.997 . S
Fe111 O122 1.996 . S
Fe111 O126 1.976 . S
Fe111 O129 2.002 . S
O112 Fe110 1.918 . S
O112 Fe111 1.918 . S
O112 Fe113 1.918 . S
Fe113 O112 1.918 . S
Fe113 O114 2.002 . S
Fe113 O123 1.976 . S
Fe113 O127 1.996 . S
Fe113 O130 1.997 . S
O114 Fe113 2.002 . S
O114 C131 1.295 . S
O115 Fe110 1.997 . S
O115 C131 1.235 . S
O116 Fe110 2.002 . S
O116 C117 1.295 . S
C117 O116 1.295 . S
C117 O119 1.235 . S
C118 O123 1.287 . S
C118 O124 1.255 . S
O119 Fe111 1.997 . S
O119 C117 1.235 . S
C120 O126 1.287 . S
C120 O127 1.255 . S
O121 Fe110 1.976 . S
O121 C128 1.287 . S
O122 Fe111 1.996 . S
O122 C128 1.255 . S
O123 Fe113 1.976 . S
O123 C118 1.287 . S
O124 Fe110 1.996 . S
O124 C118 1.255 . S
C125 O129 1.295 . S
C125 O130 1.235 . S
O126 Fe111 1.976 . S
O126 C120 1.287 . S
O127 Fe113 1.996 . S
O127 C120 1.255 . S
C128 O121 1.287 . S
C128 O122 1.255 . S
O129 Fe111 2.002 . S
O129 C125 1.295 . S
O130 Fe113 1.997 . S
O130 C125 1.235 . S
C131 O114 1.295 . S
C131 O115 1.235 . S
Fe132 O134 1.918 . S
Fe132 O137 1.997 . S
Fe132 O138 2.002 . S
Fe132 O143 1.976 . S
Fe132 O146 1.996 . S
Fe133 O134 1.918 . S
Fe133 O141 1.997 . S
Fe133 O144 1.996 . S
Fe133 O148 1.976 . S
Fe133 O151 2.002 . S
O134 Fe132 1.918 . S
O134 Fe133 1.918 . S
O134 Fe135 1.918 . S
Fe135 O134 1.918 . S
Fe135 O136 2.002 . S
Fe135 O145 1.976 . S
Fe135 O149 1.996 . S
Fe135 O152 1.997 . S
O136 Fe135 2.002 . S
O136 C153 1.295 . S
O137 Fe132 1.997 . S
O137 C153 1.235 . S
O138 Fe132 2.002 . S
O138 C139 1.295 . S
C139 O138 1.295 . S
C139 O141 1.235 . S
C140 O145 1.287 . S
C140 O146 1.255 . S
O141 Fe133 1.997 . S
O141 C139 1.235 . S
C142 O148 1.287 . S
C142 O149 1.255 . S
O143 Fe132 1.976 . S
O143 C150 1.287 . S
O144 Fe133 1.996 . S
O144 C150 1.255 . S
O145 Fe135 1.976 . S
O145 C140 1.287 . S
O146 Fe132 1.996 . S
O146 C140 1.255 . S
C147 O151 1.295 . S
C147 O152 1.235 . S
O148 Fe133 1.976 . S
O148 C142 1.287 . S
O149 Fe135 1.996 . S
O149 C142 1.255 . S
C150 O143 1.287 . S
C150 O144 1.255 . S
O151 Fe133 2.002 . S
O151 C147 1.295 . S
O152 Fe135 1.997 . S
O152 C147 1.235 . S
C153 O136 1.295 . S
C153 O137 1.235 . S
Fe154 O156 1.918 . S
Fe154 O159 1.997 . S
Fe154 O160 2.002 . S
Fe154 O165 1.976 . S
Fe154 O168 1.996 . S
Fe155 O156 1.918 . S
Fe155 O163 1.997 . S
Fe155 O166 1.996 . S
Fe155 O170 1.976 . S
Fe155 O173 2.002 . S
O156 Fe154 1.918 . S
O156 Fe155 1.918 . S
O156 Fe157 1.918 . S
Fe157 O156 1.918 . S
Fe157 O158 2.002 . S
Fe157 O167 1.976 . S
Fe157 O171 1.996 . S
Fe157 O174 1.997 . S
O158 Fe157 2.002 . S
O158 C175 1.295 . S
O159 Fe154 1.997 . S
O159 C175 1.235 . S
O160 Fe154 2.002 . S
O160 C161 1.295 . S
C161 O160 1.295 . S
C161 O163 1.235 . S
C162 O167 1.287 . S
C162 O168 1.255 . S
O163 Fe155 1.997 . S
O163 C161 1.235 . S
C164 O170 1.287 . S
C164 O171 1.255 . S
O165 Fe154 1.976 . S
O165 C172 1.287 . S
O166 Fe155 1.996 . S
O166 C172 1.255 . S
O167 Fe157 1.976 . S
O167 C162 1.287 . S
O168 Fe154 1.996 . S
O168 C162 1.255 . S
C169 O173 1.295 . S
C169 O174 1.235 . S
O170 Fe155 1.976 . S
O170 C164 1.287 . S
O171 Fe157 1.996 . S
O171 C164 1.255 . S
C172 O165 1.287 . S
C172 O166 1.255 . S
O173 Fe155 2.002 . S
O173 C169 1.295 . S
O174 Fe157 1.997 . S
O174 C169 1.235 . S
C175 O158 1.295 . S
C175 O159 1.235 . S
Fe176 O178 1.918 . S
Fe176 O181 1.997 . S
Fe176 O182 2.002 . S
Fe176 O187 1.976 . S
Fe176 O190 1.996 . S
Fe177 O178 1.918 . S
Fe177 O185 1.997 . S
Fe177 O188 1.996 . S
Fe177 O192 1.976 . S
Fe177 O195 2.002 . S
O178 Fe176 1.918 . S
O178 Fe177 1.918 . S
O178 Fe179 1.918 . S
Fe179 O178 1.918 . S
Fe179 O180 2.002 . S
Fe179 O189 1.976 . S
Fe179 O193 1.996 . S
Fe179 O196 1.997 . S
O180 Fe179 2.002 . S
O180 C197 1.295 . S
O181 Fe176 1.997 . S
O181 C197 1.235 . S
O182 Fe176 2.002 . S
O182 C183 1.295 . S
C183 O182 1.295 . S
C183 O185 1.235 . S
C184 O189 1.287 . S
C184 O190 1.255 . S
O185 Fe177 1.997 . S
O185 C183 1.235 . S
C186 O192 1.287 . S
C186 O193 1.255 . S
O187 Fe176 1.976 . S
O187 C194 1.287 . S
O188 Fe177 1.996 . S
O188 C194 1.255 . S
O189 Fe179 1.976 . S
O189 C184 1.287 . S
O190 Fe176 1.996 . S
O190 C184 1.255 . S
C191 O195 1.295 . S
C191 O196 1.235 . S
O192 Fe177 1.976 . S
O192 C186 1.287 . S
O193 Fe179 1.996 . S
O193 C186 1.255 . S
C194 O187 1.287 . S
C194 O188 1.255 . S
O195 Fe177 2.002 . S
O195 C191 1.295 . S
O196 Fe179 1.997 . S
O196 C191 1.235 . S
C197 O180 1.295 . S
C197 O181 1.235 . S
Fe198 O200 1.918 . S
Fe198 O203 1.997 . S
Fe198 O204 2.002 . S
Fe198 O209 1.976 . S
Fe198 O212 1.996 . S
Fe199 O200 1.918 . S
Fe199 O207 1.997 . S
Fe199 O210 1.996 . S
Fe199 O214 1.976 . S
Fe199 O217 2.002 . S
O200 Fe198 1.918 . S
O200 Fe199 1.918 . S
O200 Fe201 1.918 . S
Fe201 O200 1.918 . S
Fe201 O202 2.002 . S
Fe201 O211 1.976 . S
Fe201 O215 1.996 . S
Fe201 O218 1.997 . S
O202 Fe201 2.002 . S
O202 C219 1.295 . S
O203 Fe198 1.997 . S
O203 C219 1.235 . S
O204 Fe198 2.002 . S
O204 C205 1.295 . S
C205 O204 1.295 . S
C205 O207 1.235 . S
C206 O211 1.287 . S
C206 O212 1.255 . S
O207 Fe199 1.997 . S
O207 C205 1.235 . S
C208 O214 1.287 . S
C208 O215 1.255 . S
O209 Fe198 1.976 . S
O209 C216 1.287 . S
O210 Fe199 1.996 . S
O210 C216 1.255 . S
O211 Fe201 1.976 . S
O211 C206 1.287 . S
O212 Fe198 1.996 . S
O212 C206 1.255 . S
C213 O217 1.295 . S
C213 O218 1.235 . S
O214 Fe199 1.976 . S
O214 C208 1.287 . S
O215 Fe201 1.996 . S
O215 C208 1.255 . S
C216 O209 1.287 . S
C216 O210 1.255 . S
O217 Fe199 2.002 . S
O217 C213 1.295 . S
O218 Fe201 1.997 . S
O218 C213 1.235 . S
C219 O202 1.295 . S
C219 O203 1.235 . S
Fe220 O222 1.918 . S
Fe220 O225 1.997 . S
Fe220 O226 2.002 . S
Fe220 O231 1.976 . S
Fe220 O234 1.996 . S
Fe221 O222 1.918 . S
Fe221 O229 1.997 . S
Fe221 O232 1.996 . S
Fe221 O236 1.976 . S
Fe221 O239 2.002 . S
O222 Fe220 1.918 . S
O222 Fe221 1.918 . S
O222 Fe223 1.918 . S
Fe223 O222 1.918 . S
Fe223 O224 2.002 . S
Fe223 O233 1.976 . S
Fe223 O237 1.996 . S
Fe223 O240 1.997 . S
O224 Fe223 2.002 . S
O224 C241 1.295 . S
O225 Fe220 1.997 . S
O225 C241 1.235 . S
O226 Fe220 2.002 . S
O226 C227 1.295 . S
C227 O226 1.295 . S
C227 O229 1.235 . S
C228 O233 1.287 . S
C228 O234 1.255 . S
O229 Fe221 1.997 . S
O229 C227 1.235 . S
C230 O236 1.287 . S
C230 O237 1.255 . S
O231 Fe220 1.976 . S
O231 C238 1.287 . S
O232 Fe221 1.996 . S
O232 C238 1.255 . S
O233 Fe223 1.976 . S
O233 C228 1.287 . S
O234 Fe220 1.996 . S
O234 C228 1.255 . S
C235 O239 1.295 . S
C235 O240 1.235 . S
O236 Fe221 1.976 . S
O236 C230 1.287 . S
O237 Fe223 1.996 . S
O237 C230 1.255 . S
C238 O231 1.287 . S
C238 O232 1.255 . S
O239 Fe221 2.002 . S
O239 C235 1.295 . S
O240 Fe223 1.997 . S
O240 C235 1.235 . S
C241 O224 1.295 . S
C241 O225 1.235 . S
Fe242 O244 1.918 . S
Fe242 O247 1.997 . S
Fe242 O248 2.002 . S
Fe242 O253 1.976 . S
Fe242 O256 1.996 . S
Fe243 O244 1.918 . S
Fe243 O251 1.997 . S
Fe243 O254 1.996 . S
Fe243 O258 1.976 . S
Fe243 O261 2.002 . S
O244 Fe242 1.918 . S
O244 Fe243 1.918 . S
O244 Fe245 1.918 . S
Fe245 O244 1.918 . S
Fe245 O246 2.002 . S
Fe245 O255 1.976 . S
Fe245 O259 1.996 . S
Fe245 O262 1.997 . S
O246 Fe245 2.002 . S
O246 C263 1.295 . S
O247 Fe242 1.997 . S
O247 C263 1.235 . S
O248 Fe242 2.002 . S
O248 C249 1.295 . S
C249 O248 1.295 . S
C249 O251 1.235 . S
C250 O255 1.287 . S
C250 O256 1.255 . S
O251 Fe243 1.997 . S
O251 C249 1.235 . S
C252 O258 1.287 . S
C252 O259 1.255 . S
O253 Fe242 1.976 . S
O253 C260 1.287 . S
O254 Fe243 1.996 . S
O254 C260 1.255 . S
O255 Fe245 1.976 . S
O255 C250 1.287 . S
O256 Fe242 1.996 . S
O256 C250 1.255 . S
C257 O261 1.295 . S
C257 O262 1.235 . S
O258 Fe243 1.976 . S
O258 C252 1.287 . S
O259 Fe245 1.996 . S
O259 C252 1.255 . S
C260 O253 1.287 . S
C260 O254 1.255 . S
O261 Fe243 2.002 . S
O261 C257 1.295 . S
O262 Fe245 1.997 . S
O262 C257 1.235 . S
C263 O246 1.295 . S
C263 O247 1.235 . S
Fe264 O266 1.918 . S
Fe264 O269 1.997 . S
Fe264 O270 2.002 . S
Fe264 O275 1.976 . S
Fe264 O278 1.996 . S
Fe265 O266 1.918 . S
Fe265 O273 1.997 . S
Fe265 O276 1.996 . S
Fe265 O280 1.976 . S
Fe265 O283 2.002 . S
O266 Fe264 1.918 . S
O266 Fe265 1.918 . S
O266 Fe267 1.918 . S
Fe267 O266 1.918 . S
Fe267 O268 2.002 . S
Fe267 O277 1.976 . S
Fe267 O281 1.996 . S
Fe267 O284 1.997 . S
O268 Fe267 2.002 . S
O268 C285 1.295 . S
O269 Fe264 1.997 . S
O269 C285 1.235 . S
O270 Fe264 2.002 . S
O270 C271 1.295 . S
C271 O270 1.295 . S
C271 O273 1.235 . S
C272 O277 1.287 . S
C272 O278 1.255 . S
O273 Fe265 1.997 . S
O273 C271 1.235 . S
C274 O280 1.287 . S
C274 O281 1.255 . S
O275 Fe264 1.976 . S
O275 C282 1.287 . S
O276 Fe265 1.996 . S
O276 C282 1.255 . S
O277 Fe267 1.976 . S
O277 C272 1.287 . S
O278 Fe264 1.996 . S
O278 C272 1.255 . S
C279 O283 1.295 . S
C279 O284 1.235 . S
O280 Fe265 1.976 . S
O280 C274 1.287 . S
O281 Fe267 1.996 . S
O281 C274 1.255 . S
C282 O275 1.287 . S
C282 O276 1.255 . S
O283 Fe265 2.002 . S
O283 C279 1.295 . S
O284 Fe267 1.997 . S
O284 C279 1.235 . S
C285 O268 1.295 . S
C285 O269 1.235 . S
Fe286 O288 1.918 . S
Fe286 O291 1.997 . S
Fe286 O292 2.002 . S
Fe286 O297 1.976 . S
Fe286 O300 1.996 . S
Fe287 O288 1.918 . S
Fe287 O295 1.997 . S
Fe287 O298 1.996 . S
Fe287 O302 1.976 . S
Fe287 O305 2.002 . S
O288 Fe286 1.918 . S
O288 Fe287 1.918 . S
O288 Fe289 1.918 . S
Fe289 O288 1.918 . S
Fe289 O290 2.002 . S
Fe289 O299 1.976 . S
Fe289 O303 1.996 . S
Fe289 O306 1.997 . S
O290 Fe289 2.002 . S
O290 C307 1.295 . S
O291 Fe286 1.997 . S
O291 C307 1.235 . S
O292 Fe286 2.002 . S
O292 C293 1.295 . S
C293 O292 1.295 . S
C293 O295 1.235 . S
C294 O299 1.287 . S
C294 O300 1.255 . S
O295 Fe287 1.997 . S
O295 C293 1.235 . S
C296 O302 1.287 . S
C296 O303 1.255 . S
O297 Fe286 1.976 . S
O297 C304 1.287 . S
O298 Fe287 1.996 . S
O298 C304 1.255 . S
O299 Fe289 1.976 . S
O299 C294 1.287 . S
O300 Fe286 1.996 . S
O300 C294 1.255 . S
C301 O305 1.295 . S
C301 O306 1.235 . S
O302 Fe287 1.976 . S
O302 C296 1.287 . S
O303 Fe289 1.996 . S
O303 C296 1.255 . S
C304 O297 1.287 . S
C304 O298 1.255 . S
O305 Fe287 2.002 . S
O305 C301 1.295 . S
O306 Fe289 1.997 . S
O306 C301 1.235 . S
C307 O290 1.295 . S
C307 O291 1.235 . S
Fe308 O310 1.918 . S
Fe308 O313 1.997 . S
Fe308 O314 2.002 . S
Fe308 O319 1.976 . S
Fe308 O322 1.996 . S
Fe309 O310 1.918 . S
Fe309 O317 1.997 . S
Fe309 O320 1.996 . S
Fe309 O324 1.976 . S
Fe309 O327 2.002 . S
O310 Fe308 1.918 . S
O310 Fe309 1.918 . S
O310 Fe311 1.918 . S
Fe311 O310 1.918 . S
Fe311 O312 2.002 . S
Fe311 O321 1.976 . S
Fe311 O325 1.996 . S
Fe311 O328 1.997 . S
O312 Fe311 2.002 . S
O312 C329 1.295 . S
O313 Fe308 1.997 . S
O313 C329 1.235 . S
O314 Fe308 2.002 . S
O314 C315 1.295 . S
C315 O314 1.295 . S
C315 O317 1.235 . S
C316 O321 1.287 . S
C316 O322 1.255 . S
O317 Fe309 1.997 . S
O317 C315 1.235 . S
C318 O324 1.287 . S
C318 O325 1.255 . S
O319 Fe308 1.976 . S
O319 C326 1.287 . S
O320 Fe309 1.996 . S
O320 C326 1.255 . S
O321 Fe311 1.976 . S
O321 C316 1.287 . S
O322 Fe308 1.996 . S
O322 C316 1.255 . S
C323 O327 1.295 . S
C323 O328 1.235 . S
O324 Fe309 1.976 . S
O324 C318 1.287 . S
O325 Fe311 1.996 . S
O325 C318 1.255 . S
C326 O319 1.287 . S
C326 O320 1.255 . S
O327 Fe309 2.002 . S
O327 C323 1.295 . S
O328 Fe311 1.997 . S
O328 C323 1.235 . S
C329 O312 1.295 . S
C329 O313 1.235 . S
Fe330 O332 1.918 . S
Fe330 O335 1.997 . S
Fe330 O336 2.002 . S
Fe330 O341 1.976 . S
Fe330 O344 1.996 . S
Fe331 O332 1.918 . S
Fe331 O339 1.997 . S
Fe331 O342 1.996 . S
Fe331 O346 1.976 . S
Fe331 O349 2.002 . S
O332 Fe330 1.918 . S
O332 Fe331 1.918 . S
O332 Fe333 1.918 . S
Fe333 O332 1.918 . S
Fe333 O334 2.002 . S
Fe333 O343 1.976 . S
Fe333 O347 1.996 . S
Fe333 O350 1.997 . S
O334 Fe333 2.002 . S
O334 C351 1.295 . S
O335 Fe330 1.997 . S
O335 C351 1.235 . S
O336 Fe330 2.002 . S
O336 C337 1.295 . S
C337 O336 1.295 . S
C337 O339 1.235 . S
C338 O343 1.287 . S
C338 O344 1.255 . S
O339 Fe331 1.997 . S
O339 C337 1.235 . S
C340 O346 1.287 . S
C340 O347 1.255 . S
O341 Fe330 1.976 . S
O341 C348 1.287 . S
O342 Fe331 1.996 . S
O342 C348 1.255 . S
O343 Fe333 1.976 . S
O343 C338 1.287 . S
O344 Fe330 1.996 . S
O344 C338 1.255 . S
C345 O349 1.295 . S
C345 O350 1.235 . S
O346 Fe331 1.976 . S
O346 C340 1.287 . S
O347 Fe333 1.996 . S
O347 C340 1.255 . S
C348 O341 1.287 . S
C348 O342 1.255 . S
O349 Fe331 2.002 . S
O349 C345 1.295 . S
O350 Fe333 1.997 . S
O350 C345 1.235 . S
C351 O334 1.295 . S
C351 O335 1.235 . S
Fe352 O354 1.918 . S
Fe352 O357 1.997 . S
Fe352 O358 2.002 . S
Fe352 O363 1.976 . S
Fe352 O366 1.996 . S
Fe353 O354 1.918 . S
Fe353 O361 1.997 . S
Fe353 O364 1.996 . S
Fe353 O368 1.976 . S
Fe353 O371 2.002 . S
O354 Fe352 1.918 . S
O354 Fe353 1.918 . S
O354 Fe355 1.918 . S
Fe355 O354 1.918 . S
Fe355 O356 2.002 . S
Fe355 O365 1.976 . S
Fe355 O369 1.996 . S
Fe355 O372 1.997 . S
O356 Fe355 2.002 . S
O356 C373 1.295 . S
O357 Fe352 1.997 . S
O357 C373 1.235 . S
O358 Fe352 2.002 . S
O358 C359 1.295 . S
C359 O358 1.295 . S
C359 O361 1.235 . S
C360 O365 1.287 . S
C360 O366 1.255 . S
O361 Fe353 1.997 . S
O361 C359 1.235 . S
C362 O368 1.287 . S
C362 O369 1.255 . S
O363 Fe352 1.976 . S
O363 C370 1.287 . S
O364 Fe353 1.996 . S
O364 C370 1.255 . S
O365 Fe355 1.976 . S
O365 C360 1.287 . S
O366 Fe352 1.996 . S
O366 C360 1.255 . S
C367 O371 1.295 . S
C367 O372 1.235 . S
O368 Fe353 1.976 . S
O368 C362 1.287 . S
O369 Fe355 1.996 . S
O369 C362 1.255 . S
C370 O363 1.287 . S
C370 O364 1.255 . S
O371 Fe353 2.002 . S
O371 C367 1.295 . S
O372 Fe355 1.997 . S
O372 C367 1.235 . S
C373 O356 1.295 . S
C373 O357 1.235 . S
Fe374 O376 1.918 . S
Fe374 O379 1.997 . S
Fe374 O380 2.002 . S
Fe374 O385 1.976 . S
Fe374 O388 1.996 . S
Fe375 O376 1.918 . S
Fe375 O383 1.997 . S
Fe375 O386 1.996 . S
Fe375 O390 1.976 . S
Fe375 O393 2.002 . S
O376 Fe374 1.918 . S
O376 Fe375 1.918 . S
O376 Fe377 1.918 . S
Fe377 O376 1.918 . S
Fe377 O378 2.002 . S
Fe377 O387 1.976 . S
Fe377 O391 1.996 . S
Fe377 O394 1.997 . S
O378 Fe377 2.002 . S
O378 C395 1.295 . S
O379 Fe374 1.997 . S
O379 C395 1.235 . S
O380 Fe374 2.002 . S
O380 C381 1.295 . S
C381 O380 1.295 . S
C381 O383 1.235 . S
C382 O387 1.287 . S
C382 O388 1.255 . S
O383 Fe375 1.997 . S
O383 C381 1.235 . S
C384 O390 1.287 . S
C384 O391 1.255 . S
O385 Fe374 1.976 . S
O385 C392 1.287 . S
O386 Fe375 1.996 . S
O386 C392 1.255 . S
O387 Fe377 1.976 . S
O387 C382 1.287 . S
O388 Fe374 1.996 . S
O388 C382 1.255 . S
C389 O393 1.295 . S
C389 O394 1.235 . S
O390 Fe375 1.976 . S
O390 C384 1.287 . S
O391 Fe377 1.996 . S
O391 C384 1.255 . S
C392 O385 1.287 . S
C392 O386 1.255 . S
O393 Fe375 2.002 . S
O393 C389 1.295 . S
O394 Fe377 1.997 . S
O394 C389 1.235 . S
C395 O378 1.295 . S
C395 O379 1.235 . S
H396 C404 0.929 . S
H397 C406 0.930 . S
H398 C408 0.930 . S
H399 C411 0.929 . S
H400 C414 0.930 . S
H401 C416 0.960 . S
H402 C416 0.960 . S
H403 C416 0.960 . S
C404 H396 0.929 . S
C404 C405 1.377 . S
C404 C406 1.384 . S
C405 C404 1.377 . S
C405 C411 1.390 . S
C406 H397 0.930 . S
C406 C404 1.384 . S
C406 C407 1.372 . S
C407 C406 1.372 . S
C407 C408 1.400 . S
C407 C412 1.490 . S
C408 H398 0.930 . S
C408 C407 1.400 . S
C408 C411 1.386 . S
H409 C425 0.930 . S
H410 C426 0.931 . S
C411 H399 0.929 . S
C411 C405 1.390 . S
C411 C408 1.386 . S
C412 C407 1.490 . S
C412 C414 1.395 . S
C412 C415 1.403 . S
H413 C419 0.930 . S
C414 H400 0.930 . S
C414 C412 1.395 . S
C414 C417 1.403 . S
C415 C412 1.403 . S
C415 C416 1.524 . S
C415 C419 1.400 . S
C416 H401 0.960 . S
C416 H402 0.960 . S
C416 H403 0.960 . S
C416 C415 1.524 . S
C417 C414 1.403 . S
C417 C418 1.392 . S
C417 C421 1.495 . S
C418 C417 1.392 . S
C418 C419 1.385 . S
C418 C420 1.478 . S
C419 H413 0.930 . S
C419 C415 1.400 . S
C419 C418 1.385 . S
C420 C418 1.478 . S
C420 C422 1.381 . S
C420 C426 1.383 . S
C421 C417 1.495 . S
C421 H427 0.959 . S
C421 H428 0.961 . S
C421 H429 0.960 . S
C422 C420 1.381 . S
C422 C423 1.394 . S
C422 H430 0.930 . S
C423 C422 1.394 . S
C423 C424 1.383 . S
C423 H431 0.929 . S
C424 C423 1.383 . S
C424 C425 1.377 . S
C425 H409 0.930 . S
C425 C424 1.377 . S
C425 C426 1.379 . S
C426 H410 0.931 . S
C426 C420 1.383 . S
C426 C425 1.379 . S
H427 C421 0.959 . S
H428 C421 0.961 . S
H429 C421 0.960 . S
H430 C422 0.930 . S
H431 C423 0.929 . S
H432 C440 0.929 . S
H433 C442 0.930 . S
H434 C444 0.930 . S
H435 C447 0.929 . S
H436 C450 0.930 . S
H437 C452 0.960 . S
H438 C452 0.960 . S
H439 C452 0.960 . S
C440 H432 0.929 . S
C440 C441 1.377 1_455 S
C440 C442 1.384 1_455 S
C441 C440 1.377 1_655 S
C441 C447 1.390 . S
C442 H433 0.930 . S
C442 C440 1.384 1_655 S
C442 C443 1.372 . S
C443 C442 1.372 . S
C443 C444 1.400 . S
C443 C448 1.490 . S
C444 H434 0.930 . S
C444 C443 1.400 . S
C444 C447 1.386 . S
H445 C461 0.930 . S
H446 C462 0.931 . S
C447 H435 0.929 . S
C447 C441 1.390 . S
C447 C444 1.386 . S
C448 C443 1.490 . S
C448 C450 1.395 . S
C448 C451 1.403 . S
H449 C455 0.930 . S
C450 H436 0.930 . S
C450 C448 1.395 . S
C450 C453 1.403 . S
C451 C448 1.403 . S
C451 C452 1.524 . S
C451 C455 1.400 . S
C452 H437 0.960 . S
C452 H438 0.960 . S
C452 H439 0.960 . S
C452 C451 1.524 . S
C453 C450 1.403 . S
C453 C454 1.392 . S
C453 C457 1.495 . S
C454 C453 1.392 . S
C454 C455 1.385 . S
C454 C456 1.478 . S
C455 H449 0.930 . S
C455 C451 1.400 . S
C455 C454 1.385 . S
C456 C454 1.478 . S
C456 C458 1.381 1_545 S
C456 C462 1.383 1_545 S
C457 C453 1.495 . S
C457 H463 0.959 . S
C457 H464 0.961 . S
C457 H465 0.960 . S
C458 C456 1.381 1_565 S
C458 C459 1.394 . S
C458 H466 0.930 . S
C459 C458 1.394 . S
C459 C460 1.383 . S
C459 H467 0.929 . S
C460 C459 1.383 . S
C460 C461 1.377 . S
C461 H445 0.930 . S
C461 C460 1.377 . S
C461 C462 1.379 . S
C462 H446 0.931 . S
C462 C456 1.383 1_565 S
C462 C461 1.379 . S
H463 C457 0.959 . S
H464 C457 0.961 . S
H465 C457 0.960 . S
H466 C458 0.930 . S
H467 C459 0.929 . S
H468 C476 0.929 . S
H469 C478 0.930 . S
H470 C480 0.930 . S
H471 C483 0.929 . S
H472 C486 0.930 . S
H473 C488 0.960 . S
H474 C488 0.960 . S
H475 C488 0.960 . S
C476 H468 0.929 . S
C476 C477 1.377 . S
C476 C478 1.384 . S
C477 C476 1.377 . S
C477 C483 1.390 . S
C478 H469 0.930 . S
C478 C476 1.384 . S
C478 C479 1.372 . S
C479 C478 1.372 . S
C479 C480 1.400 . S
C479 C484 1.490 1_655 S
C480 H470 0.930 . S
C480 C479 1.400 . S
C480 C483 1.386 . S
H481 C497 0.930 . S
H482 C498 0.931 . S
C483 H471 0.929 . S
C483 C477 1.390 . S
C483 C480 1.386 . S
C484 C479 1.490 1_455 S
C484 C486 1.395 . S
C484 C487 1.403 . S
H485 C491 0.930 . S
C486 H472 0.930 . S
C486 C484 1.395 . S
C486 C489 1.403 . S
C487 C484 1.403 . S
C487 C488 1.524 . S
C487 C491 1.400 . S
C488 H473 0.960 . S
C488 H474 0.960 . S
C488 H475 0.960 . S
C488 C487 1.524 . S
C489 C486 1.403 . S
C489 C490 1.392 . S
C489 C493 1.495 . S
C490 C489 1.392 . S
C490 C491 1.385 . S
C490 C492 1.478 . S
C491 H485 0.930 . S
C491 C487 1.400 . S
C491 C490 1.385 . S
C492 C490 1.478 . S
C492 C494 1.381 . S
C492 C498 1.383 1_565 S
C493 C489 1.495 . S
C493 H499 0.959 . S
C493 H500 0.961 . S
C493 H501 0.960 . S
C494 C492 1.381 . S
C494 C495 1.394 . S
C494 H502 0.930 . S
C495 C494 1.394 . S
C495 C496 1.383 1_565 S
C495 H503 0.929 . S
C496 C495 1.383 1_545 S
C496 C497 1.377 . S
C497 H481 0.930 . S
C497 C496 1.377 . S
C497 C498 1.379 . S
C498 H482 0.931 . S
C498 C492 1.383 1_545 S
C498 C497 1.379 . S
H499 C493 0.959 . S
H500 C493 0.961 . S
H501 C493 0.960 . S
H502 C494 0.930 . S
H503 C495 0.929 . S
H504 C512 0.929 . S
H505 C514 0.930 . S
H506 C516 0.930 . S
H507 C519 0.929 1_455 S
H508 C522 0.930 . S
H509 C524 0.998 . S
H510 C524 0.960 . S
H511 C524 0.960 . S
C512 H504 0.929 . S
C512 C513 1.377 . S
C512 C514 1.384 . S
C513 C512 1.377 . S
C513 C519 1.390 . S
C514 H505 0.930 . S
C514 C512 1.384 . S
C514 C515 1.372 . S
C515 C514 1.372 . S
C515 C516 1.400 . S
C515 C520 1.490 . S
C516 H506 0.930 . S
C516 C515 1.400 . S
C516 C519 1.386 . S
H517 C533 0.930 . S
H518 C534 0.937 1_545 S
C519 H507 0.929 1_655 S
C519 C513 1.390 . S
C519 C516 1.386 . S
C520 C515 1.490 . S
C520 C522 1.395 . S
C520 C523 1.403 . S
H521 C527 0.930 . S
C522 H508 0.930 . S
C522 C520 1.395 . S
C522 C525 1.403 . S
C523 C520 1.403 . S
C523 C524 1.524 . S
C523 C527 1.400 . S
C524 H509 0.998 . S
C524 H510 0.960 . S
C524 H511 0.960 . S
C524 C523 1.524 . S
C525 C522 1.403 . S
C525 C526 1.392 . S
C525 C529 1.495 . S
C526 C525 1.392 . S
C526 C527 1.385 . S
C526 C528 1.478 . S
C527 H521 0.930 . S
C527 C523 1.400 . S
C527 C526 1.385 . S
C528 C526 1.478 . S
C528 C530 1.381 . S
C528 C534 1.414 . S
C529 C525 1.495 . S
C529 H535 0.959 . S
C529 H536 0.961 . S
C529 H537 0.960 . S
C530 C528 1.381 . S
C530 C531 1.394 . S
C530 H538 0.930 . S
C531 C530 1.394 . S
C531 C532 1.383 1_565 S
C531 H539 0.929 . S
C532 C531 1.383 1_545 S
C532 C533 1.377 . S
C533 H517 0.930 . S
C533 C532 1.377 . S
C533 C534 1.344 1_545 S
C534 H518 0.937 1_565 S
C534 C528 1.414 . S
C534 C533 1.344 1_565 S
H535 C529 0.959 . S
H536 C529 0.961 . S
H537 C529 0.960 . S
H538 C530 0.930 . S
H539 C531 0.929 . S
H540 C548 0.929 . S
H541 C550 0.930 . S
H542 C552 0.930 1_545 S
H543 C555 0.929 . S
H544 C558 0.930 . S
H545 C560 0.960 . S
H546 C560 0.960 . S
H547 C560 0.960 . S
C548 H540 0.929 . S
C548 C549 1.377 . S
C548 C550 1.384 . S
C549 C548 1.377 . S
C549 C555 1.390 . S
C550 H541 0.930 . S
C550 C548 1.384 . S
C550 C551 1.372 1_565 S
C551 C550 1.372 1_545 S
C551 C552 1.400 1_545 S
C551 C556 1.490 . S
C552 H542 0.930 1_565 S
C552 C551 1.400 1_565 S
C552 C555 1.386 . S
H553 C569 0.930 . S
H554 C570 0.931 . S
C555 H543 0.929 . S
C555 C549 1.390 . S
C555 C552 1.386 . S
C556 C551 1.490 . S
C556 C558 1.395 . S
C556 C559 1.403 . S
H557 C563 0.930 . S
C558 H544 0.930 . S
C558 C556 1.395 . S
C558 C561 1.403 . S
C559 C556 1.403 . S
C559 C560 1.524 . S
C559 C563 1.400 . S
C560 H545 0.960 . S
C560 H546 0.960 . S
C560 H547 0.960 . S
C560 C559 1.524 . S
C561 C558 1.403 . S
C561 C562 1.392 . S
C561 C565 1.495 . S
C562 C561 1.392 . S
C562 C563 1.385 . S
C562 C564 1.478 . S
C563 H557 0.930 . S
C563 C559 1.400 . S
C563 C562 1.385 . S
C564 C562 1.478 . S
C564 C566 1.381 . S
C564 C570 1.383 . S
C565 C561 1.495 . S
C565 H571 0.959 . S
C565 H572 0.961 . S
C565 H573 0.960 . S
C566 C564 1.381 . S
C566 C567 1.394 . S
C566 H574 0.930 . S
C567 C566 1.394 . S
C567 C568 1.383 . S
C567 H575 0.929 . S
C568 C567 1.383 . S
C568 C569 1.377 . S
C569 H553 0.930 . S
C569 C568 1.377 . S
C569 C570 1.379 . S
C570 H554 0.931 . S
C570 C564 1.383 . S
C570 C569 1.379 . S
H571 C565 0.959 . S
H572 C565 0.961 . S
H573 C565 0.960 . S
H574 C566 0.930 . S
H575 C567 0.929 . S
H576 C584 0.929 . S
H577 C586 0.930 . S
H578 C588 0.930 . S
H579 C591 0.929 . S
H580 C594 0.930 . S
H581 C596 0.960 . S
H582 C596 0.960 . S
H583 C596 0.960 . S
C584 H576 0.929 . S
C584 C585 1.377 . S
C584 C586 1.384 . S
C585 C584 1.377 . S
C585 C591 1.390 . S
C586 H577 0.930 . S
C586 C584 1.384 . S
C586 C587 1.372 . S
C587 C586 1.372 . S
C587 C588 1.400 . S
C587 C592 1.490 . S
C588 H578 0.930 . S
C588 C587 1.400 . S
C588 C591 1.386 . S
H589 C605 0.930 . S
H590 C606 0.931 . S
C591 H579 0.929 . S
C591 C585 1.390 . S
C591 C588 1.386 . S
C592 C587 1.490 . S
C592 C594 1.395 . S
C592 C595 1.403 . S
H593 C599 0.930 . S
C594 H580 0.930 . S
C594 C592 1.395 . S
C594 C597 1.403 . S
C595 C592 1.403 . S
C595 C596 1.524 . S
C595 C599 1.400 . S
C596 H581 0.960 . S
C596 H582 0.960 . S
C596 H583 0.960 . S
C596 C595 1.524 . S
C597 C594 1.403 . S
C597 C598 1.392 . S
C597 C601 1.495 . S
C598 C597 1.392 . S
C598 C599 1.385 . S
C598 C600 1.478 1_455 S
C599 H593 0.930 . S
C599 C595 1.400 . S
C599 C598 1.385 . S
C600 C598 1.478 1_655 S
C600 C602 1.381 . S
C600 C606 1.383 . S
C601 C597 1.495 . S
C601 H607 0.959 . S
C601 H608 0.961 . S
C601 H609 0.960 . S
C602 C600 1.381 . S
C602 C603 1.394 . S
C602 H610 0.930 . S
C603 C602 1.394 . S
C603 C604 1.383 . S
C603 H611 0.929 . S
C604 C603 1.383 . S
C604 C605 1.377 . S
C605 H589 0.930 . S
C605 C604 1.377 . S
C605 C606 1.379 . S
C606 H590 0.931 . S
C606 C600 1.383 . S
C606 C605 1.379 . S
H607 C601 0.959 . S
H608 C601 0.961 . S
H609 C601 0.960 . S
H610 C602 0.930 . S
H611 C603 0.929 . S
H612 C620 0.929 . S
H613 C622 0.930 . S
H614 C624 0.930 . S
H615 C627 0.929 . S
H616 C630 0.930 . S
H617 C632 0.960 . S
H618 C632 0.960 . S
H619 C632 0.960 . S
C620 H612 0.929 . S
C620 C621 1.377 . S
C620 C622 1.384 . S
C621 C620 1.377 . S
C621 C627 1.390 . S
C622 H613 0.930 . S
C622 C620 1.384 . S
C622 C623 1.372 . S
C623 C622 1.372 . S
C623 C624 1.400 . S
C623 C628 1.490 . S
C624 H614 0.930 . S
C624 C623 1.400 . S
C624 C627 1.386 . S
H625 C641 0.930 . S
H626 C642 0.931 . S
C627 H615 0.929 . S
C627 C621 1.390 . S
C627 C624 1.386 . S
C628 C623 1.490 . S
C628 C630 1.395 . S
C628 C631 1.403 . S
H629 C635 0.930 . S
C630 H616 0.930 . S
C630 C628 1.395 . S
C630 C633 1.403 . S
C631 C628 1.403 . S
C631 C632 1.524 . S
C631 C635 1.400 . S
C632 H617 0.960 . S
C632 H618 0.960 . S
C632 H619 0.960 . S
C632 C631 1.524 . S
C633 C630 1.403 . S
C633 C634 1.392 . S
C633 C637 1.495 . S
C634 C633 1.392 . S
C634 C635 1.385 . S
C634 C636 1.478 . S
C635 H629 0.930 . S
C635 C631 1.400 . S
C635 C634 1.385 . S
C636 C634 1.478 . S
C636 C638 1.381 . S
C636 C642 1.383 . S
C637 C633 1.495 . S
C637 H643 0.959 . S
C637 H644 0.961 . S
C637 H645 0.960 . S
C638 C636 1.381 . S
C638 C639 1.394 . S
C638 H646 0.930 . S
C639 C638 1.394 . S
C639 C640 1.383 . S
C639 H647 0.929 . S
C640 C639 1.383 . S
C640 C641 1.377 . S
C641 H625 0.930 . S
C641 C640 1.377 . S
C641 C642 1.379 . S
C642 H626 0.931 . S
C642 C636 1.383 . S
C642 C641 1.379 . S
H643 C637 0.959 . S
H644 C637 0.961 . S
H645 C637 0.960 . S
H646 C638 0.930 . S
H647 C639 0.929 . S
H648 C656 0.929 . S
H649 C658 0.930 . S
H650 C660 0.930 . S
H651 C663 0.929 . S
H652 C666 0.930 . S
H653 C668 0.960 . S
H654 C668 0.960 . S
H655 C668 0.960 . S
C656 H648 0.929 . S
C656 C657 1.377 . S
C656 C658 1.384 . S
C657 C656 1.377 . S
C657 C663 1.390 . S
C658 H649 0.930 . S
C658 C656 1.384 . S
C658 C659 1.372 . S
C659 C658 1.372 . S
C659 C660 1.400 . S
C659 C664 1.490 . S
C660 H650 0.930 . S
C660 C659 1.400 . S
C660 C663 1.386 . S
H661 C677 0.930 . S
H662 C678 0.931 . S
C663 H651 0.929 . S
C663 C657 1.390 . S
C663 C660 1.386 . S
C664 C659 1.490 . S
C664 C666 1.395 . S
C664 C667 1.403 . S
H665 C671 0.930 . S
C666 H652 0.930 . S
C666 C664 1.395 . S
C666 C669 1.403 . S
C667 C664 1.403 . S
C667 C668 1.524 . S
C667 C671 1.400 . S
C668 H653 0.960 . S
C668 H654 0.960 . S
C668 H655 0.960 . S
C668 C667 1.524 . S
C669 C666 1.403 . S
C669 C670 1.392 . S
C669 C673 1.495 . S
C670 C669 1.392 . S
C670 C671 1.385 . S
C670 C672 1.478 . S
C671 H665 0.930 . S
C671 C667 1.400 . S
C671 C670 1.385 . S
C672 C670 1.478 . S
C672 C674 1.381 . S
C672 C678 1.383 . S
C673 C669 1.495 . S
C673 H679 0.959 . S
C673 H680 0.961 . S
C673 H681 0.960 . S
C674 C672 1.381 . S
C674 C675 1.394 . S
C674 H682 0.930 . S
C675 C674 1.394 . S
C675 C676 1.383 . S
C675 H683 0.929 . S
C676 C675 1.383 . S
C676 C677 1.377 . S
C677 H661 0.930 . S
C677 C676 1.377 . S
C677 C678 1.379 . S
C678 H662 0.931 . S
C678 C672 1.383 . S
C678 C677 1.379 . S
H679 C673 0.959 . S
H680 C673 0.961 . S
H681 C673 0.960 . S
H682 C674 0.930 . S
H683 C675 0.929 . S
H684 C692 0.929 . S
H685 C694 0.930 . S
H686 C696 0.930 . S
H687 C699 0.929 . S
H688 C702 0.930 . S
H689 C704 0.960 . S
H690 C704 0.960 . S
H691 C704 0.960 . S
C692 H684 0.929 . S
C692 C693 1.377 . S
C692 C694 1.384 . S
C693 C692 1.377 . S
C693 C699 1.390 . S
C694 H685 0.930 . S
C694 C692 1.384 . S
C694 C695 1.372 . S
C695 C694 1.372 . S
C695 C696 1.400 . S
C695 C700 1.490 . S
C696 H686 0.930 . S
C696 C695 1.400 . S
C696 C699 1.386 . S
H697 C713 0.930 . S
H698 C714 0.931 . S
C699 H687 0.929 . S
C699 C693 1.390 . S
C699 C696 1.386 . S
C700 C695 1.490 . S
C700 C702 1.395 . S
C700 C703 1.403 . S
H701 C707 0.930 . S
C702 H688 0.930 . S
C702 C700 1.395 . S
C702 C705 1.403 . S
C703 C700 1.403 . S
C703 C704 1.524 . S
C703 C707 1.400 . S
C704 H689 0.960 . S
C704 H690 0.960 . S
C704 H691 0.960 . S
C704 C703 1.524 . S
C705 C702 1.403 . S
C705 C706 1.392 . S
C705 C709 1.495 . S
C706 C705 1.392 . S
C706 C707 1.385 . S
C706 C708 1.478 . S
C707 H701 0.930 . S
C707 C703 1.400 . S
C707 C706 1.385 . S
C708 C706 1.478 . S
C708 C710 1.381 . S
C708 C714 1.383 . S
C709 C705 1.495 . S
C709 H715 0.959 . S
C709 H716 0.961 . S
C709 H717 0.960 . S
C710 C708 1.381 . S
C710 C711 1.394 . S
C710 H718 0.930 . S
C711 C710 1.394 . S
C711 C712 1.383 . S
C711 H719 0.929 . S
C712 C711 1.383 . S
C712 C713 1.377 . S
C713 H697 0.930 . S
C713 C712 1.377 . S
C713 C714 1.379 . S
C714 H698 0.931 . S
C714 C708 1.383 . S
C714 C713 1.379 . S
H715 C709 0.959 . S
H716 C709 0.961 . S
H717 C709 0.960 . S
H718 C710 0.930 . S
H719 C711 0.929 . S
H720 C728 0.929 . S
H721 C730 0.930 . S
H722 C732 0.930 . S
H723 C735 0.929 . S
H724 C738 0.930 . S
H725 C740 0.960 . S
H726 C740 0.960 . S
H727 C740 0.960 . S
C728 H720 0.929 . S
C728 C729 1.377 . S
C728 C730 1.384 . S
C729 C728 1.377 . S
C729 C735 1.390 . S
C730 H721 0.930 . S
C730 C728 1.384 . S
C730 C731 1.372 . S
C731 C730 1.372 . S
C731 C732 1.400 . S
C731 C736 1.490 . S
C732 H722 0.930 . S
C732 C731 1.400 . S
C732 C735 1.386 . S
H733 C749 0.930 . S
H734 C750 0.931 . S
C735 H723 0.929 . S
C735 C729 1.390 . S
C735 C732 1.386 . S
C736 C731 1.490 . S
C736 C738 1.395 . S
C736 C739 1.403 . S
H737 C743 0.930 . S
C738 H724 0.930 . S
C738 C736 1.395 . S
C738 C741 1.403 . S
C739 C736 1.403 . S
C739 C740 1.524 . S
C739 C743 1.400 . S
C740 H725 0.960 . S
C740 H726 0.960 . S
C740 H727 0.960 . S
C740 C739 1.524 . S
C741 C738 1.403 . S
C741 C742 1.392 . S
C741 C745 1.495 . S
C742 C741 1.392 . S
C742 C743 1.385 . S
C742 C744 1.478 . S
C743 H737 0.930 . S
C743 C739 1.400 . S
C743 C742 1.385 . S
C744 C742 1.478 . S
C744 C746 1.381 . S
C744 C750 1.383 . S
C745 C741 1.495 . S
C745 H751 0.959 . S
C745 H752 0.961 . S
C745 H753 0.960 . S
C746 C744 1.381 . S
C746 C747 1.394 . S
C746 H754 0.930 . S
C747 C746 1.394 . S
C747 C748 1.383 . S
C747 H755 0.929 . S
C748 C747 1.383 . S
C748 C749 1.377 . S
C749 H733 0.930 . S
C749 C748 1.377 . S
C749 C750 1.379 . S
C750 H734 0.931 . S
C750 C744 1.383 . S
C750 C749 1.379 . S
H751 C745 0.959 . S
H752 C745 0.961 . S
H753 C745 0.960 . S
H754 C746 0.930 . S
H755 C747 0.929 . S
H756 C764 0.929 . S
H757 C766 0.930 . S
H758 C768 0.930 . S
H759 C771 0.929 . S
H760 C774 0.930 . S
H761 C776 0.960 . S
H762 C776 0.960 . S
H763 C776 0.960 . S
C764 H756 0.929 . S
C764 C765 1.377 . S
C764 C766 1.384 . S
C765 C764 1.377 . S
C765 C771 1.390 . S
C766 H757 0.930 . S
C766 C764 1.384 . S
C766 C767 1.372 . S
C767 C766 1.372 . S
C767 C768 1.400 . S
C767 C772 1.490 . S
C768 H758 0.930 . S
C768 C767 1.400 . S
C768 C771 1.386 . S
H769 C785 0.930 . S
H770 C786 0.931 . S
C771 H759 0.929 . S
C771 C765 1.390 . S
C771 C768 1.386 . S
C772 C767 1.490 . S
C772 C774 1.395 . S
C772 C775 1.403 . S
H773 C779 0.930 . S
C774 H760 0.930 . S
C774 C772 1.395 . S
C774 C777 1.403 . S
C775 C772 1.403 . S
C775 C776 1.524 . S
C775 C779 1.400 . S
C776 H761 0.960 . S
C776 H762 0.960 . S
C776 H763 0.960 . S
C776 C775 1.524 . S
C777 C774 1.403 . S
C777 C778 1.392 . S
C777 C781 1.495 . S
C778 C777 1.392 . S
C778 C779 1.385 . S
C778 C780 1.478 . S
C779 H773 0.930 . S
C779 C775 1.400 . S
C779 C778 1.385 . S
C780 C778 1.478 . S
C780 C782 1.381 . S
C780 C786 1.383 . S
C781 C777 1.495 . S
C781 H787 0.959 . S
C781 H788 0.961 . S
C781 H789 0.960 . S
C782 C780 1.381 . S
C782 C783 1.394 . S
C782 H790 0.930 . S
C783 C782 1.394 . S
C783 C784 1.383 . S
C783 H791 0.929 . S
C784 C783 1.383 . S
C784 C785 1.377 . S
C785 H769 0.930 . S
C785 C784 1.377 . S
C785 C786 1.379 . S
C786 H770 0.931 . S
C786 C780 1.383 . S
C786 C785 1.379 . S
H787 C781 0.959 . S
H788 C781 0.961 . S
H789 C781 0.960 . S
H790 C782 0.930 . S
H791 C783 0.929 . S
H792 C800 0.929 . S
H793 C802 0.930 . S
H794 C804 0.930 . S
H795 C807 0.929 . S
H796 C810 0.930 . S
H797 C812 0.960 . S
H798 C812 0.960 . S
H799 C812 0.960 . S
C800 H792 0.929 . S
C800 C801 1.377 . S
C800 C802 1.384 . S
C801 C800 1.377 . S
C801 C807 1.390 . S
C802 H793 0.930 . S
C802 C800 1.384 . S
C802 C803 1.372 . S
C803 C802 1.372 . S
C803 C804 1.400 . S
C803 C808 1.490 . S
C804 H794 0.930 . S
C804 C803 1.400 . S
C804 C807 1.386 . S
H805 C821 0.930 . S
H806 C822 0.931 . S
C807 H795 0.929 . S
C807 C801 1.390 . S
C807 C804 1.386 . S
C808 C803 1.490 . S
C808 C810 1.395 . S
C808 C811 1.403 . S
H809 C815 0.930 . S
C810 H796 0.930 . S
C810 C808 1.395 . S
C810 C813 1.403 . S
C811 C808 1.403 . S
C811 C812 1.524 . S
C811 C815 1.400 . S
C812 H797 0.960 . S
C812 H798 0.960 . S
C812 H799 0.960 . S
C812 C811 1.524 . S
C813 C810 1.403 . S
C813 C814 1.392 . S
C813 C817 1.495 . S
C814 C813 1.392 . S
C814 C815 1.385 . S
C814 C816 1.478 . S
C815 H809 0.930 . S
C815 C811 1.400 . S
C815 C814 1.385 . S
C816 C814 1.478 . S
C816 C818 1.381 . S
C816 C822 1.383 . S
C817 C813 1.495 . S
C817 H823 0.959 . S
C817 H824 0.961 . S
C817 H825 0.960 . S
C818 C816 1.381 . S
C818 C819 1.394 . S
C818 H826 0.930 . S
C819 C818 1.394 . S
C819 C820 1.383 . S
C819 H827 0.929 . S
C820 C819 1.383 . S
C820 C821 1.377 . S
C821 H805 0.930 . S
C821 C820 1.377 . S
C821 C822 1.379 . S
C822 H806 0.931 . S
C822 C816 1.383 . S
C822 C821 1.379 . S
H823 C817 0.959 . S
H824 C817 0.961 . S
H825 C817 0.960 . S
H826 C818 0.930 . S
H827 C819 0.929 . S
H828 C836 0.929 . S
H829 C838 0.930 . S
H830 C840 0.930 . S
H831 C843 0.929 . S
H832 C846 0.930 . S
H833 C848 0.960 . S
H834 C848 0.960 . S
H835 C848 0.960 . S
C836 H828 0.929 . S
C836 C837 1.377 . S
C836 C838 1.384 . S
C837 C836 1.377 . S
C837 C843 1.390 . S
C838 H829 0.930 . S
C838 C836 1.384 . S
C838 C839 1.372 . S
C839 C838 1.372 . S
C839 C840 1.400 . S
C839 C844 1.490 . S
C840 H830 0.930 . S
C840 C839 1.400 . S
C840 C843 1.386 . S
H841 C857 0.930 . S
H842 C858 0.931 . S
C843 H831 0.929 . S
C843 C837 1.390 . S
C843 C840 1.386 . S
C844 C839 1.490 . S
C844 C846 1.395 . S
C844 C847 1.403 . S
H845 C851 0.930 . S
C846 H832 0.930 . S
C846 C844 1.395 . S
C846 C849 1.403 . S
C847 C844 1.403 . S
C847 C848 1.524 . S
C847 C851 1.400 . S
C848 H833 0.960 . S
C848 H834 0.960 . S
C848 H835 0.960 . S
C848 C847 1.524 . S
C849 C846 1.403 . S
C849 C850 1.392 . S
C849 C853 1.495 . S
C850 C849 1.392 . S
C850 C851 1.385 . S
C850 C852 1.478 . S
C851 H845 0.930 . S
C851 C847 1.400 . S
C851 C850 1.385 . S
C852 C850 1.478 . S
C852 C854 1.381 . S
C852 C858 1.383 . S
C853 C849 1.495 . S
C853 H859 0.959 . S
C853 H860 0.961 . S
C853 H861 0.960 . S
C854 C852 1.381 . S
C854 C855 1.394 . S
C854 H862 0.930 . S
C855 C854 1.394 . S
C855 C856 1.383 . S
C855 H863 0.929 . S
C856 C855 1.383 . S
C856 C857 1.377 . S
C857 H841 0.930 . S
C857 C856 1.377 . S
C857 C858 1.379 . S
C858 H842 0.931 . S
C858 C852 1.383 . S
C858 C857 1.379 . S
H859 C853 0.959 . S
H860 C853 0.961 . S
H861 C853 0.960 . S
H862 C854 0.930 . S
H863 C855 0.929 . S
H864 C872 0.929 . S
H865 C874 0.930 . S
H866 C876 0.930 . S
H867 C879 0.929 . S
H868 C882 0.930 . S
H869 C884 0.960 . S
H870 C884 0.960 . S
H871 C884 0.960 . S
C872 H864 0.929 . S
C872 C873 1.377 . S
C872 C874 1.384 . S
C873 C872 1.377 . S
C873 C879 1.390 . S
C874 H865 0.930 . S
C874 C872 1.384 . S
C874 C875 1.372 . S
C875 C874 1.372 . S
C875 C876 1.400 . S
C875 C880 1.490 . S
C876 H866 0.930 . S
C876 C875 1.400 . S
C876 C879 1.386 . S
H877 C893 0.930 . S
H878 C894 0.931 . S
C879 H867 0.929 . S
C879 C873 1.390 . S
C879 C876 1.386 . S
C880 C875 1.490 . S
C880 C882 1.395 . S
C880 C883 1.403 . S
H881 C887 0.930 . S
C882 H868 0.930 . S
C882 C880 1.395 . S
C882 C885 1.403 . S
C883 C880 1.403 . S
C883 C884 1.524 . S
C883 C887 1.400 . S
C884 H869 0.960 . S
C884 H870 0.960 . S
C884 H871 0.960 . S
C884 C883 1.524 . S
C885 C882 1.403 . S
C885 C886 1.392 . S
C885 C889 1.495 . S
C886 C885 1.392 . S
C886 C887 1.385 . S
C886 C888 1.478 . S
C887 H881 0.930 . S
C887 C883 1.400 . S
C887 C886 1.385 . S
C888 C886 1.478 . S
C888 C890 1.381 . S
C888 C894 1.383 . S
C889 C885 1.495 . S
C889 H895 0.959 . S
C889 H896 0.961 . S
C889 H897 0.960 . S
C890 C888 1.381 . S
C890 C891 1.394 . S
C890 H898 0.930 . S
C891 C890 1.394 . S
C891 C892 1.383 . S
C891 H899 0.929 . S
C892 C891 1.383 . S
C892 C893 1.377 . S
C893 H877 0.930 . S
C893 C892 1.377 . S
C893 C894 1.379 . S
C894 H878 0.931 . S
C894 C888 1.383 . S
C894 C893 1.379 . S
H895 C889 0.959 . S
H896 C889 0.961 . S
H897 C889 0.960 . S
H898 C890 0.930 . S
H899 C891 0.929 . S
H900 C908 0.929 . S
H901 C910 0.930 . S
H902 C912 0.930 . S
H903 C915 0.929 . S
H904 C918 0.930 . S
H905 C920 0.960 . S
H906 C920 0.960 . S
H907 C920 0.960 . S
C908 H900 0.929 . S
C908 C909 1.377 . S
C908 C910 1.384 . S
C909 C908 1.377 . S
C909 C915 1.390 . S
C910 H901 0.930 . S
C910 C908 1.384 . S
C910 C911 1.372 . S
C911 C910 1.372 . S
C911 C912 1.400 . S
C911 C916 1.490 . S
C912 H902 0.930 . S
C912 C911 1.400 . S
C912 C915 1.386 . S
H913 C929 0.930 . S
H914 C930 0.931 . S
C915 H903 0.929 . S
C915 C909 1.390 . S
C915 C912 1.386 . S
C916 C911 1.490 . S
C916 C918 1.395 . S
C916 C919 1.403 . S
H917 C923 0.930 . S
C918 H904 0.930 . S
C918 C916 1.395 . S
C918 C921 1.403 . S
C919 C916 1.403 . S
C919 C920 1.524 . S
C919 C923 1.400 . S
C920 H905 0.960 . S
C920 H906 0.960 . S
C920 H907 0.960 . S
C920 C919 1.524 . S
C921 C918 1.403 . S
C921 C922 1.392 . S
C921 C925 1.495 . S
C922 C921 1.392 . S
C922 C923 1.385 . S
C922 C924 1.478 . S
C923 H917 0.930 . S
C923 C919 1.400 . S
C923 C922 1.385 . S
C924 C922 1.478 . S
C924 C926 1.381 . S
C924 C930 1.383 . S
C925 C921 1.495 . S
C925 H931 0.959 . S
C925 H932 0.961 . S
C925 H933 0.960 . S
C926 C924 1.381 . S
C926 C927 1.394 . S
C926 H934 0.930 . S
C927 C926 1.394 . S
C927 C928 1.383 . S
C927 H935 0.929 . S
C928 C927 1.383 . S
C928 C929 1.377 . S
C929 H913 0.930 . S
C929 C928 1.377 . S
C929 C930 1.379 . S
C930 H914 0.931 . S
C930 C924 1.383 . S
C930 C929 1.379 . S
H931 C925 0.959 . S
H932 C925 0.961 . S
H933 C925 0.960 . S
H934 C926 0.930 . S
H935 C927 0.929 . S
H936 C944 0.929 . S
H937 C946 0.930 . S
H938 C948 0.930 . S
H939 C951 0.929 . S
H940 C954 0.930 . S
H941 C956 0.960 . S
H942 C956 0.960 . S
H943 C956 0.960 . S
C944 H936 0.929 . S
C944 C945 1.377 . S
C944 C946 1.384 . S
C945 C944 1.377 . S
C945 C951 1.390 . S
C946 H937 0.930 . S
C946 C944 1.384 . S
C946 C947 1.372 . S
C947 C946 1.372 . S
C947 C948 1.400 . S
C947 C952 1.490 . S
C948 H938 0.930 . S
C948 C947 1.400 . S
C948 C951 1.386 . S
H949 C965 0.930 . S
H950 C966 0.931 . S
C951 H939 0.929 . S
C951 C945 1.390 . S
C951 C948 1.386 . S
C952 C947 1.490 . S
C952 C954 1.395 . S
C952 C955 1.403 . S
H953 C959 0.930 . S
C954 H940 0.930 . S
C954 C952 1.395 . S
C954 C957 1.403 . S
C955 C952 1.403 . S
C955 C956 1.524 . S
C955 C959 1.400 . S
C956 H941 0.960 . S
C956 H942 0.960 . S
C956 H943 0.960 . S
C956 C955 1.524 . S
C957 C954 1.403 . S
C957 C958 1.392 . S
C957 C961 1.495 . S
C958 C957 1.392 . S
C958 C959 1.385 . S
C958 C960 1.478 . S
C959 H953 0.930 . S
C959 C955 1.400 . S
C959 C958 1.385 . S
C960 C958 1.478 . S
C960 C962 1.381 . S
C960 C966 1.383 . S
C961 C957 1.495 . S
C961 H967 0.959 . S
C961 H968 0.961 . S
C961 H969 0.960 . S
C962 C960 1.381 . S
C962 C963 1.394 . S
C962 H970 0.930 . S
C963 C962 1.394 . S
C963 C964 1.383 . S
C963 H971 0.929 . S
C964 C963 1.383 . S
C964 C965 1.377 . S
C965 H949 0.930 . S
C965 C964 1.377 . S
C965 C966 1.379 . S
C966 H950 0.931 . S
C966 C960 1.383 . S
C966 C965 1.379 . S
H967 C961 0.959 . S
H968 C961 0.961 . S
H969 C961 0.960 . S
H970 C962 0.930 . S
H971 C963 0.929 . S
H972 C980 0.929 . S
H973 C982 0.930 . S
H974 C984 0.930 . S
H975 C987 0.929 . S
H976 C990 0.930 . S
H977 C992 0.960 . S
H978 C992 0.960 . S
H979 C992 0.960 . S
C980 H972 0.929 . S
C980 C981 1.377 . S
C980 C982 1.384 . S
C981 C980 1.377 . S
C981 C987 1.390 . S
C982 H973 0.930 . S
C982 C980 1.384 . S
C982 C983 1.372 . S
C983 C982 1.372 . S
C983 C984 1.400 . S
C983 C988 1.490 . S
C984 H974 0.930 . S
C984 C983 1.400 . S
C984 C987 1.386 . S
H985 C1001 0.930 . S
H986 C1002 0.931 . S
C987 H975 0.929 . S
C987 C981 1.390 . S
C987 C984 1.386 . S
C988 C983 1.490 . S
C988 C990 1.395 . S
C988 C991 1.403 . S
H989 C995 0.930 . S
C990 H976 0.930 . S
C990 C988 1.395 . S
C990 C993 1.403 . S
C991 C988 1.403 . S
C991 C992 1.524 . S
C991 C995 1.400 . S
C992 H977 0.960 . S
C992 H978 0.960 . S
C992 H979 0.960 . S
C992 C991 1.524 . S
C993 C990 1.403 . S
C993 C994 1.392 . S
C993 C997 1.495 . S
C994 C993 1.392 . S
C994 C995 1.385 . S
C994 C996 1.478 . S
C995 H989 0.930 . S
C995 C991 1.400 . S
C995 C994 1.385 . S
C996 C994 1.478 . S
C996 C998 1.381 . S
C996 C1002 1.383 . S
C997 C993 1.495 . S
C997 H1003 0.959 . S
C997 H1004 0.961 . S
C997 H1005 0.960 . S
C998 C996 1.381 . S
C998 C999 1.394 . S
C998 H1006 0.930 . S
C999 C998 1.394 . S
C999 C1000 1.383 . S
C999 H1007 0.929 . S
C1000 C999 1.383 . S
C1000 C1001 1.377 . S
C1001 H985 0.930 . S
C1001 C1000 1.377 . S
C1001 C1002 1.379 . S
C1002 H986 0.931 . S
C1002 C996 1.383 . S
C1002 C1001 1.379 . S
H1003 C997 0.959 . S
H1004 C997 0.961 . S
H1005 C997 0.960 . S
H1006 C998 0.930 . S
H1007 C999 0.929 . S
H1008 C1016 0.929 . S
H1009 C1018 0.930 . S
H1010 C1020 0.930 . S
H1011 C1023 0.929 . S
H1012 C1026 0.930 . S
H1013 C1028 0.960 . S
H1014 C1028 0.960 . S
H1015 C1028 0.960 . S
C1016 H1008 0.929 . S
C1016 C1017 1.377 . S
C1016 C1018 1.384 . S
C1017 C1016 1.377 . S
C1017 C1023 1.390 . S
C1018 H1009 0.930 . S
C1018 C1016 1.384 . S
C1018 C1019 1.372 . S
C1019 C1018 1.372 . S
C1019 C1020 1.400 . S
C1019 C1024 1.490 . S
C1020 H1010 0.930 . S
C1020 C1019 1.400 . S
C1020 C1023 1.386 . S
H1021 C1037 0.930 . S
H1022 C1038 0.931 . S
C1023 H1011 0.929 . S
C1023 C1017 1.390 . S
C1023 C1020 1.386 . S
C1024 C1019 1.490 . S
C1024 C1026 1.395 . S
C1024 C1027 1.403 . S
H1025 C1031 0.930 . S
C1026 H1012 0.930 . S
C1026 C1024 1.395 . S
C1026 C1029 1.403 . S
C1027 C1024 1.403 . S
C1027 C1028 1.524 . S
C1027 C1031 1.400 . S
C1028 H1013 0.960 . S
C1028 H1014 0.960 . S
C1028 H1015 0.960 . S
C1028 C1027 1.524 . S
C1029 C1026 1.403 . S
C1029 C1030 1.392 . S
C1029 C1033 1.495 . S
C1030 C1029 1.392 . S
C1030 C1031 1.385 . S
C1030 C1032 1.478 . S
C1031 H1025 0.930 . S
C1031 C1027 1.400 . S
C1031 C1030 1.385 . S
C1032 C1030 1.478 . S
C1032 C1034 1.381 . S
C1032 C1038 1.383 . S
C1033 C1029 1.495 . S
C1033 H1039 0.959 . S
C1033 H1040 0.961 . S
C1033 H1041 0.960 . S
C1034 C1032 1.381 . S
C1034 C1035 1.394 . S
C1034 H1042 0.930 . S
C1035 C1034 1.394 . S
C1035 C1036 1.383 . S
C1035 H1043 0.929 . S
C1036 C1035 1.383 . S
C1036 C1037 1.377 . S
C1037 H1021 0.930 . S
C1037 C1036 1.377 . S
C1037 C1038 1.379 . S
C1038 H1022 0.931 . S
C1038 C1032 1.383 . S
C1038 C1037 1.379 . S
H1039 C1033 0.959 . S
H1040 C1033 0.961 . S
H1041 C1033 0.960 . S
H1042 C1034 0.930 . S
H1043 C1035 0.929 . S
H1044 C1052 0.929 . S
H1045 C1054 0.930 . S
H1046 C1056 0.930 . S
H1047 C1059 0.929 . S
H1048 C1062 0.930 . S
H1049 C1064 0.960 . S
H1050 C1064 0.960 . S
H1051 C1064 0.960 . S
C1052 H1044 0.929 . S
C1052 C1053 1.377 . S
C1052 C1054 1.384 . S
C1053 C1052 1.377 . S
C1053 C1059 1.390 . S
C1054 H1045 0.930 . S
C1054 C1052 1.384 . S
C1054 C1055 1.372 . S
C1055 C1054 1.372 . S
C1055 C1056 1.400 . S
C1055 C1060 1.490 . S
C1056 H1046 0.930 . S
C1056 C1055 1.400 . S
C1056 C1059 1.386 . S
H1057 C1073 0.930 . S
H1058 C1074 0.931 . S
C1059 H1047 0.929 . S
C1059 C1053 1.390 . S
C1059 C1056 1.386 . S
C1060 C1055 1.490 . S
C1060 C1062 1.395 . S
C1060 C1063 1.403 . S
H1061 C1067 0.930 . S
C1062 H1048 0.930 . S
C1062 C1060 1.395 . S
C1062 C1065 1.403 . S
C1063 C1060 1.403 . S
C1063 C1064 1.524 . S
C1063 C1067 1.400 . S
C1064 H1049 0.960 . S
C1064 H1050 0.960 . S
C1064 H1051 0.960 . S
C1064 C1063 1.524 . S
C1065 C1062 1.403 . S
C1065 C1066 1.392 . S
C1065 C1069 1.495 . S
C1066 C1065 1.392 . S
C1066 C1067 1.385 . S
C1066 C1068 1.478 . S
C1067 H1061 0.930 . S
C1067 C1063 1.400 . S
C1067 C1066 1.385 . S
C1068 C1066 1.478 . S
C1068 C1070 1.381 . S
C1068 C1074 1.383 . S
C1069 C1065 1.495 . S
C1069 H1075 0.959 . S
C1069 H1076 0.961 . S
C1069 H1077 0.960 . S
C1070 C1068 1.381 . S
C1070 C1071 1.394 . S
C1070 H1078 0.930 . S
C1071 C1070 1.394 . S
C1071 C1072 1.383 . S
C1071 H1079 0.929 . S
C1072 C1071 1.383 . S
C1072 C1073 1.377 . S
C1073 H1057 0.930 . S
C1073 C1072 1.377 . S
C1073 C1074 1.379 . S
C1074 H1058 0.931 . S
C1074 C1068 1.383 . S
C1074 C1073 1.379 . S
H1075 C1069 0.959 . S
H1076 C1069 0.961 . S
H1077 C1069 0.960 . S
H1078 C1070 0.930 . S
H1079 C1071 0.929 . S
H1080 C1088 0.929 . S
H1081 C1090 0.930 . S
H1082 C1092 0.930 . S
H1083 C1095 0.929 . S
H1084 C1098 0.930 . S
H1085 C1100 0.960 . S
H1086 C1100 0.960 . S
H1087 C1100 0.960 . S
C1088 H1080 0.929 . S
C1088 C1089 1.377 . S
C1088 C1090 1.384 . S
C1089 C1088 1.377 . S
C1089 C1095 1.390 . S
C1090 H1081 0.930 . S
C1090 C1088 1.384 . S
C1090 C1091 1.372 . S
C1091 C1090 1.372 . S
C1091 C1092 1.400 . S
C1091 C1096 1.490 . S
C1092 H1082 0.930 . S
C1092 C1091 1.400 . S
C1092 C1095 1.386 . S
H1093 C1109 0.930 . S
H1094 C1110 0.931 . S
C1095 H1083 0.929 . S
C1095 C1089 1.390 . S
C1095 C1092 1.386 . S
C1096 C1091 1.490 . S
C1096 C1098 1.395 . S
C1096 C1099 1.403 . S
H1097 C1103 0.930 . S
C1098 H1084 0.930 . S
C1098 C1096 1.395 . S
C1098 C1101 1.403 . S
C1099 C1096 1.403 . S
C1099 C1100 1.524 . S
C1099 C1103 1.400 . S
C1100 H1085 0.960 . S
C1100 H1086 0.960 . S
C1100 H1087 0.960 . S
C1100 C1099 1.524 . S
C1101 C1098 1.403 . S
C1101 C1102 1.392 . S
C1101 C1105 1.495 . S
C1102 C1101 1.392 . S
C1102 C1103 1.385 . S
C1102 C1104 1.478 . S
C1103 H1097 0.930 . S
C1103 C1099 1.400 . S
C1103 C1102 1.385 . S
C1104 C1102 1.478 . S
C1104 C1106 1.381 . S
C1104 C1110 1.383 . S
C1105 C1101 1.495 . S
C1105 H1111 0.959 . S
C1105 H1112 0.961 . S
C1105 H1113 0.960 . S
C1106 C1104 1.381 . S
C1106 C1107 1.394 . S
C1106 H1114 0.930 . S
C1107 C1106 1.394 . S
C1107 C1108 1.383 . S
C1107 H1115 0.929 . S
C1108 C1107 1.383 . S
C1108 C1109 1.377 . S
C1109 H1093 0.930 . S
C1109 C1108 1.377 . S
C1109 C1110 1.379 . S
C1110 H1094 0.931 . S
C1110 C1104 1.383 . S
C1110 C1109 1.379 . S
H1111 C1105 0.959 . S
H1112 C1105 0.961 . S
H1113 C1105 0.960 . S
H1114 C1106 0.930 . S
H1115 C1107 0.929 . S
H1116 C1124 0.929 . S
H1117 C1126 0.930 . S
H1118 C1128 0.930 . S
H1119 C1131 0.929 . S
H1120 C1134 0.930 . S
H1121 C1136 0.960 . S
H1122 C1136 0.960 . S
H1123 C1136 0.960 . S
C1124 H1116 0.929 . S
C1124 C1125 1.377 1_565 S
C1124 C1126 1.384 . S
C1125 C1124 1.377 1_545 S
C1125 C1131 1.390 . S
C1126 H1117 0.930 . S
C1126 C1124 1.384 . S
C1126 C1127 1.372 1_565 S
C1127 C1126 1.372 1_545 S
C1127 C1128 1.400 . S
C1127 C1132 1.490 1_545 S
C1128 H1118 0.930 . S
C1128 C1127 1.400 . S
C1128 C1131 1.386 . S
H1129 C1145 0.930 . S
H1130 C1146 0.931 1_545 S
C1131 H1119 0.929 . S
C1131 C1125 1.390 . S
C1131 C1128 1.386 . S
C1132 C1127 1.490 1_565 S
C1132 C1134 1.395 . S
C1132 C1135 1.403 1_565 S
H1133 C1139 0.930 . S
C1134 H1120 0.930 . S
C1134 C1132 1.395 . S
C1134 C1137 1.403 . S
C1135 C1132 1.403 1_545 S
C1135 C1136 1.524 . S
C1135 C1139 1.400 1_545 S
C1136 H1121 0.960 . S
C1136 H1122 0.960 . S
C1136 H1123 0.960 . S
C1136 C1135 1.524 . S
C1137 C1134 1.403 . S
C1137 C1138 1.392 . S
C1137 C1141 1.495 . S
C1138 C1137 1.392 . S
C1138 C1139 1.385 . S
C1138 C1140 1.478 . S
C1139 H1133 0.930 . S
C1139 C1135 1.400 1_565 S
C1139 C1138 1.385 . S
C1140 C1138 1.478 . S
C1140 C1142 1.381 . S
C1140 C1146 1.383 . S
C1141 C1137 1.495 . S
C1141 H1147 0.959 . S
C1141 H1148 0.961 . S
C1141 H1149 0.960 . S
C1142 C1140 1.381 . S
C1142 C1143 1.394 . S
C1142 H1150 0.930 . S
C1143 C1142 1.394 . S
C1143 C1144 1.383 . S
C1143 H1151 0.929 . S
C1144 C1143 1.383 . S
C1144 C1145 1.377 . S
C1145 H1129 0.930 . S
C1145 C1144 1.377 . S
C1145 C1146 1.379 . S
C1146 H1130 0.931 1_565 S
C1146 C1140 1.383 . S
C1146 C1145 1.379 . S
H1147 C1141 0.959 . S
H1148 C1141 0.961 . S
H1149 C1141 0.960 . S
H1150 C1142 0.930 . S
H1151 C1143 0.929 . S
H1152 C1160 0.929 . S
H1153 C1162 0.930 . S
H1154 C1164 0.930 . S
H1155 C1167 0.929 . S
H1156 C1170 0.930 . S
H1157 C1172 0.960 . S
H1158 C1172 0.960 . S
H1159 C1172 0.960 . S
C1160 H1152 0.929 . S
C1160 C1161 1.377 1_556 S
C1160 C1162 1.384 . S
C1161 C1160 1.377 1_554 S
C1161 C1167 1.390 . S
C1162 H1153 0.930 . S
C1162 C1160 1.384 . S
C1162 C1163 1.372 . S
C1163 C1162 1.372 . S
C1163 C1164 1.400 . S
C1163 C1168 1.490 . S
C1164 H1154 0.930 . S
C1164 C1163 1.400 . S
C1164 C1167 1.386 1_556 S
H1165 C1181 0.930 . S
H1166 C1182 0.931 . S
C1167 H1155 0.929 . S
C1167 C1161 1.390 . S
C1167 C1164 1.386 1_554 S
C1168 C1163 1.490 . S
C1168 C1170 1.395 . S
C1168 C1171 1.403 . S
H1169 C1175 0.930 . S
C1170 H1156 0.930 . S
C1170 C1168 1.395 . S
C1170 C1173 1.403 . S
C1171 C1168 1.403 . S
C1171 C1172 1.524 . S
C1171 C1175 1.400 . S
C1172 H1157 0.960 . S
C1172 H1158 0.960 . S
C1172 H1159 0.960 . S
C1172 C1171 1.524 . S
C1173 C1170 1.403 . S
C1173 C1174 1.392 . S
C1173 C1177 1.495 . S
C1174 C1173 1.392 . S
C1174 C1175 1.385 . S
C1174 C1176 1.478 . S
C1175 H1169 0.930 . S
C1175 C1171 1.400 . S
C1175 C1174 1.385 . S
C1176 C1174 1.478 . S
C1176 C1178 1.381 . S
C1176 C1182 1.383 . S
C1177 C1173 1.495 . S
C1177 H1183 0.959 . S
C1177 H1184 0.961 . S
C1177 H1185 0.960 . S
C1178 C1176 1.381 . S
C1178 C1179 1.394 . S
C1178 H1186 0.930 . S
C1179 C1178 1.394 . S
C1179 C1180 1.383 . S
C1179 H1187 0.929 . S
C1180 C1179 1.383 . S
C1180 C1181 1.377 . S
C1181 H1165 0.930 . S
C1181 C1180 1.377 . S
C1181 C1182 1.379 . S
C1182 H1166 0.931 . S
C1182 C1176 1.383 . S
C1182 C1181 1.379 . S
H1183 C1177 0.959 . S
H1184 C1177 0.961 . S
H1185 C1177 0.960 . S
H1186 C1178 0.930 . S
H1187 C1179 0.929 . S
H1188 C1196 0.929 . S
H1189 C1198 0.930 . S
H1190 C1200 0.930 . S
H1191 C1203 0.929 . S
H1192 C1206 0.930 . S
H1193 C1208 0.963 1_455 S
H1194 C1208 0.963 . S
H1195 C1208 0.952 1_455 S
C1196 H1188 0.929 . S
C1196 C1197 1.377 1_655 S
C1196 C1198 1.384 . S
C1197 C1196 1.377 1_455 S
C1197 C1203 1.390 . S
C1198 H1189 0.930 . S
C1198 C1196 1.384 . S
C1198 C1199 1.372 . S
C1199 C1198 1.372 . S
C1199 C1200 1.400 1_655 S
C1199 C1204 1.490 . S
C1200 H1190 0.930 . S
C1200 C1199 1.400 1_455 S
C1200 C1203 1.386 . S
H1201 C1217 0.930 . S
H1202 C1218 0.931 . S
C1203 H1191 0.929 . S
C1203 C1197 1.390 . S
C1203 C1200 1.386 . S
C1204 C1199 1.490 . S
C1204 C1206 1.395 . S
C1204 C1207 1.403 . S
H1205 C1211 0.930 . S
C1206 H1192 0.930 . S
C1206 C1204 1.395 . S
C1206 C1209 1.403 . S
C1207 C1204 1.403 . S
C1207 C1208 1.526 . S
C1207 C1211 1.400 . S
C1208 H1193 0.963 1_655 S
C1208 H1194 0.963 . S
C1208 H1195 0.952 1_655 S
C1208 C1207 1.526 . S
C1209 C1206 1.403 . S
C1209 C1210 1.392 . S
C1209 C1213 1.495 . S
C1210 C1209 1.392 . S
C1210 C1211 1.385 . S
C1210 C1212 1.478 . S
C1211 H1205 0.930 . S
C1211 C1207 1.400 . S
C1211 C1210 1.385 . S
C1212 C1210 1.478 . S
C1212 C1214 1.381 . S
C1212 C1218 1.383 . S
C1213 C1209 1.495 . S
C1213 H1219 0.959 . S
C1213 H1220 0.961 . S
C1213 H1221 0.960 . S
C1214 C1212 1.381 . S
C1214 C1215 1.394 . S
C1214 H1222 0.930 . S
C1215 C1214 1.394 . S
C1215 C1216 1.383 1_556 S
C1215 H1223 0.929 . S
C1216 C1215 1.383 1_554 S
C1216 C1217 1.377 . S
C1217 H1201 0.930 . S
C1217 C1216 1.377 . S
C1217 C1218 1.379 1_554 S
C1218 H1202 0.931 . S
C1218 C1212 1.383 . S
C1218 C1217 1.379 1_556 S
H1219 C1213 0.959 . S
H1220 C1213 0.961 . S
H1221 C1213 0.960 . S
H1222 C1214 0.930 . S
H1223 C1215 0.929 . S
H1224 C1232 0.929 . S
H1225 C1234 0.930 . S
H1226 C1236 0.930 . S
H1227 C1239 0.929 . S
H1228 C1242 0.930 . S
H1229 C1244 0.960 . S
H1230 C1244 0.960 . S
H1231 C1244 0.960 . S
C1232 H1224 0.929 . S
C1232 C1233 1.377 1_556 S
C1232 C1234 1.384 . S
C1233 C1232 1.377 1_554 S
C1233 C1239 1.390 . S
C1234 H1225 0.930 . S
C1234 C1232 1.384 . S
C1234 C1235 1.372 . S
C1235 C1234 1.372 . S
C1235 C1236 1.400 . S
C1235 C1240 1.490 . S
C1236 H1226 0.930 . S
C1236 C1235 1.400 . S
C1236 C1239 1.386 1_556 S
H1237 C1253 0.930 . S
H1238 C1254 0.931 . S
C1239 H1227 0.929 . S
C1239 C1233 1.390 . S
C1239 C1236 1.386 1_554 S
C1240 C1235 1.490 . S
C1240 C1242 1.395 . S
C1240 C1243 1.403 . S
H1241 C1247 0.930 . S
C1242 H1228 0.930 . S
C1242 C1240 1.395 . S
C1242 C1245 1.403 . S
C1243 C1240 1.403 . S
C1243 C1244 1.524 . S
C1243 C1247 1.400 . S
C1244 H1229 0.960 . S
C1244 H1230 0.960 . S
C1244 H1231 0.960 . S
C1244 C1243 1.524 . S
C1245 C1242 1.403 . S
C1245 C1246 1.392 . S
C1245 C1249 1.495 . S
C1246 C1245 1.392 . S
C1246 C1247 1.385 . S
C1246 C1248 1.478 . S
C1247 H1241 0.930 . S
C1247 C1243 1.400 . S
C1247 C1246 1.385 . S
C1248 C1246 1.478 . S
C1248 C1250 1.381 . S
C1248 C1254 1.383 . S
C1249 C1245 1.495 . S
C1249 H1255 0.959 . S
C1249 H1256 0.961 . S
C1249 H1257 0.960 . S
C1250 C1248 1.381 . S
C1250 C1251 1.394 . S
C1250 H1258 0.930 . S
C1251 C1250 1.394 . S
C1251 C1252 1.383 . S
C1251 H1259 0.929 . S
C1252 C1251 1.383 . S
C1252 C1253 1.377 . S
C1253 H1237 0.930 . S
C1253 C1252 1.377 . S
C1253 C1254 1.379 . S
C1254 H1238 0.931 . S
C1254 C1248 1.383 . S
C1254 C1253 1.379 . S
H1255 C1249 0.959 . S
H1256 C1249 0.961 . S
H1257 C1249 0.960 . S
H1258 C1250 0.930 . S
H1259 C1251 0.929 . S
H1260 C1268 0.929 . S
H1261 C1270 0.930 . S
H1262 C1272 0.930 . S
H1263 C1275 0.929 . S
H1264 C1278 0.930 . S
H1265 C1280 0.960 . S
H1266 C1280 0.960 . S
H1267 C1280 0.960 . S
C1268 H1260 0.929 . S
C1268 C1269 1.377 . S
C1268 C1270 1.384 . S
C1269 C1268 1.377 . S
C1269 C1275 1.390 . S
C1270 H1261 0.930 . S
C1270 C1268 1.384 . S
C1270 C1271 1.372 . S
C1271 C1270 1.372 . S
C1271 C1272 1.400 . S
C1271 C1276 1.490 . S
C1272 H1262 0.930 . S
C1272 C1271 1.400 . S
C1272 C1275 1.386 . S
H1273 C1289 0.930 . S
H1274 C1290 0.931 . S
C1275 H1263 0.929 . S
C1275 C1269 1.390 . S
C1275 C1272 1.386 . S
C1276 C1271 1.490 . S
C1276 C1278 1.395 . S
C1276 C1279 1.403 . S
H1277 C1283 0.930 . S
C1278 H1264 0.930 . S
C1278 C1276 1.395 . S
C1278 C1281 1.403 . S
C1279 C1276 1.403 . S
C1279 C1280 1.524 . S
C1279 C1283 1.400 . S
C1280 H1265 0.960 . S
C1280 H1266 0.960 . S
C1280 H1267 0.960 . S
C1280 C1279 1.524 . S
C1281 C1278 1.403 . S
C1281 C1282 1.392 . S
C1281 C1285 1.495 . S
C1282 C1281 1.392 . S
C1282 C1283 1.385 . S
C1282 C1284 1.478 . S
C1283 H1277 0.930 . S
C1283 C1279 1.400 . S
C1283 C1282 1.385 . S
C1284 C1282 1.478 . S
C1284 C1286 1.381 . S
C1284 C1290 1.383 1_655 S
C1285 C1281 1.495 . S
C1285 H1291 0.959 . S
C1285 H1292 0.961 1_655 S
C1285 H1293 0.960 . S
C1286 C1284 1.381 . S
C1286 C1287 1.394 . S
C1286 H1294 0.930 . S
C1287 C1286 1.394 . S
C1287 C1288 1.383 1_655 S
C1287 H1295 0.929 . S
C1288 C1287 1.383 1_455 S
C1288 C1289 1.377 . S
C1289 H1273 0.930 . S
C1289 C1288 1.377 . S
C1289 C1290 1.379 . S
C1290 H1274 0.931 . S
C1290 C1284 1.383 1_455 S
C1290 C1289 1.379 . S
H1291 C1285 0.959 . S
H1292 C1285 0.961 1_455 S
H1293 C1285 0.960 . S
H1294 C1286 0.930 . S
H1295 C1287 0.929 . S
H1296 C1304 0.929 . S
H1297 C1306 0.930 . S
H1298 C1308 0.930 . S
H1299 C1311 0.929 . S
H1300 C1314 0.930 . S
H1301 C1316 0.960 . S
H1302 C1316 0.960 . S
H1303 C1316 0.960 . S
C1304 H1296 0.929 . S
C1304 C1305 1.377 . S
C1304 C1306 1.384 . S
C1305 C1304 1.377 . S
C1305 C1311 1.390 . S
C1306 H1297 0.930 . S
C1306 C1304 1.384 . S
C1306 C1307 1.372 . S
C1307 C1306 1.372 . S
C1307 C1308 1.400 . S
C1307 C1312 1.490 . S
C1308 H1298 0.930 . S
C1308 C1307 1.400 . S
C1308 C1311 1.386 . S
H1309 C1325 0.930 . S
H1310 C1326 0.931 . S
C1311 H1299 0.929 . S
C1311 C1305 1.390 . S
C1311 C1308 1.386 . S
C1312 C1307 1.490 . S
C1312 C1314 1.395 . S
C1312 C1315 1.403 . S
H1313 C1319 0.930 . S
C1314 H1300 0.930 . S
C1314 C1312 1.395 . S
C1314 C1317 1.403 . S
C1315 C1312 1.403 . S
C1315 C1316 1.524 . S
C1315 C1319 1.400 . S
C1316 H1301 0.960 . S
C1316 H1302 0.960 . S
C1316 H1303 0.960 . S
C1316 C1315 1.524 . S
C1317 C1314 1.403 . S
C1317 C1318 1.392 . S
C1317 C1321 1.495 . S
C1318 C1317 1.392 . S
C1318 C1319 1.385 . S
C1318 C1320 1.478 . S
C1319 H1313 0.930 . S
C1319 C1315 1.400 . S
C1319 C1318 1.385 . S
C1320 C1318 1.478 . S
C1320 C1322 1.381 . S
C1320 C1326 1.383 . S
C1321 C1317 1.495 . S
C1321 H1327 0.959 . S
C1321 H1328 0.961 . S
C1321 H1329 0.960 . S
C1322 C1320 1.381 . S
C1322 C1323 1.394 . S
C1322 H1330 0.930 . S
C1323 C1322 1.394 . S
C1323 C1324 1.383 . S
C1323 H1331 0.929 . S
C1324 C1323 1.383 . S
C1324 C1325 1.377 . S
C1325 H1309 0.930 . S
C1325 C1324 1.377 . S
C1325 C1326 1.379 . S
C1326 H1310 0.931 . S
C1326 C1320 1.383 . S
C1326 C1325 1.379 . S
H1327 C1321 0.959 . S
H1328 C1321 0.961 . S
H1329 C1321 0.960 . S
H1330 C1322 0.930 . S
H1331 C1323 0.929 . S
H1332 C1340 0.929 . S
H1333 C1342 0.930 . S
H1334 C1344 0.930 . S
H1335 C1347 0.929 . S
H1336 C1350 0.930 . S
H1337 C1352 0.960 . S
H1338 C1352 0.960 . S
H1339 C1352 0.960 . S
C1340 H1332 0.929 . S
C1340 C1341 1.377 . S
C1340 C1342 1.384 . S
C1341 C1340 1.377 . S
C1341 C1347 1.390 . S
C1342 H1333 0.930 . S
C1342 C1340 1.384 . S
C1342 C1343 1.372 . S
C1343 C1342 1.372 . S
C1343 C1344 1.400 . S
C1343 C1348 1.490 . S
C1344 H1334 0.930 . S
C1344 C1343 1.400 . S
C1344 C1347 1.386 . S
H1345 C1361 0.930 . S
H1346 C1362 0.931 . S
C1347 H1335 0.929 . S
C1347 C1341 1.390 . S
C1347 C1344 1.386 . S
C1348 C1343 1.490 . S
C1348 C1350 1.395 . S
C1348 C1351 1.403 . S
H1349 C1355 0.930 . S
C1350 H1336 0.930 . S
C1350 C1348 1.395 . S
C1350 C1353 1.403 . S
C1351 C1348 1.403 . S
C1351 C1352 1.524 . S
C1351 C1355 1.400 . S
C1352 H1337 0.960 . S
C1352 H1338 0.960 . S
C1352 H1339 0.960 . S
C1352 C1351 1.524 . S
C1353 C1350 1.403 . S
C1353 C1354 1.392 . S
C1353 C1357 1.495 . S
C1354 C1353 1.392 . S
C1354 C1355 1.385 . S
C1354 C1356 1.478 . S
C1355 H1349 0.930 . S
C1355 C1351 1.400 . S
C1355 C1354 1.385 . S
C1356 C1354 1.478 . S
C1356 C1358 1.381 . S
C1356 C1362 1.383 . S
C1357 C1353 1.495 . S
C1357 H1363 0.959 . S
C1357 H1364 0.961 . S
C1357 H1365 0.960 . S
C1358 C1356 1.381 . S
C1358 C1359 1.394 . S
C1358 H1366 0.930 . S
C1359 C1358 1.394 . S
C1359 C1360 1.383 . S
C1359 H1367 0.929 . S
C1360 C1359 1.383 . S
C1360 C1361 1.377 . S
C1361 H1345 0.930 . S
C1361 C1360 1.377 . S
C1361 C1362 1.379 . S
C1362 H1346 0.931 . S
C1362 C1356 1.383 . S
C1362 C1361 1.379 . S
H1363 C1357 0.959 . S
H1364 C1357 0.961 . S
H1365 C1357 0.960 . S
H1366 C1358 0.930 . S
H1367 C1359 0.929 . S
H1368 C1376 0.927 1_565 S
H1369 C1378 0.930 . S
H1370 C1380 0.930 . S
H1371 C1383 0.929 . S
H1372 C1386 0.930 . S
H1373 C1388 0.960 . S
H1374 C1388 0.960 . S
H1375 C1388 0.960 1_545 S
C1376 H1368 0.927 1_545 S
C1376 C1377 1.380 . S
C1376 C1378 1.384 1_545 S
C1377 C1376 1.380 . S
C1377 C1383 1.390 . S
C1378 H1369 0.930 . S
C1378 C1376 1.384 1_565 S
C1378 C1379 1.372 1_565 S
C1379 C1378 1.372 1_545 S
C1379 C1380 1.400 . S
C1379 C1384 1.490 1_545 S
C1380 H1370 0.930 . S
C1380 C1379 1.400 . S
C1380 C1383 1.386 . S
H1381 C1397 0.943 . S
H1382 C1398 0.919 1_545 S
C1383 H1371 0.929 . S
C1383 C1377 1.390 . S
C1383 C1380 1.386 . S
C1384 C1379 1.490 1_565 S
C1384 C1386 1.395 . S
C1384 C1387 1.403 . S
H1385 C1391 0.930 . S
C1386 H1372 0.930 . S
C1386 C1384 1.395 . S
C1386 C1389 1.403 . S
C1387 C1384 1.403 . S
C1387 C1388 1.524 . S
C1387 C1391 1.400 . S
C1388 H1373 0.960 . S
C1388 H1374 0.960 . S
C1388 H1375 0.960 1_565 S
C1388 C1387 1.524 . S
C1389 C1386 1.403 . S
C1389 C1390 1.392 . S
C1389 C1393 1.495 . S
C1390 C1389 1.392 . S
C1390 C1391 1.385 . S
C1390 C1392 1.478 . S
C1391 H1385 0.930 . S
C1391 C1387 1.400 . S
C1391 C1390 1.385 . S
C1392 C1390 1.478 . S
C1392 C1394 1.381 . S
C1392 C1398 1.383 . S
C1393 C1389 1.495 . S
C1393 H1399 0.959 . S
C1393 H1400 0.961 . S
C1393 H1401 0.960 . S
C1394 C1392 1.381 . S
C1394 C1395 1.394 . S
C1394 H1402 0.930 . S
C1395 C1394 1.394 . S
C1395 C1396 1.385 1_554 S
C1395 H1403 0.929 . S
C1396 C1395 1.385 1_556 S
C1396 C1397 1.377 . S
C1397 H1381 0.943 . S
C1397 C1396 1.377 . S
C1397 C1398 1.367 1_556 S
C1398 H1382 0.919 1_565 S
C1398 C1392 1.383 . S
C1398 C1397 1.367 1_554 S
H1399 C1393 0.959 . S
H1400 C1393 0.961 . S
H1401 C1393 0.960 . S
H1402 C1394 0.930 . S
H1403 C1395 0.929 . S
H1404 C1412 0.929 . S
H1405 C1414 0.930 . S
H1406 C1416 0.930 . S
H1407 C1419 0.929 . S
H1408 C1422 0.930 . S
H1409 C1424 0.960 . S
H1410 C1424 0.960 . S
H1411 C1424 0.960 . S
C1412 H1404 0.929 . S
C1412 C1413 1.378 . S
C1412 C1414 1.384 1_556 S
C1413 C1412 1.378 . S
C1413 C1419 1.385 1_556 S
C1414 H1405 0.930 . S
C1414 C1412 1.384 1_554 S
C1414 C1415 1.372 . S
C1415 C1414 1.372 . S
C1415 C1416 1.400 . S
C1415 C1420 1.490 . S
C1416 H1406 0.930 . S
C1416 C1415 1.400 . S
C1416 C1419 1.386 . S
H1417 C1433 0.930 . S
H1418 C1434 0.931 . S
C1419 H1407 0.929 . S
C1419 C1413 1.385 1_554 S
C1419 C1416 1.386 . S
C1420 C1415 1.490 . S
C1420 C1422 1.395 . S
C1420 C1423 1.403 . S
H1421 C1427 0.930 . S
C1422 H1408 0.930 . S
C1422 C1420 1.395 . S
C1422 C1425 1.403 . S
C1423 C1420 1.403 . S
C1423 C1424 1.524 . S
C1423 C1427 1.400 . S
C1424 H1409 0.960 . S
C1424 H1410 0.960 . S
C1424 H1411 0.960 . S
C1424 C1423 1.524 . S
C1425 C1422 1.403 . S
C1425 C1426 1.392 . S
C1425 C1429 1.495 . S
C1426 C1425 1.392 . S
C1426 C1427 1.385 . S
C1426 C1428 1.478 . S
C1427 H1421 0.930 . S
C1427 C1423 1.400 . S
C1427 C1426 1.385 . S
C1428 C1426 1.478 . S
C1428 C1430 1.381 . S
C1428 C1434 1.383 . S
C1429 C1425 1.495 . S
C1429 H1435 0.959 . S
C1429 H1436 0.961 . S
C1429 H1437 0.960 . S
C1430 C1428 1.381 . S
C1430 C1431 1.394 . S
C1430 H1438 0.930 . S
C1431 C1430 1.394 . S
C1431 C1432 1.383 . S
C1431 H1439 0.929 . S
C1432 C1431 1.383 . S
C1432 C1433 1.377 . S
C1433 H1417 0.930 . S
C1433 C1432 1.377 . S
C1433 C1434 1.379 . S
C1434 H1418 0.931 . S
C1434 C1428 1.383 . S
C1434 C1433 1.379 . S
H1435 C1429 0.959 . S
H1436 C1429 0.961 . S
H1437 C1429 0.960 . S
H1438 C1430 0.930 . S
H1439 C1431 0.929 . S
H1440 C1448 0.930 1_556 S
H1441 C1450 0.930 . S
H1442 C1452 0.930 . S
H1443 C1455 0.929 . S
H1444 C1458 0.930 . S
H1445 C1460 0.960 . S
H1446 C1460 0.960 . S
H1447 C1460 0.960 . S
C1448 H1440 0.930 1_554 S
C1448 C1449 1.377 1_554 S
C1448 C1450 1.383 . S
C1449 C1448 1.377 1_556 S
C1449 C1455 1.390 1_556 S
C1450 H1441 0.930 . S
C1450 C1448 1.383 . S
C1450 C1451 1.372 . S
C1451 C1450 1.372 . S
C1451 C1452 1.400 . S
C1451 C1456 1.490 . S
C1452 H1442 0.930 . S
C1452 C1451 1.400 . S
C1452 C1455 1.386 . S
H1453 C1469 0.930 . S
H1454 C1470 0.931 . S
C1455 H1443 0.929 . S
C1455 C1449 1.390 1_554 S
C1455 C1452 1.386 . S
C1456 C1451 1.490 . S
C1456 C1458 1.395 . S
C1456 C1459 1.403 . S
H1457 C1463 0.930 . S
C1458 H1444 0.930 . S
C1458 C1456 1.395 . S
C1458 C1461 1.403 . S
C1459 C1456 1.403 . S
C1459 C1460 1.524 . S
C1459 C1463 1.400 . S
C1460 H1445 0.960 . S
C1460 H1446 0.960 . S
C1460 H1447 0.960 . S
C1460 C1459 1.524 . S
C1461 C1458 1.403 . S
C1461 C1462 1.392 . S
C1461 C1465 1.495 . S
C1462 C1461 1.392 . S
C1462 C1463 1.385 . S
C1462 C1464 1.478 . S
C1463 H1457 0.930 . S
C1463 C1459 1.400 . S
C1463 C1462 1.385 . S
C1464 C1462 1.478 . S
C1464 C1466 1.381 . S
C1464 C1470 1.383 . S
C1465 C1461 1.495 . S
C1465 H1471 0.959 . S
C1465 H1472 0.961 . S
C1465 H1473 0.960 . S
C1466 C1464 1.381 . S
C1466 C1467 1.394 . S
C1466 H1474 0.930 . S
C1467 C1466 1.394 . S
C1467 C1468 1.383 . S
C1467 H1475 0.929 . S
C1468 C1467 1.383 . S
C1468 C1469 1.377 . S
C1469 H1453 0.930 . S
C1469 C1468 1.377 . S
C1469 C1470 1.379 . S
C1470 H1454 0.931 . S
C1470 C1464 1.383 . S
C1470 C1469 1.379 . S
H1471 C1465 0.959 . S
H1472 C1465 0.961 . S
H1473 C1465 0.960 . S
H1474 C1466 0.930 . S
H1475 C1467 0.929 . S
H1476 C1484 0.929 . S
H1477 C1486 0.930 . S
H1478 C1488 0.930 . S
H1479 C1491 0.929 . S
H1480 C1494 0.930 . S
H1481 C1496 0.960 . S
H1482 C1496 0.960 . S
H1483 C1496 0.960 . S
C1484 H1476 0.929 . S
C1484 C1485 1.377 . S
C1484 C1486 1.384 . S
C1485 C1484 1.377 . S
C1485 C1491 1.390 . S
C1486 H1477 0.930 . S
C1486 C1484 1.384 . S
C1486 C1487 1.372 . S
C1487 C1486 1.372 . S
C1487 C1488 1.400 . S
C1487 C1492 1.490 . S
C1488 H1478 0.930 . S
C1488 C1487 1.400 . S
C1488 C1491 1.386 . S
H1489 C1505 0.930 . S
H1490 C1506 0.931 . S
C1491 H1479 0.929 . S
C1491 C1485 1.390 . S
C1491 C1488 1.386 . S
C1492 C1487 1.490 . S
C1492 C1494 1.395 . S
C1492 C1495 1.403 . S
H1493 C1499 0.930 . S
C1494 H1480 0.930 . S
C1494 C1492 1.395 . S
C1494 C1497 1.403 . S
C1495 C1492 1.403 . S
C1495 C1496 1.524 . S
C1495 C1499 1.400 . S
C1496 H1481 0.960 . S
C1496 H1482 0.960 . S
C1496 H1483 0.960 . S
C1496 C1495 1.524 . S
C1497 C1494 1.403 . S
C1497 C1498 1.392 . S
C1497 C1501 1.495 1_455 S
C1498 C1497 1.392 . S
C1498 C1499 1.385 . S
C1498 C1500 1.478 . S
C1499 H1493 0.930 . S
C1499 C1495 1.400 . S
C1499 C1498 1.385 . S
C1500 C1498 1.478 . S
C1500 C1502 1.381 1_455 S
C1500 C1506 1.383 . S
C1501 C1497 1.495 1_655 S
C1501 H1507 0.959 . S
C1501 H1508 0.961 . S
C1501 H1509 0.960 . S
C1502 C1500 1.381 1_655 S
C1502 C1503 1.394 . S
C1502 H1510 0.930 . S
C1503 C1502 1.394 . S
C1503 C1504 1.383 . S
C1503 H1511 0.929 . S
C1504 C1503 1.383 . S
C1504 C1505 1.377 . S
C1505 H1489 0.930 . S
C1505 C1504 1.377 . S
C1505 C1506 1.379 1_655 S
C1506 H1490 0.931 . S
C1506 C1500 1.383 . S
C1506 C1505 1.379 1_455 S
H1507 C1501 0.959 . S
H1508 C1501 0.961 . S
H1509 C1501 0.960 . S
H1510 C1502 0.930 . S
H1511 C1503 0.929 . S
H1512 C1520 0.929 . S
H1513 C1522 0.930 . S
H1514 C1524 0.930 . S
H1515 C1527 0.929 . S
H1516 C1530 0.930 . S
H1517 C1532 0.960 . S
H1518 C1532 0.960 . S
H1519 C1532 0.960 . S
C1520 H1512 0.929 . S
C1520 C1521 1.377 . S
C1520 C1522 1.384 . S
C1521 C1520 1.377 . S
C1521 C1527 1.390 . S
C1522 H1513 0.930 . S
C1522 C1520 1.384 . S
C1522 C1523 1.372 . S
C1523 C1522 1.372 . S
C1523 C1524 1.400 . S
C1523 C1528 1.490 . S
C1524 H1514 0.930 . S
C1524 C1523 1.400 . S
C1524 C1527 1.386 . S
H1525 C1541 0.930 . S
H1526 C1542 0.931 . S
C1527 H1515 0.929 . S
C1527 C1521 1.390 . S
C1527 C1524 1.386 . S
C1528 C1523 1.490 . S
C1528 C1530 1.395 . S
C1528 C1531 1.403 . S
H1529 C1535 0.930 . S
C1530 H1516 0.930 . S
C1530 C1528 1.395 . S
C1530 C1533 1.403 . S
C1531 C1528 1.403 . S
C1531 C1532 1.524 . S
C1531 C1535 1.400 . S
C1532 H1517 0.960 . S
C1532 H1518 0.960 . S
C1532 H1519 0.960 . S
C1532 C1531 1.524 . S
C1533 C1530 1.403 . S
C1533 C1534 1.392 . S
C1533 C1537 1.495 . S
C1534 C1533 1.392 . S
C1534 C1535 1.385 . S
C1534 C1536 1.478 . S
C1535 H1529 0.930 . S
C1535 C1531 1.400 . S
C1535 C1534 1.385 . S
C1536 C1534 1.478 . S
C1536 C1538 1.381 . S
C1536 C1542 1.383 . S
C1537 C1533 1.495 . S
C1537 H1543 0.959 . S
C1537 H1544 0.961 . S
C1537 H1545 0.960 . S
C1538 C1536 1.381 . S
C1538 C1539 1.394 . S
C1538 H1546 0.930 . S
C1539 C1538 1.394 . S
C1539 C1540 1.383 . S
C1539 H1547 0.929 . S
C1540 C1539 1.383 . S
C1540 C1541 1.377 . S
C1541 H1525 0.930 . S
C1541 C1540 1.377 . S
C1541 C1542 1.379 . S
C1542 H1526 0.931 . S
C1542 C1536 1.383 . S
C1542 C1541 1.379 . S
H1543 C1537 0.959 . S
H1544 C1537 0.961 . S
H1545 C1537 0.960 . S
H1546 C1538 0.930 . S
H1547 C1539 0.929 . S
H1548 C1556 0.929 . S
H1549 C1558 0.930 . S
H1550 C1560 0.930 . S
H1551 C1563 0.929 . S
H1552 C1566 0.930 . S
H1553 C1568 0.960 . S
H1554 C1568 0.960 . S
H1555 C1568 0.960 . S
C1556 H1548 0.929 . S
C1556 C1557 1.377 . S
C1556 C1558 1.384 . S
C1557 C1556 1.377 . S
C1557 C1563 1.390 . S
C1558 H1549 0.930 . S
C1558 C1556 1.384 . S
C1558 C1559 1.372 . S
C1559 C1558 1.372 . S
C1559 C1560 1.400 . S
C1559 C1564 1.490 . S
C1560 H1550 0.930 . S
C1560 C1559 1.400 . S
C1560 C1563 1.386 . S
H1561 C1577 0.930 . S
H1562 C1578 0.931 . S
C1563 H1551 0.929 . S
C1563 C1557 1.390 . S
C1563 C1560 1.386 . S
C1564 C1559 1.490 . S
C1564 C1566 1.395 . S
C1564 C1567 1.403 . S
H1565 C1571 0.930 . S
C1566 H1552 0.930 . S
C1566 C1564 1.395 . S
C1566 C1569 1.403 . S
C1567 C1564 1.403 . S
C1567 C1568 1.524 . S
C1567 C1571 1.400 . S
C1568 H1553 0.960 . S
C1568 H1554 0.960 . S
C1568 H1555 0.960 . S
C1568 C1567 1.524 . S
C1569 C1566 1.403 . S
C1569 C1570 1.392 . S
C1569 C1573 1.495 . S
C1570 C1569 1.392 . S
C1570 C1571 1.385 . S
C1570 C1572 1.478 . S
C1571 H1565 0.930 . S
C1571 C1567 1.400 . S
C1571 C1570 1.385 . S
C1572 C1570 1.478 . S
C1572 C1574 1.381 . S
C1572 C1578 1.383 . S
C1573 C1569 1.495 . S
C1573 H1579 0.959 . S
C1573 H1580 0.961 . S
C1573 H1581 0.960 . S
C1574 C1572 1.381 . S
C1574 C1575 1.394 . S
C1574 H1582 0.930 . S
C1575 C1574 1.394 . S
C1575 C1576 1.383 1_545 S
C1575 H1583 0.929 . S
C1576 C1575 1.383 1_565 S
C1576 C1577 1.377 . S
C1577 H1561 0.930 . S
C1577 C1576 1.377 . S
C1577 C1578 1.379 1_565 S
C1578 H1562 0.931 . S
C1578 C1572 1.383 . S
C1578 C1577 1.379 1_545 S
H1579 C1573 0.959 . S
H1580 C1573 0.961 . S
H1581 C1573 0.960 . S
H1582 C1574 0.930 . S
H1583 C1575 0.929 . S
H1584 C1592 0.929 . S
H1585 C1594 0.930 . S
H1586 C1596 0.930 . S
H1587 C1599 0.929 . S
H1588 C1602 0.930 . S
H1589 C1604 0.960 . S
H1590 C1604 0.960 . S
H1591 C1604 0.960 . S
C1592 H1584 0.929 . S
C1592 C1593 1.377 . S
C1592 C1594 1.384 . S
C1593 C1592 1.377 . S
C1593 C1599 1.390 . S
C1594 H1585 0.930 . S
C1594 C1592 1.384 . S
C1594 C1595 1.372 . S
C1595 C1594 1.372 . S
C1595 C1596 1.400 . S
C1595 C1600 1.490 . S
C1596 H1586 0.930 . S
C1596 C1595 1.400 . S
C1596 C1599 1.386 . S
H1597 C1613 0.926 . S
H1598 C1614 0.931 . S
C1599 H1587 0.929 . S
C1599 C1593 1.390 . S
C1599 C1596 1.386 . S
C1600 C1595 1.490 . S
C1600 C1602 1.395 . S
C1600 C1603 1.403 . S
H1601 C1607 0.930 . S
C1602 H1588 0.930 . S
C1602 C1600 1.395 . S
C1602 C1605 1.403 . S
C1603 C1600 1.403 . S
C1603 C1604 1.524 . S
C1603 C1607 1.400 . S
C1604 H1589 0.960 . S
C1604 H1590 0.960 . S
C1604 H1591 0.960 . S
C1604 C1603 1.524 . S
C1605 C1602 1.403 . S
C1605 C1606 1.392 . S
C1605 C1609 1.495 . S
C1606 C1605 1.392 . S
C1606 C1607 1.385 . S
C1606 C1608 1.478 . S
C1607 H1601 0.930 . S
C1607 C1603 1.400 . S
C1607 C1606 1.385 . S
C1608 C1606 1.478 . S
C1608 C1610 1.381 . S
C1608 C1614 1.383 . S
C1609 C1605 1.495 . S
C1609 H1615 0.959 . S
C1609 H1616 0.961 . S
C1609 H1617 0.960 . S
C1610 C1608 1.381 . S
C1610 C1611 1.394 . S
C1610 H1618 0.930 . S
C1611 C1610 1.394 . S
C1611 C1612 1.383 1_545 S
C1611 H1619 0.929 1_545 S
C1612 C1611 1.383 1_565 S
C1612 C1613 1.401 . S
C1613 H1597 0.926 . S
C1613 C1612 1.401 . S
C1613 C1614 1.359 1_565 S
C1614 H1598 0.931 . S
C1614 C1608 1.383 . S
C1614 C1613 1.359 1_545 S
H1615 C1609 0.959 . S
H1616 C1609 0.961 . S
H1617 C1609 0.960 . S
H1618 C1610 0.930 . S
H1619 C1611 0.929 1_565 S
H1620 C1628 0.929 . S
H1621 C1630 0.930 . S
H1622 C1632 0.930 . S
H1623 C1635 0.929 . S
H1624 C1638 0.930 . S
H1625 C1640 0.960 . S
H1626 C1640 0.960 . S
H1627 C1640 0.960 . S
C1628 H1620 0.929 . S
C1628 C1629 1.377 . S
C1628 C1630 1.384 . S
C1629 C1628 1.377 . S
C1629 C1635 1.390 . S
C1630 H1621 0.930 . S
C1630 C1628 1.384 . S
C1630 C1631 1.372 . S
C1631 C1630 1.372 . S
C1631 C1632 1.400 . S
C1631 C1636 1.490 . S
C1632 H1622 0.930 . S
C1632 C1631 1.400 . S
C1632 C1635 1.386 . S
H1633 C1649 0.930 . S
H1634 C1650 0.931 . S
C1635 H1623 0.929 . S
C1635 C1629 1.390 . S
C1635 C1632 1.386 . S
C1636 C1631 1.490 . S
C1636 C1638 1.395 . S
C1636 C1639 1.403 . S
H1637 C1643 0.930 . S
C1638 H1624 0.930 . S
C1638 C1636 1.395 . S
C1638 C1641 1.403 . S
C1639 C1636 1.403 . S
C1639 C1640 1.524 . S
C1639 C1643 1.400 . S
C1640 H1625 0.960 . S
C1640 H1626 0.960 . S
C1640 H1627 0.960 . S
C1640 C1639 1.524 . S
C1641 C1638 1.403 . S
C1641 C1642 1.392 . S
C1641 C1645 1.495 1_455 S
C1642 C1641 1.392 . S
C1642 C1643 1.385 . S
C1642 C1644 1.478 . S
C1643 H1637 0.930 . S
C1643 C1639 1.400 . S
C1643 C1642 1.385 . S
C1644 C1642 1.478 . S
C1644 C1646 1.381 1_455 S
C1644 C1650 1.383 1_455 S
C1645 C1641 1.495 1_655 S
C1645 H1651 0.959 . S
C1645 H1652 0.961 . S
C1645 H1653 0.960 . S
C1646 C1644 1.381 1_655 S
C1646 C1647 1.394 . S
C1646 H1654 0.930 1_655 S
C1647 C1646 1.394 . S
C1647 C1648 1.383 . S
C1647 H1655 0.929 . S
C1648 C1647 1.383 . S
C1648 C1649 1.377 . S
C1649 H1633 0.930 . S
C1649 C1648 1.377 . S
C1649 C1650 1.379 . S
C1650 H1634 0.931 . S
C1650 C1644 1.383 1_655 S
C1650 C1649 1.379 . S
H1651 C1645 0.959 . S
H1652 C1645 0.961 . S
H1653 C1645 0.960 . S
H1654 C1646 0.930 1_455 S
H1655 C1647 0.929 . S
H1656 C1664 0.929 . S
H1657 C1666 0.930 . S
H1658 C1668 0.930 . S
H1659 C1671 0.929 . S
H1660 C1674 0.930 . S
H1661 C1676 0.960 . S
H1662 C1676 0.960 . S
H1663 C1676 0.960 . S
C1664 H1656 0.929 . S
C1664 C1665 1.377 . S
C1664 C1666 1.384 . S
C1665 C1664 1.377 . S
C1665 C1671 1.390 . S
C1666 H1657 0.930 . S
C1666 C1664 1.384 . S
C1666 C1667 1.372 . S
C1667 C1666 1.372 . S
C1667 C1668 1.400 . S
C1667 C1672 1.490 . S
C1668 H1658 0.930 . S
C1668 C1667 1.400 . S
C1668 C1671 1.386 . S
H1669 C1685 0.930 . S
H1670 C1686 0.931 . S
C1671 H1659 0.929 . S
C1671 C1665 1.390 . S
C1671 C1668 1.386 . S
C1672 C1667 1.490 . S
C1672 C1674 1.395 . S
C1672 C1675 1.403 . S
H1673 C1679 0.930 . S
C1674 H1660 0.930 . S
C1674 C1672 1.395 . S
C1674 C1677 1.403 . S
C1675 C1672 1.403 . S
C1675 C1676 1.524 . S
C1675 C1679 1.400 . S
C1676 H1661 0.960 . S
C1676 H1662 0.960 . S
C1676 H1663 0.960 . S
C1676 C1675 1.524 . S
C1677 C1674 1.403 . S
C1677 C1678 1.392 . S
C1677 C1681 1.495 . S
C1678 C1677 1.392 . S
C1678 C1679 1.385 . S
C1678 C1680 1.478 . S
C1679 H1673 0.930 . S
C1679 C1675 1.400 . S
C1679 C1678 1.385 . S
C1680 C1678 1.478 . S
C1680 C1682 1.381 . S
C1680 C1686 1.383 . S
C1681 C1677 1.495 . S
C1681 H1687 0.959 . S
C1681 H1688 0.961 . S
C1681 H1689 0.960 . S
C1682 C1680 1.381 . S
C1682 C1683 1.394 . S
C1682 H1690 0.930 . S
C1683 C1682 1.394 . S
C1683 C1684 1.383 . S
C1683 H1691 0.929 . S
C1684 C1683 1.383 . S
C1684 C1685 1.377 . S
C1685 H1669 0.930 . S
C1685 C1684 1.377 . S
C1685 C1686 1.379 . S
C1686 H1670 0.931 . S
C1686 C1680 1.383 . S
C1686 C1685 1.379 . S
H1687 C1681 0.959 . S
H1688 C1681 0.961 . S
H1689 C1681 0.960 . S
H1690 C1682 0.930 . S
H1691 C1683 0.929 . S
H1692 C1700 0.929 . S
H1693 C1702 0.930 . S
H1694 C1704 0.930 . S
H1695 C1707 0.929 . S
H1696 C1710 0.930 . S
H1697 C1712 0.960 . S
H1698 C1712 0.960 . S
H1699 C1712 0.960 . S
C1700 H1692 0.929 . S
C1700 C1701 1.377 . S
C1700 C1702 1.384 . S
C1701 C1700 1.377 . S
C1701 C1707 1.390 . S
C1702 H1693 0.930 . S
C1702 C1700 1.384 . S
C1702 C1703 1.372 . S
C1703 C1702 1.372 . S
C1703 C1704 1.400 . S
C1703 C1708 1.490 . S
C1704 H1694 0.930 . S
C1704 C1703 1.400 . S
C1704 C1707 1.386 . S
H1705 C1721 0.930 . S
H1706 C1722 0.931 . S
C1707 H1695 0.929 . S
C1707 C1701 1.390 . S
C1707 C1704 1.386 . S
C1708 C1703 1.490 . S
C1708 C1710 1.395 . S
C1708 C1711 1.403 . S
H1709 C1715 0.930 . S
C1710 H1696 0.930 . S
C1710 C1708 1.395 . S
C1710 C1713 1.403 . S
C1711 C1708 1.403 . S
C1711 C1712 1.524 . S
C1711 C1715 1.400 . S
C1712 H1697 0.960 . S
C1712 H1698 0.960 . S
C1712 H1699 0.960 . S
C1712 C1711 1.524 . S
C1713 C1710 1.403 . S
C1713 C1714 1.392 . S
C1713 C1717 1.495 . S
C1714 C1713 1.392 . S
C1714 C1715 1.385 . S
C1714 C1716 1.478 . S
C1715 H1709 0.930 . S
C1715 C1711 1.400 . S
C1715 C1714 1.385 . S
C1716 C1714 1.478 . S
C1716 C1718 1.381 . S
C1716 C1722 1.383 . S
C1717 C1713 1.495 . S
C1717 H1723 0.959 . S
C1717 H1724 0.961 . S
C1717 H1725 0.960 . S
C1718 C1716 1.381 . S
C1718 C1719 1.394 . S
C1718 H1726 0.930 . S
C1719 C1718 1.394 . S
C1719 C1720 1.383 . S
C1719 H1727 0.929 . S
C1720 C1719 1.383 . S
C1720 C1721 1.377 . S
C1721 H1705 0.930 . S
C1721 C1720 1.377 . S
C1721 C1722 1.379 . S
C1722 H1706 0.931 . S
C1722 C1716 1.383 . S
C1722 C1721 1.379 . S
H1723 C1717 0.959 . S
H1724 C1717 0.961 . S
H1725 C1717 0.960 . S
H1726 C1718 0.930 . S
H1727 C1719 0.929 . S
H1728 C1736 0.929 . S
H1729 C1738 0.930 . S
H1730 C1740 0.930 . S
H1731 C1743 0.929 . S
H1732 C1746 0.930 . S
H1733 C1748 0.960 . S
H1734 C1748 0.960 . S
H1735 C1748 0.960 . S
C1736 H1728 0.929 . S
C1736 C1737 1.377 . S
C1736 C1738 1.384 . S
C1737 C1736 1.377 . S
C1737 C1743 1.390 . S
C1738 H1729 0.930 . S
C1738 C1736 1.384 . S
C1738 C1739 1.372 . S
C1739 C1738 1.372 . S
C1739 C1740 1.400 . S
C1739 C1744 1.490 . S
C1740 H1730 0.930 . S
C1740 C1739 1.400 . S
C1740 C1743 1.386 . S
H1741 C1757 0.930 . S
H1742 C1758 0.931 . S
C1743 H1731 0.929 . S
C1743 C1737 1.390 . S
C1743 C1740 1.386 . S
C1744 C1739 1.490 . S
C1744 C1746 1.395 . S
C1744 C1747 1.403 . S
H1745 C1751 0.930 . S
C1746 H1732 0.930 . S
C1746 C1744 1.395 . S
C1746 C1749 1.403 . S
C1747 C1744 1.403 . S
C1747 C1748 1.524 . S
C1747 C1751 1.400 . S
C1748 H1733 0.960 . S
C1748 H1734 0.960 . S
C1748 H1735 0.960 . S
C1748 C1747 1.524 . S
C1749 C1746 1.403 . S
C1749 C1750 1.392 . S
C1749 C1753 1.495 . S
C1750 C1749 1.392 . S
C1750 C1751 1.385 . S
C1750 C1752 1.478 . S
C1751 H1745 0.930 . S
C1751 C1747 1.400 . S
C1751 C1750 1.385 . S
C1752 C1750 1.478 . S
C1752 C1754 1.381 . S
C1752 C1758 1.383 . S
C1753 C1749 1.495 . S
C1753 H1759 0.959 . S
C1753 H1760 0.961 . S
C1753 H1761 0.960 . S
C1754 C1752 1.381 . S
C1754 C1755 1.394 . S
C1754 H1762 0.930 . S
C1755 C1754 1.394 . S
C1755 C1756 1.383 . S
C1755 H1763 0.929 . S
C1756 C1755 1.383 . S
C1756 C1757 1.377 . S
C1757 H1741 0.930 . S
C1757 C1756 1.377 . S
C1757 C1758 1.379 . S
C1758 H1742 0.931 . S
C1758 C1752 1.383 . S
C1758 C1757 1.379 . S
H1759 C1753 0.959 . S
H1760 C1753 0.961 . S
H1761 C1753 0.960 . S
H1762 C1754 0.930 . S
H1763 C1755 0.929 . S
H1764 C1772 0.929 . S
H1765 C1774 0.930 . S
H1766 C1776 0.930 . S
H1767 C1779 0.929 . S
H1768 C1782 0.930 . S
H1769 C1784 0.960 . S
H1770 C1784 0.960 . S
H1771 C1784 0.960 . S
C1772 H1764 0.929 . S
C1772 C1773 1.377 . S
C1772 C1774 1.384 . S
C1773 C1772 1.377 . S
C1773 C1779 1.390 . S
C1774 H1765 0.930 . S
C1774 C1772 1.384 . S
C1774 C1775 1.372 . S
C1775 C1774 1.372 . S
C1775 C1776 1.400 . S
C1775 C1780 1.490 . S
C1776 H1766 0.930 . S
C1776 C1775 1.400 . S
C1776 C1779 1.386 . S
H1777 C1793 0.930 1_545 S
H1778 C1794 0.931 . S
C1779 H1767 0.929 . S
C1779 C1773 1.390 . S
C1779 C1776 1.386 . S
C1780 C1775 1.490 . S
C1780 C1782 1.395 . S
C1780 C1783 1.403 . S
H1781 C1787 0.930 . S
C1782 H1768 0.930 . S
C1782 C1780 1.395 . S
C1782 C1785 1.403 . S
C1783 C1780 1.403 . S
C1783 C1784 1.524 . S
C1783 C1787 1.400 . S
C1784 H1769 0.960 . S
C1784 H1770 0.960 . S
C1784 H1771 0.960 . S
C1784 C1783 1.524 . S
C1785 C1782 1.403 . S
C1785 C1786 1.392 . S
C1785 C1789 1.495 . S
C1786 C1785 1.392 . S
C1786 C1787 1.385 . S
C1786 C1788 1.478 . S
C1787 H1781 0.930 . S
C1787 C1783 1.400 . S
C1787 C1786 1.385 . S
C1788 C1786 1.478 . S
C1788 C1790 1.381 . S
C1788 C1794 1.383 . S
C1789 C1785 1.495 . S
C1789 H1795 0.959 . S
C1789 H1796 0.961 . S
C1789 H1797 0.960 . S
C1790 C1788 1.381 . S
C1790 C1791 1.394 . S
C1790 H1798 0.930 . S
C1791 C1790 1.394 . S
C1791 C1792 1.383 . S
C1791 H1799 0.929 . S
C1792 C1791 1.383 . S
C1792 C1793 1.377 . S
C1793 H1777 0.930 1_565 S
C1793 C1792 1.377 . S
C1793 C1794 1.379 . S
C1794 H1778 0.931 . S
C1794 C1788 1.383 . S
C1794 C1793 1.379 . S
H1795 C1789 0.959 . S
H1796 C1789 0.961 . S
H1797 C1789 0.960 . S
H1798 C1790 0.930 . S
H1799 C1791 0.929 . S
H1800 C1808 0.929 . S
H1801 C1810 0.930 . S
H1802 C1812 0.930 . S
H1803 C1815 0.929 . S
H1804 C1818 0.930 . S
H1805 C1820 0.960 . S
H1806 C1820 0.960 . S
H1807 C1820 0.960 . S
C1808 H1800 0.929 . S
C1808 C1809 1.377 . S
C1808 C1810 1.384 . S
C1809 C1808 1.377 . S
C1809 C1815 1.390 . S
C1810 H1801 0.930 . S
C1810 C1808 1.384 . S
C1810 C1811 1.372 . S
C1811 C1810 1.372 . S
C1811 C1812 1.400 . S
C1811 C1816 1.490 . S
C1812 H1802 0.930 . S
C1812 C1811 1.400 . S
C1812 C1815 1.386 . S
H1813 C1829 0.930 . S
H1814 C1830 0.931 . S
C1815 H1803 0.929 . S
C1815 C1809 1.390 . S
C1815 C1812 1.386 . S
C1816 C1811 1.490 . S
C1816 C1818 1.395 . S
C1816 C1819 1.403 . S
H1817 C1823 0.930 . S
C1818 H1804 0.930 . S
C1818 C1816 1.395 . S
C1818 C1821 1.403 . S
C1819 C1816 1.403 . S
C1819 C1820 1.524 . S
C1819 C1823 1.400 . S
C1820 H1805 0.960 . S
C1820 H1806 0.960 . S
C1820 H1807 0.960 . S
C1820 C1819 1.524 . S
C1821 C1818 1.403 . S
C1821 C1822 1.392 . S
C1821 C1825 1.495 . S
C1822 C1821 1.392 . S
C1822 C1823 1.385 . S
C1822 C1824 1.478 . S
C1823 H1817 0.930 . S
C1823 C1819 1.400 . S
C1823 C1822 1.385 . S
C1824 C1822 1.478 . S
C1824 C1826 1.381 . S
C1824 C1830 1.383 . S
C1825 C1821 1.495 . S
C1825 H1831 0.959 . S
C1825 H1832 0.961 . S
C1825 H1833 0.960 . S
C1826 C1824 1.381 . S
C1826 C1827 1.394 . S
C1826 H1834 0.930 . S
C1827 C1826 1.394 . S
C1827 C1828 1.383 . S
C1827 H1835 0.929 . S
C1828 C1827 1.383 . S
C1828 C1829 1.377 . S
C1829 H1813 0.930 . S
C1829 C1828 1.377 . S
C1829 C1830 1.379 . S
C1830 H1814 0.931 . S
C1830 C1824 1.383 . S
C1830 C1829 1.379 . S
H1831 C1825 0.959 . S
H1832 C1825 0.961 . S
H1833 C1825 0.960 . S
H1834 C1826 0.930 . S
H1835 C1827 0.929 . S
H1836 C1844 0.929 . S
H1837 C1846 0.930 . S
H1838 C1848 0.930 . S
H1839 C1851 0.929 . S
H1840 C1854 0.930 . S
H1841 C1856 0.960 . S
H1842 C1856 0.960 . S
H1843 C1856 0.960 . S
C1844 H1836 0.929 . S
C1844 C1845 1.377 . S
C1844 C1846 1.384 . S
C1845 C1844 1.377 . S
C1845 C1851 1.390 . S
C1846 H1837 0.930 . S
C1846 C1844 1.384 . S
C1846 C1847 1.372 . S
C1847 C1846 1.372 . S
C1847 C1848 1.400 . S
C1847 C1852 1.490 . S
C1848 H1838 0.930 . S
C1848 C1847 1.400 . S
C1848 C1851 1.386 . S
H1849 C1865 0.930 . S
H1850 C1866 0.931 . S
C1851 H1839 0.929 . S
C1851 C1845 1.390 . S
C1851 C1848 1.386 . S
C1852 C1847 1.490 . S
C1852 C1854 1.395 . S
C1852 C1855 1.403 . S
H1853 C1859 0.930 . S
C1854 H1840 0.930 . S
C1854 C1852 1.395 . S
C1854 C1857 1.403 . S
C1855 C1852 1.403 . S
C1855 C1856 1.524 . S
C1855 C1859 1.400 . S
C1856 H1841 0.960 . S
C1856 H1842 0.960 . S
C1856 H1843 0.960 . S
C1856 C1855 1.524 . S
C1857 C1854 1.403 . S
C1857 C1858 1.392 . S
C1857 C1861 1.495 . S
C1858 C1857 1.392 . S
C1858 C1859 1.385 . S
C1858 C1860 1.478 . S
C1859 H1853 0.930 . S
C1859 C1855 1.400 . S
C1859 C1858 1.385 . S
C1860 C1858 1.478 . S
C1860 C1862 1.381 . S
C1860 C1866 1.383 . S
C1861 C1857 1.495 . S
C1861 H1867 0.959 . S
C1861 H1868 0.961 . S
C1861 H1869 0.960 . S
C1862 C1860 1.381 . S
C1862 C1863 1.394 . S
C1862 H1870 0.930 . S
C1863 C1862 1.394 . S
C1863 C1864 1.383 . S
C1863 H1871 0.929 . S
C1864 C1863 1.383 . S
C1864 C1865 1.377 . S
C1865 H1849 0.930 . S
C1865 C1864 1.377 . S
C1865 C1866 1.379 . S
C1866 H1850 0.931 . S
C1866 C1860 1.383 . S
C1866 C1865 1.379 . S
H1867 C1861 0.959 . S
H1868 C1861 0.961 . S
H1869 C1861 0.960 . S
H1870 C1862 0.930 . S
H1871 C1863 0.929 . S
H1872 C1880 0.929 . S
H1873 C1882 0.930 . S
H1874 C1884 0.930 . S
H1875 C1887 0.929 . S
H1876 C1890 0.930 . S
H1877 C1892 0.960 . S
H1878 C1892 0.960 . S
H1879 C1892 0.960 . S
C1880 H1872 0.929 . S
C1880 C1881 1.377 . S
C1880 C1882 1.384 . S
C1881 C1880 1.377 . S
C1881 C1887 1.390 . S
C1882 H1873 0.930 . S
C1882 C1880 1.384 . S
C1882 C1883 1.372 . S
C1883 C1882 1.372 . S
C1883 C1884 1.400 . S
C1883 C1888 1.490 . S
C1884 H1874 0.930 . S
C1884 C1883 1.400 . S
C1884 C1887 1.386 . S
H1885 C1901 0.930 . S
H1886 C1902 0.931 . S
C1887 H1875 0.929 . S
C1887 C1881 1.390 . S
C1887 C1884 1.386 . S
C1888 C1883 1.490 . S
C1888 C1890 1.395 . S
C1888 C1891 1.403 . S
H1889 C1895 0.930 . S
C1890 H1876 0.930 . S
C1890 C1888 1.395 . S
C1890 C1893 1.403 . S
C1891 C1888 1.403 . S
C1891 C1892 1.524 . S
C1891 C1895 1.400 . S
C1892 H1877 0.960 . S
C1892 H1878 0.960 . S
C1892 H1879 0.960 . S
C1892 C1891 1.524 . S
C1893 C1890 1.403 . S
C1893 C1894 1.392 . S
C1893 C1897 1.495 . S
C1894 C1893 1.392 . S
C1894 C1895 1.385 . S
C1894 C1896 1.478 . S
C1895 H1889 0.930 . S
C1895 C1891 1.400 . S
C1895 C1894 1.385 . S
C1896 C1894 1.478 . S
C1896 C1898 1.381 . S
C1896 C1902 1.383 . S
C1897 C1893 1.495 . S
C1897 H1903 0.959 . S
C1897 H1904 0.961 . S
C1897 H1905 0.960 . S
C1898 C1896 1.381 . S
C1898 C1899 1.394 . S
C1898 H1906 0.930 . S
C1899 C1898 1.394 . S
C1899 C1900 1.383 . S
C1899 H1907 0.929 . S
C1900 C1899 1.383 . S
C1900 C1901 1.377 . S
C1901 H1885 0.930 . S
C1901 C1900 1.377 . S
C1901 C1902 1.379 . S
C1902 H1886 0.931 . S
C1902 C1896 1.383 . S
C1902 C1901 1.379 . S
H1903 C1897 0.959 . S
H1904 C1897 0.961 . S
H1905 C1897 0.960 . S
H1906 C1898 0.930 . S
H1907 C1899 0.929 . S
H1908 C1916 0.929 . S
H1909 C1918 0.930 . S
H1910 C1920 0.930 . S
H1911 C1923 0.929 . S
H1912 C1926 0.930 . S
H1913 C1928 0.960 . S
H1914 C1928 0.960 . S
H1915 C1928 0.960 . S
C1916 H1908 0.929 . S
C1916 C1917 1.377 . S
C1916 C1918 1.384 . S
C1917 C1916 1.377 . S
C1917 C1923 1.390 . S
C1918 H1909 0.930 . S
C1918 C1916 1.384 . S
C1918 C1919 1.372 . S
C1919 C1918 1.372 . S
C1919 C1920 1.400 . S
C1919 C1924 1.490 . S
C1920 H1910 0.930 . S
C1920 C1919 1.400 . S
C1920 C1923 1.386 . S
H1921 C1937 0.930 . S
H1922 C1938 0.931 . S
C1923 H1911 0.929 . S
C1923 C1917 1.390 . S
C1923 C1920 1.386 . S
C1924 C1919 1.490 . S
C1924 C1926 1.395 . S
C1924 C1927 1.403 . S
H1925 C1931 0.930 . S
C1926 H1912 0.930 . S
C1926 C1924 1.395 . S
C1926 C1929 1.403 . S
C1927 C1924 1.403 . S
C1927 C1928 1.524 . S
C1927 C1931 1.400 . S
C1928 H1913 0.960 . S
C1928 H1914 0.960 . S
C1928 H1915 0.960 . S
C1928 C1927 1.524 . S
C1929 C1926 1.403 . S
C1929 C1930 1.392 . S
C1929 C1933 1.495 . S
C1930 C1929 1.392 . S
C1930 C1931 1.385 . S
C1930 C1932 1.478 . S
C1931 H1925 0.930 . S
C1931 C1927 1.400 . S
C1931 C1930 1.385 . S
C1932 C1930 1.478 . S
C1932 C1934 1.381 . S
C1932 C1938 1.383 . S
C1933 C1929 1.495 . S
C1933 H1939 0.959 . S
C1933 H1940 0.961 . S
C1933 H1941 0.960 . S
C1934 C1932 1.381 . S
C1934 C1935 1.394 . S
C1934 H1942 0.930 . S
C1935 C1934 1.394 . S
C1935 C1936 1.383 . S
C1935 H1943 0.929 . S
C1936 C1935 1.383 . S
C1936 C1937 1.377 . S
C1937 H1921 0.930 . S
C1937 C1936 1.377 . S
C1937 C1938 1.379 . S
C1938 H1922 0.931 . S
C1938 C1932 1.383 . S
C1938 C1937 1.379 . S
H1939 C1933 0.959 . S
H1940 C1933 0.961 . S
H1941 C1933 0.960 . S
H1942 C1934 0.930 . S
H1943 C1935 0.929 . S
H1944 C1952 0.929 . S
H1945 C1954 0.930 . S
H1946 C1956 0.930 . S
H1947 C1959 0.929 . S
H1948 C1962 0.930 . S
H1949 C1964 0.960 . S
H1950 C1964 0.960 . S
H1951 C1964 0.960 . S
C1952 H1944 0.929 . S
C1952 C1953 1.377 . S
C1952 C1954 1.384 . S
C1953 C1952 1.377 . S
C1953 C1959 1.390 . S
C1954 H1945 0.930 . S
C1954 C1952 1.384 . S
C1954 C1955 1.372 . S
C1955 C1954 1.372 . S
C1955 C1956 1.400 . S
C1955 C1960 1.490 . S
C1956 H1946 0.930 . S
C1956 C1955 1.400 . S
C1956 C1959 1.386 . S
H1957 C1973 0.930 . S
H1958 C1974 0.931 . S
C1959 H1947 0.929 . S
C1959 C1953 1.390 . S
C1959 C1956 1.386 . S
C1960 C1955 1.490 . S
C1960 C1962 1.395 . S
C1960 C1963 1.403 . S
H1961 C1967 0.930 . S
C1962 H1948 0.930 . S
C1962 C1960 1.395 . S
C1962 C1965 1.403 . S
C1963 C1960 1.403 . S
C1963 C1964 1.524 . S
C1963 C1967 1.400 . S
C1964 H1949 0.960 . S
C1964 H1950 0.960 . S
C1964 H1951 0.960 . S
C1964 C1963 1.524 . S
C1965 C1962 1.403 . S
C1965 C1966 1.392 . S
C1965 C1969 1.495 . S
C1966 C1965 1.392 . S
C1966 C1967 1.385 . S
C1966 C1968 1.478 . S
C1967 H1961 0.930 . S
C1967 C1963 1.400 . S
C1967 C1966 1.385 . S
C1968 C1966 1.478 . S
C1968 C1970 1.381 . S
C1968 C1974 1.383 . S
C1969 C1965 1.495 . S
C1969 H1975 0.959 . S
C1969 H1976 0.961 . S
C1969 H1977 0.960 . S
C1970 C1968 1.381 . S
C1970 C1971 1.394 . S
C1970 H1978 0.930 . S
C1971 C1970 1.394 . S
C1971 C1972 1.383 . S
C1971 H1979 0.929 . S
C1972 C1971 1.383 . S
C1972 C1973 1.377 . S
C1973 H1957 0.930 . S
C1973 C1972 1.377 . S
C1973 C1974 1.379 . S
C1974 H1958 0.931 . S
C1974 C1968 1.383 . S
C1974 C1973 1.379 . S
H1975 C1969 0.959 . S
H1976 C1969 0.961 . S
H1977 C1969 0.960 . S
H1978 C1970 0.930 . S
H1979 C1971 0.929 . S
H1980 C1988 0.929 . S
H1981 C1990 0.930 . S
H1982 C1992 0.930 . S
H1983 C1995 0.929 . S
H1984 C1998 0.930 . S
H1985 C2000 0.960 . S
H1986 C2000 0.960 . S
H1987 C2000 0.960 . S
C1988 H1980 0.929 . S
C1988 C1989 1.377 . S
C1988 C1990 1.384 . S
C1989 C1988 1.377 . S
C1989 C1995 1.390 . S
C1990 H1981 0.930 . S
C1990 C1988 1.384 . S
C1990 C1991 1.372 . S
C1991 C1990 1.372 . S
C1991 C1992 1.400 . S
C1991 C1996 1.490 . S
C1992 H1982 0.930 . S
C1992 C1991 1.400 . S
C1992 C1995 1.386 . S
H1993 C2009 0.930 . S
H1994 C2010 0.931 . S
C1995 H1983 0.929 . S
C1995 C1989 1.390 . S
C1995 C1992 1.386 . S
C1996 C1991 1.490 . S
C1996 C1998 1.395 . S
C1996 C1999 1.403 . S
H1997 C2003 0.930 . S
C1998 H1984 0.930 . S
C1998 C1996 1.395 . S
C1998 C2001 1.403 . S
C1999 C1996 1.403 . S
C1999 C2000 1.524 . S
C1999 C2003 1.400 . S
C2000 H1985 0.960 . S
C2000 H1986 0.960 . S
C2000 H1987 0.960 . S
C2000 C1999 1.524 . S
C2001 C1998 1.403 . S
C2001 C2002 1.392 . S
C2001 C2005 1.495 . S
C2002 C2001 1.392 . S
C2002 C2003 1.385 . S
C2002 C2004 1.478 . S
C2003 H1997 0.930 . S
C2003 C1999 1.400 . S
C2003 C2002 1.385 . S
C2004 C2002 1.478 . S
C2004 C2006 1.381 . S
C2004 C2010 1.383 . S
C2005 C2001 1.495 . S
C2005 H2011 0.959 . S
C2005 H2012 0.961 . S
C2005 H2013 0.960 . S
C2006 C2004 1.381 . S
C2006 C2007 1.394 . S
C2006 H2014 0.930 . S
C2007 C2006 1.394 . S
C2007 C2008 1.383 . S
C2007 H2015 0.929 . S
C2008 C2007 1.383 . S
C2008 C2009 1.377 . S
C2009 H1993 0.930 . S
C2009 C2008 1.377 . S
C2009 C2010 1.379 . S
C2010 H1994 0.931 . S
C2010 C2004 1.383 . S
C2010 C2009 1.379 . S
H2011 C2005 0.959 . S
H2012 C2005 0.961 . S
H2013 C2005 0.960 . S
H2014 C2006 0.930 . S
H2015 C2007 0.929 . S
H2016 C2024 0.929 . S
H2017 C2026 0.930 . S
H2018 C2028 0.930 . S
H2019 C2031 0.929 1_545 S
H2020 C2034 0.930 . S
H2021 C2036 0.960 . S
H2022 C2036 0.960 . S
H2023 C2036 0.960 . S
C2024 H2016 0.929 . S
C2024 C2025 1.377 . S
C2024 C2026 1.384 . S
C2025 C2024 1.377 . S
C2025 C2031 1.390 . S
C2026 H2017 0.930 . S
C2026 C2024 1.384 . S
C2026 C2027 1.372 . S
C2027 C2026 1.372 . S
C2027 C2028 1.400 . S
C2027 C2032 1.490 . S
C2028 H2018 0.930 . S
C2028 C2027 1.400 . S
C2028 C2031 1.386 . S
H2029 C2045 0.930 . S
H2030 C2046 0.931 . S
C2031 H2019 0.929 1_565 S
C2031 C2025 1.390 . S
C2031 C2028 1.386 . S
C2032 C2027 1.490 . S
C2032 C2034 1.395 . S
C2032 C2035 1.403 . S
H2033 C2039 0.930 . S
C2034 H2020 0.930 . S
C2034 C2032 1.395 . S
C2034 C2037 1.403 . S
C2035 C2032 1.403 . S
C2035 C2036 1.524 . S
C2035 C2039 1.400 . S
C2036 H2021 0.960 . S
C2036 H2022 0.960 . S
C2036 H2023 0.960 . S
C2036 C2035 1.524 . S
C2037 C2034 1.403 . S
C2037 C2038 1.392 . S
C2037 C2041 1.495 . S
C2038 C2037 1.392 . S
C2038 C2039 1.385 . S
C2038 C2040 1.478 . S
C2039 H2033 0.930 . S
C2039 C2035 1.400 . S
C2039 C2038 1.385 . S
C2040 C2038 1.478 . S
C2040 C2042 1.381 . S
C2040 C2046 1.383 . S
C2041 C2037 1.495 . S
C2041 H2047 0.959 . S
C2041 H2048 0.961 . S
C2041 H2049 0.960 . S
C2042 C2040 1.381 . S
C2042 C2043 1.394 . S
C2042 H2050 0.930 . S
C2043 C2042 1.394 . S
C2043 C2044 1.383 . S
C2043 H2051 0.929 . S
C2044 C2043 1.383 . S
C2044 C2045 1.377 . S
C2045 H2029 0.930 . S
C2045 C2044 1.377 . S
C2045 C2046 1.379 . S
C2046 H2030 0.931 . S
C2046 C2040 1.383 . S
C2046 C2045 1.379 . S
H2047 C2041 0.959 . S
H2048 C2041 0.961 . S
H2049 C2041 0.960 . S
H2050 C2042 0.930 . S
H2051 C2043 0.929 . S
H2052 C2060 0.929 . S
H2053 C2062 0.930 . S
H2054 C2064 0.930 . S
H2055 C2067 0.929 . S
H2056 C2070 0.930 . S
H2057 C2072 0.960 . S
H2058 C2072 0.960 . S
H2059 C2072 0.960 . S
C2060 H2052 0.929 . S
C2060 C2061 1.377 . S
C2060 C2062 1.384 . S
C2061 C2060 1.377 . S
C2061 C2067 1.390 . S
C2062 H2053 0.930 . S
C2062 C2060 1.384 . S
C2062 C2063 1.372 . S
C2063 C2062 1.372 . S
C2063 C2064 1.400 . S
C2063 C2068 1.490 . S
C2064 H2054 0.930 . S
C2064 C2063 1.400 . S
C2064 C2067 1.386 . S
H2065 C2081 0.930 . S
H2066 C2082 0.931 . S
C2067 H2055 0.929 . S
C2067 C2061 1.390 . S
C2067 C2064 1.386 . S
C2068 C2063 1.490 . S
C2068 C2070 1.395 . S
C2068 C2071 1.403 . S
H2069 C2075 0.930 . S
C2070 H2056 0.930 . S
C2070 C2068 1.395 . S
C2070 C2073 1.403 . S
C2071 C2068 1.403 . S
C2071 C2072 1.524 . S
C2071 C2075 1.400 . S
C2072 H2057 0.960 . S
C2072 H2058 0.960 . S
C2072 H2059 0.960 . S
C2072 C2071 1.524 . S
C2073 C2070 1.403 . S
C2073 C2074 1.392 . S
C2073 C2077 1.495 . S
C2074 C2073 1.392 . S
C2074 C2075 1.385 . S
C2074 C2076 1.478 . S
C2075 H2069 0.930 . S
C2075 C2071 1.400 . S
C2075 C2074 1.385 . S
C2076 C2074 1.478 . S
C2076 C2078 1.381 . S
C2076 C2082 1.383 . S
C2077 C2073 1.495 . S
C2077 H2083 0.959 . S
C2077 H2084 0.961 . S
C2077 H2085 0.960 . S
C2078 C2076 1.381 . S
C2078 C2079 1.394 . S
C2078 H2086 0.930 . S
C2079 C2078 1.394 . S
C2079 C2080 1.383 . S
C2079 H2087 0.929 . S
C2080 C2079 1.383 . S
C2080 C2081 1.377 . S
C2081 H2065 0.930 . S
C2081 C2080 1.377 . S
C2081 C2082 1.379 . S
C2082 H2066 0.931 . S
C2082 C2076 1.383 . S
C2082 C2081 1.379 . S
H2083 C2077 0.959 . S
H2084 C2077 0.961 . S
H2085 C2077 0.960 . S
H2086 C2078 0.930 . S
H2087 C2079 0.929 . S
H2088 C2096 0.929 . S
H2089 C2098 0.930 . S
H2090 C2100 0.930 . S
H2091 C2103 0.929 . S
H2092 C2106 0.930 . S
H2093 C2108 0.960 . S
H2094 C2108 0.960 . S
H2095 C2108 0.960 . S
C2096 H2088 0.929 . S
C2096 C2097 1.377 . S
C2096 C2098 1.384 . S
C2097 C2096 1.377 . S
C2097 C2103 1.390 . S
C2098 H2089 0.930 . S
C2098 C2096 1.384 . S
C2098 C2099 1.372 . S
C2099 C2098 1.372 . S
C2099 C2100 1.400 . S
C2099 C2104 1.490 . S
C2100 H2090 0.930 . S
C2100 C2099 1.400 . S
C2100 C2103 1.386 . S
H2101 C2117 0.930 . S
H2102 C2118 0.931 . S
C2103 H2091 0.929 . S
C2103 C2097 1.390 . S
C2103 C2100 1.386 . S
C2104 C2099 1.490 . S
C2104 C2106 1.395 . S
C2104 C2107 1.403 . S
H2105 C2111 0.930 . S
C2106 H2092 0.930 . S
C2106 C2104 1.395 . S
C2106 C2109 1.403 . S
C2107 C2104 1.403 . S
C2107 C2108 1.524 . S
C2107 C2111 1.400 . S
C2108 H2093 0.960 . S
C2108 H2094 0.960 . S
C2108 H2095 0.960 . S
C2108 C2107 1.524 . S
C2109 C2106 1.403 . S
C2109 C2110 1.392 . S
C2109 C2113 1.495 . S
C2110 C2109 1.392 . S
C2110 C2111 1.385 . S
C2110 C2112 1.478 . S
C2111 H2105 0.930 . S
C2111 C2107 1.400 . S
C2111 C2110 1.385 . S
C2112 C2110 1.478 . S
C2112 C2114 1.381 . S
C2112 C2118 1.383 . S
C2113 C2109 1.495 . S
C2113 H2119 0.959 . S
C2113 H2120 0.961 . S
C2113 H2121 0.960 . S
C2114 C2112 1.381 . S
C2114 C2115 1.394 . S
C2114 H2122 0.930 . S
C2115 C2114 1.394 . S
C2115 C2116 1.383 . S
C2115 H2123 0.929 . S
C2116 C2115 1.383 . S
C2116 C2117 1.377 . S
C2117 H2101 0.930 . S
C2117 C2116 1.377 . S
C2117 C2118 1.379 . S
C2118 H2102 0.931 . S
C2118 C2112 1.383 . S
C2118 C2117 1.379 . S
H2119 C2113 0.959 . S
H2120 C2113 0.961 . S
H2121 C2113 0.960 . S
H2122 C2114 0.930 . S
H2123 C2115 0.929 . S
H2124 C2132 0.929 . S
H2125 C2134 0.930 1_556 S
H2126 C2136 0.930 . S
H2127 C2139 0.929 1_455 S
H2128 C2142 0.930 1_655 S
H2129 C2144 0.951 1_556 S
H2130 C2144 0.960 1_556 S
H2131 C2144 0.960 . S
C2132 H2124 0.929 . S
C2132 C2133 1.377 . S
C2132 C2134 1.384 . S
C2133 C2132 1.377 . S
C2133 C2139 1.390 . S
C2134 H2125 0.930 1_554 S
C2134 C2132 1.384 . S
C2134 C2135 1.372 1_655 S
C2135 C2134 1.372 1_455 S
C2135 C2136 1.400 . S
C2135 C2140 1.490 . S
C2136 H2126 0.930 . S
C2136 C2135 1.400 . S
C2136 C2139 1.386 1_455 S
H2137 C2153 0.930 . S
H2138 C2154 0.931 1_554 S
C2139 H2127 0.929 1_655 S
C2139 C2133 1.390 . S
C2139 C2136 1.386 1_655 S
C2140 C2135 1.490 . S
C2140 C2142 1.395 . S
C2140 C2143 1.403 . S
H2141 C2147 0.930 . S
C2142 H2128 0.930 1_455 S
C2142 C2140 1.395 . S
C2142 C2145 1.403 1_554 S
C2143 C2140 1.403 . S
C2143 C2144 1.524 . S
C2143 C2147 1.400 1_554 S
C2144 H2129 0.951 1_554 S
C2144 H2130 0.960 1_554 S
C2144 H2131 0.960 . S
C2144 C2143 1.524 . S
C2145 C2142 1.403 1_556 S
C2145 C2146 1.392 . S
C2145 C2149 1.495 . S
C2146 C2145 1.392 . S
C2146 C2147 1.385 . S
C2146 C2148 1.478 . S
C2147 H2141 0.930 . S
C2147 C2143 1.400 1_556 S
C2147 C2146 1.385 . S
C2148 C2146 1.478 . S
C2148 C2150 1.381 . S
C2148 C2154 1.383 . S
C2149 C2145 1.495 . S
C2149 H2155 0.973 . S
C2149 H2156 0.959 . S
C2149 H2157 0.960 . S
C2150 C2148 1.381 . S
C2150 C2151 1.394 . S
C2150 H2158 0.930 . S
C2151 C2150 1.394 . S
C2151 C2152 1.383 . S
C2151 H2159 0.929 . S
C2152 C2151 1.383 . S
C2152 C2153 1.377 . S
C2153 H2137 0.930 . S
C2153 C2152 1.377 . S
C2153 C2154 1.379 . S
C2154 H2138 0.931 1_556 S
C2154 C2148 1.383 . S
C2154 C2153 1.379 . S
H2155 C2149 0.973 . S
H2156 C2149 0.959 . S
H2157 C2149 0.960 . S
H2158 C2150 0.930 . S
H2159 C2151 0.929 . S
H2160 C2168 0.929 . S
H2161 C2170 0.930 1_554 S
H2162 C2172 0.930 . S
H2163 C2175 0.929 . S
H2164 C2178 0.930 . S
H2165 C2180 0.960 . S
H2166 C2180 0.960 1_554 S
H2167 C2180 0.960 . S
C2168 H2160 0.929 . S
C2168 C2169 1.377 . S
C2168 C2170 1.384 . S
C2169 C2168 1.377 . S
C2169 C2175 1.390 . S
C2170 H2161 0.930 1_556 S
C2170 C2168 1.384 . S
C2170 C2171 1.372 . S
C2171 C2170 1.372 . S
C2171 C2172 1.400 . S
C2171 C2176 1.490 . S
C2172 H2162 0.930 . S
C2172 C2171 1.400 . S
C2172 C2175 1.386 . S
H2173 C2189 0.930 . S
H2174 C2190 0.931 1_556 S
C2175 H2163 0.929 . S
C2175 C2169 1.390 . S
C2175 C2172 1.386 . S
C2176 C2171 1.490 . S
C2176 C2178 1.395 . S
C2176 C2179 1.403 . S
H2177 C2183 0.930 . S
C2178 H2164 0.930 . S
C2178 C2176 1.395 . S
C2178 C2181 1.403 1_556 S
C2179 C2176 1.403 . S
C2179 C2180 1.524 . S
C2179 C2183 1.400 1_556 S
C2180 H2165 0.960 . S
C2180 H2166 0.960 1_556 S
C2180 H2167 0.960 . S
C2180 C2179 1.524 . S
C2181 C2178 1.403 1_554 S
C2181 C2182 1.392 . S
C2181 C2185 1.495 . S
C2182 C2181 1.392 . S
C2182 C2183 1.385 . S
C2182 C2184 1.478 . S
C2183 H2177 0.930 . S
C2183 C2179 1.400 1_554 S
C2183 C2182 1.385 . S
C2184 C2182 1.478 . S
C2184 C2186 1.381 . S
C2184 C2190 1.383 . S
C2185 C2181 1.495 . S
C2185 H2191 0.959 . S
C2185 H2192 0.961 . S
C2185 H2193 0.960 . S
C2186 C2184 1.381 . S
C2186 C2187 1.394 . S
C2186 H2194 0.930 . S
C2187 C2186 1.394 . S
C2187 C2188 1.383 . S
C2187 H2195 0.929 . S
C2188 C2187 1.383 . S
C2188 C2189 1.377 . S
C2189 H2173 0.930 . S
C2189 C2188 1.377 . S
C2189 C2190 1.379 . S
C2190 H2174 0.931 1_554 S
C2190 C2184 1.383 . S
C2190 C2189 1.379 . S
H2191 C2185 0.959 . S
H2192 C2185 0.961 . S
H2193 C2185 0.960 . S
H2194 C2186 0.930 . S
H2195 C2187 0.929 . S
H2196 C2204 0.929 . S
H2197 C2206 0.930 1_556 S
H2198 C2208 0.930 . S
H2199 C2211 0.929 . S
H2200 C2214 0.930 . S
H2201 C2216 0.960 . S
H2202 C2216 0.952 1_556 S
H2203 C2216 0.960 . S
C2204 H2196 0.929 . S
C2204 C2205 1.377 . S
C2204 C2206 1.384 . S
C2205 C2204 1.377 . S
C2205 C2211 1.390 . S
C2206 H2197 0.930 1_554 S
C2206 C2204 1.384 . S
C2206 C2207 1.372 . S
C2207 C2206 1.372 . S
C2207 C2208 1.400 . S
C2207 C2212 1.490 . S
C2208 H2198 0.930 . S
C2208 C2207 1.400 . S
C2208 C2211 1.386 . S
H2209 C2225 0.930 . S
H2210 C2226 0.931 1_554 S
C2211 H2199 0.929 . S
C2211 C2205 1.390 . S
C2211 C2208 1.386 . S
C2212 C2207 1.490 . S
C2212 C2214 1.395 . S
C2212 C2215 1.403 . S
H2213 C2219 0.930 . S
C2214 H2200 0.930 . S
C2214 C2212 1.395 . S
C2214 C2217 1.403 1_554 S
C2215 C2212 1.403 . S
C2215 C2216 1.524 . S
C2215 C2219 1.400 1_554 S
C2216 H2201 0.960 . S
C2216 H2202 0.952 1_554 S
C2216 H2203 0.960 . S
C2216 C2215 1.524 . S
C2217 C2214 1.403 1_556 S
C2217 C2218 1.392 . S
C2217 C2221 1.495 . S
C2218 C2217 1.392 . S
C2218 C2219 1.385 . S
C2218 C2220 1.478 . S
C2219 H2213 0.930 . S
C2219 C2215 1.400 1_556 S
C2219 C2218 1.385 . S
C2220 C2218 1.478 . S
C2220 C2222 1.381 . S
C2220 C2226 1.383 . S
C2221 C2217 1.495 . S
C2221 H2227 0.959 . S
C2221 H2228 0.961 . S
C2221 H2229 0.960 . S
C2222 C2220 1.381 . S
C2222 C2223 1.394 . S
C2222 H2230 0.930 . S
C2223 C2222 1.394 . S
C2223 C2224 1.383 1_545 S
C2223 H2231 0.929 . S
C2224 C2223 1.383 1_565 S
C2224 C2225 1.377 . S
C2225 H2209 0.930 . S
C2225 C2224 1.377 . S
C2225 C2226 1.379 1_565 S
C2226 H2210 0.931 1_556 S
C2226 C2220 1.383 . S
C2226 C2225 1.379 1_545 S
H2227 C2221 0.959 . S
H2228 C2221 0.961 . S
H2229 C2221 0.960 . S
H2230 C2222 0.930 . S
H2231 C2223 0.929 . S
H2232 C2240 0.929 . S
H2233 C2242 0.930 . S
H2234 C2244 0.930 . S
H2235 C2247 0.929 . S
H2236 C2250 0.930 . S
H2237 C2252 0.960 . S
H2238 C2252 0.960 . S
H2239 C2252 0.960 . S
C2240 H2232 0.929 . S
C2240 C2241 1.377 . S
C2240 C2242 1.384 . S
C2241 C2240 1.377 . S
C2241 C2247 1.390 . S
C2242 H2233 0.930 . S
C2242 C2240 1.384 . S
C2242 C2243 1.372 . S
C2243 C2242 1.372 . S
C2243 C2244 1.400 . S
C2243 C2248 1.490 . S
C2244 H2234 0.930 . S
C2244 C2243 1.400 . S
C2244 C2247 1.386 . S
H2245 C2261 0.930 . S
H2246 C2262 0.931 . S
C2247 H2235 0.929 . S
C2247 C2241 1.390 . S
C2247 C2244 1.386 . S
C2248 C2243 1.490 . S
C2248 C2250 1.395 . S
C2248 C2251 1.403 . S
H2249 C2255 0.930 . S
C2250 H2236 0.930 . S
C2250 C2248 1.395 . S
C2250 C2253 1.403 . S
C2251 C2248 1.403 . S
C2251 C2252 1.524 . S
C2251 C2255 1.400 . S
C2252 H2237 0.960 . S
C2252 H2238 0.960 . S
C2252 H2239 0.960 . S
C2252 C2251 1.524 . S
C2253 C2250 1.403 . S
C2253 C2254 1.392 . S
C2253 C2257 1.495 . S
C2254 C2253 1.392 . S
C2254 C2255 1.385 . S
C2254 C2256 1.478 . S
C2255 H2249 0.930 . S
C2255 C2251 1.400 . S
C2255 C2254 1.385 . S
C2256 C2254 1.478 . S
C2256 C2258 1.381 . S
C2256 C2262 1.383 . S
C2257 C2253 1.495 . S
C2257 H2263 0.959 . S
C2257 H2264 0.961 . S
C2257 H2265 0.960 . S
C2258 C2256 1.381 . S
C2258 C2259 1.394 . S
C2258 H2266 0.930 . S
C2259 C2258 1.394 . S
C2259 C2260 1.383 1_545 S
C2259 H2267 0.929 . S
C2260 C2259 1.383 1_565 S
C2260 C2261 1.377 . S
C2261 H2245 0.930 . S
C2261 C2260 1.377 . S
C2261 C2262 1.379 1_565 S
C2262 H2246 0.931 . S
C2262 C2256 1.383 . S
C2262 C2261 1.379 1_545 S
H2263 C2257 0.959 . S
H2264 C2257 0.961 . S
H2265 C2257 0.960 . S
H2266 C2258 0.930 . S
H2267 C2259 0.929 . S
H2268 C2276 0.929 . S
H2269 C2278 0.930 . S
H2270 C2280 0.930 . S
H2271 C2283 0.929 1_455 S
H2272 C2286 0.930 . S
H2273 C2288 0.960 . S
H2274 C2288 0.960 . S
H2275 C2288 0.960 . S
C2276 H2268 0.929 . S
C2276 C2277 1.377 . S
C2276 C2278 1.384 . S
C2277 C2276 1.377 . S
C2277 C2283 1.390 . S
C2278 H2269 0.930 . S
C2278 C2276 1.384 . S
C2278 C2279 1.372 1_655 S
C2279 C2278 1.372 1_455 S
C2279 C2280 1.400 . S
C2279 C2284 1.490 . S
C2280 H2270 0.930 . S
C2280 C2279 1.400 . S
C2280 C2283 1.386 1_455 S
H2281 C2297 0.930 . S
H2282 C2298 0.931 . S
C2283 H2271 0.929 1_655 S
C2283 C2277 1.390 . S
C2283 C2280 1.386 1_655 S
C2284 C2279 1.490 . S
C2284 C2286 1.395 . S
C2284 C2287 1.403 . S
H2285 C2291 0.930 . S
C2286 H2272 0.930 . S
C2286 C2284 1.395 . S
C2286 C2289 1.403 . S
C2287 C2284 1.403 . S
C2287 C2288 1.524 . S
C2287 C2291 1.400 . S
C2288 H2273 0.960 . S
C2288 H2274 0.960 . S
C2288 H2275 0.960 . S
C2288 C2287 1.524 . S
C2289 C2286 1.403 . S
C2289 C2290 1.392 . S
C2289 C2293 1.495 . S
C2290 C2289 1.392 . S
C2290 C2291 1.385 . S
C2290 C2292 1.478 . S
C2291 H2285 0.930 . S
C2291 C2287 1.400 . S
C2291 C2290 1.385 . S
C2292 C2290 1.478 . S
C2292 C2294 1.381 . S
C2292 C2298 1.383 . S
C2293 C2289 1.495 . S
C2293 H2299 0.959 . S
C2293 H2300 0.961 . S
C2293 H2301 0.960 . S
C2294 C2292 1.381 . S
C2294 C2295 1.394 . S
C2294 H2302 0.930 . S
C2295 C2294 1.394 . S
C2295 C2296 1.383 . S
C2295 H2303 0.929 . S
C2296 C2295 1.383 . S
C2296 C2297 1.377 . S
C2297 H2281 0.930 . S
C2297 C2296 1.377 . S
C2297 C2298 1.379 . S
C2298 H2282 0.931 . S
C2298 C2292 1.383 . S
C2298 C2297 1.379 . S
H2299 C2293 0.959 . S
H2300 C2293 0.961 . S
H2301 C2293 0.960 . S
H2302 C2294 0.930 . S
H2303 C2295 0.929 . S
H2304 C2312 0.929 . S
H2305 C2314 0.930 . S
H2306 C2316 0.930 . S
H2307 C2319 0.929 . S
H2308 C2322 0.930 . S
H2309 C2324 0.960 . S
H2310 C2324 0.960 . S
H2311 C2324 0.960 . S
C2312 H2304 0.929 . S
C2312 C2313 1.377 . S
C2312 C2314 1.384 . S
C2313 C2312 1.377 . S
C2313 C2319 1.390 . S
C2314 H2305 0.930 . S
C2314 C2312 1.384 . S
C2314 C2315 1.372 . S
C2315 C2314 1.372 . S
C2315 C2316 1.400 . S
C2315 C2320 1.490 . S
C2316 H2306 0.930 . S
C2316 C2315 1.400 . S
C2316 C2319 1.386 . S
H2317 C2333 0.930 . S
H2318 C2334 0.931 . S
C2319 H2307 0.929 . S
C2319 C2313 1.390 . S
C2319 C2316 1.386 . S
C2320 C2315 1.490 . S
C2320 C2322 1.395 . S
C2320 C2323 1.403 . S
H2321 C2327 0.930 . S
C2322 H2308 0.930 . S
C2322 C2320 1.395 . S
C2322 C2325 1.403 . S
C2323 C2320 1.403 . S
C2323 C2324 1.524 . S
C2323 C2327 1.400 . S
C2324 H2309 0.960 . S
C2324 H2310 0.960 . S
C2324 H2311 0.960 . S
C2324 C2323 1.524 . S
C2325 C2322 1.403 . S
C2325 C2326 1.392 . S
C2325 C2329 1.495 . S
C2326 C2325 1.392 . S
C2326 C2327 1.385 . S
C2326 C2328 1.478 . S
C2327 H2321 0.930 . S
C2327 C2323 1.400 . S
C2327 C2326 1.385 . S
C2328 C2326 1.478 . S
C2328 C2330 1.381 . S
C2328 C2334 1.383 . S
C2329 C2325 1.495 . S
C2329 H2335 0.959 . S
C2329 H2336 0.961 . S
C2329 H2337 0.960 . S
C2330 C2328 1.381 . S
C2330 C2331 1.394 . S
C2330 H2338 0.930 . S
C2331 C2330 1.394 . S
C2331 C2332 1.383 . S
C2331 H2339 0.929 . S
C2332 C2331 1.383 . S
C2332 C2333 1.377 . S
C2333 H2317 0.930 . S
C2333 C2332 1.377 . S
C2333 C2334 1.379 . S
C2334 H2318 0.931 . S
C2334 C2328 1.383 . S
C2334 C2333 1.379 . S
H2335 C2329 0.959 . S
H2336 C2329 0.961 . S
H2337 C2329 0.960 . S
H2338 C2330 0.930 . S
H2339 C2331 0.929 . S
C405 C59 1.282 . S
C424 C15 1.258 . S
C441 C10 1.245 1_655 S
C460 C29 1.201 . S
C477 C40 1.204 . S
C496 C54 1.218 . S
C513 C87 1.274 1_655 S
C532 C131 1.289 . S
C549 C74 1.245 . S
C568 C109 1.229 . S
C585 C96 1.197 . S
C604 C118 1.175 . S
C621 C194 1.243 . S
C640 C147 1.245 . S
C657 C169 1.228 . S
C676 C142 1.232 . S
C693 C164 1.253 . S
C712 C183 1.257 . S
C729 C206 1.230 . S
C748 C257 1.243 . S
C765 C219 1.223 . S
C784 C228 1.225 . S
C801 C252 1.241 . S
C820 C241 1.239 . S
C837 C323 1.275 . S
C856 C271 1.282 . S
C873 C282 1.243 . S
C892 C293 1.243 . S
C909 C304 1.190 . S
C928 C318 1.208 . S
C945 C381 1.275 . S
C964 C351 1.246 . S
C981 C373 1.221 . S
C1000 C338 1.209 . S
C1017 C392 1.181 . S
C1036 C360 1.169 . S
C1053 C21 2.045 . S
C1072 C294 2.059 . S
C1089 C329 2.089 . S
C1108 C37 2.075 . S
C1125 C62 2.023 . S
C1144 C272 2.022 . S
C1161 C175 2.110 . S
C1180 C65 2.089 . S
C1197 C18 2.072 . S
C1216 C191 2.060 . S
C1233 C153 2.053 . S
C1252 C30 2.058 . S
C1269 C235 2.111 . S
C1288 C81 2.104 . S
C1305 C103 2.101 . S
C1324 C249 2.091 . S
C1341 C213 2.053 . S
C1360 C128 2.070 . S
C1377 C125 2.094 . S
C1396 C367 2.077 . S
C1413 C384 2.028 . S
C1432 C84 2.013 . S
C1449 C345 2.047 . S
C1468 C106 2.054 . S
C1485 C301 2.036 . S
C1504 C184 2.058 . S
C1521 C326 2.005 . S
C1540 C150 2.000 . S
C1557 C172 2.061 . S
C1576 C279 2.035 . S
C1593 C216 2.005 . S
C1612 C370 1.998 . S
C1629 C395 2.049 . S
C1648 C238 2.069 . S
C1665 C250 2.011 . S
C1684 C348 2.016 . S
C1701 C7 0.972 . S
C1720 C337 0.954 . S
C1737 C43 0.980 . S
C1756 C359 0.988 . S
C1773 C382 0.900 . S
C1792 C52 0.890 1_565 S
C1809 C263 0.977 . S
C1828 C51 0.971 . S
C1845 C205 0.945 . S
C1864 C8 0.953 . S
C1881 C32 0.967 . S
C1900 C227 0.968 . S
C1917 C73 0.970 . S
C1936 C139 0.977 . S
C1953 C95 0.990 . S
C1972 C161 1.002 . S
C1989 C120 0.956 . S
C2008 C197 0.950 . S
C2025 C117 0.957 1_565 S
C2044 C315 0.951 . S
C2061 C76 0.877 . S
C2080 C274 0.882 . S
C2097 C296 0.884 . S
C2116 C98 0.891 . S
C2133 C186 0.905 . S
C2152 C389 0.909 . S
C2169 C340 0.862 . S
C2188 C140 0.853 . S
C2205 C162 0.890 . S
C2224 C362 0.903 . S
C2241 C208 0.890 . S
C2260 C285 0.902 . S
C2277 C230 0.911 . S
C2296 C307 0.924 . S
C2313 C316 0.878 . S
C2332 C260 0.867 . S
