# Generated by pormake.
# Topology sne, (6)-cn, num edge types: 1
# Building blocks:
#     Node 0, Type 0, BuildingBlock: KUMBUR_clean_sbu_1, # of connection points: 6
#     Node 1, Type 0, BuildingBlock: KUMBUR_clean_sbu_1, # of connection points: 6
#     Node 2, Type 0, BuildingBlock: KUMBUR_clean_sbu_1, # of connection points: 6
#     Node 3, Type 0, BuildingBlock: KUMBUR_clean_sbu_1, # of connection points: 6
#     Node 4, Type 0, BuildingBlock: KUMBUR_clean_sbu_1, # of connection points: 6
#     Node 5, Type 0, BuildingBlock: KUMBUR_clean_sbu_1, # of connection points: 6
#     Node 6, Type 0, BuildingBlock: KUMBUR_clean_sbu_1, # of connection points: 6
#     Node 7, Type 0, BuildingBlock: KUMBUR_clean_sbu_1, # of connection points: 6
#     Edge 8, Type (0, 0), BuildingBlock: EZIPEK_clean_linker_0, # of connection points: 2
#     Edge 9, Type (0, 0), BuildingBlock: EZIPEK_clean_linker_0, # of connection points: 2
#     Edge 10, Type (0, 0), BuildingBlock: EZIPEK_clean_linker_0, # of connection points: 2
#     Edge 11, Type (0, 0), BuildingBlock: EZIPEK_clean_linker_0, # of connection points: 2
#     Edge 12, Type (0, 0), BuildingBlock: EZIPEK_clean_linker_0, # of connection points: 2
#     Edge 13, Type (0, 0), BuildingBlock: EZIPEK_clean_linker_0, # of connection points: 2
#     Edge 14, Type (0, 0), BuildingBlock: EZIPEK_clean_linker_0, # of connection points: 2
#     Edge 15, Type (0, 0), BuildingBlock: EZIPEK_clean_linker_0, # of connection points: 2
#     Edge 16, Type (0, 0), BuildingBlock: EZIPEK_clean_linker_0, # of connection points: 2
#     Edge 17, Type (0, 0), BuildingBlock: EZIPEK_clean_linker_0, # of connection points: 2
#     Edge 18, Type (0, 0), BuildingBlock: EZIPEK_clean_linker_0, # of connection points: 2
#     Edge 19, Type (0, 0), BuildingBlock: EZIPEK_clean_linker_0, # of connection points: 2
#     Edge 20, Type (0, 0), BuildingBlock: EZIPEK_clean_linker_0, # of connection points: 2
#     Edge 21, Type (0, 0), BuildingBlock: EZIPEK_clean_linker_0, # of connection points: 2
#     Edge 22, Type (0, 0), BuildingBlock: EZIPEK_clean_linker_0, # of connection points: 2
#     Edge 23, Type (0, 0), BuildingBlock: EZIPEK_clean_linker_0, # of connection points: 2
#     Edge 24, Type (0, 0), BuildingBlock: EZIPEK_clean_linker_0, # of connection points: 2
#     Edge 25, Type (0, 0), BuildingBlock: EZIPEK_clean_linker_0, # of connection points: 2
#     Edge 26, Type (0, 0), BuildingBlock: EZIPEK_clean_linker_0, # of connection points: 2
#     Edge 27, Type (0, 0), BuildingBlock: EZIPEK_clean_linker_0, # of connection points: 2
#     Edge 28, Type (0, 0), BuildingBlock: EZIPEK_clean_linker_0, # of connection points: 2
#     Edge 29, Type (0, 0), BuildingBlock: EZIPEK_clean_linker_0, # of connection points: 2
#     Edge 30, Type (0, 0), BuildingBlock: EZIPEK_clean_linker_0, # of connection points: 2
#     Edge 31, Type (0, 0), BuildingBlock: EZIPEK_clean_linker_0, # of connection points: 2
# Relax obj value: 0.259
# Max RMSD: 0.303
# Mean RMSD: 0.301
data_MOF--net-sne--node1-KUMBUR_clean_sbu_1--edge1-EZIPEK_clean_linker_0
_symmetry_space_group_name_H-M    P1
_symmetry_Int_Tables_number       1
_symmetry_cell_setting            triclinic
loop_
_symmetry_equiv_pos_as_xyz
'x, y, z'
_cell_length_a     33.942593
_cell_length_b     34.2307
_cell_length_c     20.649427
_cell_angle_alpha  89.985804
_cell_angle_beta   90.065196
_cell_angle_gamma 90.664465
loop_
_atom_site_label
_atom_site_type_symbol
_atom_site_fract_x
_atom_site_fract_y
_atom_site_fract_z
_atom_type_partial_charge
Tb0 Tb 0.31255 0.18717 0.4507 0.0
C1 C 0.13747 0.14347 0.33918 0.0
N2 N 0.16173 0.17506 0.34658 0.0
C3 C 0.14046 0.19948 0.2431 0.0
C4 C 0.11525 0.13787 0.28195 0.0
C5 C 0.16115 0.20416 0.30079 0.0
C6 C 0.11767 0.16599 0.2332 0.0
C7 C 0.11121 0.08259 0.38183 0.0
C8 C 0.1356 0.11606 0.38832 0.0
C9 C 0.08964 0.07664 0.32459 0.0
C10 C 0.09165 0.10424 0.27476 0.0
Tb11 Tb 0.19743 0.17682 0.44215 0.0
N12 N 0.15694 0.12258 0.44302 0.0
C13 C 0.10876 0.05626 0.43343 0.0
C14 C 0.15269 0.09798 0.49486 0.0
C15 C 0.12919 0.0643 0.49052 0.0
H16 H 0.1765 0.23166 0.30816 0.0
H17 H 0.12645 0.04483 0.53162 0.0
H18 H 0.36824 0.15659 0.5729 0.0
H19 H 0.23581 0.32643 0.43225 0.0
H20 H 0.16619 0.10464 0.54056 0.0
H21 H 0.09039 0.03023 0.43028 0.0
H22 H 0.23933 0.25518 0.42462 0.0
H23 H 0.1423 0.22201 0.20675 0.0
H24 H 0.07101 0.05098 0.31864 0.0
H25 H 0.07469 0.0994 0.23094 0.0
H26 H 0.41674 0.18758 0.64703 0.0
H27 H 0.10151 0.16231 0.18844 0.0
H28 H 0.29029 0.36396 0.48342 0.0
N29 N 0.34863 0.21067 0.53469 0.0
C30 C 0.35144 0.25013 0.53653 0.0
C31 C 0.39871 0.20548 0.61589 0.0
C32 C 0.37964 0.26899 0.57579 0.0
C33 C 0.37103 0.18804 0.57447 0.0
C34 C 0.40364 0.24612 0.61557 0.0
N35 N 0.29635 0.25157 0.46658 0.0
C36 C 0.26363 0.27066 0.44563 0.0
C37 C 0.32363 0.31237 0.50711 0.0
C38 C 0.32421 0.27141 0.50143 0.0
C39 C 0.29207 0.33245 0.47978 0.0
C40 C 0.26131 0.31137 0.45079 0.0
H41 H 0.4254 0.25956 0.64718 0.0
H42 H 0.40473 0.32501 0.60296 0.0
H43 H 0.35456 0.36323 0.54511 0.0
O44 O 0.36535 0.21013 0.41215 0.0
O45 O 0.28776 0.19534 0.54795 0.0
O46 O 0.2215 0.2071 0.53068 0.0
O47 O 0.36306 0.15175 0.4492 0.0
O48 O 0.29628 0.21301 0.35819 0.0
O49 O 0.2292 0.20128 0.35459 0.0
O50 O 0.14242 0.1809 0.48903 0.0
O51 O 0.22546 0.12452 0.40127 0.0
O52 O 0.29053 0.14328 0.37867 0.0
O53 O 0.17126 0.23236 0.4508 0.0
O54 O 0.22451 0.13886 0.51719 0.0
O55 O 0.29132 0.13282 0.49515 0.0
C56 C 0.25341 0.20786 0.56835 0.0
C57 C 0.41514 0.16803 0.37592 0.0
C58 C 0.47946 0.1814 0.32753 0.0
C59 C 0.47546 0.14729 0.2903 0.0
C60 C 0.41144 0.13415 0.33812 0.0
C61 C 0.44158 0.12387 0.29557 0.0
C62 C 0.44917 0.19169 0.37026 0.0
C63 C 0.26252 0.21412 0.32742 0.0
C64 C 0.38523 0.17888 0.42385 0.0
C65 C 0.38224 0.30993 0.57501 0.0
C66 C 0.35379 0.33165 0.54176 0.0
C67 C 0.26007 0.11858 0.3734 0.0
C68 C 0.09999 0.23096 0.45214 0.0
C69 C 0.02759 0.23554 0.46245 0.0
C70 C 0.0257 0.24381 0.39579 0.0
C71 C 0.09668 0.24582 0.38913 0.0
C72 C 0.06518 0.2278 0.49005 0.0
C73 C 0.05994 0.25043 0.36025 0.0
C74 C 0.25887 0.12106 0.52482 0.0
C75 C 0.13911 0.21817 0.47776 0.0
H76 H 0.49849 0.13898 0.25692 0.0
H77 H 0.38549 0.11562 0.34166 0.0
H78 H 0.43871 0.09763 0.26663 0.0
H79 H 0.45227 0.21793 0.39935 0.0
H80 H 0.99753 0.24789 0.37215 0.0
H81 H 0.12239 0.25423 0.36207 0.0
H82 H 0.06737 0.21946 0.54054 0.0
H83 H 0.05801 0.25992 0.31035 0.0
Tb84 Tb 0.18765 0.80482 0.6741 0.0
C85 C 0.25751 0.65505 0.56989 0.0
N86 N 0.21778 0.65584 0.57604 0.0
C87 C 0.21027 0.60615 0.49554 0.0
C88 C 0.2754 0.62897 0.52679 0.0
C89 C 0.19384 0.63296 0.53835 0.0
C90 C 0.25122 0.6034 0.49127 0.0
C91 C 0.321 0.68415 0.59532 0.0
C92 C 0.27995 0.68183 0.60517 0.0
C93 C 0.33927 0.65728 0.55394 0.0
C94 C 0.31656 0.62941 0.52045 0.0
Tb95 Tb 0.19627 0.68959 0.66255 0.0
N96 N 0.26116 0.70705 0.64565 0.0
C97 C 0.34232 0.71396 0.6261 0.0
C98 C 0.28162 0.73778 0.67172 0.0
C99 C 0.3224 0.74133 0.66338 0.0
H100 H 0.16217 0.63439 0.54333 0.0
H101 H 0.3384 0.76545 0.68534 0.0
H102 H 0.23498 0.83621 0.80797 0.0
H103 H 0.06625 0.87533 0.55109 0.0
H104 H 0.2673 0.76 0.69828 0.0
H105 H 0.37389 0.71688 0.6196 0.0
H106 H 0.12925 0.84025 0.55695 0.0
H107 H 0.19145 0.58704 0.46708 0.0
H108 H 0.37088 0.65819 0.54673 0.0
H109 H 0.33107 0.60899 0.48871 0.0
H110 H 0.21861 0.87343 0.90574 0.0
H111 H 0.2638 0.58149 0.46044 0.0
H112 H 0.03779 0.90377 0.65049 0.0
N113 N 0.17815 0.8424 0.76481 0.0
C114 C 0.14338 0.86138 0.7679 0.0
C115 C 0.19694 0.86979 0.8677 0.0
C116 C 0.13293 0.88339 0.82285 0.0
C117 C 0.20591 0.84838 0.8121 0.0
C118 C 0.15988 0.88654 0.87388 0.0
N119 N 0.1336 0.84378 0.65932 0.0
C120 C 0.11584 0.85042 0.6009 0.0
C121 C 0.08518 0.88383 0.712 0.0
C122 C 0.12006 0.86186 0.7132 0.0
C123 C 0.06472 0.88719 0.65347 0.0
C124 C 0.08066 0.87115 0.59731 0.0
H125 H 0.15308 0.9033 0.91685 0.0
H126 H 0.08811 0.91977 0.86574 0.0
H127 H 0.04603 0.91993 0.76857 0.0
O128 O 0.19625 0.85973 0.63111 0.0
O129 O 0.14348 0.7762 0.73659 0.0
O130 O 0.14567 0.7084 0.71972 0.0
O131 O 0.24568 0.82786 0.66985 0.0
O132 O 0.14475 0.77722 0.60745 0.0
O133 O 0.14166 0.70882 0.61474 0.0
O134 O 0.22194 0.63915 0.70238 0.0
O135 O 0.20295 0.71519 0.56629 0.0
O136 O 0.21493 0.78119 0.58308 0.0
O137 O 0.16302 0.63706 0.66602 0.0
O138 O 0.21525 0.70875 0.75936 0.0
O139 O 0.21403 0.77665 0.76175 0.0
C140 C 0.12958 0.74019 0.74398 0.0
C141 C 0.24929 0.89862 0.6688 0.0
C142 C 0.25738 0.96982 0.65689 0.0
C143 C 0.27978 0.97043 0.71403 0.0
C144 C 0.27282 0.90022 0.72474 0.0
C145 C 0.28737 0.93594 0.74761 0.0
C146 C 0.24165 0.93379 0.63481 0.0
C147 C 0.12735 0.743 0.59603 0.0
C148 C 0.23379 0.86071 0.64365 0.0
C149 C 0.09692 0.90317 0.82361 0.0
C150 C 0.07299 0.90329 0.76827 0.0
C151 C 0.21547 0.74944 0.54582 0.0
C152 C 0.18191 0.58692 0.73941 0.0
C153 C 0.19344 0.52159 0.78336 0.0
C154 C 0.16544 0.52895 0.83179 0.0
C155 C 0.15408 0.59363 0.78809 0.0
C156 C 0.20115 0.55062 0.73657 0.0
C157 C 0.14582 0.56464 0.83389 0.0
C158 C 0.22055 0.74231 0.78962 0.0
C159 C 0.19154 0.61701 0.69083 0.0
H160 H 0.2923 0.99766 0.73176 0.0
H161 H 0.28041 0.87389 0.75063 0.0
H162 H 0.30529 0.93679 0.79099 0.0
H163 H 0.22457 0.93302 0.59043 0.0
H164 H 0.15879 0.50696 0.86805 0.0
H165 H 0.13879 0.62117 0.79055 0.0
H166 H 0.22248 0.54515 0.69869 0.0
H167 H 0.12424 0.5699 0.87135 0.0
Tb168 Tb 0.68718 0.80542 0.46063 0.0
C169 C 0.83942 0.8534 0.31062 0.0
N170 N 0.82419 0.81863 0.33085 0.0
C171 C 0.83495 0.7916 0.22536 0.0
C172 C 0.85029 0.85941 0.24565 0.0
C173 C 0.82562 0.787 0.29074 0.0
C174 C 0.84569 0.82847 0.20251 0.0
C175 C 0.85768 0.9203 0.33542 0.0
C176 C 0.84339 0.88329 0.35488 0.0
C177 C 0.86798 0.92668 0.27043 0.0
C178 C 0.86428 0.89623 0.22552 0.0
Tb179 Tb 0.8033 0.8166 0.43623 0.0
N180 N 0.83196 0.87632 0.41681 0.0
C181 C 0.86045 0.94994 0.38162 0.0
C182 C 0.83657 0.9046 0.46282 0.0
C183 C 0.84994 0.94197 0.44551 0.0
H184 H 0.81995 0.75801 0.30902 0.0
H185 H 0.85179 0.96486 0.48094 0.0
H186 H 0.68771 0.84764 0.60898 0.0
H187 H 0.65453 0.65762 0.38451 0.0
H188 H 0.83 0.89846 0.51271 0.0
H189 H 0.87076 0.97897 0.3686 0.0
H190 H 0.68992 0.72029 0.3764 0.0
H191 H 0.83375 0.76683 0.19282 0.0
H192 H 0.87871 0.955 0.25444 0.0
H193 H 0.87226 0.90142 0.17544 0.0
H194 H 0.64498 0.83958 0.70396 0.0
H195 H 0.85066 0.833 0.15195 0.0
H196 H 0.60866 0.64561 0.47558 0.0
N197 N 0.66817 0.79479 0.56393 0.0
C198 C 0.64434 0.76265 0.56814 0.0
C199 C 0.64456 0.81778 0.66601 0.0
C200 C 0.61753 0.75833 0.61941 0.0
C201 C 0.6695 0.82179 0.61257 0.0
C202 C 0.61761 0.78664 0.66845 0.0
N203 N 0.66937 0.74157 0.46702 0.0
C204 C 0.67273 0.71447 0.41894 0.0
C205 C 0.62205 0.70074 0.52251 0.0
C206 C 0.6456 0.73476 0.51891 0.0
C207 C 0.62594 0.67241 0.47416 0.0
C208 C 0.65187 0.67906 0.42271 0.0
H209 H 0.59744 0.78437 0.70894 0.0
H210 H 0.56975 0.72281 0.658 0.0
H211 H 0.57536 0.67133 0.5756 0.0
O212 O 0.63207 0.79298 0.41508 0.0
O213 O 0.72594 0.76392 0.51444 0.0
O214 O 0.78222 0.79857 0.53385 0.0
O215 O 0.63796 0.83874 0.48735 0.0
O216 O 0.7055 0.79007 0.36132 0.0
O217 O 0.76818 0.77106 0.38326 0.0
O218 O 0.86222 0.8224 0.4691 0.0
O219 O 0.76861 0.86582 0.39472 0.0
O220 O 0.70357 0.84508 0.38174 0.0
O221 O 0.83732 0.76595 0.44849 0.0
O222 O 0.7795 0.8459 0.52202 0.0
O223 O 0.71382 0.8599 0.50238 0.0
C224 C 0.75685 0.77117 0.55196 0.0
C225 C 0.57145 0.82669 0.44653 0.0
C226 C 0.50416 0.80889 0.41279 0.0
C227 C 0.48977 0.8401 0.44945 0.0
C228 C 0.55602 0.85779 0.48252 0.0
C229 C 0.51553 0.86427 0.48411 0.0
C230 C 0.54518 0.80183 0.41219 0.0
C231 C 0.73919 0.77588 0.34073 0.0
C232 C 0.61417 0.81833 0.45104 0.0
C233 C 0.59146 0.72608 0.61991 0.0
C234 C 0.5946 0.69675 0.57291 0.0
C235 C 0.732 0.87114 0.37412 0.0
C236 C 0.90751 0.77238 0.44078 0.0
C237 C 0.97769 0.75772 0.45666 0.0
C238 C 0.97974 0.7452 0.3921 0.0
C239 C 0.91067 0.75891 0.37685 0.0
C240 C 0.94143 0.77168 0.48091 0.0
C241 C 0.94649 0.74586 0.35259 0.0
C242 C 0.74862 0.86879 0.52819 0.0
C243 C 0.86884 0.78514 0.46697 0.0
H244 H 0.45856 0.84641 0.44973 0.0
H245 H 0.57523 0.87696 0.51028 0.0
H246 H 0.50408 0.88839 0.51195 0.0
H247 H 0.55647 0.77774 0.38395 0.0
H248 H 0.00716 0.73448 0.37247 0.0
H249 H 0.88543 0.75761 0.34571 0.0
H250 H 0.93955 0.78133 0.53079 0.0
H251 H 0.94833 0.73567 0.30307 0.0
Tb252 Tb 0.81299 0.30374 0.66859 0.0
C253 C 0.76249 0.15363 0.79868 0.0
N254 N 0.801 0.16155 0.78625 0.0
C255 C 0.82069 0.12896 0.8831 0.0
C256 C 0.75157 0.13316 0.85492 0.0
C257 C 0.83016 0.1492 0.82666 0.0
C258 C 0.7813 0.12064 0.89676 0.0
C259 C 0.69409 0.15604 0.76518 0.0
C260 C 0.73421 0.16522 0.75386 0.0
C261 C 0.683 0.13636 0.82203 0.0
C262 C 0.71167 0.12478 0.86651 0.0
Tb263 Tb 0.81349 0.18678 0.68783 0.0
N264 N 0.74609 0.18331 0.69801 0.0
C265 C 0.66632 0.16592 0.71824 0.0
C266 C 0.71919 0.18884 0.64959 0.0
C267 C 0.67902 0.18195 0.65987 0.0
H268 H 0.86075 0.15436 0.81452 0.0
H269 H 0.65804 0.1873 0.62145 0.0
H270 H 0.7664 0.31732 0.52744 0.0
H271 H 0.93367 0.38918 0.77038 0.0
H272 H 0.72783 0.19568 0.6013 0.0
H273 H 0.63526 0.15963 0.72536 0.0
H274 H 0.87518 0.3465 0.77497 0.0
H275 H 0.84373 0.11891 0.91511 0.0
H276 H 0.65236 0.1292 0.83143 0.0
H277 H 0.70266 0.10874 0.90903 0.0
H278 H 0.78257 0.34264 0.4195 0.0
H279 H 0.7744 0.10349 0.93858 0.0
H280 H 0.95868 0.41296 0.66498 0.0
N281 N 0.82278 0.32998 0.56769 0.0
C282 C 0.85617 0.35187 0.56041 0.0
C283 C 0.8039 0.34489 0.45832 0.0
C284 C 0.86548 0.36975 0.50063 0.0
C285 C 0.79549 0.32881 0.519 0.0
C286 C 0.83937 0.36495 0.44871 0.0
N287 N 0.8676 0.34397 0.67218 0.0
C288 C 0.88586 0.35593 0.72815 0.0
C289 C 0.9127 0.38387 0.60981 0.0
C290 C 0.87939 0.35898 0.61438 0.0
C291 C 0.93304 0.39383 0.66645 0.0
C292 C 0.91899 0.38053 0.72601 0.0
H293 H 0.84555 0.37797 0.40193 0.0
H294 H 0.90794 0.40584 0.44917 0.0
H295 H 0.94935 0.41825 0.54491 0.0
O296 O 0.80326 0.34879 0.73702 0.0
O297 O 0.86143 0.27434 0.61447 0.0
O298 O 0.85938 0.20569 0.62055 0.0
O299 O 0.76967 0.34556 0.64927 0.0
O300 O 0.85501 0.2819 0.74116 0.0
O301 O 0.86676 0.21458 0.73187 0.0
O302 O 0.79311 0.13182 0.65324 0.0
O303 O 0.80333 0.22175 0.77661 0.0
O304 O 0.77137 0.27509 0.73787 0.0
O305 O 0.85097 0.13837 0.69393 0.0
O306 O 0.79748 0.20784 0.58957 0.0
O307 O 0.77213 0.26807 0.60948 0.0
C308 C 0.8757 0.23893 0.60145 0.0
C309 C 0.7865 0.40914 0.68704 0.0
C310 C 0.78844 0.47712 0.7239 0.0
C311 C 0.7991 0.48909 0.66137 0.0
C312 C 0.79602 0.42231 0.62433 0.0
C313 C 0.80293 0.46179 0.61198 0.0
C314 C 0.78271 0.43695 0.73711 0.0
C315 C 0.87694 0.25064 0.75033 0.0
C316 C 0.77882 0.36691 0.69931 0.0
C317 C 0.89996 0.3925 0.49498 0.0
C318 C 0.92356 0.39951 0.54947 0.0
C319 C 0.78015 0.2516 0.78638 0.0
C320 C 0.83777 0.07893 0.63566 0.0
C321 C 0.82477 0.01064 0.60476 0.0
C322 C 0.8651 0.00662 0.59135 0.0
C323 C 0.87745 0.07449 0.61848 0.0
C324 C 0.81137 0.04695 0.62796 0.0
C325 C 0.89095 0.03848 0.59665 0.0
C326 C 0.78116 0.24022 0.56791 0.0
C327 C 0.82482 0.11404 0.67114 0.0
H328 H 0.80345 0.51981 0.65048 0.0
H329 H 0.79738 0.40238 0.5841 0.0
H330 H 0.81038 0.47136 0.56351 0.0
H331 H 0.77419 0.42765 0.78532 0.0
H332 H 0.87684 0.97859 0.57754 0.0
H333 H 0.89841 0.09834 0.62438 0.0
H334 H 0.78075 0.04985 0.64188 0.0
H335 H 0.92184 0.03497 0.5854 0.0
Tb336 Tb 0.1895 0.31239 0.95047 0.0
C337 C 0.35822 0.36535 0.83792 0.0
N338 N 0.33471 0.33302 0.83732 0.0
C339 C 0.34349 0.32698 0.72286 0.0
C340 C 0.37413 0.38076 0.78022 0.0
C341 C 0.32938 0.31242 0.78148 0.0
C342 C 0.36571 0.36158 0.72194 0.0
C343 C 0.38928 0.41735 0.89943 0.0
C344 C 0.36544 0.38339 0.89657 0.0
C345 C 0.40524 0.433 0.84212 0.0
C346 C 0.39755 0.41481 0.78257 0.0
Tb347 Tb 0.3091 0.31377 0.93442 0.0
N348 N 0.34804 0.36831 0.9505 0.0
C349 C 0.39602 0.43477 0.95968 0.0
C350 C 0.35547 0.38476 1.00977 0.0
C351 C 0.37944 0.41809 1.01507 0.0
H352 H 0.31444 0.28476 0.78175 0.0
H353 H 0.38551 0.43062 0.06199 0.0
H354 H 0.17311 0.36483 0.08409 0.0
H355 H 0.17003 0.15794 0.89933 0.0
H356 H 0.3438 0.37174 1.05342 0.0
H357 H 0.4143 0.4608 0.96405 0.0
H358 H 0.20209 0.22143 0.88528 0.0
H359 H 0.33695 0.31126 0.67884 0.0
H360 H 0.42343 0.45921 0.84332 0.0
H361 H 0.40993 0.4272 0.73869 0.0
H362 H 0.12938 0.3578 0.179 0.0
H363 H 0.37662 0.373 0.67641 0.0
H364 H 0.11966 0.14854 0.98443 0.0
N365 N 0.16018 0.3078 1.04822 0.0
C366 C 0.13952 0.27393 1.05623 0.0
C367 C 0.132 0.33403 0.14479 0.0
C368 C 0.11252 0.26959 0.10738 0.0
C369 C 0.15724 0.3377 0.09157 0.0
C370 C 0.10901 0.30013 0.15211 0.0
N371 N 0.17311 0.24828 0.96492 0.0
C372 C 0.18173 0.21809 0.9243 0.0
C373 C 0.12568 0.20753 1.02111 0.0
C374 C 0.14615 0.24324 1.0133 0.0
C375 C 0.13457 0.17655 0.9797 0.0
C376 C 0.16307 0.18173 0.93173 0.0
H377 H 0.08886 0.29773 0.1926 0.0
H378 H 0.06849 0.2314 0.15047 0.0
H379 H 0.0802 0.177 0.07524 0.0
O380 O 0.13929 0.29802 0.89367 0.0
O381 O 0.21988 0.28578 1.03551 0.0
O382 O 0.28806 0.28496 1.02367 0.0
O383 O 0.1404 0.34915 0.95315 0.0
O384 O 0.21373 0.2931 0.85679 0.0
O385 O 0.27495 0.26926 0.87834 0.0
O386 O 0.36467 0.30644 0.97847 0.0
O387 O 0.27976 0.35449 0.86633 0.0
O388 O 0.21323 0.36115 0.89409 0.0
O389 O 0.34033 0.26175 0.9173 0.0
O390 O 0.28093 0.34791 1.01313 0.0
O391 O 0.21694 0.36605 0.98873 0.0
C392 C 0.25564 0.27729 1.05684 0.0
C393 C 0.07783 0.31779 0.93919 0.0
C394 C 0.01036 0.29484 0.91538 0.0
C395 C 0.99793 0.31064 0.97459 0.0
C396 C 0.06412 0.33331 0.99796 0.0
C397 C 0.02474 0.32907 1.01591 0.0
C398 C 0.05086 0.29738 0.89891 0.0
C399 C 0.24461 0.27315 0.83834 0.0
C400 C 0.11874 0.32657 0.9168 0.0
C401 C 0.09014 0.23497 0.11235 0.0
C402 C 0.09694 0.20393 0.06967 0.0
C403 C 0.24534 0.37218 0.86283 0.0
C404 C 0.41094 0.26666 0.92472 0.0
C405 C 0.48196 0.25678 0.94247 0.0
C406 C 0.48638 0.2506 0.87562 0.0
C407 C 0.4166 0.26079 0.85811 0.0
C408 C 0.44395 0.26501 0.9668 0.0
C409 C 0.45407 0.25289 0.83392 0.0
C410 C 0.25222 0.37386 1.01273 0.0
C411 C 0.37084 0.27297 0.9514 0.0
H412 H 0.96713 0.30945 0.98825 0.0
H413 H 0.08351 0.34973 1.02963 0.0
H414 H 0.01466 0.34138 0.06115 0.0
H415 H 0.06076 0.28574 0.85297 0.0
H416 H 0.51507 0.24407 0.85566 0.0
H417 H 0.39205 0.26185 0.82471 0.0
H418 H 0.44003 0.26955 1.01833 0.0
H419 H 0.45803 0.2482 0.78251 0.0
Tb420 Tb 0.31575 0.80893 0.156 0.0
C421 C 0.28388 0.62732 0.27404 0.0
N422 N 0.31825 0.64729 0.26572 0.0
C423 C 0.34912 0.60949 0.34843 0.0
C424 C 0.28097 0.59687 0.31959 0.0
C425 C 0.35055 0.63951 0.30268 0.0
C426 C 0.31446 0.58753 0.35593 0.0
C427 C 0.21536 0.61735 0.24393 0.0
C428 C 0.25169 0.637 0.23561 0.0
C429 C 0.21225 0.58701 0.28952 0.0
C430 C 0.2451 0.5764 0.32646 0.0
Tb431 Tb 0.31989 0.68451 0.17573 0.0
N432 N 0.25616 0.66546 0.18997 0.0
C433 C 0.18342 0.62833 0.20539 0.0
C434 C 0.22533 0.67566 0.15136 0.0
C435 C 0.18841 0.65775 0.15917 0.0
H436 H 0.37805 0.65495 0.2945 0.0
H437 H 0.16398 0.66616 0.12867 0.0
H438 H 0.26935 0.81577 1.01498 0.0
H439 H 0.43686 0.89531 0.25365 0.0
H440 H 0.22874 0.69713 0.11416 0.0
H441 H 0.15493 0.61407 0.21053 0.0
H442 H 0.37981 0.85046 0.25973 0.0
H443 H 0.37501 0.60261 0.37667 0.0
H444 H 0.18467 0.57125 0.29604 0.0
H445 H 0.24234 0.55241 0.36042 0.0
H446 H 0.28343 0.84115 0.90571 0.0
H447 H 0.31395 0.56348 0.39 0.0
H448 H 0.4569 0.92381 0.14847 0.0
N449 N 0.32359 0.83518 1.05487 0.0
C450 C 0.35478 0.86004 1.04705 0.0
C451 C 0.30414 0.84618 0.94474 0.0
C452 C 0.36298 0.87743 0.98662 0.0
C453 C 0.29696 0.83028 1.00604 0.0
C454 C 0.33764 0.86942 0.93467 0.0
N455 N 0.36857 0.8515 0.158 0.0
C456 C 0.38852 0.862 0.2131 0.0
C457 C 0.41021 0.89467 0.09498 0.0
C458 C 0.37805 0.86847 0.10046 0.0
C459 C 0.43195 0.90382 0.15064 0.0
C460 C 0.42074 0.88779 0.21007 0.0
H461 H 0.34291 0.88208 0.88733 0.0
H462 H 0.4026 0.91615 0.93426 0.0
H463 H 0.44396 0.93132 1.02922 0.0
O464 O 0.30565 0.85536 0.22081 0.0
O465 O 0.36433 0.78757 0.09484 0.0
O466 O 0.35473 0.72611 0.1243 0.0
O467 O 0.26697 0.84561 0.14039 0.0
O468 O 0.35865 0.78553 0.2257 0.0
O469 O 0.36708 0.71672 0.23031 0.0
O470 O 0.31217 0.63572 0.11342 0.0
O471 O 0.28894 0.71273 0.25674 0.0
O472 O 0.29037 0.7812 0.24481 0.0
O473 O 0.36512 0.64371 0.16847 0.0
O474 O 0.29826 0.70701 0.08189 0.0
O475 O 0.27432 0.76805 0.10513 0.0
C476 C 0.37608 0.75138 0.09289 0.0
C477 C 0.2795 0.91192 0.17263 0.0
C478 C 0.27982 0.98028 0.20892 0.0
C479 C 0.28663 0.99223 0.14489 0.0
C480 C 0.2855 0.925 0.10885 0.0
C481 C 0.28943 0.96477 0.09534 0.0
C482 C 0.27661 0.93992 0.22288 0.0
C483 C 0.37689 0.75363 0.24575 0.0
C484 C 0.27686 0.86941 0.18719 0.0
C485 C 0.39566 0.90267 0.9804 0.0
C486 C 0.4192 0.91131 1.03449 0.0
C487 C 0.28199 0.74862 0.27769 0.0
C488 C 0.34831 0.57786 0.14192 0.0
C489 C 0.32514 0.50996 0.12503 0.0
C490 C 0.36174 0.49702 0.1482 0.0
C491 C 0.38432 0.56337 0.16468 0.0
C492 C 0.31813 0.55086 0.1239 0.0
C493 C 0.39072 0.52338 0.16843 0.0
C494 C 0.2823 0.74011 0.0623 0.0
C495 C 0.34577 0.62068 0.12964 0.0
H496 H 0.28901 0.02302 0.13314 0.0
H497 H 0.28697 0.90463 0.06908 0.0
H498 H 0.29421 0.97438 1.046 0.0
H499 H 0.27137 0.93046 0.27225 0.0
H500 H 0.36796 0.46616 0.15112 0.0
H501 H 0.40816 0.58307 0.17817 0.0
H502 H 0.29007 0.56152 0.10674 0.0
H503 H 0.4187 0.51273 0.18585 0.0
Tb504 Tb 0.81259 0.68782 0.95253 0.0
C505 C 0.63892 0.6359 0.84987 0.0
N506 N 0.66045 0.66936 0.85632 0.0
C507 C 0.63123 0.69449 0.76003 0.0
C508 C 0.61511 0.6292 0.79489 0.0
C509 C 0.65382 0.69989 0.81536 0.0
C510 C 0.61238 0.65876 0.74856 0.0
C511 C 0.618 0.5737 0.89459 0.0
C512 C 0.64023 0.60866 0.89914 0.0
C513 C 0.59585 0.56594 0.83844 0.0
C514 C 0.5943 0.59373 0.78873 0.0
Tb515 Tb 0.69835 0.67449 0.94732 0.0
N516 N 0.6613 0.61773 0.95325 0.0
C517 C 0.61761 0.54822 0.94747 0.0
C518 C 0.65804 0.59442 1.00681 0.0
C519 C 0.63713 0.55901 1.00428 0.0
H520 H 0.66657 0.72847 0.82452 0.0
H521 H 0.63541 0.54046 1.04667 0.0
H522 H 0.86592 0.65757 0.07874 0.0
H523 H 0.74321 0.82986 0.924 0.0
H524 H 0.67014 0.6034 1.05237 0.0
H525 H 0.60097 0.52103 0.94591 0.0
H526 H 0.74184 0.75787 0.92398 0.0
H527 H 0.6286 0.7183 0.72721 0.0
H528 H 0.5789 0.53907 0.83382 0.0
H529 H 0.57625 0.58789 0.74643 0.0
H530 H 0.9179 0.68808 0.14708 0.0
H531 H 0.59464 0.65482 0.7054 0.0
H532 H 0.80148 0.86564 0.96715 0.0
N533 N 0.84959 0.71127 1.03523 0.0
C534 C 0.85517 0.75042 1.0324 0.0
C535 C 0.90063 0.70589 0.11464 0.0
C536 C 0.88588 0.76872 0.06689 0.0
C537 C 0.8709 0.68878 0.07677 0.0
C538 C 0.90887 0.74591 0.10843 0.0
N539 N 0.79901 0.75275 0.96501 0.0
C540 C 0.76734 0.77289 0.94269 0.0
C541 C 0.83159 0.81299 0.99576 0.0
C542 C 0.82878 0.77203 0.99616 0.0
C543 C 0.80082 0.83399 0.96779 0.0
C544 C 0.76791 0.81386 0.94327 0.0
H545 H 0.93244 0.75897 0.13676 0.0
H546 H 0.91632 0.82375 0.08364 0.0
H547 H 0.86801 0.86284 1.02305 0.0
O548 O 0.864 0.71052 0.90837 0.0
O549 O 0.78751 0.70008 1.04941 0.0
O550 O 0.71989 0.70627 1.03572 0.0
O551 O 0.8644 0.65413 0.9527 0.0
O552 O 0.79393 0.71168 0.85886 0.0
O553 O 0.7268 0.6995 0.85661 0.0
O554 O 0.63972 0.67676 0.9803 0.0
O555 O 0.72771 0.62288 0.90695 0.0
O556 O 0.79154 0.64336 0.88137 0.0
O557 O 0.67235 0.72994 0.95575 0.0
O558 O 0.72616 0.64023 1.02602 0.0
O559 O 0.79235 0.63378 1.00007 0.0
C560 C 0.7525 0.71036 0.07107 0.0
C561 C 0.9152 0.66871 0.87599 0.0
C562 C 0.98035 0.67904 0.82782 0.0
C563 C 0.97417 0.6458 0.7892 0.0
C564 C 0.9094 0.63592 0.83634 0.0
C565 C 0.9389 0.62444 0.79346 0.0
C566 C 0.95073 0.69037 0.8714 0.0
C567 C 0.75987 0.71244 0.82843 0.0
C568 C 0.88532 0.68078 0.92345 0.0
C569 C 0.89207 0.80909 0.05918 0.0
C570 C 0.86452 0.83136 1.0246 0.0
C571 C 0.76212 0.6175 0.87848 0.0
C572 C 0.61036 0.73683 1.01298 0.0
C573 C 0.5421 0.75154 1.0426 0.0
C574 C 0.55605 0.7818 0.08261 0.0
C575 C 0.62344 0.76739 1.05296 0.0
C576 C 0.56944 0.72897 1.00787 0.0
C577 C 0.59643 0.78962 0.08769 0.0
C578 C 0.76059 0.62243 1.03225 0.0
C579 C 0.63819 0.71449 0.97263 0.0
H580 H 0.9965 0.63672 0.75509 0.0
H581 H 0.88218 0.61927 0.83842 0.0
H582 H 0.93432 0.59901 0.76312 0.0
H583 H 0.9553 0.71604 0.90137 0.0
H584 H 0.53561 0.79918 0.11035 0.0
H585 H 0.65444 0.77431 1.05685 0.0
H586 H 0.55886 0.70549 0.97695 0.0
H587 H 0.60685 0.81309 0.11862 0.0
Tb588 Tb 0.68707 0.30661 0.17904 0.0
C589 C 0.75006 0.13935 0.10155 0.0
N590 N 0.7109 0.14591 0.09929 0.0
C591 C 0.70061 0.08911 1.03435 0.0
C592 C 0.76622 0.10648 0.07142 0.0
C593 C 0.68639 0.12329 0.06258 0.0
C594 C 0.74048 0.07993 1.04084 0.0
C595 C 0.81512 0.1643 0.12718 0.0
C596 C 0.7739 0.167 0.13172 0.0
C597 C 0.83176 0.13117 0.09813 0.0
C598 C 0.80731 0.10196 0.0713 0.0
Tb599 Tb 0.68999 0.18884 0.17359 0.0
N600 N 0.75645 0.19804 0.16067 0.0
C601 C 0.83814 0.1956 0.14987 0.0
C602 C 0.77852 0.22994 0.17765 0.0
C603 C 0.8197 0.22897 0.17363 0.0
H604 H 0.65542 0.13012 0.05929 0.0
H605 H 0.83715 0.25406 0.18853 0.0
H606 H 0.73553 0.33848 0.31128 0.0
H607 H 0.56657 0.37759 1.05431 0.0
H608 H 0.76489 0.25622 0.19354 0.0
H609 H 0.86998 0.19494 0.14682 0.0
H610 H 0.62853 0.34094 0.06112 0.0
H611 H 0.68081 0.06974 1.00824 0.0
H612 H 0.86344 0.12823 0.09502 0.0
H613 H 0.82048 0.07688 1.04822 0.0
H614 H 0.72084 0.37816 0.40706 0.0
H615 H 0.7515 0.0536 1.01849 0.0
H616 H 0.5397 0.40902 0.15245 0.0
N617 N 0.67879 0.34572 0.26828 0.0
C618 C 0.64473 0.36599 0.27062 0.0
C619 C 0.69889 0.37446 0.36947 0.0
C620 C 0.63522 0.38933 0.32451 0.0
C621 C 0.70689 0.35162 0.31501 0.0
C622 C 0.66247 0.39256 0.37509 0.0
N623 N 0.6339 0.34664 0.1631 0.0
C624 C 0.61585 0.35247 0.10467 0.0
C625 C 0.58695 0.38909 0.21426 0.0
C626 C 0.62121 0.36618 0.21616 0.0
C627 C 0.56619 0.39179 0.15592 0.0
C628 C 0.58123 0.37408 0.10048 0.0
H629 H 0.65642 0.41036 0.41722 0.0
H630 H 0.59176 0.42787 0.36598 0.0
H631 H 0.5492 0.42739 0.26938 0.0
O632 O 0.69682 0.36078 0.13378 0.0
O633 O 0.64275 0.28157 0.24466 0.0
O634 O 0.64051 0.2144 0.22409 0.0
O635 O 0.7456 0.32802 0.17219 0.0
O636 O 0.64304 0.27871 0.11398 0.0
O637 O 0.64018 0.21001 0.11571 0.0
O638 O 0.70553 0.13846 0.22818 0.0
O639 O 0.70533 0.21169 0.07688 0.0
O640 O 0.71092 0.27948 0.08867 0.0
O641 O 0.64883 0.14302 0.18404 0.0
O642 O 0.71036 0.21074 0.26772 0.0
O643 O 0.7158 0.27861 0.26506 0.0
C644 C 0.62649 0.24651 0.24958 0.0
C645 C 0.75084 0.39869 0.17105 0.0
C646 C 0.75985 0.46999 0.16084 0.0
C647 C 0.78339 0.4696 0.21672 0.0
C648 C 0.77543 0.3994 0.22582 0.0
C649 C 0.79101 0.43464 0.24889 0.0
C650 C 0.7431 0.43439 0.13853 0.0
C651 C 0.62661 0.24461 0.09802 0.0
C652 C 0.73439 0.36107 0.14589 0.0
C653 C 0.59986 0.41022 0.32463 0.0
C654 C 0.57565 0.40998 0.26961 0.0
C655 C 0.71502 0.24674 1.05453 0.0
C656 C 0.67183 0.07805 0.20169 0.0
C657 C 0.68963 0.01034 0.22791 0.0
C658 C 0.66479 0.99714 0.17806 0.0
C659 C 0.64523 0.06324 0.15509 0.0
C660 C 0.69406 0.05111 0.23855 0.0
C661 C 0.64281 0.0234 0.14201 0.0
C662 C 0.71956 0.2444 0.29494 0.0
C663 C 0.67215 0.12073 0.21717 0.0
H664 H 0.79666 0.49644 0.23466 0.0
H665 H 0.783 0.37271 0.25072 0.0
H666 H 0.80973 0.43477 0.29137 0.0
H667 H 0.72509 0.43438 0.09516 0.0
H668 H 0.66097 0.96613 0.16907 0.0
H669 H 0.62587 0.08238 0.12858 0.0
H670 H 0.7128 0.06149 0.27758 0.0
H671 H 0.6227 0.01269 0.10518 0.0
C672 C 0.29994 0.05825 0.33878 0.0
C673 C 0.26513 0.08136 0.33366 0.0
C674 C 0.23731 0.03117 0.25992 0.0
C675 C 0.27351 0.01113 0.25909 0.0
N676 N 0.34146 0.0084 0.29144 0.0
N677 N 0.20216 0.08967 0.28026 0.0
C678 C 0.30538 0.02541 0.29696 0.0
C679 C 0.23428 0.06747 0.29223 0.0
N680 N 0.32706 0.06597 0.38591 0.0
N681 N 0.20514 0.01718 0.22744 0.0
H682 H 0.20092 0.11849 0.29461 0.0
H683 H 0.17885 0.08053 0.25071 0.0
H684 H 0.20424 0.99057 0.20276 0.0
H685 H 0.20424 0.99057 0.20276 0.0
H686 H 0.35027 0.04747 0.39693 0.0
H687 H 0.32442 0.08879 0.41836 0.0
H688 H 0.36718 0.02062 0.31068 0.0
H689 H 0.34614 0.98341 0.26369 0.0
C690 C 0.05565 0.74941 0.75362 0.0
C691 C 0.09127 0.73369 0.77892 0.0
C692 C 0.05209 0.69174 0.85242 0.0
C693 C 0.01734 0.70262 0.81919 0.0
N694 N 0.98488 0.74199 0.73933 0.0
N695 N 0.12369 0.69231 0.85634 0.0
C696 C 0.01871 0.73226 0.77133 0.0
C697 C 0.08946 0.70591 0.8302 0.0
N698 N 0.0569 0.77961 0.71051 0.0
N699 N 0.04909 0.66786 0.90529 0.0
H700 H 0.15123 0.70389 0.8443 0.0
H701 H 0.12524 0.66891 0.88833 0.0
H702 H 0.02208 0.65712 0.92211 0.0
H703 H 0.07255 0.66101 0.93552 0.0
H704 H 0.03243 0.79585 0.69732 0.0
H705 H 0.08271 0.78995 0.68978 0.0
H706 H 0.98422 0.75877 0.69732 0.0
H707 H 0.95713 0.73142 0.75283 0.0
C708 C 0.74311 0.91874 0.28076 0.0
C709 C 0.72209 0.90824 0.3378 0.0
C710 C 0.68407 0.96927 0.32792 0.0
C711 C 0.70599 0.97997 0.27236 0.0
N712 N 0.76087 0.96868 0.20197 0.0
N713 N 0.66257 0.91843 0.40022 0.0
C714 C 0.73697 0.95583 0.25087 0.0
C715 C 0.68995 0.93219 0.35742 0.0
N716 N 0.76474 0.89112 0.24992 0.0
N717 N 0.65767 0.99492 0.35345 0.0
H718 H 0.66547 0.89267 0.42561 0.0
H719 H 0.63537 0.93144 0.40777 0.0
H720 H 0.65138 0.02179 0.33238 0.0
H721 H 0.64473 0.99126 0.3988 0.0
H722 H 0.77654 0.89494 0.2038 0.0
H723 H 0.76634 0.86251 0.26673 0.0
H724 H 0.78659 0.95454 0.1884 0.0
H725 H 0.75688 0.99563 0.17934 0.0
C726 C 0.95243 0.24968 0.89027 0.0
C727 C 0.97965 0.27904 0.86952 0.0
C728 C 0.94516 0.28146 0.76552 0.0
C729 C 0.91415 0.25686 0.78945 0.0
N730 N 0.8859 0.22404 0.88215 0.0
N731 N 0.99809 0.32653 0.78757 0.0
C732 C 0.91731 0.24239 0.8538 0.0
C733 C 0.975 0.29575 0.80729 0.0
N734 N 0.96044 0.22819 0.94434 0.0
N735 N 0.9471 0.29287 0.7028 0.0
H736 H 0.01754 0.34151 0.81794 0.0
H737 H 0.99568 0.33901 0.74162 0.0
H738 H 0.92699 0.28422 0.6677 0.0
H739 H 0.92699 0.28422 0.6677 0.0
H740 H 0.94346 0.20411 0.95848 0.0
H741 H 0.98639 0.23187 0.9709 0.0
H742 H 0.88511 0.21652 0.93104 0.0
H743 H 0.85907 0.22031 0.85861 0.0
C744 C 0.27862 0.48043 1.03919 0.0
C745 C 0.29573 0.47936 0.10214 0.0
C746 C 0.27143 0.41145 0.11445 0.0
C747 C 0.2583 0.41168 1.04936 0.0
N748 N 0.2279 0.45318 0.9696 0.0
N749 N 0.29359 0.44938 0.20767 0.0
C750 C 0.25474 0.44835 1.01798 0.0
C751 C 0.28738 0.44645 0.14245 0.0
N752 N 0.28688 0.51043 0.99761 0.0
N753 N 0.26707 0.37813 0.14996 0.0
H754 H 0.30289 0.47542 0.22943 0.0
H755 H 0.28604 0.42768 0.24082 0.0
H756 H 0.25097 0.35415 0.13265 0.0
H757 H 0.27926 0.37418 0.19571 0.0
H758 H 0.27593 0.51152 0.95056 0.0
H759 H 0.30746 0.53239 1.00733 0.0
H760 H 0.22158 0.48046 0.94996 0.0
H761 H 0.20874 0.43105 0.95463 0.0
C762 C 0.48282 0.7164 0.08705 0.0
C763 C 0.49882 0.74281 1.04131 0.0
C764 C 0.4317 0.76395 1.0132 0.0
C765 C 0.41607 0.74162 0.06526 0.0
N766 N 0.42721 0.69154 0.14435 0.0
N767 N 0.48711 0.78806 0.95335 0.0
C768 C 0.44156 0.71549 0.09805 0.0
C769 C 0.47301 0.765 1.0019 0.0
N770 N 0.50716 0.69342 0.12319 0.0
N771 N 0.40714 0.78449 0.97383 0.0
H772 H 0.51689 0.79016 0.94106 0.0
H773 H 0.51689 0.79016 0.94106 0.0
H774 H 0.37654 0.78245 0.97727 0.0
H775 H 0.41751 0.80195 0.93591 0.0
H776 H 0.49696 0.6748 0.15965 0.0
H777 H 0.53761 0.69287 0.11662 0.0
H778 H 0.43266 0.66176 0.13881 0.0
H779 H 0.43244 0.69983 0.19223 0.0
C780 C 0.73113 0.53781 0.14849 0.0
C781 C 0.75616 0.50795 0.12482 0.0
C782 C 0.79187 0.55673 0.06053 0.0
C783 C 0.7629 0.58547 0.07365 0.0
N784 N 0.71414 0.60689 0.1503 0.0
N785 N 0.80576 0.4882 1.04853 0.0
C786 C 0.7347 0.57693 0.12325 0.0
C787 C 0.78453 0.51714 0.07703 0.0
N788 N 0.7039 0.52837 0.19486 0.0
N789 N 0.82901 0.56744 1.04202 0.0
H790 H 0.80212 0.45874 0.06023 0.0
H791 H 0.82413 0.49344 1.0089 0.0
H792 H 0.83932 0.59611 1.04457 0.0
H793 H 0.85166 0.54744 1.03606 0.0
H794 H 0.68336 0.5475 0.21375 0.0
H795 H 0.7006 0.50006 0.21296 0.0
H796 H 0.69351 0.60382 0.18709 0.0
H797 H 0.71948 0.63605 0.13864 0.0
C798 C 0.58724 0.27217 1.00389 0.0
C799 C 0.58955 0.24587 1.05719 0.0
C800 C 0.52136 0.22406 1.03211 0.0
C801 C 0.51772 0.25434 0.98554 0.0
N802 N 0.54539 0.31283 0.93804 0.0
N803 N 0.55447 0.20058 0.12782 0.0
C804 C 0.55014 0.28006 0.97484 0.0
C805 C 0.55543 0.22277 0.07287 0.0
N806 N 0.62071 0.28821 0.9781 0.0
N807 N 0.49307 0.19541 1.0359 0.0
H808 H 0.57785 0.19846 0.15994 0.0
H809 H 0.52887 0.18714 0.14509 0.0
H810 H 0.46796 0.19495 1.0068 0.0
H811 H 0.49634 0.17016 0.06348 0.0
H812 H 0.62094 0.30387 0.93479 0.0
H813 H 0.64867 0.28319 0.99677 0.0
H814 H 0.56705 0.33455 0.93407 0.0
H815 H 0.51845 0.32029 0.91732 0.0
C816 C 0.73787 0.56218 0.80355 0.0
C817 C 0.76854 0.57938 0.842 0.0
C818 C 0.81184 0.52528 0.80793 0.0
C819 C 0.78042 0.50798 0.77277 0.0
N820 N 0.7114 0.50864 0.74308 0.0
N821 N 0.83192 0.569 0.89324 0.0
C822 C 0.74291 0.52541 0.77373 0.0
C823 C 0.80482 0.55865 0.8475 0.0
N824 N 0.70392 0.58156 0.79186 0.0
N825 N 0.84891 0.51049 0.80215 0.0
H826 H 0.82809 0.59213 0.92461 0.0
H827 H 0.85643 0.55227 0.90449 0.0
H828 H 0.85479 0.48487 0.77672 0.0
H829 H 0.87408 0.52503 0.8189 0.0
H830 H 0.6807 0.56998 0.76449 0.0
H831 H 0.70067 0.61036 0.8046 0.0
H832 H 0.71203 0.48163 0.71968 0.0
H833 H 0.71203 0.48163 0.71968 0.0
C834 C 0.58653 0.21386 0.3366 0.0
C835 C 0.58831 0.24092 0.28436 0.0
C836 C 0.51645 0.23532 0.27058 0.0
C837 C 0.51529 0.20654 0.31991 0.0
N838 N 0.54613 0.17585 0.41127 0.0
N839 N 0.55421 0.2839 0.21121 0.0
C840 C 0.54939 0.19846 0.35692 0.0
C841 C 0.55288 0.25426 0.25535 0.0
N842 N 0.62069 0.20144 0.36453 0.0
N843 N 0.4831 0.24268 0.23556 0.0
H844 H 0.58044 0.29628 0.1953 0.0
H845 H 0.52945 0.29795 0.19331 0.0
H846 H 0.45565 0.2306 0.2472 0.0
H847 H 0.48272 0.25907 0.19313 0.0
H848 H 0.62228 0.17824 0.39695 0.0
H849 H 0.64809 0.21351 0.35298 0.0
H850 H 0.56899 0.17167 0.44408 0.0
H851 H 0.51935 0.16379 0.4266 0.0
C852 C 0.25198 0.47981 0.81064 0.0
C853 C 0.21389 0.48302 0.783 0.0
C854 C 0.2082 0.41147 0.78099 0.0
C855 C 0.24095 0.40885 0.8234 0.0
N856 N 0.29444 0.44138 0.87906 0.0
N857 N 0.15704 0.45197 0.73491 0.0
C858 C 0.26399 0.44305 0.83621 0.0
C859 C 0.19266 0.44875 0.76516 0.0
N860 N 0.27554 0.51228 0.81592 0.0
N861 N 0.19244 0.37804 0.75542 0.0
H862 H 0.14614 0.47875 0.7192 0.0
H863 H 0.13779 0.42849 0.72757 0.0
H864 H 0.20481 0.35088 0.76467 0.0
H865 H 0.17044 0.37753 0.72025 0.0
H866 H 0.30498 0.51146 0.82994 0.0
H867 H 0.2667 0.53988 0.80088 0.0
H868 H 0.31261 0.46485 0.89145 0.0
H869 H 0.29841 0.41736 0.90868 0.0
C870 C 0.44659 0.76213 0.39361 0.0
C871 C 0.47612 0.78787 0.36862 0.0
C872 C 0.44521 0.78444 0.26207 0.0
C873 C 0.41308 0.76141 0.287 0.0
N874 N 0.38246 0.73039 0.37919 0.0
N875 N 0.50384 0.82317 0.27782 0.0
C876 C 0.41394 0.75023 0.35346 0.0
C877 C 0.47574 0.79825 0.30259 0.0
N878 N 0.45023 0.7488 0.45567 0.0
N879 N 0.44743 0.79551 0.1993 0.0
H880 H 0.52634 0.83591 0.30519 0.0
H881 H 0.50444 0.83186 0.22936 0.0
H882 H 0.42604 0.78936 0.16507 0.0
H883 H 0.42604 0.78936 0.16507 0.0
H884 H 0.43205 0.72747 0.47608 0.0
H885 H 0.47376 0.75705 0.48545 0.0
H886 H 0.37881 0.72492 0.42838 0.0
H887 H 0.3583 0.72135 0.35161 0.0
C888 C 0.76758 0.97602 0.54834 0.0
C889 C 0.79747 0.97606 0.59663 0.0
C890 C 0.7825 0.9066 0.61844 0.0
C891 C 0.75533 0.90616 0.56607 0.0
N892 N 0.70673 0.94532 0.51376 0.0
N893 N 0.8253 0.94456 0.69014 0.0
C894 C 0.74314 0.94233 0.54048 0.0
C895 C 0.80233 0.94223 0.63586 0.0
N896 N 0.76335 0.00728 0.50798 0.0
N897 N 0.78906 0.87269 0.6512 0.0
H898 H 0.8391 0.97048 0.70477 0.0
H899 H 0.82838 0.92198 0.7234 0.0
H900 H 0.77108 0.8481 0.64428 0.0
H901 H 0.81166 0.86887 0.68458 0.0
H902 H 0.74454 0.00664 0.46799 0.0
H903 H 0.78087 0.03242 0.51111 0.0
H904 H 0.69523 0.97173 0.49771 0.0
H905 H 0.68604 0.92285 0.51907 0.0
C906 C 0.9627 0.26737 0.49307 0.0
C907 C 0.98985 0.23626 0.5014 0.0
C908 C 0.94378 0.20782 0.58081 0.0
C909 C 0.91427 0.23593 0.56447 0.0
N910 N 0.89471 0.28429 0.48602 0.0
N911 N 0.99853 0.17032 0.54046 0.0
C912 C 0.92345 0.2631 0.51487 0.0
C913 C 0.97819 0.2045 0.54152 0.0
N914 N 0.97322 0.30197 0.46515 0.0
N915 N 0.94085 0.18551 0.63536 0.0
H916 H 0.02231 0.16555 0.50971 0.0
H917 H 0.98874 0.14526 0.56457 0.0
H918 H 0.91841 0.18797 0.66886 0.0
H919 H 0.96362 0.16771 0.65134 0.0
H920 H 1.00205 0.30946 0.45224 0.0
H921 H 1.00205 0.30946 0.45224 0.0
H922 H 0.90084 0.30325 0.44761 0.0
H923 H 0.86492 0.27947 0.49543 0.0
C924 C 0.28384 0.01629 0.57356 0.0
C925 C 0.25409 0.00707 0.61902 0.0
C926 C 0.23133 0.07538 0.61363 0.0
C927 C 0.26064 0.08407 0.566 0.0
N928 N 0.32783 0.06703 0.53846 0.0
N929 N 0.19718 0.02636 0.67945 0.0
C930 C 0.29057 0.05579 0.5556 0.0
C931 C 0.22718 0.03633 0.63836 0.0
N932 N 0.30664 0.98742 0.54835 0.0
N933 N 0.21078 0.1053 0.64083 0.0
H934 H 0.19378 0.99821 0.6982 0.0
H935 H 0.17398 0.04469 0.69096 0.0
H936 H 0.21644 0.13452 0.62987 0.0
H937 H 0.19123 0.10199 0.67921 0.0
H938 H 0.32595 0.99231 0.50985 0.0
H939 H 0.30341 0.95812 0.56133 0.0
H940 H 0.351 0.04748 0.5341 0.0
H941 H 0.33772 0.09582 0.54108 0.0
C942 C 0.08475 0.77102 0.5065 0.0
C943 C 0.08894 0.74397 0.5586 0.0
C944 C 0.01906 0.72439 0.5422 0.0
C945 C 0.01424 0.75529 0.49721 0.0
N946 N 0.04107 0.81269 0.44565 0.0
N947 N 0.05659 0.69705 0.63019 0.0
C948 C 0.04667 0.78002 0.4824 0.0
C949 C 0.0552 0.72106 0.57744 0.0
N950 N 0.11725 0.78665 0.47687 0.0
N951 N 0.98956 0.69724 0.54977 0.0
H952 H 0.0816 0.69243 0.65777 0.0
H953 H 0.03166 0.68394 0.65051 0.0
H954 H 0.96241 0.69916 0.52638 0.0
H955 H 0.99305 0.67119 0.57508 0.0
H956 H 0.11584 0.80256 0.4339 0.0
H957 H 0.14592 0.78128 0.49185 0.0
H958 H 0.06287 0.834 0.4389 0.0
H959 H 0.01353 0.82042 0.42749 0.0
C960 C 0.23972 0.2246 0.14283 0.0
C961 C 0.25997 0.25975 0.12515 0.0
C962 C 0.28198 0.26554 0.24006 0.0
C963 C 0.26236 0.22994 0.25741 0.0
N964 N 0.23755 0.1692 0.21574 0.0
N965 N 0.31238 0.30489 0.15646 0.0
C966 C 0.24485 0.20793 0.20619 0.0
C967 C 0.28473 0.27748 0.17342 0.0
N968 N 0.21764 0.20524 0.09773 0.0
N969 N 0.29739 0.28918 0.28707 0.0
H970 H 0.31535 0.31652 0.11041 0.0
H971 H 0.33468 0.31423 0.18777 0.0
H972 H 0.29819 0.28156 0.33557 0.0
H973 H 0.30678 0.31781 0.27832 0.0
H974 H 0.19764 0.18303 0.10961 0.0
H975 H 0.21912 0.21194 1.04865 0.0
H976 H 0.22753 0.15021 0.17976 0.0
H977 H 0.2477 0.15528 0.2571 0.0
C978 C 0.22647 0.75342 0.97825 0.0
C979 C 0.26536 0.74029 0.99273 0.0
C980 C 0.2722 0.7231 0.87567 0.0
C981 C 0.23585 0.74134 0.85981 0.0
N982 N 0.17911 0.77606 0.89879 0.0
N983 N 0.32736 0.71799 0.94901 0.0
C984 C 0.21351 0.75741 0.91196 0.0
C985 C 0.28855 0.72645 0.93969 0.0
N986 N 0.20073 0.76018 1.0277 0.0
N987 N 0.2915 0.70169 0.83006 0.0
H988 H 0.34117 0.71908 0.99371 0.0
H989 H 0.34709 0.7135 0.91119 0.0
H990 H 0.28245 0.69926 0.78226 0.0
H991 H 0.31474 0.6832 0.84113 0.0
H992 H 0.17081 0.76508 1.02069 0.0
H993 H 0.20797 0.75697 0.07631 0.0
H994 H 0.16441 0.79325 0.93239 0.0
H995 H 0.16638 0.77648 0.85306 0.0
C996 C 0.72687 0.77896 0.21605 0.0
C997 C 0.74086 0.758 0.27164 0.0
C998 C 0.76326 0.70577 0.19565 0.0
C999 C 0.74904 0.72666 0.14047 0.0
N1000 N 0.72567 0.78784 0.09944 0.0
N1001 N 0.76247 0.6957 0.3122 0.0
C1002 C 0.73265 0.76422 0.15142 0.0
C1003 C 0.75648 0.71992 0.26056 0.0
N1004 N 0.70665 0.81284 0.2241 0.0
N1005 N 0.78467 0.67267 0.18667 0.0
H1006 H 0.75689 0.7037 0.35989 0.0
H1007 H 0.76879 0.66614 0.3076 0.0
H1008 H 0.78867 0.65958 0.14184 0.0
H1009 H 0.80105 0.65958 0.22323 0.0
H1010 H 0.68969 0.82553 0.18787 0.0
H1011 H 0.70444 0.82749 0.26765 0.0
H1012 H 0.72054 0.81769 0.10293 0.0
H1013 H 0.72794 0.77833 1.05189 0.0
C1014 C 0.78416 0.26968 0.90745 0.0
C1015 C 0.7615 0.25583 0.85377 0.0
C1016 C 0.70837 0.23675 0.93067 0.0
C1017 C 0.73102 0.25003 0.98502 0.0
N1018 N 0.79263 0.27664 1.02417 0.0
N1019 N 0.69669 0.24018 0.81466 0.0
C1020 C 0.76934 0.26626 0.97281 0.0
C1021 C 0.72212 0.24334 0.86563 0.0
N1022 N 0.81886 0.28885 0.89531 0.0
N1023 N 0.67387 0.21669 0.94053 0.0
H1024 H 0.70529 0.24572 0.76707 0.0
H1025 H 0.66643 0.23594 0.8201 0.0
H1026 H 0.66158 0.2121 0.986 0.0
H1027 H 0.65862 0.20226 0.90368 0.0
H1028 H 0.83584 0.30318 0.93007 0.0
H1029 H 0.82904 0.29371 0.84856 0.0
H1030 H 0.82249 0.28341 1.02076 0.0
H1031 H 0.78272 0.27632 0.07176 0.0
C1032 C 0.78828 0.767 0.66757 0.0
C1033 C 0.76093 0.752 0.62048 0.0
C1034 C 0.7397 0.705 0.70717 0.0
C1035 C 0.75947 0.72679 0.75678 0.0
N1036 N 0.80011 0.78373 0.77952 0.0
N1037 N 0.71517 0.69916 0.59736 0.0
C1038 C 0.78272 0.75941 0.73549 0.0
C1039 C 0.73727 0.71937 0.64137 0.0
N1040 N 0.82244 0.7849 0.64819 0.0
N1041 N 0.72765 0.66787 0.72083 0.0
H1042 H 0.72098 0.69993 0.54792 0.0
H1043 H 0.69203 0.68056 0.61066 0.0
H1044 H 0.73583 0.65469 0.76386 0.0
H1045 H 0.71552 0.64855 0.68715 0.0
H1046 H 0.84422 0.79402 0.68066 0.0
H1047 H 0.83258 0.78399 0.60074 0.0
H1048 H 0.81362 0.81008 0.76639 0.0
H1049 H 0.79799 0.77955 0.82904 0.0
C1050 C 0.78646 0.22472 0.44524 0.0
C1051 C 0.76423 0.24011 0.49818 0.0
C1052 C 0.71393 0.26074 0.41692 0.0
C1053 C 0.73516 0.24319 0.36496 0.0
N1054 N 0.78695 0.19835 0.33668 0.0
N1055 N 0.70034 0.26338 0.53215 0.0
C1056 C 0.76982 0.22211 0.38137 0.0
C1057 C 0.7262 0.25555 0.48326 0.0
N1058 N 0.8246 0.21378 0.45431 0.0
N1059 N 0.68102 0.28179 0.40363 0.0
H1060 H 0.70658 0.25924 0.58089 0.0
H1061 H 0.67083 0.26991 0.52435 0.0
H1062 H 0.66841 0.28302 0.35787 0.0
H1063 H 0.6676 0.30002 0.4372 0.0
H1064 H 0.84383 0.20805 0.41626 0.0
H1065 H 0.83855 0.21401 0.49882 0.0
H1066 H 0.80886 0.17845 0.34832 0.0
H1067 H 0.77682 0.1952 0.28965 0.0
C1068 C 0.21735 0.26393 0.72052 0.0
C1069 C 0.24285 0.25134 0.77181 0.0
C1070 C 0.26979 0.20363 0.69145 0.0
C1071 C 0.25034 0.22273 0.63866 0.0
N1072 N 0.21247 0.27889 0.60658 0.0
N1073 N 0.29069 0.20318 0.80387 0.0
C1074 C 0.22639 0.25521 0.65438 0.0
C1075 C 0.26855 0.21971 0.75624 0.0
N1076 N 0.18205 0.28085 0.73365 0.0
N1077 N 0.28712 0.16829 0.68149 0.0
H1078 H 0.28348 0.20504 0.85273 0.0
H1079 H 0.31564 0.18668 0.79441 0.0
H1080 H 0.28742 0.15407 0.63715 0.0
H1081 H 0.29766 0.15069 0.71864 0.0
H1082 H 0.1621 0.28837 0.6974 0.0
H1083 H 0.16923 0.28067 0.77923 0.0
H1084 H 0.19807 0.30497 0.61654 0.0
H1085 H 0.21924 0.2751 0.55792 0.0
C1086 C 0.28251 0.77303 0.39631 0.0
C1087 C 0.26324 0.75222 0.3451 0.0
C1088 C 0.21067 0.73288 0.42367 0.0
C1089 C 0.23136 0.75158 0.47606 0.0
N1090 N 0.29174 0.78277 0.51174 0.0
N1091 N 0.20815 0.71287 0.3106 0.0
C1092 C 0.26829 0.77021 0.46192 0.0
C1093 C 0.22725 0.73217 0.35945 0.0
N1094 N 0.31476 0.79584 0.38286 0.0
N1095 N 0.17392 0.71726 0.43407 0.0
H1096 H 0.21478 0.71783 0.26209 0.0
H1097 H 0.1864 0.69165 0.31771 0.0
H1098 H 0.16016 0.71635 0.47888 0.0
H1099 H 0.15506 0.70768 0.39754 0.0
H1100 H 0.32661 0.81611 0.41528 0.0
H1101 H 0.32837 0.79672 0.3379 0.0
H1102 H 0.32117 0.79098 0.50609 0.0
H1103 H 0.28333 0.78157 0.56002 0.0
loop_
_geom_bond_atom_site_label_1
_geom_bond_atom_site_label_2
_geom_bond_distance
_geom_bond_site_symmetry_2
_ccdc_geom_bond_type
Tb0 N29 2.617 . S
Tb0 N35 2.572 . S
Tb0 O44 2.465 . S
Tb0 O45 2.387 . S
Tb0 O47 2.428 . S
Tb0 O48 2.308 . S
Tb0 O52 2.349 . S
Tb0 O55 2.393 . S
Tb0 C64 2.802 . S
C1 N2 1.379 . S
C1 C4 1.416 . S
C1 C8 1.424 . S
N2 C1 1.379 . S
N2 C5 1.334 . S
N2 Tb11 2.617 . S
C3 C5 1.390 . S
C3 C6 1.339 . S
C3 H23 0.930 . S
C4 C1 1.416 . S
C4 C6 1.416 . S
C4 C10 1.448 . S
C5 N2 1.334 . S
C5 C3 1.390 . S
C5 H16 0.930 . S
C6 C3 1.339 . S
C6 C4 1.416 . S
C6 H27 0.930 . S
C7 C8 1.413 . S
C7 C9 1.427 . S
C7 C13 1.416 . S
C8 C1 1.424 . S
C8 C7 1.413 . S
C8 N12 1.361 . S
C9 C7 1.427 . S
C9 C10 1.328 . S
C9 H24 0.929 . S
C10 C4 1.448 . S
C10 C9 1.328 . S
C10 H25 0.930 . S
Tb11 N2 2.617 . S
Tb11 N12 2.572 . S
Tb11 O46 2.349 . S
Tb11 O49 2.393 . S
Tb11 O50 2.465 . S
Tb11 O51 2.387 . S
Tb11 O53 2.428 . S
Tb11 O54 2.308 . S
Tb11 C75 2.802 . S
N12 C8 1.361 . S
N12 Tb11 2.572 . S
N12 C14 1.340 . S
C13 C7 1.416 . S
C13 C15 1.332 . S
C13 H21 0.931 . S
C14 N12 1.340 . S
C14 C15 1.407 . S
C14 H20 0.930 . S
C15 C13 1.332 . S
C15 C14 1.407 . S
C15 H17 0.929 . S
H16 C5 0.930 . S
H17 C15 0.929 . S
H18 C33 0.930 . S
H19 C40 0.929 . S
H20 C14 0.930 . S
H21 C13 0.931 . S
H22 C36 0.930 . S
H23 C3 0.930 . S
H24 C9 0.929 . S
H25 C10 0.930 . S
H26 C31 0.930 . S
H27 C6 0.930 . S
H28 C39 0.931 . S
N29 Tb0 2.617 . S
N29 C30 1.379 . S
N29 C33 1.334 . S
C30 N29 1.379 . S
C30 C32 1.416 . S
C30 C38 1.424 . S
C31 H26 0.930 . S
C31 C33 1.390 . S
C31 C34 1.339 . S
C32 C30 1.416 . S
C32 C34 1.416 . S
C32 C65 1.448 . S
C33 H18 0.930 . S
C33 N29 1.334 . S
C33 C31 1.390 . S
C34 C31 1.339 . S
C34 C32 1.416 . S
C34 H41 0.930 . S
N35 Tb0 2.572 . S
N35 C36 1.340 . S
N35 C38 1.361 . S
C36 H22 0.930 . S
C36 N35 1.340 . S
C36 C40 1.407 . S
C37 C38 1.413 . S
C37 C39 1.416 . S
C37 C66 1.427 . S
C38 C30 1.424 . S
C38 N35 1.361 . S
C38 C37 1.413 . S
C39 H28 0.931 . S
C39 C37 1.416 . S
C39 C40 1.332 . S
C40 H19 0.929 . S
C40 C36 1.407 . S
C40 C39 1.332 . S
H41 C34 0.930 . S
H42 C65 0.930 . S
H43 C66 0.929 . S
O44 Tb0 2.465 . S
O44 C64 1.264 . S
O45 Tb0 2.387 . S
O45 C56 1.264 . S
O46 Tb11 2.349 . S
O46 C56 1.243 . S
O47 Tb0 2.428 . S
O47 C64 1.256 . S
O48 Tb0 2.308 . S
O48 C63 1.266 . S
O49 Tb11 2.393 . S
O49 C63 1.248 . S
O50 Tb11 2.465 . S
O50 C75 1.264 . S
O51 Tb11 2.387 . S
O51 C67 1.264 . S
O52 Tb0 2.349 . S
O52 C67 1.243 . S
O53 Tb11 2.428 . S
O53 C75 1.256 . S
O54 Tb11 2.308 . S
O54 C74 1.266 . S
O55 Tb0 2.393 . S
O55 C74 1.248 . S
C56 O45 1.264 . S
C56 O46 1.243 . S
C57 C60 1.399 . S
C57 C62 1.383 . S
C57 C64 1.496 . S
C58 C59 1.399 . S
C58 C62 1.389 . S
C59 C58 1.399 . S
C59 C61 1.380 . S
C59 H76 0.929 . S
C60 C57 1.399 . S
C60 C61 1.392 . S
C60 H77 0.929 . S
C61 C59 1.380 . S
C61 C60 1.392 . S
C61 H78 0.929 . S
C62 C57 1.383 . S
C62 C58 1.389 . S
C62 H79 0.931 . S
C63 O48 1.266 . S
C63 O49 1.248 . S
C64 Tb0 2.802 . S
C64 O44 1.264 . S
C64 O47 1.256 . S
C64 C57 1.496 . S
C65 C32 1.448 . S
C65 H42 0.930 . S
C65 C66 1.328 . S
C66 C37 1.427 . S
C66 H43 0.929 . S
C66 C65 1.328 . S
C67 O51 1.264 . S
C67 O52 1.243 . S
C68 C71 1.399 . S
C68 C72 1.383 . S
C68 C75 1.496 . S
C69 C70 1.399 . S
C69 C72 1.389 . S
C70 C69 1.399 . S
C70 C73 1.380 . S
C70 H80 0.929 1_455 S
C71 C68 1.399 . S
C71 C73 1.392 . S
C71 H81 0.929 . S
C72 C68 1.383 . S
C72 C69 1.389 . S
C72 H82 0.931 . S
C73 C70 1.380 . S
C73 C71 1.392 . S
C73 H83 0.929 . S
C74 O54 1.266 . S
C74 O55 1.248 . S
C75 Tb11 2.802 . S
C75 O50 1.264 . S
C75 O53 1.256 . S
C75 C68 1.496 . S
H76 C59 0.929 . S
H77 C60 0.929 . S
H78 C61 0.929 . S
H79 C62 0.931 . S
H80 C70 0.929 1_655 S
H81 C71 0.929 . S
H82 C72 0.931 . S
H83 C73 0.929 . S
Tb84 N113 2.617 . S
Tb84 N119 2.572 . S
Tb84 O128 2.465 . S
Tb84 O129 2.387 . S
Tb84 O131 2.428 . S
Tb84 O132 2.308 . S
Tb84 O136 2.349 . S
Tb84 O139 2.393 . S
Tb84 C148 2.802 . S
C85 N86 1.379 . S
C85 C88 1.416 . S
C85 C92 1.424 . S
N86 C85 1.379 . S
N86 C89 1.334 . S
N86 Tb95 2.617 . S
C87 C89 1.390 . S
C87 C90 1.339 . S
C87 H107 0.930 . S
C88 C85 1.416 . S
C88 C90 1.416 . S
C88 C94 1.448 . S
C89 N86 1.334 . S
C89 C87 1.390 . S
C89 H100 0.930 . S
C90 C87 1.339 . S
C90 C88 1.416 . S
C90 H111 0.930 . S
C91 C92 1.413 . S
C91 C93 1.427 . S
C91 C97 1.416 . S
C92 C85 1.424 . S
C92 C91 1.413 . S
C92 N96 1.361 . S
C93 C91 1.427 . S
C93 C94 1.328 . S
C93 H108 0.929 . S
C94 C88 1.448 . S
C94 C93 1.328 . S
C94 H109 0.930 . S
Tb95 N86 2.617 . S
Tb95 N96 2.572 . S
Tb95 O130 2.349 . S
Tb95 O133 2.393 . S
Tb95 O134 2.465 . S
Tb95 O135 2.387 . S
Tb95 O137 2.428 . S
Tb95 O138 2.308 . S
Tb95 C159 2.802 . S
N96 C92 1.361 . S
N96 Tb95 2.572 . S
N96 C98 1.340 . S
C97 C91 1.416 . S
C97 C99 1.332 . S
C97 H105 0.931 . S
C98 N96 1.340 . S
C98 C99 1.407 . S
C98 H104 0.930 . S
C99 C97 1.332 . S
C99 C98 1.407 . S
C99 H101 0.929 . S
H100 C89 0.930 . S
H101 C99 0.929 . S
H102 C117 0.930 . S
H103 C124 0.929 . S
H104 C98 0.930 . S
H105 C97 0.931 . S
H106 C120 0.930 . S
H107 C87 0.930 . S
H108 C93 0.929 . S
H109 C94 0.930 . S
H110 C115 0.930 . S
H111 C90 0.930 . S
H112 C123 0.931 . S
N113 Tb84 2.617 . S
N113 C114 1.379 . S
N113 C117 1.334 . S
C114 N113 1.379 . S
C114 C116 1.416 . S
C114 C122 1.424 . S
C115 H110 0.930 . S
C115 C117 1.390 . S
C115 C118 1.339 . S
C116 C114 1.416 . S
C116 C118 1.416 . S
C116 C149 1.448 . S
C117 H102 0.930 . S
C117 N113 1.334 . S
C117 C115 1.390 . S
C118 C115 1.339 . S
C118 C116 1.416 . S
C118 H125 0.930 . S
N119 Tb84 2.572 . S
N119 C120 1.340 . S
N119 C122 1.361 . S
C120 H106 0.930 . S
C120 N119 1.340 . S
C120 C124 1.407 . S
C121 C122 1.413 . S
C121 C123 1.416 . S
C121 C150 1.427 . S
C122 C114 1.424 . S
C122 N119 1.361 . S
C122 C121 1.413 . S
C123 H112 0.931 . S
C123 C121 1.416 . S
C123 C124 1.332 . S
C124 H103 0.929 . S
C124 C120 1.407 . S
C124 C123 1.332 . S
H125 C118 0.930 . S
H126 C149 0.930 . S
H127 C150 0.929 . S
O128 Tb84 2.465 . S
O128 C148 1.264 . S
O129 Tb84 2.387 . S
O129 C140 1.264 . S
O130 Tb95 2.349 . S
O130 C140 1.243 . S
O131 Tb84 2.428 . S
O131 C148 1.256 . S
O132 Tb84 2.308 . S
O132 C147 1.266 . S
O133 Tb95 2.393 . S
O133 C147 1.248 . S
O134 Tb95 2.465 . S
O134 C159 1.264 . S
O135 Tb95 2.387 . S
O135 C151 1.264 . S
O136 Tb84 2.349 . S
O136 C151 1.243 . S
O137 Tb95 2.428 . S
O137 C159 1.256 . S
O138 Tb95 2.308 . S
O138 C158 1.266 . S
O139 Tb84 2.393 . S
O139 C158 1.248 . S
C140 O129 1.264 . S
C140 O130 1.243 . S
C141 C144 1.399 . S
C141 C146 1.383 . S
C141 C148 1.496 . S
C142 C143 1.399 . S
C142 C146 1.389 . S
C143 C142 1.399 . S
C143 C145 1.380 . S
C143 H160 0.929 1_565 S
C144 C141 1.399 . S
C144 C145 1.392 . S
C144 H161 0.929 . S
C145 C143 1.380 . S
C145 C144 1.392 . S
C145 H162 0.929 . S
C146 C141 1.383 . S
C146 C142 1.389 . S
C146 H163 0.931 . S
C147 O132 1.266 . S
C147 O133 1.248 . S
C148 Tb84 2.802 . S
C148 O128 1.264 . S
C148 O131 1.256 . S
C148 C141 1.496 . S
C149 C116 1.448 . S
C149 H126 0.930 . S
C149 C150 1.328 . S
C150 C121 1.427 . S
C150 H127 0.929 . S
C150 C149 1.328 . S
C151 O135 1.264 . S
C151 O136 1.243 . S
C152 C155 1.399 . S
C152 C156 1.383 . S
C152 C159 1.496 . S
C153 C154 1.399 . S
C153 C156 1.389 . S
C154 C153 1.399 . S
C154 C157 1.380 . S
C154 H164 0.929 . S
C155 C152 1.399 . S
C155 C157 1.392 . S
C155 H165 0.929 . S
C156 C152 1.383 . S
C156 C153 1.389 . S
C156 H166 0.931 . S
C157 C154 1.380 . S
C157 C155 1.392 . S
C157 H167 0.929 . S
C158 O138 1.266 . S
C158 O139 1.248 . S
C159 Tb95 2.802 . S
C159 O134 1.264 . S
C159 O137 1.256 . S
C159 C152 1.496 . S
H160 C143 0.929 1_545 S
H161 C144 0.929 . S
H162 C145 0.929 . S
H163 C146 0.931 . S
H164 C154 0.929 . S
H165 C155 0.929 . S
H166 C156 0.931 . S
H167 C157 0.929 . S
Tb168 N197 2.617 . S
Tb168 N203 2.572 . S
Tb168 O212 2.465 . S
Tb168 O213 2.387 . S
Tb168 O215 2.428 . S
Tb168 O216 2.308 . S
Tb168 O220 2.349 . S
Tb168 O223 2.393 . S
Tb168 C232 2.802 . S
C169 N170 1.379 . S
C169 C172 1.416 . S
C169 C176 1.424 . S
N170 C169 1.379 . S
N170 C173 1.334 . S
N170 Tb179 2.617 . S
C171 C173 1.390 . S
C171 C174 1.339 . S
C171 H191 0.930 . S
C172 C169 1.416 . S
C172 C174 1.416 . S
C172 C178 1.448 . S
C173 N170 1.334 . S
C173 C171 1.390 . S
C173 H184 0.930 . S
C174 C171 1.339 . S
C174 C172 1.416 . S
C174 H195 0.930 . S
C175 C176 1.413 . S
C175 C177 1.427 . S
C175 C181 1.416 . S
C176 C169 1.424 . S
C176 C175 1.413 . S
C176 N180 1.361 . S
C177 C175 1.427 . S
C177 C178 1.328 . S
C177 H192 0.929 . S
C178 C172 1.448 . S
C178 C177 1.328 . S
C178 H193 0.930 . S
Tb179 N170 2.617 . S
Tb179 N180 2.572 . S
Tb179 O214 2.349 . S
Tb179 O217 2.393 . S
Tb179 O218 2.465 . S
Tb179 O219 2.387 . S
Tb179 O221 2.428 . S
Tb179 O222 2.308 . S
Tb179 C243 2.802 . S
N180 C176 1.361 . S
N180 Tb179 2.572 . S
N180 C182 1.340 . S
C181 C175 1.416 . S
C181 C183 1.332 . S
C181 H189 0.931 . S
C182 N180 1.340 . S
C182 C183 1.407 . S
C182 H188 0.930 . S
C183 C181 1.332 . S
C183 C182 1.407 . S
C183 H185 0.929 . S
H184 C173 0.930 . S
H185 C183 0.929 . S
H186 C201 0.930 . S
H187 C208 0.929 . S
H188 C182 0.930 . S
H189 C181 0.931 . S
H190 C204 0.930 . S
H191 C171 0.930 . S
H192 C177 0.929 . S
H193 C178 0.930 . S
H194 C199 0.930 . S
H195 C174 0.930 . S
H196 C207 0.931 . S
N197 Tb168 2.617 . S
N197 C198 1.379 . S
N197 C201 1.334 . S
C198 N197 1.379 . S
C198 C200 1.416 . S
C198 C206 1.424 . S
C199 H194 0.930 . S
C199 C201 1.390 . S
C199 C202 1.339 . S
C200 C198 1.416 . S
C200 C202 1.416 . S
C200 C233 1.448 . S
C201 H186 0.930 . S
C201 N197 1.334 . S
C201 C199 1.390 . S
C202 C199 1.339 . S
C202 C200 1.416 . S
C202 H209 0.930 . S
N203 Tb168 2.572 . S
N203 C204 1.340 . S
N203 C206 1.361 . S
C204 H190 0.930 . S
C204 N203 1.340 . S
C204 C208 1.407 . S
C205 C206 1.413 . S
C205 C207 1.416 . S
C205 C234 1.427 . S
C206 C198 1.424 . S
C206 N203 1.361 . S
C206 C205 1.413 . S
C207 H196 0.931 . S
C207 C205 1.416 . S
C207 C208 1.332 . S
C208 H187 0.929 . S
C208 C204 1.407 . S
C208 C207 1.332 . S
H209 C202 0.930 . S
H210 C233 0.930 . S
H211 C234 0.929 . S
O212 Tb168 2.465 . S
O212 C232 1.264 . S
O213 Tb168 2.387 . S
O213 C224 1.264 . S
O214 Tb179 2.349 . S
O214 C224 1.243 . S
O215 Tb168 2.428 . S
O215 C232 1.256 . S
O216 Tb168 2.308 . S
O216 C231 1.266 . S
O217 Tb179 2.393 . S
O217 C231 1.248 . S
O218 Tb179 2.465 . S
O218 C243 1.264 . S
O219 Tb179 2.387 . S
O219 C235 1.264 . S
O220 Tb168 2.349 . S
O220 C235 1.243 . S
O221 Tb179 2.428 . S
O221 C243 1.256 . S
O222 Tb179 2.308 . S
O222 C242 1.266 . S
O223 Tb168 2.393 . S
O223 C242 1.248 . S
C224 O213 1.264 . S
C224 O214 1.243 . S
C225 C228 1.399 . S
C225 C230 1.383 . S
C225 C232 1.496 . S
C226 C227 1.399 . S
C226 C230 1.389 . S
C227 C226 1.399 . S
C227 C229 1.380 . S
C227 H244 0.929 . S
C228 C225 1.399 . S
C228 C229 1.392 . S
C228 H245 0.929 . S
C229 C227 1.380 . S
C229 C228 1.392 . S
C229 H246 0.929 . S
C230 C225 1.383 . S
C230 C226 1.389 . S
C230 H247 0.931 . S
C231 O216 1.266 . S
C231 O217 1.248 . S
C232 Tb168 2.802 . S
C232 O212 1.264 . S
C232 O215 1.256 . S
C232 C225 1.496 . S
C233 C200 1.448 . S
C233 H210 0.930 . S
C233 C234 1.328 . S
C234 C205 1.427 . S
C234 H211 0.929 . S
C234 C233 1.328 . S
C235 O219 1.264 . S
C235 O220 1.243 . S
C236 C239 1.399 . S
C236 C240 1.383 . S
C236 C243 1.496 . S
C237 C238 1.399 . S
C237 C240 1.389 . S
C238 C237 1.399 . S
C238 C241 1.380 . S
C238 H248 0.929 1_655 S
C239 C236 1.399 . S
C239 C241 1.392 . S
C239 H249 0.929 . S
C240 C236 1.383 . S
C240 C237 1.389 . S
C240 H250 0.931 . S
C241 C238 1.380 . S
C241 C239 1.392 . S
C241 H251 0.929 . S
C242 O222 1.266 . S
C242 O223 1.248 . S
C243 Tb179 2.802 . S
C243 O218 1.264 . S
C243 O221 1.256 . S
C243 C236 1.496 . S
H244 C227 0.929 . S
H245 C228 0.929 . S
H246 C229 0.929 . S
H247 C230 0.931 . S
H248 C238 0.929 1_455 S
H249 C239 0.929 . S
H250 C240 0.931 . S
H251 C241 0.929 . S
Tb252 N281 2.617 . S
Tb252 N287 2.572 . S
Tb252 O296 2.465 . S
Tb252 O297 2.387 . S
Tb252 O299 2.428 . S
Tb252 O300 2.308 . S
Tb252 O304 2.349 . S
Tb252 O307 2.393 . S
Tb252 C316 2.802 . S
C253 N254 1.379 . S
C253 C256 1.416 . S
C253 C260 1.424 . S
N254 C253 1.379 . S
N254 C257 1.334 . S
N254 Tb263 2.617 . S
C255 C257 1.390 . S
C255 C258 1.339 . S
C255 H275 0.930 . S
C256 C253 1.416 . S
C256 C258 1.416 . S
C256 C262 1.448 . S
C257 N254 1.334 . S
C257 C255 1.390 . S
C257 H268 0.930 . S
C258 C255 1.339 . S
C258 C256 1.416 . S
C258 H279 0.930 . S
C259 C260 1.413 . S
C259 C261 1.427 . S
C259 C265 1.416 . S
C260 C253 1.424 . S
C260 C259 1.413 . S
C260 N264 1.361 . S
C261 C259 1.427 . S
C261 C262 1.328 . S
C261 H276 0.929 . S
C262 C256 1.448 . S
C262 C261 1.328 . S
C262 H277 0.930 . S
Tb263 N254 2.617 . S
Tb263 N264 2.572 . S
Tb263 O298 2.349 . S
Tb263 O301 2.393 . S
Tb263 O302 2.465 . S
Tb263 O303 2.387 . S
Tb263 O305 2.428 . S
Tb263 O306 2.308 . S
Tb263 C327 2.802 . S
N264 C260 1.361 . S
N264 Tb263 2.572 . S
N264 C266 1.340 . S
C265 C259 1.416 . S
C265 C267 1.332 . S
C265 H273 0.931 . S
C266 N264 1.340 . S
C266 C267 1.407 . S
C266 H272 0.930 . S
C267 C265 1.332 . S
C267 C266 1.407 . S
C267 H269 0.929 . S
H268 C257 0.930 . S
H269 C267 0.929 . S
H270 C285 0.930 . S
H271 C292 0.929 . S
H272 C266 0.930 . S
H273 C265 0.931 . S
H274 C288 0.930 . S
H275 C255 0.930 . S
H276 C261 0.929 . S
H277 C262 0.930 . S
H278 C283 0.930 . S
H279 C258 0.930 . S
H280 C291 0.931 . S
N281 Tb252 2.617 . S
N281 C282 1.379 . S
N281 C285 1.334 . S
C282 N281 1.379 . S
C282 C284 1.416 . S
C282 C290 1.424 . S
C283 H278 0.930 . S
C283 C285 1.390 . S
C283 C286 1.339 . S
C284 C282 1.416 . S
C284 C286 1.416 . S
C284 C317 1.448 . S
C285 H270 0.930 . S
C285 N281 1.334 . S
C285 C283 1.390 . S
C286 C283 1.339 . S
C286 C284 1.416 . S
C286 H293 0.930 . S
N287 Tb252 2.572 . S
N287 C288 1.340 . S
N287 C290 1.361 . S
C288 H274 0.930 . S
C288 N287 1.340 . S
C288 C292 1.407 . S
C289 C290 1.413 . S
C289 C291 1.416 . S
C289 C318 1.427 . S
C290 C282 1.424 . S
C290 N287 1.361 . S
C290 C289 1.413 . S
C291 H280 0.931 . S
C291 C289 1.416 . S
C291 C292 1.332 . S
C292 H271 0.929 . S
C292 C288 1.407 . S
C292 C291 1.332 . S
H293 C286 0.930 . S
H294 C317 0.930 . S
H295 C318 0.929 . S
O296 Tb252 2.465 . S
O296 C316 1.264 . S
O297 Tb252 2.387 . S
O297 C308 1.264 . S
O298 Tb263 2.349 . S
O298 C308 1.243 . S
O299 Tb252 2.428 . S
O299 C316 1.256 . S
O300 Tb252 2.308 . S
O300 C315 1.266 . S
O301 Tb263 2.393 . S
O301 C315 1.248 . S
O302 Tb263 2.465 . S
O302 C327 1.264 . S
O303 Tb263 2.387 . S
O303 C319 1.264 . S
O304 Tb252 2.349 . S
O304 C319 1.243 . S
O305 Tb263 2.428 . S
O305 C327 1.256 . S
O306 Tb263 2.308 . S
O306 C326 1.266 . S
O307 Tb252 2.393 . S
O307 C326 1.248 . S
C308 O297 1.264 . S
C308 O298 1.243 . S
C309 C312 1.399 . S
C309 C314 1.383 . S
C309 C316 1.496 . S
C310 C311 1.399 . S
C310 C314 1.389 . S
C311 C310 1.399 . S
C311 C313 1.380 . S
C311 H328 0.929 . S
C312 C309 1.399 . S
C312 C313 1.392 . S
C312 H329 0.929 . S
C313 C311 1.380 . S
C313 C312 1.392 . S
C313 H330 0.929 . S
C314 C309 1.383 . S
C314 C310 1.389 . S
C314 H331 0.931 . S
C315 O300 1.266 . S
C315 O301 1.248 . S
C316 Tb252 2.802 . S
C316 O296 1.264 . S
C316 O299 1.256 . S
C316 C309 1.496 . S
C317 C284 1.448 . S
C317 H294 0.930 . S
C317 C318 1.328 . S
C318 C289 1.427 . S
C318 H295 0.929 . S
C318 C317 1.328 . S
C319 O303 1.264 . S
C319 O304 1.243 . S
C320 C323 1.399 . S
C320 C324 1.383 . S
C320 C327 1.496 . S
C321 C322 1.399 . S
C321 C324 1.389 . S
C322 C321 1.399 . S
C322 C325 1.380 . S
C322 H332 0.929 1_545 S
C323 C320 1.399 . S
C323 C325 1.392 . S
C323 H333 0.929 . S
C324 C320 1.383 . S
C324 C321 1.389 . S
C324 H334 0.931 . S
C325 C322 1.380 . S
C325 C323 1.392 . S
C325 H335 0.929 . S
C326 O306 1.266 . S
C326 O307 1.248 . S
C327 Tb263 2.802 . S
C327 O302 1.264 . S
C327 O305 1.256 . S
C327 C320 1.496 . S
H328 C311 0.929 . S
H329 C312 0.929 . S
H330 C313 0.929 . S
H331 C314 0.931 . S
H332 C322 0.929 1_565 S
H333 C323 0.929 . S
H334 C324 0.931 . S
H335 C325 0.929 . S
Tb336 N365 2.618 . S
Tb336 N371 2.572 . S
Tb336 O380 2.465 . S
Tb336 O381 2.387 . S
Tb336 O383 2.428 . S
Tb336 O384 2.308 . S
Tb336 O388 2.349 . S
Tb336 O391 2.393 . S
Tb336 C400 2.802 . S
C337 N338 1.379 . S
C337 C340 1.416 . S
C337 C344 1.424 . S
N338 C337 1.379 . S
N338 C341 1.334 . S
N338 Tb347 2.617 . S
C339 C341 1.390 . S
C339 C342 1.339 . S
C339 H359 0.930 . S
C340 C337 1.416 . S
C340 C342 1.416 . S
C340 C346 1.448 . S
C341 N338 1.334 . S
C341 C339 1.390 . S
C341 H352 0.930 . S
C342 C339 1.339 . S
C342 C340 1.416 . S
C342 H363 0.930 . S
C343 C344 1.413 . S
C343 C345 1.427 . S
C343 C349 1.416 . S
C344 C337 1.424 . S
C344 C343 1.413 . S
C344 N348 1.361 . S
C345 C343 1.427 . S
C345 C346 1.328 . S
C345 H360 0.929 . S
C346 C340 1.448 . S
C346 C345 1.328 . S
C346 H361 0.930 . S
Tb347 N338 2.617 . S
Tb347 N348 2.572 . S
Tb347 O382 2.349 . S
Tb347 O385 2.393 . S
Tb347 O386 2.465 . S
Tb347 O387 2.387 . S
Tb347 O389 2.428 . S
Tb347 O390 2.308 . S
Tb347 C411 2.802 . S
N348 C344 1.361 . S
N348 Tb347 2.572 . S
N348 C350 1.340 . S
C349 C343 1.416 . S
C349 C351 1.332 . S
C349 H357 0.931 . S
C350 N348 1.340 . S
C350 C351 1.407 . S
C350 H356 0.930 . S
C351 C349 1.332 . S
C351 C350 1.407 . S
C351 H353 0.929 . S
H352 C341 0.930 . S
H353 C351 0.929 . S
H354 C369 0.930 . S
H355 C376 0.929 . S
H356 C350 0.930 . S
H357 C349 0.931 . S
H358 C372 0.930 . S
H359 C339 0.930 . S
H360 C345 0.929 . S
H361 C346 0.930 . S
H362 C367 0.930 . S
H363 C342 0.930 . S
H364 C375 0.931 . S
N365 Tb336 2.618 . S
N365 C366 1.379 1_556 S
N365 C369 1.334 1_556 S
C366 N365 1.379 1_554 S
C366 C368 1.416 . S
C366 C374 1.424 1_554 S
C367 H362 0.930 . S
C367 C369 1.390 . S
C367 C370 1.339 . S
C368 C366 1.416 . S
C368 C370 1.416 . S
C368 C401 1.448 . S
C369 H354 0.930 . S
C369 N365 1.334 1_554 S
C369 C367 1.390 . S
C370 C367 1.339 . S
C370 C368 1.416 . S
C370 H377 0.930 . S
N371 Tb336 2.572 . S
N371 C372 1.340 . S
N371 C374 1.361 . S
C372 H358 0.930 . S
C372 N371 1.340 . S
C372 C376 1.407 . S
C373 C374 1.413 1_554 S
C373 C375 1.416 1_554 S
C373 C402 1.427 . S
C374 C366 1.424 1_556 S
C374 N371 1.361 . S
C374 C373 1.413 1_556 S
C375 H364 0.931 . S
C375 C373 1.416 1_556 S
C375 C376 1.332 . S
C376 H355 0.929 . S
C376 C372 1.407 . S
C376 C375 1.332 . S
H377 C370 0.930 . S
H378 C401 0.930 . S
H379 C402 0.929 . S
O380 Tb336 2.465 . S
O380 C400 1.264 . S
O381 Tb336 2.387 . S
O381 C392 1.264 . S
O382 Tb347 2.349 . S
O382 C392 1.243 . S
O383 Tb336 2.428 . S
O383 C400 1.256 . S
O384 Tb336 2.308 . S
O384 C399 1.266 . S
O385 Tb347 2.393 . S
O385 C399 1.248 . S
O386 Tb347 2.465 . S
O386 C411 1.264 . S
O387 Tb347 2.387 . S
O387 C403 1.264 . S
O388 Tb336 2.349 . S
O388 C403 1.243 . S
O389 Tb347 2.428 . S
O389 C411 1.256 . S
O390 Tb347 2.308 . S
O390 C410 1.266 . S
O391 Tb336 2.393 . S
O391 C410 1.248 . S
C392 O381 1.264 . S
C392 O382 1.243 . S
C393 C396 1.399 . S
C393 C398 1.383 . S
C393 C400 1.496 . S
C394 C395 1.399 . S
C394 C398 1.389 . S
C395 C394 1.399 . S
C395 C397 1.380 . S
C395 H412 0.929 1_455 S
C396 C393 1.399 . S
C396 C397 1.392 . S
C396 H413 0.929 . S
C397 C395 1.380 . S
C397 C396 1.392 . S
C397 H414 0.929 . S
C398 C393 1.383 . S
C398 C394 1.389 . S
C398 H415 0.931 . S
C399 O384 1.266 . S
C399 O385 1.248 . S
C400 Tb336 2.802 . S
C400 O380 1.264 . S
C400 O383 1.256 . S
C400 C393 1.496 . S
C401 C368 1.448 . S
C401 H378 0.930 . S
C401 C402 1.328 . S
C402 C373 1.427 . S
C402 H379 0.929 . S
C402 C401 1.328 . S
C403 O387 1.264 . S
C403 O388 1.243 . S
C404 C407 1.399 . S
C404 C408 1.383 . S
C404 C411 1.496 . S
C405 C406 1.399 1_554 S
C405 C408 1.389 1_554 S
C406 C405 1.399 1_556 S
C406 C409 1.380 . S
C406 H416 0.929 . S
C407 C404 1.399 . S
C407 C409 1.392 . S
C407 H417 0.929 . S
C408 C404 1.383 . S
C408 C405 1.389 1_556 S
C408 H418 0.931 1_556 S
C409 C406 1.380 . S
C409 C407 1.392 . S
C409 H419 0.929 . S
C410 O390 1.266 . S
C410 O391 1.248 . S
C411 Tb347 2.802 . S
C411 O386 1.264 . S
C411 O389 1.256 . S
C411 C404 1.496 . S
H412 C395 0.929 1_655 S
H413 C396 0.929 . S
H414 C397 0.929 . S
H415 C398 0.931 . S
H416 C406 0.929 . S
H417 C407 0.929 . S
H418 C408 0.931 1_554 S
H419 C409 0.929 . S
Tb420 N449 2.617 1_554 S
Tb420 N455 2.572 . S
Tb420 O464 2.465 . S
Tb420 O465 2.387 . S
Tb420 O467 2.428 . S
Tb420 O468 2.308 . S
Tb420 O472 2.349 . S
Tb420 O475 2.393 . S
Tb420 C484 2.802 . S
C421 N422 1.379 . S
C421 C424 1.416 . S
C421 C428 1.424 . S
N422 C421 1.379 . S
N422 C425 1.334 . S
N422 Tb431 2.617 . S
C423 C425 1.390 . S
C423 C426 1.339 . S
C423 H443 0.930 . S
C424 C421 1.416 . S
C424 C426 1.416 . S
C424 C430 1.448 . S
C425 N422 1.334 . S
C425 C423 1.390 . S
C425 H436 0.930 . S
C426 C423 1.339 . S
C426 C424 1.416 . S
C426 H447 0.930 . S
C427 C428 1.413 . S
C427 C429 1.427 . S
C427 C433 1.416 . S
C428 C421 1.424 . S
C428 C427 1.413 . S
C428 N432 1.361 . S
C429 C427 1.427 . S
C429 C430 1.328 . S
C429 H444 0.929 . S
C430 C424 1.448 . S
C430 C429 1.328 . S
C430 H445 0.930 . S
Tb431 N422 2.617 . S
Tb431 N432 2.572 . S
Tb431 O466 2.349 . S
Tb431 O469 2.393 . S
Tb431 O470 2.465 . S
Tb431 O471 2.387 . S
Tb431 O473 2.428 . S
Tb431 O474 2.308 . S
Tb431 C495 2.802 . S
N432 C428 1.361 . S
N432 Tb431 2.572 . S
N432 C434 1.340 . S
C433 C427 1.416 . S
C433 C435 1.332 . S
C433 H441 0.931 . S
C434 N432 1.340 . S
C434 C435 1.407 . S
C434 H440 0.930 . S
C435 C433 1.332 . S
C435 C434 1.407 . S
C435 H437 0.929 . S
H436 C425 0.930 . S
H437 C435 0.929 . S
H438 C453 0.930 . S
H439 C460 0.929 . S
H440 C434 0.930 . S
H441 C433 0.931 . S
H442 C456 0.930 . S
H443 C423 0.930 . S
H444 C429 0.929 . S
H445 C430 0.930 . S
H446 C451 0.930 . S
H447 C426 0.930 . S
H448 C459 0.931 . S
N449 Tb420 2.617 1_556 S
N449 C450 1.379 . S
N449 C453 1.334 . S
C450 N449 1.379 . S
C450 C452 1.416 . S
C450 C458 1.424 1_556 S
C451 H446 0.930 . S
C451 C453 1.390 . S
C451 C454 1.339 . S
C452 C450 1.416 . S
C452 C454 1.416 . S
C452 C485 1.448 . S
C453 H438 0.930 . S
C453 N449 1.334 . S
C453 C451 1.390 . S
C454 C451 1.339 . S
C454 C452 1.416 . S
C454 H461 0.930 . S
N455 Tb420 2.572 . S
N455 C456 1.340 . S
N455 C458 1.361 . S
C456 H442 0.930 . S
C456 N455 1.340 . S
C456 C460 1.407 . S
C457 C458 1.413 1_556 S
C457 C459 1.416 1_556 S
C457 C486 1.427 . S
C458 C450 1.424 1_554 S
C458 N455 1.361 . S
C458 C457 1.413 1_554 S
C459 H448 0.931 . S
C459 C457 1.416 1_554 S
C459 C460 1.332 . S
C460 H439 0.929 . S
C460 C456 1.407 . S
C460 C459 1.332 . S
H461 C454 0.930 . S
H462 C485 0.930 . S
H463 C486 0.929 . S
O464 Tb420 2.465 . S
O464 C484 1.264 . S
O465 Tb420 2.387 . S
O465 C476 1.264 . S
O466 Tb431 2.349 . S
O466 C476 1.243 . S
O467 Tb420 2.428 . S
O467 C484 1.256 . S
O468 Tb420 2.308 . S
O468 C483 1.266 . S
O469 Tb431 2.393 . S
O469 C483 1.248 . S
O470 Tb431 2.465 . S
O470 C495 1.264 . S
O471 Tb431 2.387 . S
O471 C487 1.264 . S
O472 Tb420 2.349 . S
O472 C487 1.243 . S
O473 Tb431 2.428 . S
O473 C495 1.256 . S
O474 Tb431 2.308 . S
O474 C494 1.266 . S
O475 Tb420 2.393 . S
O475 C494 1.248 . S
C476 O465 1.264 . S
C476 O466 1.243 . S
C477 C480 1.399 . S
C477 C482 1.383 . S
C477 C484 1.496 . S
C478 C479 1.399 . S
C478 C482 1.389 . S
C479 C478 1.399 . S
C479 C481 1.380 . S
C479 H496 0.929 1_565 S
C480 C477 1.399 . S
C480 C481 1.392 . S
C480 H497 0.929 . S
C481 C479 1.380 . S
C481 C480 1.392 . S
C481 H498 0.929 . S
C482 C477 1.383 . S
C482 C478 1.389 . S
C482 H499 0.931 . S
C483 O468 1.266 . S
C483 O469 1.248 . S
C484 Tb420 2.802 . S
C484 O464 1.264 . S
C484 O467 1.256 . S
C484 C477 1.496 . S
C485 C452 1.448 . S
C485 H462 0.930 . S
C485 C486 1.328 . S
C486 C457 1.427 . S
C486 H463 0.929 . S
C486 C485 1.328 . S
C487 O471 1.264 . S
C487 O472 1.243 . S
C488 C491 1.399 . S
C488 C492 1.383 . S
C488 C495 1.496 . S
C489 C490 1.399 1_556 S
C489 C492 1.389 1_556 S
C490 C489 1.399 1_554 S
C490 C493 1.380 . S
C490 H500 0.929 . S
C491 C488 1.399 . S
C491 C493 1.392 . S
C491 H501 0.929 . S
C492 C488 1.383 . S
C492 C489 1.389 1_554 S
C492 H502 0.931 1_554 S
C493 C490 1.380 . S
C493 C491 1.392 . S
C493 H503 0.929 . S
C494 O474 1.266 . S
C494 O475 1.248 . S
C495 Tb431 2.802 . S
C495 O470 1.264 . S
C495 O473 1.256 . S
C495 C488 1.496 . S
H496 C479 0.929 1_545 S
H497 C480 0.929 . S
H498 C481 0.929 . S
H499 C482 0.931 . S
H500 C490 0.929 . S
H501 C491 0.929 . S
H502 C492 0.931 1_556 S
H503 C493 0.929 . S
Tb504 N533 2.617 1_556 S
Tb504 N539 2.572 . S
Tb504 O548 2.465 . S
Tb504 O549 2.387 . S
Tb504 O551 2.428 . S
Tb504 O552 2.308 . S
Tb504 O556 2.349 . S
Tb504 O559 2.393 . S
Tb504 C568 2.802 . S
C505 N506 1.379 . S
C505 C508 1.416 . S
C505 C512 1.424 . S
N506 C505 1.379 . S
N506 C509 1.334 . S
N506 Tb515 2.617 . S
C507 C509 1.390 . S
C507 C510 1.339 . S
C507 H527 0.930 . S
C508 C505 1.416 . S
C508 C510 1.416 . S
C508 C514 1.448 . S
C509 N506 1.334 . S
C509 C507 1.390 . S
C509 H520 0.930 . S
C510 C507 1.339 . S
C510 C508 1.416 . S
C510 H531 0.930 . S
C511 C512 1.413 . S
C511 C513 1.427 . S
C511 C517 1.416 . S
C512 C505 1.424 . S
C512 C511 1.413 . S
C512 N516 1.361 . S
C513 C511 1.427 . S
C513 C514 1.328 . S
C513 H528 0.929 . S
C514 C508 1.448 . S
C514 C513 1.328 . S
C514 H529 0.930 . S
Tb515 N506 2.617 . S
Tb515 N516 2.572 . S
Tb515 O550 2.349 . S
Tb515 O553 2.393 . S
Tb515 O554 2.465 . S
Tb515 O555 2.387 . S
Tb515 O557 2.428 . S
Tb515 O558 2.308 . S
Tb515 C579 2.802 . S
N516 C512 1.361 . S
N516 Tb515 2.572 . S
N516 C518 1.340 . S
C517 C511 1.416 . S
C517 C519 1.332 . S
C517 H525 0.931 . S
C518 N516 1.340 . S
C518 C519 1.407 . S
C518 H524 0.930 . S
C519 C517 1.332 . S
C519 C518 1.407 . S
C519 H521 0.929 . S
H520 C509 0.930 . S
H521 C519 0.929 . S
H522 C537 0.930 . S
H523 C544 0.929 . S
H524 C518 0.930 . S
H525 C517 0.931 . S
H526 C540 0.930 . S
H527 C507 0.930 . S
H528 C513 0.929 . S
H529 C514 0.930 . S
H530 C535 0.930 . S
H531 C510 0.930 . S
H532 C543 0.931 . S
N533 Tb504 2.617 1_554 S
N533 C534 1.379 . S
N533 C537 1.334 . S
C534 N533 1.379 . S
C534 C536 1.416 . S
C534 C542 1.424 1_554 S
C535 H530 0.930 . S
C535 C537 1.390 . S
C535 C538 1.339 . S
C536 C534 1.416 . S
C536 C538 1.416 . S
C536 C569 1.448 . S
C537 H522 0.930 . S
C537 N533 1.334 . S
C537 C535 1.390 . S
C538 C535 1.339 . S
C538 C536 1.416 . S
C538 H545 0.930 . S
N539 Tb504 2.572 . S
N539 C540 1.340 . S
N539 C542 1.361 . S
C540 H526 0.930 . S
C540 N539 1.340 . S
C540 C544 1.407 . S
C541 C542 1.413 1_554 S
C541 C543 1.416 1_554 S
C541 C570 1.427 . S
C542 C534 1.424 1_556 S
C542 N539 1.361 . S
C542 C541 1.413 1_556 S
C543 H532 0.931 . S
C543 C541 1.416 1_556 S
C543 C544 1.332 . S
C544 H523 0.929 . S
C544 C540 1.407 . S
C544 C543 1.332 . S
H545 C538 0.930 . S
H546 C569 0.930 . S
H547 C570 0.929 . S
O548 Tb504 2.465 . S
O548 C568 1.264 . S
O549 Tb504 2.387 . S
O549 C560 1.264 . S
O550 Tb515 2.349 . S
O550 C560 1.243 . S
O551 Tb504 2.428 . S
O551 C568 1.256 . S
O552 Tb504 2.308 . S
O552 C567 1.266 . S
O553 Tb515 2.393 . S
O553 C567 1.248 . S
O554 Tb515 2.465 . S
O554 C579 1.264 . S
O555 Tb515 2.387 . S
O555 C571 1.264 . S
O556 Tb504 2.349 . S
O556 C571 1.243 . S
O557 Tb515 2.428 . S
O557 C579 1.256 . S
O558 Tb515 2.308 . S
O558 C578 1.266 . S
O559 Tb504 2.393 . S
O559 C578 1.248 . S
C560 O549 1.264 . S
C560 O550 1.243 . S
C561 C564 1.399 . S
C561 C566 1.383 . S
C561 C568 1.496 . S
C562 C563 1.399 . S
C562 C566 1.389 . S
C563 C562 1.399 . S
C563 C565 1.380 . S
C563 H580 0.929 1_655 S
C564 C561 1.399 . S
C564 C565 1.392 . S
C564 H581 0.929 . S
C565 C563 1.380 . S
C565 C564 1.392 . S
C565 H582 0.929 . S
C566 C561 1.383 . S
C566 C562 1.389 . S
C566 H583 0.931 . S
C567 O552 1.266 . S
C567 O553 1.248 . S
C568 Tb504 2.802 . S
C568 O548 1.264 . S
C568 O551 1.256 . S
C568 C561 1.496 . S
C569 C536 1.448 . S
C569 H546 0.930 . S
C569 C570 1.328 . S
C570 C541 1.427 . S
C570 H547 0.929 . S
C570 C569 1.328 . S
C571 O555 1.264 . S
C571 O556 1.243 . S
C572 C575 1.399 . S
C572 C576 1.383 . S
C572 C579 1.496 . S
C573 C574 1.399 1_554 S
C573 C576 1.389 1_554 S
C574 C573 1.399 1_556 S
C574 C577 1.380 . S
C574 H584 0.929 . S
C575 C572 1.399 . S
C575 C577 1.392 . S
C575 H585 0.929 . S
C576 C572 1.383 . S
C576 C573 1.389 1_556 S
C576 H586 0.936 . S
C577 C574 1.380 . S
C577 C575 1.392 . S
C577 H587 0.929 . S
C578 O558 1.266 . S
C578 O559 1.248 . S
C579 Tb515 2.802 . S
C579 O554 1.264 . S
C579 O557 1.256 . S
C579 C572 1.496 . S
H580 C563 0.929 1_455 S
H581 C564 0.929 . S
H582 C565 0.929 . S
H583 C566 0.931 . S
H584 C574 0.929 . S
H585 C575 0.929 . S
H586 C576 0.936 . S
H587 C577 0.929 . S
Tb588 N617 2.617 . S
Tb588 N623 2.572 . S
Tb588 O632 2.465 . S
Tb588 O633 2.387 . S
Tb588 O635 2.428 . S
Tb588 O636 2.308 . S
Tb588 O640 2.349 . S
Tb588 O643 2.393 . S
Tb588 C652 2.802 . S
C589 N590 1.375 1_556 S
C589 C592 1.416 . S
C589 C596 1.424 1_556 S
N590 C589 1.375 1_554 S
N590 C593 1.329 1_554 S
N590 Tb599 2.627 . S
C591 C593 1.390 . S
C591 C594 1.339 . S
C591 H611 0.930 . S
C592 C589 1.416 . S
C592 C594 1.416 . S
C592 C598 1.448 . S
C593 N590 1.329 1_556 S
C593 C591 1.390 . S
C593 H604 0.930 . S
C594 C591 1.339 . S
C594 C592 1.416 . S
C594 H615 0.930 . S
C595 C596 1.413 1_556 S
C595 C597 1.427 . S
C595 C601 1.416 1_556 S
C596 C589 1.424 1_554 S
C596 C595 1.413 1_554 S
C596 N600 1.361 . S
C597 C595 1.427 . S
C597 C598 1.328 . S
C597 H612 0.929 . S
C598 C592 1.448 . S
C598 C597 1.328 . S
C598 H613 0.930 . S
Tb599 N590 2.627 . S
Tb599 N600 2.572 . S
Tb599 O634 2.349 . S
Tb599 O637 2.393 . S
Tb599 O638 2.465 . S
Tb599 O639 2.387 . S
Tb599 O641 2.428 . S
Tb599 O642 2.308 . S
Tb599 C663 2.802 . S
N600 C596 1.361 . S
N600 Tb599 2.572 . S
N600 C602 1.340 . S
C601 C595 1.416 1_554 S
C601 C603 1.332 . S
C601 H609 0.931 . S
C602 N600 1.340 . S
C602 C603 1.407 . S
C602 H608 0.930 . S
C603 C601 1.332 . S
C603 C602 1.407 . S
C603 H605 0.929 . S
H604 C593 0.930 . S
H605 C603 0.929 . S
H606 C621 0.930 . S
H607 C628 0.929 . S
H608 C602 0.930 . S
H609 C601 0.931 . S
H610 C624 0.930 . S
H611 C591 0.930 . S
H612 C597 0.929 . S
H613 C598 0.930 . S
H614 C619 0.930 . S
H615 C594 0.930 . S
H616 C627 0.931 . S
N617 Tb588 2.617 . S
N617 C618 1.379 . S
N617 C621 1.334 . S
C618 N617 1.379 . S
C618 C620 1.416 . S
C618 C626 1.424 . S
C619 H614 0.930 . S
C619 C621 1.390 . S
C619 C622 1.339 . S
C620 C618 1.416 . S
C620 C622 1.416 . S
C620 C653 1.448 . S
C621 H606 0.930 . S
C621 N617 1.334 . S
C621 C619 1.390 . S
C622 C619 1.339 . S
C622 C620 1.416 . S
C622 H629 0.930 . S
N623 Tb588 2.572 . S
N623 C624 1.340 . S
N623 C626 1.361 . S
C624 H610 0.930 . S
C624 N623 1.340 . S
C624 C628 1.407 . S
C625 C626 1.413 . S
C625 C627 1.416 . S
C625 C654 1.427 . S
C626 C618 1.424 . S
C626 N623 1.361 . S
C626 C625 1.413 . S
C627 H616 0.931 . S
C627 C625 1.416 . S
C627 C628 1.332 . S
C628 H607 0.929 . S
C628 C624 1.407 . S
C628 C627 1.332 . S
H629 C622 0.930 . S
H630 C653 0.930 . S
H631 C654 0.929 . S
O632 Tb588 2.465 . S
O632 C652 1.264 . S
O633 Tb588 2.387 . S
O633 C644 1.264 . S
O634 Tb599 2.349 . S
O634 C644 1.243 . S
O635 Tb588 2.428 . S
O635 C652 1.256 . S
O636 Tb588 2.308 . S
O636 C651 1.266 . S
O637 Tb599 2.393 . S
O637 C651 1.248 . S
O638 Tb599 2.465 . S
O638 C663 1.264 . S
O639 Tb599 2.387 . S
O639 C655 1.264 . S
O640 Tb588 2.349 . S
O640 C655 1.243 . S
O641 Tb599 2.428 . S
O641 C663 1.256 . S
O642 Tb599 2.308 . S
O642 C662 1.266 . S
O643 Tb588 2.393 . S
O643 C662 1.248 . S
C644 O633 1.264 . S
C644 O634 1.243 . S
C645 C648 1.399 . S
C645 C650 1.383 . S
C645 C652 1.496 . S
C646 C647 1.399 1_556 S
C646 C650 1.389 1_556 S
C647 C646 1.399 1_554 S
C647 C649 1.380 . S
C647 H664 0.929 . S
C648 C645 1.399 . S
C648 C649 1.392 . S
C648 H665 0.929 . S
C649 C647 1.380 . S
C649 C648 1.392 . S
C649 H666 0.929 . S
C650 C645 1.383 . S
C650 C646 1.389 1_554 S
C650 H667 0.934 . S
C651 O636 1.266 . S
C651 O637 1.248 . S
C652 Tb588 2.802 . S
C652 O632 1.264 . S
C652 O635 1.256 . S
C652 C645 1.496 . S
C653 C620 1.448 . S
C653 H630 0.930 . S
C653 C654 1.328 . S
C654 C625 1.427 . S
C654 H631 0.929 . S
C654 C653 1.328 . S
C655 O639 1.264 . S
C655 O640 1.243 . S
C656 C659 1.399 . S
C656 C660 1.383 . S
C656 C663 1.496 . S
C657 C658 1.399 . S
C657 C660 1.389 . S
C658 C657 1.399 . S
C658 C661 1.380 . S
C658 H668 0.929 1_545 S
C659 C656 1.399 . S
C659 C661 1.392 . S
C659 H669 0.929 . S
C660 C656 1.383 . S
C660 C657 1.389 . S
C660 H670 0.931 . S
C661 C658 1.380 . S
C661 C659 1.392 . S
C661 H671 0.929 . S
C662 O642 1.266 . S
C662 O643 1.248 . S
C663 Tb599 2.802 . S
C663 O638 1.264 . S
C663 O641 1.256 . S
C663 C656 1.496 . S
H664 C647 0.929 . S
H665 C648 0.929 . S
H666 C649 0.929 . S
H667 C650 0.934 . S
H668 C658 0.929 1_565 S
H669 C659 0.929 . S
H670 C660 0.931 . S
H671 C661 0.929 . S
C672 C673 1.363 . S
C672 C678 1.379 . S
C672 N680 1.356 . S
C673 C672 1.363 . S
C673 C679 1.363 . S
C674 C675 1.364 . S
C674 C679 1.379 . S
C674 N681 1.356 1_545 S
C675 C674 1.364 . S
C675 C678 1.369 . S
N676 C678 1.356 . S
N676 H688 0.984 . S
N676 H689 0.985 1_545 S
N677 C679 1.356 . S
N677 H682 0.984 . S
N677 H683 0.985 . S
C678 C672 1.379 . S
C678 C675 1.369 . S
C678 N676 1.356 . S
C679 C673 1.363 . S
C679 C674 1.379 . S
C679 N677 1.356 . S
N680 C672 1.356 . S
N680 H686 0.984 . S
N680 H687 0.984 . S
N681 C674 1.356 1_565 S
N681 H684 0.984 . S
N681 H685 0.985 . S
H682 N677 0.984 . S
H683 N677 0.985 . S
H684 N681 0.984 . S
H685 N681 0.985 . S
H686 N680 0.984 . S
H687 N680 0.984 . S
H688 N676 0.984 . S
H689 N676 0.985 1_565 S
C690 C691 1.363 . S
C690 C696 1.379 . S
C690 N698 1.356 . S
C691 C690 1.363 . S
C691 C697 1.363 . S
C692 C693 1.367 . S
C692 C697 1.379 . S
C692 N699 1.356 . S
C693 C692 1.367 . S
C693 C696 1.364 . S
N694 C696 1.356 1_655 S
N694 H706 0.984 . S
N694 H707 0.985 . S
N695 C697 1.356 . S
N695 H700 0.984 . S
N695 H701 0.985 . S
C696 C690 1.379 . S
C696 C693 1.364 . S
C696 N694 1.356 1_455 S
C697 C691 1.363 . S
C697 C692 1.379 . S
C697 N695 1.356 . S
N698 C690 1.356 . S
N698 H704 0.984 . S
N698 H705 0.984 . S
N699 C692 1.356 . S
N699 H702 0.984 1_455 S
N699 H703 0.985 . S
H700 N695 0.984 . S
H701 N695 0.985 . S
H702 N699 0.984 1_655 S
H703 N699 0.985 . S
H704 N698 0.984 . S
H705 N698 0.984 . S
H706 N694 0.984 . S
H707 N694 0.985 . S
C708 C709 1.363 . S
C708 C714 1.379 . S
C708 N716 1.356 . S
C709 C708 1.363 . S
C709 C715 1.363 . S
C710 C711 1.377 . S
C710 C715 1.379 . S
C710 N717 1.356 . S
C711 C710 1.377 . S
C711 C714 1.366 . S
N712 C714 1.356 1_545 S
N712 H724 0.984 . S
N712 H725 0.985 . S
N713 C715 1.356 . S
N713 H718 0.984 . S
N713 H719 0.985 . S
C714 C708 1.379 . S
C714 C711 1.366 . S
C714 N712 1.356 1_565 S
C715 C709 1.363 . S
C715 C710 1.379 . S
C715 N713 1.356 . S
N716 C708 1.356 . S
N716 H722 0.984 . S
N716 H723 0.984 . S
N717 C710 1.356 . S
N717 H720 0.984 1_565 S
N717 H721 0.985 . S
H718 N713 0.984 . S
H719 N713 0.985 . S
H720 N717 0.984 1_545 S
H721 N717 0.985 . S
H722 N716 0.984 . S
H723 N716 0.984 . S
H724 N712 0.984 . S
H725 N712 0.985 . S
C726 C727 1.367 . S
C726 C732 1.379 . S
C726 N734 1.356 1_655 S
C727 C726 1.367 . S
C727 C733 1.382 . S
C728 C729 1.363 . S
C728 C733 1.379 . S
C728 N735 1.356 . S
C729 C728 1.363 . S
C729 C732 1.363 . S
N730 C732 1.356 . S
N730 H742 0.984 . S
N730 H743 0.985 . S
N731 C733 1.356 . S
N731 H736 0.984 1_655 S
N731 H737 0.985 . S
C732 C726 1.379 . S
C732 C729 1.363 . S
C732 N730 1.356 . S
C733 C727 1.382 . S
C733 C728 1.379 . S
C733 N731 1.356 . S
N734 C726 1.356 1_455 S
N734 H740 0.984 . S
N734 H741 0.984 . S
N735 C728 1.356 . S
N735 H738 0.984 . S
N735 H739 0.985 . S
H736 N731 0.984 1_455 S
H737 N731 0.985 . S
H738 N735 0.984 . S
H739 N735 0.985 . S
H740 N734 0.984 . S
H741 N734 0.984 . S
H742 N730 0.984 . S
H743 N730 0.985 . S
C744 C745 1.363 . S
C744 C750 1.379 . S
C744 N752 1.356 . S
C745 C744 1.363 . S
C745 C751 1.363 1_556 S
C746 C747 1.363 1_554 S
C746 C751 1.379 . S
C746 N753 1.356 . S
C747 C746 1.363 1_556 S
C747 C750 1.363 . S
N748 C750 1.356 . S
N748 H760 0.984 . S
N748 H761 0.985 . S
N749 C751 1.356 . S
N749 H754 0.984 . S
N749 H755 0.985 . S
C750 C744 1.379 . S
C750 C747 1.363 . S
C750 N748 1.356 . S
C751 C745 1.363 1_554 S
C751 C746 1.379 . S
C751 N749 1.356 . S
N752 C744 1.356 . S
N752 H758 0.984 . S
N752 H759 0.984 . S
N753 C746 1.356 . S
N753 H756 0.984 . S
N753 H757 0.985 . S
H754 N749 0.984 . S
H755 N749 0.985 . S
H756 N753 0.984 . S
H757 N753 0.985 . S
H758 N752 0.984 . S
H759 N752 0.984 . S
H760 N748 0.984 . S
H761 N748 0.985 . S
C762 C763 1.363 . S
C762 C768 1.379 . S
C762 N770 1.356 . S
C763 C762 1.363 . S
C763 C769 1.363 1_554 S
C764 C765 1.363 1_556 S
C764 C769 1.379 . S
C764 N771 1.356 . S
C765 C764 1.363 1_554 S
C765 C768 1.363 . S
N766 C768 1.356 . S
N766 H778 0.984 . S
N766 H779 0.985 . S
N767 C769 1.356 . S
N767 H772 0.984 . S
N767 H773 0.985 . S
C768 C762 1.379 . S
C768 C765 1.363 . S
C768 N766 1.356 . S
C769 C763 1.363 1_556 S
C769 C764 1.379 . S
C769 N767 1.356 . S
N770 C762 1.356 . S
N770 H776 0.984 . S
N770 H777 0.984 . S
N771 C764 1.356 . S
N771 H774 0.984 . S
N771 H775 0.985 . S
H772 N767 0.984 . S
H773 N767 0.985 . S
H774 N771 0.984 . S
H775 N771 0.985 . S
H776 N770 0.984 . S
H777 N770 0.984 . S
H778 N766 0.984 . S
H779 N766 0.985 . S
C780 C781 1.363 1_554 S
C780 C786 1.379 . S
C780 N788 1.356 . S
C781 C780 1.363 1_556 S
C781 C787 1.363 . S
C782 C783 1.363 . S
C782 C787 1.379 . S
C782 N789 1.356 . S
C783 C782 1.363 . S
C783 C786 1.363 1_556 S
N784 C786 1.356 . S
N784 H796 0.984 . S
N784 H797 0.985 . S
N785 C787 1.356 . S
N785 H790 0.984 . S
N785 H791 0.985 . S
C786 C780 1.379 . S
C786 C783 1.363 1_554 S
C786 N784 1.356 . S
C787 C781 1.363 . S
C787 C782 1.379 . S
C787 N785 1.356 . S
N788 C780 1.356 . S
N788 H794 0.984 . S
N788 H795 0.984 . S
N789 C782 1.356 . S
N789 H792 0.984 . S
N789 H793 0.985 . S
H790 N785 0.984 . S
H791 N785 0.985 . S
H792 N789 0.984 . S
H793 N789 0.985 . S
H794 N788 0.984 . S
H795 N788 0.984 . S
H796 N784 0.984 . S
H797 N784 0.985 . S
C798 C799 1.363 1_556 S
C798 C804 1.379 . S
C798 N806 1.356 . S
C799 C798 1.363 1_554 S
C799 C805 1.363 . S
C800 C801 1.363 . S
C800 C805 1.379 . S
C800 N807 1.356 . S
C801 C800 1.363 . S
C801 C804 1.363 1_554 S
N802 C804 1.356 . S
N802 H814 0.984 . S
N802 H815 0.985 . S
N803 C805 1.356 . S
N803 H808 0.984 . S
N803 H809 0.985 . S
C804 C798 1.379 . S
C804 C801 1.363 1_556 S
C804 N802 1.356 . S
C805 C799 1.363 . S
C805 C800 1.379 . S
C805 N803 1.356 . S
N806 C798 1.356 . S
N806 H812 0.984 . S
N806 H813 0.984 . S
N807 C800 1.356 . S
N807 H810 0.984 . S
N807 H811 0.985 . S
H808 N803 0.984 . S
H809 N803 0.985 . S
H810 N807 0.984 . S
H811 N807 0.985 . S
H812 N806 0.984 . S
H813 N806 0.984 . S
H814 N802 0.984 . S
H815 N802 0.985 . S
C816 C817 1.363 . S
C816 C822 1.379 . S
C816 N824 1.356 . S
C817 C816 1.363 . S
C817 C823 1.363 . S
C818 C819 1.363 . S
C818 C823 1.379 . S
C818 N825 1.356 . S
C819 C818 1.363 . S
C819 C822 1.363 . S
N820 C822 1.356 . S
N820 H832 0.984 . S
N820 H833 0.985 . S
N821 C823 1.356 . S
N821 H826 0.984 . S
N821 H827 0.985 . S
C822 C816 1.379 . S
C822 C819 1.363 . S
C822 N820 1.356 . S
C823 C817 1.363 . S
C823 C818 1.379 . S
C823 N821 1.356 . S
N824 C816 1.356 . S
N824 H830 0.984 . S
N824 H831 0.984 . S
N825 C818 1.356 . S
N825 H828 0.984 . S
N825 H829 0.985 . S
H826 N821 0.984 . S
H827 N821 0.985 . S
H828 N825 0.984 . S
H829 N825 0.985 . S
H830 N824 0.984 . S
H831 N824 0.984 . S
H832 N820 0.984 . S
H833 N820 0.985 . S
C834 C835 1.363 . S
C834 C840 1.379 . S
C834 N842 1.356 . S
C835 C834 1.363 . S
C835 C841 1.363 . S
C836 C837 1.363 . S
C836 C841 1.379 . S
C836 N843 1.356 . S
C837 C836 1.363 . S
C837 C840 1.363 . S
N838 C840 1.356 . S
N838 H850 0.984 . S
N838 H851 0.985 . S
N839 C841 1.356 . S
N839 H844 0.984 . S
N839 H845 0.985 . S
C840 C834 1.379 . S
C840 C837 1.363 . S
C840 N838 1.356 . S
C841 C835 1.363 . S
C841 C836 1.379 . S
C841 N839 1.356 . S
N842 C834 1.356 . S
N842 H848 0.984 . S
N842 H849 0.984 . S
N843 C836 1.356 . S
N843 H846 0.984 . S
N843 H847 0.985 . S
H844 N839 0.984 . S
H845 N839 0.985 . S
H846 N843 0.984 . S
H847 N843 0.985 . S
H848 N842 0.984 . S
H849 N842 0.984 . S
H850 N838 0.984 . S
H851 N838 0.985 . S
C852 C853 1.363 . S
C852 C858 1.379 . S
C852 N860 1.356 . S
C853 C852 1.363 . S
C853 C859 1.363 . S
C854 C855 1.363 . S
C854 C859 1.379 . S
C854 N861 1.356 . S
C855 C854 1.363 . S
C855 C858 1.363 . S
N856 C858 1.356 . S
N856 H868 0.984 . S
N856 H869 0.985 . S
N857 C859 1.356 . S
N857 H862 0.984 . S
N857 H863 0.985 . S
C858 C852 1.379 . S
C858 C855 1.363 . S
C858 N856 1.356 . S
C859 C853 1.363 . S
C859 C854 1.379 . S
C859 N857 1.356 . S
N860 C852 1.356 . S
N860 H866 0.984 . S
N860 H867 0.984 . S
N861 C854 1.356 . S
N861 H864 0.984 . S
N861 H865 0.985 . S
H862 N857 0.984 . S
H863 N857 0.985 . S
H864 N861 0.984 . S
H865 N861 0.985 . S
H866 N860 0.984 . S
H867 N860 0.984 . S
H868 N856 0.984 . S
H869 N856 0.985 . S
C870 C871 1.363 . S
C870 C876 1.379 . S
C870 N878 1.356 . S
C871 C870 1.363 . S
C871 C877 1.363 . S
C872 C873 1.363 . S
C872 C877 1.379 . S
C872 N879 1.356 . S
C873 C872 1.363 . S
C873 C876 1.363 . S
N874 C876 1.356 . S
N874 H886 0.984 . S
N874 H887 0.985 . S
N875 C877 1.356 . S
N875 H880 0.984 . S
N875 H881 0.985 . S
C876 C870 1.379 . S
C876 C873 1.363 . S
C876 N874 1.356 . S
C877 C871 1.363 . S
C877 C872 1.379 . S
C877 N875 1.356 . S
N878 C870 1.356 . S
N878 H884 0.984 . S
N878 H885 0.984 . S
N879 C872 1.356 . S
N879 H882 0.984 . S
N879 H883 0.985 . S
H880 N875 0.984 . S
H881 N875 0.985 . S
H882 N879 0.984 . S
H883 N879 0.985 . S
H884 N878 0.984 . S
H885 N878 0.984 . S
H886 N874 0.984 . S
H887 N874 0.985 . S
C888 C889 1.363 . S
C888 C894 1.379 . S
C888 N896 1.356 1_565 S
C889 C888 1.363 . S
C889 C895 1.365 . S
C890 C891 1.363 . S
C890 C895 1.379 . S
C890 N897 1.356 . S
C891 C890 1.363 . S
C891 C894 1.363 . S
N892 C894 1.356 . S
N892 H904 0.984 . S
N892 H905 0.985 . S
N893 C895 1.356 . S
N893 H898 0.984 1_565 S
N893 H899 0.985 . S
C894 C888 1.379 . S
C894 C891 1.363 . S
C894 N892 1.356 . S
C895 C889 1.365 . S
C895 C890 1.379 . S
C895 N893 1.356 . S
N896 C888 1.356 1_545 S
N896 H902 0.984 . S
N896 H903 0.984 . S
N897 C890 1.356 . S
N897 H900 0.984 . S
N897 H901 0.985 . S
H898 N893 0.984 1_545 S
H899 N893 0.985 . S
H900 N897 0.984 . S
H901 N897 0.985 . S
H902 N896 0.984 . S
H903 N896 0.984 . S
H904 N892 0.984 . S
H905 N892 0.985 . S
C906 C907 1.362 1_655 S
C906 C912 1.379 . S
C906 N914 1.356 1_655 S
C907 C906 1.362 1_455 S
C907 C913 1.356 1_455 S
C908 C909 1.363 . S
C908 C913 1.379 . S
C908 N915 1.356 . S
C909 C908 1.363 . S
C909 C912 1.363 . S
N910 C912 1.356 . S
N910 H922 0.984 . S
N910 H923 0.985 . S
N911 C913 1.356 . S
N911 H916 0.984 1_655 S
N911 H917 0.985 . S
C912 C906 1.379 . S
C912 C909 1.363 . S
C912 N910 1.356 . S
C913 C907 1.356 1_655 S
C913 C908 1.379 . S
C913 N911 1.356 . S
N914 C906 1.356 1_455 S
N914 H920 0.984 . S
N914 H921 0.984 . S
N915 C908 1.356 . S
N915 H918 0.984 . S
N915 H919 0.985 . S
H916 N911 0.984 1_455 S
H917 N911 0.985 . S
H918 N915 0.984 . S
H919 N915 0.985 . S
H920 N914 0.984 . S
H921 N914 0.984 . S
H922 N910 0.984 . S
H923 N910 0.985 . S
C924 C925 1.363 1_545 S
C924 C930 1.379 . S
C924 N932 1.356 1_545 S
C925 C924 1.363 1_565 S
C925 C931 1.363 1_565 S
C926 C927 1.363 . S
C926 C931 1.379 . S
C926 N933 1.356 . S
C927 C926 1.363 . S
C927 C930 1.363 . S
N928 C930 1.356 . S
N928 H940 0.984 . S
N928 H941 0.985 . S
N929 C931 1.356 . S
N929 H934 0.984 1_545 S
N929 H935 0.985 . S
C930 C924 1.379 . S
C930 C927 1.363 . S
C930 N928 1.356 . S
C931 C925 1.363 1_545 S
C931 C926 1.379 . S
C931 N929 1.356 . S
N932 C924 1.356 1_565 S
N932 H938 0.984 . S
N932 H939 0.984 . S
N933 C926 1.356 . S
N933 H936 0.984 . S
N933 H937 0.985 . S
H934 N929 0.984 1_565 S
H935 N929 0.985 . S
H936 N933 0.984 . S
H937 N933 0.985 . S
H938 N932 0.984 . S
H939 N932 0.984 . S
H940 N928 0.984 . S
H941 N928 0.985 . S
C942 C943 1.363 . S
C942 C948 1.379 . S
C942 N950 1.356 . S
C943 C942 1.363 . S
C943 C949 1.363 . S
C944 C945 1.364 . S
C944 C949 1.379 . S
C944 N951 1.356 1_455 S
C945 C944 1.364 . S
C945 C948 1.367 . S
N946 C948 1.356 . S
N946 H958 0.984 . S
N946 H959 0.985 1_455 S
N947 C949 1.356 . S
N947 H952 0.984 . S
N947 H953 0.985 . S
C948 C942 1.379 . S
C948 C945 1.367 . S
C948 N946 1.356 . S
C949 C943 1.363 . S
C949 C944 1.379 . S
C949 N947 1.356 . S
N950 C942 1.356 . S
N950 H956 0.984 . S
N950 H957 0.984 . S
N951 C944 1.356 1_655 S
N951 H954 0.984 . S
N951 H955 0.985 . S
H952 N947 0.984 . S
H953 N947 0.985 . S
H954 N951 0.984 . S
H955 N951 0.985 . S
H956 N950 0.984 . S
H957 N950 0.984 . S
H958 N946 0.984 . S
H959 N946 0.985 1_655 S
C960 C961 1.363 . S
C960 C966 1.379 . S
C960 N968 1.356 . S
C961 C960 1.363 . S
C961 C967 1.363 . S
C962 C963 1.363 . S
C962 C967 1.379 . S
C962 N969 1.356 . S
C963 C962 1.363 . S
C963 C966 1.363 . S
N964 C966 1.356 . S
N964 H976 0.984 . S
N964 H977 0.985 . S
N965 C967 1.356 . S
N965 H970 0.984 . S
N965 H971 0.985 . S
C966 C960 1.379 . S
C966 C963 1.363 . S
C966 N964 1.356 . S
C967 C961 1.363 . S
C967 C962 1.379 . S
C967 N965 1.356 . S
N968 C960 1.356 . S
N968 H974 0.984 . S
N968 H975 0.984 . S
N969 C962 1.356 . S
N969 H972 0.984 . S
N969 H973 0.985 . S
H970 N965 0.984 . S
H971 N965 0.985 . S
H972 N969 0.984 . S
H973 N969 0.985 . S
H974 N968 0.984 . S
H975 N968 0.984 . S
H976 N964 0.984 . S
H977 N964 0.985 . S
C978 C979 1.363 . S
C978 C984 1.379 . S
C978 N986 1.356 . S
C979 C978 1.363 . S
C979 C985 1.363 . S
C980 C981 1.363 . S
C980 C985 1.379 . S
C980 N987 1.356 . S
C981 C980 1.363 . S
C981 C984 1.363 . S
N982 C984 1.356 . S
N982 H994 0.984 . S
N982 H995 0.985 . S
N983 C985 1.356 . S
N983 H988 0.984 . S
N983 H989 0.985 . S
C984 C978 1.379 . S
C984 C981 1.363 . S
C984 N982 1.356 . S
C985 C979 1.363 . S
C985 C980 1.379 . S
C985 N983 1.356 . S
N986 C978 1.356 . S
N986 H992 0.984 . S
N986 H993 0.984 . S
N987 C980 1.356 . S
N987 H990 0.984 . S
N987 H991 0.985 . S
H988 N983 0.984 . S
H989 N983 0.985 . S
H990 N987 0.984 . S
H991 N987 0.985 . S
H992 N986 0.984 . S
H993 N986 0.984 . S
H994 N982 0.984 . S
H995 N982 0.985 . S
C996 C997 1.363 . S
C996 C1002 1.379 . S
C996 N1004 1.356 . S
C997 C996 1.363 . S
C997 C1003 1.363 . S
C998 C999 1.363 . S
C998 C1003 1.379 . S
C998 N1005 1.356 . S
C999 C998 1.363 . S
C999 C1002 1.363 . S
N1000 C1002 1.356 . S
N1000 H1012 0.984 . S
N1000 H1013 0.985 . S
N1001 C1003 1.356 . S
N1001 H1006 0.984 . S
N1001 H1007 0.985 . S
C1002 C996 1.379 . S
C1002 C999 1.363 . S
C1002 N1000 1.356 . S
C1003 C997 1.363 . S
C1003 C998 1.379 . S
C1003 N1001 1.356 . S
N1004 C996 1.356 . S
N1004 H1010 0.984 . S
N1004 H1011 0.984 . S
N1005 C998 1.356 . S
N1005 H1008 0.984 . S
N1005 H1009 0.985 . S
H1006 N1001 0.984 . S
H1007 N1001 0.985 . S
H1008 N1005 0.984 . S
H1009 N1005 0.985 . S
H1010 N1004 0.984 . S
H1011 N1004 0.984 . S
H1012 N1000 0.984 . S
H1013 N1000 0.985 . S
C1014 C1015 1.363 . S
C1014 C1020 1.379 . S
C1014 N1022 1.356 . S
C1015 C1014 1.363 . S
C1015 C1021 1.363 . S
C1016 C1017 1.363 . S
C1016 C1021 1.379 . S
C1016 N1023 1.356 . S
C1017 C1016 1.363 . S
C1017 C1020 1.363 . S
N1018 C1020 1.356 . S
N1018 H1030 0.984 . S
N1018 H1031 0.985 . S
N1019 C1021 1.356 . S
N1019 H1024 0.984 . S
N1019 H1025 0.985 . S
C1020 C1014 1.379 . S
C1020 C1017 1.363 . S
C1020 N1018 1.356 . S
C1021 C1015 1.363 . S
C1021 C1016 1.379 . S
C1021 N1019 1.356 . S
N1022 C1014 1.356 . S
N1022 H1028 0.984 . S
N1022 H1029 0.984 . S
N1023 C1016 1.356 . S
N1023 H1026 0.984 . S
N1023 H1027 0.985 . S
H1024 N1019 0.984 . S
H1025 N1019 0.985 . S
H1026 N1023 0.984 . S
H1027 N1023 0.985 . S
H1028 N1022 0.984 . S
H1029 N1022 0.984 . S
H1030 N1018 0.984 . S
H1031 N1018 0.985 . S
C1032 C1033 1.363 . S
C1032 C1038 1.379 . S
C1032 N1040 1.356 . S
C1033 C1032 1.363 . S
C1033 C1039 1.363 . S
C1034 C1035 1.363 . S
C1034 C1039 1.379 . S
C1034 N1041 1.356 . S
C1035 C1034 1.363 . S
C1035 C1038 1.363 . S
N1036 C1038 1.356 . S
N1036 H1048 0.984 . S
N1036 H1049 0.985 . S
N1037 C1039 1.356 . S
N1037 H1042 0.984 . S
N1037 H1043 0.985 . S
C1038 C1032 1.379 . S
C1038 C1035 1.363 . S
C1038 N1036 1.356 . S
C1039 C1033 1.363 . S
C1039 C1034 1.379 . S
C1039 N1037 1.356 . S
N1040 C1032 1.356 . S
N1040 H1046 0.984 . S
N1040 H1047 0.984 . S
N1041 C1034 1.356 . S
N1041 H1044 0.984 . S
N1041 H1045 0.985 . S
H1042 N1037 0.984 . S
H1043 N1037 0.985 . S
H1044 N1041 0.984 . S
H1045 N1041 0.985 . S
H1046 N1040 0.984 . S
H1047 N1040 0.984 . S
H1048 N1036 0.984 . S
H1049 N1036 0.985 . S
C1050 C1051 1.363 . S
C1050 C1056 1.379 . S
C1050 N1058 1.356 . S
C1051 C1050 1.363 . S
C1051 C1057 1.363 . S
C1052 C1053 1.363 . S
C1052 C1057 1.379 . S
C1052 N1059 1.356 . S
C1053 C1052 1.363 . S
C1053 C1056 1.363 . S
N1054 C1056 1.356 . S
N1054 H1066 0.984 . S
N1054 H1067 0.985 . S
N1055 C1057 1.356 . S
N1055 H1060 0.984 . S
N1055 H1061 0.985 . S
C1056 C1050 1.379 . S
C1056 C1053 1.363 . S
C1056 N1054 1.356 . S
C1057 C1051 1.363 . S
C1057 C1052 1.379 . S
C1057 N1055 1.356 . S
N1058 C1050 1.356 . S
N1058 H1064 0.984 . S
N1058 H1065 0.984 . S
N1059 C1052 1.356 . S
N1059 H1062 0.984 . S
N1059 H1063 0.985 . S
H1060 N1055 0.984 . S
H1061 N1055 0.985 . S
H1062 N1059 0.984 . S
H1063 N1059 0.985 . S
H1064 N1058 0.984 . S
H1065 N1058 0.984 . S
H1066 N1054 0.984 . S
H1067 N1054 0.985 . S
C1068 C1069 1.363 . S
C1068 C1074 1.379 . S
C1068 N1076 1.356 . S
C1069 C1068 1.363 . S
C1069 C1075 1.363 . S
C1070 C1071 1.363 . S
C1070 C1075 1.379 . S
C1070 N1077 1.356 . S
C1071 C1070 1.363 . S
C1071 C1074 1.363 . S
N1072 C1074 1.356 . S
N1072 H1084 0.984 . S
N1072 H1085 0.985 . S
N1073 C1075 1.356 . S
N1073 H1078 0.984 . S
N1073 H1079 0.985 . S
C1074 C1068 1.379 . S
C1074 C1071 1.363 . S
C1074 N1072 1.356 . S
C1075 C1069 1.363 . S
C1075 C1070 1.379 . S
C1075 N1073 1.356 . S
N1076 C1068 1.356 . S
N1076 H1082 0.984 . S
N1076 H1083 0.984 . S
N1077 C1070 1.356 . S
N1077 H1080 0.984 . S
N1077 H1081 0.985 . S
H1078 N1073 0.984 . S
H1079 N1073 0.985 . S
H1080 N1077 0.984 . S
H1081 N1077 0.985 . S
H1082 N1076 0.984 . S
H1083 N1076 0.984 . S
H1084 N1072 0.984 . S
H1085 N1072 0.985 . S
C1086 C1087 1.363 . S
C1086 C1092 1.379 . S
C1086 N1094 1.356 . S
C1087 C1086 1.363 . S
C1087 C1093 1.363 . S
C1088 C1089 1.363 . S
C1088 C1093 1.379 . S
C1088 N1095 1.356 . S
C1089 C1088 1.363 . S
C1089 C1092 1.363 . S
N1090 C1092 1.356 . S
N1090 H1102 0.984 . S
N1090 H1103 0.985 . S
N1091 C1093 1.356 . S
N1091 H1096 0.984 . S
N1091 H1097 0.985 . S
C1092 C1086 1.379 . S
C1092 C1089 1.363 . S
C1092 N1090 1.356 . S
C1093 C1087 1.363 . S
C1093 C1088 1.379 . S
C1093 N1091 1.356 . S
N1094 C1086 1.356 . S
N1094 H1100 0.984 . S
N1094 H1101 0.984 . S
N1095 C1088 1.356 . S
N1095 H1098 0.984 . S
N1095 H1099 0.985 . S
H1096 N1091 0.984 . S
H1097 N1091 0.985 . S
H1098 N1095 0.984 . S
H1099 N1095 0.985 . S
H1100 N1094 0.984 . S
H1101 N1094 0.984 . S
H1102 N1090 0.984 . S
H1103 N1090 0.985 . S
C673 C67 1.477 . S
C675 C478 1.110 1_545 S
C691 C140 1.505 . S
C693 C562 1.430 1_455 S
C709 C235 1.543 . S
C711 C657 1.457 1_565 S
C727 C394 1.404 1_655 S
C729 C315 1.454 . S
C745 C489 1.467 . S
C747 C410 1.502 . S
C763 C573 1.151 . S
C765 C476 1.529 . S
C781 C646 1.120 . S
C783 C578 1.438 . S
C799 C651 1.474 . S
C801 C405 1.143 . S
C817 C571 1.477 . S
C819 C310 1.117 . S
C835 C644 1.505 . S
C837 C58 1.434 . S
C853 C153 1.470 . S
C855 C403 1.543 . S
C871 C226 1.422 . S
C873 C483 1.454 . S
C889 C321 1.465 1_565 S
C891 C242 1.502 . S
C907 C69 1.159 . S
C909 C308 1.529 . S
C925 C142 1.120 . S
C927 C74 1.438 . S
C943 C147 1.474 . S
C945 C237 1.138 1_455 S
C961 C392 2.695 1_554 S
C963 C63 2.760 . S
C979 C494 2.753 1_556 S
C981 C158 2.751 . S
C997 C231 2.757 . S
C999 C560 2.696 1_554 S
C1015 C319 2.702 . S
C1017 C655 2.704 1_556 S
C1033 C224 2.695 . S
C1035 C567 2.760 . S
C1051 C326 2.753 . S
C1053 C662 2.751 . S
C1069 C399 2.757 . S
C1071 C56 2.696 . S
C1087 C487 2.702 . S
C1089 C151 2.704 . S
