# Generated by pormake.
# Topology vbf, (5)-cn, num edge types: 1
# Building blocks:
#     Node 0, Type 0, BuildingBlock: XOMCOT_clean_sbu_1, # of connection points: 5
#     Node 1, Type 0, BuildingBlock: XOMCOT_clean_sbu_1, # of connection points: 5
#     Node 2, Type 0, BuildingBlock: XOMCOT_clean_sbu_1, # of connection points: 5
#     Node 3, Type 0, BuildingBlock: XOMCOT_clean_sbu_1, # of connection points: 5
#     Node 4, Type 0, BuildingBlock: XOMCOT_clean_sbu_1, # of connection points: 5
#     Node 5, Type 0, BuildingBlock: XOMCOT_clean_sbu_1, # of connection points: 5
#     Node 6, Type 0, BuildingBlock: XOMCOT_clean_sbu_1, # of connection points: 5
#     Node 7, Type 0, BuildingBlock: XOMCOT_clean_sbu_1, # of connection points: 5
#     Node 8, Type 0, BuildingBlock: XOMCOT_clean_sbu_1, # of connection points: 5
#     Node 9, Type 0, BuildingBlock: XOMCOT_clean_sbu_1, # of connection points: 5
#     Node 10, Type 0, BuildingBlock: XOMCOT_clean_sbu_1, # of connection points: 5
#     Node 11, Type 0, BuildingBlock: XOMCOT_clean_sbu_1, # of connection points: 5
#     Node 12, Type 0, BuildingBlock: XOMCOT_clean_sbu_1, # of connection points: 5
#     Node 13, Type 0, BuildingBlock: XOMCOT_clean_sbu_1, # of connection points: 5
#     Node 14, Type 0, BuildingBlock: XOMCOT_clean_sbu_1, # of connection points: 5
#     Node 15, Type 0, BuildingBlock: XOMCOT_clean_sbu_1, # of connection points: 5
#     Edge 16, Type (0, 0), BuildingBlock: UVAHIK_clean_linker_0, # of connection points: 2
#     Edge 17, Type (0, 0), BuildingBlock: UVAHIK_clean_linker_0, # of connection points: 2
#     Edge 18, Type (0, 0), BuildingBlock: UVAHIK_clean_linker_0, # of connection points: 2
#     Edge 19, Type (0, 0), BuildingBlock: UVAHIK_clean_linker_0, # of connection points: 2
#     Edge 20, Type (0, 0), BuildingBlock: UVAHIK_clean_linker_0, # of connection points: 2
#     Edge 21, Type (0, 0), BuildingBlock: UVAHIK_clean_linker_0, # of connection points: 2
#     Edge 22, Type (0, 0), BuildingBlock: UVAHIK_clean_linker_0, # of connection points: 2
#     Edge 23, Type (0, 0), BuildingBlock: UVAHIK_clean_linker_0, # of connection points: 2
#     Edge 24, Type (0, 0), BuildingBlock: UVAHIK_clean_linker_0, # of connection points: 2
#     Edge 25, Type (0, 0), BuildingBlock: UVAHIK_clean_linker_0, # of connection points: 2
#     Edge 26, Type (0, 0), BuildingBlock: UVAHIK_clean_linker_0, # of connection points: 2
#     Edge 27, Type (0, 0), BuildingBlock: UVAHIK_clean_linker_0, # of connection points: 2
#     Edge 28, Type (0, 0), BuildingBlock: UVAHIK_clean_linker_0, # of connection points: 2
#     Edge 29, Type (0, 0), BuildingBlock: UVAHIK_clean_linker_0, # of connection points: 2
#     Edge 30, Type (0, 0), BuildingBlock: UVAHIK_clean_linker_0, # of connection points: 2
#     Edge 31, Type (0, 0), BuildingBlock: UVAHIK_clean_linker_0, # of connection points: 2
#     Edge 32, Type (0, 0), BuildingBlock: UVAHIK_clean_linker_0, # of connection points: 2
#     Edge 33, Type (0, 0), BuildingBlock: UVAHIK_clean_linker_0, # of connection points: 2
#     Edge 34, Type (0, 0), BuildingBlock: UVAHIK_clean_linker_0, # of connection points: 2
#     Edge 35, Type (0, 0), BuildingBlock: UVAHIK_clean_linker_0, # of connection points: 2
#     Edge 36, Type (0, 0), BuildingBlock: UVAHIK_clean_linker_0, # of connection points: 2
#     Edge 37, Type (0, 0), BuildingBlock: UVAHIK_clean_linker_0, # of connection points: 2
#     Edge 38, Type (0, 0), BuildingBlock: UVAHIK_clean_linker_0, # of connection points: 2
#     Edge 39, Type (0, 0), BuildingBlock: UVAHIK_clean_linker_0, # of connection points: 2
#     Edge 40, Type (0, 0), BuildingBlock: UVAHIK_clean_linker_0, # of connection points: 2
#     Edge 41, Type (0, 0), BuildingBlock: UVAHIK_clean_linker_0, # of connection points: 2
#     Edge 42, Type (0, 0), BuildingBlock: UVAHIK_clean_linker_0, # of connection points: 2
#     Edge 43, Type (0, 0), BuildingBlock: UVAHIK_clean_linker_0, # of connection points: 2
#     Edge 44, Type (0, 0), BuildingBlock: UVAHIK_clean_linker_0, # of connection points: 2
#     Edge 45, Type (0, 0), BuildingBlock: UVAHIK_clean_linker_0, # of connection points: 2
#     Edge 46, Type (0, 0), BuildingBlock: UVAHIK_clean_linker_0, # of connection points: 2
#     Edge 47, Type (0, 0), BuildingBlock: UVAHIK_clean_linker_0, # of connection points: 2
#     Edge 48, Type (0, 0), BuildingBlock: UVAHIK_clean_linker_0, # of connection points: 2
#     Edge 49, Type (0, 0), BuildingBlock: UVAHIK_clean_linker_0, # of connection points: 2
#     Edge 50, Type (0, 0), BuildingBlock: UVAHIK_clean_linker_0, # of connection points: 2
#     Edge 51, Type (0, 0), BuildingBlock: UVAHIK_clean_linker_0, # of connection points: 2
#     Edge 52, Type (0, 0), BuildingBlock: UVAHIK_clean_linker_0, # of connection points: 2
#     Edge 53, Type (0, 0), BuildingBlock: UVAHIK_clean_linker_0, # of connection points: 2
#     Edge 54, Type (0, 0), BuildingBlock: UVAHIK_clean_linker_0, # of connection points: 2
#     Edge 55, Type (0, 0), BuildingBlock: UVAHIK_clean_linker_0, # of connection points: 2
# Relax obj value: 0.078
# Max RMSD: 0.168
# Mean RMSD: 0.162
data_MOF--net-vbf--node1-XOMCOT_clean_sbu_1--edge1-UVAHIK_clean_linker_0
_symmetry_space_group_name_H-M    P1
_symmetry_Int_Tables_number       1
_symmetry_cell_setting            triclinic
loop_
_symmetry_equiv_pos_as_xyz
'x, y, z'
_cell_length_a     52.736852
_cell_length_b     93.898579
_cell_length_c     35.036478
_cell_angle_alpha  90.068229
_cell_angle_beta   89.920684
_cell_angle_gamma 79.571697
loop_
_atom_site_label
_atom_site_type_symbol
_atom_site_fract_x
_atom_site_fract_y
_atom_site_fract_z
_atom_type_partial_charge
C0 C 0.08461 0.33172 0.92978 0.0
C1 C 0.09455 0.34284 0.91355 0.0
N2 N 0.10996 0.34771 0.93922 0.0
N3 N 0.09403 0.32928 0.96543 0.0
C4 C 0.10863 0.3396 0.97084 0.0
H5 H 0.07161 0.32566 0.91602 0.0
Co6 Co 0.08622 0.31499 0.99924 0.0
C7 C 0.1454 0.30837 0.99719 0.0
O8 O 0.14776 0.31663 0.96772 0.0
N9 N 0.07798 0.301 0.03275 0.0
C10 C 0.07671 0.27956 0.05875 0.0
C11 C 0.08898 0.28684 0.03264 0.0
C12 C 0.05924 0.30211 0.05961 0.0
N13 N 0.05807 0.28917 0.07569 0.0
O14 O 0.08408 0.32858 0.04107 0.0
H15 H 0.10444 0.28202 0.01382 0.0
H16 H 0.04617 0.31207 0.06634 0.0
O17 O 0.12306 0.30726 0.00993 0.0
C18 C 0.0635 0.33807 0.03836 0.0
O19 O 0.04845 0.33757 0.00871 0.0
N20 N 0.0853 0.30206 0.95811 0.0
C21 C 0.07549 0.28435 0.89784 0.0
C22 C 0.10024 0.28752 0.90326 0.0
C23 C 0.10482 0.29635 0.93385 0.0
C24 C 0.06106 0.29928 0.95264 0.0
C25 C 0.05582 0.29029 0.92312 0.0
H26 H 0.12383 0.29878 0.93714 0.0
H27 H 0.04559 0.30418 0.97138 0.0
H28 H 0.11888 0.34076 0.99708 0.0
H29 H 0.09146 0.3466 0.88445 0.0
H30 H 0.08101 0.26807 0.06475 0.0
H31 H 0.11586 0.2832 0.88406 0.0
H32 H 0.03635 0.28832 0.91946 0.0
C33 C 0.92946 0.68079 0.94015 0.0
C34 C 0.9138 0.67152 0.92837 0.0
N35 N 0.89174 0.67434 0.94858 0.0
N36 N 0.91748 0.68958 0.96766 0.0
C37 C 0.89433 0.68543 0.97221 0.0
H38 H 0.94877 0.68085 0.92988 0.0
Co39 Co 0.93426 0.70277 0.99278 0.0
C40 C 0.89393 0.72719 0.01921 0.0
O41 O 0.91058 0.73592 0.0154 0.0
N42 N 0.95268 0.71576 0.01831 0.0
C43 C 0.97576 0.7329 0.03104 0.0
C44 C 0.96535 0.7257 0.00279 0.0
C45 C 0.95624 0.71712 0.0565 0.0
N46 N 0.97005 0.72753 0.0648 0.0
O47 O 0.93743 0.69073 0.03747 0.0
H48 H 0.96664 0.72814 0.97294 0.0
H49 H 0.9483 0.71091 0.07797 0.0
O50 O 0.90075 0.71373 0.01098 0.0
C51 C 0.95646 0.68031 0.03398 0.0
O52 O 0.97011 0.67934 0.00238 0.0
N53 N 0.93306 0.71344 0.94702 0.0
C54 C 0.93923 0.7268 0.87731 0.0
C55 C 0.91581 0.73 0.89733 0.0
C56 C 0.91287 0.72292 0.93181 0.0
C57 C 0.95533 0.70961 0.92673 0.0
C58 C 0.95894 0.71624 0.89211 0.0
H59 H 0.89431 0.725 0.94562 0.0
H60 H 0.97085 0.70171 0.93844 0.0
H61 H 0.88013 0.69003 0.99323 0.0
H62 H 0.9184 0.66323 0.90668 0.0
H63 H 0.98677 0.74147 0.02704 0.0
H64 H 0.89981 0.73775 0.88617 0.0
H65 H 0.97733 0.7134 0.87763 0.0
C66 C 0.17137 0.53116 0.26082 0.0
C67 C 0.15266 0.52273 0.26285 0.0
N68 N 0.12939 0.53148 0.26198 0.0
N69 N 0.16009 0.5452 0.25867 0.0
C70 C 0.13446 0.54508 0.25942 0.0
H71 H 0.19199 0.52732 0.26088 0.0
Co72 Co 0.17866 0.56033 0.25659 0.0
C73 C 0.14406 0.58366 0.21515 0.0
O74 O 0.16302 0.58489 0.19187 0.0
N75 N 0.19836 0.57585 0.25523 0.0
C76 C 0.2235 0.59145 0.237 0.0
C77 C 0.21125 0.58049 0.2255 0.0
C78 C 0.20358 0.58433 0.28467 0.0
N79 N 0.2188 0.59381 0.27431 0.0
O80 O 0.17089 0.56409 0.30923 0.0
H81 H 0.21192 0.57631 0.19673 0.0
H82 H 0.19653 0.58366 0.31344 0.0
O83 O 0.14737 0.57397 0.24121 0.0
C84 C 0.1895 0.55633 0.32698 0.0
O85 O 0.20869 0.54898 0.30719 0.0
N86 N 0.1885 0.55465 0.20684 0.0
C87 C 0.20954 0.53966 0.14212 0.0
C88 C 0.18313 0.5457 0.14367 0.0
C89 C 0.17285 0.5531 0.17665 0.0
C90 C 0.21389 0.54836 0.20612 0.0
C91 C 0.22492 0.54116 0.17386 0.0
H92 H 0.15229 0.55694 0.17861 0.0
H93 H 0.2256 0.54875 0.23128 0.0
H94 H 0.1198 0.55476 0.25883 0.0
H95 H 0.15597 0.51103 0.26434 0.0
H96 H 0.23572 0.59692 0.21954 0.0
H97 H 0.17051 0.54442 0.12004 0.0
H98 H 0.24513 0.53621 0.17446 0.0
C99 C 0.84368 0.4834 0.27954 0.0
C100 C 0.86273 0.49161 0.28152 0.0
N101 N 0.88551 0.48301 0.27378 0.0
N102 N 0.85425 0.46965 0.2707 0.0
C103 C 0.87981 0.46972 0.2672 0.0
H104 H 0.8233 0.48723 0.2841 0.0
Co105 Co 0.83457 0.45512 0.26583 0.0
C106 C 0.86866 0.43042 0.22789 0.0
O107 O 0.84909 0.42828 0.20701 0.0
N108 N 0.8133 0.44036 0.26158 0.0
C109 C 0.78442 0.42732 0.2413 0.0
C110 C 0.79868 0.4376 0.23159 0.0
C111 C 0.80736 0.43131 0.28919 0.0
N112 N 0.78968 0.42341 0.2777 0.0
O113 O 0.83973 0.45105 0.31902 0.0
H114 H 0.79818 0.44259 0.20381 0.0
H115 H 0.81554 0.43056 0.31752 0.0
O116 O 0.86576 0.4409 0.25187 0.0
C117 C 0.81957 0.45816 0.33498 0.0
O118 O 0.80096 0.465 0.31336 0.0
N119 N 0.82722 0.46119 0.21584 0.0
C120 C 0.80875 0.47588 0.14969 0.0
C121 C 0.8342 0.46815 0.15129 0.0
C122 C 0.84323 0.46089 0.18504 0.0
C123 C 0.80305 0.4693 0.2151 0.0
C124 C 0.79324 0.47642 0.1822 0.0
H125 H 0.86312 0.45552 0.18677 0.0
H126 H 0.79119 0.47016 0.24047 0.0
H127 H 0.89401 0.46024 0.26046 0.0
H128 H 0.85992 0.50309 0.28759 0.0
H129 H 0.7705 0.42345 0.22321 0.0
H130 H 0.84697 0.46788 0.12696 0.0
H131 H 0.77384 0.48268 0.18261 0.0
C132 C 0.07573 0.83708 0.4394 0.0
C133 C 0.08652 0.84752 0.42146 0.0
N134 N 0.10853 0.84871 0.43956 0.0
N135 N 0.09102 0.83135 0.46847 0.0
C136 C 0.11024 0.83921 0.46887 0.0
H137 H 0.0578 0.83396 0.43132 0.0
Co138 Co 0.08524 0.81609 0.5009 0.0
C139 C 0.14243 0.8081 0.48519 0.0
O140 O 0.13936 0.81232 0.44947 0.0
N141 N 0.07899 0.80125 0.53316 0.0
C142 C 0.08229 0.78008 0.56276 0.0
C143 C 0.09408 0.78814 0.538 0.0
C144 C 0.05802 0.80083 0.55512 0.0
N145 N 0.05958 0.78806 0.57355 0.0
O146 O 0.08443 0.82888 0.54414 0.0
H147 H 0.11232 0.78449 0.52396 0.0
H148 H 0.04161 0.80956 0.5568 0.0
O149 O 0.12278 0.80911 0.50726 0.0
C150 C 0.06151 0.83607 0.54685 0.0
O151 O 0.04459 0.83404 0.52084 0.0
N152 N 0.08253 0.80389 0.45871 0.0
C153 C 0.0678 0.78796 0.39773 0.0
C154 C 0.0928 0.78458 0.41283 0.0
C155 C 0.09975 0.7926 0.44371 0.0
C156 C 0.05769 0.80646 0.44613 0.0
C157 C 0.05005 0.7989 0.41526 0.0
H158 H 0.11864 0.78933 0.45579 0.0
H159 H 0.04361 0.81456 0.46027 0.0
H160 H 0.12591 0.8375 0.48921 0.0
H161 H 0.0788 0.85365 0.39662 0.0
H162 H 0.08998 0.76919 0.57225 0.0
H163 H 0.10688 0.77591 0.40075 0.0
H164 H 0.03027 0.80149 0.40548 0.0
C165 C 0.94183 0.18227 0.43455 0.0
C166 C 0.92926 0.17314 0.41425 0.0
N167 N 0.90653 0.17277 0.4315 0.0
N168 N 0.92712 0.18773 0.46446 0.0
C169 C 0.90578 0.18165 0.4621 0.0
H170 H 0.96036 0.18501 0.42761 0.0
Co171 Co 0.93581 0.20155 0.49805 0.0
C172 C 0.88701 0.21261 0.53763 0.0
O173 O 0.89887 0.21046 0.57064 0.0
N174 N 0.94466 0.21552 0.53146 0.0
C175 C 0.947 0.23679 0.55781 0.0
C176 C 0.93503 0.22986 0.53052 0.0
C177 C 0.9623 0.21397 0.55988 0.0
N178 N 0.96409 0.22679 0.57626 0.0
O179 O 0.93737 0.18797 0.53966 0.0
H180 H 0.92035 0.23499 0.51094 0.0
H181 H 0.97399 0.20372 0.5679 0.0
O182 O 0.8995 0.20915 0.50679 0.0
C183 C 0.95769 0.17828 0.53731 0.0
O184 O 0.97338 0.17872 0.50836 0.0
N185 N 0.93661 0.2142 0.45684 0.0
C186 C 0.94392 0.23139 0.39436 0.0
C187 C 0.91977 0.22758 0.40125 0.0
C188 C 0.91644 0.21898 0.43291 0.0
C189 C 0.96028 0.21755 0.45005 0.0
C190 C 0.96426 0.22632 0.41936 0.0
H191 H 0.89793 0.21588 0.43759 0.0
H192 H 0.97625 0.21329 0.46856 0.0
H193 H 0.88968 0.18402 0.48169 0.0
H194 H 0.9363 0.16724 0.38866 0.0
H195 H 0.94326 0.24829 0.56391 0.0
H196 H 0.90368 0.23117 0.3823 0.0
H197 H 0.98333 0.22873 0.41453 0.0
C198 C 0.16982 0.03148 0.7858 0.0
C199 C 0.15099 0.02312 0.78707 0.0
N200 N 0.12833 0.03146 0.77746 0.0
N201 N 0.15923 0.04505 0.77545 0.0
C202 C 0.13389 0.04473 0.77043 0.0
H203 H 0.19002 0.02793 0.79226 0.0
Co204 Co 0.17845 0.05978 0.77224 0.0
C205 C 0.14559 0.08458 0.73367 0.0
O206 O 0.16607 0.08718 0.71559 0.0
N207 N 0.19911 0.07473 0.76991 0.0
C208 C 0.22835 0.0881 0.75347 0.0
C209 C 0.21675 0.07674 0.7432 0.0
C210 C 0.20056 0.08524 0.79615 0.0
N211 N 0.21831 0.09341 0.78692 0.0
O212 O 0.17119 0.06386 0.82494 0.0
H213 H 0.22111 0.07056 0.71732 0.0
H214 H 0.18896 0.08688 0.82178 0.0
O215 O 0.14755 0.07374 0.75632 0.0
C216 C 0.1911 0.0578 0.84328 0.0
O217 O 0.21168 0.05181 0.82404 0.0
N218 N 0.18767 0.0537 0.7227 0.0
C219 C 0.20886 0.03904 0.65766 0.0
C220 C 0.18401 0.04758 0.65662 0.0
C221 C 0.17355 0.05478 0.68983 0.0
C222 C 0.21113 0.04484 0.72443 0.0
C223 C 0.22226 0.03766 0.69226 0.0
H224 H 0.15404 0.06075 0.6893 0.0
H225 H 0.22137 0.04344 0.75126 0.0
H226 H 0.1197 0.05408 0.76263 0.0
H227 H 0.15383 0.01173 0.79427 0.0
H228 H 0.24362 0.09188 0.73796 0.0
H229 H 0.17278 0.04857 0.6306 0.0
H230 H 0.24102 0.03077 0.69477 0.0
C231 C 0.84165 0.98487 0.7657 0.0
C232 C 0.86072 0.99307 0.76729 0.0
N233 N 0.88372 0.98406 0.76775 0.0
N234 N 0.85244 0.97073 0.76516 0.0
C235 C 0.87816 0.97055 0.76644 0.0
H236 H 0.82112 0.98896 0.76493 0.0
Co237 Co 0.83301 0.95598 0.76401 0.0
C238 C 0.86802 0.93082 0.72807 0.0
O239 O 0.84884 0.92753 0.70825 0.0
N240 N 0.81189 0.94111 0.76352 0.0
C241 C 0.78271 0.92789 0.74535 0.0
C242 C 0.7992 0.93668 0.73333 0.0
C243 C 0.80259 0.9345 0.79372 0.0
N244 N 0.7846 0.92663 0.78342 0.0
O245 O 0.83969 0.9529 0.81721 0.0
H246 H 0.80108 0.93981 0.70396 0.0
H247 H 0.80768 0.93598 0.8231 0.0
O248 O 0.86429 0.94181 0.75034 0.0
C249 C 0.82156 0.96152 0.83386 0.0
O250 O 0.80312 0.96899 0.81306 0.0
N251 N 0.82443 0.96094 0.71362 0.0
C252 C 0.805 0.97426 0.64615 0.0
C253 C 0.83089 0.96725 0.64842 0.0
C254 C 0.84036 0.96065 0.68277 0.0
C255 C 0.79961 0.96817 0.71207 0.0
C256 C 0.78936 0.9746 0.67852 0.0
H257 H 0.86056 0.95592 0.68499 0.0
H258 H 0.78774 0.96903 0.73746 0.0
H259 H 0.89251 0.96074 0.76711 0.0
H260 H 0.85785 1.00478 0.76754 0.0
H261 H 0.76971 0.92313 0.72749 0.0
H262 H 0.8437 0.9671 0.62418 0.0
H263 H 0.76957 0.98032 0.67841 0.0
C264 C 0.57655 0.33344 0.43669 0.0
C265 C 0.58824 0.34362 0.41909 0.0
N266 N 0.6082 0.34586 0.44078 0.0
N267 N 0.58933 0.32896 0.46911 0.0
C268 C 0.60783 0.33725 0.47159 0.0
H269 H 0.5601 0.32942 0.42567 0.0
Co270 Co 0.58323 0.31415 0.50264 0.0
C271 C 0.6401 0.30596 0.48537 0.0
O272 O 0.63666 0.31061 0.45006 0.0
N273 N 0.57682 0.2997 0.53611 0.0
C274 C 0.57962 0.27863 0.56606 0.0
C275 C 0.59136 0.28642 0.54053 0.0
C276 C 0.55624 0.29969 0.5592 0.0
N277 N 0.5575 0.28698 0.5778 0.0
O278 O 0.58377 0.32719 0.54494 0.0
H279 H 0.60915 0.28244 0.52557 0.0
H280 H 0.54024 0.30864 0.56153 0.0
O281 O 0.6207 0.30677 0.50786 0.0
C282 C 0.56114 0.33463 0.54878 0.0
O283 O 0.54319 0.33255 0.5245 0.0
N284 N 0.57938 0.3017 0.46143 0.0
C285 C 0.56319 0.28457 0.40408 0.0
C286 C 0.58886 0.28196 0.41679 0.0
C287 C 0.59649 0.29049 0.44596 0.0
C288 C 0.55419 0.30395 0.45047 0.0
C289 C 0.54575 0.2957 0.4216 0.0
H290 H 0.61581 0.28755 0.45666 0.0
H291 H 0.54048 0.31234 0.46429 0.0
H292 H 0.622 0.33619 0.49423 0.0
H293 H 0.58289 0.34867 0.3918 0.0
H294 H 0.58687 0.26765 0.57532 0.0
H295 H 0.60278 0.27313 0.40509 0.0
H296 H 0.52574 0.29815 0.41293 0.0
C297 C 0.43353 0.67257 0.46648 0.0
C298 C 0.41751 0.6635 0.45432 0.0
N299 N 0.39326 0.671 0.45404 0.0
N300 N 0.41948 0.68572 0.47447 0.0
C301 C 0.3949 0.6845 0.46604 0.0
H302 H 0.4542 0.66966 0.46951 0.0
Co303 Co 0.43401 0.7008 0.49495 0.0
C304 C 0.38822 0.71418 0.54302 0.0
O305 O 0.39951 0.71086 0.57601 0.0
N306 N 0.44967 0.71573 0.51565 0.0
C307 C 0.47509 0.73215 0.52131 0.0
C308 C 0.46367 0.72404 0.4962 0.0
C309 C 0.45334 0.7189 0.55279 0.0
N310 N 0.46879 0.72883 0.55703 0.0
O311 O 0.44082 0.6899 0.54157 0.0
H312 H 0.46657 0.72384 0.46568 0.0
H313 H 0.44638 0.7133 0.57642 0.0
O314 O 0.40026 0.71044 0.512 0.0
C315 C 0.4639 0.68286 0.54103 0.0
O316 O 0.47877 0.68476 0.51203 0.0
N317 N 0.4291 0.71069 0.44819 0.0
C318 C 0.43296 0.72579 0.38038 0.0
C319 C 0.41557 0.73168 0.40912 0.0
C320 C 0.41393 0.72397 0.44292 0.0
C321 C 0.44512 0.70448 0.41989 0.0
C322 C 0.44732 0.71181 0.38576 0.0
H323 H 0.4017 0.72914 0.46557 0.0
H324 H 0.45745 0.69412 0.42477 0.0
H325 H 0.37846 0.69313 0.46946 0.0
H326 H 0.42321 0.65225 0.4461 0.0
H327 H 0.48767 0.73961 0.51373 0.0
H328 H 0.40394 0.74238 0.4061 0.0
H329 H 0.4613 0.70689 0.36476 0.0
C330 C 0.67164 0.53129 0.77783 0.0
C331 C 0.65221 0.52336 0.77948 0.0
N332 N 0.62961 0.53232 0.77312 0.0
N333 N 0.66151 0.54523 0.77046 0.0
C334 C 0.63581 0.54555 0.76761 0.0
H335 H 0.69197 0.52718 0.78186 0.0
Co336 Co 0.68199 0.55942 0.76754 0.0
C337 C 0.65029 0.58527 0.7319 0.0
O338 O 0.67092 0.58785 0.71418 0.0
N339 N 0.70402 0.57374 0.76556 0.0
C340 C 0.73613 0.58539 0.75102 0.0
C341 C 0.72196 0.57536 0.73891 0.0
C342 C 0.70748 0.58341 0.79318 0.0
N343 N 0.72713 0.59037 0.78526 0.0
O344 O 0.67585 0.56326 0.82063 0.0
H345 H 0.72513 0.56963 0.71217 0.0
H346 H 0.69681 0.58483 0.81969 0.0
O347 O 0.65178 0.57409 0.75323 0.0
C348 C 0.69554 0.55605 0.83735 0.0
O349 O 0.71439 0.54893 0.81653 0.0
N350 N 0.69007 0.55366 0.71736 0.0
C351 C 0.70915 0.53948 0.65062 0.0
C352 C 0.68462 0.54836 0.65113 0.0
C353 C 0.67526 0.55537 0.68516 0.0
C354 C 0.71319 0.54443 0.71755 0.0
C355 C 0.72333 0.53752 0.68446 0.0
H356 H 0.65601 0.56169 0.6858 0.0
H357 H 0.724 0.54256 0.74381 0.0
H358 H 0.62185 0.55529 0.7624 0.0
H359 H 0.65462 0.51183 0.78459 0.0
H360 H 0.7523 0.58852 0.73623 0.0
H361 H 0.67282 0.54977 0.62566 0.0
H362 H 0.74191 0.53037 0.68561 0.0
C363 C 0.34196 0.48647 0.76564 0.0
C364 C 0.36093 0.49471 0.76821 0.0
N365 N 0.38403 0.48583 0.76632 0.0
N366 N 0.35293 0.47241 0.7622 0.0
C367 C 0.37863 0.47234 0.76268 0.0
H368 H 0.3214 0.49046 0.76593 0.0
Co369 Co 0.33397 0.45746 0.75808 0.0
C370 C 0.36969 0.43607 0.7105 0.0
O371 O 0.35137 0.43588 0.68537 0.0
N372 N 0.3138 0.44221 0.75456 0.0
C373 C 0.28672 0.42818 0.73338 0.0
C374 C 0.30291 0.43742 0.72312 0.0
C375 C 0.30387 0.43531 0.78362 0.0
N376 N 0.2871 0.42695 0.77155 0.0
O377 O 0.34204 0.45258 0.81018 0.0
H378 H 0.305 0.44103 0.69425 0.0
H379 H 0.30758 0.4369 0.81341 0.0
O380 O 0.36519 0.44406 0.74027 0.0
C381 C 0.32434 0.46081 0.82878 0.0
O382 O 0.30569 0.46895 0.80977 0.0
N383 N 0.32371 0.46424 0.70924 0.0
C384 C 0.30204 0.47989 0.646 0.0
C385 C 0.32876 0.47474 0.64784 0.0
C386 C 0.33933 0.46706 0.68011 0.0
C387 C 0.29797 0.46976 0.70847 0.0
C388 C 0.28667 0.47728 0.67689 0.0
H389 H 0.36002 0.4639 0.68234 0.0
H390 H 0.28615 0.4685 0.73306 0.0
H391 H 0.39311 0.4626 0.76082 0.0
H392 H 0.35789 0.5064 0.77054 0.0
H393 H 0.27478 0.42321 0.71423 0.0
H394 H 0.34138 0.47686 0.62494 0.0
H395 H 0.26617 0.48156 0.6774 0.0
C396 C 0.57937 0.83287 0.93404 0.0
C397 C 0.59042 0.84388 0.91951 0.0
N398 N 0.60699 0.84744 0.94553 0.0
N399 N 0.5891 0.82925 0.96904 0.0
C400 C 0.60534 0.83864 0.97565 0.0
H401 H 0.56537 0.82776 0.91948 0.0
Co402 Co 0.58072 0.81467 1.00146 0.0
C403 C 0.63881 0.80683 0.99315 0.0
O404 O 0.6388 0.81324 0.95987 0.0
N405 N 0.57211 0.80041 0.03353 0.0
C406 C 0.57169 0.77891 0.05961 0.0
C407 C 0.58413 0.78645 0.03438 0.0
C408 C 0.55241 0.80113 0.05866 0.0
N409 N 0.55171 0.78813 0.07486 0.0
O410 O 0.57962 0.82765 0.0444 0.0
H411 H 0.60064 0.78192 0.01714 0.0
H412 H 0.53847 0.81088 0.06421 0.0
O413 O 0.61756 0.80664 0.01073 0.0
C414 C 0.55888 0.83704 0.04213 0.0
O415 O 0.54343 0.8364 0.01303 0.0
N416 N 0.57833 0.80247 0.95938 0.0
C417 C 0.56397 0.78662 0.89794 0.0
C418 C 0.58995 0.78518 0.90883 0.0
C419 C 0.59675 0.79312 0.93992 0.0
C420 C 0.55301 0.80369 0.94973 0.0
C421 C 0.54542 0.79597 0.91911 0.0
H422 H 0.61665 0.79142 0.94826 0.0
H423 H 0.53859 0.81098 0.96573 0.0
H424 H 0.6164 0.83867 1.00164 0.0
H425 H 0.58719 0.84851 0.89127 0.0
H426 H 0.577 0.76751 0.06631 0.0
H427 H 0.60486 0.77784 0.8938 0.0
H428 H 0.52518 0.79759 0.91164 0.0
C429 C 0.42577 0.17927 0.94093 0.0
C430 C 0.40736 0.17242 0.92545 0.0
N431 N 0.38522 0.17669 0.9447 0.0
N432 N 0.41534 0.18801 0.96961 0.0
C433 C 0.39051 0.18607 0.97161 0.0
H434 H 0.44555 0.17807 0.93147 0.0
Co435 Co 0.43437 0.19995 0.99552 0.0
C436 C 0.39669 0.22457 0.02783 0.0
O437 O 0.41418 0.23286 0.02543 0.0
N438 N 0.45492 0.21157 0.02162 0.0
C439 C 0.48366 0.22554 0.03544 0.0
C440 C 0.47117 0.21973 0.00668 0.0
C441 C 0.45808 0.21269 0.05993 0.0
N442 N 0.47554 0.22108 0.06899 0.0
O443 O 0.43787 0.18702 0.0384 0.0
H444 H 0.4742 0.22156 0.97686 0.0
H445 H 0.44803 0.20731 0.08083 0.0
O446 O 0.40227 0.21134 0.01693 0.0
C447 C 0.4568 0.17664 0.03335 0.0
O448 O 0.46959 0.17602 1.00101 0.0
N449 N 0.4328 0.21158 0.95135 0.0
C450 C 0.43823 0.22592 0.8828 0.0
C451 C 0.41595 0.22977 0.90521 0.0
C452 C 0.41332 0.22222 0.93905 0.0
C453 C 0.45379 0.20719 0.92868 0.0
C454 C 0.45706 0.21428 0.89464 0.0
H455 H 0.39547 0.22489 0.9546 0.0
H456 H 0.46868 0.19841 0.93804 0.0
H457 H 0.37644 0.19166 0.99152 0.0
H458 H 0.40999 0.16487 0.90178 0.0
H459 H 0.49754 0.23262 0.03182 0.0
H460 H 0.40055 0.23838 0.89636 0.0
H461 H 0.47457 0.2109 0.8783 0.0
C462 C 0.67862 0.03131 0.25352 0.0
C463 C 0.66142 0.02189 0.25299 0.0
N464 N 0.63757 0.02945 0.26001 0.0
N465 N 0.66577 0.04479 0.26067 0.0
C466 C 0.64088 0.04331 0.26483 0.0
H467 H 0.69912 0.02859 0.24806 0.0
Co468 Co 0.68035 0.06152 0.26166 0.0
C469 C 0.63383 0.08398 0.26621 0.0
O470 O 0.64221 0.08831 0.29875 0.0
N471 N 0.69504 0.07843 0.26251 0.0
C472 C 0.70557 0.09941 0.24529 0.0
C473 C 0.6905 0.08931 0.23686 0.0
C474 C 0.71298 0.08219 0.28626 0.0
N475 N 0.7197 0.09492 0.27642 0.0
O476 O 0.67386 0.06307 0.31528 0.0
H477 H 0.67733 0.08976 0.21307 0.0
H478 H 0.72168 0.07555 0.30958 0.0
O479 O 0.64715 0.07324 0.24862 0.0
C480 C 0.69355 0.05525 0.33038 0.0
O481 O 0.71225 0.04886 0.30807 0.0
N482 N 0.68929 0.05864 0.21045 0.0
C483 C 0.70949 0.04613 0.14226 0.0
C484 C 0.68267 0.05009 0.14739 0.0
C485 C 0.67287 0.0564 0.1819 0.0
C486 C 0.71529 0.0555 0.20525 0.0
C487 C 0.72579 0.0494 0.17127 0.0
H488 H 0.65229 0.05842 0.18674 0.0
H489 H 0.728 0.0568 0.22868 0.0
H490 H 0.62548 0.05228 0.27112 0.0
H491 H 0.66615 0.01044 0.24669 0.0
H492 H 0.70609 0.10929 0.22968 0.0
H493 H 0.66942 0.04773 0.12567 0.0
H494 H 0.74654 0.04628 0.16898 0.0
C495 C 0.35565 0.98231 0.3005 0.0
C496 C 0.37657 0.98911 0.29991 0.0
N497 N 0.39473 0.98148 0.2772 0.0
N498 N 0.3604 0.97041 0.27821 0.0
C499 C 0.38451 0.97013 0.26441 0.0
H500 H 0.33782 0.98599 0.31571 0.0
Co501 Co 0.3356 0.95884 0.26958 0.0
C502 C 0.36392 0.9301 0.24002 0.0
O503 O 0.34223 0.92611 0.23031 0.0
N504 N 0.3093 0.94756 0.26202 0.0
C505 C 0.27244 0.94104 0.24431 0.0
C506 C 0.28943 0.95022 0.23713 0.0
C507 C 0.30351 0.93679 0.28445 0.0
N508 N 0.28121 0.93264 0.27428 0.0
O509 O 0.33772 0.95352 0.32242 0.0
H510 H 0.28648 0.95879 0.21621 0.0
H511 H 0.31523 0.93222 0.3083 0.0
O512 O 0.3635 0.94255 0.25531 0.0
C513 C 0.31765 0.96071 0.33844 0.0
O514 O 0.30052 0.96906 0.31727 0.0
N515 N 0.33164 0.96584 0.21955 0.0
C516 C 0.31395 0.98019 0.15253 0.0
C517 C 0.32753 0.96587 0.15128 0.0
C518 C 0.33661 0.95888 0.18534 0.0
C519 C 0.31893 0.97982 0.22085 0.0
C520 C 0.31025 0.98725 0.18777 0.0
H521 H 0.34635 0.94778 0.18406 0.0
H522 H 0.3144 0.98505 0.24814 0.0
H523 H 0.39406 0.96207 0.24455 0.0
H524 H 0.37832 0.99893 0.31513 0.0
H525 H 0.25427 0.94114 0.2299 0.0
H526 H 0.3306 0.96009 0.12442 0.0
H527 H 0.29945 0.99819 0.19 0.0
C528 C 0.15076 0.35676 0.95066 0.0
C529 C 0.12692 0.3579 0.93182 0.0
C530 C 0.16847 0.36552 0.93994 0.0
C531 C 0.17455 0.39847 0.88307 0.0
H532 H 0.24612 0.37983 0.87284 0.0
C533 C 0.245 0.41954 0.78174 0.0
C534 C 0.27009 0.42002 0.79452 0.0
C535 C 0.22825 0.41297 0.80368 0.0
C536 C 0.22629 0.38526 0.87606 0.0
H537 H 0.10258 0.36973 0.88834 0.0
H538 H 0.1334 0.38468 0.86913 0.0
H539 H 0.2152 0.36675 0.90247 0.0
H540 H 0.29723 0.41396 0.84055 0.0
H541 H 0.26791 0.40215 0.87894 0.0
H542 H 0.18549 0.41674 0.85524 0.0
C543 C 0.1385 0.37714 0.89243 0.0
C544 C 0.20852 0.37778 0.89314 0.0
C545 C 0.12085 0.36842 0.90315 0.0
C546 C 0.27801 0.41377 0.83 0.0
C547 C 0.2613 0.40697 0.85183 0.0
C548 C 0.19223 0.40587 0.86573 0.0
C549 C 0.16275 0.37567 0.91019 0.0
C550 C 0.18227 0.38417 0.89612 0.0
C551 C 0.23617 0.40655 0.83892 0.0
C552 C 0.21819 0.39925 0.86129 0.0
H553 H 0.15619 0.34872 0.97267 0.0
H554 H 0.18679 0.3642 0.95463 0.0
H555 H 0.15468 0.4039 0.88566 0.0
H556 H 0.23812 0.42444 0.75487 0.0
H557 H 0.20914 0.41271 0.79273 0.0
C558 C 0.84495 0.67339 0.94841 0.0
C559 C 0.87082 0.66641 0.94566 0.0
C560 C 0.82492 0.66577 0.94049 0.0
C561 C 0.81197 0.62817 0.92619 0.0
H562 H 0.75909 0.64632 0.85601 0.0
C563 C 0.76609 0.5969 0.81361 0.0
C564 C 0.73912 0.59927 0.81054 0.0
C565 C 0.77814 0.6055 0.83755 0.0
C566 C 0.77345 0.6412 0.87616 0.0
H567 H 0.89591 0.64585 0.935 0.0
H568 H 0.86155 0.63275 0.92076 0.0
H569 H 0.78769 0.66087 0.88611 0.0
H570 H 0.70352 0.61244 0.83009 0.0
H571 H 0.72484 0.62801 0.87146 0.0
H572 H 0.79886 0.60833 0.91414 0.0
C573 C 0.85637 0.64401 0.92912 0.0
C574 C 0.7898 0.64952 0.89352 0.0
C575 C 0.87619 0.65158 0.93683 0.0
C576 C 0.72435 0.61043 0.83209 0.0
C577 C 0.7365 0.61931 0.85554 0.0
C578 C 0.79592 0.61986 0.90849 0.0
C579 C 0.83046 0.65101 0.93015 0.0
C580 C 0.8099 0.64299 0.91768 0.0
C581 C 0.76353 0.61685 0.85854 0.0
C582 C 0.77705 0.62619 0.8824 0.0
H583 H 0.84029 0.68482 0.95509 0.0
H584 H 0.80517 0.67148 0.94185 0.0
H585 H 0.82676 0.62283 0.9454 0.0
H586 H 0.77789 0.58827 0.79761 0.0
H587 H 0.79901 0.60344 0.8391 0.0
C588 C 0.97607 0.65549 0.0543 0.0
C589 C 0.96451 0.66964 0.06454 0.0
C590 C 0.9882 0.64582 0.08164 0.0
C591 C 0.02469 0.6465 0.16879 0.0
H592 H 0.03014 0.60481 0.16162 0.0
C593 C 0.09565 0.59008 0.22222 0.0
C594 C 0.11918 0.59372 0.21049 0.0
C595 C 0.07227 0.59945 0.21452 0.0
C596 C 0.02855 0.61642 0.16466 0.0
H597 H 0.95546 0.68462 0.11169 0.0
H598 H 0.97722 0.66769 0.15991 0.0
H599 H 0.99467 0.62072 0.12977 0.0
H600 H 0.13672 0.61027 0.18321 0.0
H601 H 0.09637 0.62649 0.1703 0.0
H602 H 0.05924 0.64219 0.20214 0.0
C603 C 0.97667 0.66407 0.1306 0.0
C604 C 0.00834 0.62554 0.14617 0.0
C605 C 0.96408 0.67373 0.10314 0.0
C606 C 0.11893 0.60709 0.19239 0.0
C607 C 0.09577 0.61648 0.18532 0.0
C608 C 0.04494 0.63738 0.18709 0.0
C609 C 0.98943 0.65012 0.11991 0.0
C610 C 0.00679 0.64067 0.14673 0.0
C611 C 0.07212 0.61272 0.19574 0.0
C612 C 0.0477 0.62224 0.18391 0.0
H613 H 0.97664 0.65206 0.02472 0.0
H614 H 0.99806 0.63527 0.07222 0.0
H615 H 0.02417 0.65808 0.1697 0.0
H616 H 0.09527 0.57984 0.23618 0.0
H617 H 0.05432 0.59626 0.22286 0.0
C618 C 0.05539 0.34522 0.1071 0.0
C619 C 0.0548 0.34898 0.06829 0.0
C620 C 0.04142 0.35469 0.13395 0.0
C621 C 1.00487 0.39245 0.14751 0.0
H622 H 0.95797 0.37396 0.20695 0.0
C623 C 0.89495 0.40733 0.20419 0.0
C624 C 0.89408 0.42094 0.22141 0.0
C625 C 0.91846 0.39863 0.19462 0.0
C626 C 0.97106 0.3793 0.19081 0.0
H627 H 0.04073 0.36582 0.02743 0.0
H628 H 0.017 0.38235 0.0739 0.0
H629 H 0.99385 0.35911 0.17332 0.0
H630 H 0.91743 0.43592 0.24296 0.0
H631 H 0.95882 0.42073 0.22553 0.0
H632 H 0.98119 0.41263 0.16339 0.0
C633 C 0.02806 0.3722 0.08396 0.0
C634 C 0.99182 0.37078 0.17183 0.0
C635 C 0.0416 0.3627 0.05723 0.0
C636 C 0.91744 0.42549 0.2298 0.0
C637 C 0.94112 0.41682 0.21965 0.0
C638 C 0.98417 0.40098 0.1667 0.0
C639 C 0.027 0.36814 0.12245 0.0
C640 C 0.00846 0.37723 0.14881 0.0
C641 C 0.94185 0.40332 0.20162 0.0
C642 C 0.96647 0.39449 0.18744 0.0
H643 H 0.06513 0.33462 0.11626 0.0
H644 H 0.0411 0.35127 0.16343 0.0
H645 H 0.01748 0.39777 0.13035 0.0
H646 H 0.87735 0.40345 0.19745 0.0
H647 H 0.91822 0.38842 0.18032 0.0
C648 C 0.12985 0.85985 0.3875 0.0
C649 C 0.12782 0.85678 0.42655 0.0
C650 C 0.14896 0.86712 0.37418 0.0
C651 C 0.19257 0.89166 0.40254 0.0
H652 H 0.22698 0.87842 0.30766 0.0
C653 C 0.27027 0.9203 0.33311 0.0
C654 C 0.26786 0.92255 0.29347 0.0
C655 C 0.25573 0.9113 0.35189 0.0
C656 C 0.21746 0.88233 0.33405 0.0
H657 H 0.14435 0.85913 0.48228 0.0
H658 H 0.17794 0.87194 0.45888 0.0
H659 H 0.19674 0.86476 0.33619 0.0
H660 H 0.24893 0.91673 0.24246 0.0
H661 H 0.22351 0.90125 0.27498 0.0
H662 H 0.21294 0.90944 0.39987 0.0
C663 C 0.16455 0.86868 0.43866 0.0
C664 C 0.20012 0.87448 0.35044 0.0
C665 C 0.14543 0.86127 0.45204 0.0
C666 C 0.25108 0.91533 0.27301 0.0
C667 C 0.23669 0.90632 0.29168 0.0
C668 C 0.20993 0.89956 0.38604 0.0
C669 C 0.16666 0.87156 0.39947 0.0
C670 C 0.18703 0.8792 0.38444 0.0
C671 C 0.23862 0.90427 0.33141 0.0
C672 C 0.22218 0.89516 0.35114 0.0
H673 H 0.11699 0.85638 0.36686 0.0
H674 H 0.14977 0.86932 0.34391 0.0
H675 H 0.18271 0.89563 0.42863 0.0
H676 H 0.2828 0.92581 0.34981 0.0
H677 H 0.25785 0.90989 0.38246 0.0
C678 C 0.88389 0.16268 0.37919 0.0
C679 C 0.88692 0.165 0.41841 0.0
C680 C 0.86569 0.15472 0.36613 0.0
C681 C 0.80704 0.14039 0.39474 0.0
H682 H 0.82488 0.11623 0.30534 0.0
C683 C 0.74298 0.10101 0.33394 0.0
C684 C 0.73871 0.10202 0.29433 0.0
C685 C 0.7611 0.1082 0.35121 0.0
C686 C 0.81957 0.12297 0.33023 0.0
H687 H 0.87293 0.16091 0.47471 0.0
H688 H 0.84133 0.14668 0.45203 0.0
H689 H 0.85623 0.12956 0.33191 0.0
H690 H 0.7505 0.11107 0.24177 0.0
H691 H 0.7822 0.12345 0.27171 0.0
H692 H 0.77037 0.1335 0.39305 0.0
C693 C 0.8528 0.15123 0.43124 0.0
C694 C 0.8375 0.1307 0.34543 0.0
C695 C 0.87093 0.15936 0.44431 0.0
C696 C 0.75315 0.1102 0.27236 0.0
C697 C 0.77147 0.11719 0.28948 0.0
C698 C 0.78915 0.1325 0.37972 0.0
C699 C 0.85011 0.14868 0.39192 0.0
C700 C 0.83136 0.13974 0.37747 0.0
C701 C 0.77562 0.11632 0.32909 0.0
C702 C 0.79509 0.1239 0.34691 0.0
H703 H 0.89549 0.16715 0.35844 0.0
H704 H 0.86374 0.1534 0.33563 0.0
H705 H 0.80148 0.14731 0.4192 0.0
H706 H 0.73202 0.09486 0.35163 0.0
H707 H 0.76397 0.10727 0.38177 0.0
C708 C 0.97889 0.15356 0.55613 0.0
C709 C 0.96543 0.16724 0.56712 0.0
C710 C 0.99132 0.14386 0.58322 0.0
C711 C 0.02427 0.14461 0.67398 0.0
H712 H 0.03504 0.10284 0.66265 0.0
C713 C 0.09683 0.08937 0.73195 0.0
C714 C 0.12039 0.09403 0.72575 0.0
C715 C 0.07347 0.09812 0.72098 0.0
C716 C 0.03197 0.11446 0.66678 0.0
H717 H 0.95338 0.18132 0.61524 0.0
H718 H 0.97549 0.16433 0.66307 0.0
H719 H 0.99987 0.11801 0.62831 0.0
H720 H 0.13774 0.11177 0.70479 0.0
H721 H 0.0974 0.12691 0.68613 0.0
H722 H 0.05696 0.14109 0.71128 0.0
C723 C 0.97625 0.16109 0.63335 0.0
C724 C 0.01193 0.12317 0.64686 0.0
C725 C 0.96339 0.17076 0.6061 0.0
C726 C 0.11998 0.10779 0.7098 0.0
C727 C 0.09677 0.11656 0.69939 0.0
C728 C 0.04437 0.13591 0.69373 0.0
C729 C 0.99094 0.14767 0.62204 0.0
C730 C 0.0084 0.13837 0.64917 0.0
C731 C 0.07322 0.11179 0.70429 0.0
C732 C 0.04904 0.12076 0.68931 0.0
H733 H 0.98082 0.1506 0.52622 0.0
H734 H 1.00265 0.13374 0.57331 0.0
H735 H 0.02225 0.15626 0.67631 0.0
H736 H 0.09649 0.07881 0.74413 0.0
H737 H 0.05563 0.09415 0.72522 0.0
C738 C 0.89581 0.90702 0.71423 0.0
C739 C 0.89391 0.92178 0.72295 0.0
C740 C 0.91962 0.89844 0.70572 0.0
C741 C 0.98145 0.89994 0.66267 0.0
H742 H 0.99865 0.86046 0.69955 0.0
C743 C 0.06093 0.8576 0.5899 0.0
C744 C 0.052 0.84482 0.58066 0.0
C745 C 0.04725 0.86748 0.61617 0.0
C746 C 0.99424 0.87147 0.689 0.0
H747 H 0.91558 0.93913 0.72989 0.0
H748 H 0.95752 0.92407 0.7139 0.0
H749 H 0.96341 0.87726 0.72915 0.0
H750 H 0.02268 0.83202 0.59246 0.0
H751 H 0.99935 0.84883 0.6383 0.0
H752 H 0.01125 0.89389 0.62091 0.0
C753 C 0.94045 0.91917 0.71427 0.0
C754 C 0.97407 0.8811 0.70605 0.0
C755 C 0.91652 0.92775 0.72365 0.0
C756 C 0.0302 0.84169 0.59953 0.0
C757 C 0.01683 0.85137 0.62593 0.0
C758 C 1.00158 0.89024 0.64535 0.0
C759 C 0.94218 0.90442 0.70501 0.0
C760 C 0.96681 0.89528 0.69218 0.0
C761 C 0.02465 0.86461 0.63385 0.0
C762 C 0.00753 0.87571 0.65734 0.0
H763 H 0.87873 0.90212 0.71346 0.0
H764 H 0.9202 0.88719 0.69825 0.0
H765 H 0.97624 0.91079 0.65124 0.0
H766 H 0.07745 0.86035 0.57515 0.0
H767 H 0.05386 0.87755 0.62172 0.0
C768 C 0.76599 0.40304 0.2819 0.0
C769 C 0.77678 0.4139 0.30001 0.0
C770 C 0.75099 0.39484 0.30229 0.0
C771 C 0.71086 0.39598 0.38936 0.0
H772 H 0.70924 0.35634 0.35979 0.0
C773 C 0.64196 0.36023 0.45677 0.0
C774 C 0.6284 0.35354 0.42956 0.0
C775 C 0.66209 0.36727 0.44544 0.0
C776 C 0.70948 0.36741 0.36839 0.0
H777 H 0.78092 0.42424 0.35443 0.0
H778 H 0.7551 0.40968 0.39038 0.0
H779 H 0.74198 0.36868 0.33288 0.0
H780 H 0.62575 0.34872 0.36931 0.0
H781 H 0.66069 0.36083 0.34974 0.0
H782 H 0.67814 0.39457 0.42485 0.0
C783 C 0.75794 0.40769 0.36009 0.0
C784 C 0.72819 0.37452 0.35286 0.0
C785 C 0.77301 0.41594 0.33956 0.0
C786 C 0.63549 0.35396 0.39094 0.0
C787 C 0.65575 0.36075 0.37975 0.0
C788 C 0.69225 0.38878 0.40523 0.0
C789 C 0.74641 0.39716 0.34158 0.0
C790 C 0.7287 0.38904 0.36223 0.0
C791 C 0.66935 0.36744 0.4068 0.0
C792 C 0.69094 0.37455 0.39407 0.0
H793 H 0.76875 0.40103 0.25163 0.0
H794 H 0.74225 0.38699 0.2868 0.0
H795 H 0.71049 0.40718 0.39707 0.0
H796 H 0.6369 0.36009 0.4867 0.0
H797 H 0.67228 0.37233 0.4669 0.0
C798 C 0.23485 0.61668 0.28425 0.0
C799 C 0.23027 0.60336 0.29839 0.0
C800 C 0.24866 0.62522 0.30584 0.0
C801 C 0.29983 0.62121 0.37609 0.0
H802 H 0.28165 0.66285 0.38865 0.0
C803 C 0.36752 0.65172 0.45753 0.0
C804 C 0.3707 0.66529 0.44372 0.0
C805 C 0.3475 0.64516 0.44422 0.0
C806 C 0.2872 0.65125 0.38506 0.0
H807 H 0.23604 0.58875 0.34654 0.0
H808 H 0.26048 0.60357 0.38422 0.0
H809 H 0.25163 0.64966 0.35695 0.0
H810 H 0.35516 0.68292 0.40614 0.0
H811 H 0.32061 0.67125 0.38127 0.0
H812 H 0.33578 0.62266 0.40207 0.0
C813 C 0.25321 0.60743 0.3565 0.0
C814 C 0.2699 0.6437 0.36709 0.0
C815 C 0.23904 0.59901 0.33512 0.0
C816 C 0.3529 0.67247 0.41732 0.0
C817 C 0.33311 0.66576 0.40324 0.0
C818 C 0.31726 0.62875 0.39342 0.0
C819 C 0.25854 0.62051 0.3418 0.0
C820 C 0.27606 0.6286 0.36245 0.0
C821 C 0.33049 0.65183 0.41589 0.0
C822 C 0.31126 0.64389 0.39826 0.0
H823 H 0.22817 0.62032 0.2561 0.0
H824 H 0.25259 0.6352 0.29369 0.0
H825 H 0.30534 0.60961 0.37224 0.0
H826 H 0.38088 0.64608 0.4783 0.0
H827 H 0.34572 0.63469 0.45574 0.0
C828 C 0.46969 0.67403 0.60895 0.0
C829 C 0.47381 0.67172 0.56964 0.0
C830 C 0.48264 0.66403 0.6354 0.0
C831 C 0.51948 0.62645 0.64462 0.0
H832 H 0.56216 0.64276 0.71658 0.0
C833 C 0.6255 0.60926 0.71194 0.0
C834 C 0.6254 0.59513 0.72505 0.0
C835 C 0.60254 0.61843 0.70221 0.0
C836 C 0.55016 0.63803 0.69695 0.0
H837 H 0.49323 0.65689 0.52704 0.0
H838 H 0.51511 0.63942 0.57269 0.0
H839 H 0.52834 0.65877 0.68168 0.0
H840 H 0.60094 0.57967 0.7392 0.0
H841 H 0.56058 0.5957 0.72135 0.0
H842 H 0.54217 0.60579 0.65833 0.0
C843 C 0.50219 0.64888 0.5834 0.0
C844 C 0.53063 0.64719 0.67723 0.0
C845 C 0.4898 0.65895 0.55722 0.0
C846 C 0.60164 0.59051 0.72926 0.0
C847 C 0.57857 0.59966 0.71891 0.0
C848 C 0.53885 0.61728 0.66457 0.0
C849 C 0.4993 0.65143 0.6228 0.0
C850 C 0.51574 0.64156 0.64974 0.0
C851 C 0.57883 0.61368 0.70489 0.0
C852 C 0.55507 0.62302 0.68986 0.0
H853 H 0.45757 0.68386 0.61916 0.0
H854 H 0.48006 0.66627 0.66563 0.0
H855 H 0.50817 0.62179 0.62382 0.0
H856 H 0.64345 0.6132 0.70856 0.0
H857 H 0.60352 0.62907 0.69103 0.0
C858 C 0.56189 0.35786 0.58345 0.0
C859 C 0.55348 0.34454 0.58106 0.0
C860 C 0.54883 0.36892 0.60704 0.0
C861 C 0.50249 0.39225 0.62754 0.0
H862 H 0.46753 0.38593 0.72184 0.0
C863 C 0.4019 0.42298 0.66457 0.0
C864 C 0.39578 0.42766 0.70215 0.0
C865 C 0.42582 0.41459 0.65582 0.0
C866 C 0.47745 0.38799 0.69589 0.0
H867 H 0.52606 0.33197 0.60268 0.0
H868 H 0.50373 0.35097 0.64422 0.0
H869 H 0.50299 0.36745 0.69858 0.0
H870 H 0.41029 0.42733 0.76003 0.0
H871 H 0.4523 0.41222 0.74473 0.0
H872 H 0.47628 0.41249 0.62398 0.0
C873 C 0.52035 0.35301 0.62838 0.0
C874 C 0.49764 0.37735 0.68239 0.0
C875 C 0.53314 0.34208 0.60454 0.0
C876 C 0.41443 0.42389 0.73081 0.0
C877 C 0.43841 0.41522 0.72209 0.0
C878 C 0.48224 0.40282 0.64089 0.0
C879 C 0.5273 0.36678 0.62878 0.0
C880 C 0.50984 0.37914 0.64737 0.0
C881 C 0.44431 0.41047 0.68441 0.0
C882 C 0.46888 0.40059 0.6745 0.0
H883 H 0.57723 0.36007 0.56503 0.0
H884 H 0.55478 0.37937 0.60687 0.0
H885 H 0.51124 0.39399 0.60036 0.0
H886 H 0.38811 0.42574 0.64168 0.0
H887 H 0.42953 0.41095 0.62665 0.0
C888 C 0.64922 0.85484 0.95718 0.0
C889 C 0.62479 0.85728 0.93976 0.0
C890 C 0.66744 0.86349 0.94805 0.0
C891 C 0.67434 0.89821 0.9004 0.0
H892 H 0.74435 0.87861 0.88031 0.0
C893 C 0.74193 0.92073 0.79781 0.0
C894 C 0.76792 0.92005 0.80781 0.0
C895 C 0.72562 0.9141 0.82038 0.0
C896 C 0.725 0.88429 0.88642 0.0
H897 H 0.60003 0.87118 0.9005 0.0
H898 H 0.63167 0.886 0.88407 0.0
H899 H 0.71338 0.86519 0.9085 0.0
H900 H 0.79712 0.91202 0.84968 0.0
H901 H 0.76851 0.90005 0.88921 0.0
H902 H 0.68569 0.91712 0.87675 0.0
C903 C 0.63685 0.87752 0.90505 0.0
C904 C 0.70722 0.87661 0.90264 0.0
C905 C 0.61872 0.86889 0.91414 0.0
C906 C 0.77718 0.91271 0.84136 0.0
C907 C 0.76087 0.90583 0.86379 0.0
C908 C 0.69203 0.90582 0.88395 0.0
C909 C 0.66161 0.87483 0.92141 0.0
C910 C 0.68145 0.88338 0.90892 0.0
C911 C 0.73489 0.90647 0.85346 0.0
C912 C 0.71737 0.89887 0.87589 0.0
H913 H 0.65463 0.84591 0.97678 0.0
H914 H 0.6862 0.86119 0.96153 0.0
H915 H 0.65489 0.90389 0.90568 0.0
H916 H 0.73412 0.92647 0.77245 0.0
H917 H 0.70581 0.91468 0.8114 0.0
C918 C 0.34668 0.16697 0.96481 0.0
C919 C 0.36112 0.17228 0.93615 0.0
C920 C 0.32541 0.16061 0.95512 0.0
C921 C 0.27931 0.15747 0.87707 0.0
H922 H 0.28228 0.11808 0.9123 0.0
C923 C 0.23682 0.11569 0.79061 0.0
C924 C 0.22682 0.10463 0.80907 0.0
C925 C 0.24795 0.12563 0.81149 0.0
C926 C 0.28071 0.12917 0.90278 0.0
H927 H 0.36406 0.17585 0.8755 0.0
H928 H 0.32678 0.16514 0.85857 0.0
H929 H 0.31102 0.13295 0.94015 0.0
H930 H 0.21987 0.09567 0.86425 0.0
H931 H 0.23912 0.11321 0.90102 0.0
H932 H 0.24953 0.15366 0.83906 0.0
C933 C 0.33179 0.16575 0.88843 0.0
C934 C 0.29723 0.1377 0.91877 0.0
C935 C 0.35319 0.17182 0.89803 0.0
C936 C 0.22726 0.10412 0.84919 0.0
C937 C 0.23854 0.11408 0.87021 0.0
C938 C 0.26271 0.14901 0.8613 0.0
C939 C 0.31797 0.15977 0.9167 0.0
C940 C 0.29729 0.15177 0.90515 0.0
C941 C 0.24941 0.12482 0.85154 0.0
C942 C 0.26382 0.13457 0.87295 0.0
H943 H 0.35263 0.16712 0.99435 0.0
H944 H 0.31509 0.15611 0.9775 0.0
H945 H 0.27865 0.16836 0.8664 0.0
H946 H 0.23653 0.11648 0.75979 0.0
H947 H 0.25637 0.1336 0.79597 0.0
C948 C 0.6025 0.0887 0.21177 0.0
C949 C 0.61026 0.09235 0.24832 0.0
C950 C 0.58134 0.0972 0.19381 0.0
C951 C 0.54293 0.13431 0.19444 0.0
H952 H 0.49885 0.11736 0.12603 0.0
C953 C 0.46443 0.16974 0.10239 0.0
C954 C 0.46627 0.166 0.06352 0.0
C955 C 0.47752 0.16029 0.12986 0.0
C956 C 0.51096 0.12226 0.14511 0.0
H957 H 0.60121 0.10757 0.29515 0.0
H958 H 0.56413 0.12225 0.26405 0.0
H959 H 0.53057 0.10164 0.16493 0.0
H960 H 0.4819 0.14918 0.02313 0.0
H961 H 0.50421 0.13272 0.07069 0.0
H962 H 0.52361 0.15494 0.17393 0.0
C963 C 0.57468 0.11296 0.24895 0.0
C964 C 0.52924 0.11325 0.16729 0.0
C965 C 0.59588 0.10448 0.2669 0.0
C966 C 0.48015 0.15236 0.05289 0.0
C967 C 0.49284 0.14288 0.08022 0.0
C968 C 0.52455 0.14333 0.17235 0.0
C969 C 0.56731 0.10955 0.21196 0.0
C970 C 0.54593 0.11914 0.19155 0.0
C971 C 0.49226 0.14685 0.11892 0.0
C972 C 0.50879 0.1374 0.14671 0.0
H973 H 0.61311 0.07945 0.19657 0.0
H974 H 0.57652 0.09432 0.16512 0.0
H975 H 0.55558 0.13926 0.21246 0.0
H976 H 0.45402 0.18024 0.11133 0.0
H977 H 0.47661 0.16361 0.15952 0.0
C978 C 0.54654 0.84505 0.10896 0.0
C979 C 0.55098 0.84849 0.07081 0.0
C980 C 0.53137 0.85532 0.13272 0.0
C981 C 0.50103 0.88156 0.17888 0.0
H982 H 0.43902 0.8976 0.12287 0.0
C983 C 0.41271 0.92481 0.23491 0.0
C984 C 0.38861 0.92083 0.22804 0.0
C985 C 0.43546 0.91642 0.22019 0.0
C986 C 0.45625 0.89328 0.13889 0.0
H987 H 0.54516 0.86551 0.02847 0.0
H988 H 0.51957 0.88346 0.06993 0.0
H989 H 0.47489 0.8828 0.08966 0.0
H990 H 0.36988 0.90451 0.2017 0.0
H991 H 0.40912 0.89024 0.1759 0.0
H992 H 0.4817 0.89205 0.22839 0.0
C993 C 0.5272 0.87286 0.08149 0.0
C994 C 0.47694 0.88488 0.11982 0.0
C995 C 0.54205 0.86263 0.05785 0.0
C996 C 0.38795 0.90804 0.20739 0.0
C997 C 0.41047 0.89982 0.19248 0.0
C998 C 0.48028 0.89021 0.19801 0.0
C999 C 0.52052 0.86911 0.11852 0.0
C1000 C 0.49952 0.8788 0.13951 0.0
C1001 C 0.4344 0.90404 0.19804 0.0
C1002 C 0.45753 0.89594 0.1782 0.0
H1003 H 0.55283 0.83412 0.11933 0.0
H1004 H 0.5265 0.85209 0.16107 0.0
H1005 H 0.51817 0.87702 0.1948 0.0
H1006 H 0.41395 0.93455 0.25084 0.0
H1007 H 0.45369 0.91992 0.22483 0.0
C1008 C 0.94197 0.23568 0.32372 0.0
C1009 C 0.94865 0.23991 0.36027 0.0
C1010 C 0.94953 0.24251 0.29121 0.0
C1011 C 0.97187 0.27497 0.25536 0.0
H1012 H 0.01094 0.24851 0.18274 0.0
C1013 C 0.03602 0.29404 0.13783 0.0
C1014 C 0.0404 0.28586 0.10418 0.0
C1015 C 0.02153 0.28955 0.16762 0.0
C1016 C 0.9996 0.25613 0.20206 0.0
H1017 H 0.96718 0.25508 0.39165 0.0
H1018 H 0.97998 0.26719 0.33481 0.0
H1019 H 0.99047 0.23897 0.23665 0.0
H1020 H 0.03172 0.26728 0.07385 0.0
H1021 H 1.00528 0.25985 0.12448 0.0
H1022 H 0.98068 0.29217 0.22057 0.0
C1023 C 0.96907 0.25855 0.3313 0.0
C1024 C 0.98796 0.25061 0.23317 0.0
C1025 C 0.96188 0.25157 0.36377 0.0
C1026 C 0.02887 0.27362 0.09985 0.0
C1027 C 0.01394 0.26932 0.1291 0.0
C1028 C 0.98317 0.28054 0.22378 0.0
C1029 C 0.96354 0.25384 0.29468 0.0
C1030 C 0.97417 0.25994 0.26034 0.0
C1031 C 0.01071 0.27692 0.16396 0.0
C1032 C 0.99742 0.27119 0.1968 0.0
H1033 H 0.93194 0.22667 0.3202 0.0
H1034 H 0.94491 0.23872 0.2633 0.0
H1035 H 0.96125 0.28241 0.27586 0.0
H1036 H 0.0449 0.30348 0.14177 0.0
H1037 H 0.01976 0.29565 0.19401 0.0
C1038 C 0.04646 0.78831 0.33403 0.0
C1039 C 0.0599 0.7803 0.36388 0.0
C1040 C 0.03795 0.78132 0.30265 0.0
C1041 C 0.01904 0.74758 0.27157 0.0
H1042 H 0.02904 0.76236 0.17046 0.0
C1043 C 0.98634 0.72252 0.13068 0.0
C1044 C 0.97729 0.7324 0.10153 0.0
C1045 C 0.99669 0.72731 0.16427 0.0
C1046 C 0.02576 0.75819 0.19849 0.0
H1047 H 0.07497 0.75866 0.3843 0.0
H1048 H 0.05979 0.74634 0.32917 0.0
H1049 H 0.04751 0.77252 0.22546 0.0
H1050 H 0.97004 0.75503 0.0857 0.0
H1051 H 0.9872 0.76344 0.14421 0.0
H1052 H 0.99668 0.73348 0.24451 0.0
C1053 C 0.05594 0.75806 0.33024 0.0
C1054 C 0.0365 0.76398 0.23 0.0
C1055 C 0.0648 0.76509 0.36155 0.0
C1056 C 0.97739 0.74717 0.10742 0.0
C1057 C 0.9874 0.75195 0.14088 0.0
C1058 C 0.00806 0.74183 0.23992 0.0
C1059 C 0.04246 0.76613 0.30043 0.0
C1060 C 0.03291 0.75893 0.26695 0.0
C1061 C 0.99794 0.74207 0.16928 0.0
C1062 C 0.01087 0.74729 0.20304 0.0
H1063 H 0.04253 0.80004 0.33495 0.0
H1064 H 0.02743 0.78784 0.28032 0.0
H1065 H 0.01588 0.74353 0.29978 0.0
H1066 H 0.98653 0.71107 0.12669 0.0
H1067 H 1.00461 0.7194 0.18554 0.0
C1068 C 0.21095 0.56076 0.3869 0.0
C1069 C 0.19101 0.5554 0.36863 0.0
C1070 C 0.21991 0.55539 0.42245 0.0
C1071 C 0.20975 0.53093 0.50237 0.0
H1072 H 0.28419 0.51975 0.49633 0.0
C1073 C 0.26633 0.48657 0.59869 0.0
C1074 C 0.29004 0.4888 0.61359 0.0
C1075 C 0.2535 0.49587 0.57103 0.0
C1076 C 0.26347 0.52296 0.49888 0.0
H1077 H 0.16372 0.54088 0.37356 0.0
H1078 H 0.17933 0.53137 0.43589 0.0
H1079 H 0.26125 0.5353 0.44749 0.0
H1080 H 0.31907 0.50241 0.6108 0.0
H1081 H 0.29669 0.51868 0.56241 0.0
H1082 H 0.21206 0.51833 0.55356 0.0
C1083 C 0.18777 0.53995 0.42327 0.0
C1084 C 0.25027 0.53194 0.4709 0.0
C1085 C 0.17867 0.54545 0.38772 0.0
C1086 C 0.301 0.5003 0.59947 0.0
C1087 C 0.28811 0.50965 0.57185 0.0
C1088 C 0.223 0.52196 0.5305 0.0
C1089 C 0.20942 0.54431 0.43998 0.0
C1090 C 0.22324 0.53594 0.47209 0.0
C1091 C 0.26404 0.50765 0.55764 0.0
C1092 C 0.25 0.51773 0.52882 0.0
H1093 H 0.22108 0.56819 0.37224 0.0
H1094 H 0.23628 0.55918 0.43491 0.0
H1095 H 0.18896 0.53388 0.5042 0.0
H1096 H 0.25756 0.47769 0.60872 0.0
H1097 H 0.23532 0.4938 0.56007 0.0
C1098 C 0.70609 0.52232 0.59666 0.0
C1099 C 0.71996 0.53148 0.61609 0.0
C1100 C 0.71809 0.51292 0.56829 0.0
C1101 C 0.78341 0.49528 0.53547 0.0
H1102 H 0.74666 0.48668 0.44515 0.0
C1103 C 0.83059 0.46793 0.39734 0.0
C1104 C 0.81611 0.45951 0.37641 0.0
C1105 C 0.82085 0.47444 0.43167 0.0
C1106 C 0.7571 0.48876 0.47056 0.0
H1107 H 0.75667 0.53867 0.61979 0.0
H1108 H 0.77735 0.52267 0.56953 0.0
H1109 H 0.72474 0.50367 0.49206 0.0
H1110 H 0.78157 0.45013 0.37599 0.0
H1111 H 0.76509 0.46091 0.43648 0.0
H1112 H 0.81602 0.4806 0.51311 0.0
C1113 C 0.75752 0.52233 0.5769 0.0
C1114 C 0.74451 0.49855 0.49745 0.0
C1115 C 0.74561 0.53161 0.60538 0.0
C1116 C 0.79321 0.45644 0.39202 0.0
C1117 C 0.78359 0.46281 0.42629 0.0
C1118 C 0.79607 0.48554 0.50837 0.0
C1119 C 0.74414 0.5126 0.55862 0.0
C1120 C 0.7575 0.502 0.53019 0.0
C1121 C 0.79653 0.47257 0.44528 0.0
C1122 C 0.78304 0.48217 0.4756 0.0
H1123 H 0.68641 0.52188 0.60474 0.0
H1124 H 0.70722 0.50551 0.55503 0.0
H1125 H 0.7939 0.49747 0.5607 0.0
H1126 H 0.84798 0.47072 0.38529 0.0
H1127 H 0.83126 0.48192 0.44562 0.0
C1128 C 0.9371 0.74971 0.83947 0.0
C1129 C 0.94361 0.73454 0.84163 0.0
C1130 C 0.94407 0.75708 0.8075 0.0
C1131 C 0.96647 0.7519 0.70699 0.0
H1132 H 1.00176 0.78387 0.72799 0.0
C1133 C 0.03946 0.76898 0.60296 0.0
C1134 C 0.04115 0.78368 0.59944 0.0
C1135 C 0.02297 0.76448 0.62975 0.0
C1136 C 0.99152 0.77515 0.72146 0.0
H1137 H 0.96124 0.71516 0.81115 0.0
H1138 H 0.97348 0.72796 0.7556 0.0
H1139 H 0.98053 0.77327 0.77985 0.0
H1140 H 0.02635 0.80525 0.62079 0.0
H1141 H 0.99726 0.79739 0.66766 0.0
H1142 H 0.97804 0.75352 0.64882 0.0
C1143 C 0.96297 0.7342 0.77847 0.0
C1144 C 0.97934 0.76907 0.75123 0.0
C1145 C 0.95618 0.72687 0.81046 0.0
C1146 C 0.02537 0.79386 0.62268 0.0
C1147 C 0.00891 0.78934 0.64973 0.0
C1148 C 0.97859 0.75799 0.67726 0.0
C1149 C 0.95746 0.74941 0.77689 0.0
C1150 C 0.96725 0.75713 0.7445 0.0
C1151 C 0.00772 0.77456 0.65382 0.0
C1152 C 0.99186 0.76944 0.68431 0.0
H1153 H 0.92754 0.75592 0.86315 0.0
H1154 H 0.93936 0.7688 0.80699 0.0
H1155 H 0.95691 0.74288 0.70074 0.0
H1156 H 0.05106 0.76088 0.58514 0.0
H1157 H 0.02282 0.753 0.63237 0.0
C1158 C 0.0755 0.27897 0.82776 0.0
C1159 C 0.06963 0.27541 0.86522 0.0
C1160 C 0.0674 0.27153 0.79672 0.0
C1161 C 0.01926 0.24835 0.77203 0.0
H1162 H 0.05585 0.24474 0.67545 0.0
C1163 C 0.98401 0.22045 0.63927 0.0
C1164 C 0.98051 0.22953 0.60716 0.0
C1165 C 0.99773 0.22409 0.67098 0.0
C1166 C 0.04551 0.24563 0.70234 0.0
H1167 H 0.05191 0.26083 0.89985 0.0
H1168 H 0.03882 0.24737 0.84602 0.0
H1169 H 0.07506 0.25437 0.73096 0.0
H1170 H 0.98962 0.24904 0.58205 0.0
H1171 H 0.01415 0.25521 0.63693 0.0
H1172 H 0.98987 0.23944 0.74317 0.0
C1173 C 0.04878 0.25625 0.84022 0.0
C1174 C 0.05638 0.25126 0.73414 0.0
C1175 C 0.05646 0.26387 0.87117 0.0
C1176 C 0.99193 0.24193 0.6066 0.0
C1177 C 1.00607 0.2454 0.63785 0.0
C1178 C 0.00864 0.24249 0.7404 0.0
C1179 C 0.0536 0.26017 0.80246 0.0
C1180 C 0.04318 0.25298 0.76932 0.0
C1181 C 0.0087 0.23668 0.67065 0.0
C1182 C 0.02142 0.24132 0.70508 0.0
H1183 H 0.08539 0.28793 0.8224 0.0
H1184 H 0.07117 0.2751 0.76824 0.0
H1185 H 0.00816 0.24972 0.79821 0.0
H1186 H 0.97525 0.21088 0.6404 0.0
H1187 H 0.99953 0.21717 0.69592 0.0
C1188 C 0.20971 0.05992 0.90692 0.0
C1189 C 0.19099 0.05511 0.8844 0.0
C1190 C 0.21773 0.05296 0.94118 0.0
C1191 C 0.22832 0.01635 0.97646 0.0
H1192 H 0.24951 0.03314 0.06956 0.0
C1193 C 0.2834 0.98153 0.09755 0.0
C1194 C 0.30149 0.98764 0.11837 0.0
C1195 C 0.26782 0.98976 0.07024 0.0
C1196 C 0.24402 0.02827 0.04353 0.0
H1197 H 0.16487 0.03988 0.88053 0.0
H1198 H 0.17889 0.0276 0.94063 0.0
H1199 H 0.22294 0.04856 0.02342 0.0
H1200 H 0.31861 1.00674 0.12565 0.0
H1201 H 0.29239 0.02089 0.07689 0.0
H1202 H 0.25031 0.99621 0.99543 0.0
C1203 C 0.18718 0.03685 0.93204 0.0
C1204 C 0.22855 0.03711 0.01733 0.0
C1205 C 0.17885 0.04401 0.89804 0.0
C1206 C 0.30472 1.00181 0.11 0.0
C1207 C 0.28942 0.00997 0.08244 0.0
C1208 C 0.24404 1.00753 0.00243 0.0
C1209 C 0.20754 0.04084 0.95297 0.0
C1210 C 0.22081 0.03127 0.98331 0.0
C1211 C 0.27021 1.00421 0.06299 0.0
C1212 C 0.25246 0.01342 0.03604 0.0
H1213 H 0.21976 0.06823 0.89636 0.0
H1214 H 0.23357 0.05622 0.95652 0.0
H1215 H 0.22305 0.01159 0.95012 0.0
H1216 H 0.28028 0.97069 0.10394 0.0
H1217 H 0.25317 0.98497 0.05606 0.0
C1218 C 0.8 0.95885 0.89506 0.0
C1219 C 0.82004 0.96358 0.87526 0.0
C1220 C 0.79083 0.96544 0.92936 0.0
C1221 C 0.8008 0.99273 0.00275 0.0
H1222 H 0.72627 1.00316 0.99715 0.0
C1223 C 0.74369 0.03947 0.09211 0.0
C1224 C 0.7207 0.03712 0.10935 0.0
C1225 C 0.75634 0.02971 0.06512 0.0
C1226 C 0.74703 1.00022 0.99952 0.0
H1227 H 0.84727 0.97823 0.87635 0.0
H1228 H 0.83138 0.98981 0.93638 0.0
H1229 H 0.74928 0.98608 0.9514 0.0
H1230 H 0.69274 0.02282 0.11111 0.0
H1231 H 0.71467 1.00586 0.06383 0.0
H1232 H 0.79843 1.00714 0.05059 0.0
C1233 C 0.82298 0.98084 0.92602 0.0
C1234 C 0.76027 0.99034 0.97337 0.0
C1235 C 0.83227 0.97414 0.89178 0.0
C1236 C 0.71016 0.02508 0.0979 0.0
C1237 C 0.72283 0.01531 0.07093 0.0
C1238 C 0.78751 1.00263 0.02899 0.0
C1239 C 0.80123 0.97709 0.94406 0.0
C1240 C 0.78734 0.98653 0.97445 0.0
C1241 C 0.74633 0.01736 0.05473 0.0
C1242 C 0.76047 1.00659 0.02745 0.0
H1243 H 0.78995 0.95093 0.88236 0.0
H1244 H 0.77441 0.9621 0.94296 0.0
H1245 H 0.82161 0.98997 0.00453 0.0
H1246 H 0.75216 0.04873 0.10004 0.0
H1247 H 0.77409 0.0318 0.05256 0.0
C1248 C 0.53629 0.26836 0.6073 0.0
C1249 C 0.53917 0.2829 0.60436 0.0
C1250 C 0.51987 0.26411 0.63458 0.0
C1251 C 0.49155 0.27445 0.72825 0.0
H1252 H 0.45237 0.24416 0.70688 0.0
C1253 C 0.43777 0.24927 0.84749 0.0
C1254 C 0.44238 0.23405 0.84764 0.0
C1255 C 0.4446 0.25685 0.81579 0.0
C1256 C 0.46323 0.25261 0.71334 0.0
H1257 H 0.52663 0.30447 0.62728 0.0
H1258 H 0.49775 0.29703 0.67524 0.0
H1259 H 0.47348 0.25468 0.65474 0.0
H1260 H 0.45636 0.21487 0.81389 0.0
H1261 H 0.46846 0.22799 0.75893 0.0
H1262 H 0.48199 0.27205 0.78703 0.0
C1263 C 0.50835 0.28892 0.65638 0.0
C1264 C 0.47532 0.25864 0.68347 0.0
C1265 C 0.5247 0.2932 0.62876 0.0
C1266 C 0.45284 0.22659 0.81481 0.0
C1267 C 0.45952 0.23414 0.78313 0.0
C1268 C 0.47946 0.2684 0.75819 0.0
C1269 C 0.50594 0.27429 0.65979 0.0
C1270 C 0.49018 0.26936 0.69069 0.0
C1271 C 0.45596 0.24935 0.78348 0.0
C1272 C 0.46572 0.25714 0.7512 0.0
H1273 H 0.54689 0.26021 0.5886 0.0
H1274 H 0.51873 0.25274 0.63668 0.0
H1275 H 0.50304 0.28259 0.73485 0.0
H1276 H 0.42985 0.25532 0.87245 0.0
H1277 H 0.44138 0.26856 0.81681 0.0
C1278 C 0.53326 0.77295 0.86532 0.0
C1279 C 0.55607 0.77874 0.86432 0.0
C1280 C 0.52465 0.7666 0.83282 0.0
C1281 C 0.5302 0.76689 0.72786 0.0
H1282 H 0.49801 0.73294 0.73328 0.0
C1283 C 0.50251 0.73854 0.59246 0.0
C1284 C 0.47872 0.73376 0.59212 0.0
C1285 C 0.51213 0.74346 0.62614 0.0
C1286 C 0.50669 0.74252 0.73135 0.0
H1287 H 0.58804 0.78203 0.82846 0.0
H1288 H 0.5733 0.7707 0.77195 0.0
H1289 H 0.51524 0.74212 0.79116 0.0
H1290 H 0.44652 0.73035 0.6273 0.0
H1291 H 0.46333 0.73901 0.68628 0.0
H1292 H 0.52158 0.76737 0.66821 0.0
C1293 C 0.56185 0.77127 0.79778 0.0
C1294 C 0.51662 0.74777 0.76452 0.0
C1295 C 0.57048 0.77761 0.83032 0.0
C1296 C 0.46497 0.73385 0.62658 0.0
C1297 C 0.47463 0.7388 0.66039 0.0
C1298 C 0.5203 0.76165 0.69477 0.0
C1299 C 0.53863 0.76588 0.79846 0.0
C1300 C 0.52853 0.76002 0.76317 0.0
C1301 C 0.49827 0.74376 0.6605 0.0
C1302 C 0.50846 0.74938 0.69604 0.0
H1303 H 0.52186 0.77346 0.89119 0.0
H1304 H 0.50662 0.76265 0.83437 0.0
H1305 H 0.53874 0.77652 0.72586 0.0
H1306 H 0.51397 0.73831 0.56678 0.0
H1307 H 0.53066 0.7469 0.6253 0.0
C1308 C 0.811 0.49457 0.09936 0.0
C1309 C 0.79819 0.48418 0.11559 0.0
C1310 C 0.79871 0.50419 0.07177 0.0
C1311 C 0.73305 0.51982 0.03706 0.0
H1312 H 0.76975 0.53162 0.95021 0.0
C1313 C 0.68519 0.54587 0.89924 0.0
C1314 C 0.69832 0.55513 0.87886 0.0
C1315 C 0.69517 0.53986 0.93385 0.0
C1316 C 0.75928 0.52868 0.97472 0.0
H1317 H 0.76328 0.47508 0.11427 0.0
H1318 H 0.74215 0.49152 0.06546 0.0
H1319 H 0.79283 0.51483 0.99642 0.0
H1320 H 0.73051 0.56648 0.87957 0.0
H1321 H 0.74741 0.55649 0.94064 0.0
H1322 H 0.69931 0.53342 0.01456 0.0
C1323 C 0.76129 0.49261 0.07475 0.0
C1324 C 0.77255 0.51899 1.00117 0.0
C1325 C 0.77349 0.48308 0.10237 0.0
C1326 C 0.71992 0.55949 0.89522 0.0
C1327 C 0.72979 0.55359 0.92981 0.0
C1328 C 0.71975 0.52949 0.01047 0.0
C1329 C 0.77345 0.50353 0.05982 0.0
C1330 C 0.75956 0.5143 0.03244 0.0
C1331 C 0.71843 0.54304 0.94831 0.0
C1332 C 0.73268 0.53394 0.97883 0.0
H1333 H 0.82993 0.49575 0.10942 0.0
H1334 H 0.80861 0.5125 0.06099 0.0
H1335 H 0.72254 0.51667 0.06126 0.0
H1336 H 0.66887 0.5421 0.88657 0.0
H1337 H 0.68599 0.53174 0.94732 0.0
C1338 C 0.24535 0.53258 0.09507 0.0
C1339 C 0.22117 0.53083 0.10926 0.0
C1340 C 0.2582 0.52302 0.06789 0.0
C1341 C 0.24862 0.49536 0.9966 0.0
H1342 H 0.32283 0.48375 0.00568 0.0
C1343 C 0.3028 0.45611 0.88851 0.0
C1344 C 0.32299 0.46139 0.8705 0.0
C1345 C 0.29329 0.46175 0.92365 0.0
C1346 C 0.30212 0.48688 0.00282 0.0
H1347 H 0.19121 0.51788 0.10548 0.0
H1348 H 0.21365 0.50109 0.05796 0.0
H1349 H 0.29906 0.50006 0.05309 0.0
H1350 H 0.35024 0.47591 0.87581 0.0
H1351 H 0.33383 0.48576 0.93748 0.0
H1352 H 0.25165 0.48239 0.94613 0.0
C1353 C 0.2226 0.50996 0.06756 0.0
C1354 C 0.28849 0.4963 0.02982 0.0
C1355 C 0.20966 0.51961 0.09467 0.0
C1356 C 0.33514 0.47139 0.88975 0.0
C1357 C 0.32554 0.47711 0.92491 0.0
C1358 C 0.26221 0.48591 0.96977 0.0
C1359 C 0.24725 0.5114 0.05434 0.0
C1360 C 0.2616 0.50082 0.02672 0.0
C1361 C 0.30355 0.47294 0.9411 0.0
C1362 C 0.28916 0.48167 0.97229 0.0
H1363 H 0.25456 0.54124 0.10557 0.0
H1364 H 0.27682 0.52469 0.05764 0.0
H1365 H 0.22802 0.49875 0.99297 0.0
H1366 H 0.29276 0.44863 0.8738 0.0
H1367 H 0.27665 0.45812 0.93575 0.0
C1368 C 0.44301 0.72799 0.31057 0.0
C1369 C 0.43789 0.73453 0.34656 0.0
C1370 C 0.45048 0.73581 0.27986 0.0
C1371 C 0.48112 0.76741 0.2599 0.0
H1372 H 0.46305 0.76012 0.15537 0.0
C1373 C 0.52331 0.79427 0.13118 0.0
C1374 C 0.53356 0.78448 0.10234 0.0
C1375 C 0.50765 0.79005 0.15989 0.0
C1376 C 0.46828 0.76227 0.18442 0.0
H1377 H 0.43594 0.75462 0.37801 0.0
H1378 H 0.44827 0.76834 0.32424 0.0
H1379 H 0.44256 0.7493 0.20766 0.0
H1380 H 0.5343 0.76292 0.07976 0.0
H1381 H 0.50717 0.75556 0.12952 0.0
H1382 H 0.50719 0.78016 0.23653 0.0
C1383 C 0.44689 0.75708 0.31991 0.0
C1384 C 0.45659 0.75604 0.21441 0.0
C1385 C 0.43946 0.74925 0.35064 0.0
C1386 C 0.52697 0.77063 0.10188 0.0
C1387 C 0.51117 0.76648 0.1302 0.0
C1388 C 0.49273 0.77369 0.22989 0.0
C1389 C 0.45297 0.75039 0.28429 0.0
C1390 C 0.46327 0.75826 0.25253 0.0
C1391 C 0.50165 0.77603 0.15992 0.0
C1392 C 0.48687 0.77093 0.19177 0.0
H1393 H 0.44173 0.71672 0.30626 0.0
H1394 H 0.45522 0.73023 0.25301 0.0
H1395 H 0.48701 0.76923 0.28882 0.0
H1396 H 0.52816 0.80498 0.13228 0.0
H1397 H 0.50046 0.79769 0.18228 0.0
C1398 C 0.57005 0.27168 0.34083 0.0
C1399 C 0.55446 0.27572 0.37305 0.0
C1400 C 0.5613 0.26398 0.31086 0.0
C1401 C 0.50133 0.25656 0.26715 0.0
H1402 H 0.54801 0.22676 0.21259 0.0
C1403 C 0.4678 0.22588 0.1381 0.0
C1404 C 0.4843 0.22459 0.10625 0.0
C1405 C 0.47597 0.23045 0.17343 0.0
C1406 C 0.53473 0.2351 0.22741 0.0
H1407 H 0.5178 0.27427 0.39955 0.0
H1408 H 0.50256 0.26089 0.34727 0.0
H1409 H 0.56318 0.238 0.26885 0.0
H1410 H 0.52272 0.22635 0.08709 0.0
H1411 H 0.53676 0.23443 0.14805 0.0
H1412 H 0.47303 0.25386 0.22525 0.0
C1413 C 0.52138 0.26391 0.34488 0.0
C1414 C 0.54346 0.24157 0.25964 0.0
C1415 C 0.53013 0.27159 0.37485 0.0
C1416 C 0.50938 0.22745 0.11086 0.0
C1417 C 0.51756 0.23192 0.14603 0.0
C1418 C 0.4926 0.2501 0.23487 0.0
C1419 C 0.53675 0.26011 0.31235 0.0
C1420 C 0.52699 0.25254 0.27958 0.0
C1421 C 0.50089 0.23366 0.17768 0.0
C1422 C 0.50933 0.23946 0.21422 0.0
H1423 H 0.58875 0.27483 0.33826 0.0
H1424 H 0.57352 0.26142 0.28601 0.0
H1425 H 0.48819 0.26509 0.28155 0.0
H1426 H 0.44836 0.2238 0.13541 0.0
H1427 H 0.46273 0.23155 0.19735 0.0
C1428 C 0.76969 0.98081 0.59837 0.0
C1429 C 0.79425 0.98222 0.61161 0.0
C1430 C 0.75753 0.98992 0.56983 0.0
C1431 C 0.76921 0.01553 0.49427 0.0
H1432 H 0.69582 0.03004 0.50538 0.0
C1433 C 0.71836 0.05696 0.38899 0.0
C1434 C 0.69667 0.05308 0.3716 0.0
C1435 C 0.72785 0.05049 0.42313 0.0
C1436 C 0.71629 0.02606 0.5019 0.0
H1437 H 0.82569 0.99397 0.60468 0.0
H1438 H 0.80446 0.00999 0.55482 0.0
H1439 H 0.71844 0.01352 0.55315 0.0
H1440 H 0.66684 0.04016 0.37693 0.0
H1441 H 0.68336 0.02876 0.43698 0.0
H1442 H 0.7671 0.02797 0.44302 0.0
C1443 C 0.79466 1.00173 0.56618 0.0
C1444 C 0.72926 0.01653 0.5291 0.0
C1445 C 0.8069 0.99252 0.59463 0.0
C1446 C 0.68324 0.04356 0.39043 0.0
C1447 C 0.69285 0.03696 0.4246 0.0
C1448 C 0.7563 0.0251 0.46726 0.0
C1449 C 0.76959 1.00073 0.554 0.0
C1450 C 0.75585 0.01106 0.52546 0.0
C1451 C 0.71604 0.03981 0.44016 0.0
C1452 C 0.72969 0.03044 0.47065 0.0
H1453 H 0.7596 0.97286 0.61081 0.0
H1454 H 0.73853 0.9886 0.56048 0.0
H1455 H 0.78956 0.01138 0.49018 0.0
H1456 H 0.72919 0.06415 0.37464 0.0
H1457 H 0.74542 0.05313 0.43485 0.0
C1458 C 0.20724 0.02222 0.60222 0.0
C1459 C 0.22085 0.03091 0.62392 0.0
C1460 C 0.21993 0.01294 0.57412 0.0
C1461 C 0.27903 1.006 0.51454 0.0
H1462 H 0.26383 0.96719 0.50724 0.0
C1463 C 0.33107 0.96664 0.40357 0.0
C1464 C 0.31366 0.9612 0.37986 0.0
C1465 C 0.32294 0.9725 0.43928 0.0
C1466 C 0.26833 0.97798 0.50903 0.0
H1467 H 0.25799 0.0373 0.63192 0.0
H1468 H 0.2801 0.02112 0.58327 0.0
H1469 H 0.24162 0.98401 0.55487 0.0
H1470 H 0.27527 0.95627 0.37562 0.0
H1471 H 0.26122 0.96616 0.43791 0.0
H1472 H 0.30531 1.00012 0.46828 0.0
C1473 C 0.25969 0.02141 0.58778 0.0
C1474 C 0.25545 0.98765 0.53607 0.0
C1475 C 0.24705 0.03063 0.6158 0.0
C1476 C 0.28907 0.96028 0.39376 0.0
C1477 C 0.28103 0.96599 0.42944 0.0
C1478 C 0.29191 0.99633 0.48757 0.0
C1479 C 0.24643 0.01224 0.56707 0.0
C1480 C 0.26041 1.00184 0.5388 0.0
C1481 C 0.29739 0.9729 0.45166 0.0
C1482 C 0.28648 0.98227 0.48412 0.0
H1483 H 0.18708 0.02216 0.60803 0.0
H1484 H 0.20906 1.00619 0.55819 0.0
H1485 H 0.28313 0.01688 0.51557 0.0
H1486 H 0.34998 0.96767 0.39305 0.0
H1487 H 0.3361 0.97757 0.45605 0.0
C1488 C 0.36337 0.24653 0.04149 0.0
C1489 C 0.36956 0.23145 0.03609 0.0
C1490 C 0.33779 0.25351 0.04532 0.0
C1491 C 0.27099 0.24885 0.02304 0.0
H1492 H 0.25439 0.28496 0.07925 0.0
C1493 C 0.16852 0.28506 0.02593 0.0
C1494 C 0.16894 0.29909 0.01233 0.0
C1495 C 0.19157 0.27575 0.03545 0.0
C1496 C 0.25871 0.27484 0.06363 0.0
H1497 H 0.3535 0.21183 0.03225 0.0
H1498 H 0.30867 0.22399 0.03995 0.0
H1499 H 0.29717 0.27011 0.08524 0.0
H1500 H 0.19358 0.31462 0.99969 0.0
H1501 H 0.23358 0.29861 0.01763 0.0
H1502 H 0.23224 0.25372 1.00167 0.0
C1503 C 0.3237 0.23046 0.04028 0.0
C1504 C 0.2833 0.26636 0.06677 0.0
C1505 C 0.34944 0.22346 0.03611 0.0
C1506 C 0.19266 0.30386 0.01007 0.0
C1507 C 0.21554 0.29472 0.02044 0.0
C1508 C 0.2462 0.25725 0.02045 0.0
C1509 C 0.31749 0.24564 0.04437 0.0
C1510 C 0.29012 0.25348 0.04552 0.0
C1511 C 0.21532 0.28048 0.03252 0.0
C1512 C 0.24009 0.27053 0.03985 0.0
H1513 H 0.37826 0.2531 0.04154 0.0
H1514 H 0.33398 0.2652 0.0476 0.0
H1515 H 0.27544 0.23911 0.00594 0.0
H1516 H 0.15055 0.28105 0.02768 0.0
H1517 H 0.1909 0.26483 0.04474 0.0
C1518 C 0.85954 0.74875 0.03101 0.0
C1519 C 0.86654 0.73365 0.02697 0.0
C1520 C 0.83379 0.75534 0.03508 0.0
C1521 C 0.76723 0.74929 0.01695 0.0
H1522 H 0.75023 0.78617 0.06962 0.0
C1523 C 0.66384 0.78499 0.02631 0.0
C1524 C 0.6633 0.7982 0.00714 0.0
C1525 C 0.68743 0.77608 0.03507 0.0
C1526 C 0.75468 0.77582 0.0551 0.0
H1527 H 0.85175 0.71358 0.02534 0.0
H1528 H 0.80653 0.72509 0.03368 0.0
H1529 H 0.79351 0.77186 0.07522 0.0
H1530 H 0.68687 0.81272 0.98367 0.0
H1531 H 0.72799 0.79746 1.00054 0.0
H1532 H 0.72798 0.75338 0.99732 0.0
C1533 C 0.82108 0.73187 0.03281 0.0
C1534 C 0.77954 0.76765 0.05793 0.0
C1535 C 0.84703 0.72524 0.02831 0.0
C1536 C 0.68672 0.8026 0.99842 0.0
C1537 C 0.71021 0.7939 0.00809 0.0
C1538 C 0.74214 0.75735 0.0148 0.0
C1539 C 0.81408 0.74707 0.03585 0.0
C1540 C 0.78649 0.75451 0.03776 0.0
C1541 C 0.7108 0.78044 0.02583 0.0
C1542 C 0.73592 0.77088 0.03295 0.0
H1543 H 0.87392 0.75565 0.02998 0.0
H1544 H 0.82939 0.76705 0.03634 0.0
H1545 H 0.77175 0.73933 1.00073 0.0
H1546 H 0.6461 0.78129 0.03315 0.0
H1547 H 0.68747 0.76574 0.04879 0.0
C1548 C 0.08287 0.53521 0.24556 0.0
C1549 C 0.10456 0.52702 0.26346 0.0
C1550 C 0.05914 0.53046 0.24574 0.0
C1551 C 0.03052 0.49734 0.26131 0.0
H1552 H 0.96669 0.52498 0.27088 0.0
C1553 C 0.93023 0.4803 0.24878 0.0
C1554 C 0.91045 0.48735 0.27274 0.0
C1555 C 0.95394 0.48504 0.2467 0.0
C1556 C 0.98432 0.51707 0.26851 0.0
H1557 H 0.11795 0.50771 0.29683 0.0
H1558 H 0.07673 0.49958 0.29773 0.0
H1559 H 0.00756 0.53354 0.27005 0.0
H1560 H 0.90057 0.50454 0.31444 0.0
H1561 H 0.94176 0.51262 0.31133 0.0
H1562 H 0.00733 0.48084 0.26107 0.0
C1563 C 0.0781 0.50945 0.28253 0.0
C1564 C 0.00782 0.52202 0.26749 0.0
C1565 C 0.1018 0.51414 0.28212 0.0
C1566 C 0.91516 0.49904 0.2951 0.0
C1567 C 0.93883 0.50372 0.29322 0.0
C1568 C 0.00703 0.49239 0.2625 0.0
C1569 C 0.05646 0.51745 0.26406 0.0
C1570 C 0.03129 0.51223 0.26411 0.0
C1571 C 0.95851 0.49689 0.26873 0.0
C1572 C 0.98358 0.50217 0.26636 0.0
H1573 H 0.0844 0.54509 0.2306 0.0
H1574 H 0.04303 0.53685 0.23083 0.0
H1575 H 0.04812 0.48946 0.25807 0.0
H1576 H 0.92716 0.47136 0.2309 0.0
H1577 H 0.96848 0.4796 0.2272 0.0
C1578 C 0.34762 0.72385 0.50743 0.0
C1579 C 0.36212 0.7233 0.54117 0.0
C1580 C 0.32376 0.73309 0.50437 0.0
C1581 C 0.27233 0.75696 0.56106 0.0
H1582 H 0.25391 0.77284 0.46081 0.0
C1583 C 0.19033 0.80221 0.47755 0.0
C1584 C 0.16812 0.80034 0.49766 0.0
C1585 C 0.21432 0.79377 0.48603 0.0
C1586 C 0.25877 0.76878 0.48926 0.0
H1587 H 0.36277 0.73203 0.59835 0.0
H1588 H 0.32164 0.74865 0.59257 0.0
H1589 H 0.29457 0.75671 0.46963 0.0
H1590 H 0.15396 0.78854 0.54374 0.0
H1591 H 0.19539 0.77326 0.55723 0.0
H1592 H 0.23699 0.76973 0.58099 0.0
C1593 C 0.32827 0.74161 0.56872 0.0
C1594 C 0.28207 0.75918 0.49418 0.0
C1595 C 0.35198 0.73211 0.57204 0.0
C1596 C 0.17064 0.7902 0.52752 0.0
C1597 C 0.19458 0.78149 0.53544 0.0
C1598 C 0.24915 0.76681 0.55626 0.0
C1599 C 0.3139 0.74236 0.53463 0.0
C1600 C 0.28914 0.75295 0.53003 0.0
C1601 C 0.21674 0.78293 0.51427 0.0
C1602 C 0.24191 0.77282 0.52019 0.0
H1603 H 0.35475 0.71719 0.48312 0.0
H1604 H 0.31311 0.73294 0.47803 0.0
H1605 H 0.27682 0.75236 0.58908 0.0
H1606 H 0.18914 0.8101 0.45478 0.0
H1607 H 0.23092 0.79566 0.46992 0.0
C1608 C 0.84541 0.22052 0.50267 0.0
C1609 C 0.86031 0.22091 0.53571 0.0
C1610 C 0.82104 0.22929 0.49957 0.0
C1611 C 0.76973 0.2534 0.5561 0.0
H1612 H 0.74939 0.26846 0.4557 0.0
C1613 C 0.68769 0.29915 0.47519 0.0
C1614 C 0.66571 0.29769 0.49646 0.0
C1615 C 0.71145 0.29025 0.4824 0.0
C1616 C 0.75482 0.26459 0.48414 0.0
H1617 H 0.86123 0.23072 0.59158 0.0
H1618 H 0.81934 0.24641 0.58572 0.0
H1619 H 0.79013 0.25218 0.46359 0.0
H1620 H 0.65177 0.28609 0.54317 0.0
H1621 H 0.69281 0.27011 0.55465 0.0
H1622 H 0.73497 0.26647 0.57691 0.0
C1623 C 0.82595 0.23904 0.56252 0.0
C1624 C 0.77812 0.25493 0.48856 0.0
C1625 C 0.85012 0.23006 0.56587 0.0
C1626 C 0.66827 0.28747 0.52612 0.0
C1627 C 0.69197 0.27834 0.53286 0.0
C1628 C 0.74657 0.26327 0.55177 0.0
C1629 C 0.81113 0.23893 0.52912 0.0
C1630 C 0.78595 0.24912 0.52457 0.0
C1631 C 0.71384 0.27941 0.5106 0.0
C1632 C 0.73873 0.26902 0.51569 0.0
H1633 H 0.85266 0.21349 0.47904 0.0
H1634 H 0.81006 0.22854 0.4738 0.0
H1635 H 0.77478 0.24907 0.58426 0.0
H1636 H 0.68647 0.30707 0.45249 0.0
H1637 H 0.72789 0.29182 0.46544 0.0
C1638 C 0.09848 0.01558 0.79902 0.0
C1639 C 0.10352 0.02699 0.77593 0.0
C1640 C 0.07483 0.0109 0.79703 0.0
C1641 C 0.00708 0.0221 0.76494 0.0
H1642 H 1.00582 0.98114 0.77578 0.0
C1643 C 0.91177 1.00126 0.78686 0.0
C1644 C 0.90875 0.98824 0.76909 0.0
C1645 C 0.93563 1.00576 0.78684 0.0
C1646 C 1.00578 0.9926 0.7723 0.0
H1647 H 0.08746 0.04244 0.73259 0.0
H1648 H 0.04617 0.03419 0.72873 0.0
H1649 H 0.04691 0.98948 0.77588 0.0
H1650 H 0.92859 0.96968 0.7375 0.0
H1651 H 0.97029 0.97758 0.73697 0.0
H1652 H 0.96601 0.02518 0.76036 0.0
C1653 C 0.06044 0.02898 0.74886 0.0
C1654 C 0.02938 0.99743 0.77288 0.0
C1655 C 0.08413 0.03372 0.75103 0.0
C1656 C 0.93034 0.97969 0.75176 0.0
C1657 C 0.95425 0.98424 0.75149 0.0
C1658 C 0.98349 0.01727 0.76419 0.0
C1659 C 0.05551 0.01744 0.77173 0.0
C1660 C 0.03037 0.01226 0.76957 0.0
C1661 C 0.95717 0.9974 0.76881 0.0
C1662 C 0.98246 1.00246 0.76822 0.0
H1663 H 0.11275 0.01034 0.81908 0.0
H1664 H 0.07159 1.00224 0.81577 0.0
H1665 H 0.00698 0.03361 0.76262 0.0
H1666 H 0.89568 1.00797 0.80112 0.0
H1667 H 0.9372 0.01575 0.80131 0.0
C1668 C 0.43025 0.48206 0.74799 0.0
C1669 C 0.409 0.49012 0.76732 0.0
C1670 C 0.45409 0.48668 0.74762 0.0
C1671 C 0.48361 0.51939 0.76456 0.0
H1672 H 0.54715 0.49134 0.76993 0.0
C1673 C 0.58442 0.53578 0.74994 0.0
C1674 C 0.6044 0.52833 0.77278 0.0
C1675 C 0.56046 0.5313 0.74831 0.0
C1676 C 0.52961 0.49936 0.76873 0.0
H1677 H 0.39651 0.50906 0.80262 0.0
H1678 H 0.43795 0.51697 0.80258 0.0
H1679 H 0.50605 0.48305 0.76989 0.0
H1680 H 0.61435 0.51074 0.81316 0.0
H1681 H 0.57277 0.5031 0.81084 0.0
H1682 H 0.50718 0.53572 0.76469 0.0
C1683 C 0.43612 0.50731 0.7867 0.0
C1684 C 0.50597 0.49457 0.76817 0.0
C1685 C 0.41232 0.50274 0.78685 0.0
C1686 C 0.59962 0.51653 0.79462 0.0
C1687 C 0.57572 0.51212 0.79319 0.0
C1688 C 0.50726 0.52419 0.76528 0.0
C1689 C 0.45732 0.49943 0.76681 0.0
C1690 C 0.48261 0.50451 0.76632 0.0
C1691 C 0.55586 0.51931 0.7697 0.0
C1692 C 0.5306 0.51424 0.76766 0.0
H1693 H 0.42828 0.47238 0.73231 0.0
H1694 H 0.46983 0.48041 0.73161 0.0
H1695 H 0.46608 0.52738 0.76251 0.0
H1696 H 0.58754 0.54483 0.73254 0.0
H1697 H 0.54575 0.53704 0.72963 0.0
C1698 C 0.42204 0.99977 0.26588 0.0
C1699 C 0.41951 0.98516 0.26862 0.0
C1700 C 0.44621 1.00361 0.26102 0.0
C1701 C 0.51463 0.99082 0.2807 0.0
H1702 H 0.52435 0.02206 0.21309 0.0
C1703 C 0.61353 0.00906 0.26465 0.0
C1704 C 0.61358 0.02396 0.26021 0.0
C1705 C 0.59046 1.00367 0.26364 0.0
C1706 C 0.52194 0.01344 0.23249 0.0
H1707 H 0.44031 0.96308 0.26752 0.0
H1708 H 0.48296 0.96978 0.25931 0.0
H1709 H 0.48331 0.01359 0.21337 0.0
H1710 H 0.58885 0.04483 0.25129 0.0
H1711 H 0.54879 0.03555 0.25092 0.0
H1712 H 0.55293 0.99091 0.30069 0.0
C1713 C 0.46607 0.97826 0.26097 0.0
C1714 C 0.49842 1.00853 0.23246 0.0
C1715 C 0.44171 0.97441 0.26533 0.0
C1716 C 0.58978 0.03333 0.25518 0.0
C1717 C 0.56669 0.02795 0.25439 0.0
C1718 C 0.53811 0.99581 0.28096 0.0
C1719 C 0.46859 0.99293 0.25912 0.0
C1720 C 0.49437 0.99727 0.25684 0.0
C1721 C 0.56669 0.01303 0.25838 0.0
C1722 C 0.54201 1.0073 0.25715 0.0
H1723 H 0.40524 1.00829 0.26792 0.0
H1724 H 0.44744 0.01499 0.25999 0.0
H1725 H 0.51201 0.98225 0.30018 0.0
H1726 H 0.63132 1.00148 0.26903 0.0
H1727 H 0.59134 0.99211 0.26646 0.0
loop_
_geom_bond_atom_site_label_1
_geom_bond_atom_site_label_2
_geom_bond_distance
_geom_bond_site_symmetry_2
_ccdc_geom_bond_type
C0 C1 1.351 . S
C0 N3 1.368 . S
C0 H5 0.931 . S
C1 C0 1.351 . S
C1 N2 1.373 . S
C1 H29 0.930 . S
N2 C1 1.373 . S
N2 C4 1.340 . S
N3 C0 1.368 . S
N3 C4 1.321 . S
N3 Co6 2.135 1_556 S
C4 N2 1.340 . S
C4 N3 1.321 . S
C4 H28 0.930 . S
H5 C0 0.931 . S
Co6 N3 2.135 1_554 S
Co6 N9 2.121 . S
Co6 O14 2.055 . S
Co6 O17 2.039 . S
Co6 N20 2.140 1_554 S
C7 O8 1.227 1_554 S
C7 O17 1.265 . S
O8 C7 1.227 1_556 S
N9 Co6 2.121 . S
N9 C11 1.375 . S
N9 C12 1.313 . S
C10 C11 1.338 . S
C10 N13 1.377 . S
C10 H30 0.930 . S
C11 N9 1.375 . S
C11 C10 1.338 . S
C11 H15 0.931 . S
C12 N9 1.313 . S
C12 N13 1.344 . S
C12 H16 0.930 . S
N13 C10 1.377 . S
N13 C12 1.344 . S
O14 Co6 2.055 . S
O14 C18 1.253 . S
H15 C11 0.931 . S
H16 C12 0.930 . S
O17 Co6 2.039 . S
O17 C7 1.265 . S
C18 O14 1.253 . S
C18 O19 1.227 . S
O19 C18 1.227 . S
N20 Co6 2.140 1_556 S
N20 C23 1.346 . S
N20 C24 1.345 . S
C21 C22 1.387 . S
C21 C25 1.391 . S
C22 C21 1.387 . S
C22 C23 1.369 . S
C22 H31 0.929 . S
C23 N20 1.346 . S
C23 C22 1.369 . S
C23 H26 0.928 . S
C24 N20 1.345 . S
C24 C25 1.371 . S
C24 H27 0.931 1_556 S
C25 C21 1.391 . S
C25 C24 1.371 . S
C25 H32 0.930 . S
H26 C23 0.928 . S
H27 C24 0.931 1_554 S
H28 C4 0.930 . S
H29 C1 0.930 . S
H30 C10 0.930 . S
H31 C22 0.929 . S
H32 C25 0.930 . S
C33 C34 1.351 . S
C33 N36 1.368 . S
C33 H38 0.931 . S
C34 C33 1.351 . S
C34 N35 1.373 . S
C34 H62 0.930 . S
N35 C34 1.373 . S
N35 C37 1.340 . S
N36 C33 1.368 . S
N36 C37 1.321 . S
N36 Co39 2.135 1_556 S
C37 N35 1.340 . S
C37 N36 1.321 . S
C37 H61 0.930 . S
H38 C33 0.931 . S
Co39 N36 2.135 1_554 S
Co39 N42 2.121 . S
Co39 O47 2.055 . S
Co39 O50 2.039 . S
Co39 N53 2.140 1_554 S
C40 O41 1.227 1_554 S
C40 O50 1.265 . S
O41 C40 1.227 1_556 S
N42 Co39 2.121 . S
N42 C44 1.375 . S
N42 C45 1.313 . S
C43 C44 1.338 . S
C43 N46 1.377 . S
C43 H63 0.930 . S
C44 N42 1.375 . S
C44 C43 1.338 . S
C44 H48 0.931 . S
C45 N42 1.313 . S
C45 N46 1.344 . S
C45 H49 0.930 . S
N46 C43 1.377 . S
N46 C45 1.344 . S
O47 Co39 2.055 . S
O47 C51 1.253 . S
H48 C44 0.931 . S
H49 C45 0.930 . S
O50 Co39 2.039 . S
O50 C40 1.265 . S
C51 O47 1.253 . S
C51 O52 1.227 . S
O52 C51 1.227 . S
N53 Co39 2.140 1_556 S
N53 C56 1.346 . S
N53 C57 1.345 . S
C54 C55 1.387 . S
C54 C58 1.391 . S
C55 C54 1.387 . S
C55 C56 1.369 . S
C55 H64 0.929 . S
C56 N53 1.346 . S
C56 C55 1.369 . S
C56 H59 0.928 . S
C57 N53 1.345 . S
C57 C58 1.371 . S
C57 H60 0.931 1_556 S
C58 C54 1.391 . S
C58 C57 1.371 . S
C58 H65 0.930 . S
H59 C56 0.928 . S
H60 C57 0.931 1_554 S
H61 C37 0.930 . S
H62 C34 0.930 . S
H63 C43 0.930 . S
H64 C55 0.929 . S
H65 C58 0.930 . S
C66 C67 1.351 . S
C66 N69 1.368 . S
C66 H71 0.931 . S
C67 C66 1.351 . S
C67 N68 1.373 . S
C67 H95 0.930 . S
N68 C67 1.373 . S
N68 C70 1.340 . S
N69 C66 1.368 . S
N69 C70 1.321 . S
N69 Co72 2.135 . S
C70 N68 1.340 . S
C70 N69 1.321 . S
C70 H94 0.930 . S
H71 C66 0.931 . S
Co72 N69 2.135 . S
Co72 N75 2.121 . S
Co72 O80 2.055 . S
Co72 O83 2.039 . S
Co72 N86 2.140 . S
C73 O74 1.227 . S
C73 O83 1.265 . S
O74 C73 1.227 . S
N75 Co72 2.121 . S
N75 C77 1.375 . S
N75 C78 1.313 . S
C76 C77 1.338 . S
C76 N79 1.377 . S
C76 H96 0.930 . S
C77 N75 1.375 . S
C77 C76 1.338 . S
C77 H81 0.931 . S
C78 N75 1.313 . S
C78 N79 1.344 . S
C78 H82 0.930 . S
N79 C76 1.377 . S
N79 C78 1.344 . S
O80 Co72 2.055 . S
O80 C84 1.253 . S
H81 C77 0.931 . S
H82 C78 0.930 . S
O83 Co72 2.039 . S
O83 C73 1.265 . S
C84 O80 1.253 . S
C84 O85 1.227 . S
O85 C84 1.227 . S
N86 Co72 2.140 . S
N86 C89 1.346 . S
N86 C90 1.345 . S
C87 C88 1.387 . S
C87 C91 1.391 . S
C88 C87 1.387 . S
C88 C89 1.369 . S
C88 H97 0.929 . S
C89 N86 1.346 . S
C89 C88 1.369 . S
C89 H92 0.928 . S
C90 N86 1.345 . S
C90 C91 1.371 . S
C90 H93 0.931 . S
C91 C87 1.391 . S
C91 C90 1.371 . S
C91 H98 0.930 . S
H92 C89 0.928 . S
H93 C90 0.931 . S
H94 C70 0.930 . S
H95 C67 0.930 . S
H96 C76 0.930 . S
H97 C88 0.929 . S
H98 C91 0.930 . S
C99 C100 1.351 . S
C99 N102 1.368 . S
C99 H104 0.931 . S
C100 C99 1.351 . S
C100 N101 1.373 . S
C100 H128 0.930 . S
N101 C100 1.373 . S
N101 C103 1.340 . S
N102 C99 1.368 . S
N102 C103 1.321 . S
N102 Co105 2.135 . S
C103 N101 1.340 . S
C103 N102 1.321 . S
C103 H127 0.930 . S
H104 C99 0.931 . S
Co105 N102 2.135 . S
Co105 N108 2.121 . S
Co105 O113 2.055 . S
Co105 O116 2.039 . S
Co105 N119 2.140 . S
C106 O107 1.227 . S
C106 O116 1.265 . S
O107 C106 1.227 . S
N108 Co105 2.121 . S
N108 C110 1.375 . S
N108 C111 1.313 . S
C109 C110 1.338 . S
C109 N112 1.377 . S
C109 H129 0.930 . S
C110 N108 1.375 . S
C110 C109 1.338 . S
C110 H114 0.931 . S
C111 N108 1.313 . S
C111 N112 1.344 . S
C111 H115 0.930 . S
N112 C109 1.377 . S
N112 C111 1.344 . S
O113 Co105 2.055 . S
O113 C117 1.253 . S
H114 C110 0.931 . S
H115 C111 0.930 . S
O116 Co105 2.039 . S
O116 C106 1.265 . S
C117 O113 1.253 . S
C117 O118 1.227 . S
O118 C117 1.227 . S
N119 Co105 2.140 . S
N119 C122 1.346 . S
N119 C123 1.345 . S
C120 C121 1.387 . S
C120 C124 1.391 . S
C121 C120 1.387 . S
C121 C122 1.369 . S
C121 H130 0.929 . S
C122 N119 1.346 . S
C122 C121 1.369 . S
C122 H125 0.928 . S
C123 N119 1.345 . S
C123 C124 1.371 . S
C123 H126 0.931 . S
C124 C120 1.391 . S
C124 C123 1.371 . S
C124 H131 0.930 . S
H125 C122 0.928 . S
H126 C123 0.931 . S
H127 C103 0.930 . S
H128 C100 0.930 . S
H129 C109 0.930 . S
H130 C121 0.929 . S
H131 C124 0.930 . S
C132 C133 1.351 . S
C132 N135 1.368 . S
C132 H137 0.931 . S
C133 C132 1.351 . S
C133 N134 1.373 . S
C133 H161 0.930 . S
N134 C133 1.373 . S
N134 C136 1.340 . S
N135 C132 1.368 . S
N135 C136 1.321 . S
N135 Co138 2.135 . S
C136 N134 1.340 . S
C136 N135 1.321 . S
C136 H160 0.930 . S
H137 C132 0.931 . S
Co138 N135 2.135 . S
Co138 N141 2.121 . S
Co138 O146 2.055 . S
Co138 O149 2.039 . S
Co138 N152 2.140 . S
C139 O140 1.227 . S
C139 O149 1.265 . S
O140 C139 1.227 . S
N141 Co138 2.121 . S
N141 C143 1.375 . S
N141 C144 1.313 . S
C142 C143 1.338 . S
C142 N145 1.377 . S
C142 H162 0.930 . S
C143 N141 1.375 . S
C143 C142 1.338 . S
C143 H147 0.931 . S
C144 N141 1.313 . S
C144 N145 1.344 . S
C144 H148 0.930 . S
N145 C142 1.377 . S
N145 C144 1.344 . S
O146 Co138 2.055 . S
O146 C150 1.253 . S
H147 C143 0.931 . S
H148 C144 0.930 . S
O149 Co138 2.039 . S
O149 C139 1.265 . S
C150 O146 1.253 . S
C150 O151 1.227 . S
O151 C150 1.227 . S
N152 Co138 2.140 . S
N152 C155 1.346 . S
N152 C156 1.345 . S
C153 C154 1.387 . S
C153 C157 1.391 . S
C154 C153 1.387 . S
C154 C155 1.369 . S
C154 H163 0.929 . S
C155 N152 1.346 . S
C155 C154 1.369 . S
C155 H158 0.928 . S
C156 N152 1.345 . S
C156 C157 1.371 . S
C156 H159 0.931 . S
C157 C153 1.391 . S
C157 C156 1.371 . S
C157 H164 0.930 . S
H158 C155 0.928 . S
H159 C156 0.931 . S
H160 C136 0.930 . S
H161 C133 0.930 . S
H162 C142 0.930 . S
H163 C154 0.929 . S
H164 C157 0.930 . S
C165 C166 1.351 . S
C165 N168 1.368 . S
C165 H170 0.931 . S
C166 C165 1.351 . S
C166 N167 1.373 . S
C166 H194 0.930 . S
N167 C166 1.373 . S
N167 C169 1.340 . S
N168 C165 1.368 . S
N168 C169 1.321 . S
N168 Co171 2.135 . S
C169 N167 1.340 . S
C169 N168 1.321 . S
C169 H193 0.930 . S
H170 C165 0.931 . S
Co171 N168 2.135 . S
Co171 N174 2.121 . S
Co171 O179 2.055 . S
Co171 O182 2.039 . S
Co171 N185 2.140 . S
C172 O173 1.227 . S
C172 O182 1.265 . S
O173 C172 1.227 . S
N174 Co171 2.121 . S
N174 C176 1.375 . S
N174 C177 1.313 . S
C175 C176 1.338 . S
C175 N178 1.377 . S
C175 H195 0.930 . S
C176 N174 1.375 . S
C176 C175 1.338 . S
C176 H180 0.931 . S
C177 N174 1.313 . S
C177 N178 1.344 . S
C177 H181 0.930 . S
N178 C175 1.377 . S
N178 C177 1.344 . S
O179 Co171 2.055 . S
O179 C183 1.253 . S
H180 C176 0.931 . S
H181 C177 0.930 . S
O182 Co171 2.039 . S
O182 C172 1.265 . S
C183 O179 1.253 . S
C183 O184 1.227 . S
O184 C183 1.227 . S
N185 Co171 2.140 . S
N185 C188 1.346 . S
N185 C189 1.345 . S
C186 C187 1.387 . S
C186 C190 1.391 . S
C187 C186 1.387 . S
C187 C188 1.369 . S
C187 H196 0.929 . S
C188 N185 1.346 . S
C188 C187 1.369 . S
C188 H191 0.928 . S
C189 N185 1.345 . S
C189 C190 1.371 . S
C189 H192 0.931 . S
C190 C186 1.391 . S
C190 C189 1.371 . S
C190 H197 0.930 . S
H191 C188 0.928 . S
H192 C189 0.931 . S
H193 C169 0.930 . S
H194 C166 0.930 . S
H195 C175 0.930 . S
H196 C187 0.929 . S
H197 C190 0.930 . S
C198 C199 1.351 . S
C198 N201 1.368 . S
C198 H203 0.931 . S
C199 C198 1.351 . S
C199 N200 1.373 . S
C199 H227 0.930 . S
N200 C199 1.373 . S
N200 C202 1.340 . S
N201 C198 1.368 . S
N201 C202 1.321 . S
N201 Co204 2.135 . S
C202 N200 1.340 . S
C202 N201 1.321 . S
C202 H226 0.930 . S
H203 C198 0.931 . S
Co204 N201 2.135 . S
Co204 N207 2.121 . S
Co204 O212 2.055 . S
Co204 O215 2.039 . S
Co204 N218 2.140 . S
C205 O206 1.227 . S
C205 O215 1.265 . S
O206 C205 1.227 . S
N207 Co204 2.121 . S
N207 C209 1.375 . S
N207 C210 1.313 . S
C208 C209 1.338 . S
C208 N211 1.377 . S
C208 H228 0.930 . S
C209 N207 1.375 . S
C209 C208 1.338 . S
C209 H213 0.931 . S
C210 N207 1.313 . S
C210 N211 1.344 . S
C210 H214 0.930 . S
N211 C208 1.377 . S
N211 C210 1.344 . S
O212 Co204 2.055 . S
O212 C216 1.253 . S
H213 C209 0.931 . S
H214 C210 0.930 . S
O215 Co204 2.039 . S
O215 C205 1.265 . S
C216 O212 1.253 . S
C216 O217 1.227 . S
O217 C216 1.227 . S
N218 Co204 2.140 . S
N218 C221 1.346 . S
N218 C222 1.345 . S
C219 C220 1.387 . S
C219 C223 1.391 . S
C220 C219 1.387 . S
C220 C221 1.369 . S
C220 H229 0.929 . S
C221 N218 1.346 . S
C221 C220 1.369 . S
C221 H224 0.928 . S
C222 N218 1.345 . S
C222 C223 1.371 . S
C222 H225 0.931 . S
C223 C219 1.391 . S
C223 C222 1.371 . S
C223 H230 0.930 . S
H224 C221 0.928 . S
H225 C222 0.931 . S
H226 C202 0.930 . S
H227 C199 0.930 . S
H228 C208 0.930 . S
H229 C220 0.929 . S
H230 C223 0.930 . S
C231 C232 1.351 . S
C231 N234 1.368 . S
C231 H236 0.931 . S
C232 C231 1.351 . S
C232 N233 1.373 . S
C232 H260 0.930 . S
N233 C232 1.373 . S
N233 C235 1.340 . S
N234 C231 1.368 . S
N234 C235 1.321 . S
N234 Co237 2.135 . S
C235 N233 1.340 . S
C235 N234 1.321 . S
C235 H259 0.930 . S
H236 C231 0.931 . S
Co237 N234 2.135 . S
Co237 N240 2.121 . S
Co237 O245 2.055 . S
Co237 O248 2.039 . S
Co237 N251 2.140 . S
C238 O239 1.227 . S
C238 O248 1.265 . S
O239 C238 1.227 . S
N240 Co237 2.121 . S
N240 C242 1.375 . S
N240 C243 1.313 . S
C241 C242 1.338 . S
C241 N244 1.377 . S
C241 H261 0.930 . S
C242 N240 1.375 . S
C242 C241 1.338 . S
C242 H246 0.931 . S
C243 N240 1.313 . S
C243 N244 1.344 . S
C243 H247 0.930 . S
N244 C241 1.377 . S
N244 C243 1.344 . S
O245 Co237 2.055 . S
O245 C249 1.253 . S
H246 C242 0.931 . S
H247 C243 0.930 . S
O248 Co237 2.039 . S
O248 C238 1.265 . S
C249 O245 1.253 . S
C249 O250 1.227 . S
O250 C249 1.227 . S
N251 Co237 2.140 . S
N251 C254 1.346 . S
N251 C255 1.345 . S
C252 C253 1.387 . S
C252 C256 1.391 . S
C253 C252 1.387 . S
C253 C254 1.369 . S
C253 H262 0.929 . S
C254 N251 1.346 . S
C254 C253 1.369 . S
C254 H257 0.928 . S
C255 N251 1.345 . S
C255 C256 1.371 . S
C255 H258 0.931 . S
C256 C252 1.391 . S
C256 C255 1.371 . S
C256 H263 0.930 . S
H257 C254 0.928 . S
H258 C255 0.931 . S
H259 C235 0.930 . S
H260 C232 0.930 . S
H261 C241 0.930 . S
H262 C253 0.929 . S
H263 C256 0.930 . S
C264 C265 1.351 . S
C264 N267 1.368 . S
C264 H269 0.931 . S
C265 C264 1.351 . S
C265 N266 1.373 . S
C265 H293 0.930 . S
N266 C265 1.373 . S
N266 C268 1.340 . S
N267 C264 1.368 . S
N267 C268 1.321 . S
N267 Co270 2.135 . S
C268 N266 1.340 . S
C268 N267 1.321 . S
C268 H292 0.930 . S
H269 C264 0.931 . S
Co270 N267 2.135 . S
Co270 N273 2.121 . S
Co270 O278 2.055 . S
Co270 O281 2.039 . S
Co270 N284 2.140 . S
C271 O272 1.227 . S
C271 O281 1.265 . S
O272 C271 1.227 . S
N273 Co270 2.121 . S
N273 C275 1.375 . S
N273 C276 1.313 . S
C274 C275 1.338 . S
C274 N277 1.377 . S
C274 H294 0.930 . S
C275 N273 1.375 . S
C275 C274 1.338 . S
C275 H279 0.931 . S
C276 N273 1.313 . S
C276 N277 1.344 . S
C276 H280 0.930 . S
N277 C274 1.377 . S
N277 C276 1.344 . S
O278 Co270 2.055 . S
O278 C282 1.253 . S
H279 C275 0.931 . S
H280 C276 0.930 . S
O281 Co270 2.039 . S
O281 C271 1.265 . S
C282 O278 1.253 . S
C282 O283 1.227 . S
O283 C282 1.227 . S
N284 Co270 2.140 . S
N284 C287 1.346 . S
N284 C288 1.345 . S
C285 C286 1.387 . S
C285 C289 1.391 . S
C286 C285 1.387 . S
C286 C287 1.369 . S
C286 H295 0.929 . S
C287 N284 1.346 . S
C287 C286 1.369 . S
C287 H290 0.928 . S
C288 N284 1.345 . S
C288 C289 1.371 . S
C288 H291 0.931 . S
C289 C285 1.391 . S
C289 C288 1.371 . S
C289 H296 0.930 . S
H290 C287 0.928 . S
H291 C288 0.931 . S
H292 C268 0.930 . S
H293 C265 0.930 . S
H294 C274 0.930 . S
H295 C286 0.929 . S
H296 C289 0.930 . S
C297 C298 1.351 . S
C297 N300 1.368 . S
C297 H302 0.931 . S
C298 C297 1.351 . S
C298 N299 1.373 . S
C298 H326 0.930 . S
N299 C298 1.373 . S
N299 C301 1.340 . S
N300 C297 1.368 . S
N300 C301 1.321 . S
N300 Co303 2.135 . S
C301 N299 1.340 . S
C301 N300 1.321 . S
C301 H325 0.930 . S
H302 C297 0.931 . S
Co303 N300 2.135 . S
Co303 N306 2.121 . S
Co303 O311 2.055 . S
Co303 O314 2.039 . S
Co303 N317 2.140 . S
C304 O305 1.227 . S
C304 O314 1.265 . S
O305 C304 1.227 . S
N306 Co303 2.121 . S
N306 C308 1.375 . S
N306 C309 1.313 . S
C307 C308 1.338 . S
C307 N310 1.377 . S
C307 H327 0.930 . S
C308 N306 1.375 . S
C308 C307 1.338 . S
C308 H312 0.931 . S
C309 N306 1.313 . S
C309 N310 1.344 . S
C309 H313 0.930 . S
N310 C307 1.377 . S
N310 C309 1.344 . S
O311 Co303 2.055 . S
O311 C315 1.253 . S
H312 C308 0.931 . S
H313 C309 0.930 . S
O314 Co303 2.039 . S
O314 C304 1.265 . S
C315 O311 1.253 . S
C315 O316 1.227 . S
O316 C315 1.227 . S
N317 Co303 2.140 . S
N317 C320 1.346 . S
N317 C321 1.345 . S
C318 C319 1.387 . S
C318 C322 1.391 . S
C319 C318 1.387 . S
C319 C320 1.369 . S
C319 H328 0.929 . S
C320 N317 1.346 . S
C320 C319 1.369 . S
C320 H323 0.928 . S
C321 N317 1.345 . S
C321 C322 1.371 . S
C321 H324 0.931 . S
C322 C318 1.391 . S
C322 C321 1.371 . S
C322 H329 0.930 . S
H323 C320 0.928 . S
H324 C321 0.931 . S
H325 C301 0.930 . S
H326 C298 0.930 . S
H327 C307 0.930 . S
H328 C319 0.929 . S
H329 C322 0.930 . S
C330 C331 1.351 . S
C330 N333 1.368 . S
C330 H335 0.931 . S
C331 C330 1.351 . S
C331 N332 1.373 . S
C331 H359 0.930 . S
N332 C331 1.373 . S
N332 C334 1.340 . S
N333 C330 1.368 . S
N333 C334 1.321 . S
N333 Co336 2.135 . S
C334 N332 1.340 . S
C334 N333 1.321 . S
C334 H358 0.930 . S
H335 C330 0.931 . S
Co336 N333 2.135 . S
Co336 N339 2.121 . S
Co336 O344 2.055 . S
Co336 O347 2.039 . S
Co336 N350 2.140 . S
C337 O338 1.227 . S
C337 O347 1.265 . S
O338 C337 1.227 . S
N339 Co336 2.121 . S
N339 C341 1.375 . S
N339 C342 1.313 . S
C340 C341 1.338 . S
C340 N343 1.377 . S
C340 H360 0.930 . S
C341 N339 1.375 . S
C341 C340 1.338 . S
C341 H345 0.931 . S
C342 N339 1.313 . S
C342 N343 1.344 . S
C342 H346 0.930 . S
N343 C340 1.377 . S
N343 C342 1.344 . S
O344 Co336 2.055 . S
O344 C348 1.253 . S
H345 C341 0.931 . S
H346 C342 0.930 . S
O347 Co336 2.039 . S
O347 C337 1.265 . S
C348 O344 1.253 . S
C348 O349 1.227 . S
O349 C348 1.227 . S
N350 Co336 2.140 . S
N350 C353 1.346 . S
N350 C354 1.345 . S
C351 C352 1.387 . S
C351 C355 1.391 . S
C352 C351 1.387 . S
C352 C353 1.369 . S
C352 H361 0.929 . S
C353 N350 1.346 . S
C353 C352 1.369 . S
C353 H356 0.928 . S
C354 N350 1.345 . S
C354 C355 1.371 . S
C354 H357 0.931 . S
C355 C351 1.391 . S
C355 C354 1.371 . S
C355 H362 0.930 . S
H356 C353 0.928 . S
H357 C354 0.931 . S
H358 C334 0.930 . S
H359 C331 0.930 . S
H360 C340 0.930 . S
H361 C352 0.929 . S
H362 C355 0.930 . S
C363 C364 1.351 . S
C363 N366 1.368 . S
C363 H368 0.931 . S
C364 C363 1.351 . S
C364 N365 1.373 . S
C364 H392 0.930 . S
N365 C364 1.373 . S
N365 C367 1.340 . S
N366 C363 1.368 . S
N366 C367 1.321 . S
N366 Co369 2.135 . S
C367 N365 1.340 . S
C367 N366 1.321 . S
C367 H391 0.930 . S
H368 C363 0.931 . S
Co369 N366 2.135 . S
Co369 N372 2.121 . S
Co369 O377 2.055 . S
Co369 O380 2.039 . S
Co369 N383 2.140 . S
C370 O371 1.227 . S
C370 O380 1.265 . S
O371 C370 1.227 . S
N372 Co369 2.121 . S
N372 C374 1.375 . S
N372 C375 1.313 . S
C373 C374 1.338 . S
C373 N376 1.377 . S
C373 H393 0.930 . S
C374 N372 1.375 . S
C374 C373 1.338 . S
C374 H378 0.931 . S
C375 N372 1.313 . S
C375 N376 1.344 . S
C375 H379 0.930 . S
N376 C373 1.377 . S
N376 C375 1.344 . S
O377 Co369 2.055 . S
O377 C381 1.253 . S
H378 C374 0.931 . S
H379 C375 0.930 . S
O380 Co369 2.039 . S
O380 C370 1.265 . S
C381 O377 1.253 . S
C381 O382 1.227 . S
O382 C381 1.227 . S
N383 Co369 2.140 . S
N383 C386 1.346 . S
N383 C387 1.345 . S
C384 C385 1.387 . S
C384 C388 1.391 . S
C385 C384 1.387 . S
C385 C386 1.369 . S
C385 H394 0.929 . S
C386 N383 1.346 . S
C386 C385 1.369 . S
C386 H389 0.928 . S
C387 N383 1.345 . S
C387 C388 1.371 . S
C387 H390 0.931 . S
C388 C384 1.391 . S
C388 C387 1.371 . S
C388 H395 0.930 . S
H389 C386 0.928 . S
H390 C387 0.931 . S
H391 C367 0.930 . S
H392 C364 0.930 . S
H393 C373 0.930 . S
H394 C385 0.929 . S
H395 C388 0.930 . S
C396 C397 1.351 . S
C396 N399 1.368 . S
C396 H401 0.931 . S
C397 C396 1.351 . S
C397 N398 1.373 . S
C397 H425 0.930 . S
N398 C397 1.373 . S
N398 C400 1.340 . S
N399 C396 1.368 . S
N399 C400 1.321 . S
N399 Co402 2.135 1_556 S
C400 N398 1.340 . S
C400 N399 1.321 . S
C400 H424 0.930 . S
H401 C396 0.931 . S
Co402 N399 2.135 1_554 S
Co402 N405 2.121 . S
Co402 O410 2.055 . S
Co402 O413 2.039 . S
Co402 N416 2.140 1_554 S
C403 O404 1.227 1_554 S
C403 O413 1.265 . S
O404 C403 1.227 1_556 S
N405 Co402 2.121 . S
N405 C407 1.375 . S
N405 C408 1.313 . S
C406 C407 1.338 . S
C406 N409 1.377 . S
C406 H426 0.930 . S
C407 N405 1.375 . S
C407 C406 1.338 . S
C407 H411 0.931 . S
C408 N405 1.313 . S
C408 N409 1.344 . S
C408 H412 0.930 . S
N409 C406 1.377 . S
N409 C408 1.344 . S
O410 Co402 2.055 . S
O410 C414 1.253 . S
H411 C407 0.931 . S
H412 C408 0.930 . S
O413 Co402 2.039 . S
O413 C403 1.265 . S
C414 O410 1.253 . S
C414 O415 1.227 . S
O415 C414 1.227 . S
N416 Co402 2.140 1_556 S
N416 C419 1.346 . S
N416 C420 1.345 . S
C417 C418 1.387 . S
C417 C421 1.391 . S
C418 C417 1.387 . S
C418 C419 1.369 . S
C418 H427 0.929 . S
C419 N416 1.346 . S
C419 C418 1.369 . S
C419 H422 0.928 . S
C420 N416 1.345 . S
C420 C421 1.371 . S
C420 H423 0.931 1_556 S
C421 C417 1.391 . S
C421 C420 1.371 . S
C421 H428 0.930 . S
H422 C419 0.928 . S
H423 C420 0.931 1_554 S
H424 C400 0.930 . S
H425 C397 0.930 . S
H426 C406 0.930 . S
H427 C418 0.929 . S
H428 C421 0.930 . S
C429 C430 1.351 . S
C429 N432 1.368 . S
C429 H434 0.931 . S
C430 C429 1.351 . S
C430 N431 1.373 . S
C430 H458 0.930 . S
N431 C430 1.373 . S
N431 C433 1.340 . S
N432 C429 1.368 . S
N432 C433 1.321 . S
N432 Co435 2.135 1_556 S
C433 N431 1.340 . S
C433 N432 1.321 . S
C433 H457 0.930 . S
H434 C429 0.931 . S
Co435 N432 2.135 1_554 S
Co435 N438 2.121 . S
Co435 O443 2.055 . S
Co435 O446 2.039 . S
Co435 N449 2.140 1_554 S
C436 O437 1.227 1_554 S
C436 O446 1.265 . S
O437 C436 1.227 1_556 S
N438 Co435 2.121 . S
N438 C440 1.375 . S
N438 C441 1.313 . S
C439 C440 1.338 . S
C439 N442 1.377 . S
C439 H459 0.930 . S
C440 N438 1.375 . S
C440 C439 1.338 . S
C440 H444 0.931 . S
C441 N438 1.313 . S
C441 N442 1.344 . S
C441 H445 0.930 . S
N442 C439 1.377 . S
N442 C441 1.344 . S
O443 Co435 2.055 . S
O443 C447 1.253 . S
H444 C440 0.931 . S
H445 C441 0.930 . S
O446 Co435 2.039 . S
O446 C436 1.265 . S
C447 O443 1.253 . S
C447 O448 1.227 . S
O448 C447 1.227 . S
N449 Co435 2.140 1_556 S
N449 C452 1.346 . S
N449 C453 1.345 . S
C450 C451 1.387 . S
C450 C454 1.391 . S
C451 C450 1.387 . S
C451 C452 1.369 . S
C451 H460 0.929 . S
C452 N449 1.346 . S
C452 C451 1.369 . S
C452 H455 0.928 . S
C453 N449 1.345 . S
C453 C454 1.371 . S
C453 H456 0.931 1_556 S
C454 C450 1.391 . S
C454 C453 1.371 . S
C454 H461 0.930 . S
H455 C452 0.928 . S
H456 C453 0.931 1_554 S
H457 C433 0.930 . S
H458 C430 0.930 . S
H459 C439 0.930 . S
H460 C451 0.929 . S
H461 C454 0.930 . S
C462 C463 1.351 . S
C462 N465 1.368 . S
C462 H467 0.931 . S
C463 C462 1.351 . S
C463 N464 1.373 . S
C463 H491 0.930 . S
N464 C463 1.373 . S
N464 C466 1.340 . S
N465 C462 1.368 . S
N465 C466 1.321 . S
N465 Co468 2.135 . S
C466 N464 1.340 . S
C466 N465 1.321 . S
C466 H490 0.930 . S
H467 C462 0.931 . S
Co468 N465 2.135 . S
Co468 N471 2.121 . S
Co468 O476 2.055 . S
Co468 O479 2.039 . S
Co468 N482 2.140 . S
C469 O470 1.227 . S
C469 O479 1.265 . S
O470 C469 1.227 . S
N471 Co468 2.121 . S
N471 C473 1.375 . S
N471 C474 1.313 . S
C472 C473 1.338 . S
C472 N475 1.377 . S
C472 H492 0.930 . S
C473 N471 1.375 . S
C473 C472 1.338 . S
C473 H477 0.931 . S
C474 N471 1.313 . S
C474 N475 1.344 . S
C474 H478 0.930 . S
N475 C472 1.377 . S
N475 C474 1.344 . S
O476 Co468 2.055 . S
O476 C480 1.253 . S
H477 C473 0.931 . S
H478 C474 0.930 . S
O479 Co468 2.039 . S
O479 C469 1.265 . S
C480 O476 1.253 . S
C480 O481 1.227 . S
O481 C480 1.227 . S
N482 Co468 2.140 . S
N482 C485 1.346 . S
N482 C486 1.345 . S
C483 C484 1.387 . S
C483 C487 1.391 . S
C484 C483 1.387 . S
C484 C485 1.369 . S
C484 H493 0.929 . S
C485 N482 1.346 . S
C485 C484 1.369 . S
C485 H488 0.928 . S
C486 N482 1.345 . S
C486 C487 1.371 . S
C486 H489 0.931 . S
C487 C483 1.391 . S
C487 C486 1.371 . S
C487 H494 0.930 . S
H488 C485 0.928 . S
H489 C486 0.931 . S
H490 C466 0.930 . S
H491 C463 0.930 . S
H492 C472 0.930 . S
H493 C484 0.929 . S
H494 C487 0.930 . S
C495 C496 1.351 . S
C495 N498 1.368 . S
C495 H500 0.931 . S
C496 C495 1.351 . S
C496 N497 1.373 . S
C496 H524 0.930 . S
N497 C496 1.373 . S
N497 C499 1.340 . S
N498 C495 1.368 . S
N498 C499 1.321 . S
N498 Co501 2.135 . S
C499 N497 1.340 . S
C499 N498 1.321 . S
C499 H523 0.930 . S
H500 C495 0.931 . S
Co501 N498 2.135 . S
Co501 N504 2.121 . S
Co501 O509 2.055 . S
Co501 O512 2.039 . S
Co501 N515 2.140 . S
C502 O503 1.227 . S
C502 O512 1.265 . S
O503 C502 1.227 . S
N504 Co501 2.121 . S
N504 C506 1.375 . S
N504 C507 1.313 . S
C505 C506 1.338 . S
C505 N508 1.377 . S
C505 H525 0.930 . S
C506 N504 1.375 . S
C506 C505 1.338 . S
C506 H510 0.931 . S
C507 N504 1.313 . S
C507 N508 1.344 . S
C507 H511 0.930 . S
N508 C505 1.377 . S
N508 C507 1.344 . S
O509 Co501 2.055 . S
O509 C513 1.253 . S
H510 C506 0.931 . S
H511 C507 0.930 . S
O512 Co501 2.039 . S
O512 C502 1.265 . S
C513 O509 1.253 . S
C513 O514 1.227 . S
O514 C513 1.227 . S
N515 Co501 2.140 . S
N515 C518 1.346 . S
N515 C519 1.345 . S
C516 C517 1.387 . S
C516 C520 1.391 . S
C517 C516 1.387 . S
C517 C518 1.369 . S
C517 H526 0.929 . S
C518 N515 1.346 . S
C518 C517 1.369 . S
C518 H521 0.928 . S
C519 N515 1.345 . S
C519 C520 1.371 . S
C519 H522 0.931 . S
C520 C516 1.391 . S
C520 C519 1.371 . S
C520 H527 0.930 . S
H521 C518 0.928 . S
H522 C519 0.931 . S
H523 C499 0.930 . S
H524 C496 0.930 . S
H525 C505 0.930 . S
H526 C517 0.929 . S
H527 C520 0.930 . S
C528 C529 1.349 . S
C528 C530 1.327 . S
C528 H553 0.950 . S
C529 C528 1.349 . S
C529 C545 1.349 . S
C530 C528 1.327 . S
C530 C549 1.429 . S
C530 H554 0.950 . S
C531 C548 1.574 . S
C531 C550 1.368 . S
C531 H555 0.949 . S
H532 C536 0.949 . S
C533 C534 1.349 . S
C533 C535 1.327 . S
C533 H556 0.950 . S
C534 C533 1.349 . S
C534 C546 1.349 . S
C535 C533 1.327 . S
C535 C551 1.429 . S
C535 H557 0.950 . S
C536 H532 0.949 . S
C536 C544 1.574 . S
C536 C552 1.368 . S
H537 C545 0.950 . S
H538 C543 0.950 . S
H539 C544 0.949 . S
H540 C546 0.950 . S
H541 C547 0.950 . S
H542 C548 0.949 . S
C543 H538 0.950 . S
C543 C545 1.327 . S
C543 C549 1.429 . S
C544 C536 1.574 . S
C544 H539 0.949 . S
C544 C550 1.368 . S
C545 C529 1.349 . S
C545 H537 0.950 . S
C545 C543 1.327 . S
C546 C534 1.349 . S
C546 H540 0.950 . S
C546 C547 1.327 . S
C547 H541 0.950 . S
C547 C546 1.327 . S
C547 C551 1.429 . S
C548 C531 1.574 . S
C548 H542 0.949 . S
C548 C552 1.368 . S
C549 C530 1.429 . S
C549 C543 1.429 . S
C549 C550 1.523 . S
C550 C531 1.368 . S
C550 C544 1.368 . S
C550 C549 1.523 . S
C551 C535 1.429 . S
C551 C547 1.429 . S
C551 C552 1.523 . S
C552 C536 1.368 . S
C552 C548 1.368 . S
C552 C551 1.523 . S
H553 C528 0.950 . S
H554 C530 0.950 . S
H555 C531 0.949 . S
H556 C533 0.950 . S
H557 C535 0.950 . S
C558 C559 1.349 . S
C558 C560 1.327 . S
C558 H583 0.950 . S
C559 C558 1.349 . S
C559 C575 1.349 . S
C560 C558 1.327 . S
C560 C579 1.429 . S
C560 H584 0.950 . S
C561 C578 1.574 . S
C561 C580 1.368 . S
C561 H585 0.949 . S
H562 C566 0.949 . S
C563 C564 1.349 . S
C563 C565 1.327 . S
C563 H586 0.950 . S
C564 C563 1.349 . S
C564 C576 1.349 . S
C565 C563 1.327 . S
C565 C581 1.429 . S
C565 H587 0.950 . S
C566 H562 0.949 . S
C566 C574 1.574 . S
C566 C582 1.368 . S
H567 C575 0.950 . S
H568 C573 0.950 . S
H569 C574 0.949 . S
H570 C576 0.950 . S
H571 C577 0.950 . S
H572 C578 0.949 . S
C573 H568 0.950 . S
C573 C575 1.327 . S
C573 C579 1.429 . S
C574 C566 1.574 . S
C574 H569 0.949 . S
C574 C580 1.368 . S
C575 C559 1.349 . S
C575 H567 0.950 . S
C575 C573 1.327 . S
C576 C564 1.349 . S
C576 H570 0.950 . S
C576 C577 1.327 . S
C577 H571 0.950 . S
C577 C576 1.327 . S
C577 C581 1.429 . S
C578 C561 1.574 . S
C578 H572 0.949 . S
C578 C582 1.368 . S
C579 C560 1.429 . S
C579 C573 1.429 . S
C579 C580 1.523 . S
C580 C561 1.368 . S
C580 C574 1.368 . S
C580 C579 1.523 . S
C581 C565 1.429 . S
C581 C577 1.429 . S
C581 C582 1.523 . S
C582 C566 1.368 . S
C582 C578 1.368 . S
C582 C581 1.523 . S
H583 C558 0.950 . S
H584 C560 0.950 . S
H585 C561 0.949 . S
H586 C563 0.950 . S
H587 C565 0.950 . S
C588 C589 1.349 . S
C588 C590 1.329 1_655 S
C588 H613 0.950 . S
C589 C588 1.349 . S
C589 C605 1.349 . S
C590 C588 1.329 1_455 S
C590 C609 1.428 . S
C590 H614 0.948 . S
C591 C608 1.574 . S
C591 C610 1.368 . S
C591 H615 0.949 . S
H592 C596 0.949 . S
C593 C594 1.349 . S
C593 C595 1.327 . S
C593 H616 0.950 . S
C594 C593 1.349 . S
C594 C606 1.349 . S
C595 C593 1.327 . S
C595 C611 1.429 . S
C595 H617 0.950 . S
C596 H592 0.949 . S
C596 C604 1.574 . S
C596 C612 1.368 . S
H597 C605 0.950 . S
H598 C603 0.950 . S
H599 C604 0.949 . S
H600 C606 0.950 . S
H601 C607 0.950 . S
H602 C608 0.949 . S
C603 H598 0.950 . S
C603 C605 1.327 . S
C603 C609 1.429 1_655 S
C604 C596 1.574 . S
C604 H599 0.949 . S
C604 C610 1.368 . S
C605 C589 1.349 . S
C605 H597 0.950 . S
C605 C603 1.327 . S
C606 C594 1.349 . S
C606 H600 0.950 . S
C606 C607 1.327 . S
C607 H601 0.950 . S
C607 C606 1.327 . S
C607 C611 1.429 . S
C608 C591 1.574 . S
C608 H602 0.949 . S
C608 C612 1.368 . S
C609 C590 1.428 . S
C609 C603 1.429 1_455 S
C609 C610 1.523 . S
C610 C591 1.368 . S
C610 C604 1.368 . S
C610 C609 1.523 . S
C611 C595 1.429 . S
C611 C607 1.429 . S
C611 C612 1.523 . S
C612 C596 1.368 . S
C612 C608 1.368 . S
C612 C611 1.523 . S
H613 C588 0.950 . S
H614 C590 0.948 . S
H615 C591 0.949 . S
H616 C593 0.950 . S
H617 C595 0.950 . S
C618 C619 1.349 . S
C618 C620 1.327 . S
C618 H643 0.950 . S
C619 C618 1.349 . S
C619 C635 1.349 . S
C620 C618 1.327 . S
C620 C639 1.429 1_455 S
C620 H644 0.950 . S
C621 C638 1.574 . S
C621 C640 1.368 . S
C621 H645 0.949 . S
H622 C626 0.949 . S
C623 C624 1.349 . S
C623 C625 1.327 . S
C623 H646 0.950 . S
C624 C623 1.349 . S
C624 C636 1.349 . S
C625 C623 1.327 . S
C625 C641 1.429 . S
C625 H647 0.950 . S
C626 H622 0.949 . S
C626 C634 1.574 . S
C626 C642 1.368 . S
H627 C635 0.950 . S
H628 C633 0.950 . S
H629 C634 0.949 . S
H630 C636 0.950 . S
H631 C637 0.950 . S
H632 C638 0.949 . S
C633 H628 0.950 . S
C633 C635 1.327 1_655 S
C633 C639 1.429 . S
C634 C626 1.574 . S
C634 H629 0.949 . S
C634 C640 1.368 . S
C635 C619 1.349 . S
C635 H627 0.950 . S
C635 C633 1.327 1_455 S
C636 C624 1.349 . S
C636 H630 0.950 . S
C636 C637 1.327 . S
C637 H631 0.950 . S
C637 C636 1.327 . S
C637 C641 1.429 . S
C638 C621 1.574 . S
C638 H632 0.949 . S
C638 C642 1.368 . S
C639 C620 1.429 1_655 S
C639 C633 1.429 . S
C639 C640 1.523 . S
C640 C621 1.368 . S
C640 C634 1.368 . S
C640 C639 1.523 . S
C641 C625 1.429 . S
C641 C637 1.429 . S
C641 C642 1.523 . S
C642 C626 1.368 . S
C642 C638 1.368 . S
C642 C641 1.523 . S
H643 C618 0.950 . S
H644 C620 0.950 . S
H645 C621 0.949 . S
H646 C623 0.950 . S
H647 C625 0.950 . S
C648 C649 1.349 . S
C648 C650 1.327 . S
C648 H673 0.950 . S
C649 C648 1.349 . S
C649 C665 1.349 . S
C650 C648 1.327 . S
C650 C669 1.429 . S
C650 H674 0.950 . S
C651 C668 1.574 . S
C651 C670 1.368 . S
C651 H675 0.949 . S
H652 C656 0.949 . S
C653 C654 1.349 . S
C653 C655 1.327 . S
C653 H676 0.950 . S
C654 C653 1.349 . S
C654 C666 1.349 . S
C655 C653 1.327 . S
C655 C671 1.429 . S
C655 H677 0.950 . S
C656 H652 0.949 . S
C656 C664 1.574 . S
C656 C672 1.368 . S
H657 C665 0.950 . S
H658 C663 0.950 . S
H659 C664 0.949 . S
H660 C666 0.950 . S
H661 C667 0.950 . S
H662 C668 0.949 . S
C663 H658 0.950 . S
C663 C665 1.327 . S
C663 C669 1.429 . S
C664 C656 1.574 . S
C664 H659 0.949 . S
C664 C670 1.368 . S
C665 C649 1.349 . S
C665 H657 0.950 . S
C665 C663 1.327 . S
C666 C654 1.349 . S
C666 H660 0.950 . S
C666 C667 1.327 . S
C667 H661 0.950 . S
C667 C666 1.327 . S
C667 C671 1.429 . S
C668 C651 1.574 . S
C668 H662 0.949 . S
C668 C672 1.368 . S
C669 C650 1.429 . S
C669 C663 1.429 . S
C669 C670 1.523 . S
C670 C651 1.368 . S
C670 C664 1.368 . S
C670 C669 1.523 . S
C671 C655 1.429 . S
C671 C667 1.429 . S
C671 C672 1.523 . S
C672 C656 1.368 . S
C672 C668 1.368 . S
C672 C671 1.523 . S
H673 C648 0.950 . S
H674 C650 0.950 . S
H675 C651 0.949 . S
H676 C653 0.950 . S
H677 C655 0.950 . S
C678 C679 1.349 . S
C678 C680 1.327 . S
C678 H703 0.950 . S
C679 C678 1.349 . S
C679 C695 1.349 . S
C680 C678 1.327 . S
C680 C699 1.429 . S
C680 H704 0.950 . S
C681 C698 1.574 . S
C681 C700 1.368 . S
C681 H705 0.949 . S
H682 C686 0.949 . S
C683 C684 1.349 . S
C683 C685 1.327 . S
C683 H706 0.950 . S
C684 C683 1.349 . S
C684 C696 1.349 . S
C685 C683 1.327 . S
C685 C701 1.429 . S
C685 H707 0.950 . S
C686 H682 0.949 . S
C686 C694 1.574 . S
C686 C702 1.368 . S
H687 C695 0.950 . S
H688 C693 0.950 . S
H689 C694 0.949 . S
H690 C696 0.950 . S
H691 C697 0.950 . S
H692 C698 0.949 . S
C693 H688 0.950 . S
C693 C695 1.327 . S
C693 C699 1.429 . S
C694 C686 1.574 . S
C694 H689 0.949 . S
C694 C700 1.368 . S
C695 C679 1.349 . S
C695 H687 0.950 . S
C695 C693 1.327 . S
C696 C684 1.349 . S
C696 H690 0.950 . S
C696 C697 1.327 . S
C697 H691 0.950 . S
C697 C696 1.327 . S
C697 C701 1.429 . S
C698 C681 1.574 . S
C698 H692 0.949 . S
C698 C702 1.368 . S
C699 C680 1.429 . S
C699 C693 1.429 . S
C699 C700 1.523 . S
C700 C681 1.368 . S
C700 C694 1.368 . S
C700 C699 1.523 . S
C701 C685 1.429 . S
C701 C697 1.429 . S
C701 C702 1.523 . S
C702 C686 1.368 . S
C702 C698 1.368 . S
C702 C701 1.523 . S
H703 C678 0.950 . S
H704 C680 0.950 . S
H705 C681 0.949 . S
H706 C683 0.950 . S
H707 C685 0.950 . S
C708 C709 1.349 . S
C708 C710 1.327 1_655 S
C708 H733 0.950 . S
C709 C708 1.349 . S
C709 C725 1.349 . S
C710 C708 1.327 1_455 S
C710 C729 1.429 . S
C710 H734 0.950 . S
C711 C728 1.574 . S
C711 C730 1.368 . S
C711 H735 0.917 1_455 S
H712 C716 0.949 . S
C713 C714 1.349 . S
C713 C715 1.327 . S
C713 H736 0.950 . S
C714 C713 1.349 . S
C714 C726 1.349 . S
C715 C713 1.327 . S
C715 C731 1.429 . S
C715 H737 0.950 . S
C716 H712 0.949 . S
C716 C724 1.574 . S
C716 C732 1.368 . S
H717 C725 0.950 . S
H718 C723 0.950 . S
H719 C724 0.949 . S
H720 C726 0.950 . S
H721 C727 0.950 . S
H722 C728 0.949 . S
C723 H718 0.950 . S
C723 C725 1.327 . S
C723 C729 1.429 1_655 S
C724 C716 1.574 . S
C724 H719 0.949 . S
C724 C730 1.368 . S
C725 C709 1.349 . S
C725 H717 0.950 . S
C725 C723 1.327 . S
C726 C714 1.349 . S
C726 H720 0.950 . S
C726 C727 1.327 . S
C727 H721 0.950 . S
C727 C726 1.327 . S
C727 C731 1.429 . S
C728 C711 1.574 . S
C728 H722 0.949 . S
C728 C732 1.368 . S
C729 C710 1.429 . S
C729 C723 1.429 1_455 S
C729 C730 1.523 . S
C730 C711 1.368 . S
C730 C724 1.368 . S
C730 C729 1.523 . S
C731 C715 1.429 . S
C731 C727 1.429 . S
C731 C732 1.523 . S
C732 C716 1.368 . S
C732 C728 1.368 . S
C732 C731 1.523 . S
H733 C708 0.950 . S
H734 C710 0.950 . S
H735 C711 0.917 1_655 S
H736 C713 0.950 . S
H737 C715 0.950 . S
C738 C739 1.349 . S
C738 C740 1.327 . S
C738 H763 0.950 . S
C739 C738 1.349 . S
C739 C755 1.349 . S
C740 C738 1.327 . S
C740 C759 1.429 . S
C740 H764 0.950 . S
C741 C758 1.574 . S
C741 C760 1.368 . S
C741 H765 0.949 . S
H742 C746 0.949 . S
C743 C744 1.349 . S
C743 C745 1.327 . S
C743 H766 0.950 . S
C744 C743 1.349 . S
C744 C756 1.349 . S
C745 C743 1.327 . S
C745 C761 1.429 1_455 S
C745 H767 0.950 . S
C746 H742 0.949 . S
C746 C754 1.574 . S
C746 C762 1.368 . S
H747 C755 0.950 . S
H748 C753 0.950 . S
H749 C754 0.949 . S
H750 C756 0.950 . S
H751 C757 0.950 . S
H752 C758 0.949 . S
C753 H748 0.950 . S
C753 C755 1.327 . S
C753 C759 1.429 . S
C754 C746 1.574 . S
C754 H749 0.949 . S
C754 C760 1.368 . S
C755 C739 1.349 . S
C755 H747 0.950 . S
C755 C753 1.327 . S
C756 C744 1.349 . S
C756 H750 0.950 . S
C756 C757 1.327 1_455 S
C757 H751 0.950 . S
C757 C756 1.327 1_655 S
C757 C761 1.429 . S
C758 C741 1.574 . S
C758 H752 0.949 . S
C758 C762 1.368 . S
C759 C740 1.429 . S
C759 C753 1.429 . S
C759 C760 1.523 . S
C760 C741 1.368 . S
C760 C754 1.368 . S
C760 C759 1.523 . S
C761 C745 1.429 1_655 S
C761 C757 1.429 . S
C761 C762 1.523 . S
C762 C746 1.368 . S
C762 C758 1.368 . S
C762 C761 1.523 . S
H763 C738 0.950 . S
H764 C740 0.950 . S
H765 C741 0.949 . S
H766 C743 0.950 . S
H767 C745 0.950 . S
C768 C769 1.349 . S
C768 C770 1.327 . S
C768 H793 0.950 . S
C769 C768 1.349 . S
C769 C785 1.349 . S
C770 C768 1.327 . S
C770 C789 1.429 . S
C770 H794 0.950 . S
C771 C788 1.574 . S
C771 C790 1.368 . S
C771 H795 0.949 . S
H772 C776 0.949 . S
C773 C774 1.349 . S
C773 C775 1.327 . S
C773 H796 0.950 . S
C774 C773 1.349 . S
C774 C786 1.349 . S
C775 C773 1.327 . S
C775 C791 1.429 . S
C775 H797 0.950 . S
C776 H772 0.949 . S
C776 C784 1.574 . S
C776 C792 1.368 . S
H777 C785 0.950 . S
H778 C783 0.950 . S
H779 C784 0.949 . S
H780 C786 0.950 . S
H781 C787 0.950 . S
H782 C788 0.949 . S
C783 H778 0.950 . S
C783 C785 1.327 . S
C783 C789 1.429 . S
C784 C776 1.574 . S
C784 H779 0.949 . S
C784 C790 1.368 . S
C785 C769 1.349 . S
C785 H777 0.950 . S
C785 C783 1.327 . S
C786 C774 1.349 . S
C786 H780 0.950 . S
C786 C787 1.327 . S
C787 H781 0.950 . S
C787 C786 1.327 . S
C787 C791 1.429 . S
C788 C771 1.574 . S
C788 H782 0.949 . S
C788 C792 1.368 . S
C789 C770 1.429 . S
C789 C783 1.429 . S
C789 C790 1.523 . S
C790 C771 1.368 . S
C790 C784 1.368 . S
C790 C789 1.523 . S
C791 C775 1.429 . S
C791 C787 1.429 . S
C791 C792 1.523 . S
C792 C776 1.368 . S
C792 C788 1.368 . S
C792 C791 1.523 . S
H793 C768 0.950 . S
H794 C770 0.950 . S
H795 C771 0.949 . S
H796 C773 0.950 . S
H797 C775 0.950 . S
C798 C799 1.349 . S
C798 C800 1.327 . S
C798 H823 0.950 . S
C799 C798 1.349 . S
C799 C815 1.349 . S
C800 C798 1.327 . S
C800 C819 1.429 . S
C800 H824 0.950 . S
C801 C818 1.574 . S
C801 C820 1.368 . S
C801 H825 0.949 . S
H802 C806 0.949 . S
C803 C804 1.349 . S
C803 C805 1.327 . S
C803 H826 0.950 . S
C804 C803 1.349 . S
C804 C816 1.349 . S
C805 C803 1.327 . S
C805 C821 1.429 . S
C805 H827 0.950 . S
C806 H802 0.949 . S
C806 C814 1.574 . S
C806 C822 1.368 . S
H807 C815 0.950 . S
H808 C813 0.950 . S
H809 C814 0.949 . S
H810 C816 0.950 . S
H811 C817 0.950 . S
H812 C818 0.949 . S
C813 H808 0.950 . S
C813 C815 1.327 . S
C813 C819 1.429 . S
C814 C806 1.574 . S
C814 H809 0.949 . S
C814 C820 1.368 . S
C815 C799 1.349 . S
C815 H807 0.950 . S
C815 C813 1.327 . S
C816 C804 1.349 . S
C816 H810 0.950 . S
C816 C817 1.327 . S
C817 H811 0.950 . S
C817 C816 1.327 . S
C817 C821 1.429 . S
C818 C801 1.574 . S
C818 H812 0.949 . S
C818 C822 1.368 . S
C819 C800 1.429 . S
C819 C813 1.429 . S
C819 C820 1.523 . S
C820 C801 1.368 . S
C820 C814 1.368 . S
C820 C819 1.523 . S
C821 C805 1.429 . S
C821 C817 1.429 . S
C821 C822 1.523 . S
C822 C806 1.368 . S
C822 C818 1.368 . S
C822 C821 1.523 . S
H823 C798 0.950 . S
H824 C800 0.950 . S
H825 C801 0.949 . S
H826 C803 0.950 . S
H827 C805 0.950 . S
C828 C829 1.349 . S
C828 C830 1.327 . S
C828 H853 0.950 . S
C829 C828 1.349 . S
C829 C845 1.349 . S
C830 C828 1.327 . S
C830 C849 1.429 . S
C830 H854 0.950 . S
C831 C848 1.574 . S
C831 C850 1.368 . S
C831 H855 0.949 . S
H832 C836 0.949 . S
C833 C834 1.349 . S
C833 C835 1.327 . S
C833 H856 0.950 . S
C834 C833 1.349 . S
C834 C846 1.349 . S
C835 C833 1.327 . S
C835 C851 1.429 . S
C835 H857 0.950 . S
C836 H832 0.949 . S
C836 C844 1.574 . S
C836 C852 1.368 . S
H837 C845 0.950 . S
H838 C843 0.950 . S
H839 C844 0.949 . S
H840 C846 0.950 . S
H841 C847 0.950 . S
H842 C848 0.949 . S
C843 H838 0.950 . S
C843 C845 1.327 . S
C843 C849 1.429 . S
C844 C836 1.574 . S
C844 H839 0.949 . S
C844 C850 1.368 . S
C845 C829 1.349 . S
C845 H837 0.950 . S
C845 C843 1.327 . S
C846 C834 1.349 . S
C846 H840 0.950 . S
C846 C847 1.327 . S
C847 H841 0.950 . S
C847 C846 1.327 . S
C847 C851 1.429 . S
C848 C831 1.574 . S
C848 H842 0.949 . S
C848 C852 1.368 . S
C849 C830 1.429 . S
C849 C843 1.429 . S
C849 C850 1.523 . S
C850 C831 1.368 . S
C850 C844 1.368 . S
C850 C849 1.523 . S
C851 C835 1.429 . S
C851 C847 1.429 . S
C851 C852 1.523 . S
C852 C836 1.368 . S
C852 C848 1.368 . S
C852 C851 1.523 . S
H853 C828 0.950 . S
H854 C830 0.950 . S
H855 C831 0.949 . S
H856 C833 0.950 . S
H857 C835 0.950 . S
C858 C859 1.349 . S
C858 C860 1.327 . S
C858 H883 0.950 . S
C859 C858 1.349 . S
C859 C875 1.349 . S
C860 C858 1.327 . S
C860 C879 1.429 . S
C860 H884 0.950 . S
C861 C878 1.574 . S
C861 C880 1.368 . S
C861 H885 0.949 . S
H862 C866 0.949 . S
C863 C864 1.349 . S
C863 C865 1.327 . S
C863 H886 0.950 . S
C864 C863 1.349 . S
C864 C876 1.349 . S
C865 C863 1.327 . S
C865 C881 1.429 . S
C865 H887 0.950 . S
C866 H862 0.949 . S
C866 C874 1.574 . S
C866 C882 1.368 . S
H867 C875 0.950 . S
H868 C873 0.950 . S
H869 C874 0.949 . S
H870 C876 0.950 . S
H871 C877 0.950 . S
H872 C878 0.949 . S
C873 H868 0.950 . S
C873 C875 1.327 . S
C873 C879 1.429 . S
C874 C866 1.574 . S
C874 H869 0.949 . S
C874 C880 1.368 . S
C875 C859 1.349 . S
C875 H867 0.950 . S
C875 C873 1.327 . S
C876 C864 1.349 . S
C876 H870 0.950 . S
C876 C877 1.327 . S
C877 H871 0.950 . S
C877 C876 1.327 . S
C877 C881 1.429 . S
C878 C861 1.574 . S
C878 H872 0.949 . S
C878 C882 1.368 . S
C879 C860 1.429 . S
C879 C873 1.429 . S
C879 C880 1.523 . S
C880 C861 1.368 . S
C880 C874 1.368 . S
C880 C879 1.523 . S
C881 C865 1.429 . S
C881 C877 1.429 . S
C881 C882 1.523 . S
C882 C866 1.368 . S
C882 C878 1.368 . S
C882 C881 1.523 . S
H883 C858 0.950 . S
H884 C860 0.950 . S
H885 C861 0.949 . S
H886 C863 0.950 . S
H887 C865 0.950 . S
C888 C889 1.349 . S
C888 C890 1.327 . S
C888 H913 0.950 . S
C889 C888 1.349 . S
C889 C905 1.349 . S
C890 C888 1.327 . S
C890 C909 1.429 . S
C890 H914 0.950 . S
C891 C908 1.574 . S
C891 C910 1.368 . S
C891 H915 0.949 . S
H892 C896 0.949 . S
C893 C894 1.349 . S
C893 C895 1.327 . S
C893 H916 0.950 . S
C894 C893 1.349 . S
C894 C906 1.349 . S
C895 C893 1.327 . S
C895 C911 1.429 . S
C895 H917 0.950 . S
C896 H892 0.949 . S
C896 C904 1.574 . S
C896 C912 1.368 . S
H897 C905 0.950 . S
H898 C903 0.950 . S
H899 C904 0.949 . S
H900 C906 0.950 . S
H901 C907 0.950 . S
H902 C908 0.949 . S
C903 H898 0.950 . S
C903 C905 1.327 . S
C903 C909 1.429 . S
C904 C896 1.574 . S
C904 H899 0.949 . S
C904 C910 1.368 . S
C905 C889 1.349 . S
C905 H897 0.950 . S
C905 C903 1.327 . S
C906 C894 1.349 . S
C906 H900 0.950 . S
C906 C907 1.327 . S
C907 H901 0.950 . S
C907 C906 1.327 . S
C907 C911 1.429 . S
C908 C891 1.574 . S
C908 H902 0.949 . S
C908 C912 1.368 . S
C909 C890 1.429 . S
C909 C903 1.429 . S
C909 C910 1.523 . S
C910 C891 1.368 . S
C910 C904 1.368 . S
C910 C909 1.523 . S
C911 C895 1.429 . S
C911 C907 1.429 . S
C911 C912 1.523 . S
C912 C896 1.368 . S
C912 C908 1.368 . S
C912 C911 1.523 . S
H913 C888 0.950 . S
H914 C890 0.950 . S
H915 C891 0.949 . S
H916 C893 0.950 . S
H917 C895 0.950 . S
C918 C919 1.349 . S
C918 C920 1.327 . S
C918 H943 0.950 . S
C919 C918 1.349 . S
C919 C935 1.349 . S
C920 C918 1.327 . S
C920 C939 1.429 . S
C920 H944 0.950 . S
C921 C938 1.574 . S
C921 C940 1.368 . S
C921 H945 0.949 . S
H922 C926 0.949 . S
C923 C924 1.349 . S
C923 C925 1.327 . S
C923 H946 0.950 . S
C924 C923 1.349 . S
C924 C936 1.349 . S
C925 C923 1.327 . S
C925 C941 1.429 . S
C925 H947 0.950 . S
C926 H922 0.949 . S
C926 C934 1.574 . S
C926 C942 1.368 . S
H927 C935 0.950 . S
H928 C933 0.950 . S
H929 C934 0.949 . S
H930 C936 0.950 . S
H931 C937 0.950 . S
H932 C938 0.949 . S
C933 H928 0.950 . S
C933 C935 1.327 . S
C933 C939 1.429 . S
C934 C926 1.574 . S
C934 H929 0.949 . S
C934 C940 1.368 . S
C935 C919 1.349 . S
C935 H927 0.950 . S
C935 C933 1.327 . S
C936 C924 1.349 . S
C936 H930 0.950 . S
C936 C937 1.327 . S
C937 H931 0.950 . S
C937 C936 1.327 . S
C937 C941 1.429 . S
C938 C921 1.574 . S
C938 H932 0.949 . S
C938 C942 1.368 . S
C939 C920 1.429 . S
C939 C933 1.429 . S
C939 C940 1.523 . S
C940 C921 1.368 . S
C940 C934 1.368 . S
C940 C939 1.523 . S
C941 C925 1.429 . S
C941 C937 1.429 . S
C941 C942 1.523 . S
C942 C926 1.368 . S
C942 C938 1.368 . S
C942 C941 1.523 . S
H943 C918 0.950 . S
H944 C920 0.950 . S
H945 C921 0.949 . S
H946 C923 0.950 . S
H947 C925 0.950 . S
C948 C949 1.349 . S
C948 C950 1.327 . S
C948 H973 0.950 . S
C949 C948 1.349 . S
C949 C965 1.349 . S
C950 C948 1.327 . S
C950 C969 1.429 . S
C950 H974 0.950 . S
C951 C968 1.574 . S
C951 C970 1.368 . S
C951 H975 0.949 . S
H952 C956 0.949 . S
C953 C954 1.349 . S
C953 C955 1.327 . S
C953 H976 0.950 . S
C954 C953 1.349 . S
C954 C966 1.349 . S
C955 C953 1.327 . S
C955 C971 1.429 . S
C955 H977 0.950 . S
C956 H952 0.949 . S
C956 C964 1.574 . S
C956 C972 1.368 . S
H957 C965 0.950 . S
H958 C963 0.950 . S
H959 C964 0.949 . S
H960 C966 0.950 . S
H961 C967 0.950 . S
H962 C968 0.949 . S
C963 H958 0.950 . S
C963 C965 1.327 . S
C963 C969 1.429 . S
C964 C956 1.574 . S
C964 H959 0.949 . S
C964 C970 1.368 . S
C965 C949 1.349 . S
C965 H957 0.950 . S
C965 C963 1.327 . S
C966 C954 1.349 . S
C966 H960 0.950 . S
C966 C967 1.327 . S
C967 H961 0.950 . S
C967 C966 1.327 . S
C967 C971 1.429 . S
C968 C951 1.574 . S
C968 H962 0.949 . S
C968 C972 1.368 . S
C969 C950 1.429 . S
C969 C963 1.429 . S
C969 C970 1.523 . S
C970 C951 1.368 . S
C970 C964 1.368 . S
C970 C969 1.523 . S
C971 C955 1.429 . S
C971 C967 1.429 . S
C971 C972 1.523 . S
C972 C956 1.368 . S
C972 C968 1.368 . S
C972 C971 1.523 . S
H973 C948 0.950 . S
H974 C950 0.950 . S
H975 C951 0.949 . S
H976 C953 0.950 . S
H977 C955 0.950 . S
C978 C979 1.349 . S
C978 C980 1.327 . S
C978 H1003 0.950 . S
C979 C978 1.349 . S
C979 C995 1.349 . S
C980 C978 1.327 . S
C980 C999 1.429 . S
C980 H1004 0.950 . S
C981 C998 1.574 . S
C981 C1000 1.368 . S
C981 H1005 0.949 . S
H982 C986 0.949 . S
C983 C984 1.349 . S
C983 C985 1.327 . S
C983 H1006 0.950 . S
C984 C983 1.349 . S
C984 C996 1.349 . S
C985 C983 1.327 . S
C985 C1001 1.429 . S
C985 H1007 0.950 . S
C986 H982 0.949 . S
C986 C994 1.574 . S
C986 C1002 1.368 . S
H987 C995 0.950 . S
H988 C993 0.950 . S
H989 C994 0.949 . S
H990 C996 0.950 . S
H991 C997 0.950 . S
H992 C998 0.949 . S
C993 H988 0.950 . S
C993 C995 1.327 . S
C993 C999 1.429 . S
C994 C986 1.574 . S
C994 H989 0.949 . S
C994 C1000 1.368 . S
C995 C979 1.349 . S
C995 H987 0.950 . S
C995 C993 1.327 . S
C996 C984 1.349 . S
C996 H990 0.950 . S
C996 C997 1.327 . S
C997 H991 0.950 . S
C997 C996 1.327 . S
C997 C1001 1.429 . S
C998 C981 1.574 . S
C998 H992 0.949 . S
C998 C1002 1.368 . S
C999 C980 1.429 . S
C999 C993 1.429 . S
C999 C1000 1.523 . S
C1000 C981 1.368 . S
C1000 C994 1.368 . S
C1000 C999 1.523 . S
C1001 C985 1.429 . S
C1001 C997 1.429 . S
C1001 C1002 1.523 . S
C1002 C986 1.368 . S
C1002 C998 1.368 . S
C1002 C1001 1.523 . S
H1003 C978 0.950 . S
H1004 C980 0.950 . S
H1005 C981 0.949 . S
H1006 C983 0.950 . S
H1007 C985 0.950 . S
C1008 C1009 1.349 . S
C1008 C1010 1.327 . S
C1008 H1033 0.950 . S
C1009 C1008 1.349 . S
C1009 C1025 1.349 . S
C1010 C1008 1.327 . S
C1010 C1029 1.429 . S
C1010 H1034 0.950 . S
C1011 C1028 1.574 . S
C1011 C1030 1.368 . S
C1011 H1035 0.949 . S
H1012 C1016 0.949 . S
C1013 C1014 1.349 . S
C1013 C1015 1.327 . S
C1013 H1036 0.950 . S
C1014 C1013 1.349 . S
C1014 C1026 1.349 . S
C1015 C1013 1.327 . S
C1015 C1031 1.429 . S
C1015 H1037 0.950 . S
C1016 H1012 0.949 . S
C1016 C1024 1.574 . S
C1016 C1032 1.368 . S
H1017 C1025 0.950 . S
H1018 C1023 0.950 . S
H1019 C1024 0.949 . S
H1020 C1026 0.950 . S
H1021 C1027 0.950 . S
H1022 C1028 0.949 . S
C1023 H1018 0.950 . S
C1023 C1025 1.327 . S
C1023 C1029 1.429 . S
C1024 C1016 1.574 . S
C1024 H1019 0.949 . S
C1024 C1030 1.368 1_455 S
C1025 C1009 1.349 . S
C1025 H1017 0.950 . S
C1025 C1023 1.327 . S
C1026 C1014 1.349 . S
C1026 H1020 0.950 . S
C1026 C1027 1.327 . S
C1027 H1021 0.950 . S
C1027 C1026 1.327 . S
C1027 C1031 1.429 . S
C1028 C1011 1.574 . S
C1028 H1022 0.949 . S
C1028 C1032 1.368 1_655 S
C1029 C1010 1.429 . S
C1029 C1023 1.429 . S
C1029 C1030 1.523 . S
C1030 C1011 1.368 . S
C1030 C1024 1.368 1_655 S
C1030 C1029 1.523 . S
C1031 C1015 1.429 . S
C1031 C1027 1.429 . S
C1031 C1032 1.523 . S
C1032 C1016 1.368 . S
C1032 C1028 1.368 1_455 S
C1032 C1031 1.523 . S
H1033 C1008 0.950 . S
H1034 C1010 0.950 . S
H1035 C1011 0.949 . S
H1036 C1013 0.950 . S
H1037 C1015 0.950 . S
C1038 C1039 1.349 . S
C1038 C1040 1.327 . S
C1038 H1063 0.950 . S
C1039 C1038 1.349 . S
C1039 C1055 1.349 . S
C1040 C1038 1.327 . S
C1040 C1059 1.429 . S
C1040 H1064 0.950 1_455 S
C1041 C1058 1.574 . S
C1041 C1060 1.368 . S
C1041 H1065 0.949 . S
H1042 C1046 0.949 . S
C1043 C1044 1.349 . S
C1043 C1045 1.327 . S
C1043 H1066 0.950 . S
C1044 C1043 1.349 . S
C1044 C1056 1.349 . S
C1045 C1043 1.327 . S
C1045 C1061 1.429 . S
C1045 H1067 0.950 1_655 S
C1046 H1042 0.949 . S
C1046 C1054 1.574 . S
C1046 C1062 1.368 . S
H1047 C1055 0.950 . S
H1048 C1053 0.950 . S
H1049 C1054 0.949 . S
H1050 C1056 0.950 . S
H1051 C1057 0.950 . S
H1052 C1058 0.949 . S
C1053 H1048 0.950 . S
C1053 C1055 1.327 . S
C1053 C1059 1.429 . S
C1054 C1046 1.574 . S
C1054 H1049 0.949 . S
C1054 C1060 1.368 1_655 S
C1055 C1039 1.349 . S
C1055 H1047 0.950 . S
C1055 C1053 1.327 . S
C1056 C1044 1.349 . S
C1056 H1050 0.950 . S
C1056 C1057 1.327 . S
C1057 H1051 0.950 . S
C1057 C1056 1.327 . S
C1057 C1061 1.429 . S
C1058 C1041 1.574 . S
C1058 H1052 0.949 . S
C1058 C1062 1.368 1_455 S
C1059 C1040 1.429 . S
C1059 C1053 1.429 . S
C1059 C1060 1.523 . S
C1060 C1041 1.368 . S
C1060 C1054 1.368 1_455 S
C1060 C1059 1.523 . S
C1061 C1045 1.429 . S
C1061 C1057 1.429 . S
C1061 C1062 1.523 . S
C1062 C1046 1.368 . S
C1062 C1058 1.368 1_655 S
C1062 C1061 1.523 . S
H1063 C1038 0.950 . S
H1064 C1040 0.950 1_655 S
H1065 C1041 0.949 . S
H1066 C1043 0.950 . S
H1067 C1045 0.950 1_455 S
C1068 C1069 1.349 . S
C1068 C1070 1.327 . S
C1068 H1093 0.950 . S
C1069 C1068 1.349 . S
C1069 C1085 1.349 . S
C1070 C1068 1.327 . S
C1070 C1089 1.429 . S
C1070 H1094 0.950 . S
C1071 C1088 1.574 . S
C1071 C1090 1.368 . S
C1071 H1095 0.949 . S
H1072 C1076 0.949 . S
C1073 C1074 1.349 . S
C1073 C1075 1.327 . S
C1073 H1096 0.950 . S
C1074 C1073 1.349 . S
C1074 C1086 1.349 . S
C1075 C1073 1.327 . S
C1075 C1091 1.429 . S
C1075 H1097 0.950 . S
C1076 H1072 0.949 . S
C1076 C1084 1.574 . S
C1076 C1092 1.368 . S
H1077 C1085 0.950 . S
H1078 C1083 0.950 . S
H1079 C1084 0.949 . S
H1080 C1086 0.950 . S
H1081 C1087 0.950 . S
H1082 C1088 0.949 . S
C1083 H1078 0.950 . S
C1083 C1085 1.327 . S
C1083 C1089 1.429 . S
C1084 C1076 1.574 . S
C1084 H1079 0.949 . S
C1084 C1090 1.368 . S
C1085 C1069 1.349 . S
C1085 H1077 0.950 . S
C1085 C1083 1.327 . S
C1086 C1074 1.349 . S
C1086 H1080 0.950 . S
C1086 C1087 1.327 . S
C1087 H1081 0.950 . S
C1087 C1086 1.327 . S
C1087 C1091 1.429 . S
C1088 C1071 1.574 . S
C1088 H1082 0.949 . S
C1088 C1092 1.368 . S
C1089 C1070 1.429 . S
C1089 C1083 1.429 . S
C1089 C1090 1.523 . S
C1090 C1071 1.368 . S
C1090 C1084 1.368 . S
C1090 C1089 1.523 . S
C1091 C1075 1.429 . S
C1091 C1087 1.429 . S
C1091 C1092 1.523 . S
C1092 C1076 1.368 . S
C1092 C1088 1.368 . S
C1092 C1091 1.523 . S
H1093 C1068 0.950 . S
H1094 C1070 0.950 . S
H1095 C1071 0.949 . S
H1096 C1073 0.950 . S
H1097 C1075 0.950 . S
C1098 C1099 1.349 . S
C1098 C1100 1.327 . S
C1098 H1123 0.950 . S
C1099 C1098 1.349 . S
C1099 C1115 1.349 . S
C1100 C1098 1.327 . S
C1100 C1119 1.429 . S
C1100 H1124 0.950 . S
C1101 C1118 1.574 . S
C1101 C1120 1.368 . S
C1101 H1125 0.949 . S
H1102 C1106 0.949 . S
C1103 C1104 1.349 . S
C1103 C1105 1.327 . S
C1103 H1126 0.950 . S
C1104 C1103 1.349 . S
C1104 C1116 1.349 . S
C1105 C1103 1.327 . S
C1105 C1121 1.429 . S
C1105 H1127 0.950 . S
C1106 H1102 0.949 . S
C1106 C1114 1.574 . S
C1106 C1122 1.368 . S
H1107 C1115 0.950 . S
H1108 C1113 0.950 . S
H1109 C1114 0.949 . S
H1110 C1116 0.950 . S
H1111 C1117 0.950 . S
H1112 C1118 0.949 . S
C1113 H1108 0.950 . S
C1113 C1115 1.327 . S
C1113 C1119 1.429 . S
C1114 C1106 1.574 . S
C1114 H1109 0.949 . S
C1114 C1120 1.368 . S
C1115 C1099 1.349 . S
C1115 H1107 0.950 . S
C1115 C1113 1.327 . S
C1116 C1104 1.349 . S
C1116 H1110 0.950 . S
C1116 C1117 1.327 . S
C1117 H1111 0.950 . S
C1117 C1116 1.327 . S
C1117 C1121 1.429 . S
C1118 C1101 1.574 . S
C1118 H1112 0.949 . S
C1118 C1122 1.368 . S
C1119 C1100 1.429 . S
C1119 C1113 1.429 . S
C1119 C1120 1.523 . S
C1120 C1101 1.368 . S
C1120 C1114 1.368 . S
C1120 C1119 1.523 . S
C1121 C1105 1.429 . S
C1121 C1117 1.429 . S
C1121 C1122 1.523 . S
C1122 C1106 1.368 . S
C1122 C1118 1.368 . S
C1122 C1121 1.523 . S
H1123 C1098 0.950 . S
H1124 C1100 0.950 . S
H1125 C1101 0.949 . S
H1126 C1103 0.950 . S
H1127 C1105 0.950 . S
C1128 C1129 1.349 . S
C1128 C1130 1.327 . S
C1128 H1153 0.950 . S
C1129 C1128 1.349 . S
C1129 C1145 1.349 . S
C1130 C1128 1.327 . S
C1130 C1149 1.429 . S
C1130 H1154 0.950 . S
C1131 C1148 1.574 . S
C1131 C1150 1.368 . S
C1131 H1155 0.949 . S
H1132 C1136 0.949 . S
C1133 C1134 1.349 . S
C1133 C1135 1.327 . S
C1133 H1156 0.950 . S
C1134 C1133 1.349 . S
C1134 C1146 1.349 . S
C1135 C1133 1.327 . S
C1135 C1151 1.429 . S
C1135 H1157 0.950 . S
C1136 H1132 0.949 . S
C1136 C1144 1.574 . S
C1136 C1152 1.368 . S
H1137 C1145 0.950 . S
H1138 C1143 0.950 . S
H1139 C1144 0.949 . S
H1140 C1146 0.950 . S
H1141 C1147 0.950 . S
H1142 C1148 0.949 . S
C1143 H1138 0.950 . S
C1143 C1145 1.327 . S
C1143 C1149 1.429 . S
C1144 C1136 1.574 . S
C1144 H1139 0.949 . S
C1144 C1150 1.368 1_455 S
C1145 C1129 1.349 . S
C1145 H1137 0.950 . S
C1145 C1143 1.327 . S
C1146 C1134 1.349 . S
C1146 H1140 0.950 . S
C1146 C1147 1.327 . S
C1147 H1141 0.950 . S
C1147 C1146 1.327 . S
C1147 C1151 1.429 . S
C1148 C1131 1.574 . S
C1148 H1142 0.949 . S
C1148 C1152 1.368 1_655 S
C1149 C1130 1.429 . S
C1149 C1143 1.429 . S
C1149 C1150 1.523 . S
C1150 C1131 1.368 . S
C1150 C1144 1.368 1_655 S
C1150 C1149 1.523 . S
C1151 C1135 1.429 . S
C1151 C1147 1.429 . S
C1151 C1152 1.523 . S
C1152 C1136 1.368 . S
C1152 C1148 1.368 1_455 S
C1152 C1151 1.523 . S
H1153 C1128 0.950 . S
H1154 C1130 0.950 . S
H1155 C1131 0.949 . S
H1156 C1133 0.950 . S
H1157 C1135 0.950 . S
C1158 C1159 1.349 . S
C1158 C1160 1.327 . S
C1158 H1183 0.950 . S
C1159 C1158 1.349 . S
C1159 C1175 1.349 . S
C1160 C1158 1.327 . S
C1160 C1179 1.429 . S
C1160 H1184 0.950 . S
C1161 C1178 1.574 . S
C1161 C1180 1.368 1_655 S
C1161 H1185 0.949 . S
H1162 C1166 0.949 . S
C1163 C1164 1.349 . S
C1163 C1165 1.327 . S
C1163 H1186 0.950 . S
C1164 C1163 1.349 . S
C1164 C1176 1.349 . S
C1165 C1163 1.327 . S
C1165 C1181 1.429 . S
C1165 H1187 0.950 . S
C1166 H1162 0.949 . S
C1166 C1174 1.574 . S
C1166 C1182 1.368 1_455 S
H1167 C1175 0.950 . S
H1168 C1173 0.927 1_655 S
H1169 C1174 0.949 . S
H1170 C1176 0.950 . S
H1171 C1177 0.950 1_455 S
H1172 C1178 0.949 . S
C1173 H1168 0.927 1_455 S
C1173 C1175 1.327 . S
C1173 C1179 1.429 . S
C1174 C1166 1.574 . S
C1174 H1169 0.949 . S
C1174 C1180 1.368 . S
C1175 C1159 1.349 . S
C1175 H1167 0.950 . S
C1175 C1173 1.327 . S
C1176 C1164 1.349 . S
C1176 H1170 0.950 . S
C1176 C1177 1.327 . S
C1177 H1171 0.950 1_655 S
C1177 C1176 1.327 . S
C1177 C1181 1.429 . S
C1178 C1161 1.574 . S
C1178 H1172 0.949 . S
C1178 C1182 1.368 . S
C1179 C1160 1.429 . S
C1179 C1173 1.429 . S
C1179 C1180 1.523 . S
C1180 C1161 1.368 1_455 S
C1180 C1174 1.368 . S
C1180 C1179 1.523 . S
C1181 C1165 1.429 . S
C1181 C1177 1.429 . S
C1181 C1182 1.523 . S
C1182 C1166 1.368 1_655 S
C1182 C1178 1.368 . S
C1182 C1181 1.523 . S
H1183 C1158 0.950 . S
H1184 C1160 0.950 . S
H1185 C1161 0.949 . S
H1186 C1163 0.950 . S
H1187 C1165 0.950 . S
C1188 C1189 1.349 . S
C1188 C1190 1.327 . S
C1188 H1213 0.950 . S
C1189 C1188 1.349 . S
C1189 C1205 1.349 . S
C1190 C1188 1.327 . S
C1190 C1209 1.429 . S
C1190 H1214 0.950 . S
C1191 C1208 1.567 1_545 S
C1191 C1210 1.380 . S
C1191 H1215 0.945 1_545 S
H1192 C1196 0.949 . S
C1193 C1194 1.349 . S
C1193 C1195 1.327 . S
C1193 H1216 0.950 . S
C1194 C1193 1.349 . S
C1194 C1206 1.349 . S
C1195 C1193 1.327 . S
C1195 C1211 1.429 . S
C1195 H1217 0.950 . S
C1196 H1192 0.949 . S
C1196 C1204 1.574 1_554 S
C1196 C1212 1.368 1_545 S
H1197 C1205 0.950 . S
H1198 C1203 0.950 . S
H1199 C1204 0.949 . S
H1200 C1206 0.950 . S
H1201 C1207 0.950 1_545 S
H1202 C1208 0.949 . S
C1203 H1198 0.950 . S
C1203 C1205 1.327 . S
C1203 C1209 1.429 . S
C1204 C1196 1.574 1_556 S
C1204 H1199 0.949 . S
C1204 C1210 1.368 . S
C1205 C1189 1.349 . S
C1205 H1197 0.950 . S
C1205 C1203 1.327 . S
C1206 C1194 1.349 . S
C1206 H1200 0.950 . S
C1206 C1207 1.327 . S
C1207 H1201 0.950 1_565 S
C1207 C1206 1.327 . S
C1207 C1211 1.429 . S
C1208 C1191 1.567 1_565 S
C1208 H1202 0.949 . S
C1208 C1212 1.368 1_556 S
C1209 C1190 1.429 . S
C1209 C1203 1.429 . S
C1209 C1210 1.523 . S
C1210 C1191 1.380 . S
C1210 C1204 1.368 . S
C1210 C1209 1.523 . S
C1211 C1195 1.429 . S
C1211 C1207 1.429 . S
C1211 C1212 1.523 . S
C1212 C1196 1.368 1_565 S
C1212 C1208 1.368 1_554 S
C1212 C1211 1.523 . S
H1213 C1188 0.950 . S
H1214 C1190 0.950 . S
H1215 C1191 0.945 1_565 S
H1216 C1193 0.950 . S
H1217 C1195 0.950 . S
C1218 C1219 1.349 . S
C1218 C1220 1.327 . S
C1218 H1243 0.950 . S
C1219 C1218 1.349 . S
C1219 C1235 1.349 . S
C1220 C1218 1.327 . S
C1220 C1239 1.429 . S
C1220 H1244 0.950 . S
C1221 C1238 1.551 1_566 S
C1221 C1240 1.368 . S
C1221 H1245 0.949 . S
H1222 C1226 0.949 . S
C1223 C1224 1.349 . S
C1223 C1225 1.327 . S
C1223 H1246 0.950 . S
C1224 C1223 1.349 . S
C1224 C1236 1.349 . S
C1225 C1223 1.327 . S
C1225 C1241 1.429 . S
C1225 H1247 0.950 . S
C1226 H1222 0.949 . S
C1226 C1234 1.574 . S
C1226 C1242 1.368 1_566 S
H1227 C1235 0.950 . S
H1228 C1233 0.950 . S
H1229 C1234 0.949 . S
H1230 C1236 0.950 . S
H1231 C1237 0.950 . S
H1232 C1238 0.978 . S
C1233 H1228 0.950 . S
C1233 C1235 1.327 . S
C1233 C1239 1.429 . S
C1234 C1226 1.574 . S
C1234 H1229 0.949 . S
C1234 C1240 1.368 . S
C1235 C1219 1.349 . S
C1235 H1227 0.950 . S
C1235 C1233 1.327 . S
C1236 C1224 1.349 . S
C1236 H1230 0.950 . S
C1236 C1237 1.327 . S
C1237 H1231 0.950 . S
C1237 C1236 1.327 . S
C1237 C1241 1.429 . S
C1238 C1221 1.551 1_544 S
C1238 H1232 0.978 . S
C1238 C1242 1.363 . S
C1239 C1220 1.429 . S
C1239 C1233 1.429 . S
C1239 C1240 1.523 . S
C1240 C1221 1.368 . S
C1240 C1234 1.368 . S
C1240 C1239 1.523 . S
C1241 C1225 1.429 . S
C1241 C1237 1.429 . S
C1241 C1242 1.523 . S
C1242 C1226 1.368 1_544 S
C1242 C1238 1.363 . S
C1242 C1241 1.523 . S
H1243 C1218 0.950 . S
H1244 C1220 0.950 . S
H1245 C1221 0.949 . S
H1246 C1223 0.950 . S
H1247 C1225 0.950 . S
C1248 C1249 1.349 . S
C1248 C1250 1.327 . S
C1248 H1273 0.950 . S
C1249 C1248 1.349 . S
C1249 C1265 1.349 . S
C1250 C1248 1.327 . S
C1250 C1269 1.429 . S
C1250 H1274 0.950 . S
C1251 C1268 1.574 . S
C1251 C1270 1.368 . S
C1251 H1275 0.949 . S
H1252 C1256 0.949 . S
C1253 C1254 1.349 . S
C1253 C1255 1.327 . S
C1253 H1276 0.950 . S
C1254 C1253 1.349 . S
C1254 C1266 1.349 . S
C1255 C1253 1.327 . S
C1255 C1271 1.429 . S
C1255 H1277 0.950 . S
C1256 H1252 0.949 . S
C1256 C1264 1.574 . S
C1256 C1272 1.368 . S
H1257 C1265 0.950 . S
H1258 C1263 0.950 . S
H1259 C1264 0.949 . S
H1260 C1266 0.950 . S
H1261 C1267 0.950 . S
H1262 C1268 0.949 . S
C1263 H1258 0.950 . S
C1263 C1265 1.327 . S
C1263 C1269 1.429 . S
C1264 C1256 1.574 . S
C1264 H1259 0.949 . S
C1264 C1270 1.368 . S
C1265 C1249 1.349 . S
C1265 H1257 0.950 . S
C1265 C1263 1.327 . S
C1266 C1254 1.349 . S
C1266 H1260 0.950 . S
C1266 C1267 1.327 . S
C1267 H1261 0.950 . S
C1267 C1266 1.327 . S
C1267 C1271 1.429 . S
C1268 C1251 1.574 . S
C1268 H1262 0.949 . S
C1268 C1272 1.368 . S
C1269 C1250 1.429 . S
C1269 C1263 1.429 . S
C1269 C1270 1.523 . S
C1270 C1251 1.368 . S
C1270 C1264 1.368 . S
C1270 C1269 1.523 . S
C1271 C1255 1.429 . S
C1271 C1267 1.429 . S
C1271 C1272 1.523 . S
C1272 C1256 1.368 . S
C1272 C1268 1.368 . S
C1272 C1271 1.523 . S
H1273 C1248 0.950 . S
H1274 C1250 0.950 . S
H1275 C1251 0.949 . S
H1276 C1253 0.950 . S
H1277 C1255 0.950 . S
C1278 C1279 1.349 . S
C1278 C1280 1.327 . S
C1278 H1303 0.950 . S
C1279 C1278 1.349 . S
C1279 C1295 1.349 . S
C1280 C1278 1.327 . S
C1280 C1299 1.429 . S
C1280 H1304 0.950 . S
C1281 C1298 1.574 . S
C1281 C1300 1.368 . S
C1281 H1305 0.949 . S
H1282 C1286 0.949 . S
C1283 C1284 1.349 . S
C1283 C1285 1.327 . S
C1283 H1306 0.950 . S
C1284 C1283 1.349 . S
C1284 C1296 1.349 . S
C1285 C1283 1.327 . S
C1285 C1301 1.429 . S
C1285 H1307 0.950 . S
C1286 H1282 0.949 . S
C1286 C1294 1.574 . S
C1286 C1302 1.368 . S
H1287 C1295 0.950 . S
H1288 C1293 0.950 . S
H1289 C1294 0.949 . S
H1290 C1296 0.950 . S
H1291 C1297 0.950 . S
H1292 C1298 0.949 . S
C1293 H1288 0.950 . S
C1293 C1295 1.327 . S
C1293 C1299 1.429 . S
C1294 C1286 1.574 . S
C1294 H1289 0.949 . S
C1294 C1300 1.368 . S
C1295 C1279 1.349 . S
C1295 H1287 0.950 . S
C1295 C1293 1.327 . S
C1296 C1284 1.349 . S
C1296 H1290 0.950 . S
C1296 C1297 1.327 . S
C1297 H1291 0.950 . S
C1297 C1296 1.327 . S
C1297 C1301 1.429 . S
C1298 C1281 1.574 . S
C1298 H1292 0.949 . S
C1298 C1302 1.368 . S
C1299 C1280 1.429 . S
C1299 C1293 1.429 . S
C1299 C1300 1.523 . S
C1300 C1281 1.368 . S
C1300 C1294 1.368 . S
C1300 C1299 1.523 . S
C1301 C1285 1.429 . S
C1301 C1297 1.429 . S
C1301 C1302 1.523 . S
C1302 C1286 1.368 . S
C1302 C1298 1.368 . S
C1302 C1301 1.523 . S
H1303 C1278 0.950 . S
H1304 C1280 0.950 . S
H1305 C1281 0.949 . S
H1306 C1283 0.950 . S
H1307 C1285 0.950 . S
C1308 C1309 1.349 . S
C1308 C1310 1.327 . S
C1308 H1333 0.950 . S
C1309 C1308 1.349 . S
C1309 C1325 1.349 . S
C1310 C1308 1.327 . S
C1310 C1329 1.429 . S
C1310 H1334 0.950 . S
C1311 C1328 1.574 . S
C1311 C1330 1.368 1_556 S
C1311 H1335 0.949 . S
H1312 C1316 0.949 . S
C1313 C1314 1.349 . S
C1313 C1315 1.327 . S
C1313 H1336 0.950 . S
C1314 C1313 1.349 . S
C1314 C1326 1.349 . S
C1315 C1313 1.327 . S
C1315 C1331 1.429 . S
C1315 H1337 0.950 . S
C1316 H1312 0.949 . S
C1316 C1324 1.574 1_556 S
C1316 C1332 1.368 . S
H1317 C1325 0.950 . S
H1318 C1323 0.950 . S
H1319 C1324 0.949 . S
H1320 C1326 0.950 . S
H1321 C1327 0.950 . S
H1322 C1328 0.949 . S
C1323 H1318 0.950 . S
C1323 C1325 1.327 . S
C1323 C1329 1.429 . S
C1324 C1316 1.574 1_554 S
C1324 H1319 0.949 . S
C1324 C1330 1.368 . S
C1325 C1309 1.349 . S
C1325 H1317 0.950 . S
C1325 C1323 1.327 . S
C1326 C1314 1.349 . S
C1326 H1320 0.950 . S
C1326 C1327 1.327 . S
C1327 H1321 0.950 . S
C1327 C1326 1.327 . S
C1327 C1331 1.429 . S
C1328 C1311 1.574 . S
C1328 H1322 0.949 . S
C1328 C1332 1.368 . S
C1329 C1310 1.429 . S
C1329 C1323 1.429 . S
C1329 C1330 1.523 . S
C1330 C1311 1.368 1_554 S
C1330 C1324 1.368 . S
C1330 C1329 1.523 . S
C1331 C1315 1.429 . S
C1331 C1327 1.429 . S
C1331 C1332 1.523 . S
C1332 C1316 1.368 . S
C1332 C1328 1.368 . S
C1332 C1331 1.523 . S
H1333 C1308 0.950 . S
H1334 C1310 0.950 . S
H1335 C1311 0.949 . S
H1336 C1313 0.950 . S
H1337 C1315 0.950 . S
C1338 C1339 1.349 . S
C1338 C1340 1.327 . S
C1338 H1363 0.950 . S
C1339 C1338 1.349 . S
C1339 C1355 1.349 . S
C1340 C1338 1.327 . S
C1340 C1359 1.429 . S
C1340 H1364 0.950 . S
C1341 C1358 1.559 1_554 S
C1341 C1360 1.373 . S
C1341 H1365 0.958 . S
H1342 C1346 0.949 . S
C1343 C1344 1.349 . S
C1343 C1345 1.327 . S
C1343 H1366 0.950 . S
C1344 C1343 1.349 . S
C1344 C1356 1.349 . S
C1345 C1343 1.327 . S
C1345 C1361 1.429 . S
C1345 H1367 0.950 . S
C1346 H1342 0.949 . S
C1346 C1354 1.574 . S
C1346 C1362 1.368 . S
H1347 C1355 0.950 . S
H1348 C1353 0.950 . S
H1349 C1354 0.949 1_554 S
H1350 C1356 0.950 . S
H1351 C1357 0.950 . S
H1352 C1358 0.949 . S
C1353 H1348 0.950 . S
C1353 C1355 1.327 . S
C1353 C1359 1.429 . S
C1354 C1346 1.574 . S
C1354 H1349 0.949 1_556 S
C1354 C1360 1.368 1_556 S
C1355 C1339 1.349 . S
C1355 H1347 0.950 . S
C1355 C1353 1.327 . S
C1356 C1344 1.349 . S
C1356 H1350 0.950 . S
C1356 C1357 1.327 . S
C1357 H1351 0.950 . S
C1357 C1356 1.327 . S
C1357 C1361 1.429 . S
C1358 C1341 1.559 1_556 S
C1358 H1352 0.949 . S
C1358 C1362 1.368 . S
C1359 C1340 1.429 . S
C1359 C1353 1.429 . S
C1359 C1360 1.523 . S
C1360 C1341 1.373 . S
C1360 C1354 1.368 1_554 S
C1360 C1359 1.523 . S
C1361 C1345 1.429 . S
C1361 C1357 1.429 . S
C1361 C1362 1.523 . S
C1362 C1346 1.368 . S
C1362 C1358 1.368 . S
C1362 C1361 1.523 . S
H1363 C1338 0.950 . S
H1364 C1340 0.950 . S
H1365 C1341 0.958 . S
H1366 C1343 0.950 . S
H1367 C1345 0.950 . S
C1368 C1369 1.349 . S
C1368 C1370 1.327 . S
C1368 H1393 0.950 . S
C1369 C1368 1.349 . S
C1369 C1385 1.349 . S
C1370 C1368 1.327 . S
C1370 C1389 1.429 . S
C1370 H1394 0.950 . S
C1371 C1388 1.574 . S
C1371 C1390 1.368 . S
C1371 H1395 0.949 . S
H1372 C1376 0.949 . S
C1373 C1374 1.349 . S
C1373 C1375 1.327 . S
C1373 H1396 0.950 . S
C1374 C1373 1.349 . S
C1374 C1386 1.349 . S
C1375 C1373 1.327 . S
C1375 C1391 1.429 . S
C1375 H1397 0.950 . S
C1376 H1372 0.949 . S
C1376 C1384 1.574 . S
C1376 C1392 1.368 . S
H1377 C1385 0.950 . S
H1378 C1383 0.950 . S
H1379 C1384 0.949 . S
H1380 C1386 0.950 . S
H1381 C1387 0.950 . S
H1382 C1388 0.949 . S
C1383 H1378 0.950 . S
C1383 C1385 1.327 . S
C1383 C1389 1.429 . S
C1384 C1376 1.574 . S
C1384 H1379 0.949 . S
C1384 C1390 1.368 . S
C1385 C1369 1.349 . S
C1385 H1377 0.950 . S
C1385 C1383 1.327 . S
C1386 C1374 1.349 . S
C1386 H1380 0.950 . S
C1386 C1387 1.327 . S
C1387 H1381 0.950 . S
C1387 C1386 1.327 . S
C1387 C1391 1.429 . S
C1388 C1371 1.574 . S
C1388 H1382 0.949 . S
C1388 C1392 1.368 . S
C1389 C1370 1.429 . S
C1389 C1383 1.429 . S
C1389 C1390 1.523 . S
C1390 C1371 1.368 . S
C1390 C1384 1.368 . S
C1390 C1389 1.523 . S
C1391 C1375 1.429 . S
C1391 C1387 1.429 . S
C1391 C1392 1.523 . S
C1392 C1376 1.368 . S
C1392 C1388 1.368 . S
C1392 C1391 1.523 . S
H1393 C1368 0.950 . S
H1394 C1370 0.950 . S
H1395 C1371 0.949 . S
H1396 C1373 0.950 . S
H1397 C1375 0.950 . S
C1398 C1399 1.349 . S
C1398 C1400 1.327 . S
C1398 H1423 0.950 . S
C1399 C1398 1.349 . S
C1399 C1415 1.349 . S
C1400 C1398 1.327 . S
C1400 C1419 1.429 . S
C1400 H1424 0.950 . S
C1401 C1418 1.574 . S
C1401 C1420 1.368 . S
C1401 H1425 0.949 . S
H1402 C1406 0.949 . S
C1403 C1404 1.349 . S
C1403 C1405 1.327 . S
C1403 H1426 0.950 . S
C1404 C1403 1.349 . S
C1404 C1416 1.349 . S
C1405 C1403 1.327 . S
C1405 C1421 1.429 . S
C1405 H1427 0.950 . S
C1406 H1402 0.949 . S
C1406 C1414 1.574 . S
C1406 C1422 1.368 . S
H1407 C1415 0.950 . S
H1408 C1413 0.950 . S
H1409 C1414 0.949 . S
H1410 C1416 0.950 . S
H1411 C1417 0.950 . S
H1412 C1418 0.949 . S
C1413 H1408 0.950 . S
C1413 C1415 1.327 . S
C1413 C1419 1.429 . S
C1414 C1406 1.574 . S
C1414 H1409 0.949 . S
C1414 C1420 1.368 . S
C1415 C1399 1.349 . S
C1415 H1407 0.950 . S
C1415 C1413 1.327 . S
C1416 C1404 1.349 . S
C1416 H1410 0.950 . S
C1416 C1417 1.327 . S
C1417 H1411 0.950 . S
C1417 C1416 1.327 . S
C1417 C1421 1.429 . S
C1418 C1401 1.574 . S
C1418 H1412 0.949 . S
C1418 C1422 1.368 . S
C1419 C1400 1.429 . S
C1419 C1413 1.429 . S
C1419 C1420 1.523 . S
C1420 C1401 1.368 . S
C1420 C1414 1.368 . S
C1420 C1419 1.523 . S
C1421 C1405 1.429 . S
C1421 C1417 1.429 . S
C1421 C1422 1.523 . S
C1422 C1406 1.368 . S
C1422 C1418 1.368 . S
C1422 C1421 1.523 . S
H1423 C1398 0.950 . S
H1424 C1400 0.950 . S
H1425 C1401 0.949 . S
H1426 C1403 0.950 . S
H1427 C1405 0.950 . S
C1428 C1429 1.349 . S
C1428 C1430 1.327 . S
C1428 H1453 0.950 . S
C1429 C1428 1.349 . S
C1429 C1445 1.349 . S
C1430 C1428 1.327 . S
C1430 C1449 1.429 . S
C1430 H1454 0.950 . S
C1431 C1448 1.574 . S
C1431 C1450 1.368 1_545 S
C1431 H1455 0.949 . S
H1432 C1436 0.949 . S
C1433 C1434 1.349 . S
C1433 C1435 1.327 . S
C1433 H1456 0.950 . S
C1434 C1433 1.349 . S
C1434 C1446 1.349 . S
C1435 C1433 1.327 . S
C1435 C1451 1.429 . S
C1435 H1457 0.950 . S
C1436 H1432 0.949 . S
C1436 C1444 1.574 . S
C1436 C1452 1.368 1_565 S
H1437 C1445 0.950 . S
H1438 C1443 0.950 1_545 S
H1439 C1444 0.949 . S
H1440 C1446 0.950 . S
H1441 C1447 0.950 . S
H1442 C1448 0.949 . S
C1443 H1438 0.950 1_565 S
C1443 C1445 1.327 . S
C1443 C1449 1.429 . S
C1444 C1436 1.574 . S
C1444 H1439 0.949 . S
C1444 C1450 1.368 . S
C1445 C1429 1.349 . S
C1445 H1437 0.950 . S
C1445 C1443 1.327 . S
C1446 C1434 1.349 . S
C1446 H1440 0.950 . S
C1446 C1447 1.327 . S
C1447 H1441 0.950 . S
C1447 C1446 1.327 . S
C1447 C1451 1.429 . S
C1448 C1431 1.574 . S
C1448 H1442 0.949 . S
C1448 C1452 1.368 . S
C1449 C1430 1.429 . S
C1449 C1443 1.429 . S
C1449 C1450 1.523 . S
C1450 C1431 1.368 1_565 S
C1450 C1444 1.368 . S
C1450 C1449 1.523 . S
C1451 C1435 1.429 . S
C1451 C1447 1.429 . S
C1451 C1452 1.523 . S
C1452 C1436 1.368 1_545 S
C1452 C1448 1.368 . S
C1452 C1451 1.523 . S
H1453 C1428 0.950 . S
H1454 C1430 0.950 . S
H1455 C1431 0.949 . S
H1456 C1433 0.950 . S
H1457 C1435 0.950 . S
C1458 C1459 1.349 . S
C1458 C1460 1.327 . S
C1458 H1483 0.950 . S
C1459 C1458 1.349 . S
C1459 C1475 1.349 . S
C1460 C1458 1.327 . S
C1460 C1479 1.429 . S
C1460 H1484 0.950 1_545 S
C1461 C1478 1.574 . S
C1461 C1480 1.368 . S
C1461 H1485 0.949 . S
H1462 C1466 0.949 . S
C1463 C1464 1.349 . S
C1463 C1465 1.327 . S
C1463 H1486 0.950 . S
C1464 C1463 1.349 . S
C1464 C1476 1.349 . S
C1465 C1463 1.327 . S
C1465 C1481 1.429 . S
C1465 H1487 0.950 . S
C1466 H1462 0.949 . S
C1466 C1474 1.574 . S
C1466 C1482 1.368 . S
H1467 C1475 0.950 . S
H1468 C1473 0.950 . S
H1469 C1474 0.949 . S
H1470 C1476 0.950 . S
H1471 C1477 0.950 . S
H1472 C1478 0.949 . S
C1473 H1468 0.950 . S
C1473 C1475 1.327 . S
C1473 C1479 1.429 . S
C1474 C1466 1.574 . S
C1474 H1469 0.949 . S
C1474 C1480 1.368 1_565 S
C1475 C1459 1.349 . S
C1475 H1467 0.950 . S
C1475 C1473 1.327 . S
C1476 C1464 1.349 . S
C1476 H1470 0.950 . S
C1476 C1477 1.327 . S
C1477 H1471 0.950 . S
C1477 C1476 1.327 . S
C1477 C1481 1.429 . S
C1478 C1461 1.574 . S
C1478 H1472 0.949 . S
C1478 C1482 1.368 1_545 S
C1479 C1460 1.429 . S
C1479 C1473 1.429 . S
C1479 C1480 1.523 . S
C1480 C1461 1.368 . S
C1480 C1474 1.368 1_545 S
C1480 C1479 1.523 . S
C1481 C1465 1.429 . S
C1481 C1477 1.429 . S
C1481 C1482 1.523 . S
C1482 C1466 1.368 . S
C1482 C1478 1.368 1_565 S
C1482 C1481 1.523 . S
H1483 C1458 0.950 . S
H1484 C1460 0.950 1_565 S
H1485 C1461 0.949 . S
H1486 C1463 0.950 . S
H1487 C1465 0.950 . S
C1488 C1489 1.349 . S
C1488 C1490 1.327 . S
C1488 H1513 0.950 . S
C1489 C1488 1.349 . S
C1489 C1505 1.349 . S
C1490 C1488 1.327 . S
C1490 C1509 1.429 . S
C1490 H1514 0.950 . S
C1491 C1508 1.574 . S
C1491 C1510 1.368 . S
C1491 H1515 0.949 1_554 S
H1492 C1496 0.949 . S
C1493 C1494 1.349 . S
C1493 C1495 1.327 . S
C1493 H1516 0.950 1_554 S
C1494 C1493 1.349 . S
C1494 C1506 1.349 . S
C1495 C1493 1.327 . S
C1495 C1511 1.429 . S
C1495 H1517 0.950 1_554 S
C1496 H1492 0.949 . S
C1496 C1504 1.574 . S
C1496 C1512 1.368 . S
H1497 C1505 0.950 1_556 S
H1498 C1503 0.950 1_556 S
H1499 C1504 0.949 . S
H1500 C1506 0.950 . S
H1501 C1507 0.950 . S
H1502 C1508 0.949 1_556 S
C1503 H1498 0.950 1_554 S
C1503 C1505 1.327 . S
C1503 C1509 1.429 . S
C1504 C1496 1.574 . S
C1504 H1499 0.949 . S
C1504 C1510 1.368 . S
C1505 C1489 1.349 . S
C1505 H1497 0.950 1_554 S
C1505 C1503 1.327 . S
C1506 C1494 1.349 . S
C1506 H1500 0.950 . S
C1506 C1507 1.327 . S
C1507 H1501 0.950 . S
C1507 C1506 1.327 . S
C1507 C1511 1.429 . S
C1508 C1491 1.574 . S
C1508 H1502 0.949 1_554 S
C1508 C1512 1.368 . S
C1509 C1490 1.429 . S
C1509 C1503 1.429 . S
C1509 C1510 1.523 . S
C1510 C1491 1.368 . S
C1510 C1504 1.368 . S
C1510 C1509 1.523 . S
C1511 C1495 1.429 . S
C1511 C1507 1.429 . S
C1511 C1512 1.523 . S
C1512 C1496 1.368 . S
C1512 C1508 1.368 . S
C1512 C1511 1.523 . S
H1513 C1488 0.950 . S
H1514 C1490 0.950 . S
H1515 C1491 0.949 1_556 S
H1516 C1493 0.950 1_556 S
H1517 C1495 0.950 1_556 S
C1518 C1519 1.349 . S
C1518 C1520 1.327 . S
C1518 H1543 0.950 . S
C1519 C1518 1.349 . S
C1519 C1535 1.349 . S
C1520 C1518 1.327 . S
C1520 C1539 1.429 . S
C1520 H1544 0.950 . S
C1521 C1538 1.574 . S
C1521 C1540 1.368 . S
C1521 H1545 0.949 1_554 S
H1522 C1526 0.949 . S
C1523 C1524 1.349 . S
C1523 C1525 1.327 . S
C1523 H1546 0.950 1_554 S
C1524 C1523 1.349 . S
C1524 C1536 1.349 . S
C1525 C1523 1.327 . S
C1525 C1541 1.429 . S
C1525 H1547 0.950 1_554 S
C1526 H1522 0.949 . S
C1526 C1534 1.574 . S
C1526 C1542 1.368 . S
H1527 C1535 0.950 1_556 S
H1528 C1533 0.950 1_556 S
H1529 C1534 0.949 . S
H1530 C1536 0.950 . S
H1531 C1537 0.950 . S
H1532 C1538 0.949 1_556 S
C1533 H1528 0.950 1_554 S
C1533 C1535 1.327 . S
C1533 C1539 1.429 . S
C1534 C1526 1.574 . S
C1534 H1529 0.949 . S
C1534 C1540 1.368 . S
C1535 C1519 1.349 . S
C1535 H1527 0.950 1_554 S
C1535 C1533 1.327 . S
C1536 C1524 1.349 . S
C1536 H1530 0.950 . S
C1536 C1537 1.327 . S
C1537 H1531 0.950 . S
C1537 C1536 1.327 . S
C1537 C1541 1.429 . S
C1538 C1521 1.574 . S
C1538 H1532 0.949 1_554 S
C1538 C1542 1.368 . S
C1539 C1520 1.429 . S
C1539 C1533 1.429 . S
C1539 C1540 1.523 . S
C1540 C1521 1.368 . S
C1540 C1534 1.368 . S
C1540 C1539 1.523 . S
C1541 C1525 1.429 . S
C1541 C1537 1.429 . S
C1541 C1542 1.523 . S
C1542 C1526 1.368 . S
C1542 C1538 1.368 . S
C1542 C1541 1.523 . S
H1543 C1518 0.950 . S
H1544 C1520 0.950 . S
H1545 C1521 0.949 1_556 S
H1546 C1523 0.950 1_556 S
H1547 C1525 0.950 1_556 S
C1548 C1549 1.349 . S
C1548 C1550 1.327 . S
C1548 H1573 0.950 . S
C1549 C1548 1.349 . S
C1549 C1565 1.349 . S
C1550 C1548 1.327 . S
C1550 C1569 1.429 . S
C1550 H1574 0.950 . S
C1551 C1568 1.574 1_455 S
C1551 C1570 1.368 . S
C1551 H1575 0.949 . S
H1552 C1556 0.949 . S
C1553 C1554 1.349 . S
C1553 C1555 1.327 . S
C1553 H1576 0.950 . S
C1554 C1553 1.349 . S
C1554 C1566 1.349 . S
C1555 C1553 1.327 . S
C1555 C1571 1.429 . S
C1555 H1577 0.950 . S
C1556 H1552 0.949 . S
C1556 C1564 1.574 1_655 S
C1556 C1572 1.368 . S
H1557 C1565 0.950 . S
H1558 C1563 0.950 . S
H1559 C1564 0.949 . S
H1560 C1566 0.950 . S
H1561 C1567 0.950 . S
H1562 C1568 0.949 . S
C1563 H1558 0.950 . S
C1563 C1565 1.327 . S
C1563 C1569 1.429 . S
C1564 C1556 1.574 1_455 S
C1564 H1559 0.949 . S
C1564 C1570 1.368 . S
C1565 C1549 1.349 . S
C1565 H1557 0.950 . S
C1565 C1563 1.327 . S
C1566 C1554 1.349 . S
C1566 H1560 0.950 . S
C1566 C1567 1.327 . S
C1567 H1561 0.950 . S
C1567 C1566 1.327 . S
C1567 C1571 1.429 . S
C1568 C1551 1.574 1_655 S
C1568 H1562 0.949 . S
C1568 C1572 1.368 . S
C1569 C1550 1.429 . S
C1569 C1563 1.429 . S
C1569 C1570 1.523 . S
C1570 C1551 1.368 . S
C1570 C1564 1.368 . S
C1570 C1569 1.523 . S
C1571 C1555 1.429 . S
C1571 C1567 1.429 . S
C1571 C1572 1.523 . S
C1572 C1556 1.368 . S
C1572 C1568 1.368 . S
C1572 C1571 1.523 . S
H1573 C1548 0.950 . S
H1574 C1550 0.950 . S
H1575 C1551 0.949 . S
H1576 C1553 0.950 . S
H1577 C1555 0.950 . S
C1578 C1579 1.349 . S
C1578 C1580 1.327 . S
C1578 H1603 0.950 . S
C1579 C1578 1.349 . S
C1579 C1595 1.349 . S
C1580 C1578 1.327 . S
C1580 C1599 1.429 . S
C1580 H1604 0.950 . S
C1581 C1598 1.574 . S
C1581 C1600 1.368 . S
C1581 H1605 0.949 . S
H1582 C1586 0.949 . S
C1583 C1584 1.349 . S
C1583 C1585 1.327 . S
C1583 H1606 0.950 . S
C1584 C1583 1.349 . S
C1584 C1596 1.349 . S
C1585 C1583 1.327 . S
C1585 C1601 1.429 . S
C1585 H1607 0.950 . S
C1586 H1582 0.949 . S
C1586 C1594 1.574 . S
C1586 C1602 1.368 . S
H1587 C1595 0.950 . S
H1588 C1593 0.950 . S
H1589 C1594 0.949 . S
H1590 C1596 0.950 . S
H1591 C1597 0.950 . S
H1592 C1598 0.949 . S
C1593 H1588 0.950 . S
C1593 C1595 1.327 . S
C1593 C1599 1.429 . S
C1594 C1586 1.574 . S
C1594 H1589 0.949 . S
C1594 C1600 1.368 . S
C1595 C1579 1.349 . S
C1595 H1587 0.950 . S
C1595 C1593 1.327 . S
C1596 C1584 1.349 . S
C1596 H1590 0.950 . S
C1596 C1597 1.327 . S
C1597 H1591 0.950 . S
C1597 C1596 1.327 . S
C1597 C1601 1.429 . S
C1598 C1581 1.574 . S
C1598 H1592 0.949 . S
C1598 C1602 1.368 . S
C1599 C1580 1.429 . S
C1599 C1593 1.429 . S
C1599 C1600 1.523 . S
C1600 C1581 1.368 . S
C1600 C1594 1.368 . S
C1600 C1599 1.523 . S
C1601 C1585 1.429 . S
C1601 C1597 1.429 . S
C1601 C1602 1.523 . S
C1602 C1586 1.368 . S
C1602 C1598 1.368 . S
C1602 C1601 1.523 . S
H1603 C1578 0.950 . S
H1604 C1580 0.950 . S
H1605 C1581 0.949 . S
H1606 C1583 0.950 . S
H1607 C1585 0.950 . S
C1608 C1609 1.349 . S
C1608 C1610 1.327 . S
C1608 H1633 0.950 . S
C1609 C1608 1.349 . S
C1609 C1625 1.349 . S
C1610 C1608 1.327 . S
C1610 C1629 1.429 . S
C1610 H1634 0.950 . S
C1611 C1628 1.574 . S
C1611 C1630 1.368 . S
C1611 H1635 0.949 . S
H1612 C1616 0.949 . S
C1613 C1614 1.349 . S
C1613 C1615 1.327 . S
C1613 H1636 0.950 . S
C1614 C1613 1.349 . S
C1614 C1626 1.349 . S
C1615 C1613 1.327 . S
C1615 C1631 1.429 . S
C1615 H1637 0.950 . S
C1616 H1612 0.949 . S
C1616 C1624 1.574 . S
C1616 C1632 1.368 . S
H1617 C1625 0.950 . S
H1618 C1623 0.950 . S
H1619 C1624 0.949 . S
H1620 C1626 0.950 . S
H1621 C1627 0.950 . S
H1622 C1628 0.949 . S
C1623 H1618 0.950 . S
C1623 C1625 1.327 . S
C1623 C1629 1.429 . S
C1624 C1616 1.574 . S
C1624 H1619 0.949 . S
C1624 C1630 1.368 . S
C1625 C1609 1.349 . S
C1625 H1617 0.950 . S
C1625 C1623 1.327 . S
C1626 C1614 1.349 . S
C1626 H1620 0.950 . S
C1626 C1627 1.327 . S
C1627 H1621 0.950 . S
C1627 C1626 1.327 . S
C1627 C1631 1.429 . S
C1628 C1611 1.574 . S
C1628 H1622 0.949 . S
C1628 C1632 1.368 . S
C1629 C1610 1.429 . S
C1629 C1623 1.429 . S
C1629 C1630 1.523 . S
C1630 C1611 1.368 . S
C1630 C1624 1.368 . S
C1630 C1629 1.523 . S
C1631 C1615 1.429 . S
C1631 C1627 1.429 . S
C1631 C1632 1.523 . S
C1632 C1616 1.368 . S
C1632 C1628 1.368 . S
C1632 C1631 1.523 . S
H1633 C1608 0.950 . S
H1634 C1610 0.950 . S
H1635 C1611 0.949 . S
H1636 C1613 0.950 . S
H1637 C1615 0.950 . S
C1638 C1639 1.349 . S
C1638 C1640 1.327 . S
C1638 H1663 0.950 . S
C1639 C1638 1.349 . S
C1639 C1655 1.349 . S
C1640 C1638 1.327 . S
C1640 C1659 1.429 . S
C1640 H1664 0.986 . S
C1641 C1658 1.574 1_455 S
C1641 C1660 1.368 . S
C1641 H1665 0.949 . S
H1642 C1646 0.949 . S
C1643 C1644 1.349 . S
C1643 C1645 1.327 . S
C1643 H1666 0.950 . S
C1644 C1643 1.349 . S
C1644 C1656 1.349 . S
C1645 C1643 1.327 . S
C1645 C1661 1.429 . S
C1645 H1667 0.986 . S
C1646 H1642 0.949 . S
C1646 C1654 1.574 1_655 S
C1646 C1662 1.368 . S
H1647 C1655 0.950 . S
H1648 C1653 0.950 . S
H1649 C1654 0.949 . S
H1650 C1656 0.950 . S
H1651 C1657 0.950 . S
H1652 C1658 0.949 . S
C1653 H1648 0.950 . S
C1653 C1655 1.327 . S
C1653 C1659 1.429 . S
C1654 C1646 1.574 1_455 S
C1654 H1649 0.949 . S
C1654 C1660 1.368 1_565 S
C1655 C1639 1.349 . S
C1655 H1647 0.950 . S
C1655 C1653 1.327 . S
C1656 C1644 1.349 . S
C1656 H1650 0.950 . S
C1656 C1657 1.327 . S
C1657 H1651 0.950 . S
C1657 C1656 1.327 . S
C1657 C1661 1.429 . S
C1658 C1641 1.574 1_655 S
C1658 H1652 0.949 . S
C1658 C1662 1.368 1_545 S
C1659 C1640 1.429 . S
C1659 C1653 1.429 . S
C1659 C1660 1.523 . S
C1660 C1641 1.368 . S
C1660 C1654 1.368 1_545 S
C1660 C1659 1.523 . S
C1661 C1645 1.429 . S
C1661 C1657 1.429 . S
C1661 C1662 1.523 . S
C1662 C1646 1.368 . S
C1662 C1658 1.368 1_565 S
C1662 C1661 1.523 . S
H1663 C1638 0.950 . S
H1664 C1640 0.986 . S
H1665 C1641 0.949 . S
H1666 C1643 0.950 . S
H1667 C1645 0.986 . S
C1668 C1669 1.349 . S
C1668 C1670 1.327 . S
C1668 H1693 0.950 . S
C1669 C1668 1.349 . S
C1669 C1685 1.349 . S
C1670 C1668 1.327 . S
C1670 C1689 1.429 . S
C1670 H1694 0.950 . S
C1671 C1688 1.574 . S
C1671 C1690 1.368 . S
C1671 H1695 0.949 . S
H1672 C1676 0.949 . S
C1673 C1674 1.349 . S
C1673 C1675 1.327 . S
C1673 H1696 0.950 . S
C1674 C1673 1.349 . S
C1674 C1686 1.349 . S
C1675 C1673 1.327 . S
C1675 C1691 1.429 . S
C1675 H1697 0.950 . S
C1676 H1672 0.949 . S
C1676 C1684 1.574 . S
C1676 C1692 1.368 . S
H1677 C1685 0.950 . S
H1678 C1683 0.950 . S
H1679 C1684 0.949 . S
H1680 C1686 0.950 . S
H1681 C1687 0.950 . S
H1682 C1688 0.949 . S
C1683 H1678 0.950 . S
C1683 C1685 1.327 . S
C1683 C1689 1.429 . S
C1684 C1676 1.574 . S
C1684 H1679 0.949 . S
C1684 C1690 1.368 . S
C1685 C1669 1.349 . S
C1685 H1677 0.950 . S
C1685 C1683 1.327 . S
C1686 C1674 1.349 . S
C1686 H1680 0.950 . S
C1686 C1687 1.327 . S
C1687 H1681 0.950 . S
C1687 C1686 1.327 . S
C1687 C1691 1.429 . S
C1688 C1671 1.574 . S
C1688 H1682 0.949 . S
C1688 C1692 1.368 . S
C1689 C1670 1.429 . S
C1689 C1683 1.429 . S
C1689 C1690 1.523 . S
C1690 C1671 1.368 . S
C1690 C1684 1.368 . S
C1690 C1689 1.523 . S
C1691 C1675 1.429 . S
C1691 C1687 1.429 . S
C1691 C1692 1.523 . S
C1692 C1676 1.368 . S
C1692 C1688 1.368 . S
C1692 C1691 1.523 . S
H1693 C1668 0.950 . S
H1694 C1670 0.950 . S
H1695 C1671 0.949 . S
H1696 C1673 0.950 . S
H1697 C1675 0.950 . S
C1698 C1699 1.349 . S
C1698 C1700 1.327 . S
C1698 H1723 0.950 . S
C1699 C1698 1.349 . S
C1699 C1715 1.349 . S
C1700 C1698 1.327 . S
C1700 C1719 1.429 . S
C1700 H1724 0.986 . S
C1701 C1718 1.574 . S
C1701 C1720 1.368 . S
C1701 H1725 0.949 . S
H1702 C1706 0.949 . S
C1703 C1704 1.349 . S
C1703 C1705 1.327 . S
C1703 H1726 0.950 . S
C1704 C1703 1.349 . S
C1704 C1716 1.349 . S
C1705 C1703 1.327 . S
C1705 C1721 1.429 . S
C1705 H1727 0.986 . S
C1706 H1702 0.949 . S
C1706 C1714 1.574 . S
C1706 C1722 1.368 . S
H1707 C1715 0.950 . S
H1708 C1713 0.950 . S
H1709 C1714 0.949 . S
H1710 C1716 0.950 . S
H1711 C1717 0.950 . S
H1712 C1718 0.949 . S
C1713 H1708 0.950 . S
C1713 C1715 1.327 . S
C1713 C1719 1.429 . S
C1714 C1706 1.574 . S
C1714 H1709 0.949 . S
C1714 C1720 1.368 1_545 S
C1715 C1699 1.349 . S
C1715 H1707 0.950 . S
C1715 C1713 1.327 . S
C1716 C1704 1.349 . S
C1716 H1710 0.950 . S
C1716 C1717 1.327 . S
C1717 H1711 0.950 . S
C1717 C1716 1.327 . S
C1717 C1721 1.429 . S
C1718 C1701 1.574 . S
C1718 H1712 0.949 . S
C1718 C1722 1.368 1_565 S
C1719 C1700 1.429 . S
C1719 C1713 1.429 . S
C1719 C1720 1.523 . S
C1720 C1701 1.368 . S
C1720 C1714 1.368 1_565 S
C1720 C1719 1.523 . S
C1721 C1705 1.429 . S
C1721 C1717 1.429 . S
C1721 C1722 1.523 . S
C1722 C1706 1.368 . S
C1722 C1718 1.368 1_545 S
C1722 C1721 1.523 . S
H1723 C1698 0.950 . S
H1724 C1700 0.986 . S
H1725 C1701 0.949 . S
H1726 C1703 0.950 . S
H1727 C1705 0.986 . S
C529 N2 1.818 . S
C534 N376 1.833 . S
C559 N35 1.818 . S
C564 N343 1.833 . S
C589 C51 1.262 . S
C594 C73 1.248 . S
C619 C18 1.262 . S
C624 C106 1.248 . S
C649 N134 1.818 . S
C654 N508 1.833 . S
C679 N167 1.818 . S
C684 N475 1.833 . S
C709 C183 1.262 . S
C714 C205 1.248 . S
C739 C238 1.248 . S
C744 C150 1.262 . S
C769 N112 1.833 . S
C774 N266 1.818 . S
C799 N79 1.833 . S
C804 N299 1.818 . S
C829 C315 1.262 . S
C834 C337 1.248 . S
C859 C282 1.262 . S
C864 C370 1.248 . S
C889 N398 1.818 . S
C894 N244 1.833 . S
C919 N431 1.818 . S
C924 N211 1.833 . S
C949 C469 1.248 . S
C954 C447 1.262 . S
C979 C414 1.262 . S
C984 C502 1.248 . S
C1009 C186 1.419 . S
C1014 N13 1.388 . S
C1039 C153 1.419 . S
C1044 N46 1.388 . S
C1069 C84 1.252 . S
C1074 C384 1.258 . S
C1099 C351 1.258 . S
C1104 C117 1.252 . S
C1129 C54 1.419 . S
C1134 N145 1.388 . S
C1159 C21 1.418 . S
C1164 N178 1.388 . S
C1189 C216 1.252 . S
C1194 C516 1.258 . S
C1219 C249 1.252 . S
C1224 C483 1.258 . S
C1249 N277 1.388 . S
C1254 C450 1.419 . S
C1279 C417 1.418 . S
C1284 N310 1.388 . S
C1309 C120 1.258 . S
C1314 C348 1.252 . S
C1339 C87 1.258 . S
C1344 C381 1.252 . S
C1369 C318 1.418 . S
C1374 N409 1.388 . S
C1399 C285 1.419 . S
C1404 N442 1.388 . S
C1429 C252 1.258 . S
C1434 C480 1.252 . S
C1459 C219 1.258 . S
C1464 C513 1.252 . S
C1489 C436 1.058 . S
C1494 C7 1.058 . S
C1519 C40 1.058 . S
C1524 C403 1.058 . S
C1549 N68 1.273 . S
C1554 N101 1.273 . S
C1579 C304 1.058 . S
C1584 C139 1.058 . S
C1609 C172 1.058 . S
C1614 C271 1.058 . S
C1639 N200 1.273 . S
C1644 N233 1.273 . S
C1669 N365 1.273 . S
C1674 N332 1.273 . S
C1699 N497 1.273 . S
C1704 N464 1.273 . S
