# Generated by pormake.
# Topology gsi, (4)-cn, num edge types: 1
# Building blocks:
#     Node 0, Type 0, BuildingBlock: CEKHIL_clean_sbu_0, # of connection points: 4
#     Node 1, Type 0, BuildingBlock: CEKHIL_clean_sbu_0, # of connection points: 4
#     Node 2, Type 0, BuildingBlock: CEKHIL_clean_sbu_0, # of connection points: 4
#     Node 3, Type 0, BuildingBlock: CEKHIL_clean_sbu_0, # of connection points: 4
#     Node 4, Type 0, BuildingBlock: CEKHIL_clean_sbu_0, # of connection points: 4
#     Node 5, Type 0, BuildingBlock: CEKHIL_clean_sbu_0, # of connection points: 4
#     Node 6, Type 0, BuildingBlock: CEKHIL_clean_sbu_0, # of connection points: 4
#     Node 7, Type 0, BuildingBlock: CEKHIL_clean_sbu_0, # of connection points: 4
#     Node 8, Type 0, BuildingBlock: CEKHIL_clean_sbu_0, # of connection points: 4
#     Node 9, Type 0, BuildingBlock: CEKHIL_clean_sbu_0, # of connection points: 4
#     Node 10, Type 0, BuildingBlock: CEKHIL_clean_sbu_0, # of connection points: 4
#     Node 11, Type 0, BuildingBlock: CEKHIL_clean_sbu_0, # of connection points: 4
#     Node 12, Type 0, BuildingBlock: CEKHIL_clean_sbu_0, # of connection points: 4
#     Node 13, Type 0, BuildingBlock: CEKHIL_clean_sbu_0, # of connection points: 4
#     Node 14, Type 0, BuildingBlock: CEKHIL_clean_sbu_0, # of connection points: 4
#     Node 15, Type 0, BuildingBlock: CEKHIL_clean_sbu_0, # of connection points: 4
#     Edge 16, Type (0, 0), BuildingBlock: TEMPAE_clean_linker_10, # of connection points: 2
#     Edge 17, Type (0, 0), BuildingBlock: TEMPAE_clean_linker_10, # of connection points: 2
#     Edge 18, Type (0, 0), BuildingBlock: TEMPAE_clean_linker_10, # of connection points: 2
#     Edge 19, Type (0, 0), BuildingBlock: TEMPAE_clean_linker_10, # of connection points: 2
#     Edge 20, Type (0, 0), BuildingBlock: TEMPAE_clean_linker_10, # of connection points: 2
#     Edge 21, Type (0, 0), BuildingBlock: TEMPAE_clean_linker_10, # of connection points: 2
#     Edge 22, Type (0, 0), BuildingBlock: TEMPAE_clean_linker_10, # of connection points: 2
#     Edge 23, Type (0, 0), BuildingBlock: TEMPAE_clean_linker_10, # of connection points: 2
#     Edge 24, Type (0, 0), BuildingBlock: TEMPAE_clean_linker_10, # of connection points: 2
#     Edge 25, Type (0, 0), BuildingBlock: TEMPAE_clean_linker_10, # of connection points: 2
#     Edge 26, Type (0, 0), BuildingBlock: TEMPAE_clean_linker_10, # of connection points: 2
#     Edge 27, Type (0, 0), BuildingBlock: TEMPAE_clean_linker_10, # of connection points: 2
#     Edge 28, Type (0, 0), BuildingBlock: TEMPAE_clean_linker_10, # of connection points: 2
#     Edge 29, Type (0, 0), BuildingBlock: TEMPAE_clean_linker_10, # of connection points: 2
#     Edge 30, Type (0, 0), BuildingBlock: TEMPAE_clean_linker_10, # of connection points: 2
#     Edge 31, Type (0, 0), BuildingBlock: TEMPAE_clean_linker_10, # of connection points: 2
#     Edge 32, Type (0, 0), BuildingBlock: TEMPAE_clean_linker_10, # of connection points: 2
#     Edge 33, Type (0, 0), BuildingBlock: TEMPAE_clean_linker_10, # of connection points: 2
#     Edge 34, Type (0, 0), BuildingBlock: TEMPAE_clean_linker_10, # of connection points: 2
#     Edge 35, Type (0, 0), BuildingBlock: TEMPAE_clean_linker_10, # of connection points: 2
#     Edge 36, Type (0, 0), BuildingBlock: TEMPAE_clean_linker_10, # of connection points: 2
#     Edge 37, Type (0, 0), BuildingBlock: TEMPAE_clean_linker_10, # of connection points: 2
#     Edge 38, Type (0, 0), BuildingBlock: TEMPAE_clean_linker_10, # of connection points: 2
#     Edge 39, Type (0, 0), BuildingBlock: TEMPAE_clean_linker_10, # of connection points: 2
#     Edge 40, Type (0, 0), BuildingBlock: TEMPAE_clean_linker_10, # of connection points: 2
#     Edge 41, Type (0, 0), BuildingBlock: TEMPAE_clean_linker_10, # of connection points: 2
#     Edge 42, Type (0, 0), BuildingBlock: TEMPAE_clean_linker_10, # of connection points: 2
#     Edge 43, Type (0, 0), BuildingBlock: TEMPAE_clean_linker_10, # of connection points: 2
#     Edge 44, Type (0, 0), BuildingBlock: TEMPAE_clean_linker_10, # of connection points: 2
#     Edge 45, Type (0, 0), BuildingBlock: TEMPAE_clean_linker_10, # of connection points: 2
#     Edge 46, Type (0, 0), BuildingBlock: TEMPAE_clean_linker_10, # of connection points: 2
#     Edge 47, Type (0, 0), BuildingBlock: TEMPAE_clean_linker_10, # of connection points: 2
# Relax obj value: 0.147
# Max RMSD: 0.206
# Mean RMSD: 0.126
data_MOF--net-gsi--node1-CEKHIL_clean_sbu_0--edge1-TEMPAE_clean_linker_10
_symmetry_space_group_name_H-M    P1
_symmetry_Int_Tables_number       1
_symmetry_cell_setting            triclinic
loop_
_symmetry_equiv_pos_as_xyz
'x, y, z'
_cell_length_a     39.419097
_cell_length_b     44.249513
_cell_length_c     41.565096
_cell_angle_alpha  91.143588
_cell_angle_beta   93.386277
_cell_angle_gamma 97.754188
loop_
_atom_site_label
_atom_site_type_symbol
_atom_site_fract_x
_atom_site_fract_y
_atom_site_fract_z
_atom_type_partial_charge
Co0 Co 0.15979 0.14924 0.12105 0.0
O1 O 0.18611 0.11781 0.13718 0.0
O2 O 0.13535 0.12478 0.15306 0.0
C3 C 0.17038 0.14054 0.06822 0.0
O4 O 0.12273 0.17752 0.11047 0.0
Co5 Co 0.18889 0.2051 0.0834 0.0
O6 O 0.14167 0.21568 0.07866 0.0
C7 C 0.20717 0.2019 0.15334 0.0
C8 C 0.16098 0.10917 0.15525 0.0
C9 C 0.11796 0.20152 0.09432 0.0
O10 O 0.18332 0.17913 0.15563 0.0
O11 O 0.21512 0.21329 0.12626 0.0
O12 O 0.14595 0.12357 0.08178 0.0
O13 O 0.18775 0.16142 0.08679 0.0
Co14 Co 0.8589 0.35126 0.13497 0.0
O15 O 0.83415 0.38192 0.15343 0.0
O16 O 0.88864 0.37835 0.16547 0.0
C17 C 0.83715 0.35666 0.0834 0.0
O18 O 0.8948 0.32354 0.12163 0.0
Co19 Co 0.82402 0.29261 0.09896 0.0
O20 O 0.87048 0.28384 0.09008 0.0
C21 C 0.81914 0.30021 0.16931 0.0
C22 C 0.86229 0.39227 0.17023 0.0
C23 C 0.89692 0.29919 0.10437 0.0
O24 O 0.84303 0.32322 0.17041 0.0
O25 O 0.80655 0.28641 0.14305 0.0
O26 O 0.86392 0.37484 0.09526 0.0
O27 O 0.82457 0.33643 0.10288 0.0
Co28 Co 0.16941 0.87981 0.32368 0.0
O29 O 0.19412 0.91757 0.30903 0.0
O30 O 0.13826 0.90429 0.30133 0.0
C31 C 0.1982 0.88252 0.37352 0.0
O32 O 0.1339 0.84339 0.33532 0.0
Co33 Co 0.206 0.82455 0.34504 0.0
O34 O 0.15992 0.80517 0.35572 0.0
C35 C 0.19944 0.84066 0.27632 0.0
C36 C 0.16498 0.9241 0.29687 0.0
C37 C 0.13279 0.81655 0.34743 0.0
O38 O 0.17688 0.85835 0.28173 0.0
O39 O 0.21623 0.82834 0.29859 0.0
O40 O 0.17203 0.89731 0.36844 0.0
O41 O 0.20618 0.86799 0.3487 0.0
Co42 Co 0.86363 0.63105 0.33185 0.0
O43 O 0.90462 0.64782 0.3108 0.0
O44 O 0.89467 0.65814 0.36116 0.0
C45 C 0.86291 0.58237 0.31148 0.0
O46 O 0.82566 0.61925 0.36353 0.0
Co47 Co 0.79643 0.60078 0.2957 0.0
O48 O 0.77708 0.59556 0.33841 0.0
C49 C 0.81586 0.66764 0.29486 0.0
C50 C 0.91467 0.66306 0.33751 0.0
C51 C 0.79407 0.60671 0.36389 0.0
O52 O 0.84042 0.6665 0.31644 0.0
O53 O 0.7973 0.644 0.28208 0.0
O54 O 0.88185 0.59169 0.33748 0.0
O55 O 0.84589 0.60245 0.29885 0.0
Co56 Co 0.35815 0.8513 0.634 0.0
O57 O 0.33368 0.88208 0.65269 0.0
O58 O 0.38747 0.87692 0.6661 0.0
C59 C 0.33842 0.85865 0.58219 0.0
O60 O 0.39366 0.82308 0.62076 0.0
Co61 Co 0.32288 0.79444 0.59465 0.0
O62 O 0.36933 0.78439 0.58778 0.0
C63 C 0.31264 0.80204 0.66426 0.0
C64 C 0.36148 0.89143 0.67044 0.0
C65 C 0.39565 0.79892 0.6031 0.0
O66 O 0.33963 0.82217 0.66764 0.0
O67 O 0.30038 0.79085 0.63668 0.0
O68 O 0.36516 0.87617 0.59518 0.0
O69 O 0.32487 0.8381 0.60072 0.0
Co70 Co 0.86486 0.8624 0.88935 0.0
O71 O 0.88052 0.82541 0.90652 0.0
O72 O 0.90931 0.85652 0.87408 0.0
C73 C 0.84637 0.8794 0.93707 0.0
O74 O 0.85997 0.90291 0.86629 0.0
Co75 Co 0.79009 0.87746 0.88939 0.0
O76 O 0.80714 0.91606 0.86881 0.0
C77 C 0.80734 0.82882 0.84564 0.0
C78 C 0.90784 0.83176 0.89047 0.0
C79 C 0.83759 0.92113 0.85961 0.0
O80 O 0.83981 0.83762 0.8513 0.0
O81 O 0.78441 0.83985 0.86101 0.0
O82 O 0.87876 0.8843 0.93132 0.0
O83 O 0.82715 0.86366 0.91502 0.0
Co84 Co 0.14378 0.66786 0.88898 0.0
O85 O 0.12833 0.70451 0.90659 0.0
O86 O 0.0989 0.67391 0.86955 0.0
C87 C 0.16189 0.65139 0.93814 0.0
O88 O 0.14914 0.62766 0.86452 0.0
Co89 Co 0.21843 0.65253 0.89851 0.0
O90 O 0.20133 0.61377 0.87474 0.0
C91 C 0.20147 0.69854 0.85113 0.0
C92 C 0.10053 0.69824 0.88795 0.0
C93 C 0.17146 0.60917 0.86058 0.0
O94 O 0.16889 0.6924 0.85462 0.0
O95 O 0.22424 0.68725 0.86855 0.0
O96 O 0.12976 0.64537 0.928 0.0
O97 O 0.18123 0.66725 0.91918 0.0
Co98 Co 0.8489 0.13967 0.67889 0.0
O99 O 0.80542 0.11817 0.66048 0.0
O100 O 0.84365 0.14629 0.63306 0.0
C101 C 0.86274 0.1004 0.71029 0.0
O102 O 0.89626 0.16571 0.68736 0.0
Co103 Co 0.86506 0.15447 0.75157 0.0
O104 O 0.91157 0.17226 0.74017 0.0
C105 C 0.81753 0.18867 0.71367 0.0
C106 C 0.81365 0.13002 0.63316 0.0
C107 C 0.91771 0.17667 0.71077 0.0
O108 O 0.82587 0.17669 0.68736 0.0
O109 O 0.82815 0.18079 0.74159 0.0
O110 O 0.86897 0.10097 0.67984 0.0
O111 O 0.84738 0.12245 0.72015 0.0
Co112 Co 0.17633 0.38765 0.68132 0.0
O113 O 0.21793 0.40878 0.6639 0.0
O114 O 0.18103 0.37399 0.63733 0.0
C115 C 0.15933 0.42986 0.70529 0.0
O116 O 0.13084 0.36023 0.68854 0.0
Co117 Co 0.16119 0.38508 0.75397 0.0
O118 O 0.11555 0.36282 0.73961 0.0
C119 C 0.21381 0.35083 0.7281 0.0
C120 C 0.2096 0.39242 0.63751 0.0
C121 C 0.10981 0.35264 0.71065 0.0
O122 O 0.20318 0.35513 0.69881 0.0
O123 O 0.20267 0.36355 0.75257 0.0
O124 O 0.15269 0.42426 0.67448 0.0
O125 O 0.17685 0.41112 0.71963 0.0
Co126 Co 0.64322 0.16575 0.38642 0.0
O127 O 0.62832 0.20171 0.40627 0.0
O128 O 0.59864 0.17316 0.36768 0.0
C129 C 0.66137 0.14569 0.4337 0.0
O130 O 0.64811 0.12659 0.35984 0.0
Co131 Co 0.71854 0.15087 0.39361 0.0
O132 O 0.70088 0.11318 0.36816 0.0
C133 C 0.70112 0.20164 0.35318 0.0
C134 C 0.60057 0.19661 0.38736 0.0
C135 C 0.67066 0.10858 0.35469 0.0
O136 O 0.66863 0.19222 0.35363 0.0
O137 O 0.72386 0.19026 0.37057 0.0
O138 O 0.62894 0.14151 0.42429 0.0
O139 O 0.68066 0.1627 0.41566 0.0
Co140 Co 0.65814 0.64774 0.61961 0.0
O141 O 0.68477 0.61659 0.63606 0.0
O142 O 0.63357 0.62284 0.65124 0.0
C143 C 0.66981 0.63953 0.56692 0.0
O144 O 0.62073 0.6757 0.60879 0.0
Co145 Co 0.6868 0.70406 0.58206 0.0
O146 O 0.63936 0.714 0.57702 0.0
C147 C 0.7034 0.70149 0.65243 0.0
C148 C 0.6595 0.60761 0.65385 0.0
C149 C 0.61574 0.69966 0.59265 0.0
O150 O 0.68086 0.67769 0.65447 0.0
O151 O 0.71117 0.71342 0.62555 0.0
O152 O 0.64529 0.62219 0.57999 0.0
O153 O 0.68643 0.66051 0.58583 0.0
Co154 Co 0.66828 0.37955 0.8246 0.0
O155 O 0.69301 0.41758 0.81043 0.0
O156 O 0.63727 0.40399 0.80202 0.0
C157 C 0.69638 0.38162 0.8748 0.0
O158 O 0.63273 0.34291 0.83559 0.0
Co159 Co 0.70493 0.32415 0.84579 0.0
O160 O 0.65868 0.30451 0.85566 0.0
C161 C 0.69911 0.34094 0.77728 0.0
C162 C 0.66395 0.42393 0.79786 0.0
C163 C 0.63158 0.31591 0.84732 0.0
O164 O 0.67637 0.35846 0.78262 0.0
O165 O 0.71577 0.32851 0.79957 0.0
O166 O 0.67036 0.39659 0.86959 0.0
O167 O 0.70473 0.36751 0.84988 0.0
Co168 Co 0.36239 0.13017 0.8321 0.0
O169 O 0.40281 0.14734 0.8104 0.0
O170 O 0.39354 0.15763 0.86093 0.0
C171 C 0.36215 0.08149 0.8118 0.0
O172 O 0.32521 0.11816 0.86447 0.0
Co173 Co 0.29495 0.09871 0.79747 0.0
O174 O 0.27685 0.09284 0.84064 0.0
C175 C 0.31296 0.16577 0.79599 0.0
C176 C 0.41312 0.16268 0.837 0.0
C177 C 0.29404 0.10479 0.86568 0.0
O178 O 0.33823 0.16515 0.81696 0.0
O179 O 0.29452 0.1418 0.78378 0.0
O180 O 0.38139 0.09113 0.83754 0.0
O181 O 0.34448 0.10124 0.79942 0.0
Co182 Co 0.36636 0.36194 0.39296 0.0
O183 O 0.38196 0.32466 0.40935 0.0
O184 O 0.41088 0.35642 0.3776 0.0
C185 C 0.34801 0.3782 0.44098 0.0
O186 O 0.36145 0.40286 0.37082 0.0
Co187 Co 0.29149 0.37663 0.39335 0.0
O188 O 0.30865 0.41589 0.37411 0.0
C189 C 0.30935 0.33097 0.34627 0.0
C190 C 0.40935 0.33136 0.39349 0.0
C191 C 0.33903 0.42118 0.3648 0.0
O192 O 0.34168 0.33799 0.35423 0.0
O193 O 0.28589 0.34207 0.36082 0.0
O194 O 0.38036 0.38311 0.43516 0.0
O195 O 0.32857 0.36267 0.41889 0.0
Co196 Co 0.34895 0.63844 0.18215 0.0
O197 O 0.30537 0.61698 0.16444 0.0
O198 O 0.3439 0.64324 0.13579 0.0
C199 C 0.36276 0.59985 0.21469 0.0
O200 O 0.39648 0.6645 0.19069 0.0
Co201 Co 0.36143 0.65434 0.25523 0.0
O202 O 0.40466 0.67842 0.24328 0.0
C203 C 0.31458 0.68669 0.21489 0.0
C204 C 0.31367 0.62743 0.13658 0.0
C205 C 0.41389 0.67989 0.21443 0.0
O206 O 0.3257 0.67574 0.18927 0.0
O207 O 0.32305 0.67829 0.24322 0.0
O208 O 0.36908 0.59977 0.18429 0.0
O209 O 0.34686 0.62186 0.22366 0.0
Co210 Co 0.67758 0.88624 0.17926 0.0
O211 O 0.71776 0.90872 0.1609 0.0
O212 O 0.68239 0.87196 0.13547 0.0
C213 C 0.65837 0.92765 0.20266 0.0
O214 O 0.63335 0.85747 0.18796 0.0
Co215 Co 0.66691 0.88473 0.25297 0.0
O216 O 0.62542 0.85521 0.24109 0.0
C217 C 0.7202 0.85308 0.22569 0.0
C218 C 0.71005 0.89152 0.13504 0.0
C219 C 0.61671 0.84654 0.212 0.0
O220 O 0.70682 0.85537 0.19691 0.0
O221 O 0.71057 0.86676 0.25027 0.0
O222 O 0.65152 0.92133 0.172 0.0
O223 O 0.67776 0.91035 0.21696 0.0
C224 C 0.21786 0.20711 0.21388 0.0
C225 C 0.22602 0.21666 0.18293 0.0
C226 C 0.23427 0.22271 0.24164 0.0
C227 C 0.25923 0.24855 0.23838 0.0
C228 C 0.26863 0.25739 0.20728 0.0
C229 C 0.25206 0.24136 0.18007 0.0
C230 C 0.22382 0.21237 0.27443 0.0
C231 C 0.29486 0.28491 0.20259 0.0
C232 C 0.26664 0.31268 0.30127 0.0
C233 C 0.29774 0.30982 0.31845 0.0
C234 C 0.25384 0.29269 0.27553 0.0
C235 C 0.27226 0.26877 0.26684 0.0
C236 C 0.30362 0.26552 0.28415 0.0
C237 C 0.31623 0.28634 0.3096 0.0
C238 C 0.22075 0.29752 0.25732 0.0
C239 C 0.32371 0.24004 0.27584 0.0
H240 H 0.1981 0.18792 0.21646 0.0
H241 H 0.25903 0.24887 0.1564 0.0
H242 H 0.24682 0.21111 0.29081 0.0
H243 H 0.20908 0.22923 0.28526 0.0
H244 H 0.20764 0.18974 0.27315 0.0
H245 H 0.30166 0.28707 0.1771 0.0
H246 H 0.28454 0.30591 0.21008 0.0
H247 H 0.31861 0.28368 0.2179 0.0
H248 H 0.25233 0.33094 0.30774 0.0
H249 H 0.3401 0.28387 0.32298 0.0
H250 H 0.2017 0.2767 0.25798 0.0
H251 H 0.22543 0.3018 0.23164 0.0
H252 H 0.2094 0.31707 0.26736 0.0
H253 H 0.30725 0.21771 0.27699 0.0
H254 H 0.34691 0.23992 0.29235 0.0
H255 H 0.33177 0.24226 0.25078 0.0
C256 C 0.79212 0.31101 0.22032 0.0
C257 C 0.80347 0.28996 0.19921 0.0
C258 C 0.77254 0.30104 0.24628 0.0
C259 C 0.7652 0.26938 0.25168 0.0
C260 C 0.77754 0.24817 0.23083 0.0
C261 C 0.79599 0.25872 0.20453 0.0
C262 C 0.75899 0.32427 0.26737 0.0
C263 C 0.77135 0.21427 0.23632 0.0
C264 C 0.74891 0.23811 0.33399 0.0
C265 C 0.71446 0.22465 0.32987 0.0
C266 C 0.76518 0.25439 0.30941 0.0
C267 C 0.74641 0.25806 0.28007 0.0
C268 C 0.71078 0.24719 0.27683 0.0
C269 C 0.69519 0.23037 0.30175 0.0
C270 C 0.80323 0.26528 0.3139 0.0
C271 C 0.68966 0.25155 0.24624 0.0
H272 H 0.79726 0.33518 0.21567 0.0
H273 H 0.80461 0.2425 0.188 0.0
H274 H 0.73054 0.31996 0.26617 0.0
H275 H 0.76798 0.3221 0.2929 0.0
H276 H 0.76709 0.34803 0.26002 0.0
H277 H 0.78343 0.20093 0.21833 0.0
H278 H 0.78178 0.2094 0.26077 0.0
H279 H 0.74341 0.20619 0.23503 0.0
H280 H 0.76394 0.23445 0.35591 0.0
H281 H 0.66854 0.22033 0.29842 0.0
H282 H 0.80906 0.28935 0.3068 0.0
H283 H 0.8172 0.25135 0.29811 0.0
H284 H 0.8133 0.26341 0.33922 0.0
H285 H 0.69574 0.27519 0.23779 0.0
H286 H 0.6617 0.24679 0.24957 0.0
H287 H 0.69592 0.23585 0.227 0.0
C288 C 0.28038 0.72312 0.24017 0.0
C289 C 0.2919 0.71086 0.21212 0.0
C290 C 0.2607 0.74712 0.23895 0.0
C291 C 0.25186 0.75931 0.20876 0.0
C292 C 0.26218 0.74635 0.1801 0.0
C293 C 0.28231 0.72236 0.18213 0.0
C294 C 0.25024 0.75991 0.27036 0.0
C295 C 0.25313 0.75821 0.14737 0.0
C296 C 0.18392 0.80492 0.23044 0.0
C297 C 0.20515 0.83071 0.24347 0.0
C298 C 0.19783 0.78266 0.21276 0.0
C299 C 0.23354 0.78662 0.20862 0.0
C300 C 0.25297 0.81554 0.21561 0.0
C301 C 0.23845 0.83738 0.23321 0.0
C302 C 0.17573 0.75284 0.20381 0.0
C303 C 0.2907 0.82136 0.21001 0.0
H304 H 0.28728 0.71435 0.26347 0.0
H305 H 0.29087 0.71296 0.16022 0.0
H306 H 0.26152 0.78421 0.27369 0.0
H307 H 0.22194 0.7588 0.26996 0.0
H308 H 0.25874 0.74739 0.2916 0.0
H309 H 0.25129 0.73988 0.12843 0.0
H310 H 0.22858 0.7679 0.14677 0.0
H311 H 0.27369 0.7765 0.14129 0.0
H312 H 0.158 0.79984 0.23817 0.0
H313 H 0.25478 0.85753 0.24309 0.0
H314 H 0.17835 0.73656 0.22349 0.0
H315 H 0.18387 0.74262 0.18141 0.0
H316 H 0.14825 0.75593 0.2004 0.0
H317 H 0.30529 0.81092 0.22951 0.0
H318 H 0.30017 0.84618 0.21012 0.0
H319 H 0.296 0.81087 0.18671 0.0
C320 C 0.77331 0.70194 0.27975 0.0
C321 C 0.80771 0.69747 0.28428 0.0
C322 C 0.76437 0.72944 0.26822 0.0
C323 C 0.7905 0.75273 0.26007 0.0
C324 C 0.82538 0.7482 0.26419 0.0
C325 C 0.83364 0.72066 0.2768 0.0
C326 C 0.7269 0.73368 0.26519 0.0
C327 C 0.85378 0.77218 0.25485 0.0
C328 C 0.75141 0.81007 0.20843 0.0
C329 C 0.7451 0.83128 0.23211 0.0
C330 C 0.76939 0.78565 0.21659 0.0
C331 C 0.78073 0.78228 0.24915 0.0
C332 C 0.77713 0.80512 0.27246 0.0
C333 C 0.75972 0.82948 0.26357 0.0
C334 C 0.77381 0.76221 0.19086 0.0
C335 C 0.78849 0.80234 0.30752 0.0
H336 H 0.75334 0.68393 0.28564 0.0
H337 H 0.86023 0.71688 0.27989 0.0
H338 H 0.72266 0.75387 0.27993 0.0
H339 H 0.71917 0.73795 0.23978 0.0
H340 H 0.7099 0.71348 0.27315 0.0
H341 H 0.87955 0.76502 0.25938 0.0
H342 H 0.85007 0.77701 0.22887 0.0
H343 H 0.85299 0.79384 0.26849 0.0
H344 H 0.74074 0.8115 0.18396 0.0
H345 H 0.75574 0.84611 0.28199 0.0
H346 H 0.7546 0.74172 0.19316 0.0
H347 H 0.79963 0.7549 0.19374 0.0
H348 H 0.77017 0.77107 0.16625 0.0
H349 H 0.77105 0.78397 0.31826 0.0
H350 H 0.78807 0.82385 0.32164 0.0
H351 H 0.81475 0.79598 0.30999 0.0
C352 C 0.30323 0.80394 0.7238 0.0
C353 C 0.29389 0.7913 0.6928 0.0
C354 C 0.28534 0.79314 0.75054 0.0
C355 C 0.2577 0.76905 0.74615 0.0
C356 C 0.24731 0.75718 0.71477 0.0
C357 C 0.26543 0.7684 0.68861 0.0
C358 C 0.29696 0.80655 0.78366 0.0
C359 C 0.21828 0.73126 0.70894 0.0
C360 C 0.24487 0.71092 0.81106 0.0
C361 C 0.21458 0.71735 0.82429 0.0
C362 C 0.25935 0.72807 0.78627 0.0
C363 C 0.24342 0.75267 0.77432 0.0
C364 C 0.21292 0.75962 0.78761 0.0
C365 C 0.19856 0.74159 0.81234 0.0
C366 C 0.29136 0.71926 0.77235 0.0
C367 C 0.19553 0.78595 0.77562 0.0
H368 H 0.32475 0.82196 0.72728 0.0
H369 H 0.25757 0.75859 0.6648 0.0
H370 H 0.2746 0.81124 0.79702 0.0
H371 H 0.31005 0.78989 0.79762 0.0
H372 H 0.31503 0.82802 0.78255 0.0
H373 H 0.21088 0.72696 0.68288 0.0
H374 H 0.22617 0.71007 0.71906 0.0
H375 H 0.19537 0.73611 0.72133 0.0
H376 H 0.25719 0.69192 0.81982 0.0
H377 H 0.17529 0.74674 0.82262 0.0
H378 H 0.31202 0.739 0.77385 0.0
H379 H 0.28598 0.71261 0.74648 0.0
H380 H 0.30102 0.69994 0.785 0.0
H381 H 0.21406 0.80724 0.77706 0.0
H382 H 0.17319 0.78947 0.78965 0.0
H383 H 0.1866 0.78181 0.7499 0.0
C384 C 0.72367 0.7013 0.71114 0.0
C385 C 0.72118 0.71674 0.68212 0.0
C386 C 0.74091 0.71612 0.73896 0.0
C387 C 0.7553 0.74721 0.73783 0.0
C388 C 0.75322 0.76268 0.70847 0.0
C389 C 0.73646 0.74724 0.68105 0.0
C390 C 0.74309 0.69875 0.76972 0.0
C391 C 0.76747 0.79599 0.70627 0.0
C392 C 0.75932 0.79968 0.81125 0.0
C393 C 0.79475 0.8058 0.81951 0.0
C394 C 0.74621 0.77966 0.78567 0.0
C395 C 0.76891 0.76488 0.76782 0.0
C396 C 0.80457 0.76978 0.77673 0.0
C397 C 0.81715 0.79038 0.80238 0.0
C398 C 0.70807 0.77554 0.77679 0.0
C399 C 0.82949 0.75401 0.75855 0.0
H400 H 0.71232 0.67764 0.71207 0.0
H401 H 0.73462 0.75947 0.65881 0.0
H402 H 0.76986 0.70188 0.78037 0.0
H403 H 0.72698 0.70782 0.78762 0.0
H404 H 0.73429 0.67396 0.76575 0.0
H405 H 0.76541 0.80421 0.68124 0.0
H406 H 0.75333 0.81 0.7218 0.0
H407 H 0.79482 0.7999 0.71518 0.0
H408 H 0.74154 0.81124 0.82423 0.0
H409 H 0.84447 0.79465 0.80871 0.0
H410 H 0.69762 0.75096 0.77553 0.0
H411 H 0.70331 0.78481 0.75257 0.0
H412 H 0.69366 0.78726 0.79429 0.0
H413 H 0.82018 0.72925 0.75552 0.0
H414 H 0.85553 0.75703 0.77093 0.0
H415 H 0.83144 0.76341 0.73408 0.0
C416 C 0.68474 0.30465 0.73189 0.0
C417 C 0.70505 0.33111 0.74448 0.0
C418 C 0.69954 0.28272 0.71459 0.0
C419 C 0.73517 0.2878 0.71014 0.0
C420 C 0.75354 0.31723 0.71671 0.0
C421 C 0.73818 0.33867 0.73408 0.0
C422 C 0.67855 0.2522 0.70638 0.0
C423 C 0.79112 0.32419 0.71078 0.0
C424 C 0.78487 0.22555 0.74039 0.0
C425 C 0.79515 0.2131 0.71188 0.0
C426 C 0.76487 0.24936 0.73979 0.0
C427 C 0.75463 0.26122 0.70983 0.0
C428 C 0.76409 0.24832 0.68079 0.0
C429 C 0.7844 0.22446 0.68217 0.0
C430 C 0.75529 0.26214 0.77154 0.0
C431 C 0.75383 0.2601 0.64834 0.0
H432 H 0.65898 0.29887 0.73979 0.0
H433 H 0.75381 0.35932 0.74366 0.0
H434 H 0.68665 0.24208 0.68391 0.0
H435 H 0.68244 0.23634 0.72621 0.0
H436 H 0.65075 0.2542 0.70346 0.0
H437 H 0.79951 0.34917 0.71031 0.0
H438 H 0.80641 0.31468 0.73046 0.0
H439 H 0.79673 0.31352 0.68767 0.0
H440 H 0.79275 0.21691 0.76347 0.0
H441 H 0.79214 0.215 0.65993 0.0
H442 H 0.72701 0.26069 0.77196 0.0
H443 H 0.76625 0.28655 0.7745 0.0
H444 H 0.76474 0.24985 0.79257 0.0
H445 H 0.72847 0.26835 0.6482 0.0
H446 H 0.75299 0.24223 0.62903 0.0
H447 H 0.77312 0.27951 0.64243 0.0
C448 C 0.25146 0.32591 0.76661 0.0
C449 C 0.23799 0.32849 0.73487 0.0
C450 C 0.2691 0.30164 0.7753 0.0
C451 C 0.27394 0.27957 0.75158 0.0
C452 C 0.26333 0.28353 0.71894 0.0
C453 C 0.24526 0.30793 0.71093 0.0
C454 C 0.27974 0.29823 0.81043 0.0
C455 C 0.26885 0.26082 0.69286 0.0
C456 C 0.32905 0.21935 0.77869 0.0
C457 C 0.30378 0.19533 0.78551 0.0
C458 C 0.31986 0.24672 0.76642 0.0
C459 C 0.2847 0.25021 0.76195 0.0
C460 C 0.25923 0.22605 0.76935 0.0
C461 C 0.26911 0.19878 0.78059 0.0
C462 C 0.34761 0.2717 0.75796 0.0
C463 C 0.22146 0.22914 0.76589 0.0
H464 H 0.2467 0.34203 0.78524 0.0
H465 H 0.23538 0.30993 0.68628 0.0
H466 H 0.26276 0.279 0.82029 0.0
H467 H 0.30637 0.2928 0.81324 0.0
H468 H 0.27802 0.31917 0.8251 0.0
H469 H 0.26518 0.26999 0.66839 0.0
H470 H 0.29501 0.25423 0.69585 0.0
H471 H 0.25027 0.23982 0.69463 0.0
H472 H 0.35588 0.21641 0.78209 0.0
H473 H 0.24962 0.18017 0.78601 0.0
H474 H 0.34616 0.2927 0.77254 0.0
H475 H 0.34373 0.27745 0.73226 0.0
H476 H 0.37369 0.26508 0.76207 0.0
H477 H 0.21614 0.24861 0.78115 0.0
H478 H 0.205 0.20823 0.77295 0.0
H479 H 0.21401 0.23398 0.74056 0.0
C480 C 0.13632 0.95299 0.2538 0.0
C481 C 0.16287 0.95204 0.27765 0.0
C482 C 0.13548 0.97846 0.23396 0.0
C483 C 0.16122 1.00415 0.23862 0.0
C484 C 0.1875 1.00361 0.26336 0.0
C485 C 0.1883 0.97748 0.28215 0.0
C486 C 0.1075 0.97753 0.20742 0.0
C487 C 0.2149 0.03067 0.26997 0.0
C488 C 0.18059 0.05907 0.16981 0.0
C489 C 0.16126 0.08254 0.17677 0.0
C490 C 0.18032 0.03331 0.18933 0.0
C491 C 0.16113 0.03125 0.21722 0.0
C492 C 0.14205 0.0552 0.22466 0.0
C493 C 0.1419 0.08023 0.20412 0.0
C494 C 0.2003 0.00808 0.17983 0.0
C495 C 0.12207 0.05458 0.25457 0.0
H496 H 0.11674 0.93337 0.24993 0.0
H497 H 0.20883 0.97704 0.3006 0.0
H498 H 0.09265 0.99683 0.21065 0.0
H499 H 0.11905 0.98015 0.18375 0.0
H500 H 0.08952 0.95588 0.20673 0.0
H501 H 0.23224 0.0275 0.29133 0.0
H502 H 0.23056 0.03449 0.24875 0.0
H503 H 0.2029 0.0516 0.27403 0.0
H504 H 0.1954 0.0605 0.14859 0.0
H505 H 0.12706 0.09833 0.20981 0.0
H506 H 0.18297 0.98609 0.17728 0.0
H507 H 0.2204 1.00541 0.19898 0.0
H508 H 0.21277 0.01248 0.15679 0.0
H509 H 0.10207 0.03433 0.25354 0.0
H510 H 0.10948 0.07537 0.25758 0.0
H511 H 0.13942 0.05256 0.2762 0.0
C512 C 0.83403 0.42465 0.20808 0.0
C513 C 0.86386 0.41821 0.19402 0.0
C514 C 0.83479 0.44939 0.23015 0.0
C515 C 0.86595 0.46893 0.23774 0.0
C516 C 0.89627 0.46226 0.22392 0.0
C517 C 0.89495 0.43677 0.20266 0.0
C518 C 0.80198 0.45501 0.24479 0.0
C519 C 0.92987 0.4828 0.23049 0.0
C520 C 0.85657 0.55126 0.26021 0.0
C521 C 0.86429 0.55293 0.2937 0.0
C522 C 0.85779 0.52443 0.24191 0.0
C523 C 0.866 0.4979 0.25739 0.0
C524 C 0.87361 0.49924 0.29131 0.0
C525 C 0.8732 0.52688 0.309 0.0
C526 C 0.85036 0.52458 0.20584 0.0
C527 C 0.8816 0.47134 0.30894 0.0
H528 H 0.80997 0.41019 0.20192 0.0
H529 H 0.91812 0.43199 0.19191 0.0
H530 H 0.80627 0.45838 0.27132 0.0
H531 H 0.79356 0.47616 0.23513 0.0
H532 H 0.78095 0.43587 0.23952 0.0
H533 H 0.95149 0.47363 0.21943 0.0
H534 H 0.9277 0.50566 0.2207 0.0
H535 H 0.936 0.48597 0.25682 0.0
H536 H 0.85003 0.57131 0.248 0.0
H537 H 0.87912 0.52792 0.33483 0.0
H538 H 0.82713 0.50824 0.19873 0.0
H539 H 0.87198 0.51707 0.19327 0.0
H540 H 0.84621 0.54749 0.19726 0.0
H541 H 0.85976 0.45274 0.305 0.0
H542 H 0.88667 0.47592 0.33527 0.0
H543 H 0.90433 0.46296 0.29923 0.0
C544 C 0.23977 0.09902 0.89558 0.0
C545 C 0.27576 0.10607 0.89634 0.0
C546 C 0.22129 0.10317 0.92297 0.0
C547 C 0.23897 0.11414 0.95244 0.0
C548 C 0.27536 0.12028 0.95379 0.0
C549 C 0.29323 0.1165 0.92576 0.0
C550 C 0.18259 0.09687 0.91999 0.0
C551 C 0.29544 0.13135 0.98479 0.0
C552 C 0.19333 0.15586 0.01516 0.0
C553 C 0.1834 0.13273 0.03663 0.0
C554 C 0.21037 0.14989 0.98729 0.0
C555 C 0.21927 0.12034 0.98134 0.0
C556 C 0.20922 0.09686 1.00304 0.0
C557 C 0.19093 0.10321 0.03007 0.0
C558 C 0.21927 0.17541 0.9644 0.0
C559 C 0.219 0.06532 0.99843 0.0
H560 H 0.22569 0.09117 0.87312 0.0
H561 H 0.32091 0.12207 0.92685 0.0
H562 H 0.17318 0.0802 0.9381 0.0
H563 H 0.17169 0.11821 0.92496 0.0
H564 H 0.17263 0.08778 0.89564 0.0
H565 H 0.32357 0.13273 0.98269 0.0
H566 H 0.2895 0.15432 0.9917 0.0
H567 H 0.28787 0.11589 1.0046 0.0
H568 H 0.18794 0.17879 0.02035 0.0
H569 H 0.18416 0.08545 0.04705 0.0
H570 H 0.20942 0.1681 0.9395 0.0
H571 H 0.24754 0.18101 0.96414 0.0
H572 H 0.20848 0.19641 0.97117 0.0
H573 H 0.2089 0.05552 0.97444 0.0
H574 H 0.20918 0.04954 0.01725 0.0
H575 H 0.24736 0.06668 0.99914 0.0
C576 C 0.8269 0.38738 0.03384 0.0
C577 C 0.81801 0.36158 0.05225 0.0
C578 C 0.80682 0.39296 0.00581 0.0
C579 C 0.77711 0.37229 0.99589 0.0
C580 C 0.76817 0.34621 0.01441 0.0
C581 C 0.78864 0.3412 0.04216 0.0
C582 C 0.81747 0.42093 0.98672 0.0
C583 C 0.73702 0.32336 1.00477 0.0
C584 C 0.70792 0.39414 0.93485 0.0
C585 C 0.71639 0.38025 0.90633 0.0
C586 C 0.72774 0.39233 0.96413 0.0
C587 C 0.75678 0.37639 0.96488 0.0
C588 C 0.76554 0.36273 0.93602 0.0
C589 C 0.74536 0.36477 0.90737 0.0
C590 C 0.71742 0.40713 0.99437 0.0
C591 C 0.79609 0.34549 0.9354 0.0
H592 H 0.8493 0.40343 0.04153 0.0
H593 H 0.78135 0.32123 0.05618 0.0
H594 H 0.82335 0.41402 0.96208 0.0
H595 H 0.79607 0.43479 0.98413 0.0
H596 H 0.84037 0.43542 0.99819 0.0
H597 H 0.73265 0.30497 0.02248 0.0
H598 H 0.71382 0.33501 1.00238 0.0
H599 H 0.74013 0.31274 0.98091 0.0
H600 H 0.68576 0.40624 0.93434 0.0
H601 H 0.75247 0.35406 0.88555 0.0
H602 H 0.73927 0.42323 0.00529 0.0
H603 H 0.71067 0.38948 0.01236 0.0
H604 H 0.69514 0.4197 0.98969 0.0
H605 H 0.81965 0.36029 0.94494 0.0
H606 H 0.80031 0.3372 0.91075 0.0
H607 H 0.79232 0.32554 0.9512 0.0
C608 C 0.29231 0.84291 0.53897 0.0
C609 C 0.32049 0.86399 0.55058 0.0
C610 C 0.27232 0.84813 0.51103 0.0
C611 C 0.28055 0.87515 0.49381 0.0
C612 C 0.30919 0.89649 0.50514 0.0
C613 C 0.32883 0.89067 0.53338 0.0
C614 C 0.24236 0.82454 0.49989 0.0
C615 C 0.31901 0.92547 0.48742 0.0
C616 C 0.24935 0.86862 0.4052 0.0
C617 C 0.21907 0.88222 0.40469 0.0
C618 C 0.27006 0.86729 0.43367 0.0
C619 C 0.26041 0.87967 0.46285 0.0
C620 C 0.23018 0.89396 0.46255 0.0
C621 C 0.20991 0.89518 0.43345 0.0
C622 C 0.30193 0.85186 0.43257 0.0
C623 C 0.21886 0.90732 0.49315 0.0
H624 H 0.28548 0.82222 0.552 0.0
H625 H 0.35028 0.90724 0.54228 0.0
H626 H 0.21845 0.8352 0.49773 0.0
H627 H 0.24651 0.81525 0.47566 0.0
H628 H 0.23855 0.80526 0.51661 0.0
H629 H 0.34137 0.94011 0.49963 0.0
H630 H 0.32537 0.91988 0.46254 0.0
H631 H 0.29701 0.93868 0.4854 0.0
H632 H 0.25702 0.85874 0.38316 0.0
H633 H 0.18673 0.90586 0.43332 0.0
H634 H 0.29905 0.83106 0.44719 0.0
H635 H 0.32457 0.86721 0.4432 0.0
H636 H 0.30714 0.84518 0.40762 0.0
H637 H 0.21232 0.88887 0.51032 0.0
H638 H 0.19615 0.91939 0.48868 0.0
H639 H 0.24009 0.92354 0.50493 0.0
C640 C 0.69863 0.65696 0.51716 0.0
C641 C 0.68299 0.6329 0.53498 0.0
C642 C 0.71574 0.65148 0.48922 0.0
C643 C 0.71852 0.62112 0.47925 0.0
C644 C 0.70248 0.59667 0.49703 0.0
C645 C 0.68451 0.60284 0.52436 0.0
C646 C 0.73125 0.67832 0.47061 0.0
C647 C 0.70539 0.56399 0.48789 0.0
C648 C 0.73918 0.60679 0.39187 0.0
C649 C 0.77513 0.60802 0.39408 0.0
C650 C 0.72058 0.61068 0.41923 0.0
C651 C 0.73798 0.61516 0.45011 0.0
C652 C 0.77414 0.61543 0.45275 0.0
C653 C 0.7923 0.61234 0.42475 0.0
C654 C 0.68234 0.61111 0.41487 0.0
C655 C 0.79375 0.61937 0.48518 0.0
H656 H 0.69775 0.68025 0.52532 0.0
H657 H 0.67316 0.58413 0.53838 0.0
H658 H 0.75955 0.67923 0.47152 0.0
H659 H 0.72185 0.67565 0.44488 0.0
H660 H 0.72504 0.70037 0.48028 0.0
H661 H 0.69139 0.54754 0.50395 0.0
H662 H 0.69515 0.55874 0.46269 0.0
H663 H 0.73281 0.56056 0.48912 0.0
H664 H 0.72549 0.60389 0.36838 0.0
H665 H 0.81997 0.61331 0.42689 0.0
H666 H 0.67611 0.63367 0.42292 0.0
H667 H 0.6686 0.59372 0.43002 0.0
H668 H 0.67245 0.60669 0.38939 0.0
H669 H 0.79242 0.64247 0.49549 0.0
H670 H 0.82116 0.61645 0.48362 0.0
H671 H 0.78197 0.60261 0.50218 0.0
C672 C 0.93287 0.26203 0.08097 0.0
C673 C 0.93053 0.28669 0.10235 0.0
C674 C 0.9629 0.24801 0.08003 0.0
C675 C 0.99189 0.25861 0.101 0.0
C676 C 0.99002 0.28372 0.12241 0.0
C677 C 0.95953 0.29744 0.12281 0.0
C678 C 0.96346 0.22162 0.05655 0.0
C679 C 0.02018 0.29592 0.14519 0.0
C680 C 0.0594 0.2042 0.11641 0.0
C681 C 0.08478 0.21489 0.0954 0.0
C682 C 0.02939 0.21832 0.11879 0.0
C683 C 0.02428 0.24383 0.09972 0.0
C684 C 0.04966 0.25453 0.07835 0.0
C685 C 0.07932 0.24008 0.07648 0.0
C686 C 1.00314 0.20598 0.14188 0.0
C687 C 0.04552 0.28137 0.0573 0.0
H688 H 0.91092 0.25333 0.06491 0.0
H689 H 0.95824 0.31624 0.13961 0.0
H690 H 0.9844 0.2271 0.04004 0.0
H691 H 0.96877 0.20108 0.0698 0.0
H692 H 0.93886 0.21597 0.04187 0.0
H693 H 0.01485 0.31546 0.16039 0.0
H694 H 0.02699 0.27758 0.16117 0.0
H695 H 0.04289 0.3034 0.13134 0.0
H696 H 0.06315 0.185 0.13137 0.0
H697 H 0.09848 0.2488 0.06012 0.0
H698 H 0.97816 0.19847 0.12847 0.0
H699 H 0.99907 0.22424 0.15936 0.0
H700 H 0.01097 0.18642 0.15545 0.0
H701 H 0.02194 0.27621 0.04112 0.0
H702 H 0.06772 0.2873 0.04227 0.0
H703 H 0.04251 0.30164 0.07247 0.0
C704 C 0.96844 0.68974 0.315 0.0
C705 C 0.94616 0.68624 0.34022 0.0
C706 C 0.99771 0.71207 0.31685 0.0
C707 C 1.00495 0.73177 0.34447 0.0
C708 C 0.98237 0.72852 0.36989 0.0
C709 C 0.95345 0.70579 0.36753 0.0
C710 C 0.02112 0.71436 0.28929 0.0
C711 C 0.98881 0.74902 0.39969 0.0
C712 C 0.09828 0.76718 0.36227 0.0
C713 C 0.09908 0.79646 0.34941 0.0
C714 C 0.06789 0.74633 0.3613 0.0
C715 C 0.03699 0.7547 0.34733 0.0
C716 C 0.0372 0.78453 0.33527 0.0
C717 C 0.06814 0.80498 0.33637 0.0
C718 C 0.06915 0.71489 0.37445 0.0
C719 C 1.00484 0.79461 0.32047 0.0
H720 H 0.96309 0.67489 0.29373 0.0
H721 H 0.93634 0.70354 0.38708 0.0
H722 H 0.02361 0.73773 0.27974 0.0
H723 H 0.04716 0.71011 0.29801 0.0
H724 H 0.01168 0.6978 0.26925 0.0
H725 H 0.96821 0.74445 0.41677 0.0
H726 H 0.01361 0.7458 0.41231 0.0
H727 H 0.99078 0.77328 0.39285 0.0
H728 H 0.12176 0.76009 0.37253 0.0
H729 H 0.06821 0.82738 0.32628 0.0
H730 H 0.06236 0.69744 0.35476 0.0
H731 H 0.05003 0.71016 0.39287 0.0
H732 H 0.09488 0.71218 0.3855 0.0
H733 H 0.99602 0.78057 0.29838 0.0
H734 H 0.00862 0.81902 0.314 0.0
H735 H 0.98407 0.79101 0.33745 0.0
C736 C 0.55723 0.70229 0.61497 0.0
C737 C 0.58251 0.71297 0.59386 0.0
C738 C 0.52732 0.71651 0.61761 0.0
C739 C 0.5222 0.74214 0.5987 0.0
C740 C 0.54748 0.75281 0.57721 0.0
C741 C 0.57702 0.73824 0.57507 0.0
C742 C 0.50117 0.70418 0.64079 0.0
C743 C 0.54336 0.77978 0.55634 0.0
C744 C 0.43105 0.76107 0.58013 0.0
C745 C 0.42897 0.78582 0.60149 0.0
C746 C 0.46085 0.74672 0.57923 0.0
C747 C 0.48992 0.75706 0.60021 0.0
C748 C 0.48827 0.78217 0.6217 0.0
C749 C 0.45799 0.79622 0.62207 0.0
C750 C 0.46115 0.72032 0.5557 0.0
C751 C 0.51852 0.79412 0.64448 0.0
H752 H 0.56101 0.68304 0.62985 0.0
H753 H 0.59609 0.74698 0.55864 0.0
H754 H 0.49735 0.72237 0.65843 0.0
H755 H 0.47607 0.69687 0.62749 0.0
H756 H 0.50894 0.68447 0.65415 0.0
H757 H 0.56548 0.78569 0.54121 0.0
H758 H 0.51968 0.77478 0.54026 0.0
H759 H 0.54054 0.80001 0.57165 0.0
H760 H 0.4091 0.7526 0.56397 0.0
H761 H 0.45692 0.81508 0.63885 0.0
H762 H 0.46654 0.69976 0.56887 0.0
H763 H 0.48192 0.72579 0.53901 0.0
H764 H 0.43642 0.71472 0.5412 0.0
H765 H 0.52536 0.77562 0.66023 0.0
H766 H 0.51329 0.81354 0.65992 0.0
H767 H 0.54118 0.80171 0.63061 0.0
C768 C 0.86765 0.0447 0.71922 0.0
C769 C 0.8679 0.07443 0.73175 0.0
C770 C 0.86659 0.01945 0.7397 0.0
C771 C 0.86646 0.02399 0.77364 0.0
C772 C 0.86892 0.05423 0.78639 0.0
C773 C 0.86919 0.07888 0.76539 0.0
C774 C 0.8635 0.98774 0.72484 0.0
C775 C 0.86957 0.06049 0.82227 0.0
C776 C 0.81935 0.96224 0.82408 0.0
C777 C 0.84603 0.94786 0.8383 0.0
C778 C 0.82572 0.98641 0.80278 0.0
C779 C 0.85981 0.99727 0.79552 0.0
C780 C 0.88702 0.98312 0.80989 0.0
C781 C 0.87983 0.95847 0.8308 0.0
C782 C 0.79572 1.00029 0.7879 0.0
C783 C 0.92379 0.99421 0.80335 0.0
H784 H 0.86636 0.04094 0.6933 0.0
H785 H 0.86956 0.10175 0.77539 0.0
H786 H 0.88239 0.97458 0.7369 0.0
H787 H 0.83758 0.97547 0.72833 0.0
H788 H 0.86748 0.98807 0.6986 0.0
H789 H 0.8759 0.08521 0.82858 0.0
H790 H 0.84408 0.05222 0.83117 0.0
H791 H 0.88862 0.04802 0.83514 0.0
H792 H 0.79305 0.95426 0.82917 0.0
H793 H 0.90071 0.94765 0.84144 0.0
H794 H 0.79601 0.9993 0.76123 0.0
H795 H 0.79783 0.02468 0.79547 0.0
H796 H 0.77066 0.98849 0.79492 0.0
H797 H 0.92729 0.99261 0.77712 0.0
H798 H 0.94208 0.98093 0.81626 0.0
H799 H 0.93026 0.0186 0.81091 0.0
C800 C 0.13112 0.57425 0.82138 0.0
C801 C 0.16391 0.58283 0.83665 0.0
C802 C 0.12497 0.55016 0.79789 0.0
C803 C 0.15229 0.53444 0.78902 0.0
C804 C 0.18541 0.54326 0.80413 0.0
C805 C 0.1907 0.56698 0.82768 0.0
C806 C 0.08919 0.54133 0.78277 0.0
C807 C 0.21548 0.52749 0.79552 0.0
C808 C 0.14229 0.4525 0.75634 0.0
C809 C 0.14951 0.45621 0.72386 0.0
C810 C 0.1404 0.47764 0.77709 0.0
C811 C 0.14652 0.50763 0.76544 0.0
C812 C 0.15168 0.51149 0.73211 0.0
C813 C 0.15288 0.48572 0.71165 0.0
C814 C 0.13425 0.47208 0.81213 0.0
C815 C 0.15849 0.54292 0.71853 0.0
H816 H 0.1102 0.58628 0.82782 0.0
H817 H 0.21629 0.57335 0.83882 0.0
H818 H 0.08938 0.54265 0.75616 0.0
H819 H 0.07979 0.51734 0.78831 0.0
H820 H 0.07088 0.55619 0.79151 0.0
H821 H 0.23994 0.53796 0.80826 0.0
H822 H 0.21076 0.50309 0.80179 0.0
H823 H 0.21848 0.52834 0.76917 0.0
H824 H 0.13942 0.42979 0.76598 0.0
H825 H 0.15885 0.48885 0.68671 0.0
H826 H 0.11502 0.48609 0.82054 0.0
H827 H 0.15847 0.47894 0.82702 0.0
H828 H 0.12521 0.4477 0.81643 0.0
H829 H 0.13993 0.5576 0.72698 0.0
H830 H 0.15699 0.5422 0.69174 0.0
H831 H 0.18453 0.55377 0.72723 0.0
C832 C 0.75491 0.91911 0.10089 0.0
C833 C 0.73249 0.89271 0.10714 0.0
C834 C 0.77578 0.9202 0.07426 0.0
C835 C 0.77514 0.89398 0.05384 0.0
C836 C 0.75315 0.86706 0.06065 0.0
C837 C 0.73186 0.86691 0.08677 0.0
C838 C 0.79794 0.94965 0.06753 0.0
C839 C 0.75202 0.83829 0.04024 0.0
C840 C 0.79843 0.89716 0.96586 0.0
C841 C 0.83152 0.88864 0.96738 0.0
C842 C 0.7808 0.9008 0.9939 0.0
C843 C 0.79599 0.8948 0.02447 0.0
C844 C 0.82996 0.88721 0.02627 0.0
C845 C 0.84747 0.8846 0.99777 0.0
C846 C 0.74518 0.90981 0.99057 0.0
C847 C 0.84704 0.87995 0.05809 0.0
H848 H 0.75558 0.93918 0.11642 0.0
H849 H 0.71498 0.84627 0.09156 0.0
H850 H 0.82515 0.9459 0.06695 0.0
H851 H 0.79014 0.95771 0.04344 0.0
H852 H 0.79606 0.96788 0.08585 0.0
H853 H 0.7355 0.81868 0.05 0.0
H854 H 0.74203 0.8421 0.01536 0.0
H855 H 0.77828 0.83218 0.03867 0.0
H856 H 0.7859 0.90032 0.94249 0.0
H857 H 0.87277 0.8775 0.99912 0.0
H858 H 0.74275 0.92857 0.00804 0.0
H859 H 0.72608 0.89012 0.9961 0.0
H860 H 0.73867 0.91727 0.96587 0.0
H861 H 0.84551 0.89823 0.07637 0.0
H862 H 0.8744 0.8771 0.056 0.0
H863 H 0.83335 0.8585 0.0671 0.0
C864 C 0.17788 0.61403 0.97955 0.0
C865 C 0.17624 0.64413 0.97041 0.0
C866 C 0.19803 0.60777 0.00732 0.0
C867 C 0.2165 0.63222 0.02652 0.0
C868 C 0.21332 0.66262 0.01805 0.0
C869 C 0.19372 0.66812 0.98997 0.0
C870 C 0.20103 0.57506 0.0151 0.0
C871 C 0.23178 0.68948 0.03795 0.0
C872 C 0.25321 0.62227 0.11233 0.0
C873 C 0.28854 0.6246 0.10807 0.0
C874 C 0.22929 0.62363 0.08597 0.0
C875 C 0.24077 0.62654 0.05434 0.0
C876 C 0.27627 0.62721 0.0498 0.0
C877 C 0.29973 0.62676 0.07669 0.0
C878 C 0.19198 0.62372 0.09221 0.0
C879 C 0.2897 0.62953 0.01655 0.0
H880 H 0.16503 0.59544 0.96407 0.0
H881 H 0.19278 0.69143 0.98273 0.0
H882 H 0.22753 0.57045 0.01144 0.0
H883 H 0.19622 0.57087 0.04076 0.0
H884 H 0.18284 0.55872 0.99971 0.0
H885 H 0.22415 0.71151 0.02985 0.0
H886 H 0.22647 0.68687 0.06374 0.0
H887 H 0.25988 0.69043 0.0362 0.0
H888 H 0.24436 0.62095 0.13653 0.0
H889 H 0.32694 0.62846 0.07318 0.0
H890 H 0.17548 0.60683 0.07605 0.0
H891 H 0.18458 0.64651 0.08687 0.0
H892 H 0.18663 0.61854 0.11761 0.0
H893 H 0.27439 0.61238 0.99978 0.0
H894 H 0.3171 0.62606 0.01661 0.0
H895 H 0.28716 0.6524 0.00699 0.0
C896 C 0.66454 0.1405 0.49378 0.0
C897 C 0.6764 0.13381 0.46368 0.0
C898 C 0.68428 0.13677 0.52257 0.0
C899 C 0.71626 0.12547 0.52121 0.0
C900 C 0.72683 0.11646 0.49088 0.0
C901 C 0.70712 0.12122 0.46257 0.0
C902 C 0.67219 0.14723 0.55417 0.0
C903 C 0.76012 0.10356 0.48809 0.0
C904 C 0.78993 0.15244 0.58333 0.0
C905 C 0.78885 0.12807 0.60448 0.0
C906 C 0.76584 0.15218 0.55692 0.0
C907 C 0.74054 0.12642 0.55062 0.0
C908 C 0.73956 0.10153 0.57172 0.0
C909 C 0.76332 0.10289 0.59872 0.0
C910 C 0.76745 0.17963 0.53577 0.0
C911 C 0.71383 0.07326 0.56543 0.0
H912 H 0.64118 0.15083 0.49471 0.0
H913 H 0.71648 0.11616 0.43932 0.0
H914 H 0.67445 0.12989 0.57278 0.0
H915 H 0.68872 0.16846 0.56291 0.0
H916 H 0.64518 0.1519 0.55181 0.0
H917 H 0.7622 0.09356 0.46367 0.0
H918 H 0.782 0.12194 0.49307 0.0
H919 H 0.76259 0.08572 0.50614 0.0
H920 H 0.8092 0.1722 0.58792 0.0
H921 H 0.76232 0.084 0.615 0.0
H922 H 0.74213 0.18801 0.53385 0.0
H923 H 0.77357 0.17316 0.51108 0.0
H924 H 0.7871 0.19863 0.54515 0.0
H925 H 0.68739 0.07928 0.56458 0.0
H926 H 0.71618 0.05595 0.58413 0.0
H927 H 0.71749 0.06289 0.54156 0.0
C928 C 0.26087 0.41558 0.60783 0.0
C929 C 0.23199 0.39339 0.60948 0.0
C930 C 0.28215 0.41607 0.58152 0.0
C931 C 0.27485 0.39354 0.55634 0.0
C932 C 0.24583 0.37101 0.55806 0.0
C933 C 0.22476 0.37136 0.5843 0.0
C934 C 0.31233 0.44085 0.58053 0.0
C935 C 0.23707 0.34627 0.5322 0.0
C936 C 0.30585 0.40347 0.47106 0.0
C937 C 0.33377 0.38688 0.47171 0.0
C938 C 0.28794 0.40751 0.49891 0.0
C939 C 0.29708 0.39343 0.52796 0.0
C940 C 0.32581 0.37715 0.52885 0.0
C941 C 0.34407 0.37446 0.50088 0.0
C942 C 0.25833 0.42587 0.49683 0.0
C943 C 0.336 0.36095 0.55877 0.0
H944 H 0.26678 0.43273 0.62705 0.0
H945 H 0.2027 0.35397 0.58526 0.0
H946 H 0.33648 0.4306 0.5801 0.0
H947 H 0.31006 0.45382 0.55811 0.0
H948 H 0.31432 0.45702 0.60157 0.0
H949 H 0.21437 0.32981 0.53753 0.0
H950 H 0.23172 0.35657 0.50865 0.0
H951 H 0.25923 0.33356 0.52962 0.0
H952 H 0.29756 0.41284 0.44847 0.0
H953 H 0.36511 0.36099 0.5013 0.0
H954 H 0.26033 0.44242 0.51749 0.0
H955 H 0.23384 0.41044 0.4981 0.0
H956 H 0.25726 0.43853 0.47406 0.0
H957 H 0.33931 0.37688 0.58001 0.0
H958 H 0.36016 0.35097 0.5564 0.0
H959 H 0.31528 0.34232 0.56361 0.0
C960 C 0.0428 0.7112 0.86681 0.0
C961 C 0.07204 0.7176 0.88815 0.0
C962 C 0.01574 0.72918 0.86702 0.0
C963 C 0.0176 0.75425 0.88921 0.0
C964 C 0.04702 0.76073 0.91087 0.0
C965 C 0.07375 0.74249 0.91003 0.0
C966 C 0.98514 0.72138 0.84333 0.0
C967 C 0.05029 0.78704 0.93503 0.0
C968 C 0.9637 0.81868 0.87096 0.0
C969 C 0.93576 0.81178 0.89031 0.0
C970 C 0.99019 0.80018 0.87024 0.0
C971 C 0.98913 0.77397 0.88946 0.0
C972 C 0.96099 0.76687 0.90908 0.0
C973 C 0.93472 0.78572 0.90921 0.0
C974 C 0.01941 0.80873 0.84884 0.0
C975 C 0.95867 0.73933 0.93008 0.0
H976 H 0.04105 0.6921 0.84979 0.0
H977 H 0.09606 0.74771 0.92672 0.0
H978 H 0.96137 0.71673 0.85646 0.0
H979 H 0.98229 0.74107 0.82776 0.0
H980 H 0.98737 0.70116 0.82772 0.0
H981 H 0.07444 0.78889 0.95057 0.0
H982 H 0.04959 0.80876 0.92229 0.0
H983 H 0.02827 0.78429 0.95066 0.0
H984 H 0.96489 0.83864 0.85615 0.0
H985 H 0.91336 0.78006 0.92426 0.0
H986 H 0.02115 0.78968 0.83151 0.0
H987 H 0.04405 0.81275 0.86361 0.0
H988 H 0.01639 0.82956 0.83506 0.0
H989 H 0.95859 0.71834 0.915 0.0
H990 H 0.93524 0.7368 0.94393 0.0
H991 H 0.98149 0.74112 0.9473 0.0
C992 C 0.08226 0.30372 0.68238 0.0
C993 C 0.07989 0.32834 0.70364 0.0
C994 C 0.05667 0.27799 0.67986 0.0
C995 C 0.02747 0.27705 0.69841 0.0
C996 C 0.02412 0.30263 0.71853 0.0
C997 C 0.05049 0.32763 0.72125 0.0
C998 C 0.06183 0.25113 0.65864 0.0
C999 C 0.99313 0.3032 0.73809 0.0
C1000 C 0.94652 0.2196 0.67895 0.0
C1001 C 0.94832 0.19894 0.70403 0.0
C1002 C 0.97244 0.24462 0.67618 0.0
C1003 C 1.00143 0.24879 0.69854 0.0
C1004 C 1.00432 0.22689 0.72268 0.0
C1005 C 0.97761 0.20262 0.72543 0.0
C1006 C 0.96776 0.26758 0.6505 0.0
C1007 C 0.03508 0.22973 0.7465 0.0
H1008 H 0.10507 0.30379 0.66903 0.0
H1009 H 0.04837 0.3465 0.73772 0.0
H1010 H 0.06567 0.23142 0.67389 0.0
H1011 H 0.03872 0.24408 0.6423 0.0
H1012 H 0.08438 0.25623 0.64387 0.0
H1013 H 0.9927 0.32583 0.75 0.0
H1014 H 0.96923 0.29736 0.72245 0.0
H1015 H 0.99306 0.28582 0.75695 0.0
H1016 H 0.9238 0.21731 0.6626 0.0
H1017 H 0.97928 0.18684 0.74489 0.0
H1018 H 0.99114 0.27214 0.63683 0.0
H1019 H 0.96365 0.28951 0.66206 0.0
H1020 H 0.9455 0.25982 0.63328 0.0
H1021 H 0.05914 0.23331 0.73367 0.0
H1022 H 0.03533 0.20922 0.76145 0.0
H1023 H 0.03496 0.24989 0.76277 0.0
C1024 C 0.57462 0.24073 0.41091 0.0
C1025 C 0.57247 0.21632 0.3884 0.0
C1026 C 0.54822 0.25931 0.41234 0.0
C1027 C 0.51872 0.25359 0.39067 0.0
C1028 C 0.51643 0.22897 0.36787 0.0
C1029 C 0.54316 0.21071 0.36705 0.0
C1030 C 0.55194 0.28515 0.43709 0.0
C1031 C 0.48571 0.22196 0.34418 0.0
C1032 C 0.43614 0.28507 0.41149 0.0
C1033 C 0.43728 0.31142 0.39305 0.0
C1034 C 0.46235 0.26619 0.41105 0.0
C1035 C 0.49055 0.27356 0.39156 0.0
C1036 C 0.49176 0.30011 0.37285 0.0
C1037 C 0.46532 0.31864 0.37388 0.0
C1038 C 0.45987 0.23827 0.4315 0.0
C1039 C 0.52105 0.30896 0.3516 0.0
H1040 H 0.597 0.24535 0.4276 0.0
H1041 H 0.54108 0.19197 0.34953 0.0
H1042 H 0.55148 0.30716 0.42488 0.0
H1043 H 0.52999 0.28229 0.4528 0.0
H1044 H 0.57613 0.28645 0.4525 0.0
H1045 H 0.48759 0.20201 0.32806 0.0
H1046 H 0.46196 0.21727 0.35733 0.0
H1047 H 0.4831 0.24204 0.32912 0.0
H1048 H 0.41472 0.27918 0.42641 0.0
H1049 H 0.4666 0.33884 0.35943 0.0
H1050 H 0.48279 0.23958 0.44856 0.0
H1051 H 0.45944 0.21752 0.41598 0.0
H1052 H 0.43655 0.23569 0.4455 0.0
H1053 H 0.54571 0.31239 0.36637 0.0
H1054 H 0.51831 0.33019 0.33844 0.0
H1055 H 0.52253 0.29028 0.33374 0.0
C1056 C 0.68185 0.55915 0.67073 0.0
C1057 C 0.66003 0.58118 0.67571 0.0
C1058 C 0.68195 0.53365 0.69063 0.0
C1059 C 0.66038 0.53033 0.71686 0.0
C1060 C 0.63873 0.55283 0.72232 0.0
C1061 C 0.63847 0.57765 0.70149 0.0
C1062 C 0.70485 0.51001 0.68326 0.0
C1063 C 0.616 0.55085 0.75039 0.0
C1064 C 0.63723 0.45131 0.75239 0.0
C1065 C 0.66189 0.45164 0.77823 0.0
C1066 C 0.63661 0.47654 0.73217 0.0
C1067 C 0.66046 0.50333 0.73847 0.0
C1068 C 0.68475 0.50406 0.76518 0.0
C1069 C 0.68558 0.4781 0.78428 0.0
C1070 C 0.61095 0.4742 0.7035 0.0
C1071 C 0.70994 0.53231 0.77361 0.0
H1072 H 0.69845 0.56151 0.6508 0.0
H1073 H 0.62166 0.5946 0.7057 0.0
H1074 H 0.72352 0.50841 0.70398 0.0
H1075 H 0.68924 0.48725 0.67956 0.0
H1076 H 0.71926 0.51532 0.66144 0.0
H1077 H 0.60163 0.5707 0.75212 0.0
H1078 H 0.5973 0.52971 0.74799 0.0
H1079 H 0.63172 0.54961 0.77325 0.0
H1080 H 0.61908 0.43087 0.74729 0.0
H1081 H 0.70465 0.47861 0.80425 0.0
H1082 H 0.62461 0.47774 0.681 0.0
H1083 H 0.59424 0.49234 0.70523 0.0
H1084 H 0.59449 0.45171 0.70154 0.0
H1085 H 0.72736 0.53715 0.7538 0.0
H1086 H 0.7257 0.52997 0.79624 0.0
H1087 H 0.69604 0.55232 0.7764 0.0
C1088 C 0.35523 0.05011 0.76068 0.0
C1089 C 0.36365 0.05203 0.79406 0.0
C1090 C 0.35649 0.02325 0.74242 0.0
C1091 C 0.36543 0.99694 0.75783 0.0
C1092 C 0.37375 0.99853 0.79165 0.0
C1093 C 0.37329 0.02621 0.80929 0.0
C1094 C 0.3483 0.02316 0.70644 0.0
C1095 C 0.38252 0.97086 0.80924 0.0
C1096 C 0.33349 0.92339 0.70896 0.0
C1097 C 0.36318 0.91718 0.6945 0.0
C1098 C 0.33435 0.9481 0.7311 0.0
C1099 C 0.36541 0.96792 0.73824 0.0
C1100 C 0.39559 0.96149 0.72396 0.0
C1101 C 0.39422 0.93596 0.70274 0.0
C1102 C 0.30173 0.95339 0.7463 0.0
C1103 C 0.42903 0.98238 0.72993 0.0
H1104 H 0.34811 0.06998 0.74851 0.0
H1105 H 0.37975 0.02743 0.83503 0.0
H1106 H 0.36973 0.01578 0.69349 0.0
H1107 H 0.3251 1.00663 0.69979 0.0
H1108 H 0.3437 0.04596 0.69785 0.0
H1109 H 0.38803 0.97561 0.83551 0.0
H1110 H 0.36088 0.95203 0.80571 0.0
H1111 H 0.40521 0.96272 0.79919 0.0
H1112 H 0.30948 0.90877 0.70306 0.0
H1113 H 0.41725 0.93138 0.69162 0.0
H1114 H 0.29279 0.97436 0.73671 0.0
H1115 H 0.30651 0.95692 0.77277 0.0
H1116 H 0.28089 0.93402 0.74144 0.0
H1117 H 0.42634 1.00512 0.72006 0.0
H1118 H 0.45058 0.9734 0.71854 0.0
H1119 H 0.43562 0.98576 0.75617 0.0
C1120 C 0.45256 0.2049 0.86713 0.0
C1121 C 0.44453 0.18596 0.83942 0.0
C1122 C 0.48154 0.22755 0.8694 0.0
C1123 C 0.50341 0.23141 0.84347 0.0
C1124 C 0.49536 0.2124 0.8154 0.0
C1125 C 0.46607 0.19009 0.81367 0.0
C1126 C 0.48887 0.24728 0.89972 0.0
C1127 C 0.51797 0.21538 0.78725 0.0
C1128 C 0.56683 0.30471 0.83669 0.0
C1129 C 0.59787 0.29572 0.84885 0.0
C1130 C 0.5358 0.28436 0.83539 0.0
C1131 C 0.53563 0.25412 0.84629 0.0
C1132 C 0.56667 0.2452 0.85926 0.0
C1133 C 0.59713 0.26597 0.86049 0.0
C1134 C 0.50329 0.29501 0.8217 0.0
C1135 C 0.56797 0.2133 0.87113 0.0
H1136 H 0.43604 0.20216 0.8871 0.0
H1137 H 0.46013 0.17574 0.7921 0.0
H1138 H 0.51383 0.24352 0.91163 0.0
H1139 H 0.49097 0.27174 0.89364 0.0
H1140 H 0.46866 0.24241 0.91715 0.0
H1141 H 0.50784 0.19947 0.76686 0.0
H1142 H 0.52046 0.23906 0.77853 0.0
H1143 H 0.54411 0.21068 0.79506 0.0
H1144 H 0.56684 0.32748 0.82755 0.0
H1145 H 0.62069 0.25848 0.87002 0.0
H1146 H 0.48296 0.29114 0.8391 0.0
H1147 H 0.49383 0.28154 0.79941 0.0
H1148 H 0.50716 0.31958 0.81588 0.0
H1149 H 0.54939 0.20812 0.88994 0.0
H1150 H 0.5939 0.21008 0.8813 0.0
H1151 H 0.56046 0.19647 0.85096 0.0
C1152 C 0.36803 0.54446 0.22455 0.0
C1153 C 0.36789 0.57428 0.23667 0.0
C1154 C 0.36714 0.51948 0.24534 0.0
C1155 C 0.36688 0.52439 0.27921 0.0
C1156 C 0.36892 0.55473 0.29157 0.0
C1157 C 0.36893 0.57913 0.27023 0.0
C1158 C 0.36436 0.48763 0.23087 0.0
C1159 C 0.36949 0.56138 0.32737 0.0
C1160 C 0.32038 0.46248 0.32983 0.0
C1161 C 0.34724 0.44822 0.34388 0.0
C1162 C 0.32651 0.48675 0.30862 0.0
C1163 C 0.36053 0.49787 0.30135 0.0
C1164 C 0.38793 0.48394 0.31568 0.0
C1165 C 0.38097 0.45914 0.33644 0.0
C1166 C 0.29632 0.50035 0.29373 0.0
C1167 C 0.42462 0.49534 0.30917 0.0
H1168 H 0.36693 0.5404 0.19868 0.0
H1169 H 0.36899 0.60207 0.27989 0.0
H1170 H 0.38354 0.47482 0.24301 0.0
H1171 H 0.3386 0.47515 0.23466 0.0
H1172 H 0.36813 0.48769 0.20459 0.0
H1173 H 0.3756 0.58617 0.33338 0.0
H1174 H 0.34405 0.55304 0.33633 0.0
H1175 H 0.38867 0.54918 0.34044 0.0
H1176 H 0.29413 0.45426 0.33488 0.0
H1177 H 0.40199 0.44841 0.34697 0.0
H1178 H 0.29652 0.4992 0.26705 0.0
H1179 H 0.29825 0.52478 0.30113 0.0
H1180 H 0.27136 0.48846 0.30088 0.0
H1181 H 0.42826 0.49336 0.283 0.0
H1182 H 0.4431 0.48251 0.32244 0.0
H1183 H 0.43069 0.51987 0.31628 0.0
C1184 C 0.68952 0.06694 0.3208 0.0
C1185 C 0.66275 0.08237 0.33066 0.0
C1186 C 0.68377 0.04284 0.29774 0.0
C1187 C 0.65022 0.03323 0.28399 0.0
C1188 C 0.62295 0.04865 0.29359 0.0
C1189 C 0.62953 0.07311 0.31662 0.0
C1190 C 0.71381 0.0274 0.28831 0.0
C1191 C 0.58675 0.03903 0.27985 0.0
C1192 C 0.64955 0.98298 0.20769 0.0
C1193 C 0.64775 0.95387 0.22076 0.0
C1194 C 0.648 0.00906 0.22755 0.0
C1195 C 0.64409 1.00589 0.26117 0.0
C1196 C 0.63938 0.97619 0.27373 0.0
C1197 C 0.64161 0.95073 0.25353 0.0
C1198 C 0.65329 0.04016 0.21301 0.0
C1199 C 0.63459 0.97136 0.30912 0.0
H1200 H 0.71543 0.07383 0.33098 0.0
H1201 H 0.60861 0.0848 0.32379 0.0
H1202 H 0.70997 1.00317 0.29532 0.0
H1203 H 0.71561 0.02766 0.26178 0.0
H1204 H 0.73858 0.03854 0.29993 0.0
H1205 H 0.56859 0.05401 0.28862 0.0
H1206 H 0.58586 0.03935 0.25313 0.0
H1207 H 0.57794 0.01524 0.28658 0.0
H1208 H 0.65467 0.98565 0.18249 0.0
H1209 H 0.64 0.92831 0.2638 0.0
H1210 H 0.67946 0.05163 0.22043 0.0
H1211 H 0.63478 0.05466 0.22191 0.0
H1212 H 0.65052 0.03875 0.18624 0.0
H1213 H 0.65919 0.97888 0.32318 0.0
H1214 H 0.62625 0.94702 0.3142 0.0
H1215 H 0.61535 0.98521 0.3178 0.0
C1216 C 0.58554 0.79687 0.22851 0.0
C1217 C 0.5881 0.82078 0.20669 0.0
C1218 C 0.55841 0.77263 0.22554 0.0
C1219 C 0.53221 0.77247 0.20066 0.0
C1220 C 0.53501 0.79622 0.17801 0.0
C1221 C 0.5632 0.81983 0.18099 0.0
C1222 C 0.55727 0.74762 0.24981 0.0
C1223 C 0.50739 0.79749 0.15157 0.0
C1224 C 0.4688 0.69847 0.18722 0.0
C1225 C 0.44347 0.70352 0.20829 0.0
C1226 C 0.49754 0.7209 0.18374 0.0
C1227 C 0.50043 0.74936 0.20091 0.0
C1228 C 0.47391 0.75491 0.22089 0.0
C1229 C 0.44625 0.73192 0.22465 0.0
C1230 C 0.52547 0.71366 0.16276 0.0
C1231 C 0.47512 0.78497 0.23909 0.0
H1232 H 0.60497 0.7971 0.24814 0.0
H1233 H 0.565 0.83817 0.16401 0.0
H1234 H 0.53584 0.7492 0.26563 0.0
H1235 H 0.55249 0.7249 0.23734 0.0
H1236 H 0.58147 0.74904 0.26523 0.0
H1237 H 0.51468 0.81564 0.1342 0.0
H1238 H 0.50167 0.77525 0.13824 0.0
H1239 H 0.48341 0.80199 0.16236 0.0
H1240 H 0.46682 0.67665 0.17446 0.0
H1241 H 0.42649 0.73628 0.24053 0.0
H1242 H 0.54924 0.71229 0.17805 0.0
H1243 H 0.5315 0.73212 0.1455 0.0
H1244 H 0.51831 0.69169 0.14904 0.0
H1245 H 0.4965 0.78744 0.25795 0.0
H1246 H 0.45091 0.78689 0.25089 0.0
H1247 H 0.48004 0.80423 0.22254 0.0
loop_
_geom_bond_atom_site_label_1
_geom_bond_atom_site_label_2
_geom_bond_distance
_geom_bond_site_symmetry_2
_ccdc_geom_bond_type
Co0 O1 2.216 . S
Co0 O2 2.091 . S
Co0 O4 2.004 . S
Co0 O10 2.021 . S
Co0 O12 2.137 . S
Co0 O13 2.244 . S
O1 Co0 2.216 . S
O1 C8 1.247 . S
O2 Co0 2.091 . S
O2 C8 1.261 . S
C3 O12 1.247 . S
C3 O13 1.272 . S
O4 Co0 2.004 . S
O4 C9 1.259 . S
Co5 O6 2.061 . S
Co5 O11 2.052 . S
Co5 O13 2.135 . S
O6 Co5 2.061 . S
O6 C9 1.235 . S
C7 O10 1.238 . S
C7 O11 1.241 . S
C8 O1 1.247 . S
C8 O2 1.261 . S
C9 O4 1.259 . S
C9 O6 1.235 . S
O10 Co0 2.021 . S
O10 C7 1.238 . S
O11 Co5 2.052 . S
O11 C7 1.241 . S
O12 Co0 2.137 . S
O12 C3 1.247 . S
O13 Co0 2.244 . S
O13 C3 1.272 . S
O13 Co5 2.135 . S
Co14 O15 2.216 . S
Co14 O16 2.091 . S
Co14 O18 2.004 . S
Co14 O24 2.021 . S
Co14 O26 2.137 . S
Co14 O27 2.244 . S
O15 Co14 2.216 . S
O15 C22 1.247 . S
O16 Co14 2.091 . S
O16 C22 1.261 . S
C17 O26 1.247 . S
C17 O27 1.272 . S
O18 Co14 2.004 . S
O18 C23 1.259 . S
Co19 O20 2.061 . S
Co19 O25 2.052 . S
Co19 O27 2.135 . S
O20 Co19 2.061 . S
O20 C23 1.235 . S
C21 O24 1.238 . S
C21 O25 1.241 . S
C22 O15 1.247 . S
C22 O16 1.261 . S
C23 O18 1.259 . S
C23 O20 1.235 . S
O24 Co14 2.021 . S
O24 C21 1.238 . S
O25 Co19 2.052 . S
O25 C21 1.241 . S
O26 Co14 2.137 . S
O26 C17 1.247 . S
O27 Co14 2.244 . S
O27 C17 1.272 . S
O27 Co19 2.135 . S
Co28 O29 2.216 . S
Co28 O30 2.091 . S
Co28 O32 2.004 . S
Co28 O38 2.021 . S
Co28 O40 2.137 . S
Co28 O41 2.244 . S
O29 Co28 2.216 . S
O29 C36 1.247 . S
O30 Co28 2.091 . S
O30 C36 1.261 . S
C31 O40 1.247 . S
C31 O41 1.272 . S
O32 Co28 2.004 . S
O32 C37 1.259 . S
Co33 O34 2.061 . S
Co33 O39 2.052 . S
Co33 O41 2.135 . S
O34 Co33 2.061 . S
O34 C37 1.235 . S
C35 O38 1.238 . S
C35 O39 1.241 . S
C36 O29 1.247 . S
C36 O30 1.261 . S
C37 O32 1.259 . S
C37 O34 1.235 . S
O38 Co28 2.021 . S
O38 C35 1.238 . S
O39 Co33 2.052 . S
O39 C35 1.241 . S
O40 Co28 2.137 . S
O40 C31 1.247 . S
O41 Co28 2.244 . S
O41 C31 1.272 . S
O41 Co33 2.135 . S
Co42 O43 2.216 . S
Co42 O44 2.091 . S
Co42 O46 2.004 . S
Co42 O52 2.021 . S
Co42 O54 2.137 . S
Co42 O55 2.244 . S
O43 Co42 2.216 . S
O43 C50 1.247 . S
O44 Co42 2.091 . S
O44 C50 1.261 . S
C45 O54 1.247 . S
C45 O55 1.272 . S
O46 Co42 2.004 . S
O46 C51 1.259 . S
Co47 O48 2.061 . S
Co47 O53 2.052 . S
Co47 O55 2.135 . S
O48 Co47 2.061 . S
O48 C51 1.235 . S
C49 O52 1.238 . S
C49 O53 1.241 . S
C50 O43 1.247 . S
C50 O44 1.261 . S
C51 O46 1.259 . S
C51 O48 1.235 . S
O52 Co42 2.021 . S
O52 C49 1.238 . S
O53 Co47 2.052 . S
O53 C49 1.241 . S
O54 Co42 2.137 . S
O54 C45 1.247 . S
O55 Co42 2.244 . S
O55 C45 1.272 . S
O55 Co47 2.135 . S
Co56 O57 2.216 . S
Co56 O58 2.091 . S
Co56 O60 2.004 . S
Co56 O66 2.021 . S
Co56 O68 2.137 . S
Co56 O69 2.244 . S
O57 Co56 2.216 . S
O57 C64 1.247 . S
O58 Co56 2.091 . S
O58 C64 1.261 . S
C59 O68 1.247 . S
C59 O69 1.272 . S
O60 Co56 2.004 . S
O60 C65 1.259 . S
Co61 O62 2.061 . S
Co61 O67 2.052 . S
Co61 O69 2.135 . S
O62 Co61 2.061 . S
O62 C65 1.235 . S
C63 O66 1.238 . S
C63 O67 1.241 . S
C64 O57 1.247 . S
C64 O58 1.261 . S
C65 O60 1.259 . S
C65 O62 1.235 . S
O66 Co56 2.021 . S
O66 C63 1.238 . S
O67 Co61 2.052 . S
O67 C63 1.241 . S
O68 Co56 2.137 . S
O68 C59 1.247 . S
O69 Co56 2.244 . S
O69 C59 1.272 . S
O69 Co61 2.135 . S
Co70 O71 2.216 . S
Co70 O72 2.091 . S
Co70 O74 2.004 . S
Co70 O80 2.021 . S
Co70 O82 2.137 . S
Co70 O83 2.244 . S
O71 Co70 2.216 . S
O71 C78 1.247 . S
O72 Co70 2.091 . S
O72 C78 1.261 . S
C73 O82 1.247 . S
C73 O83 1.272 . S
O74 Co70 2.004 . S
O74 C79 1.259 . S
Co75 O76 2.061 . S
Co75 O81 2.052 . S
Co75 O83 2.135 . S
O76 Co75 2.061 . S
O76 C79 1.235 . S
C77 O80 1.238 . S
C77 O81 1.241 . S
C78 O71 1.247 . S
C78 O72 1.261 . S
C79 O74 1.259 . S
C79 O76 1.235 . S
O80 Co70 2.021 . S
O80 C77 1.238 . S
O81 Co75 2.052 . S
O81 C77 1.241 . S
O82 Co70 2.137 . S
O82 C73 1.247 . S
O83 Co70 2.244 . S
O83 C73 1.272 . S
O83 Co75 2.135 . S
Co84 O85 2.216 . S
Co84 O86 2.091 . S
Co84 O88 2.004 . S
Co84 O94 2.021 . S
Co84 O96 2.137 . S
Co84 O97 2.244 . S
O85 Co84 2.216 . S
O85 C92 1.247 . S
O86 Co84 2.091 . S
O86 C92 1.261 . S
C87 O96 1.247 . S
C87 O97 1.272 . S
O88 Co84 2.004 . S
O88 C93 1.259 . S
Co89 O90 2.061 . S
Co89 O95 2.052 . S
Co89 O97 2.135 . S
O90 Co89 2.061 . S
O90 C93 1.235 . S
C91 O94 1.238 . S
C91 O95 1.241 . S
C92 O85 1.247 . S
C92 O86 1.261 . S
C93 O88 1.259 . S
C93 O90 1.235 . S
O94 Co84 2.021 . S
O94 C91 1.238 . S
O95 Co89 2.052 . S
O95 C91 1.241 . S
O96 Co84 2.137 . S
O96 C87 1.247 . S
O97 Co84 2.244 . S
O97 C87 1.272 . S
O97 Co89 2.135 . S
Co98 O99 2.216 . S
Co98 O100 2.091 . S
Co98 O102 2.004 . S
Co98 O108 2.021 . S
Co98 O110 2.137 . S
Co98 O111 2.244 . S
O99 Co98 2.216 . S
O99 C106 1.247 . S
O100 Co98 2.091 . S
O100 C106 1.261 . S
C101 O110 1.247 . S
C101 O111 1.272 . S
O102 Co98 2.004 . S
O102 C107 1.259 . S
Co103 O104 2.061 . S
Co103 O109 2.052 . S
Co103 O111 2.135 . S
O104 Co103 2.061 . S
O104 C107 1.235 . S
C105 O108 1.238 . S
C105 O109 1.241 . S
C106 O99 1.247 . S
C106 O100 1.261 . S
C107 O102 1.259 . S
C107 O104 1.235 . S
O108 Co98 2.021 . S
O108 C105 1.238 . S
O109 Co103 2.052 . S
O109 C105 1.241 . S
O110 Co98 2.137 . S
O110 C101 1.247 . S
O111 Co98 2.244 . S
O111 C101 1.272 . S
O111 Co103 2.135 . S
Co112 O113 2.216 . S
Co112 O114 2.091 . S
Co112 O116 2.004 . S
Co112 O122 2.021 . S
Co112 O124 2.137 . S
Co112 O125 2.244 . S
O113 Co112 2.216 . S
O113 C120 1.247 . S
O114 Co112 2.091 . S
O114 C120 1.261 . S
C115 O124 1.247 . S
C115 O125 1.272 . S
O116 Co112 2.004 . S
O116 C121 1.259 . S
Co117 O118 2.061 . S
Co117 O123 2.052 . S
Co117 O125 2.135 . S
O118 Co117 2.061 . S
O118 C121 1.235 . S
C119 O122 1.238 . S
C119 O123 1.241 . S
C120 O113 1.247 . S
C120 O114 1.261 . S
C121 O116 1.259 . S
C121 O118 1.235 . S
O122 Co112 2.021 . S
O122 C119 1.238 . S
O123 Co117 2.052 . S
O123 C119 1.241 . S
O124 Co112 2.137 . S
O124 C115 1.247 . S
O125 Co112 2.244 . S
O125 C115 1.272 . S
O125 Co117 2.135 . S
Co126 O127 2.216 . S
Co126 O128 2.091 . S
Co126 O130 2.004 . S
Co126 O136 2.021 . S
Co126 O138 2.137 . S
Co126 O139 2.244 . S
O127 Co126 2.216 . S
O127 C134 1.247 . S
O128 Co126 2.091 . S
O128 C134 1.261 . S
C129 O138 1.247 . S
C129 O139 1.272 . S
O130 Co126 2.004 . S
O130 C135 1.259 . S
Co131 O132 2.061 . S
Co131 O137 2.052 . S
Co131 O139 2.135 . S
O132 Co131 2.061 . S
O132 C135 1.235 . S
C133 O136 1.238 . S
C133 O137 1.241 . S
C134 O127 1.247 . S
C134 O128 1.261 . S
C135 O130 1.259 . S
C135 O132 1.235 . S
O136 Co126 2.021 . S
O136 C133 1.238 . S
O137 Co131 2.052 . S
O137 C133 1.241 . S
O138 Co126 2.137 . S
O138 C129 1.247 . S
O139 Co126 2.244 . S
O139 C129 1.272 . S
O139 Co131 2.135 . S
Co140 O141 2.216 . S
Co140 O142 2.091 . S
Co140 O144 2.004 . S
Co140 O150 2.021 . S
Co140 O152 2.137 . S
Co140 O153 2.244 . S
O141 Co140 2.216 . S
O141 C148 1.247 . S
O142 Co140 2.091 . S
O142 C148 1.261 . S
C143 O152 1.247 . S
C143 O153 1.272 . S
O144 Co140 2.004 . S
O144 C149 1.259 . S
Co145 O146 2.061 . S
Co145 O151 2.052 . S
Co145 O153 2.135 . S
O146 Co145 2.061 . S
O146 C149 1.235 . S
C147 O150 1.238 . S
C147 O151 1.241 . S
C148 O141 1.247 . S
C148 O142 1.261 . S
C149 O144 1.259 . S
C149 O146 1.235 . S
O150 Co140 2.021 . S
O150 C147 1.238 . S
O151 Co145 2.052 . S
O151 C147 1.241 . S
O152 Co140 2.137 . S
O152 C143 1.247 . S
O153 Co140 2.244 . S
O153 C143 1.272 . S
O153 Co145 2.135 . S
Co154 O155 2.216 . S
Co154 O156 2.091 . S
Co154 O158 2.004 . S
Co154 O164 2.021 . S
Co154 O166 2.137 . S
Co154 O167 2.244 . S
O155 Co154 2.216 . S
O155 C162 1.247 . S
O156 Co154 2.091 . S
O156 C162 1.261 . S
C157 O166 1.247 . S
C157 O167 1.272 . S
O158 Co154 2.004 . S
O158 C163 1.259 . S
Co159 O160 2.061 . S
Co159 O165 2.052 . S
Co159 O167 2.135 . S
O160 Co159 2.061 . S
O160 C163 1.235 . S
C161 O164 1.238 . S
C161 O165 1.241 . S
C162 O155 1.247 . S
C162 O156 1.261 . S
C163 O158 1.259 . S
C163 O160 1.235 . S
O164 Co154 2.021 . S
O164 C161 1.238 . S
O165 Co159 2.052 . S
O165 C161 1.241 . S
O166 Co154 2.137 . S
O166 C157 1.247 . S
O167 Co154 2.244 . S
O167 C157 1.272 . S
O167 Co159 2.135 . S
Co168 O169 2.216 . S
Co168 O170 2.091 . S
Co168 O172 2.004 . S
Co168 O178 2.021 . S
Co168 O180 2.137 . S
Co168 O181 2.244 . S
O169 Co168 2.216 . S
O169 C176 1.247 . S
O170 Co168 2.091 . S
O170 C176 1.261 . S
C171 O180 1.247 . S
C171 O181 1.272 . S
O172 Co168 2.004 . S
O172 C177 1.259 . S
Co173 O174 2.061 . S
Co173 O179 2.052 . S
Co173 O181 2.135 . S
O174 Co173 2.061 . S
O174 C177 1.235 . S
C175 O178 1.238 . S
C175 O179 1.241 . S
C176 O169 1.247 . S
C176 O170 1.261 . S
C177 O172 1.259 . S
C177 O174 1.235 . S
O178 Co168 2.021 . S
O178 C175 1.238 . S
O179 Co173 2.052 . S
O179 C175 1.241 . S
O180 Co168 2.137 . S
O180 C171 1.247 . S
O181 Co168 2.244 . S
O181 C171 1.272 . S
O181 Co173 2.135 . S
Co182 O183 2.216 . S
Co182 O184 2.091 . S
Co182 O186 2.004 . S
Co182 O192 2.021 . S
Co182 O194 2.137 . S
Co182 O195 2.244 . S
O183 Co182 2.216 . S
O183 C190 1.247 . S
O184 Co182 2.091 . S
O184 C190 1.261 . S
C185 O194 1.247 . S
C185 O195 1.272 . S
O186 Co182 2.004 . S
O186 C191 1.259 . S
Co187 O188 2.061 . S
Co187 O193 2.052 . S
Co187 O195 2.135 . S
O188 Co187 2.061 . S
O188 C191 1.235 . S
C189 O192 1.238 . S
C189 O193 1.241 . S
C190 O183 1.247 . S
C190 O184 1.261 . S
C191 O186 1.259 . S
C191 O188 1.235 . S
O192 Co182 2.021 . S
O192 C189 1.238 . S
O193 Co187 2.052 . S
O193 C189 1.241 . S
O194 Co182 2.137 . S
O194 C185 1.247 . S
O195 Co182 2.244 . S
O195 C185 1.272 . S
O195 Co187 2.135 . S
Co196 O197 2.216 . S
Co196 O198 2.091 . S
Co196 O200 2.004 . S
Co196 O206 2.021 . S
Co196 O208 2.137 . S
Co196 O209 2.244 . S
O197 Co196 2.216 . S
O197 C204 1.247 . S
O198 Co196 2.091 . S
O198 C204 1.261 . S
C199 O208 1.247 . S
C199 O209 1.272 . S
O200 Co196 2.004 . S
O200 C205 1.259 . S
Co201 O202 2.061 . S
Co201 O207 2.052 . S
Co201 O209 2.135 . S
O202 Co201 2.061 . S
O202 C205 1.235 . S
C203 O206 1.238 . S
C203 O207 1.241 . S
C204 O197 1.247 . S
C204 O198 1.261 . S
C205 O200 1.259 . S
C205 O202 1.235 . S
O206 Co196 2.021 . S
O206 C203 1.238 . S
O207 Co201 2.052 . S
O207 C203 1.241 . S
O208 Co196 2.137 . S
O208 C199 1.247 . S
O209 Co196 2.244 . S
O209 C199 1.272 . S
O209 Co201 2.135 . S
Co210 O211 2.216 . S
Co210 O212 2.091 . S
Co210 O214 2.004 . S
Co210 O220 2.021 . S
Co210 O222 2.137 . S
Co210 O223 2.244 . S
O211 Co210 2.216 . S
O211 C218 1.247 . S
O212 Co210 2.091 . S
O212 C218 1.261 . S
C213 O222 1.247 . S
C213 O223 1.272 . S
O214 Co210 2.004 . S
O214 C219 1.259 . S
Co215 O216 2.061 . S
Co215 O221 2.052 . S
Co215 O223 2.135 . S
O216 Co215 2.061 . S
O216 C219 1.235 . S
C217 O220 1.238 . S
C217 O221 1.241 . S
C218 O211 1.247 . S
C218 O212 1.261 . S
C219 O214 1.259 . S
C219 O216 1.235 . S
O220 Co210 2.021 . S
O220 C217 1.238 . S
O221 Co215 2.052 . S
O221 C217 1.241 . S
O222 Co210 2.137 . S
O222 C213 1.247 . S
O223 Co210 2.244 . S
O223 C213 1.272 . S
O223 Co215 2.135 . S
C224 C225 1.391 . S
C224 C226 1.394 . S
C224 H240 0.931 . S
C225 C224 1.391 . S
C225 C229 1.376 . S
C226 C224 1.394 . S
C226 C227 1.369 . S
C226 C230 1.531 . S
C227 C226 1.369 . S
C227 C228 1.410 . S
C227 C235 1.503 . S
C228 C227 1.410 . S
C228 C229 1.392 . S
C228 C231 1.511 . S
C229 C225 1.376 . S
C229 C228 1.392 . S
C229 H241 0.929 . S
C230 C226 1.531 . S
C230 H242 0.960 . S
C230 H243 0.962 . S
C230 H244 0.960 . S
C231 C228 1.511 . S
C231 H245 0.961 . S
C231 H246 0.961 . S
C231 H247 0.961 . S
C232 C233 1.370 . S
C232 C234 1.363 . S
C232 H248 0.931 . S
C233 C232 1.370 . S
C233 C237 1.408 . S
C234 C232 1.363 . S
C234 C235 1.370 . S
C234 C238 1.524 . S
C235 C227 1.503 . S
C235 C234 1.370 . S
C235 C236 1.403 . S
C236 C235 1.403 . S
C236 C237 1.404 . S
C236 C239 1.539 . S
C237 C233 1.408 . S
C237 C236 1.404 . S
C237 H249 0.930 . S
C238 C234 1.524 . S
C238 H250 0.956 . S
C238 H251 0.961 . S
C238 H252 0.961 . S
C239 C236 1.539 . S
C239 H253 0.958 . S
C239 H254 0.961 . S
C239 H255 0.960 . S
H240 C224 0.931 . S
H241 C229 0.929 . S
H242 C230 0.960 . S
H243 C230 0.962 . S
H244 C230 0.960 . S
H245 C231 0.961 . S
H246 C231 0.961 . S
H247 C231 0.961 . S
H248 C232 0.931 . S
H249 C237 0.930 . S
H250 C238 0.956 . S
H251 C238 0.961 . S
H252 C238 0.961 . S
H253 C239 0.958 . S
H254 C239 0.961 . S
H255 C239 0.960 . S
C256 C257 1.391 . S
C256 C258 1.394 . S
C256 H272 0.931 . S
C257 C256 1.391 . S
C257 C261 1.376 . S
C258 C256 1.394 . S
C258 C259 1.369 . S
C258 C262 1.531 . S
C259 C258 1.369 . S
C259 C260 1.410 . S
C259 C267 1.503 . S
C260 C259 1.410 . S
C260 C261 1.392 . S
C260 C263 1.511 . S
C261 C257 1.376 . S
C261 C260 1.392 . S
C261 H273 0.929 . S
C262 C258 1.531 . S
C262 H274 0.960 . S
C262 H275 0.962 . S
C262 H276 0.960 . S
C263 C260 1.511 . S
C263 H277 0.961 . S
C263 H278 0.961 . S
C263 H279 0.961 . S
C264 C265 1.370 . S
C264 C266 1.363 . S
C264 H280 0.931 . S
C265 C264 1.370 . S
C265 C269 1.408 . S
C266 C264 1.363 . S
C266 C267 1.370 . S
C266 C270 1.524 . S
C267 C259 1.503 . S
C267 C266 1.370 . S
C267 C268 1.403 . S
C268 C267 1.403 . S
C268 C269 1.404 . S
C268 C271 1.539 . S
C269 C265 1.408 . S
C269 C268 1.404 . S
C269 H281 0.930 . S
C270 C266 1.524 . S
C270 H282 0.956 . S
C270 H283 0.961 . S
C270 H284 0.961 . S
C271 C268 1.539 . S
C271 H285 0.958 . S
C271 H286 0.961 . S
C271 H287 0.960 . S
H272 C256 0.931 . S
H273 C261 0.929 . S
H274 C262 0.960 . S
H275 C262 0.962 . S
H276 C262 0.960 . S
H277 C263 0.961 . S
H278 C263 0.961 . S
H279 C263 0.961 . S
H280 C264 0.931 . S
H281 C269 0.930 . S
H282 C270 0.956 . S
H283 C270 0.961 . S
H284 C270 0.961 . S
H285 C271 0.958 . S
H286 C271 0.961 . S
H287 C271 0.960 . S
C288 C289 1.391 . S
C288 C290 1.394 . S
C288 H304 0.931 . S
C289 C288 1.391 . S
C289 C293 1.376 . S
C290 C288 1.394 . S
C290 C291 1.369 . S
C290 C294 1.531 . S
C291 C290 1.369 . S
C291 C292 1.410 . S
C291 C299 1.503 . S
C292 C291 1.410 . S
C292 C293 1.392 . S
C292 C295 1.511 . S
C293 C289 1.376 . S
C293 C292 1.392 . S
C293 H305 0.929 . S
C294 C290 1.531 . S
C294 H306 0.960 . S
C294 H307 0.962 . S
C294 H308 0.960 . S
C295 C292 1.511 . S
C295 H309 0.961 . S
C295 H310 0.961 . S
C295 H311 0.961 . S
C296 C297 1.370 . S
C296 C298 1.363 . S
C296 H312 0.931 . S
C297 C296 1.370 . S
C297 C301 1.408 . S
C298 C296 1.363 . S
C298 C299 1.370 . S
C298 C302 1.524 . S
C299 C291 1.503 . S
C299 C298 1.370 . S
C299 C300 1.403 . S
C300 C299 1.403 . S
C300 C301 1.404 . S
C300 C303 1.539 . S
C301 C297 1.408 . S
C301 C300 1.404 . S
C301 H313 0.930 . S
C302 C298 1.524 . S
C302 H314 0.956 . S
C302 H315 0.961 . S
C302 H316 0.961 . S
C303 C300 1.539 . S
C303 H317 0.958 . S
C303 H318 0.961 . S
C303 H319 0.960 . S
H304 C288 0.931 . S
H305 C293 0.929 . S
H306 C294 0.960 . S
H307 C294 0.962 . S
H308 C294 0.960 . S
H309 C295 0.961 . S
H310 C295 0.961 . S
H311 C295 0.961 . S
H312 C296 0.931 . S
H313 C301 0.930 . S
H314 C302 0.956 . S
H315 C302 0.961 . S
H316 C302 0.961 . S
H317 C303 0.958 . S
H318 C303 0.961 . S
H319 C303 0.960 . S
C320 C321 1.391 . S
C320 C322 1.394 . S
C320 H336 0.931 . S
C321 C320 1.391 . S
C321 C325 1.376 . S
C322 C320 1.394 . S
C322 C323 1.369 . S
C322 C326 1.531 . S
C323 C322 1.369 . S
C323 C324 1.410 . S
C323 C331 1.503 . S
C324 C323 1.410 . S
C324 C325 1.392 . S
C324 C327 1.511 . S
C325 C321 1.376 . S
C325 C324 1.392 . S
C325 H337 0.929 . S
C326 C322 1.531 . S
C326 H338 0.960 . S
C326 H339 0.962 . S
C326 H340 0.960 . S
C327 C324 1.511 . S
C327 H341 0.961 . S
C327 H342 0.961 . S
C327 H343 0.961 . S
C328 C329 1.370 . S
C328 C330 1.363 . S
C328 H344 0.931 . S
C329 C328 1.370 . S
C329 C333 1.408 . S
C330 C328 1.363 . S
C330 C331 1.370 . S
C330 C334 1.524 . S
C331 C323 1.503 . S
C331 C330 1.370 . S
C331 C332 1.403 . S
C332 C331 1.403 . S
C332 C333 1.404 . S
C332 C335 1.539 . S
C333 C329 1.408 . S
C333 C332 1.404 . S
C333 H345 0.930 . S
C334 C330 1.524 . S
C334 H346 0.956 . S
C334 H347 0.961 . S
C334 H348 0.961 . S
C335 C332 1.539 . S
C335 H349 0.958 . S
C335 H350 0.961 . S
C335 H351 0.960 . S
H336 C320 0.931 . S
H337 C325 0.929 . S
H338 C326 0.960 . S
H339 C326 0.962 . S
H340 C326 0.960 . S
H341 C327 0.961 . S
H342 C327 0.961 . S
H343 C327 0.961 . S
H344 C328 0.931 . S
H345 C333 0.930 . S
H346 C334 0.956 . S
H347 C334 0.961 . S
H348 C334 0.961 . S
H349 C335 0.958 . S
H350 C335 0.961 . S
H351 C335 0.960 . S
C352 C353 1.391 . S
C352 C354 1.394 . S
C352 H368 0.931 . S
C353 C352 1.391 . S
C353 C357 1.376 . S
C354 C352 1.394 . S
C354 C355 1.369 . S
C354 C358 1.531 . S
C355 C354 1.369 . S
C355 C356 1.410 . S
C355 C363 1.503 . S
C356 C355 1.410 . S
C356 C357 1.392 . S
C356 C359 1.511 . S
C357 C353 1.376 . S
C357 C356 1.392 . S
C357 H369 0.929 . S
C358 C354 1.531 . S
C358 H370 0.960 . S
C358 H371 0.962 . S
C358 H372 0.960 . S
C359 C356 1.511 . S
C359 H373 0.961 . S
C359 H374 0.961 . S
C359 H375 0.961 . S
C360 C361 1.370 . S
C360 C362 1.363 . S
C360 H376 0.931 . S
C361 C360 1.370 . S
C361 C365 1.408 . S
C362 C360 1.363 . S
C362 C363 1.370 . S
C362 C366 1.524 . S
C363 C355 1.503 . S
C363 C362 1.370 . S
C363 C364 1.403 . S
C364 C363 1.403 . S
C364 C365 1.404 . S
C364 C367 1.539 . S
C365 C361 1.408 . S
C365 C364 1.404 . S
C365 H377 0.930 . S
C366 C362 1.524 . S
C366 H378 0.956 . S
C366 H379 0.961 . S
C366 H380 0.961 . S
C367 C364 1.539 . S
C367 H381 0.958 . S
C367 H382 0.961 . S
C367 H383 0.960 . S
H368 C352 0.931 . S
H369 C357 0.929 . S
H370 C358 0.960 . S
H371 C358 0.962 . S
H372 C358 0.960 . S
H373 C359 0.961 . S
H374 C359 0.961 . S
H375 C359 0.961 . S
H376 C360 0.931 . S
H377 C365 0.930 . S
H378 C366 0.956 . S
H379 C366 0.961 . S
H380 C366 0.961 . S
H381 C367 0.958 . S
H382 C367 0.961 . S
H383 C367 0.960 . S
C384 C385 1.391 . S
C384 C386 1.394 . S
C384 H400 0.931 . S
C385 C384 1.391 . S
C385 C389 1.376 . S
C386 C384 1.394 . S
C386 C387 1.369 . S
C386 C390 1.531 . S
C387 C386 1.369 . S
C387 C388 1.410 . S
C387 C395 1.503 . S
C388 C387 1.410 . S
C388 C389 1.392 . S
C388 C391 1.511 . S
C389 C385 1.376 . S
C389 C388 1.392 . S
C389 H401 0.929 . S
C390 C386 1.531 . S
C390 H402 0.960 . S
C390 H403 0.962 . S
C390 H404 0.960 . S
C391 C388 1.511 . S
C391 H405 0.961 . S
C391 H406 0.961 . S
C391 H407 0.961 . S
C392 C393 1.370 . S
C392 C394 1.363 . S
C392 H408 0.931 . S
C393 C392 1.370 . S
C393 C397 1.408 . S
C394 C392 1.363 . S
C394 C395 1.370 . S
C394 C398 1.524 . S
C395 C387 1.503 . S
C395 C394 1.370 . S
C395 C396 1.403 . S
C396 C395 1.403 . S
C396 C397 1.404 . S
C396 C399 1.539 . S
C397 C393 1.408 . S
C397 C396 1.404 . S
C397 H409 0.930 . S
C398 C394 1.524 . S
C398 H410 0.956 . S
C398 H411 0.961 . S
C398 H412 0.961 . S
C399 C396 1.539 . S
C399 H413 0.958 . S
C399 H414 0.961 . S
C399 H415 0.960 . S
H400 C384 0.931 . S
H401 C389 0.929 . S
H402 C390 0.960 . S
H403 C390 0.962 . S
H404 C390 0.960 . S
H405 C391 0.961 . S
H406 C391 0.961 . S
H407 C391 0.961 . S
H408 C392 0.931 . S
H409 C397 0.930 . S
H410 C398 0.956 . S
H411 C398 0.961 . S
H412 C398 0.961 . S
H413 C399 0.958 . S
H414 C399 0.961 . S
H415 C399 0.960 . S
C416 C417 1.391 . S
C416 C418 1.394 . S
C416 H432 0.931 . S
C417 C416 1.391 . S
C417 C421 1.376 . S
C418 C416 1.394 . S
C418 C419 1.369 . S
C418 C422 1.531 . S
C419 C418 1.369 . S
C419 C420 1.410 . S
C419 C427 1.503 . S
C420 C419 1.410 . S
C420 C421 1.392 . S
C420 C423 1.511 . S
C421 C417 1.376 . S
C421 C420 1.392 . S
C421 H433 0.929 . S
C422 C418 1.531 . S
C422 H434 0.960 . S
C422 H435 0.962 . S
C422 H436 0.960 . S
C423 C420 1.511 . S
C423 H437 0.961 . S
C423 H438 0.961 . S
C423 H439 0.961 . S
C424 C425 1.370 . S
C424 C426 1.363 . S
C424 H440 0.931 . S
C425 C424 1.370 . S
C425 C429 1.408 . S
C426 C424 1.363 . S
C426 C427 1.370 . S
C426 C430 1.524 . S
C427 C419 1.503 . S
C427 C426 1.370 . S
C427 C428 1.403 . S
C428 C427 1.403 . S
C428 C429 1.404 . S
C428 C431 1.539 . S
C429 C425 1.408 . S
C429 C428 1.404 . S
C429 H441 0.930 . S
C430 C426 1.524 . S
C430 H442 0.956 . S
C430 H443 0.961 . S
C430 H444 0.961 . S
C431 C428 1.539 . S
C431 H445 0.958 . S
C431 H446 0.961 . S
C431 H447 0.960 . S
H432 C416 0.931 . S
H433 C421 0.929 . S
H434 C422 0.960 . S
H435 C422 0.962 . S
H436 C422 0.960 . S
H437 C423 0.961 . S
H438 C423 0.961 . S
H439 C423 0.961 . S
H440 C424 0.931 . S
H441 C429 0.930 . S
H442 C430 0.956 . S
H443 C430 0.961 . S
H444 C430 0.961 . S
H445 C431 0.958 . S
H446 C431 0.961 . S
H447 C431 0.960 . S
C448 C449 1.391 . S
C448 C450 1.394 . S
C448 H464 0.931 . S
C449 C448 1.391 . S
C449 C453 1.376 . S
C450 C448 1.394 . S
C450 C451 1.369 . S
C450 C454 1.531 . S
C451 C450 1.369 . S
C451 C452 1.410 . S
C451 C459 1.503 . S
C452 C451 1.410 . S
C452 C453 1.392 . S
C452 C455 1.511 . S
C453 C449 1.376 . S
C453 C452 1.392 . S
C453 H465 0.929 . S
C454 C450 1.531 . S
C454 H466 0.960 . S
C454 H467 0.962 . S
C454 H468 0.960 . S
C455 C452 1.511 . S
C455 H469 0.961 . S
C455 H470 0.961 . S
C455 H471 0.961 . S
C456 C457 1.370 . S
C456 C458 1.363 . S
C456 H472 0.931 . S
C457 C456 1.370 . S
C457 C461 1.408 . S
C458 C456 1.363 . S
C458 C459 1.370 . S
C458 C462 1.524 . S
C459 C451 1.503 . S
C459 C458 1.370 . S
C459 C460 1.403 . S
C460 C459 1.403 . S
C460 C461 1.404 . S
C460 C463 1.539 . S
C461 C457 1.408 . S
C461 C460 1.404 . S
C461 H473 0.930 . S
C462 C458 1.524 . S
C462 H474 0.956 . S
C462 H475 0.961 . S
C462 H476 0.961 . S
C463 C460 1.539 . S
C463 H477 0.958 . S
C463 H478 0.961 . S
C463 H479 0.960 . S
H464 C448 0.931 . S
H465 C453 0.929 . S
H466 C454 0.960 . S
H467 C454 0.962 . S
H468 C454 0.960 . S
H469 C455 0.961 . S
H470 C455 0.961 . S
H471 C455 0.961 . S
H472 C456 0.931 . S
H473 C461 0.930 . S
H474 C462 0.956 . S
H475 C462 0.961 . S
H476 C462 0.961 . S
H477 C463 0.958 . S
H478 C463 0.961 . S
H479 C463 0.960 . S
C480 C481 1.391 . S
C480 C482 1.394 . S
C480 H496 0.931 . S
C481 C480 1.391 . S
C481 C485 1.376 . S
C482 C480 1.394 . S
C482 C483 1.369 . S
C482 C486 1.531 . S
C483 C482 1.369 . S
C483 C484 1.410 . S
C483 C491 1.503 1_565 S
C484 C483 1.410 . S
C484 C485 1.392 . S
C484 C487 1.505 1_565 S
C485 C481 1.376 . S
C485 C484 1.392 . S
C485 H497 0.929 . S
C486 C482 1.531 . S
C486 H498 0.960 1_565 S
C486 H499 0.962 . S
C486 H500 0.960 . S
C487 C484 1.505 1_545 S
C487 H501 0.950 1_545 S
C487 H502 0.968 . S
C487 H503 0.970 . S
C488 C489 1.370 . S
C488 C490 1.363 . S
C488 H504 0.931 . S
C489 C488 1.370 . S
C489 C493 1.408 . S
C490 C488 1.363 . S
C490 C491 1.370 . S
C490 C494 1.524 1_545 S
C491 C483 1.503 1_545 S
C491 C490 1.370 . S
C491 C492 1.403 . S
C492 C491 1.403 . S
C492 C493 1.404 . S
C492 C495 1.539 . S
C493 C489 1.408 . S
C493 C492 1.404 . S
C493 H505 0.930 . S
C494 C490 1.524 1_565 S
C494 H506 0.956 . S
C494 H507 0.961 . S
C494 H508 0.961 . S
C495 C492 1.539 . S
C495 H509 0.958 . S
C495 H510 0.961 . S
C495 H511 0.960 . S
H496 C480 0.931 . S
H497 C485 0.929 . S
H498 C486 0.960 1_545 S
H499 C486 0.962 . S
H500 C486 0.960 . S
H501 C487 0.950 1_565 S
H502 C487 0.968 . S
H503 C487 0.970 . S
H504 C488 0.931 . S
H505 C493 0.930 . S
H506 C494 0.956 . S
H507 C494 0.961 . S
H508 C494 0.961 . S
H509 C495 0.958 . S
H510 C495 0.961 . S
H511 C495 0.960 . S
C512 C513 1.391 . S
C512 C514 1.394 . S
C512 H528 0.931 . S
C513 C512 1.391 . S
C513 C517 1.376 . S
C514 C512 1.394 . S
C514 C515 1.369 . S
C514 C518 1.531 . S
C515 C514 1.369 . S
C515 C516 1.410 . S
C515 C523 1.503 . S
C516 C515 1.410 . S
C516 C517 1.392 . S
C516 C519 1.511 . S
C517 C513 1.376 . S
C517 C516 1.392 . S
C517 H529 0.929 . S
C518 C514 1.531 . S
C518 H530 0.960 . S
C518 H531 0.962 . S
C518 H532 0.960 . S
C519 C516 1.511 . S
C519 H533 0.961 . S
C519 H534 0.961 . S
C519 H535 0.961 . S
C520 C521 1.370 . S
C520 C522 1.363 . S
C520 H536 0.931 . S
C521 C520 1.370 . S
C521 C525 1.408 . S
C522 C520 1.363 . S
C522 C523 1.370 . S
C522 C526 1.524 . S
C523 C515 1.503 . S
C523 C522 1.370 . S
C523 C524 1.403 . S
C524 C523 1.403 . S
C524 C525 1.404 . S
C524 C527 1.539 . S
C525 C521 1.408 . S
C525 C524 1.404 . S
C525 H537 0.930 . S
C526 C522 1.524 . S
C526 H538 0.956 . S
C526 H539 0.961 . S
C526 H540 0.961 . S
C527 C524 1.539 . S
C527 H541 0.958 . S
C527 H542 0.961 . S
C527 H543 0.960 . S
H528 C512 0.931 . S
H529 C517 0.929 . S
H530 C518 0.960 . S
H531 C518 0.962 . S
H532 C518 0.960 . S
H533 C519 0.961 . S
H534 C519 0.961 . S
H535 C519 0.961 . S
H536 C520 0.931 . S
H537 C525 0.930 . S
H538 C526 0.956 . S
H539 C526 0.961 . S
H540 C526 0.961 . S
H541 C527 0.958 . S
H542 C527 0.961 . S
H543 C527 0.960 . S
C544 C545 1.391 . S
C544 C546 1.394 . S
C544 H560 0.931 . S
C545 C544 1.391 . S
C545 C549 1.376 . S
C546 C544 1.394 . S
C546 C547 1.369 . S
C546 C550 1.531 . S
C547 C546 1.369 . S
C547 C548 1.410 . S
C547 C555 1.503 . S
C548 C547 1.410 . S
C548 C549 1.392 . S
C548 C551 1.511 . S
C549 C545 1.376 . S
C549 C548 1.392 . S
C549 H561 0.929 . S
C550 C546 1.531 . S
C550 H562 0.960 . S
C550 H563 0.962 . S
C550 H564 0.960 . S
C551 C548 1.511 . S
C551 H565 0.961 . S
C551 H566 0.961 . S
C551 H567 0.961 . S
C552 C553 1.370 . S
C552 C554 1.363 1_554 S
C552 H568 0.931 . S
C553 C552 1.370 . S
C553 C557 1.408 . S
C554 C552 1.363 1_556 S
C554 C555 1.370 . S
C554 C558 1.524 . S
C555 C547 1.503 . S
C555 C554 1.370 . S
C555 C556 1.403 1_556 S
C556 C555 1.403 1_554 S
C556 C557 1.404 . S
C556 C559 1.539 . S
C557 C553 1.408 . S
C557 C556 1.404 . S
C557 H569 0.930 . S
C558 C554 1.524 . S
C558 H570 0.956 . S
C558 H571 0.961 . S
C558 H572 0.961 . S
C559 C556 1.539 . S
C559 H573 0.958 . S
C559 H574 0.961 . S
C559 H575 0.960 . S
H560 C544 0.931 . S
H561 C549 0.929 . S
H562 C550 0.960 . S
H563 C550 0.962 . S
H564 C550 0.960 . S
H565 C551 0.961 . S
H566 C551 0.961 . S
H567 C551 0.961 . S
H568 C552 0.931 . S
H569 C557 0.930 . S
H570 C558 0.956 . S
H571 C558 0.961 . S
H572 C558 0.961 . S
H573 C559 0.958 . S
H574 C559 0.961 . S
H575 C559 0.960 . S
C576 C577 1.391 . S
C576 C578 1.394 . S
C576 H592 0.931 . S
C577 C576 1.391 . S
C577 C581 1.376 . S
C578 C576 1.394 . S
C578 C579 1.369 1_554 S
C578 C582 1.531 . S
C579 C578 1.369 1_556 S
C579 C580 1.410 . S
C579 C587 1.503 . S
C580 C579 1.410 . S
C580 C581 1.392 1_556 S
C580 C583 1.511 . S
C581 C577 1.376 . S
C581 C580 1.392 1_554 S
C581 H593 0.929 . S
C582 C578 1.531 . S
C582 H594 0.959 1_554 S
C582 H595 0.962 . S
C582 H596 0.961 . S
C583 C580 1.511 . S
C583 H597 0.961 . S
C583 H598 0.961 . S
C583 H599 0.961 . S
C584 C585 1.370 . S
C584 C586 1.363 . S
C584 H600 0.931 . S
C585 C584 1.370 . S
C585 C589 1.408 . S
C586 C584 1.363 . S
C586 C587 1.370 . S
C586 C590 1.524 . S
C587 C579 1.503 . S
C587 C586 1.370 . S
C587 C588 1.403 . S
C588 C587 1.403 . S
C588 C589 1.404 . S
C588 C591 1.539 . S
C589 C585 1.408 . S
C589 C588 1.404 . S
C589 H601 0.930 . S
C590 C586 1.524 . S
C590 H602 0.956 1_556 S
C590 H603 0.964 . S
C590 H604 0.961 . S
C591 C588 1.539 . S
C591 H605 0.958 . S
C591 H606 0.961 . S
C591 H607 0.960 . S
H592 C576 0.931 . S
H593 C581 0.929 . S
H594 C582 0.959 1_556 S
H595 C582 0.962 . S
H596 C582 0.961 . S
H597 C583 0.961 . S
H598 C583 0.961 . S
H599 C583 0.961 . S
H600 C584 0.931 . S
H601 C589 0.930 . S
H602 C590 0.956 1_554 S
H603 C590 0.964 . S
H604 C590 0.961 . S
H605 C591 0.958 . S
H606 C591 0.961 . S
H607 C591 0.960 . S
C608 C609 1.391 . S
C608 C610 1.394 . S
C608 H624 0.931 . S
C609 C608 1.391 . S
C609 C613 1.376 . S
C610 C608 1.394 . S
C610 C611 1.369 . S
C610 C614 1.531 . S
C611 C610 1.369 . S
C611 C612 1.410 . S
C611 C619 1.503 . S
C612 C611 1.410 . S
C612 C613 1.392 . S
C612 C615 1.511 . S
C613 C609 1.376 . S
C613 C612 1.392 . S
C613 H625 0.929 . S
C614 C610 1.531 . S
C614 H626 0.960 . S
C614 H627 0.962 . S
C614 H628 0.960 . S
C615 C612 1.511 . S
C615 H629 0.961 . S
C615 H630 0.961 . S
C615 H631 0.961 . S
C616 C617 1.370 . S
C616 C618 1.363 . S
C616 H632 0.931 . S
C617 C616 1.370 . S
C617 C621 1.408 . S
C618 C616 1.363 . S
C618 C619 1.370 . S
C618 C622 1.524 . S
C619 C611 1.503 . S
C619 C618 1.370 . S
C619 C620 1.403 . S
C620 C619 1.403 . S
C620 C621 1.404 . S
C620 C623 1.539 . S
C621 C617 1.408 . S
C621 C620 1.404 . S
C621 H633 0.930 . S
C622 C618 1.524 . S
C622 H634 0.956 . S
C622 H635 0.961 . S
C622 H636 0.961 . S
C623 C620 1.539 . S
C623 H637 0.958 . S
C623 H638 0.961 . S
C623 H639 0.960 . S
H624 C608 0.931 . S
H625 C613 0.929 . S
H626 C614 0.960 . S
H627 C614 0.962 . S
H628 C614 0.960 . S
H629 C615 0.961 . S
H630 C615 0.961 . S
H631 C615 0.961 . S
H632 C616 0.931 . S
H633 C621 0.930 . S
H634 C622 0.956 . S
H635 C622 0.961 . S
H636 C622 0.961 . S
H637 C623 0.958 . S
H638 C623 0.961 . S
H639 C623 0.960 . S
C640 C641 1.391 . S
C640 C642 1.394 . S
C640 H656 0.931 . S
C641 C640 1.391 . S
C641 C645 1.376 . S
C642 C640 1.394 . S
C642 C643 1.369 . S
C642 C646 1.531 . S
C643 C642 1.369 . S
C643 C644 1.410 . S
C643 C651 1.503 . S
C644 C643 1.410 . S
C644 C645 1.392 . S
C644 C647 1.511 . S
C645 C641 1.376 . S
C645 C644 1.392 . S
C645 H657 0.929 . S
C646 C642 1.531 . S
C646 H658 0.960 . S
C646 H659 0.962 . S
C646 H660 0.960 . S
C647 C644 1.511 . S
C647 H661 0.961 . S
C647 H662 0.961 . S
C647 H663 0.961 . S
C648 C649 1.370 . S
C648 C650 1.363 . S
C648 H664 0.931 . S
C649 C648 1.370 . S
C649 C653 1.408 . S
C650 C648 1.363 . S
C650 C651 1.370 . S
C650 C654 1.524 . S
C651 C643 1.503 . S
C651 C650 1.370 . S
C651 C652 1.403 . S
C652 C651 1.403 . S
C652 C653 1.404 . S
C652 C655 1.539 . S
C653 C649 1.408 . S
C653 C652 1.404 . S
C653 H665 0.930 . S
C654 C650 1.524 . S
C654 H666 0.956 . S
C654 H667 0.961 . S
C654 H668 0.961 . S
C655 C652 1.539 . S
C655 H669 0.958 . S
C655 H670 0.961 . S
C655 H671 0.960 . S
H656 C640 0.931 . S
H657 C645 0.929 . S
H658 C646 0.960 . S
H659 C646 0.962 . S
H660 C646 0.960 . S
H661 C647 0.961 . S
H662 C647 0.961 . S
H663 C647 0.961 . S
H664 C648 0.931 . S
H665 C653 0.930 . S
H666 C654 0.956 . S
H667 C654 0.961 . S
H668 C654 0.961 . S
H669 C655 0.958 . S
H670 C655 0.961 . S
H671 C655 0.960 . S
C672 C673 1.391 . S
C672 C674 1.394 . S
C672 H688 0.931 . S
C673 C672 1.391 . S
C673 C677 1.376 . S
C674 C672 1.394 . S
C674 C675 1.369 . S
C674 C678 1.531 . S
C675 C674 1.369 . S
C675 C676 1.410 . S
C675 C683 1.503 1_655 S
C676 C675 1.410 . S
C676 C677 1.392 . S
C676 C679 1.511 1_655 S
C677 C673 1.376 . S
C677 C676 1.392 . S
C677 H689 0.929 . S
C678 C674 1.531 . S
C678 H690 0.960 . S
C678 H691 0.962 . S
C678 H692 0.960 . S
C679 C676 1.511 1_455 S
C679 H693 0.961 . S
C679 H694 0.961 . S
C679 H695 0.961 . S
C680 C681 1.370 . S
C680 C682 1.363 . S
C680 H696 0.931 . S
C681 C680 1.370 . S
C681 C685 1.408 . S
C682 C680 1.363 . S
C682 C683 1.370 . S
C682 C686 1.524 1_455 S
C683 C675 1.503 1_455 S
C683 C682 1.370 . S
C683 C684 1.403 . S
C684 C683 1.403 . S
C684 C685 1.404 . S
C684 C687 1.539 . S
C685 C681 1.408 . S
C685 C684 1.404 . S
C685 H697 0.930 . S
C686 C682 1.524 1_655 S
C686 H698 0.956 . S
C686 H699 0.961 . S
C686 H700 0.964 . S
C687 C684 1.539 . S
C687 H701 0.958 . S
C687 H702 0.961 . S
C687 H703 0.960 . S
H688 C672 0.931 . S
H689 C677 0.929 . S
H690 C678 0.960 . S
H691 C678 0.962 . S
H692 C678 0.960 . S
H693 C679 0.961 . S
H694 C679 0.961 . S
H695 C679 0.961 . S
H696 C680 0.931 . S
H697 C685 0.930 . S
H698 C686 0.956 . S
H699 C686 0.961 . S
H700 C686 0.964 . S
H701 C687 0.958 . S
H702 C687 0.961 . S
H703 C687 0.960 . S
C704 C705 1.391 . S
C704 C706 1.394 . S
C704 H720 0.931 . S
C705 C704 1.391 . S
C705 C709 1.376 . S
C706 C704 1.394 . S
C706 C707 1.369 . S
C706 C710 1.531 1_655 S
C707 C706 1.369 . S
C707 C708 1.410 . S
C707 C715 1.503 1_655 S
C708 C707 1.410 . S
C708 C709 1.392 . S
C708 C711 1.511 . S
C709 C705 1.376 . S
C709 C708 1.392 . S
C709 H721 0.929 . S
C710 C706 1.531 1_455 S
C710 H722 0.960 . S
C710 H723 0.962 . S
C710 H724 0.960 . S
C711 C708 1.511 . S
C711 H725 0.961 . S
C711 H726 0.961 . S
C711 H727 0.961 . S
C712 C713 1.370 . S
C712 C714 1.363 . S
C712 H728 0.931 . S
C713 C712 1.370 . S
C713 C717 1.408 . S
C714 C712 1.363 . S
C714 C715 1.370 . S
C714 C718 1.524 . S
C715 C707 1.503 1_455 S
C715 C714 1.370 . S
C715 C716 1.403 . S
C716 C715 1.403 . S
C716 C717 1.404 . S
C716 C719 1.539 . S
C717 C713 1.408 . S
C717 C716 1.404 . S
C717 H729 0.930 . S
C718 C714 1.524 . S
C718 H730 0.956 . S
C718 H731 0.961 . S
C718 H732 0.961 . S
C719 C716 1.539 . S
C719 H733 0.958 . S
C719 H734 0.961 . S
C719 H735 0.960 1_455 S
H720 C704 0.931 . S
H721 C709 0.929 . S
H722 C710 0.960 . S
H723 C710 0.962 . S
H724 C710 0.960 . S
H725 C711 0.961 . S
H726 C711 0.961 . S
H727 C711 0.961 . S
H728 C712 0.931 . S
H729 C717 0.930 . S
H730 C718 0.956 . S
H731 C718 0.961 . S
H732 C718 0.961 . S
H733 C719 0.958 . S
H734 C719 0.961 . S
H735 C719 0.960 1_655 S
C736 C737 1.391 . S
C736 C738 1.394 . S
C736 H752 0.931 . S
C737 C736 1.391 . S
C737 C741 1.376 . S
C738 C736 1.394 . S
C738 C739 1.369 . S
C738 C742 1.531 . S
C739 C738 1.369 . S
C739 C740 1.410 . S
C739 C747 1.503 . S
C740 C739 1.410 . S
C740 C741 1.392 . S
C740 C743 1.511 . S
C741 C737 1.376 . S
C741 C740 1.392 . S
C741 H753 0.929 . S
C742 C738 1.531 . S
C742 H754 0.960 . S
C742 H755 0.962 . S
C742 H756 0.960 . S
C743 C740 1.511 . S
C743 H757 0.961 . S
C743 H758 0.961 . S
C743 H759 0.961 . S
C744 C745 1.370 . S
C744 C746 1.363 . S
C744 H760 0.931 . S
C745 C744 1.370 . S
C745 C749 1.408 . S
C746 C744 1.363 . S
C746 C747 1.370 . S
C746 C750 1.524 . S
C747 C739 1.503 . S
C747 C746 1.370 . S
C747 C748 1.403 . S
C748 C747 1.403 . S
C748 C749 1.404 . S
C748 C751 1.539 . S
C749 C745 1.408 . S
C749 C748 1.404 . S
C749 H761 0.930 . S
C750 C746 1.524 . S
C750 H762 0.956 . S
C750 H763 0.961 . S
C750 H764 0.961 . S
C751 C748 1.539 . S
C751 H765 0.958 . S
C751 H766 0.961 . S
C751 H767 0.960 . S
H752 C736 0.931 . S
H753 C741 0.929 . S
H754 C742 0.960 . S
H755 C742 0.962 . S
H756 C742 0.960 . S
H757 C743 0.961 . S
H758 C743 0.961 . S
H759 C743 0.961 . S
H760 C744 0.931 . S
H761 C749 0.930 . S
H762 C750 0.956 . S
H763 C750 0.961 . S
H764 C750 0.961 . S
H765 C751 0.958 . S
H766 C751 0.961 . S
H767 C751 0.960 . S
C768 C769 1.391 . S
C768 C770 1.394 . S
C768 H784 0.931 . S
C769 C768 1.391 . S
C769 C773 1.376 . S
C770 C768 1.394 . S
C770 C771 1.369 . S
C770 C774 1.531 1_545 S
C771 C770 1.369 . S
C771 C772 1.410 . S
C771 C779 1.503 1_545 S
C772 C771 1.410 . S
C772 C773 1.392 . S
C772 C775 1.511 . S
C773 C769 1.376 . S
C773 C772 1.392 . S
C773 H785 0.929 . S
C774 C770 1.531 1_565 S
C774 H786 0.960 . S
C774 H787 0.962 . S
C774 H788 0.960 . S
C775 C772 1.511 . S
C775 H789 0.961 . S
C775 H790 0.961 . S
C775 H791 0.961 . S
C776 C777 1.370 . S
C776 C778 1.363 . S
C776 H792 0.931 . S
C777 C776 1.370 . S
C777 C781 1.408 . S
C778 C776 1.363 . S
C778 C779 1.370 . S
C778 C782 1.524 1_565 S
C779 C771 1.503 1_565 S
C779 C778 1.370 . S
C779 C780 1.403 . S
C780 C779 1.403 . S
C780 C781 1.404 . S
C780 C783 1.539 . S
C781 C777 1.408 . S
C781 C780 1.404 . S
C781 H793 0.930 . S
C782 C778 1.524 1_545 S
C782 H794 0.956 . S
C782 H795 0.961 . S
C782 H796 0.965 . S
C783 C780 1.539 . S
C783 H797 0.958 . S
C783 H798 0.961 . S
C783 H799 0.960 1_565 S
H784 C768 0.931 . S
H785 C773 0.929 . S
H786 C774 0.960 . S
H787 C774 0.962 . S
H788 C774 0.960 . S
H789 C775 0.961 . S
H790 C775 0.961 . S
H791 C775 0.961 . S
H792 C776 0.931 . S
H793 C781 0.930 . S
H794 C782 0.956 . S
H795 C782 0.961 . S
H796 C782 0.965 . S
H797 C783 0.958 . S
H798 C783 0.961 . S
H799 C783 0.960 1_545 S
C800 C801 1.391 . S
C800 C802 1.394 . S
C800 H816 0.931 . S
C801 C800 1.391 . S
C801 C805 1.376 . S
C802 C800 1.394 . S
C802 C803 1.369 . S
C802 C806 1.531 . S
C803 C802 1.369 . S
C803 C804 1.410 . S
C803 C811 1.503 . S
C804 C803 1.410 . S
C804 C805 1.392 . S
C804 C807 1.511 . S
C805 C801 1.376 . S
C805 C804 1.392 . S
C805 H817 0.929 . S
C806 C802 1.531 . S
C806 H818 0.960 . S
C806 H819 0.962 . S
C806 H820 0.960 . S
C807 C804 1.511 . S
C807 H821 0.961 . S
C807 H822 0.961 . S
C807 H823 0.961 . S
C808 C809 1.370 . S
C808 C810 1.363 . S
C808 H824 0.931 . S
C809 C808 1.370 . S
C809 C813 1.408 . S
C810 C808 1.363 . S
C810 C811 1.370 . S
C810 C814 1.524 . S
C811 C803 1.503 . S
C811 C810 1.370 . S
C811 C812 1.403 . S
C812 C811 1.403 . S
C812 C813 1.404 . S
C812 C815 1.539 . S
C813 C809 1.408 . S
C813 C812 1.404 . S
C813 H825 0.930 . S
C814 C810 1.524 . S
C814 H826 0.956 . S
C814 H827 0.961 . S
C814 H828 0.961 . S
C815 C812 1.539 . S
C815 H829 0.958 . S
C815 H830 0.961 . S
C815 H831 0.960 . S
H816 C800 0.931 . S
H817 C805 0.929 . S
H818 C806 0.960 . S
H819 C806 0.962 . S
H820 C806 0.960 . S
H821 C807 0.961 . S
H822 C807 0.961 . S
H823 C807 0.961 . S
H824 C808 0.931 . S
H825 C813 0.930 . S
H826 C814 0.956 . S
H827 C814 0.961 . S
H828 C814 0.961 . S
H829 C815 0.958 . S
H830 C815 0.961 . S
H831 C815 0.960 . S
C832 C833 1.391 . S
C832 C834 1.394 . S
C832 H848 0.931 . S
C833 C832 1.391 . S
C833 C837 1.376 . S
C834 C832 1.394 . S
C834 C835 1.369 . S
C834 C838 1.531 . S
C835 C834 1.369 . S
C835 C836 1.410 . S
C835 C843 1.503 . S
C836 C835 1.410 . S
C836 C837 1.392 . S
C836 C839 1.511 . S
C837 C833 1.376 . S
C837 C836 1.392 . S
C837 H849 0.929 . S
C838 C834 1.531 . S
C838 H850 0.960 . S
C838 H851 0.962 . S
C838 H852 0.960 . S
C839 C836 1.511 . S
C839 H853 0.961 . S
C839 H854 0.961 . S
C839 H855 0.961 . S
C840 C841 1.370 . S
C840 C842 1.363 . S
C840 H856 0.931 . S
C841 C840 1.370 . S
C841 C845 1.408 . S
C842 C840 1.363 . S
C842 C843 1.370 1_556 S
C842 C846 1.524 . S
C843 C835 1.503 . S
C843 C842 1.370 1_554 S
C843 C844 1.403 . S
C844 C843 1.403 . S
C844 C845 1.404 1_554 S
C844 C847 1.539 . S
C845 C841 1.408 . S
C845 C844 1.404 1_556 S
C845 H857 0.930 . S
C846 C842 1.524 . S
C846 H858 0.956 . S
C846 H859 0.961 1_556 S
C846 H860 0.961 . S
C847 C844 1.539 . S
C847 H861 0.958 . S
C847 H862 0.961 . S
C847 H863 0.960 . S
H848 C832 0.931 . S
H849 C837 0.929 . S
H850 C838 0.960 . S
H851 C838 0.962 . S
H852 C838 0.960 . S
H853 C839 0.961 . S
H854 C839 0.961 . S
H855 C839 0.961 . S
H856 C840 0.931 . S
H857 C845 0.930 . S
H858 C846 0.956 . S
H859 C846 0.961 1_554 S
H860 C846 0.961 . S
H861 C847 0.958 . S
H862 C847 0.961 . S
H863 C847 0.960 . S
C864 C865 1.391 . S
C864 C866 1.394 . S
C864 H880 0.931 . S
C865 C864 1.391 . S
C865 C869 1.376 . S
C866 C864 1.394 . S
C866 C867 1.369 . S
C866 C870 1.531 1_556 S
C867 C866 1.369 . S
C867 C868 1.410 . S
C867 C875 1.503 1_556 S
C868 C867 1.410 . S
C868 C869 1.392 . S
C868 C871 1.511 . S
C869 C865 1.376 . S
C869 C868 1.392 . S
C869 H881 0.929 . S
C870 C866 1.531 1_554 S
C870 H882 0.960 . S
C870 H883 0.962 . S
C870 H884 0.960 . S
C871 C868 1.511 . S
C871 H885 0.961 . S
C871 H886 0.961 1_556 S
C871 H887 0.961 . S
C872 C873 1.370 . S
C872 C874 1.363 . S
C872 H888 0.931 . S
C873 C872 1.370 . S
C873 C877 1.408 . S
C874 C872 1.363 . S
C874 C875 1.370 . S
C874 C878 1.524 . S
C875 C867 1.503 1_554 S
C875 C874 1.370 . S
C875 C876 1.403 . S
C876 C875 1.403 . S
C876 C877 1.404 . S
C876 C879 1.539 . S
C877 C873 1.408 . S
C877 C876 1.404 . S
C877 H889 0.930 . S
C878 C874 1.524 . S
C878 H890 0.956 . S
C878 H891 0.961 . S
C878 H892 0.961 . S
C879 C876 1.539 . S
C879 H893 0.958 . S
C879 H894 0.961 . S
C879 H895 0.960 1_554 S
H880 C864 0.931 . S
H881 C869 0.929 . S
H882 C870 0.960 . S
H883 C870 0.962 . S
H884 C870 0.960 . S
H885 C871 0.961 . S
H886 C871 0.961 1_554 S
H887 C871 0.961 . S
H888 C872 0.931 . S
H889 C877 0.930 . S
H890 C878 0.956 . S
H891 C878 0.961 . S
H892 C878 0.961 . S
H893 C879 0.958 . S
H894 C879 0.961 . S
H895 C879 0.960 1_556 S
C896 C897 1.391 . S
C896 C898 1.394 . S
C896 H912 0.931 . S
C897 C896 1.391 . S
C897 C901 1.376 . S
C898 C896 1.394 . S
C898 C899 1.369 . S
C898 C902 1.531 . S
C899 C898 1.369 . S
C899 C900 1.410 . S
C899 C907 1.503 . S
C900 C899 1.410 . S
C900 C901 1.392 . S
C900 C903 1.511 . S
C901 C897 1.376 . S
C901 C900 1.392 . S
C901 H913 0.929 . S
C902 C898 1.531 . S
C902 H914 0.960 . S
C902 H915 0.962 . S
C902 H916 0.960 . S
C903 C900 1.511 . S
C903 H917 0.961 . S
C903 H918 0.961 . S
C903 H919 0.961 . S
C904 C905 1.370 . S
C904 C906 1.363 . S
C904 H920 0.931 . S
C905 C904 1.370 . S
C905 C909 1.408 . S
C906 C904 1.363 . S
C906 C907 1.370 . S
C906 C910 1.524 . S
C907 C899 1.503 . S
C907 C906 1.370 . S
C907 C908 1.403 . S
C908 C907 1.403 . S
C908 C909 1.404 . S
C908 C911 1.539 . S
C909 C905 1.408 . S
C909 C908 1.404 . S
C909 H921 0.930 . S
C910 C906 1.524 . S
C910 H922 0.956 . S
C910 H923 0.961 . S
C910 H924 0.961 . S
C911 C908 1.539 . S
C911 H925 0.958 . S
C911 H926 0.961 . S
C911 H927 0.960 . S
H912 C896 0.931 . S
H913 C901 0.929 . S
H914 C902 0.960 . S
H915 C902 0.962 . S
H916 C902 0.960 . S
H917 C903 0.961 . S
H918 C903 0.961 . S
H919 C903 0.961 . S
H920 C904 0.931 . S
H921 C909 0.930 . S
H922 C910 0.956 . S
H923 C910 0.961 . S
H924 C910 0.961 . S
H925 C911 0.958 . S
H926 C911 0.961 . S
H927 C911 0.960 . S
C928 C929 1.391 . S
C928 C930 1.394 . S
C928 H944 0.931 . S
C929 C928 1.391 . S
C929 C933 1.376 . S
C930 C928 1.394 . S
C930 C931 1.369 . S
C930 C934 1.531 . S
C931 C930 1.369 . S
C931 C932 1.410 . S
C931 C939 1.503 . S
C932 C931 1.410 . S
C932 C933 1.392 . S
C932 C935 1.511 . S
C933 C929 1.376 . S
C933 C932 1.392 . S
C933 H945 0.929 . S
C934 C930 1.531 . S
C934 H946 0.960 . S
C934 H947 0.962 . S
C934 H948 0.960 . S
C935 C932 1.511 . S
C935 H949 0.961 . S
C935 H950 0.961 . S
C935 H951 0.961 . S
C936 C937 1.370 . S
C936 C938 1.363 . S
C936 H952 0.931 . S
C937 C936 1.370 . S
C937 C941 1.408 . S
C938 C936 1.363 . S
C938 C939 1.370 . S
C938 C942 1.524 . S
C939 C931 1.503 . S
C939 C938 1.370 . S
C939 C940 1.403 . S
C940 C939 1.403 . S
C940 C941 1.404 . S
C940 C943 1.539 . S
C941 C937 1.408 . S
C941 C940 1.404 . S
C941 H953 0.930 . S
C942 C938 1.524 . S
C942 H954 0.956 . S
C942 H955 0.961 . S
C942 H956 0.961 . S
C943 C940 1.539 . S
C943 H957 0.958 . S
C943 H958 0.961 . S
C943 H959 0.960 . S
H944 C928 0.931 . S
H945 C933 0.929 . S
H946 C934 0.960 . S
H947 C934 0.962 . S
H948 C934 0.960 . S
H949 C935 0.961 . S
H950 C935 0.961 . S
H951 C935 0.961 . S
H952 C936 0.931 . S
H953 C941 0.930 . S
H954 C942 0.956 . S
H955 C942 0.961 . S
H956 C942 0.961 . S
H957 C943 0.958 . S
H958 C943 0.961 . S
H959 C943 0.960 . S
C960 C961 1.391 . S
C960 C962 1.394 . S
C960 H976 0.931 . S
C961 C960 1.391 . S
C961 C965 1.376 . S
C962 C960 1.394 . S
C962 C963 1.369 . S
C962 C966 1.531 . S
C963 C962 1.369 . S
C963 C964 1.410 . S
C963 C971 1.503 1_455 S
C964 C963 1.410 . S
C964 C965 1.392 . S
C964 C967 1.511 1_455 S
C965 C961 1.376 . S
C965 C964 1.392 . S
C965 H977 0.929 . S
C966 C962 1.531 . S
C966 H978 0.960 1_455 S
C966 H979 0.962 . S
C966 H980 0.960 . S
C967 C964 1.511 1_655 S
C967 H981 0.961 1_655 S
C967 H982 0.961 . S
C967 H983 0.961 . S
C968 C969 1.370 . S
C968 C970 1.363 . S
C968 H984 0.931 . S
C969 C968 1.370 . S
C969 C973 1.408 . S
C970 C968 1.363 . S
C970 C971 1.370 . S
C970 C974 1.524 1_655 S
C971 C963 1.503 1_655 S
C971 C970 1.370 . S
C971 C972 1.403 . S
C972 C971 1.403 . S
C972 C973 1.404 . S
C972 C975 1.539 . S
C973 C969 1.408 . S
C973 C972 1.404 . S
C973 H985 0.930 . S
C974 C970 1.524 1_455 S
C974 H986 0.956 . S
C974 H987 0.961 . S
C974 H988 0.961 . S
C975 C972 1.539 . S
C975 H989 0.958 . S
C975 H990 0.961 . S
C975 H991 0.960 . S
H976 C960 0.931 . S
H977 C965 0.929 . S
H978 C966 0.960 1_655 S
H979 C966 0.962 . S
H980 C966 0.960 . S
H981 C967 0.961 1_455 S
H982 C967 0.961 . S
H983 C967 0.961 . S
H984 C968 0.931 . S
H985 C973 0.930 . S
H986 C974 0.956 . S
H987 C974 0.961 . S
H988 C974 0.961 . S
H989 C975 0.958 . S
H990 C975 0.961 . S
H991 C975 0.960 . S
C992 C993 1.391 . S
C992 C994 1.394 . S
C992 H1008 0.931 . S
C993 C992 1.391 . S
C993 C997 1.376 . S
C994 C992 1.394 . S
C994 C995 1.369 . S
C994 C998 1.531 . S
C995 C994 1.369 . S
C995 C996 1.410 . S
C995 C1003 1.503 1_455 S
C996 C995 1.410 . S
C996 C997 1.392 . S
C996 C999 1.511 . S
C997 C993 1.376 . S
C997 C996 1.392 . S
C997 H1009 0.929 . S
C998 C994 1.531 . S
C998 H1010 0.960 . S
C998 H1011 0.962 . S
C998 H1012 0.960 . S
C999 C996 1.511 . S
C999 H1013 0.961 . S
C999 H1014 0.961 1_455 S
C999 H1015 0.961 . S
C1000 C1001 1.370 . S
C1000 C1002 1.363 . S
C1000 H1016 0.931 . S
C1001 C1000 1.370 . S
C1001 C1005 1.408 . S
C1002 C1000 1.363 . S
C1002 C1003 1.370 . S
C1002 C1006 1.524 . S
C1003 C995 1.503 1_655 S
C1003 C1002 1.370 . S
C1003 C1004 1.403 . S
C1004 C1003 1.403 . S
C1004 C1005 1.404 . S
C1004 C1007 1.539 1_655 S
C1005 C1001 1.408 . S
C1005 C1004 1.404 . S
C1005 H1017 0.930 . S
C1006 C1002 1.524 . S
C1006 H1018 0.956 . S
C1006 H1019 0.961 . S
C1006 H1020 0.961 . S
C1007 C1004 1.539 1_455 S
C1007 H1021 0.958 . S
C1007 H1022 0.961 . S
C1007 H1023 0.960 . S
H1008 C992 0.931 . S
H1009 C997 0.929 . S
H1010 C998 0.960 . S
H1011 C998 0.962 . S
H1012 C998 0.960 . S
H1013 C999 0.961 . S
H1014 C999 0.961 1_655 S
H1015 C999 0.961 . S
H1016 C1000 0.931 . S
H1017 C1005 0.930 . S
H1018 C1006 0.956 . S
H1019 C1006 0.961 . S
H1020 C1006 0.961 . S
H1021 C1007 0.958 . S
H1022 C1007 0.961 . S
H1023 C1007 0.960 . S
C1024 C1025 1.391 . S
C1024 C1026 1.394 . S
C1024 H1040 0.931 . S
C1025 C1024 1.391 . S
C1025 C1029 1.376 . S
C1026 C1024 1.394 . S
C1026 C1027 1.369 . S
C1026 C1030 1.531 . S
C1027 C1026 1.369 . S
C1027 C1028 1.410 . S
C1027 C1035 1.503 . S
C1028 C1027 1.410 . S
C1028 C1029 1.392 . S
C1028 C1031 1.511 . S
C1029 C1025 1.376 . S
C1029 C1028 1.392 . S
C1029 H1041 0.929 . S
C1030 C1026 1.531 . S
C1030 H1042 0.960 . S
C1030 H1043 0.962 . S
C1030 H1044 0.960 . S
C1031 C1028 1.511 . S
C1031 H1045 0.961 . S
C1031 H1046 0.961 . S
C1031 H1047 0.961 . S
C1032 C1033 1.370 . S
C1032 C1034 1.363 . S
C1032 H1048 0.931 . S
C1033 C1032 1.370 . S
C1033 C1037 1.408 . S
C1034 C1032 1.363 . S
C1034 C1035 1.370 . S
C1034 C1038 1.524 . S
C1035 C1027 1.503 . S
C1035 C1034 1.370 . S
C1035 C1036 1.403 . S
C1036 C1035 1.403 . S
C1036 C1037 1.404 . S
C1036 C1039 1.539 . S
C1037 C1033 1.408 . S
C1037 C1036 1.404 . S
C1037 H1049 0.930 . S
C1038 C1034 1.524 . S
C1038 H1050 0.956 . S
C1038 H1051 0.961 . S
C1038 H1052 0.961 . S
C1039 C1036 1.539 . S
C1039 H1053 0.958 . S
C1039 H1054 0.961 . S
C1039 H1055 0.960 . S
H1040 C1024 0.931 . S
H1041 C1029 0.929 . S
H1042 C1030 0.960 . S
H1043 C1030 0.962 . S
H1044 C1030 0.960 . S
H1045 C1031 0.961 . S
H1046 C1031 0.961 . S
H1047 C1031 0.961 . S
H1048 C1032 0.931 . S
H1049 C1037 0.930 . S
H1050 C1038 0.956 . S
H1051 C1038 0.961 . S
H1052 C1038 0.961 . S
H1053 C1039 0.958 . S
H1054 C1039 0.961 . S
H1055 C1039 0.960 . S
C1056 C1057 1.391 . S
C1056 C1058 1.394 . S
C1056 H1072 0.931 . S
C1057 C1056 1.391 . S
C1057 C1061 1.376 . S
C1058 C1056 1.394 . S
C1058 C1059 1.369 . S
C1058 C1062 1.531 . S
C1059 C1058 1.369 . S
C1059 C1060 1.410 . S
C1059 C1067 1.503 . S
C1060 C1059 1.410 . S
C1060 C1061 1.392 . S
C1060 C1063 1.511 . S
C1061 C1057 1.376 . S
C1061 C1060 1.392 . S
C1061 H1073 0.929 . S
C1062 C1058 1.531 . S
C1062 H1074 0.960 . S
C1062 H1075 0.962 . S
C1062 H1076 0.960 . S
C1063 C1060 1.511 . S
C1063 H1077 0.961 . S
C1063 H1078 0.961 . S
C1063 H1079 0.961 . S
C1064 C1065 1.370 . S
C1064 C1066 1.363 . S
C1064 H1080 0.931 . S
C1065 C1064 1.370 . S
C1065 C1069 1.408 . S
C1066 C1064 1.363 . S
C1066 C1067 1.370 . S
C1066 C1070 1.524 . S
C1067 C1059 1.503 . S
C1067 C1066 1.370 . S
C1067 C1068 1.403 . S
C1068 C1067 1.403 . S
C1068 C1069 1.404 . S
C1068 C1071 1.539 . S
C1069 C1065 1.408 . S
C1069 C1068 1.404 . S
C1069 H1081 0.930 . S
C1070 C1066 1.524 . S
C1070 H1082 0.956 . S
C1070 H1083 0.961 . S
C1070 H1084 0.961 . S
C1071 C1068 1.539 . S
C1071 H1085 0.958 . S
C1071 H1086 0.961 . S
C1071 H1087 0.960 . S
H1072 C1056 0.931 . S
H1073 C1061 0.929 . S
H1074 C1062 0.960 . S
H1075 C1062 0.962 . S
H1076 C1062 0.960 . S
H1077 C1063 0.961 . S
H1078 C1063 0.961 . S
H1079 C1063 0.961 . S
H1080 C1064 0.931 . S
H1081 C1069 0.930 . S
H1082 C1070 0.956 . S
H1083 C1070 0.961 . S
H1084 C1070 0.961 . S
H1085 C1071 0.958 . S
H1086 C1071 0.961 . S
H1087 C1071 0.960 . S
C1088 C1089 1.391 . S
C1088 C1090 1.394 . S
C1088 H1104 0.931 . S
C1089 C1088 1.391 . S
C1089 C1093 1.376 . S
C1090 C1088 1.394 . S
C1090 C1091 1.369 . S
C1090 C1094 1.531 . S
C1091 C1090 1.369 . S
C1091 C1092 1.410 . S
C1091 C1099 1.503 1_545 S
C1092 C1091 1.410 . S
C1092 C1093 1.392 . S
C1092 C1095 1.499 1_545 S
C1093 C1089 1.376 . S
C1093 C1092 1.392 . S
C1093 H1105 0.929 . S
C1094 C1090 1.531 . S
C1094 H1106 0.960 . S
C1094 H1107 0.962 . S
C1094 H1108 0.960 . S
C1095 C1092 1.499 1_565 S
C1095 H1109 0.961 . S
C1095 H1110 0.978 . S
C1095 H1111 0.955 1_565 S
C1096 C1097 1.370 . S
C1096 C1098 1.363 . S
C1096 H1112 0.931 . S
C1097 C1096 1.370 . S
C1097 C1101 1.408 . S
C1098 C1096 1.363 . S
C1098 C1099 1.370 . S
C1098 C1102 1.524 . S
C1099 C1091 1.503 1_565 S
C1099 C1098 1.370 . S
C1099 C1100 1.403 . S
C1100 C1099 1.403 . S
C1100 C1101 1.404 . S
C1100 C1103 1.539 1_565 S
C1101 C1097 1.408 . S
C1101 C1100 1.404 . S
C1101 H1113 0.930 . S
C1102 C1098 1.524 . S
C1102 H1114 0.956 . S
C1102 H1115 0.961 . S
C1102 H1116 0.961 . S
C1103 C1100 1.539 1_545 S
C1103 H1117 0.958 . S
C1103 H1118 0.961 . S
C1103 H1119 0.960 . S
H1104 C1088 0.931 . S
H1105 C1093 0.929 . S
H1106 C1094 0.960 . S
H1107 C1094 0.962 . S
H1108 C1094 0.960 . S
H1109 C1095 0.961 . S
H1110 C1095 0.978 . S
H1111 C1095 0.955 1_545 S
H1112 C1096 0.931 . S
H1113 C1101 0.930 . S
H1114 C1102 0.956 . S
H1115 C1102 0.961 . S
H1116 C1102 0.961 . S
H1117 C1103 0.958 . S
H1118 C1103 0.961 . S
H1119 C1103 0.960 . S
C1120 C1121 1.391 . S
C1120 C1122 1.394 . S
C1120 H1136 0.931 . S
C1121 C1120 1.391 . S
C1121 C1125 1.376 . S
C1122 C1120 1.394 . S
C1122 C1123 1.369 . S
C1122 C1126 1.531 . S
C1123 C1122 1.369 . S
C1123 C1124 1.410 . S
C1123 C1131 1.503 . S
C1124 C1123 1.410 . S
C1124 C1125 1.392 . S
C1124 C1127 1.511 . S
C1125 C1121 1.376 . S
C1125 C1124 1.392 . S
C1125 H1137 0.929 . S
C1126 C1122 1.531 . S
C1126 H1138 0.960 . S
C1126 H1139 0.962 . S
C1126 H1140 0.960 . S
C1127 C1124 1.511 . S
C1127 H1141 0.961 . S
C1127 H1142 0.961 . S
C1127 H1143 0.961 . S
C1128 C1129 1.370 . S
C1128 C1130 1.363 . S
C1128 H1144 0.931 . S
C1129 C1128 1.370 . S
C1129 C1133 1.408 . S
C1130 C1128 1.363 . S
C1130 C1131 1.370 . S
C1130 C1134 1.524 . S
C1131 C1123 1.503 . S
C1131 C1130 1.370 . S
C1131 C1132 1.403 . S
C1132 C1131 1.403 . S
C1132 C1133 1.404 . S
C1132 C1135 1.539 . S
C1133 C1129 1.408 . S
C1133 C1132 1.404 . S
C1133 H1145 0.930 . S
C1134 C1130 1.524 . S
C1134 H1146 0.956 . S
C1134 H1147 0.961 . S
C1134 H1148 0.961 . S
C1135 C1132 1.539 . S
C1135 H1149 0.958 . S
C1135 H1150 0.961 . S
C1135 H1151 0.960 . S
H1136 C1120 0.931 . S
H1137 C1125 0.929 . S
H1138 C1126 0.960 . S
H1139 C1126 0.962 . S
H1140 C1126 0.960 . S
H1141 C1127 0.961 . S
H1142 C1127 0.961 . S
H1143 C1127 0.961 . S
H1144 C1128 0.931 . S
H1145 C1133 0.930 . S
H1146 C1134 0.956 . S
H1147 C1134 0.961 . S
H1148 C1134 0.961 . S
H1149 C1135 0.958 . S
H1150 C1135 0.961 . S
H1151 C1135 0.960 . S
C1152 C1153 1.391 . S
C1152 C1154 1.394 . S
C1152 H1168 0.931 . S
C1153 C1152 1.391 . S
C1153 C1157 1.376 . S
C1154 C1152 1.394 . S
C1154 C1155 1.369 . S
C1154 C1158 1.531 . S
C1155 C1154 1.369 . S
C1155 C1156 1.410 . S
C1155 C1163 1.503 . S
C1156 C1155 1.410 . S
C1156 C1157 1.392 . S
C1156 C1159 1.511 . S
C1157 C1153 1.376 . S
C1157 C1156 1.392 . S
C1157 H1169 0.929 . S
C1158 C1154 1.531 . S
C1158 H1170 0.960 . S
C1158 H1171 0.962 . S
C1158 H1172 0.960 . S
C1159 C1156 1.511 . S
C1159 H1173 0.961 . S
C1159 H1174 0.961 . S
C1159 H1175 0.961 . S
C1160 C1161 1.370 . S
C1160 C1162 1.363 . S
C1160 H1176 0.931 . S
C1161 C1160 1.370 . S
C1161 C1165 1.408 . S
C1162 C1160 1.363 . S
C1162 C1163 1.370 . S
C1162 C1166 1.524 . S
C1163 C1155 1.503 . S
C1163 C1162 1.370 . S
C1163 C1164 1.403 . S
C1164 C1163 1.403 . S
C1164 C1165 1.404 . S
C1164 C1167 1.539 . S
C1165 C1161 1.408 . S
C1165 C1164 1.404 . S
C1165 H1177 0.930 . S
C1166 C1162 1.524 . S
C1166 H1178 0.956 . S
C1166 H1179 0.961 . S
C1166 H1180 0.961 . S
C1167 C1164 1.539 . S
C1167 H1181 0.958 . S
C1167 H1182 0.961 . S
C1167 H1183 0.960 . S
H1168 C1152 0.931 . S
H1169 C1157 0.929 . S
H1170 C1158 0.960 . S
H1171 C1158 0.962 . S
H1172 C1158 0.960 . S
H1173 C1159 0.961 . S
H1174 C1159 0.961 . S
H1175 C1159 0.961 . S
H1176 C1160 0.931 . S
H1177 C1165 0.930 . S
H1178 C1166 0.956 . S
H1179 C1166 0.961 . S
H1180 C1166 0.961 . S
H1181 C1167 0.958 . S
H1182 C1167 0.961 . S
H1183 C1167 0.960 . S
C1184 C1185 1.391 . S
C1184 C1186 1.394 . S
C1184 H1200 0.931 . S
C1185 C1184 1.391 . S
C1185 C1189 1.376 . S
C1186 C1184 1.394 . S
C1186 C1187 1.369 . S
C1186 C1190 1.538 . S
C1187 C1186 1.369 . S
C1187 C1188 1.410 . S
C1187 C1195 1.503 1_545 S
C1188 C1187 1.410 . S
C1188 C1189 1.392 . S
C1188 C1191 1.511 . S
C1189 C1185 1.376 . S
C1189 C1188 1.392 . S
C1189 H1201 0.929 . S
C1190 C1186 1.538 . S
C1190 H1202 0.948 1_545 S
C1190 H1203 0.965 . S
C1190 H1204 0.962 . S
C1191 C1188 1.511 . S
C1191 H1205 0.961 . S
C1191 H1206 0.961 1_545 S
C1191 H1207 0.961 1_545 S
C1192 C1193 1.370 . S
C1192 C1194 1.363 . S
C1192 H1208 0.931 . S
C1193 C1192 1.370 . S
C1193 C1197 1.408 . S
C1194 C1192 1.363 . S
C1194 C1195 1.370 . S
C1194 C1198 1.524 1_565 S
C1195 C1187 1.503 1_565 S
C1195 C1194 1.370 . S
C1195 C1196 1.403 . S
C1196 C1195 1.403 . S
C1196 C1197 1.404 . S
C1196 C1199 1.539 . S
C1197 C1193 1.408 . S
C1197 C1196 1.404 . S
C1197 H1209 0.930 . S
C1198 C1194 1.524 1_545 S
C1198 H1210 0.956 . S
C1198 H1211 0.961 . S
C1198 H1212 0.961 . S
C1199 C1196 1.539 . S
C1199 H1213 0.958 . S
C1199 H1214 0.961 . S
C1199 H1215 0.960 . S
H1200 C1184 0.931 . S
H1201 C1189 0.929 . S
H1202 C1190 0.948 1_565 S
H1203 C1190 0.965 . S
H1204 C1190 0.962 . S
H1205 C1191 0.961 . S
H1206 C1191 0.961 1_565 S
H1207 C1191 0.961 1_565 S
H1208 C1192 0.931 . S
H1209 C1197 0.930 . S
H1210 C1198 0.956 . S
H1211 C1198 0.961 . S
H1212 C1198 0.961 . S
H1213 C1199 0.958 . S
H1214 C1199 0.961 . S
H1215 C1199 0.960 . S
C1216 C1217 1.391 . S
C1216 C1218 1.394 . S
C1216 H1232 0.931 . S
C1217 C1216 1.391 . S
C1217 C1221 1.376 . S
C1218 C1216 1.394 . S
C1218 C1219 1.369 . S
C1218 C1222 1.531 . S
C1219 C1218 1.369 . S
C1219 C1220 1.410 . S
C1219 C1227 1.503 . S
C1220 C1219 1.410 . S
C1220 C1221 1.392 . S
C1220 C1223 1.511 . S
C1221 C1217 1.376 . S
C1221 C1220 1.392 . S
C1221 H1233 0.929 . S
C1222 C1218 1.531 . S
C1222 H1234 0.960 . S
C1222 H1235 0.962 . S
C1222 H1236 0.960 . S
C1223 C1220 1.511 . S
C1223 H1237 0.961 . S
C1223 H1238 0.961 . S
C1223 H1239 0.961 . S
C1224 C1225 1.370 . S
C1224 C1226 1.363 . S
C1224 H1240 0.931 . S
C1225 C1224 1.370 . S
C1225 C1229 1.408 . S
C1226 C1224 1.363 . S
C1226 C1227 1.370 . S
C1226 C1230 1.524 . S
C1227 C1219 1.503 . S
C1227 C1226 1.370 . S
C1227 C1228 1.403 . S
C1228 C1227 1.403 . S
C1228 C1229 1.404 . S
C1228 C1231 1.539 . S
C1229 C1225 1.408 . S
C1229 C1228 1.404 . S
C1229 H1241 0.930 . S
C1230 C1226 1.524 . S
C1230 H1242 0.956 . S
C1230 H1243 0.961 . S
C1230 H1244 0.961 . S
C1231 C1228 1.539 . S
C1231 H1245 0.958 . S
C1231 H1246 0.961 . S
C1231 H1247 0.960 . S
H1232 C1216 0.931 . S
H1233 C1221 0.929 . S
H1234 C1222 0.960 . S
H1235 C1222 0.962 . S
H1236 C1222 0.960 . S
H1237 C1223 0.961 . S
H1238 C1223 0.961 . S
H1239 C1223 0.961 . S
H1240 C1224 0.931 . S
H1241 C1229 0.930 . S
H1242 C1230 0.956 . S
H1243 C1230 0.961 . S
H1244 C1230 0.961 . S
H1245 C1231 0.958 . S
H1246 C1231 0.961 . S
H1247 C1231 0.960 . S
C225 C7 1.353 . S
C233 C189 1.341 . S
C257 C21 1.387 . S
C265 C133 1.422 . S
C289 C203 0.428 . S
C297 C35 0.534 . S
C321 C49 0.772 . S
C329 C217 0.744 . S
C353 C63 1.412 . S
C361 C91 1.423 . S
C385 C147 1.312 . S
C393 C77 1.351 . S
C417 C161 0.670 . S
C425 C105 0.487 . S
C449 C119 0.684 . S
C457 C175 0.735 . S
C481 C36 1.556 . S
C489 C8 1.572 . S
C513 C22 1.587 . S
C521 C45 1.602 . S
C545 C177 1.514 . S
C553 C3 1.499 . S
C577 C17 1.589 . S
C585 C157 1.570 . S
C609 C59 1.567 . S
C617 C31 1.579 . S
C641 C143 1.491 . S
C649 C51 1.503 . S
C673 C23 1.966 . S
C681 C9 1.962 . S
C705 C50 1.534 . S
C713 C37 1.537 . S
C737 C149 1.948 . S
C745 C65 1.972 . S
C769 C101 1.842 . S
C777 C79 1.827 . S
C801 C93 1.493 . S
C809 C115 1.539 . S
C833 C218 1.861 . S
C841 C73 1.863 . S
C865 C87 1.403 . S
C873 C204 1.398 . S
C897 C129 1.405 . S
C905 C106 1.400 . S
C929 C120 1.842 . S
C937 C185 1.858 . S
C961 C92 1.552 . S
C969 C78 1.541 . S
C993 C121 1.638 . S
C1001 C107 1.655 . S
C1025 C134 1.547 . S
C1033 C190 1.540 . S
C1057 C148 1.564 . S
C1065 C162 1.549 . S
C1089 C171 1.578 . S
C1097 C64 1.602 . S
C1121 C176 1.540 . S
C1129 C163 1.528 . S
C1153 C199 1.845 . S
C1161 C191 1.823 . S
C1185 C135 1.524 . S
C1193 C213 1.533 . S
C1217 C219 1.649 . S
C1225 C205 1.649 . S
