# Generated by pormake.
# Topology sma, (6)-cn, num edge types: 1
# Building blocks:
#     Node 0, Type 0, BuildingBlock: BETFEN_clean_sbu_0, # of connection points: 6
#     Node 1, Type 0, BuildingBlock: BETFEN_clean_sbu_0, # of connection points: 6
#     Node 2, Type 0, BuildingBlock: BETFEN_clean_sbu_0, # of connection points: 6
#     Edge 3, Type (0, 0), BuildingBlock: ZUJKAS_clean_linker_0, # of connection points: 2
#     Edge 4, Type (0, 0), BuildingBlock: ZUJKAS_clean_linker_0, # of connection points: 2
#     Edge 5, Type (0, 0), BuildingBlock: ZUJKAS_clean_linker_0, # of connection points: 2
#     Edge 6, Type (0, 0), BuildingBlock: ZUJKAS_clean_linker_0, # of connection points: 2
#     Edge 7, Type (0, 0), BuildingBlock: ZUJKAS_clean_linker_0, # of connection points: 2
#     Edge 8, Type (0, 0), BuildingBlock: ZUJKAS_clean_linker_0, # of connection points: 2
#     Edge 9, Type (0, 0), BuildingBlock: ZUJKAS_clean_linker_0, # of connection points: 2
#     Edge 10, Type (0, 0), BuildingBlock: ZUJKAS_clean_linker_0, # of connection points: 2
#     Edge 11, Type (0, 0), BuildingBlock: ZUJKAS_clean_linker_0, # of connection points: 2
# Relax obj value: 0.123
# Max RMSD: 0.245
# Mean RMSD: 0.202
data_MOF--net-sma--node1-BETFEN_clean_sbu_0--edge1-ZUJKAS_clean_linker_0
_symmetry_space_group_name_H-M    P1
_symmetry_Int_Tables_number       1
_symmetry_cell_setting            triclinic
loop_
_symmetry_equiv_pos_as_xyz
'x, y, z'
_cell_length_a     39.635595
_cell_length_b     49.12968
_cell_length_c     17.964936
_cell_angle_alpha  90.101519
_cell_angle_beta   95.0575
_cell_angle_gamma 101.97925
loop_
_atom_site_label
_atom_site_type_symbol
_atom_site_fract_x
_atom_site_fract_y
_atom_site_fract_z
_atom_type_partial_charge
Pr0 Pr 0.07747 0.50377 0.07349 0.0
Pr1 Pr 0.09941 0.56749 0.03424 0.0
C2 C 0.06358 0.45359 0.13778 0.0
C3 C 1.03461 0.4305 0.15329 0.0
C4 C 1.03209 0.40425 0.11956 0.0
C5 C 1.00598 0.38173 0.13548 0.0
C6 C 0.98183 0.38481 0.18606 0.0
C7 C 0.98425 0.41115 0.21967 0.0
C8 C 1.01032 0.43376 0.20341 0.0
C9 C 0.07245 0.51496 0.92354 0.0
C10 C 1.01569 0.53651 0.01973 0.0
C11 C 0.1139 0.62137 -0.00464 0.0
C12 C 0.13663 0.64631 0.03219 0.0
C13 C 0.14522 0.64698 0.10978 0.0
C14 C 0.16721 0.67025 0.14499 0.0
C15 C 0.1813 0.69345 0.10344 0.0
C16 C 0.17255 0.69275 0.02558 0.0
C17 C 0.15047 0.66936 -0.00969 0.0
C18 C 0.09658 0.55545 0.18515 0.0
C19 C 0.16154 0.53256 0.05893 0.0
O20 O 0.06751 0.47715 0.17527 0.0
O21 O 0.07054 0.4569 0.06803 0.0
O22 O 0.09667 0.52679 -0.02976 0.0
O23 O 1.05152 0.49455 0.9524 0.0
O24 O 1.03991 0.55576 -0.0075 0.0
O25 O 1.02361 0.5165 0.06294 0.0
O26 O 0.12946 0.60277 -0.03041 0.0
O27 O 0.0867 0.61028 0.0296 0.0
O28 O 0.07547 0.54434 0.13255 0.0
O29 O 0.12104 0.57408 0.16072 0.0
O30 O 0.13888 0.51204 0.08593 0.0
O31 O 0.15242 0.5549 0.03004 0.0
H32 H 1.05067 0.40104 0.0814 0.0
H33 H 1.00524 0.36168 0.10946 0.0
H34 H 0.96588 0.4143 0.25836 0.0
H35 H 1.01155 0.4537 0.2305 0.0
H36 H 0.13487 0.62948 0.1434 0.0
H37 H 0.17283 0.67016 0.20507 0.0
H38 H 0.18319 0.7101 -0.00831 0.0
H39 H 0.14434 0.66921 0.93031 0.0
Pr40 Pr 0.61888 0.04094 0.50149 0.0
Pr41 Pr 0.54315 1.01824 0.54995 0.0
C42 C 0.67607 0.05862 0.42965 0.0
C43 C 0.69854 0.08526 0.4097 0.0
C44 C 0.73105 0.09458 0.44964 0.0
C45 C 0.75266 0.11954 0.43165 0.0
C46 C 0.74247 0.13574 0.37273 0.0
C47 C 0.71007 0.1263 0.3322 0.0
C48 C 0.68833 0.10136 0.35049 0.0
C49 C 0.61342 0.04066 0.65296 0.0
C50 C 0.57577 0.08656 0.55742 0.0
C51 C 0.47983 0.99902 0.59475 0.0
C52 C 0.45381 0.97368 0.57042 0.0
C53 C 0.41871 0.97477 0.55703 0.0
C54 C 0.39468 0.95185 0.52467 0.0
C55 C 0.40532 0.92736 0.50504 0.0
C56 C 0.44042 0.92617 0.52025 0.0
C57 C 0.46437 0.94908 0.55221 0.0
C58 C 0.54978 1.02341 0.39795 0.0
C59 C 0.59046 0.97198 0.52206 0.0
O60 O 0.64489 0.05163 0.39488 0.0
O61 O 0.67712 0.05239 0.50058 0.0
O62 O 0.59767 1.02175 0.60745 0.0
O63 O 0.63542 0.05956 0.62154 0.0
O64 O 0.55447 0.06568 0.58679 0.0
O65 O 0.59916 0.08227 0.51288 0.0
O66 O 0.50821 0.9953 0.63297 0.0
O67 O 0.48575 1.01804 0.54393 0.0
O68 O 0.56459 0.04053 0.44809 0.0
O69 O 0.53016 1.00201 0.4252 0.0
O70 O 0.61339 0.99185 0.49314 0.0
O71 O 0.5632 0.97719 0.55194 0.0
H72 H 0.73988 0.08249 0.49488 0.0
H73 H 0.77765 0.12595 0.46323 0.0
H74 H 0.70131 0.13836 0.28685 0.0
H75 H 0.66353 0.09478 0.31825 0.0
H76 H 0.41003 0.99362 0.56978 0.0
H77 H 0.36782 0.9534 0.51439 0.0
H78 H 0.44969 0.90787 0.5049 0.0
H79 H 0.49139 0.94782 0.56052 0.0
Pr80 Pr 0.57252 0.50642 0.83243 0.0
Pr81 Pr 0.58688 0.571 0.86991 0.0
C82 C 0.54981 0.45453 0.77385 0.0
C83 C 0.55798 0.42729 0.75652 0.0
C84 C 0.57386 0.41231 0.81085 0.0
C85 C 0.57754 0.38517 0.79506 0.0
C86 C 0.56528 0.37243 0.72479 0.0
C87 C 0.55046 0.38791 0.66993 0.0
C88 C 0.54683 0.41498 0.68571 0.0
C89 C 0.59663 0.5216 -0.02176 0.0
C90 C 0.65337 0.53895 0.85402 0.0
C91 C 0.60754 0.62536 0.90971 0.0
C92 C 0.61054 0.65255 0.87253 0.0
C93 C 0.62607 0.6576 0.80505 0.0
C94 C 0.62802 0.68331 0.77016 0.0
C95 C 0.61419 0.70441 0.80152 0.0
C96 C 0.59872 0.69925 0.86908 0.0
C97 C 0.59702 0.67365 0.90424 0.0
C98 C 0.56646 0.55621 0.72048 0.0
C99 C 0.50879 0.53578 0.88352 0.0
O100 O 0.5621 0.47591 0.73356 0.0
O101 O 0.54821 0.46101 0.84399 0.0
O102 O 0.57507 0.5321 0.93872 0.0
O103 O 0.60372 0.49992 0.9462 0.0
O104 O 0.64204 0.55957 0.88462 0.0
O105 O 0.63195 0.51729 0.82022 0.0
O106 O 0.57616 0.61117 0.91576 0.0
O107 O 0.62893 0.6097 0.89329 0.0
O108 O 0.58675 0.54557 0.76304 0.0
O109 O 0.55754 0.57659 0.7541 0.0
O110 O 0.51708 0.51677 0.84014 0.0
O111 O 0.53255 0.55673 0.91357 0.0
H112 H 0.58263 0.42127 0.86608 0.0
H113 H 0.58888 0.37382 0.83878 0.0
H114 H 0.54132 0.37899 0.61482 0.0
H115 H 0.53445 0.42609 0.64296 0.0
H116 H 0.63645 0.64163 0.77884 0.0
H117 H 0.63974 0.68646 0.71778 0.0
H118 H 0.58814 0.71513 0.89518 0.0
H119 H 0.58494 0.67026 0.95619 0.0
H120 H 0.18774 0.48492 0.05968 0.0
H121 H 0.24693 0.48112 0.03699 0.0
H122 H 0.27656 0.5704 0.02586 0.0
H123 H 0.21776 0.57442 0.04744 0.0
H124 H 0.28238 0.51118 0.89651 0.0
H125 H 0.35169 0.53922 0.17794 0.0
H126 H 0.30623 0.52286 0.16507 0.0
H127 H 0.32004 0.55891 0.1442 0.0
C128 C 0.20703 0.50375 0.05369 0.0
C129 C 0.19802 0.52997 0.05528 0.0
C130 C 0.24074 0.50153 0.04036 0.0
C131 C 0.26604 0.5255 0.02986 0.0
C132 C 0.25742 0.55168 0.03411 0.0
H133 H 0.47998 0.57498 0.94744 0.0
H134 H 0.42071 0.57027 -0.01902 0.0
C135 C 0.22377 0.5539 0.04638 0.0
C136 C 0.301 0.52348 0.01011 0.0
H137 H 0.38611 0.53707 0.078 0.0
C138 C 0.3051 0.51646 0.93622 0.0
C139 C 0.33047 0.53074 0.06193 0.0
C140 C 0.32716 0.53825 0.14199 0.0
C141 C 0.33814 0.51745 0.91199 0.0
C142 C 0.36783 0.52495 0.96375 0.0
C143 C 0.36347 0.53133 0.03822 0.0
C144 C 0.40371 0.52756 0.9414 0.0
C145 C 0.34092 0.51173 0.83043 0.0
C146 C 0.41413 0.50512 0.90796 0.0
C147 C 0.44802 0.5079 0.88767 0.0
C148 C 0.47239 0.53302 0.9017 0.0
C149 C 0.46195 0.55534 0.93578 0.0
C150 C 0.42802 0.55265 0.9552 0.0
H151 H 0.31721 0.51397 0.79516 0.0
H152 H 0.36352 0.52601 0.80968 0.0
H153 H 0.34427 0.49005 0.82326 0.0
H154 H 0.39622 0.48531 0.89843 0.0
H155 H 0.45529 0.49018 0.86238 0.0
H156 H 0.75697 0.15518 0.23353 0.0
H157 H 0.79654 0.19811 0.20267 0.0
H158 H 0.81978 0.21933 0.43722 0.0
H159 H 0.78049 0.17642 0.46849 0.0
H160 H 0.79652 0.25285 0.23204 0.0
H161 H 0.91577 0.22578 0.36924 0.0
H162 H 0.87561 0.20056 0.35252 0.0
H163 H 0.88225 0.22456 0.43082 0.0
C164 C 0.77036 0.16906 0.27855 0.0
C165 C 0.76575 0.16223 0.35354 0.0
C166 C 0.79308 0.19355 0.26082 0.0
C167 C 0.81169 0.21172 0.31763 0.0
C168 C 0.80648 0.2053 0.39245 0.0
H169 H 0.96029 0.36973 0.32384 0.0
H170 H 0.91764 0.32861 0.35492 0.0
C171 C 0.78394 0.18076 0.41024 0.0
C172 C 0.83622 0.23751 0.29856 0.0
H173 H 0.9207 0.27211 0.32701 0.0
C174 C 0.8237 0.257 0.25253 0.0
C175 C 0.87174 0.24294 0.32524 0.0
C176 C 0.88727 0.22225 0.37159 0.0
C177 C 0.84554 0.28192 0.23356 0.0
C178 C 0.88096 0.28739 0.26063 0.0
C179 C 0.89349 0.26794 0.30665 0.0
C180 C 0.90562 0.31295 0.241 0.0
C181 C 0.83043 0.30245 0.18579 0.0
C182 C 0.91311 0.31778 0.16665 0.0
C183 C 0.93742 0.34127 0.14868 0.0
C184 C 0.95483 0.36044 0.20476 0.0
C185 C 0.94704 0.35563 0.27916 0.0
C186 C 0.92284 0.33204 0.2971 0.0
H187 H 0.80175 0.29845 0.1849 0.0
H188 H 0.84127 0.32412 0.20616 0.0
H189 H 0.8371 0.30063 0.12754 0.0
H190 H 0.90054 0.30312 0.12257 0.0
H191 H 0.94259 0.34442 0.09078 0.0
H192 H 0.65141 0.95353 0.51623 0.0
H193 H 0.66115 0.90674 0.54594 0.0
H194 H 0.55268 0.87909 0.57554 0.0
H195 H 0.54273 0.92507 0.5449 0.0
H196 H 0.65023 0.88023 0.67921 0.0
H197 H 0.56961 0.81574 0.45107 0.0
H198 H 0.58207 0.85315 0.44613 0.0
H199 H 0.54551 0.83728 0.49531 0.0
C200 C 0.62953 0.93725 0.52714 0.0
C201 C 0.59629 0.9431 0.52812 0.0
C202 C 0.63516 0.91057 0.54458 0.0
C203 C 0.60757 0.88922 0.56214 0.0
C204 C 0.57427 0.8949 0.56063 0.0
H205 H 0.5626 0.73377 0.78087 0.0
H206 H 0.56459 0.77843 0.71932 0.0
C207 C 0.56868 0.9214 0.54358 0.0
C208 C 0.61349 0.86169 0.5884 0.0
H209 H 0.58183 0.7917 0.56436 0.0
C210 C 0.63584 0.86085 0.65321 0.0
C211 C 0.59469 0.83635 0.55462 0.0
C212 C 0.57191 0.83564 0.48249 0.0
C213 C 0.6384 0.83548 0.68727 0.0
C214 C 0.61829 0.8103 0.65542 0.0
C215 C 0.59701 0.81105 0.58908 0.0
C216 C 0.61756 0.78314 0.69227 0.0
C217 C 0.66133 0.83583 0.75904 0.0
C218 C 0.64662 0.77084 0.69699 0.0
C219 C 0.64555 0.74525 0.73211 0.0
C220 C 0.61543 0.73154 0.76353 0.0
C221 C 0.58634 0.74392 0.75825 0.0
C222 C 0.58736 0.76936 0.72267 0.0
H223 H 0.67127 0.85725 0.78226 0.0
H224 H 0.64697 0.82304 0.8016 0.0
H225 H 0.68381 0.82662 0.74844 0.0
H226 H 0.67009 0.781 0.67332 0.0
H227 H 0.66845 0.73637 0.73556 0.0
H228 H 0.70535 0.58063 0.91524 0.0
H229 H 0.767 0.58059 0.9368 0.0
H230 H 0.74895 0.49831 0.83742 0.0
H231 H 0.68716 0.49829 0.81443 0.0
H232 H 0.79741 0.54534 0.02329 0.0
H233 H 0.83059 0.53914 0.73104 0.0
H234 H 0.79057 0.54774 0.75411 0.0
H235 H 0.79526 0.51212 0.75391 0.0
C236 C 0.71443 0.56259 0.89713 0.0
C237 C 0.69117 0.53948 0.86283 0.0
C238 C 0.74976 0.56261 0.90966 0.0
C239 C 0.76276 0.5396 0.88802 0.0
C240 C 0.7397 0.51656 0.85322 0.0
H241 H 0.95869 0.50128 0.0662 0.0
H242 H 0.89775 0.50199 0.03343 0.0
C243 C 0.70429 0.51654 0.84043 0.0
C244 C 0.80011 0.5393 0.90539 0.0
H245 H 0.87367 0.533 0.82677 0.0
C246 C 0.81409 0.54271 -0.01974 0.0
C247 C 0.82201 0.53621 0.8492 0.0
C248 C 0.809 0.53386 0.76747 0.0
C249 C 0.84916 0.54276 0.00058 0.0
C250 C 0.87081 0.53878 0.94469 0.0
C251 C 0.85699 0.53578 0.86967 0.0
C252 C 0.90792 0.53793 0.96304 0.0
C253 C 0.86284 0.5476 0.08166 0.0
C254 C 0.93401 0.55741 0.93271 0.0
C255 C 0.96898 0.55698 0.95102 0.0
C256 C 0.9786 0.53695 -0.00019 0.0
C257 C 0.95234 0.51716 0.029 0.0
C258 C 0.91741 0.51761 0.01061 0.0
H259 H 0.84577 0.55765 0.11353 0.0
H260 H 0.86408 0.5273 0.10754 0.0
H261 H 0.88931 0.56087 0.08722 0.0
H262 H 0.9273 0.57318 0.89551 0.0
H263 H 0.98844 0.5724 0.92697 0.0
H264 H 0.35432 0.92918 0.39259 0.0
H265 H 0.31513 0.89002 0.32527 0.0
H266 H 0.36164 0.8325 0.45926 0.0
H267 H 0.40029 0.87148 0.52811 0.0
H268 H 0.33298 0.84771 0.24113 0.0
H269 H 0.25796 0.8036 0.47519 0.0
H270 H 0.28467 0.83823 0.47929 0.0
H271 H 0.30405 0.8085 0.49494 0.0
C272 C 0.35581 0.90821 0.40871 0.0
C273 C 0.38039 0.90353 0.46616 0.0
C274 C 0.33356 0.88583 0.36972 0.0
C275 C 0.33514 0.8583 0.38773 0.0
C276 C 0.35953 0.85354 0.44515 0.0
H277 H 0.23241 0.69404 0.21723 0.0
H278 H 0.26949 0.73437 0.28336 0.0
C279 C 0.38185 0.87588 0.48401 0.0
C280 C 0.31208 0.83457 0.3449 0.0
H281 H 0.24968 0.7761 0.36358 0.0
C282 C 0.31459 0.83215 0.26775 0.0
C283 C 0.28815 0.81423 0.37971 0.0
C284 C 0.28321 0.81631 0.4617 0.0
C285 C 0.29441 0.80961 0.22486 0.0
C286 C 0.27061 0.78919 0.25977 0.0
C287 C 0.26796 0.79172 0.33684 0.0
C288 C 0.24844 0.76483 0.21773 0.0
C289 C 0.29947 0.80744 0.14296 0.0
C290 C 0.22409 0.76847 0.15888 0.0
C291 C 0.20265 0.74539 0.12105 0.0
C292 C 0.20494 0.71815 0.14163 0.0
C293 C 0.22952 0.71465 0.20046 0.0
C294 C 0.2509 0.73771 0.23818 0.0
H295 H 0.32444 0.82056 0.12921 0.0
H296 H 0.29875 0.78556 0.12603 0.0
H297 H 0.27825 0.81464 0.10938 0.0
H298 H 0.22119 0.78918 0.14306 0.0
H299 H 0.1837 0.74891 0.0769 0.0
H300 H 0.61811 0.34535 0.76528 0.0
H301 H 0.62007 0.29678 0.73855 0.0
H302 H 0.51765 0.28393 0.62379 0.0
H303 H 0.51542 0.33225 0.65032 0.0
H304 H 0.57751 0.24742 0.77673 0.0
H305 H 0.573 0.25698 0.46874 0.0
H306 H 0.5817 0.28687 0.53136 0.0
H307 H 0.53797 0.26802 0.50861 0.0
C308 C 0.59595 0.33216 0.73459 0.0
C309 C 0.56676 0.34286 0.70925 0.0
C310 C 0.59715 0.30441 0.71919 0.0
C311 C 0.56926 0.28681 0.67799 0.0
C312 C 0.53985 0.29727 0.65399 0.0
H313 H 0.53084 0.10508 0.64389 0.0
H314 H 0.52914 0.15333 0.67466 0.0
C315 C 0.53865 0.32496 0.66917 0.0
C316 C 0.57073 0.25747 0.66053 0.0
H317 H 0.56564 0.21116 0.51579 0.0
C318 C 0.57503 0.23949 0.71969 0.0
C319 C 0.56794 0.24721 0.58607 0.0
C320 C 0.56523 0.26581 0.51999 0.0
C321 C 0.57607 0.21145 0.70644 0.0
C322 C 0.57208 0.20095 0.63198 0.0
C323 C 0.5683 0.21907 0.57288 0.0
C324 C 0.57283 0.1715 0.61378 0.0
C325 C 0.58215 0.1935 0.77229 0.0
C326 C 0.5973 0.16558 0.56765 0.0
C327 C 0.59806 0.13807 0.5492 0.0
C328 C 0.57429 0.11575 0.57632 0.0
C329 C 0.54961 0.12171 0.62218 0.0
C330 C 0.54879 0.14931 0.64037 0.0
H331 H 0.59393 0.20624 0.82278 0.0
H332 H 0.557 0.1807 0.78578 0.0
H333 H 0.59933 0.17923 0.75943 0.0
H334 H 0.61604 0.18231 0.5462 0.0
H335 H 0.61749 0.13437 0.51384 0.0
H336 H 0.11445 0.55376 0.84834 0.0
H337 H 0.10132 0.571 0.72421 0.0
H338 H 0.99687 0.52247 0.71797 0.0
H339 H 1.01029 0.50446 0.84133 0.0
H340 H 1.03193 0.5077 0.61185 0.0
H341 H 1.04856 0.62187 0.6105 0.0
H342 H 0.08416 0.61219 0.66492 0.0
H343 H 1.04107 0.602 0.69429 0.0
C344 C 0.08856 0.54718 0.82079 0.0
C345 C 0.06367 0.52723 0.85256 0.0
C346 C 0.08084 0.55747 0.75075 0.0
C347 C 1.04796 0.54826 0.71259 0.0
C348 C 1.02226 0.52994 0.74707 0.0
H349 H 1.03225 0.53714 0.22745 0.0
H350 H 1.01322 0.53955 0.35187 0.0
C351 C 1.03014 0.51934 0.81665 0.0
C352 C 1.04376 0.55211 0.63166 0.0
H353 H 0.0646 0.60037 0.49846 0.0
C354 C 1.03794 0.52798 0.58658 0.0
C355 C 1.05184 0.57857 0.59942 0.0
C356 C 1.0564 0.60509 0.64499 0.0
C357 C 1.04326 0.52948 0.51098 0.0
C358 C 1.0537 0.55592 0.47972 0.0
C359 C 1.05694 0.58017 0.52335 0.0
C360 C 0.0641 0.5584 0.40349 0.0
C361 C 1.04027 0.50269 0.4669 0.0
C362 C 0.09883 0.56918 0.39159 0.0
C363 C 0.10978 0.56825 0.32017 0.0
C364 C 0.0861 0.55621 0.26077 0.0
C365 C 1.0512 0.54606 0.27279 0.0
C366 C 1.04019 0.54756 0.34351 0.0
H367 H 1.03912 0.48441 0.50361 0.0
H368 H 1.01619 0.49902 0.42853 0.0
H369 H 0.06254 0.50392 0.43273 0.0
H370 H 0.11756 0.57754 0.43786 0.0
H371 H 0.13668 0.57646 0.31161 0.0
H372 H 0.57483 0.0736 0.3413 0.0
H373 H 0.57507 0.08596 0.2102 0.0
H374 H 0.52337 1.00188 0.14603 0.0
H375 H 0.52198 0.98954 0.27809 0.0
H376 H 0.61014 0.06152 0.11966 0.0
H377 H 0.47372 0.04756 0.00191 0.0
H378 H 0.48634 0.0508 0.10123 0.0
H379 H 0.48178 1.01789 0.0531 0.0
C380 C 0.56304 0.05783 0.29926 0.0
C381 C 0.54863 1.03054 0.31914 0.0
C382 C 0.56293 0.06502 0.22465 0.0
C383 C 0.54873 0.04496 0.16892 0.0
C384 C 0.53355 1.01782 0.18861 0.0
H385 H 0.57446 1.00199 0.73408 0.0
H386 H 0.55518 1.00883 0.8571 0.0
C387 C 0.53323 1.01068 0.26364 0.0
C388 C 0.55498 0.05115 0.09095 0.0
H389 H 0.51594 0.04553 0.9135 0.0
C390 C 0.58956 0.05868 0.07455 0.0
C391 C 0.52795 0.04742 0.03288 0.0
C392 C 0.49035 0.04075 0.04822 0.0
C393 C 0.59808 0.06071 0.00086 0.0
C394 C 0.57111 0.0555 0.94254 0.0
C395 C 0.53641 0.04947 0.95885 0.0
C396 C 0.57879 0.05276 0.86503 0.0
C397 C 0.63585 0.06655 -0.01381 0.0
C398 C 0.59787 0.07536 0.82915 0.0
C399 C 0.60959 0.07134 0.76007 0.0
C400 C 0.6017 0.0448 0.72591 0.0
C401 C 0.58115 1.02253 0.76021 0.0
C402 C 0.56986 1.02647 0.82972 0.0
H403 H 0.65313 0.06527 0.03766 0.0
H404 H 0.64058 0.05162 0.94381 0.0
H405 H 0.64315 0.08784 0.96416 0.0
H406 H 0.60445 0.09586 0.85552 0.0
H407 H 0.6247 0.08896 0.7334 0.0
H408 H 0.55284 0.59499 0.62073 0.0
H409 H 0.56778 0.59811 0.49146 0.0
H410 H 0.59829 0.51881 0.50966 0.0
H411 H 0.58481 0.51614 0.63969 0.0
H412 H 0.64823 0.56033 0.45602 0.0
H413 H 0.518 0.55582 0.30596 0.0
H414 H 0.53103 0.5825 0.37729 0.0
H415 H 0.52364 0.54651 0.40263 0.0
C416 C 0.56195 0.57794 0.59649 0.0
C417 C 0.56767 0.55527 0.63964 0.0
C418 C 0.57055 0.5798 0.52294 0.0
C419 C 0.58414 0.55871 0.49168 0.0
C420 C 0.58805 0.53535 0.53348 0.0
H421 H 0.62363 0.49509 0.09454 0.0
H422 H 0.63407 0.5124 0.22416 0.0
C423 C 0.57996 0.53368 0.60718 0.0
C424 C 0.59547 0.56116 0.41613 0.0
H425 H 0.56512 0.56107 0.23346 0.0
C426 C 0.63023 0.56078 0.40712 0.0
C427 C 0.57183 0.56197 0.35318 0.0
C428 C 0.53399 0.5615 0.35986 0.0
C429 C 0.64171 0.56005 0.33588 0.0
C430 C 0.61773 0.55974 0.27311 0.0
C431 C 0.58347 0.56159 0.28226 0.0
C432 C 0.62544 0.55356 0.19745 0.0
C433 C 0.67894 0.55885 0.32815 0.0
C434 C 0.61887 0.57146 0.14003 0.0
C435 C 0.61198 0.56139 0.0669 0.0
C436 C 0.61211 0.53347 0.05069 0.0
C437 C 0.62314 0.51662 0.1065 0.0
C438 C 0.62953 0.52661 0.18016 0.0
H439 H 0.69595 0.56747 0.37881 0.0
H440 H 0.6809 0.53682 0.32062 0.0
H441 H 0.68853 0.57048 0.27863 0.0
H442 H 0.61554 0.59227 0.15271 0.0
H443 H 0.60418 0.57486 0.024 0.0
loop_
_geom_bond_atom_site_label_1
_geom_bond_atom_site_label_2
_geom_bond_distance
_geom_bond_site_symmetry_2
_ccdc_geom_bond_type
Pr0 C2 2.880 1_455 S
Pr0 O20 2.562 1_455 S
Pr0 O21 2.490 1_455 S
Pr0 O22 2.695 . S
Pr0 O23 2.512 1_554 S
Pr0 O25 2.437 1_455 S
Pr0 O28 2.436 . S
Pr0 O30 2.438 . S
Pr1 C11 2.880 . S
Pr1 O22 2.436 . S
Pr1 O24 2.438 1_455 S
Pr1 O26 2.562 . S
Pr1 O27 2.490 . S
Pr1 O28 2.695 . S
Pr1 O29 2.512 . S
Pr1 O31 2.437 . S
C2 Pr0 2.880 1_655 S
C2 C3 1.491 . S
C2 O20 1.254 . S
C2 O21 1.225 . S
C3 C2 1.491 . S
C3 C4 1.392 . S
C3 C8 1.356 . S
C4 C3 1.392 . S
C4 C5 1.368 . S
C4 H32 0.929 . S
C5 C4 1.368 . S
C5 C6 1.386 . S
C5 H33 0.929 . S
C6 C5 1.386 . S
C6 C7 1.373 . S
C7 C6 1.373 . S
C7 C8 1.409 . S
C7 H34 0.931 . S
C8 C3 1.356 . S
C8 C7 1.409 . S
C8 H35 0.930 . S
C9 O22 1.270 1_556 S
C9 O23 1.248 . S
C10 O24 1.267 . S
C10 O25 1.278 . S
C11 Pr1 2.880 . S
C11 C12 1.491 . S
C11 O26 1.254 . S
C11 O27 1.225 . S
C12 C11 1.491 . S
C12 C13 1.392 . S
C12 C17 1.356 . S
C13 C12 1.392 . S
C13 C14 1.368 . S
C13 H36 0.929 . S
C14 C13 1.368 . S
C14 C15 1.386 . S
C14 H37 0.929 . S
C15 C14 1.386 . S
C15 C16 1.373 . S
C16 C15 1.373 . S
C16 C17 1.409 . S
C16 H38 0.931 . S
C17 C12 1.356 . S
C17 C16 1.409 . S
C17 H39 0.930 . S
C18 O28 1.270 . S
C18 O29 1.248 . S
C19 O30 1.267 . S
C19 O31 1.278 . S
O20 Pr0 2.562 1_655 S
O20 C2 1.254 . S
O21 Pr0 2.490 1_655 S
O21 C2 1.225 . S
O22 Pr0 2.695 . S
O22 Pr1 2.436 . S
O22 C9 1.270 1_554 S
O23 Pr0 2.512 1_556 S
O23 C9 1.248 . S
O24 Pr1 2.438 1_655 S
O24 C10 1.267 . S
O25 Pr0 2.437 1_655 S
O25 C10 1.278 . S
O26 Pr1 2.562 . S
O26 C11 1.254 . S
O27 Pr1 2.490 . S
O27 C11 1.225 . S
O28 Pr0 2.436 . S
O28 Pr1 2.695 . S
O28 C18 1.270 . S
O29 Pr1 2.512 . S
O29 C18 1.248 . S
O30 Pr0 2.438 . S
O30 C19 1.267 . S
O31 Pr1 2.437 . S
O31 C19 1.278 . S
H32 C4 0.929 . S
H33 C5 0.929 . S
H34 C7 0.931 . S
H35 C8 0.930 . S
H36 C13 0.929 . S
H37 C14 0.929 . S
H38 C16 0.931 . S
H39 C17 0.930 . S
Pr40 C42 2.880 . S
Pr40 O60 2.562 . S
Pr40 O61 2.490 . S
Pr40 O62 2.695 . S
Pr40 O63 2.512 . S
Pr40 O65 2.437 . S
Pr40 O68 2.436 . S
Pr40 O70 2.438 1_545 S
Pr41 C51 2.880 . S
Pr41 O62 2.436 1_565 S
Pr41 O64 2.438 1_565 S
Pr41 O66 2.562 . S
Pr41 O67 2.490 . S
Pr41 O68 2.695 1_565 S
Pr41 O69 2.512 . S
Pr41 O71 2.437 . S
C42 Pr40 2.880 . S
C42 C43 1.491 . S
C42 O60 1.254 . S
C42 O61 1.225 . S
C43 C42 1.491 . S
C43 C44 1.392 . S
C43 C48 1.356 . S
C44 C43 1.392 . S
C44 C45 1.368 . S
C44 H72 0.929 . S
C45 C44 1.368 . S
C45 C46 1.386 . S
C45 H73 0.929 . S
C46 C45 1.386 . S
C46 C47 1.373 . S
C47 C46 1.373 . S
C47 C48 1.409 . S
C47 H74 0.931 . S
C48 C43 1.356 . S
C48 C47 1.409 . S
C48 H75 0.930 . S
C49 O62 1.270 . S
C49 O63 1.248 . S
C50 O64 1.267 . S
C50 O65 1.278 . S
C51 Pr41 2.880 . S
C51 C52 1.491 . S
C51 O66 1.254 . S
C51 O67 1.225 . S
C52 C51 1.491 . S
C52 C53 1.392 . S
C52 C57 1.356 . S
C53 C52 1.392 . S
C53 C54 1.368 . S
C53 H76 0.929 . S
C54 C53 1.368 . S
C54 C55 1.386 . S
C54 H77 0.929 . S
C55 C54 1.386 . S
C55 C56 1.373 . S
C56 C55 1.373 . S
C56 C57 1.409 . S
C56 H78 0.931 . S
C57 C52 1.356 . S
C57 C56 1.409 . S
C57 H79 0.930 . S
C58 O68 1.270 . S
C58 O69 1.248 1_545 S
C59 O70 1.267 . S
C59 O71 1.278 . S
O60 Pr40 2.562 . S
O60 C42 1.254 . S
O61 Pr40 2.490 . S
O61 C42 1.225 . S
O62 Pr40 2.695 . S
O62 Pr41 2.436 1_545 S
O62 C49 1.270 . S
O63 Pr40 2.512 . S
O63 C49 1.248 . S
O64 Pr41 2.438 1_545 S
O64 C50 1.267 . S
O65 Pr40 2.437 . S
O65 C50 1.278 . S
O66 Pr41 2.562 . S
O66 C51 1.254 . S
O67 Pr41 2.490 . S
O67 C51 1.225 . S
O68 Pr40 2.436 . S
O68 Pr41 2.695 1_545 S
O68 C58 1.270 . S
O69 Pr41 2.512 . S
O69 C58 1.248 1_565 S
O70 Pr40 2.438 1_565 S
O70 C59 1.267 . S
O71 Pr41 2.437 . S
O71 C59 1.278 . S
H72 C44 0.929 . S
H73 C45 0.929 . S
H74 C47 0.931 . S
H75 C48 0.930 . S
H76 C53 0.929 . S
H77 C54 0.929 . S
H78 C56 0.931 . S
H79 C57 0.930 . S
Pr80 C82 2.880 . S
Pr80 O100 2.562 . S
Pr80 O101 2.490 . S
Pr80 O102 2.695 . S
Pr80 O103 2.512 . S
Pr80 O105 2.437 . S
Pr80 O108 2.436 . S
Pr80 O110 2.438 . S
Pr81 C91 2.880 . S
Pr81 O102 2.436 . S
Pr81 O104 2.438 . S
Pr81 O106 2.562 . S
Pr81 O107 2.490 . S
Pr81 O108 2.695 . S
Pr81 O109 2.512 . S
Pr81 O111 2.437 . S
C82 Pr80 2.880 . S
C82 C83 1.491 . S
C82 O100 1.254 . S
C82 O101 1.225 . S
C83 C82 1.491 . S
C83 C84 1.392 . S
C83 C88 1.356 . S
C84 C83 1.392 . S
C84 C85 1.368 . S
C84 H112 0.929 . S
C85 C84 1.368 . S
C85 C86 1.386 . S
C85 H113 0.929 . S
C86 C85 1.386 . S
C86 C87 1.373 . S
C87 C86 1.373 . S
C87 C88 1.409 . S
C87 H114 0.931 . S
C88 C83 1.356 . S
C88 C87 1.409 . S
C88 H115 0.930 . S
C89 O102 1.270 . S
C89 O103 1.248 . S
C90 O104 1.267 . S
C90 O105 1.278 . S
C91 Pr81 2.880 . S
C91 C92 1.491 . S
C91 O106 1.254 . S
C91 O107 1.225 . S
C92 C91 1.491 . S
C92 C93 1.392 . S
C92 C97 1.356 . S
C93 C92 1.392 . S
C93 C94 1.368 . S
C93 H116 0.929 . S
C94 C93 1.368 . S
C94 C95 1.386 . S
C94 H117 0.929 . S
C95 C94 1.386 . S
C95 C96 1.373 . S
C96 C95 1.373 . S
C96 C97 1.409 . S
C96 H118 0.931 . S
C97 C92 1.356 . S
C97 C96 1.409 . S
C97 H119 0.930 . S
C98 O108 1.270 . S
C98 O109 1.248 . S
C99 O110 1.267 . S
C99 O111 1.278 . S
O100 Pr80 2.562 . S
O100 C82 1.254 . S
O101 Pr80 2.490 . S
O101 C82 1.225 . S
O102 Pr80 2.695 . S
O102 Pr81 2.436 . S
O102 C89 1.270 . S
O103 Pr80 2.512 . S
O103 C89 1.248 . S
O104 Pr81 2.438 . S
O104 C90 1.267 . S
O105 Pr80 2.437 . S
O105 C90 1.278 . S
O106 Pr81 2.562 . S
O106 C91 1.254 . S
O107 Pr81 2.490 . S
O107 C91 1.225 . S
O108 Pr80 2.436 . S
O108 Pr81 2.695 . S
O108 C98 1.270 . S
O109 Pr81 2.512 . S
O109 C98 1.248 . S
O110 Pr80 2.438 . S
O110 C99 1.267 . S
O111 Pr81 2.437 . S
O111 C99 1.278 . S
H112 C84 0.929 . S
H113 C85 0.929 . S
H114 C87 0.931 . S
H115 C88 0.930 . S
H116 C93 0.929 . S
H117 C94 0.929 . S
H118 C96 0.931 . S
H119 C97 0.930 . S
H120 C128 0.929 . S
H121 C130 0.930 . S
H122 C132 0.930 . S
H123 C135 0.929 . S
H124 C138 0.930 . S
H125 C140 0.960 . S
H126 C140 0.960 . S
H127 C140 0.960 . S
C128 H120 0.929 . S
C128 C129 1.377 . S
C128 C130 1.384 . S
C129 C128 1.377 . S
C129 C135 1.390 . S
C130 H121 0.930 . S
C130 C128 1.384 . S
C130 C131 1.372 . S
C131 C130 1.372 . S
C131 C132 1.400 . S
C131 C136 1.490 . S
C132 H122 0.930 . S
C132 C131 1.400 . S
C132 C135 1.386 . S
H133 C149 0.930 . S
H134 C150 0.931 . S
C135 H123 0.929 . S
C135 C129 1.390 . S
C135 C132 1.386 . S
C136 C131 1.490 . S
C136 C138 1.395 1_554 S
C136 C139 1.403 . S
H137 C143 0.930 . S
C138 H124 0.930 . S
C138 C136 1.395 1_556 S
C138 C141 1.403 . S
C139 C136 1.403 . S
C139 C140 1.524 . S
C139 C143 1.400 . S
C140 H125 0.960 . S
C140 H126 0.960 . S
C140 H127 0.960 . S
C140 C139 1.524 . S
C141 C138 1.403 . S
C141 C142 1.392 . S
C141 C145 1.495 . S
C142 C141 1.392 . S
C142 C143 1.385 1_556 S
C142 C144 1.478 . S
C143 H137 0.930 . S
C143 C139 1.400 . S
C143 C142 1.385 1_554 S
C144 C142 1.478 . S
C144 C146 1.381 . S
C144 C150 1.383 . S
C145 C141 1.495 . S
C145 H151 0.959 . S
C145 H152 0.961 . S
C145 H153 0.960 . S
C146 C144 1.381 . S
C146 C147 1.394 . S
C146 H154 0.930 . S
C147 C146 1.394 . S
C147 C148 1.383 . S
C147 H155 0.929 . S
C148 C147 1.383 . S
C148 C149 1.377 . S
C149 H133 0.930 . S
C149 C148 1.377 . S
C149 C150 1.379 . S
C150 H134 0.931 . S
C150 C144 1.383 . S
C150 C149 1.379 . S
H151 C145 0.959 . S
H152 C145 0.961 . S
H153 C145 0.960 . S
H154 C146 0.930 . S
H155 C147 0.929 . S
H156 C164 0.929 . S
H157 C166 0.930 . S
H158 C168 0.930 . S
H159 C171 0.929 . S
H160 C174 0.930 . S
H161 C176 0.960 . S
H162 C176 0.960 . S
H163 C176 0.960 . S
C164 H156 0.929 . S
C164 C165 1.377 . S
C164 C166 1.384 . S
C165 C164 1.377 . S
C165 C171 1.390 . S
C166 H157 0.930 . S
C166 C164 1.384 . S
C166 C167 1.372 . S
C167 C166 1.372 . S
C167 C168 1.400 . S
C167 C172 1.490 . S
C168 H158 0.930 . S
C168 C167 1.400 . S
C168 C171 1.386 . S
H169 C185 0.930 . S
H170 C186 0.931 . S
C171 H159 0.929 . S
C171 C165 1.390 . S
C171 C168 1.386 . S
C172 C167 1.490 . S
C172 C174 1.395 . S
C172 C175 1.403 . S
H173 C179 0.930 . S
C174 H160 0.930 . S
C174 C172 1.395 . S
C174 C177 1.403 . S
C175 C172 1.403 . S
C175 C176 1.524 . S
C175 C179 1.400 . S
C176 H161 0.960 . S
C176 H162 0.960 . S
C176 H163 0.960 . S
C176 C175 1.524 . S
C177 C174 1.403 . S
C177 C178 1.392 . S
C177 C181 1.495 . S
C178 C177 1.392 . S
C178 C179 1.385 . S
C178 C180 1.478 . S
C179 H173 0.930 . S
C179 C175 1.400 . S
C179 C178 1.385 . S
C180 C178 1.478 . S
C180 C182 1.381 . S
C180 C186 1.383 . S
C181 C177 1.495 . S
C181 H187 0.959 . S
C181 H188 0.961 . S
C181 H189 0.960 . S
C182 C180 1.381 . S
C182 C183 1.394 . S
C182 H190 0.930 . S
C183 C182 1.394 . S
C183 C184 1.383 . S
C183 H191 0.929 . S
C184 C183 1.383 . S
C184 C185 1.377 . S
C185 H169 0.930 . S
C185 C184 1.377 . S
C185 C186 1.379 . S
C186 H170 0.931 . S
C186 C180 1.383 . S
C186 C185 1.379 . S
H187 C181 0.959 . S
H188 C181 0.961 . S
H189 C181 0.960 . S
H190 C182 0.930 . S
H191 C183 0.929 . S
H192 C200 0.929 . S
H193 C202 0.930 . S
H194 C204 0.930 . S
H195 C207 0.929 . S
H196 C210 0.930 . S
H197 C212 0.960 . S
H198 C212 0.960 . S
H199 C212 0.960 . S
C200 H192 0.929 . S
C200 C201 1.377 . S
C200 C202 1.384 . S
C201 C200 1.377 . S
C201 C207 1.390 . S
C202 H193 0.930 . S
C202 C200 1.384 . S
C202 C203 1.372 . S
C203 C202 1.372 . S
C203 C204 1.400 . S
C203 C208 1.490 . S
C204 H194 0.930 . S
C204 C203 1.400 . S
C204 C207 1.386 . S
H205 C221 0.930 . S
H206 C222 0.931 . S
C207 H195 0.929 . S
C207 C201 1.390 . S
C207 C204 1.386 . S
C208 C203 1.490 . S
C208 C210 1.395 . S
C208 C211 1.403 . S
H209 C215 0.930 . S
C210 H196 0.930 . S
C210 C208 1.395 . S
C210 C213 1.403 . S
C211 C208 1.403 . S
C211 C212 1.524 . S
C211 C215 1.400 . S
C212 H197 0.960 . S
C212 H198 0.960 . S
C212 H199 0.960 . S
C212 C211 1.524 . S
C213 C210 1.403 . S
C213 C214 1.392 . S
C213 C217 1.495 . S
C214 C213 1.392 . S
C214 C215 1.385 . S
C214 C216 1.478 . S
C215 H209 0.930 . S
C215 C211 1.400 . S
C215 C214 1.385 . S
C216 C214 1.478 . S
C216 C218 1.381 . S
C216 C222 1.383 . S
C217 C213 1.495 . S
C217 H223 0.959 . S
C217 H224 0.961 . S
C217 H225 0.960 . S
C218 C216 1.381 . S
C218 C219 1.394 . S
C218 H226 0.930 . S
C219 C218 1.394 . S
C219 C220 1.383 . S
C219 H227 0.929 . S
C220 C219 1.383 . S
C220 C221 1.377 . S
C221 H205 0.930 . S
C221 C220 1.377 . S
C221 C222 1.379 . S
C222 H206 0.931 . S
C222 C216 1.383 . S
C222 C221 1.379 . S
H223 C217 0.959 . S
H224 C217 0.961 . S
H225 C217 0.960 . S
H226 C218 0.930 . S
H227 C219 0.929 . S
H228 C236 0.929 . S
H229 C238 0.930 . S
H230 C240 0.930 . S
H231 C243 0.929 . S
H232 C246 0.930 . S
H233 C248 0.960 . S
H234 C248 0.960 . S
H235 C248 0.960 . S
C236 H228 0.929 . S
C236 C237 1.377 . S
C236 C238 1.384 . S
C237 C236 1.377 . S
C237 C243 1.390 . S
C238 H229 0.930 . S
C238 C236 1.384 . S
C238 C239 1.372 . S
C239 C238 1.372 . S
C239 C240 1.400 . S
C239 C244 1.490 . S
C240 H230 0.930 . S
C240 C239 1.400 . S
C240 C243 1.386 . S
H241 C257 0.930 . S
H242 C258 0.931 . S
C243 H231 0.929 . S
C243 C237 1.390 . S
C243 C240 1.386 . S
C244 C239 1.490 . S
C244 C246 1.395 1_556 S
C244 C247 1.403 . S
H245 C251 0.930 . S
C246 H232 0.930 . S
C246 C244 1.395 1_554 S
C246 C249 1.403 . S
C247 C244 1.403 . S
C247 C248 1.524 . S
C247 C251 1.400 . S
C248 H233 0.960 . S
C248 H234 0.960 . S
C248 H235 0.960 . S
C248 C247 1.524 . S
C249 C246 1.403 . S
C249 C250 1.392 . S
C249 C253 1.495 . S
C250 C249 1.392 . S
C250 C251 1.385 1_554 S
C250 C252 1.478 . S
C251 H245 0.930 . S
C251 C247 1.400 . S
C251 C250 1.385 1_556 S
C252 C250 1.478 . S
C252 C254 1.381 . S
C252 C258 1.383 . S
C253 C249 1.495 . S
C253 H259 0.959 . S
C253 H260 0.961 . S
C253 H261 0.960 . S
C254 C252 1.381 . S
C254 C255 1.394 . S
C254 H262 0.930 . S
C255 C254 1.394 . S
C255 C256 1.383 . S
C255 H263 0.929 . S
C256 C255 1.383 . S
C256 C257 1.377 . S
C257 H241 0.930 . S
C257 C256 1.377 . S
C257 C258 1.379 . S
C258 H242 0.931 . S
C258 C252 1.383 . S
C258 C257 1.379 . S
H259 C253 0.959 . S
H260 C253 0.961 . S
H261 C253 0.960 . S
H262 C254 0.930 . S
H263 C255 0.929 . S
H264 C272 0.929 . S
H265 C274 0.930 . S
H266 C276 0.930 . S
H267 C279 0.929 . S
H268 C282 0.930 . S
H269 C284 0.960 . S
H270 C284 0.960 . S
H271 C284 0.960 . S
C272 H264 0.929 . S
C272 C273 1.377 . S
C272 C274 1.384 . S
C273 C272 1.377 . S
C273 C279 1.390 . S
C274 H265 0.930 . S
C274 C272 1.384 . S
C274 C275 1.372 . S
C275 C274 1.372 . S
C275 C276 1.400 . S
C275 C280 1.490 . S
C276 H266 0.930 . S
C276 C275 1.400 . S
C276 C279 1.386 . S
H277 C293 0.930 . S
H278 C294 0.931 . S
C279 H267 0.929 . S
C279 C273 1.390 . S
C279 C276 1.386 . S
C280 C275 1.490 . S
C280 C282 1.395 . S
C280 C283 1.403 . S
H281 C287 0.930 . S
C282 H268 0.930 . S
C282 C280 1.395 . S
C282 C285 1.403 . S
C283 C280 1.403 . S
C283 C284 1.524 . S
C283 C287 1.400 . S
C284 H269 0.960 . S
C284 H270 0.960 . S
C284 H271 0.960 . S
C284 C283 1.524 . S
C285 C282 1.403 . S
C285 C286 1.392 . S
C285 C289 1.495 . S
C286 C285 1.392 . S
C286 C287 1.385 . S
C286 C288 1.478 . S
C287 H281 0.930 . S
C287 C283 1.400 . S
C287 C286 1.385 . S
C288 C286 1.478 . S
C288 C290 1.381 . S
C288 C294 1.383 . S
C289 C285 1.495 . S
C289 H295 0.959 . S
C289 H296 0.961 . S
C289 H297 0.960 . S
C290 C288 1.381 . S
C290 C291 1.394 . S
C290 H298 0.930 . S
C291 C290 1.394 . S
C291 C292 1.383 . S
C291 H299 0.929 . S
C292 C291 1.383 . S
C292 C293 1.377 . S
C293 H277 0.930 . S
C293 C292 1.377 . S
C293 C294 1.379 . S
C294 H278 0.931 . S
C294 C288 1.383 . S
C294 C293 1.379 . S
H295 C289 0.959 . S
H296 C289 0.961 . S
H297 C289 0.960 . S
H298 C290 0.930 . S
H299 C291 0.929 . S
H300 C308 0.929 . S
H301 C310 0.930 . S
H302 C312 0.930 . S
H303 C315 0.929 . S
H304 C318 0.930 . S
H305 C320 0.960 . S
H306 C320 0.960 . S
H307 C320 0.960 . S
C308 H300 0.929 . S
C308 C309 1.377 . S
C308 C310 1.384 . S
C309 C308 1.377 . S
C309 C315 1.390 . S
C310 H301 0.930 . S
C310 C308 1.384 . S
C310 C311 1.372 . S
C311 C310 1.372 . S
C311 C312 1.400 . S
C311 C316 1.490 . S
C312 H302 0.930 . S
C312 C311 1.400 . S
C312 C315 1.386 . S
H313 C329 0.930 . S
H314 C330 0.931 . S
C315 H303 0.929 . S
C315 C309 1.390 . S
C315 C312 1.386 . S
C316 C311 1.490 . S
C316 C318 1.395 . S
C316 C319 1.403 . S
H317 C323 0.930 . S
C318 H304 0.930 . S
C318 C316 1.395 . S
C318 C321 1.403 . S
C319 C316 1.403 . S
C319 C320 1.524 . S
C319 C323 1.400 . S
C320 H305 0.960 . S
C320 H306 0.960 . S
C320 H307 0.960 . S
C320 C319 1.524 . S
C321 C318 1.403 . S
C321 C322 1.392 . S
C321 C325 1.495 . S
C322 C321 1.392 . S
C322 C323 1.385 . S
C322 C324 1.478 . S
C323 H317 0.930 . S
C323 C319 1.400 . S
C323 C322 1.385 . S
C324 C322 1.478 . S
C324 C326 1.381 . S
C324 C330 1.383 . S
C325 C321 1.495 . S
C325 H331 0.959 . S
C325 H332 0.961 . S
C325 H333 0.960 . S
C326 C324 1.381 . S
C326 C327 1.394 . S
C326 H334 0.930 . S
C327 C326 1.394 . S
C327 C328 1.383 . S
C327 H335 0.929 . S
C328 C327 1.383 . S
C328 C329 1.377 . S
C329 H313 0.930 . S
C329 C328 1.377 . S
C329 C330 1.379 . S
C330 H314 0.931 . S
C330 C324 1.383 . S
C330 C329 1.379 . S
H331 C325 0.959 . S
H332 C325 0.961 . S
H333 C325 0.960 . S
H334 C326 0.930 . S
H335 C327 0.929 . S
H336 C344 0.929 . S
H337 C346 0.930 . S
H338 C348 0.930 . S
H339 C351 0.929 . S
H340 C354 0.930 . S
H341 C356 0.960 . S
H342 C356 0.960 . S
H343 C356 0.960 . S
C344 H336 0.929 . S
C344 C345 1.377 . S
C344 C346 1.384 . S
C345 C344 1.377 . S
C345 C351 1.390 . S
C346 H337 0.930 . S
C346 C344 1.384 . S
C346 C347 1.372 . S
C347 C346 1.372 . S
C347 C348 1.400 . S
C347 C352 1.490 . S
C348 H338 0.930 . S
C348 C347 1.400 . S
C348 C351 1.386 . S
H349 C365 0.930 . S
H350 C366 0.931 . S
C351 H339 0.929 . S
C351 C345 1.390 . S
C351 C348 1.386 . S
C352 C347 1.490 . S
C352 C354 1.395 1_455 S
C352 C355 1.403 . S
H353 C359 0.930 . S
C354 H340 0.930 . S
C354 C352 1.395 1_655 S
C354 C357 1.403 . S
C355 C352 1.403 . S
C355 C356 1.524 . S
C355 C359 1.400 . S
C356 H341 0.960 . S
C356 H342 0.960 . S
C356 H343 0.960 . S
C356 C355 1.524 . S
C357 C354 1.403 . S
C357 C358 1.392 1_655 S
C357 C361 1.495 . S
C358 C357 1.392 1_455 S
C358 C359 1.385 . S
C358 C360 1.478 . S
C359 H353 0.930 . S
C359 C355 1.400 . S
C359 C358 1.385 . S
C360 C358 1.478 . S
C360 C362 1.381 . S
C360 C366 1.383 . S
C361 C357 1.495 . S
C361 H367 0.959 . S
C361 H368 0.961 . S
C361 H369 0.960 . S
C362 C360 1.381 . S
C362 C363 1.394 . S
C362 H370 0.930 . S
C363 C362 1.394 . S
C363 C364 1.383 . S
C363 H371 0.929 . S
C364 C363 1.383 . S
C364 C365 1.377 . S
C365 H349 0.930 . S
C365 C364 1.377 . S
C365 C366 1.379 . S
C366 H350 0.931 . S
C366 C360 1.383 . S
C366 C365 1.379 . S
H367 C361 0.959 . S
H368 C361 0.961 . S
H369 C361 0.960 . S
H370 C362 0.930 . S
H371 C363 0.929 . S
H372 C380 0.929 . S
H373 C382 0.930 . S
H374 C384 0.930 . S
H375 C387 0.929 . S
H376 C390 0.930 . S
H377 C392 0.960 . S
H378 C392 0.960 . S
H379 C392 0.960 . S
C380 H372 0.929 . S
C380 C381 1.377 . S
C380 C382 1.384 . S
C381 C380 1.377 . S
C381 C387 1.390 1_545 S
C382 H373 0.930 . S
C382 C380 1.384 . S
C382 C383 1.372 . S
C383 C382 1.372 . S
C383 C384 1.400 1_545 S
C383 C388 1.490 . S
C384 H374 0.930 . S
C384 C383 1.400 1_565 S
C384 C387 1.386 . S
H385 C401 0.930 . S
H386 C402 0.931 . S
C387 H375 0.929 . S
C387 C381 1.390 1_565 S
C387 C384 1.386 . S
C388 C383 1.490 . S
C388 C390 1.395 . S
C388 C391 1.403 1_545 S
H389 C395 0.930 . S
C390 H376 0.930 . S
C390 C388 1.395 . S
C390 C393 1.403 1_554 S
C391 C388 1.403 1_565 S
C391 C392 1.524 . S
C391 C395 1.400 1_554 S
C392 H377 0.960 . S
C392 H378 0.960 . S
C392 H379 0.960 . S
C392 C391 1.524 . S
C393 C390 1.403 1_556 S
C393 C394 1.392 . S
C393 C397 1.495 . S
C394 C393 1.392 . S
C394 C395 1.385 1_545 S
C394 C396 1.478 . S
C395 H389 0.930 . S
C395 C391 1.400 1_556 S
C395 C394 1.385 1_565 S
C396 C394 1.478 . S
C396 C398 1.381 . S
C396 C402 1.383 1_545 S
C397 C393 1.495 . S
C397 H403 0.959 . S
C397 H404 0.961 . S
C397 H405 0.960 . S
C398 C396 1.381 . S
C398 C399 1.394 . S
C398 H406 0.930 . S
C399 C398 1.394 . S
C399 C400 1.383 . S
C399 H407 0.929 . S
C400 C399 1.383 . S
C400 C401 1.377 1_545 S
C401 H385 0.930 . S
C401 C400 1.377 1_565 S
C401 C402 1.379 . S
C402 H386 0.931 . S
C402 C396 1.383 1_565 S
C402 C401 1.379 . S
H403 C397 0.959 . S
H404 C397 0.961 . S
H405 C397 0.960 . S
H406 C398 0.930 . S
H407 C399 0.929 . S
H408 C416 0.929 . S
H409 C418 0.930 . S
H410 C420 0.930 . S
H411 C423 0.929 . S
H412 C426 0.930 . S
H413 C428 0.960 . S
H414 C428 0.960 . S
H415 C428 0.960 . S
C416 H408 0.929 . S
C416 C417 1.377 . S
C416 C418 1.384 . S
C417 C416 1.377 . S
C417 C423 1.390 . S
C418 H409 0.930 . S
C418 C416 1.384 . S
C418 C419 1.372 . S
C419 C418 1.372 . S
C419 C420 1.400 . S
C419 C424 1.490 . S
C420 H410 0.930 . S
C420 C419 1.400 . S
C420 C423 1.386 . S
H421 C437 0.930 . S
H422 C438 0.931 . S
C423 H411 0.929 . S
C423 C417 1.390 . S
C423 C420 1.386 . S
C424 C419 1.490 . S
C424 C426 1.395 . S
C424 C427 1.403 . S
H425 C431 0.930 . S
C426 H412 0.930 . S
C426 C424 1.395 . S
C426 C429 1.403 . S
C427 C424 1.403 . S
C427 C428 1.524 . S
C427 C431 1.400 . S
C428 H413 0.960 . S
C428 H414 0.960 . S
C428 H415 0.960 . S
C428 C427 1.524 . S
C429 C426 1.403 . S
C429 C430 1.392 . S
C429 C433 1.495 . S
C430 C429 1.392 . S
C430 C431 1.385 . S
C430 C432 1.478 . S
C431 H425 0.930 . S
C431 C427 1.400 . S
C431 C430 1.385 . S
C432 C430 1.478 . S
C432 C434 1.381 . S
C432 C438 1.383 . S
C433 C429 1.495 . S
C433 H439 0.959 . S
C433 H440 0.961 . S
C433 H441 0.960 . S
C434 C432 1.381 . S
C434 C435 1.394 . S
C434 H442 0.930 . S
C435 C434 1.394 . S
C435 C436 1.383 . S
C435 H443 0.929 . S
C436 C435 1.383 . S
C436 C437 1.377 . S
C437 H421 0.930 . S
C437 C436 1.377 . S
C437 C438 1.379 . S
C438 H422 0.931 . S
C438 C432 1.383 . S
C438 C437 1.379 . S
H439 C433 0.959 . S
H440 C433 0.961 . S
H441 C433 0.960 . S
H442 C434 0.930 . S
H443 C435 0.929 . S
C129 C19 3.078 . S
C148 C99 3.039 . S
C165 C46 1.575 . S
C184 C6 1.589 . S
C201 C59 2.513 . S
C220 C95 2.418 . S
C237 C90 2.713 . S
C256 C10 2.741 . S
C273 C55 1.489 . S
C292 C15 1.505 . S
C309 C86 2.210 . S
C328 C50 2.155 . S
C345 C9 0.385 . S
C364 C18 0.461 . S
C381 C58 0.367 . S
C400 C49 0.303 . S
C417 C98 0.422 . S
C436 C89 0.512 1_554 S
