# Generated by pormake.
# Topology ukm, (4)-cn, num edge types: 1
# Building blocks:
#     Node 0, Type 0, BuildingBlock: QUQFOY_clean_sbu_1, # of connection points: 4
#     Node 1, Type 0, BuildingBlock: QUQFOY_clean_sbu_1, # of connection points: 4
#     Node 2, Type 0, BuildingBlock: QUQFOY_clean_sbu_1, # of connection points: 4
#     Node 3, Type 0, BuildingBlock: QUQFOY_clean_sbu_1, # of connection points: 4
#     Node 4, Type 0, BuildingBlock: QUQFOY_clean_sbu_1, # of connection points: 4
#     Node 5, Type 0, BuildingBlock: QUQFOY_clean_sbu_1, # of connection points: 4
#     Node 6, Type 0, BuildingBlock: QUQFOY_clean_sbu_1, # of connection points: 4
#     Node 7, Type 0, BuildingBlock: QUQFOY_clean_sbu_1, # of connection points: 4
#     Node 8, Type 0, BuildingBlock: QUQFOY_clean_sbu_1, # of connection points: 4
#     Node 9, Type 0, BuildingBlock: QUQFOY_clean_sbu_1, # of connection points: 4
#     Node 10, Type 0, BuildingBlock: QUQFOY_clean_sbu_1, # of connection points: 4
#     Node 11, Type 0, BuildingBlock: QUQFOY_clean_sbu_1, # of connection points: 4
#     Node 12, Type 0, BuildingBlock: QUQFOY_clean_sbu_1, # of connection points: 4
#     Node 13, Type 0, BuildingBlock: QUQFOY_clean_sbu_1, # of connection points: 4
#     Node 14, Type 0, BuildingBlock: QUQFOY_clean_sbu_1, # of connection points: 4
#     Node 15, Type 0, BuildingBlock: QUQFOY_clean_sbu_1, # of connection points: 4
#     Node 16, Type 0, BuildingBlock: QUQFOY_clean_sbu_1, # of connection points: 4
#     Node 17, Type 0, BuildingBlock: QUQFOY_clean_sbu_1, # of connection points: 4
#     Node 18, Type 0, BuildingBlock: QUQFOY_clean_sbu_1, # of connection points: 4
#     Node 19, Type 0, BuildingBlock: QUQFOY_clean_sbu_1, # of connection points: 4
#     Node 20, Type 0, BuildingBlock: QUQFOY_clean_sbu_1, # of connection points: 4
#     Node 21, Type 0, BuildingBlock: QUQFOY_clean_sbu_1, # of connection points: 4
#     Node 22, Type 0, BuildingBlock: QUQFOY_clean_sbu_1, # of connection points: 4
#     Node 23, Type 0, BuildingBlock: QUQFOY_clean_sbu_1, # of connection points: 4
#     Node 24, Type 0, BuildingBlock: QUQFOY_clean_sbu_1, # of connection points: 4
#     Node 25, Type 0, BuildingBlock: QUQFOY_clean_sbu_1, # of connection points: 4
#     Node 26, Type 0, BuildingBlock: QUQFOY_clean_sbu_1, # of connection points: 4
#     Node 27, Type 0, BuildingBlock: QUQFOY_clean_sbu_1, # of connection points: 4
#     Node 28, Type 0, BuildingBlock: QUQFOY_clean_sbu_1, # of connection points: 4
#     Node 29, Type 0, BuildingBlock: QUQFOY_clean_sbu_1, # of connection points: 4
#     Node 30, Type 0, BuildingBlock: QUQFOY_clean_sbu_1, # of connection points: 4
#     Node 31, Type 0, BuildingBlock: QUQFOY_clean_sbu_1, # of connection points: 4
#     Edge 32, Type (0, 0), BuildingBlock: XIVTED_clean_linker_0, # of connection points: 2
#     Edge 33, Type (0, 0), BuildingBlock: XIVTED_clean_linker_0, # of connection points: 2
#     Edge 34, Type (0, 0), BuildingBlock: XIVTED_clean_linker_0, # of connection points: 2
#     Edge 35, Type (0, 0), BuildingBlock: XIVTED_clean_linker_0, # of connection points: 2
#     Edge 36, Type (0, 0), BuildingBlock: XIVTED_clean_linker_0, # of connection points: 2
#     Edge 37, Type (0, 0), BuildingBlock: XIVTED_clean_linker_0, # of connection points: 2
#     Edge 38, Type (0, 0), BuildingBlock: XIVTED_clean_linker_0, # of connection points: 2
#     Edge 39, Type (0, 0), BuildingBlock: XIVTED_clean_linker_0, # of connection points: 2
#     Edge 40, Type (0, 0), BuildingBlock: XIVTED_clean_linker_0, # of connection points: 2
#     Edge 41, Type (0, 0), BuildingBlock: XIVTED_clean_linker_0, # of connection points: 2
#     Edge 42, Type (0, 0), BuildingBlock: XIVTED_clean_linker_0, # of connection points: 2
#     Edge 43, Type (0, 0), BuildingBlock: XIVTED_clean_linker_0, # of connection points: 2
#     Edge 44, Type (0, 0), BuildingBlock: XIVTED_clean_linker_0, # of connection points: 2
#     Edge 45, Type (0, 0), BuildingBlock: XIVTED_clean_linker_0, # of connection points: 2
#     Edge 46, Type (0, 0), BuildingBlock: XIVTED_clean_linker_0, # of connection points: 2
#     Edge 47, Type (0, 0), BuildingBlock: XIVTED_clean_linker_0, # of connection points: 2
#     Edge 48, Type (0, 0), BuildingBlock: XIVTED_clean_linker_0, # of connection points: 2
#     Edge 49, Type (0, 0), BuildingBlock: XIVTED_clean_linker_0, # of connection points: 2
#     Edge 50, Type (0, 0), BuildingBlock: XIVTED_clean_linker_0, # of connection points: 2
#     Edge 51, Type (0, 0), BuildingBlock: XIVTED_clean_linker_0, # of connection points: 2
#     Edge 52, Type (0, 0), BuildingBlock: XIVTED_clean_linker_0, # of connection points: 2
#     Edge 53, Type (0, 0), BuildingBlock: XIVTED_clean_linker_0, # of connection points: 2
#     Edge 54, Type (0, 0), BuildingBlock: XIVTED_clean_linker_0, # of connection points: 2
#     Edge 55, Type (0, 0), BuildingBlock: XIVTED_clean_linker_0, # of connection points: 2
#     Edge 56, Type (0, 0), BuildingBlock: XIVTED_clean_linker_0, # of connection points: 2
#     Edge 57, Type (0, 0), BuildingBlock: XIVTED_clean_linker_0, # of connection points: 2
#     Edge 58, Type (0, 0), BuildingBlock: XIVTED_clean_linker_0, # of connection points: 2
#     Edge 59, Type (0, 0), BuildingBlock: XIVTED_clean_linker_0, # of connection points: 2
#     Edge 60, Type (0, 0), BuildingBlock: XIVTED_clean_linker_0, # of connection points: 2
#     Edge 61, Type (0, 0), BuildingBlock: XIVTED_clean_linker_0, # of connection points: 2
#     Edge 62, Type (0, 0), BuildingBlock: XIVTED_clean_linker_0, # of connection points: 2
#     Edge 63, Type (0, 0), BuildingBlock: XIVTED_clean_linker_0, # of connection points: 2
#     Edge 64, Type (0, 0), BuildingBlock: XIVTED_clean_linker_0, # of connection points: 2
#     Edge 65, Type (0, 0), BuildingBlock: XIVTED_clean_linker_0, # of connection points: 2
#     Edge 66, Type (0, 0), BuildingBlock: XIVTED_clean_linker_0, # of connection points: 2
#     Edge 67, Type (0, 0), BuildingBlock: XIVTED_clean_linker_0, # of connection points: 2
#     Edge 68, Type (0, 0), BuildingBlock: XIVTED_clean_linker_0, # of connection points: 2
#     Edge 69, Type (0, 0), BuildingBlock: XIVTED_clean_linker_0, # of connection points: 2
#     Edge 70, Type (0, 0), BuildingBlock: XIVTED_clean_linker_0, # of connection points: 2
#     Edge 71, Type (0, 0), BuildingBlock: XIVTED_clean_linker_0, # of connection points: 2
#     Edge 72, Type (0, 0), BuildingBlock: XIVTED_clean_linker_0, # of connection points: 2
#     Edge 73, Type (0, 0), BuildingBlock: XIVTED_clean_linker_0, # of connection points: 2
#     Edge 74, Type (0, 0), BuildingBlock: XIVTED_clean_linker_0, # of connection points: 2
#     Edge 75, Type (0, 0), BuildingBlock: XIVTED_clean_linker_0, # of connection points: 2
#     Edge 76, Type (0, 0), BuildingBlock: XIVTED_clean_linker_0, # of connection points: 2
#     Edge 77, Type (0, 0), BuildingBlock: XIVTED_clean_linker_0, # of connection points: 2
#     Edge 78, Type (0, 0), BuildingBlock: XIVTED_clean_linker_0, # of connection points: 2
#     Edge 79, Type (0, 0), BuildingBlock: XIVTED_clean_linker_0, # of connection points: 2
#     Edge 80, Type (0, 0), BuildingBlock: XIVTED_clean_linker_0, # of connection points: 2
#     Edge 81, Type (0, 0), BuildingBlock: XIVTED_clean_linker_0, # of connection points: 2
#     Edge 82, Type (0, 0), BuildingBlock: XIVTED_clean_linker_0, # of connection points: 2
#     Edge 83, Type (0, 0), BuildingBlock: XIVTED_clean_linker_0, # of connection points: 2
#     Edge 84, Type (0, 0), BuildingBlock: XIVTED_clean_linker_0, # of connection points: 2
#     Edge 85, Type (0, 0), BuildingBlock: XIVTED_clean_linker_0, # of connection points: 2
#     Edge 86, Type (0, 0), BuildingBlock: XIVTED_clean_linker_0, # of connection points: 2
#     Edge 87, Type (0, 0), BuildingBlock: XIVTED_clean_linker_0, # of connection points: 2
#     Edge 88, Type (0, 0), BuildingBlock: XIVTED_clean_linker_0, # of connection points: 2
#     Edge 89, Type (0, 0), BuildingBlock: XIVTED_clean_linker_0, # of connection points: 2
#     Edge 90, Type (0, 0), BuildingBlock: XIVTED_clean_linker_0, # of connection points: 2
#     Edge 91, Type (0, 0), BuildingBlock: XIVTED_clean_linker_0, # of connection points: 2
#     Edge 92, Type (0, 0), BuildingBlock: XIVTED_clean_linker_0, # of connection points: 2
#     Edge 93, Type (0, 0), BuildingBlock: XIVTED_clean_linker_0, # of connection points: 2
#     Edge 94, Type (0, 0), BuildingBlock: XIVTED_clean_linker_0, # of connection points: 2
#     Edge 95, Type (0, 0), BuildingBlock: XIVTED_clean_linker_0, # of connection points: 2
# Relax obj value: 0.230
# Max RMSD: 0.208
# Mean RMSD: 0.208
data_MOF--net-ukm--node1-QUQFOY_clean_sbu_1--edge1-XIVTED_clean_linker_0
_symmetry_space_group_name_H-M    P1
_symmetry_Int_Tables_number       1
_symmetry_cell_setting            triclinic
loop_
_symmetry_equiv_pos_as_xyz
'x, y, z'
_cell_length_a     31.084003
_cell_length_b     107.19539
_cell_length_c     40.323644
_cell_angle_alpha  89.986068
_cell_angle_beta   89.9893
_cell_angle_gamma 89.993208
loop_
_atom_site_label
_atom_site_type_symbol
_atom_site_fract_x
_atom_site_fract_y
_atom_site_fract_z
_atom_type_partial_charge
O0 O 0.13418 0.32472 0.3296 0.0
Cd1 Cd 0.15745 0.30886 0.30662 0.0
Cd2 Cd 0.06804 0.30772 0.3028 0.0
O3 O 0.06448 0.32192 0.33651 0.0
O4 O 0.21784 0.31465 0.30269 0.0
O5 O 0.20094 0.29776 0.33071 0.0
C6 C 0.23009 0.30543 0.32059 0.0
C7 C 0.04136 0.28778 0.3036 0.0
C8 C 0.0981 0.32845 0.34071 0.0
C9 C 0.11374 0.31029 0.24042 0.0
O10 O 0.07924 0.31317 0.25529 0.0
O11 O 0.14635 0.30661 0.25663 0.0
O12 O 0.01588 0.29724 0.30034 0.0
O13 O 0.08134 0.28984 0.31087 0.0
O14 O 0.12612 0.92188 0.33081 0.0
Cd15 Cd 0.09708 0.93564 0.30276 0.0
Cd16 Cd 0.18654 0.93807 0.29261 0.0
O17 O 0.19611 0.9253 0.32965 0.0
O18 O 0.03749 0.92917 0.30735 0.0
O19 O 0.0554 0.94791 0.32466 0.0
C20 C 0.02643 0.93938 0.32154 0.0
C21 C 0.21148 0.95821 0.28708 0.0
C22 C 0.16407 0.91902 0.33979 0.0
C23 C 0.13449 0.93131 0.23468 0.0
O24 O 0.17146 0.93061 0.24777 0.0
O25 O 0.10206 0.9346 0.25177 0.0
O26 O 0.23724 0.9488 0.28412 0.0
O27 O 0.17248 0.95614 0.29698 0.0
O28 O 0.12265 0.92069 0.894 0.0
Cd29 Cd 0.1515 0.93463 0.92158 0.0
Cd30 Cd 0.06233 0.93764 0.92978 0.0
O31 O 0.05301 0.92469 0.89328 0.0
O32 O 0.2111 0.92795 0.91947 0.0
O33 O 0.19484 0.94651 0.90004 0.0
C34 C 0.22345 0.93801 0.90513 0.0
C35 C 0.03917 0.95795 0.93368 0.0
C36 C 0.08475 0.91803 0.88442 0.0
C37 C 0.11138 0.93107 -0.01087 0.0
O38 O 0.07479 0.93042 0.9754 0.0
O39 O 0.14447 0.93407 0.97245 0.0
O40 O 0.0124 0.94878 0.93648 0.0
O41 O 0.0783 0.95552 0.92473 0.0
O42 O 0.09845 0.32688 0.90754 0.0
Cd43 Cd 0.08197 0.30963 0.92673 0.0
Cd44 Cd 0.16735 0.30949 0.93014 0.0
O45 O 0.16759 0.32419 0.89762 0.0
O46 O 0.01802 0.3101 0.92589 0.0
O47 O 0.05562 0.29656 0.89655 0.0
C48 C 0.01868 0.30093 0.9054 0.0
C49 C 0.1957 0.28975 0.92715 0.0
C50 C 0.13389 0.33087 0.89581 0.0
C51 C 0.12304 0.31086 -0.0068 0.0
O52 O 0.15703 0.31423 0.97837 0.0
O53 O 0.0909 0.30698 0.97677 0.0
O54 O 0.22051 0.29935 0.93065 0.0
O55 O 0.15535 0.29162 0.9208 0.0
O56 O 0.91683 0.68339 0.72159 0.0
Cd57 Cd 0.92713 0.68939 0.67438 0.0
Cd58 Cd 0.84203 0.68824 0.67038 0.0
O59 O 0.85005 0.69011 0.72076 0.0
O60 O 0.97929 0.69987 0.67739 0.0
O61 O 0.91375 0.70736 0.6677 0.0
C62 C 0.95375 0.70935 0.675 0.0
C63 C 0.77698 0.6963 0.6503 0.0
C64 C 0.8824 0.68612 0.73673 0.0
C65 C 0.89812 0.6682 0.63779 0.0
O66 O 0.86197 0.67154 0.64972 0.0
O67 O 0.9305 0.67539 0.64003 0.0
O68 O 0.77824 0.68674 0.66949 0.0
O69 O 0.81297 0.70137 0.64182 0.0
O70 O 0.84114 0.06363 0.72791 0.0
Cd71 Cd 0.83146 0.05897 0.6795 0.0
Cd72 Cd 0.91752 0.06079 0.6763 0.0
O73 O 0.90884 0.05773 0.7262 0.0
O74 O 0.77884 0.04862 0.68004 0.0
O75 O 0.8441 0.04119 0.66914 0.0
C76 C 0.8039 0.03914 0.67562 0.0
C77 C 0.98423 0.05392 0.65608 0.0
C78 C 0.87587 0.06093 0.74268 0.0
C79 C 0.86011 0.08115 0.64636 0.0
O80 O 0.89642 0.07774 0.65783 0.0
O81 O 0.82803 0.07382 0.6477 0.0
O82 O 0.98114 0.06302 0.67665 0.0
O83 O 0.94918 0.04862 0.64631 0.0
O84 O 0.92678 0.06417 0.00351 0.0
Cd85 Cd 0.94012 0.05793 0.04997 0.0
Cd86 Cd 0.85056 0.06077 0.05757 0.0
O87 O 0.85767 0.05977 0.00679 0.0
O88 O 0.99086 0.04702 0.04418 0.0
O89 O 0.92564 0.04005 0.05717 0.0
C90 C 0.96481 0.03773 0.04808 0.0
C91 C 0.7788 0.05785 0.07467 0.0
C92 C 0.89053 0.06267 -0.01027 0.0
C93 C 0.91699 0.07831 0.09228 0.0
O94 O 0.87932 0.07536 0.08277 0.0
O95 O 0.94903 0.07155 0.08475 0.0
O96 O 0.79111 0.06756 0.05871 0.0
O97 O 0.80727 0.04942 0.08093 0.0
O98 O 0.83145 0.68337 -0.00141 0.0
Cd99 Cd 0.82218 0.68985 0.04546 0.0
Cd100 Cd 0.90758 0.68892 0.04911 0.0
O101 O 0.89825 0.69012 -0.00129 0.0
O102 O 0.7719 0.70107 0.04249 0.0
O103 O 0.839 0.70761 0.05079 0.0
C104 C 0.79925 0.71016 0.04386 0.0
C105 C 0.97347 0.69702 0.06732 0.0
C106 C 0.86576 0.68598 0.98314 0.0
C107 C 0.85221 0.66934 0.08447 0.0
O108 O 0.88818 0.67262 0.07212 0.0
O109 O 0.81935 0.67628 0.08112 0.0
O110 O 0.97133 0.68724 0.04903 0.0
O111 O 0.93793 0.70234 0.07586 0.0
O112 O 0.12796 0.82481 0.82892 0.0
Cd113 Cd 0.15747 0.80997 0.80529 0.0
Cd114 Cd 0.06787 0.80685 0.79796 0.0
O115 O 0.05882 0.82043 0.83284 0.0
O116 O 0.2165 0.8171 0.80539 0.0
O117 O 0.20187 0.79916 0.82923 0.0
C118 C 0.22973 0.80763 0.82191 0.0
C119 C 0.04025 0.78698 0.79438 0.0
C120 C 0.09032 0.82761 0.83888 0.0
C121 C 0.11757 0.81154 0.73781 0.0
O122 O 0.08159 0.81332 0.75178 0.0
O123 O 0.15027 0.80839 0.7547 0.0
O124 O 0.01567 0.79662 0.79105 0.0
O125 O 0.07955 0.7887 0.80401 0.0
O126 O 0.10065 0.42491 0.82811 0.0
Cd127 Cd 0.08438 0.44052 0.80083 0.0
Cd128 Cd 0.16995 0.44075 0.79805 0.0
O129 O 0.17029 0.42778 0.83542 0.0
O130 O 0.02052 0.43979 0.80074 0.0
O131 O 0.0564 0.45527 0.82392 0.0
C132 C 0.02002 0.45019 0.81655 0.0
C133 C 0.1948 0.46091 0.79534 0.0
C134 C 0.13627 0.42152 0.84078 0.0
C135 C 0.12716 0.43539 0.73585 0.0
O136 O 0.16164 0.43353 0.75183 0.0
O137 O 0.09417 0.4397 0.75044 0.0
O138 O 0.22129 0.4516 0.79512 0.0
O139 O 0.15456 0.45872 0.80133 0.0
O140 O 0.14529 0.42253 0.39887 0.0
Cd141 Cd 0.16504 0.43826 0.42434 0.0
Cd142 Cd 0.07892 0.43945 0.42792 0.0
O143 O 0.07616 0.42625 0.39136 0.0
O144 O 0.22867 0.43627 0.42443 0.0
O145 O 0.1964 0.45211 0.39986 0.0
C146 C 0.23155 0.44644 0.40774 0.0
C147 C 0.05299 0.4595 0.43027 0.0
C148 C 0.10907 0.41946 0.38662 0.0
C149 C 0.12271 0.43434 0.48995 0.0
O150 O 0.08797 0.43248 0.47432 0.0
O151 O 0.15577 0.43834 0.47485 0.0
O152 O 0.02708 0.45007 0.43127 0.0
O153 O 0.09319 0.45747 0.42373 0.0
O154 O 0.11409 0.82563 0.40431 0.0
Cd155 Cd 0.09178 0.80906 0.42437 0.0
Cd156 Cd 0.17892 0.80732 0.42893 0.0
O157 O 0.18269 0.82159 0.39523 0.0
O158 O 0.02838 0.81189 0.42494 0.0
O159 O 0.05832 0.79682 0.39574 0.0
C160 C 0.02398 0.80255 0.40528 0.0
C161 C 0.20883 0.78766 0.42928 0.0
C162 C 0.15058 0.82888 0.39282 0.0
C163 C 0.13265 0.81021 0.49097 0.0
O164 O 0.16741 0.81294 0.47629 0.0
O165 O 0.10025 0.80653 0.47451 0.0
O166 O 0.23267 0.79747 0.43236 0.0
O167 O 0.16869 0.78916 0.42162 0.0
O168 O 0.91925 0.18176 0.22915 0.0
Cd169 Cd 0.934 0.18881 0.18371 0.0
Cd170 Cd 0.84542 0.18579 0.17449 0.0
O171 O 0.85005 0.18598 0.22553 0.0
O172 O 0.98569 0.19913 0.19184 0.0
O173 O 0.9218 0.20697 0.17859 0.0
C174 C 0.96093 0.20873 0.18855 0.0
C175 C 0.775 0.18933 0.15491 0.0
C176 C 0.8826 0.18281 0.24261 0.0
C177 C 0.9131 0.16868 0.14004 0.0
O178 O 0.8751 0.17132 0.14944 0.0
O179 O 0.94439 0.1757 0.14781 0.0
O180 O 0.78564 0.17938 0.17058 0.0
O181 O 0.80437 0.19765 0.15046 0.0
O182 O 0.83505 0.56646 0.22879 0.0
Cd183 Cd 0.82168 0.5595 0.18304 0.0
Cd184 Cd 0.9111 0.56159 0.17588 0.0
O185 O 0.90424 0.562 0.22677 0.0
O186 O 0.76903 0.54943 0.18962 0.0
O187 O 0.83312 0.5413 0.17825 0.0
C188 C 0.79342 0.53971 0.18702 0.0
C189 C 0.98141 0.55719 0.15761 0.0
C190 C 0.87116 0.56533 0.24304 0.0
C191 C 0.84724 0.57904 0.13857 0.0
O192 O 0.88452 0.57601 0.14874 0.0
O193 O 0.81459 0.57261 0.14662 0.0
O194 O 0.97166 0.56738 0.17251 0.0
O195 O 0.95131 0.54905 0.15361 0.0
O196 O 0.92675 0.56499 0.50346 0.0
Cd197 Cd 0.93911 0.55796 0.54929 0.0
Cd198 Cd 0.8495 0.56002 0.55563 0.0
O199 O 0.85736 0.56075 0.50485 0.0
O200 O 0.99136 0.54765 0.54339 0.0
O201 O 0.92658 0.53981 0.55392 0.0
C202 C 0.96638 0.53805 0.54563 0.0
C203 C 0.77864 0.55564 0.57274 0.0
C204 C 0.89077 0.56404 0.48892 0.0
C205 C 0.91264 0.57737 0.59392 0.0
O206 O 0.87551 0.5743 0.58352 0.0
O207 O 0.94554 0.57105 0.58583 0.0
O208 O 0.78894 0.56588 0.55833 0.0
O209 O 0.8085 0.54744 0.57692 0.0
O210 O 0.82784 0.18295 0.50307 0.0
Cd211 Cd 0.81626 0.19026 0.54871 0.0
Cd212 Cd 0.90642 0.18813 0.55535 0.0
O213 O 0.89717 0.18726 0.50471 0.0
O214 O 0.76572 0.20126 0.54303 0.0
O215 O 0.83195 0.20818 0.55285 0.0
C216 C 0.79237 0.2105 0.54486 0.0
C217 C 0.97894 0.19164 0.56982 0.0
C218 C 0.86393 0.18391 0.48868 0.0
C219 C 0.84273 0.17137 0.59515 0.0
O220 O 0.87997 0.17433 0.58474 0.0
O221 O 0.80982 0.1775 0.58608 0.0
O222 O 0.9661 0.18153 0.55599 0.0
O223 O 0.95055 0.20017 0.57525 0.0
O224 O 0.65027 0.32695 0.81839 0.0
Cd225 Cd 0.66704 0.3109 0.79325 0.0
Cd226 Cd 0.58128 0.31062 0.79003 0.0
O227 O 0.58072 0.3241 0.82615 0.0
O228 O 0.73098 0.31175 0.79371 0.0
O229 O 0.69501 0.29662 0.81838 0.0
C230 C 0.73143 0.30165 0.81089 0.0
C231 C 0.55595 0.29048 0.78916 0.0
C232 C 0.61461 0.33051 0.83067 0.0
C233 C 0.62499 0.3151 0.7276 0.0
O234 O 0.59036 0.3172 0.74319 0.0
O235 O 0.65778 0.31094 0.74276 0.0
O236 O 0.52967 0.29983 0.7879 0.0
O237 O 0.59619 0.29268 0.79512 0.0
O238 O 0.63243 0.92252 0.83163 0.0
Cd239 Cd 0.59899 0.93553 0.80383 0.0
Cd240 Cd 0.68821 0.9395 0.79135 0.0
O241 O 0.7015 0.92718 0.82865 0.0
O242 O 0.54114 0.92798 0.81001 0.0
O243 O 0.5552 0.94719 0.82568 0.0
C244 C 0.52805 0.93813 0.82345 0.0
C245 C 0.71457 0.95941 0.78351 0.0
C246 C 0.67131 0.9204 0.83974 0.0
C247 C 0.63452 0.93143 0.73515 0.0
O248 O 0.67202 0.93148 0.74744 0.0
O249 O 0.60211 0.93428 0.75278 0.0
O250 O 0.7392 0.94978 0.78033 0.0
O251 O 0.67593 0.95774 0.79464 0.0
O252 O 0.62542 0.92185 0.39425 0.0
Cd253 Cd 0.65239 0.93567 0.4232 0.0
Cd254 Cd 0.56233 0.9381 0.43037 0.0
O255 O 0.5554 0.92525 0.39307 0.0
O256 O 0.71215 0.9291 0.42231 0.0
O257 O 0.69633 0.94769 0.40286 0.0
C258 C 0.72485 0.9392 0.40835 0.0
C259 C 0.53858 0.9584 0.43438 0.0
C260 C 0.58801 0.91897 0.38406 0.0
C261 C 0.61049 0.93146 0.49006 0.0
O262 O 0.57416 0.93074 0.47595 0.0
O263 O 0.64372 0.93471 0.47386 0.0
O264 O 0.51193 0.94917 0.43648 0.0
O265 O 0.57804 0.95606 0.42614 0.0
O266 O 0.63164 0.32564 0.38668 0.0
Cd267 Cd 0.60584 0.31158 0.41546 0.0
Cd268 Cd 0.69481 0.31 0.42289 0.0
O269 O 0.70184 0.32268 0.38543 0.0
O270 O 0.54553 0.31753 0.41279 0.0
O271 O 0.5644 0.29892 0.39505 0.0
C272 C 0.53478 0.3072 0.39908 0.0
C273 C 0.71897 0.28982 0.42767 0.0
C274 C 0.66881 0.32876 0.37645 0.0
C275 C 0.6458 0.31639 0.48228 0.0
O276 O 0.68196 0.31752 0.46808 0.0
O277 O 0.61309 0.31269 0.4662 0.0
O278 O 0.74541 0.29911 0.42963 0.0
O279 O 0.67955 0.29203 0.41907 0.0
O280 O 0.40863 0.6824 0.22201 0.0
Cd281 Cd 0.4175 0.68974 0.17604 0.0
Cd282 Cd 0.33153 0.68818 0.17246 0.0
O283 O 0.34067 0.68808 0.22302 0.0
O284 O 0.46959 0.70024 0.18034 0.0
O285 O 0.40379 0.70787 0.17298 0.0
C286 C 0.44397 0.70975 0.17986 0.0
C287 C 0.26545 0.69653 0.15552 0.0
C288 C 0.37396 0.6841 0.23786 0.0
C289 C 0.38812 0.66981 0.1339 0.0
O290 O 0.35179 0.67263 0.14643 0.0
O291 O 0.42064 0.67676 0.13883 0.0
O292 O 0.26786 0.6863 0.17199 0.0
O293 O 0.30084 0.70218 0.14813 0.0
O294 O 0.32247 0.06505 0.21899 0.0
Cd295 Cd 0.30958 0.05876 0.17246 0.0
Cd296 Cd 0.39902 0.06174 0.1652 0.0
O297 O 0.39165 0.06072 0.21589 0.0
O298 O 0.25865 0.04787 0.17795 0.0
O299 O 0.32393 0.04082 0.16552 0.0
C300 C 0.28461 0.03855 0.17429 0.0
C301 C 0.47121 0.05892 0.14883 0.0
C302 C 0.35874 0.06365 0.23283 0.0
C303 C 0.33286 0.07944 0.13095 0.0
O304 O 0.37049 0.07651 0.14061 0.0
O305 O 0.30099 0.07249 0.13776 0.0
O306 O 0.45845 0.06858 0.1648 0.0
O307 O 0.44289 0.05052 0.14194 0.0
O308 O 0.42048 0.065 0.49343 0.0
Cd309 Cd 0.43126 0.05929 0.54086 0.0
Cd310 Cd 0.34492 0.06114 0.54594 0.0
O311 O 0.35265 0.05923 0.49554 0.0
O312 O 0.4826 0.04841 0.53812 0.0
O313 O 0.41666 0.04145 0.54882 0.0
C314 C 0.45646 0.03912 0.54155 0.0
C315 C 0.27779 0.05421 0.56525 0.0
C316 C 0.38522 0.0627 0.47895 0.0
C317 C 0.40379 0.08071 0.57817 0.0
O318 O 0.36705 0.07752 0.56709 0.0
O319 O 0.43594 0.0735 0.57471 0.0
O320 O 0.28147 0.06376 0.54626 0.0
O321 O 0.31249 0.04848 0.57398 0.0
O322 O 0.33928 0.68232 0.49999 0.0
Cd323 Cd 0.33073 0.6895 0.54619 0.0
Cd324 Cd 0.41708 0.68819 0.5491 0.0
O325 O 0.40712 0.68813 0.49864 0.0
O326 O 0.27822 0.69988 0.54263 0.0
O327 O 0.34393 0.70765 0.54935 0.0
C328 C 0.30356 0.70944 0.54294 0.0
C329 C 0.48337 0.69657 0.56553 0.0
C330 C 0.37376 0.68412 0.48396 0.0
C331 C 0.36163 0.66959 0.5879 0.0
O332 O 0.39769 0.67257 0.5752 0.0
O333 O 0.32871 0.6764 0.58321 0.0
O334 O 0.4808 0.68637 0.54894 0.0
O335 O 0.44805 0.70218 0.57326 0.0
O336 O 0.63898 0.82529 0.3165 0.0
Cd337 Cd 0.66057 0.80845 0.29759 0.0
Cd338 Cd 0.573 0.8073 0.29169 0.0
O339 O 0.56968 0.82192 0.32434 0.0
O340 O 0.72404 0.81111 0.29704 0.0
O341 O 0.69353 0.79646 0.32737 0.0
C342 C 0.72807 0.802 0.31749 0.0
C343 C 0.54201 0.7878 0.29246 0.0
C344 C 0.60248 0.82892 0.32714 0.0
C345 C 0.62117 0.80908 0.23028 0.0
O346 O 0.58633 0.8123 0.24412 0.0
O347 O 0.65276 0.80536 0.24759 0.0
O348 O 0.51881 0.79768 0.28814 0.0
O349 O 0.58198 0.78921 0.30073 0.0
O350 O 0.61092 0.42259 0.32048 0.0
Cd351 Cd 0.59051 0.43942 0.30082 0.0
Cd352 Cd 0.67567 0.44109 0.29837 0.0
O353 O 0.67874 0.42679 0.33184 0.0
O354 O 0.52682 0.43762 0.30067 0.0
O355 O 0.56005 0.45214 0.32984 0.0
C356 C 0.52456 0.44699 0.32046 0.0
C357 C 0.70332 0.46095 0.29947 0.0
C358 C 0.64692 0.41937 0.33287 0.0
C359 C 0.63265 0.43822 0.23508 0.0
O360 O 0.66681 0.43553 0.25061 0.0
O361 O 0.59962 0.44189 0.25076 0.0
O362 O 0.7284 0.45137 0.29683 0.0
O363 O 0.66302 0.45907 0.30593 0.0
O364 O 0.65252 0.42487 0.90008 0.0
Cd365 Cd 0.66753 0.44153 0.92316 0.0
Cd366 Cd 0.58242 0.44152 0.92455 0.0
O367 O 0.58349 0.42759 0.88976 0.0
O368 O 0.73143 0.44116 0.92421 0.0
O369 O 0.69506 0.45546 0.89649 0.0
C370 C 0.7316 0.45089 0.90561 0.0
C371 C 0.55723 0.46163 0.92369 0.0
C372 C 0.61754 0.4211 0.88714 0.0
C373 C 0.62334 0.4385 -0.01171 0.0
O374 O 0.5898 0.43563 0.97218 0.0
O375 O 0.65622 0.44268 0.97329 0.0
O376 O 0.53083 0.4523 0.92476 0.0
O377 O 0.59763 0.45939 0.9185 0.0
O378 O 0.63611 0.82681 0.89439 0.0
Cd379 Cd 0.60801 0.81119 0.91533 0.0
Cd380 Cd 0.69694 0.80878 0.92378 0.0
O381 O 0.70573 0.82309 0.89092 0.0
O382 O 0.5479 0.8175 0.91441 0.0
O383 O 0.56663 0.80017 0.889 0.0
C384 C 0.53707 0.80813 0.89646 0.0
C385 C 0.72383 0.78882 0.92479 0.0
C386 C 0.67365 0.83013 0.88543 0.0
C387 C 0.64549 0.8118 0.98371 0.0
O388 O 0.68168 0.81416 0.97068 0.0
O389 O 0.61363 0.80875 0.96579 0.0
O390 O 0.74873 0.7983 0.92967 0.0
O391 O 0.68481 0.79085 0.91488 0.0
O392 O 0.43087 0.18378 0.72187 0.0
Cd393 Cd 0.44496 0.19052 0.67603 0.0
Cd394 Cd 0.35473 0.18877 0.66791 0.0
O395 O 0.36206 0.18864 0.71876 0.0
O396 O 0.49695 0.20092 0.68238 0.0
O397 O 0.43237 0.20863 0.67055 0.0
C398 C 0.47191 0.21049 0.67939 0.0
C399 C 0.28312 0.19242 0.65118 0.0
C400 C 0.39452 0.1852 0.73558 0.0
C401 C 0.41867 0.17106 0.63124 0.0
O402 O 0.38137 0.17434 0.64082 0.0
O403 O 0.45166 0.17723 0.63991 0.0
O404 O 0.29468 0.18246 0.66638 0.0
O405 O 0.31224 0.20074 0.64572 0.0
O406 O 0.33397 0.56505 0.72443 0.0
Cd407 Cd 0.31644 0.55891 0.67862 0.0
Cd408 Cd 0.40444 0.5577 0.67243 0.0
O409 O 0.39138 0.55317 0.72133 0.0
O410 O 0.26296 0.54918 0.68509 0.0
O411 O 0.32606 0.54076 0.67176 0.0
C412 C 0.28652 0.53934 0.68125 0.0
C413 C 0.4766 0.55395 0.65755 0.0
C414 C 0.3643 0.55923 0.7385 0.0
C415 C 0.34849 0.57884 0.64094 0.0
O416 O 0.38359 0.5746 0.65271 0.0
O417 O 0.3141 0.57253 0.64347 0.0
O418 O 0.46571 0.56252 0.67812 0.0
O419 O 0.44637 0.54709 0.64545 0.0
O420 O 0.41908 0.56547 -0.00257 0.0
Cd421 Cd 0.43939 0.55948 0.04272 0.0
Cd422 Cd 0.35188 0.55754 0.05109 0.0
O423 O 0.36392 0.5528 0.00217 0.0
O424 O 0.49335 0.55014 0.03477 0.0
O425 O 0.43154 0.54128 0.04964 0.0
C426 C 0.47071 0.54014 0.03904 0.0
C427 C 0.28046 0.55348 0.06738 0.0
C428 C 0.38927 0.55916 0.9842 0.0
C429 C 0.40715 0.57914 0.08103 0.0
O430 O 0.37204 0.57464 0.07 0.0
O431 O 0.44196 0.57307 0.07788 0.0
O432 O 0.29016 0.56197 0.04621 0.0
O433 O 0.31149 0.54685 0.07922 0.0
O434 O 0.32669 0.18343 -0.00555 0.0
Cd435 Cd 0.31183 0.19018 0.04013 0.0
Cd436 Cd 0.40183 0.18721 0.04927 0.0
O437 O 0.39585 0.18771 -0.00167 0.0
O438 O 0.25951 0.20032 0.03247 0.0
O439 O 0.32302 0.20839 0.0457 0.0
C440 C 0.28374 0.21002 0.03593 0.0
C441 C 0.47353 0.18999 0.06708 0.0
C442 C 0.36334 0.18463 0.9811 0.0
C443 C 0.33418 0.17 0.08381 0.0
O444 O 0.37214 0.17282 0.07466 0.0
O445 O 0.30249 0.17681 0.07565 0.0
O446 O 0.46108 0.18026 0.05124 0.0
O447 O 0.44523 0.19851 0.07282 0.0
H448 H 0.17282 0.40419 0.36461 0.0
H449 H 0.02634 0.34341 0.34658 0.0
H450 H 0.03519 0.40566 0.37854 0.0
H451 H 0.16398 0.34321 0.36103 0.0
H452 H 0.02646 0.36615 0.35437 0.0
H453 H 0.16769 0.38185 0.35508 0.0
C454 C 0.14136 0.39984 0.36508 0.0
C455 C 0.10445 0.40678 0.37274 0.0
C456 C 0.05646 0.36106 0.35617 0.0
C457 C 0.09843 0.38108 0.36261 0.0
C458 C 0.05637 0.34808 0.35213 0.0
C459 C 0.09528 0.34141 0.35292 0.0
C460 C 0.09573 0.36731 0.36074 0.0
C461 C 0.13328 0.34796 0.35988 0.0
C462 C 0.13849 0.38705 0.36 0.0
C463 C 0.06448 0.40065 0.37274 0.0
N464 N 0.13258 0.36053 0.36315 0.0
N465 N 0.06253 0.38808 0.36814 0.0
H466 H 0.10725 0.90722 0.37999 0.0
H467 H 0.22579 0.84115 0.37629 0.0
H468 H 0.23311 0.90304 0.33625 0.0
H469 H 0.08872 0.84666 0.38628 0.0
H470 H 0.23444 0.86377 0.36843 0.0
H471 H 0.10715 0.88511 0.39361 0.0
C472 C 0.13536 0.90169 0.37397 0.0
C473 C 0.17001 0.90693 0.35665 0.0
C474 C 0.20256 0.85994 0.37216 0.0
C475 C 0.1696 0.88149 0.37128 0.0
C476 C 0.1975 0.84705 0.37633 0.0
C477 C 0.15645 0.84198 0.38209 0.0
C478 C 0.16639 0.86775 0.37421 0.0
C479 C 0.12103 0.8501 0.38211 0.0
C480 C 0.13508 0.88903 0.38138 0.0
C481 C 0.20574 0.89934 0.34964 0.0
N482 N 0.12689 0.86254 0.37857 0.0
N483 N 0.20438 0.8869 0.35653 0.0
H484 H 0.143 0.90446 0.84972 0.0
H485 H 0.01396 0.84066 0.84431 0.0
H486 H 0.01219 0.90331 0.88555 0.0
H487 H 0.1509 0.84397 0.8602 0.0
H488 H 0.00727 0.86341 0.85122 0.0
H489 H 0.14006 0.88209 0.83983 0.0
C490 C 0.11325 0.89954 0.85476 0.0
C491 C 0.07803 0.90571 0.86895 0.0
C492 C 0.03855 0.85905 0.85355 0.0
C493 C 0.07482 0.88004 0.85841 0.0
C494 C 0.04239 0.84609 0.85001 0.0
C495 C 0.08316 0.84041 0.85131 0.0
C496 C 0.07581 0.86626 0.85787 0.0
C497 C 0.11891 0.84792 0.85854 0.0
C498 C 0.11178 0.88675 0.84949 0.0
C499 C 0.04012 0.89888 0.87466 0.0
N500 N 0.11446 0.86045 0.86102 0.0
N501 N 0.03965 0.8863 0.8698 0.0
H502 H 0.07014 0.40794 0.86629 0.0
H503 H 0.20611 0.34479 0.88155 0.0
H504 H 0.20718 0.40654 0.84936 0.0
H505 H 0.06754 0.34709 0.88648 0.0
H506 H 0.20897 0.3674 0.87237 0.0
H507 H 0.0709 0.38582 0.87968 0.0
C508 C 0.10058 0.40301 0.86597 0.0
C509 C 0.13858 0.40908 0.85643 0.0
C510 C 0.178 0.36291 0.8753 0.0
C511 C 0.13957 0.3836 0.87097 0.0
C512 C 0.1763 0.34999 0.88021 0.0
C513 C 0.13651 0.34402 0.88487 0.0
C514 C 0.13966 0.36986 0.87517 0.0
C515 C 0.09896 0.35126 0.88315 0.0
C516 C 0.10095 0.39034 0.87334 0.0
C517 C 0.17713 0.40223 0.85663 0.0
N518 N 0.10151 0.36377 0.87864 0.0
N519 N 0.17658 0.38979 0.86337 0.0
H520 H 0.85218 0.58992 0.62911 0.0
H521 H 0.97322 0.65558 0.62348 0.0
H522 H 0.98206 0.59322 0.59234 0.0
H523 H 0.83554 0.65069 0.63002 0.0
H524 H 0.98123 0.63288 0.61775 0.0
H525 H 0.85116 0.61226 0.63974 0.0
C526 C 0.88091 0.59532 0.62402 0.0
C527 C 0.91708 0.58974 0.6095 0.0
C528 C 0.94935 0.63685 0.6202 0.0
C529 C 0.9157 0.61542 0.62067 0.0
C530 C 0.94467 0.64979 0.62311 0.0
C531 C 0.90362 0.65506 0.62742 0.0
C532 C 0.91277 0.62919 0.62196 0.0
C533 C 0.86784 0.64709 0.62699 0.0
C534 C 0.88013 0.6081 0.62969 0.0
C535 C 0.95352 0.59717 0.60359 0.0
N536 N 0.87331 0.63458 0.62467 0.0
N537 N 0.95172 0.60972 0.60874 0.0
H538 H 0.78519 0.0934 0.62939 0.0
H539 H 0.90236 0.15976 0.63332 0.0
H540 H 0.92163 0.09917 0.6428 0.0
H541 H 0.7741 0.15525 0.59424 0.0
H542 H 0.90386 0.13767 0.64713 0.0
H543 H 0.77608 0.11603 0.62261 0.0
C544 C 0.81326 0.09937 0.63045 0.0
C545 C 0.85425 0.09436 0.63673 0.0
C546 C 0.87511 0.14151 0.63591 0.0
C547 C 0.8438 0.12016 0.62998 0.0
C548 C 0.87406 0.15416 0.62839 0.0
C549 C 0.83825 0.1593 0.61231 0.0
C550 C 0.84022 0.13389 0.62708 0.0
C551 C 0.80235 0.15163 0.60665 0.0
C552 C 0.80794 0.11227 0.62689 0.0
C553 C 0.88939 0.10256 0.6381 0.0
N554 N 0.80447 0.13921 0.61355 0.0
N555 N 0.88328 0.11501 0.635 0.0
H556 H 0.98906 0.15538 0.13667 0.0
H557 H 0.8569 0.09253 0.12299 0.0
H558 H 0.85371 0.15311 0.11326 0.0
H559 H 0.99009 0.09289 0.09261 0.0
H560 H 0.8604 0.11492 0.13215 0.0
H561 H 0.99496 0.1327 0.12786 0.0
C562 C 0.9609 0.1502 0.12886 0.0
C563 C 0.92066 0.15612 0.12613 0.0
C564 C 0.88902 0.11009 0.12375 0.0
C565 C 0.92701 0.13035 0.11734 0.0
C566 C 0.8872 0.09729 0.11889 0.0
C567 C 0.92306 0.09087 0.10655 0.0
C568 C 0.92699 0.11658 0.11638 0.0
C569 C 0.96165 0.09751 0.10206 0.0
C570 C 0.96426 0.13728 0.12422 0.0
C571 C 0.88524 0.14894 0.11614 0.0
N572 N 0.96254 0.11011 0.10662 0.0
N573 N 0.88911 0.13644 0.11268 0.0
H574 H 0.90818 0.59208 0.10518 0.0
H575 H 0.77803 0.65618 0.09816 0.0
H576 H 0.77609 0.59431 0.13767 0.0
H577 H 0.91654 0.65293 0.09807 0.0
H578 H 0.77286 0.63357 0.10748 0.0
H579 H 0.9069 0.61429 0.09292 0.0
C580 C 0.87856 0.59721 0.10909 0.0
C581 C 0.84234 0.59137 0.12279 0.0
C582 C 0.80428 0.63788 0.1057 0.0
C583 C 0.84098 0.61692 0.10961 0.0
C584 C 0.80731 0.65078 0.10074 0.0
C585 C 0.84781 0.65645 0.09708 0.0
C586 C 0.84199 0.63068 0.10665 0.0
C587 C 0.88462 0.64899 0.10041 0.0
C588 C 0.878 0.60993 0.10245 0.0
C589 C 0.80472 0.59846 0.12711 0.0
N590 N 0.88078 0.6365 0.10464 0.0
N591 N 0.80514 0.61096 0.12093 0.0
H592 H 0.68501 0.40606 0.87119 0.0
H593 H 0.5427 0.34491 0.84172 0.0
H594 H 0.54619 0.40662 0.87481 0.0
H595 H 0.68112 0.34521 0.85062 0.0
H596 H 0.54182 0.36734 0.85376 0.0
H597 H 0.68285 0.38378 0.86029 0.0
C598 C 0.65397 0.40152 0.86923 0.0
C599 C 0.61573 0.40822 0.8741 0.0
C600 C 0.57229 0.36244 0.8534 0.0
C601 C 0.61302 0.38254 0.86222 0.0
C602 C 0.57279 0.34962 0.8469 0.0
C603 C 0.61209 0.34319 0.84493 0.0
C604 C 0.61135 0.36882 0.85784 0.0
C605 C 0.65009 0.34979 0.85159 0.0
C606 C 0.65276 0.38875 0.86328 0.0
C607 C 0.57647 0.40182 0.87113 0.0
N608 N 0.64877 0.36223 0.85743 0.0
N609 N 0.57611 0.38929 0.86562 0.0
H610 H 0.7493 0.84351 0.87852 0.0
H611 H 0.61821 0.90709 0.87969 0.0
H612 H 0.61131 0.84673 0.8689 0.0
H613 H 0.74469 0.90612 0.83559 0.0
H614 H 0.62366 0.88485 0.89108 0.0
H615 H 0.75504 0.86634 0.87258 0.0
C616 C 0.72038 0.84894 0.87454 0.0
C617 C 0.6797 0.84319 0.87452 0.0
C618 C 0.65053 0.88954 0.87935 0.0
C619 C 0.68607 0.86912 0.86911 0.0
C620 C 0.64765 0.90226 0.8732 0.0
C621 C 0.68073 0.90841 0.85618 0.0
C622 C 0.68671 0.88288 0.86842 0.0
C623 C 0.71837 0.9017 0.84865 0.0
C624 C 0.72371 0.86194 0.87152 0.0
C625 C 0.64332 0.85071 0.86947 0.0
N626 N 0.72013 0.88917 0.85433 0.0
N627 N 0.64736 0.86325 0.86746 0.0
H628 H 0.66643 0.84583 0.3371 0.0
H629 H 0.51713 0.90358 0.38236 0.0
H630 H 0.52814 0.8421 0.34067 0.0
H631 H 0.64853 0.90649 0.34868 0.0
H632 H 0.51791 0.88129 0.36802 0.0
H633 H 0.65904 0.86811 0.34577 0.0
C634 C 0.63442 0.84967 0.34006 0.0
C635 C 0.59784 0.84205 0.33796 0.0
C636 C 0.54622 0.8869 0.36324 0.0
C637 C 0.5891 0.86777 0.3475 0.0
C638 C 0.54565 0.89963 0.37104 0.0
C639 C 0.58302 0.90685 0.36704 0.0
C640 C 0.58448 0.88144 0.35164 0.0
C641 C 0.61919 0.90124 0.35258 0.0
C642 C 0.6302 0.86246 0.34469 0.0
C643 C 0.55723 0.84762 0.34217 0.0
N644 N 0.6192 0.88886 0.34588 0.0
N645 N 0.5539 0.86019 0.34667 0.0
H646 H 0.60912 0.34055 0.33873 0.0
H647 H 0.72231 0.40734 0.34957 0.0
H648 H 0.73665 0.34511 0.37918 0.0
H649 H 0.58604 0.40116 0.33643 0.0
H650 H 0.73259 0.3847 0.35459 0.0
H651 H 0.60633 0.36285 0.32749 0.0
C652 C 0.63703 0.34622 0.34445 0.0
C653 C 0.67297 0.34101 0.36022 0.0
C654 C 0.7005 0.38837 0.3508 0.0
C655 C 0.66948 0.36663 0.34843 0.0
C656 C 0.6945 0.40127 0.34829 0.0
C657 C 0.65323 0.40617 0.34244 0.0
C658 C 0.66505 0.38037 0.34711 0.0
C659 C 0.61847 0.39785 0.34077 0.0
C660 C 0.63521 0.35898 0.33844 0.0
C661 C 0.70833 0.34877 0.36696 0.0
N662 N 0.62524 0.38539 0.34279 0.0
N663 N 0.70545 0.36128 0.36152 0.0
H664 H 0.47672 0.59463 0.09149 0.0
H665 H 0.32511 0.65454 0.11058 0.0
H666 H 0.33789 0.59373 0.095 0.0
H667 H 0.46261 0.65639 0.12474 0.0
H668 H 0.33145 0.63242 0.09824 0.0
H669 H 0.47423 0.61728 0.10058 0.0
C670 C 0.44581 0.59914 0.09472 0.0
C671 C 0.40744 0.59227 0.09235 0.0
C672 C 0.36038 0.63765 0.10378 0.0
C673 C 0.4044 0.61811 0.10186 0.0
C674 C 0.3568 0.65033 0.11054 0.0
C675 C 0.39332 0.65731 0.11899 0.0
C676 C 0.40078 0.63183 0.1056 0.0
C677 C 0.4336 0.65136 0.11833 0.0
C678 C 0.44442 0.61207 0.09956 0.0
C679 C 0.36831 0.59862 0.09644 0.0
N680 N 0.43623 0.63889 0.11214 0.0
N681 N 0.36784 0.61115 0.10074 0.0
H682 H 0.39332 0.15561 0.11516 0.0
H683 H 0.25776 0.09316 0.12687 0.0
H684 H 0.26047 0.15568 0.08393 0.0
H685 H 0.39398 0.09497 0.10634 0.0
H686 H 0.25326 0.11589 0.11855 0.0
H687 H 0.38876 0.13325 0.12459 0.0
C688 C 0.36285 0.15096 0.11094 0.0
C689 C 0.32741 0.1575 0.09828 0.0
C690 C 0.28387 0.1112 0.11547 0.0
C691 C 0.32227 0.13179 0.10842 0.0
C692 C 0.28643 0.09825 0.11983 0.0
C693 C 0.32645 0.09217 0.11768 0.0
C694 C 0.32165 0.11801 0.10946 0.0
C695 C 0.36257 0.09925 0.10872 0.0
C696 C 0.36044 0.13817 0.11596 0.0
C697 C 0.2886 0.15097 0.09363 0.0
N698 N 0.35941 0.11179 0.10548 0.0
N699 N 0.28713 0.13839 0.09834 0.0
H700 H 0.47941 0.09317 0.59219 0.0
H701 H 0.35789 0.15876 0.59577 0.0
H702 H 0.34153 0.09807 0.5891 0.0
H703 H 0.4879 0.15504 0.63198 0.0
H704 H 0.35696 0.13659 0.58307 0.0
H705 H 0.48744 0.11576 0.60087 0.0
C706 C 0.45085 0.09893 0.59388 0.0
C707 C 0.40971 0.09371 0.58971 0.0
C708 C 0.38591 0.14062 0.59349 0.0
C709 C 0.41884 0.11946 0.59857 0.0
C710 C 0.38663 0.15331 0.60039 0.0
C711 C 0.42285 0.15873 0.61527 0.0
C712 C 0.42162 0.1332 0.60159 0.0
C713 C 0.45931 0.15122 0.6205 0.0
C714 C 0.45553 0.11181 0.59852 0.0
C715 C 0.3739 0.10164 0.59192 0.0
N716 N 0.45761 0.13875 0.61406 0.0
N717 N 0.37936 0.11408 0.59587 0.0
H718 H 0.42562 0.65468 0.61129 0.0
H719 H 0.27803 0.5939 0.62962 0.0
H720 H 0.28805 0.65575 0.59697 0.0
H721 H 0.41693 0.59382 0.62759 0.0
H722 H 0.27906 0.61655 0.62047 0.0
H723 H 0.42078 0.63253 0.62361 0.0
C724 C 0.39423 0.65029 0.61129 0.0
C725 C 0.35725 0.65706 0.60281 0.0
C726 C 0.30921 0.61152 0.62182 0.0
C727 C 0.35152 0.63154 0.61616 0.0
C728 C 0.30866 0.59858 0.62669 0.0
C729 C 0.34747 0.59194 0.6295 0.0
C730 C 0.34883 0.6178 0.61991 0.0
C731 C 0.3862 0.59852 0.6258 0.0
C732 C 0.39151 0.63759 0.61803 0.0
C733 C 0.31739 0.65088 0.60341 0.0
N734 N 0.38585 0.61106 0.62144 0.0
N735 N 0.3156 0.6384 0.60958 0.0
H736 H 0.4915 0.28533 0.38406 0.0
H737 H 0.29361 0.32199 0.30752 0.0
H738 H 0.47683 0.32536 0.38675 0.0
H739 H 0.27124 0.28639 0.35467 0.0
H740 H 0.36804 0.32122 0.32533 0.0
H741 H 0.41662 0.2836 0.36376 0.0
C742 C 0.47265 0.29371 0.38036 0.0
C743 C 0.49029 0.3055 0.38711 0.0
C744 C 0.34694 0.31354 0.33173 0.0
C745 C 0.40596 0.30361 0.36364 0.0
C746 C 0.30437 0.31394 0.32149 0.0
C747 C 0.27593 0.30429 0.32992 0.0
C748 C 0.36169 0.30338 0.35037 0.0
C749 C 0.29207 0.29407 0.34791 0.0
C750 C 0.4301 0.29271 0.36898 0.0
C751 C 0.46457 0.31608 0.38204 0.0
N752 N 0.33411 0.29387 0.35767 0.0
N753 N 0.42398 0.31487 0.37039 0.0
H754 H 0.98316 0.9608 0.34089 0.0
H755 H 0.78749 0.92176 0.41408 0.0
H756 H 0.96938 0.92084 0.33278 0.0
H757 H 0.76622 0.95939 0.37942 0.0
H758 H 0.86108 0.92286 0.39445 0.0
H759 H 0.90932 0.96191 0.36357 0.0
C760 C 0.96472 0.9523 0.34388 0.0
C761 C 0.98236 0.94071 0.33491 0.0
C762 C 0.84042 0.93091 0.39114 0.0
C763 C 0.89908 0.9419 0.36106 0.0
C764 C 0.79831 0.93032 0.40245 0.0
C765 C 0.77038 0.94046 0.3981 0.0
C766 C 0.85527 0.94175 0.37544 0.0
C767 C 0.78663 0.95132 0.38303 0.0
C768 C 0.92273 0.95295 0.35665 0.0
C769 C 0.95715 0.92999 0.33918 0.0
N770 N 0.8282 0.95169 0.37211 0.0
N771 N 0.91708 0.93085 0.35212 0.0
H772 H 0.47401 0.91889 0.83541 0.0
H773 H 0.26492 0.95854 0.87816 0.0
H774 H 0.48068 0.95906 0.84064 0.0
H775 H 0.28541 0.92026 0.90758 0.0
H776 H 0.34034 0.95946 0.85911 0.0
H777 H 0.40072 0.91967 0.85581 0.0
C778 C 0.46 0.92792 0.84083 0.0
C779 C 0.48357 0.93893 0.83633 0.0
C780 C 0.32812 0.95093 0.86996 0.0
C781 C 0.39898 0.93989 0.8598 0.0
C782 C 0.28519 0.95038 0.88071 0.0
C783 C 0.26876 0.93929 0.89434 0.0
C784 C 0.35424 0.94026 0.87251 0.0
C785 C 0.29644 0.929 0.89718 0.0
C786 C 0.41809 0.92835 0.85265 0.0
C787 C 0.46362 0.95035 0.84393 0.0
N788 N 0.33751 0.92973 0.88618 0.0
N789 N 0.42218 0.95056 0.85516 0.0
H790 H 0.74821 0.28985 0.86971 0.0
H791 H 0.00329 0.29188 0.843 0.0
H792 H 0.80853 0.30242 0.77938 0.0
H793 H 0.94149 0.2995 0.93659 0.0
H794 H 0.9322 0.28787 0.81834 0.0
H795 H 0.81988 0.28549 0.89291 0.0
C796 C 0.77646 0.29136 0.8545 0.0
C797 C 0.77274 0.29664 0.82283 0.0
C798 C 0.93448 0.29015 0.84445 0.0
C799 C 0.85406 0.29158 0.84883 0.0
C800 C 0.97488 0.29238 0.85851 0.0
C801 C 0.97796 0.29617 0.89168 0.0
C802 C 0.89731 0.29148 0.86399 0.0
C803 C 0.94027 0.29675 0.91076 0.0
C804 C 0.81719 0.28893 0.86774 0.0
C805 C 0.81023 0.2985 0.8041 0.0
N806 N 0.90142 0.29451 0.8966 0.0
N807 N 0.84941 0.29604 0.81745 0.0
H808 H 0.75774 0.70573 0.58893 0.0
H809 H 0.50441 0.70808 0.62393 0.0
H810 H 0.70136 0.69687 0.68375 0.0
H811 H 0.55869 0.69509 0.53178 0.0
H812 H 0.57767 0.71189 0.64482 0.0
H813 H 0.68514 0.7097 0.56682 0.0
C814 C 0.73019 0.70494 0.60524 0.0
C815 C 0.73522 0.70084 0.63801 0.0
C816 C 0.5733 0.70847 0.61978 0.0
C817 C 0.65295 0.70552 0.61329 0.0
C818 C 0.53169 0.70635 0.60784 0.0
C819 C 0.5258 0.70114 0.5763 0.0
C820 C 0.60887 0.7056 0.59966 0.0
C821 C 0.56208 0.69898 0.55642 0.0
C822 C 0.68895 0.70715 0.59264 0.0
C823 C 0.69861 0.69987 0.6582 0.0
N824 N 0.60216 0.70117 0.56847 0.0
N825 N 0.65894 0.70215 0.64549 0.0
H826 H 0.05983 0.05452 0.68963 0.0
H827 H 0.20224 0.05604 0.53196 0.0
H828 H 0.00565 0.04501 0.59452 0.0
H829 H 0.2558 0.04396 0.62523 0.0
H830 H 0.1299 0.05245 0.55391 0.0
H831 H 0.13197 0.05107 0.66712 0.0
C832 C 0.0632 0.05154 0.66409 0.0
C833 C 0.02691 0.05012 0.64377 0.0
C834 C 0.15747 0.05037 0.56937 0.0
C835 C 0.10918 0.04642 0.61777 0.0
C836 C 0.19869 0.05247 0.55696 0.0
C837 C 0.23487 0.05036 0.57696 0.0
C838 C 0.15238 0.04649 0.60235 0.0
C839 C 0.22863 0.04568 0.60907 0.0
C840 C 0.1043 0.04952 0.65134 0.0
C841 C 0.0329 0.04619 0.61094 0.0
N842 N 0.18803 0.04416 0.62109 0.0
N843 N 0.07341 0.04473 0.59868 0.0
H844 H 0.53067 0.07736 0.14936 0.0
H845 H 0.73405 0.03705 0.09634 0.0
H846 H 0.5156 0.03839 0.12496 0.0
H847 H 0.72074 0.07658 0.07862 0.0
H848 H 0.65823 0.03644 0.11465 0.0
H849 H 0.60536 0.0763 0.13218 0.0
C850 C 0.5431 0.06854 0.14043 0.0
C851 C 0.51672 0.05795 0.13844 0.0
C852 C 0.67215 0.04519 0.1066 0.0
C853 C 0.60282 0.05669 0.11872 0.0
C854 C 0.71529 0.04556 0.09635 0.0
C855 C 0.73367 0.05688 0.08595 0.0
C856 C 0.64793 0.05626 0.10701 0.0
C857 C 0.70798 0.06764 0.08629 0.0
C858 C 0.58581 0.06796 0.1305 0.0
C859 C 0.53482 0.04678 0.12666 0.0
N860 N 0.66668 0.06707 0.09683 0.0
N861 N 0.577 0.04641 0.11728 0.0
H862 H 0.04864 0.69672 0.03324 0.0
H863 H 0.19037 0.69545 0.18956 0.0
H864 H 0.99429 0.70705 0.12769 0.0
H865 H 0.24437 0.70765 0.09657 0.0
H866 H 0.11822 0.69972 0.1681 0.0
H867 H 0.12066 0.70075 0.05525 0.0
C868 C 0.05194 0.70005 0.05848 0.0
C869 C 0.0157 0.70149 0.07883 0.0
C870 C 0.14586 0.70172 0.15264 0.0
C871 C 0.09778 0.70582 0.1043 0.0
C872 C 0.18695 0.69924 0.16479 0.0
C873 C 0.22313 0.70114 0.14466 0.0
C874 C 0.14092 0.70574 0.11976 0.0
C875 C 0.21715 0.70608 0.11281 0.0
C876 C 0.09295 0.7024 0.07095 0.0
C877 C 0.02154 0.70585 0.11128 0.0
N878 N 0.17663 0.70794 0.10098 0.0
N879 N 0.062 0.70758 0.12333 0.0
H880 H 0.49452 0.78734 0.87247 0.0
H881 H 0.28741 0.82653 0.82244 0.0
H882 H 0.47754 0.8265 0.89366 0.0
H883 H 0.27584 0.7873 0.84493 0.0
H884 H 0.36226 0.82591 0.83948 0.0
H885 H 0.4188 0.78637 0.85404 0.0
C886 C 0.47499 0.7957 0.87314 0.0
C887 C 0.49226 0.80701 0.8846 0.0
C888 C 0.34344 0.81741 0.84076 0.0
C889 C 0.40665 0.80599 0.86344 0.0
C890 C 0.30065 0.81774 0.83091 0.0
C891 C 0.27524 0.80695 0.8324 0.0
C892 C 0.36146 0.80618 0.85189 0.0
C893 C 0.29431 0.79584 0.84364 0.0
C894 C 0.43191 0.79512 0.86284 0.0
C895 C 0.46561 0.81757 0.88515 0.0
N896 N 0.33654 0.79571 0.85289 0.0
N897 N 0.42437 0.81681 0.87455 0.0
H898 H 0.80663 0.45196 0.93974 0.0
H899 H 0.94506 0.45007 0.7823 0.0
H900 H 0.75045 0.46104 0.84503 0.0
H901 H 1.00081 0.46195 0.87494 0.0
H902 H 0.87357 0.45502 0.80388 0.0
H903 H 0.87792 0.45657 0.91724 0.0
C904 C 0.80935 0.45517 0.91435 0.0
C905 C 0.77287 0.45602 0.89404 0.0
C906 C 0.90146 0.45684 0.81923 0.0
C907 C 0.85417 0.46101 0.86798 0.0
C908 C 0.94219 0.45397 0.80699 0.0
C909 C 0.97861 0.45553 0.82705 0.0
C910 C 0.89709 0.46089 0.85214 0.0
C911 C 0.97337 0.46063 0.85877 0.0
C912 C 0.84996 0.45785 0.90158 0.0
C913 C 0.77792 0.46026 0.8614 0.0
N914 N 0.93313 0.46284 0.87073 0.0
N915 N 0.81806 0.46231 0.84906 0.0
H916 H 0.44956 0.44716 0.2862 0.0
H917 H 0.30628 0.44494 0.44213 0.0
H918 H 0.50342 0.45616 0.38176 0.0
H919 H 0.25365 0.45779 0.34929 0.0
H920 H 0.37878 0.44909 0.42124 0.0
H921 H 0.37749 0.4511 0.30822 0.0
C922 C 0.44614 0.45015 0.31173 0.0
C923 C 0.48226 0.45126 0.33234 0.0
C924 C 0.35137 0.45126 0.40569 0.0
C925 C 0.40009 0.45551 0.35779 0.0
C926 C 0.31007 0.44884 0.41751 0.0
C927 C 0.27416 0.45096 0.39724 0.0
C928 C 0.35678 0.45544 0.373 0.0
C929 C 0.28063 0.45605 0.36562 0.0
C930 C 0.4051 0.45246 0.3242 0.0
C931 C 0.47626 0.45522 0.36514 0.0
N932 N 0.32134 0.45785 0.35411 0.0
N933 N 0.43575 0.45693 0.37714 0.0
H934 H 0.80305 0.803 0.28319 0.0
H935 H 0.94894 0.80458 0.43926 0.0
H936 H 0.7511 0.79325 0.3789 0.0
H937 H 1.0006 0.79259 0.34527 0.0
H938 H 0.87614 0.80113 0.41807 0.0
H939 H 0.87577 0.79984 0.30488 0.0
C940 C 0.80703 0.80004 0.3087 0.0
C941 C 0.77119 0.79844 0.32941 0.0
C942 C 0.9034 0.79905 0.40227 0.0
C943 C 0.85412 0.79509 0.35447 0.0
C944 C 0.94489 0.80108 0.41425 0.0
C945 C 0.98069 0.79893 0.39385 0.0
C946 C 0.89765 0.79521 0.36934 0.0
C947 C 0.97377 0.79434 0.36174 0.0
C948 C 0.84846 0.79818 0.32098 0.0
C949 C 0.77799 0.79456 0.36218 0.0
N950 N 0.93292 0.79287 0.35018 0.0
N951 N 0.8188 0.79326 0.37397 0.0
H952 H 0.73335 0.2105 0.132 0.0
H953 H 0.53285 0.17149 0.06727 0.0
H954 H 0.71595 0.17099 0.14784 0.0
H955 H 0.51689 0.21026 0.09359 0.0
H956 H 0.60615 0.17221 0.08774 0.0
H957 H 0.65924 0.21162 0.11003 0.0
C958 C 0.71406 0.2021 0.13085 0.0
C959 C 0.73081 0.19063 0.14176 0.0
C960 C 0.58672 0.18059 0.08908 0.0
C961 C 0.64706 0.19183 0.11649 0.0
C962 C 0.5448 0.18021 0.07726 0.0
C963 C 0.51852 0.19082 0.07888 0.0
C964 C 0.60305 0.19169 0.10244 0.0
C965 C 0.53604 0.20185 0.0921 0.0
C966 C 0.67189 0.20276 0.11849 0.0
C967 C 0.70446 0.18004 0.13985 0.0
N968 N 0.57744 0.20202 0.10338 0.0
N969 N 0.66419 0.18089 0.12728 0.0
H970 H 0.24421 0.53522 0.1072 0.0
H971 H 0.03791 0.57542 0.14235 0.0
H972 H 0.21399 0.56897 0.05355 0.0
H973 H 0.02452 0.53534 0.14209 0.0
H974 H 0.1098 0.57327 0.11933 0.0
H975 H 0.16965 0.53485 0.12846 0.0
C976 C 0.22196 0.54247 0.09972 0.0
C977 C 0.23542 0.55219 0.07876 0.0
C978 C 0.09118 0.56493 0.12429 0.0
C979 C 0.15123 0.5519 0.10319 0.0
C980 C 0.05022 0.56613 0.1376 0.0
C981 C 0.02519 0.55553 0.14408 0.0
C982 C 0.10787 0.55303 0.11788 0.0
C983 C 0.04281 0.54374 0.13723 0.0
C984 C 0.17957 0.54221 0.11172 0.0
C985 C 0.20526 0.56132 0.06973 0.0
N986 N 0.08347 0.54276 0.12467 0.0
N987 N 0.1649 0.56103 0.08232 0.0
H988 H 0.73538 0.53378 0.5879 0.0
H989 H 0.54166 0.5699 0.6717 0.0
H990 H 0.72145 0.57384 0.58677 0.0
H991 H 0.51543 0.53544 0.62007 0.0
H992 H 0.61549 0.56913 0.65212 0.0
H993 H 0.66115 0.53208 0.60963 0.0
C994 C 0.71681 0.54217 0.59224 0.0
C995 C 0.73446 0.55397 0.58549 0.0
C996 C 0.59365 0.56169 0.64518 0.0
C997 C 0.6509 0.55209 0.61064 0.0
C998 C 0.55146 0.56209 0.65644 0.0
C999 C 0.52212 0.55277 0.64726 0.0
C1000 C 0.60711 0.55184 0.62486 0.0
C1001 C 0.53698 0.54286 0.62747 0.0
C1002 C 0.67464 0.54119 0.60443 0.0
C1003 C 0.70913 0.56456 0.59142 0.0
N1004 N 0.57867 0.54264 0.61684 0.0
N1005 N 0.66891 0.56337 0.60391 0.0
H1006 H 0.03966 0.17355 0.56879 0.0
H1007 H 0.24078 0.21338 0.6275 0.0
H1008 H 0.02209 0.21236 0.59415 0.0
H1009 H 0.22327 0.17416 0.64789 0.0
H1010 H 0.16594 0.21428 0.60686 0.0
H1011 H 0.11349 0.17475 0.58781 0.0
C1012 C 0.05136 0.18238 0.57823 0.0
C1013 C 0.02444 0.19285 0.58009 0.0
C1014 C 0.17875 0.20554 0.61606 0.0
C1015 C 0.10959 0.19426 0.60202 0.0
C1016 C 0.2213 0.20501 0.62769 0.0
C1017 C 0.23828 0.19368 0.63938 0.0
C1018 C 0.1538 0.19462 0.61558 0.0
C1019 C 0.21168 0.18311 0.63919 0.0
C1020 C 0.09358 0.18303 0.58923 0.0
C1021 C 0.04173 0.20404 0.59251 0.0
N1022 N 0.17107 0.18383 0.62727 0.0
N1023 N 0.08344 0.20447 0.60305 0.0
H1024 H 0.04081 0.21536 0.21081 0.0
H1025 H 0.96054 0.28062 0.28472 0.0
H1026 H 0.91245 0.22985 0.19702 0.0
H1027 H 0.08994 0.26663 0.29624 0.0
H1028 H 0.94137 0.26159 0.25502 0.0
H1029 H 0.05952 0.23412 0.24191 0.0
C1030 C 0.01673 0.22258 0.21382 0.0
C1031 C 0.97494 0.22101 0.20129 0.0
C1032 C 0.97385 0.26262 0.26432 0.0
C1033 C 0.99592 0.2424 0.23761 0.0
C1034 C 0.98473 0.27344 0.28162 0.0
C1035 C 0.027 0.27526 0.2929 0.0
C1036 C 0.00547 0.25355 0.25816 0.0
C1037 C 0.05696 0.26564 0.28803 0.0
C1038 C 0.02735 0.23325 0.23188 0.0
C1039 C 0.94509 0.23067 0.20611 0.0
N1040 N 0.04572 0.25525 0.27075 0.0
N1041 N 0.95607 0.24091 0.22411 0.0
H1042 H 0.29042 0.96538 0.26386 0.0
H1043 H 0.20507 0.03094 0.19511 0.0
H1044 H 0.16152 0.97911 0.2799 0.0
H1045 H 0.33485 0.01766 0.18075 0.0
H1046 H 0.18777 0.01162 0.22418 0.0
H1047 H 0.30752 0.98452 0.23377 0.0
C1048 C 0.26588 0.97251 0.26154 0.0
C1049 C 0.22443 0.97062 0.27445 0.0
C1050 C 0.21994 0.01287 0.21443 0.0
C1051 C 0.24358 0.99247 0.23933 0.0
C1052 C 0.22976 0.02387 0.19752 0.0
C1053 C 0.27154 0.02596 0.1855 0.0
C1054 C 0.25214 0.00388 0.2195 0.0
C1055 C 0.3022 0.01645 0.18951 0.0
C1056 C 0.27558 0.98339 0.24407 0.0
C1057 C 0.19393 0.98016 0.27049 0.0
N1058 N 0.29198 0.00588 0.20641 0.0
N1059 N 0.20403 0.99063 0.2531 0.0
H1060 H 0.9146 0.01679 0.04369 0.0
H1061 H 0.0904 0.97865 0.93955 0.0
H1062 H 0.04324 0.0302 0.02471 0.0
H1063 H 0.96098 0.96561 0.95715 0.0
H1064 H 0.07345 0.99777 0.96987 0.0
H1065 H 0.93197 0.9976 0.01387 0.0
C1066 C 0.94677 0.01561 0.03384 0.0
C1067 C 0.97746 0.02515 0.03665 0.0
C1068 C 0.04865 0.99077 0.96687 0.0
C1069 C 0.99724 0.00332 0.00176 0.0
C1070 C 0.05818 0.9799 0.94924 0.0
C1071 C 0.0271 0.97049 0.94584 0.0
C1072 C 0.00779 0.99223 0.98128 0.0
C1073 C 0.98598 0.9726 0.95916 0.0
C1074 C 0.95652 0.0047 0.01648 0.0
C1075 C 0.01852 0.02311 0.02314 0.0
N1076 N 0.97763 0.98319 0.97649 0.0
N1077 N 0.02709 0.01247 0.00607 0.0
H1078 H 0.20327 0.21638 0.01435 0.0
H1079 H 0.27742 0.28295 0.94485 0.0
H1080 H 0.33082 0.23145 0.02803 0.0
H1081 H 0.14917 0.26816 0.93298 0.0
H1082 H 0.29864 0.26369 0.97274 0.0
H1083 H 0.18289 0.23529 0.98456 0.0
C1084 C 0.22683 0.22375 0.01158 0.0
C1085 C 0.26886 0.22231 0.02374 0.0
C1086 C 0.26596 0.2646 0.96374 0.0
C1087 C 0.24595 0.24391 -0.01108 0.0
C1088 C 0.25391 0.27556 0.94748 0.0
C1089 C 0.21135 0.27721 0.93665 0.0
C1090 C 0.23524 0.25523 0.96933 0.0
C1091 C 0.18232 0.26731 0.94088 0.0
C1092 C 0.21525 0.23451 -0.00573 0.0
C1093 C 0.29802 0.23217 0.01923 0.0
N1094 N 0.19469 0.25679 0.95717 0.0
N1095 N 0.28609 0.24251 0.00199 0.0
H1096 H 0.90575 0.73065 0.68188 0.0
H1097 H 0.0878 0.7656 0.78744 0.0
H1098 H 0.03386 0.7161 0.6966 0.0
H1099 H 0.96083 0.78064 0.77056 0.0
H1100 H 0.06786 0.74708 0.75564 0.0
H1101 H 0.92592 0.74932 0.71296 0.0
C1102 C 0.93839 0.73148 0.69102 0.0
C1103 C 0.9681 0.72175 0.68669 0.0
C1104 C 0.04424 0.75439 0.75912 0.0
C1105 C 0.99107 0.74297 0.72308 0.0
C1106 C 0.05545 0.76491 0.77763 0.0
C1107 C 0.02598 0.77471 0.78165 0.0
C1108 C 0.00328 0.75366 0.74449 0.0
C1109 C 0.98463 0.77332 0.7681 0.0
C1110 C 0.94975 0.74209 0.70911 0.0
C1111 C 0.00985 0.72334 0.69934 0.0
N1112 N 0.97462 0.76305 0.74994 0.0
N1113 N 0.01995 0.73367 0.71721 0.0
H1114 H 0.66697 0.98082 0.77753 0.0
H1115 H 0.85059 0.01745 0.6778 0.0
H1116 H 0.79302 0.96565 0.75768 0.0
H1117 H 0.72301 0.03208 0.69461 0.0
H1118 H 0.82896 0.99797 0.70445 0.0
H1119 H 0.68701 -0.00028 0.74729 0.0
C1120 C 0.69908 0.98154 0.76727 0.0
C1121 C 0.72837 0.97163 0.77021 0.0
C1122 C 0.80554 0.00539 0.70197 0.0
C1123 C 0.75123 0.99313 0.73493 0.0
C1124 C 0.81776 0.01648 0.68643 0.0
C1125 C 0.78867 0.02646 0.68413 0.0
C1126 C 0.76401 0.00428 0.71544 0.0
C1127 C 0.7466 0.02466 0.69593 0.0
C1128 C 0.71036 0.99228 0.74969 0.0
C1129 C 0.7694 0.97304 0.7561 0.0
N1130 N 0.73569 0.01385 0.71139 0.0
N1131 N 0.77954 0.98356 0.73899 0.0
H1132 H 0.67481 0.76764 0.92921 0.0
H1133 H 0.85072 0.73073 0.03625 0.0
H1134 H 0.8024 0.78172 0.94888 0.0
H1135 H 0.72054 0.71785 0.02142 0.0
H1136 H 0.83375 0.74952 0.00453 0.0
H1137 H 0.69248 0.74876 0.96033 0.0
C1138 C 0.70686 0.76666 0.93945 0.0
C1139 C 0.7371 0.77631 0.9365 0.0
C1140 C 0.80878 0.74263 0.00848 0.0
C1141 C 0.75719 0.75486 0.97292 0.0
C1142 C 0.81832 0.73196 0.02693 0.0
C1143 C 0.78705 0.72267 0.03149 0.0
C1144 C 0.76772 0.74402 -0.00563 0.0
C1145 C 0.7457 0.72475 0.01857 0.0
C1146 C 0.71675 0.75594 0.95759 0.0
C1147 C 0.77801 0.77454 0.95054 0.0
N1148 N 0.73736 0.73514 0.00037 0.0
N1149 N 0.78672 0.76408 0.96836 0.0
H1150 H 0.33158 0.51745 0.68588 0.0
H1151 H 0.14613 0.48202 0.78673 0.0
H1152 H 0.20652 0.53343 0.70502 0.0
H1153 H 0.27524 0.46785 0.77495 0.0
H1154 H 0.16709 0.50087 0.75663 0.0
H1155 H 0.30973 0.49865 0.71566 0.0
C1156 C 0.29923 0.51692 0.69578 0.0
C1157 C 0.27089 0.52706 0.69297 0.0
C1158 C 0.19093 0.49368 0.7609 0.0
C1159 C 0.24597 0.50565 0.72781 0.0
C1160 C 0.17909 0.48296 0.77838 0.0
C1161 C 0.20894 0.47331 0.78338 0.0
C1162 C 0.23285 0.49474 0.74816 0.0
C1163 C 0.25112 0.47503 0.77173 0.0
C1164 C 0.28693 0.50623 0.71313 0.0
C1165 C 0.22947 0.52586 0.70656 0.0
N1166 N 0.26169 0.48547 0.75446 0.0
N1167 N 0.21837 0.51539 0.72357 0.0
H1168 H 0.97152 0.46649 0.44795 0.0
H1169 H 0.04763 0.53141 0.52645 0.0
H1170 H 0.10153 0.48043 0.44128 0.0
H1171 H 0.91859 0.51691 0.53546 0.0
H1172 H 0.0683 0.51267 0.49601 0.0
H1173 H 0.95097 0.48528 0.47822 0.0
C1174 C 0.99561 0.47361 0.4523 0.0
C1175 C 0.03838 0.47185 0.44209 0.0
C1176 C 0.03555 0.51353 0.50488 0.0
C1177 C 0.01522 0.49329 0.47747 0.0
C1178 C 0.0238 0.52419 0.52255 0.0
C1179 C 0.98125 0.52576 0.5335 0.0
C1180 C 0.00451 0.50438 0.49794 0.0
C1181 C 0.95176 0.5161 0.52759 0.0
C1182 C 0.98392 0.48429 0.4699 0.0
C1183 C 0.06818 0.48138 0.44859 0.0
N1184 N 0.96386 0.50587 0.50997 0.0
N1185 N 0.05611 0.49164 0.46609 0.0
H1186 H 0.22151 0.71589 0.52532 0.0
H1187 H 0.29111 0.78152 0.44712 0.0
H1188 H 0.35058 0.73061 0.5308 0.0
H1189 H 0.16345 0.76601 0.43844 0.0
H1190 H 0.31398 0.76276 0.47661 0.0
H1191 H 0.19928 0.73449 0.49492 0.0
C1192 C 0.24506 0.72313 0.52066 0.0
C1193 C 0.28804 0.72166 0.53065 0.0
C1194 C 0.28107 0.7634 0.46798 0.0
C1195 C 0.26291 0.74291 0.49511 0.0
C1196 C 0.26806 0.77407 0.45083 0.0
C1197 C 0.22522 0.77537 0.44031 0.0
C1198 C 0.25101 0.75397 0.47486 0.0
C1199 C 0.1968 0.76542 0.44599 0.0
C1200 C 0.2324 0.73371 0.50297 0.0
C1201 C 0.31709 0.73135 0.5237 0.0
N1202 N 0.2101 0.7552 0.46314 0.0
N1203 N 0.30407 0.74151 0.50618 0.0
H1204 H 0.78526 0.46774 0.28257 0.0
H1205 H 0.71215 0.53344 0.207 0.0
H1206 H 0.65618 0.4823 0.29066 0.0
H1207 H 0.84019 0.51834 0.19656 0.0
H1208 H 0.69088 0.51473 0.23733 0.0
H1209 H 0.80676 0.48668 0.25339 0.0
C1210 C 0.7616 0.47502 0.27882 0.0
C1211 C 0.71877 0.47339 0.28901 0.0
C1212 C 0.72354 0.51546 0.22819 0.0
C1213 C 0.74301 0.495 0.25485 0.0
C1214 C 0.73563 0.5261 0.21058 0.0
C1215 C 0.77808 0.52748 0.19923 0.0
C1216 C 0.75414 0.50613 0.23467 0.0
C1217 C 0.8071 0.51767 0.20474 0.0
C1218 C 0.77383 0.48579 0.26182 0.0
C1219 C 0.68955 0.48315 0.28331 0.0
N1220 N 0.79468 0.50745 0.22229 0.0
N1221 N 0.70212 0.49348 0.26635 0.0
H1222 H 0.71249 0.21812 0.5249 0.0
H1223 H 0.79867 0.28235 0.44849 0.0
H1224 H 0.84334 0.23104 0.53531 0.0
H1225 H 0.66813 0.26926 0.43734 0.0
H1226 H 0.81598 0.26343 0.47938 0.0
H1227 H 0.69509 0.23712 0.49435 0.0
C1228 C 0.73741 0.22505 0.52129 0.0
C1229 C 0.7795 0.22296 0.53264 0.0
C1230 C 0.78363 0.26464 0.46996 0.0
C1231 C 0.75997 0.24463 0.49697 0.0
C1232 C 0.7738 0.2754 0.45203 0.0
C1233 C 0.73183 0.27742 0.44032 0.0
C1234 C 0.75126 0.25583 0.47638 0.0
C1235 C 0.70093 0.26809 0.44581 0.0
C1236 C 0.72753 0.23586 0.50355 0.0
C1237 C 0.81045 0.23226 0.52709 0.0
N1238 N 0.71118 0.25775 0.46366 0.0
N1239 N 0.80015 0.24264 0.50942 0.0
H1240 H 0.47471 0.28314 0.77169 0.0
H1241 H 0.55261 0.21734 0.69944 0.0
H1242 H 0.60491 0.26949 0.78016 0.0
H1243 H 0.4237 0.23167 0.68776 0.0
H1244 H 0.57253 0.23643 0.72867 0.0
H1245 H 0.45473 0.26394 0.74309 0.0
C1246 C 0.49896 0.27601 0.7681 0.0
C1247 C 0.54162 0.27796 0.77831 0.0
C1248 C 0.53997 0.23545 0.71949 0.0
C1249 C 0.51909 0.25603 0.74484 0.0
C1250 C 0.52865 0.22459 0.70251 0.0
C1251 C 0.48637 0.22288 0.69111 0.0
C1252 C 0.50877 0.24467 0.7253 0.0
C1253 C 0.45669 0.23258 0.69599 0.0
C1254 C 0.48759 0.26509 0.75144 0.0
C1255 C 0.57164 0.26839 0.7728 0.0
N1256 N 0.46837 0.24301 0.71293 0.0
N1257 N 0.55987 0.25789 0.75622 0.0
H1258 H 0.40712 0.01798 0.53729 0.0
H1259 H 0.58895 0.97926 0.44095 0.0
H1260 H 0.53629 0.03149 0.52129 0.0
H1261 H 0.45944 0.96593 0.45637 0.0
H1262 H 0.57013 0.99856 0.46982 0.0
H1263 H 0.42661 0.99848 0.50976 0.0
C1264 C 0.43982 0.01676 0.52859 0.0
C1265 C 0.47006 0.02642 0.53156 0.0
C1266 C 0.54574 0.99145 0.46668 0.0
C1267 C 0.49232 0.00421 0.49925 0.0
C1268 C 0.55635 0.98047 0.44988 0.0
C1269 C 0.52575 0.97094 0.4462 0.0
C1270 C 0.50424 0.99291 0.47998 0.0
C1271 C 0.4841 0.97301 0.45858 0.0
C1272 C 0.45081 0.00566 0.51253 0.0
C1273 C 0.51187 0.02432 0.51955 0.0
N1274 N 0.47466 0.98372 0.47506 0.0
N1275 N 0.52165 0.0135 0.50371 0.0
H1276 H 0.58591 0.76569 0.28811 0.0
H1277 H 0.39675 0.73109 0.18921 0.0
H1278 H 0.46078 0.78197 0.27128 0.0
H1279 H 0.52476 0.71609 0.20079 0.0
H1280 H 0.41907 0.74972 0.21969 0.0
H1281 H 0.56231 0.74685 0.2593 0.0
C1282 C 0.55318 0.76522 0.27899 0.0
C1283 C 0.52536 0.77547 0.28204 0.0
C1284 C 0.44236 0.74239 0.21533 0.0
C1285 C 0.49844 0.75401 0.24827 0.0
C1286 C 0.42976 0.7318 0.19762 0.0
C1287 C 0.45891 0.72199 0.19238 0.0
C1288 C 0.48438 0.74317 0.22804 0.0
C1289 C 0.50117 0.7234 0.20416 0.0
C1290 C 0.53987 0.7545 0.26217 0.0
C1291 C 0.48338 0.77432 0.26947 0.0
N1292 N 0.51251 0.73373 0.2216 0.0
N1293 N 0.47133 0.76384 0.25292 0.0
H1294 H 0.47581 0.46896 0.94046 0.0
H1295 H 0.55105 0.53456 0.01534 0.0
H1296 H 0.6062 0.48259 0.93356 0.0
H1297 H 0.42582 0.51834 0.03218 0.0
H1298 H 0.57179 0.51593 0.98424 0.0
H1299 H 0.45576 0.48788 0.97029 0.0
C1300 C 0.50008 0.47604 0.94461 0.0
C1301 C 0.54283 0.47414 0.93457 0.0
C1302 C 0.53992 0.5164 -0.005 0.0
C1303 C 0.52022 0.49574 0.96946 0.0
C1304 C 0.52816 0.52699 0.01304 0.0
C1305 C 0.4866 0.52802 0.02643 0.0
C1306 C 0.5098 0.50682 -0.00993 0.0
C1307 C 0.45825 0.51794 0.02245 0.0
C1308 C 0.48869 0.48679 0.96201 0.0
C1309 C 0.57286 0.48365 0.9408 0.0
N1310 N 0.47025 0.50782 0.00439 0.0
N1311 N 0.56106 0.49399 0.95808 0.0
H1312 H 0.18506 0.30879 0.2011 0.0
H1313 H 0.05213 0.30819 0.0325 0.0
H1314 H 0.04702 0.31325 0.19706 0.0
H1315 H 0.18934 0.31443 0.0366 0.0
H1316 H 0.04974 0.30853 0.09299 0.0
H1317 H 0.18743 0.30938 0.14063 0.0
C1318 C 0.15527 0.30991 0.18749 0.0
C1319 C 0.11576 0.31095 0.20405 0.0
C1320 C 0.08031 0.30988 0.08061 0.0
C1321 C 0.11828 0.31158 0.13507 0.0
C1322 C 0.08174 0.30964 0.04613 0.0
C1323 C 0.12101 0.31127 0.02958 0.0
C1324 C 0.11848 0.31163 0.09857 0.0
C1325 C 0.15837 0.31316 0.04841 0.0
C1326 C 0.15668 0.31029 0.15302 0.0
C1327 C 0.07817 0.31243 0.18524 0.0
N1328 N 0.15621 0.31322 0.08199 0.0
N1329 N 0.08033 0.31264 0.15167 0.0
H1330 H 0.18492 0.92925 0.02595 0.0
H1331 H 0.06023 0.93081 0.1982 0.0
H1332 H 0.0464 0.92793 0.03405 0.0
H1333 H 0.198 0.92651 0.18966 0.0
H1334 H 0.0541 0.92869 0.13813 0.0
H1335 H 0.1902 0.92719 0.08602 0.0
C1336 C 0.15562 0.92845 0.04035 0.0
C1337 C 0.11515 0.92888 0.02504 0.0
C1338 C 0.08562 0.92809 0.14945 0.0
C1339 C 0.12094 0.92658 0.09372 0.0
C1340 C 0.08915 0.92933 0.18373 0.0
C1341 C 0.12973 0.92897 0.1989 0.0
C1342 C 0.12297 0.92659 0.13027 0.0
C1343 C 0.16608 0.92693 0.17899 0.0
C1344 C 0.15865 0.92724 0.07463 0.0
C1345 C 0.07826 0.9277 0.04486 0.0
N1346 N 0.16186 0.92594 0.14564 0.0
N1347 N 0.08204 0.92672 0.07826 0.0
H1348 H 0.94859 0.68166 0.77962 0.0
H1349 H 0.79897 0.68194 0.94041 0.0
H1350 H 0.81117 0.68759 0.77619 0.0
H1351 H 0.93687 0.68682 0.94359 0.0
H1352 H 0.80275 0.68069 0.87999 0.0
H1353 H 0.94447 0.68026 0.83994 0.0
C1354 C 0.91753 0.68261 0.79155 0.0
C1355 C 0.88019 0.68484 0.77296 0.0
C1356 C 0.83214 0.682 0.89398 0.0
C1357 C 0.87531 0.6832 0.84173 0.0
C1358 C 0.83005 0.68267 0.92841 0.0
C1359 C 0.86765 0.68458 0.94694 0.0
C1360 C 0.87213 0.68314 0.87813 0.0
C1361 C 0.90706 0.68546 0.93019 0.0
C1362 C 0.91524 0.68184 0.82593 0.0
C1363 C 0.84079 0.68597 0.78964 0.0
N1364 N 0.90827 0.68474 0.89666 0.0
N1365 N 0.83938 0.68516 0.82318 0.0
H1366 H 0.94738 0.05915 0.78163 0.0
H1367 H 0.81756 0.06214 0.95178 0.0
H1368 H 0.8097 0.06439 0.78643 0.0
H1369 H 0.95589 0.06521 0.94505 0.0
H1370 H 0.8135 0.0623 0.89128 0.0
H1371 H 0.95069 0.06045 0.84189 0.0
C1372 C 0.91783 0.06056 0.79537 0.0
C1373 C 0.87819 0.06165 0.77905 0.0
C1374 C 0.84469 0.06302 0.9031 0.0
C1375 C 0.88177 0.06316 0.84793 0.0
C1376 C 0.84704 0.06291 0.93759 0.0
C1377 C 0.88714 0.0636 0.95343 0.0
C1378 C 0.88272 0.06371 0.88444 0.0
C1379 C 0.92429 0.06464 0.93388 0.0
C1380 C 0.91977 0.06136 0.82975 0.0
C1381 C 0.84095 0.06352 0.79806 0.0
N1382 N 0.92118 0.06458 0.90036 0.0
N1383 N 0.84362 0.06417 0.83159 0.0
H1384 H 0.19038 0.81097 0.69975 0.0
H1385 H 0.06078 0.80864 0.52964 0.0
H1386 H 0.05211 0.81436 0.69336 0.0
H1387 H 0.19835 0.81405 0.53477 0.0
H1388 H 0.0572 0.80996 0.58994 0.0
H1389 H 0.19433 0.81148 0.63929 0.0
C1390 C 0.16089 0.81188 0.68564 0.0
C1391 C 0.12084 0.81257 0.70155 0.0
C1392 C 0.08814 0.81092 0.57785 0.0
C1393 C 0.12513 0.81308 0.6326 0.0
C1394 C 0.09023 0.81011 0.54346 0.0
C1395 C 0.12995 0.8112 0.52725 0.0
C1396 C 0.12607 0.81271 0.5961 0.0
C1397 C 0.16706 0.81317 0.54632 0.0
C1398 C 0.16318 0.81219 0.65117 0.0
C1399 C 0.08367 0.81379 0.6821 0.0
N1400 N 0.16425 0.81379 0.57984 0.0
N1401 N 0.0867 0.81392 0.64859 0.0
H1402 H 0.05646 0.43486 0.6958 0.0
H1403 H 0.19358 0.43424 0.52995 0.0
H1404 H 0.19465 0.43061 0.69433 0.0
H1405 H 0.05543 0.42989 0.53188 0.0
H1406 H 0.19485 0.43241 0.59022 0.0
H1407 H 0.05534 0.43252 0.63568 0.0
C1408 C 0.08654 0.43336 0.68283 0.0
C1409 C 0.12576 0.43305 0.69997 0.0
C1410 C 0.16431 0.43173 0.57742 0.0
C1411 C 0.12472 0.43043 0.63131 0.0
C1412 C 0.16354 0.43283 0.54305 0.0
C1413 C 0.12428 0.43235 0.52598 0.0
C1414 C 0.12551 0.43029 0.59479 0.0
C1415 C 0.08638 0.43038 0.54411 0.0
C1416 C 0.08586 0.43198 0.64854 0.0
C1417 C 0.16373 0.43097 0.68202 0.0
N1418 N 0.08789 0.42955 0.57763 0.0
N1419 N 0.16231 0.42986 0.64855 0.0
H1420 H 0.80901 0.18303 0.27997 0.0
H1421 H 0.93668 0.18228 0.45095 0.0
H1422 H 0.94676 0.1784 0.2873 0.0
H1423 H 0.79807 0.18056 0.44462 0.0
H1424 H 0.94081 0.18017 0.39087 0.0
H1425 H 0.80389 0.18144 0.34025 0.0
C1426 C 0.83813 0.1816 0.29422 0.0
C1427 C 0.87841 0.18096 0.27864 0.0
C1428 C 0.9095 0.18015 0.40264 0.0
C1429 C 0.8728 0.17919 0.34746 0.0
C1430 C 0.90712 0.18139 0.43693 0.0
C1431 C 0.86696 0.1817 0.45275 0.0
C1432 C 0.87144 0.17934 0.38402 0.0
C1433 C 0.82971 0.18041 0.4334 0.0
C1434 C 0.83518 0.18067 0.32861 0.0
C1435 C 0.91505 0.17902 0.29828 0.0
N1436 N 0.83284 0.1794 0.39996 0.0
N1437 N 0.9114 0.17831 0.33171 0.0
H1438 H 0.95714 0.56829 0.44595 0.0
H1439 H 0.80541 0.56978 0.28639 0.0
H1440 H 0.81875 0.56482 0.45001 0.0
H1441 H 0.94341 0.56525 0.28182 0.0
H1442 H 0.81015 0.57136 0.34657 0.0
H1443 H 0.95273 0.57053 0.38588 0.0
C1444 C 0.92578 0.56809 0.43425 0.0
C1445 C 0.88825 0.56625 0.45296 0.0
C1446 C 0.8394 0.57008 0.33236 0.0
C1447 C 0.88308 0.56881 0.38433 0.0
C1448 C 0.83677 0.56921 0.29801 0.0
C1449 C 0.87407 0.56726 0.2791 0.0
C1450 C 0.8796 0.56904 0.34788 0.0
C1451 C 0.91381 0.56664 0.29547 0.0
C1452 C 0.92334 0.56934 0.39996 0.0
C1453 C 0.84852 0.56611 0.4365 0.0
N1454 N 0.91551 0.56747 0.32901 0.0
N1455 N 0.84699 0.56731 0.40304 0.0
H1456 H 0.71082 0.32154 0.52572 0.0
H1457 H 0.55844 0.31983 0.68502 0.0
H1458 H 0.57309 0.31643 0.52051 0.0
H1459 H 0.69653 0.31544 0.6885 0.0
H1460 H 0.56288 0.3224 0.62487 0.0
H1461 H 0.70535 0.32331 0.58583 0.0
C1462 C 0.67937 0.3209 0.53718 0.0
C1463 C 0.64239 0.31867 0.51815 0.0
C1464 C 0.59217 0.32093 0.63889 0.0
C1465 C 0.63603 0.32066 0.58681 0.0
C1466 C 0.58969 0.31949 0.67316 0.0
C1467 C 0.62715 0.31729 0.69166 0.0
C1468 C 0.63239 0.32027 0.62319 0.0
C1469 C 0.6668 0.31697 0.67511 0.0
C1470 C 0.67632 0.32188 0.57148 0.0
C1471 C 0.60247 0.318 0.53429 0.0
N1472 N 0.66837 0.31841 0.64176 0.0
N1473 N 0.60036 0.31891 0.5678 0.0
H1474 H 0.6837 0.92893 0.5268 0.0
H1475 H 0.55968 0.93078 0.69922 0.0
H1476 H 0.54512 0.92845 0.53479 0.0
H1477 H 0.69725 0.92614 0.68994 0.0
H1478 H 0.55293 0.92848 0.63918 0.0
H1479 H 0.68881 0.92652 0.58672 0.0
C1480 C 0.65434 0.92825 0.54116 0.0
C1481 C 0.61393 0.92903 0.52587 0.0
C1482 C 0.58452 0.92784 0.65036 0.0
C1483 C 0.61952 0.92632 0.59445 0.0
C1484 C 0.58841 0.92917 0.68461 0.0
C1485 C 0.62915 0.92882 0.69954 0.0
C1486 C 0.62167 0.92625 0.631 0.0
C1487 C 0.66523 0.92661 0.67947 0.0
C1488 C 0.65726 0.92683 0.57537 0.0
C1489 C 0.57694 0.92796 0.54562 0.0
N1490 N 0.66067 0.92553 0.64619 0.0
N1491 N 0.58062 0.92679 0.579 0.0
H1492 H 0.44382 0.68383 0.44311 0.0
H1493 H 0.30373 0.68403 0.27861 0.0
H1494 H 0.30555 0.67974 0.44292 0.0
H1495 H 0.44182 0.67944 0.27901 0.0
H1496 H 0.30352 0.68208 0.33889 0.0
H1497 H 0.44383 0.68186 0.38286 0.0
C1498 C 0.41349 0.68245 0.4304 0.0
C1499 C 0.37458 0.68206 0.44795 0.0
C1500 C 0.3338 0.68138 0.32574 0.0
C1501 C 0.37435 0.67985 0.37917 0.0
C1502 C 0.33396 0.68254 0.29137 0.0
C1503 C 0.3729 0.68201 0.27387 0.0
C1504 C 0.3729 0.67984 0.34266 0.0
C1505 C 0.41109 0.67996 0.29157 0.0
C1506 C 0.41354 0.68128 0.39604 0.0
C1507 C 0.33626 0.68014 0.4303 0.0
N1508 N 0.41017 0.67907 0.32509 0.0
N1509 N 0.33707 0.67923 0.39678 0.0
H1510 H 0.45031 0.06676 0.43462 0.0
H1511 H 0.29372 0.06672 0.27769 0.0
H1512 H 0.3127 0.06159 0.44094 0.0
H1513 H 0.43199 0.06357 0.27033 0.0
H1514 H 0.30021 0.06769 0.33788 0.0
H1515 H 0.44407 0.06833 0.37439 0.0
C1516 C 0.41879 0.066 0.42335 0.0
C1517 C 0.38198 0.06396 0.44274 0.0
C1518 C 0.32911 0.06683 0.32306 0.0
C1519 C 0.37468 0.06579 0.37409 0.0
C1520 C 0.32547 0.0663 0.28871 0.0
C1521 C 0.36237 0.06496 0.26902 0.0
C1522 C 0.36993 0.06606 0.33776 0.0
C1523 C 0.40267 0.0645 0.28461 0.0
C1524 C 0.41528 0.06688 0.38902 0.0
C1525 C 0.34195 0.06307 0.4269 0.0
N1526 N 0.40538 0.06502 0.31815 0.0
N1527 N 0.33937 0.06397 0.39344 0.0
H1528 H 0.57136 0.81048 0.02003 0.0
H1529 H 0.69402 0.80649 0.19311 0.0
H1530 H 0.70934 0.81365 0.02988 0.0
H1531 H 0.55728 0.81304 0.18497 0.0
H1532 H 0.69985 0.8076 0.13287 0.0
H1533 H 0.5651 0.81008 0.08039 0.0
C1534 C 0.60031 0.81113 0.03489 0.0
C1535 C 0.64094 0.81208 0.01998 0.0
C1536 C 0.6686 0.80883 0.14429 0.0
C1537 C 0.634 0.81155 0.0888 0.0
C1538 C 0.66522 0.80815 0.17864 0.0
C1539 C 0.6251 0.80968 0.194 0.0
C1540 C 0.63156 0.81095 0.12523 0.0
C1541 C 0.58885 0.81185 0.17409 0.0
C1542 C 0.5967 0.81092 0.06929 0.0
C1543 C 0.67737 0.81293 0.04036 0.0
N1544 N 0.59293 0.81237 0.14064 0.0
N1545 N 0.67305 0.81257 0.07379 0.0
H1546 H 0.55525 0.43447 0.02984 0.0
H1547 H 0.70019 0.43431 0.19309 0.0
H1548 H 0.69305 0.43972 0.02914 0.0
H1549 H 0.56249 0.4398 0.19451 0.0
H1550 H 0.69779 0.43322 0.1327 0.0
H1551 H 0.55718 0.43334 0.09036 0.0
C1552 C 0.58591 0.43532 0.04241 0.0
C1553 C 0.62403 0.43727 0.02455 0.0
C1554 C 0.66813 0.43465 0.14627 0.0
C1555 C 0.62641 0.43596 0.09344 0.0
C1556 C 0.66944 0.43524 0.1807 0.0
C1557 C 0.6315 0.43723 0.19876 0.0
C1558 C 0.62859 0.43595 0.12988 0.0
C1559 C 0.59254 0.43835 0.18148 0.0
C1560 C 0.58695 0.43471 0.07689 0.0
C1561 C 0.66287 0.43831 0.042 0.0
N1562 N 0.59207 0.4377 0.14791 0.0
N1563 N 0.66306 0.43764 0.07555 0.0
H1564 H 0.45873 0.18106 0.78058 0.0
H1565 H 0.29934 0.18082 0.93582 0.0
H1566 H 0.32083 0.18512 0.77256 0.0
H1567 H 0.4373 0.1846 0.94431 0.0
H1568 H 0.30687 0.17929 0.87579 0.0
H1569 H 0.45137 0.17926 0.84062 0.0
C1570 C 0.42688 0.18149 0.79141 0.0
C1571 C 0.39034 0.18334 0.77159 0.0
C1572 C 0.33549 0.1804 0.89082 0.0
C1573 C 0.3818 0.1813 0.84014 0.0
C1574 C 0.33126 0.18125 0.92509 0.0
C1575 C 0.36775 0.18294 0.94505 0.0
C1576 C 0.3765 0.18121 0.87646 0.0
C1577 C 0.40828 0.1834 0.92981 0.0
C1578 C 0.42274 0.18049 0.82567 0.0
C1579 C 0.34988 0.18381 0.78694 0.0
N1580 N 0.41156 0.18259 0.89634 0.0
N1581 N 0.34671 0.18284 0.82037 0.0
H1582 H 0.3628 0.53981 0.94559 0.0
H1583 H 0.34251 0.57806 0.78034 0.0
H1584 H 0.40575 0.57806 0.9412 0.0
H1585 H 0.39323 0.54058 0.77849 0.0
H1586 H 0.34858 0.57804 0.84103 0.0
H1587 H 0.35684 0.53968 0.88483 0.0
C1588 C 0.37068 0.54818 0.93179 0.0
C1589 C 0.38481 0.55897 0.94809 0.0
C1590 C 0.35832 0.56986 0.82718 0.0
C1591 C 0.37736 0.55892 0.87952 0.0
C1592 C 0.35473 0.56983 0.79279 0.0
C1593 C 0.3676 0.55932 0.7747 0.0
C1594 C 0.37366 0.55918 0.84335 0.0
C1595 C 0.38335 0.54889 0.79175 0.0
C1596 C 0.36752 0.54807 0.89735 0.0
C1597 C 0.39496 0.56956 0.92932 0.0
N1598 N 0.38556 0.54902 0.82535 0.0
N1599 N 0.39059 0.56933 0.89588 0.0
loop_
_geom_bond_atom_site_label_1
_geom_bond_atom_site_label_2
_geom_bond_distance
_geom_bond_site_symmetry_2
_ccdc_geom_bond_type
O0 Cd1 2.223 . S
O0 C8 1.315 . S
Cd1 O0 2.223 . S
Cd1 O4 2.297 . S
Cd1 O5 2.439 . S
Cd1 O11 2.240 . S
Cd2 O3 2.240 . S
Cd2 O10 2.223 . S
Cd2 O12 2.297 . S
Cd2 O13 2.439 . S
O3 Cd2 2.240 . S
O3 C8 1.279 . S
O4 Cd1 2.297 . S
O4 C6 1.247 . S
O5 Cd1 2.439 . S
O5 C6 1.208 . S
C6 O4 1.247 . S
C6 O5 1.208 . S
C7 O12 1.247 . S
C7 O13 1.208 . S
C8 O0 1.315 . S
C8 O3 1.279 . S
C9 O10 1.315 . S
C9 O11 1.279 . S
O10 Cd2 2.223 . S
O10 C9 1.315 . S
O11 Cd1 2.240 . S
O11 C9 1.279 . S
O12 Cd2 2.297 . S
O12 C7 1.247 . S
O13 Cd2 2.439 . S
O13 C7 1.208 . S
O14 Cd15 2.223 . S
O14 C22 1.315 . S
Cd15 O14 2.223 . S
Cd15 O18 2.297 . S
Cd15 O19 2.439 . S
Cd15 O25 2.240 . S
Cd16 O17 2.240 . S
Cd16 O24 2.223 . S
Cd16 O26 2.297 . S
Cd16 O27 2.439 . S
O17 Cd16 2.240 . S
O17 C22 1.279 . S
O18 Cd15 2.297 . S
O18 C20 1.247 . S
O19 Cd15 2.439 . S
O19 C20 1.208 . S
C20 O18 1.247 . S
C20 O19 1.208 . S
C21 O26 1.247 . S
C21 O27 1.208 . S
C22 O14 1.315 . S
C22 O17 1.279 . S
C23 O24 1.315 . S
C23 O25 1.279 . S
O24 Cd16 2.223 . S
O24 C23 1.315 . S
O25 Cd15 2.240 . S
O25 C23 1.279 . S
O26 Cd16 2.297 . S
O26 C21 1.247 . S
O27 Cd16 2.439 . S
O27 C21 1.208 . S
O28 Cd29 2.223 . S
O28 C36 1.315 . S
Cd29 O28 2.223 . S
Cd29 O32 2.297 . S
Cd29 O33 2.439 . S
Cd29 O39 2.240 . S
Cd30 O31 2.240 . S
Cd30 O38 2.223 . S
Cd30 O40 2.297 . S
Cd30 O41 2.439 . S
O31 Cd30 2.240 . S
O31 C36 1.279 . S
O32 Cd29 2.297 . S
O32 C34 1.247 . S
O33 Cd29 2.439 . S
O33 C34 1.208 . S
C34 O32 1.247 . S
C34 O33 1.208 . S
C35 O40 1.247 . S
C35 O41 1.208 . S
C36 O28 1.315 . S
C36 O31 1.279 . S
C37 O38 1.315 1_554 S
C37 O39 1.279 1_554 S
O38 Cd30 2.223 . S
O38 C37 1.315 1_556 S
O39 Cd29 2.240 . S
O39 C37 1.279 1_556 S
O40 Cd30 2.297 . S
O40 C35 1.247 . S
O41 Cd30 2.439 . S
O41 C35 1.208 . S
O42 Cd43 2.223 . S
O42 C50 1.315 . S
Cd43 O42 2.223 . S
Cd43 O46 2.297 . S
Cd43 O47 2.439 . S
Cd43 O53 2.240 . S
Cd44 O45 2.240 . S
Cd44 O52 2.223 . S
Cd44 O54 2.297 . S
Cd44 O55 2.439 . S
O45 Cd44 2.240 . S
O45 C50 1.279 . S
O46 Cd43 2.297 . S
O46 C48 1.247 . S
O47 Cd43 2.439 . S
O47 C48 1.208 . S
C48 O46 1.247 . S
C48 O47 1.208 . S
C49 O54 1.247 . S
C49 O55 1.208 . S
C50 O42 1.315 . S
C50 O45 1.279 . S
C51 O52 1.315 1_554 S
C51 O53 1.279 1_554 S
O52 Cd44 2.223 . S
O52 C51 1.315 1_556 S
O53 Cd43 2.240 . S
O53 C51 1.279 1_556 S
O54 Cd44 2.297 . S
O54 C49 1.247 . S
O55 Cd44 2.439 . S
O55 C49 1.208 . S
O56 Cd57 2.223 . S
O56 C64 1.315 . S
Cd57 O56 2.223 . S
Cd57 O60 2.297 . S
Cd57 O61 2.439 . S
Cd57 O67 2.240 . S
Cd58 O59 2.240 . S
Cd58 O66 2.223 . S
Cd58 O68 2.297 . S
Cd58 O69 2.439 . S
O59 Cd58 2.240 . S
O59 C64 1.279 . S
O60 Cd57 2.297 . S
O60 C62 1.247 . S
O61 Cd57 2.439 . S
O61 C62 1.208 . S
C62 O60 1.247 . S
C62 O61 1.208 . S
C63 O68 1.247 . S
C63 O69 1.208 . S
C64 O56 1.315 . S
C64 O59 1.279 . S
C65 O66 1.315 . S
C65 O67 1.279 . S
O66 Cd58 2.223 . S
O66 C65 1.315 . S
O67 Cd57 2.240 . S
O67 C65 1.279 . S
O68 Cd58 2.297 . S
O68 C63 1.247 . S
O69 Cd58 2.439 . S
O69 C63 1.208 . S
O70 Cd71 2.223 . S
O70 C78 1.315 . S
Cd71 O70 2.223 . S
Cd71 O74 2.297 . S
Cd71 O75 2.439 . S
Cd71 O81 2.240 . S
Cd72 O73 2.240 . S
Cd72 O80 2.223 . S
Cd72 O82 2.297 . S
Cd72 O83 2.439 . S
O73 Cd72 2.240 . S
O73 C78 1.279 . S
O74 Cd71 2.297 . S
O74 C76 1.247 . S
O75 Cd71 2.439 . S
O75 C76 1.208 . S
C76 O74 1.247 . S
C76 O75 1.208 . S
C77 O82 1.247 . S
C77 O83 1.208 . S
C78 O70 1.315 . S
C78 O73 1.279 . S
C79 O80 1.315 . S
C79 O81 1.279 . S
O80 Cd72 2.223 . S
O80 C79 1.315 . S
O81 Cd71 2.240 . S
O81 C79 1.279 . S
O82 Cd72 2.297 . S
O82 C77 1.247 . S
O83 Cd72 2.439 . S
O83 C77 1.208 . S
O84 Cd85 2.223 . S
O84 C92 1.315 1_554 S
Cd85 O84 2.223 . S
Cd85 O88 2.297 . S
Cd85 O89 2.439 . S
Cd85 O95 2.240 . S
Cd86 O87 2.240 . S
Cd86 O94 2.223 . S
Cd86 O96 2.297 . S
Cd86 O97 2.439 . S
O87 Cd86 2.240 . S
O87 C92 1.279 1_554 S
O88 Cd85 2.297 . S
O88 C90 1.247 . S
O89 Cd85 2.439 . S
O89 C90 1.208 . S
C90 O88 1.247 . S
C90 O89 1.208 . S
C91 O96 1.247 . S
C91 O97 1.208 . S
C92 O84 1.315 1_556 S
C92 O87 1.279 1_556 S
C93 O94 1.315 . S
C93 O95 1.279 . S
O94 Cd86 2.223 . S
O94 C93 1.315 . S
O95 Cd85 2.240 . S
O95 C93 1.279 . S
O96 Cd86 2.297 . S
O96 C91 1.247 . S
O97 Cd86 2.439 . S
O97 C91 1.208 . S
O98 Cd99 2.223 . S
O98 C106 1.315 1_554 S
Cd99 O98 2.223 . S
Cd99 O102 2.297 . S
Cd99 O103 2.439 . S
Cd99 O109 2.240 . S
Cd100 O101 2.240 . S
Cd100 O108 2.223 . S
Cd100 O110 2.297 . S
Cd100 O111 2.439 . S
O101 Cd100 2.240 . S
O101 C106 1.279 1_554 S
O102 Cd99 2.297 . S
O102 C104 1.247 . S
O103 Cd99 2.439 . S
O103 C104 1.208 . S
C104 O102 1.247 . S
C104 O103 1.208 . S
C105 O110 1.247 . S
C105 O111 1.208 . S
C106 O98 1.315 1_556 S
C106 O101 1.279 1_556 S
C107 O108 1.315 . S
C107 O109 1.279 . S
O108 Cd100 2.223 . S
O108 C107 1.315 . S
O109 Cd99 2.240 . S
O109 C107 1.279 . S
O110 Cd100 2.297 . S
O110 C105 1.247 . S
O111 Cd100 2.439 . S
O111 C105 1.208 . S
O112 Cd113 2.223 . S
O112 C120 1.315 . S
Cd113 O112 2.223 . S
Cd113 O116 2.297 . S
Cd113 O117 2.439 . S
Cd113 O123 2.240 . S
Cd114 O115 2.240 . S
Cd114 O122 2.223 . S
Cd114 O124 2.297 . S
Cd114 O125 2.439 . S
O115 Cd114 2.240 . S
O115 C120 1.279 . S
O116 Cd113 2.297 . S
O116 C118 1.247 . S
O117 Cd113 2.439 . S
O117 C118 1.208 . S
C118 O116 1.247 . S
C118 O117 1.208 . S
C119 O124 1.247 . S
C119 O125 1.208 . S
C120 O112 1.315 . S
C120 O115 1.279 . S
C121 O122 1.315 . S
C121 O123 1.279 . S
O122 Cd114 2.223 . S
O122 C121 1.315 . S
O123 Cd113 2.240 . S
O123 C121 1.279 . S
O124 Cd114 2.297 . S
O124 C119 1.247 . S
O125 Cd114 2.439 . S
O125 C119 1.208 . S
O126 Cd127 2.223 . S
O126 C134 1.315 . S
Cd127 O126 2.223 . S
Cd127 O130 2.297 . S
Cd127 O131 2.439 . S
Cd127 O137 2.240 . S
Cd128 O129 2.240 . S
Cd128 O136 2.223 . S
Cd128 O138 2.297 . S
Cd128 O139 2.439 . S
O129 Cd128 2.240 . S
O129 C134 1.279 . S
O130 Cd127 2.297 . S
O130 C132 1.247 . S
O131 Cd127 2.439 . S
O131 C132 1.208 . S
C132 O130 1.247 . S
C132 O131 1.208 . S
C133 O138 1.247 . S
C133 O139 1.208 . S
C134 O126 1.315 . S
C134 O129 1.279 . S
C135 O136 1.315 . S
C135 O137 1.279 . S
O136 Cd128 2.223 . S
O136 C135 1.315 . S
O137 Cd127 2.240 . S
O137 C135 1.279 . S
O138 Cd128 2.297 . S
O138 C133 1.247 . S
O139 Cd128 2.439 . S
O139 C133 1.208 . S
O140 Cd141 2.223 . S
O140 C148 1.315 . S
Cd141 O140 2.223 . S
Cd141 O144 2.297 . S
Cd141 O145 2.439 . S
Cd141 O151 2.240 . S
Cd142 O143 2.240 . S
Cd142 O150 2.223 . S
Cd142 O152 2.297 . S
Cd142 O153 2.439 . S
O143 Cd142 2.240 . S
O143 C148 1.279 . S
O144 Cd141 2.297 . S
O144 C146 1.247 . S
O145 Cd141 2.439 . S
O145 C146 1.208 . S
C146 O144 1.247 . S
C146 O145 1.208 . S
C147 O152 1.247 . S
C147 O153 1.208 . S
C148 O140 1.315 . S
C148 O143 1.279 . S
C149 O150 1.315 . S
C149 O151 1.279 . S
O150 Cd142 2.223 . S
O150 C149 1.315 . S
O151 Cd141 2.240 . S
O151 C149 1.279 . S
O152 Cd142 2.297 . S
O152 C147 1.247 . S
O153 Cd142 2.439 . S
O153 C147 1.208 . S
O154 Cd155 2.223 . S
O154 C162 1.315 . S
Cd155 O154 2.223 . S
Cd155 O158 2.297 . S
Cd155 O159 2.439 . S
Cd155 O165 2.240 . S
Cd156 O157 2.240 . S
Cd156 O164 2.223 . S
Cd156 O166 2.297 . S
Cd156 O167 2.439 . S
O157 Cd156 2.240 . S
O157 C162 1.279 . S
O158 Cd155 2.297 . S
O158 C160 1.247 . S
O159 Cd155 2.439 . S
O159 C160 1.208 . S
C160 O158 1.247 . S
C160 O159 1.208 . S
C161 O166 1.247 . S
C161 O167 1.208 . S
C162 O154 1.315 . S
C162 O157 1.279 . S
C163 O164 1.315 . S
C163 O165 1.279 . S
O164 Cd156 2.223 . S
O164 C163 1.315 . S
O165 Cd155 2.240 . S
O165 C163 1.279 . S
O166 Cd156 2.297 . S
O166 C161 1.247 . S
O167 Cd156 2.439 . S
O167 C161 1.208 . S
O168 Cd169 2.223 . S
O168 C176 1.315 . S
Cd169 O168 2.223 . S
Cd169 O172 2.297 . S
Cd169 O173 2.439 . S
Cd169 O179 2.240 . S
Cd170 O171 2.240 . S
Cd170 O178 2.223 . S
Cd170 O180 2.297 . S
Cd170 O181 2.439 . S
O171 Cd170 2.240 . S
O171 C176 1.279 . S
O172 Cd169 2.297 . S
O172 C174 1.247 . S
O173 Cd169 2.439 . S
O173 C174 1.208 . S
C174 O172 1.247 . S
C174 O173 1.208 . S
C175 O180 1.247 . S
C175 O181 1.208 . S
C176 O168 1.315 . S
C176 O171 1.279 . S
C177 O178 1.315 . S
C177 O179 1.279 . S
O178 Cd170 2.223 . S
O178 C177 1.315 . S
O179 Cd169 2.240 . S
O179 C177 1.279 . S
O180 Cd170 2.297 . S
O180 C175 1.247 . S
O181 Cd170 2.439 . S
O181 C175 1.208 . S
O182 Cd183 2.223 . S
O182 C190 1.315 . S
Cd183 O182 2.223 . S
Cd183 O186 2.297 . S
Cd183 O187 2.439 . S
Cd183 O193 2.240 . S
Cd184 O185 2.240 . S
Cd184 O192 2.223 . S
Cd184 O194 2.297 . S
Cd184 O195 2.439 . S
O185 Cd184 2.240 . S
O185 C190 1.279 . S
O186 Cd183 2.297 . S
O186 C188 1.247 . S
O187 Cd183 2.439 . S
O187 C188 1.208 . S
C188 O186 1.247 . S
C188 O187 1.208 . S
C189 O194 1.247 . S
C189 O195 1.208 . S
C190 O182 1.315 . S
C190 O185 1.279 . S
C191 O192 1.315 . S
C191 O193 1.279 . S
O192 Cd184 2.223 . S
O192 C191 1.315 . S
O193 Cd183 2.240 . S
O193 C191 1.279 . S
O194 Cd184 2.297 . S
O194 C189 1.247 . S
O195 Cd184 2.439 . S
O195 C189 1.208 . S
O196 Cd197 2.223 . S
O196 C204 1.315 . S
Cd197 O196 2.223 . S
Cd197 O200 2.297 . S
Cd197 O201 2.439 . S
Cd197 O207 2.240 . S
Cd198 O199 2.240 . S
Cd198 O206 2.223 . S
Cd198 O208 2.297 . S
Cd198 O209 2.439 . S
O199 Cd198 2.240 . S
O199 C204 1.279 . S
O200 Cd197 2.297 . S
O200 C202 1.247 . S
O201 Cd197 2.439 . S
O201 C202 1.208 . S
C202 O200 1.247 . S
C202 O201 1.208 . S
C203 O208 1.247 . S
C203 O209 1.208 . S
C204 O196 1.315 . S
C204 O199 1.279 . S
C205 O206 1.315 . S
C205 O207 1.279 . S
O206 Cd198 2.223 . S
O206 C205 1.315 . S
O207 Cd197 2.240 . S
O207 C205 1.279 . S
O208 Cd198 2.297 . S
O208 C203 1.247 . S
O209 Cd198 2.439 . S
O209 C203 1.208 . S
O210 Cd211 2.223 . S
O210 C218 1.315 . S
Cd211 O210 2.223 . S
Cd211 O214 2.297 . S
Cd211 O215 2.439 . S
Cd211 O221 2.240 . S
Cd212 O213 2.240 . S
Cd212 O220 2.223 . S
Cd212 O222 2.297 . S
Cd212 O223 2.439 . S
O213 Cd212 2.240 . S
O213 C218 1.279 . S
O214 Cd211 2.297 . S
O214 C216 1.247 . S
O215 Cd211 2.439 . S
O215 C216 1.208 . S
C216 O214 1.247 . S
C216 O215 1.208 . S
C217 O222 1.247 . S
C217 O223 1.208 . S
C218 O210 1.315 . S
C218 O213 1.279 . S
C219 O220 1.315 . S
C219 O221 1.279 . S
O220 Cd212 2.223 . S
O220 C219 1.315 . S
O221 Cd211 2.240 . S
O221 C219 1.279 . S
O222 Cd212 2.297 . S
O222 C217 1.247 . S
O223 Cd212 2.439 . S
O223 C217 1.208 . S
O224 Cd225 2.223 . S
O224 C232 1.315 . S
Cd225 O224 2.223 . S
Cd225 O228 2.297 . S
Cd225 O229 2.439 . S
Cd225 O235 2.240 . S
Cd226 O227 2.240 . S
Cd226 O234 2.223 . S
Cd226 O236 2.297 . S
Cd226 O237 2.439 . S
O227 Cd226 2.240 . S
O227 C232 1.279 . S
O228 Cd225 2.297 . S
O228 C230 1.247 . S
O229 Cd225 2.439 . S
O229 C230 1.208 . S
C230 O228 1.247 . S
C230 O229 1.208 . S
C231 O236 1.247 . S
C231 O237 1.208 . S
C232 O224 1.315 . S
C232 O227 1.279 . S
C233 O234 1.315 . S
C233 O235 1.279 . S
O234 Cd226 2.223 . S
O234 C233 1.315 . S
O235 Cd225 2.240 . S
O235 C233 1.279 . S
O236 Cd226 2.297 . S
O236 C231 1.247 . S
O237 Cd226 2.439 . S
O237 C231 1.208 . S
O238 Cd239 2.223 . S
O238 C246 1.315 . S
Cd239 O238 2.223 . S
Cd239 O242 2.297 . S
Cd239 O243 2.439 . S
Cd239 O249 2.240 . S
Cd240 O241 2.240 . S
Cd240 O248 2.223 . S
Cd240 O250 2.297 . S
Cd240 O251 2.439 . S
O241 Cd240 2.240 . S
O241 C246 1.279 . S
O242 Cd239 2.297 . S
O242 C244 1.247 . S
O243 Cd239 2.439 . S
O243 C244 1.208 . S
C244 O242 1.247 . S
C244 O243 1.208 . S
C245 O250 1.247 . S
C245 O251 1.208 . S
C246 O238 1.315 . S
C246 O241 1.279 . S
C247 O248 1.315 . S
C247 O249 1.279 . S
O248 Cd240 2.223 . S
O248 C247 1.315 . S
O249 Cd239 2.240 . S
O249 C247 1.279 . S
O250 Cd240 2.297 . S
O250 C245 1.247 . S
O251 Cd240 2.439 . S
O251 C245 1.208 . S
O252 Cd253 2.223 . S
O252 C260 1.315 . S
Cd253 O252 2.223 . S
Cd253 O256 2.297 . S
Cd253 O257 2.439 . S
Cd253 O263 2.240 . S
Cd254 O255 2.240 . S
Cd254 O262 2.223 . S
Cd254 O264 2.297 . S
Cd254 O265 2.439 . S
O255 Cd254 2.240 . S
O255 C260 1.279 . S
O256 Cd253 2.297 . S
O256 C258 1.247 . S
O257 Cd253 2.439 . S
O257 C258 1.208 . S
C258 O256 1.247 . S
C258 O257 1.208 . S
C259 O264 1.247 . S
C259 O265 1.208 . S
C260 O252 1.315 . S
C260 O255 1.279 . S
C261 O262 1.315 . S
C261 O263 1.279 . S
O262 Cd254 2.223 . S
O262 C261 1.315 . S
O263 Cd253 2.240 . S
O263 C261 1.279 . S
O264 Cd254 2.297 . S
O264 C259 1.247 . S
O265 Cd254 2.439 . S
O265 C259 1.208 . S
O266 Cd267 2.223 . S
O266 C274 1.315 . S
Cd267 O266 2.223 . S
Cd267 O270 2.297 . S
Cd267 O271 2.439 . S
Cd267 O277 2.240 . S
Cd268 O269 2.240 . S
Cd268 O276 2.223 . S
Cd268 O278 2.297 . S
Cd268 O279 2.439 . S
O269 Cd268 2.240 . S
O269 C274 1.279 . S
O270 Cd267 2.297 . S
O270 C272 1.247 . S
O271 Cd267 2.439 . S
O271 C272 1.208 . S
C272 O270 1.247 . S
C272 O271 1.208 . S
C273 O278 1.247 . S
C273 O279 1.208 . S
C274 O266 1.315 . S
C274 O269 1.279 . S
C275 O276 1.315 . S
C275 O277 1.279 . S
O276 Cd268 2.223 . S
O276 C275 1.315 . S
O277 Cd267 2.240 . S
O277 C275 1.279 . S
O278 Cd268 2.297 . S
O278 C273 1.247 . S
O279 Cd268 2.439 . S
O279 C273 1.208 . S
O280 Cd281 2.223 . S
O280 C288 1.315 . S
Cd281 O280 2.223 . S
Cd281 O284 2.297 . S
Cd281 O285 2.439 . S
Cd281 O291 2.240 . S
Cd282 O283 2.240 . S
Cd282 O290 2.223 . S
Cd282 O292 2.297 . S
Cd282 O293 2.439 . S
O283 Cd282 2.240 . S
O283 C288 1.279 . S
O284 Cd281 2.297 . S
O284 C286 1.247 . S
O285 Cd281 2.439 . S
O285 C286 1.208 . S
C286 O284 1.247 . S
C286 O285 1.208 . S
C287 O292 1.247 . S
C287 O293 1.208 . S
C288 O280 1.315 . S
C288 O283 1.279 . S
C289 O290 1.315 . S
C289 O291 1.279 . S
O290 Cd282 2.223 . S
O290 C289 1.315 . S
O291 Cd281 2.240 . S
O291 C289 1.279 . S
O292 Cd282 2.297 . S
O292 C287 1.247 . S
O293 Cd282 2.439 . S
O293 C287 1.208 . S
O294 Cd295 2.223 . S
O294 C302 1.315 . S
Cd295 O294 2.223 . S
Cd295 O298 2.297 . S
Cd295 O299 2.439 . S
Cd295 O305 2.240 . S
Cd296 O297 2.240 . S
Cd296 O304 2.223 . S
Cd296 O306 2.297 . S
Cd296 O307 2.439 . S
O297 Cd296 2.240 . S
O297 C302 1.279 . S
O298 Cd295 2.297 . S
O298 C300 1.247 . S
O299 Cd295 2.439 . S
O299 C300 1.208 . S
C300 O298 1.247 . S
C300 O299 1.208 . S
C301 O306 1.247 . S
C301 O307 1.208 . S
C302 O294 1.315 . S
C302 O297 1.279 . S
C303 O304 1.315 . S
C303 O305 1.279 . S
O304 Cd296 2.223 . S
O304 C303 1.315 . S
O305 Cd295 2.240 . S
O305 C303 1.279 . S
O306 Cd296 2.297 . S
O306 C301 1.247 . S
O307 Cd296 2.439 . S
O307 C301 1.208 . S
O308 Cd309 2.223 . S
O308 C316 1.315 . S
Cd309 O308 2.223 . S
Cd309 O312 2.297 . S
Cd309 O313 2.439 . S
Cd309 O319 2.240 . S
Cd310 O311 2.240 . S
Cd310 O318 2.223 . S
Cd310 O320 2.297 . S
Cd310 O321 2.439 . S
O311 Cd310 2.240 . S
O311 C316 1.279 . S
O312 Cd309 2.297 . S
O312 C314 1.247 . S
O313 Cd309 2.439 . S
O313 C314 1.208 . S
C314 O312 1.247 . S
C314 O313 1.208 . S
C315 O320 1.247 . S
C315 O321 1.208 . S
C316 O308 1.315 . S
C316 O311 1.279 . S
C317 O318 1.315 . S
C317 O319 1.279 . S
O318 Cd310 2.223 . S
O318 C317 1.315 . S
O319 Cd309 2.240 . S
O319 C317 1.279 . S
O320 Cd310 2.297 . S
O320 C315 1.247 . S
O321 Cd310 2.439 . S
O321 C315 1.208 . S
O322 Cd323 2.223 . S
O322 C330 1.315 . S
Cd323 O322 2.223 . S
Cd323 O326 2.297 . S
Cd323 O327 2.439 . S
Cd323 O333 2.240 . S
Cd324 O325 2.240 . S
Cd324 O332 2.223 . S
Cd324 O334 2.297 . S
Cd324 O335 2.439 . S
O325 Cd324 2.240 . S
O325 C330 1.279 . S
O326 Cd323 2.297 . S
O326 C328 1.247 . S
O327 Cd323 2.439 . S
O327 C328 1.208 . S
C328 O326 1.247 . S
C328 O327 1.208 . S
C329 O334 1.247 . S
C329 O335 1.208 . S
C330 O322 1.315 . S
C330 O325 1.279 . S
C331 O332 1.315 . S
C331 O333 1.279 . S
O332 Cd324 2.223 . S
O332 C331 1.315 . S
O333 Cd323 2.240 . S
O333 C331 1.279 . S
O334 Cd324 2.297 . S
O334 C329 1.247 . S
O335 Cd324 2.439 . S
O335 C329 1.208 . S
O336 Cd337 2.223 . S
O336 C344 1.315 . S
Cd337 O336 2.223 . S
Cd337 O340 2.297 . S
Cd337 O341 2.439 . S
Cd337 O347 2.240 . S
Cd338 O339 2.240 . S
Cd338 O346 2.223 . S
Cd338 O348 2.297 . S
Cd338 O349 2.439 . S
O339 Cd338 2.240 . S
O339 C344 1.279 . S
O340 Cd337 2.297 . S
O340 C342 1.247 . S
O341 Cd337 2.439 . S
O341 C342 1.208 . S
C342 O340 1.247 . S
C342 O341 1.208 . S
C343 O348 1.247 . S
C343 O349 1.208 . S
C344 O336 1.315 . S
C344 O339 1.279 . S
C345 O346 1.315 . S
C345 O347 1.279 . S
O346 Cd338 2.223 . S
O346 C345 1.315 . S
O347 Cd337 2.240 . S
O347 C345 1.279 . S
O348 Cd338 2.297 . S
O348 C343 1.247 . S
O349 Cd338 2.439 . S
O349 C343 1.208 . S
O350 Cd351 2.223 . S
O350 C358 1.315 . S
Cd351 O350 2.223 . S
Cd351 O354 2.297 . S
Cd351 O355 2.439 . S
Cd351 O361 2.240 . S
Cd352 O353 2.240 . S
Cd352 O360 2.223 . S
Cd352 O362 2.297 . S
Cd352 O363 2.439 . S
O353 Cd352 2.240 . S
O353 C358 1.279 . S
O354 Cd351 2.297 . S
O354 C356 1.247 . S
O355 Cd351 2.439 . S
O355 C356 1.208 . S
C356 O354 1.247 . S
C356 O355 1.208 . S
C357 O362 1.247 . S
C357 O363 1.208 . S
C358 O350 1.315 . S
C358 O353 1.279 . S
C359 O360 1.315 . S
C359 O361 1.279 . S
O360 Cd352 2.223 . S
O360 C359 1.315 . S
O361 Cd351 2.240 . S
O361 C359 1.279 . S
O362 Cd352 2.297 . S
O362 C357 1.247 . S
O363 Cd352 2.439 . S
O363 C357 1.208 . S
O364 Cd365 2.223 . S
O364 C372 1.315 . S
Cd365 O364 2.223 . S
Cd365 O368 2.297 . S
Cd365 O369 2.439 . S
Cd365 O375 2.240 . S
Cd366 O367 2.240 . S
Cd366 O374 2.223 . S
Cd366 O376 2.297 . S
Cd366 O377 2.439 . S
O367 Cd366 2.240 . S
O367 C372 1.279 . S
O368 Cd365 2.297 . S
O368 C370 1.247 . S
O369 Cd365 2.439 . S
O369 C370 1.208 . S
C370 O368 1.247 . S
C370 O369 1.208 . S
C371 O376 1.247 . S
C371 O377 1.208 . S
C372 O364 1.315 . S
C372 O367 1.279 . S
C373 O374 1.315 1_554 S
C373 O375 1.279 1_554 S
O374 Cd366 2.223 . S
O374 C373 1.315 1_556 S
O375 Cd365 2.240 . S
O375 C373 1.279 1_556 S
O376 Cd366 2.297 . S
O376 C371 1.247 . S
O377 Cd366 2.439 . S
O377 C371 1.208 . S
O378 Cd379 2.223 . S
O378 C386 1.315 . S
Cd379 O378 2.223 . S
Cd379 O382 2.297 . S
Cd379 O383 2.439 . S
Cd379 O389 2.240 . S
Cd380 O381 2.240 . S
Cd380 O388 2.223 . S
Cd380 O390 2.297 . S
Cd380 O391 2.439 . S
O381 Cd380 2.240 . S
O381 C386 1.279 . S
O382 Cd379 2.297 . S
O382 C384 1.247 . S
O383 Cd379 2.439 . S
O383 C384 1.208 . S
C384 O382 1.247 . S
C384 O383 1.208 . S
C385 O390 1.247 . S
C385 O391 1.208 . S
C386 O378 1.315 . S
C386 O381 1.279 . S
C387 O388 1.315 1_554 S
C387 O389 1.279 1_554 S
O388 Cd380 2.223 . S
O388 C387 1.315 1_556 S
O389 Cd379 2.240 . S
O389 C387 1.279 1_556 S
O390 Cd380 2.297 . S
O390 C385 1.247 . S
O391 Cd380 2.439 . S
O391 C385 1.208 . S
O392 Cd393 2.223 . S
O392 C400 1.315 . S
Cd393 O392 2.223 . S
Cd393 O396 2.297 . S
Cd393 O397 2.439 . S
Cd393 O403 2.240 . S
Cd394 O395 2.240 . S
Cd394 O402 2.223 . S
Cd394 O404 2.297 . S
Cd394 O405 2.439 . S
O395 Cd394 2.240 . S
O395 C400 1.279 . S
O396 Cd393 2.297 . S
O396 C398 1.247 . S
O397 Cd393 2.439 . S
O397 C398 1.208 . S
C398 O396 1.247 . S
C398 O397 1.208 . S
C399 O404 1.247 . S
C399 O405 1.208 . S
C400 O392 1.315 . S
C400 O395 1.279 . S
C401 O402 1.315 . S
C401 O403 1.279 . S
O402 Cd394 2.223 . S
O402 C401 1.315 . S
O403 Cd393 2.240 . S
O403 C401 1.279 . S
O404 Cd394 2.297 . S
O404 C399 1.247 . S
O405 Cd394 2.439 . S
O405 C399 1.208 . S
O406 Cd407 2.223 . S
O406 C414 1.315 . S
Cd407 O406 2.223 . S
Cd407 O410 2.297 . S
Cd407 O411 2.439 . S
Cd407 O417 2.240 . S
Cd408 O409 2.240 . S
Cd408 O416 2.223 . S
Cd408 O418 2.297 . S
Cd408 O419 2.439 . S
O409 Cd408 2.240 . S
O409 C414 1.279 . S
O410 Cd407 2.297 . S
O410 C412 1.247 . S
O411 Cd407 2.439 . S
O411 C412 1.208 . S
C412 O410 1.247 . S
C412 O411 1.208 . S
C413 O418 1.247 . S
C413 O419 1.208 . S
C414 O406 1.315 . S
C414 O409 1.279 . S
C415 O416 1.315 . S
C415 O417 1.279 . S
O416 Cd408 2.223 . S
O416 C415 1.315 . S
O417 Cd407 2.240 . S
O417 C415 1.279 . S
O418 Cd408 2.297 . S
O418 C413 1.247 . S
O419 Cd408 2.439 . S
O419 C413 1.208 . S
O420 Cd421 2.223 . S
O420 C428 1.315 1_554 S
Cd421 O420 2.223 . S
Cd421 O424 2.297 . S
Cd421 O425 2.439 . S
Cd421 O431 2.240 . S
Cd422 O423 2.240 . S
Cd422 O430 2.223 . S
Cd422 O432 2.297 . S
Cd422 O433 2.439 . S
O423 Cd422 2.240 . S
O423 C428 1.279 1_554 S
O424 Cd421 2.297 . S
O424 C426 1.247 . S
O425 Cd421 2.439 . S
O425 C426 1.208 . S
C426 O424 1.247 . S
C426 O425 1.208 . S
C427 O432 1.247 . S
C427 O433 1.208 . S
C428 O420 1.315 1_556 S
C428 O423 1.279 1_556 S
C429 O430 1.315 . S
C429 O431 1.279 . S
O430 Cd422 2.223 . S
O430 C429 1.315 . S
O431 Cd421 2.240 . S
O431 C429 1.279 . S
O432 Cd422 2.297 . S
O432 C427 1.247 . S
O433 Cd422 2.439 . S
O433 C427 1.208 . S
O434 Cd435 2.223 . S
O434 C442 1.315 1_554 S
Cd435 O434 2.223 . S
Cd435 O438 2.297 . S
Cd435 O439 2.439 . S
Cd435 O445 2.240 . S
Cd436 O437 2.240 . S
Cd436 O444 2.223 . S
Cd436 O446 2.297 . S
Cd436 O447 2.439 . S
O437 Cd436 2.240 . S
O437 C442 1.279 1_554 S
O438 Cd435 2.297 . S
O438 C440 1.247 . S
O439 Cd435 2.439 . S
O439 C440 1.208 . S
C440 O438 1.247 . S
C440 O439 1.208 . S
C441 O446 1.247 . S
C441 O447 1.208 . S
C442 O434 1.315 1_556 S
C442 O437 1.279 1_556 S
C443 O444 1.315 . S
C443 O445 1.279 . S
O444 Cd436 2.223 . S
O444 C443 1.315 . S
O445 Cd435 2.240 . S
O445 C443 1.279 . S
O446 Cd436 2.297 . S
O446 C441 1.247 . S
O447 Cd436 2.439 . S
O447 C441 1.208 . S
H448 C454 0.930 . S
H449 C458 0.930 . S
H450 C463 0.929 . S
H451 C461 0.929 . S
H452 C456 0.929 . S
H453 C462 0.929 . S
C454 H448 0.930 . S
C454 C455 1.367 . S
C454 C462 1.378 . S
C455 C454 1.367 . S
C455 C463 1.433 . S
C456 H452 0.929 . S
C456 C458 1.378 . S
C456 C460 1.350 . S
C457 C460 1.463 . S
C457 C462 1.350 . S
C457 N465 1.427 . S
C458 H449 0.930 . S
C458 C456 1.378 . S
C458 C459 1.367 . S
C459 C458 1.367 . S
C459 C461 1.433 . S
C460 C456 1.350 . S
C460 C457 1.463 . S
C460 N464 1.427 . S
C461 H451 0.929 . S
C461 C459 1.433 . S
C461 N464 1.384 . S
C462 H453 0.929 . S
C462 C454 1.378 . S
C462 C457 1.350 . S
C463 H450 0.929 . S
C463 C455 1.433 . S
C463 N465 1.384 . S
N464 C460 1.427 . S
N464 C461 1.384 . S
N465 C457 1.427 . S
N465 C463 1.384 . S
H466 C472 0.930 . S
H467 C476 0.930 . S
H468 C481 0.929 . S
H469 C479 0.929 . S
H470 C474 0.929 . S
H471 C480 0.929 . S
C472 H466 0.930 . S
C472 C473 1.367 . S
C472 C480 1.378 . S
C473 C472 1.367 . S
C473 C481 1.433 . S
C474 H470 0.929 . S
C474 C476 1.378 . S
C474 C478 1.350 . S
C475 C478 1.463 . S
C475 C480 1.350 . S
C475 N483 1.427 . S
C476 H467 0.930 . S
C476 C474 1.378 . S
C476 C477 1.367 . S
C477 C476 1.367 . S
C477 C479 1.433 . S
C478 C474 1.350 . S
C478 C475 1.463 . S
C478 N482 1.427 . S
C479 H469 0.929 . S
C479 C477 1.433 . S
C479 N482 1.384 . S
C480 H471 0.929 . S
C480 C472 1.378 . S
C480 C475 1.350 . S
C481 H468 0.929 . S
C481 C473 1.433 . S
C481 N483 1.384 . S
N482 C478 1.427 . S
N482 C479 1.384 . S
N483 C475 1.427 . S
N483 C481 1.384 . S
H484 C490 0.930 . S
H485 C494 0.930 . S
H486 C499 0.929 . S
H487 C497 0.929 . S
H488 C492 0.929 . S
H489 C498 0.929 . S
C490 H484 0.930 . S
C490 C491 1.367 . S
C490 C498 1.378 . S
C491 C490 1.367 . S
C491 C499 1.433 . S
C492 H488 0.929 . S
C492 C494 1.378 . S
C492 C496 1.350 . S
C493 C496 1.463 . S
C493 C498 1.350 . S
C493 N501 1.427 . S
C494 H485 0.930 . S
C494 C492 1.378 . S
C494 C495 1.367 . S
C495 C494 1.367 . S
C495 C497 1.433 . S
C496 C492 1.350 . S
C496 C493 1.463 . S
C496 N500 1.427 . S
C497 H487 0.929 . S
C497 C495 1.433 . S
C497 N500 1.384 . S
C498 H489 0.929 . S
C498 C490 1.378 . S
C498 C493 1.350 . S
C499 H486 0.929 . S
C499 C491 1.433 . S
C499 N501 1.384 . S
N500 C496 1.427 . S
N500 C497 1.384 . S
N501 C493 1.427 . S
N501 C499 1.384 . S
H502 C508 0.930 . S
H503 C512 0.930 . S
H504 C517 0.929 . S
H505 C515 0.929 . S
H506 C510 0.929 . S
H507 C516 0.929 . S
C508 H502 0.930 . S
C508 C509 1.367 . S
C508 C516 1.378 . S
C509 C508 1.367 . S
C509 C517 1.433 . S
C510 H506 0.929 . S
C510 C512 1.378 . S
C510 C514 1.350 . S
C511 C514 1.463 . S
C511 C516 1.350 . S
C511 N519 1.427 . S
C512 H503 0.930 . S
C512 C510 1.378 . S
C512 C513 1.367 . S
C513 C512 1.367 . S
C513 C515 1.433 . S
C514 C510 1.350 . S
C514 C511 1.463 . S
C514 N518 1.427 . S
C515 H505 0.929 . S
C515 C513 1.433 . S
C515 N518 1.384 . S
C516 H507 0.929 . S
C516 C508 1.378 . S
C516 C511 1.350 . S
C517 H504 0.929 . S
C517 C509 1.433 . S
C517 N519 1.384 . S
N518 C514 1.427 . S
N518 C515 1.384 . S
N519 C511 1.427 . S
N519 C517 1.384 . S
H520 C526 0.930 . S
H521 C530 0.930 . S
H522 C535 0.929 . S
H523 C533 0.929 . S
H524 C528 0.929 . S
H525 C534 0.929 . S
C526 H520 0.930 . S
C526 C527 1.367 . S
C526 C534 1.378 . S
C527 C526 1.367 . S
C527 C535 1.433 . S
C528 H524 0.929 . S
C528 C530 1.378 . S
C528 C532 1.350 . S
C529 C532 1.463 . S
C529 C534 1.350 . S
C529 N537 1.427 . S
C530 H521 0.930 . S
C530 C528 1.378 . S
C530 C531 1.367 . S
C531 C530 1.367 . S
C531 C533 1.433 . S
C532 C528 1.350 . S
C532 C529 1.463 . S
C532 N536 1.427 . S
C533 H523 0.929 . S
C533 C531 1.433 . S
C533 N536 1.384 . S
C534 H525 0.929 . S
C534 C526 1.378 . S
C534 C529 1.350 . S
C535 H522 0.929 . S
C535 C527 1.433 . S
C535 N537 1.384 . S
N536 C532 1.427 . S
N536 C533 1.384 . S
N537 C529 1.427 . S
N537 C535 1.384 . S
H538 C544 0.930 . S
H539 C548 0.930 . S
H540 C553 0.929 . S
H541 C551 0.929 . S
H542 C546 0.929 . S
H543 C552 0.929 . S
C544 H538 0.930 . S
C544 C545 1.367 . S
C544 C552 1.378 . S
C545 C544 1.367 . S
C545 C553 1.433 . S
C546 H542 0.929 . S
C546 C548 1.378 . S
C546 C550 1.350 . S
C547 C550 1.463 . S
C547 C552 1.350 . S
C547 N555 1.427 . S
C548 H539 0.930 . S
C548 C546 1.378 . S
C548 C549 1.367 . S
C549 C548 1.367 . S
C549 C551 1.433 . S
C550 C546 1.350 . S
C550 C547 1.463 . S
C550 N554 1.427 . S
C551 H541 0.929 . S
C551 C549 1.433 . S
C551 N554 1.384 . S
C552 H543 0.929 . S
C552 C544 1.378 . S
C552 C547 1.350 . S
C553 H540 0.929 . S
C553 C545 1.433 . S
C553 N555 1.384 . S
N554 C550 1.427 . S
N554 C551 1.384 . S
N555 C547 1.427 . S
N555 C553 1.384 . S
H556 C562 0.930 . S
H557 C566 0.930 . S
H558 C571 0.929 . S
H559 C569 0.929 . S
H560 C564 0.929 . S
H561 C570 0.929 . S
C562 H556 0.930 . S
C562 C563 1.367 . S
C562 C570 1.378 . S
C563 C562 1.367 . S
C563 C571 1.433 . S
C564 H560 0.929 . S
C564 C566 1.378 . S
C564 C568 1.350 . S
C565 C568 1.463 . S
C565 C570 1.350 . S
C565 N573 1.427 . S
C566 H557 0.930 . S
C566 C564 1.378 . S
C566 C567 1.367 . S
C567 C566 1.367 . S
C567 C569 1.433 . S
C568 C564 1.350 . S
C568 C565 1.463 . S
C568 N572 1.427 . S
C569 H559 0.929 . S
C569 C567 1.433 . S
C569 N572 1.384 . S
C570 H561 0.929 . S
C570 C562 1.378 . S
C570 C565 1.350 . S
C571 H558 0.929 . S
C571 C563 1.433 . S
C571 N573 1.384 . S
N572 C568 1.427 . S
N572 C569 1.384 . S
N573 C565 1.427 . S
N573 C571 1.384 . S
H574 C580 0.930 . S
H575 C584 0.930 . S
H576 C589 0.929 . S
H577 C587 0.929 . S
H578 C582 0.929 . S
H579 C588 0.929 . S
C580 H574 0.930 . S
C580 C581 1.367 . S
C580 C588 1.378 . S
C581 C580 1.367 . S
C581 C589 1.433 . S
C582 H578 0.929 . S
C582 C584 1.378 . S
C582 C586 1.350 . S
C583 C586 1.463 . S
C583 C588 1.350 . S
C583 N591 1.427 . S
C584 H575 0.930 . S
C584 C582 1.378 . S
C584 C585 1.367 . S
C585 C584 1.367 . S
C585 C587 1.433 . S
C586 C582 1.350 . S
C586 C583 1.463 . S
C586 N590 1.427 . S
C587 H577 0.929 . S
C587 C585 1.433 . S
C587 N590 1.384 . S
C588 H579 0.929 . S
C588 C580 1.378 . S
C588 C583 1.350 . S
C589 H576 0.929 . S
C589 C581 1.433 . S
C589 N591 1.384 . S
N590 C586 1.427 . S
N590 C587 1.384 . S
N591 C583 1.427 . S
N591 C589 1.384 . S
H592 C598 0.930 . S
H593 C602 0.930 . S
H594 C607 0.929 . S
H595 C605 0.929 . S
H596 C600 0.929 . S
H597 C606 0.929 . S
C598 H592 0.930 . S
C598 C599 1.367 . S
C598 C606 1.378 . S
C599 C598 1.367 . S
C599 C607 1.433 . S
C600 H596 0.929 . S
C600 C602 1.378 . S
C600 C604 1.350 . S
C601 C604 1.463 . S
C601 C606 1.350 . S
C601 N609 1.427 . S
C602 H593 0.930 . S
C602 C600 1.378 . S
C602 C603 1.367 . S
C603 C602 1.367 . S
C603 C605 1.433 . S
C604 C600 1.350 . S
C604 C601 1.463 . S
C604 N608 1.427 . S
C605 H595 0.929 . S
C605 C603 1.433 . S
C605 N608 1.384 . S
C606 H597 0.929 . S
C606 C598 1.378 . S
C606 C601 1.350 . S
C607 H594 0.929 . S
C607 C599 1.433 . S
C607 N609 1.384 . S
N608 C604 1.427 . S
N608 C605 1.384 . S
N609 C601 1.427 . S
N609 C607 1.384 . S
H610 C616 0.930 . S
H611 C620 0.930 . S
H612 C625 0.929 . S
H613 C623 0.929 . S
H614 C618 0.929 . S
H615 C624 0.929 . S
C616 H610 0.930 . S
C616 C617 1.367 . S
C616 C624 1.378 . S
C617 C616 1.367 . S
C617 C625 1.433 . S
C618 H614 0.929 . S
C618 C620 1.378 . S
C618 C622 1.350 . S
C619 C622 1.463 . S
C619 C624 1.350 . S
C619 N627 1.427 . S
C620 H611 0.930 . S
C620 C618 1.378 . S
C620 C621 1.367 . S
C621 C620 1.367 . S
C621 C623 1.433 . S
C622 C618 1.350 . S
C622 C619 1.463 . S
C622 N626 1.427 . S
C623 H613 0.929 . S
C623 C621 1.433 . S
C623 N626 1.384 . S
C624 H615 0.929 . S
C624 C616 1.378 . S
C624 C619 1.350 . S
C625 H612 0.929 . S
C625 C617 1.433 . S
C625 N627 1.384 . S
N626 C622 1.427 . S
N626 C623 1.384 . S
N627 C619 1.427 . S
N627 C625 1.384 . S
H628 C634 0.930 . S
H629 C638 0.930 . S
H630 C643 0.929 . S
H631 C641 0.929 . S
H632 C636 0.929 . S
H633 C642 0.929 . S
C634 H628 0.930 . S
C634 C635 1.367 . S
C634 C642 1.378 . S
C635 C634 1.367 . S
C635 C643 1.433 . S
C636 H632 0.929 . S
C636 C638 1.378 . S
C636 C640 1.350 . S
C637 C640 1.463 . S
C637 C642 1.350 . S
C637 N645 1.427 . S
C638 H629 0.930 . S
C638 C636 1.378 . S
C638 C639 1.367 . S
C639 C638 1.367 . S
C639 C641 1.433 . S
C640 C636 1.350 . S
C640 C637 1.463 . S
C640 N644 1.427 . S
C641 H631 0.929 . S
C641 C639 1.433 . S
C641 N644 1.384 . S
C642 H633 0.929 . S
C642 C634 1.378 . S
C642 C637 1.350 . S
C643 H630 0.929 . S
C643 C635 1.433 . S
C643 N645 1.384 . S
N644 C640 1.427 . S
N644 C641 1.384 . S
N645 C637 1.427 . S
N645 C643 1.384 . S
H646 C652 0.930 . S
H647 C656 0.930 . S
H648 C661 0.929 . S
H649 C659 0.929 . S
H650 C654 0.929 . S
H651 C660 0.929 . S
C652 H646 0.930 . S
C652 C653 1.367 . S
C652 C660 1.378 . S
C653 C652 1.367 . S
C653 C661 1.433 . S
C654 H650 0.929 . S
C654 C656 1.378 . S
C654 C658 1.350 . S
C655 C658 1.463 . S
C655 C660 1.350 . S
C655 N663 1.427 . S
C656 H647 0.930 . S
C656 C654 1.378 . S
C656 C657 1.367 . S
C657 C656 1.367 . S
C657 C659 1.433 . S
C658 C654 1.350 . S
C658 C655 1.463 . S
C658 N662 1.427 . S
C659 H649 0.929 . S
C659 C657 1.433 . S
C659 N662 1.384 . S
C660 H651 0.929 . S
C660 C652 1.378 . S
C660 C655 1.350 . S
C661 H648 0.929 . S
C661 C653 1.433 . S
C661 N663 1.384 . S
N662 C658 1.427 . S
N662 C659 1.384 . S
N663 C655 1.427 . S
N663 C661 1.384 . S
H664 C670 0.930 . S
H665 C674 0.930 . S
H666 C679 0.929 . S
H667 C677 0.929 . S
H668 C672 0.929 . S
H669 C678 0.929 . S
C670 H664 0.930 . S
C670 C671 1.367 . S
C670 C678 1.378 . S
C671 C670 1.367 . S
C671 C679 1.433 . S
C672 H668 0.929 . S
C672 C674 1.378 . S
C672 C676 1.350 . S
C673 C676 1.463 . S
C673 C678 1.350 . S
C673 N681 1.427 . S
C674 H665 0.930 . S
C674 C672 1.378 . S
C674 C675 1.367 . S
C675 C674 1.367 . S
C675 C677 1.433 . S
C676 C672 1.350 . S
C676 C673 1.463 . S
C676 N680 1.427 . S
C677 H667 0.929 . S
C677 C675 1.433 . S
C677 N680 1.384 . S
C678 H669 0.929 . S
C678 C670 1.378 . S
C678 C673 1.350 . S
C679 H666 0.929 . S
C679 C671 1.433 . S
C679 N681 1.384 . S
N680 C676 1.427 . S
N680 C677 1.384 . S
N681 C673 1.427 . S
N681 C679 1.384 . S
H682 C688 0.930 . S
H683 C692 0.930 . S
H684 C697 0.929 . S
H685 C695 0.929 . S
H686 C690 0.929 . S
H687 C696 0.929 . S
C688 H682 0.930 . S
C688 C689 1.367 . S
C688 C696 1.378 . S
C689 C688 1.367 . S
C689 C697 1.433 . S
C690 H686 0.929 . S
C690 C692 1.378 . S
C690 C694 1.350 . S
C691 C694 1.463 . S
C691 C696 1.350 . S
C691 N699 1.427 . S
C692 H683 0.930 . S
C692 C690 1.378 . S
C692 C693 1.367 . S
C693 C692 1.367 . S
C693 C695 1.433 . S
C694 C690 1.350 . S
C694 C691 1.463 . S
C694 N698 1.427 . S
C695 H685 0.929 . S
C695 C693 1.433 . S
C695 N698 1.384 . S
C696 H687 0.929 . S
C696 C688 1.378 . S
C696 C691 1.350 . S
C697 H684 0.929 . S
C697 C689 1.433 . S
C697 N699 1.384 . S
N698 C694 1.427 . S
N698 C695 1.384 . S
N699 C691 1.427 . S
N699 C697 1.384 . S
H700 C706 0.930 . S
H701 C710 0.930 . S
H702 C715 0.929 . S
H703 C713 0.929 . S
H704 C708 0.929 . S
H705 C714 0.929 . S
C706 H700 0.930 . S
C706 C707 1.367 . S
C706 C714 1.378 . S
C707 C706 1.367 . S
C707 C715 1.433 . S
C708 H704 0.929 . S
C708 C710 1.378 . S
C708 C712 1.350 . S
C709 C712 1.463 . S
C709 C714 1.350 . S
C709 N717 1.427 . S
C710 H701 0.930 . S
C710 C708 1.378 . S
C710 C711 1.367 . S
C711 C710 1.367 . S
C711 C713 1.433 . S
C712 C708 1.350 . S
C712 C709 1.463 . S
C712 N716 1.427 . S
C713 H703 0.929 . S
C713 C711 1.433 . S
C713 N716 1.384 . S
C714 H705 0.929 . S
C714 C706 1.378 . S
C714 C709 1.350 . S
C715 H702 0.929 . S
C715 C707 1.433 . S
C715 N717 1.384 . S
N716 C712 1.427 . S
N716 C713 1.384 . S
N717 C709 1.427 . S
N717 C715 1.384 . S
H718 C724 0.930 . S
H719 C728 0.930 . S
H720 C733 0.929 . S
H721 C731 0.929 . S
H722 C726 0.929 . S
H723 C732 0.929 . S
C724 H718 0.930 . S
C724 C725 1.367 . S
C724 C732 1.378 . S
C725 C724 1.367 . S
C725 C733 1.433 . S
C726 H722 0.929 . S
C726 C728 1.378 . S
C726 C730 1.350 . S
C727 C730 1.463 . S
C727 C732 1.350 . S
C727 N735 1.427 . S
C728 H719 0.930 . S
C728 C726 1.378 . S
C728 C729 1.367 . S
C729 C728 1.367 . S
C729 C731 1.433 . S
C730 C726 1.350 . S
C730 C727 1.463 . S
C730 N734 1.427 . S
C731 H721 0.929 . S
C731 C729 1.433 . S
C731 N734 1.384 . S
C732 H723 0.929 . S
C732 C724 1.378 . S
C732 C727 1.350 . S
C733 H720 0.929 . S
C733 C725 1.433 . S
C733 N735 1.384 . S
N734 C730 1.427 . S
N734 C731 1.384 . S
N735 C727 1.427 . S
N735 C733 1.384 . S
H736 C742 0.930 . S
H737 C746 0.930 . S
H738 C751 0.929 . S
H739 C749 0.929 . S
H740 C744 0.929 . S
H741 C750 0.929 . S
C742 H736 0.930 . S
C742 C743 1.367 . S
C742 C750 1.378 . S
C743 C742 1.367 . S
C743 C751 1.433 . S
C744 H740 0.929 . S
C744 C746 1.378 . S
C744 C748 1.350 . S
C745 C748 1.463 . S
C745 C750 1.350 . S
C745 N753 1.427 . S
C746 H737 0.930 . S
C746 C744 1.378 . S
C746 C747 1.367 . S
C747 C746 1.367 . S
C747 C749 1.433 . S
C748 C744 1.350 . S
C748 C745 1.463 . S
C748 N752 1.427 . S
C749 H739 0.929 . S
C749 C747 1.433 . S
C749 N752 1.384 . S
C750 H741 0.929 . S
C750 C742 1.378 . S
C750 C745 1.350 . S
C751 H738 0.929 . S
C751 C743 1.433 . S
C751 N753 1.384 . S
N752 C748 1.427 . S
N752 C749 1.384 . S
N753 C745 1.427 . S
N753 C751 1.384 . S
H754 C760 0.930 . S
H755 C764 0.930 . S
H756 C769 0.929 . S
H757 C767 0.929 . S
H758 C762 0.929 . S
H759 C768 0.929 . S
C760 H754 0.930 . S
C760 C761 1.367 . S
C760 C768 1.378 . S
C761 C760 1.367 . S
C761 C769 1.433 . S
C762 H758 0.929 . S
C762 C764 1.378 . S
C762 C766 1.350 . S
C763 C766 1.463 . S
C763 C768 1.350 . S
C763 N771 1.427 . S
C764 H755 0.930 . S
C764 C762 1.378 . S
C764 C765 1.367 . S
C765 C764 1.367 . S
C765 C767 1.433 . S
C766 C762 1.350 . S
C766 C763 1.463 . S
C766 N770 1.427 . S
C767 H757 0.929 . S
C767 C765 1.433 . S
C767 N770 1.384 . S
C768 H759 0.929 . S
C768 C760 1.378 . S
C768 C763 1.350 . S
C769 H756 0.929 . S
C769 C761 1.433 . S
C769 N771 1.384 . S
N770 C766 1.427 . S
N770 C767 1.384 . S
N771 C763 1.427 . S
N771 C769 1.384 . S
H772 C778 0.930 . S
H773 C782 0.930 . S
H774 C787 0.929 . S
H775 C785 0.929 . S
H776 C780 0.929 . S
H777 C786 0.929 . S
C778 H772 0.930 . S
C778 C779 1.367 . S
C778 C786 1.378 . S
C779 C778 1.367 . S
C779 C787 1.433 . S
C780 H776 0.929 . S
C780 C782 1.378 . S
C780 C784 1.350 . S
C781 C784 1.463 . S
C781 C786 1.350 . S
C781 N789 1.427 . S
C782 H773 0.930 . S
C782 C780 1.378 . S
C782 C783 1.367 . S
C783 C782 1.367 . S
C783 C785 1.433 . S
C784 C780 1.350 . S
C784 C781 1.463 . S
C784 N788 1.427 . S
C785 H775 0.929 . S
C785 C783 1.433 . S
C785 N788 1.384 . S
C786 H777 0.929 . S
C786 C778 1.378 . S
C786 C781 1.350 . S
C787 H774 0.929 . S
C787 C779 1.433 . S
C787 N789 1.384 . S
N788 C784 1.427 . S
N788 C785 1.384 . S
N789 C781 1.427 . S
N789 C787 1.384 . S
H790 C796 0.930 . S
H791 C800 0.930 . S
H792 C805 0.929 . S
H793 C803 0.929 . S
H794 C798 0.929 . S
H795 C804 0.929 . S
C796 H790 0.930 . S
C796 C797 1.367 . S
C796 C804 1.378 . S
C797 C796 1.367 . S
C797 C805 1.433 . S
C798 H794 0.929 . S
C798 C800 1.378 . S
C798 C802 1.350 . S
C799 C802 1.463 . S
C799 C804 1.350 . S
C799 N807 1.427 . S
C800 H791 0.930 . S
C800 C798 1.378 . S
C800 C801 1.367 . S
C801 C800 1.367 . S
C801 C803 1.433 . S
C802 C798 1.350 . S
C802 C799 1.463 . S
C802 N806 1.427 . S
C803 H793 0.929 . S
C803 C801 1.433 . S
C803 N806 1.384 . S
C804 H795 0.929 . S
C804 C796 1.378 . S
C804 C799 1.350 . S
C805 H792 0.929 . S
C805 C797 1.433 . S
C805 N807 1.384 . S
N806 C802 1.427 . S
N806 C803 1.384 . S
N807 C799 1.427 . S
N807 C805 1.384 . S
H808 C814 0.930 . S
H809 C818 0.930 . S
H810 C823 0.929 . S
H811 C821 0.929 . S
H812 C816 0.929 . S
H813 C822 0.929 . S
C814 H808 0.930 . S
C814 C815 1.367 . S
C814 C822 1.378 . S
C815 C814 1.367 . S
C815 C823 1.433 . S
C816 H812 0.929 . S
C816 C818 1.378 . S
C816 C820 1.350 . S
C817 C820 1.463 . S
C817 C822 1.350 . S
C817 N825 1.427 . S
C818 H809 0.930 . S
C818 C816 1.378 . S
C818 C819 1.367 . S
C819 C818 1.367 . S
C819 C821 1.433 . S
C820 C816 1.350 . S
C820 C817 1.463 . S
C820 N824 1.427 . S
C821 H811 0.929 . S
C821 C819 1.433 . S
C821 N824 1.384 . S
C822 H813 0.929 . S
C822 C814 1.378 . S
C822 C817 1.350 . S
C823 H810 0.929 . S
C823 C815 1.433 . S
C823 N825 1.384 . S
N824 C820 1.427 . S
N824 C821 1.384 . S
N825 C817 1.427 . S
N825 C823 1.384 . S
H826 C832 0.930 . S
H827 C836 0.930 . S
H828 C841 0.929 . S
H829 C839 0.929 . S
H830 C834 0.929 . S
H831 C840 0.929 . S
C832 H826 0.930 . S
C832 C833 1.367 . S
C832 C840 1.378 . S
C833 C832 1.367 . S
C833 C841 1.433 . S
C834 H830 0.929 . S
C834 C836 1.378 . S
C834 C838 1.350 . S
C835 C838 1.463 . S
C835 C840 1.350 . S
C835 N843 1.427 . S
C836 H827 0.930 . S
C836 C834 1.378 . S
C836 C837 1.367 . S
C837 C836 1.367 . S
C837 C839 1.433 . S
C838 C834 1.350 . S
C838 C835 1.463 . S
C838 N842 1.427 . S
C839 H829 0.929 . S
C839 C837 1.433 . S
C839 N842 1.384 . S
C840 H831 0.929 . S
C840 C832 1.378 . S
C840 C835 1.350 . S
C841 H828 0.929 . S
C841 C833 1.433 . S
C841 N843 1.384 . S
N842 C838 1.427 . S
N842 C839 1.384 . S
N843 C835 1.427 . S
N843 C841 1.384 . S
H844 C850 0.930 . S
H845 C854 0.930 . S
H846 C859 0.929 . S
H847 C857 0.929 . S
H848 C852 0.929 . S
H849 C858 0.929 . S
C850 H844 0.930 . S
C850 C851 1.367 . S
C850 C858 1.378 . S
C851 C850 1.367 . S
C851 C859 1.433 . S
C852 H848 0.929 . S
C852 C854 1.378 . S
C852 C856 1.350 . S
C853 C856 1.463 . S
C853 C858 1.350 . S
C853 N861 1.427 . S
C854 H845 0.930 . S
C854 C852 1.378 . S
C854 C855 1.367 . S
C855 C854 1.367 . S
C855 C857 1.433 . S
C856 C852 1.350 . S
C856 C853 1.463 . S
C856 N860 1.427 . S
C857 H847 0.929 . S
C857 C855 1.433 . S
C857 N860 1.384 . S
C858 H849 0.929 . S
C858 C850 1.378 . S
C858 C853 1.350 . S
C859 H846 0.929 . S
C859 C851 1.433 . S
C859 N861 1.384 . S
N860 C856 1.427 . S
N860 C857 1.384 . S
N861 C853 1.427 . S
N861 C859 1.384 . S
H862 C868 0.930 . S
H863 C872 0.930 . S
H864 C877 0.929 . S
H865 C875 0.929 . S
H866 C870 0.929 . S
H867 C876 0.929 . S
C868 H862 0.930 . S
C868 C869 1.367 . S
C868 C876 1.378 . S
C869 C868 1.367 . S
C869 C877 1.433 . S
C870 H866 0.929 . S
C870 C872 1.378 . S
C870 C874 1.350 . S
C871 C874 1.463 . S
C871 C876 1.350 . S
C871 N879 1.427 . S
C872 H863 0.930 . S
C872 C870 1.378 . S
C872 C873 1.367 . S
C873 C872 1.367 . S
C873 C875 1.433 . S
C874 C870 1.350 . S
C874 C871 1.463 . S
C874 N878 1.427 . S
C875 H865 0.929 . S
C875 C873 1.433 . S
C875 N878 1.384 . S
C876 H867 0.929 . S
C876 C868 1.378 . S
C876 C871 1.350 . S
C877 H864 0.929 . S
C877 C869 1.433 . S
C877 N879 1.384 . S
N878 C874 1.427 . S
N878 C875 1.384 . S
N879 C871 1.427 . S
N879 C877 1.384 . S
H880 C886 0.930 . S
H881 C890 0.930 . S
H882 C895 0.929 . S
H883 C893 0.929 . S
H884 C888 0.929 . S
H885 C894 0.929 . S
C886 H880 0.930 . S
C886 C887 1.367 . S
C886 C894 1.378 . S
C887 C886 1.367 . S
C887 C895 1.433 . S
C888 H884 0.929 . S
C888 C890 1.378 . S
C888 C892 1.350 . S
C889 C892 1.463 . S
C889 C894 1.350 . S
C889 N897 1.427 . S
C890 H881 0.930 . S
C890 C888 1.378 . S
C890 C891 1.367 . S
C891 C890 1.367 . S
C891 C893 1.433 . S
C892 C888 1.350 . S
C892 C889 1.463 . S
C892 N896 1.427 . S
C893 H883 0.929 . S
C893 C891 1.433 . S
C893 N896 1.384 . S
C894 H885 0.929 . S
C894 C886 1.378 . S
C894 C889 1.350 . S
C895 H882 0.929 . S
C895 C887 1.433 . S
C895 N897 1.384 . S
N896 C892 1.427 . S
N896 C893 1.384 . S
N897 C889 1.427 . S
N897 C895 1.384 . S
H898 C904 0.930 . S
H899 C908 0.930 . S
H900 C913 0.929 . S
H901 C911 0.929 . S
H902 C906 0.929 . S
H903 C912 0.929 . S
C904 H898 0.930 . S
C904 C905 1.367 . S
C904 C912 1.378 . S
C905 C904 1.367 . S
C905 C913 1.433 . S
C906 H902 0.929 . S
C906 C908 1.378 . S
C906 C910 1.350 . S
C907 C910 1.463 . S
C907 C912 1.350 . S
C907 N915 1.427 . S
C908 H899 0.930 . S
C908 C906 1.378 . S
C908 C909 1.367 . S
C909 C908 1.367 . S
C909 C911 1.433 . S
C910 C906 1.350 . S
C910 C907 1.463 . S
C910 N914 1.427 . S
C911 H901 0.929 . S
C911 C909 1.433 . S
C911 N914 1.384 . S
C912 H903 0.929 . S
C912 C904 1.378 . S
C912 C907 1.350 . S
C913 H900 0.929 . S
C913 C905 1.433 . S
C913 N915 1.384 . S
N914 C910 1.427 . S
N914 C911 1.384 . S
N915 C907 1.427 . S
N915 C913 1.384 . S
H916 C922 0.930 . S
H917 C926 0.930 . S
H918 C931 0.929 . S
H919 C929 0.929 . S
H920 C924 0.929 . S
H921 C930 0.929 . S
C922 H916 0.930 . S
C922 C923 1.367 . S
C922 C930 1.378 . S
C923 C922 1.367 . S
C923 C931 1.433 . S
C924 H920 0.929 . S
C924 C926 1.378 . S
C924 C928 1.350 . S
C925 C928 1.463 . S
C925 C930 1.350 . S
C925 N933 1.427 . S
C926 H917 0.930 . S
C926 C924 1.378 . S
C926 C927 1.367 . S
C927 C926 1.367 . S
C927 C929 1.433 . S
C928 C924 1.350 . S
C928 C925 1.463 . S
C928 N932 1.427 . S
C929 H919 0.929 . S
C929 C927 1.433 . S
C929 N932 1.384 . S
C930 H921 0.929 . S
C930 C922 1.378 . S
C930 C925 1.350 . S
C931 H918 0.929 . S
C931 C923 1.433 . S
C931 N933 1.384 . S
N932 C928 1.427 . S
N932 C929 1.384 . S
N933 C925 1.427 . S
N933 C931 1.384 . S
H934 C940 0.930 . S
H935 C944 0.930 . S
H936 C949 0.929 . S
H937 C947 0.929 . S
H938 C942 0.929 . S
H939 C948 0.929 . S
C940 H934 0.930 . S
C940 C941 1.367 . S
C940 C948 1.378 . S
C941 C940 1.367 . S
C941 C949 1.433 . S
C942 H938 0.929 . S
C942 C944 1.378 . S
C942 C946 1.350 . S
C943 C946 1.463 . S
C943 C948 1.350 . S
C943 N951 1.427 . S
C944 H935 0.930 . S
C944 C942 1.378 . S
C944 C945 1.367 . S
C945 C944 1.367 . S
C945 C947 1.433 . S
C946 C942 1.350 . S
C946 C943 1.463 . S
C946 N950 1.427 . S
C947 H937 0.929 . S
C947 C945 1.433 . S
C947 N950 1.384 . S
C948 H939 0.929 . S
C948 C940 1.378 . S
C948 C943 1.350 . S
C949 H936 0.929 . S
C949 C941 1.433 . S
C949 N951 1.384 . S
N950 C946 1.427 . S
N950 C947 1.384 . S
N951 C943 1.427 . S
N951 C949 1.384 . S
H952 C958 0.930 . S
H953 C962 0.930 . S
H954 C967 0.929 . S
H955 C965 0.929 . S
H956 C960 0.929 . S
H957 C966 0.929 . S
C958 H952 0.930 . S
C958 C959 1.367 . S
C958 C966 1.378 . S
C959 C958 1.367 . S
C959 C967 1.433 . S
C960 H956 0.929 . S
C960 C962 1.378 . S
C960 C964 1.350 . S
C961 C964 1.463 . S
C961 C966 1.350 . S
C961 N969 1.427 . S
C962 H953 0.930 . S
C962 C960 1.378 . S
C962 C963 1.367 . S
C963 C962 1.367 . S
C963 C965 1.433 . S
C964 C960 1.350 . S
C964 C961 1.463 . S
C964 N968 1.427 . S
C965 H955 0.929 . S
C965 C963 1.433 . S
C965 N968 1.384 . S
C966 H957 0.929 . S
C966 C958 1.378 . S
C966 C961 1.350 . S
C967 H954 0.929 . S
C967 C959 1.433 . S
C967 N969 1.384 . S
N968 C964 1.427 . S
N968 C965 1.384 . S
N969 C961 1.427 . S
N969 C967 1.384 . S
H970 C976 0.930 . S
H971 C980 0.930 . S
H972 C985 0.929 . S
H973 C983 0.929 . S
H974 C978 0.929 . S
H975 C984 0.929 . S
C976 H970 0.930 . S
C976 C977 1.367 . S
C976 C984 1.378 . S
C977 C976 1.367 . S
C977 C985 1.433 . S
C978 H974 0.929 . S
C978 C980 1.378 . S
C978 C982 1.350 . S
C979 C982 1.463 . S
C979 C984 1.350 . S
C979 N987 1.427 . S
C980 H971 0.930 . S
C980 C978 1.378 . S
C980 C981 1.367 . S
C981 C980 1.367 . S
C981 C983 1.433 . S
C982 C978 1.350 . S
C982 C979 1.463 . S
C982 N986 1.427 . S
C983 H973 0.929 . S
C983 C981 1.433 . S
C983 N986 1.384 . S
C984 H975 0.929 . S
C984 C976 1.378 . S
C984 C979 1.350 . S
C985 H972 0.929 . S
C985 C977 1.433 . S
C985 N987 1.384 . S
N986 C982 1.427 . S
N986 C983 1.384 . S
N987 C979 1.427 . S
N987 C985 1.384 . S
H988 C994 0.930 . S
H989 C998 0.930 . S
H990 C1003 0.929 . S
H991 C1001 0.929 . S
H992 C996 0.929 . S
H993 C1002 0.929 . S
C994 H988 0.930 . S
C994 C995 1.367 . S
C994 C1002 1.378 . S
C995 C994 1.367 . S
C995 C1003 1.433 . S
C996 H992 0.929 . S
C996 C998 1.378 . S
C996 C1000 1.350 . S
C997 C1000 1.463 . S
C997 C1002 1.350 . S
C997 N1005 1.427 . S
C998 H989 0.930 . S
C998 C996 1.378 . S
C998 C999 1.367 . S
C999 C998 1.367 . S
C999 C1001 1.433 . S
C1000 C996 1.350 . S
C1000 C997 1.463 . S
C1000 N1004 1.427 . S
C1001 H991 0.929 . S
C1001 C999 1.433 . S
C1001 N1004 1.384 . S
C1002 H993 0.929 . S
C1002 C994 1.378 . S
C1002 C997 1.350 . S
C1003 H990 0.929 . S
C1003 C995 1.433 . S
C1003 N1005 1.384 . S
N1004 C1000 1.427 . S
N1004 C1001 1.384 . S
N1005 C997 1.427 . S
N1005 C1003 1.384 . S
H1006 C1012 0.930 . S
H1007 C1016 0.930 . S
H1008 C1021 0.929 . S
H1009 C1019 0.929 . S
H1010 C1014 0.929 . S
H1011 C1020 0.929 . S
C1012 H1006 0.930 . S
C1012 C1013 1.367 . S
C1012 C1020 1.378 . S
C1013 C1012 1.367 . S
C1013 C1021 1.433 . S
C1014 H1010 0.929 . S
C1014 C1016 1.378 . S
C1014 C1018 1.350 . S
C1015 C1018 1.463 . S
C1015 C1020 1.350 . S
C1015 N1023 1.427 . S
C1016 H1007 0.930 . S
C1016 C1014 1.378 . S
C1016 C1017 1.367 . S
C1017 C1016 1.367 . S
C1017 C1019 1.433 . S
C1018 C1014 1.350 . S
C1018 C1015 1.463 . S
C1018 N1022 1.427 . S
C1019 H1009 0.929 . S
C1019 C1017 1.433 . S
C1019 N1022 1.384 . S
C1020 H1011 0.929 . S
C1020 C1012 1.378 . S
C1020 C1015 1.350 . S
C1021 H1008 0.929 . S
C1021 C1013 1.433 . S
C1021 N1023 1.384 . S
N1022 C1018 1.427 . S
N1022 C1019 1.384 . S
N1023 C1015 1.427 . S
N1023 C1021 1.384 . S
H1024 C1030 0.930 1_455 S
H1025 C1034 0.930 1_655 S
H1026 C1039 0.929 . S
H1027 C1037 0.929 . S
H1028 C1032 0.929 . S
H1029 C1038 0.929 . S
C1030 H1024 0.930 1_655 S
C1030 C1031 1.367 . S
C1030 C1038 1.378 1_655 S
C1031 C1030 1.367 . S
C1031 C1039 1.433 . S
C1032 H1028 0.929 . S
C1032 C1034 1.378 1_655 S
C1032 C1036 1.350 1_655 S
C1033 C1036 1.463 1_655 S
C1033 C1038 1.350 1_655 S
C1033 N1041 1.427 . S
C1034 H1025 0.930 1_455 S
C1034 C1032 1.378 1_455 S
C1034 C1035 1.367 . S
C1035 C1034 1.367 . S
C1035 C1037 1.433 . S
C1036 C1032 1.350 1_455 S
C1036 C1033 1.463 1_455 S
C1036 N1040 1.427 . S
C1037 H1027 0.929 . S
C1037 C1035 1.433 . S
C1037 N1040 1.384 . S
C1038 H1029 0.929 . S
C1038 C1030 1.378 1_455 S
C1038 C1033 1.350 1_455 S
C1039 H1026 0.929 . S
C1039 C1031 1.433 . S
C1039 N1041 1.384 . S
N1040 C1036 1.427 . S
N1040 C1037 1.384 . S
N1041 C1033 1.427 . S
N1041 C1039 1.384 . S
H1042 C1048 0.930 . S
H1043 C1052 0.930 . S
H1044 C1057 0.929 . S
H1045 C1055 0.929 . S
H1046 C1050 0.929 . S
H1047 C1056 0.929 . S
C1048 H1042 0.930 . S
C1048 C1049 1.367 . S
C1048 C1056 1.378 . S
C1049 C1048 1.367 . S
C1049 C1057 1.433 . S
C1050 H1046 0.929 . S
C1050 C1052 1.378 . S
C1050 C1054 1.350 . S
C1051 C1054 1.463 1_565 S
C1051 C1056 1.350 . S
C1051 N1059 1.427 . S
C1052 H1043 0.930 . S
C1052 C1050 1.378 . S
C1052 C1053 1.367 . S
C1053 C1052 1.367 . S
C1053 C1055 1.433 . S
C1054 C1050 1.350 . S
C1054 C1051 1.463 1_545 S
C1054 N1058 1.427 . S
C1055 H1045 0.929 . S
C1055 C1053 1.433 . S
C1055 N1058 1.384 . S
C1056 H1047 0.929 . S
C1056 C1048 1.378 . S
C1056 C1051 1.350 . S
C1057 H1044 0.929 . S
C1057 C1049 1.433 . S
C1057 N1059 1.384 . S
N1058 C1054 1.427 . S
N1058 C1055 1.384 . S
N1059 C1051 1.427 . S
N1059 C1057 1.384 . S
H1060 C1066 0.930 . S
H1061 C1070 0.930 . S
H1062 C1075 0.929 . S
H1063 C1073 0.929 . S
H1064 C1068 0.929 1_545 S
H1065 C1074 0.929 1_565 S
C1066 H1060 0.930 . S
C1066 C1067 1.367 . S
C1066 C1074 1.378 . S
C1067 C1066 1.367 . S
C1067 C1075 1.433 . S
C1068 H1064 0.929 1_565 S
C1068 C1070 1.378 . S
C1068 C1072 1.350 . S
C1069 C1072 1.463 1_644 S
C1069 C1074 1.350 . S
C1069 N1077 1.427 1_655 S
C1070 H1061 0.930 . S
C1070 C1068 1.378 . S
C1070 C1071 1.367 . S
C1071 C1070 1.367 . S
C1071 C1073 1.433 . S
C1072 C1068 1.350 . S
C1072 C1069 1.463 1_466 S
C1072 N1076 1.427 1_455 S
C1073 H1063 0.929 . S
C1073 C1071 1.433 . S
C1073 N1076 1.384 1_455 S
C1074 H1065 0.929 1_545 S
C1074 C1066 1.378 . S
C1074 C1069 1.350 . S
C1075 H1062 0.929 . S
C1075 C1067 1.433 . S
C1075 N1077 1.384 1_655 S
N1076 C1072 1.427 1_655 S
N1076 C1073 1.384 1_655 S
N1077 C1069 1.427 1_455 S
N1077 C1075 1.384 1_455 S
H1078 C1084 0.930 . S
H1079 C1088 0.930 . S
H1080 C1093 0.929 . S
H1081 C1091 0.929 . S
H1082 C1086 0.915 1_554 S
H1083 C1092 0.915 1_556 S
C1084 H1078 0.930 . S
C1084 C1085 1.367 . S
C1084 C1092 1.388 . S
C1085 C1084 1.367 . S
C1085 C1093 1.433 . S
C1086 H1082 0.915 1_556 S
C1086 C1088 1.388 . S
C1086 C1090 1.355 . S
C1087 C1090 1.463 1_554 S
C1087 C1092 1.355 . S
C1087 N1095 1.427 . S
C1088 H1079 0.930 . S
C1088 C1086 1.388 . S
C1088 C1089 1.367 . S
C1089 C1088 1.367 . S
C1089 C1091 1.433 . S
C1090 C1086 1.355 . S
C1090 C1087 1.463 1_556 S
C1090 N1094 1.427 . S
C1091 H1081 0.929 . S
C1091 C1089 1.433 . S
C1091 N1094 1.384 . S
C1092 H1083 0.915 1_554 S
C1092 C1084 1.388 . S
C1092 C1087 1.355 . S
C1093 H1080 0.929 . S
C1093 C1085 1.433 . S
C1093 N1095 1.384 . S
N1094 C1090 1.427 . S
N1094 C1091 1.384 . S
N1095 C1087 1.427 . S
N1095 C1093 1.384 . S
H1096 C1102 0.930 . S
H1097 C1106 0.930 . S
H1098 C1111 0.929 . S
H1099 C1109 0.929 . S
H1100 C1104 0.929 . S
H1101 C1110 0.929 . S
C1102 H1096 0.930 . S
C1102 C1103 1.367 . S
C1102 C1110 1.378 . S
C1103 C1102 1.367 . S
C1103 C1111 1.433 . S
C1104 H1100 0.929 . S
C1104 C1106 1.378 . S
C1104 C1108 1.350 . S
C1105 C1108 1.463 1_655 S
C1105 C1110 1.350 . S
C1105 N1113 1.427 . S
C1106 H1097 0.930 . S
C1106 C1104 1.378 . S
C1106 C1107 1.367 . S
C1107 C1106 1.367 . S
C1107 C1109 1.433 . S
C1108 C1104 1.350 . S
C1108 C1105 1.463 1_455 S
C1108 N1112 1.427 . S
C1109 H1099 0.929 . S
C1109 C1107 1.433 . S
C1109 N1112 1.384 . S
C1110 H1101 0.929 . S
C1110 C1102 1.378 . S
C1110 C1105 1.350 . S
C1111 H1098 0.929 . S
C1111 C1103 1.433 . S
C1111 N1113 1.384 . S
N1112 C1108 1.427 . S
N1112 C1109 1.384 . S
N1113 C1105 1.427 . S
N1113 C1111 1.384 . S
H1114 C1120 0.930 . S
H1115 C1124 0.930 . S
H1116 C1129 0.929 . S
H1117 C1127 0.929 . S
H1118 C1122 0.929 1_565 S
H1119 C1128 0.929 1_545 S
C1120 H1114 0.930 . S
C1120 C1121 1.367 . S
C1120 C1128 1.378 . S
C1121 C1120 1.367 . S
C1121 C1129 1.433 . S
C1122 H1118 0.929 1_545 S
C1122 C1124 1.378 . S
C1122 C1126 1.350 . S
C1123 C1126 1.463 1_565 S
C1123 C1128 1.350 . S
C1123 N1131 1.427 . S
C1124 H1115 0.930 . S
C1124 C1122 1.378 . S
C1124 C1125 1.367 . S
C1125 C1124 1.367 . S
C1125 C1127 1.433 . S
C1126 C1122 1.350 . S
C1126 C1123 1.463 1_545 S
C1126 N1130 1.427 . S
C1127 H1117 0.929 . S
C1127 C1125 1.433 . S
C1127 N1130 1.384 . S
C1128 H1119 0.929 1_565 S
C1128 C1120 1.378 . S
C1128 C1123 1.350 . S
C1129 H1116 0.929 . S
C1129 C1121 1.433 . S
C1129 N1131 1.384 . S
N1130 C1126 1.427 . S
N1130 C1127 1.384 . S
N1131 C1123 1.427 . S
N1131 C1129 1.384 . S
H1132 C1138 0.930 . S
H1133 C1142 0.930 . S
H1134 C1147 0.929 . S
H1135 C1145 0.929 . S
H1136 C1140 0.929 . S
H1137 C1146 0.929 . S
C1138 H1132 0.930 . S
C1138 C1139 1.367 . S
C1138 C1146 1.378 . S
C1139 C1138 1.367 . S
C1139 C1147 1.433 . S
C1140 H1136 0.929 . S
C1140 C1142 1.378 . S
C1140 C1144 1.350 . S
C1141 C1144 1.463 1_556 S
C1141 C1146 1.350 . S
C1141 N1149 1.422 1_556 S
C1142 H1133 0.930 . S
C1142 C1140 1.378 . S
C1142 C1143 1.367 . S
C1143 C1142 1.367 . S
C1143 C1145 1.433 . S
C1144 C1140 1.350 . S
C1144 C1141 1.463 1_554 S
C1144 N1148 1.422 1_554 S
C1145 H1135 0.929 . S
C1145 C1143 1.433 . S
C1145 N1148 1.374 1_554 S
C1146 H1137 0.929 . S
C1146 C1138 1.378 . S
C1146 C1141 1.350 . S
C1147 H1134 0.929 . S
C1147 C1139 1.433 . S
C1147 N1149 1.374 1_556 S
N1148 C1144 1.422 1_556 S
N1148 C1145 1.374 1_556 S
N1149 C1141 1.422 1_554 S
N1149 C1147 1.374 1_554 S
H1150 C1156 0.930 . S
H1151 C1160 0.930 . S
H1152 C1165 0.929 . S
H1153 C1163 0.929 . S
H1154 C1158 0.929 . S
H1155 C1164 0.929 . S
C1156 H1150 0.930 . S
C1156 C1157 1.367 . S
C1156 C1164 1.378 . S
C1157 C1156 1.367 . S
C1157 C1165 1.433 . S
C1158 H1154 0.929 . S
C1158 C1160 1.378 . S
C1158 C1162 1.350 . S
C1159 C1162 1.463 . S
C1159 C1164 1.350 . S
C1159 N1167 1.427 . S
C1160 H1151 0.930 . S
C1160 C1158 1.378 . S
C1160 C1161 1.367 . S
C1161 C1160 1.367 . S
C1161 C1163 1.433 . S
C1162 C1158 1.350 . S
C1162 C1159 1.463 . S
C1162 N1166 1.427 . S
C1163 H1153 0.929 . S
C1163 C1161 1.433 . S
C1163 N1166 1.384 . S
C1164 H1155 0.929 . S
C1164 C1156 1.378 . S
C1164 C1159 1.350 . S
C1165 H1152 0.929 . S
C1165 C1157 1.433 . S
C1165 N1167 1.384 . S
N1166 C1162 1.427 . S
N1166 C1163 1.384 . S
N1167 C1159 1.427 . S
N1167 C1165 1.384 . S
H1168 C1174 0.930 . S
H1169 C1178 0.930 . S
H1170 C1183 0.929 . S
H1171 C1181 0.929 . S
H1172 C1176 0.929 1_455 S
H1173 C1182 0.929 1_655 S
C1174 H1168 0.930 . S
C1174 C1175 1.367 . S
C1174 C1182 1.378 . S
C1175 C1174 1.367 . S
C1175 C1183 1.433 . S
C1176 H1172 0.929 1_655 S
C1176 C1178 1.378 . S
C1176 C1180 1.350 . S
C1177 C1180 1.463 1_455 S
C1177 C1182 1.350 . S
C1177 N1185 1.427 . S
C1178 H1169 0.930 . S
C1178 C1176 1.378 . S
C1178 C1179 1.367 . S
C1179 C1178 1.367 . S
C1179 C1181 1.433 . S
C1180 C1176 1.350 . S
C1180 C1177 1.463 1_655 S
C1180 N1184 1.427 . S
C1181 H1171 0.929 . S
C1181 C1179 1.433 . S
C1181 N1184 1.384 . S
C1182 H1173 0.929 1_455 S
C1182 C1174 1.378 . S
C1182 C1177 1.350 . S
C1183 H1170 0.929 . S
C1183 C1175 1.433 . S
C1183 N1185 1.384 . S
N1184 C1180 1.427 . S
N1184 C1181 1.384 . S
N1185 C1177 1.427 . S
N1185 C1183 1.384 . S
H1186 C1192 0.930 . S
H1187 C1196 0.930 . S
H1188 C1201 0.929 . S
H1189 C1199 0.929 . S
H1190 C1194 0.929 . S
H1191 C1200 0.929 . S
C1192 H1186 0.930 . S
C1192 C1193 1.367 . S
C1192 C1200 1.378 . S
C1193 C1192 1.367 . S
C1193 C1201 1.433 . S
C1194 H1190 0.929 . S
C1194 C1196 1.378 . S
C1194 C1198 1.350 . S
C1195 C1198 1.463 . S
C1195 C1200 1.350 . S
C1195 N1203 1.427 . S
C1196 H1187 0.930 . S
C1196 C1194 1.378 . S
C1196 C1197 1.367 . S
C1197 C1196 1.367 . S
C1197 C1199 1.433 . S
C1198 C1194 1.350 . S
C1198 C1195 1.463 . S
C1198 N1202 1.427 . S
C1199 H1189 0.929 . S
C1199 C1197 1.433 . S
C1199 N1202 1.384 . S
C1200 H1191 0.929 . S
C1200 C1192 1.378 . S
C1200 C1195 1.350 . S
C1201 H1188 0.929 . S
C1201 C1193 1.433 . S
C1201 N1203 1.384 . S
N1202 C1198 1.427 . S
N1202 C1199 1.384 . S
N1203 C1195 1.427 . S
N1203 C1201 1.384 . S
H1204 C1210 0.930 . S
H1205 C1214 0.930 . S
H1206 C1219 0.929 . S
H1207 C1217 0.929 . S
H1208 C1212 0.929 . S
H1209 C1218 0.929 . S
C1210 H1204 0.930 . S
C1210 C1211 1.367 . S
C1210 C1218 1.378 . S
C1211 C1210 1.367 . S
C1211 C1219 1.433 . S
C1212 H1208 0.929 . S
C1212 C1214 1.378 . S
C1212 C1216 1.350 . S
C1213 C1216 1.463 . S
C1213 C1218 1.350 . S
C1213 N1221 1.427 . S
C1214 H1205 0.930 . S
C1214 C1212 1.378 . S
C1214 C1215 1.367 . S
C1215 C1214 1.367 . S
C1215 C1217 1.433 . S
C1216 C1212 1.350 . S
C1216 C1213 1.463 . S
C1216 N1220 1.427 . S
C1217 H1207 0.929 . S
C1217 C1215 1.433 . S
C1217 N1220 1.384 . S
C1218 H1209 0.929 . S
C1218 C1210 1.378 . S
C1218 C1213 1.350 . S
C1219 H1206 0.929 . S
C1219 C1211 1.433 . S
C1219 N1221 1.384 . S
N1220 C1216 1.427 . S
N1220 C1217 1.384 . S
N1221 C1213 1.427 . S
N1221 C1219 1.384 . S
H1222 C1228 0.930 . S
H1223 C1232 0.930 . S
H1224 C1237 0.929 . S
H1225 C1235 0.929 . S
H1226 C1230 0.929 . S
H1227 C1236 0.929 . S
C1228 H1222 0.930 . S
C1228 C1229 1.367 . S
C1228 C1236 1.378 . S
C1229 C1228 1.367 . S
C1229 C1237 1.433 . S
C1230 H1226 0.929 . S
C1230 C1232 1.378 . S
C1230 C1234 1.350 . S
C1231 C1234 1.463 . S
C1231 C1236 1.350 . S
C1231 N1239 1.427 . S
C1232 H1223 0.930 . S
C1232 C1230 1.378 . S
C1232 C1233 1.367 . S
C1233 C1232 1.367 . S
C1233 C1235 1.433 . S
C1234 C1230 1.350 . S
C1234 C1231 1.463 . S
C1234 N1238 1.427 . S
C1235 H1225 0.929 . S
C1235 C1233 1.433 . S
C1235 N1238 1.384 . S
C1236 H1227 0.929 . S
C1236 C1228 1.378 . S
C1236 C1231 1.350 . S
C1237 H1224 0.929 . S
C1237 C1229 1.433 . S
C1237 N1239 1.384 . S
N1238 C1234 1.427 . S
N1238 C1235 1.384 . S
N1239 C1231 1.427 . S
N1239 C1237 1.384 . S
H1240 C1246 0.930 . S
H1241 C1250 0.930 . S
H1242 C1255 0.929 . S
H1243 C1253 0.929 . S
H1244 C1248 0.929 . S
H1245 C1254 0.929 . S
C1246 H1240 0.930 . S
C1246 C1247 1.367 . S
C1246 C1254 1.378 . S
C1247 C1246 1.367 . S
C1247 C1255 1.433 . S
C1248 H1244 0.929 . S
C1248 C1250 1.378 . S
C1248 C1252 1.350 . S
C1249 C1252 1.463 . S
C1249 C1254 1.350 . S
C1249 N1257 1.427 . S
C1250 H1241 0.930 . S
C1250 C1248 1.378 . S
C1250 C1251 1.367 . S
C1251 C1250 1.367 . S
C1251 C1253 1.433 . S
C1252 C1248 1.350 . S
C1252 C1249 1.463 . S
C1252 N1256 1.427 . S
C1253 H1243 0.929 . S
C1253 C1251 1.433 . S
C1253 N1256 1.384 . S
C1254 H1245 0.929 . S
C1254 C1246 1.378 . S
C1254 C1249 1.350 . S
C1255 H1242 0.929 . S
C1255 C1247 1.433 . S
C1255 N1257 1.384 . S
N1256 C1252 1.427 . S
N1256 C1253 1.384 . S
N1257 C1249 1.427 . S
N1257 C1255 1.384 . S
H1258 C1264 0.930 . S
H1259 C1268 0.930 . S
H1260 C1273 0.929 . S
H1261 C1271 0.929 . S
H1262 C1266 0.929 1_545 S
H1263 C1272 0.929 1_565 S
C1264 H1258 0.930 . S
C1264 C1265 1.367 . S
C1264 C1272 1.378 . S
C1265 C1264 1.367 . S
C1265 C1273 1.433 . S
C1266 H1262 0.929 1_565 S
C1266 C1268 1.378 . S
C1266 C1270 1.350 . S
C1267 C1270 1.463 1_545 S
C1267 C1272 1.350 . S
C1267 N1275 1.427 . S
C1268 H1259 0.930 . S
C1268 C1266 1.378 . S
C1268 C1269 1.367 . S
C1269 C1268 1.367 . S
C1269 C1271 1.433 . S
C1270 C1266 1.350 . S
C1270 C1267 1.463 1_565 S
C1270 N1274 1.427 . S
C1271 H1261 0.929 . S
C1271 C1269 1.433 . S
C1271 N1274 1.384 . S
C1272 H1263 0.929 1_545 S
C1272 C1264 1.378 . S
C1272 C1267 1.350 . S
C1273 H1260 0.929 . S
C1273 C1265 1.433 . S
C1273 N1275 1.384 . S
N1274 C1270 1.427 . S
N1274 C1271 1.384 . S
N1275 C1267 1.427 . S
N1275 C1273 1.384 . S
H1276 C1282 0.930 . S
H1277 C1286 0.930 . S
H1278 C1291 0.929 . S
H1279 C1289 0.929 . S
H1280 C1284 0.929 . S
H1281 C1290 0.929 . S
C1282 H1276 0.930 . S
C1282 C1283 1.367 . S
C1282 C1290 1.378 . S
C1283 C1282 1.367 . S
C1283 C1291 1.433 . S
C1284 H1280 0.929 . S
C1284 C1286 1.378 . S
C1284 C1288 1.350 . S
C1285 C1288 1.463 . S
C1285 C1290 1.350 . S
C1285 N1293 1.427 . S
C1286 H1277 0.930 . S
C1286 C1284 1.378 . S
C1286 C1287 1.367 . S
C1287 C1286 1.367 . S
C1287 C1289 1.433 . S
C1288 C1284 1.350 . S
C1288 C1285 1.463 . S
C1288 N1292 1.427 . S
C1289 H1279 0.929 . S
C1289 C1287 1.433 . S
C1289 N1292 1.384 . S
C1290 H1281 0.929 . S
C1290 C1282 1.378 . S
C1290 C1285 1.350 . S
C1291 H1278 0.929 . S
C1291 C1283 1.433 . S
C1291 N1293 1.384 . S
N1292 C1288 1.427 . S
N1292 C1289 1.384 . S
N1293 C1285 1.427 . S
N1293 C1291 1.384 . S
H1294 C1300 0.930 . S
H1295 C1304 0.930 . S
H1296 C1309 0.929 1_554 S
H1297 C1307 0.929 1_556 S
H1298 C1302 0.929 . S
H1299 C1308 0.929 . S
C1300 H1294 0.930 . S
C1300 C1301 1.367 . S
C1300 C1308 1.378 . S
C1301 C1300 1.367 . S
C1301 C1309 1.433 . S
C1302 H1298 0.929 . S
C1302 C1304 1.378 . S
C1302 C1306 1.350 . S
C1303 C1306 1.463 1_556 S
C1303 C1308 1.350 . S
C1303 N1311 1.427 1_556 S
C1304 H1295 0.930 . S
C1304 C1302 1.378 . S
C1304 C1305 1.367 . S
C1305 C1304 1.367 . S
C1305 C1307 1.433 . S
C1306 C1302 1.350 . S
C1306 C1303 1.463 1_554 S
C1306 N1310 1.427 1_554 S
C1307 H1297 0.929 1_554 S
C1307 C1305 1.433 . S
C1307 N1310 1.384 1_554 S
C1308 H1299 0.929 . S
C1308 C1300 1.378 . S
C1308 C1303 1.350 . S
C1309 H1296 0.929 1_556 S
C1309 C1301 1.433 . S
C1309 N1311 1.384 1_556 S
N1310 C1306 1.427 1_556 S
N1310 C1307 1.384 1_556 S
N1311 C1303 1.427 1_554 S
N1311 C1309 1.384 1_554 S
H1312 C1318 0.930 . S
H1313 C1322 0.930 . S
H1314 C1327 0.929 . S
H1315 C1325 0.929 . S
H1316 C1320 0.929 . S
H1317 C1326 0.929 . S
C1318 H1312 0.930 . S
C1318 C1319 1.367 . S
C1318 C1326 1.378 . S
C1319 C1318 1.367 . S
C1319 C1327 1.433 . S
C1320 H1316 0.929 . S
C1320 C1322 1.378 . S
C1320 C1324 1.350 . S
C1321 C1324 1.463 . S
C1321 C1326 1.350 . S
C1321 N1329 1.427 . S
C1322 H1313 0.930 . S
C1322 C1320 1.378 . S
C1322 C1323 1.367 . S
C1323 C1322 1.367 . S
C1323 C1325 1.433 . S
C1324 C1320 1.350 . S
C1324 C1321 1.463 . S
C1324 N1328 1.427 . S
C1325 H1315 0.929 . S
C1325 C1323 1.433 . S
C1325 N1328 1.384 . S
C1326 H1317 0.929 . S
C1326 C1318 1.378 . S
C1326 C1321 1.350 . S
C1327 H1314 0.929 . S
C1327 C1319 1.433 . S
C1327 N1329 1.384 . S
N1328 C1324 1.427 . S
N1328 C1325 1.384 . S
N1329 C1321 1.427 . S
N1329 C1327 1.384 . S
H1330 C1336 0.930 . S
H1331 C1340 0.930 . S
H1332 C1345 0.929 . S
H1333 C1343 0.929 . S
H1334 C1338 0.929 . S
H1335 C1344 0.929 . S
C1336 H1330 0.930 . S
C1336 C1337 1.367 . S
C1336 C1344 1.378 . S
C1337 C1336 1.367 . S
C1337 C1345 1.433 . S
C1338 H1334 0.929 . S
C1338 C1340 1.378 . S
C1338 C1342 1.350 . S
C1339 C1342 1.463 . S
C1339 C1344 1.350 . S
C1339 N1347 1.427 . S
C1340 H1331 0.930 . S
C1340 C1338 1.378 . S
C1340 C1341 1.367 . S
C1341 C1340 1.367 . S
C1341 C1343 1.433 . S
C1342 C1338 1.350 . S
C1342 C1339 1.463 . S
C1342 N1346 1.427 . S
C1343 H1333 0.929 . S
C1343 C1341 1.433 . S
C1343 N1346 1.384 . S
C1344 H1335 0.929 . S
C1344 C1336 1.378 . S
C1344 C1339 1.350 . S
C1345 H1332 0.929 . S
C1345 C1337 1.433 . S
C1345 N1347 1.384 . S
N1346 C1342 1.427 . S
N1346 C1343 1.384 . S
N1347 C1339 1.427 . S
N1347 C1345 1.384 . S
H1348 C1354 0.930 . S
H1349 C1358 0.930 . S
H1350 C1363 0.929 . S
H1351 C1361 0.929 . S
H1352 C1356 0.929 . S
H1353 C1362 0.929 . S
C1354 H1348 0.930 . S
C1354 C1355 1.367 . S
C1354 C1362 1.378 . S
C1355 C1354 1.367 . S
C1355 C1363 1.433 . S
C1356 H1352 0.929 . S
C1356 C1358 1.378 . S
C1356 C1360 1.350 . S
C1357 C1360 1.463 . S
C1357 C1362 1.350 . S
C1357 N1365 1.427 . S
C1358 H1349 0.930 . S
C1358 C1356 1.378 . S
C1358 C1359 1.367 . S
C1359 C1358 1.367 . S
C1359 C1361 1.433 . S
C1360 C1356 1.350 . S
C1360 C1357 1.463 . S
C1360 N1364 1.427 . S
C1361 H1351 0.929 . S
C1361 C1359 1.433 . S
C1361 N1364 1.384 . S
C1362 H1353 0.929 . S
C1362 C1354 1.378 . S
C1362 C1357 1.350 . S
C1363 H1350 0.929 . S
C1363 C1355 1.433 . S
C1363 N1365 1.384 . S
N1364 C1360 1.427 . S
N1364 C1361 1.384 . S
N1365 C1357 1.427 . S
N1365 C1363 1.384 . S
H1366 C1372 0.930 . S
H1367 C1376 0.930 . S
H1368 C1381 0.929 . S
H1369 C1379 0.929 . S
H1370 C1374 0.929 . S
H1371 C1380 0.929 . S
C1372 H1366 0.930 . S
C1372 C1373 1.367 . S
C1372 C1380 1.378 . S
C1373 C1372 1.367 . S
C1373 C1381 1.433 . S
C1374 H1370 0.929 . S
C1374 C1376 1.378 . S
C1374 C1378 1.350 . S
C1375 C1378 1.463 . S
C1375 C1380 1.350 . S
C1375 N1383 1.427 . S
C1376 H1367 0.930 . S
C1376 C1374 1.378 . S
C1376 C1377 1.367 . S
C1377 C1376 1.367 . S
C1377 C1379 1.433 . S
C1378 C1374 1.350 . S
C1378 C1375 1.463 . S
C1378 N1382 1.427 . S
C1379 H1369 0.929 . S
C1379 C1377 1.433 . S
C1379 N1382 1.384 . S
C1380 H1371 0.929 . S
C1380 C1372 1.378 . S
C1380 C1375 1.350 . S
C1381 H1368 0.929 . S
C1381 C1373 1.433 . S
C1381 N1383 1.384 . S
N1382 C1378 1.427 . S
N1382 C1379 1.384 . S
N1383 C1375 1.427 . S
N1383 C1381 1.384 . S
H1384 C1390 0.930 . S
H1385 C1394 0.930 . S
H1386 C1399 0.929 . S
H1387 C1397 0.929 . S
H1388 C1392 0.929 . S
H1389 C1398 0.929 . S
C1390 H1384 0.930 . S
C1390 C1391 1.367 . S
C1390 C1398 1.378 . S
C1391 C1390 1.367 . S
C1391 C1399 1.433 . S
C1392 H1388 0.929 . S
C1392 C1394 1.378 . S
C1392 C1396 1.350 . S
C1393 C1396 1.463 . S
C1393 C1398 1.350 . S
C1393 N1401 1.427 . S
C1394 H1385 0.930 . S
C1394 C1392 1.378 . S
C1394 C1395 1.367 . S
C1395 C1394 1.367 . S
C1395 C1397 1.433 . S
C1396 C1392 1.350 . S
C1396 C1393 1.463 . S
C1396 N1400 1.427 . S
C1397 H1387 0.929 . S
C1397 C1395 1.433 . S
C1397 N1400 1.384 . S
C1398 H1389 0.929 . S
C1398 C1390 1.378 . S
C1398 C1393 1.350 . S
C1399 H1386 0.929 . S
C1399 C1391 1.433 . S
C1399 N1401 1.384 . S
N1400 C1396 1.427 . S
N1400 C1397 1.384 . S
N1401 C1393 1.427 . S
N1401 C1399 1.384 . S
H1402 C1408 0.930 . S
H1403 C1412 0.930 . S
H1404 C1417 0.929 . S
H1405 C1415 0.929 . S
H1406 C1410 0.929 . S
H1407 C1416 0.929 . S
C1408 H1402 0.930 . S
C1408 C1409 1.367 . S
C1408 C1416 1.378 . S
C1409 C1408 1.367 . S
C1409 C1417 1.433 . S
C1410 H1406 0.929 . S
C1410 C1412 1.378 . S
C1410 C1414 1.350 . S
C1411 C1414 1.463 . S
C1411 C1416 1.350 . S
C1411 N1419 1.427 . S
C1412 H1403 0.930 . S
C1412 C1410 1.378 . S
C1412 C1413 1.367 . S
C1413 C1412 1.367 . S
C1413 C1415 1.433 . S
C1414 C1410 1.350 . S
C1414 C1411 1.463 . S
C1414 N1418 1.427 . S
C1415 H1405 0.929 . S
C1415 C1413 1.433 . S
C1415 N1418 1.384 . S
C1416 H1407 0.929 . S
C1416 C1408 1.378 . S
C1416 C1411 1.350 . S
C1417 H1404 0.929 . S
C1417 C1409 1.433 . S
C1417 N1419 1.384 . S
N1418 C1414 1.427 . S
N1418 C1415 1.384 . S
N1419 C1411 1.427 . S
N1419 C1417 1.384 . S
H1420 C1426 0.930 . S
H1421 C1430 0.930 . S
H1422 C1435 0.929 . S
H1423 C1433 0.929 . S
H1424 C1428 0.929 . S
H1425 C1434 0.929 . S
C1426 H1420 0.930 . S
C1426 C1427 1.367 . S
C1426 C1434 1.378 . S
C1427 C1426 1.367 . S
C1427 C1435 1.433 . S
C1428 H1424 0.929 . S
C1428 C1430 1.378 . S
C1428 C1432 1.350 . S
C1429 C1432 1.463 . S
C1429 C1434 1.350 . S
C1429 N1437 1.427 . S
C1430 H1421 0.930 . S
C1430 C1428 1.378 . S
C1430 C1431 1.367 . S
C1431 C1430 1.367 . S
C1431 C1433 1.433 . S
C1432 C1428 1.350 . S
C1432 C1429 1.463 . S
C1432 N1436 1.427 . S
C1433 H1423 0.929 . S
C1433 C1431 1.433 . S
C1433 N1436 1.384 . S
C1434 H1425 0.929 . S
C1434 C1426 1.378 . S
C1434 C1429 1.350 . S
C1435 H1422 0.929 . S
C1435 C1427 1.433 . S
C1435 N1437 1.384 . S
N1436 C1432 1.427 . S
N1436 C1433 1.384 . S
N1437 C1429 1.427 . S
N1437 C1435 1.384 . S
H1438 C1444 0.930 . S
H1439 C1448 0.930 . S
H1440 C1453 0.929 . S
H1441 C1451 0.929 . S
H1442 C1446 0.929 . S
H1443 C1452 0.929 . S
C1444 H1438 0.930 . S
C1444 C1445 1.367 . S
C1444 C1452 1.378 . S
C1445 C1444 1.367 . S
C1445 C1453 1.433 . S
C1446 H1442 0.929 . S
C1446 C1448 1.378 . S
C1446 C1450 1.350 . S
C1447 C1450 1.463 . S
C1447 C1452 1.350 . S
C1447 N1455 1.427 . S
C1448 H1439 0.930 . S
C1448 C1446 1.378 . S
C1448 C1449 1.367 . S
C1449 C1448 1.367 . S
C1449 C1451 1.433 . S
C1450 C1446 1.350 . S
C1450 C1447 1.463 . S
C1450 N1454 1.427 . S
C1451 H1441 0.929 . S
C1451 C1449 1.433 . S
C1451 N1454 1.384 . S
C1452 H1443 0.929 . S
C1452 C1444 1.378 . S
C1452 C1447 1.350 . S
C1453 H1440 0.929 . S
C1453 C1445 1.433 . S
C1453 N1455 1.384 . S
N1454 C1450 1.427 . S
N1454 C1451 1.384 . S
N1455 C1447 1.427 . S
N1455 C1453 1.384 . S
H1456 C1462 0.930 . S
H1457 C1466 0.930 . S
H1458 C1471 0.929 . S
H1459 C1469 0.929 . S
H1460 C1464 0.929 . S
H1461 C1470 0.929 . S
C1462 H1456 0.930 . S
C1462 C1463 1.367 . S
C1462 C1470 1.378 . S
C1463 C1462 1.367 . S
C1463 C1471 1.433 . S
C1464 H1460 0.929 . S
C1464 C1466 1.378 . S
C1464 C1468 1.350 . S
C1465 C1468 1.463 . S
C1465 C1470 1.350 . S
C1465 N1473 1.427 . S
C1466 H1457 0.930 . S
C1466 C1464 1.378 . S
C1466 C1467 1.367 . S
C1467 C1466 1.367 . S
C1467 C1469 1.433 . S
C1468 C1464 1.350 . S
C1468 C1465 1.463 . S
C1468 N1472 1.427 . S
C1469 H1459 0.929 . S
C1469 C1467 1.433 . S
C1469 N1472 1.384 . S
C1470 H1461 0.929 . S
C1470 C1462 1.378 . S
C1470 C1465 1.350 . S
C1471 H1458 0.929 . S
C1471 C1463 1.433 . S
C1471 N1473 1.384 . S
N1472 C1468 1.427 . S
N1472 C1469 1.384 . S
N1473 C1465 1.427 . S
N1473 C1471 1.384 . S
H1474 C1480 0.930 . S
H1475 C1484 0.930 . S
H1476 C1489 0.929 . S
H1477 C1487 0.929 . S
H1478 C1482 0.929 . S
H1479 C1488 0.929 . S
C1480 H1474 0.930 . S
C1480 C1481 1.367 . S
C1480 C1488 1.378 . S
C1481 C1480 1.367 . S
C1481 C1489 1.433 . S
C1482 H1478 0.929 . S
C1482 C1484 1.378 . S
C1482 C1486 1.350 . S
C1483 C1486 1.463 . S
C1483 C1488 1.350 . S
C1483 N1491 1.427 . S
C1484 H1475 0.930 . S
C1484 C1482 1.378 . S
C1484 C1485 1.367 . S
C1485 C1484 1.367 . S
C1485 C1487 1.433 . S
C1486 C1482 1.350 . S
C1486 C1483 1.463 . S
C1486 N1490 1.427 . S
C1487 H1477 0.929 . S
C1487 C1485 1.433 . S
C1487 N1490 1.384 . S
C1488 H1479 0.929 . S
C1488 C1480 1.378 . S
C1488 C1483 1.350 . S
C1489 H1476 0.929 . S
C1489 C1481 1.433 . S
C1489 N1491 1.384 . S
N1490 C1486 1.427 . S
N1490 C1487 1.384 . S
N1491 C1483 1.427 . S
N1491 C1489 1.384 . S
H1492 C1498 0.930 . S
H1493 C1502 0.930 . S
H1494 C1507 0.929 . S
H1495 C1505 0.929 . S
H1496 C1500 0.929 . S
H1497 C1506 0.929 . S
C1498 H1492 0.930 . S
C1498 C1499 1.367 . S
C1498 C1506 1.378 . S
C1499 C1498 1.367 . S
C1499 C1507 1.433 . S
C1500 H1496 0.929 . S
C1500 C1502 1.378 . S
C1500 C1504 1.350 . S
C1501 C1504 1.463 . S
C1501 C1506 1.350 . S
C1501 N1509 1.427 . S
C1502 H1493 0.930 . S
C1502 C1500 1.378 . S
C1502 C1503 1.367 . S
C1503 C1502 1.367 . S
C1503 C1505 1.433 . S
C1504 C1500 1.350 . S
C1504 C1501 1.463 . S
C1504 N1508 1.427 . S
C1505 H1495 0.929 . S
C1505 C1503 1.433 . S
C1505 N1508 1.384 . S
C1506 H1497 0.929 . S
C1506 C1498 1.378 . S
C1506 C1501 1.350 . S
C1507 H1494 0.929 . S
C1507 C1499 1.433 . S
C1507 N1509 1.384 . S
N1508 C1504 1.427 . S
N1508 C1505 1.384 . S
N1509 C1501 1.427 . S
N1509 C1507 1.384 . S
H1510 C1516 0.930 . S
H1511 C1520 0.930 . S
H1512 C1525 0.929 . S
H1513 C1523 0.929 . S
H1514 C1518 0.929 . S
H1515 C1524 0.929 . S
C1516 H1510 0.930 . S
C1516 C1517 1.367 . S
C1516 C1524 1.378 . S
C1517 C1516 1.367 . S
C1517 C1525 1.433 . S
C1518 H1514 0.929 . S
C1518 C1520 1.378 . S
C1518 C1522 1.350 . S
C1519 C1522 1.463 . S
C1519 C1524 1.350 . S
C1519 N1527 1.427 . S
C1520 H1511 0.930 . S
C1520 C1518 1.378 . S
C1520 C1521 1.367 . S
C1521 C1520 1.367 . S
C1521 C1523 1.433 . S
C1522 C1518 1.350 . S
C1522 C1519 1.463 . S
C1522 N1526 1.427 . S
C1523 H1513 0.929 . S
C1523 C1521 1.433 . S
C1523 N1526 1.384 . S
C1524 H1515 0.929 . S
C1524 C1516 1.378 . S
C1524 C1519 1.350 . S
C1525 H1512 0.929 . S
C1525 C1517 1.433 . S
C1525 N1527 1.384 . S
N1526 C1522 1.427 . S
N1526 C1523 1.384 . S
N1527 C1519 1.427 . S
N1527 C1525 1.384 . S
H1528 C1534 0.930 . S
H1529 C1538 0.930 . S
H1530 C1543 0.929 . S
H1531 C1541 0.929 . S
H1532 C1536 0.929 . S
H1533 C1542 0.929 . S
C1534 H1528 0.930 . S
C1534 C1535 1.367 . S
C1534 C1542 1.378 . S
C1535 C1534 1.367 . S
C1535 C1543 1.433 . S
C1536 H1532 0.929 . S
C1536 C1538 1.378 . S
C1536 C1540 1.350 . S
C1537 C1540 1.463 . S
C1537 C1542 1.350 . S
C1537 N1545 1.427 . S
C1538 H1529 0.930 . S
C1538 C1536 1.378 . S
C1538 C1539 1.367 . S
C1539 C1538 1.367 . S
C1539 C1541 1.433 . S
C1540 C1536 1.350 . S
C1540 C1537 1.463 . S
C1540 N1544 1.427 . S
C1541 H1531 0.929 . S
C1541 C1539 1.433 . S
C1541 N1544 1.384 . S
C1542 H1533 0.929 . S
C1542 C1534 1.378 . S
C1542 C1537 1.350 . S
C1543 H1530 0.929 . S
C1543 C1535 1.433 . S
C1543 N1545 1.384 . S
N1544 C1540 1.427 . S
N1544 C1541 1.384 . S
N1545 C1537 1.427 . S
N1545 C1543 1.384 . S
H1546 C1552 0.930 . S
H1547 C1556 0.930 . S
H1548 C1561 0.929 . S
H1549 C1559 0.929 . S
H1550 C1554 0.929 . S
H1551 C1560 0.929 . S
C1552 H1546 0.930 . S
C1552 C1553 1.367 . S
C1552 C1560 1.378 . S
C1553 C1552 1.367 . S
C1553 C1561 1.433 . S
C1554 H1550 0.929 . S
C1554 C1556 1.378 . S
C1554 C1558 1.350 . S
C1555 C1558 1.463 . S
C1555 C1560 1.350 . S
C1555 N1563 1.427 . S
C1556 H1547 0.930 . S
C1556 C1554 1.378 . S
C1556 C1557 1.367 . S
C1557 C1556 1.367 . S
C1557 C1559 1.433 . S
C1558 C1554 1.350 . S
C1558 C1555 1.463 . S
C1558 N1562 1.427 . S
C1559 H1549 0.929 . S
C1559 C1557 1.433 . S
C1559 N1562 1.384 . S
C1560 H1551 0.929 . S
C1560 C1552 1.378 . S
C1560 C1555 1.350 . S
C1561 H1548 0.929 . S
C1561 C1553 1.433 . S
C1561 N1563 1.384 . S
N1562 C1558 1.427 . S
N1562 C1559 1.384 . S
N1563 C1555 1.427 . S
N1563 C1561 1.384 . S
H1564 C1570 0.930 . S
H1565 C1574 0.930 . S
H1566 C1579 0.929 . S
H1567 C1577 0.929 . S
H1568 C1572 0.929 . S
H1569 C1578 0.929 . S
C1570 H1564 0.930 . S
C1570 C1571 1.367 . S
C1570 C1578 1.378 . S
C1571 C1570 1.367 . S
C1571 C1579 1.433 . S
C1572 H1568 0.929 . S
C1572 C1574 1.378 . S
C1572 C1576 1.350 . S
C1573 C1576 1.463 . S
C1573 C1578 1.350 . S
C1573 N1581 1.427 . S
C1574 H1565 0.930 . S
C1574 C1572 1.378 . S
C1574 C1575 1.367 . S
C1575 C1574 1.367 . S
C1575 C1577 1.433 . S
C1576 C1572 1.350 . S
C1576 C1573 1.463 . S
C1576 N1580 1.427 . S
C1577 H1567 0.929 . S
C1577 C1575 1.433 . S
C1577 N1580 1.384 . S
C1578 H1569 0.929 . S
C1578 C1570 1.378 . S
C1578 C1573 1.350 . S
C1579 H1566 0.929 . S
C1579 C1571 1.433 . S
C1579 N1581 1.384 . S
N1580 C1576 1.427 . S
N1580 C1577 1.384 . S
N1581 C1573 1.427 . S
N1581 C1579 1.384 . S
H1582 C1588 0.930 . S
H1583 C1592 0.930 . S
H1584 C1597 0.929 . S
H1585 C1595 0.929 . S
H1586 C1590 0.929 . S
H1587 C1596 0.929 . S
C1588 H1582 0.930 . S
C1588 C1589 1.367 . S
C1588 C1596 1.378 . S
C1589 C1588 1.367 . S
C1589 C1597 1.433 . S
C1590 H1586 0.929 . S
C1590 C1592 1.378 . S
C1590 C1594 1.350 . S
C1591 C1594 1.463 . S
C1591 C1596 1.350 . S
C1591 N1599 1.427 . S
C1592 H1583 0.930 . S
C1592 C1590 1.378 . S
C1592 C1593 1.367 . S
C1593 C1592 1.367 . S
C1593 C1595 1.433 . S
C1594 C1590 1.350 . S
C1594 C1591 1.463 . S
C1594 N1598 1.427 . S
C1595 H1585 0.929 . S
C1595 C1593 1.433 . S
C1595 N1598 1.384 . S
C1596 H1587 0.929 . S
C1596 C1588 1.378 . S
C1596 C1591 1.350 . S
C1597 H1584 0.929 . S
C1597 C1589 1.433 . S
C1597 N1599 1.384 . S
N1598 C1594 1.427 . S
N1598 C1595 1.384 . S
N1599 C1591 1.427 . S
N1599 C1597 1.384 . S
C455 C148 1.375 . S
C459 C8 1.383 . S
C473 C22 1.375 . S
C477 C162 1.385 . S
C491 C36 1.375 . S
C495 C120 1.383 . S
C509 C134 1.374 . S
C513 C50 1.386 . S
C527 C205 1.373 . S
C531 C65 1.389 . S
C545 C79 1.383 . S
C549 C219 1.376 . S
C563 C177 1.379 . S
C567 C93 1.379 . S
C581 C191 1.383 . S
C585 C107 1.385 . S
C599 C372 1.374 . S
C603 C232 1.389 . S
C617 C386 1.382 . S
C621 C246 1.377 . S
C635 C344 1.384 . S
C639 C260 1.384 . S
C653 C274 1.375 . S
C657 C358 1.385 . S
C671 C429 1.388 . S
C675 C289 1.373 . S
C689 C443 1.380 . S
C693 C303 1.388 . S
C707 C317 1.389 . S
C711 C401 1.377 . S
C725 C331 1.374 . S
C729 C415 1.386 . S
C743 C272 1.295 . S
C747 C6 1.286 . S
C761 C20 1.292 1_655 S
C765 C258 1.284 . S
C779 C244 1.293 . S
C783 C34 1.302 . S
C797 C230 1.304 . S
C801 C48 1.299 1_655 S
C815 C63 1.302 . S
C819 C329 1.304 . S
C833 C77 1.284 1_455 S
C837 C315 1.283 . S
C851 C301 1.284 . S
C855 C91 1.293 . S
C869 C105 1.282 1_455 S
C873 C287 1.288 . S
C887 C384 1.295 . S
C891 C118 1.286 . S
C905 C370 1.286 . S
C909 C132 1.282 1_655 S
C923 C356 1.283 . S
C927 C146 1.283 . S
C941 C342 1.291 . S
C945 C160 1.283 1_655 S
C959 C175 1.302 . S
C963 C441 1.293 . S
C977 C427 1.304 . S
C981 C189 1.296 1_455 S
C995 C203 1.297 . S
C999 C413 1.287 . S
C1013 C217 1.285 1_455 S
C1017 C399 1.294 . S
C1031 C174 1.448 . S
C1035 C7 1.448 . S
C1049 C21 1.445 . S
C1053 C300 1.445 . S
C1067 C90 1.457 . S
C1071 C35 1.457 . S
C1085 C440 1.443 . S
C1089 C49 1.443 . S
C1103 C62 1.457 . S
C1107 C119 1.457 . S
C1121 C245 1.456 . S
C1125 C76 1.456 . S
C1139 C385 1.458 . S
C1143 C104 1.458 . S
C1157 C412 1.452 . S
C1161 C133 1.452 . S
C1175 C147 1.443 . S
C1179 C202 1.443 . S
C1193 C328 1.444 . S
C1197 C161 1.444 . S
C1211 C357 1.448 . S
C1215 C188 1.448 . S
C1229 C216 1.447 . S
C1233 C273 1.447 . S
C1247 C231 1.443 . S
C1251 C398 1.443 . S
C1265 C314 1.456 . S
C1269 C259 1.456 . S
C1283 C343 1.456 . S
C1287 C286 1.456 . S
C1301 C371 1.450 . S
C1305 C426 1.450 . S
C1319 C9 1.108 . S
C1323 C51 1.096 . S
C1337 C37 1.107 . S
C1341 C23 1.097 . S
C1355 C64 1.108 . S
C1359 C106 1.096 . S
C1373 C78 1.095 . S
C1377 C92 1.109 . S
C1391 C121 1.107 . S
C1395 C163 1.098 . S
C1409 C135 1.096 . S
C1413 C149 1.108 . S
C1427 C176 1.102 . S
C1431 C218 1.102 . S
C1445 C204 1.107 . S
C1449 C190 1.097 . S
C1463 C275 1.100 . S
C1467 C233 1.104 . S
C1481 C261 1.108 . S
C1485 C247 1.096 . S
C1499 C330 1.098 . S
C1503 C288 1.107 . S
C1517 C316 1.108 . S
C1521 C302 1.096 . S
C1535 C387 1.108 . S
C1539 C345 1.096 . S
C1553 C373 1.098 . S
C1557 C359 1.106 . S
C1571 C400 1.108 . S
C1575 C442 1.096 . S
C1589 C428 1.095 . S
C1593 C414 1.109 . S
