# Generated by pormake.
# Topology uoe, (4)-cn, num edge types: 1
# Building blocks:
#     Node 0, Type 0, BuildingBlock: QUQFOY_clean_sbu_1, # of connection points: 4
#     Node 1, Type 0, BuildingBlock: QUQFOY_clean_sbu_1, # of connection points: 4
#     Node 2, Type 0, BuildingBlock: QUQFOY_clean_sbu_1, # of connection points: 4
#     Node 3, Type 0, BuildingBlock: QUQFOY_clean_sbu_1, # of connection points: 4
#     Node 4, Type 0, BuildingBlock: QUQFOY_clean_sbu_1, # of connection points: 4
#     Node 5, Type 0, BuildingBlock: QUQFOY_clean_sbu_1, # of connection points: 4
#     Node 6, Type 0, BuildingBlock: QUQFOY_clean_sbu_1, # of connection points: 4
#     Node 7, Type 0, BuildingBlock: QUQFOY_clean_sbu_1, # of connection points: 4
#     Node 8, Type 0, BuildingBlock: QUQFOY_clean_sbu_1, # of connection points: 4
#     Node 9, Type 0, BuildingBlock: QUQFOY_clean_sbu_1, # of connection points: 4
#     Node 10, Type 0, BuildingBlock: QUQFOY_clean_sbu_1, # of connection points: 4
#     Node 11, Type 0, BuildingBlock: QUQFOY_clean_sbu_1, # of connection points: 4
#     Node 12, Type 0, BuildingBlock: QUQFOY_clean_sbu_1, # of connection points: 4
#     Node 13, Type 0, BuildingBlock: QUQFOY_clean_sbu_1, # of connection points: 4
#     Node 14, Type 0, BuildingBlock: QUQFOY_clean_sbu_1, # of connection points: 4
#     Node 15, Type 0, BuildingBlock: QUQFOY_clean_sbu_1, # of connection points: 4
#     Node 16, Type 0, BuildingBlock: QUQFOY_clean_sbu_1, # of connection points: 4
#     Node 17, Type 0, BuildingBlock: QUQFOY_clean_sbu_1, # of connection points: 4
#     Node 18, Type 0, BuildingBlock: QUQFOY_clean_sbu_1, # of connection points: 4
#     Node 19, Type 0, BuildingBlock: QUQFOY_clean_sbu_1, # of connection points: 4
#     Node 20, Type 0, BuildingBlock: QUQFOY_clean_sbu_1, # of connection points: 4
#     Node 21, Type 0, BuildingBlock: QUQFOY_clean_sbu_1, # of connection points: 4
#     Node 22, Type 0, BuildingBlock: QUQFOY_clean_sbu_1, # of connection points: 4
#     Node 23, Type 0, BuildingBlock: QUQFOY_clean_sbu_1, # of connection points: 4
#     Node 24, Type 0, BuildingBlock: QUQFOY_clean_sbu_1, # of connection points: 4
#     Node 25, Type 0, BuildingBlock: QUQFOY_clean_sbu_1, # of connection points: 4
#     Node 26, Type 0, BuildingBlock: QUQFOY_clean_sbu_1, # of connection points: 4
#     Node 27, Type 0, BuildingBlock: QUQFOY_clean_sbu_1, # of connection points: 4
#     Node 28, Type 0, BuildingBlock: QUQFOY_clean_sbu_1, # of connection points: 4
#     Node 29, Type 0, BuildingBlock: QUQFOY_clean_sbu_1, # of connection points: 4
#     Node 30, Type 0, BuildingBlock: QUQFOY_clean_sbu_1, # of connection points: 4
#     Node 31, Type 0, BuildingBlock: QUQFOY_clean_sbu_1, # of connection points: 4
#     Edge 32, Type (0, 0), BuildingBlock: ZUJKAS_clean_linker_0, # of connection points: 2
#     Edge 33, Type (0, 0), BuildingBlock: ZUJKAS_clean_linker_0, # of connection points: 2
#     Edge 34, Type (0, 0), BuildingBlock: ZUJKAS_clean_linker_0, # of connection points: 2
#     Edge 35, Type (0, 0), BuildingBlock: ZUJKAS_clean_linker_0, # of connection points: 2
#     Edge 36, Type (0, 0), BuildingBlock: ZUJKAS_clean_linker_0, # of connection points: 2
#     Edge 37, Type (0, 0), BuildingBlock: ZUJKAS_clean_linker_0, # of connection points: 2
#     Edge 38, Type (0, 0), BuildingBlock: ZUJKAS_clean_linker_0, # of connection points: 2
#     Edge 39, Type (0, 0), BuildingBlock: ZUJKAS_clean_linker_0, # of connection points: 2
#     Edge 40, Type (0, 0), BuildingBlock: ZUJKAS_clean_linker_0, # of connection points: 2
#     Edge 41, Type (0, 0), BuildingBlock: ZUJKAS_clean_linker_0, # of connection points: 2
#     Edge 42, Type (0, 0), BuildingBlock: ZUJKAS_clean_linker_0, # of connection points: 2
#     Edge 43, Type (0, 0), BuildingBlock: ZUJKAS_clean_linker_0, # of connection points: 2
#     Edge 44, Type (0, 0), BuildingBlock: ZUJKAS_clean_linker_0, # of connection points: 2
#     Edge 45, Type (0, 0), BuildingBlock: ZUJKAS_clean_linker_0, # of connection points: 2
#     Edge 46, Type (0, 0), BuildingBlock: ZUJKAS_clean_linker_0, # of connection points: 2
#     Edge 47, Type (0, 0), BuildingBlock: ZUJKAS_clean_linker_0, # of connection points: 2
#     Edge 48, Type (0, 0), BuildingBlock: ZUJKAS_clean_linker_0, # of connection points: 2
#     Edge 49, Type (0, 0), BuildingBlock: ZUJKAS_clean_linker_0, # of connection points: 2
#     Edge 50, Type (0, 0), BuildingBlock: ZUJKAS_clean_linker_0, # of connection points: 2
#     Edge 51, Type (0, 0), BuildingBlock: ZUJKAS_clean_linker_0, # of connection points: 2
#     Edge 52, Type (0, 0), BuildingBlock: ZUJKAS_clean_linker_0, # of connection points: 2
#     Edge 53, Type (0, 0), BuildingBlock: ZUJKAS_clean_linker_0, # of connection points: 2
#     Edge 54, Type (0, 0), BuildingBlock: ZUJKAS_clean_linker_0, # of connection points: 2
#     Edge 55, Type (0, 0), BuildingBlock: ZUJKAS_clean_linker_0, # of connection points: 2
#     Edge 56, Type (0, 0), BuildingBlock: ZUJKAS_clean_linker_0, # of connection points: 2
#     Edge 57, Type (0, 0), BuildingBlock: ZUJKAS_clean_linker_0, # of connection points: 2
#     Edge 58, Type (0, 0), BuildingBlock: ZUJKAS_clean_linker_0, # of connection points: 2
#     Edge 59, Type (0, 0), BuildingBlock: ZUJKAS_clean_linker_0, # of connection points: 2
#     Edge 60, Type (0, 0), BuildingBlock: ZUJKAS_clean_linker_0, # of connection points: 2
#     Edge 61, Type (0, 0), BuildingBlock: ZUJKAS_clean_linker_0, # of connection points: 2
#     Edge 62, Type (0, 0), BuildingBlock: ZUJKAS_clean_linker_0, # of connection points: 2
#     Edge 63, Type (0, 0), BuildingBlock: ZUJKAS_clean_linker_0, # of connection points: 2
#     Edge 64, Type (0, 0), BuildingBlock: ZUJKAS_clean_linker_0, # of connection points: 2
#     Edge 65, Type (0, 0), BuildingBlock: ZUJKAS_clean_linker_0, # of connection points: 2
#     Edge 66, Type (0, 0), BuildingBlock: ZUJKAS_clean_linker_0, # of connection points: 2
#     Edge 67, Type (0, 0), BuildingBlock: ZUJKAS_clean_linker_0, # of connection points: 2
#     Edge 68, Type (0, 0), BuildingBlock: ZUJKAS_clean_linker_0, # of connection points: 2
#     Edge 69, Type (0, 0), BuildingBlock: ZUJKAS_clean_linker_0, # of connection points: 2
#     Edge 70, Type (0, 0), BuildingBlock: ZUJKAS_clean_linker_0, # of connection points: 2
#     Edge 71, Type (0, 0), BuildingBlock: ZUJKAS_clean_linker_0, # of connection points: 2
#     Edge 72, Type (0, 0), BuildingBlock: ZUJKAS_clean_linker_0, # of connection points: 2
#     Edge 73, Type (0, 0), BuildingBlock: ZUJKAS_clean_linker_0, # of connection points: 2
#     Edge 74, Type (0, 0), BuildingBlock: ZUJKAS_clean_linker_0, # of connection points: 2
#     Edge 75, Type (0, 0), BuildingBlock: ZUJKAS_clean_linker_0, # of connection points: 2
#     Edge 76, Type (0, 0), BuildingBlock: ZUJKAS_clean_linker_0, # of connection points: 2
#     Edge 77, Type (0, 0), BuildingBlock: ZUJKAS_clean_linker_0, # of connection points: 2
#     Edge 78, Type (0, 0), BuildingBlock: ZUJKAS_clean_linker_0, # of connection points: 2
#     Edge 79, Type (0, 0), BuildingBlock: ZUJKAS_clean_linker_0, # of connection points: 2
#     Edge 80, Type (0, 0), BuildingBlock: ZUJKAS_clean_linker_0, # of connection points: 2
#     Edge 81, Type (0, 0), BuildingBlock: ZUJKAS_clean_linker_0, # of connection points: 2
#     Edge 82, Type (0, 0), BuildingBlock: ZUJKAS_clean_linker_0, # of connection points: 2
#     Edge 83, Type (0, 0), BuildingBlock: ZUJKAS_clean_linker_0, # of connection points: 2
#     Edge 84, Type (0, 0), BuildingBlock: ZUJKAS_clean_linker_0, # of connection points: 2
#     Edge 85, Type (0, 0), BuildingBlock: ZUJKAS_clean_linker_0, # of connection points: 2
#     Edge 86, Type (0, 0), BuildingBlock: ZUJKAS_clean_linker_0, # of connection points: 2
#     Edge 87, Type (0, 0), BuildingBlock: ZUJKAS_clean_linker_0, # of connection points: 2
#     Edge 88, Type (0, 0), BuildingBlock: ZUJKAS_clean_linker_0, # of connection points: 2
#     Edge 89, Type (0, 0), BuildingBlock: ZUJKAS_clean_linker_0, # of connection points: 2
#     Edge 90, Type (0, 0), BuildingBlock: ZUJKAS_clean_linker_0, # of connection points: 2
#     Edge 91, Type (0, 0), BuildingBlock: ZUJKAS_clean_linker_0, # of connection points: 2
#     Edge 92, Type (0, 0), BuildingBlock: ZUJKAS_clean_linker_0, # of connection points: 2
#     Edge 93, Type (0, 0), BuildingBlock: ZUJKAS_clean_linker_0, # of connection points: 2
#     Edge 94, Type (0, 0), BuildingBlock: ZUJKAS_clean_linker_0, # of connection points: 2
#     Edge 95, Type (0, 0), BuildingBlock: ZUJKAS_clean_linker_0, # of connection points: 2
# Relax obj value: 0.070
# Max RMSD: 0.139
# Mean RMSD: 0.139
data_MOF--net-uoe--node1-QUQFOY_clean_sbu_1--edge1-ZUJKAS_clean_linker_0
_symmetry_space_group_name_H-M    P1
_symmetry_Int_Tables_number       1
_symmetry_cell_setting            triclinic
loop_
_symmetry_equiv_pos_as_xyz
'x, y, z'
_cell_length_a     101.58026
_cell_length_b     101.57071
_cell_length_c     36.561421
_cell_angle_alpha  89.994845
_cell_angle_beta   89.997019
_cell_angle_gamma 90.058594
loop_
_atom_site_label
_atom_site_type_symbol
_atom_site_fract_x
_atom_site_fract_y
_atom_site_fract_z
_atom_type_partial_charge
O0 O 0.09674 0.4718 0.12302 0.0
Cd1 Cd 0.08968 0.46035 0.0813 0.0
Cd2 Cd 0.09843 0.48246 0.04366 0.0
O3 O 0.10904 0.48564 0.09149 0.0
O4 O 0.0878 0.44283 0.1058 0.0
O5 O 0.10251 0.44675 0.06262 0.0
C6 C 0.09786 0.4389 0.0873 0.0
C7 C 0.10739 0.4868 0.9857 0.0
C8 C 0.10543 0.48079 0.12198 0.0
C9 C 0.0689 0.47736 0.05077 0.0
O10 O 0.07828 0.48547 0.04552 0.0
O11 O 0.07135 0.46565 0.06115 0.0
O12 O 0.1044 0.49615 0.00801 0.0
O13 O 0.106 0.47484 0.9971 0.0
O14 O 0.78572 0.84977 0.36569 0.0
Cd15 Cd 0.79684 0.83878 0.33021 0.0
Cd16 Cd 0.77331 0.84614 0.28696 0.0
O17 O 0.76916 0.85739 0.33264 0.0
O18 O 0.81295 0.83635 0.36102 0.0
O19 O 0.81288 0.84836 0.31077 0.0
C20 C 0.81898 0.84451 0.33988 0.0
C21 C 0.7681 0.85411 0.22844 0.0
C22 C 0.77553 0.85688 0.36251 0.0
C23 C 0.77908 0.817 0.30316 0.0
O24 O 0.77142 0.82602 0.29181 0.0
O25 O 0.79023 0.81987 0.31715 0.0
O26 O 0.75911 0.8507 0.2514 0.0
O27 O 0.7802 0.8535 0.23918 0.0
O28 O 0.41147 0.5385 0.625 0.0
Cd29 Cd 0.41949 0.54994 0.58451 0.0
Cd30 Cd 0.41138 0.5274 0.54469 0.0
O31 O 0.40128 0.52326 0.59252 0.0
O32 O 0.42092 0.56743 0.6092 0.0
O33 O 0.40706 0.56351 0.56387 0.0
C34 C 0.41124 0.57135 0.58919 0.0
C35 C 0.40248 0.52163 0.48777 0.0
C36 C 0.40368 0.52874 0.62309 0.0
C37 C 0.44083 0.53354 0.55349 0.0
O38 O 0.43161 0.52557 0.54559 0.0
O39 O 0.43819 0.54485 0.56659 0.0
O40 O 0.4069 0.5129 0.51009 0.0
O41 O 0.40238 0.53375 0.49846 0.0
O42 O 0.72073 0.15981 0.86445 0.0
Cd43 Cd 0.70873 0.16665 0.82378 0.0
Cd44 Cd 0.73058 0.15756 0.78429 0.0
O45 O 0.73396 0.14711 0.83228 0.0
O46 O 0.69169 0.16843 0.85078 0.0
O47 O 0.69473 0.1539 0.80666 0.0
C48 C 0.68739 0.15841 0.83269 0.0
C49 C 0.73576 0.14835 0.72711 0.0
C50 C 0.72957 0.15101 0.863 0.0
C51 C 0.72547 0.18723 0.79123 0.0
O52 O 0.73342 0.17778 0.78532 0.0
O53 O 0.71388 0.18492 0.80293 0.0
O54 O 0.74476 0.15166 0.75015 0.0
O55 O 0.72364 0.14964 0.73722 0.0
O56 O 0.09523 0.53666 0.47094 0.0
Cd57 Cd 0.08838 0.5477 0.51371 0.0
Cd58 Cd 0.09772 0.52579 0.54966 0.0
O59 O 0.10837 0.52339 0.50152 0.0
O60 O 0.08657 0.5654 0.49037 0.0
O61 O 0.10125 0.5611 0.53332 0.0
C62 C 0.09667 0.56914 0.50902 0.0
C63 C 0.10696 0.52109 0.60705 0.0
C64 C 0.10433 0.52812 0.47131 0.0
C65 C 0.06806 0.53018 0.54376 0.0
O66 O 0.07762 0.52223 0.54797 0.0
O67 O 0.07023 0.54206 0.53428 0.0
O68 O 0.10421 0.51191 0.58394 0.0
O69 O 0.10513 0.53313 0.59681 0.0
O70 O 0.71911 0.8473 0.71108 0.0
Cd71 Cd 0.70791 0.83794 0.74984 0.0
Cd72 Cd 0.73015 0.84625 0.79123 0.0
O73 O 0.73402 0.85735 0.745 0.0
O74 O 0.691 0.83587 0.72246 0.0
O75 O 0.6931 0.84899 0.77024 0.0
C76 C 0.68606 0.8449 0.74304 0.0
C77 C 0.7342 0.85483 0.84972 0.0
C78 C 0.72859 0.85537 0.71415 0.0
C79 C 0.72538 0.81681 0.77904 0.0
O80 O 0.73307 0.82617 0.788 0.0
O81 O 0.71399 0.81927 0.7661 0.0
O82 O 0.74365 0.85183 0.82778 0.0
O83 O 0.72229 0.85352 0.83782 0.0
O84 O 0.40611 0.46924 0.97226 0.0
Cd85 Cd 0.41594 0.45744 0.00869 0.0
Cd86 Cd 0.40945 0.48114 0.05164 0.0
O87 O 0.39912 0.48619 0.00499 0.0
O88 O 0.41749 0.4408 0.97966 0.0
O89 O 0.40482 0.44254 0.02849 0.0
C90 C 0.40863 0.43572 1.00058 0.0
C91 C 0.4015 0.48713 0.10948 0.0
C92 C 0.39959 0.47986 0.97502 0.0
C93 C 0.43843 0.47365 0.0375 0.0
O94 O 0.42969 0.48164 0.04864 0.0
O95 O 0.43515 0.46276 0.02272 0.0
O96 O 0.40637 0.49569 0.08729 0.0
O97 O 0.40048 0.47512 0.09827 0.0
O98 O 0.78589 0.15987 0.21366 0.0
Cd99 Cd 0.79731 0.16625 0.25623 0.0
Cd100 Cd 0.7758 0.15656 0.29292 0.0
O101 O 0.77307 0.14628 0.24435 0.0
O102 O 0.81505 0.16808 0.233 0.0
O103 O 0.81044 0.15289 0.2744 0.0
C104 C 0.81858 0.15767 0.25066 0.0
C105 C 0.77149 0.14701 0.35011 0.0
C106 C 0.77743 0.15066 0.21408 0.0
C107 C 0.78009 0.18625 0.28882 0.0
O108 O 0.77217 0.17663 0.29265 0.0
O109 O 0.7919 0.1842 0.27862 0.0
O110 O 0.76215 0.14984 0.32762 0.0
O111 O 0.78346 0.14888 0.33925 0.0
O112 O 0.90998 0.53489 0.96698 0.0
Cd113 Cd 0.91639 0.54634 0.00942 0.0
Cd114 Cd 0.90734 0.5246 0.04615 0.0
O115 O 0.89678 0.52178 0.998 0.0
O116 O 0.91792 0.56406 0.98588 0.0
O117 O 0.90298 0.55938 0.02789 0.0
C118 C 0.90755 0.56752 0.00382 0.0
C119 C 0.89819 0.5204 0.10394 0.0
C120 C 0.90091 0.52629 0.96762 0.0
C121 C 0.93691 0.5294 0.04056 0.0
O122 O 0.92747 0.5213 0.04472 0.0
O123 O 0.93457 0.54121 0.03081 0.0
O124 O 0.90098 0.51101 0.08158 0.0
O125 O 0.89988 0.53235 0.09266 0.0
O126 O 0.21875 0.15685 0.71996 0.0
Cd127 Cd 0.20825 0.16623 0.76009 0.0
Cd128 Cd 0.23168 0.15802 0.7984 0.0
O129 O 0.23494 0.14748 0.75084 0.0
O130 O 0.19098 0.16877 0.73478 0.0
O131 O 0.19363 0.15504 0.78105 0.0
C132 C 0.18626 0.15952 0.75507 0.0
C133 C 0.237 0.14903 0.85559 0.0
C134 C 0.2286 0.14919 0.72124 0.0
C135 C 0.22618 0.18741 0.7885 0.0
O136 O 0.23412 0.17815 0.79631 0.0
O137 O 0.21469 0.18484 0.7764 0.0
O138 O 0.24596 0.15239 0.83248 0.0
O139 O 0.22486 0.15019 0.84559 0.0
O140 O 0.59724 0.47087 0.46877 0.0
Cd141 Cd 0.5906 0.45988 0.51187 0.0
Cd142 Cd 0.60065 0.48144 0.54754 0.0
O143 O 0.61107 0.48358 0.49893 0.0
O144 O 0.58835 0.44212 0.48918 0.0
O145 O 0.60367 0.44653 0.53035 0.0
C146 C 0.59871 0.43843 0.50678 0.0
C147 C 0.61017 0.48601 0.60461 0.0
C148 C 0.60665 0.4791 0.46884 0.0
C149 C 0.57092 0.47767 0.54344 0.0
O150 O 0.58066 0.48545 0.54686 0.0
O151 O 0.57277 0.46575 0.5339 0.0
O152 O 0.60762 0.49521 0.58141 0.0
O153 O 0.60804 0.47399 0.59454 0.0
O154 O 0.28362 0.84568 0.22156 0.0
Cd155 Cd 0.29538 0.83925 0.26327 0.0
Cd156 Cd 0.27398 0.84877 0.30191 0.0
O157 O 0.27069 0.85884 0.25322 0.0
O158 O 0.31295 0.83771 0.23885 0.0
O159 O 0.30854 0.85273 0.28085 0.0
C160 C 0.31651 0.84814 0.25641 0.0
C161 C 0.26976 0.85855 0.35889 0.0
C162 C 0.27498 0.85469 0.22264 0.0
C163 C 0.27862 0.81907 0.29745 0.0
O164 O 0.27075 0.82863 0.3026 0.0
O165 O 0.29021 0.82118 0.28549 0.0
O166 O 0.26037 0.85529 0.33699 0.0
O167 O 0.2817 0.85695 0.34757 0.0
O168 O 0.90865 0.46995 0.61967 0.0
Cd169 Cd 0.91614 0.45862 0.57833 0.0
Cd170 Cd 0.90734 0.48095 0.54052 0.0
O171 O 0.8965 0.48386 0.5881 0.0
O172 O 0.91812 0.44132 0.60388 0.0
O173 O 0.90387 0.44455 0.55919 0.0
C174 C 0.90836 0.43701 0.58478 0.0
C175 C 0.89857 0.48598 0.4827 0.0
C176 C 0.89995 0.4789 0.61856 0.0
C177 C 0.93691 0.47595 0.54876 0.0
O178 O 0.92749 0.48396 0.54314 0.0
O179 O 0.93452 0.46421 0.55908 0.0
O180 O 0.90149 0.49505 0.50597 0.0
O181 O 0.89996 0.47389 0.49295 0.0
O182 O 0.28601 0.15867 0.37154 0.0
Cd183 Cd 0.29753 0.16685 0.33155 0.0
Cd184 Cd 0.27582 0.15822 0.29044 0.0
O185 O 0.27174 0.14773 0.33766 0.0
O186 O 0.31489 0.1685 0.35696 0.0
O187 O 0.31131 0.15448 0.3118 0.0
C188 C 0.31896 0.15873 0.33751 0.0
C189 C 0.27176 0.14899 0.23269 0.0
C190 C 0.27669 0.1504 0.36873 0.0
C191 C 0.28055 0.18775 0.29984 0.0
O192 O 0.27285 0.17831 0.29175 0.0
O193 O 0.29192 0.18541 0.31305 0.0
O194 O 0.26231 0.15227 0.25434 0.0
O195 O 0.28367 0.15037 0.24453 0.0
O196 O 0.59648 0.53366 0.12022 0.0
Cd197 Cd 0.58963 0.54518 0.07849 0.0
Cd198 Cd 0.59919 0.52371 0.04017 0.0
O199 O 0.60958 0.5207 0.08846 0.0
O200 O 0.58776 0.56272 0.10285 0.0
O201 O 0.60272 0.55865 0.06043 0.0
C202 C 0.59803 0.56653 0.08497 0.0
C203 C 0.60878 0.51969 0.98285 0.0
C204 C 0.60557 0.52511 0.11906 0.0
C205 C 0.56949 0.52797 0.04556 0.0
O206 O 0.5791 0.52017 0.0404 0.0
O207 O 0.57155 0.53965 0.05695 0.0
O208 O 0.60583 0.51023 0.00487 0.0
O209 O 0.60696 0.5316 0.99421 0.0
O210 O 0.21943 0.84785 0.87136 0.0
Cd211 Cd 0.20847 0.8416 0.82774 0.0
Cd212 Cd 0.23018 0.85158 0.79284 0.0
O213 O 0.23243 0.86163 0.84199 0.0
O214 O 0.19052 0.8396 0.84953 0.0
O215 O 0.19552 0.85504 0.80918 0.0
C216 C 0.18716 0.85012 0.83215 0.0
C217 C 0.23498 0.86134 0.7362 0.0
C218 C 0.22781 0.85712 0.87182 0.0
C219 C 0.22609 0.82188 0.79557 0.0
O220 O 0.23397 0.83156 0.79264 0.0
O221 O 0.21419 0.82379 0.80509 0.0
O222 O 0.2441 0.85855 0.75942 0.0
O223 O 0.22292 0.85934 0.74607 0.0
O224 O 0.59628 0.96984 0.61945 0.0
Cd225 Cd 0.58877 0.95838 0.57842 0.0
Cd226 Cd 0.59796 0.98033 0.54005 0.0
O227 O 0.60893 0.98318 0.58742 0.0
O228 O 0.5866 0.94122 0.60454 0.0
O229 O 0.60085 0.9441 0.55967 0.0
C230 C 0.59627 0.93671 0.58549 0.0
C231 C 0.60678 0.98521 0.4822 0.0
C232 C 0.60523 0.97855 0.61805 0.0
C233 C 0.56829 0.9758 0.54854 0.0
O234 O 0.57783 0.98367 0.54277 0.0
O235 O 0.57049 0.96405 0.55899 0.0
O236 O 0.60398 0.99433 0.5054 0.0
O237 O 0.60522 0.97314 0.4925 0.0
O238 O 0.28567 0.35011 0.86663 0.0
Cd239 Cd 0.29641 0.34067 0.82705 0.0
Cd240 Cd 0.2732 0.34852 0.78788 0.0
O241 O 0.26942 0.35907 0.83507 0.0
O242 O 0.31368 0.33841 0.85261 0.0
O243 O 0.31092 0.35196 0.80599 0.0
C244 C 0.31832 0.34763 0.83211 0.0
C245 C 0.26871 0.35743 0.7301 0.0
C246 C 0.27568 0.35758 0.86487 0.0
C247 C 0.27883 0.31922 0.79846 0.0
O248 O 0.27088 0.32839 0.79003 0.0
O249 O 0.29022 0.32193 0.81107 0.0
O250 O 0.25941 0.35399 0.75209 0.0
O251 O 0.28069 0.35642 0.74164 0.0
O252 O 0.90715 0.03586 0.11892 0.0
Cd253 Cd 0.91624 0.04685 0.07924 0.0
Cd254 Cd 0.90858 0.02357 0.03986 0.0
O255 O 0.89839 0.01944 0.08752 0.0
O256 O 0.91818 0.06413 0.10496 0.0
O257 O 0.90463 0.06114 0.05845 0.0
C258 C 0.90884 0.0686 0.08463 0.0
C259 C 0.89947 0.01886 0.9824 0.0
C260 C 0.8999 0.02569 0.11734 0.0
C261 C 0.93784 0.02973 0.04969 0.0
O262 O 0.92876 0.02169 0.04107 0.0
O263 O 0.93504 0.041 0.06294 0.0
O264 O 0.90322 0.00965 0.00426 0.0
O265 O 0.90028 0.03087 0.99392 0.0
O266 O 0.22198 0.65316 0.36092 0.0
Cd267 Cd 0.2094 0.6646 0.33055 0.0
Cd268 Cd 0.23274 0.65904 0.28133 0.0
O269 O 0.23892 0.64801 0.32557 0.0
O270 O 0.1945 0.66604 0.36621 0.0
O271 O 0.19273 0.65533 0.31401 0.0
C272 C 0.18768 0.65847 0.34525 0.0
C273 C 0.2381 0.65216 0.22194 0.0
C274 C 0.23281 0.6472 0.35581 0.0
C275 C 0.22529 0.68762 0.3023 0.0
O276 O 0.2328 0.67919 0.28732 0.0
O277 O 0.21498 0.68399 0.31947 0.0
O278 O 0.2468 0.65705 0.24363 0.0
O279 O 0.2263 0.6506 0.23433 0.0
O280 O 0.59661 0.03437 0.96556 0.0
Cd281 Cd 0.58924 0.04624 0.00589 0.0
Cd282 Cd 0.59811 0.0244 0.04532 0.0
O283 O 0.60905 0.02104 0.99818 0.0
O284 O 0.58744 0.06325 0.97876 0.0
O285 O 0.6016 0.06045 0.02386 0.0
C286 C 0.5972 0.06773 0.99756 0.0
C287 C 0.60678 0.02002 0.10362 0.0
C288 C 0.60541 0.02554 0.96734 0.0
C289 C 0.56849 0.02923 0.03649 0.0
O290 O 0.57795 0.02132 0.04264 0.0
O291 O 0.57083 0.04091 0.02552 0.0
O292 O 0.60383 0.01069 0.0812 0.0
O293 O 0.60547 0.03199 0.09222 0.0
O294 O 0.21851 0.34685 0.21499 0.0
Cd295 Cd 0.2073 0.33881 0.25583 0.0
Cd296 Cd 0.22912 0.34768 0.29581 0.0
O297 O 0.23271 0.35813 0.24821 0.0
O298 O 0.1897 0.33719 0.23173 0.0
O299 O 0.19377 0.35129 0.2764 0.0
C300 C 0.18587 0.34702 0.25133 0.0
C301 C 0.23396 0.35704 0.35294 0.0
C302 C 0.22771 0.35528 0.21733 0.0
C303 C 0.22451 0.31809 0.28722 0.0
O304 O 0.23222 0.32759 0.29467 0.0
O305 O 0.21305 0.32034 0.27453 0.0
O306 O 0.24309 0.35376 0.3303 0.0
O307 O 0.2219 0.35559 0.34249 0.0
O308 O 0.90777 0.96718 0.46762 0.0
Cd309 Cd 0.91699 0.95601 0.50669 0.0
Cd310 Cd 0.90828 0.97827 0.54826 0.0
O311 O 0.89762 0.9821 0.50125 0.0
O312 O 0.91916 0.939 0.47982 0.0
O313 O 0.90586 0.94125 0.52716 0.0
C314 C 0.91007 0.93411 0.50033 0.0
C315 C 0.89927 0.9833 0.60575 0.0
C316 C 0.89975 0.9767 0.47046 0.0
C317 C 0.93783 0.97364 0.5371 0.0
O318 O 0.92837 0.98116 0.5461 0.0
O319 O 0.93556 0.96229 0.52358 0.0
O320 O 0.90261 0.99236 0.58294 0.0
O321 O 0.9005 0.9712 0.59535 0.0
O322 O 0.28843 0.66344 0.70601 0.0
Cd323 Cd 0.29933 0.67113 0.74808 0.0
Cd324 Cd 0.27699 0.66237 0.78559 0.0
O325 O 0.27371 0.65214 0.73742 0.0
O326 O 0.31722 0.67256 0.72577 0.0
O327 O 0.31236 0.65838 0.76968 0.0
C328 C 0.32066 0.66264 0.74559 0.0
C329 C 0.27137 0.65324 0.8423 0.0
C330 C 0.27913 0.65508 0.70713 0.0
C331 C 0.28237 0.69198 0.77866 0.0
O332 O 0.27444 0.68255 0.78492 0.0
O333 O 0.29392 0.68963 0.76689 0.0
O334 O 0.26253 0.65724 0.81965 0.0
O335 O 0.28352 0.65366 0.83198 0.0
O336 O 0.41038 0.03541 0.47195 0.0
Cd337 Cd 0.41681 0.04719 0.51369 0.0
Cd338 Cd 0.40789 0.02544 0.55161 0.0
O339 O 0.39748 0.02216 0.50353 0.0
O340 O 0.41833 0.06475 0.48921 0.0
O341 O 0.4034 0.06035 0.5315 0.0
C342 C 0.40798 0.06833 0.50703 0.0
C343 C 0.39869 0.02093 0.60917 0.0
C344 C 0.40151 0.0266 0.47298 0.0
C345 C 0.43745 0.03055 0.54556 0.0
O346 O 0.42806 0.02244 0.55044 0.0
O347 O 0.43504 0.04226 0.53504 0.0
O348 O 0.40183 0.01165 0.58681 0.0
O349 O 0.40008 0.03293 0.59803 0.0
O350 O 0.71945 0.65966 0.22165 0.0
Cd351 Cd 0.70764 0.6658 0.26357 0.0
Cd352 Cd 0.7293 0.65646 0.30167 0.0
O353 O 0.73244 0.64642 0.25288 0.0
O354 O 0.69005 0.66726 0.23921 0.0
O355 O 0.69458 0.65218 0.28093 0.0
C356 C 0.68656 0.65678 0.25662 0.0
C357 C 0.73448 0.64677 0.35819 0.0
C358 C 0.72814 0.65069 0.22245 0.0
C359 C 0.72429 0.68613 0.29734 0.0
O360 O 0.7323 0.67665 0.30205 0.0
O361 O 0.71265 0.68388 0.28599 0.0
O362 O 0.74348 0.65015 0.33522 0.0
O363 O 0.72236 0.64821 0.34827 0.0
O364 O 0.10127 0.97193 0.97698 0.0
Cd365 Cd 0.09141 0.96038 0.01395 0.0
Cd366 Cd 0.09864 0.98356 0.05685 0.0
O367 O 0.10908 0.98838 0.01023 0.0
O368 O 0.08927 0.94382 0.9848 0.0
O369 O 0.10231 0.9452 0.03295 0.0
C370 C 0.09819 0.93854 0.00507 0.0
C371 C 0.10731 0.98823 0.11487 0.0
C372 C 0.1082 0.98228 0.97999 0.0
C373 C 0.0695 0.97719 0.0439 0.0
O374 O 0.07845 0.98507 0.05451 0.0
O375 O 0.07248 0.9662 0.02923 0.0
O376 O 0.10338 0.99743 0.09324 0.0
O377 O 0.10687 0.97626 0.10293 0.0
O378 O 0.78428 0.35197 0.72635 0.0
Cd379 Cd 0.79601 0.34108 0.76055 0.0
Cd380 Cd 0.7727 0.34765 0.80565 0.0
O381 O 0.76761 0.35872 0.76044 0.0
O382 O 0.81177 0.33905 0.72816 0.0
O383 O 0.81214 0.35082 0.77881 0.0
C384 C 0.81795 0.34718 0.74904 0.0
C385 C 0.76814 0.35563 0.86455 0.0
C386 C 0.7738 0.35862 0.73027 0.0
C387 C 0.77904 0.31874 0.78832 0.0
O388 O 0.77131 0.3275 0.80081 0.0
O389 O 0.78992 0.32196 0.77332 0.0
O390 O 0.75891 0.35183 0.84282 0.0
O391 O 0.78008 0.35536 0.85237 0.0
O392 O 0.41089 0.9698 0.12254 0.0
Cd393 Cd 0.41685 0.95808 0.08018 0.0
Cd394 Cd 0.40772 0.97974 0.0431 0.0
O395 O 0.39737 0.98256 0.09156 0.0
O396 O 0.41798 0.94033 0.10373 0.0
O397 O 0.40297 0.94542 0.06231 0.0
C398 C 0.40741 0.93717 0.08627 0.0
C399 C 0.39834 0.9849 0.98615 0.0
C400 C 0.40175 0.97831 0.12193 0.0
C401 C 0.43732 0.97477 0.04793 0.0
O402 O 0.42789 0.98288 0.04396 0.0
O403 O 0.43497 0.96298 0.0579 0.0
O404 O 0.40147 0.99391 0.00937 0.0
O405 O 0.39986 0.97278 0.99604 0.0
O406 O 0.78483 0.65976 0.87097 0.0
Cd407 Cd 0.79655 0.66581 0.82868 0.0
Cd408 Cd 0.77503 0.65632 0.79143 0.0
O409 O 0.77194 0.64627 0.84021 0.0
O410 O 0.81419 0.6674 0.85258 0.0
O411 O 0.80956 0.6522 0.81124 0.0
C412 C 0.81765 0.6569 0.83524 0.0
C413 C 0.7706 0.64662 0.73452 0.0
C414 C 0.77623 0.65069 0.8705 0.0
C415 C 0.77982 0.68598 0.79495 0.0
O416 O 0.77179 0.67646 0.79095 0.0
O417 O 0.79154 0.68379 0.80578 0.0
O418 O 0.7613 0.64979 0.75677 0.0
O419 O 0.78259 0.64824 0.74549 0.0
O420 O 0.09577 0.03894 0.62856 0.0
Cd421 Cd 0.0876 0.04962 0.58681 0.0
Cd422 Cd 0.09701 0.02777 0.54836 0.0
O423 O 0.10744 0.02478 0.59628 0.0
O424 O 0.08554 0.06737 0.60966 0.0
O425 O 0.09992 0.0632 0.56575 0.0
C426 C 0.0954 0.07123 0.59017 0.0
C427 C 0.10667 0.02309 0.49157 0.0
C428 C 0.10444 0.02997 0.62681 0.0
C429 C 0.06735 0.03171 0.55568 0.0
O430 O 0.07702 0.02412 0.54913 0.0
O431 O 0.06934 0.04332 0.5677 0.0
O432 O 0.10363 0.01391 0.51434 0.0
O433 O 0.10481 0.03513 0.50173 0.0
O434 O 0.71787 0.34526 0.37949 0.0
Cd435 Cd 0.70711 0.33738 0.33747 0.0
Cd436 Cd 0.72915 0.34621 0.29971 0.0
O437 O 0.73207 0.3569 0.34726 0.0
O438 O 0.68925 0.33582 0.35993 0.0
O439 O 0.69399 0.35008 0.31612 0.0
C440 C 0.68578 0.34582 0.34043 0.0
C441 C 0.73388 0.35542 0.2424 0.0
C442 C 0.72686 0.35393 0.37779 0.0
C443 C 0.7246 0.31668 0.30753 0.0
O444 O 0.73249 0.32617 0.30149 0.0
O445 O 0.71293 0.31896 0.31859 0.0
O446 O 0.74305 0.35252 0.26534 0.0
O447 O 0.72183 0.35369 0.25269 0.0
H448 H 0.95999 0.54236 0.02416 0.0
H449 H 0.98239 0.53336 0.02579 0.0
H450 H 0.96733 0.4967 0.06807 0.0
H451 H 0.945 0.50548 0.06617 0.0
H452 H 0.99741 0.52291 0.08359 0.0
H453 H 0.98786 0.48498 0.9776 0.0
H454 H 0.9768 0.49856 0.98575 0.0
H455 H 0.97663 0.48445 0.01547 0.0
C456 C 0.96146 0.53241 0.03403 0.0
C457 C 0.95066 0.52462 0.0447 0.0
C458 C 0.97426 0.52728 0.03487 0.0
C459 C 0.9765 0.51425 0.04625 0.0
C460 C 0.96581 0.50665 0.05828 0.0
H461 H 0.04595 0.46436 0.0683 0.0
H462 H 0.02349 0.47324 0.06712 0.0
C463 C 0.95304 0.51175 0.05739 0.0
C464 C 0.98997 0.50856 0.04553 0.0
H465 H 0.00829 0.48359 0.0089 0.0
C466 C 0.99981 0.51436 0.06712 0.0
C467 C 0.99308 0.49736 0.0241 0.0
C468 C 0.98308 0.49103 0.99914 0.0
C469 C 0.01262 0.50914 0.06838 0.0
C470 C 0.01573 0.49795 0.04694 0.0
C471 C 0.00588 0.49214 0.02538 0.0
C472 C 0.02922 0.49231 0.04604 0.0
C473 C 0.02263 0.51549 0.09325 0.0
C474 C 0.03982 0.49993 0.03353 0.0
C475 C 0.05262 0.4949 0.03413 0.0
C476 C 0.05512 0.48208 0.04704 0.0
C477 C 0.0444 0.47426 0.05825 0.0
C478 C 0.03156 0.47934 0.05766 0.0
H479 H 0.01787 0.52157 0.11476 0.0
H480 H 0.02891 0.50796 0.10667 0.0
H481 H 0.0291 0.52203 0.07684 0.0
H482 H 0.03822 0.50985 0.02359 0.0
H483 H 0.06059 0.50118 0.02495 0.0
H484 H 0.7907 0.79471 0.33182 0.0
H485 H 0.78189 0.77217 0.33139 0.0
H486 H 0.74797 0.78551 0.27105 0.0
H487 H 0.75668 0.80782 0.2708 0.0
H488 H 0.75799 0.76331 0.36053 0.0
H489 H 0.75968 0.75388 0.21137 0.0
H490 H 0.76853 0.76728 0.23253 0.0
H491 H 0.75124 0.76883 0.22279 0.0
C492 C 0.78145 0.7928 0.31803 0.0
C493 C 0.77445 0.80311 0.30123 0.0
C494 C 0.77641 0.77993 0.31793 0.0
C495 C 0.76435 0.77711 0.30074 0.0
C496 C 0.75741 0.78736 0.2838 0.0
H497 H 0.71265 0.70928 0.27548 0.0
H498 H 0.72205 0.73152 0.27869 0.0
C499 C 0.76241 0.80017 0.2839 0.0
C500 C 0.75862 0.76362 0.30168 0.0
H501 H 0.74673 0.73905 0.24697 0.0
C502 C 0.75564 0.75795 0.33572 0.0
C503 C 0.75549 0.75665 0.26929 0.0
C504 C 0.75901 0.76191 0.23193 0.0
C505 C 0.74932 0.74564 0.33821 0.0
C506 C 0.74604 0.73877 0.3058 0.0
C507 C 0.74912 0.74439 0.27179 0.0
C508 C 0.73986 0.7255 0.30649 0.0
C509 C 0.74594 0.74023 0.37547 0.0
C510 C 0.7467 0.71476 0.32125 0.0
C511 C 0.74139 0.70208 0.3194 0.0
C512 C 0.7291 0.69982 0.30268 0.0
C513 C 0.72209 0.71066 0.28874 0.0
C514 C 0.72747 0.72337 0.29041 0.0
H515 H 0.74605 0.74803 0.39678 0.0
H516 H 0.73608 0.73549 0.37527 0.0
H517 H 0.75331 0.73267 0.38319 0.0
H518 H 0.75635 0.71613 0.33326 0.0
H519 H 0.74708 0.69398 0.33038 0.0
H520 H 0.46362 0.54591 0.57595 0.0
H521 H 0.48612 0.53713 0.57357 0.0
H522 H 0.47169 0.50198 0.52095 0.0
H523 H 0.44939 0.51067 0.52258 0.0
H524 H 0.49518 0.51411 0.60598 0.0
H525 H 0.50251 0.5118 0.45599 0.0
H526 H 0.48942 0.52121 0.47669 0.0
H527 H 0.48771 0.50371 0.47062 0.0
C528 C 0.46528 0.53642 0.56332 0.0
C529 C 0.45467 0.52904 0.54937 0.0
C530 C 0.47813 0.53139 0.56211 0.0
C531 C 0.48062 0.51896 0.54665 0.0
C532 C 0.47008 0.5117 0.53229 0.0
H533 H 0.54736 0.46592 0.52571 0.0
H534 H 0.52534 0.47576 0.52866 0.0
C535 C 0.45729 0.51668 0.53347 0.0
C536 C 0.49405 0.51318 0.54723 0.0
H537 H 0.51772 0.49962 0.49253 0.0
C538 C 0.50017 0.51106 0.58116 0.0
C539 C 0.50052 0.50913 0.51483 0.0
C540 C 0.49477 0.51169 0.47745 0.0
C541 C 0.51244 0.50472 0.58362 0.0
C542 C 0.51881 0.50052 0.55126 0.0
C543 C 0.51275 0.50273 0.51733 0.0
C544 C 0.53199 0.4942 0.55185 0.0
C545 C 0.51834 0.50227 0.62088 0.0
C546 C 0.543 0.50128 0.56405 0.0
C547 C 0.55555 0.49571 0.56236 0.0
C548 C 0.5574 0.48293 0.54833 0.0
C549 C 0.5463 0.47574 0.53684 0.0
C550 C 0.53372 0.48137 0.53838 0.0
H551 H 0.51085 0.50305 0.64293 0.0
H552 H 0.52296 0.49238 0.62222 0.0
H553 H 0.52609 0.50973 0.62621 0.0
H554 H 0.54193 0.51127 0.574 0.0
H555 H 0.56386 0.50156 0.5714 0.0
H556 H 0.74835 0.19538 0.75909 0.0
H557 H 0.75758 0.21758 0.75766 0.0
H558 H 0.72304 0.23249 0.81214 0.0
H559 H 0.7137 0.21022 0.81393 0.0
H560 H 0.74762 0.24159 0.72785 0.0
H561 H 0.75407 0.24404 0.87862 0.0
H562 H 0.75098 0.22878 0.85477 0.0
H563 H 0.73773 0.24005 0.86336 0.0
C564 C 0.74263 0.20338 0.77057 0.0
C565 C 0.7303 0.20097 0.7869 0.0
C566 C 0.74795 0.21607 0.76968 0.0
C567 C 0.74111 0.22665 0.78534 0.0
C568 C 0.72859 0.22442 0.80045 0.0
H569 H 0.75705 0.30888 0.8213 0.0
H570 H 0.74868 0.28644 0.81975 0.0
C571 C 0.72321 0.2117 0.8012 0.0
C572 C 0.74728 0.23992 0.7865 0.0
H573 H 0.75898 0.26335 0.84517 0.0
C574 C 0.75015 0.24636 0.75346 0.0
C575 C 0.75065 0.24606 0.81996 0.0
C576 C 0.74832 0.23937 0.85625 0.0
C577 C 0.75595 0.25894 0.75299 0.0
C578 C 0.75925 0.26513 0.78649 0.0
C579 C 0.75649 0.2586 0.8195 0.0
C580 C 0.76487 0.27865 0.78805 0.0
C581 C 0.75811 0.26567 0.71669 0.0
C582 C 0.77697 0.28176 0.77142 0.0
C583 C 0.78183 0.2947 0.77216 0.0
C584 C 0.77471 0.30475 0.78974 0.0
C585 C 0.76281 0.30146 0.80733 0.0
C586 C 0.75798 0.28859 0.80652 0.0
H587 H 0.75224 0.26103 0.6945 0.0
H588 H 0.75547 0.27626 0.71829 0.0
H589 H 0.76866 0.26496 0.70914 0.0
H590 H 0.78261 0.27419 0.7577 0.0
H591 H 0.79104 0.29685 0.75846 0.0
H592 H 0.04482 0.54289 0.528 0.0
H593 H 0.0225 0.53366 0.52995 0.0
H594 H 0.03809 0.49679 0.56903 0.0
H595 H 0.06029 0.5059 0.56759 0.0
H596 H 0.01348 0.51151 0.49094 0.0
H597 H 0.00795 0.50388 0.64042 0.0
H598 H 0.02052 0.51439 0.62117 0.0
H599 H 0.02265 0.49682 0.62151 0.0
C600 C 0.04348 0.53288 0.53753 0.0
C601 C 0.05438 0.52516 0.54772 0.0
C602 C 0.03072 0.52761 0.5385 0.0
C603 C 0.02861 0.51458 0.55003 0.0
C604 C 0.03944 0.50693 0.56071 0.0
H605 H 0.95992 0.46304 0.56597 0.0
H606 H 0.98237 0.47197 0.56429 0.0
C607 C 0.05216 0.51217 0.55967 0.0
C608 C 0.0152 0.5087 0.5491 0.0
H609 H 0.99181 0.49391 0.60233 0.0
C610 C 0.0087 0.50774 0.51532 0.0
C611 C 0.00903 0.50367 0.58088 0.0
C612 C 0.01533 0.50482 0.61812 0.0
C613 C 0.99627 0.50173 0.51237 0.0
C614 C 0.99007 0.49674 0.54418 0.0
C615 C 0.9966 0.49767 0.57794 0.0
C616 C 0.97659 0.49103 0.54328 0.0
C617 C 0.99002 0.50053 0.47508 0.0
C618 C 0.9659 0.49876 0.53205 0.0
C619 C 0.95311 0.49369 0.53288 0.0
C620 C 0.95067 0.48078 0.54525 0.0
C621 C 0.96143 0.47298 0.55611 0.0
C622 C 0.97426 0.47809 0.55529 0.0
H623 H 0.99746 0.50123 0.45289 0.0
H624 H 0.98464 0.49106 0.47223 0.0
H625 H 0.98288 0.50868 0.4713 0.0
H626 H 0.9674 0.50885 0.5234 0.0
H627 H 0.9451 0.50003 0.52446 0.0
H628 H 0.75645 0.69361 0.76489 0.0
H629 H 0.74741 0.71579 0.76079 0.0
H630 H 0.78291 0.73158 0.80825 0.0
H631 H 0.79208 0.70929 0.81279 0.0
H632 H 0.75933 0.74027 0.84214 0.0
H633 H 0.75672 0.74615 0.69141 0.0
H634 H 0.74933 0.73128 0.70831 0.0
H635 H 0.76677 0.73374 0.7131 0.0
C636 C 0.76245 0.70179 0.77408 0.0
C637 C 0.77502 0.69964 0.78917 0.0
C638 C 0.75726 0.71449 0.77151 0.0
C639 C 0.76453 0.72537 0.78384 0.0
C640 C 0.77717 0.72333 0.79839 0.0
H641 H 0.74866 0.80856 0.80839 0.0
H642 H 0.75753 0.78633 0.81038 0.0
C643 C 0.78241 0.71059 0.80084 0.0
C644 C 0.75857 0.73872 0.78347 0.0
H645 H 0.74549 0.76215 0.72708 0.0
C646 C 0.75638 0.7451 0.81698 0.0
C647 C 0.75459 0.74494 0.75064 0.0
C648 C 0.75706 0.73875 0.71377 0.0
C649 C 0.75018 0.75745 0.8186 0.0
C650 C 0.74628 0.76372 0.78576 0.0
C651 C 0.74842 0.75732 0.75225 0.0
C652 C 0.74052 0.77718 0.78549 0.0
C653 C 0.74763 0.76355 0.85557 0.0
C654 C 0.72803 0.77952 0.77023 0.0
C655 C 0.7229 0.79233 0.76884 0.0
C656 C 0.73022 0.80305 0.7824 0.0
C657 C 0.74268 0.80059 0.79782 0.0
C658 C 0.74778 0.78783 0.7992 0.0
H659 H 0.74755 0.75602 0.87761 0.0
H660 H 0.75558 0.7707 0.86183 0.0
H661 H 0.73809 0.76887 0.85595 0.0
H662 H 0.72229 0.77144 0.75927 0.0
H663 H 0.71331 0.79386 0.7566 0.0
H664 H 0.56196 0.50501 0.01278 0.0
H665 H 0.53989 0.49563 0.00878 0.0
H666 H 0.52408 0.52966 0.06384 0.0
H667 H 0.54616 0.53928 0.0673 0.0
H668 H 0.52387 0.48861 0.06441 0.0
H669 H 0.49896 0.52608 0.97875 0.0
H670 H 0.51663 0.52546 0.98374 0.0
H671 H 0.50663 0.53291 0.01868 0.0
C672 C 0.55378 0.51061 0.02365 0.0
C673 C 0.55586 0.52294 0.04031 0.0
C674 C 0.54115 0.5052 0.02139 0.0
C675 C 0.53027 0.51196 0.03567 0.0
C676 C 0.53226 0.52436 0.05189 0.0
H677 H 0.44835 0.49518 0.07249 0.0
H678 H 0.47083 0.50348 0.07174 0.0
C679 C 0.54491 0.52984 0.05397 0.0
C680 C 0.51701 0.5057 0.03518 0.0
H681 H 0.48515 0.5103 0.00805 0.0
C682 C 0.51543 0.49331 0.05181 0.0
C683 C 0.50598 0.51179 0.01865 0.0
C684 C 0.50713 0.52473 0.99863 0.0
C685 C 0.50308 0.48703 0.05325 0.0
C686 C 0.49204 0.49325 0.03732 0.0
C687 C 0.49363 0.50555 0.02032 0.0
C688 C 0.4786 0.48748 0.0393 0.0
C689 C 0.50187 0.474 0.07275 0.0
C690 C 0.47547 0.47558 0.02163 0.0
C691 C 0.46252 0.47074 0.02201 0.0
C692 C 0.45247 0.47776 0.03992 0.0
C693 C 0.45578 0.4895 0.0583 0.0
C694 C 0.46865 0.4943 0.05787 0.0
H695 H 0.51065 0.47182 0.08979 0.0
H696 H 0.493 0.47386 0.0905 0.0
H697 H 0.5008 0.46602 0.05222 0.0
H698 H 0.48297 0.47023 0.00673 0.0
H699 H 0.46032 0.46173 0.00739 0.0
H700 H 0.74832 0.30882 0.28013 0.0
H701 H 0.75728 0.2866 0.27722 0.0
H702 H 0.72139 0.27116 0.32339 0.0
H703 H 0.7122 0.29347 0.32608 0.0
H704 H 0.76163 0.26973 0.33564 0.0
H705 H 0.72745 0.24724 0.23482 0.0
H706 H 0.72871 0.26482 0.24127 0.0
H707 H 0.71956 0.25495 0.2732 0.0
C708 C 0.74222 0.30072 0.28937 0.0
C709 C 0.7295 0.30297 0.30334 0.0
C710 C 0.7474 0.288 0.28773 0.0
C711 C 0.73999 0.2772 0.29982 0.0
C712 C 0.72721 0.27933 0.31332 0.0
H713 H 0.75622 0.19362 0.31632 0.0
H714 H 0.74705 0.21574 0.32057 0.0
C715 C 0.72198 0.2921 0.31494 0.0
C716 C 0.74594 0.26382 0.29958 0.0
H717 H 0.74258 0.23293 0.26388 0.0
C718 C 0.75749 0.26168 0.31988 0.0
C719 C 0.74052 0.25334 0.27902 0.0
C720 C 0.72845 0.25517 0.25556 0.0
C721 C 0.76366 0.2493 0.3206 0.0
C722 C 0.75827 0.23883 0.29995 0.0
C723 C 0.74671 0.24096 0.27971 0.0
C724 C 0.76435 0.22551 0.2992 0.0
C725 C 0.77573 0.24749 0.34412 0.0
C726 C 0.7772 0.2236 0.28599 0.0
C727 C 0.78255 0.2109 0.28368 0.0
C728 C 0.77508 0.19986 0.2942 0.0
C729 C 0.76228 0.20187 0.30791 0.0
C730 C 0.75698 0.21453 0.31031 0.0
H731 H 0.77654 0.25527 0.36535 0.0
H732 H 0.77562 0.23773 0.35783 0.0
H733 H 0.78464 0.24803 0.32664 0.0
H734 H 0.78299 0.23189 0.27661 0.0
H735 H 0.79238 0.20971 0.27271 0.0
H736 H 0.29106 0.29657 0.82237 0.0
H737 H 0.28241 0.274 0.81991 0.0
H738 H 0.24753 0.28805 0.76534 0.0
H739 H 0.25607 0.31044 0.76721 0.0
H740 H 0.25877 0.26482 0.85097 0.0
H741 H 0.2586 0.25726 0.70079 0.0
H742 H 0.26779 0.27034 0.72243 0.0
H743 H 0.25037 0.27203 0.71495 0.0
C744 C 0.28164 0.29482 0.80939 0.0
C745 C 0.2743 0.30535 0.79492 0.0
C746 C 0.27669 0.28193 0.80812 0.0
C747 C 0.26439 0.27931 0.79201 0.0
C748 C 0.25715 0.28977 0.77723 0.0
H749 H 0.21406 0.2102 0.76526 0.0
H750 H 0.22289 0.2327 0.76786 0.0
C751 C 0.26204 0.30261 0.77855 0.0
C752 C 0.25875 0.26579 0.79216 0.0
H753 H 0.24667 0.24164 0.73633 0.0
C754 C 0.25622 0.2597 0.82591 0.0
C755 C 0.25532 0.25917 0.75944 0.0
C756 C 0.25826 0.26497 0.72233 0.0
C757 C 0.25014 0.24728 0.82786 0.0
C758 C 0.24668 0.24067 0.79514 0.0
C759 C 0.24923 0.24675 0.76139 0.0
C760 C 0.24094 0.2272 0.79527 0.0
C761 C 0.24722 0.24146 0.86496 0.0
C762 C 0.24815 0.21665 0.80976 0.0
C763 C 0.24316 0.20385 0.80833 0.0
C764 C 0.23083 0.20124 0.79219 0.0
C765 C 0.22353 0.21185 0.77806 0.0
C766 C 0.22858 0.2247 0.77941 0.0
H767 H 0.247 0.24914 0.8866 0.0
H768 H 0.23763 0.23619 0.86493 0.0
H769 H 0.25504 0.23429 0.87211 0.0
H770 H 0.25781 0.21828 0.82148 0.0
H771 H 0.2491 0.19595 0.81942 0.0
H772 H 0.28955 0.79583 0.27362 0.0
H773 H 0.27981 0.77375 0.27705 0.0
H774 H 0.24694 0.78937 0.33769 0.0
H775 H 0.2564 0.81141 0.33372 0.0
H776 H 0.27262 0.75778 0.33437 0.0
H777 H 0.22843 0.7713 0.25353 0.0
H778 H 0.24265 0.78188 0.25688 0.0
H779 H 0.2308 0.78131 0.29343 0.0
C780 C 0.2803 0.79454 0.28794 0.0
C781 C 0.2737 0.80543 0.30303 0.0
C782 C 0.27472 0.78192 0.2898 0.0
C783 C 0.26246 0.77995 0.3068 0.0
C784 C 0.2562 0.79069 0.32345 0.0
H785 H 0.21419 0.70887 0.33803 0.0
H786 H 0.22275 0.73151 0.34048 0.0
C787 C 0.26169 0.80329 0.32138 0.0
C788 C 0.25616 0.76671 0.30685 0.0
H789 H 0.2285 0.75 0.28013 0.0
C790 C 0.26299 0.75609 0.32246 0.0
C791 C 0.24355 0.76448 0.29135 0.0
C792 C 0.23597 0.77531 0.27254 0.0
C793 C 0.25755 0.74337 0.32317 0.0
C794 C 0.245 0.74115 0.30751 0.0
C795 C 0.23808 0.75176 0.29232 0.0
C796 C 0.2393 0.72771 0.30476 0.0
C797 C 0.26525 0.73238 0.34085 0.0
C798 C 0.24551 0.71823 0.28299 0.0
C799 C 0.24064 0.70539 0.28135 0.0
C800 C 0.22939 0.70169 0.30145 0.0
C801 C 0.22287 0.71135 0.32224 0.0
C802 C 0.22777 0.72428 0.32376 0.0
H803 H 0.27301 0.73621 0.35942 0.0
H804 H 0.25864 0.72577 0.35664 0.0
H805 H 0.2701 0.72644 0.31926 0.0
H806 H 0.25426 0.72073 0.26751 0.0
H807 H 0.2459 0.69829 0.26476 0.0
H808 H 0.29193 0.21079 0.32432 0.0
H809 H 0.28237 0.23298 0.32265 0.0
H810 H 0.2486 0.21791 0.26473 0.0
H811 H 0.25793 0.19583 0.26651 0.0
H812 H 0.27407 0.24891 0.26316 0.0
H813 H 0.23209 0.23614 0.3536 0.0
H814 H 0.24639 0.22574 0.34897 0.0
H815 H 0.23377 0.22558 0.3145 0.0
C816 C 0.28252 0.21222 0.31098 0.0
C817 C 0.27566 0.20147 0.29588 0.0
C818 C 0.27705 0.2249 0.31013 0.0
C819 C 0.26462 0.22704 0.29432 0.0
C820 C 0.25804 0.21644 0.27791 0.0
H821 H 0.21319 0.29494 0.26345 0.0
H822 H 0.22286 0.2728 0.26537 0.0
C823 C 0.26345 0.20381 0.27878 0.0
C824 C 0.25845 0.24031 0.29494 0.0
H825 H 0.23125 0.25703 0.32453 0.0
C826 C 0.26476 0.25072 0.27677 0.0
C827 C 0.24625 0.24263 0.31257 0.0
C828 C 0.23926 0.23197 0.33381 0.0
C829 C 0.25907 0.26332 0.27512 0.0
C830 C 0.24687 0.26564 0.29274 0.0
C831 C 0.24057 0.25523 0.31094 0.0
C832 C 0.24065 0.27889 0.2932 0.0
C833 C 0.26606 0.27397 0.25381 0.0
C834 C 0.24724 0.28957 0.30923 0.0
C835 C 0.24176 0.30217 0.3082 0.0
C836 C 0.2295 0.30441 0.29133 0.0
C837 C 0.22264 0.29359 0.27661 0.0
C838 C 0.22817 0.28094 0.2776 0.0
H839 H 0.27321 0.26979 0.23398 0.0
H840 H 0.25892 0.28021 0.23868 0.0
H841 H 0.27158 0.28036 0.27307 0.0
H842 H 0.25671 0.28818 0.32227 0.0
H843 H 0.24728 0.31022 0.32018 0.0
H844 H 0.29465 0.71514 0.75907 0.0
H845 H 0.28555 0.7375 0.76259 0.0
H846 H 0.25 0.72207 0.81079 0.0
H847 H 0.25899 0.6999 0.80794 0.0
H848 H 0.26256 0.74662 0.72902 0.0
H849 H 0.25903 0.75225 0.87947 0.0
H850 H 0.26884 0.73957 0.85819 0.0
H851 H 0.25133 0.73752 0.86284 0.0
C852 C 0.28498 0.71654 0.77094 0.0
C853 C 0.27758 0.7057 0.78329 0.0
C854 C 0.27978 0.72931 0.7728 0.0
C855 C 0.26716 0.73148 0.78738 0.0
C856 C 0.25986 0.7207 0.80014 0.0
H857 H 0.21412 0.79827 0.81179 0.0
H858 H 0.22379 0.77618 0.80764 0.0
C859 C 0.26501 0.70798 0.79826 0.0
C860 C 0.26125 0.74486 0.78759 0.0
H861 H 0.24727 0.7679 0.84352 0.0
C862 C 0.25932 0.75133 0.75407 0.0
C863 C 0.25694 0.75096 0.82028 0.0
C864 C 0.25924 0.74478 0.85727 0.0
C865 C 0.25296 0.7636 0.75229 0.0
C866 C 0.24856 0.76964 0.78495 0.0
C867 C 0.25054 0.7632 0.81848 0.0
C868 C 0.24233 0.78286 0.78514 0.0
C869 C 0.25073 0.76986 0.71539 0.0
C870 C 0.24952 0.79392 0.77376 0.0
C871 C 0.24405 0.8065 0.77611 0.0
C872 C 0.23126 0.80834 0.79003 0.0
C873 C 0.22395 0.79721 0.80075 0.0
C874 C 0.22948 0.78459 0.79854 0.0
H875 H 0.25147 0.76256 0.69287 0.0
H876 H 0.24091 0.77465 0.71408 0.0
H877 H 0.25833 0.77754 0.71076 0.0
H878 H 0.25953 0.79285 0.76393 0.0
H879 H 0.24999 0.81483 0.76766 0.0
H880 H 0.44567 0.00685 0.57234 0.0
H881 H 0.46798 0.99803 0.57354 0.0
H882 H 0.4828 0.03429 0.52804 0.0
H883 H 0.46043 0.04332 0.5271 0.0
H884 H 0.4841 0.99412 0.51351 0.0
H885 H 0.50791 0.0277 0.61348 0.0
H886 H 0.49026 0.02649 0.60871 0.0
H887 H 0.49972 0.03587 0.57634 0.0
C888 C 0.45367 0.01306 0.563 0.0
C889 C 0.45123 0.02583 0.54962 0.0
C890 C 0.46644 0.00796 0.56364 0.0
C891 C 0.47709 0.01551 0.55112 0.0
C892 C 0.47477 0.02836 0.53844 0.0
H893 H 0.56037 0.9998 0.52297 0.0
H894 H 0.53816 0.00891 0.52217 0.0
C895 C 0.46196 0.0335 0.53783 0.0
C896 C 0.49047 0.0096 0.54968 0.0
H897 H 0.52189 0.01296 0.58162 0.0
C898 C 0.49236 0.99821 0.52851 0.0
C899 C 0.50124 0.01495 0.5692 0.0
C900 C 0.49971 0.02686 0.59349 0.0
C901 C 0.50475 0.99214 0.5259 0.0
C902 C 0.51551 0.99747 0.54549 0.0
C903 C 0.51363 0.00888 0.56661 0.0
C904 C 0.52886 0.99148 0.54425 0.0
C905 C 0.50627 0.98025 0.50153 0.0
C906 C 0.53104 0.97857 0.55673 0.0
C907 C 0.54378 0.97327 0.55709 0.0
C908 C 0.5546 0.98082 0.54526 0.0
C909 C 0.5523 0.99368 0.5323 0.0
C910 C 0.5396 0.99894 0.53189 0.0
H911 H 0.49813 0.9795 0.48133 0.0
H912 H 0.51577 0.98055 0.48655 0.0
H913 H 0.50612 0.97121 0.5186 0.0
H914 H 0.52295 0.97271 0.56703 0.0
H915 H 0.54519 0.96339 0.56752 0.0
H916 H 0.96024 0.04113 0.07819 0.0
H917 H 0.98276 0.03236 0.07618 0.0
H918 H 0.96927 0.9995 0.01165 0.0
H919 H 0.94692 0.00814 0.01322 0.0
H920 H 0.99074 0.00727 0.10277 0.0
H921 H 1.0016 0.01235 0.95472 0.0
H922 H 0.98837 0.02116 0.9768 0.0
H923 H 0.98633 0.00415 0.96451 0.0
C924 C 0.96211 0.03215 0.06307 0.0
C925 C 0.95175 0.02536 0.04586 0.0
C926 C 0.97497 0.02713 0.06207 0.0
C927 C 0.97772 0.01534 0.04344 0.0
C928 C 0.96744 0.00872 0.02565 0.0
H929 H 0.04735 0.96589 0.0135 0.0
H930 H 0.02476 0.97447 0.015 0.0
C931 C 0.95463 0.01367 0.02677 0.0
C932 C 0.99113 0.00949 0.04423 0.0
H933 H 0.01639 0.99923 0.98948 0.0
C934 C 0.9964 0.0056 0.07804 0.0
C935 C 0.99843 0.00717 0.0119 0.0
C936 C 0.99347 0.01152 0.97493 0.0
C937 C 0.00868 0.9993 0.08035 0.0
C938 C 0.01602 0.99703 0.04803 0.0
C939 C 0.01073 1.00089 0.01421 0.0
C940 C 0.02948 0.99129 0.0489 0.0
C941 C 0.01359 0.99489 0.11733 0.0
C942 C 0.03961 0.99787 0.06747 0.0
C943 C 0.05246 0.993 0.06671 0.0
C944 C 0.05554 0.98146 0.04714 0.0
C945 C 0.04533 0.97474 0.02901 0.0
C946 C 0.03242 0.97967 0.02971 0.0
H947 H 0.00539 0.99381 0.13723 0.0
H948 H 0.0189 0.98537 0.11536 0.0
H949 H 0.0205 1.00239 0.12827 0.0
H950 H 0.03765 0.00698 0.08186 0.0
H951 H 0.06004 0.99848 0.08095 0.0
H952 H 0.56041 0.00525 0.06185 0.0
H953 H 0.53815 0.99626 0.06286 0.0
H954 H 0.52301 0.03286 0.02055 0.0
H955 H 0.54539 0.04194 0.01888 0.0
H956 H 0.51563 0.00444 0.09864 0.0
H957 H 0.50857 0.00577 0.94806 0.0
H958 H 0.52447 0.00802 0.9692 0.0
H959 H 0.51282 0.02133 0.96826 0.0
C960 C 0.55237 0.01146 0.05284 0.0
C961 C 0.55474 0.02432 0.04 0.0
C962 C 0.53963 0.00627 0.05347 0.0
C963 C 0.52893 0.01378 0.04115 0.0
C964 C 0.53116 0.02678 0.02944 0.0
H965 H 0.44534 0.99874 0.02239 0.0
H966 H 0.46763 0.00764 0.0205 0.0
C967 C 0.54395 0.032 0.02879 0.0
C968 C 0.51552 0.00788 0.04056 0.0
H969 H 0.49019 0.99934 0.98369 0.0
C970 C 0.51008 0.00329 0.0735 0.0
C971 C 0.5083 0.00633 0.0077 0.0
C972 C 0.51385 0.0105 0.97121 0.0
C973 C 0.49754 0.99743 0.07462 0.0
C974 C 0.49032 0.99588 0.04177 0.0
C975 C 0.49575 1.00048 0.00882 0.0
C976 C 0.47691 0.99 0.04126 0.0
C977 C 0.49199 0.99323 0.11109 0.0
C978 C 0.47471 0.97696 0.05264 0.0
C979 C 0.4619 0.97179 0.05375 0.0
C980 C 0.45107 0.97957 0.0434 0.0
C981 C 0.45341 0.99246 0.03077 0.0
C982 C 0.46617 0.99759 0.02963 0.0
H983 H 0.49733 0.99786 0.13428 0.0
H984 H 0.4814 0.99581 0.1132 0.0
H985 H 0.49291 0.98239 0.11386 0.0
H986 H 0.48288 0.97083 0.06103 0.0
H987 H 0.46048 0.96182 0.06351 0.0
H988 H 0.04383 0.04316 0.57567 0.0
H989 H 0.02177 0.03338 0.57205 0.0
H990 H 0.03813 0.99857 0.52232 0.0
H991 H 0.06007 0.00825 0.52535 0.0
H992 H 0.01508 0.00719 0.48832 0.0
H993 H 0.00875 0.00354 0.63891 0.0
H994 H 0.01252 0.01975 0.62224 0.0
H995 H 0.02449 0.00683 0.61787 0.0
C996 C 0.04272 0.03347 0.5637 0.0
C997 C 0.05377 0.02648 0.55106 0.0
C998 C 0.03012 0.02785 0.56191 0.0
C999 C 0.02834 0.01513 0.54752 0.0
C1000 C 0.03927 0.00835 0.53375 0.0
H1001 H 0.96104 0.96209 0.5146 0.0
H1002 H 0.98326 0.97158 0.51741 0.0
C1003 C 0.05183 0.01392 0.53557 0.0
C1004 C 0.01515 0.00875 0.54703 0.0
H1005 H 0.9905 0.99747 0.60241 0.0
C1006 C 0.00971 0.00504 0.51325 0.0
C1007 C 0.00819 0.00588 0.5796 0.0
C1008 C 0.0138 0.00909 0.61677 0.0
C1009 C 0.99737 0.9988 0.51111 0.0
C1010 C 0.99039 0.99594 0.54369 0.0
C1011 C 0.99587 0.99962 0.57746 0.0
C1012 C 0.97712 0.98973 0.54329 0.0
C1013 C 0.99175 0.99565 0.47391 0.0
C1014 C 0.96637 0.99655 0.55809 0.0
C1015 C 0.95374 0.99112 0.55683 0.0
C1016 C 0.95152 0.9787 0.54082 0.0
C1017 C 0.96237 0.97168 0.52698 0.0
C1018 C 0.97506 0.97715 0.52829 0.0
H1019 H 0.99678 1.00124 0.45184 0.0
H1020 H 0.99305 0.98499 0.46827 0.0
H1021 H 0.98106 0.99788 0.47287 0.0
H1022 H 0.96771 0.00622 0.57 0.0
H1023 H 0.94567 0.99682 0.56795 0.0
H1024 H 0.11018 0.51104 0.95425 0.0
H1025 H 0.1132 0.51613 0.88952 0.0
H1026 H 0.11608 0.4747 0.86516 0.0
H1027 H 0.1128 0.46948 0.92999 0.0
H1028 H 0.13261 0.51065 0.83796 0.0
H1029 H 0.08529 0.48652 0.80147 0.0
H1030 H 0.0899 0.48991 0.84817 0.0
H1031 H 0.09682 0.47602 0.82455 0.0
C1032 C 0.1116 0.50299 0.93525 0.0
C1033 C 0.11111 0.48983 0.94731 0.0
C1034 C 0.11334 0.50593 0.89819 0.0
C1035 C 0.1146 0.4958 0.87235 0.0
C1036 C 0.11484 0.48268 0.88451 0.0
H1037 H 0.11247 0.49673 0.63458 0.0
H1038 H 0.11602 0.49066 0.69844 0.0
C1039 C 0.11306 0.47971 0.92163 0.0
C1040 C 0.11497 0.49903 0.83266 0.0
H1041 H 0.09792 0.49505 0.75289 0.0
C1042 C 0.12505 0.50721 0.8193 0.0
C1043 C 0.10505 0.49462 0.80836 0.0
C1044 C 0.09358 0.48638 0.8213 0.0
C1045 C 0.12555 0.51098 0.78227 0.0
C1046 C 0.11559 0.50661 0.75808 0.0
C1047 C 0.10558 0.49835 0.7714 0.0
C1048 C 0.1151 0.51061 0.71894 0.0
C1049 C 0.1368 0.51948 0.76928 0.0
C1050 C 0.1136 0.5239 0.70903 0.0
C1051 C 0.1116 0.52743 0.67237 0.0
C1052 C 0.11095 0.51771 0.64499 0.0
C1053 C 0.11291 0.50447 0.65491 0.0
C1054 C 0.11493 0.50097 0.69146 0.0
H1055 H 0.14534 0.51898 0.78822 0.0
H1056 H 0.14008 0.51649 0.74153 0.0
H1057 H 0.13349 0.52987 0.76794 0.0
H1058 H 0.11343 0.5315 0.72979 0.0
H1059 H 0.11002 0.5377 0.66572 0.0
H1060 H 0.7167 0.85844 0.90601 0.0
H1061 H 0.72188 0.86176 0.97086 0.0
H1062 H 0.76331 0.86246 0.94524 0.0
H1063 H 0.75825 0.8593 0.88061 0.0
H1064 H 0.73666 0.8442 0.01185 0.0
H1065 H 0.75987 0.8936 0.01504 0.0
H1066 H 0.75003 0.88796 0.97698 0.0
H1067 H 0.76687 0.88276 0.98148 0.0
C1068 C 0.7269 0.85959 0.91409 0.0
C1069 C 0.73706 0.85859 0.88812 0.0
C1070 C 0.72984 0.86146 0.95117 0.0
C1071 C 0.74298 0.86251 0.96289 0.0
C1072 C 0.7531 0.86196 0.93682 0.0
H1073 H 0.78454 0.85777 0.16966 0.0
H1074 H 0.77815 0.86079 0.10547 0.0
C1075 C 0.75017 0.86006 0.89984 0.0
C1076 C 0.74619 0.86283 0.00253 0.0
H1077 H 0.7629 0.88012 0.06803 0.0
C1078 C 0.74225 0.85214 0.02423 0.0
C1079 C 0.75363 0.87312 0.01855 0.0
C1080 C 0.75776 0.88507 0.99691 0.0
C1081 C 0.7458 0.85127 0.06125 0.0
C1082 C 0.75329 0.86152 0.07729 0.0
C1083 C 0.75716 0.87228 0.05569 0.0
C1084 C 0.75722 0.8611 0.11641 0.0
C1085 C 0.74187 0.83916 0.08256 0.0
C1086 C 0.74761 0.86074 0.14393 0.0
C1087 C 0.75121 0.85897 0.18047 0.0
C1088 C 0.76453 0.85765 0.19035 0.0
C1089 C 0.7742 0.85873 0.16297 0.0
C1090 C 0.77057 0.86045 0.12629 0.0
H1091 H 0.73917 0.83085 0.06423 0.0
H1092 H 0.74996 0.8359 0.10087 0.0
H1093 H 0.73317 0.84148 0.09974 0.0
H1094 H 0.73727 0.86151 0.13702 0.0
H1095 H 0.74351 0.85831 0.20089 0.0
H1096 H 0.41424 0.50517 0.15056 0.0
H1097 H 0.41067 0.51061 0.21461 0.0
H1098 H 0.37757 0.4839 0.21789 0.0
H1099 H 0.38194 0.4776 0.15418 0.0
H1100 H 0.39304 0.52167 0.25047 0.0
H1101 H 0.3956 0.47075 0.30475 0.0
H1102 H 0.39917 0.4745 0.25769 0.0
H1103 H 0.38236 0.47302 0.27303 0.0
C1104 C 0.40621 0.50043 0.16498 0.0
C1105 C 0.39842 0.4909 0.14755 0.0
C1106 C 0.40414 0.50357 0.20167 0.0
C1107 C 0.39399 0.49751 0.2217 0.0
C1108 C 0.38578 0.48838 0.20372 0.0
H1109 H 0.38399 0.53279 0.44242 0.0
H1110 H 0.37922 0.52671 0.37876 0.0
C1111 C 0.38817 0.48488 0.16718 0.0
C1112 C 0.3923 0.50083 0.26125 0.0
H1113 H 0.39082 0.48752 0.34698 0.0
C1114 C 0.3926 0.51418 0.27156 0.0
C1115 C 0.39172 0.4911 0.28901 0.0
C1116 C 0.39232 0.47655 0.28065 0.0
C1117 C 0.39308 0.51804 0.30845 0.0
C1118 C 0.39239 0.50832 0.33621 0.0
C1119 C 0.39135 0.49501 0.32588 0.0
C1120 C 0.39413 0.51148 0.37585 0.0
C1121 C 0.39517 0.53245 0.31689 0.0
C1122 C 0.40348 0.50445 0.39638 0.0
C1123 C 0.40574 0.50751 0.43304 0.0
C1124 C 0.39896 0.51789 0.44994 0.0
C1125 C 0.38945 0.52483 0.42985 0.0
C1126 C 0.38684 0.52145 0.39334 0.0
H1127 H 0.39921 0.53787 0.29298 0.0
H1128 H 0.38559 0.53702 0.324 0.0
H1129 H 0.40205 0.53379 0.3402 0.0
H1130 H 0.40929 0.49673 0.38383 0.0
H1131 H 0.4132 0.50203 0.44778 0.0
H1132 H 0.7603 0.14298 0.70079 0.0
H1133 H 0.76677 0.13945 0.63721 0.0
H1134 H 0.72612 0.14156 0.60396 0.0
H1135 H 0.71949 0.14493 0.66782 0.0
H1136 H 0.74115 0.12166 0.56696 0.0
H1137 H 0.76603 0.17038 0.56465 0.0
H1138 H 0.77147 0.15957 0.60043 0.0
H1139 H 0.75484 0.16559 0.60061 0.0
C1140 C 0.75269 0.14252 0.68007 0.0
C1141 C 0.73937 0.14437 0.68937 0.0
C1142 C 0.75643 0.14057 0.64369 0.0
C1143 C 0.74696 0.14053 0.61576 0.0
C1144 C 0.73359 0.14164 0.62508 0.0
H1145 H 0.74727 0.14226 0.3797 0.0
H1146 H 0.74181 0.13902 0.44404 0.0
C1147 C 0.72982 0.14356 0.6616 0.0
C1148 C 0.7511 0.14004 0.57679 0.0
H1149 H 0.76842 0.15709 0.51217 0.0
C1150 C 0.74711 0.12939 0.55493 0.0
C1151 C 0.75888 0.15015 0.56113 0.0
C1152 C 0.76298 0.16214 0.58275 0.0
C1153 C 0.75083 0.12852 0.51792 0.0
C1154 C 0.75856 0.13867 0.50225 0.0
C1155 C 0.7626 0.14926 0.52423 0.0
C1156 C 0.76202 0.13897 0.46271 0.0
C1157 C 0.7466 0.11665 0.49608 0.0
C1158 C 0.77523 0.14004 0.4516 0.0
C1159 C 0.7784 0.14197 0.41468 0.0
C1160 C 0.76841 0.14299 0.38821 0.0
C1161 C 0.75523 0.14146 0.39929 0.0
C1162 C 0.75207 0.13952 0.43613 0.0
H1163 H 0.74436 0.10813 0.5141 0.0
H1164 H 0.73752 0.11908 0.48063 0.0
H1165 H 0.75431 0.1137 0.47618 0.0
H1166 H 0.78307 0.13972 0.47166 0.0
H1167 H 0.78864 0.14317 0.40713 0.0
H1168 H 0.89381 0.49625 0.13445 0.0
H1169 H 0.89063 0.49102 0.19898 0.0
H1170 H 0.89093 0.5324 0.22525 0.0
H1171 H 0.89433 0.53774 0.16055 0.0
H1172 H 0.90826 0.51807 0.26683 0.0
H1173 H 0.85948 0.49365 0.26813 0.0
H1174 H 0.8706 0.48675 0.23519 0.0
H1175 H 0.86512 0.50348 0.23006 0.0
C1176 C 0.89295 0.50428 0.1538 0.0
C1177 C 0.89433 0.51743 0.14226 0.0
C1178 C 0.89104 0.50126 0.19075 0.0
C1179 C 0.89037 0.51131 0.21701 0.0
C1180 C 0.89134 0.52448 0.20546 0.0
H1181 H 0.89341 0.51047 0.45549 0.0
H1182 H 0.89026 0.51675 0.3916 0.0
C1183 C 0.89324 0.52752 0.16843 0.0
C1184 C 0.88996 0.50802 0.25667 0.0
H1185 H 0.87284 0.49075 0.32146 0.0
C1186 C 0.90043 0.51224 0.27885 0.0
C1187 C 0.87981 0.50028 0.27231 0.0
C1188 C 0.86805 0.49587 0.25028 0.0
C1189 C 0.9012 0.50868 0.31591 0.0
C1190 C 0.8911 0.50088 0.33153 0.0
C1191 C 0.88057 0.49672 0.30947 0.0
C1192 C 0.89146 0.49688 0.37064 0.0
C1193 C 0.91307 0.51297 0.33775 0.0
C1194 C 0.89255 0.48354 0.38035 0.0
C1195 C 0.89425 0.47988 0.41703 0.0
C1196 C 0.89487 0.48951 0.44464 0.0
C1197 C 0.89309 0.5028 0.43493 0.0
C1198 C 0.89135 0.50643 0.39836 0.0
H1199 H 0.92136 0.51601 0.3198 0.0
H1200 H 0.91036 0.52153 0.35506 0.0
H1201 H 0.91652 0.50494 0.35599 0.0
H1202 H 0.89258 0.47599 0.3594 0.0
H1203 H 0.89558 0.46956 0.42355 0.0
H1204 H 0.22083 0.14572 0.91506 0.0
H1205 H 0.22754 0.14243 0.97886 0.0
H1206 H 0.26814 0.14013 0.94512 0.0
H1207 H 0.26158 0.1436 0.88159 0.0
H1208 H 0.24242 0.12266 0.01604 0.0
H1209 H 0.26774 0.17117 0.01699 0.0
H1210 H 0.25654 0.16634 0.98112 0.0
H1211 H 0.27311 0.16016 0.9816 0.0
C1212 C 0.23116 0.14433 0.92117 0.0
C1213 C 0.24068 0.14508 0.89329 0.0
C1214 C 0.23498 0.14245 0.95764 0.0
C1215 C 0.24836 0.14131 0.9668 0.0
C1216 C 0.25779 0.14127 0.93876 0.0
H1217 H 0.28927 0.14459 0.17684 0.0
H1218 H 0.28411 0.14076 0.11219 0.0
C1219 C 0.254 0.1432 0.90241 0.0
C1220 C 0.25254 0.14091 0.00571 0.0
H1221 H 0.26985 0.15812 0.06999 0.0
C1222 C 0.24843 0.13039 0.02787 0.0
C1223 C 0.26039 0.15102 0.0211 0.0
C1224 C 0.26463 0.16288 0.99914 0.0
C1225 C 0.25204 0.12967 0.06497 0.0
C1226 C 0.25979 0.13985 0.08039 0.0
C1227 C 0.26401 0.15027 0.05809 0.0
C1228 C 0.26299 0.1404 0.12003 0.0
C1229 C 0.24763 0.11796 0.08722 0.0
C1230 C 0.25286 0.14132 0.14598 0.0
C1231 C 0.25578 0.14349 0.18285 0.0
C1232 C 0.2689 0.14488 0.19457 0.0
C1233 C 0.27907 0.14351 0.16876 0.0
C1234 C 0.27613 0.14135 0.13179 0.0
H1235 H 0.2454 0.10935 0.06952 0.0
H1236 H 0.25524 0.11508 0.10749 0.0
H1237 H 0.23851 0.12056 0.10228 0.0
H1238 H 0.24265 0.14091 0.13752 0.0
H1239 H 0.24769 0.14454 0.20194 0.0
H1240 H 0.61321 0.4956 0.95216 0.0
H1241 H 0.61697 0.49053 0.88782 0.0
H1242 H 0.61738 0.53199 0.86246 0.0
H1243 H 0.61338 0.53717 0.92699 0.0
H1244 H 0.60039 0.51811 0.81931 0.0
H1245 H 0.64868 0.49288 0.82101 0.0
H1246 H 0.63716 0.48596 0.85287 0.0
H1247 H 0.64283 0.50261 0.85901 0.0
C1248 C 0.61435 0.50368 0.93308 0.0
C1249 C 0.61298 0.5168 0.94479 0.0
C1250 C 0.6166 0.50075 0.89624 0.0
C1251 C 0.61764 0.51087 0.87028 0.0
C1252 C 0.6167 0.52402 0.88203 0.0
H1253 H 0.61659 0.51022 0.63167 0.0
H1254 H 0.61975 0.51641 0.69563 0.0
C1255 C 0.61444 0.52696 0.91895 0.0
C1256 C 0.61837 0.50768 0.8306 0.0
H1257 H 0.63567 0.49014 0.76684 0.0
C1258 C 0.6082 0.51214 0.80776 0.0
C1259 C 0.6285 0.49978 0.81557 0.0
C1260 C 0.63998 0.49513 0.83831 0.0
C1261 C 0.60768 0.50864 0.77064 0.0
C1262 C 0.61773 0.50064 0.75567 0.0
C1263 C 0.62798 0.49626 0.77836 0.0
C1264 C 0.61755 0.49662 0.7166 0.0
C1265 C 0.59612 0.51321 0.748 0.0
C1266 C 0.61592 0.48333 0.70694 0.0
C1267 C 0.6142 0.47972 0.67024 0.0
C1268 C 0.61411 0.48936 0.64258 0.0
C1269 C 0.6165 0.50255 0.65226 0.0
C1270 C 0.61825 0.50613 0.68886 0.0
H1271 H 0.58779 0.51656 0.76536 0.0
H1272 H 0.59923 0.5216 0.73058 0.0
H1273 H 0.59256 0.50521 0.72981 0.0
H1274 H 0.61542 0.47582 0.72793 0.0
H1275 H 0.61238 0.46948 0.66374 0.0
H1276 H 0.25938 0.8671 0.70934 0.0
H1277 H 0.26567 0.87037 0.64552 0.0
H1278 H 0.22496 0.86737 0.61313 0.0
H1279 H 0.21854 0.86424 0.67713 0.0
H1280 H 0.26142 0.85173 0.59217 0.0
H1281 H 0.23774 0.89884 0.55299 0.0
H1282 H 0.24009 0.89401 0.60009 0.0
H1283 H 0.22676 0.88718 0.57387 0.0
C1284 C 0.25171 0.86741 0.68878 0.0
C1285 C 0.23844 0.86538 0.69838 0.0
C1286 C 0.25534 0.86927 0.65226 0.0
C1287 C 0.2458 0.86921 0.6245 0.0
C1288 C 0.23248 0.86771 0.6341 0.0
H1289 H 0.24557 0.8619 0.39006 0.0
H1290 H 0.24052 0.86571 0.45447 0.0
C1291 C 0.22883 0.86587 0.67073 0.0
C1292 C 0.24994 0.86937 0.58548 0.0
H1293 H 0.2461 0.88562 0.5043 0.0
C1294 C 0.25819 0.85923 0.57304 0.0
C1295 C 0.24566 0.8791 0.5605 0.0
C1296 C 0.23716 0.89047 0.57252 0.0
C1297 C 0.26198 0.85833 0.53619 0.0
C1298 C 0.25764 0.86801 0.51109 0.0
C1299 C 0.24949 0.87824 0.52357 0.0
C1300 C 0.26087 0.8672 0.47146 0.0
C1301 C 0.27018 0.84671 0.52423 0.0
C1302 C 0.27399 0.86723 0.45927 0.0
C1303 C 0.27693 0.86499 0.42233 0.0
C1304 C 0.26678 0.86279 0.39687 0.0
C1305 C 0.25364 0.8635 0.4089 0.0
C1306 C 0.25072 0.8657 0.44577 0.0
H1307 H 0.27001 0.83863 0.54473 0.0
H1308 H 0.26664 0.84275 0.49767 0.0
H1309 H 0.28055 0.84989 0.52074 0.0
H1310 H 0.28198 0.86865 0.47848 0.0
H1311 H 0.28715 0.86458 0.41398 0.0
H1312 H 0.60966 0.99576 0.13478 0.0
H1313 H 0.61263 0.99057 0.19948 0.0
H1314 H 0.61511 0.03198 0.22448 0.0
H1315 H 0.6119 0.0373 0.15968 0.0
H1316 H 0.63202 0.99625 0.25119 0.0
H1317 H 0.58437 0.0196 0.28782 0.0
H1318 H 0.58903 0.01632 0.2411 0.0
H1319 H 0.59577 0.03029 0.26485 0.0
C1320 C 0.61097 0.00379 0.15392 0.0
C1321 C 0.6104 0.01696 0.14205 0.0
C1322 C 0.61269 1.00079 0.19095 0.0
C1323 C 0.61383 0.01088 0.21695 0.0
C1324 C 0.61397 0.02404 0.205 0.0
H1325 H 0.6118 0.00967 0.45462 0.0
H1326 H 0.61515 0.01583 0.39074 0.0
C1327 C 0.61222 0.02706 0.1679 0.0
C1328 C 0.61422 0.00758 0.25658 0.0
H1329 H 0.59708 0.01117 0.33634 0.0
C1330 C 0.62441 0.99954 0.26986 0.0
C1331 C 0.60423 0.01179 0.28089 0.0
C1332 C 0.59266 0.01988 0.26801 0.0
C1333 C 0.62494 0.99572 0.30685 0.0
C1334 C 0.61491 0.9999 0.33107 0.0
C1335 C 0.6048 0.00802 0.31781 0.0
C1336 C 0.61449 0.99587 0.37018 0.0
C1337 C 0.63631 0.98739 0.31978 0.0
C1338 C 0.6132 0.98256 0.38007 0.0
C1339 C 0.61132 0.97898 0.41674 0.0
C1340 C 0.61058 0.98867 0.44416 0.0
C1341 C 0.61231 1.00195 0.43425 0.0
C1342 C 0.61421 0.0055 0.39769 0.0
H1343 H 0.64483 0.98803 0.30082 0.0
H1344 H 0.63956 0.99042 0.34753 0.0
H1345 H 0.63314 0.97695 0.32108 0.0
H1346 H 0.61312 0.97496 0.35928 0.0
H1347 H 0.60992 0.96868 0.42338 0.0
H1348 H 0.21742 0.36054 0.41152 0.0
H1349 H 0.22372 0.36419 0.47541 0.0
H1350 H 0.26454 0.36644 0.44352 0.0
H1351 H 0.25836 0.36262 0.37989 0.0
H1352 H 0.26008 0.34845 0.49797 0.0
H1353 H 0.23663 0.39607 0.53337 0.0
H1354 H 0.22558 0.38427 0.5134 0.0
H1355 H 0.23896 0.39075 0.48668 0.0
C1356 C 0.2277 0.3621 0.41802 0.0
C1357 C 0.23738 0.36124 0.39062 0.0
C1358 C 0.23129 0.36424 0.45455 0.0
C1359 C 0.24461 0.3657 0.46425 0.0
C1360 C 0.25421 0.36537 0.43669 0.0
H1361 H 0.28596 0.36335 0.67465 0.0
H1362 H 0.28068 0.36688 0.60997 0.0
C1363 C 0.25065 0.36319 0.40029 0.0
C1364 C 0.24868 0.36621 0.50327 0.0
H1365 H 0.24489 0.38328 0.58312 0.0
C1366 C 0.25687 0.35616 0.51649 0.0
C1367 C 0.24443 0.37621 0.52744 0.0
C1368 C 0.23601 0.38751 0.51451 0.0
C1369 C 0.26066 0.35562 0.55337 0.0
C1370 C 0.25636 0.36558 0.57765 0.0
C1371 C 0.24824 0.37571 0.56442 0.0
C1372 C 0.2596 0.36515 0.61726 0.0
C1373 C 0.26885 0.34412 0.56627 0.0
C1374 C 0.24949 0.36364 0.64304 0.0
C1375 C 0.25247 0.36173 0.67998 0.0
C1376 C 0.26563 0.36132 0.69193 0.0
C1377 C 0.27573 0.36354 0.66634 0.0
C1378 C 0.27273 0.36548 0.62933 0.0
H1379 H 0.26875 0.33587 0.54631 0.0
H1380 H 0.2792 0.34736 0.56981 0.0
H1381 H 0.26524 0.34039 0.59301 0.0
H1382 H 0.23929 0.36341 0.63437 0.0
H1383 H 0.24444 0.36011 0.69895 0.0
H1384 H 0.89699 0.99452 0.95153 0.0
H1385 H 0.89358 0.98926 0.88707 0.0
H1386 H 0.88956 0.03057 0.86237 0.0
H1387 H 0.89318 0.03597 0.92695 0.0
H1388 H 0.87346 0.9946 0.8361 0.0
H1389 H 0.9206 0.01891 0.7983 0.0
H1390 H 0.91622 0.01537 0.8451 0.0
H1391 H 0.90906 0.02924 0.82197 0.0
C1392 C 0.89522 1.00251 0.93253 0.0
C1393 C 0.8955 0.01569 0.94436 0.0
C1394 C 0.89325 0.99946 0.89565 0.0
C1395 C 0.89156 0.00952 0.86981 0.0
C1396 C 0.8911 0.02266 0.88177 0.0
H1397 H 0.89388 0.00777 0.63237 0.0
H1398 H 0.89017 0.01411 0.69593 0.0
C1399 C 0.89309 0.02573 0.91872 0.0
C1400 C 0.89107 0.00622 0.83025 0.0
H1401 H 0.90805 0.00994 0.7503 0.0
C1402 C 0.88098 0.99799 0.81725 0.0
C1403 C 0.90095 0.01058 0.80577 0.0
C1404 C 0.9124 0.01892 0.81841 0.0
C1405 C 0.88045 0.9941 0.78034 0.0
C1406 C 0.89039 0.99839 0.75598 0.0
C1407 C 0.9004 0.00671 0.76896 0.0
C1408 C 0.89088 0.99422 0.71702 0.0
C1409 C 0.86918 0.98557 0.76768 0.0
C1410 C 0.8923 0.98089 0.70755 0.0
C1411 C 0.89438 0.97721 0.67105 0.0
C1412 C 0.89521 0.98682 0.64346 0.0
C1413 C 0.89332 1.00011 0.65292 0.0
C1414 C 0.8912 0.00376 0.68928 0.0
H1415 H 0.86062 0.98622 0.78654 0.0
H1416 H 0.86593 0.98838 0.73976 0.0
H1417 H 0.87245 0.97515 0.76693 0.0
H1418 H 0.89237 0.97336 0.72854 0.0
H1419 H 0.89589 0.9669 0.66472 0.0
H1420 H 0.2511 0.66313 0.8814 0.0
H1421 H 0.24593 0.6594 0.94553 0.0
H1422 H 0.27736 0.6309 0.95242 0.0
H1423 H 0.28327 0.63553 0.88856 0.0
H1424 H 0.23767 0.64089 0.98393 0.0
H1425 H 0.28762 0.65224 0.0365 0.0
H1426 H 0.28333 0.65443 0.98917 0.0
H1427 H 0.28743 0.63832 0.00646 0.0
C1428 C 0.25691 0.65604 0.89657 0.0
C1429 C 0.26765 0.64969 0.88013 0.0
C1430 C 0.25393 0.65389 0.93334 0.0
C1431 C 0.26141 0.64507 0.95444 0.0
C1432 C 0.27173 0.63814 0.93738 0.0
H1433 H 0.22903 0.6323 0.17758 0.0
H1434 H 0.23505 0.62824 0.1135 0.0
C1435 C 0.27502 0.64066 0.90076 0.0
C1436 C 0.25839 0.64354 0.99423 0.0
H1437 H 0.27186 0.64552 0.07966 0.0
C1438 C 0.24517 0.64194 0.00485 0.0
C1439 C 0.26812 0.64496 0.02177 0.0
C1440 C 0.28238 0.64771 0.01297 0.0
C1441 C 0.24132 0.6424 0.04177 0.0
C1442 C 0.25106 0.64366 0.06931 0.0
C1443 C 0.26435 0.64456 0.05874 0.0
C1444 C 0.24776 0.64535 0.10887 0.0
C1445 C 0.22678 0.64232 0.05039 0.0
C1446 C 0.25338 0.65585 0.12847 0.0
C1447 C 0.25041 0.65778 0.16533 0.0
C1448 C 0.24148 0.64947 0.18337 0.0
C1449 C 0.23583 0.63893 0.16409 0.0
C1450 C 0.23918 0.63671 0.12736 0.0
H1451 H 0.22078 0.6452 0.02628 0.0
H1452 H 0.22375 0.63222 0.0584 0.0
H1453 H 0.22443 0.64915 0.07316 0.0
H1454 H 0.25998 0.66272 0.11512 0.0
H1455 H 0.25485 0.66603 0.17951 0.0
H1456 H 0.39325 0.00948 0.95963 0.0
H1457 H 0.38972 0.01593 0.89605 0.0
H1458 H 0.3914 0.97519 0.86319 0.0
H1459 H 0.39477 0.96862 0.92699 0.0
H1460 H 0.40768 0.01143 0.84146 0.0
H1461 H 0.35978 0.98866 0.80528 0.0
H1462 H 0.36509 0.99079 0.85205 0.0
H1463 H 0.3714 0.97741 0.82508 0.0
C1464 C 0.39261 1.00184 0.93903 0.0
C1465 C 0.39431 0.98852 0.94844 0.0
C1466 C 0.3906 0.00556 0.90264 0.0
C1467 C 0.39019 0.99606 0.87482 0.0
C1468 C 0.39142 0.9827 0.88423 0.0
H1469 H 0.39547 0.9966 0.63972 0.0
H1470 H 0.39222 0.99128 0.70422 0.0
C1471 C 0.3934 0.97895 0.92073 0.0
C1472 C 0.38978 1.00026 0.83584 0.0
H1473 H 0.37269 0.99693 0.75581 0.0
C1474 C 0.39995 0.00838 0.82283 0.0
C1475 C 0.37973 0.9962 0.8115 0.0
C1476 C 0.36831 0.98788 0.82418 0.0
C1477 C 0.40056 0.01227 0.78601 0.0
C1478 C 0.39056 0.00817 0.76156 0.0
C1479 C 0.38031 1.00013 0.7746 0.0
C1480 C 0.39102 0.01155 0.722 0.0
C1481 C 0.41219 0.02034 0.77336 0.0
C1482 C 0.39098 0.02473 0.71027 0.0
C1483 C 0.39289 0.02783 0.67329 0.0
C1484 C 0.39479 0.01779 0.64734 0.0
C1485 C 0.3941 0.0046 0.65895 0.0
C1486 C 0.39222 1.00152 0.69586 0.0
H1487 H 0.42045 0.02001 0.79327 0.0
H1488 H 0.41584 0.01682 0.74646 0.0
H1489 H 0.40913 0.03076 0.77029 0.0
H1490 H 0.3898 0.03264 0.72987 0.0
H1491 H 0.3933 0.03809 0.66527 0.0
H1492 H 0.75907 0.64162 0.38447 0.0
H1493 H 0.76554 0.63786 0.44792 0.0
H1494 H 0.72481 0.63922 0.48088 0.0
H1495 H 0.71821 0.64282 0.41719 0.0
H1496 H 0.7609 0.65569 0.50284 0.0
H1497 H 0.73851 0.6075 0.53811 0.0
H1498 H 0.74062 0.61294 0.49143 0.0
H1499 H 0.72719 0.61909 0.51852 0.0
C1500 C 0.75144 0.64085 0.40506 0.0
C1501 C 0.73811 0.64255 0.39573 0.0
C1502 C 0.75517 0.63872 0.44137 0.0
C1503 C 0.74567 0.63816 0.46918 0.0
C1504 C 0.7323 0.63935 0.45983 0.0
H1505 H 0.74629 0.64301 0.70424 0.0
H1506 H 0.74096 0.63968 0.63978 0.0
C1507 C 0.72855 0.64147 0.4234 0.0
C1508 C 0.74989 0.63767 0.50812 0.0
H1509 H 0.74674 0.62032 0.58779 0.0
C1510 C 0.75792 0.64787 0.52132 0.0
C1511 C 0.74592 0.62752 0.53226 0.0
C1512 C 0.73768 0.61607 0.51937 0.0
C1513 C 0.76183 0.64841 0.55812 0.0
C1514 C 0.75783 0.6383 0.58236 0.0
C1515 C 0.74987 0.62802 0.56914 0.0
C1516 C 0.76123 0.63869 0.62191 0.0
C1517 C 0.7698 0.66008 0.57099 0.0
C1518 C 0.77442 0.63876 0.63356 0.0
C1519 C 0.77752 0.64071 0.67052 0.0
C1520 C 0.76748 0.64254 0.6965 0.0
C1521 C 0.75428 0.64169 0.68498 0.0
C1522 C 0.7512 0.63977 0.64809 0.0
H1523 H 0.76938 0.6684 0.55126 0.0
H1524 H 0.76625 0.66362 0.59798 0.0
H1525 H 0.78025 0.65711 0.57397 0.0
H1526 H 0.78232 0.63767 0.61392 0.0
H1527 H 0.78778 0.64124 0.67847 0.0
H1528 H 0.11327 0.99886 0.46531 0.0
H1529 H 0.11729 0.99263 0.40182 0.0
H1530 H 0.11336 0.0332 0.36887 0.0
H1531 H 0.10951 0.03957 0.43259 0.0
H1532 H 0.09914 0.99602 0.34766 0.0
H1533 H 0.1455 0.02157 0.31054 0.0
H1534 H 0.14039 0.01923 0.35741 0.0
H1535 H 0.13332 0.0322 0.33031 0.0
C1536 C 0.11352 0.00652 0.44471 0.0
C1537 C 0.11103 0.01972 0.45402 0.0
C1538 C 0.11582 1.00292 0.40838 0.0
C1539 C 0.11573 0.01244 0.38057 0.0
C1540 C 0.11375 0.02571 0.38992 0.0
H1541 H 0.10896 0.01249 0.14658 0.0
H1542 H 0.11237 0.0176 0.21112 0.0
C1543 C 0.11149 0.02934 0.42637 0.0
C1544 C 0.11631 0.00826 0.34164 0.0
H1545 H 0.1328 0.01282 0.26114 0.0
C1546 C 0.1066 0.99956 0.32885 0.0
C1547 C 0.126 0.01296 0.31708 0.0
C1548 C 0.13697 0.02191 0.32954 0.0
C1549 C 0.10606 0.99573 0.292 0.0
C1550 C 0.11567 1.00052 0.26731 0.0
C1551 C 0.12549 0.0091 0.28015 0.0
C1552 C 0.11512 0.99735 0.22768 0.0
C1553 C 0.09489 0.98699 0.27957 0.0
C1554 C 0.11597 0.98428 0.21529 0.0
C1555 C 0.11396 0.9813 0.17829 0.0
C1556 C 0.11116 0.99135 0.15303 0.0
C1557 C 0.11103 0.00449 0.16529 0.0
C1558 C 0.113 0.00745 0.20221 0.0
H1559 H 0.08678 0.98663 0.29994 0.0
H1560 H 0.09082 0.99045 0.25308 0.0
H1561 H 0.09861 0.97682 0.2757 0.0
H1562 H 0.11784 0.97635 0.2344 0.0
H1563 H 0.11421 0.97109 0.16972 0.0
H1564 H 0.71746 0.35745 0.18304 0.0
H1565 H 0.72391 0.36071 0.11902 0.0
H1566 H 0.76434 0.36568 0.15218 0.0
H1567 H 0.75805 0.36223 0.21595 0.0
H1568 H 0.73749 0.38094 0.08041 0.0
H1569 H 0.76577 0.33415 0.0823 0.0
H1570 H 0.75437 0.33858 0.11806 0.0
H1571 H 0.77053 0.34579 0.11683 0.0
C1572 C 0.72769 0.35944 0.17675 0.0
C1573 C 0.73727 0.35943 0.20455 0.0
C1574 C 0.73136 0.36128 0.14015 0.0
C1575 C 0.74465 0.36314 0.13079 0.0
C1576 C 0.75408 0.36396 0.15871 0.0
H1577 H 0.78539 0.36126 0.92022 0.0
H1578 H 0.78008 0.36492 0.98486 0.0
C1579 C 0.75045 0.36205 0.19519 0.0
C1580 C 0.74875 0.36348 0.09181 0.0
H1581 H 0.76702 0.34685 0.02843 0.0
C1582 C 0.74396 0.37351 0.06901 0.0
C1583 C 0.7572 0.35376 0.07698 0.0
C1584 C 0.76219 0.34238 0.09965 0.0
C1585 C 0.74746 0.37413 0.03182 0.0
C1586 C 0.75581 0.36434 0.01697 0.0
C1587 C 0.76071 0.35441 0.0399 0.0
C1588 C 0.75898 0.36366 0.97734 0.0
C1589 C 0.74229 0.38532 0.00883 0.0
C1590 C 0.7489 0.36182 0.95163 0.0
C1591 C 0.7519 0.35972 0.91479 0.0
C1592 C 0.76506 0.35933 0.90285 0.0
C1593 C 0.77515 0.36154 0.92847 0.0
C1594 C 0.77213 0.36362 0.96542 0.0
H1595 H 0.73948 0.3939 0.02597 0.0
H1596 H 0.7497 0.38855 0.98838 0.0
H1597 H 0.73337 0.38198 0.99394 0.0
H1598 H 0.7387 0.36151 0.96025 0.0
H1599 H 0.74388 0.358 0.89584 0.0
H1600 H 0.12706 0.51397 0.45863 0.0
H1601 H 0.13589 0.5071 0.39894 0.0
H1602 H 0.10263 0.52514 0.34533 0.0
H1603 H 0.09413 0.53232 0.40384 0.0
H1604 H 0.12641 0.49104 0.35047 0.0
H1605 H 0.13101 0.53863 0.28123 0.0
H1606 H 0.12879 0.5375 0.33015 0.0
H1607 H 0.11474 0.53779 0.29985 0.0
C1608 C 0.12175 0.51657 0.43399 0.0
C1609 C 0.10995 0.52376 0.43597 0.0
C1610 C 0.12682 0.5127 0.39994 0.0
C1611 C 0.12016 0.51597 0.36747 0.0
C1612 C 0.10829 0.52298 0.3697 0.0
H1613 H 0.09672 0.47508 0.19028 0.0
H1614 H 0.10494 0.48316 0.24815 0.0
C1615 C 0.10334 0.52695 0.40339 0.0
C1616 C 0.12458 0.51103 0.33127 0.0
H1617 H 0.12408 0.52001 0.24141 0.0
C1618 C 0.12632 0.49743 0.32671 0.0
C1619 C 0.12504 0.51933 0.30015 0.0
C1620 C 0.12496 0.53414 0.30328 0.0
C1621 C 0.12682 0.49181 0.29169 0.0
C1622 C 0.12504 0.49995 0.26064 0.0
C1623 C 0.12502 0.51367 0.26515 0.0
C1624 C 0.12096 0.49446 0.22476 0.0
C1625 C 0.12865 0.47712 0.28849 0.0
C1626 C 0.12685 0.49853 0.19183 0.0
C1627 C 0.12192 0.49411 0.15814 0.0
C1628 C 0.11102 0.48556 0.15696 0.0
C1629 C 0.10522 0.48153 0.19003 0.0
C1630 C 0.11003 0.48602 0.22337 0.0
H1631 H 0.13541 0.47347 0.31013 0.0
H1632 H 0.11902 0.47214 0.29256 0.0
H1633 H 0.13266 0.47428 0.26137 0.0
H1634 H 0.13516 0.50522 0.19219 0.0
H1635 H 0.1266 0.4974 0.13313 0.0
H1636 H 0.75259 0.86719 0.70308 0.0
H1637 H 0.76159 0.8749 0.64454 0.0
H1638 H 0.72475 0.86579 0.59158 0.0
H1639 H 0.71573 0.8582 0.64951 0.0
H1640 H 0.76354 0.85724 0.58696 0.0
H1641 H 0.73475 0.90067 0.54333 0.0
H1642 H 0.73547 0.89524 0.59038 0.0
H1643 H 0.72452 0.88733 0.5585 0.0
C1644 C 0.74632 0.86717 0.67913 0.0
C1645 C 0.73352 0.86195 0.68078 0.0
C1646 C 0.75145 0.87159 0.64577 0.0
C1647 C 0.74377 0.87107 0.61383 0.0
C1648 C 0.73075 0.86657 0.61597 0.0
H1649 H 0.75014 0.86025 0.38527 0.0
H1650 H 0.74315 0.86679 0.44692 0.0
C1651 C 0.72567 0.86207 0.64909 0.0
C1652 C 0.74984 0.873 0.57744 0.0
H1653 H 0.74539 0.88828 0.49515 0.0
C1654 C 0.75982 0.86424 0.5671 0.0
C1655 C 0.74479 0.88202 0.55154 0.0
C1656 C 0.73437 0.89193 0.56159 0.0
C1657 C 0.76437 0.86369 0.53099 0.0
C1658 C 0.75907 0.87247 0.5047 0.0
C1659 C 0.74945 0.8816 0.51535 0.0
C1660 C 0.76282 0.87151 0.46565 0.0
C1661 C 0.77421 0.85315 0.52094 0.0
C1662 C 0.77605 0.87273 0.45526 0.0
C1663 C 0.78006 0.86875 0.42051 0.0
C1664 C 0.77084 0.86386 0.39527 0.0
C1665 C 0.75741 0.86399 0.4043 0.0
C1666 C 0.75343 0.86772 0.43945 0.0
H1667 H 0.77486 0.84535 0.54217 0.0
H1668 H 0.77159 0.84844 0.49451 0.0
H1669 H 0.78411 0.85765 0.5181 0.0
H1670 H 0.78339 0.87595 0.47479 0.0
H1671 H 0.79046 0.86889 0.41395 0.0
H1672 H 0.4043 0.54022 0.69032 0.0
H1673 H 0.39697 0.53093 0.74821 0.0
H1674 H 0.3822 0.49665 0.69198 0.0
H1675 H 0.38969 0.50583 0.63344 0.0
H1676 H 0.37213 0.52113 0.77558 0.0
H1677 H 0.41098 0.48268 0.76241 0.0
H1678 H 0.41065 0.49708 0.73356 0.0
H1679 H 0.39922 0.48387 0.72582 0.0
C1680 C 0.39939 0.53075 0.69005 0.0
C1681 C 0.39779 0.52364 0.6573 0.0
C1682 C 0.39511 0.52551 0.7232 0.0
C1683 C 0.38918 0.51307 0.72435 0.0
C1684 C 0.38688 0.50623 0.69158 0.0
H1685 H 0.38839 0.46554 0.92094 0.0
H1686 H 0.3818 0.4733 0.86048 0.0
C1687 C 0.39116 0.51149 0.65822 0.0
C1688 C 0.3868 0.50686 0.7603 0.0
H1689 H 0.39958 0.48373 0.81761 0.0
C1690 C 0.37795 0.51281 0.78472 0.0
C1691 C 0.39446 0.49605 0.77205 0.0
C1692 C 0.40444 0.48955 0.74731 0.0
C1693 C 0.37677 0.50839 0.821 0.0
C1694 C 0.38487 0.49795 0.83317 0.0
C1695 C 0.39333 0.49171 0.80824 0.0
C1696 C 0.38564 0.49385 0.87203 0.0
C1697 C 0.36698 0.51501 0.84591 0.0
C1698 C 0.38947 0.50289 0.89919 0.0
C1699 C 0.39303 0.49848 0.93408 0.0
C1700 C 0.39312 0.48495 0.94188 0.0
C1701 C 0.38851 0.47603 0.91545 0.0
C1702 C 0.38472 0.48045 0.88095 0.0
H1703 H 0.35865 0.51924 0.83012 0.0
H1704 H 0.363 0.50804 0.86654 0.0
H1705 H 0.37192 0.52322 0.8605 0.0
H1706 H 0.39056 0.51324 0.89275 0.0
H1707 H 0.39666 0.50552 0.95393 0.0
H1708 H 0.78035 0.16183 0.14729 0.0
H1709 H 0.77251 0.15382 0.08876 0.0
H1710 H 0.75641 0.11928 0.14108 0.0
H1711 H 0.76391 0.12758 0.20076 0.0
H1712 H 0.77801 0.13187 0.05034 0.0
H1713 H 0.72473 0.13306 0.08688 0.0
H1714 H 0.73709 0.14022 0.11612 0.0
H1715 H 0.73527 0.12265 0.1137 0.0
C1716 C 0.77514 0.15251 0.14656 0.0
C1717 C 0.77267 0.14538 0.17877 0.0
C1718 C 0.77072 0.1479 0.11293 0.0
C1719 C 0.76381 0.13598 0.11046 0.0
C1720 C 0.76153 0.12862 0.14241 0.0
H1721 H 0.74389 0.12829 0.87466 0.0
H1722 H 0.75189 0.11986 0.93372 0.0
C1723 C 0.76583 0.13335 0.17643 0.0
C1724 C 0.75865 0.13195 0.07419 0.0
H1725 H 0.73009 0.13116 0.0252 0.0
C1726 C 0.76753 0.13141 0.04476 0.0
C1727 C 0.74497 0.1312 0.06714 0.0
C1728 C 0.73491 0.13187 0.09748 0.0
C1729 C 0.76313 0.13165 0.00838 0.0
C1730 C 0.74945 0.13199 1.00137 0.0
C1731 C 0.74058 0.131 0.03076 0.0
C1732 C 0.74415 0.13614 0.96536 0.0
C1733 C 0.77315 0.13279 0.97805 0.0
C1734 C 0.73694 0.14788 0.96365 0.0
C1735 C 0.73225 0.15256 0.93041 0.0
C1736 C 0.73474 0.14568 0.8978 0.0
C1737 C 0.74193 0.13386 0.89932 0.0
C1738 C 0.74652 0.12906 0.93299 0.0
H1739 H 0.78331 0.13413 0.98866 0.0
H1740 H 0.77297 0.12369 0.96128 0.0
H1741 H 0.77077 0.14122 0.95992 0.0
H1742 H 0.73509 0.1536 0.98816 0.0
H1743 H 0.72679 0.16172 0.93031 0.0
H1744 H 0.90819 0.47271 0.68698 0.0
H1745 H 0.89987 0.48068 0.7448 0.0
H1746 H 0.87022 0.50336 0.68858 0.0
H1747 H 0.87891 0.49566 0.62955 0.0
H1748 H 0.88138 0.51786 0.73802 0.0
H1749 H 0.86922 0.47148 0.80645 0.0
H1750 H 0.88561 0.46989 0.78918 0.0
H1751 H 0.87209 0.47224 0.75774 0.0
C1752 C 0.89979 0.47926 0.68665 0.0
C1753 C 0.89421 0.48352 0.65351 0.0
C1754 C 0.89491 0.48369 0.71997 0.0
C1755 C 0.88412 0.49229 0.72127 0.0
C1756 C 0.87842 0.49655 0.68828 0.0
H1757 H 0.87805 0.51228 0.95508 0.0
H1758 H 0.86926 0.50526 0.89547 0.0
C1759 C 0.88342 0.49219 0.6546 0.0
C1760 C 0.88008 0.49781 0.75716 0.0
H1761 H 0.87856 0.48888 0.84697 0.0
C1762 C 0.88033 0.51152 0.76173 0.0
C1763 C 0.87816 0.48968 0.78819 0.0
C1764 C 0.87609 0.47502 0.78494 0.0
C1765 C 0.88039 0.51716 0.79674 0.0
C1766 C 0.88073 0.50885 0.82783 0.0
C1767 C 0.87875 0.49527 0.82322 0.0
C1768 C 0.88523 0.51372 0.864 0.0
C1769 C 0.88074 0.53197 0.79993 0.0
C1770 C 0.89724 0.5205 0.86621 0.0
C1771 C 0.90219 0.52455 0.89985 0.0
C1772 C 0.8954 0.52168 0.93239 0.0
C1773 C 0.88349 0.51464 0.93046 0.0
C1774 C 0.87843 0.51069 0.89645 0.0
H1775 H 0.87482 0.53658 0.77783 0.0
H1776 H 0.87692 0.53537 0.82677 0.0
H1777 H 0.89103 0.53545 0.79668 0.0
H1778 H 0.90299 0.52246 0.84186 0.0
H1779 H 0.91148 0.52978 0.90029 0.0
H1780 H 0.21293 0.14092 0.66595 0.0
H1781 H 0.21972 0.1339 0.60499 0.0
H1782 H 0.26047 0.1368 0.63758 0.0
H1783 H 0.25364 0.14327 0.69926 0.0
H1784 H 0.23234 0.14999 0.56243 0.0
H1785 H 0.26221 0.10477 0.57403 0.0
H1786 H 0.25178 0.1105 0.61073 0.0
H1787 H 0.26802 0.1173 0.60455 0.0
C1788 C 0.22333 0.13969 0.66037 0.0
C1789 C 0.23279 0.14272 0.68711 0.0
C1790 C 0.2272 0.13565 0.62557 0.0
C1791 C 0.2406 0.13475 0.61665 0.0
C1792 C 0.25007 0.13709 0.64398 0.0
H1793 H 0.28829 0.14972 0.43568 0.0
H1794 H 0.27849 0.14278 0.49337 0.0
C1795 C 0.24617 0.14089 0.67916 0.0
C1796 C 0.24458 0.13356 0.57775 0.0
H1797 H 0.26601 0.11816 0.51993 0.0
C1798 C 0.23946 0.1428 0.55297 0.0
C1799 C 0.2539 0.12422 0.5654 0.0
C1800 C 0.25918 0.11356 0.59005 0.0
C1801 C 0.24391 0.14344 0.51678 0.0
C1802 C 0.25368 0.13452 0.50494 0.0
C1803 C 0.25847 0.12493 0.52917 0.0
C1804 C 0.26019 0.13628 0.46915 0.0
C1805 C 0.23869 0.15416 0.4921 0.0
C1806 C 0.25326 0.13451 0.43628 0.0
C1807 C 0.25883 0.13851 0.40306 0.0
C1808 C 0.27136 0.14441 0.40247 0.0
C1809 C 0.27854 0.14539 0.43526 0.0
C1810 C 0.27301 0.14133 0.46825 0.0
H1811 H 0.23239 0.16129 0.50702 0.0
H1812 H 0.24695 0.15962 0.47919 0.0
H1813 H 0.23274 0.14967 0.46992 0.0
H1814 H 0.24335 0.13055 0.43654 0.0
H1815 H 0.25311 0.13756 0.37822 0.0
H1816 H 0.59648 0.53008 0.18743 0.0
H1817 H 0.60521 0.52245 0.24522 0.0
H1818 H 0.63652 0.50216 0.18887 0.0
H1819 H 0.62749 0.50955 0.12992 0.0
H1820 H 0.62609 0.48677 0.23865 0.0
H1821 H 0.63553 0.53403 0.30602 0.0
H1822 H 0.61908 0.53448 0.28852 0.0
H1823 H 0.63278 0.5329 0.25731 0.0
C1824 C 0.60531 0.52411 0.18709 0.0
C1825 C 0.61131 0.52046 0.15396 0.0
C1826 C 0.61041 0.51988 0.22036 0.0
C1827 C 0.62179 0.5121 0.22158 0.0
C1828 C 0.62785 0.50836 0.1886 0.0
H1829 H 0.62915 0.49361 0.4556 0.0
H1830 H 0.63779 0.50045 0.39569 0.0
C1831 C 0.62266 0.51253 0.15498 0.0
C1832 C 0.62627 0.5069 0.25741 0.0
H1833 H 0.62754 0.51617 0.34695 0.0
C1834 C 0.62684 0.49321 0.26222 0.0
C1835 C 0.6278 0.51522 0.28819 0.0
C1836 C 0.62893 0.52997 0.28456 0.0
C1837 C 0.62719 0.48768 0.29735 0.0
C1838 C 0.62648 0.49605 0.32826 0.0
C1839 C 0.62766 0.5097 0.32334 0.0
C1840 C 0.62225 0.49107 0.36457 0.0
C1841 C 0.62765 0.47289 0.30089 0.0
C1842 C 0.61056 0.48377 0.36702 0.0
C1843 C 0.60568 0.47984 0.40085 0.0
C1844 C 0.61222 0.48333 0.43331 0.0
C1845 C 0.62389 0.49076 0.43107 0.0
C1846 C 0.62887 0.49462 0.3969 0.0
H1847 H 0.63378 0.46854 0.27881 0.0
H1848 H 0.63168 0.46977 0.32776 0.0
H1849 H 0.61756 0.46884 0.29782 0.0
H1850 H 0.60495 0.48137 0.34272 0.0
H1851 H 0.5966 0.47426 0.40146 0.0
H1852 H 0.22252 0.84688 0.93877 0.0
H1853 H 0.22993 0.85461 0.99788 0.0
H1854 H 0.25015 0.88708 0.94642 0.0
H1855 H 0.24301 0.87905 0.88614 0.0
H1856 H 0.26554 0.87591 0.9943 0.0
H1857 H 0.21826 0.88346 0.06341 0.0
H1858 H 0.21802 0.86732 0.04379 0.0
H1859 H 0.21934 0.88156 0.01438 0.0
C1860 C 0.22842 0.85576 0.9398 0.0
C1861 C 0.23215 0.86236 0.90764 0.0
C1862 C 0.23252 0.86028 0.97385 0.0
C1863 C 0.24025 0.87168 0.97683 0.0
C1864 C 0.24401 0.87837 0.94482 0.0
H1865 H 0.25976 0.8768 0.21126 0.0
H1866 H 0.25221 0.88557 0.15216 0.0
C1867 C 0.23997 0.87376 0.91043 0.0
C1868 C 0.24543 0.87549 0.01328 0.0
H1869 H 0.23633 0.87522 0.10305 0.0
C1870 C 0.25912 0.87618 0.01801 0.0
C1871 C 0.23715 0.87636 0.04434 0.0
C1872 C 0.22238 0.8773 0.04105 0.0
C1873 C 0.26472 0.87608 0.05307 0.0
C1874 C 0.25641 0.87481 0.08399 0.0
C1875 C 0.24274 0.87578 0.07938 0.0
C1876 C 0.26157 0.87035 0.11987 0.0
C1877 C 0.2795 0.87672 0.05647 0.0
C1878 C 0.26904 0.85876 0.12139 0.0
C1879 C 0.27336 0.85382 0.15475 0.0
C1880 C 0.27012 0.86018 0.18767 0.0
C1881 C 0.26243 0.87169 0.18636 0.0
C1882 C 0.25817 0.87673 0.15265 0.0
H1883 H 0.28376 0.88309 0.03476 0.0
H1884 H 0.2826 0.88057 0.08356 0.0
H1885 H 0.28366 0.86671 0.05278 0.0
H1886 H 0.27133 0.85333 0.0967 0.0
H1887 H 0.27912 0.84484 0.15466 0.0
H1888 H 0.5948 0.97565 0.68564 0.0
H1889 H 0.60343 0.98339 0.74351 0.0
H1890 H 0.63743 0.99949 0.68854 0.0
H1891 H 0.62847 0.99209 0.62946 0.0
H1892 H 0.62566 0.97774 0.78009 0.0
H1893 H 0.62455 0.03111 0.7444 0.0
H1894 H 0.61703 0.01889 0.71537 0.0
H1895 H 0.63464 0.02048 0.71694 0.0
C1896 C 0.60413 0.98083 0.68563 0.0
C1897 C 0.61091 0.98332 0.65287 0.0
C1898 C 0.6091 0.9852 0.71889 0.0
C1899 C 0.62106 0.99208 0.72048 0.0
C1900 C 0.62807 0.99439 0.68794 0.0
H1901 H 0.62832 0.01142 0.95657 0.0
H1902 H 0.63722 0.00367 0.89776 0.0
C1903 C 0.62296 0.99015 0.65425 0.0
C1904 C 0.62546 0.99715 0.75654 0.0
H1905 H 0.62631 0.0256 0.80598 0.0
C1906 C 0.62613 0.98821 0.78582 0.0
C1907 C 0.62625 0.01081 0.76379 0.0
C1908 C 0.62553 0.02093 0.73363 0.0
C1909 C 0.62591 0.99253 0.82227 0.0
C1910 C 0.62549 0.0062 0.82951 0.0
C1911 C 0.6265 0.01512 0.80025 0.0
C1912 C 0.62111 0.01139 0.86544 0.0
C1913 C 0.62481 0.98244 0.85244 0.0
C1914 C 0.60931 0.01852 0.86672 0.0
C1915 C 0.60437 0.02307 0.89981 0.0
C1916 C 0.61103 0.02052 0.93273 0.0
C1917 C 0.62291 0.01342 0.93166 0.0
C1918 C 0.62799 0.00898 0.89813 0.0
H1919 H 0.62362 0.97228 0.84166 0.0
H1920 H 0.63386 0.9827 0.86942 0.0
H1921 H 0.61629 0.98468 0.8704 0.0
H1922 H 0.60374 0.02041 0.84197 0.0
H1923 H 0.59517 0.02846 0.89955 0.0
H1924 H 0.21618 0.35504 0.15022 0.0
H1925 H 0.22567 0.36223 0.09237 0.0
H1926 H 0.26014 0.37635 0.14896 0.0
H1927 H 0.25071 0.36909 0.20743 0.0
H1928 H 0.23688 0.3874 0.06543 0.0
H1929 H 0.27268 0.34608 0.07899 0.0
H1930 H 0.25805 0.34706 0.10681 0.0
H1931 H 0.27173 0.35775 0.11591 0.0
C1932 C 0.22571 0.35983 0.15055 0.0
C1933 C 0.23281 0.36129 0.18334 0.0
C1934 C 0.23106 0.36402 0.11746 0.0
C1935 C 0.24362 0.3697 0.11647 0.0
C1936 C 0.25044 0.37191 0.14929 0.0
H1937 H 0.29101 0.36679 0.91971 0.0
H1938 H 0.28393 0.37375 0.9805 0.0
C1939 C 0.24505 0.36776 0.1826 0.0
C1940 C 0.25003 0.37171 0.08065 0.0
H1941 H 0.27215 0.35726 0.02342 0.0
C1942 C 0.24477 0.381 0.05629 0.0
C1943 C 0.26025 0.3633 0.06895 0.0
C1944 C 0.26601 0.35291 0.0938 0.0
C1945 C 0.2493 0.38189 0.02006 0.0
C1946 C 0.25909 0.37302 0.00784 0.0
C1947 C 0.26467 0.3641 0.03277 0.0
C1948 C 0.26311 0.37193 0.96896 0.0
C1949 C 0.24349 0.39223 0.99527 0.0
C1950 C 0.25374 0.36909 0.94172 0.0
C1951 C 0.25779 0.36534 0.90663 0.0
C1952 C 0.27124 0.36406 0.89871 0.0
C1953 C 0.28056 0.36761 0.9253 0.0
C1954 C 0.27653 0.37161 0.95999 0.0
H1955 H 0.24007 0.4009 0.01118 0.0
H1956 H 0.25071 0.39559 0.97445 0.0
H1957 H 0.23481 0.38804 0.98095 0.0
H1958 H 0.24334 0.36893 0.94815 0.0
H1959 H 0.25043 0.36255 0.88664 0.0
H1960 H 0.88919 1.00118 0.45882 0.0
H1961 H 0.88253 0.01057 0.39981 0.0
H1962 H 0.88997 0.97328 0.34738 0.0
H1963 H 0.8966 0.96387 0.40584 0.0
H1964 H 0.90142 0.01091 0.34298 0.0
H1965 H 0.85578 0.98586 0.29753 0.0
H1966 H 0.86076 0.9866 0.34497 0.0
H1967 H 0.86818 0.97485 0.31454 0.0
C1968 C 0.88905 0.9949 0.43488 0.0
C1969 C 0.89355 0.98185 0.43683 0.0
C1970 C 0.88523 1.00026 0.40126 0.0
C1971 C 0.88562 0.99257 0.36936 0.0
C1972 C 0.88933 0.97931 0.37175 0.0
H1973 H 0.8954 1.00027 0.1388 0.0
H1974 H 0.88946 0.99292 0.20065 0.0
C1975 C 0.89327 0.974 0.40515 0.0
C1976 C 0.88444 0.99876 0.33294 0.0
H1977 H 0.86877 0.99621 0.25061 0.0
C1978 C 0.89411 0.00793 0.32297 0.0
C1979 C 0.87504 0.99464 0.30685 0.0
C1980 C 0.86427 0.98502 0.31654 0.0
C1981 C 0.89506 0.01264 0.28708 0.0
C1982 C 0.88577 0.00838 0.26069 0.0
C1983 C 0.87584 0.99948 0.27091 0.0
C1984 C 0.88678 0.01261 0.22205 0.0
C1985 C 0.90645 0.02156 0.27739 0.0
C1986 C 0.88657 0.02605 0.21326 0.0
C1987 C 0.8902 0.03023 0.17839 0.0
C1988 C 0.89374 0.02104 0.15144 0.0
C1989 C 0.89273 0.00754 0.15917 0.0
C1990 C 0.88934 0.00335 0.19442 0.0
H1991 H 0.91442 0.02112 0.29817 0.0
H1992 H 0.91069 0.0189 0.25039 0.0
H1993 H 0.90293 0.03188 0.27598 0.0
H1994 H 0.88428 0.03333 0.23393 0.0
H1995 H 0.89071 0.04071 0.17288 0.0
H1996 H 0.29022 0.65777 0.63975 0.0
H1997 H 0.28209 0.64939 0.58166 0.0
H1998 H 0.25005 0.62998 0.63723 0.0
H1999 H 0.25805 0.63852 0.69599 0.0
H2000 H 0.27622 0.62345 0.55457 0.0
H2001 H 0.2322 0.65597 0.56565 0.0
H2002 H 0.24632 0.65788 0.59507 0.0
H2003 H 0.23498 0.64457 0.60246 0.0
C2004 C 0.28148 0.65166 0.63984 0.0
C2005 C 0.27465 0.649 0.67251 0.0
C2006 C 0.27691 0.64679 0.60656 0.0
C2007 C 0.26542 0.63918 0.60516 0.0
C2008 C 0.25888 0.63596 0.6378 0.0
H2009 H 0.21984 0.63265 0.40623 0.0
H2010 H 0.22802 0.6261 0.46632 0.0
C2011 C 0.26345 0.64085 0.67129 0.0
C2012 C 0.2598 0.6358 0.56907 0.0
H2013 H 0.23532 0.64485 0.51064 0.0
C2014 C 0.26715 0.62792 0.54502 0.0
C2015 C 0.248 0.64169 0.55679 0.0
C2016 C 0.23992 0.65057 0.58112 0.0
C2017 C 0.26318 0.62607 0.50857 0.0
C2018 C 0.25172 0.63248 0.49582 0.0
C2019 C 0.24409 0.63987 0.52043 0.0
C2020 C 0.24793 0.63285 0.45666 0.0
C2021 C 0.27138 0.61741 0.48404 0.0
C2022 C 0.25658 0.63819 0.43049 0.0
C2023 C 0.25196 0.64171 0.39578 0.0
C2024 C 0.23858 0.64021 0.38721 0.0
C2025 C 0.2302 0.63395 0.41233 0.0
C2026 C 0.23486 0.6302 0.44664 0.0
H2027 H 0.27658 0.60971 0.50007 0.0
H2028 H 0.26528 0.61256 0.46275 0.0
H2029 H 0.27897 0.62352 0.47027 0.0
H2030 H 0.26662 0.64062 0.43777 0.0
H2031 H 0.25856 0.64666 0.37698 0.0
H2032 H 0.37855 0.99157 0.13516 0.0
H2033 H 0.37027 0.99917 0.19476 0.0
H2034 H 0.40518 0.98392 0.24694 0.0
H2035 H 0.41318 0.97599 0.1885 0.0
H2036 H 0.38337 0.97799 0.28556 0.0
H2037 H 0.38351 0.03125 0.24845 0.0
H2038 H 0.37329 0.02044 0.22182 0.0
H2039 H 0.39089 0.01899 0.21931 0.0
C2040 C 0.38442 0.98987 0.15944 0.0
C2041 C 0.39654 0.98322 0.15712 0.0
C2042 C 0.37969 0.99422 0.19341 0.0
C2043 C 0.38716 0.9922 0.2253 0.0
C2044 C 0.39919 0.98551 0.22282 0.0
H2045 H 0.41212 0.02991 0.40566 0.0
H2046 H 0.40418 0.02156 0.34764 0.0
C2047 C 0.40379 0.98103 0.18925 0.0
C2048 C 0.38306 0.99733 0.26153 0.0
H2049 H 0.38174 0.02593 0.31023 0.0
C2050 C 0.38271 0.98847 0.29104 0.0
C2051 C 0.38206 0.01099 0.26843 0.0
C2052 C 0.38252 0.02102 0.23798 0.0
C2053 C 0.38288 0.99292 0.32737 0.0
C2054 C 0.38294 0.00662 0.33425 0.0
C2055 C 0.38178 0.01543 0.30477 0.0
C2056 C 0.38692 0.01204 0.37026 0.0
C2057 C 0.38422 0.98296 0.35778 0.0
C2058 C 0.37986 0.00949 0.40256 0.0
C2059 C 0.38456 0.0141 0.43631 0.0
C2060 C 0.39625 0.02152 0.438 0.0
C2061 C 0.40307 0.02426 0.40544 0.0
C2062 C 0.3985 0.01954 0.3721 0.0
H2063 H 0.38584 0.97283 0.34724 0.0
H2064 H 0.39257 0.98558 0.37599 0.0
H2065 H 0.3751 0.9829 0.37444 0.0
H2066 H 0.37078 0.00391 0.40173 0.0
H2067 H 0.37902 0.01195 0.46092 0.0
H2068 H 0.74251 0.62811 0.20978 0.0
H2069 H 0.75046 0.61999 0.15038 0.0
H2070 H 0.73329 0.65379 0.09719 0.0
H2071 H 0.72505 0.66164 0.15543 0.0
H2072 H 0.72852 0.63141 0.05941 0.0
H2073 H 0.78171 0.63492 0.09594 0.0
H2074 H 0.77154 0.62425 0.12316 0.0
H2075 H 0.76907 0.64175 0.12485 0.0
C2076 C 0.74045 0.63377 0.18533 0.0
C2077 C 0.7332 0.64554 0.18733 0.0
C2078 C 0.74501 0.62913 0.15147 0.0
C2079 C 0.74255 0.63633 0.11936 0.0
C2080 C 0.73523 0.648 0.1215 0.0
H2081 H 0.77871 0.66222 0.93691 0.0
H2082 H 0.77072 0.65439 0.99549 0.0
C2083 C 0.73057 0.65252 0.15497 0.0
C2084 C 0.74787 0.63238 0.08323 0.0
H2085 H 0.77644 0.63252 0.03428 0.0
C2086 C 0.73901 0.63134 0.05385 0.0
C2087 C 0.76156 0.63218 0.07622 0.0
C2088 C 0.77157 0.6334 0.10655 0.0
C2089 C 0.74341 0.63158 0.01746 0.0
C2090 C 0.75707 0.63242 0.01043 0.0
C2091 C 0.76596 0.63197 0.03985 0.0
C2092 C 0.76221 0.63641 0.97412 0.0
C2093 C 0.73335 0.63214 0.98711 0.0
C2094 C 0.76007 0.62892 0.94234 0.0
C2095 C 0.76447 0.63354 0.90829 0.0
C2096 C 0.77126 0.64559 0.90577 0.0
C2097 C 0.77355 0.65288 0.9378 0.0
C2098 C 0.76904 0.64838 0.97145 0.0
H2099 H 0.72316 0.63326 0.99767 0.0
H2100 H 0.73548 0.64049 0.9684 0.0
H2101 H 0.73379 0.62291 0.97095 0.0
H2102 H 0.75502 0.61955 0.94384 0.0
H2103 H 0.76268 0.62765 0.8841 0.0
H2104 H 0.11034 0.00789 0.95815 0.0
H2105 H 0.11603 0.01551 0.89641 0.0
H2106 H 0.12636 0.97581 0.86591 0.0
H2107 H 0.1201 0.9681 0.92684 0.0
H2108 H 0.13697 0.01463 0.84721 0.0
H2109 H 0.09524 0.98343 0.80026 0.0
H2110 H 0.0985 0.98642 0.84796 0.0
H2111 H 0.10806 0.9745 0.82308 0.0
C2112 C 0.11414 1.00089 0.93848 0.0
C2113 C 0.11458 0.98741 0.94682 0.0
C2114 C 0.11738 0.00522 0.90327 0.0
C2115 C 0.12126 0.99614 0.87636 0.0
C2116 C 0.12304 0.9829 0.886 0.0
H2117 H 0.11766 0.00684 0.63902 0.0
H2118 H 0.12522 0.9983 0.6982 0.0
C2119 C 0.11952 0.97853 0.92079 0.0
C2120 C 0.12182 1.00019 0.83749 0.0
H2121 H 0.10663 0.99529 0.75535 0.0
C2122 C 0.13044 0.01033 0.82701 0.0
C2123 C 0.11321 0.99459 0.81123 0.0
C2124 C 0.10314 0.98423 0.82115 0.0
C2125 C 0.13051 0.01516 0.791 0.0
C2126 C 0.12173 0.00972 0.76509 0.0
C2127 C 0.11347 0.9993 0.77525 0.0
C2128 C 0.11961 0.01567 0.7287 0.0
C2129 C 0.13981 0.02617 0.78106 0.0
C2130 C 0.1141 0.02828 0.72636 0.0
C2131 C 0.10964 0.03308 0.69288 0.0
C2132 C 0.11063 0.02537 0.66106 0.0
C2133 C 0.11678 0.013 0.66308 0.0
C2134 C 0.12113 0.00813 0.69678 0.0
H2135 H 0.14838 0.02655 0.79994 0.0
H2136 H 0.14346 0.02506 0.75259 0.0
H2137 H 0.13453 0.0357 0.78304 0.0
H2138 H 0.11258 0.03413 0.75077 0.0
H2139 H 0.10504 0.0427 0.69218 0.0
H2140 H 0.7482 0.36009 0.70816 0.0
H2141 H 0.74061 0.36596 0.64657 0.0
H2142 H 0.77994 0.37836 0.61815 0.0
H2143 H 0.78765 0.37193 0.67894 0.0
H2144 H 0.74084 0.3872 0.59788 0.0
H2145 H 0.77409 0.34702 0.55155 0.0
H2146 H 0.77066 0.34999 0.59917 0.0
H2147 H 0.78225 0.36021 0.57506 0.0
C2148 C 0.75511 0.36442 0.68905 0.0
C2149 C 0.76852 0.36537 0.69787 0.0
C2150 C 0.75079 0.36776 0.65391 0.0
C2151 C 0.75981 0.37224 0.62755 0.0
C2152 C 0.7729 0.37458 0.6378 0.0
H2153 H 0.74971 0.3677 0.38991 0.0
H2154 H 0.75802 0.37567 0.44896 0.0
C2155 C 0.77728 0.37097 0.67253 0.0
C2156 C 0.75595 0.37272 0.58852 0.0
H2157 H 0.76173 0.35773 0.50654 0.0
C2158 C 0.74549 0.38087 0.57778 0.0
C2159 C 0.76201 0.36439 0.56239 0.0
C2160 C 0.77279 0.35482 0.57256 0.0
C2161 C 0.74076 0.38071 0.54167 0.0
C2162 C 0.74662 0.37215 0.51592 0.0
C2163 C 0.75738 0.3644 0.52632 0.0
C2164 C 0.74079 0.36966 0.47953 0.0
C2165 C 0.7294 0.38952 0.53149 0.0
C2166 C 0.72835 0.36376 0.47726 0.0
C2167 C 0.72367 0.35908 0.44386 0.0
C2168 C 0.73136 0.36021 0.41202 0.0
C2169 C 0.74358 0.36669 0.41397 0.0
C2170 C 0.74831 0.37128 0.4476 0.0
H2171 H 0.72875 0.39817 0.55001 0.0
H2172 H 0.7303 0.39304 0.50285 0.0
H2173 H 0.72007 0.38389 0.53394 0.0
H2174 H 0.72252 0.36214 0.50167 0.0
H2175 H 0.71418 0.35423 0.44324 0.0
H2176 H 0.12316 0.4318 0.07106 0.0
H2177 H 0.13592 0.41404 0.09878 0.0
H2178 H 0.10129 0.4006 0.15607 0.0
H2179 H 0.08861 0.41868 0.1295 0.0
H2180 H 0.12076 0.40246 0.20191 0.0
H2181 H 0.13922 0.37561 0.0811 0.0
H2182 H 0.14352 0.3927 0.07873 0.0
H2183 H 0.12644 0.38786 0.07772 0.0
C2184 C 0.11817 0.42486 0.0888 0.0
C2185 C 0.10484 0.42664 0.09794 0.0
C2186 C 0.12549 0.41465 0.10463 0.0
C2187 C 0.11958 0.40581 0.12932 0.0
C2188 C 0.10611 0.40725 0.13715 0.0
H2189 H 0.16554 0.33865 0.2081 0.0
H2190 H 0.14796 0.35208 0.18178 0.0
C2191 C 0.09884 0.41756 0.12175 0.0
C2192 C 0.12765 0.39583 0.14927 0.0
H2193 H 0.15081 0.37185 0.13745 0.0
C2194 C 0.1272 0.39565 0.18773 0.0
C2195 C 0.13594 0.38676 0.13101 0.0
C2196 C 0.13621 0.38563 0.08987 0.0
C2197 C 0.13507 0.387 0.20832 0.0
C2198 C 0.14398 0.37852 0.1901 0.0
C2199 C 0.14412 0.37841 0.15163 0.0
C2200 C 0.15352 0.36996 0.21012 0.0
C2201 C 0.13359 0.38696 0.24939 0.0
C2202 C 0.16235 0.37537 0.23569 0.0
C2203 C 0.17225 0.36762 0.25138 0.0
C2204 C 0.17375 0.35435 0.24122 0.0
C2205 C 0.16464 0.34882 0.21665 0.0
C2206 C 0.15462 0.35653 0.20138 0.0
H2207 H 0.12359 0.39023 0.2577 0.0
H2208 H 0.1354 0.37704 0.26104 0.0
H2209 H 0.14078 0.39396 0.26145 0.0
H2210 H 0.162 0.38575 0.24228 0.0
H2211 H 0.17923 0.37225 0.26974 0.0
H2212 H 0.88819 0.92282 0.5313 0.0
H2213 H 0.8748 0.90497 0.5059 0.0
H2214 H 0.90287 0.89995 0.41855 0.0
H2215 H 0.91639 0.91757 0.44404 0.0
H2216 H 0.86329 0.90615 0.43897 0.0
H2217 H 0.89517 0.86201 0.44541 0.0
H2218 H 0.89855 0.87675 0.4714 0.0
H2219 H 0.90301 0.87582 0.42385 0.0
C2220 C 0.89172 0.91766 0.50731 0.0
C2221 C 0.90338 0.92165 0.48975 0.0
C2222 C 0.88401 0.90749 0.49268 0.0
C2223 C 0.88783 0.90103 0.46037 0.0
C2224 C 0.8998 0.90457 0.44384 0.0
H2225 H 0.83235 0.86501 0.30786 0.0
H2226 H 0.85007 0.87811 0.33521 0.0
C2227 C 0.90751 0.91472 0.45844 0.0
C2228 C 0.8787 0.89165 0.4419 0.0
H2229 H 0.87625 0.86054 0.40665 0.0
C2230 C 0.86612 0.89616 0.43211 0.0
C2231 C 0.88233 0.87858 0.43303 0.0
C2232 C 0.89545 0.87294 0.44426 0.0
C2233 C 0.85715 0.88805 0.41337 0.0
C2234 C 0.86094 0.87513 0.40338 0.0
C2235 C 0.87343 0.87052 0.41371 0.0
C2236 C 0.85173 0.86611 0.38391 0.0
C2237 C 0.84359 0.89335 0.40509 0.0
C2238 C 0.84732 0.85456 0.40108 0.0
C2239 C 0.8373 0.84699 0.38535 0.0
C2240 C 0.83148 0.85077 0.35201 0.0
C2241 C 0.83657 0.86182 0.33357 0.0
C2242 C 0.84663 0.86939 0.34935 0.0
H2243 H 0.8412 0.90208 0.42211 0.0
H2244 H 0.84314 0.89636 0.37595 0.0
H2245 H 0.83595 0.8857 0.40977 0.0
H2246 H 0.85117 0.85177 0.42761 0.0
H2247 H 0.83365 0.83853 0.40031 0.0
H2248 H 0.41986 0.59191 0.63112 0.0
H2249 H 0.40654 0.60962 0.65725 0.0
H2250 H 0.37263 0.5954 0.59815 0.0
H2251 H 0.38604 0.57802 0.57077 0.0
H2252 H 0.37236 0.62135 0.60047 0.0
H2253 H 0.38193 0.60272 0.74044 0.0
H2254 H 0.39666 0.6075 0.71688 0.0
H2255 H 0.38702 0.5939 0.70009 0.0
C2256 C 0.40963 0.59273 0.6231 0.0
C2257 C 0.40399 0.58351 0.59904 0.0
C2258 C 0.40198 0.60277 0.63843 0.0
C2259 C 0.38845 0.60359 0.63073 0.0
C2260 C 0.38301 0.59491 0.60488 0.0
H2261 H 0.3265 0.63713 0.76288 0.0
H2262 H 0.34385 0.62354 0.7361 0.0
C2263 C 0.39071 0.585 0.58907 0.0
C2264 C 0.37984 0.61311 0.65052 0.0
H2265 H 0.36979 0.62252 0.73592 0.0
C2266 C 0.37182 0.62163 0.63009 0.0
C2267 C 0.37893 0.61331 0.68924 0.0
C2268 C 0.38648 0.60378 0.71296 0.0
C2269 C 0.36292 0.63027 0.64712 0.0
C2270 C 0.36233 0.63078 0.68586 0.0
C2271 C 0.37038 0.62229 0.7063 0.0
C2272 C 0.35285 0.63946 0.70557 0.0
C2273 C 0.35388 0.63835 0.62327 0.0
C2274 C 0.35248 0.65307 0.6989 0.0
C2275 C 0.34246 0.66084 0.71387 0.0
C2276 C 0.33279 0.65521 0.73656 0.0
C2277 C 0.33382 0.6418 0.74565 0.0
C2278 C 0.34372 0.63399 0.73018 0.0
H2279 H 0.35299 0.63413 0.59534 0.0
H2280 H 0.34388 0.63904 0.63536 0.0
H2281 H 0.35793 0.64845 0.62053 0.0
H2282 H 0.35967 0.65764 0.68109 0.0
H2283 H 0.34199 0.67117 0.70656 0.0
H2284 H 0.67134 0.16458 0.8902 0.0
H2285 H 0.6545 0.15069 0.91823 0.0
H2286 H 0.65939 0.12208 0.83219 0.0
H2287 H 0.67654 0.1358 0.80439 0.0
H2288 H 0.63097 0.14019 0.89795 0.0
H2289 H 0.6672 0.10036 0.92258 0.0
H2290 H 0.67201 0.11654 0.90728 0.0
H2291 H 0.66559 0.10472 0.87523 0.0
C2292 C 0.66871 0.15543 0.87683 0.0
C2293 C 0.67542 0.15126 0.84518 0.0
C2294 C 0.65907 0.14747 0.89299 0.0
C2295 C 0.6559 0.13516 0.87792 0.0
C2296 C 0.66192 0.13137 0.84492 0.0
H2297 H 0.59135 0.0836 0.93944 0.0
H2298 H 0.60505 0.10083 0.91285 0.0
C2299 C 0.67163 0.1393 0.82881 0.0
C2300 C 0.64679 0.1261 0.89775 0.0
H2301 H 0.64495 0.09553 0.93656 0.0
C2302 C 0.63403 0.13043 0.90643 0.0
C2303 C 0.65086 0.11346 0.90965 0.0
C2304 C 0.66469 0.10852 0.90358 0.0
C2305 C 0.62517 0.12239 0.92593 0.0
C2306 C 0.62906 0.10955 0.93649 0.0
C2307 C 0.6419 0.10533 0.92837 0.0
C2308 C 0.61996 0.10014 0.9551 0.0
C2309 C 0.61181 0.12786 0.93561 0.0
C2310 C 0.62369 0.09392 0.98788 0.0
C2311 C 0.61589 0.08391 0.00308 0.0
C2312 C 0.6042 0.07987 0.98573 0.0
C2313 C 0.60022 0.08651 0.95378 0.0
C2314 C 0.60804 0.09645 0.93853 0.0
H2315 H 0.61193 0.13879 0.93641 0.0
H2316 H 0.60459 0.12481 0.91446 0.0
H2317 H 0.60838 0.12413 0.96253 0.0
H2318 H 0.63285 0.09656 1.00119 0.0
H2319 H 0.61931 0.07898 0.02755 0.0
H2320 H 0.17247 0.63959 0.31196 0.0
H2321 H 0.15472 0.62667 0.3398 0.0
H2322 H 0.15796 0.6497 0.43847 0.0
H2323 H 0.17545 0.66277 0.4107 0.0
H2324 H 0.15772 0.61134 0.39972 0.0
H2325 H 0.11845 0.64783 0.42671 0.0
H2326 H 0.13203 0.65112 0.39615 0.0
H2327 H 0.13412 0.65273 0.44482 0.0
C2328 C 0.16915 0.64214 0.3392 0.0
C2329 C 0.17539 0.65224 0.35903 0.0
C2330 C 0.15904 0.6347 0.35518 0.0
C2331 C 0.1549 0.63725 0.3912 0.0
C2332 C 0.16075 0.64768 0.41043 0.0
H2333 H 0.12039 0.57806 0.53522 0.0
H2334 H 0.13415 0.59547 0.50892 0.0
C2335 C 0.17082 0.65513 0.39449 0.0
C2336 C 0.14546 0.62823 0.40987 0.0
H2337 H 0.11657 0.6272 0.45793 0.0
C2338 C 0.14868 0.61481 0.41224 0.0
C2339 C 0.13363 0.63271 0.42611 0.0
C2340 C 0.12927 0.64686 0.42306 0.0
C2341 C 0.14054 0.60582 0.43074 0.0
C2342 C 0.12895 0.61038 0.44811 0.0
C2343 C 0.12557 0.62375 0.4452 0.0
C2344 C 0.11994 0.60122 0.4678 0.0
C2345 C 0.14433 0.59145 0.43093 0.0
C2346 C 0.1071 0.59919 0.4549 0.0
C2347 C 0.09916 0.58933 0.47011 0.0
C2348 C 0.1039 0.58132 0.49865 0.0
C2349 C 0.11643 0.58401 0.51324 0.0
C2350 C 0.12436 0.59389 0.49799 0.0
H2351 H 0.15162 0.58913 0.40922 0.0
H2352 H 0.14882 0.58896 0.45771 0.0
H2353 H 0.13555 0.58508 0.427 0.0
H2354 H 0.10343 0.60479 0.43184 0.0
H2355 H 0.08955 0.58757 0.45823 0.0
H2356 H 0.61822 0.92537 0.55509 0.0
H2357 H 0.63141 0.90741 0.58064 0.0
H2358 H 0.6033 0.90278 0.66809 0.0
H2359 H 0.58994 0.92042 0.64232 0.0
H2360 H 0.6432 0.90806 0.64607 0.0
H2361 H 0.60996 0.86488 0.64226 0.0
H2362 H 0.60667 0.87973 0.61675 0.0
H2363 H 0.60265 0.87878 0.66463 0.0
C2364 C 0.61465 0.92028 0.57917 0.0
C2365 C 0.60299 0.92434 0.59657 0.0
C2366 C 0.62225 0.91005 0.59389 0.0
C2367 C 0.61833 0.90364 0.62621 0.0
C2368 C 0.60642 0.90733 0.64275 0.0
H2369 H 0.67439 0.86639 0.77506 0.0
H2370 H 0.65694 0.88014 0.74901 0.0
C2371 C 0.5988 0.9175 0.62798 0.0
C2372 C 0.62729 0.89405 0.64452 0.0
H2373 H 0.62896 0.86303 0.68064 0.0
C2374 C 0.64009 0.89819 0.65341 0.0
C2375 C 0.62329 0.88113 0.654 0.0
C2376 C 0.60994 0.87581 0.6436 0.0
C2377 C 0.64894 0.88987 0.67176 0.0
C2378 C 0.6448 0.87711 0.68244 0.0
C2379 C 0.63206 0.87288 0.67309 0.0
C2380 C 0.65386 0.86782 0.70145 0.0
C2381 C 0.66276 0.89474 0.67876 0.0
C2382 C 0.65733 0.85589 0.68469 0.0
C2383 C 0.66716 0.84793 0.69978 0.0
C2384 C 0.67374 0.85172 0.73201 0.0
C2385 C 0.66958 0.8632 0.75016 0.0
C2386 C 0.65969 0.87114 0.73509 0.0
H2387 H 0.66532 0.90322 0.66094 0.0
H2388 H 0.66358 0.89802 0.70761 0.0
H2389 H 0.67008 0.88679 0.67414 0.0
H2390 H 0.6529 0.85305 0.65891 0.0
H2391 H 0.67007 0.83915 0.68508 0.0
H2392 H 0.32596 0.37267 0.81513 0.0
H2393 H 0.34376 0.38525 0.84317 0.0
H2394 H 0.35664 0.3505 0.90083 0.0
H2395 H 0.33838 0.33804 0.87419 0.0
H2396 H 0.35514 0.36947 0.94659 0.0
H2397 H 0.38196 0.389 0.82721 0.0
H2398 H 0.36493 0.39344 0.82459 0.0
H2399 H 0.36963 0.37632 0.82279 0.0
C2400 C 0.3328 0.3676 0.83295 0.0
C2401 C 0.33079 0.35433 0.84227 0.0
C2402 C 0.34305 0.37482 0.84898 0.0
C2403 C 0.35174 0.36885 0.87392 0.0
C2404 C 0.35011 0.35539 0.88175 0.0
H2405 H 0.41758 0.4165 0.95465 0.0
H2406 H 0.4048 0.39863 0.9272 0.0
C2407 C 0.33971 0.34823 0.86628 0.0
C2408 C 0.36166 0.37686 0.89434 0.0
H2409 H 0.38515 0.40066 0.88397 0.0
C2410 C 0.36184 0.37614 0.93277 0.0
C2411 C 0.37062 0.38546 0.87663 0.0
C2412 C 0.37188 0.38599 0.83553 0.0
C2413 C 0.37034 0.38402 0.95386 0.0
C2414 C 0.37859 0.39331 0.93623 0.0
C2415 C 0.37874 0.39371 0.89776 0.0
C2416 C 0.38686 0.40297 0.95684 0.0
C2417 C 0.37044 0.38214 0.9948 0.0
C2418 C 0.38124 0.41122 0.98352 0.0
C2419 C 0.38866 0.42123 0.99999 0.0
C2420 C 0.40177 0.42346 0.9894 0.0
C2421 C 0.40752 0.41499 0.96354 0.0
C2422 C 0.40018 0.40481 0.94763 0.0
H2423 H 0.36761 0.37191 1.00228 0.0
H2424 H 0.38027 0.38426 0.00666 0.0
H2425 H 0.36312 0.38885 0.0074 0.0
H2426 H 0.37091 0.41034 0.99046 0.0
H2427 H 0.38386 0.42774 0.01927 0.0
H2428 H 0.82495 0.13204 0.2651 0.0
H2429 H 0.84253 0.11912 0.23715 0.0
H2430 H 0.85719 0.15397 0.18329 0.0
H2431 H 0.83928 0.16684 0.21007 0.0
H2432 H 0.85519 0.13504 0.13583 0.0
H2433 H 0.88072 0.11463 0.25643 0.0
H2434 H 0.86351 0.11075 0.25767 0.0
H2435 H 0.86877 0.12769 0.26023 0.0
C2436 C 0.83211 0.13704 0.24808 0.0
C2437 C 0.83072 0.1505 0.23996 0.0
C2438 C 0.84222 0.12962 0.23212 0.0
C2439 C 0.85136 0.13555 0.20832 0.0
C2440 C 0.85031 0.14913 0.20151 0.0
H2441 H 0.91757 0.08822 0.12971 0.0
H2442 H 0.90456 0.10603 0.15647 0.0
C2443 C 0.84009 0.15651 0.21704 0.0
C2444 C 0.86126 0.12743 0.18824 0.0
H2445 H 0.88446 0.10344 0.19942 0.0
C2446 C 0.86171 0.12826 0.14984 0.0
C2447 C 0.86996 0.11869 0.20628 0.0
C2448 C 0.87082 0.11799 0.24743 0.0
C2449 C 0.87027 0.12034 0.12907 0.0
C2450 C 0.87834 0.11099 0.14699 0.0
C2451 C 0.8782 0.11047 0.18544 0.0
C2452 C 0.88674 0.10138 0.12668 0.0
C2453 C 0.87063 0.12223 0.08814 0.0
C2454 C 0.88124 0.09299 0.10011 0.0
C2455 C 0.88877 0.08297 0.08415 0.0
C2456 C 0.90188 0.0809 0.09503 0.0
C2457 C 0.90752 0.08958 0.12059 0.0
C2458 C 0.90005 0.09973 0.13612 0.0
H2459 H 0.86775 0.13242 0.08048 0.0
H2460 H 0.88056 0.12021 0.07683 0.0
H2461 H 0.86348 0.11541 0.07518 0.0
H2462 H 0.87093 0.09377 0.09294 0.0
H2463 H 0.88405 0.07632 0.06503 0.0
H2464 H 0.91612 0.58796 0.96134 0.0
H2465 H 0.90282 0.60548 0.93423 0.0
H2466 H 0.86866 0.59105 0.99181 0.0
H2467 H 0.88201 0.57382 0.01996 0.0
H2468 H 0.88325 0.60247 0.88835 0.0
H2469 H 0.8642 0.62957 0.00816 0.0
H2470 H 0.87743 0.61781 0.01184 0.0
H2471 H 0.86055 0.61234 0.01127 0.0
C2472 C 0.90585 0.58874 0.96904 0.0
C2473 C 0.90016 0.57952 0.99302 0.0
C2474 C 0.89823 0.59873 0.95332 0.0
C2475 C 0.88471 0.59971 0.96106 0.0
C2476 C 0.87911 0.59077 0.98599 0.0
H2477 H 0.82405 0.63133 0.81976 0.0
H2478 H 0.84131 0.61811 0.84828 0.0
C2479 C 0.88677 0.58087 1.00208 0.0
C2480 C 0.87632 0.6093 0.94073 0.0
H2481 H 0.85262 0.63283 0.95165 0.0
C2482 C 0.87667 0.60922 0.90227 0.0
C2483 C 0.86782 0.61827 0.95865 0.0
C2484 C 0.86757 0.61962 0.99975 0.0
C2485 C 0.86855 0.61753 0.88135 0.0
C2486 C 0.85951 0.62595 0.89927 0.0
C2487 C 0.85943 0.62631 0.93774 0.0
C2488 C 0.84984 0.63425 0.87892 0.0
C2489 C 0.8699 0.61729 0.84026 0.0
C2490 C 0.84877 0.64777 0.88651 0.0
C2491 C 0.83877 0.65533 0.87057 0.0
C2492 C 0.82962 0.64955 0.84653 0.0
C2493 C 0.83104 0.63615 0.8377 0.0
C2494 C 0.84096 0.62856 0.85399 0.0
H2495 H 0.87988 0.614 0.83184 0.0
H2496 H 0.86268 0.61021 0.82874 0.0
H2497 H 0.86801 0.62714 0.82817 0.0
H2498 H 0.85547 0.65243 0.90561 0.0
H2499 H 0.83794 0.6656 0.87811 0.0
H2500 H 0.08638 0.09193 0.6309 0.0
H2501 H 0.09941 0.10986 0.65712 0.0
H2502 H 0.13386 0.09544 0.60098 0.0
H2503 H 0.12076 0.07788 0.57351 0.0
H2504 H 0.11844 0.10765 0.70353 0.0
H2505 H 0.13869 0.1336 0.58347 0.0
H2506 H 0.12557 0.12171 0.57946 0.0
H2507 H 0.14249 0.1164 0.58133 0.0
C2508 C 0.09665 0.09283 0.62324 0.0
C2509 C 0.10251 0.08352 0.59989 0.0
C2510 C 0.10412 0.10305 0.63846 0.0
C2511 C 0.11765 0.10414 0.63094 0.0
C2512 C 0.1234 0.09511 0.60656 0.0
H2513 H 0.17792 0.13485 0.77391 0.0
H2514 H 0.16005 0.12233 0.74589 0.0
C2515 C 0.11588 0.08501 0.59086 0.0
C2516 C 0.12595 0.11388 0.65115 0.0
H2517 H 0.15031 0.13675 0.64024 0.0
C2518 C 0.12527 0.11414 0.68958 0.0
C2519 C 0.13476 0.12256 0.63322 0.0
C2520 C 0.13531 0.12366 0.59209 0.0
C2521 C 0.13341 0.12245 0.71048 0.0
C2522 C 0.14286 0.13046 0.69263 0.0
C2523 C 0.14322 0.13053 0.65416 0.0
C2524 C 0.15275 0.1385 0.71303 0.0
C2525 C 0.13167 0.12262 0.75146 0.0
C2526 C 0.15473 0.15182 0.70408 0.0
C2527 C 0.16513 0.15895 0.71965 0.0
C2528 C 0.17373 0.15295 0.74477 0.0
C2529 C 0.17134 0.13984 0.75516 0.0
C2530 C 0.16107 0.13265 0.73914 0.0
H2531 H 0.12143 0.11995 0.75924 0.0
H2532 H 0.13833 0.11523 0.76393 0.0
H2533 H 0.13399 0.13244 0.76316 0.0
H2534 H 0.14849 0.1566 0.68408 0.0
H2535 H 0.16673 0.16901 0.71091 0.0
H2536 H 0.67997 0.37134 0.32308 0.0
H2537 H 0.66318 0.38523 0.35146 0.0
H2538 H 0.6477 0.35148 0.40878 0.0
H2539 H 0.6648 0.33764 0.38159 0.0
H2540 H 0.63716 0.3866 0.35485 0.0
H2541 H 0.65622 0.37509 0.49327 0.0
H2542 H 0.6646 0.37002 0.45218 0.0
H2543 H 0.6507 0.36079 0.46891 0.0
C2544 C 0.67283 0.36681 0.34113 0.0
C2545 C 0.67381 0.3534 0.35034 0.0
C2546 C 0.66326 0.37479 0.35753 0.0
C2547 C 0.65442 0.36951 0.38325 0.0
C2548 C 0.65469 0.3559 0.39007 0.0
H2549 H 0.58923 0.41783 0.46634 0.0
H2550 H 0.60196 0.40004 0.4384 0.0
C2551 C 0.66438 0.34795 0.37412 0.0
C2552 C 0.64539 0.37837 0.404 0.0
H2553 H 0.63699 0.38816 0.49045 0.0
C2554 C 0.6371 0.38691 0.3845 0.0
C2555 C 0.64548 0.37899 0.44277 0.0
C2556 C 0.65481 0.37084 0.46553 0.0
C2557 C 0.62895 0.39603 0.40252 0.0
C2558 C 0.62872 0.39636 0.44131 0.0
C2559 C 0.637 0.3878 0.4608 0.0
C2560 C 0.62056 0.40602 0.46206 0.0
C2561 C 0.62107 0.40557 0.37966 0.0
C2562 C 0.62654 0.41475 0.48687 0.0
C2563 C 0.61921 0.42473 0.50369 0.0
C2564 C 0.60574 0.42625 0.49583 0.0
C2565 C 0.5996 0.417 0.47278 0.0
C2566 C 0.60691 0.40691 0.45639 0.0
H2567 H 0.62512 0.4065 0.35154 0.0
H2568 H 0.61079 0.40196 0.37732 0.0
H2569 H 0.62088 0.4155 0.39234 0.0
H2570 H 0.63703 0.41421 0.49204 0.0
H2571 H 0.62426 0.43171 0.52115 0.0
H2572 H 0.38153 0.93177 0.07166 0.0
H2573 H 0.36772 0.91507 0.10093 0.0
H2574 H 0.40179 0.89932 0.15598 0.0
H2575 H 0.41556 0.9163 0.12786 0.0
H2576 H 0.36635 0.88903 0.10319 0.0
H2577 H 0.37868 0.90715 0.24199 0.0
H2578 H 0.38352 0.91582 0.20112 0.0
H2579 H 0.39286 0.90185 0.21678 0.0
C2580 C 0.38613 0.92461 0.0895 0.0
C2581 C 0.39964 0.92546 0.09765 0.0
C2582 C 0.3782 0.91509 0.1064 0.0
C2583 C 0.38361 0.90615 0.13162 0.0
C2584 C 0.39727 0.90637 0.13766 0.0
H2585 H 0.33684 0.83957 0.21341 0.0
H2586 H 0.35406 0.85296 0.185 0.0
C2587 C 0.40518 0.916 0.12118 0.0
C2588 C 0.37488 0.89696 0.15236 0.0
H2589 H 0.36579 0.88774 0.23881 0.0
C2590 C 0.36625 0.88874 0.13285 0.0
C2591 C 0.37453 0.89673 0.19115 0.0
C2592 C 0.38278 0.90595 0.21402 0.0
C2593 C 0.35735 0.88032 0.15087 0.0
C2594 C 0.35732 0.87976 0.18964 0.0
C2595 C 0.36592 0.888 0.20915 0.0
C2596 C 0.34796 0.87121 0.21041 0.0
C2597 C 0.34773 0.8725 0.12806 0.0
C2598 C 0.33936 0.87676 0.23628 0.0
C2599 C 0.32969 0.86904 0.25332 0.0
C2600 C 0.32838 0.85561 0.2447 0.0
C2601 C 0.33751 0.8499 0.22048 0.0
C2602 C 0.34727 0.85759 0.20383 0.0
H2603 H 0.34651 0.8768 0.10032 0.0
H2604 H 0.35149 0.86232 0.12469 0.0
H2605 H 0.33792 0.87201 0.14136 0.0
H2606 H 0.33974 0.88721 0.24217 0.0
H2607 H 0.3228 0.87377 0.2717 0.0
H2608 H 0.83163 0.36751 0.78094 0.0
H2609 H 0.84909 0.38078 0.7529 0.0
H2610 H 0.84914 0.35512 0.65898 0.0
H2611 H 0.83191 0.3417 0.68699 0.0
H2612 H 0.87433 0.36347 0.67789 0.0
H2613 H 0.83972 0.40561 0.66875 0.0
H2614 H 0.84218 0.39952 0.71434 0.0
H2615 H 0.8344 0.38922 0.68068 0.0
C2616 C 0.83556 0.36451 0.75471 0.0
C2617 C 0.83027 0.3536 0.73611 0.0
C2618 C 0.84546 0.37218 0.73853 0.0
C2619 C 0.8502 0.36914 0.70339 0.0
C2620 C 0.84558 0.35774 0.68595 0.0
H2621 H 0.8856 0.42664 0.55623 0.0
H2622 H 0.87216 0.40892 0.5822 0.0
C2623 C 0.83571 0.35005 0.70208 0.0
C2624 C 0.85929 0.37824 0.68374 0.0
H2625 H 0.86166 0.40955 0.65015 0.0
C2626 C 0.87157 0.37355 0.67183 0.0
C2627 C 0.85557 0.39131 0.67506 0.0
C2628 C 0.84221 0.39672 0.68502 0.0
C2629 C 0.88033 0.38166 0.65217 0.0
C2630 C 0.87679 0.39486 0.6446 0.0
C2631 C 0.86442 0.39946 0.65601 0.0
C2632 C 0.88581 0.40426 0.62577 0.0
C2633 C 0.89319 0.37591 0.63913 0.0
C2634 C 0.89812 0.40737 0.641 0.0
C2635 C 0.90586 0.41743 0.62604 0.0
C2636 C 0.90142 0.42471 0.59568 0.0
C2637 C 0.88937 0.4212 0.57945 0.0
C2638 C 0.88163 0.41111 0.59442 0.0
H2639 H 0.89268 0.36501 0.63712 0.0
H2640 H 0.89601 0.37996 0.61202 0.0
H2641 H 0.90106 0.37843 0.659 0.0
H2642 H 0.90147 0.40246 0.66557 0.0
H2643 H 0.91504 0.41991 0.63945 0.0
H2644 H 0.3822 0.07429 0.52086 0.0
H2645 H 0.36895 0.09136 0.49142 0.0
H2646 H 0.40368 0.10649 0.43799 0.0
H2647 H 0.41687 0.08908 0.46615 0.0
H2648 H 0.36806 0.1172 0.48977 0.0
H2649 H 0.381 0.09969 0.35084 0.0
H2650 H 0.38549 0.09076 0.39154 0.0
H2651 H 0.39511 0.10469 0.37683 0.0
C2652 C 0.38707 0.08138 0.50333 0.0
C2653 C 0.40058 0.08025 0.49562 0.0
C2654 C 0.37946 0.09112 0.48633 0.0
C2655 C 0.38521 0.1 0.46149 0.0
C2656 C 0.39889 0.09949 0.45595 0.0
H2657 H 0.3391 0.16724 0.38126 0.0
H2658 H 0.35635 0.1538 0.40926 0.0
C2659 C 0.40647 0.08962 0.47247 0.0
C2660 C 0.3768 0.10945 0.4407 0.0
H2661 H 0.36842 0.11926 0.35423 0.0
C2662 C 0.36816 0.11766 0.46013 0.0
C2663 C 0.37671 0.10991 0.40191 0.0
C2664 C 0.38497 0.1007 0.37902 0.0
C2665 C 0.35946 0.12625 0.44205 0.0
C2666 C 0.3597 0.12704 0.40331 0.0
C2667 C 0.36835 0.11884 0.38387 0.0
C2668 C 0.35051 0.13571 0.38245 0.0
C2669 C 0.34975 0.13398 0.46475 0.0
C2670 C 0.3421 0.13031 0.35582 0.0
C2671 C 0.33246 0.13808 0.33894 0.0
C2672 C 0.33096 0.1514 0.34857 0.0
C2673 C 0.33993 0.15699 0.37344 0.0
C2674 C 0.3497 0.14927 0.38986 0.0
H2675 H 0.34831 0.12951 0.49219 0.0
H2676 H 0.35355 0.14412 0.46883 0.0
H2677 H 0.34003 0.13461 0.45098 0.0
H2678 H 0.34258 0.11992 0.34928 0.0
H2679 H 0.32568 0.13344 0.32004 0.0
H2680 H 0.58912 0.58656 0.12839 0.0
H2681 H 0.60211 0.60422 0.15612 0.0
H2682 H 0.63649 0.59078 0.09788 0.0
H2683 H 0.62344 0.57343 0.06908 0.0
H2684 H 0.62166 0.60158 0.20181 0.0
H2685 H 0.64035 0.62937 0.08277 0.0
H2686 H 0.62736 0.61734 0.07869 0.0
H2687 H 0.64434 0.61224 0.07921 0.0
C2688 C 0.59936 0.5876 0.12068 0.0
C2689 C 0.60521 0.57862 0.09629 0.0
C2690 C 0.60682 0.59766 0.13676 0.0
C2691 C 0.62031 0.59897 0.12901 0.0
C2692 C 0.62606 0.59026 0.10372 0.0
H2693 H 0.68031 0.63114 0.2718 0.0
H2694 H 0.66325 0.61777 0.24283 0.0
C2695 C 0.61857 0.58029 0.08726 0.0
C2696 C 0.62854 0.60866 0.14961 0.0
H2697 H 0.65192 0.6326 0.13936 0.0
C2698 C 0.62816 0.60847 0.18807 0.0
C2699 C 0.63692 0.61782 0.13195 0.0
C2700 C 0.63717 0.61932 0.09089 0.0
C2701 C 0.63614 0.61686 0.20922 0.0
C2702 C 0.64509 0.62546 0.19155 0.0
C2703 C 0.64519 0.62593 0.15309 0.0
C2704 C 0.65465 0.63385 0.21215 0.0
C2705 C 0.63473 0.6165 0.25029 0.0
C2706 C 0.65563 0.64739 0.20467 0.0
C2707 C 0.66554 0.65503 0.22085 0.0
C2708 C 0.67467 0.64933 0.24505 0.0
C2709 C 0.67333 0.6359 0.25376 0.0
C2710 C 0.66352 0.62823 0.23721 0.0
H2711 H 0.62476 0.61309 0.25852 0.0
H2712 H 0.64198 0.60946 0.26176 0.0
H2713 H 0.63651 0.62633 0.26261 0.0
H2714 H 0.64894 0.652 0.18548 0.0
H2715 H 0.66631 0.66532 0.21339 0.0
H2716 H 0.16592 0.84068 0.86994 0.0
H2717 H 0.148 0.85346 0.89707 0.0
H2718 H 0.16378 0.88883 0.8485 0.0
H2719 H 0.18133 0.87602 0.82009 0.0
H2720 H 0.14996 0.8714 0.94693 0.0
H2721 H 0.12595 0.89469 0.82808 0.0
H2722 H 0.13764 0.88146 0.82302 0.0
H2723 H 0.14323 0.89821 0.82828 0.0
C2724 C 0.16534 0.85113 0.86414 0.0
C2725 C 0.17501 0.85731 0.8426 0.0
C2726 C 0.15512 0.85845 0.87989 0.0
C2727 C 0.1544 0.87214 0.87472 0.0
C2728 C 0.16383 0.87826 0.85222 0.0
H2729 H 0.12252 0.92954 0.02484 0.0
H2730 H 0.13524 0.91222 0.99501 0.0
C2731 C 0.17392 0.8709 0.83599 0.0
C2732 C 0.14455 0.88015 0.89536 0.0
H2733 H 0.1222 0.90505 0.88637 0.0
C2734 C 0.14376 0.87863 0.93355 0.0
C2735 C 0.13625 0.88947 0.87812 0.0
C2736 C 0.1357 0.89095 0.83708 0.0
C2737 C 0.1353 0.88642 0.95496 0.0
C2738 C 0.12767 0.89636 0.93798 0.0
C2739 C 0.12812 0.89757 0.89966 0.0
C2740 C 0.11946 0.90588 0.95921 0.0
C2741 C 0.13455 0.88376 0.99551 0.0
C2742 C 0.10631 0.90822 0.94922 0.0
C2743 C 0.09908 0.91831 0.96585 0.0
C2744 C 0.1048 0.92624 0.99309 0.0
C2745 C 0.11774 0.92347 0.00441 0.0
C2746 C 0.12503 0.91351 0.98735 0.0
H2747 H 0.13698 0.87334 1.00178 0.0
H2748 H 0.14184 0.89005 0.00987 0.0
H2749 H 0.1246 0.88594 0.00657 0.0
H2750 H 0.10174 0.9025 0.92765 0.0
H2751 H 0.08916 0.92022 0.95636 0.0
loop_
_geom_bond_atom_site_label_1
_geom_bond_atom_site_label_2
_geom_bond_distance
_geom_bond_site_symmetry_2
_ccdc_geom_bond_type
O0 Cd1 2.223 . S
O0 C8 1.315 . S
Cd1 O0 2.223 . S
Cd1 O4 2.297 . S
Cd1 O5 2.439 . S
Cd1 O11 2.240 . S
Cd2 O3 2.240 . S
Cd2 O10 2.223 . S
Cd2 O12 2.297 1_554 S
Cd2 O13 2.439 1_554 S
O3 Cd2 2.240 . S
O3 C8 1.279 . S
O4 Cd1 2.297 . S
O4 C6 1.247 . S
O5 Cd1 2.439 . S
O5 C6 1.208 . S
C6 O4 1.247 . S
C6 O5 1.208 . S
C7 O12 1.247 . S
C7 O13 1.208 . S
C8 O0 1.315 . S
C8 O3 1.279 . S
C9 O10 1.315 . S
C9 O11 1.279 . S
O10 Cd2 2.223 . S
O10 C9 1.315 . S
O11 Cd1 2.240 . S
O11 C9 1.279 . S
O12 Cd2 2.297 1_556 S
O12 C7 1.247 . S
O13 Cd2 2.439 1_556 S
O13 C7 1.208 . S
O14 Cd15 2.223 . S
O14 C22 1.315 . S
Cd15 O14 2.223 . S
Cd15 O18 2.297 . S
Cd15 O19 2.439 . S
Cd15 O25 2.240 . S
Cd16 O17 2.240 . S
Cd16 O24 2.223 . S
Cd16 O26 2.297 . S
Cd16 O27 2.439 . S
O17 Cd16 2.240 . S
O17 C22 1.279 . S
O18 Cd15 2.297 . S
O18 C20 1.247 . S
O19 Cd15 2.439 . S
O19 C20 1.208 . S
C20 O18 1.247 . S
C20 O19 1.208 . S
C21 O26 1.247 . S
C21 O27 1.208 . S
C22 O14 1.315 . S
C22 O17 1.279 . S
C23 O24 1.315 . S
C23 O25 1.279 . S
O24 Cd16 2.223 . S
O24 C23 1.315 . S
O25 Cd15 2.240 . S
O25 C23 1.279 . S
O26 Cd16 2.297 . S
O26 C21 1.247 . S
O27 Cd16 2.439 . S
O27 C21 1.208 . S
O28 Cd29 2.223 . S
O28 C36 1.315 . S
Cd29 O28 2.223 . S
Cd29 O32 2.297 . S
Cd29 O33 2.439 . S
Cd29 O39 2.240 . S
Cd30 O31 2.240 . S
Cd30 O38 2.223 . S
Cd30 O40 2.297 . S
Cd30 O41 2.439 . S
O31 Cd30 2.240 . S
O31 C36 1.279 . S
O32 Cd29 2.297 . S
O32 C34 1.247 . S
O33 Cd29 2.439 . S
O33 C34 1.208 . S
C34 O32 1.247 . S
C34 O33 1.208 . S
C35 O40 1.247 . S
C35 O41 1.208 . S
C36 O28 1.315 . S
C36 O31 1.279 . S
C37 O38 1.315 . S
C37 O39 1.279 . S
O38 Cd30 2.223 . S
O38 C37 1.315 . S
O39 Cd29 2.240 . S
O39 C37 1.279 . S
O40 Cd30 2.297 . S
O40 C35 1.247 . S
O41 Cd30 2.439 . S
O41 C35 1.208 . S
O42 Cd43 2.223 . S
O42 C50 1.315 . S
Cd43 O42 2.223 . S
Cd43 O46 2.297 . S
Cd43 O47 2.439 . S
Cd43 O53 2.240 . S
Cd44 O45 2.240 . S
Cd44 O52 2.223 . S
Cd44 O54 2.297 . S
Cd44 O55 2.439 . S
O45 Cd44 2.240 . S
O45 C50 1.279 . S
O46 Cd43 2.297 . S
O46 C48 1.247 . S
O47 Cd43 2.439 . S
O47 C48 1.208 . S
C48 O46 1.247 . S
C48 O47 1.208 . S
C49 O54 1.247 . S
C49 O55 1.208 . S
C50 O42 1.315 . S
C50 O45 1.279 . S
C51 O52 1.315 . S
C51 O53 1.279 . S
O52 Cd44 2.223 . S
O52 C51 1.315 . S
O53 Cd43 2.240 . S
O53 C51 1.279 . S
O54 Cd44 2.297 . S
O54 C49 1.247 . S
O55 Cd44 2.439 . S
O55 C49 1.208 . S
O56 Cd57 2.223 . S
O56 C64 1.315 . S
Cd57 O56 2.223 . S
Cd57 O60 2.297 . S
Cd57 O61 2.439 . S
Cd57 O67 2.240 . S
Cd58 O59 2.240 . S
Cd58 O66 2.223 . S
Cd58 O68 2.297 . S
Cd58 O69 2.439 . S
O59 Cd58 2.240 . S
O59 C64 1.279 . S
O60 Cd57 2.297 . S
O60 C62 1.247 . S
O61 Cd57 2.439 . S
O61 C62 1.208 . S
C62 O60 1.247 . S
C62 O61 1.208 . S
C63 O68 1.247 . S
C63 O69 1.208 . S
C64 O56 1.315 . S
C64 O59 1.279 . S
C65 O66 1.315 . S
C65 O67 1.279 . S
O66 Cd58 2.223 . S
O66 C65 1.315 . S
O67 Cd57 2.240 . S
O67 C65 1.279 . S
O68 Cd58 2.297 . S
O68 C63 1.247 . S
O69 Cd58 2.439 . S
O69 C63 1.208 . S
O70 Cd71 2.223 . S
O70 C78 1.315 . S
Cd71 O70 2.223 . S
Cd71 O74 2.297 . S
Cd71 O75 2.439 . S
Cd71 O81 2.240 . S
Cd72 O73 2.240 . S
Cd72 O80 2.223 . S
Cd72 O82 2.297 . S
Cd72 O83 2.439 . S
O73 Cd72 2.240 . S
O73 C78 1.279 . S
O74 Cd71 2.297 . S
O74 C76 1.247 . S
O75 Cd71 2.439 . S
O75 C76 1.208 . S
C76 O74 1.247 . S
C76 O75 1.208 . S
C77 O82 1.247 . S
C77 O83 1.208 . S
C78 O70 1.315 . S
C78 O73 1.279 . S
C79 O80 1.315 . S
C79 O81 1.279 . S
O80 Cd72 2.223 . S
O80 C79 1.315 . S
O81 Cd71 2.240 . S
O81 C79 1.279 . S
O82 Cd72 2.297 . S
O82 C77 1.247 . S
O83 Cd72 2.439 . S
O83 C77 1.208 . S
O84 Cd85 2.223 . S
O84 C92 1.315 . S
Cd85 O84 2.223 . S
Cd85 O88 2.297 . S
Cd85 O89 2.439 1_556 S
Cd85 O95 2.240 1_556 S
Cd86 O87 2.240 1_554 S
Cd86 O94 2.223 . S
Cd86 O96 2.297 . S
Cd86 O97 2.439 . S
O87 Cd86 2.240 1_556 S
O87 C92 1.279 . S
O88 Cd85 2.297 . S
O88 C90 1.247 . S
O89 Cd85 2.439 1_554 S
O89 C90 1.208 1_554 S
C90 O88 1.247 . S
C90 O89 1.208 1_556 S
C91 O96 1.247 . S
C91 O97 1.208 . S
C92 O84 1.315 . S
C92 O87 1.279 . S
C93 O94 1.315 . S
C93 O95 1.279 . S
O94 Cd86 2.223 . S
O94 C93 1.315 . S
O95 Cd85 2.240 1_554 S
O95 C93 1.279 . S
O96 Cd86 2.297 . S
O96 C91 1.247 . S
O97 Cd86 2.439 . S
O97 C91 1.208 . S
O98 Cd99 2.223 . S
O98 C106 1.315 . S
Cd99 O98 2.223 . S
Cd99 O102 2.297 . S
Cd99 O103 2.439 . S
Cd99 O109 2.240 . S
Cd100 O101 2.240 . S
Cd100 O108 2.223 . S
Cd100 O110 2.297 . S
Cd100 O111 2.439 . S
O101 Cd100 2.240 . S
O101 C106 1.279 . S
O102 Cd99 2.297 . S
O102 C104 1.247 . S
O103 Cd99 2.439 . S
O103 C104 1.208 . S
C104 O102 1.247 . S
C104 O103 1.208 . S
C105 O110 1.247 . S
C105 O111 1.208 . S
C106 O98 1.315 . S
C106 O101 1.279 . S
C107 O108 1.315 . S
C107 O109 1.279 . S
O108 Cd100 2.223 . S
O108 C107 1.315 . S
O109 Cd99 2.240 . S
O109 C107 1.279 . S
O110 Cd100 2.297 . S
O110 C105 1.247 . S
O111 Cd100 2.439 . S
O111 C105 1.208 . S
O112 Cd113 2.223 . S
O112 C120 1.315 . S
Cd113 O112 2.223 . S
Cd113 O116 2.297 . S
Cd113 O117 2.439 1_556 S
Cd113 O123 2.240 1_556 S
Cd114 O115 2.240 1_554 S
Cd114 O122 2.223 . S
Cd114 O124 2.297 . S
Cd114 O125 2.439 . S
O115 Cd114 2.240 1_556 S
O115 C120 1.279 . S
O116 Cd113 2.297 . S
O116 C118 1.247 . S
O117 Cd113 2.439 1_554 S
O117 C118 1.208 1_554 S
C118 O116 1.247 . S
C118 O117 1.208 1_556 S
C119 O124 1.247 . S
C119 O125 1.208 . S
C120 O112 1.315 . S
C120 O115 1.279 . S
C121 O122 1.315 . S
C121 O123 1.279 . S
O122 Cd114 2.223 . S
O122 C121 1.315 . S
O123 Cd113 2.240 1_554 S
O123 C121 1.279 . S
O124 Cd114 2.297 . S
O124 C119 1.247 . S
O125 Cd114 2.439 . S
O125 C119 1.208 . S
O126 Cd127 2.223 . S
O126 C134 1.315 . S
Cd127 O126 2.223 . S
Cd127 O130 2.297 . S
Cd127 O131 2.439 . S
Cd127 O137 2.240 . S
Cd128 O129 2.240 . S
Cd128 O136 2.223 . S
Cd128 O138 2.297 . S
Cd128 O139 2.439 . S
O129 Cd128 2.240 . S
O129 C134 1.279 . S
O130 Cd127 2.297 . S
O130 C132 1.247 . S
O131 Cd127 2.439 . S
O131 C132 1.208 . S
C132 O130 1.247 . S
C132 O131 1.208 . S
C133 O138 1.247 . S
C133 O139 1.208 . S
C134 O126 1.315 . S
C134 O129 1.279 . S
C135 O136 1.315 . S
C135 O137 1.279 . S
O136 Cd128 2.223 . S
O136 C135 1.315 . S
O137 Cd127 2.240 . S
O137 C135 1.279 . S
O138 Cd128 2.297 . S
O138 C133 1.247 . S
O139 Cd128 2.439 . S
O139 C133 1.208 . S
O140 Cd141 2.223 . S
O140 C148 1.315 . S
Cd141 O140 2.223 . S
Cd141 O144 2.297 . S
Cd141 O145 2.439 . S
Cd141 O151 2.240 . S
Cd142 O143 2.240 . S
Cd142 O150 2.223 . S
Cd142 O152 2.297 . S
Cd142 O153 2.439 . S
O143 Cd142 2.240 . S
O143 C148 1.279 . S
O144 Cd141 2.297 . S
O144 C146 1.247 . S
O145 Cd141 2.439 . S
O145 C146 1.208 . S
C146 O144 1.247 . S
C146 O145 1.208 . S
C147 O152 1.247 . S
C147 O153 1.208 . S
C148 O140 1.315 . S
C148 O143 1.279 . S
C149 O150 1.315 . S
C149 O151 1.279 . S
O150 Cd142 2.223 . S
O150 C149 1.315 . S
O151 Cd141 2.240 . S
O151 C149 1.279 . S
O152 Cd142 2.297 . S
O152 C147 1.247 . S
O153 Cd142 2.439 . S
O153 C147 1.208 . S
O154 Cd155 2.223 . S
O154 C162 1.315 . S
Cd155 O154 2.223 . S
Cd155 O158 2.297 . S
Cd155 O159 2.439 . S
Cd155 O165 2.240 . S
Cd156 O157 2.240 . S
Cd156 O164 2.223 . S
Cd156 O166 2.297 . S
Cd156 O167 2.439 . S
O157 Cd156 2.240 . S
O157 C162 1.279 . S
O158 Cd155 2.297 . S
O158 C160 1.247 . S
O159 Cd155 2.439 . S
O159 C160 1.208 . S
C160 O158 1.247 . S
C160 O159 1.208 . S
C161 O166 1.247 . S
C161 O167 1.208 . S
C162 O154 1.315 . S
C162 O157 1.279 . S
C163 O164 1.315 . S
C163 O165 1.279 . S
O164 Cd156 2.223 . S
O164 C163 1.315 . S
O165 Cd155 2.240 . S
O165 C163 1.279 . S
O166 Cd156 2.297 . S
O166 C161 1.247 . S
O167 Cd156 2.439 . S
O167 C161 1.208 . S
O168 Cd169 2.223 . S
O168 C176 1.315 . S
Cd169 O168 2.223 . S
Cd169 O172 2.297 . S
Cd169 O173 2.439 . S
Cd169 O179 2.240 . S
Cd170 O171 2.240 . S
Cd170 O178 2.223 . S
Cd170 O180 2.297 . S
Cd170 O181 2.439 . S
O171 Cd170 2.240 . S
O171 C176 1.279 . S
O172 Cd169 2.297 . S
O172 C174 1.247 . S
O173 Cd169 2.439 . S
O173 C174 1.208 . S
C174 O172 1.247 . S
C174 O173 1.208 . S
C175 O180 1.247 . S
C175 O181 1.208 . S
C176 O168 1.315 . S
C176 O171 1.279 . S
C177 O178 1.315 . S
C177 O179 1.279 . S
O178 Cd170 2.223 . S
O178 C177 1.315 . S
O179 Cd169 2.240 . S
O179 C177 1.279 . S
O180 Cd170 2.297 . S
O180 C175 1.247 . S
O181 Cd170 2.439 . S
O181 C175 1.208 . S
O182 Cd183 2.223 . S
O182 C190 1.315 . S
Cd183 O182 2.223 . S
Cd183 O186 2.297 . S
Cd183 O187 2.439 . S
Cd183 O193 2.240 . S
Cd184 O185 2.240 . S
Cd184 O192 2.223 . S
Cd184 O194 2.297 . S
Cd184 O195 2.439 . S
O185 Cd184 2.240 . S
O185 C190 1.279 . S
O186 Cd183 2.297 . S
O186 C188 1.247 . S
O187 Cd183 2.439 . S
O187 C188 1.208 . S
C188 O186 1.247 . S
C188 O187 1.208 . S
C189 O194 1.247 . S
C189 O195 1.208 . S
C190 O182 1.315 . S
C190 O185 1.279 . S
C191 O192 1.315 . S
C191 O193 1.279 . S
O192 Cd184 2.223 . S
O192 C191 1.315 . S
O193 Cd183 2.240 . S
O193 C191 1.279 . S
O194 Cd184 2.297 . S
O194 C189 1.247 . S
O195 Cd184 2.439 . S
O195 C189 1.208 . S
O196 Cd197 2.223 . S
O196 C204 1.315 . S
Cd197 O196 2.223 . S
Cd197 O200 2.297 . S
Cd197 O201 2.439 . S
Cd197 O207 2.240 . S
Cd198 O199 2.240 . S
Cd198 O206 2.223 . S
Cd198 O208 2.297 1_554 S
Cd198 O209 2.439 1_554 S
O199 Cd198 2.240 . S
O199 C204 1.279 . S
O200 Cd197 2.297 . S
O200 C202 1.247 . S
O201 Cd197 2.439 . S
O201 C202 1.208 . S
C202 O200 1.247 . S
C202 O201 1.208 . S
C203 O208 1.247 . S
C203 O209 1.208 . S
C204 O196 1.315 . S
C204 O199 1.279 . S
C205 O206 1.315 . S
C205 O207 1.279 . S
O206 Cd198 2.223 . S
O206 C205 1.315 . S
O207 Cd197 2.240 . S
O207 C205 1.279 . S
O208 Cd198 2.297 1_556 S
O208 C203 1.247 . S
O209 Cd198 2.439 1_556 S
O209 C203 1.208 . S
O210 Cd211 2.223 . S
O210 C218 1.315 . S
Cd211 O210 2.223 . S
Cd211 O214 2.297 . S
Cd211 O215 2.439 . S
Cd211 O221 2.240 . S
Cd212 O213 2.240 . S
Cd212 O220 2.223 . S
Cd212 O222 2.297 . S
Cd212 O223 2.439 . S
O213 Cd212 2.240 . S
O213 C218 1.279 . S
O214 Cd211 2.297 . S
O214 C216 1.247 . S
O215 Cd211 2.439 . S
O215 C216 1.208 . S
C216 O214 1.247 . S
C216 O215 1.208 . S
C217 O222 1.247 . S
C217 O223 1.208 . S
C218 O210 1.315 . S
C218 O213 1.279 . S
C219 O220 1.315 . S
C219 O221 1.279 . S
O220 Cd212 2.223 . S
O220 C219 1.315 . S
O221 Cd211 2.240 . S
O221 C219 1.279 . S
O222 Cd212 2.297 . S
O222 C217 1.247 . S
O223 Cd212 2.439 . S
O223 C217 1.208 . S
O224 Cd225 2.223 . S
O224 C232 1.315 . S
Cd225 O224 2.223 . S
Cd225 O228 2.297 . S
Cd225 O229 2.439 . S
Cd225 O235 2.240 . S
Cd226 O227 2.240 . S
Cd226 O234 2.223 . S
Cd226 O236 2.297 . S
Cd226 O237 2.439 . S
O227 Cd226 2.240 . S
O227 C232 1.279 . S
O228 Cd225 2.297 . S
O228 C230 1.247 . S
O229 Cd225 2.439 . S
O229 C230 1.208 . S
C230 O228 1.247 . S
C230 O229 1.208 . S
C231 O236 1.247 . S
C231 O237 1.208 . S
C232 O224 1.315 . S
C232 O227 1.279 . S
C233 O234 1.315 . S
C233 O235 1.279 . S
O234 Cd226 2.223 . S
O234 C233 1.315 . S
O235 Cd225 2.240 . S
O235 C233 1.279 . S
O236 Cd226 2.297 . S
O236 C231 1.247 . S
O237 Cd226 2.439 . S
O237 C231 1.208 . S
O238 Cd239 2.223 . S
O238 C246 1.315 . S
Cd239 O238 2.223 . S
Cd239 O242 2.297 . S
Cd239 O243 2.439 . S
Cd239 O249 2.240 . S
Cd240 O241 2.240 . S
Cd240 O248 2.223 . S
Cd240 O250 2.297 . S
Cd240 O251 2.439 . S
O241 Cd240 2.240 . S
O241 C246 1.279 . S
O242 Cd239 2.297 . S
O242 C244 1.247 . S
O243 Cd239 2.439 . S
O243 C244 1.208 . S
C244 O242 1.247 . S
C244 O243 1.208 . S
C245 O250 1.247 . S
C245 O251 1.208 . S
C246 O238 1.315 . S
C246 O241 1.279 . S
C247 O248 1.315 . S
C247 O249 1.279 . S
O248 Cd240 2.223 . S
O248 C247 1.315 . S
O249 Cd239 2.240 . S
O249 C247 1.279 . S
O250 Cd240 2.297 . S
O250 C245 1.247 . S
O251 Cd240 2.439 . S
O251 C245 1.208 . S
O252 Cd253 2.223 . S
O252 C260 1.315 . S
Cd253 O252 2.223 . S
Cd253 O256 2.297 . S
Cd253 O257 2.439 . S
Cd253 O263 2.240 . S
Cd254 O255 2.240 . S
Cd254 O262 2.223 . S
Cd254 O264 2.297 1_554 S
Cd254 O265 2.439 1_554 S
O255 Cd254 2.240 . S
O255 C260 1.279 . S
O256 Cd253 2.297 . S
O256 C258 1.247 . S
O257 Cd253 2.439 . S
O257 C258 1.208 . S
C258 O256 1.247 . S
C258 O257 1.208 . S
C259 O264 1.247 . S
C259 O265 1.208 . S
C260 O252 1.315 . S
C260 O255 1.279 . S
C261 O262 1.315 . S
C261 O263 1.279 . S
O262 Cd254 2.223 . S
O262 C261 1.315 . S
O263 Cd253 2.240 . S
O263 C261 1.279 . S
O264 Cd254 2.297 1_556 S
O264 C259 1.247 . S
O265 Cd254 2.439 1_556 S
O265 C259 1.208 . S
O266 Cd267 2.223 . S
O266 C274 1.315 . S
Cd267 O266 2.223 . S
Cd267 O270 2.297 . S
Cd267 O271 2.439 . S
Cd267 O277 2.240 . S
Cd268 O269 2.240 . S
Cd268 O276 2.223 . S
Cd268 O278 2.297 . S
Cd268 O279 2.439 . S
O269 Cd268 2.240 . S
O269 C274 1.279 . S
O270 Cd267 2.297 . S
O270 C272 1.247 . S
O271 Cd267 2.439 . S
O271 C272 1.208 . S
C272 O270 1.247 . S
C272 O271 1.208 . S
C273 O278 1.247 . S
C273 O279 1.208 . S
C274 O266 1.315 . S
C274 O269 1.279 . S
C275 O276 1.315 . S
C275 O277 1.279 . S
O276 Cd268 2.223 . S
O276 C275 1.315 . S
O277 Cd267 2.240 . S
O277 C275 1.279 . S
O278 Cd268 2.297 . S
O278 C273 1.247 . S
O279 Cd268 2.439 . S
O279 C273 1.208 . S
O280 Cd281 2.223 . S
O280 C288 1.315 . S
Cd281 O280 2.223 . S
Cd281 O284 2.297 . S
Cd281 O285 2.439 1_556 S
Cd281 O291 2.240 1_556 S
Cd282 O283 2.240 1_554 S
Cd282 O290 2.223 . S
Cd282 O292 2.297 . S
Cd282 O293 2.439 . S
O283 Cd282 2.240 1_556 S
O283 C288 1.279 . S
O284 Cd281 2.297 . S
O284 C286 1.247 . S
O285 Cd281 2.439 1_554 S
O285 C286 1.208 1_554 S
C286 O284 1.247 . S
C286 O285 1.208 1_556 S
C287 O292 1.247 . S
C287 O293 1.208 . S
C288 O280 1.315 . S
C288 O283 1.279 . S
C289 O290 1.315 . S
C289 O291 1.279 . S
O290 Cd282 2.223 . S
O290 C289 1.315 . S
O291 Cd281 2.240 1_554 S
O291 C289 1.279 . S
O292 Cd282 2.297 . S
O292 C287 1.247 . S
O293 Cd282 2.439 . S
O293 C287 1.208 . S
O294 Cd295 2.223 . S
O294 C302 1.315 . S
Cd295 O294 2.223 . S
Cd295 O298 2.297 . S
Cd295 O299 2.439 . S
Cd295 O305 2.240 . S
Cd296 O297 2.240 . S
Cd296 O304 2.223 . S
Cd296 O306 2.297 . S
Cd296 O307 2.439 . S
O297 Cd296 2.240 . S
O297 C302 1.279 . S
O298 Cd295 2.297 . S
O298 C300 1.247 . S
O299 Cd295 2.439 . S
O299 C300 1.208 . S
C300 O298 1.247 . S
C300 O299 1.208 . S
C301 O306 1.247 . S
C301 O307 1.208 . S
C302 O294 1.315 . S
C302 O297 1.279 . S
C303 O304 1.315 . S
C303 O305 1.279 . S
O304 Cd296 2.223 . S
O304 C303 1.315 . S
O305 Cd295 2.240 . S
O305 C303 1.279 . S
O306 Cd296 2.297 . S
O306 C301 1.247 . S
O307 Cd296 2.439 . S
O307 C301 1.208 . S
O308 Cd309 2.223 . S
O308 C316 1.315 . S
Cd309 O308 2.223 . S
Cd309 O312 2.297 . S
Cd309 O313 2.439 . S
Cd309 O319 2.240 . S
Cd310 O311 2.240 . S
Cd310 O318 2.223 . S
Cd310 O320 2.297 . S
Cd310 O321 2.439 . S
O311 Cd310 2.240 . S
O311 C316 1.279 . S
O312 Cd309 2.297 . S
O312 C314 1.247 . S
O313 Cd309 2.439 . S
O313 C314 1.208 . S
C314 O312 1.247 . S
C314 O313 1.208 . S
C315 O320 1.247 . S
C315 O321 1.208 . S
C316 O308 1.315 . S
C316 O311 1.279 . S
C317 O318 1.315 . S
C317 O319 1.279 . S
O318 Cd310 2.223 . S
O318 C317 1.315 . S
O319 Cd309 2.240 . S
O319 C317 1.279 . S
O320 Cd310 2.297 . S
O320 C315 1.247 . S
O321 Cd310 2.439 . S
O321 C315 1.208 . S
O322 Cd323 2.223 . S
O322 C330 1.315 . S
Cd323 O322 2.223 . S
Cd323 O326 2.297 . S
Cd323 O327 2.439 . S
Cd323 O333 2.240 . S
Cd324 O325 2.240 . S
Cd324 O332 2.223 . S
Cd324 O334 2.297 . S
Cd324 O335 2.439 . S
O325 Cd324 2.240 . S
O325 C330 1.279 . S
O326 Cd323 2.297 . S
O326 C328 1.247 . S
O327 Cd323 2.439 . S
O327 C328 1.208 . S
C328 O326 1.247 . S
C328 O327 1.208 . S
C329 O334 1.247 . S
C329 O335 1.208 . S
C330 O322 1.315 . S
C330 O325 1.279 . S
C331 O332 1.315 . S
C331 O333 1.279 . S
O332 Cd324 2.223 . S
O332 C331 1.315 . S
O333 Cd323 2.240 . S
O333 C331 1.279 . S
O334 Cd324 2.297 . S
O334 C329 1.247 . S
O335 Cd324 2.439 . S
O335 C329 1.208 . S
O336 Cd337 2.223 . S
O336 C344 1.315 . S
Cd337 O336 2.223 . S
Cd337 O340 2.297 . S
Cd337 O341 2.439 . S
Cd337 O347 2.240 . S
Cd338 O339 2.240 . S
Cd338 O346 2.223 . S
Cd338 O348 2.297 . S
Cd338 O349 2.439 . S
O339 Cd338 2.240 . S
O339 C344 1.279 . S
O340 Cd337 2.297 . S
O340 C342 1.247 . S
O341 Cd337 2.439 . S
O341 C342 1.208 . S
C342 O340 1.247 . S
C342 O341 1.208 . S
C343 O348 1.247 . S
C343 O349 1.208 . S
C344 O336 1.315 . S
C344 O339 1.279 . S
C345 O346 1.315 . S
C345 O347 1.279 . S
O346 Cd338 2.223 . S
O346 C345 1.315 . S
O347 Cd337 2.240 . S
O347 C345 1.279 . S
O348 Cd338 2.297 . S
O348 C343 1.247 . S
O349 Cd338 2.439 . S
O349 C343 1.208 . S
O350 Cd351 2.223 . S
O350 C358 1.315 . S
Cd351 O350 2.223 . S
Cd351 O354 2.297 . S
Cd351 O355 2.439 . S
Cd351 O361 2.240 . S
Cd352 O353 2.240 . S
Cd352 O360 2.223 . S
Cd352 O362 2.297 . S
Cd352 O363 2.439 . S
O353 Cd352 2.240 . S
O353 C358 1.279 . S
O354 Cd351 2.297 . S
O354 C356 1.247 . S
O355 Cd351 2.439 . S
O355 C356 1.208 . S
C356 O354 1.247 . S
C356 O355 1.208 . S
C357 O362 1.247 . S
C357 O363 1.208 . S
C358 O350 1.315 . S
C358 O353 1.279 . S
C359 O360 1.315 . S
C359 O361 1.279 . S
O360 Cd352 2.223 . S
O360 C359 1.315 . S
O361 Cd351 2.240 . S
O361 C359 1.279 . S
O362 Cd352 2.297 . S
O362 C357 1.247 . S
O363 Cd352 2.439 . S
O363 C357 1.208 . S
O364 Cd365 2.223 . S
O364 C372 1.315 . S
Cd365 O364 2.223 . S
Cd365 O368 2.297 . S
Cd365 O369 2.439 1_556 S
Cd365 O375 2.240 1_556 S
Cd366 O367 2.240 1_554 S
Cd366 O374 2.223 . S
Cd366 O376 2.297 . S
Cd366 O377 2.439 . S
O367 Cd366 2.240 1_556 S
O367 C372 1.279 . S
O368 Cd365 2.297 . S
O368 C370 1.247 . S
O369 Cd365 2.439 1_554 S
O369 C370 1.208 1_554 S
C370 O368 1.247 . S
C370 O369 1.208 1_556 S
C371 O376 1.247 . S
C371 O377 1.208 . S
C372 O364 1.315 . S
C372 O367 1.279 . S
C373 O374 1.315 . S
C373 O375 1.279 . S
O374 Cd366 2.223 . S
O374 C373 1.315 . S
O375 Cd365 2.240 1_554 S
O375 C373 1.279 . S
O376 Cd366 2.297 . S
O376 C371 1.247 . S
O377 Cd366 2.439 . S
O377 C371 1.208 . S
O378 Cd379 2.223 . S
O378 C386 1.315 . S
Cd379 O378 2.223 . S
Cd379 O382 2.297 . S
Cd379 O383 2.439 . S
Cd379 O389 2.240 . S
Cd380 O381 2.240 . S
Cd380 O388 2.223 . S
Cd380 O390 2.297 . S
Cd380 O391 2.439 . S
O381 Cd380 2.240 . S
O381 C386 1.279 . S
O382 Cd379 2.297 . S
O382 C384 1.247 . S
O383 Cd379 2.439 . S
O383 C384 1.208 . S
C384 O382 1.247 . S
C384 O383 1.208 . S
C385 O390 1.247 . S
C385 O391 1.208 . S
C386 O378 1.315 . S
C386 O381 1.279 . S
C387 O388 1.315 . S
C387 O389 1.279 . S
O388 Cd380 2.223 . S
O388 C387 1.315 . S
O389 Cd379 2.240 . S
O389 C387 1.279 . S
O390 Cd380 2.297 . S
O390 C385 1.247 . S
O391 Cd380 2.439 . S
O391 C385 1.208 . S
O392 Cd393 2.223 . S
O392 C400 1.315 . S
Cd393 O392 2.223 . S
Cd393 O396 2.297 . S
Cd393 O397 2.439 . S
Cd393 O403 2.240 . S
Cd394 O395 2.240 . S
Cd394 O402 2.223 . S
Cd394 O404 2.297 1_554 S
Cd394 O405 2.439 1_554 S
O395 Cd394 2.240 . S
O395 C400 1.279 . S
O396 Cd393 2.297 . S
O396 C398 1.247 . S
O397 Cd393 2.439 . S
O397 C398 1.208 . S
C398 O396 1.247 . S
C398 O397 1.208 . S
C399 O404 1.247 . S
C399 O405 1.208 . S
C400 O392 1.315 . S
C400 O395 1.279 . S
C401 O402 1.315 . S
C401 O403 1.279 . S
O402 Cd394 2.223 . S
O402 C401 1.315 . S
O403 Cd393 2.240 . S
O403 C401 1.279 . S
O404 Cd394 2.297 1_556 S
O404 C399 1.247 . S
O405 Cd394 2.439 1_556 S
O405 C399 1.208 . S
O406 Cd407 2.223 . S
O406 C414 1.315 . S
Cd407 O406 2.223 . S
Cd407 O410 2.297 . S
Cd407 O411 2.439 . S
Cd407 O417 2.240 . S
Cd408 O409 2.240 . S
Cd408 O416 2.223 . S
Cd408 O418 2.297 . S
Cd408 O419 2.439 . S
O409 Cd408 2.240 . S
O409 C414 1.279 . S
O410 Cd407 2.297 . S
O410 C412 1.247 . S
O411 Cd407 2.439 . S
O411 C412 1.208 . S
C412 O410 1.247 . S
C412 O411 1.208 . S
C413 O418 1.247 . S
C413 O419 1.208 . S
C414 O406 1.315 . S
C414 O409 1.279 . S
C415 O416 1.315 . S
C415 O417 1.279 . S
O416 Cd408 2.223 . S
O416 C415 1.315 . S
O417 Cd407 2.240 . S
O417 C415 1.279 . S
O418 Cd408 2.297 . S
O418 C413 1.247 . S
O419 Cd408 2.439 . S
O419 C413 1.208 . S
O420 Cd421 2.223 . S
O420 C428 1.315 . S
Cd421 O420 2.223 . S
Cd421 O424 2.297 . S
Cd421 O425 2.439 . S
Cd421 O431 2.240 . S
Cd422 O423 2.240 . S
Cd422 O430 2.223 . S
Cd422 O432 2.297 . S
Cd422 O433 2.439 . S
O423 Cd422 2.240 . S
O423 C428 1.279 . S
O424 Cd421 2.297 . S
O424 C426 1.247 . S
O425 Cd421 2.439 . S
O425 C426 1.208 . S
C426 O424 1.247 . S
C426 O425 1.208 . S
C427 O432 1.247 . S
C427 O433 1.208 . S
C428 O420 1.315 . S
C428 O423 1.279 . S
C429 O430 1.315 . S
C429 O431 1.279 . S
O430 Cd422 2.223 . S
O430 C429 1.315 . S
O431 Cd421 2.240 . S
O431 C429 1.279 . S
O432 Cd422 2.297 . S
O432 C427 1.247 . S
O433 Cd422 2.439 . S
O433 C427 1.208 . S
O434 Cd435 2.223 . S
O434 C442 1.315 . S
Cd435 O434 2.223 . S
Cd435 O438 2.297 . S
Cd435 O439 2.439 . S
Cd435 O445 2.240 . S
Cd436 O437 2.240 . S
Cd436 O444 2.223 . S
Cd436 O446 2.297 . S
Cd436 O447 2.439 . S
O437 Cd436 2.240 . S
O437 C442 1.279 . S
O438 Cd435 2.297 . S
O438 C440 1.247 . S
O439 Cd435 2.439 . S
O439 C440 1.208 . S
C440 O438 1.247 . S
C440 O439 1.208 . S
C441 O446 1.247 . S
C441 O447 1.208 . S
C442 O434 1.315 . S
C442 O437 1.279 . S
C443 O444 1.315 . S
C443 O445 1.279 . S
O444 Cd436 2.223 . S
O444 C443 1.315 . S
O445 Cd435 2.240 . S
O445 C443 1.279 . S
O446 Cd436 2.297 . S
O446 C441 1.247 . S
O447 Cd436 2.439 . S
O447 C441 1.208 . S
H448 C456 0.929 1_556 S
H449 C458 0.930 . S
H450 C460 0.930 . S
H451 C463 0.929 . S
H452 C466 0.930 . S
H453 C468 0.960 1_556 S
H454 C468 0.960 1_556 S
H455 C468 0.960 . S
C456 H448 0.929 1_554 S
C456 C457 1.377 . S
C456 C458 1.384 . S
C457 C456 1.377 . S
C457 C463 1.390 . S
C458 H449 0.930 . S
C458 C456 1.384 . S
C458 C459 1.372 . S
C459 C458 1.372 . S
C459 C460 1.400 . S
C459 C464 1.490 . S
C460 H450 0.930 . S
C460 C459 1.400 . S
C460 C463 1.386 . S
H461 C477 0.930 . S
H462 C478 0.931 . S
C463 H451 0.929 . S
C463 C457 1.390 . S
C463 C460 1.386 . S
C464 C459 1.490 . S
C464 C466 1.395 . S
C464 C467 1.403 . S
H465 C471 0.930 . S
C466 H452 0.930 . S
C466 C464 1.395 . S
C466 C469 1.403 1_655 S
C467 C464 1.403 . S
C467 C468 1.524 . S
C467 C471 1.400 1_655 S
C468 H453 0.960 1_554 S
C468 H454 0.960 1_554 S
C468 H455 0.960 . S
C468 C467 1.524 . S
C469 C466 1.403 1_455 S
C469 C470 1.392 . S
C469 C473 1.495 . S
C470 C469 1.392 . S
C470 C471 1.385 . S
C470 C472 1.478 . S
C471 H465 0.930 . S
C471 C467 1.400 1_455 S
C471 C470 1.385 . S
C472 C470 1.478 . S
C472 C474 1.381 . S
C472 C478 1.383 . S
C473 C469 1.495 . S
C473 H479 0.959 . S
C473 H480 0.961 . S
C473 H481 0.960 . S
C474 C472 1.381 . S
C474 C475 1.394 . S
C474 H482 0.930 . S
C475 C474 1.394 . S
C475 C476 1.383 . S
C475 H483 0.929 . S
C476 C475 1.383 . S
C476 C477 1.377 . S
C477 H461 0.930 . S
C477 C476 1.377 . S
C477 C478 1.379 . S
C478 H462 0.931 . S
C478 C472 1.383 . S
C478 C477 1.379 . S
H479 C473 0.959 . S
H480 C473 0.961 . S
H481 C473 0.960 . S
H482 C474 0.930 . S
H483 C475 0.929 . S
H484 C492 0.929 . S
H485 C494 0.930 . S
H486 C496 0.930 . S
H487 C499 0.929 . S
H488 C502 0.930 . S
H489 C504 0.960 . S
H490 C504 0.960 . S
H491 C504 0.960 . S
C492 H484 0.929 . S
C492 C493 1.377 . S
C492 C494 1.384 . S
C493 C492 1.377 . S
C493 C499 1.390 . S
C494 H485 0.930 . S
C494 C492 1.384 . S
C494 C495 1.372 . S
C495 C494 1.372 . S
C495 C496 1.400 . S
C495 C500 1.490 . S
C496 H486 0.930 . S
C496 C495 1.400 . S
C496 C499 1.386 . S
H497 C513 0.930 . S
H498 C514 0.931 . S
C499 H487 0.929 . S
C499 C493 1.390 . S
C499 C496 1.386 . S
C500 C495 1.490 . S
C500 C502 1.395 . S
C500 C503 1.403 . S
H501 C507 0.930 . S
C502 H488 0.930 . S
C502 C500 1.395 . S
C502 C505 1.403 . S
C503 C500 1.403 . S
C503 C504 1.524 . S
C503 C507 1.400 . S
C504 H489 0.960 . S
C504 H490 0.960 . S
C504 H491 0.960 . S
C504 C503 1.524 . S
C505 C502 1.403 . S
C505 C506 1.392 . S
C505 C509 1.495 . S
C506 C505 1.392 . S
C506 C507 1.385 . S
C506 C508 1.478 . S
C507 H501 0.930 . S
C507 C503 1.400 . S
C507 C506 1.385 . S
C508 C506 1.478 . S
C508 C510 1.381 . S
C508 C514 1.383 . S
C509 C505 1.495 . S
C509 H515 0.959 . S
C509 H516 0.961 . S
C509 H517 0.960 . S
C510 C508 1.381 . S
C510 C511 1.394 . S
C510 H518 0.930 . S
C511 C510 1.394 . S
C511 C512 1.383 . S
C511 H519 0.929 . S
C512 C511 1.383 . S
C512 C513 1.377 . S
C513 H497 0.930 . S
C513 C512 1.377 . S
C513 C514 1.379 . S
C514 H498 0.931 . S
C514 C508 1.383 . S
C514 C513 1.379 . S
H515 C509 0.959 . S
H516 C509 0.961 . S
H517 C509 0.960 . S
H518 C510 0.930 . S
H519 C511 0.929 . S
H520 C528 0.929 . S
H521 C530 0.930 . S
H522 C532 0.930 . S
H523 C535 0.929 . S
H524 C538 0.930 . S
H525 C540 0.960 . S
H526 C540 0.960 . S
H527 C540 0.960 . S
C528 H520 0.929 . S
C528 C529 1.377 . S
C528 C530 1.384 . S
C529 C528 1.377 . S
C529 C535 1.390 . S
C530 H521 0.930 . S
C530 C528 1.384 . S
C530 C531 1.372 . S
C531 C530 1.372 . S
C531 C532 1.400 . S
C531 C536 1.490 . S
C532 H522 0.930 . S
C532 C531 1.400 . S
C532 C535 1.386 . S
H533 C549 0.930 . S
H534 C550 0.931 . S
C535 H523 0.929 . S
C535 C529 1.390 . S
C535 C532 1.386 . S
C536 C531 1.490 . S
C536 C538 1.395 . S
C536 C539 1.403 . S
H537 C543 0.930 . S
C538 H524 0.930 . S
C538 C536 1.395 . S
C538 C541 1.403 . S
C539 C536 1.403 . S
C539 C540 1.524 . S
C539 C543 1.400 . S
C540 H525 0.960 . S
C540 H526 0.960 . S
C540 H527 0.960 . S
C540 C539 1.524 . S
C541 C538 1.403 . S
C541 C542 1.392 . S
C541 C545 1.495 . S
C542 C541 1.392 . S
C542 C543 1.385 . S
C542 C544 1.478 . S
C543 H537 0.930 . S
C543 C539 1.400 . S
C543 C542 1.385 . S
C544 C542 1.478 . S
C544 C546 1.381 . S
C544 C550 1.383 . S
C545 C541 1.495 . S
C545 H551 0.959 . S
C545 H552 0.961 . S
C545 H553 0.960 . S
C546 C544 1.381 . S
C546 C547 1.394 . S
C546 H554 0.930 . S
C547 C546 1.394 . S
C547 C548 1.383 . S
C547 H555 0.929 . S
C548 C547 1.383 . S
C548 C549 1.377 . S
C549 H533 0.930 . S
C549 C548 1.377 . S
C549 C550 1.379 . S
C550 H534 0.931 . S
C550 C544 1.383 . S
C550 C549 1.379 . S
H551 C545 0.959 . S
H552 C545 0.961 . S
H553 C545 0.960 . S
H554 C546 0.930 . S
H555 C547 0.929 . S
H556 C564 0.929 . S
H557 C566 0.930 . S
H558 C568 0.930 . S
H559 C571 0.929 . S
H560 C574 0.930 . S
H561 C576 0.960 . S
H562 C576 0.960 . S
H563 C576 0.960 . S
C564 H556 0.929 . S
C564 C565 1.377 . S
C564 C566 1.384 . S
C565 C564 1.377 . S
C565 C571 1.390 . S
C566 H557 0.930 . S
C566 C564 1.384 . S
C566 C567 1.372 . S
C567 C566 1.372 . S
C567 C568 1.400 . S
C567 C572 1.490 . S
C568 H558 0.930 . S
C568 C567 1.400 . S
C568 C571 1.386 . S
H569 C585 0.930 . S
H570 C586 0.931 . S
C571 H559 0.929 . S
C571 C565 1.390 . S
C571 C568 1.386 . S
C572 C567 1.490 . S
C572 C574 1.395 . S
C572 C575 1.403 . S
H573 C579 0.930 . S
C574 H560 0.930 . S
C574 C572 1.395 . S
C574 C577 1.403 . S
C575 C572 1.403 . S
C575 C576 1.524 . S
C575 C579 1.400 . S
C576 H561 0.960 . S
C576 H562 0.960 . S
C576 H563 0.960 . S
C576 C575 1.524 . S
C577 C574 1.403 . S
C577 C578 1.392 . S
C577 C581 1.495 . S
C578 C577 1.392 . S
C578 C579 1.385 . S
C578 C580 1.478 . S
C579 H573 0.930 . S
C579 C575 1.400 . S
C579 C578 1.385 . S
C580 C578 1.478 . S
C580 C582 1.381 . S
C580 C586 1.383 . S
C581 C577 1.495 . S
C581 H587 0.959 . S
C581 H588 0.961 . S
C581 H589 0.960 . S
C582 C580 1.381 . S
C582 C583 1.394 . S
C582 H590 0.930 . S
C583 C582 1.394 . S
C583 C584 1.383 . S
C583 H591 0.929 . S
C584 C583 1.383 . S
C584 C585 1.377 . S
C585 H569 0.930 . S
C585 C584 1.377 . S
C585 C586 1.379 . S
C586 H570 0.931 . S
C586 C580 1.383 . S
C586 C585 1.379 . S
H587 C581 0.959 . S
H588 C581 0.961 . S
H589 C581 0.960 . S
H590 C582 0.930 . S
H591 C583 0.929 . S
H592 C600 0.929 . S
H593 C602 0.930 . S
H594 C604 0.930 . S
H595 C607 0.929 . S
H596 C610 0.930 . S
H597 C612 0.960 . S
H598 C612 0.960 . S
H599 C612 0.960 . S
C600 H592 0.929 . S
C600 C601 1.377 . S
C600 C602 1.384 . S
C601 C600 1.377 . S
C601 C607 1.390 . S
C602 H593 0.930 . S
C602 C600 1.384 . S
C602 C603 1.372 . S
C603 C602 1.372 . S
C603 C604 1.400 . S
C603 C608 1.490 . S
C604 H594 0.930 . S
C604 C603 1.400 . S
C604 C607 1.386 . S
H605 C621 0.930 . S
H606 C622 0.931 . S
C607 H595 0.929 . S
C607 C601 1.390 . S
C607 C604 1.386 . S
C608 C603 1.490 . S
C608 C610 1.395 . S
C608 C611 1.403 . S
H609 C615 0.930 . S
C610 H596 0.930 . S
C610 C608 1.395 . S
C610 C613 1.403 1_455 S
C611 C608 1.403 . S
C611 C612 1.524 . S
C611 C615 1.400 1_455 S
C612 H597 0.960 . S
C612 H598 0.960 . S
C612 H599 0.960 . S
C612 C611 1.524 . S
C613 C610 1.403 1_655 S
C613 C614 1.392 . S
C613 C617 1.495 . S
C614 C613 1.392 . S
C614 C615 1.385 . S
C614 C616 1.478 . S
C615 H609 0.930 . S
C615 C611 1.400 1_655 S
C615 C614 1.385 . S
C616 C614 1.478 . S
C616 C618 1.381 . S
C616 C622 1.383 . S
C617 C613 1.495 . S
C617 H623 0.959 . S
C617 H624 0.961 . S
C617 H625 0.960 . S
C618 C616 1.381 . S
C618 C619 1.394 . S
C618 H626 0.930 . S
C619 C618 1.394 . S
C619 C620 1.383 . S
C619 H627 0.929 . S
C620 C619 1.383 . S
C620 C621 1.377 . S
C621 H605 0.930 . S
C621 C620 1.377 . S
C621 C622 1.379 . S
C622 H606 0.931 . S
C622 C616 1.383 . S
C622 C621 1.379 . S
H623 C617 0.959 . S
H624 C617 0.961 . S
H625 C617 0.960 . S
H626 C618 0.930 . S
H627 C619 0.929 . S
H628 C636 0.929 . S
H629 C638 0.930 . S
H630 C640 0.930 . S
H631 C643 0.929 . S
H632 C646 0.930 . S
H633 C648 0.960 . S
H634 C648 0.960 . S
H635 C648 0.960 . S
C636 H628 0.929 . S
C636 C637 1.377 . S
C636 C638 1.384 . S
C637 C636 1.377 . S
C637 C643 1.390 . S
C638 H629 0.930 . S
C638 C636 1.384 . S
C638 C639 1.372 . S
C639 C638 1.372 . S
C639 C640 1.400 . S
C639 C644 1.490 . S
C640 H630 0.930 . S
C640 C639 1.400 . S
C640 C643 1.386 . S
H641 C657 0.930 . S
H642 C658 0.931 . S
C643 H631 0.929 . S
C643 C637 1.390 . S
C643 C640 1.386 . S
C644 C639 1.490 . S
C644 C646 1.395 . S
C644 C647 1.403 . S
H645 C651 0.930 . S
C646 H632 0.930 . S
C646 C644 1.395 . S
C646 C649 1.403 . S
C647 C644 1.403 . S
C647 C648 1.524 . S
C647 C651 1.400 . S
C648 H633 0.960 . S
C648 H634 0.960 . S
C648 H635 0.960 . S
C648 C647 1.524 . S
C649 C646 1.403 . S
C649 C650 1.392 . S
C649 C653 1.495 . S
C650 C649 1.392 . S
C650 C651 1.385 . S
C650 C652 1.478 . S
C651 H645 0.930 . S
C651 C647 1.400 . S
C651 C650 1.385 . S
C652 C650 1.478 . S
C652 C654 1.381 . S
C652 C658 1.383 . S
C653 C649 1.495 . S
C653 H659 0.959 . S
C653 H660 0.961 . S
C653 H661 0.960 . S
C654 C652 1.381 . S
C654 C655 1.394 . S
C654 H662 0.930 . S
C655 C654 1.394 . S
C655 C656 1.383 . S
C655 H663 0.929 . S
C656 C655 1.383 . S
C656 C657 1.377 . S
C657 H641 0.930 . S
C657 C656 1.377 . S
C657 C658 1.379 . S
C658 H642 0.931 . S
C658 C652 1.383 . S
C658 C657 1.379 . S
H659 C653 0.959 . S
H660 C653 0.961 . S
H661 C653 0.960 . S
H662 C654 0.930 . S
H663 C655 0.929 . S
H664 C672 0.929 . S
H665 C674 0.930 . S
H666 C676 0.930 . S
H667 C679 0.929 . S
H668 C682 0.930 . S
H669 C684 0.960 . S
H670 C684 0.960 . S
H671 C684 0.960 1_554 S
C672 H664 0.929 . S
C672 C673 1.377 . S
C672 C674 1.384 . S
C673 C672 1.377 . S
C673 C679 1.390 . S
C674 H665 0.930 . S
C674 C672 1.384 . S
C674 C675 1.372 . S
C675 C674 1.372 . S
C675 C676 1.400 . S
C675 C680 1.490 . S
C676 H666 0.930 . S
C676 C675 1.400 . S
C676 C679 1.386 . S
H677 C693 0.930 . S
H678 C694 0.931 . S
C679 H667 0.929 . S
C679 C673 1.390 . S
C679 C676 1.386 . S
C680 C675 1.490 . S
C680 C682 1.395 . S
C680 C683 1.403 . S
H681 C687 0.930 . S
C682 H668 0.930 . S
C682 C680 1.395 . S
C682 C685 1.403 . S
C683 C680 1.403 . S
C683 C684 1.524 1_554 S
C683 C687 1.400 . S
C684 H669 0.960 . S
C684 H670 0.960 . S
C684 H671 0.960 1_556 S
C684 C683 1.524 1_556 S
C685 C682 1.403 . S
C685 C686 1.392 . S
C685 C689 1.495 . S
C686 C685 1.392 . S
C686 C687 1.385 . S
C686 C688 1.478 . S
C687 H681 0.930 . S
C687 C683 1.400 . S
C687 C686 1.385 . S
C688 C686 1.478 . S
C688 C690 1.381 . S
C688 C694 1.383 . S
C689 C685 1.495 . S
C689 H695 0.959 . S
C689 H696 0.961 . S
C689 H697 0.960 . S
C690 C688 1.381 . S
C690 C691 1.394 . S
C690 H698 0.930 . S
C691 C690 1.394 . S
C691 C692 1.383 . S
C691 H699 0.929 . S
C692 C691 1.383 . S
C692 C693 1.377 . S
C693 H677 0.930 . S
C693 C692 1.377 . S
C693 C694 1.379 . S
C694 H678 0.931 . S
C694 C688 1.383 . S
C694 C693 1.379 . S
H695 C689 0.959 . S
H696 C689 0.961 . S
H697 C689 0.960 . S
H698 C690 0.930 . S
H699 C691 0.929 . S
H700 C708 0.929 . S
H701 C710 0.930 . S
H702 C712 0.930 . S
H703 C715 0.929 . S
H704 C718 0.930 . S
H705 C720 0.960 . S
H706 C720 0.960 . S
H707 C720 0.960 . S
C708 H700 0.929 . S
C708 C709 1.377 . S
C708 C710 1.384 . S
C709 C708 1.377 . S
C709 C715 1.390 . S
C710 H701 0.930 . S
C710 C708 1.384 . S
C710 C711 1.372 . S
C711 C710 1.372 . S
C711 C712 1.400 . S
C711 C716 1.490 . S
C712 H702 0.930 . S
C712 C711 1.400 . S
C712 C715 1.386 . S
H713 C729 0.930 . S
H714 C730 0.931 . S
C715 H703 0.929 . S
C715 C709 1.390 . S
C715 C712 1.386 . S
C716 C711 1.490 . S
C716 C718 1.395 . S
C716 C719 1.403 . S
H717 C723 0.930 . S
C718 H704 0.930 . S
C718 C716 1.395 . S
C718 C721 1.403 . S
C719 C716 1.403 . S
C719 C720 1.524 . S
C719 C723 1.400 . S
C720 H705 0.960 . S
C720 H706 0.960 . S
C720 H707 0.960 . S
C720 C719 1.524 . S
C721 C718 1.403 . S
C721 C722 1.392 . S
C721 C725 1.495 . S
C722 C721 1.392 . S
C722 C723 1.385 . S
C722 C724 1.478 . S
C723 H717 0.930 . S
C723 C719 1.400 . S
C723 C722 1.385 . S
C724 C722 1.478 . S
C724 C726 1.381 . S
C724 C730 1.383 . S
C725 C721 1.495 . S
C725 H731 0.959 . S
C725 H732 0.961 . S
C725 H733 0.960 . S
C726 C724 1.381 . S
C726 C727 1.394 . S
C726 H734 0.930 . S
C727 C726 1.394 . S
C727 C728 1.383 . S
C727 H735 0.929 . S
C728 C727 1.383 . S
C728 C729 1.377 . S
C729 H713 0.930 . S
C729 C728 1.377 . S
C729 C730 1.379 . S
C730 H714 0.931 . S
C730 C724 1.383 . S
C730 C729 1.379 . S
H731 C725 0.959 . S
H732 C725 0.961 . S
H733 C725 0.960 . S
H734 C726 0.930 . S
H735 C727 0.929 . S
H736 C744 0.929 . S
H737 C746 0.930 . S
H738 C748 0.930 . S
H739 C751 0.929 . S
H740 C754 0.930 . S
H741 C756 0.960 . S
H742 C756 0.960 . S
H743 C756 0.960 . S
C744 H736 0.929 . S
C744 C745 1.377 . S
C744 C746 1.384 . S
C745 C744 1.377 . S
C745 C751 1.390 . S
C746 H737 0.930 . S
C746 C744 1.384 . S
C746 C747 1.372 . S
C747 C746 1.372 . S
C747 C748 1.400 . S
C747 C752 1.490 . S
C748 H738 0.930 . S
C748 C747 1.400 . S
C748 C751 1.386 . S
H749 C765 0.930 . S
H750 C766 0.931 . S
C751 H739 0.929 . S
C751 C745 1.390 . S
C751 C748 1.386 . S
C752 C747 1.490 . S
C752 C754 1.395 . S
C752 C755 1.403 . S
H753 C759 0.930 . S
C754 H740 0.930 . S
C754 C752 1.395 . S
C754 C757 1.403 . S
C755 C752 1.403 . S
C755 C756 1.524 . S
C755 C759 1.400 . S
C756 H741 0.960 . S
C756 H742 0.960 . S
C756 H743 0.960 . S
C756 C755 1.524 . S
C757 C754 1.403 . S
C757 C758 1.392 . S
C757 C761 1.495 . S
C758 C757 1.392 . S
C758 C759 1.385 . S
C758 C760 1.478 . S
C759 H753 0.930 . S
C759 C755 1.400 . S
C759 C758 1.385 . S
C760 C758 1.478 . S
C760 C762 1.381 . S
C760 C766 1.383 . S
C761 C757 1.495 . S
C761 H767 0.959 . S
C761 H768 0.961 . S
C761 H769 0.960 . S
C762 C760 1.381 . S
C762 C763 1.394 . S
C762 H770 0.930 . S
C763 C762 1.394 . S
C763 C764 1.383 . S
C763 H771 0.929 . S
C764 C763 1.383 . S
C764 C765 1.377 . S
C765 H749 0.930 . S
C765 C764 1.377 . S
C765 C766 1.379 . S
C766 H750 0.931 . S
C766 C760 1.383 . S
C766 C765 1.379 . S
H767 C761 0.959 . S
H768 C761 0.961 . S
H769 C761 0.960 . S
H770 C762 0.930 . S
H771 C763 0.929 . S
H772 C780 0.929 . S
H773 C782 0.930 . S
H774 C784 0.930 . S
H775 C787 0.929 . S
H776 C790 0.930 . S
H777 C792 0.960 . S
H778 C792 0.960 . S
H779 C792 0.960 . S
C780 H772 0.929 . S
C780 C781 1.377 . S
C780 C782 1.384 . S
C781 C780 1.377 . S
C781 C787 1.390 . S
C782 H773 0.930 . S
C782 C780 1.384 . S
C782 C783 1.372 . S
C783 C782 1.372 . S
C783 C784 1.400 . S
C783 C788 1.490 . S
C784 H774 0.930 . S
C784 C783 1.400 . S
C784 C787 1.386 . S
H785 C801 0.930 . S
H786 C802 0.931 . S
C787 H775 0.929 . S
C787 C781 1.390 . S
C787 C784 1.386 . S
C788 C783 1.490 . S
C788 C790 1.395 . S
C788 C791 1.403 . S
H789 C795 0.930 . S
C790 H776 0.930 . S
C790 C788 1.395 . S
C790 C793 1.403 . S
C791 C788 1.403 . S
C791 C792 1.524 . S
C791 C795 1.400 . S
C792 H777 0.960 . S
C792 H778 0.960 . S
C792 H779 0.960 . S
C792 C791 1.524 . S
C793 C790 1.403 . S
C793 C794 1.392 . S
C793 C797 1.495 . S
C794 C793 1.392 . S
C794 C795 1.385 . S
C794 C796 1.478 . S
C795 H789 0.930 . S
C795 C791 1.400 . S
C795 C794 1.385 . S
C796 C794 1.478 . S
C796 C798 1.381 . S
C796 C802 1.383 . S
C797 C793 1.495 . S
C797 H803 0.959 . S
C797 H804 0.961 . S
C797 H805 0.960 . S
C798 C796 1.381 . S
C798 C799 1.394 . S
C798 H806 0.930 . S
C799 C798 1.394 . S
C799 C800 1.383 . S
C799 H807 0.929 . S
C800 C799 1.383 . S
C800 C801 1.377 . S
C801 H785 0.930 . S
C801 C800 1.377 . S
C801 C802 1.379 . S
C802 H786 0.931 . S
C802 C796 1.383 . S
C802 C801 1.379 . S
H803 C797 0.959 . S
H804 C797 0.961 . S
H805 C797 0.960 . S
H806 C798 0.930 . S
H807 C799 0.929 . S
H808 C816 0.929 . S
H809 C818 0.930 . S
H810 C820 0.930 . S
H811 C823 0.929 . S
H812 C826 0.930 . S
H813 C828 0.960 . S
H814 C828 0.960 . S
H815 C828 0.960 . S
C816 H808 0.929 . S
C816 C817 1.377 . S
C816 C818 1.384 . S
C817 C816 1.377 . S
C817 C823 1.390 . S
C818 H809 0.930 . S
C818 C816 1.384 . S
C818 C819 1.372 . S
C819 C818 1.372 . S
C819 C820 1.400 . S
C819 C824 1.490 . S
C820 H810 0.930 . S
C820 C819 1.400 . S
C820 C823 1.386 . S
H821 C837 0.930 . S
H822 C838 0.931 . S
C823 H811 0.929 . S
C823 C817 1.390 . S
C823 C820 1.386 . S
C824 C819 1.490 . S
C824 C826 1.395 . S
C824 C827 1.403 . S
H825 C831 0.930 . S
C826 H812 0.930 . S
C826 C824 1.395 . S
C826 C829 1.403 . S
C827 C824 1.403 . S
C827 C828 1.524 . S
C827 C831 1.400 . S
C828 H813 0.960 . S
C828 H814 0.960 . S
C828 H815 0.960 . S
C828 C827 1.524 . S
C829 C826 1.403 . S
C829 C830 1.392 . S
C829 C833 1.495 . S
C830 C829 1.392 . S
C830 C831 1.385 . S
C830 C832 1.478 . S
C831 H825 0.930 . S
C831 C827 1.400 . S
C831 C830 1.385 . S
C832 C830 1.478 . S
C832 C834 1.381 . S
C832 C838 1.383 . S
C833 C829 1.495 . S
C833 H839 0.959 . S
C833 H840 0.961 . S
C833 H841 0.960 . S
C834 C832 1.381 . S
C834 C835 1.394 . S
C834 H842 0.930 . S
C835 C834 1.394 . S
C835 C836 1.383 . S
C835 H843 0.929 . S
C836 C835 1.383 . S
C836 C837 1.377 . S
C837 H821 0.930 . S
C837 C836 1.377 . S
C837 C838 1.379 . S
C838 H822 0.931 . S
C838 C832 1.383 . S
C838 C837 1.379 . S
H839 C833 0.959 . S
H840 C833 0.961 . S
H841 C833 0.960 . S
H842 C834 0.930 . S
H843 C835 0.929 . S
H844 C852 0.929 . S
H845 C854 0.930 . S
H846 C856 0.930 . S
H847 C859 0.929 . S
H848 C862 0.930 . S
H849 C864 0.960 . S
H850 C864 0.960 . S
H851 C864 0.960 . S
C852 H844 0.929 . S
C852 C853 1.377 . S
C852 C854 1.384 . S
C853 C852 1.377 . S
C853 C859 1.390 . S
C854 H845 0.930 . S
C854 C852 1.384 . S
C854 C855 1.372 . S
C855 C854 1.372 . S
C855 C856 1.400 . S
C855 C860 1.490 . S
C856 H846 0.930 . S
C856 C855 1.400 . S
C856 C859 1.386 . S
H857 C873 0.930 . S
H858 C874 0.931 . S
C859 H847 0.929 . S
C859 C853 1.390 . S
C859 C856 1.386 . S
C860 C855 1.490 . S
C860 C862 1.395 . S
C860 C863 1.403 . S
H861 C867 0.930 . S
C862 H848 0.930 . S
C862 C860 1.395 . S
C862 C865 1.403 . S
C863 C860 1.403 . S
C863 C864 1.524 . S
C863 C867 1.400 . S
C864 H849 0.960 . S
C864 H850 0.960 . S
C864 H851 0.960 . S
C864 C863 1.524 . S
C865 C862 1.403 . S
C865 C866 1.392 . S
C865 C869 1.495 . S
C866 C865 1.392 . S
C866 C867 1.385 . S
C866 C868 1.478 . S
C867 H861 0.930 . S
C867 C863 1.400 . S
C867 C866 1.385 . S
C868 C866 1.478 . S
C868 C870 1.381 . S
C868 C874 1.383 . S
C869 C865 1.495 . S
C869 H875 0.959 . S
C869 H876 0.961 . S
C869 H877 0.960 . S
C870 C868 1.381 . S
C870 C871 1.394 . S
C870 H878 0.930 . S
C871 C870 1.394 . S
C871 C872 1.383 . S
C871 H879 0.929 . S
C872 C871 1.383 . S
C872 C873 1.377 . S
C873 H857 0.930 . S
C873 C872 1.377 . S
C873 C874 1.379 . S
C874 H858 0.931 . S
C874 C868 1.383 . S
C874 C873 1.379 . S
H875 C869 0.959 . S
H876 C869 0.961 . S
H877 C869 0.960 . S
H878 C870 0.930 . S
H879 C871 0.929 . S
H880 C888 0.929 . S
H881 C890 0.930 1_565 S
H882 C892 0.930 . S
H883 C895 0.929 . S
H884 C898 0.930 . S
H885 C900 0.960 . S
H886 C900 0.960 . S
H887 C900 0.960 . S
C888 H880 0.929 . S
C888 C889 1.377 . S
C888 C890 1.384 . S
C889 C888 1.377 . S
C889 C895 1.390 . S
C890 H881 0.930 1_545 S
C890 C888 1.384 . S
C890 C891 1.372 . S
C891 C890 1.372 . S
C891 C892 1.400 . S
C891 C896 1.490 . S
C892 H882 0.930 . S
C892 C891 1.400 . S
C892 C895 1.386 . S
H893 C909 0.930 . S
H894 C910 0.931 1_545 S
C895 H883 0.929 . S
C895 C889 1.390 . S
C895 C892 1.386 . S
C896 C891 1.490 . S
C896 C898 1.395 1_545 S
C896 C899 1.403 . S
H897 C903 0.930 . S
C898 H884 0.930 . S
C898 C896 1.395 1_565 S
C898 C901 1.403 . S
C899 C896 1.403 . S
C899 C900 1.524 . S
C899 C903 1.400 . S
C900 H885 0.960 . S
C900 H886 0.960 . S
C900 H887 0.960 . S
C900 C899 1.524 . S
C901 C898 1.403 . S
C901 C902 1.392 . S
C901 C905 1.495 . S
C902 C901 1.392 . S
C902 C903 1.385 1_565 S
C902 C904 1.478 . S
C903 H897 0.930 . S
C903 C899 1.400 . S
C903 C902 1.385 1_545 S
C904 C902 1.478 . S
C904 C906 1.381 . S
C904 C910 1.383 . S
C905 C901 1.495 . S
C905 H911 0.959 . S
C905 H912 0.961 . S
C905 H913 0.960 . S
C906 C904 1.381 . S
C906 C907 1.394 . S
C906 H914 0.930 . S
C907 C906 1.394 . S
C907 C908 1.383 . S
C907 H915 0.929 . S
C908 C907 1.383 . S
C908 C909 1.377 . S
C909 H893 0.930 . S
C909 C908 1.377 . S
C909 C910 1.379 . S
C910 H894 0.931 1_565 S
C910 C904 1.383 . S
C910 C909 1.379 . S
H911 C905 0.959 . S
H912 C905 0.961 . S
H913 C905 0.960 . S
H914 C906 0.930 . S
H915 C907 0.929 . S
H916 C924 0.929 . S
H917 C926 0.930 . S
H918 C928 0.930 . S
H919 C931 0.929 . S
H920 C934 0.930 . S
H921 C936 0.955 . S
H922 C936 0.960 1_554 S
H923 C936 0.960 . S
C924 H916 0.929 . S
C924 C925 1.377 . S
C924 C926 1.384 . S
C925 C924 1.377 . S
C925 C931 1.390 . S
C926 H917 0.930 . S
C926 C924 1.384 . S
C926 C927 1.372 . S
C927 C926 1.372 . S
C927 C928 1.400 . S
C927 C932 1.490 . S
C928 H918 0.930 . S
C928 C927 1.400 . S
C928 C931 1.386 . S
H929 C945 0.930 1_556 S
H930 C946 0.931 1_556 S
C931 H919 0.929 . S
C931 C925 1.390 . S
C931 C928 1.386 . S
C932 C927 1.490 . S
C932 C934 1.395 1_545 S
C932 C935 1.403 . S
H933 C939 0.947 . S
C934 H920 0.930 . S
C934 C932 1.395 1_565 S
C934 C937 1.403 1_655 S
C935 C932 1.403 . S
C935 C936 1.524 1_554 S
C935 C939 1.400 1_655 S
C936 H921 0.955 . S
C936 H922 0.960 1_556 S
C936 H923 0.960 . S
C936 C935 1.524 1_556 S
C937 C934 1.403 1_455 S
C937 C938 1.392 . S
C937 C941 1.495 . S
C938 C937 1.392 . S
C938 C939 1.385 1_565 S
C938 C940 1.478 . S
C939 H933 0.947 . S
C939 C935 1.400 1_455 S
C939 C938 1.385 1_545 S
C940 C938 1.478 . S
C940 C942 1.381 . S
C940 C946 1.383 . S
C941 C937 1.495 . S
C941 H947 1.014 . S
C941 H948 0.961 . S
C941 H949 0.960 . S
C942 C940 1.381 . S
C942 C943 1.394 . S
C942 H950 0.930 . S
C943 C942 1.394 . S
C943 C944 1.383 . S
C943 H951 0.929 . S
C944 C943 1.383 . S
C944 C945 1.377 . S
C945 H929 0.930 1_554 S
C945 C944 1.377 . S
C945 C946 1.379 . S
C946 H930 0.931 1_554 S
C946 C940 1.383 . S
C946 C945 1.379 . S
H947 C941 1.014 . S
H948 C941 0.961 . S
H949 C941 0.960 . S
H950 C942 0.930 . S
H951 C943 0.929 . S
H952 C960 0.929 1_556 S
H953 C962 0.930 1_565 S
H954 C964 0.930 . S
H955 C967 0.929 . S
H956 C970 0.930 . S
H957 C972 0.960 1_556 S
H958 C972 0.960 1_556 S
H959 C972 0.960 . S
C960 H952 0.929 1_554 S
C960 C961 1.377 . S
C960 C962 1.384 . S
C961 C960 1.377 . S
C961 C967 1.390 . S
C962 H953 0.930 1_545 S
C962 C960 1.384 . S
C962 C963 1.372 . S
C963 C962 1.372 . S
C963 C964 1.400 . S
C963 C968 1.490 . S
C964 H954 0.930 . S
C964 C963 1.400 . S
C964 C967 1.386 . S
H965 C981 0.930 . S
H966 C982 0.931 1_545 S
C967 H955 0.929 . S
C967 C961 1.390 . S
C967 C964 1.386 . S
C968 C963 1.490 . S
C968 C970 1.395 1_545 S
C968 C971 1.403 . S
H969 C975 0.930 . S
C970 H956 0.930 . S
C970 C968 1.395 1_565 S
C970 C973 1.403 . S
C971 C968 1.403 . S
C971 C972 1.524 . S
C971 C975 1.400 . S
C972 H957 0.960 1_554 S
C972 H958 0.960 1_554 S
C972 H959 0.960 . S
C972 C971 1.524 . S
C973 C970 1.403 . S
C973 C974 1.392 . S
C973 C977 1.495 . S
C974 C973 1.392 . S
C974 C975 1.385 1_565 S
C974 C976 1.478 . S
C975 H969 0.930 . S
C975 C971 1.400 . S
C975 C974 1.385 1_545 S
C976 C974 1.478 . S
C976 C978 1.381 . S
C976 C982 1.383 . S
C977 C973 1.495 . S
C977 H983 0.959 . S
C977 H984 0.961 . S
C977 H985 0.960 . S
C978 C976 1.381 . S
C978 C979 1.394 . S
C978 H986 0.930 . S
C979 C978 1.394 . S
C979 C980 1.383 . S
C979 H987 0.929 . S
C980 C979 1.383 . S
C980 C981 1.377 . S
C981 H965 0.930 . S
C981 C980 1.377 . S
C981 C982 1.379 . S
C982 H966 0.931 1_565 S
C982 C976 1.383 . S
C982 C981 1.379 . S
H983 C977 0.959 . S
H984 C977 0.961 . S
H985 C977 0.960 . S
H986 C978 0.930 . S
H987 C979 0.929 . S
H988 C996 0.929 . S
H989 C998 0.930 . S
H990 C1000 0.930 . S
H991 C1003 0.929 . S
H992 C1006 0.930 . S
H993 C1008 0.960 1_655 S
H994 C1008 0.960 . S
H995 C1008 0.960 . S
C996 H988 0.929 . S
C996 C997 1.377 . S
C996 C998 1.384 . S
C997 C996 1.377 . S
C997 C1003 1.390 . S
C998 H989 0.930 . S
C998 C996 1.384 . S
C998 C999 1.372 . S
C999 C998 1.372 . S
C999 C1000 1.400 . S
C999 C1004 1.490 . S
C1000 H990 0.930 . S
C1000 C999 1.400 . S
C1000 C1003 1.386 . S
H1001 C1017 0.930 . S
H1002 C1018 0.931 . S
C1003 H991 0.929 . S
C1003 C997 1.390 . S
C1003 C1000 1.386 . S
C1004 C999 1.490 . S
C1004 C1006 1.395 1_545 S
C1004 C1007 1.403 . S
H1005 C1011 0.930 . S
C1006 H992 0.930 . S
C1006 C1004 1.395 1_565 S
C1006 C1009 1.403 1_455 S
C1007 C1004 1.403 . S
C1007 C1008 1.524 . S
C1007 C1011 1.400 1_455 S
C1008 H993 0.960 1_455 S
C1008 H994 0.960 . S
C1008 H995 0.960 . S
C1008 C1007 1.524 . S
C1009 C1006 1.403 1_655 S
C1009 C1010 1.392 . S
C1009 C1013 1.495 . S
C1010 C1009 1.392 . S
C1010 C1011 1.385 1_565 S
C1010 C1012 1.478 . S
C1011 H1005 0.930 . S
C1011 C1007 1.400 1_655 S
C1011 C1010 1.385 1_545 S
C1012 C1010 1.478 . S
C1012 C1014 1.381 . S
C1012 C1018 1.383 . S
C1013 C1009 1.495 . S
C1013 H1019 0.959 1_655 S
C1013 H1020 0.961 . S
C1013 H1021 0.960 . S
C1014 C1012 1.381 . S
C1014 C1015 1.394 . S
C1014 H1022 0.991 . S
C1015 C1014 1.394 . S
C1015 C1016 1.383 . S
C1015 H1023 0.929 . S
C1016 C1015 1.383 . S
C1016 C1017 1.377 . S
C1017 H1001 0.930 . S
C1017 C1016 1.377 . S
C1017 C1018 1.379 . S
C1018 H1002 0.931 . S
C1018 C1012 1.383 . S
C1018 C1017 1.379 . S
H1019 C1013 0.959 1_455 S
H1020 C1013 0.961 . S
H1021 C1013 0.960 . S
H1022 C1014 0.991 . S
H1023 C1015 0.929 . S
H1024 C1032 0.929 . S
H1025 C1034 0.930 . S
H1026 C1036 0.930 . S
H1027 C1039 0.929 . S
H1028 C1042 0.930 . S
H1029 C1044 0.960 . S
H1030 C1044 0.960 . S
H1031 C1044 0.960 . S
C1032 H1024 0.929 . S
C1032 C1033 1.377 . S
C1032 C1034 1.384 . S
C1033 C1032 1.377 . S
C1033 C1039 1.390 . S
C1034 H1025 0.930 . S
C1034 C1032 1.384 . S
C1034 C1035 1.372 . S
C1035 C1034 1.372 . S
C1035 C1036 1.400 . S
C1035 C1040 1.490 . S
C1036 H1026 0.930 . S
C1036 C1035 1.400 . S
C1036 C1039 1.386 . S
H1037 C1053 0.930 . S
H1038 C1054 0.931 . S
C1039 H1027 0.929 . S
C1039 C1033 1.390 . S
C1039 C1036 1.386 . S
C1040 C1035 1.490 . S
C1040 C1042 1.395 . S
C1040 C1043 1.403 . S
H1041 C1047 0.930 . S
C1042 H1028 0.930 . S
C1042 C1040 1.395 . S
C1042 C1045 1.403 . S
C1043 C1040 1.403 . S
C1043 C1044 1.524 . S
C1043 C1047 1.400 . S
C1044 H1029 0.960 . S
C1044 H1030 0.960 . S
C1044 H1031 0.960 . S
C1044 C1043 1.524 . S
C1045 C1042 1.403 . S
C1045 C1046 1.392 . S
C1045 C1049 1.495 . S
C1046 C1045 1.392 . S
C1046 C1047 1.385 . S
C1046 C1048 1.478 . S
C1047 H1041 0.930 . S
C1047 C1043 1.400 . S
C1047 C1046 1.385 . S
C1048 C1046 1.478 . S
C1048 C1050 1.381 . S
C1048 C1054 1.383 . S
C1049 C1045 1.495 . S
C1049 H1055 0.959 . S
C1049 H1056 0.961 . S
C1049 H1057 0.960 . S
C1050 C1048 1.381 . S
C1050 C1051 1.394 . S
C1050 H1058 0.930 . S
C1051 C1050 1.394 . S
C1051 C1052 1.383 . S
C1051 H1059 0.929 . S
C1052 C1051 1.383 . S
C1052 C1053 1.377 . S
C1053 H1037 0.930 . S
C1053 C1052 1.377 . S
C1053 C1054 1.379 . S
C1054 H1038 0.931 . S
C1054 C1048 1.383 . S
C1054 C1053 1.379 . S
H1055 C1049 0.959 . S
H1056 C1049 0.961 . S
H1057 C1049 0.960 . S
H1058 C1050 0.930 . S
H1059 C1051 0.929 . S
H1060 C1068 0.929 . S
H1061 C1070 0.930 . S
H1062 C1072 0.930 . S
H1063 C1075 0.929 . S
H1064 C1078 0.930 . S
H1065 C1080 0.960 1_554 S
H1066 C1080 0.960 . S
H1067 C1080 0.960 . S
C1068 H1060 0.929 . S
C1068 C1069 1.377 . S
C1068 C1070 1.384 . S
C1069 C1068 1.377 . S
C1069 C1075 1.390 . S
C1070 H1061 0.930 . S
C1070 C1068 1.384 . S
C1070 C1071 1.372 . S
C1071 C1070 1.372 . S
C1071 C1072 1.400 . S
C1071 C1076 1.490 1_556 S
C1072 H1062 0.930 . S
C1072 C1071 1.400 . S
C1072 C1075 1.386 . S
H1073 C1089 0.930 . S
H1074 C1090 0.931 . S
C1075 H1063 0.929 . S
C1075 C1069 1.390 . S
C1075 C1072 1.386 . S
C1076 C1071 1.490 1_554 S
C1076 C1078 1.395 . S
C1076 C1079 1.403 . S
H1077 C1083 0.930 . S
C1078 H1064 0.930 . S
C1078 C1076 1.395 . S
C1078 C1081 1.403 . S
C1079 C1076 1.403 . S
C1079 C1080 1.524 1_554 S
C1079 C1083 1.400 . S
C1080 H1065 0.960 1_556 S
C1080 H1066 0.960 . S
C1080 H1067 0.960 . S
C1080 C1079 1.524 1_556 S
C1081 C1078 1.403 . S
C1081 C1082 1.392 . S
C1081 C1085 1.495 . S
C1082 C1081 1.392 . S
C1082 C1083 1.385 . S
C1082 C1084 1.478 . S
C1083 H1077 0.930 . S
C1083 C1079 1.400 . S
C1083 C1082 1.385 . S
C1084 C1082 1.478 . S
C1084 C1086 1.381 . S
C1084 C1090 1.383 . S
C1085 C1081 1.495 . S
C1085 H1091 0.959 . S
C1085 H1092 0.961 . S
C1085 H1093 0.960 . S
C1086 C1084 1.381 . S
C1086 C1087 1.394 . S
C1086 H1094 0.930 . S
C1087 C1086 1.394 . S
C1087 C1088 1.383 . S
C1087 H1095 0.929 . S
C1088 C1087 1.383 . S
C1088 C1089 1.377 . S
C1089 H1073 0.930 . S
C1089 C1088 1.377 . S
C1089 C1090 1.379 . S
C1090 H1074 0.931 . S
C1090 C1084 1.383 . S
C1090 C1089 1.379 . S
H1091 C1085 0.959 . S
H1092 C1085 0.961 . S
H1093 C1085 0.960 . S
H1094 C1086 0.930 . S
H1095 C1087 0.929 . S
H1096 C1104 0.929 . S
H1097 C1106 0.930 . S
H1098 C1108 0.930 . S
H1099 C1111 0.929 . S
H1100 C1114 0.930 . S
H1101 C1116 0.960 . S
H1102 C1116 0.960 . S
H1103 C1116 0.960 . S
C1104 H1096 0.929 . S
C1104 C1105 1.377 . S
C1104 C1106 1.384 . S
C1105 C1104 1.377 . S
C1105 C1111 1.390 . S
C1106 H1097 0.930 . S
C1106 C1104 1.384 . S
C1106 C1107 1.372 . S
C1107 C1106 1.372 . S
C1107 C1108 1.400 . S
C1107 C1112 1.490 . S
C1108 H1098 0.930 . S
C1108 C1107 1.400 . S
C1108 C1111 1.386 . S
H1109 C1125 0.930 . S
H1110 C1126 0.931 . S
C1111 H1099 0.929 . S
C1111 C1105 1.390 . S
C1111 C1108 1.386 . S
C1112 C1107 1.490 . S
C1112 C1114 1.395 . S
C1112 C1115 1.403 . S
H1113 C1119 0.930 . S
C1114 H1100 0.930 . S
C1114 C1112 1.395 . S
C1114 C1117 1.403 . S
C1115 C1112 1.403 . S
C1115 C1116 1.524 . S
C1115 C1119 1.400 . S
C1116 H1101 0.960 . S
C1116 H1102 0.960 . S
C1116 H1103 0.960 . S
C1116 C1115 1.524 . S
C1117 C1114 1.403 . S
C1117 C1118 1.392 . S
C1117 C1121 1.495 . S
C1118 C1117 1.392 . S
C1118 C1119 1.385 . S
C1118 C1120 1.478 . S
C1119 H1113 0.930 . S
C1119 C1115 1.400 . S
C1119 C1118 1.385 . S
C1120 C1118 1.478 . S
C1120 C1122 1.381 . S
C1120 C1126 1.383 . S
C1121 C1117 1.495 . S
C1121 H1127 0.959 . S
C1121 H1128 0.961 . S
C1121 H1129 0.960 . S
C1122 C1120 1.381 . S
C1122 C1123 1.394 . S
C1122 H1130 0.930 . S
C1123 C1122 1.394 . S
C1123 C1124 1.383 . S
C1123 H1131 0.929 . S
C1124 C1123 1.383 . S
C1124 C1125 1.377 . S
C1125 H1109 0.930 . S
C1125 C1124 1.377 . S
C1125 C1126 1.379 . S
C1126 H1110 0.931 . S
C1126 C1120 1.383 . S
C1126 C1125 1.379 . S
H1127 C1121 0.959 . S
H1128 C1121 0.961 . S
H1129 C1121 0.960 . S
H1130 C1122 0.930 . S
H1131 C1123 0.929 . S
H1132 C1140 0.929 . S
H1133 C1142 0.930 . S
H1134 C1144 0.930 . S
H1135 C1147 0.929 . S
H1136 C1150 0.930 . S
H1137 C1152 0.960 . S
H1138 C1152 0.960 . S
H1139 C1152 0.960 . S
C1140 H1132 0.929 . S
C1140 C1141 1.377 . S
C1140 C1142 1.384 . S
C1141 C1140 1.377 . S
C1141 C1147 1.390 . S
C1142 H1133 0.930 . S
C1142 C1140 1.384 . S
C1142 C1143 1.372 . S
C1143 C1142 1.372 . S
C1143 C1144 1.400 . S
C1143 C1148 1.490 . S
C1144 H1134 0.930 . S
C1144 C1143 1.400 . S
C1144 C1147 1.386 . S
H1145 C1161 0.930 . S
H1146 C1162 0.931 . S
C1147 H1135 0.929 . S
C1147 C1141 1.390 . S
C1147 C1144 1.386 . S
C1148 C1143 1.490 . S
C1148 C1150 1.395 . S
C1148 C1151 1.403 . S
H1149 C1155 0.930 . S
C1150 H1136 0.930 . S
C1150 C1148 1.395 . S
C1150 C1153 1.403 . S
C1151 C1148 1.403 . S
C1151 C1152 1.524 . S
C1151 C1155 1.400 . S
C1152 H1137 0.960 . S
C1152 H1138 0.960 . S
C1152 H1139 0.960 . S
C1152 C1151 1.524 . S
C1153 C1150 1.403 . S
C1153 C1154 1.392 . S
C1153 C1157 1.495 . S
C1154 C1153 1.392 . S
C1154 C1155 1.385 . S
C1154 C1156 1.478 . S
C1155 H1149 0.930 . S
C1155 C1151 1.400 . S
C1155 C1154 1.385 . S
C1156 C1154 1.478 . S
C1156 C1158 1.381 . S
C1156 C1162 1.383 . S
C1157 C1153 1.495 . S
C1157 H1163 0.959 . S
C1157 H1164 0.961 . S
C1157 H1165 0.960 . S
C1158 C1156 1.381 . S
C1158 C1159 1.394 . S
C1158 H1166 0.930 . S
C1159 C1158 1.394 . S
C1159 C1160 1.383 . S
C1159 H1167 0.929 . S
C1160 C1159 1.383 . S
C1160 C1161 1.377 . S
C1161 H1145 0.930 . S
C1161 C1160 1.377 . S
C1161 C1162 1.379 . S
C1162 H1146 0.931 . S
C1162 C1156 1.383 . S
C1162 C1161 1.379 . S
H1163 C1157 0.959 . S
H1164 C1157 0.961 . S
H1165 C1157 0.960 . S
H1166 C1158 0.930 . S
H1167 C1159 0.929 . S
H1168 C1176 0.929 . S
H1169 C1178 0.930 . S
H1170 C1180 0.930 . S
H1171 C1183 0.929 . S
H1172 C1186 0.930 . S
H1173 C1188 0.960 . S
H1174 C1188 0.960 . S
H1175 C1188 0.960 . S
C1176 H1168 0.929 . S
C1176 C1177 1.377 . S
C1176 C1178 1.384 . S
C1177 C1176 1.377 . S
C1177 C1183 1.390 . S
C1178 H1169 0.930 . S
C1178 C1176 1.384 . S
C1178 C1179 1.372 . S
C1179 C1178 1.372 . S
C1179 C1180 1.400 . S
C1179 C1184 1.490 . S
C1180 H1170 0.930 . S
C1180 C1179 1.400 . S
C1180 C1183 1.386 . S
H1181 C1197 0.930 . S
H1182 C1198 0.931 . S
C1183 H1171 0.929 . S
C1183 C1177 1.390 . S
C1183 C1180 1.386 . S
C1184 C1179 1.490 . S
C1184 C1186 1.395 . S
C1184 C1187 1.403 . S
H1185 C1191 0.930 . S
C1186 H1172 0.930 . S
C1186 C1184 1.395 . S
C1186 C1189 1.403 . S
C1187 C1184 1.403 . S
C1187 C1188 1.524 . S
C1187 C1191 1.400 . S
C1188 H1173 0.960 . S
C1188 H1174 0.960 . S
C1188 H1175 0.960 . S
C1188 C1187 1.524 . S
C1189 C1186 1.403 . S
C1189 C1190 1.392 . S
C1189 C1193 1.495 . S
C1190 C1189 1.392 . S
C1190 C1191 1.385 . S
C1190 C1192 1.478 . S
C1191 H1185 0.930 . S
C1191 C1187 1.400 . S
C1191 C1190 1.385 . S
C1192 C1190 1.478 . S
C1192 C1194 1.381 . S
C1192 C1198 1.383 . S
C1193 C1189 1.495 . S
C1193 H1199 0.959 . S
C1193 H1200 0.961 . S
C1193 H1201 0.960 . S
C1194 C1192 1.381 . S
C1194 C1195 1.394 . S
C1194 H1202 0.930 . S
C1195 C1194 1.394 . S
C1195 C1196 1.383 . S
C1195 H1203 0.929 . S
C1196 C1195 1.383 . S
C1196 C1197 1.377 . S
C1197 H1181 0.930 . S
C1197 C1196 1.377 . S
C1197 C1198 1.379 . S
C1198 H1182 0.931 . S
C1198 C1192 1.383 . S
C1198 C1197 1.379 . S
H1199 C1193 0.959 . S
H1200 C1193 0.961 . S
H1201 C1193 0.960 . S
H1202 C1194 0.930 . S
H1203 C1195 0.929 . S
H1204 C1212 0.929 . S
H1205 C1214 0.930 . S
H1206 C1216 0.930 . S
H1207 C1219 0.929 . S
H1208 C1222 0.930 . S
H1209 C1224 0.960 . S
H1210 C1224 0.960 1_556 S
H1211 C1224 0.960 1_556 S
C1212 H1204 0.929 . S
C1212 C1213 1.377 . S
C1212 C1214 1.384 . S
C1213 C1212 1.377 . S
C1213 C1219 1.390 . S
C1214 H1205 0.930 . S
C1214 C1212 1.384 . S
C1214 C1215 1.372 . S
C1215 C1214 1.372 . S
C1215 C1216 1.400 . S
C1215 C1220 1.490 1_556 S
C1216 H1206 0.930 . S
C1216 C1215 1.400 . S
C1216 C1219 1.386 . S
H1217 C1233 0.930 . S
H1218 C1234 0.931 . S
C1219 H1207 0.929 . S
C1219 C1213 1.390 . S
C1219 C1216 1.386 . S
C1220 C1215 1.490 1_554 S
C1220 C1222 1.395 . S
C1220 C1223 1.403 . S
H1221 C1227 0.930 . S
C1222 H1208 0.930 . S
C1222 C1220 1.395 . S
C1222 C1225 1.403 . S
C1223 C1220 1.403 . S
C1223 C1224 1.524 . S
C1223 C1227 1.400 . S
C1224 H1209 0.960 . S
C1224 H1210 0.960 1_554 S
C1224 H1211 0.960 1_554 S
C1224 C1223 1.524 . S
C1225 C1222 1.403 . S
C1225 C1226 1.392 . S
C1225 C1229 1.495 . S
C1226 C1225 1.392 . S
C1226 C1227 1.385 . S
C1226 C1228 1.478 . S
C1227 H1221 0.930 . S
C1227 C1223 1.400 . S
C1227 C1226 1.385 . S
C1228 C1226 1.478 . S
C1228 C1230 1.381 . S
C1228 C1234 1.383 . S
C1229 C1225 1.495 . S
C1229 H1235 0.959 . S
C1229 H1236 0.961 . S
C1229 H1237 0.960 . S
C1230 C1228 1.381 . S
C1230 C1231 1.394 . S
C1230 H1238 0.930 . S
C1231 C1230 1.394 . S
C1231 C1232 1.383 . S
C1231 H1239 0.929 . S
C1232 C1231 1.383 . S
C1232 C1233 1.377 . S
C1233 H1217 0.930 . S
C1233 C1232 1.377 . S
C1233 C1234 1.379 . S
C1234 H1218 0.931 . S
C1234 C1228 1.383 . S
C1234 C1233 1.379 . S
H1235 C1229 0.959 . S
H1236 C1229 0.961 . S
H1237 C1229 0.960 . S
H1238 C1230 0.930 . S
H1239 C1231 0.929 . S
H1240 C1248 0.929 . S
H1241 C1250 0.930 . S
H1242 C1252 0.930 . S
H1243 C1255 0.929 . S
H1244 C1258 0.930 . S
H1245 C1260 0.960 . S
H1246 C1260 0.960 . S
H1247 C1260 0.960 . S
C1248 H1240 0.929 . S
C1248 C1249 1.377 . S
C1248 C1250 1.384 . S
C1249 C1248 1.377 . S
C1249 C1255 1.390 . S
C1250 H1241 0.930 . S
C1250 C1248 1.384 . S
C1250 C1251 1.372 . S
C1251 C1250 1.372 . S
C1251 C1252 1.400 . S
C1251 C1256 1.490 . S
C1252 H1242 0.930 . S
C1252 C1251 1.400 . S
C1252 C1255 1.386 . S
H1253 C1269 0.930 . S
H1254 C1270 0.931 . S
C1255 H1243 0.929 . S
C1255 C1249 1.390 . S
C1255 C1252 1.386 . S
C1256 C1251 1.490 . S
C1256 C1258 1.395 . S
C1256 C1259 1.403 . S
H1257 C1263 0.930 . S
C1258 H1244 0.930 . S
C1258 C1256 1.395 . S
C1258 C1261 1.403 . S
C1259 C1256 1.403 . S
C1259 C1260 1.524 . S
C1259 C1263 1.400 . S
C1260 H1245 0.960 . S
C1260 H1246 0.960 . S
C1260 H1247 0.960 . S
C1260 C1259 1.524 . S
C1261 C1258 1.403 . S
C1261 C1262 1.392 . S
C1261 C1265 1.495 . S
C1262 C1261 1.392 . S
C1262 C1263 1.385 . S
C1262 C1264 1.478 . S
C1263 H1257 0.930 . S
C1263 C1259 1.400 . S
C1263 C1262 1.385 . S
C1264 C1262 1.478 . S
C1264 C1266 1.381 . S
C1264 C1270 1.383 . S
C1265 C1261 1.495 . S
C1265 H1271 0.959 . S
C1265 H1272 0.961 . S
C1265 H1273 0.960 . S
C1266 C1264 1.381 . S
C1266 C1267 1.394 . S
C1266 H1274 0.930 . S
C1267 C1266 1.394 . S
C1267 C1268 1.383 . S
C1267 H1275 0.929 . S
C1268 C1267 1.383 . S
C1268 C1269 1.377 . S
C1269 H1253 0.930 . S
C1269 C1268 1.377 . S
C1269 C1270 1.379 . S
C1270 H1254 0.931 . S
C1270 C1264 1.383 . S
C1270 C1269 1.379 . S
H1271 C1265 0.959 . S
H1272 C1265 0.961 . S
H1273 C1265 0.960 . S
H1274 C1266 0.930 . S
H1275 C1267 0.929 . S
H1276 C1284 0.929 . S
H1277 C1286 0.930 . S
H1278 C1288 0.930 . S
H1279 C1291 0.929 . S
H1280 C1294 0.930 . S
H1281 C1296 0.960 . S
H1282 C1296 0.960 . S
H1283 C1296 0.960 . S
C1284 H1276 0.929 . S
C1284 C1285 1.377 . S
C1284 C1286 1.384 . S
C1285 C1284 1.377 . S
C1285 C1291 1.390 . S
C1286 H1277 0.930 . S
C1286 C1284 1.384 . S
C1286 C1287 1.372 . S
C1287 C1286 1.372 . S
C1287 C1288 1.400 . S
C1287 C1292 1.490 . S
C1288 H1278 0.930 . S
C1288 C1287 1.400 . S
C1288 C1291 1.386 . S
H1289 C1305 0.930 . S
H1290 C1306 0.931 . S
C1291 H1279 0.929 . S
C1291 C1285 1.390 . S
C1291 C1288 1.386 . S
C1292 C1287 1.490 . S
C1292 C1294 1.395 . S
C1292 C1295 1.403 . S
H1293 C1299 0.930 . S
C1294 H1280 0.930 . S
C1294 C1292 1.395 . S
C1294 C1297 1.403 . S
C1295 C1292 1.403 . S
C1295 C1296 1.524 . S
C1295 C1299 1.400 . S
C1296 H1281 0.960 . S
C1296 H1282 0.960 . S
C1296 H1283 0.960 . S
C1296 C1295 1.524 . S
C1297 C1294 1.403 . S
C1297 C1298 1.392 . S
C1297 C1301 1.495 . S
C1298 C1297 1.392 . S
C1298 C1299 1.385 . S
C1298 C1300 1.478 . S
C1299 H1293 0.930 . S
C1299 C1295 1.400 . S
C1299 C1298 1.385 . S
C1300 C1298 1.478 . S
C1300 C1302 1.381 . S
C1300 C1306 1.383 . S
C1301 C1297 1.495 . S
C1301 H1307 0.959 . S
C1301 H1308 0.961 . S
C1301 H1309 0.960 . S
C1302 C1300 1.381 . S
C1302 C1303 1.394 . S
C1302 H1310 0.930 . S
C1303 C1302 1.394 . S
C1303 C1304 1.383 . S
C1303 H1311 0.929 . S
C1304 C1303 1.383 . S
C1304 C1305 1.377 . S
C1305 H1289 0.930 . S
C1305 C1304 1.377 . S
C1305 C1306 1.379 . S
C1306 H1290 0.931 . S
C1306 C1300 1.383 . S
C1306 C1305 1.379 . S
H1307 C1301 0.959 . S
H1308 C1301 0.961 . S
H1309 C1301 0.960 . S
H1310 C1302 0.930 . S
H1311 C1303 0.929 . S
H1312 C1320 0.929 . S
H1313 C1322 0.930 . S
H1314 C1324 0.930 . S
H1315 C1327 0.929 . S
H1316 C1330 0.930 . S
H1317 C1332 0.960 . S
H1318 C1332 0.960 . S
H1319 C1332 0.960 . S
C1320 H1312 0.929 . S
C1320 C1321 1.377 . S
C1320 C1322 1.384 . S
C1321 C1320 1.377 . S
C1321 C1327 1.390 . S
C1322 H1313 0.930 . S
C1322 C1320 1.384 . S
C1322 C1323 1.372 . S
C1323 C1322 1.372 . S
C1323 C1324 1.400 . S
C1323 C1328 1.490 . S
C1324 H1314 0.930 . S
C1324 C1323 1.400 . S
C1324 C1327 1.386 . S
H1325 C1341 0.930 . S
H1326 C1342 0.931 . S
C1327 H1315 0.929 . S
C1327 C1321 1.390 . S
C1327 C1324 1.386 . S
C1328 C1323 1.490 . S
C1328 C1330 1.395 1_545 S
C1328 C1331 1.403 . S
H1329 C1335 0.930 . S
C1330 H1316 0.930 . S
C1330 C1328 1.395 1_565 S
C1330 C1333 1.403 . S
C1331 C1328 1.403 . S
C1331 C1332 1.524 . S
C1331 C1335 1.400 . S
C1332 H1317 0.960 . S
C1332 H1318 0.960 . S
C1332 H1319 0.960 . S
C1332 C1331 1.524 . S
C1333 C1330 1.403 . S
C1333 C1334 1.392 . S
C1333 C1337 1.495 . S
C1334 C1333 1.392 . S
C1334 C1335 1.385 1_565 S
C1334 C1336 1.478 . S
C1335 H1329 0.930 . S
C1335 C1331 1.400 . S
C1335 C1334 1.385 1_545 S
C1336 C1334 1.478 . S
C1336 C1338 1.381 . S
C1336 C1342 1.383 . S
C1337 C1333 1.495 . S
C1337 H1343 0.959 . S
C1337 H1344 0.961 . S
C1337 H1345 0.960 . S
C1338 C1336 1.381 . S
C1338 C1339 1.394 . S
C1338 H1346 0.930 . S
C1339 C1338 1.394 . S
C1339 C1340 1.383 . S
C1339 H1347 0.929 . S
C1340 C1339 1.383 . S
C1340 C1341 1.377 . S
C1341 H1325 0.930 . S
C1341 C1340 1.377 . S
C1341 C1342 1.379 . S
C1342 H1326 0.931 . S
C1342 C1336 1.383 . S
C1342 C1341 1.379 . S
H1343 C1337 0.959 . S
H1344 C1337 0.961 . S
H1345 C1337 0.960 . S
H1346 C1338 0.930 . S
H1347 C1339 0.929 . S
H1348 C1356 0.929 . S
H1349 C1358 0.930 . S
H1350 C1360 0.930 . S
H1351 C1363 0.929 . S
H1352 C1366 0.930 . S
H1353 C1368 0.960 . S
H1354 C1368 0.960 . S
H1355 C1368 0.960 . S
C1356 H1348 0.929 . S
C1356 C1357 1.377 . S
C1356 C1358 1.384 . S
C1357 C1356 1.377 . S
C1357 C1363 1.390 . S
C1358 H1349 0.930 . S
C1358 C1356 1.384 . S
C1358 C1359 1.372 . S
C1359 C1358 1.372 . S
C1359 C1360 1.400 . S
C1359 C1364 1.490 . S
C1360 H1350 0.930 . S
C1360 C1359 1.400 . S
C1360 C1363 1.386 . S
H1361 C1377 0.930 . S
H1362 C1378 0.931 . S
C1363 H1351 0.929 . S
C1363 C1357 1.390 . S
C1363 C1360 1.386 . S
C1364 C1359 1.490 . S
C1364 C1366 1.395 . S
C1364 C1367 1.403 . S
H1365 C1371 0.930 . S
C1366 H1352 0.930 . S
C1366 C1364 1.395 . S
C1366 C1369 1.403 . S
C1367 C1364 1.403 . S
C1367 C1368 1.524 . S
C1367 C1371 1.400 . S
C1368 H1353 0.960 . S
C1368 H1354 0.960 . S
C1368 H1355 0.960 . S
C1368 C1367 1.524 . S
C1369 C1366 1.403 . S
C1369 C1370 1.392 . S
C1369 C1373 1.495 . S
C1370 C1369 1.392 . S
C1370 C1371 1.385 . S
C1370 C1372 1.478 . S
C1371 H1365 0.930 . S
C1371 C1367 1.400 . S
C1371 C1370 1.385 . S
C1372 C1370 1.478 . S
C1372 C1374 1.381 . S
C1372 C1378 1.383 . S
C1373 C1369 1.495 . S
C1373 H1379 0.959 . S
C1373 H1380 0.961 . S
C1373 H1381 0.960 . S
C1374 C1372 1.381 . S
C1374 C1375 1.394 . S
C1374 H1382 0.930 . S
C1375 C1374 1.394 . S
C1375 C1376 1.383 . S
C1375 H1383 0.929 . S
C1376 C1375 1.383 . S
C1376 C1377 1.377 . S
C1377 H1361 0.930 . S
C1377 C1376 1.377 . S
C1377 C1378 1.379 . S
C1378 H1362 0.931 . S
C1378 C1372 1.383 . S
C1378 C1377 1.379 . S
H1379 C1373 0.959 . S
H1380 C1373 0.961 . S
H1381 C1373 0.960 . S
H1382 C1374 0.930 . S
H1383 C1375 0.929 . S
H1384 C1392 0.929 . S
H1385 C1394 0.924 1_565 S
H1386 C1396 0.930 . S
H1387 C1399 0.929 . S
H1388 C1402 0.930 . S
H1389 C1404 0.960 . S
H1390 C1404 0.960 . S
H1391 C1404 0.960 . S
C1392 H1384 0.929 . S
C1392 C1393 1.377 . S
C1392 C1394 1.384 . S
C1393 C1392 1.377 . S
C1393 C1399 1.390 . S
C1394 H1385 0.924 1_545 S
C1394 C1392 1.384 . S
C1394 C1395 1.372 . S
C1395 C1394 1.372 . S
C1395 C1396 1.400 . S
C1395 C1400 1.490 . S
C1396 H1386 0.930 . S
C1396 C1395 1.400 . S
C1396 C1399 1.386 . S
H1397 C1413 0.930 . S
H1398 C1414 0.931 . S
C1399 H1387 0.929 . S
C1399 C1393 1.390 . S
C1399 C1396 1.386 . S
C1400 C1395 1.490 . S
C1400 C1402 1.395 1_545 S
C1400 C1403 1.403 . S
H1401 C1407 0.930 . S
C1402 H1388 0.930 . S
C1402 C1400 1.395 1_565 S
C1402 C1405 1.403 . S
C1403 C1400 1.403 . S
C1403 C1404 1.524 . S
C1403 C1407 1.400 . S
C1404 H1389 0.960 . S
C1404 H1390 0.960 . S
C1404 H1391 0.960 . S
C1404 C1403 1.524 . S
C1405 C1402 1.403 . S
C1405 C1406 1.392 . S
C1405 C1409 1.495 . S
C1406 C1405 1.392 . S
C1406 C1407 1.385 1_565 S
C1406 C1408 1.478 . S
C1407 H1401 0.930 . S
C1407 C1403 1.400 . S
C1407 C1406 1.385 1_545 S
C1408 C1406 1.478 . S
C1408 C1410 1.381 . S
C1408 C1414 1.383 . S
C1409 C1405 1.495 . S
C1409 H1415 0.959 . S
C1409 H1416 0.961 . S
C1409 H1417 0.960 . S
C1410 C1408 1.381 . S
C1410 C1411 1.394 . S
C1410 H1418 0.930 . S
C1411 C1410 1.394 . S
C1411 C1412 1.383 . S
C1411 H1419 0.929 . S
C1412 C1411 1.383 . S
C1412 C1413 1.377 . S
C1413 H1397 0.930 . S
C1413 C1412 1.377 . S
C1413 C1414 1.379 . S
C1414 H1398 0.931 . S
C1414 C1408 1.383 . S
C1414 C1413 1.379 . S
H1415 C1409 0.959 . S
H1416 C1409 0.961 . S
H1417 C1409 0.960 . S
H1418 C1410 0.930 . S
H1419 C1411 0.929 . S
H1420 C1428 0.929 . S
H1421 C1430 0.930 . S
H1422 C1432 0.930 . S
H1423 C1435 0.929 . S
H1424 C1438 0.930 1_556 S
H1425 C1440 0.960 . S
H1426 C1440 0.960 . S
H1427 C1440 0.960 . S
C1428 H1420 0.929 . S
C1428 C1429 1.377 . S
C1428 C1430 1.384 . S
C1429 C1428 1.377 . S
C1429 C1435 1.390 . S
C1430 H1421 0.930 . S
C1430 C1428 1.384 . S
C1430 C1431 1.372 . S
C1431 C1430 1.372 . S
C1431 C1432 1.400 . S
C1431 C1436 1.490 1_556 S
C1432 H1422 0.930 . S
C1432 C1431 1.400 . S
C1432 C1435 1.386 . S
H1433 C1449 0.930 . S
H1434 C1450 0.931 . S
C1435 H1423 0.929 . S
C1435 C1429 1.390 . S
C1435 C1432 1.386 . S
C1436 C1431 1.490 1_554 S
C1436 C1438 1.395 . S
C1436 C1439 1.403 . S
H1437 C1443 0.930 . S
C1438 H1424 0.930 1_554 S
C1438 C1436 1.395 . S
C1438 C1441 1.403 . S
C1439 C1436 1.403 . S
C1439 C1440 1.524 . S
C1439 C1443 1.400 . S
C1440 H1425 0.960 . S
C1440 H1426 0.960 . S
C1440 H1427 0.960 . S
C1440 C1439 1.524 . S
C1441 C1438 1.403 . S
C1441 C1442 1.392 . S
C1441 C1445 1.495 . S
C1442 C1441 1.392 . S
C1442 C1443 1.385 . S
C1442 C1444 1.478 . S
C1443 H1437 0.930 . S
C1443 C1439 1.400 . S
C1443 C1442 1.385 . S
C1444 C1442 1.478 . S
C1444 C1446 1.381 . S
C1444 C1450 1.383 . S
C1445 C1441 1.495 . S
C1445 H1451 0.959 . S
C1445 H1452 0.961 . S
C1445 H1453 0.960 . S
C1446 C1444 1.381 . S
C1446 C1447 1.394 . S
C1446 H1454 0.930 . S
C1447 C1446 1.394 . S
C1447 C1448 1.383 . S
C1447 H1455 0.929 . S
C1448 C1447 1.383 . S
C1448 C1449 1.377 . S
C1449 H1433 0.930 . S
C1449 C1448 1.377 . S
C1449 C1450 1.379 . S
C1450 H1434 0.931 . S
C1450 C1444 1.383 . S
C1450 C1449 1.379 . S
H1451 C1445 0.959 . S
H1452 C1445 0.961 . S
H1453 C1445 0.960 . S
H1454 C1446 0.930 . S
H1455 C1447 0.929 . S
H1456 C1464 0.929 1_545 S
H1457 C1466 1.001 . S
H1458 C1468 0.930 . S
H1459 C1471 0.929 . S
H1460 C1474 0.933 . S
H1461 C1476 0.960 . S
H1462 C1476 0.960 1_545 S
H1463 C1476 0.960 . S
C1464 H1456 0.929 1_565 S
C1464 C1465 1.377 . S
C1464 C1466 1.363 1_565 S
C1465 C1464 1.377 . S
C1465 C1471 1.390 . S
C1466 H1457 1.001 . S
C1466 C1464 1.363 1_545 S
C1466 C1467 1.327 1_545 S
C1467 C1466 1.327 1_565 S
C1467 C1468 1.400 . S
C1467 C1472 1.490 . S
C1468 H1458 0.930 . S
C1468 C1467 1.400 . S
C1468 C1471 1.386 . S
H1469 C1485 0.930 1_565 S
H1470 C1486 0.998 . S
C1471 H1459 0.929 . S
C1471 C1465 1.390 . S
C1471 C1468 1.386 . S
C1472 C1467 1.490 . S
C1472 C1474 1.401 . S
C1472 C1475 1.403 . S
H1473 C1479 0.930 . S
C1474 H1460 0.933 . S
C1474 C1472 1.401 . S
C1474 C1477 1.395 1_565 S
C1475 C1472 1.403 . S
C1475 C1476 1.524 . S
C1475 C1479 1.400 1_565 S
C1476 H1461 0.960 . S
C1476 H1462 0.960 1_565 S
C1476 H1463 0.960 . S
C1476 C1475 1.524 . S
C1477 C1474 1.395 1_545 S
C1477 C1478 1.392 . S
C1477 C1481 1.495 . S
C1478 C1477 1.392 . S
C1478 C1479 1.385 . S
C1478 C1480 1.478 . S
C1479 H1473 0.930 . S
C1479 C1475 1.400 1_545 S
C1479 C1478 1.385 . S
C1480 C1478 1.478 . S
C1480 C1482 1.381 . S
C1480 C1486 1.337 1_545 S
C1481 C1477 1.495 . S
C1481 H1487 0.959 . S
C1481 H1488 0.939 1_545 S
C1481 H1489 0.960 . S
C1482 C1480 1.381 . S
C1482 C1483 1.394 . S
C1482 H1490 0.930 . S
C1483 C1482 1.394 . S
C1483 C1484 1.383 . S
C1483 H1491 0.929 . S
C1484 C1483 1.383 . S
C1484 C1485 1.377 . S
C1485 H1469 0.930 1_545 S
C1485 C1484 1.377 . S
C1485 C1486 1.362 1_545 S
C1486 H1470 0.998 . S
C1486 C1480 1.337 1_565 S
C1486 C1485 1.362 1_565 S
H1487 C1481 0.959 . S
H1488 C1481 0.939 1_565 S
H1489 C1481 0.960 . S
H1490 C1482 0.930 . S
H1491 C1483 0.929 . S
H1492 C1500 0.929 . S
H1493 C1502 0.930 . S
H1494 C1504 0.930 . S
H1495 C1507 0.929 . S
H1496 C1510 0.930 . S
H1497 C1512 0.960 . S
H1498 C1512 0.960 . S
H1499 C1512 0.960 . S
C1500 H1492 0.929 . S
C1500 C1501 1.377 . S
C1500 C1502 1.384 . S
C1501 C1500 1.377 . S
C1501 C1507 1.390 . S
C1502 H1493 0.930 . S
C1502 C1500 1.384 . S
C1502 C1503 1.372 . S
C1503 C1502 1.372 . S
C1503 C1504 1.400 . S
C1503 C1508 1.490 . S
C1504 H1494 0.930 . S
C1504 C1503 1.400 . S
C1504 C1507 1.386 . S
H1505 C1521 0.930 . S
H1506 C1522 0.931 . S
C1507 H1495 0.929 . S
C1507 C1501 1.390 . S
C1507 C1504 1.386 . S
C1508 C1503 1.490 . S
C1508 C1510 1.395 . S
C1508 C1511 1.403 . S
H1509 C1515 0.930 . S
C1510 H1496 0.930 . S
C1510 C1508 1.395 . S
C1510 C1513 1.403 . S
C1511 C1508 1.403 . S
C1511 C1512 1.524 . S
C1511 C1515 1.400 . S
C1512 H1497 0.960 . S
C1512 H1498 0.960 . S
C1512 H1499 0.960 . S
C1512 C1511 1.524 . S
C1513 C1510 1.403 . S
C1513 C1514 1.392 . S
C1513 C1517 1.495 . S
C1514 C1513 1.392 . S
C1514 C1515 1.385 . S
C1514 C1516 1.478 . S
C1515 H1509 0.930 . S
C1515 C1511 1.400 . S
C1515 C1514 1.385 . S
C1516 C1514 1.478 . S
C1516 C1518 1.381 . S
C1516 C1522 1.383 . S
C1517 C1513 1.495 . S
C1517 H1523 0.959 . S
C1517 H1524 0.961 . S
C1517 H1525 0.960 . S
C1518 C1516 1.381 . S
C1518 C1519 1.394 . S
C1518 H1526 0.930 . S
C1519 C1518 1.394 . S
C1519 C1520 1.383 . S
C1519 H1527 0.929 . S
C1520 C1519 1.383 . S
C1520 C1521 1.377 . S
C1521 H1505 0.930 . S
C1521 C1520 1.377 . S
C1521 C1522 1.379 . S
C1522 H1506 0.931 . S
C1522 C1516 1.383 . S
C1522 C1521 1.379 . S
H1523 C1517 0.959 . S
H1524 C1517 0.961 . S
H1525 C1517 0.960 . S
H1526 C1518 0.930 . S
H1527 C1519 0.929 . S
H1528 C1536 0.929 . S
H1529 C1538 0.959 . S
H1530 C1540 0.930 . S
H1531 C1543 0.929 . S
H1532 C1546 0.930 . S
H1533 C1548 0.960 . S
H1534 C1548 0.960 . S
H1535 C1548 0.960 . S
C1536 H1528 0.929 . S
C1536 C1537 1.377 . S
C1536 C1538 1.384 . S
C1537 C1536 1.377 . S
C1537 C1543 1.390 . S
C1538 H1529 0.959 . S
C1538 C1536 1.384 . S
C1538 C1539 1.372 . S
C1539 C1538 1.372 . S
C1539 C1540 1.400 . S
C1539 C1544 1.490 . S
C1540 H1530 0.930 . S
C1540 C1539 1.400 . S
C1540 C1543 1.386 . S
H1541 C1557 0.930 . S
H1542 C1558 0.931 . S
C1543 H1531 0.929 . S
C1543 C1537 1.390 . S
C1543 C1540 1.386 . S
C1544 C1539 1.490 . S
C1544 C1546 1.395 1_545 S
C1544 C1547 1.403 . S
H1545 C1551 0.930 . S
C1546 H1532 0.930 . S
C1546 C1544 1.395 1_565 S
C1546 C1549 1.403 . S
C1547 C1544 1.403 . S
C1547 C1548 1.524 . S
C1547 C1551 1.400 . S
C1548 H1533 0.960 . S
C1548 H1534 0.960 . S
C1548 H1535 0.960 . S
C1548 C1547 1.524 . S
C1549 C1546 1.403 . S
C1549 C1550 1.392 . S
C1549 C1553 1.495 . S
C1550 C1549 1.392 . S
C1550 C1551 1.385 1_565 S
C1550 C1552 1.478 . S
C1551 H1545 0.930 . S
C1551 C1547 1.400 . S
C1551 C1550 1.385 1_545 S
C1552 C1550 1.478 . S
C1552 C1554 1.381 . S
C1552 C1558 1.383 . S
C1553 C1549 1.495 . S
C1553 H1559 0.959 . S
C1553 H1560 0.961 . S
C1553 H1561 0.960 . S
C1554 C1552 1.381 . S
C1554 C1555 1.394 . S
C1554 H1562 0.930 . S
C1555 C1554 1.394 . S
C1555 C1556 1.383 . S
C1555 H1563 0.929 . S
C1556 C1555 1.383 . S
C1556 C1557 1.377 . S
C1557 H1541 0.930 . S
C1557 C1556 1.377 . S
C1557 C1558 1.379 . S
C1558 H1542 0.931 . S
C1558 C1552 1.383 . S
C1558 C1557 1.379 . S
H1559 C1553 0.959 . S
H1560 C1553 0.961 . S
H1561 C1553 0.960 . S
H1562 C1554 0.930 . S
H1563 C1555 0.929 . S
H1564 C1572 0.929 . S
H1565 C1574 0.930 . S
H1566 C1576 0.930 . S
H1567 C1579 0.929 . S
H1568 C1582 0.930 . S
H1569 C1584 0.960 . S
H1570 C1584 0.960 . S
H1571 C1584 0.960 . S
C1572 H1564 0.929 . S
C1572 C1573 1.377 . S
C1572 C1574 1.384 . S
C1573 C1572 1.377 . S
C1573 C1579 1.390 . S
C1574 H1565 0.930 . S
C1574 C1572 1.384 . S
C1574 C1575 1.372 . S
C1575 C1574 1.372 . S
C1575 C1576 1.400 . S
C1575 C1580 1.490 . S
C1576 H1566 0.930 . S
C1576 C1575 1.400 . S
C1576 C1579 1.386 . S
H1577 C1593 0.930 . S
H1578 C1594 0.931 . S
C1579 H1567 0.929 . S
C1579 C1573 1.390 . S
C1579 C1576 1.386 . S
C1580 C1575 1.490 . S
C1580 C1582 1.395 . S
C1580 C1583 1.403 . S
H1581 C1587 0.930 . S
C1582 H1568 0.930 . S
C1582 C1580 1.395 . S
C1582 C1585 1.403 . S
C1583 C1580 1.403 . S
C1583 C1584 1.524 . S
C1583 C1587 1.400 . S
C1584 H1569 0.960 . S
C1584 H1570 0.960 . S
C1584 H1571 0.960 . S
C1584 C1583 1.524 . S
C1585 C1582 1.403 . S
C1585 C1586 1.392 . S
C1585 C1589 1.495 1_554 S
C1586 C1585 1.392 . S
C1586 C1587 1.385 . S
C1586 C1588 1.478 1_554 S
C1587 H1581 0.930 . S
C1587 C1583 1.400 . S
C1587 C1586 1.385 . S
C1588 C1586 1.478 1_556 S
C1588 C1590 1.381 . S
C1588 C1594 1.383 . S
C1589 C1585 1.495 1_556 S
C1589 H1595 0.959 1_556 S
C1589 H1596 0.961 . S
C1589 H1597 0.960 . S
C1590 C1588 1.381 . S
C1590 C1591 1.394 . S
C1590 H1598 0.930 . S
C1591 C1590 1.394 . S
C1591 C1592 1.383 . S
C1591 H1599 0.929 . S
C1592 C1591 1.383 . S
C1592 C1593 1.377 . S
C1593 H1577 0.930 . S
C1593 C1592 1.377 . S
C1593 C1594 1.379 . S
C1594 H1578 0.931 . S
C1594 C1588 1.383 . S
C1594 C1593 1.379 . S
H1595 C1589 0.959 1_554 S
H1596 C1589 0.961 . S
H1597 C1589 0.960 . S
H1598 C1590 0.930 . S
H1599 C1591 0.929 . S
H1600 C1608 0.929 . S
H1601 C1610 0.930 . S
H1602 C1612 0.930 . S
H1603 C1615 0.929 . S
H1604 C1618 0.930 . S
H1605 C1620 0.960 . S
H1606 C1620 0.960 . S
H1607 C1620 0.960 . S
C1608 H1600 0.929 . S
C1608 C1609 1.377 . S
C1608 C1610 1.384 . S
C1609 C1608 1.377 . S
C1609 C1615 1.390 . S
C1610 H1601 0.930 . S
C1610 C1608 1.384 . S
C1610 C1611 1.372 . S
C1611 C1610 1.372 . S
C1611 C1612 1.400 . S
C1611 C1616 1.490 . S
C1612 H1602 0.930 . S
C1612 C1611 1.400 . S
C1612 C1615 1.386 . S
H1613 C1629 0.930 . S
H1614 C1630 0.931 . S
C1615 H1603 0.929 . S
C1615 C1609 1.390 . S
C1615 C1612 1.386 . S
C1616 C1611 1.490 . S
C1616 C1618 1.395 . S
C1616 C1619 1.403 . S
H1617 C1623 0.930 . S
C1618 H1604 0.930 . S
C1618 C1616 1.395 . S
C1618 C1621 1.403 . S
C1619 C1616 1.403 . S
C1619 C1620 1.524 . S
C1619 C1623 1.400 . S
C1620 H1605 0.960 . S
C1620 H1606 0.960 . S
C1620 H1607 0.960 . S
C1620 C1619 1.524 . S
C1621 C1618 1.403 . S
C1621 C1622 1.392 . S
C1621 C1625 1.495 . S
C1622 C1621 1.392 . S
C1622 C1623 1.385 . S
C1622 C1624 1.478 . S
C1623 H1617 0.930 . S
C1623 C1619 1.400 . S
C1623 C1622 1.385 . S
C1624 C1622 1.478 . S
C1624 C1626 1.381 . S
C1624 C1630 1.383 . S
C1625 C1621 1.495 . S
C1625 H1631 0.959 . S
C1625 H1632 0.961 . S
C1625 H1633 0.960 . S
C1626 C1624 1.381 . S
C1626 C1627 1.394 . S
C1626 H1634 0.930 . S
C1627 C1626 1.394 . S
C1627 C1628 1.383 . S
C1627 H1635 0.929 . S
C1628 C1627 1.383 . S
C1628 C1629 1.377 . S
C1629 H1613 0.930 . S
C1629 C1628 1.377 . S
C1629 C1630 1.379 . S
C1630 H1614 0.931 . S
C1630 C1624 1.383 . S
C1630 C1629 1.379 . S
H1631 C1625 0.959 . S
H1632 C1625 0.961 . S
H1633 C1625 0.960 . S
H1634 C1626 0.930 . S
H1635 C1627 0.929 . S
H1636 C1644 0.929 . S
H1637 C1646 0.930 . S
H1638 C1648 0.930 . S
H1639 C1651 0.929 . S
H1640 C1654 0.930 . S
H1641 C1656 0.960 . S
H1642 C1656 0.960 . S
H1643 C1656 0.960 . S
C1644 H1636 0.929 . S
C1644 C1645 1.377 . S
C1644 C1646 1.384 . S
C1645 C1644 1.377 . S
C1645 C1651 1.390 . S
C1646 H1637 0.930 . S
C1646 C1644 1.384 . S
C1646 C1647 1.372 . S
C1647 C1646 1.372 . S
C1647 C1648 1.400 . S
C1647 C1652 1.490 . S
C1648 H1638 0.930 . S
C1648 C1647 1.400 . S
C1648 C1651 1.386 . S
H1649 C1665 0.930 . S
H1650 C1666 0.931 . S
C1651 H1639 0.929 . S
C1651 C1645 1.390 . S
C1651 C1648 1.386 . S
C1652 C1647 1.490 . S
C1652 C1654 1.395 . S
C1652 C1655 1.403 . S
H1653 C1659 0.930 . S
C1654 H1640 0.930 . S
C1654 C1652 1.395 . S
C1654 C1657 1.403 . S
C1655 C1652 1.403 . S
C1655 C1656 1.524 . S
C1655 C1659 1.400 . S
C1656 H1641 0.960 . S
C1656 H1642 0.960 . S
C1656 H1643 0.960 . S
C1656 C1655 1.524 . S
C1657 C1654 1.403 . S
C1657 C1658 1.392 . S
C1657 C1661 1.495 . S
C1658 C1657 1.392 . S
C1658 C1659 1.385 . S
C1658 C1660 1.478 . S
C1659 H1653 0.930 . S
C1659 C1655 1.400 . S
C1659 C1658 1.385 . S
C1660 C1658 1.478 . S
C1660 C1662 1.381 . S
C1660 C1666 1.383 . S
C1661 C1657 1.495 . S
C1661 H1667 0.959 . S
C1661 H1668 0.961 . S
C1661 H1669 0.960 . S
C1662 C1660 1.381 . S
C1662 C1663 1.394 . S
C1662 H1670 0.930 . S
C1663 C1662 1.394 . S
C1663 C1664 1.383 . S
C1663 H1671 0.929 . S
C1664 C1663 1.383 . S
C1664 C1665 1.377 . S
C1665 H1649 0.930 . S
C1665 C1664 1.377 . S
C1665 C1666 1.379 . S
C1666 H1650 0.931 . S
C1666 C1660 1.383 . S
C1666 C1665 1.379 . S
H1667 C1661 0.959 . S
H1668 C1661 0.961 . S
H1669 C1661 0.960 . S
H1670 C1662 0.930 . S
H1671 C1663 0.929 . S
H1672 C1680 0.929 . S
H1673 C1682 0.930 . S
H1674 C1684 0.930 . S
H1675 C1687 0.929 . S
H1676 C1690 0.930 . S
H1677 C1692 0.960 . S
H1678 C1692 0.960 . S
H1679 C1692 0.960 . S
C1680 H1672 0.929 . S
C1680 C1681 1.377 . S
C1680 C1682 1.384 . S
C1681 C1680 1.377 . S
C1681 C1687 1.390 . S
C1682 H1673 0.930 . S
C1682 C1680 1.384 . S
C1682 C1683 1.372 . S
C1683 C1682 1.372 . S
C1683 C1684 1.400 . S
C1683 C1688 1.490 . S
C1684 H1674 0.930 . S
C1684 C1683 1.400 . S
C1684 C1687 1.386 . S
H1685 C1701 0.930 . S
H1686 C1702 0.931 . S
C1687 H1675 0.929 . S
C1687 C1681 1.390 . S
C1687 C1684 1.386 . S
C1688 C1683 1.490 . S
C1688 C1690 1.395 . S
C1688 C1691 1.403 . S
H1689 C1695 0.930 . S
C1690 H1676 0.930 . S
C1690 C1688 1.395 . S
C1690 C1693 1.403 . S
C1691 C1688 1.403 . S
C1691 C1692 1.524 . S
C1691 C1695 1.400 . S
C1692 H1677 0.960 . S
C1692 H1678 0.960 . S
C1692 H1679 0.960 . S
C1692 C1691 1.524 . S
C1693 C1690 1.403 . S
C1693 C1694 1.392 . S
C1693 C1697 1.495 . S
C1694 C1693 1.392 . S
C1694 C1695 1.385 . S
C1694 C1696 1.478 . S
C1695 H1689 0.930 . S
C1695 C1691 1.400 . S
C1695 C1694 1.385 . S
C1696 C1694 1.478 . S
C1696 C1698 1.381 . S
C1696 C1702 1.383 . S
C1697 C1693 1.495 . S
C1697 H1703 0.959 . S
C1697 H1704 0.961 . S
C1697 H1705 0.960 . S
C1698 C1696 1.381 . S
C1698 C1699 1.394 . S
C1698 H1706 0.930 . S
C1699 C1698 1.394 . S
C1699 C1700 1.383 . S
C1699 H1707 0.929 . S
C1700 C1699 1.383 . S
C1700 C1701 1.377 . S
C1701 H1685 0.930 . S
C1701 C1700 1.377 . S
C1701 C1702 1.379 . S
C1702 H1686 0.931 . S
C1702 C1696 1.383 . S
C1702 C1701 1.379 . S
H1703 C1697 0.959 . S
H1704 C1697 0.961 . S
H1705 C1697 0.960 . S
H1706 C1698 0.930 . S
H1707 C1699 0.929 . S
H1708 C1716 0.929 . S
H1709 C1718 0.930 . S
H1710 C1720 0.930 . S
H1711 C1723 0.929 . S
H1712 C1726 0.930 . S
H1713 C1728 0.960 . S
H1714 C1728 0.960 . S
H1715 C1728 0.960 . S
C1716 H1708 0.929 . S
C1716 C1717 1.377 . S
C1716 C1718 1.384 . S
C1717 C1716 1.377 . S
C1717 C1723 1.390 . S
C1718 H1709 0.930 . S
C1718 C1716 1.384 . S
C1718 C1719 1.372 . S
C1719 C1718 1.372 . S
C1719 C1720 1.400 . S
C1719 C1724 1.490 . S
C1720 H1710 0.930 . S
C1720 C1719 1.400 . S
C1720 C1723 1.386 . S
H1721 C1737 0.930 . S
H1722 C1738 0.931 . S
C1723 H1711 0.929 . S
C1723 C1717 1.390 . S
C1723 C1720 1.386 . S
C1724 C1719 1.490 . S
C1724 C1726 1.395 . S
C1724 C1727 1.403 . S
H1725 C1731 0.930 . S
C1726 H1712 0.930 . S
C1726 C1724 1.395 . S
C1726 C1729 1.403 . S
C1727 C1724 1.403 . S
C1727 C1728 1.524 . S
C1727 C1731 1.400 . S
C1728 H1713 0.960 . S
C1728 H1714 0.960 . S
C1728 H1715 0.960 . S
C1728 C1727 1.524 . S
C1729 C1726 1.403 . S
C1729 C1730 1.392 . S
C1729 C1733 1.495 1_554 S
C1730 C1729 1.392 . S
C1730 C1731 1.385 . S
C1730 C1732 1.478 1_554 S
C1731 H1725 0.930 . S
C1731 C1727 1.400 . S
C1731 C1730 1.385 . S
C1732 C1730 1.478 1_556 S
C1732 C1734 1.381 . S
C1732 C1738 1.383 . S
C1733 C1729 1.495 1_556 S
C1733 H1739 0.959 1_556 S
C1733 H1740 0.961 . S
C1733 H1741 0.960 . S
C1734 C1732 1.381 . S
C1734 C1735 1.394 . S
C1734 H1742 0.930 . S
C1735 C1734 1.394 . S
C1735 C1736 1.383 . S
C1735 H1743 0.929 . S
C1736 C1735 1.383 . S
C1736 C1737 1.377 . S
C1737 H1721 0.930 . S
C1737 C1736 1.377 . S
C1737 C1738 1.379 . S
C1738 H1722 0.931 . S
C1738 C1732 1.383 . S
C1738 C1737 1.379 . S
H1739 C1733 0.959 1_554 S
H1740 C1733 0.961 . S
H1741 C1733 0.960 . S
H1742 C1734 0.930 . S
H1743 C1735 0.929 . S
H1744 C1752 0.929 . S
H1745 C1754 0.930 . S
H1746 C1756 0.930 . S
H1747 C1759 0.929 . S
H1748 C1762 0.930 . S
H1749 C1764 0.960 . S
H1750 C1764 0.960 . S
H1751 C1764 0.960 . S
C1752 H1744 0.929 . S
C1752 C1753 1.377 . S
C1752 C1754 1.384 . S
C1753 C1752 1.377 . S
C1753 C1759 1.390 . S
C1754 H1745 0.930 . S
C1754 C1752 1.384 . S
C1754 C1755 1.372 . S
C1755 C1754 1.372 . S
C1755 C1756 1.400 . S
C1755 C1760 1.490 . S
C1756 H1746 0.930 . S
C1756 C1755 1.400 . S
C1756 C1759 1.386 . S
H1757 C1773 0.930 . S
H1758 C1774 0.931 . S
C1759 H1747 0.929 . S
C1759 C1753 1.390 . S
C1759 C1756 1.386 . S
C1760 C1755 1.490 . S
C1760 C1762 1.395 . S
C1760 C1763 1.403 . S
H1761 C1767 0.930 . S
C1762 H1748 0.930 . S
C1762 C1760 1.395 . S
C1762 C1765 1.403 . S
C1763 C1760 1.403 . S
C1763 C1764 1.524 . S
C1763 C1767 1.400 . S
C1764 H1749 0.960 . S
C1764 H1750 0.960 . S
C1764 H1751 0.960 . S
C1764 C1763 1.524 . S
C1765 C1762 1.403 . S
C1765 C1766 1.392 . S
C1765 C1769 1.495 . S
C1766 C1765 1.392 . S
C1766 C1767 1.385 . S
C1766 C1768 1.478 . S
C1767 H1761 0.930 . S
C1767 C1763 1.400 . S
C1767 C1766 1.385 . S
C1768 C1766 1.478 . S
C1768 C1770 1.381 . S
C1768 C1774 1.383 . S
C1769 C1765 1.495 . S
C1769 H1775 0.959 . S
C1769 H1776 0.961 . S
C1769 H1777 0.960 . S
C1770 C1768 1.381 . S
C1770 C1771 1.394 . S
C1770 H1778 0.930 . S
C1771 C1770 1.394 . S
C1771 C1772 1.383 . S
C1771 H1779 0.929 . S
C1772 C1771 1.383 . S
C1772 C1773 1.377 . S
C1773 H1757 0.930 . S
C1773 C1772 1.377 . S
C1773 C1774 1.379 . S
C1774 H1758 0.931 . S
C1774 C1768 1.383 . S
C1774 C1773 1.379 . S
H1775 C1769 0.959 . S
H1776 C1769 0.961 . S
H1777 C1769 0.960 . S
H1778 C1770 0.930 . S
H1779 C1771 0.929 . S
H1780 C1788 0.929 . S
H1781 C1790 0.930 . S
H1782 C1792 0.930 . S
H1783 C1795 0.929 . S
H1784 C1798 0.930 . S
H1785 C1800 0.960 . S
H1786 C1800 0.960 . S
H1787 C1800 0.960 . S
C1788 H1780 0.929 . S
C1788 C1789 1.377 . S
C1788 C1790 1.384 . S
C1789 C1788 1.377 . S
C1789 C1795 1.390 . S
C1790 H1781 0.930 . S
C1790 C1788 1.384 . S
C1790 C1791 1.372 . S
C1791 C1790 1.372 . S
C1791 C1792 1.400 . S
C1791 C1796 1.490 . S
C1792 H1782 0.930 . S
C1792 C1791 1.400 . S
C1792 C1795 1.386 . S
H1793 C1809 0.930 . S
H1794 C1810 0.931 . S
C1795 H1783 0.929 . S
C1795 C1789 1.390 . S
C1795 C1792 1.386 . S
C1796 C1791 1.490 . S
C1796 C1798 1.395 . S
C1796 C1799 1.403 . S
H1797 C1803 0.930 . S
C1798 H1784 0.930 . S
C1798 C1796 1.395 . S
C1798 C1801 1.403 . S
C1799 C1796 1.403 . S
C1799 C1800 1.524 . S
C1799 C1803 1.400 . S
C1800 H1785 0.960 . S
C1800 H1786 0.960 . S
C1800 H1787 0.960 . S
C1800 C1799 1.524 . S
C1801 C1798 1.403 . S
C1801 C1802 1.392 . S
C1801 C1805 1.495 . S
C1802 C1801 1.392 . S
C1802 C1803 1.385 . S
C1802 C1804 1.478 . S
C1803 H1797 0.930 . S
C1803 C1799 1.400 . S
C1803 C1802 1.385 . S
C1804 C1802 1.478 . S
C1804 C1806 1.381 . S
C1804 C1810 1.383 . S
C1805 C1801 1.495 . S
C1805 H1811 0.959 . S
C1805 H1812 0.961 . S
C1805 H1813 0.960 . S
C1806 C1804 1.381 . S
C1806 C1807 1.394 . S
C1806 H1814 0.930 . S
C1807 C1806 1.394 . S
C1807 C1808 1.383 . S
C1807 H1815 0.929 . S
C1808 C1807 1.383 . S
C1808 C1809 1.377 . S
C1809 H1793 0.930 . S
C1809 C1808 1.377 . S
C1809 C1810 1.379 . S
C1810 H1794 0.931 . S
C1810 C1804 1.383 . S
C1810 C1809 1.379 . S
H1811 C1805 0.959 . S
H1812 C1805 0.961 . S
H1813 C1805 0.960 . S
H1814 C1806 0.930 . S
H1815 C1807 0.929 . S
H1816 C1824 0.929 . S
H1817 C1826 0.930 . S
H1818 C1828 0.930 . S
H1819 C1831 0.929 . S
H1820 C1834 0.930 . S
H1821 C1836 0.960 . S
H1822 C1836 0.960 . S
H1823 C1836 0.960 . S
C1824 H1816 0.929 . S
C1824 C1825 1.377 . S
C1824 C1826 1.384 . S
C1825 C1824 1.377 . S
C1825 C1831 1.390 . S
C1826 H1817 0.930 . S
C1826 C1824 1.384 . S
C1826 C1827 1.372 . S
C1827 C1826 1.372 . S
C1827 C1828 1.400 . S
C1827 C1832 1.490 . S
C1828 H1818 0.930 . S
C1828 C1827 1.400 . S
C1828 C1831 1.386 . S
H1829 C1845 0.930 . S
H1830 C1846 0.931 . S
C1831 H1819 0.929 . S
C1831 C1825 1.390 . S
C1831 C1828 1.386 . S
C1832 C1827 1.490 . S
C1832 C1834 1.395 . S
C1832 C1835 1.403 . S
H1833 C1839 0.930 . S
C1834 H1820 0.930 . S
C1834 C1832 1.395 . S
C1834 C1837 1.403 . S
C1835 C1832 1.403 . S
C1835 C1836 1.524 . S
C1835 C1839 1.400 . S
C1836 H1821 0.960 . S
C1836 H1822 0.960 . S
C1836 H1823 0.960 . S
C1836 C1835 1.524 . S
C1837 C1834 1.403 . S
C1837 C1838 1.392 . S
C1837 C1841 1.495 . S
C1838 C1837 1.392 . S
C1838 C1839 1.385 . S
C1838 C1840 1.478 . S
C1839 H1833 0.930 . S
C1839 C1835 1.400 . S
C1839 C1838 1.385 . S
C1840 C1838 1.478 . S
C1840 C1842 1.381 . S
C1840 C1846 1.383 . S
C1841 C1837 1.495 . S
C1841 H1847 0.959 . S
C1841 H1848 0.961 . S
C1841 H1849 0.960 . S
C1842 C1840 1.381 . S
C1842 C1843 1.394 . S
C1842 H1850 0.930 . S
C1843 C1842 1.394 . S
C1843 C1844 1.383 . S
C1843 H1851 0.929 . S
C1844 C1843 1.383 . S
C1844 C1845 1.377 . S
C1845 H1829 0.930 . S
C1845 C1844 1.377 . S
C1845 C1846 1.379 . S
C1846 H1830 0.931 . S
C1846 C1840 1.383 . S
C1846 C1845 1.379 . S
H1847 C1841 0.959 . S
H1848 C1841 0.961 . S
H1849 C1841 0.960 . S
H1850 C1842 0.930 . S
H1851 C1843 0.929 . S
H1852 C1860 0.929 . S
H1853 C1862 0.930 . S
H1854 C1864 0.930 . S
H1855 C1867 0.929 . S
H1856 C1870 0.930 1_556 S
H1857 C1872 0.960 . S
H1858 C1872 0.960 . S
H1859 C1872 0.960 . S
C1860 H1852 0.929 . S
C1860 C1861 1.377 . S
C1860 C1862 1.384 . S
C1861 C1860 1.377 . S
C1861 C1867 1.390 . S
C1862 H1853 0.930 . S
C1862 C1860 1.384 . S
C1862 C1863 1.372 . S
C1863 C1862 1.372 . S
C1863 C1864 1.400 . S
C1863 C1868 1.490 1_556 S
C1864 H1854 0.930 . S
C1864 C1863 1.400 . S
C1864 C1867 1.386 . S
H1865 C1881 0.930 . S
H1866 C1882 0.931 . S
C1867 H1855 0.929 . S
C1867 C1861 1.390 . S
C1867 C1864 1.386 . S
C1868 C1863 1.490 1_554 S
C1868 C1870 1.395 . S
C1868 C1871 1.403 . S
H1869 C1875 0.930 . S
C1870 H1856 0.930 1_554 S
C1870 C1868 1.395 . S
C1870 C1873 1.403 . S
C1871 C1868 1.403 . S
C1871 C1872 1.524 . S
C1871 C1875 1.400 . S
C1872 H1857 0.960 . S
C1872 H1858 0.960 . S
C1872 H1859 0.960 . S
C1872 C1871 1.524 . S
C1873 C1870 1.403 . S
C1873 C1874 1.392 . S
C1873 C1877 1.495 . S
C1874 C1873 1.392 . S
C1874 C1875 1.385 . S
C1874 C1876 1.478 . S
C1875 H1869 0.930 . S
C1875 C1871 1.400 . S
C1875 C1874 1.385 . S
C1876 C1874 1.478 . S
C1876 C1878 1.381 . S
C1876 C1882 1.383 . S
C1877 C1873 1.495 . S
C1877 H1883 0.959 . S
C1877 H1884 0.961 . S
C1877 H1885 0.960 . S
C1878 C1876 1.381 . S
C1878 C1879 1.394 . S
C1878 H1886 0.930 . S
C1879 C1878 1.394 . S
C1879 C1880 1.383 . S
C1879 H1887 0.929 . S
C1880 C1879 1.383 . S
C1880 C1881 1.377 . S
C1881 H1865 0.930 . S
C1881 C1880 1.377 . S
C1881 C1882 1.379 . S
C1882 H1866 0.931 . S
C1882 C1876 1.383 . S
C1882 C1881 1.379 . S
H1883 C1877 0.959 . S
H1884 C1877 0.961 . S
H1885 C1877 0.960 . S
H1886 C1878 0.930 . S
H1887 C1879 0.929 . S
H1888 C1896 0.929 . S
H1889 C1898 0.930 . S
H1890 C1900 0.942 . S
H1891 C1903 0.929 . S
H1892 C1906 0.930 . S
H1893 C1908 0.960 . S
H1894 C1908 0.960 . S
H1895 C1908 0.960 . S
C1896 H1888 0.929 . S
C1896 C1897 1.377 . S
C1896 C1898 1.384 . S
C1897 C1896 1.377 . S
C1897 C1903 1.390 . S
C1898 H1889 0.930 . S
C1898 C1896 1.384 . S
C1898 C1899 1.372 . S
C1899 C1898 1.372 . S
C1899 C1900 1.400 . S
C1899 C1904 1.490 . S
C1900 H1890 0.942 . S
C1900 C1899 1.400 . S
C1900 C1903 1.386 . S
H1901 C1917 0.930 . S
H1902 C1918 0.931 . S
C1903 H1891 0.929 . S
C1903 C1897 1.390 . S
C1903 C1900 1.386 . S
C1904 C1899 1.490 . S
C1904 C1906 1.395 . S
C1904 C1907 1.403 1_565 S
H1905 C1911 0.930 . S
C1906 H1892 0.930 . S
C1906 C1904 1.395 . S
C1906 C1909 1.403 . S
C1907 C1904 1.403 1_545 S
C1907 C1908 1.524 . S
C1907 C1911 1.400 . S
C1908 H1893 0.960 . S
C1908 H1894 0.960 . S
C1908 H1895 0.960 . S
C1908 C1907 1.524 . S
C1909 C1906 1.403 . S
C1909 C1910 1.392 1_565 S
C1909 C1913 1.495 . S
C1910 C1909 1.392 1_545 S
C1910 C1911 1.385 . S
C1910 C1912 1.478 . S
C1911 H1905 0.930 . S
C1911 C1907 1.400 . S
C1911 C1910 1.385 . S
C1912 C1910 1.478 . S
C1912 C1914 1.381 . S
C1912 C1918 1.383 . S
C1913 C1909 1.495 . S
C1913 H1919 0.959 . S
C1913 H1920 0.961 . S
C1913 H1921 0.960 . S
C1914 C1912 1.381 . S
C1914 C1915 1.394 . S
C1914 H1922 0.936 . S
C1915 C1914 1.394 . S
C1915 C1916 1.383 . S
C1915 H1923 0.929 . S
C1916 C1915 1.383 . S
C1916 C1917 1.377 . S
C1917 H1901 0.930 . S
C1917 C1916 1.377 . S
C1917 C1918 1.379 . S
C1918 H1902 0.931 . S
C1918 C1912 1.383 . S
C1918 C1917 1.379 . S
H1919 C1913 0.959 . S
H1920 C1913 0.961 . S
H1921 C1913 0.960 . S
H1922 C1914 0.936 . S
H1923 C1915 0.929 . S
H1924 C1932 0.929 . S
H1925 C1934 0.930 . S
H1926 C1936 0.930 . S
H1927 C1939 0.929 . S
H1928 C1942 0.930 . S
H1929 C1944 0.960 . S
H1930 C1944 0.960 . S
H1931 C1944 0.960 . S
C1932 H1924 0.929 . S
C1932 C1933 1.377 . S
C1932 C1934 1.384 . S
C1933 C1932 1.377 . S
C1933 C1939 1.390 . S
C1934 H1925 0.930 . S
C1934 C1932 1.384 . S
C1934 C1935 1.372 . S
C1935 C1934 1.372 . S
C1935 C1936 1.400 . S
C1935 C1940 1.490 . S
C1936 H1926 0.930 . S
C1936 C1935 1.400 . S
C1936 C1939 1.386 . S
H1937 C1953 0.930 . S
H1938 C1954 0.931 . S
C1939 H1927 0.929 . S
C1939 C1933 1.390 . S
C1939 C1936 1.386 . S
C1940 C1935 1.490 . S
C1940 C1942 1.395 . S
C1940 C1943 1.403 . S
H1941 C1947 0.930 . S
C1942 H1928 0.930 . S
C1942 C1940 1.395 . S
C1942 C1945 1.403 . S
C1943 C1940 1.403 . S
C1943 C1944 1.524 . S
C1943 C1947 1.400 . S
C1944 H1929 0.960 . S
C1944 H1930 0.960 . S
C1944 H1931 0.960 . S
C1944 C1943 1.524 . S
C1945 C1942 1.403 . S
C1945 C1946 1.392 . S
C1945 C1949 1.495 1_554 S
C1946 C1945 1.392 . S
C1946 C1947 1.385 . S
C1946 C1948 1.478 1_554 S
C1947 H1941 0.930 . S
C1947 C1943 1.400 . S
C1947 C1946 1.385 . S
C1948 C1946 1.478 1_556 S
C1948 C1950 1.381 . S
C1948 C1954 1.383 . S
C1949 C1945 1.495 1_556 S
C1949 H1955 0.959 1_556 S
C1949 H1956 0.961 . S
C1949 H1957 0.960 . S
C1950 C1948 1.381 . S
C1950 C1951 1.394 . S
C1950 H1958 0.930 . S
C1951 C1950 1.394 . S
C1951 C1952 1.383 . S
C1951 H1959 0.929 . S
C1952 C1951 1.383 . S
C1952 C1953 1.377 . S
C1953 H1937 0.930 . S
C1953 C1952 1.377 . S
C1953 C1954 1.379 . S
C1954 H1938 0.931 . S
C1954 C1948 1.383 . S
C1954 C1953 1.379 . S
H1955 C1949 0.959 1_554 S
H1956 C1949 0.961 . S
H1957 C1949 0.960 . S
H1958 C1950 0.930 . S
H1959 C1951 0.929 . S
H1960 C1968 0.929 1_545 S
H1961 C1970 0.930 . S
H1962 C1972 0.930 . S
H1963 C1975 0.929 . S
H1964 C1978 0.930 . S
H1965 C1980 0.960 . S
H1966 C1980 0.940 1_545 S
H1967 C1980 0.960 . S
C1968 H1960 0.929 1_565 S
C1968 C1969 1.377 . S
C1968 C1970 1.384 1_565 S
C1969 C1968 1.377 . S
C1969 C1975 1.390 . S
C1970 H1961 0.930 . S
C1970 C1968 1.384 1_545 S
C1970 C1971 1.372 1_545 S
C1971 C1970 1.372 1_565 S
C1971 C1972 1.400 . S
C1971 C1976 1.490 . S
C1972 H1962 0.930 . S
C1972 C1971 1.400 . S
C1972 C1975 1.386 . S
H1973 C1989 0.930 1_565 S
H1974 C1990 0.931 . S
C1975 H1963 0.929 . S
C1975 C1969 1.390 . S
C1975 C1972 1.386 . S
C1976 C1971 1.490 . S
C1976 C1978 1.375 1_565 S
C1976 C1979 1.403 . S
H1977 C1983 0.930 . S
C1978 H1964 0.930 . S
C1978 C1976 1.375 1_545 S
C1978 C1981 1.427 . S
C1979 C1976 1.403 . S
C1979 C1980 1.524 . S
C1979 C1983 1.382 1_565 S
C1980 H1965 0.960 . S
C1980 H1966 0.940 1_565 S
C1980 H1967 0.960 . S
C1980 C1979 1.524 . S
C1981 C1978 1.427 . S
C1981 C1982 1.392 . S
C1981 C1985 1.495 . S
C1982 C1981 1.392 . S
C1982 C1983 1.408 . S
C1982 C1984 1.478 . S
C1983 H1977 0.930 . S
C1983 C1979 1.382 1_545 S
C1983 C1982 1.408 . S
C1984 C1982 1.478 . S
C1984 C1986 1.381 . S
C1984 C1990 1.383 1_545 S
C1985 C1981 1.495 . S
C1985 H1991 0.959 . S
C1985 H1992 0.961 . S
C1985 H1993 0.960 . S
C1986 C1984 1.381 . S
C1986 C1987 1.394 . S
C1986 H1994 0.930 . S
C1987 C1986 1.394 . S
C1987 C1988 1.383 . S
C1987 H1995 0.929 . S
C1988 C1987 1.383 . S
C1988 C1989 1.377 . S
C1989 H1973 0.930 1_545 S
C1989 C1988 1.377 . S
C1989 C1990 1.379 1_545 S
C1990 H1974 0.931 . S
C1990 C1984 1.383 1_565 S
C1990 C1989 1.379 1_565 S
H1991 C1985 0.959 . S
H1992 C1985 0.961 . S
H1993 C1985 0.960 . S
H1994 C1986 0.930 . S
H1995 C1987 0.929 . S
H1996 C2004 0.929 . S
H1997 C2006 0.930 . S
H1998 C2008 0.930 . S
H1999 C2011 0.929 . S
H2000 C2014 0.930 . S
H2001 C2016 0.960 . S
H2002 C2016 0.960 . S
H2003 C2016 0.960 . S
C2004 H1996 0.929 . S
C2004 C2005 1.377 . S
C2004 C2006 1.384 . S
C2005 C2004 1.377 . S
C2005 C2011 1.390 . S
C2006 H1997 0.930 . S
C2006 C2004 1.384 . S
C2006 C2007 1.372 . S
C2007 C2006 1.372 . S
C2007 C2008 1.400 . S
C2007 C2012 1.490 . S
C2008 H1998 0.930 . S
C2008 C2007 1.400 . S
C2008 C2011 1.386 . S
H2009 C2025 0.930 . S
H2010 C2026 0.931 . S
C2011 H1999 0.929 . S
C2011 C2005 1.390 . S
C2011 C2008 1.386 . S
C2012 C2007 1.490 . S
C2012 C2014 1.395 . S
C2012 C2015 1.403 . S
H2013 C2019 0.930 . S
C2014 H2000 0.930 . S
C2014 C2012 1.395 . S
C2014 C2017 1.403 . S
C2015 C2012 1.403 . S
C2015 C2016 1.524 . S
C2015 C2019 1.400 . S
C2016 H2001 0.960 . S
C2016 H2002 0.960 . S
C2016 H2003 0.960 . S
C2016 C2015 1.524 . S
C2017 C2014 1.403 . S
C2017 C2018 1.392 . S
C2017 C2021 1.495 . S
C2018 C2017 1.392 . S
C2018 C2019 1.385 . S
C2018 C2020 1.478 . S
C2019 H2013 0.930 . S
C2019 C2015 1.400 . S
C2019 C2018 1.385 . S
C2020 C2018 1.478 . S
C2020 C2022 1.381 . S
C2020 C2026 1.383 . S
C2021 C2017 1.495 . S
C2021 H2027 0.959 . S
C2021 H2028 0.961 . S
C2021 H2029 0.960 . S
C2022 C2020 1.381 . S
C2022 C2023 1.394 . S
C2022 H2030 0.930 . S
C2023 C2022 1.394 . S
C2023 C2024 1.383 . S
C2023 H2031 0.929 . S
C2024 C2023 1.383 . S
C2024 C2025 1.377 . S
C2025 H2009 0.930 . S
C2025 C2024 1.377 . S
C2025 C2026 1.379 . S
C2026 H2010 0.931 . S
C2026 C2020 1.383 . S
C2026 C2025 1.379 . S
H2027 C2021 0.959 . S
H2028 C2021 0.961 . S
H2029 C2021 0.960 . S
H2030 C2022 0.930 . S
H2031 C2023 0.929 . S
H2032 C2040 0.929 . S
H2033 C2042 0.930 . S
H2034 C2044 0.930 1_545 S
H2035 C2047 0.929 . S
H2036 C2050 0.930 . S
H2037 C2052 0.960 . S
H2038 C2052 0.960 . S
H2039 C2052 0.960 . S
C2040 H2032 0.929 . S
C2040 C2041 1.377 . S
C2040 C2042 1.384 . S
C2041 C2040 1.377 . S
C2041 C2047 1.390 . S
C2042 H2033 0.930 . S
C2042 C2040 1.384 . S
C2042 C2043 1.372 . S
C2043 C2042 1.372 . S
C2043 C2044 1.400 . S
C2043 C2048 1.490 . S
C2044 H2034 0.930 1_565 S
C2044 C2043 1.400 . S
C2044 C2047 1.386 . S
H2045 C2061 0.930 . S
H2046 C2062 0.931 . S
C2047 H2035 0.929 . S
C2047 C2041 1.390 . S
C2047 C2044 1.386 . S
C2048 C2043 1.490 . S
C2048 C2050 1.395 . S
C2048 C2051 1.403 1_565 S
H2049 C2055 0.930 . S
C2050 H2036 0.930 . S
C2050 C2048 1.395 . S
C2050 C2053 1.403 . S
C2051 C2048 1.403 1_545 S
C2051 C2052 1.524 . S
C2051 C2055 1.400 . S
C2052 H2037 0.960 . S
C2052 H2038 0.960 . S
C2052 H2039 0.960 . S
C2052 C2051 1.524 . S
C2053 C2050 1.403 . S
C2053 C2054 1.392 1_565 S
C2053 C2057 1.495 . S
C2054 C2053 1.392 1_545 S
C2054 C2055 1.385 . S
C2054 C2056 1.478 . S
C2055 H2049 0.930 . S
C2055 C2051 1.400 . S
C2055 C2054 1.385 . S
C2056 C2054 1.478 . S
C2056 C2058 1.381 . S
C2056 C2062 1.383 . S
C2057 C2053 1.495 . S
C2057 H2063 0.959 . S
C2057 H2064 0.961 . S
C2057 H2065 0.960 . S
C2058 C2056 1.381 . S
C2058 C2059 1.394 . S
C2058 H2066 0.930 1_545 S
C2059 C2058 1.394 . S
C2059 C2060 1.383 . S
C2059 H2067 0.929 . S
C2060 C2059 1.383 . S
C2060 C2061 1.377 . S
C2061 H2045 0.930 . S
C2061 C2060 1.377 . S
C2061 C2062 1.379 . S
C2062 H2046 0.931 . S
C2062 C2056 1.383 . S
C2062 C2061 1.379 . S
H2063 C2057 0.959 . S
H2064 C2057 0.961 . S
H2065 C2057 0.960 . S
H2066 C2058 0.930 1_565 S
H2067 C2059 0.929 . S
H2068 C2076 0.929 . S
H2069 C2078 0.930 . S
H2070 C2080 0.930 . S
H2071 C2083 0.929 . S
H2072 C2086 0.930 . S
H2073 C2088 0.960 . S
H2074 C2088 0.960 . S
H2075 C2088 0.960 . S
C2076 H2068 0.929 . S
C2076 C2077 1.377 . S
C2076 C2078 1.384 . S
C2077 C2076 1.377 . S
C2077 C2083 1.390 . S
C2078 H2069 0.930 . S
C2078 C2076 1.384 . S
C2078 C2079 1.372 . S
C2079 C2078 1.372 . S
C2079 C2080 1.400 . S
C2079 C2084 1.490 . S
C2080 H2070 0.930 . S
C2080 C2079 1.400 . S
C2080 C2083 1.386 . S
H2081 C2097 0.930 . S
H2082 C2098 0.931 . S
C2083 H2071 0.929 . S
C2083 C2077 1.390 . S
C2083 C2080 1.386 . S
C2084 C2079 1.490 . S
C2084 C2086 1.395 . S
C2084 C2087 1.403 . S
H2085 C2091 0.930 . S
C2086 H2072 0.930 . S
C2086 C2084 1.395 . S
C2086 C2089 1.403 . S
C2087 C2084 1.403 . S
C2087 C2088 1.524 . S
C2087 C2091 1.400 . S
C2088 H2073 0.960 . S
C2088 H2074 0.960 . S
C2088 H2075 0.960 . S
C2088 C2087 1.524 . S
C2089 C2086 1.403 . S
C2089 C2090 1.392 . S
C2089 C2093 1.495 1_554 S
C2090 C2089 1.392 . S
C2090 C2091 1.385 . S
C2090 C2092 1.478 1_554 S
C2091 H2085 0.930 . S
C2091 C2087 1.400 . S
C2091 C2090 1.385 . S
C2092 C2090 1.478 1_556 S
C2092 C2094 1.381 . S
C2092 C2098 1.383 . S
C2093 C2089 1.495 1_556 S
C2093 H2099 0.959 1_556 S
C2093 H2100 0.961 . S
C2093 H2101 0.960 . S
C2094 C2092 1.381 . S
C2094 C2095 1.394 . S
C2094 H2102 0.930 . S
C2095 C2094 1.394 . S
C2095 C2096 1.383 . S
C2095 H2103 0.929 . S
C2096 C2095 1.383 . S
C2096 C2097 1.377 . S
C2097 H2081 0.930 . S
C2097 C2096 1.377 . S
C2097 C2098 1.379 . S
C2098 H2082 0.931 . S
C2098 C2092 1.383 . S
C2098 C2097 1.379 . S
H2099 C2093 0.959 1_554 S
H2100 C2093 0.961 . S
H2101 C2093 0.960 . S
H2102 C2094 0.930 . S
H2103 C2095 0.929 . S
H2104 C2112 0.929 1_545 S
H2105 C2114 0.930 . S
H2106 C2116 0.930 . S
H2107 C2119 0.929 . S
H2108 C2122 0.930 . S
H2109 C2124 0.960 . S
H2110 C2124 0.960 . S
H2111 C2124 0.960 . S
C2112 H2104 0.929 1_565 S
C2112 C2113 1.377 . S
C2112 C2114 1.384 1_565 S
C2113 C2112 1.377 . S
C2113 C2119 1.390 . S
C2114 H2105 0.930 . S
C2114 C2112 1.384 1_545 S
C2114 C2115 1.372 1_545 S
C2115 C2114 1.372 1_565 S
C2115 C2116 1.400 . S
C2115 C2120 1.490 . S
C2116 H2106 0.930 . S
C2116 C2115 1.400 . S
C2116 C2119 1.386 . S
H2117 C2133 0.930 1_565 S
H2118 C2134 0.937 1_565 S
C2119 H2107 0.929 . S
C2119 C2113 1.390 . S
C2119 C2116 1.386 . S
C2120 C2115 1.490 . S
C2120 C2122 1.395 1_565 S
C2120 C2123 1.403 . S
H2121 C2127 0.930 . S
C2122 H2108 0.930 . S
C2122 C2120 1.395 1_545 S
C2122 C2125 1.403 . S
C2123 C2120 1.403 . S
C2123 C2124 1.524 . S
C2123 C2127 1.400 . S
C2124 H2109 0.960 . S
C2124 H2110 0.960 . S
C2124 H2111 0.960 . S
C2124 C2123 1.524 . S
C2125 C2122 1.403 . S
C2125 C2126 1.392 . S
C2125 C2129 1.495 . S
C2126 C2125 1.392 . S
C2126 C2127 1.385 1_545 S
C2126 C2128 1.478 . S
C2127 H2121 0.930 . S
C2127 C2123 1.400 . S
C2127 C2126 1.385 1_565 S
C2128 C2126 1.478 . S
C2128 C2130 1.381 . S
C2128 C2134 1.378 . S
C2129 C2125 1.495 . S
C2129 H2135 0.959 . S
C2129 H2136 0.961 . S
C2129 H2137 0.960 . S
C2130 C2128 1.381 . S
C2130 C2131 1.394 . S
C2130 H2138 0.930 . S
C2131 C2130 1.394 . S
C2131 C2132 1.383 . S
C2131 H2139 0.929 . S
C2132 C2131 1.383 . S
C2132 C2133 1.377 . S
C2133 H2117 0.930 1_545 S
C2133 C2132 1.377 . S
C2133 C2134 1.378 . S
C2134 H2118 0.937 1_545 S
C2134 C2128 1.378 . S
C2134 C2133 1.378 . S
H2135 C2129 0.959 . S
H2136 C2129 0.961 . S
H2137 C2129 0.960 . S
H2138 C2130 0.930 . S
H2139 C2131 0.929 . S
H2140 C2148 0.929 . S
H2141 C2150 0.930 . S
H2142 C2152 0.930 . S
H2143 C2155 0.929 . S
H2144 C2158 0.930 . S
H2145 C2160 0.960 . S
H2146 C2160 0.960 . S
H2147 C2160 0.960 . S
C2148 H2140 0.929 . S
C2148 C2149 1.377 . S
C2148 C2150 1.384 . S
C2149 C2148 1.377 . S
C2149 C2155 1.390 . S
C2150 H2141 0.930 . S
C2150 C2148 1.384 . S
C2150 C2151 1.372 . S
C2151 C2150 1.372 . S
C2151 C2152 1.400 . S
C2151 C2156 1.490 . S
C2152 H2142 0.930 . S
C2152 C2151 1.400 . S
C2152 C2155 1.386 . S
H2153 C2169 0.930 . S
H2154 C2170 0.931 . S
C2155 H2143 0.929 . S
C2155 C2149 1.390 . S
C2155 C2152 1.386 . S
C2156 C2151 1.490 . S
C2156 C2158 1.395 . S
C2156 C2159 1.403 . S
H2157 C2163 0.930 . S
C2158 H2144 0.930 . S
C2158 C2156 1.395 . S
C2158 C2161 1.403 . S
C2159 C2156 1.403 . S
C2159 C2160 1.524 . S
C2159 C2163 1.400 . S
C2160 H2145 0.960 . S
C2160 H2146 0.960 . S
C2160 H2147 0.960 . S
C2160 C2159 1.524 . S
C2161 C2158 1.403 . S
C2161 C2162 1.392 . S
C2161 C2165 1.495 . S
C2162 C2161 1.392 . S
C2162 C2163 1.385 . S
C2162 C2164 1.478 . S
C2163 H2157 0.930 . S
C2163 C2159 1.400 . S
C2163 C2162 1.385 . S
C2164 C2162 1.478 . S
C2164 C2166 1.381 . S
C2164 C2170 1.383 . S
C2165 C2161 1.495 . S
C2165 H2171 0.959 . S
C2165 H2172 0.961 . S
C2165 H2173 0.960 . S
C2166 C2164 1.381 . S
C2166 C2167 1.394 . S
C2166 H2174 0.930 . S
C2167 C2166 1.394 . S
C2167 C2168 1.383 . S
C2167 H2175 0.929 . S
C2168 C2167 1.383 . S
C2168 C2169 1.377 . S
C2169 H2153 0.930 . S
C2169 C2168 1.377 . S
C2169 C2170 1.379 . S
C2170 H2154 0.931 . S
C2170 C2164 1.383 . S
C2170 C2169 1.379 . S
H2171 C2165 0.959 . S
H2172 C2165 0.961 . S
H2173 C2165 0.960 . S
H2174 C2166 0.930 . S
H2175 C2167 0.929 . S
H2176 C2184 0.929 . S
H2177 C2186 0.930 . S
H2178 C2188 0.930 . S
H2179 C2191 0.929 . S
H2180 C2194 0.930 . S
H2181 C2196 0.960 . S
H2182 C2196 0.960 . S
H2183 C2196 0.960 . S
C2184 H2176 0.929 . S
C2184 C2185 1.377 . S
C2184 C2186 1.384 . S
C2185 C2184 1.377 . S
C2185 C2191 1.390 . S
C2186 H2177 0.930 . S
C2186 C2184 1.384 . S
C2186 C2187 1.372 . S
C2187 C2186 1.372 . S
C2187 C2188 1.400 . S
C2187 C2192 1.490 . S
C2188 H2178 0.930 . S
C2188 C2187 1.400 . S
C2188 C2191 1.386 . S
H2189 C2205 0.930 . S
H2190 C2206 0.931 . S
C2191 H2179 0.929 . S
C2191 C2185 1.390 . S
C2191 C2188 1.386 . S
C2192 C2187 1.490 . S
C2192 C2194 1.395 . S
C2192 C2195 1.403 . S
H2193 C2199 0.930 . S
C2194 H2180 0.930 . S
C2194 C2192 1.395 . S
C2194 C2197 1.403 . S
C2195 C2192 1.403 . S
C2195 C2196 1.524 . S
C2195 C2199 1.400 . S
C2196 H2181 0.960 . S
C2196 H2182 0.960 . S
C2196 H2183 0.960 . S
C2196 C2195 1.524 . S
C2197 C2194 1.403 . S
C2197 C2198 1.392 . S
C2197 C2201 1.495 . S
C2198 C2197 1.392 . S
C2198 C2199 1.385 . S
C2198 C2200 1.478 . S
C2199 H2193 0.930 . S
C2199 C2195 1.400 . S
C2199 C2198 1.385 . S
C2200 C2198 1.478 . S
C2200 C2202 1.381 . S
C2200 C2206 1.383 . S
C2201 C2197 1.495 . S
C2201 H2207 0.959 . S
C2201 H2208 0.961 . S
C2201 H2209 0.960 . S
C2202 C2200 1.381 . S
C2202 C2203 1.394 . S
C2202 H2210 0.930 . S
C2203 C2202 1.394 . S
C2203 C2204 1.383 . S
C2203 H2211 0.929 . S
C2204 C2203 1.383 . S
C2204 C2205 1.377 . S
C2205 H2189 0.930 . S
C2205 C2204 1.377 . S
C2205 C2206 1.379 . S
C2206 H2190 0.931 . S
C2206 C2200 1.383 . S
C2206 C2205 1.379 . S
H2207 C2201 0.959 . S
H2208 C2201 0.961 . S
H2209 C2201 0.960 . S
H2210 C2202 0.930 . S
H2211 C2203 0.929 . S
H2212 C2220 0.929 . S
H2213 C2222 0.930 . S
H2214 C2224 0.930 . S
H2215 C2227 0.929 . S
H2216 C2230 0.930 . S
H2217 C2232 0.960 . S
H2218 C2232 0.960 . S
H2219 C2232 0.960 . S
C2220 H2212 0.929 . S
C2220 C2221 1.377 . S
C2220 C2222 1.384 . S
C2221 C2220 1.377 . S
C2221 C2227 1.390 . S
C2222 H2213 0.930 . S
C2222 C2220 1.384 . S
C2222 C2223 1.372 . S
C2223 C2222 1.372 . S
C2223 C2224 1.400 . S
C2223 C2228 1.490 . S
C2224 H2214 0.930 . S
C2224 C2223 1.400 . S
C2224 C2227 1.386 . S
H2225 C2241 0.930 . S
H2226 C2242 0.931 . S
C2227 H2215 0.929 . S
C2227 C2221 1.390 . S
C2227 C2224 1.386 . S
C2228 C2223 1.490 . S
C2228 C2230 1.395 . S
C2228 C2231 1.403 . S
H2229 C2235 0.930 . S
C2230 H2216 0.930 . S
C2230 C2228 1.395 . S
C2230 C2233 1.403 . S
C2231 C2228 1.403 . S
C2231 C2232 1.524 . S
C2231 C2235 1.400 . S
C2232 H2217 0.960 . S
C2232 H2218 0.960 . S
C2232 H2219 0.960 . S
C2232 C2231 1.524 . S
C2233 C2230 1.403 . S
C2233 C2234 1.392 . S
C2233 C2237 1.495 . S
C2234 C2233 1.392 . S
C2234 C2235 1.385 . S
C2234 C2236 1.478 . S
C2235 H2229 0.930 . S
C2235 C2231 1.400 . S
C2235 C2234 1.385 . S
C2236 C2234 1.478 . S
C2236 C2238 1.381 . S
C2236 C2242 1.383 . S
C2237 C2233 1.495 . S
C2237 H2243 0.959 . S
C2237 H2244 0.961 . S
C2237 H2245 0.960 . S
C2238 C2236 1.381 . S
C2238 C2239 1.394 . S
C2238 H2246 0.930 . S
C2239 C2238 1.394 . S
C2239 C2240 1.383 . S
C2239 H2247 0.929 . S
C2240 C2239 1.383 . S
C2240 C2241 1.377 . S
C2241 H2225 0.930 . S
C2241 C2240 1.377 . S
C2241 C2242 1.379 . S
C2242 H2226 0.931 . S
C2242 C2236 1.383 . S
C2242 C2241 1.379 . S
H2243 C2237 0.959 . S
H2244 C2237 0.961 . S
H2245 C2237 0.960 . S
H2246 C2238 0.930 . S
H2247 C2239 0.929 . S
H2248 C2256 0.929 . S
H2249 C2258 0.930 . S
H2250 C2260 0.930 . S
H2251 C2263 0.929 . S
H2252 C2266 0.930 . S
H2253 C2268 0.960 . S
H2254 C2268 0.960 . S
H2255 C2268 0.960 . S
C2256 H2248 0.929 . S
C2256 C2257 1.377 . S
C2256 C2258 1.384 . S
C2257 C2256 1.377 . S
C2257 C2263 1.390 . S
C2258 H2249 0.930 . S
C2258 C2256 1.384 . S
C2258 C2259 1.372 . S
C2259 C2258 1.372 . S
C2259 C2260 1.400 . S
C2259 C2264 1.490 . S
C2260 H2250 0.930 . S
C2260 C2259 1.400 . S
C2260 C2263 1.386 . S
H2261 C2277 0.930 . S
H2262 C2278 0.931 . S
C2263 H2251 0.929 . S
C2263 C2257 1.390 . S
C2263 C2260 1.386 . S
C2264 C2259 1.490 . S
C2264 C2266 1.395 . S
C2264 C2267 1.403 . S
H2265 C2271 0.930 . S
C2266 H2252 0.930 . S
C2266 C2264 1.395 . S
C2266 C2269 1.403 . S
C2267 C2264 1.403 . S
C2267 C2268 1.524 . S
C2267 C2271 1.400 . S
C2268 H2253 0.960 . S
C2268 H2254 0.960 . S
C2268 H2255 0.960 . S
C2268 C2267 1.524 . S
C2269 C2266 1.403 . S
C2269 C2270 1.392 . S
C2269 C2273 1.495 . S
C2270 C2269 1.392 . S
C2270 C2271 1.385 . S
C2270 C2272 1.478 . S
C2271 H2265 0.930 . S
C2271 C2267 1.400 . S
C2271 C2270 1.385 . S
C2272 C2270 1.478 . S
C2272 C2274 1.381 . S
C2272 C2278 1.383 . S
C2273 C2269 1.495 . S
C2273 H2279 0.959 . S
C2273 H2280 0.961 . S
C2273 H2281 0.960 . S
C2274 C2272 1.381 . S
C2274 C2275 1.394 . S
C2274 H2282 0.930 . S
C2275 C2274 1.394 . S
C2275 C2276 1.383 . S
C2275 H2283 0.929 . S
C2276 C2275 1.383 . S
C2276 C2277 1.377 . S
C2277 H2261 0.930 . S
C2277 C2276 1.377 . S
C2277 C2278 1.379 . S
C2278 H2262 0.931 . S
C2278 C2272 1.383 . S
C2278 C2277 1.379 . S
H2279 C2273 0.959 . S
H2280 C2273 0.961 . S
H2281 C2273 0.960 . S
H2282 C2274 0.930 . S
H2283 C2275 0.929 . S
H2284 C2292 0.929 . S
H2285 C2294 0.930 . S
H2286 C2296 0.930 . S
H2287 C2299 0.929 . S
H2288 C2302 0.930 . S
H2289 C2304 0.960 . S
H2290 C2304 0.960 . S
H2291 C2304 0.960 . S
C2292 H2284 0.929 . S
C2292 C2293 1.377 . S
C2292 C2294 1.384 . S
C2293 C2292 1.377 . S
C2293 C2299 1.390 . S
C2294 H2285 0.930 . S
C2294 C2292 1.384 . S
C2294 C2295 1.372 . S
C2295 C2294 1.372 . S
C2295 C2296 1.400 . S
C2295 C2300 1.490 . S
C2296 H2286 0.930 . S
C2296 C2295 1.400 . S
C2296 C2299 1.386 . S
H2297 C2313 0.930 . S
H2298 C2314 0.931 . S
C2299 H2287 0.929 . S
C2299 C2293 1.390 . S
C2299 C2296 1.386 . S
C2300 C2295 1.490 . S
C2300 C2302 1.395 . S
C2300 C2303 1.403 . S
H2301 C2307 0.930 . S
C2302 H2288 0.930 . S
C2302 C2300 1.395 . S
C2302 C2305 1.403 . S
C2303 C2300 1.403 . S
C2303 C2304 1.524 . S
C2303 C2307 1.400 . S
C2304 H2289 0.960 . S
C2304 H2290 0.960 . S
C2304 H2291 0.960 . S
C2304 C2303 1.524 . S
C2305 C2302 1.403 . S
C2305 C2306 1.392 . S
C2305 C2309 1.495 . S
C2306 C2305 1.392 . S
C2306 C2307 1.385 . S
C2306 C2308 1.478 . S
C2307 H2301 0.930 . S
C2307 C2303 1.400 . S
C2307 C2306 1.385 . S
C2308 C2306 1.478 . S
C2308 C2310 1.381 . S
C2308 C2314 1.383 . S
C2309 C2305 1.495 . S
C2309 H2315 0.959 . S
C2309 H2316 0.961 . S
C2309 H2317 0.960 . S
C2310 C2308 1.381 . S
C2310 C2311 1.394 1_556 S
C2310 H2318 0.930 1_556 S
C2311 C2310 1.394 1_554 S
C2311 C2312 1.383 1_554 S
C2311 H2319 0.929 . S
C2312 C2311 1.383 1_556 S
C2312 C2313 1.377 . S
C2313 H2297 0.930 . S
C2313 C2312 1.377 . S
C2313 C2314 1.379 . S
C2314 H2298 0.931 . S
C2314 C2308 1.383 . S
C2314 C2313 1.379 . S
H2315 C2309 0.959 . S
H2316 C2309 0.961 . S
H2317 C2309 0.960 . S
H2318 C2310 0.930 1_554 S
H2319 C2311 0.929 . S
H2320 C2328 0.929 . S
H2321 C2330 0.930 . S
H2322 C2332 0.930 . S
H2323 C2335 0.929 . S
H2324 C2338 0.930 . S
H2325 C2340 0.960 . S
H2326 C2340 0.960 . S
H2327 C2340 0.960 . S
C2328 H2320 0.929 . S
C2328 C2329 1.377 . S
C2328 C2330 1.384 . S
C2329 C2328 1.377 . S
C2329 C2335 1.390 . S
C2330 H2321 0.930 . S
C2330 C2328 1.384 . S
C2330 C2331 1.372 . S
C2331 C2330 1.372 . S
C2331 C2332 1.400 . S
C2331 C2336 1.490 . S
C2332 H2322 0.930 . S
C2332 C2331 1.400 . S
C2332 C2335 1.386 . S
H2333 C2349 0.930 . S
H2334 C2350 0.931 . S
C2335 H2323 0.929 . S
C2335 C2329 1.390 . S
C2335 C2332 1.386 . S
C2336 C2331 1.490 . S
C2336 C2338 1.395 . S
C2336 C2339 1.403 . S
H2337 C2343 0.930 . S
C2338 H2324 0.930 . S
C2338 C2336 1.395 . S
C2338 C2341 1.403 . S
C2339 C2336 1.403 . S
C2339 C2340 1.524 . S
C2339 C2343 1.400 . S
C2340 H2325 0.960 . S
C2340 H2326 0.960 . S
C2340 H2327 0.960 . S
C2340 C2339 1.524 . S
C2341 C2338 1.403 . S
C2341 C2342 1.392 . S
C2341 C2345 1.495 . S
C2342 C2341 1.392 . S
C2342 C2343 1.385 . S
C2342 C2344 1.478 . S
C2343 H2337 0.930 . S
C2343 C2339 1.400 . S
C2343 C2342 1.385 . S
C2344 C2342 1.478 . S
C2344 C2346 1.381 . S
C2344 C2350 1.383 . S
C2345 C2341 1.495 . S
C2345 H2351 0.959 . S
C2345 H2352 0.961 . S
C2345 H2353 0.960 . S
C2346 C2344 1.381 . S
C2346 C2347 1.394 . S
C2346 H2354 0.930 . S
C2347 C2346 1.394 . S
C2347 C2348 1.383 . S
C2347 H2355 0.929 . S
C2348 C2347 1.383 . S
C2348 C2349 1.377 . S
C2349 H2333 0.930 . S
C2349 C2348 1.377 . S
C2349 C2350 1.379 . S
C2350 H2334 0.931 . S
C2350 C2344 1.383 . S
C2350 C2349 1.379 . S
H2351 C2345 0.959 . S
H2352 C2345 0.961 . S
H2353 C2345 0.960 . S
H2354 C2346 0.930 . S
H2355 C2347 0.929 . S
H2356 C2364 0.929 . S
H2357 C2366 0.930 . S
H2358 C2368 0.930 . S
H2359 C2371 0.929 . S
H2360 C2374 0.930 . S
H2361 C2376 0.960 . S
H2362 C2376 0.960 . S
H2363 C2376 0.960 . S
C2364 H2356 0.929 . S
C2364 C2365 1.377 . S
C2364 C2366 1.384 . S
C2365 C2364 1.377 . S
C2365 C2371 1.390 . S
C2366 H2357 0.930 . S
C2366 C2364 1.384 . S
C2366 C2367 1.372 . S
C2367 C2366 1.372 . S
C2367 C2368 1.400 . S
C2367 C2372 1.490 . S
C2368 H2358 0.930 . S
C2368 C2367 1.400 . S
C2368 C2371 1.386 . S
H2369 C2385 0.930 . S
H2370 C2386 0.931 . S
C2371 H2359 0.929 . S
C2371 C2365 1.390 . S
C2371 C2368 1.386 . S
C2372 C2367 1.490 . S
C2372 C2374 1.395 . S
C2372 C2375 1.403 . S
H2373 C2379 0.930 . S
C2374 H2360 0.930 . S
C2374 C2372 1.395 . S
C2374 C2377 1.403 . S
C2375 C2372 1.403 . S
C2375 C2376 1.524 . S
C2375 C2379 1.400 . S
C2376 H2361 0.960 . S
C2376 H2362 0.960 . S
C2376 H2363 0.960 . S
C2376 C2375 1.524 . S
C2377 C2374 1.403 . S
C2377 C2378 1.392 . S
C2377 C2381 1.495 . S
C2378 C2377 1.392 . S
C2378 C2379 1.385 . S
C2378 C2380 1.478 . S
C2379 H2373 0.930 . S
C2379 C2375 1.400 . S
C2379 C2378 1.385 . S
C2380 C2378 1.478 . S
C2380 C2382 1.381 . S
C2380 C2386 1.383 . S
C2381 C2377 1.495 . S
C2381 H2387 0.959 . S
C2381 H2388 0.961 . S
C2381 H2389 0.960 . S
C2382 C2380 1.381 . S
C2382 C2383 1.394 . S
C2382 H2390 0.930 . S
C2383 C2382 1.394 . S
C2383 C2384 1.383 . S
C2383 H2391 0.929 . S
C2384 C2383 1.383 . S
C2384 C2385 1.377 . S
C2385 H2369 0.930 . S
C2385 C2384 1.377 . S
C2385 C2386 1.379 . S
C2386 H2370 0.931 . S
C2386 C2380 1.383 . S
C2386 C2385 1.379 . S
H2387 C2381 0.959 . S
H2388 C2381 0.961 . S
H2389 C2381 0.960 . S
H2390 C2382 0.930 . S
H2391 C2383 0.929 . S
H2392 C2400 0.929 . S
H2393 C2402 0.930 . S
H2394 C2404 0.930 . S
H2395 C2407 0.929 . S
H2396 C2410 0.930 . S
H2397 C2412 0.960 . S
H2398 C2412 0.960 . S
H2399 C2412 0.960 . S
C2400 H2392 0.929 . S
C2400 C2401 1.377 . S
C2400 C2402 1.384 . S
C2401 C2400 1.377 . S
C2401 C2407 1.390 . S
C2402 H2393 0.930 . S
C2402 C2400 1.384 . S
C2402 C2403 1.372 . S
C2403 C2402 1.372 . S
C2403 C2404 1.400 . S
C2403 C2408 1.490 . S
C2404 H2394 0.930 . S
C2404 C2403 1.400 . S
C2404 C2407 1.386 . S
H2405 C2421 0.930 . S
H2406 C2422 0.931 . S
C2407 H2395 0.929 . S
C2407 C2401 1.390 . S
C2407 C2404 1.386 . S
C2408 C2403 1.490 . S
C2408 C2410 1.395 . S
C2408 C2411 1.403 . S
H2409 C2415 0.930 . S
C2410 H2396 0.930 . S
C2410 C2408 1.395 . S
C2410 C2413 1.403 . S
C2411 C2408 1.403 . S
C2411 C2412 1.524 . S
C2411 C2415 1.400 . S
C2412 H2397 0.960 . S
C2412 H2398 0.960 . S
C2412 H2399 0.960 . S
C2412 C2411 1.524 . S
C2413 C2410 1.403 . S
C2413 C2414 1.392 . S
C2413 C2417 1.482 1_556 S
C2414 C2413 1.392 . S
C2414 C2415 1.385 . S
C2414 C2416 1.478 . S
C2415 H2409 0.930 . S
C2415 C2411 1.400 . S
C2415 C2414 1.385 . S
C2416 C2414 1.478 . S
C2416 C2418 1.381 . S
C2416 C2422 1.383 . S
C2417 C2413 1.482 1_554 S
C2417 H2423 0.963 . S
C2417 H2424 0.966 . S
C2417 H2425 0.964 . S
C2418 C2416 1.381 . S
C2418 C2419 1.394 . S
C2418 H2426 0.930 . S
C2419 C2418 1.394 . S
C2419 C2420 1.383 . S
C2419 H2427 0.929 1_556 S
C2420 C2419 1.383 . S
C2420 C2421 1.377 . S
C2421 H2405 0.930 . S
C2421 C2420 1.377 . S
C2421 C2422 1.379 . S
C2422 H2406 0.931 . S
C2422 C2416 1.383 . S
C2422 C2421 1.379 . S
H2423 C2417 0.963 . S
H2424 C2417 0.966 . S
H2425 C2417 0.964 . S
H2426 C2418 0.930 . S
H2427 C2419 0.929 1_554 S
H2428 C2436 0.929 . S
H2429 C2438 0.930 . S
H2430 C2440 0.930 . S
H2431 C2443 0.929 . S
H2432 C2446 0.930 . S
H2433 C2448 0.960 . S
H2434 C2448 0.960 . S
H2435 C2448 0.960 . S
C2436 H2428 0.929 . S
C2436 C2437 1.377 . S
C2436 C2438 1.384 . S
C2437 C2436 1.377 . S
C2437 C2443 1.390 . S
C2438 H2429 0.930 . S
C2438 C2436 1.384 . S
C2438 C2439 1.372 . S
C2439 C2438 1.372 . S
C2439 C2440 1.400 . S
C2439 C2444 1.490 . S
C2440 H2430 0.930 . S
C2440 C2439 1.400 . S
C2440 C2443 1.386 . S
H2441 C2457 0.930 . S
H2442 C2458 0.931 . S
C2443 H2431 0.929 . S
C2443 C2437 1.390 . S
C2443 C2440 1.386 . S
C2444 C2439 1.490 . S
C2444 C2446 1.395 . S
C2444 C2447 1.403 . S
H2445 C2451 0.930 . S
C2446 H2432 0.930 . S
C2446 C2444 1.395 . S
C2446 C2449 1.403 . S
C2447 C2444 1.403 . S
C2447 C2448 1.524 . S
C2447 C2451 1.400 . S
C2448 H2433 0.960 . S
C2448 H2434 0.960 . S
C2448 H2435 0.960 . S
C2448 C2447 1.524 . S
C2449 C2446 1.403 . S
C2449 C2450 1.392 . S
C2449 C2453 1.495 . S
C2450 C2449 1.392 . S
C2450 C2451 1.385 . S
C2450 C2452 1.478 . S
C2451 H2445 0.930 . S
C2451 C2447 1.400 . S
C2451 C2450 1.385 . S
C2452 C2450 1.478 . S
C2452 C2454 1.381 . S
C2452 C2458 1.383 . S
C2453 C2449 1.495 . S
C2453 H2459 0.959 . S
C2453 H2460 0.961 . S
C2453 H2461 0.960 . S
C2454 C2452 1.381 . S
C2454 C2455 1.394 . S
C2454 H2462 0.930 . S
C2455 C2454 1.394 . S
C2455 C2456 1.383 . S
C2455 H2463 0.929 . S
C2456 C2455 1.383 . S
C2456 C2457 1.377 . S
C2457 H2441 0.930 . S
C2457 C2456 1.377 . S
C2457 C2458 1.379 . S
C2458 H2442 0.931 . S
C2458 C2452 1.383 . S
C2458 C2457 1.379 . S
H2459 C2453 0.959 . S
H2460 C2453 0.961 . S
H2461 C2453 0.960 . S
H2462 C2454 0.930 . S
H2463 C2455 0.929 . S
H2464 C2472 0.929 . S
H2465 C2474 0.930 . S
H2466 C2476 0.930 . S
H2467 C2479 0.929 . S
H2468 C2482 0.930 . S
H2469 C2484 0.960 . S
H2470 C2484 0.960 . S
H2471 C2484 0.960 . S
C2472 H2464 0.929 . S
C2472 C2473 1.377 . S
C2472 C2474 1.384 . S
C2473 C2472 1.377 . S
C2473 C2479 1.390 . S
C2474 H2465 0.930 . S
C2474 C2472 1.384 . S
C2474 C2475 1.372 . S
C2475 C2474 1.372 . S
C2475 C2476 1.400 . S
C2475 C2480 1.490 . S
C2476 H2466 0.930 . S
C2476 C2475 1.400 . S
C2476 C2479 1.386 . S
H2477 C2493 0.930 . S
H2478 C2494 0.931 . S
C2479 H2467 0.929 . S
C2479 C2473 1.390 . S
C2479 C2476 1.386 . S
C2480 C2475 1.490 . S
C2480 C2482 1.395 . S
C2480 C2483 1.403 . S
H2481 C2487 0.930 . S
C2482 H2468 0.930 . S
C2482 C2480 1.395 . S
C2482 C2485 1.403 . S
C2483 C2480 1.403 . S
C2483 C2484 1.524 . S
C2483 C2487 1.400 . S
C2484 H2469 0.960 . S
C2484 H2470 0.960 . S
C2484 H2471 0.960 . S
C2484 C2483 1.524 . S
C2485 C2482 1.403 . S
C2485 C2486 1.392 . S
C2485 C2489 1.495 . S
C2486 C2485 1.392 . S
C2486 C2487 1.385 . S
C2486 C2488 1.478 . S
C2487 H2481 0.930 . S
C2487 C2483 1.400 . S
C2487 C2486 1.385 . S
C2488 C2486 1.478 . S
C2488 C2490 1.381 . S
C2488 C2494 1.383 . S
C2489 C2485 1.495 . S
C2489 H2495 0.959 . S
C2489 H2496 0.961 . S
C2489 H2497 0.960 . S
C2490 C2488 1.381 . S
C2490 C2491 1.394 . S
C2490 H2498 0.930 . S
C2491 C2490 1.394 . S
C2491 C2492 1.383 . S
C2491 H2499 0.929 . S
C2492 C2491 1.383 . S
C2492 C2493 1.377 . S
C2493 H2477 0.930 . S
C2493 C2492 1.377 . S
C2493 C2494 1.379 . S
C2494 H2478 0.931 . S
C2494 C2488 1.383 . S
C2494 C2493 1.379 . S
H2495 C2489 0.959 . S
H2496 C2489 0.961 . S
H2497 C2489 0.960 . S
H2498 C2490 0.930 . S
H2499 C2491 0.929 . S
H2500 C2508 0.929 . S
H2501 C2510 0.930 . S
H2502 C2512 0.930 . S
H2503 C2515 0.929 . S
H2504 C2518 0.930 . S
H2505 C2520 0.960 . S
H2506 C2520 0.960 . S
H2507 C2520 0.960 . S
C2508 H2500 0.929 . S
C2508 C2509 1.377 . S
C2508 C2510 1.384 . S
C2509 C2508 1.377 . S
C2509 C2515 1.390 . S
C2510 H2501 0.930 . S
C2510 C2508 1.384 . S
C2510 C2511 1.372 . S
C2511 C2510 1.372 . S
C2511 C2512 1.400 . S
C2511 C2516 1.490 . S
C2512 H2502 0.930 . S
C2512 C2511 1.400 . S
C2512 C2515 1.386 . S
H2513 C2529 0.930 . S
H2514 C2530 0.931 . S
C2515 H2503 0.929 . S
C2515 C2509 1.390 . S
C2515 C2512 1.386 . S
C2516 C2511 1.490 . S
C2516 C2518 1.395 . S
C2516 C2519 1.403 . S
H2517 C2523 0.930 . S
C2518 H2504 0.930 . S
C2518 C2516 1.395 . S
C2518 C2521 1.403 . S
C2519 C2516 1.403 . S
C2519 C2520 1.524 . S
C2519 C2523 1.400 . S
C2520 H2505 0.960 . S
C2520 H2506 0.960 . S
C2520 H2507 0.960 . S
C2520 C2519 1.524 . S
C2521 C2518 1.403 . S
C2521 C2522 1.392 . S
C2521 C2525 1.495 . S
C2522 C2521 1.392 . S
C2522 C2523 1.385 . S
C2522 C2524 1.478 . S
C2523 H2517 0.930 . S
C2523 C2519 1.400 . S
C2523 C2522 1.385 . S
C2524 C2522 1.478 . S
C2524 C2526 1.381 . S
C2524 C2530 1.383 . S
C2525 C2521 1.495 . S
C2525 H2531 0.959 . S
C2525 H2532 0.961 . S
C2525 H2533 0.960 . S
C2526 C2524 1.381 . S
C2526 C2527 1.394 . S
C2526 H2534 0.930 . S
C2527 C2526 1.394 . S
C2527 C2528 1.383 . S
C2527 H2535 0.929 . S
C2528 C2527 1.383 . S
C2528 C2529 1.377 . S
C2529 H2513 0.930 . S
C2529 C2528 1.377 . S
C2529 C2530 1.379 . S
C2530 H2514 0.931 . S
C2530 C2524 1.383 . S
C2530 C2529 1.379 . S
H2531 C2525 0.959 . S
H2532 C2525 0.961 . S
H2533 C2525 0.960 . S
H2534 C2526 0.930 . S
H2535 C2527 0.929 . S
H2536 C2544 0.929 . S
H2537 C2546 0.930 . S
H2538 C2548 0.930 . S
H2539 C2551 0.929 . S
H2540 C2554 0.930 . S
H2541 C2556 0.960 . S
H2542 C2556 0.960 . S
H2543 C2556 0.960 . S
C2544 H2536 0.929 . S
C2544 C2545 1.377 . S
C2544 C2546 1.384 . S
C2545 C2544 1.377 . S
C2545 C2551 1.390 . S
C2546 H2537 0.930 . S
C2546 C2544 1.384 . S
C2546 C2547 1.372 . S
C2547 C2546 1.372 . S
C2547 C2548 1.400 . S
C2547 C2552 1.490 . S
C2548 H2538 0.930 . S
C2548 C2547 1.400 . S
C2548 C2551 1.386 . S
H2549 C2565 0.930 . S
H2550 C2566 0.931 . S
C2551 H2539 0.929 . S
C2551 C2545 1.390 . S
C2551 C2548 1.386 . S
C2552 C2547 1.490 . S
C2552 C2554 1.395 . S
C2552 C2555 1.403 . S
H2553 C2559 0.930 . S
C2554 H2540 0.930 . S
C2554 C2552 1.395 . S
C2554 C2557 1.403 . S
C2555 C2552 1.403 . S
C2555 C2556 1.524 . S
C2555 C2559 1.400 . S
C2556 H2541 0.960 . S
C2556 H2542 0.960 . S
C2556 H2543 0.960 . S
C2556 C2555 1.524 . S
C2557 C2554 1.403 . S
C2557 C2558 1.392 . S
C2557 C2561 1.495 . S
C2558 C2557 1.392 . S
C2558 C2559 1.385 . S
C2558 C2560 1.478 . S
C2559 H2553 0.930 . S
C2559 C2555 1.400 . S
C2559 C2558 1.385 . S
C2560 C2558 1.478 . S
C2560 C2562 1.381 . S
C2560 C2566 1.383 . S
C2561 C2557 1.495 . S
C2561 H2567 0.959 . S
C2561 H2568 0.961 . S
C2561 H2569 0.960 . S
C2562 C2560 1.381 . S
C2562 C2563 1.394 . S
C2562 H2570 0.930 . S
C2563 C2562 1.394 . S
C2563 C2564 1.383 . S
C2563 H2571 0.929 . S
C2564 C2563 1.383 . S
C2564 C2565 1.377 . S
C2565 H2549 0.930 . S
C2565 C2564 1.377 . S
C2565 C2566 1.379 . S
C2566 H2550 0.931 . S
C2566 C2560 1.383 . S
C2566 C2565 1.379 . S
H2567 C2561 0.959 . S
H2568 C2561 0.961 . S
H2569 C2561 0.960 . S
H2570 C2562 0.930 . S
H2571 C2563 0.929 . S
H2572 C2580 0.929 . S
H2573 C2582 0.930 . S
H2574 C2584 0.930 . S
H2575 C2587 0.929 . S
H2576 C2590 0.930 . S
H2577 C2592 0.960 . S
H2578 C2592 0.960 . S
H2579 C2592 0.960 . S
C2580 H2572 0.929 . S
C2580 C2581 1.377 . S
C2580 C2582 1.384 . S
C2581 C2580 1.377 . S
C2581 C2587 1.390 . S
C2582 H2573 0.930 . S
C2582 C2580 1.384 . S
C2582 C2583 1.372 . S
C2583 C2582 1.372 . S
C2583 C2584 1.400 . S
C2583 C2588 1.490 . S
C2584 H2574 0.930 . S
C2584 C2583 1.400 . S
C2584 C2587 1.386 . S
H2585 C2601 0.930 . S
H2586 C2602 0.931 . S
C2587 H2575 0.929 . S
C2587 C2581 1.390 . S
C2587 C2584 1.386 . S
C2588 C2583 1.490 . S
C2588 C2590 1.395 . S
C2588 C2591 1.403 . S
H2589 C2595 0.930 . S
C2590 H2576 0.930 . S
C2590 C2588 1.395 . S
C2590 C2593 1.403 . S
C2591 C2588 1.403 . S
C2591 C2592 1.524 . S
C2591 C2595 1.400 . S
C2592 H2577 0.960 . S
C2592 H2578 0.960 . S
C2592 H2579 0.960 . S
C2592 C2591 1.524 . S
C2593 C2590 1.403 . S
C2593 C2594 1.392 . S
C2593 C2597 1.495 . S
C2594 C2593 1.392 . S
C2594 C2595 1.385 . S
C2594 C2596 1.478 . S
C2595 H2589 0.930 . S
C2595 C2591 1.400 . S
C2595 C2594 1.385 . S
C2596 C2594 1.478 . S
C2596 C2598 1.381 . S
C2596 C2602 1.383 . S
C2597 C2593 1.495 . S
C2597 H2603 0.959 . S
C2597 H2604 0.961 . S
C2597 H2605 0.960 . S
C2598 C2596 1.381 . S
C2598 C2599 1.394 . S
C2598 H2606 0.930 . S
C2599 C2598 1.394 . S
C2599 C2600 1.383 . S
C2599 H2607 0.929 . S
C2600 C2599 1.383 . S
C2600 C2601 1.377 . S
C2601 H2585 0.930 . S
C2601 C2600 1.377 . S
C2601 C2602 1.379 . S
C2602 H2586 0.931 . S
C2602 C2596 1.383 . S
C2602 C2601 1.379 . S
H2603 C2597 0.959 . S
H2604 C2597 0.961 . S
H2605 C2597 0.960 . S
H2606 C2598 0.930 . S
H2607 C2599 0.929 . S
H2608 C2616 0.929 . S
H2609 C2618 0.930 . S
H2610 C2620 0.930 . S
H2611 C2623 0.929 . S
H2612 C2626 0.930 . S
H2613 C2628 0.960 . S
H2614 C2628 0.960 . S
H2615 C2628 0.960 . S
C2616 H2608 0.929 . S
C2616 C2617 1.377 . S
C2616 C2618 1.384 . S
C2617 C2616 1.377 . S
C2617 C2623 1.390 . S
C2618 H2609 0.930 . S
C2618 C2616 1.384 . S
C2618 C2619 1.372 . S
C2619 C2618 1.372 . S
C2619 C2620 1.400 . S
C2619 C2624 1.490 . S
C2620 H2610 0.930 . S
C2620 C2619 1.400 . S
C2620 C2623 1.386 . S
H2621 C2637 0.930 . S
H2622 C2638 0.931 . S
C2623 H2611 0.929 . S
C2623 C2617 1.390 . S
C2623 C2620 1.386 . S
C2624 C2619 1.490 . S
C2624 C2626 1.395 . S
C2624 C2627 1.403 . S
H2625 C2631 0.930 . S
C2626 H2612 0.930 . S
C2626 C2624 1.395 . S
C2626 C2629 1.403 . S
C2627 C2624 1.403 . S
C2627 C2628 1.524 . S
C2627 C2631 1.400 . S
C2628 H2613 0.960 . S
C2628 H2614 0.960 . S
C2628 H2615 0.960 . S
C2628 C2627 1.524 . S
C2629 C2626 1.403 . S
C2629 C2630 1.392 . S
C2629 C2633 1.495 . S
C2630 C2629 1.392 . S
C2630 C2631 1.385 . S
C2630 C2632 1.478 . S
C2631 H2625 0.930 . S
C2631 C2627 1.400 . S
C2631 C2630 1.385 . S
C2632 C2630 1.478 . S
C2632 C2634 1.381 . S
C2632 C2638 1.383 . S
C2633 C2629 1.495 . S
C2633 H2639 0.959 . S
C2633 H2640 0.961 . S
C2633 H2641 0.960 . S
C2634 C2632 1.381 . S
C2634 C2635 1.394 . S
C2634 H2642 0.930 . S
C2635 C2634 1.394 . S
C2635 C2636 1.383 . S
C2635 H2643 0.929 . S
C2636 C2635 1.383 . S
C2636 C2637 1.377 . S
C2637 H2621 0.930 . S
C2637 C2636 1.377 . S
C2637 C2638 1.379 . S
C2638 H2622 0.931 . S
C2638 C2632 1.383 . S
C2638 C2637 1.379 . S
H2639 C2633 0.959 . S
H2640 C2633 0.961 . S
H2641 C2633 0.960 . S
H2642 C2634 0.930 . S
H2643 C2635 0.929 . S
H2644 C2652 0.929 . S
H2645 C2654 0.930 . S
H2646 C2656 0.930 . S
H2647 C2659 0.929 . S
H2648 C2662 0.930 . S
H2649 C2664 0.960 . S
H2650 C2664 0.960 . S
H2651 C2664 0.960 . S
C2652 H2644 0.929 . S
C2652 C2653 1.377 . S
C2652 C2654 1.384 . S
C2653 C2652 1.377 . S
C2653 C2659 1.390 . S
C2654 H2645 0.930 . S
C2654 C2652 1.384 . S
C2654 C2655 1.372 . S
C2655 C2654 1.372 . S
C2655 C2656 1.400 . S
C2655 C2660 1.490 . S
C2656 H2646 0.930 . S
C2656 C2655 1.400 . S
C2656 C2659 1.386 . S
H2657 C2673 0.930 . S
H2658 C2674 0.931 . S
C2659 H2647 0.929 . S
C2659 C2653 1.390 . S
C2659 C2656 1.386 . S
C2660 C2655 1.490 . S
C2660 C2662 1.395 . S
C2660 C2663 1.403 . S
H2661 C2667 0.930 . S
C2662 H2648 0.930 . S
C2662 C2660 1.395 . S
C2662 C2665 1.403 . S
C2663 C2660 1.403 . S
C2663 C2664 1.524 . S
C2663 C2667 1.400 . S
C2664 H2649 0.960 . S
C2664 H2650 0.960 . S
C2664 H2651 0.960 . S
C2664 C2663 1.524 . S
C2665 C2662 1.403 . S
C2665 C2666 1.392 . S
C2665 C2669 1.495 . S
C2666 C2665 1.392 . S
C2666 C2667 1.385 . S
C2666 C2668 1.478 . S
C2667 H2661 0.930 . S
C2667 C2663 1.400 . S
C2667 C2666 1.385 . S
C2668 C2666 1.478 . S
C2668 C2670 1.381 . S
C2668 C2674 1.383 . S
C2669 C2665 1.495 . S
C2669 H2675 0.959 . S
C2669 H2676 0.961 . S
C2669 H2677 0.960 . S
C2670 C2668 1.381 . S
C2670 C2671 1.394 . S
C2670 H2678 0.930 . S
C2671 C2670 1.394 . S
C2671 C2672 1.383 . S
C2671 H2679 0.929 . S
C2672 C2671 1.383 . S
C2672 C2673 1.377 . S
C2673 H2657 0.930 . S
C2673 C2672 1.377 . S
C2673 C2674 1.379 . S
C2674 H2658 0.931 . S
C2674 C2668 1.383 . S
C2674 C2673 1.379 . S
H2675 C2669 0.959 . S
H2676 C2669 0.961 . S
H2677 C2669 0.960 . S
H2678 C2670 0.930 . S
H2679 C2671 0.929 . S
H2680 C2688 0.929 . S
H2681 C2690 0.930 . S
H2682 C2692 0.930 . S
H2683 C2695 0.929 . S
H2684 C2698 0.930 . S
H2685 C2700 0.960 . S
H2686 C2700 0.960 . S
H2687 C2700 0.960 . S
C2688 H2680 0.929 . S
C2688 C2689 1.377 . S
C2688 C2690 1.384 . S
C2689 C2688 1.377 . S
C2689 C2695 1.390 . S
C2690 H2681 0.930 . S
C2690 C2688 1.384 . S
C2690 C2691 1.372 . S
C2691 C2690 1.372 . S
C2691 C2692 1.400 . S
C2691 C2696 1.490 . S
C2692 H2682 0.930 . S
C2692 C2691 1.400 . S
C2692 C2695 1.386 . S
H2693 C2709 0.930 . S
H2694 C2710 0.931 . S
C2695 H2683 0.929 . S
C2695 C2689 1.390 . S
C2695 C2692 1.386 . S
C2696 C2691 1.490 . S
C2696 C2698 1.395 . S
C2696 C2699 1.403 . S
H2697 C2703 0.930 . S
C2698 H2684 0.930 . S
C2698 C2696 1.395 . S
C2698 C2701 1.403 . S
C2699 C2696 1.403 . S
C2699 C2700 1.524 . S
C2699 C2703 1.400 . S
C2700 H2685 0.960 . S
C2700 H2686 0.960 . S
C2700 H2687 0.960 . S
C2700 C2699 1.524 . S
C2701 C2698 1.403 . S
C2701 C2702 1.392 . S
C2701 C2705 1.495 . S
C2702 C2701 1.392 . S
C2702 C2703 1.385 . S
C2702 C2704 1.478 . S
C2703 H2697 0.930 . S
C2703 C2699 1.400 . S
C2703 C2702 1.385 . S
C2704 C2702 1.478 . S
C2704 C2706 1.381 . S
C2704 C2710 1.383 . S
C2705 C2701 1.495 . S
C2705 H2711 0.959 . S
C2705 H2712 0.961 . S
C2705 H2713 0.960 . S
C2706 C2704 1.381 . S
C2706 C2707 1.394 . S
C2706 H2714 0.930 . S
C2707 C2706 1.394 . S
C2707 C2708 1.383 . S
C2707 H2715 0.929 . S
C2708 C2707 1.383 . S
C2708 C2709 1.377 . S
C2709 H2693 0.930 . S
C2709 C2708 1.377 . S
C2709 C2710 1.379 . S
C2710 H2694 0.931 . S
C2710 C2704 1.383 . S
C2710 C2709 1.379 . S
H2711 C2705 0.959 . S
H2712 C2705 0.961 . S
H2713 C2705 0.960 . S
H2714 C2706 0.930 . S
H2715 C2707 0.929 . S
H2716 C2724 0.929 . S
H2717 C2726 0.930 . S
H2718 C2728 0.930 . S
H2719 C2731 0.929 . S
H2720 C2734 0.930 . S
H2721 C2736 0.960 . S
H2722 C2736 0.960 . S
H2723 C2736 0.960 . S
C2724 H2716 0.929 . S
C2724 C2725 1.377 . S
C2724 C2726 1.384 . S
C2725 C2724 1.377 . S
C2725 C2731 1.390 . S
C2726 H2717 0.930 . S
C2726 C2724 1.384 . S
C2726 C2727 1.372 . S
C2727 C2726 1.372 . S
C2727 C2728 1.400 . S
C2727 C2732 1.490 . S
C2728 H2718 0.930 . S
C2728 C2727 1.400 . S
C2728 C2731 1.386 . S
H2729 C2745 0.930 1_554 S
H2730 C2746 0.931 . S
C2731 H2719 0.929 . S
C2731 C2725 1.390 . S
C2731 C2728 1.386 . S
C2732 C2727 1.490 . S
C2732 C2734 1.395 . S
C2732 C2735 1.403 . S
H2733 C2739 0.930 . S
C2734 H2720 0.930 . S
C2734 C2732 1.395 . S
C2734 C2737 1.403 . S
C2735 C2732 1.403 . S
C2735 C2736 1.524 . S
C2735 C2739 1.400 . S
C2736 H2721 0.960 . S
C2736 H2722 0.960 . S
C2736 H2723 0.960 . S
C2736 C2735 1.524 . S
C2737 C2734 1.403 . S
C2737 C2738 1.392 . S
C2737 C2741 1.495 . S
C2738 C2737 1.392 . S
C2738 C2739 1.385 . S
C2738 C2740 1.478 . S
C2739 H2733 0.930 . S
C2739 C2735 1.400 . S
C2739 C2738 1.385 . S
C2740 C2738 1.478 . S
C2740 C2742 1.381 . S
C2740 C2746 1.383 . S
C2741 C2737 1.495 . S
C2741 H2747 0.959 . S
C2741 H2748 0.961 . S
C2741 H2749 0.960 . S
C2742 C2740 1.381 . S
C2742 C2743 1.394 . S
C2742 H2750 0.930 . S
C2743 C2742 1.394 . S
C2743 C2744 1.383 . S
C2743 H2751 0.929 . S
C2744 C2743 1.383 . S
C2744 C2745 1.377 . S
C2745 H2729 0.930 1_556 S
C2745 C2744 1.377 . S
C2745 C2746 1.379 . S
C2746 H2730 0.931 . S
C2746 C2740 1.383 . S
C2746 C2745 1.379 . S
H2747 C2741 0.959 . S
H2748 C2741 0.961 . S
H2749 C2741 0.960 . S
H2750 C2742 0.930 . S
H2751 C2743 0.929 . S
C457 C121 1.313 . S
C476 C9 1.291 . S
C493 C23 1.316 . S
C512 C359 1.314 . S
C529 C37 1.312 . S
C548 C149 1.285 . S
C565 C51 1.304 . S
C584 C387 1.313 . S
C601 C65 1.306 . S
C620 C177 1.275 . S
C637 C415 1.303 . S
C656 C79 1.284 . S
C673 C205 1.304 . S
C692 C93 1.312 . S
C709 C443 1.310 . S
C728 C107 1.336 . S
C745 C247 1.310 . S
C764 C135 1.279 . S
C781 C163 1.308 . S
C800 C275 1.276 . S
C817 C191 1.305 . S
C836 C303 1.275 . S
C853 C331 1.315 . S
C872 C219 1.304 . S
C889 C345 1.304 . S
C908 C233 1.307 . S
C925 C261 1.316 . S
C944 C373 1.315 . S
C961 C289 1.312 . S
C980 C401 1.339 . S
C997 C429 1.315 . S
C1016 C317 1.335 . S
C1033 C7 1.165 . S
C1052 C63 1.184 . S
C1069 C77 1.168 . S
C1088 C21 1.137 . S
C1105 C91 1.166 . S
C1124 C35 1.180 . S
C1141 C49 1.161 . S
C1160 C105 1.152 . S
C1177 C119 1.159 . S
C1196 C175 1.136 . S
C1213 C133 1.167 . S
C1232 C189 1.170 . S
C1249 C203 1.159 . S
C1268 C147 1.136 . S
C1285 C217 1.166 . S
C1304 C161 1.172 . S
C1321 C287 1.165 . S
C1340 C231 1.184 . S
C1357 C301 1.168 . S
C1376 C245 1.168 . S
C1393 C259 1.164 . S
C1412 C315 1.185 . S
C1429 C329 1.167 . S
C1448 C273 1.178 . S
C1465 C399 1.161 . S
C1484 C343 1.150 . S
C1501 C357 1.168 . S
C1520 C413 1.181 . S
C1537 C427 1.169 . S
C1556 C371 1.185 . S
C1573 C441 1.163 . S
C1592 C385 1.153 . S
C1609 C64 0.891 . S
C1628 C8 0.851 . S
C1645 C78 0.895 . S
C1664 C22 0.851 . S
C1681 C36 0.895 . S
C1700 C92 0.936 . S
C1717 C106 0.899 . S
C1736 C50 0.938 . S
C1753 C176 0.888 . S
C1772 C120 0.851 . S
C1789 C134 0.890 . S
C1808 C190 0.905 . S
C1825 C204 0.888 . S
C1844 C148 0.851 . S
C1861 C218 0.890 . S
C1880 C162 0.851 . S
C1897 C232 0.899 . S
C1916 C288 0.938 . S
C1933 C302 0.896 . S
C1952 C246 0.937 . S
C1969 C316 0.904 . S
C1988 C260 0.887 . S
C2005 C330 0.898 . S
C2024 C274 0.938 . S
C2041 C400 0.900 . S
C2060 C344 0.937 . S
C2077 C358 0.903 . S
C2096 C414 0.937 . S
C2113 C372 0.899 . S
C2132 C428 0.872 . S
C2149 C386 0.891 . S
C2168 C442 0.851 . S
C2185 C6 1.382 . S
C2204 C300 1.397 . S
C2221 C314 1.381 . S
C2240 C20 1.390 . S
C2257 C34 1.373 . S
C2276 C328 1.353 . S
C2293 C48 1.375 . S
C2312 C286 1.364 . S
C2329 C272 1.375 . S
C2348 C62 1.359 . S
C2365 C230 1.377 . S
C2384 C76 1.368 . S
C2401 C244 1.382 . S
C2420 C90 1.396 . S
C2437 C104 1.381 . S
C2456 C258 1.392 . S
C2473 C118 1.381 . S
C2492 C412 1.384 . S
C2509 C426 1.382 . S
C2528 C132 1.381 . S
C2545 C440 1.372 . S
C2564 C146 1.380 . S
C2581 C398 1.374 . S
C2600 C160 1.365 . S
C2617 C384 1.382 . S
C2636 C174 1.354 . S
C2653 C342 1.379 . S
C2672 C188 1.351 . S
C2689 C202 1.378 . S
C2708 C356 1.396 . S
C2725 C216 1.382 . S
C2744 C370 1.381 . S
