# Generated by pormake.
# Topology umd, (4)-cn, num edge types: 1
# Building blocks:
#     Node 0, Type 0, BuildingBlock: CEKHIL_clean_sbu_0, # of connection points: 4
#     Node 1, Type 0, BuildingBlock: CEKHIL_clean_sbu_0, # of connection points: 4
#     Node 2, Type 0, BuildingBlock: CEKHIL_clean_sbu_0, # of connection points: 4
#     Node 3, Type 0, BuildingBlock: CEKHIL_clean_sbu_0, # of connection points: 4
#     Node 4, Type 0, BuildingBlock: CEKHIL_clean_sbu_0, # of connection points: 4
#     Node 5, Type 0, BuildingBlock: CEKHIL_clean_sbu_0, # of connection points: 4
#     Node 6, Type 0, BuildingBlock: CEKHIL_clean_sbu_0, # of connection points: 4
#     Node 7, Type 0, BuildingBlock: CEKHIL_clean_sbu_0, # of connection points: 4
#     Node 8, Type 0, BuildingBlock: CEKHIL_clean_sbu_0, # of connection points: 4
#     Node 9, Type 0, BuildingBlock: CEKHIL_clean_sbu_0, # of connection points: 4
#     Node 10, Type 0, BuildingBlock: CEKHIL_clean_sbu_0, # of connection points: 4
#     Node 11, Type 0, BuildingBlock: CEKHIL_clean_sbu_0, # of connection points: 4
#     Node 12, Type 0, BuildingBlock: CEKHIL_clean_sbu_0, # of connection points: 4
#     Node 13, Type 0, BuildingBlock: CEKHIL_clean_sbu_0, # of connection points: 4
#     Node 14, Type 0, BuildingBlock: CEKHIL_clean_sbu_0, # of connection points: 4
#     Node 15, Type 0, BuildingBlock: CEKHIL_clean_sbu_0, # of connection points: 4
#     Edge 16, Type (0, 0), BuildingBlock: CIFDUS_clean_linker_0, # of connection points: 2
#     Edge 17, Type (0, 0), BuildingBlock: CIFDUS_clean_linker_0, # of connection points: 2
#     Edge 18, Type (0, 0), BuildingBlock: CIFDUS_clean_linker_0, # of connection points: 2
#     Edge 19, Type (0, 0), BuildingBlock: CIFDUS_clean_linker_0, # of connection points: 2
#     Edge 20, Type (0, 0), BuildingBlock: CIFDUS_clean_linker_0, # of connection points: 2
#     Edge 21, Type (0, 0), BuildingBlock: CIFDUS_clean_linker_0, # of connection points: 2
#     Edge 22, Type (0, 0), BuildingBlock: CIFDUS_clean_linker_0, # of connection points: 2
#     Edge 23, Type (0, 0), BuildingBlock: CIFDUS_clean_linker_0, # of connection points: 2
#     Edge 24, Type (0, 0), BuildingBlock: CIFDUS_clean_linker_0, # of connection points: 2
#     Edge 25, Type (0, 0), BuildingBlock: CIFDUS_clean_linker_0, # of connection points: 2
#     Edge 26, Type (0, 0), BuildingBlock: CIFDUS_clean_linker_0, # of connection points: 2
#     Edge 27, Type (0, 0), BuildingBlock: CIFDUS_clean_linker_0, # of connection points: 2
#     Edge 28, Type (0, 0), BuildingBlock: CIFDUS_clean_linker_0, # of connection points: 2
#     Edge 29, Type (0, 0), BuildingBlock: CIFDUS_clean_linker_0, # of connection points: 2
#     Edge 30, Type (0, 0), BuildingBlock: CIFDUS_clean_linker_0, # of connection points: 2
#     Edge 31, Type (0, 0), BuildingBlock: CIFDUS_clean_linker_0, # of connection points: 2
#     Edge 32, Type (0, 0), BuildingBlock: CIFDUS_clean_linker_0, # of connection points: 2
#     Edge 33, Type (0, 0), BuildingBlock: CIFDUS_clean_linker_0, # of connection points: 2
#     Edge 34, Type (0, 0), BuildingBlock: CIFDUS_clean_linker_0, # of connection points: 2
#     Edge 35, Type (0, 0), BuildingBlock: CIFDUS_clean_linker_0, # of connection points: 2
#     Edge 36, Type (0, 0), BuildingBlock: CIFDUS_clean_linker_0, # of connection points: 2
#     Edge 37, Type (0, 0), BuildingBlock: CIFDUS_clean_linker_0, # of connection points: 2
#     Edge 38, Type (0, 0), BuildingBlock: CIFDUS_clean_linker_0, # of connection points: 2
#     Edge 39, Type (0, 0), BuildingBlock: CIFDUS_clean_linker_0, # of connection points: 2
#     Edge 40, Type (0, 0), BuildingBlock: CIFDUS_clean_linker_0, # of connection points: 2
#     Edge 41, Type (0, 0), BuildingBlock: CIFDUS_clean_linker_0, # of connection points: 2
#     Edge 42, Type (0, 0), BuildingBlock: CIFDUS_clean_linker_0, # of connection points: 2
#     Edge 43, Type (0, 0), BuildingBlock: CIFDUS_clean_linker_0, # of connection points: 2
#     Edge 44, Type (0, 0), BuildingBlock: CIFDUS_clean_linker_0, # of connection points: 2
#     Edge 45, Type (0, 0), BuildingBlock: CIFDUS_clean_linker_0, # of connection points: 2
#     Edge 46, Type (0, 0), BuildingBlock: CIFDUS_clean_linker_0, # of connection points: 2
#     Edge 47, Type (0, 0), BuildingBlock: CIFDUS_clean_linker_0, # of connection points: 2
# Relax obj value: 0.092
# Max RMSD: 0.227
# Mean RMSD: 0.227
data_MOF--net-umd--node1-CEKHIL_clean_sbu_0--edge1-CIFDUS_clean_linker_0
_symmetry_space_group_name_H-M    P1
_symmetry_Int_Tables_number       1
_symmetry_cell_setting            triclinic
loop_
_symmetry_equiv_pos_as_xyz
'x, y, z'
_cell_length_a     34.026916
_cell_length_b     34.041466
_cell_length_c     48.548373
_cell_angle_alpha  90.017905
_cell_angle_beta   90.004793
_cell_angle_gamma 90.110645
loop_
_atom_site_label
_atom_site_type_symbol
_atom_site_fract_x
_atom_site_fract_y
_atom_site_fract_z
_atom_type_partial_charge
Co0 Co 0.19569 0.4441 0.12418 0.0
O1 O 0.24729 0.42347 0.12739 0.0
O2 O 0.19698 0.38934 0.11143 0.0
C3 C 0.1945 0.47072 0.16662 0.0
O4 O 0.13746 0.45811 0.1195 0.0
Co5 Co 0.18942 0.53429 0.12396 0.0
O6 O 0.13271 0.52304 0.12797 0.0
C7 C 0.21428 0.49508 0.07345 0.0
C8 C 0.23423 0.39055 0.11781 0.0
C9 C 0.11703 0.48968 0.12328 0.0
O10 O 0.20798 0.46233 0.08579 0.0
O11 O 0.21066 0.52836 0.08544 0.0
O12 O 0.18599 0.43397 0.1628 0.0
O13 O 0.20752 0.48925 0.1451 0.0
Co14 Co 0.56946 0.19476 0.62812 0.0
O15 O 0.59414 0.24541 0.62823 0.0
O16 O 0.62271 0.19108 0.6133 0.0
C17 C 0.54539 0.19761 0.67104 0.0
O18 O 0.55175 0.1371 0.62581 0.0
Co19 Co 0.47812 0.19189 0.63283 0.0
O20 O 0.48721 0.13467 0.6363 0.0
C21 C 0.51435 0.21594 0.58077 0.0
C22 C 0.62475 0.22885 0.6175 0.0
C23 C 0.51968 0.11782 0.63069 0.0
O24 O 0.54807 0.206 0.59043 0.0
O25 O 0.48268 0.21516 0.59497 0.0
O26 O 0.5817 0.1874 0.66694 0.0
O27 O 0.52658 0.20982 0.64959 0.0
Co28 Co 0.80599 0.56835 0.12809 0.0
O29 O 0.75458 0.59048 0.12988 0.0
O30 O 0.80583 0.62051 0.11125 0.0
C31 C 0.80854 0.54848 0.17244 0.0
O32 O 0.8639 0.55304 0.12368 0.0
Co33 Co 0.81152 0.47947 0.13333 0.0
O34 O 0.86871 0.48915 0.13503 0.0
C35 C 0.78738 0.51112 0.08036 0.0
C36 C 0.76844 0.62083 0.11712 0.0
C37 C 0.88435 0.52177 0.12832 0.0
O38 O 0.79271 0.54508 0.09116 0.0
O39 O 0.79177 0.47934 0.09405 0.0
O40 O 0.81707 0.58422 0.16541 0.0
O41 O 0.79406 0.52664 0.15285 0.0
Co42 Co 0.42849 0.80952 0.62626 0.0
O43 O 0.4029 0.75931 0.62557 0.0
O44 O 0.37498 0.81489 0.6123 0.0
C45 C 0.4537 0.80438 0.66874 0.0
O46 O 0.44709 0.86691 0.62492 0.0
Co47 Co 0.51985 0.81094 0.62953 0.0
O48 O 0.5121 0.86826 0.63395 0.0
C49 C 0.48153 0.78927 0.57767 0.0
C50 C 0.37237 0.77699 0.61562 0.0
C51 C 0.47958 0.88566 0.62938 0.0
O52 O 0.44843 0.79964 0.58806 0.0
O53 O 0.51365 0.78882 0.59139 0.0
O54 O 0.41749 0.8154 0.66531 0.0
O55 O 0.47179 0.79276 0.6468 0.0
Co56 Co 0.20469 0.548 0.36938 0.0
O57 O 0.2575 0.56664 0.36923 0.0
O58 O 0.20668 0.60115 0.38433 0.0
C59 C 0.20455 0.52399 0.32631 0.0
O60 O 0.14573 0.53653 0.3716 0.0
Co61 Co 0.19404 0.45805 0.36672 0.0
O62 O 0.13807 0.47224 0.36183 0.0
C63 C 0.21902 0.49299 0.41866 0.0
C64 C 0.24449 0.59861 0.38038 0.0
C65 C 0.12393 0.5062 0.36672 0.0
O66 O 0.21335 0.52659 0.4074 0.0
O67 O 0.21519 0.46062 0.40552 0.0
O68 O 0.19842 0.56107 0.33079 0.0
O69 O 0.21534 0.50366 0.34761 0.0
Co70 Co 0.45373 0.19668 0.87038 0.0
O71 O 0.43532 0.24955 0.87037 0.0
O72 O 0.40004 0.19851 0.88434 0.0
C73 C 0.47985 0.19742 0.82807 0.0
O74 O 0.46451 0.13767 0.87235 0.0
Co75 Co 0.54408 0.18436 0.8685 0.0
O76 O 0.52897 0.1285 0.86375 0.0
C77 C 0.50768 0.21245 0.91931 0.0
C78 C 0.40289 0.23638 0.88086 0.0
C79 C 0.49442 0.11519 0.86799 0.0
O80 O 0.47407 0.20481 0.90862 0.0
O81 O 0.54002 0.20907 0.90607 0.0
O82 O 0.44243 0.1913 0.83137 0.0
O83 O 0.49907 0.20733 0.85 0.0
Co84 Co 0.81111 0.43906 0.36924 0.0
O85 O 0.76015 0.41552 0.3705 0.0
O86 O 0.81458 0.38721 0.38584 0.0
C87 C 0.80786 0.45906 0.32504 0.0
O88 O 0.86902 0.45471 0.3704 0.0
Co89 Co 0.81721 0.52793 0.36341 0.0
O90 O 0.8743 0.51858 0.35931 0.0
C91 C 0.79476 0.4965 0.41697 0.0
C92 C 0.77672 0.38555 0.3821 0.0
C93 C 0.88974 0.48552 0.36499 0.0
O94 O 0.80138 0.46241 0.4067 0.0
O95 O 0.79732 0.52796 0.40266 0.0
O96 O 0.81766 0.42338 0.33132 0.0
O97 O 0.79613 0.48084 0.34549 0.0
Co98 Co 0.54472 0.7987 0.8683 0.0
O99 O 0.56317 0.74581 0.86862 0.0
O100 O 0.59794 0.79696 0.88307 0.0
C101 C 0.51966 0.7979 0.82568 0.0
O102 O 0.53392 0.85772 0.87021 0.0
Co103 Co 0.45435 0.81132 0.86502 0.0
O104 O 0.46973 0.86719 0.86083 0.0
C105 C 0.48919 0.78373 0.9165 0.0
C106 C 0.59523 0.75908 0.87964 0.0
C107 C 0.50418 0.88034 0.86566 0.0
O108 O 0.52321 0.79067 0.90622 0.0
O109 O 0.45722 0.78744 0.90287 0.0
O110 O 0.55702 0.80396 0.82938 0.0
O111 O 0.49994 0.78813 0.84739 0.0
Co112 Co 0.80437 0.55837 0.87184 0.0
O113 O 0.75337 0.58116 0.8751 0.0
O114 O 0.80808 0.60899 0.89043 0.0
C115 C 0.79927 0.54291 0.82682 0.0
O116 O 0.86242 0.54292 0.87093 0.0
Co117 Co 0.80963 0.46988 0.86037 0.0
O118 O 0.86632 0.48058 0.85571 0.0
C119 C 0.79211 0.49534 0.91665 0.0
C120 C 0.77016 0.61082 0.88699 0.0
C121 C 0.8824 0.51268 0.86318 0.0
O122 O 0.79664 0.53093 0.90835 0.0
O123 O 0.79414 0.46585 0.90036 0.0
O124 O 0.8091 0.57797 0.83458 0.0
O125 O 0.7885 0.51913 0.84637 0.0
Co126 Co 0.44787 0.80882 0.37035 0.0
O127 O 0.42511 0.75748 0.37163 0.0
O128 O 0.39572 0.81155 0.38657 0.0
C129 C 0.46893 0.8057 0.32678 0.0
O130 O 0.46254 0.86684 0.37137 0.0
Co131 Co 0.5381 0.8171 0.36266 0.0
O132 O 0.526 0.8738 0.3591 0.0
C133 C 0.50694 0.79287 0.41631 0.0
C134 C 0.39446 0.77374 0.38263 0.0
C135 C 0.49267 0.88824 0.36545 0.0
O136 O 0.47208 0.79986 0.40742 0.0
O137 O 0.53761 0.79532 0.40114 0.0
O138 O 0.43264 0.81461 0.33215 0.0
O139 O 0.49007 0.79493 0.3476 0.0
Co140 Co 0.19307 0.43631 0.86756 0.0
O141 O 0.24392 0.41307 0.87037 0.0
O142 O 0.18943 0.38651 0.88716 0.0
C143 C 0.19696 0.45041 0.82242 0.0
O144 O 0.13526 0.45246 0.86744 0.0
Co145 Co 0.18807 0.52483 0.85397 0.0
O146 O 0.13099 0.51436 0.85133 0.0
C147 C 0.20874 0.50113 0.91017 0.0
C148 C 0.22721 0.38415 0.88317 0.0
C149 C 0.11513 0.48262 0.85975 0.0
O150 O 0.20248 0.46525 0.90312 0.0
O151 O 0.20684 0.52978 0.89316 0.0
O152 O 0.18688 0.4156 0.83067 0.0
O153 O 0.20832 0.4745 0.84155 0.0
Co154 Co 0.54854 0.20314 0.37486 0.0
O155 O 0.56765 0.25577 0.37679 0.0
O156 O 0.5998 0.20379 0.3926 0.0
C157 C 0.52958 0.20467 0.33084 0.0
O158 O 0.53685 0.14434 0.37536 0.0
Co159 Co 0.45885 0.1918 0.36551 0.0
O160 O 0.47427 0.13604 0.3612 0.0
C161 C 0.48686 0.21587 0.41985 0.0
C162 C 0.59845 0.24168 0.38894 0.0
C163 C 0.50764 0.12232 0.36826 0.0
O164 O 0.52214 0.21046 0.41132 0.0
O165 O 0.45668 0.21247 0.40429 0.0
O166 O 0.56613 0.19829 0.33708 0.0
O167 O 0.50695 0.21462 0.3511 0.0
Co168 Co 0.80931 0.45861 0.6244 0.0
O169 O 0.75816 0.43543 0.62521 0.0
O170 O 0.80955 0.40789 0.60518 0.0
C171 C 0.81159 0.47384 0.66971 0.0
O172 O 0.86703 0.47587 0.62072 0.0
Co173 Co 0.8123 0.54717 0.63512 0.0
O174 O 0.86972 0.53951 0.63356 0.0
C175 C 0.79055 0.5209 0.57999 0.0
C176 C 0.77227 0.40631 0.61134 0.0
C177 C 0.88626 0.50796 0.6256 0.0
O178 O 0.7958 0.48567 0.58869 0.0
O179 O 0.79387 0.55087 0.59573 0.0
O180 O 0.82084 0.43915 0.66088 0.0
O181 O 0.79657 0.49714 0.6513 0.0
Co182 Co 0.53349 0.7991 0.12244 0.0
O183 O 0.55082 0.74567 0.12188 0.0
O184 O 0.58509 0.79571 0.10527 0.0
C185 C 0.51389 0.79968 0.16645 0.0
O186 O 0.52461 0.85833 0.12046 0.0
Co187 Co 0.44465 0.81623 0.13198 0.0
O188 O 0.46269 0.8715 0.13403 0.0
C189 C 0.47089 0.78793 0.07798 0.0
C190 C 0.58265 0.75815 0.11008 0.0
C191 C 0.49686 0.88262 0.12656 0.0
O192 O 0.50677 0.79123 0.08601 0.0
O193 O 0.44138 0.79393 0.09377 0.0
O194 O 0.55072 0.80477 0.16037 0.0
O195 O 0.49111 0.79035 0.14616 0.0
Co196 Co 0.19546 0.54562 0.62334 0.0
O197 O 0.24532 0.57146 0.62154 0.0
O198 O 0.19091 0.59489 0.60278 0.0
C199 C 0.19765 0.5328 0.66875 0.0
O200 O 0.13852 0.52526 0.62229 0.0
Co201 Co 0.19685 0.45705 0.63783 0.0
O202 O 0.1393 0.46407 0.64006 0.0
C203 C 0.21616 0.48091 0.58152 0.0
C204 C 0.2284 0.59897 0.60759 0.0
C205 C 0.12085 0.49366 0.63054 0.0
O206 O 0.20817 0.51647 0.58839 0.0
O207 O 0.21542 0.45229 0.5986 0.0
O208 O 0.18612 0.56679 0.65985 0.0
O209 O 0.21159 0.50928 0.65017 0.0
Co210 Co 0.46728 0.20134 0.12666 0.0
O211 O 0.45236 0.25498 0.12968 0.0
O212 O 0.41439 0.20903 0.11161 0.0
C213 C 0.48868 0.1964 0.17021 0.0
O214 O 0.47411 0.14211 0.12179 0.0
Co215 Co 0.556 0.18183 0.13324 0.0
O216 O 0.53618 0.12717 0.13423 0.0
C217 C 0.52774 0.21448 0.08094 0.0
C218 C 0.41865 0.2455 0.11931 0.0
C219 C 0.50161 0.11706 0.12693 0.0
O220 O 0.4922 0.21186 0.08985 0.0
O221 O 0.5578 0.20663 0.09578 0.0
O222 O 0.45166 0.19237 0.16451 0.0
O223 O 0.51093 0.20692 0.1499 0.0
H224 H 0.0671 0.55171 0.12082 0.0
H225 H 0.0686 0.42487 0.12353 0.0
H226 H 0.99667 0.42399 0.12466 0.0
H227 H 0.93394 0.45926 0.12653 0.0
H228 H 0.9327 0.58611 0.1237 0.0
H229 H 0.00448 0.58682 0.12094 0.0
C230 C 0.05186 0.52373 0.12165 0.0
C231 C 0.07341 0.48832 0.12234 0.0
C232 C 0.01066 0.52348 0.12236 0.0
C233 C 0.0529 0.4525 0.12302 0.0
C234 C 0.01176 0.45202 0.12375 0.0
C235 C 0.94924 0.48718 0.12533 0.0
C236 C 0.92781 0.52268 0.12558 0.0
C237 C 0.99042 0.48735 0.12372 0.0
C238 C 0.94832 0.55841 0.12361 0.0
C239 C 0.98937 0.55881 0.12208 0.0
H240 H 0.54381 0.93362 0.62823 0.0
H241 H 0.41688 0.93632 0.62925 0.0
H242 H 0.41851 0.00813 0.62946 0.0
H243 H 0.45574 0.06973 0.63007 0.0
H244 H 0.58264 0.06733 0.62836 0.0
H245 H 0.5811 0.99544 0.62761 0.0
C246 C 0.51638 0.94978 0.62855 0.0
C247 C 0.48018 0.92936 0.62891 0.0
C248 C 0.51754 0.99105 0.62854 0.0
C249 C 0.44511 0.95107 0.62899 0.0
C250 C 0.44604 0.99217 0.62915 0.0
C251 C 0.48321 0.05364 0.62959 0.0
C252 C 0.51935 0.07413 0.62948 0.0
C253 C 0.48208 0.01241 0.62906 0.0
C254 C 0.55445 0.0525 0.6285 0.0
C255 C 0.55356 0.01136 0.62812 0.0
H256 H 0.07074 0.44682 0.36752 0.0
H257 H 0.07914 0.57344 0.36686 0.0
H258 H 0.00733 0.57806 0.3662 0.0
H259 H 0.94245 0.54597 0.36523 0.0
H260 H 0.93497 0.41927 0.36669 0.0
H261 H 0.00652 0.41499 0.36756 0.0
C262 C 0.05705 0.47556 0.36717 0.0
C263 C 0.08046 0.50978 0.36706 0.0
C264 C 0.01595 0.47796 0.3669 0.0
C265 C 0.06194 0.54664 0.36695 0.0
C266 C 0.02087 0.54928 0.36651 0.0
C267 C 0.95641 0.51737 0.36567 0.0
C268 C 0.93323 0.48295 0.36576 0.0
C269 C 0.99762 0.5151 0.36636 0.0
C270 C 0.95195 0.44622 0.36663 0.0
C271 C 0.99289 0.44374 0.36709 0.0
H272 H 0.44678 0.93586 0.86568 0.0
H273 H 0.57299 0.92247 0.86781 0.0
H274 H 0.58075 0.99386 0.86887 0.0
H275 H 0.55182 0.05969 0.86882 0.0
H276 H 0.42559 0.07303 0.86739 0.0
H277 H 0.41784 0.00164 0.86649 0.0
C278 C 0.47609 0.94841 0.86631 0.0
C279 C 0.5093 0.92365 0.86652 0.0
C280 C 0.48032 0.9894 0.86707 0.0
C281 C 0.54692 0.94068 0.86761 0.0
C282 C 0.55138 0.98152 0.86819 0.0
C283 C 0.52252 0.04712 0.86827 0.0
C284 C 0.4893 0.07187 0.86805 0.0
C285 C 0.51828 0.00611 0.86786 0.0
C286 C 0.45166 0.05483 0.8676 0.0
C287 C 0.44721 0.01398 0.86703 0.0
H288 H 0.93252 0.45086 0.86331 0.0
H289 H 0.93013 0.57768 0.86382 0.0
H290 H 0.00203 0.57929 0.86281 0.0
H291 H 0.06516 0.54466 0.86104 0.0
H292 H 0.06741 0.41783 0.86197 0.0
H293 H 0.99556 0.41629 0.8632 0.0
C294 C 0.94764 0.47893 0.86313 0.0
C295 C 0.92591 0.51416 0.8634 0.0
C296 C 0.98884 0.4796 0.8628 0.0
C297 C 0.94609 0.55018 0.86361 0.0
C298 C 0.98718 0.5511 0.86296 0.0
C299 C 0.04999 0.51662 0.86143 0.0
C300 C 0.07167 0.48135 0.86118 0.0
C301 C 0.00879 0.51598 0.86241 0.0
C302 C 0.05149 0.44536 0.86214 0.0
C303 C 0.01042 0.44448 0.86279 0.0
H304 H 0.44935 0.06803 0.36708 0.0
H305 H 0.57571 0.07926 0.37036 0.0
H306 H 0.58208 0.00767 0.3697 0.0
H307 H 0.55167 0.9422 0.36762 0.0
H308 H 0.42518 0.93159 0.36546 0.0
H309 H 0.41904 0.00301 0.36624 0.0
C310 C 0.47838 0.05495 0.36758 0.0
C311 C 0.51204 0.07905 0.36857 0.0
C312 C 0.48178 0.01395 0.36738 0.0
C313 C 0.54933 0.06144 0.36959 0.0
C314 C 0.55298 0.02052 0.36916 0.0
C315 C 0.52273 0.95547 0.36725 0.0
C316 C 0.48891 0.93152 0.36632 0.0
C317 C 0.51939 0.99653 0.36794 0.0
C318 C 0.45167 0.94926 0.3662 0.0
C319 C 0.44813 0.9901 0.3666 0.0
H320 H 0.94001 0.44899 0.63197 0.0
H321 H 0.92956 0.57174 0.61133 0.0
H322 H 0.00084 0.57832 0.60992 0.0
H323 H 0.06664 0.55028 0.61717 0.0
H324 H 0.07676 0.42781 0.6393 0.0
H325 H 0.00589 0.42037 0.63753 0.0
C326 C 0.9534 0.47697 0.62681 0.0
C327 C 0.92948 0.50976 0.62193 0.0
C328 C 0.99463 0.48089 0.6266 0.0
C329 C 0.94731 0.54601 0.61546 0.0
C330 C 0.98813 0.54989 0.61465 0.0
C331 C 0.05338 0.52196 0.6215 0.0
C332 C 0.07733 0.48992 0.62858 0.0
C333 C 0.01218 0.51771 0.62069 0.0
C334 C 0.05935 0.45333 0.63405 0.0
C335 C 0.01861 0.44885 0.63297 0.0
H336 H 0.55501 0.05848 0.12223 0.0
H337 H 0.43009 0.07973 0.12651 0.0
H338 H 0.41777 0.00888 0.12621 0.0
H339 H 0.44269 0.94129 0.12665 0.0
H340 H 0.5677 0.92037 0.12188 0.0
H341 H 0.57972 0.99111 0.12043 0.0
C342 C 0.52501 0.04772 0.12307 0.0
C343 C 0.49349 0.07443 0.12467 0.0
C344 C 0.5182 0.0071 0.12291 0.0
C345 C 0.45485 0.05987 0.12528 0.0
C346 C 0.44782 0.01937 0.12522 0.0
C347 C 0.47263 0.9521 0.12532 0.0
C348 C 0.5043 0.92545 0.12466 0.0
C349 C 0.47932 0.99276 0.12438 0.0
C350 C 0.5428 0.94012 0.1225 0.0
C351 C 0.5497 0.98058 0.12171 0.0
H352 H 0.2024 0.56455 0.27852 0.0
H353 H 0.2002 0.44671 0.31122 0.0
H354 H 0.19514 0.42018 0.26444 0.0
H355 H 0.19237 0.43063 0.21452 0.0
H356 H 0.19829 0.5482 0.18156 0.0
H357 H 0.20074 0.57496 0.22844 0.0
C358 C 0.20069 0.53304 0.27542 0.0
C359 C 0.20157 0.50754 0.29825 0.0
C360 C 0.19846 0.51811 0.24853 0.0
C361 C 0.1997 0.46684 0.29395 0.0
C362 C 0.19673 0.45173 0.26724 0.0
C363 C 0.19397 0.46217 0.21756 0.0
C364 C 0.19496 0.48752 0.19465 0.0
C365 C 0.1962 0.47711 0.24443 0.0
C366 C 0.1975 0.52819 0.1989 0.0
C367 C 0.1989 0.54342 0.22566 0.0
H368 H 0.58242 0.19247 0.72016 0.0
H369 H 0.46731 0.19851 0.68312 0.0
H370 H 0.43687 0.19684 0.72868 0.0
H371 H 0.44313 0.19583 0.77889 0.0
H372 H 0.55817 0.19379 0.81623 0.0
H373 H 0.58867 0.19164 0.7706 0.0
C374 C 0.55067 0.1932 0.72211 0.0
C375 C 0.52707 0.19558 0.69843 0.0
C376 C 0.53347 0.19308 0.74834 0.0
C377 C 0.48602 0.19684 0.70112 0.0
C378 C 0.46863 0.19584 0.72713 0.0
C379 C 0.47488 0.19469 0.77703 0.0
C380 C 0.49844 0.19493 0.80078 0.0
C381 C 0.49209 0.19429 0.75085 0.0
C382 C 0.5395 0.19376 0.79816 0.0
C383 C 0.5569 0.1925 0.77212 0.0
H384 H 0.79306 0.47647 0.19571 0.0
H385 H 0.82764 0.59515 0.21569 0.0
H386 H 0.82842 0.57917 0.26446 0.0
H387 H 0.81965 0.5314 0.30213 0.0
H388 H 0.78906 0.41181 0.28225 0.0
H389 H 0.78593 0.42818 0.23336 0.0
C390 C 0.80078 0.49873 0.21075 0.0
C391 C 0.81005 0.53693 0.20192 0.0
C392 C 0.80166 0.48928 0.23905 0.0
C393 C 0.82025 0.56543 0.22177 0.0
C394 C 0.82065 0.55641 0.24981 0.0
C395 C 0.81201 0.50914 0.28705 0.0
C396 C 0.80441 0.47061 0.29577 0.0
C397 C 0.81131 0.51848 0.25877 0.0
C398 C 0.79514 0.44177 0.27601 0.0
C399 C 0.79335 0.45106 0.24801 0.0
H400 H 0.55658 0.7987 0.77644 0.0
H401 H 0.44169 0.80421 0.81384 0.0
H402 H 0.41128 0.80847 0.76832 0.0
H403 H 0.41736 0.80898 0.71802 0.0
H404 H 0.53191 0.79965 0.6805 0.0
H405 H 0.56262 0.79858 0.72605 0.0
C406 C 0.5249 0.80103 0.77459 0.0
C407 C 0.50134 0.80122 0.79835 0.0
C408 C 0.50765 0.80267 0.74841 0.0
C409 C 0.46036 0.80389 0.79577 0.0
C410 C 0.44299 0.80636 0.76979 0.0
C411 C 0.44906 0.80691 0.71984 0.0
C412 C 0.47241 0.80447 0.69605 0.0
C413 C 0.46635 0.80554 0.746 0.0
C414 C 0.51338 0.80145 0.6986 0.0
C415 C 0.53092 0.80087 0.72459 0.0
H416 H 0.82519 0.47797 0.79968 0.0
H417 H 0.76707 0.58893 0.78774 0.0
H418 H 0.76584 0.57838 0.73793 0.0
H419 H 0.78258 0.53795 0.69735 0.0
H420 H 0.84429 0.42867 0.70948 0.0
H421 H 0.84353 0.43849 0.7591 0.0
C422 C 0.81184 0.49944 0.7861 0.0
C423 C 0.7958 0.53384 0.79723 0.0
C424 C 0.81243 0.4938 0.75735 0.0
C425 C 0.7794 0.56205 0.7795 0.0
C426 C 0.77884 0.55614 0.75103 0.0
C427 C 0.79602 0.51647 0.71086 0.0
C428 C 0.81321 0.48257 0.69963 0.0
C429 C 0.79562 0.52228 0.73963 0.0
C430 C 0.83059 0.455 0.71749 0.0
C431 C 0.83011 0.46046 0.74598 0.0
H432 H 0.42649 0.81133 0.28012 0.0
H433 H 0.54544 0.80153 0.31014 0.0
H434 H 0.57005 0.80085 0.26277 0.0
H435 H 0.55731 0.80084 0.213 0.0
H436 H 0.43795 0.80706 0.18327 0.0
H437 H 0.41378 0.81151 0.23056 0.0
C438 C 0.45783 0.80927 0.2763 0.0
C439 C 0.48418 0.80649 0.29847 0.0
C440 C 0.47158 0.80816 0.24916 0.0
C441 C 0.52465 0.80357 0.29331 0.0
C442 C 0.53869 0.80321 0.26629 0.0
C443 C 0.52603 0.8034 0.21691 0.0
C444 C 0.49938 0.80362 0.19481 0.0
C445 C 0.51236 0.80516 0.24408 0.0
C446 C 0.45894 0.80667 0.20003 0.0
C447 C 0.44514 0.80924 0.22702 0.0
H448 H 0.19316 0.52256 0.79851 0.0
H449 H 0.2034 0.39906 0.78011 0.0
H450 H 0.20555 0.41335 0.7309 0.0
H451 H 0.20406 0.46097 0.69286 0.0
H452 H 0.18969 0.58414 0.7111 0.0
H453 H 0.18945 0.57004 0.76035 0.0
C454 C 0.196 0.49891 0.78367 0.0
C455 C 0.19829 0.45994 0.79284 0.0
C456 C 0.19635 0.50724 0.75532 0.0
C457 C 0.20146 0.42938 0.77348 0.0
C458 C 0.20276 0.43748 0.74533 0.0
C459 C 0.20097 0.48464 0.70766 0.0
C460 C 0.1971 0.52346 0.6984 0.0
C461 C 0.20015 0.47629 0.73599 0.0
C462 C 0.19267 0.55391 0.71774 0.0
C463 C 0.19261 0.54594 0.74593 0.0
H464 H 0.57387 0.19849 0.28501 0.0
H465 H 0.45358 0.20212 0.31311 0.0
H466 H 0.43046 0.19684 0.26555 0.0
H467 H 0.4446 0.19393 0.21623 0.0
H468 H 0.56481 0.19403 0.18786 0.0
H469 H 0.58803 0.19477 0.23558 0.0
C470 C 0.54258 0.19793 0.28072 0.0
C471 C 0.51539 0.20076 0.30241 0.0
C472 C 0.52962 0.19555 0.25342 0.0
C473 C 0.47499 0.2002 0.29666 0.0
C474 C 0.4618 0.1971 0.26953 0.0
C475 C 0.4759 0.19374 0.22048 0.0
C476 C 0.50304 0.19391 0.19868 0.0
C477 C 0.48888 0.19512 0.24779 0.0
C478 C 0.54345 0.19396 0.2044 0.0
C479 C 0.55668 0.19445 0.23162 0.0
H480 H 0.23388 0.44987 0.94894 0.0
H481 H 0.19947 0.57079 0.93797 0.0
H482 H 0.20231 0.58114 0.98782 0.0
H483 H 0.20754 0.55355 0.03484 0.0
H484 H 0.24104 0.43202 0.04477 0.0
H485 H 0.24584 0.42447 0.9951 0.0
C486 C 0.22733 0.47864 0.95738 0.0
C487 C 0.2159 0.50932 0.93976 0.0
C488 C 0.22862 0.48425 0.98598 0.0
C489 C 0.20823 0.54658 0.95106 0.0
C490 C 0.20966 0.55248 0.9796 0.0
C491 C 0.21659 0.52565 0.02614 0.0
C492 C 0.2233 0.49328 0.04358 0.0
C493 C 0.21881 0.52121 0.99733 0.0
C494 C 0.23509 0.45732 0.0319 0.0
C495 C 0.23785 0.4529 0.00344 0.0
H496 H 0.54174 0.24314 0.45499 0.0
H497 H 0.42057 0.20572 0.45143 0.0
H498 H 0.41684 0.2074 0.50179 0.0
H499 H 0.45098 0.21089 0.5466 0.0
H500 H 0.57338 0.24461 0.54901 0.0
H501 H 0.57358 0.25304 0.4992 0.0
C502 C 0.51432 0.2357 0.46517 0.0
C503 C 0.48172 0.22356 0.44955 0.0
C504 C 0.51277 0.23568 0.49392 0.0
C505 C 0.44618 0.21493 0.46302 0.0
C506 C 0.44412 0.21564 0.4918 0.0
C507 C 0.47746 0.22076 0.53625 0.0
C508 C 0.51227 0.22651 0.55137 0.0
C509 C 0.47766 0.22466 0.50745 0.0
C510 C 0.54638 0.23935 0.53774 0.0
C511 C 0.54654 0.24423 0.50928 0.0
H512 H 0.7988 0.45082 0.04326 0.0
H513 H 0.75599 0.56983 0.04976 0.0
H514 H 0.75102 0.57424 -6e-05 0.0
H515 H 0.76472 0.54723 0.95439 0.0
H516 H 0.80735 0.42852 0.94659 0.0
H517 H 0.80603 0.42103 0.99677 0.0
C518 C 0.78767 0.4774 0.03378 0.0
C519 C 0.77833 0.5101 0.05036 0.0
C520 C 0.78522 0.48005 0.00477 0.0
C521 C 0.76396 0.54434 0.03762 0.0
C522 C 0.76111 0.54699 0.00904 0.0
C523 C 0.77341 0.51954 0.9636 0.0
C524 C 0.78658 0.48869 0.9467 0.0
C525 C 0.77272 0.5155 0.9924 0.0
C526 C 0.79713 0.45283 0.95906 0.0
C527 C 0.79655 0.44858 0.98781 0.0
H528 H 0.54454 0.7908 0.54296 0.0
H529 H 0.41993 0.76655 0.54583 0.0
H530 H 0.41819 0.76058 0.49589 0.0
H531 H 0.45001 0.76987 0.45154 0.0
H532 H 0.5739 0.79693 0.44775 0.0
H533 H 0.57809 0.79329 0.49798 0.0
C534 C 0.51718 0.78353 0.53267 0.0
C535 C 0.48231 0.77983 0.54802 0.0
C536 C 0.51616 0.78091 0.50382 0.0
C537 C 0.44707 0.77027 0.53443 0.0
C538 C 0.44601 0.76679 0.50588 0.0
C539 C 0.47807 0.77464 0.46163 0.0
C540 C 0.5114 0.78444 0.44598 0.0
C541 C 0.48007 0.77336 0.49038 0.0
C542 C 0.5477 0.78963 0.45935 0.0
C543 C 0.55008 0.78775 0.48808 0.0
H544 H 0.21065 0.43297 0.45615 0.0
H545 H 0.24913 0.55348 0.44827 0.0
H546 H 0.25575 0.55871 0.49793 0.0
H547 H 0.24371 0.53207 0.54367 0.0
H548 H 0.20459 0.41222 0.55292 0.0
H549 H 0.20591 0.40355 0.50282 0.0
C550 C 0.22113 0.4601 0.4653 0.0
C551 C 0.22861 0.49297 0.44846 0.0
C552 C 0.22453 0.4632 0.49417 0.0
C553 C 0.24238 0.52789 0.46069 0.0
C554 C 0.24627 0.53098 0.48915 0.0
C555 C 0.23591 0.50385 0.53477 0.0
C556 C 0.22352 0.47304 0.55195 0.0
C557 C 0.23624 0.49929 0.50609 0.0
C558 C 0.21419 0.43647 0.54013 0.0
C559 C 0.21468 0.43158 0.51146 0.0
H560 H 0.56959 0.20978 0.95512 0.0
H561 H 0.44666 0.24033 0.94956 0.0
H562 H 0.44366 0.2491 -0.00079 0.0
H563 H 0.47331 0.24 0.04436 0.0
H564 H 0.59551 0.20719 0.05075 0.0
H565 H 0.60154 0.20843 0.00066 0.0
C566 C 0.54236 0.21901 0.96474 0.0
C567 C 0.50825 0.22352 0.94872 0.0
C568 C 0.54056 0.22341 0.99348 0.0
C569 C 0.47321 0.2358 0.96147 0.0
C570 C 0.47142 0.24093 0.98988 0.0
C571 C 0.50146 0.23361 0.03488 0.0
C572 C 0.53364 0.22272 0.0513 0.0
C573 C 0.50452 0.23346 0.00614 0.0
C574 C 0.57008 0.21532 0.03863 0.0
C575 C 0.57354 0.2158 0.00994 0.0
H576 H 0.80037 0.55941 0.4527 0.0
H577 H 0.76702 0.43702 0.44865 0.0
H578 H 0.75853 0.43533 0.49828 0.0
H579 H 0.76665 0.46601 0.54319 0.0
H580 H 0.8013 0.58771 0.54881 0.0
H581 H 0.80229 0.59238 0.49845 0.0
C582 C 0.79069 0.53258 0.46265 0.0
C583 C 0.78501 0.49825 0.44684 0.0
C584 C 0.7862 0.53154 0.49159 0.0
C585 C 0.77233 0.46376 0.46019 0.0
C586 C 0.76734 0.4627 0.48866 0.0
C587 C 0.77399 0.49378 0.53348 0.0
C588 C 0.78434 0.5263 0.54987 0.0
C589 C 0.77521 0.49604 0.50462 0.0
C590 C 0.7932 0.56214 0.53679 0.0
C591 C 0.79406 0.56475 0.50793 0.0
H592 H 0.52222 0.75699 0.0416 0.0
H593 H 0.40382 0.80132 0.04812 0.0
H594 H 0.39696 0.79899 -0.00198 0.0
H595 H 0.42805 0.79291 0.95231 0.0
H596 H 0.54749 0.75089 0.94672 0.0
H597 H 0.55029 0.74355 0.99651 0.0
C598 C 0.49471 0.76573 0.03211 0.0
C599 C 0.4639 0.78003 0.04849 0.0
C600 C 0.49127 0.76508 0.00342 0.0
C601 C 0.42814 0.79043 0.03594 0.0
C602 C 0.42426 0.78931 0.00728 0.0
C603 C 0.45437 0.78143 0.96198 0.0
C604 C 0.48773 0.77321 0.94594 0.0
C605 C 0.45613 0.77798 0.99078 0.0
C606 C 0.52163 0.75818 0.9587 0.0
C607 C 0.5233 0.75392 0.98717 0.0
H608 H 0.30615 0.38762 0.13901 0.0
H609 H 0.22494 0.31851 0.09095 0.0
H610 H 0.27497 0.26639 0.08655 0.0
H611 H 0.34338 0.24143 0.09656 0.0
H612 H 0.42151 0.316 0.14379 0.0
H613 H 0.37099 0.36488 0.14809 0.0
C614 C 0.29904 0.36131 0.1274 0.0
C615 C 0.26189 0.35712 0.1152 0.0
C616 C 0.32766 0.33235 0.12473 0.0
C617 C 0.25336 0.32244 0.10061 0.0
C618 C 0.28203 0.29277 0.09803 0.0
C619 C 0.34923 0.26852 0.10758 0.0
C620 C 0.38653 0.27489 0.11962 0.0
C621 C 0.31957 0.29751 0.10995 0.0
C622 C 0.39351 0.31013 0.13399 0.0
C623 C 0.36449 0.33829 0.13664 0.0
H624 H 0.7828 0.32605 0.61433 0.0
H625 H 0.7003 0.41594 0.59063 0.0
H626 H 0.64799 0.36739 0.5873 0.0
H627 H 0.62346 0.30194 0.59761 0.0
H628 H 0.70337 0.21041 0.62194 0.0
H629 H 0.75895 0.25654 0.61823 0.0
C630 C 0.75366 0.33456 0.60759 0.0
C631 C 0.74529 0.37451 0.60283 0.0
C632 C 0.72312 0.30632 0.60632 0.0
C633 C 0.70732 0.38538 0.59448 0.0
C634 C 0.67732 0.35769 0.59271 0.0
C635 C 0.65317 0.29191 0.60166 0.0
C636 C 0.65938 0.25314 0.61041 0.0
C637 C 0.68453 0.31848 0.59965 0.0
C638 C 0.69796 0.24024 0.6152 0.0
C639 C 0.72965 0.26669 0.61324 0.0
H640 H 0.69307 0.61241 0.10368 0.0
H641 H 0.78293 0.70058 0.11348 0.0
H642 H 0.73315 0.75258 0.1086 0.0
H643 H 0.66227 0.77191 0.10748 0.0
H644 H 0.57421 0.68118 0.09931 0.0
H645 H 0.62506 0.63123 0.09732 0.0
C646 C 0.70189 0.64306 0.10441 0.0
C647 C 0.74135 0.6528 0.10937 0.0
C648 C 0.67329 0.67227 0.10204 0.0
C649 C 0.7526 0.69249 0.10975 0.0
C650 C 0.7241 0.72211 0.10714 0.0
C651 C 0.65445 0.74128 0.10464 0.0
C652 C 0.61454 0.73015 0.10386 0.0
C653 C 0.68409 0.7123 0.10412 0.0
C654 C 0.60468 0.6904 0.10029 0.0
C655 C 0.63373 0.66178 0.09918 0.0
H656 H 0.21642 0.67778 0.6159 0.0
H657 H 0.29563 0.59391 0.57942 0.0
H658 H 0.34628 0.64424 0.57521 0.0
H659 H 0.37168 0.70827 0.58911 0.0
H660 H 0.2948 0.79327 0.62643 0.0
H661 H 0.23948 0.74685 0.62292 0.0
C662 C 0.24425 0.67114 0.60609 0.0
C663 C 0.25242 0.6323 0.59792 0.0
C664 C 0.27389 0.7002 0.60447 0.0
C665 C 0.2888 0.62367 0.58575 0.0
C666 C 0.31787 0.65234 0.58354 0.0
C667 C 0.34255 0.7169 0.5959 0.0
C668 C 0.33722 0.75375 0.60829 0.0
C669 C 0.31134 0.69011 0.59398 0.0
C670 C 0.29944 0.76495 0.61679 0.0
C671 C 0.26795 0.73831 0.61495 0.0
H672 H 0.39506 0.69916 0.39936 0.0
H673 H 0.31639 0.79395 0.37952 0.0
H674 H 0.26029 0.7483 0.38056 0.0
H675 H 0.23574 0.67903 0.38058 0.0
H676 H 0.31721 0.58571 0.3992 0.0
H677 H 0.3699 0.63307 0.40556 0.0
C678 C 0.3655 0.70994 0.39576 0.0
C679 C 0.35973 0.7495 0.38899 0.0
C680 C 0.33394 0.68362 0.39593 0.0
C681 C 0.32138 0.76344 0.38476 0.0
C682 C 0.28942 0.73729 0.38514 0.0
C683 C 0.26484 0.66938 0.38662 0.0
C684 C 0.27286 0.62899 0.38893 0.0
C685 C 0.29556 0.69696 0.38973 0.0
C686 C 0.31059 0.61665 0.3968 0.0
C687 C 0.34077 0.64368 0.40047 0.0
H688 H 0.32243 0.22676 0.88156 0.0
H689 H 0.41538 0.30943 0.89937 0.0
H690 H 0.3676 0.3613 0.90657 0.0
H691 H 0.30116 0.3856 0.90102 0.0
H692 H 0.20681 0.306 0.88131 0.0
H693 H 0.25288 0.25039 0.88225 0.0
C694 C 0.33193 0.25596 0.88756 0.0
C695 C 0.37234 0.26453 0.8894 0.0
C696 C 0.30408 0.28623 0.89114 0.0
C697 C 0.38445 0.30237 0.89727 0.0
C698 C 0.35718 0.33207 0.90147 0.0
C699 C 0.29054 0.3559 0.89757 0.0
C700 C 0.25099 0.34975 0.89084 0.0
C701 C 0.31717 0.3247 0.89741 0.0
C702 C 0.23727 0.31127 0.88665 0.0
C703 C 0.26369 0.27961 0.88689 0.0
H704 H 0.67803 0.22998 0.38702 0.0
H705 H 0.58894 0.31432 0.4091 0.0
H706 H 0.63847 0.36565 0.41313 0.0
H707 H 0.70446 0.38878 0.40299 0.0
H708 H 0.79464 0.30699 0.37917 0.0
H709 H 0.74775 0.25224 0.38357 0.0
C710 C 0.66986 0.25935 0.39347 0.0
C711 C 0.63 0.26867 0.39742 0.0
C712 C 0.69855 0.28922 0.39499 0.0
C713 C 0.61948 0.30675 0.40564 0.0
C714 C 0.64772 0.33613 0.40788 0.0
C715 C 0.714 0.35883 0.39927 0.0
C716 C 0.75248 0.35173 0.39035 0.0
C717 C 0.68693 0.32806 0.4014 0.0
C718 C 0.76495 0.31294 0.38602 0.0
C719 C 0.73809 0.28178 0.38834 0.0
H720 H 0.69574 0.61028 0.90401 0.0
H721 H 0.79094 0.68885 0.88423 0.0
H722 H 0.74507 0.7446 0.8836 0.0
H723 H 0.67565 0.76841 0.88144 0.0
H724 H 0.58184 0.68665 0.899 0.0
H725 H 0.62921 0.63493 0.90796 0.0
C726 C 0.70659 0.6398 0.90019 0.0
C727 C 0.74635 0.64557 0.89388 0.0
C728 C 0.68006 0.67105 0.89904 0.0
C729 C 0.76032 0.68385 0.88925 0.0
C730 C 0.73401 0.71559 0.88857 0.0
C731 C 0.66586 0.73945 0.88774 0.0
C732 C 0.62537 0.73105 0.88902 0.0
C733 C 0.69348 0.70924 0.89231 0.0
C734 C 0.61286 0.69353 0.89731 0.0
C735 C 0.6399 0.66393 0.90252 0.0
loop_
_geom_bond_atom_site_label_1
_geom_bond_atom_site_label_2
_geom_bond_distance
_geom_bond_site_symmetry_2
_ccdc_geom_bond_type
Co0 O1 2.216 . S
Co0 O2 2.091 . S
Co0 O4 2.004 . S
Co0 O10 2.021 . S
Co0 O12 2.137 . S
Co0 O13 2.244 . S
O1 Co0 2.216 . S
O1 C8 1.247 . S
O2 Co0 2.091 . S
O2 C8 1.261 . S
C3 O12 1.247 . S
C3 O13 1.272 . S
O4 Co0 2.004 . S
O4 C9 1.259 . S
Co5 O6 2.061 . S
Co5 O11 2.052 . S
Co5 O13 2.135 . S
O6 Co5 2.061 . S
O6 C9 1.235 . S
C7 O10 1.238 . S
C7 O11 1.241 . S
C8 O1 1.247 . S
C8 O2 1.261 . S
C9 O4 1.259 . S
C9 O6 1.235 . S
O10 Co0 2.021 . S
O10 C7 1.238 . S
O11 Co5 2.052 . S
O11 C7 1.241 . S
O12 Co0 2.137 . S
O12 C3 1.247 . S
O13 Co0 2.244 . S
O13 C3 1.272 . S
O13 Co5 2.135 . S
Co14 O15 2.216 . S
Co14 O16 2.091 . S
Co14 O18 2.004 . S
Co14 O24 2.021 . S
Co14 O26 2.137 . S
Co14 O27 2.244 . S
O15 Co14 2.216 . S
O15 C22 1.247 . S
O16 Co14 2.091 . S
O16 C22 1.261 . S
C17 O26 1.247 . S
C17 O27 1.272 . S
O18 Co14 2.004 . S
O18 C23 1.259 . S
Co19 O20 2.061 . S
Co19 O25 2.052 . S
Co19 O27 2.135 . S
O20 Co19 2.061 . S
O20 C23 1.235 . S
C21 O24 1.238 . S
C21 O25 1.241 . S
C22 O15 1.247 . S
C22 O16 1.261 . S
C23 O18 1.259 . S
C23 O20 1.235 . S
O24 Co14 2.021 . S
O24 C21 1.238 . S
O25 Co19 2.052 . S
O25 C21 1.241 . S
O26 Co14 2.137 . S
O26 C17 1.247 . S
O27 Co14 2.244 . S
O27 C17 1.272 . S
O27 Co19 2.135 . S
Co28 O29 2.216 . S
Co28 O30 2.091 . S
Co28 O32 2.004 . S
Co28 O38 2.021 . S
Co28 O40 2.137 . S
Co28 O41 2.244 . S
O29 Co28 2.216 . S
O29 C36 1.247 . S
O30 Co28 2.091 . S
O30 C36 1.261 . S
C31 O40 1.247 . S
C31 O41 1.272 . S
O32 Co28 2.004 . S
O32 C37 1.259 . S
Co33 O34 2.061 . S
Co33 O39 2.052 . S
Co33 O41 2.135 . S
O34 Co33 2.061 . S
O34 C37 1.235 . S
C35 O38 1.238 . S
C35 O39 1.241 . S
C36 O29 1.247 . S
C36 O30 1.261 . S
C37 O32 1.259 . S
C37 O34 1.235 . S
O38 Co28 2.021 . S
O38 C35 1.238 . S
O39 Co33 2.052 . S
O39 C35 1.241 . S
O40 Co28 2.137 . S
O40 C31 1.247 . S
O41 Co28 2.244 . S
O41 C31 1.272 . S
O41 Co33 2.135 . S
Co42 O43 2.216 . S
Co42 O44 2.091 . S
Co42 O46 2.004 . S
Co42 O52 2.021 . S
Co42 O54 2.137 . S
Co42 O55 2.244 . S
O43 Co42 2.216 . S
O43 C50 1.247 . S
O44 Co42 2.091 . S
O44 C50 1.261 . S
C45 O54 1.247 . S
C45 O55 1.272 . S
O46 Co42 2.004 . S
O46 C51 1.259 . S
Co47 O48 2.061 . S
Co47 O53 2.052 . S
Co47 O55 2.135 . S
O48 Co47 2.061 . S
O48 C51 1.235 . S
C49 O52 1.238 . S
C49 O53 1.241 . S
C50 O43 1.247 . S
C50 O44 1.261 . S
C51 O46 1.259 . S
C51 O48 1.235 . S
O52 Co42 2.021 . S
O52 C49 1.238 . S
O53 Co47 2.052 . S
O53 C49 1.241 . S
O54 Co42 2.137 . S
O54 C45 1.247 . S
O55 Co42 2.244 . S
O55 C45 1.272 . S
O55 Co47 2.135 . S
Co56 O57 2.216 . S
Co56 O58 2.091 . S
Co56 O60 2.004 . S
Co56 O66 2.021 . S
Co56 O68 2.137 . S
Co56 O69 2.244 . S
O57 Co56 2.216 . S
O57 C64 1.247 . S
O58 Co56 2.091 . S
O58 C64 1.261 . S
C59 O68 1.247 . S
C59 O69 1.272 . S
O60 Co56 2.004 . S
O60 C65 1.259 . S
Co61 O62 2.061 . S
Co61 O67 2.052 . S
Co61 O69 2.135 . S
O62 Co61 2.061 . S
O62 C65 1.235 . S
C63 O66 1.238 . S
C63 O67 1.241 . S
C64 O57 1.247 . S
C64 O58 1.261 . S
C65 O60 1.259 . S
C65 O62 1.235 . S
O66 Co56 2.021 . S
O66 C63 1.238 . S
O67 Co61 2.052 . S
O67 C63 1.241 . S
O68 Co56 2.137 . S
O68 C59 1.247 . S
O69 Co56 2.244 . S
O69 C59 1.272 . S
O69 Co61 2.135 . S
Co70 O71 2.216 . S
Co70 O72 2.091 . S
Co70 O74 2.004 . S
Co70 O80 2.021 . S
Co70 O82 2.137 . S
Co70 O83 2.244 . S
O71 Co70 2.216 . S
O71 C78 1.247 . S
O72 Co70 2.091 . S
O72 C78 1.261 . S
C73 O82 1.247 . S
C73 O83 1.272 . S
O74 Co70 2.004 . S
O74 C79 1.259 . S
Co75 O76 2.061 . S
Co75 O81 2.052 . S
Co75 O83 2.135 . S
O76 Co75 2.061 . S
O76 C79 1.235 . S
C77 O80 1.238 . S
C77 O81 1.241 . S
C78 O71 1.247 . S
C78 O72 1.261 . S
C79 O74 1.259 . S
C79 O76 1.235 . S
O80 Co70 2.021 . S
O80 C77 1.238 . S
O81 Co75 2.052 . S
O81 C77 1.241 . S
O82 Co70 2.137 . S
O82 C73 1.247 . S
O83 Co70 2.244 . S
O83 C73 1.272 . S
O83 Co75 2.135 . S
Co84 O85 2.216 . S
Co84 O86 2.091 . S
Co84 O88 2.004 . S
Co84 O94 2.021 . S
Co84 O96 2.137 . S
Co84 O97 2.244 . S
O85 Co84 2.216 . S
O85 C92 1.247 . S
O86 Co84 2.091 . S
O86 C92 1.261 . S
C87 O96 1.247 . S
C87 O97 1.272 . S
O88 Co84 2.004 . S
O88 C93 1.259 . S
Co89 O90 2.061 . S
Co89 O95 2.052 . S
Co89 O97 2.135 . S
O90 Co89 2.061 . S
O90 C93 1.235 . S
C91 O94 1.238 . S
C91 O95 1.241 . S
C92 O85 1.247 . S
C92 O86 1.261 . S
C93 O88 1.259 . S
C93 O90 1.235 . S
O94 Co84 2.021 . S
O94 C91 1.238 . S
O95 Co89 2.052 . S
O95 C91 1.241 . S
O96 Co84 2.137 . S
O96 C87 1.247 . S
O97 Co84 2.244 . S
O97 C87 1.272 . S
O97 Co89 2.135 . S
Co98 O99 2.216 . S
Co98 O100 2.091 . S
Co98 O102 2.004 . S
Co98 O108 2.021 . S
Co98 O110 2.137 . S
Co98 O111 2.244 . S
O99 Co98 2.216 . S
O99 C106 1.247 . S
O100 Co98 2.091 . S
O100 C106 1.261 . S
C101 O110 1.247 . S
C101 O111 1.272 . S
O102 Co98 2.004 . S
O102 C107 1.259 . S
Co103 O104 2.061 . S
Co103 O109 2.052 . S
Co103 O111 2.135 . S
O104 Co103 2.061 . S
O104 C107 1.235 . S
C105 O108 1.238 . S
C105 O109 1.241 . S
C106 O99 1.247 . S
C106 O100 1.261 . S
C107 O102 1.259 . S
C107 O104 1.235 . S
O108 Co98 2.021 . S
O108 C105 1.238 . S
O109 Co103 2.052 . S
O109 C105 1.241 . S
O110 Co98 2.137 . S
O110 C101 1.247 . S
O111 Co98 2.244 . S
O111 C101 1.272 . S
O111 Co103 2.135 . S
Co112 O113 2.216 . S
Co112 O114 2.091 . S
Co112 O116 2.004 . S
Co112 O122 2.021 . S
Co112 O124 2.137 . S
Co112 O125 2.244 . S
O113 Co112 2.216 . S
O113 C120 1.247 . S
O114 Co112 2.091 . S
O114 C120 1.261 . S
C115 O124 1.247 . S
C115 O125 1.272 . S
O116 Co112 2.004 . S
O116 C121 1.259 . S
Co117 O118 2.061 . S
Co117 O123 2.052 . S
Co117 O125 2.135 . S
O118 Co117 2.061 . S
O118 C121 1.235 . S
C119 O122 1.238 . S
C119 O123 1.241 . S
C120 O113 1.247 . S
C120 O114 1.261 . S
C121 O116 1.259 . S
C121 O118 1.235 . S
O122 Co112 2.021 . S
O122 C119 1.238 . S
O123 Co117 2.052 . S
O123 C119 1.241 . S
O124 Co112 2.137 . S
O124 C115 1.247 . S
O125 Co112 2.244 . S
O125 C115 1.272 . S
O125 Co117 2.135 . S
Co126 O127 2.216 . S
Co126 O128 2.091 . S
Co126 O130 2.004 . S
Co126 O136 2.021 . S
Co126 O138 2.137 . S
Co126 O139 2.244 . S
O127 Co126 2.216 . S
O127 C134 1.247 . S
O128 Co126 2.091 . S
O128 C134 1.261 . S
C129 O138 1.247 . S
C129 O139 1.272 . S
O130 Co126 2.004 . S
O130 C135 1.259 . S
Co131 O132 2.061 . S
Co131 O137 2.052 . S
Co131 O139 2.135 . S
O132 Co131 2.061 . S
O132 C135 1.235 . S
C133 O136 1.238 . S
C133 O137 1.241 . S
C134 O127 1.247 . S
C134 O128 1.261 . S
C135 O130 1.259 . S
C135 O132 1.235 . S
O136 Co126 2.021 . S
O136 C133 1.238 . S
O137 Co131 2.052 . S
O137 C133 1.241 . S
O138 Co126 2.137 . S
O138 C129 1.247 . S
O139 Co126 2.244 . S
O139 C129 1.272 . S
O139 Co131 2.135 . S
Co140 O141 2.216 . S
Co140 O142 2.091 . S
Co140 O144 2.004 . S
Co140 O150 2.021 . S
Co140 O152 2.137 . S
Co140 O153 2.244 . S
O141 Co140 2.216 . S
O141 C148 1.247 . S
O142 Co140 2.091 . S
O142 C148 1.261 . S
C143 O152 1.247 . S
C143 O153 1.272 . S
O144 Co140 2.004 . S
O144 C149 1.259 . S
Co145 O146 2.061 . S
Co145 O151 2.052 . S
Co145 O153 2.135 . S
O146 Co145 2.061 . S
O146 C149 1.235 . S
C147 O150 1.238 . S
C147 O151 1.241 . S
C148 O141 1.247 . S
C148 O142 1.261 . S
C149 O144 1.259 . S
C149 O146 1.235 . S
O150 Co140 2.021 . S
O150 C147 1.238 . S
O151 Co145 2.052 . S
O151 C147 1.241 . S
O152 Co140 2.137 . S
O152 C143 1.247 . S
O153 Co140 2.244 . S
O153 C143 1.272 . S
O153 Co145 2.135 . S
Co154 O155 2.216 . S
Co154 O156 2.091 . S
Co154 O158 2.004 . S
Co154 O164 2.021 . S
Co154 O166 2.137 . S
Co154 O167 2.244 . S
O155 Co154 2.216 . S
O155 C162 1.247 . S
O156 Co154 2.091 . S
O156 C162 1.261 . S
C157 O166 1.247 . S
C157 O167 1.272 . S
O158 Co154 2.004 . S
O158 C163 1.259 . S
Co159 O160 2.061 . S
Co159 O165 2.052 . S
Co159 O167 2.135 . S
O160 Co159 2.061 . S
O160 C163 1.235 . S
C161 O164 1.238 . S
C161 O165 1.241 . S
C162 O155 1.247 . S
C162 O156 1.261 . S
C163 O158 1.259 . S
C163 O160 1.235 . S
O164 Co154 2.021 . S
O164 C161 1.238 . S
O165 Co159 2.052 . S
O165 C161 1.241 . S
O166 Co154 2.137 . S
O166 C157 1.247 . S
O167 Co154 2.244 . S
O167 C157 1.272 . S
O167 Co159 2.135 . S
Co168 O169 2.216 . S
Co168 O170 2.091 . S
Co168 O172 2.004 . S
Co168 O178 2.021 . S
Co168 O180 2.137 . S
Co168 O181 2.244 . S
O169 Co168 2.216 . S
O169 C176 1.247 . S
O170 Co168 2.091 . S
O170 C176 1.261 . S
C171 O180 1.247 . S
C171 O181 1.272 . S
O172 Co168 2.004 . S
O172 C177 1.259 . S
Co173 O174 2.061 . S
Co173 O179 2.052 . S
Co173 O181 2.135 . S
O174 Co173 2.061 . S
O174 C177 1.235 . S
C175 O178 1.238 . S
C175 O179 1.241 . S
C176 O169 1.247 . S
C176 O170 1.261 . S
C177 O172 1.259 . S
C177 O174 1.235 . S
O178 Co168 2.021 . S
O178 C175 1.238 . S
O179 Co173 2.052 . S
O179 C175 1.241 . S
O180 Co168 2.137 . S
O180 C171 1.247 . S
O181 Co168 2.244 . S
O181 C171 1.272 . S
O181 Co173 2.135 . S
Co182 O183 2.216 . S
Co182 O184 2.091 . S
Co182 O186 2.004 . S
Co182 O192 2.021 . S
Co182 O194 2.137 . S
Co182 O195 2.244 . S
O183 Co182 2.216 . S
O183 C190 1.247 . S
O184 Co182 2.091 . S
O184 C190 1.261 . S
C185 O194 1.247 . S
C185 O195 1.272 . S
O186 Co182 2.004 . S
O186 C191 1.259 . S
Co187 O188 2.061 . S
Co187 O193 2.052 . S
Co187 O195 2.135 . S
O188 Co187 2.061 . S
O188 C191 1.235 . S
C189 O192 1.238 . S
C189 O193 1.241 . S
C190 O183 1.247 . S
C190 O184 1.261 . S
C191 O186 1.259 . S
C191 O188 1.235 . S
O192 Co182 2.021 . S
O192 C189 1.238 . S
O193 Co187 2.052 . S
O193 C189 1.241 . S
O194 Co182 2.137 . S
O194 C185 1.247 . S
O195 Co182 2.244 . S
O195 C185 1.272 . S
O195 Co187 2.135 . S
Co196 O197 2.216 . S
Co196 O198 2.091 . S
Co196 O200 2.004 . S
Co196 O206 2.021 . S
Co196 O208 2.137 . S
Co196 O209 2.244 . S
O197 Co196 2.216 . S
O197 C204 1.247 . S
O198 Co196 2.091 . S
O198 C204 1.261 . S
C199 O208 1.247 . S
C199 O209 1.272 . S
O200 Co196 2.004 . S
O200 C205 1.259 . S
Co201 O202 2.061 . S
Co201 O207 2.052 . S
Co201 O209 2.135 . S
O202 Co201 2.061 . S
O202 C205 1.235 . S
C203 O206 1.238 . S
C203 O207 1.241 . S
C204 O197 1.247 . S
C204 O198 1.261 . S
C205 O200 1.259 . S
C205 O202 1.235 . S
O206 Co196 2.021 . S
O206 C203 1.238 . S
O207 Co201 2.052 . S
O207 C203 1.241 . S
O208 Co196 2.137 . S
O208 C199 1.247 . S
O209 Co196 2.244 . S
O209 C199 1.272 . S
O209 Co201 2.135 . S
Co210 O211 2.216 . S
Co210 O212 2.091 . S
Co210 O214 2.004 . S
Co210 O220 2.021 . S
Co210 O222 2.137 . S
Co210 O223 2.244 . S
O211 Co210 2.216 . S
O211 C218 1.247 . S
O212 Co210 2.091 . S
O212 C218 1.261 . S
C213 O222 1.247 . S
C213 O223 1.272 . S
O214 Co210 2.004 . S
O214 C219 1.259 . S
Co215 O216 2.061 . S
Co215 O221 2.052 . S
Co215 O223 2.135 . S
O216 Co215 2.061 . S
O216 C219 1.235 . S
C217 O220 1.238 . S
C217 O221 1.241 . S
C218 O211 1.247 . S
C218 O212 1.261 . S
C219 O214 1.259 . S
C219 O216 1.235 . S
O220 Co210 2.021 . S
O220 C217 1.238 . S
O221 Co215 2.052 . S
O221 C217 1.241 . S
O222 Co210 2.137 . S
O222 C213 1.247 . S
O223 Co210 2.244 . S
O223 C213 1.272 . S
O223 Co215 2.135 . S
H224 C230 0.930 . S
H225 C233 0.930 . S
H226 C234 0.930 1_655 S
H227 C235 0.930 . S
H228 C238 0.930 . S
H229 C239 0.930 1_455 S
C230 H224 0.930 . S
C230 C231 1.355 . S
C230 C232 1.415 . S
C231 C230 1.355 . S
C231 C233 1.419 . S
C232 C230 1.415 . S
C232 C237 1.425 1_455 S
C232 C239 1.409 1_455 S
C233 H225 0.930 . S
C233 C231 1.419 . S
C233 C234 1.362 . S
C234 H226 0.930 1_455 S
C234 C233 1.362 . S
C234 C237 1.409 1_455 S
C235 H227 0.930 . S
C235 C236 1.355 . S
C235 C237 1.415 . S
C236 C235 1.355 . S
C236 C238 1.419 . S
C237 C232 1.425 1_655 S
C237 C234 1.409 1_655 S
C237 C235 1.415 . S
C238 H228 0.930 . S
C238 C236 1.419 . S
C238 C239 1.362 . S
C239 H229 0.930 1_655 S
C239 C232 1.409 1_655 S
C239 C238 1.362 . S
H240 C246 0.930 . S
H241 C249 0.930 . S
H242 C250 0.930 1_545 S
H243 C251 0.930 . S
H244 C254 0.930 . S
H245 C255 0.930 1_565 S
C246 H240 0.930 . S
C246 C247 1.355 . S
C246 C248 1.415 . S
C247 C246 1.355 . S
C247 C249 1.419 . S
C248 C246 1.415 . S
C248 C253 1.425 1_565 S
C248 C255 1.409 1_565 S
C249 H241 0.930 . S
C249 C247 1.419 . S
C249 C250 1.362 . S
C250 H242 0.930 1_565 S
C250 C249 1.362 . S
C250 C253 1.409 1_565 S
C251 H243 0.930 . S
C251 C252 1.355 . S
C251 C253 1.415 . S
C252 C251 1.355 . S
C252 C254 1.419 . S
C253 C248 1.425 1_545 S
C253 C250 1.409 1_545 S
C253 C251 1.415 . S
C254 H244 0.930 . S
C254 C252 1.419 . S
C254 C255 1.362 . S
C255 H245 0.930 1_545 S
C255 C248 1.409 1_545 S
C255 C254 1.362 . S
H256 C262 0.930 . S
H257 C265 0.930 . S
H258 C266 0.944 . S
H259 C267 0.930 . S
H260 C270 0.930 . S
H261 C271 0.944 . S
C262 H256 0.930 . S
C262 C263 1.355 . S
C262 C264 1.415 . S
C263 C262 1.355 . S
C263 C265 1.419 . S
C264 C262 1.415 . S
C264 C269 1.425 1_455 S
C264 C271 1.409 1_455 S
C265 H257 0.930 . S
C265 C263 1.419 . S
C265 C266 1.362 . S
C266 H258 0.944 . S
C266 C265 1.362 . S
C266 C269 1.409 1_455 S
C267 H259 0.930 . S
C267 C268 1.355 . S
C267 C269 1.415 . S
C268 C267 1.355 . S
C268 C270 1.419 . S
C269 C264 1.425 1_655 S
C269 C266 1.409 1_655 S
C269 C267 1.415 . S
C270 H260 0.930 . S
C270 C268 1.419 . S
C270 C271 1.362 . S
C271 H261 0.944 . S
C271 C264 1.409 1_655 S
C271 C270 1.362 . S
H272 C278 0.930 . S
H273 C281 0.930 . S
H274 C282 0.930 . S
H275 C283 0.930 . S
H276 C286 0.930 . S
H277 C287 0.930 . S
C278 H272 0.930 . S
C278 C279 1.355 . S
C278 C280 1.415 . S
C279 C278 1.355 . S
C279 C281 1.419 . S
C280 C278 1.415 . S
C280 C285 1.425 1_565 S
C280 C287 1.409 1_565 S
C281 H273 0.930 . S
C281 C279 1.419 . S
C281 C282 1.362 . S
C282 H274 0.930 . S
C282 C281 1.362 . S
C282 C285 1.409 1_565 S
C283 H275 0.930 . S
C283 C284 1.355 . S
C283 C285 1.415 . S
C284 C283 1.355 . S
C284 C286 1.419 . S
C285 C280 1.425 1_545 S
C285 C282 1.409 1_545 S
C285 C283 1.415 . S
C286 H276 0.930 . S
C286 C284 1.419 . S
C286 C287 1.362 . S
C287 H277 0.930 . S
C287 C280 1.409 1_545 S
C287 C286 1.362 . S
H288 C294 0.930 . S
H289 C297 0.930 . S
H290 C298 0.930 1_455 S
H291 C299 0.930 . S
H292 C302 0.930 . S
H293 C303 0.930 1_655 S
C294 H288 0.930 . S
C294 C295 1.355 . S
C294 C296 1.415 . S
C295 C294 1.355 . S
C295 C297 1.419 . S
C296 C294 1.415 . S
C296 C301 1.425 1_655 S
C296 C303 1.409 1_655 S
C297 H289 0.930 . S
C297 C295 1.419 . S
C297 C298 1.362 . S
C298 H290 0.930 1_655 S
C298 C297 1.362 . S
C298 C301 1.409 1_655 S
C299 H291 0.930 . S
C299 C300 1.355 . S
C299 C301 1.415 . S
C300 C299 1.355 . S
C300 C302 1.419 . S
C301 C296 1.425 1_455 S
C301 C298 1.409 1_455 S
C301 C299 1.415 . S
C302 H292 0.930 . S
C302 C300 1.419 . S
C302 C303 1.362 . S
C303 H293 0.930 1_455 S
C303 C296 1.409 1_455 S
C303 C302 1.362 . S
H304 C310 0.930 . S
H305 C313 0.930 . S
H306 C314 0.930 . S
H307 C315 0.930 . S
H308 C318 0.930 . S
H309 C319 0.930 . S
C310 H304 0.930 . S
C310 C311 1.355 . S
C310 C312 1.415 . S
C311 C310 1.355 . S
C311 C313 1.419 . S
C312 C310 1.415 . S
C312 C317 1.425 1_545 S
C312 C319 1.409 1_545 S
C313 H305 0.930 . S
C313 C311 1.419 . S
C313 C314 1.362 . S
C314 H306 0.930 . S
C314 C313 1.362 . S
C314 C317 1.409 1_545 S
C315 H307 0.930 . S
C315 C316 1.355 . S
C315 C317 1.415 . S
C316 C315 1.355 . S
C316 C318 1.419 . S
C317 C312 1.425 1_565 S
C317 C314 1.409 1_565 S
C317 C315 1.415 . S
C318 H308 0.930 . S
C318 C316 1.419 . S
C318 C319 1.362 . S
C319 H309 0.930 . S
C319 C312 1.409 1_565 S
C319 C318 1.362 . S
H320 C326 0.930 . S
H321 C329 0.930 . S
H322 C330 0.930 . S
H323 C331 0.930 . S
H324 C334 0.930 . S
H325 C335 0.930 . S
C326 H320 0.930 . S
C326 C327 1.355 . S
C326 C328 1.415 . S
C327 C326 1.355 . S
C327 C329 1.419 . S
C328 C326 1.415 . S
C328 C333 1.425 1_655 S
C328 C335 1.409 1_655 S
C329 H321 0.930 . S
C329 C327 1.419 . S
C329 C330 1.362 . S
C330 H322 0.930 . S
C330 C329 1.362 . S
C330 C333 1.409 1_655 S
C331 H323 0.930 . S
C331 C332 1.355 . S
C331 C333 1.415 . S
C332 C331 1.355 . S
C332 C334 1.419 . S
C333 C328 1.425 1_455 S
C333 C330 1.409 1_455 S
C333 C331 1.415 . S
C334 H324 0.930 . S
C334 C332 1.419 . S
C334 C335 1.362 . S
C335 H325 0.930 . S
C335 C328 1.409 1_455 S
C335 C334 1.362 . S
H336 C342 0.930 . S
H337 C345 0.930 . S
H338 C346 0.930 . S
H339 C347 0.930 . S
H340 C350 0.930 . S
H341 C351 0.930 . S
C342 H336 0.930 . S
C342 C343 1.355 . S
C342 C344 1.415 . S
C343 C342 1.355 . S
C343 C345 1.419 . S
C344 C342 1.415 . S
C344 C349 1.425 1_545 S
C344 C351 1.409 1_545 S
C345 H337 0.930 . S
C345 C343 1.419 . S
C345 C346 1.362 . S
C346 H338 0.930 . S
C346 C345 1.362 . S
C346 C349 1.409 1_545 S
C347 H339 0.930 . S
C347 C348 1.355 . S
C347 C349 1.415 . S
C348 C347 1.355 . S
C348 C350 1.419 . S
C349 C344 1.425 1_565 S
C349 C346 1.409 1_565 S
C349 C347 1.415 . S
C350 H340 0.930 . S
C350 C348 1.419 . S
C350 C351 1.362 . S
C351 H341 0.930 . S
C351 C344 1.409 1_565 S
C351 C350 1.362 . S
H352 C358 0.930 . S
H353 C361 0.930 . S
H354 C362 0.930 . S
H355 C363 0.930 . S
H356 C366 0.930 . S
H357 C367 0.930 . S
C358 H352 0.930 . S
C358 C359 1.355 . S
C358 C360 1.415 . S
C359 C358 1.355 . S
C359 C361 1.419 . S
C360 C358 1.415 . S
C360 C365 1.425 . S
C360 C367 1.409 . S
C361 H353 0.930 . S
C361 C359 1.419 . S
C361 C362 1.362 . S
C362 H354 0.930 . S
C362 C361 1.362 . S
C362 C365 1.409 . S
C363 H355 0.930 . S
C363 C364 1.355 . S
C363 C365 1.415 . S
C364 C363 1.355 . S
C364 C366 1.419 . S
C365 C360 1.425 . S
C365 C362 1.409 . S
C365 C363 1.415 . S
C366 H356 0.930 . S
C366 C364 1.419 . S
C366 C367 1.362 . S
C367 H357 0.930 . S
C367 C360 1.409 . S
C367 C366 1.362 . S
H368 C374 0.930 . S
H369 C377 0.930 . S
H370 C378 0.930 . S
H371 C379 0.930 . S
H372 C382 0.930 . S
H373 C383 0.930 . S
C374 H368 0.930 . S
C374 C375 1.355 . S
C374 C376 1.415 . S
C375 C374 1.355 . S
C375 C377 1.419 . S
C376 C374 1.415 . S
C376 C381 1.425 . S
C376 C383 1.409 . S
C377 H369 0.930 . S
C377 C375 1.419 . S
C377 C378 1.362 . S
C378 H370 0.930 . S
C378 C377 1.362 . S
C378 C381 1.409 . S
C379 H371 0.930 . S
C379 C380 1.355 . S
C379 C381 1.415 . S
C380 C379 1.355 . S
C380 C382 1.419 . S
C381 C376 1.425 . S
C381 C378 1.409 . S
C381 C379 1.415 . S
C382 H372 0.930 . S
C382 C380 1.419 . S
C382 C383 1.362 . S
C383 H373 0.930 . S
C383 C376 1.409 . S
C383 C382 1.362 . S
H384 C390 0.930 . S
H385 C393 0.930 . S
H386 C394 0.930 . S
H387 C395 0.930 . S
H388 C398 0.930 . S
H389 C399 0.930 . S
C390 H384 0.930 . S
C390 C391 1.355 . S
C390 C392 1.415 . S
C391 C390 1.355 . S
C391 C393 1.419 . S
C392 C390 1.415 . S
C392 C397 1.425 . S
C392 C399 1.409 . S
C393 H385 0.930 . S
C393 C391 1.419 . S
C393 C394 1.362 . S
C394 H386 0.930 . S
C394 C393 1.362 . S
C394 C397 1.409 . S
C395 H387 0.930 . S
C395 C396 1.355 . S
C395 C397 1.415 . S
C396 C395 1.355 . S
C396 C398 1.419 . S
C397 C392 1.425 . S
C397 C394 1.409 . S
C397 C395 1.415 . S
C398 H388 0.930 . S
C398 C396 1.419 . S
C398 C399 1.362 . S
C399 H389 0.930 . S
C399 C392 1.409 . S
C399 C398 1.362 . S
H400 C406 0.930 . S
H401 C409 0.930 . S
H402 C410 0.930 . S
H403 C411 0.930 . S
H404 C414 0.930 . S
H405 C415 0.930 . S
C406 H400 0.930 . S
C406 C407 1.355 . S
C406 C408 1.415 . S
C407 C406 1.355 . S
C407 C409 1.419 . S
C408 C406 1.415 . S
C408 C413 1.425 . S
C408 C415 1.409 . S
C409 H401 0.930 . S
C409 C407 1.419 . S
C409 C410 1.362 . S
C410 H402 0.930 . S
C410 C409 1.362 . S
C410 C413 1.409 . S
C411 H403 0.930 . S
C411 C412 1.355 . S
C411 C413 1.415 . S
C412 C411 1.355 . S
C412 C414 1.419 . S
C413 C408 1.425 . S
C413 C410 1.409 . S
C413 C411 1.415 . S
C414 H404 0.930 . S
C414 C412 1.419 . S
C414 C415 1.362 . S
C415 H405 0.930 . S
C415 C408 1.409 . S
C415 C414 1.362 . S
H416 C422 0.930 . S
H417 C425 0.930 . S
H418 C426 0.930 . S
H419 C427 0.930 . S
H420 C430 0.930 . S
H421 C431 0.930 . S
C422 H416 0.930 . S
C422 C423 1.355 . S
C422 C424 1.415 . S
C423 C422 1.355 . S
C423 C425 1.419 . S
C424 C422 1.415 . S
C424 C429 1.425 . S
C424 C431 1.409 . S
C425 H417 0.930 . S
C425 C423 1.419 . S
C425 C426 1.362 . S
C426 H418 0.930 . S
C426 C425 1.362 . S
C426 C429 1.409 . S
C427 H419 0.930 . S
C427 C428 1.355 . S
C427 C429 1.415 . S
C428 C427 1.355 . S
C428 C430 1.419 . S
C429 C424 1.425 . S
C429 C426 1.409 . S
C429 C427 1.415 . S
C430 H420 0.930 . S
C430 C428 1.419 . S
C430 C431 1.362 . S
C431 H421 0.930 . S
C431 C424 1.409 . S
C431 C430 1.362 . S
H432 C438 0.930 . S
H433 C441 0.930 . S
H434 C442 0.930 . S
H435 C443 0.930 . S
H436 C446 0.930 . S
H437 C447 0.930 . S
C438 H432 0.930 . S
C438 C439 1.355 . S
C438 C440 1.415 . S
C439 C438 1.355 . S
C439 C441 1.419 . S
C440 C438 1.415 . S
C440 C445 1.425 . S
C440 C447 1.409 . S
C441 H433 0.930 . S
C441 C439 1.419 . S
C441 C442 1.362 . S
C442 H434 0.930 . S
C442 C441 1.362 . S
C442 C445 1.409 . S
C443 H435 0.930 . S
C443 C444 1.355 . S
C443 C445 1.415 . S
C444 C443 1.355 . S
C444 C446 1.419 . S
C445 C440 1.425 . S
C445 C442 1.409 . S
C445 C443 1.415 . S
C446 H436 0.930 . S
C446 C444 1.419 . S
C446 C447 1.362 . S
C447 H437 0.930 . S
C447 C440 1.409 . S
C447 C446 1.362 . S
H448 C454 0.930 . S
H449 C457 0.930 . S
H450 C458 0.930 . S
H451 C459 0.930 . S
H452 C462 0.930 . S
H453 C463 0.930 . S
C454 H448 0.930 . S
C454 C455 1.355 . S
C454 C456 1.415 . S
C455 C454 1.355 . S
C455 C457 1.419 . S
C456 C454 1.415 . S
C456 C461 1.425 . S
C456 C463 1.409 . S
C457 H449 0.930 . S
C457 C455 1.419 . S
C457 C458 1.362 . S
C458 H450 0.930 . S
C458 C457 1.362 . S
C458 C461 1.409 . S
C459 H451 0.930 . S
C459 C460 1.355 . S
C459 C461 1.415 . S
C460 C459 1.355 . S
C460 C462 1.419 . S
C461 C456 1.425 . S
C461 C458 1.409 . S
C461 C459 1.415 . S
C462 H452 0.930 . S
C462 C460 1.419 . S
C462 C463 1.362 . S
C463 H453 0.930 . S
C463 C456 1.409 . S
C463 C462 1.362 . S
H464 C470 0.930 . S
H465 C473 0.930 . S
H466 C474 0.930 . S
H467 C475 0.930 . S
H468 C478 0.930 . S
H469 C479 0.930 . S
C470 H464 0.930 . S
C470 C471 1.355 . S
C470 C472 1.415 . S
C471 C470 1.355 . S
C471 C473 1.419 . S
C472 C470 1.415 . S
C472 C477 1.425 . S
C472 C479 1.409 . S
C473 H465 0.930 . S
C473 C471 1.419 . S
C473 C474 1.362 . S
C474 H466 0.930 . S
C474 C473 1.362 . S
C474 C477 1.409 . S
C475 H467 0.930 . S
C475 C476 1.355 . S
C475 C477 1.415 . S
C476 C475 1.355 . S
C476 C478 1.419 . S
C477 C472 1.425 . S
C477 C474 1.409 . S
C477 C475 1.415 . S
C478 H468 0.930 . S
C478 C476 1.419 . S
C478 C479 1.362 . S
C479 H469 0.930 . S
C479 C472 1.409 . S
C479 C478 1.362 . S
H480 C486 0.930 . S
H481 C489 0.930 . S
H482 C490 0.930 . S
H483 C491 0.930 . S
H484 C494 0.930 . S
H485 C495 0.930 . S
C486 H480 0.930 . S
C486 C487 1.355 . S
C486 C488 1.415 . S
C487 C486 1.355 . S
C487 C489 1.419 . S
C488 C486 1.415 . S
C488 C493 1.425 1_556 S
C488 C495 1.409 1_556 S
C489 H481 0.930 . S
C489 C487 1.419 . S
C489 C490 1.362 . S
C490 H482 0.930 . S
C490 C489 1.362 . S
C490 C493 1.409 1_556 S
C491 H483 0.930 . S
C491 C492 1.355 . S
C491 C493 1.415 . S
C492 C491 1.355 . S
C492 C494 1.419 . S
C493 C488 1.425 1_554 S
C493 C490 1.409 1_554 S
C493 C491 1.415 . S
C494 H484 0.930 . S
C494 C492 1.419 . S
C494 C495 1.362 . S
C495 H485 0.930 . S
C495 C488 1.409 1_554 S
C495 C494 1.362 . S
H496 C502 0.930 . S
H497 C505 0.930 . S
H498 C506 0.930 . S
H499 C507 0.930 . S
H500 C510 0.930 . S
H501 C511 0.930 . S
C502 H496 0.930 . S
C502 C503 1.355 . S
C502 C504 1.415 . S
C503 C502 1.355 . S
C503 C505 1.419 . S
C504 C502 1.415 . S
C504 C509 1.425 . S
C504 C511 1.409 . S
C505 H497 0.930 . S
C505 C503 1.419 . S
C505 C506 1.362 . S
C506 H498 0.930 . S
C506 C505 1.362 . S
C506 C509 1.409 . S
C507 H499 0.930 . S
C507 C508 1.355 . S
C507 C509 1.415 . S
C508 C507 1.355 . S
C508 C510 1.419 . S
C509 C504 1.425 . S
C509 C506 1.409 . S
C509 C507 1.415 . S
C510 H500 0.930 . S
C510 C508 1.419 . S
C510 C511 1.362 . S
C511 H501 0.930 . S
C511 C504 1.409 . S
C511 C510 1.362 . S
H512 C518 0.930 . S
H513 C521 0.930 . S
H514 C522 0.930 . S
H515 C523 0.930 . S
H516 C526 0.930 . S
H517 C527 0.930 . S
C518 H512 0.930 . S
C518 C519 1.355 . S
C518 C520 1.415 . S
C519 C518 1.355 . S
C519 C521 1.419 . S
C520 C518 1.415 . S
C520 C525 1.425 1_554 S
C520 C527 1.409 1_554 S
C521 H513 0.930 . S
C521 C519 1.419 . S
C521 C522 1.362 . S
C522 H514 0.930 . S
C522 C521 1.362 . S
C522 C525 1.409 1_554 S
C523 H515 0.930 . S
C523 C524 1.355 . S
C523 C525 1.415 . S
C524 C523 1.355 . S
C524 C526 1.419 . S
C525 C520 1.425 1_556 S
C525 C522 1.409 1_556 S
C525 C523 1.415 . S
C526 H516 0.930 . S
C526 C524 1.419 . S
C526 C527 1.362 . S
C527 H517 0.930 . S
C527 C520 1.409 1_556 S
C527 C526 1.362 . S
H528 C534 0.930 . S
H529 C537 0.930 . S
H530 C538 0.930 . S
H531 C539 0.930 . S
H532 C542 0.930 . S
H533 C543 0.930 . S
C534 H528 0.930 . S
C534 C535 1.355 . S
C534 C536 1.415 . S
C535 C534 1.355 . S
C535 C537 1.419 . S
C536 C534 1.415 . S
C536 C541 1.425 . S
C536 C543 1.409 . S
C537 H529 0.930 . S
C537 C535 1.419 . S
C537 C538 1.362 . S
C538 H530 0.930 . S
C538 C537 1.362 . S
C538 C541 1.409 . S
C539 H531 0.930 . S
C539 C540 1.355 . S
C539 C541 1.415 . S
C540 C539 1.355 . S
C540 C542 1.419 . S
C541 C536 1.425 . S
C541 C538 1.409 . S
C541 C539 1.415 . S
C542 H532 0.930 . S
C542 C540 1.419 . S
C542 C543 1.362 . S
C543 H533 0.930 . S
C543 C536 1.409 . S
C543 C542 1.362 . S
H544 C550 0.930 . S
H545 C553 0.930 . S
H546 C554 0.930 . S
H547 C555 0.930 . S
H548 C558 0.930 . S
H549 C559 0.930 . S
C550 H544 0.930 . S
C550 C551 1.355 . S
C550 C552 1.415 . S
C551 C550 1.355 . S
C551 C553 1.419 . S
C552 C550 1.415 . S
C552 C557 1.425 . S
C552 C559 1.409 . S
C553 H545 0.930 . S
C553 C551 1.419 . S
C553 C554 1.362 . S
C554 H546 0.930 . S
C554 C553 1.362 . S
C554 C557 1.409 . S
C555 H547 0.930 . S
C555 C556 1.355 . S
C555 C557 1.415 . S
C556 C555 1.355 . S
C556 C558 1.419 . S
C557 C552 1.425 . S
C557 C554 1.409 . S
C557 C555 1.415 . S
C558 H548 0.930 . S
C558 C556 1.419 . S
C558 C559 1.362 . S
C559 H549 0.930 . S
C559 C552 1.409 . S
C559 C558 1.362 . S
H560 C566 0.930 . S
H561 C569 0.930 . S
H562 C570 0.930 . S
H563 C571 0.930 . S
H564 C574 0.930 . S
H565 C575 0.930 . S
C566 H560 0.930 . S
C566 C567 1.355 . S
C566 C568 1.415 . S
C567 C566 1.355 . S
C567 C569 1.419 . S
C568 C566 1.415 . S
C568 C573 1.425 1_556 S
C568 C575 1.409 1_556 S
C569 H561 0.930 . S
C569 C567 1.419 . S
C569 C570 1.362 . S
C570 H562 0.930 . S
C570 C569 1.362 . S
C570 C573 1.409 1_556 S
C571 H563 0.930 . S
C571 C572 1.355 . S
C571 C573 1.415 . S
C572 C571 1.355 . S
C572 C574 1.419 . S
C573 C568 1.425 1_554 S
C573 C570 1.409 1_554 S
C573 C571 1.415 . S
C574 H564 0.930 . S
C574 C572 1.419 . S
C574 C575 1.362 . S
C575 H565 0.930 . S
C575 C568 1.409 1_554 S
C575 C574 1.362 . S
H576 C582 0.930 . S
H577 C585 0.930 . S
H578 C586 0.930 . S
H579 C587 0.930 . S
H580 C590 0.930 . S
H581 C591 0.930 . S
C582 H576 0.930 . S
C582 C583 1.355 . S
C582 C584 1.415 . S
C583 C582 1.355 . S
C583 C585 1.419 . S
C584 C582 1.415 . S
C584 C589 1.425 . S
C584 C591 1.409 . S
C585 H577 0.930 . S
C585 C583 1.419 . S
C585 C586 1.362 . S
C586 H578 0.930 . S
C586 C585 1.362 . S
C586 C589 1.409 . S
C587 H579 0.930 . S
C587 C588 1.355 . S
C587 C589 1.415 . S
C588 C587 1.355 . S
C588 C590 1.419 . S
C589 C584 1.425 . S
C589 C586 1.409 . S
C589 C587 1.415 . S
C590 H580 0.930 . S
C590 C588 1.419 . S
C590 C591 1.362 . S
C591 H581 0.930 . S
C591 C584 1.409 . S
C591 C590 1.362 . S
H592 C598 0.930 . S
H593 C601 0.930 . S
H594 C602 0.930 . S
H595 C603 0.930 . S
H596 C606 0.930 . S
H597 C607 0.930 . S
C598 H592 0.930 . S
C598 C599 1.355 . S
C598 C600 1.415 . S
C599 C598 1.355 . S
C599 C601 1.419 . S
C600 C598 1.415 . S
C600 C605 1.425 1_554 S
C600 C607 1.409 1_554 S
C601 H593 0.930 . S
C601 C599 1.419 . S
C601 C602 1.362 . S
C602 H594 0.930 . S
C602 C601 1.362 . S
C602 C605 1.409 1_554 S
C603 H595 0.930 . S
C603 C604 1.355 . S
C603 C605 1.415 . S
C604 C603 1.355 . S
C604 C606 1.419 . S
C605 C600 1.425 1_556 S
C605 C602 1.409 1_556 S
C605 C603 1.415 . S
C606 H596 0.930 . S
C606 C604 1.419 . S
C606 C607 1.362 . S
C607 H597 0.930 . S
C607 C600 1.409 1_556 S
C607 C606 1.362 . S
H608 C614 0.930 . S
H609 C617 0.930 . S
H610 C618 0.930 . S
H611 C619 0.930 . S
H612 C622 0.930 . S
H613 C623 0.930 . S
C614 H608 0.930 . S
C614 C615 1.355 . S
C614 C616 1.415 . S
C615 C614 1.355 . S
C615 C617 1.419 . S
C616 C614 1.415 . S
C616 C621 1.425 . S
C616 C623 1.409 . S
C617 H609 0.930 . S
C617 C615 1.419 . S
C617 C618 1.362 . S
C618 H610 0.930 . S
C618 C617 1.362 . S
C618 C621 1.409 . S
C619 H611 0.930 . S
C619 C620 1.355 . S
C619 C621 1.415 . S
C620 C619 1.355 . S
C620 C622 1.419 . S
C621 C616 1.425 . S
C621 C618 1.409 . S
C621 C619 1.415 . S
C622 H612 0.930 . S
C622 C620 1.419 . S
C622 C623 1.362 . S
C623 H613 0.930 . S
C623 C616 1.409 . S
C623 C622 1.362 . S
H624 C630 0.930 . S
H625 C633 0.930 . S
H626 C634 0.930 . S
H627 C635 0.930 . S
H628 C638 0.930 . S
H629 C639 0.930 . S
C630 H624 0.930 . S
C630 C631 1.355 . S
C630 C632 1.415 . S
C631 C630 1.355 . S
C631 C633 1.419 . S
C632 C630 1.415 . S
C632 C637 1.425 . S
C632 C639 1.409 . S
C633 H625 0.930 . S
C633 C631 1.419 . S
C633 C634 1.362 . S
C634 H626 0.930 . S
C634 C633 1.362 . S
C634 C637 1.409 . S
C635 H627 0.930 . S
C635 C636 1.355 . S
C635 C637 1.415 . S
C636 C635 1.355 . S
C636 C638 1.419 . S
C637 C632 1.425 . S
C637 C634 1.409 . S
C637 C635 1.415 . S
C638 H628 0.930 . S
C638 C636 1.419 . S
C638 C639 1.362 . S
C639 H629 0.930 . S
C639 C632 1.409 . S
C639 C638 1.362 . S
H640 C646 0.930 . S
H641 C649 0.930 . S
H642 C650 0.930 . S
H643 C651 0.930 . S
H644 C654 0.930 . S
H645 C655 0.930 . S
C646 H640 0.930 . S
C646 C647 1.355 . S
C646 C648 1.415 . S
C647 C646 1.355 . S
C647 C649 1.419 . S
C648 C646 1.415 . S
C648 C653 1.425 . S
C648 C655 1.409 . S
C649 H641 0.930 . S
C649 C647 1.419 . S
C649 C650 1.362 . S
C650 H642 0.930 . S
C650 C649 1.362 . S
C650 C653 1.409 . S
C651 H643 0.930 . S
C651 C652 1.355 . S
C651 C653 1.415 . S
C652 C651 1.355 . S
C652 C654 1.419 . S
C653 C648 1.425 . S
C653 C650 1.409 . S
C653 C651 1.415 . S
C654 H644 0.930 . S
C654 C652 1.419 . S
C654 C655 1.362 . S
C655 H645 0.930 . S
C655 C648 1.409 . S
C655 C654 1.362 . S
H656 C662 0.930 . S
H657 C665 0.930 . S
H658 C666 0.930 . S
H659 C667 0.930 . S
H660 C670 0.930 . S
H661 C671 0.930 . S
C662 H656 0.930 . S
C662 C663 1.355 . S
C662 C664 1.415 . S
C663 C662 1.355 . S
C663 C665 1.419 . S
C664 C662 1.415 . S
C664 C669 1.425 . S
C664 C671 1.409 . S
C665 H657 0.930 . S
C665 C663 1.419 . S
C665 C666 1.362 . S
C666 H658 0.930 . S
C666 C665 1.362 . S
C666 C669 1.409 . S
C667 H659 0.930 . S
C667 C668 1.355 . S
C667 C669 1.415 . S
C668 C667 1.355 . S
C668 C670 1.419 . S
C669 C664 1.425 . S
C669 C666 1.409 . S
C669 C667 1.415 . S
C670 H660 0.930 . S
C670 C668 1.419 . S
C670 C671 1.362 . S
C671 H661 0.930 . S
C671 C664 1.409 . S
C671 C670 1.362 . S
H672 C678 0.930 . S
H673 C681 0.930 . S
H674 C682 0.930 . S
H675 C683 0.930 . S
H676 C686 0.930 . S
H677 C687 0.930 . S
C678 H672 0.930 . S
C678 C679 1.355 . S
C678 C680 1.415 . S
C679 C678 1.355 . S
C679 C681 1.419 . S
C680 C678 1.415 . S
C680 C685 1.425 . S
C680 C687 1.409 . S
C681 H673 0.930 . S
C681 C679 1.419 . S
C681 C682 1.362 . S
C682 H674 0.930 . S
C682 C681 1.362 . S
C682 C685 1.409 . S
C683 H675 0.930 . S
C683 C684 1.355 . S
C683 C685 1.415 . S
C684 C683 1.355 . S
C684 C686 1.419 . S
C685 C680 1.425 . S
C685 C682 1.409 . S
C685 C683 1.415 . S
C686 H676 0.930 . S
C686 C684 1.419 . S
C686 C687 1.362 . S
C687 H677 0.930 . S
C687 C680 1.409 . S
C687 C686 1.362 . S
H688 C694 0.930 . S
H689 C697 0.930 . S
H690 C698 0.930 . S
H691 C699 0.930 . S
H692 C702 0.930 . S
H693 C703 0.930 . S
C694 H688 0.930 . S
C694 C695 1.355 . S
C694 C696 1.415 . S
C695 C694 1.355 . S
C695 C697 1.419 . S
C696 C694 1.415 . S
C696 C701 1.425 . S
C696 C703 1.409 . S
C697 H689 0.930 . S
C697 C695 1.419 . S
C697 C698 1.362 . S
C698 H690 0.930 . S
C698 C697 1.362 . S
C698 C701 1.409 . S
C699 H691 0.930 . S
C699 C700 1.355 . S
C699 C701 1.415 . S
C700 C699 1.355 . S
C700 C702 1.419 . S
C701 C696 1.425 . S
C701 C698 1.409 . S
C701 C699 1.415 . S
C702 H692 0.930 . S
C702 C700 1.419 . S
C702 C703 1.362 . S
C703 H693 0.930 . S
C703 C696 1.409 . S
C703 C702 1.362 . S
H704 C710 0.930 . S
H705 C713 0.930 . S
H706 C714 0.930 . S
H707 C715 0.930 . S
H708 C718 0.930 . S
H709 C719 0.930 . S
C710 H704 0.930 . S
C710 C711 1.355 . S
C710 C712 1.415 . S
C711 C710 1.355 . S
C711 C713 1.419 . S
C712 C710 1.415 . S
C712 C717 1.425 . S
C712 C719 1.409 . S
C713 H705 0.930 . S
C713 C711 1.419 . S
C713 C714 1.362 . S
C714 H706 0.930 . S
C714 C713 1.362 . S
C714 C717 1.409 . S
C715 H707 0.930 . S
C715 C716 1.355 . S
C715 C717 1.415 . S
C716 C715 1.355 . S
C716 C718 1.419 . S
C717 C712 1.425 . S
C717 C714 1.409 . S
C717 C715 1.415 . S
C718 H708 0.930 . S
C718 C716 1.419 . S
C718 C719 1.362 . S
C719 H709 0.930 . S
C719 C712 1.409 . S
C719 C718 1.362 . S
H720 C726 0.930 . S
H721 C729 0.930 . S
H722 C730 0.930 . S
H723 C731 0.930 . S
H724 C734 0.930 . S
H725 C735 0.930 . S
C726 H720 0.930 . S
C726 C727 1.355 . S
C726 C728 1.415 . S
C727 C726 1.355 . S
C727 C729 1.419 . S
C728 C726 1.415 . S
C728 C733 1.425 . S
C728 C735 1.409 . S
C729 H721 0.930 . S
C729 C727 1.419 . S
C729 C730 1.362 . S
C730 H722 0.930 . S
C730 C729 1.362 . S
C730 C733 1.409 . S
C731 H723 0.930 . S
C731 C732 1.355 . S
C731 C733 1.415 . S
C732 C731 1.355 . S
C732 C734 1.419 . S
C733 C728 1.425 . S
C733 C730 1.409 . S
C733 C731 1.415 . S
C734 H724 0.930 . S
C734 C732 1.419 . S
C734 C735 1.362 . S
C735 H725 0.930 . S
C735 C728 1.409 . S
C735 C734 1.362 . S
C231 C9 1.402 . S
C236 C37 1.401 . S
C247 C51 1.400 . S
C252 C23 1.400 . S
C263 C65 1.396 . S
C268 C93 1.396 . S
C279 C107 1.383 . S
C284 C79 1.381 . S
C295 C121 1.392 . S
C300 C149 1.391 . S
C311 C163 1.362 . S
C316 C135 1.360 . S
C327 C177 1.335 . S
C332 C205 1.335 . S
C343 C219 1.365 . S
C348 C191 1.366 . S
C359 C59 1.391 . S
C364 C3 1.365 . S
C375 C17 1.323 . S
C380 C73 1.350 . S
C391 C31 1.302 . S
C396 C87 1.313 . S
C407 C101 1.404 . S
C412 C45 1.388 . S
C423 C115 1.317 . S
C428 C171 1.303 . S
C439 C129 1.402 . S
C444 C185 1.406 . S
C455 C143 1.307 . S
C460 C199 1.302 . S
C471 C157 1.362 . S
C476 C213 1.388 . S
C487 C147 1.313 . S
C492 C7 1.296 . S
C503 C161 1.306 . S
C508 C21 1.302 . S
C519 C35 1.320 . S
C524 C119 1.289 . S
C535 C49 1.282 . S
C540 C133 1.327 . S
C551 C63 1.325 . S
C556 C203 1.284 . S
C567 C77 1.313 . S
C572 C217 1.295 . S
C583 C91 1.329 . S
C588 C175 1.280 . S
C599 C189 1.289 . S
C604 C105 1.320 . S
C615 C8 1.400 . S
C620 C218 1.395 . S
C631 C176 1.394 . S
C636 C22 1.401 . S
C647 C36 1.401 . S
C652 C190 1.394 . S
C663 C204 1.395 . S
C668 C50 1.400 . S
C679 C134 1.397 . S
C684 C64 1.398 . S
C695 C78 1.394 . S
C700 C148 1.401 . S
C711 C162 1.397 . S
C716 C92 1.398 . S
C727 C120 1.398 . S
C732 C106 1.397 . S
