# Generated by pormake.
# Topology est, (5)-cn, num edge types: 1
# Building blocks:
#     Node 0, Type 0, BuildingBlock: XOMCOT_clean_sbu_0, # of connection points: 5
#     Node 1, Type 0, BuildingBlock: XOMCOT_clean_sbu_0, # of connection points: 5
#     Node 2, Type 0, BuildingBlock: XOMCOT_clean_sbu_0, # of connection points: 5
#     Node 3, Type 0, BuildingBlock: XOMCOT_clean_sbu_0, # of connection points: 5
#     Edge 4, Type (0, 0), BuildingBlock: XUDNAN_clean_linker_2, # of connection points: 2
#     Edge 5, Type (0, 0), BuildingBlock: XUDNAN_clean_linker_2, # of connection points: 2
#     Edge 6, Type (0, 0), BuildingBlock: XUDNAN_clean_linker_2, # of connection points: 2
#     Edge 7, Type (0, 0), BuildingBlock: XUDNAN_clean_linker_2, # of connection points: 2
#     Edge 8, Type (0, 0), BuildingBlock: XUDNAN_clean_linker_2, # of connection points: 2
#     Edge 9, Type (0, 0), BuildingBlock: XUDNAN_clean_linker_2, # of connection points: 2
#     Edge 10, Type (0, 0), BuildingBlock: XUDNAN_clean_linker_2, # of connection points: 2
#     Edge 11, Type (0, 0), BuildingBlock: XUDNAN_clean_linker_2, # of connection points: 2
#     Edge 12, Type (0, 0), BuildingBlock: XUDNAN_clean_linker_2, # of connection points: 2
#     Edge 13, Type (0, 0), BuildingBlock: XUDNAN_clean_linker_2, # of connection points: 2
# Relax obj value: 0.176
# Max RMSD: 0.239
# Mean RMSD: 0.239
data_MOF--net-est--node1-XOMCOT_clean_sbu_0--edge1-XUDNAN_clean_linker_2
_symmetry_space_group_name_H-M    P1
_symmetry_Int_Tables_number       1
_symmetry_cell_setting            triclinic
loop_
_symmetry_equiv_pos_as_xyz
'x, y, z'
_cell_length_a     17.020259
_cell_length_b     17.04755
_cell_length_c     53.471746
_cell_angle_alpha  89.863686
_cell_angle_beta   91.627578
_cell_angle_gamma 90.073356
loop_
_atom_site_label
_atom_site_type_symbol
_atom_site_fract_x
_atom_site_fract_y
_atom_site_fract_z
_atom_type_partial_charge
Co0 Co 0.27133 0.1957 0.58202 0.0
C1 C 0.10007 0.22978 0.58282 0.0
C2 C 0.16105 0.31008 0.55957 0.0
C3 C 0.08192 0.31748 0.55448 0.0
N4 N 0.17345 0.25542 0.57762 0.0
N5 N 0.04357 0.26578 0.56876 0.0
H6 H 0.08832 0.17847 0.59397 0.0
H7 H 0.20585 0.33574 0.54825 0.0
C8 C 0.33444 0.35922 0.5753 0.0
O9 O 0.28742 0.38537 0.59248 0.0
N10 N 0.36777 0.1363 0.58494 0.0
C11 C 0.39101 0.08653 0.60329 0.0
C12 C 0.47001 0.07076 0.60071 0.0
C13 C 0.43175 0.14842 0.57117 0.0
N14 N 0.49547 0.11023 0.58054 0.0
C15 C 0.2271 0.20619 0.63288 0.0
C16 C 0.36974 0.25892 0.6524 0.0
C17 C 0.31219 0.23295 0.66874 0.0
C18 C 0.23953 0.20868 0.65872 0.0
C19 C 0.35489 0.25533 0.62644 0.0
N20 N 0.28463 0.22753 0.61696 0.0
H21 H 0.1731 0.18092 0.62585 0.0
H22 H 0.40199 0.26931 0.61403 0.0
H23 H 0.35462 0.06742 0.61842 0.0
H24 H 0.433 0.18901 0.55563 0.0
O25 O 0.21141 0.10188 0.5872 0.0
O26 O 0.24618 0.14651 0.55015 0.0
O27 O 0.33429 0.28683 0.56946 0.0
C28 C 0.20597 0.09602 0.56297 0.0
H29 H 0.05547 0.35311 0.53974 0.0
H30 H 0.50647 0.0358 0.61333 0.0
H31 H 0.42722 0.27666 0.65955 0.0
H32 H 0.19412 0.1872 0.67079 0.0
Co33 Co 0.79946 0.78775 0.07664 0.0
C34 C 0.7604 0.62723 0.08815 0.0
C35 C 0.70492 0.66226 0.0535 0.0
C36 C 0.70365 0.58166 0.05495 0.0
N37 N 0.74101 0.69079 0.07434 0.0
N38 N 0.74015 0.55961 0.07659 0.0
H39 H 0.7971 0.63058 0.1049 0.0
H40 H 0.68917 0.69682 0.03713 0.0
C41 C 0.62841 0.83562 0.07014 0.0
O42 O 0.60286 0.76742 0.078 0.0
N43 N 0.86096 0.88308 0.07902 0.0
C44 C 0.93973 0.88938 0.08206 0.0
C45 C 0.95932 0.96753 0.08416 0.0
C46 C 0.83393 0.95732 0.07932 0.0
N47 N 0.89262 0.00988 0.08236 0.0
C48 C 0.86174 0.76602 0.12627 0.0
C49 C 0.72461 0.78868 0.15171 0.0
C50 C 0.79228 0.76505 0.16527 0.0
C51 C 0.86188 0.75531 0.1522 0.0
C52 C 0.72699 0.79877 0.12573 0.0
N53 N 0.7945 0.78544 0.11316 0.0
H54 H 0.91576 0.75671 0.11663 0.0
H55 H 0.67381 0.81602 0.11609 0.0
H56 H 0.98044 0.84081 0.08308 0.0
H57 H 0.77249 0.97312 0.07816 0.0
O58 O 0.8934 0.72519 0.07204 0.0
O59 O 0.82182 0.78057 0.04162 0.0
O60 O 0.7014 0.85312 0.07161 0.0
C61 C 0.88055 0.73581 0.04813 0.0
H62 H 0.68562 0.54271 0.0399 0.0
H63 H 0.01797 0.99128 0.0868 0.0
H64 H 0.66941 0.79702 0.16092 0.0
H65 H 0.91621 0.73897 0.16187 0.0
Co66 Co 0.71573 0.7901 0.43536 0.0
C67 C 0.87459 0.74397 0.42515 0.0
C68 C 0.84383 0.70544 0.46167 0.0
C69 C 0.92442 0.70385 0.46014 0.0
N70 N 0.81229 0.73072 0.43964 0.0
N71 N 0.94379 0.72986 0.43729 0.0
H72 H 0.86942 0.77333 0.40725 0.0
H73 H 0.81159 0.69861 0.47868 0.0
C74 C 0.65756 0.62938 0.4523 0.0
O75 O 0.7263 0.59502 0.45132 0.0
N76 N 0.6207 0.852 0.43087 0.0
C77 C 0.61244 0.9308 0.43127 0.0
C78 C 0.5338 0.94899 0.428 0.0
C79 C 0.54726 0.82378 0.42707 0.0
N80 N 0.49331 0.88138 0.42564 0.0
C81 C 0.72014 0.83185 0.38383 0.0
C82 C 0.72009 0.68111 0.36486 0.0
C83 C 0.72837 0.74452 0.34825 0.0
C84 C 0.72719 0.82075 0.35811 0.0
C85 C 0.71335 0.69483 0.39052 0.0
N86 N 0.71431 0.76945 0.39968 0.0
H87 H 0.72168 0.89079 0.39122 0.0
H88 H 0.70995 0.64538 0.40306 0.0
H89 H 0.65972 0.97256 0.43399 0.0
H90 H 0.53284 0.76233 0.42508 0.0
O91 O 0.78117 0.8838 0.43672 0.0
O92 O 0.72669 0.82615 0.46919 0.0
O93 O 0.64631 0.6975 0.44289 0.0
C94 C 0.7727 0.88054 0.46088 0.0
H95 H 0.96539 0.69397 0.47568 0.0
H96 H 0.50818 0.00707 0.42809 0.0
H97 H 0.71975 0.62122 0.35817 0.0
H98 H 0.7346 0.87158 0.34622 0.0
Co99 Co 0.18846 0.25579 0.93137 0.0
C100 C 0.22371 0.42594 0.93329 0.0
C101 C 0.27761 0.36374 0.964 0.0
C102 C 0.27911 0.44257 0.96938 0.0
N103 N 0.24284 0.35251 0.94127 0.0
N104 N 0.24397 0.48159 0.95023 0.0
H105 H 0.18558 0.43803 0.91727 0.0
H106 H 0.29132 0.31791 0.97739 0.0
C107 C 0.34121 0.18823 0.95429 0.0
O108 O 0.38723 0.23662 0.94234 0.0
N109 N 0.13357 0.15984 0.92242 0.0
C110 C 0.10422 0.13876 0.89975 0.0
C111 C 0.08827 0.05922 0.90008 0.0
C112 C 0.13327 0.09364 0.93631 0.0
N113 N 0.10695 0.03103 0.9231 0.0
C114 C 0.22841 0.3052 0.88217 0.0
C115 C 0.31933 0.17716 0.87051 0.0
C116 C 0.30036 0.23168 0.85147 0.0
C117 C 0.2553 0.29714 0.85787 0.0
C118 C 0.28987 0.18668 0.8945 0.0
N119 N 0.245 0.25027 0.90016 0.0
H120 H 0.18968 0.35329 0.88592 0.0
H121 H 0.29952 0.1403 0.90799 0.0
H122 H 0.09996 0.17714 0.88363 0.0
H123 H 0.15747 0.09008 0.95518 0.0
O124 O 0.09902 0.31797 0.92025 0.0
O125 O 0.11941 0.27211 0.95867 0.0
O126 O 0.26698 0.19008 0.95064 0.0
C127 C 0.07843 0.31692 0.94355 0.0
H128 H 0.29794 0.46827 0.98705 0.0
H129 H 0.06781 0.02432 0.88431 0.0
H130 H 0.35437 0.12579 0.86679 0.0
H131 H 0.2366 0.3399 0.84396 0.0
H132 H 0.94974 0.2008 0.60361 0.0
H133 H 0.95514 0.27052 0.52558 0.0
H134 H 0.81784 0.22763 0.51945 0.0
H135 H 0.8249 0.02653 0.59329 0.0
H136 H 0.77289 0.04073 0.62184 0.0
H137 H 0.87352 0.07272 0.61979 0.0
H138 H 0.83291 0.21342 0.6325 0.0
H139 H 0.73244 0.18177 0.63465 0.0
H140 H 0.75643 0.26311 0.61465 0.0
H141 H 0.67772 0.18494 0.52226 0.0
H142 H 0.54393 0.14695 0.53406 0.0
H143 H 0.62859 0.1037 0.61015 0.0
C144 C 0.92218 0.20635 0.58521 0.0
C145 C 0.96311 0.24017 0.56522 0.0
C146 C 0.92476 0.2467 0.54139 0.0
C147 C 0.84692 0.22155 0.53762 0.0
C148 C 0.80806 0.18938 0.55778 0.0
C149 C 0.84433 0.1815 0.5811 0.0
C150 C 0.78817 0.14786 0.59985 0.0
C151 C 0.81657 0.06716 0.60925 0.0
C152 C 0.77682 0.20496 0.62169 0.0
C153 C 0.71403 0.14046 0.58361 0.0
C154 C 0.72716 0.16382 0.55933 0.0
C155 C 0.66691 0.16575 0.54116 0.0
C156 C 0.59096 0.14446 0.54808 0.0
C157 C 0.57546 0.1221 0.57303 0.0
C158 C 0.63849 0.11885 0.59084 0.0
H159 H 0.68462 0.41991 0.05896 0.0
H160 H 0.86746 0.52303 0.10695 0.0
H161 H 0.92529 0.39321 0.11383 0.0
H162 H 0.66324 0.24011 0.09271 0.0
H163 H 0.65256 0.17895 0.06546 0.0
H164 H 0.62042 0.27962 0.06414 0.0
H165 H 0.70718 0.30766 0.02683 0.0
H166 H 0.74361 0.20851 0.02682 0.0
H167 H 0.81132 0.28884 0.02922 0.0
H168 H 0.96771 0.25233 0.11414 0.0
H169 H 0.98624 0.10939 0.1093 0.0
H170 H 0.77995 0.09972 0.05984 0.0
C171 C 0.7365 0.41546 0.07104 0.0
C172 C 0.77044 0.48248 0.08248 0.0
C173 C 0.83846 0.47329 0.09827 0.0
C174 C 0.87264 0.39947 0.10218 0.0
C175 C 0.83852 0.33525 0.09015 0.0
C176 C 0.77178 0.3424 0.07501 0.0
C177 C 0.74825 0.26454 0.06361 0.0
C178 C 0.66623 0.23938 0.07196 0.0
C179 C 0.75273 0.26765 0.03493 0.0
C180 C 0.81167 0.2124 0.07493 0.0
C181 C 0.86352 0.25432 0.09006 0.0
C182 C 0.9274 0.21875 0.10236 0.0
C183 C 0.93777 0.13776 0.09938 0.0
C184 C 0.88433 0.09351 0.08431 0.0
C185 C 0.82103 0.13179 0.07179 0.0
H186 H 0.40832 0.76917 0.44829 0.0
H187 H 0.38921 0.97133 0.39927 0.0
H188 H 0.24497 0.95119 0.39545 0.0
H189 H 0.26227 0.64884 0.41817 0.0
H190 H 0.22474 0.6105 0.44693 0.0
H191 H 0.32602 0.64056 0.44557 0.0
H192 H 0.30737 0.73526 0.48279 0.0
H193 H 0.20639 0.70461 0.48448 0.0
H194 H 0.22981 0.80715 0.48105 0.0
H195 H 0.10399 0.90734 0.39677 0.0
H196 H 0.97488 0.85129 0.4056 0.0
H197 H 0.08641 0.67696 0.45414 0.0
C198 C 0.37379 0.8087 0.43658 0.0
C199 C 0.40955 0.87124 0.42379 0.0
C200 C 0.36249 0.92316 0.40917 0.0
C201 C 0.28088 0.91187 0.40683 0.0
C202 C 0.24759 0.84899 0.41951 0.0
C203 C 0.29246 0.7989 0.43436 0.0
C204 C 0.24213 0.7378 0.44686 0.0
C205 C 0.26517 0.6545 0.43889 0.0
C206 C 0.2467 0.74678 0.47549 0.0
C207 C 0.16182 0.76039 0.43635 0.0
C208 C 0.16633 0.8245 0.42058 0.0
C209 C 0.09977 0.85682 0.40895 0.0
C210 C 0.02645 0.82375 0.41394 0.0
C211 C 0.02002 0.7587 0.43041 0.0
C212 C 0.08912 0.7265 0.44151 0.0
H213 H 0.1401 0.90382 0.89443 0.0
H214 H 0.08724 0.97482 0.96991 0.0
H215 H 0.1089 0.83881 0.98464 0.0
H216 H 0.05151 0.70471 0.89779 0.0
H217 H 0.12744 0.66182 0.87941 0.0
H218 H 0.09929 0.76267 0.8744 0.0
H219 H 0.24422 0.80549 0.8819 0.0
H220 H 0.27257 0.70502 0.88719 0.0
H221 H 0.29494 0.77806 0.91066 0.0
H222 H 0.14597 0.69781 0.99174 0.0
H223 H 0.19525 0.56197 0.9907 0.0
H224 H 0.22518 0.58128 0.91068 0.0
C225 C 0.13102 0.89031 0.91391 0.0
C226 C 0.11143 0.95 0.93101 0.0
C227 C 0.10239 0.93019 0.95652 0.0
C228 C 0.11427 0.85303 0.96503 0.0
C229 C 0.13526 0.79604 0.9478 0.0
C230 C 0.14316 0.81354 0.92275 0.0
C231 C 0.17104 0.74246 0.90844 0.0
C232 C 0.10858 0.71638 0.88885 0.0
C233 C 0.2504 0.75877 0.89634 0.0
C234 C 0.17952 0.6829 0.92946 0.0
C235 C 0.1578 0.71487 0.95196 0.0
C236 C 0.16308 0.67224 0.9742 0.0
C237 C 0.19189 0.59526 0.97347 0.0
C238 C 0.21513 0.56125 0.95066 0.0
C239 C 0.20778 0.60568 0.92835 0.0
H240 H 0.33045 0.34 0.8139 0.0
H241 H 0.31136 0.08924 0.82766 0.0
H242 H 0.33065 0.06408 0.78315 0.0
H243 H 0.21572 0.33849 0.75869 0.0
H244 H 0.271 0.41288 0.74284 0.0
H245 H 0.26917 0.41191 0.77647 0.0
H246 H 0.42128 0.40682 0.77881 0.0
H247 H 0.4236 0.4078 0.74513 0.0
H248 H 0.47193 0.33026 0.76259 0.0
H249 H 0.33613 0.06483 0.73689 0.0
H250 H 0.32497 0.09242 0.69157 0.0
H251 H 0.33465 0.34204 0.7064 0.0
C252 C 0.33102 0.27963 0.80772 0.0
C253 C 0.32023 0.21674 0.82476 0.0
C254 C 0.32177 0.13878 0.81551 0.0
C255 C 0.33214 0.12368 0.79006 0.0
C256 C 0.34072 0.18694 0.77385 0.0
C257 C 0.34031 0.26343 0.78225 0.0
C258 C 0.34341 0.32082 0.76049 0.0
C259 C 0.27048 0.37414 0.75958 0.0
C260 C 0.4196 0.36929 0.76184 0.0
C261 C 0.34312 0.26452 0.73853 0.0
C262 C 0.34277 0.18754 0.74678 0.0
C263 C 0.33761 0.12476 0.73021 0.0
C264 C 0.33126 0.14091 0.70454 0.0
C265 C 0.32996 0.21912 0.69564 0.0
C266 C 0.33726 0.28177 0.7128 0.0
H267 H 0.71324 0.84588 0.20163 0.0
H268 H 0.86548 0.64521 0.191 0.0
H269 H 0.86306 0.61663 0.23619 0.0
H270 H 0.79714 0.90682 0.26043 0.0
H271 H 0.70469 0.93486 0.27338 0.0
H272 H 0.71727 0.93914 0.24007 0.0
H273 H 0.59582 0.84918 0.23312 0.0
H274 H 0.58283 0.84468 0.26642 0.0
H275 H 0.59256 0.75547 0.24875 0.0
H276 H 0.84607 0.61073 0.28268 0.0
H277 H 0.81758 0.62936 0.32721 0.0
H278 H 0.67251 0.83106 0.3077 0.0
C279 C 0.74552 0.7955 0.20873 0.0
C280 C 0.79 0.74814 0.19265 0.0
C281 C 0.83211 0.68331 0.2029 0.0
C282 C 0.8306 0.66614 0.22855 0.0
C283 C 0.78648 0.7141 0.24384 0.0
C284 C 0.74464 0.77742 0.23434 0.0
C285 C 0.70281 0.82023 0.25494 0.0
C286 C 0.73227 0.9053 0.25734 0.0
C287 C 0.61319 0.81718 0.25054 0.0
C288 C 0.72824 0.77144 0.27751 0.0
C289 C 0.77619 0.71031 0.27065 0.0
C290 C 0.80805 0.65804 0.28824 0.0
C291 C 0.79097 0.6688 0.31353 0.0
C292 C 0.74232 0.7314 0.32112 0.0
C293 C 0.71033 0.78294 0.30267 0.0
H294 H 0.46781 0.33023 0.54946 0.0
H295 H 0.29627 0.51126 0.56418 0.0
H296 H 0.35713 0.59669 0.53268 0.0
H297 H 0.63303 0.46323 0.541 0.0
H298 H 0.67462 0.40437 0.51675 0.0
H299 H 0.61808 0.35848 0.5407 0.0
H300 H 0.52707 0.29665 0.50663 0.0
H301 H 0.58227 0.34335 0.48249 0.0
H302 H 0.47774 0.35896 0.48387 0.0
H303 H 0.43062 0.65844 0.49807 0.0
H304 H 0.52405 0.70256 0.46694 0.0
H305 H 0.65247 0.48351 0.47524 0.0
C306 C 0.44359 0.38819 0.54622 0.0
C307 C 0.37721 0.41425 0.5592 0.0
C308 C 0.34746 0.49053 0.55461 0.0
C309 C 0.3812 0.53908 0.5366 0.0
C310 C 0.44524 0.51077 0.52366 0.0
C311 C 0.47728 0.43782 0.52859 0.0
C312 C 0.5475 0.42236 0.51243 0.0
C313 C 0.62276 0.41152 0.52869 0.0
C314 C 0.5327 0.35111 0.49534 0.0
C315 C 0.5496 0.49805 0.49747 0.0
C316 C 0.48934 0.54755 0.50408 0.0
C317 C 0.4782 0.62039 0.49281 0.0
C318 C 0.53141 0.64457 0.47487 0.0
C319 C 0.59566 0.59645 0.46835 0.0
C320 C 0.60394 0.5216 0.47964 0.0
H321 H 0.49634 0.14745 0.9653 0.0
H322 H 0.25657 0.10614 0.98798 0.0
H323 H 0.3043 0.01585 0.02067 0.0
H324 H 0.56319 0.94752 0.97541 0.0
H325 H 0.65932 0.97638 0.98707 0.0
H326 H 0.60639 0.0381 0.96503 0.0
H327 H 0.62214 0.15335 0.99575 0.0
H328 H 0.67115 0.09197 0.01885 0.0
H329 H 0.5837 0.14526 0.02669 0.0
H330 H 0.37596 0.92716 0.05037 0.0
H331 H 0.46928 0.84509 0.07515 0.0
H332 H 0.66316 0.94624 0.035 0.0
C333 C 0.45401 0.11944 0.97715 0.0
C334 C 0.3726 0.13376 0.9738 0.0
C335 C 0.31916 0.09569 0.98978 0.0
C336 C 0.34563 0.04438 0.00861 0.0
C337 C 0.4259 0.03145 0.01141 0.0
C338 C 0.47945 0.0675 0.99614 0.0
C339 C 0.56252 0.04213 1.00314 0.0
C340 C 0.60005 0.99843 0.98137 0.0
C341 C 0.61286 0.11245 0.01161 0.0
C342 C 0.54702 0.98718 0.02482 0.0
C343 C 0.46768 0.98148 0.02913 0.0
C344 C 0.43841 0.93156 0.04736 0.0
C345 C 0.49174 0.8853 0.06135 0.0
C346 C 0.57333 0.8901 0.05724 0.0
C347 C 0.60118 0.94256 0.03894 0.0
H348 H 0.91364 0.95363 0.45221 0.0
H349 H 0.74641 0.90424 0.51003 0.0
H350 H 0.84185 0.95087 0.54213 0.0
H351 H 0.08084 0.89036 0.48473 0.0
H352 H 0.14639 0.96635 0.47449 0.0
H353 H 0.06286 0.93855 0.45511 0.0
H354 H 0.0117 0.08112 0.45397 0.0
H355 H 0.09647 0.11081 0.47258 0.0
H356 H 0.99911 0.13297 0.48294 0.0
H357 H 0.95938 0.98322 0.56811 0.0
H358 H 0.08457 0.02835 0.58687 0.0
H359 H 0.1758 0.06678 0.51275 0.0
C360 C 0.89627 0.95528 0.47153 0.0
C361 C 0.8226 0.92556 0.47868 0.0
C362 C 0.80253 0.92683 0.50419 0.0
C363 C 0.85647 0.95274 0.52257 0.0
C364 C 0.93006 0.97763 0.5151 0.0
C365 C 0.94954 0.98139 0.49021 0.0
C366 C 0.03352 0.00972 0.48754 0.0
C367 C 0.08389 0.94751 0.47473 0.0
C368 C 0.03528 0.08835 0.47343 0.0
C369 C 0.05833 0.01964 0.51483 0.0
C370 C 0.9978 0.99969 0.53031 0.0
C371 C 0.0069 0.00031 0.55622 0.0
C372 C 0.07878 0.02529 0.56667 0.0
C373 C 0.14009 0.05148 0.55129 0.0
C374 C 0.13015 0.04699 0.52498 0.0
H375 H 0.94444 0.59029 0.05436 0.0
H376 H 0.8986 0.77198 0.99897 0.0
H377 H 0.93903 0.68177 0.96553 0.0
H378 H 0.11448 0.50159 0.02399 0.0
H379 H 0.08619 0.40363 0.03274 0.0
H380 H 0.06151 0.48543 0.05225 0.0
H381 H 0.91528 0.44474 0.04928 0.0
H382 H 0.93905 0.36353 0.02949 0.0
H383 H 0.8669 0.43476 0.01906 0.0
H384 H 0.97484 0.56855 0.93797 0.0
H385 H 0.01956 0.44561 0.9187 0.0
H386 H 0.03743 0.337 0.99216 0.0
C387 C 0.94538 0.61181 0.03529 0.0
C388 C 0.91952 0.68826 0.02919 0.0
C389 C 0.91896 0.71368 1.00396 0.0
C390 C 0.94126 0.66276 0.98487 0.0
C391 C 0.96303 0.58648 0.99136 0.0
C392 C 0.96637 0.56141 0.01598 0.0
C393 C 0.98909 0.47576 0.01787 0.0
C394 C 0.06749 0.46606 0.03257 0.0
C395 C 0.92362 0.42683 0.0296 0.0
C396 C 0.99735 0.45638 0.99046 0.0
C397 C 0.98193 0.52094 0.97546 0.0
C398 C 0.98689 0.5175 0.94951 0.0
C399 C 0.01139 0.44704 0.9387 0.0
C400 C 0.03121 0.38129 0.95387 0.0
C401 C 0.02166 0.38572 0.98 0.0
loop_
_geom_bond_atom_site_label_1
_geom_bond_atom_site_label_2
_geom_bond_distance
_geom_bond_site_symmetry_2
_ccdc_geom_bond_type
Co0 N4 2.148 . S
Co0 N10 2.128 . S
Co0 N20 2.194 . S
Co0 O25 2.351 . S
Co0 O26 2.155 . S
Co0 O27 2.096 . S
C1 N4 1.301 . S
C1 N5 1.328 . S
C1 H6 0.930 . S
C2 C3 1.333 . S
C2 N4 1.317 . S
C2 H7 0.930 . S
C3 C2 1.333 . S
C3 N5 1.350 . S
C3 H29 0.931 . S
N4 Co0 2.148 . S
N4 C1 1.301 . S
N4 C2 1.317 . S
N5 C1 1.328 . S
N5 C3 1.350 . S
H6 C1 0.930 . S
H7 C2 0.930 . S
C8 O9 1.224 . S
C8 O27 1.247 . S
O9 C8 1.224 . S
N10 Co0 2.128 . S
N10 C11 1.355 . S
N10 C13 1.311 . S
C11 N10 1.355 . S
C11 C12 1.363 . S
C11 H23 0.929 . S
C12 C11 1.363 . S
C12 N14 1.375 . S
C12 H30 0.931 . S
C13 N10 1.311 . S
C13 N14 1.347 . S
C13 H24 0.929 . S
N14 C12 1.375 . S
N14 C13 1.347 . S
C15 C18 1.365 . S
C15 N20 1.328 . S
C15 H21 0.929 . S
C16 C17 1.362 . S
C16 C19 1.378 . S
C16 H31 0.929 . S
C17 C16 1.362 . S
C17 C18 1.366 . S
C18 C15 1.365 . S
C18 C17 1.366 . S
C18 H32 0.930 . S
C19 C16 1.378 . S
C19 N20 1.315 . S
C19 H22 0.930 . S
N20 Co0 2.194 . S
N20 C15 1.328 . S
N20 C19 1.315 . S
H21 C15 0.929 . S
H22 C19 0.930 . S
H23 C11 0.929 . S
H24 C13 0.929 . S
O25 Co0 2.351 . S
O25 C28 1.244 . S
O26 Co0 2.155 . S
O26 C28 1.240 . S
O27 Co0 2.096 . S
O27 C8 1.247 . S
C28 O25 1.244 . S
C28 O26 1.240 . S
H29 C3 0.931 . S
H30 C12 0.931 . S
H31 C16 0.929 . S
H32 C18 0.930 . S
Co33 N37 2.148 . S
Co33 N43 2.128 . S
Co33 N53 2.194 . S
Co33 O58 2.351 . S
Co33 O59 2.155 . S
Co33 O60 2.096 . S
C34 N37 1.301 . S
C34 N38 1.328 . S
C34 H39 0.930 . S
C35 C36 1.333 . S
C35 N37 1.317 . S
C35 H40 0.930 . S
C36 C35 1.333 . S
C36 N38 1.350 . S
C36 H62 0.931 . S
N37 Co33 2.148 . S
N37 C34 1.301 . S
N37 C35 1.317 . S
N38 C34 1.328 . S
N38 C36 1.350 . S
H39 C34 0.930 . S
H40 C35 0.930 . S
C41 O42 1.224 . S
C41 O60 1.247 . S
O42 C41 1.224 . S
N43 Co33 2.128 . S
N43 C44 1.355 . S
N43 C46 1.311 . S
C44 N43 1.355 . S
C44 C45 1.363 . S
C44 H56 0.929 . S
C45 C44 1.363 . S
C45 N47 1.375 . S
C45 H63 0.931 . S
C46 N43 1.311 . S
C46 N47 1.347 . S
C46 H57 0.929 . S
N47 C45 1.375 . S
N47 C46 1.347 . S
C48 C51 1.365 . S
C48 N53 1.328 . S
C48 H54 0.929 . S
C49 C50 1.362 . S
C49 C52 1.378 . S
C49 H64 0.929 . S
C50 C49 1.362 . S
C50 C51 1.366 . S
C51 C48 1.365 . S
C51 C50 1.366 . S
C51 H65 0.930 . S
C52 C49 1.378 . S
C52 N53 1.315 . S
C52 H55 0.930 . S
N53 Co33 2.194 . S
N53 C48 1.328 . S
N53 C52 1.315 . S
H54 C48 0.929 . S
H55 C52 0.930 . S
H56 C44 0.929 . S
H57 C46 0.929 . S
O58 Co33 2.351 . S
O58 C61 1.244 . S
O59 Co33 2.155 . S
O59 C61 1.240 . S
O60 Co33 2.096 . S
O60 C41 1.247 . S
C61 O58 1.244 . S
C61 O59 1.240 . S
H62 C36 0.931 . S
H63 C45 0.931 . S
H64 C49 0.929 . S
H65 C51 0.930 . S
Co66 N70 2.148 . S
Co66 N76 2.128 . S
Co66 N86 2.194 . S
Co66 O91 2.351 . S
Co66 O92 2.155 . S
Co66 O93 2.096 . S
C67 N70 1.301 . S
C67 N71 1.328 . S
C67 H72 0.930 . S
C68 C69 1.333 . S
C68 N70 1.317 . S
C68 H73 0.930 . S
C69 C68 1.333 . S
C69 N71 1.350 . S
C69 H95 0.931 . S
N70 Co66 2.148 . S
N70 C67 1.301 . S
N70 C68 1.317 . S
N71 C67 1.328 . S
N71 C69 1.350 . S
H72 C67 0.930 . S
H73 C68 0.930 . S
C74 O75 1.224 . S
C74 O93 1.247 . S
O75 C74 1.224 . S
N76 Co66 2.128 . S
N76 C77 1.355 . S
N76 C79 1.311 . S
C77 N76 1.355 . S
C77 C78 1.363 . S
C77 H89 0.929 . S
C78 C77 1.363 . S
C78 N80 1.375 . S
C78 H96 0.931 . S
C79 N76 1.311 . S
C79 N80 1.347 . S
C79 H90 0.929 . S
N80 C78 1.375 . S
N80 C79 1.347 . S
C81 C84 1.365 . S
C81 N86 1.328 . S
C81 H87 0.929 . S
C82 C83 1.362 . S
C82 C85 1.378 . S
C82 H97 0.929 . S
C83 C82 1.362 . S
C83 C84 1.366 . S
C84 C81 1.365 . S
C84 C83 1.366 . S
C84 H98 0.930 . S
C85 C82 1.378 . S
C85 N86 1.315 . S
C85 H88 0.930 . S
N86 Co66 2.194 . S
N86 C81 1.328 . S
N86 C85 1.315 . S
H87 C81 0.929 . S
H88 C85 0.930 . S
H89 C77 0.929 . S
H90 C79 0.929 . S
O91 Co66 2.351 . S
O91 C94 1.244 . S
O92 Co66 2.155 . S
O92 C94 1.240 . S
O93 Co66 2.096 . S
O93 C74 1.247 . S
C94 O91 1.244 . S
C94 O92 1.240 . S
H95 C69 0.931 . S
H96 C78 0.931 . S
H97 C82 0.929 . S
H98 C84 0.930 . S
Co99 N103 2.148 . S
Co99 N109 2.128 . S
Co99 N119 2.194 . S
Co99 O124 2.351 . S
Co99 O125 2.155 . S
Co99 O126 2.096 . S
C100 N103 1.301 . S
C100 N104 1.328 . S
C100 H105 0.930 . S
C101 C102 1.333 . S
C101 N103 1.317 . S
C101 H106 0.930 . S
C102 C101 1.333 . S
C102 N104 1.350 . S
C102 H128 0.931 . S
N103 Co99 2.148 . S
N103 C100 1.301 . S
N103 C101 1.317 . S
N104 C100 1.328 . S
N104 C102 1.350 . S
H105 C100 0.930 . S
H106 C101 0.930 . S
C107 O108 1.224 . S
C107 O126 1.247 . S
O108 C107 1.224 . S
N109 Co99 2.128 . S
N109 C110 1.355 . S
N109 C112 1.311 . S
C110 N109 1.355 . S
C110 C111 1.363 . S
C110 H122 0.929 . S
C111 C110 1.363 . S
C111 N113 1.375 . S
C111 H129 0.931 . S
C112 N109 1.311 . S
C112 N113 1.347 . S
C112 H123 0.929 . S
N113 C111 1.375 . S
N113 C112 1.347 . S
C114 C117 1.365 . S
C114 N119 1.328 . S
C114 H120 0.929 . S
C115 C116 1.362 . S
C115 C118 1.378 . S
C115 H130 0.929 . S
C116 C115 1.362 . S
C116 C117 1.366 . S
C117 C114 1.365 . S
C117 C116 1.366 . S
C117 H131 0.930 . S
C118 C115 1.378 . S
C118 N119 1.315 . S
C118 H121 0.930 . S
N119 Co99 2.194 . S
N119 C114 1.328 . S
N119 C118 1.315 . S
H120 C114 0.929 . S
H121 C118 0.930 . S
H122 C110 0.929 . S
H123 C112 0.929 . S
O124 Co99 2.351 . S
O124 C127 1.244 . S
O125 Co99 2.155 . S
O125 C127 1.240 . S
O126 Co99 2.096 . S
O126 C107 1.247 . S
C127 O124 1.244 . S
C127 O125 1.240 . S
H128 C102 0.931 . S
H129 C111 0.931 . S
H130 C115 0.929 . S
H131 C117 0.930 . S
H132 C144 0.930 . S
H133 C146 0.930 . S
H134 C147 0.930 . S
H135 C151 0.959 . S
H136 C151 0.959 . S
H137 C151 0.961 . S
H138 C152 0.960 . S
H139 C152 0.961 . S
H140 C152 0.959 . S
H141 C155 0.929 . S
H142 C156 0.931 . S
H143 C158 0.930 . S
C144 H132 0.930 . S
C144 C145 1.399 . S
C144 C149 1.399 . S
C145 C144 1.399 . S
C145 C146 1.376 . S
C146 H133 0.930 . S
C146 C145 1.376 . S
C146 C147 1.388 . S
C147 H134 0.930 . S
C147 C146 1.388 . S
C147 C148 1.390 . S
C148 C147 1.390 . S
C148 C149 1.394 . S
C148 C154 1.465 . S
C149 C144 1.399 . S
C149 C148 1.394 . S
C149 C150 1.516 . S
C150 C149 1.516 . S
C150 C151 1.502 . S
C150 C152 1.561 . S
C150 C153 1.526 . S
C151 H135 0.959 . S
C151 H136 0.959 . S
C151 H137 0.961 . S
C151 C150 1.502 . S
C152 H138 0.960 . S
C152 H139 0.961 . S
C152 H140 0.959 . S
C152 C150 1.561 . S
C153 C150 1.526 . S
C153 C154 1.396 . S
C153 C158 1.390 . S
C154 C148 1.465 . S
C154 C153 1.396 . S
C154 C155 1.399 . S
C155 H141 0.929 . S
C155 C154 1.399 . S
C155 C156 1.385 . S
C156 H142 0.931 . S
C156 C155 1.385 . S
C156 C157 1.389 . S
C157 C156 1.389 . S
C157 C158 1.387 . S
C158 H143 0.930 . S
C158 C153 1.390 . S
C158 C157 1.387 . S
H159 C171 0.930 . S
H160 C173 0.930 . S
H161 C174 0.930 . S
H162 C178 0.959 . S
H163 C178 0.959 . S
H164 C178 0.961 . S
H165 C179 0.960 . S
H166 C179 0.961 . S
H167 C179 0.959 . S
H168 C182 0.929 . S
H169 C183 0.931 . S
H170 C185 0.930 . S
C171 H159 0.930 . S
C171 C172 1.399 . S
C171 C176 1.399 . S
C172 C171 1.399 . S
C172 C173 1.376 . S
C173 H160 0.930 . S
C173 C172 1.376 . S
C173 C174 1.388 . S
C174 H161 0.930 . S
C174 C173 1.388 . S
C174 C175 1.390 . S
C175 C174 1.390 . S
C175 C176 1.394 . S
C175 C181 1.465 . S
C176 C171 1.399 . S
C176 C175 1.394 . S
C176 C177 1.516 . S
C177 C176 1.516 . S
C177 C178 1.502 . S
C177 C179 1.561 . S
C177 C180 1.526 . S
C178 H162 0.959 . S
C178 H163 0.959 . S
C178 H164 0.961 . S
C178 C177 1.502 . S
C179 H165 0.960 . S
C179 H166 0.961 . S
C179 H167 0.959 . S
C179 C177 1.561 . S
C180 C177 1.526 . S
C180 C181 1.396 . S
C180 C185 1.390 . S
C181 C175 1.465 . S
C181 C180 1.396 . S
C181 C182 1.399 . S
C182 H168 0.929 . S
C182 C181 1.399 . S
C182 C183 1.385 . S
C183 H169 0.931 . S
C183 C182 1.385 . S
C183 C184 1.389 . S
C184 C183 1.389 . S
C184 C185 1.387 . S
C185 H170 0.930 . S
C185 C180 1.390 . S
C185 C184 1.387 . S
H186 C198 0.930 . S
H187 C200 0.930 . S
H188 C201 0.930 . S
H189 C205 0.959 . S
H190 C205 0.959 . S
H191 C205 0.961 . S
H192 C206 0.960 . S
H193 C206 0.961 . S
H194 C206 0.959 . S
H195 C209 0.929 . S
H196 C210 0.931 . S
H197 C212 0.930 . S
C198 H186 0.930 . S
C198 C199 1.399 . S
C198 C203 1.399 . S
C199 C198 1.399 . S
C199 C200 1.376 . S
C200 H187 0.930 . S
C200 C199 1.376 . S
C200 C201 1.388 . S
C201 H188 0.930 . S
C201 C200 1.388 . S
C201 C202 1.390 . S
C202 C201 1.390 . S
C202 C203 1.394 . S
C202 C208 1.465 . S
C203 C198 1.399 . S
C203 C202 1.394 . S
C203 C204 1.516 . S
C204 C203 1.516 . S
C204 C205 1.502 . S
C204 C206 1.561 . S
C204 C207 1.526 . S
C205 H189 0.959 . S
C205 H190 0.959 . S
C205 H191 0.961 . S
C205 C204 1.502 . S
C206 H192 0.960 . S
C206 H193 0.961 . S
C206 H194 0.959 . S
C206 C204 1.561 . S
C207 C204 1.526 . S
C207 C208 1.396 . S
C207 C212 1.390 . S
C208 C202 1.465 . S
C208 C207 1.396 . S
C208 C209 1.399 . S
C209 H195 0.929 . S
C209 C208 1.399 . S
C209 C210 1.385 . S
C210 H196 0.931 . S
C210 C209 1.385 . S
C210 C211 1.389 . S
C211 C210 1.389 . S
C211 C212 1.387 . S
C212 H197 0.930 . S
C212 C207 1.390 . S
C212 C211 1.387 . S
H213 C225 0.930 . S
H214 C227 0.930 . S
H215 C228 0.930 . S
H216 C232 0.959 . S
H217 C232 0.959 . S
H218 C232 0.961 . S
H219 C233 0.960 . S
H220 C233 0.961 . S
H221 C233 0.959 . S
H222 C236 0.929 . S
H223 C237 0.931 . S
H224 C239 0.930 . S
C225 H213 0.930 . S
C225 C226 1.399 . S
C225 C230 1.399 . S
C226 C225 1.399 . S
C226 C227 1.376 . S
C227 H214 0.930 . S
C227 C226 1.376 . S
C227 C228 1.388 . S
C228 H215 0.930 . S
C228 C227 1.388 . S
C228 C229 1.390 . S
C229 C228 1.390 . S
C229 C230 1.394 . S
C229 C235 1.465 . S
C230 C225 1.399 . S
C230 C229 1.394 . S
C230 C231 1.516 . S
C231 C230 1.516 . S
C231 C232 1.502 . S
C231 C233 1.561 . S
C231 C234 1.526 . S
C232 H216 0.959 . S
C232 H217 0.959 . S
C232 H218 0.961 . S
C232 C231 1.502 . S
C233 H219 0.960 . S
C233 H220 0.961 . S
C233 H221 0.959 . S
C233 C231 1.561 . S
C234 C231 1.526 . S
C234 C235 1.396 . S
C234 C239 1.390 . S
C235 C229 1.465 . S
C235 C234 1.396 . S
C235 C236 1.399 . S
C236 H222 0.929 . S
C236 C235 1.399 . S
C236 C237 1.385 . S
C237 H223 0.931 . S
C237 C236 1.385 . S
C237 C238 1.389 . S
C238 C237 1.389 . S
C238 C239 1.387 . S
C239 H224 0.930 . S
C239 C234 1.390 . S
C239 C238 1.387 . S
H240 C252 0.930 . S
H241 C254 0.930 . S
H242 C255 0.930 . S
H243 C259 0.959 . S
H244 C259 0.959 . S
H245 C259 0.961 . S
H246 C260 0.960 . S
H247 C260 0.961 . S
H248 C260 0.959 . S
H249 C263 0.929 . S
H250 C264 0.931 . S
H251 C266 0.930 . S
C252 H240 0.930 . S
C252 C253 1.399 . S
C252 C257 1.399 . S
C253 C252 1.399 . S
C253 C254 1.376 . S
C254 H241 0.930 . S
C254 C253 1.376 . S
C254 C255 1.388 . S
C255 H242 0.930 . S
C255 C254 1.388 . S
C255 C256 1.390 . S
C256 C255 1.390 . S
C256 C257 1.394 . S
C256 C262 1.465 . S
C257 C252 1.399 . S
C257 C256 1.394 . S
C257 C258 1.516 . S
C258 C257 1.516 . S
C258 C259 1.502 . S
C258 C260 1.561 . S
C258 C261 1.526 . S
C259 H243 0.959 . S
C259 H244 0.959 . S
C259 H245 0.961 . S
C259 C258 1.502 . S
C260 H246 0.960 . S
C260 H247 0.961 . S
C260 H248 0.959 . S
C260 C258 1.561 . S
C261 C258 1.526 . S
C261 C262 1.396 . S
C261 C266 1.390 . S
C262 C256 1.465 . S
C262 C261 1.396 . S
C262 C263 1.399 . S
C263 H249 0.929 . S
C263 C262 1.399 . S
C263 C264 1.385 . S
C264 H250 0.931 . S
C264 C263 1.385 . S
C264 C265 1.389 . S
C265 C264 1.389 . S
C265 C266 1.387 . S
C266 H251 0.930 . S
C266 C261 1.390 . S
C266 C265 1.387 . S
H267 C279 0.930 . S
H268 C281 0.930 . S
H269 C282 0.930 . S
H270 C286 0.959 . S
H271 C286 0.959 . S
H272 C286 0.961 . S
H273 C287 0.960 . S
H274 C287 0.961 . S
H275 C287 0.959 . S
H276 C290 0.929 . S
H277 C291 0.931 . S
H278 C293 0.930 . S
C279 H267 0.930 . S
C279 C280 1.399 . S
C279 C284 1.399 . S
C280 C279 1.399 . S
C280 C281 1.376 . S
C281 H268 0.930 . S
C281 C280 1.376 . S
C281 C282 1.388 . S
C282 H269 0.930 . S
C282 C281 1.388 . S
C282 C283 1.390 . S
C283 C282 1.390 . S
C283 C284 1.394 . S
C283 C289 1.465 . S
C284 C279 1.399 . S
C284 C283 1.394 . S
C284 C285 1.516 . S
C285 C284 1.516 . S
C285 C286 1.502 . S
C285 C287 1.561 . S
C285 C288 1.526 . S
C286 H270 0.959 . S
C286 H271 0.959 . S
C286 H272 0.961 . S
C286 C285 1.502 . S
C287 H273 0.960 . S
C287 H274 0.961 . S
C287 H275 0.959 . S
C287 C285 1.561 . S
C288 C285 1.526 . S
C288 C289 1.396 . S
C288 C293 1.390 . S
C289 C283 1.465 . S
C289 C288 1.396 . S
C289 C290 1.399 . S
C290 H276 0.929 . S
C290 C289 1.399 . S
C290 C291 1.385 . S
C291 H277 0.931 . S
C291 C290 1.385 . S
C291 C292 1.389 . S
C292 C291 1.389 . S
C292 C293 1.387 . S
C293 H278 0.930 . S
C293 C288 1.390 . S
C293 C292 1.387 . S
H294 C306 0.930 . S
H295 C308 0.930 . S
H296 C309 0.930 . S
H297 C313 0.959 . S
H298 C313 0.959 . S
H299 C313 0.961 . S
H300 C314 0.960 . S
H301 C314 0.961 . S
H302 C314 0.959 . S
H303 C317 0.929 . S
H304 C318 0.931 . S
H305 C320 0.930 . S
C306 H294 0.930 . S
C306 C307 1.399 . S
C306 C311 1.399 . S
C307 C306 1.399 . S
C307 C308 1.376 . S
C308 H295 0.930 . S
C308 C307 1.376 . S
C308 C309 1.388 . S
C309 H296 0.930 . S
C309 C308 1.388 . S
C309 C310 1.390 . S
C310 C309 1.390 . S
C310 C311 1.394 . S
C310 C316 1.465 . S
C311 C306 1.399 . S
C311 C310 1.394 . S
C311 C312 1.516 . S
C312 C311 1.516 . S
C312 C313 1.502 . S
C312 C314 1.561 . S
C312 C315 1.526 . S
C313 H297 0.959 . S
C313 H298 0.959 . S
C313 H299 0.961 . S
C313 C312 1.502 . S
C314 H300 0.960 . S
C314 H301 0.961 . S
C314 H302 0.959 . S
C314 C312 1.561 . S
C315 C312 1.526 . S
C315 C316 1.396 . S
C315 C320 1.390 . S
C316 C310 1.465 . S
C316 C315 1.396 . S
C316 C317 1.399 . S
C317 H303 0.929 . S
C317 C316 1.399 . S
C317 C318 1.385 . S
C318 H304 0.931 . S
C318 C317 1.385 . S
C318 C319 1.389 . S
C319 C318 1.389 . S
C319 C320 1.387 . S
C320 H305 0.930 . S
C320 C315 1.390 . S
C320 C319 1.387 . S
H321 C333 0.930 . S
H322 C335 0.930 . S
H323 C336 0.930 . S
H324 C340 0.959 1_565 S
H325 C340 0.959 1_565 S
H326 C340 0.961 . S
H327 C341 0.960 . S
H328 C341 0.961 . S
H329 C341 0.959 . S
H330 C344 0.929 . S
H331 C345 0.931 . S
H332 C347 0.930 . S
C333 H321 0.930 . S
C333 C334 1.399 . S
C333 C338 1.399 . S
C334 C333 1.399 . S
C334 C335 1.376 . S
C335 H322 0.930 . S
C335 C334 1.376 . S
C335 C336 1.388 . S
C336 H323 0.930 . S
C336 C335 1.388 . S
C336 C337 1.390 . S
C337 C336 1.390 . S
C337 C338 1.394 . S
C337 C343 1.465 1_546 S
C338 C333 1.399 . S
C338 C337 1.394 . S
C338 C339 1.516 . S
C339 C338 1.516 . S
C339 C340 1.502 . S
C339 C341 1.561 1_556 S
C339 C342 1.526 1_546 S
C340 H324 0.959 1_545 S
C340 H325 0.959 1_545 S
C340 H326 0.961 . S
C340 C339 1.502 . S
C341 H327 0.960 . S
C341 H328 0.961 . S
C341 H329 0.959 . S
C341 C339 1.561 1_554 S
C342 C339 1.526 1_564 S
C342 C343 1.396 . S
C342 C347 1.390 . S
C343 C337 1.465 1_564 S
C343 C342 1.396 . S
C343 C344 1.399 . S
C344 H330 0.929 . S
C344 C343 1.399 . S
C344 C345 1.385 . S
C345 H331 0.931 . S
C345 C344 1.385 . S
C345 C346 1.389 . S
C346 C345 1.389 . S
C346 C347 1.387 . S
C347 H332 0.930 . S
C347 C342 1.390 . S
C347 C346 1.387 . S
H348 C360 0.930 . S
H349 C362 0.930 . S
H350 C363 0.930 . S
H351 C367 0.959 . S
H352 C367 0.959 . S
H353 C367 0.961 . S
H354 C368 0.960 . S
H355 C368 0.961 . S
H356 C368 0.959 1_545 S
H357 C371 0.929 . S
H358 C372 0.931 . S
H359 C374 0.930 . S
C360 H348 0.930 . S
C360 C361 1.399 . S
C360 C365 1.399 . S
C361 C360 1.399 . S
C361 C362 1.376 . S
C362 H349 0.930 . S
C362 C361 1.376 . S
C362 C363 1.388 1_565 S
C363 H350 0.930 . S
C363 C362 1.388 1_545 S
C363 C364 1.390 . S
C364 C363 1.390 . S
C364 C365 1.394 1_545 S
C364 C370 1.465 1_655 S
C365 C360 1.399 . S
C365 C364 1.394 1_565 S
C365 C366 1.516 1_655 S
C366 C365 1.516 1_455 S
C366 C367 1.502 . S
C366 C368 1.561 . S
C366 C369 1.526 1_565 S
C367 H351 0.959 . S
C367 H352 0.959 . S
C367 H353 0.961 . S
C367 C366 1.502 . S
C368 H354 0.960 . S
C368 H355 0.961 . S
C368 H356 0.959 1_565 S
C368 C366 1.561 . S
C369 C366 1.526 1_545 S
C369 C370 1.396 . S
C369 C374 1.390 . S
C370 C364 1.465 1_455 S
C370 C369 1.396 . S
C370 C371 1.399 1_455 S
C371 H357 0.929 . S
C371 C370 1.399 1_655 S
C371 C372 1.385 1_655 S
C372 H358 0.931 . S
C372 C371 1.385 1_455 S
C372 C373 1.389 . S
C373 C372 1.389 . S
C373 C374 1.387 . S
C374 H359 0.930 . S
C374 C369 1.390 . S
C374 C373 1.387 . S
H375 C387 0.930 . S
H376 C389 0.930 . S
H377 C390 0.930 . S
H378 C394 0.959 . S
H379 C394 0.959 . S
H380 C394 0.961 . S
H381 C395 0.960 . S
H382 C395 0.961 . S
H383 C395 0.959 . S
H384 C398 0.929 1_655 S
H385 C399 0.931 . S
H386 C401 0.930 . S
C387 H375 0.930 . S
C387 C388 1.399 . S
C387 C392 1.399 . S
C388 C387 1.399 . S
C388 C389 1.376 . S
C389 H376 0.930 . S
C389 C388 1.376 . S
C389 C390 1.388 1_554 S
C390 H377 0.930 . S
C390 C389 1.388 1_556 S
C390 C391 1.390 . S
C391 C390 1.390 . S
C391 C392 1.394 1_556 S
C391 C397 1.465 1_655 S
C392 C387 1.399 . S
C392 C391 1.394 1_554 S
C392 C393 1.516 1_655 S
C393 C392 1.516 1_455 S
C393 C394 1.502 . S
C393 C395 1.561 1_455 S
C393 C396 1.526 1_554 S
C394 H378 0.959 . S
C394 H379 0.959 . S
C394 H380 0.961 . S
C394 C393 1.502 . S
C395 H381 0.960 . S
C395 H382 0.961 . S
C395 H383 0.959 . S
C395 C393 1.561 1_655 S
C396 C393 1.526 1_556 S
C396 C397 1.396 . S
C396 C401 1.390 . S
C397 C391 1.465 1_455 S
C397 C396 1.396 . S
C397 C398 1.399 . S
C398 H384 0.929 1_455 S
C398 C397 1.399 . S
C398 C399 1.385 . S
C399 H385 0.931 . S
C399 C398 1.385 . S
C399 C400 1.389 . S
C400 C399 1.389 . S
C400 C401 1.387 . S
C401 H386 0.930 . S
C401 C396 1.390 . S
C401 C400 1.387 . S
C145 N5 1.143 1_655 S
C157 N14 1.178 . S
C172 N38 1.157 . S
C184 N47 1.144 1_545 S
C199 N80 1.145 . S
C211 N71 1.169 1_455 S
C226 N113 1.156 1_565 S
C238 N104 1.154 . S
C253 C116 1.456 . S
C265 C17 1.451 . S
C280 C50 1.444 . S
C292 C83 1.455 . S
C307 C8 1.344 . S
C319 C74 1.259 . S
C334 C107 1.250 . S
C346 C41 1.331 . S
C361 C94 1.283 . S
C373 C28 1.210 . S
C388 C61 1.226 . S
C400 C127 1.261 . S
