# Generated by pormake.
# Topology hcp, (12)-cn, num edge types: 1
# Building blocks:
#     Node 0, Type 0, BuildingBlock: ENOWUB_clean_sbu_0, # of connection points: 12
#     Node 1, Type 0, BuildingBlock: ENOWUB_clean_sbu_0, # of connection points: 12
#     Edge 2, Type (0, 0), BuildingBlock: UVAHIK_clean_linker_0, # of connection points: 2
#     Edge 3, Type (0, 0), BuildingBlock: UVAHIK_clean_linker_0, # of connection points: 2
#     Edge 4, Type (0, 0), BuildingBlock: UVAHIK_clean_linker_0, # of connection points: 2
#     Edge 5, Type (0, 0), BuildingBlock: UVAHIK_clean_linker_0, # of connection points: 2
#     Edge 6, Type (0, 0), BuildingBlock: UVAHIK_clean_linker_0, # of connection points: 2
#     Edge 7, Type (0, 0), BuildingBlock: UVAHIK_clean_linker_0, # of connection points: 2
#     Edge 8, Type (0, 0), BuildingBlock: UVAHIK_clean_linker_0, # of connection points: 2
#     Edge 9, Type (0, 0), BuildingBlock: UVAHIK_clean_linker_0, # of connection points: 2
#     Edge 10, Type (0, 0), BuildingBlock: UVAHIK_clean_linker_0, # of connection points: 2
#     Edge 11, Type (0, 0), BuildingBlock: UVAHIK_clean_linker_0, # of connection points: 2
#     Edge 12, Type (0, 0), BuildingBlock: UVAHIK_clean_linker_0, # of connection points: 2
#     Edge 13, Type (0, 0), BuildingBlock: UVAHIK_clean_linker_0, # of connection points: 2
# Relax obj value: 0.186
# Max RMSD: 0.270
# Mean RMSD: 0.270
data_MOF--net-hcp--node1-ENOWUB_clean_sbu_0--edge1-UVAHIK_clean_linker_0
_symmetry_space_group_name_H-M    P1
_symmetry_Int_Tables_number       1
_symmetry_cell_setting            triclinic
loop_
_symmetry_equiv_pos_as_xyz
'x, y, z'
_cell_length_a     22.383494
_cell_length_b     22.414003
_cell_length_c     38.36382
_cell_angle_alpha  89.993658
_cell_angle_beta   89.886359
_cell_angle_gamma 119.92822
loop_
_atom_site_label
_atom_site_type_symbol
_atom_site_fract_x
_atom_site_fract_y
_atom_site_fract_z
_atom_type_partial_charge
O0 O 0.73164 0.25624 0.15708 0.0
O1 O 0.66823 0.22975 0.22628 0.0
O2 O 0.7369 0.4243 0.22439 0.0
O3 O 0.64997 0.31635 0.18305 0.0
O4 O 0.75443 0.33716 0.26623 0.0
Zr5 Zr 0.75489 0.33558 0.20528 0.0
Zr6 Zr 0.66615 0.23216 0.28724 0.0
Zr7 Zr 0.56308 0.21139 0.20461 0.0
O8 O 0.64688 0.3194 0.30768 0.0
O9 O 0.54258 0.29851 0.22373 0.0
O10 O 0.56061 0.21223 0.26553 0.0
Zr11 Zr 0.73412 0.42401 0.28549 0.0
Zr12 Zr 0.63077 0.4038 0.2028 0.0
Zr13 Zr 0.54225 0.30056 0.28474 0.0
O14 O 0.62919 0.40586 0.26372 0.0
O15 O 0.5675 0.38314 0.33171 0.0
O16 O 0.42879 0.2055 0.26975 0.0
O17 O 0.86753 0.43367 0.21875 0.0
O18 O 0.75238 0.53706 0.26981 0.0
O19 O 0.54329 0.098 0.22093 0.0
O20 O 0.5156 0.23601 0.15297 0.0
O21 O 0.78518 0.39799 0.33513 0.0
O22 O 0.5833 0.17854 0.33463 0.0
O23 O 0.7069 0.45159 0.15228 0.0
O24 O 0.535 0.4227 0.21618 0.0
O25 O 0.76282 0.2145 0.27428 0.0
O26 O 0.68409 0.4572 0.33254 0.0
O27 O 0.61548 0.17917 0.15837 0.0
O28 O 0.44264 0.15621 0.22018 0.0
O29 O 0.85413 0.48153 0.26896 0.0
O30 O 0.81233 0.27428 0.22387 0.0
O31 O 0.48548 0.36266 0.26651 0.0
O32 O 0.50975 0.22182 0.3336 0.0
O33 O 0.77771 0.40487 0.15329 0.0
C34 C 0.6767 0.20281 0.1458 0.0
O35 O 0.74405 0.28165 0.3361 0.0
O36 O 0.60483 0.11223 0.27103 0.0
C37 C 0.62236 0.43559 0.34395 0.0
C38 C 0.40589 0.16135 0.24463 0.0
C39 C 0.89052 0.47781 0.24388 0.0
C40 C 0.73254 0.5602 0.24416 0.0
C41 C 0.56403 0.0753 0.24641 0.0
C42 C 0.51738 0.29084 0.14119 0.0
C43 C 0.78176 0.34311 0.34809 0.0
C44 C 0.53108 0.18243 0.34624 0.0
C45 C 0.75502 0.44218 0.13951 0.0
C46 C 0.49051 0.4028 0.24124 0.0
C47 C 0.80763 0.23471 0.24937 0.0
O48 O 0.55155 0.3515 0.15461 0.0
O49 O 0.69315 0.52384 0.21897 0.0
O50 O 0.39849 0.8024 0.83523 0.0
O51 O 0.33177 0.66059 0.80889 0.0
O52 O 0.31123 0.75274 0.72837 0.0
O53 O 0.41798 0.76753 0.76664 0.0
O54 O 0.22397 0.6448 0.76844 0.0
Zr55 Zr 0.31322 0.74888 0.78928 0.0
Zr56 Zr 0.24336 0.5568 0.78676 0.0
Zr57 Zr 0.43561 0.67837 0.78489 0.0
O58 O 0.23932 0.55767 0.72571 0.0
O59 O 0.43478 0.68099 0.72378 0.0
O60 O 0.34731 0.57395 0.7639 0.0
Zr61 Zr 0.22284 0.64796 0.70761 0.0
Zr62 Zr 0.41564 0.76962 0.70579 0.0
Zr63 Zr 0.34432 0.57674 0.703 0.0
O64 O 0.32677 0.66584 0.68463 0.0
O65 O 0.26504 0.52815 0.65372 0.0
O66 O 0.44318 0.56098 0.71352 0.0
O67 O 0.21716 0.76836 0.77753 0.0
O68 O 0.2469 0.72827 0.65953 0.0
O69 O 0.41055 0.59299 0.83026 0.0
O70 O 0.54895 0.77504 0.7707 0.0
O71 O 0.10984 0.55003 0.72126 0.0
O72 O 0.22581 0.44394 0.7711 0.0
O73 O 0.43594 0.88306 0.72259 0.0
O74 O 0.46015 0.74465 0.65274 0.0
O75 O 0.18978 0.58217 0.8355 0.0
O76 O 0.19769 0.57859 0.65587 0.0
O77 O 0.46805 0.7541 0.83512 0.0
O78 O 0.4926 0.61778 0.76452 0.0
O79 O 0.1668 0.71007 0.72703 0.0
O80 O 0.23429 0.69888 0.83817 0.0
O81 O 0.41199 0.62715 0.65096 0.0
O82 O 0.28323 0.45682 0.71952 0.0
O83 O 0.37518 0.86891 0.77314 0.0
C84 C 0.44869 0.79557 0.84708 0.0
O85 O 0.12348 0.49931 0.77029 0.0
O86 O 0.29307 0.52419 0.83415 0.0
C87 C 0.21795 0.53973 0.64158 0.0
C88 C 0.488 0.57983 0.73831 0.0
C89 C 0.17224 0.74925 0.75281 0.0
C90 C 0.30248 0.78091 0.64798 0.0
C91 C 0.35522 0.54305 0.84373 0.0
C92 C 0.57228 0.81981 0.74579 0.0
C93 C 0.08695 0.50446 0.74581 0.0
C94 C 0.24508 0.4207 0.7452 0.0
C95 C 0.41583 0.90581 0.74837 0.0
C96 C 0.4492 0.68804 0.63822 0.0
C97 C 0.19393 0.6369 0.84906 0.0
O98 O 0.53601 0.82477 0.72112 0.0
O99 O 0.36357 0.80291 0.66018 0.0
C100 C 0.5172 0.91309 0.87137 0.0
C101 C 0.48985 0.84201 0.87524 0.0
C102 C 0.55677 0.95802 0.89786 0.0
C103 C 0.64121 0.96494 0.98359 0.0
H104 H 0.61612 0.1223 -0.00199 0.0
C105 C 0.64313 0.09444 0.1137 0.0
C106 C 0.6828 0.16649 0.11532 0.0
C107 C 0.63978 0.05993 0.08291 0.0
C108 C 0.62467 0.0793 -0.00612 0.0
H109 H 0.48231 0.76137 0.90904 0.0
H110 H 0.54679 0.83889 0.95666 0.0
H111 H 0.56747 0.0513 0.94667 0.0
H112 H 0.75281 0.25893 0.08692 0.0
H113 H 0.74415 0.19842 0.03214 0.0
H114 H 0.6931 0.99056 0.03298 0.0
C115 C 0.54076 0.86096 0.93275 0.0
C116 C 0.59701 0.03848 0.96435 0.0
C117 C 0.50302 0.81623 0.90572 0.0
C118 C 0.72198 0.20334 0.08622 0.0
C119 C 0.7171 0.16891 0.05503 0.0
C120 C 0.66732 0.00491 0.01364 0.0
C121 C 0.56787 0.93257 0.9293 0.0
C122 C 0.60372 0.97989 0.95903 0.0
C123 C 0.67477 0.09713 0.05305 0.0
C124 C 0.65831 0.06173 0.01915 0.0
H125 H 0.50866 0.93395 0.84762 0.0
H126 H 0.57829 0.0127 0.8936 0.0
H127 H 0.64913 0.92147 0.9801 0.0
H128 H 0.61276 0.06502 0.1359 0.0
H129 H 0.6063 0.0046 0.08178 0.0
C130 C 0.4323 0.64519 0.57782 0.0
C131 C 0.47681 0.69069 0.60314 0.0
C132 C 0.45797 0.63806 0.54601 0.0
C133 C 0.61014 0.64442 0.51014 0.0
H134 H 0.50716 0.60562 0.42389 0.0
C135 C 0.6715 0.53118 0.38809 0.0
C136 C 0.61369 0.4759 0.37219 0.0
C137 C 0.66323 0.57094 0.41366 0.0
C138 C 0.53647 0.61629 0.44778 0.0
H139 H 0.58246 0.76656 0.61496 0.0
H140 H 0.62837 0.75317 0.55888 0.0
H141 H 0.47934 0.65772 0.47252 0.0
H142 H 0.50175 0.41945 0.37094 0.0
H143 H 0.48757 0.48819 0.41568 0.0
H144 H 0.66535 0.6003 0.48586 0.0
C145 C 0.57342 0.72349 0.56374 0.0
C146 C 0.52082 0.64644 0.47552 0.0
C147 C 0.5473 0.7315 0.5956 0.0
C148 C 0.5475 0.46137 0.3826 0.0
C149 C 0.53932 0.5013 0.40801 0.0
C150 C 0.62586 0.61424 0.48232 0.0
C151 C 0.52898 0.67564 0.53894 0.0
C152 C 0.55579 0.65853 0.5074 0.0
C153 C 0.59704 0.55665 0.42374 0.0
C154 C 0.5875 0.59765 0.4513 0.0
H155 H 0.37765 0.61323 0.58315 0.0
H156 H 0.42249 0.60011 0.52774 0.0
H157 H 0.63752 0.65251 0.5345 0.0
H158 H 0.72333 0.54413 0.38071 0.0
H159 H 0.70866 0.61341 0.42523 0.0
C160 C 0.79353 0.43112 0.08078 0.0
C161 C 0.78447 0.47224 0.10535 0.0
C162 C 0.82785 0.45922 0.0496 0.0
C163 C 0.96561 0.61632 0.01445 0.0
H164 H 0.90923 0.51341 0.92791 0.0
C165 C 0.145 0.6842 0.89317 0.0
C166 C 0.14562 0.62736 0.87788 0.0
C167 C 0.09605 0.67447 0.91861 0.0
C168 C 0.92567 0.54281 0.95186 0.0
H169 H 0.80202 0.57443 0.11649 0.0
H170 H 0.86459 0.62491 0.06159 0.0
H171 H 0.8272 0.48088 0.97594 0.0
H172 H 0.09546 0.51567 0.87797 0.0
H173 H 0.01119 0.49909 0.92235 0.0
H174 H 0.06521 0.67616 0.99089 0.0
C175 C 0.84417 0.57056 0.06657 0.0
C176 C 0.87863 0.52447 0.97923 0.0
C177 C 0.80832 0.54182 0.09775 0.0
C178 C 0.09673 0.56075 0.88902 0.0
C179 C 0.04781 0.55113 0.91426 0.0
C180 C 0.01286 0.6347 0.987 0.0
C181 C 0.85482 0.52946 0.04244 0.0
C182 C 0.89892 0.55929 0.01124 0.0
C183 C 0.04646 0.60776 0.9291 0.0
C184 C -0.00597 0.5963 0.95595 0.0
H185 H 0.7752 0.37725 0.08607 0.0
H186 H 0.83603 0.42646 0.03178 0.0
H187 H 0.98271 0.64369 0.03895 0.0
H188 H 0.18164 0.73628 0.88519 0.0
H189 H 0.09618 0.71905 0.9296 0.0
C190 C 0.25175 0.78506 0.59041 0.0
C191 C 0.29764 0.81913 0.61791 0.0
C192 C 0.25636 0.82049 0.55953 0.0
C193 C 0.33427 -0.00493 0.52049 0.0
H194 H 0.36448 0.91034 0.4393 0.0
C195 C 0.50597 0.08683 0.38828 0.0
C196 C 0.49104 0.13679 0.37558 0.0
C197 C 0.46716 0.04297 0.41543 0.0
C198 C 0.35585 0.9345 0.46171 0.0
H199 H 0.3804 0.91746 0.6359 0.0
H200 H 0.38777 0.97913 0.58264 0.0
H201 H 0.31829 0.84324 0.49266 0.0
H202 H 0.4226 0.17891 0.38136 0.0
H203 H 0.35539 0.10253 0.42876 0.0
H204 H 0.37541 0.08741 0.49026 0.0
C205 C 0.3485 0.92535 0.58458 0.0
C206 C 0.32852 0.89584 0.49208 0.0
C207 C 0.34466 0.88989 0.61502 0.0
C208 C 0.43599 0.1414 0.39056 0.0
C209 C 0.39737 0.09766 0.41777 0.0
C210 C 0.36134 0.03364 0.49011 0.0
C211 C 0.30592 0.89066 0.55612 0.0
C212 C 0.31977 0.92649 0.52213 0.0
C213 C 0.41264 0.04811 0.43054 0.0
C214 C 0.37459 0.00439 0.4608 0.0
H215 H 0.21513 0.73043 0.59201 0.0
H216 H 0.22277 0.79267 0.53796 0.0
H217 H 0.32756 0.0198 0.54324 0.0
H218 H 0.54767 0.08146 0.37732 0.0
H219 H 0.48088 0.00599 0.4251 0.0
C220 C 0.49314 0.26009 0.07842 0.0
C221 C 0.47977 0.28569 0.10904 0.0
C222 C 0.46882 0.269 0.04639 0.0
C223 C 0.34745 0.30753 0.00261 0.0
H224 H 0.50231 0.43602 0.94607 0.0
C225 C 0.31903 0.47892 0.90007 0.0
C226 C 0.36377 0.50238 0.87134 0.0
C227 C 0.32748 0.44044 0.92625 0.0
C228 C 0.458 0.39878 0.96078 0.0
H229 H 0.42711 0.33583 0.13106 0.0
H230 H 0.38229 0.34899 0.07524 0.0
H231 H 0.52203 0.3819 -0.00388 0.0
H232 H 0.45001 0.50148 0.84623 0.0
H233 H 0.46266 0.43122 0.89074 0.0
H234 H 0.28298 0.32345 0.96734 0.0
C235 C 0.41196 0.32283 0.07587 0.0
C236 C 0.46956 0.36793 0.98958 0.0
C237 C 0.43771 0.31558 0.10767 0.0
C238 C 0.41576 0.48507 0.86858 0.0
C239 C 0.42304 0.44496 0.89422 0.0
C240 C 0.33553 0.33708 0.97326 0.0
C241 C 0.4294 0.30189 0.04487 0.0
C242 C 0.41467 0.32354 0.0112 0.0
C243 C 0.37969 0.42291 0.92374 0.0
C244 C 0.39093 0.38481 0.95252 0.0
H245 H 0.52616 0.23757 0.07897 0.0
H246 H 0.48305 0.25284 0.02269 0.0
H247 H 0.30438 0.27334 0.01903 0.0
H248 H 0.27855 0.49177 0.90271 0.0
H249 H 0.29394 0.42597 0.94879 0.0
C250 C 0.85217 0.41128 0.39905 0.0
C251 C 0.82502 0.35125 0.37878 0.0
C252 C 0.89299 0.41906 0.42798 0.0
C253 C 0.00777 0.3654 0.46616 0.0
H254 H 0.97601 0.44276 0.54983 0.0
C255 C 0.16341 0.44011 0.59969 0.0
C256 C 0.18458 0.50883 0.6082 0.0
C257 C 0.1201 0.40907 0.57091 0.0
C258 C 0.98501 0.42049 0.52673 0.0
H259 H 0.8207 0.25278 0.37262 0.0
H260 H 0.89271 0.26697 0.42329 0.0
H261 H 0.89518 0.40966 0.5015 0.0
H262 H 0.1833 0.60081 0.59178 0.0
H263 H 0.10854 0.54702 0.54208 0.0
H264 H 0.09941 0.37887 0.49148 0.0
C265 C 0.88184 0.30761 0.41673 0.0
C266 C 0.9391 0.40195 0.49907 0.0
C267 C 0.8403 0.29944 0.38791 0.0
C268 C 0.16658 0.54735 0.58618 0.0
C269 C 0.12385 0.51669 0.55777 0.0
C270 C 0.05402 0.38406 0.49406 0.0
C271 C 0.90804 0.36727 0.43717 0.0
C272 C 0.9513 0.37659 0.46806 0.0
C273 C 0.09812 0.44679 0.55067 0.0
C274 C 0.04402 0.41396 0.524 0.0
H275 H 0.84153 0.45218 0.39275 0.0
H276 H 0.91344 0.46611 0.44302 0.0
H277 H 0.01822 0.34586 0.44248 0.0
H278 H 0.17678 0.40953 0.61635 0.0
H279 H 0.1009 0.35504 0.56563 0.0
C280 C 0.5502 0.97127 0.27627 0.0
C281 C 0.54957 0.0039 0.24514 0.0
C282 C 0.56304 0.91663 0.27555 0.0
C283 C 0.66855 0.87242 0.223 0.0
H284 H 0.60498 0.71668 0.28567 0.0
C285 C 0.74608 0.66483 0.21511 0.0
C286 C 0.74565 0.63109 0.24602 0.0
C287 C 0.73206 0.71869 0.21605 0.0
C288 C 0.6241 0.7609 0.26853 0.0
H289 H 0.55164 -0.00075 0.18877 0.0
H290 H 0.57389 0.90313 0.18746 0.0
H291 H 0.54212 0.77943 0.28248 0.0
H292 H 0.73975 0.63265 0.30241 0.0
H293 H 0.71629 0.72791 0.30408 0.0
H294 H 0.75072 0.85419 0.20916 0.0
C295 C 0.5659 0.92081 0.21239 0.0
C296 C 0.58753 0.79606 0.26637 0.0
C297 C 0.55245 0.97523 0.21312 0.0
C298 C 0.74022 0.65779 0.27819 0.0
C299 C 0.72585 0.7116 0.27913 0.0
C300 C 0.70519 0.83736 0.22521 0.0
C301 C 0.57558 0.89413 0.24367 0.0
C302 C 0.60937 0.85204 0.24354 0.0
C303 C 0.71741 0.73942 0.24792 0.0
C304 C 0.68333 0.7813 0.248 0.0
H305 H 0.54724 -0.00789 0.3013 0.0
H306 H 0.56984 0.89676 0.30006 0.0
H307 H 0.68761 0.91664 0.20586 0.0
H308 H 0.75083 0.64541 0.18999 0.0
H309 H 0.72623 0.73936 0.19158 0.0
C310 C 0.07497 0.74321 0.78628 0.0
C311 C 0.11547 0.76364 0.75596 0.0
C312 C 0.00651 0.72829 0.78486 0.0
C313 C 0.8712 0.66048 0.71921 0.0
H314 H 0.75944 0.67656 0.79171 0.0
C315 C 0.58592 0.58758 0.70465 0.0
C316 C 0.54538 0.5664 0.73495 0.0
C317 C 0.65452 0.60293 0.70599 0.0
C318 C 0.78994 0.67066 0.77149 0.0
H319 H 0.12074 0.79393 0.70196 0.0
H320 H 0.00218 0.77076 0.69981 0.0
H321 H 0.88444 0.73689 0.79796 0.0
H322 H 0.54028 0.53526 0.78881 0.0
H323 H 0.65918 0.55944 0.79081 0.0
H324 H 0.77668 0.59428 0.69273 0.0
C325 C 0.02205 0.76374 0.72426 0.0
C326 C 0.86148 0.70575 0.77497 0.0
C327 C 0.09005 0.77795 0.7256 0.0
C328 C 0.57101 0.55188 0.76518 0.0
C329 C 0.63918 0.56662 0.76645 0.0
C330 C 0.79967 0.62542 0.71572 0.0
C331 C 0.97841 0.73432 0.75316 0.0
C332 C 0.90284 0.70115 0.74883 0.0
C333 C 0.68274 0.59664 0.73758 0.0
C334 C 0.75832 0.62999 0.74187 0.0
H335 H 0.09342 0.73111 0.80985 0.0
H336 H 0.97413 0.70592 0.8076 0.0
H337 H 0.90166 0.6545 0.699 0.0
H338 H 0.5673 0.59981 0.68119 0.0
H339 H 0.68688 0.62575 0.68329 0.0
C340 C 0.29973 0.07561 0.21485 0.0
C341 C 0.33438 0.105 0.24612 0.0
C342 C 0.2451 0.00818 0.21445 0.0
C343 C 0.13153 0.85681 0.2687 0.0
H344 H 0.17206 0.75856 0.19762 0.0
C345 C -0.00356 0.56654 0.27266 0.0
C346 C 0.96118 0.53576 0.24171 0.0
C347 C 0.04968 0.63465 0.27253 0.0
C348 C 0.16006 0.78535 0.21748 0.0
H349 H 0.33443 0.09112 0.302 0.0
H350 H 0.23901 0.97288 0.30136 0.0
H351 H 0.23642 0.884 0.19867 0.0
H352 H 0.95882 0.5482 0.18582 0.0
H353 H 0.05204 0.66762 0.18553 0.0
H354 H 0.05534 0.7581 0.28759 0.0
C355 C 0.25376 0.00167 0.27717 0.0
C356 C 0.19627 0.85708 0.21792 0.0
C357 C 0.30815 0.06951 0.2776 0.0
C358 C 0.98558 0.57086 0.20998 0.0
C359 C 0.03865 0.63935 0.20988 0.0
C360 C 0.09536 0.78509 0.26828 0.0
C361 C 0.2249 0.96921 0.24528 0.0
C362 C 0.18231 0.89348 0.24352 0.0
C363 C 0.06798 0.67289 0.24148 0.0
C364 C 0.10953 0.74871 0.24276 0.0
H365 H 0.31888 0.10254 0.19031 0.0
H366 H 0.22227 0.98488 0.18966 0.0
H367 H 0.1196 0.88357 0.28861 0.0
H368 H 0.97876 0.53998 0.2974 0.0
H369 H 0.07296 0.65887 0.29709 0.0
C370 C 0.23151 0.31573 0.71655 0.0
C371 C 0.23358 0.35041 0.74739 0.0
C372 C 0.24724 0.26302 0.71724 0.0
C373 C 0.28455 0.15216 0.77348 0.0
H374 H 0.4286 0.19446 0.7051 0.0
C375 C 0.43376 0.01072 0.77886 0.0
C376 C 0.43086 0.97737 0.74741 0.0
C377 C 0.42135 0.06567 0.77915 0.0
C378 C 0.38842 0.18202 0.72425 0.0
H379 H 0.24491 0.35198 0.80355 0.0
H380 H 0.27241 0.25966 0.80477 0.0
H381 H 0.36705 0.25863 0.70472 0.0
H382 H 0.42229 0.98051 0.69131 0.0
H383 H 0.39984 0.07618 0.69174 0.0
H384 H 0.3055 0.07524 0.79288 0.0
C385 C 0.25888 0.27321 0.78009 0.0
C386 C 0.35271 0.21816 0.72386 0.0
C387 C 0.24271 0.3258 0.77943 0.0
C388 C 0.42468 0.00542 0.71586 0.0
C389 C 0.41158 0.06009 0.71617 0.0
C390 C 0.32018 0.11594 0.77384 0.0
C391 C 0.26546 0.24453 0.74874 0.0
C392 C 0.30019 0.20328 0.74835 0.0
C393 C 0.4054 0.08757 0.74803 0.0
C394 C 0.37242 0.13049 0.74921 0.0
H395 H 0.22376 0.33341 0.69157 0.0
H396 H 0.25005 0.2402 0.69283 0.0
H397 H 0.24425 0.13966 0.79257 0.0
H398 H 0.43952 0.99044 0.80349 0.0
H399 H 0.41898 0.08748 0.80397 0.0
C400 C 0.40422 0.42416 0.27006 0.0
C401 C 0.43399 0.4178 0.23906 0.0
C402 C 0.33654 0.41096 0.27023 0.0
C403 C 0.18128 0.29376 0.22453 0.0
H404 H 0.09515 0.36993 0.28351 0.0
C405 C 0.89532 0.21439 0.22144 0.0
C406 C 0.86506 0.22119 0.25213 0.0
C407 C 0.96334 0.22865 0.22157 0.0
C408 C 0.11861 0.34737 0.26748 0.0
H409 H 0.4207 0.40222 0.18328 0.0
H410 H 0.30197 0.37959 0.18346 0.0
H411 H 0.22014 0.43206 0.27641 0.0
H412 H 0.87819 0.23938 0.30778 0.0
H413 H -0.00261 0.26341 0.30818 0.0
H414 H 0.07987 0.20895 0.21569 0.0
C415 C 0.33056 0.39348 0.20769 0.0
C416 C 0.18996 0.38344 0.26305 0.0
C417 C 0.39866 0.40728 0.20749 0.0
C418 C 0.90051 0.23365 0.2838 0.0
C419 C 0.96892 0.24839 0.28392 0.0
C420 C 0.10997 0.25764 0.229 0.0
C421 C 0.29777 0.39096 0.2394 0.0
C422 C 0.22191 0.35704 0.24146 0.0
C423 C 0.00202 0.25012 0.25243 0.0
C424 C 0.07794 0.2841 0.25051 0.0
H425 H 0.43093 0.43269 0.2947 0.0
H426 H 0.31272 0.40971 0.29504 0.0
H427 H 0.20476 0.27124 0.20848 0.0
H428 H 0.86859 0.20455 0.19674 0.0
H429 H -0.01266 0.22933 0.19692 0.0
C430 C 0.98118 0.41445 0.77447 0.0
C431 C 0.01609 0.4468 0.74359 0.0
C432 C 0.9273 0.34664 0.7738 0.0
C433 C 0.88677 0.19458 0.7238 0.0
H434 H 0.72684 0.10546 0.78429 0.0
C435 C 0.67832 0.90961 0.71719 0.0
C436 C 0.64322 0.87734 0.74803 0.0
C437 C 0.73206 0.97751 0.71785 0.0
C438 C 0.77218 0.12971 0.76778 0.0
H439 H 0.01726 0.43745 0.68742 0.0
H440 H 0.92204 0.31862 0.68616 0.0
H441 H 0.79044 0.2307 0.77981 0.0
H442 H 0.64163 0.88697 0.80419 0.0
H443 H 0.73664 0.00581 0.80544 0.0
H444 H 0.86857 0.09362 0.71179 0.0
C445 C 0.93721 0.34535 0.7109 0.0
C446 C 0.80793 0.20126 0.76489 0.0
C447 C -0.00907 0.41355 0.71156 0.0
C448 C 0.66812 0.91076 0.78007 0.0
C449 C 0.72171 0.979 0.78072 0.0
C450 C 0.85104 0.12304 0.7267 0.0
C451 C 0.90786 0.31022 0.74224 0.0
C452 C 0.86551 0.23436 0.74284 0.0
C453 C 0.7512 0.01406 0.74938 0.0
C454 C 0.79346 0.08993 0.74874 0.0
H455 H -0.00032 0.43943 0.79947 0.0
H456 H 0.90553 0.321 0.79835 0.0
H457 H 0.93212 0.21885 0.70729 0.0
H458 H 0.66001 0.88455 0.69219 0.0
H459 H 0.75394 0.00308 0.6933 0.0
loop_
_geom_bond_atom_site_label_1
_geom_bond_atom_site_label_2
_geom_bond_distance
_geom_bond_site_symmetry_2
_ccdc_geom_bond_type
O0 Zr5 2.207 . S
O0 C34 1.295 . S
O1 Zr5 2.133 . S
O1 Zr6 2.133 . S
O1 Zr7 2.133 . S
O2 Zr5 2.133 . S
O2 Zr11 2.133 . S
O2 Zr12 2.133 . S
O3 Zr5 2.133 . S
O3 Zr7 2.133 . S
O3 Zr12 2.133 . S
O4 Zr5 2.133 . S
O4 Zr6 2.133 . S
O4 Zr11 2.133 . S
Zr5 O0 2.207 . S
Zr5 O1 2.133 . S
Zr5 O2 2.133 . S
Zr5 O3 2.133 . S
Zr5 O4 2.133 . S
Zr5 O17 2.207 . S
Zr5 O30 2.207 . S
Zr5 O33 2.207 . S
Zr6 O1 2.133 . S
Zr6 O4 2.133 . S
Zr6 O8 2.133 . S
Zr6 O10 2.133 . S
Zr6 O22 2.207 . S
Zr6 O25 2.207 . S
Zr6 O35 2.207 . S
Zr6 O36 2.207 . S
Zr7 O1 2.133 . S
Zr7 O3 2.133 . S
Zr7 O9 2.133 . S
Zr7 O10 2.133 . S
Zr7 O19 2.207 . S
Zr7 O20 2.207 . S
Zr7 O27 2.207 . S
Zr7 O28 2.207 . S
O8 Zr6 2.133 . S
O8 Zr11 2.133 . S
O8 Zr13 2.133 . S
O9 Zr7 2.133 . S
O9 Zr12 2.133 . S
O9 Zr13 2.133 . S
O10 Zr6 2.133 . S
O10 Zr7 2.133 . S
O10 Zr13 2.133 . S
Zr11 O2 2.133 . S
Zr11 O4 2.133 . S
Zr11 O8 2.133 . S
Zr11 O14 2.133 . S
Zr11 O18 2.207 . S
Zr11 O21 2.207 . S
Zr11 O26 2.207 . S
Zr11 O29 2.207 . S
Zr12 O2 2.133 . S
Zr12 O3 2.133 . S
Zr12 O9 2.133 . S
Zr12 O14 2.133 . S
Zr12 O23 2.207 . S
Zr12 O24 2.207 . S
Zr12 O48 2.207 . S
Zr12 O49 2.207 . S
Zr13 O8 2.133 . S
Zr13 O9 2.133 . S
Zr13 O10 2.133 . S
Zr13 O14 2.133 . S
Zr13 O15 2.207 . S
Zr13 O16 2.207 . S
Zr13 O31 2.207 . S
Zr13 O32 2.207 . S
O14 Zr11 2.133 . S
O14 Zr12 2.133 . S
O14 Zr13 2.133 . S
O15 Zr13 2.207 . S
O15 C37 1.295 . S
O16 Zr13 2.207 . S
O16 C38 1.295 . S
O17 Zr5 2.207 . S
O17 C39 1.295 . S
O18 Zr11 2.207 . S
O18 C40 1.295 . S
O19 Zr7 2.207 . S
O19 C41 1.295 . S
O20 Zr7 2.207 . S
O20 C42 1.295 . S
O21 Zr11 2.207 . S
O21 C43 1.295 . S
O22 Zr6 2.207 . S
O22 C44 1.295 . S
O23 Zr12 2.207 . S
O23 C45 1.295 . S
O24 Zr12 2.207 . S
O24 C46 1.295 . S
O25 Zr6 2.207 . S
O25 C47 1.295 . S
O26 Zr11 2.207 . S
O26 C37 1.295 . S
O27 Zr7 2.207 . S
O27 C34 1.295 . S
O28 Zr7 2.207 . S
O28 C38 1.295 . S
O29 Zr11 2.207 . S
O29 C39 1.295 . S
O30 Zr5 2.207 . S
O30 C47 1.295 . S
O31 Zr13 2.207 . S
O31 C46 1.295 . S
O32 Zr13 2.207 . S
O32 C44 1.295 . S
O33 Zr5 2.207 . S
O33 C45 1.295 . S
C34 O0 1.295 . S
C34 O27 1.295 . S
O35 Zr6 2.207 . S
O35 C43 1.295 . S
O36 Zr6 2.207 . S
O36 C41 1.295 . S
C37 O15 1.295 . S
C37 O26 1.295 . S
C38 O16 1.295 . S
C38 O28 1.295 . S
C39 O17 1.295 . S
C39 O29 1.295 . S
C40 O18 1.295 . S
C40 O49 1.295 . S
C41 O19 1.295 . S
C41 O36 1.295 . S
C42 O20 1.295 . S
C42 O48 1.295 . S
C43 O21 1.295 . S
C43 O35 1.295 . S
C44 O22 1.295 . S
C44 O32 1.295 . S
C45 O23 1.295 . S
C45 O33 1.295 . S
C46 O24 1.295 . S
C46 O31 1.295 . S
C47 O25 1.295 . S
C47 O30 1.295 . S
O48 Zr12 2.207 . S
O48 C42 1.295 . S
O49 Zr12 2.207 . S
O49 C40 1.295 . S
O50 Zr55 2.207 . S
O50 C84 1.295 . S
O51 Zr55 2.133 . S
O51 Zr56 2.133 . S
O51 Zr57 2.133 . S
O52 Zr55 2.133 . S
O52 Zr61 2.133 . S
O52 Zr62 2.133 . S
O53 Zr55 2.133 . S
O53 Zr57 2.133 . S
O53 Zr62 2.133 . S
O54 Zr55 2.133 . S
O54 Zr56 2.133 . S
O54 Zr61 2.133 . S
Zr55 O50 2.207 . S
Zr55 O51 2.133 . S
Zr55 O52 2.133 . S
Zr55 O53 2.133 . S
Zr55 O54 2.133 . S
Zr55 O67 2.207 . S
Zr55 O80 2.207 . S
Zr55 O83 2.207 . S
Zr56 O51 2.133 . S
Zr56 O54 2.133 . S
Zr56 O58 2.133 . S
Zr56 O60 2.133 . S
Zr56 O72 2.207 . S
Zr56 O75 2.207 . S
Zr56 O85 2.207 . S
Zr56 O86 2.207 . S
Zr57 O51 2.133 . S
Zr57 O53 2.133 . S
Zr57 O59 2.133 . S
Zr57 O60 2.133 . S
Zr57 O69 2.207 . S
Zr57 O70 2.207 . S
Zr57 O77 2.207 . S
Zr57 O78 2.207 . S
O58 Zr56 2.133 . S
O58 Zr61 2.133 . S
O58 Zr63 2.133 . S
O59 Zr57 2.133 . S
O59 Zr62 2.133 . S
O59 Zr63 2.133 . S
O60 Zr56 2.133 . S
O60 Zr57 2.133 . S
O60 Zr63 2.133 . S
Zr61 O52 2.133 . S
Zr61 O54 2.133 . S
Zr61 O58 2.133 . S
Zr61 O64 2.133 . S
Zr61 O68 2.207 . S
Zr61 O71 2.207 . S
Zr61 O76 2.207 . S
Zr61 O79 2.207 . S
Zr62 O52 2.133 . S
Zr62 O53 2.133 . S
Zr62 O59 2.133 . S
Zr62 O64 2.133 . S
Zr62 O73 2.207 . S
Zr62 O74 2.207 . S
Zr62 O98 2.207 . S
Zr62 O99 2.207 . S
Zr63 O58 2.133 . S
Zr63 O59 2.133 . S
Zr63 O60 2.133 . S
Zr63 O64 2.133 . S
Zr63 O65 2.207 . S
Zr63 O66 2.207 . S
Zr63 O81 2.207 . S
Zr63 O82 2.207 . S
O64 Zr61 2.133 . S
O64 Zr62 2.133 . S
O64 Zr63 2.133 . S
O65 Zr63 2.207 . S
O65 C87 1.295 . S
O66 Zr63 2.207 . S
O66 C88 1.295 . S
O67 Zr55 2.207 . S
O67 C89 1.295 . S
O68 Zr61 2.207 . S
O68 C90 1.295 . S
O69 Zr57 2.207 . S
O69 C91 1.295 . S
O70 Zr57 2.207 . S
O70 C92 1.295 . S
O71 Zr61 2.207 . S
O71 C93 1.295 . S
O72 Zr56 2.207 . S
O72 C94 1.295 . S
O73 Zr62 2.207 . S
O73 C95 1.295 . S
O74 Zr62 2.207 . S
O74 C96 1.295 . S
O75 Zr56 2.207 . S
O75 C97 1.295 . S
O76 Zr61 2.207 . S
O76 C87 1.295 . S
O77 Zr57 2.207 . S
O77 C84 1.295 . S
O78 Zr57 2.207 . S
O78 C88 1.295 . S
O79 Zr61 2.207 . S
O79 C89 1.295 . S
O80 Zr55 2.207 . S
O80 C97 1.295 . S
O81 Zr63 2.207 . S
O81 C96 1.295 . S
O82 Zr63 2.207 . S
O82 C94 1.295 . S
O83 Zr55 2.207 . S
O83 C95 1.295 . S
C84 O50 1.295 . S
C84 O77 1.295 . S
O85 Zr56 2.207 . S
O85 C93 1.295 . S
O86 Zr56 2.207 . S
O86 C91 1.295 . S
C87 O65 1.295 . S
C87 O76 1.295 . S
C88 O66 1.295 . S
C88 O78 1.295 . S
C89 O67 1.295 . S
C89 O79 1.295 . S
C90 O68 1.295 . S
C90 O99 1.295 . S
C91 O69 1.295 . S
C91 O86 1.295 . S
C92 O70 1.295 . S
C92 O98 1.295 . S
C93 O71 1.295 . S
C93 O85 1.295 . S
C94 O72 1.295 . S
C94 O82 1.295 . S
C95 O73 1.295 . S
C95 O83 1.295 . S
C96 O74 1.295 . S
C96 O81 1.295 . S
C97 O75 1.295 . S
C97 O80 1.295 . S
O98 Zr62 2.207 . S
O98 C92 1.295 . S
O99 Zr62 2.207 . S
O99 C90 1.295 . S
C100 C101 1.349 . S
C100 C102 1.327 . S
C100 H125 0.950 . S
C101 C100 1.349 . S
C101 C117 1.349 . S
C102 C100 1.327 . S
C102 C121 1.429 . S
C102 H126 0.950 . S
C103 C120 1.574 1_566 S
C103 C122 1.368 . S
C103 H127 0.949 . S
H104 C108 0.949 . S
C105 C106 1.349 . S
C105 C107 1.327 . S
C105 H128 0.950 . S
C106 C105 1.349 . S
C106 C118 1.349 . S
C107 C105 1.327 . S
C107 C123 1.429 . S
C107 H129 0.950 . S
C108 H104 0.949 . S
C108 C116 1.574 1_554 S
C108 C124 1.368 . S
H109 C117 0.950 . S
H110 C115 0.950 . S
H111 C116 0.949 . S
H112 C118 0.950 . S
H113 C119 0.950 . S
H114 C120 0.949 . S
C115 H110 0.950 . S
C115 C117 1.327 . S
C115 C121 1.429 . S
C116 C108 1.574 1_556 S
C116 H111 0.949 . S
C116 C122 1.368 1_545 S
C117 C101 1.349 . S
C117 H109 0.950 . S
C117 C115 1.327 . S
C118 C106 1.349 . S
C118 H112 0.950 . S
C118 C119 1.327 . S
C119 H113 0.950 . S
C119 C118 1.327 . S
C119 C123 1.429 . S
C120 C103 1.574 1_544 S
C120 H114 0.949 . S
C120 C124 1.368 . S
C121 C102 1.429 . S
C121 C115 1.429 . S
C121 C122 1.523 . S
C122 C103 1.368 . S
C122 C116 1.368 1_565 S
C122 C121 1.523 . S
C123 C107 1.429 . S
C123 C119 1.429 . S
C123 C124 1.523 . S
C124 C108 1.368 . S
C124 C120 1.368 . S
C124 C123 1.523 . S
H125 C100 0.950 . S
H126 C102 0.950 . S
H127 C103 0.949 . S
H128 C105 0.950 . S
H129 C107 0.950 . S
C130 C131 1.349 . S
C130 C132 1.327 . S
C130 H155 0.950 . S
C131 C130 1.349 . S
C131 C147 1.349 . S
C132 C130 1.327 . S
C132 C151 1.429 . S
C132 H156 0.950 . S
C133 C150 1.574 . S
C133 C152 1.368 . S
C133 H157 0.949 . S
H134 C138 0.949 . S
C135 C136 1.349 . S
C135 C137 1.327 . S
C135 H158 0.950 . S
C136 C135 1.349 . S
C136 C148 1.349 . S
C137 C135 1.327 . S
C137 C153 1.429 . S
C137 H159 0.950 . S
C138 H134 0.949 . S
C138 C146 1.574 . S
C138 C154 1.368 . S
H139 C147 0.950 . S
H140 C145 0.950 . S
H141 C146 0.949 . S
H142 C148 0.950 . S
H143 C149 0.950 . S
H144 C150 0.949 . S
C145 H140 0.950 . S
C145 C147 1.327 . S
C145 C151 1.429 . S
C146 C138 1.574 . S
C146 H141 0.949 . S
C146 C152 1.368 . S
C147 C131 1.349 . S
C147 H139 0.950 . S
C147 C145 1.327 . S
C148 C136 1.349 . S
C148 H142 0.950 . S
C148 C149 1.327 . S
C149 H143 0.950 . S
C149 C148 1.327 . S
C149 C153 1.429 . S
C150 C133 1.574 . S
C150 H144 0.949 . S
C150 C154 1.368 . S
C151 C132 1.429 . S
C151 C145 1.429 . S
C151 C152 1.523 . S
C152 C133 1.368 . S
C152 C146 1.368 . S
C152 C151 1.523 . S
C153 C137 1.429 . S
C153 C149 1.429 . S
C153 C154 1.523 . S
C154 C138 1.368 . S
C154 C150 1.368 . S
C154 C153 1.523 . S
H155 C130 0.950 . S
H156 C132 0.950 . S
H157 C133 0.949 . S
H158 C135 0.950 . S
H159 C137 0.950 . S
C160 C161 1.349 . S
C160 C162 1.327 . S
C160 H185 0.950 . S
C161 C160 1.349 . S
C161 C177 1.349 . S
C162 C160 1.327 . S
C162 C181 1.429 . S
C162 H186 0.950 . S
C163 C180 1.574 1_654 S
C163 C182 1.368 . S
C163 H187 0.949 1_655 S
H164 C168 0.949 . S
C165 C166 1.349 . S
C165 C167 1.327 . S
C165 H188 0.950 . S
C166 C165 1.349 . S
C166 C178 1.349 . S
C167 C165 1.327 . S
C167 C183 1.429 . S
C167 H189 0.950 . S
C168 H164 0.949 . S
C168 C176 1.574 1_556 S
C168 C184 1.368 1_655 S
H169 C177 0.950 . S
H170 C175 0.950 . S
H171 C176 0.949 . S
H172 C178 0.950 . S
H173 C179 0.950 1_655 S
H174 C180 0.949 . S
C175 H170 0.950 . S
C175 C177 1.327 . S
C175 C181 1.429 . S
C176 C168 1.574 1_554 S
C176 H171 0.949 . S
C176 C182 1.368 . S
C177 C161 1.349 . S
C177 H169 0.950 . S
C177 C175 1.327 . S
C178 C166 1.349 . S
C178 H172 0.950 . S
C178 C179 1.327 . S
C179 H173 0.950 1_455 S
C179 C178 1.327 . S
C179 C183 1.429 . S
C180 C163 1.574 1_456 S
C180 H174 0.949 . S
C180 C184 1.368 . S
C181 C162 1.429 . S
C181 C175 1.429 . S
C181 C182 1.523 . S
C182 C163 1.368 . S
C182 C176 1.368 . S
C182 C181 1.523 . S
C183 C167 1.429 . S
C183 C179 1.429 . S
C183 C184 1.523 . S
C184 C168 1.368 1_455 S
C184 C180 1.368 . S
C184 C183 1.523 . S
H185 C160 0.950 . S
H186 C162 0.950 . S
H187 C163 0.949 1_455 S
H188 C165 0.950 . S
H189 C167 0.950 . S
C190 C191 1.349 . S
C190 C192 1.327 . S
C190 H215 0.950 . S
C191 C190 1.349 . S
C191 C207 1.349 . S
C192 C190 1.327 . S
C192 C211 1.429 . S
C192 H216 0.950 . S
C193 C210 1.574 1_565 S
C193 C212 1.368 . S
C193 H217 0.949 . S
H194 C198 0.949 . S
C195 C196 1.349 . S
C195 C197 1.327 . S
C195 H218 0.950 . S
C196 C195 1.349 . S
C196 C208 1.349 . S
C197 C195 1.327 . S
C197 C213 1.429 . S
C197 H219 0.950 . S
C198 H194 0.949 . S
C198 C206 1.574 . S
C198 C214 1.368 1_565 S
H199 C207 0.950 . S
H200 C205 0.950 . S
H201 C206 0.949 . S
H202 C208 0.950 . S
H203 C209 0.950 . S
H204 C210 0.949 . S
C205 H200 0.950 . S
C205 C207 1.327 . S
C205 C211 1.429 . S
C206 C198 1.574 . S
C206 H201 0.949 . S
C206 C212 1.368 . S
C207 C191 1.349 . S
C207 H199 0.950 . S
C207 C205 1.327 . S
C208 C196 1.349 . S
C208 H202 0.950 . S
C208 C209 1.327 . S
C209 H203 0.950 . S
C209 C208 1.327 . S
C209 C213 1.429 . S
C210 C193 1.574 1_545 S
C210 H204 0.949 . S
C210 C214 1.368 . S
C211 C192 1.429 . S
C211 C205 1.429 . S
C211 C212 1.523 . S
C212 C193 1.368 . S
C212 C206 1.368 . S
C212 C211 1.523 . S
C213 C197 1.429 . S
C213 C209 1.429 . S
C213 C214 1.523 . S
C214 C198 1.368 1_545 S
C214 C210 1.368 . S
C214 C213 1.523 . S
H215 C190 0.950 . S
H216 C192 0.950 . S
H217 C193 0.949 . S
H218 C195 0.950 . S
H219 C197 0.950 . S
C220 C221 1.349 . S
C220 C222 1.327 . S
C220 H245 0.950 . S
C221 C220 1.349 . S
C221 C237 1.349 . S
C222 C220 1.327 . S
C222 C241 1.429 . S
C222 H246 0.950 . S
C223 C240 1.574 1_554 S
C223 C242 1.368 . S
C223 H247 0.949 . S
H224 C228 0.949 . S
C225 C226 1.349 . S
C225 C227 1.327 . S
C225 H248 0.950 . S
C226 C225 1.349 . S
C226 C238 1.349 . S
C227 C225 1.327 . S
C227 C243 1.429 . S
C227 H249 0.950 . S
C228 H224 0.949 . S
C228 C236 1.574 1_556 S
C228 C244 1.368 . S
H229 C237 0.950 . S
H230 C235 0.950 . S
H231 C236 0.949 . S
H232 C238 0.950 . S
H233 C239 0.950 . S
H234 C240 0.949 . S
C235 H230 0.950 . S
C235 C237 1.327 . S
C235 C241 1.429 . S
C236 C228 1.574 1_554 S
C236 H231 0.949 . S
C236 C242 1.368 . S
C237 C221 1.349 . S
C237 H229 0.950 . S
C237 C235 1.327 . S
C238 C226 1.349 . S
C238 H232 0.950 . S
C238 C239 1.327 . S
C239 H233 0.950 . S
C239 C238 1.327 . S
C239 C243 1.429 . S
C240 C223 1.574 1_556 S
C240 H234 0.949 . S
C240 C244 1.368 . S
C241 C222 1.429 . S
C241 C235 1.429 . S
C241 C242 1.523 . S
C242 C223 1.368 . S
C242 C236 1.368 . S
C242 C241 1.523 . S
C243 C227 1.429 . S
C243 C239 1.429 . S
C243 C244 1.523 . S
C244 C228 1.368 . S
C244 C240 1.368 . S
C244 C243 1.523 . S
H245 C220 0.950 . S
H246 C222 0.950 . S
H247 C223 0.949 . S
H248 C225 0.950 . S
H249 C227 0.950 . S
C250 C251 1.349 . S
C250 C252 1.327 . S
C250 H275 0.950 . S
C251 C250 1.349 . S
C251 C267 1.349 . S
C252 C250 1.327 . S
C252 C271 1.429 . S
C252 H276 0.950 . S
C253 C270 1.574 . S
C253 C272 1.368 1_455 S
C253 H277 0.949 1_455 S
H254 C258 0.949 . S
C255 C256 1.349 . S
C255 C257 1.327 . S
C255 H278 0.950 . S
C256 C255 1.349 . S
C256 C268 1.349 . S
C257 C255 1.327 . S
C257 C273 1.429 . S
C257 H279 0.950 . S
C258 H254 0.949 . S
C258 C266 1.574 . S
C258 C274 1.368 . S
H259 C267 0.950 . S
H260 C265 0.950 . S
H261 C266 0.949 1_655 S
H262 C268 0.950 . S
H263 C269 0.950 . S
H264 C270 0.949 . S
C265 H260 0.950 . S
C265 C267 1.327 . S
C265 C271 1.429 . S
C266 C258 1.574 . S
C266 H261 0.949 1_455 S
C266 C272 1.368 1_455 S
C267 C251 1.349 . S
C267 H259 0.950 . S
C267 C265 1.327 . S
C268 C256 1.349 . S
C268 H262 0.950 . S
C268 C269 1.327 . S
C269 H263 0.950 . S
C269 C268 1.327 . S
C269 C273 1.429 . S
C270 C253 1.574 . S
C270 H264 0.949 . S
C270 C274 1.368 . S
C271 C252 1.429 . S
C271 C265 1.429 . S
C271 C272 1.523 . S
C272 C253 1.368 1_655 S
C272 C266 1.368 1_655 S
C272 C271 1.523 . S
C273 C257 1.429 . S
C273 C269 1.429 . S
C273 C274 1.523 . S
C274 C258 1.368 . S
C274 C270 1.368 . S
C274 C273 1.523 . S
H275 C250 0.950 . S
H276 C252 0.950 . S
H277 C253 0.949 1_655 S
H278 C255 0.950 . S
H279 C257 0.950 . S
C280 C281 1.349 . S
C280 C282 1.327 1_545 S
C280 H305 0.950 . S
C281 C280 1.349 . S
C281 C297 1.349 . S
C282 C280 1.327 1_565 S
C282 C301 1.429 . S
C282 H306 0.950 . S
C283 C300 1.574 . S
C283 C302 1.368 . S
C283 H307 0.949 . S
H284 C288 0.949 . S
C285 C286 1.349 . S
C285 C287 1.327 . S
C285 H308 0.950 . S
C286 C285 1.349 . S
C286 C298 1.349 . S
C287 C285 1.327 . S
C287 C303 1.429 . S
C287 H309 0.950 . S
C288 H284 0.949 . S
C288 C296 1.574 . S
C288 C304 1.368 . S
H289 C297 0.950 . S
H290 C295 0.950 . S
H291 C296 0.949 . S
H292 C298 0.950 . S
H293 C299 0.950 . S
H294 C300 0.949 . S
C295 H290 0.950 . S
C295 C297 1.327 . S
C295 C301 1.429 1_545 S
C296 C288 1.574 . S
C296 H291 0.949 . S
C296 C302 1.368 . S
C297 C281 1.349 . S
C297 H289 0.950 . S
C297 C295 1.327 . S
C298 C286 1.349 . S
C298 H292 0.950 . S
C298 C299 1.327 . S
C299 H293 0.950 . S
C299 C298 1.327 . S
C299 C303 1.429 . S
C300 C283 1.574 . S
C300 H294 0.949 . S
C300 C304 1.368 . S
C301 C282 1.429 . S
C301 C295 1.429 1_565 S
C301 C302 1.523 . S
C302 C283 1.368 . S
C302 C296 1.368 . S
C302 C301 1.523 . S
C303 C287 1.429 . S
C303 C299 1.429 . S
C303 C304 1.523 . S
C304 C288 1.368 . S
C304 C300 1.368 . S
C304 C303 1.523 . S
H305 C280 0.950 . S
H306 C282 0.950 . S
H307 C283 0.949 . S
H308 C285 0.950 . S
H309 C287 0.950 . S
C310 C311 1.349 . S
C310 C312 1.327 . S
C310 H335 0.950 . S
C311 C310 1.349 . S
C311 C327 1.349 . S
C312 C310 1.327 . S
C312 C331 1.429 1_455 S
C312 H336 0.950 . S
C313 C330 1.574 . S
C313 C332 1.368 . S
C313 H337 0.949 . S
H314 C318 0.949 . S
C315 C316 1.349 . S
C315 C317 1.327 . S
C315 H338 0.950 . S
C316 C315 1.349 . S
C316 C328 1.349 . S
C317 C315 1.327 . S
C317 C333 1.429 . S
C317 H339 0.950 . S
C318 H314 0.949 . S
C318 C326 1.574 . S
C318 C334 1.368 . S
H319 C327 0.950 . S
H320 C325 0.950 . S
H321 C326 0.949 . S
H322 C328 0.950 . S
H323 C329 0.950 . S
H324 C330 0.949 . S
C325 H320 0.950 . S
C325 C327 1.327 1_655 S
C325 C331 1.429 . S
C326 C318 1.574 . S
C326 H321 0.949 . S
C326 C332 1.368 . S
C327 C311 1.349 . S
C327 H319 0.950 . S
C327 C325 1.327 1_455 S
C328 C316 1.349 . S
C328 H322 0.950 . S
C328 C329 1.327 . S
C329 H323 0.950 . S
C329 C328 1.327 . S
C329 C333 1.429 . S
C330 C313 1.574 . S
C330 H324 0.949 . S
C330 C334 1.368 . S
C331 C312 1.429 1_655 S
C331 C325 1.429 . S
C331 C332 1.523 . S
C332 C313 1.368 . S
C332 C326 1.368 . S
C332 C331 1.523 . S
C333 C317 1.429 . S
C333 C329 1.429 . S
C333 C334 1.523 . S
C334 C318 1.368 . S
C334 C330 1.368 . S
C334 C333 1.523 . S
H335 C310 0.950 . S
H336 C312 0.950 . S
H337 C313 0.949 . S
H338 C315 0.950 . S
H339 C317 0.950 . S
C340 C341 1.349 . S
C340 C342 1.327 1_545 S
C340 H365 0.950 . S
C341 C340 1.349 . S
C341 C357 1.349 . S
C342 C340 1.327 1_565 S
C342 C361 1.429 . S
C342 H366 0.950 . S
C343 C360 1.574 . S
C343 C362 1.368 . S
C343 H367 0.949 . S
H344 C348 0.949 . S
C345 C346 1.349 . S
C345 C347 1.327 . S
C345 H368 0.950 . S
C346 C345 1.349 . S
C346 C358 1.349 . S
C347 C345 1.327 . S
C347 C363 1.429 1_655 S
C347 H369 0.950 . S
C348 H344 0.949 . S
C348 C356 1.574 . S
C348 C364 1.368 . S
H349 C357 0.950 . S
H350 C355 0.950 . S
H351 C356 0.949 . S
H352 C358 0.950 . S
H353 C359 0.950 . S
H354 C360 0.949 . S
C355 H350 0.950 . S
C355 C357 1.327 . S
C355 C361 1.429 1_545 S
C356 C348 1.574 . S
C356 H351 0.949 . S
C356 C362 1.368 . S
C357 C341 1.349 . S
C357 H349 0.950 . S
C357 C355 1.327 . S
C358 C346 1.349 . S
C358 H352 0.950 . S
C358 C359 1.327 1_655 S
C359 H353 0.950 . S
C359 C358 1.327 1_455 S
C359 C363 1.429 . S
C360 C343 1.574 . S
C360 H354 0.949 . S
C360 C364 1.368 . S
C361 C342 1.429 . S
C361 C355 1.429 1_565 S
C361 C362 1.523 . S
C362 C343 1.368 . S
C362 C356 1.368 . S
C362 C361 1.523 . S
C363 C347 1.429 1_455 S
C363 C359 1.429 . S
C363 C364 1.523 . S
C364 C348 1.368 . S
C364 C360 1.368 . S
C364 C363 1.523 . S
H365 C340 0.950 . S
H366 C342 0.950 . S
H367 C343 0.949 . S
H368 C345 0.950 . S
H369 C347 0.950 . S
C370 C371 1.349 . S
C370 C372 1.327 . S
C370 H395 0.950 . S
C371 C370 1.349 . S
C371 C387 1.349 . S
C372 C370 1.327 . S
C372 C391 1.429 . S
C372 H396 0.950 . S
C373 C390 1.574 . S
C373 C392 1.368 . S
C373 H397 0.949 . S
H374 C378 0.949 . S
C375 C376 1.349 . S
C375 C377 1.327 . S
C375 H398 0.950 . S
C376 C375 1.349 . S
C376 C388 1.349 . S
C377 C375 1.327 . S
C377 C393 1.429 1_565 S
C377 H399 0.950 . S
C378 H374 0.949 . S
C378 C386 1.574 . S
C378 C394 1.368 . S
H379 C387 0.950 . S
H380 C385 0.950 . S
H381 C386 0.949 . S
H382 C388 0.950 . S
H383 C389 0.950 . S
H384 C390 0.949 . S
C385 H380 0.950 . S
C385 C387 1.327 . S
C385 C391 1.429 . S
C386 C378 1.574 . S
C386 H381 0.949 . S
C386 C392 1.368 . S
C387 C371 1.349 . S
C387 H379 0.950 . S
C387 C385 1.327 . S
C388 C376 1.349 . S
C388 H382 0.950 . S
C388 C389 1.327 1_565 S
C389 H383 0.950 . S
C389 C388 1.327 1_545 S
C389 C393 1.429 . S
C390 C373 1.574 . S
C390 H384 0.949 . S
C390 C394 1.368 . S
C391 C372 1.429 . S
C391 C385 1.429 . S
C391 C392 1.523 . S
C392 C373 1.368 . S
C392 C386 1.368 . S
C392 C391 1.523 . S
C393 C377 1.429 1_545 S
C393 C389 1.429 . S
C393 C394 1.523 . S
C394 C378 1.368 . S
C394 C390 1.368 . S
C394 C393 1.523 . S
H395 C370 0.950 . S
H396 C372 0.950 . S
H397 C373 0.949 . S
H398 C375 0.950 . S
H399 C377 0.950 . S
C400 C401 1.349 . S
C400 C402 1.327 . S
C400 H425 0.950 . S
C401 C400 1.349 . S
C401 C417 1.349 . S
C402 C400 1.327 . S
C402 C421 1.429 . S
C402 H426 0.950 . S
C403 C420 1.574 . S
C403 C422 1.368 . S
C403 H427 0.949 . S
H404 C408 0.949 . S
C405 C406 1.349 . S
C405 C407 1.327 . S
C405 H428 0.950 . S
C406 C405 1.349 . S
C406 C418 1.349 . S
C407 C405 1.327 . S
C407 C423 1.429 1_655 S
C407 H429 0.950 . S
C408 H404 0.949 . S
C408 C416 1.574 . S
C408 C424 1.368 . S
H409 C417 0.950 . S
H410 C415 0.950 . S
H411 C416 0.949 . S
H412 C418 0.950 . S
H413 C419 0.950 . S
H414 C420 0.949 . S
C415 H410 0.950 . S
C415 C417 1.327 . S
C415 C421 1.429 . S
C416 C408 1.574 . S
C416 H411 0.949 . S
C416 C422 1.368 . S
C417 C401 1.349 . S
C417 H409 0.950 . S
C417 C415 1.327 . S
C418 C406 1.349 . S
C418 H412 0.950 . S
C418 C419 1.327 1_655 S
C419 H413 0.950 . S
C419 C418 1.327 1_455 S
C419 C423 1.429 . S
C420 C403 1.574 . S
C420 H414 0.949 . S
C420 C424 1.368 . S
C421 C402 1.429 . S
C421 C415 1.429 . S
C421 C422 1.523 . S
C422 C403 1.368 . S
C422 C416 1.368 . S
C422 C421 1.523 . S
C423 C407 1.429 1_455 S
C423 C419 1.429 . S
C423 C424 1.523 . S
C424 C408 1.368 . S
C424 C420 1.368 . S
C424 C423 1.523 . S
H425 C400 0.950 . S
H426 C402 0.950 . S
H427 C403 0.949 . S
H428 C405 0.950 . S
H429 C407 0.950 . S
C430 C431 1.349 . S
C430 C432 1.327 1_455 S
C430 H455 0.950 . S
C431 C430 1.349 . S
C431 C447 1.349 . S
C432 C430 1.327 1_655 S
C432 C451 1.429 . S
C432 H456 0.950 . S
C433 C450 1.574 . S
C433 C452 1.368 . S
C433 H457 0.949 . S
H434 C438 0.949 . S
C435 C436 1.349 . S
C435 C437 1.327 . S
C435 H458 0.950 . S
C436 C435 1.349 . S
C436 C448 1.349 . S
C437 C435 1.327 . S
C437 C453 1.429 1_565 S
C437 H459 0.950 . S
C438 H434 0.949 . S
C438 C446 1.574 . S
C438 C454 1.368 . S
H439 C447 0.950 . S
H440 C445 0.950 . S
H441 C446 0.949 . S
H442 C448 0.950 . S
H443 C449 0.950 . S
H444 C450 0.949 . S
C445 H440 0.950 . S
C445 C447 1.327 . S
C445 C451 1.429 1_455 S
C446 C438 1.574 . S
C446 H441 0.949 . S
C446 C452 1.368 . S
C447 C431 1.349 . S
C447 H439 0.950 . S
C447 C445 1.327 . S
C448 C436 1.349 . S
C448 H442 0.950 . S
C448 C449 1.327 1_565 S
C449 H443 0.950 . S
C449 C448 1.327 1_545 S
C449 C453 1.429 . S
C450 C433 1.574 . S
C450 H444 0.949 . S
C450 C454 1.368 . S
C451 C432 1.429 . S
C451 C445 1.429 1_655 S
C451 C452 1.523 . S
C452 C433 1.368 . S
C452 C446 1.368 . S
C452 C451 1.523 . S
C453 C437 1.429 1_545 S
C453 C449 1.429 . S
C453 C454 1.523 . S
C454 C438 1.368 . S
C454 C450 1.368 . S
C454 C453 1.523 . S
H455 C430 0.950 . S
H456 C432 0.950 . S
H457 C433 0.949 . S
H458 C435 0.950 . S
H459 C437 0.950 . S
C101 C84 1.786 . S
C106 C34 1.687 . S
C131 C96 1.687 . S
C136 C37 1.786 . S
C161 C45 1.687 . S
C166 C97 1.786 . S
C191 C90 1.687 . S
C196 C44 1.786 . S
C221 C42 1.687 . S
C226 C91 1.786 . S
C251 C43 1.786 . S
C256 C87 1.687 . S
C281 C41 1.020 . S
C286 C40 1.020 . S
C311 C89 1.020 . S
C316 C88 1.020 . S
C341 C38 1.020 . S
C346 C39 1.020 . S
C371 C94 1.020 . S
C376 C95 1.020 . S
C401 C46 1.020 . S
C406 C47 1.020 . S
C431 C93 1.020 . S
C436 C92 1.020 . S
