# Generated by pormake.
# Topology upa, (4)-cn, num edge types: 1
# Building blocks:
#     Node 0, Type 0, BuildingBlock: ICAMEG_clean_sbu_1, # of connection points: 4
#     Node 1, Type 0, BuildingBlock: ICAMEG_clean_sbu_1, # of connection points: 4
#     Node 2, Type 0, BuildingBlock: ICAMEG_clean_sbu_1, # of connection points: 4
#     Node 3, Type 0, BuildingBlock: ICAMEG_clean_sbu_1, # of connection points: 4
#     Node 4, Type 0, BuildingBlock: ICAMEG_clean_sbu_1, # of connection points: 4
#     Node 5, Type 0, BuildingBlock: ICAMEG_clean_sbu_1, # of connection points: 4
#     Node 6, Type 0, BuildingBlock: ICAMEG_clean_sbu_1, # of connection points: 4
#     Node 7, Type 0, BuildingBlock: ICAMEG_clean_sbu_1, # of connection points: 4
#     Edge 8, Type (0, 0), BuildingBlock: EZIPEK_clean_linker_0, # of connection points: 2
#     Edge 9, Type (0, 0), BuildingBlock: EZIPEK_clean_linker_0, # of connection points: 2
#     Edge 10, Type (0, 0), BuildingBlock: EZIPEK_clean_linker_0, # of connection points: 2
#     Edge 11, Type (0, 0), BuildingBlock: EZIPEK_clean_linker_0, # of connection points: 2
#     Edge 12, Type (0, 0), BuildingBlock: EZIPEK_clean_linker_0, # of connection points: 2
#     Edge 13, Type (0, 0), BuildingBlock: EZIPEK_clean_linker_0, # of connection points: 2
#     Edge 14, Type (0, 0), BuildingBlock: EZIPEK_clean_linker_0, # of connection points: 2
#     Edge 15, Type (0, 0), BuildingBlock: EZIPEK_clean_linker_0, # of connection points: 2
#     Edge 16, Type (0, 0), BuildingBlock: EZIPEK_clean_linker_0, # of connection points: 2
#     Edge 17, Type (0, 0), BuildingBlock: EZIPEK_clean_linker_0, # of connection points: 2
#     Edge 18, Type (0, 0), BuildingBlock: EZIPEK_clean_linker_0, # of connection points: 2
#     Edge 19, Type (0, 0), BuildingBlock: EZIPEK_clean_linker_0, # of connection points: 2
#     Edge 20, Type (0, 0), BuildingBlock: EZIPEK_clean_linker_0, # of connection points: 2
#     Edge 21, Type (0, 0), BuildingBlock: EZIPEK_clean_linker_0, # of connection points: 2
#     Edge 22, Type (0, 0), BuildingBlock: EZIPEK_clean_linker_0, # of connection points: 2
#     Edge 23, Type (0, 0), BuildingBlock: EZIPEK_clean_linker_0, # of connection points: 2
# Relax obj value: 0.133
# Max RMSD: 0.083
# Mean RMSD: 0.083
data_MOF--net-upa--node1-ICAMEG_clean_sbu_1--edge1-EZIPEK_clean_linker_0
_symmetry_space_group_name_H-M    P1
_symmetry_Int_Tables_number       1
_symmetry_cell_setting            triclinic
loop_
_symmetry_equiv_pos_as_xyz
'x, y, z'
_cell_length_a     19.253465
_cell_length_b     19.318951
_cell_length_c     38.399002
_cell_angle_alpha  90.219691
_cell_angle_beta   89.939688
_cell_angle_gamma 89.992145
loop_
_atom_site_label
_atom_site_type_symbol
_atom_site_fract_x
_atom_site_fract_y
_atom_site_fract_z
_atom_type_partial_charge
Co0 Co 0.1475 0.2801 0.36202 0.0
Co1 Co 0.23016 0.15369 0.31158 0.0
O2 O 0.23059 0.23163 0.34459 0.0
C3 C 0.20898 0.221 0.42575 0.0
O4 O 0.22235 0.16509 0.40752 0.0
C5 C 0.34249 0.25126 0.28328 0.0
O6 O 0.31117 0.30646 0.29556 0.0
O7 O 0.16209 0.20422 0.28011 0.0
O8 O 0.11047 0.28601 0.31352 0.0
H9 H 0.12111 0.96853 0.23662 0.0
H10 H 0.28992 0.32805 0.37814 0.0
O11 O 0.18195 0.2736 0.41128 0.0
H12 H 0.16687 0.53377 0.33434 0.0
H13 H 0.02021 0.44906 0.43964 0.0
H14 H 0.99708 0.2824 0.343 0.0
H15 H 0.10991 0.41942 0.33412 0.0
H16 H 0.12225 0.38509 0.4181 0.0
O17 O 0.31398 0.19195 0.28613 0.0
H18 H 0.12131 0.06279 0.27983 0.0
H19 H 0.34163 0.07166 0.27596 0.0
H20 H 0.89396 0.34533 0.36363 0.0
H21 H 0.35041 0.44054 0.37685 0.0
H22 H 0.90504 0.4298 0.41223 0.0
H23 H 0.28819 0.54478 0.35553 0.0
O24 O 0.09552 0.19148 0.36847 0.0
H25 H 0.44009 0.13103 0.3886 0.0
H26 H 0.23758 1.00951 0.33909 0.0
H27 H 0.3179 0.94641 0.37751 0.0
H28 H 0.42028 1.00711 0.40244 0.0
H29 H 0.35816 0.19233 0.3503 0.0
H30 H 0.34381 0.97468 0.23456 0.0
H31 H 0.233 0.92399 0.21341 0.0
O32 O 0.14995 0.11052 0.33629 0.0
C33 C 0.11708 0.25288 0.28479 0.0
C34 C 0.16973 0.99144 0.24487 0.0
C35 C 0.29461 0.99519 0.24347 0.0
N36 N 0.23103 0.07589 0.27909 0.0
C37 C 0.17016 0.04536 0.26918 0.0
C38 C 0.29292 0.05046 0.26696 0.0
C39 C 0.23249 0.96648 0.23184 0.0
C40 C 0.26317 0.3728 0.36803 0.0
N41 N 0.19637 0.36721 0.35641 0.0
C42 C 0.2975 0.43647 0.36758 0.0
C43 C 0.26256 0.49493 0.35566 0.0
C44 C 0.19454 0.48874 0.34367 0.0
C45 C 0.16265 0.4238 0.34347 0.0
C46 C 0.01462 0.4121 0.41857 0.0
C47 C 1.00256 0.31821 0.36434 0.0
C48 C 0.0722 0.37517 0.4064 0.0
N49 N 0.06589 0.32904 0.37944 0.0
C50 C 0.94382 0.35404 0.37588 0.0
C51 C 0.95005 0.40137 0.40315 0.0
C52 C 0.10191 0.12978 0.35693 0.0
C53 C 0.39584 0.10393 0.3778 0.0
C54 C 0.28192 0.0364 0.34985 0.0
C55 C 0.32726 1.00034 0.37159 0.0
C56 C 0.38465 0.03443 0.38558 0.0
N57 N 0.29338 0.1045 0.34217 0.0
C58 C 0.34936 0.13834 0.35596 0.0
Co59 Co 0.25206 0.64076 0.8699 0.0
Co60 Co 0.36648 0.70846 0.80762 0.0
O61 O 0.29212 0.71935 0.84312 0.0
C62 C 0.27076 0.75694 0.92293 0.0
O63 O 0.29127 0.80088 0.89916 0.0
C64 C 0.2612 0.80757 0.7758 0.0
O65 O 0.20953 0.77639 0.79149 0.0
O66 O 0.31603 0.62942 0.7849 0.0
O67 O 0.254 0.58023 0.82769 0.0
H68 H 0.59184 0.60907 0.75848 0.0
H69 H 0.17849 0.77744 0.86959 0.0
O70 O 0.25102 0.6961 0.91447 0.0
H71 H 1.00382 0.60577 0.8334 0.0
H72 H 0.09083 0.52927 0.95678 0.0
H73 H 0.27372 0.4877 0.86927 0.0
H74 H 0.12514 0.57081 0.84286 0.0
H75 H 0.14304 0.62642 0.92485 0.0
O76 O 0.32186 0.78093 0.77665 0.0
H77 H 0.51231 0.64045 0.80475 0.0
H78 H 0.37054 0.72155 0.73068 0.0
H79 H 0.22153 0.38881 0.89983 0.0
H80 H 0.05809 0.81482 0.85981 0.0
H81 H 0.12942 0.40912 0.94404 0.0
H82 H 0.96921 0.72846 0.84215 0.0
O83 O 0.34647 0.60811 0.88334 0.0
H84 H 0.37969 0.94528 0.86158 0.0
H85 H 0.51927 0.74532 0.82476 0.0
H86 H 0.57717 0.84569 0.84938 0.0
H87 H 0.50789 0.94739 0.86836 0.0
H88 H 0.32323 0.84334 0.83634 0.0
H89 H 0.44822 0.68923 0.68377 0.0
H90 H 0.56111 0.63343 0.697 0.0
O91 O 0.41464 0.64273 0.83938 0.0
C92 C 0.27887 0.58036 0.79703 0.0
C93 C 0.54431 0.63636 0.75232 0.0
C94 C 0.46429 0.6818 0.71048 0.0
N95 N 0.43846 0.69193 0.77182 0.0
C96 C 0.49853 0.65599 0.77882 0.0
C97 C 0.42071 0.7022 0.73769 0.0
C98 C 0.5271 0.64975 0.7179 0.0
C99 C 0.14064 0.73953 0.86181 0.0
N100 N 0.15902 0.67172 0.85764 0.0
C101 C 0.07229 0.76105 0.85625 0.0
C102 C 0.02249 0.71263 0.84626 0.0
C103 C 0.04192 0.64391 0.84112 0.0
C104 C 0.1109 0.62447 0.84652 0.0
C105 C 0.13128 0.51972 0.93777 0.0
C106 C 0.23378 0.49733 0.88847 0.0
C107 C 0.16181 0.5748 0.91997 0.0
N108 N 0.21266 0.56341 0.89572 0.0
C109 C 0.20443 0.44093 0.90574 0.0
C110 C 0.15283 0.45234 0.93056 0.0
C111 C 0.40501 0.61067 0.86797 0.0
C112 C 0.41066 0.90128 0.8535 0.0
C113 C 0.48751 0.788 0.83229 0.0
C114 C 0.52123 0.84551 0.84659 0.0
C115 C 0.48244 0.90249 0.85727 0.0
N116 N 0.41679 0.78642 0.82879 0.0
C117 C 0.37885 0.84286 0.83911 0.0
Co118 Co 0.88724 0.76062 0.37185 0.0
Co119 Co 0.79299 0.86259 0.31386 0.0
O120 O 0.79839 0.78807 0.34935 0.0
C121 C 0.77971 0.7565 0.42982 0.0
O122 O 0.72851 0.76496 0.40793 0.0
C123 C 0.67577 0.7622 0.29161 0.0
O124 O 0.68795 0.71953 0.31739 0.0
O125 O 0.86752 0.81476 0.28558 0.0
O126 O 0.93822 0.77322 0.3271 0.0
H127 H 0.90041 0.02227 0.22662 0.0
H128 H 0.7652 0.66311 0.37662 0.0
O129 O 0.84201 0.75001 0.41903 0.0
H130 H 0.95691 0.52525 0.32751 0.0
H131 H 0.04078 0.62029 0.45111 0.0
H132 H 0.03264 0.81161 0.36664 0.0
H133 H 0.97206 0.64979 0.33891 0.0
H134 H 0.93028 0.65355 0.42355 0.0
O135 O 0.71582 0.81401 0.28629 0.0
H136 H 0.90033 0.93786 0.27427 0.0
H137 H 0.67964 0.93757 0.27519 0.0
H138 H 0.14436 0.7796 0.39324 0.0
H139 H 0.74848 0.53877 0.36654 0.0
H140 H 0.14901 0.68331 0.43588 0.0
H141 H 0.845 0.46848 0.34216 0.0
O142 O 0.90695 0.85824 0.3846 0.0
H143 H 0.58771 0.87647 0.39568 0.0
H144 H 0.75769 1.01151 0.32845 0.0
H145 H 0.67064 0.07231 0.36389 0.0
H146 H 0.58472 1.00488 0.3981 0.0
H147 H 0.67386 0.81817 0.35876 0.0
H148 H 0.67783 0.0295 0.23094 0.0
H149 H 0.78938 0.07511 0.20782 0.0
O150 O 0.86627 0.91826 0.33935 0.0
C151 C 0.92612 0.79076 0.29581 0.0
C152 C 0.85178 1.00577 0.23802 0.0
C153 C 0.72685 1.00898 0.24005 0.0
N154 N 0.79013 0.93369 0.27822 0.0
C155 C 0.85134 0.95714 0.26469 0.0
C156 C 0.72826 0.9571 0.26523 0.0
C157 C 0.78926 0.03395 0.22675 0.0
C158 C 0.80774 0.63347 0.36643 0.0
N159 N 0.87017 0.66405 0.35952 0.0
C160 C 0.79788 0.56273 0.36058 0.0
C161 C 0.85202 0.52329 0.34689 0.0
C162 C 0.91467 0.55517 0.33854 0.0
C163 C 0.9227 0.62597 0.34487 0.0
C164 C 0.03942 0.66249 0.43267 0.0
C165 C 0.0341 0.76947 0.38503 0.0
C166 C 0.97683 0.68189 0.41715 0.0
N167 N 0.97467 0.73475 0.3936 0.0
C168 C 0.09759 0.75168 0.40009 0.0
C169 C 0.10014 0.69776 0.42405 0.0
C170 C 0.90174 0.91417 0.36752 0.0
C171 C 0.62522 0.90658 0.38118 0.0
C172 C 0.72071 0.9813 0.34304 0.0
C173 C 0.67138 0.0163 0.36319 0.0
C174 C 0.62338 0.97853 0.38243 0.0
N175 N 0.72241 0.91055 0.34174 0.0
C176 C 0.67542 0.87353 0.36073 0.0
Co177 Co 0.79204 0.40254 0.86417 0.0
Co178 Co 0.66884 0.32444 0.80919 0.0
O179 O 0.74482 0.32024 0.84396 0.0
C180 C 0.76024 0.30971 0.92616 0.0
O181 O 0.74094 0.25822 0.90619 0.0
C182 C 0.75854 0.20126 0.78531 0.0
O183 O 0.80558 0.21455 0.80905 0.0
O184 O 0.72311 0.39221 0.78009 0.0
O185 O 0.79724 0.44501 0.81666 0.0
H186 H 0.50312 0.45128 0.7311 0.0
H187 H 0.8481 0.25847 0.8738 0.0
O188 O 0.78432 0.36545 0.9132 0.0
H189 H 0.04652 0.39729 0.83342 0.0
H190 H 0.95713 0.52554 0.94546 0.0
H191 H 0.7922 0.55438 0.84876 0.0
H192 H 0.9308 0.44967 0.83921 0.0
H193 H 0.89548 0.42489 0.92121 0.0
O194 O 0.70663 0.24189 0.78134 0.0
H195 H 0.59656 0.44068 0.77449 0.0
H196 H 0.58011 0.22143 0.771 0.0
H197 H 0.85308 0.65622 0.87203 0.0
H198 H 0.96294 0.2043 0.86911 0.0
H199 H 0.93688 0.64226 0.92059 0.0
H200 H 0.0637 0.27389 0.84913 0.0
O201 O 0.70167 0.4504 0.87244 0.0
H202 H 0.63098 0.12117 0.88913 0.0
H203 H 0.51993 0.31883 0.83064 0.0
H204 H 0.44959 0.2429 0.8679 0.0
H205 H 0.505 0.14317 0.89761 0.0
H206 H 0.69908 0.19751 0.85102 0.0
H207 H 0.48485 0.22989 0.72854 0.0
H208 H 0.44624 0.34551 0.70797 0.0
O209 O 0.62573 0.40282 0.83496 0.0
C210 C 0.76805 0.43936 0.7868 0.0
C211 C 0.51988 0.4006 0.73962 0.0
C212 C 0.50993 0.27637 0.73801 0.0
N213 N 0.59442 0.33048 0.77512 0.0
C214 C 0.57272 0.39422 0.76426 0.0
C215 C 0.56395 0.27191 0.76212 0.0
C216 C 0.48823 0.3412 0.72652 0.0
C217 C 0.89098 0.28945 0.86515 0.0
N218 N 0.88185 0.35759 0.85697 0.0
C219 C 0.95628 0.2583 0.86247 0.0
C220 C 1.01279 0.2973 0.85125 0.0
C221 C 1.00311 0.36638 0.84229 0.0
C222 C 0.93699 0.3956 0.84518 0.0
C223 C 0.92048 0.5324 0.92441 0.0
C224 C 0.82732 0.54765 0.8702 0.0
C225 C 0.88463 0.47558 0.91079 0.0
N226 N 0.83874 0.48344 0.88387 0.0
C227 C 0.86216 0.60567 0.88319 0.0
C228 C 0.90914 0.59783 0.91044 0.0
C229 C 0.64164 0.44595 0.85868 0.0
C230 C 0.60607 0.16421 0.8762 0.0
C231 C 0.54449 0.27484 0.84284 0.0
C232 C 0.5043 0.23227 0.86418 0.0
C233 C 0.53543 0.17653 0.88092 0.0
N234 N 0.61373 0.26199 0.83788 0.0
C235 C 0.64456 0.20793 0.85464 0.0
Co236 Co 0.6536 0.25044 0.13764 0.0
Co237 Co 0.72169 0.37278 0.19568 0.0
O238 O 0.7318 0.30141 0.15894 0.0
C239 C 0.71952 0.3142 0.07567 0.0
O240 O 0.72421 0.37244 0.09308 0.0
C241 C 0.8539 0.29271 0.21345 0.0
O242 O 0.84069 0.24894 0.18815 0.0
O243 O 0.65979 0.30961 0.22377 0.0
O244 O 0.60801 0.24048 0.18454 0.0
H245 H 0.58203 0.51395 0.28074 0.0
H246 H 0.79844 0.20749 0.1245 0.0
O247 O 0.69595 0.26006 0.09021 0.0
H248 H 0.67525 0.9938 0.15727 0.0
H249 H 0.54258 0.08359 0.05282 0.0
H250 H 0.5007 0.24655 0.14953 0.0
H251 H 0.61597 0.10644 0.15948 0.0
H252 H 0.63974 0.14761 0.07929 0.0
O253 O 0.80945 0.33976 0.2212 0.0
H254 H 0.6001 0.4286 0.23382 0.0
H255 H 0.81699 0.46795 0.23536 0.0
H256 H 0.40238 0.18265 0.12426 0.0
H257 H 0.8605 0.09593 0.12234 0.0
H258 H 0.42292 0.10016 0.07557 0.0
H259 H 0.79823 0.98771 0.13786 0.0
O260 O 0.60113 0.33771 0.13036 0.0
H261 H 0.91906 0.4368 0.11524 0.0
H262 H 0.714 0.52307 0.17883 0.0
H263 H 0.78408 0.60414 0.14427 0.0
H264 H 0.88783 0.56132 0.11227 0.0
H265 H 0.84802 0.35764 0.15022 0.0
H266 H 0.80087 0.55588 0.28101 0.0
H267 H 0.683 0.57747 0.30515 0.0
O268 O 0.63788 0.41126 0.17197 0.0
C269 C 0.61316 0.26502 0.21552 0.0
C270 C 0.63387 0.50394 0.27102 0.0
C271 C 0.75675 0.52688 0.27148 0.0
N272 N 0.70981 0.44232 0.23204 0.0
C273 C 0.64449 0.45571 0.24436 0.0
C274 C 0.76558 0.47716 0.24539 0.0
C275 C 0.69056 0.53941 0.28477 0.0
C276 C 0.77191 0.16108 0.1328 0.0
N277 N 0.70418 0.16408 0.14337 0.0
C278 C 0.80701 0.09787 0.13098 0.0
C279 C 0.772 0.03716 0.13956 0.0
C280 C 0.70314 0.04059 0.15064 0.0
C281 C 0.6702 0.1049 0.15275 0.0
C282 C 0.53295 0.11935 0.07405 0.0
C283 C 0.51037 0.21089 0.12846 0.0
C284 C 0.58778 0.15622 0.08904 0.0
N285 N 0.5763 0.20088 0.11622 0.0
C286 C 0.45431 0.17482 0.11416 0.0
C287 C 0.46584 0.12862 0.08683 0.0
C288 C 0.59863 0.39524 0.14655 0.0
C289 C 0.87459 0.45632 0.12948 0.0
C290 C 0.75979 0.504 0.16563 0.0
C291 C 0.79898 0.55021 0.1458 0.0
C292 C 0.85699 0.52614 0.12777 0.0
N293 N 0.77833 0.43578 0.16801 0.0
C294 C 0.83415 0.41161 0.14959 0.0
Co295 Co 0.27897 0.13166 0.63624 0.0
Co296 Co 0.1552 0.19877 0.69415 0.0
O297 O 0.23015 0.2092 0.65942 0.0
C298 C 0.21867 0.20579 0.57616 0.0
O299 O 0.16282 0.21587 0.59494 0.0
C300 C 0.2416 0.32185 0.72008 0.0
O301 O 0.28732 0.31263 0.69518 0.0
O302 O 0.21111 0.12761 0.72038 0.0
O303 O 0.28532 0.08111 0.6818 0.0
H304 H 0.99644 0.05723 0.76964 0.0
H305 H 0.3269 0.27564 0.62754 0.0
O306 O 0.27205 0.17799 0.5896 0.0
H307 H 0.53352 0.14659 0.6663 0.0
H308 H 0.44703 0.02774 0.54978 0.0
H309 H 0.28026 0.9777 0.64355 0.0
H310 H 0.42053 0.08835 0.6602 0.0
H311 H 0.38453 0.12242 0.57915 0.0
O312 O 0.19229 0.27818 0.72441 0.0
H313 H 0.0872 0.07628 0.72543 0.0
H314 H 0.06515 0.29396 0.737 0.0
H315 H 0.34257 0.88159 0.61539 0.0
H316 H 0.43923 0.33618 0.63262 0.0
H317 H 0.42711 0.90624 0.56815 0.0
H318 H 0.54371 0.27139 0.65188 0.0
O319 O 0.18967 0.08288 0.62653 0.0
H320 H 0.11457 0.40875 0.6188 0.0
H321 H 1.00477 0.20894 0.67605 0.0
H322 H 0.93246 0.29028 0.643 0.0
H323 H 0.98718 0.39128 0.61404 0.0
H324 H 0.18477 0.32737 0.65278 0.0
H325 H 0.97273 0.27706 0.78035 0.0
H326 H 0.93918 0.15797 0.79779 0.0
O327 O 0.11265 0.12359 0.66573 0.0
C328 C 0.25647 0.08188 0.71192 0.0
C329 C 1.01141 0.10936 0.76267 0.0
C330 C 0.99855 0.23272 0.76894 0.0
N331 N 0.08191 0.18628 0.72857 0.0
C332 C 0.06263 0.12057 0.73753 0.0
C333 C 0.05084 0.242 0.74418 0.0
C334 C 0.97938 0.16592 0.77851 0.0
C335 C 0.37182 0.24745 0.63659 0.0
N336 N 0.3665 0.17886 0.64469 0.0
C337 C 0.43541 0.28187 0.63915 0.0
C338 C 0.49401 0.24549 0.64992 0.0
C339 C 0.48825 0.17559 0.65821 0.0
C340 C 0.42371 0.14305 0.65547 0.0
C341 C 0.41037 0.01627 0.57034 0.0
C342 C 0.31629 0.98908 0.623 0.0
C343 C 0.37415 0.06972 0.58691 0.0
N344 N 0.32787 0.0559 0.61308 0.0
C345 C 0.35174 0.93431 0.60713 0.0
C346 C 0.39915 0.94814 0.58064 0.0
C347 C 0.12936 0.08458 0.64031 0.0
C348 C 0.08993 0.3655 0.63171 0.0
C349 C 0.02903 0.25377 0.66453 0.0
C350 C 0.98775 0.29926 0.6454 0.0
C351 C 0.01849 0.35568 0.62903 0.0
N352 N 0.09894 0.26467 0.66799 0.0
C353 C 0.12955 0.31899 0.65113 0.0
Co354 Co 0.39252 0.75827 0.13107 0.0
Co355 Co 0.29179 0.65595 0.18624 0.0
O356 O 0.30153 0.73418 0.15276 0.0
C357 C 0.28697 0.78032 0.07247 0.0
O358 O 0.23397 0.77836 0.09377 0.0
C359 C 0.17401 0.75451 0.20973 0.0
O360 O 0.18157 0.796 0.18304 0.0
O361 O 0.36851 0.69638 0.21587 0.0
O362 O 0.44173 0.73831 0.1755 0.0
H363 H 0.38782 0.46218 0.25892 0.0
H364 H 0.27562 0.86322 0.1322 0.0
O365 O 0.34906 0.77677 0.08398 0.0
H366 H 0.47922 0.9839 0.1801 0.0
H367 H 0.55906 0.89558 0.05685 0.0
H368 H 0.53305 0.69526 0.1349 0.0
H369 H 0.48556 0.86011 0.16551 0.0
H370 H 0.44591 0.86882 0.08361 0.0
O371 O 0.21747 0.70563 0.21522 0.0
H372 H 0.3939 0.55953 0.21788 0.0
H373 H 0.17612 0.59101 0.22747 0.0
H374 H 0.64744 0.72056 0.10924 0.0
H375 H 0.26751 0.98709 0.14549 0.0
H376 H 0.66109 0.82129 0.06978 0.0
H377 H 0.37024 0.04899 0.16898 0.0
O378 O 0.406 0.66114 0.11562 0.0
H379 H 0.09075 0.65842 0.10128 0.0
H380 H 0.24512 0.51001 0.17044 0.0
H381 H 0.15453 0.45685 0.13472 0.0
H382 H 0.07602 0.53086 0.09964 0.0
H383 H 0.18091 0.70951 0.13803 0.0
H384 H 0.16881 0.49746 0.2698 0.0
H385 H 0.27432 0.43028 0.28502 0.0
O386 O 0.36164 0.60002 0.15946 0.0
C387 C 0.42822 0.71893 0.20634 0.0
C388 C 0.34123 0.49048 0.25217 0.0
C389 C 0.21832 0.50997 0.25828 0.0
N390 N 0.28543 0.58088 0.21975 0.0
C391 C 0.34424 0.54551 0.22877 0.0
C392 C 0.2231 0.56414 0.23462 0.0
C393 C 0.27763 0.47255 0.26683 0.0
C394 C 0.32092 0.88923 0.14167 0.0
N395 N 0.38195 0.85439 0.14613 0.0
C396 C 0.31586 0.95972 0.14955 0.0
C397 C 0.37341 0.9944 0.16288 0.0
C398 C 0.43444 0.95792 0.16915 0.0
C399 C 0.43754 0.88754 0.1609 0.0
C400 C 0.55371 0.85122 0.07377 0.0
C401 C 0.53834 0.73919 0.11777 0.0
C402 C 0.48946 0.83541 0.08866 0.0
N403 N 0.48223 0.77988 0.1103 0.0
C404 C 0.60337 0.75324 0.10329 0.0
C405 C 0.61096 0.80966 0.08112 0.0
C406 C 0.39738 0.60432 0.13155 0.0
C407 C 0.12473 0.62545 0.11634 0.0
C408 C 0.21142 0.54351 0.15578 0.0
C409 C 0.16008 0.51259 0.13527 0.0
C410 C 0.11629 0.55401 0.11552 0.0
N411 N 0.21911 0.61397 0.15708 0.0
C412 C 0.17708 0.6544 0.13697 0.0
Co413 Co 0.75103 0.89213 0.63406 0.0
Co414 Co 0.86935 0.81287 0.68878 0.0
O415 O 0.78823 0.80949 0.65773 0.0
C416 C 0.77032 0.79158 0.57663 0.0
O417 O 0.8325 0.78139 0.58965 0.0
C418 C 0.76939 0.71191 0.72379 0.0
O419 O 0.71361 0.74268 0.71176 0.0
O420 O 0.82628 0.89101 0.71639 0.0
O421 O 0.7715 0.95214 0.67509 0.0
H422 H 0.05238 0.93889 0.75698 0.0
H423 H 0.66227 0.7671 0.63422 0.0
O424 O 0.7304 0.8353 0.59143 0.0
H425 H 0.52808 0.94513 0.6974 0.0
H426 H 0.57713 0.02123 0.56094 0.0
H427 H 0.79233 0.0402 0.6297 0.0
H428 H 0.64464 0.97135 0.67469 0.0
H429 H 0.62626 0.91903 0.59008 0.0
O430 O 0.8289 0.73981 0.72009 0.0
H431 H 0.95739 0.92731 0.71456 0.0
H432 H 0.95202 0.70982 0.73042 0.0
H433 H 0.74439 0.14411 0.60157 0.0
H434 H 0.54425 0.74031 0.65412 0.0
H435 H 0.63597 0.13507 0.56681 0.0
H436 H 0.47618 0.82917 0.6867 0.0
O437 O 0.84401 0.91489 0.61452 0.0
H438 H 0.86934 0.58468 0.62513 0.0
H439 H 1.01403 0.77926 0.66559 0.0
H440 H 0.06877 0.68225 0.6341 0.0
H441 H 0.99631 0.58376 0.61371 0.0
H442 H 0.81667 0.68327 0.6561 0.0
H443 H 0.04755 0.71916 0.77271 0.0
H444 H 0.09532 0.83518 0.78764 0.0
O445 O 0.91597 0.88063 0.65708 0.0
C446 C 0.79683 0.94627 0.70546 0.0
C447 C 0.03067 0.88846 0.75121 0.0
C448 C 0.02766 0.76517 0.76024 0.0
N449 N 0.9486 0.81812 0.72004 0.0
C450 C 0.97702 0.88149 0.72709 0.0
C451 C 0.97353 0.76024 0.73621 0.0
C452 C 0.05532 0.82997 0.76819 0.0
C453 C 0.63281 0.80649 0.64775 0.0
N454 N 0.66033 0.87075 0.65311 0.0
C455 C 0.56605 0.79078 0.65938 0.0
C456 C 0.52799 0.84073 0.67746 0.0
C457 C 0.55698 0.90578 0.68345 0.0
C458 C 0.62344 0.92011 0.67082 0.0
C459 C 0.62466 0.02578 0.57577 0.0
C460 C 0.74543 0.0356 0.61445 0.0
C461 C 0.65323 0.96778 0.59196 0.0
N462 N 0.71317 0.97299 0.61082 0.0
C463 C 0.71842 0.09475 0.59863 0.0
C464 C 0.65764 0.08964 0.57913 0.0
C465 C 0.90414 0.9111 0.62817 0.0
C466 C 0.90148 0.62739 0.63374 0.0
C467 C 0.98191 0.73721 0.6564 0.0
C468 C 1.01332 0.68213 0.63874 0.0
C469 C 0.97268 0.62689 0.62734 0.0
N470 N 0.91197 0.73769 0.66244 0.0
C471 C 0.87188 0.68354 0.65133 0.0
C472 C 0.06495 0.01832 0.38605 0.0
C473 C 0.04787 0.07813 0.36623 0.0
C474 C 0.9268 0.04125 0.36532 0.0
C475 C 0.94604 0.97545 0.37759 0.0
N476 N 0.02273 0.91842 0.41793 0.0
N477 N 0.96242 0.14136 0.33296 0.0
C478 C 1.01239 0.96815 0.39331 0.0
C479 C 0.97851 0.08881 0.35518 0.0
N480 N 0.1314 1.00906 0.39748 0.0
N481 N 0.8589 0.06014 0.36659 0.0
H482 H 1.00007 0.17337 0.32208 0.0
H483 H 0.91299 0.14774 0.3224 0.0
H484 H 0.82323 0.02901 0.37967 0.0
H485 H 0.84134 0.10955 0.36021 0.0
H486 H 0.14989 0.96278 0.4077 0.0
H487 H 0.16929 0.04715 0.39524 0.0
H488 H 0.06856 0.91266 0.43194 0.0
H489 H 0.98221 0.88913 0.42813 0.0
C490 C 0.5319 0.60508 0.87728 0.0
C491 C 0.46668 0.57358 0.88234 0.0
C492 C 0.52554 0.46182 0.88722 0.0
C493 C 0.58522 0.49157 0.87141 0.0
N494 N 0.64209 0.59301 0.84832 0.0
N495 N 0.40401 0.47386 0.90277 0.0
C496 C 0.58853 0.56399 0.86635 0.0
C497 C 0.46421 0.50241 0.891 0.0
N498 N 0.5388 0.67439 0.88264 0.0
N499 N 0.52854 0.39566 0.8994 0.0
H500 H 0.36418 0.50422 0.91287 0.0
H501 H 0.39502 0.42078 0.90396 0.0
H502 H 0.57363 0.36616 0.89752 0.0
H503 H 0.48911 0.37209 0.91361 0.0
H504 H 0.5866 0.69968 0.88148 0.0
H505 H 0.49723 0.7041 0.89184 0.0
H506 H 0.64319 0.64528 0.84165 0.0
H507 H 0.68073 0.56333 0.83658 0.0
C508 C 0.47469 0.43261 0.14726 0.0
C509 C 0.544 0.44494 0.13657 0.0
C510 C 0.50622 0.54974 0.1059 0.0
C511 C 0.44003 0.54241 0.1215 0.0
N512 N 0.35413 0.45845 0.13604 0.0
N513 N 0.62726 0.51565 0.10589 0.0
C514 C 0.42196 0.47787 0.13584 0.0
C515 C 0.56019 0.50325 0.11552 0.0
N516 N 0.45969 0.38071 0.17012 0.0
N517 N 0.51554 0.59656 0.07979 0.0
H518 H 0.66757 0.48185 0.11173 0.0
H519 H 0.64364 0.56156 0.09438 0.0
H520 H 0.47423 0.62409 0.06908 0.0
H521 H 0.56136 0.60121 0.06558 0.0
H522 H 0.41061 0.37408 0.18111 0.0
H523 H 0.49778 0.34891 0.18083 0.0
H524 H 0.33713 0.40987 0.14414 0.0
H525 H 0.31739 0.48811 0.12286 0.0
C526 C 1.01352 0.0648 0.61126 0.0
C527 C 0.07509 0.03751 0.6267 0.0
C528 C 0.03022 0.92118 0.61801 0.0
C529 C 0.96379 0.94876 0.61236 0.0
N530 N 0.90141 0.04018 0.58446 0.0
N531 N 0.13747 0.93813 0.6487 0.0
C532 C 0.95775 0.01904 0.60309 0.0
C533 C 0.08329 0.96501 0.63031 0.0
N534 N 1.00799 0.13413 0.60532 0.0
N535 N 0.04185 0.8531 0.61118 0.0
H536 H 0.17251 0.96924 0.66221 0.0
H537 H 0.14196 0.88546 0.65413 0.0
H538 H 1.00275 0.82224 0.60038 0.0
H539 H 0.091 0.83057 0.61261 0.0
H540 H 0.96241 0.1588 0.59784 0.0
H541 H 0.04946 0.16777 0.60885 0.0
H542 H 0.89391 0.09033 0.57548 0.0
H543 H 0.86566 1.00483 0.57445 0.0
C544 C 0.16379 0.17543 0.48221 0.0
C545 C 0.2117 0.21818 0.46425 0.0
C546 C 0.25851 0.25959 0.52003 0.0
C547 C 0.21503 0.21198 0.53775 0.0
N548 N 0.13635 0.11455 0.53533 0.0
N549 N 0.31041 0.29472 0.46517 0.0
C550 C 0.17026 0.16722 0.51876 0.0
C551 C 0.26062 0.25878 0.48292 0.0
N552 N 0.11048 0.1444 0.46454 0.0
N553 N 0.29626 0.30674 0.5387 0.0
H554 H 0.31327 0.2951 0.43806 0.0
H555 H 0.352 0.3196 0.47716 0.0
H556 H 0.29573 0.30861 0.56586 0.0
H557 H 0.32359 0.34741 0.52744 0.0
H558 H 0.06952 0.11907 0.47683 0.0
H559 H 0.10339 0.14931 0.43776 0.0
H560 H 0.10941 0.07565 0.52222 0.0
H561 H 0.14042 0.10556 0.56196 0.0
C562 C 0.32398 0.81298 0.97693 0.0
C563 C 0.26858 0.77682 0.96045 0.0
C564 C 0.22323 0.7443 0.01747 0.0
C565 C 0.27544 0.78444 0.03411 0.0
N566 N 0.35594 0.87924 0.02799 0.0
N567 N 0.15073 0.73603 0.96647 0.0
C568 C 0.31983 0.82592 0.01332 0.0
C569 C 0.21321 0.75171 0.9812 0.0
N570 N 0.38219 0.83167 0.95894 0.0
N571 N 0.18653 0.69539 0.03522 0.0
H572 H 0.14028 0.74608 0.9403 0.0
H573 H 0.10758 0.72145 0.98116 0.0
H574 H 0.19737 0.6821 0.06085 0.0
H575 H 0.15171 0.6619 0.02295 0.0
H576 H 0.42572 0.85262 0.97121 0.0
H577 H 0.39029 0.82008 0.93277 0.0
H578 H 0.38578 0.91363 0.0134 0.0
H579 H 0.34783 0.89432 0.05379 0.0
C580 C 0.79247 0.70965 0.52589 0.0
C581 C 0.75342 0.76456 0.54092 0.0
C582 C 0.72334 0.80717 0.48336 0.0
C583 C 0.76554 0.75529 0.46783 0.0
N584 N 0.81916 0.64309 0.47369 0.0
N585 N 0.6491 0.83156 0.53238 0.0
C586 C 0.79399 0.70201 0.48892 0.0
C587 C 0.70822 0.80276 0.51926 0.0
N588 N 0.82626 0.66403 0.54696 0.0
N589 N 0.70082 0.86291 0.46476 0.0
H590 H 0.63087 0.81884 0.55712 0.0
H591 H 0.61314 0.85746 0.51686 0.0
H592 H 0.71532 0.87194 0.43904 0.0
H593 H 0.67434 0.90414 0.47633 0.0
H594 H 0.86322 0.62879 0.53807 0.0
H595 H 0.81641 0.66173 0.57365 0.0
H596 H 0.83636 0.60026 0.48759 0.0
H597 H 0.81611 0.63423 0.44692 0.0
C598 C 0.80857 0.31479 0.98686 0.0
C599 C 0.75054 0.30542 0.96451 0.0
C600 C 0.67281 0.29978 0.01527 0.0
C601 C 0.73037 0.31336 0.03743 0.0
N602 N 0.85162 0.34025 0.04499 0.0
N603 N 0.62664 0.29342 0.9567 0.0
C604 C 0.79784 0.32306 0.02338 0.0
C605 C 0.68254 0.29817 0.97854 0.0
N606 N 0.87419 0.31214 0.97322 0.0
N607 N 0.60838 0.28912 0.02939 0.0
H608 H 0.63112 0.28842 0.92984 0.0
H609 H 0.5752 0.29782 0.96471 0.0
H610 H 0.59657 0.29904 0.05544 0.0
H611 H 0.56669 0.26816 0.01573 0.0
H612 H 0.91923 0.31214 0.98816 0.0
H613 H 0.88384 0.30363 0.94681 0.0
H614 H 0.90019 0.35615 0.03622 0.0
H615 H 0.84662 0.34267 0.07201 0.0
C616 C 0.501 0.20292 0.22916 0.0
C617 C 0.55317 0.24949 0.24051 0.0
C618 C 0.47032 0.28845 0.2862 0.0
C619 C 0.4147 0.25491 0.26814 0.0
N620 N 0.37903 0.18808 0.21787 0.0
N621 N 0.59112 0.32515 0.28702 0.0
C622 C 0.43068 0.21451 0.23829 0.0
C623 C 0.5389 0.28938 0.27113 0.0
N624 N 0.51947 0.14406 0.21194 0.0
N625 N 0.45915 0.31491 0.31881 0.0
H626 H 0.64335 0.3139 0.28277 0.0
H627 H 0.58261 0.36443 0.30517 0.0
H628 H 0.41147 0.31237 0.33155 0.0
H629 H 0.4984 0.33388 0.33481 0.0
H630 H 0.4837 0.10618 0.20462 0.0
H631 H 0.57142 0.12912 0.21064 0.0
H632 H 0.38936 0.16309 0.19431 0.0
H633 H 0.32652 0.19808 0.22233 0.0
C634 C 0.28933 0.89373 0.72929 0.0
C635 C 0.25374 0.87914 0.7606 0.0
C636 C 0.22765 1.0048 0.7658 0.0
C637 C 0.26716 0.01819 0.73495 0.0
N638 N 0.36705 0.97591 0.70368 0.0
N639 N 0.20251 0.92578 0.81335 0.0
C640 C 0.30746 0.96277 0.72147 0.0
C641 C 0.22593 0.93598 0.78015 0.0
N642 N 0.30543 0.84186 0.70653 0.0
N643 N 0.19462 0.05769 0.78263 0.0
H644 H 0.20143 0.87766 0.82536 0.0
H645 H 0.18927 0.96595 0.83025 0.0
H646 H 0.20803 0.1094 0.77911 0.0
H647 H 0.15522 0.04979 0.80081 0.0
H648 H 0.32896 0.85131 0.68252 0.0
H649 H 0.28674 0.79164 0.70988 0.0
H650 H 0.39932 0.93671 0.6943 0.0
H651 H 0.38871 0.02526 0.70395 0.0
C652 C 0.60986 0.69761 0.2445 0.0
C653 C 0.61196 0.7521 0.26934 0.0
C654 C 0.4907 0.783 0.2541 0.0
C655 C 0.48705 0.72492 0.23156 0.0
N656 N 0.54061 0.62291 0.20712 0.0
N657 N 0.55425 0.84796 0.2975 0.0
C658 C 0.54599 0.68102 0.22739 0.0
C659 C 0.5522 0.795 0.27403 0.0
N660 N 0.67017 0.6646 0.23565 0.0
N661 N 0.4368 0.82924 0.25482 0.0
H662 H 0.60048 0.86558 0.30789 0.0
H663 H 0.51058 0.87398 0.30675 0.0
H664 H 0.39028 0.8212 0.24151 0.0
H665 H 0.43914 0.87752 0.26687 0.0
H666 H 0.67446 0.62977 0.21502 0.0
H667 H 0.71776 0.67634 0.24724 0.0
H668 H 0.57875 0.58483 0.2056 0.0
H669 H 0.49543 0.61004 0.19364 0.0
C670 C 0.81843 0.13253 0.7378 0.0
C671 C 0.76541 0.13672 0.76341 0.0
C672 C 0.73466 0.01415 0.75202 0.0
C673 C 0.79083 1.00883 0.72828 0.0
N674 N 0.888 0.06116 0.69876 0.0
N675 N 0.66911 0.08364 0.79315 0.0
C676 C 0.8332 0.06767 0.72124 0.0
C677 C 0.72239 0.07803 0.76993 0.0
N678 N 0.85199 0.19175 0.72799 0.0
N679 N 0.69077 0.95895 0.75597 0.0
H680 H 0.64244 0.04194 0.80379 0.0
H681 H 0.65072 0.13131 0.8014 0.0
H682 H 0.6996 0.91093 0.74425 0.0
H683 H 0.64403 0.96066 0.76952 0.0
H684 H 0.88637 0.19485 0.70716 0.0
H685 H 0.84172 0.23986 0.73932 0.0
H686 H 0.92538 0.09916 0.69476 0.0
H687 H 0.89871 0.01556 0.68522 0.0
C688 C 0.01868 0.21002 0.24727 0.0
C689 C 0.06056 0.266 0.25825 0.0
C690 C 0.96937 0.34425 0.23566 0.0
C691 C 0.92282 0.28712 0.23189 0.0
N692 N 0.90161 0.16764 0.24582 0.0
N693 N 0.07471 0.38936 0.26221 0.0
C694 C 0.94703 0.2207 0.2412 0.0
C695 C 0.03519 0.33418 0.25241 0.0
N696 N 0.04745 0.14738 0.24014 0.0
N697 N 0.95308 0.40696 0.22172 0.0
H698 H 0.12598 0.38338 0.27044 0.0
H699 H 0.05575 0.43986 0.26318 0.0
H700 H 0.90733 0.41564 0.20821 0.0
H701 H 0.98771 0.44833 0.2207 0.0
H702 H 0.01825 0.10537 0.23124 0.0
H703 H 0.10081 0.14265 0.23663 0.0
H704 H 0.91771 0.12178 0.25748 0.0
H705 H 0.84802 0.17353 0.24307 0.0
C706 C 0.30713 0.39623 0.76309 0.0
C707 C 0.24681 0.38573 0.74255 0.0
C708 C 0.2054 0.50266 0.75919 0.0
C709 C 0.26939 0.51569 0.77615 0.0
N710 N 0.38348 0.47689 0.79308 0.0
N711 N 0.13801 0.42987 0.72058 0.0
C712 C 0.32095 0.46296 0.77772 0.0
C713 C 0.19551 0.43902 0.74076 0.0
N714 N 0.34942 0.34116 0.77006 0.0
N715 N 0.15335 0.55071 0.76135 0.0
H716 H 0.12529 0.38256 0.70959 0.0
H717 H 0.10405 0.46948 0.71377 0.0
H718 H 0.1602 0.59938 0.77273 0.0
H719 H 0.10232 0.54127 0.75378 0.0
H720 H 0.38981 0.34263 0.78805 0.0
H721 H 0.34013 0.29164 0.76016 0.0
H722 H 0.42543 0.44299 0.79293 0.0
H723 H 0.39542 0.52471 0.80417 0.0
C724 C 0.11039 0.80934 0.26046 0.0
C725 C 0.1107 0.76126 0.23258 0.0
C726 C 0.98835 0.7313 0.24608 0.0
C727 C 0.98624 0.78499 0.27126 0.0
N728 N 0.04254 0.88191 0.29927 0.0
N729 N 0.05046 0.67371 0.19949 0.0
C730 C 0.04661 0.82589 0.27753 0.0
C731 C 0.0496 0.72167 0.22554 0.0
N732 N 0.1718 0.83647 0.2719 0.0
N733 N 0.93326 0.68688 0.24322 0.0
H734 H 0.09645 0.65722 0.18827 0.0
H735 H 1.00622 0.65069 0.18905 0.0
H736 H 0.88735 0.69306 0.25735 0.0
H737 H 0.93414 0.64144 0.22858 0.0
H738 H 0.1764 0.86578 0.2946 0.0
H739 H 0.21939 0.82434 0.26034 0.0
H740 H 0.08255 0.91765 0.30244 0.0
H741 H 0.99672 0.89627 0.31179 0.0
C742 C 0.73199 0.51582 0.73416 0.0
C743 C 0.77881 0.49938 0.76172 0.0
C744 C 0.81475 0.62071 0.76454 0.0
C745 C 0.76745 0.63916 0.73779 0.0
N746 N 0.69948 0.59723 0.68894 0.0
N747 N 0.89127 0.52993 0.78362 0.0
C748 C 0.73067 0.58486 0.72028 0.0
C749 C 0.82854 0.55 0.7709 0.0
N750 N 0.69148 0.46543 0.7198 0.0
N751 N 0.84594 0.67019 0.78461 0.0
H752 H 0.9053 0.47775 0.78385 0.0
H753 H 0.93157 0.56479 0.78822 0.0
H754 H 0.83368 0.72266 0.78283 0.0
H755 H 0.87807 0.6577 0.80552 0.0
H756 H 0.6481 0.47604 0.70452 0.0
H757 H 0.70261 0.41296 0.72235 0.0
H758 H 0.67839 0.55848 0.6733 0.0
H759 H 0.70026 0.64498 0.67655 0.0
loop_
_geom_bond_atom_site_label_1
_geom_bond_atom_site_label_2
_geom_bond_distance
_geom_bond_site_symmetry_2
_ccdc_geom_bond_type
Co0 O2 2.143 . S
Co0 O8 2.074 . S
Co0 O11 2.093 . S
Co0 O24 2.097 . S
Co0 N41 2.151 . S
Co0 N49 2.214 1_455 S
Co1 O2 2.160 . S
Co1 O7 2.058 . S
Co1 O17 2.057 . S
Co1 O32 2.037 . S
Co1 N36 2.145 . S
Co1 N57 2.257 . S
O2 Co0 2.143 . S
O2 Co1 2.160 . S
C3 O4 1.278 . S
C3 O11 1.224 . S
O4 C3 1.278 . S
C5 O6 1.245 . S
C5 O17 1.232 . S
O6 C5 1.245 . S
O7 Co1 2.058 . S
O7 C33 1.269 . S
O8 Co0 2.074 . S
O8 C33 1.257 . S
H9 C34 0.930 . S
H10 C40 0.930 . S
O11 Co0 2.093 . S
O11 C3 1.224 . S
H12 C44 0.929 . S
H13 C46 0.930 . S
H14 C47 0.930 . S
H15 C45 0.936 . S
H16 C48 0.915 1_455 S
O17 Co1 2.057 . S
O17 C5 1.232 . S
H18 C37 0.929 . S
H19 C38 0.929 . S
H20 C50 0.931 . S
H21 C42 0.929 . S
H22 C51 0.930 . S
H23 C43 0.931 . S
O24 Co0 2.097 . S
O24 C52 1.214 . S
H25 C53 0.929 . S
H26 C54 0.929 . S
H27 C55 0.930 . S
H28 C56 0.929 1_565 S
H29 C58 0.930 . S
H30 C35 0.930 . S
H31 C39 0.930 . S
O32 Co1 2.037 . S
O32 C52 1.234 . S
C33 O7 1.269 . S
C33 O8 1.257 . S
C34 H9 0.930 . S
C34 C37 1.388 . S
C34 C39 1.418 . S
C35 H30 0.930 . S
C35 C38 1.404 . S
C35 C39 1.353 . S
N36 Co1 2.145 . S
N36 C37 1.397 . S
N36 C38 1.334 . S
C37 H18 0.929 . S
C37 C34 1.388 . S
C37 N36 1.397 . S
C38 H19 0.929 . S
C38 C35 1.404 . S
C38 N36 1.334 . S
C39 H31 0.930 . S
C39 C34 1.418 . S
C39 C35 1.353 . S
C40 H10 0.930 . S
C40 N41 1.330 . S
C40 C42 1.446 . S
N41 Co0 2.151 . S
N41 C40 1.330 . S
N41 C45 1.418 . S
C42 H21 0.929 . S
C42 C40 1.446 . S
C42 C43 1.332 . S
C43 H23 0.931 . S
C43 C42 1.332 . S
C43 C44 1.267 . S
C44 H12 0.929 . S
C44 C43 1.267 . S
C44 C45 1.251 . S
C45 H15 0.936 . S
C45 N41 1.418 . S
C45 C44 1.251 . S
C46 H13 0.930 . S
C46 C48 1.406 . S
C46 C51 1.261 . S
C47 H14 0.930 . S
C47 N49 1.325 . S
C47 C50 1.357 . S
C48 H16 0.915 1_655 S
C48 C46 1.406 . S
C48 N49 1.261 . S
N49 Co0 2.214 1_655 S
N49 C47 1.325 . S
N49 C48 1.261 . S
C50 H20 0.931 . S
C50 C47 1.357 . S
C50 C51 1.312 . S
C51 H22 0.930 . S
C51 C46 1.261 . S
C51 C50 1.312 . S
C52 O24 1.214 . S
C52 O32 1.234 . S
C53 H25 0.929 . S
C53 C56 1.391 . S
C53 C58 1.391 . S
C54 H26 0.929 . S
C54 C55 1.390 1_545 S
C54 N57 1.391 . S
C55 H27 0.930 . S
C55 C54 1.390 1_565 S
C55 C56 1.392 1_565 S
C56 H28 0.929 1_545 S
C56 C53 1.391 . S
C56 C55 1.392 1_545 S
N57 Co1 2.257 . S
N57 C54 1.391 . S
N57 C58 1.388 . S
C58 H29 0.930 . S
C58 C53 1.391 . S
C58 N57 1.388 . S
Co59 O61 2.143 . S
Co59 O67 2.074 . S
Co59 O70 2.093 . S
Co59 O83 2.097 . S
Co59 N100 2.151 . S
Co59 N108 2.214 . S
Co60 O61 2.160 . S
Co60 O66 2.058 . S
Co60 O76 2.057 . S
Co60 O91 2.037 . S
Co60 N95 2.145 . S
Co60 N116 2.257 . S
O61 Co59 2.143 . S
O61 Co60 2.160 . S
C62 O63 1.278 . S
C62 O70 1.224 . S
O63 C62 1.278 . S
C64 O65 1.245 . S
C64 O76 1.232 . S
O65 C64 1.245 . S
O66 Co60 2.058 . S
O66 C92 1.269 . S
O67 Co59 2.074 . S
O67 C92 1.257 . S
H68 C93 0.930 . S
H69 C99 0.930 . S
O70 Co59 2.093 . S
O70 C62 1.224 . S
H71 C103 0.929 . S
H72 C105 0.930 . S
H73 C106 0.930 . S
H74 C104 0.929 . S
H75 C107 0.928 . S
O76 Co60 2.057 . S
O76 C64 1.232 . S
H77 C96 0.929 . S
H78 C97 0.929 . S
H79 C109 0.931 . S
H80 C101 0.929 . S
H81 C110 0.930 . S
H82 C102 0.931 1_655 S
O83 Co59 2.097 . S
O83 C111 1.214 . S
H84 C112 0.929 . S
H85 C113 0.929 . S
H86 C114 0.930 . S
H87 C115 0.929 . S
H88 C117 0.930 . S
H89 C94 0.930 . S
H90 C98 0.930 . S
O91 Co60 2.037 . S
O91 C111 1.234 . S
C92 O66 1.269 . S
C92 O67 1.257 . S
C93 H68 0.930 . S
C93 C96 1.388 . S
C93 C98 1.418 . S
C94 H89 0.930 . S
C94 C97 1.404 . S
C94 C98 1.353 . S
N95 Co60 2.145 . S
N95 C96 1.397 . S
N95 C97 1.334 . S
C96 H77 0.929 . S
C96 C93 1.388 . S
C96 N95 1.397 . S
C97 H78 0.929 . S
C97 C94 1.404 . S
C97 N95 1.334 . S
C98 H90 0.930 . S
C98 C93 1.418 . S
C98 C94 1.353 . S
C99 H69 0.930 . S
C99 N100 1.330 . S
C99 C101 1.446 . S
N100 Co59 2.151 . S
N100 C99 1.330 . S
N100 C104 1.418 . S
C101 H80 0.929 . S
C101 C99 1.446 . S
C101 C102 1.332 . S
C102 H82 0.931 1_455 S
C102 C101 1.332 . S
C102 C103 1.267 . S
C103 H71 0.929 . S
C103 C102 1.267 . S
C103 C104 1.251 . S
C104 H74 0.929 . S
C104 N100 1.418 . S
C104 C103 1.251 . S
C105 H72 0.930 . S
C105 C107 1.406 . S
C105 C110 1.261 . S
C106 H73 0.930 . S
C106 N108 1.325 . S
C106 C109 1.357 . S
C107 H75 0.928 . S
C107 C105 1.406 . S
C107 N108 1.261 . S
N108 Co59 2.214 . S
N108 C106 1.325 . S
N108 C107 1.261 . S
C109 H79 0.931 . S
C109 C106 1.357 . S
C109 C110 1.312 . S
C110 H81 0.930 . S
C110 C105 1.261 . S
C110 C109 1.312 . S
C111 O83 1.214 . S
C111 O91 1.234 . S
C112 H84 0.929 . S
C112 C115 1.391 . S
C112 C117 1.391 . S
C113 H85 0.929 . S
C113 C114 1.390 . S
C113 N116 1.391 . S
C114 H86 0.930 . S
C114 C113 1.390 . S
C114 C115 1.392 . S
C115 H87 0.929 . S
C115 C112 1.391 . S
C115 C114 1.392 . S
N116 Co60 2.257 . S
N116 C113 1.391 . S
N116 C117 1.388 . S
C117 H88 0.930 . S
C117 C112 1.391 . S
C117 N116 1.388 . S
Co118 O120 2.143 . S
Co118 O126 2.074 . S
Co118 O129 2.093 . S
Co118 O142 2.097 . S
Co118 N159 2.151 . S
Co118 N167 2.214 1_655 S
Co119 O120 2.160 . S
Co119 O125 2.058 . S
Co119 O135 2.057 . S
Co119 O150 2.037 . S
Co119 N154 2.145 . S
Co119 N175 2.257 . S
O120 Co118 2.143 . S
O120 Co119 2.160 . S
C121 O122 1.278 . S
C121 O129 1.224 . S
O122 C121 1.278 . S
C123 O124 1.245 . S
C123 O135 1.232 . S
O124 C123 1.245 . S
O125 Co119 2.058 . S
O125 C151 1.269 . S
O126 Co118 2.074 . S
O126 C151 1.257 . S
H127 C152 0.930 . S
H128 C158 0.930 . S
O129 Co118 2.093 . S
O129 C121 1.224 . S
H130 C162 0.929 . S
H131 C164 0.930 . S
H132 C165 0.930 . S
H133 C163 0.936 . S
H134 C166 0.915 1_655 S
O135 Co119 2.057 . S
O135 C123 1.232 . S
H136 C155 0.929 . S
H137 C156 0.929 . S
H138 C168 0.931 . S
H139 C160 0.929 . S
H140 C169 0.930 . S
H141 C161 0.931 . S
O142 Co118 2.097 . S
O142 C170 1.214 . S
H143 C171 0.929 . S
H144 C172 0.929 . S
H145 C173 0.930 . S
H146 C174 0.929 1_545 S
H147 C176 0.930 . S
H148 C153 0.930 . S
H149 C157 0.930 . S
O150 Co119 2.037 . S
O150 C170 1.234 . S
C151 O125 1.269 . S
C151 O126 1.257 . S
C152 H127 0.930 . S
C152 C155 1.388 . S
C152 C157 1.418 . S
C153 H148 0.930 . S
C153 C156 1.404 . S
C153 C157 1.353 . S
N154 Co119 2.145 . S
N154 C155 1.397 . S
N154 C156 1.334 . S
C155 H136 0.929 . S
C155 C152 1.388 . S
C155 N154 1.397 . S
C156 H137 0.929 . S
C156 C153 1.404 . S
C156 N154 1.334 . S
C157 H149 0.930 . S
C157 C152 1.418 . S
C157 C153 1.353 . S
C158 H128 0.930 . S
C158 N159 1.330 . S
C158 C160 1.446 . S
N159 Co118 2.151 . S
N159 C158 1.330 . S
N159 C163 1.418 . S
C160 H139 0.929 . S
C160 C158 1.446 . S
C160 C161 1.332 . S
C161 H141 0.931 . S
C161 C160 1.332 . S
C161 C162 1.267 . S
C162 H130 0.929 . S
C162 C161 1.267 . S
C162 C163 1.251 . S
C163 H133 0.936 . S
C163 N159 1.418 . S
C163 C162 1.251 . S
C164 H131 0.930 . S
C164 C166 1.406 . S
C164 C169 1.261 . S
C165 H132 0.930 . S
C165 N167 1.325 . S
C165 C168 1.357 . S
C166 H134 0.915 1_455 S
C166 C164 1.406 . S
C166 N167 1.261 . S
N167 Co118 2.214 1_455 S
N167 C165 1.325 . S
N167 C166 1.261 . S
C168 H138 0.931 . S
C168 C165 1.357 . S
C168 C169 1.312 . S
C169 H140 0.930 . S
C169 C164 1.261 . S
C169 C168 1.312 . S
C170 O142 1.214 . S
C170 O150 1.234 . S
C171 H143 0.929 . S
C171 C174 1.391 . S
C171 C176 1.391 . S
C172 H144 0.929 . S
C172 C173 1.390 1_565 S
C172 N175 1.391 . S
C173 H145 0.930 . S
C173 C172 1.390 1_545 S
C173 C174 1.392 1_545 S
C174 H146 0.929 1_565 S
C174 C171 1.391 . S
C174 C173 1.392 1_565 S
N175 Co119 2.257 . S
N175 C172 1.391 . S
N175 C176 1.388 . S
C176 H147 0.930 . S
C176 C171 1.391 . S
C176 N175 1.388 . S
Co177 O179 2.143 . S
Co177 O185 2.074 . S
Co177 O188 2.093 . S
Co177 O201 2.097 . S
Co177 N218 2.151 . S
Co177 N226 2.214 . S
Co178 O179 2.160 . S
Co178 O184 2.058 . S
Co178 O194 2.057 . S
Co178 O209 2.037 . S
Co178 N213 2.145 . S
Co178 N234 2.257 . S
O179 Co177 2.143 . S
O179 Co178 2.160 . S
C180 O181 1.278 . S
C180 O188 1.224 . S
O181 C180 1.278 . S
C182 O183 1.245 . S
C182 O194 1.232 . S
O183 C182 1.245 . S
O184 Co178 2.058 . S
O184 C210 1.269 . S
O185 Co177 2.074 . S
O185 C210 1.257 . S
H186 C211 0.930 . S
H187 C217 0.930 . S
O188 Co177 2.093 . S
O188 C180 1.224 . S
H189 C221 0.929 . S
H190 C223 0.930 . S
H191 C224 0.930 . S
H192 C222 0.929 . S
H193 C225 0.928 . S
O194 Co178 2.057 . S
O194 C182 1.232 . S
H195 C214 0.929 . S
H196 C215 0.929 . S
H197 C227 0.931 . S
H198 C219 0.929 . S
H199 C228 0.930 . S
H200 C220 0.931 1_455 S
O201 Co177 2.097 . S
O201 C229 1.214 . S
H202 C230 0.929 . S
H203 C231 0.929 . S
H204 C232 0.930 . S
H205 C233 0.929 . S
H206 C235 0.930 . S
H207 C212 0.930 . S
H208 C216 0.930 . S
O209 Co178 2.037 . S
O209 C229 1.234 . S
C210 O184 1.269 . S
C210 O185 1.257 . S
C211 H186 0.930 . S
C211 C214 1.388 . S
C211 C216 1.418 . S
C212 H207 0.930 . S
C212 C215 1.404 . S
C212 C216 1.353 . S
N213 Co178 2.145 . S
N213 C214 1.397 . S
N213 C215 1.334 . S
C214 H195 0.929 . S
C214 C211 1.388 . S
C214 N213 1.397 . S
C215 H196 0.929 . S
C215 C212 1.404 . S
C215 N213 1.334 . S
C216 H208 0.930 . S
C216 C211 1.418 . S
C216 C212 1.353 . S
C217 H187 0.930 . S
C217 N218 1.330 . S
C217 C219 1.446 . S
N218 Co177 2.151 . S
N218 C217 1.330 . S
N218 C222 1.418 . S
C219 H198 0.929 . S
C219 C217 1.446 . S
C219 C220 1.332 . S
C220 H200 0.931 1_655 S
C220 C219 1.332 . S
C220 C221 1.267 . S
C221 H189 0.929 . S
C221 C220 1.267 . S
C221 C222 1.251 . S
C222 H192 0.929 . S
C222 N218 1.418 . S
C222 C221 1.251 . S
C223 H190 0.930 . S
C223 C225 1.406 . S
C223 C228 1.261 . S
C224 H191 0.930 . S
C224 N226 1.325 . S
C224 C227 1.357 . S
C225 H193 0.928 . S
C225 C223 1.406 . S
C225 N226 1.261 . S
N226 Co177 2.214 . S
N226 C224 1.325 . S
N226 C225 1.261 . S
C227 H197 0.931 . S
C227 C224 1.357 . S
C227 C228 1.312 . S
C228 H199 0.930 . S
C228 C223 1.261 . S
C228 C227 1.312 . S
C229 O201 1.214 . S
C229 O209 1.234 . S
C230 H202 0.929 . S
C230 C233 1.391 . S
C230 C235 1.391 . S
C231 H203 0.929 . S
C231 C232 1.390 . S
C231 N234 1.391 . S
C232 H204 0.930 . S
C232 C231 1.390 . S
C232 C233 1.392 . S
C233 H205 0.929 . S
C233 C230 1.391 . S
C233 C232 1.392 . S
N234 Co178 2.257 . S
N234 C231 1.391 . S
N234 C235 1.388 . S
C235 H206 0.930 . S
C235 C230 1.391 . S
C235 N234 1.388 . S
Co236 O238 2.143 . S
Co236 O244 2.074 . S
Co236 O247 2.093 . S
Co236 O260 2.097 . S
Co236 N277 2.151 . S
Co236 N285 2.214 . S
Co237 O238 2.160 . S
Co237 O243 2.058 . S
Co237 O253 2.057 . S
Co237 O268 2.037 . S
Co237 N272 2.145 . S
Co237 N293 2.257 . S
O238 Co236 2.143 . S
O238 Co237 2.160 . S
C239 O240 1.278 . S
C239 O247 1.224 . S
O240 C239 1.278 . S
C241 O242 1.245 . S
C241 O253 1.232 . S
O242 C241 1.245 . S
O243 Co237 2.058 . S
O243 C269 1.269 . S
O244 Co236 2.074 . S
O244 C269 1.257 . S
H245 C270 0.930 . S
H246 C276 0.930 . S
O247 Co236 2.093 . S
O247 C239 1.224 . S
H248 C280 0.929 . S
H249 C282 0.930 . S
H250 C283 0.930 . S
H251 C281 0.929 . S
H252 C284 0.928 . S
O253 Co237 2.057 . S
O253 C241 1.232 . S
H254 C273 0.929 . S
H255 C274 0.929 . S
H256 C286 0.931 . S
H257 C278 0.929 . S
H258 C287 0.930 . S
H259 C279 0.931 1_565 S
O260 Co236 2.097 . S
O260 C288 1.214 . S
H261 C289 0.929 . S
H262 C290 0.929 . S
H263 C291 0.930 . S
H264 C292 0.929 . S
H265 C294 0.930 . S
H266 C271 0.930 . S
H267 C275 0.930 . S
O268 Co237 2.037 . S
O268 C288 1.234 . S
C269 O243 1.269 . S
C269 O244 1.257 . S
C270 H245 0.930 . S
C270 C273 1.388 . S
C270 C275 1.418 . S
C271 H266 0.930 . S
C271 C274 1.404 . S
C271 C275 1.353 . S
N272 Co237 2.145 . S
N272 C273 1.397 . S
N272 C274 1.334 . S
C273 H254 0.929 . S
C273 C270 1.388 . S
C273 N272 1.397 . S
C274 H255 0.929 . S
C274 C271 1.404 . S
C274 N272 1.334 . S
C275 H267 0.930 . S
C275 C270 1.418 . S
C275 C271 1.353 . S
C276 H246 0.930 . S
C276 N277 1.330 . S
C276 C278 1.446 . S
N277 Co236 2.151 . S
N277 C276 1.330 . S
N277 C281 1.418 . S
C278 H257 0.929 . S
C278 C276 1.446 . S
C278 C279 1.332 . S
C279 H259 0.931 1_545 S
C279 C278 1.332 . S
C279 C280 1.267 . S
C280 H248 0.929 . S
C280 C279 1.267 . S
C280 C281 1.251 . S
C281 H251 0.929 . S
C281 N277 1.418 . S
C281 C280 1.251 . S
C282 H249 0.930 . S
C282 C284 1.406 . S
C282 C287 1.261 . S
C283 H250 0.930 . S
C283 N285 1.325 . S
C283 C286 1.357 . S
C284 H252 0.928 . S
C284 C282 1.406 . S
C284 N285 1.261 . S
N285 Co236 2.214 . S
N285 C283 1.325 . S
N285 C284 1.261 . S
C286 H256 0.931 . S
C286 C283 1.357 . S
C286 C287 1.312 . S
C287 H258 0.930 . S
C287 C282 1.261 . S
C287 C286 1.312 . S
C288 O260 1.214 . S
C288 O268 1.234 . S
C289 H261 0.929 . S
C289 C292 1.391 . S
C289 C294 1.391 . S
C290 H262 0.929 . S
C290 C291 1.390 . S
C290 N293 1.391 . S
C291 H263 0.930 . S
C291 C290 1.390 . S
C291 C292 1.392 . S
C292 H264 0.929 . S
C292 C289 1.391 . S
C292 C291 1.392 . S
N293 Co237 2.257 . S
N293 C290 1.391 . S
N293 C294 1.388 . S
C294 H265 0.930 . S
C294 C289 1.391 . S
C294 N293 1.388 . S
Co295 O297 2.143 . S
Co295 O303 2.074 . S
Co295 O306 2.093 . S
Co295 O319 2.097 . S
Co295 N336 2.151 . S
Co295 N344 2.214 1_545 S
Co296 O297 2.160 . S
Co296 O302 2.058 . S
Co296 O312 2.057 . S
Co296 O327 2.037 . S
Co296 N331 2.145 . S
Co296 N352 2.257 . S
O297 Co295 2.143 . S
O297 Co296 2.160 . S
C298 O299 1.278 . S
C298 O306 1.224 . S
O299 C298 1.278 . S
C300 O301 1.245 . S
C300 O312 1.232 . S
O301 C300 1.245 . S
O302 Co296 2.058 . S
O302 C328 1.269 . S
O303 Co295 2.074 . S
O303 C328 1.257 . S
H304 C329 0.930 . S
H305 C335 0.930 . S
O306 Co295 2.093 . S
O306 C298 1.224 . S
H307 C339 0.929 . S
H308 C341 0.930 . S
H309 C342 0.930 . S
H310 C340 0.936 . S
H311 C343 0.915 1_545 S
O312 Co296 2.057 . S
O312 C300 1.232 . S
H313 C332 0.929 . S
H314 C333 0.929 . S
H315 C345 0.931 . S
H316 C337 0.929 . S
H317 C346 0.930 . S
H318 C338 0.931 . S
O319 Co295 2.097 . S
O319 C347 1.214 . S
H320 C348 0.929 . S
H321 C349 0.929 . S
H322 C350 0.930 . S
H323 C351 0.929 1_655 S
H324 C353 0.930 . S
H325 C330 0.930 . S
H326 C334 0.930 . S
O327 Co296 2.037 . S
O327 C347 1.234 . S
C328 O302 1.269 . S
C328 O303 1.257 . S
C329 H304 0.930 . S
C329 C332 1.388 . S
C329 C334 1.418 . S
C330 H325 0.930 . S
C330 C333 1.404 . S
C330 C334 1.353 . S
N331 Co296 2.145 . S
N331 C332 1.397 . S
N331 C333 1.334 . S
C332 H313 0.929 . S
C332 C329 1.388 . S
C332 N331 1.397 . S
C333 H314 0.929 . S
C333 C330 1.404 . S
C333 N331 1.334 . S
C334 H326 0.930 . S
C334 C329 1.418 . S
C334 C330 1.353 . S
C335 H305 0.930 . S
C335 N336 1.330 . S
C335 C337 1.446 . S
N336 Co295 2.151 . S
N336 C335 1.330 . S
N336 C340 1.418 . S
C337 H316 0.929 . S
C337 C335 1.446 . S
C337 C338 1.332 . S
C338 H318 0.931 . S
C338 C337 1.332 . S
C338 C339 1.267 . S
C339 H307 0.929 . S
C339 C338 1.267 . S
C339 C340 1.251 . S
C340 H310 0.936 . S
C340 N336 1.418 . S
C340 C339 1.251 . S
C341 H308 0.930 . S
C341 C343 1.406 . S
C341 C346 1.261 . S
C342 H309 0.930 . S
C342 N344 1.325 . S
C342 C345 1.357 . S
C343 H311 0.915 1_565 S
C343 C341 1.406 . S
C343 N344 1.261 . S
N344 Co295 2.214 1_565 S
N344 C342 1.325 . S
N344 C343 1.261 . S
C345 H315 0.931 . S
C345 C342 1.357 . S
C345 C346 1.312 . S
C346 H317 0.930 . S
C346 C341 1.261 . S
C346 C345 1.312 . S
C347 O319 1.214 . S
C347 O327 1.234 . S
C348 H320 0.929 . S
C348 C351 1.391 . S
C348 C353 1.391 . S
C349 H321 0.929 . S
C349 C350 1.390 1_455 S
C349 N352 1.391 . S
C350 H322 0.930 . S
C350 C349 1.390 1_655 S
C350 C351 1.392 1_655 S
C351 H323 0.929 1_455 S
C351 C348 1.391 . S
C351 C350 1.392 1_455 S
N352 Co296 2.257 . S
N352 C349 1.391 . S
N352 C353 1.388 . S
C353 H324 0.930 . S
C353 C348 1.391 . S
C353 N352 1.388 . S
Co354 O356 2.143 . S
Co354 O362 2.074 . S
Co354 O365 2.093 . S
Co354 O378 2.097 . S
Co354 N395 2.151 . S
Co354 N403 2.214 . S
Co355 O356 2.160 . S
Co355 O361 2.058 . S
Co355 O371 2.057 . S
Co355 O386 2.037 . S
Co355 N390 2.145 . S
Co355 N411 2.257 . S
O356 Co354 2.143 . S
O356 Co355 2.160 . S
C357 O358 1.278 . S
C357 O365 1.224 . S
O358 C357 1.278 . S
C359 O360 1.245 . S
C359 O371 1.232 . S
O360 C359 1.245 . S
O361 Co355 2.058 . S
O361 C387 1.269 . S
O362 Co354 2.074 . S
O362 C387 1.257 . S
H363 C388 0.930 . S
H364 C394 0.930 . S
O365 Co354 2.093 . S
O365 C357 1.224 . S
H366 C398 0.929 . S
H367 C400 0.930 . S
H368 C401 0.930 . S
H369 C399 0.929 . S
H370 C402 0.928 . S
O371 Co355 2.057 . S
O371 C359 1.232 . S
H372 C391 0.929 . S
H373 C392 0.929 . S
H374 C404 0.931 . S
H375 C396 0.929 . S
H376 C405 0.930 . S
H377 C397 0.931 1_545 S
O378 Co354 2.097 . S
O378 C406 1.214 . S
H379 C407 0.929 . S
H380 C408 0.929 . S
H381 C409 0.930 . S
H382 C410 0.929 . S
H383 C412 0.930 . S
H384 C389 0.930 . S
H385 C393 0.930 . S
O386 Co355 2.037 . S
O386 C406 1.234 . S
C387 O361 1.269 . S
C387 O362 1.257 . S
C388 H363 0.930 . S
C388 C391 1.388 . S
C388 C393 1.418 . S
C389 H384 0.930 . S
C389 C392 1.404 . S
C389 C393 1.353 . S
N390 Co355 2.145 . S
N390 C391 1.397 . S
N390 C392 1.334 . S
C391 H372 0.929 . S
C391 C388 1.388 . S
C391 N390 1.397 . S
C392 H373 0.929 . S
C392 C389 1.404 . S
C392 N390 1.334 . S
C393 H385 0.930 . S
C393 C388 1.418 . S
C393 C389 1.353 . S
C394 H364 0.930 . S
C394 N395 1.330 . S
C394 C396 1.446 . S
N395 Co354 2.151 . S
N395 C394 1.330 . S
N395 C399 1.418 . S
C396 H375 0.929 . S
C396 C394 1.446 . S
C396 C397 1.332 . S
C397 H377 0.931 1_565 S
C397 C396 1.332 . S
C397 C398 1.267 . S
C398 H366 0.929 . S
C398 C397 1.267 . S
C398 C399 1.251 . S
C399 H369 0.929 . S
C399 N395 1.418 . S
C399 C398 1.251 . S
C400 H367 0.930 . S
C400 C402 1.406 . S
C400 C405 1.261 . S
C401 H368 0.930 . S
C401 N403 1.325 . S
C401 C404 1.357 . S
C402 H370 0.928 . S
C402 C400 1.406 . S
C402 N403 1.261 . S
N403 Co354 2.214 . S
N403 C401 1.325 . S
N403 C402 1.261 . S
C404 H374 0.931 . S
C404 C401 1.357 . S
C404 C405 1.312 . S
C405 H376 0.930 . S
C405 C400 1.261 . S
C405 C404 1.312 . S
C406 O378 1.214 . S
C406 O386 1.234 . S
C407 H379 0.929 . S
C407 C410 1.391 . S
C407 C412 1.391 . S
C408 H380 0.929 . S
C408 C409 1.390 . S
C408 N411 1.391 . S
C409 H381 0.930 . S
C409 C408 1.390 . S
C409 C410 1.392 . S
C410 H382 0.929 . S
C410 C407 1.391 . S
C410 C409 1.392 . S
N411 Co355 2.257 . S
N411 C408 1.391 . S
N411 C412 1.388 . S
C412 H383 0.930 . S
C412 C407 1.391 . S
C412 N411 1.388 . S
Co413 O415 2.143 . S
Co413 O421 2.074 . S
Co413 O424 2.093 . S
Co413 O437 2.097 . S
Co413 N454 2.151 . S
Co413 N462 2.214 1_565 S
Co414 O415 2.160 . S
Co414 O420 2.058 . S
Co414 O430 2.057 . S
Co414 O445 2.037 . S
Co414 N449 2.145 . S
Co414 N470 2.257 . S
O415 Co413 2.143 . S
O415 Co414 2.160 . S
C416 O417 1.278 . S
C416 O424 1.224 . S
O417 C416 1.278 . S
C418 O419 1.245 . S
C418 O430 1.232 . S
O419 C418 1.245 . S
O420 Co414 2.058 . S
O420 C446 1.269 . S
O421 Co413 2.074 . S
O421 C446 1.257 . S
H422 C447 0.930 . S
H423 C453 0.930 . S
O424 Co413 2.093 . S
O424 C416 1.224 . S
H425 C457 0.929 . S
H426 C459 0.930 . S
H427 C460 0.930 . S
H428 C458 0.936 . S
H429 C461 0.915 1_565 S
O430 Co414 2.057 . S
O430 C418 1.232 . S
H431 C450 0.929 . S
H432 C451 0.929 . S
H433 C463 0.931 . S
H434 C455 0.929 . S
H435 C464 0.930 . S
H436 C456 0.931 . S
O437 Co413 2.097 . S
O437 C465 1.214 . S
H438 C466 0.929 . S
H439 C467 0.929 . S
H440 C468 0.930 . S
H441 C469 0.929 1_455 S
H442 C471 0.930 . S
H443 C448 0.930 . S
H444 C452 0.930 . S
O445 Co414 2.037 . S
O445 C465 1.234 . S
C446 O420 1.269 . S
C446 O421 1.257 . S
C447 H422 0.930 . S
C447 C450 1.388 . S
C447 C452 1.418 . S
C448 H443 0.930 . S
C448 C451 1.404 . S
C448 C452 1.353 . S
N449 Co414 2.145 . S
N449 C450 1.397 . S
N449 C451 1.334 . S
C450 H431 0.929 . S
C450 C447 1.388 . S
C450 N449 1.397 . S
C451 H432 0.929 . S
C451 C448 1.404 . S
C451 N449 1.334 . S
C452 H444 0.930 . S
C452 C447 1.418 . S
C452 C448 1.353 . S
C453 H423 0.930 . S
C453 N454 1.330 . S
C453 C455 1.446 . S
N454 Co413 2.151 . S
N454 C453 1.330 . S
N454 C458 1.418 . S
C455 H434 0.929 . S
C455 C453 1.446 . S
C455 C456 1.332 . S
C456 H436 0.931 . S
C456 C455 1.332 . S
C456 C457 1.267 . S
C457 H425 0.929 . S
C457 C456 1.267 . S
C457 C458 1.251 . S
C458 H428 0.936 . S
C458 N454 1.418 . S
C458 C457 1.251 . S
C459 H426 0.930 . S
C459 C461 1.406 . S
C459 C464 1.261 . S
C460 H427 0.930 . S
C460 N462 1.325 . S
C460 C463 1.357 . S
C461 H429 0.915 1_545 S
C461 C459 1.406 . S
C461 N462 1.261 . S
N462 Co413 2.214 1_545 S
N462 C460 1.325 . S
N462 C461 1.261 . S
C463 H433 0.931 . S
C463 C460 1.357 . S
C463 C464 1.312 . S
C464 H435 0.930 . S
C464 C459 1.261 . S
C464 C463 1.312 . S
C465 O437 1.214 . S
C465 O445 1.234 . S
C466 H438 0.929 . S
C466 C469 1.391 . S
C466 C471 1.391 . S
C467 H439 0.929 . S
C467 C468 1.390 1_655 S
C467 N470 1.391 . S
C468 H440 0.930 . S
C468 C467 1.390 1_455 S
C468 C469 1.392 1_455 S
C469 H441 0.929 1_655 S
C469 C466 1.391 . S
C469 C468 1.392 1_655 S
N470 Co414 2.257 . S
N470 C467 1.391 . S
N470 C471 1.388 . S
C471 H442 0.930 . S
C471 C466 1.391 . S
C471 N470 1.388 . S
C472 C473 1.363 . S
C472 C478 1.379 1_545 S
C472 N480 1.356 . S
C473 C472 1.363 . S
C473 C479 1.363 1_455 S
C474 C475 1.363 . S
C474 C479 1.379 1_565 S
C474 N481 1.356 . S
C475 C474 1.363 . S
C475 C478 1.363 1_655 S
N476 C478 1.356 . S
N476 H488 0.984 . S
N476 H489 0.985 1_455 S
N477 C479 1.356 . S
N477 H482 0.984 1_655 S
N477 H483 0.985 . S
C478 C472 1.379 1_565 S
C478 C475 1.363 1_455 S
C478 N476 1.356 . S
C479 C473 1.363 1_655 S
C479 C474 1.379 1_545 S
C479 N477 1.356 . S
N480 C472 1.356 . S
N480 H486 0.984 . S
N480 H487 0.984 . S
N481 C474 1.356 . S
N481 H484 0.984 . S
N481 H485 0.985 . S
H482 N477 0.984 1_455 S
H483 N477 0.985 . S
H484 N481 0.984 . S
H485 N481 0.985 . S
H486 N480 0.984 . S
H487 N480 0.984 . S
H488 N476 0.984 . S
H489 N476 0.985 1_655 S
C490 C491 1.363 . S
C490 C496 1.379 . S
C490 N498 1.356 . S
C491 C490 1.363 . S
C491 C497 1.363 . S
C492 C493 1.363 . S
C492 C497 1.379 . S
C492 N499 1.356 . S
C493 C492 1.363 . S
C493 C496 1.363 . S
N494 C496 1.356 . S
N494 H506 0.984 . S
N494 H507 0.985 . S
N495 C497 1.356 . S
N495 H500 0.984 . S
N495 H501 0.985 . S
C496 C490 1.379 . S
C496 C493 1.363 . S
C496 N494 1.356 . S
C497 C491 1.363 . S
C497 C492 1.379 . S
C497 N495 1.356 . S
N498 C490 1.356 . S
N498 H504 0.984 . S
N498 H505 0.984 . S
N499 C492 1.356 . S
N499 H502 0.984 . S
N499 H503 0.985 . S
H500 N495 0.984 . S
H501 N495 0.985 . S
H502 N499 0.984 . S
H503 N499 0.985 . S
H504 N498 0.984 . S
H505 N498 0.984 . S
H506 N494 0.984 . S
H507 N494 0.985 . S
C508 C509 1.363 . S
C508 C514 1.379 . S
C508 N516 1.356 . S
C509 C508 1.363 . S
C509 C515 1.363 . S
C510 C511 1.363 . S
C510 C515 1.379 . S
C510 N517 1.356 . S
C511 C510 1.363 . S
C511 C514 1.363 . S
N512 C514 1.356 . S
N512 H524 0.984 . S
N512 H525 0.985 . S
N513 C515 1.356 . S
N513 H518 0.984 . S
N513 H519 0.985 . S
C514 C508 1.379 . S
C514 C511 1.363 . S
C514 N512 1.356 . S
C515 C509 1.363 . S
C515 C510 1.379 . S
C515 N513 1.356 . S
N516 C508 1.356 . S
N516 H522 0.984 . S
N516 H523 0.984 . S
N517 C510 1.356 . S
N517 H520 0.984 . S
N517 H521 0.985 . S
H518 N513 0.984 . S
H519 N513 0.985 . S
H520 N517 0.984 . S
H521 N517 0.985 . S
H522 N516 0.984 . S
H523 N516 0.984 . S
H524 N512 0.984 . S
H525 N512 0.985 . S
C526 C527 1.363 . S
C526 C532 1.379 1_455 S
C526 N534 1.356 . S
C527 C526 1.363 . S
C527 C533 1.363 1_545 S
C528 C529 1.363 . S
C528 C533 1.379 1_655 S
C528 N535 1.356 . S
C529 C528 1.363 . S
C529 C532 1.363 1_565 S
N530 C532 1.356 . S
N530 H542 0.984 . S
N530 H543 0.985 1_545 S
N531 C533 1.356 . S
N531 H536 0.984 1_565 S
N531 H537 0.985 . S
C532 C526 1.379 1_655 S
C532 C529 1.363 1_545 S
C532 N530 1.356 . S
C533 C527 1.363 1_565 S
C533 C528 1.379 1_455 S
C533 N531 1.356 . S
N534 C526 1.356 . S
N534 H540 0.984 . S
N534 H541 0.984 . S
N535 C528 1.356 . S
N535 H538 0.984 . S
N535 H539 0.985 . S
H536 N531 0.984 1_545 S
H537 N531 0.985 . S
H538 N535 0.984 . S
H539 N535 0.985 . S
H540 N534 0.984 . S
H541 N534 0.984 . S
H542 N530 0.984 . S
H543 N530 0.985 1_565 S
C544 C545 1.363 . S
C544 C550 1.379 . S
C544 N552 1.356 . S
C545 C544 1.363 . S
C545 C551 1.363 . S
C546 C547 1.363 . S
C546 C551 1.379 . S
C546 N553 1.356 . S
C547 C546 1.363 . S
C547 C550 1.363 . S
N548 C550 1.356 . S
N548 H560 0.984 . S
N548 H561 0.985 . S
N549 C551 1.356 . S
N549 H554 0.984 . S
N549 H555 0.985 . S
C550 C544 1.379 . S
C550 C547 1.363 . S
C550 N548 1.356 . S
C551 C545 1.363 . S
C551 C546 1.379 . S
C551 N549 1.356 . S
N552 C544 1.356 . S
N552 H558 0.984 . S
N552 H559 0.984 . S
N553 C546 1.356 . S
N553 H556 0.984 . S
N553 H557 0.985 . S
H554 N549 0.984 . S
H555 N549 0.985 . S
H556 N553 0.984 . S
H557 N553 0.985 . S
H558 N552 0.984 . S
H559 N552 0.984 . S
H560 N548 0.984 . S
H561 N548 0.985 . S
C562 C563 1.363 . S
C562 C568 1.379 1_556 S
C562 N570 1.356 . S
C563 C562 1.363 . S
C563 C569 1.363 . S
C564 C565 1.363 . S
C564 C569 1.379 1_554 S
C564 N571 1.356 . S
C565 C564 1.363 . S
C565 C568 1.363 . S
N566 C568 1.356 . S
N566 H578 0.984 . S
N566 H579 0.985 . S
N567 C569 1.356 . S
N567 H572 0.984 . S
N567 H573 0.985 . S
C568 C562 1.379 1_554 S
C568 C565 1.363 . S
C568 N566 1.356 . S
C569 C563 1.363 . S
C569 C564 1.379 1_556 S
C569 N567 1.356 . S
N570 C562 1.356 . S
N570 H576 0.984 . S
N570 H577 0.984 . S
N571 C564 1.356 . S
N571 H574 0.984 . S
N571 H575 0.985 . S
H572 N567 0.984 . S
H573 N567 0.985 . S
H574 N571 0.984 . S
H575 N571 0.985 . S
H576 N570 0.984 . S
H577 N570 0.984 . S
H578 N566 0.984 . S
H579 N566 0.985 . S
C580 C581 1.363 . S
C580 C586 1.379 . S
C580 N588 1.356 . S
C581 C580 1.363 . S
C581 C587 1.363 . S
C582 C583 1.363 . S
C582 C587 1.379 . S
C582 N589 1.356 . S
C583 C582 1.363 . S
C583 C586 1.363 . S
N584 C586 1.356 . S
N584 H596 0.984 . S
N584 H597 0.985 . S
N585 C587 1.356 . S
N585 H590 0.984 . S
N585 H591 0.985 . S
C586 C580 1.379 . S
C586 C583 1.363 . S
C586 N584 1.356 . S
C587 C581 1.363 . S
C587 C582 1.379 . S
C587 N585 1.356 . S
N588 C580 1.356 . S
N588 H594 0.984 . S
N588 H595 0.984 . S
N589 C582 1.356 . S
N589 H592 0.984 . S
N589 H593 0.985 . S
H590 N585 0.984 . S
H591 N585 0.985 . S
H592 N589 0.984 . S
H593 N589 0.985 . S
H594 N588 0.984 . S
H595 N588 0.984 . S
H596 N584 0.984 . S
H597 N584 0.985 . S
C598 C599 1.363 . S
C598 C604 1.379 1_556 S
C598 N606 1.356 . S
C599 C598 1.363 . S
C599 C605 1.363 . S
C600 C601 1.363 . S
C600 C605 1.379 1_554 S
C600 N607 1.356 . S
C601 C600 1.363 . S
C601 C604 1.363 . S
N602 C604 1.356 . S
N602 H614 0.984 . S
N602 H615 0.985 . S
N603 C605 1.356 . S
N603 H608 0.984 . S
N603 H609 0.985 . S
C604 C598 1.379 1_554 S
C604 C601 1.363 . S
C604 N602 1.356 . S
C605 C599 1.363 . S
C605 C600 1.379 1_556 S
C605 N603 1.356 . S
N606 C598 1.356 . S
N606 H612 0.984 . S
N606 H613 0.984 . S
N607 C600 1.356 . S
N607 H610 0.984 . S
N607 H611 0.985 . S
H608 N603 0.984 . S
H609 N603 0.985 . S
H610 N607 0.984 . S
H611 N607 0.985 . S
H612 N606 0.984 . S
H613 N606 0.984 . S
H614 N602 0.984 . S
H615 N602 0.985 . S
C616 C617 1.363 . S
C616 C622 1.379 . S
C616 N624 1.356 . S
C617 C616 1.363 . S
C617 C623 1.363 . S
C618 C619 1.363 . S
C618 C623 1.379 . S
C618 N625 1.356 . S
C619 C618 1.363 . S
C619 C622 1.363 . S
N620 C622 1.356 . S
N620 H632 0.984 . S
N620 H633 0.985 . S
N621 C623 1.356 . S
N621 H626 0.984 . S
N621 H627 0.985 . S
C622 C616 1.379 . S
C622 C619 1.363 . S
C622 N620 1.356 . S
C623 C617 1.363 . S
C623 C618 1.379 . S
C623 N621 1.356 . S
N624 C616 1.356 . S
N624 H630 0.984 . S
N624 H631 0.984 . S
N625 C618 1.356 . S
N625 H628 0.984 . S
N625 H629 0.985 . S
H626 N621 0.984 . S
H627 N621 0.985 . S
H628 N625 0.984 . S
H629 N625 0.985 . S
H630 N624 0.984 . S
H631 N624 0.984 . S
H632 N620 0.984 . S
H633 N620 0.985 . S
C634 C635 1.363 . S
C634 C640 1.379 . S
C634 N642 1.356 . S
C635 C634 1.363 . S
C635 C641 1.363 . S
C636 C637 1.363 . S
C636 C641 1.379 . S
C636 N643 1.356 1_565 S
C637 C636 1.363 . S
C637 C640 1.363 . S
N638 C640 1.356 . S
N638 H650 0.984 . S
N638 H651 0.985 . S
N639 C641 1.356 . S
N639 H644 0.984 . S
N639 H645 0.985 . S
C640 C634 1.379 . S
C640 C637 1.363 . S
C640 N638 1.356 . S
C641 C635 1.363 . S
C641 C636 1.379 . S
C641 N639 1.356 . S
N642 C634 1.356 . S
N642 H648 0.984 . S
N642 H649 0.984 . S
N643 C636 1.356 1_545 S
N643 H646 0.984 . S
N643 H647 0.985 . S
H644 N639 0.984 . S
H645 N639 0.985 . S
H646 N643 0.984 . S
H647 N643 0.985 . S
H648 N642 0.984 . S
H649 N642 0.984 . S
H650 N638 0.984 . S
H651 N638 0.985 . S
C652 C653 1.363 . S
C652 C658 1.379 . S
C652 N660 1.356 . S
C653 C652 1.363 . S
C653 C659 1.363 . S
C654 C655 1.363 . S
C654 C659 1.379 . S
C654 N661 1.356 . S
C655 C654 1.363 . S
C655 C658 1.363 . S
N656 C658 1.356 . S
N656 H668 0.984 . S
N656 H669 0.985 . S
N657 C659 1.356 . S
N657 H662 0.984 . S
N657 H663 0.985 . S
C658 C652 1.379 . S
C658 C655 1.363 . S
C658 N656 1.356 . S
C659 C653 1.363 . S
C659 C654 1.379 . S
C659 N657 1.356 . S
N660 C652 1.356 . S
N660 H666 0.984 . S
N660 H667 0.984 . S
N661 C654 1.356 . S
N661 H664 0.984 . S
N661 H665 0.985 . S
H662 N657 0.984 . S
H663 N657 0.985 . S
H664 N661 0.984 . S
H665 N661 0.985 . S
H666 N660 0.984 . S
H667 N660 0.984 . S
H668 N656 0.984 . S
H669 N656 0.985 . S
C670 C671 1.363 . S
C670 C676 1.379 . S
C670 N678 1.356 . S
C671 C670 1.363 . S
C671 C677 1.363 . S
C672 C673 1.363 . S
C672 C677 1.379 . S
C672 N679 1.356 . S
C673 C672 1.363 . S
C673 C676 1.363 . S
N674 C676 1.356 1_565 S
N674 H686 0.984 . S
N674 H687 0.985 . S
N675 C677 1.356 . S
N675 H680 0.984 . S
N675 H681 0.985 . S
C676 C670 1.379 . S
C676 C673 1.363 . S
C676 N674 1.356 1_545 S
C677 C671 1.363 . S
C677 C672 1.379 . S
C677 N675 1.356 . S
N678 C670 1.356 . S
N678 H684 0.984 . S
N678 H685 0.984 . S
N679 C672 1.356 . S
N679 H682 0.984 . S
N679 H683 0.985 . S
H680 N675 0.984 . S
H681 N675 0.985 . S
H682 N679 0.984 . S
H683 N679 0.985 . S
H684 N678 0.984 . S
H685 N678 0.984 . S
H686 N674 0.984 . S
H687 N674 0.985 . S
C688 C689 1.363 . S
C688 C694 1.379 . S
C688 N696 1.356 1_655 S
C689 C688 1.363 . S
C689 C695 1.363 . S
C690 C691 1.363 . S
C690 C695 1.379 . S
C690 N697 1.356 . S
C691 C690 1.363 . S
C691 C694 1.363 . S
N692 C694 1.356 . S
N692 H704 0.984 . S
N692 H705 0.985 . S
N693 C695 1.356 . S
N693 H698 0.996 . S
N693 H699 0.985 . S
C694 C688 1.379 . S
C694 C691 1.363 . S
C694 N692 1.356 . S
C695 C689 1.363 . S
C695 C690 1.379 . S
C695 N693 1.356 . S
N696 C688 1.356 1_455 S
N696 H702 0.984 . S
N696 H703 0.984 . S
N697 C690 1.356 . S
N697 H700 0.984 . S
N697 H701 0.985 . S
H698 N693 0.996 . S
H699 N693 0.985 . S
H700 N697 0.984 . S
H701 N697 0.985 . S
H702 N696 0.984 . S
H703 N696 0.984 . S
H704 N692 0.984 . S
H705 N692 0.985 . S
C706 C707 1.363 . S
C706 C712 1.379 . S
C706 N714 1.356 . S
C707 C706 1.363 . S
C707 C713 1.363 . S
C708 C709 1.363 . S
C708 C713 1.379 . S
C708 N715 1.356 . S
C709 C708 1.363 . S
C709 C712 1.363 . S
N710 C712 1.356 . S
N710 H722 0.984 . S
N710 H723 0.985 . S
N711 C713 1.356 . S
N711 H716 0.984 . S
N711 H717 0.985 . S
C712 C706 1.379 . S
C712 C709 1.363 . S
C712 N710 1.356 . S
C713 C707 1.363 . S
C713 C708 1.379 . S
C713 N711 1.356 . S
N714 C706 1.356 . S
N714 H720 0.984 . S
N714 H721 0.984 . S
N715 C708 1.356 . S
N715 H718 0.984 . S
N715 H719 0.985 . S
H716 N711 0.984 . S
H717 N711 0.985 . S
H718 N715 0.984 . S
H719 N715 0.985 . S
H720 N714 0.984 . S
H721 N714 0.984 . S
H722 N710 0.984 . S
H723 N710 0.985 . S
C724 C725 1.363 . S
C724 C730 1.379 . S
C724 N732 1.356 . S
C725 C724 1.363 . S
C725 C731 1.363 . S
C726 C727 1.363 . S
C726 C731 1.379 . S
C726 N733 1.356 . S
C727 C726 1.363 . S
C727 C730 1.363 . S
N728 C730 1.356 1_655 S
N728 H740 0.984 . S
N728 H741 0.985 . S
N729 C731 1.356 . S
N729 H734 0.984 . S
N729 H735 0.985 . S
C730 C724 1.379 . S
C730 C727 1.363 . S
C730 N728 1.356 1_455 S
C731 C725 1.363 . S
C731 C726 1.379 . S
C731 N729 1.356 . S
N732 C724 1.356 . S
N732 H738 0.984 . S
N732 H739 0.984 . S
N733 C726 1.356 . S
N733 H736 0.984 1_455 S
N733 H737 0.985 . S
H734 N729 0.984 . S
H735 N729 0.985 . S
H736 N733 0.984 1_655 S
H737 N733 0.985 . S
H738 N732 0.984 . S
H739 N732 0.984 . S
H740 N728 0.984 . S
H741 N728 0.985 . S
C742 C743 1.363 . S
C742 C748 1.379 . S
C742 N750 1.356 . S
C743 C742 1.363 . S
C743 C749 1.363 . S
C744 C745 1.363 . S
C744 C749 1.379 . S
C744 N751 1.356 . S
C745 C744 1.363 . S
C745 C748 1.363 . S
N746 C748 1.356 . S
N746 H758 0.984 . S
N746 H759 0.985 . S
N747 C749 1.356 . S
N747 H752 0.984 . S
N747 H753 0.985 . S
C748 C742 1.379 . S
C748 C745 1.363 . S
C748 N746 1.356 . S
C749 C743 1.363 . S
C749 C744 1.379 . S
C749 N747 1.356 . S
N750 C742 1.356 . S
N750 H756 0.984 . S
N750 H757 0.984 . S
N751 C744 1.356 . S
N751 H754 0.984 . S
N751 H755 0.985 . S
H752 N747 0.984 . S
H753 N747 0.985 . S
H754 N751 0.984 . S
H755 N751 0.985 . S
H756 N750 0.984 . S
H757 N750 0.984 . S
H758 N746 0.984 . S
H759 N746 0.985 . S
C473 C52 1.079 . S
C475 C170 1.079 . S
C491 C111 1.079 . S
C493 C229 1.079 . S
C509 C288 1.079 . S
C511 C406 1.079 . S
C527 C347 1.079 . S
C529 C465 1.079 . S
C545 C3 1.455 . S
C547 C298 1.455 . S
C563 C62 1.455 . S
C565 C357 1.455 . S
C581 C416 1.455 . S
C583 C121 1.455 . S
C599 C180 1.455 . S
C601 C239 1.455 . S
C617 C269 1.751 . S
C619 C5 1.789 . S
C635 C64 1.789 . S
C637 C328 1.751 1_565 S
C653 C123 1.789 . S
C655 C387 1.751 . S
C671 C182 1.789 . S
C673 C446 1.751 1_545 S
C689 C33 1.751 1_655 S
C691 C241 1.789 . S
C707 C300 1.789 . S
C709 C92 1.751 . S
C725 C359 1.789 . S
C727 C151 1.751 1_455 S
C743 C210 1.751 . S
C745 C418 1.789 . S
