# Generated by pormake.
# Topology lcy-a, (4)-cn, num edge types: 1
# Building blocks:
#     Node 0, Type 0, BuildingBlock: QUQFOY_clean_sbu_1, # of connection points: 4
#     Node 1, Type 0, BuildingBlock: QUQFOY_clean_sbu_1, # of connection points: 4
#     Node 2, Type 0, BuildingBlock: QUQFOY_clean_sbu_1, # of connection points: 4
#     Node 3, Type 0, BuildingBlock: QUQFOY_clean_sbu_1, # of connection points: 4
#     Node 4, Type 0, BuildingBlock: QUQFOY_clean_sbu_1, # of connection points: 4
#     Node 5, Type 0, BuildingBlock: QUQFOY_clean_sbu_1, # of connection points: 4
#     Node 6, Type 0, BuildingBlock: QUQFOY_clean_sbu_1, # of connection points: 4
#     Node 7, Type 0, BuildingBlock: QUQFOY_clean_sbu_1, # of connection points: 4
#     Node 8, Type 0, BuildingBlock: QUQFOY_clean_sbu_1, # of connection points: 4
#     Node 9, Type 0, BuildingBlock: QUQFOY_clean_sbu_1, # of connection points: 4
#     Node 10, Type 0, BuildingBlock: QUQFOY_clean_sbu_1, # of connection points: 4
#     Node 11, Type 0, BuildingBlock: QUQFOY_clean_sbu_1, # of connection points: 4
#     Node 12, Type 0, BuildingBlock: QUQFOY_clean_sbu_1, # of connection points: 4
#     Node 13, Type 0, BuildingBlock: QUQFOY_clean_sbu_1, # of connection points: 4
#     Node 14, Type 0, BuildingBlock: QUQFOY_clean_sbu_1, # of connection points: 4
#     Node 15, Type 0, BuildingBlock: QUQFOY_clean_sbu_1, # of connection points: 4
#     Node 16, Type 0, BuildingBlock: QUQFOY_clean_sbu_1, # of connection points: 4
#     Node 17, Type 0, BuildingBlock: QUQFOY_clean_sbu_1, # of connection points: 4
#     Node 18, Type 0, BuildingBlock: QUQFOY_clean_sbu_1, # of connection points: 4
#     Node 19, Type 0, BuildingBlock: QUQFOY_clean_sbu_1, # of connection points: 4
#     Node 20, Type 0, BuildingBlock: QUQFOY_clean_sbu_1, # of connection points: 4
#     Node 21, Type 0, BuildingBlock: QUQFOY_clean_sbu_1, # of connection points: 4
#     Node 22, Type 0, BuildingBlock: QUQFOY_clean_sbu_1, # of connection points: 4
#     Node 23, Type 0, BuildingBlock: QUQFOY_clean_sbu_1, # of connection points: 4
#     Edge 24, Type (0, 0), BuildingBlock: AJUNOK_clean_linker_0, # of connection points: 2
#     Edge 25, Type (0, 0), BuildingBlock: AJUNOK_clean_linker_0, # of connection points: 2
#     Edge 26, Type (0, 0), BuildingBlock: AJUNOK_clean_linker_0, # of connection points: 2
#     Edge 27, Type (0, 0), BuildingBlock: AJUNOK_clean_linker_0, # of connection points: 2
#     Edge 28, Type (0, 0), BuildingBlock: AJUNOK_clean_linker_0, # of connection points: 2
#     Edge 29, Type (0, 0), BuildingBlock: AJUNOK_clean_linker_0, # of connection points: 2
#     Edge 30, Type (0, 0), BuildingBlock: AJUNOK_clean_linker_0, # of connection points: 2
#     Edge 31, Type (0, 0), BuildingBlock: AJUNOK_clean_linker_0, # of connection points: 2
#     Edge 32, Type (0, 0), BuildingBlock: AJUNOK_clean_linker_0, # of connection points: 2
#     Edge 33, Type (0, 0), BuildingBlock: AJUNOK_clean_linker_0, # of connection points: 2
#     Edge 34, Type (0, 0), BuildingBlock: AJUNOK_clean_linker_0, # of connection points: 2
#     Edge 35, Type (0, 0), BuildingBlock: AJUNOK_clean_linker_0, # of connection points: 2
#     Edge 36, Type (0, 0), BuildingBlock: AJUNOK_clean_linker_0, # of connection points: 2
#     Edge 37, Type (0, 0), BuildingBlock: AJUNOK_clean_linker_0, # of connection points: 2
#     Edge 38, Type (0, 0), BuildingBlock: AJUNOK_clean_linker_0, # of connection points: 2
#     Edge 39, Type (0, 0), BuildingBlock: AJUNOK_clean_linker_0, # of connection points: 2
#     Edge 40, Type (0, 0), BuildingBlock: AJUNOK_clean_linker_0, # of connection points: 2
#     Edge 41, Type (0, 0), BuildingBlock: AJUNOK_clean_linker_0, # of connection points: 2
#     Edge 42, Type (0, 0), BuildingBlock: AJUNOK_clean_linker_0, # of connection points: 2
#     Edge 43, Type (0, 0), BuildingBlock: AJUNOK_clean_linker_0, # of connection points: 2
#     Edge 44, Type (0, 0), BuildingBlock: AJUNOK_clean_linker_0, # of connection points: 2
#     Edge 45, Type (0, 0), BuildingBlock: AJUNOK_clean_linker_0, # of connection points: 2
#     Edge 46, Type (0, 0), BuildingBlock: AJUNOK_clean_linker_0, # of connection points: 2
#     Edge 47, Type (0, 0), BuildingBlock: AJUNOK_clean_linker_0, # of connection points: 2
#     Edge 48, Type (0, 0), BuildingBlock: AJUNOK_clean_linker_0, # of connection points: 2
#     Edge 49, Type (0, 0), BuildingBlock: AJUNOK_clean_linker_0, # of connection points: 2
#     Edge 50, Type (0, 0), BuildingBlock: AJUNOK_clean_linker_0, # of connection points: 2
#     Edge 51, Type (0, 0), BuildingBlock: AJUNOK_clean_linker_0, # of connection points: 2
#     Edge 52, Type (0, 0), BuildingBlock: AJUNOK_clean_linker_0, # of connection points: 2
#     Edge 53, Type (0, 0), BuildingBlock: AJUNOK_clean_linker_0, # of connection points: 2
#     Edge 54, Type (0, 0), BuildingBlock: AJUNOK_clean_linker_0, # of connection points: 2
#     Edge 55, Type (0, 0), BuildingBlock: AJUNOK_clean_linker_0, # of connection points: 2
#     Edge 56, Type (0, 0), BuildingBlock: AJUNOK_clean_linker_0, # of connection points: 2
#     Edge 57, Type (0, 0), BuildingBlock: AJUNOK_clean_linker_0, # of connection points: 2
#     Edge 58, Type (0, 0), BuildingBlock: AJUNOK_clean_linker_0, # of connection points: 2
#     Edge 59, Type (0, 0), BuildingBlock: AJUNOK_clean_linker_0, # of connection points: 2
#     Edge 60, Type (0, 0), BuildingBlock: AJUNOK_clean_linker_0, # of connection points: 2
#     Edge 61, Type (0, 0), BuildingBlock: AJUNOK_clean_linker_0, # of connection points: 2
#     Edge 62, Type (0, 0), BuildingBlock: AJUNOK_clean_linker_0, # of connection points: 2
#     Edge 63, Type (0, 0), BuildingBlock: AJUNOK_clean_linker_0, # of connection points: 2
#     Edge 64, Type (0, 0), BuildingBlock: AJUNOK_clean_linker_0, # of connection points: 2
#     Edge 65, Type (0, 0), BuildingBlock: AJUNOK_clean_linker_0, # of connection points: 2
#     Edge 66, Type (0, 0), BuildingBlock: AJUNOK_clean_linker_0, # of connection points: 2
#     Edge 67, Type (0, 0), BuildingBlock: AJUNOK_clean_linker_0, # of connection points: 2
#     Edge 68, Type (0, 0), BuildingBlock: AJUNOK_clean_linker_0, # of connection points: 2
#     Edge 69, Type (0, 0), BuildingBlock: AJUNOK_clean_linker_0, # of connection points: 2
#     Edge 70, Type (0, 0), BuildingBlock: AJUNOK_clean_linker_0, # of connection points: 2
#     Edge 71, Type (0, 0), BuildingBlock: AJUNOK_clean_linker_0, # of connection points: 2
# Relax obj value: 0.371
# Max RMSD: 0.181
# Mean RMSD: 0.181
data_MOF--net-lcy-a--node1-QUQFOY_clean_sbu_1--edge1-AJUNOK_clean_linker_0
_symmetry_space_group_name_H-M    P1
_symmetry_Int_Tables_number       1
_symmetry_cell_setting            triclinic
loop_
_symmetry_equiv_pos_as_xyz
'x, y, z'
_cell_length_a     44.889284
_cell_length_b     44.960073
_cell_length_c     44.910005
_cell_angle_alpha  89.985794
_cell_angle_beta   89.939199
_cell_angle_gamma 90.041208
loop_
_atom_site_label
_atom_site_type_symbol
_atom_site_fract_x
_atom_site_fract_y
_atom_site_fract_z
_atom_type_partial_charge
O0 O 0.20959 0.23743 0.35534 0.0
Cd1 Cd 0.17491 0.26482 0.36686 0.0
Cd2 Cd 0.21711 0.30043 0.39051 0.0
O3 O 0.24162 0.26202 0.38321 0.0
O4 O 0.1404 0.24234 0.38257 0.0
O5 O 0.17052 0.27004 0.41064 0.0
C6 C 0.14847 0.25164 0.4086 0.0
C7 C 0.23673 0.33577 0.42331 0.0
C8 C 0.23545 0.23996 0.36654 0.0
C9 C 0.18121 0.32028 0.33537 0.0
O10 O 0.20216 0.32344 0.354 0.0
O11 O 0.16455 0.29752 0.33646 0.0
O12 O 0.24984 0.32858 0.39897 0.0
O13 O 0.21324 0.32105 0.43082 0.0
O14 O 0.01669 0.98626 0.6202 0.0
Cd15 Cd 0.99398 0.94743 0.62781 0.0
Cd16 Cd 0.95755 0.98217 0.65687 0.0
O17 O 0.99224 0.01239 0.65352 0.0
O18 O 0.02418 0.91576 0.62693 0.0
O19 O -0.00164 0.92773 0.6674 0.0
C20 C 0.01931 0.91228 0.65506 0.0
C21 C 0.92386 0.98592 0.69622 0.0
C22 C 0.01316 0.01033 0.63452 0.0
C23 C 0.93775 0.955 0.59791 0.0
O24 O 0.93432 0.97434 0.61818 0.0
O25 O 0.96044 0.9382 0.5982 0.0
O26 O 0.92699 0.00669 0.67687 0.0
O27 O 0.94131 0.96321 0.69474 0.0
O28 O 0.27816 0.75172 0.8573 0.0
Cd29 Cd 0.31394 0.72628 0.86917 0.0
Cd30 Cd 0.27237 0.69092 0.89544 0.0
O31 O 0.24758 0.72916 0.88814 0.0
O32 O 0.34708 0.75402 0.87608 0.0
O33 O 0.32602 0.72701 0.91193 0.0
C34 C 0.34462 0.74756 0.90404 0.0
C35 C 0.24947 0.65748 0.92879 0.0
C36 C 0.25288 0.75004 0.86978 0.0
C37 C 0.30748 0.67015 0.83951 0.0
O38 O 0.2869 0.66731 0.85873 0.0
O39 O 0.32442 0.69273 0.84009 0.0
O40 O 0.23823 0.66422 0.90347 0.0
O41 O 0.27388 0.67062 0.93626 0.0
O42 O 0.47867 0.01597 0.1137 0.0
Cd43 Cd 0.50376 0.05215 0.12562 0.0
Cd44 Cd 0.53475 0.01269 0.1566 0.0
O45 O 0.4956 0.98899 0.15066 0.0
O46 O 0.47637 0.08623 0.12686 0.0
O47 O 0.49884 0.06769 0.16691 0.0
C48 C 0.47988 0.08607 0.15542 0.0
C49 C 0.5649 0.99441 0.19513 0.0
C50 C 0.47744 0.99248 0.12926 0.0
C51 C 0.5612 0.04087 0.10003 0.0
O52 O 0.561 0.0204 0.11954 0.0
O53 O 0.54051 0.06007 0.09971 0.0
O54 O 0.5579 0.97884 0.17229 0.0
O55 O 0.55399 0.02085 0.19708 0.0
O56 O 0.71819 0.25726 0.63425 0.0
Cd57 Cd 0.68675 0.22873 0.61768 0.0
Cd58 Cd 0.73304 0.20213 0.59043 0.0
O59 O 0.75165 0.24296 0.6016 0.0
O60 O 0.6501 0.25212 0.61298 0.0
O61 O 0.67557 0.23316 0.57494 0.0
C62 C 0.65389 0.24951 0.58457 0.0
C63 C 0.75882 0.17694 0.55246 0.0
C64 C 0.74344 0.26069 0.62208 0.0
C65 C 0.69975 0.17079 0.64176 0.0
O66 O 0.722 0.17289 0.62435 0.0
O67 O 0.6797 0.19063 0.64158 0.0
O68 O 0.77065 0.18276 0.57777 0.0
O69 O 0.7319 0.18582 0.54796 0.0
O70 O 0.97926 0.46476 0.89457 0.0
Cd71 Cd 0.00343 0.42721 0.88623 0.0
Cd72 Cd 0.04237 0.4661 0.85896 0.0
O73 O 0.00441 0.4922 0.86277 0.0
O74 O 0.97416 0.39481 0.88281 0.0
O75 O 0.00155 0.41091 0.84491 0.0
C76 C 0.9802 0.39417 0.8547 0.0
C77 C 0.07831 0.48626 0.8262 0.0
C78 C 0.98248 0.48894 0.88044 0.0
C79 C 0.05884 0.43361 0.91785 0.0
O80 O 0.06347 0.45289 0.89767 0.0
O81 O 0.03563 0.41753 0.91707 0.0
O82 O 0.07057 0.49903 0.8505 0.0
O83 O 0.06488 0.46183 0.81943 0.0
O84 O 0.78275 0.73274 0.13269 0.0
Cd85 Cd 0.81178 0.76362 0.11518 0.0
Cd86 Cd 0.76463 0.78707 0.09011 0.0
O87 O 0.74823 0.74526 0.10039 0.0
O88 O 0.84958 0.74538 0.10178 0.0
O89 O 0.81463 0.76256 0.07107 0.0
C90 C 0.83966 0.74894 0.07498 0.0
C91 C 0.74183 0.81227 0.05067 0.0
C92 C 0.75746 0.72807 0.12091 0.0
C93 C 0.79481 0.8198 0.14124 0.0
O94 O 0.77208 0.81592 0.1249 0.0
O95 O 0.81675 0.80212 0.13929 0.0
O96 O 0.72763 0.80493 0.07438 0.0
O97 O 0.76933 0.80434 0.04844 0.0
O98 O 0.5132 0.52295 0.38963 0.0
Cd99 Cd 0.48974 0.56075 0.38032 0.0
Cd100 Cd 0.44993 0.52162 0.3538 0.0
O101 O 0.48729 0.49487 0.35899 0.0
O102 O 0.51978 0.59239 0.37599 0.0
O103 O 0.49185 0.5761 0.33856 0.0
C104 C 0.51355 0.59259 0.3479 0.0
C105 C 0.41379 0.50123 0.32149 0.0
C106 C 0.50941 0.49838 0.37633 0.0
C107 C 0.43362 0.55663 0.41139 0.0
O108 O 0.42867 0.53706 0.3916 0.0
O109 O 0.45746 0.57178 0.41077 0.0
O110 O 0.42093 0.48913 0.34632 0.0
O111 O 0.42801 0.52498 0.31392 0.0
O112 O 0.35361 0.22343 0.22226 0.0
Cd113 Cd 0.36312 0.18657 0.24721 0.0
Cd114 Cd 0.39393 0.22393 0.28217 0.0
O115 O 0.3884 0.24969 0.24431 0.0
O116 O 0.36881 0.15281 0.21997 0.0
O117 O 0.40517 0.17251 0.2473 0.0
C118 C 0.39671 0.15384 0.22708 0.0
C119 C 0.43134 0.24316 0.31324 0.0
C120 C 0.36885 0.2471 0.22403 0.0
C121 C 0.33573 0.19472 0.30459 0.0
O122 O 0.35659 0.21365 0.3072 0.0
O123 O 0.33439 0.17825 0.28169 0.0
O124 O 0.40739 0.25739 0.30721 0.0
O125 O 0.43479 0.2173 0.30136 0.0
O126 O 0.03758 0.1205 0.48238 0.0
Cd127 Cd 0.06752 0.13716 0.51275 0.0
Cd128 Cd 0.02097 0.16349 0.53743 0.0
O129 O 0.00454 0.15416 0.49538 0.0
O130 O 0.10503 0.1497 0.49321 0.0
O131 O 0.071 0.18121 0.51079 0.0
C132 C 0.0955 0.17667 0.49635 0.0
C133 C -0.00276 0.20147 0.56399 0.0
C134 C 0.01293 0.13361 0.47783 0.0
C135 C 0.05123 0.11197 0.56971 0.0
O136 O 0.0287 0.12858 0.56604 0.0
O137 O 0.07277 0.11308 0.55141 0.0
O138 O 0.98357 0.17783 0.55563 0.0
O139 O 0.0246 0.20473 0.55585 0.0
O140 O 0.13264 0.76353 0.72617 0.0
Cd141 Cd 0.12381 0.80104 0.75042 0.0
Cd142 Cd 0.09284 0.76355 0.78677 0.0
O143 O 0.09823 0.7375 0.74916 0.0
O144 O 0.12331 0.83434 0.72205 0.0
O145 O 0.08336 0.81903 0.747 0.0
C146 C 0.09503 0.83622 0.727 0.0
C147 C 0.05629 0.74336 0.81838 0.0
C148 C 0.11749 0.73984 0.72857 0.0
C149 C 0.15124 0.79306 0.80807 0.0
O150 O 0.13034 0.77423 0.81118 0.0
O151 O 0.15224 0.80935 0.78504 0.0
O152 O 0.08056 0.72979 0.81212 0.0
O153 O 0.05214 0.76922 0.80672 0.0
O154 O 0.4675 0.87379 0.98561 0.0
Cd155 Cd 0.43355 0.85891 0.01212 0.0
Cd156 Cd 0.4791 0.83549 0.04536 0.0
O157 O 0.50048 0.84336 0.00504 0.0
O158 O 0.39965 0.85397 0.98489 0.0
O159 O 0.42165 0.81624 0.0081 0.0
C160 C 0.40247 0.82564 0.98878 0.0
C161 C 0.50511 0.80326 0.07766 0.0
C162 C 0.49314 0.86202 0.98506 0.0
C163 C 0.44135 0.88852 0.06832 0.0
O164 O 0.46401 0.87164 0.0695 0.0
O165 O 0.42277 0.88591 0.04722 0.0
O166 O 0.51548 0.82854 0.06945 0.0
O167 O 0.47984 0.79522 0.06666 0.0
O168 O 0.8645 0.26287 0.76003 0.0
Cd169 Cd 0.87299 0.30358 0.74162 0.0
Cd170 Cd 0.90009 0.26998 0.69822 0.0
O171 O 0.89502 0.23787 0.73102 0.0
O172 O 0.8748 0.33104 0.77568 0.0
O173 O 0.9138 0.3206 0.74706 0.0
C174 C 0.90299 0.33346 0.77048 0.0
C175 C 0.93247 0.25649 0.65933 0.0
C176 C 0.87749 0.23877 0.75328 0.0
C177 C 0.84174 0.30496 0.68577 0.0
O178 O 0.86191 0.28641 0.67894 0.0
O179 O 0.84224 0.31776 0.71093 0.0
O180 O 0.90806 0.2427 0.66462 0.0
O181 O 0.93992 0.27762 0.67724 0.0
O182 O 0.96501 0.6204 0.0127 0.0
Cd183 Cd 0.9309 0.63085 0.98413 0.0
Cd184 Cd 0.97349 0.65382 0.94999 0.0
O185 O 0.99661 0.64995 0.98968 0.0
O186 O 0.8949 0.64282 0.00619 0.0
O187 O 0.92303 0.67419 0.97984 0.0
C188 C 0.9007 0.66961 -0.00253 0.0
C189 C 0.99354 0.68523 0.91357 0.0
C190 C 0.99041 0.63279 0.01137 0.0
C191 C 0.94078 0.59666 0.93113 0.0
O192 O 0.96214 0.61496 0.92862 0.0
O193 O 0.9219 0.59982 0.95188 0.0
O194 O 0.00736 0.66223 0.92321 0.0
O195 O 0.96886 0.69242 0.92638 0.0
O196 O 0.64166 0.71956 0.26912 0.0
Cd197 Cd 0.63073 0.68239 0.24534 0.0
Cd198 Cd 0.60522 0.72239 0.20621 0.0
O199 O 0.61197 0.74891 0.24354 0.0
O200 O 0.6245 0.6506 0.27485 0.0
O201 O 0.58823 0.66914 0.24679 0.0
C202 C 0.59651 0.65184 0.26827 0.0
C203 C 0.57265 0.74331 0.17061 0.0
C204 C 0.62932 0.74465 0.26552 0.0
C205 C 0.6613 0.68554 0.18893 0.0
O206 O 0.64213 0.70579 0.18427 0.0
O207 O 0.66052 0.67044 0.21277 0.0
O208 O 0.59782 0.75499 0.17733 0.0
O209 O 0.56488 0.71975 0.18503 0.0
O210 O 0.51506 0.36698 0.50743 0.0
Cd211 Cd 0.55341 0.35884 0.48418 0.0
Cd212 Cd 0.51545 0.33339 0.44383 0.0
O213 O 0.48686 0.33817 0.47973 0.0
O214 O 0.5847 0.35494 0.51449 0.0
O215 O 0.57039 0.3178 0.48507 0.0
C216 C 0.58638 0.32723 0.5071 0.0
C217 C 0.49658 0.30245 0.40611 0.0
C218 C 0.49011 0.35474 0.50243 0.0
C219 C 0.54986 0.39149 0.42917 0.0
O220 O 0.53048 0.37173 0.42357 0.0
O221 O 0.56468 0.39034 0.45316 0.0
O222 O 0.48428 0.32704 0.41354 0.0
O223 O 0.51948 0.29398 0.42116 0.0
O224 O 0.22851 0.37237 0.21216 0.0
Cd225 Cd 0.25864 0.38732 0.18119 0.0
Cd226 Cd 0.29038 0.40754 0.22746 0.0
O227 O 0.24908 0.40007 0.24691 0.0
O228 O 0.23799 0.40233 0.14552 0.0
O229 O 0.26121 0.43142 0.17836 0.0
C230 C 0.24475 0.42867 0.1549 0.0
C231 C 0.32171 0.44044 0.25366 0.0
C232 C 0.22807 0.38313 0.23828 0.0
C233 C 0.31329 0.35482 0.19029 0.0
O234 O 0.31452 0.37106 0.2134 0.0
O235 O 0.29287 0.35887 0.17123 0.0
O236 O 0.31324 0.41539 0.26442 0.0
O237 O 0.31153 0.4478 0.22785 0.0
O238 O 0.73747 0.11497 0.76418 0.0
Cd239 Cd 0.7629 0.10293 0.80009 0.0
Cd240 Cd 0.79369 0.07449 0.76055 0.0
O241 O 0.7555 0.07991 0.73542 0.0
O242 O 0.73566 0.10215 0.83448 0.0
O243 O 0.75783 0.06188 0.81623 0.0
C244 C 0.73903 0.0736 0.83465 0.0
C245 C 0.82353 0.03329 0.75007 0.0
C246 C 0.73685 0.1007 0.73984 0.0
C247 C 0.81932 0.13088 0.78777 0.0
O248 O 0.81929 0.11217 0.76657 0.0
O249 O 0.79933 0.12945 0.80774 0.0
O250 O 0.81821 0.0535 0.73061 0.0
O251 O 0.81109 0.03556 0.77584 0.0
O252 O 0.10691 0.48541 0.04204 0.0
Cd253 Cd 0.12075 0.51733 0.07172 0.0
Cd254 Cd 0.14503 0.54513 0.02478 0.0
O255 O 0.13639 0.50337 0.00722 0.0
O256 O 0.1355 0.49987 0.10933 0.0
O257 O 0.1648 0.5207 0.07509 0.0
C258 C 0.16195 0.50637 0.09989 0.0
C259 C 0.18104 0.57286 -0.00129 0.0
C260 C 0.11843 0.4834 0.01628 0.0
C261 C 0.09113 0.57251 0.05698 0.0
O262 O 0.10923 0.57189 0.03524 0.0
O263 O 0.09256 0.55287 0.0772 0.0
O264 O 0.15609 0.56517 0.98712 0.0
O265 O 0.18646 0.56396 0.02545 0.0
O266 O 0.76222 0.8707 0.26832 0.0
Cd267 Cd 0.74176 0.88037 0.3078 0.0
Cd268 Cd 0.70132 0.90727 0.271 0.0
O269 O 0.73647 0.90243 0.24142 0.0
O270 O 0.77429 0.88212 0.33702 0.0
O271 O 0.74723 0.92137 0.32405 0.0
C272 C 0.7697 0.91043 0.33837 0.0
C273 C 0.66273 0.93843 0.25465 0.0
C274 C 0.75785 0.88405 0.24385 0.0
C275 C 0.68592 0.84959 0.3059 0.0
O276 O 0.68106 0.869 0.286 0.0
O277 O 0.70975 0.85055 0.321 0.0
O278 O 0.66986 0.91436 0.24119 0.0
O279 O 0.67887 0.94654 0.27694 0.0
O280 O 0.37992 0.50589 0.53291 0.0
Cd281 Cd 0.36348 0.47417 0.5616 0.0
Cd282 Cd 0.33743 0.45075 0.51392 0.0
O283 O 0.34808 0.49274 0.49815 0.0
O284 O 0.35038 0.49145 0.59996 0.0
O285 O 0.31936 0.47425 0.5653 0.0
C286 C 0.32346 0.48749 0.59051 0.0
C287 C 0.29889 0.42604 0.48897 0.0
C288 C 0.36811 0.51039 0.50763 0.0
C289 C 0.38889 0.41779 0.54396 0.0
O290 O 0.37175 0.42144 0.52181 0.0
O291 O 0.38832 0.43603 0.56551 0.0
O292 O 0.32324 0.43349 0.47599 0.0
O293 O 0.2955 0.43353 0.51647 0.0
O294 O 0.26119 0.6174 0.71513 0.0
Cd295 Cd 0.23115 0.60324 0.6838 0.0
Cd296 Cd 0.19953 0.58085 0.73002 0.0
O297 O 0.24032 0.58984 0.74987 0.0
O298 O 0.25163 0.59135 0.64684 0.0
O299 O 0.22957 0.55938 0.67778 0.0
C300 C 0.24523 0.56427 0.65408 0.0
C301 C 0.16907 0.54759 0.75691 0.0
C302 C 0.26125 0.607 0.7414 0.0
C303 C 0.17513 0.6336 0.69373 0.0
O304 O 0.17395 0.61637 0.7161 0.0
O305 O 0.19639 0.6315 0.67526 0.0
O306 O 0.17694 0.57303 0.76714 0.0
O307 O 0.17943 0.54 0.73123 0.0
O308 O 0.61205 0.00498 0.97253 0.0
Cd309 Cd 0.62107 0.9816 0.93454 0.0
Cd310 Cd 0.64828 0.94309 0.9728 0.0
O311 O 0.64206 0.97899 0.00118 0.0
O312 O 0.62763 0.01077 0.90253 0.0
O313 O 0.66309 0.98099 0.92005 0.0
C314 C 0.65524 0.00262 0.90273 0.0
C315 C 0.68016 0.9056 0.98999 0.0
C316 C 0.62448 0.00089 -0.00246 0.0
C317 C 0.5908 0.9256 0.93848 0.0
O318 O 0.61093 0.9213 0.95777 0.0
O319 O 0.5904 0.94954 0.92355 0.0
O320 O 0.65604 0.91263 0.0035 0.0
O321 O 0.6881 0.92154 0.96749 0.0
O322 O 0.89504 0.99109 0.46725 0.0
Cd323 Cd 0.88605 0.01343 0.42879 0.0
Cd324 Cd 0.85895 0.05416 0.46683 0.0
O325 O 0.86496 0.01802 0.49501 0.0
O326 O 0.88227 0.98275 0.39783 0.0
O327 O 0.8445 0.01071 0.41323 0.0
C328 C 0.85412 0.98868 0.39736 0.0
C329 C 0.8272 0.09113 0.48623 0.0
C330 C 0.88215 0.99575 0.49193 0.0
C331 C 0.91638 0.06981 0.43097 0.0
O332 O 0.89632 0.07521 0.45017 0.0
O333 O 0.9165 0.04531 0.41701 0.0
O334 O 0.85228 0.08456 0.4981 0.0
O335 O 0.81877 0.07558 0.46365 0.0
C336 C 0.09158 0.21827 0.46049 0.0
C337 C 0.10949 0.20082 0.47931 0.0
C338 C 0.10438 0.23623 0.4384 0.0
C339 C 0.13543 0.23812 0.43534 0.0
H340 H 0.06753 0.21626 0.46128 0.0
H341 H 0.08995 0.24773 0.42289 0.0
S342 S 0.19192 0.19931 0.4812 0.0
N343 N 0.15963 0.18782 0.49468 0.0
N344 N 0.18381 0.22296 0.45423 0.0
C345 C 0.15356 0.22257 0.4555 0.0
C346 C 0.14053 0.20351 0.47727 0.0
C347 C 0.02909 0.88223 0.70097 0.0
C348 C 0.03855 0.89249 0.67292 0.0
C349 C 0.04752 0.86413 0.7185 0.0
C350 C 0.07626 0.85619 0.70882 0.0
H351 H 0.00723 0.88803 0.70938 0.0
H352 H 0.03924 0.85645 0.73983 0.0
S353 S 0.11177 0.87777 0.63725 0.0
N354 N 0.07863 0.89356 0.63637 0.0
N355 N 0.11327 0.85998 0.66933 0.0
C356 C 0.08605 0.86655 0.68091 0.0
C357 C 0.06718 0.88456 0.66294 0.0
C358 C 0.36683 0.79563 0.91907 0.0
C359 C 0.36013 0.76598 0.92635 0.0
C360 C 0.37963 0.81477 0.93988 0.0
C361 C 0.38685 0.80492 0.96868 0.0
H362 H 0.36164 0.80443 0.89722 0.0
H363 H 0.38445 0.83738 0.93303 0.0
S364 S 0.37416 0.72922 -0.00108 0.0
N365 N 0.36134 0.72757 0.96447 0.0
N366 N 0.38659 0.76352 0.00352 0.0
C367 C 0.38059 0.77524 0.9763 0.0
C368 C 0.36686 0.75579 0.95518 0.0
C369 C 0.43197 0.11221 0.16328 0.0
C370 C 0.46012 0.10422 0.17435 0.0
C371 C 0.41151 0.12754 0.18092 0.0
C372 C 0.41854 0.13606 0.21017 0.0
H373 H 0.42533 0.10605 0.14093 0.0
H374 H 0.39014 0.1332 0.17126 0.0
S375 S 0.4895 0.12103 0.24965 0.0
N376 N 0.49411 0.10585 0.21646 0.0
N377 N 0.45576 0.1357 0.24951 0.0
C378 C 0.44675 0.12858 0.22153 0.0
C379 C 0.46749 0.11236 0.20366 0.0
C380 C 0.62355 0.29436 0.57467 0.0
C381 C 0.63583 0.26765 0.56405 0.0
C382 C 0.6082 0.31357 0.55576 0.0
C383 C 0.60394 0.30661 0.52558 0.0
H384 H 0.62638 0.30093 0.59771 0.0
H385 H 0.59923 0.33391 0.56509 0.0
S386 S 0.63096 0.23903 0.48676 0.0
N387 N 0.64269 0.23502 0.52139 0.0
N388 N 0.61276 0.27095 0.48584 0.0
C389 C 0.61562 0.27975 0.51463 0.0
C390 C 0.63188 0.26034 0.53386 0.0
C391 C 0.95069 0.35947 0.78337 0.0
C392 C 0.92259 0.34869 0.79209 0.0
C393 C 0.96958 0.3736 0.80387 0.0
C394 C 0.96126 0.3769 0.83394 0.0
H395 H 0.95798 0.35739 0.76046 0.0
H396 H 0.99074 0.38216 0.79603 0.0
S397 S 0.89061 0.3507 0.86837 0.0
N398 N 0.88783 0.34119 0.83302 0.0
N399 N 0.92327 0.36723 0.87151 0.0
C400 C 0.93349 0.36547 0.84304 0.0
C401 C 0.91416 0.35154 0.82212 0.0
C402 C 0.88582 0.73405 0.04821 0.0
C403 C 0.85459 0.73398 0.05005 0.0
C404 C 0.90068 0.71491 0.02857 0.0
C405 C 0.8847 0.69452 0.01106 0.0
H406 H 0.89883 0.748 0.06296 0.0
H407 H 0.92481 0.71444 0.02882 0.0
S408 S 0.80276 0.6869 0.00639 0.0
N409 N 0.80813 0.71363 0.03105 0.0
N410 N 0.83628 0.6765 0.99531 0.0
C411 C 0.85352 0.69521 0.01166 0.0
C412 C 0.83837 0.71533 0.03089 0.0
C413 C 0.58268 0.6287 0.31647 0.0
C414 C 0.57456 0.63618 0.28719 0.0
C415 C 0.56238 0.61553 0.33598 0.0
C416 C 0.53318 0.60874 0.32695 0.0
H417 H 0.60486 0.63348 0.32469 0.0
H418 H 0.56996 0.6101 0.35822 0.0
S419 S 0.50064 0.62362 0.25252 0.0
N420 N 0.53517 0.63615 0.25004 0.0
N421 N 0.49702 0.61044 0.28668 0.0
C422 C 0.52467 0.61591 0.29767 0.0
C423 C 0.54533 0.62989 0.27783 0.0
C424 C 0.22882 0.45762 0.11062 0.0
C425 C 0.22982 0.45449 0.1417 0.0
C426 C 0.20859 0.4772 0.09724 0.0
C427 C 0.18804 0.49326 0.11456 0.0
H428 H 0.24262 0.44369 0.09657 0.0
H429 H 0.20732 0.47777 0.07315 0.0
S430 S 0.18338 0.49456 0.19687 0.0
N431 N 0.21064 0.47098 0.18953 0.0
N432 N 0.17145 0.50664 0.16424 0.0
C433 C 0.19 0.49159 0.14567 0.0
C434 C 0.21126 0.47244 0.15931 0.0
C435 C 0.67122 0.0493 0.87802 0.0
C436 C 0.67744 0.01956 0.88535 0.0
C437 C 0.69182 0.0667 0.86255 0.0
C438 C 0.71932 0.05496 0.85327 0.0
H439 H 0.65033 0.05945 0.88456 0.0
H440 H 0.68574 0.08941 0.85724 0.0
S441 S 0.74661 0.97832 0.86705 0.0
N442 N 0.71331 0.97912 0.88273 0.0
N443 N 0.75193 0.01177 0.85274 0.0
C444 C 0.72596 0.02524 0.86044 0.0
C445 C 0.70507 0.00757 0.87675 0.0
C446 C 0.78307 0.95902 0.36224 0.0
C447 C 0.79117 0.92999 0.35385 0.0
C448 C 0.80365 0.97813 0.37594 0.0
C449 C 0.8332 0.96906 0.38115 0.0
H450 H 0.76063 0.96698 0.35842 0.0
H451 H 0.79634 0.00014 0.38247 0.0
S452 S 0.86585 0.89546 0.36239 0.0
N453 N 0.83092 0.89327 0.35124 0.0
N454 N 0.86954 0.92912 0.37651 0.0
C455 C 0.84165 0.9402 0.37244 0.0
C456 C 0.82064 0.92067 0.35895 0.0
C457 C 0.27805 0.52011 0.6531 0.0
C458 C 0.25917 0.53972 0.63774 0.0
C459 C 0.29782 0.50163 0.63757 0.0
C460 C 0.29848 0.50155 0.6063 0.0
H461 H 0.27923 0.52075 0.67719 0.0
H462 H 0.31358 0.48834 0.65007 0.0
S463 S 0.25096 0.54649 0.55603 0.0
N464 N 0.24081 0.55669 0.58989 0.0
N465 N 0.27687 0.52081 0.56056 0.0
C466 C 0.27797 0.51932 0.59077 0.0
C467 C 0.25857 0.53879 0.60657 0.0
C468 C 0.26231 0.3839 0.48795 0.0
C469 C 0.27743 0.40699 0.47303 0.0
C470 C 0.24763 0.36136 0.47189 0.0
C471 C 0.24792 0.36132 0.44058 0.0
H472 H 0.26344 0.38219 0.51198 0.0
H473 H 0.23753 0.34307 0.48395 0.0
S474 S 0.27905 0.42009 0.39151 0.0
N475 N 0.28789 0.43075 0.42555 0.0
N476 N 0.26052 0.38863 0.39552 0.0
C477 C 0.26084 0.38561 0.42566 0.0
C478 C 0.27555 0.40842 0.44187 0.0
C479 C 0.89952 0.00051 0.74379 0.0
C480 C 0.89772 0.98681 0.71575 0.0
C481 C 0.87385 0.01209 0.75751 0.0
C482 C 0.84604 0.01069 0.74315 0.0
H483 H 0.92107 0.00482 0.75374 0.0
H484 H 0.87638 0.02508 0.77767 0.0
S485 S 0.82944 0.97355 0.67154 0.0
N486 N 0.8657 0.96924 0.67598 0.0
N487 N 0.81772 0.99167 0.70133 0.0
C488 C 0.8437 0.99455 0.71658 0.0
C489 C 0.86959 0.98245 0.70292 0.0
C490 C 0.21136 0.61804 0.93478 0.0
C491 C 0.23452 0.63481 0.94754 0.0
C492 C 0.19526 0.59738 0.95139 0.0
C493 C 0.20142 0.59245 0.98166 0.0
H494 H 0.20519 0.62104 0.91165 0.0
H495 H 0.17736 0.58558 0.94034 0.0
S496 S 0.26104 0.62915 0.02556 0.0
N497 N 0.26395 0.64407 0.99205 0.0
N498 N 0.23331 0.60503 0.02362 0.0
C499 C 0.22522 0.6082 0.99466 0.0
C500 C 0.24183 0.62943 0.97753 0.0
C501 C 0.58825 0.95096 0.21899 0.0
C502 C 0.58635 0.98203 0.21667 0.0
C503 C 0.6124 0.93741 0.23289 0.0
C504 C 0.63566 0.95434 0.24516 0.0
H505 H 0.57167 0.93683 0.20861 0.0
H506 H 0.61339 0.91331 0.23297 0.0
S507 S 0.63956 0.03657 0.24841 0.0
N508 N 0.60827 0.02962 0.23032 0.0
N509 N 0.65396 0.00383 0.25696 0.0
C510 C 0.63298 0.98547 0.24527 0.0
C511 C 0.60819 -0.00058 0.23089 0.0
C512 C 0.76137 0.13696 0.51349 0.0
C513 C 0.77562 0.15899 0.53063 0.0
C514 C 0.77808 0.11568 0.49765 0.0
C515 C 0.80943 0.11591 0.49861 0.0
H516 H 0.73732 0.13504 0.51378 0.0
H517 H 0.76645 0.09808 0.48599 0.0
S518 S 0.85697 0.17264 0.53541 0.0
N519 N 0.82257 0.18224 0.54413 0.0
N520 N 0.85382 0.14266 0.51444 0.0
C521 C 0.82371 0.13931 0.51373 0.0
C522 C 0.80682 0.16076 0.52973 0.0
C523 C 0.14041 0.53816 0.80319 0.0
C524 C 0.14767 0.52918 0.77409 0.0
C525 C 0.11831 0.52378 0.81958 0.0
C526 C 0.10231 0.4996 0.80778 0.0
H527 H 0.15155 0.55691 0.81346 0.0
H528 H 0.11362 0.53207 0.84174 0.0
S529 S 0.11359 0.46609 0.7331 0.0
N530 N 0.13785 0.49372 0.73436 0.0
N531 N 0.09609 0.46635 0.7655 0.0
C532 C 0.10984 0.48962 0.77902 0.0
C533 C 0.13256 0.50445 0.76213 0.0
C534 C 0.72799 0.87857 0.00074 0.0
C535 C 0.69669 0.87903 -0.00022 0.0
C536 C 0.74312 0.85523 0.01516 0.0
C537 C 0.72725 0.83184 0.02877 0.0
H538 H 0.74068 0.89716 0.99208 0.0
H539 H 0.76709 0.85664 0.0175 0.0
S540 S 0.64558 0.81982 0.0265 0.0
N541 N 0.65077 0.85189 0.00936 0.0
N542 N 0.67908 0.80831 0.03623 0.0
C543 C 0.69621 0.83082 0.02538 0.0
C544 C 0.68093 0.8544 0.01093 0.0
C545 C 0.35009 0.45065 0.29992 0.0
C546 C 0.34351 0.45873 0.27041 0.0
C547 C 0.37252 0.46488 0.31597 0.0
C548 C 0.38952 0.48799 0.30338 0.0
H549 H 0.33813 0.43273 0.31077 0.0
H550 H 0.37664 0.45733 0.3385 0.0
S551 S 0.38035 0.51889 0.22732 0.0
N552 N 0.35508 0.49223 0.22941 0.0
N553 N 0.39744 0.51929 0.25989 0.0
C554 C 0.38268 0.49709 0.27418 0.0
C555 C 0.35964 0.48243 0.25765 0.0
C556 C 0.46879 0.30216 0.35879 0.0
C557 C 0.48465 0.28597 0.38032 0.0
C558 C 0.45335 0.28788 0.33606 0.0
C559 C 0.45303 0.25674 0.33381 0.0
H560 H 0.46747 0.32621 0.35996 0.0
H561 H 0.44056 0.30143 0.32074 0.0
S562 S 0.49359 0.20405 0.38264 0.0
N563 N 0.50138 0.23718 0.3966 0.0
N564 N 0.47192 0.21002 0.3535 0.0
C565 C 0.47042 0.24018 0.3539 0.0
C566 C 0.48635 0.25489 0.37729 0.0
C567 C 0.95083 0.22172 0.58543 0.0
C568 C 0.9821 0.22197 0.58473 0.0
C569 C 0.93519 0.23446 0.60901 0.0
C570 C 0.95013 0.24808 0.63289 0.0
H571 H 0.93826 0.21021 0.56836 0.0
H572 H 0.91112 0.23256 0.60904 0.0
S573 S 0.03177 0.25801 0.63997 0.0
N574 N 0.02755 0.23945 0.60849 0.0
N575 N -0.00216 0.26382 0.65304 0.0
C576 C 0.98129 0.25069 0.63142 0.0
C577 C -0.00262 0.23753 0.60723 0.0
C578 C 0.00504 0.73186 0.88463 0.0
C579 C 0.00498 0.70065 0.88696 0.0
C580 C 0.02003 0.74607 0.86099 0.0
C581 C 0.03508 0.72933 0.83916 0.0
H582 H 0.99493 0.74528 0.90192 0.0
H583 H 0.02135 0.77013 0.86079 0.0
S584 S 0.03602 0.64713 0.83225 0.0
N585 N 0.01738 0.65364 0.86326 0.0
N586 N 0.04519 0.68016 0.81909 0.0
C587 C 0.03292 0.6982 0.84009 0.0
C588 C 0.01795 0.68389 0.86397 0.0
C589 C 0.56674 0.78036 0.13002 0.0
C590 C 0.55446 0.75668 0.14646 0.0
C591 C 0.55081 0.79433 0.10737 0.0
C592 C 0.52171 0.78543 0.09996 0.0
H593 H 0.58897 0.78849 0.13471 0.0
H594 H 0.56145 0.81265 0.09583 0.0
S595 S 0.47943 0.72382 0.1353 0.0
N596 N 0.51161 0.72417 0.15312 0.0
N597 N 0.48136 0.75077 0.11033 0.0
C598 C 0.50921 0.76132 0.11564 0.0
C599 C 0.52562 0.74691 0.13893 0.0
C600 C 0.18028 0.32848 0.28064 0.0
C601 C 0.18118 0.34049 0.30951 0.0
C602 C 0.19272 0.34401 0.25649 0.0
C603 C 0.2064 0.37196 0.26061 0.0
H604 H 0.17304 0.30575 0.2772 0.0
H605 H 0.1942 0.33275 0.23522 0.0
S606 S 0.2066 0.41609 0.33043 0.0
N607 N 0.19097 0.38416 0.33976 0.0
N608 N 0.21402 0.41351 0.29451 0.0
C609 C 0.2035 0.38577 0.28856 0.0
C610 C 0.19092 0.36997 0.31302 0.0
C611 C 0.91673 0.96025 0.51716 0.0
C612 C 0.89092 0.97807 0.51838 0.0
C613 C 0.93026 0.94975 0.54321 0.0
C614 C 0.91844 0.95673 0.57133 0.0
H615 H 0.92797 0.95631 0.49618 0.0
H616 H 0.95149 0.93847 0.5413 0.0
S617 S 0.84684 0.99515 0.58623 0.0
N618 N 0.85077 -0.00327 0.5497 0.0
N619 N 0.87627 0.97699 0.59863 0.0
C620 C 0.89068 0.97116 0.57264 0.0
C621 C 0.87689 0.98186 0.54614 0.0
C622 C 0.28189 0.6062 0.79292 0.0
C623 C 0.28242 0.6185 0.76409 0.0
C624 C 0.29378 0.62162 0.81719 0.0
C625 C 0.30679 0.64986 0.81359 0.0
H626 H 0.27002 0.58567 0.79728 0.0
H627 H 0.29034 0.61254 0.83929 0.0
S628 S 0.32067 0.68837 0.74188 0.0
N629 N 0.30235 0.65791 0.73256 0.0
N630 N 0.32466 0.68689 0.7784 0.0
C631 C 0.31121 0.66049 0.78448 0.0
C632 C 0.29898 0.6448 0.75963 0.0
C633 C 0.60669 0.01838 0.07767 0.0
C634 C 0.58279 0.0385 0.07513 0.0
C635 C 0.62221 0.00847 0.05255 0.0
C636 C 0.6144 0.01823 0.02384 0.0
H637 H 0.61211 0.00848 0.09899 0.0
H638 H 0.63886 0.99131 0.05559 0.0
S639 S 0.55881 0.07675 0.00597 0.0
N640 N 0.55595 0.07218 0.04233 0.0
N641 N 0.58523 0.05368 0.99501 0.0
C642 C 0.59312 0.04116 0.0214 0.0
C643 C 0.5773 0.05131 0.04709 0.0
C644 C 0.71876 0.12259 0.66113 0.0
C645 C 0.70054 0.14771 0.66525 0.0
C646 C 0.72777 0.10515 0.68529 0.0
C647 C 0.7192 0.11244 0.71454 0.0
H648 H 0.72797 0.11764 0.63938 0.0
H649 H 0.7437 0.08754 0.68117 0.0
S650 S 0.66574 0.17156 0.7363 0.0
N651 N 0.66971 0.17562 0.69997 0.0
N652 N 0.68683 0.14293 0.74552 0.0
C653 C 0.69803 0.13522 0.71847 0.0
C654 C 0.68863 0.15285 0.69376 0.0
C655 C 0.12133 0.45939 0.96635 0.0
C656 C 0.10744 0.46115 0.99443 0.0
C657 C 0.10673 0.44669 0.94198 0.0
C658 C 0.07778 0.43507 0.94475 0.0
H659 H 0.14258 0.47016 0.96245 0.0
H660 H 0.11713 0.44842 0.92025 0.0
S661 S 0.03484 0.42714 0.0149 0.0
N662 N 0.06554 0.44479 0.02482 0.0
N663 N 0.03812 0.42084 0.97882 0.0
C664 C 0.0654 0.43284 0.97345 0.0
C665 C 0.08025 0.44594 -0.00162 0.0
C666 C 0.7621 0.88046 0.18861 0.0
C667 C 0.77406 0.87412 0.21683 0.0
C668 C 0.77124 0.86464 0.16341 0.0
C669 C 0.79286 0.84207 0.16541 0.0
H670 H 0.74381 0.89599 0.18621 0.0
H671 H 0.75971 0.86869 0.14261 0.0
S672 S 0.8364 0.82223 0.23269 0.0
N673 N 0.81267 0.84778 0.24428 0.0
N674 N 0.82984 0.818 0.19678 0.0
C675 C 0.80765 0.83814 0.1927 0.0
C676 C 0.79822 0.85418 0.21848 0.0
C677 C 0.36807 0.5355 0.45812 0.0
C678 C 0.38111 0.53229 0.48645 0.0
C679 C 0.38421 0.5473 0.43422 0.0
C680 C 0.41389 0.55664 0.43778 0.0
H681 H 0.34619 0.5264 0.45358 0.0
H682 H 0.3743 0.54655 0.41224 0.0
S683 S 0.45551 0.56059 0.50893 0.0
N684 N 0.42334 0.54518 0.51796 0.0
N685 N 0.45362 0.56749 0.47286 0.0
C686 C 0.42566 0.55764 0.46676 0.0
C687 C 0.40925 0.54541 0.49119 0.0
C688 C 0.25639 0.20378 0.32973 0.0
C689 C 0.25991 0.22033 0.35614 0.0
C690 C 0.28113 0.1922 0.31456 0.0
C691 C 0.31018 0.19684 0.3253 0.0
H692 H 0.23474 0.20189 0.31928 0.0
H693 H 0.2776 0.18211 0.29295 0.0
S694 S 0.33063 0.23107 0.39759 0.0
N695 N 0.29413 0.23506 0.39552 0.0
N696 N 0.34054 0.21348 0.36688 0.0
C697 C 0.3136 0.20988 0.35355 0.0
C698 C 0.28846 0.2216 0.36902 0.0
C699 C 0.0512 0.0348 0.60192 0.0
C700 C 0.02978 0.03725 0.62482 0.0
C701 C 0.06084 0.05984 0.58599 0.0
C702 C 0.0493 0.08817 0.59233 0.0
H703 H 0.0589 0.01316 0.59465 0.0
H704 H 0.07526 0.05654 0.56691 0.0
S705 S -0.00101 0.10778 0.65488 0.0
N706 N 0.00204 0.07123 0.65671 0.0
N707 N 0.02002 0.11816 0.62654 0.0
C708 C 0.03082 0.09142 0.61743 0.0
C709 C 0.02112 0.06598 0.63378 0.0
C710 C 0.19896 0.76349 0.86999 0.0
C711 C 0.22793 0.76902 0.85932 0.0
C712 C 0.17398 0.77436 0.85497 0.0
C713 C 0.17693 0.79121 0.8287 0.0
H714 H 0.19533 0.74875 0.88873 0.0
H715 H 0.15217 0.76748 0.86274 0.0
S716 S 0.24786 0.81879 0.79631 0.0
N717 N 0.2582 0.79768 0.82455 0.0
N718 N 0.2111 0.81799 0.7962 0.0
C719 C 0.2057 0.80026 0.82013 0.0
C720 C 0.23126 0.78915 0.83546 0.0
C721 C 0.46529 0.93836 0.13072 0.0
C722 C 0.45936 0.96679 0.119 0.0
C723 C 0.45621 0.91265 0.11573 0.0
C724 C 0.44056 0.91436 0.08867 0.0
H725 H 0.4793 0.93574 0.15017 0.0
H726 H 0.46364 0.89132 0.12415 0.0
S727 S 0.41255 0.98321 0.05289 0.0
N728 N 0.43165 0.99505 0.08197 0.0
N729 N 0.41451 0.94655 0.05385 0.0
C730 C 0.43093 0.94247 0.07892 0.0
C731 C 0.44039 0.96877 0.09409 0.0
C732 C 0.79362 0.28452 0.62123 0.0
C733 C 0.7655 0.28178 0.63482 0.0
C734 C 0.81789 0.29626 0.6368 0.0
C735 C 0.81499 0.30567 0.66654 0.0
H736 H 0.79764 0.27526 0.59932 0.0
H737 H 0.83967 0.29526 0.6264 0.0
S738 S 0.74451 0.31101 0.70932 0.0
N739 N 0.73479 0.2955 0.67745 0.0
N740 N 0.78067 0.31731 0.70677 0.0
C741 C 0.78622 0.30714 0.67882 0.0
C742 C 0.76137 0.29516 0.66293 0.0
C743 C 0.97022 0.54275 0.87473 0.0
C744 C 0.96384 0.51514 0.88806 0.0
C745 C 0.95957 0.56926 0.88701 0.0
C746 C 0.94206 0.56921 0.91301 0.0
H747 H 0.98544 0.54422 0.85606 0.0
H748 H 0.96715 0.59005 0.8774 0.0
S749 S 0.91265 0.50261 0.95194 0.0
N750 N 0.93396 0.48909 0.92519 0.0
N751 N 0.91412 0.53913 0.94834 0.0
C752 C 0.93225 0.54171 0.92422 0.0
C753 C 0.94315 0.51458 0.91173 0.0
C754 C 0.6834 0.69341 0.13897 0.0
C755 C 0.68728 0.68448 0.1687 0.0
C756 C 0.70731 0.70423 0.12216 0.0
C757 C 0.73598 0.70689 0.13461 0.0
H758 H 0.66123 0.69461 0.12949 0.0
H759 H 0.70259 0.71309 0.10023 0.0
S760 S 0.75912 0.67924 0.209 0.0
N761 N 0.72282 0.67334 0.20792 0.0
N762 N 0.76796 0.69383 0.17641 0.0
C763 C 0.74091 0.69413 0.16286 0.0
C764 C 0.71645 0.68287 0.17993 0.0
C765 C 0.54415 0.47283 0.41152 0.0
C766 C 0.52784 0.47233 0.38472 0.0
C767 C 0.55482 0.44649 0.42437 0.0
C768 C 0.54953 0.41881 0.41081 0.0
H769 H 0.54653 0.49329 0.42403 0.0
H770 H 0.56462 0.44765 0.44637 0.0
S771 S 0.51579 0.40644 0.33644 0.0
N772 N 0.51268 0.4426 0.34206 0.0
N773 N 0.53278 0.39315 0.36619 0.0
C774 C 0.53689 0.41852 0.38215 0.0
C775 C 0.52597 0.44528 0.36911 0.0
C776 C 0.37279 0.30154 0.21417 0.0
C777 C 0.36015 0.27385 0.20669 0.0
C778 C 0.35912 0.32817 0.20575 0.0
C779 C 0.33254 0.32817 0.18923 0.0
H780 H 0.3919 0.30283 0.22881 0.0
H781 H 0.36815 0.34884 0.2143 0.0
S782 S 0.29495 0.26201 0.15725 0.0
N783 N 0.32292 0.24825 0.17672 0.0
N784 N 0.29731 0.29849 0.16079 0.0
C785 C 0.32199 0.30089 0.17813 0.0
C786 C 0.33581 0.27364 0.18691 0.0
C787 C 0.86217 0.15693 0.76391 0.0
C788 C 0.83962 0.15687 0.78574 0.0
C789 C 0.87635 0.18329 0.75535 0.0
C790 C 0.86849 0.21071 0.76822 0.0
H791 H 0.8676 0.13678 0.75185 0.0
H792 H 0.89201 0.18234 0.73701 0.0
S793 S 0.81611 0.22157 0.8314 0.0
N794 N 0.81396 0.18571 0.82378 0.0
N795 N 0.84072 0.23534 0.80778 0.0
C796 C 0.8485 0.21045 0.79246 0.0
C797 C 0.83406 0.1835 0.80123 0.0
C798 C 0.04383 0.63401 0.02657 0.0
C799 C 0.01482 0.62312 0.03151 0.0
C800 C 0.06872 0.61921 0.03795 0.0
C801 C 0.06559 0.59316 0.055 0.0
H802 H 0.04764 0.65262 0.01172 0.0
H803 H 0.09064 0.62687 0.03133 0.0
S804 S 0.99449 0.5599 0.0808 0.0
N805 N 0.98428 0.58804 0.05951 0.0
N806 N 0.03127 0.56029 0.08097 0.0
C807 C 0.03675 0.58437 0.0635 0.0
C808 C 0.01127 0.59936 0.05172 0.0
C809 C 0.67965 0.79472 0.31063 0.0
C810 C 0.66678 0.82281 0.30587 0.0
C811 C 0.66586 0.76885 0.2999 0.0
C812 C 0.6388 0.77028 0.28404 0.0
H813 H 0.7018 0.79288 0.32001 0.0
H814 H 0.67782 0.74802 0.30184 0.0
S815 S 0.59231 0.83764 0.27336 0.0
N816 N 0.62268 0.84989 0.29005 0.0
N817 N 0.5968 0.80137 0.26982 0.0
C818 C 0.62396 0.79777 0.28269 0.0
C819 C 0.63794 0.82403 0.29369 0.0
C820 C 0.44152 0.40227 0.55193 0.0
C821 C 0.41287 0.39547 0.54139 0.0
C822 C 0.4665 0.38685 0.54135 0.0
C823 C 0.46363 0.36408 0.51993 0.0
H824 H 0.44503 0.42134 0.56625 0.0
H825 H 0.48831 0.3945 0.54826 0.0
S826 S 0.39241 0.33276 0.49183 0.0
N827 N 0.38232 0.36087 0.51322 0.0
N828 N 0.42913 0.3316 0.49351 0.0
C829 C 0.4347 0.35461 0.51233 0.0
C830 C 0.40934 0.37043 0.523 0.0
C831 C 0.16616 0.68744 0.68448 0.0
C832 C 0.155 0.65956 0.69323 0.0
C833 C 0.15202 0.71376 0.69344 0.0
C834 C 0.1262 0.71302 0.71134 0.0
H835 H 0.18744 0.6891 0.6732 0.0
H836 H 0.16287 0.7347 0.68841 0.0
S837 S 0.08384 0.64525 0.73268 0.0
N838 N 0.11364 0.63253 0.7153 0.0
N839 N 0.0867 0.68184 0.73178 0.0
C840 C 0.11271 0.68519 0.7166 0.0
C841 C 0.12725 0.65846 0.70766 0.0
C842 C 0.51196 0.90164 0.95069 0.0
C843 C 0.51609 0.87368 0.96433 0.0
C844 C 0.53603 0.91724 0.93827 0.0
C845 C 0.56494 0.90531 0.9391 0.0
H846 H 0.49062 0.91281 0.95195 0.0
H847 H 0.53246 0.93991 0.93093 0.0
S848 S 0.58591 0.82957 0.9641 0.0
N849 N 0.55004 0.83217 0.97183 0.0
N850 N 0.59522 0.86155 0.94859 0.0
C851 C 0.56851 0.87581 0.94884 0.0
C852 C 0.54409 0.85996 0.9615 0.0
C853 C 0.9713 0.0768 0.43209 0.0
C854 C 0.94271 0.08949 0.43083 0.0
C855 C 0.99526 0.09257 0.4445 0.0
C856 C 0.99132 0.1215 0.45593 0.0
H857 H 0.97449 0.05355 0.42661 0.0
H858 H 0.01612 0.08092 0.44771 0.0
S859 S 0.92276 0.16724 0.4495 0.0
N860 N 0.91326 0.13445 0.43593 0.0
N861 N 0.95823 0.16436 0.45873 0.0
C862 C 0.9639 0.13577 0.45065 0.0
C863 C 0.93957 0.11967 0.4382 0.0
loop_
_geom_bond_atom_site_label_1
_geom_bond_atom_site_label_2
_geom_bond_distance
_geom_bond_site_symmetry_2
_ccdc_geom_bond_type
O0 Cd1 2.223 . S
O0 C8 1.315 . S
Cd1 O0 2.223 . S
Cd1 O4 2.297 . S
Cd1 O5 2.439 . S
Cd1 O11 2.240 . S
Cd2 O3 2.240 . S
Cd2 O10 2.223 . S
Cd2 O12 2.297 . S
Cd2 O13 2.439 . S
O3 Cd2 2.240 . S
O3 C8 1.279 . S
O4 Cd1 2.297 . S
O4 C6 1.247 . S
O5 Cd1 2.439 . S
O5 C6 1.208 . S
C6 O4 1.247 . S
C6 O5 1.208 . S
C7 O12 1.247 . S
C7 O13 1.208 . S
C8 O0 1.315 . S
C8 O3 1.279 . S
C9 O10 1.315 . S
C9 O11 1.279 . S
O10 Cd2 2.223 . S
O10 C9 1.315 . S
O11 Cd1 2.240 . S
O11 C9 1.279 . S
O12 Cd2 2.297 . S
O12 C7 1.247 . S
O13 Cd2 2.439 . S
O13 C7 1.208 . S
O14 Cd15 2.242 . S
O14 C22 1.314 1_655 S
Cd15 O14 2.242 . S
Cd15 O18 2.297 1_655 S
Cd15 O19 2.439 . S
Cd15 O25 2.240 . S
Cd16 O17 2.240 . S
Cd16 O24 2.223 . S
Cd16 O26 2.298 . S
Cd16 O27 2.439 . S
O17 Cd16 2.240 . S
O17 C22 1.276 1_655 S
O18 Cd15 2.297 1_455 S
O18 C20 1.247 . S
O19 Cd15 2.439 . S
O19 C20 1.208 1_655 S
C20 O18 1.247 . S
C20 O19 1.208 1_455 S
C21 O26 1.248 . S
C21 O27 1.208 . S
C22 O14 1.314 1_455 S
C22 O17 1.276 1_455 S
C23 O24 1.315 . S
C23 O25 1.279 . S
O24 Cd16 2.223 . S
O24 C23 1.315 . S
O25 Cd15 2.240 . S
O25 C23 1.279 . S
O26 Cd16 2.298 . S
O26 C21 1.248 . S
O27 Cd16 2.439 . S
O27 C21 1.208 . S
O28 Cd29 2.223 . S
O28 C36 1.315 . S
Cd29 O28 2.223 . S
Cd29 O32 2.297 . S
Cd29 O33 2.439 . S
Cd29 O39 2.240 . S
Cd30 O31 2.240 . S
Cd30 O38 2.223 . S
Cd30 O40 2.297 . S
Cd30 O41 2.439 . S
O31 Cd30 2.240 . S
O31 C36 1.279 . S
O32 Cd29 2.297 . S
O32 C34 1.247 . S
O33 Cd29 2.439 . S
O33 C34 1.208 . S
C34 O32 1.247 . S
C34 O33 1.208 . S
C35 O40 1.247 . S
C35 O41 1.208 . S
C36 O28 1.315 . S
C36 O31 1.279 . S
C37 O38 1.315 . S
C37 O39 1.279 . S
O38 Cd30 2.223 . S
O38 C37 1.315 . S
O39 Cd29 2.240 . S
O39 C37 1.279 . S
O40 Cd30 2.297 . S
O40 C35 1.247 . S
O41 Cd30 2.439 . S
O41 C35 1.208 . S
O42 Cd43 2.223 . S
O42 C50 1.315 . S
Cd43 O42 2.223 . S
Cd43 O46 2.297 . S
Cd43 O47 2.439 . S
Cd43 O53 2.240 . S
Cd44 O45 2.240 . S
Cd44 O52 2.223 . S
Cd44 O54 2.298 . S
Cd44 O55 2.439 . S
O45 Cd44 2.240 . S
O45 C50 1.279 . S
O46 Cd43 2.297 . S
O46 C48 1.247 . S
O47 Cd43 2.439 . S
O47 C48 1.208 . S
C48 O46 1.247 . S
C48 O47 1.208 . S
C49 O54 1.248 . S
C49 O55 1.208 . S
C50 O42 1.315 . S
C50 O45 1.279 . S
C51 O52 1.315 . S
C51 O53 1.279 . S
O52 Cd44 2.223 . S
O52 C51 1.315 . S
O53 Cd43 2.240 . S
O53 C51 1.279 . S
O54 Cd44 2.298 . S
O54 C49 1.248 . S
O55 Cd44 2.439 . S
O55 C49 1.208 . S
O56 Cd57 2.223 . S
O56 C64 1.315 . S
Cd57 O56 2.223 . S
Cd57 O60 2.297 . S
Cd57 O61 2.439 . S
Cd57 O67 2.240 . S
Cd58 O59 2.240 . S
Cd58 O66 2.223 . S
Cd58 O68 2.297 . S
Cd58 O69 2.439 . S
O59 Cd58 2.240 . S
O59 C64 1.279 . S
O60 Cd57 2.297 . S
O60 C62 1.247 . S
O61 Cd57 2.439 . S
O61 C62 1.208 . S
C62 O60 1.247 . S
C62 O61 1.208 . S
C63 O68 1.247 . S
C63 O69 1.208 . S
C64 O56 1.315 . S
C64 O59 1.279 . S
C65 O66 1.315 . S
C65 O67 1.279 . S
O66 Cd58 2.223 . S
O66 C65 1.315 . S
O67 Cd57 2.240 . S
O67 C65 1.279 . S
O68 Cd58 2.297 . S
O68 C63 1.247 . S
O69 Cd58 2.439 . S
O69 C63 1.208 . S
O70 Cd71 2.242 . S
O70 C78 1.314 1_455 S
Cd71 O70 2.242 . S
Cd71 O74 2.297 1_455 S
Cd71 O75 2.439 . S
Cd71 O81 2.240 . S
Cd72 O73 2.240 . S
Cd72 O80 2.223 . S
Cd72 O82 2.297 . S
Cd72 O83 2.439 . S
O73 Cd72 2.240 . S
O73 C78 1.276 1_455 S
O74 Cd71 2.297 1_655 S
O74 C76 1.247 . S
O75 Cd71 2.439 . S
O75 C76 1.208 1_455 S
C76 O74 1.247 . S
C76 O75 1.208 1_655 S
C77 O82 1.247 . S
C77 O83 1.208 . S
C78 O70 1.314 1_655 S
C78 O73 1.276 1_655 S
C79 O80 1.315 . S
C79 O81 1.279 . S
O80 Cd72 2.223 . S
O80 C79 1.315 . S
O81 Cd71 2.240 . S
O81 C79 1.279 . S
O82 Cd72 2.297 . S
O82 C77 1.247 . S
O83 Cd72 2.439 . S
O83 C77 1.208 . S
O84 Cd85 2.223 . S
O84 C92 1.315 . S
Cd85 O84 2.223 . S
Cd85 O88 2.297 . S
Cd85 O89 2.439 . S
Cd85 O95 2.240 . S
Cd86 O87 2.240 . S
Cd86 O94 2.223 . S
Cd86 O96 2.297 . S
Cd86 O97 2.439 . S
O87 Cd86 2.240 . S
O87 C92 1.279 . S
O88 Cd85 2.297 . S
O88 C90 1.247 . S
O89 Cd85 2.439 . S
O89 C90 1.208 . S
C90 O88 1.247 . S
C90 O89 1.208 . S
C91 O96 1.247 . S
C91 O97 1.208 . S
C92 O84 1.315 . S
C92 O87 1.279 . S
C93 O94 1.315 . S
C93 O95 1.279 . S
O94 Cd86 2.223 . S
O94 C93 1.315 . S
O95 Cd85 2.240 . S
O95 C93 1.279 . S
O96 Cd86 2.297 . S
O96 C91 1.247 . S
O97 Cd86 2.439 . S
O97 C91 1.208 . S
O98 Cd99 2.223 . S
O98 C106 1.315 . S
Cd99 O98 2.223 . S
Cd99 O102 2.297 . S
Cd99 O103 2.439 . S
Cd99 O109 2.240 . S
Cd100 O101 2.240 . S
Cd100 O108 2.223 . S
Cd100 O110 2.297 . S
Cd100 O111 2.439 . S
O101 Cd100 2.240 . S
O101 C106 1.279 . S
O102 Cd99 2.297 . S
O102 C104 1.247 . S
O103 Cd99 2.439 . S
O103 C104 1.208 . S
C104 O102 1.247 . S
C104 O103 1.208 . S
C105 O110 1.247 . S
C105 O111 1.208 . S
C106 O98 1.315 . S
C106 O101 1.279 . S
C107 O108 1.315 . S
C107 O109 1.279 . S
O108 Cd100 2.223 . S
O108 C107 1.315 . S
O109 Cd99 2.240 . S
O109 C107 1.279 . S
O110 Cd100 2.297 . S
O110 C105 1.247 . S
O111 Cd100 2.439 . S
O111 C105 1.208 . S
O112 Cd113 2.223 . S
O112 C120 1.315 . S
Cd113 O112 2.223 . S
Cd113 O116 2.297 . S
Cd113 O117 2.439 . S
Cd113 O123 2.240 . S
Cd114 O115 2.240 . S
Cd114 O122 2.223 . S
Cd114 O124 2.297 . S
Cd114 O125 2.439 . S
O115 Cd114 2.240 . S
O115 C120 1.279 . S
O116 Cd113 2.297 . S
O116 C118 1.247 . S
O117 Cd113 2.439 . S
O117 C118 1.208 . S
C118 O116 1.247 . S
C118 O117 1.208 . S
C119 O124 1.247 . S
C119 O125 1.208 . S
C120 O112 1.315 . S
C120 O115 1.279 . S
C121 O122 1.315 . S
C121 O123 1.279 . S
O122 Cd114 2.223 . S
O122 C121 1.315 . S
O123 Cd113 2.240 . S
O123 C121 1.279 . S
O124 Cd114 2.297 . S
O124 C119 1.247 . S
O125 Cd114 2.439 . S
O125 C119 1.208 . S
O126 Cd127 2.223 . S
O126 C134 1.315 . S
Cd127 O126 2.223 . S
Cd127 O130 2.297 . S
Cd127 O131 2.439 . S
Cd127 O137 2.240 . S
Cd128 O129 2.240 . S
Cd128 O136 2.223 . S
Cd128 O138 2.298 . S
Cd128 O139 2.439 . S
O129 Cd128 2.240 . S
O129 C134 1.279 . S
O130 Cd127 2.297 . S
O130 C132 1.247 . S
O131 Cd127 2.439 . S
O131 C132 1.208 . S
C132 O130 1.247 . S
C132 O131 1.208 . S
C133 O138 1.248 . S
C133 O139 1.208 . S
C134 O126 1.315 . S
C134 O129 1.279 . S
C135 O136 1.315 . S
C135 O137 1.279 . S
O136 Cd128 2.223 . S
O136 C135 1.315 . S
O137 Cd127 2.240 . S
O137 C135 1.279 . S
O138 Cd128 2.298 . S
O138 C133 1.248 . S
O139 Cd128 2.439 . S
O139 C133 1.208 . S
O140 Cd141 2.223 . S
O140 C148 1.315 . S
Cd141 O140 2.223 . S
Cd141 O144 2.297 . S
Cd141 O145 2.439 . S
Cd141 O151 2.240 . S
Cd142 O143 2.240 . S
Cd142 O150 2.223 . S
Cd142 O152 2.297 . S
Cd142 O153 2.439 . S
O143 Cd142 2.240 . S
O143 C148 1.279 . S
O144 Cd141 2.297 . S
O144 C146 1.247 . S
O145 Cd141 2.439 . S
O145 C146 1.208 . S
C146 O144 1.247 . S
C146 O145 1.208 . S
C147 O152 1.247 . S
C147 O153 1.208 . S
C148 O140 1.315 . S
C148 O143 1.279 . S
C149 O150 1.315 . S
C149 O151 1.279 . S
O150 Cd142 2.223 . S
O150 C149 1.315 . S
O151 Cd141 2.240 . S
O151 C149 1.279 . S
O152 Cd142 2.297 . S
O152 C147 1.247 . S
O153 Cd142 2.439 . S
O153 C147 1.208 . S
O154 Cd155 2.242 . S
O154 C162 1.314 1_554 S
Cd155 O154 2.242 . S
Cd155 O158 2.297 1_554 S
Cd155 O159 2.439 . S
Cd155 O165 2.240 . S
Cd156 O157 2.240 . S
Cd156 O164 2.223 . S
Cd156 O166 2.297 . S
Cd156 O167 2.439 . S
O157 Cd156 2.240 . S
O157 C162 1.276 1_554 S
O158 Cd155 2.297 1_556 S
O158 C160 1.247 . S
O159 Cd155 2.439 . S
O159 C160 1.208 1_554 S
C160 O158 1.247 . S
C160 O159 1.208 1_556 S
C161 O166 1.247 . S
C161 O167 1.208 . S
C162 O154 1.314 1_556 S
C162 O157 1.276 1_556 S
C163 O164 1.315 . S
C163 O165 1.279 . S
O164 Cd156 2.223 . S
O164 C163 1.315 . S
O165 Cd155 2.240 . S
O165 C163 1.279 . S
O166 Cd156 2.297 . S
O166 C161 1.247 . S
O167 Cd156 2.439 . S
O167 C161 1.208 . S
O168 Cd169 2.223 . S
O168 C176 1.315 . S
Cd169 O168 2.223 . S
Cd169 O172 2.297 . S
Cd169 O173 2.439 . S
Cd169 O179 2.240 . S
Cd170 O171 2.240 . S
Cd170 O178 2.223 . S
Cd170 O180 2.297 . S
Cd170 O181 2.439 . S
O171 Cd170 2.240 . S
O171 C176 1.279 . S
O172 Cd169 2.297 . S
O172 C174 1.247 . S
O173 Cd169 2.439 . S
O173 C174 1.208 . S
C174 O172 1.247 . S
C174 O173 1.208 . S
C175 O180 1.247 . S
C175 O181 1.208 . S
C176 O168 1.315 . S
C176 O171 1.279 . S
C177 O178 1.315 . S
C177 O179 1.279 . S
O178 Cd170 2.223 . S
O178 C177 1.315 . S
O179 Cd169 2.240 . S
O179 C177 1.279 . S
O180 Cd170 2.297 . S
O180 C175 1.247 . S
O181 Cd170 2.439 . S
O181 C175 1.208 . S
O182 Cd183 2.242 . S
O182 C190 1.314 1_556 S
Cd183 O182 2.242 . S
Cd183 O186 2.297 1_556 S
Cd183 O187 2.439 . S
Cd183 O193 2.240 . S
Cd184 O185 2.240 . S
Cd184 O192 2.223 . S
Cd184 O194 2.298 . S
Cd184 O195 2.439 . S
O185 Cd184 2.240 . S
O185 C190 1.276 1_556 S
O186 Cd183 2.297 1_554 S
O186 C188 1.247 . S
O187 Cd183 2.439 . S
O187 C188 1.208 1_556 S
C188 O186 1.247 . S
C188 O187 1.208 1_554 S
C189 O194 1.248 . S
C189 O195 1.208 . S
C190 O182 1.314 1_554 S
C190 O185 1.276 1_554 S
C191 O192 1.315 . S
C191 O193 1.279 . S
O192 Cd184 2.223 . S
O192 C191 1.315 . S
O193 Cd183 2.240 . S
O193 C191 1.279 . S
O194 Cd184 2.298 . S
O194 C189 1.248 . S
O195 Cd184 2.439 . S
O195 C189 1.208 . S
O196 Cd197 2.223 . S
O196 C204 1.315 . S
Cd197 O196 2.223 . S
Cd197 O200 2.297 . S
Cd197 O201 2.439 . S
Cd197 O207 2.240 . S
Cd198 O199 2.240 . S
Cd198 O206 2.223 . S
Cd198 O208 2.297 . S
Cd198 O209 2.439 . S
O199 Cd198 2.240 . S
O199 C204 1.279 . S
O200 Cd197 2.297 . S
O200 C202 1.247 . S
O201 Cd197 2.439 . S
O201 C202 1.208 . S
C202 O200 1.247 . S
C202 O201 1.208 . S
C203 O208 1.247 . S
C203 O209 1.208 . S
C204 O196 1.315 . S
C204 O199 1.279 . S
C205 O206 1.315 . S
C205 O207 1.279 . S
O206 Cd198 2.223 . S
O206 C205 1.315 . S
O207 Cd197 2.240 . S
O207 C205 1.279 . S
O208 Cd198 2.297 . S
O208 C203 1.247 . S
O209 Cd198 2.439 . S
O209 C203 1.208 . S
O210 Cd211 2.223 . S
O210 C218 1.315 . S
Cd211 O210 2.223 . S
Cd211 O214 2.297 . S
Cd211 O215 2.439 . S
Cd211 O221 2.240 . S
Cd212 O213 2.240 . S
Cd212 O220 2.223 . S
Cd212 O222 2.297 . S
Cd212 O223 2.439 . S
O213 Cd212 2.240 . S
O213 C218 1.279 . S
O214 Cd211 2.297 . S
O214 C216 1.247 . S
O215 Cd211 2.439 . S
O215 C216 1.208 . S
C216 O214 1.247 . S
C216 O215 1.208 . S
C217 O222 1.247 . S
C217 O223 1.208 . S
C218 O210 1.315 . S
C218 O213 1.279 . S
C219 O220 1.315 . S
C219 O221 1.279 . S
O220 Cd212 2.223 . S
O220 C219 1.315 . S
O221 Cd211 2.240 . S
O221 C219 1.279 . S
O222 Cd212 2.297 . S
O222 C217 1.247 . S
O223 Cd212 2.439 . S
O223 C217 1.208 . S
O224 Cd225 2.223 . S
O224 C232 1.315 . S
Cd225 O224 2.223 . S
Cd225 O228 2.297 . S
Cd225 O229 2.439 . S
Cd225 O235 2.240 . S
Cd226 O227 2.240 . S
Cd226 O234 2.223 . S
Cd226 O236 2.297 . S
Cd226 O237 2.439 . S
O227 Cd226 2.240 . S
O227 C232 1.279 . S
O228 Cd225 2.297 . S
O228 C230 1.247 . S
O229 Cd225 2.439 . S
O229 C230 1.208 . S
C230 O228 1.247 . S
C230 O229 1.208 . S
C231 O236 1.247 . S
C231 O237 1.208 . S
C232 O224 1.315 . S
C232 O227 1.279 . S
C233 O234 1.315 . S
C233 O235 1.279 . S
O234 Cd226 2.223 . S
O234 C233 1.315 . S
O235 Cd225 2.240 . S
O235 C233 1.279 . S
O236 Cd226 2.297 . S
O236 C231 1.247 . S
O237 Cd226 2.439 . S
O237 C231 1.208 . S
O238 Cd239 2.223 . S
O238 C246 1.315 . S
Cd239 O238 2.223 . S
Cd239 O242 2.297 . S
Cd239 O243 2.439 . S
Cd239 O249 2.240 . S
Cd240 O241 2.240 . S
Cd240 O248 2.223 . S
Cd240 O250 2.297 . S
Cd240 O251 2.439 . S
O241 Cd240 2.240 . S
O241 C246 1.279 . S
O242 Cd239 2.297 . S
O242 C244 1.247 . S
O243 Cd239 2.439 . S
O243 C244 1.208 . S
C244 O242 1.247 . S
C244 O243 1.208 . S
C245 O250 1.247 . S
C245 O251 1.208 . S
C246 O238 1.315 . S
C246 O241 1.279 . S
C247 O248 1.315 . S
C247 O249 1.279 . S
O248 Cd240 2.223 . S
O248 C247 1.315 . S
O249 Cd239 2.240 . S
O249 C247 1.279 . S
O250 Cd240 2.297 . S
O250 C245 1.247 . S
O251 Cd240 2.439 . S
O251 C245 1.208 . S
O252 Cd253 2.223 . S
O252 C260 1.315 . S
Cd253 O252 2.223 . S
Cd253 O256 2.297 . S
Cd253 O257 2.439 . S
Cd253 O263 2.240 . S
Cd254 O255 2.240 . S
Cd254 O262 2.223 . S
Cd254 O264 2.298 . S
Cd254 O265 2.439 . S
O255 Cd254 2.240 . S
O255 C260 1.279 . S
O256 Cd253 2.297 . S
O256 C258 1.247 . S
O257 Cd253 2.439 . S
O257 C258 1.208 . S
C258 O256 1.247 . S
C258 O257 1.208 . S
C259 O264 1.248 . S
C259 O265 1.208 . S
C260 O252 1.315 . S
C260 O255 1.279 . S
C261 O262 1.315 . S
C261 O263 1.279 . S
O262 Cd254 2.223 . S
O262 C261 1.315 . S
O263 Cd253 2.240 . S
O263 C261 1.279 . S
O264 Cd254 2.298 . S
O264 C259 1.248 . S
O265 Cd254 2.439 . S
O265 C259 1.208 . S
O266 Cd267 2.223 . S
O266 C274 1.315 . S
Cd267 O266 2.223 . S
Cd267 O270 2.297 . S
Cd267 O271 2.439 . S
Cd267 O277 2.240 . S
Cd268 O269 2.240 . S
Cd268 O276 2.223 . S
Cd268 O278 2.297 . S
Cd268 O279 2.439 . S
O269 Cd268 2.240 . S
O269 C274 1.279 . S
O270 Cd267 2.297 . S
O270 C272 1.247 . S
O271 Cd267 2.439 . S
O271 C272 1.208 . S
C272 O270 1.247 . S
C272 O271 1.208 . S
C273 O278 1.247 . S
C273 O279 1.208 . S
C274 O266 1.315 . S
C274 O269 1.279 . S
C275 O276 1.315 . S
C275 O277 1.279 . S
O276 Cd268 2.223 . S
O276 C275 1.315 . S
O277 Cd267 2.240 . S
O277 C275 1.279 . S
O278 Cd268 2.297 . S
O278 C273 1.247 . S
O279 Cd268 2.439 . S
O279 C273 1.208 . S
O280 Cd281 2.223 . S
O280 C288 1.315 . S
Cd281 O280 2.223 . S
Cd281 O284 2.297 . S
Cd281 O285 2.439 . S
Cd281 O291 2.240 . S
Cd282 O283 2.240 . S
Cd282 O290 2.223 . S
Cd282 O292 2.297 . S
Cd282 O293 2.439 . S
O283 Cd282 2.240 . S
O283 C288 1.279 . S
O284 Cd281 2.297 . S
O284 C286 1.247 . S
O285 Cd281 2.439 . S
O285 C286 1.208 . S
C286 O284 1.247 . S
C286 O285 1.208 . S
C287 O292 1.247 . S
C287 O293 1.208 . S
C288 O280 1.315 . S
C288 O283 1.279 . S
C289 O290 1.315 . S
C289 O291 1.279 . S
O290 Cd282 2.223 . S
O290 C289 1.315 . S
O291 Cd281 2.240 . S
O291 C289 1.279 . S
O292 Cd282 2.297 . S
O292 C287 1.247 . S
O293 Cd282 2.439 . S
O293 C287 1.208 . S
O294 Cd295 2.223 . S
O294 C302 1.315 . S
Cd295 O294 2.223 . S
Cd295 O298 2.297 . S
Cd295 O299 2.439 . S
Cd295 O305 2.240 . S
Cd296 O297 2.240 . S
Cd296 O304 2.223 . S
Cd296 O306 2.297 . S
Cd296 O307 2.439 . S
O297 Cd296 2.240 . S
O297 C302 1.279 . S
O298 Cd295 2.297 . S
O298 C300 1.247 . S
O299 Cd295 2.439 . S
O299 C300 1.208 . S
C300 O298 1.247 . S
C300 O299 1.208 . S
C301 O306 1.247 . S
C301 O307 1.208 . S
C302 O294 1.315 . S
C302 O297 1.279 . S
C303 O304 1.315 . S
C303 O305 1.279 . S
O304 Cd296 2.223 . S
O304 C303 1.315 . S
O305 Cd295 2.240 . S
O305 C303 1.279 . S
O306 Cd296 2.297 . S
O306 C301 1.247 . S
O307 Cd296 2.439 . S
O307 C301 1.208 . S
O308 Cd309 2.242 . S
O308 C316 1.314 1_565 S
Cd309 O308 2.242 . S
Cd309 O312 2.297 1_565 S
Cd309 O313 2.439 . S
Cd309 O319 2.240 . S
Cd310 O311 2.240 . S
Cd310 O318 2.223 . S
Cd310 O320 2.298 . S
Cd310 O321 2.439 . S
O311 Cd310 2.240 . S
O311 C316 1.276 1_565 S
O312 Cd309 2.297 1_545 S
O312 C314 1.247 . S
O313 Cd309 2.439 . S
O313 C314 1.208 1_565 S
C314 O312 1.247 . S
C314 O313 1.208 1_545 S
C315 O320 1.248 . S
C315 O321 1.208 . S
C316 O308 1.314 1_545 S
C316 O311 1.276 1_545 S
C317 O318 1.315 . S
C317 O319 1.279 . S
O318 Cd310 2.223 . S
O318 C317 1.315 . S
O319 Cd309 2.240 . S
O319 C317 1.279 . S
O320 Cd310 2.298 . S
O320 C315 1.248 . S
O321 Cd310 2.439 . S
O321 C315 1.208 . S
O322 Cd323 2.242 . S
O322 C330 1.314 1_545 S
Cd323 O322 2.242 . S
Cd323 O326 2.297 1_545 S
Cd323 O327 2.439 . S
Cd323 O333 2.240 . S
Cd324 O325 2.240 . S
Cd324 O332 2.223 . S
Cd324 O334 2.297 . S
Cd324 O335 2.439 . S
O325 Cd324 2.240 . S
O325 C330 1.276 1_545 S
O326 Cd323 2.297 1_565 S
O326 C328 1.247 . S
O327 Cd323 2.439 . S
O327 C328 1.208 1_545 S
C328 O326 1.247 . S
C328 O327 1.208 1_565 S
C329 O334 1.247 . S
C329 O335 1.208 . S
C330 O322 1.314 1_565 S
C330 O325 1.276 1_565 S
C331 O332 1.315 . S
C331 O333 1.279 . S
O332 Cd324 2.223 . S
O332 C331 1.315 . S
O333 Cd323 2.240 . S
O333 C331 1.279 . S
O334 Cd324 2.297 . S
O334 C329 1.247 . S
O335 Cd324 2.439 . S
O335 C329 1.208 . S
C336 C337 1.369 . S
C336 C338 1.419 . S
C336 H340 0.930 . S
C337 C336 1.369 . S
C337 C346 1.429 . S
C338 C336 1.419 . S
C338 C339 1.363 . S
C338 H341 0.929 . S
C339 C338 1.363 . S
C339 C345 1.428 . S
H340 C336 0.930 . S
H341 C338 0.929 . S
S342 N343 1.613 . S
S342 N344 1.610 . S
N343 S342 1.613 . S
N343 C346 1.350 . S
N344 S342 1.610 . S
N344 C345 1.351 . S
C345 C339 1.428 . S
C345 N344 1.351 . S
C345 C346 1.434 . S
C346 C337 1.429 . S
C346 N343 1.350 . S
C346 C345 1.434 . S
C347 C348 1.369 . S
C347 C349 1.419 . S
C347 H351 0.930 . S
C348 C347 1.369 . S
C348 C357 1.429 . S
C349 C347 1.419 . S
C349 C350 1.363 . S
C349 H352 0.929 . S
C350 C349 1.363 . S
C350 C356 1.428 . S
H351 C347 0.930 . S
H352 C349 0.929 . S
S353 N354 1.613 . S
S353 N355 1.610 . S
N354 S353 1.613 . S
N354 C357 1.350 . S
N355 S353 1.610 . S
N355 C356 1.351 . S
C356 C350 1.428 . S
C356 N355 1.351 . S
C356 C357 1.434 . S
C357 C348 1.429 . S
C357 N354 1.350 . S
C357 C356 1.434 . S
C358 C359 1.369 . S
C358 C360 1.419 . S
C358 H362 0.930 . S
C359 C358 1.369 . S
C359 C368 1.429 . S
C360 C358 1.419 . S
C360 C361 1.363 . S
C360 H363 0.929 . S
C361 C360 1.363 . S
C361 C367 1.428 . S
H362 C358 0.930 . S
H363 C360 0.929 . S
S364 N365 1.613 . S
S364 N366 1.609 1_556 S
N365 S364 1.613 . S
N365 C368 1.350 . S
N366 S364 1.609 1_554 S
N366 C367 1.346 1_554 S
C367 C361 1.428 . S
C367 N366 1.346 1_556 S
C367 C368 1.434 . S
C368 C359 1.429 . S
C368 N365 1.350 . S
C368 C367 1.434 . S
C369 C370 1.369 . S
C369 C371 1.419 . S
C369 H373 0.930 . S
C370 C369 1.369 . S
C370 C379 1.429 . S
C371 C369 1.419 . S
C371 C372 1.363 . S
C371 H374 0.929 . S
C372 C371 1.363 . S
C372 C378 1.428 . S
H373 C369 0.930 . S
H374 C371 0.929 . S
S375 N376 1.613 . S
S375 N377 1.610 . S
N376 S375 1.613 . S
N376 C379 1.350 . S
N377 S375 1.610 . S
N377 C378 1.351 . S
C378 C372 1.428 . S
C378 N377 1.351 . S
C378 C379 1.434 . S
C379 C370 1.429 . S
C379 N376 1.350 . S
C379 C378 1.434 . S
C380 C381 1.369 . S
C380 C382 1.419 . S
C380 H384 0.930 . S
C381 C380 1.369 . S
C381 C390 1.429 . S
C382 C380 1.419 . S
C382 C383 1.363 . S
C382 H385 0.929 . S
C383 C382 1.363 . S
C383 C389 1.428 . S
H384 C380 0.930 . S
H385 C382 0.929 . S
S386 N387 1.613 . S
S386 N388 1.610 . S
N387 S386 1.613 . S
N387 C390 1.350 . S
N388 S386 1.610 . S
N388 C389 1.351 . S
C389 C383 1.428 . S
C389 N388 1.351 . S
C389 C390 1.434 . S
C390 C381 1.429 . S
C390 N387 1.350 . S
C390 C389 1.434 . S
C391 C392 1.369 . S
C391 C393 1.419 . S
C391 H395 0.930 . S
C392 C391 1.369 . S
C392 C401 1.429 . S
C393 C391 1.419 . S
C393 C394 1.363 . S
C393 H396 0.940 . S
C394 C393 1.363 . S
C394 C400 1.428 . S
H395 C391 0.930 . S
H396 C393 0.940 . S
S397 N398 1.613 . S
S397 N399 1.610 . S
N398 S397 1.613 . S
N398 C401 1.350 . S
N399 S397 1.610 . S
N399 C400 1.351 . S
C400 C394 1.428 . S
C400 N399 1.351 . S
C400 C401 1.434 . S
C401 C392 1.429 . S
C401 N398 1.350 . S
C401 C400 1.434 . S
C402 C403 1.369 . S
C402 C404 1.419 . S
C402 H406 0.930 . S
C403 C402 1.369 . S
C403 C412 1.429 . S
C404 C402 1.419 . S
C404 C405 1.363 . S
C404 H407 0.929 . S
C405 C404 1.363 . S
C405 C411 1.428 . S
H406 C402 0.930 . S
H407 C404 0.929 . S
S408 N409 1.613 . S
S408 N410 1.610 . S
N409 S408 1.613 . S
N409 C412 1.350 . S
N410 S408 1.610 . S
N410 C411 1.351 . S
C411 C405 1.428 . S
C411 N410 1.351 . S
C411 C412 1.434 . S
C412 C403 1.429 . S
C412 N409 1.350 . S
C412 C411 1.434 . S
C413 C414 1.369 . S
C413 C415 1.419 . S
C413 H417 0.930 . S
C414 C413 1.369 . S
C414 C423 1.429 . S
C415 C413 1.419 . S
C415 C416 1.363 . S
C415 H418 0.929 . S
C416 C415 1.363 . S
C416 C422 1.428 . S
H417 C413 0.930 . S
H418 C415 0.929 . S
S419 N420 1.613 . S
S419 N421 1.610 . S
N420 S419 1.613 . S
N420 C423 1.350 . S
N421 S419 1.610 . S
N421 C422 1.351 . S
C422 C416 1.428 . S
C422 N421 1.351 . S
C422 C423 1.434 . S
C423 C414 1.429 . S
C423 N420 1.350 . S
C423 C422 1.434 . S
C424 C425 1.369 . S
C424 C426 1.419 . S
C424 H428 0.930 . S
C425 C424 1.369 . S
C425 C434 1.429 . S
C426 C424 1.419 . S
C426 C427 1.363 . S
C426 H429 0.929 . S
C427 C426 1.363 . S
C427 C433 1.428 . S
H428 C424 0.930 . S
H429 C426 0.929 . S
S430 N431 1.613 . S
S430 N432 1.610 . S
N431 S430 1.613 . S
N431 C434 1.350 . S
N432 S430 1.610 . S
N432 C433 1.351 . S
C433 C427 1.428 . S
C433 N432 1.351 . S
C433 C434 1.434 . S
C434 C425 1.429 . S
C434 N431 1.350 . S
C434 C433 1.434 . S
C435 C436 1.369 . S
C435 C437 1.419 . S
C435 H439 0.930 . S
C436 C435 1.369 . S
C436 C445 1.429 . S
C437 C435 1.419 . S
C437 C438 1.363 . S
C437 H440 0.929 . S
C438 C437 1.363 . S
C438 C444 1.428 . S
H439 C435 0.930 . S
H440 C437 0.929 . S
S441 N442 1.613 . S
S441 N443 1.610 1_565 S
N442 S441 1.613 . S
N442 C445 1.350 1_565 S
N443 S441 1.610 1_545 S
N443 C444 1.351 . S
C444 C438 1.428 . S
C444 N443 1.351 . S
C444 C445 1.434 . S
C445 C436 1.429 . S
C445 N442 1.350 1_545 S
C445 C444 1.434 . S
C446 C447 1.369 . S
C446 C448 1.419 . S
C446 H450 0.930 . S
C447 C446 1.369 . S
C447 C456 1.429 . S
C448 C446 1.419 . S
C448 C449 1.363 . S
C448 H451 0.929 1_565 S
C449 C448 1.363 . S
C449 C455 1.428 . S
H450 C446 0.930 . S
H451 C448 0.929 1_545 S
S452 N453 1.613 . S
S452 N454 1.610 . S
N453 S452 1.613 . S
N453 C456 1.350 . S
N454 S452 1.610 . S
N454 C455 1.351 . S
C455 C449 1.428 . S
C455 N454 1.351 . S
C455 C456 1.434 . S
C456 C447 1.429 . S
C456 N453 1.350 . S
C456 C455 1.434 . S
C457 C458 1.369 . S
C457 C459 1.419 . S
C457 H461 0.930 . S
C458 C457 1.369 . S
C458 C467 1.429 . S
C459 C457 1.419 . S
C459 C460 1.363 . S
C459 H462 0.929 . S
C460 C459 1.363 . S
C460 C466 1.428 . S
H461 C457 0.930 . S
H462 C459 0.929 . S
S463 N464 1.613 . S
S463 N465 1.610 . S
N464 S463 1.613 . S
N464 C467 1.350 . S
N465 S463 1.610 . S
N465 C466 1.351 . S
C466 C460 1.428 . S
C466 N465 1.351 . S
C466 C467 1.434 . S
C467 C458 1.429 . S
C467 N464 1.350 . S
C467 C466 1.434 . S
C468 C469 1.369 . S
C468 C470 1.419 . S
C468 H472 0.930 . S
C469 C468 1.369 . S
C469 C478 1.429 . S
C470 C468 1.419 . S
C470 C471 1.363 . S
C470 H473 0.929 . S
C471 C470 1.363 . S
C471 C477 1.428 . S
H472 C468 0.930 . S
H473 C470 0.929 . S
S474 N475 1.613 . S
S474 N476 1.610 . S
N475 S474 1.613 . S
N475 C478 1.350 . S
N476 S474 1.610 . S
N476 C477 1.351 . S
C477 C471 1.428 . S
C477 N476 1.351 . S
C477 C478 1.434 . S
C478 C469 1.429 . S
C478 N475 1.350 . S
C478 C477 1.434 . S
C479 C480 1.369 . S
C479 C481 1.419 1_565 S
C479 H483 0.930 . S
C480 C479 1.369 . S
C480 C489 1.429 1_565 S
C481 C479 1.419 1_545 S
C481 C482 1.363 . S
C481 H484 0.929 . S
C482 C481 1.363 . S
C482 C488 1.428 . S
H483 C479 0.930 . S
H484 C481 0.929 . S
S485 N486 1.613 . S
S485 N487 1.610 . S
N486 S485 1.613 . S
N486 C489 1.350 . S
N487 S485 1.610 . S
N487 C488 1.351 . S
C488 C482 1.428 . S
C488 N487 1.351 . S
C488 C489 1.434 . S
C489 C480 1.429 1_545 S
C489 N486 1.350 . S
C489 C488 1.434 . S
C490 C491 1.369 . S
C490 C492 1.419 . S
C490 H494 0.930 . S
C491 C490 1.369 . S
C491 C500 1.429 . S
C492 C490 1.419 . S
C492 C493 1.363 1_556 S
C492 H495 0.929 . S
C493 C492 1.363 1_554 S
C493 C499 1.428 . S
H494 C490 0.930 . S
H495 C492 0.929 . S
S496 N497 1.613 1_554 S
S496 N498 1.610 . S
N497 S496 1.613 1_556 S
N497 C500 1.350 . S
N498 S496 1.610 . S
N498 C499 1.351 . S
C499 C493 1.428 . S
C499 N498 1.351 . S
C499 C500 1.434 1_554 S
C500 C491 1.429 . S
C500 N497 1.350 . S
C500 C499 1.434 1_556 S
C501 C502 1.369 1_565 S
C501 C503 1.419 . S
C501 H505 0.930 . S
C502 C501 1.369 1_545 S
C502 C511 1.429 . S
C503 C501 1.419 . S
C503 C504 1.363 . S
C503 H506 0.929 . S
C504 C503 1.363 . S
C504 C510 1.428 . S
H505 C501 0.930 . S
H506 C503 0.929 . S
S507 N508 1.613 . S
S507 N509 1.610 1_545 S
N508 S507 1.613 . S
N508 C511 1.350 . S
N509 S507 1.610 1_565 S
N509 C510 1.351 . S
C510 C504 1.428 . S
C510 N509 1.351 . S
C510 C511 1.434 1_565 S
C511 C502 1.429 . S
C511 N508 1.350 . S
C511 C510 1.434 1_545 S
C512 C513 1.369 . S
C512 C514 1.419 . S
C512 H516 0.930 . S
C513 C512 1.369 . S
C513 C522 1.429 . S
C514 C512 1.419 . S
C514 C515 1.363 . S
C514 H517 0.929 . S
C515 C514 1.363 . S
C515 C521 1.428 . S
H516 C512 0.930 . S
H517 C514 0.929 . S
S518 N519 1.613 . S
S518 N520 1.610 . S
N519 S518 1.613 . S
N519 C522 1.350 . S
N520 S518 1.610 . S
N520 C521 1.351 . S
C521 C515 1.428 . S
C521 N520 1.351 . S
C521 C522 1.434 . S
C522 C513 1.429 . S
C522 N519 1.350 . S
C522 C521 1.434 . S
C523 C524 1.369 . S
C523 C525 1.419 . S
C523 H527 0.930 . S
C524 C523 1.369 . S
C524 C533 1.429 . S
C525 C523 1.419 . S
C525 C526 1.363 . S
C525 H528 0.929 . S
C526 C525 1.363 . S
C526 C532 1.428 . S
H527 C523 0.930 . S
H528 C525 0.929 . S
S529 N530 1.613 . S
S529 N531 1.610 . S
N530 S529 1.613 . S
N530 C533 1.350 . S
N531 S529 1.610 . S
N531 C532 1.351 . S
C532 C526 1.428 . S
C532 N531 1.351 . S
C532 C533 1.434 . S
C533 C524 1.429 . S
C533 N530 1.350 . S
C533 C532 1.434 . S
C534 C535 1.369 . S
C534 C536 1.419 1_556 S
C534 H538 0.930 . S
C535 C534 1.369 . S
C535 C544 1.429 1_556 S
C536 C534 1.419 1_554 S
C536 C537 1.363 . S
C536 H539 0.929 . S
C537 C536 1.363 . S
C537 C543 1.428 . S
H538 C534 0.930 . S
H539 C536 0.929 . S
S540 N541 1.613 . S
S540 N542 1.610 . S
N541 S540 1.613 . S
N541 C544 1.350 . S
N542 S540 1.610 . S
N542 C543 1.351 . S
C543 C537 1.428 . S
C543 N542 1.351 . S
C543 C544 1.434 . S
C544 C535 1.429 1_554 S
C544 N541 1.350 . S
C544 C543 1.434 . S
C545 C546 1.369 . S
C545 C547 1.419 . S
C545 H549 0.930 . S
C546 C545 1.369 . S
C546 C555 1.429 . S
C547 C545 1.419 . S
C547 C548 1.363 . S
C547 H550 0.929 . S
C548 C547 1.363 . S
C548 C554 1.428 . S
H549 C545 0.930 . S
H550 C547 0.929 . S
S551 N552 1.613 . S
S551 N553 1.610 . S
N552 S551 1.613 . S
N552 C555 1.350 . S
N553 S551 1.610 . S
N553 C554 1.351 . S
C554 C548 1.428 . S
C554 N553 1.351 . S
C554 C555 1.434 . S
C555 C546 1.429 . S
C555 N552 1.350 . S
C555 C554 1.434 . S
C556 C557 1.369 . S
C556 C558 1.419 . S
C556 H560 0.930 . S
C557 C556 1.369 . S
C557 C566 1.429 . S
C558 C556 1.419 . S
C558 C559 1.363 . S
C558 H561 0.929 . S
C559 C558 1.363 . S
C559 C565 1.428 . S
H560 C556 0.930 . S
H561 C558 0.929 . S
S562 N563 1.613 . S
S562 N564 1.610 . S
N563 S562 1.613 . S
N563 C566 1.350 . S
N564 S562 1.610 . S
N564 C565 1.351 . S
C565 C559 1.428 . S
C565 N564 1.351 . S
C565 C566 1.434 . S
C566 C557 1.429 . S
C566 N563 1.350 . S
C566 C565 1.434 . S
C567 C568 1.369 1_655 S
C567 C569 1.419 . S
C567 H571 0.930 . S
C568 C567 1.369 1_455 S
C568 C577 1.429 . S
C569 C567 1.419 . S
C569 C570 1.363 . S
C569 H572 0.929 . S
C570 C569 1.363 . S
C570 C576 1.428 . S
H571 C567 0.930 . S
H572 C569 0.929 . S
S573 N574 1.613 . S
S573 N575 1.610 1_455 S
N574 S573 1.613 . S
N574 C577 1.350 . S
N575 S573 1.610 1_655 S
N575 C576 1.351 . S
C576 C570 1.428 . S
C576 N575 1.351 . S
C576 C577 1.434 1_655 S
C577 C568 1.429 . S
C577 N574 1.350 . S
C577 C576 1.434 1_455 S
C578 C579 1.369 . S
C578 C580 1.419 1_655 S
C578 H582 0.930 . S
C579 C578 1.369 . S
C579 C588 1.429 1_655 S
C580 C578 1.419 1_455 S
C580 C581 1.363 . S
C580 H583 0.929 . S
C581 C580 1.363 . S
C581 C587 1.428 . S
H582 C578 0.930 . S
H583 C580 0.929 . S
S584 N585 1.613 . S
S584 N586 1.610 . S
N585 S584 1.613 . S
N585 C588 1.350 . S
N586 S584 1.610 . S
N586 C587 1.351 . S
C587 C581 1.428 . S
C587 N586 1.351 . S
C587 C588 1.434 . S
C588 C579 1.429 1_455 S
C588 N585 1.350 . S
C588 C587 1.434 . S
C589 C590 1.369 . S
C589 C591 1.419 . S
C589 H593 0.930 . S
C590 C589 1.369 . S
C590 C599 1.429 . S
C591 C589 1.419 . S
C591 C592 1.363 . S
C591 H594 0.929 . S
C592 C591 1.363 . S
C592 C598 1.428 . S
H593 C589 0.930 . S
H594 C591 0.929 . S
S595 N596 1.613 . S
S595 N597 1.610 . S
N596 S595 1.613 . S
N596 C599 1.350 . S
N597 S595 1.610 . S
N597 C598 1.351 . S
C598 C592 1.428 . S
C598 N597 1.351 . S
C598 C599 1.434 . S
C599 C590 1.429 . S
C599 N596 1.350 . S
C599 C598 1.434 . S
C600 C601 1.369 . S
C600 C602 1.419 . S
C600 H604 0.930 . S
C601 C600 1.369 . S
C601 C610 1.429 . S
C602 C600 1.419 . S
C602 C603 1.363 . S
C602 H605 0.929 . S
C603 C602 1.363 . S
C603 C609 1.428 . S
H604 C600 0.930 . S
H605 C602 0.929 . S
S606 N607 1.613 . S
S606 N608 1.610 . S
N607 S606 1.613 . S
N607 C610 1.350 . S
N608 S606 1.610 . S
N608 C609 1.351 . S
C609 C603 1.428 . S
C609 N608 1.351 . S
C609 C610 1.434 . S
C610 C601 1.429 . S
C610 N607 1.350 . S
C610 C609 1.434 . S
C611 C612 1.369 . S
C611 C613 1.419 . S
C611 H615 0.930 1_565 S
C612 C611 1.369 . S
C612 C621 1.429 . S
C613 C611 1.419 . S
C613 C614 1.363 . S
C613 H616 0.929 . S
C614 C613 1.363 . S
C614 C620 1.428 . S
H615 C611 0.930 1_545 S
H616 C613 0.929 . S
S617 N618 1.613 . S
S617 N619 1.610 . S
N618 S617 1.613 . S
N618 C621 1.350 . S
N619 S617 1.610 . S
N619 C620 1.351 . S
C620 C614 1.428 . S
C620 N619 1.351 . S
C620 C621 1.434 . S
C621 C612 1.429 . S
C621 N618 1.350 . S
C621 C620 1.434 . S
C622 C623 1.369 . S
C622 C624 1.419 . S
C622 H626 0.930 . S
C623 C622 1.369 . S
C623 C632 1.429 . S
C624 C622 1.419 . S
C624 C625 1.363 . S
C624 H627 0.929 . S
C625 C624 1.363 . S
C625 C631 1.428 . S
H626 C622 0.930 . S
H627 C624 0.929 . S
S628 N629 1.613 . S
S628 N630 1.610 . S
N629 S628 1.613 . S
N629 C632 1.350 . S
N630 S628 1.610 . S
N630 C631 1.351 . S
C631 C625 1.428 . S
C631 N630 1.351 . S
C631 C632 1.434 . S
C632 C623 1.429 . S
C632 N629 1.350 . S
C632 C631 1.434 . S
C633 C634 1.369 . S
C633 C635 1.419 . S
C633 H637 0.930 . S
C634 C633 1.369 . S
C634 C643 1.429 . S
C635 C633 1.419 . S
C635 C636 1.363 1_554 S
C635 H638 0.929 . S
C636 C635 1.363 1_556 S
C636 C642 1.428 1_556 S
H637 C633 0.930 . S
H638 C635 0.929 . S
S639 N640 1.613 . S
S639 N641 1.610 1_554 S
N640 S639 1.613 . S
N640 C643 1.350 . S
N641 S639 1.610 1_556 S
N641 C642 1.351 1_556 S
C642 C636 1.428 1_554 S
C642 N641 1.351 1_554 S
C642 C643 1.434 . S
C643 C634 1.429 . S
C643 N640 1.350 . S
C643 C642 1.434 . S
C644 C645 1.369 . S
C644 C646 1.419 . S
C644 H648 0.930 . S
C645 C644 1.369 . S
C645 C654 1.429 . S
C646 C644 1.419 . S
C646 C647 1.363 . S
C646 H649 0.929 . S
C647 C646 1.363 . S
C647 C653 1.428 . S
H648 C644 0.930 . S
H649 C646 0.929 . S
S650 N651 1.613 . S
S650 N652 1.610 . S
N651 S650 1.613 . S
N651 C654 1.350 . S
N652 S650 1.610 . S
N652 C653 1.351 . S
C653 C647 1.428 . S
C653 N652 1.351 . S
C653 C654 1.434 . S
C654 C645 1.429 . S
C654 N651 1.350 . S
C654 C653 1.434 . S
C655 C656 1.369 1_556 S
C655 C657 1.419 . S
C655 H659 0.930 . S
C656 C655 1.369 1_554 S
C656 C665 1.429 1_554 S
C657 C655 1.419 . S
C657 C658 1.363 . S
C657 H660 0.929 . S
C658 C657 1.363 . S
C658 C664 1.428 . S
H659 C655 0.930 . S
H660 C657 0.929 . S
S661 N662 1.615 1_556 S
S661 N663 1.607 . S
N662 S661 1.615 1_554 S
N662 C665 1.350 1_554 S
N663 S661 1.607 . S
N663 C664 1.351 . S
C664 C658 1.428 . S
C664 N663 1.351 . S
C664 C665 1.434 . S
C665 C656 1.429 1_556 S
C665 N662 1.350 1_556 S
C665 C664 1.434 . S
C666 C667 1.369 . S
C666 C668 1.419 . S
C666 H670 0.930 . S
C667 C666 1.369 . S
C667 C676 1.429 . S
C668 C666 1.419 . S
C668 C669 1.363 . S
C668 H671 0.929 . S
C669 C668 1.363 . S
C669 C675 1.428 . S
H670 C666 0.930 . S
H671 C668 0.929 . S
S672 N673 1.613 . S
S672 N674 1.610 . S
N673 S672 1.613 . S
N673 C676 1.350 . S
N674 S672 1.610 . S
N674 C675 1.351 . S
C675 C669 1.428 . S
C675 N674 1.351 . S
C675 C676 1.434 . S
C676 C667 1.429 . S
C676 N673 1.350 . S
C676 C675 1.434 . S
C677 C678 1.369 . S
C677 C679 1.419 . S
C677 H681 0.930 . S
C678 C677 1.369 . S
C678 C687 1.429 . S
C679 C677 1.419 . S
C679 C680 1.363 . S
C679 H682 0.929 . S
C680 C679 1.363 . S
C680 C686 1.428 . S
H681 C677 0.930 . S
H682 C679 0.929 . S
S683 N684 1.613 . S
S683 N685 1.610 . S
N684 S683 1.613 . S
N684 C687 1.350 . S
N685 S683 1.610 . S
N685 C686 1.351 . S
C686 C680 1.428 . S
C686 N685 1.351 . S
C686 C687 1.434 . S
C687 C678 1.429 . S
C687 N684 1.350 . S
C687 C686 1.434 . S
C688 C689 1.369 . S
C688 C690 1.419 . S
C688 H692 0.930 . S
C689 C688 1.369 . S
C689 C698 1.429 . S
C690 C688 1.419 . S
C690 C691 1.363 . S
C690 H693 0.929 . S
C691 C690 1.363 . S
C691 C697 1.428 . S
H692 C688 0.930 . S
H693 C690 0.929 . S
S694 N695 1.613 . S
S694 N696 1.610 . S
N695 S694 1.613 . S
N695 C698 1.350 . S
N696 S694 1.610 . S
N696 C697 1.351 . S
C697 C691 1.428 . S
C697 N696 1.351 . S
C697 C698 1.434 . S
C698 C689 1.429 . S
C698 N695 1.350 . S
C698 C697 1.434 . S
C699 C700 1.369 1_545 S
C699 C701 1.419 . S
C699 H703 0.930 1_545 S
C700 C699 1.369 1_565 S
C700 C709 1.429 1_565 S
C701 C699 1.419 . S
C701 C702 1.363 . S
C701 H704 0.929 . S
C702 C701 1.363 . S
C702 C708 1.428 . S
H703 C699 0.930 1_565 S
H704 C701 0.929 . S
S705 N706 1.613 . S
S705 N707 1.610 1_655 S
N706 S705 1.613 . S
N706 C709 1.350 1_655 S
N707 S705 1.610 1_455 S
N707 C708 1.351 . S
C708 C702 1.428 . S
C708 N707 1.351 . S
C708 C709 1.434 . S
C709 C700 1.429 1_545 S
C709 N706 1.350 1_455 S
C709 C708 1.434 . S
C710 C711 1.369 . S
C710 C712 1.419 . S
C710 H714 0.930 . S
C711 C710 1.369 . S
C711 C720 1.429 . S
C712 C710 1.419 . S
C712 C713 1.363 . S
C712 H715 0.929 . S
C713 C712 1.363 . S
C713 C719 1.428 . S
H714 C710 0.930 . S
H715 C712 0.929 . S
S716 N717 1.613 . S
S716 N718 1.610 . S
N717 S716 1.613 . S
N717 C720 1.350 . S
N718 S716 1.610 . S
N718 C719 1.351 . S
C719 C713 1.428 . S
C719 N718 1.351 . S
C719 C720 1.434 . S
C720 C711 1.429 . S
C720 N717 1.350 . S
C720 C719 1.434 . S
C721 C722 1.369 1_565 S
C721 C723 1.419 . S
C721 H725 0.930 . S
C722 C721 1.369 1_545 S
C722 C731 1.429 1_545 S
C723 C721 1.419 . S
C723 C724 1.363 . S
C723 H726 0.929 . S
C724 C723 1.363 . S
C724 C730 1.428 . S
H725 C721 0.930 . S
H726 C723 0.929 . S
S727 N728 1.613 1_565 S
S727 N729 1.610 . S
N728 S727 1.613 1_545 S
N728 C731 1.350 1_545 S
N729 S727 1.610 . S
N729 C730 1.351 . S
C730 C724 1.428 . S
C730 N729 1.351 . S
C730 C731 1.434 . S
C731 C722 1.429 1_565 S
C731 N728 1.350 1_565 S
C731 C730 1.434 . S
C732 C733 1.369 . S
C732 C734 1.419 . S
C732 H736 0.930 . S
C733 C732 1.369 . S
C733 C742 1.429 . S
C734 C732 1.419 . S
C734 C735 1.363 . S
C734 H737 0.929 . S
C735 C734 1.363 . S
C735 C741 1.428 . S
H736 C732 0.930 . S
H737 C734 0.929 . S
S738 N739 1.613 . S
S738 N740 1.610 . S
N739 S738 1.613 . S
N739 C742 1.350 . S
N740 S738 1.610 . S
N740 C741 1.351 . S
C741 C735 1.428 . S
C741 N740 1.351 . S
C741 C742 1.434 . S
C742 C733 1.429 . S
C742 N739 1.350 . S
C742 C741 1.434 . S
C743 C744 1.369 . S
C743 C745 1.419 . S
C743 H747 0.930 . S
C744 C743 1.369 . S
C744 C753 1.429 . S
C745 C743 1.419 . S
C745 C746 1.363 . S
C745 H748 0.929 . S
C746 C745 1.363 . S
C746 C752 1.428 . S
H747 C743 0.930 . S
H748 C745 0.929 . S
S749 N750 1.613 . S
S749 N751 1.610 . S
N750 S749 1.613 . S
N750 C753 1.350 1_455 S
N751 S749 1.610 . S
N751 C752 1.351 1_455 S
C752 C746 1.428 . S
C752 N751 1.351 1_655 S
C752 C753 1.434 . S
C753 C744 1.429 . S
C753 N750 1.350 1_655 S
C753 C752 1.434 . S
C754 C755 1.369 . S
C754 C756 1.419 . S
C754 H758 0.930 . S
C755 C754 1.369 . S
C755 C764 1.429 . S
C756 C754 1.419 . S
C756 C757 1.363 . S
C756 H759 0.929 . S
C757 C756 1.363 . S
C757 C763 1.428 . S
H758 C754 0.930 . S
H759 C756 0.929 . S
S760 N761 1.613 . S
S760 N762 1.610 . S
N761 S760 1.613 . S
N761 C764 1.350 . S
N762 S760 1.610 . S
N762 C763 1.351 . S
C763 C757 1.428 . S
C763 N762 1.351 . S
C763 C764 1.434 . S
C764 C755 1.429 . S
C764 N761 1.350 . S
C764 C763 1.434 . S
C765 C766 1.369 . S
C765 C767 1.419 . S
C765 H769 0.930 . S
C766 C765 1.369 . S
C766 C775 1.429 . S
C767 C765 1.419 . S
C767 C768 1.363 . S
C767 H770 0.929 . S
C768 C767 1.363 . S
C768 C774 1.428 . S
H769 C765 0.930 . S
H770 C767 0.929 . S
S771 N772 1.613 . S
S771 N773 1.610 . S
N772 S771 1.613 . S
N772 C775 1.350 . S
N773 S771 1.610 . S
N773 C774 1.351 . S
C774 C768 1.428 . S
C774 N773 1.351 . S
C774 C775 1.434 . S
C775 C766 1.429 . S
C775 N772 1.350 . S
C775 C774 1.434 . S
C776 C777 1.369 . S
C776 C778 1.419 . S
C776 H780 0.930 . S
C777 C776 1.369 . S
C777 C786 1.429 . S
C778 C776 1.419 . S
C778 C779 1.363 . S
C778 H781 0.929 . S
C779 C778 1.363 . S
C779 C785 1.428 . S
H780 C776 0.930 . S
H781 C778 0.929 . S
S782 N783 1.613 . S
S782 N784 1.610 . S
N783 S782 1.613 . S
N783 C786 1.350 . S
N784 S782 1.610 . S
N784 C785 1.351 . S
C785 C779 1.428 . S
C785 N784 1.351 . S
C785 C786 1.434 . S
C786 C777 1.429 . S
C786 N783 1.350 . S
C786 C785 1.434 . S
C787 C788 1.369 . S
C787 C789 1.419 . S
C787 H791 0.930 . S
C788 C787 1.369 . S
C788 C797 1.429 . S
C789 C787 1.419 . S
C789 C790 1.363 . S
C789 H792 0.929 . S
C790 C789 1.363 . S
C790 C796 1.428 . S
H791 C787 0.930 . S
H792 C789 0.929 . S
S793 N794 1.613 . S
S793 N795 1.610 . S
N794 S793 1.613 . S
N794 C797 1.350 . S
N795 S793 1.610 . S
N795 C796 1.351 . S
C796 C790 1.428 . S
C796 N795 1.351 . S
C796 C797 1.434 . S
C797 C788 1.429 . S
C797 N794 1.350 . S
C797 C796 1.434 . S
C798 C799 1.369 1_455 S
C798 C800 1.419 . S
C798 H802 0.930 1_554 S
C799 C798 1.369 1_655 S
C799 C808 1.429 1_655 S
C800 C798 1.419 . S
C800 C801 1.363 . S
C800 H803 0.929 . S
C801 C800 1.363 . S
C801 C807 1.428 . S
H802 C798 0.930 1_556 S
H803 C800 0.929 . S
S804 N805 1.613 . S
S804 N806 1.610 1_655 S
N805 S804 1.613 . S
N805 C808 1.350 1_655 S
N806 S804 1.610 1_455 S
N806 C807 1.351 . S
C807 C801 1.428 . S
C807 N806 1.351 . S
C807 C808 1.434 . S
C808 C799 1.429 1_455 S
C808 N805 1.350 1_455 S
C808 C807 1.434 . S
C809 C810 1.369 . S
C809 C811 1.419 . S
C809 H813 0.930 . S
C810 C809 1.369 . S
C810 C819 1.429 . S
C811 C809 1.419 . S
C811 C812 1.363 . S
C811 H814 0.929 . S
C812 C811 1.363 . S
C812 C818 1.428 . S
H813 C809 0.930 . S
H814 C811 0.929 . S
S815 N816 1.613 . S
S815 N817 1.610 . S
N816 S815 1.613 . S
N816 C819 1.350 . S
N817 S815 1.610 . S
N817 C818 1.351 . S
C818 C812 1.428 . S
C818 N817 1.351 . S
C818 C819 1.434 . S
C819 C810 1.429 . S
C819 N816 1.350 . S
C819 C818 1.434 . S
C820 C821 1.369 . S
C820 C822 1.419 . S
C820 H824 0.930 . S
C821 C820 1.369 . S
C821 C830 1.429 . S
C822 C820 1.419 . S
C822 C823 1.363 . S
C822 H825 0.929 . S
C823 C822 1.363 . S
C823 C829 1.428 . S
H824 C820 0.930 . S
H825 C822 0.929 . S
S826 N827 1.613 . S
S826 N828 1.610 . S
N827 S826 1.613 . S
N827 C830 1.350 . S
N828 S826 1.610 . S
N828 C829 1.351 . S
C829 C823 1.428 . S
C829 N828 1.351 . S
C829 C830 1.434 . S
C830 C821 1.429 . S
C830 N827 1.350 . S
C830 C829 1.434 . S
C831 C832 1.369 . S
C831 C833 1.419 . S
C831 H835 0.930 . S
C832 C831 1.369 . S
C832 C841 1.429 . S
C833 C831 1.419 . S
C833 C834 1.363 . S
C833 H836 0.929 . S
C834 C833 1.363 . S
C834 C840 1.428 . S
H835 C831 0.930 . S
H836 C833 0.929 . S
S837 N838 1.613 . S
S837 N839 1.610 . S
N838 S837 1.613 . S
N838 C841 1.350 . S
N839 S837 1.610 . S
N839 C840 1.351 . S
C840 C834 1.428 . S
C840 N839 1.351 . S
C840 C841 1.434 . S
C841 C832 1.429 . S
C841 N838 1.350 . S
C841 C840 1.434 . S
C842 C843 1.369 . S
C842 C844 1.419 . S
C842 H846 0.930 . S
C843 C842 1.369 . S
C843 C852 1.429 . S
C844 C842 1.419 . S
C844 C845 1.363 . S
C844 H847 0.929 . S
C845 C844 1.363 . S
C845 C851 1.428 . S
H846 C842 0.930 . S
H847 C844 0.929 . S
S848 N849 1.613 . S
S848 N850 1.610 1_554 S
N849 S848 1.613 . S
N849 C852 1.350 1_554 S
N850 S848 1.610 1_556 S
N850 C851 1.351 . S
C851 C845 1.428 . S
C851 N850 1.351 . S
C851 C852 1.434 . S
C852 C843 1.429 . S
C852 N849 1.350 1_556 S
C852 C851 1.434 . S
C853 C854 1.369 . S
C853 C855 1.419 . S
C853 H857 0.930 . S
C854 C853 1.369 . S
C854 C863 1.429 . S
C855 C853 1.419 . S
C855 C856 1.363 1_655 S
C855 H858 0.929 . S
C856 C855 1.363 1_455 S
C856 C862 1.428 1_455 S
H857 C853 0.930 . S
H858 C855 0.929 . S
S859 N860 1.613 . S
S859 N861 1.610 1_655 S
N860 S859 1.613 . S
N860 C863 1.350 . S
N861 S859 1.610 1_455 S
N861 C862 1.351 1_455 S
C862 C856 1.428 1_655 S
C862 N861 1.351 1_655 S
C862 C863 1.434 . S
C863 C854 1.429 . S
C863 N860 1.350 . S
C863 C862 1.434 . S
C337 C132 1.427 . S
C339 C6 1.424 . S
C348 C20 1.426 . S
C350 C146 1.424 . S
C359 C34 1.427 . S
C361 C160 1.426 . S
C370 C48 1.425 . S
C372 C118 1.427 . S
C381 C62 1.427 . S
C383 C216 1.425 . S
C392 C174 1.424 . S
C394 C76 1.424 . S
C403 C90 1.423 . S
C405 C188 1.427 . S
C414 C202 1.425 . S
C416 C104 1.427 . S
C425 C230 1.423 . S
C427 C258 1.425 . S
C436 C314 1.426 . S
C438 C244 1.426 . S
C447 C272 1.425 . S
C449 C328 1.424 . S
C458 C300 1.427 . S
C460 C286 1.424 . S
C469 C287 1.840 . S
C471 C7 1.848 . S
C480 C21 1.839 . S
C482 C245 1.842 . S
C491 C35 1.850 . S
C493 C259 1.843 . S
C502 C49 1.850 . S
C504 C273 1.843 . S
C513 C63 1.838 . S
C515 C329 1.844 . S
C524 C301 1.844 . S
C526 C77 1.849 . S
C535 C315 1.839 . S
C537 C91 1.842 . S
C546 C231 1.847 . S
C548 C105 1.848 . S
C557 C217 1.849 . S
C559 C119 1.847 . S
C568 C133 1.850 . S
C570 C175 1.843 . S
C579 C189 1.840 . S
C581 C147 1.842 . S
C590 C203 1.848 . S
C592 C161 1.848 . S
C601 C9 1.348 . S
C603 C232 1.402 . S
C612 C330 1.404 . S
C614 C23 1.346 . S
C623 C302 1.403 . S
C625 C37 1.338 . S
C634 C51 1.337 . S
C636 C316 1.407 . S
C645 C65 1.347 . S
C647 C246 1.402 . S
C656 C260 1.401 . S
C658 C79 1.346 . S
C667 C274 1.403 . S
C669 C93 1.339 . S
C678 C288 1.402 . S
C680 C107 1.346 . S
C689 C8 1.399 . S
C691 C121 1.337 . S
C700 C22 1.402 . S
C702 C135 1.339 . S
C711 C36 1.404 . S
C713 C149 1.341 . S
C722 C50 1.405 . S
C724 C163 1.342 . S
C733 C64 1.402 . S
C735 C177 1.337 . S
C744 C78 1.406 . S
C746 C191 1.337 . S
C755 C205 1.346 . S
C757 C92 1.403 . S
C766 C106 1.398 . S
C768 C219 1.339 . S
C777 C120 1.403 . S
C779 C233 1.346 . S
C788 C247 1.337 . S
C790 C176 1.403 . S
C799 C190 1.408 . S
C801 C261 1.345 . S
C810 C275 1.339 . S
C812 C204 1.399 . S
C821 C289 1.337 . S
C823 C218 1.399 . S
C832 C303 1.337 . S
C834 C148 1.399 . S
C843 C162 1.401 . S
C845 C317 1.339 . S
C854 C331 1.348 . S
C856 C134 1.402 . S
