# Generated by pormake.
# Topology atn, (4)-cn, num edge types: 1
# Building blocks:
#     Node 0, Type 0, BuildingBlock: NAHDIM_clean_sbu_0, # of connection points: 4
#     Node 1, Type 0, BuildingBlock: NAHDIM_clean_sbu_0, # of connection points: 4
#     Node 2, Type 0, BuildingBlock: NAHDIM_clean_sbu_0, # of connection points: 4
#     Node 3, Type 0, BuildingBlock: NAHDIM_clean_sbu_0, # of connection points: 4
#     Node 4, Type 0, BuildingBlock: NAHDIM_clean_sbu_0, # of connection points: 4
#     Node 5, Type 0, BuildingBlock: NAHDIM_clean_sbu_0, # of connection points: 4
#     Node 6, Type 0, BuildingBlock: NAHDIM_clean_sbu_0, # of connection points: 4
#     Node 7, Type 0, BuildingBlock: NAHDIM_clean_sbu_0, # of connection points: 4
#     Node 8, Type 0, BuildingBlock: NAHDIM_clean_sbu_0, # of connection points: 4
#     Node 9, Type 0, BuildingBlock: NAHDIM_clean_sbu_0, # of connection points: 4
#     Node 10, Type 0, BuildingBlock: NAHDIM_clean_sbu_0, # of connection points: 4
#     Node 11, Type 0, BuildingBlock: NAHDIM_clean_sbu_0, # of connection points: 4
#     Node 12, Type 0, BuildingBlock: NAHDIM_clean_sbu_0, # of connection points: 4
#     Node 13, Type 0, BuildingBlock: NAHDIM_clean_sbu_0, # of connection points: 4
#     Node 14, Type 0, BuildingBlock: NAHDIM_clean_sbu_0, # of connection points: 4
#     Node 15, Type 0, BuildingBlock: NAHDIM_clean_sbu_0, # of connection points: 4
#     Edge 16, Type (0, 0), BuildingBlock: UVAHIK_clean_linker_0, # of connection points: 2
#     Edge 17, Type (0, 0), BuildingBlock: UVAHIK_clean_linker_0, # of connection points: 2
#     Edge 18, Type (0, 0), BuildingBlock: UVAHIK_clean_linker_0, # of connection points: 2
#     Edge 19, Type (0, 0), BuildingBlock: UVAHIK_clean_linker_0, # of connection points: 2
#     Edge 20, Type (0, 0), BuildingBlock: UVAHIK_clean_linker_0, # of connection points: 2
#     Edge 21, Type (0, 0), BuildingBlock: UVAHIK_clean_linker_0, # of connection points: 2
#     Edge 22, Type (0, 0), BuildingBlock: UVAHIK_clean_linker_0, # of connection points: 2
#     Edge 23, Type (0, 0), BuildingBlock: UVAHIK_clean_linker_0, # of connection points: 2
#     Edge 24, Type (0, 0), BuildingBlock: UVAHIK_clean_linker_0, # of connection points: 2
#     Edge 25, Type (0, 0), BuildingBlock: UVAHIK_clean_linker_0, # of connection points: 2
#     Edge 26, Type (0, 0), BuildingBlock: UVAHIK_clean_linker_0, # of connection points: 2
#     Edge 27, Type (0, 0), BuildingBlock: UVAHIK_clean_linker_0, # of connection points: 2
#     Edge 28, Type (0, 0), BuildingBlock: UVAHIK_clean_linker_0, # of connection points: 2
#     Edge 29, Type (0, 0), BuildingBlock: UVAHIK_clean_linker_0, # of connection points: 2
#     Edge 30, Type (0, 0), BuildingBlock: UVAHIK_clean_linker_0, # of connection points: 2
#     Edge 31, Type (0, 0), BuildingBlock: UVAHIK_clean_linker_0, # of connection points: 2
#     Edge 32, Type (0, 0), BuildingBlock: UVAHIK_clean_linker_0, # of connection points: 2
#     Edge 33, Type (0, 0), BuildingBlock: UVAHIK_clean_linker_0, # of connection points: 2
#     Edge 34, Type (0, 0), BuildingBlock: UVAHIK_clean_linker_0, # of connection points: 2
#     Edge 35, Type (0, 0), BuildingBlock: UVAHIK_clean_linker_0, # of connection points: 2
#     Edge 36, Type (0, 0), BuildingBlock: UVAHIK_clean_linker_0, # of connection points: 2
#     Edge 37, Type (0, 0), BuildingBlock: UVAHIK_clean_linker_0, # of connection points: 2
#     Edge 38, Type (0, 0), BuildingBlock: UVAHIK_clean_linker_0, # of connection points: 2
#     Edge 39, Type (0, 0), BuildingBlock: UVAHIK_clean_linker_0, # of connection points: 2
#     Edge 40, Type (0, 0), BuildingBlock: UVAHIK_clean_linker_0, # of connection points: 2
#     Edge 41, Type (0, 0), BuildingBlock: UVAHIK_clean_linker_0, # of connection points: 2
#     Edge 42, Type (0, 0), BuildingBlock: UVAHIK_clean_linker_0, # of connection points: 2
#     Edge 43, Type (0, 0), BuildingBlock: UVAHIK_clean_linker_0, # of connection points: 2
#     Edge 44, Type (0, 0), BuildingBlock: UVAHIK_clean_linker_0, # of connection points: 2
#     Edge 45, Type (0, 0), BuildingBlock: UVAHIK_clean_linker_0, # of connection points: 2
#     Edge 46, Type (0, 0), BuildingBlock: UVAHIK_clean_linker_0, # of connection points: 2
#     Edge 47, Type (0, 0), BuildingBlock: UVAHIK_clean_linker_0, # of connection points: 2
# Relax obj value: 0.100
# Max RMSD: 0.109
# Mean RMSD: 0.109
data_MOF--net-atn--node1-NAHDIM_clean_sbu_0--edge1-UVAHIK_clean_linker_0
_symmetry_space_group_name_H-M    P1
_symmetry_Int_Tables_number       1
_symmetry_cell_setting            triclinic
loop_
_symmetry_equiv_pos_as_xyz
'x, y, z'
_cell_length_a     81.343611
_cell_length_b     81.270427
_cell_length_c     32.169813
_cell_angle_alpha  90.024859
_cell_angle_beta   90.028901
_cell_angle_gamma 90.013064
loop_
_atom_site_label
_atom_site_type_symbol
_atom_site_fract_x
_atom_site_fract_y
_atom_site_fract_z
_atom_type_partial_charge
C0 C 0.19883 0.40806 0.00744 0.0
O1 O 0.18566 0.39946 0.01679 0.0
O2 O 0.20234 0.36757 0.04971 0.0
Zn3 Zn 0.21283 0.37603 0.99741 0.0
O4 O 0.20109 0.36725 0.94685 0.0
C5 C 0.24561 0.36811 0.02724 0.0
O6 O 0.2398 0.37267 0.06355 0.0
O7 O 0.21197 0.40058 -0.00235 0.0
C8 C 0.20688 0.35475 0.92812 0.0
O9 O 0.22019 0.34766 0.94271 0.0
C10 C 0.19752 0.35277 0.05338 0.0
O11 O 0.19931 0.34261 0.02195 0.0
O12 O 0.2364 0.36887 0.99543 0.0
C13 C 0.58478 0.20351 0.97789 0.0
O14 O 0.5932 0.19261 0.95654 0.0
O15 O 0.62682 0.21012 0.04745 0.0
Zn16 Zn 0.61678 0.21756 0.99371 0.0
O17 O 0.62615 0.20433 0.94679 0.0
C18 C 0.624 0.25165 0.01216 0.0
O19 O 0.6214 0.24708 0.05078 0.0
O20 O 0.59233 0.21511 0.99627 0.0
C21 C 0.64115 0.20654 0.93737 0.0
O22 O 0.64991 0.21703 0.95921 0.0
C23 C 0.62711 0.19491 0.05645 0.0
O24 O 0.62072 0.18428 0.03023 0.0
O25 O 0.62245 0.24117 0.98314 0.0
C26 C 0.79214 0.58416 0.00299 0.0
O27 O 0.80529 0.59351 0.00535 0.0
O28 O 0.78599 0.62447 0.05011 0.0
Zn29 Zn 0.77626 0.6153 -0.0025 0.0
O30 O 0.78757 0.62417 0.94689 0.0
C31 C 0.74306 0.62127 0.02532 0.0
O32 O 0.74874 0.6159 0.06107 0.0
O33 O 0.77813 0.59085 -0.00105 0.0
C34 C 0.78656 0.63946 0.93913 0.0
O35 O 0.77862 0.64904 0.96518 0.0
C36 C 0.79979 0.63175 0.05197 0.0
O37 O 0.80849 0.63368 0.01793 0.0
O38 O 0.75257 0.62177 0.99407 0.0
C39 C 0.40946 0.79558 0.01058 0.0
O40 O 0.40072 0.8091 0.01401 0.0
O41 O 0.36928 0.79171 0.06128 0.0
Zn42 Zn 0.37766 0.78069 0.00962 0.0
O43 O 0.36892 0.79165 0.95836 0.0
C44 C 0.36793 0.74806 0.03873 0.0
O45 O 0.3699 0.75419 0.0762 0.0
O46 O 0.40216 0.7818 0.00857 0.0
C47 C 0.36431 0.80655 0.9559 0.0
O48 O 0.36504 0.81599 0.98901 0.0
C49 C 0.35413 0.79154 0.0708 0.0
O50 O 0.34366 0.78402 0.04612 0.0
O51 O 0.37064 0.75708 0.00723 0.0
C52 C 0.20383 0.5847 0.01549 0.0
O53 O 0.19108 0.59381 0.02537 0.0
O54 O 0.21001 0.62401 0.94614 0.0
Zn55 Zn 0.21851 0.6162 0.00126 0.0
O56 O 0.20516 0.62627 0.04727 0.0
C57 C 0.25234 0.62295 0.97827 0.0
O58 O 0.24792 0.61696 0.942 0.0
O59 O 0.21709 0.59166 0.00422 0.0
C60 C 0.21189 0.62993 0.0817 0.0
O61 O 0.22761 0.6269 0.087 0.0
C62 C 0.19474 0.62615 0.93991 0.0
O63 O 0.18432 0.62308 0.97012 0.0
O64 O 0.24191 0.62348 0.0076 0.0
C65 C 0.40838 0.20128 0.00295 0.0
O66 O 0.40084 0.19024 0.02585 0.0
O67 O 0.36481 0.20352 0.94114 0.0
Zn68 Zn 0.37551 0.21339 0.99155 0.0
O69 O 0.36857 0.20087 0.0422 0.0
C70 C 0.36481 0.2461 0.96848 0.0
O71 O 0.36644 0.24048 0.93041 0.0
O72 O 0.40001 0.21246 0.98524 0.0
C73 C 0.3534 0.19963 0.05084 0.0
O74 O 0.34255 0.20639 0.02587 0.0
C75 C 0.36728 0.18848 0.93241 0.0
O76 O 0.37678 0.17966 0.95681 0.0
O77 O 0.36823 0.23677 -0.00107 0.0
C78 C 0.79233 0.40801 0.00385 0.0
O79 O 0.80551 0.39867 0.00496 0.0
O80 O 0.78781 0.3693 0.94343 0.0
Zn81 Zn 0.77629 0.37697 0.99496 0.0
O82 O 0.7865 0.36657 0.04549 0.0
C83 C 0.74415 0.37052 0.95885 0.0
O84 O 0.75125 0.3746 0.92364 0.0
O85 O 0.77832 0.40134 -0.00043 0.0
C86 C 0.77939 0.35482 0.06439 0.0
O87 O 0.76534 0.34921 0.0501 0.0
C88 C 0.78988 0.35406 0.93648 0.0
O89 O 0.78447 0.3433 0.96369 0.0
O90 O 0.75243 0.37095 0.99231 0.0
C91 C 0.58572 0.79286 0.99435 0.0
O92 O 0.59498 0.8061 0.995 0.0
O93 O 0.62561 0.78599 0.94042 0.0
Zn94 Zn 0.61697 0.77715 0.99423 0.0
O95 O 0.62603 0.79014 0.04197 0.0
C96 C 0.62572 0.74386 0.9714 0.0
O97 O 0.62321 0.74917 0.93336 0.0
O98 O 0.59251 0.77879 0.99395 0.0
C99 C 0.61974 0.78814 0.07774 0.0
O100 O 0.60732 0.77794 0.08201 0.0
C101 C 0.64081 0.78883 0.93501 0.0
O102 O 0.65118 0.78586 0.96543 0.0
O103 O 0.62365 0.75362 0.00176 0.0
C104 C 0.69962 0.9084 0.5025 0.0
O105 O 0.68644 0.89907 0.50123 0.0
O106 O 0.70829 0.86619 0.54479 0.0
Zn107 Zn 0.71588 0.87744 0.49256 0.0
O108 O 0.70244 0.86979 0.44403 0.0
C109 C 0.74957 0.87023 0.51181 0.0
O110 O 0.74456 0.87314 0.54993 0.0
O111 O 0.7137 0.90178 0.4992 0.0
C112 C 0.70371 0.85486 0.43279 0.0
O113 O 0.7137 0.84508 0.45331 0.0
C114 C 0.69366 0.86098 0.54907 0.0
O115 O 0.68312 0.86295 0.51854 0.0
O116 O 0.73944 0.87163 0.48197 0.0
C117 C 0.08185 0.69625 0.49436 0.0
O118 O 0.09062 0.68269 0.49278 0.0
O119 O 0.12142 0.69918 0.55194 0.0
Zn120 Zn 0.1136 0.7107 0.50057 0.0
O121 O 0.12283 0.69936 0.4504 0.0
C122 C 0.12474 0.74205 0.53366 0.0
O123 O 0.12301 0.73482 0.56991 0.0
O124 O 0.08913 0.71 0.49795 0.0
C125 C 0.12453 0.70726 0.41661 0.0
O126 O 0.11998 0.72275 0.415 0.0
C127 C 0.13667 0.69637 0.55661 0.0
O128 O 0.14696 0.70104 0.52744 0.0
O129 O 0.12127 0.73417 0.5007 0.0
C130 C 0.27229 0.08522 0.45746 0.0
O131 O 0.26914 0.09361 0.42347 0.0
O132 O 0.28436 0.12649 0.54381 0.0
Zn133 Zn 0.27326 0.11744 0.49287 0.0
O134 O 0.28345 0.12695 0.44164 0.0
C135 C 0.24045 0.12286 0.52474 0.0
O136 O 0.24658 0.11694 0.55944 0.0
O137 O 0.27462 0.09289 0.49135 0.0
C138 C 0.29865 0.12595 0.43302 0.0
O139 O 0.3086 0.11839 0.45892 0.0
C140 C 0.29488 0.11826 0.56431 0.0
O141 O 0.29878 0.10337 0.55182 0.0
O142 O 0.2496 0.12405 0.49291 0.0
C143 C 0.90546 0.29186 0.48074 0.0
O144 O 0.89627 0.30477 0.47281 0.0
O145 O 0.86565 0.28445 0.547 0.0
Zn146 Zn 0.87418 0.27621 0.49229 0.0
O147 O 0.86402 0.28893 0.44558 0.0
C148 C 0.86936 0.242 0.51384 0.0
O149 O 0.87583 0.24646 0.54953 0.0
O150 O 0.89863 0.27829 0.49003 0.0
C151 C 0.84892 0.2866 0.43744 0.0
O152 O 0.84044 0.27631 0.46051 0.0
C153 C 0.86281 0.29964 0.55286 0.0
O154 O 0.86564 0.31011 0.5226 0.0
O155 O 0.86779 0.2526 0.48512 0.0
C156 C 0.69829 0.08444 0.50382 0.0
O157 O 0.68509 0.09373 0.50566 0.0
O158 O 0.70339 0.1237 0.44368 0.0
Zn159 Zn 0.71442 0.11556 0.49557 0.0
O160 O 0.70369 0.12564 0.54585 0.0
C161 C 0.74673 0.12445 0.46312 0.0
O162 O 0.73965 0.12347 0.42649 0.0
O163 O 0.71226 0.09116 0.49915 0.0
C164 C 0.71046 0.13748 0.56519 0.0
O165 O 0.72446 0.14341 0.55147 0.0
C166 C 0.70257 0.13901 0.43598 0.0
O167 O 0.70905 0.14949 0.46243 0.0
O168 O 0.73841 0.12136 0.49558 0.0
C169 C 0.90564 0.70086 0.49481 0.0
O170 O 0.89619 0.68776 0.49308 0.0
O171 O 0.86567 0.70659 0.44645 0.0
Zn172 Zn 0.87464 0.71689 0.4986 0.0
O173 O 0.86583 0.70596 0.54982 0.0
C174 C 0.86902 0.74966 0.46794 0.0
O175 O 0.87452 0.74333 0.43302 0.0
O176 O 0.89906 0.71498 0.4977 0.0
C177 C 0.85063 0.70702 0.55848 0.0
O178 O 0.84082 0.71495 0.53295 0.0
C179 C 0.85785 0.69306 0.4452 0.0
O180 O 0.85512 0.68494 0.4798 0.0
O181 O 0.86823 0.74065 0.50012 0.0
C182 C 0.27313 0.90847 0.46886 0.0
O183 O 0.27255 0.8993 0.43524 0.0
O184 O 0.28394 0.86632 0.46065 0.0
Zn185 Zn 0.27472 0.87717 0.51162 0.0
O186 O 0.28848 0.87192 0.56157 0.0
C187 C 0.24136 0.86878 0.49228 0.0
O188 O 0.24528 0.87538 0.45636 0.0
O189 O 0.27402 0.90161 0.50427 0.0
C190 C 0.29385 0.85745 0.56764 0.0
O191 O 0.2906 0.84592 0.54018 0.0
C192 C 0.29888 0.86788 0.44987 0.0
O193 O 0.30881 0.8768 0.4729 0.0
O194 O 0.25201 0.86844 0.52117 0.0
C195 C 0.08158 0.29161 0.48775 0.0
O196 O 0.09087 0.30473 0.48362 0.0
O197 O 0.12299 0.28345 0.44521 0.0
Zn198 Zn 0.11265 0.27541 0.49824 0.0
O199 O 0.12133 0.28814 0.54696 0.0
C200 C 0.12009 0.24173 0.47683 0.0
O201 O 0.11779 0.247 0.43867 0.0
O202 O 0.08828 0.27776 0.49452 0.0
C203 C 0.13598 0.28517 0.55845 0.0
O204 O 0.14465 0.27426 0.53777 0.0
C205 C 0.12885 0.29787 0.44174 0.0
O206 O 0.12828 0.3079 0.47374 0.0
O207 O 0.11827 0.25166 0.50696 0.0
C208 C 0.21649 0.55689 0.00685 0.0
C209 C 0.20277 0.56657 0.01706 0.0
C210 C 0.2155 0.53976 0.00797 0.0
C211 C 0.186 0.50557 0.00335 0.0
H212 H 0.22246 0.48037 0.04786 0.0
C213 C 0.18426 0.43468 0.02117 0.0
C214 C 0.19858 0.42622 0.00933 0.0
C215 C 0.18423 0.45185 0.02372 0.0
C216 C 0.21224 0.48724 0.03502 0.0
H217 H 0.17725 0.56589 0.03663 0.0
H218 H 0.17556 0.53591 0.0388 0.0
H219 H 0.22341 0.51032 0.04986 0.0
H220 H 0.22403 0.42913 0.99045 0.0
H221 H 0.22391 0.45901 0.99452 0.0
H222 H 0.1749 0.48244 0.98819 0.0
C223 C 0.18703 0.54161 0.02956 0.0
C224 C 0.21278 0.50438 0.03617 0.0
C225 C 0.18803 0.55877 0.02851 0.0
C226 C 0.21281 0.43526 -0.00016 0.0
C227 C 0.21278 0.45239 0.00243 0.0
C228 C 0.18546 0.48839 0.00218 0.0
C229 C 0.20076 0.53194 0.01931 0.0
C230 C 0.19976 0.51373 0.01994 0.0
C231 C 0.19852 0.46086 0.01459 0.0
C232 C 0.19866 0.47906 0.01758 0.0
H233 H 0.22801 0.56252 -0.00222 0.0
H234 H 0.22622 0.53264 -0.00068 0.0
H235 H 0.17585 0.51246 0.99021 0.0
H236 H 0.1731 0.42806 0.02875 0.0
H237 H 0.17309 0.45805 0.03349 0.0
C238 C 0.43439 0.21187 0.97132 0.0
C239 C 0.42643 0.20083 -0.00179 0.0
C240 C 0.45147 0.21165 0.96739 0.0
C241 C 0.48812 0.18582 0.98667 0.0
H242 H 0.51102 0.22764 0.98251 0.0
C243 C 0.55801 0.19083 0.95653 0.0
C244 C 0.56667 0.20258 0.97995 0.0
C245 C 0.54085 0.19027 0.95784 0.0
C246 C 0.50482 0.21586 0.98394 0.0
H247 H 0.43011 0.18081 0.04184 0.0
H248 H 0.45995 0.18062 0.03553 0.0
H249 H 0.48117 0.22723 0.98682 0.0
H250 H 0.56415 0.22277 0.02369 0.0
H251 H 0.5343 0.22161 0.02647 0.0
H252 H 0.51185 0.17448 0.98503 0.0
C253 C 0.45297 0.18928 0.01698 0.0
C254 C 0.4877 0.21562 0.98586 0.0
C255 C 0.43588 0.18946 0.02078 0.0
C256 C 0.55785 0.21363 0.00505 0.0
C257 C 0.54072 0.21304 0.00645 0.0
C258 C 0.50527 0.18606 0.98485 0.0
C259 C 0.46096 0.20043 0.99039 0.0
C260 C 0.47915 0.2006 0.98738 0.0
C261 C 0.53203 0.20143 0.98267 0.0
C262 C 0.51381 0.20109 0.98368 0.0
H263 H 0.42744 0.22072 0.95327 0.0
H264 H 0.45724 0.22023 0.94617 0.0
H265 H 0.48188 0.17405 0.98735 0.0
H266 H 0.56446 0.18217 0.93681 0.0
H267 H 0.5345 0.18129 0.93883 0.0
C268 C 0.8091 0.43374 0.0111 0.0
C269 C 0.79368 0.42607 0.00754 0.0
C270 C 0.81024 0.45086 0.01424 0.0
C271 C 0.78579 0.48759 0.04112 0.0
H272 H 0.8172 0.51102 0.97244 0.0
C273 C 0.77928 0.55628 0.00541 0.0
C274 C 0.79351 0.56608 0.00594 0.0
C275 C 0.78044 0.53923 0.00873 0.0
C276 C 0.80853 0.50463 0.99226 0.0
H277 H 0.76735 0.43032 0.0046 0.0
H278 H 0.76935 0.46008 0.0097 0.0
H279 H 0.81725 0.48096 0.97308 0.0
H280 H 0.82013 0.56568 0.01027 0.0
H281 H 0.82213 0.53576 0.01612 0.0
H282 H 0.77686 0.5112 0.05974 0.0
C283 C 0.78056 0.45289 0.01062 0.0
C284 C 0.80857 0.48744 0.99265 0.0
C285 C 0.77943 0.43583 0.0074 0.0
C286 C 0.80894 0.55845 0.00971 0.0
C287 C 0.81011 0.54134 0.01291 0.0
C288 C 0.78574 0.50474 0.04072 0.0
C289 C 0.79596 0.46059 0.01406 0.0
C290 C 0.79698 0.47876 0.01649 0.0
C291 C 0.79585 0.53157 0.01261 0.0
C292 C 0.7969 0.51343 0.01569 0.0
H293 H 0.82031 0.42654 0.01138 0.0
H294 H 0.82226 0.45647 0.01714 0.0
H295 H 0.77693 0.48122 0.06044 0.0
H296 H 0.7672 0.56177 0.00244 0.0
H297 H 0.76926 0.532 0.00771 0.0
C298 C 0.55992 0.80967 0.9958 0.0
C299 C 0.56762 0.79421 0.99418 0.0
C300 C 0.54278 0.81084 0.99577 0.0
C301 C 0.50551 0.78756 0.96787 0.0
H302 H 0.48368 0.81658 0.04605 0.0
C303 C 0.43679 0.7818 0.00435 0.0
C304 C 0.42757 0.79634 0.00809 0.0
C305 C 0.45386 0.78244 0.00118 0.0
C306 C 0.48961 0.80859 0.02366 0.0
H307 H 0.56341 0.76785 0.99132 0.0
H308 H 0.53359 0.76991 0.99157 0.0
H309 H 0.51367 0.81616 0.04272 0.0
H310 H 0.42905 0.82297 0.01167 0.0
H311 H 0.45896 0.82406 0.00587 0.0
H312 H 0.4815 0.77986 0.94904 0.0
C313 C 0.54077 0.78113 0.99234 0.0
C314 C 0.50676 0.80835 0.02175 0.0
C315 C 0.55787 0.77996 0.99247 0.0
C316 C 0.43581 0.81154 0.00889 0.0
C317 C 0.45293 0.81217 0.00574 0.0
C318 C 0.48839 0.7878 0.96975 0.0
C319 C 0.53305 0.79657 0.99396 0.0
C320 C 0.51488 0.79766 0.99423 0.0
C321 C 0.46212 0.79762 0.00165 0.0
C322 C 0.48026 0.79815 -0.00194 0.0
H323 H 0.56711 0.82088 0.99709 0.0
H324 H 0.53714 0.82291 0.99672 0.0
H325 H 0.51142 0.77942 0.94579 0.0
H326 H 0.43083 0.76988 0.00382 0.0
H327 H 0.46062 0.77099 -0.00122 0.0
C328 C 0.68166 0.05863 0.5113 0.0
C329 C 0.69704 0.06637 0.50767 0.0
C330 C 0.68063 0.04151 0.51486 0.0
C331 C 0.70518 0.00506 0.54328 0.0
H332 H 0.67429 0.98115 0.47404 0.0
C333 C 0.71234 0.93627 0.50866 0.0
C334 C 0.69816 0.92641 0.50734 0.0
C335 C 0.71105 0.9533 0.51262 0.0
C336 C 0.6828 0.98766 0.49408 0.0
H337 H 0.7234 0.06226 0.50504 0.0
H338 H 0.72157 0.03251 0.51097 0.0
H339 H 0.67401 0.01119 0.474 0.0
H340 H 0.6715 0.92667 0.5096 0.0
H341 H 0.66928 0.95651 0.51671 0.0
H342 H 0.71415 0.98159 0.56288 0.0
C343 C 0.71032 0.03964 0.51157 0.0
C344 C 0.68264 0.00485 0.49404 0.0
C345 C 0.71135 0.05669 0.50786 0.0
C346 C 0.68266 0.93394 0.51039 0.0
C347 C 0.68137 0.95102 0.5143 0.0
C348 C 0.70532 0.98791 0.54337 0.0
C349 C 0.69497 0.03187 0.5151 0.0
C350 C 0.69405 0.01371 0.51803 0.0
C351 C 0.69557 0.96087 0.51537 0.0
C352 C 0.69435 0.97902 0.51816 0.0
H353 H 0.67042 0.06576 0.51132 0.0
H354 H 0.66864 0.03584 0.5178 0.0
H355 H 0.71391 0.01158 0.5627 0.0
H356 H 0.72448 0.93086 0.50632 0.0
H357 H 0.72221 0.96057 0.51267 0.0
C358 C 0.93366 0.7134 0.49326 0.0
C359 C 0.9237 0.69928 0.4927 0.0
C360 C 0.95071 0.71202 0.4908 0.0
C361 C 0.9848 0.68341 0.50912 0.0
H362 H 0.00906 0.71435 0.44086 0.0
C363 C 0.05547 0.68047 0.4888 0.0
C364 C 0.06374 0.69561 0.4918 0.0
C365 C 0.03832 0.67998 0.48647 0.0
C366 C 0.00245 0.70569 0.46025 0.0
H367 H 0.92382 0.67261 0.4892 0.0
H368 H 0.9537 0.67023 0.48477 0.0
H369 H 0.97911 0.71515 0.44124 0.0
H370 H 0.06052 0.72211 0.49471 0.0
H371 H 0.03068 0.72122 0.49098 0.0
H372 H 0.0082 0.6741 0.52853 0.0
C373 C 0.94826 0.68235 0.4874 0.0
C374 C 0.98532 0.70615 0.46048 0.0
C375 C 0.93117 0.68373 0.48977 0.0
C376 C 0.05454 0.71024 0.49232 0.0
C377 C 0.03744 0.70974 0.4899 0.0
C378 C 0.00197 0.68295 0.50889 0.0
C379 C 0.95819 0.6965 0.48775 0.0
C380 C 0.97633 0.69519 0.4854 0.0
C381 C 0.02915 0.69463 0.48692 0.0
C382 C 0.01096 0.69426 0.48494 0.0
H383 H 0.9283 0.72557 0.49561 0.0
H384 H 0.95805 0.72314 0.49183 0.0
H385 H 0.97819 0.6749 0.52891 0.0
H386 H 0.06223 0.66899 0.48826 0.0
H387 H 0.03225 0.66816 0.48388 0.0
C388 C 0.27042 0.05842 0.41922 0.0
C389 C 0.27263 0.06705 0.45669 0.0
C390 C 0.27033 0.04123 0.41886 0.0
C391 C 0.26309 0.00573 0.48705 0.0
H392 H 0.28715 0.98118 0.40348 0.0
C393 C 0.27418 0.93628 0.50181 0.0
C394 C 0.2728 0.92659 0.46579 0.0
C395 C 0.27385 0.9534 0.49922 0.0
C396 C 0.28019 0.98786 0.42668 0.0
H397 H 0.27671 0.06442 0.52305 0.0
H398 H 0.2766 0.03448 0.52232 0.0
H399 H 0.28724 0.01123 0.40153 0.0
H400 H 0.27001 0.92728 0.39874 0.0
H401 H 0.26924 0.95726 0.39428 0.0
H402 H 0.25601 0.98246 0.51225 0.0
C403 C 0.27475 0.041 0.49333 0.0
C404 C 0.28027 0.00505 0.42559 0.0
C405 C 0.27491 0.05815 0.49368 0.0
C406 C 0.27113 0.93441 0.42706 0.0
C407 C 0.27077 0.95157 0.42447 0.0
C408 C 0.26297 0.98858 0.48808 0.0
C409 C 0.27236 0.03236 0.45598 0.0
C410 C 0.27185 0.01415 0.45603 0.0
C411 C 0.27209 0.96124 0.46056 0.0
C412 C 0.27166 0.97945 0.45818 0.0
H413 H 0.26864 0.06493 0.39019 0.0
H414 H 0.26835 0.03489 0.38966 0.0
H415 H 0.25624 0.01242 0.51046 0.0
H416 H 0.27558 0.93065 0.53213 0.0
H417 H 0.27518 0.9605 0.52753 0.0
C418 C 0.05378 0.27862 0.48813 0.0
C419 C 0.06353 0.29279 0.48406 0.0
C420 C 0.03674 0.27958 0.4844 0.0
C421 C 0.00206 0.30823 0.49268 0.0
H422 H 0.97881 0.27358 0.4341 0.0
C423 C 0.93135 0.30805 0.47026 0.0
C424 C 0.92355 0.29295 0.47841 0.0
C425 C 0.94848 0.30896 0.46802 0.0
C426 C 0.98513 0.28329 0.45073 0.0
H427 H 0.06305 0.31912 0.47289 0.0
H428 H 0.03317 0.32077 0.46618 0.0
H429 H 0.00876 0.27358 0.43519 0.0
H430 H 0.92759 0.267 0.49063 0.0
H431 H 0.9574 0.26863 0.48691 0.0
H432 H 0.97836 0.31781 0.5086 0.0
C433 C 0.03876 0.30894 0.47257 0.0
C434 C 0.00226 0.28329 0.45138 0.0
C435 C 0.05586 0.30798 0.47626 0.0
C436 C 0.93321 0.27881 0.48421 0.0
C437 C 0.95029 0.27972 0.48179 0.0
C438 C 0.98488 0.30824 0.49197 0.0
C439 C 0.02904 0.29473 0.47648 0.0
C440 C 0.01091 0.29558 0.47299 0.0
C441 C 0.9581 0.29479 0.47363 0.0
C442 C 0.97627 0.2956 0.47161 0.0
H443 H 0.05928 0.26673 0.4943 0.0
H444 H 0.02956 0.26846 0.48831 0.0
H445 H 0.00839 0.31778 0.50987 0.0
H446 H 0.92423 0.31916 0.46563 0.0
H447 H 0.95419 0.32072 0.46143 0.0
C448 C 0.27145 0.35709 0.05937 0.0
C449 C 0.26207 0.36052 0.02373 0.0
C450 C 0.28608 0.34814 0.05618 0.0
C451 C 0.31696 0.33209 0.98113 0.0
H452 H 0.3188 0.29505 0.05684 0.0
C453 C 0.35058 0.27157 0.94352 0.0
C454 C 0.35756 0.2625 0.97621 0.0
C455 C 0.34207 0.28616 0.95163 0.0
C456 C 0.31874 0.3055 0.03596 0.0
H457 H 0.26117 0.35812 0.95654 0.0
H458 H 0.28649 0.34243 0.9511 0.0
H459 H 0.29835 0.31639 0.06745 0.0
H460 H 0.36206 0.26216 0.04271 0.0
H461 H 0.34745 0.28772 0.05673 0.0
H462 H 0.33705 0.32084 0.94884 0.0
C463 C 0.28267 0.34672 0.98148 0.0
C464 C 0.307 0.31776 0.04208 0.0
C465 C 0.26805 0.35561 0.98466 0.0
C466 C 0.35663 0.26876 0.01687 0.0
C467 C 0.34821 0.28338 0.02495 0.0
C468 C 0.32875 0.31982 0.97503 0.0
C469 C 0.29163 0.34252 0.01728 0.0
C470 C 0.3057 0.33098 0.01416 0.0
C471 C 0.34046 0.29202 0.99259 0.0
C472 C 0.32951 0.30618 0.00183 0.0
H473 H 0.26723 0.3608 0.08989 0.0
H474 H 0.29284 0.34526 0.08427 0.0
H475 H 0.3164 0.34227 0.95942 0.0
H476 H 0.35109 0.26709 0.91183 0.0
H477 H 0.3361 0.29241 0.92602 0.0
C478 C 0.719 0.36013 0.9222 0.0
C479 C 0.72726 0.36384 0.95941 0.0
C480 C 0.70391 0.35188 0.92307 0.0
C481 C 0.67 0.33825 0.99266 0.0
H482 H 0.67026 0.29933 0.92301 0.0
C483 C 0.63614 0.27852 0.03469 0.0
C484 C 0.63049 0.26821 0.00268 0.0
C485 C 0.64432 0.29317 0.02532 0.0
C486 C 0.6697 0.31031 0.94202 0.0
H487 H 0.72568 0.36279 0.02673 0.0
H488 H 0.69957 0.34833 0.02817 0.0
H489 H 0.69117 0.32025 0.91323 0.0
H490 H 0.62785 0.26577 0.93583 0.0
H491 H 0.64186 0.29145 0.91954 0.0
H492 H 0.64885 0.32793 0.02251 0.0
C493 C 0.70462 0.35184 -0.00167 0.0
C494 C 0.68173 0.32234 0.93638 0.0
C495 C 0.71969 0.36002 -0.00253 0.0
C496 C 0.63226 0.27334 0.96121 0.0
C497 C 0.64034 0.28803 0.95185 0.0
C498 C 0.65792 0.32622 -0.00175 0.0
C499 C 0.69678 0.34728 0.96115 0.0
C500 C 0.68231 0.33619 0.96245 0.0
C501 C 0.64692 0.29786 0.98374 0.0
C502 C 0.65794 0.31188 0.97379 0.0
H503 H 0.72446 0.36301 0.89238 0.0
H504 H 0.69806 0.34867 0.89392 0.0
H505 H 0.67001 0.34893 0.01283 0.0
H506 H 0.63493 0.27492 0.06696 0.0
H507 H 0.64937 0.30035 0.05066 0.0
C508 C 0.72027 0.63357 0.98355 0.0
C509 C 0.72638 0.62837 0.02225 0.0
C510 C 0.70549 0.6422 0.98102 0.0
C511 C 0.68138 0.6705 0.04336 0.0
H512 H 0.65101 0.66823 0.95056 0.0
C513 C 0.63323 0.72094 0.01957 0.0
C514 C 0.63232 0.72719 0.97892 0.0
C515 C 0.6411 0.70599 0.0274 0.0
C516 C 0.65939 0.66902 0.97665 0.0
H517 H 0.72125 0.62722 0.08836 0.0
H518 H 0.69538 0.64238 0.08388 0.0
H519 H 0.67145 0.64651 0.96007 0.0
H520 H 0.63818 0.7223 0.91434 0.0
H521 H 0.6523 0.69646 0.92808 0.0
H522 H 0.67002 0.69333 0.05893 0.0
C523 C 0.70215 0.63988 0.05559 0.0
C524 C 0.67105 0.65657 0.98214 0.0
C525 C 0.71693 0.63117 0.05811 0.0
C526 C 0.63871 0.71782 0.94601 0.0
C527 C 0.64671 0.70293 0.95389 0.0
C528 C 0.66981 0.68296 0.03779 0.0
C529 C 0.69651 0.64586 0.01713 0.0
C530 C 0.68243 0.65741 0.01496 0.0
C531 C 0.64836 0.69705 0.99482 0.0
C532 C 0.65895 0.68259 0.00377 0.0
H533 H 0.72721 0.63151 0.95528 0.0
H534 H 0.70157 0.64677 0.95098 0.0
H535 H 0.69014 0.67164 0.06858 0.0
H536 H 0.62822 0.72777 0.04554 0.0
H537 H 0.64186 0.70166 0.05918 0.0
C538 C 0.27915 0.6332 0.94991 0.0
C539 C 0.26864 0.63067 0.98397 0.0
C540 C 0.29356 0.64238 0.95456 0.0
C541 C 0.32181 0.66097 0.03244 0.0
H542 H 0.3252 0.69608 0.9514 0.0
C543 C 0.35371 0.72291 0.06578 0.0
C544 C 0.36121 0.73134 0.03275 0.0
C545 C 0.34564 0.70798 0.05875 0.0
C546 C 0.32473 0.68618 0.97387 0.0
H547 H 0.26555 0.63485 0.05016 0.0
H548 H 0.29054 0.65094 0.05812 0.0
H549 H 0.30549 0.67409 0.94056 0.0
H550 H 0.36719 0.73018 0.96709 0.0
H551 H 0.35345 0.704 0.95504 0.0
H552 H 0.34077 0.67341 0.06638 0.0
C553 C 0.28774 0.64579 0.02788 0.0
C554 C 0.3134 0.67354 0.96762 0.0
C555 C 0.27332 0.63667 0.02321 0.0
C556 C 0.36131 0.72409 0.99308 0.0
C557 C 0.35339 0.70912 0.98613 0.0
C558 C 0.33322 0.67361 0.03866 0.0
C559 C 0.29778 0.64913 0.99339 0.0
C560 C 0.31153 0.66101 0.99729 0.0
C561 C 0.34504 0.70112 0.0186 0.0
C562 C 0.33453 0.68656 0.00989 0.0
H563 H 0.27594 0.62863 0.91932 0.0
H564 H 0.30118 0.6446 0.92753 0.0
H565 H 0.32077 0.65136 0.0556 0.0
H566 H 0.35343 0.72819 0.0967 0.0
H567 H 0.33921 0.70223 0.08439 0.0
C568 C 0.85966 0.77537 0.43209 0.0
C569 C 0.86224 0.76652 0.46904 0.0
C570 C 0.85137 0.79043 0.43286 0.0
C571 C 0.83596 0.8235 0.50228 0.0
H572 H 0.7988 0.82399 0.42683 0.0
C573 C 0.77588 0.85786 0.53712 0.0
C574 C 0.76619 0.86359 0.50402 0.0
C575 C 0.7906 0.84957 0.52937 0.0
C576 C 0.8093 0.82436 0.4475 0.0
H577 H 0.85913 0.76702 0.53603 0.0
H578 H 0.84463 0.79318 0.5373 0.0
H579 H 0.81982 0.80306 0.41912 0.0
H580 H 0.76492 0.86627 0.437 0.0
H581 H 0.79079 0.85214 0.42353 0.0
H582 H 0.82512 0.84455 0.53147 0.0
C583 C 0.84904 0.78855 0.50776 0.0
C584 C 0.82137 0.81231 0.44306 0.0
C585 C 0.85723 0.77347 0.50698 0.0
C586 C 0.77202 0.86179 0.46316 0.0
C587 C 0.78681 0.85364 0.45543 0.0
C588 C 0.82391 0.83565 0.50658 0.0
C589 C 0.84563 0.79697 0.47061 0.0
C590 C 0.83456 0.81145 0.47115 0.0
C591 C 0.79602 0.84697 0.48836 0.0
C592 C 0.81018 0.83591 0.48 0.0
H593 H 0.86346 0.77038 0.40238 0.0
H594 H 0.84903 0.79674 0.4038 0.0
H595 H 0.84612 0.82325 0.52405 0.0
H596 H 0.77174 0.85907 0.56897 0.0
H597 H 0.79726 0.84446 0.5555 0.0
C598 C 0.21453 0.85859 0.46409 0.0
C599 C 0.22543 0.86031 0.49773 0.0
C600 C 0.20039 0.84896 0.46795 0.0
C601 C 0.17323 0.82783 0.54362 0.0
H602 H 0.16882 0.79549 0.45571 0.0
C603 C 0.13995 0.76579 0.56508 0.0
C604 C 0.13206 0.75864 0.53066 0.0
C605 C 0.14846 0.78063 0.56085 0.0
C606 C 0.16958 0.80462 0.48015 0.0
H607 H 0.22954 0.85407 0.56251 0.0
H608 H 0.20495 0.83719 0.56908 0.0
H609 H 0.18872 0.81755 0.44859 0.0
H610 H 0.12596 0.76198 0.46554 0.0
H611 H 0.14048 0.78802 0.45842 0.0
H612 H 0.1543 0.8146 0.57561 0.0
C613 C 0.20728 0.84334 0.5398 0.0
C614 C 0.18103 0.81728 0.47605 0.0
C615 C 0.22144 0.85292 0.53592 0.0
C616 C 0.13211 0.76706 0.49253 0.0
C617 C 0.14049 0.78196 0.4884 0.0
C618 C 0.16169 0.81518 0.54766 0.0
C619 C 0.19683 0.84092 0.50556 0.0
C620 C 0.18321 0.82883 0.50806 0.0
C621 C 0.14915 0.78869 0.52219 0.0
C622 C 0.15997 0.80323 0.5163 0.0
H623 H 0.21719 0.86422 0.43434 0.0
H624 H 0.19244 0.84748 0.44119 0.0
H625 H 0.17453 0.83668 0.56859 0.0
H626 H 0.14013 0.75959 0.59488 0.0
H627 H 0.15513 0.78536 0.58743 0.0
C628 C 0.2145 0.13189 0.56004 0.0
C629 C 0.22354 0.12948 0.52334 0.0
C630 C 0.19934 0.13999 0.55886 0.0
C631 C 0.16655 0.1552 0.48809 0.0
H632 H 0.16513 0.1922 0.56405 0.0
C633 C 0.13271 0.21546 0.4518 0.0
C634 C 0.12655 0.22502 0.48464 0.0
C635 C 0.14085 0.20067 0.45987 0.0
C636 C 0.16502 0.18173 0.54321 0.0
H637 H 0.22331 0.13267 0.45635 0.0
H638 H 0.19702 0.14684 0.45439 0.0
H639 H 0.18609 0.17126 0.57273 0.0
H640 H 0.12292 0.22597 0.55142 0.0
H641 H 0.13682 0.20002 0.56541 0.0
H642 H 0.14579 0.16604 0.45767 0.0
C643 C 0.20155 0.14245 0.48405 0.0
C644 C 0.17709 0.16971 0.54822 0.0
C645 C 0.21671 0.13446 0.48524 0.0
C646 C 0.12775 0.21899 0.52547 0.0
C647 C 0.13576 0.20414 0.53351 0.0
C648 C 0.15441 0.16721 0.48317 0.0
C649 C 0.19291 0.1457 0.52094 0.0
C650 C 0.1783 0.15659 0.51995 0.0
C651 C 0.14288 0.19507 0.50094 0.0
C652 C 0.15384 0.18089 0.50991 0.0
H653 H 0.21939 0.1281 0.58985 0.0
H654 H 0.19286 0.1422 0.58774 0.0
H655 H 0.16707 0.14509 0.46617 0.0
H656 H 0.13195 0.21976 0.41999 0.0
H657 H 0.14632 0.19411 0.43404 0.0
C658 C 0.86105 0.2145 0.54212 0.0
C659 C 0.8623 0.22538 0.50834 0.0
C660 C 0.85246 0.19968 0.53799 0.0
C661 C 0.83329 0.17125 0.46135 0.0
H662 H 0.80014 0.166 0.54682 0.0
C663 C 0.7714 0.13874 0.43381 0.0
C664 C 0.76365 0.13085 0.46731 0.0
C665 C 0.78644 0.14675 0.43952 0.0
C666 C 0.80953 0.16697 0.52308 0.0
H667 H 0.85647 0.22878 0.44305 0.0
H668 H 0.84141 0.2031 0.43603 0.0
H669 H 0.82171 0.18629 0.55591 0.0
H670 H 0.76616 0.12403 0.53221 0.0
H671 H 0.79253 0.13767 0.54191 0.0
H672 H 0.82071 0.15225 0.4279 0.0
C673 C 0.84712 0.20591 0.46562 0.0
C674 C 0.82192 0.17864 0.52834 0.0
C675 C 0.85564 0.22072 0.46977 0.0
C676 C 0.77172 0.13022 0.50592 0.0
C677 C 0.7868 0.13808 0.51152 0.0
C678 C 0.8209 0.15951 0.45613 0.0
C679 C 0.84504 0.19545 0.49997 0.0
C680 C 0.83368 0.18122 0.49706 0.0
C681 C 0.79409 0.14689 0.47877 0.0
C682 C 0.80863 0.15754 0.48648 0.0
H683 H 0.86615 0.21768 0.57217 0.0
H684 H 0.85122 0.19176 0.56487 0.0
H685 H 0.84233 0.17284 0.43695 0.0
H686 H 0.7655 0.13943 0.40368 0.0
H687 H 0.79162 0.15354 0.4137 0.0
C688 C 0.13644 0.29272 0.36743 0.0
C689 C 0.13601 0.30337 0.40185 0.0
C690 C 0.14302 0.29797 0.3296 0.0
C691 C 0.15264 0.33545 0.26998 0.0
H692 H 0.18081 0.30631 0.20643 0.0
C693 C 0.18924 0.35767 0.12727 0.0
C694 C 0.19016 0.34706 0.09284 0.0
C695 C 0.18246 0.35226 0.16471 0.0
C696 C 0.1728 0.31452 0.22355 0.0
H697 H 0.14226 0.32786 0.42362 0.0
H698 H 0.15386 0.33697 0.35767 0.0
H699 H 0.16941 0.297 0.27245 0.0
H700 H 0.18455 0.32249 0.0706 0.0
H701 H 0.17251 0.31312 0.13584 0.0
H702 H 0.15599 0.35296 0.22109 0.0
C703 C 0.14892 0.32462 0.35982 0.0
C704 C 0.16629 0.3092 0.26139 0.0
C705 C 0.14235 0.31936 0.39767 0.0
C706 C 0.18409 0.33094 0.0966 0.0
C707 C 0.17727 0.32554 0.13406 0.0
C708 C 0.15913 0.34077 0.23212 0.0
C709 C 0.1493 0.31399 0.32535 0.0
C710 C 0.15616 0.31961 0.28506 0.0
C711 C 0.17641 0.33614 0.16856 0.0
C712 C 0.16932 0.33038 0.20851 0.0
H713 H 0.13161 0.28032 0.36958 0.0
H714 H 0.14296 0.28955 0.30348 0.0
H715 H 0.14466 0.34367 0.28717 0.0
H716 H 0.19388 0.37015 0.12547 0.0
H717 H 0.1822 0.36066 0.19086 0.0
C718 C 0.68766 0.13366 0.3692 0.0
C719 C 0.69457 0.1449 0.39747 0.0
C720 C 0.68018 0.1392 0.33272 0.0
C721 C 0.67884 0.17459 0.26121 0.0
H722 H 0.63806 0.15468 0.22401 0.0
C723 C 0.64134 0.20067 0.12395 0.0
C724 C 0.63461 0.18927 0.09582 0.0
C725 C 0.64851 0.19535 0.16104 0.0
C726 C 0.64954 0.16024 0.23375 0.0
H727 H 0.69898 0.17079 0.40965 0.0
H728 H 0.6858 0.18045 0.34609 0.0
H729 H 0.65083 0.14527 0.28834 0.0
H730 H 0.63013 0.16333 0.08459 0.0
H731 H 0.64279 0.15404 0.14914 0.0
H732 H 0.67758 0.18953 0.20656 0.0
C733 C 0.68634 0.16734 0.35195 0.0
C734 C 0.65685 0.15485 0.27061 0.0
C735 C 0.69382 0.16181 0.38848 0.0
C736 C 0.63517 0.17243 0.10563 0.0
C737 C 0.64234 0.16711 0.14274 0.0
C738 C 0.67153 0.17997 0.22434 0.0
C739 C 0.67945 0.1561 0.32366 0.0
C740 C 0.67159 0.16195 0.28472 0.0
C741 C 0.64911 0.17851 0.17084 0.0
C742 C 0.65681 0.17285 0.21016 0.0
H743 H 0.68808 0.12055 0.37513 0.0
H744 H 0.67518 0.13021 0.31131 0.0
H745 H 0.69033 0.18013 0.27091 0.0
H746 H 0.64107 0.21374 0.1174 0.0
H747 H 0.65342 0.20445 0.18228 0.0
C748 C 0.85772 0.69336 0.36752 0.0
C749 C 0.85201 0.68655 0.40495 0.0
C750 C 0.85225 0.68725 0.32939 0.0
C751 C 0.83192 0.65104 0.28129 0.0
H752 H 0.82446 0.68143 0.19026 0.0
C753 C 0.79844 0.633 0.12957 0.0
C754 C 0.80599 0.63789 0.09226 0.0
C755 C 0.80427 0.63875 0.16771 0.0
C756 C 0.82662 0.6728 0.21533 0.0
H757 H 0.83599 0.66808 0.43183 0.0
H758 H 0.82605 0.65771 0.36531 0.0
H759 H 0.83388 0.69189 0.25718 0.0
H760 H 0.8255 0.65272 0.06566 0.0
H761 H 0.83556 0.66295 0.13247 0.0
H762 H 0.82425 0.63202 0.23941 0.0
C763 C 0.83507 0.66751 0.36532 0.0
C764 C 0.83207 0.67876 0.25365 0.0
C765 C 0.84068 0.67352 0.40349 0.0
C766 C 0.81945 0.64871 0.09388 0.0
C767 C 0.82515 0.65463 0.13204 0.0
C768 C 0.8263 0.64511 0.24308 0.0
C769 C 0.84079 0.6743 0.32778 0.0
C770 C 0.83484 0.66795 0.2871 0.0
C771 C 0.81764 0.64967 0.1693 0.0
C772 C 0.82364 0.65593 0.20974 0.0
H773 H 0.86655 0.70333 0.3676 0.0
H774 H 0.85717 0.69257 0.30117 0.0
H775 H 0.8342 0.64232 0.30607 0.0
H776 H 0.78806 0.62465 0.12936 0.0
H777 H 0.79818 0.63485 0.19598 0.0
C778 C 0.32139 0.86121 0.39937 0.0
C779 C 0.30485 0.85987 0.41143 0.0
C780 C 0.32691 0.85373 0.3628 0.0
C781 C 0.3162 0.82115 0.28718 0.0
H782 H 0.3462 0.84469 0.21482 0.0
C783 C 0.33191 0.79857 0.12172 0.0
C784 C 0.34847 0.7995 0.10958 0.0
C785 C 0.32666 0.80593 0.15867 0.0
C786 C 0.33795 0.83789 0.23491 0.0
H787 H 0.28111 0.84966 0.3945 0.0
H788 H 0.29069 0.83681 0.33064 0.0
H789 H 0.33705 0.85744 0.27943 0.0
H790 H 0.37251 0.80895 0.12665 0.0
H791 H 0.36335 0.8217 0.19114 0.0
H792 H 0.31704 0.80164 0.24254 0.0
C793 C 0.29946 0.84343 0.34969 0.0
C794 C 0.33273 0.84519 0.27195 0.0
C795 C 0.29395 0.85088 0.38621 0.0
C796 C 0.35965 0.80802 0.13506 0.0
C797 C 0.35439 0.81541 0.17192 0.0
C798 C 0.3214 0.81387 0.25011 0.0
C799 C 0.316 0.84477 0.33753 0.0
C800 C 0.32177 0.83692 0.29848 0.0
C801 C 0.33785 0.81442 0.18418 0.0
C802 C 0.33231 0.82217 0.22354 0.0
H803 H 0.3301 0.86802 0.41817 0.0
H804 H 0.33977 0.85483 0.35455 0.0
H805 H 0.30796 0.81434 0.30724 0.0
H806 H 0.32298 0.79212 0.10276 0.0
H807 H 0.31379 0.80512 0.16706 0.0
C808 C 0.15961 0.68522 0.60019 0.0
C809 C 0.14275 0.68828 0.59477 0.0
C810 C 0.16537 0.67784 0.6366 0.0
C811 C 0.15199 0.65276 0.72619 0.0
H812 H 0.19131 0.6702 0.77827 0.0
C813 C 0.17198 0.63499 0.89247 0.0
C814 C 0.18883 0.63239 0.8994 0.0
C815 C 0.16645 0.64123 0.85449 0.0
C816 C 0.18043 0.66505 0.76384 0.0
H817 H 0.11868 0.6859 0.62324 0.0
H818 H 0.12875 0.67319 0.68688 0.0
H819 H 0.18153 0.68212 0.71332 0.0
H820 H 0.2131 0.63409 0.87169 0.0
H821 H 0.20343 0.64485 0.80537 0.0
H822 H 0.15085 0.63576 0.77691 0.0
C823 C 0.1375 0.6763 0.66278 0.0
C824 C 0.17483 0.67188 0.72662 0.0
C825 C 0.13175 0.68369 0.62639 0.0
C826 C 0.20003 0.63601 0.86742 0.0
C827 C 0.19451 0.64226 0.82949 0.0
C828 C 0.15759 0.64594 0.76344 0.0
C829 C 0.15438 0.67335 0.66836 0.0
C830 C 0.16052 0.66584 0.70744 0.0
C831 C 0.17767 0.64501 0.82266 0.0
C832 C 0.17185 0.65204 0.78273 0.0
H833 H 0.1684 0.68856 0.57636 0.0
H834 H 0.17842 0.67554 0.63975 0.0
H835 H 0.14106 0.64767 0.71185 0.0
H836 H 0.16303 0.63235 0.91648 0.0
H837 H 0.15341 0.64338 0.85034 0.0
C838 C 0.31347 0.11601 0.62619 0.0
C839 C 0.30247 0.12533 0.60209 0.0
C840 C 0.32047 0.12266 0.66214 0.0
C841 C 0.31449 0.15556 0.74005 0.0
H842 H 0.36045 0.14761 0.76504 0.0
C843 C 0.34908 0.19031 0.86978 0.0
C844 C 0.35971 0.18105 0.89506 0.0
C845 C 0.34201 0.18332 0.83435 0.0
C846 C 0.34756 0.14979 0.75871 0.0
H847 H 0.29032 0.14901 0.59666 0.0
H848 H 0.30271 0.16065 0.65897 0.0
H849 H 0.34835 0.13579 0.70239 0.0
H850 H 0.37122 0.15718 0.90303 0.0
H851 H 0.35883 0.14497 0.84124 0.0
H852 H 0.31374 0.16964 0.79624 0.0
C853 C 0.30572 0.14811 0.65049 0.0
C854 C 0.34062 0.14301 0.72284 0.0
C855 C 0.29869 0.14146 0.61461 0.0
C856 C 0.36311 0.16465 0.88418 0.0
C857 C 0.35608 0.15768 0.84866 0.0
C858 C 0.32144 0.16236 0.77585 0.0
C859 C 0.31665 0.13878 0.67474 0.0
C860 C 0.32401 0.14585 0.71306 0.0
C861 C 0.34546 0.16694 0.82336 0.0
C862 C 0.33805 0.15958 0.78553 0.0
H863 H 0.31659 0.10352 0.61748 0.0
H864 H 0.3287 0.11507 0.6804 0.0
H865 H 0.30159 0.15774 0.7338 0.0
H866 H 0.34622 0.20299 0.87726 0.0
H867 H 0.33402 0.19082 0.81521 0.0
C868 C 0.80301 0.36007 0.86781 0.0
C869 C 0.79806 0.34855 0.89788 0.0
C870 C 0.81049 0.35489 0.83101 0.0
C871 C 0.83298 0.32021 0.78412 0.0
H872 H 0.8191 0.33987 0.68003 0.0
C873 C 0.85223 0.29409 0.62457 0.0
C874 C 0.85611 0.3054 0.59302 0.0
C875 C 0.84559 0.29949 0.6622 0.0
C876 C 0.82328 0.33441 0.70887 0.0
H877 H 0.7972 0.32255 0.91305 0.0
H878 H 0.81021 0.31351 0.84866 0.0
H879 H 0.80672 0.34903 0.74499 0.0
H880 H 0.85629 0.33127 0.57646 0.0
H881 H 0.8449 0.34071 0.64235 0.0
H882 H 0.84955 0.3056 0.748 0.0
C883 C 0.80841 0.32656 0.85375 0.0
C884 C 0.81617 0.33964 0.74608 0.0
C885 C 0.80088 0.33174 0.89052 0.0
C886 C 0.85336 0.32224 0.60006 0.0
C887 C 0.84674 0.32764 0.63773 0.0
C888 C 0.84013 0.315 0.7469 0.0
C889 C 0.81323 0.33808 0.82353 0.0
C890 C 0.82092 0.33258 0.78409 0.0
C891 C 0.84272 0.31632 0.66916 0.0
C892 C 0.83533 0.32202 0.70884 0.0
H893 H 0.80107 0.37312 0.87256 0.0
H894 H 0.81426 0.36407 0.80854 0.0
H895 H 0.83705 0.3147 0.813 0.0
H896 H 0.85416 0.28102 0.6201 0.0
H897 H 0.84243 0.29043 0.68556 0.0
C898 C 0.63553 0.79814 0.86214 0.0
C899 C 0.64664 0.79562 0.89501 0.0
C900 C 0.64088 0.80484 0.82458 0.0
C901 C 0.67801 0.81208 0.76122 0.0
H902 H 0.65052 0.84468 0.70716 0.0
C903 C 0.69987 0.85057 0.62065 0.0
C904 C 0.68852 0.853 0.58825 0.0
C905 C 0.69495 0.84325 0.65789 0.0
C906 C 0.65825 0.83547 0.72164 0.0
H907 H 0.6721 0.79805 0.9141 0.0
H908 H 0.68141 0.80996 0.84858 0.0
H909 H 0.64167 0.83255 0.77266 0.0
H910 H 0.66315 0.84949 0.56939 0.0
H911 H 0.6546 0.83664 0.63433 0.0
H912 H 0.69462 0.8151 0.71016 0.0
C913 C 0.66859 0.80655 0.85174 0.0
C914 C 0.65318 0.82851 0.75916 0.0
C915 C 0.66325 0.79981 0.88936 0.0
C916 C 0.67218 0.84785 0.59378 0.0
C917 C 0.66725 0.84057 0.63107 0.0
C918 C 0.68309 0.81908 0.72368 0.0
C919 C 0.65744 0.80922 0.81902 0.0
C920 C 0.66297 0.8167 0.77932 0.0
C921 C 0.67857 0.83825 0.66357 0.0
C922 C 0.67324 0.83081 0.70345 0.0
H923 H 0.62267 0.79495 0.86537 0.0
H924 H 0.63203 0.80648 0.79976 0.0
H925 H 0.68572 0.80286 0.77569 0.0
H926 H 0.71256 0.85441 0.61738 0.0
H927 H 0.70391 0.84178 0.68253 0.0
C928 C 0.85495 0.69342 0.62736 0.0
C929 C 0.84415 0.6996 0.59705 0.0
C930 C 0.84886 0.68677 0.66429 0.0
C931 C 0.83285 0.66534 0.72961 0.0
H932 H 0.79509 0.68566 0.78218 0.0
C933 C 0.79987 0.63578 0.86963 0.0
C934 C 0.79385 0.64629 0.90079 0.0
C935 C 0.80621 0.64223 0.83274 0.0
C936 C 0.80575 0.67993 0.76817 0.0
H937 H 0.8185 0.70338 0.58132 0.0
H938 H 0.80786 0.6914 0.64529 0.0
H939 H 0.80585 0.69711 0.71789 0.0
H940 H 0.79009 0.67181 0.91813 0.0
H941 H 0.80153 0.68307 0.85424 0.0
H942 H 0.83309 0.6485 0.78065 0.0
C943 C 0.82105 0.69204 0.641 0.0
C944 C 0.81177 0.68635 0.73092 0.0
C945 C 0.82714 0.69881 0.6042 0.0
C946 C 0.79453 0.66338 0.89458 0.0
C947 C 0.80099 0.66984 0.85782 0.0
C948 C 0.82689 0.65898 0.76701 0.0
C949 C 0.83184 0.68602 0.6716 0.0
C950 C 0.82538 0.67912 0.71115 0.0
C951 C 0.80679 0.65934 0.82631 0.0
C952 C 0.81325 0.66619 0.78673 0.0
H953 H 0.86813 0.69392 0.62288 0.0
H954 H 0.85754 0.68248 0.68741 0.0
H955 H 0.84324 0.65934 0.715 0.0
H956 H 0.79943 0.62255 0.87339 0.0
H957 H 0.81034 0.63377 0.80892 0.0
C958 C 0.30505 0.86548 0.63727 0.0
C959 C 0.30291 0.85349 0.60621 0.0
C960 C 0.3129 0.86154 0.67458 0.0
C961 C 0.34064 0.83121 0.72309 0.0
H962 H 0.32007 0.84528 0.8259 0.0
C963 C 0.3573 0.8027 0.88089 0.0
C964 C 0.35822 0.81306 0.91583 0.0
C965 C 0.35151 0.80866 0.84298 0.0
C966 C 0.32612 0.84147 0.79749 0.0
H967 H 0.30765 0.82805 0.58961 0.0
H968 H 0.32131 0.82118 0.6548 0.0
H969 H 0.30842 0.85386 0.7595 0.0
H970 H 0.35386 0.83785 0.93826 0.0
H971 H 0.34383 0.84832 0.87173 0.0
H972 H 0.35825 0.81871 0.76101 0.0
C973 C 0.31701 0.83365 0.65016 0.0
C974 C 0.31943 0.84638 0.75945 0.0
C975 C 0.3091 0.83757 0.6129 0.0
C976 C 0.35326 0.82955 0.91195 0.0
C977 C 0.34745 0.83553 0.87391 0.0
C978 C 0.34734 0.82635 0.7611 0.0
C979 C 0.31885 0.84555 0.68154 0.0
C980 C 0.32651 0.84113 0.72186 0.0
C981 C 0.34651 0.82513 0.83901 0.0
C982 C 0.34003 0.83124 0.79873 0.0
H983 H 0.30048 0.87788 0.63304 0.0
H984 H 0.31432 0.87102 0.698 0.0
H985 H 0.34652 0.82721 0.69463 0.0
H986 H 0.36097 0.78992 0.88279 0.0
H987 H 0.35068 0.80026 0.81693 0.0
C988 C 0.13427 0.30598 0.61583 0.0
C989 C 0.14306 0.29356 0.59508 0.0
C990 C 0.14091 0.31364 0.65093 0.0
C991 C 0.18031 0.32058 0.70595 0.0
H992 H 0.15232 0.32905 0.80117 0.0
C993 C 0.20644 0.33557 0.86745 0.0
C994 C 0.19902 0.3484 0.88992 0.0
C995 C 0.19932 0.32972 0.83088 0.0
C996 C 0.16023 0.32694 0.77463 0.0
H997 H 0.1657 0.27944 0.59485 0.0
H998 H 0.17713 0.29259 0.65633 0.0
H999 H 0.14046 0.31735 0.73799 0.0
H1000 H 0.17818 0.36505 0.89185 0.0
H1001 H 0.16568 0.35474 0.82779 0.0
H1002 H 0.20012 0.32988 0.74287 0.0
C1003 C 0.16524 0.29664 0.64513 0.0
C1004 C 0.15345 0.32026 0.73843 0.0
C1005 C 0.15864 0.28903 0.61 0.0
C1006 C 0.1842 0.35516 0.87522 0.0
C1007 C 0.17701 0.34922 0.83867 0.0
C1008 C 0.18708 0.32717 0.74217 0.0
C1009 C 0.15646 0.30902 0.66605 0.0
C1010 C 0.16345 0.31686 0.70382 0.0
C1011 C 0.18457 0.33651 0.81602 0.0
C1012 C 0.17715 0.33026 0.77701 0.0
H1013 H 0.12225 0.30979 0.60498 0.0
H1014 H 0.13391 0.32328 0.66603 0.0
H1015 H 0.18829 0.31842 0.67958 0.0
H1016 H 0.21784 0.33007 0.87795 0.0
H1017 H 0.20529 0.31976 0.8144 0.0
C1018 C 0.66443 0.2019 0.888 0.0
C1019 C 0.6484 0.19808 0.90109 0.0
C1020 C 0.67104 0.19449 0.85261 0.0
C1021 C 0.65874 0.17351 0.75576 0.0
H1022 H 0.70474 0.1611 0.75199 0.0
C1023 C 0.68759 0.13846 0.61731 0.0
C1024 C 0.70297 0.14415 0.60349 0.0
C1025 C 0.68073 0.14454 0.65404 0.0
C1026 C 0.6919 0.16463 0.7525 0.0
H1027 H 0.62688 0.18317 0.88791 0.0
H1028 H 0.63855 0.17003 0.82651 0.0
H1029 H 0.69322 0.17218 0.8161 0.0
H1030 H 0.72314 0.16077 0.61725 0.0
H1031 H 0.71114 0.17137 0.68124 0.0
H1032 H 0.65746 0.16591 0.6921 0.0
C1033 C 0.64588 0.17899 0.84316 0.0
C1034 C 0.6853 0.17098 0.78919 0.0
C1035 C 0.63924 0.18645 0.87849 0.0
C1036 C 0.71129 0.1561 0.62705 0.0
C1037 C 0.70447 0.16211 0.66386 0.0
C1038 C 0.66533 0.16709 0.71911 0.0
C1039 C 0.66181 0.18303 0.82962 0.0
C1040 C 0.66867 0.17562 0.79116 0.0
C1041 C 0.68915 0.15636 0.6778 0.0
C1042 C 0.68201 0.1627 0.71702 0.0
H1043 H 0.67179 0.21085 0.90464 0.0
H1044 H 0.68326 0.19805 0.84273 0.0
H1045 H 0.64594 0.1772 0.75602 0.0
H1046 H 0.68087 0.12924 0.59987 0.0
H1047 H 0.66896 0.13979 0.66421 0.0
C1048 C 0.85013 0.30612 0.37734 0.0
C1049 C 0.84126 0.29464 0.4011 0.0
C1050 C 0.84317 0.3131 0.3418 0.0
C1051 C 0.81182 0.30517 0.2624 0.0
H1052 H 0.81649 0.35165 0.23797 0.0
C1053 C 0.77797 0.33598 0.1257 0.0
C1054 C 0.7866 0.34786 0.10269 0.0
C1055 C 0.78458 0.32964 0.1624 0.0
C1056 C 0.81525 0.33861 0.2441 0.0
H1057 H 0.81801 0.28173 0.40669 0.0
H1058 H 0.80586 0.29396 0.34465 0.0
H1059 H 0.82798 0.34056 0.30218 0.0
H1060 H 0.80903 0.36227 0.09986 0.0
H1061 H 0.8207 0.35098 0.16356 0.0
H1062 H 0.79927 0.30313 0.20422 0.0
C1063 C 0.81826 0.29742 0.35334 0.0
C1064 C 0.8218 0.33228 0.28091 0.0
C1065 C 0.82518 0.2905 0.389 0.0
C1066 C 0.80204 0.35317 0.11698 0.0
C1067 C 0.80868 0.34679 0.15363 0.0
C1068 C 0.80534 0.31148 0.22553 0.0
C1069 C 0.82723 0.30868 0.3292 0.0
C1070 C 0.82013 0.31549 0.29044 0.0
C1071 C 0.8 0.33498 0.17683 0.0
C1072 C 0.80697 0.32828 0.21596 0.0
H1073 H 0.86255 0.30957 0.38587 0.0
H1074 H 0.85042 0.32164 0.32361 0.0
H1075 H 0.81058 0.29213 0.26861 0.0
H1076 H 0.76601 0.33168 0.11565 0.0
H1077 H 0.77747 0.32073 0.17983 0.0
C1078 C 0.64091 0.80642 0.11034 0.0
C1079 C 0.62686 0.79649 0.11439 0.0
C1080 C 0.64815 0.81358 0.14531 0.0
C1081 C 0.6514 0.80826 0.25855 0.0
H1082 H 0.66996 0.85219 0.25494 0.0
C1083 C 0.6959 0.83219 0.38402 0.0
C1084 C 0.6941 0.84858 0.39716 0.0
C1085 C 0.68693 0.82626 0.35018 0.0
C1086 C 0.6647 0.83997 0.25659 0.0
H1087 H 0.6091 0.78667 0.15817 0.0
H1088 H 0.62164 0.79933 0.21913 0.0
H1089 H 0.65513 0.84156 0.19473 0.0
H1090 H 0.68138 0.87157 0.38531 0.0
H1091 H 0.6656 0.86115 0.32645 0.0
H1092 H 0.66081 0.80672 0.32052 0.0
C1093 C 0.62721 0.80136 0.18899 0.0
C1094 C 0.65637 0.83381 0.22194 0.0
C1095 C 0.61998 0.79418 0.15402 0.0
C1096 C 0.68309 0.8589 0.37585 0.0
C1097 C 0.67411 0.85296 0.342 0.0
C1098 C 0.65974 0.81441 0.29317 0.0
C1099 C 0.64148 0.81099 0.18508 0.0
C1100 C 0.64972 0.81785 0.22244 0.0
C1101 C 0.67594 0.83658 0.32876 0.0
C1102 C 0.66659 0.83028 0.29247 0.0
H1103 H 0.64652 0.80843 0.08024 0.0
H1104 H 0.65924 0.82078 0.14129 0.0
H1105 H 0.64658 0.79585 0.25979 0.0
H1106 H 0.70432 0.82394 0.39969 0.0
H1107 H 0.6888 0.81365 0.34038 0.0
C1108 C 0.13651 0.70864 0.34509 0.0
C1109 C 0.13211 0.69928 0.38009 0.0
C1110 C 0.14434 0.70122 0.3113 0.0
C1111 C 0.15138 0.66144 0.26013 0.0
H1112 H 0.19045 0.68253 0.21608 0.0
C1113 C 0.18502 0.63894 0.11212 0.0
C1114 C 0.20223 0.63778 0.11512 0.0
C1115 C 0.17594 0.64649 0.14365 0.0
C1116 C 0.17958 0.67649 0.22814 0.0
H1117 H 0.13212 0.67475 0.40672 0.0
H1118 H 0.14572 0.66181 0.34754 0.0
H1119 H 0.17523 0.69564 0.27251 0.0
H1120 H 0.22339 0.64364 0.15345 0.0
H1121 H 0.20752 0.65691 0.20831 0.0
H1122 H 0.15585 0.64221 0.21598 0.0
C1123 C 0.14308 0.67487 0.34629 0.0
C1124 C 0.17079 0.68406 0.26013 0.0
C1125 C 0.13539 0.6823 0.38024 0.0
C1126 C 0.21016 0.64433 0.15022 0.0
C1127 C 0.20109 0.65202 0.18152 0.0
C1128 C 0.16009 0.65394 0.22785 0.0
C1129 C 0.14778 0.68429 0.31168 0.0
C1130 C 0.15668 0.67654 0.27664 0.0
C1131 C 0.1839 0.65317 0.17853 0.0
C1132 C 0.17435 0.66134 0.21181 0.0
H1133 H 0.13414 0.72174 0.344 0.0
H1134 H 0.14769 0.70874 0.28482 0.0
H1135 H 0.14048 0.65544 0.27212 0.0
H1136 H 0.17856 0.63399 0.08545 0.0
H1137 H 0.16271 0.64732 0.14046 0.0
C1138 C 0.2939 0.14045 0.36565 0.0
C1139 C 0.30489 0.13322 0.39399 0.0
C1140 C 0.29962 0.14742 0.32882 0.0
C1141 C 0.33464 0.14728 0.25627 0.0
H1142 H 0.31547 0.18843 0.2191 0.0
C1143 C 0.35977 0.18427 0.11637 0.0
C1144 C 0.34811 0.19126 0.08936 0.0
C1145 C 0.35481 0.1769 0.15352 0.0
C1146 C 0.32082 0.17685 0.22883 0.0
H1147 H 0.33054 0.12761 0.40579 0.0
H1148 H 0.34059 0.14 0.34142 0.0
H1149 H 0.3065 0.17633 0.28449 0.0
H1150 H 0.32208 0.19571 0.07978 0.0
H1151 H 0.31344 0.18273 0.14445 0.0
H1152 H 0.34899 0.14786 0.20048 0.0
C1153 C 0.3275 0.14008 0.34762 0.0
C1154 C 0.31569 0.16992 0.26631 0.0
C1155 C 0.32176 0.13306 0.38456 0.0
C1156 C 0.33138 0.19051 0.09999 0.0
C1157 C 0.32643 0.18316 0.13715 0.0
C1158 C 0.3398 0.15424 0.21875 0.0
C1159 C 0.31649 0.14739 0.31943 0.0
C1160 C 0.32244 0.15499 0.28031 0.0
C1161 C 0.3381 0.17638 0.16446 0.0
C1162 C 0.33286 0.16904 0.20451 0.0
H1163 H 0.28081 0.1407 0.37179 0.0
H1164 H 0.29079 0.1527 0.30744 0.0
H1165 H 0.33994 0.13568 0.26598 0.0
H1166 H 0.37276 0.18466 0.10909 0.0
H1167 H 0.36411 0.17191 0.17409 0.0
loop_
_geom_bond_atom_site_label_1
_geom_bond_atom_site_label_2
_geom_bond_distance
_geom_bond_site_symmetry_2
_ccdc_geom_bond_type
C0 O1 1.160 . S
C0 O7 1.185 1_554 S
O1 C0 1.160 . S
O2 Zn3 1.899 . S
O2 C10 1.284 . S
Zn3 O2 1.899 . S
Zn3 O4 2.032 1_554 S
Zn3 O7 2.086 1_554 S
Zn3 O12 1.977 1_554 S
O4 Zn3 2.032 1_556 S
O4 C8 1.278 . S
C5 O6 1.203 . S
C5 O12 1.267 1_554 S
O6 C5 1.203 . S
O7 C0 1.185 1_556 S
O7 Zn3 2.086 1_556 S
C8 O4 1.278 . S
C8 O9 1.211 . S
O9 C8 1.211 . S
C10 O2 1.284 . S
C10 O11 1.273 . S
O11 C10 1.273 . S
O12 Zn3 1.977 1_556 S
O12 C5 1.267 1_556 S
C13 O14 1.160 . S
C13 O20 1.185 1_554 S
O14 C13 1.160 . S
O15 Zn16 1.899 . S
O15 C23 1.284 . S
Zn16 O15 1.899 . S
Zn16 O17 2.032 1_554 S
Zn16 O20 2.086 1_554 S
Zn16 O25 1.977 1_554 S
O17 Zn16 2.032 1_556 S
O17 C21 1.278 . S
C18 O19 1.203 . S
C18 O25 1.267 1_554 S
O19 C18 1.203 . S
O20 C13 1.185 1_556 S
O20 Zn16 2.086 1_556 S
C21 O17 1.278 . S
C21 O22 1.211 . S
O22 C21 1.211 . S
C23 O15 1.284 . S
C23 O24 1.273 . S
O24 C23 1.273 . S
O25 Zn16 1.977 1_556 S
O25 C18 1.267 1_556 S
C26 O27 1.160 . S
C26 O33 1.185 1_554 S
O27 C26 1.160 . S
O28 Zn29 1.899 . S
O28 C36 1.284 . S
Zn29 O28 1.899 . S
Zn29 O30 2.032 1_554 S
Zn29 O33 2.086 1_554 S
Zn29 O38 1.977 1_554 S
O30 Zn29 2.032 1_556 S
O30 C34 1.278 . S
C31 O32 1.203 . S
C31 O38 1.267 1_554 S
O32 C31 1.203 . S
O33 C26 1.185 1_556 S
O33 Zn29 2.086 1_556 S
C34 O30 1.278 . S
C34 O35 1.211 . S
O35 C34 1.211 . S
C36 O28 1.284 . S
C36 O37 1.273 . S
O37 C36 1.273 . S
O38 Zn29 1.977 1_556 S
O38 C31 1.267 1_556 S
C39 O40 1.160 . S
C39 O46 1.185 1_554 S
O40 C39 1.160 . S
O41 Zn42 1.899 . S
O41 C49 1.284 . S
Zn42 O41 1.899 . S
Zn42 O43 2.032 1_554 S
Zn42 O46 2.086 1_554 S
Zn42 O51 1.977 1_554 S
O43 Zn42 2.032 1_556 S
O43 C47 1.278 . S
C44 O45 1.203 . S
C44 O51 1.267 1_554 S
O45 C44 1.203 . S
O46 C39 1.185 1_556 S
O46 Zn42 2.086 1_556 S
C47 O43 1.278 . S
C47 O48 1.211 . S
O48 C47 1.211 . S
C49 O41 1.284 . S
C49 O50 1.273 . S
O50 C49 1.273 . S
O51 Zn42 1.977 1_556 S
O51 C44 1.267 1_556 S
C52 O53 1.160 . S
C52 O59 1.185 1_556 S
O53 C52 1.160 . S
O54 Zn55 1.899 . S
O54 C62 1.284 . S
Zn55 O54 1.899 . S
Zn55 O56 2.032 1_556 S
Zn55 O59 2.086 1_556 S
Zn55 O64 1.977 1_556 S
O56 Zn55 2.032 1_554 S
O56 C60 1.278 . S
C57 O58 1.203 . S
C57 O64 1.267 1_556 S
O58 C57 1.203 . S
O59 C52 1.185 1_554 S
O59 Zn55 2.086 1_554 S
C60 O56 1.278 . S
C60 O61 1.211 . S
O61 C60 1.211 . S
C62 O54 1.284 . S
C62 O63 1.273 . S
O63 C62 1.273 . S
O64 Zn55 1.977 1_554 S
O64 C57 1.267 1_554 S
C65 O66 1.160 . S
C65 O72 1.185 1_556 S
O66 C65 1.160 . S
O67 Zn68 1.899 . S
O67 C75 1.284 . S
Zn68 O67 1.899 . S
Zn68 O69 2.032 1_556 S
Zn68 O72 2.086 1_556 S
Zn68 O77 1.977 1_556 S
O69 Zn68 2.032 1_554 S
O69 C73 1.278 . S
C70 O71 1.203 . S
C70 O77 1.267 1_556 S
O71 C70 1.203 . S
O72 C65 1.185 1_554 S
O72 Zn68 2.086 1_554 S
C73 O69 1.278 . S
C73 O74 1.211 . S
O74 C73 1.211 . S
C75 O67 1.284 . S
C75 O76 1.273 . S
O76 C75 1.273 . S
O77 Zn68 1.977 1_554 S
O77 C70 1.267 1_554 S
C78 O79 1.160 . S
C78 O85 1.185 1_556 S
O79 C78 1.160 . S
O80 Zn81 1.899 . S
O80 C88 1.284 . S
Zn81 O80 1.899 . S
Zn81 O82 2.032 1_556 S
Zn81 O85 2.086 1_556 S
Zn81 O90 1.977 1_556 S
O82 Zn81 2.032 1_554 S
O82 C86 1.278 . S
C83 O84 1.203 . S
C83 O90 1.267 1_556 S
O84 C83 1.203 . S
O85 C78 1.185 1_554 S
O85 Zn81 2.086 1_554 S
C86 O82 1.278 . S
C86 O87 1.211 . S
O87 C86 1.211 . S
C88 O80 1.284 . S
C88 O89 1.273 . S
O89 C88 1.273 . S
O90 Zn81 1.977 1_554 S
O90 C83 1.267 1_554 S
C91 O92 1.160 . S
C91 O98 1.185 1_556 S
O92 C91 1.160 . S
O93 Zn94 1.899 . S
O93 C101 1.284 . S
Zn94 O93 1.899 . S
Zn94 O95 2.032 1_556 S
Zn94 O98 2.086 1_556 S
Zn94 O103 1.977 1_556 S
O95 Zn94 2.032 1_554 S
O95 C99 1.278 . S
C96 O97 1.203 . S
C96 O103 1.267 1_556 S
O97 C96 1.203 . S
O98 C91 1.185 1_554 S
O98 Zn94 2.086 1_554 S
C99 O95 1.278 . S
C99 O100 1.211 . S
O100 C99 1.211 . S
C101 O93 1.284 . S
C101 O102 1.273 . S
O102 C101 1.273 . S
O103 Zn94 1.977 1_554 S
O103 C96 1.267 1_554 S
C104 O105 1.160 . S
C104 O111 1.185 . S
O105 C104 1.160 . S
O106 Zn107 1.899 . S
O106 C114 1.284 . S
Zn107 O106 1.899 . S
Zn107 O108 2.032 . S
Zn107 O111 2.086 . S
Zn107 O116 1.977 . S
O108 Zn107 2.032 . S
O108 C112 1.278 . S
C109 O110 1.203 . S
C109 O116 1.267 . S
O110 C109 1.203 . S
O111 C104 1.185 . S
O111 Zn107 2.086 . S
C112 O108 1.278 . S
C112 O113 1.211 . S
O113 C112 1.211 . S
C114 O106 1.284 . S
C114 O115 1.273 . S
O115 C114 1.273 . S
O116 Zn107 1.977 . S
O116 C109 1.267 . S
C117 O118 1.160 . S
C117 O124 1.185 . S
O118 C117 1.160 . S
O119 Zn120 1.899 . S
O119 C127 1.284 . S
Zn120 O119 1.899 . S
Zn120 O121 2.032 . S
Zn120 O124 2.086 . S
Zn120 O129 1.977 . S
O121 Zn120 2.032 . S
O121 C125 1.278 . S
C122 O123 1.203 . S
C122 O129 1.267 . S
O123 C122 1.203 . S
O124 C117 1.185 . S
O124 Zn120 2.086 . S
C125 O121 1.278 . S
C125 O126 1.211 . S
O126 C125 1.211 . S
C127 O119 1.284 . S
C127 O128 1.273 . S
O128 C127 1.273 . S
O129 Zn120 1.977 . S
O129 C122 1.267 . S
C130 O131 1.160 . S
C130 O137 1.185 . S
O131 C130 1.160 . S
O132 Zn133 1.899 . S
O132 C140 1.284 . S
Zn133 O132 1.899 . S
Zn133 O134 2.032 . S
Zn133 O137 2.086 . S
Zn133 O142 1.977 . S
O134 Zn133 2.032 . S
O134 C138 1.278 . S
C135 O136 1.203 . S
C135 O142 1.267 . S
O136 C135 1.203 . S
O137 C130 1.185 . S
O137 Zn133 2.086 . S
C138 O134 1.278 . S
C138 O139 1.211 . S
O139 C138 1.211 . S
C140 O132 1.284 . S
C140 O141 1.273 . S
O141 C140 1.273 . S
O142 Zn133 1.977 . S
O142 C135 1.267 . S
C143 O144 1.160 . S
C143 O150 1.185 . S
O144 C143 1.160 . S
O145 Zn146 1.899 . S
O145 C153 1.284 . S
Zn146 O145 1.899 . S
Zn146 O147 2.032 . S
Zn146 O150 2.086 . S
Zn146 O155 1.977 . S
O147 Zn146 2.032 . S
O147 C151 1.278 . S
C148 O149 1.203 . S
C148 O155 1.267 . S
O149 C148 1.203 . S
O150 C143 1.185 . S
O150 Zn146 2.086 . S
C151 O147 1.278 . S
C151 O152 1.211 . S
O152 C151 1.211 . S
C153 O145 1.284 . S
C153 O154 1.273 . S
O154 C153 1.273 . S
O155 Zn146 1.977 . S
O155 C148 1.267 . S
C156 O157 1.160 . S
C156 O163 1.185 . S
O157 C156 1.160 . S
O158 Zn159 1.899 . S
O158 C166 1.284 . S
Zn159 O158 1.899 . S
Zn159 O160 2.032 . S
Zn159 O163 2.086 . S
Zn159 O168 1.977 . S
O160 Zn159 2.032 . S
O160 C164 1.278 . S
C161 O162 1.203 . S
C161 O168 1.267 . S
O162 C161 1.203 . S
O163 C156 1.185 . S
O163 Zn159 2.086 . S
C164 O160 1.278 . S
C164 O165 1.211 . S
O165 C164 1.211 . S
C166 O158 1.284 . S
C166 O167 1.273 . S
O167 C166 1.273 . S
O168 Zn159 1.977 . S
O168 C161 1.267 . S
C169 O170 1.160 . S
C169 O176 1.185 . S
O170 C169 1.160 . S
O171 Zn172 1.899 . S
O171 C179 1.284 . S
Zn172 O171 1.899 . S
Zn172 O173 2.032 . S
Zn172 O176 2.086 . S
Zn172 O181 1.977 . S
O173 Zn172 2.032 . S
O173 C177 1.278 . S
C174 O175 1.203 . S
C174 O181 1.267 . S
O175 C174 1.203 . S
O176 C169 1.185 . S
O176 Zn172 2.086 . S
C177 O173 1.278 . S
C177 O178 1.211 . S
O178 C177 1.211 . S
C179 O171 1.284 . S
C179 O180 1.273 . S
O180 C179 1.273 . S
O181 Zn172 1.977 . S
O181 C174 1.267 . S
C182 O183 1.160 . S
C182 O189 1.185 . S
O183 C182 1.160 . S
O184 Zn185 1.899 . S
O184 C192 1.284 . S
Zn185 O184 1.899 . S
Zn185 O186 2.032 . S
Zn185 O189 2.086 . S
Zn185 O194 1.977 . S
O186 Zn185 2.032 . S
O186 C190 1.278 . S
C187 O188 1.203 . S
C187 O194 1.267 . S
O188 C187 1.203 . S
O189 C182 1.185 . S
O189 Zn185 2.086 . S
C190 O186 1.278 . S
C190 O191 1.211 . S
O191 C190 1.211 . S
C192 O184 1.284 . S
C192 O193 1.273 . S
O193 C192 1.273 . S
O194 Zn185 1.977 . S
O194 C187 1.267 . S
C195 O196 1.160 . S
C195 O202 1.185 . S
O196 C195 1.160 . S
O197 Zn198 1.899 . S
O197 C205 1.284 . S
Zn198 O197 1.899 . S
Zn198 O199 2.032 . S
Zn198 O202 2.086 . S
Zn198 O207 1.977 . S
O199 Zn198 2.032 . S
O199 C203 1.278 . S
C200 O201 1.203 . S
C200 O207 1.267 . S
O201 C200 1.203 . S
O202 C195 1.185 . S
O202 Zn198 2.086 . S
C203 O199 1.278 . S
C203 O204 1.211 . S
O204 C203 1.211 . S
C205 O197 1.284 . S
C205 O206 1.273 . S
O206 C205 1.273 . S
O207 Zn198 1.977 . S
O207 C200 1.267 . S
C208 C209 1.349 1_556 S
C208 C210 1.327 . S
C208 H233 0.950 . S
C209 C208 1.349 1_554 S
C209 C225 1.349 . S
C210 C208 1.327 . S
C210 C229 1.429 1_556 S
C210 H234 0.950 . S
C211 C228 1.574 . S
C211 C230 1.386 . S
C211 H235 0.949 . S
H212 C216 0.949 . S
C213 C214 1.349 1_554 S
C213 C215 1.327 . S
C213 H236 0.950 . S
C214 C213 1.349 1_556 S
C214 C226 1.349 . S
C215 C213 1.327 . S
C215 C231 1.429 1_554 S
C215 H237 0.950 . S
C216 H212 0.949 . S
C216 C224 1.574 . S
C216 C232 1.383 . S
H217 C225 0.950 . S
H218 C223 0.950 . S
H219 C224 0.949 . S
H220 C226 0.950 . S
H221 C227 0.950 . S
H222 C228 0.949 . S
C223 H218 0.950 . S
C223 C225 1.327 . S
C223 C229 1.429 . S
C224 C216 1.574 . S
C224 H219 0.949 . S
C224 C230 1.350 1_556 S
C225 C209 1.349 . S
C225 H217 0.950 . S
C225 C223 1.327 . S
C226 C214 1.349 . S
C226 H220 0.950 . S
C226 C227 1.327 . S
C227 H221 0.950 . S
C227 C226 1.327 . S
C227 C231 1.429 . S
C228 C211 1.574 . S
C228 H222 0.949 . S
C228 C232 1.353 1_554 S
C229 C210 1.429 1_554 S
C229 C223 1.429 . S
C229 C230 1.524 . S
C230 C211 1.386 . S
C230 C224 1.350 1_554 S
C230 C229 1.524 . S
C231 C215 1.429 1_556 S
C231 C227 1.429 . S
C231 C232 1.523 . S
C232 C216 1.383 . S
C232 C228 1.353 1_556 S
C232 C231 1.523 . S
H233 C208 0.950 . S
H234 C210 0.950 . S
H235 C211 0.949 . S
H236 C213 0.950 . S
H237 C215 0.950 . S
C238 C239 1.349 . S
C238 C240 1.327 . S
C238 H263 0.950 . S
C239 C238 1.349 . S
C239 C255 1.349 1_554 S
C240 C238 1.327 . S
C240 C259 1.429 . S
C240 H264 0.950 . S
C241 C258 1.574 . S
C241 C260 1.355 1_556 S
C241 H265 0.949 . S
H242 C246 0.949 . S
C243 C244 1.349 . S
C243 C245 1.327 . S
C243 H266 0.950 . S
C244 C243 1.349 . S
C244 C256 1.349 1_556 S
C245 C243 1.327 . S
C245 C261 1.429 . S
C245 H267 0.950 . S
C246 H242 0.949 . S
C246 C254 1.574 . S
C246 C262 1.357 1_554 S
H247 C255 0.950 . S
H248 C253 0.950 . S
H249 C254 0.949 . S
H250 C256 0.950 . S
H251 C257 0.950 . S
H252 C258 0.949 . S
C253 H248 0.950 . S
C253 C255 1.327 . S
C253 C259 1.429 1_556 S
C254 C246 1.574 . S
C254 H249 0.949 . S
C254 C260 1.382 . S
C255 C239 1.349 1_556 S
C255 H247 0.950 . S
C255 C253 1.327 . S
C256 C244 1.349 1_554 S
C256 H250 0.950 . S
C256 C257 1.327 . S
C257 H251 0.950 . S
C257 C256 1.327 . S
C257 C261 1.429 1_554 S
C258 C241 1.574 . S
C258 H252 0.949 . S
C258 C262 1.379 . S
C259 C240 1.429 . S
C259 C253 1.429 1_554 S
C259 C260 1.524 . S
C260 C241 1.355 1_554 S
C260 C254 1.382 . S
C260 C259 1.524 . S
C261 C245 1.429 . S
C261 C257 1.429 1_556 S
C261 C262 1.523 . S
C262 C246 1.357 1_556 S
C262 C258 1.379 . S
C262 C261 1.523 . S
H263 C238 0.950 . S
H264 C240 0.950 . S
H265 C241 0.949 . S
H266 C243 0.950 . S
H267 C245 0.950 . S
C268 C269 1.349 . S
C268 C270 1.327 . S
C268 H293 0.950 . S
C269 C268 1.349 . S
C269 C285 1.349 1_554 S
C270 C268 1.327 . S
C270 C289 1.429 . S
C270 H294 0.950 . S
C271 C288 1.574 . S
C271 C290 1.349 1_556 S
C271 H295 0.949 . S
H272 C276 0.949 . S
C273 C274 1.349 . S
C273 C275 1.327 . S
C273 H296 0.950 . S
C274 C273 1.349 . S
C274 C286 1.349 1_556 S
C275 C273 1.327 . S
C275 C291 1.429 . S
C275 H297 0.950 . S
C276 H272 0.949 . S
C276 C284 1.574 . S
C276 C292 1.353 1_554 S
H277 C285 0.950 . S
H278 C283 0.950 . S
H279 C284 0.949 . S
H280 C286 0.950 . S
H281 C287 0.950 . S
H282 C288 0.949 . S
C283 H278 0.950 . S
C283 C285 1.327 . S
C283 C289 1.429 1_556 S
C284 C276 1.574 . S
C284 H279 0.949 . S
C284 C290 1.387 . S
C285 C269 1.349 1_556 S
C285 H277 0.950 . S
C285 C283 1.327 . S
C286 C274 1.349 1_554 S
C286 H280 0.950 . S
C286 C287 1.327 . S
C287 H281 0.950 . S
C287 C286 1.327 . S
C287 C291 1.429 1_554 S
C288 C271 1.574 . S
C288 H282 0.949 . S
C288 C292 1.384 . S
C289 C270 1.429 . S
C289 C283 1.429 1_554 S
C289 C290 1.524 . S
C290 C271 1.349 1_554 S
C290 C284 1.387 . S
C290 C289 1.524 . S
C291 C275 1.429 . S
C291 C287 1.429 1_556 S
C291 C292 1.523 . S
C292 C276 1.353 1_556 S
C292 C288 1.384 . S
C292 C291 1.523 . S
H293 C268 0.950 . S
H294 C270 0.950 . S
H295 C271 0.949 . S
H296 C273 0.950 . S
H297 C275 0.950 . S
C298 C299 1.349 1_556 S
C298 C300 1.327 . S
C298 H323 0.950 . S
C299 C298 1.349 1_554 S
C299 C315 1.349 . S
C300 C298 1.327 . S
C300 C319 1.429 1_556 S
C300 H324 0.950 . S
C301 C318 1.574 . S
C301 C320 1.382 . S
C301 H325 0.949 . S
H302 C306 0.949 . S
C303 C304 1.349 1_554 S
C303 C305 1.327 . S
C303 H326 0.950 . S
C304 C303 1.349 1_556 S
C304 C316 1.349 . S
C305 C303 1.327 . S
C305 C321 1.429 1_554 S
C305 H327 0.950 . S
C306 H302 0.949 . S
C306 C314 1.574 . S
C306 C322 1.379 . S
H307 C315 0.950 . S
H308 C313 0.950 . S
H309 C314 0.949 . S
H310 C316 0.950 . S
H311 C317 0.950 . S
H312 C318 0.949 . S
C313 H308 0.950 . S
C313 C315 1.327 . S
C313 C319 1.429 . S
C314 C306 1.574 . S
C314 H309 0.949 . S
C314 C320 1.355 1_556 S
C315 C299 1.349 . S
C315 H307 0.950 . S
C315 C313 1.327 . S
C316 C304 1.349 . S
C316 H310 0.950 . S
C316 C317 1.327 . S
C317 H311 0.950 . S
C317 C316 1.327 . S
C317 C321 1.429 . S
C318 C301 1.574 . S
C318 H312 0.949 . S
C318 C322 1.357 1_554 S
C319 C300 1.429 1_554 S
C319 C313 1.429 . S
C319 C320 1.524 . S
C320 C301 1.382 . S
C320 C314 1.355 1_554 S
C320 C319 1.524 . S
C321 C305 1.429 1_556 S
C321 C317 1.429 . S
C321 C322 1.523 . S
C322 C306 1.379 . S
C322 C318 1.357 1_556 S
C322 C321 1.523 . S
H323 C298 0.950 . S
H324 C300 0.950 . S
H325 C301 0.949 . S
H326 C303 0.950 . S
H327 C305 0.950 . S
C328 C329 1.349 . S
C328 C330 1.327 . S
C328 H353 0.950 . S
C329 C328 1.349 . S
C329 C345 1.349 . S
C330 C328 1.327 . S
C330 C349 1.429 . S
C330 H354 0.950 . S
C331 C348 1.574 1_545 S
C331 C350 1.368 . S
C331 H355 0.949 . S
H332 C336 0.949 . S
C333 C334 1.349 . S
C333 C335 1.327 . S
C333 H356 0.950 . S
C334 C333 1.349 . S
C334 C346 1.349 . S
C335 C333 1.327 . S
C335 C351 1.429 . S
C335 H357 0.950 . S
C336 H332 0.949 . S
C336 C344 1.574 1_565 S
C336 C352 1.368 . S
H337 C345 0.950 . S
H338 C343 0.950 . S
H339 C344 0.949 . S
H340 C346 0.950 . S
H341 C347 0.950 . S
H342 C348 0.949 . S
C343 H338 0.950 . S
C343 C345 1.327 . S
C343 C349 1.429 . S
C344 C336 1.574 1_545 S
C344 H339 0.949 . S
C344 C350 1.368 . S
C345 C329 1.349 . S
C345 H337 0.950 . S
C345 C343 1.327 . S
C346 C334 1.349 . S
C346 H340 0.950 . S
C346 C347 1.327 . S
C347 H341 0.950 . S
C347 C346 1.327 . S
C347 C351 1.429 . S
C348 C331 1.574 1_565 S
C348 H342 0.949 . S
C348 C352 1.368 . S
C349 C330 1.429 . S
C349 C343 1.429 . S
C349 C350 1.523 . S
C350 C331 1.368 . S
C350 C344 1.368 . S
C350 C349 1.523 . S
C351 C335 1.429 . S
C351 C347 1.429 . S
C351 C352 1.523 . S
C352 C336 1.368 . S
C352 C348 1.368 . S
C352 C351 1.523 . S
H353 C328 0.950 . S
H354 C330 0.950 . S
H355 C331 0.949 . S
H356 C333 0.950 . S
H357 C335 0.950 . S
C358 C359 1.349 . S
C358 C360 1.327 . S
C358 H383 0.950 . S
C359 C358 1.349 . S
C359 C375 1.349 . S
C360 C358 1.327 . S
C360 C379 1.429 . S
C360 H384 0.950 . S
C361 C378 1.574 1_655 S
C361 C380 1.368 . S
C361 H385 0.949 . S
H362 C366 0.949 . S
C363 C364 1.349 . S
C363 C365 1.327 . S
C363 H386 0.950 . S
C364 C363 1.349 . S
C364 C376 1.349 . S
C365 C363 1.327 . S
C365 C381 1.429 . S
C365 H387 0.950 . S
C366 H362 0.949 . S
C366 C374 1.574 1_455 S
C366 C382 1.368 . S
H367 C375 0.950 . S
H368 C373 0.950 . S
H369 C374 0.949 . S
H370 C376 0.950 . S
H371 C377 0.950 . S
H372 C378 0.949 . S
C373 H368 0.950 . S
C373 C375 1.327 . S
C373 C379 1.429 . S
C374 C366 1.574 1_655 S
C374 H369 0.949 . S
C374 C380 1.368 . S
C375 C359 1.349 . S
C375 H367 0.950 . S
C375 C373 1.327 . S
C376 C364 1.349 . S
C376 H370 0.950 . S
C376 C377 1.327 . S
C377 H371 0.950 . S
C377 C376 1.327 . S
C377 C381 1.429 . S
C378 C361 1.574 1_455 S
C378 H372 0.949 . S
C378 C382 1.368 . S
C379 C360 1.429 . S
C379 C373 1.429 . S
C379 C380 1.523 . S
C380 C361 1.368 . S
C380 C374 1.368 . S
C380 C379 1.523 . S
C381 C365 1.429 . S
C381 C377 1.429 . S
C381 C382 1.523 . S
C382 C366 1.368 . S
C382 C378 1.368 . S
C382 C381 1.523 . S
H383 C358 0.950 . S
H384 C360 0.950 . S
H385 C361 0.949 . S
H386 C363 0.950 . S
H387 C365 0.950 . S
C388 C389 1.349 . S
C388 C390 1.327 . S
C388 H413 0.950 . S
C389 C388 1.349 . S
C389 C405 1.349 . S
C390 C388 1.327 . S
C390 C409 1.429 . S
C390 H414 0.950 . S
C391 C408 1.574 1_545 S
C391 C410 1.368 . S
C391 H415 0.949 . S
H392 C396 0.949 . S
C393 C394 1.349 . S
C393 C395 1.327 . S
C393 H416 0.950 . S
C394 C393 1.349 . S
C394 C406 1.349 . S
C395 C393 1.327 . S
C395 C411 1.429 . S
C395 H417 0.950 . S
C396 H392 0.949 . S
C396 C404 1.574 1_565 S
C396 C412 1.368 . S
H397 C405 0.950 . S
H398 C403 0.950 . S
H399 C404 0.949 . S
H400 C406 0.950 . S
H401 C407 0.950 . S
H402 C408 0.949 . S
C403 H398 0.950 . S
C403 C405 1.327 . S
C403 C409 1.429 . S
C404 C396 1.574 1_545 S
C404 H399 0.949 . S
C404 C410 1.368 . S
C405 C389 1.349 . S
C405 H397 0.950 . S
C405 C403 1.327 . S
C406 C394 1.349 . S
C406 H400 0.950 . S
C406 C407 1.327 . S
C407 H401 0.950 . S
C407 C406 1.327 . S
C407 C411 1.429 . S
C408 C391 1.574 1_565 S
C408 H402 0.949 . S
C408 C412 1.368 . S
C409 C390 1.429 . S
C409 C403 1.429 . S
C409 C410 1.523 . S
C410 C391 1.368 . S
C410 C404 1.368 . S
C410 C409 1.523 . S
C411 C395 1.429 . S
C411 C407 1.429 . S
C411 C412 1.523 . S
C412 C396 1.368 . S
C412 C408 1.368 . S
C412 C411 1.523 . S
H413 C388 0.950 . S
H414 C390 0.950 . S
H415 C391 0.949 . S
H416 C393 0.950 . S
H417 C395 0.950 . S
C418 C419 1.349 . S
C418 C420 1.327 . S
C418 H443 0.950 . S
C419 C418 1.349 . S
C419 C435 1.349 . S
C420 C418 1.327 . S
C420 C439 1.429 . S
C420 H444 0.950 . S
C421 C438 1.574 1_455 S
C421 C440 1.368 . S
C421 H445 0.949 . S
H422 C426 0.949 . S
C423 C424 1.349 . S
C423 C425 1.327 . S
C423 H446 0.950 . S
C424 C423 1.349 . S
C424 C436 1.349 . S
C425 C423 1.327 . S
C425 C441 1.429 . S
C425 H447 0.950 . S
C426 H422 0.949 . S
C426 C434 1.574 1_655 S
C426 C442 1.368 . S
H427 C435 0.950 . S
H428 C433 0.950 . S
H429 C434 0.949 . S
H430 C436 0.950 . S
H431 C437 0.950 . S
H432 C438 0.949 . S
C433 H428 0.950 . S
C433 C435 1.327 . S
C433 C439 1.429 . S
C434 C426 1.574 1_455 S
C434 H429 0.949 . S
C434 C440 1.368 . S
C435 C419 1.349 . S
C435 H427 0.950 . S
C435 C433 1.327 . S
C436 C424 1.349 . S
C436 H430 0.950 . S
C436 C437 1.327 . S
C437 H431 0.950 . S
C437 C436 1.327 . S
C437 C441 1.429 . S
C438 C421 1.574 1_655 S
C438 H432 0.949 . S
C438 C442 1.368 . S
C439 C420 1.429 . S
C439 C433 1.429 . S
C439 C440 1.523 . S
C440 C421 1.368 . S
C440 C434 1.368 . S
C440 C439 1.523 . S
C441 C425 1.429 . S
C441 C437 1.429 . S
C441 C442 1.523 . S
C442 C426 1.368 . S
C442 C438 1.368 . S
C442 C441 1.523 . S
H443 C418 0.950 . S
H444 C420 0.950 . S
H445 C421 0.949 . S
H446 C423 0.950 . S
H447 C425 0.950 . S
C448 C449 1.349 . S
C448 C450 1.327 . S
C448 H473 0.950 . S
C449 C448 1.349 . S
C449 C465 1.349 1_554 S
C450 C448 1.327 . S
C450 C469 1.429 . S
C450 H474 0.950 . S
C451 C468 1.574 . S
C451 C470 1.355 1_556 S
C451 H475 0.949 . S
H452 C456 0.949 . S
C453 C454 1.349 . S
C453 C455 1.327 . S
C453 H476 0.950 . S
C454 C453 1.349 . S
C454 C466 1.349 1_556 S
C455 C453 1.327 . S
C455 C471 1.448 . S
C455 H477 0.950 . S
C456 H452 0.949 . S
C456 C464 1.574 . S
C456 C472 1.361 1_554 S
H457 C465 0.950 . S
H458 C463 0.950 . S
H459 C464 0.949 . S
H460 C466 0.950 . S
H461 C467 0.950 . S
H462 C468 0.949 . S
C463 H458 0.950 . S
C463 C465 1.327 . S
C463 C469 1.429 1_556 S
C464 C456 1.574 . S
C464 H459 0.949 . S
C464 C470 1.381 . S
C465 C449 1.349 1_556 S
C465 H457 0.950 . S
C465 C463 1.327 . S
C466 C454 1.349 1_554 S
C466 H460 0.950 . S
C466 C467 1.327 . S
C467 H461 0.950 . S
C467 C466 1.327 . S
C467 C471 1.410 1_554 S
C468 C451 1.574 . S
C468 H462 0.949 . S
C468 C472 1.375 . S
C469 C450 1.429 . S
C469 C463 1.429 1_554 S
C469 C470 1.523 . S
C470 C451 1.355 1_554 S
C470 C464 1.381 . S
C470 C469 1.523 . S
C471 C455 1.448 . S
C471 C467 1.410 1_556 S
C471 C472 1.523 . S
C472 C456 1.361 1_556 S
C472 C468 1.375 . S
C472 C471 1.523 . S
H473 C448 0.950 . S
H474 C450 0.950 . S
H475 C451 0.949 . S
H476 C453 0.950 . S
H477 C455 0.950 . S
C478 C479 1.349 . S
C478 C480 1.327 . S
C478 H503 0.950 . S
C479 C478 1.349 . S
C479 C495 1.349 1_556 S
C480 C478 1.327 . S
C480 C499 1.429 . S
C480 H504 0.950 . S
C481 C498 1.574 . S
C481 C500 1.360 1_554 S
C481 H505 0.949 . S
H482 C486 0.949 . S
C483 C484 1.349 . S
C483 C485 1.327 . S
C483 H506 0.950 . S
C484 C483 1.349 . S
C484 C496 1.349 1_554 S
C485 C483 1.327 . S
C485 C501 1.429 . S
C485 H507 0.950 . S
C486 H482 0.949 . S
C486 C494 1.574 . S
C486 C502 1.356 1_556 S
H487 C495 0.950 . S
H488 C493 0.950 . S
H489 C494 0.949 . S
H490 C496 0.950 . S
H491 C497 0.950 . S
H492 C498 0.949 . S
C493 H488 0.950 . S
C493 C495 1.327 . S
C493 C499 1.429 1_554 S
C494 C486 1.574 . S
C494 H489 0.949 . S
C494 C500 1.377 . S
C495 C479 1.349 1_554 S
C495 H487 0.950 . S
C495 C493 1.327 . S
C496 C484 1.349 1_556 S
C496 H490 0.950 . S
C496 C497 1.327 . S
C497 H491 0.950 . S
C497 C496 1.327 . S
C497 C501 1.429 1_556 S
C498 C481 1.574 . S
C498 H492 0.949 . S
C498 C502 1.380 . S
C499 C480 1.429 . S
C499 C493 1.429 1_556 S
C499 C500 1.523 . S
C500 C481 1.360 1_556 S
C500 C494 1.377 . S
C500 C499 1.523 . S
C501 C485 1.429 . S
C501 C497 1.429 1_554 S
C501 C502 1.523 . S
C502 C486 1.356 1_554 S
C502 C498 1.380 . S
C502 C501 1.523 . S
H503 C478 0.950 . S
H504 C480 0.950 . S
H505 C481 0.949 . S
H506 C483 0.950 . S
H507 C485 0.950 . S
C508 C509 1.349 1_556 S
C508 C510 1.327 . S
C508 H533 0.950 . S
C509 C508 1.349 1_554 S
C509 C525 1.349 . S
C510 C508 1.327 . S
C510 C529 1.429 1_556 S
C510 H534 0.950 . S
C511 C528 1.574 . S
C511 C530 1.381 . S
C511 H535 0.949 . S
H512 C516 0.949 . S
C513 C514 1.349 1_554 S
C513 C515 1.327 . S
C513 H536 0.950 . S
C514 C513 1.349 1_556 S
C514 C526 1.349 . S
C515 C513 1.327 . S
C515 C531 1.410 1_554 S
C515 H537 0.950 . S
C516 H512 0.949 . S
C516 C524 1.574 . S
C516 C532 1.375 . S
H517 C525 0.950 . S
H518 C523 0.950 . S
H519 C524 0.949 . S
H520 C526 0.950 . S
H521 C527 0.950 . S
H522 C528 0.949 . S
C523 H518 0.950 . S
C523 C525 1.327 . S
C523 C529 1.429 . S
C524 C516 1.574 . S
C524 H519 0.949 . S
C524 C530 1.355 1_556 S
C525 C509 1.349 . S
C525 H517 0.950 . S
C525 C523 1.327 . S
C526 C514 1.349 . S
C526 H520 0.950 . S
C526 C527 1.327 . S
C527 H521 0.950 . S
C527 C526 1.327 . S
C527 C531 1.448 . S
C528 C511 1.574 . S
C528 H522 0.949 . S
C528 C532 1.361 1_554 S
C529 C510 1.429 1_554 S
C529 C523 1.429 . S
C529 C530 1.523 . S
C530 C511 1.381 . S
C530 C524 1.355 1_554 S
C530 C529 1.523 . S
C531 C515 1.410 1_556 S
C531 C527 1.448 . S
C531 C532 1.523 . S
C532 C516 1.375 . S
C532 C528 1.361 1_556 S
C532 C531 1.523 . S
H533 C508 0.950 . S
H534 C510 0.950 . S
H535 C511 0.949 . S
H536 C513 0.950 . S
H537 C515 0.950 . S
C538 C539 1.349 . S
C538 C540 1.327 . S
C538 H563 0.950 . S
C539 C538 1.349 . S
C539 C555 1.349 1_556 S
C540 C538 1.327 . S
C540 C559 1.429 . S
C540 H564 0.950 . S
C541 C558 1.574 . S
C541 C560 1.360 1_554 S
C541 H565 0.949 . S
H542 C546 0.949 . S
C543 C544 1.349 . S
C543 C545 1.327 . S
C543 H566 0.950 . S
C544 C543 1.349 . S
C544 C556 1.349 1_554 S
C545 C543 1.327 . S
C545 C561 1.429 . S
C545 H567 0.950 . S
C546 H542 0.949 . S
C546 C554 1.574 . S
C546 C562 1.357 1_556 S
H547 C555 0.950 . S
H548 C553 0.950 . S
H549 C554 0.949 . S
H550 C556 0.950 . S
H551 C557 0.950 . S
H552 C558 0.949 . S
C553 H548 0.950 . S
C553 C555 1.327 . S
C553 C559 1.429 1_554 S
C554 C546 1.574 . S
C554 H549 0.949 . S
C554 C560 1.377 . S
C555 C539 1.349 1_554 S
C555 H547 0.950 . S
C555 C553 1.327 . S
C556 C544 1.349 1_556 S
C556 H550 0.950 . S
C556 C557 1.327 . S
C557 H551 0.950 . S
C557 C556 1.327 . S
C557 C561 1.429 1_556 S
C558 C541 1.574 . S
C558 H552 0.949 . S
C558 C562 1.380 . S
C559 C540 1.429 . S
C559 C553 1.429 1_556 S
C559 C560 1.523 . S
C560 C541 1.360 1_556 S
C560 C554 1.377 . S
C560 C559 1.523 . S
C561 C545 1.429 . S
C561 C557 1.429 1_554 S
C561 C562 1.523 . S
C562 C546 1.357 1_554 S
C562 C558 1.380 . S
C562 C561 1.523 . S
H563 C538 0.950 . S
H564 C540 0.950 . S
H565 C541 0.949 . S
H566 C543 0.950 . S
H567 C545 0.950 . S
C568 C569 1.349 . S
C568 C570 1.327 . S
C568 H593 0.950 . S
C569 C568 1.349 . S
C569 C585 1.349 . S
C570 C568 1.327 . S
C570 C589 1.429 . S
C570 H594 0.950 . S
C571 C588 1.574 . S
C571 C590 1.368 . S
C571 H595 0.949 . S
H572 C576 0.949 . S
C573 C574 1.349 . S
C573 C575 1.327 . S
C573 H596 0.950 . S
C574 C573 1.349 . S
C574 C586 1.349 . S
C575 C573 1.327 . S
C575 C591 1.429 . S
C575 H597 0.950 . S
C576 H572 0.949 . S
C576 C584 1.574 . S
C576 C592 1.368 . S
H577 C585 0.950 . S
H578 C583 0.950 . S
H579 C584 0.949 . S
H580 C586 0.950 . S
H581 C587 0.950 . S
H582 C588 0.949 . S
C583 H578 0.950 . S
C583 C585 1.327 . S
C583 C589 1.429 . S
C584 C576 1.574 . S
C584 H579 0.949 . S
C584 C590 1.368 . S
C585 C569 1.349 . S
C585 H577 0.950 . S
C585 C583 1.327 . S
C586 C574 1.349 . S
C586 H580 0.950 . S
C586 C587 1.327 . S
C587 H581 0.950 . S
C587 C586 1.327 . S
C587 C591 1.429 . S
C588 C571 1.574 . S
C588 H582 0.949 . S
C588 C592 1.368 . S
C589 C570 1.429 . S
C589 C583 1.429 . S
C589 C590 1.523 . S
C590 C571 1.368 . S
C590 C584 1.368 . S
C590 C589 1.523 . S
C591 C575 1.429 . S
C591 C587 1.429 . S
C591 C592 1.523 . S
C592 C576 1.368 . S
C592 C588 1.368 . S
C592 C591 1.523 . S
H593 C568 0.950 . S
H594 C570 0.950 . S
H595 C571 0.949 . S
H596 C573 0.950 . S
H597 C575 0.950 . S
C598 C599 1.349 . S
C598 C600 1.327 . S
C598 H623 0.950 . S
C599 C598 1.349 . S
C599 C615 1.349 . S
C600 C598 1.327 . S
C600 C619 1.429 . S
C600 H624 0.950 . S
C601 C618 1.574 . S
C601 C620 1.368 . S
C601 H625 0.949 . S
H602 C606 0.949 . S
C603 C604 1.349 . S
C603 C605 1.327 . S
C603 H626 0.950 . S
C604 C603 1.349 . S
C604 C616 1.349 . S
C605 C603 1.327 . S
C605 C621 1.429 . S
C605 H627 0.950 . S
C606 H602 0.949 . S
C606 C614 1.574 . S
C606 C622 1.368 . S
H607 C615 0.950 . S
H608 C613 0.950 . S
H609 C614 0.949 . S
H610 C616 0.950 . S
H611 C617 0.950 . S
H612 C618 0.949 . S
C613 H608 0.950 . S
C613 C615 1.327 . S
C613 C619 1.429 . S
C614 C606 1.574 . S
C614 H609 0.949 . S
C614 C620 1.368 . S
C615 C599 1.349 . S
C615 H607 0.950 . S
C615 C613 1.327 . S
C616 C604 1.349 . S
C616 H610 0.950 . S
C616 C617 1.327 . S
C617 H611 0.950 . S
C617 C616 1.327 . S
C617 C621 1.429 . S
C618 C601 1.574 . S
C618 H612 0.949 . S
C618 C622 1.368 . S
C619 C600 1.429 . S
C619 C613 1.429 . S
C619 C620 1.523 . S
C620 C601 1.368 . S
C620 C614 1.368 . S
C620 C619 1.523 . S
C621 C605 1.429 . S
C621 C617 1.429 . S
C621 C622 1.523 . S
C622 C606 1.368 . S
C622 C618 1.368 . S
C622 C621 1.523 . S
H623 C598 0.950 . S
H624 C600 0.950 . S
H625 C601 0.949 . S
H626 C603 0.950 . S
H627 C605 0.950 . S
C628 C629 1.349 . S
C628 C630 1.327 . S
C628 H653 0.950 . S
C629 C628 1.349 . S
C629 C645 1.349 . S
C630 C628 1.327 . S
C630 C649 1.429 . S
C630 H654 0.950 . S
C631 C648 1.574 . S
C631 C650 1.368 . S
C631 H655 0.949 . S
H632 C636 0.949 . S
C633 C634 1.349 . S
C633 C635 1.327 . S
C633 H656 0.950 . S
C634 C633 1.349 . S
C634 C646 1.349 . S
C635 C633 1.327 . S
C635 C651 1.429 . S
C635 H657 0.950 . S
C636 H632 0.949 . S
C636 C644 1.574 . S
C636 C652 1.368 . S
H637 C645 0.950 . S
H638 C643 0.950 . S
H639 C644 0.949 . S
H640 C646 0.950 . S
H641 C647 0.950 . S
H642 C648 0.949 . S
C643 H638 0.950 . S
C643 C645 1.327 . S
C643 C649 1.429 . S
C644 C636 1.574 . S
C644 H639 0.949 . S
C644 C650 1.368 . S
C645 C629 1.349 . S
C645 H637 0.950 . S
C645 C643 1.327 . S
C646 C634 1.349 . S
C646 H640 0.950 . S
C646 C647 1.327 . S
C647 H641 0.950 . S
C647 C646 1.327 . S
C647 C651 1.429 . S
C648 C631 1.574 . S
C648 H642 0.949 . S
C648 C652 1.368 . S
C649 C630 1.429 . S
C649 C643 1.429 . S
C649 C650 1.523 . S
C650 C631 1.368 . S
C650 C644 1.368 . S
C650 C649 1.523 . S
C651 C635 1.429 . S
C651 C647 1.429 . S
C651 C652 1.523 . S
C652 C636 1.368 . S
C652 C648 1.368 . S
C652 C651 1.523 . S
H653 C628 0.950 . S
H654 C630 0.950 . S
H655 C631 0.949 . S
H656 C633 0.950 . S
H657 C635 0.950 . S
C658 C659 1.349 . S
C658 C660 1.327 . S
C658 H683 0.950 . S
C659 C658 1.349 . S
C659 C675 1.349 . S
C660 C658 1.327 . S
C660 C679 1.429 . S
C660 H684 0.950 . S
C661 C678 1.574 . S
C661 C680 1.368 . S
C661 H685 0.949 . S
H662 C666 0.949 . S
C663 C664 1.349 . S
C663 C665 1.327 . S
C663 H686 0.950 . S
C664 C663 1.349 . S
C664 C676 1.349 . S
C665 C663 1.327 . S
C665 C681 1.429 . S
C665 H687 0.950 . S
C666 H662 0.949 . S
C666 C674 1.574 . S
C666 C682 1.368 . S
H667 C675 0.950 . S
H668 C673 0.950 . S
H669 C674 0.949 . S
H670 C676 0.950 . S
H671 C677 0.950 . S
H672 C678 0.949 . S
C673 H668 0.950 . S
C673 C675 1.327 . S
C673 C679 1.429 . S
C674 C666 1.574 . S
C674 H669 0.949 . S
C674 C680 1.368 . S
C675 C659 1.349 . S
C675 H667 0.950 . S
C675 C673 1.327 . S
C676 C664 1.349 . S
C676 H670 0.950 . S
C676 C677 1.327 . S
C677 H671 0.950 . S
C677 C676 1.327 . S
C677 C681 1.429 . S
C678 C661 1.574 . S
C678 H672 0.949 . S
C678 C682 1.368 . S
C679 C660 1.429 . S
C679 C673 1.429 . S
C679 C680 1.523 . S
C680 C661 1.368 . S
C680 C674 1.368 . S
C680 C679 1.523 . S
C681 C665 1.429 . S
C681 C677 1.429 . S
C681 C682 1.523 . S
C682 C666 1.368 . S
C682 C678 1.368 . S
C682 C681 1.523 . S
H683 C658 0.950 . S
H684 C660 0.950 . S
H685 C661 0.949 . S
H686 C663 0.950 . S
H687 C665 0.950 . S
C688 C689 1.349 . S
C688 C690 1.327 . S
C688 H713 0.950 . S
C689 C688 1.349 . S
C689 C705 1.349 . S
C690 C688 1.327 . S
C690 C709 1.429 . S
C690 H714 0.950 . S
C691 C708 1.574 . S
C691 C710 1.368 . S
C691 H715 0.949 . S
H692 C696 0.949 . S
C693 C694 1.349 . S
C693 C695 1.327 . S
C693 H716 0.950 . S
C694 C693 1.349 . S
C694 C706 1.349 . S
C695 C693 1.327 . S
C695 C711 1.429 . S
C695 H717 0.950 . S
C696 H692 0.949 . S
C696 C704 1.574 . S
C696 C712 1.368 . S
H697 C705 0.950 . S
H698 C703 0.950 . S
H699 C704 0.949 . S
H700 C706 0.950 . S
H701 C707 0.950 . S
H702 C708 0.949 . S
C703 H698 0.950 . S
C703 C705 1.327 . S
C703 C709 1.429 . S
C704 C696 1.574 . S
C704 H699 0.949 . S
C704 C710 1.368 . S
C705 C689 1.349 . S
C705 H697 0.950 . S
C705 C703 1.327 . S
C706 C694 1.349 . S
C706 H700 0.950 . S
C706 C707 1.327 . S
C707 H701 0.950 . S
C707 C706 1.327 . S
C707 C711 1.429 . S
C708 C691 1.574 . S
C708 H702 0.949 . S
C708 C712 1.368 . S
C709 C690 1.429 . S
C709 C703 1.429 . S
C709 C710 1.523 . S
C710 C691 1.368 . S
C710 C704 1.368 . S
C710 C709 1.523 . S
C711 C695 1.429 . S
C711 C707 1.429 . S
C711 C712 1.523 . S
C712 C696 1.368 . S
C712 C708 1.368 . S
C712 C711 1.523 . S
H713 C688 0.950 . S
H714 C690 0.950 . S
H715 C691 0.949 . S
H716 C693 0.950 . S
H717 C695 0.950 . S
C718 C719 1.349 . S
C718 C720 1.327 . S
C718 H743 0.950 . S
C719 C718 1.349 . S
C719 C735 1.349 . S
C720 C718 1.327 . S
C720 C739 1.429 . S
C720 H744 0.950 . S
C721 C738 1.574 . S
C721 C740 1.368 . S
C721 H745 0.949 . S
H722 C726 0.949 . S
C723 C724 1.349 . S
C723 C725 1.327 . S
C723 H746 0.950 . S
C724 C723 1.349 . S
C724 C736 1.349 . S
C725 C723 1.327 . S
C725 C741 1.429 . S
C725 H747 0.950 . S
C726 H722 0.949 . S
C726 C734 1.574 . S
C726 C742 1.368 . S
H727 C735 0.950 . S
H728 C733 0.950 . S
H729 C734 0.949 . S
H730 C736 0.950 . S
H731 C737 0.950 . S
H732 C738 0.949 . S
C733 H728 0.950 . S
C733 C735 1.327 . S
C733 C739 1.429 . S
C734 C726 1.574 . S
C734 H729 0.949 . S
C734 C740 1.368 . S
C735 C719 1.349 . S
C735 H727 0.950 . S
C735 C733 1.327 . S
C736 C724 1.349 . S
C736 H730 0.950 . S
C736 C737 1.327 . S
C737 H731 0.950 . S
C737 C736 1.327 . S
C737 C741 1.429 . S
C738 C721 1.574 . S
C738 H732 0.949 . S
C738 C742 1.368 . S
C739 C720 1.429 . S
C739 C733 1.429 . S
C739 C740 1.523 . S
C740 C721 1.368 . S
C740 C734 1.368 . S
C740 C739 1.523 . S
C741 C725 1.429 . S
C741 C737 1.429 . S
C741 C742 1.523 . S
C742 C726 1.368 . S
C742 C738 1.368 . S
C742 C741 1.523 . S
H743 C718 0.950 . S
H744 C720 0.950 . S
H745 C721 0.949 . S
H746 C723 0.950 . S
H747 C725 0.950 . S
C748 C749 1.349 . S
C748 C750 1.327 . S
C748 H773 0.950 . S
C749 C748 1.349 . S
C749 C765 1.349 . S
C750 C748 1.327 . S
C750 C769 1.429 . S
C750 H774 0.950 . S
C751 C768 1.574 . S
C751 C770 1.368 . S
C751 H775 0.949 . S
H752 C756 0.949 . S
C753 C754 1.349 . S
C753 C755 1.327 . S
C753 H776 0.950 . S
C754 C753 1.349 . S
C754 C766 1.349 . S
C755 C753 1.327 . S
C755 C771 1.429 . S
C755 H777 0.950 . S
C756 H752 0.949 . S
C756 C764 1.574 . S
C756 C772 1.368 . S
H757 C765 0.950 . S
H758 C763 0.950 . S
H759 C764 0.949 . S
H760 C766 0.950 . S
H761 C767 0.950 . S
H762 C768 0.949 . S
C763 H758 0.950 . S
C763 C765 1.327 . S
C763 C769 1.429 . S
C764 C756 1.574 . S
C764 H759 0.949 . S
C764 C770 1.368 . S
C765 C749 1.349 . S
C765 H757 0.950 . S
C765 C763 1.327 . S
C766 C754 1.349 . S
C766 H760 0.950 . S
C766 C767 1.327 . S
C767 H761 0.950 . S
C767 C766 1.327 . S
C767 C771 1.429 . S
C768 C751 1.574 . S
C768 H762 0.949 . S
C768 C772 1.368 . S
C769 C750 1.429 . S
C769 C763 1.429 . S
C769 C770 1.523 . S
C770 C751 1.368 . S
C770 C764 1.368 . S
C770 C769 1.523 . S
C771 C755 1.429 . S
C771 C767 1.429 . S
C771 C772 1.523 . S
C772 C756 1.368 . S
C772 C768 1.368 . S
C772 C771 1.523 . S
H773 C748 0.950 . S
H774 C750 0.950 . S
H775 C751 0.949 . S
H776 C753 0.950 . S
H777 C755 0.950 . S
C778 C779 1.349 . S
C778 C780 1.327 . S
C778 H803 0.950 . S
C779 C778 1.349 . S
C779 C795 1.349 . S
C780 C778 1.327 . S
C780 C799 1.429 . S
C780 H804 0.950 . S
C781 C798 1.574 . S
C781 C800 1.368 . S
C781 H805 0.949 . S
H782 C786 0.949 . S
C783 C784 1.349 . S
C783 C785 1.327 . S
C783 H806 0.950 . S
C784 C783 1.349 . S
C784 C796 1.349 . S
C785 C783 1.327 . S
C785 C801 1.429 . S
C785 H807 0.950 . S
C786 H782 0.949 . S
C786 C794 1.574 . S
C786 C802 1.368 . S
H787 C795 0.950 . S
H788 C793 0.950 . S
H789 C794 0.949 . S
H790 C796 0.950 . S
H791 C797 0.950 . S
H792 C798 0.949 . S
C793 H788 0.950 . S
C793 C795 1.327 . S
C793 C799 1.429 . S
C794 C786 1.574 . S
C794 H789 0.949 . S
C794 C800 1.368 . S
C795 C779 1.349 . S
C795 H787 0.950 . S
C795 C793 1.327 . S
C796 C784 1.349 . S
C796 H790 0.950 . S
C796 C797 1.327 . S
C797 H791 0.950 . S
C797 C796 1.327 . S
C797 C801 1.429 . S
C798 C781 1.574 . S
C798 H792 0.949 . S
C798 C802 1.368 . S
C799 C780 1.429 . S
C799 C793 1.429 . S
C799 C800 1.523 . S
C800 C781 1.368 . S
C800 C794 1.368 . S
C800 C799 1.523 . S
C801 C785 1.429 . S
C801 C797 1.429 . S
C801 C802 1.523 . S
C802 C786 1.368 . S
C802 C798 1.368 . S
C802 C801 1.523 . S
H803 C778 0.950 . S
H804 C780 0.950 . S
H805 C781 0.949 . S
H806 C783 0.950 . S
H807 C785 0.950 . S
C808 C809 1.349 . S
C808 C810 1.327 . S
C808 H833 0.950 . S
C809 C808 1.349 . S
C809 C825 1.349 . S
C810 C808 1.327 . S
C810 C829 1.429 . S
C810 H834 0.950 . S
C811 C828 1.574 . S
C811 C830 1.368 . S
C811 H835 0.949 . S
H812 C816 0.949 . S
C813 C814 1.349 . S
C813 C815 1.327 . S
C813 H836 0.950 . S
C814 C813 1.349 . S
C814 C826 1.349 . S
C815 C813 1.327 . S
C815 C831 1.429 . S
C815 H837 0.950 . S
C816 H812 0.949 . S
C816 C824 1.574 . S
C816 C832 1.368 . S
H817 C825 0.950 . S
H818 C823 0.950 . S
H819 C824 0.949 . S
H820 C826 0.950 . S
H821 C827 0.950 . S
H822 C828 0.949 . S
C823 H818 0.950 . S
C823 C825 1.327 . S
C823 C829 1.429 . S
C824 C816 1.574 . S
C824 H819 0.949 . S
C824 C830 1.368 . S
C825 C809 1.349 . S
C825 H817 0.950 . S
C825 C823 1.327 . S
C826 C814 1.349 . S
C826 H820 0.950 . S
C826 C827 1.327 . S
C827 H821 0.950 . S
C827 C826 1.327 . S
C827 C831 1.429 . S
C828 C811 1.574 . S
C828 H822 0.949 . S
C828 C832 1.368 . S
C829 C810 1.429 . S
C829 C823 1.429 . S
C829 C830 1.523 . S
C830 C811 1.368 . S
C830 C824 1.368 . S
C830 C829 1.523 . S
C831 C815 1.429 . S
C831 C827 1.429 . S
C831 C832 1.523 . S
C832 C816 1.368 . S
C832 C828 1.368 . S
C832 C831 1.523 . S
H833 C808 0.950 . S
H834 C810 0.950 . S
H835 C811 0.949 . S
H836 C813 0.950 . S
H837 C815 0.950 . S
C838 C839 1.349 . S
C838 C840 1.327 . S
C838 H863 0.950 . S
C839 C838 1.349 . S
C839 C855 1.349 . S
C840 C838 1.327 . S
C840 C859 1.429 . S
C840 H864 0.950 . S
C841 C858 1.574 . S
C841 C860 1.368 . S
C841 H865 0.949 . S
H842 C846 0.949 . S
C843 C844 1.349 . S
C843 C845 1.327 . S
C843 H866 0.950 . S
C844 C843 1.349 . S
C844 C856 1.349 . S
C845 C843 1.327 . S
C845 C861 1.429 . S
C845 H867 0.950 . S
C846 H842 0.949 . S
C846 C854 1.574 . S
C846 C862 1.368 . S
H847 C855 0.950 . S
H848 C853 0.950 . S
H849 C854 0.949 . S
H850 C856 0.950 . S
H851 C857 0.950 . S
H852 C858 0.949 . S
C853 H848 0.950 . S
C853 C855 1.327 . S
C853 C859 1.429 . S
C854 C846 1.574 . S
C854 H849 0.949 . S
C854 C860 1.368 . S
C855 C839 1.349 . S
C855 H847 0.950 . S
C855 C853 1.327 . S
C856 C844 1.349 . S
C856 H850 0.950 . S
C856 C857 1.327 . S
C857 H851 0.950 . S
C857 C856 1.327 . S
C857 C861 1.429 . S
C858 C841 1.574 . S
C858 H852 0.949 . S
C858 C862 1.368 . S
C859 C840 1.429 . S
C859 C853 1.429 . S
C859 C860 1.523 . S
C860 C841 1.368 . S
C860 C854 1.368 . S
C860 C859 1.523 . S
C861 C845 1.429 . S
C861 C857 1.429 . S
C861 C862 1.523 . S
C862 C846 1.368 . S
C862 C858 1.368 . S
C862 C861 1.523 . S
H863 C838 0.950 . S
H864 C840 0.950 . S
H865 C841 0.949 . S
H866 C843 0.950 . S
H867 C845 0.950 . S
C868 C869 1.349 . S
C868 C870 1.327 . S
C868 H893 0.950 . S
C869 C868 1.349 . S
C869 C885 1.349 . S
C870 C868 1.327 . S
C870 C889 1.429 . S
C870 H894 0.950 . S
C871 C888 1.574 . S
C871 C890 1.368 . S
C871 H895 0.949 . S
H872 C876 0.949 . S
C873 C874 1.349 . S
C873 C875 1.327 . S
C873 H896 0.950 . S
C874 C873 1.349 . S
C874 C886 1.349 . S
C875 C873 1.327 . S
C875 C891 1.429 . S
C875 H897 0.950 . S
C876 H872 0.949 . S
C876 C884 1.574 . S
C876 C892 1.368 . S
H877 C885 0.950 . S
H878 C883 0.950 . S
H879 C884 0.949 . S
H880 C886 0.950 . S
H881 C887 0.950 . S
H882 C888 0.949 . S
C883 H878 0.950 . S
C883 C885 1.327 . S
C883 C889 1.429 . S
C884 C876 1.574 . S
C884 H879 0.949 . S
C884 C890 1.368 . S
C885 C869 1.349 . S
C885 H877 0.950 . S
C885 C883 1.327 . S
C886 C874 1.349 . S
C886 H880 0.950 . S
C886 C887 1.327 . S
C887 H881 0.950 . S
C887 C886 1.327 . S
C887 C891 1.429 . S
C888 C871 1.574 . S
C888 H882 0.949 . S
C888 C892 1.368 . S
C889 C870 1.429 . S
C889 C883 1.429 . S
C889 C890 1.523 . S
C890 C871 1.368 . S
C890 C884 1.368 . S
C890 C889 1.523 . S
C891 C875 1.429 . S
C891 C887 1.429 . S
C891 C892 1.523 . S
C892 C876 1.368 . S
C892 C888 1.368 . S
C892 C891 1.523 . S
H893 C868 0.950 . S
H894 C870 0.950 . S
H895 C871 0.949 . S
H896 C873 0.950 . S
H897 C875 0.950 . S
C898 C899 1.349 . S
C898 C900 1.327 . S
C898 H923 0.950 . S
C899 C898 1.349 . S
C899 C915 1.349 . S
C900 C898 1.327 . S
C900 C919 1.429 . S
C900 H924 0.950 . S
C901 C918 1.574 . S
C901 C920 1.368 . S
C901 H925 0.949 . S
H902 C906 0.949 . S
C903 C904 1.349 . S
C903 C905 1.327 . S
C903 H926 0.950 . S
C904 C903 1.349 . S
C904 C916 1.349 . S
C905 C903 1.327 . S
C905 C921 1.429 . S
C905 H927 0.950 . S
C906 H902 0.949 . S
C906 C914 1.574 . S
C906 C922 1.368 . S
H907 C915 0.950 . S
H908 C913 0.950 . S
H909 C914 0.949 . S
H910 C916 0.950 . S
H911 C917 0.950 . S
H912 C918 0.949 . S
C913 H908 0.950 . S
C913 C915 1.327 . S
C913 C919 1.429 . S
C914 C906 1.574 . S
C914 H909 0.949 . S
C914 C920 1.368 . S
C915 C899 1.349 . S
C915 H907 0.950 . S
C915 C913 1.327 . S
C916 C904 1.349 . S
C916 H910 0.950 . S
C916 C917 1.327 . S
C917 H911 0.950 . S
C917 C916 1.327 . S
C917 C921 1.429 . S
C918 C901 1.574 . S
C918 H912 0.949 . S
C918 C922 1.368 . S
C919 C900 1.429 . S
C919 C913 1.429 . S
C919 C920 1.523 . S
C920 C901 1.368 . S
C920 C914 1.368 . S
C920 C919 1.523 . S
C921 C905 1.429 . S
C921 C917 1.429 . S
C921 C922 1.523 . S
C922 C906 1.368 . S
C922 C918 1.368 . S
C922 C921 1.523 . S
H923 C898 0.950 . S
H924 C900 0.950 . S
H925 C901 0.949 . S
H926 C903 0.950 . S
H927 C905 0.950 . S
C928 C929 1.349 . S
C928 C930 1.327 . S
C928 H953 0.950 . S
C929 C928 1.349 . S
C929 C945 1.349 . S
C930 C928 1.327 . S
C930 C949 1.429 . S
C930 H954 0.950 . S
C931 C948 1.574 . S
C931 C950 1.368 . S
C931 H955 0.949 . S
H932 C936 0.949 . S
C933 C934 1.349 . S
C933 C935 1.327 . S
C933 H956 0.950 . S
C934 C933 1.349 . S
C934 C946 1.349 . S
C935 C933 1.327 . S
C935 C951 1.429 . S
C935 H957 0.950 . S
C936 H932 0.949 . S
C936 C944 1.574 . S
C936 C952 1.368 . S
H937 C945 0.950 . S
H938 C943 0.950 . S
H939 C944 0.949 . S
H940 C946 0.950 . S
H941 C947 0.950 . S
H942 C948 0.949 . S
C943 H938 0.950 . S
C943 C945 1.327 . S
C943 C949 1.429 . S
C944 C936 1.574 . S
C944 H939 0.949 . S
C944 C950 1.368 . S
C945 C929 1.349 . S
C945 H937 0.950 . S
C945 C943 1.327 . S
C946 C934 1.349 . S
C946 H940 0.950 . S
C946 C947 1.327 . S
C947 H941 0.950 . S
C947 C946 1.327 . S
C947 C951 1.429 . S
C948 C931 1.574 . S
C948 H942 0.949 . S
C948 C952 1.368 . S
C949 C930 1.429 . S
C949 C943 1.429 . S
C949 C950 1.523 . S
C950 C931 1.368 . S
C950 C944 1.368 . S
C950 C949 1.523 . S
C951 C935 1.429 . S
C951 C947 1.429 . S
C951 C952 1.523 . S
C952 C936 1.368 . S
C952 C948 1.368 . S
C952 C951 1.523 . S
H953 C928 0.950 . S
H954 C930 0.950 . S
H955 C931 0.949 . S
H956 C933 0.950 . S
H957 C935 0.950 . S
C958 C959 1.349 . S
C958 C960 1.327 . S
C958 H983 0.950 . S
C959 C958 1.349 . S
C959 C975 1.349 . S
C960 C958 1.327 . S
C960 C979 1.429 . S
C960 H984 0.950 . S
C961 C978 1.574 . S
C961 C980 1.368 . S
C961 H985 0.949 . S
H962 C966 0.949 . S
C963 C964 1.349 . S
C963 C965 1.327 . S
C963 H986 0.950 . S
C964 C963 1.349 . S
C964 C976 1.349 . S
C965 C963 1.327 . S
C965 C981 1.429 . S
C965 H987 0.950 . S
C966 H962 0.949 . S
C966 C974 1.574 . S
C966 C982 1.368 . S
H967 C975 0.950 . S
H968 C973 0.950 . S
H969 C974 0.949 . S
H970 C976 0.950 . S
H971 C977 0.950 . S
H972 C978 0.949 . S
C973 H968 0.950 . S
C973 C975 1.327 . S
C973 C979 1.429 . S
C974 C966 1.574 . S
C974 H969 0.949 . S
C974 C980 1.368 . S
C975 C959 1.349 . S
C975 H967 0.950 . S
C975 C973 1.327 . S
C976 C964 1.349 . S
C976 H970 0.950 . S
C976 C977 1.327 . S
C977 H971 0.950 . S
C977 C976 1.327 . S
C977 C981 1.429 . S
C978 C961 1.574 . S
C978 H972 0.949 . S
C978 C982 1.368 . S
C979 C960 1.429 . S
C979 C973 1.429 . S
C979 C980 1.523 . S
C980 C961 1.368 . S
C980 C974 1.368 . S
C980 C979 1.523 . S
C981 C965 1.429 . S
C981 C977 1.429 . S
C981 C982 1.523 . S
C982 C966 1.368 . S
C982 C978 1.368 . S
C982 C981 1.523 . S
H983 C958 0.950 . S
H984 C960 0.950 . S
H985 C961 0.949 . S
H986 C963 0.950 . S
H987 C965 0.950 . S
C988 C989 1.349 . S
C988 C990 1.327 . S
C988 H1013 0.950 . S
C989 C988 1.349 . S
C989 C1005 1.349 . S
C990 C988 1.327 . S
C990 C1009 1.429 . S
C990 H1014 0.950 . S
C991 C1008 1.574 . S
C991 C1010 1.368 . S
C991 H1015 0.949 . S
H992 C996 0.949 . S
C993 C994 1.349 . S
C993 C995 1.327 . S
C993 H1016 0.950 . S
C994 C993 1.349 . S
C994 C1006 1.349 . S
C995 C993 1.327 . S
C995 C1011 1.429 . S
C995 H1017 0.950 . S
C996 H992 0.949 . S
C996 C1004 1.574 . S
C996 C1012 1.368 . S
H997 C1005 0.950 . S
H998 C1003 0.950 . S
H999 C1004 0.949 . S
H1000 C1006 0.950 . S
H1001 C1007 0.950 . S
H1002 C1008 0.949 . S
C1003 H998 0.950 . S
C1003 C1005 1.327 . S
C1003 C1009 1.429 . S
C1004 C996 1.574 . S
C1004 H999 0.949 . S
C1004 C1010 1.368 . S
C1005 C989 1.349 . S
C1005 H997 0.950 . S
C1005 C1003 1.327 . S
C1006 C994 1.349 . S
C1006 H1000 0.950 . S
C1006 C1007 1.327 . S
C1007 H1001 0.950 . S
C1007 C1006 1.327 . S
C1007 C1011 1.429 . S
C1008 C991 1.574 . S
C1008 H1002 0.949 . S
C1008 C1012 1.368 . S
C1009 C990 1.429 . S
C1009 C1003 1.429 . S
C1009 C1010 1.523 . S
C1010 C991 1.368 . S
C1010 C1004 1.368 . S
C1010 C1009 1.523 . S
C1011 C995 1.429 . S
C1011 C1007 1.429 . S
C1011 C1012 1.523 . S
C1012 C996 1.368 . S
C1012 C1008 1.368 . S
C1012 C1011 1.523 . S
H1013 C988 0.950 . S
H1014 C990 0.950 . S
H1015 C991 0.949 . S
H1016 C993 0.950 . S
H1017 C995 0.950 . S
C1018 C1019 1.349 . S
C1018 C1020 1.327 . S
C1018 H1043 0.950 . S
C1019 C1018 1.349 . S
C1019 C1035 1.349 . S
C1020 C1018 1.327 . S
C1020 C1039 1.429 . S
C1020 H1044 0.950 . S
C1021 C1038 1.574 . S
C1021 C1040 1.368 . S
C1021 H1045 0.949 . S
H1022 C1026 0.949 . S
C1023 C1024 1.349 . S
C1023 C1025 1.327 . S
C1023 H1046 0.950 . S
C1024 C1023 1.349 . S
C1024 C1036 1.349 . S
C1025 C1023 1.327 . S
C1025 C1041 1.429 . S
C1025 H1047 0.950 . S
C1026 H1022 0.949 . S
C1026 C1034 1.574 . S
C1026 C1042 1.368 . S
H1027 C1035 0.950 . S
H1028 C1033 0.950 . S
H1029 C1034 0.949 . S
H1030 C1036 0.950 . S
H1031 C1037 0.950 . S
H1032 C1038 0.949 . S
C1033 H1028 0.950 . S
C1033 C1035 1.327 . S
C1033 C1039 1.429 . S
C1034 C1026 1.574 . S
C1034 H1029 0.949 . S
C1034 C1040 1.368 . S
C1035 C1019 1.349 . S
C1035 H1027 0.950 . S
C1035 C1033 1.327 . S
C1036 C1024 1.349 . S
C1036 H1030 0.950 . S
C1036 C1037 1.327 . S
C1037 H1031 0.950 . S
C1037 C1036 1.327 . S
C1037 C1041 1.429 . S
C1038 C1021 1.574 . S
C1038 H1032 0.949 . S
C1038 C1042 1.368 . S
C1039 C1020 1.429 . S
C1039 C1033 1.429 . S
C1039 C1040 1.523 . S
C1040 C1021 1.368 . S
C1040 C1034 1.368 . S
C1040 C1039 1.523 . S
C1041 C1025 1.429 . S
C1041 C1037 1.429 . S
C1041 C1042 1.523 . S
C1042 C1026 1.368 . S
C1042 C1038 1.368 . S
C1042 C1041 1.523 . S
H1043 C1018 0.950 . S
H1044 C1020 0.950 . S
H1045 C1021 0.949 . S
H1046 C1023 0.950 . S
H1047 C1025 0.950 . S
C1048 C1049 1.349 . S
C1048 C1050 1.327 . S
C1048 H1073 0.950 . S
C1049 C1048 1.349 . S
C1049 C1065 1.349 . S
C1050 C1048 1.327 . S
C1050 C1069 1.429 . S
C1050 H1074 0.950 . S
C1051 C1068 1.574 . S
C1051 C1070 1.368 . S
C1051 H1075 0.949 . S
H1052 C1056 0.949 . S
C1053 C1054 1.349 . S
C1053 C1055 1.327 . S
C1053 H1076 0.950 . S
C1054 C1053 1.349 . S
C1054 C1066 1.349 . S
C1055 C1053 1.327 . S
C1055 C1071 1.429 . S
C1055 H1077 0.950 . S
C1056 H1052 0.949 . S
C1056 C1064 1.574 . S
C1056 C1072 1.368 . S
H1057 C1065 0.950 . S
H1058 C1063 0.950 . S
H1059 C1064 0.949 . S
H1060 C1066 0.950 . S
H1061 C1067 0.950 . S
H1062 C1068 0.949 . S
C1063 H1058 0.950 . S
C1063 C1065 1.327 . S
C1063 C1069 1.429 . S
C1064 C1056 1.574 . S
C1064 H1059 0.949 . S
C1064 C1070 1.368 . S
C1065 C1049 1.349 . S
C1065 H1057 0.950 . S
C1065 C1063 1.327 . S
C1066 C1054 1.349 . S
C1066 H1060 0.950 . S
C1066 C1067 1.327 . S
C1067 H1061 0.950 . S
C1067 C1066 1.327 . S
C1067 C1071 1.429 . S
C1068 C1051 1.574 . S
C1068 H1062 0.949 . S
C1068 C1072 1.368 . S
C1069 C1050 1.429 . S
C1069 C1063 1.429 . S
C1069 C1070 1.523 . S
C1070 C1051 1.368 . S
C1070 C1064 1.368 . S
C1070 C1069 1.523 . S
C1071 C1055 1.429 . S
C1071 C1067 1.429 . S
C1071 C1072 1.523 . S
C1072 C1056 1.368 . S
C1072 C1068 1.368 . S
C1072 C1071 1.523 . S
H1073 C1048 0.950 . S
H1074 C1050 0.950 . S
H1075 C1051 0.949 . S
H1076 C1053 0.950 . S
H1077 C1055 0.950 . S
C1078 C1079 1.349 . S
C1078 C1080 1.327 . S
C1078 H1103 0.950 . S
C1079 C1078 1.349 . S
C1079 C1095 1.349 . S
C1080 C1078 1.327 . S
C1080 C1099 1.429 . S
C1080 H1104 0.950 . S
C1081 C1098 1.574 . S
C1081 C1100 1.368 . S
C1081 H1105 0.949 . S
H1082 C1086 0.949 . S
C1083 C1084 1.349 . S
C1083 C1085 1.327 . S
C1083 H1106 0.950 . S
C1084 C1083 1.349 . S
C1084 C1096 1.349 . S
C1085 C1083 1.327 . S
C1085 C1101 1.429 . S
C1085 H1107 0.950 . S
C1086 H1082 0.949 . S
C1086 C1094 1.574 . S
C1086 C1102 1.368 . S
H1087 C1095 0.950 . S
H1088 C1093 0.950 . S
H1089 C1094 0.949 . S
H1090 C1096 0.950 . S
H1091 C1097 0.950 . S
H1092 C1098 0.949 . S
C1093 H1088 0.950 . S
C1093 C1095 1.327 . S
C1093 C1099 1.429 . S
C1094 C1086 1.574 . S
C1094 H1089 0.949 . S
C1094 C1100 1.368 . S
C1095 C1079 1.349 . S
C1095 H1087 0.950 . S
C1095 C1093 1.327 . S
C1096 C1084 1.349 . S
C1096 H1090 0.950 . S
C1096 C1097 1.327 . S
C1097 H1091 0.950 . S
C1097 C1096 1.327 . S
C1097 C1101 1.429 . S
C1098 C1081 1.574 . S
C1098 H1092 0.949 . S
C1098 C1102 1.368 . S
C1099 C1080 1.429 . S
C1099 C1093 1.429 . S
C1099 C1100 1.523 . S
C1100 C1081 1.368 . S
C1100 C1094 1.368 . S
C1100 C1099 1.523 . S
C1101 C1085 1.429 . S
C1101 C1097 1.429 . S
C1101 C1102 1.523 . S
C1102 C1086 1.368 . S
C1102 C1098 1.368 . S
C1102 C1101 1.523 . S
H1103 C1078 0.950 . S
H1104 C1080 0.950 . S
H1105 C1081 0.949 . S
H1106 C1083 0.950 . S
H1107 C1085 0.950 . S
C1108 C1109 1.349 . S
C1108 C1110 1.327 . S
C1108 H1133 0.950 . S
C1109 C1108 1.349 . S
C1109 C1125 1.349 . S
C1110 C1108 1.327 . S
C1110 C1129 1.429 . S
C1110 H1134 0.950 . S
C1111 C1128 1.574 . S
C1111 C1130 1.368 . S
C1111 H1135 0.949 . S
H1112 C1116 0.949 . S
C1113 C1114 1.349 . S
C1113 C1115 1.327 . S
C1113 H1136 0.950 . S
C1114 C1113 1.349 . S
C1114 C1126 1.349 . S
C1115 C1113 1.327 . S
C1115 C1131 1.429 . S
C1115 H1137 0.950 . S
C1116 H1112 0.949 . S
C1116 C1124 1.574 . S
C1116 C1132 1.368 . S
H1117 C1125 0.950 . S
H1118 C1123 0.950 . S
H1119 C1124 0.949 . S
H1120 C1126 0.950 . S
H1121 C1127 0.950 . S
H1122 C1128 0.949 . S
C1123 H1118 0.950 . S
C1123 C1125 1.327 . S
C1123 C1129 1.429 . S
C1124 C1116 1.574 . S
C1124 H1119 0.949 . S
C1124 C1130 1.368 . S
C1125 C1109 1.349 . S
C1125 H1117 0.950 . S
C1125 C1123 1.327 . S
C1126 C1114 1.349 . S
C1126 H1120 0.950 . S
C1126 C1127 1.327 . S
C1127 H1121 0.950 . S
C1127 C1126 1.327 . S
C1127 C1131 1.429 . S
C1128 C1111 1.574 . S
C1128 H1122 0.949 . S
C1128 C1132 1.368 . S
C1129 C1110 1.429 . S
C1129 C1123 1.429 . S
C1129 C1130 1.523 . S
C1130 C1111 1.368 . S
C1130 C1124 1.368 . S
C1130 C1129 1.523 . S
C1131 C1115 1.429 . S
C1131 C1127 1.429 . S
C1131 C1132 1.523 . S
C1132 C1116 1.368 . S
C1132 C1128 1.368 . S
C1132 C1131 1.523 . S
H1133 C1108 0.950 . S
H1134 C1110 0.950 . S
H1135 C1111 0.949 . S
H1136 C1113 0.950 . S
H1137 C1115 0.950 . S
C1138 C1139 1.349 . S
C1138 C1140 1.327 . S
C1138 H1163 0.950 . S
C1139 C1138 1.349 . S
C1139 C1155 1.349 . S
C1140 C1138 1.327 . S
C1140 C1159 1.429 . S
C1140 H1164 0.950 . S
C1141 C1158 1.574 . S
C1141 C1160 1.368 . S
C1141 H1165 0.949 . S
H1142 C1146 0.949 . S
C1143 C1144 1.349 . S
C1143 C1145 1.327 . S
C1143 H1166 0.950 . S
C1144 C1143 1.349 . S
C1144 C1156 1.349 . S
C1145 C1143 1.327 . S
C1145 C1161 1.429 . S
C1145 H1167 0.950 . S
C1146 H1142 0.949 . S
C1146 C1154 1.574 . S
C1146 C1162 1.368 . S
H1147 C1155 0.950 . S
H1148 C1153 0.950 . S
H1149 C1154 0.949 . S
H1150 C1156 0.950 . S
H1151 C1157 0.950 . S
H1152 C1158 0.949 . S
C1153 H1148 0.950 . S
C1153 C1155 1.327 . S
C1153 C1159 1.429 . S
C1154 C1146 1.574 . S
C1154 H1149 0.949 . S
C1154 C1160 1.368 . S
C1155 C1139 1.349 . S
C1155 H1147 0.950 . S
C1155 C1153 1.327 . S
C1156 C1144 1.349 . S
C1156 H1150 0.950 . S
C1156 C1157 1.327 . S
C1157 H1151 0.950 . S
C1157 C1156 1.327 . S
C1157 C1161 1.429 . S
C1158 C1141 1.574 . S
C1158 H1152 0.949 . S
C1158 C1162 1.368 . S
C1159 C1140 1.429 . S
C1159 C1153 1.429 . S
C1159 C1160 1.523 . S
C1160 C1141 1.368 . S
C1160 C1154 1.368 . S
C1160 C1159 1.523 . S
C1161 C1145 1.429 . S
C1161 C1157 1.429 . S
C1161 C1162 1.523 . S
C1162 C1146 1.368 . S
C1162 C1158 1.368 . S
C1162 C1161 1.523 . S
H1163 C1138 0.950 . S
H1164 C1140 0.950 . S
H1165 C1141 0.949 . S
H1166 C1143 0.950 . S
H1167 C1145 0.950 . S
C209 C52 1.073 1_554 S
C214 C0 1.074 1_556 S
C239 C65 1.073 1_554 S
C244 C13 1.074 1_556 S
C269 C78 1.073 1_554 S
C274 C26 1.074 1_556 S
C299 C91 1.073 1_554 S
C304 C39 1.074 1_556 S
C329 C156 1.073 . S
C334 C104 1.073 . S
C359 C169 1.073 . S
C364 C117 1.073 . S
C389 C130 1.073 . S
C394 C182 1.073 . S
C419 C195 1.073 . S
C424 C143 1.073 . S
C449 C5 1.216 . S
C454 C70 1.216 . S
C479 C83 1.216 . S
C484 C18 1.216 . S
C509 C31 1.216 . S
C514 C96 1.216 . S
C539 C57 1.216 . S
C544 C44 1.216 . S
C569 C174 1.216 . S
C574 C109 1.216 . S
C599 C187 1.216 . S
C604 C122 1.216 . S
C629 C135 1.216 . S
C634 C200 1.216 . S
C659 C148 1.216 . S
C664 C161 1.216 . S
C689 C205 1.392 . S
C694 C10 1.390 . S
C719 C166 1.392 . S
C724 C23 1.390 . S
C749 C179 1.392 . S
C754 C36 1.390 . S
C779 C192 1.392 . S
C784 C49 1.390 . S
C809 C127 1.392 . S
C814 C62 1.392 . S
C839 C140 1.392 . S
C844 C75 1.392 . S
C869 C88 1.392 . S
C874 C153 1.392 . S
C899 C101 1.392 . S
C904 C114 1.392 . S
C929 C177 1.431 . S
C934 C34 1.433 . S
C959 C190 1.431 . S
C964 C47 1.433 . S
C989 C203 1.431 . S
C994 C8 1.433 . S
C1019 C21 1.431 . S
C1024 C164 1.433 . S
C1049 C151 1.431 . S
C1054 C86 1.430 . S
C1079 C99 1.431 . S
C1084 C112 1.430 . S
C1109 C125 1.431 . S
C1114 C60 1.430 . S
C1139 C138 1.431 . S
C1144 C73 1.430 . S
