# Generated by pormake.
# Topology bcs, (6)-cn, num edge types: 1
# Building blocks:
#     Node 0, Type 0, BuildingBlock: BETFAJ_clean_sbu_0, # of connection points: 6
#     Node 1, Type 0, BuildingBlock: BETFAJ_clean_sbu_0, # of connection points: 6
#     Node 2, Type 0, BuildingBlock: BETFAJ_clean_sbu_0, # of connection points: 6
#     Node 3, Type 0, BuildingBlock: BETFAJ_clean_sbu_0, # of connection points: 6
#     Node 4, Type 0, BuildingBlock: BETFAJ_clean_sbu_0, # of connection points: 6
#     Node 5, Type 0, BuildingBlock: BETFAJ_clean_sbu_0, # of connection points: 6
#     Node 6, Type 0, BuildingBlock: BETFAJ_clean_sbu_0, # of connection points: 6
#     Node 7, Type 0, BuildingBlock: BETFAJ_clean_sbu_0, # of connection points: 6
#     Node 8, Type 0, BuildingBlock: BETFAJ_clean_sbu_0, # of connection points: 6
#     Node 9, Type 0, BuildingBlock: BETFAJ_clean_sbu_0, # of connection points: 6
#     Node 10, Type 0, BuildingBlock: BETFAJ_clean_sbu_0, # of connection points: 6
#     Node 11, Type 0, BuildingBlock: BETFAJ_clean_sbu_0, # of connection points: 6
#     Node 12, Type 0, BuildingBlock: BETFAJ_clean_sbu_0, # of connection points: 6
#     Node 13, Type 0, BuildingBlock: BETFAJ_clean_sbu_0, # of connection points: 6
#     Node 14, Type 0, BuildingBlock: BETFAJ_clean_sbu_0, # of connection points: 6
#     Node 15, Type 0, BuildingBlock: BETFAJ_clean_sbu_0, # of connection points: 6
#     Edge 16, Type (0, 0), BuildingBlock: OJICUG_clean_linker_0, # of connection points: 2
#     Edge 17, Type (0, 0), BuildingBlock: OJICUG_clean_linker_0, # of connection points: 2
#     Edge 18, Type (0, 0), BuildingBlock: OJICUG_clean_linker_0, # of connection points: 2
#     Edge 19, Type (0, 0), BuildingBlock: OJICUG_clean_linker_0, # of connection points: 2
#     Edge 20, Type (0, 0), BuildingBlock: OJICUG_clean_linker_0, # of connection points: 2
#     Edge 21, Type (0, 0), BuildingBlock: OJICUG_clean_linker_0, # of connection points: 2
#     Edge 22, Type (0, 0), BuildingBlock: OJICUG_clean_linker_0, # of connection points: 2
#     Edge 23, Type (0, 0), BuildingBlock: OJICUG_clean_linker_0, # of connection points: 2
#     Edge 24, Type (0, 0), BuildingBlock: OJICUG_clean_linker_0, # of connection points: 2
#     Edge 25, Type (0, 0), BuildingBlock: OJICUG_clean_linker_0, # of connection points: 2
#     Edge 26, Type (0, 0), BuildingBlock: OJICUG_clean_linker_0, # of connection points: 2
#     Edge 27, Type (0, 0), BuildingBlock: OJICUG_clean_linker_0, # of connection points: 2
#     Edge 28, Type (0, 0), BuildingBlock: OJICUG_clean_linker_0, # of connection points: 2
#     Edge 29, Type (0, 0), BuildingBlock: OJICUG_clean_linker_0, # of connection points: 2
#     Edge 30, Type (0, 0), BuildingBlock: OJICUG_clean_linker_0, # of connection points: 2
#     Edge 31, Type (0, 0), BuildingBlock: OJICUG_clean_linker_0, # of connection points: 2
#     Edge 32, Type (0, 0), BuildingBlock: OJICUG_clean_linker_0, # of connection points: 2
#     Edge 33, Type (0, 0), BuildingBlock: OJICUG_clean_linker_0, # of connection points: 2
#     Edge 34, Type (0, 0), BuildingBlock: OJICUG_clean_linker_0, # of connection points: 2
#     Edge 35, Type (0, 0), BuildingBlock: OJICUG_clean_linker_0, # of connection points: 2
#     Edge 36, Type (0, 0), BuildingBlock: OJICUG_clean_linker_0, # of connection points: 2
#     Edge 37, Type (0, 0), BuildingBlock: OJICUG_clean_linker_0, # of connection points: 2
#     Edge 38, Type (0, 0), BuildingBlock: OJICUG_clean_linker_0, # of connection points: 2
#     Edge 39, Type (0, 0), BuildingBlock: OJICUG_clean_linker_0, # of connection points: 2
#     Edge 40, Type (0, 0), BuildingBlock: OJICUG_clean_linker_0, # of connection points: 2
#     Edge 41, Type (0, 0), BuildingBlock: OJICUG_clean_linker_0, # of connection points: 2
#     Edge 42, Type (0, 0), BuildingBlock: OJICUG_clean_linker_0, # of connection points: 2
#     Edge 43, Type (0, 0), BuildingBlock: OJICUG_clean_linker_0, # of connection points: 2
#     Edge 44, Type (0, 0), BuildingBlock: OJICUG_clean_linker_0, # of connection points: 2
#     Edge 45, Type (0, 0), BuildingBlock: OJICUG_clean_linker_0, # of connection points: 2
#     Edge 46, Type (0, 0), BuildingBlock: OJICUG_clean_linker_0, # of connection points: 2
#     Edge 47, Type (0, 0), BuildingBlock: OJICUG_clean_linker_0, # of connection points: 2
#     Edge 48, Type (0, 0), BuildingBlock: OJICUG_clean_linker_0, # of connection points: 2
#     Edge 49, Type (0, 0), BuildingBlock: OJICUG_clean_linker_0, # of connection points: 2
#     Edge 50, Type (0, 0), BuildingBlock: OJICUG_clean_linker_0, # of connection points: 2
#     Edge 51, Type (0, 0), BuildingBlock: OJICUG_clean_linker_0, # of connection points: 2
#     Edge 52, Type (0, 0), BuildingBlock: OJICUG_clean_linker_0, # of connection points: 2
#     Edge 53, Type (0, 0), BuildingBlock: OJICUG_clean_linker_0, # of connection points: 2
#     Edge 54, Type (0, 0), BuildingBlock: OJICUG_clean_linker_0, # of connection points: 2
#     Edge 55, Type (0, 0), BuildingBlock: OJICUG_clean_linker_0, # of connection points: 2
#     Edge 56, Type (0, 0), BuildingBlock: OJICUG_clean_linker_0, # of connection points: 2
#     Edge 57, Type (0, 0), BuildingBlock: OJICUG_clean_linker_0, # of connection points: 2
#     Edge 58, Type (0, 0), BuildingBlock: OJICUG_clean_linker_0, # of connection points: 2
#     Edge 59, Type (0, 0), BuildingBlock: OJICUG_clean_linker_0, # of connection points: 2
#     Edge 60, Type (0, 0), BuildingBlock: OJICUG_clean_linker_0, # of connection points: 2
#     Edge 61, Type (0, 0), BuildingBlock: OJICUG_clean_linker_0, # of connection points: 2
#     Edge 62, Type (0, 0), BuildingBlock: OJICUG_clean_linker_0, # of connection points: 2
#     Edge 63, Type (0, 0), BuildingBlock: OJICUG_clean_linker_0, # of connection points: 2
# Relax obj value: 0.230
# Max RMSD: 0.259
# Mean RMSD: 0.219
data_MOF--net-bcs--node1-BETFAJ_clean_sbu_0--edge1-OJICUG_clean_linker_0
_symmetry_space_group_name_H-M    P1
_symmetry_Int_Tables_number       1
_symmetry_cell_setting            triclinic
loop_
_symmetry_equiv_pos_as_xyz
'x, y, z'
_cell_length_a     35.033958
_cell_length_b     34.524877
_cell_length_c     31.531898
_cell_angle_alpha  68.599209
_cell_angle_beta   116.89168
_cell_angle_gamma 128.56741
loop_
_atom_site_label
_atom_site_type_symbol
_atom_site_fract_x
_atom_site_fract_y
_atom_site_fract_z
_atom_type_partial_charge
Sm0 Sm 1.04436 0.95241 1.00399 0.0
Sm1 Sm 0.06172 0.04337 0.03323 0.0
C2 C 1.04483 0.89341 0.9694 0.0
C3 C 0.07327 0.88574 0.95364 0.0
C4 C 0.12607 0.9059 0.97594 0.0
C5 C 0.15012 0.8904 0.96689 0.0
C6 C 0.12172 0.85426 0.93555 0.0
C7 C 0.06945 0.8362 0.91153 0.0
C8 C 1.04555 0.85178 0.92051 0.0
C9 C 0.99936 0.91505 0.07708 0.0
C10 C 0.15517 0.03134 0.07477 0.0
C11 C 0.06217 0.1037 0.06667 0.0
C12 C 1.03489 0.11279 0.08232 0.0
C13 C 0.98125 0.08818 0.06491 0.0
C14 C 0.95718 0.10394 0.07353 0.0
C15 C 0.98638 0.14473 0.09955 0.0
C16 C 1.04 0.16788 0.11829 0.0
C17 C 0.06387 0.15199 0.10982 0.0
C18 C 0.10635 0.0802 0.95991 0.0
C19 C 0.95117 0.96549 0.96253 0.0
O20 O 1.028 0.92212 0.94161 0.0
O21 O 0.06005 0.8962 1.01516 0.0
O22 O 1.02317 0.96021 0.05844 0.0
O23 O 1.00108 0.88924 0.05767 0.0
O24 O 0.1304 0.00135 0.04194 0.0
O25 O 0.13363 0.04537 0.08558 0.0
O26 O 0.07881 0.07494 0.09495 0.0
O27 O 1.0459 0.0997 0.02107 0.0
O28 O 0.08262 0.03526 0.97888 0.0
O29 O 0.10474 0.10626 0.9791 0.0
O30 O 0.97582 0.99447 0.9962 0.0
O31 O 0.97271 0.95152 0.95153 0.0
H32 H 0.14817 0.932 1.00183 0.0
H33 H 0.19034 0.90496 0.98615 0.0
H34 H 1.04664 0.80905 0.88654 0.0
H35 H 1.00475 0.83557 0.90306 0.0
H36 H 0.95819 0.05793 0.04337 0.0
H37 H 0.91581 0.08469 0.05912 0.0
H38 H 0.06402 0.19987 0.13774 0.0
H39 H 0.10538 0.17195 0.12297 0.0
Sm40 Sm 0.33824 0.73631 0.29256 0.0
Sm41 Sm 0.28039 0.78074 0.23638 0.0
C42 C 0.39584 0.70168 0.34741 0.0
C43 C 0.37974 0.64953 0.36013 0.0
C44 C 0.39827 0.63253 0.40735 0.0
C45 C 0.38352 0.58305 0.41942 0.0
C46 C 0.35009 0.5499 0.38426 0.0
C47 C 0.32925 0.56635 0.33755 0.0
C48 C 0.34378 0.61582 0.32559 0.0
C49 C 0.25324 0.68102 0.22034 0.0
C50 C 0.23766 0.69161 0.31634 0.0
C51 C 0.23326 0.82238 0.16861 0.0
C52 C 0.2509 0.87471 0.15903 0.0
C53 C 0.23326 0.89437 0.11304 0.0
C54 C 0.24657 0.9431 0.10502 0.0
C55 C 0.27722 0.97251 0.14316 0.0
C56 C 0.29853 0.95398 0.1883 0.0
C57 C 0.2857 0.90533 0.19611 0.0
C58 C 0.33938 0.81443 0.32452 0.0
C59 C 0.38754 0.83315 0.21702 0.0
O60 O 0.37849 0.71465 0.3651 0.0
O61 O 0.39296 0.71906 0.30241 0.0
O62 O 0.28391 0.72738 0.21673 0.0
O63 O 0.26706 0.66145 0.26326 0.0
O64 O 0.28587 0.70566 0.33632 0.0
O65 O 0.22163 0.70792 0.27123 0.0
O66 O 0.26014 0.81296 0.16097 0.0
O67 O 0.22243 0.7992 0.20874 0.0
O68 O 0.35468 0.80855 0.29934 0.0
O69 O 0.29424 0.80654 0.30189 0.0
O70 O 0.35179 0.83906 0.21137 0.0
O71 O 0.3905 0.79591 0.24624 0.0
H72 H 0.42519 0.65781 0.43455 0.0
H73 H 0.40121 0.57181 0.45561 0.0
H74 H 0.30382 0.54164 0.3099 0.0
H75 H 0.328 0.62797 0.28899 0.0
H76 H 0.20736 0.8714 0.08394 0.0
H77 H 0.22899 0.95601 0.06984 0.0
H78 H 0.32216 0.97584 0.21812 0.0
H79 H 0.30093 0.89083 0.23166 0.0
Sm80 Sm 0.53769 0.98114 0.5581 0.0
Sm81 Sm 0.56776 0.01083 0.47979 0.0
C82 C 0.52178 0.97856 0.63392 0.0
C83 C 0.49951 0.99544 0.64748 0.0
C84 C 0.53241 0.03813 0.67133 0.0
C85 C 0.51262 0.05479 0.68491 0.0
C86 C 0.45946 0.02891 0.67535 0.0
C87 C 0.42644 0.98568 0.65217 0.0
C88 C 0.44628 0.96912 0.63825 0.0
C89 C 0.46825 0.91419 0.49284 0.0
C90 C 0.49339 0.05956 0.45837 0.0
C91 C 0.58316 0.01472 0.40295 0.0
C92 C 0.60591 0.00106 0.38611 0.0
C93 C 0.57334 0.96656 0.35264 0.0
C94 C 0.59314 0.95292 0.33527 0.0
C95 C 0.64614 0.97376 0.35074 0.0
C96 C 0.67893 0.00865 0.38408 0.0
C97 C 0.659 0.02227 0.4016 0.0
C98 C 0.63736 0.07763 0.54544 0.0
C99 C 0.61113 0.9316 0.57945 0.0
O100 O 0.56368 0.01367 0.62211 0.0
O101 O 0.49066 0.94205 0.60732 0.0
O102 O 0.48824 0.96038 0.48415 0.0
O103 O 0.48614 0.90073 0.53763 0.0
O104 O 0.5001 0.03745 0.50594 0.0
O105 O 0.51613 0.05199 0.43896 0.0
O106 O 0.54283 0.9777 0.41651 0.0
O107 O 0.61367 0.05135 0.42933 0.0
O108 O 0.61734 0.03143 0.55391 0.0
O109 O 0.61953 0.09114 0.50067 0.0
O110 O 0.60497 0.95418 0.532 0.0
O111 O 0.58832 0.93907 0.59885 0.0
H112 H 0.57365 0.05868 0.6797 0.0
H113 H 0.53911 0.08754 0.70369 0.0
H114 H 0.38528 0.96498 0.64438 0.0
H115 H 0.41996 0.93584 0.62029 0.0
H116 H 0.53229 0.94992 0.33994 0.0
H117 H 0.56671 0.92542 0.3102 0.0
H118 H 0.72001 0.02578 0.39626 0.0
H119 H 0.68509 0.04931 0.42711 0.0
Sm120 Sm 0.31451 0.21208 0.78609 0.0
Sm121 Sm 0.28644 0.28022 0.74828 0.0
C122 C 0.3387 0.14685 0.8058 0.0
C123 C 0.35788 0.13223 0.78584 0.0
C124 C 0.36175 0.15119 0.73933 0.0
C125 C 0.3783 0.13525 0.7203 0.0
C126 C 0.39092 0.10001 0.74751 0.0
C127 C 0.38797 0.082 0.79445 0.0
C128 C 0.37144 0.09794 0.81341 0.0
C129 C 0.36832 0.28192 0.84917 0.0
C130 C 0.37008 0.30711 0.70676 0.0
C131 C 0.26079 0.34429 0.72875 0.0
C132 C 0.24241 0.35898 0.74976 0.0
C133 C 0.2472 0.34683 0.79868 0.0
C134 C 0.23171 0.36334 0.81839 0.0
C135 C 0.21131 0.39241 0.78949 0.0
C136 C 0.20518 0.40297 0.74011 0.0
C137 C 0.22078 0.38655 0.72054 0.0
C138 C 0.23253 0.21007 0.68546 0.0
C139 C 0.23223 0.18592 0.82867 0.0
O140 O 0.29269 0.1376 0.78198 0.0
O141 O 0.37088 0.1904 0.82145 0.0
O142 O 0.36127 0.2918 0.80443 0.0
O143 O 0.34501 0.23415 0.86132 0.0
O144 O 0.35578 0.26047 0.72604 0.0
O145 O 0.35201 0.32721 0.71413 0.0
O146 O 0.30746 0.35486 0.75076 0.0
O147 O 0.2287 0.30019 0.71427 0.0
O148 O 0.23954 0.20046 0.73019 0.0
O149 O 0.25613 0.25784 0.67321 0.0
O150 O 0.24667 0.2326 0.80947 0.0
O151 O 0.24946 0.16546 0.82058 0.0
H152 H 0.3513 0.17768 0.71761 0.0
H153 H 0.38006 0.14955 0.68397 0.0
H154 H 0.39818 0.05537 0.81639 0.0
H155 H 0.36881 0.08316 0.84947 0.0
H156 H 0.26379 0.32542 0.82176 0.0
H157 H 0.2376 0.35488 0.85658 0.0
H158 H 0.18836 0.42401 0.71643 0.0
H159 H 0.2164 0.39582 0.68256 0.0
Sm160 Sm 0.09603 0.99834 0.54991 0.0
Sm161 Sm 1.00354 0.9934 0.48539 0.0
C162 C 0.17731 0.01857 0.62591 0.0
C163 C 0.18645 0.99434 0.6744 0.0
C164 C 0.23664 0.01519 0.70555 0.0
C165 C 0.25001 0.98395 0.74176 0.0
C166 C 0.21364 0.93223 0.74392 0.0
C167 C 0.16145 0.9141 0.72135 0.0
C168 C 0.14779 0.94529 0.68557 0.0
C169 C 1.02929 0.91939 0.49501 0.0
C170 C 0.99371 0.93238 0.59019 0.0
C171 C 0.92078 0.97319 0.41059 0.0
C172 C 0.90941 0.99658 0.36201 0.0
C173 C 0.85878 0.98283 0.33714 0.0
C174 C 0.84959 0.01773 0.30315 0.0
C175 C 0.89143 0.06642 0.29621 0.0
C176 C 0.94047 0.07563 0.31234 0.0
C177 C 0.94969 0.04067 0.3461 0.0
C178 C 0.0712 0.07256 0.54057 0.0
C179 C 0.10606 0.05824 0.44521 0.0
O180 O 0.14985 0.03627 0.61519 0.0
O181 O 0.16404 0.99445 0.59262 0.0
O182 O 1.01797 0.93286 0.51723 0.0
O183 O 0.07874 0.94704 0.50278 0.0
O184 O 1.04389 0.95385 0.60118 0.0
O185 O 0.9672 0.93825 0.54535 0.0
O186 O 0.94812 0.95567 0.42009 0.0
O187 O 0.93577 0.99804 0.44405 0.0
O188 O 0.08174 0.05898 0.51769 0.0
O189 O 1.02188 0.04461 0.53361 0.0
O190 O 0.05582 0.03686 0.43413 0.0
O191 O 0.13261 0.05283 0.49015 0.0
H192 H 0.26648 0.05354 0.69794 0.0
H193 H 0.29017 0.99847 0.76072 0.0
H194 H 0.13249 0.87438 0.72385 0.0
H195 H 0.1085 0.92914 0.66233 0.0
H196 H 0.82741 0.94845 0.34879 0.0
H197 H 0.81134 0.01007 0.29015 0.0
H198 H 0.97303 0.11282 0.30647 0.0
H199 H 0.98894 0.05127 0.36453 0.0
Sm200 Sm 0.30764 0.73612 0.81355 0.0
Sm201 Sm 0.33782 0.79317 0.72186 0.0
C202 C 0.28091 0.71335 0.88966 0.0
C203 C 0.25712 0.7307 0.90085 0.0
C204 C 0.28756 0.76943 0.9296 0.0
C205 C 0.26596 0.78901 0.93641 0.0
C206 C 0.21331 0.77034 0.91469 0.0
C207 C 0.18272 0.73078 0.88688 0.0
C208 C 0.20423 0.71111 0.88024 0.0
C209 C 0.25118 0.67928 0.73956 0.0
C210 C 0.26703 0.80853 0.74019 0.0
C211 C 0.36397 0.81499 0.64577 0.0
C212 C 0.38472 0.79483 0.63395 0.0
C213 C 0.3518 0.75046 0.61254 0.0
C214 C 0.37168 0.72859 0.60668 0.0
C215 C 0.42501 0.7505 0.62203 0.0
C216 C 0.45789 0.79573 0.642 0.0
C217 C 0.43804 0.81762 0.64776 0.0
C218 C 0.39443 0.85048 0.79534 0.0
C219 C 0.37562 0.71808 0.79478 0.0
O220 O 0.32816 0.74637 0.88838 0.0
O221 O 0.25221 0.68526 0.85496 0.0
O222 O 0.26445 0.72382 0.73488 0.0
O223 O 0.26468 0.66272 0.78437 0.0
O224 O 0.27841 0.78653 0.78329 0.0
O225 O 0.28057 0.81226 0.70531 0.0
O226 O 0.3162 0.78468 0.64611 0.0
O227 O 0.39433 0.84177 0.68161 0.0
O228 O 0.38107 0.8058 0.80043 0.0
O229 O 0.38103 0.86681 0.75043 0.0
O230 O 0.36405 0.73983 0.75146 0.0
O231 O 0.36509 0.71769 0.83019 0.0
H232 H 0.32836 0.78523 0.94623 0.0
H233 H 0.2906 0.81879 0.9588 0.0
H234 H 0.14221 0.71575 0.86905 0.0
H235 H 0.17943 0.6813 0.85784 0.0
H236 H 0.31053 0.7319 0.60126 0.0
H237 H 0.34513 0.69432 0.59025 0.0
H238 H 0.49911 0.81358 0.65473 0.0
H239 H 0.46462 0.85167 0.66454 0.0
Sm240 Sm 0.5824 0.976 0.0339 0.0
Sm241 Sm 0.54781 0.04698 1.00308 0.0
C242 C 0.6076 0.91503 0.04074 0.0
C243 C 0.63105 0.90623 0.01897 0.0
C244 C 0.60016 0.87314 0.98418 0.0
C245 C 0.62196 0.86144 0.96688 0.0
C246 C 0.67513 0.88226 0.98423 0.0
C247 C 0.70603 0.91597 0.01846 0.0
C248 C 0.68428 0.92763 0.03573 0.0
C249 C 0.63264 0.04201 0.09828 0.0
C250 C 0.62483 0.07387 0.95293 0.0
C251 C 0.52073 0.10659 0.99576 0.0
C252 C 0.49549 0.11372 1.01696 0.0
C253 C 0.52496 0.14833 0.05005 0.0
C254 C 0.5013 0.15817 0.06692 0.0
C255 C 0.44757 0.13395 0.05078 0.0
C256 C 0.41815 0.09887 0.01818 0.0
C257 C 0.44175 0.08901 1.00139 0.0
C258 C 0.49791 0.98009 0.93954 0.0
C259 C 0.50458 0.94886 0.08321 0.0
O260 O 0.5619 0.90691 1.01654 0.0
O261 O 0.63777 0.95364 0.0645 0.0
O262 O 0.62174 0.05331 0.0532 0.0
O263 O 0.61948 0.99604 0.11014 0.0
O264 O 0.61638 0.0292 0.97229 0.0
O265 O 0.60771 0.09307 0.96345 0.0
O266 O 0.56651 0.11514 0.02077 0.0
O267 O 0.49182 0.06862 0.9714 0.0
O268 O 0.50861 0.96958 0.98456 0.0
O269 O 0.51091 0.02601 0.92696 0.0
O270 O 0.51395 0.99394 0.06478 0.0
O271 O 0.5213 0.92971 0.07202 0.0
H272 H 0.55894 0.8554 0.97099 0.0
H273 H 0.5969 0.83495 0.94092 0.0
H274 H 0.74719 0.93337 0.03208 0.0
H275 H 0.70925 0.95286 0.06288 0.0
H276 H 0.56646 0.16858 0.06225 0.0
H277 H 0.52523 0.18575 0.09164 0.0
H278 H 0.37667 0.07889 1.00554 0.0
H279 H 0.41773 0.06246 0.97559 0.0
Sm280 Sm 0.2728 0.21649 0.23625 0.0
Sm281 Sm 0.33079 0.27392 0.30205 0.0
C282 C 0.24499 0.17 0.16641 0.0
C283 C 0.2753 0.16584 0.14922 0.0
C284 C 0.28004 0.18772 0.10311 0.0
C285 C 0.31161 0.18767 0.08749 0.0
C286 C 0.33885 0.16503 0.11734 0.0
C287 C 0.33388 0.14306 0.16358 0.0
C288 C 0.30277 0.14366 0.17936 0.0
C289 C 0.21881 0.17681 0.30143 0.0
C290 C 0.36717 0.1872 0.33184 0.0
C291 C 0.36276 0.32333 0.37145 0.0
C292 C 0.33685 0.3337 0.38808 0.0
C293 C 0.33267 0.31463 0.43453 0.0
C294 C 0.30483 0.32037 0.44982 0.0
C295 C 0.28092 0.34602 0.41922 0.0
C296 C 0.28567 0.3655 0.37275 0.0
C297 C 0.31306 0.35926 0.35733 0.0
C298 C 0.38362 0.31275 0.23606 0.0
C299 C 0.23578 0.30257 0.20682 0.0
O300 O 0.25471 0.2145 0.15943 0.0
O301 O 0.23929 0.14702 0.20848 0.0
O302 O 0.26555 0.19336 0.31157 0.0
O303 O 0.19857 0.18074 0.25513 0.0
O304 O 0.33115 0.18062 0.28663 0.0
O305 O 0.37357 0.22381 0.34751 0.0
O306 O 0.34731 0.27675 0.37816 0.0
O307 O 0.37013 0.34528 0.3298 0.0
O308 O 0.33735 0.2971 0.2267 0.0
O309 O 0.40401 0.30765 0.28222 0.0
O310 O 0.27178 0.30915 0.25207 0.0
O311 O 0.22965 0.26623 0.19098 0.0
H312 H 0.25986 0.20566 0.07929 0.0
H313 H 0.31482 0.20579 0.05201 0.0
H314 H 0.35286 0.12403 0.18742 0.0
H315 H 0.30021 0.1265 0.21518 0.0
H316 H 0.35021 0.29434 0.45883 0.0
H317 H 0.30156 0.30392 0.4855 0.0
H318 H 0.26921 0.38665 0.34835 0.0
H319 H 0.31542 0.37443 0.32124 0.0
Sm320 Sm 0.59628 0.49728 0.05025 0.0
Sm321 Sm 0.50433 0.49412 0.98642 0.0
C322 C 0.67849 0.51707 0.1252 0.0
C323 C 0.68911 0.49525 0.17459 0.0
C324 C 0.74 0.51645 0.2041 0.0
C325 C 0.75359 0.48643 0.24227 0.0
C326 C 0.71641 0.43507 0.24799 0.0
C327 C 0.66431 0.41788 0.2268 0.0
C328 C 0.65054 0.4479 0.18894 0.0
C329 C 0.52821 0.41926 0.9941 0.0
C330 C 0.49459 0.43274 0.0911 0.0
C331 C 0.42192 0.47559 0.91171 0.0
C332 C 0.41143 0.49856 0.86274 0.0
C333 C 0.36059 0.482 0.83511 0.0
C334 C 0.35008 0.51466 0.79815 0.0
C335 C 0.39068 0.56441 0.79173 0.0
C336 C 0.44111 0.57633 0.81112 0.0
C337 C 0.45166 0.54351 0.84763 0.0
C338 C 0.57304 0.57234 0.0426 0.0
C339 C 0.60614 0.5578 0.94563 0.0
O340 O 0.65312 0.53714 0.114 0.0
O341 O 0.66222 0.49001 0.09313 0.0
O342 O 0.51755 0.43275 1.01703 0.0
O343 O 0.57761 0.44647 1.00164 0.0
O344 O 0.54459 0.45341 0.10185 0.0
O345 O 0.46811 0.43925 0.04645 0.0
O346 O 0.44712 0.45558 0.92189 0.0
O347 O 0.43854 0.50188 0.94463 0.0
O348 O 0.5831 0.55873 0.01922 0.0
O349 O 0.52376 0.54494 0.03569 0.0
O350 O 0.55616 0.5373 0.93488 0.0
O351 O 0.63262 0.55146 0.9903 0.0
H352 H 0.76977 0.55354 0.19382 0.0
H353 H 0.79392 0.50047 0.2597 0.0
H354 H 0.63482 0.37867 0.23207 0.0
H355 H 0.61078 0.43164 0.167 0.0
H356 H 0.32938 0.44694 0.84617 0.0
H357 H 0.31076 0.50446 0.78213 0.0
H358 H 0.47297 0.61414 0.80548 0.0
H359 H 0.4912 0.55626 0.86815 0.0
Sm360 Sm 0.79994 0.22951 0.31783 0.0
Sm361 Sm 0.82521 0.28487 0.2234 0.0
C362 C 0.7767 0.20763 0.39585 0.0
C363 C 0.75269 0.22439 0.40749 0.0
C364 C 0.7831 0.2679 0.4297 0.0
C365 C 0.7604 0.28687 0.43549 0.0
C366 C 0.7067 0.26284 0.41927 0.0
C367 C 0.6763 0.21841 0.39849 0.0
C368 C 0.69895 0.19934 0.3929 0.0
C369 C 0.74244 0.17052 0.24543 0.0
C370 C 0.75587 0.2996 0.24498 0.0
C371 C 0.84711 0.30507 0.14507 0.0
C372 C 0.86518 0.28358 0.13123 0.0
C373 C 0.83054 0.23796 0.11162 0.0
C374 C 0.84856 0.2149 0.10454 0.0
C375 C 0.90153 0.23678 0.11717 0.0
C376 C 0.93601 0.28323 0.13498 0.0
C377 C 0.91808 0.30643 0.14171 0.0
C378 C 0.88228 0.34445 0.29506 0.0
C379 C 0.8703 0.21596 0.29714 0.0
O380 O 0.8232 0.24144 0.39269 0.0
O381 O 0.74733 0.17835 0.36207 0.0
O382 O 0.75444 0.21465 0.24014 0.0
O383 O 0.758 0.15531 0.29028 0.0
O384 O 0.7687 0.27843 0.28819 0.0
O385 O 0.76729 0.30204 0.20914 0.0
O386 O 0.79994 0.27591 0.14695 0.0
O387 O 0.87953 0.33168 0.18102 0.0
O388 O 0.87066 0.30034 0.30093 0.0
O389 O 0.86725 0.35941 0.24998 0.0
O390 O 0.85474 0.23434 0.25323 0.0
O391 O 0.86072 0.21589 0.3331 0.0
H392 H 0.82459 0.28801 0.4417 0.0
H393 H 0.78507 0.32054 0.4526 0.0
H394 H 0.63489 0.19901 0.38513 0.0
H395 H 0.67421 0.16565 0.37578 0.0
H396 H 0.78954 0.21924 0.10306 0.0
H397 H 0.82106 0.17909 0.09078 0.0
H398 H 0.97704 0.30146 0.14423 0.0
H399 H 0.94586 0.34159 0.15664 0.0
Sm400 Sm 0.08195 0.4785 0.53156 0.0
Sm401 Sm 1.04339 0.54507 0.50113 0.0
C402 C 0.11107 0.42057 0.53916 0.0
C403 C 0.13509 0.41253 0.51741 0.0
C404 C 0.10461 0.37816 0.48391 0.0
C405 C 0.1271 0.36704 0.46693 0.0
C406 C 0.18058 0.38973 0.48334 0.0
C407 C 0.21106 0.42472 0.51622 0.0
C408 C 0.18862 0.43583 0.53317 0.0
C409 C 0.13258 0.54639 0.59436 0.0
C410 C 0.11987 0.57503 0.4488 0.0
C411 C 1.01455 0.60305 0.49412 0.0
C412 C 0.98795 0.60865 0.51494 0.0
C413 C 1.01622 0.64078 0.55015 0.0
C414 C 0.99149 0.64918 0.56705 0.0
C415 C 0.9379 0.62593 0.54889 0.0
C416 C 0.90963 0.59339 0.51405 0.0
C417 C 0.93432 0.58501 0.49715 0.0
C418 C 0.99339 0.4775 0.43832 0.0
C419 C 1.00362 0.44698 0.58245 0.0
O420 O 0.06447 0.41022 0.51571 0.0
O421 O 0.14029 0.45997 0.5616 0.0
O422 O 0.11992 0.55623 0.54916 0.0
O423 O 0.12018 0.50068 0.60712 0.0
O424 O 0.11276 0.53087 0.46812 0.0
O425 O 0.10208 0.59299 0.46004 0.0
O426 O 0.0601 0.61149 0.52006 0.0
O427 O 0.98675 0.56602 0.4688 0.0
O428 O 1.00565 0.46762 0.48349 0.0
O429 O 1.00528 0.52306 0.42544 0.0
O430 O 1.00994 0.49085 0.56295 0.0
O431 O 1.02297 0.43011 0.5721 0.0
H432 H 0.0632 0.35895 0.47157 0.0
H433 H 0.1024 0.33953 0.44202 0.0
H434 H 0.25241 0.4435 0.52908 0.0
H435 H 0.21329 0.46208 0.55934 0.0
H436 H 0.05765 0.66021 0.56406 0.0
H437 H 1.01456 0.67492 0.59347 0.0
H438 H 0.86825 0.57427 0.49975 0.0
H439 H 0.91131 0.56046 0.46963 0.0
Sm440 Sm 0.81755 0.71173 0.28738 0.0
Sm441 Sm 0.78907 0.77999 0.25008 0.0
C442 C 0.84233 0.64677 0.30774 0.0
C443 C 0.86167 0.63098 0.28925 0.0
C444 C 0.86115 0.64458 0.2414 0.0
C445 C 0.87687 0.62647 0.22389 0.0
C446 C 0.89341 0.59464 0.25405 0.0
C447 C 0.89534 0.58247 0.30235 0.0
C448 C 0.87939 0.60038 0.31972 0.0
C449 C 0.87109 0.78147 0.35046 0.0
C450 C 0.87194 0.80668 0.20746 0.0
C451 C 0.76575 0.84613 0.22955 0.0
C452 C 0.74831 0.86422 0.2477 0.0
C453 C 0.73995 0.84468 0.29244 0.0
C454 C 0.7242 0.8634 0.30917 0.0
C455 C 0.71677 0.90198 0.2814 0.0
C456 C 0.72518 0.92122 0.23653 0.0
C457 C 0.74087 0.90249 0.21989 0.0
C458 C 0.73512 0.70989 0.18715 0.0
C459 C 0.73483 0.685 0.33014 0.0
O460 O 0.7963 0.63738 0.28357 0.0
O461 O 0.87443 0.69059 0.32283 0.0
O462 O 0.86395 0.79134 0.30573 0.0
O463 O 0.84799 0.73372 0.36264 0.0
O464 O 0.858 0.7601 0.22668 0.0
O465 O 0.85411 0.82662 0.21546 0.0
O466 O 0.81172 0.85523 0.25299 0.0
O467 O 0.73265 0.80159 0.21594 0.0
O468 O 0.74247 0.70026 0.23193 0.0
O469 O 0.75823 0.75762 0.17488 0.0
O470 O 0.74892 0.73168 0.31105 0.0
O471 O 0.75237 0.66493 0.32187 0.0
H472 H 0.84777 0.66842 0.21747 0.0
H473 H 0.87564 0.63696 0.18668 0.0
H474 H 0.90755 0.55777 0.32631 0.0
H475 H 0.88003 0.5896 0.35679 0.0
H476 H 0.74564 0.81511 0.31433 0.0
H477 H 0.71749 0.84745 0.34364 0.0
H478 H 0.72051 0.95137 0.2146 0.0
H479 H 0.7475 0.91813 0.18536 0.0
Sm480 Sm 0.84088 0.23279 0.79039 0.0
Sm481 Sm 0.77323 0.26678 0.73189 0.0
C482 C 0.88999 0.19338 0.85874 0.0
C483 C 0.87255 0.14095 0.86943 0.0
C484 C 0.8909 0.12199 0.91561 0.0
C485 C 0.87662 0.07275 0.92464 0.0
C486 C 0.84407 0.04204 0.88742 0.0
C487 C 0.823 0.06027 0.84195 0.0
C488 C 0.83679 0.10937 0.83313 0.0
C489 C 0.77533 0.18771 0.70767 0.0
C490 C 0.73438 0.18087 0.8136 0.0
C491 C 0.724 0.30491 0.66156 0.0
C492 C 0.74328 0.35776 0.64883 0.0
C493 C 0.72012 0.37492 0.6043 0.0
C494 C 0.73443 0.42417 0.59537 0.0
C495 C 0.77152 0.45642 0.63122 0.0
C496 C 0.79785 0.44021 0.67417 0.0
C497 C 0.78412 0.39117 0.68273 0.0
C498 C 0.83836 0.31169 0.81448 0.0
C499 C 0.88309 0.32337 0.71272 0.0
O500 O 0.86358 0.20338 0.86652 0.0
O501 O 0.89961 0.21536 0.81793 0.0
O502 O 0.76225 0.19505 0.7337 0.0
O503 O 0.82235 0.20041 0.72671 0.0
O504 O 0.78253 0.19439 0.83096 0.0
O505 O 0.71641 0.19732 0.76949 0.0
O506 O 0.74825 0.29173 0.65457 0.0
O507 O 0.71586 0.28612 0.70313 0.0
O508 O 0.8515 0.30426 0.78857 0.0
O509 O 0.79159 0.29988 0.79497 0.0
O510 O 0.83487 0.30972 0.69406 0.0
O511 O 0.89942 0.30466 0.7562 0.0
H512 H 0.91767 0.14568 0.94414 0.0
H513 H 0.89423 0.06 0.95993 0.0
H514 H 0.79812 0.03742 0.8128 0.0
H515 H 0.82112 0.12326 0.79745 0.0
H516 H 0.68922 0.34971 0.57758 0.0
H517 H 0.71298 0.43551 0.56211 0.0
H518 H 0.82627 0.46428 0.70225 0.0
H519 H 0.80324 0.37846 0.71699 0.0
Sm520 Sm 0.77102 0.71514 0.73569 0.0
Sm521 Sm 0.82973 0.77283 0.80108 0.0
C522 C 0.73955 0.66642 0.66598 0.0
C523 C 0.76729 0.65949 0.64812 0.0
C524 C 0.77262 0.68161 0.60224 0.0
C525 C 0.8027 0.67965 0.58632 0.0
C526 C 0.82778 0.65483 0.61565 0.0
C527 C 0.82173 0.63213 0.66146 0.0
C528 C 0.79205 0.63454 0.67751 0.0
C529 C 0.71794 0.67669 0.80133 0.0
C530 C 0.86533 0.68547 0.83096 0.0
C531 C 0.86052 0.8217 0.87035 0.0
C532 C 0.83283 0.82986 0.88702 0.0
C533 C 0.82675 0.80836 0.9327 0.0
C534 C 0.79761 0.81238 0.94791 0.0
C535 C 0.77427 0.83872 0.91808 0.0
C536 C 0.78062 0.86034 0.87227 0.0
C537 C 0.80931 0.85582 0.8569 0.0
C538 C 0.88237 0.81138 0.73497 0.0
C539 C 0.73562 0.80255 0.70595 0.0
O540 O 0.75156 0.71185 0.65894 0.0
O541 O 0.73437 0.64437 0.70836 0.0
O542 O 0.76437 0.69252 0.81109 0.0
O543 O 0.69759 0.68114 0.75512 0.0
O544 O 0.82933 0.67906 0.78569 0.0
O545 O 0.87198 0.72222 0.84663 0.0
O546 O 0.84737 0.77584 0.87745 0.0
O547 O 0.8672 0.84384 0.82848 0.0
O548 O 0.836 0.79553 0.72554 0.0
O549 O 0.90293 0.80683 0.78118 0.0
O550 O 0.77182 0.80918 0.75104 0.0
O551 O 0.72868 0.76559 0.69034 0.0
H552 H 0.75435 0.70148 0.57895 0.0
H553 H 0.80683 0.69842 0.55121 0.0
H554 H 0.83896 0.61141 0.68484 0.0
H555 H 0.78884 0.61703 0.71311 0.0
H556 H 0.84395 0.78765 0.95651 0.0
H557 H 0.79311 0.79432 0.98302 0.0
H558 H 0.76466 0.88208 0.8485 0.0
H559 H 0.81305 0.87282 0.82139 0.0
Sm560 Sm 0.54261 0.44914 0.50431 0.0
Sm561 Sm 0.56883 0.54207 0.53848 0.0
C562 C 0.53549 0.38729 0.46607 0.0
C563 C 0.56257 0.37819 0.45011 0.0
C564 C 0.61622 0.40272 0.46765 0.0
C565 C 0.64026 0.38668 0.45943 0.0
C566 C 0.61098 0.34567 0.43377 0.0
C567 C 0.5575 0.32293 0.41436 0.0
C568 C 0.5336 0.33907 0.42246 0.0
C569 C 0.4992 0.41319 0.57833 0.0
C570 C 0.65718 0.52306 0.5746 0.0
C571 C 0.57685 0.60451 0.57671 0.0
C572 C 0.55207 0.61639 0.59276 0.0
C573 C 0.49885 0.59481 0.57471 0.0
C574 C 0.47753 0.6139 0.58283 0.0
C575 C 0.50916 0.6552 0.60866 0.0
C576 C 0.56212 0.6751 0.62843 0.0
C577 C 0.58328 0.65579 0.62062 0.0
C578 C 0.6109 0.57808 0.4635 0.0
C579 C 0.45525 0.46962 0.46624 0.0
O580 O 0.52316 0.41969 0.43988 0.0
O581 O 0.55016 0.38796 0.51222 0.0
O582 O 0.52536 0.45849 0.56105 0.0
O583 O 0.49786 0.38641 0.55718 0.0
O584 O 0.62901 0.49292 0.54126 0.0
O585 O 0.63956 0.53991 0.5875 0.0
O586 O 0.5881 0.57137 0.60303 0.0
O587 O 0.56181 0.60356 0.53058 0.0
O588 O 0.58541 0.53275 0.48115 0.0
O589 O 0.61222 0.60471 0.4848 0.0
O590 O 0.48231 0.49831 0.50073 0.0
O591 O 0.47374 0.45343 0.45373 0.0
H592 H 0.63921 0.4328 0.48938 0.0
H593 H 0.68146 0.40484 0.47509 0.0
H594 H 0.53393 0.29182 0.3938 0.0
H595 H 0.49213 0.31949 0.40883 0.0
H596 H 0.47415 0.56476 0.55259 0.0
H597 H 0.43667 0.59793 0.56688 0.0
H598 H 0.58743 0.70645 0.64901 0.0
H599 H 0.62449 0.67325 0.63449 0.0
Sm600 Sm 1.02518 0.46967 0.05427 0.0
Sm601 Sm 0.07289 0.51514 0.98408 0.0
C602 C 0.99171 0.45097 0.12448 0.0
C603 C 0.97649 0.47256 0.14176 0.0
C604 C 1.01374 0.51569 0.16532 0.0
C605 C 0.99951 0.53465 0.1835 0.0
C606 C 0.94776 0.5108 0.179 0.0
C607 C 0.91047 0.46774 0.15533 0.0
C608 C 0.92471 0.44895 0.13677 0.0
C609 C 0.97369 0.41061 0.9836 0.0
C610 C 0.99096 0.55703 0.9583 0.0
C611 C 0.10693 0.53323 0.91475 0.0
C612 C 0.12499 0.51186 0.90137 0.0
C613 C 0.09675 0.46027 0.89983 0.0
C614 C 0.11255 0.44088 0.88418 0.0
C615 C 0.15722 0.47256 0.87018 0.0
C616 C 0.18623 0.52406 0.87319 0.0
C617 C 0.17009 0.54348 0.88843 0.0
C618 C 0.12517 0.57258 0.05638 0.0
C619 C 0.10804 0.42872 0.07997 0.0
O620 O 1.04012 0.47654 0.12797 0.0
O621 O 0.96123 0.43017 0.08486 0.0
O622 O 0.99072 0.45606 0.97762 0.0
O623 O 0.9824 0.39338 0.02869 0.0
O624 O 0.99069 0.5286 1.00325 0.0
O625 O 1.0207 0.55594 0.94194 0.0
O626 O 0.0584 0.50542 0.91167 0.0
O627 O 0.13664 0.55677 0.95273 0.0
O628 O 0.10715 0.52708 0.06095 0.0
O629 O 0.11632 0.59084 1.01153 0.0
O630 O 0.10833 0.45717 0.0351 0.0
O631 O 0.0779 0.42934 0.09625 0.0
H632 H 0.05408 0.53491 0.16993 0.0
H633 H 1.02914 0.56835 0.20079 0.0
H634 H 0.87033 0.44811 0.15174 0.0
H635 H 0.89522 0.41572 0.1188 0.0
H636 H 0.06186 0.4349 0.90985 0.0
H637 H 0.08886 0.4012 0.88178 0.0
H638 H 0.22134 0.5495 0.86356 0.0
H639 H 0.19256 0.58332 0.88964 0.0
C640 C 0.18307 0.17993 0.87321 0.0
C641 C 0.19817 0.15705 0.86097 0.0
H642 H 0.14303 0.17404 0.91268 0.0
C643 C 0.18074 0.10661 0.88062 0.0
H644 H 0.19523 0.21835 0.85933 0.0
C645 C 0.14984 0.08047 0.91153 0.0
C646 C 0.13554 0.10399 0.92409 0.0
H647 H 0.19129 0.08725 0.87239 0.0
H648 H 0.13813 0.04229 0.9263 0.0
C649 C 0.15273 0.15411 0.90408 0.0
C650 C 0.21909 0.02718 0.1498 0.0
C651 C 0.20779 0.04568 0.10135 0.0
H652 H 0.25461 0.99022 0.20329 0.0
C653 C 0.2385 0.05932 0.07497 0.0
H654 H 0.19594 0.0169 0.17074 0.0
C655 C 0.27237 0.04437 0.09357 0.0
C656 C 0.27435 0.01486 0.13797 0.0
H657 H 0.23065 0.07446 0.03757 0.0
H658 H 0.28966 0.04808 0.07004 0.0
C659 C 0.25293 0.01202 0.16839 0.0
C660 C 0.38881 0.88354 0.425 0.0
C661 C 0.43188 0.88172 0.45479 0.0
H662 H 0.32545 0.86291 0.36077 0.0
C663 C 0.44411 0.8562 0.44267 0.0
H664 H 0.37945 0.90391 0.43343 0.0
C665 C 0.41423 0.83417 0.39995 0.0
C666 C 0.37141 0.83668 0.36979 0.0
H667 H 0.47807 0.85556 0.46482 0.0
H668 H 0.42475 0.81564 0.39033 0.0
C669 C 0.35833 0.86051 0.3833 0.0
C670 C 0.44318 0.11518 0.70244 0.0
C671 C 0.40665 0.0816 0.72695 0.0
H672 H 0.48838 0.12473 0.66671 0.0
C673 C 0.38563 0.03033 0.73219 0.0
H674 H 0.46008 0.1549 0.69801 0.0
C675 C 0.40109 0.01297 0.71358 0.0
C676 C 0.43915 0.04669 0.69076 0.0
H677 H 0.3573 0.00361 0.75077 0.0
H678 H 0.38427 0.97327 0.71827 0.0
C679 C 0.45954 0.09792 0.68482 0.0
C680 C 0.25406 0.91484 0.71285 0.0
C681 C 0.22914 0.90084 0.74561 0.0
H682 H 0.28422 0.89548 0.68418 0.0
C683 C 0.2114 0.85371 0.77213 0.0
H684 H 0.26597 0.95028 0.69027 0.0
C685 C 0.22047 0.82183 0.7674 0.0
C686 C 0.24701 0.83666 0.73585 0.0
H687 H 0.19055 0.84167 0.79619 0.0
H688 H 0.20796 0.78605 0.78938 0.0
C689 C 0.26299 0.88299 0.70803 0.0
C690 C 0.44116 0.93317 0.82107 0.0
C691 C 0.42347 0.88247 0.83402 0.0
H692 H 0.47797 0.00303 0.84383 0.0
C693 C 0.43232 0.86382 0.88292 0.0
H694 H 0.43626 0.94907 0.78393 0.0
C695 C 0.45665 0.89517 0.91791 0.0
C696 C 0.47292 0.94565 0.90435 0.0
H697 H 0.42006 0.82516 0.89406 0.0
H698 H 0.46228 0.87991 0.95529 0.0
C699 C 0.46537 0.96424 0.85559 0.0
C700 C 0.38027 0.14887 0.03524 0.0
C701 C 0.42211 0.14536 0.06736 0.0
H702 H 0.32136 0.15738 0.02528 0.0
C703 C 0.43868 0.15194 0.11543 0.0
H704 H 0.36694 0.14488 0.99776 0.0
C705 C 0.41297 0.16006 0.13129 0.0
C706 C 0.36978 0.16167 0.09956 0.0
H707 H 0.47078 0.14953 0.14121 0.0
H708 H 0.42687 0.16466 0.16865 0.0
C709 C 0.3546 0.15702 0.05102 0.0
C710 C 0.10835 0.09503 0.35817 0.0
C711 C 0.13399 0.08922 0.40752 0.0
H712 H 0.11407 0.12655 0.28646 0.0
C713 C 0.18774 0.11327 0.42093 0.0
H714 H 0.0672 0.0774 0.34586 0.0
C715 C 0.21462 0.14146 0.38682 0.0
C716 C 0.18912 0.14697 0.33755 0.0
H717 H 0.20951 0.11028 0.45821 0.0
H718 H 0.25578 0.15895 0.39926 0.0
C719 C 0.1354 0.12336 0.32387 0.0
C720 C 0.9007 0.18936 0.07174 0.0
C721 C 0.92115 0.21083 0.11326 0.0
H722 H 0.90569 0.1526 0.03435 0.0
C723 C 0.96117 0.20797 0.15116 0.0
H724 H 0.87003 0.19124 0.04184 0.0
C725 C 0.98103 0.18508 0.14733 0.0
C726 C 0.96188 0.16498 0.10521 0.0
H727 H 0.97707 0.22334 0.18399 0.0
H728 H 1.01164 0.18338 0.17746 0.0
C729 C 0.921 0.16694 0.06763 0.0
C730 C 0.13905 0.63848 0.37652 0.0
C731 C 0.14814 0.60416 0.41325 0.0
H732 H 0.15929 0.69226 0.31551 0.0
C733 C 0.18406 0.59669 0.41537 0.0
H734 H 0.11105 0.64446 0.3737 0.0
C735 C 0.21171 0.62415 0.3827 0.0
C736 C 0.20328 0.65889 0.34637 0.0
H737 H 0.19179 0.57041 0.44309 0.0
H738 H 0.24027 0.61857 0.38621 0.0
C739 C 0.16606 0.66527 0.34292 0.0
C740 C 0.65177 0.87118 0.59323 0.0
C741 C 0.64304 0.89852 0.61136 0.0
H742 H 0.67888 0.82499 0.59929 0.0
C743 C 0.66759 0.89077 0.66385 0.0
H744 H 0.63672 0.87096 0.5548 0.0
C745 C 0.69536 0.86329 0.69158 0.0
C746 C 0.7036 0.83549 0.67354 0.0
H747 H 0.66624 0.90755 0.68576 0.0
H748 H 0.71068 0.86377 0.73 0.0
C749 C 0.67818 0.84239 0.62111 0.0
C750 C 0.44155 0.34197 0.96476 0.0
C751 C 0.48838 0.38371 0.95718 0.0
H752 H 0.36786 0.2769 0.93726 0.0
C753 C 0.49495 0.39262 0.91291 0.0
H754 H 0.43499 0.33426 0.99821 0.0
C755 C 0.45545 0.36082 0.87704 0.0
C756 C 0.40907 0.31841 0.88517 0.0
H757 H 0.5302 0.42486 0.90559 0.0
H758 H 0.46166 0.3688 0.84334 0.0
C759 C 0.40294 0.30926 0.9297 0.0
C760 C 0.90505 0.80875 0.4308 0.0
C761 C 0.91145 0.81805 0.38639 0.0
H762 H 0.9365 0.8338 0.49915 0.0
C763 C 0.95773 0.86073 0.3783 0.0
H764 H 0.87002 0.77618 0.43832 0.0
C765 C 0.99688 0.89269 0.41412 0.0
C766 C 0.99001 0.88363 0.45827 0.0
H767 H 0.96413 0.86882 0.34467 0.0
H768 H 1.03204 0.92516 0.40683 0.0
C769 C 0.94328 0.8416 0.4658 0.0
C770 C 0.51306 0.73158 0.60477 0.0
C771 C 0.48766 0.67932 0.61264 0.0
H772 H 0.51279 0.79479 0.60006 0.0
C773 C 0.4413 0.65058 0.62329 0.0
H774 H 0.54842 0.7548 0.5957 0.0
C775 C 0.42102 0.67357 0.6263 0.0
C776 C 0.44629 0.7259 0.61823 0.0
H777 H 0.42108 0.6103 0.62999 0.0
H778 H 0.38589 0.65026 0.63574 0.0
C779 C 0.49258 0.75454 0.60732 0.0
C780 C 0.68786 0.09338 0.91902 0.0
C781 C 0.65229 0.10144 0.91675 0.0
H782 H 0.74157 0.11222 0.88813 0.0
C783 C 0.64154 0.13382 0.87843 0.0
H784 H 0.69673 0.06844 0.94795 0.0
C785 C 0.66621 0.15785 0.8432 0.0
C786 C 0.70285 0.15074 0.8464 0.0
H787 H 0.61371 0.14014 0.87541 0.0
H788 H 0.65791 0.18321 0.81444 0.0
C789 C 0.71332 0.11823 0.88462 0.0
C790 C 0.15453 0.37374 0.09393 0.0
C791 C 0.14084 0.39645 0.11218 0.0
H792 H 0.18622 0.33184 0.09971 0.0
C793 C 0.16148 0.385 0.16485 0.0
H794 H 0.14315 0.37695 0.05533 0.0
C795 C 0.19006 0.35828 0.19267 0.0
C796 C 0.20304 0.33488 0.17443 0.0
H797 H 0.1562 0.39806 0.1869 0.0
H798 H 0.20191 0.35551 0.23128 0.0
C799 C 0.18154 0.34549 0.12175 0.0
C800 C 0.68747 0.61239 0.92095 0.0
C801 C 0.63385 0.5889 0.90784 0.0
H802 H 0.75519 0.65777 0.89887 0.0
C803 C 0.60811 0.59541 0.85868 0.0
H804 H 0.70929 0.60887 0.95809 0.0
C805 C 0.63494 0.62386 0.82423 0.0
C806 C 0.68851 0.64689 0.83761 0.0
H807 H 0.56704 0.57822 0.84664 0.0
H808 H 0.61355 0.62758 0.78695 0.0
C809 C 0.71413 0.64073 0.8867 0.0
C810 C 0.75672 0.37648 0.21273 0.0
C811 C 0.7395 0.33068 0.24155 0.0
H812 H 0.76472 0.44628 0.19403 0.0
C813 C 0.71626 0.31977 0.27455 0.0
H814 H 0.77584 0.38619 0.18793 0.0
C815 C 0.71077 0.35466 0.27892 0.0
C816 C 0.72936 0.40103 0.25093 0.0
H817 H 0.70333 0.28467 0.29768 0.0
H818 H 0.69187 0.34545 0.30369 0.0
C819 C 0.7519 0.41143 0.21752 0.0
C820 C 0.94767 0.45722 0.35449 0.0
C821 C 0.96444 0.44168 0.40325 0.0
H822 H 0.90866 0.43879 0.28283 0.0
C823 C 0.95377 0.39303 0.41686 0.0
H824 H 0.95497 0.49428 0.34278 0.0
C825 C 0.92732 0.36091 0.38198 0.0
C826 C 0.91075 0.37691 0.33317 0.0
H827 H 0.96608 0.37999 0.45421 0.0
H828 H 0.91996 0.32382 0.39314 0.0
C829 C 0.92109 0.42531 0.32003 0.0
C830 C 0.65283 0.57856 0.41312 0.0
C831 C 0.63883 0.60179 0.42655 0.0
H832 H 0.69387 0.58595 0.37307 0.0
C833 C 0.65587 0.65197 0.40685 0.0
H834 H 0.64135 0.5404 0.42769 0.0
C835 C 0.68582 0.67813 0.37556 0.0
C836 C 0.70081 0.65562 0.3626 0.0
H837 H 0.64644 0.67173 0.41611 0.0
H838 H 0.69791 0.71659 0.36205 0.0
C839 C 0.68342 0.60507 0.38184 0.0
C840 C 0.85907 0.35535 0.87672 0.0
C841 C 0.87254 0.33479 0.85923 0.0
H842 H 0.88128 0.39574 0.93036 0.0
C843 C 0.91799 0.33588 0.88524 0.0
H844 H 0.82418 0.35487 0.85741 0.0
C845 C 0.94987 0.35799 0.92785 0.0
C846 C 0.93689 0.37983 0.94424 0.0
H847 H 0.92888 0.31985 0.87257 0.0
H848 H 0.98546 0.35975 0.94694 0.0
C849 C 0.89137 0.37831 0.91852 0.0
C850 C 0.92339 0.88665 0.15588 0.0
C851 C 0.90639 0.83625 0.17541 0.0
H852 H 0.96598 0.95155 0.11053 0.0
C853 C 0.92238 0.81413 0.16332 0.0
H854 H 0.91219 0.90548 0.164 0.0
C855 C 0.95309 0.84059 0.1327 0.0
C856 C 0.96984 0.89067 0.11278 0.0
H857 H 0.91062 0.77579 0.17711 0.0
H858 H 0.96343 0.82119 0.1242 0.0
C859 C 0.95467 0.91345 0.12523 0.0
C860 C 0.8409 0.96677 0.93822 0.0
C861 C 0.84296 0.9969 0.89415 0.0
H862 H 0.87517 0.93038 0.99554 0.0
C863 C 0.86328 0.99561 0.86543 0.0
H864 H 0.82429 0.96626 0.96041 0.0
C865 C 0.89218 0.97468 0.88546 0.0
C866 C 0.90011 0.95507 0.9338 0.0
H867 H 0.86463 0.01798 0.83086 0.0
H868 H 0.91498 0.98156 0.86595 0.0
C869 C 0.86986 0.9461 0.95822 0.0
C870 C 0.69756 0.16396 0.63498 0.0
C871 C 0.7403 0.16122 0.66491 0.0
H872 H 0.632 0.14083 0.57157 0.0
C873 C 0.7505 0.13368 0.65318 0.0
H874 H 0.6892 0.18526 0.64329 0.0
C875 C 0.71755 0.10777 0.61319 0.0
C876 C 0.67499 0.11051 0.58322 0.0
H877 H 0.78323 0.13102 0.67571 0.0
H878 H 0.72499 0.08507 0.6059 0.0
C879 C 0.66541 0.13925 0.59384 0.0
C880 C 0.70459 0.94862 0.36368 0.0
C881 C 0.66655 0.95816 0.33257 0.0
H882 H 0.75048 0.92362 0.3719 0.0
C883 C 0.64641 0.95058 0.28424 0.0
H884 H 0.72061 0.95373 0.40118 0.0
C885 C 0.66301 0.93274 0.26765 0.0
C886 C 0.7002 0.92213 0.29896 0.0
H887 H 0.61759 0.95825 0.25917 0.0
H888 H 0.64589 0.92634 0.23043 0.0
C889 C 0.7212 0.93073 0.34706 0.0
C890 C 0.87845 0.14444 0.33849 0.0
C891 C 0.88667 0.18427 0.30195 0.0
H892 H 0.8722 0.07509 0.36389 0.0
C893 C 0.89995 0.18709 0.26431 0.0
H894 H 0.868 0.14121 0.36771 0.0
C895 C 0.90144 0.14866 0.26166 0.0
C896 C 0.88919 0.10717 0.29634 0.0
H897 H 0.90672 0.21776 0.23571 0.0
H898 H 0.91067 0.15061 0.23217 0.0
C899 C 0.87956 0.10611 0.3356 0.0
C900 C 0.70285 0.09027 0.2185 0.0
C901 C 0.71414 0.13899 0.20655 0.0
H902 H 0.66863 0.02218 0.1938 0.0
C903 C 0.69876 0.1564 0.15799 0.0
H904 H 0.71418 0.07562 0.25549 0.0
C905 C 0.6728 0.12553 0.12213 0.0
C906 C 0.66125 0.07661 0.13447 0.0
H907 H 0.70668 0.19369 0.14775 0.0
H908 H 0.66154 0.13975 0.085 0.0
C909 C 0.67667 0.05953 0.18302 0.0
C910 C 0.70534 0.85169 0.90335 0.0
C911 C 0.74592 0.84598 0.93547 0.0
H912 H 0.65184 0.8682 0.8931 0.0
C913 C 0.76103 0.84998 0.98419 0.0
H914 H 0.69156 0.84782 0.86579 0.0
C915 C 0.7377 0.86108 0.99989 0.0
C916 C 0.69838 0.8684 0.96749 0.0
H917 H 0.79236 0.84652 1.01027 0.0
H918 H 0.75075 0.86417 0.03758 0.0
C919 C 0.682 0.86283 0.91911 0.0
C920 C 0.91233 0.87676 0.61508 0.0
C921 C 0.966 0.90071 0.62798 0.0
H922 H 0.8447 0.83057 0.63746 0.0
C923 C 0.99193 0.89409 0.67707 0.0
H924 H 0.89039 0.88036 0.57802 0.0
C925 C 0.96525 0.86513 0.71164 0.0
C926 C 0.91162 0.84166 0.6985 0.0
H927 H 1.03304 0.91156 0.68895 0.0
H928 H 0.9868 0.86137 0.74883 0.0
C929 C 0.88581 0.84792 0.64947 0.0
C930 C 0.14058 0.76133 0.9248 0.0
C931 C 0.19029 0.7921 0.92052 0.0
H932 H 0.0804 0.75656 0.93316 0.0
C933 C 0.21738 0.84382 0.92123 0.0
H934 H 0.11881 0.72129 0.92535 0.0
C935 C 0.19535 0.86409 0.92608 0.0
C936 C 0.14549 0.83325 0.92993 0.0
H937 H 0.25538 0.86885 0.91724 0.0
H938 H 0.21707 0.90405 0.92605 0.0
C939 C 0.11847 0.78161 0.9293 0.0
C940 C 0.93678 0.42181 0.61467 0.0
C941 C 0.97446 0.41654 0.61729 0.0
H942 H 0.87825 0.39621 0.64279 0.0
C943 C 0.98418 0.38244 0.65367 0.0
H944 H 0.92851 0.44786 0.58713 0.0
C945 C 0.95627 0.35375 0.68646 0.0
C946 C 0.91735 0.35785 0.68262 0.0
H947 H 1.01343 0.37803 0.65684 0.0
H948 H 0.96384 0.32712 0.71364 0.0
C949 C 0.90809 0.39232 0.64658 0.0
C950 C 0.45168 0.11908 0.44456 0.0
C951 C 0.46101 0.09225 0.42643 0.0
H952 H 0.42375 0.16452 0.43858 0.0
C953 C 0.4365 0.10008 0.37392 0.0
H954 H 0.46651 0.11911 0.48302 0.0
C955 C 0.40839 0.12726 0.3462 0.0
C956 C 0.39959 0.15459 0.36426 0.0
H957 H 0.43821 0.08365 0.35197 0.0
H958 H 0.39325 0.12693 0.30777 0.0
C959 C 0.42488 0.14753 0.41671 0.0
C960 C 0.60735 0.59947 0.12389 0.0
C961 C 0.6134 0.60797 0.07944 0.0
H962 H 0.64153 0.62361 0.19348 0.0
C963 C 0.66028 0.64931 0.07163 0.0
H964 H 0.57211 0.56755 0.13142 0.0
C965 C 0.69943 0.68202 0.10661 0.0
C966 C 0.69382 0.67328 0.1513 0.0
H967 H 0.66648 0.65671 0.03807 0.0
H968 H 0.73453 0.71406 0.09885 0.0
C969 C 0.64738 0.63127 0.15967 0.0
C970 C 0.14465 0.13163 0.65753 0.0
C971 C 0.19131 0.17353 0.64949 0.0
H972 H 0.06941 0.06801 0.62897 0.0
C973 C 0.19729 0.18218 0.60501 0.0
H974 H 0.13851 0.12402 0.69118 0.0
C975 C 0.1583 0.14952 0.56995 0.0
C976 C 0.11122 0.10828 0.57743 0.0
H977 H 0.23255 0.21411 0.59749 0.0
H978 H 0.16483 0.15684 0.53659 0.0
C979 C 0.1048 0.09987 0.62166 0.0
C980 C 0.70539 0.33625 0.41597 0.0
C981 C 0.68244 0.28429 0.42325 0.0
H982 H 0.70083 0.39635 0.41316 0.0
C983 C 0.6357 0.25294 0.43374 0.0
H984 H 0.74083 0.36158 0.4069 0.0
C985 C 0.61251 0.27291 0.43667 0.0
C986 C 0.63553 0.3248 0.42953 0.0
H987 H 0.61724 0.21285 0.4404 0.0
H988 H 0.57688 0.24761 0.44544 0.0
C989 C 0.68235 0.35625 0.4193 0.0
C990 C 0.47736 0.87922 0.14916 0.0
C991 C 0.47617 0.92023 0.11874 0.0
H992 H 0.45148 0.82039 0.2049 0.0
C993 C 0.44847 0.93449 0.12333 0.0
H994 H 0.49893 0.8677 0.14704 0.0
C995 C 0.42117 0.90735 0.15647 0.0
C996 C 0.42146 0.86568 0.18623 0.0
H997 H 0.44699 0.96612 0.10064 0.0
H998 H 0.39907 0.91852 0.1581 0.0
C999 C 0.45057 0.85243 0.18272 0.0
C1000 C 0.94536 0.61307 0.94413 0.0
C1001 C 0.95865 0.58984 0.92602 0.0
H1002 H 0.91441 0.65573 0.9382 0.0
C1003 C 0.93817 0.60143 0.87332 0.0
H1004 H 0.9567 0.6099 0.98273 0.0
C1005 C 0.91008 0.62865 0.8454 0.0
C1006 C 0.8975 0.65256 0.8635 0.0
H1007 H 0.94321 0.58808 0.85131 0.0
H1008 H 0.8983 0.6314 0.8068 0.0
C1009 C 0.91884 0.64179 0.9162 0.0
C1010 C 0.41342 0.37779 0.11615 0.0
C1011 C 0.467 0.40129 0.12896 0.0
H1012 H 0.34593 0.33218 0.13866 0.0
C1013 C 0.49292 0.39447 0.17799 0.0
H1014 H 0.39148 0.38155 0.07913 0.0
C1015 C 0.46632 0.36575 0.21262 0.0
C1016 C 0.41279 0.34276 0.19957 0.0
H1017 H 0.53397 0.41162 0.1898 0.0
H1018 H 0.48785 0.36182 0.24978 0.0
C1019 C 0.38698 0.3492 0.15059 0.0
C1020 C 0.36613 0.59852 0.82357 0.0
C1021 C 0.38461 0.60358 0.78918 0.0
H1022 H 0.35122 0.63199 0.85391 0.0
C1023 C 0.40569 0.64901 0.76027 0.0
H1024 H 0.35158 0.56444 0.84775 0.0
C1025 C 0.40627 0.6882 0.76449 0.0
C1026 C 0.38677 0.68255 0.79835 0.0
H1027 H 0.42166 0.65408 0.73475 0.0
H1028 H 0.42074 0.72247 0.7405 0.0
C1029 C 0.36748 0.63772 0.82831 0.0
C1030 C 0.18647 0.56877 0.67717 0.0
C1031 C 0.16476 0.58295 0.62947 0.0
H1032 H 0.23205 0.58893 0.74803 0.0
C1033 C 0.17362 0.63087 0.61713 0.0
H1034 H 0.18115 0.5325 0.68794 0.0
C1035 C 0.2022 0.66313 0.65245 0.0
C1036 C 0.22271 0.648 0.70038 0.0
H1037 H 0.15782 0.64302 0.58056 0.0
H1038 H 0.20768 0.69942 0.64245 0.0
C1039 C 0.2154 0.601 0.71186 0.0
C1040 C 0.42067 0.31342 0.66368 0.0
C1041 C 0.40525 0.33632 0.67543 0.0
H1042 H 0.46161 0.31929 0.62524 0.0
C1043 C 0.42355 0.38703 0.65631 0.0
H1044 H 0.40797 0.27482 0.67719 0.0
C1045 C 0.45546 0.41333 0.62629 0.0
C1046 C 0.46989 0.38969 0.61405 0.0
H1047 H 0.41286 0.40646 0.66422 0.0
H1048 H 0.46765 0.45165 0.61174 0.0
C1049 C 0.4519 0.33934 0.63363 0.0
C1050 C 0.20926 0.67841 0.13218 0.0
C1051 C 0.21731 0.6531 0.17854 0.0
H1052 H 0.17349 0.67268 0.05664 0.0
C1053 C 0.19317 0.60135 0.18429 0.0
H1054 H 0.22744 0.71844 0.12687 0.0
C1055 C 0.16283 0.57548 0.14433 0.0
C1056 C 0.15573 0.6008 0.09785 0.0
H1057 H 0.19874 0.58098 0.21957 0.0
H1058 H 0.14565 0.53563 0.14991 0.0
C1059 C 0.17858 0.6524 0.09204 0.0
C1060 C 0.76762 0.52927 0.58378 0.0
C1061 C 0.77127 0.49984 0.628 0.0
H1062 H 0.72697 0.5621 0.53169 0.0
C1063 C 0.75393 0.49854 0.6613 0.0
H1064 H 0.78157 0.53151 0.55797 0.0
C1065 C 0.72233 0.51581 0.64618 0.0
C1066 C 0.70934 0.53506 0.59826 0.0
H1067 H 0.7569 0.47653 0.696 0.0
H1068 H 0.70196 0.50681 0.66943 0.0
C1069 C 0.73632 0.54668 0.5688 0.0
C1070 C 0.95103 0.57133 0.26082 0.0
C1071 C 0.90713 0.57293 0.23495 0.0
H1072 H 0.99776 0.54973 0.26394 0.0
C1073 C 0.87594 0.55292 0.19107 0.0
H1074 H 0.97578 0.58646 0.29475 0.0
C1075 C 0.88872 0.53221 0.17316 0.0
C1076 C 0.93304 0.53118 0.19871 0.0
H1077 H 0.84139 0.55291 0.17075 0.0
H1078 H 0.86433 0.51781 0.13888 0.0
C1079 C 0.96386 0.55072 0.2429 0.0
C1080 C 0.92624 0.63957 0.61432 0.0
C1081 C 0.91153 0.63588 0.56573 0.0
H1082 H 0.91299 0.64989 0.66796 0.0
C1083 C 0.87099 0.64133 0.53328 0.0
H1084 H 0.95727 0.63554 0.64036 0.0
C1085 C 0.84492 0.64884 0.54916 0.0
C1086 C 0.85846 0.65097 0.59809 0.0
H1087 H 0.85912 0.63954 0.49545 0.0
H1088 H 0.81281 0.65098 0.52304 0.0
C1089 C 0.90023 0.64717 0.63025 0.0
C1090 C 0.39541 0.4775 0.38894 0.0
C1091 C 0.40515 0.46181 0.43815 0.0
H1092 H 0.36634 0.51778 0.33102 0.0
C1093 C 0.37682 0.45663 0.46237 0.0
H1094 H 0.41659 0.48116 0.3696 0.0
C1095 C 0.34734 0.47682 0.44016 0.0
C1096 C 0.34787 0.50354 0.39444 0.0
H1097 H 0.3834 0.44371 0.50035 0.0
H1098 H 0.33189 0.47911 0.46152 0.0
C1099 C 0.36635 0.49831 0.36684 0.0
C1100 C 0.20574 0.46032 0.79294 0.0
C1101 C 0.19786 0.41288 0.81079 0.0
H1102 H 0.19794 0.51536 0.79683 0.0
C1103 C 0.17734 0.38552 0.84918 0.0
H1104 H 0.22216 0.483 0.76394 0.0
C1105 C 0.16494 0.40506 0.86903 0.0
C1106 C 0.17226 0.45224 0.85069 0.0
H1107 H 0.17014 0.34865 0.86359 0.0
H1108 H 0.14969 0.38316 0.89884 0.0
C1109 C 0.19276 0.47948 0.81241 0.0
C1110 C 0.21137 0.35827 0.40388 0.0
C1111 C 0.25285 0.35403 0.43614 0.0
H1112 H 0.15667 0.37343 0.39306 0.0
C1113 C 0.2686 0.35957 0.4845 0.0
H1114 H 0.19701 0.35309 0.36664 0.0
C1115 C 0.24493 0.37069 0.4997 0.0
C1116 C 0.20457 0.37635 0.46714 0.0
H1117 H 0.30056 0.35719 0.51065 0.0
H1118 H 0.25843 0.37494 0.53712 0.0
C1119 C 0.18765 0.36936 0.41915 0.0
loop_
_geom_bond_atom_site_label_1
_geom_bond_atom_site_label_2
_geom_bond_distance
_geom_bond_site_symmetry_2
_ccdc_geom_bond_type
Sm0 C2 2.846 . S
Sm0 O20 2.543 1_655 S
Sm0 O21 2.450 . S
Sm0 O22 2.681 1_556 S
Sm0 O23 2.464 1_556 S
Sm0 O24 2.396 1_656 S
Sm0 O28 2.386 1_665 S
Sm0 O31 2.408 . S
Sm1 C11 2.846 . S
Sm1 O22 2.386 1_445 S
Sm1 O25 2.408 . S
Sm1 O26 2.543 1_455 S
Sm1 O27 2.450 . S
Sm1 O28 2.681 1_554 S
Sm1 O29 2.464 1_554 S
Sm1 O30 2.396 1_454 S
C2 Sm0 2.846 . S
C2 C3 1.506 . S
C2 O20 1.261 1_655 S
C2 O21 1.242 . S
C3 C2 1.506 . S
C3 C4 1.358 1_655 S
C3 C8 1.382 . S
C4 C3 1.358 1_455 S
C4 C5 1.385 . S
C4 H32 0.930 . S
C5 C4 1.385 . S
C5 C6 1.395 . S
C5 H33 0.929 . S
C6 C5 1.395 . S
C6 C7 1.335 1_455 S
C7 C6 1.335 1_655 S
C7 C8 1.398 . S
C7 H34 0.930 . S
C8 C3 1.382 . S
C8 C7 1.398 . S
C8 H35 0.929 . S
C9 O22 1.271 . S
C9 O23 1.251 . S
C10 O24 1.252 . S
C10 O25 1.272 1_565 S
C11 Sm1 2.846 . S
C11 C12 1.506 . S
C11 O26 1.261 1_455 S
C11 O27 1.242 . S
C12 C11 1.506 . S
C12 C13 1.358 1_455 S
C12 C17 1.382 . S
C13 C12 1.358 1_655 S
C13 C14 1.385 . S
C13 H36 0.930 . S
C14 C13 1.385 . S
C14 C15 1.395 1_655 S
C14 H37 0.929 . S
C15 C14 1.395 1_455 S
C15 C16 1.335 . S
C16 C15 1.335 . S
C16 C17 1.398 . S
C16 H38 0.930 . S
C17 C12 1.382 . S
C17 C16 1.398 . S
C17 H39 0.929 . S
C18 O28 1.271 . S
C18 O29 1.251 . S
C19 O30 1.252 . S
C19 O31 1.272 1_545 S
O20 Sm0 2.543 1_455 S
O20 C2 1.261 1_455 S
O21 Sm0 2.450 . S
O21 C2 1.242 . S
O22 Sm0 2.681 1_554 S
O22 Sm1 2.386 1_665 S
O22 C9 1.271 . S
O23 Sm0 2.464 1_554 S
O23 C9 1.251 . S
O24 Sm0 2.396 1_454 S
O24 C10 1.252 . S
O25 Sm1 2.408 . S
O25 C10 1.272 1_545 S
O26 Sm1 2.543 1_655 S
O26 C11 1.261 1_655 S
O27 Sm1 2.450 . S
O27 C11 1.242 . S
O28 Sm0 2.386 1_445 S
O28 Sm1 2.681 1_556 S
O28 C18 1.271 . S
O29 Sm1 2.464 1_556 S
O29 C18 1.251 . S
O30 Sm1 2.396 1_656 S
O30 C19 1.252 . S
O31 Sm0 2.408 . S
O31 C19 1.272 1_565 S
H32 C4 0.930 . S
H33 C5 0.929 . S
H34 C7 0.930 . S
H35 C8 0.929 . S
H36 C13 0.930 . S
H37 C14 0.929 . S
H38 C16 0.930 . S
H39 C17 0.929 . S
Sm40 C42 2.846 . S
Sm40 O60 2.543 . S
Sm40 O61 2.450 . S
Sm40 O62 2.681 . S
Sm40 O63 2.464 . S
Sm40 O64 2.396 . S
Sm40 O68 2.386 . S
Sm40 O71 2.408 . S
Sm41 C51 2.846 . S
Sm41 O62 2.386 . S
Sm41 O65 2.408 . S
Sm41 O66 2.543 . S
Sm41 O67 2.450 . S
Sm41 O68 2.681 . S
Sm41 O69 2.464 . S
Sm41 O70 2.396 . S
C42 Sm40 2.846 . S
C42 C43 1.506 . S
C42 O60 1.261 . S
C42 O61 1.242 . S
C43 C42 1.506 . S
C43 C44 1.358 . S
C43 C48 1.382 . S
C44 C43 1.358 . S
C44 C45 1.385 . S
C44 H72 0.930 . S
C45 C44 1.385 . S
C45 C46 1.395 . S
C45 H73 0.929 . S
C46 C45 1.395 . S
C46 C47 1.335 . S
C47 C46 1.335 . S
C47 C48 1.398 . S
C47 H74 0.930 . S
C48 C43 1.382 . S
C48 C47 1.398 . S
C48 H75 0.929 . S
C49 O62 1.271 . S
C49 O63 1.251 . S
C50 O64 1.252 . S
C50 O65 1.272 . S
C51 Sm41 2.846 . S
C51 C52 1.506 . S
C51 O66 1.261 . S
C51 O67 1.242 . S
C52 C51 1.506 . S
C52 C53 1.358 . S
C52 C57 1.382 . S
C53 C52 1.358 . S
C53 C54 1.385 . S
C53 H76 0.930 . S
C54 C53 1.385 . S
C54 C55 1.395 . S
C54 H77 0.929 . S
C55 C54 1.395 . S
C55 C56 1.335 . S
C56 C55 1.335 . S
C56 C57 1.398 . S
C56 H78 0.930 . S
C57 C52 1.382 . S
C57 C56 1.398 . S
C57 H79 0.929 . S
C58 O68 1.271 . S
C58 O69 1.251 . S
C59 O70 1.252 . S
C59 O71 1.272 . S
O60 Sm40 2.543 . S
O60 C42 1.261 . S
O61 Sm40 2.450 . S
O61 C42 1.242 . S
O62 Sm40 2.681 . S
O62 Sm41 2.386 . S
O62 C49 1.271 . S
O63 Sm40 2.464 . S
O63 C49 1.251 . S
O64 Sm40 2.396 . S
O64 C50 1.252 . S
O65 Sm41 2.408 . S
O65 C50 1.272 . S
O66 Sm41 2.543 . S
O66 C51 1.261 . S
O67 Sm41 2.450 . S
O67 C51 1.242 . S
O68 Sm40 2.386 . S
O68 Sm41 2.681 . S
O68 C58 1.271 . S
O69 Sm41 2.464 . S
O69 C58 1.251 . S
O70 Sm41 2.396 . S
O70 C59 1.252 . S
O71 Sm40 2.408 . S
O71 C59 1.272 . S
H72 C44 0.930 . S
H73 C45 0.929 . S
H74 C47 0.930 . S
H75 C48 0.929 . S
H76 C53 0.930 . S
H77 C54 0.929 . S
H78 C56 0.930 . S
H79 C57 0.929 . S
Sm80 C82 2.846 . S
Sm80 O100 2.543 1_565 S
Sm80 O101 2.450 . S
Sm80 O102 2.681 . S
Sm80 O103 2.464 . S
Sm80 O104 2.396 1_565 S
Sm80 O108 2.386 1_565 S
Sm80 O111 2.408 . S
Sm81 C91 2.846 . S
Sm81 O102 2.386 1_545 S
Sm81 O105 2.408 . S
Sm81 O106 2.543 1_545 S
Sm81 O107 2.450 . S
Sm81 O108 2.681 . S
Sm81 O109 2.464 . S
Sm81 O110 2.396 1_545 S
C82 Sm80 2.846 . S
C82 C83 1.484 1_565 S
C82 O100 1.261 1_565 S
C82 O101 1.242 . S
C83 C82 1.484 1_545 S
C83 C84 1.382 . S
C83 C88 1.381 1_545 S
C84 C83 1.382 . S
C84 C85 1.385 . S
C84 H112 0.930 . S
C85 C84 1.385 . S
C85 C86 1.395 . S
C85 H113 0.929 . S
C86 C85 1.395 . S
C86 C87 1.335 1_545 S
C87 C86 1.335 1_565 S
C87 C88 1.398 . S
C87 H114 0.930 . S
C88 C83 1.381 1_565 S
C88 C87 1.398 . S
C88 H115 0.929 . S
C89 O102 1.271 . S
C89 O103 1.251 . S
C90 O104 1.252 . S
C90 O105 1.272 . S
C91 Sm81 2.846 . S
C91 C92 1.505 . S
C91 O106 1.261 1_545 S
C91 O107 1.242 . S
C92 C91 1.505 . S
C92 C93 1.359 1_545 S
C92 C97 1.382 . S
C93 C92 1.359 1_565 S
C93 C94 1.385 . S
C93 H116 0.930 . S
C94 C93 1.385 . S
C94 C95 1.395 . S
C94 H117 0.929 . S
C95 C94 1.395 . S
C95 C96 1.335 1_565 S
C96 C95 1.335 1_545 S
C96 C97 1.398 . S
C96 H118 0.930 . S
C97 C92 1.382 . S
C97 C96 1.398 . S
C97 H119 0.929 . S
C98 O108 1.271 . S
C98 O109 1.251 . S
C99 O110 1.252 . S
C99 O111 1.272 . S
O100 Sm80 2.543 1_545 S
O100 C82 1.261 1_545 S
O101 Sm80 2.450 . S
O101 C82 1.242 . S
O102 Sm80 2.681 . S
O102 Sm81 2.386 1_565 S
O102 C89 1.271 . S
O103 Sm80 2.464 . S
O103 C89 1.251 . S
O104 Sm80 2.396 1_545 S
O104 C90 1.252 . S
O105 Sm81 2.408 . S
O105 C90 1.272 . S
O106 Sm81 2.543 1_565 S
O106 C91 1.261 1_565 S
O107 Sm81 2.450 . S
O107 C91 1.242 . S
O108 Sm80 2.386 1_545 S
O108 Sm81 2.681 . S
O108 C98 1.271 . S
O109 Sm81 2.464 . S
O109 C98 1.251 . S
O110 Sm81 2.396 1_565 S
O110 C99 1.252 . S
O111 Sm80 2.408 . S
O111 C99 1.272 . S
H112 C84 0.930 . S
H113 C85 0.929 . S
H114 C87 0.930 . S
H115 C88 0.929 . S
H116 C93 0.930 . S
H117 C94 0.929 . S
H118 C96 0.930 . S
H119 C97 0.929 . S
Sm120 C122 2.846 . S
Sm120 O140 2.543 . S
Sm120 O141 2.450 . S
Sm120 O142 2.681 . S
Sm120 O143 2.464 . S
Sm120 O144 2.396 . S
Sm120 O148 2.386 . S
Sm120 O151 2.408 . S
Sm121 C131 2.846 . S
Sm121 O142 2.386 . S
Sm121 O145 2.408 . S
Sm121 O146 2.543 . S
Sm121 O147 2.450 . S
Sm121 O148 2.681 . S
Sm121 O149 2.464 . S
Sm121 O150 2.396 . S
C122 Sm120 2.846 . S
C122 C123 1.506 . S
C122 O140 1.261 . S
C122 O141 1.242 . S
C123 C122 1.506 . S
C123 C124 1.358 . S
C123 C128 1.382 . S
C124 C123 1.358 . S
C124 C125 1.385 . S
C124 H152 0.930 . S
C125 C124 1.385 . S
C125 C126 1.395 . S
C125 H153 0.929 . S
C126 C125 1.395 . S
C126 C127 1.335 . S
C127 C126 1.335 . S
C127 C128 1.398 . S
C127 H154 0.930 . S
C128 C123 1.382 . S
C128 C127 1.398 . S
C128 H155 0.929 . S
C129 O142 1.271 . S
C129 O143 1.251 . S
C130 O144 1.252 . S
C130 O145 1.272 . S
C131 Sm121 2.846 . S
C131 C132 1.506 . S
C131 O146 1.261 . S
C131 O147 1.242 . S
C132 C131 1.506 . S
C132 C133 1.358 . S
C132 C137 1.382 . S
C133 C132 1.358 . S
C133 C134 1.385 . S
C133 H156 0.930 . S
C134 C133 1.385 . S
C134 C135 1.395 . S
C134 H157 0.929 . S
C135 C134 1.395 . S
C135 C136 1.335 . S
C136 C135 1.335 . S
C136 C137 1.398 . S
C136 H158 0.930 . S
C137 C132 1.382 . S
C137 C136 1.398 . S
C137 H159 0.929 . S
C138 O148 1.271 . S
C138 O149 1.251 . S
C139 O150 1.252 . S
C139 O151 1.272 . S
O140 Sm120 2.543 . S
O140 C122 1.261 . S
O141 Sm120 2.450 . S
O141 C122 1.242 . S
O142 Sm120 2.681 . S
O142 Sm121 2.386 . S
O142 C129 1.271 . S
O143 Sm120 2.464 . S
O143 C129 1.251 . S
O144 Sm120 2.396 . S
O144 C130 1.252 . S
O145 Sm121 2.408 . S
O145 C130 1.272 . S
O146 Sm121 2.543 . S
O146 C131 1.261 . S
O147 Sm121 2.450 . S
O147 C131 1.242 . S
O148 Sm120 2.386 . S
O148 Sm121 2.681 . S
O148 C138 1.271 . S
O149 Sm121 2.464 . S
O149 C138 1.251 . S
O150 Sm121 2.396 . S
O150 C139 1.252 . S
O151 Sm120 2.408 . S
O151 C139 1.272 . S
H152 C124 0.930 . S
H153 C125 0.929 . S
H154 C127 0.930 . S
H155 C128 0.929 . S
H156 C133 0.930 . S
H157 C134 0.929 . S
H158 C136 0.930 . S
H159 C137 0.929 . S
Sm160 C162 2.846 . S
Sm160 O180 2.543 . S
Sm160 O181 2.450 . S
Sm160 O182 2.681 1_455 S
Sm160 O183 2.464 1_455 S
Sm160 O184 2.396 1_455 S
Sm160 O188 2.386 1_565 S
Sm160 O191 2.408 1_565 S
Sm161 C171 2.846 . S
Sm161 O182 2.386 1_545 S
Sm161 O185 2.408 1_545 S
Sm161 O186 2.543 . S
Sm161 O187 2.450 . S
Sm161 O188 2.681 1_655 S
Sm161 O189 2.464 1_655 S
Sm161 O190 2.396 1_655 S
C162 Sm160 2.846 . S
C162 C163 1.506 . S
C162 O180 1.261 . S
C162 O181 1.242 . S
C163 C162 1.506 . S
C163 C164 1.358 . S
C163 C168 1.382 . S
C164 C163 1.358 . S
C164 C165 1.385 . S
C164 H192 0.930 . S
C165 C164 1.385 . S
C165 C166 1.395 . S
C165 H193 0.929 . S
C166 C165 1.395 . S
C166 C167 1.335 . S
C167 C166 1.335 . S
C167 C168 1.398 . S
C167 H194 0.930 . S
C168 C163 1.382 . S
C168 C167 1.398 . S
C168 H195 0.929 . S
C169 O182 1.271 . S
C169 O183 1.251 . S
C170 O184 1.252 . S
C170 O185 1.272 . S
C171 Sm161 2.846 . S
C171 C172 1.506 . S
C171 O186 1.261 . S
C171 O187 1.242 . S
C172 C171 1.506 . S
C172 C173 1.358 . S
C172 C177 1.382 . S
C173 C172 1.358 . S
C173 C174 1.385 . S
C173 H196 0.930 . S
C174 C173 1.385 . S
C174 C175 1.395 . S
C174 H197 0.929 . S
C175 C174 1.395 . S
C175 C176 1.335 . S
C176 C175 1.335 . S
C176 C177 1.398 . S
C176 H198 0.930 . S
C177 C172 1.382 . S
C177 C176 1.398 . S
C177 H199 0.929 . S
C178 O188 1.271 . S
C178 O189 1.251 . S
C179 O190 1.252 . S
C179 O191 1.272 . S
O180 Sm160 2.543 . S
O180 C162 1.261 . S
O181 Sm160 2.450 . S
O181 C162 1.242 . S
O182 Sm160 2.681 1_655 S
O182 Sm161 2.386 1_565 S
O182 C169 1.271 . S
O183 Sm160 2.464 1_655 S
O183 C169 1.251 . S
O184 Sm160 2.396 1_655 S
O184 C170 1.252 . S
O185 Sm161 2.408 1_565 S
O185 C170 1.272 . S
O186 Sm161 2.543 . S
O186 C171 1.261 . S
O187 Sm161 2.450 . S
O187 C171 1.242 . S
O188 Sm160 2.386 1_545 S
O188 Sm161 2.681 1_455 S
O188 C178 1.271 . S
O189 Sm161 2.464 1_455 S
O189 C178 1.251 . S
O190 Sm161 2.396 1_455 S
O190 C179 1.252 . S
O191 Sm160 2.408 1_545 S
O191 C179 1.272 . S
H192 C164 0.930 . S
H193 C165 0.929 . S
H194 C167 0.930 . S
H195 C168 0.929 . S
H196 C173 0.930 . S
H197 C174 0.929 . S
H198 C176 0.930 . S
H199 C177 0.929 . S
Sm200 C202 2.846 . S
Sm200 O220 2.543 . S
Sm200 O221 2.450 . S
Sm200 O222 2.681 . S
Sm200 O223 2.464 . S
Sm200 O224 2.396 . S
Sm200 O228 2.386 . S
Sm200 O231 2.408 . S
Sm201 C211 2.846 . S
Sm201 O222 2.386 . S
Sm201 O225 2.408 . S
Sm201 O226 2.543 . S
Sm201 O227 2.450 . S
Sm201 O228 2.681 . S
Sm201 O229 2.464 . S
Sm201 O230 2.396 . S
C202 Sm200 2.846 . S
C202 C203 1.506 . S
C202 O220 1.261 . S
C202 O221 1.242 . S
C203 C202 1.506 . S
C203 C204 1.358 . S
C203 C208 1.382 . S
C204 C203 1.358 . S
C204 C205 1.385 . S
C204 H232 0.930 . S
C205 C204 1.385 . S
C205 C206 1.395 . S
C205 H233 0.929 . S
C206 C205 1.395 . S
C206 C207 1.335 . S
C207 C206 1.335 . S
C207 C208 1.398 . S
C207 H234 0.930 . S
C208 C203 1.382 . S
C208 C207 1.398 . S
C208 H235 0.929 . S
C209 O222 1.271 . S
C209 O223 1.251 . S
C210 O224 1.252 . S
C210 O225 1.272 . S
C211 Sm201 2.846 . S
C211 C212 1.506 . S
C211 O226 1.261 . S
C211 O227 1.242 . S
C212 C211 1.506 . S
C212 C213 1.358 . S
C212 C217 1.382 . S
C213 C212 1.358 . S
C213 C214 1.385 . S
C213 H236 0.930 . S
C214 C213 1.385 . S
C214 C215 1.395 . S
C214 H237 0.929 . S
C215 C214 1.395 . S
C215 C216 1.335 . S
C216 C215 1.335 . S
C216 C217 1.398 . S
C216 H238 0.930 . S
C217 C212 1.382 . S
C217 C216 1.398 . S
C217 H239 0.929 . S
C218 O228 1.271 . S
C218 O229 1.251 . S
C219 O230 1.252 . S
C219 O231 1.272 . S
O220 Sm200 2.543 . S
O220 C202 1.261 . S
O221 Sm200 2.450 . S
O221 C202 1.242 . S
O222 Sm200 2.681 . S
O222 Sm201 2.386 . S
O222 C209 1.271 . S
O223 Sm200 2.464 . S
O223 C209 1.251 . S
O224 Sm200 2.396 . S
O224 C210 1.252 . S
O225 Sm201 2.408 . S
O225 C210 1.272 . S
O226 Sm201 2.543 . S
O226 C211 1.261 . S
O227 Sm201 2.450 . S
O227 C211 1.242 . S
O228 Sm200 2.386 . S
O228 Sm201 2.681 . S
O228 C218 1.271 . S
O229 Sm201 2.464 . S
O229 C218 1.251 . S
O230 Sm201 2.396 . S
O230 C219 1.252 . S
O231 Sm200 2.408 . S
O231 C219 1.272 . S
H232 C204 0.930 . S
H233 C205 0.929 . S
H234 C207 0.930 . S
H235 C208 0.929 . S
H236 C213 0.930 . S
H237 C214 0.929 . S
H238 C216 0.930 . S
H239 C217 0.929 . S
Sm240 C242 2.846 1_554 S
Sm240 O260 2.543 1_554 S
Sm240 O261 2.450 . S
Sm240 O262 2.681 1_565 S
Sm240 O263 2.464 1_565 S
Sm240 O264 2.396 1_564 S
Sm240 O268 2.386 1_554 S
Sm240 O271 2.408 . S
Sm241 C251 2.846 1_556 S
Sm241 O262 2.386 1_556 S
Sm241 O265 2.408 . S
Sm241 O266 2.543 1_556 S
Sm241 O267 2.450 . S
Sm241 O268 2.681 1_545 S
Sm241 O269 2.464 1_545 S
Sm241 O270 2.396 1_546 S
C242 Sm240 2.846 1_556 S
C242 C243 1.506 . S
C242 O260 1.261 . S
C242 O261 1.242 1_556 S
C243 C242 1.506 . S
C243 C244 1.358 . S
C243 C248 1.382 1_556 S
C244 C243 1.358 . S
C244 C245 1.385 . S
C244 H272 0.930 . S
C245 C244 1.385 . S
C245 C246 1.395 . S
C245 H273 0.929 . S
C246 C245 1.395 . S
C246 C247 1.335 . S
C247 C246 1.335 . S
C247 C248 1.398 1_556 S
C247 H274 0.930 1_556 S
C248 C243 1.382 1_554 S
C248 C247 1.398 1_554 S
C248 H275 0.929 . S
C249 O262 1.271 . S
C249 O263 1.251 . S
C250 O264 1.252 . S
C250 O265 1.272 . S
C251 Sm241 2.846 1_554 S
C251 C252 1.506 . S
C251 O266 1.261 . S
C251 O267 1.242 1_554 S
C252 C251 1.506 . S
C252 C253 1.358 . S
C252 C257 1.377 1_554 S
C253 C252 1.358 . S
C253 C254 1.385 . S
C253 H276 0.930 . S
C254 C253 1.385 . S
C254 C255 1.395 . S
C254 H277 0.929 . S
C255 C254 1.395 . S
C255 C256 1.335 . S
C256 C255 1.335 . S
C256 C257 1.385 1_554 S
C256 H278 0.930 1_554 S
C257 C252 1.377 1_556 S
C257 C256 1.385 1_556 S
C257 H279 0.947 . S
C258 O268 1.271 . S
C258 O269 1.251 . S
C259 O270 1.252 . S
C259 O271 1.272 . S
O260 Sm240 2.543 1_556 S
O260 C242 1.261 . S
O261 Sm240 2.450 . S
O261 C242 1.242 1_554 S
O262 Sm240 2.681 1_545 S
O262 Sm241 2.386 1_554 S
O262 C249 1.271 . S
O263 Sm240 2.464 1_545 S
O263 C249 1.251 . S
O264 Sm240 2.396 1_546 S
O264 C250 1.252 . S
O265 Sm241 2.408 . S
O265 C250 1.272 . S
O266 Sm241 2.543 1_554 S
O266 C251 1.261 . S
O267 Sm241 2.450 . S
O267 C251 1.242 1_556 S
O268 Sm240 2.386 1_556 S
O268 Sm241 2.681 1_565 S
O268 C258 1.271 . S
O269 Sm241 2.464 1_565 S
O269 C258 1.251 . S
O270 Sm241 2.396 1_564 S
O270 C259 1.252 . S
O271 Sm240 2.408 . S
O271 C259 1.272 . S
H272 C244 0.930 . S
H273 C245 0.929 . S
H274 C247 0.930 1_554 S
H275 C248 0.929 . S
H276 C253 0.930 . S
H277 C254 0.929 . S
H278 C256 0.930 1_556 S
H279 C257 0.947 . S
Sm280 C282 2.846 . S
Sm280 O300 2.543 . S
Sm280 O301 2.450 . S
Sm280 O302 2.681 . S
Sm280 O303 2.464 . S
Sm280 O304 2.396 . S
Sm280 O308 2.386 . S
Sm280 O311 2.408 . S
Sm281 C291 2.846 . S
Sm281 O302 2.386 . S
Sm281 O305 2.408 . S
Sm281 O306 2.543 . S
Sm281 O307 2.450 . S
Sm281 O308 2.681 . S
Sm281 O309 2.464 . S
Sm281 O310 2.396 . S
C282 Sm280 2.846 . S
C282 C283 1.506 . S
C282 O300 1.261 . S
C282 O301 1.242 . S
C283 C282 1.506 . S
C283 C284 1.358 . S
C283 C288 1.382 . S
C284 C283 1.358 . S
C284 C285 1.385 . S
C284 H312 0.930 . S
C285 C284 1.385 . S
C285 C286 1.395 . S
C285 H313 0.929 . S
C286 C285 1.395 . S
C286 C287 1.335 . S
C287 C286 1.335 . S
C287 C288 1.398 . S
C287 H314 0.930 . S
C288 C283 1.382 . S
C288 C287 1.398 . S
C288 H315 0.929 . S
C289 O302 1.271 . S
C289 O303 1.251 . S
C290 O304 1.252 . S
C290 O305 1.272 . S
C291 Sm281 2.846 . S
C291 C292 1.506 . S
C291 O306 1.261 . S
C291 O307 1.242 . S
C292 C291 1.506 . S
C292 C293 1.358 . S
C292 C297 1.382 . S
C293 C292 1.358 . S
C293 C294 1.385 . S
C293 H316 0.930 . S
C294 C293 1.385 . S
C294 C295 1.395 . S
C294 H317 0.929 . S
C295 C294 1.395 . S
C295 C296 1.335 . S
C296 C295 1.335 . S
C296 C297 1.398 . S
C296 H318 0.930 . S
C297 C292 1.382 . S
C297 C296 1.398 . S
C297 H319 0.929 . S
C298 O308 1.271 . S
C298 O309 1.251 . S
C299 O310 1.252 . S
C299 O311 1.272 . S
O300 Sm280 2.543 . S
O300 C282 1.261 . S
O301 Sm280 2.450 . S
O301 C282 1.242 . S
O302 Sm280 2.681 . S
O302 Sm281 2.386 . S
O302 C289 1.271 . S
O303 Sm280 2.464 . S
O303 C289 1.251 . S
O304 Sm280 2.396 . S
O304 C290 1.252 . S
O305 Sm281 2.408 . S
O305 C290 1.272 . S
O306 Sm281 2.543 . S
O306 C291 1.261 . S
O307 Sm281 2.450 . S
O307 C291 1.242 . S
O308 Sm280 2.386 . S
O308 Sm281 2.681 . S
O308 C298 1.271 . S
O309 Sm281 2.464 . S
O309 C298 1.251 . S
O310 Sm281 2.396 . S
O310 C299 1.252 . S
O311 Sm280 2.408 . S
O311 C299 1.272 . S
H312 C284 0.930 . S
H313 C285 0.929 . S
H314 C287 0.930 . S
H315 C288 0.929 . S
H316 C293 0.930 . S
H317 C294 0.929 . S
H318 C296 0.930 . S
H319 C297 0.929 . S
Sm320 C322 2.846 . S
Sm320 O340 2.543 . S
Sm320 O341 2.450 . S
Sm320 O342 2.681 1_554 S
Sm320 O343 2.464 1_554 S
Sm320 O344 2.396 . S
Sm320 O348 2.386 . S
Sm320 O351 2.408 1_554 S
Sm321 C331 2.846 . S
Sm321 O342 2.386 . S
Sm321 O345 2.408 1_556 S
Sm321 O346 2.543 . S
Sm321 O347 2.450 . S
Sm321 O348 2.681 1_556 S
Sm321 O349 2.464 1_556 S
Sm321 O350 2.396 . S
C322 Sm320 2.846 . S
C322 C323 1.506 . S
C322 O340 1.261 . S
C322 O341 1.242 . S
C323 C322 1.506 . S
C323 C324 1.358 . S
C323 C328 1.382 . S
C324 C323 1.358 . S
C324 C325 1.385 . S
C324 H352 0.930 . S
C325 C324 1.385 . S
C325 C326 1.395 . S
C325 H353 0.929 . S
C326 C325 1.395 . S
C326 C327 1.335 . S
C327 C326 1.335 . S
C327 C328 1.398 . S
C327 H354 0.930 . S
C328 C323 1.382 . S
C328 C327 1.398 . S
C328 H355 0.929 . S
C329 O342 1.271 . S
C329 O343 1.251 . S
C330 O344 1.252 . S
C330 O345 1.272 . S
C331 Sm321 2.846 . S
C331 C332 1.506 . S
C331 O346 1.261 . S
C331 O347 1.242 . S
C332 C331 1.506 . S
C332 C333 1.358 . S
C332 C337 1.382 . S
C333 C332 1.358 . S
C333 C334 1.385 . S
C333 H356 0.930 . S
C334 C333 1.385 . S
C334 C335 1.395 . S
C334 H357 0.929 . S
C335 C334 1.395 . S
C335 C336 1.335 . S
C336 C335 1.335 . S
C336 C337 1.398 . S
C336 H358 0.930 . S
C337 C332 1.382 . S
C337 C336 1.398 . S
C337 H359 0.929 . S
C338 O348 1.271 . S
C338 O349 1.251 . S
C339 O350 1.252 . S
C339 O351 1.272 . S
O340 Sm320 2.543 . S
O340 C322 1.261 . S
O341 Sm320 2.450 . S
O341 C322 1.242 . S
O342 Sm320 2.681 1_556 S
O342 Sm321 2.386 . S
O342 C329 1.271 . S
O343 Sm320 2.464 1_556 S
O343 C329 1.251 . S
O344 Sm320 2.396 . S
O344 C330 1.252 . S
O345 Sm321 2.408 1_554 S
O345 C330 1.272 . S
O346 Sm321 2.543 . S
O346 C331 1.261 . S
O347 Sm321 2.450 . S
O347 C331 1.242 . S
O348 Sm320 2.386 . S
O348 Sm321 2.681 1_554 S
O348 C338 1.271 . S
O349 Sm321 2.464 1_554 S
O349 C338 1.251 . S
O350 Sm321 2.396 . S
O350 C339 1.252 . S
O351 Sm320 2.408 1_556 S
O351 C339 1.272 . S
H352 C324 0.930 . S
H353 C325 0.929 . S
H354 C327 0.930 . S
H355 C328 0.929 . S
H356 C333 0.930 . S
H357 C334 0.929 . S
H358 C336 0.930 . S
H359 C337 0.929 . S
Sm360 C362 2.846 . S
Sm360 O380 2.543 . S
Sm360 O381 2.450 . S
Sm360 O382 2.681 . S
Sm360 O383 2.464 . S
Sm360 O384 2.396 . S
Sm360 O388 2.386 . S
Sm360 O391 2.408 . S
Sm361 C371 2.846 . S
Sm361 O382 2.386 . S
Sm361 O385 2.408 . S
Sm361 O386 2.543 . S
Sm361 O387 2.450 . S
Sm361 O388 2.681 . S
Sm361 O389 2.464 . S
Sm361 O390 2.396 . S
C362 Sm360 2.846 . S
C362 C363 1.506 . S
C362 O380 1.261 . S
C362 O381 1.242 . S
C363 C362 1.506 . S
C363 C364 1.358 . S
C363 C368 1.382 . S
C364 C363 1.358 . S
C364 C365 1.385 . S
C364 H392 0.930 . S
C365 C364 1.385 . S
C365 C366 1.395 . S
C365 H393 0.929 . S
C366 C365 1.395 . S
C366 C367 1.335 . S
C367 C366 1.335 . S
C367 C368 1.398 . S
C367 H394 0.930 . S
C368 C363 1.382 . S
C368 C367 1.398 . S
C368 H395 0.929 . S
C369 O382 1.271 . S
C369 O383 1.251 . S
C370 O384 1.252 . S
C370 O385 1.272 . S
C371 Sm361 2.846 . S
C371 C372 1.506 . S
C371 O386 1.261 . S
C371 O387 1.242 . S
C372 C371 1.506 . S
C372 C373 1.358 . S
C372 C377 1.382 . S
C373 C372 1.358 . S
C373 C374 1.385 . S
C373 H396 0.930 . S
C374 C373 1.385 . S
C374 C375 1.395 . S
C374 H397 0.929 . S
C375 C374 1.395 . S
C375 C376 1.335 . S
C376 C375 1.335 . S
C376 C377 1.398 . S
C376 H398 0.930 . S
C377 C372 1.382 . S
C377 C376 1.398 . S
C377 H399 0.929 . S
C378 O388 1.271 . S
C378 O389 1.251 . S
C379 O390 1.252 . S
C379 O391 1.272 . S
O380 Sm360 2.543 . S
O380 C362 1.261 . S
O381 Sm360 2.450 . S
O381 C362 1.242 . S
O382 Sm360 2.681 . S
O382 Sm361 2.386 . S
O382 C369 1.271 . S
O383 Sm360 2.464 . S
O383 C369 1.251 . S
O384 Sm360 2.396 . S
O384 C370 1.252 . S
O385 Sm361 2.408 . S
O385 C370 1.272 . S
O386 Sm361 2.543 . S
O386 C371 1.261 . S
O387 Sm361 2.450 . S
O387 C371 1.242 . S
O388 Sm360 2.386 . S
O388 Sm361 2.681 . S
O388 C378 1.271 . S
O389 Sm361 2.464 . S
O389 C378 1.251 . S
O390 Sm361 2.396 . S
O390 C379 1.252 . S
O391 Sm360 2.408 . S
O391 C379 1.272 . S
H392 C364 0.930 . S
H393 C365 0.929 . S
H394 C367 0.930 . S
H395 C368 0.929 . S
H396 C373 0.930 . S
H397 C374 0.929 . S
H398 C376 0.930 . S
H399 C377 0.929 . S
Sm400 C402 2.846 . S
Sm400 O420 2.543 . S
Sm400 O421 2.450 . S
Sm400 O422 2.681 . S
Sm400 O423 2.464 . S
Sm400 O424 2.396 . S
Sm400 O428 2.386 1_455 S
Sm400 O431 2.408 1_455 S
Sm401 C411 2.846 . S
Sm401 O422 2.386 1_655 S
Sm401 O425 2.408 1_655 S
Sm401 O426 2.543 . S
Sm401 O427 2.450 . S
Sm401 O428 2.681 . S
Sm401 O429 2.464 . S
Sm401 O430 2.396 . S
C402 Sm400 2.846 . S
C402 C403 1.506 . S
C402 O420 1.261 . S
C402 O421 1.242 . S
C403 C402 1.506 . S
C403 C404 1.358 . S
C403 C408 1.382 . S
C404 C403 1.358 . S
C404 C405 1.385 . S
C404 H432 0.930 . S
C405 C404 1.385 . S
C405 C406 1.395 . S
C405 H433 0.929 . S
C406 C405 1.395 . S
C406 C407 1.335 . S
C407 C406 1.335 . S
C407 C408 1.398 . S
C407 H434 0.930 . S
C408 C403 1.382 . S
C408 C407 1.398 . S
C408 H435 0.929 . S
C409 O422 1.271 . S
C409 O423 1.251 . S
C410 O424 1.252 . S
C410 O425 1.272 . S
C411 Sm401 2.846 . S
C411 C412 1.506 . S
C411 O426 1.261 . S
C411 O427 1.242 . S
C412 C411 1.506 . S
C412 C413 1.358 . S
C412 C417 1.382 . S
C413 C412 1.358 . S
C413 C414 1.385 . S
C413 H436 0.930 . S
C414 C413 1.385 . S
C414 C415 1.395 . S
C414 H437 0.929 . S
C415 C414 1.395 . S
C415 C416 1.335 . S
C416 C415 1.335 . S
C416 C417 1.398 . S
C416 H438 0.930 . S
C417 C412 1.382 . S
C417 C416 1.398 . S
C417 H439 0.929 . S
C418 O428 1.271 . S
C418 O429 1.251 . S
C419 O430 1.252 . S
C419 O431 1.272 . S
O420 Sm400 2.543 . S
O420 C402 1.261 . S
O421 Sm400 2.450 . S
O421 C402 1.242 . S
O422 Sm400 2.681 . S
O422 Sm401 2.386 1_455 S
O422 C409 1.271 . S
O423 Sm400 2.464 . S
O423 C409 1.251 . S
O424 Sm400 2.396 . S
O424 C410 1.252 . S
O425 Sm401 2.408 1_455 S
O425 C410 1.272 . S
O426 Sm401 2.543 . S
O426 C411 1.261 . S
O427 Sm401 2.450 . S
O427 C411 1.242 . S
O428 Sm400 2.386 1_655 S
O428 Sm401 2.681 . S
O428 C418 1.271 . S
O429 Sm401 2.464 . S
O429 C418 1.251 . S
O430 Sm401 2.396 . S
O430 C419 1.252 . S
O431 Sm400 2.408 1_655 S
O431 C419 1.272 . S
H432 C404 0.930 . S
H433 C405 0.929 . S
H434 C407 0.930 . S
H435 C408 0.929 . S
H436 C413 0.930 . S
H437 C414 0.929 . S
H438 C416 0.930 . S
H439 C417 0.929 . S
Sm440 C442 2.846 . S
Sm440 O460 2.543 . S
Sm440 O461 2.450 . S
Sm440 O462 2.681 . S
Sm440 O463 2.464 . S
Sm440 O464 2.396 . S
Sm440 O468 2.386 . S
Sm440 O471 2.408 . S
Sm441 C451 2.846 . S
Sm441 O462 2.386 . S
Sm441 O465 2.408 . S
Sm441 O466 2.543 . S
Sm441 O467 2.450 . S
Sm441 O468 2.681 . S
Sm441 O469 2.464 . S
Sm441 O470 2.396 . S
C442 Sm440 2.846 . S
C442 C443 1.506 . S
C442 O460 1.261 . S
C442 O461 1.242 . S
C443 C442 1.506 . S
C443 C444 1.358 . S
C443 C448 1.382 . S
C444 C443 1.358 . S
C444 C445 1.385 . S
C444 H472 0.930 . S
C445 C444 1.385 . S
C445 C446 1.395 . S
C445 H473 0.929 . S
C446 C445 1.395 . S
C446 C447 1.335 . S
C447 C446 1.335 . S
C447 C448 1.398 . S
C447 H474 0.930 . S
C448 C443 1.382 . S
C448 C447 1.398 . S
C448 H475 0.929 . S
C449 O462 1.271 . S
C449 O463 1.251 . S
C450 O464 1.252 . S
C450 O465 1.272 . S
C451 Sm441 2.846 . S
C451 C452 1.506 . S
C451 O466 1.261 . S
C451 O467 1.242 . S
C452 C451 1.506 . S
C452 C453 1.358 . S
C452 C457 1.382 . S
C453 C452 1.358 . S
C453 C454 1.385 . S
C453 H476 0.930 . S
C454 C453 1.385 . S
C454 C455 1.395 . S
C454 H477 0.929 . S
C455 C454 1.395 . S
C455 C456 1.335 . S
C456 C455 1.335 . S
C456 C457 1.398 . S
C456 H478 0.930 . S
C457 C452 1.382 . S
C457 C456 1.398 . S
C457 H479 0.929 . S
C458 O468 1.271 . S
C458 O469 1.251 . S
C459 O470 1.252 . S
C459 O471 1.272 . S
O460 Sm440 2.543 . S
O460 C442 1.261 . S
O461 Sm440 2.450 . S
O461 C442 1.242 . S
O462 Sm440 2.681 . S
O462 Sm441 2.386 . S
O462 C449 1.271 . S
O463 Sm440 2.464 . S
O463 C449 1.251 . S
O464 Sm440 2.396 . S
O464 C450 1.252 . S
O465 Sm441 2.408 . S
O465 C450 1.272 . S
O466 Sm441 2.543 . S
O466 C451 1.261 . S
O467 Sm441 2.450 . S
O467 C451 1.242 . S
O468 Sm440 2.386 . S
O468 Sm441 2.681 . S
O468 C458 1.271 . S
O469 Sm441 2.464 . S
O469 C458 1.251 . S
O470 Sm441 2.396 . S
O470 C459 1.252 . S
O471 Sm440 2.408 . S
O471 C459 1.272 . S
H472 C444 0.930 . S
H473 C445 0.929 . S
H474 C447 0.930 . S
H475 C448 0.929 . S
H476 C453 0.930 . S
H477 C454 0.929 . S
H478 C456 0.930 . S
H479 C457 0.929 . S
Sm480 C482 2.846 . S
Sm480 O500 2.543 . S
Sm480 O501 2.450 . S
Sm480 O502 2.681 . S
Sm480 O503 2.464 . S
Sm480 O504 2.396 . S
Sm480 O508 2.386 . S
Sm480 O511 2.408 . S
Sm481 C491 2.846 . S
Sm481 O502 2.386 . S
Sm481 O505 2.408 . S
Sm481 O506 2.543 . S
Sm481 O507 2.450 . S
Sm481 O508 2.681 . S
Sm481 O509 2.464 . S
Sm481 O510 2.396 . S
C482 Sm480 2.846 . S
C482 C483 1.506 . S
C482 O500 1.261 . S
C482 O501 1.242 . S
C483 C482 1.506 . S
C483 C484 1.358 . S
C483 C488 1.382 . S
C484 C483 1.358 . S
C484 C485 1.385 . S
C484 H512 0.930 . S
C485 C484 1.385 . S
C485 C486 1.395 . S
C485 H513 0.929 . S
C486 C485 1.395 . S
C486 C487 1.335 . S
C487 C486 1.335 . S
C487 C488 1.398 . S
C487 H514 0.930 . S
C488 C483 1.382 . S
C488 C487 1.398 . S
C488 H515 0.929 . S
C489 O502 1.271 . S
C489 O503 1.251 . S
C490 O504 1.252 . S
C490 O505 1.272 . S
C491 Sm481 2.846 . S
C491 C492 1.506 . S
C491 O506 1.261 . S
C491 O507 1.242 . S
C492 C491 1.506 . S
C492 C493 1.358 . S
C492 C497 1.382 . S
C493 C492 1.358 . S
C493 C494 1.385 . S
C493 H516 0.930 . S
C494 C493 1.385 . S
C494 C495 1.395 . S
C494 H517 0.929 . S
C495 C494 1.395 . S
C495 C496 1.335 . S
C496 C495 1.335 . S
C496 C497 1.398 . S
C496 H518 0.930 . S
C497 C492 1.382 . S
C497 C496 1.398 . S
C497 H519 0.929 . S
C498 O508 1.271 . S
C498 O509 1.251 . S
C499 O510 1.252 . S
C499 O511 1.272 . S
O500 Sm480 2.543 . S
O500 C482 1.261 . S
O501 Sm480 2.450 . S
O501 C482 1.242 . S
O502 Sm480 2.681 . S
O502 Sm481 2.386 . S
O502 C489 1.271 . S
O503 Sm480 2.464 . S
O503 C489 1.251 . S
O504 Sm480 2.396 . S
O504 C490 1.252 . S
O505 Sm481 2.408 . S
O505 C490 1.272 . S
O506 Sm481 2.543 . S
O506 C491 1.261 . S
O507 Sm481 2.450 . S
O507 C491 1.242 . S
O508 Sm480 2.386 . S
O508 Sm481 2.681 . S
O508 C498 1.271 . S
O509 Sm481 2.464 . S
O509 C498 1.251 . S
O510 Sm481 2.396 . S
O510 C499 1.252 . S
O511 Sm480 2.408 . S
O511 C499 1.272 . S
H512 C484 0.930 . S
H513 C485 0.929 . S
H514 C487 0.930 . S
H515 C488 0.929 . S
H516 C493 0.930 . S
H517 C494 0.929 . S
H518 C496 0.930 . S
H519 C497 0.929 . S
Sm520 C522 2.846 . S
Sm520 O540 2.543 . S
Sm520 O541 2.450 . S
Sm520 O542 2.681 . S
Sm520 O543 2.464 . S
Sm520 O544 2.396 . S
Sm520 O548 2.386 . S
Sm520 O551 2.408 . S
Sm521 C531 2.846 . S
Sm521 O542 2.386 . S
Sm521 O545 2.408 . S
Sm521 O546 2.543 . S
Sm521 O547 2.450 . S
Sm521 O548 2.681 . S
Sm521 O549 2.464 . S
Sm521 O550 2.396 . S
C522 Sm520 2.846 . S
C522 C523 1.506 . S
C522 O540 1.261 . S
C522 O541 1.242 . S
C523 C522 1.506 . S
C523 C524 1.358 . S
C523 C528 1.382 . S
C524 C523 1.358 . S
C524 C525 1.385 . S
C524 H552 0.930 . S
C525 C524 1.385 . S
C525 C526 1.395 . S
C525 H553 0.929 . S
C526 C525 1.395 . S
C526 C527 1.335 . S
C527 C526 1.335 . S
C527 C528 1.398 . S
C527 H554 0.930 . S
C528 C523 1.382 . S
C528 C527 1.398 . S
C528 H555 0.929 . S
C529 O542 1.271 . S
C529 O543 1.251 . S
C530 O544 1.252 . S
C530 O545 1.272 . S
C531 Sm521 2.846 . S
C531 C532 1.506 . S
C531 O546 1.261 . S
C531 O547 1.242 . S
C532 C531 1.506 . S
C532 C533 1.358 . S
C532 C537 1.382 . S
C533 C532 1.358 . S
C533 C534 1.385 . S
C533 H556 0.930 . S
C534 C533 1.385 . S
C534 C535 1.395 . S
C534 H557 0.929 . S
C535 C534 1.395 . S
C535 C536 1.335 . S
C536 C535 1.335 . S
C536 C537 1.398 . S
C536 H558 0.930 . S
C537 C532 1.382 . S
C537 C536 1.398 . S
C537 H559 0.929 . S
C538 O548 1.271 . S
C538 O549 1.251 . S
C539 O550 1.252 . S
C539 O551 1.272 . S
O540 Sm520 2.543 . S
O540 C522 1.261 . S
O541 Sm520 2.450 . S
O541 C522 1.242 . S
O542 Sm520 2.681 . S
O542 Sm521 2.386 . S
O542 C529 1.271 . S
O543 Sm520 2.464 . S
O543 C529 1.251 . S
O544 Sm520 2.396 . S
O544 C530 1.252 . S
O545 Sm521 2.408 . S
O545 C530 1.272 . S
O546 Sm521 2.543 . S
O546 C531 1.261 . S
O547 Sm521 2.450 . S
O547 C531 1.242 . S
O548 Sm520 2.386 . S
O548 Sm521 2.681 . S
O548 C538 1.271 . S
O549 Sm521 2.464 . S
O549 C538 1.251 . S
O550 Sm521 2.396 . S
O550 C539 1.252 . S
O551 Sm520 2.408 . S
O551 C539 1.272 . S
H552 C524 0.930 . S
H553 C525 0.929 . S
H554 C527 0.930 . S
H555 C528 0.929 . S
H556 C533 0.930 . S
H557 C534 0.929 . S
H558 C536 0.930 . S
H559 C537 0.929 . S
Sm560 C562 2.846 . S
Sm560 O580 2.543 . S
Sm560 O581 2.450 . S
Sm560 O582 2.681 . S
Sm560 O583 2.464 . S
Sm560 O584 2.396 . S
Sm560 O588 2.386 . S
Sm560 O591 2.408 . S
Sm561 C571 2.846 . S
Sm561 O582 2.386 . S
Sm561 O585 2.408 . S
Sm561 O586 2.543 . S
Sm561 O587 2.450 . S
Sm561 O588 2.681 . S
Sm561 O589 2.464 . S
Sm561 O590 2.396 . S
C562 Sm560 2.846 . S
C562 C563 1.506 . S
C562 O580 1.261 . S
C562 O581 1.242 . S
C563 C562 1.506 . S
C563 C564 1.358 . S
C563 C568 1.382 . S
C564 C563 1.358 . S
C564 C565 1.385 . S
C564 H592 0.930 . S
C565 C564 1.385 . S
C565 C566 1.395 . S
C565 H593 0.929 . S
C566 C565 1.395 . S
C566 C567 1.335 . S
C567 C566 1.335 . S
C567 C568 1.398 . S
C567 H594 0.930 . S
C568 C563 1.382 . S
C568 C567 1.398 . S
C568 H595 0.929 . S
C569 O582 1.271 . S
C569 O583 1.251 . S
C570 O584 1.252 . S
C570 O585 1.272 . S
C571 Sm561 2.846 . S
C571 C572 1.506 . S
C571 O586 1.261 . S
C571 O587 1.242 . S
C572 C571 1.506 . S
C572 C573 1.358 . S
C572 C577 1.382 . S
C573 C572 1.358 . S
C573 C574 1.385 . S
C573 H596 0.930 . S
C574 C573 1.385 . S
C574 C575 1.395 . S
C574 H597 0.929 . S
C575 C574 1.395 . S
C575 C576 1.335 . S
C576 C575 1.335 . S
C576 C577 1.398 . S
C576 H598 0.930 . S
C577 C572 1.382 . S
C577 C576 1.398 . S
C577 H599 0.929 . S
C578 O588 1.271 . S
C578 O589 1.251 . S
C579 O590 1.252 . S
C579 O591 1.272 . S
O580 Sm560 2.543 . S
O580 C562 1.261 . S
O581 Sm560 2.450 . S
O581 C562 1.242 . S
O582 Sm560 2.681 . S
O582 Sm561 2.386 . S
O582 C569 1.271 . S
O583 Sm560 2.464 . S
O583 C569 1.251 . S
O584 Sm560 2.396 . S
O584 C570 1.252 . S
O585 Sm561 2.408 . S
O585 C570 1.272 . S
O586 Sm561 2.543 . S
O586 C571 1.261 . S
O587 Sm561 2.450 . S
O587 C571 1.242 . S
O588 Sm560 2.386 . S
O588 Sm561 2.681 . S
O588 C578 1.271 . S
O589 Sm561 2.464 . S
O589 C578 1.251 . S
O590 Sm561 2.396 . S
O590 C579 1.252 . S
O591 Sm560 2.408 . S
O591 C579 1.272 . S
H592 C564 0.930 . S
H593 C565 0.929 . S
H594 C567 0.930 . S
H595 C568 0.929 . S
H596 C573 0.930 . S
H597 C574 0.929 . S
H598 C576 0.930 . S
H599 C577 0.929 . S
Sm600 C602 2.846 . S
Sm600 O620 2.543 . S
Sm600 O621 2.450 . S
Sm600 O622 2.681 1_554 S
Sm600 O623 2.464 1_554 S
Sm600 O624 2.396 1_554 S
Sm600 O628 2.386 1_655 S
Sm600 O631 2.408 1_655 S
Sm601 C611 2.846 . S
Sm601 O622 2.386 1_455 S
Sm601 O625 2.408 . S
Sm601 O626 2.543 . S
Sm601 O627 2.450 . S
Sm601 O628 2.681 1_556 S
Sm601 O629 2.464 1_556 S
Sm601 O630 2.396 1_556 S
C602 Sm600 2.846 . S
C602 C603 1.506 . S
C602 O620 1.261 . S
C602 O621 1.242 . S
C603 C602 1.506 . S
C603 C604 1.358 . S
C603 C608 1.382 . S
C604 C603 1.358 . S
C604 C605 1.385 . S
C604 H632 0.930 . S
C605 C604 1.385 . S
C605 C606 1.395 . S
C605 H633 0.929 . S
C606 C605 1.395 . S
C606 C607 1.335 . S
C607 C606 1.335 . S
C607 C608 1.398 . S
C607 H634 0.930 . S
C608 C603 1.382 . S
C608 C607 1.398 . S
C608 H635 0.929 . S
C609 O622 1.271 . S
C609 O623 1.251 . S
C610 O624 1.252 . S
C610 O625 1.272 1_655 S
C611 Sm601 2.846 . S
C611 C612 1.506 . S
C611 O626 1.261 . S
C611 O627 1.242 . S
C612 C611 1.506 . S
C612 C613 1.358 . S
C612 C617 1.382 . S
C613 C612 1.358 . S
C613 C614 1.385 . S
C613 H636 0.930 . S
C614 C613 1.385 . S
C614 C615 1.395 . S
C614 H637 0.929 . S
C615 C614 1.395 . S
C615 C616 1.335 . S
C616 C615 1.335 . S
C616 C617 1.398 . S
C616 H638 0.930 . S
C617 C612 1.382 . S
C617 C616 1.398 . S
C617 H639 0.929 . S
C618 O628 1.271 . S
C618 O629 1.251 . S
C619 O630 1.252 . S
C619 O631 1.272 . S
O620 Sm600 2.543 . S
O620 C602 1.261 . S
O621 Sm600 2.450 . S
O621 C602 1.242 . S
O622 Sm600 2.681 1_556 S
O622 Sm601 2.386 1_655 S
O622 C609 1.271 . S
O623 Sm600 2.464 1_556 S
O623 C609 1.251 . S
O624 Sm600 2.396 1_556 S
O624 C610 1.252 . S
O625 Sm601 2.408 . S
O625 C610 1.272 1_455 S
O626 Sm601 2.543 . S
O626 C611 1.261 . S
O627 Sm601 2.450 . S
O627 C611 1.242 . S
O628 Sm600 2.386 1_455 S
O628 Sm601 2.681 1_554 S
O628 C618 1.271 . S
O629 Sm601 2.464 1_554 S
O629 C618 1.251 . S
O630 Sm601 2.396 1_554 S
O630 C619 1.252 . S
O631 Sm600 2.408 1_455 S
O631 C619 1.272 . S
H632 C604 0.930 . S
H633 C605 0.929 . S
H634 C607 0.930 . S
H635 C608 0.929 . S
H636 C613 0.930 . S
H637 C614 0.929 . S
H638 C616 0.930 . S
H639 C617 0.929 . S
C640 C641 1.387 . S
C640 H644 0.950 . S
C640 C649 1.390 . S
C641 C640 1.387 . S
C641 C643 1.387 . S
H642 C649 0.950 . S
C643 C641 1.387 . S
C643 C645 1.390 . S
C643 H647 0.950 . S
H644 C640 0.950 . S
C645 C643 1.390 . S
C645 C646 1.387 . S
C645 H648 0.950 . S
C646 C645 1.387 . S
C646 C649 1.387 . S
H647 C643 0.950 . S
H648 C645 0.950 . S
C649 C640 1.390 . S
C649 H642 0.950 . S
C649 C646 1.387 . S
C650 C651 1.387 . S
C650 H654 0.950 . S
C650 C659 1.390 . S
C651 C650 1.387 . S
C651 C653 1.387 . S
H652 C659 0.950 . S
C653 C651 1.387 . S
C653 C655 1.390 . S
C653 H657 0.950 1_564 S
H654 C650 0.950 . S
C655 C653 1.390 . S
C655 C656 1.387 . S
C655 H658 0.950 1_554 S
C656 C655 1.387 . S
C656 C659 1.387 . S
H657 C653 0.950 1_546 S
H658 C655 0.950 1_556 S
C659 C650 1.390 . S
C659 H652 0.950 . S
C659 C656 1.387 . S
C660 C661 1.387 . S
C660 H664 0.950 . S
C660 C669 1.390 . S
C661 C660 1.387 . S
C661 C663 1.387 . S
H662 C669 0.950 . S
C663 C661 1.387 . S
C663 C665 1.390 . S
C663 H667 0.950 . S
H664 C660 0.950 . S
C665 C663 1.390 . S
C665 C666 1.387 . S
C665 H668 0.950 . S
C666 C665 1.387 . S
C666 C669 1.387 . S
H667 C663 0.950 . S
H668 C665 0.950 . S
C669 C660 1.390 . S
C669 H662 0.950 . S
C669 C666 1.387 . S
C670 C671 1.387 . S
C670 H674 0.950 . S
C670 C679 1.390 . S
C671 C670 1.387 . S
C671 C673 1.387 . S
H672 C679 0.950 . S
C673 C671 1.387 . S
C673 C675 1.390 . S
C673 H677 0.950 . S
H674 C670 0.950 . S
C675 C673 1.390 . S
C675 C676 1.387 . S
C675 H678 0.950 . S
C676 C675 1.387 . S
C676 C679 1.387 . S
H677 C673 0.950 . S
H678 C675 0.950 . S
C679 C670 1.390 . S
C679 H672 0.950 . S
C679 C676 1.387 . S
C680 C681 1.387 . S
C680 H684 0.950 . S
C680 C689 1.390 . S
C681 C680 1.387 . S
C681 C683 1.387 . S
H682 C689 0.950 . S
C683 C681 1.387 . S
C683 C685 1.390 . S
C683 H687 0.950 . S
H684 C680 0.950 . S
C685 C683 1.390 . S
C685 C686 1.387 . S
C685 H688 0.950 . S
C686 C685 1.387 . S
C686 C689 1.387 . S
H687 C683 0.950 . S
H688 C685 0.950 . S
C689 C680 1.390 . S
C689 H682 0.950 . S
C689 C686 1.387 . S
C690 C691 1.387 . S
C690 H694 0.950 . S
C690 C699 1.390 . S
C691 C690 1.387 . S
C691 C693 1.387 . S
H692 C699 0.950 . S
C693 C691 1.387 . S
C693 C695 1.390 . S
C693 H697 0.950 . S
H694 C690 0.950 . S
C695 C693 1.390 . S
C695 C696 1.387 . S
C695 H698 0.950 . S
C696 C695 1.387 . S
C696 C699 1.387 . S
H697 C693 0.950 . S
H698 C695 0.950 . S
C699 C690 1.390 . S
C699 H692 0.950 . S
C699 C696 1.387 . S
C700 C701 1.387 . S
C700 H704 0.950 . S
C700 C709 1.390 . S
C701 C700 1.387 . S
C701 C703 1.387 . S
H702 C709 0.950 . S
C703 C701 1.387 . S
C703 C705 1.390 . S
C703 H707 0.950 1_545 S
H704 C700 0.950 . S
C705 C703 1.390 . S
C705 C706 1.387 . S
C705 H708 0.950 1_545 S
C706 C705 1.387 . S
C706 C709 1.387 . S
H707 C703 0.950 1_565 S
H708 C705 0.950 1_565 S
C709 C700 1.390 . S
C709 H702 0.950 . S
C709 C706 1.387 . S
C710 C711 1.387 . S
C710 H714 0.950 . S
C710 C719 1.390 . S
C711 C710 1.387 . S
C711 C713 1.387 . S
H712 C719 0.950 . S
C713 C711 1.387 . S
C713 C715 1.390 . S
C713 H717 0.950 . S
H714 C710 0.950 . S
C715 C713 1.390 . S
C715 C716 1.387 . S
C715 H718 0.950 . S
C716 C715 1.387 . S
C716 C719 1.387 . S
H717 C713 0.950 . S
H718 C715 0.950 . S
C719 C710 1.390 . S
C719 H712 0.950 . S
C719 C716 1.387 . S
C720 C721 1.387 . S
C720 H724 0.950 . S
C720 C729 1.390 . S
C721 C720 1.387 . S
C721 C723 1.387 1_655 S
H722 C729 0.950 . S
C723 C721 1.387 1_455 S
C723 C725 1.390 . S
C723 H727 0.950 . S
H724 C720 0.950 . S
C725 C723 1.390 . S
C725 C726 1.387 1_455 S
C725 H728 0.950 . S
C726 C725 1.387 1_655 S
C726 C729 1.387 . S
H727 C723 0.950 . S
H728 C725 0.950 . S
C729 C720 1.390 . S
C729 H722 0.950 . S
C729 C726 1.387 . S
C730 C731 1.387 . S
C730 H734 0.950 . S
C730 C739 1.390 . S
C731 C730 1.387 . S
C731 C733 1.387 . S
H732 C739 0.950 . S
C733 C731 1.387 . S
C733 C735 1.390 . S
C733 H737 0.950 . S
H734 C730 0.950 . S
C735 C733 1.390 . S
C735 C736 1.387 . S
C735 H738 0.950 . S
C736 C735 1.387 . S
C736 C739 1.387 . S
H737 C733 0.950 . S
H738 C735 0.950 . S
C739 C730 1.390 . S
C739 H732 0.950 . S
C739 C736 1.387 . S
C740 C741 1.387 . S
C740 H744 0.950 . S
C740 C749 1.390 . S
C741 C740 1.387 . S
C741 C743 1.387 . S
H742 C749 0.950 . S
C743 C741 1.387 . S
C743 C745 1.390 . S
C743 H747 0.950 . S
H744 C740 0.950 . S
C745 C743 1.390 . S
C745 C746 1.387 . S
C745 H748 0.950 . S
C746 C745 1.387 . S
C746 C749 1.387 . S
H747 C743 0.950 . S
H748 C745 0.950 . S
C749 C740 1.390 . S
C749 H742 0.950 . S
C749 C746 1.387 . S
C750 C751 1.387 . S
C750 H754 0.950 . S
C750 C759 1.390 . S
C751 C750 1.387 . S
C751 C753 1.387 . S
H752 C759 0.950 . S
C753 C751 1.387 . S
C753 C755 1.390 . S
C753 H757 0.950 . S
H754 C750 0.950 . S
C755 C753 1.390 . S
C755 C756 1.387 . S
C755 H758 0.950 . S
C756 C755 1.387 . S
C756 C759 1.387 . S
H757 C753 0.950 . S
H758 C755 0.950 . S
C759 C750 1.390 . S
C759 H752 0.950 . S
C759 C756 1.387 . S
C760 C761 1.387 . S
C760 H764 0.950 . S
C760 C769 1.390 . S
C761 C760 1.387 . S
C761 C763 1.387 . S
H762 C769 0.950 . S
C763 C761 1.387 . S
C763 C765 1.390 . S
C763 H767 0.950 . S
H764 C760 0.950 . S
C765 C763 1.390 . S
C765 C766 1.387 . S
C765 H768 0.950 . S
C766 C765 1.387 . S
C766 C769 1.387 . S
H767 C763 0.950 . S
H768 C765 0.950 . S
C769 C760 1.390 . S
C769 H762 0.950 . S
C769 C766 1.387 . S
C770 C771 1.387 . S
C770 H774 0.950 . S
C770 C779 1.390 . S
C771 C770 1.387 . S
C771 C773 1.387 . S
H772 C779 0.950 . S
C773 C771 1.387 . S
C773 C775 1.390 . S
C773 H777 0.950 . S
H774 C770 0.950 . S
C775 C773 1.390 . S
C775 C776 1.387 . S
C775 H778 0.950 . S
C776 C775 1.387 . S
C776 C779 1.387 . S
H777 C773 0.950 . S
H778 C775 0.950 . S
C779 C770 1.390 . S
C779 H772 0.950 . S
C779 C776 1.387 . S
C780 C781 1.387 . S
C780 H784 0.950 . S
C780 C789 1.390 . S
C781 C780 1.387 . S
C781 C783 1.387 . S
H782 C789 0.950 . S
C783 C781 1.387 . S
C783 C785 1.390 . S
C783 H787 0.950 . S
H784 C780 0.950 . S
C785 C783 1.390 . S
C785 C786 1.387 . S
C785 H788 0.950 . S
C786 C785 1.387 . S
C786 C789 1.387 . S
H787 C783 0.950 . S
H788 C785 0.950 . S
C789 C780 1.390 . S
C789 H782 0.950 . S
C789 C786 1.387 . S
C790 C791 1.387 . S
C790 H794 0.950 . S
C790 C799 1.390 . S
C791 C790 1.387 . S
C791 C793 1.387 . S
H792 C799 0.950 . S
C793 C791 1.387 . S
C793 C795 1.390 . S
C793 H797 0.950 . S
H794 C790 0.950 . S
C795 C793 1.390 . S
C795 C796 1.387 . S
C795 H798 0.950 . S
C796 C795 1.387 . S
C796 C799 1.387 . S
H797 C793 0.950 . S
H798 C795 0.950 . S
C799 C790 1.390 . S
C799 H792 0.950 . S
C799 C796 1.387 . S
C800 C801 1.387 . S
C800 H804 0.950 . S
C800 C809 1.390 . S
C801 C800 1.387 . S
C801 C803 1.387 . S
H802 C809 0.950 . S
C803 C801 1.387 . S
C803 C805 1.390 . S
C803 H807 0.950 . S
H804 C800 0.950 . S
C805 C803 1.390 . S
C805 C806 1.387 . S
C805 H808 0.950 . S
C806 C805 1.387 . S
C806 C809 1.387 . S
H807 C803 0.950 . S
H808 C805 0.950 . S
C809 C800 1.390 . S
C809 H802 0.950 . S
C809 C806 1.387 . S
C810 C811 1.387 . S
C810 H814 0.950 . S
C810 C819 1.390 . S
C811 C810 1.387 . S
C811 C813 1.387 . S
H812 C819 0.950 . S
C813 C811 1.387 . S
C813 C815 1.390 . S
C813 H817 0.950 . S
H814 C810 0.950 . S
C815 C813 1.390 . S
C815 C816 1.387 . S
C815 H818 0.950 . S
C816 C815 1.387 . S
C816 C819 1.387 . S
H817 C813 0.950 . S
H818 C815 0.950 . S
C819 C810 1.390 . S
C819 H812 0.950 . S
C819 C816 1.387 . S
C820 C821 1.387 . S
C820 H824 0.950 . S
C820 C829 1.390 . S
C821 C820 1.387 . S
C821 C823 1.387 . S
H822 C829 0.950 . S
C823 C821 1.387 . S
C823 C825 1.390 . S
C823 H827 0.950 . S
H824 C820 0.950 . S
C825 C823 1.390 . S
C825 C826 1.387 . S
C825 H828 0.950 . S
C826 C825 1.387 . S
C826 C829 1.387 . S
H827 C823 0.950 . S
H828 C825 0.950 . S
C829 C820 1.390 . S
C829 H822 0.950 . S
C829 C826 1.387 . S
C830 C831 1.387 . S
C830 H834 0.950 . S
C830 C839 1.390 . S
C831 C830 1.387 . S
C831 C833 1.387 . S
H832 C839 0.950 . S
C833 C831 1.387 . S
C833 C835 1.390 . S
C833 H837 0.950 . S
H834 C830 0.950 . S
C835 C833 1.390 . S
C835 C836 1.387 . S
C835 H838 0.950 . S
C836 C835 1.387 . S
C836 C839 1.387 . S
H837 C833 0.950 . S
H838 C835 0.950 . S
C839 C830 1.390 . S
C839 H832 0.950 . S
C839 C836 1.387 . S
C840 C841 1.387 . S
C840 H844 0.950 . S
C840 C849 1.390 . S
C841 C840 1.387 . S
C841 C843 1.387 . S
H842 C849 0.950 . S
C843 C841 1.387 . S
C843 C845 1.390 . S
C843 H847 0.950 . S
H844 C840 0.950 . S
C845 C843 1.390 . S
C845 C846 1.387 . S
C845 H848 0.950 . S
C846 C845 1.387 . S
C846 C849 1.387 . S
H847 C843 0.950 . S
H848 C845 0.950 . S
C849 C840 1.390 . S
C849 H842 0.950 . S
C849 C846 1.387 . S
C850 C851 1.387 . S
C850 H854 0.950 . S
C850 C859 1.390 . S
C851 C850 1.387 . S
C851 C853 1.387 . S
H852 C859 0.950 . S
C853 C851 1.387 . S
C853 C855 1.390 . S
C853 H857 0.950 . S
H854 C850 0.950 . S
C855 C853 1.390 . S
C855 C856 1.387 . S
C855 H858 0.950 . S
C856 C855 1.387 . S
C856 C859 1.387 . S
H857 C853 0.950 . S
H858 C855 0.950 . S
C859 C850 1.390 . S
C859 H852 0.950 . S
C859 C856 1.387 . S
C860 C861 1.387 . S
C860 H864 0.950 1_556 S
C860 C869 1.390 . S
C861 C860 1.387 . S
C861 C863 1.387 . S
H862 C869 0.950 1_554 S
C863 C861 1.387 . S
C863 C865 1.390 . S
C863 H867 0.950 . S
H864 C860 0.950 1_554 S
C865 C863 1.390 . S
C865 C866 1.387 . S
C865 H868 0.950 . S
C866 C865 1.387 . S
C866 C869 1.387 . S
H867 C863 0.950 . S
H868 C865 0.950 . S
C869 C860 1.390 . S
C869 H862 0.950 1_556 S
C869 C866 1.387 . S
C870 C871 1.387 . S
C870 H874 0.950 . S
C870 C879 1.390 . S
C871 C870 1.387 . S
C871 C873 1.387 . S
H872 C879 0.950 . S
C873 C871 1.387 . S
C873 C875 1.390 . S
C873 H877 0.950 . S
H874 C870 0.950 . S
C875 C873 1.390 . S
C875 C876 1.387 . S
C875 H878 0.950 . S
C876 C875 1.387 . S
C876 C879 1.387 . S
H877 C873 0.950 . S
H878 C875 0.950 . S
C879 C870 1.390 . S
C879 H872 0.950 . S
C879 C876 1.387 . S
C880 C881 1.387 . S
C880 H884 0.950 . S
C880 C889 1.390 . S
C881 C880 1.387 . S
C881 C883 1.387 . S
H882 C889 0.950 . S
C883 C881 1.387 . S
C883 C885 1.390 . S
C883 H887 0.950 . S
H884 C880 0.950 . S
C885 C883 1.390 . S
C885 C886 1.387 . S
C885 H888 0.950 . S
C886 C885 1.387 . S
C886 C889 1.387 . S
H887 C883 0.950 . S
H888 C885 0.950 . S
C889 C880 1.390 . S
C889 H882 0.950 . S
C889 C886 1.387 . S
C890 C891 1.387 . S
C890 H894 0.950 . S
C890 C899 1.390 . S
C891 C890 1.387 . S
C891 C893 1.387 . S
H892 C899 0.950 . S
C893 C891 1.387 . S
C893 C895 1.390 . S
C893 H897 0.950 . S
H894 C890 0.950 . S
C895 C893 1.390 . S
C895 C896 1.387 . S
C895 H898 0.950 . S
C896 C895 1.387 . S
C896 C899 1.387 . S
H897 C893 0.950 . S
H898 C895 0.950 . S
C899 C890 1.390 . S
C899 H892 0.950 . S
C899 C896 1.387 . S
C900 C901 1.387 . S
C900 H904 0.950 . S
C900 C909 1.390 . S
C901 C900 1.387 . S
C901 C903 1.387 . S
H902 C909 0.950 . S
C903 C901 1.387 . S
C903 C905 1.390 . S
C903 H907 0.950 . S
H904 C900 0.950 . S
C905 C903 1.390 . S
C905 C906 1.387 . S
C905 H908 0.950 . S
C906 C905 1.387 . S
C906 C909 1.387 . S
H907 C903 0.950 . S
H908 C905 0.950 . S
C909 C900 1.390 . S
C909 H902 0.950 . S
C909 C906 1.387 . S
C910 C911 1.387 . S
C910 H914 0.950 1_565 S
C910 C919 1.390 . S
C911 C910 1.387 . S
C911 C913 1.387 . S
H912 C919 0.950 1_545 S
C913 C911 1.387 . S
C913 C915 1.390 . S
C913 H917 0.950 . S
H914 C910 0.950 1_545 S
C915 C913 1.390 . S
C915 C916 1.387 . S
C915 H918 0.950 . S
C916 C915 1.387 . S
C916 C919 1.387 . S
H917 C913 0.950 . S
H918 C915 0.950 . S
C919 C910 1.390 . S
C919 H912 0.950 1_565 S
C919 C916 1.387 . S
C920 C921 1.387 . S
C920 H924 0.950 . S
C920 C929 1.390 . S
C921 C920 1.387 . S
C921 C923 1.387 . S
H922 C929 0.950 . S
C923 C921 1.387 . S
C923 C925 1.390 . S
C923 H927 0.950 . S
H924 C920 0.950 . S
C925 C923 1.390 . S
C925 C926 1.387 . S
C925 H928 0.950 . S
C926 C925 1.387 . S
C926 C929 1.387 . S
H927 C923 0.950 . S
H928 C925 0.950 . S
C929 C920 1.390 . S
C929 H922 0.950 . S
C929 C926 1.387 . S
C930 C931 1.387 . S
C930 H934 0.950 . S
C930 C939 1.390 . S
C931 C930 1.387 . S
C931 C933 1.387 . S
H932 C939 0.945 1_655 S
C933 C931 1.387 . S
C933 C935 1.390 . S
C933 H937 0.950 . S
H934 C930 0.950 . S
C935 C933 1.390 . S
C935 C936 1.387 . S
C935 H938 0.950 . S
C936 C935 1.387 . S
C936 C939 1.387 . S
H937 C933 0.950 . S
H938 C935 0.950 . S
C939 C930 1.390 . S
C939 H932 0.945 1_455 S
C939 C936 1.387 . S
C940 C941 1.387 . S
C940 H944 0.950 . S
C940 C949 1.390 . S
C941 C940 1.387 . S
C941 C943 1.387 . S
H942 C949 0.950 . S
C943 C941 1.387 . S
C943 C945 1.390 . S
C943 H947 0.950 . S
H944 C940 0.950 . S
C945 C943 1.390 . S
C945 C946 1.387 . S
C945 H948 0.950 . S
C946 C945 1.387 . S
C946 C949 1.387 . S
H947 C943 0.950 . S
H948 C945 0.950 . S
C949 C940 1.390 . S
C949 H942 0.950 . S
C949 C946 1.387 . S
C950 C951 1.387 . S
C950 H954 0.950 . S
C950 C959 1.390 . S
C951 C950 1.387 . S
C951 C953 1.387 . S
H952 C959 0.950 . S
C953 C951 1.387 . S
C953 C955 1.390 . S
C953 H957 0.950 . S
H954 C950 0.950 . S
C955 C953 1.390 . S
C955 C956 1.387 . S
C955 H958 0.950 . S
C956 C955 1.387 . S
C956 C959 1.387 . S
H957 C953 0.950 . S
H958 C955 0.950 . S
C959 C950 1.390 . S
C959 H952 0.950 . S
C959 C956 1.387 . S
C960 C961 1.387 . S
C960 H964 0.950 . S
C960 C969 1.390 . S
C961 C960 1.387 . S
C961 C963 1.387 . S
H962 C969 0.950 . S
C963 C961 1.387 . S
C963 C965 1.390 . S
C963 H967 0.950 . S
H964 C960 0.950 . S
C965 C963 1.390 . S
C965 C966 1.387 . S
C965 H968 0.950 . S
C966 C965 1.387 . S
C966 C969 1.387 . S
H967 C963 0.950 . S
H968 C965 0.950 . S
C969 C960 1.390 . S
C969 H962 0.950 . S
C969 C966 1.387 . S
C970 C971 1.387 . S
C970 H974 0.950 . S
C970 C979 1.390 . S
C971 C970 1.387 . S
C971 C973 1.387 . S
H972 C979 0.950 . S
C973 C971 1.387 . S
C973 C975 1.390 . S
C973 H977 0.950 . S
H974 C970 0.950 . S
C975 C973 1.390 . S
C975 C976 1.387 . S
C975 H978 0.950 . S
C976 C975 1.387 . S
C976 C979 1.387 . S
H977 C973 0.950 . S
H978 C975 0.950 . S
C979 C970 1.390 . S
C979 H972 0.950 . S
C979 C976 1.387 . S
C980 C981 1.387 . S
C980 H984 0.950 . S
C980 C989 1.390 . S
C981 C980 1.387 . S
C981 C983 1.387 . S
H982 C989 0.950 . S
C983 C981 1.387 . S
C983 C985 1.390 . S
C983 H987 0.950 . S
H984 C980 0.950 . S
C985 C983 1.390 . S
C985 C986 1.387 . S
C985 H988 0.950 . S
C986 C985 1.387 . S
C986 C989 1.387 . S
H987 C983 0.950 . S
H988 C985 0.950 . S
C989 C980 1.390 . S
C989 H982 0.950 . S
C989 C986 1.387 . S
C990 C991 1.387 . S
C990 H994 0.950 . S
C990 C999 1.390 . S
C991 C990 1.387 . S
C991 C993 1.387 . S
H992 C999 0.950 . S
C993 C991 1.387 . S
C993 C995 1.390 . S
C993 H997 0.950 . S
H994 C990 0.950 . S
C995 C993 1.390 . S
C995 C996 1.387 . S
C995 H998 0.950 . S
C996 C995 1.387 . S
C996 C999 1.387 . S
H997 C993 0.950 . S
H998 C995 0.950 . S
C999 C990 1.390 . S
C999 H992 0.950 . S
C999 C996 1.387 . S
C1000 C1001 1.387 . S
C1000 H1004 0.950 . S
C1000 C1009 1.390 . S
C1001 C1000 1.387 . S
C1001 C1003 1.387 . S
H1002 C1009 0.950 . S
C1003 C1001 1.387 . S
C1003 C1005 1.390 . S
C1003 H1007 0.950 . S
H1004 C1000 0.950 . S
C1005 C1003 1.390 . S
C1005 C1006 1.387 . S
C1005 H1008 0.950 . S
C1006 C1005 1.387 . S
C1006 C1009 1.387 . S
H1007 C1003 0.950 . S
H1008 C1005 0.950 . S
C1009 C1000 1.390 . S
C1009 H1002 0.950 . S
C1009 C1006 1.387 . S
C1010 C1011 1.387 . S
C1010 H1014 0.950 . S
C1010 C1019 1.390 . S
C1011 C1010 1.387 . S
C1011 C1013 1.387 . S
H1012 C1019 0.950 . S
C1013 C1011 1.387 . S
C1013 C1015 1.390 . S
C1013 H1017 0.950 . S
H1014 C1010 0.950 . S
C1015 C1013 1.390 . S
C1015 C1016 1.387 . S
C1015 H1018 0.950 . S
C1016 C1015 1.387 . S
C1016 C1019 1.387 . S
H1017 C1013 0.950 . S
H1018 C1015 0.950 . S
C1019 C1010 1.390 . S
C1019 H1012 0.950 . S
C1019 C1016 1.387 . S
C1020 C1021 1.387 . S
C1020 H1024 0.950 . S
C1020 C1029 1.390 . S
C1021 C1020 1.387 . S
C1021 C1023 1.387 . S
H1022 C1029 0.950 . S
C1023 C1021 1.387 . S
C1023 C1025 1.390 . S
C1023 H1027 0.950 . S
H1024 C1020 0.950 . S
C1025 C1023 1.390 . S
C1025 C1026 1.387 . S
C1025 H1028 0.950 . S
C1026 C1025 1.387 . S
C1026 C1029 1.387 . S
H1027 C1023 0.950 . S
H1028 C1025 0.950 . S
C1029 C1020 1.390 . S
C1029 H1022 0.950 . S
C1029 C1026 1.387 . S
C1030 C1031 1.387 . S
C1030 H1034 0.950 . S
C1030 C1039 1.390 . S
C1031 C1030 1.387 . S
C1031 C1033 1.387 . S
H1032 C1039 0.950 . S
C1033 C1031 1.387 . S
C1033 C1035 1.390 . S
C1033 H1037 0.950 . S
H1034 C1030 0.950 . S
C1035 C1033 1.390 . S
C1035 C1036 1.387 . S
C1035 H1038 0.950 . S
C1036 C1035 1.387 . S
C1036 C1039 1.387 . S
H1037 C1033 0.950 . S
H1038 C1035 0.950 . S
C1039 C1030 1.390 . S
C1039 H1032 0.950 . S
C1039 C1036 1.387 . S
C1040 C1041 1.387 . S
C1040 H1044 0.950 . S
C1040 C1049 1.390 . S
C1041 C1040 1.387 . S
C1041 C1043 1.387 . S
H1042 C1049 0.950 . S
C1043 C1041 1.387 . S
C1043 C1045 1.390 . S
C1043 H1047 0.950 . S
H1044 C1040 0.950 . S
C1045 C1043 1.390 . S
C1045 C1046 1.387 . S
C1045 H1048 0.950 . S
C1046 C1045 1.387 . S
C1046 C1049 1.387 . S
H1047 C1043 0.950 . S
H1048 C1045 0.950 . S
C1049 C1040 1.390 . S
C1049 H1042 0.950 . S
C1049 C1046 1.387 . S
C1050 C1051 1.387 . S
C1050 H1054 0.950 . S
C1050 C1059 1.390 . S
C1051 C1050 1.387 . S
C1051 C1053 1.387 . S
H1052 C1059 0.950 . S
C1053 C1051 1.387 . S
C1053 C1055 1.390 . S
C1053 H1057 0.950 . S
H1054 C1050 0.950 . S
C1055 C1053 1.390 . S
C1055 C1056 1.387 . S
C1055 H1058 0.950 . S
C1056 C1055 1.387 . S
C1056 C1059 1.387 . S
H1057 C1053 0.950 . S
H1058 C1055 0.950 . S
C1059 C1050 1.390 . S
C1059 H1052 0.950 . S
C1059 C1056 1.387 . S
C1060 C1061 1.387 . S
C1060 H1064 0.950 . S
C1060 C1069 1.390 . S
C1061 C1060 1.387 . S
C1061 C1063 1.387 . S
H1062 C1069 0.950 . S
C1063 C1061 1.387 . S
C1063 C1065 1.390 . S
C1063 H1067 0.950 . S
H1064 C1060 0.950 . S
C1065 C1063 1.390 . S
C1065 C1066 1.387 . S
C1065 H1068 0.950 . S
C1066 C1065 1.387 . S
C1066 C1069 1.387 . S
H1067 C1063 0.950 . S
H1068 C1065 0.950 . S
C1069 C1060 1.390 . S
C1069 H1062 0.950 . S
C1069 C1066 1.387 . S
C1070 C1071 1.387 . S
C1070 H1074 0.950 . S
C1070 C1079 1.390 . S
C1071 C1070 1.387 . S
C1071 C1073 1.387 . S
H1072 C1079 0.950 . S
C1073 C1071 1.387 . S
C1073 C1075 1.390 . S
C1073 H1077 0.950 . S
H1074 C1070 0.950 . S
C1075 C1073 1.390 . S
C1075 C1076 1.387 . S
C1075 H1078 0.950 . S
C1076 C1075 1.387 . S
C1076 C1079 1.387 . S
H1077 C1073 0.950 . S
H1078 C1075 0.950 . S
C1079 C1070 1.390 . S
C1079 H1072 0.950 . S
C1079 C1076 1.387 . S
C1080 C1081 1.387 . S
C1080 H1084 0.950 . S
C1080 C1089 1.390 . S
C1081 C1080 1.387 . S
C1081 C1083 1.387 . S
H1082 C1089 0.950 . S
C1083 C1081 1.387 . S
C1083 C1085 1.390 . S
C1083 H1087 0.950 . S
H1084 C1080 0.950 . S
C1085 C1083 1.390 . S
C1085 C1086 1.387 . S
C1085 H1088 0.950 . S
C1086 C1085 1.387 . S
C1086 C1089 1.387 . S
H1087 C1083 0.950 . S
H1088 C1085 0.950 . S
C1089 C1080 1.390 . S
C1089 H1082 0.950 . S
C1089 C1086 1.387 . S
C1090 C1091 1.387 . S
C1090 H1094 0.950 . S
C1090 C1099 1.390 . S
C1091 C1090 1.387 . S
C1091 C1093 1.387 . S
H1092 C1099 0.950 . S
C1093 C1091 1.387 . S
C1093 C1095 1.390 . S
C1093 H1097 0.950 . S
H1094 C1090 0.950 . S
C1095 C1093 1.390 . S
C1095 C1096 1.387 . S
C1095 H1098 0.950 . S
C1096 C1095 1.387 . S
C1096 C1099 1.387 . S
H1097 C1093 0.950 . S
H1098 C1095 0.950 . S
C1099 C1090 1.390 . S
C1099 H1092 0.950 . S
C1099 C1096 1.387 . S
C1100 C1101 1.387 . S
C1100 H1104 0.950 . S
C1100 C1109 1.390 . S
C1101 C1100 1.387 . S
C1101 C1103 1.387 . S
H1102 C1109 0.950 . S
C1103 C1101 1.387 . S
C1103 C1105 1.390 . S
C1103 H1107 0.950 . S
H1104 C1100 0.950 . S
C1105 C1103 1.390 . S
C1105 C1106 1.387 . S
C1105 H1108 0.950 . S
C1106 C1105 1.387 . S
C1106 C1109 1.387 . S
H1107 C1103 0.950 . S
H1108 C1105 0.950 . S
C1109 C1100 1.390 . S
C1109 H1102 0.950 . S
C1109 C1106 1.387 . S
C1110 C1111 1.387 . S
C1110 H1114 0.950 . S
C1110 C1119 1.390 . S
C1111 C1110 1.387 . S
C1111 C1113 1.387 . S
H1112 C1119 0.950 . S
C1113 C1111 1.387 . S
C1113 C1115 1.390 . S
C1113 H1117 0.950 . S
H1114 C1110 0.950 . S
C1115 C1113 1.390 . S
C1115 C1116 1.387 . S
C1115 H1118 0.950 . S
C1116 C1115 1.387 . S
C1116 C1119 1.387 . S
H1117 C1113 0.950 . S
H1118 C1115 0.950 . S
C1119 C1110 1.390 . S
C1119 H1112 0.950 . S
C1119 C1116 1.387 . S
C641 C139 1.949 . S
C646 C18 1.952 . S
C651 C10 1.448 . S
C656 C55 1.320 . S
C661 C89 1.181 . S
C666 C58 1.125 . S
C671 C126 1.944 . S
C676 C86 1.935 . S
C681 C166 1.449 . S
C686 C210 1.530 . S
C691 C218 1.261 . S
C696 C258 1.249 . S
C701 C255 1.390 . S
C706 C286 1.336 . S
C711 C179 2.013 . S
C716 C289 2.079 . S
C721 C375 1.298 . S
C726 C15 1.278 1_655 S
C731 C410 1.864 . S
C736 C50 1.811 . S
C741 C99 3.902 . S
C746 C539 3.884 . S
C751 C329 1.108 . S
C756 C129 1.178 . S
C761 C449 1.178 . S
C766 C169 1.107 . S
C771 C575 1.278 . S
C776 C215 1.297 . S
C781 C250 1.863 . S
C786 C490 1.813 . S
C791 C619 3.902 . S
C796 C299 3.884 . S
C801 C339 2.011 . S
C806 C529 2.078 . S
C811 C370 1.530 . S
C816 C326 1.449 . S
C821 C418 1.250 . S
C826 C378 1.261 . S
C831 C578 1.952 . S
C836 C459 1.949 . S
C841 C498 1.125 . S
C846 C609 1.182 . S
C851 C450 1.949 . S
C856 C9 1.952 . S
C861 C486 1.320 . S
C866 C19 1.447 . S
C871 C489 1.126 . S
C876 C98 1.182 . S
C881 C95 1.935 . S
C886 C455 1.944 . S
C891 C379 1.527 . S
C896 C175 1.447 . S
C901 C369 1.260 . S
C906 C249 1.251 . S
C911 C535 1.336 . S
C916 C246 1.390 . S
C921 C170 2.014 . S
C926 C538 2.079 . S
C931 C206 1.298 . S
C936 C6 1.276 . S
C941 C419 1.864 . S
C946 C499 1.813 . S
C951 C90 3.901 . S
C956 C290 3.885 . S
C961 C338 1.109 . S
C966 C458 1.177 . S
C971 C138 1.177 . S
C976 C178 1.110 . S
C981 C366 1.297 . S
C986 C566 1.277 . S
C991 C259 1.863 . S
C996 C59 1.811 . S
C1001 C610 3.901 . S
C1006 C530 3.885 . S
C1011 C330 2.012 . S
C1016 C298 2.079 . S
C1021 C335 1.447 . S
C1026 C219 1.527 . S
C1031 C409 1.251 . S
C1036 C209 1.260 . S
C1041 C130 1.948 . S
C1046 C569 1.951 . S
C1051 C49 1.124 . S
C1056 C618 1.181 . S
C1061 C495 1.320 . S
C1066 C570 1.446 . S
C1071 C446 1.945 . S
C1076 C606 1.937 . S
C1081 C415 1.391 . S
C1086 C526 1.335 . S
C1091 C579 1.446 . S
C1096 C46 1.320 . S
C1101 C135 1.942 . S
C1106 C615 1.934 . S
C1111 C295 1.336 . S
C1116 C406 1.390 . S
