# Generated by pormake.
# Topology ske, (6)-cn, num edge types: 1
# Building blocks:
#     Node 0, Type 0, BuildingBlock: BETDEL_clean_sbu_0, # of connection points: 6
#     Node 1, Type 0, BuildingBlock: BETDEL_clean_sbu_0, # of connection points: 6
#     Node 2, Type 0, BuildingBlock: BETDEL_clean_sbu_0, # of connection points: 6
#     Node 3, Type 0, BuildingBlock: BETDEL_clean_sbu_0, # of connection points: 6
#     Node 4, Type 0, BuildingBlock: BETDEL_clean_sbu_0, # of connection points: 6
#     Node 5, Type 0, BuildingBlock: BETDEL_clean_sbu_0, # of connection points: 6
#     Node 6, Type 0, BuildingBlock: BETDEL_clean_sbu_0, # of connection points: 6
#     Node 7, Type 0, BuildingBlock: BETDEL_clean_sbu_0, # of connection points: 6
#     Edge 8, Type (0, 0), BuildingBlock: EZIPEK_clean_linker_0, # of connection points: 2
#     Edge 9, Type (0, 0), BuildingBlock: EZIPEK_clean_linker_0, # of connection points: 2
#     Edge 10, Type (0, 0), BuildingBlock: EZIPEK_clean_linker_0, # of connection points: 2
#     Edge 11, Type (0, 0), BuildingBlock: EZIPEK_clean_linker_0, # of connection points: 2
#     Edge 12, Type (0, 0), BuildingBlock: EZIPEK_clean_linker_0, # of connection points: 2
#     Edge 13, Type (0, 0), BuildingBlock: EZIPEK_clean_linker_0, # of connection points: 2
#     Edge 14, Type (0, 0), BuildingBlock: EZIPEK_clean_linker_0, # of connection points: 2
#     Edge 15, Type (0, 0), BuildingBlock: EZIPEK_clean_linker_0, # of connection points: 2
#     Edge 16, Type (0, 0), BuildingBlock: EZIPEK_clean_linker_0, # of connection points: 2
#     Edge 17, Type (0, 0), BuildingBlock: EZIPEK_clean_linker_0, # of connection points: 2
#     Edge 18, Type (0, 0), BuildingBlock: EZIPEK_clean_linker_0, # of connection points: 2
#     Edge 19, Type (0, 0), BuildingBlock: EZIPEK_clean_linker_0, # of connection points: 2
#     Edge 20, Type (0, 0), BuildingBlock: EZIPEK_clean_linker_0, # of connection points: 2
#     Edge 21, Type (0, 0), BuildingBlock: EZIPEK_clean_linker_0, # of connection points: 2
#     Edge 22, Type (0, 0), BuildingBlock: EZIPEK_clean_linker_0, # of connection points: 2
#     Edge 23, Type (0, 0), BuildingBlock: EZIPEK_clean_linker_0, # of connection points: 2
#     Edge 24, Type (0, 0), BuildingBlock: EZIPEK_clean_linker_0, # of connection points: 2
#     Edge 25, Type (0, 0), BuildingBlock: EZIPEK_clean_linker_0, # of connection points: 2
#     Edge 26, Type (0, 0), BuildingBlock: EZIPEK_clean_linker_0, # of connection points: 2
#     Edge 27, Type (0, 0), BuildingBlock: EZIPEK_clean_linker_0, # of connection points: 2
#     Edge 28, Type (0, 0), BuildingBlock: EZIPEK_clean_linker_0, # of connection points: 2
#     Edge 29, Type (0, 0), BuildingBlock: EZIPEK_clean_linker_0, # of connection points: 2
#     Edge 30, Type (0, 0), BuildingBlock: EZIPEK_clean_linker_0, # of connection points: 2
#     Edge 31, Type (0, 0), BuildingBlock: EZIPEK_clean_linker_0, # of connection points: 2
# Relax obj value: 0.151
# Max RMSD: 0.162
# Mean RMSD: 0.159
data_MOF--net-ske--node1-BETDEL_clean_sbu_0--edge1-EZIPEK_clean_linker_0
_symmetry_space_group_name_H-M    P1
_symmetry_Int_Tables_number       1
_symmetry_cell_setting            triclinic
loop_
_symmetry_equiv_pos_as_xyz
'x, y, z'
_cell_length_a     55.291531
_cell_length_b     20.986983
_cell_length_c     11.367465
_cell_angle_alpha  90.021929
_cell_angle_beta   90.035479
_cell_angle_gamma 84.638477
loop_
_atom_site_label
_atom_site_type_symbol
_atom_site_fract_x
_atom_site_fract_y
_atom_site_fract_z
_atom_type_partial_charge
Dy0 Dy 0.1746 0.25968 0.52522 0.0
C1 C 0.06953 0.24259 0.51405 0.0
C2 C 0.2209 0.26471 0.60513 0.0
Dy3 Dy 0.11732 0.26389 0.51744 0.0
O4 O 0.20648 0.22214 0.63409 0.0
O5 O 0.21039 0.30441 0.52808 0.0
O6 O 0.17765 0.16328 0.44001 0.0
O7 O 0.14754 0.18979 0.54855 0.0
C8 C 0.15696 0.14722 0.47859 0.0
C9 C 0.13168 0.38419 0.50819 0.0
O10 O 0.12491 0.24545 0.70875 0.0
O11 O 0.16285 0.28404 0.70953 0.0
O12 O 0.08001 0.27336 0.59572 0.0
O13 O 0.08535 0.22119 0.43516 0.0
O14 O 0.10915 0.37223 0.50338 0.0
O15 O 0.14434 0.33156 0.5164 0.0
O16 O 0.16701 0.28573 0.33599 0.0
O17 O 0.12874 0.24687 0.32984 0.0
C18 C 0.14377 0.26536 0.76519 0.0
C19 C 0.14792 0.26775 0.27672 0.0
Dy20 Dy 0.86161 0.26276 0.56535 0.0
C21 C 0.96489 0.25004 0.52381 0.0
C22 C 0.81413 0.26497 0.63649 0.0
Dy23 Dy 0.91597 0.24761 0.55614 0.0
O24 O 0.82813 0.31035 0.65199 0.0
O25 O 0.8258 0.21832 0.57788 0.0
O26 O 0.86015 0.35754 0.47799 0.0
O27 O 0.88965 0.33021 0.59046 0.0
C28 C 0.88092 0.37219 0.5178 0.0
C29 C 0.89618 0.13606 0.58667 0.0
O30 O 0.91154 0.26411 0.74924 0.0
O31 O 0.8718 0.23905 0.75181 0.0
O32 O 0.95158 0.21026 0.47393 0.0
O33 O 0.95155 0.28919 0.59063 0.0
O34 O 0.91652 0.14934 0.6331 0.0
O35 O 0.88807 0.18193 0.52182 0.0
O36 O 0.86539 0.24448 0.37204 0.0
O37 O 0.90583 0.26692 0.36691 0.0
C38 C 0.89189 0.25079 0.80654 0.0
C39 C 0.88534 0.25569 0.31344 0.0
Dy40 Dy 0.1175 0.76839 0.44349 0.0
C41 C 0.21973 0.7644 0.3672 0.0
C42 C 0.06876 0.75807 0.46956 0.0
Dy43 Dy 0.17246 0.76193 0.43868 0.0
O44 O 0.08079 0.80042 0.52069 0.0
O45 O 0.08343 0.72032 0.406 0.0
O46 O 0.11485 0.86789 0.36888 0.0
O47 O 0.14396 0.8384 0.47851 0.0
C48 C 0.13503 0.88339 0.41367 0.0
C49 C 0.15529 0.64829 0.47894 0.0
O50 O 0.16594 0.78439 0.62945 0.0
O51 O 0.12825 0.74414 0.62979 0.0
O52 O 0.2056 0.72069 0.34166 0.0
O53 O 0.20835 0.80691 0.43626 0.0
O54 O 0.17556 0.66496 0.52161 0.0
O55 O 0.14611 0.69145 0.40991 0.0
O56 O 0.12362 0.7504 0.25203 0.0
O57 O 0.1617 0.787 0.25343 0.0
C58 C 0.14691 0.76524 0.68648 0.0
C59 C 0.14278 0.76856 0.19644 0.0
Dy60 Dy 0.91492 0.74991 0.45114 0.0
C61 C 0.81273 0.76424 0.36438 0.0
C62 C 0.96371 0.76099 0.47339 0.0
Dy63 Dy 0.85951 0.76074 0.44523 0.0
O64 O 0.95223 0.71603 0.51946 0.0
O65 O 0.94849 0.80078 0.41682 0.0
O66 O 0.91682 0.65091 0.37744 0.0
O67 O 0.88755 0.68192 0.48304 0.0
C68 C 0.89622 0.63594 0.41889 0.0
C69 C 0.87739 0.87214 0.49558 0.0
O70 O 0.865 0.74441 0.63898 0.0
O71 O 0.90601 0.76286 0.64094 0.0
O72 O 0.82958 0.7966 0.32255 0.0
O73 O 0.82112 0.73032 0.4543 0.0
O74 O 0.85588 0.85776 0.52415 0.0
O75 O 0.88676 0.82957 0.42546 0.0
O76 O 0.9087 0.76469 0.25912 0.0
O77 O 0.87005 0.7316 0.26214 0.0
C78 C 0.8855 0.75378 0.69575 0.0
C79 C 0.88932 0.74701 0.20459 0.0
Dy80 Dy 0.672 0.7641 0.06038 0.0
C81 C 0.56874 0.76469 0.02551 0.0
C82 C 0.71914 0.76574 0.13298 0.0
Dy83 Dy 0.61737 0.77568 0.05126 0.0
O84 O 0.7055 0.71989 0.15117 0.0
O85 O 0.70737 0.81069 0.07078 0.0
O86 O 0.67421 0.66868 0.9739 0.0
O87 O 0.64466 0.69535 0.08604 0.0
C88 C 0.65359 0.65324 0.01422 0.0
C89 C 0.63615 0.88853 0.08301 0.0
O90 O 0.62189 0.76086 0.24454 0.0
O91 O 0.66155 0.7866 0.24695 0.0
O92 O 0.58046 0.80836 0.97662 0.0
O93 O 0.5836 0.72639 0.08674 0.0
O94 O 0.61565 0.87456 0.12691 0.0
O95 O 0.6447 0.84309 0.01825 0.0
O96 O 0.66805 0.78192 0.86715 0.0
O97 O 0.6276 0.75919 0.86137 0.0
C98 C 0.6415 0.7746 0.30167 0.0
C99 C 0.64813 0.77045 0.80844 0.0
Dy100 Dy 0.36085 0.7638 0.06458 0.0
C101 C 0.46411 0.76258 0.02845 0.0
C102 C 0.31351 0.76373 0.13657 0.0
Dy103 Dy 0.41549 0.7518 0.05525 0.0
O104 O 0.32675 0.81118 0.14582 0.0
O105 O 0.32578 0.71624 0.08287 0.0
O106 O 0.35876 0.85902 0.97835 0.0
O107 O 0.38838 0.8323 0.09045 0.0
C108 C 0.37947 0.87419 0.01812 0.0
C109 C 0.39659 0.63874 0.08239 0.0
O110 O 0.41112 0.7653 0.24886 0.0
O111 O 0.37119 0.74161 0.25139 0.0
O112 O 0.45215 0.7202 0.97692 0.0
O113 O 0.4495 0.79968 0.0931 0.0
O114 O 0.41694 0.65243 0.12857 0.0
O115 O 0.38809 0.68501 0.01949 0.0
O116 O 0.36485 0.74524 0.87137 0.0
O117 O 0.40507 0.76994 0.86589 0.0
C118 C 0.39135 0.75286 0.30604 0.0
C119 C 0.38466 0.75772 0.81273 0.0
Dy120 Dy 0.61674 0.27037 0.96154 0.0
C121 C 0.72172 0.26427 0.87917 0.0
C122 C 0.56846 0.25263 0.96385 0.0
Dy123 Dy 0.6749 0.26244 0.95467 0.0
O124 O 0.57926 0.28437 0.88471 0.0
O125 O 0.58423 0.22821 0.04057 0.0
O126 O 0.60998 0.37834 0.97187 0.0
O127 O 0.64478 0.33556 0.96166 0.0
C128 C 0.63266 0.38927 0.967 0.0
C129 C 0.65618 0.15205 0.00537 0.0
O130 O 0.66764 0.27881 0.14872 0.0
O131 O 0.6263 0.26041 0.15112 0.0
O132 O 0.70709 0.22212 0.85003 0.0
O133 O 0.71107 0.3055 0.95313 0.0
O134 O 0.67799 0.16523 0.03225 0.0
O135 O 0.64691 0.1951 0.93576 0.0
O136 O 0.62439 0.25258 0.77077 0.0
O137 O 0.66356 0.28465 0.76939 0.0
C138 C 0.647 0.26942 0.20499 0.0
C139 C 0.64381 0.26942 0.71475 0.0
Dy140 Dy 0.4141 0.25152 0.94093 0.0
C141 C 0.31243 0.27019 0.8534 0.0
C142 C 0.46342 0.2554 0.95939 0.0
Dy143 Dy 0.35919 0.26545 0.93614 0.0
O144 O 0.45254 0.20953 0.91314 0.0
O145 O 0.44732 0.30008 0.99648 0.0
O146 O 0.41468 0.15192 0.87161 0.0
O147 O 0.38625 0.1853 0.9791 0.0
C148 C 0.39426 0.1382 0.91614 0.0
C149 C 0.37795 0.37528 0.98622 0.0
O150 O 0.36414 0.25193 0.13117 0.0
O151 O 0.40628 0.25621 0.13294 0.0
O152 O 0.32799 0.31069 0.82939 0.0
O153 O 0.32197 0.22789 0.92801 0.0
O154 O 0.35662 0.36093 0.01836 0.0
O155 O 0.38688 0.33336 0.913 0.0
O156 O 0.40766 0.27611 0.75248 0.0
O157 O 0.37004 0.23808 0.75309 0.0
C158 C 0.38519 0.25487 0.18758 0.0
C159 C 0.38884 0.2566 0.69613 0.0
C160 C 0.2444 0.27881 0.79022 0.0
C161 C 0.24436 0.27096 0.66593 0.0
C162 C 0.28893 0.26385 0.6643 0.0
C163 C 0.28899 0.26766 0.78968 0.0
N164 N 0.2671 0.27084 0.97329 0.0
N165 N 0.26608 0.2491 0.48495 0.0
C166 C 0.2668 0.27239 0.85302 0.0
C167 C 0.26649 0.26233 0.60279 0.0
N168 N 0.22299 0.29565 0.84757 0.0
N169 N 0.31039 0.26059 0.60382 0.0
H170 H 0.25003 0.24865 0.4369 0.0
H171 H 0.28145 0.23459 0.43554 0.0
H172 H 0.32732 0.2532 0.64427 0.0
H173 H 0.31159 0.26707 0.51332 0.0
H174 H 0.22181 0.30811 0.93613 0.0
H175 H 0.20637 0.30325 0.80415 0.0
H176 H 0.25177 0.26596 0.02443 0.0
H177 H 0.283 0.27013 0.02274 0.0
C178 C 0.76431 0.21657 0.84234 0.0
C179 C 0.74594 0.26745 0.82371 0.0
C180 C 0.77157 0.31415 0.67525 0.0
C181 C 0.7901 0.2636 0.6955 0.0
N182 N 0.80634 0.17518 0.81641 0.0
N183 N 0.7305 0.36154 0.71621 0.0
C184 C 0.787 0.2167 0.78313 0.0
C185 C 0.74928 0.316 0.73952 0.0
N186 N 0.75992 0.16734 0.91585 0.0
N187 N 0.77549 0.36061 0.59482 0.0
H188 H 0.71405 0.3646 0.76152 0.0
H189 H 0.73046 0.39511 0.64905 0.0
H190 H 0.79063 0.35804 0.53978 0.0
H191 H 0.76428 0.40272 0.58342 0.0
H192 H 0.77097 0.12446 0.92062 0.0
H193 H 0.74437 0.16767 0.96786 0.0
H194 H 0.80619 0.14492 0.88886 0.0
H195 H 0.82347 0.17476 0.77851 0.0
C196 C 0.28819 0.7675 0.32118 0.0
C197 C 0.28962 0.76168 0.19633 0.0
C198 C 0.24515 0.76777 0.18499 0.0
C199 C 0.24377 0.76849 0.31 0.0
N200 N 0.26382 0.76132 0.49814 0.0
N201 N 0.26993 0.74737 0.01037 0.0
C202 C 0.26524 0.76686 0.37851 0.0
C203 C 0.26823 0.75872 0.12865 0.0
N204 N 0.30882 0.77314 0.38531 0.0
N205 N 0.22438 0.77931 0.11995 0.0
H206 H 0.28642 0.74323 0.96522 0.0
H207 H 0.25526 0.73726 0.95838 0.0
H208 H 0.2073 0.7894 0.15792 0.0
H209 H 0.2242 0.78547 0.02909 0.0
H210 H 0.30875 0.78612 0.4737 0.0
H211 H 0.3262 0.76749 0.34915 0.0
H212 H 0.27887 0.7522 0.5527 0.0
H213 H 0.24737 0.76145 0.54302 0.0
C214 C 0.74397 0.77501 0.3165 0.0
C215 C 0.74296 0.76945 0.19179 0.0
C216 C 0.78736 0.75153 0.18425 0.0
C217 C 0.78854 0.76239 0.30767 0.0
N218 N 0.76822 0.79403 0.48892 0.0
N219 N 0.76349 0.76255 0.0049 0.0
C220 C 0.7669 0.77628 0.37349 0.0
C221 C 0.76462 0.76126 0.12502 0.0
N222 N 0.72297 0.7792 0.38069 0.0
N223 N 0.80777 0.72816 0.12458 0.0
H224 H 0.74712 0.76755 0.95865 0.0
H225 H 0.7787 0.76398 0.95135 0.0
H226 H 0.82449 0.71681 0.16555 0.0
H227 H 0.80767 0.7134 0.03714 0.0
H228 H 0.72255 0.77471 0.47186 0.0
H229 H 0.70577 0.78405 0.34245 0.0
H230 H 0.75322 0.81184 0.53821 0.0
H231 H 0.7846 0.79591 0.53362 0.0
C232 C 0.14669 0.98768 0.33293 0.0
C233 C 0.13969 0.95159 0.43026 0.0
C234 C 0.14406 0.04318 0.56108 0.0
C235 C 0.14936 0.08119 0.46255 0.0
N236 N 0.15149 0.09206 0.25125 0.0
N237 N 0.12522 0.9508 0.63027 0.0
C238 C 0.1495 0.05401 0.34749 0.0
C239 C 0.13649 0.98103 0.54242 0.0
N240 N 0.15128 0.95824 0.22688 0.0
N241 N 0.14755 0.06437 0.67296 0.0
H242 H 0.11837 0.90683 0.61786 0.0
H243 H 0.1202 0.97249 0.71018 0.0
H244 H 0.15393 0.10827 0.692 0.0
H245 H 0.14654 0.03545 0.74695 0.0
H246 H 0.15938 0.97971 0.15639 0.0
H247 H 0.14862 0.91043 0.21168 0.0
H248 H 0.14889 0.07713 0.16518 0.0
H249 H 0.15357 0.14052 0.25769 0.0
C250 C 0.90652 0.45343 0.43403 0.0
C251 C 0.88756 0.43908 0.50998 0.0
C252 C 0.87151 0.55207 0.50994 0.0
C253 C 0.89087 0.56727 0.43561 0.0
N254 N 0.9201 0.52628 0.28929 0.0
N255 N 0.85535 0.47561 0.64194 0.0
C256 C 0.90669 0.51632 0.38742 0.0
C257 C 0.87107 0.48883 0.55444 0.0
N258 N 0.92464 0.40696 0.40782 0.0
N259 N 0.85216 0.59618 0.52764 0.0
H260 H 0.85505 0.42983 0.67751 0.0
H261 H 0.84458 0.51071 0.68757 0.0
H262 H 0.85022 0.63882 0.48098 0.0
H263 H 0.83656 0.58703 0.5734 0.0
H264 H 0.94031 0.41558 0.36196 0.0
H265 H 0.92517 0.36133 0.44404 0.0
H266 H 0.93029 0.48971 0.24456 0.0
H267 H 0.91818 0.56878 0.24163 0.0
C268 C 0.90095 0.96939 0.44677 0.0
C269 C 0.88557 0.93705 0.52314 0.0
C270 C 0.87582 0.03778 0.633 0.0
C271 C 0.89186 0.06868 0.56106 0.0
N272 N 0.92233 0.06326 0.40904 0.0
N273 N 0.86444 0.93839 0.71107 0.0
C274 C 0.90518 0.03426 0.47079 0.0
C275 C 0.87479 0.97071 0.62258 0.0
N276 N 0.91099 0.93986 0.34896 0.0
N277 N 0.86111 0.07279 0.71058 0.0
H278 H 0.8642 0.88893 0.71319 0.0
H279 H 0.85884 0.95953 0.79064 0.0
H280 H 0.86176 0.12181 0.7223 0.0
H281 H 0.8468 0.05454 0.75506 0.0
H282 H 0.91816 0.96453 0.27965 0.0
H283 H 0.91202 0.89101 0.33418 0.0
H284 H 0.93509 0.03872 0.35417 0.0
H285 H 0.92485 0.11163 0.41764 0.0
C286 C 0.14816 0.55009 0.59722 0.0
C287 C 0.14876 0.58069 0.48521 0.0
C288 C 0.14225 0.47849 0.38883 0.0
C289 C 0.14014 0.4494 0.50048 0.0
N290 N 0.13935 0.45703 0.71136 0.0
N291 N 0.14508 0.57409 0.27304 0.0
C292 C 0.14281 0.48501 0.60476 0.0
C293 C 0.14531 0.54502 0.38073 0.0
N294 N 0.15272 0.58332 0.69705 0.0
N295 N 0.1424 0.44152 0.28997 0.0
H296 H 0.15043 0.61948 0.25862 0.0
H297 H 0.13863 0.55403 0.1968 0.0
H298 H 0.14011 0.39313 0.29337 0.0
H299 H 0.14682 0.45676 0.20626 0.0
H300 H 0.15607 0.56225 0.77899 0.0
H301 H 0.15405 0.63236 0.6979 0.0
H302 H 0.13774 0.48178 0.79069 0.0
H303 H 0.13693 0.40863 0.7202 0.0
C304 C 0.66375 0.53702 0.0606 0.0
C305 C 0.64743 0.58579 0.01046 0.0
C306 C 0.62553 0.50463 0.91224 0.0
C307 C 0.6409 0.45531 0.9673 0.0
N308 N 0.67894 0.42514 0.06564 0.0
N309 N 0.60992 0.61617 0.90942 0.0
C310 C 0.66129 0.47155 0.03351 0.0
C311 C 0.62749 0.5696 0.94232 0.0
N312 N 0.68068 0.55338 0.14018 0.0
N313 N 0.61023 0.48947 0.82404 0.0
H314 H 0.61057 0.66377 0.93309 0.0
H315 H 0.59359 0.60686 0.87026 0.0
H316 H 0.60975 0.44292 0.79247 0.0
H317 H 0.60034 0.52348 0.77208 0.0
H318 H 0.69139 0.52037 0.19063 0.0
H319 H 0.68235 0.60063 0.16499 0.0
H320 H 0.69551 0.43427 0.10239 0.0
H321 H 0.67809 0.37739 0.04523 0.0
C322 C 0.40425 0.9557 0.92999 0.0
C323 C 0.38602 0.9411 0.00971 0.0
C324 C 0.37032 0.05438 0.01556 0.0
C325 C 0.38885 0.0697 0.93593 0.0
N326 N 0.41632 0.02837 0.78188 0.0
N327 N 0.35516 0.97687 0.14903 0.0
C328 C 0.40397 0.01859 0.88341 0.0
C329 C 0.37007 0.99068 0.05849 0.0
N330 N 0.42226 0.90958 0.90072 0.0
N331 N 0.35147 0.09885 0.04073 0.0
H332 H 0.355 0.93073 0.18319 0.0
H333 H 0.34497 0.01159 0.19819 0.0
H334 H 0.34951 0.14317 0.00025 0.0
H335 H 0.33623 0.08932 0.08896 0.0
H336 H 0.43749 0.91851 0.85171 0.0
H337 H 0.42336 0.86427 0.93839 0.0
H338 H 0.42575 0.99154 0.73444 0.0
H339 H 0.41423 0.07101 0.73483 0.0
C340 C 0.40286 0.4712 0.94443 0.0
C341 C 0.38647 0.43962 0.01637 0.0
C342 C 0.37542 0.54105 0.1216 0.0
C343 C 0.39244 0.57143 0.05483 0.0
N344 N 0.42466 0.56498 0.91137 0.0
N345 N 0.36446 0.44199 0.20205 0.0
C346 C 0.40684 0.53632 0.96882 0.0
C347 C 0.37494 0.47382 0.11336 0.0
N348 N 0.41436 0.44035 0.85147 0.0
N349 N 0.35927 0.57652 0.19201 0.0
H350 H 0.36501 0.3924 0.20687 0.0
H351 H 0.35812 0.46421 0.27956 0.0
H352 H 0.35901 0.62605 0.20001 0.0
H353 H 0.34464 0.55767 0.23282 0.0
H354 H 0.42253 0.46403 0.78386 0.0
H355 H 0.41589 0.39113 0.84039 0.0
H356 H 0.43798 0.54022 0.85989 0.0
H357 H 0.42698 0.6135 0.91973 0.0
C358 C 0.62893 0.06084 0.96899 0.0
C359 C 0.64744 0.08801 0.03458 0.0
C360 C 0.65853 0.98353 0.12899 0.0
C361 C 0.64077 0.95612 0.06155 0.0
N362 N 0.61132 0.96457 0.90488 0.0
N363 N 0.67228 0.07936 0.21129 0.0
C364 C 0.62646 0.99377 0.97858 0.0
C365 C 0.6601 0.0505 0.12429 0.0
N366 N 0.61266 0.09919 0.90401 0.0
N367 N 0.67468 0.94516 0.19466 0.0
H368 H 0.67221 0.12873 0.22003 0.0
H369 H 0.67956 0.05517 0.28509 0.0
H370 H 0.67426 0.89576 0.19948 0.0
H371 H 0.68998 0.96126 0.23427 0.0
H372 H 0.59753 0.08333 0.86283 0.0
H373 H 0.61215 0.14868 0.90267 0.0
H374 H 0.60271 0.98672 0.8323 0.0
H375 H 0.60897 0.91591 0.90949 0.0
C376 C 0.12696 0.30172 0.0859 0.0
C377 C 0.14752 0.2702 0.14526 0.0
C378 C 0.1638 0.22994 0.95516 0.0
C379 C 0.14432 0.26532 0.89594 0.0
N380 N 0.1094 0.34303 0.90243 0.0
N381 N 0.18716 0.21051 0.13335 0.0
C382 C 0.12637 0.30313 0.96061 0.0
C383 C 0.16654 0.2368 0.0789 0.0
N384 N 0.10782 0.3304 0.14865 0.0
N385 N 0.17892 0.18644 0.894 0.0
H386 H 0.18928 0.20744 0.22408 0.0
H387 H 0.20293 0.19459 0.08788 0.0
H388 H 0.17718 0.17851 0.80405 0.0
H389 H 0.19168 0.15365 0.93365 0.0
H390 H 0.09102 0.34499 0.11122 0.0
H391 H 0.10804 0.33722 0.23931 0.0
H392 H 0.09789 0.37816 0.944 0.0
H393 H 0.10799 0.34484 0.81106 0.0
C394 C 0.88664 0.19536 0.123 0.0
C395 C 0.88542 0.25487 0.18315 0.0
C396 C 0.88857 0.31168 0.99564 0.0
C397 C 0.89142 0.25195 0.93652 0.0
N398 N 0.89604 0.13678 0.94174 0.0
N399 N 0.88706 0.36928 0.18056 0.0
C400 C 0.89113 0.19367 -0.00039 0.0
C401 C 0.88698 0.3129 0.12044 0.0
N402 N 0.88351 0.14054 0.18405 0.0
N403 N 0.88628 0.36727 0.93194 0.0
H404 H 0.88365 0.37291 0.2704 0.0
H405 H 0.89152 0.41185 0.14293 0.0
H406 H 0.88784 0.36849 0.84055 0.0
H407 H 0.88124 0.41209 0.9682 0.0
H408 H 0.88167 0.09652 0.1446 0.0
H409 H 0.88116 0.13953 0.27499 0.0
H410 H 0.89844 0.09245 0.98313 0.0
H411 H 0.89963 0.13409 0.85181 0.0
C412 C 0.16292 0.73049 0.00849 0.0
C413 C 0.14363 0.7674 0.06631 0.0
C414 C 0.1256 0.799 0.87594 0.0
C415 C 0.1461 0.76691 0.81737 0.0
N416 N 0.18575 0.70736 0.82995 0.0
N417 N 0.10929 0.84684 0.05622 0.0
C418 C 0.1653 0.73477 0.88429 0.0
C419 C 0.12564 0.80415 0.00045 0.0
N420 N 0.17823 0.68834 0.07151 0.0
N421 N 0.10587 0.8246 0.8137 0.0
H422 H 0.10872 0.85253 0.14715 0.0
H423 H 0.09778 0.88098 0.01209 0.0
H424 H 0.10521 0.82733 0.72263 0.0
H425 H 0.08927 0.83963 0.85277 0.0
H426 H 0.19075 0.65444 0.03312 0.0
H427 H 0.17708 0.68305 0.16235 0.0
H428 H 0.20164 0.69216 0.87517 0.0
H429 H 0.18754 0.70248 0.73927 0.0
C430 C 0.88016 0.69606 0.8868 0.0
C431 C 0.8863 0.75168 0.82621 0.0
C432 C 0.89221 0.80491 0.01441 0.0
C433 C 0.88831 0.74783 0.07465 0.0
N434 N 0.88174 0.63584 0.06931 0.0
N435 N 0.90448 0.85289 0.83497 0.0
C436 C 0.88294 0.69255 0.01129 0.0
C437 C 0.89438 0.80402 0.89051 0.0
N438 N 0.87239 0.64573 0.82545 0.0
N439 N 0.89226 0.86133 0.07465 0.0
H440 H 0.90569 0.85759 0.74423 0.0
H441 H 0.91334 0.88713 0.88029 0.0
H442 H 0.88915 0.86503 0.16489 0.0
H443 H 0.89241 0.9056 0.03323 0.0
H444 H 0.86439 0.60815 0.86488 0.0
H445 H 0.87308 0.64226 0.73414 0.0
H446 H 0.88067 0.59213 0.02729 0.0
H447 H 0.88379 0.63121 0.16006 0.0
C448 C 0.64366 0.83223 0.4938 0.0
C449 C 0.64193 0.77403 0.43173 0.0
C450 C 0.64623 0.71324 0.61597 0.0
C451 C 0.64814 0.77128 0.67824 0.0
N452 N 0.64682 0.88635 0.68184 0.0
N453 N 0.64513 0.65868 0.42801 0.0
C454 C 0.64664 0.83092 0.61838 0.0
C455 C 0.64395 0.7144 0.49138 0.0
N456 N 0.64272 0.88857 0.43267 0.0
N457 N 0.64619 0.65702 0.67671 0.0
H458 H 0.6432 0.65734 0.33681 0.0
H459 H 0.64956 0.61351 0.46393 0.0
H460 H 0.64996 0.65339 0.76629 0.0
H461 H 0.64144 0.61444 0.64026 0.0
H462 H 0.64656 0.93212 0.46827 0.0
H463 H 0.63857 0.89172 0.34331 0.0
H464 H 0.64341 0.93206 0.64691 0.0
H465 H 0.64952 0.88708 0.77258 0.0
C466 C 0.38568 0.81453 0.61973 0.0
C467 C 0.38479 0.75638 0.68261 0.0
C468 C 0.38878 0.69547 0.49826 0.0
C469 C 0.39099 0.75337 0.43616 0.0
N470 N 0.39383 0.86739 0.43593 0.0
N471 N 0.38814 0.64106 0.68661 0.0
C472 C 0.39024 0.81273 0.49654 0.0
C473 C 0.38689 0.69667 0.62312 0.0
N474 N 0.38118 0.87157 0.67752 0.0
N475 N 0.38845 0.63932 0.43744 0.0
H476 H 0.38608 0.64004 0.77773 0.0
H477 H 0.3926 0.59589 0.65066 0.0
H478 H 0.39207 0.63563 0.34761 0.0
H479 H 0.3837 0.5969 0.47444 0.0
H480 H 0.37923 0.91601 0.63635 0.0
H481 H 0.37735 0.8744 0.76709 0.0
H482 H 0.39633 0.9109 0.47589 0.0
H483 H 0.39584 0.86881 0.34482 0.0
C484 C 0.65093 0.3256 0.39918 0.0
C485 C 0.64636 0.2695 0.33588 0.0
C486 C 0.64095 0.21305 0.52198 0.0
C487 C 0.64398 0.27005 0.58463 0.0
N488 N 0.6477 0.38358 0.58432 0.0
N489 N 0.63097 0.16478 0.33815 0.0
C490 C 0.64801 0.32714 0.52371 0.0
C491 C 0.63946 0.21484 0.39745 0.0
N492 N 0.65735 0.37814 0.34012 0.0
N493 N 0.6408 0.15621 0.58082 0.0
H494 H 0.63037 0.16142 0.24699 0.0
H495 H 0.62281 0.12817 0.37999 0.0
H496 H 0.64232 0.15225 0.67202 0.0
H497 H 0.6416 0.11201 0.53849 0.0
H498 H 0.66417 0.41708 0.38104 0.0
H499 H 0.65666 0.38197 0.24895 0.0
H500 H 0.64795 0.42812 0.54438 0.0
H501 H 0.64506 0.38685 0.67503 0.0
C502 C 0.39512 0.30732 0.37811 0.0
C503 C 0.38584 0.25531 0.31776 0.0
C504 C 0.38194 0.2001 0.50577 0.0
C505 C 0.38829 0.25557 0.56604 0.0
N506 N 0.3947 0.36778 0.55881 0.0
N507 N 0.36913 0.15308 0.32433 0.0
C508 C 0.39327 0.31073 0.50218 0.0
C509 C 0.37859 0.20228 0.38183 0.0
N510 N 0.40595 0.35348 0.31819 0.0
N511 N 0.38046 0.14412 0.56578 0.0
H512 H 0.36887 0.1491 0.23315 0.0
H513 H 0.36045 0.11769 0.36702 0.0
H514 H 0.38331 0.13972 0.65597 0.0
H515 H 0.37867 0.10036 0.5251 0.0
H516 H 0.41557 0.38738 0.36013 0.0
H517 H 0.40685 0.35596 0.22692 0.0
H518 H 0.39571 0.41092 0.51448 0.0
H519 H 0.39204 0.37365 0.64906 0.0
C520 C 0.03131 0.21358 0.60849 0.0
C521 C 0.04297 0.23798 0.50933 0.0
C522 C 1.00339 0.26273 0.41333 0.0
C523 C 0.99173 0.24531 0.518 0.0
N524 N 0.99407 0.2079 0.71883 0.0
N525 N 0.04021 0.29393 0.32332 0.0
C526 C 1.00555 0.22193 0.61678 0.0
C527 C 0.02909 0.26408 0.41249 0.0
N528 N 0.0449 0.18006 0.69247 0.0
N529 N 0.98989 0.27838 0.31491 0.0
H530 H 0.05889 0.29696 0.31951 0.0
H531 H 0.03078 0.3204 0.25763 0.0
H532 H 0.97095 0.28117 0.31388 0.0
H533 H 0.99747 0.28425 0.23223 0.0
H534 H 0.03748 0.15538 0.76097 0.0
H535 H 0.06377 0.17162 0.68756 0.0
H536 H 1.00311 0.19842 0.79816 0.0
H537 H 0.97523 0.20938 0.72654 0.0
C538 C 1.00326 0.7592 0.3643 0.0
C539 C 0.99055 0.76165 0.47292 0.0
C540 C 0.02937 0.75529 0.57971 0.0
C541 C 0.04188 0.75857 0.47111 0.0
N542 N 0.04026 0.77796 0.26163 0.0
N543 N 0.991 0.77199 0.68408 0.0
C544 C 0.02871 0.7644 0.36375 0.0
C545 C 1.00347 0.76234 0.58082 0.0
N546 N 0.99129 0.74896 0.26169 0.0
N547 N 0.04223 0.74313 0.68132 0.0
H548 H 0.97207 0.77778 0.68817 0.0
H549 H 0.99931 0.77984 0.76431 0.0
H550 H 0.06116 0.7373 0.68389 0.0
H551 H 0.0342 0.73338 0.76135 0.0
H552 H 1.00015 0.73952 0.18186 0.0
H553 H 0.97275 0.74357 0.25777 0.0
H554 H 0.03107 0.78973 0.18344 0.0
H555 H 0.05874 0.78393 0.25721 0.0
C556 C 0.52916 0.76237 0.91696 0.0
C557 C 0.54196 0.76405 0.02501 0.0
C558 C 0.50401 0.75814 0.13383 0.0
C559 C 0.49088 0.76305 0.02643 0.0
N560 N 0.49036 0.77979 0.81654 0.0
N561 N 0.54089 0.77812 0.23605 0.0
C562 C 0.50328 0.76778 0.91796 0.0
C563 C 0.52922 0.76591 0.13348 0.0
N564 N 0.5417 0.75324 0.8138 0.0
N565 N 0.4927 0.74315 0.23576 0.0
H566 H 0.55918 0.78632 0.23992 0.0
H567 H 0.53184 0.78682 0.31564 0.0
H568 H 0.4744 0.73503 0.23988 0.0
H569 H 0.50203 0.73218 0.31391 0.0
H570 H 0.53344 0.74482 0.73364 0.0
H571 H 0.56063 0.74844 0.80976 0.0
H572 H 0.49832 0.79052 0.73683 0.0
H573 H 0.47142 0.78462 0.81405 0.0
C574 C 0.50246 0.26677 0.06994 0.0
C575 C 0.49027 0.25653 0.96257 0.0
C576 C 0.52956 0.23209 0.86438 0.0
C577 C 0.54172 0.24936 0.96779 0.0
N578 N 0.5394 0.29469 0.16349 0.0
N579 N 0.4923 0.24307 0.75165 0.0
C580 C 0.52811 0.26964 0.06945 0.0
C581 C 0.50385 0.24284 0.8581 0.0
N582 N 0.48976 0.27132 0.17318 0.0
N583 N 0.54252 0.2034 0.77323 0.0
H584 H 0.47359 0.25357 0.74219 0.0
H585 H 0.50152 0.2398 0.67167 0.0
H586 H 0.56134 0.1929 0.77591 0.0
H587 H 0.5344 0.18393 0.70051 0.0
H588 H 0.49808 0.27161 0.25539 0.0
H589 H 0.47103 0.26895 0.17771 0.0
H590 H 0.52998 0.31677 0.23409 0.0
H591 H 0.55801 0.29887 0.16661 0.0
loop_
_geom_bond_atom_site_label_1
_geom_bond_atom_site_label_2
_geom_bond_distance
_geom_bond_site_symmetry_2
_ccdc_geom_bond_type
Dy0 O4 2.398 . S
Dy0 O5 2.491 . S
Dy0 O6 2.403 . S
Dy0 O7 2.664 . S
Dy0 O11 2.326 . S
Dy0 O15 2.310 . S
Dy0 O16 2.351 . S
C1 O12 1.185 . S
C1 O13 1.355 . S
C2 O4 1.185 . S
C2 O5 1.355 . S
Dy3 O7 2.310 . S
Dy3 O10 2.351 . S
Dy3 O12 2.398 . S
Dy3 O13 2.491 . S
Dy3 O14 2.403 . S
Dy3 O15 2.664 . S
Dy3 O17 2.326 . S
O4 Dy0 2.398 . S
O4 C2 1.185 . S
O5 Dy0 2.491 . S
O5 C2 1.355 . S
O6 Dy0 2.403 . S
O6 C8 1.254 . S
O7 Dy0 2.664 . S
O7 Dy3 2.310 . S
O7 C8 1.268 . S
C8 O6 1.254 . S
C8 O7 1.268 . S
C9 O14 1.254 . S
C9 O15 1.268 . S
O10 Dy3 2.351 . S
O10 C18 1.249 . S
O11 Dy0 2.326 . S
O11 C18 1.267 . S
O12 C1 1.185 . S
O12 Dy3 2.398 . S
O13 C1 1.355 . S
O13 Dy3 2.491 . S
O14 Dy3 2.403 . S
O14 C9 1.254 . S
O15 Dy0 2.310 . S
O15 Dy3 2.664 . S
O15 C9 1.268 . S
O16 Dy0 2.351 . S
O16 C19 1.249 . S
O17 Dy3 2.326 . S
O17 C19 1.267 . S
C18 O10 1.249 . S
C18 O11 1.267 . S
C19 O16 1.249 . S
C19 O17 1.267 . S
Dy20 O24 2.398 . S
Dy20 O25 2.491 . S
Dy20 O26 2.403 . S
Dy20 O27 2.664 . S
Dy20 O31 2.326 . S
Dy20 O35 2.310 . S
Dy20 O36 2.351 . S
C21 O32 1.185 . S
C21 O33 1.355 . S
C22 O24 1.185 . S
C22 O25 1.355 . S
Dy23 O27 2.310 . S
Dy23 O30 2.351 . S
Dy23 O32 2.398 . S
Dy23 O33 2.491 . S
Dy23 O34 2.403 . S
Dy23 O35 2.664 . S
Dy23 O37 2.326 . S
O24 Dy20 2.398 . S
O24 C22 1.185 . S
O25 Dy20 2.491 . S
O25 C22 1.355 . S
O26 Dy20 2.403 . S
O26 C28 1.254 . S
O27 Dy20 2.664 . S
O27 Dy23 2.310 . S
O27 C28 1.268 . S
C28 O26 1.254 . S
C28 O27 1.268 . S
C29 O34 1.254 . S
C29 O35 1.268 . S
O30 Dy23 2.351 . S
O30 C38 1.249 . S
O31 Dy20 2.326 . S
O31 C38 1.267 . S
O32 C21 1.185 . S
O32 Dy23 2.398 . S
O33 C21 1.355 . S
O33 Dy23 2.491 . S
O34 Dy23 2.403 . S
O34 C29 1.254 . S
O35 Dy20 2.310 . S
O35 Dy23 2.664 . S
O35 C29 1.268 . S
O36 Dy20 2.351 . S
O36 C39 1.249 . S
O37 Dy23 2.326 . S
O37 C39 1.267 . S
C38 O30 1.249 . S
C38 O31 1.267 . S
C39 O36 1.249 . S
C39 O37 1.267 . S
Dy40 O44 2.398 . S
Dy40 O45 2.491 . S
Dy40 O46 2.403 . S
Dy40 O47 2.664 . S
Dy40 O51 2.326 . S
Dy40 O55 2.310 . S
Dy40 O56 2.351 . S
C41 O52 1.185 . S
C41 O53 1.355 . S
C42 O44 1.185 . S
C42 O45 1.355 . S
Dy43 O47 2.310 . S
Dy43 O50 2.351 . S
Dy43 O52 2.398 . S
Dy43 O53 2.491 . S
Dy43 O54 2.403 . S
Dy43 O55 2.664 . S
Dy43 O57 2.326 . S
O44 Dy40 2.398 . S
O44 C42 1.185 . S
O45 Dy40 2.491 . S
O45 C42 1.355 . S
O46 Dy40 2.403 . S
O46 C48 1.254 . S
O47 Dy40 2.664 . S
O47 Dy43 2.310 . S
O47 C48 1.268 . S
C48 O46 1.254 . S
C48 O47 1.268 . S
C49 O54 1.254 . S
C49 O55 1.268 . S
O50 Dy43 2.351 . S
O50 C58 1.249 . S
O51 Dy40 2.326 . S
O51 C58 1.267 . S
O52 C41 1.185 . S
O52 Dy43 2.398 . S
O53 C41 1.355 . S
O53 Dy43 2.491 . S
O54 Dy43 2.403 . S
O54 C49 1.254 . S
O55 Dy40 2.310 . S
O55 Dy43 2.664 . S
O55 C49 1.268 . S
O56 Dy40 2.351 . S
O56 C59 1.249 . S
O57 Dy43 2.326 . S
O57 C59 1.267 . S
C58 O50 1.249 . S
C58 O51 1.267 . S
C59 O56 1.249 . S
C59 O57 1.267 . S
Dy60 O64 2.398 . S
Dy60 O65 2.491 . S
Dy60 O66 2.403 . S
Dy60 O67 2.664 . S
Dy60 O71 2.326 . S
Dy60 O75 2.310 . S
Dy60 O76 2.351 . S
C61 O72 1.185 . S
C61 O73 1.355 . S
C62 O64 1.185 . S
C62 O65 1.355 . S
Dy63 O67 2.310 . S
Dy63 O70 2.351 . S
Dy63 O72 2.398 . S
Dy63 O73 2.491 . S
Dy63 O74 2.403 . S
Dy63 O75 2.664 . S
Dy63 O77 2.326 . S
O64 Dy60 2.398 . S
O64 C62 1.185 . S
O65 Dy60 2.491 . S
O65 C62 1.355 . S
O66 Dy60 2.403 . S
O66 C68 1.254 . S
O67 Dy60 2.664 . S
O67 Dy63 2.310 . S
O67 C68 1.268 . S
C68 O66 1.254 . S
C68 O67 1.268 . S
C69 O74 1.254 . S
C69 O75 1.268 . S
O70 Dy63 2.351 . S
O70 C78 1.249 . S
O71 Dy60 2.326 . S
O71 C78 1.267 . S
O72 C61 1.185 . S
O72 Dy63 2.398 . S
O73 C61 1.355 . S
O73 Dy63 2.491 . S
O74 Dy63 2.403 . S
O74 C69 1.254 . S
O75 Dy60 2.310 . S
O75 Dy63 2.664 . S
O75 C69 1.268 . S
O76 Dy60 2.351 . S
O76 C79 1.249 . S
O77 Dy63 2.326 . S
O77 C79 1.267 . S
C78 O70 1.249 . S
C78 O71 1.267 . S
C79 O76 1.249 . S
C79 O77 1.267 . S
Dy80 O84 2.398 1_556 S
Dy80 O85 2.491 1_556 S
Dy80 O86 2.403 . S
Dy80 O87 2.664 . S
Dy80 O91 2.326 1_556 S
Dy80 O95 2.310 1_556 S
Dy80 O96 2.351 . S
C81 O92 1.185 . S
C81 O93 1.355 . S
C82 O84 1.185 . S
C82 O85 1.355 . S
Dy83 O87 2.310 1_554 S
Dy83 O90 2.351 . S
Dy83 O92 2.398 1_554 S
Dy83 O93 2.491 1_554 S
Dy83 O94 2.403 . S
Dy83 O95 2.664 . S
Dy83 O97 2.326 1_554 S
O84 Dy80 2.398 1_554 S
O84 C82 1.185 . S
O85 Dy80 2.491 1_554 S
O85 C82 1.355 . S
O86 Dy80 2.403 . S
O86 C88 1.254 . S
O87 Dy80 2.664 . S
O87 Dy83 2.310 1_556 S
O87 C88 1.268 . S
C88 O86 1.254 . S
C88 O87 1.268 . S
C89 O94 1.254 . S
C89 O95 1.268 . S
O90 Dy83 2.351 . S
O90 C98 1.249 . S
O91 Dy80 2.326 1_554 S
O91 C98 1.267 . S
O92 C81 1.185 . S
O92 Dy83 2.398 1_556 S
O93 C81 1.355 . S
O93 Dy83 2.491 1_556 S
O94 Dy83 2.403 . S
O94 C89 1.254 . S
O95 Dy80 2.310 1_554 S
O95 Dy83 2.664 . S
O95 C89 1.268 . S
O96 Dy80 2.351 . S
O96 C99 1.249 . S
O97 Dy83 2.326 1_556 S
O97 C99 1.267 . S
C98 O90 1.249 . S
C98 O91 1.267 . S
C99 O96 1.249 . S
C99 O97 1.267 . S
Dy100 O104 2.398 1_556 S
Dy100 O105 2.491 1_556 S
Dy100 O106 2.403 . S
Dy100 O107 2.664 . S
Dy100 O111 2.326 1_556 S
Dy100 O115 2.310 1_556 S
Dy100 O116 2.351 . S
C101 O112 1.185 . S
C101 O113 1.355 . S
C102 O104 1.185 . S
C102 O105 1.355 . S
Dy103 O107 2.310 1_554 S
Dy103 O110 2.351 . S
Dy103 O112 2.398 1_554 S
Dy103 O113 2.491 1_554 S
Dy103 O114 2.403 . S
Dy103 O115 2.664 . S
Dy103 O117 2.326 1_554 S
O104 Dy100 2.398 1_554 S
O104 C102 1.185 . S
O105 Dy100 2.491 1_554 S
O105 C102 1.355 . S
O106 Dy100 2.403 . S
O106 C108 1.254 . S
O107 Dy100 2.664 . S
O107 Dy103 2.310 1_556 S
O107 C108 1.268 . S
C108 O106 1.254 . S
C108 O107 1.268 . S
C109 O114 1.254 . S
C109 O115 1.268 . S
O110 Dy103 2.351 . S
O110 C118 1.249 . S
O111 Dy100 2.326 1_554 S
O111 C118 1.267 . S
O112 C101 1.185 . S
O112 Dy103 2.398 1_556 S
O113 C101 1.355 . S
O113 Dy103 2.491 1_556 S
O114 Dy103 2.403 . S
O114 C109 1.254 . S
O115 Dy100 2.310 1_554 S
O115 Dy103 2.664 . S
O115 C109 1.268 . S
O116 Dy100 2.351 . S
O116 C119 1.249 . S
O117 Dy103 2.326 1_556 S
O117 C119 1.267 . S
C118 O110 1.249 . S
C118 O111 1.267 . S
C119 O116 1.249 . S
C119 O117 1.267 . S
Dy120 O124 2.398 1_556 S
Dy120 O125 2.491 1_556 S
Dy120 O126 2.403 . S
Dy120 O127 2.664 . S
Dy120 O131 2.326 1_556 S
Dy120 O135 2.310 1_556 S
Dy120 O136 2.351 . S
C121 O132 1.185 . S
C121 O133 1.355 . S
C122 O124 1.185 . S
C122 O125 1.355 . S
Dy123 O127 2.310 1_554 S
Dy123 O130 2.351 . S
Dy123 O132 2.398 1_554 S
Dy123 O133 2.491 1_554 S
Dy123 O134 2.403 . S
Dy123 O135 2.664 . S
Dy123 O137 2.326 1_554 S
O124 Dy120 2.398 1_554 S
O124 C122 1.185 . S
O125 Dy120 2.491 1_554 S
O125 C122 1.355 . S
O126 Dy120 2.403 . S
O126 C128 1.254 . S
O127 Dy120 2.664 . S
O127 Dy123 2.310 1_556 S
O127 C128 1.268 . S
C128 O126 1.254 . S
C128 O127 1.268 . S
C129 O134 1.254 . S
C129 O135 1.268 . S
O130 Dy123 2.351 . S
O130 C138 1.249 . S
O131 Dy120 2.326 1_554 S
O131 C138 1.267 . S
O132 C121 1.185 . S
O132 Dy123 2.398 1_556 S
O133 C121 1.355 . S
O133 Dy123 2.491 1_556 S
O134 Dy123 2.403 . S
O134 C129 1.254 . S
O135 Dy120 2.310 1_554 S
O135 Dy123 2.664 . S
O135 C129 1.268 . S
O136 Dy120 2.351 . S
O136 C139 1.249 . S
O137 Dy123 2.326 1_556 S
O137 C139 1.267 . S
C138 O130 1.249 . S
C138 O131 1.267 . S
C139 O136 1.249 . S
C139 O137 1.267 . S
Dy140 O144 2.398 1_556 S
Dy140 O145 2.491 1_556 S
Dy140 O146 2.403 . S
Dy140 O147 2.664 . S
Dy140 O151 2.326 1_556 S
Dy140 O155 2.310 1_556 S
Dy140 O156 2.351 . S
C141 O152 1.185 . S
C141 O153 1.355 . S
C142 O144 1.185 . S
C142 O145 1.355 . S
Dy143 O147 2.310 1_554 S
Dy143 O150 2.351 . S
Dy143 O152 2.398 1_554 S
Dy143 O153 2.491 1_554 S
Dy143 O154 2.403 . S
Dy143 O155 2.664 . S
Dy143 O157 2.326 1_554 S
O144 Dy140 2.398 1_554 S
O144 C142 1.185 . S
O145 Dy140 2.491 1_554 S
O145 C142 1.355 . S
O146 Dy140 2.403 . S
O146 C148 1.254 . S
O147 Dy140 2.664 . S
O147 Dy143 2.310 1_556 S
O147 C148 1.268 . S
C148 O146 1.254 . S
C148 O147 1.268 . S
C149 O154 1.254 . S
C149 O155 1.268 . S
O150 Dy143 2.351 . S
O150 C158 1.249 . S
O151 Dy140 2.326 1_554 S
O151 C158 1.267 . S
O152 C141 1.185 . S
O152 Dy143 2.398 1_556 S
O153 C141 1.355 . S
O153 Dy143 2.491 1_556 S
O154 Dy143 2.403 . S
O154 C149 1.254 . S
O155 Dy140 2.310 1_554 S
O155 Dy143 2.664 . S
O155 C149 1.268 . S
O156 Dy140 2.351 . S
O156 C159 1.249 . S
O157 Dy143 2.326 1_556 S
O157 C159 1.267 . S
C158 O150 1.249 . S
C158 O151 1.267 . S
C159 O156 1.249 . S
C159 O157 1.267 . S
C160 C161 1.363 . S
C160 C166 1.379 . S
C160 N168 1.356 . S
C161 C160 1.363 . S
C161 C167 1.363 . S
C162 C163 1.363 . S
C162 C167 1.379 . S
C162 N169 1.356 . S
C163 C162 1.363 . S
C163 C166 1.363 . S
N164 C166 1.356 . S
N164 H176 0.984 . S
N164 H177 0.985 . S
N165 C167 1.356 . S
N165 H170 0.984 . S
N165 H171 0.985 . S
C166 C160 1.379 . S
C166 C163 1.363 . S
C166 N164 1.356 . S
C167 C161 1.363 . S
C167 C162 1.379 . S
C167 N165 1.356 . S
N168 C160 1.356 . S
N168 H174 0.984 . S
N168 H175 0.984 . S
N169 C162 1.356 . S
N169 H172 0.984 . S
N169 H173 0.985 . S
H170 N165 0.984 . S
H171 N165 0.985 . S
H172 N169 0.984 . S
H173 N169 0.985 . S
H174 N168 0.984 . S
H175 N168 0.984 . S
H176 N164 0.984 . S
H177 N164 0.985 . S
C178 C179 1.363 . S
C178 C184 1.379 . S
C178 N186 1.356 . S
C179 C178 1.363 . S
C179 C185 1.363 . S
C180 C181 1.363 . S
C180 C185 1.379 . S
C180 N187 1.356 . S
C181 C180 1.363 . S
C181 C184 1.363 . S
N182 C184 1.356 . S
N182 H194 0.984 . S
N182 H195 0.985 . S
N183 C185 1.356 . S
N183 H188 0.984 . S
N183 H189 0.985 . S
C184 C178 1.379 . S
C184 C181 1.363 . S
C184 N182 1.356 . S
C185 C179 1.363 . S
C185 C180 1.379 . S
C185 N183 1.356 . S
N186 C178 1.356 . S
N186 H192 0.984 . S
N186 H193 0.984 . S
N187 C180 1.356 . S
N187 H190 0.984 . S
N187 H191 0.985 . S
H188 N183 0.984 . S
H189 N183 0.985 . S
H190 N187 0.984 . S
H191 N187 0.985 . S
H192 N186 0.984 . S
H193 N186 0.984 . S
H194 N182 0.984 . S
H195 N182 0.985 . S
C196 C197 1.363 . S
C196 C202 1.379 . S
C196 N204 1.356 . S
C197 C196 1.363 . S
C197 C203 1.363 . S
C198 C199 1.363 . S
C198 C203 1.379 . S
C198 N205 1.356 . S
C199 C198 1.363 . S
C199 C202 1.363 . S
N200 C202 1.356 . S
N200 H212 0.984 . S
N200 H213 0.985 . S
N201 C203 1.356 . S
N201 H206 0.984 . S
N201 H207 0.985 . S
C202 C196 1.379 . S
C202 C199 1.363 . S
C202 N200 1.356 . S
C203 C197 1.363 . S
C203 C198 1.379 . S
C203 N201 1.356 . S
N204 C196 1.356 . S
N204 H210 0.984 . S
N204 H211 0.984 . S
N205 C198 1.356 . S
N205 H208 0.984 . S
N205 H209 0.985 . S
H206 N201 0.984 . S
H207 N201 0.985 . S
H208 N205 0.984 . S
H209 N205 0.985 . S
H210 N204 0.984 . S
H211 N204 0.984 . S
H212 N200 0.984 . S
H213 N200 0.985 . S
C214 C215 1.363 . S
C214 C220 1.379 . S
C214 N222 1.356 . S
C215 C214 1.363 . S
C215 C221 1.363 . S
C216 C217 1.363 . S
C216 C221 1.379 . S
C216 N223 1.356 . S
C217 C216 1.363 . S
C217 C220 1.363 . S
N218 C220 1.356 . S
N218 H230 0.984 . S
N218 H231 0.985 . S
N219 C221 1.356 . S
N219 H224 0.984 . S
N219 H225 0.985 . S
C220 C214 1.379 . S
C220 C217 1.363 . S
C220 N218 1.356 . S
C221 C215 1.363 . S
C221 C216 1.379 . S
C221 N219 1.356 . S
N222 C214 1.356 . S
N222 H228 0.984 . S
N222 H229 0.984 . S
N223 C216 1.356 . S
N223 H226 0.984 . S
N223 H227 0.985 . S
H224 N219 0.984 . S
H225 N219 0.985 . S
H226 N223 0.984 . S
H227 N223 0.985 . S
H228 N222 0.984 . S
H229 N222 0.984 . S
H230 N218 0.984 . S
H231 N218 0.985 . S
C232 C233 1.363 . S
C232 C238 1.379 1_565 S
C232 N240 1.356 . S
C233 C232 1.363 . S
C233 C239 1.363 . S
C234 C235 1.363 . S
C234 C239 1.379 1_545 S
C234 N241 1.356 . S
C235 C234 1.363 . S
C235 C238 1.363 . S
N236 C238 1.356 . S
N236 H248 0.984 . S
N236 H249 0.985 . S
N237 C239 1.356 . S
N237 H242 0.984 . S
N237 H243 0.985 . S
C238 C232 1.379 1_545 S
C238 C235 1.363 . S
C238 N236 1.356 . S
C239 C233 1.363 . S
C239 C234 1.379 1_565 S
C239 N237 1.356 . S
N240 C232 1.356 . S
N240 H246 0.984 . S
N240 H247 0.984 . S
N241 C234 1.356 . S
N241 H244 0.984 . S
N241 H245 0.985 . S
H242 N237 0.984 . S
H243 N237 0.985 . S
H244 N241 0.984 . S
H245 N241 0.985 . S
H246 N240 0.984 . S
H247 N240 0.984 . S
H248 N236 0.984 . S
H249 N236 0.985 . S
C250 C251 1.363 . S
C250 C256 1.379 . S
C250 N258 1.356 . S
C251 C250 1.363 . S
C251 C257 1.363 . S
C252 C253 1.363 . S
C252 C257 1.379 . S
C252 N259 1.356 . S
C253 C252 1.363 . S
C253 C256 1.363 . S
N254 C256 1.356 . S
N254 H266 0.984 . S
N254 H267 0.985 . S
N255 C257 1.356 . S
N255 H260 0.984 . S
N255 H261 0.985 . S
C256 C250 1.379 . S
C256 C253 1.363 . S
C256 N254 1.356 . S
C257 C251 1.363 . S
C257 C252 1.379 . S
C257 N255 1.356 . S
N258 C250 1.356 . S
N258 H264 0.984 . S
N258 H265 0.984 . S
N259 C252 1.356 . S
N259 H262 0.984 . S
N259 H263 0.985 . S
H260 N255 0.984 . S
H261 N255 0.985 . S
H262 N259 0.984 . S
H263 N259 0.985 . S
H264 N258 0.984 . S
H265 N258 0.984 . S
H266 N254 0.984 . S
H267 N254 0.985 . S
C268 C269 1.363 . S
C268 C274 1.379 1_565 S
C268 N276 1.356 . S
C269 C268 1.363 . S
C269 C275 1.363 . S
C270 C271 1.363 . S
C270 C275 1.379 1_545 S
C270 N277 1.356 . S
C271 C270 1.363 . S
C271 C274 1.363 . S
N272 C274 1.356 . S
N272 H284 0.984 . S
N272 H285 0.985 . S
N273 C275 1.356 . S
N273 H278 0.984 . S
N273 H279 0.985 . S
C274 C268 1.379 1_545 S
C274 C271 1.363 . S
C274 N272 1.356 . S
C275 C269 1.363 . S
C275 C270 1.379 1_565 S
C275 N273 1.356 . S
N276 C268 1.356 . S
N276 H282 0.984 . S
N276 H283 0.984 . S
N277 C270 1.356 . S
N277 H280 0.984 . S
N277 H281 0.985 . S
H278 N273 0.984 . S
H279 N273 0.985 . S
H280 N277 0.984 . S
H281 N277 0.985 . S
H282 N276 0.984 . S
H283 N276 0.984 . S
H284 N272 0.984 . S
H285 N272 0.985 . S
C286 C287 1.363 . S
C286 C292 1.379 . S
C286 N294 1.356 . S
C287 C286 1.363 . S
C287 C293 1.363 . S
C288 C289 1.363 . S
C288 C293 1.379 . S
C288 N295 1.356 . S
C289 C288 1.363 . S
C289 C292 1.363 . S
N290 C292 1.356 . S
N290 H302 0.984 . S
N290 H303 0.985 . S
N291 C293 1.356 . S
N291 H296 0.984 . S
N291 H297 0.985 . S
C292 C286 1.379 . S
C292 C289 1.363 . S
C292 N290 1.356 . S
C293 C287 1.363 . S
C293 C288 1.379 . S
C293 N291 1.356 . S
N294 C286 1.356 . S
N294 H300 0.984 . S
N294 H301 0.984 . S
N295 C288 1.356 . S
N295 H298 0.984 . S
N295 H299 0.985 . S
H296 N291 0.984 . S
H297 N291 0.985 . S
H298 N295 0.984 . S
H299 N295 0.985 . S
H300 N294 0.984 . S
H301 N294 0.984 . S
H302 N290 0.984 . S
H303 N290 0.985 . S
C304 C305 1.363 1_554 S
C304 C310 1.379 . S
C304 N312 1.356 . S
C305 C304 1.363 1_556 S
C305 C311 1.363 . S
C306 C307 1.363 . S
C306 C311 1.379 . S
C306 N313 1.356 . S
C307 C306 1.363 . S
C307 C310 1.363 1_556 S
N308 C310 1.356 . S
N308 H320 0.984 . S
N308 H321 0.985 . S
N309 C311 1.356 . S
N309 H314 0.984 . S
N309 H315 0.985 . S
C310 C304 1.379 . S
C310 C307 1.363 1_554 S
C310 N308 1.356 . S
C311 C305 1.363 . S
C311 C306 1.379 . S
C311 N309 1.356 . S
N312 C304 1.356 . S
N312 H318 0.984 . S
N312 H319 0.984 . S
N313 C306 1.356 . S
N313 H316 0.984 . S
N313 H317 0.985 . S
H314 N309 0.984 . S
H315 N309 0.985 . S
H316 N313 0.984 . S
H317 N313 0.985 . S
H318 N312 0.984 . S
H319 N312 0.984 . S
H320 N308 0.984 . S
H321 N308 0.985 . S
C322 C323 1.363 . S
C322 C328 1.379 1_565 S
C322 N330 1.356 . S
C323 C322 1.363 . S
C323 C329 1.363 1_556 S
C324 C325 1.363 1_554 S
C324 C329 1.379 1_545 S
C324 N331 1.356 . S
C325 C324 1.363 1_556 S
C325 C328 1.363 . S
N326 C328 1.356 . S
N326 H338 0.984 . S
N326 H339 0.985 . S
N327 C329 1.356 . S
N327 H332 0.984 . S
N327 H333 0.985 . S
C328 C322 1.379 1_545 S
C328 C325 1.363 . S
C328 N326 1.356 . S
C329 C323 1.363 1_554 S
C329 C324 1.379 1_565 S
C329 N327 1.356 . S
N330 C322 1.356 . S
N330 H336 0.984 . S
N330 H337 0.984 . S
N331 C324 1.356 . S
N331 H334 0.984 . S
N331 H335 0.985 . S
H332 N327 0.984 . S
H333 N327 0.985 . S
H334 N331 0.984 . S
H335 N331 0.985 . S
H336 N330 0.984 . S
H337 N330 0.984 . S
H338 N326 0.984 . S
H339 N326 0.985 . S
C340 C341 1.363 1_556 S
C340 C346 1.379 . S
C340 N348 1.356 . S
C341 C340 1.363 1_554 S
C341 C347 1.363 . S
C342 C343 1.363 . S
C342 C347 1.379 . S
C342 N349 1.356 . S
C343 C342 1.363 . S
C343 C346 1.363 1_554 S
N344 C346 1.356 . S
N344 H356 0.984 . S
N344 H357 0.985 . S
N345 C347 1.356 . S
N345 H350 0.984 . S
N345 H351 0.985 . S
C346 C340 1.379 . S
C346 C343 1.363 1_556 S
C346 N344 1.356 . S
C347 C341 1.363 . S
C347 C342 1.379 . S
C347 N345 1.356 . S
N348 C340 1.356 . S
N348 H354 0.984 . S
N348 H355 0.984 . S
N349 C342 1.356 . S
N349 H352 0.984 . S
N349 H353 0.985 . S
H350 N345 0.984 . S
H351 N345 0.985 . S
H352 N349 0.984 . S
H353 N349 0.985 . S
H354 N348 0.984 . S
H355 N348 0.984 . S
H356 N344 0.984 . S
H357 N344 0.985 . S
C358 C359 1.363 1_556 S
C358 C364 1.379 1_545 S
C358 N366 1.356 . S
C359 C358 1.363 1_554 S
C359 C365 1.363 . S
C360 C361 1.363 . S
C360 C365 1.379 1_565 S
C360 N367 1.356 . S
C361 C360 1.363 . S
C361 C364 1.363 1_554 S
N362 C364 1.356 . S
N362 H374 0.984 . S
N362 H375 0.985 . S
N363 C365 1.356 . S
N363 H368 0.984 . S
N363 H369 0.985 . S
C364 C358 1.379 1_565 S
C364 C361 1.363 1_556 S
C364 N362 1.356 . S
C365 C359 1.363 . S
C365 C360 1.379 1_545 S
C365 N363 1.356 . S
N366 C358 1.356 . S
N366 H372 0.984 . S
N366 H373 0.984 . S
N367 C360 1.356 . S
N367 H370 0.984 . S
N367 H371 0.985 . S
H368 N363 0.984 . S
H369 N363 0.985 . S
H370 N367 0.984 . S
H371 N367 0.985 . S
H372 N366 0.984 . S
H373 N366 0.984 . S
H374 N362 0.984 . S
H375 N362 0.985 . S
C376 C377 1.363 . S
C376 C382 1.379 1_554 S
C376 N384 1.356 . S
C377 C376 1.363 . S
C377 C383 1.363 . S
C378 C379 1.363 . S
C378 C383 1.379 1_556 S
C378 N385 1.356 . S
C379 C378 1.363 . S
C379 C382 1.363 . S
N380 C382 1.356 . S
N380 H392 0.984 . S
N380 H393 0.985 . S
N381 C383 1.356 . S
N381 H386 0.984 . S
N381 H387 0.985 . S
C382 C376 1.379 1_556 S
C382 C379 1.363 . S
C382 N380 1.356 . S
C383 C377 1.363 . S
C383 C378 1.379 1_554 S
C383 N381 1.356 . S
N384 C376 1.356 . S
N384 H390 0.984 . S
N384 H391 0.984 . S
N385 C378 1.356 . S
N385 H388 0.984 . S
N385 H389 0.985 . S
H386 N381 0.984 . S
H387 N381 0.985 . S
H388 N385 0.984 . S
H389 N385 0.985 . S
H390 N384 0.984 . S
H391 N384 0.984 . S
H392 N380 0.984 . S
H393 N380 0.985 . S
C394 C395 1.363 . S
C394 C400 1.379 1_554 S
C394 N402 1.356 . S
C395 C394 1.363 . S
C395 C401 1.363 . S
C396 C397 1.363 . S
C396 C401 1.379 1_556 S
C396 N403 1.356 . S
C397 C396 1.363 . S
C397 C400 1.363 . S
N398 C400 1.356 . S
N398 H410 0.984 . S
N398 H411 0.985 . S
N399 C401 1.356 . S
N399 H404 0.984 . S
N399 H405 0.985 . S
C400 C394 1.379 1_556 S
C400 C397 1.363 . S
C400 N398 1.356 . S
C401 C395 1.363 . S
C401 C396 1.379 1_554 S
C401 N399 1.356 . S
N402 C394 1.356 . S
N402 H408 0.984 . S
N402 H409 0.984 . S
N403 C396 1.356 . S
N403 H406 0.984 . S
N403 H407 0.985 . S
H404 N399 0.984 . S
H405 N399 0.985 . S
H406 N403 0.984 . S
H407 N403 0.985 . S
H408 N402 0.984 . S
H409 N402 0.984 . S
H410 N398 0.984 . S
H411 N398 0.985 . S
C412 C413 1.363 . S
C412 C418 1.379 1_554 S
C412 N420 1.356 . S
C413 C412 1.363 . S
C413 C419 1.363 . S
C414 C415 1.363 . S
C414 C419 1.379 1_556 S
C414 N421 1.356 . S
C415 C414 1.363 . S
C415 C418 1.363 . S
N416 C418 1.356 . S
N416 H428 0.984 . S
N416 H429 0.985 . S
N417 C419 1.356 . S
N417 H422 0.984 . S
N417 H423 0.985 . S
C418 C412 1.379 1_556 S
C418 C415 1.363 . S
C418 N416 1.356 . S
C419 C413 1.363 . S
C419 C414 1.379 1_554 S
C419 N417 1.356 . S
N420 C412 1.356 . S
N420 H426 0.984 . S
N420 H427 0.984 . S
N421 C414 1.356 . S
N421 H424 0.984 . S
N421 H425 0.985 . S
H422 N417 0.984 . S
H423 N417 0.985 . S
H424 N421 0.984 . S
H425 N421 0.985 . S
H426 N420 0.984 . S
H427 N420 0.984 . S
H428 N416 0.984 . S
H429 N416 0.985 . S
C430 C431 1.363 . S
C430 C436 1.379 1_556 S
C430 N438 1.356 . S
C431 C430 1.363 . S
C431 C437 1.363 . S
C432 C433 1.363 . S
C432 C437 1.379 1_554 S
C432 N439 1.356 . S
C433 C432 1.363 . S
C433 C436 1.363 . S
N434 C436 1.356 . S
N434 H446 0.984 . S
N434 H447 0.985 . S
N435 C437 1.356 . S
N435 H440 0.984 . S
N435 H441 0.985 . S
C436 C430 1.379 1_554 S
C436 C433 1.363 . S
C436 N434 1.356 . S
C437 C431 1.363 . S
C437 C432 1.379 1_556 S
C437 N435 1.356 . S
N438 C430 1.356 . S
N438 H444 0.984 . S
N438 H445 0.984 . S
N439 C432 1.356 . S
N439 H442 0.984 . S
N439 H443 0.985 . S
H440 N435 0.984 . S
H441 N435 0.985 . S
H442 N439 0.984 . S
H443 N439 0.985 . S
H444 N438 0.984 . S
H445 N438 0.984 . S
H446 N434 0.984 . S
H447 N434 0.985 . S
C448 C449 1.363 . S
C448 C454 1.379 . S
C448 N456 1.356 . S
C449 C448 1.363 . S
C449 C455 1.363 . S
C450 C451 1.363 . S
C450 C455 1.379 . S
C450 N457 1.356 . S
C451 C450 1.363 . S
C451 C454 1.363 . S
N452 C454 1.356 . S
N452 H464 0.984 . S
N452 H465 0.985 . S
N453 C455 1.356 . S
N453 H458 0.984 . S
N453 H459 0.985 . S
C454 C448 1.379 . S
C454 C451 1.363 . S
C454 N452 1.356 . S
C455 C449 1.363 . S
C455 C450 1.379 . S
C455 N453 1.356 . S
N456 C448 1.356 . S
N456 H462 0.984 . S
N456 H463 0.984 . S
N457 C450 1.356 . S
N457 H460 0.984 . S
N457 H461 0.985 . S
H458 N453 0.984 . S
H459 N453 0.985 . S
H460 N457 0.984 . S
H461 N457 0.985 . S
H462 N456 0.984 . S
H463 N456 0.984 . S
H464 N452 0.984 . S
H465 N452 0.985 . S
C466 C467 1.363 . S
C466 C472 1.379 . S
C466 N474 1.356 . S
C467 C466 1.363 . S
C467 C473 1.363 . S
C468 C469 1.363 . S
C468 C473 1.379 . S
C468 N475 1.356 . S
C469 C468 1.363 . S
C469 C472 1.363 . S
N470 C472 1.356 . S
N470 H482 0.984 . S
N470 H483 0.985 . S
N471 C473 1.356 . S
N471 H476 0.984 . S
N471 H477 0.985 . S
C472 C466 1.379 . S
C472 C469 1.363 . S
C472 N470 1.356 . S
C473 C467 1.363 . S
C473 C468 1.379 . S
C473 N471 1.356 . S
N474 C466 1.356 . S
N474 H480 0.984 . S
N474 H481 0.984 . S
N475 C468 1.356 . S
N475 H478 0.984 . S
N475 H479 0.985 . S
H476 N471 0.984 . S
H477 N471 0.985 . S
H478 N475 0.984 . S
H479 N475 0.985 . S
H480 N474 0.984 . S
H481 N474 0.984 . S
H482 N470 0.984 . S
H483 N470 0.985 . S
C484 C485 1.363 . S
C484 C490 1.379 . S
C484 N492 1.356 . S
C485 C484 1.363 . S
C485 C491 1.363 . S
C486 C487 1.363 . S
C486 C491 1.379 . S
C486 N493 1.356 . S
C487 C486 1.363 . S
C487 C490 1.363 . S
N488 C490 1.356 . S
N488 H500 0.984 . S
N488 H501 0.985 . S
N489 C491 1.356 . S
N489 H494 0.984 . S
N489 H495 0.985 . S
C490 C484 1.379 . S
C490 C487 1.363 . S
C490 N488 1.356 . S
C491 C485 1.363 . S
C491 C486 1.379 . S
C491 N489 1.356 . S
N492 C484 1.356 . S
N492 H498 0.984 . S
N492 H499 0.984 . S
N493 C486 1.356 . S
N493 H496 0.984 . S
N493 H497 0.985 . S
H494 N489 0.984 . S
H495 N489 0.985 . S
H496 N493 0.984 . S
H497 N493 0.985 . S
H498 N492 0.984 . S
H499 N492 0.984 . S
H500 N488 0.984 . S
H501 N488 0.985 . S
C502 C503 1.363 . S
C502 C508 1.379 . S
C502 N510 1.356 . S
C503 C502 1.363 . S
C503 C509 1.363 . S
C504 C505 1.363 . S
C504 C509 1.379 . S
C504 N511 1.356 . S
C505 C504 1.363 . S
C505 C508 1.363 . S
N506 C508 1.356 . S
N506 H518 0.984 . S
N506 H519 0.985 . S
N507 C509 1.356 . S
N507 H512 0.984 . S
N507 H513 0.985 . S
C508 C502 1.379 . S
C508 C505 1.363 . S
C508 N506 1.356 . S
C509 C503 1.363 . S
C509 C504 1.379 . S
C509 N507 1.356 . S
N510 C502 1.356 . S
N510 H516 0.984 . S
N510 H517 0.984 . S
N511 C504 1.356 . S
N511 H514 0.984 . S
N511 H515 0.985 . S
H512 N507 0.984 . S
H513 N507 0.985 . S
H514 N511 0.984 . S
H515 N511 0.985 . S
H516 N510 0.984 . S
H517 N510 0.984 . S
H518 N506 0.984 . S
H519 N506 0.985 . S
C520 C521 1.363 . S
C520 C526 1.379 1_455 S
C520 N528 1.356 . S
C521 C520 1.363 . S
C521 C527 1.363 . S
C522 C523 1.363 . S
C522 C527 1.379 1_655 S
C522 N529 1.356 . S
C523 C522 1.363 . S
C523 C526 1.363 . S
N524 C526 1.356 . S
N524 H536 0.984 . S
N524 H537 0.985 . S
N525 C527 1.356 . S
N525 H530 0.984 . S
N525 H531 0.985 . S
C526 C520 1.379 1_655 S
C526 C523 1.363 . S
C526 N524 1.356 . S
C527 C521 1.363 . S
C527 C522 1.379 1_455 S
C527 N525 1.356 . S
N528 C520 1.356 . S
N528 H534 0.984 . S
N528 H535 0.984 . S
N529 C522 1.356 . S
N529 H532 0.984 . S
N529 H533 0.985 . S
H530 N525 0.984 . S
H531 N525 0.985 . S
H532 N529 0.984 . S
H533 N529 0.985 . S
H534 N528 0.984 . S
H535 N528 0.984 . S
H536 N524 0.984 . S
H537 N524 0.985 . S
C538 C539 1.363 . S
C538 C544 1.379 1_655 S
C538 N546 1.356 . S
C539 C538 1.363 . S
C539 C545 1.363 . S
C540 C541 1.363 . S
C540 C545 1.379 1_455 S
C540 N547 1.356 . S
C541 C540 1.363 . S
C541 C544 1.363 . S
N542 C544 1.356 . S
N542 H554 0.984 . S
N542 H555 0.985 . S
N543 C545 1.356 . S
N543 H548 0.984 . S
N543 H549 0.985 . S
C544 C538 1.379 1_455 S
C544 C541 1.363 . S
C544 N542 1.356 . S
C545 C539 1.363 . S
C545 C540 1.379 1_655 S
C545 N543 1.356 . S
N546 C538 1.356 . S
N546 H552 0.984 . S
N546 H553 0.984 . S
N547 C540 1.356 . S
N547 H550 0.984 . S
N547 H551 0.985 . S
H548 N543 0.984 . S
H549 N543 0.985 . S
H550 N547 0.984 . S
H551 N547 0.985 . S
H552 N546 0.984 . S
H553 N546 0.984 . S
H554 N542 0.984 . S
H555 N542 0.985 . S
C556 C557 1.363 . S
C556 C562 1.379 . S
C556 N564 1.356 . S
C557 C556 1.363 . S
C557 C563 1.363 . S
C558 C559 1.363 . S
C558 C563 1.379 . S
C558 N565 1.356 . S
C559 C558 1.363 . S
C559 C562 1.363 . S
N560 C562 1.356 . S
N560 H572 0.984 . S
N560 H573 0.985 . S
N561 C563 1.356 . S
N561 H566 0.984 . S
N561 H567 0.985 1_556 S
C562 C556 1.379 . S
C562 C559 1.363 . S
C562 N560 1.356 . S
C563 C557 1.363 . S
C563 C558 1.379 . S
C563 N561 1.356 . S
N564 C556 1.356 . S
N564 H570 0.984 . S
N564 H571 0.984 . S
N565 C558 1.356 . S
N565 H568 0.984 . S
N565 H569 0.985 1_556 S
H566 N561 0.984 . S
H567 N561 0.985 1_554 S
H568 N565 0.984 . S
H569 N565 0.985 1_554 S
H570 N564 0.984 . S
H571 N564 0.984 . S
H572 N560 0.984 . S
H573 N560 0.985 . S
C574 C575 1.363 . S
C574 C580 1.379 . S
C574 N582 1.356 . S
C575 C574 1.363 . S
C575 C581 1.363 . S
C576 C577 1.363 . S
C576 C581 1.379 . S
C576 N583 1.356 . S
C577 C576 1.363 . S
C577 C580 1.363 . S
N578 C580 1.356 . S
N578 H590 0.984 . S
N578 H591 0.985 . S
N579 C581 1.356 . S
N579 H584 0.984 . S
N579 H585 0.985 1_554 S
C580 C574 1.379 . S
C580 C577 1.363 . S
C580 N578 1.356 . S
C581 C575 1.363 . S
C581 C576 1.379 . S
C581 N579 1.356 . S
N582 C574 1.356 . S
N582 H588 0.984 . S
N582 H589 0.984 . S
N583 C576 1.356 . S
N583 H586 0.984 . S
N583 H587 0.985 1_554 S
H584 N579 0.984 . S
H585 N579 0.985 1_556 S
H586 N583 0.984 . S
H587 N583 0.985 1_556 S
H588 N582 0.984 . S
H589 N582 0.984 . S
H590 N578 0.984 . S
H591 N578 0.985 . S
C161 C2 1.620 . S
C163 C141 1.619 . S
C179 C121 1.620 . S
C181 C22 1.619 . S
C197 C102 1.620 . S
C199 C41 1.619 . S
C215 C82 1.620 . S
C217 C61 1.619 . S
C233 C48 1.465 . S
C235 C8 1.472 . S
C251 C28 1.472 . S
C253 C68 1.465 . S
C269 C69 1.472 . S
C271 C29 1.465 . S
C287 C49 1.472 . S
C289 C9 1.465 . S
C305 C88 1.459 . S
C307 C128 1.459 . S
C323 C108 1.459 . S
C325 C148 1.459 . S
C341 C149 1.459 . S
C343 C109 1.459 . S
C359 C129 1.459 . S
C361 C89 1.459 . S
C377 C19 1.649 . S
C379 C18 1.649 . S
C395 C39 1.649 . S
C397 C38 1.649 . S
C413 C59 1.649 . S
C415 C58 1.649 . S
C431 C78 1.649 . S
C433 C79 1.649 . S
C449 C98 1.649 . S
C451 C99 1.649 . S
C467 C119 1.649 . S
C469 C118 1.649 . S
C485 C138 1.649 . S
C487 C139 1.649 . S
C503 C158 1.649 . S
C505 C159 1.649 . S
C521 C1 1.830 . S
C523 C21 1.830 . S
C539 C62 1.830 . S
C541 C42 1.830 . S
C557 C81 1.831 . S
C559 C101 1.831 . S
C575 C142 1.831 . S
C577 C122 1.831 . S
