# Generated by pormake.
# Topology umd, (4)-cn, num edge types: 1
# Building blocks:
#     Node 0, Type 0, BuildingBlock: MUDLON_clean_sbu_0, # of connection points: 4
#     Node 1, Type 0, BuildingBlock: MUDLON_clean_sbu_0, # of connection points: 4
#     Node 2, Type 0, BuildingBlock: MUDLON_clean_sbu_0, # of connection points: 4
#     Node 3, Type 0, BuildingBlock: MUDLON_clean_sbu_0, # of connection points: 4
#     Node 4, Type 0, BuildingBlock: MUDLON_clean_sbu_0, # of connection points: 4
#     Node 5, Type 0, BuildingBlock: MUDLON_clean_sbu_0, # of connection points: 4
#     Node 6, Type 0, BuildingBlock: MUDLON_clean_sbu_0, # of connection points: 4
#     Node 7, Type 0, BuildingBlock: MUDLON_clean_sbu_0, # of connection points: 4
#     Node 8, Type 0, BuildingBlock: MUDLON_clean_sbu_0, # of connection points: 4
#     Node 9, Type 0, BuildingBlock: MUDLON_clean_sbu_0, # of connection points: 4
#     Node 10, Type 0, BuildingBlock: MUDLON_clean_sbu_0, # of connection points: 4
#     Node 11, Type 0, BuildingBlock: MUDLON_clean_sbu_0, # of connection points: 4
#     Node 12, Type 0, BuildingBlock: MUDLON_clean_sbu_0, # of connection points: 4
#     Node 13, Type 0, BuildingBlock: MUDLON_clean_sbu_0, # of connection points: 4
#     Node 14, Type 0, BuildingBlock: MUDLON_clean_sbu_0, # of connection points: 4
#     Node 15, Type 0, BuildingBlock: MUDLON_clean_sbu_0, # of connection points: 4
#     Edge 16, Type (0, 0), BuildingBlock: XIVTED_clean_linker_0, # of connection points: 2
#     Edge 17, Type (0, 0), BuildingBlock: XIVTED_clean_linker_0, # of connection points: 2
#     Edge 18, Type (0, 0), BuildingBlock: XIVTED_clean_linker_0, # of connection points: 2
#     Edge 19, Type (0, 0), BuildingBlock: XIVTED_clean_linker_0, # of connection points: 2
#     Edge 20, Type (0, 0), BuildingBlock: XIVTED_clean_linker_0, # of connection points: 2
#     Edge 21, Type (0, 0), BuildingBlock: XIVTED_clean_linker_0, # of connection points: 2
#     Edge 22, Type (0, 0), BuildingBlock: XIVTED_clean_linker_0, # of connection points: 2
#     Edge 23, Type (0, 0), BuildingBlock: XIVTED_clean_linker_0, # of connection points: 2
#     Edge 24, Type (0, 0), BuildingBlock: XIVTED_clean_linker_0, # of connection points: 2
#     Edge 25, Type (0, 0), BuildingBlock: XIVTED_clean_linker_0, # of connection points: 2
#     Edge 26, Type (0, 0), BuildingBlock: XIVTED_clean_linker_0, # of connection points: 2
#     Edge 27, Type (0, 0), BuildingBlock: XIVTED_clean_linker_0, # of connection points: 2
#     Edge 28, Type (0, 0), BuildingBlock: XIVTED_clean_linker_0, # of connection points: 2
#     Edge 29, Type (0, 0), BuildingBlock: XIVTED_clean_linker_0, # of connection points: 2
#     Edge 30, Type (0, 0), BuildingBlock: XIVTED_clean_linker_0, # of connection points: 2
#     Edge 31, Type (0, 0), BuildingBlock: XIVTED_clean_linker_0, # of connection points: 2
#     Edge 32, Type (0, 0), BuildingBlock: XIVTED_clean_linker_0, # of connection points: 2
#     Edge 33, Type (0, 0), BuildingBlock: XIVTED_clean_linker_0, # of connection points: 2
#     Edge 34, Type (0, 0), BuildingBlock: XIVTED_clean_linker_0, # of connection points: 2
#     Edge 35, Type (0, 0), BuildingBlock: XIVTED_clean_linker_0, # of connection points: 2
#     Edge 36, Type (0, 0), BuildingBlock: XIVTED_clean_linker_0, # of connection points: 2
#     Edge 37, Type (0, 0), BuildingBlock: XIVTED_clean_linker_0, # of connection points: 2
#     Edge 38, Type (0, 0), BuildingBlock: XIVTED_clean_linker_0, # of connection points: 2
#     Edge 39, Type (0, 0), BuildingBlock: XIVTED_clean_linker_0, # of connection points: 2
#     Edge 40, Type (0, 0), BuildingBlock: XIVTED_clean_linker_0, # of connection points: 2
#     Edge 41, Type (0, 0), BuildingBlock: XIVTED_clean_linker_0, # of connection points: 2
#     Edge 42, Type (0, 0), BuildingBlock: XIVTED_clean_linker_0, # of connection points: 2
#     Edge 43, Type (0, 0), BuildingBlock: XIVTED_clean_linker_0, # of connection points: 2
#     Edge 44, Type (0, 0), BuildingBlock: XIVTED_clean_linker_0, # of connection points: 2
#     Edge 45, Type (0, 0), BuildingBlock: XIVTED_clean_linker_0, # of connection points: 2
#     Edge 46, Type (0, 0), BuildingBlock: XIVTED_clean_linker_0, # of connection points: 2
#     Edge 47, Type (0, 0), BuildingBlock: XIVTED_clean_linker_0, # of connection points: 2
# Relax obj value: 0.014
# Max RMSD: 0.192
# Mean RMSD: 0.192
data_MOF--net-umd--node1-MUDLON_clean_sbu_0--edge1-XIVTED_clean_linker_0
_symmetry_space_group_name_H-M    P1
_symmetry_Int_Tables_number       1
_symmetry_cell_setting            triclinic
loop_
_symmetry_equiv_pos_as_xyz
'x, y, z'
_cell_length_a     41.181085
_cell_length_b     41.247842
_cell_length_c     60.09215
_cell_angle_alpha  90.133289
_cell_angle_beta   90.121582
_cell_angle_gamma 90.082645
loop_
_atom_site_label
_atom_site_type_symbol
_atom_site_fract_x
_atom_site_fract_y
_atom_site_fract_z
_atom_type_partial_charge
Mg0 Mg 0.19405 0.45761 0.14407 0.0
C1 C 0.18995 0.49285 0.09944 0.0
O2 O 0.15935 0.49564 0.1052 0.0
C3 C 0.21377 0.46457 0.19156 0.0
O4 O 0.21164 0.43294 0.18939 0.0
C5 C 0.24813 0.41412 0.13953 0.0
O6 O 0.25918 0.44363 0.13625 0.0
O7 O 0.2181 0.41057 0.14381 0.0
O8 O 0.20992 0.48032 0.1131 0.0
O9 O 0.14117 0.45721 0.14459 0.0
C10 C 0.12852 0.48362 0.15132 0.0
O11 O 0.14785 0.50728 0.15767 0.0
O12 O 0.20909 0.48226 0.17452 0.0
Mg13 Mg 0.56351 0.18382 0.64841 0.0
C14 C 0.54886 0.22039 0.60569 0.0
O15 O 0.5752 0.2362 0.61166 0.0
C16 C 0.55572 0.18929 0.69729 0.0
O17 O 0.58253 0.17227 0.69535 0.0
C18 C 0.62259 0.22494 0.65879 0.0
O19 O 0.60273 0.2357 0.67418 0.0
O20 O 0.61312 0.20232 0.64587 0.0
O21 O 0.53733 0.199 0.61869 0.0
O22 O 0.56046 0.1312 0.64815 0.0
C23 C 0.53183 0.12018 0.64547 0.0
O24 O 0.50785 0.14086 0.64303 0.0
O25 O 0.5414 0.19881 0.67969 0.0
Mg26 Mg 0.82376 0.55275 0.14178 0.0
C27 C 0.78737 0.54028 0.09766 0.0
O28 O 0.76655 0.56129 0.10576 0.0
C29 C 0.80825 0.54349 0.18899 0.0
O30 O 0.81638 0.57422 0.18753 0.0
C31 C 0.79979 0.62274 0.1303 0.0
O32 O 0.81203 0.61795 0.11039 0.0
O33 O 0.80278 0.60093 0.14508 0.0
O34 O 0.81124 0.53133 0.10963 0.0
O35 O 0.87641 0.55142 0.14349 0.0
C36 C 0.88831 0.52332 0.14035 0.0
O37 O 0.86839 0.49913 0.13616 0.0
O38 O 0.80795 0.52642 0.17129 0.0
Mg39 Mg 0.45091 0.81753 0.64194 0.0
C40 C 0.48989 0.81407 0.59885 0.0
O41 O 0.49835 0.8434 0.60513 0.0
C42 C 0.4624 0.81775 0.69034 0.0
O43 O 0.44338 0.84283 0.68694 0.0
C44 C 0.38446 0.79082 0.65598 0.0
O45 O 0.39867 0.78903 0.67551 0.0
O46 O 0.39993 0.803 0.63971 0.0
O47 O 0.47245 0.79699 0.61179 0.0
O48 O 0.45744 0.87002 0.64138 0.0
C49 C 0.48473 0.881 0.648 0.0
O50 O 0.50699 0.86041 0.65472 0.0
O51 O 0.47098 0.80076 0.67363 0.0
Mg52 Mg 0.19141 0.55696 0.39543 0.0
C53 C 0.22699 0.54345 0.43867 0.0
O54 O 0.2433 0.5692 0.43232 0.0
C55 C 0.19738 0.54992 0.34695 0.0
O56 O 0.18043 0.57663 0.34953 0.0
C57 C 0.23558 0.61282 0.38563 0.0
O58 O 0.24787 0.59007 0.37288 0.0
O59 O 0.21055 0.60639 0.3972 0.0
O60 O 0.20564 0.53159 0.42566 0.0
O61 O 0.13872 0.55408 0.39474 0.0
C62 C 0.12775 0.52528 0.39324 0.0
O63 O 0.14855 0.50118 0.39229 0.0
O64 O 0.20678 0.53478 0.36424 0.0
Mg65 Mg 0.4548 0.18869 0.89889 0.0
C66 C 0.47216 0.22228 0.94264 0.0
O67 O 0.44801 0.24125 0.93682 0.0
C68 C 0.46231 0.1993 0.8504 0.0
O69 O 0.43214 0.18915 0.85196 0.0
C70 C 0.40296 0.23809 0.89111 0.0
O71 O 0.42783 0.25114 0.88079 0.0
O72 O 0.4066 0.21073 0.90052 0.0
O73 O 0.48135 0.20019 0.92927 0.0
O74 O 0.45467 0.13603 0.89771 0.0
C75 C 0.48309 0.12404 0.89664 0.0
O76 O 0.50805 0.14392 0.89631 0.0
O77 O 0.47887 0.20287 0.86815 0.0
Mg78 Mg 0.82501 0.44401 0.39044 0.0
C79 C 0.78815 0.45865 0.43392 0.0
O80 O 0.76811 0.4362 0.42662 0.0
C81 C 0.80963 0.45132 0.34275 0.0
O82 O 0.81757 0.4206 0.34456 0.0
C83 C 0.80188 0.37451 0.40369 0.0
O84 O 0.81526 0.3803 0.42317 0.0
O85 O 0.80398 0.39563 0.38837 0.0
O86 O 0.8117 0.46751 0.42167 0.0
O87 O 0.87773 0.4458 0.3898 0.0
C88 C 0.8889 0.47458 0.39028 0.0
O89 O 0.86826 0.49883 0.39092 0.0
O90 O 0.80951 0.46883 0.36024 0.0
Mg91 Mg 0.5492 0.81862 0.89339 0.0
C92 C 0.53281 0.7824 0.93581 0.0
O93 O 0.55646 0.76378 0.92864 0.0
C94 C 0.53659 0.78608 0.84768 0.0
O95 O 0.56364 0.77039 0.85183 0.0
C96 C 0.6206 0.79845 0.88258 0.0
O97 O 0.61678 0.81423 0.86379 0.0
O98 O 0.59755 0.79774 0.89662 0.0
O99 O 0.52304 0.80552 0.92354 0.0
O100 O 0.54861 0.87129 0.8935 0.0
C101 C 0.52011 0.88321 0.89325 0.0
O102 O 0.4952 0.86326 0.89286 0.0
O103 O 0.525 0.80501 0.8624 0.0
Mg104 Mg 0.81776 0.56388 0.88933 0.0
C105 C 0.81583 0.52802 0.93368 0.0
O106 O 0.84493 0.51916 0.9272 0.0
C107 C 0.80008 0.55696 0.84163 0.0
O108 O 0.80742 0.58788 0.84329 0.0
C109 C 0.78946 0.62847 0.9038 0.0
O110 O 0.79061 0.61409 0.92327 0.0
O111 O 0.80103 0.61391 0.88691 0.0
O112 O 0.79833 0.54476 0.92054 0.0
O113 O 0.87049 0.55921 0.88981 0.0
C114 C 0.88228 0.53229 0.8833 0.0
O115 O 0.86232 0.50951 0.87635 0.0
O116 O 0.80105 0.53955 0.8591 0.0
Mg117 Mg 0.46115 0.81771 0.3917 0.0
C118 C 0.47476 0.78126 0.43556 0.0
O119 O 0.45496 0.75941 0.42715 0.0
C120 C 0.47083 0.79053 0.3459 0.0
O121 O 0.43915 0.78849 0.34788 0.0
C122 C 0.39148 0.79482 0.40483 0.0
O123 O 0.39859 0.80518 0.42495 0.0
O124 O 0.41185 0.79877 0.38919 0.0
O125 O 0.48242 0.80582 0.42392 0.0
O126 O 0.46521 0.87002 0.38909 0.0
C127 C 0.44942 0.89071 0.40039 0.0
O128 O 0.42662 0.88081 0.41405 0.0
O129 O 0.48748 0.80015 0.36255 0.0
Mg130 Mg 0.18613 0.45665 0.89274 0.0
C131 C 0.22135 0.47433 0.9366 0.0
O132 O 0.24386 0.45446 0.92929 0.0
C133 C 0.20283 0.46581 0.84562 0.0
O134 O 0.19686 0.4346 0.84715 0.0
C135 C 0.21471 0.38904 0.90591 0.0
O136 O 0.20166 0.3939 0.92556 0.0
O137 O 0.21037 0.40978 0.89056 0.0
O138 O 0.19693 0.48043 0.92432 0.0
O139 O 0.13335 0.45603 0.89074 0.0
C140 C 0.12121 0.48417 0.89333 0.0
O141 O 0.14102 0.50865 0.89692 0.0
O142 O 0.20124 0.48308 0.86318 0.0
Mg143 Mg 0.55689 0.18494 0.3996 0.0
C144 C 0.52167 0.18994 0.4441 0.0
O145 O 0.51398 0.15988 0.43915 0.0
C146 C 0.55027 0.18983 0.35127 0.0
O147 O 0.57618 0.17182 0.35441 0.0
C148 C 0.61398 0.22552 0.38809 0.0
O149 O 0.59014 0.24014 0.37761 0.0
O150 O 0.60784 0.19985 0.39902 0.0
O151 O 0.5374 0.2067 0.42999 0.0
O152 O 0.54912 0.13265 0.40027 0.0
C153 C 0.52015 0.12365 0.39606 0.0
O154 O 0.49818 0.14587 0.39177 0.0
O155 O 0.53517 0.20046 0.36825 0.0
Mg156 Mg 0.82129 0.45193 0.64232 0.0
C157 C 0.81697 0.48469 0.59709 0.0
O158 O 0.84553 0.49568 0.60332 0.0
C159 C 0.80286 0.45849 0.68973 0.0
O160 O 0.81337 0.4285 0.68841 0.0
C161 C 0.79726 0.38411 0.62997 0.0
O162 O 0.79688 0.39649 0.60985 0.0
O163 O 0.80856 0.40097 0.64596 0.0
O164 O 0.80052 0.46772 0.61068 0.0
O165 O 0.87339 0.46173 0.64237 0.0
C166 C 0.88196 0.48899 0.65047 0.0
O167 O 0.85943 0.50846 0.65826 0.0
O168 O 0.80194 0.47549 0.67207 0.0
Mg169 Mg 0.55784 0.81578 0.14148 0.0
C170 C 0.5181 0.81375 0.09848 0.0
O171 O 0.51025 0.84314 0.10493 0.0
C172 C 0.55224 0.80982 0.19001 0.0
O173 O 0.57812 0.82798 0.18707 0.0
C174 C 0.61485 0.77359 0.15135 0.0
O175 O 0.59187 0.75966 0.16306 0.0
O176 O 0.60814 0.79913 0.14044 0.0
O177 O 0.53562 0.79635 0.11118 0.0
O178 O 0.55335 0.86839 0.1418 0.0
C179 C 0.52612 0.87972 0.14808 0.0
O180 O 0.50302 0.85938 0.15379 0.0
O181 O 0.53694 0.79968 0.17292 0.0
Mg182 Mg 0.18592 0.56316 0.64356 0.0
C183 C 0.19454 0.52479 0.60086 0.0
O184 O 0.16616 0.51328 0.60695 0.0
C185 C 0.20103 0.55803 0.69187 0.0
O186 O 0.1937 0.58886 0.68982 0.0
C187 C 0.21037 0.62961 0.62945 0.0
O188 O 0.20909 0.61601 0.60967 0.0
O189 O 0.20009 0.61386 0.64619 0.0
O190 O 0.20939 0.54428 0.61379 0.0
O191 O 0.13393 0.55531 0.64011 0.0
C192 C 0.11332 0.56692 0.65365 0.0
O193 O 0.12334 0.58622 0.66969 0.0
O194 O 0.20083 0.54015 0.67456 0.0
Mg195 Mg 0.46 0.18518 0.14815 0.0
C196 C 0.4963 0.18251 0.10364 0.0
O197 O 0.49874 0.15164 0.10863 0.0
C198 C 0.46564 0.20596 0.19564 0.0
O199 O 0.43399 0.20534 0.1929 0.0
C200 C 0.41729 0.23964 0.14384 0.0
O201 O 0.4472 0.25044 0.142 0.0
O202 O 0.41305 0.20948 0.14717 0.0
O203 O 0.48364 0.20183 0.11768 0.0
O204 O 0.45968 0.13237 0.14834 0.0
C205 C 0.48699 0.11998 0.15347 0.0
O206 O 0.51123 0.13953 0.15835 0.0
O207 O 0.48378 0.19981 0.17903 0.0
H208 H 0.0955 0.53838 0.163 0.0
H209 H 0.92044 0.4666 0.13232 0.0
H210 H 0.08048 0.44138 0.13784 0.0
H211 H 0.93688 0.5661 0.15178 0.0
H212 H 0.97859 0.45638 0.13541 0.0
H213 H 0.03728 0.54816 0.16042 0.0
C214 C 0.07996 0.51904 0.15699 0.0
C215 C 0.09297 0.48898 0.1506 0.0
C216 C 0.96953 0.48046 0.13898 0.0
C217 C 0.02603 0.50015 0.14755 0.0
C218 C 0.93627 0.48636 0.13723 0.0
C219 C 0.9237 0.51731 0.1418 0.0
C220 C 0.9905 0.50564 0.14544 0.0
C221 C 0.94547 0.5419 0.14806 0.0
C222 C 0.04666 0.52471 0.15548 0.0
C223 C 0.07154 0.46491 0.14295 0.0
N224 N 0.97779 0.53552 0.14973 0.0
N225 N 0.03912 0.47103 0.14163 0.0
H226 H 0.54194 0.91112 0.65856 0.0
H227 H 0.47388 0.09005 0.63746 0.0
H228 H 0.44418 0.93114 0.63653 0.0
H229 H 0.57412 0.06982 0.65328 0.0
H230 H 0.46239 0.03208 0.63789 0.0
H231 H 0.55385 0.96908 0.65766 0.0
C232 C 0.52292 0.92769 0.65354 0.0
C233 C 0.49197 0.91619 0.64761 0.0
C234 C 0.48692 0.04025 0.64123 0.0
C235 C 0.50553 0.98276 0.64656 0.0
C236 C 0.49354 0.07342 0.64101 0.0
C237 C 0.52505 0.08489 0.64536 0.0
C238 C 0.51194 0.01822 0.64593 0.0
C239 C 0.54949 0.0621 0.64982 0.0
C240 C 0.5298 0.96083 0.653 0.0
C241 C 0.46837 0.93888 0.64123 0.0
N242 N 0.54239 0.02986 0.65004 0.0
N243 N 0.47563 0.97106 0.6409 0.0
H244 H 0.07716 0.56871 0.39449 0.0
H245 H 0.93939 0.43094 0.38916 0.0
H246 H 0.09777 0.46626 0.39063 0.0
H247 H 0.91907 0.53353 0.39175 0.0
H248 H 0.99759 0.44329 0.38972 0.0
H249 H 0.01903 0.55627 0.39358 0.0
C250 C 0.06949 0.54363 0.39345 0.0
C251 C 0.09241 0.51852 0.39265 0.0
C252 C 0.98037 0.46309 0.39015 0.0
C253 C 0.02591 0.50406 0.39159 0.0
C254 C 0.94714 0.45603 0.38983 0.0
C255 C 0.92428 0.48121 0.39041 0.0
C256 C 0.99082 0.49555 0.39109 0.0
C257 C 0.93576 0.51329 0.39127 0.0
C258 C 0.03629 0.53651 0.39292 0.0
C259 C 0.08102 0.48644 0.39129 0.0
N260 N 0.96815 0.51952 0.3916 0.0
N261 N 0.04863 0.48015 0.39082 0.0
H262 H 0.46196 0.91497 0.89342 0.0
H263 H 0.54113 0.09223 0.89495 0.0
H264 H 0.56536 0.93238 0.89374 0.0
H265 H 0.43776 0.0749 0.8967 0.0
H266 H 0.55035 0.0339 0.89396 0.0
H267 H 0.45267 0.97332 0.89408 0.0
C268 C 0.48277 0.93105 0.89362 0.0
C269 C 0.51454 0.91869 0.89353 0.0
C270 C 0.52564 0.04279 0.89456 0.0
C271 C 0.50396 0.98577 0.89429 0.0
C272 C 0.5203 0.07617 0.89512 0.0
C273 C 0.48857 0.08855 0.89592 0.0
C274 C 0.49907 0.02147 0.89478 0.0
C275 C 0.46262 0.06646 0.8961 0.0
C276 C 0.4774 0.96443 0.894 0.0
C277 C 0.54047 0.9408 0.8938 0.0
N278 N 0.46845 0.034 0.89553 0.0
N279 N 0.5346 0.97326 0.89416 0.0
H280 H 0.93112 0.57356 0.89646 0.0
H281 H 0.0723 0.44092 0.883 0.0
H282 H 0.91402 0.47592 0.87318 0.0
H283 H 0.08927 0.54101 0.90073 0.0
H284 H 0.01398 0.45248 0.88044 0.0
H285 H 0.98912 0.56145 0.8991 0.0
C286 C 0.93954 0.54961 0.89186 0.0
C287 C 0.91763 0.52576 0.88457 0.0
C288 C 0.03052 0.47188 0.8849 0.0
C289 C 0.98405 0.51163 0.88764 0.0
C290 C 0.06379 0.46526 0.8864 0.0
C291 C 0.08574 0.49001 0.89205 0.0
C292 C 0.01914 0.50344 0.88916 0.0
C293 C 0.07332 0.52114 0.89626 0.0
C294 C 0.97268 0.54268 0.89338 0.0
C295 C 0.92999 0.4951 0.87886 0.0
N296 N 0.04094 0.52693 0.89474 0.0
N297 N 0.96233 0.48891 0.88055 0.0
H298 H 0.55916 0.06976 0.39376 0.0
H299 H 0.4158 0.94351 0.41598 0.0
H300 H 0.45907 0.09898 0.40047 0.0
H301 H 0.50481 0.91679 0.38289 0.0
H302 H 0.43322 1.00039 0.41519 0.0
H303 H 0.54172 0.01282 0.39469 0.0
C304 C 0.53358 0.0642 0.3955 0.0
C305 C 0.51052 0.08911 0.39695 0.0
C306 C 0.44883 0.98202 0.40805 0.0
C307 C 0.49051 0.02427 0.39825 0.0
C308 C 0.43893 0.94959 0.40851 0.0
C309 C 0.4588 0.92536 0.39941 0.0
C310 C 0.47904 0.99019 0.39877 0.0
C311 C 0.4886 0.93466 0.38998 0.0
C312 C 0.52364 0.03177 0.39594 0.0
C313 C 0.47765 0.08055 0.39914 0.0
N314 N 0.49791 0.96628 0.39004 0.0
N315 N 0.46864 0.04887 0.39985 0.0
H316 H 0.93463 0.4598 0.63064 0.0
H317 H 0.06176 0.59071 0.6773 0.0
H318 H 0.90768 0.54249 0.67067 0.0
H319 H 0.08632 0.51953 0.62734 0.0
H320 H 1.00559 0.5716 0.67636 0.0
H321 H 0.99098 0.47919 0.63073 0.0
C322 C 0.94055 0.48194 0.63949 0.0
C323 C 0.91637 0.49953 0.65066 0.0
C324 C 0.02323 0.56022 0.66553 0.0
C325 C 0.9807 0.52184 0.65083 0.0
C326 C 0.05533 0.57115 0.66607 0.0
C327 C 0.07883 0.55673 0.65239 0.0
C328 C 0.01451 0.53447 0.65136 0.0
C329 C 0.06902 0.53144 0.63815 0.0
C330 C 0.97268 0.49307 0.63947 0.0
C331 C 0.92545 0.52814 0.66179 0.0
N332 N 0.03766 0.52101 0.63809 0.0
N333 N 0.95682 0.53832 0.66163 0.0
H334 H 0.54484 0.08819 0.15638 0.0
H335 H 0.46796 0.91052 0.15366 0.0
H336 H 0.442 0.07095 0.14869 0.0
H337 H 0.56997 0.92949 0.14353 0.0
H338 H 0.45792 0.96887 0.15472 0.0
H339 H 0.55432 0.02993 0.15469 0.0
C340 C 0.52418 0.07215 0.15439 0.0
C341 C 0.49252 0.08453 0.15269 0.0
C342 C 0.48248 0.96027 0.15221 0.0
C343 C 0.50333 0.01756 0.15079 0.0
C344 C 0.48829 0.92695 0.15167 0.0
C345 C 0.5199 0.91507 0.14852 0.0
C346 C 0.5085 0.98197 0.14984 0.0
C347 C 0.54522 0.93754 0.14596 0.0
C348 C 0.52968 0.03884 0.15334 0.0
C349 C 0.46679 0.06249 0.15004 0.0
N350 N 0.53899 0.9699 0.14678 0.0
N351 N 0.47275 0.03004 0.14926 0.0
H352 H 0.22383 0.4914 0.33449 0.0
H353 H 0.20741 0.52841 0.20392 0.0
H354 H 0.18772 0.58139 0.30762 0.0
H355 H 0.22827 0.43354 0.23049 0.0
H356 H 0.2077 0.55027 0.2418 0.0
H357 H 0.23272 0.47171 0.29645 0.0
C358 C 0.21798 0.50708 0.32062 0.0
C359 C 0.20476 0.53798 0.32425 0.0
C360 C 0.21245 0.52471 0.23932 0.0
C361 C 0.21495 0.51569 0.28074 0.0
C362 C 0.21244 0.51224 0.21767 0.0
C363 C 0.21756 0.47903 0.21401 0.0
C364 C 0.21773 0.50386 0.25745 0.0
C365 C 0.22393 0.45925 0.23252 0.0
C366 C 0.22301 0.49582 0.29892 0.0
C367 C 0.19768 0.55729 0.30564 0.0
N368 N 0.22366 0.47191 0.25342 0.0
N369 N 0.20277 0.54581 0.28474 0.0
H370 H 0.49478 0.2112 0.70816 0.0
H371 H 0.52694 0.20446 0.83974 0.0
H372 H 0.58628 0.18307 0.7374 0.0
H373 H 0.43119 0.20433 0.8104 0.0
H374 H 0.55045 0.20664 0.80233 0.0
H375 H 0.4725 0.21859 0.74564 0.0
C376 C 0.51026 0.20686 0.72244 0.0
C377 C 0.54235 0.19623 0.71965 0.0
C378 C 0.52429 0.20637 0.80412 0.0
C379 C 0.5171 0.20477 0.7625 0.0
C380 C 0.51087 0.20528 0.82546 0.0
C381 C 0.47706 0.20394 0.82818 0.0
C382 C 0.50376 0.20645 0.7854 0.0
C383 C 0.45739 0.20502 0.80907 0.0
C384 C 0.49751 0.21098 0.74381 0.0
C385 C 0.56131 0.19099 0.73876 0.0
N386 N 0.47102 0.20612 0.7885 0.0
N387 N 0.5484 0.19525 0.75935 0.0
H388 H 0.80092 0.47911 0.20009 0.0
H389 H 0.80028 0.51524 0.33139 0.0
H390 H 0.8025 0.57522 0.22865 0.0
H391 H 0.80544 0.41912 0.30307 0.0
H392 H 0.79501 0.53751 0.29382 0.0
H393 H 0.79645 0.45646 0.23764 0.0
C394 C 0.8 0.49545 0.21421 0.0
C395 C 0.80238 0.5291 0.21121 0.0
C396 C 0.79708 0.51152 0.29585 0.0
C397 C 0.79741 0.5034 0.25422 0.0
C398 C 0.80002 0.4988 0.31732 0.0
C399 C 0.80358 0.46529 0.32041 0.0
C400 C 0.79768 0.49058 0.27733 0.0
C401 C 0.80302 0.44515 0.30151 0.0
C402 C 0.79755 0.48252 0.23565 0.0
C403 C 0.80104 0.54911 0.23014 0.0
N404 N 0.80034 0.4581 0.28082 0.0
N405 N 0.79884 0.53597 0.25079 0.0
H406 H 0.48179 0.81705 0.83321 0.0
H407 H 0.50689 0.77207 0.70443 0.0
H408 H 0.55894 0.75466 0.81028 0.0
H409 H 0.4401 0.84437 0.72885 0.0
H410 H 0.52289 0.76042 0.74304 0.0
H411 H 0.46218 0.82162 0.79507 0.0
C412 C 0.49446 0.80402 0.82019 0.0
C413 C 0.52224 0.78564 0.825 0.0
C414 C 0.50466 0.77874 0.73987 0.0
C415 C 0.49999 0.79105 0.78104 0.0
C416 C 0.49553 0.78539 0.71786 0.0
C417 C 0.47227 0.80938 0.71336 0.0
C418 C 0.49022 0.79605 0.75745 0.0
C419 C 0.4583 0.82584 0.73143 0.0
C420 C 0.4833 0.80675 0.79835 0.0
C421 C 0.5375 0.76921 0.80736 0.0
N422 N 0.46749 0.8189 0.75258 0.0
N423 N 0.52632 0.77248 0.78613 0.0
H424 H 0.79267 0.58868 0.80209 0.0
H425 H 0.79692 0.42659 0.72924 0.0
H426 H 0.79379 0.49256 0.83033 0.0
H427 H 0.79271 0.5225 0.70082 0.0
H428 H 0.79094 0.45019 0.76623 0.0
H429 H 0.78791 0.56488 0.76503 0.0
C430 C 0.79165 0.56253 0.80054 0.0
C431 C 0.79391 0.54258 0.81939 0.0
C432 C 0.79104 0.46611 0.75192 0.0
C433 C 0.78861 0.51512 0.77683 0.0
C434 C 0.79446 0.45265 0.73074 0.0
C435 C 0.79559 0.47262 0.71186 0.0
C436 C 0.78893 0.49988 0.75436 0.0
C437 C 0.79203 0.50618 0.71489 0.0
C438 C 0.78892 0.54896 0.77932 0.0
C439 C 0.79224 0.50888 0.81629 0.0
N440 N 0.78917 0.51877 0.73576 0.0
N441 N 0.78997 0.49622 0.7954 0.0
H442 H 0.53356 0.80392 0.33323 0.0
H443 H 0.49637 0.77861 0.20322 0.0
H444 H 0.44199 0.76876 0.30764 0.0
H445 H 0.58368 0.82304 0.22901 0.0
H446 H 0.47846 0.76865 0.24148 0.0
H447 H 0.55502 0.80426 0.2953 0.0
C448 C 0.5181 0.79584 0.3197 0.0
C449 C 0.48582 0.78659 0.32364 0.0
C450 C 0.50162 0.78042 0.23874 0.0
C451 C 0.51013 0.78721 0.28011 0.0
C452 C 0.51185 0.7861 0.21689 0.0
C453 C 0.54144 0.80193 0.21288 0.0
C454 C 0.52117 0.79055 0.25668 0.0
C455 C 0.56055 0.81101 0.23127 0.0
C456 C 0.53031 0.7962 0.29801 0.0
C457 C 0.46694 0.77636 0.3054 0.0
N458 N 0.55005 0.80531 0.25232 0.0
N459 N 0.47928 0.77719 0.28445 0.0
H460 H 0.20701 0.53042 0.83455 0.0
H461 H 0.21169 0.49442 0.70337 0.0
H462 H 0.21104 0.43436 0.80604 0.0
H463 H 0.2034 0.59039 0.73158 0.0
H464 H 0.21689 0.47233 0.74097 0.0
H465 H 0.21115 0.55327 0.79707 0.0
C466 C 0.20908 0.51415 0.82046 0.0
C467 C 0.20839 0.48042 0.82345 0.0
C468 C 0.21414 0.49825 0.73892 0.0
C469 C 0.21299 0.50636 0.78051 0.0
C470 C 0.21122 0.51087 0.71743 0.0
C471 C 0.20685 0.54428 0.71429 0.0
C472 C 0.21265 0.51917 0.75741 0.0
C473 C 0.2065 0.56445 0.73318 0.0
C474 C 0.21136 0.52719 0.79905 0.0
C475 C 0.21118 0.46051 0.80455 0.0
N476 N 0.20916 0.55157 0.7539 0.0
N477 N 0.21316 0.47375 0.78393 0.0
H478 H 0.58304 0.17872 0.31266 0.0
H479 H 0.43384 0.22349 0.23372 0.0
H480 H 0.49259 0.21705 0.33748 0.0
H481 H 0.52865 0.19684 0.20931 0.0
H482 H 0.45537 0.22386 0.27162 0.0
H483 H 0.56403 0.18738 0.27474 0.0
C484 C 0.55917 0.18908 0.31015 0.0
C485 C 0.53927 0.19695 0.32832 0.0
C486 C 0.47155 0.21823 0.25797 0.0
C487 C 0.51725 0.20687 0.28472 0.0
C488 C 0.45929 0.21801 0.23629 0.0
C489 C 0.47942 0.20987 0.21828 0.0
C490 C 0.50416 0.21 0.26175 0.0
C491 C 0.51221 0.20317 0.22266 0.0
C492 C 0.54836 0.19412 0.28843 0.0
C493 C 0.5087 0.21056 0.32398 0.0
N494 N 0.52346 0.20308 0.24396 0.0
N495 N 0.4985 0.21484 0.30261 0.0
H496 H 0.1773 0.51369 0.95746 0.0
H497 H 0.24765 0.4776 0.07905 0.0
H498 H 0.26541 0.45987 0.96951 0.0
H499 H 0.15411 0.52093 0.06629 0.0
H500 H 0.25939 0.47967 0.03918 0.0
H501 H 0.17351 0.52517 0.99721 0.0
C502 C 0.19612 0.50461 0.96841 0.0
C503 C 0.22152 0.48541 0.96011 0.0
C504 C 0.23646 0.48909 0.04514 0.0
C505 C 0.21715 0.49834 1.00582 0.0
C506 C 0.22978 0.48805 0.06794 0.0
C507 C 0.19966 0.49876 0.07604 0.0
C508 C 0.2129 0.50097 0.03033 0.0
C509 C 0.17751 0.51208 0.06081 0.0
C510 C 0.19388 0.51114 0.99116 0.0
C511 C 0.24527 0.47455 0.97515 0.0
N512 N 0.18445 0.51253 0.03871 0.0
N513 N 0.24232 0.48087 0.9973 0.0
H514 H 0.54712 0.24476 0.46361 0.0
H515 H 0.49961 0.1858 0.58594 0.0
H516 H 0.48666 0.16168 0.47747 0.0
H517 H 0.5702 0.26069 0.57254 0.0
H518 H 0.48601 0.18417 0.54638 0.0
H519 H 0.5471 0.25819 0.5033 0.0
C520 C 0.53336 0.22966 0.47491 0.0
C521 C 0.51725 0.20177 0.46722 0.0
C522 C 0.50419 0.20126 0.55212 0.0
C523 C 0.51732 0.2169 0.5127 0.0
C524 C 0.51191 0.20228 0.57476 0.0
C525 C 0.53646 0.22308 0.58257 0.0
C526 C 0.52114 0.22114 0.53714 0.0
C527 C 0.55138 0.24401 0.56725 0.0
C528 C 0.53348 0.23728 0.49761 0.0
C529 C 0.49977 0.18319 0.48267 0.0
N530 N 0.54376 0.24223 0.54525 0.0
N531 N 0.50056 0.19088 0.50466 0.0
H532 H 0.8275 0.49863 0.07515 0.0
H533 H 0.76221 0.55222 0.95527 0.0
H534 H 0.74514 0.56169 0.06546 0.0
H535 H 0.84709 0.49286 0.96578 0.0
H536 H 0.75082 0.54973 0.99519 0.0
H537 H 0.83014 0.49002 0.03499 0.0
C538 C 0.80969 0.51037 0.06462 0.0
C539 C 0.78626 0.53121 0.07374 0.0
C540 C 0.77173 0.53695 0.98872 0.0
C541 C 0.78936 0.52165 0.02756 0.0
C542 C 0.7782 0.53826 0.96589 0.0
C543 C 0.80585 0.52299 0.95714 0.0
C544 C 0.79307 0.52026 1.00293 0.0
C545 C 0.82565 0.50526 0.97176 0.0
C546 C 0.81126 0.50549 0.04164 0.0
C547 C 0.76374 0.54558 0.0592 0.0
N548 N 0.81904 0.50463 0.99391 0.0
N549 N 0.76606 0.54081 0.03684 0.0
H550 H 0.52691 0.84419 0.56729 0.0
H551 H 0.45551 0.73746 0.46731 0.0
H552 H 0.46542 0.76061 0.57702 0.0
H553 H 0.51467 0.82291 0.45843 0.0
H554 H 0.46512 0.74075 0.50746 0.0
H555 H 0.52914 0.83182 0.52761 0.0
C556 C 0.51421 0.82295 0.56115 0.0
C557 C 0.49563 0.80364 0.57553 0.0
C558 C 0.4763 0.75855 0.49669 0.0
C559 C 0.4978 0.78949 0.52989 0.0
C560 C 0.47089 0.75665 0.47373 0.0
C561 C 0.48401 0.78014 0.45944 0.0
C562 C 0.49493 0.78416 0.50546 0.0
C563 C 0.50381 0.8044 0.46877 0.0
C564 C 0.51544 0.81594 0.53843 0.0
C565 C 0.4799 0.7763 0.56656 0.0
N566 N 0.50839 0.80594 0.49116 0.0
N567 N 0.48101 0.77028 0.54429 0.0
H568 H 0.19102 0.49613 0.45926 0.0
H569 H 0.24807 0.55142 0.58073 0.0
H570 H 0.26718 0.56593 0.4717 0.0
H571 H 0.16732 0.48703 0.56817 0.0
H572 H 0.26168 0.54945 0.54119 0.0
H573 H 0.1885 0.485 0.49914 0.0
C574 C 0.20759 0.50876 0.47031 0.0
C575 C 0.22903 0.53236 0.4621 0.0
C576 C 0.24122 0.53543 0.54712 0.0
C577 C 0.22604 0.51991 0.50788 0.0
C578 C 0.23348 0.53645 0.56974 0.0
C579 C 0.20622 0.5197 0.57778 0.0
C580 C 0.22155 0.51758 0.53238 0.0
C581 C 0.18834 0.50062 0.56272 0.0
C582 C 0.20605 0.50245 0.49312 0.0
C583 C 0.25001 0.54779 0.47726 0.0
N584 N 0.19609 0.50037 0.54073 0.0
N585 N 0.24772 0.54158 0.49942 0.0
H586 H 0.4572 0.26515 0.97603 0.0
H587 H 0.52653 0.14907 0.0702 0.0
H588 H 0.51461 0.17993 0.9624 0.0
H589 H 0.47944 0.24028 0.08417 0.0
H590 H 0.52808 0.16328 0.03081 0.0
H591 H 0.47056 0.26001 1.01551 0.0
C592 C 0.47301 0.24563 0.98127 0.0
C593 C 0.48442 0.22268 0.96587 0.0
C594 C 0.51781 0.18042 0.0425 0.0
C595 C 0.49954 0.21644 1.01115 0.0
C596 C 0.51694 0.17232 0.06504 0.0
C597 C 0.50247 0.19332 0.08051 0.0
C598 C 0.50376 0.20959 0.03528 0.0
C599 C 0.49066 0.22322 0.07284 0.0
C600 C 0.48062 0.24269 1.00385 0.0
C601 C 0.505 0.19804 0.97365 0.0
N602 N 0.49113 0.23025 0.05073 0.0
N603 N 0.51151 0.19531 0.99576 0.0
H604 H 0.8266 0.50379 0.45479 0.0
H605 H 0.76424 0.45669 0.57646 0.0
H606 H 0.74683 0.43818 0.46687 0.0
H607 H 0.8465 0.51889 0.56378 0.0
H608 H 0.75244 0.45578 0.53654 0.0
H609 H 0.82903 0.51573 0.49455 0.0
C610 C 0.8093 0.49218 0.46575 0.0
C611 C 0.7867 0.46965 0.45744 0.0
C612 C 0.77285 0.46993 0.54252 0.0
C613 C 0.78958 0.48304 0.50318 0.0
C614 C 0.77955 0.47055 0.56535 0.0
C615 C 0.80663 0.48763 0.57351 0.0
C616 C 0.79337 0.48647 0.52771 0.0
C617 C 0.82555 0.50515 0.55827 0.0
C618 C 0.81076 0.49898 0.48851 0.0
C619 C 0.7648 0.45555 0.4725 0.0
N620 N 0.81874 0.50387 0.53613 0.0
N621 N 0.76702 0.4622 0.49465 0.0
H622 H 0.48122 0.84478 0.06714 0.0
H623 H 0.55117 0.73813 0.96737 0.0
H624 H 0.54035 0.75958 0.07662 0.0
H625 H 0.49081 0.82254 0.95814 0.0
H626 H 0.54079 0.74079 1.00734 0.0
H627 H 0.47777 0.83228 0.02748 0.0
C628 C 0.49312 0.82317 0.06095 0.0
C629 C 0.51147 0.80345 0.07524 0.0
C630 C 0.52945 0.75849 0.99655 0.0
C631 C 0.50788 0.78915 0.02967 0.0
C632 C 0.53532 0.75695 0.97368 0.0
C633 C 0.52221 0.78041 0.95935 0.0
C634 C 0.51047 0.78379 1.00524 0.0
C635 C 0.50169 0.80409 0.96853 0.0
C636 C 0.49117 0.81607 0.03825 0.0
C637 C 0.52614 0.77563 0.06624 0.0
N638 N 0.4968 0.80541 0.99089 0.0
N639 N 0.52438 0.76956 0.044 0.0
H640 H 0.31014 0.41516 0.12466 0.0
H641 H 0.35198 0.2301 0.15294 0.0
H642 H 0.23833 0.35011 0.15185 0.0
H643 H 0.42046 0.30218 0.13043 0.0
H644 H 0.30853 0.27107 0.15067 0.0
H645 H 0.3492 0.37144 0.12437 0.0
C646 C 0.30251 0.39157 0.13059 0.0
C647 C 0.27092 0.38642 0.13846 0.0
C648 C 0.3331 0.27772 0.14619 0.0
C649 C 0.31604 0.3357 0.13828 0.0
C650 C 0.35784 0.25439 0.14744 0.0
C651 C 0.38995 0.26277 0.14199 0.0
C652 C 0.34066 0.30941 0.1393 0.0
C653 C 0.39621 0.29456 0.13497 0.0
C654 C 0.32494 0.36647 0.13041 0.0
C655 C 0.26249 0.35513 0.14569 0.0
N656 N 0.3719 0.31656 0.13387 0.0
N657 N 0.28503 0.33089 0.14556 0.0
H658 H 0.7833 0.35768 0.67064 0.0
H659 H 0.66064 0.22485 0.62129 0.0
H660 H 0.76923 0.34183 0.60022 0.0
H661 H 0.65584 0.2632 0.68807 0.0
H662 H 0.70902 0.25822 0.61456 0.0
H663 H 0.74569 0.3133 0.6783 0.0
C664 C 0.77275 0.34455 0.65676 0.0
C665 C 0.77912 0.35384 0.63473 0.0
C666 C 0.69755 0.25898 0.63075 0.0
C667 C 0.73586 0.30303 0.64346 0.0
C668 C 0.67006 0.23986 0.63464 0.0
C669 C 0.65403 0.24151 0.65521 0.0
C670 C 0.70926 0.27954 0.64765 0.0
C671 C 0.66722 0.26146 0.67189 0.0
C672 C 0.75114 0.31929 0.66117 0.0
C673 C 0.76478 0.33575 0.61746 0.0
N674 N 0.69395 0.27977 0.66771 0.0
N675 N 0.74358 0.31139 0.62219 0.0
H676 H 0.77208 0.63978 0.16986 0.0
H677 H 0.66116 0.78052 0.11869 0.0
H678 H 0.77885 0.67 0.10128 0.0
H679 H 0.64145 0.73034 0.18012 0.0
H680 H 0.71113 0.74851 0.11452 0.0
H681 H 0.73149 0.68158 0.17629 0.0
C682 C 0.7653 0.65543 0.15617 0.0
C683 C 0.77862 0.65101 0.13489 0.0
C684 C 0.69598 0.74483 0.12901 0.0
C685 C 0.7318 0.69901 0.14219 0.0
C686 C 0.66759 0.76317 0.13145 0.0
C687 C 0.647 0.75783 0.14968 0.0
C688 C 0.70391 0.72139 0.14506 0.0
C689 C 0.65641 0.73499 0.16569 0.0
C690 C 0.74202 0.67929 0.15987 0.0
C691 C 0.76905 0.67235 0.1179 0.0
N692 N 0.68406 0.71758 0.16296 0.0
N693 N 0.74596 0.69526 0.12186 0.0
H694 H 0.23847 0.66826 0.59777 0.0
H695 H 0.34364 0.76535 0.68728 0.0
H696 H 0.22472 0.66041 0.66876 0.0
H697 H 0.35328 0.77859 0.61637 0.0
H698 H 0.29564 0.73188 0.68076 0.0
H699 H 0.27578 0.71349 0.60408 0.0
C700 C 0.24291 0.67632 0.61467 0.0
C701 C 0.22873 0.66019 0.63277 0.0
C702 C 0.30799 0.7424 0.66662 0.0
C703 C 0.27174 0.71183 0.64012 0.0
C704 C 0.33545 0.76155 0.67033 0.0
C705 C 0.3528 0.7745 0.65234 0.0
C706 C 0.29789 0.73584 0.64472 0.0
C707 C 0.34083 0.76894 0.63075 0.0
C708 C 0.26428 0.70216 0.61826 0.0
C709 C 0.23527 0.67189 0.65429 0.0
N710 N 0.31437 0.74969 0.62753 0.0
N711 N 0.25659 0.6967 0.65737 0.0
H712 H 0.37086 0.76883 0.36538 0.0
H713 H 0.2323 0.65784 0.41947 0.0
H714 H 0.34623 0.77326 0.43513 0.0
H715 H 0.27773 0.63942 0.35606 0.0
H716 H 0.26566 0.70702 0.42348 0.0
H717 H 0.32811 0.72878 0.35976 0.0
C718 C 0.35623 0.76168 0.37951 0.0
C719 C 0.36251 0.77417 0.40085 0.0
C720 C 0.26801 0.69233 0.40861 0.0
C721 C 0.31342 0.72798 0.39447 0.0
C722 C 0.24891 0.66439 0.40627 0.0
C723 C 0.25246 0.6444 0.38748 0.0
C724 C 0.29043 0.70044 0.39191 0.0
C725 C 0.27443 0.65393 0.37092 0.0
C726 C 0.33183 0.73869 0.37627 0.0
C727 C 0.34243 0.76412 0.41843 0.0
N728 N 0.29259 0.68115 0.37356 0.0
N729 N 0.31896 0.74136 0.4149 0.0
H730 H 0.35256 0.23011 0.92069 0.0
H731 H 0.24917 0.3755 0.86821 0.0
H732 H 0.38268 0.28702 0.8642 0.0
H733 H 0.2338 0.34137 0.93525 0.0
H734 H 0.29195 0.33538 0.86358 0.0
H735 H 0.30321 0.26343 0.92346 0.0
C736 C 0.34863 0.24935 0.90875 0.0
C737 C 0.37184 0.25596 0.89227 0.0
C738 C 0.2791 0.33649 0.87927 0.0
C739 C 0.31558 0.29382 0.89525 0.0
C740 C 0.25453 0.35937 0.88193 0.0
C741 C 0.238 0.36212 0.90226 0.0
C742 C 0.28729 0.31597 0.89701 0.0
C743 C 0.24602 0.34029 0.91934 0.0
C744 C 0.32058 0.2684 0.9104 0.0
C745 C 0.36561 0.28123 0.87728 0.0
N746 N 0.27025 0.31823 0.91638 0.0
N747 N 0.33814 0.29919 0.87913 0.0
H748 H 0.63936 0.26588 0.35709 0.0
H749 H 0.78333 0.32828 0.4342 0.0
H750 H 0.66223 0.22031 0.41971 0.0
H751 H 0.77087 0.35605 0.36548 0.0
H752 H 0.74168 0.28632 0.42908 0.0
H753 H 0.68963 0.29681 0.35949 0.0
C754 C 0.6552 0.26216 0.37127 0.0
C755 C 0.64652 0.24069 0.3883 0.0
C756 C 0.74844 0.30133 0.41507 0.0
C757 C 0.70411 0.27652 0.39139 0.0
C758 C 0.77223 0.32529 0.41797 0.0
C759 C 0.78035 0.34605 0.40033 0.0
C760 C 0.73256 0.29832 0.39444 0.0
C761 C 0.76519 0.34094 0.37966 0.0
C762 C 0.68399 0.27981 0.37263 0.0
C763 C 0.66808 0.23663 0.40621 0.0
N764 N 0.74184 0.31791 0.37739 0.0
N765 N 0.6957 0.2548 0.40748 0.0
H766 H 0.77825 0.66305 0.86547 0.0
H767 H 0.63973 0.77035 0.92157 0.0
H768 H 0.75705 0.66279 0.9358 0.0
H769 H 0.6684 0.78119 0.85294 0.0
H770 H 0.68511 0.73345 0.92737 0.0
H771 H 0.74109 0.7088 0.86078 0.0
C772 C 0.76613 0.67285 0.87998 0.0
C773 C 0.77058 0.6588 0.90104 0.0
C774 C 0.68173 0.74409 0.91107 0.0
C775 C 0.72775 0.71099 0.89573 0.0
C776 C 0.65574 0.76518 0.90773 0.0
C777 C 0.65006 0.77873 0.88668 0.0
C778 C 0.70212 0.73608 0.89318 0.0
C779 C 0.6718 0.77126 0.86944 0.0
C780 C 0.74487 0.69896 0.87727 0.0
C781 C 0.75425 0.67262 0.91922 0.0
N782 N 0.69667 0.75015 0.873 0.0
N783 N 0.73336 0.69767 0.9161 0.0
loop_
_geom_bond_atom_site_label_1
_geom_bond_atom_site_label_2
_geom_bond_distance
_geom_bond_site_symmetry_2
_ccdc_geom_bond_type
Mg0 O7 2.141 . S
Mg0 O8 2.048 . S
Mg0 O9 2.048 . S
Mg0 O12 2.141 . S
C1 O2 1.313 . S
C1 O8 1.195 . S
O2 C1 1.313 . S
C3 O4 1.245 . S
C3 O12 1.289 . S
O4 C3 1.245 . S
C5 O6 1.245 . S
C5 O7 1.289 . S
O6 C5 1.245 . S
O7 Mg0 2.141 . S
O7 C5 1.289 . S
O8 Mg0 2.048 . S
O8 C1 1.195 . S
O9 Mg0 2.048 . S
O9 C10 1.195 . S
C10 O9 1.195 . S
C10 O11 1.313 . S
O11 C10 1.313 . S
O12 Mg0 2.141 . S
O12 C3 1.289 . S
Mg13 O20 2.141 . S
Mg13 O21 2.048 . S
Mg13 O22 2.048 . S
Mg13 O25 2.141 . S
C14 O15 1.313 . S
C14 O21 1.195 . S
O15 C14 1.313 . S
C16 O17 1.245 . S
C16 O25 1.289 . S
O17 C16 1.245 . S
C18 O19 1.245 . S
C18 O20 1.289 . S
O19 C18 1.245 . S
O20 Mg13 2.141 . S
O20 C18 1.289 . S
O21 Mg13 2.048 . S
O21 C14 1.195 . S
O22 Mg13 2.048 . S
O22 C23 1.195 . S
C23 O22 1.195 . S
C23 O24 1.313 . S
O24 C23 1.313 . S
O25 Mg13 2.141 . S
O25 C16 1.289 . S
Mg26 O33 2.141 . S
Mg26 O34 2.048 . S
Mg26 O35 2.048 . S
Mg26 O38 2.141 . S
C27 O28 1.313 . S
C27 O34 1.195 . S
O28 C27 1.313 . S
C29 O30 1.245 . S
C29 O38 1.289 . S
O30 C29 1.245 . S
C31 O32 1.245 . S
C31 O33 1.289 . S
O32 C31 1.245 . S
O33 Mg26 2.141 . S
O33 C31 1.289 . S
O34 Mg26 2.048 . S
O34 C27 1.195 . S
O35 Mg26 2.048 . S
O35 C36 1.195 . S
C36 O35 1.195 . S
C36 O37 1.313 . S
O37 C36 1.313 . S
O38 Mg26 2.141 . S
O38 C29 1.289 . S
Mg39 O46 2.141 . S
Mg39 O47 2.048 . S
Mg39 O48 2.048 . S
Mg39 O51 2.141 . S
C40 O41 1.313 . S
C40 O47 1.195 . S
O41 C40 1.313 . S
C42 O43 1.245 . S
C42 O51 1.289 . S
O43 C42 1.245 . S
C44 O45 1.245 . S
C44 O46 1.289 . S
O45 C44 1.245 . S
O46 Mg39 2.141 . S
O46 C44 1.289 . S
O47 Mg39 2.048 . S
O47 C40 1.195 . S
O48 Mg39 2.048 . S
O48 C49 1.195 . S
C49 O48 1.195 . S
C49 O50 1.313 . S
O50 C49 1.313 . S
O51 Mg39 2.141 . S
O51 C42 1.289 . S
Mg52 O59 2.141 . S
Mg52 O60 2.048 . S
Mg52 O61 2.048 . S
Mg52 O64 2.141 . S
C53 O54 1.313 . S
C53 O60 1.195 . S
O54 C53 1.313 . S
C55 O56 1.245 . S
C55 O64 1.289 . S
O56 C55 1.245 . S
C57 O58 1.245 . S
C57 O59 1.289 . S
O58 C57 1.245 . S
O59 Mg52 2.141 . S
O59 C57 1.289 . S
O60 Mg52 2.048 . S
O60 C53 1.195 . S
O61 Mg52 2.048 . S
O61 C62 1.195 . S
C62 O61 1.195 . S
C62 O63 1.313 . S
O63 C62 1.313 . S
O64 Mg52 2.141 . S
O64 C55 1.289 . S
Mg65 O72 2.141 . S
Mg65 O73 2.048 . S
Mg65 O74 2.048 . S
Mg65 O77 2.141 . S
C66 O67 1.313 . S
C66 O73 1.195 . S
O67 C66 1.313 . S
C68 O69 1.245 . S
C68 O77 1.289 . S
O69 C68 1.245 . S
C70 O71 1.245 . S
C70 O72 1.289 . S
O71 C70 1.245 . S
O72 Mg65 2.141 . S
O72 C70 1.289 . S
O73 Mg65 2.048 . S
O73 C66 1.195 . S
O74 Mg65 2.048 . S
O74 C75 1.195 . S
C75 O74 1.195 . S
C75 O76 1.313 . S
O76 C75 1.313 . S
O77 Mg65 2.141 . S
O77 C68 1.289 . S
Mg78 O85 2.141 . S
Mg78 O86 2.048 . S
Mg78 O87 2.048 . S
Mg78 O90 2.141 . S
C79 O80 1.313 . S
C79 O86 1.195 . S
O80 C79 1.313 . S
C81 O82 1.245 . S
C81 O90 1.289 . S
O82 C81 1.245 . S
C83 O84 1.245 . S
C83 O85 1.289 . S
O84 C83 1.245 . S
O85 Mg78 2.141 . S
O85 C83 1.289 . S
O86 Mg78 2.048 . S
O86 C79 1.195 . S
O87 Mg78 2.048 . S
O87 C88 1.195 . S
C88 O87 1.195 . S
C88 O89 1.313 . S
O89 C88 1.313 . S
O90 Mg78 2.141 . S
O90 C81 1.289 . S
Mg91 O98 2.141 . S
Mg91 O99 2.048 . S
Mg91 O100 2.048 . S
Mg91 O103 2.141 . S
C92 O93 1.313 . S
C92 O99 1.195 . S
O93 C92 1.313 . S
C94 O95 1.245 . S
C94 O103 1.289 . S
O95 C94 1.245 . S
C96 O97 1.245 . S
C96 O98 1.289 . S
O97 C96 1.245 . S
O98 Mg91 2.141 . S
O98 C96 1.289 . S
O99 Mg91 2.048 . S
O99 C92 1.195 . S
O100 Mg91 2.048 . S
O100 C101 1.195 . S
C101 O100 1.195 . S
C101 O102 1.313 . S
O102 C101 1.313 . S
O103 Mg91 2.141 . S
O103 C94 1.289 . S
Mg104 O111 2.141 . S
Mg104 O112 2.048 . S
Mg104 O113 2.048 . S
Mg104 O116 2.141 . S
C105 O106 1.313 . S
C105 O112 1.195 . S
O106 C105 1.313 . S
C107 O108 1.245 . S
C107 O116 1.289 . S
O108 C107 1.245 . S
C109 O110 1.245 . S
C109 O111 1.289 . S
O110 C109 1.245 . S
O111 Mg104 2.141 . S
O111 C109 1.289 . S
O112 Mg104 2.048 . S
O112 C105 1.195 . S
O113 Mg104 2.048 . S
O113 C114 1.195 . S
C114 O113 1.195 . S
C114 O115 1.313 . S
O115 C114 1.313 . S
O116 Mg104 2.141 . S
O116 C107 1.289 . S
Mg117 O124 2.141 . S
Mg117 O125 2.048 . S
Mg117 O126 2.048 . S
Mg117 O129 2.141 . S
C118 O119 1.313 . S
C118 O125 1.195 . S
O119 C118 1.313 . S
C120 O121 1.245 . S
C120 O129 1.289 . S
O121 C120 1.245 . S
C122 O123 1.245 . S
C122 O124 1.289 . S
O123 C122 1.245 . S
O124 Mg117 2.141 . S
O124 C122 1.289 . S
O125 Mg117 2.048 . S
O125 C118 1.195 . S
O126 Mg117 2.048 . S
O126 C127 1.195 . S
C127 O126 1.195 . S
C127 O128 1.313 . S
O128 C127 1.313 . S
O129 Mg117 2.141 . S
O129 C120 1.289 . S
Mg130 O137 2.141 . S
Mg130 O138 2.048 . S
Mg130 O139 2.048 . S
Mg130 O142 2.141 . S
C131 O132 1.313 . S
C131 O138 1.195 . S
O132 C131 1.313 . S
C133 O134 1.245 . S
C133 O142 1.289 . S
O134 C133 1.245 . S
C135 O136 1.245 . S
C135 O137 1.289 . S
O136 C135 1.245 . S
O137 Mg130 2.141 . S
O137 C135 1.289 . S
O138 Mg130 2.048 . S
O138 C131 1.195 . S
O139 Mg130 2.048 . S
O139 C140 1.195 . S
C140 O139 1.195 . S
C140 O141 1.313 . S
O141 C140 1.313 . S
O142 Mg130 2.141 . S
O142 C133 1.289 . S
Mg143 O150 2.141 . S
Mg143 O151 2.048 . S
Mg143 O152 2.048 . S
Mg143 O155 2.141 . S
C144 O145 1.313 . S
C144 O151 1.195 . S
O145 C144 1.313 . S
C146 O147 1.245 . S
C146 O155 1.289 . S
O147 C146 1.245 . S
C148 O149 1.245 . S
C148 O150 1.289 . S
O149 C148 1.245 . S
O150 Mg143 2.141 . S
O150 C148 1.289 . S
O151 Mg143 2.048 . S
O151 C144 1.195 . S
O152 Mg143 2.048 . S
O152 C153 1.195 . S
C153 O152 1.195 . S
C153 O154 1.313 . S
O154 C153 1.313 . S
O155 Mg143 2.141 . S
O155 C146 1.289 . S
Mg156 O163 2.141 . S
Mg156 O164 2.048 . S
Mg156 O165 2.048 . S
Mg156 O168 2.141 . S
C157 O158 1.313 . S
C157 O164 1.195 . S
O158 C157 1.313 . S
C159 O160 1.245 . S
C159 O168 1.289 . S
O160 C159 1.245 . S
C161 O162 1.245 . S
C161 O163 1.289 . S
O162 C161 1.245 . S
O163 Mg156 2.141 . S
O163 C161 1.289 . S
O164 Mg156 2.048 . S
O164 C157 1.195 . S
O165 Mg156 2.048 . S
O165 C166 1.195 . S
C166 O165 1.195 . S
C166 O167 1.313 . S
O167 C166 1.313 . S
O168 Mg156 2.141 . S
O168 C159 1.289 . S
Mg169 O176 2.141 . S
Mg169 O177 2.048 . S
Mg169 O178 2.048 . S
Mg169 O181 2.141 . S
C170 O171 1.313 . S
C170 O177 1.195 . S
O171 C170 1.313 . S
C172 O173 1.245 . S
C172 O181 1.289 . S
O173 C172 1.245 . S
C174 O175 1.245 . S
C174 O176 1.289 . S
O175 C174 1.245 . S
O176 Mg169 2.141 . S
O176 C174 1.289 . S
O177 Mg169 2.048 . S
O177 C170 1.195 . S
O178 Mg169 2.048 . S
O178 C179 1.195 . S
C179 O178 1.195 . S
C179 O180 1.313 . S
O180 C179 1.313 . S
O181 Mg169 2.141 . S
O181 C172 1.289 . S
Mg182 O189 2.141 . S
Mg182 O190 2.048 . S
Mg182 O191 2.048 . S
Mg182 O194 2.141 . S
C183 O184 1.313 . S
C183 O190 1.195 . S
O184 C183 1.313 . S
C185 O186 1.245 . S
C185 O194 1.289 . S
O186 C185 1.245 . S
C187 O188 1.245 . S
C187 O189 1.289 . S
O188 C187 1.245 . S
O189 Mg182 2.141 . S
O189 C187 1.289 . S
O190 Mg182 2.048 . S
O190 C183 1.195 . S
O191 Mg182 2.048 . S
O191 C192 1.195 . S
C192 O191 1.195 . S
C192 O193 1.313 . S
O193 C192 1.313 . S
O194 Mg182 2.141 . S
O194 C185 1.289 . S
Mg195 O202 2.141 . S
Mg195 O203 2.048 . S
Mg195 O204 2.048 . S
Mg195 O207 2.141 . S
C196 O197 1.313 . S
C196 O203 1.195 . S
O197 C196 1.313 . S
C198 O199 1.245 . S
C198 O207 1.289 . S
O199 C198 1.245 . S
C200 O201 1.245 . S
C200 O202 1.289 . S
O201 C200 1.245 . S
O202 Mg195 2.141 . S
O202 C200 1.289 . S
O203 Mg195 2.048 . S
O203 C196 1.195 . S
O204 Mg195 2.048 . S
O204 C205 1.195 . S
C205 O204 1.195 . S
C205 O206 1.313 . S
O206 C205 1.313 . S
O207 Mg195 2.141 . S
O207 C198 1.289 . S
H208 C214 0.930 . S
H209 C218 0.930 . S
H210 C223 0.929 . S
H211 C221 0.929 . S
H212 C216 0.929 . S
H213 C222 0.929 . S
C214 H208 0.930 . S
C214 C215 1.367 . S
C214 C222 1.378 . S
C215 C214 1.367 . S
C215 C223 1.433 . S
C216 H212 0.929 . S
C216 C218 1.378 . S
C216 C220 1.350 . S
C217 C220 1.463 1_455 S
C217 C222 1.350 . S
C217 N225 1.427 . S
C218 H209 0.930 . S
C218 C216 1.378 . S
C218 C219 1.367 . S
C219 C218 1.367 . S
C219 C221 1.433 . S
C220 C216 1.350 . S
C220 C217 1.463 1_655 S
C220 N224 1.427 . S
C221 H211 0.929 . S
C221 C219 1.433 . S
C221 N224 1.384 . S
C222 H213 0.929 . S
C222 C214 1.378 . S
C222 C217 1.350 . S
C223 H210 0.929 . S
C223 C215 1.433 . S
C223 N225 1.384 . S
N224 C220 1.427 . S
N224 C221 1.384 . S
N225 C217 1.427 . S
N225 C223 1.384 . S
H226 C232 0.930 . S
H227 C236 0.930 . S
H228 C241 0.929 . S
H229 C239 0.929 . S
H230 C234 0.929 . S
H231 C240 0.929 . S
C232 H226 0.930 . S
C232 C233 1.367 . S
C232 C240 1.378 . S
C233 C232 1.367 . S
C233 C241 1.433 . S
C234 H230 0.929 . S
C234 C236 1.378 . S
C234 C238 1.350 . S
C235 C238 1.463 1_565 S
C235 C240 1.350 . S
C235 N243 1.427 . S
C236 H227 0.930 . S
C236 C234 1.378 . S
C236 C237 1.367 . S
C237 C236 1.367 . S
C237 C239 1.433 . S
C238 C234 1.350 . S
C238 C235 1.463 1_545 S
C238 N242 1.427 . S
C239 H229 0.929 . S
C239 C237 1.433 . S
C239 N242 1.384 . S
C240 H231 0.929 . S
C240 C232 1.378 . S
C240 C235 1.350 . S
C241 H228 0.929 . S
C241 C233 1.433 . S
C241 N243 1.384 . S
N242 C238 1.427 . S
N242 C239 1.384 . S
N243 C235 1.427 . S
N243 C241 1.384 . S
H244 C250 0.930 . S
H245 C254 0.930 . S
H246 C259 0.929 . S
H247 C257 0.929 . S
H248 C252 0.929 . S
H249 C258 0.929 . S
C250 H244 0.930 . S
C250 C251 1.367 . S
C250 C258 1.378 . S
C251 C250 1.367 . S
C251 C259 1.433 . S
C252 H248 0.929 . S
C252 C254 1.378 . S
C252 C256 1.350 . S
C253 C256 1.463 1_455 S
C253 C258 1.350 . S
C253 N261 1.427 . S
C254 H245 0.930 . S
C254 C252 1.378 . S
C254 C255 1.367 . S
C255 C254 1.367 . S
C255 C257 1.433 . S
C256 C252 1.350 . S
C256 C253 1.463 1_655 S
C256 N260 1.427 . S
C257 H247 0.929 . S
C257 C255 1.433 . S
C257 N260 1.384 . S
C258 H249 0.929 . S
C258 C250 1.378 . S
C258 C253 1.350 . S
C259 H246 0.929 . S
C259 C251 1.433 . S
C259 N261 1.384 . S
N260 C256 1.427 . S
N260 C257 1.384 . S
N261 C253 1.427 . S
N261 C259 1.384 . S
H262 C268 0.930 . S
H263 C272 0.930 . S
H264 C277 0.929 . S
H265 C275 0.929 . S
H266 C270 0.929 . S
H267 C276 0.929 . S
C268 H262 0.930 . S
C268 C269 1.367 . S
C268 C276 1.378 . S
C269 C268 1.367 . S
C269 C277 1.433 . S
C270 H266 0.929 . S
C270 C272 1.378 . S
C270 C274 1.350 . S
C271 C274 1.463 1_565 S
C271 C276 1.350 . S
C271 N279 1.427 . S
C272 H263 0.930 . S
C272 C270 1.378 . S
C272 C273 1.367 . S
C273 C272 1.367 . S
C273 C275 1.433 . S
C274 C270 1.350 . S
C274 C271 1.463 1_545 S
C274 N278 1.427 . S
C275 H265 0.929 . S
C275 C273 1.433 . S
C275 N278 1.384 . S
C276 H267 0.929 . S
C276 C268 1.378 . S
C276 C271 1.350 . S
C277 H264 0.929 . S
C277 C269 1.433 . S
C277 N279 1.384 . S
N278 C274 1.427 . S
N278 C275 1.384 . S
N279 C271 1.427 . S
N279 C277 1.384 . S
H280 C286 0.930 . S
H281 C290 0.930 . S
H282 C295 0.929 . S
H283 C293 0.929 . S
H284 C288 0.929 . S
H285 C294 0.929 . S
C286 H280 0.930 . S
C286 C287 1.367 . S
C286 C294 1.378 . S
C287 C286 1.367 . S
C287 C295 1.433 . S
C288 H284 0.929 . S
C288 C290 1.378 . S
C288 C292 1.350 . S
C289 C292 1.463 1_655 S
C289 C294 1.350 . S
C289 N297 1.427 . S
C290 H281 0.930 . S
C290 C288 1.378 . S
C290 C291 1.367 . S
C291 C290 1.367 . S
C291 C293 1.433 . S
C292 C288 1.350 . S
C292 C289 1.463 1_455 S
C292 N296 1.427 . S
C293 H283 0.929 . S
C293 C291 1.433 . S
C293 N296 1.384 . S
C294 H285 0.929 . S
C294 C286 1.378 . S
C294 C289 1.350 . S
C295 H282 0.929 . S
C295 C287 1.433 . S
C295 N297 1.384 . S
N296 C292 1.427 . S
N296 C293 1.384 . S
N297 C289 1.427 . S
N297 C295 1.384 . S
H298 C304 0.930 . S
H299 C308 0.930 . S
H300 C313 0.929 . S
H301 C311 0.929 . S
H302 C306 0.929 . S
H303 C312 0.929 . S
C304 H298 0.930 . S
C304 C305 1.367 . S
C304 C312 1.378 . S
C305 C304 1.367 . S
C305 C313 1.433 . S
C306 H302 0.929 . S
C306 C308 1.378 . S
C306 C310 1.350 . S
C307 C310 1.463 1_545 S
C307 C312 1.350 . S
C307 N315 1.427 . S
C308 H299 0.930 . S
C308 C306 1.378 . S
C308 C309 1.367 . S
C309 C308 1.367 . S
C309 C311 1.433 . S
C310 C306 1.350 . S
C310 C307 1.463 1_565 S
C310 N314 1.427 . S
C311 H301 0.929 . S
C311 C309 1.433 . S
C311 N314 1.384 . S
C312 H303 0.929 . S
C312 C304 1.378 . S
C312 C307 1.350 . S
C313 H300 0.929 . S
C313 C305 1.433 . S
C313 N315 1.384 . S
N314 C310 1.427 . S
N314 C311 1.384 . S
N315 C307 1.427 . S
N315 C313 1.384 . S
H316 C322 0.930 . S
H317 C326 0.930 . S
H318 C331 0.929 . S
H319 C329 0.929 . S
H320 C324 0.929 . S
H321 C330 0.929 . S
C322 H316 0.930 . S
C322 C323 1.367 . S
C322 C330 1.378 . S
C323 C322 1.367 . S
C323 C331 1.433 . S
C324 H320 0.929 . S
C324 C326 1.378 . S
C324 C328 1.350 . S
C325 C328 1.463 1_655 S
C325 C330 1.350 . S
C325 N333 1.427 . S
C326 H317 0.930 . S
C326 C324 1.378 . S
C326 C327 1.367 . S
C327 C326 1.367 . S
C327 C329 1.433 . S
C328 C324 1.350 . S
C328 C325 1.463 1_455 S
C328 N332 1.427 . S
C329 H319 0.929 . S
C329 C327 1.433 . S
C329 N332 1.384 . S
C330 H321 0.929 . S
C330 C322 1.378 . S
C330 C325 1.350 . S
C331 H318 0.929 . S
C331 C323 1.433 . S
C331 N333 1.384 . S
N332 C328 1.427 . S
N332 C329 1.384 . S
N333 C325 1.427 . S
N333 C331 1.384 . S
H334 C340 0.930 . S
H335 C344 0.930 . S
H336 C349 0.929 . S
H337 C347 0.929 . S
H338 C342 0.929 . S
H339 C348 0.929 . S
C340 H334 0.930 . S
C340 C341 1.367 . S
C340 C348 1.378 . S
C341 C340 1.367 . S
C341 C349 1.433 . S
C342 H338 0.929 . S
C342 C344 1.378 . S
C342 C346 1.350 . S
C343 C346 1.463 1_545 S
C343 C348 1.350 . S
C343 N351 1.427 . S
C344 H335 0.930 . S
C344 C342 1.378 . S
C344 C345 1.367 . S
C345 C344 1.367 . S
C345 C347 1.433 . S
C346 C342 1.350 . S
C346 C343 1.463 1_565 S
C346 N350 1.427 . S
C347 H337 0.929 . S
C347 C345 1.433 . S
C347 N350 1.384 . S
C348 H339 0.929 . S
C348 C340 1.378 . S
C348 C343 1.350 . S
C349 H336 0.929 . S
C349 C341 1.433 . S
C349 N351 1.384 . S
N350 C346 1.427 . S
N350 C347 1.384 . S
N351 C343 1.427 . S
N351 C349 1.384 . S
H352 C358 0.930 . S
H353 C362 0.930 . S
H354 C367 0.929 . S
H355 C365 0.929 . S
H356 C360 0.929 . S
H357 C366 0.929 . S
C358 H352 0.930 . S
C358 C359 1.367 . S
C358 C366 1.378 . S
C359 C358 1.367 . S
C359 C367 1.433 . S
C360 H356 0.929 . S
C360 C362 1.378 . S
C360 C364 1.350 . S
C361 C364 1.463 . S
C361 C366 1.350 . S
C361 N369 1.427 . S
C362 H353 0.930 . S
C362 C360 1.378 . S
C362 C363 1.367 . S
C363 C362 1.367 . S
C363 C365 1.433 . S
C364 C360 1.350 . S
C364 C361 1.463 . S
C364 N368 1.427 . S
C365 H355 0.929 . S
C365 C363 1.433 . S
C365 N368 1.384 . S
C366 H357 0.929 . S
C366 C358 1.378 . S
C366 C361 1.350 . S
C367 H354 0.929 . S
C367 C359 1.433 . S
C367 N369 1.384 . S
N368 C364 1.427 . S
N368 C365 1.384 . S
N369 C361 1.427 . S
N369 C367 1.384 . S
H370 C376 0.930 . S
H371 C380 0.930 . S
H372 C385 0.929 . S
H373 C383 0.929 . S
H374 C378 0.929 . S
H375 C384 0.929 . S
C376 H370 0.930 . S
C376 C377 1.367 . S
C376 C384 1.378 . S
C377 C376 1.367 . S
C377 C385 1.433 . S
C378 H374 0.929 . S
C378 C380 1.378 . S
C378 C382 1.350 . S
C379 C382 1.463 . S
C379 C384 1.350 . S
C379 N387 1.427 . S
C380 H371 0.930 . S
C380 C378 1.378 . S
C380 C381 1.367 . S
C381 C380 1.367 . S
C381 C383 1.433 . S
C382 C378 1.350 . S
C382 C379 1.463 . S
C382 N386 1.427 . S
C383 H373 0.929 . S
C383 C381 1.433 . S
C383 N386 1.384 . S
C384 H375 0.929 . S
C384 C376 1.378 . S
C384 C379 1.350 . S
C385 H372 0.929 . S
C385 C377 1.433 . S
C385 N387 1.384 . S
N386 C382 1.427 . S
N386 C383 1.384 . S
N387 C379 1.427 . S
N387 C385 1.384 . S
H388 C394 0.930 . S
H389 C398 0.930 . S
H390 C403 0.929 . S
H391 C401 0.929 . S
H392 C396 0.929 . S
H393 C402 0.929 . S
C394 H388 0.930 . S
C394 C395 1.367 . S
C394 C402 1.378 . S
C395 C394 1.367 . S
C395 C403 1.433 . S
C396 H392 0.929 . S
C396 C398 1.378 . S
C396 C400 1.350 . S
C397 C400 1.463 . S
C397 C402 1.350 . S
C397 N405 1.427 . S
C398 H389 0.930 . S
C398 C396 1.378 . S
C398 C399 1.367 . S
C399 C398 1.367 . S
C399 C401 1.433 . S
C400 C396 1.350 . S
C400 C397 1.463 . S
C400 N404 1.427 . S
C401 H391 0.929 . S
C401 C399 1.433 . S
C401 N404 1.384 . S
C402 H393 0.929 . S
C402 C394 1.378 . S
C402 C397 1.350 . S
C403 H390 0.929 . S
C403 C395 1.433 . S
C403 N405 1.384 . S
N404 C400 1.427 . S
N404 C401 1.384 . S
N405 C397 1.427 . S
N405 C403 1.384 . S
H406 C412 0.930 . S
H407 C416 0.930 . S
H408 C421 0.929 . S
H409 C419 0.929 . S
H410 C414 0.929 . S
H411 C420 0.929 . S
C412 H406 0.930 . S
C412 C413 1.367 . S
C412 C420 1.378 . S
C413 C412 1.367 . S
C413 C421 1.433 . S
C414 H410 0.929 . S
C414 C416 1.378 . S
C414 C418 1.350 . S
C415 C418 1.463 . S
C415 C420 1.350 . S
C415 N423 1.427 . S
C416 H407 0.930 . S
C416 C414 1.378 . S
C416 C417 1.367 . S
C417 C416 1.367 . S
C417 C419 1.433 . S
C418 C414 1.350 . S
C418 C415 1.463 . S
C418 N422 1.427 . S
C419 H409 0.929 . S
C419 C417 1.433 . S
C419 N422 1.384 . S
C420 H411 0.929 . S
C420 C412 1.378 . S
C420 C415 1.350 . S
C421 H408 0.929 . S
C421 C413 1.433 . S
C421 N423 1.384 . S
N422 C418 1.427 . S
N422 C419 1.384 . S
N423 C415 1.427 . S
N423 C421 1.384 . S
H424 C430 0.930 . S
H425 C434 0.930 . S
H426 C439 0.929 . S
H427 C437 0.929 . S
H428 C432 0.929 . S
H429 C438 0.929 . S
C430 H424 0.930 . S
C430 C431 1.367 . S
C430 C438 1.378 . S
C431 C430 1.367 . S
C431 C439 1.433 . S
C432 H428 0.929 . S
C432 C434 1.378 . S
C432 C436 1.350 . S
C433 C436 1.463 . S
C433 C438 1.350 . S
C433 N441 1.427 . S
C434 H425 0.930 . S
C434 C432 1.378 . S
C434 C435 1.367 . S
C435 C434 1.367 . S
C435 C437 1.433 . S
C436 C432 1.350 . S
C436 C433 1.463 . S
C436 N440 1.427 . S
C437 H427 0.929 . S
C437 C435 1.433 . S
C437 N440 1.384 . S
C438 H429 0.929 . S
C438 C430 1.378 . S
C438 C433 1.350 . S
C439 H426 0.929 . S
C439 C431 1.433 . S
C439 N441 1.384 . S
N440 C436 1.427 . S
N440 C437 1.384 . S
N441 C433 1.427 . S
N441 C439 1.384 . S
H442 C448 0.930 . S
H443 C452 0.930 . S
H444 C457 0.929 . S
H445 C455 0.929 . S
H446 C450 0.929 . S
H447 C456 0.929 . S
C448 H442 0.930 . S
C448 C449 1.367 . S
C448 C456 1.378 . S
C449 C448 1.367 . S
C449 C457 1.433 . S
C450 H446 0.929 . S
C450 C452 1.378 . S
C450 C454 1.350 . S
C451 C454 1.463 . S
C451 C456 1.350 . S
C451 N459 1.427 . S
C452 H443 0.930 . S
C452 C450 1.378 . S
C452 C453 1.367 . S
C453 C452 1.367 . S
C453 C455 1.433 . S
C454 C450 1.350 . S
C454 C451 1.463 . S
C454 N458 1.427 . S
C455 H445 0.929 . S
C455 C453 1.433 . S
C455 N458 1.384 . S
C456 H447 0.929 . S
C456 C448 1.378 . S
C456 C451 1.350 . S
C457 H444 0.929 . S
C457 C449 1.433 . S
C457 N459 1.384 . S
N458 C454 1.427 . S
N458 C455 1.384 . S
N459 C451 1.427 . S
N459 C457 1.384 . S
H460 C466 0.930 . S
H461 C470 0.930 . S
H462 C475 0.929 . S
H463 C473 0.929 . S
H464 C468 0.929 . S
H465 C474 0.929 . S
C466 H460 0.930 . S
C466 C467 1.367 . S
C466 C474 1.378 . S
C467 C466 1.367 . S
C467 C475 1.433 . S
C468 H464 0.929 . S
C468 C470 1.378 . S
C468 C472 1.350 . S
C469 C472 1.463 . S
C469 C474 1.350 . S
C469 N477 1.427 . S
C470 H461 0.930 . S
C470 C468 1.378 . S
C470 C471 1.367 . S
C471 C470 1.367 . S
C471 C473 1.433 . S
C472 C468 1.350 . S
C472 C469 1.463 . S
C472 N476 1.427 . S
C473 H463 0.929 . S
C473 C471 1.433 . S
C473 N476 1.384 . S
C474 H465 0.929 . S
C474 C466 1.378 . S
C474 C469 1.350 . S
C475 H462 0.929 . S
C475 C467 1.433 . S
C475 N477 1.384 . S
N476 C472 1.427 . S
N476 C473 1.384 . S
N477 C469 1.427 . S
N477 C475 1.384 . S
H478 C484 0.930 . S
H479 C488 0.930 . S
H480 C493 0.929 . S
H481 C491 0.929 . S
H482 C486 0.929 . S
H483 C492 0.929 . S
C484 H478 0.930 . S
C484 C485 1.367 . S
C484 C492 1.378 . S
C485 C484 1.367 . S
C485 C493 1.433 . S
C486 H482 0.929 . S
C486 C488 1.378 . S
C486 C490 1.350 . S
C487 C490 1.463 . S
C487 C492 1.350 . S
C487 N495 1.427 . S
C488 H479 0.930 . S
C488 C486 1.378 . S
C488 C489 1.367 . S
C489 C488 1.367 . S
C489 C491 1.433 . S
C490 C486 1.350 . S
C490 C487 1.463 . S
C490 N494 1.427 . S
C491 H481 0.929 . S
C491 C489 1.433 . S
C491 N494 1.384 . S
C492 H483 0.929 . S
C492 C484 1.378 . S
C492 C487 1.350 . S
C493 H480 0.929 . S
C493 C485 1.433 . S
C493 N495 1.384 . S
N494 C490 1.427 . S
N494 C491 1.384 . S
N495 C487 1.427 . S
N495 C493 1.384 . S
H496 C502 0.930 . S
H497 C506 0.930 . S
H498 C511 0.929 . S
H499 C509 0.929 . S
H500 C504 0.929 . S
H501 C510 0.929 . S
C502 H496 0.930 . S
C502 C503 1.367 . S
C502 C510 1.378 . S
C503 C502 1.367 . S
C503 C511 1.433 . S
C504 H500 0.929 . S
C504 C506 1.378 . S
C504 C508 1.350 . S
C505 C508 1.463 1_556 S
C505 C510 1.350 . S
C505 N513 1.427 . S
C506 H497 0.930 . S
C506 C504 1.378 . S
C506 C507 1.367 . S
C507 C506 1.367 . S
C507 C509 1.433 . S
C508 C504 1.350 . S
C508 C505 1.463 1_554 S
C508 N512 1.427 . S
C509 H499 0.929 . S
C509 C507 1.433 . S
C509 N512 1.384 . S
C510 H501 0.929 . S
C510 C502 1.378 . S
C510 C505 1.350 . S
C511 H498 0.929 . S
C511 C503 1.433 . S
C511 N513 1.384 . S
N512 C508 1.427 . S
N512 C509 1.384 . S
N513 C505 1.427 . S
N513 C511 1.384 . S
H514 C520 0.930 . S
H515 C524 0.930 . S
H516 C529 0.929 . S
H517 C527 0.929 . S
H518 C522 0.929 . S
H519 C528 0.929 . S
C520 H514 0.930 . S
C520 C521 1.367 . S
C520 C528 1.378 . S
C521 C520 1.367 . S
C521 C529 1.433 . S
C522 H518 0.929 . S
C522 C524 1.378 . S
C522 C526 1.350 . S
C523 C526 1.463 . S
C523 C528 1.350 . S
C523 N531 1.427 . S
C524 H515 0.930 . S
C524 C522 1.378 . S
C524 C525 1.367 . S
C525 C524 1.367 . S
C525 C527 1.433 . S
C526 C522 1.350 . S
C526 C523 1.463 . S
C526 N530 1.427 . S
C527 H517 0.929 . S
C527 C525 1.433 . S
C527 N530 1.384 . S
C528 H519 0.929 . S
C528 C520 1.378 . S
C528 C523 1.350 . S
C529 H516 0.929 . S
C529 C521 1.433 . S
C529 N531 1.384 . S
N530 C526 1.427 . S
N530 C527 1.384 . S
N531 C523 1.427 . S
N531 C529 1.384 . S
H532 C538 0.930 . S
H533 C542 0.930 . S
H534 C547 0.929 . S
H535 C545 0.929 . S
H536 C540 0.929 . S
H537 C546 0.929 . S
C538 H532 0.930 . S
C538 C539 1.367 . S
C538 C546 1.378 . S
C539 C538 1.367 . S
C539 C547 1.433 . S
C540 H536 0.929 . S
C540 C542 1.378 . S
C540 C544 1.350 . S
C541 C544 1.463 1_554 S
C541 C546 1.350 . S
C541 N549 1.427 . S
C542 H533 0.930 . S
C542 C540 1.378 . S
C542 C543 1.367 . S
C543 C542 1.367 . S
C543 C545 1.433 . S
C544 C540 1.350 . S
C544 C541 1.463 1_556 S
C544 N548 1.427 . S
C545 H535 0.929 . S
C545 C543 1.433 . S
C545 N548 1.384 . S
C546 H537 0.929 . S
C546 C538 1.378 . S
C546 C541 1.350 . S
C547 H534 0.929 . S
C547 C539 1.433 . S
C547 N549 1.384 . S
N548 C544 1.427 . S
N548 C545 1.384 . S
N549 C541 1.427 . S
N549 C547 1.384 . S
H550 C556 0.930 . S
H551 C560 0.930 . S
H552 C565 0.929 . S
H553 C563 0.929 . S
H554 C558 0.929 . S
H555 C564 0.929 . S
C556 H550 0.930 . S
C556 C557 1.367 . S
C556 C564 1.378 . S
C557 C556 1.367 . S
C557 C565 1.433 . S
C558 H554 0.929 . S
C558 C560 1.378 . S
C558 C562 1.350 . S
C559 C562 1.463 . S
C559 C564 1.350 . S
C559 N567 1.427 . S
C560 H551 0.930 . S
C560 C558 1.378 . S
C560 C561 1.367 . S
C561 C560 1.367 . S
C561 C563 1.433 . S
C562 C558 1.350 . S
C562 C559 1.463 . S
C562 N566 1.427 . S
C563 H553 0.929 . S
C563 C561 1.433 . S
C563 N566 1.384 . S
C564 H555 0.929 . S
C564 C556 1.378 . S
C564 C559 1.350 . S
C565 H552 0.929 . S
C565 C557 1.433 . S
C565 N567 1.384 . S
N566 C562 1.427 . S
N566 C563 1.384 . S
N567 C559 1.427 . S
N567 C565 1.384 . S
H568 C574 0.930 . S
H569 C578 0.930 . S
H570 C583 0.929 . S
H571 C581 0.929 . S
H572 C576 0.929 . S
H573 C582 0.929 . S
C574 H568 0.930 . S
C574 C575 1.367 . S
C574 C582 1.378 . S
C575 C574 1.367 . S
C575 C583 1.433 . S
C576 H572 0.929 . S
C576 C578 1.378 . S
C576 C580 1.350 . S
C577 C580 1.463 . S
C577 C582 1.350 . S
C577 N585 1.427 . S
C578 H569 0.930 . S
C578 C576 1.378 . S
C578 C579 1.367 . S
C579 C578 1.367 . S
C579 C581 1.433 . S
C580 C576 1.350 . S
C580 C577 1.463 . S
C580 N584 1.427 . S
C581 H571 0.929 . S
C581 C579 1.433 . S
C581 N584 1.384 . S
C582 H573 0.929 . S
C582 C574 1.378 . S
C582 C577 1.350 . S
C583 H570 0.929 . S
C583 C575 1.433 . S
C583 N585 1.384 . S
N584 C580 1.427 . S
N584 C581 1.384 . S
N585 C577 1.427 . S
N585 C583 1.384 . S
H586 C592 0.930 . S
H587 C596 0.930 . S
H588 C601 0.929 . S
H589 C599 0.929 . S
H590 C594 0.929 . S
H591 C600 0.929 . S
C592 H586 0.930 . S
C592 C593 1.367 . S
C592 C600 1.378 . S
C593 C592 1.367 . S
C593 C601 1.433 . S
C594 H590 0.929 . S
C594 C596 1.378 . S
C594 C598 1.350 . S
C595 C598 1.463 1_556 S
C595 C600 1.350 . S
C595 N603 1.427 . S
C596 H587 0.930 . S
C596 C594 1.378 . S
C596 C597 1.367 . S
C597 C596 1.367 . S
C597 C599 1.433 . S
C598 C594 1.350 . S
C598 C595 1.463 1_554 S
C598 N602 1.427 . S
C599 H589 0.929 . S
C599 C597 1.433 . S
C599 N602 1.384 . S
C600 H591 0.929 . S
C600 C592 1.378 . S
C600 C595 1.350 . S
C601 H588 0.929 . S
C601 C593 1.433 . S
C601 N603 1.384 . S
N602 C598 1.427 . S
N602 C599 1.384 . S
N603 C595 1.427 . S
N603 C601 1.384 . S
H604 C610 0.930 . S
H605 C614 0.930 . S
H606 C619 0.929 . S
H607 C617 0.929 . S
H608 C612 0.929 . S
H609 C618 0.929 . S
C610 H604 0.930 . S
C610 C611 1.367 . S
C610 C618 1.378 . S
C611 C610 1.367 . S
C611 C619 1.433 . S
C612 H608 0.929 . S
C612 C614 1.378 . S
C612 C616 1.350 . S
C613 C616 1.463 . S
C613 C618 1.350 . S
C613 N621 1.427 . S
C614 H605 0.930 . S
C614 C612 1.378 . S
C614 C615 1.367 . S
C615 C614 1.367 . S
C615 C617 1.433 . S
C616 C612 1.350 . S
C616 C613 1.463 . S
C616 N620 1.427 . S
C617 H607 0.929 . S
C617 C615 1.433 . S
C617 N620 1.384 . S
C618 H609 0.929 . S
C618 C610 1.378 . S
C618 C613 1.350 . S
C619 H606 0.929 . S
C619 C611 1.433 . S
C619 N621 1.384 . S
N620 C616 1.427 . S
N620 C617 1.384 . S
N621 C613 1.427 . S
N621 C619 1.384 . S
H622 C628 0.930 . S
H623 C632 0.930 . S
H624 C637 0.929 . S
H625 C635 0.929 . S
H626 C630 0.929 . S
H627 C636 0.929 . S
C628 H622 0.930 . S
C628 C629 1.367 . S
C628 C636 1.378 . S
C629 C628 1.367 . S
C629 C637 1.433 . S
C630 H626 0.929 . S
C630 C632 1.378 . S
C630 C634 1.350 . S
C631 C634 1.463 1_554 S
C631 C636 1.350 . S
C631 N639 1.427 . S
C632 H623 0.930 . S
C632 C630 1.378 . S
C632 C633 1.367 . S
C633 C632 1.367 . S
C633 C635 1.433 . S
C634 C630 1.350 . S
C634 C631 1.463 1_556 S
C634 N638 1.427 . S
C635 H625 0.929 . S
C635 C633 1.433 . S
C635 N638 1.384 . S
C636 H627 0.929 . S
C636 C628 1.378 . S
C636 C631 1.350 . S
C637 H624 0.929 . S
C637 C629 1.433 . S
C637 N639 1.384 . S
N638 C634 1.427 . S
N638 C635 1.384 . S
N639 C631 1.427 . S
N639 C637 1.384 . S
H640 C646 0.930 . S
H641 C650 0.930 . S
H642 C655 0.929 . S
H643 C653 0.929 . S
H644 C648 0.929 . S
H645 C654 0.929 . S
C646 H640 0.930 . S
C646 C647 1.367 . S
C646 C654 1.378 . S
C647 C646 1.367 . S
C647 C655 1.433 . S
C648 H644 0.929 . S
C648 C650 1.378 . S
C648 C652 1.350 . S
C649 C652 1.463 . S
C649 C654 1.350 . S
C649 N657 1.427 . S
C650 H641 0.930 . S
C650 C648 1.378 . S
C650 C651 1.367 . S
C651 C650 1.367 . S
C651 C653 1.433 . S
C652 C648 1.350 . S
C652 C649 1.463 . S
C652 N656 1.427 . S
C653 H643 0.929 . S
C653 C651 1.433 . S
C653 N656 1.384 . S
C654 H645 0.929 . S
C654 C646 1.378 . S
C654 C649 1.350 . S
C655 H642 0.929 . S
C655 C647 1.433 . S
C655 N657 1.384 . S
N656 C652 1.427 . S
N656 C653 1.384 . S
N657 C649 1.427 . S
N657 C655 1.384 . S
H658 C664 0.930 . S
H659 C668 0.930 . S
H660 C673 0.929 . S
H661 C671 0.929 . S
H662 C666 0.929 . S
H663 C672 0.929 . S
C664 H658 0.930 . S
C664 C665 1.367 . S
C664 C672 1.378 . S
C665 C664 1.367 . S
C665 C673 1.433 . S
C666 H662 0.929 . S
C666 C668 1.378 . S
C666 C670 1.350 . S
C667 C670 1.463 . S
C667 C672 1.350 . S
C667 N675 1.427 . S
C668 H659 0.930 . S
C668 C666 1.378 . S
C668 C669 1.367 . S
C669 C668 1.367 . S
C669 C671 1.433 . S
C670 C666 1.350 . S
C670 C667 1.463 . S
C670 N674 1.427 . S
C671 H661 0.929 . S
C671 C669 1.433 . S
C671 N674 1.384 . S
C672 H663 0.929 . S
C672 C664 1.378 . S
C672 C667 1.350 . S
C673 H660 0.929 . S
C673 C665 1.433 . S
C673 N675 1.384 . S
N674 C670 1.427 . S
N674 C671 1.384 . S
N675 C667 1.427 . S
N675 C673 1.384 . S
H676 C682 0.930 . S
H677 C686 0.930 . S
H678 C691 0.929 . S
H679 C689 0.929 . S
H680 C684 0.929 . S
H681 C690 0.929 . S
C682 H676 0.930 . S
C682 C683 1.367 . S
C682 C690 1.378 . S
C683 C682 1.367 . S
C683 C691 1.433 . S
C684 H680 0.929 . S
C684 C686 1.378 . S
C684 C688 1.350 . S
C685 C688 1.463 . S
C685 C690 1.350 . S
C685 N693 1.427 . S
C686 H677 0.930 . S
C686 C684 1.378 . S
C686 C687 1.367 . S
C687 C686 1.367 . S
C687 C689 1.433 . S
C688 C684 1.350 . S
C688 C685 1.463 . S
C688 N692 1.427 . S
C689 H679 0.929 . S
C689 C687 1.433 . S
C689 N692 1.384 . S
C690 H681 0.929 . S
C690 C682 1.378 . S
C690 C685 1.350 . S
C691 H678 0.929 . S
C691 C683 1.433 . S
C691 N693 1.384 . S
N692 C688 1.427 . S
N692 C689 1.384 . S
N693 C685 1.427 . S
N693 C691 1.384 . S
H694 C700 0.930 . S
H695 C704 0.930 . S
H696 C709 0.929 . S
H697 C707 0.929 . S
H698 C702 0.929 . S
H699 C708 0.929 . S
C700 H694 0.930 . S
C700 C701 1.367 . S
C700 C708 1.378 . S
C701 C700 1.367 . S
C701 C709 1.433 . S
C702 H698 0.929 . S
C702 C704 1.378 . S
C702 C706 1.350 . S
C703 C706 1.463 . S
C703 C708 1.350 . S
C703 N711 1.427 . S
C704 H695 0.930 . S
C704 C702 1.378 . S
C704 C705 1.367 . S
C705 C704 1.367 . S
C705 C707 1.433 . S
C706 C702 1.350 . S
C706 C703 1.463 . S
C706 N710 1.427 . S
C707 H697 0.929 . S
C707 C705 1.433 . S
C707 N710 1.384 . S
C708 H699 0.929 . S
C708 C700 1.378 . S
C708 C703 1.350 . S
C709 H696 0.929 . S
C709 C701 1.433 . S
C709 N711 1.384 . S
N710 C706 1.427 . S
N710 C707 1.384 . S
N711 C703 1.427 . S
N711 C709 1.384 . S
H712 C718 0.930 . S
H713 C722 0.930 . S
H714 C727 0.929 . S
H715 C725 0.929 . S
H716 C720 0.929 . S
H717 C726 0.929 . S
C718 H712 0.930 . S
C718 C719 1.367 . S
C718 C726 1.378 . S
C719 C718 1.367 . S
C719 C727 1.433 . S
C720 H716 0.929 . S
C720 C722 1.378 . S
C720 C724 1.350 . S
C721 C724 1.463 . S
C721 C726 1.350 . S
C721 N729 1.427 . S
C722 H713 0.930 . S
C722 C720 1.378 . S
C722 C723 1.367 . S
C723 C722 1.367 . S
C723 C725 1.433 . S
C724 C720 1.350 . S
C724 C721 1.463 . S
C724 N728 1.427 . S
C725 H715 0.929 . S
C725 C723 1.433 . S
C725 N728 1.384 . S
C726 H717 0.929 . S
C726 C718 1.378 . S
C726 C721 1.350 . S
C727 H714 0.929 . S
C727 C719 1.433 . S
C727 N729 1.384 . S
N728 C724 1.427 . S
N728 C725 1.384 . S
N729 C721 1.427 . S
N729 C727 1.384 . S
H730 C736 0.930 . S
H731 C740 0.930 . S
H732 C745 0.929 . S
H733 C743 0.929 . S
H734 C738 0.929 . S
H735 C744 0.929 . S
C736 H730 0.930 . S
C736 C737 1.367 . S
C736 C744 1.378 . S
C737 C736 1.367 . S
C737 C745 1.433 . S
C738 H734 0.929 . S
C738 C740 1.378 . S
C738 C742 1.350 . S
C739 C742 1.463 . S
C739 C744 1.350 . S
C739 N747 1.427 . S
C740 H731 0.930 . S
C740 C738 1.378 . S
C740 C741 1.367 . S
C741 C740 1.367 . S
C741 C743 1.433 . S
C742 C738 1.350 . S
C742 C739 1.463 . S
C742 N746 1.427 . S
C743 H733 0.929 . S
C743 C741 1.433 . S
C743 N746 1.384 . S
C744 H735 0.929 . S
C744 C736 1.378 . S
C744 C739 1.350 . S
C745 H732 0.929 . S
C745 C737 1.433 . S
C745 N747 1.384 . S
N746 C742 1.427 . S
N746 C743 1.384 . S
N747 C739 1.427 . S
N747 C745 1.384 . S
H748 C754 0.930 . S
H749 C758 0.930 . S
H750 C763 0.929 . S
H751 C761 0.929 . S
H752 C756 0.929 . S
H753 C762 0.929 . S
C754 H748 0.930 . S
C754 C755 1.367 . S
C754 C762 1.378 . S
C755 C754 1.367 . S
C755 C763 1.433 . S
C756 H752 0.929 . S
C756 C758 1.378 . S
C756 C760 1.350 . S
C757 C760 1.463 . S
C757 C762 1.350 . S
C757 N765 1.427 . S
C758 H749 0.930 . S
C758 C756 1.378 . S
C758 C759 1.367 . S
C759 C758 1.367 . S
C759 C761 1.433 . S
C760 C756 1.350 . S
C760 C757 1.463 . S
C760 N764 1.427 . S
C761 H751 0.929 . S
C761 C759 1.433 . S
C761 N764 1.384 . S
C762 H753 0.929 . S
C762 C754 1.378 . S
C762 C757 1.350 . S
C763 H750 0.929 . S
C763 C755 1.433 . S
C763 N765 1.384 . S
N764 C760 1.427 . S
N764 C761 1.384 . S
N765 C757 1.427 . S
N765 C763 1.384 . S
H766 C772 0.930 . S
H767 C776 0.930 . S
H768 C781 0.929 . S
H769 C779 0.929 . S
H770 C774 0.929 . S
H771 C780 0.929 . S
C772 H766 0.930 . S
C772 C773 1.367 . S
C772 C780 1.378 . S
C773 C772 1.367 . S
C773 C781 1.433 . S
C774 H770 0.929 . S
C774 C776 1.378 . S
C774 C778 1.350 . S
C775 C778 1.463 . S
C775 C780 1.350 . S
C775 N783 1.427 . S
C776 H767 0.930 . S
C776 C774 1.378 . S
C776 C777 1.367 . S
C777 C776 1.367 . S
C777 C779 1.433 . S
C778 C774 1.350 . S
C778 C775 1.463 . S
C778 N782 1.427 . S
C779 H769 0.929 . S
C779 C777 1.433 . S
C779 N782 1.384 . S
C780 H771 0.929 . S
C780 C772 1.378 . S
C780 C775 1.350 . S
C781 H768 0.929 . S
C781 C773 1.433 . S
C781 N783 1.384 . S
N782 C778 1.427 . S
N782 C779 1.384 . S
N783 C775 1.427 . S
N783 C781 1.384 . S
C215 C10 1.926 . S
C219 C36 1.927 . S
C233 C49 1.928 . S
C237 C23 1.928 . S
C251 C62 1.925 . S
C255 C88 1.923 . S
C269 C101 1.927 . S
C273 C75 1.926 . S
C287 C114 1.845 . S
C291 C140 1.846 . S
C305 C153 1.841 . S
C309 C127 1.840 . S
C323 C166 1.840 . S
C327 C192 1.839 . S
C341 C205 1.838 . S
C345 C179 1.837 . S
C359 C55 1.529 . S
C363 C3 1.531 . S
C377 C16 1.530 . S
C381 C68 1.526 . S
C395 C29 1.529 . S
C399 C81 1.531 . S
C413 C94 1.530 . S
C417 C42 1.527 . S
C431 C107 1.554 . S
C435 C159 1.556 . S
C449 C120 1.555 . S
C453 C172 1.557 . S
C467 C133 1.556 . S
C471 C185 1.556 . S
C485 C146 1.554 . S
C489 C198 1.555 . S
C503 C131 1.536 . S
C507 C1 1.527 . S
C521 C144 1.538 . S
C525 C14 1.527 . S
C539 C27 1.527 . S
C543 C105 1.538 . S
C557 C40 1.522 . S
C561 C118 1.537 . S
C575 C53 1.527 . S
C579 C183 1.538 . S
C593 C66 1.524 . S
C597 C196 1.535 . S
C611 C79 1.527 . S
C615 C157 1.538 . S
C629 C170 1.535 . S
C633 C92 1.521 . S
C647 C5 1.838 . S
C651 C200 1.775 . S
C665 C161 1.782 . S
C669 C18 1.837 . S
C683 C31 1.837 . S
C687 C174 1.780 . S
C701 C187 1.775 . S
C705 C44 1.838 . S
C719 C122 1.782 . S
C723 C57 1.837 . S
C737 C70 1.837 . S
C741 C135 1.781 . S
C755 C148 1.773 . S
C759 C83 1.838 . S
C773 C109 1.778 . S
C777 C96 1.837 . S
