# Generated by pormake.
# Topology kag, (6)-cn, num edge types: 1
# Building blocks:
#     Node 0, Type 0, BuildingBlock: KUMJIN_clean_sbu_1, # of connection points: 6
#     Node 1, Type 0, BuildingBlock: KUMJIN_clean_sbu_1, # of connection points: 6
#     Node 2, Type 0, BuildingBlock: KUMJIN_clean_sbu_1, # of connection points: 6
#     Edge 3, Type (0, 0), BuildingBlock: XUDNAN_clean_linker_2, # of connection points: 2
#     Edge 4, Type (0, 0), BuildingBlock: XUDNAN_clean_linker_2, # of connection points: 2
#     Edge 5, Type (0, 0), BuildingBlock: XUDNAN_clean_linker_2, # of connection points: 2
#     Edge 6, Type (0, 0), BuildingBlock: XUDNAN_clean_linker_2, # of connection points: 2
#     Edge 7, Type (0, 0), BuildingBlock: XUDNAN_clean_linker_2, # of connection points: 2
#     Edge 8, Type (0, 0), BuildingBlock: XUDNAN_clean_linker_2, # of connection points: 2
#     Edge 9, Type (0, 0), BuildingBlock: XUDNAN_clean_linker_2, # of connection points: 2
#     Edge 10, Type (0, 0), BuildingBlock: XUDNAN_clean_linker_2, # of connection points: 2
#     Edge 11, Type (0, 0), BuildingBlock: XUDNAN_clean_linker_2, # of connection points: 2
# Relax obj value: 0.096
# Max RMSD: 0.184
# Mean RMSD: 0.126
data_MOF--net-kag--node1-KUMJIN_clean_sbu_1--edge1-XUDNAN_clean_linker_2
_symmetry_space_group_name_H-M    P1
_symmetry_Int_Tables_number       1
_symmetry_cell_setting            triclinic
loop_
_symmetry_equiv_pos_as_xyz
'x, y, z'
_cell_length_a     30.444034
_cell_length_b     40.499561
_cell_length_c     14.799973
_cell_angle_alpha  108.22395
_cell_angle_beta   96.599008
_cell_angle_gamma 99.02255
loop_
_atom_site_label
_atom_site_type_symbol
_atom_site_fract_x
_atom_site_fract_y
_atom_site_fract_z
_atom_type_partial_charge
Eu0 Eu 0.05451 0.54982 0.00746 0.0
C1 C 0.10273 0.39014 0.96925 0.0
N2 N 0.09427 0.40851 0.9091 0.0
C3 C 0.14904 0.385 0.81707 0.0
C4 C 0.13574 0.36903 0.95733 0.0
C5 C 0.11557 0.40523 0.8314 0.0
C6 C 0.15971 0.36726 0.88124 0.0
C7 C 0.08046 0.36918 0.09676 0.0
C8 C 0.07584 0.39041 0.03822 0.0
C9 C 0.11476 0.34943 0.08877 0.0
C10 C 0.14247 0.34944 0.01929 0.0
Eu11 Eu 1.04021 0.44475 0.94301 0.0
N12 N 1.04278 0.40936 0.04281 0.0
C13 C 1.04931 0.36736 0.15856 0.0
C14 C 1.0109 0.40631 0.09905 0.0
C15 C 1.0139 0.38556 0.15845 0.0
H16 H 0.10731 0.41879 0.78137 0.0
H17 H 0.989 0.38366 0.20421 0.0
H18 H 0.13915 0.58913 0.19557 0.0
H19 H 0.90302 0.59796 0.91987 0.0
H20 H 0.98348 0.42034 0.09883 0.0
H21 H 0.05155 0.35125 0.20453 0.0
H22 H 0.96315 0.56345 0.88621 0.0
H23 H 0.16651 0.38305 0.75649 0.0
H24 H 0.11924 0.33326 0.13388 0.0
H25 H 0.16795 0.33331 0.01194 0.0
H26 H 0.15264 0.63412 0.35918 0.0
H27 H 0.18546 0.35143 0.86968 0.0
H28 H 0.90478 0.63846 0.08545 0.0
N29 N 0.07152 0.59449 0.16144 0.0
C30 C 1.03894 0.61289 0.18857 0.0
C31 C 0.12038 0.62823 0.31218 0.0
C32 C 1.04515 0.63898 0.28065 0.0
C33 C 0.11269 0.60283 0.2197 0.0
C34 C 0.08619 0.64602 0.34343 0.0
N35 N 0.99774 0.5838 0.03153 0.0
C36 C 0.96405 0.58109 0.95868 0.0
C37 C 0.9673 0.62756 0.14406 0.0
C38 C 1.00068 0.60727 0.12139 0.0
C39 C 0.93112 0.62335 0.0711 0.0
C40 C 0.92997 0.60049 0.97755 0.0
H41 H 0.09229 0.66584 0.41487 0.0
H42 H 1.01483 0.67786 0.3764 0.0
H43 H 0.94656 0.66785 0.2566 0.0
O44 O 0.10507 0.55431 0.91592 0.0
O45 O 0.9818 0.51665 0.96164 0.0
O46 O 0.98841 0.4722 0.02406 0.0
O47 O 0.07127 0.59771 0.96913 0.0
O48 O 1.01693 0.50805 0.87041 0.0
O49 O 0.0623 0.46924 0.83316 0.0
O50 O 1.00286 0.39109 0.85755 0.0
O51 O 0.11034 0.47429 0.93737 0.0
O52 O 0.11694 0.52916 0.05291 0.0
O53 O 0.97955 0.43645 0.83763 0.0
O54 O 0.0524 0.47351 0.10597 0.0
O55 O 0.06252 0.53506 0.14219 0.0
C56 C 0.96397 0.49328 0.99953 0.0
C57 C 0.14706 0.61262 0.95208 0.0
C58 C 0.19276 0.66752 0.94912 0.0
C59 C 0.22905 0.66228 0.00757 0.0
C60 C 0.1836 0.60818 0.01108 0.0
C61 C 0.2244 0.63279 0.03808 0.0
C62 C 0.15178 0.64229 0.92132 0.0
C63 C 1.04044 0.49145 0.80958 0.0
C64 C 0.10355 0.5871 0.92444 0.0
C65 C 1.01094 0.65797 0.30563 0.0
C66 C 0.97205 0.65226 0.23741 0.0
C67 C 0.13548 0.50351 0.00219 0.0
C68 C 0.92327 0.38679 0.82563 0.0
C69 C 0.86855 0.33752 0.8366 0.0
C70 C 0.83527 0.35818 0.84159 0.0
C71 C 0.88896 0.40649 0.82812 0.0
C72 C 0.91259 0.35214 0.82903 0.0
C73 C 0.84549 0.39239 0.83715 0.0
C74 C 0.06024 0.50642 0.16718 0.0
C75 C 0.9699 0.40226 0.81939 0.0
H76 H 0.26078 0.68138 0.03157 0.0
H77 H 0.18052 0.58584 0.03674 0.0
H78 H 0.2524 0.62919 0.0837 0.0
H79 H 0.12352 0.64562 0.87561 0.0
H80 H 0.80105 0.34762 0.8468 0.0
H81 H 0.89566 0.43287 0.82329 0.0
H82 H 0.93869 0.33667 0.82679 0.0
H83 H 0.81953 0.40796 0.84004 0.0
Eu84 Eu 0.4879 0.99092 0.98689 0.0
C85 C 0.69348 0.9955 0.18787 0.0
N86 N 0.6657 0.01898 0.20925 0.0
C87 C 0.69231 0.0333 0.37853 0.0
C88 C 0.72095 0.98924 0.2618 0.0
C89 C 0.66595 0.03879 0.30282 0.0
C90 C 0.71941 0.00803 0.35804 0.0
C91 C 0.72669 0.95609 0.06729 0.0
C92 C 0.69629 0.97906 0.09185 0.0
C93 C 0.753 0.9489 0.14052 0.0
C94 C 0.75006 0.96538 0.23752 0.0
Eu95 Eu 0.62249 0.02619 0.07616 0.0
N96 N 0.67005 0.98613 0.0224 0.0
C97 C 0.73005 0.94133 0.96987 0.0
C98 C 0.67472 0.97324 0.92782 0.0
C99 C 0.70429 0.95025 0.89997 0.0
H100 H 0.64654 0.05941 0.31921 0.0
H101 H 0.70736 0.93957 0.82473 0.0
H102 H 0.47239 0.9999 0.77006 0.0
H103 H 0.43326 0.06294 0.32158 0.0
H104 H 0.65539 0.98047 0.87378 0.0
H105 H 0.753 0.92357 0.94808 0.0
H106 H 0.46218 0.01475 0.21492 0.0
H107 H 0.69241 0.04903 0.45254 0.0
H108 H 0.77623 0.93108 0.12301 0.0
H109 H 0.7712 0.9601 0.29335 0.0
H110 H 0.4442 0.0411 0.69485 0.0
H111 H 0.74011 0.00409 0.41691 0.0
H112 H 0.40781 0.10842 0.26118 0.0
N113 N 0.45908 0.02729 0.90848 0.0
C114 C 0.44112 0.05381 0.96304 0.0
C115 C 0.44324 0.04499 0.77031 0.0
C116 C 0.42486 0.07794 0.92346 0.0
C117 C 0.45918 0.0218 0.81277 0.0
C118 C 0.42634 0.07335 0.82605 0.0
N119 N 0.45738 0.03412 0.0964 0.0
C120 C 0.45321 0.03506 0.18804 0.0
C121 C 0.42298 0.08527 0.11824 0.0
C122 C 0.44077 0.05758 0.05978 0.0
C123 C 0.42128 0.08757 0.21403 0.0
C124 C 0.43584 0.06205 0.24855 0.0
H125 H 0.41435 0.09145 0.79314 0.0
H126 H 0.39565 0.12487 0.95329 0.0
H127 H 0.39361 0.13111 0.1234 0.0
O128 O 0.42202 0.96414 0.99938 0.0
O129 O 0.52654 0.04256 0.97736 0.0
O130 O 0.57248 0.06127 0.12134 0.0
O131 O 0.44567 0.94838 0.86253 0.0
O132 O 0.51648 0.98741 0.13109 0.0
O133 O 0.57873 0.03323 0.19327 0.0
O134 O 0.64874 0.06305 0.00479 0.0
O135 O 0.60025 0.96511 0.01873 0.0
O136 O 0.52415 0.95152 0.02846 0.0
O137 O 0.68204 0.06819 0.14695 0.0
O138 O 0.5945 0.01652 0.91836 0.0
O139 O 0.53106 0.97142 0.87502 0.0
C140 C 0.54924 0.06878 0.05322 0.0
C141 C 0.36685 0.93144 0.86049 0.0
C142 C 0.2961 0.88778 0.81898 0.0
C143 C 0.27657 0.90732 0.76747 0.0
C144 C 0.34712 0.95066 0.80901 0.0
C145 C 0.30201 0.93854 0.76267 0.0
C146 C 0.34133 0.90037 0.86567 0.0
C147 C 0.54912 0.0076 0.20236 0.0
C148 C 0.41381 0.94255 0.91064 0.0
C149 C 0.40808 0.10593 0.98224 0.0
C150 C 0.40706 0.10954 0.07924 0.0
C151 C 0.56386 0.94279 0.02082 0.0
C152 C 0.72765 0.08382 0.04176 0.0
C153 C 0.78097 0.11553 0.97067 0.0
C154 C 0.81125 0.0935 0.9814 0.0
C155 C 0.75832 0.06211 0.05138 0.0
C156 C 0.73902 0.11039 1.00115 0.0
C157 C 0.79985 0.06697 0.02121 0.0
C158 C 0.56407 0.99088 0.85304 0.0
C159 C 0.68364 0.07899 0.07304 0.0
H160 H 0.24188 0.89832 0.73014 0.0
H161 H 0.36642 0.97484 0.80485 0.0
H162 H 0.2867 0.95334 0.72273 0.0
H163 H 0.35682 0.88624 0.90771 0.0
H164 H 0.84412 0.09711 0.96049 0.0
H165 H 0.75037 0.04155 0.08264 0.0
H166 H 0.71498 0.12677 0.99259 0.0
H167 H 0.82345 0.05026 0.02931 0.0
Eu168 Eu 0.53207 0.44339 0.97304 0.0
C169 C 0.67396 0.58202 0.12845 0.0
N170 N 0.63499 0.57103 0.15758 0.0
C171 C 0.6739 0.59122 0.32174 0.0
C172 C 0.71456 0.59767 0.19556 0.0
C173 C 0.63416 0.57699 0.25348 0.0
C174 C 0.71435 0.6013 0.29262 0.0
C175 C 0.71206 0.5927 1.0012 0.0
C176 C 0.67312 0.5791 0.03173 0.0
C177 C 0.75226 0.6084 0.06825 0.0
C178 C 0.7537 0.61035 0.16468 0.0
Eu179 Eu 0.57032 0.54943 0.0337 0.0
N180 N 0.63404 0.56332 0.96752 0.0
C181 C 0.70927 0.5905 0.90421 0.0
C182 C 0.63077 0.56167 0.87346 0.0
C183 C 0.66852 0.57476 0.83999 0.0
H184 H 0.60299 0.57215 0.27932 0.0
H185 H 0.66597 0.57326 0.76521 0.0
H186 H 0.47567 0.42156 0.7479 0.0
H187 H 0.47669 0.4167 0.28693 0.0
H188 H 0.59875 0.55085 0.82497 0.0
H189 H 0.73834 0.60101 0.87827 0.0
H190 H 0.53193 0.43269 0.19044 0.0
H191 H 0.67305 0.59535 0.39735 0.0
H192 H 0.78249 0.61911 0.0462 0.0
H193 H 0.78506 0.62254 0.21542 0.0
H194 H 0.39866 0.39314 0.65637 0.0
H195 H 0.74487 0.61304 0.34617 0.0
H196 H 0.39592 0.39518 0.21301 0.0
N197 N 0.4587 0.42008 0.88207 0.0
C198 C 0.42679 0.40845 0.92868 0.0
C199 C 0.40605 0.39758 0.73303 0.0
C200 C 0.38264 0.39155 0.8789 0.0
C201 C 0.44946 0.41403 0.78517 0.0
C202 C 0.37248 0.38635 0.78006 0.0
N203 N 0.48231 0.42723 0.07081 0.0
C204 C 0.49644 0.42662 0.16104 0.0
C205 C 0.40622 0.40109 0.07603 0.0
C206 C 0.43863 0.41308 0.02625 0.0
C207 C 0.41983 0.40396 0.17226 0.0
C208 C 0.46533 0.41625 0.21443 0.0
H209 H 0.33897 0.37336 0.7392 0.0
H210 H 0.3162 0.3669 0.89169 0.0
H211 H 0.33656 0.37584 0.06438 0.0
O212 O 0.53081 0.3912 0.9887 0.0
O213 O 0.47483 0.47447 0.95847 0.0
O214 O 0.50029 0.53159 0.06689 0.0
O215 O 0.55605 0.4014 0.86796 0.0
O216 O 0.56744 0.47738 0.12608 0.0
O217 O 0.54655 0.53164 0.15401 0.0
O218 O 0.54453 0.58364 0.9598 0.0
O219 O 0.61871 0.51235 0.9729 0.0
O220 O 0.60585 0.46936 0.04183 0.0
O221 O 0.57662 0.60641 0.1091 0.0
O222 O 0.52783 0.51594 0.88994 0.0
O223 O 0.54997 0.46202 0.84815 0.0
C224 C 0.46693 0.50438 0.01693 0.0
C225 C 0.57975 0.35413 0.91633 0.0
C226 C 0.59437 0.29916 0.94153 0.0
C227 C 0.63485 0.30368 0.90579 0.0
C228 C 0.62077 0.35806 0.88225 0.0
C229 C 0.64807 0.33305 0.87738 0.0
C230 C 0.56704 0.32473 0.94728 0.0
C231 C 0.55503 0.50523 0.18273 0.0
C232 C 0.54805 0.37838 0.91228 0.0
C233 C 0.35028 0.38003 0.92879 0.0
C234 C 0.36186 0.38519 0.02726 0.0
C235 C 0.63382 0.48975 0.0101 0.0
C236 C 0.52922 0.63946 0.05037 0.0
C237 C 0.51829 0.69925 0.05678 0.0
C238 C 0.47656 0.69174 0.08644 0.0
C239 C 0.48748 0.63287 0.07916 0.0
C240 C 0.54434 0.67247 0.03854 0.0
C241 C 0.46134 0.65889 0.09685 0.0
C242 C 0.53735 0.48863 0.82569 0.0
C243 C 0.55802 0.61267 0.03409 0.0
H244 H 0.65664 0.28468 0.90116 0.0
H245 H 0.63152 0.38018 0.85805 0.0
H246 H 0.67954 0.33628 0.85066 0.0
H247 H 0.53537 0.32122 0.97332 0.0
H248 H 0.4558 0.71147 0.10373 0.0
H249 H 0.47531 0.60774 0.08855 0.0
H250 H 0.57636 0.67703 0.01464 0.0
H251 H 0.42924 0.65373 0.11986 0.0
H252 H 0.0725 0.45486 0.64888 0.0
H253 H 1.01962 0.54944 0.77322 0.0
H254 H 1.02632 0.56564 0.628 0.0
H255 H 0.15077 0.49319 0.51688 0.0
H256 H 0.139 0.4531 0.41332 0.0
H257 H 0.13544 0.45062 0.53187 0.0
H258 H 0.05225 0.41534 0.4721 0.0
H259 H 0.05787 0.41687 0.35399 0.0
H260 H 1.01234 0.43304 0.41024 0.0
H261 H 1.03515 0.5708 0.47004 0.0
H262 H 1.03935 0.56233 0.30027 0.0
H263 H 0.08233 0.46251 0.26869 0.0
C264 C 0.06301 0.47922 0.64582 0.0
C265 C 1.04606 0.50113 0.72279 0.0
C266 C 1.03298 0.53237 0.7155 0.0
C267 C 1.03685 0.54192 0.63345 0.0
C268 C 0.05331 0.51971 0.55858 0.0
C269 C 0.06585 0.48886 0.56321 0.0
C270 C 0.07887 0.4684 0.46875 0.0
C271 C 0.12901 0.46621 0.48363 0.0
C272 C 1.04843 0.43122 0.42363 0.0
C273 C 0.0702 0.49205 0.40956 0.0
C274 C 0.05661 0.52192 0.46419 0.0
C275 C 1.04606 0.54768 0.42654 0.0
C276 C 1.04882 0.54266 0.32985 0.0
C277 C 0.06154 0.5119 0.27109 0.0
C278 C 0.0726 0.48632 0.31183 0.0
H279 H 0.57743 0.05321 0.39203 0.0
H280 H 0.52737 0.94244 0.21673 0.0
H281 H 0.5294 0.92606 0.36342 0.0
H282 H 0.6533 0.03835 0.58184 0.0
H283 H 0.63989 0.07349 0.67729 0.0
H284 H 0.63716 0.07623 0.55766 0.0
H285 H 0.55435 0.08427 0.559 0.0
H286 H 0.55678 0.08018 0.67708 0.0
H287 H 0.51356 0.05097 0.57888 0.0
H288 H 0.53227 0.92144 0.52708 0.0
H289 H 0.53762 0.92917 0.70069 0.0
H290 H 0.58814 0.04223 0.77326 0.0
C291 C 0.56773 0.0255 0.38482 0.0
C292 C 0.55253 0.99907 0.29286 0.0
C293 C 0.53896 0.96317 0.28634 0.0
C294 C 0.54019 0.95353 0.36927 0.0
C295 C 0.55501 0.98006 0.45874 0.0
C296 C 0.56865 0.01533 0.46751 0.0
C297 C 0.58104 0.03857 0.57323 0.0
C298 C 0.63083 0.05779 0.59893 0.0
C299 C 0.54954 0.06506 0.59842 0.0
C300 C 0.57269 0.01078 0.62176 0.0
C301 C 0.55735 0.97726 0.55416 0.0
C302 C 0.54484 0.94749 0.58086 0.0
C303 C 0.54795 0.9521 0.67943 0.0
C304 C 0.564 0.98611 0.75001 0.0
C305 C 0.57685 0.01576 0.72069 0.0
H306 H 0.58793 0.46556 0.68314 0.0
H307 H 0.47011 0.51115 0.74202 0.0
H308 H 0.46232 0.51984 0.58415 0.0
H309 H 0.63425 0.52461 0.5715 0.0
H310 H 0.65449 0.49248 0.47995 0.0
H311 H 0.64893 0.48604 0.59348 0.0
H312 H 0.59715 0.42427 0.50363 0.0
H313 H 0.60298 0.43024 0.38958 0.0
H314 H 0.54761 0.42049 0.41867 0.0
H315 H 0.47027 0.52853 0.42875 0.0
H316 H 0.48953 0.53148 0.27386 0.0
H317 H 0.60235 0.48066 0.31055 0.0
C318 C 0.55979 0.47634 0.66113 0.0
C319 C 0.52941 0.48748 0.72431 0.0
C320 C 0.4937 0.50243 0.69455 0.0
C321 C 0.489 0.50752 0.6051 0.0
C322 C 0.52032 0.49755 0.54585 0.0
C323 C 0.55471 0.48186 0.57154 0.0
C324 C 0.58472 0.47512 0.49515 0.0
C325 C 0.63349 0.4958 0.53757 0.0
C326 C 0.583 0.43515 0.44902 0.0
C327 C 0.56202 0.48986 0.42366 0.0
C328 C 0.52497 0.50267 0.45482 0.0
C329 C 0.49895 0.5183 0.40297 0.0
C330 C 0.51038 0.52016 0.31552 0.0
C331 C 0.5472 0.50617 0.28019 0.0
C332 C 0.57384 0.49136 0.33585 0.0
H333 H 0.1914 0.46762 0.88485 0.0
H334 H 0.19645 0.54991 0.15875 0.0
H335 H 0.27952 0.55877 0.18957 0.0
H336 H 0.28336 0.42933 0.96163 0.0
H337 H 0.30265 0.4216 0.84718 0.0
H338 H 0.24442 0.42266 0.85304 0.0
H339 H 0.25286 0.4706 0.76976 0.0
H340 H 0.31215 0.47037 0.77194 0.0
H341 H 0.29425 0.51126 0.82749 0.0
H342 H 0.36321 0.55967 0.191 0.0
H343 H 0.43987 0.55155 0.16597 0.0
H344 H 0.3839 0.46729 0.8932 0.0
C345 C 0.20989 0.48737 0.95166 0.0
C346 C 0.18651 0.50802 0.01936 0.0
C347 C 0.21277 0.53379 0.10513 0.0
C348 C 0.26033 0.53902 0.12347 0.0
C349 C 0.28215 0.51837 0.05557 0.0
C350 C 0.25783 0.4931 0.97114 0.0
C351 C 0.28998 0.47472 0.91007 0.0
C352 C 0.2795 0.43468 0.8922 0.0
C353 C 0.28713 0.48219 0.81411 0.0
C354 C 0.33609 0.49274 0.97458 0.0
C355 C 0.33053 0.51828 0.05746 0.0
C356 C 0.36774 0.53952 0.12665 0.0
C357 C 0.41152 0.53465 0.1116 0.0
C358 C 0.41883 0.50833 0.02843 0.0
C359 C 0.38005 0.48712 0.9588 0.0
H360 H 0.76509 0.18358 0.02903 0.0
H361 H 0.82595 0.11215 0.81878 0.0
H362 H 0.85253 0.1606 0.75821 0.0
H363 H 0.72816 0.23216 0.87011 0.0
H364 H 0.73989 0.27394 0.96801 0.0
H365 H 0.72329 0.23301 0.99098 0.0
H366 H 0.79572 0.24959 0.11996 0.0
H367 H 0.81268 0.29038 0.09684 0.0
H368 H 0.85015 0.25958 0.08678 0.0
H369 H 0.87676 0.21746 0.72742 0.0
H370 H 0.89451 0.27862 0.72409 0.0
H371 H 0.81693 0.31299 0.95231 0.0
C372 C 0.78318 0.17787 0.96892 0.0
C373 C 0.79368 0.14403 0.9292 0.0
C374 C 0.81814 0.13796 0.85162 0.0
C375 C 0.8331 0.16525 0.81616 0.0
C376 C 0.82295 0.19841 0.85822 0.0
C377 C 0.79817 0.20478 0.93221 0.0
C378 C 0.79307 0.24316 0.9666 0.0
C379 C 0.74314 0.24571 0.94778 0.0
C380 C 0.81418 0.26176 0.07389 0.0
C381 C 0.81988 0.25755 0.90203 0.0
C382 C 0.83659 0.23123 0.83969 0.0
C383 C 0.86363 0.23827 0.77541 0.0
C384 C 0.87386 0.27315 0.77466 0.0
C385 C 0.8572 0.30063 0.83797 0.0
C386 C 0.82968 0.29251 0.90211 0.0
H387 H 0.49434 0.88555 0.98815 0.0
H388 H 0.64035 0.91664 0.0552 0.0
H389 H 0.645 0.85785 0.06689 0.0
H390 H 0.48101 0.83628 0.14698 0.0
H391 H 0.43559 0.80201 0.066 0.0
H392 H 0.44391 0.84609 0.05911 0.0
H393 H 0.44915 0.82079 0.87817 0.0
H394 H 0.44064 0.77656 0.88422 0.0
H395 H 0.48959 0.79335 0.84151 0.0
H396 H 0.63301 0.79608 0.08152 0.0
H397 H 0.60627 0.73681 0.09093 0.0
H398 H 0.46786 0.7443 0.00431 0.0
C399 C 0.52744 0.88004 0.00462 0.0
C400 C 0.5672 0.90623 0.02086 0.0
C401 C 0.60953 0.89743 0.0419 0.0
C402 C 0.61242 0.86393 0.04899 0.0
C403 C 0.5726 0.83902 0.03373 0.0
C404 C 0.53088 0.84657 0.01092 0.0
C405 C 0.49311 0.81524 0.99834 0.0
C406 C 0.46157 0.82553 0.07203 0.0
C407 C 0.46658 0.80062 0.89437 0.0
C408 C 0.52005 0.78907 0.01929 0.0
C409 C 0.56582 0.80329 0.03958 0.0
C410 C 0.59724 0.78455 0.06434 0.0
C411 C 0.5816 0.75055 0.06871 0.0
C412 C 0.53474 0.7351 0.04786 0.0
C413 C 0.50385 0.75495 0.02201 0.0
H414 H 0.89263 0.51341 0.90642 0.0
H415 H 0.92319 0.46366 0.11983 0.0
H416 H 0.84367 0.45707 0.14339 0.0
H417 H 0.81497 0.56218 0.01663 0.0
H418 H 0.77693 0.55374 0.9049 0.0
H419 H 0.83557 0.55337 0.90378 0.0
H420 H 0.81411 0.49038 0.77777 0.0
H421 H 0.75509 0.49087 0.77959 0.0
H422 H 0.77856 0.45569 0.80368 0.0
H423 H 0.75991 0.45662 0.14625 0.0
H424 H 0.67999 0.4617 0.12786 0.0
H425 H 0.70085 0.5115 0.91157 0.0
C426 C 0.88269 0.50129 0.95854 0.0
C427 C 0.91499 0.4895 0.01218 0.0
C428 C 0.89974 0.4731 0.07793 0.0
C429 C 0.85434 0.46919 0.0918 0.0
C430 C 0.82356 0.48123 0.0384 0.0
C431 C 0.83697 0.49647 0.97198 0.0
C432 C 0.79679 0.50658 0.9228 0.0
C433 C 0.80664 0.54642 0.93829 0.0
C434 C 0.78548 0.48457 0.81453 0.0
C435 C 0.75912 0.49644 0.97535 0.0
C436 C 0.77534 0.48116 0.04041 0.0
C437 C 0.74706 0.46859 0.09554 0.0
C438 C 0.70134 0.47157 0.08435 0.0
C439 C 0.68335 0.48731 0.01898 0.0
C440 C 0.71316 0.49988 0.96359 0.0
H441 H 0.26616 0.69915 0.8918 0.0
H442 H 0.13047 0.70934 0.94233 0.0
H443 H 0.13992 0.76465 0.90276 0.0
H444 H 0.3165 0.79024 1.00054 0.0
H445 H 0.35411 0.7906 0.91515 0.0
H446 H 0.33539 0.75037 0.93965 0.0
H447 H 0.30488 0.71722 0.75727 0.0
H448 H 0.3237 0.75739 0.73222 0.0
H449 H 0.26545 0.73455 0.69323 0.0
H450 H 0.1663 0.82127 0.86868 0.0
H451 H 0.20757 0.87438 0.84333 0.0
H452 H 0.32542 0.82645 0.81325 0.0
C453 C 0.23834 0.71292 0.89436 0.0
C454 C 0.19748 0.69975 0.91993 0.0
C455 C 0.16182 0.71851 0.92145 0.0
C456 C 0.16695 0.75008 0.89956 0.0
C457 C 0.20787 0.7625 0.87585 0.0
C458 C 0.2429 0.74442 0.87281 0.0
C459 C 0.28404 0.76403 0.84873 0.0
C460 C 0.3249 0.77442 0.93092 0.0
C461 C 0.29515 0.74198 0.7521 0.0
C462 C 0.267 0.79634 0.8407 0.0
C463 C 0.22292 0.79491 0.85589 0.0
C464 C 0.20067 0.82248 0.85557 0.0
C465 C 0.2243 0.85248 0.84052 0.0
C466 C 0.26978 0.85472 0.82628 0.0
C467 C 0.29088 0.82585 0.82489 0.0
H468 H 0.58257 0.22799 0.83645 0.0
H469 H 0.57925 0.30015 0.12088 0.0
H470 H 0.56669 0.24925 0.18076 0.0
H471 H 0.49299 0.15721 0.84372 0.0
H472 H 0.51816 0.12163 0.77896 0.0
H473 H 0.5271 0.16311 0.75585 0.0
H474 H 0.61339 0.16975 0.79413 0.0
H475 H 0.60635 0.12833 0.8174 0.0
H476 H 0.63913 0.16822 0.90832 0.0
H477 H 0.56162 0.19042 0.21272 0.0
H478 H 0.55503 0.12819 0.20929 0.0
H479 H 0.55417 0.09355 0.90076 0.0
C480 C 0.57863 0.23295 0.91104 0.0
C481 C 0.58185 0.26808 0.97421 0.0
C482 C 0.57652 0.2735 0.07122 0.0
C483 C 0.56963 0.24474 0.10587 0.0
C484 C 0.56722 0.21049 0.04216 0.0
C485 C 0.57061 0.20441 0.94618 0.0
C486 C 0.56586 0.16496 0.89222 0.0
C487 C 0.52355 0.15091 0.81295 0.0
C488 C 0.60871 0.15738 0.85054 0.0
C489 C 0.56038 0.14987 0.97311 0.0
C490 C 0.5617 0.17659 0.05933 0.0
C491 C 0.5599 0.16931 0.14523 0.0
C492 C 0.55641 0.13394 0.14281 0.0
C493 C 0.55387 0.10609 0.05491 0.0
C494 C 0.55555 0.11427 0.96894 0.0
loop_
_geom_bond_atom_site_label_1
_geom_bond_atom_site_label_2
_geom_bond_distance
_geom_bond_site_symmetry_2
_ccdc_geom_bond_type
Eu0 N29 2.600 1_455 S
Eu0 N35 2.562 1_455 S
Eu0 O44 2.462 1_554 S
Eu0 O45 2.373 1_455 S
Eu0 O47 2.432 . S
Eu0 O48 2.291 1_454 S
Eu0 O52 2.335 . S
Eu0 O55 2.372 . S
Eu0 C64 2.787 . S
C1 N2 1.365 . S
C1 C4 1.405 . S
C1 C8 1.448 . S
N2 C1 1.365 . S
N2 C5 1.319 1_455 S
N2 Eu11 2.600 1_455 S
C3 C5 1.397 1_455 S
C3 C6 1.367 . S
C3 H23 0.931 . S
C4 C1 1.405 . S
C4 C6 1.403 . S
C4 C10 1.439 . S
C5 N2 1.319 1_655 S
C5 C3 1.397 1_655 S
C5 H16 0.930 . S
C6 C3 1.367 . S
C6 C4 1.403 . S
C6 H27 0.929 . S
C7 C8 1.430 . S
C7 C9 1.387 . S
C7 C13 1.404 1_556 S
C8 C1 1.448 . S
C8 C7 1.430 . S
C8 N12 1.351 . S
C9 C7 1.387 . S
C9 C10 1.374 . S
C9 H24 0.931 . S
C10 C4 1.439 . S
C10 C9 1.374 . S
C10 H25 0.931 . S
Eu11 N2 2.600 1_655 S
Eu11 N12 2.562 1_655 S
Eu11 O46 2.335 . S
Eu11 O49 2.372 . S
Eu11 O50 2.462 1_556 S
Eu11 O51 2.373 1_655 S
Eu11 O53 2.432 . S
Eu11 O54 2.291 1_656 S
Eu11 C75 2.787 . S
N12 C8 1.351 . S
N12 Eu11 2.562 1_455 S
N12 C14 1.325 1_556 S
C13 C7 1.404 1_554 S
C13 C15 1.366 . S
C13 H21 0.930 . S
C14 N12 1.325 1_554 S
C14 C15 1.416 . S
C14 H20 0.929 . S
C15 C13 1.366 . S
C15 C14 1.416 . S
C15 H17 0.930 . S
H16 C5 0.930 . S
H17 C15 0.930 . S
H18 C33 0.930 . S
H19 C40 0.930 . S
H20 C14 0.929 . S
H21 C13 0.930 . S
H22 C36 0.929 . S
H23 C3 0.931 . S
H24 C9 0.931 . S
H25 C10 0.931 . S
H26 C31 0.931 . S
H27 C6 0.929 . S
H28 C39 0.930 . S
N29 Eu0 2.600 1_655 S
N29 C30 1.365 . S
N29 C33 1.319 1_655 S
C30 N29 1.365 . S
C30 C32 1.405 . S
C30 C38 1.448 . S
C31 H26 0.931 . S
C31 C33 1.397 1_655 S
C31 C34 1.367 . S
C32 C30 1.405 . S
C32 C34 1.403 . S
C32 C65 1.439 . S
C33 H18 0.930 . S
C33 N29 1.319 1_455 S
C33 C31 1.397 1_455 S
C34 C31 1.367 . S
C34 C32 1.403 . S
C34 H41 0.929 . S
N35 Eu0 2.562 1_655 S
N35 C36 1.325 1_554 S
N35 C38 1.351 . S
C36 H22 0.929 . S
C36 N35 1.325 1_556 S
C36 C40 1.416 . S
C37 C38 1.430 . S
C37 C39 1.404 1_554 S
C37 C66 1.387 . S
C38 C30 1.448 . S
C38 N35 1.351 . S
C38 C37 1.430 . S
C39 H28 0.930 . S
C39 C37 1.404 1_556 S
C39 C40 1.366 . S
C40 H19 0.930 . S
C40 C36 1.416 . S
C40 C39 1.366 . S
H41 C34 0.929 . S
H42 C65 0.931 . S
H43 C66 0.931 . S
O44 Eu0 2.462 1_556 S
O44 C64 1.252 1_556 S
O45 Eu0 2.373 1_655 S
O45 C56 1.249 1_554 S
O46 Eu11 2.335 . S
O46 C56 1.264 . S
O47 Eu0 2.432 . S
O47 C64 1.268 . S
O48 Eu0 2.291 1_656 S
O48 C63 1.255 . S
O49 Eu11 2.372 . S
O49 C63 1.257 . S
O50 Eu11 2.462 1_554 S
O50 C75 1.252 1_554 S
O51 Eu11 2.373 1_455 S
O51 C67 1.249 1_556 S
O52 Eu0 2.335 . S
O52 C67 1.264 . S
O53 Eu11 2.432 . S
O53 C75 1.268 . S
O54 Eu11 2.291 1_454 S
O54 C74 1.255 . S
O55 Eu0 2.372 . S
O55 C74 1.257 . S
C56 O45 1.249 1_556 S
C56 O46 1.264 . S
C57 C60 1.382 . S
C57 C62 1.390 . S
C57 C64 1.506 . S
C58 C59 1.398 . S
C58 C62 1.392 . S
C59 C58 1.398 . S
C59 C61 1.372 . S
C59 H76 0.931 . S
C60 C57 1.382 . S
C60 C61 1.390 . S
C60 H77 0.931 . S
C61 C59 1.372 . S
C61 C60 1.390 . S
C61 H78 0.929 . S
C62 C57 1.390 . S
C62 C58 1.392 . S
C62 H79 0.930 1_554 S
C63 O48 1.255 . S
C63 O49 1.257 . S
C64 Eu0 2.787 . S
C64 O44 1.252 1_554 S
C64 O47 1.268 . S
C64 C57 1.506 . S
C65 C32 1.439 . S
C65 H42 0.931 . S
C65 C66 1.374 . S
C66 C37 1.387 . S
C66 H43 0.931 . S
C66 C65 1.374 . S
C67 O51 1.249 1_554 S
C67 O52 1.264 . S
C68 C71 1.382 . S
C68 C72 1.390 . S
C68 C75 1.506 . S
C69 C70 1.398 . S
C69 C72 1.392 . S
C70 C69 1.398 . S
C70 C73 1.372 . S
C70 H80 0.931 . S
C71 C68 1.382 . S
C71 C73 1.390 . S
C71 H81 0.931 . S
C72 C68 1.390 . S
C72 C69 1.392 . S
C72 H82 0.930 1_556 S
C73 C70 1.372 . S
C73 C71 1.390 . S
C73 H83 0.929 . S
C74 O54 1.255 . S
C74 O55 1.257 . S
C75 Eu11 2.787 . S
C75 O50 1.252 1_556 S
C75 O53 1.268 . S
C75 C68 1.506 . S
H76 C59 0.931 . S
H77 C60 0.931 . S
H78 C61 0.929 . S
H79 C62 0.930 1_556 S
H80 C70 0.931 . S
H81 C71 0.931 . S
H82 C72 0.930 1_554 S
H83 C73 0.929 . S
Eu84 N113 2.600 . S
Eu84 N119 2.562 1_566 S
Eu84 O128 2.462 1_556 S
Eu84 O129 2.373 1_565 S
Eu84 O131 2.432 . S
Eu84 O132 2.291 1_566 S
Eu84 O136 2.335 . S
Eu84 O139 2.372 . S
Eu84 C148 2.787 . S
C85 N86 1.365 1_565 S
C85 C88 1.405 . S
C85 C92 1.448 . S
N86 C85 1.365 1_545 S
N86 C89 1.319 . S
N86 Eu95 2.600 . S
C87 C89 1.397 . S
C87 C90 1.367 1_545 S
C87 H107 0.931 . S
C88 C85 1.405 . S
C88 C90 1.403 . S
C88 C94 1.439 . S
C89 N86 1.319 . S
C89 C87 1.397 . S
C89 H100 0.930 . S
C90 C87 1.367 1_565 S
C90 C88 1.403 . S
C90 H111 0.929 . S
C91 C92 1.430 1_556 S
C91 C93 1.387 1_556 S
C91 C97 1.404 . S
C92 C85 1.448 . S
C92 C91 1.430 1_554 S
C92 N96 1.351 1_554 S
C93 C91 1.387 1_554 S
C93 C94 1.374 . S
C93 H108 0.931 . S
C94 C88 1.439 . S
C94 C93 1.374 . S
C94 H109 0.931 . S
Eu95 N86 2.600 . S
Eu95 N96 2.562 1_544 S
Eu95 O130 2.335 . S
Eu95 O133 2.372 . S
Eu95 O134 2.462 1_554 S
Eu95 O135 2.373 1_545 S
Eu95 O137 2.432 . S
Eu95 O138 2.291 1_544 S
Eu95 C159 2.787 . S
N96 C92 1.351 1_556 S
N96 Eu95 2.562 1_566 S
N96 C98 1.325 . S
C97 C91 1.404 . S
C97 C99 1.366 . S
C97 H105 0.930 . S
C98 N96 1.325 . S
C98 C99 1.416 . S
C98 H104 0.929 . S
C99 C97 1.366 . S
C99 C98 1.416 . S
C99 H101 0.930 . S
H100 C89 0.930 . S
H101 C99 0.930 . S
H102 C117 0.930 . S
H103 C124 0.930 . S
H104 C98 0.929 . S
H105 C97 0.930 . S
H106 C120 0.929 . S
H107 C87 0.931 . S
H108 C93 0.931 . S
H109 C94 0.931 . S
H110 C115 0.931 . S
H111 C90 0.929 . S
H112 C123 0.930 . S
N113 Eu84 2.600 . S
N113 C114 1.365 1_565 S
N113 C117 1.319 . S
C114 N113 1.365 1_545 S
C114 C116 1.405 . S
C114 C122 1.448 . S
C115 H110 0.931 . S
C115 C117 1.397 . S
C115 C118 1.367 1_565 S
C116 C114 1.405 . S
C116 C118 1.403 . S
C116 C149 1.439 . S
C117 H102 0.930 . S
C117 N113 1.319 . S
C117 C115 1.397 . S
C118 C115 1.367 1_545 S
C118 C116 1.403 . S
C118 H125 0.929 . S
N119 Eu84 2.562 1_544 S
N119 C120 1.325 . S
N119 C122 1.351 1_554 S
C120 H106 0.929 . S
C120 N119 1.325 . S
C120 C124 1.416 . S
C121 C122 1.430 1_554 S
C121 C123 1.404 . S
C121 C150 1.387 1_554 S
C122 C114 1.448 . S
C122 N119 1.351 1_556 S
C122 C121 1.430 1_556 S
C123 H112 0.930 . S
C123 C121 1.404 . S
C123 C124 1.366 . S
C124 H103 0.930 . S
C124 C120 1.416 . S
C124 C123 1.366 . S
H125 C118 0.929 . S
H126 C149 0.931 . S
H127 C150 0.931 . S
O128 Eu84 2.462 1_554 S
O128 C148 1.252 1_554 S
O129 Eu84 2.373 1_545 S
O129 C140 1.249 1_556 S
O130 Eu95 2.335 . S
O130 C140 1.264 . S
O131 Eu84 2.432 . S
O131 C148 1.268 . S
O132 Eu84 2.291 1_544 S
O132 C147 1.255 . S
O133 Eu95 2.372 . S
O133 C147 1.257 . S
O134 Eu95 2.462 1_556 S
O134 C159 1.252 1_556 S
O135 Eu95 2.373 1_565 S
O135 C151 1.249 1_554 S
O136 Eu84 2.335 . S
O136 C151 1.264 . S
O137 Eu95 2.432 . S
O137 C159 1.268 . S
O138 Eu95 2.291 1_566 S
O138 C158 1.255 . S
O139 Eu84 2.372 . S
O139 C158 1.257 . S
C140 O129 1.249 1_554 S
C140 O130 1.264 . S
C141 C144 1.382 . S
C141 C146 1.390 1_556 S
C141 C148 1.506 . S
C142 C143 1.398 1_554 S
C142 C146 1.392 . S
C143 C142 1.398 1_556 S
C143 C145 1.372 . S
C143 H160 0.931 . S
C144 C141 1.382 . S
C144 C145 1.390 . S
C144 H161 0.931 . S
C145 C143 1.372 . S
C145 C144 1.390 . S
C145 H162 0.929 . S
C146 C141 1.390 1_554 S
C146 C142 1.392 . S
C146 H163 0.930 . S
C147 O132 1.255 . S
C147 O133 1.257 . S
C148 Eu84 2.787 . S
C148 O128 1.252 1_556 S
C148 O131 1.268 . S
C148 C141 1.506 . S
C149 C116 1.439 . S
C149 H126 0.931 . S
C149 C150 1.374 . S
C150 C121 1.387 1_556 S
C150 H127 0.931 . S
C150 C149 1.374 . S
C151 O135 1.249 1_556 S
C151 O136 1.264 . S
C152 C155 1.382 . S
C152 C156 1.390 1_554 S
C152 C159 1.506 . S
C153 C154 1.398 1_556 S
C153 C156 1.392 . S
C154 C153 1.398 1_554 S
C154 C157 1.372 . S
C154 H164 0.931 . S
C155 C152 1.382 . S
C155 C157 1.390 . S
C155 H165 0.931 . S
C156 C152 1.390 1_556 S
C156 C153 1.392 . S
C156 H166 0.930 . S
C157 C154 1.372 . S
C157 C155 1.390 . S
C157 H167 0.929 . S
C158 O138 1.255 . S
C158 O139 1.257 . S
C159 Eu95 2.787 . S
C159 O134 1.252 1_554 S
C159 O137 1.268 . S
C159 C152 1.506 . S
H160 C143 0.931 . S
H161 C144 0.931 . S
H162 C145 0.929 . S
H163 C146 0.930 . S
H164 C154 0.931 . S
H165 C155 0.931 . S
H166 C156 0.930 . S
H167 C157 0.929 . S
Eu168 N197 2.600 . S
Eu168 N203 2.562 . S
Eu168 O212 2.462 1_556 S
Eu168 O213 2.373 . S
Eu168 O215 2.432 . S
Eu168 O216 2.291 1_556 S
Eu168 O220 2.335 . S
Eu168 O223 2.372 . S
Eu168 C232 2.787 . S
C169 N170 1.365 . S
C169 C172 1.405 . S
C169 C176 1.448 . S
N170 C169 1.365 . S
N170 C173 1.319 . S
N170 Eu179 2.600 . S
C171 C173 1.397 . S
C171 C174 1.367 . S
C171 H191 0.931 . S
C172 C169 1.405 . S
C172 C174 1.403 . S
C172 C178 1.439 . S
C173 N170 1.319 . S
C173 C171 1.397 . S
C173 H184 0.930 . S
C174 C171 1.367 . S
C174 C172 1.403 . S
C174 H195 0.929 . S
C175 C176 1.430 . S
C175 C177 1.387 . S
C175 C181 1.415 . S
C176 C169 1.448 . S
C176 C175 1.430 . S
C176 N180 1.351 . S
C177 C175 1.387 . S
C177 C178 1.374 . S
C177 H192 0.931 . S
C178 C172 1.439 . S
C178 C177 1.374 . S
C178 H193 0.931 . S
Eu179 N170 2.600 . S
Eu179 N180 2.562 . S
Eu179 O214 2.335 . S
Eu179 O217 2.372 . S
Eu179 O218 2.462 1_554 S
Eu179 O219 2.373 . S
Eu179 O221 2.432 . S
Eu179 O222 2.291 1_554 S
Eu179 C243 2.787 . S
N180 C176 1.351 . S
N180 Eu179 2.562 . S
N180 C182 1.325 1_554 S
C181 C175 1.415 . S
C181 C183 1.360 1_554 S
C181 H189 0.925 1_554 S
C182 N180 1.325 1_556 S
C182 C183 1.416 . S
C182 H188 0.929 . S
C183 C181 1.360 1_556 S
C183 C182 1.416 . S
C183 H185 0.930 . S
H184 C173 0.930 . S
H185 C183 0.930 . S
H186 C201 0.930 . S
H187 C208 0.930 . S
H188 C182 0.929 . S
H189 C181 0.925 1_556 S
H190 C204 0.929 . S
H191 C171 0.931 . S
H192 C177 0.931 . S
H193 C178 0.931 . S
H194 C199 0.931 . S
H195 C174 0.929 . S
H196 C207 0.932 . S
N197 Eu168 2.600 . S
N197 C198 1.365 . S
N197 C201 1.319 . S
C198 N197 1.365 . S
C198 C200 1.405 . S
C198 C206 1.448 . S
C199 H194 0.931 . S
C199 C201 1.397 . S
C199 C202 1.367 . S
C200 C198 1.405 . S
C200 C202 1.403 . S
C200 C233 1.439 . S
C201 H186 0.930 . S
C201 N197 1.319 . S
C201 C199 1.397 . S
C202 C199 1.367 . S
C202 C200 1.403 . S
C202 H209 0.929 . S
N203 Eu168 2.562 . S
N203 C204 1.325 1_556 S
N203 C206 1.351 . S
C204 H190 0.929 . S
C204 N203 1.325 1_554 S
C204 C208 1.416 . S
C205 C206 1.430 . S
C205 C207 1.401 1_556 S
C205 C234 1.387 . S
C206 C198 1.448 . S
C206 N203 1.351 . S
C206 C205 1.430 . S
C207 H196 0.932 . S
C207 C205 1.401 1_554 S
C207 C208 1.368 . S
C208 H187 0.930 . S
C208 C204 1.416 . S
C208 C207 1.368 . S
H209 C202 0.929 . S
H210 C233 0.931 . S
H211 C234 0.931 . S
O212 Eu168 2.462 1_554 S
O212 C232 1.252 1_554 S
O213 Eu168 2.373 . S
O213 C224 1.249 . S
O214 Eu179 2.335 . S
O214 C224 1.264 1_554 S
O215 Eu168 2.432 . S
O215 C232 1.268 . S
O216 Eu168 2.291 1_554 S
O216 C231 1.255 . S
O217 Eu179 2.372 . S
O217 C231 1.257 . S
O218 Eu179 2.462 1_556 S
O218 C243 1.252 1_556 S
O219 Eu179 2.373 . S
O219 C235 1.249 . S
O220 Eu168 2.335 . S
O220 C235 1.264 1_556 S
O221 Eu179 2.432 . S
O221 C243 1.268 . S
O222 Eu179 2.291 1_556 S
O222 C242 1.255 . S
O223 Eu168 2.372 . S
O223 C242 1.257 . S
C224 O213 1.249 . S
C224 O214 1.264 1_556 S
C225 C228 1.382 . S
C225 C230 1.390 1_556 S
C225 C232 1.506 . S
C226 C227 1.398 . S
C226 C230 1.392 1_556 S
C227 C226 1.398 . S
C227 C229 1.372 . S
C227 H244 0.931 . S
C228 C225 1.382 . S
C228 C229 1.390 . S
C228 H245 0.931 . S
C229 C227 1.372 . S
C229 C228 1.390 . S
C229 H246 0.929 . S
C230 C225 1.390 1_554 S
C230 C226 1.392 1_554 S
C230 H247 0.930 . S
C231 O216 1.255 . S
C231 O217 1.257 . S
C232 Eu168 2.787 . S
C232 O212 1.252 1_556 S
C232 O215 1.268 . S
C232 C225 1.506 . S
C233 C200 1.439 . S
C233 H210 0.931 . S
C233 C234 1.374 . S
C234 C205 1.387 . S
C234 H211 0.931 . S
C234 C233 1.374 . S
C235 O219 1.249 . S
C235 O220 1.264 1_554 S
C236 C239 1.382 . S
C236 C240 1.382 1_554 S
C236 C243 1.506 . S
C237 C238 1.398 . S
C237 C240 1.393 1_554 S
C238 C237 1.398 . S
C238 C241 1.372 . S
C238 H248 0.931 . S
C239 C236 1.382 . S
C239 C241 1.390 . S
C239 H249 0.931 . S
C240 C236 1.382 1_556 S
C240 C237 1.393 1_556 S
C240 H250 0.936 . S
C241 C238 1.372 . S
C241 C239 1.390 . S
C241 H251 0.929 . S
C242 O222 1.255 . S
C242 O223 1.257 . S
C243 Eu179 2.787 . S
C243 O218 1.252 1_554 S
C243 O221 1.268 . S
C243 C236 1.506 . S
H244 C227 0.931 . S
H245 C228 0.931 . S
H246 C229 0.929 . S
H247 C230 0.930 . S
H248 C238 0.931 . S
H249 C239 0.931 . S
H250 C240 0.936 . S
H251 C241 0.929 . S
H252 C264 0.930 . S
H253 C266 0.927 . S
H254 C267 0.930 . S
H255 C271 0.959 . S
H256 C271 0.959 . S
H257 C271 0.961 . S
H258 C272 0.960 . S
H259 C272 0.961 . S
H260 C272 0.959 . S
H261 C275 0.929 . S
H262 C276 0.931 . S
H263 C278 0.930 . S
C264 H252 0.930 . S
C264 C265 1.399 . S
C264 C269 1.399 . S
C265 C264 1.399 . S
C265 C266 1.378 1_655 S
C266 H253 0.927 . S
C266 C265 1.378 1_455 S
C266 C267 1.390 . S
C267 H254 0.930 . S
C267 C266 1.390 . S
C267 C268 1.390 1_455 S
C268 C267 1.390 1_655 S
C268 C269 1.394 . S
C268 C274 1.465 . S
C269 C264 1.399 . S
C269 C268 1.394 . S
C269 C270 1.516 . S
C270 C269 1.516 . S
C270 C271 1.502 1_655 S
C270 C272 1.561 . S
C270 C273 1.526 . S
C271 H255 0.959 . S
C271 H256 0.959 . S
C271 H257 0.961 . S
C271 C270 1.502 1_455 S
C272 H258 0.960 . S
C272 H259 0.961 . S
C272 H260 0.959 . S
C272 C270 1.561 . S
C273 C270 1.526 . S
C273 C274 1.396 . S
C273 C278 1.390 . S
C274 C268 1.465 . S
C274 C273 1.396 . S
C274 C275 1.399 1_655 S
C275 H261 0.929 . S
C275 C274 1.399 1_455 S
C275 C276 1.385 . S
C276 H262 0.931 . S
C276 C275 1.385 . S
C276 C277 1.389 . S
C277 C276 1.389 . S
C277 C278 1.387 1_455 S
C278 H263 0.930 . S
C278 C273 1.390 . S
C278 C277 1.387 1_655 S
H279 C291 0.930 . S
H280 C293 0.930 . S
H281 C294 0.930 . S
H282 C298 0.959 . S
H283 C298 0.959 . S
H284 C298 0.961 . S
H285 C299 0.960 . S
H286 C299 0.961 . S
H287 C299 0.959 . S
H288 C302 0.929 . S
H289 C303 0.931 . S
H290 C305 0.930 . S
C291 H279 0.930 . S
C291 C292 1.399 . S
C291 C296 1.399 . S
C292 C291 1.399 . S
C292 C293 1.376 1_545 S
C293 H280 0.930 . S
C293 C292 1.376 1_565 S
C293 C294 1.388 . S
C294 H281 0.930 . S
C294 C293 1.388 . S
C294 C295 1.390 . S
C295 C294 1.390 . S
C295 C296 1.394 1_565 S
C295 C301 1.465 . S
C296 C291 1.399 . S
C296 C295 1.394 1_545 S
C296 C297 1.516 . S
C297 C296 1.516 . S
C297 C298 1.502 . S
C297 C299 1.561 . S
C297 C300 1.526 . S
C298 H282 0.959 . S
C298 H283 0.959 . S
C298 H284 0.961 . S
C298 C297 1.502 . S
C299 H285 0.960 . S
C299 H286 0.961 . S
C299 H287 0.959 . S
C299 C297 1.561 . S
C300 C297 1.526 . S
C300 C301 1.396 1_545 S
C300 C305 1.390 . S
C301 C295 1.465 . S
C301 C300 1.396 1_565 S
C301 C302 1.399 . S
C302 H288 0.929 . S
C302 C301 1.399 . S
C302 C303 1.385 . S
C303 H289 0.931 . S
C303 C302 1.385 . S
C303 C304 1.389 . S
C304 C303 1.389 . S
C304 C305 1.387 1_565 S
C305 H290 0.930 . S
C305 C300 1.390 . S
C305 C304 1.387 1_545 S
H306 C318 0.930 . S
H307 C320 0.930 . S
H308 C321 0.930 . S
H309 C325 0.959 . S
H310 C325 0.959 . S
H311 C325 0.961 . S
H312 C326 0.960 . S
H313 C326 0.961 . S
H314 C326 0.959 . S
H315 C329 0.929 . S
H316 C330 0.931 . S
H317 C332 0.930 . S
C318 H306 0.930 . S
C318 C319 1.399 . S
C318 C323 1.399 . S
C319 C318 1.399 . S
C319 C320 1.376 . S
C320 H307 0.930 . S
C320 C319 1.376 . S
C320 C321 1.388 . S
C321 H308 0.930 . S
C321 C320 1.388 . S
C321 C322 1.390 . S
C322 C321 1.390 . S
C322 C323 1.394 . S
C322 C328 1.465 . S
C323 C318 1.399 . S
C323 C322 1.394 . S
C323 C324 1.516 . S
C324 C323 1.516 . S
C324 C325 1.502 . S
C324 C326 1.561 . S
C324 C327 1.526 . S
C325 H309 0.959 . S
C325 H310 0.959 . S
C325 H311 0.961 . S
C325 C324 1.502 . S
C326 H312 0.960 . S
C326 H313 0.961 . S
C326 H314 0.959 . S
C326 C324 1.561 . S
C327 C324 1.526 . S
C327 C328 1.396 . S
C327 C332 1.390 . S
C328 C322 1.465 . S
C328 C327 1.396 . S
C328 C329 1.399 . S
C329 H315 0.929 . S
C329 C328 1.399 . S
C329 C330 1.385 . S
C330 H316 0.931 . S
C330 C329 1.385 . S
C330 C331 1.389 . S
C331 C330 1.389 . S
C331 C332 1.387 . S
C332 H317 0.930 . S
C332 C327 1.390 . S
C332 C331 1.387 . S
H333 C345 0.930 . S
H334 C347 0.930 . S
H335 C348 0.930 . S
H336 C352 0.959 . S
H337 C352 0.959 . S
H338 C352 0.961 . S
H339 C353 0.960 . S
H340 C353 0.961 . S
H341 C353 0.959 . S
H342 C356 0.929 . S
H343 C357 0.931 . S
H344 C359 0.930 . S
C345 H333 0.930 . S
C345 C346 1.399 1_556 S
C345 C350 1.399 . S
C346 C345 1.399 1_554 S
C346 C347 1.376 . S
C347 H334 0.930 . S
C347 C346 1.376 . S
C347 C348 1.388 . S
C348 H335 0.930 . S
C348 C347 1.388 . S
C348 C349 1.390 . S
C349 C348 1.390 . S
C349 C350 1.394 1_554 S
C349 C355 1.465 . S
C350 C345 1.399 . S
C350 C349 1.394 1_556 S
C350 C351 1.516 . S
C351 C350 1.516 . S
C351 C352 1.502 . S
C351 C353 1.561 1_556 S
C351 C354 1.526 . S
C352 H336 0.959 . S
C352 H337 0.959 . S
C352 H338 0.961 . S
C352 C351 1.502 . S
C353 H339 0.960 . S
C353 H340 0.961 . S
C353 H341 0.959 . S
C353 C351 1.561 1_554 S
C354 C351 1.526 . S
C354 C355 1.396 1_556 S
C354 C359 1.390 . S
C355 C349 1.465 . S
C355 C354 1.396 1_554 S
C355 C356 1.399 . S
C356 H342 0.929 . S
C356 C355 1.399 . S
C356 C357 1.385 . S
C357 H343 0.931 . S
C357 C356 1.385 . S
C357 C358 1.399 . S
C358 C357 1.399 . S
C358 C359 1.381 1_554 S
C359 H344 0.930 . S
C359 C354 1.390 . S
C359 C358 1.381 1_556 S
H360 C372 0.930 . S
H361 C374 0.930 . S
H362 C375 0.930 . S
H363 C379 0.959 . S
H364 C379 0.959 . S
H365 C379 0.961 . S
H366 C380 0.960 . S
H367 C380 0.961 . S
H368 C380 0.959 . S
H369 C383 0.929 . S
H370 C384 0.931 . S
H371 C386 0.930 . S
C372 H360 0.930 . S
C372 C373 1.399 1_554 S
C372 C377 1.399 . S
C373 C372 1.399 1_556 S
C373 C374 1.376 . S
C374 H361 0.930 . S
C374 C373 1.376 . S
C374 C375 1.388 . S
C375 H362 0.930 . S
C375 C374 1.388 . S
C375 C376 1.390 . S
C376 C375 1.390 . S
C376 C377 1.394 1_556 S
C376 C382 1.465 . S
C377 C372 1.399 . S
C377 C376 1.394 1_554 S
C377 C378 1.516 . S
C378 C377 1.516 . S
C378 C379 1.502 . S
C378 C380 1.561 . S
C378 C381 1.526 . S
C379 H363 0.959 . S
C379 H364 0.959 . S
C379 H365 0.961 . S
C379 C378 1.502 . S
C380 H366 0.960 . S
C380 H367 0.961 . S
C380 H368 0.959 . S
C380 C378 1.561 . S
C381 C378 1.526 . S
C381 C382 1.396 1_554 S
C381 C386 1.390 . S
C382 C376 1.465 . S
C382 C381 1.396 1_556 S
C382 C383 1.399 . S
C383 H369 0.929 . S
C383 C382 1.399 . S
C383 C384 1.385 . S
C384 H370 0.931 . S
C384 C383 1.385 . S
C384 C385 1.389 1_556 S
C385 C384 1.389 1_554 S
C385 C386 1.387 . S
C386 H371 0.930 . S
C386 C381 1.390 . S
C386 C385 1.387 . S
H387 C399 0.930 . S
H388 C401 0.930 . S
H389 C402 0.930 . S
H390 C406 0.959 . S
H391 C406 0.959 . S
H392 C406 0.961 . S
H393 C407 0.960 . S
H394 C407 0.961 . S
H395 C407 0.959 . S
H396 C410 0.929 . S
H397 C411 0.931 . S
H398 C413 0.930 . S
C399 H387 0.930 . S
C399 C400 1.399 . S
C399 C404 1.399 . S
C400 C399 1.399 . S
C400 C401 1.376 1_556 S
C401 H388 0.930 . S
C401 C400 1.376 1_554 S
C401 C402 1.388 . S
C402 H389 0.930 . S
C402 C401 1.388 . S
C402 C403 1.390 . S
C403 C402 1.390 . S
C403 C404 1.394 1_554 S
C403 C409 1.465 . S
C404 C399 1.399 . S
C404 C403 1.394 1_556 S
C404 C405 1.516 . S
C405 C404 1.516 . S
C405 C406 1.502 . S
C405 C407 1.561 . S
C405 C408 1.526 . S
C406 H390 0.959 . S
C406 H391 0.959 . S
C406 H392 0.961 . S
C406 C405 1.502 . S
C407 H393 0.960 . S
C407 H394 0.961 . S
C407 H395 0.959 . S
C407 C405 1.561 . S
C408 C405 1.526 . S
C408 C409 1.396 1_556 S
C408 C413 1.390 . S
C409 C403 1.465 . S
C409 C408 1.396 1_554 S
C409 C410 1.399 . S
C410 H396 0.929 . S
C410 C409 1.399 . S
C410 C411 1.385 . S
C411 H397 0.931 . S
C411 C410 1.385 . S
C411 C412 1.389 1_554 S
C412 C411 1.389 1_556 S
C412 C413 1.387 . S
C413 H398 0.930 . S
C413 C408 1.390 . S
C413 C412 1.387 . S
H414 C426 0.930 . S
H415 C428 0.930 . S
H416 C429 0.930 . S
H417 C433 0.959 1_554 S
H418 C433 0.959 . S
H419 C433 0.961 . S
H420 C434 0.960 . S
H421 C434 0.961 . S
H422 C434 0.959 . S
H423 C437 0.929 . S
H424 C438 0.931 . S
H425 C440 0.930 . S
C426 H414 0.930 . S
C426 C427 1.399 . S
C426 C431 1.399 . S
C427 C426 1.399 . S
C427 C428 1.376 1_556 S
C428 H415 0.930 . S
C428 C427 1.376 1_554 S
C428 C429 1.388 . S
C429 H416 0.930 . S
C429 C428 1.388 . S
C429 C430 1.390 . S
C430 C429 1.390 . S
C430 C431 1.394 1_554 S
C430 C436 1.465 . S
C431 C426 1.399 . S
C431 C430 1.394 1_556 S
C431 C432 1.516 . S
C432 C431 1.516 . S
C432 C433 1.502 . S
C432 C434 1.561 . S
C432 C435 1.526 . S
C433 H417 0.959 1_556 S
C433 H418 0.959 . S
C433 H419 0.961 . S
C433 C432 1.502 . S
C434 H420 0.960 . S
C434 H421 0.961 . S
C434 H422 0.959 . S
C434 C432 1.561 . S
C435 C432 1.526 . S
C435 C436 1.396 1_556 S
C435 C440 1.390 . S
C436 C430 1.465 . S
C436 C435 1.396 1_554 S
C436 C437 1.399 . S
C437 H423 0.929 . S
C437 C436 1.399 . S
C437 C438 1.385 . S
C438 H424 0.931 . S
C438 C437 1.385 . S
C438 C439 1.389 . S
C439 C438 1.389 . S
C439 C440 1.387 1_554 S
C440 H425 0.930 . S
C440 C435 1.390 . S
C440 C439 1.387 1_556 S
H441 C453 0.930 . S
H442 C455 0.930 . S
H443 C456 0.930 . S
H444 C460 0.959 . S
H445 C460 0.959 . S
H446 C460 0.961 . S
H447 C461 0.960 . S
H448 C461 0.961 . S
H449 C461 0.959 . S
H450 C464 0.929 . S
H451 C465 0.931 . S
H452 C467 0.930 . S
C453 H441 0.930 . S
C453 C454 1.399 . S
C453 C458 1.399 . S
C454 C453 1.399 . S
C454 C455 1.376 1_556 S
C455 H442 0.930 . S
C455 C454 1.376 1_554 S
C455 C456 1.388 . S
C456 H443 0.930 . S
C456 C455 1.388 . S
C456 C457 1.390 . S
C457 C456 1.390 . S
C457 C458 1.394 1_554 S
C457 C463 1.465 . S
C458 C453 1.399 . S
C458 C457 1.394 1_556 S
C458 C459 1.516 . S
C459 C458 1.516 . S
C459 C460 1.502 . S
C459 C461 1.561 . S
C459 C462 1.526 . S
C460 H444 0.959 . S
C460 H445 0.959 . S
C460 H446 0.961 . S
C460 C459 1.502 . S
C461 H447 0.960 . S
C461 H448 0.961 . S
C461 H449 0.959 . S
C461 C459 1.561 . S
C462 C459 1.526 . S
C462 C463 1.396 1_556 S
C462 C467 1.390 . S
C463 C457 1.465 . S
C463 C462 1.396 1_554 S
C463 C464 1.399 . S
C464 H450 0.929 . S
C464 C463 1.399 . S
C464 C465 1.385 . S
C465 H451 0.931 . S
C465 C464 1.385 . S
C465 C466 1.389 . S
C466 C465 1.389 . S
C466 C467 1.387 1_554 S
C467 H452 0.930 . S
C467 C462 1.390 . S
C467 C466 1.387 1_556 S
H468 C480 0.930 . S
H469 C482 0.930 . S
H470 C483 0.930 . S
H471 C487 0.959 . S
H472 C487 0.959 . S
H473 C487 0.961 . S
H474 C488 0.960 . S
H475 C488 0.961 . S
H476 C488 0.959 . S
H477 C491 0.929 . S
H478 C492 0.931 . S
H479 C494 0.930 . S
C480 H468 0.930 . S
C480 C481 1.399 1_556 S
C480 C485 1.399 . S
C481 C480 1.399 1_554 S
C481 C482 1.376 . S
C482 H469 0.930 . S
C482 C481 1.376 . S
C482 C483 1.388 . S
C483 H470 0.930 . S
C483 C482 1.388 . S
C483 C484 1.390 . S
C484 C483 1.390 . S
C484 C485 1.394 1_554 S
C484 C490 1.465 . S
C485 C480 1.399 . S
C485 C484 1.394 1_556 S
C485 C486 1.516 . S
C486 C485 1.516 . S
C486 C487 1.502 . S
C486 C488 1.561 . S
C486 C489 1.526 . S
C487 H471 0.959 . S
C487 H472 0.959 . S
C487 H473 0.961 . S
C487 C486 1.502 . S
C488 H474 0.960 . S
C488 H475 0.961 . S
C488 H476 0.959 . S
C488 C486 1.561 . S
C489 C486 1.526 . S
C489 C490 1.396 1_556 S
C489 C494 1.390 . S
C490 C484 1.465 . S
C490 C489 1.396 1_554 S
C490 C491 1.399 . S
C491 H477 0.929 . S
C491 C490 1.399 . S
C491 C492 1.385 . S
C492 H478 0.931 . S
C492 C491 1.385 . S
C492 C493 1.389 . S
C493 C492 1.389 . S
C493 C494 1.387 1_554 S
C494 H479 0.930 . S
C494 C489 1.390 . S
C494 C493 1.387 1_556 S
C265 C63 1.489 . S
C277 C74 1.464 . S
C292 C147 1.540 . S
C304 C158 1.498 . S
C319 C242 1.504 . S
C331 C231 1.440 . S
C346 C67 2.306 . S
C358 C224 2.301 1_554 S
C373 C153 0.871 . S
C385 C69 0.672 1_554 S
C400 C151 1.597 . S
C412 C237 1.425 1_556 S
C427 C56 2.282 . S
C439 C235 2.314 . S
C454 C58 0.688 1_556 S
C466 C142 0.892 . S
C481 C226 1.536 1_554 S
C493 C140 1.619 . S
