# Generated by pormake.
# Topology irl, (4)-cn, num edge types: 1
# Building blocks:
#     Node 0, Type 0, BuildingBlock: QUQFOY_clean_sbu_3, # of connection points: 4
#     Node 1, Type 0, BuildingBlock: QUQFOY_clean_sbu_3, # of connection points: 4
#     Node 2, Type 0, BuildingBlock: QUQFOY_clean_sbu_3, # of connection points: 4
#     Node 3, Type 0, BuildingBlock: QUQFOY_clean_sbu_3, # of connection points: 4
#     Node 4, Type 0, BuildingBlock: QUQFOY_clean_sbu_3, # of connection points: 4
#     Node 5, Type 0, BuildingBlock: QUQFOY_clean_sbu_3, # of connection points: 4
#     Node 6, Type 0, BuildingBlock: QUQFOY_clean_sbu_3, # of connection points: 4
#     Node 7, Type 0, BuildingBlock: QUQFOY_clean_sbu_3, # of connection points: 4
#     Edge 8, Type (0, 0), BuildingBlock: FUNLAD_clean_linker_0, # of connection points: 2
#     Edge 9, Type (0, 0), BuildingBlock: FUNLAD_clean_linker_0, # of connection points: 2
#     Edge 10, Type (0, 0), BuildingBlock: FUNLAD_clean_linker_0, # of connection points: 2
#     Edge 11, Type (0, 0), BuildingBlock: FUNLAD_clean_linker_0, # of connection points: 2
#     Edge 12, Type (0, 0), BuildingBlock: FUNLAD_clean_linker_0, # of connection points: 2
#     Edge 13, Type (0, 0), BuildingBlock: FUNLAD_clean_linker_0, # of connection points: 2
#     Edge 14, Type (0, 0), BuildingBlock: FUNLAD_clean_linker_0, # of connection points: 2
#     Edge 15, Type (0, 0), BuildingBlock: FUNLAD_clean_linker_0, # of connection points: 2
#     Edge 16, Type (0, 0), BuildingBlock: FUNLAD_clean_linker_0, # of connection points: 2
#     Edge 17, Type (0, 0), BuildingBlock: FUNLAD_clean_linker_0, # of connection points: 2
#     Edge 18, Type (0, 0), BuildingBlock: FUNLAD_clean_linker_0, # of connection points: 2
#     Edge 19, Type (0, 0), BuildingBlock: FUNLAD_clean_linker_0, # of connection points: 2
#     Edge 20, Type (0, 0), BuildingBlock: FUNLAD_clean_linker_0, # of connection points: 2
#     Edge 21, Type (0, 0), BuildingBlock: FUNLAD_clean_linker_0, # of connection points: 2
#     Edge 22, Type (0, 0), BuildingBlock: FUNLAD_clean_linker_0, # of connection points: 2
#     Edge 23, Type (0, 0), BuildingBlock: FUNLAD_clean_linker_0, # of connection points: 2
# Relax obj value: 0.062
# Max RMSD: 0.124
# Mean RMSD: 0.124
data_MOF--net-irl--node1-QUQFOY_clean_sbu_3--edge1-FUNLAD_clean_linker_0
_symmetry_space_group_name_H-M    P1
_symmetry_Int_Tables_number       1
_symmetry_cell_setting            triclinic
loop_
_symmetry_equiv_pos_as_xyz
'x, y, z'
_cell_length_a     41.036994
_cell_length_b     52.13399
_cell_length_c     33.886358
_cell_angle_alpha  90.129746
_cell_angle_beta   90.062421
_cell_angle_gamma 89.140832
loop_
_atom_site_label
_atom_site_type_symbol
_atom_site_fract_x
_atom_site_fract_y
_atom_site_fract_z
_atom_type_partial_charge
C0 C 0.98353 0.19484 0.92001 0.0
O1 O 0.95822 0.19274 0.9412 0.0
Cd2 Cd 0.9634 0.18075 0.00968 0.0
O3 O 0.01165 0.1908 0.93467 0.0
Cd4 Cd 0.03937 0.1799 -0.00384 0.0
C5 C 0.00257 0.12229 0.00087 0.0
O6 O 0.00491 0.20732 0.03822 0.0
O7 O 0.04041 0.18268 0.06711 0.0
O8 O 0.07774 0.21001 0.96919 0.0
C9 C 0.01915 0.20046 0.06982 0.0
O10 O 0.97692 0.13491 0.01031 0.0
C11 C 0.10315 0.19778 -0.02003 0.0
O12 O 0.02864 0.13388 -0.00813 0.0
O13 O 0.09905 0.17657 -0.00244 0.0
C14 C 0.98821 0.81598 0.90687 0.0
O15 O 0.01436 0.81699 0.92684 0.0
Cd16 Cd 0.01278 0.82747 -0.00372 0.0
O17 O 0.96078 0.81954 0.9235 0.0
Cd18 Cd 0.93602 0.82748 -0.01222 0.0
C19 C 0.97173 0.8855 -0.00593 0.0
O20 O 0.97316 0.80053 0.02713 0.0
O21 O 0.93812 0.82434 0.05855 0.0
O22 O 0.8981 0.79538 0.96595 0.0
C23 C 0.96026 0.80714 0.0597 0.0
O24 O -0.00191 0.87298 0.00054 0.0
C25 C 0.87246 0.80819 0.97413 0.0
O26 O 0.94542 0.87381 -0.01372 0.0
O27 O 0.87624 0.83054 -0.01164 0.0
C28 C 0.97674 0.80782 0.54676 0.0
O29 O 0.95247 0.80875 0.52353 0.0
Cd30 Cd 0.96128 0.8211 0.45568 0.0
O31 O 0.00509 0.813 0.53438 0.0
Cd32 Cd 0.03709 0.82458 0.47692 0.0
C33 C -0.0051 0.88087 0.46928 0.0
O34 O 0.0077 0.79702 0.43134 0.0
O35 O 0.04352 0.82224 0.40615 0.0
O36 O 0.07274 0.79301 0.50671 0.0
C37 C 0.02327 0.80439 0.40116 0.0
O38 O 0.97122 0.86714 0.45794 0.0
C39 C 0.09893 0.80526 0.50244 0.0
O40 O 0.0218 0.87048 0.4801 0.0
O41 O 0.09658 0.82736 0.48671 0.0
C42 C -0.00601 0.18914 0.5596 0.0
O43 O 0.01928 0.18968 0.5381 0.0
Cd44 Cd 0.01495 0.17904 0.46898 0.0
O45 O 0.96638 0.18442 0.54447 0.0
Cd46 Cd 0.93832 0.17642 0.4824 0.0
C47 C 0.97881 0.11959 0.47486 0.0
O48 O 0.9713 0.20446 0.44136 0.0
O49 O 0.93723 0.1797 0.41152 0.0
O50 O 0.90224 0.20891 0.50907 0.0
C51 C 0.95766 0.19765 0.40944 0.0
O52 O 0.00348 0.13324 0.46711 0.0
C53 C 0.87584 0.19762 0.50135 0.0
O54 O 0.95147 0.1301 0.48363 0.0
O55 O 0.87821 0.1755 0.48552 0.0
C56 C 0.49543 0.69117 0.91194 0.0
O57 O 0.47043 0.68904 0.93364 0.0
Cd58 Cd 0.47582 0.67327 0.00041 0.0
O59 O 0.52356 0.68574 0.92552 0.0
Cd60 Cd 0.5508 0.6717 -0.0138 0.0
C61 C 0.51253 0.61478 -0.01695 0.0
O62 O 0.51815 0.69581 0.03504 0.0
O63 O 0.55266 0.66742 0.05697 0.0
O64 O 0.58887 0.70455 0.9685 0.0
C65 C 0.53238 0.68536 0.06436 0.0
O66 O 0.48747 0.62744 -0.00556 0.0
C67 C 0.61436 0.69064 0.97159 0.0
O68 O 0.53903 0.62619 0.97537 0.0
O69 O 0.61045 0.66733 -0.01874 0.0
C70 C 0.48496 0.30209 0.91009 0.0
O71 O 0.50956 0.30393 0.93261 0.0
Cd72 Cd 0.50263 0.32064 -0.00114 0.0
O73 O 0.45678 0.30846 0.92251 0.0
Cd74 Cd 0.4275 0.32404 -0.01929 0.0
C75 C 0.46839 0.37985 0.97914 0.0
O76 O 0.45804 0.2991 0.03055 0.0
O77 O 0.42255 0.32709 0.05136 0.0
O78 O 0.38901 0.29378 0.95413 0.0
C79 C 0.44291 0.30936 0.05938 0.0
O80 O 0.49265 0.36672 -0.00826 0.0
C81 C 0.3638 0.30742 0.96095 0.0
O82 O 0.4417 0.36901 0.97035 0.0
O83 O 0.36805 0.32926 0.97673 0.0
C84 C 0.48624 0.30928 0.55161 0.0
O85 O 0.46169 0.31053 0.52884 0.0
Cd86 Cd 0.46845 0.32719 0.46274 0.0
O87 O 0.51421 0.31531 0.53896 0.0
Cd88 Cd 0.54343 0.32856 0.47994 0.0
C89 C 0.50334 0.38554 0.48326 0.0
O90 O 0.5126 0.30535 0.4294 0.0
O91 O 0.54673 0.33381 0.40934 0.0
O92 O 0.57811 0.29321 0.49919 0.0
C93 C 0.52708 0.31609 0.40083 0.0
O94 O 0.47927 0.3728 0.47045 0.0
C95 C 0.60487 0.30497 0.49729 0.0
O96 O 0.53019 0.37427 0.4921 0.0
O97 O 0.60339 0.32858 0.48778 0.0
C98 C 0.49317 0.6943 0.552 0.0
O99 O 0.51658 0.69079 0.52802 0.0
Cd100 Cd 0.50594 0.67813 0.46025 0.0
O101 O 0.46396 0.69107 0.54088 0.0
Cd102 Cd 0.43148 0.67955 0.48347 0.0
C103 C 0.46766 0.62099 0.47566 0.0
O104 O 0.46166 0.70303 0.43282 0.0
O105 O 0.42406 0.67731 0.41294 0.0
O106 O 0.39758 0.71454 0.50696 0.0
C107 C 0.44508 0.69398 0.40443 0.0
O108 O 0.49155 0.63305 0.4611 0.0
C109 C 0.37088 0.70264 0.50602 0.0
O110 O 0.44303 0.63298 0.48999 0.0
O111 O 0.37216 0.67926 0.49516 0.0
C112 C 0.00031 0.92678 0.00721 0.0
C113 C 0.97201 0.91392 -0.00456 0.0
C114 C 0.00093 0.95355 0.00832 0.0
C115 C 0.97332 0.96819 -0.0028 0.0
C116 C 0.9449 0.95532 -0.01397 0.0
C117 C 0.94423 0.9285 -0.01493 0.0
C118 C 0.97286 0.99675 -0.00194 0.0
C119 C -1e-05 0.01106 -0.003 0.0
C120 C -0.00028 0.03963 -0.00193 0.0
C121 C 0.02762 0.0526 -0.01448 0.0
C122 C 0.02866 0.07939 -0.01354 0.0
C123 C 0.00179 0.09387 0.00014 0.0
H124 H 0.95144 0.04502 0.02365 0.0
C125 C 0.974 0.0809 0.01317 0.0
C126 C 0.97301 0.05412 0.01237 0.0
H127 H 0.95298 0.09141 0.02432 0.0
H128 H 0.02204 0.91618 0.01589 0.0
H129 H 0.02297 0.96253 0.01855 0.0
H130 H 0.92315 0.96605 0.97774 0.0
H131 H 0.92198 0.91923 0.97601 0.0
H132 H 0.94909 0.00615 -0.00212 0.0
H133 H 0.02358 0.00165 -0.00639 0.0
H134 H 0.0487 0.04197 0.97473 0.0
H135 H 0.0505 0.08874 0.9763 0.0
C136 C 0.01508 0.92518 0.48472 0.0
C137 C -0.00953 0.90919 0.47031 0.0
C138 C 0.01031 0.95184 0.48614 0.0
C139 C 0.98084 0.9631 0.47283 0.0
C140 C 0.95626 0.94705 0.45875 0.0
C141 C 0.96101 0.92049 0.45737 0.0
C142 C 0.97429 0.9913 0.47396 0.0
C143 C -0.00212 0.00899 0.47503 0.0
C144 C -0.00846 0.03722 0.47466 0.0
C145 C 0.01704 0.05333 0.46366 0.0
C146 C 0.01269 0.07993 0.46338 0.0
C147 C 0.98268 0.09123 0.47435 0.0
H148 H 0.94138 0.03688 0.4956 0.0
C149 C 0.95707 0.07517 0.4855 0.0
C150 C 0.96145 0.04846 0.48582 0.0
H151 H 0.93375 0.08323 0.49446 0.0
H152 H 0.03793 0.91712 0.4953 0.0
H153 H 0.02956 0.96336 0.49837 0.0
H154 H 0.93326 0.95509 0.44855 0.0
H155 H 0.94141 0.90882 0.44617 0.0
H156 H 0.94902 0.99753 0.47158 0.0
H157 H 0.02321 0.00272 0.47404 0.0
H158 H 0.04051 0.04531 0.45514 0.0
H159 H 0.03305 0.09163 0.45468 0.0
C160 C 0.48178 0.57389 -0.01052 0.0
C161 C 0.51056 0.58652 0.97904 0.0
C162 C 0.47975 0.54725 -0.01348 0.0
C163 C 0.50639 0.53253 0.97261 0.0
C164 C 0.53518 0.54513 0.96229 0.0
C165 C 0.53725 0.57184 0.96535 0.0
C166 C 0.50565 0.50402 0.97064 0.0
C167 C 0.47788 0.49051 0.96907 0.0
C168 C 0.4768 0.46199 0.97011 0.0
C169 C 0.4482 0.44978 0.95789 0.0
C170 C 0.44549 0.42312 0.96035 0.0
C171 C 0.47134 0.40805 0.9753 0.0
H172 H 0.52477 0.45542 -0.00397 0.0
C173 C 0.50002 0.42025 -0.01259 0.0
C174 C 0.50269 0.44688 -0.01495 0.0
H175 H 0.52033 0.40928 -0.00062 0.0
H176 H 0.46083 0.58454 0.00051 0.0
H177 H 0.45749 0.53838 -0.00383 0.0
H178 H 0.55621 0.53428 0.95191 0.0
H179 H 0.55982 0.58092 0.95715 0.0
H180 H 0.52901 0.494 0.96972 0.0
H181 H 0.45469 0.50063 0.96624 0.0
H182 H 0.42774 0.46092 0.9466 0.0
H183 H 0.42302 0.41437 0.95081 0.0
C184 C 0.47367 0.42661 0.46847 0.0
C185 C 0.49948 0.41371 0.48774 0.0
C186 C 0.46939 0.45308 0.47252 0.0
C187 C 0.49068 0.46733 0.49619 0.0
C188 C 0.51608 0.45447 0.51614 0.0
C189 C 0.52072 0.42792 0.51159 0.0
C190 C 0.4865 0.49555 0.50049 0.0
C191 C 0.4771 0.51043 0.47001 0.0
C192 C 0.47436 0.53873 0.47266 0.0
C193 C 0.48518 0.55341 0.44081 0.0
C194 C 0.48294 0.58012 0.44206 0.0
C195 C 0.46878 0.59269 0.47464 0.0
H196 H 0.45108 0.54022 0.53006 0.0
C197 C 0.457 0.57802 0.50614 0.0
C198 C 0.46016 0.5512 0.50541 0.0
H199 H 0.44605 0.58731 0.53161 0.0
H200 H 0.45676 0.41626 0.44999 0.0
H201 H 0.44911 0.46232 0.45747 0.0
H202 H 0.53267 0.46503 0.53477 0.0
H203 H 0.54064 0.41852 0.52709 0.0
H204 H 0.49331 0.50439 0.52833 0.0
H205 H 0.47376 0.50181 0.44107 0.0
H206 H 0.49591 0.54419 0.41513 0.0
H207 H 0.49204 0.59098 0.41728 0.0
C208 C 0.03049 0.20655 0.14126 0.0
C209 C 0.0107 0.21178 0.10839 0.0
C210 C 0.02129 0.21502 0.17866 0.0
C211 C -0.00801 0.22897 0.18403 0.0
C212 C 0.97283 0.23506 0.15089 0.0
C213 C 0.98223 0.22672 0.11328 0.0
C214 C 0.9785 0.2336 0.22401 0.0
C215 C -0.00294 0.23336 0.25677 0.0
C216 C 0.98381 0.22782 0.29645 0.0
C217 C 0.00248 0.23366 0.32994 0.0
C218 C -0.00659 0.2247 0.36714 0.0
C219 C 0.96578 0.20936 0.37126 0.0
H220 H 0.94078 0.20772 0.27597 0.0
C221 C 0.9465 0.20427 0.33804 0.0
C222 C 0.95536 0.21337 0.30104 0.0
H223 H 0.92498 0.19258 0.34036 0.0
H224 H 0.05267 0.19517 0.13834 0.0
H225 H 0.03634 0.2092 0.20339 0.0
H226 H 0.94997 0.2455 0.15429 0.0
H227 H 0.96654 0.23106 0.08838 0.0
H228 H 0.95214 0.23483 0.22662 0.0
H229 H 0.02334 0.2349 0.25426 0.0
H230 H 0.02471 0.24446 0.32713 0.0
H231 H 0.00871 0.22893 0.39233 0.0
C232 C 0.03665 0.80084 0.32965 0.0
C233 C 0.01717 0.79361 0.36164 0.0
C234 C 0.02927 0.79269 0.29153 0.0
C235 C 0.00221 0.77702 0.28459 0.0
C236 C 0.98357 0.76892 0.31684 0.0
C237 C -0.00892 0.777 0.35509 0.0
C238 C -0.01011 0.77232 0.24411 0.0
C239 C 0.00817 0.77514 0.2115 0.0
C240 C -0.00635 0.77974 0.17205 0.0
C241 C 0.01252 0.77529 0.1381 0.0
C242 C 0.0012 0.78324 0.10106 0.0
C243 C 0.9711 0.79623 0.09763 0.0
H244 H 0.94805 0.79642 0.19362 0.0
C245 C 0.95185 0.79999 0.13137 0.0
C246 C 0.96294 0.79185 0.16815 0.0
H247 H 0.92849 0.8099 0.12957 0.0
H248 H 0.05703 0.81355 0.33383 0.0
H249 H 0.0438 0.8 0.26756 0.0
H250 H 0.96241 0.75707 0.31229 0.0
H251 H 0.9757 0.77104 0.37925 0.0
H252 H 0.96402 0.76859 0.24108 0.0
H253 H 0.0345 0.77618 0.21394 0.0
H254 H 0.03644 0.76633 0.1404 0.0
H255 H 0.01655 0.78015 0.07545 0.0
C256 C 0.00023 0.79348 0.61075 0.0
C257 C 0.9728 0.80129 0.58878 0.0
C258 C -0.00197 0.78998 0.65135 0.0
C259 C 0.96841 0.79465 0.67103 0.0
C260 C 0.94048 0.80085 0.64878 0.0
C261 C 0.94262 0.80417 0.60789 0.0
C262 C 0.96627 0.79418 0.71468 0.0
C263 C -0.00836 0.80049 0.73795 0.0
C264 C -0.01012 0.80292 0.78154 0.0
C265 C 0.01911 0.80346 0.80317 0.0
C266 C 0.01875 0.80735 0.84398 0.0
C267 C -0.01092 0.81093 0.86395 0.0
H268 H 0.9371 0.80687 0.78626 0.0
C269 C 0.95982 0.81019 0.84236 0.0
C270 C 0.96017 0.80634 0.80165 0.0
H271 H 0.93649 0.813 0.85677 0.0
H272 H 0.02367 0.79046 0.59667 0.0
H273 H 0.01973 0.78394 0.66718 0.0
H274 H 0.91725 0.80415 0.66323 0.0
H275 H 0.92104 0.81 0.5916 0.0
H276 H 0.94272 0.79005 0.72743 0.0
H277 H 0.0149 0.80495 0.72457 0.0
H278 H 0.04236 0.80109 0.78839 0.0
H279 H 0.04172 0.80784 0.85975 0.0
C280 C 0.00911 0.20763 0.85652 0.0
C281 C 0.98093 0.20132 0.87774 0.0
C282 C 0.00768 0.21167 0.81595 0.0
C283 C 0.97805 0.20918 0.79558 0.0
C284 C 0.94956 0.20429 0.81705 0.0
C285 C 0.95096 0.20033 0.85782 0.0
C286 C 0.97619 0.21061 0.75197 0.0
C287 C 0.00136 0.20386 0.72838 0.0
C288 C -0.00129 0.20168 0.68486 0.0
C289 C 0.02725 0.2022 0.662 0.0
C290 C 0.0259 0.19848 0.62116 0.0
C291 C -0.00404 0.19395 0.60251 0.0
H292 H 0.94633 0.19572 0.68255 0.0
C293 C 0.96743 0.19354 0.62541 0.0
C294 C 0.96877 0.19724 0.66607 0.0
H295 H 0.94393 0.18995 0.61208 0.0
H296 H 0.03249 0.20912 0.87117 0.0
H297 H 0.0299 0.21655 0.80075 0.0
H298 H 0.92635 0.2026 0.80207 0.0
H299 H 0.9288 0.19573 0.87343 0.0
H300 H 0.95272 0.21574 0.73925 0.0
H301 H 0.02479 0.19872 0.74123 0.0
H302 H 0.05068 0.20529 0.67583 0.0
H303 H 0.04833 0.19885 0.60434 0.0
C304 C 0.49876 0.70926 0.11458 0.0
C305 C 0.52563 0.69333 0.10541 0.0
C306 C 0.49167 0.71545 0.15388 0.0
C307 C 0.51148 0.70588 0.18461 0.0
C308 C 0.53907 0.69092 0.17518 0.0
C309 C 0.54594 0.68452 0.13607 0.0
C310 C 0.50366 0.71015 0.22685 0.0
C311 C 0.47288 0.71221 0.24028 0.0
C312 C 0.4649 0.71039 0.28284 0.0
C313 C 0.43595 0.69838 0.29375 0.0
C314 C 0.42922 0.6936 0.33337 0.0
C315 C 0.45111 0.70113 0.36298 0.0
H316 H 0.5082 0.72906 0.30515 0.0
C317 C 0.47921 0.71449 0.3523 0.0
C318 C 0.48611 0.71905 0.31254 0.0
H319 H 0.49634 0.72076 0.37455 0.0
H320 H 0.48287 0.71652 0.09149 0.0
H321 H 0.47068 0.72761 0.16007 0.0
H322 H 0.55484 0.68346 0.19826 0.0
H323 H 0.56704 0.67245 0.12991 0.0
H324 H 0.52358 0.70811 0.24781 0.0
H325 H 0.45273 0.71165 0.2195 0.0
H326 H 0.41907 0.69173 0.27147 0.0
H327 H 0.40714 0.68354 0.34073 0.0
C328 C 0.49574 0.2922 0.3493 0.0
C329 C 0.52132 0.30858 0.35939 0.0
C330 C 0.48955 0.28627 0.30973 0.0
C331 C 0.50896 0.29658 0.27962 0.0
C332 C 0.53533 0.31203 0.28994 0.0
C333 C 0.54131 0.31814 0.32935 0.0
C334 C 0.50179 0.29261 0.23716 0.0
C335 C 0.47125 0.29019 0.22332 0.0
C336 C 0.46337 0.29232 0.18075 0.0
C337 C 0.43395 0.30437 0.16988 0.0
C338 C 0.4271 0.30937 0.13031 0.0
C339 C 0.44926 0.30195 0.1007 0.0
H340 H 0.50751 0.27391 0.15847 0.0
C341 C 0.47789 0.28856 0.11129 0.0
C342 C 0.48499 0.28387 0.15106 0.0
H343 H 0.49527 0.28245 0.08901 0.0
H344 H 0.48014 0.28433 0.37187 0.0
H345 H 0.46955 0.27371 0.30286 0.0
H346 H 0.55078 0.32007 0.26734 0.0
H347 H 0.56146 0.33059 0.33622 0.0
H348 H 0.5217 0.29517 0.21649 0.0
H349 H 0.45094 0.29026 0.24386 0.0
H350 H 0.41678 0.31087 0.19216 0.0
H351 H 0.40463 0.31945 0.12298 0.0
C352 C 0.46078 0.28793 0.84622 0.0
C353 C 0.4886 0.29374 0.86858 0.0
C354 C 0.46328 0.28281 0.80592 0.0
C355 C 0.49368 0.28371 0.78694 0.0
C356 C 0.52173 0.28792 0.80973 0.0
C357 C 0.51926 0.29294 0.8502 0.0
C358 C 0.49689 0.2816 0.74339 0.0
C359 C 0.47286 0.28873 0.71829 0.0
C360 C 0.47711 0.29116 0.6749 0.0
C361 C 0.44926 0.29296 0.65081 0.0
C362 C 0.45204 0.29805 0.61043 0.0
C363 C 0.48281 0.30166 0.59342 0.0
H364 H 0.53007 0.29365 0.67487 0.0
C365 C 0.51071 0.2992 0.61733 0.0
C366 C 0.50795 0.29412 0.65754 0.0
H367 H 0.53485 0.30187 0.60523 0.0
H368 H 0.43684 0.28781 0.85968 0.0
H369 H 0.44125 0.27848 0.78983 0.0
H370 H 0.54552 0.28838 0.79592 0.0
H371 H 0.54117 0.29714 0.8667 0.0
H372 H 0.52062 0.27588 0.73205 0.0
H373 H 0.44922 0.29449 0.7299 0.0
H374 H 0.42518 0.29096 0.66342 0.0
H375 H 0.43007 0.29984 0.59285 0.0
C376 C 0.51999 0.70588 0.84864 0.0
C377 C 0.49225 0.69878 0.87009 0.0
C378 C 0.51794 0.71078 0.80823 0.0
C379 C 0.4881 0.70827 0.78816 0.0
C380 C 0.46011 0.70236 0.81005 0.0
C381 C 0.46211 0.6977 0.8506 0.0
C382 C 0.48508 0.71084 0.74455 0.0
C383 C 0.51056 0.7097 0.71934 0.0
C384 C 0.5068 0.70867 0.67566 0.0
C385 C 0.5326 0.69863 0.65278 0.0
C386 C 0.52891 0.69496 0.61211 0.0
C387 C 0.49921 0.70116 0.59364 0.0
H388 H 0.45796 0.72552 0.67235 0.0
C389 C 0.47409 0.71255 0.61604 0.0
C390 C 0.47792 0.71654 0.65647 0.0
H391 H 0.45115 0.71808 0.6024 0.0
H392 H 0.54349 0.70736 0.86299 0.0
H393 H 0.53991 0.71631 0.79314 0.0
H394 H 0.4367 0.7006 0.79555 0.0
H395 H 0.44028 0.69239 0.86634 0.0
H396 H 0.46047 0.71152 0.73292 0.0
H397 H 0.53507 0.70709 0.7307 0.0
H398 H 0.55532 0.69275 0.66662 0.0
H399 H 0.54875 0.68626 0.59552 0.0
C400 C 0.30474 0.30456 0.9772 0.0
C401 C 0.3311 0.29742 0.95303 0.0
C402 C 0.27476 0.29253 0.97293 0.0
C403 C 0.27055 0.27364 0.94379 0.0
C404 C 0.2963 0.2676 0.91813 0.0
C405 C 0.32656 0.27909 0.92314 0.0
C406 C 0.23978 0.25949 0.94076 0.0
C407 C 0.22612 0.24908 0.97286 0.0
C408 C 0.1956 0.23439 0.97136 0.0
C409 C 0.19114 0.21428 -0.00183 0.0
C410 C 0.16157 0.20139 -0.00042 0.0
C411 C 0.13567 0.20889 0.97486 0.0
H412 H 0.17261 0.25702 0.92508 0.0
C413 C 0.14032 0.22872 0.94752 0.0
C414 C 0.1701 0.24126 0.94558 0.0
H415 H 0.1207 0.23493 0.9282 0.0
H416 H 0.30769 0.31861 0.0005 0.0
H417 H 0.25497 0.29774 -0.00735 0.0
H418 H 0.2934 0.25321 0.89533 0.0
H419 H 0.34654 0.27339 0.904 0.0
H420 H 0.22972 0.25593 0.91162 0.0
H421 H 0.23849 0.25051 0.00118 0.0
H422 H 0.21043 0.20877 0.01843 0.0
H423 H 0.15854 0.18631 0.02114 0.0
C424 C 0.64974 0.72681 0.95146 0.0
C425 C 0.64693 0.70162 0.96558 0.0
C426 C 0.68021 0.73808 0.94812 0.0
C427 C 0.7086 0.7245 0.95935 0.0
C428 C 0.70588 0.69897 0.97198 0.0
C429 C 0.67533 0.68762 0.97516 0.0
C430 C 0.7413 0.73632 0.9583 0.0
C431 C 0.74582 0.76185 0.9609 0.0
C432 C 0.77846 0.77375 0.96235 0.0
C433 C 0.78137 0.79829 0.97909 0.0
C434 C 0.8118 0.8098 -0.01771 0.0
C435 C 0.83993 0.797 0.9686 0.0
H436 H 0.80526 0.74291 0.93283 0.0
C437 C 0.83692 0.77282 0.95065 0.0
C438 C 0.80652 0.76136 0.94734 0.0
H439 H 0.85812 0.76261 0.93931 0.0
H440 H 0.62832 0.73796 0.94322 0.0
H441 H 0.68128 0.75739 0.93665 0.0
H442 H 0.7274 0.68795 -0.01969 0.0
H443 H 0.67394 0.66812 -0.01408 0.0
H444 H 0.76222 0.72334 0.9582 0.0
H445 H 0.72493 0.7746 0.96482 0.0
H446 H 0.7601 0.8084 -0.00954 0.0
H447 H 0.81334 0.8285 -0.00389 0.0
C448 C 0.16004 0.80428 0.50116 0.0
C449 C 0.13062 0.79329 0.51299 0.0
C450 C 0.18965 0.79121 0.50719 0.0
C451 C 0.19039 0.76697 0.52561 0.0
C452 C 0.161 0.75652 0.53859 0.0
C453 C 0.13148 0.76951 0.53245 0.0
C454 C 0.22062 0.75101 0.52876 0.0
C455 C 0.25086 0.76046 0.52601 0.0
C456 C 0.28087 0.74415 0.52462 0.0
C457 C 0.31089 0.75556 0.53267 0.0
C458 C 0.34 0.74173 0.528 0.0
C459 C 0.3398 0.71613 0.5149 0.0
H460 H 0.25813 0.70884 0.5049 0.0
C461 C 0.30979 0.70437 0.50788 0.0
C462 C 0.28059 0.71825 0.51249 0.0
H463 H 0.30888 0.68474 0.49748 0.0
H464 H 0.1601 0.82249 0.48583 0.0
H465 H 0.21155 0.79976 0.49578 0.0
H466 H 0.16076 0.73789 0.55273 0.0
H467 H 0.10921 0.76054 0.54205 0.0
H468 H 0.21757 0.73061 0.5336 0.0
H469 H 0.2541 0.78107 0.52484 0.0
H470 H 0.31189 0.77546 0.54186 0.0
H471 H 0.36274 0.75136 0.53373 0.0
C472 C 0.66606 0.30267 0.49645 0.0
C473 C 0.63605 0.29109 0.50406 0.0
C474 C 0.69519 0.2885 0.49981 0.0
C475 C 0.6948 0.2625 0.51121 0.0
C476 C 0.6648 0.25121 0.51951 0.0
C477 C 0.6358 0.26531 0.51611 0.0
C478 C 0.72467 0.24601 0.51233 0.0
C479 C 0.755 0.25521 0.51575 0.0
C480 C 0.78491 0.23876 0.51464 0.0
C481 C 0.81386 0.24861 0.53012 0.0
C482 C 0.8431 0.23475 0.52707 0.0
C483 C 0.84413 0.21071 0.50819 0.0
H484 H 0.76425 0.20634 0.48315 0.0
C485 C 0.81509 0.20047 0.49347 0.0
C486 C 0.78577 0.21439 0.49647 0.0
H487 H 0.81519 0.18212 0.47843 0.0
H488 H 0.66699 0.32243 0.48679 0.0
H489 H 0.71767 0.2978 0.4921 0.0
H490 H 0.66371 0.23124 0.52817 0.0
H491 H 0.61308 0.25578 0.52224 0.0
H492 H 0.72121 0.22542 0.51123 0.0
H493 H 0.75831 0.27561 0.52048 0.0
H494 H 0.814 0.26732 0.54412 0.0
H495 H 0.86507 0.2432 0.53873 0.0
loop_
_geom_bond_atom_site_label_1
_geom_bond_atom_site_label_2
_geom_bond_distance
_geom_bond_site_symmetry_2
_ccdc_geom_bond_type
C0 O1 1.306 1_455 S
C0 O3 1.160 . S
O1 C0 1.306 1_655 S
O1 Cd2 2.228 1_556 S
Cd2 O1 2.228 1_554 S
Cd2 O6 2.273 1_655 S
Cd2 O10 2.277 1_655 S
O3 C0 1.160 . S
O3 Cd4 2.203 1_556 S
Cd4 O3 2.203 1_554 S
Cd4 O6 2.411 . S
Cd4 O7 2.333 . S
Cd4 O8 2.352 . S
Cd4 O12 2.277 . S
Cd4 O13 2.356 . S
C5 O10 1.209 . S
C5 O12 1.226 . S
O6 Cd2 2.273 1_455 S
O6 Cd4 2.411 . S
O6 C9 1.320 . S
O7 Cd4 2.333 . S
O7 C9 1.214 . S
O8 Cd4 2.352 . S
O8 C11 1.258 . S
C9 O6 1.320 . S
C9 O7 1.214 . S
O10 Cd2 2.277 1_455 S
O10 C5 1.209 . S
C11 O8 1.258 . S
C11 O13 1.282 . S
O12 Cd4 2.277 . S
O12 C5 1.226 . S
O13 Cd4 2.356 . S
O13 C11 1.282 . S
C14 O15 1.306 1_655 S
C14 O17 1.160 . S
O15 C14 1.306 1_455 S
O15 Cd16 2.228 1_556 S
Cd16 O15 2.228 1_554 S
Cd16 O20 2.273 1_455 S
Cd16 O24 2.277 1_455 S
O17 C14 1.160 . S
O17 Cd18 2.203 1_556 S
Cd18 O17 2.203 1_554 S
Cd18 O20 2.411 . S
Cd18 O21 2.333 . S
Cd18 O22 2.352 . S
Cd18 O26 2.277 . S
Cd18 O27 2.356 . S
C19 O24 1.209 . S
C19 O26 1.226 . S
O20 Cd16 2.273 1_655 S
O20 Cd18 2.411 . S
O20 C23 1.320 . S
O21 Cd18 2.333 . S
O21 C23 1.214 . S
O22 Cd18 2.352 . S
O22 C25 1.258 . S
C23 O20 1.320 . S
C23 O21 1.214 . S
O24 Cd16 2.277 1_655 S
O24 C19 1.209 . S
C25 O22 1.258 . S
C25 O27 1.282 . S
O26 Cd18 2.277 . S
O26 C19 1.226 . S
O27 Cd18 2.356 . S
O27 C25 1.282 . S
C28 O29 1.306 1_455 S
C28 O31 1.160 . S
O29 C28 1.306 1_655 S
O29 Cd30 2.228 . S
Cd30 O29 2.228 . S
Cd30 O34 2.273 1_655 S
Cd30 O38 2.277 1_655 S
O31 C28 1.160 . S
O31 Cd32 2.203 . S
Cd32 O31 2.203 . S
Cd32 O34 2.411 . S
Cd32 O35 2.333 . S
Cd32 O36 2.352 . S
Cd32 O40 2.277 . S
Cd32 O41 2.356 . S
C33 O38 1.209 . S
C33 O40 1.226 . S
O34 Cd30 2.273 1_455 S
O34 Cd32 2.411 . S
O34 C37 1.320 . S
O35 Cd32 2.333 . S
O35 C37 1.214 . S
O36 Cd32 2.352 . S
O36 C39 1.258 . S
C37 O34 1.320 . S
C37 O35 1.214 . S
O38 Cd30 2.277 1_455 S
O38 C33 1.209 . S
C39 O36 1.258 . S
C39 O41 1.282 . S
O40 Cd32 2.277 . S
O40 C33 1.226 . S
O41 Cd32 2.356 . S
O41 C39 1.282 . S
C42 O43 1.306 1_655 S
C42 O45 1.160 . S
O43 C42 1.306 1_455 S
O43 Cd44 2.228 . S
Cd44 O43 2.228 . S
Cd44 O48 2.273 1_455 S
Cd44 O52 2.277 1_455 S
O45 C42 1.160 . S
O45 Cd46 2.203 . S
Cd46 O45 2.203 . S
Cd46 O48 2.411 . S
Cd46 O49 2.333 . S
Cd46 O50 2.352 . S
Cd46 O54 2.277 . S
Cd46 O55 2.356 . S
C47 O52 1.209 . S
C47 O54 1.226 . S
O48 Cd44 2.273 1_655 S
O48 Cd46 2.411 . S
O48 C51 1.320 . S
O49 Cd46 2.333 . S
O49 C51 1.214 . S
O50 Cd46 2.352 . S
O50 C53 1.258 . S
C51 O48 1.320 . S
C51 O49 1.214 . S
O52 Cd44 2.277 1_655 S
O52 C47 1.209 . S
C53 O50 1.258 . S
C53 O55 1.282 . S
O54 Cd46 2.277 . S
O54 C47 1.226 . S
O55 Cd46 2.356 . S
O55 C53 1.282 . S
C56 O57 1.306 . S
C56 O59 1.160 . S
O57 C56 1.306 . S
O57 Cd58 2.228 1_556 S
Cd58 O57 2.228 1_554 S
Cd58 O62 2.273 . S
Cd58 O66 2.277 . S
O59 C56 1.160 . S
O59 Cd60 2.203 1_556 S
Cd60 O59 2.203 1_554 S
Cd60 O62 2.411 . S
Cd60 O63 2.333 . S
Cd60 O64 2.352 . S
Cd60 O68 2.277 . S
Cd60 O69 2.356 . S
C61 O66 1.209 . S
C61 O68 1.226 . S
O62 Cd58 2.273 . S
O62 Cd60 2.411 . S
O62 C65 1.320 . S
O63 Cd60 2.333 . S
O63 C65 1.214 . S
O64 Cd60 2.352 . S
O64 C67 1.258 . S
C65 O62 1.320 . S
C65 O63 1.214 . S
O66 Cd58 2.277 . S
O66 C61 1.209 . S
C67 O64 1.258 . S
C67 O69 1.282 . S
O68 Cd60 2.277 . S
O68 C61 1.226 . S
O69 Cd60 2.356 . S
O69 C67 1.282 . S
C70 O71 1.306 . S
C70 O73 1.160 . S
O71 C70 1.306 . S
O71 Cd72 2.228 1_556 S
Cd72 O71 2.228 1_554 S
Cd72 O76 2.273 . S
Cd72 O80 2.277 . S
O73 C70 1.160 . S
O73 Cd74 2.203 1_556 S
Cd74 O73 2.203 1_554 S
Cd74 O76 2.411 . S
Cd74 O77 2.333 . S
Cd74 O78 2.352 . S
Cd74 O82 2.277 . S
Cd74 O83 2.356 . S
C75 O80 1.209 . S
C75 O82 1.226 . S
O76 Cd72 2.273 . S
O76 Cd74 2.411 . S
O76 C79 1.320 . S
O77 Cd74 2.333 . S
O77 C79 1.214 . S
O78 Cd74 2.352 . S
O78 C81 1.258 . S
C79 O76 1.320 . S
C79 O77 1.214 . S
O80 Cd72 2.277 . S
O80 C75 1.209 . S
C81 O78 1.258 . S
C81 O83 1.282 . S
O82 Cd74 2.277 . S
O82 C75 1.226 . S
O83 Cd74 2.356 . S
O83 C81 1.282 . S
C84 O85 1.306 . S
C84 O87 1.160 . S
O85 C84 1.306 . S
O85 Cd86 2.228 . S
Cd86 O85 2.228 . S
Cd86 O90 2.273 . S
Cd86 O94 2.277 . S
O87 C84 1.160 . S
O87 Cd88 2.203 . S
Cd88 O87 2.203 . S
Cd88 O90 2.411 . S
Cd88 O91 2.333 . S
Cd88 O92 2.352 . S
Cd88 O96 2.277 . S
Cd88 O97 2.356 . S
C89 O94 1.209 . S
C89 O96 1.226 . S
O90 Cd86 2.273 . S
O90 Cd88 2.411 . S
O90 C93 1.320 . S
O91 Cd88 2.333 . S
O91 C93 1.214 . S
O92 Cd88 2.352 . S
O92 C95 1.258 . S
C93 O90 1.320 . S
C93 O91 1.214 . S
O94 Cd86 2.277 . S
O94 C89 1.209 . S
C95 O92 1.258 . S
C95 O97 1.282 . S
O96 Cd88 2.277 . S
O96 C89 1.226 . S
O97 Cd88 2.356 . S
O97 C95 1.282 . S
C98 O99 1.306 . S
C98 O101 1.160 . S
O99 C98 1.306 . S
O99 Cd100 2.228 . S
Cd100 O99 2.228 . S
Cd100 O104 2.273 . S
Cd100 O108 2.277 . S
O101 C98 1.160 . S
O101 Cd102 2.203 . S
Cd102 O101 2.203 . S
Cd102 O104 2.411 . S
Cd102 O105 2.333 . S
Cd102 O106 2.352 . S
Cd102 O110 2.277 . S
Cd102 O111 2.356 . S
C103 O108 1.209 . S
C103 O110 1.226 . S
O104 Cd100 2.273 . S
O104 Cd102 2.411 . S
O104 C107 1.320 . S
O105 Cd102 2.333 . S
O105 C107 1.214 . S
O106 Cd102 2.352 . S
O106 C109 1.258 . S
C107 O104 1.320 . S
C107 O105 1.214 . S
O108 Cd100 2.277 . S
O108 C103 1.209 . S
C109 O106 1.258 . S
C109 O111 1.282 . S
O110 Cd102 2.277 . S
O110 C103 1.226 . S
O111 Cd102 2.356 . S
O111 C109 1.282 . S
C112 C113 1.388 1_455 S
C112 C114 1.381 1_554 S
C112 H128 0.951 . S
C113 C112 1.388 1_655 S
C113 C117 1.383 . S
C114 C112 1.381 1_556 S
C114 C115 1.402 1_455 S
C114 H129 0.951 . S
C115 C114 1.402 1_655 S
C115 C116 1.375 . S
C115 C118 1.481 . S
C116 C115 1.375 . S
C116 C117 1.367 1_556 S
C116 H130 0.951 1_556 S
C117 C113 1.383 . S
C117 C116 1.367 1_554 S
C117 H131 0.950 . S
C118 C115 1.481 . S
C118 C119 1.297 1_665 S
C118 H132 0.950 1_565 S
C119 C118 1.297 1_445 S
C119 C120 1.479 . S
C119 H133 0.950 1_545 S
C120 C119 1.479 . S
C120 C121 1.375 . S
C120 C126 1.404 1_455 S
C121 C120 1.375 . S
C121 C122 1.369 . S
C121 H134 0.950 . S
C122 C121 1.369 . S
C122 C123 1.392 1_556 S
C122 H135 0.948 1_556 S
C123 C122 1.392 1_554 S
C123 C125 1.383 1_454 S
H124 C126 0.949 . S
C125 C123 1.383 1_656 S
C125 C126 1.385 . S
C125 H127 0.950 . S
C126 C120 1.404 1_655 S
C126 H124 0.949 . S
C126 C125 1.385 . S
H127 C125 0.950 . S
H128 C112 0.951 . S
H129 C114 0.951 . S
H130 C116 0.951 1_554 S
H131 C117 0.950 . S
H132 C118 0.950 1_545 S
H133 C119 0.950 1_565 S
H134 C121 0.950 . S
H135 C122 0.948 1_554 S
C136 C137 1.386 . S
C136 C138 1.383 . S
C136 H152 0.951 . S
C137 C136 1.386 . S
C137 C141 1.383 1_455 S
C138 C136 1.383 . S
C138 C139 1.402 . S
C138 H153 0.951 . S
C139 C138 1.402 . S
C139 C140 1.375 1_455 S
C139 C142 1.481 1_455 S
C140 C139 1.375 1_655 S
C140 C141 1.367 . S
C140 H154 0.951 . S
C141 C137 1.383 1_655 S
C141 C140 1.367 . S
C141 H155 0.950 . S
C142 C139 1.481 1_655 S
C142 C143 1.297 1_665 S
C142 H156 0.950 . S
C143 C142 1.297 1_445 S
C143 C144 1.479 1_455 S
C143 H157 0.950 . S
C144 C143 1.479 1_655 S
C144 C145 1.375 1_655 S
C144 C150 1.404 . S
C145 C144 1.375 1_455 S
C145 C146 1.369 . S
C145 H158 0.950 . S
C146 C145 1.369 . S
C146 C147 1.392 1_455 S
C146 H159 0.951 . S
C147 C146 1.392 1_655 S
C147 C149 1.384 . S
H148 C150 0.949 . S
C149 C147 1.384 . S
C149 C150 1.385 . S
C149 H151 0.950 . S
C150 C144 1.404 . S
C150 H148 0.949 . S
C150 C149 1.385 . S
H151 C149 0.950 . S
H152 C136 0.951 . S
H153 C138 0.951 . S
H154 C140 0.951 . S
H155 C141 0.950 . S
H156 C142 0.950 . S
H157 C143 0.950 . S
H158 C145 0.950 . S
H159 C146 0.951 . S
C160 C161 1.387 . S
C160 C162 1.381 1_554 S
C160 H176 0.951 . S
C161 C160 1.387 . S
C161 C165 1.383 . S
C162 C160 1.381 1_556 S
C162 C163 1.402 . S
C162 H177 0.951 . S
C163 C162 1.402 . S
C163 C164 1.375 1_556 S
C163 C166 1.481 . S
C164 C163 1.375 1_554 S
C164 C165 1.367 . S
C164 H178 0.951 . S
C165 C161 1.383 . S
C165 C164 1.367 . S
C165 H179 0.950 . S
C166 C163 1.481 . S
C166 C167 1.297 . S
C166 H180 0.950 . S
C167 C166 1.297 . S
C167 C168 1.479 . S
C167 H181 0.950 . S
C168 C167 1.479 . S
C168 C169 1.375 . S
C168 C174 1.404 . S
C169 C168 1.375 . S
C169 C170 1.369 . S
C169 H182 0.950 . S
C170 C169 1.369 . S
C170 C171 1.392 1_556 S
C170 H183 0.949 1_556 S
C171 C170 1.392 1_554 S
C171 C173 1.383 1_554 S
H172 C174 0.949 . S
C173 C171 1.383 1_556 S
C173 C174 1.385 . S
C173 H175 0.950 . S
C174 C168 1.404 . S
C174 H172 0.949 . S
C174 C173 1.385 . S
H175 C173 0.950 . S
H176 C160 0.951 . S
H177 C162 0.951 . S
H178 C164 0.951 . S
H179 C165 0.950 . S
H180 C166 0.950 . S
H181 C167 0.950 . S
H182 C169 0.950 . S
H183 C170 0.949 1_554 S
C184 C185 1.386 . S
C184 C186 1.383 . S
C184 H200 0.951 . S
C185 C184 1.386 . S
C185 C189 1.383 . S
C186 C184 1.383 . S
C186 C187 1.402 . S
C186 H201 0.951 . S
C187 C186 1.402 . S
C187 C188 1.375 . S
C187 C190 1.481 . S
C188 C187 1.375 . S
C188 C189 1.367 . S
C188 H202 0.951 . S
C189 C185 1.383 . S
C189 C188 1.367 . S
C189 H203 0.950 . S
C190 C187 1.481 . S
C190 C191 1.297 . S
C190 H204 0.950 . S
C191 C190 1.297 . S
C191 C192 1.479 . S
C191 H205 0.950 . S
C192 C191 1.479 . S
C192 C193 1.375 . S
C192 C198 1.404 . S
C193 C192 1.375 . S
C193 C194 1.369 . S
C193 H206 0.950 . S
C194 C193 1.369 . S
C194 C195 1.392 . S
C194 H207 0.951 . S
C195 C194 1.392 . S
C195 C197 1.384 . S
H196 C198 0.949 . S
C197 C195 1.384 . S
C197 C198 1.385 . S
C197 H199 0.950 . S
C198 C192 1.404 . S
C198 H196 0.949 . S
C198 C197 1.385 . S
H199 C197 0.950 . S
H200 C184 0.951 . S
H201 C186 0.951 . S
H202 C188 0.951 . S
H203 C189 0.950 . S
H204 C190 0.950 . S
H205 C191 0.950 . S
H206 C193 0.950 . S
H207 C194 0.951 . S
C208 C209 1.386 . S
C208 C210 1.383 . S
C208 H224 0.951 . S
C209 C208 1.386 . S
C209 C213 1.383 1_455 S
C210 C208 1.383 . S
C210 C211 1.402 . S
C210 H225 0.951 . S
C211 C210 1.402 . S
C211 C212 1.375 1_455 S
C211 C214 1.486 . S
C212 C211 1.375 1_655 S
C212 C213 1.367 . S
C212 H226 0.951 . S
C213 C209 1.383 1_655 S
C213 C212 1.367 . S
C213 H227 0.950 . S
C214 C211 1.486 . S
C214 C215 1.309 . S
C214 H228 0.933 1_455 S
C215 C214 1.309 . S
C215 C216 1.479 . S
C215 H229 0.950 . S
C216 C215 1.479 . S
C216 C217 1.375 . S
C216 C222 1.404 1_455 S
C217 C216 1.375 . S
C217 C218 1.369 . S
C217 H230 0.950 . S
C218 C217 1.369 . S
C218 C219 1.392 1_455 S
C218 H231 0.951 . S
C219 C218 1.392 1_655 S
C219 C221 1.384 . S
H220 C222 0.949 . S
C221 C219 1.384 . S
C221 C222 1.385 . S
C221 H223 0.950 . S
C222 C216 1.404 1_655 S
C222 H220 0.949 . S
C222 C221 1.385 . S
H223 C221 0.950 . S
H224 C208 0.951 . S
H225 C210 0.951 . S
H226 C212 0.951 . S
H227 C213 0.950 . S
H228 C214 0.933 1_655 S
H229 C215 0.950 . S
H230 C217 0.950 . S
H231 C218 0.951 . S
C232 C233 1.386 . S
C232 C234 1.383 . S
C232 H248 0.951 . S
C233 C232 1.386 . S
C233 C237 1.383 1_455 S
C234 C232 1.383 . S
C234 C235 1.402 . S
C234 H249 0.951 . S
C235 C234 1.402 . S
C235 C236 1.375 1_455 S
C235 C238 1.481 1_455 S
C236 C235 1.375 1_655 S
C236 C237 1.367 . S
C236 H250 0.951 . S
C237 C233 1.383 1_655 S
C237 C236 1.367 . S
C237 H251 0.950 . S
C238 C235 1.481 1_655 S
C238 C239 1.297 1_655 S
C238 H252 0.950 . S
C239 C238 1.297 1_455 S
C239 C240 1.479 . S
C239 H253 0.950 . S
C240 C239 1.479 . S
C240 C241 1.375 . S
C240 C246 1.404 1_455 S
C241 C240 1.375 . S
C241 C242 1.369 . S
C241 H254 0.950 . S
C242 C241 1.369 . S
C242 C243 1.392 1_455 S
C242 H255 0.951 . S
C243 C242 1.392 1_655 S
C243 C245 1.384 . S
H244 C246 0.949 . S
C245 C243 1.384 . S
C245 C246 1.385 . S
C245 H247 0.950 . S
C246 C240 1.404 1_655 S
C246 H244 0.949 . S
C246 C245 1.385 . S
H247 C245 0.950 . S
H248 C232 0.951 . S
H249 C234 0.951 . S
H250 C236 0.951 . S
H251 C237 0.950 . S
H252 C238 0.950 . S
H253 C239 0.950 . S
H254 C241 0.950 . S
H255 C242 0.951 . S
C256 C257 1.386 . S
C256 C258 1.383 . S
C256 H272 0.951 . S
C257 C256 1.386 . S
C257 C261 1.383 1_455 S
C258 C256 1.383 . S
C258 C259 1.402 . S
C258 H273 0.951 . S
C259 C258 1.402 . S
C259 C260 1.375 1_455 S
C259 C262 1.481 1_455 S
C260 C259 1.375 1_655 S
C260 C261 1.367 . S
C260 H274 0.951 . S
C261 C257 1.383 1_655 S
C261 C260 1.367 . S
C261 H275 0.950 . S
C262 C259 1.481 1_655 S
C262 C263 1.297 1_655 S
C262 H276 0.950 . S
C263 C262 1.297 1_455 S
C263 C264 1.479 . S
C263 H277 0.950 . S
C264 C263 1.479 . S
C264 C265 1.375 . S
C264 C270 1.404 1_455 S
C265 C264 1.375 . S
C265 C266 1.369 . S
C265 H278 0.950 . S
C266 C265 1.369 . S
C266 C267 1.392 1_455 S
C266 H279 0.951 . S
C267 C266 1.392 1_655 S
C267 C269 1.384 . S
H268 C270 0.949 . S
C269 C267 1.384 . S
C269 C270 1.385 . S
C269 H271 0.950 . S
C270 C264 1.404 1_655 S
C270 H268 0.949 . S
C270 C269 1.385 . S
H271 C269 0.950 . S
H272 C256 0.951 . S
H273 C258 0.951 . S
H274 C260 0.951 . S
H275 C261 0.950 . S
H276 C262 0.950 . S
H277 C263 0.950 . S
H278 C265 0.950 . S
H279 C266 0.951 . S
C280 C281 1.386 . S
C280 C282 1.383 . S
C280 H296 0.951 . S
C281 C280 1.386 . S
C281 C285 1.382 . S
C282 C280 1.383 . S
C282 C283 1.402 1_455 S
C282 H297 0.951 . S
C283 C282 1.402 1_655 S
C283 C284 1.375 . S
C283 C286 1.481 . S
C284 C283 1.375 . S
C284 C285 1.367 1_655 S
C284 H298 0.951 . S
C285 C281 1.382 . S
C285 C284 1.367 1_455 S
C285 H299 0.950 1_455 S
C286 C283 1.481 . S
C286 C287 1.297 . S
C286 H300 0.950 . S
C287 C286 1.297 . S
C287 C288 1.479 . S
C287 H301 0.950 . S
C288 C287 1.479 . S
C288 C289 1.375 . S
C288 C294 1.404 . S
C289 C288 1.375 . S
C289 C290 1.369 . S
C289 H302 0.950 . S
C290 C289 1.369 . S
C290 C291 1.392 . S
C290 H303 0.951 . S
C291 C290 1.392 . S
C291 C293 1.384 . S
H292 C294 0.949 . S
C293 C291 1.384 . S
C293 C294 1.385 . S
C293 H295 0.950 . S
C294 C288 1.404 . S
C294 H292 0.949 . S
C294 C293 1.385 . S
H295 C293 0.950 . S
H296 C280 0.951 . S
H297 C282 0.951 . S
H298 C284 0.951 . S
H299 C285 0.950 1_655 S
H300 C286 0.950 . S
H301 C287 0.950 . S
H302 C289 0.950 . S
H303 C290 0.951 . S
C304 C305 1.386 . S
C304 C306 1.383 . S
C304 H320 0.951 . S
C305 C304 1.386 . S
C305 C309 1.383 . S
C306 C304 1.383 . S
C306 C307 1.402 . S
C306 H321 0.951 . S
C307 C306 1.402 . S
C307 C308 1.375 . S
C307 C310 1.481 . S
C308 C307 1.375 . S
C308 C309 1.367 . S
C308 H322 0.951 . S
C309 C305 1.383 . S
C309 C308 1.367 . S
C309 H323 0.950 . S
C310 C307 1.481 . S
C310 C311 1.297 . S
C310 H324 0.950 . S
C311 C310 1.297 . S
C311 C312 1.479 . S
C311 H325 0.950 . S
C312 C311 1.479 . S
C312 C313 1.375 . S
C312 C318 1.404 . S
C313 C312 1.375 . S
C313 C314 1.369 . S
C313 H326 0.950 . S
C314 C313 1.369 . S
C314 C315 1.392 . S
C314 H327 0.951 . S
C315 C314 1.392 . S
C315 C317 1.384 . S
H316 C318 0.949 . S
C317 C315 1.384 . S
C317 C318 1.385 . S
C317 H319 0.950 . S
C318 C312 1.404 . S
C318 H316 0.949 . S
C318 C317 1.385 . S
H319 C317 0.950 . S
H320 C304 0.951 . S
H321 C306 0.951 . S
H322 C308 0.951 . S
H323 C309 0.950 . S
H324 C310 0.950 . S
H325 C311 0.950 . S
H326 C313 0.950 . S
H327 C314 0.951 . S
C328 C329 1.386 . S
C328 C330 1.383 . S
C328 H344 0.951 . S
C329 C328 1.386 . S
C329 C333 1.383 . S
C330 C328 1.383 . S
C330 C331 1.402 . S
C330 H345 0.951 . S
C331 C330 1.402 . S
C331 C332 1.375 . S
C331 C334 1.481 . S
C332 C331 1.375 . S
C332 C333 1.367 . S
C332 H346 0.951 . S
C333 C329 1.383 . S
C333 C332 1.367 . S
C333 H347 0.950 . S
C334 C331 1.481 . S
C334 C335 1.297 . S
C334 H348 0.950 . S
C335 C334 1.297 . S
C335 C336 1.479 . S
C335 H349 0.950 . S
C336 C335 1.479 . S
C336 C337 1.375 . S
C336 C342 1.404 . S
C337 C336 1.375 . S
C337 C338 1.369 . S
C337 H350 0.950 . S
C338 C337 1.369 . S
C338 C339 1.392 . S
C338 H351 0.951 . S
C339 C338 1.392 . S
C339 C341 1.384 . S
H340 C342 0.949 . S
C341 C339 1.384 . S
C341 C342 1.385 . S
C341 H343 0.950 . S
C342 C336 1.404 . S
C342 H340 0.949 . S
C342 C341 1.385 . S
H343 C341 0.950 . S
H344 C328 0.951 . S
H345 C330 0.951 . S
H346 C332 0.951 . S
H347 C333 0.950 . S
H348 C334 0.950 . S
H349 C335 0.950 . S
H350 C337 0.950 . S
H351 C338 0.951 . S
C352 C353 1.386 . S
C352 C354 1.383 . S
C352 H368 0.951 . S
C353 C352 1.386 . S
C353 C357 1.383 . S
C354 C352 1.383 . S
C354 C355 1.402 . S
C354 H369 0.951 . S
C355 C354 1.402 . S
C355 C356 1.375 . S
C355 C358 1.481 . S
C356 C355 1.375 . S
C356 C357 1.367 . S
C356 H370 0.951 . S
C357 C353 1.383 . S
C357 C356 1.367 . S
C357 H371 0.950 . S
C358 C355 1.481 . S
C358 C359 1.297 . S
C358 H372 0.950 . S
C359 C358 1.297 . S
C359 C360 1.479 . S
C359 H373 0.950 . S
C360 C359 1.479 . S
C360 C361 1.375 . S
C360 C366 1.404 . S
C361 C360 1.375 . S
C361 C362 1.369 . S
C361 H374 0.950 . S
C362 C361 1.369 . S
C362 C363 1.392 . S
C362 H375 0.951 . S
C363 C362 1.392 . S
C363 C365 1.384 . S
H364 C366 0.949 . S
C365 C363 1.384 . S
C365 C366 1.385 . S
C365 H367 0.950 . S
C366 C360 1.404 . S
C366 H364 0.949 . S
C366 C365 1.385 . S
H367 C365 0.950 . S
H368 C352 0.951 . S
H369 C354 0.951 . S
H370 C356 0.951 . S
H371 C357 0.950 . S
H372 C358 0.950 . S
H373 C359 0.950 . S
H374 C361 0.950 . S
H375 C362 0.951 . S
C376 C377 1.386 . S
C376 C378 1.383 . S
C376 H392 0.951 . S
C377 C376 1.386 . S
C377 C381 1.383 . S
C378 C376 1.383 . S
C378 C379 1.402 . S
C378 H393 0.951 . S
C379 C378 1.402 . S
C379 C380 1.375 . S
C379 C382 1.481 . S
C380 C379 1.375 . S
C380 C381 1.367 . S
C380 H394 0.951 . S
C381 C377 1.383 . S
C381 C380 1.367 . S
C381 H395 0.950 . S
C382 C379 1.481 . S
C382 C383 1.297 . S
C382 H396 0.950 . S
C383 C382 1.297 . S
C383 C384 1.479 . S
C383 H397 0.950 . S
C384 C383 1.479 . S
C384 C385 1.375 . S
C384 C390 1.404 . S
C385 C384 1.375 . S
C385 C386 1.369 . S
C385 H398 0.950 . S
C386 C385 1.369 . S
C386 C387 1.392 . S
C386 H399 0.951 . S
C387 C386 1.392 . S
C387 C389 1.384 . S
H388 C390 0.949 . S
C389 C387 1.384 . S
C389 C390 1.385 . S
C389 H391 0.950 . S
C390 C384 1.404 . S
C390 H388 0.949 . S
C390 C389 1.385 . S
H391 C389 0.950 . S
H392 C376 0.951 . S
H393 C378 0.951 . S
H394 C380 0.951 . S
H395 C381 0.950 . S
H396 C382 0.950 . S
H397 C383 0.950 . S
H398 C385 0.950 . S
H399 C386 0.951 . S
C400 C401 1.386 . S
C400 C402 1.383 . S
C400 H416 0.951 . S
C401 C400 1.386 . S
C401 C405 1.383 1_554 S
C402 C400 1.383 . S
C402 C403 1.402 1_554 S
C402 H417 0.951 . S
C403 C402 1.402 1_556 S
C403 C404 1.375 . S
C403 C406 1.481 . S
C404 C403 1.375 . S
C404 C405 1.367 . S
C404 H418 0.951 . S
C405 C401 1.383 1_556 S
C405 C404 1.367 . S
C405 H419 0.950 . S
C406 C403 1.481 . S
C406 C407 1.297 1_556 S
C406 H420 0.950 . S
C407 C406 1.297 1_554 S
C407 C408 1.479 . S
C407 H421 0.950 . S
C408 C407 1.479 . S
C408 C409 1.375 . S
C408 C414 1.404 1_554 S
C409 C408 1.375 . S
C409 C410 1.369 . S
C409 H422 0.950 . S
C410 C409 1.369 . S
C410 C411 1.392 . S
C410 H423 0.951 . S
C411 C410 1.392 . S
C411 C413 1.384 1_554 S
H412 C414 0.949 . S
C413 C411 1.384 1_556 S
C413 C414 1.385 . S
C413 H415 0.950 . S
C414 C408 1.404 1_556 S
C414 H412 0.949 . S
C414 C413 1.385 . S
H415 C413 0.950 . S
H416 C400 0.951 . S
H417 C402 0.951 . S
H418 C404 0.951 . S
H419 C405 0.950 . S
H420 C406 0.950 . S
H421 C407 0.950 . S
H422 C409 0.950 . S
H423 C410 0.951 . S
C424 C425 1.386 . S
C424 C426 1.383 . S
C424 H440 0.951 . S
C425 C424 1.386 . S
C425 C429 1.383 1_554 S
C426 C424 1.383 . S
C426 C427 1.402 . S
C426 H441 0.951 . S
C427 C426 1.402 . S
C427 C428 1.375 1_554 S
C427 C430 1.481 . S
C428 C427 1.375 1_556 S
C428 C429 1.367 . S
C428 H442 0.951 . S
C429 C425 1.383 1_556 S
C429 C428 1.367 . S
C429 H443 0.950 . S
C430 C427 1.481 . S
C430 C431 1.297 . S
C430 H444 0.950 . S
C431 C430 1.297 . S
C431 C432 1.479 . S
C431 H445 0.950 . S
C432 C431 1.479 . S
C432 C433 1.375 . S
C432 C438 1.404 . S
C433 C432 1.375 . S
C433 C434 1.369 . S
C433 H446 0.950 . S
C434 C433 1.369 . S
C434 C435 1.392 . S
C434 H447 0.951 . S
C435 C434 1.392 . S
C435 C437 1.384 . S
H436 C438 0.949 . S
C437 C435 1.384 . S
C437 C438 1.385 . S
C437 H439 0.950 1_554 S
C438 C432 1.404 . S
C438 H436 0.949 . S
C438 C437 1.385 . S
H439 C437 0.950 1_556 S
H440 C424 0.951 . S
H441 C426 0.951 . S
H442 C428 0.951 . S
H443 C429 0.950 . S
H444 C430 0.950 . S
H445 C431 0.950 . S
H446 C433 0.950 . S
H447 C434 0.951 . S
C448 C449 1.386 . S
C448 C450 1.383 . S
C448 H464 0.951 . S
C449 C448 1.386 . S
C449 C453 1.383 . S
C450 C448 1.383 . S
C450 C451 1.402 . S
C450 H465 0.951 . S
C451 C450 1.402 . S
C451 C452 1.375 . S
C451 C454 1.481 . S
C452 C451 1.375 . S
C452 C453 1.367 . S
C452 H466 0.951 . S
C453 C449 1.383 . S
C453 C452 1.367 . S
C453 H467 0.950 . S
C454 C451 1.481 . S
C454 C455 1.297 . S
C454 H468 0.950 . S
C455 C454 1.297 . S
C455 C456 1.479 . S
C455 H469 0.950 . S
C456 C455 1.479 . S
C456 C457 1.375 . S
C456 C462 1.404 . S
C457 C456 1.375 . S
C457 C458 1.369 . S
C457 H470 0.950 . S
C458 C457 1.369 . S
C458 C459 1.392 . S
C458 H471 0.951 . S
C459 C458 1.392 . S
C459 C461 1.384 . S
H460 C462 0.949 . S
C461 C459 1.384 . S
C461 C462 1.385 . S
C461 H463 0.950 . S
C462 C456 1.404 . S
C462 H460 0.949 . S
C462 C461 1.385 . S
H463 C461 0.950 . S
H464 C448 0.951 . S
H465 C450 0.951 . S
H466 C452 0.951 . S
H467 C453 0.950 . S
H468 C454 0.950 . S
H469 C455 0.950 . S
H470 C457 0.950 . S
H471 C458 0.951 . S
C472 C473 1.386 . S
C472 C474 1.383 . S
C472 H488 0.951 . S
C473 C472 1.386 . S
C473 C477 1.383 . S
C474 C472 1.383 . S
C474 C475 1.402 . S
C474 H489 0.951 . S
C475 C474 1.402 . S
C475 C476 1.375 . S
C475 C478 1.481 . S
C476 C475 1.375 . S
C476 C477 1.367 . S
C476 H490 0.951 . S
C477 C473 1.383 . S
C477 C476 1.367 . S
C477 H491 0.950 . S
C478 C475 1.481 . S
C478 C479 1.297 . S
C478 H492 0.950 . S
C479 C478 1.297 . S
C479 C480 1.479 . S
C479 H493 0.950 . S
C480 C479 1.479 . S
C480 C481 1.375 . S
C480 C486 1.404 . S
C481 C480 1.375 . S
C481 C482 1.369 . S
C481 H494 0.950 . S
C482 C481 1.369 . S
C482 C483 1.392 . S
C482 H495 0.951 . S
C483 C482 1.392 . S
C483 C485 1.384 . S
H484 C486 0.949 . S
C485 C483 1.384 . S
C485 C486 1.385 . S
C485 H487 0.950 . S
C486 C480 1.404 . S
C486 H484 0.949 . S
C486 C485 1.385 . S
H487 C485 0.950 . S
H488 C472 0.951 . S
H489 C474 0.951 . S
H490 C476 0.951 . S
H491 C477 0.950 . S
H492 C478 0.950 . S
H493 C479 0.950 . S
H494 C481 0.950 . S
H495 C482 0.951 . S
C113 C19 1.504 . S
C123 C5 1.494 . S
C137 C33 1.497 . S
C147 C47 1.486 . S
C161 C61 1.504 . S
C171 C75 1.494 . S
C185 C89 1.496 . S
C195 C103 1.501 . S
C209 C9 1.208 . S
C219 C51 1.238 . S
C233 C37 1.211 . S
C243 C23 1.238 . S
C257 C28 1.210 . S
C267 C14 1.200 . S
C281 C0 1.242 . S
C291 C42 1.197 . S
C305 C65 1.177 . S
C315 C107 1.136 . S
C329 C93 1.168 . S
C339 C79 1.143 . S
C353 C70 1.218 . S
C363 C84 1.189 . S
C377 C56 1.236 . S
C387 C98 1.189 . S
C401 C81 1.501 . S
C411 C11 1.510 . S
C425 C67 1.496 . S
C435 C25 1.497 . S
C449 C39 1.511 . S
C459 C109 1.507 . S
C473 C95 1.513 . S
C483 C53 1.489 . S
