# Generated by pormake.
# Topology wht, (6)-cn, num edge types: 1
# Building blocks:
#     Node 0, Type 0, BuildingBlock: MIDCAF_clean_sbu_0, # of connection points: 6
#     Node 1, Type 0, BuildingBlock: MIDCAF_clean_sbu_0, # of connection points: 6
#     Node 2, Type 0, BuildingBlock: MIDCAF_clean_sbu_0, # of connection points: 6
#     Node 3, Type 0, BuildingBlock: MIDCAF_clean_sbu_0, # of connection points: 6
#     Node 4, Type 0, BuildingBlock: MIDCAF_clean_sbu_0, # of connection points: 6
#     Node 5, Type 0, BuildingBlock: MIDCAF_clean_sbu_0, # of connection points: 6
#     Node 6, Type 0, BuildingBlock: MIDCAF_clean_sbu_0, # of connection points: 6
#     Node 7, Type 0, BuildingBlock: MIDCAF_clean_sbu_0, # of connection points: 6
#     Edge 8, Type (0, 0), BuildingBlock: ZUJKAS_clean_linker_0, # of connection points: 2
#     Edge 9, Type (0, 0), BuildingBlock: ZUJKAS_clean_linker_0, # of connection points: 2
#     Edge 10, Type (0, 0), BuildingBlock: ZUJKAS_clean_linker_0, # of connection points: 2
#     Edge 11, Type (0, 0), BuildingBlock: ZUJKAS_clean_linker_0, # of connection points: 2
#     Edge 12, Type (0, 0), BuildingBlock: ZUJKAS_clean_linker_0, # of connection points: 2
#     Edge 13, Type (0, 0), BuildingBlock: ZUJKAS_clean_linker_0, # of connection points: 2
#     Edge 14, Type (0, 0), BuildingBlock: ZUJKAS_clean_linker_0, # of connection points: 2
#     Edge 15, Type (0, 0), BuildingBlock: ZUJKAS_clean_linker_0, # of connection points: 2
#     Edge 16, Type (0, 0), BuildingBlock: ZUJKAS_clean_linker_0, # of connection points: 2
#     Edge 17, Type (0, 0), BuildingBlock: ZUJKAS_clean_linker_0, # of connection points: 2
#     Edge 18, Type (0, 0), BuildingBlock: ZUJKAS_clean_linker_0, # of connection points: 2
#     Edge 19, Type (0, 0), BuildingBlock: ZUJKAS_clean_linker_0, # of connection points: 2
#     Edge 20, Type (0, 0), BuildingBlock: ZUJKAS_clean_linker_0, # of connection points: 2
#     Edge 21, Type (0, 0), BuildingBlock: ZUJKAS_clean_linker_0, # of connection points: 2
#     Edge 22, Type (0, 0), BuildingBlock: ZUJKAS_clean_linker_0, # of connection points: 2
#     Edge 23, Type (0, 0), BuildingBlock: ZUJKAS_clean_linker_0, # of connection points: 2
#     Edge 24, Type (0, 0), BuildingBlock: ZUJKAS_clean_linker_0, # of connection points: 2
#     Edge 25, Type (0, 0), BuildingBlock: ZUJKAS_clean_linker_0, # of connection points: 2
#     Edge 26, Type (0, 0), BuildingBlock: ZUJKAS_clean_linker_0, # of connection points: 2
#     Edge 27, Type (0, 0), BuildingBlock: ZUJKAS_clean_linker_0, # of connection points: 2
#     Edge 28, Type (0, 0), BuildingBlock: ZUJKAS_clean_linker_0, # of connection points: 2
#     Edge 29, Type (0, 0), BuildingBlock: ZUJKAS_clean_linker_0, # of connection points: 2
#     Edge 30, Type (0, 0), BuildingBlock: ZUJKAS_clean_linker_0, # of connection points: 2
#     Edge 31, Type (0, 0), BuildingBlock: ZUJKAS_clean_linker_0, # of connection points: 2
# Relax obj value: 0.317
# Max RMSD: 0.224
# Mean RMSD: 0.224
data_MOF--net-wht--node1-MIDCAF_clean_sbu_0--edge1-ZUJKAS_clean_linker_0
_symmetry_space_group_name_H-M    P1
_symmetry_Int_Tables_number       1
_symmetry_cell_setting            triclinic
loop_
_symmetry_equiv_pos_as_xyz
'x, y, z'
_cell_length_a     34.37645
_cell_length_b     34.385562
_cell_length_c     52.591652
_cell_angle_alpha  89.907085
_cell_angle_beta   89.923527
_cell_angle_gamma 89.84324
loop_
_atom_site_label
_atom_site_type_symbol
_atom_site_fract_x
_atom_site_fract_y
_atom_site_fract_z
_atom_type_partial_charge
Zn0 Zn 0.13409 0.18949 0.20154 0.0
Zn1 Zn 0.03238 0.31721 0.14241 0.0
Zn2 Zn 0.10142 0.23155 0.15951 0.0
C3 C 0.06231 0.26661 0.10522 0.0
C4 C 0.01183 0.24606 0.15855 0.0
O5 O 0.12306 0.27092 0.18747 0.0
O6 O 0.15287 0.23776 0.21795 0.0
C7 C 0.16542 0.16508 0.15277 0.0
O8 O 0.07703 0.25343 0.12572 0.0
O9 O 0.03864 0.295 0.10633 0.0
O10 O 0.02109 0.27733 0.16949 0.0
O11 O 0.03906 0.22093 0.15518 0.0
O12 O 0.16675 0.16029 0.17663 0.0
O13 O 0.14261 0.1906 0.14312 0.0
O14 O 0.05793 0.1992 0.17995 0.0
O15 O 0.08236 0.16907 0.21332 0.0
C16 C 0.05344 0.17807 0.19968 0.0
O17 O 0.12077 0.29433 0.16212 0.0
O18 O 0.08162 0.34468 0.15192 0.0
C19 C 0.14214 0.26966 0.20833 0.0
C20 C 0.11436 0.3313 0.15905 0.0
Zn21 Zn 0.30686 0.62635 0.45143 0.0
Zn22 Zn 0.24987 0.6385 0.37479 0.0
Zn23 Zn 0.27087 0.61923 0.41229 0.0
C24 C 0.31592 0.59787 0.3648 0.0
C25 C 0.22942 0.56026 0.38278 0.0
O26 O 0.22305 0.62616 0.43852 0.0
O27 O 0.25893 0.63272 0.47306 0.0
C28 C 0.33595 0.68122 0.41693 0.0
O29 O 0.30144 0.58053 0.38442 0.0
O30 O 0.30207 0.63049 0.35809 0.0
O31 O 0.2135 0.591 0.37449 0.0
O32 O 0.26231 0.56318 0.39435 0.0
O33 O 0.33988 0.67174 0.44005 0.0
O34 O 0.31041 0.66429 0.40349 0.0
O35 O 0.29281 0.55937 0.41445 0.0
O36 O 0.32841 0.57196 0.44843 0.0
C37 C 0.31688 0.54816 0.43171 0.0
O38 O 0.21105 0.64398 0.41329 0.0
O39 O 0.22486 0.68874 0.38481 0.0
C40 C 0.2259 0.63052 0.46261 0.0
C41 C 0.20154 0.67528 0.40128 0.0
Zn42 Zn 0.86674 0.79102 0.6986 0.0
Zn43 Zn 0.89344 0.72425 0.62366 0.0
Zn44 Zn 0.88948 0.75696 0.66181 0.0
C45 C 0.90669 0.8023 0.61262 0.0
C46 C 0.95907 0.70394 0.65059 0.0
O47 O 0.91389 0.72849 0.69531 0.0
O48 O 0.85679 0.73825 0.71295 0.0
C49 C 0.83798 0.83608 0.66461 0.0
O50 O 0.89273 0.8051 0.63518 0.0
O51 O 0.9121 0.76921 0.60287 0.0
O52 O 0.93531 0.68796 0.63559 0.0
O53 O 0.9488 0.73491 0.66244 0.0
O54 O 0.82391 0.82453 0.68545 0.0
O55 O 0.86626 0.81703 0.65432 0.0
O56 O 0.94365 0.76238 0.68383 0.0
O57 O 0.9217 0.81467 0.70353 0.0
C58 C 0.95023 0.7938 0.69651 0.0
O59 O 0.84573 0.71091 0.66067 0.0
O60 O 0.83997 0.70234 0.61958 0.0
C61 C 0.88784 0.71863 0.71147 0.0
C62 C 0.82877 0.69459 0.64189 0.0
Zn63 Zn 0.69466 0.3702 0.94039 0.0
Zn64 Zn 0.827 0.45164 0.87783 0.0
Zn65 Zn 0.73838 0.39887 0.90693 0.0
C66 C 0.76275 0.43287 0.85162 0.0
C67 C 0.76991 0.48202 0.90841 0.0
O68 O 0.77783 0.37038 0.93281 0.0
O69 O 0.73746 0.36063 0.96484 0.0
C70 C 0.6715 0.33714 0.89607 0.0
O71 O 0.76059 0.42227 0.87457 0.0
O72 O 0.79331 0.45062 0.84492 0.0
O73 O 0.8004 0.46242 0.91199 0.0
O74 O 0.73801 0.46288 0.90661 0.0
O75 O 0.67225 0.32768 0.91929 0.0
O76 O 0.69234 0.36558 0.88834 0.0
O77 O 0.71118 0.44677 0.92844 0.0
O78 O 0.66256 0.41744 0.94757 0.0
C79 C 0.68022 0.4485 0.942 0.0
O80 O 0.79825 0.36843 0.90773 0.0
O81 O 0.8467 0.39829 0.88598 0.0
C82 C 0.77162 0.36105 0.95605 0.0
C83 C 0.83353 0.36944 0.89849 0.0
Zn84 Zn 0.60539 0.21968 0.62492 0.0
Zn85 Zn 0.60453 0.30044 0.54894 0.0
Zn86 Zn 0.59828 0.25847 0.58634 0.0
C87 C 0.52656 0.29951 0.56019 0.0
C88 C 0.65114 0.3376 0.58102 0.0
O89 O 0.63357 0.20324 0.58008 0.0
O90 O 0.64807 0.18351 0.61896 0.0
C91 C 0.52758 0.21475 0.60877 0.0
O92 O 0.53794 0.26977 0.57312 0.0
O93 O 0.5513 0.3224 0.55072 0.0
O94 O 0.64794 0.33565 0.55716 0.0
O95 O 0.63242 0.31307 0.59511 0.0
O96 O 0.55299 0.19708 0.6217 0.0
O97 O 0.53731 0.24386 0.5948 0.0
O98 O 0.61822 0.29707 0.61759 0.0
O99 O 0.61209 0.25899 0.65127 0.0
C100 C 0.61842 0.29207 0.6419 0.0
O101 O 0.62572 0.22169 0.55734 0.0
O102 O 0.6115 0.25791 0.52391 0.0
C103 C 0.6515 0.17967 0.59527 0.0
C104 C 0.62318 0.22609 0.53311 0.0
Zn105 Zn 0.31592 0.06561 0.89732 0.0
Zn106 Zn 0.21644 0.13194 0.81985 0.0
Zn107 Zn 0.24762 0.09799 0.85025 0.0
C108 C 0.20106 0.05224 0.8122 0.0
C109 C 0.17691 0.15333 0.85807 0.0
O110 O 0.29301 0.14144 0.85133 0.0
O111 O 0.3318 0.11821 0.88208 0.0
C112 C 0.29214 0.01699 0.84852 0.0
O113 O 0.23498 0.05221 0.82252 0.0
O114 O 0.18192 0.08382 0.81167 0.0
O115 O 0.19469 0.17429 0.84209 0.0
O116 O 0.1886 0.11827 0.86121 0.0
O117 O 0.30879 0.02546 0.86939 0.0
O118 O 0.26735 0.04004 0.83767 0.0
O119 O 0.25463 0.08093 0.88591 0.0
O120 O 0.2713 0.06741 0.92418 0.0
C121 C 0.24517 0.07896 0.90904 0.0
O122 O 0.27411 0.07769 0.8145 0.0
O123 O 0.26476 0.13642 0.79882 0.0
C124 C 0.32329 0.14408 0.86558 0.0
C125 C 0.2816 0.10367 0.79756 0.0
Zn126 Zn 0.38362 0.69514 0.05016 0.0
Zn127 Zn 0.35829 0.75696 0.12381 0.0
Zn128 Zn 0.38097 0.73353 0.08708 0.0
C129 C 0.40012 0.69053 0.13451 0.0
C130 C 0.43567 0.78018 0.11972 0.0
O131 O 0.37108 0.77587 0.05645 0.0
O132 O 0.35636 0.73242 0.02726 0.0
C133 C 0.33735 0.65485 0.08438 0.0
O134 O 0.41946 0.70598 0.11598 0.0
O135 O 0.36664 0.70388 0.13983 0.0
O136 O 0.40382 0.79527 0.12665 0.0
O137 O 0.43492 0.74736 0.10791 0.0
O138 O 0.35663 0.6488 0.06431 0.0
O139 O 0.33877 0.68827 0.09485 0.0
O140 O 0.44324 0.71837 0.08804 0.0
O141 O 0.44158 0.6945 0.04904 0.0
C142 C 0.4608 0.70449 0.06841 0.0
O143 O 0.35422 0.79208 0.08288 0.0
O144 O 0.30882 0.78102 0.11137 0.0
C145 C 0.35907 0.76757 0.03399 0.0
C146 C 0.32256 0.80265 0.09403 0.0
Zn147 Zn 0.78687 0.86238 0.30541 0.0
Zn148 Zn 0.72534 0.88592 0.3792 0.0
Zn149 Zn 0.75634 0.88345 0.34083 0.0
C150 C 0.80303 0.90175 0.38928 0.0
C151 C 0.69866 0.94978 0.35189 0.0
O152 O 0.72752 0.9132 0.30881 0.0
O153 O 0.73765 0.8615 0.28501 0.0
C154 C 0.83046 0.82957 0.33762 0.0
O155 O 0.80534 0.88813 0.36664 0.0
O156 O 0.77016 0.90582 0.39967 0.0
O157 O 0.68666 0.9262 0.36859 0.0
O158 O 0.72899 0.94112 0.33868 0.0
O159 O 0.81378 0.81472 0.31859 0.0
O160 O 0.81654 0.86106 0.34734 0.0
O161 O 0.76083 0.938 0.32007 0.0
O162 O 0.81664 0.91502 0.30611 0.0
C163 C 0.79514 0.94413 0.31099 0.0
O164 O 0.71569 0.83672 0.33968 0.0
O165 O 0.7073 0.83062 0.38075 0.0
C166 C 0.71907 0.89264 0.28922 0.0
C167 C 0.70078 0.8186 0.35845 0.0
H168 H 0.99066 0.1628 0.16936 0.0
H169 H 0.92567 0.14226 0.18303 0.0
H170 H 0.96251 0.14745 0.26134 0.0
H171 H 0.02719 0.16806 0.24785 0.0
H172 H 0.91634 0.07399 0.20893 0.0
H173 H 0.85225 0.1929 0.26532 0.0
H174 H 0.88984 0.20087 0.24178 0.0
H175 H 0.90241 0.18598 0.27361 0.0
C176 C 0.98459 0.1603 0.1895 0.0
C177 C 0.01397 0.16667 0.20758 0.0
C178 C 0.94744 0.14881 0.19726 0.0
C179 C 0.93904 0.14421 0.22321 0.0
C180 C 0.96804 0.15186 0.24126 0.0
H181 H 0.86695 0.97484 0.31409 0.0
H182 H 0.89088 0.03227 0.29164 0.0
C183 C 0.0052 0.16285 0.23352 0.0
C184 C 0.90312 0.1245 0.23158 0.0
H185 H 0.8371 0.12635 0.2801 0.0
C186 C 0.89791 0.08593 0.22376 0.0
C187 C 0.87879 0.14019 0.25072 0.0
C188 C 0.88083 0.18245 0.25812 0.0
C189 C 0.87233 0.06133 0.2367 0.0
C190 C 0.85178 0.07571 0.25799 0.0
C191 C 0.85352 0.11534 0.26401 0.0
C192 C 0.83468 0.04825 0.27632 0.0
C193 C 0.87025 0.0191 0.22903 0.0
C194 C 0.79481 0.0398 0.27615 0.0
C195 C 0.78096 0.00726 0.28938 0.0
C196 C 0.80714 0.9828 0.30231 0.0
C197 C 0.84642 0.99316 0.30399 0.0
C198 C 0.86002 0.02593 0.29129 0.0
H199 H 0.87977 0.01478 0.20904 0.0
H200 H 0.88975 0.00176 0.2415 0.0
H201 H 0.84023 0.00774 0.23127 0.0
H202 H 0.77499 0.05676 0.26456 0.0
H203 H 0.7505 0.99959 0.28787 0.0
H204 H 0.27533 0.48069 0.42507 0.0
H205 H 0.29477 0.41574 0.44058 0.0
H206 H 0.40803 0.46059 0.45984 0.0
H207 H 0.38896 0.52461 0.44445 0.0
H208 H 0.40945 0.38337 0.44067 0.0
H209 H 0.30186 0.40374 0.51906 0.0
H210 H 0.28525 0.40479 0.48662 0.0
H211 H 0.31513 0.44347 0.49838 0.0
C212 C 0.30478 0.47612 0.43176 0.0
C213 C 0.33063 0.50758 0.43374 0.0
C214 C 0.3157 0.43921 0.44087 0.0
C215 C 0.35263 0.43353 0.45181 0.0
C216 C 0.37939 0.46424 0.45157 0.0
H217 H 0.48435 0.3647 0.56683 0.0
H218 H 0.4302 0.38513 0.53997 0.0
C219 C 0.36847 0.50086 0.44275 0.0
C220 C 0.36297 0.3979 0.46635 0.0
H221 H 0.35285 0.36002 0.5261 0.0
C222 C 0.39631 0.37711 0.45898 0.0
C223 C 0.34583 0.39003 0.4903 0.0
C224 C 0.3101 0.41161 0.49928 0.0
C225 C 0.41505 0.35144 0.47582 0.0
C226 C 0.3997 0.34607 0.50059 0.0
C227 C 0.3644 0.36408 0.50708 0.0
C228 C 0.42407 0.32949 0.52125 0.0
C229 C 0.45319 0.33326 0.46786 0.0
C230 C 0.43679 0.2906 0.52094 0.0
C231 C 0.4675 0.27868 0.53673 0.0
C232 C 0.48579 0.30565 0.55278 0.0
C233 C 0.4703 0.34328 0.55488 0.0
C234 C 0.43953 0.35501 0.53939 0.0
H235 H 0.46253 0.34283 0.44861 0.0
H236 H 0.47639 0.34085 0.48165 0.0
H237 H 0.4503 0.30114 0.46771 0.0
H238 H 0.42501 0.27035 0.50723 0.0
H239 H 0.4795 0.24972 0.53444 0.0
H240 H 0.00476 0.82776 0.6668 0.0
H241 H 0.06427 0.86025 0.68133 0.0
H242 H 0.04317 0.81861 0.75753 0.0
H243 H 0.98352 0.78663 0.743 0.0
H244 H 0.05537 0.91836 0.71603 0.0
H245 H 0.16279 0.81219 0.75217 0.0
H246 H 0.12496 0.79935 0.72988 0.0
H247 H 0.11449 0.80193 0.76336 0.0
C248 C 0.01374 0.8245 0.68644 0.0
C249 C 0.98989 0.80489 0.70388 0.0
C250 C 0.04768 0.84297 0.69472 0.0
C251 C 0.05843 0.84164 0.72051 0.0
C252 C 0.03596 0.81948 0.7375 0.0
H253 H 0.12738 0.02555 0.81547 0.0
H254 H 0.09871 0.97059 0.79284 0.0
C255 C 0.00177 0.80145 0.72927 0.0
C256 C 0.08762 0.86942 0.73062 0.0
H257 H 0.16563 0.87697 0.77061 0.0
C258 C 0.07995 0.90922 0.72751 0.0
C259 C 0.12004 0.85766 0.74534 0.0
C260 C 0.13137 0.81544 0.74768 0.0
C261 C 0.10208 0.93745 0.74003 0.0
C262 C 0.13226 0.92567 0.75665 0.0
C263 C 0.14189 0.88598 0.75837 0.0
C264 C 0.15185 0.9544 0.77338 0.0
C265 C 0.09215 0.97976 0.73577 0.0
C266 C 0.19189 0.96196 0.77128 0.0
C267 C 0.20858 0.99289 0.78481 0.0
C268 C 0.18522 0.01692 0.8002 0.0
C269 C 0.14574 0.00796 0.80327 0.0
C270 C 0.1294 0.97661 0.79034 0.0
H271 H 0.07756 0.98428 0.71716 0.0
H272 H 0.07178 0.98956 0.75086 0.0
H273 H 0.11855 0.99826 0.73648 0.0
H274 H 0.20983 0.94502 0.75844 0.0
H275 H 0.23922 0.99918 0.78231 0.0
H276 H 0.51322 0.7484 0.04348 0.0
H277 H 0.57012 0.72056 0.02215 0.0
H278 H 0.55751 0.61576 0.06643 0.0
H279 H 0.50083 0.64375 0.0879 0.0
H280 H 0.63992 0.63711 0.04723 0.0
H281 H 0.5208 0.63253 0.97531 0.0
H282 H 0.53332 0.67887 0.98881 0.0
H283 H 0.51116 0.64234 0.0084 0.0
C284 C 0.52431 0.72053 0.0499 0.0
C285 C 0.50293 0.69819 0.06737 0.0
C286 C 0.55658 0.70449 0.03752 0.0
C287 C 0.56748 0.66587 0.0424 0.0
C288 C 0.54956 0.64566 0.06244 0.0
H289 H 0.61193 0.46127 0.96678 0.0
H290 H 0.59004 0.52047 0.98765 0.0
C291 C 0.51736 0.66179 0.0749 0.0
C292 C 0.58978 0.64357 0.02319 0.0
H293 H 0.57657 0.59598 0.96693 0.0
C294 C 0.62661 0.62874 0.02938 0.0
C295 C 0.57206 0.63264 -1e-05 0.0
C296 C 0.5321 0.64714 0.99261 0.0
C297 C 0.6454 0.60167 0.01347 0.0
C298 C 0.62664 0.58918 0.99098 0.0
C299 C 0.59085 0.60575 0.98415 0.0
C300 C 0.64012 0.55458 0.97666 0.0
C301 C 0.684 0.58478 0.02153 0.0
C302 C 0.67522 0.55435 0.96298 0.0
C303 C 0.68797 0.52024 0.95093 0.0
C304 C 0.66575 0.48594 0.95239 0.0
C305 C 0.62997 0.48695 0.96537 0.0
C306 C 0.61733 0.52085 0.97731 0.0
H307 H 0.69292 0.59491 0.0407 0.0
H308 H 0.68261 0.55252 0.02165 0.0
H309 H 0.70675 0.59349 0.00768 0.0
H310 H 0.69292 0.58031 0.96191 0.0
H311 H 0.71559 0.52058 0.94108 0.0
H312 H 0.08802 0.29533 0.24055 0.0
H313 H 0.09602 0.34559 0.27313 0.0
H314 H 0.2106 0.37103 0.24399 0.0
H315 H 0.20275 0.32011 0.2115 0.0
H316 H 0.16603 0.33868 0.30837 0.0
H317 H 0.14974 0.47915 0.25645 0.0
H318 H 0.12762 0.4346 0.24549 0.0
H319 H 0.1789 0.44187 0.24166 0.0
C320 C 0.11446 0.31242 0.24082 0.0
C321 C 0.14487 0.30439 0.22386 0.0
C322 C 0.11901 0.34083 0.25936 0.0
C323 C 0.15386 0.36161 0.26083 0.0
C324 C 0.18348 0.35514 0.24292 0.0
H325 H 0.2703 0.49367 0.37351 0.0
H326 H 0.24725 0.43865 0.34816 0.0
C327 C 0.17906 0.32633 0.22449 0.0
C328 C 0.1607 0.38722 0.28261 0.0
H329 H 0.17119 0.48212 0.29912 0.0
C330 C 0.16697 0.37009 0.30651 0.0
C331 C 0.16148 0.42792 0.27985 0.0
C332 C 0.15387 0.44723 0.25455 0.0
C333 C 0.1751 0.39296 0.32785 0.0
C334 C 0.17691 0.43366 0.32496 0.0
C335 C 0.16969 0.45075 0.30114 0.0
C336 C 0.18788 0.45955 0.34592 0.0
C337 C 0.18175 0.37368 0.35325 0.0
C338 C 0.16162 0.48826 0.35384 0.0
C339 C 0.17473 0.51967 0.36803 0.0
C340 C 0.21423 0.52266 0.37442 0.0
C341 C 0.23968 0.49186 0.3688 0.0
C342 C 0.22655 0.46046 0.35441 0.0
H343 H 0.17175 0.34297 0.35334 0.0
H344 H 0.2133 0.374 0.35767 0.0
H345 H 0.16638 0.38981 0.36856 0.0
H346 H 0.13167 0.48784 0.34744 0.0
H347 H 0.15453 0.54294 0.37249 0.0
H348 H 0.9906 0.63163 0.64952 0.0
H349 H 0.0449 0.61466 0.62167 0.0
H350 H 0.07094 0.73654 0.61215 0.0
H351 H 0.01817 0.75324 0.64103 0.0
H352 H 0.03368 0.63624 0.57437 0.0
H353 H 0.1771 0.69237 0.60407 0.0
H354 H 0.13712 0.68746 0.62612 0.0
H355 H 0.14056 0.72952 0.60576 0.0
C356 C 0.00974 0.65453 0.64292 0.0
C357 C 0.00016 0.69368 0.64719 0.0
C358 C 0.04041 0.64489 0.62669 0.0
C359 C 0.06158 0.67432 0.6144 0.0
C360 C 0.05544 0.71322 0.62156 0.0
H361 H 0.17879 0.69312 0.46897 0.0
H362 H 0.13323 0.70294 0.50459 0.0
C363 C 0.02528 0.7228 0.63827 0.0
C364 C 0.08335 0.66523 0.59076 0.0
H365 H 0.16854 0.68133 0.55912 0.0
C366 C 0.06341 0.6456 0.57125 0.0
C367 C 0.12187 0.67796 0.58645 0.0
C368 C 0.14548 0.69765 0.60684 0.0
C369 C 0.08082 0.63877 0.54755 0.0
C370 C 0.11891 0.65216 0.5432 0.0
C371 C 0.139 0.67161 0.56257 0.0
C372 C 0.13954 0.64438 0.51917 0.0
C373 C 0.05841 0.61778 0.52713 0.0
C374 C 0.15678 0.6079 0.51531 0.0
C375 C 0.18281 0.60245 0.49526 0.0
C376 C 0.19138 0.63327 0.47873 0.0
C377 C 0.17199 0.66893 0.48143 0.0
C378 C 0.14628 0.67456 0.50173 0.0
H379 H 0.02755 0.61296 0.53255 0.0
H380 H 0.05936 0.63462 0.5091 0.0
H381 H 0.07223 0.58911 0.52348 0.0
H382 H 0.15198 0.58443 0.52872 0.0
H383 H 0.19798 0.57491 0.49356 0.0
H384 H 0.72807 0.50947 0.86759 0.0
H385 H 0.75363 0.55543 0.83606 0.0
H386 H 0.84896 0.58283 0.88602 0.0
H387 H 0.82406 0.53662 0.91736 0.0
H388 H 0.79265 0.64368 0.84068 0.0
H389 H 0.88644 0.5155 0.81805 0.0
H390 H 0.83818 0.50978 0.83102 0.0
H391 H 0.87656 0.52757 0.85079 0.0
C392 C 0.75348 0.52654 0.87231 0.0
C393 C 0.77469 0.51896 0.8946 0.0
C394 C 0.76812 0.55263 0.85426 0.0
C395 C 0.80351 0.57172 0.85869 0.0
C396 C 0.82178 0.568 0.88231 0.0
H397 H 0.93962 0.70984 0.75026 0.0
H398 H 0.92701 0.66971 0.78825 0.0
C399 C 0.80744 0.54177 0.90018 0.0
C400 C 0.8246 0.59009 0.83748 0.0
H401 H 0.89389 0.57111 0.79249 0.0
C402 C 0.81509 0.62812 0.83031 0.0
C403 C 0.85385 0.56943 0.82413 0.0
C404 C 0.86457 0.52824 0.83121 0.0
C405 C 0.83376 0.64588 0.80964 0.0
C406 C 0.86233 0.62487 0.79592 0.0
C407 C 0.87238 0.58714 0.80339 0.0
C408 C 0.87762 0.64017 0.77179 0.0
C409 C 0.82196 0.68649 0.80185 0.0
C410 C 0.85535 0.63489 0.74985 0.0
C411 C 0.86222 0.6578 0.72854 0.0
C412 C 0.89203 0.68553 0.72866 0.0
C413 C 0.91714 0.68784 0.74961 0.0
C414 C 0.90977 0.66526 0.77129 0.0
H415 H 0.80189 0.70016 0.81582 0.0
H416 H 0.84811 0.7051 0.79976 0.0
H417 H 0.80723 0.68549 0.78309 0.0
H418 H 0.83025 0.61588 0.75007 0.0
H419 H 0.84162 0.65675 0.71305 0.0
H420 H 0.94991 0.29528 0.15834 0.0
H421 H 0.90891 0.31049 0.12182 0.0
H422 H 0.96192 0.21646 0.07983 0.0
H423 H 0.00144 0.19985 0.11663 0.0
H424 H 0.94193 0.33638 0.07958 0.0
H425 H 0.85287 0.20718 0.05599 0.0
H426 H 0.87769 0.21189 0.08602 0.0
H427 H 0.90376 0.19621 0.05811 0.0
C428 C 0.95173 0.27693 0.14165 0.0
C429 C 0.9796 0.2471 0.14007 0.0
C430 C 0.92849 0.28579 0.12075 0.0
C431 C 0.93278 0.26498 0.09799 0.0
C432 C 0.95775 0.23267 0.09726 0.0
H433 H 0.83353 0.31267 0.94851 0.0
H434 H 0.8823 0.29339 0.9802 0.0
C435 C 0.98049 0.22329 0.11836 0.0
C436 C 0.91511 0.28025 0.0744 0.0
H437 H 0.85612 0.25695 0.02473 0.0
C438 C 0.92304 0.31901 0.06764 0.0
C439 C 0.89117 0.25735 0.05859 0.0
C440 C 0.88058 0.21598 0.06516 0.0
C441 C 0.90678 0.33582 0.04584 0.0
C442 C 0.88215 0.31315 0.03042 0.0
C443 C 0.87542 0.27404 0.03657 0.0
C444 C 0.85889 0.33043 0.0098 0.0
C445 C 0.91566 0.37776 0.03971 0.0
C446 C 0.83037 0.35807 0.01589 0.0
C447 C 0.80301 0.36916 0.99782 0.0
C448 C 0.80382 0.35282 0.97341 0.0
C449 C 0.83332 0.32649 0.96691 0.0
C450 C 0.86079 0.31525 0.98506 0.0
H451 H 0.94373 0.38699 0.04821 0.0
H452 H 0.9168 0.38271 0.01885 0.0
H453 H 0.8924 0.39652 0.04776 0.0
H454 H 0.82788 0.36941 0.03503 0.0
H455 H 0.78033 0.38954 0.00319 0.0
H456 H 0.56703 0.19533 0.50443 0.0
H457 H 0.57429 0.14806 0.4701 0.0
H458 H 0.69671 0.13763 0.48725 0.0
H459 H 0.68883 0.18381 0.52257 0.0
H460 H 0.61532 0.16025 0.42898 0.0
H461 H 0.66943 0.0261 0.47528 0.0
H462 H 0.64882 0.06589 0.49315 0.0
H463 H 0.69895 0.06722 0.48321 0.0
C464 C 0.59524 0.18205 0.50122 0.0
C465 C 0.62745 0.19296 0.51588 0.0
C466 C 0.5994 0.15524 0.48159 0.0
C467 C 0.63602 0.13931 0.47602 0.0
C468 C 0.66802 0.14898 0.49146 0.0
H469 H 0.74033 0.01643 0.35334 0.0
H470 H 0.7205 0.07154 0.37975 0.0
C471 C 0.66365 0.1754 0.51152 0.0
C472 C 0.64119 0.1158 0.45264 0.0
H473 H 0.67849 0.03053 0.43012 0.0
C474 C 0.62888 0.13175 0.42929 0.0
C475 C 0.65836 0.0784 0.45304 0.0
C476 C 0.66923 0.05823 0.47755 0.0
C477 C 0.63441 0.11174 0.40631 0.0
C478 C 0.6533 0.07542 0.40671 0.0
C479 C 0.66478 0.059 0.42998 0.0
C480 C 0.66078 0.05281 0.38341 0.0
C481 C 0.62045 0.12938 0.38171 0.0
C482 C 0.63287 0.02609 0.37516 0.0
C483 C 0.64412 0.99466 0.36006 0.0
C484 C 0.68341 0.98963 0.35335 0.0
C485 C 0.70983 0.01979 0.35813 0.0
C486 C 0.69864 0.05108 0.37347 0.0
H487 H 0.60664 0.15831 0.38455 0.0
H488 H 0.64529 0.13249 0.36835 0.0
H489 H 0.59901 0.10966 0.37268 0.0
H490 H 0.60353 0.02704 0.3827 0.0
H491 H 0.62328 0.97168 0.3566 0.0
H492 H 0.2526 0.10441 0.75048 0.0
H493 H 0.28939 0.11356 0.71139 0.0
H494 H 0.39644 0.09544 0.75264 0.0
H495 H 0.35911 0.0875 0.79226 0.0
H496 H 0.39693 0.16267 0.72967 0.0
H497 H 0.34845 0.05512 0.659 0.0
H498 H 0.30732 0.07944 0.67266 0.0
H499 H 0.33825 0.04976 0.69248 0.0
C500 C 0.28392 0.10071 0.75095 0.0
C501 C 0.30318 0.09506 0.77418 0.0
C502 C 0.30497 0.10579 0.72855 0.0
C503 C 0.34574 0.10498 0.72891 0.0
C504 C 0.36495 0.09604 0.75187 0.0
H505 H 0.50094 0.14181 0.60543 0.0
H506 H 0.44889 0.11631 0.63185 0.0
C507 C 0.34374 0.0911 0.77444 0.0
C508 C 0.36769 0.1201 0.70665 0.0
H509 H 0.37546 0.11457 0.64199 0.0
C510 C 0.39262 0.15178 0.71053 0.0
C511 C 0.36199 0.10607 0.68164 0.0
C512 C 0.33785 0.07046 0.67626 0.0
C513 C 0.41194 0.16988 0.69024 0.0
C514 C 0.4048 0.15712 0.66504 0.0
C515 C 0.38005 0.1252 0.66116 0.0
C516 C 0.4271 0.17289 0.64308 0.0
C517 C 0.44088 0.20153 0.69631 0.0
C518 C 0.42977 0.21317 0.63844 0.0
C519 C 0.46005 0.22789 0.62336 0.0
C520 C 0.48718 0.20227 0.61251 0.0
C521 C 0.48035 0.16208 0.61373 0.0
C522 C 0.45068 0.14747 0.62901 0.0
H523 H 0.44961 0.20107 0.71664 0.0
H524 H 0.46754 0.19855 0.68453 0.0
H525 H 0.42753 0.23032 0.69236 0.0
H526 H 0.41081 0.23331 0.64832 0.0
H527 H 0.46481 0.25902 0.62271 0.0
H528 H 0.29841 0.76721 0.00168 0.0
H529 H 0.28971 0.80789 0.96396 0.0
H530 H 0.39064 0.87491 0.98458 0.0
H531 H 0.39923 0.83424 0.0229 0.0
H532 H 0.29325 0.90369 0.96119 0.0
H533 H 0.40244 0.81448 0.90868 0.0
H534 H 0.37562 0.79372 0.93495 0.0
H535 H 0.41125 0.8305 0.94083 0.0
C536 C 0.31817 0.79125 -0.00148 0.0
C537 C 0.34943 0.79772 0.01512 0.0
C538 C 0.31328 0.81429 0.97696 0.0
C539 C 0.33985 0.84386 0.9714 0.0
C540 C 0.36999 0.85196 0.9886 0.0
H541 H 0.35981 0.98027 0.83634 0.0
H542 H 0.37365 0.92754 0.86578 0.0
C543 C 0.37464 0.82906 0.01051 0.0
C544 C 0.33655 0.86437 0.94679 0.0
H545 H 0.36442 0.8581 0.88456 0.0
C546 C 0.30892 0.89403 0.94442 0.0
C547 C 0.35749 0.85184 0.92516 0.0
C548 C 0.38848 0.8209 0.92727 0.0
C549 C 0.30122 0.91138 0.92079 0.0
C550 C 0.32018 0.89703 0.89863 0.0
C551 C 0.34885 0.86811 0.90127 0.0
C552 C 0.31302 0.91466 0.87318 0.0
C553 C 0.27377 0.94578 0.92013 0.0
C554 C 0.27486 0.9206 0.86428 0.0
C555 C 0.26706 0.95144 0.84758 0.0
C556 C 0.29742 0.97643 0.84053 0.0
C557 C 0.33577 0.96245 0.8428 0.0
C558 C 0.34377 0.93265 0.86015 0.0
H559 H 0.27033 0.95923 0.93921 0.0
H560 H 0.28427 0.96849 0.90678 0.0
H561 H 0.24461 0.936 0.91384 0.0
H562 H 0.25074 0.90516 0.87284 0.0
H563 H 0.23706 0.9603 0.84489 0.0
H564 H 0.49671 0.7442 0.1429 0.0
H565 H 0.54848 0.77629 0.16691 0.0
H566 H 0.51052 0.88761 0.13786 0.0
H567 H 0.45641 0.85576 0.11607 0.0
H568 H 0.60817 0.81941 0.16047 0.0
H569 H 0.49811 0.90925 0.21082 0.0
H570 H 0.48471 0.87117 0.18913 0.0
H571 H 0.49919 0.9182 0.17728 0.0
C572 C 0.4997 0.77545 0.14161 0.0
C573 C 0.47217 0.79774 0.12839 0.0
C574 C 0.52932 0.79383 0.15521 0.0
C575 C 0.53241 0.83465 0.1551 0.0
C576 C 0.50757 0.85636 0.13932 0.0
H577 H 0.72986 0.92364 0.24257 0.0
H578 H 0.68316 0.91976 0.20742 0.0
C579 C 0.47704 0.83814 0.12661 0.0
C580 C 0.55964 0.85429 0.17284 0.0
H581 H 0.56353 0.91998 0.22153 0.0
C582 C 0.59845 0.84158 0.1737 0.0
C583 C 0.54681 0.8829 0.19042 0.0
C584 C 0.50488 0.89591 0.19209 0.0
C585 C 0.62439 0.85563 0.19207 0.0
C586 C 0.61168 0.88465 0.20932 0.0
C587 C 0.5733 0.89827 0.20798 0.0
C588 C 0.63634 0.89748 0.2308 0.0
C589 C 0.66439 0.83749 0.19376 0.0
C590 C 0.62423 0.88991 0.25586 0.0
C591 C 0.65048 0.89329 0.27597 0.0
C592 C 0.68899 0.90419 0.27116 0.0
C593 C 0.70002 0.91554 0.24658 0.0
C594 C 0.67361 0.91276 0.22651 0.0
H595 H 0.66622 0.8097 0.18307 0.0
H596 H 0.68612 0.85774 0.18554 0.0
H597 H 0.67245 0.83167 0.21385 0.0
H598 H 0.59551 0.87835 0.25963 0.0
H599 H 0.64174 0.88383 0.2948 0.0
H600 H 0.24307 0.1527 0.92465 0.0
H601 H 0.192 0.18361 0.94979 0.0
H602 H 0.11925 0.08252 0.94001 0.0
H603 H 0.1716 0.05086 0.91549 0.0
H604 H 0.1173 0.20421 0.9479 0.0
H605 H 0.138 0.08075 0.01542 0.0
H606 H 0.16809 0.08676 0.98769 0.0
H607 H 0.11939 0.06838 0.98462 0.0
C608 C 0.21581 0.13751 0.9275 0.0
C609 C 0.21112 0.09941 0.91882 0.0
C610 C 0.18657 0.15519 0.94168 0.0
C611 C 0.15225 0.13491 0.94738 0.0
C612 C 0.14597 0.09819 0.93641 0.0
H613 H 0.01798 0.26727 0.06209 0.0
H614 H 0.0311 0.23285 0.02226 0.0
C615 C 0.17561 0.08025 0.92238 0.0
C616 C 0.12681 0.15027 0.96776 0.0
H617 H 0.10318 0.13426 0.0299 0.0
C618 C 0.11356 0.18881 0.96576 0.0
C619 C 0.12239 0.13008 0.99108 0.0
C620 C 0.1379 0.08934 0.99504 0.0
C621 C 0.09896 0.2088 0.987 0.0
C622 C 0.09575 0.18893 0.01052 0.0
C623 C 0.10593 0.14944 0.01189 0.0
C624 C 0.0864 0.2092 0.03464 0.0
C625 C 0.0901 0.25165 0.9844 0.0
C626 C 0.11237 0.2062 0.05518 0.0
C627 C 0.10434 0.22474 0.07813 0.0
C628 C 0.07051 0.24723 0.08087 0.0
C629 C 0.0445 0.2504 0.06036 0.0
C630 C 0.05209 0.23099 0.03754 0.0
H631 H 0.10322 0.26426 0.96693 0.0
H632 H 0.05814 0.25585 0.98322 0.0
H633 H 0.10104 0.2681 0.00106 0.0
H634 H 0.13908 0.1896 0.05343 0.0
H635 H 0.12492 0.22191 0.09361 0.0
H636 H 0.36981 0.61975 0.14369 0.0
H637 H 0.37622 0.58424 0.18376 0.0
H638 H 0.4695 0.66035 0.20606 0.0
H639 H 0.46281 0.69616 0.16598 0.0
H640 H 0.43696 0.54988 0.22 0.0
H641 H 0.36802 0.69018 0.24794 0.0
H642 H 0.37223 0.67506 0.21525 0.0
H643 H 0.41387 0.69396 0.23165 0.0
C644 C 0.39318 0.62749 0.15652 0.0
C645 C 0.416 0.66058 0.15171 0.0
C646 C 0.39676 0.60718 0.17947 0.0
C647 C 0.423 0.61993 0.19803 0.0
C648 C 0.4491 0.65 0.19194 0.0
H649 H 0.39055 0.61955 0.35944 0.0
H650 H 0.42672 0.61507 0.31955 0.0
C651 C 0.44556 0.67029 0.1689 0.0
C652 C 0.41647 0.60863 0.22499 0.0
H653 H 0.37739 0.64406 0.27998 0.0
C654 C 0.42436 0.57049 0.23326 0.0
C655 C 0.39912 0.63531 0.24208 0.0
C656 C 0.38743 0.67583 0.23387 0.0
C657 C 0.41576 0.55868 0.25839 0.0
C658 C 0.39879 0.58563 0.27542 0.0
C659 C 0.39106 0.62361 0.26704 0.0
C660 C 0.38629 0.57555 0.30168 0.0
C661 C 0.42481 0.51769 0.26666 0.0
C662 C 0.35293 0.55272 0.30556 0.0
C663 C 0.33242 0.55494 0.32861 0.0
C664 C 0.34501 0.58013 0.34789 0.0
C665 C 0.38075 0.59928 0.34506 0.0
C666 C 0.4013 0.59692 0.32217 0.0
H667 H 0.44414 0.50253 0.25291 0.0
H668 H 0.43886 0.51768 0.28567 0.0
H669 H 0.39729 0.50106 0.26828 0.0
H670 H 0.34039 0.53659 0.28993 0.0
H671 H 0.3044 0.54073 0.33013 0.0
H672 H 0.82064 0.96598 0.41648 0.0
H673 H 0.86396 0.96744 0.45326 0.0
H674 H 0.9054 0.85255 0.43443 0.0
H675 H 0.85987 0.84999 0.39916 0.0
H676 H 0.85781 0.85583 0.47513 0.0
H677 H 0.97335 0.96696 0.48579 0.0
H678 H 0.92881 0.98485 0.47216 0.0
H679 H 0.95718 0.94944 0.45517 0.0
C680 C 0.84051 0.94191 0.41955 0.0
C681 C 0.83773 0.90809 0.40477 0.0
C682 C 0.86567 0.943 0.44034 0.0
C683 C 0.88811 0.9102 0.44647 0.0
C684 C 0.88894 0.87846 0.42968 0.0
H685 H 0.97131 0.82118 0.58622 0.0
H686 H 0.97231 0.86165 0.54793 0.0
C687 C 0.86322 0.87709 0.40926 0.0
C688 C 0.89844 0.90339 0.47332 0.0
H689 H 0.94856 0.93849 0.52438 0.0
C690 C 0.87816 0.87359 0.48573 0.0
C691 C 0.9244 0.92702 0.48717 0.0
C692 C 0.94748 0.9587 0.47439 0.0
C693 C 0.88291 0.86663 0.5116 0.0
C694 C 0.90778 0.89105 0.5258 0.0
C695 C 0.9288 0.92056 0.51346 0.0
C696 C 0.9137 0.88327 0.55305 0.0
C697 C 0.86133 0.83278 0.52338 0.0
C698 C 0.88147 0.88453 0.56946 0.0
C699 C 0.88033 0.86024 0.59069 0.0
C700 C 0.91223 0.83647 0.59646 0.0
C701 C 0.94653 0.83969 0.58213 0.0
C702 C 0.94729 0.86309 0.56045 0.0
H703 H 0.85042 0.81218 0.50879 0.0
H704 H 0.88027 0.81642 0.53674 0.0
H705 H 0.83584 0.84391 0.53413 0.0
H706 H 0.85519 0.89974 0.56384 0.0
H707 H 0.85296 0.85648 0.60053 0.0
H708 H 0.67658 0.29951 0.67551 0.0
H709 H 0.6757 0.34035 0.71348 0.0
H710 H 0.56973 0.39516 0.68785 0.0
H711 H 0.57125 0.35469 0.64913 0.0
H712 H 0.63604 0.44432 0.71586 0.0
H713 H 0.58131 0.31361 0.76574 0.0
H714 H 0.61926 0.30277 0.74329 0.0
H715 H 0.57372 0.3222 0.73213 0.0
C716 C 0.654 0.32135 0.67753 0.0
C717 C 0.62412 0.32433 0.65958 0.0
C718 C 0.65328 0.34436 0.69923 0.0
C719 C 0.62214 0.36992 0.7036 0.0
C720 C 0.59379 0.37532 0.68476 0.0
H721 H 0.68437 0.44117 0.85935 0.0
H722 H 0.63259 0.43298 0.82721 0.0
C723 C 0.59489 0.35256 0.66267 0.0
C724 C 0.61863 0.38764 0.72898 0.0
H725 H 0.62396 0.35624 0.79035 0.0
C726 C 0.63157 0.42584 0.73234 0.0
C727 C 0.61183 0.36378 0.75047 0.0
C728 C 0.59533 0.3234 0.7478 0.0
C729 C 0.6435 0.43862 0.7564 0.0
C730 C 0.64323 0.41219 0.77699 0.0
C731 C 0.62463 0.37626 0.77438 0.0
C732 C 0.67239 0.41613 0.79727 0.0
C733 C 0.66083 0.47859 0.75914 0.0
C734 C 0.71132 0.40857 0.791 0.0
C735 C 0.74052 0.41377 0.80889 0.0
C736 C 0.73118 0.42576 0.83356 0.0
C737 C 0.69201 0.43183 0.84031 0.0
C738 C 0.6626 0.42727 0.82211 0.0
H739 H 0.65017 0.49863 0.74408 0.0
H740 H 0.65377 0.491 0.77809 0.0
H741 H 0.69297 0.47649 0.75752 0.0
H742 H 0.71917 0.39922 0.77199 0.0
H743 H 0.77047 0.40837 0.80346 0.0
H744 H 0.15637 0.14699 0.10181 0.0
H745 H 0.18739 0.09257 0.0791 0.0
H746 H 0.25587 0.06642 0.1457 0.0
H747 H 0.22659 0.1209 0.16782 0.0
H748 H 0.29737 0.05305 0.10434 0.0
H749 H 0.15211 0.98364 0.09442 0.0
H750 H 0.15789 0.02952 0.07854 0.0
H751 H 0.15919 0.02729 0.11269 0.0
C752 C 0.17874 0.13017 0.11131 0.0
C753 C 0.18845 0.13787 0.13679 0.0
C754 C 0.19615 0.0988 0.09843 0.0
C755 C 0.22321 0.07458 0.11093 0.0
C756 C 0.23492 0.0843 0.13563 0.0
H757 H 0.2621 0.83543 0.11975 0.0
H758 H 0.2399 0.90244 0.11832 0.0
C759 C 0.21789 0.11551 0.14835 0.0
C760 C 0.23726 0.03721 0.09982 0.0
H761 H 0.20633 0.9461 0.08388 0.0
C762 C 0.27751 0.02978 0.09944 0.0
C763 C 0.21132 0.00669 0.0937 0.0
C764 C 0.16773 0.01187 0.095 0.0
C765 C 0.2924 0.99231 0.09471 0.0
C766 C 0.26636 0.96157 0.08923 0.0
C767 C 0.2263 0.96963 0.088 0.0
C768 C 0.27913 0.92008 0.08822 0.0
C769 C 0.33561 0.98557 0.09744 0.0
C770 C 0.30816 0.90701 0.07136 0.0
C771 C 0.32148 0.86836 0.0724 0.0
C772 C 0.30545 0.84193 0.08997 0.0
C773 C 0.27511 0.85476 0.10588 0.0
C774 C 0.26231 0.89327 0.1051 0.0
H775 H 0.3503 0.01028 0.10702 0.0
H776 H 0.34154 0.95868 0.1085 0.0
H777 H 0.3488 0.98219 0.07831 0.0
H778 H 0.321 0.92677 0.05771 0.0
H779 H 0.34494 0.85953 0.05993 0.0
H780 H 0.39201 0.7249 0.4399 0.0
H781 H 0.45105 0.74991 0.41981 0.0
H782 H 0.40783 0.71596 0.34626 0.0
H783 H 0.34828 0.69163 0.366 0.0
H784 H 0.48733 0.68036 0.37381 0.0
H785 H 0.47232 0.83994 0.3579 0.0
H786 H 0.45122 0.81886 0.38617 0.0
H787 H 0.43135 0.8072 0.35565 0.0
C788 C 0.39442 0.72393 0.41937 0.0
C789 C 0.36573 0.70572 0.40459 0.0
C790 C 0.42815 0.7382 0.40795 0.0
C791 C 0.43362 0.73443 0.38167 0.0
C792 C 0.40386 0.71913 0.3666 0.0
H793 H 0.6539 0.81255 0.31683 0.0
H794 H 0.58815 0.78542 0.3167 0.0
C795 C 0.36987 0.70528 0.37796 0.0
C796 C 0.47249 0.74107 0.37081 0.0
H797 H 0.53543 0.81276 0.35369 0.0
C798 C 0.49781 0.70917 0.36894 0.0
C799 C 0.48561 0.7786 0.36444 0.0
C800 C 0.45884 0.8133 0.36597 0.0
C801 C 0.53684 0.71417 0.362 0.0
C802 C 0.55068 0.75205 0.35696 0.0
C803 C 0.52468 0.78369 0.35749 0.0
C804 C 0.59265 0.76034 0.35433 0.0
C805 C 0.56317 0.67907 0.36088 0.0
C806 C 0.61738 0.7537 0.37509 0.0
C807 C 0.65486 0.76908 0.37522 0.0
C808 C 0.66813 0.79152 0.35464 0.0
C809 C 0.64463 0.79506 0.33287 0.0
C810 C 0.60693 0.7799 0.33285 0.0
H811 H 0.54642 0.65213 0.35703 0.0
H812 H 0.58585 0.6825 0.34599 0.0
H813 H 0.57786 0.67543 0.37951 0.0
H814 H 0.60673 0.73921 0.39202 0.0
H815 H 0.67225 0.76605 0.39228 0.0
H816 H 0.72705 0.17278 0.58039 0.0
H817 H 0.76486 0.11206 0.58169 0.0
H818 H 0.65932 0.04767 0.59545 0.0
H819 H 0.62185 0.10787 0.59336 0.0
H820 H 0.76809 0.073 0.62524 0.0
H821 H 0.71596 0.97135 0.5517 0.0
H822 H 0.70592 0.0229 0.55028 0.0
H823 H 0.67617 0.99127 0.56949 0.0
C824 C 0.7119 0.14532 0.58218 0.0
C825 C 0.67161 0.14467 0.58622 0.0
C826 C 0.73347 0.11071 0.58322 0.0
C827 C 0.71499 0.07512 0.5885 0.0
C828 C 0.67427 0.07437 0.59064 0.0
H829 H 0.76209 0.85675 0.66001 0.0
H830 H 0.73552 0.91556 0.63999 0.0
C831 C 0.65279 0.10883 0.58941 0.0
C832 C 0.7381 0.04048 0.59631 0.0
H833 H 0.74531 0.942 0.58901 0.0
C834 C 0.76377 0.0445 0.61692 0.0
C835 C 0.73211 0.00316 0.58572 0.0
C836 C 0.7063 0.997 0.56291 0.0
C837 C 0.78217 0.01212 0.62795 0.0
C838 C 0.77519 0.97471 0.61786 0.0
C839 C 0.7505 0.97073 0.59677 0.0
C840 C 0.7917 0.93917 0.62974 0.0
C841 C 0.80742 0.01802 0.65108 0.0
C842 C 0.83209 0.93307 0.63072 0.0
C843 C 0.84725 0.89964 0.6423 0.0
C844 C 0.82224 0.87151 0.6526 0.0
C845 C 0.78191 0.87787 0.65191 0.0
C846 C 0.76675 0.91129 0.6404 0.0
H847 H 0.80318 0.04725 0.65964 0.0
H848 H 0.80117 0.99564 0.66577 0.0
H849 H 0.83844 0.01519 0.64553 0.0
H850 H 0.85185 0.95404 0.62242 0.0
H851 H 0.8785 0.8956 0.64303 0.0
H852 H 0.37144 0.17146 0.90185 0.0
H853 H 0.42744 0.21337 0.89654 0.0
H854 H 0.398 0.23076 0.81765 0.0
H855 H 0.34141 0.18736 0.82275 0.0
H856 H 0.47667 0.2074 0.82636 0.0
H857 H 0.43798 0.33032 0.88938 0.0
H858 H 0.43093 0.28408 0.90445 0.0
H859 H 0.40198 0.29699 0.87719 0.0
C860 C 0.3762 0.18476 0.88342 0.0
C861 C 0.35184 0.17607 0.8627 0.0
C862 C 0.40827 0.20898 0.88047 0.0
C863 C 0.41675 0.22569 0.8568 0.0
C864 C 0.39179 0.21837 0.83616 0.0
H865 H 0.62695 0.37221 0.85951 0.0
H866 H 0.56516 0.34759 0.84252 0.0
C867 C 0.35931 0.19392 0.83912 0.0
C868 C 0.45359 0.24786 0.85379 0.0
H869 H 0.50666 0.31952 0.88218 0.0
C870 C 0.48293 0.23259 0.83803 0.0
C871 C 0.46189 0.28068 0.86905 0.0
C872 C 0.43137 0.29919 0.88579 0.0
C873 C 0.52098 0.24765 0.8385 0.0
C874 C 0.52977 0.27877 0.85502 0.0
C875 C 0.49986 0.29566 0.86948 0.0
C876 C 0.57038 0.29098 0.86021 0.0
C877 C 0.552 0.22931 0.82215 0.0
C878 C 0.59427 0.26692 0.87508 0.0
C879 C 0.62924 0.28099 0.88493 0.0
C880 C 0.64122 0.3193 0.87988 0.0
C881 C 0.61881 0.34237 0.86332 0.0
C882 C 0.58336 0.32845 0.85379 0.0
H883 H 0.5393 0.21133 0.80673 0.0
H884 H 0.57085 0.25202 0.81356 0.0
H885 H 0.57064 0.21033 0.83414 0.0
H886 H 0.58461 0.2381 0.88051 0.0
H887 H 0.64577 0.26267 0.89777 0.0
H888 H 0.76194 0.6755 0.61706 0.0
H889 H 0.73196 0.61076 0.61534 0.0
H890 H 0.81441 0.56864 0.67062 0.0
H891 H 0.84445 0.63312 0.67224 0.0
H892 H 0.80739 0.53158 0.61538 0.0
H893 H 0.67278 0.53871 0.67417 0.0
H894 H 0.68485 0.58041 0.65486 0.0
H895 H 0.71539 0.56752 0.68116 0.0
C896 C 0.77253 0.65282 0.62961 0.0
C897 C 0.80451 0.65969 0.64557 0.0
C898 C 0.75557 0.61588 0.62854 0.0
C899 C 0.77075 0.58511 0.64307 0.0
C900 C 0.80183 0.5922 0.65964 0.0
H901 H 0.68501 0.34322 0.62843 0.0
H902 H 0.71676 0.40059 0.64702 0.0
C903 C 0.81849 0.62924 0.66093 0.0
C904 C 0.75732 0.54484 0.63844 0.0
H905 H 0.68017 0.48387 0.64719 0.0
C906 C 0.77986 0.52087 0.62262 0.0
C907 C 0.72161 0.53095 0.6481 0.0
C908 C 0.69713 0.55549 0.66566 0.0
C909 C 0.7666 0.48401 0.61516 0.0
C910 C 0.72991 0.47091 0.62374 0.0
C911 C 0.70829 0.49404 0.64064 0.0
C912 C 0.71165 0.4356 0.61296 0.0
C913 C 0.79132 0.45973 0.59754 0.0
C914 C 0.69835 0.43635 0.58781 0.0
C915 C 0.67947 0.40418 0.57749 0.0
C916 C 0.67337 0.37042 0.59212 0.0
C917 C 0.68774 0.36929 0.61712 0.0
C918 C 0.70637 0.40182 0.6276 0.0
H919 H 0.82201 0.46977 0.59717 0.0
H920 H 0.79067 0.42865 0.60332 0.0
H921 H 0.7795 0.46184 0.57796 0.0
H922 H 0.70198 0.46221 0.57625 0.0
H923 H 0.66885 0.40616 0.55815 0.0
H924 H 0.11426 0.11247 0.87723 0.0
H925 H 0.05012 0.13935 0.88881 0.0
H926 H 0.09369 0.25539 0.87695 0.0
H927 H 0.15704 0.22899 0.86508 0.0
H928 H 0.0224 0.19674 0.92539 0.0
H929 H 0.00344 0.24705 0.82597 0.0
H930 H 0.04058 0.21246 0.83498 0.0
H931 H 0.04782 0.26366 0.84014 0.0
C932 C 0.11029 0.14372 0.87756 0.0
C933 C 0.14058 0.16857 0.86984 0.0
C934 C 0.0736 0.15904 0.8841 0.0
C935 C 0.06677 0.19938 0.88306 0.0
C936 C 0.0979 0.22416 0.87724 0.0
H937 H 0.90793 0.37775 0.91322 0.0
H938 H 0.96002 0.32949 0.91141 0.0
C939 C 0.13422 0.20898 0.87056 0.0
C940 C 0.027 0.21605 0.88653 0.0
H941 H 0.96017 0.27438 0.8569 0.0
C942 C 0.0084 0.21307 0.91028 0.0
C943 C 0.0085 0.23719 0.86676 0.0
C944 C 0.0259 0.24002 0.84045 0.0
C945 C 0.97298 0.23257 0.91512 0.0
C946 C 0.95575 0.25531 0.89575 0.0
C947 C 0.97336 0.25677 0.87171 0.0
C948 C 0.9225 0.28193 0.90081 0.0
C949 C 0.95475 0.23023 0.94113 0.0
C950 C 0.88378 0.27096 0.89603 0.0
C951 C 0.85358 0.2987 0.89721 0.0
C952 C 0.86198 0.3377 0.90297 0.0
C953 C 0.90053 0.34787 0.9089 0.0
C954 C 0.93038 0.32034 0.90786 0.0
H955 H 0.97 0.2091 0.95367 0.0
H956 H 0.95549 0.25936 0.9502 0.0
H957 H 0.92374 0.22166 0.93943 0.0
H958 H 0.87719 0.24144 0.89036 0.0
H959 H 0.82426 0.29023 0.89219 0.0
H960 H 0.28297 0.65618 0.12304 0.0
H961 H 0.25026 0.59984 0.14236 0.0
H962 H 0.31466 0.52298 0.09295 0.0
H963 H 0.34605 0.57846 0.07319 0.0
H964 H 0.23937 0.50654 0.09247 0.0
H965 H 0.28927 0.51893 0.19248 0.0
H966 H 0.26574 0.5618 0.18036 0.0
H967 H 0.31118 0.54613 0.16682 0.0
C968 C 0.28999 0.62723 0.11634 0.0
C969 C 0.31668 0.62186 0.09637 0.0
C970 C 0.27168 0.59505 0.12758 0.0
C971 C 0.28042 0.55711 0.11933 0.0
C972 C 0.30743 0.55191 0.09965 0.0
H973 H 0.19086 0.32372 0.14584 0.0
H974 H 0.23698 0.37752 0.13999 0.0
C975 C 0.32521 0.58381 0.08826 0.0
C976 C 0.25985 0.52262 0.12967 0.0
H977 H 0.24088 0.47106 0.18395 0.0
C978 C 0.24002 0.49867 0.11245 0.0
C979 C 0.26076 0.51233 0.15575 0.0
C980 C 0.28317 0.5359 0.17493 0.0
C981 C 0.22067 0.46506 0.12055 0.0
C982 C 0.22126 0.45491 0.1466 0.0
C983 C 0.24091 0.47879 0.16395 0.0
C984 C 0.19874 0.4212 0.15601 0.0
C985 C 0.19891 0.44106 0.10122 0.0
C986 C 0.1631 0.42775 0.16822 0.0
C987 C 0.13679 0.39729 0.17136 0.0
C988 C 0.14592 0.35974 0.16259 0.0
C989 C 0.18323 0.35237 0.15283 0.0
C990 C 0.20946 0.38306 0.14939 0.0
H991 H 0.19662 0.45599 0.08253 0.0
H992 H 0.21436 0.41303 0.09833 0.0
H993 H 0.16913 0.43443 0.10816 0.0
H994 H 0.15438 0.45694 0.1735 0.0
H995 H 0.10827 0.40362 0.17914 0.0
H996 H 0.84688 0.75237 0.34104 0.0
H997 H 0.90648 0.72202 0.35742 0.0
H998 H 0.95441 0.83558 0.37218 0.0
H999 H 0.89492 0.86594 0.35572 0.0
H1000 H 0.98123 0.73019 0.33975 0.0
H1001 H 0.97148 0.77922 0.43983 0.0
H1002 H 0.93082 0.78195 0.41818 0.0
H1003 H 0.96813 0.81855 0.41746 0.0
C1004 C 0.87011 0.77076 0.34796 0.0
C1005 C 0.86609 0.81142 0.34776 0.0
C1006 C 0.90402 0.75344 0.35734 0.0
C1007 C 0.93447 0.77651 0.36662 0.0
C1008 C 0.93082 0.81719 0.36584 0.0
H1009 H 0.17653 0.74487 0.38275 0.0
H1010 H 0.10932 0.7663 0.37728 0.0
C1011 C 0.89696 0.8345 0.35638 0.0
C1012 C 0.97096 0.75819 0.37575 0.0
H1013 H 0.03382 0.75514 0.42604 0.0
C1014 C 0.99243 0.73517 0.35873 0.0
C1015 C 0.98535 0.76439 0.40063 0.0
C1016 C 0.96255 0.78704 0.42018 0.0
C1017 C 0.0288 0.7198 0.36553 0.0
C1018 C 0.04405 0.72776 0.3899 0.0
C1019 C 0.02198 0.74931 0.40733 0.0
C1020 C 0.08434 0.71671 0.3965 0.0
C1021 C 0.05139 0.69608 0.34642 0.0
C1022 C 0.09238 0.68237 0.40997 0.0
C1023 C 0.13095 0.67 0.41326 0.0
C1024 C 0.16182 0.6918 0.40298 0.0
C1025 C 0.15347 0.72733 0.39083 0.0
C1026 C 0.1151 0.73962 0.38762 0.0
H1027 H 0.03355 0.68844 0.32955 0.0
H1028 H 0.07704 0.71292 0.33989 0.0
H1029 H 0.06227 0.66888 0.35537 0.0
H1030 H 0.06884 0.66438 0.41696 0.0
H1031 H 0.13641 0.6424 0.42258 0.0
loop_
_geom_bond_atom_site_label_1
_geom_bond_atom_site_label_2
_geom_bond_distance
_geom_bond_site_symmetry_2
_ccdc_geom_bond_type
Zn0 O6 1.920 . S
Zn0 O12 1.898 . S
Zn0 O15 1.905 . S
Zn1 O9 1.905 . S
Zn1 O10 1.898 . S
Zn1 O18 1.920 . S
Zn2 O5 2.080 . S
Zn2 O8 2.114 . S
Zn2 O11 2.120 . S
Zn2 O13 2.120 . S
Zn2 O14 2.114 . S
Zn2 O17 2.080 . S
C3 O8 1.166 . S
C3 O9 1.182 . S
C4 O10 1.167 . S
C4 O11 1.299 . S
O5 Zn2 2.080 . S
O5 C19 1.305 . S
O6 Zn0 1.920 . S
O6 C19 1.234 . S
C7 O12 1.167 . S
C7 O13 1.299 . S
O8 Zn2 2.114 . S
O8 C3 1.166 . S
O9 Zn1 1.905 . S
O9 C3 1.182 . S
O10 Zn1 1.898 . S
O10 C4 1.167 . S
O11 Zn2 2.120 . S
O11 C4 1.299 . S
O12 Zn0 1.898 . S
O12 C7 1.167 . S
O13 Zn2 2.120 . S
O13 C7 1.299 . S
O14 Zn2 2.114 . S
O14 C16 1.166 . S
O15 Zn0 1.905 . S
O15 C16 1.182 . S
C16 O14 1.166 . S
C16 O15 1.182 . S
O17 Zn2 2.080 . S
O17 C20 1.305 . S
O18 Zn1 1.920 . S
O18 C20 1.234 . S
C19 O5 1.305 . S
C19 O6 1.234 . S
C20 O17 1.305 . S
C20 O18 1.234 . S
Zn21 O27 1.920 . S
Zn21 O33 1.898 . S
Zn21 O36 1.905 . S
Zn22 O30 1.905 . S
Zn22 O31 1.898 . S
Zn22 O39 1.920 . S
Zn23 O26 2.080 . S
Zn23 O29 2.114 . S
Zn23 O32 2.120 . S
Zn23 O34 2.120 . S
Zn23 O35 2.114 . S
Zn23 O38 2.080 . S
C24 O29 1.166 . S
C24 O30 1.182 . S
C25 O31 1.167 . S
C25 O32 1.299 . S
O26 Zn23 2.080 . S
O26 C40 1.305 . S
O27 Zn21 1.920 . S
O27 C40 1.234 . S
C28 O33 1.167 . S
C28 O34 1.299 . S
O29 Zn23 2.114 . S
O29 C24 1.166 . S
O30 Zn22 1.905 . S
O30 C24 1.182 . S
O31 Zn22 1.898 . S
O31 C25 1.167 . S
O32 Zn23 2.120 . S
O32 C25 1.299 . S
O33 Zn21 1.898 . S
O33 C28 1.167 . S
O34 Zn23 2.120 . S
O34 C28 1.299 . S
O35 Zn23 2.114 . S
O35 C37 1.166 . S
O36 Zn21 1.905 . S
O36 C37 1.182 . S
C37 O35 1.166 . S
C37 O36 1.182 . S
O38 Zn23 2.080 . S
O38 C41 1.305 . S
O39 Zn22 1.920 . S
O39 C41 1.234 . S
C40 O26 1.305 . S
C40 O27 1.234 . S
C41 O38 1.305 . S
C41 O39 1.234 . S
Zn42 O48 1.920 . S
Zn42 O54 1.898 . S
Zn42 O57 1.905 . S
Zn43 O51 1.905 . S
Zn43 O52 1.898 . S
Zn43 O60 1.920 . S
Zn44 O47 2.080 . S
Zn44 O50 2.114 . S
Zn44 O53 2.120 . S
Zn44 O55 2.120 . S
Zn44 O56 2.114 . S
Zn44 O59 2.080 . S
C45 O50 1.166 . S
C45 O51 1.182 . S
C46 O52 1.167 . S
C46 O53 1.299 . S
O47 Zn44 2.080 . S
O47 C61 1.305 . S
O48 Zn42 1.920 . S
O48 C61 1.234 . S
C49 O54 1.167 . S
C49 O55 1.299 . S
O50 Zn44 2.114 . S
O50 C45 1.166 . S
O51 Zn43 1.905 . S
O51 C45 1.182 . S
O52 Zn43 1.898 . S
O52 C46 1.167 . S
O53 Zn44 2.120 . S
O53 C46 1.299 . S
O54 Zn42 1.898 . S
O54 C49 1.167 . S
O55 Zn44 2.120 . S
O55 C49 1.299 . S
O56 Zn44 2.114 . S
O56 C58 1.166 . S
O57 Zn42 1.905 . S
O57 C58 1.182 . S
C58 O56 1.166 . S
C58 O57 1.182 . S
O59 Zn44 2.080 . S
O59 C62 1.305 . S
O60 Zn43 1.920 . S
O60 C62 1.234 . S
C61 O47 1.305 . S
C61 O48 1.234 . S
C62 O59 1.305 . S
C62 O60 1.234 . S
Zn63 O69 1.920 . S
Zn63 O75 1.898 . S
Zn63 O78 1.905 . S
Zn64 O72 1.905 . S
Zn64 O73 1.898 . S
Zn64 O81 1.920 . S
Zn65 O68 2.080 . S
Zn65 O71 2.114 . S
Zn65 O74 2.120 . S
Zn65 O76 2.120 . S
Zn65 O77 2.114 . S
Zn65 O80 2.080 . S
C66 O71 1.166 . S
C66 O72 1.182 . S
C67 O73 1.167 . S
C67 O74 1.299 . S
O68 Zn65 2.080 . S
O68 C82 1.305 . S
O69 Zn63 1.920 . S
O69 C82 1.234 . S
C70 O75 1.167 . S
C70 O76 1.299 . S
O71 Zn65 2.114 . S
O71 C66 1.166 . S
O72 Zn64 1.905 . S
O72 C66 1.182 . S
O73 Zn64 1.898 . S
O73 C67 1.167 . S
O74 Zn65 2.120 . S
O74 C67 1.299 . S
O75 Zn63 1.898 . S
O75 C70 1.167 . S
O76 Zn65 2.120 . S
O76 C70 1.299 . S
O77 Zn65 2.114 . S
O77 C79 1.166 . S
O78 Zn63 1.905 . S
O78 C79 1.182 . S
C79 O77 1.166 . S
C79 O78 1.182 . S
O80 Zn65 2.080 . S
O80 C83 1.305 . S
O81 Zn64 1.920 . S
O81 C83 1.234 . S
C82 O68 1.305 . S
C82 O69 1.234 . S
C83 O80 1.305 . S
C83 O81 1.234 . S
Zn84 O90 1.920 . S
Zn84 O96 1.898 . S
Zn84 O99 1.905 . S
Zn85 O93 1.905 . S
Zn85 O94 1.898 . S
Zn85 O102 1.920 . S
Zn86 O89 2.080 . S
Zn86 O92 2.114 . S
Zn86 O95 2.120 . S
Zn86 O97 2.120 . S
Zn86 O98 2.114 . S
Zn86 O101 2.080 . S
C87 O92 1.166 . S
C87 O93 1.182 . S
C88 O94 1.167 . S
C88 O95 1.299 . S
O89 Zn86 2.080 . S
O89 C103 1.305 . S
O90 Zn84 1.920 . S
O90 C103 1.234 . S
C91 O96 1.167 . S
C91 O97 1.299 . S
O92 Zn86 2.114 . S
O92 C87 1.166 . S
O93 Zn85 1.905 . S
O93 C87 1.182 . S
O94 Zn85 1.898 . S
O94 C88 1.167 . S
O95 Zn86 2.120 . S
O95 C88 1.299 . S
O96 Zn84 1.898 . S
O96 C91 1.167 . S
O97 Zn86 2.120 . S
O97 C91 1.299 . S
O98 Zn86 2.114 . S
O98 C100 1.166 . S
O99 Zn84 1.905 . S
O99 C100 1.182 . S
C100 O98 1.166 . S
C100 O99 1.182 . S
O101 Zn86 2.080 . S
O101 C104 1.305 . S
O102 Zn85 1.920 . S
O102 C104 1.234 . S
C103 O89 1.305 . S
C103 O90 1.234 . S
C104 O101 1.305 . S
C104 O102 1.234 . S
Zn105 O111 1.920 . S
Zn105 O117 1.898 . S
Zn105 O120 1.905 . S
Zn106 O114 1.905 . S
Zn106 O115 1.898 . S
Zn106 O123 1.920 . S
Zn107 O110 2.080 . S
Zn107 O113 2.114 . S
Zn107 O116 2.120 . S
Zn107 O118 2.120 . S
Zn107 O119 2.114 . S
Zn107 O122 2.080 . S
C108 O113 1.166 . S
C108 O114 1.182 . S
C109 O115 1.167 . S
C109 O116 1.299 . S
O110 Zn107 2.080 . S
O110 C124 1.305 . S
O111 Zn105 1.920 . S
O111 C124 1.234 . S
C112 O117 1.167 . S
C112 O118 1.299 . S
O113 Zn107 2.114 . S
O113 C108 1.166 . S
O114 Zn106 1.905 . S
O114 C108 1.182 . S
O115 Zn106 1.898 . S
O115 C109 1.167 . S
O116 Zn107 2.120 . S
O116 C109 1.299 . S
O117 Zn105 1.898 . S
O117 C112 1.167 . S
O118 Zn107 2.120 . S
O118 C112 1.299 . S
O119 Zn107 2.114 . S
O119 C121 1.166 . S
O120 Zn105 1.905 . S
O120 C121 1.182 . S
C121 O119 1.166 . S
C121 O120 1.182 . S
O122 Zn107 2.080 . S
O122 C125 1.305 . S
O123 Zn106 1.920 . S
O123 C125 1.234 . S
C124 O110 1.305 . S
C124 O111 1.234 . S
C125 O122 1.305 . S
C125 O123 1.234 . S
Zn126 O132 1.920 . S
Zn126 O138 1.898 . S
Zn126 O141 1.905 . S
Zn127 O135 1.905 . S
Zn127 O136 1.898 . S
Zn127 O144 1.920 . S
Zn128 O131 2.080 . S
Zn128 O134 2.114 . S
Zn128 O137 2.120 . S
Zn128 O139 2.120 . S
Zn128 O140 2.114 . S
Zn128 O143 2.080 . S
C129 O134 1.166 . S
C129 O135 1.182 . S
C130 O136 1.167 . S
C130 O137 1.299 . S
O131 Zn128 2.080 . S
O131 C145 1.305 . S
O132 Zn126 1.920 . S
O132 C145 1.234 . S
C133 O138 1.167 . S
C133 O139 1.299 . S
O134 Zn128 2.114 . S
O134 C129 1.166 . S
O135 Zn127 1.905 . S
O135 C129 1.182 . S
O136 Zn127 1.898 . S
O136 C130 1.167 . S
O137 Zn128 2.120 . S
O137 C130 1.299 . S
O138 Zn126 1.898 . S
O138 C133 1.167 . S
O139 Zn128 2.120 . S
O139 C133 1.299 . S
O140 Zn128 2.114 . S
O140 C142 1.166 . S
O141 Zn126 1.905 . S
O141 C142 1.182 . S
C142 O140 1.166 . S
C142 O141 1.182 . S
O143 Zn128 2.080 . S
O143 C146 1.305 . S
O144 Zn127 1.920 . S
O144 C146 1.234 . S
C145 O131 1.305 . S
C145 O132 1.234 . S
C146 O143 1.305 . S
C146 O144 1.234 . S
Zn147 O153 1.920 . S
Zn147 O159 1.898 . S
Zn147 O162 1.905 . S
Zn148 O156 1.905 . S
Zn148 O157 1.898 . S
Zn148 O165 1.920 . S
Zn149 O152 2.080 . S
Zn149 O155 2.114 . S
Zn149 O158 2.120 . S
Zn149 O160 2.120 . S
Zn149 O161 2.114 . S
Zn149 O164 2.080 . S
C150 O155 1.166 . S
C150 O156 1.182 . S
C151 O157 1.167 . S
C151 O158 1.299 . S
O152 Zn149 2.080 . S
O152 C166 1.305 . S
O153 Zn147 1.920 . S
O153 C166 1.234 . S
C154 O159 1.167 . S
C154 O160 1.299 . S
O155 Zn149 2.114 . S
O155 C150 1.166 . S
O156 Zn148 1.905 . S
O156 C150 1.182 . S
O157 Zn148 1.898 . S
O157 C151 1.167 . S
O158 Zn149 2.120 . S
O158 C151 1.299 . S
O159 Zn147 1.898 . S
O159 C154 1.167 . S
O160 Zn149 2.120 . S
O160 C154 1.299 . S
O161 Zn149 2.114 . S
O161 C163 1.166 . S
O162 Zn147 1.905 . S
O162 C163 1.182 . S
C163 O161 1.166 . S
C163 O162 1.182 . S
O164 Zn149 2.080 . S
O164 C167 1.305 . S
O165 Zn148 1.920 . S
O165 C167 1.234 . S
C166 O152 1.305 . S
C166 O153 1.234 . S
C167 O164 1.305 . S
C167 O165 1.234 . S
H168 C176 0.929 . S
H169 C178 0.930 . S
H170 C180 0.930 . S
H171 C183 0.922 1_455 S
H172 C186 0.930 . S
H173 C188 0.960 . S
H174 C188 0.960 . S
H175 C188 0.960 . S
C176 H168 0.929 . S
C176 C177 1.377 . S
C176 C178 1.384 . S
C177 C176 1.377 . S
C177 C183 1.391 . S
C178 H169 0.930 . S
C178 C176 1.384 . S
C178 C179 1.372 . S
C179 C178 1.372 . S
C179 C180 1.400 . S
C179 C184 1.490 . S
C180 H170 0.930 . S
C180 C179 1.400 . S
C180 C183 1.392 . S
H181 C197 0.930 . S
H182 C198 0.931 . S
C183 H171 0.922 1_655 S
C183 C177 1.391 . S
C183 C180 1.392 . S
C184 C179 1.490 . S
C184 C186 1.395 . S
C184 C187 1.403 . S
H185 C191 0.930 . S
C186 H172 0.930 . S
C186 C184 1.395 . S
C186 C189 1.403 . S
C187 C184 1.403 . S
C187 C188 1.524 . S
C187 C191 1.400 . S
C188 H173 0.960 . S
C188 H174 0.960 . S
C188 H175 0.960 . S
C188 C187 1.524 . S
C189 C186 1.403 . S
C189 C190 1.392 . S
C189 C193 1.495 . S
C190 C189 1.392 . S
C190 C191 1.385 . S
C190 C192 1.478 . S
C191 H185 0.930 . S
C191 C187 1.400 . S
C191 C190 1.385 . S
C192 C190 1.478 . S
C192 C194 1.381 . S
C192 C198 1.383 . S
C193 C189 1.495 . S
C193 H199 0.957 1_545 S
C193 H200 0.961 1_545 S
C193 H201 0.960 1_545 S
C194 C192 1.381 . S
C194 C195 1.381 1_545 S
C194 H202 0.930 . S
C195 C194 1.381 1_565 S
C195 C196 1.381 1_565 S
C195 H203 0.945 . S
C196 C195 1.381 1_545 S
C196 C197 1.377 . S
C197 H181 0.930 . S
C197 C196 1.377 . S
C197 C198 1.379 . S
C198 H182 0.931 . S
C198 C192 1.383 . S
C198 C197 1.379 . S
H199 C193 0.957 1_565 S
H200 C193 0.961 1_565 S
H201 C193 0.960 1_565 S
H202 C194 0.930 . S
H203 C195 0.945 . S
H204 C212 0.929 . S
H205 C214 0.930 . S
H206 C216 0.930 . S
H207 C219 0.929 . S
H208 C222 0.930 . S
H209 C224 0.960 . S
H210 C224 0.960 . S
H211 C224 0.960 . S
C212 H204 0.929 . S
C212 C213 1.377 . S
C212 C214 1.384 . S
C213 C212 1.377 . S
C213 C219 1.390 . S
C214 H205 0.930 . S
C214 C212 1.384 . S
C214 C215 1.372 . S
C215 C214 1.372 . S
C215 C216 1.400 . S
C215 C220 1.490 . S
C216 H206 0.930 . S
C216 C215 1.400 . S
C216 C219 1.386 . S
H217 C233 0.930 . S
H218 C234 0.931 . S
C219 H207 0.929 . S
C219 C213 1.390 . S
C219 C216 1.386 . S
C220 C215 1.490 . S
C220 C222 1.395 . S
C220 C223 1.403 . S
H221 C227 0.930 . S
C222 H208 0.930 . S
C222 C220 1.395 . S
C222 C225 1.403 . S
C223 C220 1.403 . S
C223 C224 1.524 . S
C223 C227 1.400 . S
C224 H209 0.960 . S
C224 H210 0.960 . S
C224 H211 0.960 . S
C224 C223 1.524 . S
C225 C222 1.403 . S
C225 C226 1.392 . S
C225 C229 1.495 . S
C226 C225 1.392 . S
C226 C227 1.385 . S
C226 C228 1.478 . S
C227 H221 0.930 . S
C227 C223 1.400 . S
C227 C226 1.385 . S
C228 C226 1.478 . S
C228 C230 1.381 . S
C228 C234 1.383 . S
C229 C225 1.495 . S
C229 H235 0.959 . S
C229 H236 0.961 . S
C229 H237 0.960 . S
C230 C228 1.381 . S
C230 C231 1.394 . S
C230 H238 0.930 . S
C231 C230 1.394 . S
C231 C232 1.383 . S
C231 H239 0.929 . S
C232 C231 1.383 . S
C232 C233 1.377 . S
C233 H217 0.930 . S
C233 C232 1.377 . S
C233 C234 1.379 . S
C234 H218 0.931 . S
C234 C228 1.383 . S
C234 C233 1.379 . S
H235 C229 0.959 . S
H236 C229 0.961 . S
H237 C229 0.960 . S
H238 C230 0.930 . S
H239 C231 0.929 . S
H240 C248 0.929 . S
H241 C250 0.930 . S
H242 C252 0.930 . S
H243 C255 0.929 1_655 S
H244 C258 0.930 . S
H245 C260 0.960 . S
H246 C260 0.960 . S
H247 C260 0.960 . S
C248 H240 0.929 . S
C248 C249 1.377 . S
C248 C250 1.384 . S
C249 C248 1.377 . S
C249 C255 1.390 . S
C250 H241 0.930 . S
C250 C248 1.384 . S
C250 C251 1.372 . S
C251 C250 1.372 . S
C251 C252 1.400 . S
C251 C256 1.490 . S
C252 H242 0.930 . S
C252 C251 1.400 . S
C252 C255 1.386 . S
H253 C269 0.930 . S
H254 C270 0.931 . S
C255 H243 0.929 1_455 S
C255 C249 1.390 . S
C255 C252 1.386 . S
C256 C251 1.490 . S
C256 C258 1.395 . S
C256 C259 1.403 . S
H257 C263 0.930 . S
C258 H244 0.930 . S
C258 C256 1.395 . S
C258 C261 1.403 . S
C259 C256 1.403 . S
C259 C260 1.524 . S
C259 C263 1.400 . S
C260 H245 0.960 . S
C260 H246 0.960 . S
C260 H247 0.960 . S
C260 C259 1.524 . S
C261 C258 1.403 . S
C261 C262 1.392 . S
C261 C265 1.495 . S
C262 C261 1.392 . S
C262 C263 1.385 . S
C262 C264 1.478 . S
C263 H257 0.930 . S
C263 C259 1.400 . S
C263 C262 1.385 . S
C264 C262 1.478 . S
C264 C266 1.381 . S
C264 C270 1.383 . S
C265 C261 1.495 . S
C265 H271 0.959 . S
C265 H272 0.961 1_565 S
C265 H273 0.960 1_565 S
C266 C264 1.381 . S
C266 C267 1.394 1_565 S
C266 H274 0.930 . S
C267 C266 1.394 1_545 S
C267 C268 1.383 1_545 S
C267 H275 0.929 . S
C268 C267 1.383 1_565 S
C268 C269 1.377 . S
C269 H253 0.930 . S
C269 C268 1.377 . S
C269 C270 1.379 . S
C270 H254 0.931 . S
C270 C264 1.383 . S
C270 C269 1.379 . S
H271 C265 0.959 . S
H272 C265 0.961 1_545 S
H273 C265 0.960 1_545 S
H274 C266 0.930 . S
H275 C267 0.929 . S
H276 C284 0.929 . S
H277 C286 0.930 . S
H278 C288 0.930 . S
H279 C291 0.929 . S
H280 C294 0.930 . S
H281 C296 0.960 . S
H282 C296 0.960 . S
H283 C296 0.960 1_554 S
C284 H276 0.929 . S
C284 C285 1.377 . S
C284 C286 1.384 . S
C285 C284 1.377 . S
C285 C291 1.390 . S
C286 H277 0.930 . S
C286 C284 1.384 . S
C286 C287 1.372 . S
C287 C286 1.372 . S
C287 C288 1.400 . S
C287 C292 1.490 . S
C288 H278 0.930 . S
C288 C287 1.400 . S
C288 C291 1.386 . S
H289 C305 0.930 . S
H290 C306 0.931 . S
C291 H279 0.929 . S
C291 C285 1.390 . S
C291 C288 1.386 . S
C292 C287 1.490 . S
C292 C294 1.395 . S
C292 C295 1.403 1_554 S
H293 C299 0.930 . S
C294 H280 0.930 . S
C294 C292 1.395 . S
C294 C297 1.403 . S
C295 C292 1.403 1_556 S
C295 C296 1.524 . S
C295 C299 1.400 . S
C296 H281 0.960 . S
C296 H282 0.960 . S
C296 H283 0.960 1_556 S
C296 C295 1.524 . S
C297 C294 1.403 . S
C297 C298 1.392 1_554 S
C297 C301 1.495 . S
C298 C297 1.392 1_556 S
C298 C299 1.385 . S
C298 C300 1.478 . S
C299 H293 0.930 . S
C299 C295 1.400 . S
C299 C298 1.385 . S
C300 C298 1.478 . S
C300 C302 1.381 . S
C300 C306 1.383 . S
C301 C297 1.495 . S
C301 H307 0.959 . S
C301 H308 0.961 . S
C301 H309 0.960 1_554 S
C302 C300 1.381 . S
C302 C303 1.394 . S
C302 H310 0.930 . S
C303 C302 1.394 . S
C303 C304 1.383 . S
C303 H311 0.929 . S
C304 C303 1.383 . S
C304 C305 1.377 . S
C305 H289 0.930 . S
C305 C304 1.377 . S
C305 C306 1.379 . S
C306 H290 0.931 . S
C306 C300 1.383 . S
C306 C305 1.379 . S
H307 C301 0.959 . S
H308 C301 0.961 . S
H309 C301 0.960 1_556 S
H310 C302 0.930 . S
H311 C303 0.929 . S
H312 C320 0.929 . S
H313 C322 0.930 . S
H314 C324 0.930 . S
H315 C327 0.929 . S
H316 C330 0.930 . S
H317 C332 0.960 . S
H318 C332 0.960 . S
H319 C332 0.960 . S
C320 H312 0.929 . S
C320 C321 1.377 . S
C320 C322 1.384 . S
C321 C320 1.377 . S
C321 C327 1.390 . S
C322 H313 0.930 . S
C322 C320 1.384 . S
C322 C323 1.372 . S
C323 C322 1.372 . S
C323 C324 1.400 . S
C323 C328 1.490 . S
C324 H314 0.930 . S
C324 C323 1.400 . S
C324 C327 1.386 . S
H325 C341 0.930 . S
H326 C342 0.931 . S
C327 H315 0.929 . S
C327 C321 1.390 . S
C327 C324 1.386 . S
C328 C323 1.490 . S
C328 C330 1.395 . S
C328 C331 1.403 . S
H329 C335 0.930 . S
C330 H316 0.930 . S
C330 C328 1.395 . S
C330 C333 1.403 . S
C331 C328 1.403 . S
C331 C332 1.524 . S
C331 C335 1.400 . S
C332 H317 0.960 . S
C332 H318 0.960 . S
C332 H319 0.960 . S
C332 C331 1.524 . S
C333 C330 1.403 . S
C333 C334 1.392 . S
C333 C337 1.495 . S
C334 C333 1.392 . S
C334 C335 1.385 . S
C334 C336 1.478 . S
C335 H329 0.930 . S
C335 C331 1.400 . S
C335 C334 1.385 . S
C336 C334 1.478 . S
C336 C338 1.381 . S
C336 C342 1.383 . S
C337 C333 1.495 . S
C337 H343 0.959 . S
C337 H344 0.961 . S
C337 H345 0.960 . S
C338 C336 1.381 . S
C338 C339 1.394 . S
C338 H346 0.930 . S
C339 C338 1.394 . S
C339 C340 1.383 . S
C339 H347 0.929 . S
C340 C339 1.383 . S
C340 C341 1.377 . S
C341 H325 0.930 . S
C341 C340 1.377 . S
C341 C342 1.379 . S
C342 H326 0.931 . S
C342 C336 1.383 . S
C342 C341 1.379 . S
H343 C337 0.959 . S
H344 C337 0.961 . S
H345 C337 0.960 . S
H346 C338 0.930 . S
H347 C339 0.929 . S
H348 C356 0.929 . S
H349 C358 0.930 . S
H350 C360 0.930 . S
H351 C363 0.929 . S
H352 C366 0.930 . S
H353 C368 0.960 . S
H354 C368 0.960 . S
H355 C368 0.960 . S
C356 H348 0.929 . S
C356 C357 1.377 . S
C356 C358 1.384 . S
C357 C356 1.377 . S
C357 C363 1.390 . S
C358 H349 0.930 . S
C358 C356 1.384 . S
C358 C359 1.372 . S
C359 C358 1.372 . S
C359 C360 1.400 . S
C359 C364 1.490 . S
C360 H350 0.930 . S
C360 C359 1.400 . S
C360 C363 1.386 . S
H361 C377 0.930 . S
H362 C378 0.931 . S
C363 H351 0.929 . S
C363 C357 1.390 . S
C363 C360 1.386 . S
C364 C359 1.490 . S
C364 C366 1.395 . S
C364 C367 1.403 . S
H365 C371 0.930 . S
C366 H352 0.930 . S
C366 C364 1.395 . S
C366 C369 1.403 . S
C367 C364 1.403 . S
C367 C368 1.524 . S
C367 C371 1.400 . S
C368 H353 0.960 . S
C368 H354 0.960 . S
C368 H355 0.960 . S
C368 C367 1.524 . S
C369 C366 1.403 . S
C369 C370 1.392 . S
C369 C373 1.495 . S
C370 C369 1.392 . S
C370 C371 1.385 . S
C370 C372 1.478 . S
C371 H365 0.930 . S
C371 C367 1.400 . S
C371 C370 1.385 . S
C372 C370 1.478 . S
C372 C374 1.381 . S
C372 C378 1.383 . S
C373 C369 1.495 . S
C373 H379 0.959 . S
C373 H380 0.961 . S
C373 H381 0.960 . S
C374 C372 1.381 . S
C374 C375 1.394 . S
C374 H382 0.930 . S
C375 C374 1.394 . S
C375 C376 1.383 . S
C375 H383 0.929 . S
C376 C375 1.383 . S
C376 C377 1.377 . S
C377 H361 0.930 . S
C377 C376 1.377 . S
C377 C378 1.379 . S
C378 H362 0.931 . S
C378 C372 1.383 . S
C378 C377 1.379 . S
H379 C373 0.959 . S
H380 C373 0.961 . S
H381 C373 0.960 . S
H382 C374 0.930 . S
H383 C375 0.929 . S
H384 C392 0.929 . S
H385 C394 0.930 . S
H386 C396 0.930 . S
H387 C399 0.929 . S
H388 C402 0.930 . S
H389 C404 0.960 . S
H390 C404 0.960 . S
H391 C404 0.960 . S
C392 H384 0.929 . S
C392 C393 1.377 . S
C392 C394 1.384 . S
C393 C392 1.377 . S
C393 C399 1.390 . S
C394 H385 0.930 . S
C394 C392 1.384 . S
C394 C395 1.372 . S
C395 C394 1.372 . S
C395 C396 1.400 . S
C395 C400 1.490 . S
C396 H386 0.930 . S
C396 C395 1.400 . S
C396 C399 1.386 . S
H397 C413 0.930 . S
H398 C414 0.931 . S
C399 H387 0.929 . S
C399 C393 1.390 . S
C399 C396 1.386 . S
C400 C395 1.490 . S
C400 C402 1.395 . S
C400 C403 1.403 . S
H401 C407 0.930 . S
C402 H388 0.930 . S
C402 C400 1.395 . S
C402 C405 1.403 . S
C403 C400 1.403 . S
C403 C404 1.524 . S
C403 C407 1.400 . S
C404 H389 0.960 . S
C404 H390 0.960 . S
C404 H391 0.960 . S
C404 C403 1.524 . S
C405 C402 1.403 . S
C405 C406 1.392 . S
C405 C409 1.495 . S
C406 C405 1.392 . S
C406 C407 1.385 . S
C406 C408 1.478 . S
C407 H401 0.930 . S
C407 C403 1.400 . S
C407 C406 1.385 . S
C408 C406 1.478 . S
C408 C410 1.381 . S
C408 C414 1.383 . S
C409 C405 1.495 . S
C409 H415 0.959 . S
C409 H416 0.961 . S
C409 H417 0.960 . S
C410 C408 1.381 . S
C410 C411 1.394 . S
C410 H418 0.930 . S
C411 C410 1.394 . S
C411 C412 1.383 . S
C411 H419 0.929 . S
C412 C411 1.383 . S
C412 C413 1.377 . S
C413 H397 0.930 . S
C413 C412 1.377 . S
C413 C414 1.379 . S
C414 H398 0.931 . S
C414 C408 1.383 . S
C414 C413 1.379 . S
H415 C409 0.959 . S
H416 C409 0.961 . S
H417 C409 0.960 . S
H418 C410 0.930 . S
H419 C411 0.929 . S
H420 C428 0.929 . S
H421 C430 0.930 . S
H422 C432 0.930 . S
H423 C435 0.933 . S
H424 C438 0.930 . S
H425 C440 0.960 . S
H426 C440 0.960 . S
H427 C440 0.960 . S
C428 H420 0.929 . S
C428 C429 1.377 . S
C428 C430 1.384 . S
C429 C428 1.377 . S
C429 C435 1.388 1_655 S
C430 H421 0.930 . S
C430 C428 1.384 . S
C430 C431 1.372 . S
C431 C430 1.372 . S
C431 C432 1.400 . S
C431 C436 1.490 . S
C432 H422 0.930 . S
C432 C431 1.400 . S
C432 C435 1.383 1_655 S
H433 C449 0.930 . S
H434 C450 0.931 . S
C435 H423 0.933 . S
C435 C429 1.388 1_455 S
C435 C432 1.383 1_455 S
C436 C431 1.490 . S
C436 C438 1.395 . S
C436 C439 1.403 . S
H437 C443 0.930 . S
C438 H424 0.930 . S
C438 C436 1.395 . S
C438 C441 1.403 . S
C439 C436 1.403 . S
C439 C440 1.524 . S
C439 C443 1.400 . S
C440 H425 0.960 . S
C440 H426 0.960 . S
C440 H427 0.960 . S
C440 C439 1.524 . S
C441 C438 1.403 . S
C441 C442 1.392 . S
C441 C445 1.495 . S
C442 C441 1.392 . S
C442 C443 1.385 . S
C442 C444 1.478 . S
C443 H437 0.930 . S
C443 C439 1.400 . S
C443 C442 1.385 . S
C444 C442 1.478 . S
C444 C446 1.381 . S
C444 C450 1.383 1_554 S
C445 C441 1.495 . S
C445 H451 0.959 . S
C445 H452 0.961 . S
C445 H453 0.960 . S
C446 C444 1.381 . S
C446 C447 1.394 1_554 S
C446 H454 0.930 . S
C447 C446 1.394 1_556 S
C447 C448 1.383 . S
C447 H455 0.929 . S
C448 C447 1.383 . S
C448 C449 1.377 . S
C449 H433 0.930 . S
C449 C448 1.377 . S
C449 C450 1.379 . S
C450 H434 0.931 . S
C450 C444 1.383 1_556 S
C450 C449 1.379 . S
H451 C445 0.959 . S
H452 C445 0.961 . S
H453 C445 0.960 . S
H454 C446 0.930 . S
H455 C447 0.929 . S
H456 C464 0.929 . S
H457 C466 0.930 . S
H458 C468 0.930 . S
H459 C471 0.929 . S
H460 C474 0.930 . S
H461 C476 0.960 . S
H462 C476 0.960 . S
H463 C476 0.960 . S
C464 H456 0.929 . S
C464 C465 1.377 . S
C464 C466 1.384 . S
C465 C464 1.377 . S
C465 C471 1.390 . S
C466 H457 0.930 . S
C466 C464 1.384 . S
C466 C467 1.372 . S
C467 C466 1.372 . S
C467 C468 1.400 . S
C467 C472 1.490 . S
C468 H458 0.930 . S
C468 C467 1.400 . S
C468 C471 1.386 . S
H469 C485 0.930 . S
H470 C486 0.931 . S
C471 H459 0.929 . S
C471 C465 1.390 . S
C471 C468 1.386 . S
C472 C467 1.490 . S
C472 C474 1.395 . S
C472 C475 1.403 . S
H473 C479 0.930 . S
C474 H460 0.930 . S
C474 C472 1.395 . S
C474 C477 1.403 . S
C475 C472 1.403 . S
C475 C476 1.524 . S
C475 C479 1.400 . S
C476 H461 0.960 . S
C476 H462 0.960 . S
C476 H463 0.960 . S
C476 C475 1.524 . S
C477 C474 1.403 . S
C477 C478 1.392 . S
C477 C481 1.495 . S
C478 C477 1.392 . S
C478 C479 1.385 . S
C478 C480 1.478 . S
C479 H473 0.930 . S
C479 C475 1.400 . S
C479 C478 1.385 . S
C480 C478 1.478 . S
C480 C482 1.381 . S
C480 C486 1.383 . S
C481 C477 1.495 . S
C481 H487 0.959 . S
C481 H488 0.961 . S
C481 H489 0.960 . S
C482 C480 1.381 . S
C482 C483 1.394 . S
C482 H490 0.930 . S
C483 C482 1.394 . S
C483 C484 1.383 . S
C483 H491 0.929 1_545 S
C484 C483 1.383 . S
C484 C485 1.377 . S
C485 H469 0.930 . S
C485 C484 1.377 . S
C485 C486 1.379 . S
C486 H470 0.931 . S
C486 C480 1.383 . S
C486 C485 1.379 . S
H487 C481 0.959 . S
H488 C481 0.961 . S
H489 C481 0.960 . S
H490 C482 0.930 . S
H491 C483 0.929 1_565 S
H492 C500 0.929 . S
H493 C502 0.930 . S
H494 C504 0.930 . S
H495 C507 0.929 . S
H496 C510 0.930 . S
H497 C512 0.960 . S
H498 C512 0.960 . S
H499 C512 0.960 . S
C500 H492 0.929 . S
C500 C501 1.377 . S
C500 C502 1.384 . S
C501 C500 1.377 . S
C501 C507 1.390 . S
C502 H493 0.930 . S
C502 C500 1.384 . S
C502 C503 1.372 . S
C503 C502 1.372 . S
C503 C504 1.400 . S
C503 C508 1.490 . S
C504 H494 0.930 . S
C504 C503 1.400 . S
C504 C507 1.386 . S
H505 C521 0.930 . S
H506 C522 0.931 . S
C507 H495 0.929 . S
C507 C501 1.390 . S
C507 C504 1.386 . S
C508 C503 1.490 . S
C508 C510 1.395 . S
C508 C511 1.403 . S
H509 C515 0.930 . S
C510 H496 0.930 . S
C510 C508 1.395 . S
C510 C513 1.403 . S
C511 C508 1.403 . S
C511 C512 1.524 . S
C511 C515 1.400 . S
C512 H497 0.960 . S
C512 H498 0.960 . S
C512 H499 0.960 . S
C512 C511 1.524 . S
C513 C510 1.403 . S
C513 C514 1.392 . S
C513 C517 1.495 . S
C514 C513 1.392 . S
C514 C515 1.385 . S
C514 C516 1.478 . S
C515 H509 0.930 . S
C515 C511 1.400 . S
C515 C514 1.385 . S
C516 C514 1.478 . S
C516 C518 1.381 . S
C516 C522 1.383 . S
C517 C513 1.495 . S
C517 H523 0.959 . S
C517 H524 0.961 . S
C517 H525 0.960 . S
C518 C516 1.381 . S
C518 C519 1.394 . S
C518 H526 0.930 . S
C519 C518 1.394 . S
C519 C520 1.383 . S
C519 H527 0.929 . S
C520 C519 1.383 . S
C520 C521 1.377 . S
C521 H505 0.930 . S
C521 C520 1.377 . S
C521 C522 1.379 . S
C522 H506 0.931 . S
C522 C516 1.383 . S
C522 C521 1.379 . S
H523 C517 0.959 . S
H524 C517 0.961 . S
H525 C517 0.960 . S
H526 C518 0.930 . S
H527 C519 0.929 . S
H528 C536 0.929 . S
H529 C538 0.930 1_556 S
H530 C540 0.930 . S
H531 C543 0.929 . S
H532 C546 0.930 . S
H533 C548 0.960 . S
H534 C548 0.960 . S
H535 C548 0.960 . S
C536 H528 0.929 . S
C536 C537 1.377 . S
C536 C538 1.384 . S
C537 C536 1.377 . S
C537 C543 1.390 . S
C538 H529 0.930 1_554 S
C538 C536 1.384 . S
C538 C539 1.372 1_554 S
C539 C538 1.372 1_556 S
C539 C540 1.400 1_556 S
C539 C544 1.490 . S
C540 H530 0.930 . S
C540 C539 1.400 1_554 S
C540 C543 1.386 . S
H541 C557 0.912 1_545 S
H542 C558 0.931 . S
C543 H531 0.929 . S
C543 C537 1.390 . S
C543 C540 1.386 . S
C544 C539 1.490 . S
C544 C546 1.395 . S
C544 C547 1.403 . S
H545 C551 0.930 . S
C546 H532 0.930 . S
C546 C544 1.395 . S
C546 C549 1.403 . S
C547 C544 1.403 . S
C547 C548 1.524 . S
C547 C551 1.400 . S
C548 H533 0.960 . S
C548 H534 0.960 . S
C548 H535 0.960 . S
C548 C547 1.524 . S
C549 C546 1.403 . S
C549 C550 1.392 . S
C549 C553 1.495 . S
C550 C549 1.392 . S
C550 C551 1.385 . S
C550 C552 1.478 . S
C551 H545 0.930 . S
C551 C547 1.400 . S
C551 C550 1.385 . S
C552 C550 1.478 . S
C552 C554 1.381 . S
C552 C558 1.383 . S
C553 C549 1.495 . S
C553 H559 0.959 . S
C553 H560 0.961 . S
C553 H561 0.960 . S
C554 C552 1.381 . S
C554 C555 1.394 . S
C554 H562 0.930 . S
C555 C554 1.394 . S
C555 C556 1.383 . S
C555 H563 0.929 . S
C556 C555 1.383 . S
C556 C557 1.383 . S
C557 H541 0.912 1_565 S
C557 C556 1.383 . S
C557 C558 1.391 . S
C558 H542 0.931 . S
C558 C552 1.383 . S
C558 C557 1.391 . S
H559 C553 0.959 . S
H560 C553 0.961 . S
H561 C553 0.960 . S
H562 C554 0.930 . S
H563 C555 0.929 . S
H564 C572 0.929 . S
H565 C574 0.930 . S
H566 C576 0.930 . S
H567 C579 0.929 . S
H568 C582 0.930 . S
H569 C584 0.960 . S
H570 C584 0.960 . S
H571 C584 0.960 . S
C572 H564 0.929 . S
C572 C573 1.377 . S
C572 C574 1.384 . S
C573 C572 1.377 . S
C573 C579 1.390 . S
C574 H565 0.930 . S
C574 C572 1.384 . S
C574 C575 1.372 . S
C575 C574 1.372 . S
C575 C576 1.400 . S
C575 C580 1.490 . S
C576 H566 0.930 . S
C576 C575 1.400 . S
C576 C579 1.386 . S
H577 C593 0.930 . S
H578 C594 0.931 . S
C579 H567 0.929 . S
C579 C573 1.390 . S
C579 C576 1.386 . S
C580 C575 1.490 . S
C580 C582 1.395 . S
C580 C583 1.403 . S
H581 C587 0.930 . S
C582 H568 0.930 . S
C582 C580 1.395 . S
C582 C585 1.403 . S
C583 C580 1.403 . S
C583 C584 1.524 . S
C583 C587 1.400 . S
C584 H569 0.960 . S
C584 H570 0.960 . S
C584 H571 0.960 . S
C584 C583 1.524 . S
C585 C582 1.403 . S
C585 C586 1.392 . S
C585 C589 1.495 . S
C586 C585 1.392 . S
C586 C587 1.385 . S
C586 C588 1.478 . S
C587 H581 0.930 . S
C587 C583 1.400 . S
C587 C586 1.385 . S
C588 C586 1.478 . S
C588 C590 1.381 . S
C588 C594 1.383 . S
C589 C585 1.495 . S
C589 H595 0.959 . S
C589 H596 0.961 . S
C589 H597 0.960 . S
C590 C588 1.381 . S
C590 C591 1.394 . S
C590 H598 0.930 . S
C591 C590 1.394 . S
C591 C592 1.383 . S
C591 H599 0.929 . S
C592 C591 1.383 . S
C592 C593 1.377 . S
C593 H577 0.930 . S
C593 C592 1.377 . S
C593 C594 1.379 . S
C594 H578 0.931 . S
C594 C588 1.383 . S
C594 C593 1.379 . S
H595 C589 0.959 . S
H596 C589 0.961 . S
H597 C589 0.960 . S
H598 C590 0.930 . S
H599 C591 0.929 . S
H600 C608 0.929 . S
H601 C610 0.930 . S
H602 C612 0.930 . S
H603 C615 0.929 . S
H604 C618 0.930 . S
H605 C620 0.960 1_554 S
H606 C620 0.960 . S
H607 C620 0.960 . S
C608 H600 0.929 . S
C608 C609 1.377 . S
C608 C610 1.384 . S
C609 C608 1.377 . S
C609 C615 1.390 . S
C610 H601 0.930 . S
C610 C608 1.384 . S
C610 C611 1.372 . S
C611 C610 1.372 . S
C611 C612 1.400 . S
C611 C616 1.490 . S
C612 H602 0.930 . S
C612 C611 1.400 . S
C612 C615 1.386 . S
H613 C629 0.930 . S
H614 C630 0.931 . S
C615 H603 0.929 . S
C615 C609 1.390 . S
C615 C612 1.386 . S
C616 C611 1.490 . S
C616 C618 1.395 . S
C616 C619 1.403 . S
H617 C623 0.930 . S
C618 H604 0.930 . S
C618 C616 1.395 . S
C618 C621 1.403 1_556 S
C619 C616 1.403 . S
C619 C620 1.524 . S
C619 C623 1.400 1_556 S
C620 H605 0.960 1_556 S
C620 H606 0.960 . S
C620 H607 0.960 . S
C620 C619 1.524 . S
C621 C618 1.403 1_554 S
C621 C622 1.392 . S
C621 C625 1.495 . S
C622 C621 1.392 . S
C622 C623 1.385 . S
C622 C624 1.478 . S
C623 H617 0.930 . S
C623 C619 1.400 1_554 S
C623 C622 1.385 . S
C624 C622 1.478 . S
C624 C626 1.381 . S
C624 C630 1.383 . S
C625 C621 1.495 . S
C625 H631 0.959 1_554 S
C625 H632 0.961 . S
C625 H633 0.960 . S
C626 C624 1.381 . S
C626 C627 1.394 . S
C626 H634 0.930 . S
C627 C626 1.394 . S
C627 C628 1.383 . S
C627 H635 0.929 . S
C628 C627 1.383 . S
C628 C629 1.377 . S
C629 H613 0.930 . S
C629 C628 1.377 . S
C629 C630 1.379 . S
C630 H614 0.931 . S
C630 C624 1.383 . S
C630 C629 1.379 . S
H631 C625 0.959 1_556 S
H632 C625 0.961 . S
H633 C625 0.960 . S
H634 C626 0.930 . S
H635 C627 0.929 . S
H636 C644 0.929 . S
H637 C646 0.930 . S
H638 C648 0.930 . S
H639 C651 0.929 . S
H640 C654 0.930 . S
H641 C656 0.960 . S
H642 C656 0.960 . S
H643 C656 0.960 . S
C644 H636 0.929 . S
C644 C645 1.377 . S
C644 C646 1.384 . S
C645 C644 1.377 . S
C645 C651 1.390 . S
C646 H637 0.930 . S
C646 C644 1.384 . S
C646 C647 1.372 . S
C647 C646 1.372 . S
C647 C648 1.400 . S
C647 C652 1.490 . S
C648 H638 0.930 . S
C648 C647 1.400 . S
C648 C651 1.386 . S
H649 C665 0.930 . S
H650 C666 0.931 . S
C651 H639 0.929 . S
C651 C645 1.390 . S
C651 C648 1.386 . S
C652 C647 1.490 . S
C652 C654 1.395 . S
C652 C655 1.403 . S
H653 C659 0.930 . S
C654 H640 0.930 . S
C654 C652 1.395 . S
C654 C657 1.403 . S
C655 C652 1.403 . S
C655 C656 1.524 . S
C655 C659 1.400 . S
C656 H641 0.960 . S
C656 H642 0.960 . S
C656 H643 0.960 . S
C656 C655 1.524 . S
C657 C654 1.403 . S
C657 C658 1.392 . S
C657 C661 1.495 . S
C658 C657 1.392 . S
C658 C659 1.385 . S
C658 C660 1.478 . S
C659 H653 0.930 . S
C659 C655 1.400 . S
C659 C658 1.385 . S
C660 C658 1.478 . S
C660 C662 1.381 . S
C660 C666 1.383 . S
C661 C657 1.495 . S
C661 H667 0.959 . S
C661 H668 0.961 . S
C661 H669 0.960 . S
C662 C660 1.381 . S
C662 C663 1.394 . S
C662 H670 0.930 . S
C663 C662 1.394 . S
C663 C664 1.383 . S
C663 H671 0.929 . S
C664 C663 1.383 . S
C664 C665 1.377 . S
C665 H649 0.930 . S
C665 C664 1.377 . S
C665 C666 1.379 . S
C666 H650 0.931 . S
C666 C660 1.383 . S
C666 C665 1.379 . S
H667 C661 0.959 . S
H668 C661 0.961 . S
H669 C661 0.960 . S
H670 C662 0.930 . S
H671 C663 0.929 . S
H672 C680 0.929 . S
H673 C682 0.930 . S
H674 C684 0.930 . S
H675 C687 0.929 . S
H676 C690 0.930 . S
H677 C692 0.960 . S
H678 C692 0.960 . S
H679 C692 0.960 . S
C680 H672 0.929 . S
C680 C681 1.377 . S
C680 C682 1.384 . S
C681 C680 1.377 . S
C681 C687 1.390 . S
C682 H673 0.930 . S
C682 C680 1.384 . S
C682 C683 1.372 . S
C683 C682 1.372 . S
C683 C684 1.400 . S
C683 C688 1.490 . S
C684 H674 0.930 . S
C684 C683 1.400 . S
C684 C687 1.386 . S
H685 C701 0.930 . S
H686 C702 0.931 . S
C687 H675 0.929 . S
C687 C681 1.390 . S
C687 C684 1.386 . S
C688 C683 1.490 . S
C688 C690 1.395 . S
C688 C691 1.403 . S
H689 C695 0.930 . S
C690 H676 0.930 . S
C690 C688 1.395 . S
C690 C693 1.403 . S
C691 C688 1.403 . S
C691 C692 1.524 . S
C691 C695 1.400 . S
C692 H677 0.960 . S
C692 H678 0.960 . S
C692 H679 0.960 . S
C692 C691 1.524 . S
C693 C690 1.403 . S
C693 C694 1.392 . S
C693 C697 1.495 . S
C694 C693 1.392 . S
C694 C695 1.385 . S
C694 C696 1.478 . S
C695 H689 0.930 . S
C695 C691 1.400 . S
C695 C694 1.385 . S
C696 C694 1.478 . S
C696 C698 1.381 . S
C696 C702 1.383 . S
C697 C693 1.495 . S
C697 H703 0.959 . S
C697 H704 0.961 . S
C697 H705 0.960 . S
C698 C696 1.381 . S
C698 C699 1.394 . S
C698 H706 0.930 . S
C699 C698 1.394 . S
C699 C700 1.383 . S
C699 H707 0.929 . S
C700 C699 1.383 . S
C700 C701 1.377 . S
C701 H685 0.930 . S
C701 C700 1.377 . S
C701 C702 1.379 . S
C702 H686 0.931 . S
C702 C696 1.383 . S
C702 C701 1.379 . S
H703 C697 0.959 . S
H704 C697 0.961 . S
H705 C697 0.960 . S
H706 C698 0.930 . S
H707 C699 0.929 . S
H708 C716 0.929 . S
H709 C718 0.930 . S
H710 C720 0.930 . S
H711 C723 0.929 . S
H712 C726 0.930 . S
H713 C728 0.960 . S
H714 C728 0.960 . S
H715 C728 0.960 . S
C716 H708 0.929 . S
C716 C717 1.377 . S
C716 C718 1.384 . S
C717 C716 1.377 . S
C717 C723 1.390 . S
C718 H709 0.930 . S
C718 C716 1.384 . S
C718 C719 1.372 . S
C719 C718 1.372 . S
C719 C720 1.400 . S
C719 C724 1.490 . S
C720 H710 0.930 . S
C720 C719 1.400 . S
C720 C723 1.386 . S
H721 C737 0.930 . S
H722 C738 0.931 . S
C723 H711 0.929 . S
C723 C717 1.390 . S
C723 C720 1.386 . S
C724 C719 1.490 . S
C724 C726 1.395 . S
C724 C727 1.403 . S
H725 C731 0.930 . S
C726 H712 0.930 . S
C726 C724 1.395 . S
C726 C729 1.403 . S
C727 C724 1.403 . S
C727 C728 1.524 . S
C727 C731 1.400 . S
C728 H713 0.960 . S
C728 H714 0.960 . S
C728 H715 0.960 . S
C728 C727 1.524 . S
C729 C726 1.403 . S
C729 C730 1.392 . S
C729 C733 1.495 . S
C730 C729 1.392 . S
C730 C731 1.385 . S
C730 C732 1.478 . S
C731 H725 0.930 . S
C731 C727 1.400 . S
C731 C730 1.385 . S
C732 C730 1.478 . S
C732 C734 1.381 . S
C732 C738 1.383 . S
C733 C729 1.495 . S
C733 H739 0.959 . S
C733 H740 0.961 . S
C733 H741 0.960 . S
C734 C732 1.381 . S
C734 C735 1.394 . S
C734 H742 0.930 . S
C735 C734 1.394 . S
C735 C736 1.383 . S
C735 H743 0.929 . S
C736 C735 1.383 . S
C736 C737 1.377 . S
C737 H721 0.930 . S
C737 C736 1.377 . S
C737 C738 1.379 . S
C738 H722 0.931 . S
C738 C732 1.383 . S
C738 C737 1.379 . S
H739 C733 0.959 . S
H740 C733 0.961 . S
H741 C733 0.960 . S
H742 C734 0.930 . S
H743 C735 0.929 . S
H744 C752 0.929 . S
H745 C754 0.930 . S
H746 C756 0.930 . S
H747 C759 0.929 . S
H748 C762 0.930 . S
H749 C764 0.960 . S
H750 C764 0.960 . S
H751 C764 0.960 . S
C752 H744 0.929 . S
C752 C753 1.377 . S
C752 C754 1.384 . S
C753 C752 1.377 . S
C753 C759 1.390 . S
C754 H745 0.930 . S
C754 C752 1.384 . S
C754 C755 1.372 . S
C755 C754 1.372 . S
C755 C756 1.400 . S
C755 C760 1.490 . S
C756 H746 0.930 . S
C756 C755 1.400 . S
C756 C759 1.386 . S
H757 C773 0.930 . S
H758 C774 0.931 . S
C759 H747 0.929 . S
C759 C753 1.390 . S
C759 C756 1.386 . S
C760 C755 1.490 . S
C760 C762 1.395 . S
C760 C763 1.403 1_545 S
H761 C767 0.930 . S
C762 H748 0.930 . S
C762 C760 1.395 . S
C762 C765 1.403 . S
C763 C760 1.403 1_565 S
C763 C764 1.524 . S
C763 C767 1.400 . S
C764 H749 0.960 . S
C764 H750 0.960 . S
C764 H751 0.960 . S
C764 C763 1.524 . S
C765 C762 1.403 . S
C765 C766 1.392 1_545 S
C765 C769 1.495 . S
C766 C765 1.392 1_565 S
C766 C767 1.385 . S
C766 C768 1.478 . S
C767 H761 0.930 . S
C767 C763 1.400 . S
C767 C766 1.385 . S
C768 C766 1.478 . S
C768 C770 1.381 . S
C768 C774 1.383 . S
C769 C765 1.495 . S
C769 H775 0.959 . S
C769 H776 0.961 1_545 S
C769 H777 0.969 . S
C770 C768 1.381 . S
C770 C771 1.394 . S
C770 H778 0.930 . S
C771 C770 1.394 . S
C771 C772 1.383 . S
C771 H779 0.929 . S
C772 C771 1.383 . S
C772 C773 1.377 . S
C773 H757 0.930 . S
C773 C772 1.377 . S
C773 C774 1.379 . S
C774 H758 0.931 . S
C774 C768 1.383 . S
C774 C773 1.379 . S
H775 C769 0.959 . S
H776 C769 0.961 1_565 S
H777 C769 0.969 . S
H778 C770 0.930 . S
H779 C771 0.929 . S
H780 C788 0.929 . S
H781 C790 0.930 . S
H782 C792 0.930 . S
H783 C795 0.929 . S
H784 C798 0.930 . S
H785 C800 0.960 . S
H786 C800 0.960 . S
H787 C800 0.960 . S
C788 H780 0.929 . S
C788 C789 1.377 . S
C788 C790 1.384 . S
C789 C788 1.377 . S
C789 C795 1.390 . S
C790 H781 0.930 . S
C790 C788 1.384 . S
C790 C791 1.372 . S
C791 C790 1.372 . S
C791 C792 1.400 . S
C791 C796 1.490 . S
C792 H782 0.930 . S
C792 C791 1.400 . S
C792 C795 1.386 . S
H793 C809 0.930 . S
H794 C810 0.931 . S
C795 H783 0.929 . S
C795 C789 1.390 . S
C795 C792 1.386 . S
C796 C791 1.490 . S
C796 C798 1.395 . S
C796 C799 1.403 . S
H797 C803 0.930 . S
C798 H784 0.930 . S
C798 C796 1.395 . S
C798 C801 1.403 . S
C799 C796 1.403 . S
C799 C800 1.524 . S
C799 C803 1.400 . S
C800 H785 0.960 . S
C800 H786 0.960 . S
C800 H787 0.960 . S
C800 C799 1.524 . S
C801 C798 1.403 . S
C801 C802 1.392 . S
C801 C805 1.495 . S
C802 C801 1.392 . S
C802 C803 1.385 . S
C802 C804 1.478 . S
C803 H797 0.930 . S
C803 C799 1.400 . S
C803 C802 1.385 . S
C804 C802 1.478 . S
C804 C806 1.381 . S
C804 C810 1.383 . S
C805 C801 1.495 . S
C805 H811 0.959 . S
C805 H812 0.961 . S
C805 H813 0.960 . S
C806 C804 1.381 . S
C806 C807 1.394 . S
C806 H814 0.930 . S
C807 C806 1.394 . S
C807 C808 1.383 . S
C807 H815 0.929 . S
C808 C807 1.383 . S
C808 C809 1.377 . S
C809 H793 0.930 . S
C809 C808 1.377 . S
C809 C810 1.379 . S
C810 H794 0.931 . S
C810 C804 1.383 . S
C810 C809 1.379 . S
H811 C805 0.959 . S
H812 C805 0.961 . S
H813 C805 0.960 . S
H814 C806 0.930 . S
H815 C807 0.929 . S
H816 C824 0.929 . S
H817 C826 0.930 . S
H818 C828 0.930 . S
H819 C831 0.929 . S
H820 C834 0.930 . S
H821 C836 0.960 . S
H822 C836 0.960 1_545 S
H823 C836 0.960 1_545 S
C824 H816 0.929 . S
C824 C825 1.377 . S
C824 C826 1.384 . S
C825 C824 1.377 . S
C825 C831 1.390 . S
C826 H817 0.930 . S
C826 C824 1.384 . S
C826 C827 1.372 . S
C827 C826 1.372 . S
C827 C828 1.400 . S
C827 C832 1.490 . S
C828 H818 0.930 . S
C828 C827 1.400 . S
C828 C831 1.386 . S
H829 C845 0.930 . S
H830 C846 0.931 . S
C831 H819 0.929 . S
C831 C825 1.390 . S
C831 C828 1.386 . S
C832 C827 1.490 . S
C832 C834 1.395 . S
C832 C835 1.403 . S
H833 C839 0.930 . S
C834 H820 0.930 . S
C834 C832 1.395 . S
C834 C837 1.403 . S
C835 C832 1.403 . S
C835 C836 1.524 1_545 S
C835 C839 1.400 1_545 S
C836 H821 0.960 . S
C836 H822 0.960 1_565 S
C836 H823 0.960 1_565 S
C836 C835 1.524 1_565 S
C837 C834 1.403 . S
C837 C838 1.392 1_545 S
C837 C841 1.495 . S
C838 C837 1.392 1_565 S
C838 C839 1.385 . S
C838 C840 1.478 . S
C839 H833 0.930 . S
C839 C835 1.400 1_565 S
C839 C838 1.385 . S
C840 C838 1.478 . S
C840 C842 1.381 . S
C840 C846 1.383 . S
C841 C837 1.495 . S
C841 H847 0.959 . S
C841 H848 0.961 1_545 S
C841 H849 0.960 . S
C842 C840 1.381 . S
C842 C843 1.394 . S
C842 H850 0.930 . S
C843 C842 1.394 . S
C843 C844 1.383 . S
C843 H851 0.929 . S
C844 C843 1.383 . S
C844 C845 1.377 . S
C845 H829 0.930 . S
C845 C844 1.377 . S
C845 C846 1.379 . S
C846 H830 0.931 . S
C846 C840 1.383 . S
C846 C845 1.379 . S
H847 C841 0.959 . S
H848 C841 0.961 1_565 S
H849 C841 0.960 . S
H850 C842 0.930 . S
H851 C843 0.929 . S
H852 C860 0.929 . S
H853 C862 0.930 . S
H854 C864 0.930 . S
H855 C867 0.929 . S
H856 C870 0.930 . S
H857 C872 0.960 . S
H858 C872 0.960 . S
H859 C872 0.960 . S
C860 H852 0.929 . S
C860 C861 1.377 . S
C860 C862 1.384 . S
C861 C860 1.377 . S
C861 C867 1.390 . S
C862 H853 0.930 . S
C862 C860 1.384 . S
C862 C863 1.372 . S
C863 C862 1.372 . S
C863 C864 1.400 . S
C863 C868 1.490 . S
C864 H854 0.930 . S
C864 C863 1.400 . S
C864 C867 1.386 . S
H865 C881 0.930 . S
H866 C882 0.931 . S
C867 H855 0.929 . S
C867 C861 1.390 . S
C867 C864 1.386 . S
C868 C863 1.490 . S
C868 C870 1.395 . S
C868 C871 1.403 . S
H869 C875 0.930 . S
C870 H856 0.930 . S
C870 C868 1.395 . S
C870 C873 1.403 . S
C871 C868 1.403 . S
C871 C872 1.524 . S
C871 C875 1.400 . S
C872 H857 0.960 . S
C872 H858 0.960 . S
C872 H859 0.960 . S
C872 C871 1.524 . S
C873 C870 1.403 . S
C873 C874 1.392 . S
C873 C877 1.495 . S
C874 C873 1.392 . S
C874 C875 1.385 . S
C874 C876 1.478 . S
C875 H869 0.930 . S
C875 C871 1.400 . S
C875 C874 1.385 . S
C876 C874 1.478 . S
C876 C878 1.381 . S
C876 C882 1.383 . S
C877 C873 1.495 . S
C877 H883 0.959 . S
C877 H884 0.961 . S
C877 H885 0.960 . S
C878 C876 1.381 . S
C878 C879 1.394 . S
C878 H886 0.930 . S
C879 C878 1.394 . S
C879 C880 1.383 . S
C879 H887 0.929 . S
C880 C879 1.383 . S
C880 C881 1.377 . S
C881 H865 0.930 . S
C881 C880 1.377 . S
C881 C882 1.379 . S
C882 H866 0.931 . S
C882 C876 1.383 . S
C882 C881 1.379 . S
H883 C877 0.959 . S
H884 C877 0.961 . S
H885 C877 0.960 . S
H886 C878 0.930 . S
H887 C879 0.929 . S
H888 C896 0.929 . S
H889 C898 0.930 . S
H890 C900 0.930 . S
H891 C903 0.929 . S
H892 C906 0.930 . S
H893 C908 0.960 . S
H894 C908 0.960 . S
H895 C908 0.960 . S
C896 H888 0.929 . S
C896 C897 1.377 . S
C896 C898 1.384 . S
C897 C896 1.377 . S
C897 C903 1.390 . S
C898 H889 0.930 . S
C898 C896 1.384 . S
C898 C899 1.372 . S
C899 C898 1.372 . S
C899 C900 1.400 . S
C899 C904 1.490 . S
C900 H890 0.930 . S
C900 C899 1.400 . S
C900 C903 1.386 . S
H901 C917 0.930 . S
H902 C918 0.931 . S
C903 H891 0.929 . S
C903 C897 1.390 . S
C903 C900 1.386 . S
C904 C899 1.490 . S
C904 C906 1.395 . S
C904 C907 1.403 . S
H905 C911 0.930 . S
C906 H892 0.930 . S
C906 C904 1.395 . S
C906 C909 1.403 . S
C907 C904 1.403 . S
C907 C908 1.524 . S
C907 C911 1.400 . S
C908 H893 0.960 . S
C908 H894 0.960 . S
C908 H895 0.960 . S
C908 C907 1.524 . S
C909 C906 1.403 . S
C909 C910 1.392 . S
C909 C913 1.495 . S
C910 C909 1.392 . S
C910 C911 1.385 . S
C910 C912 1.478 . S
C911 H905 0.930 . S
C911 C907 1.400 . S
C911 C910 1.385 . S
C912 C910 1.478 . S
C912 C914 1.381 . S
C912 C918 1.383 . S
C913 C909 1.495 . S
C913 H919 0.959 . S
C913 H920 0.961 . S
C913 H921 0.960 . S
C914 C912 1.381 . S
C914 C915 1.394 . S
C914 H922 0.930 . S
C915 C914 1.394 . S
C915 C916 1.383 . S
C915 H923 0.929 . S
C916 C915 1.383 . S
C916 C917 1.377 . S
C917 H901 0.930 . S
C917 C916 1.377 . S
C917 C918 1.379 . S
C918 H902 0.931 . S
C918 C912 1.383 . S
C918 C917 1.379 . S
H919 C913 0.959 . S
H920 C913 0.961 . S
H921 C913 0.960 . S
H922 C914 0.930 . S
H923 C915 0.929 . S
H924 C932 0.929 . S
H925 C934 0.930 . S
H926 C936 0.930 . S
H927 C939 0.929 . S
H928 C942 0.930 . S
H929 C944 0.960 . S
H930 C944 0.960 . S
H931 C944 0.960 . S
C932 H924 0.929 . S
C932 C933 1.377 . S
C932 C934 1.384 . S
C933 C932 1.377 . S
C933 C939 1.390 . S
C934 H925 0.930 . S
C934 C932 1.384 . S
C934 C935 1.372 . S
C935 C934 1.372 . S
C935 C936 1.400 . S
C935 C940 1.490 . S
C936 H926 0.930 . S
C936 C935 1.400 . S
C936 C939 1.386 . S
H937 C953 0.930 . S
H938 C954 0.931 . S
C939 H927 0.929 . S
C939 C933 1.390 . S
C939 C936 1.386 . S
C940 C935 1.490 . S
C940 C942 1.395 . S
C940 C943 1.403 . S
H941 C947 0.930 . S
C942 H928 0.930 . S
C942 C940 1.395 . S
C942 C945 1.403 1_455 S
C943 C940 1.403 . S
C943 C944 1.524 . S
C943 C947 1.400 1_455 S
C944 H929 0.960 . S
C944 H930 0.960 . S
C944 H931 0.960 . S
C944 C943 1.524 . S
C945 C942 1.403 1_655 S
C945 C946 1.392 . S
C945 C949 1.495 . S
C946 C945 1.392 . S
C946 C947 1.385 . S
C946 C948 1.478 . S
C947 H941 0.930 . S
C947 C943 1.400 1_655 S
C947 C946 1.385 . S
C948 C946 1.478 . S
C948 C950 1.381 . S
C948 C954 1.383 . S
C949 C945 1.495 . S
C949 H955 0.959 . S
C949 H956 0.961 . S
C949 H957 0.960 . S
C950 C948 1.381 . S
C950 C951 1.394 . S
C950 H958 0.930 . S
C951 C950 1.394 . S
C951 C952 1.383 . S
C951 H959 0.929 . S
C952 C951 1.383 . S
C952 C953 1.377 . S
C953 H937 0.930 . S
C953 C952 1.377 . S
C953 C954 1.379 . S
C954 H938 0.931 . S
C954 C948 1.383 . S
C954 C953 1.379 . S
H955 C949 0.959 . S
H956 C949 0.961 . S
H957 C949 0.960 . S
H958 C950 0.930 . S
H959 C951 0.929 . S
H960 C968 0.929 . S
H961 C970 0.930 . S
H962 C972 0.930 . S
H963 C975 0.929 . S
H964 C978 0.930 . S
H965 C980 0.960 . S
H966 C980 0.960 . S
H967 C980 0.960 . S
C968 H960 0.929 . S
C968 C969 1.377 . S
C968 C970 1.384 . S
C969 C968 1.377 . S
C969 C975 1.390 . S
C970 H961 0.930 . S
C970 C968 1.384 . S
C970 C971 1.372 . S
C971 C970 1.372 . S
C971 C972 1.400 . S
C971 C976 1.490 . S
C972 H962 0.930 . S
C972 C971 1.400 . S
C972 C975 1.386 . S
H973 C989 0.930 . S
H974 C990 0.931 . S
C975 H963 0.929 . S
C975 C969 1.390 . S
C975 C972 1.386 . S
C976 C971 1.490 . S
C976 C978 1.395 . S
C976 C979 1.403 . S
H977 C983 0.930 . S
C978 H964 0.930 . S
C978 C976 1.395 . S
C978 C981 1.403 . S
C979 C976 1.403 . S
C979 C980 1.524 . S
C979 C983 1.400 . S
C980 H965 0.960 . S
C980 H966 0.960 . S
C980 H967 0.960 . S
C980 C979 1.524 . S
C981 C978 1.403 . S
C981 C982 1.392 . S
C981 C985 1.495 . S
C982 C981 1.392 . S
C982 C983 1.385 . S
C982 C984 1.478 . S
C983 H977 0.930 . S
C983 C979 1.400 . S
C983 C982 1.385 . S
C984 C982 1.478 . S
C984 C986 1.381 . S
C984 C990 1.383 . S
C985 C981 1.495 . S
C985 H991 0.959 . S
C985 H992 0.961 . S
C985 H993 0.960 . S
C986 C984 1.381 . S
C986 C987 1.394 . S
C986 H994 0.930 . S
C987 C986 1.394 . S
C987 C988 1.383 . S
C987 H995 0.929 . S
C988 C987 1.383 . S
C988 C989 1.377 . S
C989 H973 0.930 . S
C989 C988 1.377 . S
C989 C990 1.379 . S
C990 H974 0.931 . S
C990 C984 1.383 . S
C990 C989 1.379 . S
H991 C985 0.959 . S
H992 C985 0.961 . S
H993 C985 0.960 . S
H994 C986 0.930 . S
H995 C987 0.929 . S
H996 C1004 0.929 . S
H997 C1006 0.930 . S
H998 C1008 0.930 . S
H999 C1011 0.929 . S
H1000 C1014 0.930 . S
H1001 C1016 0.960 . S
H1002 C1016 0.960 . S
H1003 C1016 0.960 . S
C1004 H996 0.929 . S
C1004 C1005 1.377 . S
C1004 C1006 1.384 . S
C1005 C1004 1.377 . S
C1005 C1011 1.390 . S
C1006 H997 0.930 . S
C1006 C1004 1.384 . S
C1006 C1007 1.372 . S
C1007 C1006 1.372 . S
C1007 C1008 1.400 . S
C1007 C1012 1.490 . S
C1008 H998 0.930 . S
C1008 C1007 1.400 . S
C1008 C1011 1.386 . S
H1009 C1025 0.930 . S
H1010 C1026 0.931 . S
C1011 H999 0.929 . S
C1011 C1005 1.390 . S
C1011 C1008 1.386 . S
C1012 C1007 1.490 . S
C1012 C1014 1.395 . S
C1012 C1015 1.403 . S
H1013 C1019 0.930 . S
C1014 H1000 0.930 . S
C1014 C1012 1.395 . S
C1014 C1017 1.403 1_655 S
C1015 C1012 1.403 . S
C1015 C1016 1.524 . S
C1015 C1019 1.400 1_655 S
C1016 H1001 0.960 . S
C1016 H1002 0.960 . S
C1016 H1003 0.960 . S
C1016 C1015 1.524 . S
C1017 C1014 1.403 1_455 S
C1017 C1018 1.392 . S
C1017 C1021 1.495 . S
C1018 C1017 1.392 . S
C1018 C1019 1.385 . S
C1018 C1020 1.478 . S
C1019 H1013 0.930 . S
C1019 C1015 1.400 1_455 S
C1019 C1018 1.385 . S
C1020 C1018 1.478 . S
C1020 C1022 1.381 . S
C1020 C1026 1.383 . S
C1021 C1017 1.495 . S
C1021 H1027 0.959 . S
C1021 H1028 0.961 . S
C1021 H1029 0.960 . S
C1022 C1020 1.381 . S
C1022 C1023 1.394 . S
C1022 H1030 0.930 . S
C1023 C1022 1.394 . S
C1023 C1024 1.383 . S
C1023 H1031 0.929 . S
C1024 C1023 1.383 . S
C1024 C1025 1.377 . S
C1025 H1009 0.930 . S
C1025 C1024 1.377 . S
C1025 C1026 1.379 . S
C1026 H1010 0.931 . S
C1026 C1020 1.383 . S
C1026 C1025 1.379 . S
H1027 C1021 0.959 . S
H1028 C1021 0.961 . S
H1029 C1021 0.960 . S
H1030 C1022 0.930 . S
H1031 C1023 0.929 . S
C177 C16 0.956 1_655 S
C196 C163 0.874 1_545 S
C213 C37 0.952 . S
C232 C87 0.867 . S
C249 C58 0.957 1_455 S
C268 C108 0.881 1_565 S
C285 C142 0.931 . S
C304 C79 0.943 . S
C321 C19 0.916 . S
C340 C25 0.911 . S
C357 C46 0.838 1_455 S
C376 C40 0.957 . S
C393 C67 0.809 . S
C412 C61 0.865 . S
C429 C4 0.838 1_655 S
C448 C82 0.897 . S
C465 C104 0.920 . S
C484 C151 0.883 1_545 S
C501 C125 0.900 . S
C520 C91 0.813 . S
C537 C145 0.900 . S
C556 C112 0.801 1_565 S
C573 C130 0.807 . S
C592 C166 0.878 . S
C609 C121 0.571 . S
C628 C3 0.499 . S
C645 C129 0.597 . S
C664 C24 0.631 . S
C681 C150 0.588 . S
C700 C45 0.583 . S
C717 C100 0.577 . S
C736 C66 0.532 . S
C753 C7 1.989 . S
C772 C146 1.904 . S
C789 C28 1.985 . S
C808 C167 1.923 . S
C825 C103 1.923 . S
C844 C49 1.962 . S
C861 C124 1.911 . S
C880 C70 2.004 . S
C897 C62 1.916 . S
C916 C88 1.986 . S
C933 C109 1.983 . S
C952 C83 1.942 . S
C969 C133 1.991 . S
C988 C20 1.886 . S
C1005 C154 1.992 . S
C1024 C41 1.886 . S
