# Generated by pormake.
# Topology mok, (4)-cn, num edge types: 1
# Building blocks:
#     Node 0, Type 0, BuildingBlock: NAHDIM_clean_sbu_0, # of connection points: 4
#     Node 1, Type 0, BuildingBlock: NAHDIM_clean_sbu_0, # of connection points: 4
#     Node 2, Type 0, BuildingBlock: NAHDIM_clean_sbu_0, # of connection points: 4
#     Node 3, Type 0, BuildingBlock: NAHDIM_clean_sbu_0, # of connection points: 4
#     Node 4, Type 0, BuildingBlock: NAHDIM_clean_sbu_0, # of connection points: 4
#     Node 5, Type 0, BuildingBlock: NAHDIM_clean_sbu_0, # of connection points: 4
#     Node 6, Type 0, BuildingBlock: NAHDIM_clean_sbu_0, # of connection points: 4
#     Node 7, Type 0, BuildingBlock: NAHDIM_clean_sbu_0, # of connection points: 4
#     Edge 8, Type (0, 0), BuildingBlock: UVAHIK_clean_linker_0, # of connection points: 2
#     Edge 9, Type (0, 0), BuildingBlock: UVAHIK_clean_linker_0, # of connection points: 2
#     Edge 10, Type (0, 0), BuildingBlock: UVAHIK_clean_linker_0, # of connection points: 2
#     Edge 11, Type (0, 0), BuildingBlock: UVAHIK_clean_linker_0, # of connection points: 2
#     Edge 12, Type (0, 0), BuildingBlock: UVAHIK_clean_linker_0, # of connection points: 2
#     Edge 13, Type (0, 0), BuildingBlock: UVAHIK_clean_linker_0, # of connection points: 2
#     Edge 14, Type (0, 0), BuildingBlock: UVAHIK_clean_linker_0, # of connection points: 2
#     Edge 15, Type (0, 0), BuildingBlock: UVAHIK_clean_linker_0, # of connection points: 2
#     Edge 16, Type (0, 0), BuildingBlock: UVAHIK_clean_linker_0, # of connection points: 2
#     Edge 17, Type (0, 0), BuildingBlock: UVAHIK_clean_linker_0, # of connection points: 2
#     Edge 18, Type (0, 0), BuildingBlock: UVAHIK_clean_linker_0, # of connection points: 2
#     Edge 19, Type (0, 0), BuildingBlock: UVAHIK_clean_linker_0, # of connection points: 2
#     Edge 20, Type (0, 0), BuildingBlock: UVAHIK_clean_linker_0, # of connection points: 2
#     Edge 21, Type (0, 0), BuildingBlock: UVAHIK_clean_linker_0, # of connection points: 2
#     Edge 22, Type (0, 0), BuildingBlock: UVAHIK_clean_linker_0, # of connection points: 2
#     Edge 23, Type (0, 0), BuildingBlock: UVAHIK_clean_linker_0, # of connection points: 2
# Relax obj value: 0.052
# Max RMSD: 0.062
# Mean RMSD: 0.062
data_MOF--net-mok--node1-NAHDIM_clean_sbu_0--edge1-UVAHIK_clean_linker_0
_symmetry_space_group_name_H-M    P1
_symmetry_Int_Tables_number       1
_symmetry_cell_setting            triclinic
loop_
_symmetry_equiv_pos_as_xyz
'x, y, z'
_cell_length_a     64.144025
_cell_length_b     25.830973
_cell_length_c     32.461499
_cell_angle_alpha  90.032536
_cell_angle_beta   90.057983
_cell_angle_gamma 90.017558
loop_
_atom_site_label
_atom_site_type_symbol
_atom_site_fract_x
_atom_site_fract_y
_atom_site_fract_z
_atom_type_partial_charge
C0 C 0.55723 0.2324 0.01563 0.0
O1 O 0.54859 0.27851 0.01583 0.0
O2 O 0.58503 0.33941 0.96916 0.0
Zn3 Zn 0.59366 0.29438 0.01649 0.0
O4 O 0.58881 0.3313 0.06992 0.0
C5 C 0.63364 0.27688 0.9776 0.0
O6 O 0.62294 0.2838 0.94351 0.0
O7 O 0.57698 0.22892 0.01573 0.0
C8 C 0.59574 0.31047 0.10262 0.0
O9 O 0.60529 0.26558 0.10009 0.0
C10 C 0.59182 0.38548 0.96679 0.0
O11 O 0.60397 0.40325 0.9962 0.0
O12 O 0.62427 0.27868 0.01204 0.0
C13 C 0.43259 0.76922 0.01096 0.0
O14 O 0.44175 0.72386 0.01364 0.0
O15 O 0.40734 0.66305 0.95615 0.0
Zn16 Zn 0.39754 0.70359 0.00545 0.0
O17 O 0.40232 0.66592 0.05869 0.0
C18 C 0.35825 0.73112 0.96722 0.0
O19 O 0.36996 0.74099 0.93497 0.0
O20 O 0.41289 0.77104 0.0072 0.0
C21 C 0.39545 0.62038 0.06447 0.0
O22 O 0.38576 0.59635 0.03433 0.0
C23 C 0.41975 0.62472 0.957 0.0
O24 O 0.42726 0.60852 0.99237 0.0
O25 O 0.36679 0.71573 0.00035 0.0
C26 C 0.56161 0.77214 0.50724 0.0
O27 O 0.55325 0.72587 0.51032 0.0
O28 O 0.59287 0.68145 0.57087 0.0
Zn29 Zn 0.59878 0.71295 0.51551 0.0
O30 O 0.59276 0.66243 0.4701 0.0
C31 C 0.6386 0.74761 0.54522 0.0
O32 O 0.62794 0.75491 0.57928 0.0
O33 O 0.58132 0.77659 0.50834 0.0
C34 C 0.60217 0.61918 0.46965 0.0
O35 O 0.61524 0.60813 0.49959 0.0
C36 C 0.58038 0.64419 0.57744 0.0
O37 O 0.57002 0.62383 0.54649 0.0
O38 O 0.62921 0.73102 0.51334 0.0
C39 C 0.43214 0.2265 0.50673 0.0
O40 O 0.4406 0.27271 0.50397 0.0
O41 O 0.40704 0.32638 0.56884 0.0
Zn42 Zn 0.39686 0.28944 0.518 0.0
O43 O 0.40112 0.33081 0.46635 0.0
C44 C 0.35841 0.25549 0.5558 0.0
O45 O 0.37078 0.24133 0.58605 0.0
O46 O 0.41263 0.22291 0.51279 0.0
C47 C 0.39331 0.37556 0.46146 0.0
O48 O 0.3827 0.39683 0.49165 0.0
C49 C 0.41801 0.36735 0.56964 0.0
O50 O 0.42365 0.38942 0.53497 0.0
O51 O 0.36623 0.27589 0.52375 0.0
C52 C 0.05922 0.72388 0.02298 0.0
O53 O 0.05011 0.7694 0.02168 0.0
O54 O 0.08354 0.82191 0.95886 0.0
Zn55 Zn 0.09488 0.78672 0.00936 0.0
O56 O 0.09221 0.83233 0.05913 0.0
C57 C 0.13515 0.78366 0.96875 0.0
O58 O 0.12512 0.8078 0.93915 0.0
O59 O 0.07887 0.72125 0.01867 0.0
C60 C 0.10412 0.87134 0.06308 0.0
O61 O 0.11761 0.88177 0.0338 0.0
C62 C 0.07254 0.86279 0.95875 0.0
O63 O 0.06746 0.88467 0.99387 0.0
O64 O 0.12533 0.77031 0.00106 0.0
C65 C 0.93379 0.26369 0.01937 0.0
O66 O 0.94222 0.21734 0.01962 0.0
O67 O 0.90505 0.17481 0.94739 0.0
Zn68 Zn 0.89767 0.20362 0.00301 0.0
O69 O 0.90366 0.15205 0.04761 0.0
C70 C 0.85735 0.23191 0.97113 0.0
O71 O 0.8678 0.23596 0.9365 0.0
O72 O 0.91433 0.268 0.013 0.0
C73 C 0.89502 0.1078 0.04702 0.0
O74 O 0.88252 0.09589 0.01635 0.0
C75 C 0.91807 0.1387 0.94084 0.0
O76 O 0.92797 0.1176 0.97204 0.0
O77 O 0.86701 0.21962 0.0039 0.0
C78 C 0.05992 0.26112 0.51043 0.0
O79 O 0.05062 0.21583 0.51202 0.0
O80 O 0.08272 0.15881 0.56894 0.0
Zn81 Zn 0.09523 0.19667 0.52092 0.0
O82 O 0.09291 0.1546 0.46909 0.0
C83 C 0.13575 0.1941 0.56196 0.0
O84 O 0.1261 0.16547 0.58939 0.0
O85 O 0.07965 0.26311 0.51334 0.0
C86 C 0.10371 0.16867 0.43827 0.0
O87 O 0.11558 0.20994 0.44157 0.0
C88 C 0.08227 0.10973 0.57109 0.0
O89 O 0.09004 0.08227 0.54069 0.0
O90 O 0.12562 0.21173 0.53135 0.0
C91 C 0.93833 0.72878 0.49944 0.0
O92 O 0.94735 0.77411 0.49488 0.0
O93 O 0.91294 0.83895 0.54939 0.0
Zn94 Zn 0.90302 0.79382 0.50303 0.0
O95 O 0.90801 0.82882 0.44889 0.0
C96 C 0.86253 0.78585 0.54243 0.0
O97 O 0.87301 0.79771 0.57592 0.0
O98 O 0.91868 0.72685 0.5039 0.0
C99 C 0.90159 0.80623 0.41651 0.0
O100 O 0.89238 0.76099 0.41988 0.0
C101 C 0.9083 0.88673 0.55009 0.0
O102 O 0.89742 0.90634 0.51954 0.0
O103 O 0.87219 0.7812 0.50848 0.0
C104 C 0.82326 0.23464 0.00864 0.0
C105 C 0.83447 0.23898 0.97162 0.0
C106 C 0.80157 0.23939 0.00887 0.0
C107 C 0.75561 0.22774 0.94152 0.0
H108 H 0.72801 0.30517 0.02807 0.0
C109 C 0.6673 0.27269 0.9386 0.0
C110 C 0.65651 0.26985 0.9762 0.0
C111 C 0.68902 0.26841 0.93761 0.0
C112 C 0.73546 0.28288 0.00396 0.0
H113 H 0.83169 0.25232 0.90584 0.0
H114 H 0.79383 0.2609 0.90634 0.0
H115 H 0.76594 0.29986 0.02718 0.0
H116 H 0.66004 0.25916 0.04215 0.0
H117 H 0.69784 0.25095 0.04031 0.0
H118 H 0.72513 0.21052 0.91841 0.0
C119 C 0.80182 0.25327 0.93511 0.0
C120 C 0.7572 0.27991 0.00343 0.0
C121 C 0.82353 0.24869 0.93489 0.0
C122 C 0.66787 0.26179 0.01268 0.0
C123 C 0.68956 0.25743 0.01167 0.0
C124 C 0.73386 0.2306 0.94209 0.0
C125 C 0.7906 0.24845 0.97208 0.0
C126 C 0.76751 0.25224 0.97225 0.0
C127 C 0.70041 0.26113 0.97418 0.0
C128 C 0.72353 0.25811 0.97338 0.0
H129 H 0.83121 0.22705 0.03747 0.0
H130 H 0.79335 0.23492 0.03779 0.0
H131 H 0.7631 0.20549 0.91742 0.0
H132 H 0.65902 0.27902 0.90995 0.0
H133 H 0.69691 0.27196 0.90827 0.0
C134 C 0.16875 0.78932 0.92976 0.0
C135 C 0.15783 0.77435 0.96534 0.0
C136 C 0.19032 0.78245 0.92721 0.0
C137 C 0.23423 0.7104 0.97403 0.0
H138 H 0.26779 0.82218 0.92971 0.0
C139 C 0.32287 0.72136 -0.00145 0.0
C140 C 0.33531 0.73602 0.96488 0.0
C141 C 0.3012 0.72472 0.9963 0.0
C142 C 0.25861 0.79036 0.94168 0.0
H143 H 0.16097 0.73988 0.02597 0.0
H144 H 0.19858 0.72847 0.0217 0.0
H145 H 0.22987 0.82966 0.92977 0.0
H146 H 0.3347 0.76603 0.90249 0.0
H147 H 0.29672 0.77193 0.89861 0.0
H148 H 0.26299 0.67147 0.98649 0.0
C149 C 0.19046 0.74488 0.99552 0.0
C150 C 0.23689 0.7946 0.94168 0.0
C151 C 0.1689 0.7517 -0.00194 0.0
C152 C 0.32556 0.75449 0.92898 0.0
C153 C 0.30383 0.75806 0.9268 0.0
C154 C 0.25593 0.70624 0.97411 0.0
C155 C 0.20144 0.76047 0.96018 0.0
C156 C 0.22446 0.75487 0.95824 0.0
C157 C 0.29143 0.74295 0.96039 0.0
C158 C 0.26836 0.7464 0.95833 0.0
H159 H 0.16069 0.80672 0.90392 0.0
H160 H 0.19828 0.79423 0.89934 0.0
H161 H 0.2251 0.6787 0.9863 0.0
H162 H 0.32986 0.70704 0.02672 0.0
H163 H 0.29208 0.71353 0.02292 0.0
C164 C 0.82855 0.78927 0.58043 0.0
C165 C 0.83958 0.78033 0.54372 0.0
C166 C 0.8068 0.78589 0.58117 0.0
C167 C 0.76206 0.73068 0.52468 0.0
H168 H 0.73032 0.8359 0.58234 0.0
C169 C 0.67292 0.746 0.50854 0.0
C170 C 0.66146 0.75517 0.54469 0.0
C171 C 0.69462 0.75028 0.5086 0.0
C172 C 0.73896 0.80592 0.56647 0.0
H173 H 0.83642 0.76036 0.47905 0.0
H174 H 0.79853 0.75469 0.48035 0.0
H175 H 0.76833 0.83966 0.58275 0.0
H176 H 0.66379 0.77694 0.6091 0.0
H177 H 0.70169 0.78395 0.60927 0.0
H178 H 0.73275 0.69685 0.50844 0.0
C179 C 0.80669 0.76386 0.50866 0.0
C180 C 0.76073 0.80805 0.56673 0.0
C181 C 0.82841 0.76737 0.50788 0.0
C182 C 0.67215 0.7697 0.58071 0.0
C183 C 0.69387 0.77395 0.58077 0.0
C184 C 0.74031 0.72852 0.52445 0.0
C185 C 0.79563 0.77332 0.54525 0.0
C186 C 0.77252 0.77053 0.54572 0.0
C187 C 0.70537 0.76377 0.54481 0.0
C188 C 0.7285 0.76621 0.54521 0.0
H189 H 0.83668 0.79929 0.60859 0.0
H190 H 0.79874 0.79278 0.60995 0.0
H191 H 0.7707 0.70074 0.50875 0.0
H192 H 0.66516 0.73496 0.48021 0.0
H193 H 0.70299 0.74303 0.48022 0.0
C194 C 0.16893 0.23207 0.53491 0.0
C195 C 0.15842 0.20382 0.5655 0.0
C196 C 0.19045 0.2395 0.53725 0.0
C197 C 0.23791 0.18384 0.58337 0.0
H198 H 0.26256 0.31422 0.54974 0.0
C199 C 0.32661 0.22523 0.59382 0.0
C200 C 0.33554 0.24951 0.55934 0.0
C201 C 0.30495 0.22054 0.59723 0.0
C202 C 0.2559 0.27747 0.55896 0.0
H203 H 0.16224 0.162 0.62296 0.0
H204 H 0.19983 0.17549 0.62724 0.0
H205 H 0.22474 0.30537 0.55158 0.0
H206 H 0.32872 0.28775 0.50133 0.0
H207 H 0.29106 0.27935 0.50724 0.0
H208 H 0.26915 0.15592 0.59049 0.0
C209 C 0.19143 0.19127 0.60116 0.0
C210 C 0.23424 0.27238 0.56 0.0
C211 C 0.16987 0.18381 0.59881 0.0
C212 C 0.32237 0.26888 0.52834 0.0
C213 C 0.30076 0.26441 0.53184 0.0
C214 C 0.2596 0.18899 0.58244 0.0
C215 C 0.20198 0.21894 0.57026 0.0
C216 C 0.22499 0.22531 0.5717 0.0
C217 C 0.29181 0.24033 0.56635 0.0
C218 C 0.26882 0.23565 0.5697 0.0
H219 H 0.16059 0.24789 0.50876 0.0
H220 H 0.19813 0.26036 0.51262 0.0
H221 H 0.23129 0.14685 0.59204 0.0
H222 H 0.33633 0.20996 0.61826 0.0
H223 H 0.29848 0.20209 0.62431 0.0
C224 C 0.58347 0.38502 0.14561 0.0
C225 C 0.59405 0.33752 0.14262 0.0
C226 C 0.58276 0.41174 0.18302 0.0
C227 C 0.61157 0.42611 0.27988 0.0
H228 H 0.56145 0.4954 0.31753 0.0
C229 C 0.60912 0.53438 0.4349 0.0
C230 C 0.59919 0.58285 0.43493 0.0
C231 C 0.60717 0.50117 0.40114 0.0
C232 C 0.57562 0.47661 0.30725 0.0
H233 H 0.61176 0.28024 0.17677 0.0
H234 H 0.61049 0.32691 0.24202 0.0
H235 H 0.5604 0.44335 0.25475 0.0
H236 H 0.57908 0.63407 0.39988 0.0
H237 H 0.57598 0.57658 0.34076 0.0
H238 H 0.62693 0.46009 0.33171 0.0
C239 C 0.60292 0.34366 0.21533 0.0
C240 C 0.575 0.44677 0.27135 0.0
C241 C 0.60355 0.31684 0.17799 0.0
C242 C 0.58691 0.59695 0.40086 0.0
C243 C 0.58502 0.56383 0.36704 0.0
C244 C 0.61221 0.45607 0.31565 0.0
C245 C 0.59268 0.39161 0.21814 0.0
C246 C 0.593 0.42147 0.25717 0.0
C247 C 0.5953 0.51577 0.3666 0.0
C248 C 0.59428 0.48196 0.32963 0.0
H249 H 0.57597 0.40199 0.11893 0.0
H250 H 0.57492 0.44885 0.18414 0.0
H251 H 0.62578 0.40772 0.26937 0.0
H252 H 0.61858 0.52221 0.4608 0.0
H253 H 0.61502 0.46407 0.40206 0.0
C254 C 0.39541 0.54195 0.10967 0.0
C255 C 0.3975 0.5958 0.1053 0.0
C256 C 0.39667 0.51907 0.1486 0.0
C257 C 0.38641 0.54423 0.25598 0.0
H258 H 0.42395 0.43018 0.27873 0.0
C259 C 0.39252 0.45609 0.41868 0.0
C260 C 0.39555 0.40243 0.4216 0.0
C261 C 0.39419 0.4811 0.38064 0.0
C262 C 0.41313 0.46146 0.27282 0.0
H263 H 0.40258 0.66795 0.1381 0.0
H264 H 0.40421 0.62791 0.20625 0.0
H265 H 0.42385 0.47007 0.21062 0.0
H266 H 0.40258 0.3327 0.3871 0.0
H267 H 0.40455 0.37563 0.32069 0.0
H268 H 0.37492 0.53461 0.31719 0.0
C269 C 0.40182 0.60354 0.17948 0.0
C270 C 0.4132 0.48442 0.23387 0.0
C271 C 0.40098 0.62631 0.14052 0.0
C272 C 0.40033 0.37423 0.38585 0.0
C273 C 0.40161 0.39902 0.34774 0.0
C274 C 0.38603 0.52069 0.29469 0.0
C275 C 0.39962 0.54978 0.18383 0.0
C276 C 0.39984 0.52596 0.22517 0.0
C277 C 0.39853 0.45281 0.34455 0.0
C278 C 0.39937 0.47889 0.30366 0.0
H279 H 0.39278 0.51751 0.08304 0.0
H280 H 0.39484 0.47751 0.15132 0.0
H281 H 0.37581 0.57595 0.24977 0.0
H282 H 0.389 0.47886 0.44583 0.0
H283 H 0.39214 0.52268 0.37966 0.0
C284 C 0.43144 0.54549 0.91908 0.0
C285 C 0.42484 0.59734 0.91839 0.0
C286 C 0.43456 0.51851 0.88225 0.0
C287 C 0.44475 0.53283 0.77208 0.0
H288 H 0.41085 0.40968 0.75891 0.0
C289 C 0.4273 0.44441 0.61255 0.0
C290 C 0.4234 0.39109 0.60959 0.0
C291 C 0.43062 0.46744 0.65098 0.0
C292 C 0.42085 0.44321 0.76214 0.0
H293 H 0.41728 0.66236 0.87884 0.0
H294 H 0.4232 0.61545 0.81454 0.0
H295 H 0.41191 0.45349 0.82516 0.0
H296 H 0.42113 0.31945 0.64399 0.0
H297 H 0.4279 0.35896 0.71072 0.0
H298 H 0.45394 0.52253 0.70932 0.0
C299 C 0.42577 0.59566 0.84353 0.0
C300 C 0.42134 0.4684 0.80016 0.0
C301 C 0.42225 0.62232 0.88028 0.0
C302 C 0.42381 0.36082 0.64547 0.0
C303 C 0.42755 0.38361 0.68377 0.0
C304 C 0.44458 0.5071 0.73418 0.0
C305 C 0.43157 0.5433 0.8442 0.0
C306 C 0.43298 0.51391 0.80524 0.0
C307 C 0.43052 0.43744 0.68721 0.0
C308 C 0.43229 0.46245 0.72845 0.0
H309 H 0.43351 0.52528 0.94802 0.0
H310 H 0.43907 0.47813 0.88344 0.0
H311 H 0.45395 0.56775 0.77543 0.0
H312 H 0.42698 0.46868 0.58535 0.0
H313 H 0.43251 0.50905 0.65227 0.0
C314 C 0.59598 0.46697 0.92594 0.0
C315 C 0.58742 0.41716 0.92987 0.0
C316 C 0.59311 0.49536 0.88977 0.0
C317 C 0.56128 0.50404 0.79482 0.0
H318 H 0.61076 0.56935 0.75015 0.0
C319 C 0.5672 0.57673 0.62649 0.0
C320 C 0.57848 0.62251 0.61941 0.0
C321 C 0.56661 0.55473 0.66583 0.0
C322 C 0.5967 0.55206 0.76245 0.0
H323 H 0.56854 0.35874 0.89946 0.0
H324 H 0.56372 0.40813 0.83624 0.0
H325 H 0.61255 0.52619 0.81658 0.0
H326 H 0.59727 0.68225 0.64837 0.0
H327 H 0.59597 0.64436 0.71687 0.0
H328 H 0.54551 0.52955 0.74028 0.0
C329 C 0.5725 0.42542 0.86124 0.0
C330 C 0.59773 0.52731 0.80057 0.0
C331 C 0.57537 0.39701 0.8974 0.0
C332 C 0.5886 0.64666 0.65268 0.0
C333 C 0.58795 0.62481 0.69194 0.0
C334 C 0.56023 0.52893 0.75663 0.0
C335 C 0.58162 0.47456 0.85678 0.0
C336 C 0.58008 0.50282 0.81712 0.0
C337 C 0.57724 0.57817 0.69886 0.0
C338 C 0.57797 0.55304 0.73996 0.0
H339 H 0.60523 0.48375 0.95048 0.0
H340 H 0.60007 0.53346 0.88747 0.0
H341 H 0.54735 0.48594 0.80699 0.0
H342 H 0.55924 0.55718 0.60149 0.0
H343 H 0.55838 0.51852 0.67005 0.0
C344 C 0.08927 0.89137 0.13261 0.0
C345 C 0.10325 0.90351 0.10073 0.0
C346 C 0.08892 0.92074 0.16875 0.0
C347 C 0.12143 0.00948 0.23052 0.0
H348 H 0.06899 0.04443 0.283 0.0
C349 C 0.11631 0.15243 0.36653 0.0
C350 C 0.10322 0.13873 0.39945 0.0
C351 C 0.1161 0.12391 0.32998 0.0
C352 C 0.08376 0.03452 0.26891 0.0
H353 H 0.12762 0.95651 0.08153 0.0
H354 H 0.12684 0.00809 0.14438 0.0
H355 H 0.06889 0.99491 0.21896 0.0
H356 H 0.07956 0.08443 0.41978 0.0
H357 H 0.07923 0.03454 0.35591 0.0
H358 H 0.13629 0.04918 0.28041 0.0
C359 C 0.11636 0.97539 0.1417 0.0
C360 C 0.08371 0.00616 0.23225 0.0
C361 C 0.11671 0.94601 0.10556 0.0
C362 C 0.08982 0.09603 0.39496 0.0
C363 C 0.08955 0.06762 0.35831 0.0
C364 C 0.12147 0.03791 0.26711 0.0
C365 C 0.10255 0.96291 0.1738 0.0
C366 C 0.10254 0.99334 0.21262 0.0
C367 C 0.10273 0.08117 0.32548 0.0
C368 C 0.10264 0.05077 0.28669 0.0
H369 H 0.07871 0.8588 0.1299 0.0
H370 H 0.07826 0.90973 0.19307 0.0
H371 H 0.13622 -0.00055 0.21659 0.0
H372 H 0.12681 0.18515 0.36896 0.0
H373 H 0.12626 0.13568 0.30505 0.0
C374 C 0.91373 0.87949 0.3721 0.0
C375 C 0.90352 0.83159 0.37589 0.0
C376 C 0.91464 0.90463 0.33407 0.0
C377 C 0.88669 0.91368 0.23593 0.0
H378 H 0.93637 0.98564 0.19921 0.0
C379 C 0.88898 0.02197 0.08086 0.0
C380 C 0.89827 0.07123 0.08145 0.0
C381 C 0.89116 0.98857 0.11444 0.0
C382 C 0.92233 0.96602 0.20918 0.0
H383 H 0.88669 0.7719 0.34253 0.0
H384 H 0.8883 0.81587 0.27614 0.0
H385 H 0.93743 0.93481 0.26255 0.0
H386 H 0.91753 0.12363 0.11735 0.0
H387 H 0.92102 0.06583 0.17607 0.0
H388 H 0.87141 0.94576 0.18327 0.0
C389 C 0.89544 0.83413 0.30269 0.0
C390 C 0.92295 0.93689 0.24541 0.0
C391 C 0.8946 0.80887 0.34068 0.0
C392 C 0.91018 0.08591 0.11589 0.0
C393 C 0.9123 0.05261 0.14948 0.0
C394 C 0.88604 0.94294 0.19981 0.0
C395 C 0.90529 0.88249 0.29907 0.0
C396 C 0.90508 0.91084 0.25937 0.0
C397 C 0.90264 0.00376 0.14934 0.0
C398 C 0.90379 0.9699 0.18624 0.0
H399 H 0.92077 0.89801 0.39864 0.0
H400 H 0.92215 0.94213 0.33233 0.0
H401 H 0.87258 0.89463 0.24621 0.0
H402 H 0.87982 0.00936 0.05466 0.0
H403 H 0.88377 0.95089 0.11311 0.0
C404 C 0.9244 0.89693 0.61993 0.0
C405 C 0.91349 0.91859 0.58653 0.0
C406 C 0.92774 0.92562 0.65582 0.0
C407 C 0.90447 0.03221 0.71386 0.0
H408 H 0.95526 0.02555 0.77857 0.0
C409 C 0.91226 0.14552 0.86493 0.0
C410 C 0.92103 0.11896 0.89851 0.0
C411 C 0.9137 0.12532 0.82518 0.0
C412 C 0.94093 0.02749 0.76096 0.0
H413 H 0.89836 0.98812 0.56394 0.0
H414 H 0.90427 0.03822 0.62657 0.0
H415 H 0.95374 0.98277 0.71143 0.0
H416 H 0.93875 0.05115 0.91654 0.0
H417 H 0.94086 0.01521 0.84714 0.0
H418 H 0.89141 0.07557 0.76351 0.0
C419 C 0.90999 -0.00119 0.62514 0.0
C420 C 0.94008 0.0031 0.72251 0.0
C421 C 0.90669 0.97017 0.58921 0.0
C422 C 0.93183 0.07253 0.89129 0.0
C423 C 0.93315 0.0521 0.85147 0.0
C424 C 0.90529 0.05637 0.75225 0.0
C425 C 0.92021 0.97652 0.6591 0.0
C426 C 0.92178 0.00495 0.6987 0.0
C427 C 0.92378 0.07786 0.81807 0.0
C428 C 0.92347 0.05407 0.7764 0.0
H429 H 0.9299 0.85731 0.61882 0.0
H430 H 0.93551 0.90721 0.68158 0.0
H431 H 0.89001 0.0335 0.69663 0.0
H432 H 0.90404 0.18172 0.86938 0.0
H433 H 0.90669 0.14669 0.80004 0.0
C434 C 0.05796 0.93686 0.91793 0.0
C435 C 0.06685 0.88717 0.9191 0.0
C436 C 0.05438 0.96148 0.88021 0.0
C437 C 0.05092 0.93899 0.76751 0.0
H438 H 0.07314 0.07823 0.75977 0.0
C439 C 0.07713 0.03065 0.61449 0.0
C440 C 0.07472 0.08424 0.60902 0.0
C441 C 0.07173 0.0074 0.65184 0.0
C442 C 0.06645 0.03978 0.76145 0.0
H443 H 0.07808 0.8234 0.88162 0.0
H444 H 0.07195 0.86634 0.81611 0.0
H445 H 0.07116 0.03603 0.82659 0.0
H446 H 0.06372 0.15509 0.63766 0.0
H447 H 0.05405 0.11439 0.70257 0.0
H448 H 0.04672 0.94233 0.70212 0.0
C449 C 0.06761 0.88623 0.84421 0.0
C450 C 0.06532 0.01559 0.79981 0.0
C451 C 0.07129 0.86179 0.88182 0.0
C452 C 0.06597 0.11375 0.64104 0.0
C453 C 0.0605 0.09048 0.67831 0.0
C454 C 0.052 0.96326 0.72911 0.0
C455 C 0.05949 0.9367 0.84299 0.0
C456 C 0.058 0.96452 0.80314 0.0
C457 C 0.06372 0.03723 0.68445 0.0
C458 C 0.06022 0.01351 0.72553 0.0
H459 H 0.05429 0.95737 0.94612 0.0
H460 H 0.04793 0.00022 0.88018 0.0
H461 H 0.04492 0.89986 0.76924 0.0
H462 H 0.08381 0.00682 0.59042 0.0
H463 H 0.07464 0.96639 0.65568 0.0
C464 C 0.46688 0.81497 0.01521 0.0
C465 C 0.44506 0.81732 0.01214 0.0
C466 C 0.47873 0.8603 0.01616 0.0
C467 C 0.47678 -0.00127 0.98879 0.0
H468 H 0.52398 0.00882 0.06314 0.0
C469 C 0.52233 0.18905 0.014 0.0
C470 C 0.54418 0.18525 0.0155 0.0
C471 C 0.51 0.14448 0.01396 0.0
C472 C 0.51097 0.00638 0.04194 0.0
H473 H 0.41851 0.8691 0.00785 0.0
H474 H 0.4392 0.94828 0.00996 0.0
H475 H 0.50279 0.93046 0.06265 0.0
H476 H 0.57021 0.1317 0.01809 0.0
H477 H 0.54867 0.05399 0.0178 0.0
H478 H 0.48498 0.07471 0.96811 0.0
C479 C 0.44717 0.91134 0.01109 0.0
C480 C 0.49883 0.96151 0.04164 0.0
C481 C 0.43531 0.86598 0.01011 0.0
C482 C 0.55342 0.13597 0.01699 0.0
C483 C 0.54108 0.09144 0.01707 0.0
C484 C 0.4889 0.04365 0.98914 0.0
C485 C 0.46901 0.90899 0.01411 0.0
C486 C 0.48166 0.95709 0.01495 0.0
C487 C 0.51924 0.09521 0.01556 0.0
C488 C 0.50617 0.04786 0.01561 0.0
H489 H 0.47488 0.7781 0.01668 0.0
H490 H 0.49554 0.85716 0.01791 0.0
H491 H 0.46383 0.99623 0.96745 0.0
H492 H 0.51473 0.22645 0.0129 0.0
H493 H 0.4932 0.14863 0.01322 0.0
C494 C 0.55719 0.86793 0.49955 0.0
C495 C 0.54825 0.81856 0.50383 0.0
C496 C 0.54459 0.91193 0.49762 0.0
C497 C 0.49058 0.95517 0.47749 0.0
H498 H 0.50775 0.07628 0.53953 0.0
C499 C 0.43632 0.13004 0.50685 0.0
C500 C 0.44524 0.17959 0.50378 0.0
C501 C 0.44885 0.08586 0.50504 0.0
C502 C 0.50286 0.04299 0.52165 0.0
H503 H 0.51906 0.77659 0.50898 0.0
H504 H 0.4971 0.85348 0.50615 0.0
H505 H 0.52971 -0.0006 0.53949 0.0
H506 H 0.47426 0.22162 0.49578 0.0
H507 H 0.49606 0.14456 0.49242 0.0
H508 H 0.46361 -0.0012 0.46 0.0
C509 C 0.51383 0.85811 0.50374 0.0
C510 C 0.51545 -0.00105 0.52159 0.0
C511 C 0.52643 0.81407 0.5056 0.0
C512 C 0.4669 0.18402 0.49843 0.0
C513 C 0.47942 0.13989 0.49671 0.0
C514 C 0.47795 -0.00076 0.47762 0.0
C515 C 0.52278 0.90757 0.50002 0.0
C516 C 0.50946 0.95453 0.49953 0.0
C517 C 0.47055 0.09035 0.50024 0.0
C518 C 0.48397 0.04361 0.49971 0.0
H519 H 0.57394 0.8727 0.49786 0.0
H520 H 0.55195 0.94941 0.4941 0.0
H521 H 0.48567 0.9218 0.45975 0.0
H522 H 0.41968 0.12532 0.51101 0.0
H523 H 0.44159 0.04821 0.50827 0.0
C524 C 0.05651 0.62766 0.03049 0.0
C525 C 0.04671 0.67621 0.02785 0.0
C526 C 0.04466 0.58246 0.03348 0.0
C527 C 0.99187 0.53377 0.05854 0.0
H528 H 0.00863 0.4166 0.99157 0.0
C529 C 0.9379 0.35986 0.02491 0.0
C530 C 0.94689 0.31025 0.02496 0.0
C531 C 0.95039 0.40391 0.02863 0.0
C532 C 0.0039 0.44871 0.01088 0.0
H533 H 0.01682 0.71546 0.02692 0.0
H534 H 0.99616 0.63654 0.03151 0.0
H535 H 0.02989 0.49469 0.99201 0.0
H536 H 0.97601 0.26793 0.02984 0.0
H537 H 0.99778 0.34487 0.03648 0.0
H538 H 0.96566 0.48788 0.07683 0.0
C539 C 0.01299 0.63344 0.03185 0.0
C540 C 0.01609 0.49346 0.01117 0.0
C541 C 0.02484 0.67866 0.02896 0.0
C542 C 0.9686 0.30559 0.0295 0.0
C543 C 0.98109 0.34965 0.03311 0.0
C544 C 0.97964 0.48901 0.05816 0.0
C545 C 0.02277 0.58479 0.03379 0.0
C546 C 0.01016 0.53661 0.03482 0.0
C547 C 0.97213 0.39928 0.03238 0.0
C548 C 0.98547 0.44612 0.03415 0.0
H549 H 0.07334 0.62446 0.02997 0.0
H550 H 0.05267 0.54565 0.03556 0.0
H551 H 0.98705 0.56607 0.07755 0.0
H552 H 0.92121 0.36478 0.02147 0.0
H553 H 0.94305 0.44165 0.02753 0.0
C554 C 0.05751 0.35748 0.50357 0.0
C555 C 0.04756 0.30916 0.50662 0.0
C556 C 0.04581 0.40296 0.50115 0.0
C557 C 0.99308 0.45239 0.47708 0.0
H558 H 0.01112 0.57127 0.54087 0.0
C559 C 0.94119 0.63216 0.50231 0.0
C560 C 0.95088 0.68081 0.49924 0.0
C561 C 0.95309 0.58688 0.5021 0.0
C562 C 0.00601 0.53859 0.52253 0.0
H563 H 0.01752 0.27064 0.50914 0.0
H564 H 0.99713 0.35005 0.50549 0.0
H565 H 0.03173 0.49206 0.54213 0.0
H566 H 0.98064 0.7201 0.49341 0.0
H567 H 0.00137 0.64103 0.49293 0.0
H568 H 0.96724 0.49891 0.45781 0.0
C569 C 0.01397 0.35275 0.5044 0.0
C570 C 0.01783 0.49323 0.5232 0.0
C571 C 0.02567 0.30725 0.50672 0.0
C572 C 0.9727 0.68323 0.49593 0.0
C573 C 0.98459 0.63796 0.49586 0.0
C574 C 0.98123 0.49774 0.4765 0.0
C575 C 0.02391 0.40114 0.50181 0.0
C576 C 0.01149 0.44958 0.50053 0.0
C577 C 0.97491 0.58931 0.49897 0.0
C578 C 0.98756 0.54129 0.49926 0.0
H579 H 0.07436 0.36026 0.50319 0.0
H580 H 0.05394 0.43957 0.49856 0.0
H581 H 0.98794 0.4197 0.45879 0.0
H582 H 0.92441 0.62897 0.50494 0.0
H583 H 0.94521 0.54997 0.50502 0.0
loop_
_geom_bond_atom_site_label_1
_geom_bond_atom_site_label_2
_geom_bond_distance
_geom_bond_site_symmetry_2
_ccdc_geom_bond_type
C0 O1 1.160 1_554 S
C0 O7 1.185 . S
O1 C0 1.160 1_556 S
O2 Zn3 1.899 1_556 S
O2 C10 1.284 . S
Zn3 O2 1.899 1_554 S
Zn3 O4 2.032 . S
Zn3 O7 2.086 . S
Zn3 O12 1.977 . S
O4 Zn3 2.032 . S
O4 C8 1.278 . S
C5 O6 1.203 1_554 S
C5 O12 1.267 . S
O6 C5 1.203 1_556 S
O7 C0 1.185 . S
O7 Zn3 2.086 . S
C8 O4 1.278 . S
C8 O9 1.211 . S
O9 C8 1.211 . S
C10 O2 1.284 . S
C10 O11 1.273 . S
O11 C10 1.273 . S
O12 Zn3 1.977 . S
O12 C5 1.267 . S
C13 O14 1.160 1_554 S
C13 O20 1.185 . S
O14 C13 1.160 1_556 S
O15 Zn16 1.899 1_556 S
O15 C23 1.284 . S
Zn16 O15 1.899 1_554 S
Zn16 O17 2.032 . S
Zn16 O20 2.086 . S
Zn16 O25 1.977 . S
O17 Zn16 2.032 . S
O17 C21 1.278 . S
C18 O19 1.203 1_554 S
C18 O25 1.267 . S
O19 C18 1.203 1_556 S
O20 C13 1.185 . S
O20 Zn16 2.086 . S
C21 O17 1.278 . S
C21 O22 1.211 . S
O22 C21 1.211 . S
C23 O15 1.284 . S
C23 O24 1.273 . S
O24 C23 1.273 . S
O25 Zn16 1.977 . S
O25 C18 1.267 . S
C26 O27 1.160 . S
C26 O33 1.185 . S
O27 C26 1.160 . S
O28 Zn29 1.899 . S
O28 C36 1.284 . S
Zn29 O28 1.899 . S
Zn29 O30 2.032 . S
Zn29 O33 2.086 . S
Zn29 O38 1.977 . S
O30 Zn29 2.032 . S
O30 C34 1.278 . S
C31 O32 1.203 . S
C31 O38 1.267 . S
O32 C31 1.203 . S
O33 C26 1.185 . S
O33 Zn29 2.086 . S
C34 O30 1.278 . S
C34 O35 1.211 . S
O35 C34 1.211 . S
C36 O28 1.284 . S
C36 O37 1.273 . S
O37 C36 1.273 . S
O38 Zn29 1.977 . S
O38 C31 1.267 . S
C39 O40 1.160 . S
C39 O46 1.185 . S
O40 C39 1.160 . S
O41 Zn42 1.899 . S
O41 C49 1.284 . S
Zn42 O41 1.899 . S
Zn42 O43 2.032 . S
Zn42 O46 2.086 . S
Zn42 O51 1.977 . S
O43 Zn42 2.032 . S
O43 C47 1.278 . S
C44 O45 1.203 . S
C44 O51 1.267 . S
O45 C44 1.203 . S
O46 C39 1.185 . S
O46 Zn42 2.086 . S
C47 O43 1.278 . S
C47 O48 1.211 . S
O48 C47 1.211 . S
C49 O41 1.284 . S
C49 O50 1.273 . S
O50 C49 1.273 . S
O51 Zn42 1.977 . S
O51 C44 1.267 . S
C52 O53 1.160 1_554 S
C52 O59 1.185 . S
O53 C52 1.160 1_556 S
O54 Zn55 1.899 1_556 S
O54 C62 1.284 . S
Zn55 O54 1.899 1_554 S
Zn55 O56 2.032 . S
Zn55 O59 2.086 . S
Zn55 O64 1.977 . S
O56 Zn55 2.032 . S
O56 C60 1.278 . S
C57 O58 1.203 1_554 S
C57 O64 1.267 . S
O58 C57 1.203 1_556 S
O59 C52 1.185 . S
O59 Zn55 2.086 . S
C60 O56 1.278 . S
C60 O61 1.211 . S
O61 C60 1.211 . S
C62 O54 1.284 . S
C62 O63 1.273 . S
O63 C62 1.273 . S
O64 Zn55 1.977 . S
O64 C57 1.267 . S
C65 O66 1.160 1_554 S
C65 O72 1.185 . S
O66 C65 1.160 1_556 S
O67 Zn68 1.899 1_556 S
O67 C75 1.284 . S
Zn68 O67 1.899 1_554 S
Zn68 O69 2.032 . S
Zn68 O72 2.086 . S
Zn68 O77 1.977 . S
O69 Zn68 2.032 . S
O69 C73 1.278 . S
C70 O71 1.203 1_554 S
C70 O77 1.267 . S
O71 C70 1.203 1_556 S
O72 C65 1.185 . S
O72 Zn68 2.086 . S
C73 O69 1.278 . S
C73 O74 1.211 . S
O74 C73 1.211 . S
C75 O67 1.284 . S
C75 O76 1.273 . S
O76 C75 1.273 . S
O77 Zn68 1.977 . S
O77 C70 1.267 . S
C78 O79 1.160 . S
C78 O85 1.185 . S
O79 C78 1.160 . S
O80 Zn81 1.899 . S
O80 C88 1.284 . S
Zn81 O80 1.899 . S
Zn81 O82 2.032 . S
Zn81 O85 2.086 . S
Zn81 O90 1.977 . S
O82 Zn81 2.032 . S
O82 C86 1.278 . S
C83 O84 1.203 . S
C83 O90 1.267 . S
O84 C83 1.203 . S
O85 C78 1.185 . S
O85 Zn81 2.086 . S
C86 O82 1.278 . S
C86 O87 1.211 . S
O87 C86 1.211 . S
C88 O80 1.284 . S
C88 O89 1.273 . S
O89 C88 1.273 . S
O90 Zn81 1.977 . S
O90 C83 1.267 . S
C91 O92 1.160 . S
C91 O98 1.185 . S
O92 C91 1.160 . S
O93 Zn94 1.899 . S
O93 C101 1.284 . S
Zn94 O93 1.899 . S
Zn94 O95 2.032 . S
Zn94 O98 2.086 . S
Zn94 O103 1.977 . S
O95 Zn94 2.032 . S
O95 C99 1.278 . S
C96 O97 1.203 . S
C96 O103 1.267 . S
O97 C96 1.203 . S
O98 C91 1.185 . S
O98 Zn94 2.086 . S
C99 O95 1.278 . S
C99 O100 1.211 . S
O100 C99 1.211 . S
C101 O93 1.284 . S
C101 O102 1.273 . S
O102 C101 1.273 . S
O103 Zn94 1.977 . S
O103 C96 1.267 . S
C104 C105 1.349 . S
C104 C106 1.327 . S
C104 H129 0.950 . S
C105 C104 1.349 . S
C105 C121 1.349 1_554 S
C106 C104 1.327 . S
C106 C125 1.429 . S
C106 H130 0.950 . S
C107 C124 1.574 . S
C107 C126 1.368 1_556 S
C107 H131 0.949 . S
H108 C112 0.949 . S
C109 C110 1.349 1_556 S
C109 C111 1.327 . S
C109 H132 0.950 . S
C110 C109 1.349 1_554 S
C110 C122 1.349 . S
C111 C109 1.327 . S
C111 C127 1.429 1_556 S
C111 H133 0.950 . S
C112 H108 0.949 . S
C112 C120 1.574 . S
C112 C128 1.368 . S
H113 C121 0.950 . S
H114 C119 0.950 . S
H115 C120 0.949 . S
H116 C122 0.950 . S
H117 C123 0.950 . S
H118 C124 0.949 . S
C119 H114 0.950 . S
C119 C121 1.327 . S
C119 C125 1.429 1_556 S
C120 C112 1.574 . S
C120 H115 0.949 . S
C120 C126 1.368 . S
C121 C105 1.349 1_556 S
C121 H113 0.950 . S
C121 C119 1.327 . S
C122 C110 1.349 . S
C122 H116 0.950 . S
C122 C123 1.327 . S
C123 H117 0.950 . S
C123 C122 1.327 . S
C123 C127 1.429 . S
C124 C107 1.574 . S
C124 H118 0.949 . S
C124 C128 1.368 1_556 S
C125 C106 1.429 . S
C125 C119 1.429 1_554 S
C125 C126 1.523 . S
C126 C107 1.368 1_554 S
C126 C120 1.368 . S
C126 C125 1.523 . S
C127 C111 1.429 1_554 S
C127 C123 1.429 . S
C127 C128 1.523 . S
C128 C112 1.368 . S
C128 C124 1.368 1_554 S
C128 C127 1.523 . S
H129 C104 0.950 . S
H130 C106 0.950 . S
H131 C107 0.949 . S
H132 C109 0.950 . S
H133 C111 0.950 . S
C134 C135 1.349 1_556 S
C134 C136 1.327 . S
C134 H159 0.950 . S
C135 C134 1.349 1_554 S
C135 C151 1.349 . S
C136 C134 1.327 . S
C136 C155 1.429 1_556 S
C136 H160 0.950 . S
C137 C154 1.574 . S
C137 C156 1.368 . S
C137 H161 0.949 . S
H138 C142 0.949 . S
C139 C140 1.349 . S
C139 C141 1.327 . S
C139 H162 0.950 . S
C140 C139 1.349 . S
C140 C152 1.349 1_554 S
C141 C139 1.327 . S
C141 C157 1.429 . S
C141 H163 0.950 . S
C142 H138 0.949 . S
C142 C150 1.574 . S
C142 C158 1.368 1_556 S
H143 C151 0.950 . S
H144 C149 0.950 . S
H145 C150 0.949 . S
H146 C152 0.950 . S
H147 C153 0.950 . S
H148 C154 0.949 . S
C149 H144 0.950 . S
C149 C151 1.327 . S
C149 C155 1.429 . S
C150 C142 1.574 . S
C150 H145 0.949 . S
C150 C156 1.368 1_556 S
C151 C135 1.349 . S
C151 H143 0.950 . S
C151 C149 1.327 . S
C152 C140 1.349 1_556 S
C152 H146 0.950 . S
C152 C153 1.327 . S
C153 H147 0.950 . S
C153 C152 1.327 . S
C153 C157 1.429 1_556 S
C154 C137 1.574 . S
C154 H148 0.949 . S
C154 C158 1.368 . S
C155 C136 1.429 1_554 S
C155 C149 1.429 . S
C155 C156 1.523 . S
C156 C137 1.368 . S
C156 C150 1.368 1_554 S
C156 C155 1.523 . S
C157 C141 1.429 . S
C157 C153 1.429 1_554 S
C157 C158 1.523 . S
C158 C142 1.368 1_554 S
C158 C154 1.368 . S
C158 C157 1.523 . S
H159 C134 0.950 . S
H160 C136 0.950 . S
H161 C137 0.949 . S
H162 C139 0.950 . S
H163 C141 0.950 . S
C164 C165 1.349 . S
C164 C166 1.327 . S
C164 H189 0.950 . S
C165 C164 1.349 . S
C165 C181 1.349 . S
C166 C164 1.327 . S
C166 C185 1.429 . S
C166 H190 0.950 . S
C167 C184 1.574 . S
C167 C186 1.368 . S
C167 H191 0.949 . S
H168 C172 0.949 . S
C169 C170 1.349 . S
C169 C171 1.327 . S
C169 H192 0.950 . S
C170 C169 1.349 . S
C170 C182 1.349 . S
C171 C169 1.327 . S
C171 C187 1.429 . S
C171 H193 0.950 . S
C172 H168 0.949 . S
C172 C180 1.574 . S
C172 C188 1.368 . S
H173 C181 0.950 . S
H174 C179 0.950 . S
H175 C180 0.949 . S
H176 C182 0.950 . S
H177 C183 0.950 . S
H178 C184 0.949 . S
C179 H174 0.950 . S
C179 C181 1.327 . S
C179 C185 1.429 . S
C180 C172 1.574 . S
C180 H175 0.949 . S
C180 C186 1.368 . S
C181 C165 1.349 . S
C181 H173 0.950 . S
C181 C179 1.327 . S
C182 C170 1.349 . S
C182 H176 0.950 . S
C182 C183 1.327 . S
C183 H177 0.950 . S
C183 C182 1.327 . S
C183 C187 1.429 . S
C184 C167 1.574 . S
C184 H178 0.949 . S
C184 C188 1.368 . S
C185 C166 1.429 . S
C185 C179 1.429 . S
C185 C186 1.523 . S
C186 C167 1.368 . S
C186 C180 1.368 . S
C186 C185 1.523 . S
C187 C171 1.429 . S
C187 C183 1.429 . S
C187 C188 1.523 . S
C188 C172 1.368 . S
C188 C184 1.368 . S
C188 C187 1.523 . S
H189 C164 0.950 . S
H190 C166 0.950 . S
H191 C167 0.949 . S
H192 C169 0.950 . S
H193 C171 0.950 . S
C194 C195 1.349 . S
C194 C196 1.327 . S
C194 H219 0.950 . S
C195 C194 1.349 . S
C195 C211 1.349 . S
C196 C194 1.327 . S
C196 C215 1.429 . S
C196 H220 0.950 . S
C197 C214 1.574 . S
C197 C216 1.368 . S
C197 H221 0.949 . S
H198 C202 0.949 . S
C199 C200 1.349 . S
C199 C201 1.327 . S
C199 H222 0.950 . S
C200 C199 1.349 . S
C200 C212 1.349 . S
C201 C199 1.327 . S
C201 C217 1.429 . S
C201 H223 0.950 . S
C202 H198 0.949 . S
C202 C210 1.574 . S
C202 C218 1.368 . S
H203 C211 0.950 . S
H204 C209 0.950 . S
H205 C210 0.949 . S
H206 C212 0.950 . S
H207 C213 0.950 . S
H208 C214 0.949 . S
C209 H204 0.950 . S
C209 C211 1.327 . S
C209 C215 1.429 . S
C210 C202 1.574 . S
C210 H205 0.949 . S
C210 C216 1.368 . S
C211 C195 1.349 . S
C211 H203 0.950 . S
C211 C209 1.327 . S
C212 C200 1.349 . S
C212 H206 0.950 . S
C212 C213 1.327 . S
C213 H207 0.950 . S
C213 C212 1.327 . S
C213 C217 1.429 . S
C214 C197 1.574 . S
C214 H208 0.949 . S
C214 C218 1.368 . S
C215 C196 1.429 . S
C215 C209 1.429 . S
C215 C216 1.523 . S
C216 C197 1.368 . S
C216 C210 1.368 . S
C216 C215 1.523 . S
C217 C201 1.429 . S
C217 C213 1.429 . S
C217 C218 1.523 . S
C218 C202 1.368 . S
C218 C214 1.368 . S
C218 C217 1.523 . S
H219 C194 0.950 . S
H220 C196 0.950 . S
H221 C197 0.949 . S
H222 C199 0.950 . S
H223 C201 0.950 . S
C224 C225 1.349 . S
C224 C226 1.327 . S
C224 H249 0.950 . S
C225 C224 1.349 . S
C225 C241 1.349 . S
C226 C224 1.327 . S
C226 C245 1.429 . S
C226 H250 0.950 . S
C227 C244 1.574 . S
C227 C246 1.368 . S
C227 H251 0.949 . S
H228 C232 0.949 . S
C229 C230 1.349 . S
C229 C231 1.327 . S
C229 H252 0.950 . S
C230 C229 1.349 . S
C230 C242 1.349 . S
C231 C229 1.327 . S
C231 C247 1.429 . S
C231 H253 0.950 . S
C232 H228 0.949 . S
C232 C240 1.574 . S
C232 C248 1.368 . S
H233 C241 0.950 . S
H234 C239 0.950 . S
H235 C240 0.949 . S
H236 C242 0.950 . S
H237 C243 0.950 . S
H238 C244 0.949 . S
C239 H234 0.950 . S
C239 C241 1.327 . S
C239 C245 1.429 . S
C240 C232 1.574 . S
C240 H235 0.949 . S
C240 C246 1.368 . S
C241 C225 1.349 . S
C241 H233 0.950 . S
C241 C239 1.327 . S
C242 C230 1.349 . S
C242 H236 0.950 . S
C242 C243 1.327 . S
C243 H237 0.950 . S
C243 C242 1.327 . S
C243 C247 1.429 . S
C244 C227 1.574 . S
C244 H238 0.949 . S
C244 C248 1.368 . S
C245 C226 1.429 . S
C245 C239 1.429 . S
C245 C246 1.523 . S
C246 C227 1.368 . S
C246 C240 1.368 . S
C246 C245 1.523 . S
C247 C231 1.429 . S
C247 C243 1.429 . S
C247 C248 1.523 . S
C248 C232 1.368 . S
C248 C244 1.368 . S
C248 C247 1.523 . S
H249 C224 0.950 . S
H250 C226 0.950 . S
H251 C227 0.949 . S
H252 C229 0.950 . S
H253 C231 0.950 . S
C254 C255 1.349 . S
C254 C256 1.327 . S
C254 H279 0.950 . S
C255 C254 1.349 . S
C255 C271 1.349 . S
C256 C254 1.327 . S
C256 C275 1.429 . S
C256 H280 0.950 . S
C257 C274 1.574 . S
C257 C276 1.368 . S
C257 H281 0.949 . S
H258 C262 0.949 . S
C259 C260 1.349 . S
C259 C261 1.327 . S
C259 H282 0.950 . S
C260 C259 1.349 . S
C260 C272 1.349 . S
C261 C259 1.327 . S
C261 C277 1.429 . S
C261 H283 0.950 . S
C262 H258 0.949 . S
C262 C270 1.574 . S
C262 C278 1.368 . S
H263 C271 0.950 . S
H264 C269 0.950 . S
H265 C270 0.949 . S
H266 C272 0.950 . S
H267 C273 0.950 . S
H268 C274 0.949 . S
C269 H264 0.950 . S
C269 C271 1.327 . S
C269 C275 1.429 . S
C270 C262 1.574 . S
C270 H265 0.949 . S
C270 C276 1.368 . S
C271 C255 1.349 . S
C271 H263 0.950 . S
C271 C269 1.327 . S
C272 C260 1.349 . S
C272 H266 0.950 . S
C272 C273 1.327 . S
C273 H267 0.950 . S
C273 C272 1.327 . S
C273 C277 1.429 . S
C274 C257 1.574 . S
C274 H268 0.949 . S
C274 C278 1.368 . S
C275 C256 1.429 . S
C275 C269 1.429 . S
C275 C276 1.523 . S
C276 C257 1.368 . S
C276 C270 1.368 . S
C276 C275 1.523 . S
C277 C261 1.429 . S
C277 C273 1.429 . S
C277 C278 1.523 . S
C278 C262 1.368 . S
C278 C274 1.368 . S
C278 C277 1.523 . S
H279 C254 0.950 . S
H280 C256 0.950 . S
H281 C257 0.949 . S
H282 C259 0.950 . S
H283 C261 0.950 . S
C284 C285 1.349 . S
C284 C286 1.327 . S
C284 H309 0.950 . S
C285 C284 1.349 . S
C285 C301 1.349 . S
C286 C284 1.327 . S
C286 C305 1.429 . S
C286 H310 0.950 . S
C287 C304 1.574 . S
C287 C306 1.368 . S
C287 H311 0.949 . S
H288 C292 0.949 . S
C289 C290 1.349 . S
C289 C291 1.327 . S
C289 H312 0.950 . S
C290 C289 1.349 . S
C290 C302 1.349 . S
C291 C289 1.327 . S
C291 C307 1.429 . S
C291 H313 0.950 . S
C292 H288 0.949 . S
C292 C300 1.574 . S
C292 C308 1.368 . S
H293 C301 0.950 . S
H294 C299 0.950 . S
H295 C300 0.949 . S
H296 C302 0.950 . S
H297 C303 0.950 . S
H298 C304 0.949 . S
C299 H294 0.950 . S
C299 C301 1.327 . S
C299 C305 1.429 . S
C300 C292 1.574 . S
C300 H295 0.949 . S
C300 C306 1.368 . S
C301 C285 1.349 . S
C301 H293 0.950 . S
C301 C299 1.327 . S
C302 C290 1.349 . S
C302 H296 0.950 . S
C302 C303 1.327 . S
C303 H297 0.950 . S
C303 C302 1.327 . S
C303 C307 1.429 . S
C304 C287 1.574 . S
C304 H298 0.949 . S
C304 C308 1.368 . S
C305 C286 1.429 . S
C305 C299 1.429 . S
C305 C306 1.523 . S
C306 C287 1.368 . S
C306 C300 1.368 . S
C306 C305 1.523 . S
C307 C291 1.429 . S
C307 C303 1.429 . S
C307 C308 1.523 . S
C308 C292 1.368 . S
C308 C304 1.368 . S
C308 C307 1.523 . S
H309 C284 0.950 . S
H310 C286 0.950 . S
H311 C287 0.949 . S
H312 C289 0.950 . S
H313 C291 0.950 . S
C314 C315 1.349 . S
C314 C316 1.327 . S
C314 H339 0.950 . S
C315 C314 1.349 . S
C315 C331 1.349 . S
C316 C314 1.327 . S
C316 C335 1.429 . S
C316 H340 0.950 . S
C317 C334 1.574 . S
C317 C336 1.368 . S
C317 H341 0.949 . S
H318 C322 0.949 . S
C319 C320 1.349 . S
C319 C321 1.327 . S
C319 H342 0.950 . S
C320 C319 1.349 . S
C320 C332 1.349 . S
C321 C319 1.327 . S
C321 C337 1.429 . S
C321 H343 0.950 . S
C322 H318 0.949 . S
C322 C330 1.574 . S
C322 C338 1.368 . S
H323 C331 0.950 . S
H324 C329 0.950 . S
H325 C330 0.949 . S
H326 C332 0.950 . S
H327 C333 0.950 . S
H328 C334 0.949 . S
C329 H324 0.950 . S
C329 C331 1.327 . S
C329 C335 1.429 . S
C330 C322 1.574 . S
C330 H325 0.949 . S
C330 C336 1.368 . S
C331 C315 1.349 . S
C331 H323 0.950 . S
C331 C329 1.327 . S
C332 C320 1.349 . S
C332 H326 0.950 . S
C332 C333 1.327 . S
C333 H327 0.950 . S
C333 C332 1.327 . S
C333 C337 1.429 . S
C334 C317 1.574 . S
C334 H328 0.949 . S
C334 C338 1.368 . S
C335 C316 1.429 . S
C335 C329 1.429 . S
C335 C336 1.523 . S
C336 C317 1.368 . S
C336 C330 1.368 . S
C336 C335 1.523 . S
C337 C321 1.429 . S
C337 C333 1.429 . S
C337 C338 1.523 . S
C338 C322 1.368 . S
C338 C334 1.368 . S
C338 C337 1.523 . S
H339 C314 0.950 . S
H340 C316 0.950 . S
H341 C317 0.949 . S
H342 C319 0.950 . S
H343 C321 0.950 . S
C344 C345 1.349 . S
C344 C346 1.327 . S
C344 H369 0.950 . S
C345 C344 1.349 . S
C345 C361 1.349 . S
C346 C344 1.327 . S
C346 C365 1.429 . S
C346 H370 0.950 . S
C347 C364 1.574 1_565 S
C347 C366 1.368 . S
C347 H371 0.949 . S
H348 C352 0.949 . S
C349 C350 1.349 . S
C349 C351 1.327 . S
C349 H372 0.950 . S
C350 C349 1.349 . S
C350 C362 1.349 . S
C351 C349 1.327 . S
C351 C367 1.429 . S
C351 H373 0.950 . S
C352 H348 0.949 . S
C352 C360 1.574 1_545 S
C352 C368 1.368 . S
H353 C361 0.950 . S
H354 C359 0.950 . S
H355 C360 0.949 . S
H356 C362 0.950 . S
H357 C363 0.950 . S
H358 C364 0.949 . S
C359 H354 0.950 . S
C359 C361 1.327 . S
C359 C365 1.429 . S
C360 C352 1.574 1_565 S
C360 H355 0.949 . S
C360 C366 1.368 . S
C361 C345 1.349 . S
C361 H353 0.950 . S
C361 C359 1.327 . S
C362 C350 1.349 . S
C362 H356 0.950 . S
C362 C363 1.327 . S
C363 H357 0.950 . S
C363 C362 1.327 . S
C363 C367 1.429 . S
C364 C347 1.574 1_545 S
C364 H358 0.949 . S
C364 C368 1.368 . S
C365 C346 1.429 . S
C365 C359 1.429 . S
C365 C366 1.523 . S
C366 C347 1.368 . S
C366 C360 1.368 . S
C366 C365 1.523 . S
C367 C351 1.429 . S
C367 C363 1.429 . S
C367 C368 1.523 . S
C368 C352 1.368 . S
C368 C364 1.368 . S
C368 C367 1.523 . S
H369 C344 0.950 . S
H370 C346 0.950 . S
H371 C347 0.949 . S
H372 C349 0.950 . S
H373 C351 0.950 . S
C374 C375 1.349 . S
C374 C376 1.327 . S
C374 H399 0.950 . S
C375 C374 1.349 . S
C375 C391 1.349 . S
C376 C374 1.327 . S
C376 C395 1.429 . S
C376 H400 0.950 . S
C377 C394 1.574 . S
C377 C396 1.368 . S
C377 H401 0.949 . S
H378 C382 0.949 . S
C379 C380 1.349 . S
C379 C381 1.327 . S
C379 H402 0.950 . S
C380 C379 1.349 . S
C380 C392 1.349 . S
C381 C379 1.327 . S
C381 C397 1.429 . S
C381 H403 0.950 . S
C382 H378 0.949 . S
C382 C390 1.574 . S
C382 C398 1.368 . S
H383 C391 0.950 . S
H384 C389 0.950 . S
H385 C390 0.949 . S
H386 C392 0.950 . S
H387 C393 0.950 . S
H388 C394 0.949 . S
C389 H384 0.950 . S
C389 C391 1.327 . S
C389 C395 1.429 . S
C390 C382 1.574 . S
C390 H385 0.949 . S
C390 C396 1.368 1_545 S
C391 C375 1.349 . S
C391 H383 0.950 . S
C391 C389 1.327 . S
C392 C380 1.349 . S
C392 H386 0.950 . S
C392 C393 1.327 . S
C393 H387 0.950 . S
C393 C392 1.327 . S
C393 C397 1.429 . S
C394 C377 1.574 . S
C394 H388 0.949 . S
C394 C398 1.368 1_565 S
C395 C376 1.429 . S
C395 C389 1.429 . S
C395 C396 1.523 . S
C396 C377 1.368 . S
C396 C390 1.368 1_565 S
C396 C395 1.523 . S
C397 C381 1.429 . S
C397 C393 1.429 . S
C397 C398 1.523 . S
C398 C382 1.368 . S
C398 C394 1.368 1_545 S
C398 C397 1.523 . S
H399 C374 0.950 . S
H400 C376 0.950 . S
H401 C377 0.949 . S
H402 C379 0.950 . S
H403 C381 0.950 . S
C404 C405 1.349 . S
C404 C406 1.327 . S
C404 H429 0.950 . S
C405 C404 1.349 . S
C405 C421 1.349 . S
C406 C404 1.327 . S
C406 C425 1.429 . S
C406 H430 0.950 . S
C407 C424 1.574 . S
C407 C426 1.368 1_545 S
C407 H431 0.949 . S
H408 C412 0.949 . S
C409 C410 1.349 . S
C409 C411 1.327 . S
C409 H432 0.950 . S
C410 C409 1.349 . S
C410 C422 1.349 . S
C411 C409 1.327 . S
C411 C427 1.429 . S
C411 H433 0.950 . S
C412 H408 0.949 . S
C412 C420 1.574 . S
C412 C428 1.368 1_565 S
H413 C421 0.950 . S
H414 C419 0.950 . S
H415 C420 0.949 . S
H416 C422 0.950 . S
H417 C423 0.950 . S
H418 C424 0.949 . S
C419 H414 0.950 . S
C419 C421 1.327 . S
C419 C425 1.429 . S
C420 C412 1.574 . S
C420 H415 0.949 . S
C420 C426 1.368 . S
C421 C405 1.349 . S
C421 H413 0.950 . S
C421 C419 1.327 . S
C422 C410 1.349 . S
C422 H416 0.950 . S
C422 C423 1.327 . S
C423 H417 0.950 . S
C423 C422 1.327 . S
C423 C427 1.429 . S
C424 C407 1.574 . S
C424 H418 0.949 . S
C424 C428 1.368 . S
C425 C406 1.429 . S
C425 C419 1.429 . S
C425 C426 1.523 . S
C426 C407 1.368 1_565 S
C426 C420 1.368 . S
C426 C425 1.523 . S
C427 C411 1.429 . S
C427 C423 1.429 . S
C427 C428 1.523 . S
C428 C412 1.368 1_545 S
C428 C424 1.368 . S
C428 C427 1.523 . S
H429 C404 0.950 . S
H430 C406 0.950 . S
H431 C407 0.949 . S
H432 C409 0.950 . S
H433 C411 0.950 . S
C434 C435 1.349 . S
C434 C436 1.327 . S
C434 H459 0.950 . S
C435 C434 1.349 . S
C435 C451 1.349 . S
C436 C434 1.327 . S
C436 C455 1.429 . S
C436 H460 0.950 1_565 S
C437 C454 1.574 . S
C437 C456 1.368 . S
C437 H461 0.949 . S
H438 C442 0.949 . S
C439 C440 1.349 . S
C439 C441 1.327 . S
C439 H462 0.950 . S
C440 C439 1.349 . S
C440 C452 1.349 . S
C441 C439 1.327 . S
C441 C457 1.429 . S
C441 H463 0.950 1_545 S
C442 H438 0.949 . S
C442 C450 1.574 . S
C442 C458 1.368 . S
H443 C451 0.950 . S
H444 C449 0.950 . S
H445 C450 0.949 . S
H446 C452 0.950 . S
H447 C453 0.950 . S
H448 C454 0.949 . S
C449 H444 0.950 . S
C449 C451 1.327 . S
C449 C455 1.429 . S
C450 C442 1.574 . S
C450 H445 0.949 . S
C450 C456 1.368 1_545 S
C451 C435 1.349 . S
C451 H443 0.950 . S
C451 C449 1.327 . S
C452 C440 1.349 . S
C452 H446 0.950 . S
C452 C453 1.327 . S
C453 H447 0.950 . S
C453 C452 1.327 . S
C453 C457 1.429 . S
C454 C437 1.574 . S
C454 H448 0.949 . S
C454 C458 1.368 1_565 S
C455 C436 1.429 . S
C455 C449 1.429 . S
C455 C456 1.523 . S
C456 C437 1.368 . S
C456 C450 1.368 1_565 S
C456 C455 1.523 . S
C457 C441 1.429 . S
C457 C453 1.429 . S
C457 C458 1.523 . S
C458 C442 1.368 . S
C458 C454 1.368 1_545 S
C458 C457 1.523 . S
H459 C434 0.950 . S
H460 C436 0.950 1_545 S
H461 C437 0.949 . S
H462 C439 0.950 . S
H463 C441 0.950 1_565 S
C464 C465 1.349 . S
C464 C466 1.327 . S
C464 H489 0.950 . S
C465 C464 1.349 . S
C465 C481 1.349 1_554 S
C466 C464 1.327 . S
C466 C485 1.429 . S
C466 H490 0.950 . S
C467 C484 1.574 1_565 S
C467 C486 1.368 1_556 S
C467 H491 0.949 . S
H468 C472 0.949 . S
C469 C470 1.349 1_556 S
C469 C471 1.327 . S
C469 H492 0.950 . S
C470 C469 1.349 1_554 S
C470 C482 1.349 . S
C471 C469 1.327 . S
C471 C487 1.429 1_556 S
C471 H493 0.950 . S
C472 H468 0.949 . S
C472 C480 1.574 1_545 S
C472 C488 1.368 . S
H473 C481 0.950 . S
H474 C479 0.950 . S
H475 C480 0.949 . S
H476 C482 0.950 . S
H477 C483 0.950 . S
H478 C484 0.949 . S
C479 H474 0.950 . S
C479 C481 1.327 . S
C479 C485 1.429 1_556 S
C480 C472 1.574 1_565 S
C480 H475 0.949 . S
C480 C486 1.368 . S
C481 C465 1.349 1_556 S
C481 H473 0.950 . S
C481 C479 1.327 . S
C482 C470 1.349 . S
C482 H476 0.950 . S
C482 C483 1.327 . S
C483 H477 0.950 . S
C483 C482 1.327 . S
C483 C487 1.429 . S
C484 C467 1.574 1_545 S
C484 H478 0.949 . S
C484 C488 1.368 1_556 S
C485 C466 1.429 . S
C485 C479 1.429 1_554 S
C485 C486 1.523 . S
C486 C467 1.368 1_554 S
C486 C480 1.368 . S
C486 C485 1.523 . S
C487 C471 1.429 1_554 S
C487 C483 1.429 . S
C487 C488 1.523 . S
C488 C472 1.368 . S
C488 C484 1.368 1_554 S
C488 C487 1.523 . S
H489 C464 0.950 . S
H490 C466 0.950 . S
H491 C467 0.949 . S
H492 C469 0.950 . S
H493 C471 0.950 . S
C494 C495 1.349 . S
C494 C496 1.327 . S
C494 H519 0.950 . S
C495 C494 1.349 . S
C495 C511 1.349 . S
C496 C494 1.327 . S
C496 C515 1.429 . S
C496 H520 0.950 . S
C497 C514 1.574 1_565 S
C497 C516 1.368 . S
C497 H521 0.949 . S
H498 C502 0.949 . S
C499 C500 1.349 . S
C499 C501 1.327 . S
C499 H522 0.950 . S
C500 C499 1.349 . S
C500 C512 1.349 . S
C501 C499 1.327 . S
C501 C517 1.429 . S
C501 H523 0.950 . S
C502 H498 0.949 . S
C502 C510 1.574 1_545 S
C502 C518 1.368 . S
H503 C511 0.950 . S
H504 C509 0.950 . S
H505 C510 0.949 . S
H506 C512 0.950 . S
H507 C513 0.950 . S
H508 C514 0.949 . S
C509 H504 0.950 . S
C509 C511 1.327 . S
C509 C515 1.429 . S
C510 C502 1.574 1_565 S
C510 H505 0.949 . S
C510 C516 1.368 . S
C511 C495 1.349 . S
C511 H503 0.950 . S
C511 C509 1.327 . S
C512 C500 1.349 . S
C512 H506 0.950 . S
C512 C513 1.327 . S
C513 H507 0.950 . S
C513 C512 1.327 . S
C513 C517 1.429 . S
C514 C497 1.574 1_545 S
C514 H508 0.949 . S
C514 C518 1.368 . S
C515 C496 1.429 . S
C515 C509 1.429 . S
C515 C516 1.523 . S
C516 C497 1.368 . S
C516 C510 1.368 . S
C516 C515 1.523 . S
C517 C501 1.429 . S
C517 C513 1.429 . S
C517 C518 1.523 . S
C518 C502 1.368 . S
C518 C514 1.368 . S
C518 C517 1.523 . S
H519 C494 0.950 . S
H520 C496 0.950 . S
H521 C497 0.949 . S
H522 C499 0.950 . S
H523 C501 0.950 . S
C524 C525 1.349 1_556 S
C524 C526 1.327 . S
C524 H549 0.950 . S
C525 C524 1.349 1_554 S
C525 C541 1.349 . S
C526 C524 1.327 . S
C526 C545 1.429 1_556 S
C526 H550 0.950 . S
C527 C544 1.574 . S
C527 C546 1.368 1_655 S
C527 H551 0.949 . S
H528 C532 0.949 . S
C529 C530 1.349 . S
C529 C531 1.327 . S
C529 H552 0.950 . S
C530 C529 1.349 . S
C530 C542 1.349 1_554 S
C531 C529 1.327 . S
C531 C547 1.429 . S
C531 H553 0.950 . S
C532 H528 0.949 . S
C532 C540 1.574 . S
C532 C548 1.368 1_456 S
H533 C541 0.950 . S
H534 C539 0.950 . S
H535 C540 0.949 . S
H536 C542 0.950 . S
H537 C543 0.950 . S
H538 C544 0.949 . S
C539 H534 0.950 . S
C539 C541 1.327 . S
C539 C545 1.429 . S
C540 C532 1.574 . S
C540 H535 0.949 . S
C540 C546 1.368 1_556 S
C541 C525 1.349 . S
C541 H533 0.950 . S
C541 C539 1.327 . S
C542 C530 1.349 1_556 S
C542 H536 0.950 . S
C542 C543 1.327 . S
C543 H537 0.950 . S
C543 C542 1.327 . S
C543 C547 1.429 1_556 S
C544 C527 1.574 . S
C544 H538 0.949 . S
C544 C548 1.368 . S
C545 C526 1.429 1_554 S
C545 C539 1.429 . S
C545 C546 1.523 . S
C546 C527 1.368 1_455 S
C546 C540 1.368 1_554 S
C546 C545 1.523 . S
C547 C531 1.429 . S
C547 C543 1.429 1_554 S
C547 C548 1.523 . S
C548 C532 1.368 1_654 S
C548 C544 1.368 . S
C548 C547 1.523 . S
H549 C524 0.950 . S
H550 C526 0.950 . S
H551 C527 0.949 . S
H552 C529 0.950 . S
H553 C531 0.950 . S
C554 C555 1.349 . S
C554 C556 1.327 . S
C554 H579 0.950 . S
C555 C554 1.349 . S
C555 C571 1.349 . S
C556 C554 1.327 . S
C556 C575 1.429 . S
C556 H580 0.950 . S
C557 C574 1.574 . S
C557 C576 1.368 1_655 S
C557 H581 0.949 . S
H558 C562 0.949 . S
C559 C560 1.349 . S
C559 C561 1.327 . S
C559 H582 0.950 . S
C560 C559 1.349 . S
C560 C572 1.349 . S
C561 C559 1.327 . S
C561 C577 1.429 . S
C561 H583 0.950 . S
C562 H558 0.949 . S
C562 C570 1.574 . S
C562 C578 1.368 1_455 S
H563 C571 0.950 . S
H564 C569 0.950 . S
H565 C570 0.949 . S
H566 C572 0.950 . S
H567 C573 0.950 . S
H568 C574 0.949 . S
C569 H564 0.950 . S
C569 C571 1.327 . S
C569 C575 1.429 . S
C570 C562 1.574 . S
C570 H565 0.949 . S
C570 C576 1.368 . S
C571 C555 1.349 . S
C571 H563 0.950 . S
C571 C569 1.327 . S
C572 C560 1.349 . S
C572 H566 0.950 . S
C572 C573 1.327 . S
C573 H567 0.950 . S
C573 C572 1.327 . S
C573 C577 1.429 . S
C574 C557 1.574 . S
C574 H568 0.949 . S
C574 C578 1.368 . S
C575 C556 1.429 . S
C575 C569 1.429 . S
C575 C576 1.523 . S
C576 C557 1.368 1_455 S
C576 C570 1.368 . S
C576 C575 1.523 . S
C577 C561 1.429 . S
C577 C573 1.429 . S
C577 C578 1.523 . S
C578 C562 1.368 1_655 S
C578 C574 1.368 . S
C578 C577 1.523 . S
H579 C554 0.950 . S
H580 C556 0.950 . S
H581 C557 0.949 . S
H582 C559 0.950 . S
H583 C561 0.950 . S
C105 C70 1.476 . S
C110 C5 1.476 . S
C135 C57 1.476 . S
C140 C18 1.476 . S
C165 C96 1.476 . S
C170 C31 1.476 . S
C195 C83 1.476 . S
C200 C44 1.476 . S
C225 C8 1.275 . S
C230 C34 1.275 . S
C255 C21 1.275 . S
C260 C47 1.275 . S
C285 C23 1.307 . S
C290 C49 1.307 . S
C315 C10 1.307 . S
C320 C36 1.307 . S
C345 C60 1.275 . S
C350 C86 1.275 . S
C375 C99 1.275 . S
C380 C73 1.275 . S
C405 C101 1.307 . S
C410 C75 1.307 . S
C435 C62 1.307 . S
C440 C88 1.307 . S
C465 C13 1.496 . S
C470 C0 1.496 . S
C495 C26 1.496 . S
C500 C39 1.496 . S
C525 C52 1.496 . S
C530 C65 1.496 . S
C555 C78 1.496 . S
C560 C91 1.496 . S
