# Generated by pormake.
# Topology unh, (4)-cn, num edge types: 1
# Building blocks:
#     Node 0, Type 0, BuildingBlock: CEKHIL_clean_sbu_0, # of connection points: 4
#     Node 1, Type 0, BuildingBlock: CEKHIL_clean_sbu_0, # of connection points: 4
#     Node 2, Type 0, BuildingBlock: CEKHIL_clean_sbu_0, # of connection points: 4
#     Node 3, Type 0, BuildingBlock: CEKHIL_clean_sbu_0, # of connection points: 4
#     Node 4, Type 0, BuildingBlock: CEKHIL_clean_sbu_0, # of connection points: 4
#     Node 5, Type 0, BuildingBlock: CEKHIL_clean_sbu_0, # of connection points: 4
#     Edge 6, Type (0, 0), BuildingBlock: UVAHIK_clean_linker_0, # of connection points: 2
#     Edge 7, Type (0, 0), BuildingBlock: UVAHIK_clean_linker_0, # of connection points: 2
#     Edge 8, Type (0, 0), BuildingBlock: UVAHIK_clean_linker_0, # of connection points: 2
#     Edge 9, Type (0, 0), BuildingBlock: UVAHIK_clean_linker_0, # of connection points: 2
#     Edge 10, Type (0, 0), BuildingBlock: UVAHIK_clean_linker_0, # of connection points: 2
#     Edge 11, Type (0, 0), BuildingBlock: UVAHIK_clean_linker_0, # of connection points: 2
#     Edge 12, Type (0, 0), BuildingBlock: UVAHIK_clean_linker_0, # of connection points: 2
#     Edge 13, Type (0, 0), BuildingBlock: UVAHIK_clean_linker_0, # of connection points: 2
#     Edge 14, Type (0, 0), BuildingBlock: UVAHIK_clean_linker_0, # of connection points: 2
#     Edge 15, Type (0, 0), BuildingBlock: UVAHIK_clean_linker_0, # of connection points: 2
#     Edge 16, Type (0, 0), BuildingBlock: UVAHIK_clean_linker_0, # of connection points: 2
#     Edge 17, Type (0, 0), BuildingBlock: UVAHIK_clean_linker_0, # of connection points: 2
# Relax obj value: 0.073
# Max RMSD: 0.184
# Mean RMSD: 0.184
data_MOF--net-unh--node1-CEKHIL_clean_sbu_0--edge1-UVAHIK_clean_linker_0
_symmetry_space_group_name_H-M    P1
_symmetry_Int_Tables_number       1
_symmetry_cell_setting            triclinic
loop_
_symmetry_equiv_pos_as_xyz
'x, y, z'
_cell_length_a     53.894657
_cell_length_b     53.861764
_cell_length_c     28.549643
_cell_angle_alpha  90.012712
_cell_angle_beta   89.980263
_cell_angle_gamma 119.92029
loop_
_atom_site_label
_atom_site_type_symbol
_atom_site_fract_x
_atom_site_fract_y
_atom_site_fract_z
_atom_type_partial_charge
Co0 Co 0.12656 0.53966 0.10364 0.0
O1 O 0.09539 0.51386 0.14305 0.0
O2 O 0.10249 0.55584 0.11809 0.0
C3 C 0.1612 0.53728 0.14414 0.0
O4 O 0.1567 0.57255 0.06471 0.0
Co5 Co 0.16209 0.51901 0.04758 0.0
O6 O 0.18876 0.56066 0.0387 0.0
C7 C 0.10535 0.50571 0.01241 0.0
C8 C 0.08747 0.53301 0.1433 0.0
C9 C 0.18052 0.57888 0.04466 0.0
O10 O 0.10354 0.52087 0.04566 0.0
O11 O 0.12607 0.50059 0.00883 0.0
O12 O 0.15162 0.55393 0.15785 0.0
O13 O 0.14779 0.52066 0.10915 0.0
Co14 Co 0.58276 0.12422 0.26655 0.0
O15 O 0.57678 0.09289 0.30612 0.0
O16 O 0.54226 0.09978 0.27871 0.0
C17 C 0.61849 0.159 0.30876 0.0
O18 O 0.58082 0.15458 0.22674 0.0
Co19 Co 0.6403 0.15934 0.21387 0.0
O20 O 0.62436 0.18429 0.1966 0.0
C21 C 0.59759 0.10304 0.17703 0.0
C22 C 0.5497 0.0847 0.30462 0.0
C23 C 0.59819 0.17698 0.20315 0.0
O24 O 0.57992 0.1015 0.20876 0.0
O25 O 0.62367 0.12333 0.17524 0.0
O26 O 0.59195 0.14897 0.32077 0.0
O27 O 0.62278 0.14567 0.27475 0.0
Co28 Co 0.46049 0.58699 0.43334 0.0
O29 O 0.48534 0.58232 0.47605 0.0
O30 O 0.44603 0.54666 0.44506 0.0
C31 C 0.45788 0.62108 0.47498 0.0
O32 O 0.42876 0.58353 0.39014 0.0
Co33 Co 0.48121 0.64437 0.38148 0.0
O34 O 0.44065 0.62709 0.36216 0.0
C35 C 0.49916 0.6043 0.34681 0.0
C36 C 0.46755 0.55499 0.47363 0.0
C37 C 0.42291 0.60044 0.36681 0.0
O38 O 0.48346 0.58619 0.37834 0.0
O39 O 0.50245 0.62948 0.34351 0.0
O40 O 0.44193 0.59419 0.48538 0.0
O41 O 0.47685 0.62685 0.4426 0.0
Co42 Co 0.87085 0.45639 0.6017 0.0
O43 O 0.90027 0.48054 0.64483 0.0
O44 O 0.89554 0.44054 0.61467 0.0
C45 C 0.83418 0.45509 0.64159 0.0
O46 O 0.84221 0.42563 0.55757 0.0
Co47 Co 0.83816 0.48151 0.54879 0.0
O48 O 0.81392 0.44139 0.52758 0.0
C49 C 0.89521 0.49543 0.51567 0.0
C50 C 0.90921 0.46225 0.64283 0.0
C51 C 0.82075 0.42202 0.53258 0.0
O52 O 0.89559 0.47849 0.54701 0.0
O53 O 0.87505 0.50139 0.51251 0.0
O54 O 0.84421 0.43846 0.65294 0.0
O55 O 0.84866 0.47424 0.61009 0.0
Co56 Co 0.41158 0.87288 0.76806 0.0
O57 O 0.419 0.90455 0.80771 0.0
O58 O 0.45244 0.89662 0.77829 0.0
C59 C 0.37636 0.83864 0.81169 0.0
O60 O 0.41161 0.84177 0.72755 0.0
Co61 Co 0.3529 0.83951 0.71851 0.0
O62 O 0.36666 0.81262 0.7023 0.0
C63 C 0.39651 0.89447 0.67903 0.0
C64 C 0.44589 0.91221 0.80476 0.0
C65 C 0.39276 0.81904 0.70628 0.0
O66 O 0.41408 0.89567 0.7106 0.0
O67 O 0.37018 0.87475 0.67788 0.0
O68 O 0.40305 0.84822 0.82207 0.0
O69 O 0.37169 0.85237 0.77876 0.0
Co70 Co 0.53988 0.41393 0.93824 0.0
O71 O 0.51712 0.4226 0.97947 0.0
O72 O 0.55907 0.45479 0.95006 0.0
C73 C 0.53675 0.37699 0.97996 0.0
O74 O 0.5697 0.41271 0.89586 0.0
Co75 Co 0.51176 0.35555 0.88649 0.0
O76 O 0.55147 0.36833 0.866 0.0
C77 C 0.50196 0.40128 0.85153 0.0
C78 C 0.53737 0.44914 0.97696 0.0
C79 C 0.57202 0.3939 0.8713 0.0
O80 O 0.51976 0.41837 0.88222 0.0
O81 O 0.4941 0.3746 0.84956 0.0
O82 O 0.55514 0.40322 0.99116 0.0
O83 O 0.51883 0.37396 0.94722 0.0
C84 C 0.08234 0.47658 0.93986 0.0
C85 C 0.08382 0.49602 0.97426 0.0
C86 C 0.06422 0.47017 0.90108 0.0
C87 C 0.03482 0.50357 0.82755 0.0
H88 H 0.97532 0.42775 0.79018 0.0
C89 C 0.94476 0.48848 0.7056 0.0
C90 C 0.9326 0.46549 0.67392 0.0
C91 C 0.96522 0.49098 0.73789 0.0
C92 C 0.99224 0.44901 0.79951 0.0
H93 H 0.06653 0.52311 0.99554 0.0
H94 H 0.03549 0.51228 0.92767 0.0
H95 H 0.00654 0.43321 0.85653 0.0
H96 H 0.93285 0.42732 0.6506 0.0
H97 H 0.96939 0.43205 0.7068 0.0
H98 H 0.02113 0.51962 0.77085 0.0
C99 C 0.04833 0.50202 0.93084 0.0
C100 C 0.00995 0.45209 0.83762 0.0
C101 C 0.06603 0.50807 0.96983 0.0
C102 C 0.94188 0.4453 0.67457 0.0
C103 C 0.96264 0.4479 0.70697 0.0
C104 C 0.01752 0.50051 0.78921 0.0
C105 C 0.04766 0.48346 0.89574 0.0
C106 C 0.03081 0.47948 0.85269 0.0
C107 C 0.97441 0.47073 0.73923 0.0
C108 C 0.99538 0.47329 0.77558 0.0
H109 H 0.09567 0.46682 0.94229 0.0
H110 H 0.06399 0.45575 0.8744 0.0
H111 H 0.05117 0.52488 0.83801 0.0
H112 H 0.938 0.50434 0.70635 0.0
H113 H 0.97323 0.50847 0.76277 0.0
C114 C 0.45858 0.95217 0.86072 0.0
C115 C 0.46731 0.93619 0.83348 0.0
C116 C 0.47738 0.97268 0.89221 0.0
C117 C 0.54181 0.99158 0.96211 0.0
H118 H 0.53439 0.05787 0.99169 0.0
C119 C 0.60491 0.07938 0.10639 0.0
C120 C 0.58634 0.0821 0.13803 0.0
C121 C 0.59405 0.06214 0.06643 0.0
C122 C 0.53677 0.03951 0.98359 0.0
H123 H 0.50304 0.92995 0.81657 0.0
H124 H 0.53632 0.96641 0.87141 0.0
H125 H 0.51031 0.02911 0.92289 0.0
H126 H 0.54174 0.06807 0.15307 0.0
H127 H 0.52311 0.03867 0.08304 0.0
H128 H 0.5685 0.00243 0.0233 0.0
C129 C 0.51468 0.96266 0.86879 0.0
C130 C 0.5229 0.02294 0.94438 0.0
C131 C 0.49571 0.94196 0.83713 0.0
C132 C 0.55669 0.06647 0.12963 0.0
C133 C 0.54597 0.04975 0.08941 0.0
C134 C 0.55612 0.00851 0.00109 0.0
C135 C 0.50556 0.97797 0.8972 0.0
C136 C 0.52437 0.99817 0.93404 0.0
C137 C 0.56457 0.04785 0.05711 0.0
C138 C 0.55291 0.03205 0.01286 0.0
H139 H 0.43684 0.94826 0.85887 0.0
H140 H 0.46934 0.98357 0.91401 0.0
H141 H 0.54329 0.97256 0.95542 0.0
H142 H 0.62784 0.09107 0.11193 0.0
H143 H 0.60873 0.06087 0.04192 0.0
C144 C 0.51886 0.60759 0.26596 0.0
C145 C 0.51181 0.59445 0.31029 0.0
C146 C 0.52623 0.59534 0.22915 0.0
C147 C 0.51351 0.52429 0.19332 0.0
H148 H 0.56503 0.5658 0.09104 0.0
C149 C 0.56158 0.49588 0.02035 0.0
C150 C 0.53638 0.47104 0.00669 0.0
C151 C 0.56068 0.5139 0.05492 0.0
C152 C 0.55071 0.55392 0.11951 0.0
H153 H 0.5094 0.5596 0.3518 0.0
H154 H 0.5231 0.53881 0.28821 0.0
H155 H 0.56246 0.59205 0.15917 0.0
H156 H 0.49031 0.44682 0.01535 0.0
H157 H 0.48859 0.47857 0.07413 0.0
H158 H 0.50211 0.48622 0.15468 0.0
C159 C 0.52195 0.55798 0.28131 0.0
C160 C 0.54906 0.56896 0.15836 0.0
C161 C 0.51426 0.57 0.31788 0.0
C162 C 0.51013 0.4656 0.02571 0.0
C163 C 0.50919 0.4837 0.05967 0.0
C164 C 0.51522 0.50935 0.1548 0.0
C165 C 0.52697 0.56987 0.23605 0.0
C166 C 0.53032 0.55429 0.19566 0.0
C167 C 0.53453 0.50745 0.07602 0.0
C168 C 0.53355 0.52393 0.11712 0.0
H169 H 0.51713 0.62643 0.25893 0.0
H170 H 0.52981 0.60501 0.19475 0.0
H171 H 0.49846 0.51225 0.22088 0.0
H172 H 0.58212 0.50052 0.00627 0.0
H173 H 0.58059 0.53201 0.06673 0.0
C174 C 0.91903 0.52506 0.44381 0.0
C175 C 0.91736 0.50564 0.47843 0.0
C176 C 0.93707 0.53108 0.40496 0.0
C177 C 0.96404 0.49584 0.33133 0.0
H178 H 0.02568 0.57023 0.29271 0.0
C179 C 0.05102 0.50646 0.20501 0.0
C180 C 0.06409 0.52988 0.17429 0.0
C181 C 0.03109 0.50462 0.23797 0.0
C182 C 0.00816 0.54936 0.30237 0.0
H183 H 0.93457 0.47856 0.50031 0.0
H184 H 0.96536 0.48871 0.43237 0.0
H185 H 0.99572 0.56658 0.35989 0.0
H186 H 0.06579 0.56932 0.15293 0.0
H187 H 0.03022 0.56573 0.20994 0.0
H188 H 0.97582 0.4784 0.27408 0.0
C189 C 0.95272 0.4992 0.4354 0.0
C190 C 0.99117 0.54733 0.34097 0.0
C191 C 0.93514 0.49353 0.47441 0.0
C192 C 0.05608 0.55101 0.17621 0.0
C193 C 0.03588 0.54907 0.20913 0.0
C194 C 0.98062 0.49787 0.29247 0.0
C195 C 0.95333 0.51745 0.39986 0.0
C196 C 0.96951 0.52045 0.35642 0.0
C197 C 0.02341 0.52601 0.24084 0.0
C198 C 0.00346 0.52454 0.27827 0.0
H199 H 0.90573 0.53485 0.44588 0.0
H200 H 0.93731 0.54529 0.37792 0.0
H201 H 0.94709 0.47492 0.34222 0.0
H202 H 0.05683 0.48989 0.2047 0.0
H203 H 0.02246 0.48683 0.2623 0.0
C204 C 0.53873 0.0465 0.36359 0.0
C205 C 0.529 0.06082 0.33437 0.0
C206 C 0.52032 0.02607 0.39562 0.0
C207 C 0.45373 0.00431 0.46182 0.0
H208 H 0.46496 0.94108 0.49715 0.0
C209 C 0.39009 0.91745 0.60655 0.0
C210 C 0.40821 0.9151 0.63958 0.0
C211 C 0.40152 0.93448 0.56647 0.0
C212 C 0.46155 0.9586 0.4875 0.0
H213 H 0.49195 0.06419 0.31462 0.0
H214 H 0.45941 0.02786 0.37019 0.0
H215 H 0.48977 0.97 0.4289 0.0
H216 H 0.45265 0.9296 0.65686 0.0
H217 H 0.47226 0.95865 0.58686 0.0
H218 H 0.42527 0.99245 0.52085 0.0
C219 C 0.48152 0.03287 0.36882 0.0
C220 C 0.47584 0.97528 0.44857 0.0
C221 C 0.50008 0.05351 0.33673 0.0
C222 C 0.43799 0.93086 0.63235 0.0
C223 C 0.44928 0.94738 0.59209 0.0
C224 C 0.43905 0.98727 0.50051 0.0
C225 C 0.49155 0.01918 0.39913 0.0
C226 C 0.47288 -0.00106 0.43609 0.0
C227 C 0.43117 0.94895 0.55844 0.0
C228 C 0.44355 0.96484 0.51441 0.0
H229 H 0.5609 0.05167 0.36285 0.0
H230 H 0.52904 0.01646 0.41887 0.0
H231 H 0.45107 0.02246 0.4535 0.0
H232 H 0.36707 0.90565 0.61109 0.0
H233 H 0.38717 0.93548 0.54095 0.0
C234 C 0.47278 0.3963 0.7796 0.0
C235 C 0.49201 0.41367 0.81461 0.0
C236 C 0.46586 0.40859 0.74225 0.0
C237 C 0.47086 0.47703 0.7034 0.0
H238 H 0.46944 0.44811 0.57833 0.0
C239 C 0.49128 0.54611 0.54118 0.0
C240 C 0.47003 0.53507 0.50635 0.0
C241 C 0.49136 0.52852 0.57687 0.0
C242 C 0.46948 0.45616 0.61313 0.0
H243 H 0.51839 0.4576 0.83823 0.0
H244 H 0.50689 0.47883 0.77315 0.0
H245 H 0.47298 0.42242 0.64643 0.0
H246 H 0.43319 0.49651 0.48008 0.0
H247 H 0.43383 0.46542 0.54248 0.0
H248 H 0.4687 0.51144 0.66992 0.0
C249 C 0.49666 0.45571 0.77476 0.0
C250 C 0.47136 0.44143 0.65216 0.0
C251 C 0.50341 0.44348 0.81211 0.0
C252 C 0.44981 0.50562 0.50648 0.0
C253 C 0.45014 0.48786 0.5421 0.0
C254 C 0.46938 0.49187 0.6645 0.0
C255 C 0.47806 0.43849 0.73902 0.0
C256 C 0.4727 0.45206 0.69776 0.0
C257 C 0.47043 0.49942 0.5783 0.0
C258 C 0.46927 0.48191 0.61903 0.0
H259 H 0.4635 0.37326 0.78047 0.0
H260 H 0.45114 0.39466 0.7157 0.0
H261 H 0.47107 0.48544 0.73794 0.0
H262 H 0.50726 0.56865 0.54205 0.0
H263 H 0.50749 0.53782 0.60404 0.0
C264 C 0.19673 0.55294 0.20911 0.0
C265 C 0.18613 0.53795 0.16687 0.0
C266 C 0.22057 0.55425 0.23068 0.0
C267 C 0.28551 0.55212 0.20462 0.0
H268 H 0.28931 0.54603 0.33958 0.0
C269 C 0.39115 0.60429 0.307 0.0
C270 C 0.39484 0.58862 0.34303 0.0
C271 C 0.36486 0.5936 0.28437 0.0
C272 C 0.28846 0.54742 0.30182 0.0
H273 H 0.19202 0.51236 0.1142 0.0
H274 H 0.23421 0.51506 0.1517 0.0
H275 H 0.24394 0.53479 0.30262 0.0
H276 H 0.3737 0.5493 0.38341 0.0
H277 H 0.32732 0.53082 0.34416 0.0
H278 H 0.33023 0.5656 0.20396 0.0
C279 C 0.22389 0.52567 0.16811 0.0
C280 C 0.26259 0.54122 0.28072 0.0
C281 C 0.19974 0.52408 0.14674 0.0
C282 C 0.37155 0.56188 0.35578 0.0
C283 C 0.34502 0.55134 0.33345 0.0
C284 C 0.31144 0.5586 0.22577 0.0
C285 C 0.23455 0.54083 0.21028 0.0
C286 C 0.261 0.54406 0.23201 0.0
C287 C 0.34147 0.56712 0.29747 0.0
C288 C 0.3133 0.55687 0.27466 0.0
H289 H 0.18666 0.56382 0.22553 0.0
H290 H 0.22854 0.56644 0.26278 0.0
H291 H 0.28498 0.55465 0.16706 0.0
H292 H 0.40864 0.62489 0.29609 0.0
H293 H 0.36265 0.60642 0.25721 0.0
C294 C 0.66998 0.19799 0.31515 0.0
C295 C 0.64173 0.1845 0.33204 0.0
C296 C 0.69133 0.22295 0.33671 0.0
C297 C 0.73468 0.26844 0.40476 0.0
H298 H 0.71146 0.32328 0.44086 0.0
C299 C 0.80426 0.36976 0.5191 0.0
C300 C 0.80326 0.39462 0.50739 0.0
C301 C 0.78645 0.3438 0.49615 0.0
C302 C 0.71845 0.30837 0.43066 0.0
H303 H 0.6139 0.18583 0.3857 0.0
H304 H 0.65091 0.22878 0.42338 0.0
H305 H 0.67722 0.27885 0.40339 0.0
H306 H 0.78395 0.41197 0.46053 0.0
H307 H 0.75357 0.36723 0.42044 0.0
H308 H 0.77626 0.29858 0.43149 0.0
C309 C 0.65661 0.22062 0.393 0.0
C310 C 0.69867 0.28268 0.40968 0.0
C311 C 0.63539 0.1959 0.37148 0.0
C312 C 0.78492 0.39317 0.47117 0.0
C313 C 0.76739 0.36744 0.44816 0.0
C314 C 0.75461 0.29432 0.42586 0.0
C315 C 0.68471 0.23476 0.37546 0.0
C316 C 0.70643 0.26231 0.3967 0.0
C317 C 0.76746 0.3423 0.46096 0.0
C318 C 0.74668 0.31459 0.43893 0.0
H319 H 0.67546 0.18962 0.28482 0.0
H320 H 0.71276 0.23344 0.32224 0.0
H321 H 0.74125 0.25309 0.39537 0.0
H322 H 0.81824 0.3702 0.54672 0.0
H323 H 0.7869 0.32476 0.50694 0.0
C324 C 0.42915 0.80365 0.69085 0.0
C325 C 0.4016 0.79981 0.68397 0.0
C326 C 0.43714 0.78535 0.66918 0.0
C327 C 0.45297 0.7528 0.59821 0.0
H328 H 0.39545 0.67244 0.58913 0.0
C329 C 0.46652 0.67126 0.48281 0.0
C330 C 0.45469 0.64323 0.50016 0.0
C331 C 0.46202 0.69148 0.50651 0.0
C332 C 0.41194 0.69473 0.59176 0.0
H333 H 0.3611 0.774 0.64808 0.0
H334 H 0.37514 0.74274 0.61 0.0
H335 H 0.3842 0.70513 0.62958 0.0
H336 H 0.4301 0.61469 0.55684 0.0
H337 H 0.42302 0.64987 0.59859 0.0
H338 H 0.48097 0.742 0.56131 0.0
C339 C 0.3904 0.75938 0.63293 0.0
C340 C 0.40532 0.7136 0.61444 0.0
C341 C 0.38239 0.77747 0.65468 0.0
C342 C 0.43912 0.63602 0.5422 0.0
C343 C 0.43494 0.65619 0.56606 0.0
C344 C 0.45969 0.7338 0.57566 0.0
C345 C 0.41777 0.76292 0.64012 0.0
C346 C 0.42563 0.7429 0.61762 0.0
C347 C 0.44583 0.68401 0.54814 0.0
C348 C 0.43919 0.70453 0.57212 0.0
H349 H 0.44448 0.82064 0.7132 0.0
H350 H 0.4583 0.78849 0.67578 0.0
H351 H 0.46903 0.77529 0.59973 0.0
H352 H 0.47863 0.67735 0.45045 0.0
H353 H 0.47053 0.71266 0.49155 0.0
C354 C 0.62445 0.42795 0.85682 0.0
C355 C 0.59917 0.40232 0.84621 0.0
C356 C 0.64988 0.43544 0.83269 0.0
C357 C 0.68346 0.4024 0.76236 0.0
H358 H 0.73861 0.48079 0.72915 0.0
C359 C 0.79456 0.46686 0.64802 0.0
C360 C 0.80793 0.45171 0.6638 0.0
C361 C 0.76913 0.46241 0.66908 0.0
C362 C 0.72326 0.45877 0.73779 0.0
H363 H 0.5806 0.36507 0.80063 0.0
H364 H 0.62443 0.37835 0.75829 0.0
H365 H 0.69371 0.47014 0.76745 0.0
H366 H 0.80573 0.4208 0.71479 0.0
H367 H 0.76213 0.41352 0.75166 0.0
H368 H 0.71243 0.39081 0.732 0.0
C369 C 0.62497 0.39232 0.78607 0.0
C370 C 0.69772 0.45271 0.76025 0.0
C371 C 0.59975 0.38472 0.81036 0.0
C372 C 0.7958 0.43258 0.70142 0.0
C373 C 0.77066 0.42827 0.72246 0.0
C374 C 0.70879 0.40841 0.73984 0.0
C375 C 0.65046 0.41756 0.79726 0.0
C376 C 0.67757 0.42443 0.77296 0.0
C377 C 0.75676 0.44278 0.70621 0.0
C378 C 0.72917 0.43668 0.72775 0.0
H379 H 0.62471 0.44201 0.88418 0.0
H380 H 0.6692 0.45491 0.8425 0.0
H381 H 0.66868 0.38043 0.77212 0.0
H382 H 0.80347 0.48175 0.61907 0.0
H383 H 0.75884 0.47382 0.65563 0.0
C384 C 0.32443 0.80511 0.83065 0.0
C385 C 0.35345 0.81336 0.83595 0.0
C386 C 0.30333 0.78158 0.85562 0.0
C387 C 0.29528 0.73582 0.95891 0.0
H388 H 0.22407 0.68053 0.89997 0.0
C389 C 0.2281 0.61915 0.01974 0.0
C390 C 0.19855 0.60805 0.02565 0.0
C391 C 0.24506 0.64612 -0.00023 0.0
C392 C 0.24372 0.69603 0.917 0.0
H393 H 0.38307 0.80299 0.87021 0.0
H394 H 0.34666 0.76194 0.91222 0.0
H395 H 0.25732 0.72422 0.85776 0.0
H396 H 0.16355 0.61647 0.01527 0.0
H397 H 0.19331 0.66357 0.97907 0.0
H398 H 0.28228 0.70695 0.01713 0.0
C399 C 0.33999 0.77395 0.89025 0.0
C400 C 0.26273 0.72107 0.89295 0.0
C401 C 0.36093 0.79742 0.86576 0.0
C402 C 0.18631 0.62457 0.0114 0.0
C403 C 0.20323 0.65138 0.99048 0.0
C404 C 0.27652 0.7107 0.98256 0.0
C405 C 0.31095 0.76589 0.88608 0.0
C406 C 0.28908 0.74093 0.91321 0.0
C407 C 0.23275 0.66235 0.98452 0.0
C408 C 0.25086 0.69032 0.96147 0.0
H409 H 0.31809 0.81704 0.80785 0.0
H410 H 0.28116 0.77599 0.85167 0.0
H411 H 0.31499 0.75101 0.97616 0.0
H412 H 0.23814 0.60694 0.03049 0.0
H413 H 0.26775 0.65405 0.99522 0.0
C414 C 0.52201 0.32484 0.98466 0.0
C415 C 0.53685 0.35263 0.00344 0.0
C416 C 0.52351 0.30234 0.00652 0.0
C417 C 0.54062 0.28036 0.11884 0.0
H418 H 0.56394 0.23599 0.04249 0.0
C419 C 0.5609 0.19177 0.19432 0.0
C420 C 0.58723 0.19445 0.1808 0.0
C421 C 0.55069 0.20818 0.17243 0.0
C422 C 0.55726 0.24811 0.06418 0.0
H423 H 0.56418 0.37854 0.06034 0.0
H424 H 0.56653 0.33938 0.0985 0.0
H425 H 0.55248 0.26987 0.00507 0.0
H426 H 0.62327 0.21627 0.13324 0.0
H427 H 0.60534 0.24458 0.09511 0.0
H428 H 0.54619 0.25917 0.17806 0.0
C429 C 0.55374 0.33489 0.06705 0.0
C430 C 0.55047 0.26729 0.04276 0.0
C431 C 0.55258 0.35736 0.04495 0.0
C432 C 0.60297 0.21372 0.14474 0.0
C433 C 0.59259 0.22977 0.12252 0.0
C434 C 0.5471 0.26093 0.14023 0.0
C435 C 0.53947 0.30721 0.04788 0.0
C436 C 0.54277 0.28411 0.06997 0.0
C437 C 0.56639 0.22721 0.13613 0.0
C438 C 0.55617 0.24515 0.11318 0.0
H439 H 0.50974 0.32062 0.95267 0.0
H440 H 0.51226 0.28115 0.99108 0.0
H441 H 0.53453 0.29293 0.14061 0.0
H442 H 0.54827 0.17713 0.22198 0.0
H443 H 0.53039 0.2058 0.18354 0.0
loop_
_geom_bond_atom_site_label_1
_geom_bond_atom_site_label_2
_geom_bond_distance
_geom_bond_site_symmetry_2
_ccdc_geom_bond_type
Co0 O1 2.216 . S
Co0 O2 2.091 . S
Co0 O4 2.004 . S
Co0 O10 2.021 . S
Co0 O12 2.137 . S
Co0 O13 2.244 . S
O1 Co0 2.216 . S
O1 C8 1.247 . S
O2 Co0 2.091 . S
O2 C8 1.261 . S
C3 O12 1.247 . S
C3 O13 1.272 . S
O4 Co0 2.004 . S
O4 C9 1.259 . S
Co5 O6 2.061 . S
Co5 O11 2.051 1_554 S
Co5 O13 2.135 . S
O6 Co5 2.061 . S
O6 C9 1.235 . S
C7 O10 1.238 . S
C7 O11 1.240 1_554 S
C8 O1 1.247 . S
C8 O2 1.261 . S
C9 O4 1.259 . S
C9 O6 1.235 . S
O10 Co0 2.021 . S
O10 C7 1.238 . S
O11 Co5 2.051 1_556 S
O11 C7 1.240 1_556 S
O12 Co0 2.137 . S
O12 C3 1.247 . S
O13 Co0 2.244 . S
O13 C3 1.272 . S
O13 Co5 2.135 . S
Co14 O15 2.216 . S
Co14 O16 2.091 . S
Co14 O18 2.004 . S
Co14 O24 2.021 . S
Co14 O26 2.137 . S
Co14 O27 2.244 . S
O15 Co14 2.216 . S
O15 C22 1.247 . S
O16 Co14 2.091 . S
O16 C22 1.261 . S
C17 O26 1.247 . S
C17 O27 1.272 . S
O18 Co14 2.004 . S
O18 C23 1.259 . S
Co19 O20 2.061 . S
Co19 O25 2.052 . S
Co19 O27 2.135 . S
O20 Co19 2.061 . S
O20 C23 1.235 . S
C21 O24 1.238 . S
C21 O25 1.241 . S
C22 O15 1.247 . S
C22 O16 1.261 . S
C23 O18 1.259 . S
C23 O20 1.235 . S
O24 Co14 2.021 . S
O24 C21 1.238 . S
O25 Co19 2.052 . S
O25 C21 1.241 . S
O26 Co14 2.137 . S
O26 C17 1.247 . S
O27 Co14 2.244 . S
O27 C17 1.272 . S
O27 Co19 2.135 . S
Co28 O29 2.216 . S
Co28 O30 2.091 . S
Co28 O32 2.004 . S
Co28 O38 2.021 . S
Co28 O40 2.137 . S
Co28 O41 2.244 . S
O29 Co28 2.216 . S
O29 C36 1.247 . S
O30 Co28 2.091 . S
O30 C36 1.261 . S
C31 O40 1.247 . S
C31 O41 1.272 . S
O32 Co28 2.004 . S
O32 C37 1.259 . S
Co33 O34 2.061 . S
Co33 O39 2.052 . S
Co33 O41 2.135 . S
O34 Co33 2.061 . S
O34 C37 1.235 . S
C35 O38 1.238 . S
C35 O39 1.241 . S
C36 O29 1.247 . S
C36 O30 1.261 . S
C37 O32 1.259 . S
C37 O34 1.235 . S
O38 Co28 2.021 . S
O38 C35 1.238 . S
O39 Co33 2.052 . S
O39 C35 1.241 . S
O40 Co28 2.137 . S
O40 C31 1.247 . S
O41 Co28 2.244 . S
O41 C31 1.272 . S
O41 Co33 2.135 . S
Co42 O43 2.216 . S
Co42 O44 2.091 . S
Co42 O46 2.004 . S
Co42 O52 2.021 . S
Co42 O54 2.137 . S
Co42 O55 2.244 . S
O43 Co42 2.216 . S
O43 C50 1.247 . S
O44 Co42 2.091 . S
O44 C50 1.261 . S
C45 O54 1.247 . S
C45 O55 1.272 . S
O46 Co42 2.004 . S
O46 C51 1.259 . S
Co47 O48 2.061 . S
Co47 O53 2.052 . S
Co47 O55 2.135 . S
O48 Co47 2.061 . S
O48 C51 1.235 . S
C49 O52 1.238 . S
C49 O53 1.241 . S
C50 O43 1.247 . S
C50 O44 1.261 . S
C51 O46 1.259 . S
C51 O48 1.235 . S
O52 Co42 2.021 . S
O52 C49 1.238 . S
O53 Co47 2.052 . S
O53 C49 1.241 . S
O54 Co42 2.137 . S
O54 C45 1.247 . S
O55 Co42 2.244 . S
O55 C45 1.272 . S
O55 Co47 2.135 . S
Co56 O57 2.216 . S
Co56 O58 2.091 . S
Co56 O60 2.004 . S
Co56 O66 2.021 . S
Co56 O68 2.137 . S
Co56 O69 2.244 . S
O57 Co56 2.216 . S
O57 C64 1.247 . S
O58 Co56 2.091 . S
O58 C64 1.261 . S
C59 O68 1.247 . S
C59 O69 1.272 . S
O60 Co56 2.004 . S
O60 C65 1.259 . S
Co61 O62 2.061 . S
Co61 O67 2.052 . S
Co61 O69 2.135 . S
O62 Co61 2.061 . S
O62 C65 1.235 . S
C63 O66 1.238 . S
C63 O67 1.241 . S
C64 O57 1.247 . S
C64 O58 1.261 . S
C65 O60 1.259 . S
C65 O62 1.235 . S
O66 Co56 2.021 . S
O66 C63 1.238 . S
O67 Co61 2.052 . S
O67 C63 1.241 . S
O68 Co56 2.137 . S
O68 C59 1.247 . S
O69 Co56 2.244 . S
O69 C59 1.272 . S
O69 Co61 2.135 . S
Co70 O71 2.216 . S
Co70 O72 2.091 . S
Co70 O74 2.004 . S
Co70 O80 2.021 . S
Co70 O82 2.137 . S
Co70 O83 2.244 . S
O71 Co70 2.216 . S
O71 C78 1.247 . S
O72 Co70 2.091 . S
O72 C78 1.261 . S
C73 O82 1.247 . S
C73 O83 1.272 . S
O74 Co70 2.004 . S
O74 C79 1.259 . S
Co75 O76 2.061 . S
Co75 O81 2.052 . S
Co75 O83 2.135 . S
O76 Co75 2.061 . S
O76 C79 1.235 . S
C77 O80 1.238 . S
C77 O81 1.241 . S
C78 O71 1.247 . S
C78 O72 1.261 . S
C79 O74 1.259 . S
C79 O76 1.235 . S
O80 Co70 2.021 . S
O80 C77 1.238 . S
O81 Co75 2.052 . S
O81 C77 1.241 . S
O82 Co70 2.137 . S
O82 C73 1.247 . S
O83 Co70 2.244 . S
O83 C73 1.272 . S
O83 Co75 2.135 . S
C84 C85 1.349 . S
C84 C86 1.327 . S
C84 H109 0.950 . S
C85 C84 1.349 . S
C85 C101 1.349 . S
C86 C84 1.327 . S
C86 C105 1.429 . S
C86 H110 0.950 . S
C87 C104 1.574 . S
C87 C106 1.368 1_655 S
C87 H111 0.949 . S
H88 C92 0.949 . S
C89 C90 1.349 . S
C89 C91 1.327 . S
C89 H112 0.950 . S
C90 C89 1.349 . S
C90 C102 1.349 . S
C91 C89 1.327 . S
C91 C107 1.429 . S
C91 H113 0.950 . S
C92 H88 0.949 . S
C92 C100 1.574 . S
C92 C108 1.368 1_455 S
H93 C101 0.950 1_554 S
H94 C99 0.950 . S
H95 C100 0.949 . S
H96 C102 0.950 . S
H97 C103 0.950 . S
H98 C104 0.949 . S
C99 H94 0.950 . S
C99 C101 1.327 . S
C99 C105 1.429 . S
C100 C92 1.574 . S
C100 H95 0.949 . S
C100 C106 1.368 . S
C101 C85 1.349 . S
C101 H93 0.950 1_556 S
C101 C99 1.327 . S
C102 C90 1.349 . S
C102 H96 0.950 . S
C102 C103 1.327 . S
C103 H97 0.950 . S
C103 C102 1.327 . S
C103 C107 1.429 . S
C104 C87 1.574 . S
C104 H98 0.949 . S
C104 C108 1.368 . S
C105 C86 1.429 . S
C105 C99 1.429 . S
C105 C106 1.523 . S
C106 C87 1.368 1_455 S
C106 C100 1.368 . S
C106 C105 1.523 . S
C107 C91 1.429 . S
C107 C103 1.429 . S
C107 C108 1.523 . S
C108 C92 1.368 1_655 S
C108 C104 1.368 . S
C108 C107 1.523 . S
H109 C84 0.950 . S
H110 C86 0.950 . S
H111 C87 0.949 . S
H112 C89 0.950 . S
H113 C91 0.950 . S
C114 C115 1.349 . S
C114 C116 1.327 . S
C114 H139 0.950 . S
C115 C114 1.349 . S
C115 C131 1.349 . S
C116 C114 1.327 . S
C116 C135 1.429 . S
C116 H140 0.950 . S
C117 C134 1.574 . S
C117 C136 1.368 1_554 S
C117 H141 0.949 . S
H118 C122 0.949 . S
C119 C120 1.349 . S
C119 C121 1.327 . S
C119 H142 0.950 . S
C120 C119 1.349 . S
C120 C132 1.349 . S
C121 C119 1.327 . S
C121 C137 1.429 . S
C121 H143 0.950 . S
C122 H118 0.949 . S
C122 C130 1.574 . S
C122 C138 1.368 1_556 S
H123 C131 0.950 . S
H124 C129 0.950 . S
H125 C130 0.949 . S
H126 C132 0.950 . S
H127 C133 0.950 . S
H128 C134 0.949 . S
C129 H124 0.950 . S
C129 C131 1.327 . S
C129 C135 1.429 . S
C130 C122 1.574 . S
C130 H125 0.949 . S
C130 C136 1.368 1_545 S
C131 C115 1.349 . S
C131 H123 0.950 . S
C131 C129 1.327 . S
C132 C120 1.349 . S
C132 H126 0.950 . S
C132 C133 1.327 . S
C133 H127 0.950 . S
C133 C132 1.327 . S
C133 C137 1.429 . S
C134 C117 1.574 . S
C134 H128 0.949 . S
C134 C138 1.368 1_565 S
C135 C116 1.429 . S
C135 C129 1.429 . S
C135 C136 1.523 . S
C136 C117 1.368 1_556 S
C136 C130 1.368 1_565 S
C136 C135 1.523 . S
C137 C121 1.429 . S
C137 C133 1.429 . S
C137 C138 1.523 . S
C138 C122 1.368 1_554 S
C138 C134 1.368 1_545 S
C138 C137 1.523 . S
H139 C114 0.950 . S
H140 C116 0.950 . S
H141 C117 0.949 . S
H142 C119 0.950 . S
H143 C121 0.950 . S
C144 C145 1.349 . S
C144 C146 1.327 . S
C144 H169 0.950 . S
C145 C144 1.349 . S
C145 C161 1.349 . S
C146 C144 1.327 . S
C146 C165 1.429 . S
C146 H170 0.950 . S
C147 C164 1.574 . S
C147 C166 1.368 . S
C147 H171 0.949 . S
H148 C152 0.949 . S
C149 C150 1.349 . S
C149 C151 1.327 . S
C149 H172 0.950 . S
C150 C149 1.349 . S
C150 C162 1.349 . S
C151 C149 1.327 . S
C151 C167 1.429 . S
C151 H173 0.950 . S
C152 H148 0.949 . S
C152 C160 1.574 . S
C152 C168 1.368 . S
H153 C161 0.950 . S
H154 C159 0.950 . S
H155 C160 0.949 . S
H156 C162 0.950 1_556 S
H157 C163 0.950 . S
H158 C164 0.949 . S
C159 H154 0.950 . S
C159 C161 1.327 . S
C159 C165 1.429 . S
C160 C152 1.574 . S
C160 H155 0.949 . S
C160 C166 1.368 . S
C161 C145 1.349 . S
C161 H153 0.950 . S
C161 C159 1.327 . S
C162 C150 1.349 . S
C162 H156 0.950 1_554 S
C162 C163 1.327 . S
C163 H157 0.950 . S
C163 C162 1.327 . S
C163 C167 1.429 . S
C164 C147 1.574 . S
C164 H158 0.949 . S
C164 C168 1.368 . S
C165 C146 1.429 . S
C165 C159 1.429 . S
C165 C166 1.523 . S
C166 C147 1.368 . S
C166 C160 1.368 . S
C166 C165 1.523 . S
C167 C151 1.429 . S
C167 C163 1.429 . S
C167 C168 1.523 . S
C168 C152 1.368 . S
C168 C164 1.368 . S
C168 C167 1.523 . S
H169 C144 0.950 . S
H170 C146 0.950 . S
H171 C147 0.949 . S
H172 C149 0.950 . S
H173 C151 0.950 . S
C174 C175 1.349 . S
C174 C176 1.327 . S
C174 H199 0.950 . S
C175 C174 1.349 . S
C175 C191 1.349 . S
C176 C174 1.327 . S
C176 C195 1.429 . S
C176 H200 0.950 . S
C177 C194 1.574 . S
C177 C196 1.368 . S
C177 H201 0.949 . S
H178 C182 0.949 . S
C179 C180 1.349 . S
C179 C181 1.327 . S
C179 H202 0.950 . S
C180 C179 1.349 . S
C180 C192 1.349 . S
C181 C179 1.327 . S
C181 C197 1.429 . S
C181 H203 0.950 . S
C182 H178 0.949 . S
C182 C190 1.574 1_455 S
C182 C198 1.368 . S
H183 C191 0.950 . S
H184 C189 0.950 . S
H185 C190 0.945 . S
H186 C192 0.950 . S
H187 C193 0.950 . S
H188 C194 0.949 . S
C189 H184 0.950 . S
C189 C191 1.327 . S
C189 C195 1.429 . S
C190 C182 1.574 1_655 S
C190 H185 0.945 . S
C190 C196 1.368 . S
C191 C175 1.349 . S
C191 H183 0.950 . S
C191 C189 1.327 . S
C192 C180 1.349 . S
C192 H186 0.950 . S
C192 C193 1.327 . S
C193 H187 0.950 . S
C193 C192 1.327 . S
C193 C197 1.429 . S
C194 C177 1.574 . S
C194 H188 0.949 . S
C194 C198 1.368 1_655 S
C195 C176 1.429 . S
C195 C189 1.429 . S
C195 C196 1.523 . S
C196 C177 1.368 . S
C196 C190 1.368 . S
C196 C195 1.523 . S
C197 C181 1.429 . S
C197 C193 1.429 . S
C197 C198 1.523 . S
C198 C182 1.368 . S
C198 C194 1.368 1_455 S
C198 C197 1.523 . S
H199 C174 0.950 . S
H200 C176 0.950 . S
H201 C177 0.949 . S
H202 C179 0.950 . S
H203 C181 0.950 . S
C204 C205 1.349 . S
C204 C206 1.327 . S
C204 H229 0.950 . S
C205 C204 1.349 . S
C205 C221 1.349 . S
C206 C204 1.327 . S
C206 C225 1.429 . S
C206 H230 0.950 . S
C207 C224 1.574 . S
C207 C226 1.368 . S
C207 H231 0.949 . S
H208 C212 0.949 . S
C209 C210 1.349 . S
C209 C211 1.327 . S
C209 H232 0.950 . S
C210 C209 1.349 . S
C210 C222 1.349 . S
C211 C209 1.327 . S
C211 C227 1.429 . S
C211 H233 0.950 . S
C212 H208 0.949 . S
C212 C220 1.574 . S
C212 C228 1.368 . S
H213 C221 0.950 . S
H214 C219 0.950 . S
H215 C220 0.949 . S
H216 C222 0.950 . S
H217 C223 0.950 . S
H218 C224 0.949 . S
C219 H214 0.950 . S
C219 C221 1.327 . S
C219 C225 1.429 . S
C220 C212 1.574 . S
C220 H215 0.949 . S
C220 C226 1.368 1_565 S
C221 C205 1.349 . S
C221 H213 0.950 . S
C221 C219 1.327 . S
C222 C210 1.349 . S
C222 H216 0.950 . S
C222 C223 1.327 . S
C223 H217 0.950 . S
C223 C222 1.327 . S
C223 C227 1.429 . S
C224 C207 1.574 . S
C224 H218 0.949 . S
C224 C228 1.368 1_545 S
C225 C206 1.429 . S
C225 C219 1.429 . S
C225 C226 1.523 . S
C226 C207 1.368 . S
C226 C220 1.368 1_545 S
C226 C225 1.523 . S
C227 C211 1.429 . S
C227 C223 1.429 . S
C227 C228 1.523 . S
C228 C212 1.368 . S
C228 C224 1.368 1_565 S
C228 C227 1.523 . S
H229 C204 0.950 . S
H230 C206 0.950 . S
H231 C207 0.949 . S
H232 C209 0.950 . S
H233 C211 0.950 . S
C234 C235 1.349 . S
C234 C236 1.327 . S
C234 H259 0.950 . S
C235 C234 1.349 . S
C235 C251 1.349 . S
C236 C234 1.327 . S
C236 C255 1.429 . S
C236 H260 0.950 . S
C237 C254 1.574 . S
C237 C256 1.368 . S
C237 H261 0.949 . S
H238 C242 0.949 . S
C239 C240 1.349 . S
C239 C241 1.327 . S
C239 H262 0.950 . S
C240 C239 1.349 . S
C240 C252 1.349 . S
C241 C239 1.327 . S
C241 C257 1.429 . S
C241 H263 0.950 . S
C242 H238 0.949 . S
C242 C250 1.574 . S
C242 C258 1.368 . S
H243 C251 0.950 . S
H244 C249 0.950 . S
H245 C250 0.949 . S
H246 C252 0.950 . S
H247 C253 0.950 . S
H248 C254 0.949 . S
C249 H244 0.950 . S
C249 C251 1.327 . S
C249 C255 1.429 . S
C250 C242 1.574 . S
C250 H245 0.949 . S
C250 C256 1.368 . S
C251 C235 1.349 . S
C251 H243 0.950 . S
C251 C249 1.327 . S
C252 C240 1.349 . S
C252 H246 0.950 . S
C252 C253 1.327 . S
C253 H247 0.950 . S
C253 C252 1.327 . S
C253 C257 1.429 . S
C254 C237 1.574 . S
C254 H248 0.949 . S
C254 C258 1.368 . S
C255 C236 1.429 . S
C255 C249 1.429 . S
C255 C256 1.523 . S
C256 C237 1.368 . S
C256 C250 1.368 . S
C256 C255 1.523 . S
C257 C241 1.429 . S
C257 C253 1.429 . S
C257 C258 1.523 . S
C258 C242 1.368 . S
C258 C254 1.368 . S
C258 C257 1.523 . S
H259 C234 0.950 . S
H260 C236 0.950 . S
H261 C237 0.949 . S
H262 C239 0.950 . S
H263 C241 0.950 . S
C264 C265 1.349 . S
C264 C266 1.327 . S
C264 H289 0.950 . S
C265 C264 1.349 . S
C265 C281 1.349 . S
C266 C264 1.327 . S
C266 C285 1.429 . S
C266 H290 0.950 . S
C267 C284 1.574 . S
C267 C286 1.368 . S
C267 H291 0.949 . S
H268 C272 0.949 . S
C269 C270 1.349 . S
C269 C271 1.327 . S
C269 H292 0.950 . S
C270 C269 1.349 . S
C270 C282 1.349 . S
C271 C269 1.327 . S
C271 C287 1.429 . S
C271 H293 0.950 . S
C272 H268 0.949 . S
C272 C280 1.574 . S
C272 C288 1.368 . S
H273 C281 0.950 . S
H274 C279 0.950 . S
H275 C280 0.949 . S
H276 C282 0.950 . S
H277 C283 0.950 . S
H278 C284 0.949 . S
C279 H274 0.950 . S
C279 C281 1.327 . S
C279 C285 1.429 . S
C280 C272 1.574 . S
C280 H275 0.949 . S
C280 C286 1.368 . S
C281 C265 1.349 . S
C281 H273 0.950 . S
C281 C279 1.327 . S
C282 C270 1.349 . S
C282 H276 0.950 . S
C282 C283 1.327 . S
C283 H277 0.950 . S
C283 C282 1.327 . S
C283 C287 1.429 . S
C284 C267 1.574 . S
C284 H278 0.949 . S
C284 C288 1.368 . S
C285 C266 1.429 . S
C285 C279 1.429 . S
C285 C286 1.523 . S
C286 C267 1.368 . S
C286 C280 1.368 . S
C286 C285 1.523 . S
C287 C271 1.429 . S
C287 C283 1.429 . S
C287 C288 1.523 . S
C288 C272 1.368 . S
C288 C284 1.368 . S
C288 C287 1.523 . S
H289 C264 0.950 . S
H290 C266 0.950 . S
H291 C267 0.949 . S
H292 C269 0.950 . S
H293 C271 0.950 . S
C294 C295 1.349 . S
C294 C296 1.327 . S
C294 H319 0.950 . S
C295 C294 1.349 . S
C295 C311 1.349 . S
C296 C294 1.327 . S
C296 C315 1.429 . S
C296 H320 0.950 . S
C297 C314 1.574 . S
C297 C316 1.368 . S
C297 H321 0.949 . S
H298 C302 0.949 . S
C299 C300 1.349 . S
C299 C301 1.327 . S
C299 H322 0.950 . S
C300 C299 1.349 . S
C300 C312 1.349 . S
C301 C299 1.327 . S
C301 C317 1.429 . S
C301 H323 0.950 . S
C302 H298 0.949 . S
C302 C310 1.574 . S
C302 C318 1.368 . S
H303 C311 0.950 . S
H304 C309 0.950 . S
H305 C310 0.949 . S
H306 C312 0.950 . S
H307 C313 0.950 . S
H308 C314 0.949 . S
C309 H304 0.950 . S
C309 C311 1.327 . S
C309 C315 1.429 . S
C310 C302 1.574 . S
C310 H305 0.949 . S
C310 C316 1.368 . S
C311 C295 1.349 . S
C311 H303 0.950 . S
C311 C309 1.327 . S
C312 C300 1.349 . S
C312 H306 0.950 . S
C312 C313 1.327 . S
C313 H307 0.950 . S
C313 C312 1.327 . S
C313 C317 1.429 . S
C314 C297 1.574 . S
C314 H308 0.949 . S
C314 C318 1.368 . S
C315 C296 1.429 . S
C315 C309 1.429 . S
C315 C316 1.523 . S
C316 C297 1.368 . S
C316 C310 1.368 . S
C316 C315 1.523 . S
C317 C301 1.429 . S
C317 C313 1.429 . S
C317 C318 1.523 . S
C318 C302 1.368 . S
C318 C314 1.368 . S
C318 C317 1.523 . S
H319 C294 0.950 . S
H320 C296 0.950 . S
H321 C297 0.949 . S
H322 C299 0.950 . S
H323 C301 0.950 . S
C324 C325 1.349 . S
C324 C326 1.327 . S
C324 H349 0.950 . S
C325 C324 1.349 . S
C325 C341 1.349 . S
C326 C324 1.327 . S
C326 C345 1.429 . S
C326 H350 0.950 . S
C327 C344 1.574 . S
C327 C346 1.368 . S
C327 H351 0.949 . S
H328 C332 0.949 . S
C329 C330 1.349 . S
C329 C331 1.327 . S
C329 H352 0.950 . S
C330 C329 1.349 . S
C330 C342 1.349 . S
C331 C329 1.327 . S
C331 C347 1.429 . S
C331 H353 0.950 . S
C332 H328 0.949 . S
C332 C340 1.574 . S
C332 C348 1.368 . S
H333 C341 0.950 . S
H334 C339 0.950 . S
H335 C340 0.949 . S
H336 C342 0.950 . S
H337 C343 0.950 . S
H338 C344 0.949 . S
C339 H334 0.950 . S
C339 C341 1.327 . S
C339 C345 1.429 . S
C340 C332 1.574 . S
C340 H335 0.949 . S
C340 C346 1.368 . S
C341 C325 1.349 . S
C341 H333 0.950 . S
C341 C339 1.327 . S
C342 C330 1.349 . S
C342 H336 0.950 . S
C342 C343 1.327 . S
C343 H337 0.950 . S
C343 C342 1.327 . S
C343 C347 1.429 . S
C344 C327 1.574 . S
C344 H338 0.949 . S
C344 C348 1.368 . S
C345 C326 1.429 . S
C345 C339 1.429 . S
C345 C346 1.523 . S
C346 C327 1.368 . S
C346 C340 1.368 . S
C346 C345 1.523 . S
C347 C331 1.429 . S
C347 C343 1.429 . S
C347 C348 1.523 . S
C348 C332 1.368 . S
C348 C344 1.368 . S
C348 C347 1.523 . S
H349 C324 0.950 . S
H350 C326 0.950 . S
H351 C327 0.949 . S
H352 C329 0.950 . S
H353 C331 0.950 . S
C354 C355 1.349 . S
C354 C356 1.327 . S
C354 H379 0.950 . S
C355 C354 1.349 . S
C355 C371 1.349 . S
C356 C354 1.327 . S
C356 C375 1.429 . S
C356 H380 0.950 . S
C357 C374 1.574 . S
C357 C376 1.368 . S
C357 H381 0.949 . S
H358 C362 0.949 . S
C359 C360 1.349 . S
C359 C361 1.327 . S
C359 H382 0.950 . S
C360 C359 1.349 . S
C360 C372 1.349 . S
C361 C359 1.327 . S
C361 C377 1.429 . S
C361 H383 0.950 . S
C362 H358 0.949 . S
C362 C370 1.574 . S
C362 C378 1.368 . S
H363 C371 0.950 . S
H364 C369 0.950 . S
H365 C370 0.949 . S
H366 C372 0.950 . S
H367 C373 0.950 . S
H368 C374 0.949 . S
C369 H364 0.950 . S
C369 C371 1.327 . S
C369 C375 1.429 . S
C370 C362 1.574 . S
C370 H365 0.949 . S
C370 C376 1.368 . S
C371 C355 1.349 . S
C371 H363 0.950 . S
C371 C369 1.327 . S
C372 C360 1.349 . S
C372 H366 0.950 . S
C372 C373 1.327 . S
C373 H367 0.950 . S
C373 C372 1.327 . S
C373 C377 1.429 . S
C374 C357 1.574 . S
C374 H368 0.949 . S
C374 C378 1.368 . S
C375 C356 1.429 . S
C375 C369 1.429 . S
C375 C376 1.523 . S
C376 C357 1.368 . S
C376 C370 1.368 . S
C376 C375 1.523 . S
C377 C361 1.429 . S
C377 C373 1.429 . S
C377 C378 1.523 . S
C378 C362 1.368 . S
C378 C374 1.368 . S
C378 C377 1.523 . S
H379 C354 0.950 . S
H380 C356 0.950 . S
H381 C357 0.949 . S
H382 C359 0.950 . S
H383 C361 0.950 . S
C384 C385 1.349 . S
C384 C386 1.327 . S
C384 H409 0.950 . S
C385 C384 1.349 . S
C385 C401 1.349 . S
C386 C384 1.327 . S
C386 C405 1.429 . S
C386 H410 0.950 . S
C387 C404 1.574 . S
C387 C406 1.368 . S
C387 H411 0.949 . S
H388 C392 0.949 . S
C389 C390 1.349 . S
C389 C391 1.327 . S
C389 H412 0.950 . S
C390 C389 1.349 . S
C390 C402 1.349 1_554 S
C391 C389 1.327 . S
C391 C407 1.429 1_554 S
C391 H413 0.950 . S
C392 H388 0.949 . S
C392 C400 1.574 . S
C392 C408 1.368 . S
H393 C401 0.950 . S
H394 C399 0.950 . S
H395 C400 0.949 . S
H396 C402 0.950 . S
H397 C403 0.950 . S
H398 C404 0.949 . S
C399 H394 0.950 . S
C399 C401 1.327 . S
C399 C405 1.429 . S
C400 C392 1.574 . S
C400 H395 0.949 . S
C400 C406 1.368 . S
C401 C385 1.349 . S
C401 H393 0.950 . S
C401 C399 1.327 . S
C402 C390 1.349 1_556 S
C402 H396 0.950 . S
C402 C403 1.327 . S
C403 H397 0.950 . S
C403 C402 1.327 . S
C403 C407 1.429 . S
C404 C387 1.574 . S
C404 H398 0.949 . S
C404 C408 1.368 . S
C405 C386 1.429 . S
C405 C399 1.429 . S
C405 C406 1.523 . S
C406 C387 1.368 . S
C406 C400 1.368 . S
C406 C405 1.523 . S
C407 C391 1.429 1_556 S
C407 C403 1.429 . S
C407 C408 1.523 . S
C408 C392 1.368 . S
C408 C404 1.368 . S
C408 C407 1.523 . S
H409 C384 0.950 . S
H410 C386 0.950 . S
H411 C387 0.949 . S
H412 C389 0.950 . S
H413 C391 0.950 . S
C414 C415 1.349 . S
C414 C416 1.327 . S
C414 H439 0.950 . S
C415 C414 1.349 . S
C415 C431 1.349 1_556 S
C416 C414 1.327 . S
C416 C435 1.429 1_556 S
C416 H440 0.950 . S
C417 C434 1.574 . S
C417 C436 1.368 . S
C417 H441 0.949 . S
H418 C422 0.949 . S
C419 C420 1.349 . S
C419 C421 1.327 . S
C419 H442 0.950 . S
C420 C419 1.349 . S
C420 C432 1.349 . S
C421 C419 1.327 . S
C421 C437 1.429 . S
C421 H443 0.950 . S
C422 H418 0.949 . S
C422 C430 1.574 . S
C422 C438 1.368 . S
H423 C431 0.950 . S
H424 C429 0.950 . S
H425 C430 0.949 . S
H426 C432 0.950 . S
H427 C433 0.950 . S
H428 C434 0.949 . S
C429 H424 0.950 . S
C429 C431 1.327 . S
C429 C435 1.429 . S
C430 C422 1.574 . S
C430 H425 0.949 . S
C430 C436 1.368 . S
C431 C415 1.349 1_554 S
C431 H423 0.950 . S
C431 C429 1.327 . S
C432 C420 1.349 . S
C432 H426 0.950 . S
C432 C433 1.327 . S
C433 H427 0.950 . S
C433 C432 1.327 . S
C433 C437 1.429 . S
C434 C417 1.574 . S
C434 H428 0.949 . S
C434 C438 1.368 . S
C435 C416 1.429 1_554 S
C435 C429 1.429 . S
C435 C436 1.523 . S
C436 C417 1.368 . S
C436 C430 1.368 . S
C436 C435 1.523 . S
C437 C421 1.429 . S
C437 C433 1.429 . S
C437 C438 1.523 . S
C438 C422 1.368 . S
C438 C434 1.368 . S
C438 C437 1.523 . S
H439 C414 0.950 . S
H440 C416 0.950 . S
H441 C417 0.949 . S
H442 C419 0.950 . S
H443 C421 0.950 . S
C85 C7 1.250 1_556 S
C90 C50 1.263 . S
C115 C64 1.263 . S
C120 C21 1.250 . S
C145 C35 1.250 . S
C150 C78 1.263 1_554 S
C175 C49 1.250 . S
C180 C8 1.263 . S
C205 C22 1.263 . S
C210 C63 1.250 . S
C235 C77 1.250 . S
C240 C36 1.263 . S
C265 C3 1.155 . S
C270 C37 1.137 . S
C295 C17 1.155 . S
C300 C51 1.137 . S
C325 C65 1.137 . S
C330 C31 1.155 . S
C355 C79 1.137 . S
C360 C45 1.155 . S
C385 C59 1.155 . S
C390 C9 1.137 . S
C415 C73 1.155 . S
C420 C23 1.137 . S
