# Generated by pormake.
# Topology wka, (5)-cn, num edge types: 1
# Building blocks:
#     Node 0, Type 0, BuildingBlock: BEQFEK_clean_sbu_0, # of connection points: 5
#     Node 1, Type 0, BuildingBlock: BEQFEK_clean_sbu_0, # of connection points: 5
#     Node 2, Type 0, BuildingBlock: BEQFEK_clean_sbu_0, # of connection points: 5
#     Node 3, Type 0, BuildingBlock: BEQFEK_clean_sbu_0, # of connection points: 5
#     Node 4, Type 0, BuildingBlock: BEQFEK_clean_sbu_0, # of connection points: 5
#     Node 5, Type 0, BuildingBlock: BEQFEK_clean_sbu_0, # of connection points: 5
#     Node 6, Type 0, BuildingBlock: BEQFEK_clean_sbu_0, # of connection points: 5
#     Node 7, Type 0, BuildingBlock: BEQFEK_clean_sbu_0, # of connection points: 5
#     Node 8, Type 0, BuildingBlock: BEQFEK_clean_sbu_0, # of connection points: 5
#     Node 9, Type 0, BuildingBlock: BEQFEK_clean_sbu_0, # of connection points: 5
#     Node 10, Type 0, BuildingBlock: BEQFEK_clean_sbu_0, # of connection points: 5
#     Node 11, Type 0, BuildingBlock: BEQFEK_clean_sbu_0, # of connection points: 5
#     Edge 12, Type (0, 0), BuildingBlock: AJUNOK_clean_linker_0, # of connection points: 2
#     Edge 13, Type (0, 0), BuildingBlock: AJUNOK_clean_linker_0, # of connection points: 2
#     Edge 14, Type (0, 0), BuildingBlock: AJUNOK_clean_linker_0, # of connection points: 2
#     Edge 15, Type (0, 0), BuildingBlock: AJUNOK_clean_linker_0, # of connection points: 2
#     Edge 16, Type (0, 0), BuildingBlock: AJUNOK_clean_linker_0, # of connection points: 2
#     Edge 17, Type (0, 0), BuildingBlock: AJUNOK_clean_linker_0, # of connection points: 2
#     Edge 18, Type (0, 0), BuildingBlock: AJUNOK_clean_linker_0, # of connection points: 2
#     Edge 19, Type (0, 0), BuildingBlock: AJUNOK_clean_linker_0, # of connection points: 2
#     Edge 20, Type (0, 0), BuildingBlock: AJUNOK_clean_linker_0, # of connection points: 2
#     Edge 21, Type (0, 0), BuildingBlock: AJUNOK_clean_linker_0, # of connection points: 2
#     Edge 22, Type (0, 0), BuildingBlock: AJUNOK_clean_linker_0, # of connection points: 2
#     Edge 23, Type (0, 0), BuildingBlock: AJUNOK_clean_linker_0, # of connection points: 2
#     Edge 24, Type (0, 0), BuildingBlock: AJUNOK_clean_linker_0, # of connection points: 2
#     Edge 25, Type (0, 0), BuildingBlock: AJUNOK_clean_linker_0, # of connection points: 2
#     Edge 26, Type (0, 0), BuildingBlock: AJUNOK_clean_linker_0, # of connection points: 2
#     Edge 27, Type (0, 0), BuildingBlock: AJUNOK_clean_linker_0, # of connection points: 2
#     Edge 28, Type (0, 0), BuildingBlock: AJUNOK_clean_linker_0, # of connection points: 2
#     Edge 29, Type (0, 0), BuildingBlock: AJUNOK_clean_linker_0, # of connection points: 2
#     Edge 30, Type (0, 0), BuildingBlock: AJUNOK_clean_linker_0, # of connection points: 2
#     Edge 31, Type (0, 0), BuildingBlock: AJUNOK_clean_linker_0, # of connection points: 2
#     Edge 32, Type (0, 0), BuildingBlock: AJUNOK_clean_linker_0, # of connection points: 2
#     Edge 33, Type (0, 0), BuildingBlock: AJUNOK_clean_linker_0, # of connection points: 2
#     Edge 34, Type (0, 0), BuildingBlock: AJUNOK_clean_linker_0, # of connection points: 2
#     Edge 35, Type (0, 0), BuildingBlock: AJUNOK_clean_linker_0, # of connection points: 2
#     Edge 36, Type (0, 0), BuildingBlock: AJUNOK_clean_linker_0, # of connection points: 2
#     Edge 37, Type (0, 0), BuildingBlock: AJUNOK_clean_linker_0, # of connection points: 2
#     Edge 38, Type (0, 0), BuildingBlock: AJUNOK_clean_linker_0, # of connection points: 2
#     Edge 39, Type (0, 0), BuildingBlock: AJUNOK_clean_linker_0, # of connection points: 2
#     Edge 40, Type (0, 0), BuildingBlock: AJUNOK_clean_linker_0, # of connection points: 2
#     Edge 41, Type (0, 0), BuildingBlock: AJUNOK_clean_linker_0, # of connection points: 2
# Relax obj value: 0.438
# Max RMSD: 0.252
# Mean RMSD: 0.252
data_MOF--net-wka--node1-BEQFEK_clean_sbu_0--edge1-AJUNOK_clean_linker_0
_symmetry_space_group_name_H-M    P1
_symmetry_Int_Tables_number       1
_symmetry_cell_setting            triclinic
loop_
_symmetry_equiv_pos_as_xyz
'x, y, z'
_cell_length_a     50.396065
_cell_length_b     50.340705
_cell_length_c     14.097091
_cell_angle_alpha  89.98363
_cell_angle_beta   90.017296
_cell_angle_gamma 120.01424
loop_
_atom_site_label
_atom_site_type_symbol
_atom_site_fract_x
_atom_site_fract_y
_atom_site_fract_z
_atom_type_partial_charge
Co0 Co 0.12557 0.45893 0.94097 0.0
Co1 Co 0.08731 0.43522 0.1263 0.0
C2 C 0.05592 0.40816 0.95384 0.0
O3 O 0.08139 0.42705 0.91547 0.0
O4 O 0.05303 0.40644 0.04393 0.0
C5 C 0.13358 0.43636 0.77407 0.0
O6 O 0.12452 0.4112 0.82375 0.0
C7 C 0.07127 0.41671 0.33273 0.0
C8 C 0.08689 0.46311 0.38899 0.0
C9 C 0.07737 0.43343 0.41677 0.0
N10 N 0.07832 0.43627 0.25903 0.0
N11 N 0.08653 0.46367 0.29435 0.0
C12 C 0.05532 0.38252 0.32337 0.0
H13 H 0.05218 0.37568 0.24753 0.0
H14 H 0.06803 0.37298 0.36071 0.0
H15 H 0.03249 0.37247 0.35775 0.0
C16 C 0.17089 0.45296 0.06108 0.0
N17 N 0.14243 0.4476 0.04165 0.0
N18 N 0.12404 0.43243 0.11216 0.0
C19 C 0.13962 0.42511 0.17461 0.0
C20 C 0.17038 0.43921 0.14779 0.0
C21 C 0.19813 0.4733 0.00133 0.0
H22 H 0.19312 0.48826 0.95579 0.0
H23 H 0.20351 0.45889 0.95459 0.0
H24 H 0.21839 0.48765 0.04654 0.0
O25 O 0.12877 0.49847 0.9705 0.0
O26 O 0.09625 0.47731 0.08916 0.0
H27 H 0.12006 0.40973 0.31077 0.0
H28 H 0.13845 0.38971 0.26416 0.0
C29 C 0.12419 0.40012 0.24605 0.0
H30 H 0.10196 0.382 0.2174 0.0
H31 H 0.09412 0.48364 0.25479 0.0
O32 O 0.14491 0.46177 0.81791 0.0
C33 C 0.11243 0.50017 0.03592 0.0
Co34 Co 0.66828 0.12235 0.11639 0.0
Co35 Co 0.65185 0.08716 0.30779 0.0
C36 C 0.64984 0.05477 0.13122 0.0
O37 O 0.6565 0.07936 0.08756 0.0
O38 O 0.64808 0.05356 0.22154 0.0
C39 C 0.70015 0.13168 0.95191 0.0
O40 O 0.71593 0.12298 0.00461 0.0
C41 C 0.6615 0.07159 0.50282 0.0
C42 C 0.62306 0.07297 0.57254 0.0
C43 C 0.64992 0.0727 0.59233 0.0
N44 N 0.64336 0.07349 0.43614 0.0
N45 N 0.61976 0.0729 0.47852 0.0
C46 C 0.6867 0.06519 0.47861 0.0
H47 H 0.67993 0.04996 0.41555 0.0
H48 H 0.70777 0.08666 0.45873 0.0
H49 H 0.69139 0.05384 0.53858 0.0
C50 C 0.72387 0.16642 0.22291 0.0
N51 N 0.69769 0.1392 0.2148 0.0
N52 N 0.68974 0.12591 0.29859 0.0
C53 C 0.70976 0.14544 0.3635 0.0
C54 C 0.73268 0.17092 0.3175 0.0
C55 C 0.73877 0.18835 0.14248 0.0
H56 H 0.74665 0.17772 0.08891 0.0
H57 H 0.75872 0.21023 0.16631 0.0
H58 H 0.72171 0.19295 0.10776 0.0
O59 O 0.63061 0.12464 0.15007 0.0
O60 O 0.61836 0.09482 0.27692 0.0
H61 H 0.71291 0.16789 0.4967 0.0
H62 H 0.71522 0.13387 0.50414 0.0
C63 C 0.7035 0.14439 0.46745 0.0
H64 H 0.67859 0.13151 0.4817 0.0
H65 H 0.60262 0.07499 0.44387 0.0
O66 O 0.68424 0.14149 0.9929 0.0
C67 C 0.61232 0.11012 0.21804 0.0
Co68 Co 0.54548 0.66855 0.28187 0.0
Co69 Co 0.56606 0.65189 0.4691 0.0
C70 C 0.591 0.64426 0.29646 0.0
O71 O 0.57234 0.65111 0.25886 0.0
O72 O 0.59562 0.64671 0.38588 0.0
C73 C 0.57208 0.69846 0.11711 0.0
O74 O 0.59655 0.71217 0.17111 0.0
C75 C 0.58653 0.65323 0.67049 0.0
C76 C 0.54038 0.62513 0.732 0.0
C77 C 0.57071 0.64427 0.75681 0.0
N78 N 0.56581 0.64126 0.59958 0.0
N79 N 0.53856 0.62356 0.6376 0.0
C80 C 0.62047 0.66901 0.65492 0.0
H81 H 0.62563 0.65504 0.6054 0.0
H82 H 0.62885 0.69155 0.62024 0.0
H83 H 0.63293 0.67181 0.72246 0.0
C84 C 0.55881 0.72419 0.3883 0.0
N85 N 0.56004 0.69818 0.37872 0.0
N86 N 0.56801 0.69126 0.45993 0.0
C87 C 0.57149 0.71269 0.5244 0.0
C88 C 0.56602 0.73423 0.48121 0.0
C89 C 0.54745 0.73689 0.31279 0.0
H90 H 0.52637 0.71802 0.28027 0.0
H91 H 0.56503 0.74717 0.25617 0.0
H92 H 0.54275 0.75467 0.3414 0.0
O93 O 0.50451 0.63393 0.31471 0.0
O94 O 0.52456 0.61934 0.42932 0.0
H95 H 0.55962 0.68995 0.65857 0.0
H96 H 0.57853 0.73116 0.66722 0.0
C97 C 0.57767 0.71174 0.62743 0.0
H98 H 0.60016 0.71333 0.63463 0.0
H99 H 0.51809 0.6122 0.5998 0.0
O100 O 0.54584 0.68546 0.15651 0.0
C101 C 0.50216 0.61439 0.37628 0.0
Co102 Co 0.88112 0.55068 0.44288 0.0
Co103 Co 0.91551 0.56584 0.63696 0.0
C104 C 0.94881 0.5982 0.46221 0.0
O105 O 0.92397 0.58227 0.41746 0.0
O106 O 0.94997 0.59531 0.55183 0.0
C107 C 0.87267 0.57238 0.27376 0.0
O108 O 0.88174 0.59796 0.32108 0.0
C109 C 0.93402 0.58916 0.83434 0.0
C110 C 0.92852 0.5468 0.89896 0.0
C111 C 0.93245 0.5753 0.92171 0.0
N112 N 0.92912 0.56875 0.76517 0.0
N113 N 0.92736 0.54413 0.80452 0.0
C114 C 0.94313 0.62192 0.81526 0.0
H115 H 0.92852 0.62334 0.75896 0.0
H116 H 0.94299 0.6342 0.88026 0.0
H117 H 0.96686 0.63378 0.78696 0.0
C118 C 0.83708 0.56076 0.55342 0.0
N119 N 0.86428 0.56191 0.54465 0.0
N120 N 0.87777 0.56724 0.62826 0.0
C121 C 0.85861 0.56834 0.69339 0.0
C122 C 0.8326 0.56477 0.64808 0.0
C123 C 0.8146 0.55275 0.4742 0.0
H124 H 0.81144 0.53186 0.43753 0.0
H125 H 0.82397 0.57171 0.42173 0.0
H126 H 0.79215 0.54887 0.50025 0.0
O127 O 0.87858 0.51051 0.46942 0.0
O128 O 0.90482 0.52367 0.60373 0.0
H129 H 0.87271 0.55543 0.82028 0.0
H130 H 0.84238 0.56383 0.83856 0.0
C131 C 0.86361 0.57044 0.79815 0.0
H132 H 0.87989 0.59456 0.81615 0.0
H133 H 0.92308 0.52442 0.76776 0.0
O134 O 0.86143 0.54738 0.31987 0.0
C135 C 0.89007 0.50397 0.53988 0.0
Co136 Co 0.33488 0.88112 0.62096 0.0
Co137 Co 0.3523 0.91673 0.81166 0.0
C138 C 0.35443 0.94881 0.63274 0.0
O139 O 0.34692 0.92395 0.58962 0.0
O140 O 0.35685 0.95027 0.72292 0.0
C141 C 0.3029 0.87106 0.45589 0.0
O142 O 0.28712 0.88 0.50766 0.0
C143 C 0.34114 0.93139 0.00554 0.0
C144 C 0.38093 0.93301 0.07621 0.0
C145 C 0.3529 0.93092 0.09552 0.0
N146 N 0.36033 0.93122 0.93935 0.0
N147 N 0.38468 0.93367 0.98228 0.0
C148 C 0.31464 0.93563 0.98012 0.0
H149 H 0.32019 0.94973 0.91473 0.0
H150 H 0.2941 0.91328 0.9637 0.0
H151 H 0.3096 0.94734 0.03817 0.0
C152 C 0.27957 0.83758 0.72972 0.0
N153 N 0.30557 0.86489 0.72005 0.0
N154 N 0.31417 0.87823 0.80362 0.0
C155 C 0.29496 0.85857 0.86985 0.0
C156 C 0.27167 0.83306 0.82507 0.0
C157 C 0.2644 0.81528 0.65035 0.0
H158 H 0.25687 0.82587 0.59551 0.0
H159 H 0.24421 0.79373 0.67512 0.0
H160 H 0.2812 0.81006 0.61688 0.0
O161 O 0.37229 0.87848 0.65619 0.0
O162 O 0.38512 0.90766 0.78458 0.0
H163 H 0.29509 0.83531 0.99809 0.0
H164 H 0.29093 0.86798 0.01486 0.0
C165 C 0.30297 0.85894 0.97225 0.0
H166 H 0.32803 0.87268 0.98315 0.0
H167 H 0.4027 0.93312 0.94795 0.0
O168 O 0.31882 0.86144 0.49794 0.0
C169 C 0.39045 0.89183 0.72559 0.0
Co170 Co 0.45726 0.3359 0.79285 0.0
Co171 Co 0.44008 0.35533 0.98363 0.0
C172 C 0.41563 0.36343 0.80277 0.0
O173 O 0.43225 0.35417 0.76533 0.0
O174 O 0.41304 0.36318 0.8928 0.0
C175 C 0.42911 0.30574 0.63032 0.0
O176 O 0.40575 0.29519 0.68893 0.0
C177 C 0.41466 0.34574 0.1785 0.0
C178 C 0.45351 0.38539 0.24762 0.0
C179 C 0.42731 0.3577 0.26682 0.0
N180 N 0.43379 0.36449 0.111 0.0
N181 N 0.45597 0.38898 0.15316 0.0
C182 C 0.38616 0.31587 0.15865 0.0
H183 H 0.38744 0.30685 0.08807 0.0
H184 H 0.38168 0.29881 0.21522 0.0
H185 H 0.36646 0.31995 0.15754 0.0
C186 C 0.44112 0.27974 0.89988 0.0
N187 N 0.44098 0.30634 0.89131 0.0
N188 N 0.43761 0.31559 0.97562 0.0
C189 C 0.43831 0.29626 0.04135 0.0
C190 C 0.43927 0.27236 0.99532 0.0
C191 C 0.4478 0.26452 0.81968 0.0
H192 H 0.46912 0.28156 0.78329 0.0
H193 H 0.42889 0.25615 0.76724 0.0
H194 H 0.45033 0.24498 0.84455 0.0
O195 O 0.49859 0.3703 0.82995 0.0
O196 O 0.48367 0.38529 0.95803 0.0
H197 H 0.46007 0.29592 0.17357 0.0
H198 H 0.42294 0.29107 0.18541 0.0
C199 C 0.44455 0.3035 0.14483 0.0
H200 H 0.45577 0.32851 0.15662 0.0
H201 H 0.47456 0.40673 0.11777 0.0
O202 O 0.45603 0.3187 0.66562 0.0
C203 C 0.5045 0.38843 0.90035 0.0
Co204 Co 0.54884 0.88006 0.8914 0.0
Co205 Co 0.5656 0.91704 0.70136 0.0
C206 C 0.59336 0.94867 0.88128 0.0
O207 O 0.57567 0.92325 0.92027 0.0
O208 O 0.59495 0.95081 0.79101 0.0
C209 C 0.57587 0.87695 0.05517 0.0
O210 O 0.59973 0.88957 0.9984 0.0
C211 C 0.58969 0.93188 0.50501 0.0
C212 C 0.55106 0.93371 0.43835 0.0
C213 C 0.57675 0.93153 0.41748 0.0
N214 N 0.57131 0.93227 0.57374 0.0
N215 N 0.54921 0.93504 0.53301 0.0
C216 C 0.61754 0.92918 0.52301 0.0
H217 H 0.61686 0.92004 0.5951 0.0
H218 H 0.62019 0.91486 0.46824 0.0
H219 H 0.63803 0.95243 0.51871 0.0
C220 C 0.56367 0.83953 0.77862 0.0
N221 N 0.56366 0.86613 0.79005 0.0
N222 N 0.56658 0.87916 0.70665 0.0
C223 C 0.56576 0.8597 0.63897 0.0
C224 C 0.56533 0.83475 0.68216 0.0
C225 C 0.55995 0.81831 0.85829 0.0
H226 H 0.53566 0.80609 0.8816 0.0
H227 H 0.57415 0.83166 0.91949 0.0
H228 H 0.56666 0.80131 0.83638 0.0
O229 O 0.50793 0.87492 0.85779 0.0
O230 O 0.52302 0.90598 0.73212 0.0
H231 H 0.53937 0.83561 0.51581 0.0
H232 H 0.57594 0.86772 0.49035 0.0
C233 C 0.55599 0.85941 0.53834 0.0
H234 H 0.5447 0.87331 0.53066 0.0
H235 H 0.53097 0.93454 0.56953 0.0
O236 O 0.54926 0.86308 0.01769 0.0
C237 C 0.50243 0.8885 0.7906 0.0
Co238 Co 0.67195 0.55267 0.05327 0.0
Co239 Co 0.6497 0.56524 0.86027 0.0
C240 C 0.64535 0.59435 0.03971 0.0
O241 O 0.65635 0.58022 0.08382 0.0
O242 O 0.64166 0.59176 0.95002 0.0
C243 C 0.70289 0.57801 0.21866 0.0
O244 O 0.71362 0.60298 0.16671 0.0
C245 C 0.65912 0.58919 0.6646 0.0
C246 C 0.61827 0.55094 0.59815 0.0
C247 C 0.64658 0.57613 0.57731 0.0
N248 N 0.64012 0.57112 0.73334 0.0
N249 N 0.615 0.5493 0.6928 0.0
C250 C 0.68968 0.61711 0.68234 0.0
H251 H 0.69738 0.61745 0.75623 0.0
H252 H 0.70707 0.61882 0.63074 0.0
H253 H 0.68731 0.63768 0.67206 0.0
C254 C 0.72699 0.56746 0.94008 0.0
N255 N 0.70021 0.56708 0.95106 0.0
N256 N 0.6896 0.56879 0.86721 0.0
C257 C 0.70817 0.56765 0.80001 0.0
C258 C 0.73308 0.56832 0.84375 0.0
C259 C 0.74444 0.56372 0.01979 0.0
H260 H 0.74725 0.5797 0.07807 0.0
H261 H 0.76733 0.56821 0.99621 0.0
H262 H 0.73115 0.54 0.04799 0.0
O263 O 0.63603 0.51095 0.02207 0.0
O264 O 0.62046 0.52221 0.88815 0.0
H265 H 0.70486 0.53864 0.68304 0.0
H266 H 0.70969 0.57483 0.64952 0.0
C267 C 0.69811 0.55591 0.70126 0.0
H268 H 0.67291 0.54471 0.69484 0.0
H269 H 0.59702 0.53132 0.72954 0.0
O270 O 0.69014 0.55217 0.17644 0.0
C271 C 0.61759 0.50305 0.95172 0.0
Co272 Co 0.12292 0.66759 0.22267 0.0
Co273 Co 0.08572 0.65001 0.03365 0.0
C274 C 0.05497 0.64698 0.21314 0.0
O275 O 0.07994 0.65271 0.25139 0.0
O276 O 0.05301 0.64777 0.12305 0.0
C277 C 0.12751 0.69829 0.38645 0.0
O278 O 0.11623 0.71074 0.32906 0.0
C279 C 0.0715 0.66006 0.83678 0.0
C280 C 0.06779 0.61866 0.77069 0.0
C281 C 0.07123 0.64706 0.74933 0.0
N282 N 0.0704 0.641 0.9058 0.0
N283 N 0.06647 0.61561 0.86538 0.0
C284 C 0.07547 0.69117 0.85446 0.0
H285 H 0.08591 0.69996 0.92507 0.0
H286 H 0.08917 0.70755 0.79756 0.0
H287 H 0.0525 0.68913 0.85415 0.0
C288 C 0.16528 0.72283 0.11374 0.0
N289 N 0.13801 0.69686 0.12327 0.0
N290 N 0.12522 0.68758 0.03919 0.0
C291 C 0.14554 0.70609 0.97282 0.0
C292 C 0.17088 0.72961 0.01796 0.0
C293 C 0.18717 0.73831 0.19374 0.0
H294 H 0.1909 0.72123 0.23231 0.0
H295 H 0.17691 0.74747 0.24448 0.0
H296 H 0.20945 0.75732 0.16815 0.0
O297 O 0.12668 0.63126 0.18569 0.0
O298 O 0.09335 0.61616 0.06601 0.0
H299 H 0.12887 0.67356 0.85807 0.0
H300 H 0.16711 0.70413 0.84274 0.0
C301 C 0.14423 0.69838 0.86969 0.0
H302 H 0.13689 0.71218 0.82785 0.0
H303 H 0.06612 0.59744 0.90209 0.0
O304 O 0.14002 0.6841 0.34966 0.0
C305 C 0.11078 0.61187 0.12148 0.0
Co306 Co 0.45579 0.12316 0.38858 0.0
Co307 Co 0.4363 0.0856 0.19994 0.0
C308 C 0.40988 0.05445 0.3799 0.0
O309 O 0.42868 0.07979 0.41745 0.0
O310 O 0.40685 0.05225 0.2899 0.0
C311 C 0.42889 0.12638 0.55219 0.0
O312 O 0.40525 0.11441 0.49445 0.0
C313 C 0.41225 0.07085 0.00292 0.0
C314 C 0.45085 0.06876 0.93719 0.0
C315 C 0.42532 0.07116 0.91564 0.0
N316 N 0.43048 0.07039 0.07212 0.0
N317 N 0.45253 0.06743 0.03188 0.0
C318 C 0.38423 0.07329 0.02025 0.0
H319 H 0.38518 0.08329 0.09112 0.0
H320 H 0.38097 0.08669 0.9636 0.0
H321 H 0.36395 0.04984 0.01901 0.0
C322 C 0.44107 0.16433 0.27909 0.0
N323 N 0.44065 0.13748 0.28933 0.0
N324 N 0.43613 0.12399 0.20599 0.0
C325 C 0.43597 0.14327 0.13923 0.0
C326 C 0.43745 0.16853 0.18367 0.0
C327 C 0.44809 0.18685 0.35765 0.0
H328 H 0.47282 0.19786 0.3754 0.0
H329 H 0.43488 0.17474 0.42186 0.0
H330 H 0.44254 0.20481 0.33719 0.0
O331 O 0.49637 0.12807 0.35207 0.0
O332 O 0.4785 0.09518 0.23122 0.0
H333 H 0.46027 0.16697 0.01272 0.0
H334 H 0.42345 0.13467 0.99215 0.0
C335 C 0.44414 0.14324 0.037 0.0
H336 H 0.45545 0.12947 0.02671 0.0
H337 H 0.47062 0.06773 0.06875 0.0
O338 O 0.45567 0.13976 0.51582 0.0
C339 C 0.50019 0.11281 0.28647 0.0
Co340 Co 0.33734 0.45994 0.56087 0.0
Co341 Co 0.35073 0.43629 0.37422 0.0
C342 C 0.35839 0.41108 0.54505 0.0
O343 O 0.35182 0.42988 0.58368 0.0
O344 O 0.35759 0.40808 0.45507 0.0
C345 C 0.30751 0.43475 0.72614 0.0
O346 O 0.29263 0.41023 0.67285 0.0
C347 C 0.34909 0.41691 0.1697 0.0
C348 C 0.37784 0.46333 0.11051 0.0
C349 C 0.35941 0.43306 0.08472 0.0
N350 N 0.36023 0.43723 0.24188 0.0
N351 N 0.37814 0.46472 0.20505 0.0
C352 C 0.33186 0.3828 0.18176 0.0
H353 H 0.32819 0.37657 0.25811 0.0
H354 H 0.3096 0.37239 0.14416 0.0
H355 H 0.34528 0.37313 0.14931 0.0
C356 C 0.28481 0.45271 0.44768 0.0
N357 N 0.3081 0.44739 0.46317 0.0
N358 N 0.31106 0.43285 0.3904 0.0
C359 C 0.28776 0.42587 0.32974 0.0
C360 C 0.27048 0.43881 0.36195 0.0
C361 C 0.28077 0.47527 0.50611 0.0
H362 H 0.30301 0.49225 0.53826 0.0
H363 H 0.2647 0.46303 0.56523 0.0
H364 H 0.27191 0.48752 0.46256 0.0
O365 O 0.37257 0.50006 0.52967 0.0
O366 O 0.38345 0.47857 0.41067 0.0
H367 H 0.29525 0.41871 0.18569 0.0
H368 H 0.25638 0.3941 0.22596 0.0
C369 C 0.28089 0.4052 0.24638 0.0
H370 H 0.28612 0.38698 0.26498 0.0
H371 H 0.3892 0.4851 0.24336 0.0
O372 O 0.32103 0.46089 0.6861 0.0
C373 C 0.39034 0.50156 0.46358 0.0
Co374 Co 0.88353 0.33709 0.70405 0.0
Co375 Co 0.92005 0.35498 0.51322 0.0
C376 C 0.95191 0.36095 0.69472 0.0
O377 O 0.92656 0.35362 0.73313 0.0
O378 O 0.95395 0.36054 0.60459 0.0
C379 C 0.88003 0.30669 0.86697 0.0
O380 O 0.89175 0.2949 0.80876 0.0
C381 C 0.93525 0.34502 0.31729 0.0
C382 C 0.9391 0.38639 0.25049 0.0
C383 C 0.93594 0.35807 0.22965 0.0
N384 N 0.93581 0.36391 0.38593 0.0
N385 N 0.93992 0.38933 0.34518 0.0
C386 C 0.93195 0.31419 0.3352 0.0
H387 H 0.92158 0.30527 0.40577 0.0
H388 H 0.91853 0.29771 0.27818 0.0
H389 H 0.95513 0.31675 0.33498 0.0
C390 C 0.84228 0.28105 0.59755 0.0
N391 N 0.86935 0.30731 0.60575 0.0
N392 N 0.88194 0.3162 0.52123 0.0
C393 C 0.86163 0.29711 0.4558 0.0
C394 C 0.83659 0.27362 0.50222 0.0
C395 C 0.82038 0.26616 0.67794 0.0
H396 H 0.81637 0.28343 0.71399 0.0
H397 H 0.83077 0.25767 0.73057 0.0
H398 H 0.79821 0.24674 0.6533 0.0
O399 O 0.87823 0.37243 0.66606 0.0
O400 O 0.90828 0.38636 0.53852 0.0
H401 H 0.87737 0.32924 0.33987 0.0
H402 H 0.83935 0.2981 0.32591 0.0
C403 C 0.86242 0.3044 0.35243 0.0
H404 H 0.87004 0.29079 0.31084 0.0
H405 H 0.94025 0.40752 0.3816 0.0
O406 O 0.86688 0.3204 0.83112 0.0
C407 C 0.89105 0.39038 0.59569 0.0
C408 C 0.0852 0.55534 0.10342 0.0
C409 C 0.11248 0.58378 0.10719 0.0
C410 C 0.08548 0.52845 0.07992 0.0
C411 C 0.11293 0.52922 0.05582 0.0
H412 H 0.06343 0.5539 0.1186 0.0
H413 H 0.06397 0.50692 0.07921 0.0
S414 S 0.19052 0.5981 0.05376 0.0
N415 N 0.16768 0.61127 0.08576 0.0
N416 N 0.16816 0.56076 0.03807 0.0
C417 C 0.14038 0.55757 0.05862 0.0
C418 C 0.14017 0.58486 0.08531 0.0
C419 C 0.5553 0.13878 0.23643 0.0
C420 C 0.52949 0.11331 0.27601 0.0
C421 C 0.58194 0.13751 0.21456 0.0
C422 C 0.58354 0.11082 0.23265 0.0
H423 H 0.55463 0.15948 0.22037 0.0
H424 H 0.60149 0.15762 0.18487 0.0
S425 S 0.52134 0.0378 0.33298 0.0
N426 N 0.50668 0.06068 0.32978 0.0
N427 N 0.55646 0.05819 0.29066 0.0
C428 C 0.55765 0.08528 0.2721 0.0
C429 C 0.53068 0.08654 0.29318 0.0
C430 C 0.41913 0.5584 0.43676 0.0
C431 C 0.41893 0.5304 0.44317 0.0
C432 C 0.44582 0.58553 0.40985 0.0
C433 C 0.47316 0.58545 0.39073 0.0
H434 H 0.39843 0.55923 0.45107 0.0
H435 H 0.44533 0.60678 0.40683 0.0
S436 S 0.48456 0.51821 0.39864 0.0
N437 N 0.44819 0.50425 0.42724 0.0
N438 N 0.49848 0.55526 0.38037 0.0
C439 C 0.47319 0.55764 0.39739 0.0
C440 C 0.44601 0.53007 0.42261 0.0
C441 C 0.88478 0.43358 0.65657 0.0
C442 C 0.88676 0.41705 0.57941 0.0
C443 C 0.8849 0.46121 0.64247 0.0
C444 C 0.88646 0.47307 0.55068 0.0
H445 H 0.8845 0.42585 0.72849 0.0
H446 H 0.88424 0.47365 0.70426 0.0
S447 S 0.88851 0.43667 0.32449 0.0
N448 N 0.88782 0.41315 0.40742 0.0
N449 N 0.88777 0.46499 0.38134 0.0
C450 C 0.88669 0.45589 0.47272 0.0
C451 C 0.88698 0.42794 0.48703 0.0
C452 C 0.44036 0.90892 0.80814 0.0
C453 C 0.41824 0.88914 0.74182 0.0
C454 C 0.46677 0.90733 0.82728 0.0
C455 C 0.47216 0.88585 0.78132 0.0
H456 H 0.4377 0.92635 0.84463 0.0
H457 H 0.48357 0.92367 0.87633 0.0
S458 S 0.42213 0.82847 0.60328 0.0
N459 N 0.40372 0.84684 0.63153 0.0
N460 N 0.4539 0.84436 0.66708 0.0
C461 C 0.45047 0.86576 0.71559 0.0
C462 C 0.42337 0.86726 0.69596 0.0
C463 C 0.5807 0.45956 0.85024 0.0
C464 C 0.59158 0.47132 0.94179 0.0
C465 C 0.55345 0.43162 0.83711 0.0
C466 C 0.53577 0.4147 0.91507 0.0
H467 H 0.59288 0.47254 0.78792 0.0
H468 H 0.54536 0.42413 0.76549 0.0
S469 S 0.55553 0.43367 0.16928 0.0
N470 N 0.58378 0.46249 0.11149 0.0
N471 N 0.53231 0.41015 0.08708 0.0
C472 C 0.54716 0.42534 0.00699 0.0
C473 C 0.57517 0.45358 0.02033 0.0
C474 C 1.00147 0.39149 0.91604 0.0
C475 C 0.02864 0.39194 0.89136 0.0
C476 C 0.9771 0.38135 0.8517 0.0
C477 C 0.97869 0.3711 0.75957 0.0
H478 H 0.99944 0.40023 0.98426 0.0
H479 H 0.95699 0.38221 0.87423 0.0
S480 S 0.04241 0.36188 0.66759 0.0
N481 N 0.05428 0.37745 0.7735 0.0
N482 N 0.00833 0.35842 0.65222 0.0
C483 C 0.00514 0.36997 0.73571 0.0
C484 C 0.03008 0.38033 0.80163 0.0
C485 C 0.59882 0.97444 0.03775 0.0
C486 C 0.61037 0.97555 0.94547 0.0
C487 C 0.61304 0.99938 0.1003 0.0
C488 C 0.63947 0.02657 0.07349 0.0
H489 H 0.57796 0.95438 0.06135 0.0
H490 H 0.60233 0.99785 0.16827 0.0
S491 S 0.68294 0.03889 0.84963 0.0
N492 N 0.65244 0.00454 0.83664 0.0
N493 N 0.67936 0.0515 0.9544 0.0
C494 C 0.65247 0.02733 0.98417 0.0
C495 C 0.63789 0.00188 0.92014 0.0
C496 C 0.63637 0.64014 0.23926 0.0
C497 C 0.60522 0.6314 0.23269 0.0
C498 C 0.64975 0.62928 0.17324 0.0
C499 C 0.63256 0.60976 0.09787 0.0
H500 H 0.65047 0.65557 0.29497 0.0
H501 H 0.67365 0.63595 0.18161 0.0
S502 S 0.5491 0.57579 0.06056 0.0
N503 N 0.55684 0.59896 0.15213 0.0
N504 N 0.58222 0.5795 0.02762 0.0
C505 C 0.60135 0.6004 0.09212 0.0
C506 C 0.58765 0.61096 0.15971 0.0
C507 C 0.00439 0.61725 0.43287 0.0
C508 C 0.97714 0.61616 0.40502 0.0
C509 C 0.02938 0.62786 0.37067 0.0
C510 C 0.02828 0.63784 0.27763 0.0
H511 H 0.00595 0.60836 0.50139 0.0
H512 H 0.04942 0.62721 0.39521 0.0
S513 S 0.96461 0.64575 0.17786 0.0
N514 N 0.95217 0.63033 0.28359 0.0
N515 N 0.99909 0.64989 0.16635 0.0
C516 C 1.00191 0.63873 0.25115 0.0
C517 C 0.97644 0.62806 0.3149 0.0
C518 C 0.40505 0.02904 0.53693 0.0
C519 C 0.3931 0.02774 0.4451 0.0
C520 C 0.39116 0.00419 0.60003 0.0
C521 C 0.36468 0.97688 0.57424 0.0
H522 H 0.42597 0.04917 0.5598 0.0
H523 H 0.40214 0.00591 0.66764 0.0
S524 S 0.32037 0.96392 0.35174 0.0
N525 N 0.35067 0.99835 0.33777 0.0
N526 N 0.32441 0.95159 0.45643 0.0
C527 C 0.35132 0.97591 0.48536 0.0
C528 C 0.36555 1.00128 0.42082 0.0
C529 C 0.3741 0.37624 0.76363 0.0
C530 C 0.40046 0.37515 0.7372 0.0
C531 C 0.35971 0.3866 0.69956 0.0
C532 C 0.37101 0.39609 0.60666 0.0
H533 H 0.3645 0.36903 0.83395 0.0
H534 H 0.3397 0.38744 0.72316 0.0
S535 S 0.44142 0.4015 0.50612 0.0
N536 N 0.4386 0.38706 0.61313 0.0
N537 N 0.41126 0.40585 0.49432 0.0
C538 C 0.39739 0.39536 0.57978 0.0
C539 C 0.4122 0.38516 0.64466 0.0
C540 C 0.22148 0.44125 0.15797 0.0
C541 C 0.19661 0.44102 0.20383 0.0
C542 C 0.24567 0.44195 0.20961 0.0
C543 C 0.24515 0.44012 0.30963 0.0
H544 H 0.22234 0.44056 0.08147 0.0
H545 H 0.26484 0.44374 0.16989 0.0
S546 S 0.18641 0.44151 0.46498 0.0
N547 N 0.17586 0.44438 0.35653 0.0
N548 N 0.21703 0.43802 0.45215 0.0
C549 C 0.22034 0.43981 0.3564 0.0
C550 C 0.19713 0.44194 0.304 0.0
C551 C 0.76373 0.22707 0.35767 0.0
C552 C 0.75938 0.19726 0.36333 0.0
C553 C 0.78827 0.2517 0.40499 0.0
C554 C 0.80934 0.24731 0.4586 0.0
H555 H 0.74784 0.23125 0.3176 0.0
H556 H 0.79077 0.27431 0.39963 0.0
S557 S 0.80736 0.17364 0.49813 0.0
N558 N 0.77752 0.16461 0.42917 0.0
N559 N 0.82375 0.21096 0.51683 0.0
C560 C 0.80483 0.21758 0.46624 0.0
C561 C 0.77984 0.19254 0.41876 0.0
C562 C 0.5867 0.81412 0.56199 0.0
C563 C 0.56454 0.80839 0.63211 0.0
C564 C 0.58651 0.79005 0.51111 0.0
C565 C 0.5641 0.75947 0.52855 0.0
H566 H 0.60456 0.83743 0.54717 0.0
H567 H 0.60435 0.79533 0.4593 0.0
S568 S 0.49909 0.73228 0.69645 0.0
N569 N 0.51804 0.76993 0.70991 0.0
N570 N 0.51811 0.72466 0.61574 0.0
C571 C 0.54131 0.75343 0.59623 0.0
C572 C 0.54143 0.77791 0.64781 0.0
C573 C 0.77632 0.58925 0.7284 0.0
C574 C 0.7581 0.56645 0.79474 0.0
C575 C 0.79982 0.58804 0.67872 0.0
C576 C 0.80559 0.5638 0.69306 0.0
H577 H 0.77261 0.60839 0.71588 0.0
H578 H 0.81399 0.60649 0.63036 0.0
S579 S 0.7617 0.49631 0.84876 0.0
N580 N 0.74555 0.51754 0.86542 0.0
N581 N 0.78957 0.5151 0.77132 0.0
C582 C 0.78664 0.54015 0.75583 0.0
C583 C 0.76293 0.54153 0.80705 0.0
C584 C 0.24213 0.77695 0.86724 0.0
C585 C 0.24577 0.80648 0.8729 0.0
C586 C 0.21842 0.75218 0.9168 0.0
C587 C 0.19753 0.75615 0.97275 0.0
H588 H 0.25791 0.7731 0.82539 0.0
H589 H 0.21642 0.72979 0.91126 0.0
S590 S 0.19765 0.82893 0.01178 0.0
N591 N 0.22707 0.83841 0.94051 0.0
N592 N 0.18234 0.79179 0.03207 0.0
C593 C 0.20131 0.78562 0.98006 0.0
C594 C 0.22546 0.81079 0.93038 0.0
C595 C 0.46326 0.22484 0.14524 0.0
C596 C 0.43802 0.19506 0.13573 0.0
C597 C 0.46419 0.24973 0.09687 0.0
C598 C 0.43963 0.24571 0.03919 0.0
H599 H 0.48255 0.22881 0.18913 0.0
H600 H 0.48424 0.27224 0.10474 0.0
S601 S 0.3691 0.17213 0.98765 0.0
N602 N 0.38869 0.16273 0.06079 0.0
N603 N 0.39012 0.20961 0.97223 0.0
C604 C 0.4147 0.21597 0.02746 0.0
C605 C 0.41393 0.19063 0.07546 0.0
C606 C 0.10287 0.41312 0.52407 0.0
C607 C 0.08479 0.42706 0.51257 0.0
C608 C 0.11844 0.41589 0.60944 0.0
C609 C 0.11728 0.43354 0.68456 0.0
H610 H 0.10656 0.40147 0.46587 0.0
H611 H 0.13233 0.40509 0.6155 0.0
S612 S 0.06954 0.47061 0.69556 0.0
N613 N 0.06338 0.45545 0.58841 0.0
N614 N 0.09402 0.46229 0.7462 0.0
C615 C 0.09808 0.44623 0.67576 0.0
C616 C 0.08144 0.44248 0.59054 0.0
C617 C 0.65732 0.09696 0.84742 0.0
C618 C 0.68894 0.11608 0.86029 0.0
C619 C 0.64559 0.08028 0.76395 0.0
C620 C 0.6648 0.08275 0.68751 0.0
H621 H 0.64137 0.09463 0.90278 0.0
H622 H 0.6209 0.06641 0.75779 0.0
S623 S 0.75022 0.12601 0.69523 0.0
N624 N 0.73976 0.13338 0.79827 0.0
N625 N 0.71807 0.10311 0.63856 0.0
C626 C 0.69684 0.10032 0.70271 0.0
C627 C 0.70877 0.11683 0.78958 0.0
C628 C 0.5592 0.64047 0.92769 0.0
C629 C 0.57852 0.6582 0.85307 0.0
C630 C 0.55712 0.65389 0.01172 0.0
C631 C 0.57501 0.68561 0.0265 0.0
H632 H 0.54374 0.61611 0.91836 0.0
H633 H 0.54098 0.63923 0.06517 0.0
S634 S 0.63258 0.74238 0.86178 0.0
N635 N 0.61801 0.70946 0.80422 0.0
N636 N 0.61513 0.73428 0.96569 0.0
C637 C 0.59635 0.70349 0.95684 0.0
C638 C 0.59799 0.6899 0.86939 0.0
C639 C 0.90379 0.59374 0.02378 0.0
C640 C 0.92292 0.58081 0.01595 0.0
C641 C 0.8876 0.59107 0.10759 0.0
C642 C 0.8891 0.57446 0.18519 0.0
H643 H 0.89994 0.60476 0.96421 0.0
H644 H 0.87305 0.60121 0.11063 0.0
S645 S 0.93876 0.53973 0.20652 0.0
N646 N 0.94535 0.55436 0.09858 0.0
N647 N 0.91309 0.54716 0.2527 0.0
C648 C 0.90895 0.56245 0.17995 0.0
C649 C 0.92637 0.56629 0.09642 0.0
C650 C 0.34561 0.90508 0.34984 0.0
C651 C 0.314 0.88622 0.36349 0.0
C652 C 0.35723 0.92183 0.2664 0.0
C653 C 0.33794 0.9197 0.19043 0.0
H654 H 0.36164 0.90734 0.40485 0.0
H655 H 0.38191 0.9357 0.26034 0.0
S656 S 0.25252 0.87672 0.20003 0.0
N657 N 0.26314 0.86921 0.30255 0.0
N658 N 0.28456 0.89946 0.14271 0.0
C659 C 0.30592 0.90209 0.20614 0.0
C660 C 0.29411 0.88557 0.29313 0.0
C661 C 0.45005 0.32352 0.46774 0.0
C662 C 0.42517 0.31282 0.53066 0.0
C663 C 0.44975 0.33674 0.38076 0.0
C664 C 0.42456 0.33976 0.35291 0.0
H665 H 0.47054 0.32297 0.48761 0.0
H666 H 0.46994 0.34565 0.33618 0.0
S667 S 0.35273 0.31371 0.4871 0.0
N668 N 0.37358 0.30454 0.55543 0.0
N669 N 0.37347 0.32951 0.39106 0.0
C670 C 0.39879 0.3276 0.41174 0.0
C671 C 0.39898 0.31408 0.50085 0.0
C672 C 0.55344 0.87511 0.21456 0.0
C673 C 0.57903 0.88845 0.15408 0.0
C674 C 0.55346 0.88893 0.30066 0.0
C675 C 0.57907 0.91662 0.33007 0.0
H676 H 0.53274 0.8544 0.19365 0.0
H677 H 0.53291 0.87813 0.34377 0.0
S678 S 0.65266 0.9602 0.20246 0.0
N679 N 0.63161 0.93046 0.1333 0.0
N680 N 0.63115 0.95618 0.29577 0.0
C681 C 0.60534 0.92953 0.27333 0.0
C682 C 0.60547 0.91548 0.18525 0.0
C683 C 0.69411 0.60551 0.35268 0.0
C684 C 0.69422 0.57916 0.31852 0.0
C685 C 0.67932 0.60483 0.43785 0.0
C686 C 0.66415 0.57781 0.4914 0.0
H687 H 0.70412 0.6264 0.31117 0.0
H688 H 0.67875 0.62515 0.46001 0.0
S689 S 0.66232 0.5044 0.44263 0.0
N690 N 0.68131 0.52668 0.35226 0.0
N691 N 0.65329 0.52527 0.51113 0.0
C692 C 0.6659 0.55203 0.46158 0.0
C693 C 0.68109 0.55278 0.37564 0.0
C694 C 0.12809 0.67763 0.54699 0.0
C695 C 0.11582 0.69069 0.48542 0.0
C696 C 0.11388 0.66451 0.63333 0.0
C697 C 0.08681 0.66389 0.66191 0.0
H698 H 0.14822 0.67645 0.52677 0.0
H699 H 0.12382 0.65405 0.67723 0.0
S700 S 0.04616 0.69658 0.53121 0.0
N701 N 0.07559 0.7037 0.4627 0.0
N702 N 0.04906 0.67872 0.62551 0.0
C703 C 0.07502 0.67811 0.60402 0.0
C704 C 0.08951 0.69163 0.51573 0.0
C705 C 0.45012 0.12801 0.71346 0.0
C706 C 0.42498 0.11481 0.65124 0.0
C707 C 0.4494 0.11409 0.80007 0.0
C708 C 0.42353 0.0864 0.82819 0.0
H709 H 0.47103 0.14866 0.69355 0.0
H710 H 0.46966 0.12475 0.8445 0.0
S711 S 0.35083 0.04321 0.69571 0.0
N712 N 0.37248 0.073 0.62739 0.0
N713 N 0.37164 0.04704 0.79071 0.0
C714 C 0.39766 0.07365 0.76965 0.0
C715 C 0.39824 0.08784 0.6811 0.0
C716 C 0.30165 0.413 0.88927 0.0
C717 C 0.32067 0.43124 0.81528 0.0
C718 C 0.31426 0.41045 0.97538 0.0
C719 C 0.34626 0.42516 0.98839 0.0
H720 H 0.27698 0.402 0.88236 0.0
H721 H 0.2988 0.3989 0.03363 0.0
S722 S 0.40563 0.47024 0.80865 0.0
N723 N 0.3729 0.46129 0.75638 0.0
N724 N 0.39632 0.45451 0.91503 0.0
C725 C 0.36525 0.44076 0.91108 0.0
C726 C 0.35257 0.44445 0.82544 0.0
C727 C 0.89284 0.33936 0.11509 0.0
C728 C 0.92056 0.34115 0.14231 0.0
C729 C 0.87874 0.3262 0.02864 0.0
C730 C 0.89181 0.3143 0.96576 0.0
H731 H 0.8823 0.34895 0.16009 0.0
H732 H 0.85806 0.32646 0.0094 0.0
S733 S 0.96352 0.31183 0.0078 0.0
N734 N 0.95985 0.3287 0.10336 0.0
N735 N 0.93361 0.30372 0.94022 0.0
C736 C 0.91886 0.31456 0.99469 0.0
C737 C 0.93321 0.3281 0.08308 0.0
loop_
_geom_bond_atom_site_label_1
_geom_bond_atom_site_label_2
_geom_bond_distance
_geom_bond_site_symmetry_2
_ccdc_geom_bond_type
Co0 O3 1.970 . S
Co0 N17 1.989 1_556 S
Co0 O25 1.967 . S
Co0 O32 1.920 . S
Co1 O4 1.966 . S
Co1 N10 2.022 . S
Co1 N18 1.993 . S
Co1 O26 1.941 . S
C2 O3 1.258 1_554 S
C2 O4 1.263 . S
O3 Co0 1.970 . S
O3 C2 1.258 1_556 S
O4 Co1 1.966 . S
O4 C2 1.263 . S
C5 O6 1.235 . S
C5 O32 1.289 . S
O6 C5 1.235 . S
C7 C9 1.400 . S
C7 N10 1.351 . S
C7 C12 1.501 . S
C8 C9 1.387 . S
C8 N11 1.341 . S
C9 C7 1.400 . S
C9 C8 1.387 . S
N10 Co1 2.022 . S
N10 C7 1.351 . S
N10 N11 1.365 . S
N11 C8 1.341 . S
N11 N10 1.365 . S
N11 H31 0.862 . S
C12 C7 1.501 . S
C12 H13 0.961 . S
C12 H14 0.961 . S
C12 H15 0.960 . S
H13 C12 0.961 . S
H14 C12 0.961 . S
H15 C12 0.960 . S
C16 N17 1.342 . S
C16 C20 1.401 . S
C16 C21 1.499 1_554 S
N17 Co0 1.989 1_554 S
N17 C16 1.342 . S
N17 N18 1.388 . S
N18 Co1 1.993 . S
N18 N17 1.388 . S
N18 C19 1.346 . S
C19 N18 1.346 . S
C19 C20 1.396 . S
C19 C29 1.510 . S
C20 C16 1.401 . S
C20 C19 1.396 . S
C21 C16 1.499 1_556 S
C21 H22 0.959 . S
C21 H23 0.960 . S
C21 H24 0.961 . S
H22 C21 0.959 . S
H23 C21 0.960 . S
H24 C21 0.961 . S
O25 Co0 1.967 . S
O25 C33 1.258 1_556 S
O26 Co1 1.941 . S
O26 C33 1.266 . S
H27 C29 0.959 . S
H28 C29 0.961 . S
C29 C19 1.510 . S
C29 H27 0.959 . S
C29 H28 0.961 . S
C29 H30 0.960 . S
H30 C29 0.960 . S
H31 N11 0.862 . S
O32 Co0 1.920 . S
O32 C5 1.289 . S
C33 O25 1.258 1_554 S
C33 O26 1.266 . S
Co34 O37 1.970 . S
Co34 N51 1.989 . S
Co34 O59 1.967 . S
Co34 O66 1.920 1_554 S
Co35 O38 1.966 . S
Co35 N44 2.022 . S
Co35 N52 1.993 . S
Co35 O60 1.941 . S
C36 O37 1.258 . S
C36 O38 1.263 . S
O37 Co34 1.970 . S
O37 C36 1.258 . S
O38 Co35 1.966 . S
O38 C36 1.263 . S
C39 O40 1.235 . S
C39 O66 1.289 . S
O40 C39 1.235 . S
C41 C43 1.400 . S
C41 N44 1.351 . S
C41 C46 1.501 . S
C42 C43 1.387 . S
C42 N45 1.341 . S
C43 C41 1.400 . S
C43 C42 1.387 . S
N44 Co35 2.022 . S
N44 C41 1.351 . S
N44 N45 1.365 . S
N45 C42 1.341 . S
N45 N44 1.365 . S
N45 H65 0.862 . S
C46 C41 1.501 . S
C46 H47 0.961 . S
C46 H48 0.961 . S
C46 H49 0.960 . S
H47 C46 0.961 . S
H48 C46 0.961 . S
H49 C46 0.960 . S
C50 N51 1.342 . S
C50 C54 1.401 . S
C50 C55 1.499 . S
N51 Co34 1.989 . S
N51 C50 1.342 . S
N51 N52 1.388 . S
N52 Co35 1.993 . S
N52 N51 1.388 . S
N52 C53 1.346 . S
C53 N52 1.346 . S
C53 C54 1.396 . S
C53 C63 1.510 . S
C54 C50 1.401 . S
C54 C53 1.396 . S
C55 C50 1.499 . S
C55 H56 0.959 . S
C55 H57 0.960 . S
C55 H58 0.961 . S
H56 C55 0.959 . S
H57 C55 0.960 . S
H58 C55 0.961 . S
O59 Co34 1.967 . S
O59 C67 1.258 . S
O60 Co35 1.941 . S
O60 C67 1.266 . S
H61 C63 0.959 . S
H62 C63 0.961 . S
C63 C53 1.510 . S
C63 H61 0.959 . S
C63 H62 0.961 . S
C63 H64 0.960 . S
H64 C63 0.960 . S
H65 N45 0.862 . S
O66 Co34 1.920 1_556 S
O66 C39 1.289 . S
C67 O59 1.258 . S
C67 O60 1.266 . S
Co68 O71 1.970 . S
Co68 N85 1.989 . S
Co68 O93 1.967 . S
Co68 O100 1.920 . S
Co69 O72 1.966 . S
Co69 N78 2.022 . S
Co69 N86 1.993 . S
Co69 O94 1.941 . S
C70 O71 1.258 . S
C70 O72 1.263 . S
O71 Co68 1.970 . S
O71 C70 1.258 . S
O72 Co69 1.966 . S
O72 C70 1.263 . S
C73 O74 1.235 . S
C73 O100 1.289 . S
O74 C73 1.235 . S
C75 C77 1.400 . S
C75 N78 1.351 . S
C75 C80 1.501 . S
C76 C77 1.387 . S
C76 N79 1.341 . S
C77 C75 1.400 . S
C77 C76 1.387 . S
N78 Co69 2.022 . S
N78 C75 1.351 . S
N78 N79 1.365 . S
N79 C76 1.341 . S
N79 N78 1.365 . S
N79 H99 0.862 . S
C80 C75 1.501 . S
C80 H81 0.961 . S
C80 H82 0.961 . S
C80 H83 0.960 . S
H81 C80 0.961 . S
H82 C80 0.961 . S
H83 C80 0.960 . S
C84 N85 1.342 . S
C84 C88 1.401 . S
C84 C89 1.499 . S
N85 Co68 1.989 . S
N85 C84 1.342 . S
N85 N86 1.388 . S
N86 Co69 1.993 . S
N86 N85 1.388 . S
N86 C87 1.346 . S
C87 N86 1.346 . S
C87 C88 1.396 . S
C87 C97 1.510 . S
C88 C84 1.401 . S
C88 C87 1.396 . S
C89 C84 1.499 . S
C89 H90 0.959 . S
C89 H91 0.960 . S
C89 H92 0.961 . S
H90 C89 0.959 . S
H91 C89 0.960 . S
H92 C89 0.961 . S
O93 Co68 1.967 . S
O93 C101 1.258 . S
O94 Co69 1.941 . S
O94 C101 1.266 . S
H95 C97 0.959 . S
H96 C97 0.961 . S
C97 C87 1.510 . S
C97 H95 0.959 . S
C97 H96 0.961 . S
C97 H98 0.960 . S
H98 C97 0.960 . S
H99 N79 0.862 . S
O100 Co68 1.920 . S
O100 C73 1.289 . S
C101 O93 1.258 . S
C101 O94 1.266 . S
Co102 O105 1.970 . S
Co102 N119 1.989 . S
Co102 O127 1.967 . S
Co102 O134 1.920 . S
Co103 O106 1.966 . S
Co103 N112 2.022 . S
Co103 N120 1.993 . S
Co103 O128 1.941 . S
C104 O105 1.258 . S
C104 O106 1.263 . S
O105 Co102 1.970 . S
O105 C104 1.258 . S
O106 Co103 1.966 . S
O106 C104 1.263 . S
C107 O108 1.235 . S
C107 O134 1.289 . S
O108 C107 1.235 . S
C109 C111 1.400 . S
C109 N112 1.351 . S
C109 C114 1.501 . S
C110 C111 1.387 . S
C110 N113 1.341 . S
C111 C109 1.400 . S
C111 C110 1.387 . S
N112 Co103 2.022 . S
N112 C109 1.351 . S
N112 N113 1.365 . S
N113 C110 1.341 . S
N113 N112 1.365 . S
N113 H133 0.862 . S
C114 C109 1.501 . S
C114 H115 0.961 . S
C114 H116 0.961 . S
C114 H117 0.960 . S
H115 C114 0.961 . S
H116 C114 0.961 . S
H117 C114 0.960 . S
C118 N119 1.342 . S
C118 C122 1.401 . S
C118 C123 1.499 . S
N119 Co102 1.989 . S
N119 C118 1.342 . S
N119 N120 1.388 . S
N120 Co103 1.993 . S
N120 N119 1.388 . S
N120 C121 1.346 . S
C121 N120 1.346 . S
C121 C122 1.396 . S
C121 C131 1.510 . S
C122 C118 1.401 . S
C122 C121 1.396 . S
C123 C118 1.499 . S
C123 H124 0.959 . S
C123 H125 0.960 . S
C123 H126 0.961 . S
H124 C123 0.959 . S
H125 C123 0.960 . S
H126 C123 0.961 . S
O127 Co102 1.967 . S
O127 C135 1.258 . S
O128 Co103 1.941 . S
O128 C135 1.266 . S
H129 C131 0.959 . S
H130 C131 0.961 . S
C131 C121 1.510 . S
C131 H129 0.959 . S
C131 H130 0.961 . S
C131 H132 0.960 . S
H132 C131 0.960 . S
H133 N113 0.862 . S
O134 Co102 1.920 . S
O134 C107 1.289 . S
C135 O127 1.258 . S
C135 O128 1.266 . S
Co136 O139 1.970 . S
Co136 N153 1.989 . S
Co136 O161 1.967 . S
Co136 O168 1.920 . S
Co137 O140 1.966 . S
Co137 N146 2.022 . S
Co137 N154 1.993 . S
Co137 O162 1.941 . S
C138 O139 1.258 . S
C138 O140 1.263 . S
O139 Co136 1.970 . S
O139 C138 1.258 . S
O140 Co137 1.966 . S
O140 C138 1.263 . S
C141 O142 1.235 . S
C141 O168 1.289 . S
O142 C141 1.235 . S
C143 C145 1.400 . S
C143 N146 1.351 1_554 S
C143 C148 1.501 1_554 S
C144 C145 1.387 . S
C144 N147 1.341 . S
C145 C143 1.400 . S
C145 C144 1.387 . S
N146 Co137 2.022 . S
N146 C143 1.351 1_556 S
N146 N147 1.365 1_556 S
N147 C144 1.341 . S
N147 N146 1.365 1_554 S
N147 H167 0.862 . S
C148 C143 1.501 1_556 S
C148 H149 0.961 . S
C148 H150 0.961 . S
C148 H151 0.960 1_556 S
H149 C148 0.961 . S
H150 C148 0.961 . S
H151 C148 0.960 1_554 S
C152 N153 1.342 . S
C152 C156 1.401 . S
C152 C157 1.499 . S
N153 Co136 1.989 . S
N153 C152 1.342 . S
N153 N154 1.388 . S
N154 Co137 1.993 . S
N154 N153 1.388 . S
N154 C155 1.346 . S
C155 N154 1.346 . S
C155 C156 1.396 . S
C155 C165 1.510 . S
C156 C152 1.401 . S
C156 C155 1.396 . S
C157 C152 1.499 . S
C157 H158 0.959 . S
C157 H159 0.960 . S
C157 H160 0.961 . S
H158 C157 0.959 . S
H159 C157 0.960 . S
H160 C157 0.961 . S
O161 Co136 1.967 . S
O161 C169 1.258 . S
O162 Co137 1.941 . S
O162 C169 1.266 . S
H163 C165 0.959 . S
H164 C165 0.961 . S
C165 C155 1.510 . S
C165 H163 0.959 . S
C165 H164 0.961 . S
C165 H166 0.960 . S
H166 C165 0.960 . S
H167 N147 0.862 . S
O168 Co136 1.920 . S
O168 C141 1.289 . S
C169 O161 1.258 . S
C169 O162 1.266 . S
Co170 O173 1.970 . S
Co170 N187 1.989 . S
Co170 O195 1.967 . S
Co170 O202 1.920 . S
Co171 O174 1.966 1_554 S
Co171 N180 2.022 . S
Co171 N188 1.993 1_554 S
Co171 O196 1.941 1_554 S
C172 O173 1.258 . S
C172 O174 1.263 . S
O173 Co170 1.970 . S
O173 C172 1.258 . S
O174 Co171 1.966 1_556 S
O174 C172 1.263 . S
C175 O176 1.235 . S
C175 O202 1.289 . S
O176 C175 1.235 . S
C177 C179 1.400 . S
C177 N180 1.351 . S
C177 C182 1.501 . S
C178 C179 1.387 . S
C178 N181 1.341 . S
C179 C177 1.400 . S
C179 C178 1.387 . S
N180 Co171 2.022 . S
N180 C177 1.351 . S
N180 N181 1.365 . S
N181 C178 1.341 . S
N181 N180 1.365 . S
N181 H201 0.862 . S
C182 C177 1.501 . S
C182 H183 0.961 . S
C182 H184 0.961 . S
C182 H185 0.960 . S
H183 C182 0.961 . S
H184 C182 0.961 . S
H185 C182 0.960 . S
C186 N187 1.342 . S
C186 C190 1.401 . S
C186 C191 1.499 . S
N187 Co170 1.989 . S
N187 C186 1.342 . S
N187 N188 1.388 . S
N188 Co171 1.993 1_556 S
N188 N187 1.388 . S
N188 C189 1.346 1_556 S
C189 N188 1.346 1_554 S
C189 C190 1.396 1_554 S
C189 C199 1.510 . S
C190 C186 1.401 . S
C190 C189 1.396 1_556 S
C191 C186 1.499 . S
C191 H192 0.959 . S
C191 H193 0.960 . S
C191 H194 0.961 . S
H192 C191 0.959 . S
H193 C191 0.960 . S
H194 C191 0.961 . S
O195 Co170 1.967 . S
O195 C203 1.258 . S
O196 Co171 1.941 1_556 S
O196 C203 1.266 . S
H197 C199 0.959 . S
H198 C199 0.961 . S
C199 C189 1.510 . S
C199 H197 0.959 . S
C199 H198 0.961 . S
C199 H200 0.960 . S
H200 C199 0.960 . S
H201 N181 0.862 . S
O202 Co170 1.920 . S
O202 C175 1.289 . S
C203 O195 1.258 . S
C203 O196 1.266 . S
Co204 O207 1.970 . S
Co204 N221 1.989 . S
Co204 O229 1.967 . S
Co204 O236 1.920 1_556 S
Co205 O208 1.966 . S
Co205 N214 2.022 . S
Co205 N222 1.993 . S
Co205 O230 1.941 . S
C206 O207 1.258 . S
C206 O208 1.263 . S
O207 Co204 1.970 . S
O207 C206 1.258 . S
O208 Co205 1.966 . S
O208 C206 1.263 . S
C209 O210 1.235 . S
C209 O236 1.289 . S
O210 C209 1.235 . S
C211 C213 1.400 . S
C211 N214 1.351 . S
C211 C216 1.501 . S
C212 C213 1.387 . S
C212 N215 1.341 . S
C213 C211 1.400 . S
C213 C212 1.387 . S
N214 Co205 2.022 . S
N214 C211 1.351 . S
N214 N215 1.365 . S
N215 C212 1.341 . S
N215 N214 1.365 . S
N215 H235 0.862 . S
C216 C211 1.501 . S
C216 H217 0.961 . S
C216 H218 0.961 . S
C216 H219 0.960 . S
H217 C216 0.961 . S
H218 C216 0.961 . S
H219 C216 0.960 . S
C220 N221 1.342 . S
C220 C224 1.401 . S
C220 C225 1.499 . S
N221 Co204 1.989 . S
N221 C220 1.342 . S
N221 N222 1.388 . S
N222 Co205 1.993 . S
N222 N221 1.388 . S
N222 C223 1.346 . S
C223 N222 1.346 . S
C223 C224 1.396 . S
C223 C233 1.510 . S
C224 C220 1.401 . S
C224 C223 1.396 . S
C225 C220 1.499 . S
C225 H226 0.959 . S
C225 H227 0.960 . S
C225 H228 0.961 . S
H226 C225 0.959 . S
H227 C225 0.960 . S
H228 C225 0.961 . S
O229 Co204 1.967 . S
O229 C237 1.258 . S
O230 Co205 1.941 . S
O230 C237 1.266 . S
H231 C233 0.959 . S
H232 C233 0.961 . S
C233 C223 1.510 . S
C233 H231 0.959 . S
C233 H232 0.961 . S
C233 H234 0.960 . S
H234 C233 0.960 . S
H235 N215 0.862 . S
O236 Co204 1.920 1_554 S
O236 C209 1.289 . S
C237 O229 1.258 . S
C237 O230 1.266 . S
Co238 O241 1.970 . S
Co238 N255 1.989 1_554 S
Co238 O263 1.967 . S
Co238 O270 1.920 . S
Co239 O242 1.966 . S
Co239 N248 2.022 . S
Co239 N256 1.993 . S
Co239 O264 1.941 . S
C240 O241 1.258 1_556 S
C240 O242 1.263 . S
O241 Co238 1.970 . S
O241 C240 1.258 1_554 S
O242 Co239 1.966 . S
O242 C240 1.263 . S
C243 O244 1.235 . S
C243 O270 1.289 . S
O244 C243 1.235 . S
C245 C247 1.400 . S
C245 N248 1.351 . S
C245 C250 1.501 . S
C246 C247 1.387 . S
C246 N249 1.341 . S
C247 C245 1.400 . S
C247 C246 1.387 . S
N248 Co239 2.022 . S
N248 C245 1.351 . S
N248 N249 1.365 . S
N249 C246 1.341 . S
N249 N248 1.365 . S
N249 H269 0.862 . S
C250 C245 1.501 . S
C250 H251 0.961 . S
C250 H252 0.961 . S
C250 H253 0.960 . S
H251 C250 0.961 . S
H252 C250 0.961 . S
H253 C250 0.960 . S
C254 N255 1.342 . S
C254 C258 1.401 . S
C254 C259 1.499 1_556 S
N255 Co238 1.989 1_556 S
N255 C254 1.342 . S
N255 N256 1.388 . S
N256 Co239 1.993 . S
N256 N255 1.388 . S
N256 C257 1.346 . S
C257 N256 1.346 . S
C257 C258 1.396 . S
C257 C267 1.510 . S
C258 C254 1.401 . S
C258 C257 1.396 . S
C259 C254 1.499 1_554 S
C259 H260 0.959 . S
C259 H261 0.960 . S
C259 H262 0.961 . S
H260 C259 0.959 . S
H261 C259 0.960 . S
H262 C259 0.961 . S
O263 Co238 1.967 . S
O263 C271 1.258 1_554 S
O264 Co239 1.941 . S
O264 C271 1.266 . S
H265 C267 0.959 . S
H266 C267 0.961 . S
C267 C257 1.510 . S
C267 H265 0.959 . S
C267 H266 0.961 . S
C267 H268 0.960 . S
H268 C267 0.960 . S
H269 N249 0.862 . S
O270 Co238 1.920 . S
O270 C243 1.289 . S
C271 O263 1.258 1_556 S
C271 O264 1.266 . S
Co272 O275 1.970 . S
Co272 N289 1.989 . S
Co272 O297 1.967 . S
Co272 O304 1.920 . S
Co273 O276 1.966 1_556 S
Co273 N282 2.022 . S
Co273 N290 1.993 1_556 S
Co273 O298 1.941 1_556 S
C274 O275 1.258 . S
C274 O276 1.263 . S
O275 Co272 1.970 . S
O275 C274 1.258 . S
O276 Co273 1.966 1_554 S
O276 C274 1.263 . S
C277 O278 1.235 . S
C277 O304 1.289 . S
O278 C277 1.235 . S
C279 C281 1.400 . S
C279 N282 1.351 . S
C279 C284 1.501 . S
C280 C281 1.387 . S
C280 N283 1.341 . S
C281 C279 1.400 . S
C281 C280 1.387 . S
N282 Co273 2.022 . S
N282 C279 1.351 . S
N282 N283 1.365 . S
N283 C280 1.341 . S
N283 N282 1.365 . S
N283 H303 0.862 . S
C284 C279 1.501 . S
C284 H285 0.961 . S
C284 H286 0.961 . S
C284 H287 0.960 . S
H285 C284 0.961 . S
H286 C284 0.961 . S
H287 C284 0.960 . S
C288 N289 1.342 . S
C288 C292 1.401 . S
C288 C293 1.499 . S
N289 Co272 1.989 . S
N289 C288 1.342 . S
N289 N290 1.388 . S
N290 Co273 1.993 1_554 S
N290 N289 1.388 . S
N290 C291 1.346 1_554 S
C291 N290 1.346 1_556 S
C291 C292 1.396 1_556 S
C291 C301 1.510 . S
C292 C288 1.401 . S
C292 C291 1.396 1_554 S
C293 C288 1.499 . S
C293 H294 0.959 . S
C293 H295 0.960 . S
C293 H296 0.961 . S
H294 C293 0.959 . S
H295 C293 0.960 . S
H296 C293 0.961 . S
O297 Co272 1.967 . S
O297 C305 1.258 . S
O298 Co273 1.941 1_554 S
O298 C305 1.266 . S
H299 C301 0.959 . S
H300 C301 0.961 . S
C301 C291 1.510 . S
C301 H299 0.959 . S
C301 H300 0.961 . S
C301 H302 0.960 . S
H302 C301 0.960 . S
H303 N283 0.862 . S
O304 Co272 1.920 . S
O304 C277 1.289 . S
C305 O297 1.258 . S
C305 O298 1.266 . S
Co306 O309 1.970 . S
Co306 N323 1.989 . S
Co306 O331 1.967 . S
Co306 O338 1.920 . S
Co307 O310 1.966 . S
Co307 N316 2.022 . S
Co307 N324 1.993 . S
Co307 O332 1.941 . S
C308 O309 1.258 . S
C308 O310 1.263 . S
O309 Co306 1.970 . S
O309 C308 1.258 . S
O310 Co307 1.966 . S
O310 C308 1.263 . S
C311 O312 1.235 . S
C311 O338 1.289 . S
O312 C311 1.235 . S
C313 C315 1.400 . S
C313 N316 1.351 1_556 S
C313 C318 1.501 1_556 S
C314 C315 1.387 . S
C314 N317 1.341 . S
C315 C313 1.400 . S
C315 C314 1.387 . S
N316 Co307 2.022 . S
N316 C313 1.351 1_554 S
N316 N317 1.365 1_554 S
N317 C314 1.341 . S
N317 N316 1.365 1_556 S
N317 H337 0.862 . S
C318 C313 1.501 1_554 S
C318 H319 0.961 . S
C318 H320 0.961 . S
C318 H321 0.960 1_554 S
H319 C318 0.961 . S
H320 C318 0.961 . S
H321 C318 0.960 1_556 S
C322 N323 1.342 . S
C322 C326 1.401 . S
C322 C327 1.499 . S
N323 Co306 1.989 . S
N323 C322 1.342 . S
N323 N324 1.388 . S
N324 Co307 1.993 . S
N324 N323 1.388 . S
N324 C325 1.346 . S
C325 N324 1.346 . S
C325 C326 1.396 . S
C325 C335 1.510 . S
C326 C322 1.401 . S
C326 C325 1.396 . S
C327 C322 1.499 . S
C327 H328 0.959 . S
C327 H329 0.960 . S
C327 H330 0.961 . S
H328 C327 0.959 . S
H329 C327 0.960 . S
H330 C327 0.961 . S
O331 Co306 1.967 . S
O331 C339 1.258 . S
O332 Co307 1.941 . S
O332 C339 1.266 . S
H333 C335 0.959 . S
H334 C335 0.961 . S
C335 C325 1.510 . S
C335 H333 0.959 . S
C335 H334 0.961 . S
C335 H336 0.960 . S
H336 C335 0.960 . S
H337 N317 0.862 . S
O338 Co306 1.920 . S
O338 C311 1.289 . S
C339 O331 1.258 . S
C339 O332 1.266 . S
Co340 O343 1.970 . S
Co340 N357 1.989 . S
Co340 O365 1.967 . S
Co340 O372 1.920 . S
Co341 O344 1.966 . S
Co341 N350 2.022 . S
Co341 N358 1.993 . S
Co341 O366 1.941 . S
C342 O343 1.258 . S
C342 O344 1.263 . S
O343 Co340 1.970 . S
O343 C342 1.258 . S
O344 Co341 1.966 . S
O344 C342 1.263 . S
C345 O346 1.235 . S
C345 O372 1.289 . S
O346 C345 1.235 . S
C347 C349 1.400 . S
C347 N350 1.351 . S
C347 C352 1.501 . S
C348 C349 1.387 . S
C348 N351 1.341 . S
C349 C347 1.400 . S
C349 C348 1.387 . S
N350 Co341 2.022 . S
N350 C347 1.351 . S
N350 N351 1.365 . S
N351 C348 1.341 . S
N351 N350 1.365 . S
N351 H371 0.862 . S
C352 C347 1.501 . S
C352 H353 0.961 . S
C352 H354 0.961 . S
C352 H355 0.960 . S
H353 C352 0.961 . S
H354 C352 0.961 . S
H355 C352 0.960 . S
C356 N357 1.342 . S
C356 C360 1.401 . S
C356 C361 1.499 . S
N357 Co340 1.989 . S
N357 C356 1.342 . S
N357 N358 1.388 . S
N358 Co341 1.993 . S
N358 N357 1.388 . S
N358 C359 1.346 . S
C359 N358 1.346 . S
C359 C360 1.396 . S
C359 C369 1.510 . S
C360 C356 1.401 . S
C360 C359 1.396 . S
C361 C356 1.499 . S
C361 H362 0.959 . S
C361 H363 0.960 . S
C361 H364 0.961 . S
H362 C361 0.959 . S
H363 C361 0.960 . S
H364 C361 0.961 . S
O365 Co340 1.967 . S
O365 C373 1.258 . S
O366 Co341 1.941 . S
O366 C373 1.266 . S
H367 C369 0.959 . S
H368 C369 0.961 . S
C369 C359 1.510 . S
C369 H367 0.959 . S
C369 H368 0.961 . S
C369 H370 0.960 . S
H370 C369 0.960 . S
H371 N351 0.862 . S
O372 Co340 1.920 . S
O372 C345 1.289 . S
C373 O365 1.258 . S
C373 O366 1.266 . S
Co374 O377 1.970 . S
Co374 N391 1.989 . S
Co374 O399 1.967 . S
Co374 O406 1.920 . S
Co375 O378 1.966 . S
Co375 N384 2.022 . S
Co375 N392 1.993 . S
Co375 O400 1.941 . S
C376 O377 1.258 . S
C376 O378 1.263 . S
O377 Co374 1.970 . S
O377 C376 1.258 . S
O378 Co375 1.966 . S
O378 C376 1.263 . S
C379 O380 1.235 . S
C379 O406 1.289 . S
O380 C379 1.235 . S
C381 C383 1.400 . S
C381 N384 1.351 . S
C381 C386 1.501 . S
C382 C383 1.387 . S
C382 N385 1.341 . S
C383 C381 1.400 . S
C383 C382 1.387 . S
N384 Co375 2.022 . S
N384 C381 1.351 . S
N384 N385 1.365 . S
N385 C382 1.341 . S
N385 N384 1.365 . S
N385 H405 0.862 . S
C386 C381 1.501 . S
C386 H387 0.961 . S
C386 H388 0.961 . S
C386 H389 0.960 . S
H387 C386 0.961 . S
H388 C386 0.961 . S
H389 C386 0.960 . S
C390 N391 1.342 . S
C390 C394 1.401 . S
C390 C395 1.499 . S
N391 Co374 1.989 . S
N391 C390 1.342 . S
N391 N392 1.388 . S
N392 Co375 1.993 . S
N392 N391 1.388 . S
N392 C393 1.346 . S
C393 N392 1.346 . S
C393 C394 1.396 . S
C393 C403 1.510 . S
C394 C390 1.401 . S
C394 C393 1.396 . S
C395 C390 1.499 . S
C395 H396 0.959 . S
C395 H397 0.960 . S
C395 H398 0.961 . S
H396 C395 0.959 . S
H397 C395 0.960 . S
H398 C395 0.961 . S
O399 Co374 1.967 . S
O399 C407 1.258 . S
O400 Co375 1.941 . S
O400 C407 1.266 . S
H401 C403 0.959 . S
H402 C403 0.961 . S
C403 C393 1.510 . S
C403 H401 0.959 . S
C403 H402 0.961 . S
C403 H404 0.960 . S
H404 C403 0.960 . S
H405 N385 0.862 . S
O406 Co374 1.920 . S
O406 C379 1.289 . S
C407 O399 1.258 . S
C407 O400 1.266 . S
C408 C409 1.369 . S
C408 C410 1.419 . S
C408 H412 0.930 . S
C409 C408 1.369 . S
C409 C418 1.429 . S
C410 C408 1.419 . S
C410 C411 1.363 . S
C410 H413 0.929 . S
C411 C410 1.363 . S
C411 C417 1.428 . S
H412 C408 0.930 . S
H413 C410 0.929 . S
S414 N415 1.613 . S
S414 N416 1.610 . S
N415 S414 1.613 . S
N415 C418 1.350 . S
N416 S414 1.610 . S
N416 C417 1.351 . S
C417 C411 1.428 . S
C417 N416 1.351 . S
C417 C418 1.434 . S
C418 C409 1.429 . S
C418 N415 1.350 . S
C418 C417 1.434 . S
C419 C420 1.369 . S
C419 C421 1.419 . S
C419 H423 0.930 . S
C420 C419 1.369 . S
C420 C429 1.429 . S
C421 C419 1.419 . S
C421 C422 1.363 . S
C421 H424 0.929 . S
C422 C421 1.363 . S
C422 C428 1.428 . S
H423 C419 0.930 . S
H424 C421 0.929 . S
S425 N426 1.613 . S
S425 N427 1.610 . S
N426 S425 1.613 . S
N426 C429 1.350 . S
N427 S425 1.610 . S
N427 C428 1.351 . S
C428 C422 1.428 . S
C428 N427 1.351 . S
C428 C429 1.434 . S
C429 C420 1.429 . S
C429 N426 1.350 . S
C429 C428 1.434 . S
C430 C431 1.369 . S
C430 C432 1.419 . S
C430 H434 0.930 . S
C431 C430 1.369 . S
C431 C440 1.429 . S
C432 C430 1.419 . S
C432 C433 1.363 . S
C432 H435 0.929 . S
C433 C432 1.363 . S
C433 C439 1.428 . S
H434 C430 0.930 . S
H435 C432 0.929 . S
S436 N437 1.613 . S
S436 N438 1.610 . S
N437 S436 1.613 . S
N437 C440 1.350 . S
N438 S436 1.610 . S
N438 C439 1.351 . S
C439 C433 1.428 . S
C439 N438 1.351 . S
C439 C440 1.434 . S
C440 C431 1.429 . S
C440 N437 1.350 . S
C440 C439 1.434 . S
C441 C442 1.369 . S
C441 C443 1.419 . S
C441 H445 0.930 . S
C442 C441 1.369 . S
C442 C451 1.429 . S
C443 C441 1.419 . S
C443 C444 1.363 . S
C443 H446 0.929 . S
C444 C443 1.363 . S
C444 C450 1.428 . S
H445 C441 0.930 . S
H446 C443 0.929 . S
S447 N448 1.613 . S
S447 N449 1.610 . S
N448 S447 1.613 . S
N448 C451 1.350 . S
N449 S447 1.610 . S
N449 C450 1.351 . S
C450 C444 1.428 . S
C450 N449 1.351 . S
C450 C451 1.434 . S
C451 C442 1.429 . S
C451 N448 1.350 . S
C451 C450 1.434 . S
C452 C453 1.369 . S
C452 C454 1.419 . S
C452 H456 0.930 . S
C453 C452 1.369 . S
C453 C462 1.429 . S
C454 C452 1.419 . S
C454 C455 1.363 . S
C454 H457 0.929 . S
C455 C454 1.363 . S
C455 C461 1.428 . S
H456 C452 0.930 . S
H457 C454 0.929 . S
S458 N459 1.613 . S
S458 N460 1.610 . S
N459 S458 1.613 . S
N459 C462 1.350 . S
N460 S458 1.610 . S
N460 C461 1.351 . S
C461 C455 1.428 . S
C461 N460 1.351 . S
C461 C462 1.434 . S
C462 C453 1.429 . S
C462 N459 1.350 . S
C462 C461 1.434 . S
C463 C464 1.369 . S
C463 C465 1.419 . S
C463 H467 0.930 . S
C464 C463 1.369 . S
C464 C473 1.429 . S
C465 C463 1.419 . S
C465 C466 1.363 . S
C465 H468 0.929 . S
C466 C465 1.363 . S
C466 C472 1.428 . S
H467 C463 0.930 . S
H468 C465 0.929 . S
S469 N470 1.613 . S
S469 N471 1.610 . S
N470 S469 1.613 . S
N470 C473 1.350 1_554 S
N471 S469 1.610 . S
N471 C472 1.351 1_554 S
C472 C466 1.428 . S
C472 N471 1.351 1_556 S
C472 C473 1.434 . S
C473 C464 1.429 . S
C473 N470 1.350 1_556 S
C473 C472 1.434 . S
C474 C475 1.369 1_655 S
C474 C476 1.419 . S
C474 H478 0.930 . S
C475 C474 1.369 1_455 S
C475 C484 1.429 . S
C476 C474 1.419 . S
C476 C477 1.363 . S
C476 H479 0.929 . S
C477 C476 1.363 . S
C477 C483 1.428 1_655 S
H478 C474 0.930 . S
H479 C476 0.929 . S
S480 N481 1.613 . S
S480 N482 1.610 . S
N481 S480 1.613 . S
N481 C484 1.350 . S
N482 S480 1.610 . S
N482 C483 1.351 . S
C483 C477 1.428 1_455 S
C483 N482 1.351 . S
C483 C484 1.434 . S
C484 C475 1.429 . S
C484 N481 1.350 . S
C484 C483 1.434 . S
C485 C486 1.369 . S
C485 C487 1.419 1_556 S
C485 H489 0.930 . S
C486 C485 1.369 . S
C486 C495 1.429 1_565 S
C487 C485 1.419 1_554 S
C487 C488 1.363 1_565 S
C487 H490 0.929 . S
C488 C487 1.363 1_545 S
C488 C494 1.428 . S
H489 C485 0.930 . S
H490 C487 0.929 . S
S491 N492 1.613 . S
S491 N493 1.610 1_556 S
N492 S491 1.613 . S
N492 C495 1.350 . S
N493 S491 1.610 1_554 S
N493 C494 1.351 . S
C494 C488 1.428 . S
C494 N493 1.351 . S
C494 C495 1.434 1_554 S
C495 C486 1.429 1_545 S
C495 N492 1.350 . S
C495 C494 1.434 1_556 S
C496 C497 1.369 . S
C496 C498 1.419 . S
C496 H500 0.930 . S
C497 C496 1.369 . S
C497 C506 1.429 . S
C498 C496 1.419 . S
C498 C499 1.363 . S
C498 H501 0.929 . S
C499 C498 1.363 . S
C499 C505 1.428 . S
H500 C496 0.930 . S
H501 C498 0.929 . S
S502 N503 1.613 . S
S502 N504 1.610 . S
N503 S502 1.613 . S
N503 C506 1.350 . S
N504 S502 1.610 . S
N504 C505 1.351 . S
C505 C499 1.428 . S
C505 N504 1.351 . S
C505 C506 1.434 . S
C506 C497 1.429 . S
C506 N503 1.350 . S
C506 C505 1.434 . S
C507 C508 1.369 . S
C507 C509 1.419 1_655 S
C507 H511 0.930 . S
C508 C507 1.369 . S
C508 C517 1.429 . S
C509 C507 1.419 1_455 S
C509 C510 1.363 . S
C509 H512 0.929 . S
C510 C509 1.363 . S
C510 C516 1.428 . S
H511 C507 0.930 . S
H512 C509 0.929 . S
S513 N514 1.613 . S
S513 N515 1.610 1_655 S
N514 S513 1.613 . S
N514 C517 1.350 . S
N515 S513 1.610 1_455 S
N515 C516 1.351 . S
C516 C510 1.428 . S
C516 N515 1.351 . S
C516 C517 1.434 1_455 S
C517 C508 1.429 . S
C517 N514 1.350 . S
C517 C516 1.434 1_655 S
C518 C519 1.369 . S
C518 C520 1.419 1_545 S
C518 H522 0.930 . S
C519 C518 1.369 . S
C519 C528 1.429 . S
C520 C518 1.419 1_565 S
C520 C521 1.363 . S
C520 H523 0.929 . S
C521 C520 1.363 . S
C521 C527 1.428 . S
H522 C518 0.930 . S
H523 C520 0.929 . S
S524 N525 1.613 . S
S524 N526 1.610 1_545 S
N525 S524 1.613 . S
N525 C528 1.350 . S
N526 S524 1.610 1_565 S
N526 C527 1.351 . S
C527 C521 1.428 . S
C527 N526 1.351 . S
C527 C528 1.434 1_565 S
C528 C519 1.429 . S
C528 N525 1.350 . S
C528 C527 1.434 1_545 S
C529 C530 1.369 . S
C529 C531 1.419 . S
C529 H533 0.930 . S
C530 C529 1.369 . S
C530 C539 1.429 . S
C531 C529 1.419 . S
C531 C532 1.363 . S
C531 H534 0.929 . S
C532 C531 1.363 . S
C532 C538 1.428 . S
H533 C529 0.930 . S
H534 C531 0.929 . S
S535 N536 1.613 . S
S535 N537 1.610 . S
N536 S535 1.613 . S
N536 C539 1.350 . S
N537 S535 1.610 . S
N537 C538 1.351 . S
C538 C532 1.428 . S
C538 N537 1.351 . S
C538 C539 1.434 . S
C539 C530 1.429 . S
C539 N536 1.350 . S
C539 C538 1.434 . S
C540 C541 1.369 . S
C540 C542 1.419 . S
C540 H544 0.930 . S
C541 C540 1.369 . S
C541 C550 1.429 . S
C542 C540 1.419 . S
C542 C543 1.363 . S
C542 H545 0.929 . S
C543 C542 1.363 . S
C543 C549 1.428 . S
H544 C540 0.930 . S
H545 C542 0.929 . S
S546 N547 1.613 . S
S546 N548 1.610 . S
N547 S546 1.613 . S
N547 C550 1.350 . S
N548 S546 1.610 . S
N548 C549 1.351 . S
C549 C543 1.428 . S
C549 N548 1.351 . S
C549 C550 1.434 . S
C550 C541 1.429 . S
C550 N547 1.350 . S
C550 C549 1.434 . S
C551 C552 1.369 . S
C551 C553 1.419 . S
C551 H555 0.930 . S
C552 C551 1.369 . S
C552 C561 1.429 . S
C553 C551 1.419 . S
C553 C554 1.363 . S
C553 H556 0.929 . S
C554 C553 1.363 . S
C554 C560 1.428 . S
H555 C551 0.930 . S
H556 C553 0.929 . S
S557 N558 1.613 . S
S557 N559 1.610 . S
N558 S557 1.613 . S
N558 C561 1.350 . S
N559 S557 1.610 . S
N559 C560 1.351 . S
C560 C554 1.428 . S
C560 N559 1.351 . S
C560 C561 1.434 . S
C561 C552 1.429 . S
C561 N558 1.350 . S
C561 C560 1.434 . S
C562 C563 1.369 . S
C562 C564 1.419 . S
C562 H566 0.930 . S
C563 C562 1.369 . S
C563 C572 1.429 . S
C564 C562 1.419 . S
C564 C565 1.363 . S
C564 H567 0.929 . S
C565 C564 1.363 . S
C565 C571 1.428 . S
H566 C562 0.930 . S
H567 C564 0.929 . S
S568 N569 1.613 . S
S568 N570 1.610 . S
N569 S568 1.613 . S
N569 C572 1.350 . S
N570 S568 1.610 . S
N570 C571 1.351 . S
C571 C565 1.428 . S
C571 N570 1.351 . S
C571 C572 1.434 . S
C572 C563 1.429 . S
C572 N569 1.350 . S
C572 C571 1.434 . S
C573 C574 1.369 . S
C573 C575 1.419 . S
C573 H577 0.930 . S
C574 C573 1.369 . S
C574 C583 1.429 . S
C575 C573 1.419 . S
C575 C576 1.363 . S
C575 H578 0.929 . S
C576 C575 1.363 . S
C576 C582 1.428 . S
H577 C573 0.930 . S
H578 C575 0.929 . S
S579 N580 1.613 . S
S579 N581 1.610 . S
N580 S579 1.613 . S
N580 C583 1.350 . S
N581 S579 1.610 . S
N581 C582 1.351 . S
C582 C576 1.428 . S
C582 N581 1.351 . S
C582 C583 1.434 . S
C583 C574 1.429 . S
C583 N580 1.350 . S
C583 C582 1.434 . S
C584 C585 1.369 . S
C584 C586 1.419 . S
C584 H588 0.930 . S
C585 C584 1.369 . S
C585 C594 1.429 . S
C586 C584 1.419 . S
C586 C587 1.363 . S
C586 H589 0.929 . S
C587 C586 1.363 . S
C587 C593 1.428 1_556 S
H588 C584 0.930 . S
H589 C586 0.929 . S
S590 N591 1.613 1_554 S
S590 N592 1.610 . S
N591 S590 1.613 1_556 S
N591 C594 1.350 . S
N592 S590 1.610 . S
N592 C593 1.351 . S
C593 C587 1.428 1_554 S
C593 N592 1.351 . S
C593 C594 1.434 1_554 S
C594 C585 1.429 . S
C594 N591 1.350 . S
C594 C593 1.434 1_556 S
C595 C596 1.369 . S
C595 C597 1.419 . S
C595 H599 0.930 . S
C596 C595 1.369 . S
C596 C605 1.429 . S
C597 C595 1.419 . S
C597 C598 1.363 . S
C597 H600 0.929 . S
C598 C597 1.363 . S
C598 C604 1.428 . S
H599 C595 0.930 . S
H600 C597 0.929 . S
S601 N602 1.613 1_556 S
S601 N603 1.610 . S
N602 S601 1.613 1_554 S
N602 C605 1.350 . S
N603 S601 1.610 . S
N603 C604 1.351 1_556 S
C604 C598 1.428 . S
C604 N603 1.351 1_554 S
C604 C605 1.434 . S
C605 C596 1.429 . S
C605 N602 1.350 . S
C605 C604 1.434 . S
C606 C607 1.369 . S
C606 C608 1.419 . S
C606 H610 0.930 . S
C607 C606 1.369 . S
C607 C616 1.429 . S
C608 C606 1.419 . S
C608 C609 1.363 . S
C608 H611 0.929 . S
C609 C608 1.363 . S
C609 C615 1.428 . S
H610 C606 0.930 . S
H611 C608 0.929 . S
S612 N613 1.613 . S
S612 N614 1.610 . S
N613 S612 1.613 . S
N613 C616 1.350 . S
N614 S612 1.610 . S
N614 C615 1.351 . S
C615 C609 1.428 . S
C615 N614 1.351 . S
C615 C616 1.434 . S
C616 C607 1.429 . S
C616 N613 1.350 . S
C616 C615 1.434 . S
C617 C618 1.369 . S
C617 C619 1.419 . S
C617 H621 0.930 . S
C618 C617 1.369 . S
C618 C627 1.429 . S
C619 C617 1.419 . S
C619 C620 1.363 . S
C619 H622 0.929 . S
C620 C619 1.363 . S
C620 C626 1.428 . S
H621 C617 0.930 . S
H622 C619 0.929 . S
S623 N624 1.613 . S
S623 N625 1.610 . S
N624 S623 1.613 . S
N624 C627 1.350 . S
N625 S623 1.610 . S
N625 C626 1.351 . S
C626 C620 1.428 . S
C626 N625 1.351 . S
C626 C627 1.434 . S
C627 C618 1.429 . S
C627 N624 1.350 . S
C627 C626 1.434 . S
C628 C629 1.369 . S
C628 C630 1.419 1_556 S
C628 H632 0.930 . S
C629 C628 1.369 . S
C629 C638 1.429 . S
C630 C628 1.419 1_554 S
C630 C631 1.363 . S
C630 H633 0.929 . S
C631 C630 1.363 . S
C631 C637 1.428 1_554 S
H632 C628 0.930 . S
H633 C630 0.929 . S
S634 N635 1.613 . S
S634 N636 1.610 . S
N635 S634 1.613 . S
N635 C638 1.350 . S
N636 S634 1.610 . S
N636 C637 1.351 . S
C637 C631 1.428 1_556 S
C637 N636 1.351 . S
C637 C638 1.434 . S
C638 C629 1.429 . S
C638 N635 1.350 . S
C638 C637 1.434 . S
C639 C640 1.369 . S
C639 C641 1.419 . S
C639 H643 0.930 1_554 S
C640 C639 1.369 . S
C640 C649 1.429 . S
C641 C639 1.419 . S
C641 C642 1.363 . S
C641 H644 0.929 . S
C642 C641 1.363 . S
C642 C648 1.428 . S
H643 C639 0.930 1_556 S
H644 C641 0.929 . S
S645 N646 1.613 . S
S645 N647 1.610 . S
N646 S645 1.613 . S
N646 C649 1.350 . S
N647 S645 1.610 . S
N647 C648 1.351 . S
C648 C642 1.428 . S
C648 N647 1.351 . S
C648 C649 1.434 . S
C649 C640 1.429 . S
C649 N646 1.350 . S
C649 C648 1.434 . S
C650 C651 1.369 . S
C650 C652 1.419 . S
C650 H654 0.930 . S
C651 C650 1.369 . S
C651 C660 1.429 . S
C652 C650 1.419 . S
C652 C653 1.363 . S
C652 H655 0.929 . S
C653 C652 1.363 . S
C653 C659 1.428 . S
H654 C650 0.930 . S
H655 C652 0.929 . S
S656 N657 1.613 . S
S656 N658 1.610 . S
N657 S656 1.613 . S
N657 C660 1.350 . S
N658 S656 1.610 . S
N658 C659 1.351 . S
C659 C653 1.428 . S
C659 N658 1.351 . S
C659 C660 1.434 . S
C660 C651 1.429 . S
C660 N657 1.350 . S
C660 C659 1.434 . S
C661 C662 1.369 . S
C661 C663 1.419 . S
C661 H665 0.930 . S
C662 C661 1.369 . S
C662 C671 1.429 . S
C663 C661 1.419 . S
C663 C664 1.363 . S
C663 H666 0.929 . S
C664 C663 1.363 . S
C664 C670 1.428 . S
H665 C661 0.930 . S
H666 C663 0.929 . S
S667 N668 1.613 . S
S667 N669 1.610 . S
N668 S667 1.613 . S
N668 C671 1.350 . S
N669 S667 1.610 . S
N669 C670 1.351 . S
C670 C664 1.428 . S
C670 N669 1.351 . S
C670 C671 1.434 . S
C671 C662 1.429 . S
C671 N668 1.350 . S
C671 C670 1.434 . S
C672 C673 1.369 . S
C672 C674 1.419 . S
C672 H676 0.930 . S
C673 C672 1.369 . S
C673 C682 1.429 . S
C674 C672 1.419 . S
C674 C675 1.363 . S
C674 H677 0.929 . S
C675 C674 1.363 . S
C675 C681 1.428 . S
H676 C672 0.930 . S
H677 C674 0.929 . S
S678 N679 1.613 . S
S678 N680 1.610 . S
N679 S678 1.613 . S
N679 C682 1.350 . S
N680 S678 1.610 . S
N680 C681 1.351 . S
C681 C675 1.428 . S
C681 N680 1.351 . S
C681 C682 1.434 . S
C682 C673 1.429 . S
C682 N679 1.350 . S
C682 C681 1.434 . S
C683 C684 1.369 . S
C683 C685 1.419 . S
C683 H687 0.930 . S
C684 C683 1.369 . S
C684 C693 1.429 . S
C685 C683 1.419 . S
C685 C686 1.363 . S
C685 H688 0.929 . S
C686 C685 1.363 . S
C686 C692 1.428 . S
H687 C683 0.930 . S
H688 C685 0.929 . S
S689 N690 1.613 . S
S689 N691 1.610 . S
N690 S689 1.613 . S
N690 C693 1.350 . S
N691 S689 1.610 . S
N691 C692 1.351 . S
C692 C686 1.428 . S
C692 N691 1.351 . S
C692 C693 1.434 . S
C693 C684 1.429 . S
C693 N690 1.350 . S
C693 C692 1.434 . S
C694 C695 1.369 . S
C694 C696 1.419 . S
C694 H698 0.930 . S
C695 C694 1.369 . S
C695 C704 1.429 . S
C696 C694 1.419 . S
C696 C697 1.363 . S
C696 H699 0.929 . S
C697 C696 1.363 . S
C697 C703 1.428 . S
H698 C694 0.930 . S
H699 C696 0.929 . S
S700 N701 1.613 . S
S700 N702 1.610 . S
N701 S700 1.613 . S
N701 C704 1.350 . S
N702 S700 1.610 . S
N702 C703 1.351 . S
C703 C697 1.428 . S
C703 N702 1.351 . S
C703 C704 1.434 . S
C704 C695 1.429 . S
C704 N701 1.350 . S
C704 C703 1.434 . S
C705 C706 1.369 . S
C705 C707 1.419 . S
C705 H709 0.930 . S
C706 C705 1.369 . S
C706 C715 1.429 . S
C707 C705 1.419 . S
C707 C708 1.363 . S
C707 H710 0.929 . S
C708 C707 1.363 . S
C708 C714 1.428 . S
H709 C705 0.930 . S
H710 C707 0.929 . S
S711 N712 1.613 . S
S711 N713 1.610 . S
N712 S711 1.613 . S
N712 C715 1.350 . S
N713 S711 1.610 . S
N713 C714 1.351 . S
C714 C708 1.428 . S
C714 N713 1.351 . S
C714 C715 1.434 . S
C715 C706 1.429 . S
C715 N712 1.350 . S
C715 C714 1.434 . S
C716 C717 1.369 . S
C716 C718 1.419 . S
C716 H720 0.930 . S
C717 C716 1.369 . S
C717 C726 1.429 . S
C718 C716 1.419 . S
C718 C719 1.363 . S
C718 H721 0.929 . S
C719 C718 1.363 . S
C719 C725 1.428 . S
H720 C716 0.930 . S
H721 C718 0.929 . S
S722 N723 1.613 . S
S722 N724 1.610 . S
N723 S722 1.613 . S
N723 C726 1.350 . S
N724 S722 1.610 . S
N724 C725 1.351 . S
C725 C719 1.428 . S
C725 N724 1.351 . S
C725 C726 1.434 . S
C726 C717 1.429 . S
C726 N723 1.350 . S
C726 C725 1.434 . S
C727 C728 1.369 . S
C727 C729 1.419 . S
C727 H731 0.930 . S
C728 C727 1.369 . S
C728 C737 1.429 . S
C729 C727 1.419 . S
C729 C730 1.363 1_554 S
C729 H732 0.929 . S
C730 C729 1.363 1_556 S
C730 C736 1.428 . S
H731 C727 0.930 . S
H732 C729 0.929 . S
S733 N734 1.613 1_556 S
S733 N735 1.610 . S
N734 S733 1.613 1_554 S
N734 C737 1.350 . S
N735 S733 1.610 . S
N735 C736 1.351 . S
C736 C730 1.428 . S
C736 N735 1.351 . S
C736 C737 1.434 1_556 S
C737 C728 1.429 . S
C737 N734 1.350 . S
C737 C736 1.434 1_554 S
C409 C305 1.544 . S
C411 C33 1.545 . S
C420 C339 1.546 . S
C422 C67 1.542 . S
C431 C373 1.545 . S
C433 C101 1.542 . S
C442 C407 1.541 . S
C444 C135 1.546 . S
C453 C169 1.545 . S
C455 C237 1.544 . S
C464 C271 1.546 . S
C466 C203 1.544 . S
C475 C2 1.821 1_556 S
C477 C376 1.830 . S
C486 C206 1.830 . S
C488 C36 1.823 . S
C497 C70 1.826 . S
C499 C240 1.825 1_554 S
C508 C104 1.823 . S
C510 C274 1.829 . S
C519 C308 1.824 . S
C521 C138 1.828 . S
C530 C172 1.821 . S
C532 C342 1.829 . S
C541 C20 1.640 . S
C543 C360 1.644 . S
C552 C54 1.639 . S
C554 C394 1.644 . S
C563 C224 1.645 . S
C565 C88 1.641 . S
C574 C258 1.645 . S
C576 C122 1.640 . S
C585 C156 1.639 . S
C587 C292 1.644 1_556 S
C596 C326 1.640 . S
C598 C190 1.644 1_554 S
C607 C9 1.103 . S
C609 C5 1.264 . S
C618 C39 1.263 . S
C620 C43 1.115 . S
C629 C77 1.116 . S
C631 C73 1.263 . S
C640 C111 1.114 1_554 S
C642 C107 1.258 . S
C651 C141 1.267 . S
C653 C145 1.111 . S
C662 C175 1.256 . S
C664 C179 1.119 . S
C673 C209 1.255 . S
C675 C213 1.119 . S
C684 C243 1.269 . S
C686 C247 1.102 . S
C695 C277 1.254 . S
C697 C281 1.119 . S
C706 C311 1.256 . S
C708 C315 1.119 . S
C717 C345 1.256 . S
C719 C349 1.113 1_556 S
C728 C383 1.120 . S
C730 C379 1.256 . S
