# Generated by pormake.
# Topology rob, (6)-cn, num edge types: 1
# Building blocks:
#     Node 0, Type 0, BuildingBlock: CUWYAW_clean_sbu_0, # of connection points: 6
#     Node 1, Type 0, BuildingBlock: CUWYAW_clean_sbu_0, # of connection points: 6
#     Node 2, Type 0, BuildingBlock: CUWYAW_clean_sbu_0, # of connection points: 6
#     Node 3, Type 0, BuildingBlock: CUWYAW_clean_sbu_0, # of connection points: 6
#     Edge 4, Type (0, 0), BuildingBlock: TEMPAE_clean_linker_10, # of connection points: 2
#     Edge 5, Type (0, 0), BuildingBlock: TEMPAE_clean_linker_10, # of connection points: 2
#     Edge 6, Type (0, 0), BuildingBlock: TEMPAE_clean_linker_10, # of connection points: 2
#     Edge 7, Type (0, 0), BuildingBlock: TEMPAE_clean_linker_10, # of connection points: 2
#     Edge 8, Type (0, 0), BuildingBlock: TEMPAE_clean_linker_10, # of connection points: 2
#     Edge 9, Type (0, 0), BuildingBlock: TEMPAE_clean_linker_10, # of connection points: 2
#     Edge 10, Type (0, 0), BuildingBlock: TEMPAE_clean_linker_10, # of connection points: 2
#     Edge 11, Type (0, 0), BuildingBlock: TEMPAE_clean_linker_10, # of connection points: 2
#     Edge 12, Type (0, 0), BuildingBlock: TEMPAE_clean_linker_10, # of connection points: 2
#     Edge 13, Type (0, 0), BuildingBlock: TEMPAE_clean_linker_10, # of connection points: 2
#     Edge 14, Type (0, 0), BuildingBlock: TEMPAE_clean_linker_10, # of connection points: 2
#     Edge 15, Type (0, 0), BuildingBlock: TEMPAE_clean_linker_10, # of connection points: 2
# Relax obj value: 0.038
# Max RMSD: 0.142
# Mean RMSD: 0.142
data_MOF--net-rob--node1-CUWYAW_clean_sbu_0--edge1-TEMPAE_clean_linker_10
_symmetry_space_group_name_H-M    P1
_symmetry_Int_Tables_number       1
_symmetry_cell_setting            triclinic
loop_
_symmetry_equiv_pos_as_xyz
'x, y, z'
_cell_length_a     16.20514
_cell_length_b     24.328193
_cell_length_c     36.974921
_cell_angle_alpha  94.660798
_cell_angle_beta   89.989161
_cell_angle_gamma 89.803689
loop_
_atom_site_label
_atom_site_type_symbol
_atom_site_fract_x
_atom_site_fract_y
_atom_site_fract_z
_atom_type_partial_charge
C0 C 0.46561 0.22223 0.96826 0.0
Eu1 Eu 0.33478 0.23813 1.0087 0.0
C2 C 0.48058 0.22032 0.9286 0.0
C3 C 0.43612 0.18461 0.90394 0.0
C4 C 0.44869 0.18539 0.86648 0.0
C5 C 0.50514 0.22234 0.85282 0.0
C6 C 0.54968 0.25784 0.87759 0.0
C7 C 0.53766 0.25671 0.91501 0.0
C8 C 0.21736 0.16327 0.02136 0.0
C9 C 0.18937 0.27972 0.95411 0.0
C10 C 0.04503 0.30675 0.07964 0.0
Eu11 Eu 0.17601 0.28745 0.03961 0.0
C12 C 0.02605 0.30295 0.11855 0.0
C13 C 0.9899 0.34803 0.13878 0.0
C14 C 0.97499 0.3462 0.17598 0.0
C15 C 0.99587 0.2991 0.19386 0.0
C16 C 0.031 0.25364 0.17332 0.0
C17 C 0.04626 0.25561 0.13618 0.0
C18 C 0.29407 0.36128 0.02581 0.0
C19 C 0.32019 0.2446 0.09383 0.0
O20 O 0.44476 0.27046 0.98391 0.0
O21 O 0.42304 0.18193 0.98041 0.0
O22 O 0.29569 0.15524 0.02657 0.0
O23 O 0.20525 0.20885 1.00817 0.0
O24 O 0.26771 0.2672 0.95955 0.0
O25 O 0.13599 0.28517 0.9812 0.0
O26 O 0.05782 0.26035 0.05987 0.0
O27 O 0.09722 0.34519 0.0723 0.0
O28 O 0.21601 0.36945 0.02033 0.0
O29 O 0.30546 0.31663 0.04012 0.0
O30 O 0.2408 0.25328 0.08786 0.0
O31 O 0.37459 0.2435 0.06716 0.0
H32 H 0.39085 0.15651 0.91349 0.0
H33 H 0.4129 0.15783 0.84817 0.0
H34 H 0.59455 0.28622 0.86806 0.0
H35 H 0.57255 0.28474 0.93339 0.0
H36 H 0.97362 0.38495 0.12582 0.0
H37 H 0.94627 0.38158 0.19063 0.0
H38 H 0.0481 0.21671 0.18601 0.0
H39 H 0.07478 0.22024 0.1214 0.0
C40 C 0.9677 0.7243 0.96952 0.0
Eu41 Eu 0.83507 0.73965 1.00872 0.0
C42 C 0.98523 0.72486 0.93036 0.0
C43 C 0.9376 0.69393 0.90426 0.0
C44 C 0.9539 0.69614 0.86727 0.0
C45 C 0.01733 0.7298 0.85569 0.0
C46 C 0.06415 0.76122 0.88179 0.0
C47 C 0.0484 0.7586 0.91878 0.0
C48 C 0.71926 0.66314 0.02058 0.0
C49 C 0.68939 0.78159 0.9553 0.0
C50 C 0.54157 0.80338 0.07948 0.0
Eu51 Eu 0.67527 0.78686 0.04083 0.0
C52 C 0.52141 0.80174 0.11826 0.0
C53 C 0.46507 0.83976 0.13475 0.0
C54 C 0.44693 0.83944 0.17174 0.0
C55 C 0.48515 0.80114 0.19298 0.0
C56 C 0.54169 0.7631 0.17624 0.0
C57 C 0.55946 0.76331 0.13928 0.0
C58 C 0.79069 0.86268 0.02738 0.0
C59 C 0.82219 0.74549 0.0941 0.0
O60 O 0.94785 0.77188 0.9863 0.0
O61 O 0.92232 0.68386 0.97963 0.0
O62 O 0.79785 0.65564 0.02516 0.0
O63 O 0.70587 0.70931 1.00835 0.0
O64 O 0.7687 0.77169 0.96043 0.0
O65 O 0.63594 0.78336 0.98235 0.0
O66 O 0.5603 0.75619 0.06185 0.0
O67 O 0.59031 0.84322 0.07127 0.0
O68 O 0.71199 0.87083 0.02383 0.0
O69 O 0.80405 0.81734 0.04061 0.0
O70 O 0.74274 0.75524 0.0891 0.0
O71 O 0.87522 0.74323 0.06692 0.0
H72 H 0.88747 0.66826 0.91235 0.0
H73 H 0.91626 0.67203 0.84769 0.0
H74 H 0.11375 0.78725 0.87359 0.0
H75 H 0.08538 0.78316 0.9384 0.0
H76 H 0.43503 0.86972 0.119 0.0
H77 H 0.40215 0.86876 0.18359 0.0
H78 H 0.57307 0.73348 0.19179 0.0
H79 H 0.60328 0.73354 0.1272 0.0
C80 C 0.47062 0.79471 0.57905 0.0
Eu81 Eu 0.33629 0.78544 0.54046 0.0
C82 C 0.48852 0.79643 0.61825 0.0
C83 C 0.43685 0.82514 0.64392 0.0
C84 C 0.45332 0.8247 0.68105 0.0
C85 C 0.52095 0.79489 0.69317 0.0
C86 C 0.57198 0.76577 0.66744 0.0
C87 C 0.55602 0.7667 0.63032 0.0
C88 C 0.22445 0.86592 0.53068 0.0
C89 C 0.18826 0.74839 0.59449 0.0
C90 C 0.04012 0.73334 0.47023 0.0
Eu91 Eu 0.17331 0.74441 0.50939 0.0
C92 C 0.02334 0.73087 0.43074 0.0
C93 C 0.04965 0.68586 0.40718 0.0
C94 C 0.03559 0.68522 0.36981 0.0
C95 C 0.99541 0.72965 0.35518 0.0
C96 C 0.96908 0.77455 0.37875 0.0
C97 C 0.98258 0.77503 0.41611 0.0
C98 C 0.28584 0.66423 0.51927 0.0
C99 C 0.31981 0.78314 0.45536 0.0
O100 O 0.44337 0.74757 0.56429 0.0
O101 O 0.43115 0.837 0.56757 0.0
O102 O 0.3032 0.87131 0.52545 0.0
O103 O 0.20916 0.81989 0.5426 0.0
O104 O 0.26813 0.75517 0.5889 0.0
O105 O 0.13433 0.7494 0.5678 0.0
O106 O 0.06575 0.78087 0.48511 0.0
O107 O 0.07951 0.69163 0.4825 0.0
O108 O 0.20728 0.6589 0.52494 0.0
O109 O 0.30047 0.71013 0.50707 0.0
O110 O 0.2402 0.77594 0.46117 0.0
O111 O 0.3743 0.78179 0.48183 0.0
H112 H 0.38339 0.84754 0.63532 0.0
H113 H 0.41244 0.84692 0.70033 0.0
H114 H 0.6248 0.74274 0.67604 0.0
H115 H 0.59613 0.74387 0.611 0.0
H116 H 0.08164 0.65124 0.41748 0.0
H117 H 0.05707 0.65024 0.35229 0.0
H118 H 0.93695 0.80906 0.36834 0.0
H119 H 0.96147 0.81018 0.4336 0.0
C120 C 0.97153 0.30325 0.57664 0.0
Eu121 Eu 0.83125 0.28518 0.54361 0.0
C122 C 0.99583 0.30376 0.61549 0.0
C123 C 0.98764 0.35201 0.63895 0.0
C124 C 0.0051 0.35149 0.676 0.0
C125 C 0.03163 0.30279 0.69059 0.0
C126 C 0.04162 0.25487 0.66697 0.0
C127 C 0.02411 0.25536 0.62991 0.0
C128 C 0.70878 0.36104 0.53972 0.0
C129 C 0.68457 0.24484 0.59279 0.0
C130 C 0.53662 0.22527 0.47137 0.0
Eu131 Eu 0.67681 0.24321 0.50455 0.0
C132 C 0.51271 0.22953 0.43312 0.0
C133 C 0.45692 0.19176 0.4162 0.0
C134 C 0.43915 0.19272 0.37916 0.0
C135 C 0.4771 0.23144 0.35826 0.0
C136 C 0.53238 0.26963 0.37548 0.0
C137 C 0.55002 0.26864 0.41247 0.0
C138 C 0.79974 0.16754 0.50865 0.0
C139 C 0.82311 0.2838 0.45568 0.0
O140 O 0.95143 0.25539 0.5603 0.0
O141 O 0.92234 0.34283 0.56787 0.0
O142 O 0.75532 0.35745 0.56794 0.0
O143 O 0.73071 0.32609 0.5145 0.0
O144 O 0.76502 0.25153 0.59016 0.0
O145 O 0.63587 0.24525 0.56395 0.0
O146 O 0.55402 0.27157 0.49038 0.0
O147 O 0.58939 0.18607 0.47687 0.0
O148 O 0.75355 0.17106 0.48032 0.0
O149 O 0.77705 0.2024 0.53375 0.0
O150 O 0.7424 0.27946 0.45875 0.0
O151 O 0.87223 0.28091 0.48416 0.0
H152 H 0.96636 0.39012 0.62882 0.0
H153 H 0.99609 0.38907 0.69336 0.0
H154 H 0.06346 0.21688 0.67706 0.0
H155 H 0.03189 0.21756 0.61264 0.0
H156 H 0.42787 0.16101 0.43154 0.0
H157 H 0.39548 0.16319 0.36692 0.0
H158 H 0.56352 0.29956 0.36022 0.0
H159 H 0.59393 0.29795 0.42477 0.0
C160 C 0.68119 0.56479 0.02685 0.0
C161 C 0.65675 0.619 0.02183 0.0
C162 C 0.62304 0.52204 0.02694 0.0
C163 C 0.53807 0.53402 0.02292 0.0
C164 C 0.513 0.58889 0.01834 0.0
C165 C 0.57277 0.6305 0.01722 0.0
C166 C 0.65264 0.46392 0.03095 0.0
C167 C 0.42299 0.60372 1.01478 0.0
C168 C 0.38868 0.41892 0.99193 0.0
C169 C 0.35671 0.40476 0.02503 0.0
C170 C 0.44876 0.46035 0.99083 0.0
C171 C 0.47546 0.48919 0.02362 0.0
C172 C 0.4423 0.4751 0.05712 0.0
C173 C 0.38406 0.43245 0.05743 0.0
C174 C 0.48407 0.47297 0.95466 0.0
C175 C 0.4676 0.50551 0.09258 0.0
H176 H 0.74612 0.55554 0.0301 0.0
H177 H 0.55362 0.67212 1.01282 0.0
H178 H 0.62591 0.44843 0.05578 0.0
H179 H 0.63129 0.43615 1.00755 0.0
H180 H 0.72096 0.46116 0.0326 0.0
H181 H 0.41346 0.64866 1.01296 0.0
H182 H 0.39656 0.58127 0.99019 0.0
H183 H 0.388 0.59088 0.03847 0.0
H184 H 0.36743 0.39703 0.96695 0.0
H185 H 0.35872 0.42131 0.08297 0.0
H186 H 0.55224 0.46853 0.955 0.0
H187 H 0.4701 0.5163 0.94949 0.0
H188 H 0.45907 0.4454 0.93186 0.0
H189 H 0.53487 0.50062 0.09687 0.0
H190 H 0.43441 0.49051 0.11615 0.0
H191 H 0.45513 0.55027 0.09175 0.0
C192 C 0.32388 0.56869 0.53375 0.0
C193 C 0.34763 0.61965 0.52195 0.0
C194 C 0.38142 0.52572 0.53614 0.0
C195 C 0.46495 0.53394 0.52665 0.0
C196 C 0.48922 0.5854 0.51473 0.0
C197 C 0.43025 0.62757 0.51244 0.0
C198 C 0.35286 0.47156 0.54894 0.0
C199 C 0.57762 0.59603 0.50455 0.0
C200 C 0.62896 0.44305 0.56573 0.0
C201 C 0.64562 0.40454 0.53631 0.0
C202 C 0.57047 0.48531 0.56292 0.0
C203 C 0.52717 0.48908 0.52992 0.0
C204 C 0.54339 0.44998 0.50018 0.0
C205 C 0.6026 0.40829 0.5037 0.0
C206 C 0.55521 0.52606 0.59528 0.0
C207 C 0.49843 0.4523 0.46458 0.0
H208 H 0.26007 0.56232 0.54111 0.0
H209 H 0.4489 0.66681 0.50317 0.0
H210 H 0.36712 0.43743 0.5281 0.0
H211 H 0.3865 0.46287 0.57399 0.0
H212 H 0.28556 0.4714 0.55466 0.0
H213 H 0.5864 0.63807 0.49552 0.0
H214 H 0.61855 0.59107 0.52812 0.0
H215 H 0.59766 0.56537 0.48241 0.0
H216 H 0.66202 0.44033 0.59101 0.0
H217 H 0.61547 0.37874 0.48084 0.0
H218 H 0.48939 0.52492 0.60344 0.0
H219 H 0.56824 0.56852 0.588 0.0
H220 H 0.59402 0.51752 0.61896 0.0
H221 H 0.43085 0.45011 0.46902 0.0
H222 H 0.51685 0.41817 0.44435 0.0
H223 H 0.51112 0.49214 0.45308 0.0
C224 C 0.17186 0.07142 0.0397 0.0
C225 C 0.1534 0.1204 0.02384 0.0
C226 C 0.11272 0.02947 0.04109 0.0
C227 C 0.03345 0.03644 0.02591 0.0
C228 C 0.01436 0.08611 1.01012 0.0
C229 C 0.0744 0.12762 1.00948 0.0
C230 C 0.13525 0.97751 0.05859 0.0
C231 C 0.93087 0.09509 0.99343 0.0
C232 C 0.908 0.90764 0.99812 0.0
C233 C 0.85233 0.90687 0.02696 0.0
C234 C 0.96726 0.94962 0.99738 0.0
C235 C 0.97077 0.99162 0.02628 0.0
C236 C 0.91426 0.99076 0.05551 0.0
C237 C 0.85532 0.94845 0.05538 0.0
C238 C 0.02575 0.94917 0.96557 0.0
C239 C 0.91632 0.03435 0.08697 0.0
H240 H 0.23275 0.06579 0.05098 0.0
H241 H 0.05987 0.16541 0.99714 0.0
H242 H 0.09108 0.97072 0.08071 0.0
H243 H 0.13085 0.94139 0.03836 0.0
H244 H 0.19869 0.97908 0.07 0.0
H245 H 0.92564 0.13608 0.98238 0.0
H246 H 0.91935 0.06266 0.97115 0.0
H247 H 0.88167 0.09162 1.01397 0.0
H248 H 0.90453 0.87573 0.97595 0.0
H249 H 0.81188 0.94756 0.07763 0.0
H250 H 0.09049 0.9478 0.9752 0.0
H251 H 0.01829 0.98771 0.95177 0.0
H252 H 0.01532 0.91341 0.94545 0.0
H253 H 0.9779 0.03477 0.10011 0.0
H254 H 0.86865 0.02751 0.10772 0.0
H255 H 0.90638 0.07571 0.07708 0.0
C256 C 0.88184 0.08658 0.48265 0.0
C257 C 0.86346 0.12444 0.5122 0.0
C258 C 0.94086 0.04467 0.48558 0.0
C259 C 0.98287 0.04058 0.51886 0.0
C260 C 0.96492 0.07904 0.54875 0.0
C261 C 0.90529 0.12042 0.54508 0.0
C262 C 0.95795 1.00457 0.45307 0.0
C263 C 0.00854 0.0764 0.58464 0.0
C264 C 0.07969 0.90212 0.53636 0.0
C265 C 0.16271 0.91044 0.52769 0.0
C266 C 0.02062 0.94412 0.53373 0.0
C267 C 0.0452 0.99587 0.52236 0.0
C268 C 0.12912 1.0045 0.51372 0.0
C269 C 0.18677 0.96166 0.51641 0.0
C270 C 0.93181 0.93304 0.54301 0.0
C271 C 0.15798 0.05898 0.50153 0.0
H272 H 0.84973 0.08953 0.45716 0.0
H273 H 0.89107 0.14945 0.56806 0.0
H274 H 0.02413 1.00613 0.44555 0.0
H275 H 0.94486 0.96187 0.45987 0.0
H276 H 0.92022 1.01342 0.42912 0.0
H277 H 0.98721 0.10911 0.60528 0.0
H278 H 0.9981 0.03563 0.59525 0.0
H279 H 0.07604 0.08083 0.58086 0.0
H280 H 0.06078 0.86268 0.54522 0.0
H281 H 0.25088 0.96834 0.5097 0.0
H282 H 0.89198 0.93826 0.51912 0.0
H283 H 0.91059 0.96329 0.56516 0.0
H284 H 0.92281 0.89078 0.55164 0.0
H285 H 0.12541 0.06795 0.47628 0.0
H286 H 0.22552 0.05943 0.4964 0.0
H287 H 0.14266 0.09278 0.52245 0.0
C288 C 0.44887 0.28189 0.30275 0.0
C289 C 0.45951 0.23186 0.31863 0.0
C290 C 0.43084 0.2829 0.26561 0.0
C291 C 0.42312 0.23267 0.24368 0.0
C292 C 0.43512 0.18204 0.25938 0.0
C293 C 0.45313 0.18224 0.2966 0.0
C294 C 0.41822 0.33779 0.25003 0.0
C295 C 0.42752 0.12758 0.23697 0.0
C296 C 0.28891 0.23546 0.15947 0.0
C297 C 0.34762 0.23844 0.13173 0.0
C298 C 0.31282 0.23274 0.19579 0.0
C299 C 0.39766 0.23314 0.20486 0.0
C300 C 0.45743 0.23525 0.17701 0.0
C301 C 0.43174 0.23776 0.14078 0.0
C302 C 0.2471 0.23044 0.22461 0.0
C303 C 0.5485 0.23592 0.18561 0.0
H304 H 0.4528 0.32042 0.31955 0.0
H305 H 0.46263 0.1434 0.30844 0.0
H306 H 0.45909 0.34097 0.22622 0.0
H307 H 0.35368 0.34115 0.24043 0.0
H308 H 0.43086 0.37315 0.27018 0.0
H309 H 0.44228 0.09195 0.25284 0.0
H310 H 0.3637 0.12267 0.22637 0.0
H311 H 0.46947 0.12661 0.21321 0.0
H312 H 0.22379 0.23575 0.15293 0.0
H313 H 0.47764 0.2402 0.11966 0.0
H314 H 0.25029 0.26797 0.24372 0.0
H315 H 0.25761 0.1944 0.2406 0.0
H316 H 0.18407 0.22754 0.21297 0.0
H317 H 0.56347 0.27318 0.20369 0.0
H318 H 0.58725 0.2358 0.16081 0.0
H319 H 0.56517 0.19953 0.20035 0.0
C320 C 0.45622 0.75007 0.24794 0.0
C321 C 0.46539 0.80037 0.2323 0.0
C322 C 0.43599 0.74857 0.28476 0.0
C323 C 0.42401 0.79858 0.30652 0.0
C324 C 0.43402 0.84951 0.29107 0.0
C325 C 0.4548 0.8498 0.25419 0.0
C326 C 0.42592 0.6934 0.30022 0.0
C327 C 0.4217 0.9037 0.31338 0.0
C328 C 0.28869 0.79178 0.38983 0.0
C329 C 0.34731 0.78999 0.4177 0.0
C330 C 0.31283 0.79543 0.35369 0.0
C331 C 0.3978 0.79738 0.34505 0.0
C332 C 0.45737 0.79653 0.37306 0.0
C333 C 0.43141 0.79288 0.40908 0.0
C334 C 0.24723 0.7963 0.32468 0.0
C335 C 0.54854 0.79836 0.36486 0.0
H336 H 0.46314 0.71166 0.2312 0.0
H337 H 0.46309 0.88886 0.24253 0.0
H338 H 0.46632 0.69101 0.32426 0.0
H339 H 0.36136 0.68868 0.30943 0.0
H340 H 0.44108 0.65836 0.28013 0.0
H341 H 0.43407 0.93973 0.29758 0.0
H342 H 0.35735 0.9067 0.32363 0.0
H343 H 0.463 0.90596 0.33738 0.0
H344 H 0.22347 0.78969 0.39609 0.0
H345 H 0.47712 0.79148 0.43038 0.0
H346 H 0.25477 0.76002 0.30473 0.0
H347 H 0.25404 0.8337 0.30967 0.0
H348 H 0.18376 0.79572 0.33603 0.0
H349 H 0.56636 0.76167 0.34671 0.0
H350 H 0.58689 0.79929 0.3898 0.0
H351 H 0.56292 0.83531 0.35033 0.0
C352 C 0.71828 0.79196 0.88975 0.0
C353 C 0.66058 0.78785 0.91774 0.0
C354 C 0.69298 0.79483 0.85366 0.0
C355 C 0.60778 0.79321 0.84518 0.0
C356 C 0.54908 0.78979 0.87331 0.0
C357 C 0.57617 0.7874 0.9093 0.0
C358 C 0.75766 0.7988 0.82456 0.0
C359 C 0.45776 0.78734 0.86527 0.0
C360 C 0.54218 0.84381 0.75474 0.0
C361 C 0.53886 0.79434 0.73252 0.0
C362 C 0.56347 0.84407 0.7916 0.0
C363 C 0.5806 0.79356 0.80668 0.0
C364 C 0.57498 0.74337 0.78455 0.0
C365 C 0.55479 0.74442 0.74768 0.0
C366 C 0.56983 0.89848 0.81415 0.0
C367 C 0.59149 0.68859 0.7997 0.0
H368 H 0.78368 0.79253 0.89592 0.0
H369 H 0.53117 0.78396 0.93068 0.0
H370 H 0.75415 0.7622 0.80467 0.0
H371 H 0.746 0.8357 0.80951 0.0
H372 H 0.82125 0.80135 0.83582 0.0
H373 H 0.41997 0.78607 0.89026 0.0
H374 H 0.43866 0.82371 0.85102 0.0
H375 H 0.44397 0.75012 0.84693 0.0
H376 H 0.53045 0.8825 0.743 0.0
H377 H 0.55125 0.70607 0.73063 0.0
H378 H 0.63419 0.90474 0.82383 0.0
H379 H 0.52989 0.89827 0.8385 0.0
H380 H 0.55177 0.93392 0.79869 0.0
H381 H 0.65651 0.68673 0.80891 0.0
H382 H 0.58018 0.65319 0.77941 0.0
H383 H 0.55171 0.68405 0.82369 0.0
C384 C 0.70381 0.23414 0.65897 0.0
C385 C 0.65 0.23729 0.62939 0.0
C386 C 0.67397 0.22991 0.69424 0.0
C387 C 0.58784 0.22868 0.70043 0.0
C388 C 0.5329 0.23082 0.67071 0.0
C389 C 0.56462 0.23511 0.63551 0.0
C390 C 0.73499 0.22774 0.72502 0.0
C391 C 0.44068 0.22954 0.67621 0.0
C392 C 0.52643 0.17471 0.79047 0.0
C393 C 0.51846 0.22377 0.81297 0.0
C394 C 0.54533 0.17564 0.75337 0.0
C395 C 0.55634 0.22685 0.73832 0.0
C396 C 0.54484 0.2765 0.76057 0.0
C397 C 0.52617 0.27435 0.79755 0.0
C398 C 0.55711 0.12175 0.73068 0.0
C399 C 0.55543 0.332 0.74564 0.0
H400 H 0.76993 0.23558 0.65477 0.0
H401 H 0.52249 0.23758 0.61293 0.0
H402 H 0.72554 0.26375 0.74501 0.0
H403 H 0.72479 0.19008 0.73942 0.0
H404 H 0.80007 0.22784 0.71555 0.0
H405 H 0.4063 0.22913 0.6502 0.0
H406 H 0.42324 0.19255 0.69011 0.0
H407 H 0.42096 0.26618 0.69397 0.0
H408 H 0.52097 0.13544 0.80215 0.0
H409 H 0.51847 0.31245 0.81456 0.0
H410 H 0.62302 0.11676 0.72293 0.0
H411 H 0.52087 0.12165 0.70522 0.0
H412 H 0.5384 0.08574 0.74538 0.0
H413 H 0.6209 0.33747 0.73793 0.0
H414 H 0.53754 0.36659 0.7656 0.0
H415 H 0.51776 0.33438 0.72077 0.0
C416 C 0.79978 0.7535 0.16124 0.0
C417 C 0.85202 0.73975 0.13157 0.0
C418 C 0.82707 0.75024 0.19699 0.0
C419 C 0.90866 0.73249 0.20339 0.0
C420 C 0.96166 0.71806 0.17362 0.0
C421 C 0.9328 0.72203 0.13804 0.0
C422 C 0.76859 0.76624 0.22794 0.0
C423 C 0.04896 0.69876 0.1794 0.0
C424 C 0.9935 0.77607 0.2971 0.0
C425 C 0.97931 0.72889 0.31558 0.0
C426 C 0.97359 0.77713 0.26021 0.0
C427 C 0.93825 0.72994 0.24136 0.0
C428 C 0.92619 0.6816 0.25959 0.0
C429 C 0.94701 0.68162 0.29647 0.0
C430 C 0.98798 0.82936 0.24171 0.0
C431 C 0.88865 0.63046 0.24047 0.0
H432 H 0.73764 0.76783 0.15665 0.0
H433 H 0.9736 0.71126 0.11532 0.0
H434 H 0.75762 0.73025 0.24389 0.0
H435 H 0.79629 0.79918 0.24657 0.0
H436 H 0.70817 0.7812 0.21841 0.0
H437 H 0.08191 0.68814 0.1534 0.0
H438 H 0.08406 0.73143 0.19537 0.0
H439 H 0.04867 0.66198 0.19527 0.0
H440 H 0.01972 0.8124 0.31162 0.0
H441 H 0.93542 0.64516 0.31068 0.0
H442 H 0.92789 0.84681 0.23379 0.0
H443 H 0.02432 0.82026 0.21649 0.0
H444 H 0.02108 0.8611 0.25943 0.0
H445 H 0.82384 0.63906 0.23301 0.0
H446 H 0.88919 0.59502 0.25763 0.0
H447 H 0.92254 0.61851 0.21495 0.0
C448 C 0.80419 0.30611 0.39145 0.0
C449 C 0.85725 0.29107 0.41905 0.0
C450 C 0.8322 0.30894 0.35576 0.0
C451 C 0.91551 0.2961 0.34711 0.0
C452 C 0.97012 0.28215 0.37495 0.0
C453 C 0.94042 0.28003 0.41067 0.0
C454 C 0.77184 0.32446 0.32712 0.0
C455 C 0.05925 0.26788 0.36677 0.0
C456 C 0.95213 0.24889 0.24769 0.0
C457 C 0.98043 0.29736 0.23365 0.0
C458 C 0.93411 0.24733 0.28479 0.0
C459 C 0.9438 0.29552 0.3086 0.0
C460 C 0.97426 0.34418 0.29485 0.0
C461 C 0.99251 0.34445 0.25767 0.0
C462 C 0.90206 0.1945 0.2983 0.0
C463 C 0.9852 0.39651 0.31922 0.0
H464 H 0.73995 0.31519 0.3976 0.0
H465 H 0.98172 0.26811 0.43174 0.0
H466 H 0.79625 0.35939 0.31288 0.0
H467 H 0.76356 0.28916 0.30651 0.0
H468 H 0.71043 0.33633 0.33868 0.0
H469 H 0.09483 0.26079 0.39166 0.0
H470 H 0.06262 0.23004 0.34793 0.0
H471 H 0.08915 0.30145 0.35301 0.0
H472 H 0.94164 0.2124 0.22949 0.0
H473 H 0.01597 0.38181 0.24737 0.0
H474 H 0.83706 0.20035 0.30728 0.0
H475 H 0.93834 0.18346 0.32212 0.0
H476 H 0.90467 0.15947 0.27709 0.0
H477 H 0.92422 0.41133 0.3297 0.0
H478 H 0.01435 0.42984 0.30489 0.0
H479 H 0.02374 0.38844 0.34302 0.0
C480 C 0.02562 0.25642 0.74898 0.0
C481 C 0.0488 0.3019 0.73024 0.0
C482 C 0.04391 0.25412 0.78599 0.0
C483 C 0.08594 0.29854 0.80498 0.0
C484 C 0.10757 0.34522 0.78652 0.0
C485 C 0.08907 0.34625 0.74942 0.0
C486 C 0.0199 0.20352 0.80458 0.0
C487 C 0.15215 0.39355 0.80574 0.0
C488 C 0.08447 0.30768 0.90862 0.0
C489 C 0.16201 0.28548 0.91619 0.0
C490 C 0.05905 0.31281 0.87259 0.0
C491 C 0.11195 0.29462 0.84345 0.0
C492 C 0.19018 0.27214 0.85098 0.0
C493 C 0.21431 0.26811 0.88712 0.0
C494 C 0.97576 0.33785 0.86569 0.0
C495 C 0.24824 0.25172 0.82079 0.0
H496 H 0.99302 0.22244 0.73466 0.0
H497 H 0.10802 0.38136 0.73521 0.0
H498 H 0.0762 0.18263 0.81378 0.0
H499 H 0.98224 0.21545 0.82904 0.0
H500 H 0.98429 0.17361 0.78648 0.0
H501 H 0.15892 0.42844 0.78837 0.0
H502 H 0.11852 0.40838 0.83082 0.0
H503 H 0.21453 0.38042 0.814 0.0
H504 H 0.04382 0.32144 0.93084 0.0
H505 H 0.27421 0.2506 0.89251 0.0
H506 H 0.93705 0.30768 0.8493 0.0
H507 H 0.98327 0.37427 0.84979 0.0
H508 H 0.94249 0.35087 0.89125 0.0
H509 H 0.21887 0.21762 0.80371 0.0
H510 H 0.30773 0.23665 0.83118 0.0
H511 H 0.26137 0.28521 0.803 0.0
C512 C 0.075 0.74047 0.64014 0.0
C513 C 0.15948 0.74263 0.63208 0.0
C514 C 0.04757 0.73752 0.676 0.0
C515 C 0.10604 0.73651 0.70441 0.0
C516 C 0.19138 0.73798 0.69638 0.0
C517 C 0.21701 0.74105 0.66038 0.0
C518 C 0.95605 0.73631 0.68356 0.0
C519 C 0.25579 0.73689 0.72587 0.0
C520 C 0.04605 0.78223 0.80158 0.0
C521 C 0.03566 0.73156 0.8165 0.0
C522 C 0.06676 0.78445 0.76486 0.0
C523 C 0.07832 0.73476 0.74268 0.0
C524 C 0.06664 0.68347 0.75749 0.0
C525 C 0.04496 0.6825 0.7942 0.0
C526 C 0.07753 0.83995 0.74995 0.0
C527 C 0.07921 0.62962 0.73482 0.0
H528 H 0.0301 0.7418 0.6185 0.0
H529 H 0.28246 0.74265 0.65453 0.0
H530 H 0.94032 0.69893 0.69739 0.0
H531 H 0.93835 0.77257 0.70212 0.0
H532 H 0.9186 0.73657 0.65841 0.0
H533 H 0.31971 0.73707 0.71498 0.0
H534 H 0.24799 0.77329 0.74569 0.0
H535 H 0.24782 0.6996 0.74089 0.0
H536 H 0.03786 0.82021 0.81869 0.0
H537 H 0.03755 0.64327 0.80577 0.0
H538 H 0.03766 0.84292 0.72579 0.0
H539 H 0.14232 0.84469 0.74104 0.0
H540 H 0.0622 0.87464 0.77028 0.0
H541 H 0.03981 0.62831 0.71024 0.0
H542 H 0.06465 0.59333 0.75005 0.0
H543 H 0.14427 0.62622 0.72553 0.0
loop_
_geom_bond_atom_site_label_1
_geom_bond_atom_site_label_2
_geom_bond_distance
_geom_bond_site_symmetry_2
_ccdc_geom_bond_type
C0 Eu1 2.835 . S
C0 C2 1.500 . S
C0 O20 1.257 . S
C0 O21 1.260 . S
Eu1 C0 2.835 . S
Eu1 O20 2.473 . S
Eu1 O21 2.480 . S
Eu1 O22 2.430 . S
Eu1 O23 2.670 1_556 S
Eu1 O24 2.394 . S
Eu1 O29 2.355 . S
Eu1 O31 2.374 1_556 S
C2 C0 1.500 . S
C2 C3 1.377 . S
C2 C7 1.377 . S
C3 C2 1.377 . S
C3 C4 1.395 . S
C3 H32 0.931 . S
C4 C3 1.395 . S
C4 C5 1.383 . S
C4 H33 0.931 . S
C5 C4 1.383 . S
C5 C6 1.394 . S
C6 C5 1.394 . S
C6 C7 1.378 . S
C6 H34 0.931 . S
C7 C2 1.377 . S
C7 C6 1.378 . S
C7 H35 0.931 . S
C8 O22 1.259 1_554 S
C8 O23 1.270 . S
C9 O24 1.251 . S
C9 O25 1.251 . S
C10 Eu11 2.835 . S
C10 C12 1.500 . S
C10 O26 1.257 . S
C10 O27 1.260 . S
Eu11 C10 2.835 . S
Eu11 O23 2.355 . S
Eu11 O25 2.374 1_554 S
Eu11 O26 2.473 . S
Eu11 O27 2.480 . S
Eu11 O28 2.430 . S
Eu11 O29 2.670 1_554 S
Eu11 O30 2.394 . S
C12 C10 1.500 . S
C12 C13 1.377 . S
C12 C17 1.377 . S
C13 C12 1.377 . S
C13 C14 1.395 . S
C13 H36 0.931 . S
C14 C13 1.395 . S
C14 C15 1.383 . S
C14 H37 0.931 . S
C15 C14 1.383 . S
C15 C16 1.394 . S
C16 C15 1.394 . S
C16 C17 1.378 . S
C16 H38 0.931 . S
C17 C12 1.377 . S
C17 C16 1.378 . S
C17 H39 0.931 . S
C18 O28 1.259 . S
C18 O29 1.270 1_554 S
C19 O30 1.251 . S
C19 O31 1.251 . S
O20 C0 1.257 . S
O20 Eu1 2.473 . S
O21 C0 1.260 . S
O21 Eu1 2.480 . S
O22 Eu1 2.430 . S
O22 C8 1.259 1_556 S
O23 Eu1 2.670 1_554 S
O23 C8 1.270 . S
O23 Eu11 2.355 . S
O24 Eu1 2.394 . S
O24 C9 1.251 . S
O25 C9 1.251 . S
O25 Eu11 2.374 1_556 S
O26 C10 1.257 . S
O26 Eu11 2.473 . S
O27 C10 1.260 . S
O27 Eu11 2.480 . S
O28 Eu11 2.430 . S
O28 C18 1.259 . S
O29 Eu1 2.355 . S
O29 Eu11 2.670 1_556 S
O29 C18 1.270 1_556 S
O30 Eu11 2.394 . S
O30 C19 1.251 . S
O31 Eu1 2.374 1_554 S
O31 C19 1.251 . S
H32 C3 0.931 . S
H33 C4 0.931 . S
H34 C6 0.931 . S
H35 C7 0.931 . S
H36 C13 0.931 . S
H37 C14 0.931 . S
H38 C16 0.931 . S
H39 C17 0.931 . S
C40 Eu41 2.835 . S
C40 C42 1.500 . S
C40 O60 1.257 . S
C40 O61 1.260 . S
Eu41 C40 2.835 . S
Eu41 O60 2.473 . S
Eu41 O61 2.480 . S
Eu41 O62 2.430 . S
Eu41 O63 2.670 1_556 S
Eu41 O64 2.394 . S
Eu41 O69 2.355 . S
Eu41 O71 2.374 1_556 S
C42 C40 1.500 . S
C42 C43 1.377 . S
C42 C47 1.377 . S
C43 C42 1.377 . S
C43 C44 1.395 . S
C43 H72 0.931 . S
C44 C43 1.395 . S
C44 C45 1.383 . S
C44 H73 0.931 . S
C45 C44 1.383 . S
C45 C46 1.394 . S
C46 C45 1.394 . S
C46 C47 1.378 . S
C46 H74 0.931 . S
C47 C42 1.377 . S
C47 C46 1.378 . S
C47 H75 0.931 . S
C48 O62 1.259 1_554 S
C48 O63 1.270 . S
C49 O64 1.251 . S
C49 O65 1.251 . S
C50 Eu51 2.835 . S
C50 C52 1.500 . S
C50 O66 1.257 . S
C50 O67 1.260 . S
Eu51 C50 2.835 . S
Eu51 O63 2.355 . S
Eu51 O65 2.374 1_554 S
Eu51 O66 2.473 . S
Eu51 O67 2.480 . S
Eu51 O68 2.430 . S
Eu51 O69 2.670 1_554 S
Eu51 O70 2.394 . S
C52 C50 1.500 . S
C52 C53 1.377 . S
C52 C57 1.377 . S
C53 C52 1.377 . S
C53 C54 1.395 . S
C53 H76 0.931 . S
C54 C53 1.395 . S
C54 C55 1.383 . S
C54 H77 0.931 . S
C55 C54 1.383 . S
C55 C56 1.394 . S
C56 C55 1.394 . S
C56 C57 1.378 . S
C56 H78 0.931 . S
C57 C52 1.377 . S
C57 C56 1.378 . S
C57 H79 0.931 . S
C58 O68 1.259 . S
C58 O69 1.270 1_554 S
C59 O70 1.251 . S
C59 O71 1.251 . S
O60 C40 1.257 . S
O60 Eu41 2.473 . S
O61 C40 1.260 . S
O61 Eu41 2.480 . S
O62 Eu41 2.430 . S
O62 C48 1.259 1_556 S
O63 Eu41 2.670 1_554 S
O63 C48 1.270 . S
O63 Eu51 2.355 . S
O64 Eu41 2.394 . S
O64 C49 1.251 . S
O65 C49 1.251 . S
O65 Eu51 2.374 1_556 S
O66 C50 1.257 . S
O66 Eu51 2.473 . S
O67 C50 1.260 . S
O67 Eu51 2.480 . S
O68 Eu51 2.430 . S
O68 C58 1.259 . S
O69 Eu41 2.355 . S
O69 Eu51 2.670 1_556 S
O69 C58 1.270 1_556 S
O70 Eu51 2.394 . S
O70 C59 1.251 . S
O71 Eu41 2.374 1_554 S
O71 C59 1.251 . S
H72 C43 0.931 . S
H73 C44 0.931 . S
H74 C46 0.931 . S
H75 C47 0.931 . S
H76 C53 0.931 . S
H77 C54 0.931 . S
H78 C56 0.931 . S
H79 C57 0.931 . S
C80 Eu81 2.835 . S
C80 C82 1.500 . S
C80 O100 1.257 . S
C80 O101 1.260 . S
Eu81 C80 2.835 . S
Eu81 O100 2.473 . S
Eu81 O101 2.480 . S
Eu81 O102 2.430 . S
Eu81 O103 2.670 . S
Eu81 O104 2.394 . S
Eu81 O109 2.355 . S
Eu81 O111 2.374 . S
C82 C80 1.500 . S
C82 C83 1.377 . S
C82 C87 1.377 . S
C83 C82 1.377 . S
C83 C84 1.395 . S
C83 H112 0.931 . S
C84 C83 1.395 . S
C84 C85 1.383 . S
C84 H113 0.931 . S
C85 C84 1.383 . S
C85 C86 1.394 . S
C86 C85 1.394 . S
C86 C87 1.378 . S
C86 H114 0.931 . S
C87 C82 1.377 . S
C87 C86 1.378 . S
C87 H115 0.931 . S
C88 O102 1.259 . S
C88 O103 1.270 . S
C89 O104 1.251 . S
C89 O105 1.251 . S
C90 Eu91 2.835 . S
C90 C92 1.500 . S
C90 O106 1.257 . S
C90 O107 1.260 . S
Eu91 C90 2.835 . S
Eu91 O103 2.355 . S
Eu91 O105 2.374 . S
Eu91 O106 2.473 . S
Eu91 O107 2.480 . S
Eu91 O108 2.430 . S
Eu91 O109 2.670 . S
Eu91 O110 2.394 . S
C92 C90 1.500 . S
C92 C93 1.377 . S
C92 C97 1.377 . S
C93 C92 1.377 . S
C93 C94 1.395 . S
C93 H116 0.931 . S
C94 C93 1.395 . S
C94 C95 1.383 . S
C94 H117 0.931 . S
C95 C94 1.383 . S
C95 C96 1.394 . S
C96 C95 1.394 . S
C96 C97 1.378 . S
C96 H118 0.931 . S
C97 C92 1.377 . S
C97 C96 1.378 . S
C97 H119 0.931 . S
C98 O108 1.259 . S
C98 O109 1.270 . S
C99 O110 1.251 . S
C99 O111 1.251 . S
O100 C80 1.257 . S
O100 Eu81 2.473 . S
O101 C80 1.260 . S
O101 Eu81 2.480 . S
O102 Eu81 2.430 . S
O102 C88 1.259 . S
O103 Eu81 2.670 . S
O103 C88 1.270 . S
O103 Eu91 2.355 . S
O104 Eu81 2.394 . S
O104 C89 1.251 . S
O105 C89 1.251 . S
O105 Eu91 2.374 . S
O106 C90 1.257 . S
O106 Eu91 2.473 . S
O107 C90 1.260 . S
O107 Eu91 2.480 . S
O108 Eu91 2.430 . S
O108 C98 1.259 . S
O109 Eu81 2.355 . S
O109 Eu91 2.670 . S
O109 C98 1.270 . S
O110 Eu91 2.394 . S
O110 C99 1.251 . S
O111 Eu81 2.374 . S
O111 C99 1.251 . S
H112 C83 0.931 . S
H113 C84 0.931 . S
H114 C86 0.931 . S
H115 C87 0.931 . S
H116 C93 0.931 . S
H117 C94 0.931 . S
H118 C96 0.931 . S
H119 C97 0.931 . S
C120 Eu121 2.835 . S
C120 C122 1.500 . S
C120 O140 1.257 . S
C120 O141 1.260 . S
Eu121 C120 2.835 . S
Eu121 O140 2.473 . S
Eu121 O141 2.480 . S
Eu121 O142 2.430 . S
Eu121 O143 2.670 . S
Eu121 O144 2.394 . S
Eu121 O149 2.355 . S
Eu121 O151 2.374 . S
C122 C120 1.500 . S
C122 C123 1.377 . S
C122 C127 1.377 . S
C123 C122 1.377 . S
C123 C124 1.395 . S
C123 H152 0.931 . S
C124 C123 1.395 . S
C124 C125 1.383 . S
C124 H153 0.931 . S
C125 C124 1.383 . S
C125 C126 1.394 . S
C126 C125 1.394 . S
C126 C127 1.378 . S
C126 H154 0.931 . S
C127 C122 1.377 . S
C127 C126 1.378 . S
C127 H155 0.931 . S
C128 O142 1.259 . S
C128 O143 1.270 . S
C129 O144 1.251 . S
C129 O145 1.251 . S
C130 Eu131 2.835 . S
C130 C132 1.500 . S
C130 O146 1.257 . S
C130 O147 1.260 . S
Eu131 C130 2.835 . S
Eu131 O143 2.355 . S
Eu131 O145 2.374 . S
Eu131 O146 2.473 . S
Eu131 O147 2.480 . S
Eu131 O148 2.430 . S
Eu131 O149 2.670 . S
Eu131 O150 2.394 . S
C132 C130 1.500 . S
C132 C133 1.377 . S
C132 C137 1.377 . S
C133 C132 1.377 . S
C133 C134 1.395 . S
C133 H156 0.931 . S
C134 C133 1.395 . S
C134 C135 1.383 . S
C134 H157 0.931 . S
C135 C134 1.383 . S
C135 C136 1.394 . S
C136 C135 1.394 . S
C136 C137 1.378 . S
C136 H158 0.931 . S
C137 C132 1.377 . S
C137 C136 1.378 . S
C137 H159 0.931 . S
C138 O148 1.259 . S
C138 O149 1.270 . S
C139 O150 1.251 . S
C139 O151 1.251 . S
O140 C120 1.257 . S
O140 Eu121 2.473 . S
O141 C120 1.260 . S
O141 Eu121 2.480 . S
O142 Eu121 2.430 . S
O142 C128 1.259 . S
O143 Eu121 2.670 . S
O143 C128 1.270 . S
O143 Eu131 2.355 . S
O144 Eu121 2.394 . S
O144 C129 1.251 . S
O145 C129 1.251 . S
O145 Eu131 2.374 . S
O146 C130 1.257 . S
O146 Eu131 2.473 . S
O147 C130 1.260 . S
O147 Eu131 2.480 . S
O148 Eu131 2.430 . S
O148 C138 1.259 . S
O149 Eu121 2.355 . S
O149 Eu131 2.670 . S
O149 C138 1.270 . S
O150 Eu131 2.394 . S
O150 C139 1.251 . S
O151 Eu121 2.374 . S
O151 C139 1.251 . S
H152 C123 0.931 . S
H153 C124 0.931 . S
H154 C126 0.931 . S
H155 C127 0.931 . S
H156 C133 0.931 . S
H157 C134 0.931 . S
H158 C136 0.931 . S
H159 C137 0.931 . S
C160 C161 1.391 . S
C160 C162 1.394 . S
C160 H176 0.931 . S
C161 C160 1.391 . S
C161 C165 1.376 . S
C162 C160 1.394 . S
C162 C163 1.369 . S
C162 C166 1.531 . S
C163 C162 1.369 . S
C163 C164 1.410 . S
C163 C171 1.503 . S
C164 C163 1.410 . S
C164 C165 1.392 . S
C164 C167 1.511 . S
C165 C161 1.376 . S
C165 C164 1.392 . S
C165 H177 0.929 . S
C166 C162 1.531 . S
C166 H178 0.960 . S
C166 H179 0.962 1_554 S
C166 H180 0.960 . S
C167 C164 1.511 . S
C167 H181 0.961 . S
C167 H182 0.961 . S
C167 H183 0.961 . S
C168 C169 1.370 1_556 S
C168 C170 1.363 . S
C168 H184 0.931 . S
C169 C168 1.370 1_554 S
C169 C173 1.408 . S
C170 C168 1.363 . S
C170 C171 1.370 1_556 S
C170 C174 1.524 . S
C171 C163 1.503 . S
C171 C170 1.370 1_554 S
C171 C172 1.403 . S
C172 C171 1.403 . S
C172 C173 1.404 . S
C172 C175 1.539 . S
C173 C169 1.408 . S
C173 C172 1.404 . S
C173 H185 0.930 . S
C174 C170 1.524 . S
C174 H186 0.956 . S
C174 H187 0.961 . S
C174 H188 0.961 . S
C175 C172 1.539 . S
C175 H189 0.958 . S
C175 H190 0.961 . S
C175 H191 0.960 . S
H176 C160 0.931 . S
H177 C165 0.929 . S
H178 C166 0.960 . S
H179 C166 0.962 1_556 S
H180 C166 0.960 . S
H181 C167 0.961 . S
H182 C167 0.961 . S
H183 C167 0.961 . S
H184 C168 0.931 . S
H185 C173 0.930 . S
H186 C174 0.956 . S
H187 C174 0.961 . S
H188 C174 0.961 . S
H189 C175 0.958 . S
H190 C175 0.961 . S
H191 C175 0.960 . S
C192 C193 1.391 . S
C192 C194 1.394 . S
C192 H208 0.931 . S
C193 C192 1.391 . S
C193 C197 1.376 . S
C194 C192 1.394 . S
C194 C195 1.369 . S
C194 C198 1.531 . S
C195 C194 1.369 . S
C195 C196 1.410 . S
C195 C203 1.503 . S
C196 C195 1.410 . S
C196 C197 1.392 . S
C196 C199 1.511 . S
C197 C193 1.376 . S
C197 C196 1.392 . S
C197 H209 0.929 . S
C198 C194 1.531 . S
C198 H210 0.960 . S
C198 H211 0.962 . S
C198 H212 0.960 . S
C199 C196 1.511 . S
C199 H213 0.961 . S
C199 H214 0.961 . S
C199 H215 0.961 . S
C200 C201 1.370 . S
C200 C202 1.363 . S
C200 H216 0.931 . S
C201 C200 1.370 . S
C201 C205 1.408 . S
C202 C200 1.363 . S
C202 C203 1.370 . S
C202 C206 1.524 . S
C203 C195 1.503 . S
C203 C202 1.370 . S
C203 C204 1.403 . S
C204 C203 1.403 . S
C204 C205 1.404 . S
C204 C207 1.539 . S
C205 C201 1.408 . S
C205 C204 1.404 . S
C205 H217 0.930 . S
C206 C202 1.524 . S
C206 H218 0.956 . S
C206 H219 0.961 . S
C206 H220 0.961 . S
C207 C204 1.539 . S
C207 H221 0.958 . S
C207 H222 0.961 . S
C207 H223 0.960 . S
H208 C192 0.931 . S
H209 C197 0.929 . S
H210 C198 0.960 . S
H211 C198 0.962 . S
H212 C198 0.960 . S
H213 C199 0.961 . S
H214 C199 0.961 . S
H215 C199 0.961 . S
H216 C200 0.931 . S
H217 C205 0.930 . S
H218 C206 0.956 . S
H219 C206 0.961 . S
H220 C206 0.961 . S
H221 C207 0.958 . S
H222 C207 0.961 . S
H223 C207 0.960 . S
C224 C225 1.391 . S
C224 C226 1.394 . S
C224 H240 0.931 . S
C225 C224 1.391 . S
C225 C229 1.376 1_554 S
C226 C224 1.394 . S
C226 C227 1.369 . S
C226 C230 1.531 1_545 S
C227 C226 1.369 . S
C227 C228 1.411 1_554 S
C227 C235 1.503 1_445 S
C228 C227 1.411 1_556 S
C228 C229 1.397 . S
C228 C231 1.506 1_455 S
C229 C225 1.376 1_556 S
C229 C228 1.397 . S
C229 H241 0.929 . S
C230 C226 1.531 1_565 S
C230 H242 0.960 . S
C230 H243 0.962 . S
C230 H244 0.957 1_565 S
C231 C228 1.506 1_655 S
C231 H245 0.961 . S
C231 H246 0.961 . S
C231 H247 0.961 . S
C232 C233 1.370 1_556 S
C232 C234 1.363 . S
C232 H248 0.931 . S
C233 C232 1.370 1_554 S
C233 C237 1.408 . S
C234 C232 1.363 . S
C234 C235 1.370 1_556 S
C234 C238 1.524 1_655 S
C235 C227 1.503 1_665 S
C235 C234 1.370 1_554 S
C235 C236 1.403 . S
C236 C235 1.403 . S
C236 C237 1.404 . S
C236 C239 1.539 1_565 S
C237 C233 1.408 . S
C237 C236 1.404 . S
C237 H249 0.930 . S
C238 C234 1.524 1_455 S
C238 H250 0.956 . S
C238 H251 0.961 . S
C238 H252 0.961 . S
C239 C236 1.539 1_545 S
C239 H253 0.958 . S
C239 H254 0.961 . S
C239 H255 0.960 . S
H240 C224 0.931 . S
H241 C229 0.929 . S
H242 C230 0.960 . S
H243 C230 0.962 . S
H244 C230 0.957 1_545 S
H245 C231 0.961 . S
H246 C231 0.961 . S
H247 C231 0.961 . S
H248 C232 0.931 . S
H249 C237 0.930 . S
H250 C238 0.956 . S
H251 C238 0.961 . S
H252 C238 0.961 . S
H253 C239 0.958 . S
H254 C239 0.961 . S
H255 C239 0.960 . S
C256 C257 1.391 . S
C256 C258 1.394 . S
C256 H272 0.931 . S
C257 C256 1.391 . S
C257 C261 1.376 . S
C258 C256 1.394 . S
C258 C259 1.369 . S
C258 C262 1.531 1_545 S
C259 C258 1.369 . S
C259 C260 1.410 . S
C259 C267 1.503 1_645 S
C260 C259 1.410 . S
C260 C261 1.392 . S
C260 C263 1.511 1_655 S
C261 C257 1.376 . S
C261 C260 1.392 . S
C261 H273 0.929 . S
C262 C258 1.531 1_565 S
C262 H274 0.960 . S
C262 H275 0.962 . S
C262 H276 0.955 1_565 S
C263 C260 1.511 1_455 S
C263 H277 0.961 . S
C263 H278 0.961 . S
C263 H279 0.961 . S
C264 C265 1.370 . S
C264 C266 1.363 . S
C264 H280 0.931 . S
C265 C264 1.370 . S
C265 C269 1.408 . S
C266 C264 1.363 . S
C266 C267 1.370 . S
C266 C270 1.524 1_455 S
C267 C259 1.503 1_465 S
C267 C266 1.370 . S
C267 C268 1.403 . S
C268 C267 1.403 . S
C268 C269 1.404 . S
C268 C271 1.539 1_565 S
C269 C265 1.408 . S
C269 C268 1.404 . S
C269 H281 0.930 . S
C270 C266 1.524 1_655 S
C270 H282 0.956 . S
C270 H283 0.961 . S
C270 H284 0.961 . S
C271 C268 1.539 1_545 S
C271 H285 0.958 . S
C271 H286 0.961 . S
C271 H287 0.960 . S
H272 C256 0.931 . S
H273 C261 0.929 . S
H274 C262 0.960 . S
H275 C262 0.962 . S
H276 C262 0.955 1_545 S
H277 C263 0.961 . S
H278 C263 0.961 . S
H279 C263 0.961 . S
H280 C264 0.931 . S
H281 C269 0.930 . S
H282 C270 0.956 . S
H283 C270 0.961 . S
H284 C270 0.961 . S
H285 C271 0.958 . S
H286 C271 0.961 . S
H287 C271 0.960 . S
C288 C289 1.391 . S
C288 C290 1.394 . S
C288 H304 0.931 . S
C289 C288 1.391 . S
C289 C293 1.376 . S
C290 C288 1.394 . S
C290 C291 1.369 . S
C290 C294 1.531 . S
C291 C290 1.369 . S
C291 C292 1.410 . S
C291 C299 1.503 . S
C292 C291 1.410 . S
C292 C293 1.392 . S
C292 C295 1.511 . S
C293 C289 1.376 . S
C293 C292 1.392 . S
C293 H305 0.929 . S
C294 C290 1.531 . S
C294 H306 0.960 . S
C294 H307 0.962 . S
C294 H308 0.960 . S
C295 C292 1.511 . S
C295 H309 0.961 . S
C295 H310 0.961 . S
C295 H311 0.961 . S
C296 C297 1.370 . S
C296 C298 1.363 . S
C296 H312 0.931 . S
C297 C296 1.370 . S
C297 C301 1.408 . S
C298 C296 1.363 . S
C298 C299 1.370 . S
C298 C302 1.524 . S
C299 C291 1.503 . S
C299 C298 1.370 . S
C299 C300 1.403 . S
C300 C299 1.403 . S
C300 C301 1.404 . S
C300 C303 1.539 . S
C301 C297 1.408 . S
C301 C300 1.404 . S
C301 H313 0.930 . S
C302 C298 1.524 . S
C302 H314 0.956 . S
C302 H315 0.961 . S
C302 H316 0.961 . S
C303 C300 1.539 . S
C303 H317 0.958 . S
C303 H318 0.961 . S
C303 H319 0.960 . S
H304 C288 0.931 . S
H305 C293 0.929 . S
H306 C294 0.960 . S
H307 C294 0.962 . S
H308 C294 0.960 . S
H309 C295 0.961 . S
H310 C295 0.961 . S
H311 C295 0.961 . S
H312 C296 0.931 . S
H313 C301 0.930 . S
H314 C302 0.956 . S
H315 C302 0.961 . S
H316 C302 0.961 . S
H317 C303 0.958 . S
H318 C303 0.961 . S
H319 C303 0.960 . S
C320 C321 1.391 . S
C320 C322 1.394 . S
C320 H336 0.931 . S
C321 C320 1.391 . S
C321 C325 1.376 . S
C322 C320 1.394 . S
C322 C323 1.369 . S
C322 C326 1.531 . S
C323 C322 1.369 . S
C323 C324 1.410 . S
C323 C331 1.503 . S
C324 C323 1.410 . S
C324 C325 1.392 . S
C324 C327 1.511 . S
C325 C321 1.376 . S
C325 C324 1.392 . S
C325 H337 0.929 . S
C326 C322 1.531 . S
C326 H338 0.960 . S
C326 H339 0.962 . S
C326 H340 0.960 . S
C327 C324 1.511 . S
C327 H341 0.961 . S
C327 H342 0.961 . S
C327 H343 0.961 . S
C328 C329 1.370 . S
C328 C330 1.363 . S
C328 H344 0.931 . S
C329 C328 1.370 . S
C329 C333 1.408 . S
C330 C328 1.363 . S
C330 C331 1.370 . S
C330 C334 1.524 . S
C331 C323 1.503 . S
C331 C330 1.370 . S
C331 C332 1.403 . S
C332 C331 1.403 . S
C332 C333 1.404 . S
C332 C335 1.539 . S
C333 C329 1.408 . S
C333 C332 1.404 . S
C333 H345 0.930 . S
C334 C330 1.524 . S
C334 H346 0.956 . S
C334 H347 0.961 . S
C334 H348 0.961 . S
C335 C332 1.539 . S
C335 H349 0.958 . S
C335 H350 0.961 . S
C335 H351 0.960 . S
H336 C320 0.931 . S
H337 C325 0.929 . S
H338 C326 0.960 . S
H339 C326 0.962 . S
H340 C326 0.960 . S
H341 C327 0.961 . S
H342 C327 0.961 . S
H343 C327 0.961 . S
H344 C328 0.931 . S
H345 C333 0.930 . S
H346 C334 0.956 . S
H347 C334 0.961 . S
H348 C334 0.961 . S
H349 C335 0.958 . S
H350 C335 0.961 . S
H351 C335 0.960 . S
C352 C353 1.391 . S
C352 C354 1.394 . S
C352 H368 0.931 . S
C353 C352 1.391 . S
C353 C357 1.376 . S
C354 C352 1.394 . S
C354 C355 1.369 . S
C354 C358 1.531 . S
C355 C354 1.369 . S
C355 C356 1.410 . S
C355 C363 1.503 . S
C356 C355 1.410 . S
C356 C357 1.392 . S
C356 C359 1.511 . S
C357 C353 1.376 . S
C357 C356 1.392 . S
C357 H369 0.929 . S
C358 C354 1.531 . S
C358 H370 0.960 . S
C358 H371 0.962 . S
C358 H372 0.960 . S
C359 C356 1.511 . S
C359 H373 0.961 . S
C359 H374 0.961 . S
C359 H375 0.961 . S
C360 C361 1.370 . S
C360 C362 1.363 . S
C360 H376 0.931 . S
C361 C360 1.370 . S
C361 C365 1.408 . S
C362 C360 1.363 . S
C362 C363 1.370 . S
C362 C366 1.524 . S
C363 C355 1.503 . S
C363 C362 1.370 . S
C363 C364 1.403 . S
C364 C363 1.403 . S
C364 C365 1.404 . S
C364 C367 1.539 . S
C365 C361 1.408 . S
C365 C364 1.404 . S
C365 H377 0.930 . S
C366 C362 1.524 . S
C366 H378 0.956 . S
C366 H379 0.961 . S
C366 H380 0.961 . S
C367 C364 1.539 . S
C367 H381 0.958 . S
C367 H382 0.961 . S
C367 H383 0.960 . S
H368 C352 0.931 . S
H369 C357 0.929 . S
H370 C358 0.960 . S
H371 C358 0.962 . S
H372 C358 0.960 . S
H373 C359 0.961 . S
H374 C359 0.961 . S
H375 C359 0.961 . S
H376 C360 0.931 . S
H377 C365 0.930 . S
H378 C366 0.956 . S
H379 C366 0.961 . S
H380 C366 0.961 . S
H381 C367 0.958 . S
H382 C367 0.961 . S
H383 C367 0.960 . S
C384 C385 1.391 . S
C384 C386 1.394 . S
C384 H400 0.931 . S
C385 C384 1.391 . S
C385 C389 1.376 . S
C386 C384 1.394 . S
C386 C387 1.369 . S
C386 C390 1.531 . S
C387 C386 1.369 . S
C387 C388 1.410 . S
C387 C395 1.503 . S
C388 C387 1.410 . S
C388 C389 1.392 . S
C388 C391 1.511 . S
C389 C385 1.376 . S
C389 C388 1.392 . S
C389 H401 0.929 . S
C390 C386 1.531 . S
C390 H402 0.960 . S
C390 H403 0.962 . S
C390 H404 0.960 . S
C391 C388 1.511 . S
C391 H405 0.961 . S
C391 H406 0.961 . S
C391 H407 0.961 . S
C392 C393 1.370 . S
C392 C394 1.363 . S
C392 H408 0.931 . S
C393 C392 1.370 . S
C393 C397 1.408 . S
C394 C392 1.363 . S
C394 C395 1.370 . S
C394 C398 1.524 . S
C395 C387 1.503 . S
C395 C394 1.370 . S
C395 C396 1.403 . S
C396 C395 1.403 . S
C396 C397 1.404 . S
C396 C399 1.539 . S
C397 C393 1.408 . S
C397 C396 1.404 . S
C397 H409 0.930 . S
C398 C394 1.524 . S
C398 H410 0.956 . S
C398 H411 0.961 . S
C398 H412 0.961 . S
C399 C396 1.539 . S
C399 H413 0.958 . S
C399 H414 0.961 . S
C399 H415 0.960 . S
H400 C384 0.931 . S
H401 C389 0.929 . S
H402 C390 0.960 . S
H403 C390 0.962 . S
H404 C390 0.960 . S
H405 C391 0.961 . S
H406 C391 0.961 . S
H407 C391 0.961 . S
H408 C392 0.931 . S
H409 C397 0.930 . S
H410 C398 0.956 . S
H411 C398 0.961 . S
H412 C398 0.961 . S
H413 C399 0.958 . S
H414 C399 0.961 . S
H415 C399 0.960 . S
C416 C417 1.391 . S
C416 C418 1.394 . S
C416 H432 0.931 . S
C417 C416 1.391 . S
C417 C421 1.376 . S
C418 C416 1.394 . S
C418 C419 1.369 . S
C418 C422 1.531 . S
C419 C418 1.369 . S
C419 C420 1.410 . S
C419 C427 1.503 . S
C420 C419 1.410 . S
C420 C421 1.392 . S
C420 C423 1.511 . S
C421 C417 1.376 . S
C421 C420 1.392 . S
C421 H433 0.929 . S
C422 C418 1.531 . S
C422 H434 0.960 . S
C422 H435 0.962 . S
C422 H436 0.960 . S
C423 C420 1.511 . S
C423 H437 0.961 . S
C423 H438 0.961 . S
C423 H439 0.961 . S
C424 C425 1.370 1_455 S
C424 C426 1.363 1_455 S
C424 H440 0.931 . S
C425 C424 1.370 1_655 S
C425 C429 1.408 . S
C426 C424 1.363 1_655 S
C426 C427 1.370 . S
C426 C430 1.524 1_655 S
C427 C419 1.503 . S
C427 C426 1.370 . S
C427 C428 1.403 . S
C428 C427 1.403 . S
C428 C429 1.404 . S
C428 C431 1.539 . S
C429 C425 1.408 . S
C429 C428 1.404 . S
C429 H441 0.930 . S
C430 C426 1.524 1_455 S
C430 H442 0.956 . S
C430 H443 0.961 . S
C430 H444 0.961 . S
C431 C428 1.539 . S
C431 H445 0.958 . S
C431 H446 0.961 . S
C431 H447 0.960 . S
H432 C416 0.931 . S
H433 C421 0.929 . S
H434 C422 0.960 . S
H435 C422 0.962 . S
H436 C422 0.960 . S
H437 C423 0.961 . S
H438 C423 0.961 . S
H439 C423 0.961 . S
H440 C424 0.931 . S
H441 C429 0.930 . S
H442 C430 0.956 . S
H443 C430 0.961 . S
H444 C430 0.961 . S
H445 C431 0.958 . S
H446 C431 0.961 . S
H447 C431 0.960 . S
C448 C449 1.391 . S
C448 C450 1.394 . S
C448 H464 0.931 . S
C449 C448 1.391 . S
C449 C453 1.376 . S
C450 C448 1.394 . S
C450 C451 1.369 . S
C450 C454 1.531 . S
C451 C450 1.369 . S
C451 C452 1.410 . S
C451 C459 1.503 . S
C452 C451 1.410 . S
C452 C453 1.392 . S
C452 C455 1.511 1_655 S
C453 C449 1.376 . S
C453 C452 1.392 . S
C453 H465 0.929 . S
C454 C450 1.531 . S
C454 H466 0.960 . S
C454 H467 0.962 . S
C454 H468 0.960 . S
C455 C452 1.511 1_455 S
C455 H469 0.961 . S
C455 H470 0.961 . S
C455 H471 0.961 . S
C456 C457 1.370 . S
C456 C458 1.363 . S
C456 H472 0.931 . S
C457 C456 1.370 . S
C457 C461 1.408 . S
C458 C456 1.363 . S
C458 C459 1.370 . S
C458 C462 1.524 . S
C459 C451 1.503 . S
C459 C458 1.370 . S
C459 C460 1.403 . S
C460 C459 1.403 . S
C460 C461 1.404 . S
C460 C463 1.539 . S
C461 C457 1.408 . S
C461 C460 1.404 . S
C461 H473 0.930 1_655 S
C462 C458 1.524 . S
C462 H474 0.956 . S
C462 H475 0.961 . S
C462 H476 0.961 . S
C463 C460 1.539 . S
C463 H477 0.958 . S
C463 H478 0.961 1_655 S
C463 H479 0.960 . S
H464 C448 0.931 . S
H465 C453 0.929 . S
H466 C454 0.960 . S
H467 C454 0.962 . S
H468 C454 0.960 . S
H469 C455 0.961 . S
H470 C455 0.961 . S
H471 C455 0.961 . S
H472 C456 0.931 . S
H473 C461 0.930 1_455 S
H474 C462 0.956 . S
H475 C462 0.961 . S
H476 C462 0.961 . S
H477 C463 0.958 . S
H478 C463 0.961 1_455 S
H479 C463 0.960 . S
C480 C481 1.391 1_655 S
C480 C482 1.394 . S
C480 H496 0.931 . S
C481 C480 1.391 1_455 S
C481 C485 1.376 . S
C482 C480 1.394 . S
C482 C483 1.369 1_655 S
C482 C486 1.531 . S
C483 C482 1.369 1_455 S
C483 C484 1.410 . S
C483 C491 1.503 . S
C484 C483 1.410 . S
C484 C485 1.392 . S
C484 C487 1.511 . S
C485 C481 1.376 . S
C485 C484 1.392 . S
C485 H497 0.929 . S
C486 C482 1.531 . S
C486 H498 0.960 . S
C486 H499 0.962 . S
C486 H500 0.960 . S
C487 C484 1.511 . S
C487 H501 0.961 . S
C487 H502 0.961 . S
C487 H503 0.961 . S
C488 C489 1.370 . S
C488 C490 1.363 . S
C488 H504 0.931 . S
C489 C488 1.370 . S
C489 C493 1.408 . S
C490 C488 1.363 . S
C490 C491 1.370 . S
C490 C494 1.524 . S
C491 C483 1.503 . S
C491 C490 1.370 . S
C491 C492 1.403 . S
C492 C491 1.403 . S
C492 C493 1.404 . S
C492 C495 1.539 . S
C493 C489 1.408 . S
C493 C492 1.404 . S
C493 H505 0.930 . S
C494 C490 1.524 . S
C494 H506 0.956 . S
C494 H507 0.961 . S
C494 H508 0.961 . S
C495 C492 1.539 . S
C495 H509 0.958 . S
C495 H510 0.961 . S
C495 H511 0.960 . S
H496 C480 0.931 . S
H497 C485 0.929 . S
H498 C486 0.960 . S
H499 C486 0.962 . S
H500 C486 0.960 . S
H501 C487 0.961 . S
H502 C487 0.961 . S
H503 C487 0.961 . S
H504 C488 0.931 . S
H505 C493 0.930 . S
H506 C494 0.956 . S
H507 C494 0.961 . S
H508 C494 0.961 . S
H509 C495 0.958 . S
H510 C495 0.961 . S
H511 C495 0.960 . S
C512 C513 1.391 . S
C512 C514 1.394 . S
C512 H528 0.931 . S
C513 C512 1.391 . S
C513 C517 1.376 . S
C514 C512 1.394 . S
C514 C515 1.369 . S
C514 C518 1.531 1_455 S
C515 C514 1.369 . S
C515 C516 1.410 . S
C515 C523 1.503 . S
C516 C515 1.410 . S
C516 C517 1.392 . S
C516 C519 1.511 . S
C517 C513 1.376 . S
C517 C516 1.392 . S
C517 H529 0.929 . S
C518 C514 1.531 1_655 S
C518 H530 0.960 . S
C518 H531 0.962 . S
C518 H532 0.960 . S
C519 C516 1.511 . S
C519 H533 0.961 . S
C519 H534 0.961 . S
C519 H535 0.961 . S
C520 C521 1.372 . S
C520 C522 1.366 . S
C520 H536 0.927 1_455 S
C521 C520 1.372 . S
C521 C525 1.408 . S
C522 C520 1.366 . S
C522 C523 1.370 . S
C522 C526 1.524 . S
C523 C515 1.503 . S
C523 C522 1.370 . S
C523 C524 1.403 . S
C524 C523 1.403 . S
C524 C525 1.404 . S
C524 C527 1.539 . S
C525 C521 1.408 . S
C525 C524 1.404 . S
C525 H537 0.930 . S
C526 C522 1.524 . S
C526 H538 0.956 1_455 S
C526 H539 0.961 . S
C526 H540 0.961 1_455 S
C527 C524 1.539 . S
C527 H541 0.958 . S
C527 H542 0.961 . S
C527 H543 0.960 . S
H528 C512 0.931 . S
H529 C517 0.929 . S
H530 C518 0.960 . S
H531 C518 0.962 . S
H532 C518 0.960 . S
H533 C519 0.961 . S
H534 C519 0.961 . S
H535 C519 0.961 . S
H536 C520 0.927 1_655 S
H537 C525 0.930 . S
H538 C526 0.956 1_655 S
H539 C526 0.961 . S
H540 C526 0.961 1_655 S
H541 C527 0.958 . S
H542 C527 0.961 . S
H543 C527 0.960 . S
C161 C48 1.518 . S
C169 C18 1.509 . S
C193 C98 1.495 . S
C201 C128 1.519 . S
C225 C8 1.527 . S
C233 C58 1.506 . S
C257 C138 1.518 . S
C265 C88 1.509 . S
C289 C135 1.261 . S
C297 C19 1.281 . S
C321 C55 1.260 . S
C329 C99 1.283 . S
C353 C49 1.269 . S
C361 C85 1.275 . S
C385 C129 1.272 . S
C393 C5 1.274 . S
C417 C59 1.291 . S
C425 C95 1.290 1_655 S
C449 C139 1.296 . S
C457 C15 1.284 1_655 S
C481 C125 1.268 1_455 S
C489 C9 1.281 . S
C513 C89 1.296 . S
C521 C45 1.290 1_455 S
