# Generated by pormake.
# Topology cds, (4)-cn, num edge types: 1
# Building blocks:
#     Node 0, Type 0, BuildingBlock: KOZSID_clean_sbu_0, # of connection points: 4
#     Node 1, Type 0, BuildingBlock: KOZSID_clean_sbu_0, # of connection points: 4
#     Edge 2, Type (0, 0), BuildingBlock: MIFKUJ_clean_linker_0, # of connection points: 2
#     Edge 3, Type (0, 0), BuildingBlock: MIFKUJ_clean_linker_0, # of connection points: 2
#     Edge 4, Type (0, 0), BuildingBlock: MIFKUJ_clean_linker_0, # of connection points: 2
#     Edge 5, Type (0, 0), BuildingBlock: MIFKUJ_clean_linker_0, # of connection points: 2
# Relax obj value: 0.000
# Max RMSD: 0.000
# Mean RMSD: 0.000
data_MOF--net-cds--node1-KOZSID_clean_sbu_0--edge1-MIFKUJ_clean_linker_0
_symmetry_space_group_name_H-M    P1
_symmetry_Int_Tables_number       1
_symmetry_cell_setting            triclinic
loop_
_symmetry_equiv_pos_as_xyz
'x, y, z'
_cell_length_a     21.222021
_cell_length_b     24.066783
_cell_length_c     45.317844
_cell_angle_alpha  106.57258
_cell_angle_beta   107.05638
_cell_angle_gamma 86.669845
loop_
_atom_site_label
_atom_site_type_symbol
_atom_site_fract_x
_atom_site_fract_y
_atom_site_fract_z
_atom_type_partial_charge
C0 C 0.13602 0.06153 0.02398 0.0
C1 C 0.17048 0.11441 0.03682 0.0
C2 C 0.12507 0.15617 0.0409 0.0
C3 C 0.06571 0.12664 0.03031 0.0
N4 N 0.07049 0.06838 0.02004 0.0
Co5 Co 0.9962 1.00903 0.00155 0.0
N6 N 0.92889 0.07095 0.00402 0.0
C7 C 0.9402 0.12904 0.0138 0.0
C8 C 0.88409 0.16051 0.01296 0.0
C9 C 0.83393 0.12017 0.00234 0.0
C10 C 0.86261 0.06625 0.99748 0.0
N11 N 0.922 0.94964 0.98372 0.0
C12 C 0.85648 0.95658 0.9798 0.0
C13 C 0.8223 0.90363 0.96847 0.0
C14 C 0.86786 0.86171 0.9653 0.0
C15 C 0.927 0.89125 0.97498 0.0
N16 N 0.06348 0.94717 0.99835 0.0
C17 C 0.05211 0.88909 0.98751 0.0
C18 C 0.10795 0.85773 0.98694 0.0
C19 C 0.15796 0.89818 0.99747 0.0
C20 C 0.12947 0.95204 0.0038 0.0
N21 N 0.00111 1.0067 0.04567 0.0
C22 C 0.00149 1.00325 0.10748 0.0
C23 C 0.00444 0.95239 0.08354 0.0
C24 C 0.00415 0.95508 0.05311 0.0
C25 C -0.00067 0.05593 0.10002 0.0
C26 C -0.00054 0.05666 0.06934 0.0
N27 N 0.99121 0.01138 0.95746 0.0
C28 C 0.98165 0.96193 0.90171 0.0
C29 C 0.98976 0.01426 0.89546 0.0
C30 C 0.99776 0.06517 0.92074 0.0
C31 C 0.99811 0.06278 0.95121 0.0
C32 C 0.98258 0.96149 0.93259 0.0
H33 H 0.00484 0.10309 0.96938 0.0
H34 H 0.97663 0.92018 0.93578 0.0
H35 H 0.00603 0.91472 0.036 0.0
H36 H 0.99745 0.09821 0.06528 0.0
C37 C 0.00435 0.15261 0.02634 0.0
C38 C 0.16686 1.00645 0.01381 0.0
C39 C 0.82512 0.01207 0.9881 0.0
C40 C 0.98819 0.86541 0.97707 0.0
H41 H 0.22272 0.12228 0.04172 0.0
H42 H 0.13393 0.20266 0.04925 0.0
H43 H 0.88031 0.20721 0.0202 0.0
H44 H 0.78222 0.12932 0.99927 0.0
H45 H 0.77004 0.89593 0.96365 0.0
H46 H 0.8591 0.81522 0.95758 0.0
H47 H 0.11167 0.81108 0.97914 0.0
H48 H 0.20946 0.88918 0.99969 0.0
H49 H 0.00743 0.91048 0.08822 0.0
H50 H 0.99629 0.0966 0.11756 0.0
H51 H 0.97424 0.92133 0.88285 0.0
H52 H 0.0051 0.1068 0.91731 0.0
C53 C 0.06766 0.0332 0.57474 0.0
C54 C 0.12942 0.04172 0.59725 0.0
C55 C 0.17452 0.03578 0.58053 0.0
C56 C 0.13792 0.02444 0.54894 0.0
N57 N 0.07203 0.0234 0.54444 0.0
Co58 Co 0.0008 1.00875 0.50241 0.0
N59 N 0.0674 0.99571 0.47769 0.0
C60 C 0.1338 0.99604 0.48978 0.0
C61 C 0.1666 0.98535 0.4669 0.0
C62 C 0.11838 0.97855 0.43848 0.0
C63 C 0.05873 0.98601 0.44577 0.0
N64 N 0.92961 0.99488 0.46033 0.0
C65 C 0.93408 0.9872 0.43016 0.0
C66 C 0.87221 0.98332 0.40796 0.0
C67 C 0.82712 0.98864 0.42463 0.0
C68 C 0.86372 0.99591 0.45594 0.0
N69 N 0.93421 0.02102 0.52718 0.0
C70 C 0.86775 0.0182 0.51493 0.0
C71 C 0.83483 0.02499 0.53753 0.0
C72 C 0.88301 0.03198 0.56595 0.0
C73 C 0.94292 0.02949 0.55905 0.0
N74 N 0.0015 0.09296 0.5055 0.0
C75 C 0.00176 0.21096 0.50652 0.0
C76 C 0.94307 0.18116 0.50122 0.0
C77 C 0.94405 0.12278 0.50079 0.0
C78 C 0.06044 0.18084 0.51187 0.0
C79 C 0.05923 0.12254 0.5114 0.0
N80 N 8e-05 0.92451 0.49931 0.0
C81 C 0.94032 0.83542 0.48999 0.0
C82 C -0.00091 0.80645 0.49802 0.0
C83 C 0.05836 0.83737 0.50619 0.0
C84 C 0.05773 0.89582 0.50678 0.0
C85 C 0.94192 0.89375 0.49057 0.0
H86 H 0.10459 0.91701 0.51376 0.0
H87 H 0.89542 0.91306 0.48405 0.0
H88 H 0.89755 0.10256 0.49621 0.0
H89 H 0.10565 0.10224 0.51564 0.0
C90 C 0.16401 0.01059 0.5229 0.0
C91 C 0.00662 0.03283 0.58329 0.0
C92 C 0.99559 0.98606 0.42173 0.0
C93 C 0.83772 1.0067 0.48191 0.0
H94 H 0.14072 0.05024 0.62306 0.0
H95 H 0.2277 0.038 0.59018 0.0
H96 H 0.21935 0.98421 0.47054 0.0
H97 H 0.12631 0.97032 0.4151 0.0
H98 H 0.86057 0.97856 0.38246 0.0
H99 H 0.774 0.98887 0.41519 0.0
H100 H 0.78207 0.02355 0.53368 0.0
H101 H 0.87467 0.037 0.589 0.0
H102 H 0.89617 0.20233 0.49666 0.0
H103 H 0.10738 0.20219 0.51662 0.0
H104 H 0.89309 0.81308 0.48304 0.0
H105 H 0.10525 0.81698 0.51285 0.0
H106 H 0.06264 0.07858 0.16608 0.0
H107 H 0.05959 0.07598 0.21906 0.0
H108 H 0.93737 0.92 0.17564 0.0
H109 H 0.93732 0.92397 0.12237 0.0
H110 H 0.89308 0.99012 0.22088 0.0
H111 H 0.10431 0.91704 0.21395 0.0
H112 H 0.21337 0.91715 0.20493 0.0
H113 H 0.27022 0.07309 0.28265 0.0
H114 H 0.16109 0.07438 0.29184 0.0
H115 H 0.94917 0.90271 0.3647 0.0
H116 H 0.94871 0.90632 0.31097 0.0
H117 H 0.04219 0.07656 0.35236 0.0
H118 H 0.04129 0.07342 0.40596 0.0
H119 H 0.10088 0.99853 0.3085 0.0
H120 H 0.88732 0.06874 0.3152 0.0
H121 H 0.77917 0.06418 0.32445 0.0
H122 H 0.72766 0.90775 0.24669 0.0
H123 H 0.8361 0.91077 0.23735 0.0
C124 C 0.03444 0.04405 0.1677 0.0
C125 C 0.00042 1.00135 0.13988 0.0
C126 C 0.03339 0.04225 0.1981 0.0
C127 C -0.00089 0.99726 0.20142 0.0
C128 C 0.96446 0.95496 0.17371 0.0
C129 C 0.96508 0.95696 0.14327 0.0
C130 C -0.00076 0.99446 0.23377 0.0
C131 C 0.93858 0.99116 0.23988 0.0
C132 C 0.05855 0.9968 0.25879 0.0
C133 C 0.12428 0.99611 0.25337 0.0
C134 C 0.13988 0.95161 0.22895 0.0
C135 C 0.20173 0.95138 0.22384 0.0
C136 C 0.24863 0.99518 0.24315 0.0
C137 C 0.23381 0.03924 0.26768 0.0
C138 C 0.17198 0.03972 0.27287 0.0
C139 C 0.96901 0.94096 0.36212 0.0
C140 C 0.99458 0.98807 0.38914 0.0
C141 C 0.96887 0.94299 0.33159 0.0
C142 C 0.99509 0.99186 0.32776 0.0
C143 C 0.02169 0.03853 0.35486 0.0
C144 C 0.02103 0.03681 0.38532 0.0
C145 C 0.99491 0.99425 0.29545 0.0
C146 C 0.05551 0.99746 0.28941 0.0
C147 C 0.93565 0.99123 0.27043 0.0
C148 C 0.87015 0.98964 0.2758 0.0
C149 C 0.85319 0.03306 0.30025 0.0
C150 C 0.79179 0.03081 0.30549 0.0
C151 C 0.74664 0.98562 0.28622 0.0
C152 C 0.76274 0.94267 0.26163 0.0
C153 C 0.82416 0.94464 0.25635 0.0
H154 H 0.69911 0.98396 0.2903 0.0
H155 H 0.2965 0.99491 0.23915 0.0
H156 H 0.04615 0.93704 0.85379 0.0
H157 H 0.04935 0.94037 0.80092 0.0
H158 H 0.94204 0.09921 0.81127 0.0
H159 H 0.93585 0.09474 0.86354 0.0
H160 H 0.89637 0.03011 0.75225 0.0
H161 H 0.10917 0.09904 0.82335 0.0
H162 H 0.2135 0.09565 0.8648 0.0
H163 H 0.26499 0.94125 0.80188 0.0
H164 H 0.16012 0.94307 0.76022 0.0
H165 H 0.97012 0.11839 0.62884 0.0
H166 H 0.96987 0.11586 0.68264 0.0
H167 H 0.05097 0.94495 0.66588 0.0
H168 H 0.05028 0.94723 0.61189 0.0
H169 H 0.11078 0.02082 0.72798 0.0
H170 H 0.89491 0.95422 0.65679 0.0
H171 H 0.79117 0.9618 0.61582 0.0
H172 H 0.74709 0.11797 0.68012 0.0
H173 H 0.85132 0.11198 0.72128 0.0
C174 C 0.02238 0.97228 0.84467 0.0
C175 C 0.99091 0.01574 0.86302 0.0
C176 C 0.02492 0.97447 0.81456 0.0
C177 C 0.99683 0.02054 0.80233 0.0
C178 C 0.96436 0.06341 0.82029 0.0
C179 C 0.96144 0.06108 0.85032 0.0
C180 C 0.0016 0.02419 0.77089 0.0
C181 C 0.94336 0.02884 0.74713 0.0
C182 C 0.06284 0.02165 0.76399 0.0
C183 C 0.12645 0.02087 0.78878 0.0
C184 C 0.14251 0.06412 0.81842 0.0
C185 C 0.2018 0.0625 0.84196 0.0
C186 C 0.24586 0.01819 0.83602 0.0
C187 C 0.23077 0.97551 0.80647 0.0
C188 C 0.1714 0.97681 0.78288 0.0
C189 C 0.98792 0.08048 0.63682 0.0
C190 C 0.00949 0.03273 0.6164 0.0
C191 C 0.98787 0.07905 0.66741 0.0
C192 C 0.00992 0.03001 0.67806 0.0
C193 C 0.03375 0.98312 0.65806 0.0
C194 C 0.03318 0.98435 0.62734 0.0
C195 C 0.00566 0.02674 0.70955 0.0
C196 C 0.06393 0.02213 0.73323 0.0
C197 C 0.94457 0.02989 0.71651 0.0
C198 C 0.88126 0.03296 0.69201 0.0
C199 C 0.86336 0.99043 0.66211 0.0
C200 C 0.80444 0.99442 0.63886 0.0
C201 C 0.76263 0.04041 0.64534 0.0
C202 C 0.77958 0.08242 0.67512 0.0
C203 C 0.83857 0.07875 0.69843 0.0
H204 H 0.71703 0.04342 0.6273 0.0
H205 H 0.29173 0.01695 0.85428 0.0
H206 H 0.78618 0.03936 0.04219 0.0
H207 H 0.67329 0.03931 0.04615 0.0
H208 H 0.59825 0.98745 0.94255 0.0
H209 H 0.71139 0.98855 0.93872 0.0
H210 H 0.52439 0.07098 0.96989 0.0
H211 H 0.61256 0.88905 0.98389 0.0
H212 H 0.69484 0.82634 0.00844 0.0
H213 H 0.66349 0.90714 0.10039 0.0
H214 H 0.58175 0.97106 0.07647 0.0
H215 H 0.20341 0.98209 0.95909 0.0
H216 H 0.31552 0.9822 0.95412 0.0
H217 H 0.39419 0.02989 0.05757 0.0
H218 H 0.28194 0.02841 0.06236 0.0
H219 H 0.46622 0.94795 0.02977 0.0
H220 H 0.37574 0.12874 0.0152 0.0
H221 H 0.29506 0.1924 0.99057 0.0
H222 H 0.33255 0.1154 0.89967 0.0
H223 H 0.41172 0.04983 0.92344 0.0
C224 C 0.7453 0.02823 0.02038 0.0
C225 C 0.75669 0.01346 0.99018 0.0
C226 C 0.68111 0.02799 0.0226 0.0
C227 C 0.62751 0.01256 0.99462 0.0
C228 C 0.63894 0.99928 0.9644 0.0
C229 C 0.70322 0.99967 0.96219 0.0
C230 C 0.55967 0.00935 0.99694 0.0
C231 C 0.51132 0.04349 0.98258 0.0
C232 C 0.54321 0.97437 0.01411 0.0
C233 C 0.59142 0.93519 0.02843 0.0
C234 C 0.62348 0.8937 0.00938 0.0
C235 C 0.67002 0.85792 0.02318 0.0
C236 C 0.68448 0.86283 0.05597 0.0
C237 C 0.65227 0.90342 0.075 0.0
C238 C 0.60579 0.93941 0.06133 0.0
C239 C 0.24492 0.9924 0.98064 0.0
C240 C 0.23478 1.00584 0.01108 0.0
C241 C 0.30869 0.9927 0.97785 0.0
C242 C 0.36314 1.00692 0.00551 0.0
C243 C 0.35289 0.01902 0.03595 0.0
C244 C 0.28908 0.01845 0.03871 0.0
C245 C 0.43073 0.00966 0.00273 0.0
C246 C 0.47912 0.97539 0.01701 0.0
C247 C 0.44714 0.04453 0.98545 0.0
C248 C 0.39918 0.08383 0.97105 0.0
C249 C 0.36618 0.12482 0.98986 0.0
C250 C 0.32063 0.16123 0.97603 0.0
C251 C 0.30832 0.15767 0.94351 0.0
C252 C 0.34166 0.11777 0.92477 0.0
C253 C 0.38682 0.08091 0.93841 0.0
H254 H 0.27318 0.186 0.93285 0.0
H255 H 0.72056 0.83512 0.06662 0.0
H256 H 0.92213 0.75462 0.5222 0.0
H257 H 0.92256 0.65357 0.52344 0.0
H258 H 0.07572 0.61787 0.47619 0.0
H259 H 0.07505 0.71882 0.47456 0.0
H260 H 0.97671 0.53286 0.45019 0.0
H261 H 0.11493 0.63393 0.55457 0.0
H262 H 0.14308 0.70984 0.60648 0.0
H263 H 0.9829 0.6503 0.63057 0.0
H264 H 0.95317 0.5745 0.57856 0.0
H265 H 0.07401 0.26201 0.47964 0.0
H266 H 0.07312 0.36293 0.47839 0.0
H267 H 0.92735 0.40027 0.53011 0.0
H268 H 0.92926 0.29965 0.53222 0.0
H269 H 0.02199 0.4847 0.55377 0.0
H270 H 0.88327 0.38389 0.44992 0.0
H271 H 0.85352 0.30827 0.39792 0.0
H272 H 0.01218 0.36743 0.37259 0.0
H273 H 0.04349 0.44295 0.42468 0.0
C274 C 0.95553 0.72515 0.51184 0.0
C275 C -0.00136 0.74478 0.49832 0.0
C276 C 0.95606 0.66752 0.51277 0.0
C277 C -0.00044 0.62826 0.50014 0.0
C278 C 0.04187 0.64744 0.48615 0.0
C279 C 0.04175 0.70521 0.48543 0.0
C280 C 0.00107 0.56728 0.50166 0.0
C281 C 0.98748 0.52226 0.47285 0.0
C282 C 0.01352 0.55352 0.53119 0.0
C283 C 0.0314 0.59892 0.56252 0.0
C284 C 0.08535 0.63733 0.57082 0.0
C285 C 0.10166 0.68028 0.60028 0.0
C286 C 0.06469 0.685 0.62177 0.0
C287 C 0.01143 0.64665 0.61388 0.0
C288 C 0.99485 0.60366 0.58442 0.0
C289 C 0.04222 0.29178 0.49105 0.0
C290 C 0.00163 0.27263 0.506 0.0
C291 C 0.0413 0.34938 0.49004 0.0
C292 C -0.0004 0.3891 0.50383 0.0
C293 C 0.95974 0.37038 0.5192 0.0
C294 C 0.96051 0.31272 0.52015 0.0
C295 C 0.99768 0.45015 0.50227 0.0
C296 C 0.01118 0.49522 0.53108 0.0
C297 C 0.98491 0.46396 0.47273 0.0
C298 C 0.96614 0.4187 0.44135 0.0
C299 C 0.91217 0.38048 0.43338 0.0
C300 C 0.89496 0.33768 0.40386 0.0
C301 C 0.93105 0.33294 0.382 0.0
C302 C 0.98433 0.3711 0.38957 0.0
C303 C 0.0018 0.41394 0.41908 0.0
H304 H 0.91764 0.29979 0.35916 0.0
H305 H 0.07741 0.71827 0.64457 0.0
loop_
_geom_bond_atom_site_label_1
_geom_bond_atom_site_label_2
_geom_bond_distance
_geom_bond_site_symmetry_2
_ccdc_geom_bond_type
C0 C1 1.443 . S
C0 N4 1.376 . S
C0 C38 1.405 . S
C1 C0 1.443 . S
C1 C2 1.340 . S
C1 H41 0.951 . S
C2 C1 1.340 . S
C2 C3 1.439 . S
C2 H42 0.950 . S
C3 C2 1.439 . S
C3 N4 1.374 . S
C3 C37 1.393 1_455 S
N4 C0 1.376 . S
N4 C3 1.374 . S
N4 Co5 2.008 . S
Co5 N4 2.008 . S
Co5 N6 1.997 1_455 S
Co5 N11 2.008 1_444 S
Co5 N16 1.993 1_544 S
Co5 N21 2.294 . S
Co5 N27 2.271 1_444 S
N6 Co5 1.997 1_655 S
N6 C7 1.376 . S
N6 C10 1.383 . S
C7 N6 1.376 . S
C7 C8 1.446 . S
C7 C37 1.394 . S
C8 C7 1.446 . S
C8 C9 1.339 . S
C8 H43 0.949 . S
C9 C8 1.339 . S
C9 C10 1.439 . S
C9 H44 0.950 . S
C10 N6 1.383 . S
C10 C9 1.439 . S
C10 C39 1.390 1_544 S
N11 Co5 2.008 1_666 S
N11 C12 1.376 . S
N11 C15 1.374 . S
C12 N11 1.376 . S
C12 C13 1.443 . S
C12 C39 1.399 . S
C13 C12 1.443 . S
C13 C14 1.340 . S
C13 H45 0.951 . S
C14 C13 1.340 . S
C14 C15 1.439 . S
C14 H46 0.950 . S
C15 N11 1.374 . S
C15 C14 1.439 . S
C15 C40 1.387 1_655 S
N16 Co5 1.993 1_566 S
N16 C17 1.376 . S
N16 C20 1.383 . S
C17 N16 1.376 . S
C17 C18 1.446 . S
C17 C40 1.399 . S
C18 C17 1.446 . S
C18 C19 1.339 . S
C18 H47 0.949 . S
C19 C18 1.339 . S
C19 C20 1.439 . S
C19 H48 0.950 . S
C20 N16 1.383 . S
C20 C19 1.439 . S
C20 C38 1.374 1_566 S
N21 Co5 2.294 . S
N21 C24 1.332 1_545 S
N21 C26 1.332 1_455 S
C22 C23 1.375 1_545 S
C22 C25 1.404 1_455 S
C23 C22 1.375 1_565 S
C23 C24 1.382 . S
C23 H49 0.950 . S
C24 N21 1.332 1_565 S
C24 C23 1.382 . S
C24 H35 0.952 . S
C25 C22 1.404 1_655 S
C25 C26 1.382 . S
C25 H50 0.950 . S
C26 N21 1.332 1_655 S
C26 C25 1.382 . S
C26 H36 0.948 . S
N27 Co5 2.271 1_666 S
N27 C31 1.332 1_565 S
N27 C32 1.332 1_655 S
C28 C29 1.395 1_455 S
C28 C32 1.382 . S
C28 H51 0.950 . S
C29 C28 1.395 1_655 S
C29 C30 1.381 1_565 S
C30 C29 1.381 1_545 S
C30 C31 1.382 . S
C30 H52 0.950 . S
C31 N27 1.332 1_545 S
C31 C30 1.382 . S
C31 H33 0.952 . S
C32 N27 1.332 1_455 S
C32 C28 1.382 . S
C32 H34 0.948 . S
H33 C31 0.952 . S
H34 C32 0.948 . S
H35 C24 0.952 . S
H36 C26 0.948 . S
C37 C3 1.393 1_655 S
C37 C7 1.394 . S
C38 C0 1.405 . S
C38 C20 1.374 1_544 S
C39 C10 1.390 1_566 S
C39 C12 1.399 . S
C40 C15 1.387 1_455 S
C40 C17 1.399 . S
H41 C1 0.951 . S
H42 C2 0.950 . S
H43 C8 0.949 . S
H44 C9 0.950 . S
H45 C13 0.951 . S
H46 C14 0.950 . S
H47 C18 0.949 . S
H48 C19 0.950 . S
H49 C23 0.950 . S
H50 C25 0.950 . S
H51 C28 0.950 . S
H52 C30 0.950 . S
C53 C54 1.446 . S
C53 N57 1.373 1_565 S
C53 C91 1.407 1_565 S
C54 C53 1.446 . S
C54 C55 1.340 . S
C54 H94 0.951 . S
C55 C54 1.340 . S
C55 C56 1.439 . S
C55 H95 0.950 . S
C56 C55 1.439 . S
C56 N57 1.374 1_565 S
C56 C90 1.395 . S
N57 C53 1.373 1_545 S
N57 C56 1.374 1_545 S
N57 Co58 2.008 . S
Co58 N57 2.008 . S
Co58 N59 1.996 1_545 S
Co58 N64 2.008 1_445 S
Co58 N69 1.993 1_455 S
Co58 N74 2.285 . S
Co58 N80 2.280 1_445 S
N59 Co58 1.996 1_565 S
N59 C60 1.376 . S
N59 C63 1.383 . S
C60 N59 1.376 . S
C60 C61 1.446 . S
C60 C90 1.391 . S
C61 C60 1.446 . S
C61 C62 1.339 . S
C61 H96 0.949 . S
C62 C61 1.339 . S
C62 C63 1.439 . S
C62 H97 0.950 . S
C63 N59 1.383 . S
C63 C62 1.439 . S
C63 C92 1.384 1_455 S
N64 Co58 2.008 1_665 S
N64 C65 1.371 1_565 S
N64 C68 1.374 1_565 S
C65 N64 1.371 1_545 S
C65 C66 1.449 . S
C65 C92 1.402 1_545 S
C66 C65 1.449 . S
C66 C67 1.340 . S
C66 H98 0.951 . S
C67 C66 1.340 . S
C67 C68 1.439 . S
C67 H99 0.950 . S
C68 N64 1.374 1_545 S
C68 C67 1.439 . S
C68 C93 1.395 . S
N69 Co58 1.993 1_655 S
N69 C70 1.376 . S
N69 C73 1.383 . S
C70 N69 1.376 . S
C70 C71 1.446 . S
C70 C93 1.391 . S
C71 C70 1.446 . S
C71 C72 1.339 . S
C71 H100 0.949 . S
C72 C71 1.339 . S
C72 C73 1.439 . S
C72 H101 0.950 . S
C73 N69 1.383 . S
C73 C72 1.439 . S
C73 C91 1.379 1_655 S
N74 Co58 2.285 . S
N74 C77 1.332 1_455 S
N74 C79 1.332 . S
C75 C76 1.372 1_455 S
C75 C78 1.401 . S
C76 C75 1.372 1_655 S
C76 C77 1.382 . S
C76 H102 0.950 . S
C77 N74 1.332 1_655 S
C77 C76 1.382 . S
C77 H88 0.952 . S
C78 C75 1.401 . S
C78 C79 1.382 . S
C78 H103 0.950 . S
C79 N74 1.332 . S
C79 C78 1.382 . S
C79 H89 0.948 . S
N80 Co58 2.280 1_665 S
N80 C84 1.332 1_655 S
N80 C85 1.332 . S
C81 C82 1.395 . S
C81 C85 1.382 . S
C81 H104 0.950 . S
C82 C81 1.395 . S
C82 C83 1.378 1_655 S
C83 C82 1.378 1_455 S
C83 C84 1.382 . S
C83 H105 0.950 . S
C84 N80 1.332 1_455 S
C84 C83 1.382 . S
C84 H86 0.952 . S
C85 N80 1.332 . S
C85 C81 1.382 . S
C85 H87 0.948 . S
H86 C84 0.952 . S
H87 C85 0.948 . S
H88 C77 0.952 . S
H89 C79 0.948 . S
C90 C56 1.395 . S
C90 C60 1.391 . S
C91 C53 1.407 1_545 S
C91 C73 1.379 1_455 S
C92 C63 1.384 1_655 S
C92 C65 1.402 1_565 S
C93 C68 1.395 . S
C93 C70 1.391 . S
H94 C54 0.951 . S
H95 C55 0.950 . S
H96 C61 0.949 . S
H97 C62 0.950 . S
H98 C66 0.951 . S
H99 C67 0.950 . S
H100 C71 0.949 . S
H101 C72 0.950 . S
H102 C76 0.950 . S
H103 C78 0.950 . S
H104 C81 0.950 . S
H105 C83 0.950 . S
H106 C124 0.951 . S
H107 C126 0.951 . S
H108 C128 0.950 . S
H109 C129 0.950 . S
H110 C131 0.950 . S
H111 C134 0.950 . S
H112 C135 0.950 . S
H113 C137 0.950 1_545 S
H114 C138 0.961 . S
H115 C139 0.951 . S
H116 C141 0.951 . S
H117 C143 0.950 . S
H118 C144 0.950 . S
H119 C146 0.950 . S
H120 C149 0.950 . S
H121 C150 0.950 . S
H122 C152 0.950 1_565 S
H123 C153 0.955 . S
C124 H106 0.951 . S
C124 C125 1.367 . S
C124 C126 1.388 . S
C125 C124 1.367 . S
C125 C129 1.383 1_445 S
C126 H107 0.951 . S
C126 C124 1.388 . S
C126 C127 1.366 1_545 S
C127 C126 1.366 1_565 S
C127 C128 1.414 1_455 S
C127 C130 1.503 . S
C128 H108 0.950 . S
C128 C127 1.414 1_655 S
C128 C129 1.374 . S
C129 H109 0.950 . S
C129 C125 1.383 1_665 S
C129 C128 1.374 . S
C130 C127 1.503 . S
C130 C131 1.360 1_465 S
C130 C132 1.398 . S
C131 H110 0.950 . S
C131 C130 1.360 1_645 S
C131 C147 1.377 . S
C132 C130 1.398 . S
C132 C133 1.524 . S
C132 C146 1.377 . S
C133 C132 1.524 . S
C133 C134 1.397 . S
C133 C138 1.356 1_565 S
C134 H111 0.950 . S
C134 C133 1.397 . S
C134 C135 1.334 . S
C135 H112 0.950 . S
C135 C134 1.334 . S
C135 C136 1.287 . S
C136 C135 1.287 . S
C136 C137 1.524 . S
C136 H155 0.913 . S
C137 H113 0.950 1_565 S
C137 C136 1.524 . S
C137 C138 1.412 1_565 S
C138 H114 0.961 . S
C138 C133 1.356 1_545 S
C138 C137 1.412 1_545 S
C139 H115 0.951 . S
C139 C140 1.364 1_665 S
C139 C141 1.388 . S
C140 C139 1.364 1_445 S
C140 C144 1.388 . S
C141 H116 0.951 . S
C141 C139 1.388 . S
C141 C142 1.366 1_565 S
C142 C141 1.366 1_545 S
C142 C143 1.414 1_655 S
C142 C145 1.501 . S
C143 H117 0.950 . S
C143 C142 1.414 1_455 S
C143 C144 1.374 . S
C144 H118 0.950 . S
C144 C140 1.388 . S
C144 C143 1.374 . S
C145 C142 1.501 . S
C145 C146 1.367 1_645 S
C145 C147 1.394 . S
C146 H119 0.950 . S
C146 C132 1.377 . S
C146 C145 1.367 1_465 S
C147 C131 1.377 . S
C147 C145 1.394 . S
C147 C148 1.524 . S
C148 C147 1.524 . S
C148 C149 1.397 . S
C148 C153 1.360 1_545 S
C149 H120 0.950 . S
C149 C148 1.397 . S
C149 C150 1.334 . S
C150 H121 0.950 . S
C150 C149 1.334 . S
C150 C151 1.287 . S
C151 C150 1.287 . S
C151 C152 1.524 . S
C151 H154 0.999 . S
C152 H122 0.950 1_545 S
C152 C151 1.524 . S
C152 C153 1.413 1_545 S
C153 H123 0.955 . S
C153 C148 1.360 1_565 S
C153 C152 1.413 1_565 S
H154 C151 0.999 . S
H155 C136 0.913 . S
H156 C174 0.951 . S
H157 C176 0.951 . S
H158 C178 0.950 . S
H159 C179 0.950 . S
H160 C181 0.950 . S
H161 C184 0.950 . S
H162 C185 0.950 . S
H163 C187 0.950 . S
H164 C188 0.950 . S
H165 C189 0.951 . S
H166 C191 0.951 . S
H167 C193 0.950 . S
H168 C194 0.950 . S
H169 C196 0.950 . S
H170 C199 0.950 . S
H171 C200 0.950 . S
H172 C202 0.950 . S
H173 C203 0.950 . S
C174 H156 0.951 . S
C174 C175 1.364 1_565 S
C174 C176 1.388 . S
C175 C174 1.364 1_545 S
C175 C179 1.386 1_455 S
C176 H157 0.951 . S
C176 C174 1.388 . S
C176 C177 1.366 1_565 S
C177 C176 1.366 1_545 S
C177 C178 1.414 1_455 S
C177 C180 1.499 . S
C178 H158 0.950 . S
C178 C177 1.414 1_655 S
C178 C179 1.374 . S
C179 H159 0.950 . S
C179 C175 1.386 1_655 S
C179 C178 1.374 . S
C180 C177 1.499 . S
C180 C181 1.373 1_455 S
C180 C182 1.389 . S
C181 H160 0.950 . S
C181 C180 1.373 1_655 S
C181 C197 1.377 1_545 S
C182 C180 1.389 . S
C182 C183 1.524 . S
C182 C196 1.377 1_545 S
C183 C182 1.524 . S
C183 C184 1.397 . S
C183 C188 1.363 1_545 S
C184 H161 0.950 . S
C184 C183 1.397 . S
C184 C185 1.334 . S
C185 H162 0.950 . S
C185 C184 1.334 . S
C185 C186 1.287 . S
C186 C185 1.287 . S
C186 C187 1.524 1_545 S
C186 H205 0.913 . S
C187 H163 0.950 . S
C187 C186 1.524 1_565 S
C187 C188 1.415 . S
C188 H164 0.950 . S
C188 C183 1.363 1_565 S
C188 C187 1.415 . S
C189 H165 0.951 . S
C189 C190 1.365 1_655 S
C189 C191 1.388 . S
C190 C189 1.365 1_455 S
C190 C194 1.383 1_545 S
C191 H166 0.951 . S
C191 C189 1.388 . S
C191 C192 1.366 1_545 S
C192 C191 1.366 1_565 S
C192 C193 1.414 1_655 S
C192 C195 1.499 . S
C193 H167 0.950 . S
C193 C192 1.414 1_455 S
C193 C194 1.374 . S
C194 H168 0.950 . S
C194 C190 1.383 1_565 S
C194 C193 1.374 . S
C195 C192 1.499 . S
C195 C196 1.373 1_655 S
C195 C197 1.389 . S
C196 H169 0.950 . S
C196 C182 1.377 1_565 S
C196 C195 1.373 1_455 S
C197 C181 1.377 1_565 S
C197 C195 1.389 . S
C197 C198 1.524 . S
C198 C197 1.524 . S
C198 C199 1.397 . S
C198 C203 1.363 1_565 S
C199 H170 0.950 . S
C199 C198 1.397 . S
C199 C200 1.334 . S
C200 H171 0.950 . S
C200 C199 1.334 . S
C200 C201 1.287 . S
C201 C200 1.287 . S
C201 C202 1.524 1_565 S
C201 H204 0.999 . S
C202 H172 0.950 . S
C202 C201 1.524 1_545 S
C202 C203 1.415 . S
C203 H173 0.950 . S
C203 C198 1.363 1_545 S
C203 C202 1.415 . S
H204 C201 0.999 . S
H205 C186 0.913 . S
H206 C224 0.951 . S
H207 C226 0.951 . S
H208 C228 0.950 . S
H209 C229 0.950 . S
H210 C231 0.950 . S
H211 C234 0.950 1_556 S
H212 C235 0.950 . S
H213 C237 0.950 . S
H214 C238 0.950 . S
H215 C239 0.951 . S
H216 C241 0.951 . S
H217 C243 0.950 . S
H218 C244 0.950 . S
H219 C246 0.950 . S
H220 C249 0.916 1_554 S
H221 C250 0.950 . S
H222 C252 0.950 . S
H223 C253 0.950 . S
C224 H206 0.951 . S
C224 C225 1.377 . S
C224 C226 1.388 . S
C225 C224 1.377 . S
C225 C229 1.377 1_544 S
C226 H207 0.951 . S
C226 C224 1.388 . S
C226 C227 1.372 1_545 S
C227 C226 1.372 1_565 S
C227 C228 1.404 1_554 S
C227 C230 1.509 1_554 S
C228 H208 0.950 . S
C228 C227 1.404 1_556 S
C228 C229 1.374 . S
C229 H209 0.950 . S
C229 C225 1.377 1_566 S
C229 C228 1.374 . S
C230 C227 1.509 1_556 S
C230 C231 1.387 1_565 S
C230 C232 1.368 1_556 S
C231 H210 0.950 . S
C231 C230 1.387 1_545 S
C231 C247 1.377 . S
C232 C230 1.368 1_554 S
C232 C233 1.524 . S
C232 C246 1.377 . S
C233 C232 1.524 . S
C233 C234 1.397 . S
C233 C238 1.363 . S
C234 H211 0.950 1_554 S
C234 C233 1.397 . S
C234 C235 1.334 . S
C235 H212 0.950 . S
C235 C234 1.334 . S
C235 C236 1.287 . S
C236 C235 1.287 . S
C236 C237 1.524 . S
C236 H255 0.913 . S
C237 H213 0.950 . S
C237 C236 1.524 . S
C237 C238 1.415 . S
C238 H214 0.950 . S
C238 C233 1.363 . S
C238 C237 1.415 . S
C239 H215 0.951 . S
C239 C240 1.353 1_566 S
C239 C241 1.388 . S
C240 C239 1.353 1_544 S
C240 C244 1.393 . S
C241 H216 0.951 . S
C241 C239 1.388 . S
C241 C242 1.357 1_566 S
C242 C241 1.357 1_544 S
C242 C243 1.427 . S
C242 C245 1.495 . S
C243 H217 0.950 . S
C243 C242 1.427 . S
C243 C244 1.374 . S
C244 H218 0.950 . S
C244 C240 1.393 . S
C244 C243 1.374 . S
C245 C242 1.495 . S
C245 C246 1.373 1_545 S
C245 C247 1.389 1_554 S
C246 H219 0.950 . S
C246 C232 1.377 . S
C246 C245 1.373 1_565 S
C247 C231 1.377 . S
C247 C245 1.389 1_556 S
C247 C248 1.524 . S
C248 C247 1.524 . S
C248 C249 1.397 . S
C248 C253 1.363 . S
C249 H220 0.916 1_556 S
C249 C248 1.397 . S
C249 C250 1.334 . S
C250 H221 0.950 . S
C250 C249 1.334 . S
C250 C251 1.287 . S
C251 C250 1.287 . S
C251 C252 1.524 . S
C251 H254 0.999 . S
C252 H222 0.950 . S
C252 C251 1.524 . S
C252 C253 1.415 . S
C253 H223 0.950 . S
C253 C248 1.363 . S
C253 C252 1.415 . S
H254 C251 0.999 . S
H255 C236 0.913 . S
H256 C274 0.951 . S
H257 C276 0.951 . S
H258 C278 0.950 . S
H259 C279 0.950 . S
H260 C281 0.950 . S
H261 C284 0.950 . S
H262 C285 0.950 . S
H263 C287 0.950 . S
H264 C288 0.950 . S
H265 C289 0.951 . S
H266 C291 0.951 . S
H267 C293 0.950 . S
H268 C294 0.950 . S
H269 C296 0.950 . S
H270 C299 0.950 . S
H271 C300 0.950 . S
H272 C302 0.950 . S
H273 C303 0.950 . S
C274 H256 0.951 . S
C274 C275 1.366 1_655 S
C274 C276 1.388 . S
C275 C274 1.366 1_455 S
C275 C279 1.384 . S
C276 H257 0.951 . S
C276 C274 1.388 . S
C276 C277 1.366 1_655 S
C277 C276 1.366 1_455 S
C277 C278 1.414 . S
C277 C280 1.499 . S
C278 H258 0.950 . S
C278 C277 1.414 . S
C278 C279 1.374 . S
C279 H259 0.950 . S
C279 C275 1.384 . S
C279 C278 1.374 . S
C280 C277 1.499 . S
C280 C281 1.373 1_455 S
C280 C282 1.389 . S
C281 H260 0.950 . S
C281 C280 1.373 1_655 S
C281 C297 1.377 . S
C282 C280 1.389 . S
C282 C283 1.524 . S
C282 C296 1.377 . S
C283 C282 1.524 . S
C283 C284 1.397 . S
C283 C288 1.363 . S
C284 H261 0.950 . S
C284 C283 1.397 . S
C284 C285 1.334 . S
C285 H262 0.950 . S
C285 C284 1.334 . S
C285 C286 1.287 . S
C286 C285 1.287 . S
C286 C287 1.524 . S
C286 H305 0.913 . S
C287 H263 0.950 . S
C287 C286 1.524 . S
C287 C288 1.415 . S
C288 H264 0.950 . S
C288 C283 1.363 . S
C288 C287 1.415 . S
C289 H265 0.951 . S
C289 C290 1.367 . S
C289 C291 1.388 . S
C290 C289 1.367 . S
C290 C294 1.384 1_455 S
C291 H266 0.951 . S
C291 C289 1.388 . S
C291 C292 1.366 1_455 S
C292 C291 1.366 1_655 S
C292 C293 1.414 . S
C292 C295 1.499 . S
C293 H267 0.950 . S
C293 C292 1.414 . S
C293 C294 1.374 . S
C294 H268 0.950 . S
C294 C290 1.384 1_655 S
C294 C293 1.374 . S
C295 C292 1.499 . S
C295 C296 1.373 1_655 S
C295 C297 1.389 . S
C296 H269 0.950 . S
C296 C282 1.377 . S
C296 C295 1.373 1_455 S
C297 C281 1.377 . S
C297 C295 1.389 . S
C297 C298 1.524 . S
C298 C297 1.524 . S
C298 C299 1.397 . S
C298 C303 1.363 . S
C299 H270 0.950 . S
C299 C298 1.397 . S
C299 C300 1.334 . S
C300 H271 0.950 . S
C300 C299 1.334 . S
C300 C301 1.287 . S
C301 C300 1.287 . S
C301 C302 1.524 . S
C301 H304 0.999 . S
C302 H272 0.950 . S
C302 C301 1.524 . S
C302 C303 1.415 . S
C303 H273 0.950 . S
C303 C298 1.363 . S
C303 C302 1.415 . S
H304 C301 0.999 . S
H305 C286 0.913 . S
C125 C22 1.496 . S
C140 C92 1.494 1_445 S
C175 C29 1.497 1_445 S
C190 C91 1.496 . S
C225 C39 1.488 1_544 S
C240 C38 1.505 . S
C275 C82 1.500 1_455 S
C290 C75 1.500 . S
