# Generated by pormake.
# Topology soe, (5)-cn, num edge types: 1
# Building blocks:
#     Node 0, Type 0, BuildingBlock: BEQFEK_clean_sbu_0, # of connection points: 5
#     Node 1, Type 0, BuildingBlock: BEQFEK_clean_sbu_0, # of connection points: 5
#     Node 2, Type 0, BuildingBlock: BEQFEK_clean_sbu_0, # of connection points: 5
#     Node 3, Type 0, BuildingBlock: BEQFEK_clean_sbu_0, # of connection points: 5
#     Node 4, Type 0, BuildingBlock: BEQFEK_clean_sbu_0, # of connection points: 5
#     Node 5, Type 0, BuildingBlock: BEQFEK_clean_sbu_0, # of connection points: 5
#     Node 6, Type 0, BuildingBlock: BEQFEK_clean_sbu_0, # of connection points: 5
#     Node 7, Type 0, BuildingBlock: BEQFEK_clean_sbu_0, # of connection points: 5
#     Edge 8, Type (0, 0), BuildingBlock: XIVTED_clean_linker_0, # of connection points: 2
#     Edge 9, Type (0, 0), BuildingBlock: XIVTED_clean_linker_0, # of connection points: 2
#     Edge 10, Type (0, 0), BuildingBlock: XIVTED_clean_linker_0, # of connection points: 2
#     Edge 11, Type (0, 0), BuildingBlock: XIVTED_clean_linker_0, # of connection points: 2
#     Edge 12, Type (0, 0), BuildingBlock: XIVTED_clean_linker_0, # of connection points: 2
#     Edge 13, Type (0, 0), BuildingBlock: XIVTED_clean_linker_0, # of connection points: 2
#     Edge 14, Type (0, 0), BuildingBlock: XIVTED_clean_linker_0, # of connection points: 2
#     Edge 15, Type (0, 0), BuildingBlock: XIVTED_clean_linker_0, # of connection points: 2
#     Edge 16, Type (0, 0), BuildingBlock: XIVTED_clean_linker_0, # of connection points: 2
#     Edge 17, Type (0, 0), BuildingBlock: XIVTED_clean_linker_0, # of connection points: 2
#     Edge 18, Type (0, 0), BuildingBlock: XIVTED_clean_linker_0, # of connection points: 2
#     Edge 19, Type (0, 0), BuildingBlock: XIVTED_clean_linker_0, # of connection points: 2
#     Edge 20, Type (0, 0), BuildingBlock: XIVTED_clean_linker_0, # of connection points: 2
#     Edge 21, Type (0, 0), BuildingBlock: XIVTED_clean_linker_0, # of connection points: 2
#     Edge 22, Type (0, 0), BuildingBlock: XIVTED_clean_linker_0, # of connection points: 2
#     Edge 23, Type (0, 0), BuildingBlock: XIVTED_clean_linker_0, # of connection points: 2
#     Edge 24, Type (0, 0), BuildingBlock: XIVTED_clean_linker_0, # of connection points: 2
#     Edge 25, Type (0, 0), BuildingBlock: XIVTED_clean_linker_0, # of connection points: 2
#     Edge 26, Type (0, 0), BuildingBlock: XIVTED_clean_linker_0, # of connection points: 2
#     Edge 27, Type (0, 0), BuildingBlock: XIVTED_clean_linker_0, # of connection points: 2
# Relax obj value: 0.157
# Max RMSD: 0.230
# Mean RMSD: 0.172
data_MOF--net-soe--node1-BEQFEK_clean_sbu_0--edge1-XIVTED_clean_linker_0
_symmetry_space_group_name_H-M    P1
_symmetry_Int_Tables_number       1
_symmetry_cell_setting            triclinic
loop_
_symmetry_equiv_pos_as_xyz
'x, y, z'
_cell_length_a     59.426367
_cell_length_b     39.820141
_cell_length_c     19.156334
_cell_angle_alpha  89.589777
_cell_angle_beta   90.539378
_cell_angle_gamma 93.102914
loop_
_atom_site_label
_atom_site_type_symbol
_atom_site_fract_x
_atom_site_fract_y
_atom_site_fract_z
_atom_type_partial_charge
Co0 Co 0.11354 -0.00346 0.17271 0.0
Co1 Co 0.11937 0.02192 0.01968 0.0
C2 C 0.15421 0.9815 0.09385 0.0
O3 O 0.14247 0.97734 0.14878 0.0
O4 O 0.14713 -0.00183 0.04192 0.0
C5 C 0.1139 0.96341 0.30858 0.0
O6 O 0.13025 0.94553 0.28594 0.0
C7 C 0.12337 0.01249 0.86882 0.0
C8 C 0.10835 0.05833 0.82802 0.0
C9 C 0.11649 0.02796 0.8076 0.0
N10 N 0.11865 0.03227 0.92277 0.0
N11 N 0.1101 0.05991 0.89795 0.0
C12 C 0.13395 0.97936 0.87663 0.0
H13 H 0.14563 0.97973 0.92168 0.0
H14 H 0.12062 0.95927 0.88595 0.0
H15 H 0.14351 0.97338 0.82926 0.0
C16 C 0.06893 0.97287 0.11795 0.0
N17 N 0.09007 0.98596 0.10857 0.0
N18 N 0.09247 -0.00396 0.04346 0.0
C19 C 0.07293 0.98898 0.00869 0.0
C20 C 0.05727 0.97438 0.05483 0.0
C21 C 0.05951 0.96357 0.18816 0.0
H22 H 0.06281 0.9849 0.22445 0.0
H23 H 0.06829 0.94176 0.20936 0.0
H24 H 0.04112 0.95738 0.18618 0.0
O25 O 0.1185 0.0455 0.17937 0.0
O26 O 0.12111 0.06524 0.07118 0.0
H27 H 0.06995 0.02368 0.92375 0.0
H28 H 0.05293 0.98496 0.9133 0.0
C29 C 0.06927 -0.00389 0.93271 0.0
H30 H 0.08274 0.98517 0.90224 0.0
H31 H 0.10457 0.0792 0.92899 0.0
O32 O 0.10457 0.98356 0.26733 0.0
C33 C 0.12098 0.07001 0.13684 0.0
Co34 Co 0.35853 0.91549 0.18413 0.0
Co35 Co 0.35325 0.88884 0.03117 0.0
C36 C 0.31648 0.92459 0.10225 0.0
O37 O 0.32809 0.92909 0.15786 0.0
O38 O 0.32433 0.90981 0.04979 0.0
C39 C 0.35334 0.94711 0.31757 0.0
O40 O 0.3346 0.95768 0.29036 0.0
C41 C 0.35105 0.90053 0.8814 0.0
C42 C 0.36031 0.85182 0.83868 0.0
C43 C 0.35536 0.88428 0.81951 0.0
N44 N 0.35357 0.87878 0.93444 0.0
N45 N 0.35874 0.84954 0.90861 0.0
C46 C 0.34703 0.93696 0.89137 0.0
H47 H 0.35111 0.94466 0.9458 0.0
H48 H 0.3573 0.95277 0.85434 0.0
H49 H 0.32898 0.94109 0.88116 0.0
C50 C 0.40061 0.94704 0.12543 0.0
N51 N 0.38058 0.92984 0.1182 0.0
N52 N 0.37884 0.91762 0.05461 0.0
C53 C 0.39793 0.92615 0.01972 0.0
C54 C 0.41228 0.94539 0.06312 0.0
C55 C 0.40873 0.96316 0.19198 0.0
H56 H 0.39476 0.97599 0.21666 0.0
H57 H 0.42309 0.98158 0.18267 0.0
H58 H 0.41416 0.94338 0.22859 0.0
O59 O 0.35764 0.86596 0.19245 0.0
O60 O 0.35429 0.84621 0.08462 0.0
H61 H 0.42236 0.91241 0.94291 0.0
H62 H 0.39621 0.92636 0.90817 0.0
C63 C 0.40387 0.91168 0.95072 0.0
H64 H 0.39734 0.88517 0.94743 0.0
H65 H 0.36208 0.82847 0.93889 0.0
O66 O 0.36645 0.9311 0.27955 0.0
C67 C 0.35602 0.84141 0.15021 0.0
Co68 Co 0.13457 0.37648 0.30262 0.0
Co69 Co 0.14069 0.34866 0.4547 0.0
C70 C 0.17588 0.39469 0.38579 0.0
O71 O 0.16416 0.3971 0.33026 0.0
O72 O 0.16881 0.37682 0.43728 0.0
C73 C 0.1405 0.40603 0.16692 0.0
O74 O 0.16023 0.41644 0.19243 0.0
C75 C 0.14362 0.35954 0.60407 0.0
C76 C 0.13458 0.30919 0.64786 0.0
C77 C 0.13972 0.34235 0.6664 0.0
N78 N 0.14074 0.33763 0.55138 0.0
N79 N 0.13567 0.30745 0.57779 0.0
C80 C 0.14754 0.39668 0.59348 0.0
H81 H 0.14264 0.40403 0.5397 0.0
H82 H 0.13787 0.41071 0.63189 0.0
H83 H 0.16573 0.4036 0.60097 0.0
C84 C 0.09258 0.39985 0.36384 0.0
N85 N 0.11238 0.38509 0.36908 0.0
N86 N 0.11447 0.37227 0.43219 0.0
C87 C 0.09576 0.37784 0.46869 0.0
C88 C 0.0814 0.39585 0.42697 0.0
C89 C 0.08458 0.41702 0.29924 0.0
H90 H 0.09896 0.43095 0.27363 0.0
H91 H 0.07132 0.43463 0.31131 0.0
H92 H 0.0776 0.39775 0.26223 0.0
O93 O 0.13671 0.3275 0.29319 0.0
O94 O 0.14051 0.30655 0.39998 0.0
H95 H 0.07193 0.36047 0.54768 0.0
H96 H 0.0984 0.37836 0.58008 0.0
C97 C 0.09036 0.36248 0.53857 0.0
H98 H 0.09679 0.33695 0.54208 0.0
H99 H 0.13212 0.28598 0.5479 0.0
O100 O 0.12623 0.39107 0.20706 0.0
C101 C 0.13879 0.30259 0.33419 0.0
Co102 Co 0.37002 0.5339 0.30466 0.0
Co103 Co 0.3638 0.55853 0.45748 0.0
C104 C 0.32964 0.51136 0.38707 0.0
O105 O 0.34122 0.51093 0.33162 0.0
O106 O 0.33637 0.52864 0.43968 0.0
C107 C 0.36516 0.5023 0.17081 0.0
O108 O 0.34632 0.48895 0.19667 0.0
C109 C 0.36047 0.54785 0.60712 0.0
C110 C 0.37167 0.59759 0.64918 0.0
C111 C 0.36521 0.56491 0.66885 0.0
N112 N 0.36419 0.56937 0.55369 0.0
N113 N 0.37052 0.5992 0.57905 0.0
C114 C 0.35513 0.51096 0.59791 0.0
H115 H 0.36012 0.5029 0.54518 0.0
H116 H 0.36392 0.49618 0.63814 0.0
H117 H 0.3367 0.50571 0.60338 0.0
C118 C 0.4128 0.51184 0.36471 0.0
N119 N 0.39286 0.52599 0.37059 0.0
N120 N 0.39077 0.53723 0.43452 0.0
C121 C 0.40965 0.53114 0.47111 0.0
C122 C 0.42414 0.51473 0.42816 0.0
C123 C 0.42114 0.49762 0.29828 0.0
H124 H 0.42179 0.51755 0.25745 0.0
H125 H 0.40906 0.47723 0.28013 0.0
H126 H 0.43813 0.48773 0.30483 0.0
O127 O 0.36601 0.58257 0.29571 0.0
O128 O 0.36187 0.60099 0.40355 0.0
H129 H 0.40962 0.56684 0.55428 0.0
H130 H 0.43121 0.53689 0.56306 0.0
C131 C 0.41362 0.54031 0.54607 0.0
H132 H 0.40245 0.52396 0.57929 0.0
H133 H 0.3749 0.62028 0.54841 0.0
O134 O 0.37836 0.52011 0.20986 0.0
C135 C 0.36302 0.60634 0.33804 0.0
Co136 Co 0.85459 0.86634 0.98783 0.0
Co137 Co 0.86318 0.88916 0.83331 0.0
C138 C 0.82345 0.91132 0.91126 0.0
O139 O 0.82946 0.89548 0.9656 0.0
O140 O 0.83496 0.91118 0.85556 0.0
C141 C 0.83286 0.85285 0.11943 0.0
O142 O 0.81576 0.86727 0.0902 0.0
C143 C 0.85479 0.89203 0.6822 0.0
C144 C 0.88956 0.89793 0.64224 0.0
C145 C 0.86726 0.89288 0.62113 0.0
N146 N 0.86918 0.89557 0.73657 0.0
N147 N 0.88987 0.89994 0.71226 0.0
C148 C 0.83005 0.88366 0.68988 0.0
H149 H 0.82626 0.87416 0.7433 0.0
H150 H 0.82411 0.86452 0.65109 0.0
H151 H 0.82076 0.90673 0.68068 0.0
C152 C 0.85746 0.79894 0.925 0.0
N153 N 0.85683 0.83262 0.91985 0.0
N154 N 0.86048 0.84203 0.85468 0.0
C155 C 0.86341 0.81442 0.81611 0.0
C156 C 0.86176 0.78626 0.8594 0.0
C157 C 0.85598 0.78001 0.9927 0.0
H158 H 0.86759 0.79243 0.03146 0.0
H159 H 0.83861 0.78086 0.01316 0.0
H160 H 0.8603 0.75344 0.98673 0.0
O161 O 0.88372 0.89221 0.99306 0.0
O162 O 0.88973 0.90992 0.88449 0.0
H163 H 0.88263 0.83052 0.7267 0.0
H164 H 0.8685 0.78948 0.71692 0.0
C165 C 0.86714 0.8149 0.73886 0.0
H166 H 0.85262 0.82594 0.71271 0.0
H167 H 0.9043 0.90246 0.74365 0.0
O168 O 0.85011 0.84766 0.08309 0.0
C169 C 0.89589 0.9081 0.9482 0.0
Co170 Co 0.62888 0.01895 0.82051 0.0
Co171 Co 0.63578 0.04651 0.973 0.0
C172 C 0.67041 0.00606 0.90339 0.0
O173 O 0.65841 0.00255 0.84842 0.0
O174 O 0.66362 0.02226 0.95547 0.0
C175 C 0.63571 0.99001 0.68723 0.0
O176 O 0.65468 0.98191 0.71683 0.0
C177 C 0.63659 0.03505 0.12318 0.0
C178 C 0.63737 0.08648 0.16589 0.0
C179 C 0.63699 0.05284 0.18475 0.0
N180 N 0.63647 0.05705 0.06975 0.0
N181 N 0.63701 0.0878 0.09554 0.0
C182 C 0.63706 -0.00223 0.1153 0.0
H183 H 0.63512 0.99047 0.05968 0.0
H184 H 0.62342 0.98511 0.14663 0.0
H185 H 0.65333 0.98928 0.13595 0.0
C186 C 0.58574 0.99218 0.88119 0.0
N187 N 0.60644 0.00743 0.88734 0.0
N188 N 0.6089 0.0202 0.95039 0.0
C189 C 0.58956 0.01418 0.98572 0.0
C190 C 0.57436 0.99582 0.94352 0.0
C191 C 0.57683 0.97596 0.81565 0.0
H192 H 0.59038 0.96265 0.78985 0.0
H193 H 0.56235 0.95798 0.82666 0.0
H194 H 0.57125 0.99574 0.77929 0.0
O195 O 0.63164 0.06839 0.81121 0.0
O196 O 0.63628 0.08896 0.91811 0.0
H197 H 0.56595 0.03377 0.05842 0.0
H198 H 0.58965 0.01444 0.0974 0.0
C199 C 0.58428 0.0305 0.05348 0.0
H200 H 0.59324 0.05555 0.05734 0.0
H201 H 0.6371 0.10967 0.06516 0.0
O202 O 0.62094 0.00335 0.72414 0.0
C203 C 0.63433 0.09325 0.85239 0.0
Co204 Co 0.8743 0.48278 0.68737 0.0
Co205 Co 0.87199 0.51304 0.53611 0.0
C206 C 0.83328 0.4715 0.60041 0.0
O207 O 0.84421 0.46569 0.65624 0.0
O208 O 0.84206 0.48936 0.55133 0.0
C209 C 0.86518 0.45691 0.82377 0.0
O210 O 0.84456 0.45309 0.79877 0.0
C211 C 0.86893 0.50243 0.38701 0.0
C212 C 0.88162 0.55116 0.34284 0.0
C213 C 0.87407 0.5188 0.32459 0.0
N214 N 0.87335 0.524 0.43951 0.0
N215 N 0.88064 0.55326 0.4129 0.0
C216 C 0.86226 0.46598 0.39786 0.0
H217 H 0.86687 0.45782 0.45138 0.0
H218 H 0.87047 0.45027 0.35894 0.0
H219 H 0.84372 0.46221 0.39149 0.0
C220 C 0.91551 0.45483 0.63003 0.0
N221 N 0.89677 0.4722 0.62328 0.0
N222 N 0.89615 0.48568 0.56043 0.0
C223 C 0.91472 0.47782 0.52555 0.0
C224 C 0.92746 0.45768 0.56811 0.0
C225 C 0.92181 0.43634 0.69493 0.0
H226 H 0.90656 0.42356 0.71807 0.0
H227 H 0.93442 0.41754 0.68397 0.0
H228 H 0.92902 0.45466 0.73357 0.0
O229 O 0.87348 0.53199 0.69793 0.0
O230 O 0.87394 0.55485 0.59179 0.0
H231 H 0.94003 0.49202 0.44845 0.0
H232 H 0.91277 0.47847 0.41405 0.0
C233 C 0.92161 0.49279 0.45652 0.0
H234 H 0.91703 0.51935 0.45352 0.0
H235 H 0.88567 0.57425 0.44264 0.0
O236 O 0.88102 0.46677 0.7831 0.0
C237 C 0.87371 0.55765 0.65797 0.0
Co238 Co 0.62627 0.40028 0.68495 0.0
Co239 Co 0.62876 0.37295 0.53249 0.0
C240 C 0.66745 0.41293 0.59937 0.0
O241 O 0.65656 0.41692 0.65531 0.0
O242 O 0.65865 0.39666 0.5481 0.0
C243 C 0.63535 0.42902 0.81963 0.0
O244 O 0.65549 0.43611 0.79402 0.0
C245 C 0.63221 0.38211 0.38248 0.0
C246 C 0.6161 0.33481 0.34176 0.0
C247 C 0.62561 0.36586 0.32124 0.0
N248 N 0.62666 0.36173 0.43647 0.0
N249 N 0.61737 0.33328 0.4119 0.0
C250 C 0.64106 0.4178 0.39078 0.0
H251 H 0.63701 0.42722 0.44332 0.0
H252 H 0.63382 0.43419 0.35021 0.0
H253 H 0.65965 0.41899 0.3852 0.0
C254 C 0.58503 0.42896 0.62774 0.0
N255 N 0.60384 0.41198 0.62039 0.0
N256 N 0.60448 0.39992 0.55671 0.0
C257 C 0.58583 0.4085 0.52166 0.0
C258 C 0.57295 0.4272 0.56543 0.0
C259 C 0.57803 0.44389 0.69506 0.0
H260 H 0.57602 0.42366 0.73503 0.0
H261 H 0.59152 0.46209 0.7137 0.0
H262 H 0.56197 0.45664 0.68951 0.0
O263 O 0.62631 0.35098 0.69515 0.0
O264 O 0.62753 0.33064 0.58784 0.0
H265 H 0.58118 0.37125 0.44197 0.0
H266 H 0.56348 0.40644 0.43099 0.0
C267 C 0.58036 0.39883 0.44777 0.0
H268 H 0.59291 0.41145 0.41271 0.0
H269 H 0.61112 0.31337 0.4431 0.0
O270 O 0.61998 0.41611 0.78007 0.0
C271 C 0.62684 0.32622 0.65372 0.0
H272 H 0.29055 0.94212 0.21216 0.0
H273 H 0.18212 0.97772 0.98133 0.0
H274 H 0.28828 0.92863 0.98865 0.0
H275 H 0.17946 0.95923 0.2036 0.0
H276 H 0.22163 0.96384 0.98247 0.0
H277 H 0.25065 0.95394 0.2095 0.0
C278 C 0.28173 0.94192 0.16241 0.0
C279 C 0.2928 0.93434 0.10049 0.0
C280 C 0.21233 0.96256 0.03085 0.0
C281 C 0.24707 0.9477 0.09729 0.0
C282 C 0.18974 0.97041 0.03028 0.0
C283 C 0.17738 0.96962 0.09248 0.0
C284 C 0.22279 0.95435 0.09421 0.0
C285 C 0.18826 0.96007 0.15434 0.0
C286 C 0.2589 0.9484 0.16107 0.0
C287 C 0.28042 0.93425 0.03767 0.0
N288 N 0.2104 0.95311 0.15374 0.0
N289 N 0.25822 0.9409 0.03765 0.0
H290 H 0.20293 0.40648 0.50119 0.0
H291 H 0.30632 0.48274 0.27735 0.0
H292 H 0.20041 0.42233 0.27805 0.0
H293 H 0.30231 0.49743 0.49998 0.0
H294 H 0.26911 0.45412 0.27884 0.0
H295 H 0.24082 0.43421 0.50375 0.0
C296 C 0.21031 0.41579 0.45282 0.0
C297 C 0.19847 0.4121 0.38928 0.0
C298 C 0.27635 0.46358 0.32742 0.0
C299 C 0.24173 0.44343 0.39189 0.0
C300 C 0.29769 0.47979 0.32673 0.0
C301 C 0.30747 0.49261 0.38865 0.0
C302 C 0.26468 0.45982 0.39055 0.0
C303 C 0.29536 0.48807 0.45097 0.0
C304 C 0.23188 0.43165 0.45439 0.0
C305 C 0.20882 0.42472 0.32826 0.0
N306 N 0.27457 0.47197 0.45039 0.0
N307 N 0.22988 0.43963 0.33107 0.0
H308 H 0.69403 0.98253 0.79387 0.0
H309 H 0.79812 0.92652 0.02442 0.0
H310 H 0.69871 -0.00119 0.01627 0.0
H311 H 0.7995 0.93448 0.79956 0.0
H312 H 0.76111 0.9505 0.02356 0.0
H313 H 0.73178 0.96158 0.79616 0.0
C314 C 0.70292 0.98154 0.84335 0.0
C315 C 0.69309 0.99237 0.90506 0.0
C316 C 0.76959 0.9472 0.97448 0.0
C317 C 0.73653 0.96847 0.90787 0.0
C318 C 0.79071 0.93346 0.97487 0.0
C319 C 0.80192 0.92836 0.9119 0.0
C320 C 0.75947 0.95554 0.91065 0.0
C321 C 0.79153 0.93801 0.84935 0.0
C322 C 0.72458 0.96977 0.84448 0.0
C323 C 0.70561 0.99075 0.96744 0.0
N324 N 0.77082 0.95089 0.8503 0.0
N325 N 0.72666 0.97889 0.9673 0.0
H326 H 0.80565 0.46988 0.48452 0.0
H327 H 0.69448 0.43482 0.70764 0.0
H328 H 0.80592 0.44823 0.70578 0.0
H329 H 0.69537 0.41673 0.48563 0.0
H330 H 0.73494 0.44806 0.70543 0.0
H331 H 0.76484 0.4567 0.48154 0.0
C332 C 0.79719 0.46211 0.53228 0.0
C333 C 0.80922 0.46021 0.59555 0.0
C334 C 0.72627 0.44127 0.65715 0.0
C335 C 0.76268 0.44581 0.59258 0.0
C336 C 0.70311 0.43398 0.65821 0.0
C337 C 0.69149 0.42449 0.59674 0.0
C338 C 0.73795 0.43945 0.5941 0.0
C339 C 0.70368 0.42376 0.53431 0.0
C340 C 0.77394 0.45464 0.53049 0.0
C341 C 0.7974 0.44997 0.65581 0.0
N342 N 0.7263 0.43115 0.53454 0.0
N343 N 0.77478 0.44348 0.65293 0.0
H344 H 0.92008 0.89086 0.06349 0.0
H345 H 0.02693 0.01422 0.99168 0.0
H346 H 0.92376 0.95489 0.8806 0.0
H347 H 0.03235 0.91703 0.08921 0.0
H348 H 0.98694 0.00012 0.96735 0.0
H349 H 0.9591 0.90832 0.09207 0.0
C350 C 0.92897 0.90897 0.02982 0.0
C351 C 0.91863 0.92142 0.9694 0.0
C352 C -0.00307 0.98195 0.99408 0.0
C353 C 0.96326 0.94145 0.0022 0.0
C354 C 0.0197 0.98986 0.00767 0.0
C355 C 0.03295 0.96654 0.04175 0.0
C356 C 0.98725 0.95086 0.01632 0.0
C357 C 0.02265 0.93572 0.06306 0.0
C358 C 0.95128 0.91867 0.04597 0.0
C359 C 0.93109 0.94461 0.92752 0.0
N360 N 0.00035 0.92879 0.05026 0.0
N361 N 0.95278 0.95399 0.94482 0.0
H362 H 0.42848 0.98081 0.95073 0.0
H363 H 0.55796 0.9638 0.05958 0.0
H364 H 0.44975 0.9334 0.14136 0.0
H365 H 0.53679 0.00805 0.86548 0.0
H366 H 0.51841 0.95325 0.09148 0.0
H367 H 0.46806 0.99286 0.92025 0.0
C368 C 0.44156 0.97332 0.98647 0.0
C369 C 0.43596 0.95625 0.04866 0.0
C370 C 0.52236 0.96509 0.04171 0.0
C371 C 0.48117 0.96954 0.01413 0.0
C372 C 0.5449 0.97101 0.02349 0.0
C373 C 0.55054 0.98659 0.95972 0.0
C374 C 0.50532 0.97495 -0.00416 0.0
C375 C 0.5331 0.99551 0.91468 0.0
C376 C 0.46411 0.98005 0.96901 0.0
C377 C 0.45341 0.94701 0.09332 0.0
N378 N 0.51124 0.98966 0.9337 0.0
N379 N 0.47526 0.95363 0.07503 0.0
H380 H 0.04219 0.38505 0.35276 0.0
H381 H 0.96617 0.46485 0.64586 0.0
H382 H 0.06905 0.42849 0.54354 0.0
H383 H 0.9394 0.4235 0.45306 0.0
H384 H 0.00386 0.44949 0.6117 0.0
H385 H 0.00426 0.39835 0.38887 0.0
C386 C 0.04007 0.39778 0.40185 0.0
C387 C 0.05865 0.40584 0.44524 0.0
C388 C 0.98974 0.44357 0.57699 0.0
C389 C 0.01546 0.42052 0.4876 0.0
C390 C 0.96824 0.45204 0.59683 0.0
C391 C 0.9498 0.44535 0.5521 0.0
C392 C 0.99273 0.42836 0.51194 0.0
C393 C 0.95332 0.42921 0.48868 0.0
C394 C 0.01845 0.40509 0.42279 0.0
C395 C 0.05505 0.42176 0.50888 0.0
N396 N 0.9744 0.42138 0.47027 0.0
N397 N 0.03386 0.42853 0.52827 0.0
H398 H 0.46134 0.55173 0.47271 0.0
H399 H 0.53486 0.39061 0.52857 0.0
H400 H 0.4372 0.4504 0.42571 0.0
H401 H 0.56046 0.49206 0.56768 0.0
H402 H 0.49848 0.41197 0.49442 0.0
H403 H 0.49761 0.53059 0.5098 0.0
C404 C 0.4638 0.525 0.47021 0.0
C405 C 0.44642 0.50263 0.44669 0.0
C406 C 0.51199 0.42964 0.51059 0.0
C407 C 0.48759 0.47826 0.48872 0.0
C408 C 0.53268 0.41743 0.53012 0.0
C409 C 0.55054 0.43974 0.55025 0.0
C410 C 0.50916 0.46443 0.51143 0.0
C411 C 0.54698 0.47418 0.55229 0.0
C412 C 0.48442 0.51294 0.4913 0.0
C413 C 0.45031 0.46833 0.44357 0.0
N414 N 0.52668 0.48555 0.53275 0.0
N415 N 0.47049 0.45714 0.46462 0.0
H416 H 0.11037 0.96183 0.76329 0.0
H417 H 0.08792 0.00834 0.37164 0.0
H418 H 0.1177 0.06419 0.68713 0.0
H419 H 0.13088 0.92663 0.41749 0.0
H420 H 0.0873 0.02148 0.49543 0.0
H421 H 0.10831 0.9421 0.64296 0.0
C422 C 0.11226 0.98019 0.72174 0.0
C423 C 0.11535 0.01479 0.73559 0.0
C424 C 0.0966 0.00043 0.47823 0.0
C425 C 0.11103 0.99226 0.59847 0.0
C426 C 0.0969 0.9927 0.40774 0.0
C427 C 0.10985 0.96666 0.38399 0.0
C428 C 0.10889 0.9816 0.52551 0.0
C429 C 0.12092 0.94715 0.43357 0.0
C430 C 0.11062 0.9688 0.65312 0.0
C431 C 0.11571 0.03731 0.67898 0.0
N432 N 0.12029 0.95513 0.50244 0.0
N433 N 0.11347 0.02567 0.61282 0.0
H434 H 0.32604 0.97158 0.41788 0.0
H435 H 0.38605 0.87068 0.72106 0.0
H436 H 0.38821 0.92189 0.392 0.0
H437 H 0.32843 0.92962 0.75546 0.0
H438 H 0.3884 0.89252 0.60186 0.0
H439 H 0.32842 0.9613 0.54362 0.0
C440 C 0.34039 0.95902 0.43868 0.0
C441 C 0.35676 0.9471 0.39414 0.0
C442 C 0.37538 0.90102 0.63561 0.0
C443 C 0.3594 0.93484 0.5378 0.0
C444 C 0.37395 0.88839 0.70352 0.0
C445 C 0.35712 0.89854 0.74827 0.0
C446 C 0.35961 0.92361 0.61176 0.0
C447 C 0.34193 0.92163 0.7231 0.0
C448 C 0.34169 0.95305 0.5105 0.0
C449 C 0.37504 0.93117 0.42416 0.0
N450 N 0.34343 0.93321 0.65626 0.0
N451 N 0.37569 0.92511 0.49395 0.0
H452 H 0.16735 0.39164 0.72717 0.0
H453 H 0.1047 0.37658 0.09475 0.0
H454 H 0.10982 0.32387 0.768 0.0
H455 H 0.16858 0.43148 0.06461 0.0
H456 H 0.10282 0.36508 0.9698 0.0
H457 H 0.16494 0.41343 0.84575 0.0
C458 C 0.15401 0.38171 0.76072 0.0
C459 C 0.13861 0.35617 0.73757 0.0
C460 C 0.11713 0.37995 0.99042 0.0
C461 C 0.13594 0.3806 0.87351 0.0
C462 C 0.11816 0.38672 0.06175 0.0
C463 C 0.137 0.40462 0.09043 0.0
C464 C 0.13504 0.39119 0.94739 0.0
C465 C 0.15385 0.41727 0.04493 0.0
C466 C 0.15273 0.394 0.82856 0.0
C467 C 0.12207 0.34351 0.78395 0.0
N468 N 0.15259 0.41001 0.97576 0.0
N469 N 0.12116 0.35586 0.8497 0.0
H470 H 0.40085 0.5312 0.09892 0.0
H471 H 0.33641 0.51771 0.73127 0.0
H472 H 0.33694 0.47607 0.06869 0.0
H473 H 0.39628 0.5813 0.7695 0.0
H474 H 0.33898 0.4957 0.85045 0.0
H475 H 0.40254 0.54209 0.97362 0.0
C476 C 0.38733 0.52092 0.06583 0.0
C477 C 0.36853 0.50317 0.09451 0.0
C478 C 0.35167 0.51425 0.83255 0.0
C479 C 0.37024 0.51593 0.95107 0.0
C480 C 0.35028 0.52667 0.76442 0.0
C481 C 0.36629 0.5511 0.7404 0.0
C482 C 0.36917 0.52646 0.87688 0.0
C483 C 0.38353 0.56257 0.78616 0.0
C484 C 0.38825 0.5273 0.99427 0.0
C485 C 0.35164 0.49019 0.04895 0.0
N486 N 0.38451 0.55016 0.85221 0.0
N487 N 0.35275 0.49719 0.97952 0.0
H488 H 0.86529 0.82341 0.19728 0.0
H489 H 0.82826 0.90854 0.55178 0.0
H490 H 0.80429 0.87666 0.2167 0.0
H491 H 0.88948 0.85645 0.52752 0.0
H492 H 0.81691 0.89215 0.43304 0.0
H493 H 0.87167 0.829 0.32263 0.0
C494 C 0.85304 0.83583 0.22808 0.0
C495 C 0.8344 0.85003 0.19626 0.0
C496 C 0.83273 0.88407 0.45399 0.0
C497 C 0.84181 0.85703 0.33981 0.0
C498 C 0.83916 0.8933 0.52187 0.0
C499 C 0.85976 0.88363 0.54969 0.0
C500 C 0.84708 0.86518 0.41376 0.0
C501 C 0.87352 0.86465 0.50794 0.0
C502 C 0.85675 0.83916 0.29969 0.0
C503 C 0.81898 0.86556 0.23893 0.0
N504 N 0.86695 0.85609 0.44215 0.0
N505 N 0.8232 0.86907 0.30844 0.0
H506 H 0.59856 0.00142 0.60531 0.0
H507 H 0.67149 0.05435 0.2783 0.0
H508 H 0.66921 0.98195 0.59365 0.0
H509 H 0.60177 0.02106 0.25209 0.0
H510 H 0.67047 0.03297 0.39885 0.0
H511 H 0.59834 0.01246 0.47897 0.0
C512 C 0.6139 -0.00106 0.57612 0.0
C513 C 0.63397 0.991 0.61018 0.0
C514 C 0.65544 0.03009 0.36655 0.0
C515 C 0.63391 0.00432 0.46678 0.0
C516 C 0.65602 0.0424 0.29824 0.0
C517 C 0.63671 0.03927 0.25613 0.0
C518 C 0.63524 0.01535 0.39305 0.0
C519 C 0.61698 0.02373 0.28361 0.0
C520 C 0.61376 0.00525 0.5042 0.0
C521 C 0.65336 0.9881 0.56977 0.0
N522 N 0.61663 0.01262 0.35094 0.0
N523 N 0.65295 0.99534 0.50047 0.0
H524 H 0.84233 0.47498 0.26513 0.0
H525 H 0.90377 0.47662 0.89529 0.0
H526 H 0.90475 0.53128 0.22189 0.0
H527 H 0.83514 0.43857 0.92642 0.0
H528 H 0.90732 0.48708 0.02047 0.0
H529 H 0.84215 0.45286 0.14634 0.0
C530 C 0.85617 0.48227 0.23098 0.0
C531 C 0.8737 0.50471 0.25347 0.0
C532 C 0.89157 0.4761 -3e-05 0.0
C533 C 0.87346 0.47992 0.11736 0.0
C534 C 0.88956 0.4699 0.92854 0.0
C535 C 0.869 0.45716 0.90014 0.0
C536 C 0.87292 0.46939 0.04334 0.0
C537 C 0.85122 0.44879 0.94592 0.0
C538 C 0.85599 0.46982 0.16305 0.0
C539 C 0.89088 0.5141 0.20641 0.0
N540 N 0.85352 0.45537 0.01519 0.0
N541 N 0.89034 0.50164 0.14056 0.0
H542 H 0.59325 0.35625 0.22124 0.0
H543 H 0.66568 0.44904 0.92172 0.0
H544 H 0.65865 0.40569 0.25744 0.0
H545 H 0.5976 0.40774 0.89173 0.0
H546 H 0.66222 0.43818 0.0469 0.0
H547 H 0.59372 0.37801 0.10172 0.0
C548 C 0.60768 0.37181 0.20398 0.0
C549 C 0.62585 0.37944 0.24935 0.0
C550 C 0.64795 0.43189 0.01303 0.0
C551 C 0.62657 0.40443 0.11271 0.0
C552 C 0.64987 0.43821 0.94153 0.0
C553 C 0.63202 0.42881 0.89599 0.0
C554 C 0.62809 0.41587 0.03904 0.0
C555 C 0.6119 0.41506 0.92474 0.0
C556 C 0.60789 0.38442 0.13594 0.0
C557 C 0.6441 0.39977 0.22456 0.0
N558 N 0.61059 0.40859 0.99429 0.0
N559 N 0.64406 0.41142 0.15772 0.0
H560 H 0.12305 0.0881 0.27404 0.0
H561 H 0.13768 0.28531 0.19615 0.0
H562 H 0.12635 0.13023 0.06568 0.0
H563 H 0.1381 0.24191 0.40346 0.0
H564 H 0.13413 0.22892 0.14724 0.0
H565 H 0.12875 0.14433 0.32173 0.0
C566 C 0.12495 0.10918 0.23813 0.0
C567 C 0.12418 0.10435 0.16554 0.0
C568 C 0.13509 0.23171 0.2034 0.0
C569 C 0.13078 0.1691 0.22031 0.0
C570 C 0.13714 0.26393 0.23149 0.0
C571 C 0.1381 0.26841 0.30419 0.0
C572 C 0.13392 0.20367 0.2482 0.0
C573 C 0.13739 0.23971 0.34718 0.0
C574 C 0.12826 0.14135 0.26558 0.0
C575 C 0.1268 0.13273 0.12191 0.0
N576 N 0.13524 0.20857 0.31851 0.0
N577 N 0.12995 0.16393 0.15002 0.0
H578 H 0.35723 0.82172 0.28731 0.0
H579 H 0.36221 0.6262 0.20107 0.0
H580 H 0.35539 0.78206 0.07789 0.0
H581 H 0.35947 0.66506 0.41061 0.0
H582 H 0.35981 0.68311 0.15521 0.0
H583 H 0.35817 0.7646 0.33333 0.0
C584 C 0.357 0.80102 0.25089 0.0
C585 C 0.35627 0.80676 0.17848 0.0
C586 C 0.35968 0.67922 0.21121 0.0
C587 C 0.35737 0.74117 0.23114 0.0
C588 C 0.36108 0.64668 0.23755 0.0
C589 C 0.36109 0.64079 0.30994 0.0
C590 C 0.35836 0.70618 0.25746 0.0
C591 C 0.35952 0.66838 0.35447 0.0
C592 C 0.35751 0.76837 0.27733 0.0
C593 C 0.35596 0.77887 0.13404 0.0
N594 N 0.35828 0.6999 0.32749 0.0
N595 N 0.35656 0.74729 0.1611 0.0
H596 H 0.83406 0.73065 0.88536 0.0
H597 H 0.88962 0.61833 0.60477 0.0
H598 H 0.89698 0.76226 0.78869 0.0
H599 H 0.85619 0.57299 0.7839 0.0
H600 H 0.88819 0.67355 0.66037 0.0
H601 H 0.838 0.67365 0.84003 0.0
C602 C 0.84879 0.72543 0.85524 0.0
C603 C 0.86505 0.75109 0.83961 0.0
C604 C 0.88128 0.6514 0.68741 0.0
C605 C 0.86934 0.68681 0.78648 0.0
C606 C 0.88196 0.62004 0.65563 0.0
C607 C 0.87306 0.59115 0.68993 0.0
C608 C 0.87113 0.65386 0.75295 0.0
C609 C 0.86337 0.59466 0.75592 0.0
C610 C 0.85098 0.6931 0.82924 0.0
C611 C 0.88384 0.74321 0.80038 0.0
N612 N 0.86244 0.62553 0.78505 0.0
N613 N 0.8853 0.71187 0.77404 0.0
H614 H 0.63296 0.11153 0.71461 0.0
H615 H 0.6271 0.30785 0.79164 0.0
H616 H 0.6354 0.15342 0.92212 0.0
H617 H 0.62828 0.26632 0.58405 0.0
H618 H 0.62954 0.25145 0.84029 0.0
H619 H 0.63107 0.168 0.66611 0.0
C620 C 0.63318 0.1326 0.7501 0.0
C621 C 0.6343 0.12765 0.82271 0.0
C622 C 0.62926 0.25465 0.78411 0.0
C623 C 0.63203 0.19255 0.76717 0.0
C624 C 0.6278 0.28687 0.75616 0.0
C625 C 0.62749 0.2919 0.68349 0.0
C626 C 0.63038 0.22713 0.73919 0.0
C627 C 0.62847 0.26369 0.64033 0.0
C628 C 0.63208 0.16489 0.72224 0.0
C629 C 0.63457 0.15601 0.86588 0.0
N630 N 0.62988 0.23253 0.66887 0.0
N631 N 0.63337 0.18724 0.83743 0.0
loop_
_geom_bond_atom_site_label_1
_geom_bond_atom_site_label_2
_geom_bond_distance
_geom_bond_site_symmetry_2
_ccdc_geom_bond_type
Co0 O3 1.970 1_545 S
Co0 N17 1.989 1_545 S
Co0 O25 1.967 . S
Co0 O32 1.920 . S
Co1 O4 1.966 . S
Co1 N10 2.022 1_554 S
Co1 N18 1.993 . S
Co1 O26 1.941 . S
C2 O3 1.253 1_545 S
C2 O4 1.278 . S
O3 Co0 1.970 1_565 S
O3 C2 1.253 1_565 S
O4 Co1 1.966 . S
O4 C2 1.278 . S
C5 O6 1.235 . S
C5 O32 1.289 1_565 S
O6 C5 1.235 . S
C7 C9 1.400 . S
C7 N10 1.351 . S
C7 C12 1.501 1_545 S
C8 C9 1.387 . S
C8 N11 1.341 . S
C9 C7 1.400 . S
C9 C8 1.387 . S
N10 Co1 2.022 1_556 S
N10 C7 1.351 . S
N10 N11 1.365 . S
N11 C8 1.341 . S
N11 N10 1.365 . S
N11 H31 0.862 . S
C12 C7 1.501 1_565 S
C12 H13 0.961 . S
C12 H14 0.961 . S
C12 H15 0.960 1_565 S
H13 C12 0.961 . S
H14 C12 0.961 . S
H15 C12 0.960 1_545 S
C16 N17 1.342 . S
C16 C20 1.401 . S
C16 C21 1.499 . S
N17 Co0 1.989 1_565 S
N17 C16 1.342 . S
N17 N18 1.388 1_565 S
N18 Co1 1.993 . S
N18 N17 1.388 1_545 S
N18 C19 1.346 1_545 S
C19 N18 1.346 1_565 S
C19 C20 1.396 . S
C19 C29 1.510 1_554 S
C20 C16 1.401 . S
C20 C19 1.396 . S
C21 C16 1.499 . S
C21 H22 0.959 . S
C21 H23 0.960 . S
C21 H24 0.961 . S
H22 C21 0.959 . S
H23 C21 0.960 . S
H24 C21 0.961 . S
O25 Co0 1.967 . S
O25 C33 1.258 . S
O26 Co1 1.941 . S
O26 C33 1.266 . S
H27 C29 0.959 1_545 S
H28 C29 0.961 . S
C29 C19 1.510 1_556 S
C29 H27 0.959 1_565 S
C29 H28 0.961 . S
C29 H30 0.971 . S
H30 C29 0.971 . S
H31 N11 0.862 . S
O32 Co0 1.920 . S
O32 C5 1.289 1_545 S
C33 O25 1.258 . S
C33 O26 1.266 . S
Co34 O37 1.970 . S
Co34 N51 1.989 . S
Co34 O59 1.967 . S
Co34 O66 1.920 . S
Co35 O38 1.966 . S
Co35 N44 2.022 1_554 S
Co35 N52 1.993 . S
Co35 O60 1.941 . S
C36 O37 1.258 . S
C36 O38 1.263 . S
O37 Co34 1.970 . S
O37 C36 1.258 . S
O38 Co35 1.966 . S
O38 C36 1.263 . S
C39 O40 1.235 . S
C39 O66 1.289 . S
O40 C39 1.235 . S
C41 C43 1.400 . S
C41 N44 1.351 . S
C41 C46 1.501 . S
C42 C43 1.387 . S
C42 N45 1.341 . S
C43 C41 1.400 . S
C43 C42 1.387 . S
N44 Co35 2.022 1_556 S
N44 C41 1.351 . S
N44 N45 1.365 . S
N45 C42 1.341 . S
N45 N44 1.365 . S
N45 H65 0.862 . S
C46 C41 1.501 . S
C46 H47 0.961 . S
C46 H48 0.961 . S
C46 H49 0.960 . S
H47 C46 0.961 . S
H48 C46 0.961 . S
H49 C46 0.960 . S
C50 N51 1.342 . S
C50 C54 1.401 . S
C50 C55 1.499 . S
N51 Co34 1.989 . S
N51 C50 1.342 . S
N51 N52 1.388 . S
N52 Co35 1.993 . S
N52 N51 1.388 . S
N52 C53 1.346 . S
C53 N52 1.346 . S
C53 C54 1.396 . S
C53 C63 1.510 1_554 S
C54 C50 1.401 . S
C54 C53 1.396 . S
C55 C50 1.499 . S
C55 H56 0.959 . S
C55 H57 0.960 . S
C55 H58 0.961 . S
H56 C55 0.959 . S
H57 C55 0.960 . S
H58 C55 0.961 . S
O59 Co34 1.967 . S
O59 C67 1.258 . S
O60 Co35 1.941 . S
O60 C67 1.266 . S
H61 C63 0.959 . S
H62 C63 0.961 . S
C63 C53 1.510 1_556 S
C63 H61 0.959 . S
C63 H62 0.961 . S
C63 H64 0.960 . S
H64 C63 0.960 . S
H65 N45 0.862 . S
O66 Co34 1.920 . S
O66 C39 1.289 . S
C67 O59 1.258 . S
C67 O60 1.266 . S
Co68 O71 1.970 . S
Co68 N85 1.989 . S
Co68 O93 1.967 . S
Co68 O100 1.920 . S
Co69 O72 1.966 . S
Co69 N78 2.022 . S
Co69 N86 1.993 . S
Co69 O94 1.941 . S
C70 O71 1.258 . S
C70 O72 1.263 . S
O71 Co68 1.970 . S
O71 C70 1.258 . S
O72 Co69 1.966 . S
O72 C70 1.263 . S
C73 O74 1.235 . S
C73 O100 1.289 . S
O74 C73 1.235 . S
C75 C77 1.400 . S
C75 N78 1.351 . S
C75 C80 1.501 . S
C76 C77 1.387 . S
C76 N79 1.341 . S
C77 C75 1.400 . S
C77 C76 1.387 . S
N78 Co69 2.022 . S
N78 C75 1.351 . S
N78 N79 1.365 . S
N79 C76 1.341 . S
N79 N78 1.365 . S
N79 H99 0.862 . S
C80 C75 1.501 . S
C80 H81 0.961 . S
C80 H82 0.961 . S
C80 H83 0.960 . S
H81 C80 0.961 . S
H82 C80 0.961 . S
H83 C80 0.960 . S
C84 N85 1.342 . S
C84 C88 1.401 . S
C84 C89 1.499 . S
N85 Co68 1.989 . S
N85 C84 1.342 . S
N85 N86 1.388 . S
N86 Co69 1.993 . S
N86 N85 1.388 . S
N86 C87 1.346 . S
C87 N86 1.346 . S
C87 C88 1.396 . S
C87 C97 1.510 . S
C88 C84 1.401 . S
C88 C87 1.396 . S
C89 C84 1.499 . S
C89 H90 0.959 . S
C89 H91 0.960 . S
C89 H92 0.961 . S
H90 C89 0.959 . S
H91 C89 0.960 . S
H92 C89 0.961 . S
O93 Co68 1.967 . S
O93 C101 1.258 . S
O94 Co69 1.941 . S
O94 C101 1.266 . S
H95 C97 0.959 . S
H96 C97 0.961 . S
C97 C87 1.510 . S
C97 H95 0.959 . S
C97 H96 0.961 . S
C97 H98 0.960 . S
H98 C97 0.960 . S
H99 N79 0.862 . S
O100 Co68 1.920 . S
O100 C73 1.289 . S
C101 O93 1.258 . S
C101 O94 1.266 . S
Co102 O105 1.970 . S
Co102 N119 1.989 . S
Co102 O127 1.967 . S
Co102 O134 1.920 . S
Co103 O106 1.966 . S
Co103 N112 2.022 . S
Co103 N120 1.993 . S
Co103 O128 1.941 . S
C104 O105 1.258 . S
C104 O106 1.263 . S
O105 Co102 1.970 . S
O105 C104 1.258 . S
O106 Co103 1.966 . S
O106 C104 1.263 . S
C107 O108 1.235 . S
C107 O134 1.289 . S
O108 C107 1.235 . S
C109 C111 1.400 . S
C109 N112 1.351 . S
C109 C114 1.501 . S
C110 C111 1.387 . S
C110 N113 1.341 . S
C111 C109 1.400 . S
C111 C110 1.387 . S
N112 Co103 2.022 . S
N112 C109 1.351 . S
N112 N113 1.365 . S
N113 C110 1.341 . S
N113 N112 1.365 . S
N113 H133 0.862 . S
C114 C109 1.501 . S
C114 H115 0.961 . S
C114 H116 0.961 . S
C114 H117 0.960 . S
H115 C114 0.961 . S
H116 C114 0.961 . S
H117 C114 0.960 . S
C118 N119 1.342 . S
C118 C122 1.401 . S
C118 C123 1.499 . S
N119 Co102 1.989 . S
N119 C118 1.342 . S
N119 N120 1.388 . S
N120 Co103 1.993 . S
N120 N119 1.388 . S
N120 C121 1.346 . S
C121 N120 1.346 . S
C121 C122 1.396 . S
C121 C131 1.510 . S
C122 C118 1.401 . S
C122 C121 1.396 . S
C123 C118 1.499 . S
C123 H124 0.959 . S
C123 H125 0.960 . S
C123 H126 0.961 . S
H124 C123 0.959 . S
H125 C123 0.960 . S
H126 C123 0.961 . S
O127 Co102 1.967 . S
O127 C135 1.258 . S
O128 Co103 1.941 . S
O128 C135 1.266 . S
H129 C131 0.959 . S
H130 C131 0.961 . S
C131 C121 1.510 . S
C131 H129 0.959 . S
C131 H130 0.961 . S
C131 H132 0.960 . S
H132 C131 0.960 . S
H133 N113 0.862 . S
O134 Co102 1.920 . S
O134 C107 1.289 . S
C135 O127 1.258 . S
C135 O128 1.266 . S
Co136 O139 1.970 . S
Co136 N153 1.989 . S
Co136 O161 1.967 . S
Co136 O168 1.920 1_556 S
Co137 O140 1.966 . S
Co137 N146 2.022 . S
Co137 N154 1.993 . S
Co137 O162 1.941 . S
C138 O139 1.258 . S
C138 O140 1.263 . S
O139 Co136 1.970 . S
O139 C138 1.258 . S
O140 Co137 1.966 . S
O140 C138 1.263 . S
C141 O142 1.235 . S
C141 O168 1.289 . S
O142 C141 1.235 . S
C143 C145 1.400 . S
C143 N146 1.351 . S
C143 C148 1.501 . S
C144 C145 1.387 . S
C144 N147 1.341 . S
C145 C143 1.400 . S
C145 C144 1.387 . S
N146 Co137 2.022 . S
N146 C143 1.351 . S
N146 N147 1.365 . S
N147 C144 1.341 . S
N147 N146 1.365 . S
N147 H167 0.862 . S
C148 C143 1.501 . S
C148 H149 0.961 . S
C148 H150 0.961 . S
C148 H151 0.960 . S
H149 C148 0.961 . S
H150 C148 0.961 . S
H151 C148 0.960 . S
C152 N153 1.342 . S
C152 C156 1.401 . S
C152 C157 1.499 . S
N153 Co136 1.989 . S
N153 C152 1.342 . S
N153 N154 1.388 . S
N154 Co137 1.993 . S
N154 N153 1.388 . S
N154 C155 1.346 . S
C155 N154 1.346 . S
C155 C156 1.396 . S
C155 C165 1.510 . S
C156 C152 1.401 . S
C156 C155 1.396 . S
C157 C152 1.499 . S
C157 H158 0.958 1_556 S
C157 H159 0.960 . S
C157 H160 0.961 . S
H158 C157 0.958 1_554 S
H159 C157 0.960 . S
H160 C157 0.961 . S
O161 Co136 1.967 . S
O161 C169 1.258 . S
O162 Co137 1.941 . S
O162 C169 1.266 . S
H163 C165 0.959 . S
H164 C165 0.961 . S
C165 C155 1.510 . S
C165 H163 0.959 . S
C165 H164 0.961 . S
C165 H166 0.960 . S
H166 C165 0.960 . S
H167 N147 0.862 . S
O168 Co136 1.920 1_554 S
O168 C141 1.289 . S
C169 O161 1.258 . S
C169 O162 1.266 . S
Co170 O173 1.970 . S
Co170 N187 1.989 . S
Co170 O195 1.967 . S
Co170 O202 1.920 . S
Co171 O174 1.968 . S
Co171 N180 2.015 1_556 S
Co171 N188 1.995 . S
Co171 O196 1.944 . S
C172 O173 1.258 . S
C172 O174 1.263 . S
O173 Co170 1.970 . S
O173 C172 1.258 . S
O174 Co171 1.968 . S
O174 C172 1.263 . S
C175 O176 1.235 1_545 S
C175 O202 1.289 . S
O176 C175 1.235 1_565 S
C177 C179 1.400 . S
C177 N180 1.351 . S
C177 C182 1.501 . S
C178 C179 1.387 . S
C178 N181 1.341 . S
C179 C177 1.400 . S
C179 C178 1.387 . S
N180 Co171 2.015 1_554 S
N180 C177 1.351 . S
N180 N181 1.365 . S
N181 C178 1.341 . S
N181 N180 1.365 . S
N181 H201 0.862 . S
C182 C177 1.501 . S
C182 H183 0.961 . S
C182 H184 0.961 . S
C182 H185 0.960 . S
H183 C182 0.961 . S
H184 C182 0.961 . S
H185 C182 0.960 . S
C186 N187 1.342 . S
C186 C190 1.401 . S
C186 C191 1.499 . S
N187 Co170 1.989 . S
N187 C186 1.342 . S
N187 N188 1.388 . S
N188 Co171 1.995 . S
N188 N187 1.388 . S
N188 C189 1.346 1_556 S
C189 N188 1.346 1_554 S
C189 C190 1.396 1_554 S
C189 C199 1.510 . S
C190 C186 1.401 . S
C190 C189 1.396 1_556 S
C191 C186 1.499 . S
C191 H192 0.959 . S
C191 H193 0.960 . S
C191 H194 0.961 . S
H192 C191 0.959 . S
H193 C191 0.960 . S
H194 C191 0.961 . S
O195 Co170 1.967 . S
O195 C203 1.258 . S
O196 Co171 1.944 . S
O196 C203 1.266 . S
H197 C199 0.959 . S
H198 C199 0.961 . S
C199 C189 1.510 . S
C199 H197 0.959 . S
C199 H198 0.961 . S
C199 H200 0.960 . S
H200 C199 0.960 . S
H201 N181 0.862 . S
O202 Co170 1.920 . S
O202 C175 1.289 . S
C203 O195 1.258 . S
C203 O196 1.266 . S
Co204 O207 1.970 . S
Co204 N221 1.989 . S
Co204 O229 1.967 . S
Co204 O236 1.920 . S
Co205 O208 1.966 . S
Co205 N214 2.022 . S
Co205 N222 1.993 . S
Co205 O230 1.941 . S
C206 O207 1.258 . S
C206 O208 1.263 . S
O207 Co204 1.970 . S
O207 C206 1.258 . S
O208 Co205 1.966 . S
O208 C206 1.263 . S
C209 O210 1.235 . S
C209 O236 1.289 . S
O210 C209 1.235 . S
C211 C213 1.400 . S
C211 N214 1.351 . S
C211 C216 1.501 . S
C212 C213 1.387 . S
C212 N215 1.341 . S
C213 C211 1.400 . S
C213 C212 1.387 . S
N214 Co205 2.022 . S
N214 C211 1.351 . S
N214 N215 1.365 . S
N215 C212 1.341 . S
N215 N214 1.365 . S
N215 H235 0.862 . S
C216 C211 1.501 . S
C216 H217 0.961 . S
C216 H218 0.961 . S
C216 H219 0.960 . S
H217 C216 0.961 . S
H218 C216 0.961 . S
H219 C216 0.960 . S
C220 N221 1.342 . S
C220 C224 1.401 . S
C220 C225 1.499 . S
N221 Co204 1.989 . S
N221 C220 1.342 . S
N221 N222 1.388 . S
N222 Co205 1.993 . S
N222 N221 1.388 . S
N222 C223 1.346 . S
C223 N222 1.346 . S
C223 C224 1.396 . S
C223 C233 1.510 . S
C224 C220 1.401 . S
C224 C223 1.396 . S
C225 C220 1.499 . S
C225 H226 0.959 . S
C225 H227 0.960 . S
C225 H228 0.961 . S
H226 C225 0.959 . S
H227 C225 0.960 . S
H228 C225 0.961 . S
O229 Co204 1.967 . S
O229 C237 1.258 . S
O230 Co205 1.941 . S
O230 C237 1.266 . S
H231 C233 0.959 . S
H232 C233 0.961 . S
C233 C223 1.510 . S
C233 H231 0.959 . S
C233 H232 0.961 . S
C233 H234 0.960 . S
H234 C233 0.960 . S
H235 N215 0.862 . S
O236 Co204 1.920 . S
O236 C209 1.289 . S
C237 O229 1.258 . S
C237 O230 1.266 . S
Co238 O241 1.970 . S
Co238 N255 1.989 . S
Co238 O263 1.967 . S
Co238 O270 1.920 . S
Co239 O242 1.966 . S
Co239 N248 2.022 . S
Co239 N256 1.993 . S
Co239 O264 1.941 . S
C240 O241 1.258 . S
C240 O242 1.263 . S
O241 Co238 1.970 . S
O241 C240 1.258 . S
O242 Co239 1.966 . S
O242 C240 1.263 . S
C243 O244 1.235 . S
C243 O270 1.289 . S
O244 C243 1.235 . S
C245 C247 1.400 . S
C245 N248 1.351 . S
C245 C250 1.501 . S
C246 C247 1.387 . S
C246 N249 1.341 . S
C247 C245 1.400 . S
C247 C246 1.387 . S
N248 Co239 2.022 . S
N248 C245 1.351 . S
N248 N249 1.365 . S
N249 C246 1.341 . S
N249 N248 1.365 . S
N249 H269 0.862 . S
C250 C245 1.501 . S
C250 H251 0.961 . S
C250 H252 0.961 . S
C250 H253 0.960 . S
H251 C250 0.961 . S
H252 C250 0.961 . S
H253 C250 0.960 . S
C254 N255 1.342 . S
C254 C258 1.401 . S
C254 C259 1.499 . S
N255 Co238 1.989 . S
N255 C254 1.342 . S
N255 N256 1.388 . S
N256 Co239 1.993 . S
N256 N255 1.388 . S
N256 C257 1.346 . S
C257 N256 1.346 . S
C257 C258 1.396 . S
C257 C267 1.510 . S
C258 C254 1.401 . S
C258 C257 1.396 . S
C259 C254 1.499 . S
C259 H260 0.959 . S
C259 H261 0.960 . S
C259 H262 0.961 . S
H260 C259 0.959 . S
H261 C259 0.960 . S
H262 C259 0.961 . S
O263 Co238 1.967 . S
O263 C271 1.258 . S
O264 Co239 1.941 . S
O264 C271 1.266 . S
H265 C267 0.959 . S
H266 C267 0.961 . S
C267 C257 1.510 . S
C267 H265 0.959 . S
C267 H266 0.961 . S
C267 H268 0.960 . S
H268 C267 0.960 . S
H269 N249 0.862 . S
O270 Co238 1.920 . S
O270 C243 1.289 . S
C271 O263 1.258 . S
C271 O264 1.266 . S
H272 C278 0.930 . S
H273 C282 0.930 . S
H274 C287 0.929 . S
H275 C285 0.929 . S
H276 C280 0.929 . S
H277 C286 0.929 . S
C278 H272 0.930 . S
C278 C279 1.367 . S
C278 C286 1.378 . S
C279 C278 1.367 . S
C279 C287 1.433 . S
C280 H276 0.929 . S
C280 C282 1.378 . S
C280 C284 1.350 . S
C281 C284 1.463 . S
C281 C286 1.350 . S
C281 N289 1.427 . S
C282 H273 0.930 . S
C282 C280 1.378 . S
C282 C283 1.367 . S
C283 C282 1.367 . S
C283 C285 1.433 1_565 S
C284 C280 1.350 . S
C284 C281 1.463 . S
C284 N288 1.427 . S
C285 H275 0.929 . S
C285 C283 1.433 1_545 S
C285 N288 1.384 1_545 S
C286 H277 0.929 . S
C286 C278 1.378 . S
C286 C281 1.350 . S
C287 H274 0.929 . S
C287 C279 1.433 . S
C287 N289 1.384 . S
N288 C284 1.427 . S
N288 C285 1.384 1_565 S
N289 C281 1.427 . S
N289 C287 1.384 . S
H290 C296 0.930 . S
H291 C300 0.930 . S
H292 C305 0.929 . S
H293 C303 0.929 . S
H294 C298 0.929 . S
H295 C304 0.929 . S
C296 H290 0.930 . S
C296 C297 1.367 . S
C296 C304 1.378 . S
C297 C296 1.367 . S
C297 C305 1.433 . S
C298 H294 0.929 . S
C298 C300 1.378 . S
C298 C302 1.350 . S
C299 C302 1.463 . S
C299 C304 1.350 . S
C299 N307 1.427 . S
C300 H291 0.930 . S
C300 C298 1.378 . S
C300 C301 1.367 . S
C301 C300 1.367 . S
C301 C303 1.433 . S
C302 C298 1.350 . S
C302 C299 1.463 . S
C302 N306 1.427 . S
C303 H293 0.929 . S
C303 C301 1.433 . S
C303 N306 1.384 . S
C304 H295 0.929 . S
C304 C296 1.378 . S
C304 C299 1.350 . S
C305 H292 0.929 . S
C305 C297 1.433 . S
C305 N307 1.384 . S
N306 C302 1.427 . S
N306 C303 1.384 . S
N307 C299 1.427 . S
N307 C305 1.384 . S
H308 C314 0.930 . S
H309 C318 0.930 . S
H310 C323 0.929 1_554 S
H311 C321 0.929 . S
H312 C316 0.929 . S
H313 C322 0.929 . S
C314 H308 0.930 . S
C314 C315 1.367 . S
C314 C322 1.378 . S
C315 C314 1.367 . S
C315 C323 1.433 . S
C316 H312 0.929 . S
C316 C318 1.378 . S
C316 C320 1.350 . S
C317 C320 1.463 . S
C317 C322 1.350 1_565 S
C317 N325 1.427 . S
C318 H309 0.930 . S
C318 C316 1.378 . S
C318 C319 1.367 . S
C319 C318 1.367 . S
C319 C321 1.433 . S
C320 C316 1.350 . S
C320 C317 1.463 . S
C320 N324 1.427 . S
C321 H311 0.929 . S
C321 C319 1.433 . S
C321 N324 1.384 . S
C322 H313 0.929 . S
C322 C314 1.378 . S
C322 C317 1.350 1_545 S
C323 H310 0.929 1_556 S
C323 C315 1.433 . S
C323 N325 1.384 1_545 S
N324 C320 1.427 . S
N324 C321 1.384 . S
N325 C317 1.427 . S
N325 C323 1.384 1_565 S
H326 C332 0.930 . S
H327 C336 0.930 . S
H328 C341 0.929 . S
H329 C339 0.929 . S
H330 C334 0.929 . S
H331 C340 0.929 . S
C332 H326 0.930 . S
C332 C333 1.367 . S
C332 C340 1.378 . S
C333 C332 1.367 . S
C333 C341 1.433 . S
C334 H330 0.929 . S
C334 C336 1.378 . S
C334 C338 1.350 . S
C335 C338 1.463 . S
C335 C340 1.350 . S
C335 N343 1.427 . S
C336 H327 0.930 . S
C336 C334 1.378 . S
C336 C337 1.367 . S
C337 C336 1.367 . S
C337 C339 1.433 . S
C338 C334 1.350 . S
C338 C335 1.463 . S
C338 N342 1.427 . S
C339 H329 0.929 . S
C339 C337 1.433 . S
C339 N342 1.384 . S
C340 H331 0.929 . S
C340 C332 1.378 . S
C340 C335 1.350 . S
C341 H328 0.929 . S
C341 C333 1.433 . S
C341 N343 1.384 . S
N342 C338 1.427 . S
N342 C339 1.384 . S
N343 C335 1.427 . S
N343 C341 1.384 . S
H344 C350 0.930 . S
H345 C354 0.930 1_546 S
H346 C359 0.929 . S
H347 C357 0.929 . S
H348 C352 0.917 1_655 S
H349 C358 0.938 . S
C350 H344 0.930 . S
C350 C351 1.367 . S
C350 C358 1.373 1_556 S
C351 C350 1.367 . S
C351 C359 1.433 . S
C352 H348 0.917 1_455 S
C352 C354 1.406 1_556 S
C352 C356 1.329 1_456 S
C353 C356 1.458 1_556 S
C353 C358 1.345 1_556 S
C353 N361 1.427 . S
C354 H345 0.930 1_564 S
C354 C352 1.406 1_554 S
C354 C355 1.367 . S
C355 C354 1.367 . S
C355 C357 1.433 . S
C356 C352 1.329 1_654 S
C356 C353 1.458 1_554 S
C356 N360 1.437 . S
C357 H347 0.929 . S
C357 C355 1.433 . S
C357 N360 1.384 1_455 S
C358 H349 0.938 . S
C358 C350 1.373 1_554 S
C358 C353 1.345 1_554 S
C359 H346 0.929 . S
C359 C351 1.433 . S
C359 N361 1.384 . S
N360 C356 1.437 . S
N360 C357 1.384 1_655 S
N361 C353 1.427 . S
N361 C359 1.384 . S
H362 C368 0.930 1_556 S
H363 C372 0.930 . S
H364 C377 0.929 . S
H365 C375 0.929 . S
H366 C370 0.929 . S
H367 C376 0.928 1_545 S
C368 H362 0.930 1_554 S
C368 C369 1.367 . S
C368 C376 1.378 1_554 S
C369 C368 1.367 . S
C369 C377 1.433 . S
C370 H366 0.929 . S
C370 C372 1.378 . S
C370 C374 1.350 . S
C371 C374 1.463 . S
C371 C376 1.350 1_554 S
C371 N379 1.427 . S
C372 H363 0.930 . S
C372 C370 1.378 . S
C372 C373 1.367 1_564 S
C373 C372 1.367 1_546 S
C373 C375 1.433 . S
C374 C370 1.350 . S
C374 C371 1.463 . S
C374 N378 1.427 1_564 S
C375 H365 0.929 . S
C375 C373 1.433 . S
C375 N378 1.384 . S
C376 H367 0.928 1_565 S
C376 C368 1.378 1_556 S
C376 C371 1.350 1_556 S
C377 H364 0.929 . S
C377 C369 1.433 . S
C377 N379 1.384 . S
N378 C374 1.427 1_546 S
N378 C375 1.384 . S
N379 C371 1.427 . S
N379 C377 1.384 . S
H380 C386 0.930 . S
H381 C390 0.930 . S
H382 C395 0.929 . S
H383 C393 0.929 . S
H384 C388 0.929 1_455 S
H385 C394 0.929 . S
C386 H380 0.930 . S
C386 C387 1.367 . S
C386 C394 1.378 . S
C387 C386 1.367 . S
C387 C395 1.433 . S
C388 H384 0.929 1_655 S
C388 C390 1.378 . S
C388 C392 1.350 . S
C389 C392 1.463 1_455 S
C389 C394 1.350 . S
C389 N397 1.427 . S
C390 H381 0.930 . S
C390 C388 1.378 . S
C390 C391 1.367 . S
C391 C390 1.367 . S
C391 C393 1.433 . S
C392 C388 1.350 . S
C392 C389 1.463 1_655 S
C392 N396 1.427 . S
C393 H383 0.929 . S
C393 C391 1.433 . S
C393 N396 1.384 . S
C394 H385 0.929 . S
C394 C386 1.378 . S
C394 C389 1.350 . S
C395 H382 0.929 . S
C395 C387 1.433 . S
C395 N397 1.384 . S
N396 C392 1.427 . S
N396 C393 1.384 . S
N397 C389 1.427 . S
N397 C395 1.384 . S
H398 C404 0.930 . S
H399 C408 0.930 . S
H400 C413 0.929 . S
H401 C411 0.929 . S
H402 C406 0.929 . S
H403 C412 0.929 . S
C404 H398 0.930 . S
C404 C405 1.367 . S
C404 C412 1.378 . S
C405 C404 1.367 . S
C405 C413 1.433 . S
C406 H402 0.929 . S
C406 C408 1.378 . S
C406 C410 1.350 . S
C407 C410 1.463 . S
C407 C412 1.350 . S
C407 N415 1.427 . S
C408 H399 0.930 . S
C408 C406 1.378 . S
C408 C409 1.367 . S
C409 C408 1.367 . S
C409 C411 1.433 . S
C410 C406 1.350 . S
C410 C407 1.463 . S
C410 N414 1.427 . S
C411 H401 0.929 . S
C411 C409 1.433 . S
C411 N414 1.384 . S
C412 H403 0.929 . S
C412 C404 1.378 . S
C412 C407 1.350 . S
C413 H400 0.929 . S
C413 C405 1.433 . S
C413 N415 1.384 . S
N414 C410 1.427 . S
N414 C411 1.384 . S
N415 C407 1.427 . S
N415 C413 1.384 . S
H416 C422 0.930 . S
H417 C426 0.930 . S
H418 C431 0.929 . S
H419 C429 0.929 . S
H420 C424 0.929 . S
H421 C430 0.929 . S
C422 H416 0.930 . S
C422 C423 1.367 1_565 S
C422 C430 1.378 . S
C423 C422 1.367 1_545 S
C423 C431 1.433 . S
C424 H420 0.929 . S
C424 C426 1.378 . S
C424 C428 1.350 1_545 S
C425 C428 1.463 . S
C425 C430 1.350 . S
C425 N433 1.427 1_565 S
C426 H417 0.930 . S
C426 C424 1.378 . S
C426 C427 1.367 1_545 S
C427 C426 1.367 1_565 S
C427 C429 1.433 . S
C428 C424 1.350 1_565 S
C428 C425 1.463 . S
C428 N432 1.427 . S
C429 H419 0.929 . S
C429 C427 1.433 . S
C429 N432 1.384 . S
C430 H421 0.929 . S
C430 C422 1.378 . S
C430 C425 1.350 . S
C431 H418 0.929 . S
C431 C423 1.433 . S
C431 N433 1.384 . S
N432 C428 1.427 . S
N432 C429 1.384 . S
N433 C425 1.427 1_545 S
N433 C431 1.384 . S
H434 C440 0.930 . S
H435 C444 0.930 . S
H436 C449 0.929 . S
H437 C447 0.929 . S
H438 C442 0.929 . S
H439 C448 0.929 . S
C440 H434 0.930 . S
C440 C441 1.367 . S
C440 C448 1.378 . S
C441 C440 1.367 . S
C441 C449 1.433 . S
C442 H438 0.929 . S
C442 C444 1.378 . S
C442 C446 1.350 . S
C443 C446 1.463 . S
C443 C448 1.350 . S
C443 N451 1.427 . S
C444 H435 0.930 . S
C444 C442 1.378 . S
C444 C445 1.367 . S
C445 C444 1.367 . S
C445 C447 1.433 . S
C446 C442 1.350 . S
C446 C443 1.463 . S
C446 N450 1.427 . S
C447 H437 0.929 . S
C447 C445 1.433 . S
C447 N450 1.384 . S
C448 H439 0.929 . S
C448 C440 1.378 . S
C448 C443 1.350 . S
C449 H436 0.929 . S
C449 C441 1.433 . S
C449 N451 1.384 . S
N450 C446 1.427 . S
N450 C447 1.384 . S
N451 C443 1.427 . S
N451 C449 1.384 . S
H452 C458 0.930 . S
H453 C462 0.930 . S
H454 C467 0.929 . S
H455 C465 0.929 . S
H456 C460 0.929 . S
H457 C466 0.929 . S
C458 H452 0.930 . S
C458 C459 1.367 . S
C458 C466 1.378 . S
C459 C458 1.367 . S
C459 C467 1.433 . S
C460 H456 0.929 . S
C460 C462 1.378 1_556 S
C460 C464 1.350 . S
C461 C464 1.463 . S
C461 C466 1.350 . S
C461 N469 1.427 . S
C462 H453 0.930 . S
C462 C460 1.378 1_554 S
C462 C463 1.367 . S
C463 C462 1.367 . S
C463 C465 1.433 . S
C464 C460 1.350 . S
C464 C461 1.463 . S
C464 N468 1.427 1_556 S
C465 H455 0.929 . S
C465 C463 1.433 . S
C465 N468 1.384 . S
C466 H457 0.929 . S
C466 C458 1.378 . S
C466 C461 1.350 . S
C467 H454 0.929 . S
C467 C459 1.433 . S
C467 N469 1.384 . S
N468 C464 1.427 1_554 S
N468 C465 1.384 . S
N469 C461 1.427 . S
N469 C467 1.384 . S
H470 C476 0.930 . S
H471 C480 0.930 . S
H472 C485 0.929 . S
H473 C483 0.929 . S
H474 C478 0.929 . S
H475 C484 0.929 1_556 S
C476 H470 0.930 . S
C476 C477 1.367 . S
C476 C484 1.378 . S
C477 C476 1.367 . S
C477 C485 1.433 . S
C478 H474 0.929 . S
C478 C480 1.378 . S
C478 C482 1.350 . S
C479 C482 1.463 . S
C479 C484 1.350 1_556 S
C479 N487 1.427 1_556 S
C480 H471 0.930 . S
C480 C478 1.378 . S
C480 C481 1.367 . S
C481 C480 1.367 . S
C481 C483 1.433 . S
C482 C478 1.350 . S
C482 C479 1.463 . S
C482 N486 1.427 . S
C483 H473 0.929 . S
C483 C481 1.433 . S
C483 N486 1.384 . S
C484 H475 0.929 1_554 S
C484 C476 1.378 . S
C484 C479 1.350 1_554 S
C485 H472 0.929 . S
C485 C477 1.433 . S
C485 N487 1.384 . S
N486 C482 1.427 . S
N486 C483 1.384 . S
N487 C479 1.427 1_554 S
N487 C485 1.384 . S
H488 C494 0.930 . S
H489 C498 0.930 . S
H490 C503 0.929 . S
H491 C501 0.929 . S
H492 C496 0.929 . S
H493 C502 0.929 . S
C494 H488 0.930 . S
C494 C495 1.367 . S
C494 C502 1.378 . S
C495 C494 1.367 . S
C495 C503 1.433 . S
C496 H492 0.929 . S
C496 C498 1.378 . S
C496 C500 1.350 . S
C497 C500 1.463 . S
C497 C502 1.350 . S
C497 N505 1.427 . S
C498 H489 0.930 . S
C498 C496 1.378 . S
C498 C499 1.367 . S
C499 C498 1.367 . S
C499 C501 1.433 . S
C500 C496 1.350 . S
C500 C497 1.463 . S
C500 N504 1.427 . S
C501 H491 0.929 . S
C501 C499 1.433 . S
C501 N504 1.384 . S
C502 H493 0.929 . S
C502 C494 1.378 . S
C502 C497 1.350 . S
C503 H490 0.929 . S
C503 C495 1.433 . S
C503 N505 1.384 . S
N504 C500 1.427 . S
N504 C501 1.384 . S
N505 C497 1.427 . S
N505 C503 1.384 . S
H506 C512 0.930 1_565 S
H507 C516 0.930 . S
H508 C521 0.929 . S
H509 C519 0.929 . S
H510 C514 0.929 . S
H511 C520 0.929 . S
C512 H506 0.930 1_545 S
C512 C513 1.367 . S
C512 C520 1.378 . S
C513 C512 1.367 . S
C513 C521 1.433 . S
C514 H510 0.929 . S
C514 C516 1.378 . S
C514 C518 1.350 . S
C515 C518 1.463 . S
C515 C520 1.350 . S
C515 N523 1.427 . S
C516 H507 0.930 . S
C516 C514 1.378 . S
C516 C517 1.367 . S
C517 C516 1.367 . S
C517 C519 1.433 . S
C518 C514 1.350 . S
C518 C515 1.463 . S
C518 N522 1.427 . S
C519 H509 0.929 . S
C519 C517 1.433 . S
C519 N522 1.384 . S
C520 H511 0.929 . S
C520 C512 1.378 . S
C520 C515 1.350 . S
C521 H508 0.929 . S
C521 C513 1.433 . S
C521 N523 1.384 . S
N522 C518 1.427 . S
N522 C519 1.384 . S
N523 C515 1.427 . S
N523 C521 1.384 . S
H524 C530 0.930 . S
H525 C534 0.930 . S
H526 C539 0.929 . S
H527 C537 0.929 . S
H528 C532 0.929 . S
H529 C538 0.929 . S
C530 H524 0.930 . S
C530 C531 1.367 . S
C530 C538 1.378 . S
C531 C530 1.367 . S
C531 C539 1.433 . S
C532 H528 0.929 . S
C532 C534 1.378 1_554 S
C532 C536 1.350 . S
C533 C536 1.463 . S
C533 C538 1.350 . S
C533 N541 1.427 . S
C534 H525 0.930 . S
C534 C532 1.378 1_556 S
C534 C535 1.367 . S
C535 C534 1.367 . S
C535 C537 1.433 . S
C536 C532 1.350 . S
C536 C533 1.463 . S
C536 N540 1.427 1_554 S
C537 H527 0.929 . S
C537 C535 1.433 . S
C537 N540 1.384 . S
C538 H529 0.929 . S
C538 C530 1.378 . S
C538 C533 1.350 . S
C539 H526 0.929 . S
C539 C531 1.433 . S
C539 N541 1.384 . S
N540 C536 1.427 1_556 S
N540 C537 1.384 . S
N541 C533 1.427 . S
N541 C539 1.384 . S
H542 C548 0.930 . S
H543 C552 0.930 . S
H544 C557 0.929 . S
H545 C555 0.929 . S
H546 C550 0.929 . S
H547 C556 0.929 . S
C548 H542 0.930 . S
C548 C549 1.367 . S
C548 C556 1.378 . S
C549 C548 1.367 . S
C549 C557 1.433 . S
C550 H546 0.929 . S
C550 C552 1.378 1_554 S
C550 C554 1.350 . S
C551 C554 1.463 . S
C551 C556 1.350 . S
C551 N559 1.427 . S
C552 H543 0.930 . S
C552 C550 1.378 1_556 S
C552 C553 1.367 . S
C553 C552 1.367 . S
C553 C555 1.433 . S
C554 C550 1.350 . S
C554 C551 1.463 . S
C554 N558 1.427 1_554 S
C555 H545 0.929 . S
C555 C553 1.433 . S
C555 N558 1.384 . S
C556 H547 0.929 . S
C556 C548 1.378 . S
C556 C551 1.350 . S
C557 H544 0.929 . S
C557 C549 1.433 . S
C557 N559 1.384 . S
N558 C554 1.427 1_556 S
N558 C555 1.384 . S
N559 C551 1.427 . S
N559 C557 1.384 . S
H560 C566 0.930 . S
H561 C570 0.930 . S
H562 C575 0.929 . S
H563 C573 0.929 . S
H564 C568 0.929 . S
H565 C574 0.929 . S
C566 H560 0.930 . S
C566 C567 1.367 . S
C566 C574 1.378 . S
C567 C566 1.367 . S
C567 C575 1.433 . S
C568 H564 0.929 . S
C568 C570 1.378 . S
C568 C572 1.350 . S
C569 C572 1.463 . S
C569 C574 1.350 . S
C569 N577 1.427 . S
C570 H561 0.930 . S
C570 C568 1.378 . S
C570 C571 1.367 . S
C571 C570 1.367 . S
C571 C573 1.433 . S
C572 C568 1.350 . S
C572 C569 1.463 . S
C572 N576 1.427 . S
C573 H563 0.929 . S
C573 C571 1.433 . S
C573 N576 1.384 . S
C574 H565 0.929 . S
C574 C566 1.378 . S
C574 C569 1.350 . S
C575 H562 0.929 . S
C575 C567 1.433 . S
C575 N577 1.384 . S
N576 C572 1.427 . S
N576 C573 1.384 . S
N577 C569 1.427 . S
N577 C575 1.384 . S
H578 C584 0.930 . S
H579 C588 0.930 . S
H580 C593 0.929 . S
H581 C591 0.929 . S
H582 C586 0.929 . S
H583 C592 0.929 . S
C584 H578 0.930 . S
C584 C585 1.367 . S
C584 C592 1.378 . S
C585 C584 1.367 . S
C585 C593 1.433 . S
C586 H582 0.929 . S
C586 C588 1.378 . S
C586 C590 1.350 . S
C587 C590 1.463 . S
C587 C592 1.350 . S
C587 N595 1.427 . S
C588 H579 0.930 . S
C588 C586 1.378 . S
C588 C589 1.367 . S
C589 C588 1.367 . S
C589 C591 1.433 . S
C590 C586 1.350 . S
C590 C587 1.463 . S
C590 N594 1.427 . S
C591 H581 0.929 . S
C591 C589 1.433 . S
C591 N594 1.384 . S
C592 H583 0.929 . S
C592 C584 1.378 . S
C592 C587 1.350 . S
C593 H580 0.929 . S
C593 C585 1.433 . S
C593 N595 1.384 . S
N594 C590 1.427 . S
N594 C591 1.384 . S
N595 C587 1.427 . S
N595 C593 1.384 . S
H596 C602 0.930 . S
H597 C606 0.930 . S
H598 C611 0.929 . S
H599 C609 0.929 . S
H600 C604 0.929 . S
H601 C610 0.929 . S
C602 H596 0.930 . S
C602 C603 1.367 . S
C602 C610 1.378 . S
C603 C602 1.367 . S
C603 C611 1.433 . S
C604 H600 0.929 . S
C604 C606 1.378 . S
C604 C608 1.350 . S
C605 C608 1.463 . S
C605 C610 1.350 . S
C605 N613 1.427 . S
C606 H597 0.930 . S
C606 C604 1.378 . S
C606 C607 1.367 . S
C607 C606 1.367 . S
C607 C609 1.433 . S
C608 C604 1.350 . S
C608 C605 1.463 . S
C608 N612 1.427 . S
C609 H599 0.929 . S
C609 C607 1.433 . S
C609 N612 1.384 . S
C610 H601 0.929 . S
C610 C602 1.378 . S
C610 C605 1.350 . S
C611 H598 0.929 . S
C611 C603 1.433 . S
C611 N613 1.384 . S
N612 C608 1.427 . S
N612 C609 1.384 . S
N613 C605 1.427 . S
N613 C611 1.384 . S
H614 C620 0.930 . S
H615 C624 0.930 . S
H616 C629 0.929 . S
H617 C627 0.929 . S
H618 C622 0.929 . S
H619 C628 0.929 . S
C620 H614 0.930 . S
C620 C621 1.367 . S
C620 C628 1.378 . S
C621 C620 1.367 . S
C621 C629 1.433 . S
C622 H618 0.929 . S
C622 C624 1.378 . S
C622 C626 1.350 . S
C623 C626 1.463 . S
C623 C628 1.350 . S
C623 N631 1.427 . S
C624 H615 0.930 . S
C624 C622 1.378 . S
C624 C625 1.367 . S
C625 C624 1.367 . S
C625 C627 1.433 . S
C626 C622 1.350 . S
C626 C623 1.463 . S
C626 N630 1.427 . S
C627 H617 0.929 . S
C627 C625 1.433 . S
C627 N630 1.384 . S
C628 H619 0.929 . S
C628 C620 1.378 . S
C628 C623 1.350 . S
C629 H616 0.929 . S
C629 C621 1.433 . S
C629 N631 1.384 . S
N630 C626 1.427 . S
N630 C627 1.384 . S
N631 C623 1.427 . S
N631 C629 1.384 . S
C279 C36 1.808 . S
C283 C2 1.799 1_565 S
C297 C70 1.444 . S
C301 C104 1.444 . S
C315 C172 1.728 . S
C319 C138 1.720 . S
C333 C206 1.135 . S
C337 C240 1.134 . S
C351 C169 1.772 . S
C355 C20 1.784 . S
C369 C54 1.738 . S
C373 C190 1.739 . S
C387 C88 1.226 . S
C391 C224 1.225 . S
C405 C122 1.574 . S
C409 C258 1.573 . S
C423 C9 1.264 . S
C427 C5 1.290 . S
C441 C39 1.260 . S
C445 C43 1.214 . S
C459 C77 1.257 . S
C463 C73 1.293 . S
C477 C107 1.259 . S
C481 C111 1.229 . S
C495 C141 1.310 . S
C499 C145 1.261 . S
C513 C175 1.300 . S
C517 C179 1.257 . S
C531 C213 1.223 . S
C535 C209 1.259 . S
C549 C247 1.256 . S
C553 C243 1.291 . S
C567 C33 1.628 . S
C571 C101 1.620 . S
C585 C67 1.849 . S
C589 C135 1.853 . S
C603 C156 1.421 . S
C607 C237 1.427 . S
C621 C203 1.368 . S
C625 C271 1.380 . S
