# Generated by pormake.
# Topology lhb, (8)-cn, num edge types: 1
# Building blocks:
#     Node 0, Type 0, BuildingBlock: AJUNOK_clean_sbu_0, # of connection points: 8
#     Node 1, Type 0, BuildingBlock: AJUNOK_clean_sbu_0, # of connection points: 8
#     Node 2, Type 0, BuildingBlock: AJUNOK_clean_sbu_0, # of connection points: 8
#     Node 3, Type 0, BuildingBlock: AJUNOK_clean_sbu_0, # of connection points: 8
#     Node 4, Type 0, BuildingBlock: AJUNOK_clean_sbu_0, # of connection points: 8
#     Node 5, Type 0, BuildingBlock: AJUNOK_clean_sbu_0, # of connection points: 8
#     Node 6, Type 0, BuildingBlock: AJUNOK_clean_sbu_0, # of connection points: 8
#     Node 7, Type 0, BuildingBlock: AJUNOK_clean_sbu_0, # of connection points: 8
#     Edge 8, Type (0, 0), BuildingBlock: AJUNOK_clean_linker_0, # of connection points: 2
#     Edge 9, Type (0, 0), BuildingBlock: AJUNOK_clean_linker_0, # of connection points: 2
#     Edge 10, Type (0, 0), BuildingBlock: AJUNOK_clean_linker_0, # of connection points: 2
#     Edge 11, Type (0, 0), BuildingBlock: AJUNOK_clean_linker_0, # of connection points: 2
#     Edge 12, Type (0, 0), BuildingBlock: AJUNOK_clean_linker_0, # of connection points: 2
#     Edge 13, Type (0, 0), BuildingBlock: AJUNOK_clean_linker_0, # of connection points: 2
#     Edge 14, Type (0, 0), BuildingBlock: AJUNOK_clean_linker_0, # of connection points: 2
#     Edge 15, Type (0, 0), BuildingBlock: AJUNOK_clean_linker_0, # of connection points: 2
#     Edge 16, Type (0, 0), BuildingBlock: AJUNOK_clean_linker_0, # of connection points: 2
#     Edge 17, Type (0, 0), BuildingBlock: AJUNOK_clean_linker_0, # of connection points: 2
#     Edge 18, Type (0, 0), BuildingBlock: AJUNOK_clean_linker_0, # of connection points: 2
#     Edge 19, Type (0, 0), BuildingBlock: AJUNOK_clean_linker_0, # of connection points: 2
#     Edge 20, Type (0, 0), BuildingBlock: AJUNOK_clean_linker_0, # of connection points: 2
#     Edge 21, Type (0, 0), BuildingBlock: AJUNOK_clean_linker_0, # of connection points: 2
#     Edge 22, Type (0, 0), BuildingBlock: AJUNOK_clean_linker_0, # of connection points: 2
#     Edge 23, Type (0, 0), BuildingBlock: AJUNOK_clean_linker_0, # of connection points: 2
#     Edge 24, Type (0, 0), BuildingBlock: AJUNOK_clean_linker_0, # of connection points: 2
#     Edge 25, Type (0, 0), BuildingBlock: AJUNOK_clean_linker_0, # of connection points: 2
#     Edge 26, Type (0, 0), BuildingBlock: AJUNOK_clean_linker_0, # of connection points: 2
#     Edge 27, Type (0, 0), BuildingBlock: AJUNOK_clean_linker_0, # of connection points: 2
#     Edge 28, Type (0, 0), BuildingBlock: AJUNOK_clean_linker_0, # of connection points: 2
#     Edge 29, Type (0, 0), BuildingBlock: AJUNOK_clean_linker_0, # of connection points: 2
#     Edge 30, Type (0, 0), BuildingBlock: AJUNOK_clean_linker_0, # of connection points: 2
#     Edge 31, Type (0, 0), BuildingBlock: AJUNOK_clean_linker_0, # of connection points: 2
#     Edge 32, Type (0, 0), BuildingBlock: AJUNOK_clean_linker_0, # of connection points: 2
#     Edge 33, Type (0, 0), BuildingBlock: AJUNOK_clean_linker_0, # of connection points: 2
#     Edge 34, Type (0, 0), BuildingBlock: AJUNOK_clean_linker_0, # of connection points: 2
#     Edge 35, Type (0, 0), BuildingBlock: AJUNOK_clean_linker_0, # of connection points: 2
#     Edge 36, Type (0, 0), BuildingBlock: AJUNOK_clean_linker_0, # of connection points: 2
#     Edge 37, Type (0, 0), BuildingBlock: AJUNOK_clean_linker_0, # of connection points: 2
#     Edge 38, Type (0, 0), BuildingBlock: AJUNOK_clean_linker_0, # of connection points: 2
#     Edge 39, Type (0, 0), BuildingBlock: AJUNOK_clean_linker_0, # of connection points: 2
# Relax obj value: 0.059
# Max RMSD: 0.150
# Mean RMSD: 0.150
data_MOF--net-lhb--node1-AJUNOK_clean_sbu_0--edge1-AJUNOK_clean_linker_0
_symmetry_space_group_name_H-M    P1
_symmetry_Int_Tables_number       1
_symmetry_cell_setting            triclinic
loop_
_symmetry_equiv_pos_as_xyz
'x, y, z'
_cell_length_a     27.606532
_cell_length_b     9.6792274
_cell_length_c     61.163966
_cell_angle_alpha  90.000594
_cell_angle_beta   90.037225
_cell_angle_gamma 90.292329
loop_
_atom_site_label
_atom_site_type_symbol
_atom_site_fract_x
_atom_site_fract_y
_atom_site_fract_z
_atom_type_partial_charge
Cd0 Cd 0.04139 0.26663 1.01038 0.0
Cd1 Cd 0.88528 0.14193 0.02268 0.0
C2 C 0.01828 0.10815 0.96405 0.0
N3 N 0.04239 0.21895 0.97245 0.0
C4 C 0.08264 0.25553 0.93828 0.0
C5 C 0.06011 0.13751 0.92947 0.0
C6 C 0.02632 0.06592 0.94246 0.0
C7 C 0.07318 0.29454 0.95982 0.0
H8 H -0.00577 0.04924 0.97432 0.0
H9 H 0.09216 0.38209 0.96667 0.0
C10 C 0.92623 0.42836 0.01643 0.0
C11 C 0.93169 0.13972 0.07231 0.0
C12 C 0.93189 0.12218 0.09506 0.0
C13 C 0.88864 0.08645 0.10589 0.0
C14 C 0.84609 0.07253 0.09345 0.0
C15 C 0.84748 0.09257 0.07093 0.0
N16 N 0.88985 0.12415 0.06078 0.0
H17 H 0.96487 0.16418 0.06383 0.0
H18 H 0.81468 0.08089 0.06147 0.0
C19 C 0.89166 0.22204 0.97126 0.0
N20 N 0.89529 0.11213 0.985 0.0
C21 C 0.89679 0.95587 0.95469 0.0
C22 C 0.89231 0.06725 0.94017 0.0
C23 C 0.89035 0.20187 0.94868 0.0
C24 C 0.89813 0.98077 0.97716 0.0
H25 H 0.88763 0.32497 0.97779 0.0
H26 H 0.90016 0.89471 0.98835 0.0
C27 C -0.00038 -0.01563 0.01851 0.0
C28 C 0.12188 0.43981 1.00873 0.0
N29 N 0.05231 0.25945 0.04837 0.0
C30 C 0.07731 0.15605 0.05828 0.0
C31 C 0.08773 0.16309 0.08062 0.0
C32 C 0.07334 0.27904 0.09272 0.0
C33 C 0.04734 0.38377 0.08212 0.0
C34 C 0.03727 0.37194 0.0598 0.0
C35 C 0.80206 0.98045 0.01812 0.0
O36 O 0.95611 0.33122 1.01401 0.0
O37 O 0.88281 0.39616 0.02107 0.0
O38 O 0.97067 0.08368 0.02078 0.0
O39 O 0.04332 0.01379 1.01416 0.0
O40 O 0.08064 0.49474 1.01154 0.0
O41 O 0.12403 0.30964 1.00654 0.0
O42 O 0.84311 0.92584 0.02153 0.0
O43 O 0.79952 0.1117 0.01802 0.0
H44 H 0.09046 0.06988 0.0488 0.0
H45 H 0.01826 0.45388 0.05142 0.0
H46 H 0.10902 0.31405 0.92895 0.0
H47 H 0.00698 0.97674 0.93619 0.0
H48 H 0.96541 0.13637 0.104 0.0
H49 H 0.81205 0.04344 0.101 0.0
H50 H 0.89833 0.85059 0.94873 0.0
H51 H 0.88552 0.29024 0.93805 0.0
H52 H 0.10824 0.08088 0.08821 0.0
H53 H 0.03521 0.47412 0.09097 0.0
Cd54 Cd 0.30394 0.1359 0.27402 0.0
Cd55 Cd 0.12006 0.24996 0.26725 0.0
C56 C 0.35359 0.0285 0.22944 0.0
N57 N 0.30869 0.0346 0.23853 0.0
C58 C 0.27248 -0.01388 0.20367 0.0
C59 C 0.31827 -0.0081 0.19358 0.0
C60 C 0.35921 0.00798 0.20702 0.0
C61 C 0.26849 0.00971 0.22622 0.0
H62 H 0.38525 0.04833 0.23926 0.0
H63 H 0.23317 0.01518 0.23361 0.0
C64 C 0.18585 0.97636 0.2748 0.0
C65 C 0.14204 0.37539 0.31567 0.0
C66 C 0.13226 0.42093 0.33695 0.0
C67 C 0.08459 0.45459 0.3429 0.0
C68 C 0.04838 0.44983 0.32676 0.0
C69 C 0.05978 0.40419 0.30567 0.0
N70 N 0.10577 0.36538 0.30066 0.0
H71 H 0.17815 0.34174 0.31144 0.0
H72 H 0.03136 0.39381 0.29361 0.0
C73 C 0.14627 0.18678 0.21832 0.0
N74 N 0.13447 0.2995 0.23038 0.0
C75 C 0.11578 0.42651 0.19792 0.0
C76 C 0.12554 0.30913 0.18511 0.0
C77 C 0.14276 0.1899 0.19558 0.0
C78 C 0.12076 0.41966 0.22068 0.0
H79 H 0.15484 0.09104 0.2265 0.0
H80 H 0.10962 0.50621 0.23062 0.0
C81 C 0.23731 0.40377 0.26809 0.0
C82 C 0.40265 0.19675 0.27562 0.0
N83 N 0.30104 0.09383 0.31236 0.0
C84 C 0.33537 0.16244 0.32417 0.0
C85 C 0.34003 0.14031 0.34662 0.0
C86 C 0.30856 0.048 0.35722 0.0
C87 C 0.27161 -0.01542 0.34496 0.0
C88 C 0.26843 0.00918 0.32248 0.0
C89 C 0.02601 0.20265 0.25297 0.0
O90 O 0.21733 0.07158 0.27483 0.0
O91 O 0.14152 0.00968 0.27369 0.0
O92 O 0.2052 0.31091 0.26732 0.0
O93 O 0.28108 0.368 0.26976 0.0
O94 O 0.38617 0.07909 0.28152 0.0
O95 O 0.37285 0.28678 0.26874 0.0
O96 O 0.04636 0.32077 0.25183 0.0
O97 O 0.04884 0.10478 0.26224 0.0
H98 H 0.35979 0.23348 0.31612 0.0
H99 H 0.24011 0.95913 0.31326 0.0
H100 H 0.23988 0.96924 0.19418 0.0
H101 H 0.39531 0.01377 0.20016 0.0
H102 H 0.16113 0.42227 0.34895 0.0
H103 H 0.01128 0.47635 0.33062 0.0
H104 H 0.1012 0.51946 0.19067 0.0
H105 H 0.15095 0.09733 0.18637 0.0
H106 H 0.36879 0.19239 0.35548 0.0
H107 H 0.24554 0.91618 0.35264 0.0
Cd108 Cd 0.64787 0.80319 0.25888 0.0
Cd109 Cd 0.8128 0.67353 0.2669 0.0
C110 C 0.60035 0.64506 0.21839 0.0
N111 N 0.63712 0.73464 0.22284 0.0
C112 C 0.65902 0.74462 0.18509 0.0
C113 C 0.62078 0.654 0.17998 0.0
C114 C 0.59141 0.6033 0.19691 0.0
C115 C 0.66632 0.78494 0.2068 0.0
H116 H 0.57771 0.60712 0.23153 0.0
H117 H 0.69488 0.85741 0.21085 0.0
C118 C 0.76094 0.9583 0.26632 0.0
C119 C 0.84191 0.77124 0.31643 0.0
C120 C 0.85849 0.75616 0.3379 0.0
C121 C 0.87637 0.62785 0.34483 0.0
C122 C 0.87845 0.51859 0.32984 0.0
C123 C 0.86201 0.53866 0.30853 0.0
N124 N 0.84371 0.66272 0.30232 0.0
H125 H 0.82661 0.86832 0.31121 0.0
H126 H 0.86263 0.45399 0.29707 0.0
C127 C 0.87754 0.85528 0.23307 0.0
N128 N 0.83425 0.78824 0.23485 0.0
C129 C 0.81409 0.84432 0.19798 0.0
C130 C 0.85877 0.91257 0.19551 0.0
C131 C 0.89071 0.91836 0.21335 0.0
C132 C 0.80271 0.78144 0.21785 0.0
H133 H 0.90197 0.85839 0.2469 0.0
H134 H 0.76899 0.72544 0.21973 0.0
C135 C 0.69402 0.51911 0.26794 0.0
C136 C 0.58875 0.03754 0.25978 0.0
N137 N 0.62021 0.75009 0.29366 0.0
C138 C 0.57546 0.69678 0.29783 0.0
C139 C 0.55858 0.68852 0.31939 0.0
C140 C 0.58793 0.73794 0.33647 0.0
C141 C 0.63429 0.78923 0.33163 0.0
C142 C 0.64983 0.79408 0.30999 0.0
C143 C 0.85678 0.43588 0.25012 0.0
O144 O 0.73282 0.85998 0.26163 0.0
O145 O 0.80454 0.92848 0.27057 0.0
O146 O 0.72566 0.6141 0.26755 0.0
O147 O 0.65014 0.5525 0.265 0.0
O148 O 0.62834 0.03586 0.27029 0.0
O149 O 0.57816 0.93245 0.24825 0.0
O150 O 0.81156 0.43427 0.25381 0.0
O151 O 0.88026 0.54589 0.25442 0.0
H152 H 0.55232 0.66553 0.28441 0.0
H153 H 0.68483 0.83829 0.30605 0.0
H154 H 0.68222 0.78616 0.17239 0.0
H155 H 0.56189 0.53219 0.19356 0.0
H156 H 0.8557 0.84201 0.34919 0.0
H157 H 0.89187 0.4181 0.33467 0.0
H158 H 0.78876 0.83677 0.18449 0.0
H159 H 0.92535 0.97073 0.21203 0.0
H160 H 0.52239 0.64989 0.32259 0.0
H161 H 0.65778 0.82832 0.34443 0.0
Cd162 Cd 0.06524 0.53006 0.51985 0.0
Cd163 Cd 0.89598 0.44245 0.518 0.0
C164 C 0.04506 0.41721 0.4724 0.0
N165 N 0.04723 0.54308 0.48222 0.0
C166 C 0.04958 0.65446 0.44722 0.0
C167 C 0.0488 0.52514 0.4366 0.0
C168 C 0.04598 0.40578 0.44964 0.0
C169 C 0.04891 0.66118 0.47017 0.0
H170 H 0.0455 0.32479 0.48233 0.0
H171 H 0.05217 0.75998 0.47832 0.0
C172 C 0.94768 0.71881 0.53071 0.0
C173 C 0.86141 0.23281 0.55679 0.0
C174 C 0.85051 0.19261 0.57823 0.0
C175 C 0.86703 0.27379 0.59573 0.0
C176 C 0.89682 0.38839 0.59137 0.0
C177 C 0.90721 0.42393 0.56977 0.0
N178 N 0.88848 0.34838 0.55303 0.0
H179 H 0.84662 0.17501 0.5432 0.0
H180 H 0.9285 0.51542 0.56632 0.0
C181 C 0.91751 0.61615 0.47437 0.0
N182 N 0.91706 0.48369 0.48178 0.0
C183 C 0.91752 0.39739 0.44526 0.0
C184 C 0.91606 0.53302 0.43705 0.0
C185 C 0.91723 0.64337 0.45195 0.0
C186 C 0.91822 0.37499 0.46776 0.0
H187 H 0.91483 0.70074 0.4858 0.0
H188 H 0.9165 0.27072 0.474 0.0
C189 C 0.00244 0.28126 0.52901 0.0
C190 C 0.15705 0.45225 0.50709 0.0
N191 N 0.09295 0.63008 0.55239 0.0
C192 C 0.13301 0.71226 0.55348 0.0
C193 C 0.15272 0.74862 0.57382 0.0
C194 C 0.13072 0.70099 0.5932 0.0
C195 C 0.08938 0.61627 0.59141 0.0
C196 C 0.07142 0.58073 0.5708 0.0
C197 C 0.80433 0.36726 0.50411 0.0
O198 O -0.01726 0.63728 0.52662 0.0
O199 O 0.90435 0.67558 0.52914 0.0
O200 O 0.97832 0.38016 0.52143 0.0
O201 O 0.04724 0.2992 0.53133 0.0
O202 O 0.14213 0.57569 0.50405 0.0
O203 O 0.12862 0.36606 0.51623 0.0
O204 O 0.83965 0.28326 0.50299 0.0
O205 O 0.81215 0.48606 0.51234 0.0
H206 H 0.15066 0.74576 0.53861 0.0
H207 H 0.0405 0.51211 0.56942 0.0
H208 H 0.05207 0.74934 0.43791 0.0
H209 H 0.04707 0.3037 0.44244 0.0
H210 H 0.82746 0.10351 0.58106 0.0
H211 H 0.91058 0.45238 0.60454 0.0
H212 H 0.91608 0.30893 0.43446 0.0
H213 H 0.91464 0.7494 0.44647 0.0
H214 H 0.18553 0.81023 0.5743 0.0
H215 H 0.07102 0.5775 0.60582 0.0
Cd216 Cd 0.19635 0.91696 0.76588 0.0
Cd217 Cd 0.3507 0.79957 0.78783 0.0
C218 C 0.21945 0.76716 0.71865 0.0
N219 N 0.20287 0.88695 0.72733 0.0
C220 C 0.17603 0.9609 0.69192 0.0
C221 C 0.19264 0.83777 0.68239 0.0
C222 C 0.21564 0.74138 0.69614 0.0
C223 C 0.18217 0.9841 0.71429 0.0
H224 H 0.23407 0.68969 0.72932 0.0
H225 H 0.16775 0.07719 0.72133 0.0
C226 C 0.30327 0.07757 0.78473 0.0
C227 C 0.33281 0.7267 0.83865 0.0
C228 C 0.33531 0.65606 0.85855 0.0
C229 C 0.35868 0.5273 0.85968 0.0
C230 C 0.3794 0.47366 0.84053 0.0
C231 C 0.3763 0.54827 0.82099 0.0
N232 N 0.3532 0.67218 0.82041 0.0
H233 H 0.31519 0.82616 0.83779 0.0
H234 H 0.39225 0.50689 0.80626 0.0
C235 C 0.35344 0.91466 0.7395 0.0
N236 N 0.34061 0.79592 0.74988 0.0
C237 C 0.33188 0.67941 0.71562 0.0
C238 C 0.34409 0.80182 0.70441 0.0
C239 C 0.35567 0.91978 0.71678 0.0
C240 C 0.33072 0.67851 0.73849 0.0
H241 H 0.36405 0.00419 0.74895 0.0
H242 H 0.32315 0.58358 0.74715 0.0
C243 C 0.23478 0.63418 0.77867 0.0
C244 C 0.11955 0.09047 0.75889 0.0
N245 N 0.1692 0.92091 0.8023 0.0
C246 C 0.13317 0.83738 0.80995 0.0
C247 C 0.1134 0.86003 0.83077 0.0
C248 C 0.13077 0.97017 0.84363 0.0
C249 C 0.16864 0.05214 0.8354 0.0
C250 C 0.18713 0.02603 0.81464 0.0
C251 C 0.44342 0.7602 0.7729 0.0
O252 O 0.27842 0.97807 0.77741 0.0
O253 O 0.34284 0.0492 0.79415 0.0
O254 O 0.26569 0.72963 0.78128 0.0
O255 O 0.19338 0.66691 0.77141 0.0
O256 O 0.15994 0.14398 0.76444 0.0
O257 O 0.11658 0.96014 0.75679 0.0
O258 O 0.41144 0.66533 0.77229 0.0
O259 O 0.43408 0.87094 0.78326 0.0
H260 H 0.11848 0.75681 0.7996 0.0
H261 H 0.21451 0.09345 0.808 0.0
H262 H 0.15591 0.03621 0.6826 0.0
H263 H 0.22926 0.64481 0.68974 0.0
H264 H 0.32015 0.70362 0.87302 0.0
H265 H 0.39776 0.37504 0.84066 0.0
H266 H 0.3232 0.58531 0.70685 0.0
H267 H 0.36822 0.01409 0.70911 0.0
H268 H 0.08365 0.79584 0.83636 0.0
H269 H 0.18321 0.13781 0.84476 0.0
Cd270 Cd 0.66756 0.27949 0.75468 0.0
Cd271 Cd 0.82631 0.17263 0.77075 0.0
C272 C 0.63738 0.08449 0.71463 0.0
N273 N 0.66865 0.18939 0.71935 0.0
C274 C 0.69225 0.20533 0.68185 0.0
C275 C 0.65986 0.09832 0.67649 0.0
C276 C 0.63275 0.03612 0.69323 0.0
C277 C 0.69636 0.24905 0.70356 0.0
H278 H 0.61482 0.0412 0.72738 0.0
H279 H 0.7205 0.3333 0.70771 0.0
C280 C 0.77575 0.44466 0.76855 0.0
C281 C 0.87289 -0.00282 0.8098 0.0
C282 C 0.88331 0.97011 0.83172 0.0
C283 C 0.84989 0.00816 0.84784 0.0
C284 C 0.80511 0.06307 0.84152 0.0
C285 C 0.79648 0.09033 0.81944 0.0
N286 N 0.83079 0.06065 0.80425 0.0
H287 H 0.90007 0.97772 0.7975 0.0
H288 H 0.76402 0.1444 0.81461 0.0
C289 C 0.83465 0.28546 0.72363 0.0
N290 N 0.81886 0.1657 0.73278 0.0
C291 C 0.80643 0.06638 0.69736 0.0
C292 C 0.82262 0.18982 0.68752 0.0
C293 C 0.83714 0.29951 0.70106 0.0
C294 C 0.80504 0.05625 0.72025 0.0
H295 H 0.8468 0.36921 0.734 0.0
H296 H 0.79414 0.96074 0.72798 0.0
C297 C 0.70908 0.00257 0.76806 0.0
C298 C 0.60945 0.50602 0.7459 0.0
N299 N 0.63655 0.2605 0.79003 0.0
C300 C 0.5895 0.22774 0.79429 0.0
C301 C 0.57176 0.23475 0.81573 0.0
C302 C 0.60281 0.27659 0.83275 0.0
C303 C 0.65137 0.30694 0.8278 0.0
C304 C 0.66747 0.29859 0.80625 0.0
C305 C 0.92403 0.19664 0.76453 0.0
O306 O 0.75087 0.34377 0.76175 0.0
O307 O 0.81656 0.41849 0.77669 0.0
O308 O 0.74063 0.09764 0.76864 0.0
O309 O 0.66577 0.03488 0.76363 0.0
O310 O 0.64989 0.51934 0.75542 0.0
O311 O 0.5965 0.38493 0.74026 0.0
O312 O 0.90126 0.08818 0.75833 0.0
O313 O 0.90096 0.29019 0.77467 0.0
H314 H 0.56548 0.20029 0.78098 0.0
H315 H 0.70443 0.32631 0.80231 0.0
H316 H 0.71321 0.25638 0.66927 0.0
H317 H 0.6065 0.95567 0.68967 0.0
H318 H 0.91831 0.92838 0.83614 0.0
H319 H 0.77885 0.09508 0.85364 0.0
H320 H 0.79533 0.97884 0.6875 0.0
H321 H 0.85173 0.3944 0.69431 0.0
H322 H 0.5339 0.21252 0.81884 0.0
H323 H 0.67651 0.33888 0.84045 0.0
Cd324 Cd 0.54847 0.92359 0.50802 0.0
Cd325 Cd 0.39651 0.8049 0.52696 0.0
C326 C 0.5668 0.74487 0.46478 0.0
N327 N 0.53629 0.84375 0.47238 0.0
C328 C 0.50507 0.88108 0.43641 0.0
C329 C 0.53712 0.7823 0.42806 0.0
C330 C 0.56738 0.71104 0.44258 0.0
C331 C 0.50509 0.90977 0.45879 0.0
H332 H 0.59239 0.69696 0.47578 0.0
H333 H 0.48139 -0.01192 0.46516 0.0
C334 C 0.43716 0.09388 0.52032 0.0
C335 C 0.39921 0.92142 0.57674 0.0
C336 C 0.39163 0.9243 0.59934 0.0
C337 C 0.3689 0.8116 0.60966 0.0
C338 C 0.35516 0.69726 0.59693 0.0
C339 C 0.36365 0.69842 0.57444 0.0
N340 N 0.38479 0.81004 0.56479 0.0
H341 H 0.41686 0.00773 0.56879 0.0
H342 H 0.35336 0.6099 0.56469 0.0
C343 C 0.33885 0.97187 0.4878 0.0
N344 N 0.37456 0.87898 0.49197 0.0
C345 C 0.38485 0.83601 0.45382 0.0
C346 C 0.34843 0.93176 0.44892 0.0
C347 C 0.3256 0.00138 0.46621 0.0
C348 C 0.39731 0.81098 0.47553 0.0
H349 H 0.32018 0.02151 0.50119 0.0
H350 H 0.42497 0.73597 0.47937 0.0
C351 C 0.5109 0.65065 0.52217 0.0
C352 C 0.62212 0.10472 0.49585 0.0
N353 N 0.57154 0.92975 0.54471 0.0
C354 C 0.61478 0.87551 0.55092 0.0
C355 C 0.63139 0.8924 0.57238 0.0
C356 C 0.60338 0.96733 0.58736 0.0
C357 C 0.55862 0.02037 0.58055 0.0
C358 C 0.54329 0.00017 0.55904 0.0
C359 C 0.34047 0.57555 0.51664 0.0
O360 O 0.46542 -0.00379 0.5155 0.0
O361 O 0.3955 0.06114 0.52736 0.0
O362 O 0.48216 0.75096 0.52425 0.0
O363 O 0.55381 0.67803 0.51629 0.0
O364 O 0.58117 0.15125 0.50166 0.0
O365 O 0.62752 0.97463 0.49558 0.0
O366 O 0.38565 0.57165 0.51304 0.0
O367 O 0.3229 0.68252 0.52569 0.0
H368 H 0.637 0.8229 0.53903 0.0
H369 H 0.5095 0.04423 0.55364 0.0
H370 H 0.48142 0.93865 0.42564 0.0
H371 H 0.59341 0.63655 0.43665 0.0
H372 H 0.40403 0.01282 0.60865 0.0
H373 H 0.33774 0.60814 0.60428 0.0
H374 H 0.40383 0.78156 0.44098 0.0
H375 H 0.29708 0.07527 0.46308 0.0
H376 H 0.66645 0.85188 0.57698 0.0
H377 H 0.53605 0.07866 0.59168 0.0
Cd378 Cd 0.56045 0.44511 1.00649 0.0
Cd379 Cd 0.40426 0.32637 0.03113 0.0
C380 C 0.56947 0.27027 0.96142 0.0
N381 N 0.55104 0.39034 0.96936 0.0
C382 C 0.5325 0.46697 0.93313 0.0
C383 C 0.55252 0.34566 0.92445 0.0
C384 C 0.57026 0.24533 0.93892 0.0
C385 C 0.53191 0.48698 0.95577 0.0
H386 H 0.58561 0.19626 0.97241 0.0
H387 H 0.51804 0.58219 0.96245 0.0
C388 C 0.4639 0.596 0.02631 0.0
C389 C 0.41577 0.23078 0.08036 0.0
C390 C 0.40326 0.17623 0.10073 0.0
C391 C 0.3648 0.08163 0.10229 0.0
C392 C 0.34096 0.03914 0.08315 0.0
C393 C 0.35517 0.095 0.06299 0.0
N394 N 0.3916 0.19011 0.06207 0.0
H395 H 0.44351 0.30982 0.07919 0.0
H396 H 0.33545 0.06827 0.04829 0.0
C397 C 0.38974 0.43246 0.98402 0.0
N398 N 0.40249 0.30856 0.99272 0.0
C399 C 0.40372 0.2071 0.95693 0.0
C400 C 0.38852 0.33335 0.9479 0.0
C401 C 0.38238 0.44701 0.9617 0.0
C402 C 0.41013 0.19641 0.97971 0.0
H403 H 0.38421 0.52031 0.99461 0.0
H404 H 0.42024 0.09883 0.98697 0.0
C405 C 0.51908 0.16714 0.01983 0.0
C406 C 0.63817 0.62665 1.0015 0.0
N407 N 0.57116 0.46542 0.04482 0.0
C408 C 0.57637 0.35698 0.05885 0.0
C409 C 0.58401 0.38026 0.08116 0.0
C410 C 0.58615 0.51607 0.08901 0.0
C411 C 0.58149 0.62573 0.07429 0.0
C412 C 0.5746 0.59782 0.05215 0.0
C413 C 0.31265 0.43543 0.02593 0.0
O414 O 0.47649 0.51208 1.01152 0.0
O415 O 0.43225 0.55714 0.03997 0.0
O416 O 0.48863 0.26286 0.02289 0.0
O417 O 0.5605 0.19938 1.01246 0.0
O418 O 0.59477 0.66897 1.00007 0.0
O419 O 0.64502 0.49734 1.00337 0.0
O420 O 0.32281 0.31306 0.01975 0.0
O421 O 0.34472 0.50504 0.03612 0.0
H422 H 0.57527 0.25233 0.05292 0.0
H423 H 0.57226 0.68247 0.04077 0.0
H424 H 0.51852 0.54682 0.92248 0.0
H425 H 0.58699 0.15188 0.93287 0.0
H426 H 0.42192 0.21234 0.11525 0.0
H427 H 0.31074 0.9675 0.0839 0.0
H428 H 0.40917 0.1176 0.94662 0.0
H429 H 0.37143 0.54639 0.95526 0.0
H430 H 0.58797 0.2934 0.09218 0.0
H431 H 0.58371 0.7319 0.07983 0.0
C432 C 0.0757 0.18179 0.13061 0.0
C433 C 0.08631 0.29095 0.11622 0.0
C434 C 0.08856 0.18897 0.15275 0.0
C435 C 0.11307 0.30502 0.16139 0.0
H436 H 0.05684 0.09058 0.12474 0.0
H437 H 0.07861 0.10327 0.16325 0.0
S438 S 0.15171 0.61505 0.13011 0.0
N439 N 0.12377 0.51698 0.11191 0.0
N440 N 0.14899 0.52938 0.15343 0.0
C441 C 0.12416 0.4146 0.14709 0.0
C442 C 0.1106 0.40772 0.12455 0.0
C443 C 0.84737 0.10775 0.14218 0.0
C444 C 0.88688 0.05905 0.12985 0.0
C445 C 0.83981 0.06479 0.16377 0.0
C446 C 0.87184 0.97308 0.17404 0.0
H447 H 0.82103 0.17612 0.13482 0.0
H448 H 0.80786 0.10048 0.17232 0.0
S449 S -0.01715 0.82291 0.14982 0.0
N450 N 0.95986 0.91885 0.13008 0.0
N451 N 0.94616 0.84121 0.17094 0.0
C452 C 0.9131 0.93006 0.16248 0.0
C453 C 0.92057 0.97253 0.14034 0.0
C454 C 0.08956 0.59427 0.40127 0.0
C455 C 0.05454 0.51358 0.41228 0.0
C456 C 0.09851 0.57716 0.37878 0.0
C457 C 0.07212 0.48068 0.36626 0.0
H458 H 0.11151 0.668 0.41024 0.0
H459 H 0.12665 0.63888 0.37116 0.0
S460 S 0.97543 0.24673 0.3867 0.0
N461 N -0.00708 0.33457 0.40845 0.0
N462 N 0.00895 0.30525 0.36636 0.0
C463 C 0.03614 0.40227 0.37685 0.0
C464 C 0.02765 0.41773 0.39977 0.0
C465 C 0.86512 0.4983 0.37961 0.0
C466 C 0.8889 0.60391 0.36802 0.0
C467 C 0.87446 0.47617 0.4018 0.0
C468 C 0.90833 0.5579 0.41328 0.0
H469 H 0.83826 0.43411 0.37154 0.0
H470 H 0.85417 0.39583 0.41012 0.0
S471 S -0.01682 0.84072 0.38968 0.0
N472 N 0.94935 0.78669 0.36908 0.0
N473 N 0.96749 0.74471 0.41087 0.0
C474 C 0.93303 0.66253 0.4017 0.0
C475 C 0.92326 0.68539 0.37906 0.0
C476 C 0.15273 0.63606 0.63175 0.0
C477 C 0.15048 0.73729 0.61525 0.0
C478 C 0.16776 0.66874 0.65306 0.0
C479 C 0.18162 0.80422 0.65892 0.0
H480 H 0.14217 0.53038 0.62827 0.0
H481 H 0.16679 0.58734 0.66519 0.0
S482 S 0.18483 0.1066 0.62135 0.0
N483 N 0.16446 0.97848 0.60606 0.0
N484 N 0.19458 0.03904 0.64572 0.0
C485 C 0.18113 0.90562 0.6423 0.0
C486 C 0.16533 0.87239 0.62061 0.0
C487 C 0.85011 0.1 0.65099 0.0
C488 C 0.82739 0.20399 0.66338 0.0
C489 C 0.86146 0.12073 0.62881 0.0
C490 C 0.85068 0.24631 0.61838 0.0
H491 H 0.86122 0.00455 0.65871 0.0
H492 H 0.88048 0.04042 0.62002 0.0
S493 S 0.78456 0.54213 0.64237 0.0
N494 N 0.7894 0.43043 0.66264 0.0
N495 N 0.81135 0.46931 0.62121 0.0
C496 C 0.82558 0.34759 0.63019 0.0
C497 C 0.81377 0.32645 0.65261 0.0
C498 C 0.09683 0.1444 0.86956 0.0
C499 C 0.10855 0.00595 0.86506 0.0
C500 C 0.08005 0.18481 0.89017 0.0
C501 C 0.07365 0.08845 0.90717 0.0
H502 H 0.10129 0.22292 0.85708 0.0
H503 H 0.07231 0.29312 0.89285 0.0
S504 S 0.0996 0.71264 0.90391 0.0
N505 N 0.11267 0.77189 0.87927 0.0
N506 N 0.08084 0.84742 0.91807 0.0
C507 C 0.08413 0.94874 0.90275 0.0
C508 C 0.10152 0.90761 0.88169 0.0
C509 C 0.83911 0.93509 0.88681 0.0
C510 C 0.86448 0.01218 0.87107 0.0
C511 C 0.84987 0.94916 0.90913 0.0
C512 C 0.88564 0.04286 0.91642 0.0
H513 H 0.81027 0.86552 0.88185 0.0
H514 H 0.82869 0.89039 0.92082 0.0
S515 S 0.96178 0.26896 0.88143 0.0
N516 N 0.9269 0.18405 0.86404 0.0
N517 N 0.94693 0.21158 0.90597 0.0
C518 C 0.91171 0.11872 0.90072 0.0
C519 C 0.90116 0.10307 0.87804 0.0
C520 C 0.63763 0.16669 0.63848 0.0
C521 C 0.65033 0.062 0.65333 0.0
C522 C 0.62319 0.13486 0.61711 0.0
C523 C 0.62149 -0.00265 0.60969 0.0
H524 H 0.63723 0.27377 0.64365 0.0
H525 H 0.6128 0.21852 0.60634 0.0
S526 S 0.65422 0.68617 0.64172 0.0
N527 N 0.66252 0.81595 0.65889 0.0
N528 N 0.6356 0.75608 0.61856 0.0
C529 C 0.63576 0.89201 0.62411 0.0
C530 C 0.65001 0.92433 0.64599 0.0
C531 C 0.37398 0.69466 0.64609 0.0
C532 C 0.36071 0.81077 0.63367 0.0
C533 C 0.3677 0.69185 0.66881 0.0
C534 C 0.34747 0.80461 0.68007 0.0
H535 H 0.39048 0.60629 0.63825 0.0
H536 H 0.38004 0.60169 0.67764 0.0
S537 S 0.30392 0.13047 0.65483 0.0
N538 N 0.32484 0.03951 0.63408 0.0
N539 N 0.31147 0.03294 0.67668 0.0
C540 C 0.33275 0.92004 0.66771 0.0
C541 C 0.33978 0.92349 0.64458 0.0
C542 C 0.58326 0.43584 0.88877 0.0
C543 C 0.55967 0.33018 0.90049 0.0
C544 C 0.59584 0.41853 0.86676 0.0
C545 C 0.58495 0.29536 0.8555 0.0
H546 H 0.59379 0.5308 0.8969 0.0
H547 H 0.61497 0.50165 0.85856 0.0
S548 S 0.51966 -0.00812 0.87823 0.0
N549 N 0.52296 0.10164 0.89887 0.0
N550 N 0.5467 0.06888 0.8574 0.0
C551 C 0.55946 0.19115 0.86673 0.0
C552 C 0.54694 0.20844 0.88925 0.0
C553 C 0.41594 0.35071 0.90898 0.0
C554 C 0.37812 0.35131 0.92431 0.0
C555 C 0.4089 0.40165 0.88768 0.0
C556 C 0.36359 0.45387 0.88101 0.0
H557 H 0.45174 0.31829 0.91386 0.0
H558 H 0.43983 0.407 0.87681 0.0
S559 S 0.25073 0.45145 0.91399 0.0
N560 N 0.29259 0.39119 0.93072 0.0
N561 N 0.27868 0.48231 0.89061 0.0
C562 C 0.32457 0.44355 0.89573 0.0
C563 C 0.33197 0.39322 0.91739 0.0
C564 C 0.63893 0.52043 0.12217 0.0
C565 C 0.59364 0.54471 0.11245 0.0
C566 C 0.64755 0.55618 0.14407 0.0
C567 C 0.61087 0.61503 0.15698 0.0
H568 H 0.66807 0.47621 0.11264 0.0
H569 H 0.68305 0.53738 0.15099 0.0
S570 S 0.48593 0.69659 0.13903 0.0
N571 N 0.51183 0.62987 0.11713 0.0
N572 N 0.5276 0.69516 0.15842 0.0
C573 C 0.56524 0.63766 0.14745 0.0
C574 C 0.55675 0.60307 0.12512 0.0
C575 C 0.36425 0.93038 0.15938 0.0
C576 C 0.32406 -0.00489 0.16924 0.0
C577 C 0.37597 0.9533 0.13734 0.0
C578 C 0.34736 0.03888 0.12415 0.0
H579 H 0.38803 0.8656 0.16899 0.0
H580 H 0.40851 0.90766 0.13071 0.0
S581 S 0.23717 0.22736 0.14101 0.0
N582 N 0.25492 0.14666 0.16339 0.0
N583 N 0.27616 0.1835 0.1218 0.0
C584 C 0.3057 0.09792 0.13325 0.0
C585 C 0.29411 0.07709 0.1558 0.0
C586 C 0.55642 0.8859 0.39186 0.0
C587 C 0.54408 0.76818 0.40416 0.0
C588 C 0.56938 0.87496 0.36982 0.0
C589 C 0.56971 0.74627 0.35917 0.0
H590 H 0.55803 -0.01336 0.39957 0.0
H591 H 0.58016 0.96769 0.36114 0.0
S592 S 0.53696 0.40823 0.38363 0.0
N593 N 0.5308 0.51975 0.4039 0.0
N594 N 0.55435 0.49962 0.36217 0.0
C595 C 0.55549 0.62842 0.37098 0.0
C596 C 0.54299 0.63924 0.39358 0.0
C597 C 0.33247 0.09583 0.41805 0.0
C598 C 0.33484 0.95923 0.42582 0.0
C599 C 0.32308 0.12379 0.39594 0.0
C600 C 0.31535 0.01621 0.38081 0.0
H601 H 0.33919 0.18172 0.42902 0.0
H602 H 0.3222 0.23051 0.39062 0.0
S603 S 0.31575 0.64061 0.39309 0.0
N604 N 0.32651 0.71545 0.41687 0.0
N605 N 0.31012 0.76769 0.37528 0.0
C606 C 0.3166 0.87924 0.38848 0.0
C607 C 0.32613 0.85086 0.41097 0.0
C608 C 0.94628 0.79902 0.0328 0.0
C609 C -0.01843 0.84241 0.01773 0.0
C610 C 0.92715 0.66512 0.03193 0.0
C611 C 0.94283 0.57176 0.01592 0.0
H612 H 0.93383 0.86847 0.04547 0.0
H613 H 0.90093 0.63349 0.04414 0.0
S614 S 0.02802 0.64381 0.97049 0.0
N615 N 0.02772 0.78732 0.98508 0.0
N616 N -0.009 0.53577 0.98319 0.0
C617 C 0.97655 0.61578 1.00023 0.0
C618 C -0.0037 0.75138 1.00123 0.0
C619 C 0.17618 0.59023 0.269 0.0
C620 C 0.22483 0.54948 0.26938 0.0
C621 C 0.16385 0.7288 0.2712 0.0
C622 C 0.19987 0.83064 0.27387 0.0
H623 H 0.14739 0.51498 0.26709 0.0
H624 H 0.12584 0.75589 0.27062 0.0
S625 S 0.3329 0.77451 0.27672 0.0
N626 N 0.30933 0.62002 0.27293 0.0
N627 N 0.28612 0.87912 0.27738 0.0
C628 C 0.24865 0.79014 0.27447 0.0
C629 C 0.26119 0.64976 0.27211 0.0
C630 C 0.71617 0.15345 0.25017 0.0
C631 C 0.74281 0.09963 0.26776 0.0
C632 C 0.69878 0.28879 0.25074 0.0
C633 C 0.70839 0.37434 0.26875 0.0
H634 H 0.70905 0.09073 0.23583 0.0
H635 H 0.67895 0.32806 0.23678 0.0
S636 S 0.77256 0.27806 0.31963 0.0
N637 N 0.7744 0.1373 0.30436 0.0
N638 N 0.74378 0.39534 0.30496 0.0
C639 C 0.73423 0.32126 0.28658 0.0
C640 C 0.75108 0.18258 0.28618 0.0
C641 C 0.93157 0.95846 0.51999 0.0
C642 C 0.95594 0.86579 0.53372 0.0
C643 C 0.94387 0.09808 0.51996 0.0
C644 C 0.98058 0.14772 0.53372 0.0
H645 H 0.90501 0.92166 0.50827 0.0
H646 H 0.92709 0.1651 0.50807 0.0
S647 S 0.04394 0.95368 0.57719 0.0
N648 N 0.01021 0.83674 0.56457 0.0
N649 N 0.0339 0.10114 0.56445 0.0
C650 C 0.00129 0.05887 0.54917 0.0
C651 C -0.01115 0.91663 0.54915 0.0
C652 C 0.28818 0.30767 0.80135 0.0
C653 C 0.28524 0.21848 0.78331 0.0
C654 C 0.27003 0.44206 0.79997 0.0
C655 C 0.24906 0.49003 0.78052 0.0
H656 H 0.30394 0.27285 0.8166 0.0
H657 H 0.27216 0.50869 0.81415 0.0
S658 S 0.23773 0.30064 0.72822 0.0
N659 N 0.26312 0.18937 0.74513 0.0
N660 N 0.22797 0.44122 0.74278 0.0
C661 C 0.24594 0.40167 0.76246 0.0
C662 C 0.26466 0.26583 0.76377 0.0
C663 C 0.75866 0.6643 0.78774 0.0
C664 C 0.75711 0.5847 0.76857 0.0
C665 C 0.74216 0.80057 0.78764 0.0
C666 C 0.72361 0.85889 0.76843 0.0
H667 H 0.77257 0.62091 0.8028 0.0
H668 H 0.74361 0.86012 0.80261 0.0
S669 S 0.71559 0.696 0.71378 0.0
N670 N 0.73956 0.5763 0.72966 0.0
N671 N 0.70581 0.83046 0.72979 0.0
C672 C 0.72227 0.78073 0.74919 0.0
C673 C 0.7402 0.64389 0.74914 0.0
C674 C 0.46658 0.45546 0.5397 0.0
C675 C 0.49287 0.50862 0.52191 0.0
C676 C 0.44752 0.32091 0.53901 0.0
C677 C 0.45438 0.23717 0.5205 0.0
H678 H 0.46077 0.51811 0.55414 0.0
H679 H 0.42807 0.2815 0.55309 0.0
S680 S 0.51422 0.33771 0.46865 0.0
N681 N 0.52107 0.4732 0.48477 0.0
N682 N 0.48451 0.22193 0.48334 0.0
C683 C 0.47912 0.29152 0.50244 0.0
C684 C 0.49873 0.42717 0.50319 0.0
C685 C 0.4939 0.7979 1.00551 0.0
C686 C 0.48071 0.73979 0.02572 0.0
C687 C 0.50658 0.93702 1.00385 0.0
C688 C 0.5058 0.02245 0.02229 0.0
H689 H 0.49335 0.73638 0.99074 0.0
H690 H 0.51618 0.97873 0.98797 0.0
S691 S 0.48024 0.91772 0.07933 0.0
N692 N 0.47108 0.77607 0.06482 0.0
N693 N 0.49596 0.03895 0.06163 0.0
C694 C 0.49414 0.96583 0.0427 0.0
C695 C 0.48106 0.8239 0.04442 0.0
C696 C 0.24983 0.47823 0.99848 0.0
C697 C 0.26612 0.49495 0.02004 0.0
C698 C 0.20082 0.49062 0.99351 0.0
C699 C 0.16711 0.51639 1.01014 0.0
H700 H 0.2743 0.44255 0.98585 0.0
H701 H 0.1886 0.45985 0.97737 0.0
S702 S 0.19364 0.60147 0.06787 0.0
N703 N 0.24709 0.56706 0.05706 0.0
N704 N 0.15388 0.5861 0.04779 0.0
C705 C 0.18389 0.5547 0.03092 0.0
C706 C 0.23404 0.54364 0.03596 0.0
C707 C 0.76554 0.76691 1.00287 0.0
C708 C 0.75961 0.89431 1.01353 0.0
C709 C 0.72561 0.6828 0.99819 0.0
C710 C 0.67863 0.72391 1.00396 0.0
H711 H 0.80126 0.73203 0.99811 0.0
H712 H 0.73161 0.58426 0.99025 0.0
S713 S 0.64514 0.04098 0.03432 0.0
N714 N 0.70425 0.0539 0.03095 0.0
N715 N 0.62878 0.89585 0.02216 0.0
C716 C 0.67231 0.85106 1.01469 0.0
C717 C 0.71301 0.93638 0.01948 0.0
C718 C 0.96108 0.26218 0.2275 0.0
C719 C 0.97548 0.18972 0.24628 0.0
C720 C 0.9154 0.32285 0.22652 0.0
C721 C 0.88366 0.31204 0.24432 0.0
H722 H -0.01252 0.28921 0.21508 0.0
H723 H 0.9081 0.39569 0.21348 0.0
S724 S 0.89959 0.09787 0.29384 0.0
N725 N 0.95087 0.08092 0.28025 0.0
N726 N 0.86481 0.19672 0.27848 0.0
C727 C 0.89414 0.21732 0.26098 0.0
C728 C 0.94062 0.15513 0.26197 0.0
C729 C 0.28267 0.51359 0.48882 0.0
C730 C 0.30738 0.47331 0.5078 0.0
C731 C 0.23306 0.48867 0.48687 0.0
C732 C 0.20803 0.41929 0.50357 0.0
H733 H 0.29958 0.58445 0.47736 0.0
H734 H 0.2134 0.53845 0.47373 0.0
S735 S 0.26146 0.25057 0.55224 0.0
N736 N 0.30729 0.33165 0.54043 0.0
N737 N 0.21394 0.27792 0.53641 0.0
C738 C 0.2346 0.35388 0.52018 0.0
C739 C 0.28489 0.38225 0.52235 0.0
C740 C 0.75046 0.20268 0.48498 0.0
C741 C 0.75561 0.32315 0.49755 0.0
C742 C 0.7054 0.13963 0.48252 0.0
C743 C 0.66417 0.19493 0.49262 0.0
H744 H 0.78184 0.15194 0.47808 0.0
H745 H 0.70352 0.04163 0.47398 0.0
S746 S 0.65702 0.52328 0.52358 0.0
N747 N 0.71488 0.5075 0.51732 0.0
N748 N 0.62962 0.38774 0.51272 0.0
C749 C 0.66777 0.32366 0.50309 0.0
C750 C 0.71384 0.38818 0.50561 0.0
C751 C -0.00511 0.15239 0.74144 0.0
C752 C 0.97571 0.21054 0.76052 0.0
C753 C 0.04452 0.13346 0.73938 0.0
C754 C 0.07583 0.17073 0.75647 0.0
H755 H 0.97121 0.11238 0.72877 0.0
H756 H 0.0579 0.07588 0.72544 0.0
S757 S 0.04407 0.34917 0.8079 0.0
N758 N -0.00821 0.32509 0.79524 0.0
N759 N 0.08591 0.28618 0.79143 0.0
C760 C 0.05787 0.24451 0.77436 0.0
C761 C 0.00718 0.26477 0.77644 0.0
C762 C 0.57566 0.71123 0.76401 0.0
C763 C 0.57428 0.61778 0.74635 0.0
C764 C 0.53298 0.7717 0.77157 0.0
C765 C 0.48886 0.74037 0.76136 0.0
H766 H 0.60823 0.72376 0.77373 0.0
H767 H 0.5338 0.83009 0.78669 0.0
S768 S 0.4705 0.54788 0.70965 0.0
N769 N 0.52865 0.53012 0.71529 0.0
N770 N 0.44829 0.64512 0.72939 0.0
C771 C 0.48887 0.66839 0.74146 0.0
C772 C 0.53203 0.60707 0.73383 0.0
C773 C 0.52139 0.18563 0.24789 0.0
C774 C 0.55097 0.13723 0.26488 0.0
C775 C 0.47387 0.22695 0.25213 0.0
C776 C 0.45475 0.21606 0.27331 0.0
H777 H 0.53331 0.17798 0.23105 0.0
H778 H 0.45041 0.25041 0.23841 0.0
S779 S 0.52047 0.12133 0.32378 0.0
N780 N 0.56087 0.10466 0.30405 0.0
N781 N 0.47038 0.17537 0.31179 0.0
C782 C 0.48563 0.18395 0.29071 0.0
C783 C 0.5344 0.14639 0.28652 0.0
loop_
_geom_bond_atom_site_label_1
_geom_bond_atom_site_label_2
_geom_bond_distance
_geom_bond_site_symmetry_2
_ccdc_geom_bond_type
Cd0 N3 2.288 1_554 S
Cd0 N29 2.350 . S
Cd0 O36 2.267 . S
Cd0 O39 2.273 1_545 S
Cd0 O40 2.414 1_554 S
Cd0 O41 2.331 1_545 S
Cd1 N16 2.350 . S
Cd1 N20 2.288 1_554 S
Cd1 O37 2.273 1_565 S
Cd1 O38 2.267 . S
Cd1 O42 2.414 1_554 S
Cd1 O43 2.331 1_565 S
C2 N3 1.332 1_565 S
C2 C6 1.381 . S
C2 H8 0.931 . S
N3 Cd0 2.288 1_556 S
N3 C2 1.332 1_545 S
N3 C7 1.328 . S
C4 C5 1.396 . S
C4 C7 1.378 . S
C4 H46 0.931 . S
C5 C4 1.396 . S
C5 C6 1.382 1_545 S
C6 C2 1.381 . S
C6 C5 1.382 1_565 S
C6 H47 0.930 . S
C7 N3 1.328 . S
C7 C4 1.378 . S
C7 H9 0.930 . S
H8 C2 0.931 . S
H9 C7 0.930 . S
C10 O36 1.238 1_655 S
C10 O37 1.253 . S
C11 C12 1.379 . S
C11 N16 1.337 1_545 S
C11 H17 0.929 . S
C12 C11 1.379 . S
C12 C13 1.380 1_545 S
C12 H48 0.929 . S
C13 C12 1.380 1_565 S
C13 C14 1.399 . S
C14 C13 1.399 . S
C14 C15 1.376 . S
C14 H49 0.931 . S
C15 C14 1.376 . S
C15 N16 1.338 . S
C15 H18 0.930 . S
N16 Cd1 2.350 . S
N16 C11 1.337 1_565 S
N16 C15 1.338 . S
H17 C11 0.929 . S
H18 C15 0.930 . S
C19 N20 1.332 1_545 S
C19 C23 1.381 . S
C19 H25 0.931 . S
N20 Cd1 2.288 1_556 S
N20 C19 1.332 1_565 S
N20 C24 1.328 . S
C21 C22 1.396 . S
C21 C24 1.378 . S
C21 H50 0.931 . S
C22 C21 1.396 . S
C22 C23 1.382 1_565 S
C23 C19 1.381 . S
C23 C22 1.382 1_545 S
C23 H51 0.930 . S
C24 N20 1.328 . S
C24 C21 1.378 . S
C24 H26 0.930 . S
H25 C19 0.931 . S
H26 C24 0.930 . S
C27 O38 1.238 1_455 S
C27 O39 1.253 . S
C28 O40 1.239 1_554 S
C28 O41 1.230 1_545 S
N29 Cd0 2.350 . S
N29 C30 1.337 1_545 S
N29 C34 1.338 . S
C30 N29 1.337 1_565 S
C30 C31 1.379 . S
C30 H44 0.929 . S
C31 C30 1.379 . S
C31 C32 1.380 1_565 S
C31 H52 0.929 . S
C32 C31 1.380 1_545 S
C32 C33 1.399 . S
C33 C32 1.399 . S
C33 C34 1.376 . S
C33 H53 0.931 . S
C34 N29 1.338 . S
C34 C33 1.376 . S
C34 H45 0.930 . S
C35 O42 1.239 1_554 S
C35 O43 1.230 1_565 S
O36 Cd0 2.267 . S
O36 C10 1.238 1_455 S
O37 Cd1 2.273 1_545 S
O37 C10 1.253 . S
O38 Cd1 2.267 . S
O38 C27 1.238 1_655 S
O39 Cd0 2.273 1_565 S
O39 C27 1.253 . S
O40 Cd0 2.414 1_556 S
O40 C28 1.239 1_556 S
O41 Cd0 2.331 1_565 S
O41 C28 1.230 1_565 S
O42 Cd1 2.414 1_556 S
O42 C35 1.239 1_556 S
O43 Cd1 2.331 1_545 S
O43 C35 1.230 1_545 S
H44 C30 0.929 . S
H45 C34 0.930 . S
H46 C4 0.931 . S
H47 C6 0.930 . S
H48 C12 0.929 . S
H49 C14 0.931 . S
H50 C21 0.931 . S
H51 C23 0.930 . S
H52 C31 0.929 . S
H53 C33 0.931 . S
Cd54 N57 2.334 . S
Cd54 N83 2.304 . S
Cd54 O90 2.268 . S
Cd54 O93 2.273 . S
Cd54 O94 2.417 . S
Cd54 O95 2.330 . S
Cd55 N70 2.304 . S
Cd55 N74 2.334 . S
Cd55 O91 2.273 . S
Cd55 O92 2.268 . S
Cd55 O96 2.417 . S
Cd55 O97 2.330 . S
C56 N57 1.332 . S
C56 C60 1.381 . S
C56 H62 0.931 . S
N57 Cd54 2.334 . S
N57 C56 1.332 . S
N57 C61 1.328 . S
C58 C59 1.396 . S
C58 C61 1.378 . S
C58 H100 0.931 . S
C59 C58 1.396 . S
C59 C60 1.382 . S
C60 C56 1.381 . S
C60 C59 1.382 . S
C60 H101 0.930 . S
C61 N57 1.328 . S
C61 C58 1.378 . S
C61 H63 0.930 . S
H62 C56 0.931 . S
H63 C61 0.930 . S
C64 O90 1.238 1_565 S
C64 O91 1.253 1_565 S
C65 C66 1.379 . S
C65 N70 1.337 . S
C65 H71 0.929 . S
C66 C65 1.379 . S
C66 C67 1.380 . S
C66 H102 0.929 . S
C67 C66 1.380 . S
C67 C68 1.399 . S
C68 C67 1.399 . S
C68 C69 1.376 . S
C68 H103 0.931 . S
C69 C68 1.376 . S
C69 N70 1.338 . S
C69 H72 0.930 . S
N70 Cd55 2.304 . S
N70 C65 1.337 . S
N70 C69 1.338 . S
H71 C65 0.929 . S
H72 C69 0.930 . S
C73 N74 1.332 . S
C73 C77 1.381 . S
C73 H79 0.931 . S
N74 Cd55 2.334 . S
N74 C73 1.332 . S
N74 C78 1.328 . S
C75 C76 1.396 . S
C75 C78 1.378 . S
C75 H104 0.931 . S
C76 C75 1.396 . S
C76 C77 1.382 . S
C77 C73 1.381 . S
C77 C76 1.382 . S
C77 H105 0.930 . S
C78 N74 1.328 . S
C78 C75 1.378 . S
C78 H80 0.930 . S
H79 C73 0.931 . S
H80 C78 0.930 . S
C81 O92 1.238 . S
C81 O93 1.253 . S
C82 O94 1.239 . S
C82 O95 1.230 . S
N83 Cd54 2.304 . S
N83 C84 1.337 . S
N83 C88 1.338 . S
C84 N83 1.337 . S
C84 C85 1.379 . S
C84 H98 0.929 . S
C85 C84 1.379 . S
C85 C86 1.380 . S
C85 H106 0.929 . S
C86 C85 1.380 . S
C86 C87 1.399 . S
C87 C86 1.399 . S
C87 C88 1.376 . S
C87 H107 0.931 . S
C88 N83 1.338 . S
C88 C87 1.376 . S
C88 H99 0.930 . S
C89 O96 1.239 . S
C89 O97 1.230 . S
O90 Cd54 2.268 . S
O90 C64 1.238 1_545 S
O91 Cd55 2.273 . S
O91 C64 1.253 1_545 S
O92 Cd55 2.268 . S
O92 C81 1.238 . S
O93 Cd54 2.273 . S
O93 C81 1.253 . S
O94 Cd54 2.417 . S
O94 C82 1.239 . S
O95 Cd54 2.330 . S
O95 C82 1.230 . S
O96 Cd55 2.417 . S
O96 C89 1.239 . S
O97 Cd55 2.330 . S
O97 C89 1.230 . S
H98 C84 0.929 . S
H99 C88 0.930 . S
H100 C58 0.931 . S
H101 C60 0.930 . S
H102 C66 0.929 . S
H103 C68 0.931 . S
H104 C75 0.931 . S
H105 C77 0.930 . S
H106 C85 0.929 . S
H107 C87 0.931 . S
Cd108 N111 2.334 . S
Cd108 N137 2.304 . S
Cd108 O144 2.268 . S
Cd108 O147 2.273 . S
Cd108 O148 2.417 . S
Cd108 O149 2.330 . S
Cd109 N124 2.304 . S
Cd109 N128 2.334 . S
Cd109 O145 2.273 . S
Cd109 O146 2.268 . S
Cd109 O150 2.417 . S
Cd109 O151 2.330 . S
C110 N111 1.332 . S
C110 C114 1.381 . S
C110 H116 0.931 . S
N111 Cd108 2.334 . S
N111 C110 1.332 . S
N111 C115 1.328 . S
C112 C113 1.396 . S
C112 C115 1.378 . S
C112 H154 0.931 . S
C113 C112 1.396 . S
C113 C114 1.382 . S
C114 C110 1.381 . S
C114 C113 1.382 . S
C114 H155 0.930 . S
C115 N111 1.328 . S
C115 C112 1.378 . S
C115 H117 0.930 . S
H116 C110 0.931 . S
H117 C115 0.930 . S
C118 O144 1.238 1_545 S
C118 O145 1.253 1_545 S
C119 C120 1.379 . S
C119 N124 1.337 . S
C119 H125 0.929 . S
C120 C119 1.379 . S
C120 C121 1.380 . S
C120 H156 0.929 . S
C121 C120 1.380 . S
C121 C122 1.399 . S
C122 C121 1.399 . S
C122 C123 1.376 . S
C122 H157 0.931 . S
C123 C122 1.376 . S
C123 N124 1.338 . S
C123 H126 0.930 . S
N124 Cd109 2.304 . S
N124 C119 1.337 . S
N124 C123 1.338 . S
H125 C119 0.929 . S
H126 C123 0.930 . S
C127 N128 1.332 . S
C127 C131 1.381 . S
C127 H133 0.931 . S
N128 Cd109 2.334 . S
N128 C127 1.332 . S
N128 C132 1.328 . S
C129 C130 1.396 . S
C129 C132 1.378 . S
C129 H158 0.931 . S
C130 C129 1.396 . S
C130 C131 1.382 . S
C131 C127 1.381 . S
C131 C130 1.382 . S
C131 H159 0.930 . S
C132 N128 1.328 . S
C132 C129 1.378 . S
C132 H134 0.930 . S
H133 C127 0.931 . S
H134 C132 0.930 . S
C135 O146 1.238 . S
C135 O147 1.253 . S
C136 O148 1.239 . S
C136 O149 1.230 . S
N137 Cd108 2.304 . S
N137 C138 1.337 . S
N137 C142 1.338 . S
C138 N137 1.337 . S
C138 C139 1.379 . S
C138 H152 0.929 . S
C139 C138 1.379 . S
C139 C140 1.380 . S
C139 H160 0.929 . S
C140 C139 1.380 . S
C140 C141 1.399 . S
C141 C140 1.399 . S
C141 C142 1.376 . S
C141 H161 0.931 . S
C142 N137 1.338 . S
C142 C141 1.376 . S
C142 H153 0.930 . S
C143 O150 1.239 . S
C143 O151 1.230 . S
O144 Cd108 2.268 . S
O144 C118 1.238 1_565 S
O145 Cd109 2.273 . S
O145 C118 1.253 1_565 S
O146 Cd109 2.268 . S
O146 C135 1.238 . S
O147 Cd108 2.273 . S
O147 C135 1.253 . S
O148 Cd108 2.417 . S
O148 C136 1.239 . S
O149 Cd108 2.330 . S
O149 C136 1.230 . S
O150 Cd109 2.417 . S
O150 C143 1.239 . S
O151 Cd109 2.330 . S
O151 C143 1.230 . S
H152 C138 0.929 . S
H153 C142 0.930 . S
H154 C112 0.931 . S
H155 C114 0.930 . S
H156 C120 0.929 . S
H157 C122 0.931 . S
H158 C129 0.931 . S
H159 C131 0.930 . S
H160 C139 0.929 . S
H161 C141 0.931 . S
Cd162 N165 2.334 . S
Cd162 N191 2.304 . S
Cd162 O198 2.268 . S
Cd162 O201 2.273 . S
Cd162 O202 2.417 . S
Cd162 O203 2.330 . S
Cd163 N178 2.304 . S
Cd163 N182 2.334 . S
Cd163 O199 2.273 . S
Cd163 O200 2.268 . S
Cd163 O204 2.417 . S
Cd163 O205 2.330 . S
C164 N165 1.332 . S
C164 C168 1.381 . S
C164 H170 0.931 . S
N165 Cd162 2.334 . S
N165 C164 1.332 . S
N165 C169 1.328 . S
C166 C167 1.396 . S
C166 C169 1.378 . S
C166 H208 0.931 . S
C167 C166 1.396 . S
C167 C168 1.382 . S
C168 C164 1.381 . S
C168 C167 1.382 . S
C168 H209 0.930 . S
C169 N165 1.328 . S
C169 C166 1.378 . S
C169 H171 0.930 . S
H170 C164 0.931 . S
H171 C169 0.930 . S
C172 O198 1.238 1_655 S
C172 O199 1.253 . S
C173 C174 1.379 . S
C173 N178 1.337 . S
C173 H179 0.929 . S
C174 C173 1.379 . S
C174 C175 1.380 . S
C174 H210 0.929 . S
C175 C174 1.380 . S
C175 C176 1.399 . S
C176 C175 1.399 . S
C176 C177 1.376 . S
C176 H211 0.931 . S
C177 C176 1.376 . S
C177 N178 1.338 . S
C177 H180 0.930 . S
N178 Cd163 2.304 . S
N178 C173 1.337 . S
N178 C177 1.338 . S
H179 C173 0.929 . S
H180 C177 0.930 . S
C181 N182 1.332 . S
C181 C185 1.381 . S
C181 H187 0.931 . S
N182 Cd163 2.334 . S
N182 C181 1.332 . S
N182 C186 1.328 . S
C183 C184 1.396 . S
C183 C186 1.378 . S
C183 H212 0.931 . S
C184 C183 1.396 . S
C184 C185 1.382 . S
C185 C181 1.381 . S
C185 C184 1.382 . S
C185 H213 0.930 . S
C186 N182 1.328 . S
C186 C183 1.378 . S
C186 H188 0.930 . S
H187 C181 0.931 . S
H188 C186 0.930 . S
C189 O200 1.238 1_455 S
C189 O201 1.253 . S
C190 O202 1.239 . S
C190 O203 1.230 . S
N191 Cd162 2.304 . S
N191 C192 1.337 . S
N191 C196 1.338 . S
C192 N191 1.337 . S
C192 C193 1.379 . S
C192 H206 0.929 . S
C193 C192 1.379 . S
C193 C194 1.380 . S
C193 H214 0.929 . S
C194 C193 1.380 . S
C194 C195 1.399 . S
C195 C194 1.399 . S
C195 C196 1.376 . S
C195 H215 0.931 . S
C196 N191 1.338 . S
C196 C195 1.376 . S
C196 H207 0.930 . S
C197 O204 1.239 . S
C197 O205 1.230 . S
O198 Cd162 2.268 . S
O198 C172 1.238 1_455 S
O199 Cd163 2.273 . S
O199 C172 1.253 . S
O200 Cd163 2.268 . S
O200 C189 1.238 1_655 S
O201 Cd162 2.273 . S
O201 C189 1.253 . S
O202 Cd162 2.417 . S
O202 C190 1.239 . S
O203 Cd162 2.330 . S
O203 C190 1.230 . S
O204 Cd163 2.417 . S
O204 C197 1.239 . S
O205 Cd163 2.330 . S
O205 C197 1.230 . S
H206 C192 0.929 . S
H207 C196 0.930 . S
H208 C166 0.931 . S
H209 C168 0.930 . S
H210 C174 0.929 . S
H211 C176 0.931 . S
H212 C183 0.931 . S
H213 C185 0.930 . S
H214 C193 0.929 . S
H215 C195 0.931 . S
Cd216 N219 2.334 . S
Cd216 N245 2.304 . S
Cd216 O252 2.268 . S
Cd216 O255 2.273 . S
Cd216 O256 2.417 . S
Cd216 O257 2.330 . S
Cd217 N232 2.304 . S
Cd217 N236 2.334 . S
Cd217 O253 2.273 . S
Cd217 O254 2.268 . S
Cd217 O258 2.417 . S
Cd217 O259 2.330 . S
C218 N219 1.332 . S
C218 C222 1.381 . S
C218 H224 0.931 . S
N219 Cd216 2.334 . S
N219 C218 1.332 . S
N219 C223 1.328 . S
C220 C221 1.396 . S
C220 C223 1.378 . S
C220 H262 0.931 . S
C221 C220 1.396 . S
C221 C222 1.382 . S
C222 C218 1.381 . S
C222 C221 1.382 . S
C222 H263 0.930 . S
C223 N219 1.328 . S
C223 C220 1.378 . S
C223 H225 0.930 . S
H224 C218 0.931 . S
H225 C223 0.930 . S
C226 O252 1.238 1_545 S
C226 O253 1.253 1_545 S
C227 C228 1.379 . S
C227 N232 1.337 . S
C227 H233 0.929 . S
C228 C227 1.379 . S
C228 C229 1.380 . S
C228 H264 0.929 . S
C229 C228 1.380 . S
C229 C230 1.399 . S
C230 C229 1.399 . S
C230 C231 1.376 . S
C230 H265 0.931 . S
C231 C230 1.376 . S
C231 N232 1.338 . S
C231 H234 0.930 . S
N232 Cd217 2.304 . S
N232 C227 1.337 . S
N232 C231 1.338 . S
H233 C227 0.929 . S
H234 C231 0.930 . S
C235 N236 1.332 . S
C235 C239 1.381 . S
C235 H241 0.931 . S
N236 Cd217 2.334 . S
N236 C235 1.332 . S
N236 C240 1.328 . S
C237 C238 1.396 . S
C237 C240 1.378 . S
C237 H266 0.931 . S
C238 C237 1.396 . S
C238 C239 1.382 . S
C239 C235 1.381 . S
C239 C238 1.382 . S
C239 H267 0.930 . S
C240 N236 1.328 . S
C240 C237 1.378 . S
C240 H242 0.930 . S
H241 C235 0.931 . S
H242 C240 0.930 . S
C243 O254 1.238 . S
C243 O255 1.253 . S
C244 O256 1.239 . S
C244 O257 1.230 . S
N245 Cd216 2.304 . S
N245 C246 1.337 . S
N245 C250 1.338 . S
C246 N245 1.337 . S
C246 C247 1.379 . S
C246 H260 0.929 . S
C247 C246 1.379 . S
C247 C248 1.380 . S
C247 H268 0.929 . S
C248 C247 1.380 . S
C248 C249 1.399 . S
C249 C248 1.399 . S
C249 C250 1.376 . S
C249 H269 0.931 . S
C250 N245 1.338 . S
C250 C249 1.376 . S
C250 H261 0.930 . S
C251 O258 1.239 . S
C251 O259 1.230 . S
O252 Cd216 2.268 . S
O252 C226 1.238 1_565 S
O253 Cd217 2.273 . S
O253 C226 1.253 1_565 S
O254 Cd217 2.268 . S
O254 C243 1.238 . S
O255 Cd216 2.273 . S
O255 C243 1.253 . S
O256 Cd216 2.417 . S
O256 C244 1.239 . S
O257 Cd216 2.330 . S
O257 C244 1.230 . S
O258 Cd217 2.417 . S
O258 C251 1.239 . S
O259 Cd217 2.330 . S
O259 C251 1.230 . S
H260 C246 0.929 . S
H261 C250 0.930 . S
H262 C220 0.931 . S
H263 C222 0.930 . S
H264 C228 0.929 . S
H265 C230 0.931 . S
H266 C237 0.931 . S
H267 C239 0.930 . S
H268 C247 0.929 . S
H269 C249 0.931 . S
Cd270 N273 2.334 . S
Cd270 N299 2.304 . S
Cd270 O306 2.268 . S
Cd270 O309 2.273 . S
Cd270 O310 2.417 . S
Cd270 O311 2.330 . S
Cd271 N286 2.304 . S
Cd271 N290 2.334 . S
Cd271 O307 2.273 . S
Cd271 O308 2.268 . S
Cd271 O312 2.417 . S
Cd271 O313 2.330 . S
C272 N273 1.332 . S
C272 C276 1.381 . S
C272 H278 0.931 . S
N273 Cd270 2.334 . S
N273 C272 1.332 . S
N273 C277 1.328 . S
C274 C275 1.396 . S
C274 C277 1.378 . S
C274 H316 0.931 . S
C275 C274 1.396 . S
C275 C276 1.382 . S
C276 C272 1.381 . S
C276 C275 1.382 . S
C276 H317 0.930 . S
C277 N273 1.328 . S
C277 C274 1.378 . S
C277 H279 0.930 . S
H278 C272 0.931 . S
H279 C277 0.930 . S
C280 O306 1.238 . S
C280 O307 1.253 . S
C281 C282 1.379 . S
C281 N286 1.337 . S
C281 H287 0.929 . S
C282 C281 1.379 . S
C282 C283 1.380 . S
C282 H318 0.929 . S
C283 C282 1.380 . S
C283 C284 1.399 . S
C284 C283 1.399 . S
C284 C285 1.376 . S
C284 H319 0.931 . S
C285 C284 1.376 . S
C285 N286 1.338 . S
C285 H288 0.930 . S
N286 Cd271 2.304 . S
N286 C281 1.337 . S
N286 C285 1.338 . S
H287 C281 0.929 . S
H288 C285 0.930 . S
C289 N290 1.332 . S
C289 C293 1.381 . S
C289 H295 0.931 . S
N290 Cd271 2.334 . S
N290 C289 1.332 . S
N290 C294 1.328 . S
C291 C292 1.396 . S
C291 C294 1.378 . S
C291 H320 0.931 . S
C292 C291 1.396 . S
C292 C293 1.382 . S
C293 C289 1.381 . S
C293 C292 1.382 . S
C293 H321 0.930 . S
C294 N290 1.328 . S
C294 C291 1.378 . S
C294 H296 0.930 . S
H295 C289 0.931 . S
H296 C294 0.930 . S
C297 O308 1.238 1_565 S
C297 O309 1.253 1_565 S
C298 O310 1.239 . S
C298 O311 1.230 . S
N299 Cd270 2.304 . S
N299 C300 1.337 . S
N299 C304 1.338 . S
C300 N299 1.337 . S
C300 C301 1.379 . S
C300 H314 0.929 . S
C301 C300 1.379 . S
C301 C302 1.380 . S
C301 H322 0.929 . S
C302 C301 1.380 . S
C302 C303 1.399 . S
C303 C302 1.399 . S
C303 C304 1.376 . S
C303 H323 0.931 . S
C304 N299 1.338 . S
C304 C303 1.376 . S
C304 H315 0.930 . S
C305 O312 1.239 . S
C305 O313 1.230 . S
O306 Cd270 2.268 . S
O306 C280 1.238 . S
O307 Cd271 2.273 . S
O307 C280 1.253 . S
O308 Cd271 2.268 . S
O308 C297 1.238 1_545 S
O309 Cd270 2.273 . S
O309 C297 1.253 1_545 S
O310 Cd270 2.417 . S
O310 C298 1.239 . S
O311 Cd270 2.330 . S
O311 C298 1.230 . S
O312 Cd271 2.417 . S
O312 C305 1.239 . S
O313 Cd271 2.330 . S
O313 C305 1.230 . S
H314 C300 0.929 . S
H315 C304 0.930 . S
H316 C274 0.931 . S
H317 C276 0.930 . S
H318 C282 0.929 . S
H319 C284 0.931 . S
H320 C291 0.931 . S
H321 C293 0.930 . S
H322 C301 0.929 . S
H323 C303 0.931 . S
Cd324 N327 2.334 . S
Cd324 N353 2.304 . S
Cd324 O360 2.268 . S
Cd324 O363 2.273 1_545 S
Cd324 O364 2.417 . S
Cd324 O365 2.330 1_545 S
Cd325 N340 2.304 . S
Cd325 N344 2.334 . S
Cd325 O361 2.273 1_565 S
Cd325 O362 2.268 . S
Cd325 O366 2.417 . S
Cd325 O367 2.330 1_565 S
C326 N327 1.332 1_565 S
C326 C330 1.381 . S
C326 H332 0.931 . S
N327 Cd324 2.334 . S
N327 C326 1.332 1_545 S
N327 C331 1.328 . S
C328 C329 1.396 . S
C328 C331 1.378 . S
C328 H370 0.931 . S
C329 C328 1.396 . S
C329 C330 1.382 1_545 S
C330 C326 1.381 . S
C330 C329 1.382 1_565 S
C330 H371 0.930 . S
C331 N327 1.328 . S
C331 C328 1.378 . S
C331 H333 0.930 . S
H332 C326 0.931 . S
H333 C331 0.930 . S
C334 O360 1.238 . S
C334 O361 1.253 . S
C335 C336 1.379 . S
C335 N340 1.337 1_545 S
C335 H341 0.929 . S
C336 C335 1.379 . S
C336 C337 1.380 1_545 S
C336 H372 0.929 . S
C337 C336 1.380 1_565 S
C337 C338 1.399 . S
C338 C337 1.399 . S
C338 C339 1.376 . S
C338 H373 0.931 . S
C339 C338 1.376 . S
C339 N340 1.338 . S
C339 H342 0.930 . S
N340 Cd325 2.304 . S
N340 C335 1.337 1_565 S
N340 C339 1.338 . S
H341 C335 0.929 . S
H342 C339 0.930 . S
C343 N344 1.332 1_545 S
C343 C347 1.381 . S
C343 H349 0.931 . S
N344 Cd325 2.334 . S
N344 C343 1.332 1_565 S
N344 C348 1.328 . S
C345 C346 1.396 . S
C345 C348 1.378 . S
C345 H374 0.931 . S
C346 C345 1.396 . S
C346 C347 1.382 1_565 S
C347 C343 1.381 . S
C347 C346 1.382 1_545 S
C347 H375 0.930 . S
C348 N344 1.328 . S
C348 C345 1.378 . S
C348 H350 0.930 . S
H349 C343 0.931 . S
H350 C348 0.930 . S
C351 O362 1.238 . S
C351 O363 1.253 . S
C352 O364 1.239 . S
C352 O365 1.230 1_545 S
N353 Cd324 2.304 . S
N353 C354 1.337 1_545 S
N353 C358 1.338 . S
C354 N353 1.337 1_565 S
C354 C355 1.379 . S
C354 H368 0.929 . S
C355 C354 1.379 . S
C355 C356 1.380 1_565 S
C355 H376 0.929 . S
C356 C355 1.380 1_545 S
C356 C357 1.399 . S
C357 C356 1.399 . S
C357 C358 1.376 . S
C357 H377 0.931 . S
C358 N353 1.338 . S
C358 C357 1.376 . S
C358 H369 0.930 . S
C359 O366 1.239 . S
C359 O367 1.230 1_565 S
O360 Cd324 2.268 . S
O360 C334 1.238 . S
O361 Cd325 2.273 1_545 S
O361 C334 1.253 . S
O362 Cd325 2.268 . S
O362 C351 1.238 . S
O363 Cd324 2.273 1_565 S
O363 C351 1.253 . S
O364 Cd324 2.417 . S
O364 C352 1.239 . S
O365 Cd324 2.330 1_565 S
O365 C352 1.230 1_565 S
O366 Cd325 2.417 . S
O366 C359 1.239 . S
O367 Cd325 2.330 1_545 S
O367 C359 1.230 1_545 S
H368 C354 0.929 . S
H369 C358 0.930 . S
H370 C328 0.931 . S
H371 C330 0.930 . S
H372 C336 0.929 . S
H373 C338 0.931 . S
H374 C345 0.931 . S
H375 C347 0.930 . S
H376 C355 0.929 . S
H377 C357 0.931 . S
Cd378 N381 2.288 1_554 S
Cd378 N407 2.350 . S
Cd378 O414 2.267 . S
Cd378 O417 2.273 . S
Cd378 O418 2.414 1_554 S
Cd378 O419 2.331 . S
Cd379 N394 2.350 . S
Cd379 N398 2.288 1_554 S
Cd379 O415 2.273 . S
Cd379 O416 2.267 . S
Cd379 O420 2.414 1_554 S
Cd379 O421 2.331 . S
C380 N381 1.332 . S
C380 C384 1.381 . S
C380 H386 0.931 . S
N381 Cd378 2.288 1_556 S
N381 C380 1.332 . S
N381 C385 1.328 . S
C382 C383 1.396 . S
C382 C385 1.378 . S
C382 H424 0.931 . S
C383 C382 1.396 . S
C383 C384 1.382 . S
C384 C380 1.381 . S
C384 C383 1.382 . S
C384 H425 0.930 . S
C385 N381 1.328 . S
C385 C382 1.378 . S
C385 H387 0.930 . S
H386 C380 0.931 . S
H387 C385 0.930 . S
C388 O414 1.238 . S
C388 O415 1.253 . S
C389 C390 1.379 . S
C389 N394 1.337 . S
C389 H395 0.929 . S
C390 C389 1.379 . S
C390 C391 1.380 . S
C390 H426 0.929 . S
C391 C390 1.380 . S
C391 C392 1.399 . S
C392 C391 1.399 . S
C392 C393 1.376 . S
C392 H427 0.931 . S
C393 C392 1.376 . S
C393 N394 1.338 . S
C393 H396 0.930 . S
N394 Cd379 2.350 . S
N394 C389 1.337 . S
N394 C393 1.338 . S
H395 C389 0.929 . S
H396 C393 0.930 . S
C397 N398 1.332 . S
C397 C401 1.381 . S
C397 H403 0.931 . S
N398 Cd379 2.288 1_556 S
N398 C397 1.332 . S
N398 C402 1.328 . S
C399 C400 1.396 . S
C399 C402 1.378 . S
C399 H428 0.931 . S
C400 C399 1.396 . S
C400 C401 1.382 . S
C401 C397 1.381 . S
C401 C400 1.382 . S
C401 H429 0.930 . S
C402 N398 1.328 . S
C402 C399 1.378 . S
C402 H404 0.930 . S
H403 C397 0.931 . S
H404 C402 0.930 . S
C405 O416 1.238 . S
C405 O417 1.253 . S
C406 O418 1.239 1_554 S
C406 O419 1.230 . S
N407 Cd378 2.350 . S
N407 C408 1.337 . S
N407 C412 1.338 . S
C408 N407 1.337 . S
C408 C409 1.379 . S
C408 H422 0.929 . S
C409 C408 1.379 . S
C409 C410 1.380 . S
C409 H430 0.929 . S
C410 C409 1.380 . S
C410 C411 1.399 . S
C411 C410 1.399 . S
C411 C412 1.376 . S
C411 H431 0.931 . S
C412 N407 1.338 . S
C412 C411 1.376 . S
C412 H423 0.930 . S
C413 O420 1.239 1_554 S
C413 O421 1.230 . S
O414 Cd378 2.267 . S
O414 C388 1.238 . S
O415 Cd379 2.273 . S
O415 C388 1.253 . S
O416 Cd379 2.267 . S
O416 C405 1.238 . S
O417 Cd378 2.273 . S
O417 C405 1.253 . S
O418 Cd378 2.414 1_556 S
O418 C406 1.239 1_556 S
O419 Cd378 2.331 . S
O419 C406 1.230 . S
O420 Cd379 2.414 1_556 S
O420 C413 1.239 1_556 S
O421 Cd379 2.331 . S
O421 C413 1.230 . S
H422 C408 0.929 . S
H423 C412 0.930 . S
H424 C382 0.931 . S
H425 C384 0.930 . S
H426 C390 0.929 . S
H427 C392 0.931 . S
H428 C399 0.931 . S
H429 C401 0.930 . S
H430 C409 0.929 . S
H431 C411 0.931 . S
C432 C433 1.369 . S
C432 C434 1.419 . S
C432 H436 0.930 1_545 S
C433 C432 1.369 . S
C433 C442 1.429 . S
C434 C432 1.419 . S
C434 C435 1.363 . S
C434 H437 0.929 . S
C435 C434 1.363 . S
C435 C441 1.428 . S
H436 C432 0.930 1_565 S
H437 C434 0.929 . S
S438 N439 1.613 . S
S438 N440 1.610 . S
N439 S438 1.613 . S
N439 C442 1.350 . S
N440 S438 1.610 . S
N440 C441 1.351 . S
C441 C435 1.428 . S
C441 N440 1.351 . S
C441 C442 1.434 . S
C442 C433 1.429 . S
C442 N439 1.350 . S
C442 C441 1.434 . S
C443 C444 1.369 . S
C443 C445 1.419 . S
C443 H447 0.930 . S
C444 C443 1.369 . S
C444 C453 1.429 . S
C445 C443 1.419 . S
C445 C446 1.363 . S
C445 H448 0.929 . S
C446 C445 1.363 . S
C446 C452 1.428 . S
H447 C443 0.930 . S
H448 C445 0.929 . S
S449 N450 1.613 . S
S449 N451 1.610 1_545 S
N450 S449 1.613 . S
N450 C453 1.350 1_545 S
N451 S449 1.610 1_565 S
N451 C452 1.351 . S
C452 C446 1.428 . S
C452 N451 1.351 . S
C452 C453 1.434 . S
C453 C444 1.429 . S
C453 N450 1.350 1_565 S
C453 C452 1.434 . S
C454 C455 1.369 . S
C454 C456 1.419 . S
C454 H458 0.930 . S
C455 C454 1.369 . S
C455 C464 1.429 . S
C456 C454 1.419 . S
C456 C457 1.363 . S
C456 H459 0.929 . S
C457 C456 1.363 . S
C457 C463 1.428 . S
H458 C454 0.930 . S
H459 C456 0.929 . S
S460 N461 1.613 . S
S460 N462 1.610 . S
N461 S460 1.613 . S
N461 C464 1.350 . S
N462 S460 1.610 . S
N462 C463 1.351 . S
C463 C457 1.428 . S
C463 N462 1.351 . S
C463 C464 1.434 . S
C464 C455 1.429 . S
C464 N461 1.350 . S
C464 C463 1.434 . S
C465 C466 1.369 . S
C465 C467 1.419 . S
C465 H469 0.930 . S
C466 C465 1.369 . S
C466 C475 1.429 . S
C467 C465 1.419 . S
C467 C468 1.363 . S
C467 H470 0.929 . S
C468 C467 1.363 . S
C468 C474 1.428 . S
H469 C465 0.930 . S
H470 C467 0.929 . S
S471 N472 1.613 . S
S471 N473 1.610 . S
N472 S471 1.613 . S
N472 C475 1.350 . S
N473 S471 1.610 . S
N473 C474 1.351 . S
C474 C468 1.428 . S
C474 N473 1.351 . S
C474 C475 1.434 . S
C475 C466 1.429 . S
C475 N472 1.350 . S
C475 C474 1.434 . S
C476 C477 1.369 . S
C476 C478 1.419 . S
C476 H480 0.930 . S
C477 C476 1.369 . S
C477 C486 1.429 . S
C478 C476 1.419 . S
C478 C479 1.363 . S
C478 H481 0.929 . S
C479 C478 1.363 . S
C479 C485 1.428 . S
H480 C476 0.930 . S
H481 C478 0.929 . S
S482 N483 1.613 . S
S482 N484 1.610 . S
N483 S482 1.613 . S
N483 C486 1.350 . S
N484 S482 1.610 . S
N484 C485 1.351 . S
C485 C479 1.428 . S
C485 N484 1.351 . S
C485 C486 1.434 . S
C486 C477 1.429 . S
C486 N483 1.350 . S
C486 C485 1.434 . S
C487 C488 1.369 . S
C487 C489 1.419 . S
C487 H491 0.930 . S
C488 C487 1.369 . S
C488 C497 1.429 . S
C489 C487 1.419 . S
C489 C490 1.363 . S
C489 H492 0.929 . S
C490 C489 1.363 . S
C490 C496 1.428 . S
H491 C487 0.930 . S
H492 C489 0.929 . S
S493 N494 1.613 . S
S493 N495 1.610 . S
N494 S493 1.613 . S
N494 C497 1.350 . S
N495 S493 1.610 . S
N495 C496 1.351 . S
C496 C490 1.428 . S
C496 N495 1.351 . S
C496 C497 1.434 . S
C497 C488 1.429 . S
C497 N494 1.350 . S
C497 C496 1.434 . S
C498 C499 1.369 . S
C498 C500 1.419 . S
C498 H502 0.930 . S
C499 C498 1.369 . S
C499 C508 1.429 . S
C500 C498 1.419 . S
C500 C501 1.363 . S
C500 H503 0.929 . S
C501 C500 1.363 . S
C501 C507 1.428 . S
H502 C498 0.930 . S
H503 C500 0.929 . S
S504 N505 1.613 . S
S504 N506 1.610 . S
N505 S504 1.613 . S
N505 C508 1.350 . S
N506 S504 1.610 . S
N506 C507 1.351 . S
C507 C501 1.428 . S
C507 N506 1.351 . S
C507 C508 1.434 . S
C508 C499 1.429 . S
C508 N505 1.350 . S
C508 C507 1.434 . S
C509 C510 1.369 . S
C509 C511 1.419 1_545 S
C509 H513 0.930 1_545 S
C510 C509 1.369 . S
C510 C519 1.429 . S
C511 C509 1.419 1_565 S
C511 C512 1.363 1_565 S
C511 H514 0.929 . S
C512 C511 1.363 1_545 S
C512 C518 1.428 . S
H513 C509 0.930 1_565 S
H514 C511 0.929 . S
S515 N516 1.613 . S
S515 N517 1.610 . S
N516 S515 1.613 . S
N516 C519 1.350 . S
N517 S515 1.610 . S
N517 C518 1.351 . S
C518 C512 1.428 . S
C518 N517 1.351 . S
C518 C519 1.434 . S
C519 C510 1.429 . S
C519 N516 1.350 . S
C519 C518 1.434 . S
C520 C521 1.369 . S
C520 C522 1.419 . S
C520 H524 0.930 . S
C521 C520 1.369 . S
C521 C530 1.429 . S
C522 C520 1.419 . S
C522 C523 1.363 . S
C522 H525 0.929 . S
C523 C522 1.363 . S
C523 C529 1.428 1_545 S
H524 C520 0.930 . S
H525 C522 0.929 . S
S526 N527 1.613 . S
S526 N528 1.610 . S
N527 S526 1.613 . S
N527 C530 1.350 1_565 S
N528 S526 1.610 . S
N528 C529 1.351 . S
C529 C523 1.428 1_565 S
C529 N528 1.351 . S
C529 C530 1.434 1_565 S
C530 C521 1.429 . S
C530 N527 1.350 1_545 S
C530 C529 1.434 1_545 S
C531 C532 1.369 . S
C531 C533 1.419 . S
C531 H535 0.930 . S
C532 C531 1.369 . S
C532 C541 1.429 1_565 S
C533 C531 1.419 . S
C533 C534 1.363 . S
C533 H536 0.929 . S
C534 C533 1.363 . S
C534 C540 1.428 . S
H535 C531 0.930 . S
H536 C533 0.929 . S
S537 N538 1.613 . S
S537 N539 1.610 . S
N538 S537 1.613 . S
N538 C541 1.350 . S
N539 S537 1.610 . S
N539 C540 1.351 1_545 S
C540 C534 1.428 . S
C540 N539 1.351 1_565 S
C540 C541 1.434 1_565 S
C541 C532 1.429 1_545 S
C541 N538 1.350 . S
C541 C540 1.434 1_545 S
C542 C543 1.369 . S
C542 C544 1.419 . S
C542 H546 0.930 . S
C543 C542 1.369 . S
C543 C552 1.429 . S
C544 C542 1.419 . S
C544 C545 1.363 . S
C544 H547 0.929 . S
C545 C544 1.363 . S
C545 C551 1.428 . S
H546 C542 0.930 . S
H547 C544 0.929 . S
S548 N549 1.613 . S
S548 N550 1.610 . S
N549 S548 1.613 . S
N549 C552 1.350 . S
N550 S548 1.610 . S
N550 C551 1.351 . S
C551 C545 1.428 . S
C551 N550 1.351 . S
C551 C552 1.434 . S
C552 C543 1.429 . S
C552 N549 1.350 . S
C552 C551 1.434 . S
C553 C554 1.369 . S
C553 C555 1.419 . S
C553 H557 0.930 . S
C554 C553 1.369 . S
C554 C563 1.429 . S
C555 C553 1.419 . S
C555 C556 1.363 . S
C555 H558 0.929 . S
C556 C555 1.363 . S
C556 C562 1.428 . S
H557 C553 0.930 . S
H558 C555 0.929 . S
S559 N560 1.613 . S
S559 N561 1.610 . S
N560 S559 1.613 . S
N560 C563 1.350 . S
N561 S559 1.610 . S
N561 C562 1.351 . S
C562 C556 1.428 . S
C562 N561 1.351 . S
C562 C563 1.434 . S
C563 C554 1.429 . S
C563 N560 1.350 . S
C563 C562 1.434 . S
C564 C565 1.369 . S
C564 C566 1.419 . S
C564 H568 0.930 . S
C565 C564 1.369 . S
C565 C574 1.429 . S
C566 C564 1.419 . S
C566 C567 1.363 . S
C566 H569 0.929 . S
C567 C566 1.363 . S
C567 C573 1.428 . S
H568 C564 0.930 . S
H569 C566 0.929 . S
S570 N571 1.613 . S
S570 N572 1.610 . S
N571 S570 1.613 . S
N571 C574 1.350 . S
N572 S570 1.610 . S
N572 C573 1.351 . S
C573 C567 1.428 . S
C573 N572 1.351 . S
C573 C574 1.434 . S
C574 C565 1.429 . S
C574 N571 1.350 . S
C574 C573 1.434 . S
C575 C576 1.369 . S
C575 C577 1.419 . S
C575 H579 0.930 . S
C576 C575 1.369 . S
C576 C585 1.429 . S
C577 C575 1.419 . S
C577 C578 1.363 . S
C577 H580 0.929 . S
C578 C577 1.363 . S
C578 C584 1.428 . S
H579 C575 0.930 . S
H580 C577 0.929 . S
S581 N582 1.613 . S
S581 N583 1.610 . S
N582 S581 1.613 . S
N582 C585 1.350 . S
N583 S581 1.610 . S
N583 C584 1.351 . S
C584 C578 1.428 . S
C584 N583 1.351 . S
C584 C585 1.434 . S
C585 C576 1.429 . S
C585 N582 1.350 . S
C585 C584 1.434 . S
C586 C587 1.369 1_545 S
C586 C588 1.419 1_545 S
C586 H590 0.930 . S
C587 C586 1.369 1_565 S
C587 C596 1.429 . S
C588 C586 1.419 1_565 S
C588 C589 1.363 . S
C588 H591 0.929 1_565 S
C589 C588 1.363 . S
C589 C595 1.428 . S
H590 C586 0.930 . S
H591 C588 0.929 1_545 S
S592 N593 1.613 . S
S592 N594 1.610 . S
N593 S592 1.613 . S
N593 C596 1.350 . S
N594 S592 1.610 . S
N594 C595 1.351 . S
C595 C589 1.428 . S
C595 N594 1.351 . S
C595 C596 1.434 . S
C596 C587 1.429 . S
C596 N593 1.350 . S
C596 C595 1.434 . S
C597 C598 1.369 . S
C597 C599 1.419 . S
C597 H601 0.930 . S
C598 C597 1.369 . S
C598 C607 1.429 1_545 S
C599 C597 1.419 . S
C599 C600 1.363 . S
C599 H602 0.929 . S
C600 C599 1.363 . S
C600 C606 1.428 . S
H601 C597 0.930 . S
H602 C599 0.929 . S
S603 N604 1.613 . S
S603 N605 1.610 . S
N604 S603 1.613 . S
N604 C607 1.350 . S
N605 S603 1.610 . S
N605 C606 1.351 1_565 S
C606 C600 1.428 . S
C606 N605 1.351 1_545 S
C606 C607 1.434 1_545 S
C607 C598 1.429 1_565 S
C607 N604 1.350 . S
C607 C606 1.434 1_565 S
C608 C609 1.385 1_655 S
C608 C610 1.419 . S
C608 H612 0.930 . S
C609 C608 1.385 1_455 S
C609 C618 1.413 1_554 S
C610 C608 1.419 . S
C610 C611 1.382 . S
C610 H613 0.929 . S
C611 C610 1.382 . S
C611 C617 1.409 1_654 S
H612 C608 0.930 . S
H613 C610 0.929 . S
S614 N615 1.613 . S
S614 N616 1.610 . S
N615 S614 1.613 . S
N615 C618 1.350 . S
N616 S614 1.610 . S
N616 C617 1.351 . S
C617 C611 1.409 1_456 S
C617 N616 1.351 . S
C617 C618 1.434 . S
C618 C609 1.413 1_556 S
C618 N615 1.350 . S
C618 C617 1.434 . S
C619 C620 1.369 . S
C619 C621 1.419 . S
C619 H623 0.930 . S
C620 C619 1.369 . S
C620 C629 1.429 . S
C621 C619 1.419 . S
C621 C622 1.363 . S
C621 H624 0.929 . S
C622 C621 1.363 . S
C622 C628 1.428 . S
H623 C619 0.930 . S
H624 C621 0.929 . S
S625 N626 1.613 . S
S625 N627 1.610 . S
N626 S625 1.613 . S
N626 C629 1.350 . S
N627 S625 1.610 . S
N627 C628 1.351 . S
C628 C622 1.428 . S
C628 N627 1.351 . S
C628 C629 1.434 . S
C629 C620 1.429 . S
C629 N626 1.350 . S
C629 C628 1.434 . S
C630 C631 1.369 . S
C630 C632 1.419 . S
C630 H634 0.930 . S
C631 C630 1.369 . S
C631 C640 1.429 . S
C632 C630 1.419 . S
C632 C633 1.363 . S
C632 H635 0.929 . S
C633 C632 1.363 . S
C633 C639 1.428 . S
H634 C630 0.930 . S
H635 C632 0.929 . S
S636 N637 1.613 . S
S636 N638 1.610 . S
N637 S636 1.613 . S
N637 C640 1.350 . S
N638 S636 1.610 . S
N638 C639 1.351 . S
C639 C633 1.428 . S
C639 N638 1.351 . S
C639 C640 1.434 . S
C640 C631 1.429 . S
C640 N637 1.350 . S
C640 C639 1.434 . S
C641 C642 1.369 . S
C641 C643 1.419 1_565 S
C641 H645 0.930 . S
C642 C641 1.369 . S
C642 C651 1.429 1_655 S
C643 C641 1.419 1_545 S
C643 C644 1.363 1_655 S
C643 H646 0.929 . S
C644 C643 1.363 1_455 S
C644 C650 1.428 . S
H645 C641 0.930 . S
H646 C643 0.929 . S
S647 N648 1.613 . S
S647 N649 1.610 1_565 S
N648 S647 1.613 . S
N648 C651 1.350 . S
N649 S647 1.610 1_545 S
N649 C650 1.351 . S
C650 C644 1.428 . S
C650 N649 1.351 . S
C650 C651 1.434 1_545 S
C651 C642 1.429 1_455 S
C651 N648 1.350 . S
C651 C650 1.434 1_565 S
C652 C653 1.369 . S
C652 C654 1.419 . S
C652 H656 0.930 . S
C653 C652 1.369 . S
C653 C662 1.429 . S
C654 C652 1.419 . S
C654 C655 1.363 . S
C654 H657 0.929 . S
C655 C654 1.363 . S
C655 C661 1.428 . S
H656 C652 0.930 . S
H657 C654 0.929 . S
S658 N659 1.613 . S
S658 N660 1.610 . S
N659 S658 1.613 . S
N659 C662 1.350 . S
N660 S658 1.610 . S
N660 C661 1.351 . S
C661 C655 1.428 . S
C661 N660 1.351 . S
C661 C662 1.434 . S
C662 C653 1.429 . S
C662 N659 1.350 . S
C662 C661 1.434 . S
C663 C664 1.369 . S
C663 C665 1.419 . S
C663 H667 0.930 . S
C664 C663 1.369 . S
C664 C673 1.429 . S
C665 C663 1.419 . S
C665 C666 1.363 . S
C665 H668 0.929 . S
C666 C665 1.363 . S
C666 C672 1.428 . S
H667 C663 0.930 . S
H668 C665 0.929 . S
S669 N670 1.613 . S
S669 N671 1.610 . S
N670 S669 1.613 . S
N670 C673 1.350 . S
N671 S669 1.610 . S
N671 C672 1.351 . S
C672 C666 1.428 . S
C672 N671 1.351 . S
C672 C673 1.434 . S
C673 C664 1.429 . S
C673 N670 1.350 . S
C673 C672 1.434 . S
C674 C675 1.369 . S
C674 C676 1.419 . S
C674 H678 0.930 . S
C675 C674 1.369 . S
C675 C684 1.429 . S
C676 C674 1.419 . S
C676 C677 1.363 . S
C676 H679 0.929 . S
C677 C676 1.363 . S
C677 C683 1.428 . S
H678 C674 0.930 . S
H679 C676 0.929 . S
S680 N681 1.613 . S
S680 N682 1.610 . S
N681 S680 1.613 . S
N681 C684 1.350 . S
N682 S680 1.610 . S
N682 C683 1.351 . S
C683 C677 1.428 . S
C683 N682 1.351 . S
C683 C684 1.434 . S
C684 C675 1.429 . S
C684 N681 1.350 . S
C684 C683 1.434 . S
C685 C686 1.326 1_556 S
C685 C687 1.419 1_565 S
C685 H689 0.930 . S
C686 C685 1.326 1_554 S
C686 C695 1.473 . S
C687 C685 1.419 1_545 S
C687 C688 1.322 1_556 S
C687 H690 0.929 . S
C688 C687 1.322 1_554 S
C688 C694 1.470 . S
H689 C685 0.930 . S
H690 C687 0.929 . S
S691 N692 1.613 1_545 S
S691 N693 1.610 . S
N692 S691 1.613 1_565 S
N692 C695 1.350 . S
N693 S691 1.610 . S
N693 C694 1.351 . S
C694 C688 1.470 . S
C694 N693 1.351 . S
C694 C695 1.434 1_545 S
C695 C686 1.473 . S
C695 N692 1.350 . S
C695 C694 1.434 1_565 S
C696 C697 1.362 1_556 S
C696 C698 1.419 . S
C696 H700 0.930 . S
C697 C696 1.362 1_554 S
C697 C706 1.436 . S
C698 C696 1.419 . S
C698 C699 1.358 1_556 S
C698 H701 0.929 . S
C699 C698 1.358 1_554 S
C699 C705 1.434 . S
H700 C696 0.930 . S
H701 C698 0.929 . S
S702 N703 1.613 . S
S702 N704 1.610 . S
N703 S702 1.613 . S
N703 C706 1.350 . S
N704 S702 1.610 . S
N704 C705 1.351 . S
C705 C699 1.434 . S
C705 N704 1.351 . S
C705 C706 1.434 . S
C706 C697 1.436 . S
C706 N703 1.350 . S
C706 C705 1.434 . S
C707 C708 1.354 1_556 S
C707 C709 1.419 . S
C707 H711 0.930 . S
C708 C707 1.354 1_554 S
C708 C717 1.445 . S
C709 C707 1.419 . S
C709 C710 1.350 1_556 S
C709 H712 0.929 . S
C710 C709 1.350 1_554 S
C710 C716 1.442 . S
H711 C707 0.930 . S
H712 C709 0.929 . S
S713 N714 1.613 . S
S713 N715 1.610 . S
N714 S713 1.613 . S
N714 C717 1.350 . S
N715 S713 1.610 . S
N715 C716 1.351 . S
C716 C710 1.442 . S
C716 N715 1.351 . S
C716 C717 1.434 . S
C717 C708 1.445 . S
C717 N714 1.350 . S
C717 C716 1.434 . S
C718 C719 1.369 . S
C718 C720 1.419 . S
C718 H722 0.930 . S
C719 C718 1.369 . S
C719 C728 1.429 1_455 S
C720 C718 1.419 . S
C720 C721 1.363 1_455 S
C720 H723 0.929 . S
C721 C720 1.363 1_655 S
C721 C727 1.428 . S
H722 C718 0.930 . S
H723 C720 0.929 . S
S724 N725 1.613 . S
S724 N726 1.610 . S
N725 S724 1.613 . S
N725 C728 1.350 . S
N726 S724 1.610 . S
N726 C727 1.351 . S
C727 C721 1.428 . S
C727 N726 1.351 . S
C727 C728 1.434 . S
C728 C719 1.429 1_655 S
C728 N725 1.350 . S
C728 C727 1.434 . S
C729 C730 1.369 . S
C729 C731 1.419 . S
C729 H733 0.930 . S
C730 C729 1.369 . S
C730 C739 1.429 . S
C731 C729 1.419 . S
C731 C732 1.363 . S
C731 H734 0.929 . S
C732 C731 1.363 . S
C732 C738 1.428 . S
H733 C729 0.930 . S
H734 C731 0.929 . S
S735 N736 1.613 . S
S735 N737 1.610 . S
N736 S735 1.613 . S
N736 C739 1.350 . S
N737 S735 1.610 . S
N737 C738 1.351 . S
C738 C732 1.428 . S
C738 N737 1.351 . S
C738 C739 1.434 . S
C739 C730 1.429 . S
C739 N736 1.350 . S
C739 C738 1.434 . S
C740 C741 1.369 . S
C740 C742 1.419 . S
C740 H744 0.930 . S
C741 C740 1.369 . S
C741 C750 1.429 . S
C742 C740 1.419 . S
C742 C743 1.363 . S
C742 H745 0.929 . S
C743 C742 1.363 . S
C743 C749 1.428 . S
H744 C740 0.930 . S
H745 C742 0.929 . S
S746 N747 1.613 . S
S746 N748 1.610 . S
N747 S746 1.613 . S
N747 C750 1.350 . S
N748 S746 1.610 . S
N748 C749 1.351 . S
C749 C743 1.428 . S
C749 N748 1.351 . S
C749 C750 1.434 . S
C750 C741 1.429 . S
C750 N747 1.350 . S
C750 C749 1.434 . S
C751 C752 1.369 . S
C751 C753 1.419 1_645 S
C751 H755 0.930 . S
C752 C751 1.369 . S
C752 C761 1.429 . S
C753 C751 1.419 1_465 S
C753 C754 1.363 . S
C753 H756 0.929 . S
C754 C753 1.363 . S
C754 C760 1.428 . S
H755 C751 0.930 . S
H756 C753 0.929 . S
S757 N758 1.613 1_455 S
S757 N759 1.610 1_545 S
N758 S757 1.613 1_655 S
N758 C761 1.350 . S
N759 S757 1.610 1_565 S
N759 C760 1.351 . S
C760 C754 1.428 . S
C760 N759 1.351 . S
C760 C761 1.434 1_465 S
C761 C752 1.429 . S
C761 N758 1.350 . S
C761 C760 1.434 1_645 S
C762 C763 1.369 . S
C762 C764 1.419 . S
C762 H766 0.930 . S
C763 C762 1.369 . S
C763 C772 1.429 . S
C764 C762 1.419 . S
C764 C765 1.363 . S
C764 H767 0.929 . S
C765 C764 1.363 . S
C765 C771 1.428 . S
H766 C762 0.930 . S
H767 C764 0.929 . S
S768 N769 1.613 . S
S768 N770 1.610 . S
N769 S768 1.613 . S
N769 C772 1.350 . S
N770 S768 1.610 . S
N770 C771 1.351 . S
C771 C765 1.428 . S
C771 N770 1.351 . S
C771 C772 1.434 . S
C772 C763 1.429 . S
C772 N769 1.350 . S
C772 C771 1.434 . S
C773 C774 1.369 1_545 S
C773 C775 1.419 . S
C773 H777 0.930 . S
C774 C773 1.369 1_565 S
C774 C783 1.429 . S
C775 C773 1.419 . S
C775 C776 1.363 . S
C775 H778 0.929 . S
C776 C775 1.363 . S
C776 C782 1.428 1_545 S
H777 C773 0.930 . S
H778 C775 0.929 . S
S779 N780 1.613 . S
S779 N781 1.610 . S
N780 S779 1.613 . S
N780 C783 1.350 . S
N781 S779 1.610 . S
N781 C782 1.351 . S
C782 C776 1.428 1_565 S
C782 N781 1.351 . S
C782 C783 1.434 . S
C783 C774 1.429 . S
C783 N780 1.350 . S
C783 C782 1.434 . S
C433 C32 1.922 . S
C435 C76 1.935 . S
C444 C13 1.931 . S
C446 C130 1.931 . S
C455 C167 1.935 . S
C457 C67 1.924 . S
C466 C121 1.922 . S
C468 C184 1.938 . S
C477 C194 1.925 . S
C479 C221 1.933 . S
C488 C292 1.930 . S
C490 C175 1.930 . S
C499 C248 1.931 . S
C501 C5 1.929 1_565 S
C510 C283 1.927 . S
C512 C22 1.933 1_545 S
C521 C275 1.931 . S
C523 C356 1.928 . S
C532 C337 1.928 . S
C534 C238 1.932 . S
C543 C383 1.929 . S
C545 C302 1.930 . S
C554 C400 1.929 . S
C556 C229 1.929 . S
C565 C410 1.925 . S
C567 C113 1.933 . S
C576 C59 1.937 . S
C578 C391 1.923 . S
C587 C329 1.930 1_565 S
C589 C140 1.929 . S
C598 C346 1.937 1_545 S
C600 C86 1.923 . S
C609 C27 0.804 . S
C611 C10 0.803 . S
C620 C81 0.805 . S
C622 C64 0.803 . S
C631 C118 0.805 . S
C633 C135 0.803 . S
C642 C172 0.803 . S
C644 C189 0.804 . S
C653 C226 0.804 . S
C655 C243 0.803 . S
C664 C280 0.803 . S
C666 C297 0.805 . S
C675 C351 0.804 . S
C677 C334 0.803 . S
C686 C388 0.805 . S
C688 C405 0.803 . S
C697 C413 1.080 . S
C699 C28 1.070 . S
C708 C35 1.078 . S
C710 C406 1.077 . S
C719 C89 1.082 . S
C721 C143 1.072 . S
C730 C359 1.071 . S
C732 C190 1.078 . S
C741 C197 1.076 . S
C743 C352 1.078 . S
C752 C305 1.080 . S
C754 C244 1.073 . S
C763 C298 1.077 . S
C765 C251 1.074 . S
C774 C136 1.082 . S
C776 C82 1.071 . S
