# Generated by pormake.
# Topology qdl, (4)-cn, num edge types: 1
# Building blocks:
#     Node 0, Type 0, BuildingBlock: KOZSID_clean_sbu_0, # of connection points: 4
#     Node 1, Type 0, BuildingBlock: KOZSID_clean_sbu_0, # of connection points: 4
#     Node 2, Type 0, BuildingBlock: KOZSID_clean_sbu_0, # of connection points: 4
#     Node 3, Type 0, BuildingBlock: KOZSID_clean_sbu_0, # of connection points: 4
#     Node 4, Type 0, BuildingBlock: KOZSID_clean_sbu_0, # of connection points: 4
#     Node 5, Type 0, BuildingBlock: KOZSID_clean_sbu_0, # of connection points: 4
#     Edge 6, Type (0, 0), BuildingBlock: CIFDUS_clean_linker_0, # of connection points: 2
#     Edge 7, Type (0, 0), BuildingBlock: CIFDUS_clean_linker_0, # of connection points: 2
#     Edge 8, Type (0, 0), BuildingBlock: CIFDUS_clean_linker_0, # of connection points: 2
#     Edge 9, Type (0, 0), BuildingBlock: CIFDUS_clean_linker_0, # of connection points: 2
#     Edge 10, Type (0, 0), BuildingBlock: CIFDUS_clean_linker_0, # of connection points: 2
#     Edge 11, Type (0, 0), BuildingBlock: CIFDUS_clean_linker_0, # of connection points: 2
#     Edge 12, Type (0, 0), BuildingBlock: CIFDUS_clean_linker_0, # of connection points: 2
#     Edge 13, Type (0, 0), BuildingBlock: CIFDUS_clean_linker_0, # of connection points: 2
#     Edge 14, Type (0, 0), BuildingBlock: CIFDUS_clean_linker_0, # of connection points: 2
#     Edge 15, Type (0, 0), BuildingBlock: CIFDUS_clean_linker_0, # of connection points: 2
#     Edge 16, Type (0, 0), BuildingBlock: CIFDUS_clean_linker_0, # of connection points: 2
#     Edge 17, Type (0, 0), BuildingBlock: CIFDUS_clean_linker_0, # of connection points: 2
# Relax obj value: 0.000
# Max RMSD: 0.051
# Mean RMSD: 0.049
data_MOF--net-qdl--node1-KOZSID_clean_sbu_0--edge1-CIFDUS_clean_linker_0
_symmetry_space_group_name_H-M    P1
_symmetry_Int_Tables_number       1
_symmetry_cell_setting            triclinic
loop_
_symmetry_equiv_pos_as_xyz
'x, y, z'
_cell_length_a     14.820402
_cell_length_b     14.821859
_cell_length_c     105.60903
_cell_angle_alpha  101.75197
_cell_angle_beta   101.74662
_cell_angle_gamma 120.09538
loop_
_atom_site_label
_atom_site_type_symbol
_atom_site_fract_x
_atom_site_fract_y
_atom_site_fract_z
_atom_type_partial_charge
C0 C 0.19232 0.48365 0.08953 0.0
C1 C 0.08771 0.46581 0.08556 0.0
C2 C 1.01084 0.35294 0.0805 0.0
C3 C 0.07252 0.30844 0.08159 0.0
N4 N 0.18434 0.38604 0.08722 0.0
Co5 Co 0.30467 0.3577 0.08986 0.0
N6 N 0.19125 0.19143 0.08221 0.0
C7 C 0.07859 0.13647 0.07769 0.0
C8 C 1.02265 1.02255 0.07349 0.0
C9 C 0.10437 1.00337 0.07563 0.0
C10 C 0.20585 0.10728 0.08107 0.0
N11 N 0.4249 0.32937 0.09211 0.0
C12 C 0.4172 0.23186 0.08965 0.0
C13 C 0.52187 0.24978 0.09274 0.0
C14 C 0.59838 0.36253 0.09736 0.0
C15 C 0.53651 0.40693 0.09686 0.0
N16 N 0.41807 0.52387 0.09795 0.0
C17 C 0.53062 0.57872 0.1031 0.0
C18 C 0.58674 0.69282 0.10803 0.0
C19 C 0.50521 0.71227 0.10583 0.0
C20 C 0.40376 0.60835 0.09957 0.0
N21 N 0.30623 0.35713 0.10877 0.0
C22 C 0.30497 0.33769 0.13483 0.0
C23 C 0.4055 0.39631 0.13261 0.0
C24 C 0.40423 0.40481 0.1196 0.0
C25 C 0.20564 0.29274 0.12392 0.0
C26 C 0.20818 0.3039 0.11116 0.0
N27 N 0.30282 0.35744 0.0709 0.0
C28 C 0.3979 0.42788 0.05546 0.0
C29 C 0.29887 0.35444 0.04393 0.0
C30 C 0.20188 0.28362 0.04615 0.0
C31 C 0.20544 0.28719 0.05957 0.0
C32 C 0.39826 0.42727 0.06873 0.0
H33 H 0.12799 0.23216 0.06048 0.0
H34 H 0.47688 0.48372 0.07705 0.0
H35 H 0.48342 0.44862 0.11848 0.0
H36 H 0.12937 0.26724 0.10332 0.0
C37 C 1.02789 0.19434 0.07747 0.0
C38 C 0.29657 0.59451 0.09494 0.0
C39 C 0.31358 0.12149 0.08515 0.0
C40 C 0.58107 0.52085 0.10205 0.0
H41 H 0.06883 0.52786 0.08608 0.0
H42 H 0.92071 0.30854 0.07636 0.0
H43 H 0.93315 0.96087 0.06944 0.0
H44 H 0.09086 0.9221 0.07352 0.0
H45 H 0.54133 0.18811 0.09209 0.0
H46 H 0.68855 0.40704 0.10111 0.0
H47 H 0.67628 0.75448 0.11235 0.0
H48 H 0.51886 0.79372 0.10828 0.0
H49 H 0.48477 0.4327 0.14074 0.0
H50 H 0.12569 0.2487 0.12521 0.0
H51 H 0.47533 0.48396 0.05422 0.0
H52 H 0.12283 0.22627 0.03754 0.0
C53 C 0.46897 0.3148 0.42694 0.0
C54 C 0.57035 0.41875 0.43325 0.0
C55 C 0.54566 0.49621 0.43577 0.0
C56 C 0.43121 0.43553 0.43081 0.0
N57 N 0.38098 0.32372 0.42542 0.0
Co58 Co 0.21618 0.20532 0.41626 0.0
N59 N 0.18015 0.31976 0.41981 0.0
C60 C 0.25362 0.43179 0.4263 0.0
C61 C 0.20407 0.48846 0.42759 0.0
C62 C 0.09204 0.40775 0.42178 0.0
C63 C 0.07985 0.30609 0.41728 0.0
N64 N 0.05161 0.08724 0.40676 0.0
C65 C 0.96349 0.09596 0.40517 0.0
C66 C 0.86243 0.99253 0.39803 0.0
C67 C 0.88754 0.91577 0.39503 0.0
C68 C 1.0019 0.97622 0.4005 0.0
N69 N 0.25196 0.09057 0.41313 0.0
C70 C 0.17826 0.97825 0.40715 0.0
C71 C 0.22755 0.92097 0.40656 0.0
C72 C 0.33964 1.0015 0.41241 0.0
C73 C 0.3521 0.10363 0.41616 0.0
N74 N 0.20636 0.19089 0.43436 0.0
C75 C 0.17962 0.17178 0.4597 0.0
C76 C 0.12684 0.07701 0.4477 0.0
C77 C 0.14108 0.08834 0.43528 0.0
C78 C 0.24844 0.27614 0.4588 0.0
C79 C 0.261 0.28364 0.4462 0.0
N80 N 0.22546 0.21985 0.3981 0.0
C81 C 0.19545 0.13777 0.374 0.0
C82 C 0.23623 0.24058 0.37233 0.0
C83 C 0.27267 0.33297 0.38378 0.0
C84 C 0.26788 0.32118 0.39648 0.0
C85 C 0.18969 0.12905 0.38682 0.0
H86 H 0.29912 0.39553 0.40481 0.0
H87 H 0.15541 0.04775 0.3873 0.0
H88 H 0.09742 1.01289 0.42652 0.0
H89 H 0.31403 0.36566 0.44624 0.0
C90 C 0.36872 0.48115 0.43104 0.0
C91 C 0.46069 0.21055 0.4221 0.0
C92 C 0.97129 0.19898 0.41087 0.0
C93 C 0.06388 0.9299 0.40119 0.0
H94 H 0.6536 0.43695 0.43563 0.0
H95 H 0.60418 0.58616 0.44049 0.0
H96 H 0.24457 0.57771 0.43231 0.0
H97 H 1.02662 0.42199 0.42102 0.0
H98 H 0.77897 0.97384 0.39556 0.0
H99 H 0.8292 0.82604 0.38992 0.0
H100 H 0.18691 0.83154 0.40206 0.0
H101 H 0.40496 0.98691 0.41353 0.0
H102 H 0.07452 0.9939 0.44784 0.0
H103 H 0.29064 0.35252 0.4677 0.0
H104 H 0.16571 0.06373 0.36537 0.0
H105 H 0.30611 0.41464 0.38299 0.0
C106 C 0.30741 0.51692 0.75616 0.0
C107 C 0.30858 0.61291 0.75794 0.0
C108 C 0.20306 0.58252 0.75688 0.0
C109 C 0.14375 0.47018 0.75449 0.0
N110 N 0.20578 0.42752 0.75431 0.0
Co111 Co 0.15201 0.26685 0.74999 0.0
N112 N 0.9936 0.21916 0.74639 0.0
C113 C 0.95478 0.28472 0.74686 0.0
C114 C 0.84285 0.22851 0.7447 0.0
C115 C 0.80879 0.12125 0.74314 0.0
C116 C 0.90242 0.11865 0.74446 0.0
N117 N 0.09818 0.10611 0.74561 0.0
C118 C 0.99647 1.0166 0.74372 0.0
C119 C 0.99508 0.92043 0.74181 0.0
C120 C 0.10052 0.9508 0.74281 0.0
C121 C 0.16004 0.06331 0.7453 0.0
N122 N 0.31051 0.31459 0.75366 0.0
C123 C 0.34945 0.24913 0.75329 0.0
C124 C 0.46151 0.30549 0.75552 0.0
C125 C 0.49556 0.4127 0.75705 0.0
C126 C 0.40178 0.41515 0.75563 0.0
N127 N 0.17334 0.28503 0.76983 0.0
C128 C 0.18416 0.29048 0.79709 0.0
C129 C 0.22904 0.24368 0.78989 0.0
C130 C 0.22278 0.24182 0.77644 0.0
C131 C 0.13727 0.33818 0.79054 0.0
C132 C 0.13328 0.33506 0.77707 0.0
N133 N 0.13075 0.24862 0.73015 0.0
C134 C 0.17092 0.19896 0.7097 0.0
C135 C 0.12009 0.24238 0.70285 0.0
C136 C 0.07151 0.2857 0.70983 0.0
C137 C 0.07804 0.28828 0.72333 0.0
C138 C 0.17432 0.20195 0.72312 0.0
H139 H 0.0412 0.32436 0.72809 0.0
H140 H 0.21484 0.168 0.7277 0.0
H141 H 0.257 0.20323 0.77153 0.0
H142 H 0.0953 0.37168 0.77263 0.0
C143 C 1.02783 0.40056 0.75081 0.0
C144 C 0.40107 0.51185 0.75496 0.0
C145 C 0.90304 1.02173 0.74502 0.0
C146 C 0.27618 0.13306 0.74915 0.0
H147 H 0.37718 0.69524 0.75927 0.0
H148 H 0.17185 0.63481 0.75708 0.0
H149 H 0.79328 0.26265 0.74495 0.0
H150 H 0.72574 0.0536 0.74177 0.0
H151 H 0.92643 0.838 0.74044 0.0
H152 H 0.13162 0.8984 0.74255 0.0
H153 H 0.51114 0.27139 0.7553 0.0
H154 H 0.57866 0.48037 0.75844 0.0
H155 H 0.26888 0.20802 0.79457 0.0
H156 H 0.10083 0.3752 0.79559 0.0
H157 H 0.21088 0.16523 0.70491 0.0
H158 H 1.02857 0.31801 0.70496 0.0
C159 C 1.00581 0.29284 0.58071 0.0
C160 C 1.01814 0.39489 0.58448 0.0
C161 C 0.13022 0.47563 0.58992 0.0
C162 C 0.17968 0.41857 0.58914 0.0
N163 N 0.10604 0.30614 0.58334 0.0
Co164 Co 0.14183 0.19132 0.58065 0.0
N165 N 0.30693 0.31017 0.58933 0.0
C166 C 0.35732 0.42219 0.59435 0.0
C167 C 0.47172 0.4828 0.59911 0.0
C168 C 0.49622 0.40506 0.59687 0.0
C169 C 0.39477 0.30103 0.59088 0.0
N170 N 0.17752 0.07644 0.57817 0.0
C171 C 0.27769 0.08958 0.58094 0.0
C172 C 0.26533 0.98746 0.57761 0.0
C173 C 0.15324 0.90678 0.57233 0.0
C174 C 0.10382 0.96397 0.57278 0.0
N175 N 0.97681 0.07256 0.57176 0.0
C176 C 0.92659 0.96071 0.56639 0.0
C177 C 0.81216 0.9001 0.5613 0.0
C178 C 0.78748 0.97764 0.56364 0.0
C179 C 0.88885 0.08161 0.57004 0.0
N180 N 0.1481 0.19739 0.56214 0.0
C181 C 0.17276 0.20747 0.53648 0.0
C182 C 0.11269 0.10489 0.53818 0.0
C183 C 0.10156 0.10179 0.55097 0.0
C184 C 0.21712 0.30461 0.54774 0.0
C185 C 0.20343 0.29771 0.56031 0.0
N186 N 0.13608 0.18532 0.59919 0.0
C187 C 0.06624 0.07954 0.6137 0.0
C188 C 0.12655 0.1771 0.62551 0.0
C189 C 0.19154 0.27891 0.62382 0.0
C190 C 0.19459 0.2811 0.61072 0.0
C191 C 0.0726 0.08545 0.60082 0.0
H192 H 0.24514 0.36149 0.6102 0.0
H193 H 1.0249 1.00791 0.59233 0.0
H194 H 0.05652 1.02109 0.55163 0.0
H195 H 0.23963 0.37492 0.56844 0.0
C196 C 0.2948 0.46801 0.59405 0.0
C197 C 0.89719 0.18581 0.57496 0.0
C198 C 0.38615 0.19642 0.5863 0.0
C199 C 0.98891 0.91473 0.56731 0.0
H200 H 0.95279 0.40936 0.58354 0.0
H201 H 0.17084 0.56521 0.59413 0.0
H202 H 0.53029 0.57284 0.60344 0.0
H203 H 0.57938 0.42312 0.59914 0.0
H204 H 0.33066 0.9729 0.57867 0.0
H205 H 0.11256 0.81714 0.5683 0.0
H206 H 0.75364 0.81007 0.55683 0.0
H207 H 0.70418 0.95935 0.56124 0.0
H208 H 0.07693 1.02716 0.52979 0.0
H209 H 0.26241 0.3861 0.54689 0.0
H210 H 1.01294 0.99839 0.61429 0.0
H211 H 0.24144 0.3571 0.63259 0.0
C212 C 1.00608 0.23644 0.91803 0.0
C213 C 0.91284 0.23853 0.91749 0.0
C214 C 0.94561 0.34585 0.91938 0.0
C215 C 0.05654 0.40286 0.92101 0.0
N216 N 0.09596 0.33783 0.9199 0.0
Co217 Co 0.25429 0.38741 0.92289 0.0
N218 N 0.30543 0.54733 0.92718 0.0
C219 C 0.2424 0.58876 0.92751 0.0
C220 C 0.30004 0.70098 0.92983 0.0
C221 C 0.40546 0.73251 0.93065 0.0
C222 C 0.40561 0.6372 0.92877 0.0
N223 N 0.41297 0.43725 0.92619 0.0
C224 C 0.50325 0.53865 0.92817 0.0
C225 C 0.59765 0.53745 0.92944 0.0
C226 C 0.56518 0.43067 0.92793 0.0
C227 C 0.45332 0.37304 0.92582 0.0
N228 N 0.20274 0.22721 0.91823 0.0
C229 C 0.2651 0.18544 0.91739 0.0
C230 C 0.2064 0.07227 0.91444 0.0
C231 C 0.1009 0.04032 0.91365 0.0
C232 C 0.1018 0.1364 0.91622 0.0
N233 N 0.22881 0.36935 0.90299 0.0
C234 C 0.21092 0.36335 0.8756 0.0
C235 C 0.26545 0.32184 0.88215 0.0
C236 C 0.27328 0.32554 0.8957 0.0
C237 C 0.1626 0.40479 0.88288 0.0
C238 C 0.17191 0.40644 0.8964 0.0
N239 N 0.28014 0.40581 0.94281 0.0
C240 C 0.33278 0.35939 0.96254 0.0
C241 C 0.3056 0.42212 0.97064 0.0
C242 C 0.2668 0.47768 0.96463 0.0
C243 C 0.25407 0.46787 0.95081 0.0
C244 C 0.32065 0.35335 0.94883 0.0
H245 H 0.22162 0.5102 0.94681 0.0
H246 H 0.34386 0.30496 0.9433 0.0
H247 H 0.31776 0.29451 0.90016 0.0
H248 H 0.1338 0.43973 0.90137 0.0
C249 C 0.1276 0.51846 0.92458 0.0
C250 C 1.0083 0.13924 0.91793 0.0
C251 C 0.50001 0.63415 0.9275 0.0
C252 C 0.38118 0.25668 0.92136 0.0
H253 H 0.83081 0.17057 0.91635 0.0
H254 H 0.89576 0.37932 0.92008 0.0
H255 H 0.26802 0.75261 0.93028 0.0
H256 H 0.47354 0.8152 0.93198 0.0
H257 H 0.68012 0.60524 0.93068 0.0
H258 H 0.61554 0.39753 0.92755 0.0
H259 H 0.23809 1.02034 0.91374 0.0
H260 H 0.03233 0.9569 0.912 0.0
H261 H 0.30493 0.28941 0.87701 0.0
H262 H 0.11755 0.43597 0.87819 0.0
H263 H 0.36443 0.31588 0.9668 0.0
H264 H 0.24379 0.52662 0.97046 0.0
C265 C 0.23363 0.05511 0.24647 0.0
C266 C 0.1319 0.95152 0.24039 0.0
C267 C 0.05114 0.97164 0.23746 0.0
C268 C 0.108 0.08581 0.24194 0.0
N269 N 0.22043 0.13987 0.24726 0.0
Co270 Co 0.33492 0.30541 0.25612 0.0
N271 N 0.21585 0.33516 0.25302 0.0
C272 C 0.10388 0.25899 0.24705 0.0
C273 C 0.04418 0.30546 0.24563 0.0
C274 C 0.12287 0.41806 0.25066 0.0
C275 C 0.22614 0.43336 0.25486 0.0
N276 N 0.44927 0.47075 0.26528 0.0
C277 C 0.43638 0.55573 0.26616 0.0
C278 C 0.53775 0.65917 0.27293 0.0
C279 C 0.61795 0.63868 0.27624 0.0
C280 C 0.5612 0.52444 0.27131 0.0
N281 N 0.45421 0.27592 0.25889 0.0
C282 C 0.56626 0.35234 0.26442 0.0
C283 C 0.62635 0.30596 0.26526 0.0
C284 C 0.54796 0.19326 0.26022 0.0
C285 C 0.44444 0.17776 0.25664 0.0
N286 N 0.34358 0.31506 0.23781 0.0
C287 C 0.35538 0.34069 0.21221 0.0
C288 C 0.45207 0.39524 0.22399 0.0
C289 C 0.44435 0.38162 0.23654 0.0
C290 C 0.25272 0.27112 0.21346 0.0
C291 C 0.24883 0.25923 0.2262 0.0
N292 N 0.32632 0.29585 0.27448 0.0
C293 C 0.41567 0.32262 0.29814 0.0
C294 C 0.31331 0.27134 0.30004 0.0
C295 C 0.21776 0.23417 0.28902 0.0
C296 C 0.22588 0.24614 0.2764 0.0
C297 C 0.42045 0.33521 0.28547 0.0
H298 H 0.14941 0.21311 0.26832 0.0
H299 H 0.50136 0.37631 0.28481 0.0
H300 H 0.52117 0.42687 0.24511 0.0
H301 H 0.16796 0.20571 0.22645 0.0
C302 C 0.05811 0.14456 0.24211 0.0
C303 C 0.33971 0.06941 0.25234 0.0
C304 C 0.3316 0.54185 0.2596 0.0
C305 C 0.61157 0.46622 0.27036 0.0
H306 H 0.11739 0.87008 0.23867 0.0
H307 H 0.96151 0.91049 0.23307 0.0
H308 H 0.95446 0.2625 0.24101 0.0
H309 H 0.10658 0.4817 0.25082 0.0
H310 H 0.55277 0.74089 0.27476 0.0
H311 H 0.70752 0.69979 0.28095 0.0
H312 H 0.7162 0.34902 0.26968 0.0
H313 H 0.56472 0.12971 0.25976 0.0
H314 H 0.53402 0.44837 0.22359 0.0
H315 H 0.17497 0.22766 0.20474 0.0
H316 H 0.49217 0.35393 0.30647 0.0
H317 H 0.13648 0.19337 0.29001 0.0
H318 H 0.26801 1.01239 0.10298 0.0
H319 H 0.36618 1.01238 0.06732 0.0
H320 H 0.3702 0.84868 0.0672 0.0
H321 H 0.3444 0.70495 0.07729 0.0
H322 H 0.24433 0.70369 0.1128 0.0
H323 H 0.24176 0.86837 0.11303 0.0
C324 C 0.29032 0.97607 0.09524 0.0
C325 C 0.3174 1.02352 0.08522 0.0
C326 C 0.29167 0.88205 0.09522 0.0
C327 C 0.34579 0.97668 0.07514 0.0
C328 C 0.34786 0.88339 0.07508 0.0
C329 C 0.32205 0.74125 0.08503 0.0
C330 C 0.29416 0.69333 0.09499 0.0
C331 C 0.3208 0.83533 0.08506 0.0
C332 C 0.26551 0.73995 0.10504 0.0
C333 C 0.26421 0.83373 0.10517 0.0
H334 H 0.52326 0.17488 0.40037 0.0
H335 H 0.62295 0.25085 0.44447 0.0
H336 H 0.79019 0.25272 0.4449 0.0
H337 H 0.90762 0.23259 0.43259 0.0
H338 H 0.80879 0.15855 0.38852 0.0
H339 H 0.64096 0.15535 0.38807 0.0
C340 C 0.58213 0.1919 0.41003 0.0
C341 C 0.56238 0.21316 0.42238 0.0
C342 C 0.6774 0.19272 0.41015 0.0
C343 C 0.63788 0.23486 0.43489 0.0
C344 C 0.73292 0.23573 0.43512 0.0
C345 C 0.84877 0.21561 0.42293 0.0
C346 C 0.8689 0.19505 0.41059 0.0
C347 C 0.75348 0.21475 0.42281 0.0
C348 C 0.79351 0.17372 0.39809 0.0
C349 C 0.69815 0.17216 0.39785 0.0
H350 H 0.72721 0.81112 0.72853 0.0
H351 H 0.88873 0.04674 0.77046 0.0
H352 H 0.74712 0.91009 0.77741 0.0
H353 H 0.57699 0.72236 0.77146 0.0
H354 H 0.41549 0.4867 0.72953 0.0
H355 H 0.55711 0.62335 0.72257 0.0
C356 C 0.73092 0.8316 0.73917 0.0
C357 C 0.81754 0.93748 0.74903 0.0
C358 C 0.64944 0.75273 0.74304 0.0
C359 C 0.82227 0.9649 0.76278 0.0
C360 C 0.74162 0.88705 0.76673 0.0
C361 C 0.57334 0.70184 0.76082 0.0
C362 C 0.48675 0.59595 0.75096 0.0
C363 C 0.65483 0.7807 0.75695 0.0
C364 C 0.48199 0.56853 0.73721 0.0
C365 C 0.56263 0.64638 0.73326 0.0
H366 H 0.44634 0.15659 0.56445 0.0
H367 H 0.55068 0.24061 0.60869 0.0
H368 H 0.71909 0.2449 0.60914 0.0
H369 H 0.83638 0.22466 0.5968 0.0
H370 H 0.73243 0.14139 0.55256 0.0
H371 H 0.56375 0.13653 0.55211 0.0
C372 C 0.50637 0.17569 0.57414 0.0
C373 C 0.48759 0.19857 0.58653 0.0
C374 C 0.60244 0.178 0.57427 0.0
C375 C 0.56472 0.22315 0.59908 0.0
C376 C 0.66052 0.22554 0.59931 0.0
C377 C 0.77635 0.20554 0.58711 0.0
C378 C 0.79534 0.18296 0.57472 0.0
C379 C 0.68027 0.20319 0.58697 0.0
C380 C 0.71823 0.1585 0.56217 0.0
C381 C 0.62228 0.15582 0.56193 0.0
H382 H 0.71357 0.80377 0.94371 0.0
H383 H 0.47086 0.65614 0.90248 0.0
H384 H 0.60673 0.79989 0.89569 0.0
H385 H 0.7955 0.96837 0.90163 0.0
H386 H 0.0383 0.11563 0.94284 0.0
H387 H 0.90268 0.97136 0.9496 0.0
C388 C 0.69141 0.80348 0.93325 0.0
C389 C 0.58378 0.7203 0.92354 0.0
C390 C 0.76983 0.88604 0.92948 0.0
C391 C 0.55412 0.71997 0.91004 0.0
C392 C 0.6315 0.80181 0.90618 0.0
C393 C 0.81782 0.96822 0.91206 0.0
C394 C 0.92532 0.05156 0.92179 0.0
C395 C 0.73956 0.8853 0.91582 0.0
C396 C 0.95515 0.05159 0.93527 0.0
C397 C 0.87791 0.96948 0.93911 0.0
H398 H 0.36062 0.72382 0.2769 0.0
H399 H 0.3027 0.56218 0.2345 0.0
H400 H 0.29946 0.7116 0.2283 0.0
H401 H 0.31283 0.88861 0.23509 0.0
H402 H 0.37109 0.05038 0.2775 0.0
H403 H 0.37516 0.90138 0.28372 0.0
C404 C 0.34789 0.72238 0.26635 0.0
C405 C 0.33262 0.63391 0.25614 0.0
C406 C 0.34611 0.80819 0.26293 0.0
C407 C 0.31508 0.63073 0.24245 0.0
C408 C 0.31316 0.71571 0.23894 0.0
C409 C 0.32615 0.89032 0.24565 0.0
C410 C 0.3411 0.97859 0.25586 0.0
C411 C 0.32844 0.80476 0.24909 0.0
C412 C 0.35909 0.98202 0.26955 0.0
C413 C 0.36142 0.89725 0.27308 0.0
H414 H 0.22737 0.18683 0.18576 0.0
H415 H 0.49758 0.53375 0.20846 0.0
H416 H 0.50894 0.56243 0.18676 0.0
H417 H 0.43926 0.49057 0.16118 0.0
H418 H 0.16502 0.14546 0.13857 0.0
H419 H 0.15676 0.11564 0.16031 0.0
C420 C 0.28808 0.26913 0.186 0.0
C421 C 0.36167 0.35768 0.19884 0.0
C422 C 0.29314 0.28577 0.17344 0.0
C423 C 0.44097 0.4632 0.19883 0.0
C424 C 0.44708 0.48008 0.18638 0.0
C425 C 0.37825 0.40868 0.16103 0.0
C426 C 0.30259 0.32059 0.14823 0.0
C427 C 0.37351 0.39207 0.17361 0.0
C428 C 0.22328 0.21523 0.14824 0.0
C429 C 0.21881 0.19788 0.16068 0.0
H430 H 1.02287 0.07613 0.50993 0.0
H431 H 0.36592 0.35293 0.53328 0.0
H432 H 0.39864 0.36551 0.51177 0.0
H433 H 0.33076 0.29755 0.48634 0.0
H434 H 0.98604 1.02424 0.46292 0.0
H435 H 0.95444 1.00892 0.48439 0.0
C436 C 0.105 0.1387 0.51031 0.0
C437 C 0.19159 0.21373 0.52324 0.0
C438 C 0.12339 0.14568 0.49787 0.0
C439 C 0.29719 0.29511 0.52351 0.0
C440 C 0.31624 0.30198 0.5112 0.0
C441 C 0.2483 0.23525 0.48588 0.0
C442 C 0.16121 0.16207 0.47292 0.0
C443 C 0.22991 0.22797 0.49831 0.0
C444 C 0.05551 0.08064 0.47266 0.0
C445 C 0.03693 0.07231 0.48497 0.0
H446 H 0.21837 0.45158 0.81943 0.0
H447 H 0.14901 0.12052 0.80643 0.0
H448 H 0.15223 0.11429 0.82939 0.0
H449 H 0.17335 0.20166 0.85319 0.0
H450 H 0.23975 0.53127 0.86616 0.0
H451 H 0.23597 0.53763 0.84314 0.0
C452 C 0.20283 0.37753 0.82155 0.0
C453 C 0.1844 0.2871 0.81115 0.0
C454 C 0.2035 0.37377 0.83479 0.0
C455 C 0.16574 0.19248 0.81424 0.0
C456 C 0.16669 0.18836 0.82737 0.0
C457 C 0.1877 0.27522 0.85102 0.0
C458 C 0.20669 0.36575 0.86144 0.0
C459 C 0.18584 0.27859 0.83774 0.0
C460 C 0.22346 0.45968 0.85832 0.0
C461 C 0.22203 0.46374 0.84516 0.0
H462 H 0.38213 0.52819 0.03465 0.0
H463 H 0.20783 0.1697 0.02112 0.0
H464 H 0.19717 0.15902 0.9974 0.0
H465 H 0.23397 0.25107 0.98034 0.0
H466 H 0.40126 0.60867 0.99358 0.0
H467 H 0.41785 0.62038 0.01748 0.0
C468 C 0.34267 0.44798 0.02651 0.0
C469 C 0.29603 0.3499 0.02964 0.0
C470 C 0.33514 0.44228 0.01281 0.0
C471 C 0.24373 0.24629 0.01895 0.0
C472 C 0.23782 0.24016 1.00539 0.0
C473 C 0.27487 0.33161 0.98849 0.0
C474 C 0.3167 0.42889 0.98519 0.0
C475 C 0.28273 0.33749 1.00218 0.0
C476 C 0.36779 0.53248 0.99583 0.0
C477 C 0.37764 0.53926 1.00951 0.0
H478 H 0.213 0.32801 0.31587 0.0
H479 H 0.39895 0.1798 0.31406 0.0
H480 H 0.38854 0.15338 0.33599 0.0
H481 H 0.32796 0.17436 0.3559 0.0
H482 H 0.15156 0.33256 0.35833 0.0
H483 H 0.15643 0.35303 0.33602 0.0
C484 C 0.25069 0.28949 0.32028 0.0
C485 C 0.30637 0.25561 0.31335 0.0
C486 C 0.24616 0.27652 0.33302 0.0
C487 C 0.35619 0.20711 0.31924 0.0
C488 C 0.34996 0.1917 0.33176 0.0
C489 C 0.2902 0.21275 0.35148 0.0
C490 C 0.23912 0.25156 0.35871 0.0
C491 C 0.29537 0.2263 0.33876 0.0
C492 C 0.19176 0.30253 0.35298 0.0
C493 C 0.19432 0.31401 0.34021 0.0
H494 H 0.13184 0.3259 0.64646 0.0
H495 H 0.11252 1.0178 0.6361 0.0
H496 H 0.10392 1.00845 0.65862 0.0
H497 H 0.10326 0.08775 0.68137 0.0
H498 H 0.13808 0.40367 0.69244 0.0
H499 H 0.13896 0.40916 0.66957 0.0
C500 C 0.12717 0.25726 0.64914 0.0
C501 C 0.12238 0.1725 0.63943 0.0
C502 C 0.12451 0.25331 0.66228 0.0
C503 C 0.11419 0.08335 0.64314 0.0
C504 C 0.11015 0.07825 0.65611 0.0
C505 C 0.11238 0.15866 0.6789 0.0
C506 C 0.11997 0.2448 0.68874 0.0
C507 C 0.11544 0.16283 0.66578 0.0
C508 C 0.12967 0.33473 0.68509 0.0
C509 C 0.13124 0.3386 0.67201 0.0
loop_
_geom_bond_atom_site_label_1
_geom_bond_atom_site_label_2
_geom_bond_distance
_geom_bond_site_symmetry_2
_ccdc_geom_bond_type
C0 C1 1.443 . S
C0 N4 1.376 . S
C0 C38 1.389 . S
C1 C0 1.443 . S
C1 C2 1.340 . S
C1 H41 0.951 . S
C2 C1 1.340 . S
C2 C3 1.439 . S
C2 H42 0.950 . S
C3 C2 1.439 . S
C3 N4 1.374 . S
C3 C37 1.395 . S
N4 C0 1.376 . S
N4 C3 1.374 . S
N4 Co5 2.008 . S
Co5 N4 2.008 . S
Co5 N6 1.995 . S
Co5 N11 2.008 . S
Co5 N16 1.995 . S
Co5 N21 2.282 . S
Co5 N27 2.282 . S
N6 Co5 1.995 . S
N6 C7 1.376 . S
N6 C10 1.383 . S
C7 N6 1.376 . S
C7 C8 1.446 . S
C7 C37 1.391 . S
C8 C7 1.446 . S
C8 C9 1.339 . S
C8 H43 0.949 . S
C9 C8 1.339 . S
C9 C10 1.439 . S
C9 H44 0.950 . S
C10 N6 1.383 . S
C10 C9 1.439 . S
C10 C39 1.392 . S
N11 Co5 2.008 . S
N11 C12 1.376 . S
N11 C15 1.374 . S
C12 N11 1.376 . S
C12 C13 1.443 . S
C12 C39 1.389 . S
C13 C12 1.443 . S
C13 C14 1.340 . S
C13 H45 0.951 . S
C14 C13 1.340 . S
C14 C15 1.439 . S
C14 H46 0.950 . S
C15 N11 1.374 . S
C15 C14 1.439 . S
C15 C40 1.395 . S
N16 Co5 1.995 . S
N16 C17 1.376 . S
N16 C20 1.383 . S
C17 N16 1.376 . S
C17 C18 1.446 . S
C17 C40 1.391 . S
C18 C17 1.446 . S
C18 C19 1.339 . S
C18 H47 0.949 . S
C19 C18 1.339 . S
C19 C20 1.439 . S
C19 H48 0.950 . S
C20 N16 1.383 . S
C20 C19 1.439 . S
C20 C38 1.392 . S
N21 Co5 2.282 . S
N21 C24 1.332 . S
N21 C26 1.332 . S
C22 C23 1.386 . S
C22 C25 1.388 . S
C23 C22 1.386 . S
C23 C24 1.382 . S
C23 H49 0.950 . S
C24 N21 1.332 . S
C24 C23 1.382 . S
C24 H35 0.952 . S
C25 C22 1.388 . S
C25 C26 1.382 . S
C25 H50 0.950 . S
C26 N21 1.332 . S
C26 C25 1.382 . S
C26 H36 0.948 . S
N27 Co5 2.282 . S
N27 C31 1.332 . S
N27 C32 1.332 . S
C28 C29 1.388 . S
C28 C32 1.382 . S
C28 H51 0.950 . S
C29 C28 1.388 . S
C29 C30 1.386 . S
C30 C29 1.386 . S
C30 C31 1.382 . S
C30 H52 0.950 . S
C31 N27 1.332 . S
C31 C30 1.382 . S
C31 H33 0.952 . S
C32 N27 1.332 . S
C32 C28 1.382 . S
C32 H34 0.948 . S
H33 C31 0.952 . S
H34 C32 0.948 . S
H35 C24 0.952 . S
H36 C26 0.948 . S
C37 C3 1.395 . S
C37 C7 1.391 . S
C38 C0 1.389 . S
C38 C20 1.392 . S
C39 C10 1.392 . S
C39 C12 1.389 . S
C40 C15 1.395 . S
C40 C17 1.391 . S
H41 C1 0.951 . S
H42 C2 0.950 . S
H43 C8 0.949 . S
H44 C9 0.950 . S
H45 C13 0.951 . S
H46 C14 0.950 . S
H47 C18 0.949 . S
H48 C19 0.950 . S
H49 C23 0.950 . S
H50 C25 0.950 . S
H51 C28 0.950 . S
H52 C30 0.950 . S
C53 C54 1.443 . S
C53 N57 1.376 . S
C53 C91 1.389 . S
C54 C53 1.443 . S
C54 C55 1.340 . S
C54 H94 0.951 . S
C55 C54 1.340 . S
C55 C56 1.439 . S
C55 H95 0.950 . S
C56 C55 1.439 . S
C56 N57 1.374 . S
C56 C90 1.395 . S
N57 C53 1.376 . S
N57 C56 1.374 . S
N57 Co58 2.008 . S
Co58 N57 2.008 . S
Co58 N59 1.995 . S
Co58 N64 2.008 1_445 S
Co58 N69 1.995 1_545 S
Co58 N74 2.282 . S
Co58 N80 2.282 . S
N59 Co58 1.995 . S
N59 C60 1.376 . S
N59 C63 1.383 . S
C60 N59 1.376 . S
C60 C61 1.446 . S
C60 C90 1.391 . S
C61 C60 1.446 . S
C61 C62 1.339 . S
C61 H96 0.949 . S
C62 C61 1.339 . S
C62 C63 1.439 . S
C62 H97 0.950 1_455 S
C63 N59 1.383 . S
C63 C62 1.439 . S
C63 C92 1.392 1_455 S
N64 Co58 2.008 1_665 S
N64 C65 1.376 . S
N64 C68 1.374 . S
C65 N64 1.376 . S
C65 C66 1.443 . S
C65 C92 1.389 1_565 S
C66 C65 1.443 . S
C66 C67 1.340 . S
C66 H98 0.951 . S
C67 C66 1.340 . S
C67 C68 1.439 . S
C67 H99 0.950 . S
C68 N64 1.374 . S
C68 C67 1.439 . S
C68 C93 1.395 . S
N69 Co58 1.995 1_565 S
N69 C70 1.376 . S
N69 C73 1.383 . S
C70 N69 1.376 . S
C70 C71 1.446 . S
C70 C93 1.391 1_455 S
C71 C70 1.446 . S
C71 C72 1.339 . S
C71 H100 0.949 . S
C72 C71 1.339 . S
C72 C73 1.439 . S
C72 H101 0.950 . S
C73 N69 1.383 . S
C73 C72 1.439 . S
C73 C91 1.392 1_565 S
N74 Co58 2.282 . S
N74 C77 1.332 1_545 S
N74 C79 1.332 . S
C75 C76 1.386 . S
C75 C78 1.388 1_565 S
C76 C75 1.386 . S
C76 C77 1.382 . S
C76 H102 0.950 . S
C77 N74 1.332 1_565 S
C77 C76 1.382 . S
C77 H88 0.952 . S
C78 C75 1.388 1_545 S
C78 C79 1.382 . S
C78 H103 0.950 . S
C79 N74 1.332 . S
C79 C78 1.382 . S
C79 H89 0.948 . S
N80 Co58 2.282 . S
N80 C84 1.332 . S
N80 C85 1.332 1_545 S
C81 C82 1.388 1_565 S
C81 C85 1.382 . S
C81 H104 0.950 . S
C82 C81 1.388 1_545 S
C82 C83 1.386 . S
C83 C82 1.386 . S
C83 C84 1.382 . S
C83 H105 0.950 . S
C84 N80 1.332 . S
C84 C83 1.382 . S
C84 H86 0.952 . S
C85 N80 1.332 1_565 S
C85 C81 1.382 . S
C85 H87 0.948 . S
H86 C84 0.952 . S
H87 C85 0.948 . S
H88 C77 0.952 . S
H89 C79 0.948 . S
C90 C56 1.395 . S
C90 C60 1.391 . S
C91 C53 1.389 . S
C91 C73 1.392 1_545 S
C92 C63 1.392 1_655 S
C92 C65 1.389 1_545 S
C93 C68 1.395 . S
C93 C70 1.391 1_655 S
H94 C54 0.951 . S
H95 C55 0.950 . S
H96 C61 0.949 . S
H97 C62 0.950 1_655 S
H98 C66 0.951 . S
H99 C67 0.950 . S
H100 C71 0.949 . S
H101 C72 0.950 . S
H102 C76 0.950 . S
H103 C78 0.950 . S
H104 C81 0.950 . S
H105 C83 0.950 . S
C106 C107 1.443 . S
C106 N110 1.376 . S
C106 C144 1.389 . S
C107 C106 1.443 . S
C107 C108 1.340 . S
C107 H147 0.951 . S
C108 C107 1.340 . S
C108 C109 1.439 1_455 S
C108 H148 0.950 . S
C109 C108 1.439 1_655 S
C109 N110 1.374 1_655 S
C109 C143 1.395 . S
N110 C106 1.376 . S
N110 C109 1.374 1_455 S
N110 Co111 2.008 . S
Co111 N110 2.008 . S
Co111 N112 1.995 1_455 S
Co111 N117 2.008 1_455 S
Co111 N122 1.995 . S
Co111 N127 2.282 . S
Co111 N133 2.282 . S
N112 Co111 1.995 1_655 S
N112 C113 1.376 . S
N112 C116 1.383 . S
C113 N112 1.376 . S
C113 C114 1.446 . S
C113 C143 1.391 . S
C114 C113 1.446 . S
C114 C115 1.339 . S
C114 H149 0.949 . S
C115 C114 1.339 . S
C115 C116 1.439 . S
C115 H150 0.950 . S
C116 N112 1.383 . S
C116 C115 1.439 . S
C116 C145 1.392 . S
N117 Co111 2.008 1_655 S
N117 C118 1.376 . S
N117 C121 1.374 1_655 S
C118 N117 1.376 . S
C118 C119 1.443 1_545 S
C118 C145 1.389 . S
C119 C118 1.443 1_565 S
C119 C120 1.340 1_655 S
C119 H151 0.951 . S
C120 C119 1.340 1_455 S
C120 C121 1.439 1_565 S
C120 H152 0.950 . S
C121 N117 1.374 1_455 S
C121 C120 1.439 1_545 S
C121 C146 1.395 . S
N122 Co111 1.995 . S
N122 C123 1.376 . S
N122 C126 1.383 . S
C123 N122 1.376 . S
C123 C124 1.446 . S
C123 C146 1.391 . S
C124 C123 1.446 . S
C124 C125 1.339 . S
C124 H153 0.949 . S
C125 C124 1.339 . S
C125 C126 1.439 . S
C125 H154 0.950 . S
C126 N122 1.383 . S
C126 C125 1.439 . S
C126 C144 1.392 . S
N127 Co111 2.282 . S
N127 C130 1.332 . S
N127 C132 1.332 1_455 S
C128 C129 1.386 . S
C128 C131 1.388 1_455 S
C129 C128 1.386 . S
C129 C130 1.382 . S
C129 H155 0.950 . S
C130 N127 1.332 . S
C130 C129 1.382 . S
C130 H141 0.952 . S
C131 C128 1.388 1_655 S
C131 C132 1.382 . S
C131 H156 0.950 . S
C132 N127 1.332 1_655 S
C132 C131 1.382 . S
C132 H142 0.948 . S
N133 Co111 2.282 . S
N133 C137 1.332 1_455 S
N133 C138 1.332 . S
C134 C135 1.388 . S
C134 C138 1.382 . S
C134 H157 0.950 . S
C135 C134 1.388 . S
C135 C136 1.386 1_455 S
C136 C135 1.386 1_655 S
C136 C137 1.382 . S
C136 H158 0.950 . S
C137 N133 1.332 1_655 S
C137 C136 1.382 . S
C137 H139 0.952 . S
C138 N133 1.332 . S
C138 C134 1.382 . S
C138 H140 0.948 . S
H139 C137 0.952 . S
H140 C138 0.948 . S
H141 C130 0.952 . S
H142 C132 0.948 . S
C143 C109 1.395 . S
C143 C113 1.391 . S
C144 C106 1.389 . S
C144 C126 1.392 . S
C145 C116 1.392 . S
C145 C118 1.389 . S
C146 C121 1.395 . S
C146 C123 1.391 . S
H147 C107 0.951 . S
H148 C108 0.950 . S
H149 C114 0.949 . S
H150 C115 0.950 . S
H151 C119 0.951 . S
H152 C120 0.950 . S
H153 C124 0.949 . S
H154 C125 0.950 . S
H155 C129 0.950 . S
H156 C131 0.950 . S
H157 C134 0.950 . S
H158 C136 0.950 . S
C159 C160 1.443 . S
C159 N163 1.376 . S
C159 C197 1.389 . S
C160 C159 1.443 . S
C160 C161 1.340 1_655 S
C160 H200 0.951 . S
C161 C160 1.340 1_455 S
C161 C162 1.439 . S
C161 H201 0.950 . S
C162 C161 1.439 . S
C162 N163 1.374 1_455 S
C162 C196 1.395 . S
N163 C159 1.376 . S
N163 C162 1.374 1_655 S
N163 Co164 2.008 1_655 S
Co164 N163 2.008 1_455 S
Co164 N165 1.995 . S
Co164 N170 2.008 1_545 S
Co164 N175 1.995 1_445 S
Co164 N180 2.282 . S
Co164 N186 2.282 . S
N165 Co164 1.995 . S
N165 C166 1.376 . S
N165 C169 1.383 . S
C166 N165 1.376 . S
C166 C167 1.446 . S
C166 C196 1.391 . S
C167 C166 1.446 . S
C167 C168 1.339 . S
C167 H202 0.949 . S
C168 C167 1.339 . S
C168 C169 1.439 . S
C168 H203 0.950 . S
C169 N165 1.383 . S
C169 C168 1.439 . S
C169 C198 1.392 . S
N170 Co164 2.008 1_565 S
N170 C171 1.376 . S
N170 C174 1.374 1_455 S
C171 N170 1.376 . S
C171 C172 1.443 . S
C171 C198 1.389 1_565 S
C172 C171 1.443 . S
C172 C173 1.340 . S
C172 H204 0.951 . S
C173 C172 1.340 . S
C173 C174 1.439 1_455 S
C173 H205 0.950 1_455 S
C174 N170 1.374 1_655 S
C174 C173 1.439 1_655 S
C174 C199 1.395 . S
N175 Co164 1.995 1_665 S
N175 C176 1.376 . S
N175 C179 1.383 . S
C176 N175 1.376 . S
C176 C177 1.446 . S
C176 C199 1.391 . S
C177 C176 1.446 . S
C177 C178 1.339 . S
C177 H206 0.949 . S
C178 C177 1.339 . S
C178 C179 1.439 . S
C178 H207 0.950 . S
C179 N175 1.383 . S
C179 C178 1.439 . S
C179 C197 1.392 1_565 S
N180 Co164 2.282 . S
N180 C183 1.332 1_445 S
N180 C185 1.332 . S
C181 C182 1.386 1_455 S
C181 C184 1.388 1_565 S
C182 C181 1.386 1_655 S
C182 C183 1.382 . S
C182 H208 0.950 . S
C183 N180 1.332 1_665 S
C183 C182 1.382 . S
C183 H194 0.952 . S
C184 C181 1.388 1_545 S
C184 C185 1.382 . S
C184 H209 0.950 . S
C185 N180 1.332 . S
C185 C184 1.382 . S
C185 H195 0.948 . S
N186 Co164 2.282 . S
N186 C190 1.332 . S
N186 C191 1.332 1_445 S
C187 C188 1.388 1_565 S
C187 C191 1.382 . S
C187 H210 0.950 . S
C188 C187 1.388 1_545 S
C188 C189 1.386 1_655 S
C189 C188 1.386 1_455 S
C189 C190 1.382 . S
C189 H211 0.950 . S
C190 N186 1.332 . S
C190 C189 1.382 . S
C190 H192 0.952 . S
C191 N186 1.332 1_665 S
C191 C187 1.382 . S
C191 H193 0.948 . S
H192 C190 0.952 . S
H193 C191 0.948 . S
H194 C183 0.952 . S
H195 C185 0.948 . S
C196 C162 1.395 . S
C196 C166 1.391 . S
C197 C159 1.389 . S
C197 C179 1.392 1_545 S
C198 C169 1.392 . S
C198 C171 1.389 1_545 S
C199 C174 1.395 . S
C199 C176 1.391 . S
H200 C160 0.951 . S
H201 C161 0.950 . S
H202 C167 0.949 . S
H203 C168 0.950 . S
H204 C172 0.951 . S
H205 C173 0.950 1_655 S
H206 C177 0.949 . S
H207 C178 0.950 . S
H208 C182 0.950 . S
H209 C184 0.950 . S
H210 C187 0.950 . S
H211 C189 0.950 . S
C212 C213 1.443 . S
C212 N216 1.376 1_655 S
C212 C250 1.389 . S
C213 C212 1.443 . S
C213 C214 1.340 . S
C213 H253 0.951 . S
C214 C213 1.340 . S
C214 C215 1.439 1_655 S
C214 H254 0.950 . S
C215 C214 1.439 1_455 S
C215 N216 1.374 . S
C215 C249 1.395 . S
N216 C212 1.376 1_455 S
N216 C215 1.374 . S
N216 Co217 2.008 . S
Co217 N216 2.008 . S
Co217 N218 1.995 . S
Co217 N223 2.008 . S
Co217 N228 1.995 . S
Co217 N233 2.282 . S
Co217 N239 2.282 . S
N218 Co217 1.995 . S
N218 C219 1.376 . S
N218 C222 1.383 . S
C219 N218 1.376 . S
C219 C220 1.446 . S
C219 C249 1.391 . S
C220 C219 1.446 . S
C220 C221 1.339 . S
C220 H255 0.949 . S
C221 C220 1.339 . S
C221 C222 1.439 . S
C221 H256 0.950 . S
C222 N218 1.383 . S
C222 C221 1.439 . S
C222 C251 1.392 . S
N223 Co217 2.008 . S
N223 C224 1.376 . S
N223 C227 1.374 . S
C224 N223 1.376 . S
C224 C225 1.443 . S
C224 C251 1.389 . S
C225 C224 1.443 . S
C225 C226 1.340 . S
C225 H257 0.951 . S
C226 C225 1.340 . S
C226 C227 1.439 . S
C226 H258 0.950 . S
C227 N223 1.374 . S
C227 C226 1.439 . S
C227 C252 1.395 . S
N228 Co217 1.995 . S
N228 C229 1.376 . S
N228 C232 1.383 . S
C229 N228 1.376 . S
C229 C230 1.446 . S
C229 C252 1.391 . S
C230 C229 1.446 . S
C230 C231 1.339 . S
C230 H259 0.949 . S
C231 C230 1.339 . S
C231 C232 1.439 . S
C231 H260 0.950 1_455 S
C232 N228 1.383 . S
C232 C231 1.439 . S
C232 C250 1.392 1_455 S
N233 Co217 2.282 . S
N233 C236 1.332 . S
N233 C238 1.332 . S
C234 C235 1.386 . S
C234 C237 1.388 . S
C235 C234 1.386 . S
C235 C236 1.382 . S
C235 H261 0.950 . S
C236 N233 1.332 . S
C236 C235 1.382 . S
C236 H247 0.952 . S
C237 C234 1.388 . S
C237 C238 1.382 . S
C237 H262 0.950 . S
C238 N233 1.332 . S
C238 C237 1.382 . S
C238 H248 0.948 . S
N239 Co217 2.282 . S
N239 C243 1.332 . S
N239 C244 1.332 . S
C240 C241 1.388 . S
C240 C244 1.382 . S
C240 H263 0.950 . S
C241 C240 1.388 . S
C241 C242 1.386 . S
C242 C241 1.386 . S
C242 C243 1.382 . S
C242 H264 0.950 . S
C243 N239 1.332 . S
C243 C242 1.382 . S
C243 H245 0.952 . S
C244 N239 1.332 . S
C244 C240 1.382 . S
C244 H246 0.948 . S
H245 C243 0.952 . S
H246 C244 0.948 . S
H247 C236 0.952 . S
H248 C238 0.948 . S
C249 C215 1.395 . S
C249 C219 1.391 . S
C250 C212 1.389 . S
C250 C232 1.392 1_655 S
C251 C222 1.392 . S
C251 C224 1.389 . S
C252 C227 1.395 . S
C252 C229 1.391 . S
H253 C213 0.951 . S
H254 C214 0.950 . S
H255 C220 0.949 . S
H256 C221 0.950 . S
H257 C225 0.951 . S
H258 C226 0.950 . S
H259 C230 0.949 . S
H260 C231 0.950 1_655 S
H261 C235 0.950 . S
H262 C237 0.950 . S
H263 C240 0.950 . S
H264 C242 0.950 . S
C265 C266 1.443 1_545 S
C265 N269 1.376 . S
C265 C303 1.389 . S
C266 C265 1.443 1_565 S
C266 C267 1.340 . S
C266 H306 0.951 . S
C267 C266 1.340 . S
C267 C268 1.439 1_565 S
C267 H307 0.950 . S
C268 C267 1.439 1_545 S
C268 N269 1.374 . S
C268 C302 1.395 . S
N269 C265 1.376 . S
N269 C268 1.374 . S
N269 Co270 2.008 . S
Co270 N269 2.008 . S
Co270 N271 1.995 . S
Co270 N276 2.008 . S
Co270 N281 1.995 . S
Co270 N286 2.282 . S
Co270 N292 2.282 . S
N271 Co270 1.995 . S
N271 C272 1.376 . S
N271 C275 1.383 . S
C272 N271 1.376 . S
C272 C273 1.446 . S
C272 C302 1.391 . S
C273 C272 1.446 . S
C273 C274 1.339 . S
C273 H308 0.949 . S
C274 C273 1.339 . S
C274 C275 1.439 . S
C274 H309 0.950 . S
C275 N271 1.383 . S
C275 C274 1.439 . S
C275 C304 1.392 . S
N276 Co270 2.008 . S
N276 C277 1.376 . S
N276 C280 1.374 . S
C277 N276 1.376 . S
C277 C278 1.443 . S
C277 C304 1.389 . S
C278 C277 1.443 . S
C278 C279 1.340 . S
C278 H310 0.951 . S
C279 C278 1.340 . S
C279 C280 1.439 . S
C279 H311 0.950 . S
C280 N276 1.374 . S
C280 C279 1.439 . S
C280 C305 1.395 . S
N281 Co270 1.995 . S
N281 C282 1.376 . S
N281 C285 1.383 . S
C282 N281 1.376 . S
C282 C283 1.446 . S
C282 C305 1.391 . S
C283 C282 1.446 . S
C283 C284 1.339 . S
C283 H312 0.949 . S
C284 C283 1.339 . S
C284 C285 1.439 . S
C284 H313 0.950 . S
C285 N281 1.383 . S
C285 C284 1.439 . S
C285 C303 1.392 . S
N286 Co270 2.282 . S
N286 C289 1.332 . S
N286 C291 1.332 . S
C287 C288 1.386 . S
C287 C290 1.388 . S
C288 C287 1.386 . S
C288 C289 1.382 . S
C288 H314 0.950 . S
C289 N286 1.332 . S
C289 C288 1.382 . S
C289 H300 0.952 . S
C290 C287 1.388 . S
C290 C291 1.382 . S
C290 H315 0.950 . S
C291 N286 1.332 . S
C291 C290 1.382 . S
C291 H301 0.948 . S
N292 Co270 2.282 . S
N292 C296 1.332 . S
N292 C297 1.332 . S
C293 C294 1.388 . S
C293 C297 1.382 . S
C293 H316 0.950 . S
C294 C293 1.388 . S
C294 C295 1.386 . S
C295 C294 1.386 . S
C295 C296 1.382 . S
C295 H317 0.950 . S
C296 N292 1.332 . S
C296 C295 1.382 . S
C296 H298 0.952 . S
C297 N292 1.332 . S
C297 C293 1.382 . S
C297 H299 0.948 . S
H298 C296 0.952 . S
H299 C297 0.948 . S
H300 C289 0.952 . S
H301 C291 0.948 . S
C302 C268 1.395 . S
C302 C272 1.391 . S
C303 C265 1.389 . S
C303 C285 1.392 . S
C304 C275 1.392 . S
C304 C277 1.389 . S
C305 C280 1.395 . S
C305 C282 1.391 . S
H306 C266 0.951 . S
H307 C267 0.950 . S
H308 C273 0.949 . S
H309 C274 0.950 . S
H310 C278 0.951 . S
H311 C279 0.950 . S
H312 C283 0.949 . S
H313 C284 0.950 . S
H314 C288 0.950 . S
H315 C290 0.950 . S
H316 C293 0.950 . S
H317 C295 0.950 . S
H318 C324 0.930 . S
H319 C327 0.930 . S
H320 C328 0.930 . S
H321 C329 0.930 . S
H322 C332 0.930 . S
H323 C333 0.930 . S
C324 H318 0.930 . S
C324 C325 1.355 . S
C324 C326 1.415 1_545 S
C325 C324 1.355 . S
C325 C327 1.419 . S
C326 C324 1.415 1_565 S
C326 C331 1.425 . S
C326 C333 1.409 . S
C327 H319 0.930 . S
C327 C325 1.419 . S
C327 C328 1.362 . S
C328 H320 0.930 . S
C328 C327 1.362 . S
C328 C331 1.409 1_545 S
C329 H321 0.930 . S
C329 C330 1.355 . S
C329 C331 1.415 . S
C330 C329 1.355 . S
C330 C332 1.419 . S
C331 C326 1.425 . S
C331 C328 1.409 1_565 S
C331 C329 1.415 . S
C332 H322 0.930 . S
C332 C330 1.419 . S
C332 C333 1.362 . S
C333 H323 0.930 . S
C333 C326 1.409 . S
C333 C332 1.362 . S
H334 C340 0.930 . S
H335 C343 0.930 . S
H336 C344 0.930 . S
H337 C345 0.930 . S
H338 C348 0.930 . S
H339 C349 0.930 . S
C340 H334 0.930 . S
C340 C341 1.355 1_565 S
C340 C342 1.415 . S
C341 C340 1.355 1_545 S
C341 C343 1.419 . S
C342 C340 1.415 . S
C342 C347 1.425 1_565 S
C342 C349 1.409 . S
C343 H335 0.930 . S
C343 C341 1.419 . S
C343 C344 1.362 . S
C344 H336 0.930 . S
C344 C343 1.362 . S
C344 C347 1.409 . S
C345 H337 0.930 . S
C345 C346 1.355 . S
C345 C347 1.415 . S
C346 C345 1.355 . S
C346 C348 1.419 1_545 S
C347 C342 1.425 1_545 S
C347 C344 1.409 . S
C347 C345 1.415 . S
C348 H338 0.930 . S
C348 C346 1.419 1_565 S
C348 C349 1.362 . S
C349 H339 0.930 . S
C349 C342 1.409 . S
C349 C348 1.362 . S
H350 C356 0.930 . S
H351 C359 0.930 1_545 S
H352 C360 0.930 . S
H353 C361 0.930 . S
H354 C364 0.930 . S
H355 C365 0.930 . S
C356 H350 0.930 . S
C356 C357 1.355 . S
C356 C358 1.415 . S
C357 C356 1.355 . S
C357 C359 1.419 . S
C358 C356 1.415 . S
C358 C363 1.425 . S
C358 C365 1.409 . S
C359 H351 0.930 1_565 S
C359 C357 1.419 . S
C359 C360 1.362 . S
C360 H352 0.930 . S
C360 C359 1.362 . S
C360 C363 1.409 . S
C361 H353 0.930 . S
C361 C362 1.355 . S
C361 C363 1.415 . S
C362 C361 1.355 . S
C362 C364 1.419 . S
C363 C358 1.425 . S
C363 C360 1.409 . S
C363 C361 1.415 . S
C364 H354 0.930 . S
C364 C362 1.419 . S
C364 C365 1.362 . S
C365 H355 0.930 . S
C365 C358 1.409 . S
C365 C364 1.362 . S
H366 C372 0.930 . S
H367 C375 0.930 . S
H368 C376 0.930 . S
H369 C377 0.930 . S
H370 C380 0.930 . S
H371 C381 0.930 . S
C372 H366 0.930 . S
C372 C373 1.355 1_565 S
C372 C374 1.415 1_565 S
C373 C372 1.355 1_545 S
C373 C375 1.419 . S
C374 C372 1.415 1_545 S
C374 C379 1.425 . S
C374 C381 1.409 1_545 S
C375 H367 0.930 . S
C375 C373 1.419 . S
C375 C376 1.362 . S
C376 H368 0.930 . S
C376 C375 1.362 . S
C376 C379 1.409 . S
C377 H369 0.930 . S
C377 C378 1.355 . S
C377 C379 1.415 . S
C378 C377 1.355 . S
C378 C380 1.419 1_545 S
C379 C374 1.425 . S
C379 C376 1.409 . S
C379 C377 1.415 . S
C380 H370 0.930 . S
C380 C378 1.419 1_565 S
C380 C381 1.362 . S
C381 H371 0.930 . S
C381 C374 1.409 1_565 S
C381 C380 1.362 . S
H382 C388 0.930 . S
H383 C391 0.930 . S
H384 C392 0.930 . S
H385 C393 0.930 . S
H386 C396 0.930 . S
H387 C397 0.930 . S
C388 H382 0.930 . S
C388 C389 1.355 . S
C388 C390 1.415 . S
C389 C388 1.355 . S
C389 C391 1.419 . S
C390 C388 1.415 . S
C390 C395 1.425 . S
C390 C397 1.409 . S
C391 H383 0.930 . S
C391 C389 1.419 . S
C391 C392 1.362 . S
C392 H384 0.930 . S
C392 C391 1.362 . S
C392 C395 1.409 . S
C393 H385 0.930 . S
C393 C394 1.355 . S
C393 C395 1.415 1_545 S
C394 C393 1.355 . S
C394 C396 1.419 . S
C395 C390 1.425 . S
C395 C392 1.409 . S
C395 C393 1.415 1_565 S
C396 H386 0.930 . S
C396 C394 1.419 . S
C396 C397 1.362 1_545 S
C397 H387 0.930 . S
C397 C390 1.409 . S
C397 C396 1.362 1_565 S
H398 C404 0.930 . S
H399 C407 0.930 . S
H400 C408 0.930 . S
H401 C409 0.930 . S
H402 C412 0.930 . S
H403 C413 0.930 . S
C404 H398 0.930 . S
C404 C405 1.355 . S
C404 C406 1.415 . S
C405 C404 1.355 . S
C405 C407 1.419 . S
C406 C404 1.415 . S
C406 C411 1.425 . S
C406 C413 1.409 . S
C407 H399 0.930 . S
C407 C405 1.419 . S
C407 C408 1.362 . S
C408 H400 0.930 . S
C408 C407 1.362 . S
C408 C411 1.409 . S
C409 H401 0.930 . S
C409 C410 1.355 . S
C409 C411 1.415 . S
C410 C409 1.355 . S
C410 C412 1.419 1_565 S
C411 C406 1.425 . S
C411 C408 1.409 . S
C411 C409 1.415 . S
C412 H402 0.930 . S
C412 C410 1.419 1_545 S
C412 C413 1.362 1_545 S
C413 H403 0.930 . S
C413 C406 1.409 . S
C413 C412 1.362 1_565 S
H414 C420 0.930 . S
H415 C423 0.930 . S
H416 C424 0.930 . S
H417 C425 0.930 . S
H418 C428 0.930 . S
H419 C429 0.930 . S
C420 H414 0.930 . S
C420 C421 1.355 . S
C420 C422 1.415 . S
C421 C420 1.355 . S
C421 C423 1.419 . S
C422 C420 1.415 . S
C422 C427 1.425 . S
C422 C429 1.409 . S
C423 H415 0.930 . S
C423 C421 1.419 . S
C423 C424 1.362 . S
C424 H416 0.930 . S
C424 C423 1.362 . S
C424 C427 1.409 . S
C425 H417 0.930 . S
C425 C426 1.355 . S
C425 C427 1.415 . S
C426 C425 1.355 . S
C426 C428 1.419 . S
C427 C422 1.425 . S
C427 C424 1.409 . S
C427 C425 1.415 . S
C428 H418 0.930 . S
C428 C426 1.419 . S
C428 C429 1.362 . S
C429 H419 0.930 . S
C429 C422 1.409 . S
C429 C428 1.362 . S
H430 C436 0.930 . S
H431 C439 0.930 . S
H432 C440 0.930 . S
H433 C441 0.930 . S
H434 C444 0.930 . S
H435 C445 0.930 . S
C436 H430 0.930 . S
C436 C437 1.355 1_655 S
C436 C438 1.415 1_655 S
C437 C436 1.355 1_455 S
C437 C439 1.419 1_565 S
C438 C436 1.415 1_455 S
C438 C443 1.425 1_565 S
C438 C445 1.409 1_455 S
C439 H431 0.930 . S
C439 C437 1.419 1_545 S
C439 C440 1.362 . S
C440 H432 0.930 . S
C440 C439 1.362 . S
C440 C443 1.409 . S
C441 H433 0.930 . S
C441 C442 1.355 1_545 S
C441 C443 1.415 . S
C442 C441 1.355 1_565 S
C442 C444 1.419 1_455 S
C443 C438 1.425 1_545 S
C443 C440 1.409 . S
C443 C441 1.415 . S
C444 H434 0.930 . S
C444 C442 1.419 1_655 S
C444 C445 1.362 . S
C445 H435 0.930 . S
C445 C438 1.409 1_655 S
C445 C444 1.362 . S
H446 C452 0.930 . S
H447 C455 0.930 . S
H448 C456 0.930 . S
H449 C457 0.930 . S
H450 C460 0.930 . S
H451 C461 0.930 . S
C452 H446 0.930 . S
C452 C453 1.355 . S
C452 C454 1.415 . S
C453 C452 1.355 . S
C453 C455 1.419 . S
C454 C452 1.415 . S
C454 C459 1.425 . S
C454 C461 1.409 . S
C455 H447 0.930 . S
C455 C453 1.419 . S
C455 C456 1.362 . S
C456 H448 0.930 . S
C456 C455 1.362 . S
C456 C459 1.409 . S
C457 H449 0.930 . S
C457 C458 1.355 . S
C457 C459 1.415 . S
C458 C457 1.355 . S
C458 C460 1.419 . S
C459 C454 1.425 . S
C459 C456 1.409 . S
C459 C457 1.415 . S
C460 H450 0.930 . S
C460 C458 1.419 . S
C460 C461 1.362 . S
C461 H451 0.930 . S
C461 C454 1.409 . S
C461 C460 1.362 . S
H462 C468 0.930 . S
H463 C471 0.930 . S
H464 C472 0.930 1_556 S
H465 C473 0.930 . S
H466 C476 0.930 . S
H467 C477 0.930 1_554 S
C468 H462 0.930 . S
C468 C469 1.355 . S
C468 C470 1.415 . S
C469 C468 1.355 . S
C469 C471 1.419 . S
C470 C468 1.415 . S
C470 C475 1.425 1_554 S
C470 C477 1.409 1_554 S
C471 H463 0.930 . S
C471 C469 1.419 . S
C471 C472 1.362 . S
C472 H464 0.930 1_554 S
C472 C471 1.362 . S
C472 C475 1.409 1_554 S
C473 H465 0.930 . S
C473 C474 1.355 . S
C473 C475 1.415 . S
C474 C473 1.355 . S
C474 C476 1.419 . S
C475 C470 1.425 1_556 S
C475 C472 1.409 1_556 S
C475 C473 1.415 . S
C476 H466 0.930 . S
C476 C474 1.419 . S
C476 C477 1.362 . S
C477 H467 0.930 1_556 S
C477 C470 1.409 1_556 S
C477 C476 1.362 . S
H478 C484 0.930 . S
H479 C487 0.930 . S
H480 C488 0.930 . S
H481 C489 0.936 . S
H482 C492 0.930 . S
H483 C493 0.930 . S
C484 H478 0.930 . S
C484 C485 1.355 . S
C484 C486 1.415 . S
C485 C484 1.355 . S
C485 C487 1.419 . S
C486 C484 1.415 . S
C486 C491 1.425 . S
C486 C493 1.409 . S
C487 H479 0.930 . S
C487 C485 1.419 . S
C487 C488 1.362 . S
C488 H480 0.930 . S
C488 C487 1.362 . S
C488 C491 1.409 . S
C489 H481 0.936 . S
C489 C490 1.355 . S
C489 C491 1.415 . S
C490 C489 1.355 . S
C490 C492 1.419 . S
C491 C486 1.425 . S
C491 C488 1.409 . S
C491 C489 1.415 . S
C492 H482 0.930 . S
C492 C490 1.419 . S
C492 C493 1.362 . S
C493 H483 0.930 . S
C493 C486 1.409 . S
C493 C492 1.362 . S
H494 C500 0.930 . S
H495 C503 0.930 1_565 S
H496 C504 0.930 . S
H497 C505 0.930 . S
H498 C508 0.930 . S
H499 C509 0.930 . S
C500 H494 0.930 . S
C500 C501 1.355 . S
C500 C502 1.415 . S
C501 C500 1.355 . S
C501 C503 1.419 1_655 S
C502 C500 1.415 . S
C502 C507 1.425 1_655 S
C502 C509 1.409 . S
C503 H495 0.930 1_545 S
C503 C501 1.419 1_455 S
C503 C504 1.362 . S
C504 H496 0.930 . S
C504 C503 1.362 . S
C504 C507 1.409 . S
C505 H497 0.930 . S
C505 C506 1.355 1_455 S
C505 C507 1.415 . S
C506 C505 1.355 1_655 S
C506 C508 1.419 . S
C507 C502 1.425 1_455 S
C507 C504 1.409 . S
C507 C505 1.415 . S
C508 H498 0.930 . S
C508 C506 1.419 . S
C508 C509 1.362 . S
C509 H499 0.930 . S
C509 C502 1.409 . S
C509 C508 1.362 . S
C325 C39 1.492 . S
C330 C38 1.492 . S
C341 C91 1.490 . S
C346 C92 1.490 . S
C357 C145 1.498 1_565 S
C362 C144 1.498 . S
C373 C198 1.489 . S
C378 C197 1.489 . S
C389 C251 1.496 . S
C394 C250 1.496 . S
C405 C304 1.494 . S
C410 C303 1.494 1_565 S
C421 C287 1.545 . S
C426 C22 1.531 . S
C437 C181 1.533 . S
C442 C75 1.545 . S
C453 C128 1.528 . S
C458 C234 1.537 . S
C469 C29 1.548 . S
C474 C241 1.544 . S
C485 C294 1.568 . S
C490 C82 1.558 . S
C501 C188 1.564 . S
C506 C135 1.567 1_655 S
