# Generated by pormake.
# Topology acs-a, (4)-cn, num edge types: 1
# Building blocks:
#     Node 0, Type 0, BuildingBlock: UXUYUI_clean_sbu_0, # of connection points: 4
#     Node 1, Type 0, BuildingBlock: UXUYUI_clean_sbu_0, # of connection points: 4
#     Node 2, Type 0, BuildingBlock: UXUYUI_clean_sbu_0, # of connection points: 4
#     Node 3, Type 0, BuildingBlock: UXUYUI_clean_sbu_0, # of connection points: 4
#     Node 4, Type 0, BuildingBlock: UXUYUI_clean_sbu_0, # of connection points: 4
#     Node 5, Type 0, BuildingBlock: UXUYUI_clean_sbu_0, # of connection points: 4
#     Node 6, Type 0, BuildingBlock: UXUYUI_clean_sbu_0, # of connection points: 4
#     Node 7, Type 0, BuildingBlock: UXUYUI_clean_sbu_0, # of connection points: 4
#     Node 8, Type 0, BuildingBlock: UXUYUI_clean_sbu_0, # of connection points: 4
#     Node 9, Type 0, BuildingBlock: UXUYUI_clean_sbu_0, # of connection points: 4
#     Node 10, Type 0, BuildingBlock: UXUYUI_clean_sbu_0, # of connection points: 4
#     Node 11, Type 0, BuildingBlock: UXUYUI_clean_sbu_0, # of connection points: 4
#     Edge 12, Type (0, 0), BuildingBlock: EZIPEK_clean_linker_0, # of connection points: 2
#     Edge 13, Type (0, 0), BuildingBlock: EZIPEK_clean_linker_0, # of connection points: 2
#     Edge 14, Type (0, 0), BuildingBlock: EZIPEK_clean_linker_0, # of connection points: 2
#     Edge 15, Type (0, 0), BuildingBlock: EZIPEK_clean_linker_0, # of connection points: 2
#     Edge 16, Type (0, 0), BuildingBlock: EZIPEK_clean_linker_0, # of connection points: 2
#     Edge 17, Type (0, 0), BuildingBlock: EZIPEK_clean_linker_0, # of connection points: 2
#     Edge 18, Type (0, 0), BuildingBlock: EZIPEK_clean_linker_0, # of connection points: 2
#     Edge 19, Type (0, 0), BuildingBlock: EZIPEK_clean_linker_0, # of connection points: 2
#     Edge 20, Type (0, 0), BuildingBlock: EZIPEK_clean_linker_0, # of connection points: 2
#     Edge 21, Type (0, 0), BuildingBlock: EZIPEK_clean_linker_0, # of connection points: 2
#     Edge 22, Type (0, 0), BuildingBlock: EZIPEK_clean_linker_0, # of connection points: 2
#     Edge 23, Type (0, 0), BuildingBlock: EZIPEK_clean_linker_0, # of connection points: 2
#     Edge 24, Type (0, 0), BuildingBlock: EZIPEK_clean_linker_0, # of connection points: 2
#     Edge 25, Type (0, 0), BuildingBlock: EZIPEK_clean_linker_0, # of connection points: 2
#     Edge 26, Type (0, 0), BuildingBlock: EZIPEK_clean_linker_0, # of connection points: 2
#     Edge 27, Type (0, 0), BuildingBlock: EZIPEK_clean_linker_0, # of connection points: 2
#     Edge 28, Type (0, 0), BuildingBlock: EZIPEK_clean_linker_0, # of connection points: 2
#     Edge 29, Type (0, 0), BuildingBlock: EZIPEK_clean_linker_0, # of connection points: 2
#     Edge 30, Type (0, 0), BuildingBlock: EZIPEK_clean_linker_0, # of connection points: 2
#     Edge 31, Type (0, 0), BuildingBlock: EZIPEK_clean_linker_0, # of connection points: 2
#     Edge 32, Type (0, 0), BuildingBlock: EZIPEK_clean_linker_0, # of connection points: 2
#     Edge 33, Type (0, 0), BuildingBlock: EZIPEK_clean_linker_0, # of connection points: 2
#     Edge 34, Type (0, 0), BuildingBlock: EZIPEK_clean_linker_0, # of connection points: 2
#     Edge 35, Type (0, 0), BuildingBlock: EZIPEK_clean_linker_0, # of connection points: 2
# Relax obj value: 0.500
# Max RMSD: 0.243
# Mean RMSD: 0.227
data_MOF--net-acs-a--node1-UXUYUI_clean_sbu_0--edge1-EZIPEK_clean_linker_0
_symmetry_space_group_name_H-M    P1
_symmetry_Int_Tables_number       1
_symmetry_cell_setting            triclinic
loop_
_symmetry_equiv_pos_as_xyz
'x, y, z'
_cell_length_a     46.495111
_cell_length_b     57.193531
_cell_length_c     56.143082
_cell_angle_alpha  90.002721
_cell_angle_beta   90.028597
_cell_angle_gamma 111.20166
loop_
_atom_site_label
_atom_site_type_symbol
_atom_site_fract_x
_atom_site_fract_y
_atom_site_fract_z
_atom_type_partial_charge
Li0 Li 0.58788 0.14016 0.08439 0.0
Li1 Li 0.64191 0.13808 0.07554 0.0
Li2 Li 0.5938 0.10223 0.07227 0.0
Li3 Li 0.61191 0.11667 0.1099 0.0
C4 C 0.60111 0.12705 0.03097 0.0
N5 N 0.58987 0.11037 0.98452 0.0
C6 C 0.62092 0.11717 0.0196 0.0
C7 C 0.57576 0.12869 0.01869 0.0
C8 C 0.61478 0.10875 0.99612 0.0
C9 C 0.57043 0.12009 0.99521 0.0
C10 C 0.63889 0.1656 0.12316 0.0
C11 C 0.68133 0.18509 0.15 0.0
N12 N 0.66202 0.19132 0.16474 0.0
C13 C 0.61944 0.17209 0.1386 0.0
C14 C 0.67008 0.17212 0.12885 0.0
C15 C 0.63159 0.18515 0.15953 0.0
C16 C 0.54469 0.16007 0.10128 0.0
N17 N 0.56562 0.16175 0.08395 0.0
C18 C 0.559 0.19805 0.06803 0.0
C19 C 0.57175 0.17945 0.06673 0.0
C20 C 0.54167 0.19978 0.08826 0.0
C21 C 0.53151 0.17837 0.10318 0.0
H22 H 0.53881 0.14484 0.11399 0.0
H23 H 0.5871 0.17944 0.05225 0.0
C24 C 0.70213 0.14883 0.05503 0.0
N25 N 0.68126 0.15808 0.06412 0.0
C26 C 0.73224 0.16508 0.05006 0.0
C27 C 0.71788 0.19984 0.06269 0.0
C28 C 0.68824 0.18306 0.06729 0.0
C29 C 0.74035 0.19079 0.0546 0.0
H30 H 0.69577 0.12883 0.05258 0.0
H31 H 0.67104 0.18979 0.07438 0.0
C32 C 0.54228 0.0868 0.09906 0.0
N33 N 0.48844 0.04513 0.09822 0.0
C34 C 0.5423 0.06359 0.1068 0.0
C35 C 0.51474 0.08894 0.09135 0.0
C36 C 0.51489 0.04271 0.1061 0.0
C37 C 0.48779 0.06762 0.09094 0.0
C38 C 0.64879 0.09135 0.09888 0.0
C39 C 0.63329 0.06693 0.10704 0.0
C40 C 0.68013 0.1034 0.104 0.0
C41 C 0.64928 0.05512 0.12061 0.0
C42 C 0.69532 0.09094 0.11759 0.0
N43 N 0.6797 0.06728 0.12557 0.0
C44 C 0.58625 0.05679 0.04817 0.0
C45 C 0.54576 0.07243 0.04329 0.0
C46 C 0.57123 0.03661 0.03313 0.0
N47 N 0.57322 0.07406 0.05296 0.0
C48 C 0.52977 0.05245 0.02855 0.0
C49 C 0.5426 0.03438 0.02338 0.0
H50 H 0.60843 0.05888 0.05574 0.0
H51 H 0.53652 0.0869 0.04674 0.0
C52 C 0.58877 0.10293 0.15583 0.0
N53 N 0.61534 0.11003 0.14297 0.0
C54 C 0.58958 0.10105 0.18056 0.0
C55 C 0.64501 0.11312 0.17844 0.0
C56 C 0.64317 0.11504 0.15374 0.0
C57 C 0.61799 0.10653 0.19203 0.0
H58 H 0.56704 0.09975 0.147 0.0
H59 H 0.6641 0.12174 0.14341 0.0
O60 O 0.60637 0.13487 0.05411 0.0
O61 O 0.62754 0.15324 0.10238 0.0
O62 O 0.56895 0.10743 0.09942 0.0
O63 O 0.63356 0.10315 0.08542 0.0
H64 H 0.64058 0.11572 0.02894 0.0
H65 H 0.56019 0.13626 0.0273 0.0
H66 H 0.62976 0.10086 0.98714 0.0
H67 H 0.55079 0.12107 0.98551 0.0
H68 H 0.7054 0.1902 0.15468 0.0
H69 H 0.59523 0.1671 0.13448 0.0
H70 H 0.6854 0.16707 0.11716 0.0
H71 H 0.61681 0.1903 0.17167 0.0
H72 H 0.56331 0.2109 0.05324 0.0
H73 H 0.51378 0.17541 0.11643 0.0
H74 H 0.74926 0.15766 0.04383 0.0
H75 H 0.72358 0.21963 0.0663 0.0
H76 H 0.56325 0.06176 0.1133 0.0
H77 H 0.5143 0.10679 0.08537 0.0
H78 H 0.51463 0.02459 0.11186 0.0
H79 H 0.46639 0.06895 0.08479 0.0
H80 H 0.60924 0.05712 0.10281 0.0
H81 H 0.69247 0.12235 0.09801 0.0
H82 H 0.63753 0.03626 0.12712 0.0
H83 H 0.7195 0.10014 0.12188 0.0
H84 H 0.58168 0.02293 0.02915 0.0
H85 H 0.50787 0.05127 0.02095 0.0
H86 H 0.56841 0.0962 0.19072 0.0
H87 H 0.66731 0.11787 0.18694 0.0
Li88 Li 0.5023 0.64037 0.59849 0.0
Li89 Li 0.50572 0.61149 0.62732 0.0
Li90 Li 0.50053 0.60079 0.58432 0.0
Li91 Li 0.45711 0.6056 0.6069 0.0
C92 C 0.5623 0.64577 0.59934 0.0
N93 N 0.61711 0.6862 0.59568 0.0
C94 C 0.57126 0.66375 0.61743 0.0
C95 C 0.58129 0.64818 0.5795 0.0
C96 C 0.59902 0.68412 0.6152 0.0
C97 C 0.60891 0.6688 0.57796 0.0
C98 C 0.46495 0.62839 0.65049 0.0
C99 C 0.43695 0.60042 0.68173 0.0
N100 N 0.43481 0.6203 0.69387 0.0
C101 C 0.46244 0.64852 0.66329 0.0
C102 C 0.45205 0.6041 0.65977 0.0
C103 C 0.44712 0.64405 0.68518 0.0
C104 C 0.49129 0.68369 0.60071 0.0
N105 N 0.51272 0.67519 0.59154 0.0
C106 C 0.53863 0.71468 0.57247 0.0
C107 C 0.53625 0.6901 0.57765 0.0
C108 C 0.5164 0.72353 0.58157 0.0
C109 C 0.49277 0.70793 0.59601 0.0
H110 H 0.47233 0.67131 0.61107 0.0
H111 H 0.55247 0.68277 0.56988 0.0
C112 C 0.52739 0.58506 0.66129 0.0
N113 N 0.52318 0.60692 0.65648 0.0
C114 C 0.53602 0.58051 0.68418 0.0
C115 C 0.53675 0.62138 0.69618 0.0
C116 C 0.52878 0.62532 0.67306 0.0
C117 C 0.53944 0.59846 0.70207 0.0
H118 H 0.52289 0.57085 0.64763 0.0
H119 H 0.52559 0.64262 0.66863 0.0
C120 C 0.47694 0.63458 0.55627 0.0
N121 N 0.48574 0.66811 0.51909 0.0
C122 C 0.4543 0.64448 0.55081 0.0
C123 C 0.50401 0.64169 0.54278 0.0
C124 C 0.45921 0.66145 0.53197 0.0
C125 C 0.50803 0.65866 0.52405 0.0
C126 C 0.45891 0.55691 0.60437 0.0
C127 C 0.44148 0.55402 0.58351 0.0
C128 C 0.4581 0.53571 0.61713 0.0
C129 C 0.42337 0.52995 0.57588 0.0
C130 C 0.43977 0.51194 0.60886 0.0
N131 N 0.42292 0.50957 0.58859 0.0
C132 C 0.52352 0.56475 0.56908 0.0
C133 C 0.49693 0.57827 0.53915 0.0
C134 C 0.52496 0.54555 0.55438 0.0
N135 N 0.50922 0.5803 0.56136 0.0
C136 C 0.4983 0.55962 0.52374 0.0
C137 C 0.51176 0.54268 0.53162 0.0
H138 H 0.53225 0.56645 0.58712 0.0
H139 H 0.48458 0.59018 0.53384 0.0
C140 C 0.40331 0.61499 0.606 0.0
N141 N 0.41362 0.59597 0.61019 0.0
C142 C 0.37189 0.61074 0.60689 0.0
C143 C 0.36217 0.56752 0.61738 0.0
C144 C 0.39393 0.57266 0.61639 0.0
C145 C 0.35104 0.58671 0.61231 0.0
H146 H 0.41963 0.63349 0.60189 0.0
H147 H 0.40269 0.55804 0.62052 0.0
O148 O 0.53533 0.62564 0.6012 0.0
O149 O 0.48015 0.6327 0.62909 0.0
O150 O 0.47282 0.61816 0.57483 0.0
O151 O 0.47707 0.58027 0.61216 0.0
H152 H 0.55676 0.66213 0.63287 0.0
H153 H 0.57469 0.63429 0.56543 0.0
H154 H 0.60617 0.69829 0.62898 0.0
H155 H 0.62381 0.67098 0.56267 0.0
H156 H 0.42695 0.58175 0.68913 0.0
H157 H 0.47236 0.66745 0.65643 0.0
H158 H 0.45371 0.58823 0.65029 0.0
H159 H 0.44506 0.65948 0.69527 0.0
H160 H 0.55693 0.72635 0.56102 0.0
H161 H 0.47514 0.71425 0.60306 0.0
H162 H 0.5382 0.56272 0.68826 0.0
H163 H 0.53951 0.63565 0.7096 0.0
H164 H 0.43313 0.6391 0.56092 0.0
H165 H 0.52191 0.63439 0.54691 0.0
H166 H 0.44194 0.66933 0.52759 0.0
H167 H 0.52893 0.66441 0.51355 0.0
H168 H 0.44175 0.57017 0.57338 0.0
H169 H 0.4715 0.53762 0.63327 0.0
H170 H 0.40973 0.52745 0.55981 0.0
H171 H 0.43894 0.49536 0.61856 0.0
H172 H 0.5352 0.53253 0.56096 0.0
H173 H 0.48762 0.55759 0.50632 0.0
H174 H 0.36386 0.62594 0.60313 0.0
H175 H 0.34648 0.54885 0.62187 0.0
Li176 Li 0.85623 0.39035 0.10529 0.0
Li177 Li 0.90356 0.38732 0.12453 0.0
Li178 Li 0.90436 0.40815 0.08478 0.0
Li179 Li 0.88127 0.36358 0.08866 0.0
C180 C 0.88075 0.43216 0.12885 0.0
N181 N 0.85225 0.45973 0.15329 0.0
C182 C 0.88075 0.43235 0.15374 0.0
C183 C 0.8665 0.44619 0.11639 0.0
C184 C 0.86617 0.44638 0.16577 0.0
C185 C 0.85214 0.45995 0.12907 0.0
C186 C 0.84896 0.33709 0.12645 0.0
C187 C 0.85246 0.29853 0.14086 0.0
N188 N 0.82153 0.2869 0.13763 0.0
C189 C 0.81723 0.3248 0.12327 0.0
C190 C 0.86678 0.32392 0.13527 0.0
C191 C 0.8038 0.29936 0.12895 0.0
C192 C 0.80104 0.39691 0.09316 0.0
N193 N 0.81755 0.39314 0.11178 0.0
C194 C 0.77934 0.39497 0.13941 0.0
C195 C 0.80719 0.39183 0.13458 0.0
C196 C 0.76216 0.39921 0.12049 0.0
C197 C 0.77307 0.40004 0.09715 0.0
H198 H 0.80962 0.39752 0.07522 0.0
H199 H 0.82074 0.38858 0.14899 0.0
C200 C 0.95509 0.40054 0.15511 0.0
N201 N 0.92401 0.38852 0.15368 0.0
C202 C 0.97008 0.40264 0.177 0.0
C203 C 0.92068 0.38009 0.19538 0.0
C204 C 0.90672 0.37818 0.17313 0.0
C205 C 0.95261 0.39267 0.19741 0.0
H206 H 0.96811 0.4087 0.13928 0.0
H207 H 0.882 0.36896 0.1714 0.0
C208 C 0.86677 0.39349 0.04841 0.0
N209 N 0.87278 0.40955 0.00163 0.0
C210 C 0.87479 0.37973 0.03075 0.0
C211 C 0.86169 0.41538 0.04225 0.0
C212 C 0.87772 0.38816 0.0072 0.0
C213 C 0.8649 0.42321 0.01851 0.0
C214 C 0.94295 0.37161 0.08723 0.0
C215 C 0.94854 0.36988 0.06296 0.0
C216 C 0.95584 0.36006 0.10387 0.0
C217 C 0.96697 0.35656 0.05572 0.0
C218 C 0.9742 0.34696 0.09591 0.0
N219 N 0.97933 0.34549 0.07221 0.0
C220 C 0.93267 0.45922 0.07632 0.0
C221 C 0.93954 0.43455 0.04443 0.0
C222 C 0.94782 0.48116 0.06372 0.0
N223 N 0.92827 0.4365 0.06641 0.0
C224 C 0.95506 0.45612 0.03118 0.0
C225 C 0.95895 0.47964 0.04087 0.0
H226 H 0.92421 0.46038 0.09397 0.0
H227 H 0.93595 0.41634 0.03695 0.0
C228 C 0.83968 0.32283 0.0669 0.0
N229 N 0.86937 0.33089 0.07466 0.0
C230 C 0.82464 0.29796 0.0602 0.0
C231 C 0.87171 0.29033 0.06755 0.0
C232 C 0.88566 0.3153 0.07485 0.0
C233 C 0.84042 0.28126 0.06119 0.0
H234 H 0.82711 0.33547 0.06727 0.0
H235 H 0.9088 0.32162 0.08176 0.0
O236 O 0.89435 0.41813 0.11673 0.0
O237 O 0.86246 0.36201 0.12119 0.0
O238 O 0.86394 0.38562 0.07159 0.0
O239 O 0.9255 0.38497 0.09472 0.0
H240 H 0.89175 0.42172 0.16368 0.0
H241 H 0.86613 0.44615 0.09712 0.0
H242 H 0.86587 0.4466 0.18504 0.0
H243 H 0.8408 0.4707 0.11965 0.0
H244 H 0.86593 0.28806 0.14771 0.0
H245 H 0.80318 0.33481 0.11642 0.0
H246 H 0.89141 0.3332 0.13773 0.0
H247 H 0.77929 0.28955 0.12651 0.0
H248 H 0.77122 0.39404 0.15759 0.0
H249 H 0.76004 0.40305 0.08223 0.0
H250 H 0.99481 0.41239 0.17815 0.0
H251 H 0.90671 0.3722 0.21091 0.0
H252 H 0.87899 0.36284 0.03518 0.0
H253 H 0.85577 0.42641 0.05572 0.0
H254 H 0.88403 0.37775 0.99337 0.0
H255 H 0.86122 0.44018 0.01352 0.0
H256 H 0.93851 0.37847 0.04985 0.0
H257 H 0.95158 0.36104 0.12271 0.0
H258 H 0.9714 0.35498 0.03699 0.0
H259 H 0.98429 0.33789 0.10858 0.0
H260 H 0.95072 0.49916 0.07163 0.0
H261 H 0.96353 0.4545 0.01352 0.0
H262 H 0.80047 0.29152 0.05531 0.0
H263 H 0.88447 0.27782 0.06845 0.0
Li264 Li 0.4075 0.89027 0.57131 0.0
Li265 Li 0.39208 0.87646 0.60962 0.0
Li266 Li 0.41578 0.85349 0.58319 0.0
Li267 Li 0.3607 0.85386 0.57657 0.0
C268 C 0.45792 0.90988 0.59773 0.0
N269 N 0.50455 0.95655 0.59693 0.0
C270 C 0.45132 0.93146 0.60214 0.0
C271 C 0.48838 0.912 0.59346 0.0
C272 C 0.47515 0.95489 0.60148 0.0
C273 C 0.5116 0.93578 0.593 0.0
C274 C 0.34993 0.89756 0.59952 0.0
C275 C 0.30232 0.89046 0.62062 0.0
N276 N 0.31234 0.91518 0.62651 0.0
C277 C 0.35963 0.92295 0.60559 0.0
C278 C 0.32093 0.88121 0.60693 0.0
C279 C 0.34035 0.93147 0.61932 0.0
C280 C 0.41399 0.93522 0.54619 0.0
N281 N 0.42675 0.91781 0.55107 0.0
C282 C 0.47003 0.93865 0.5263 0.0
C283 C 0.45405 0.91904 0.5414 0.0
C284 C 0.45754 0.9569 0.52109 0.0
C285 C 0.42919 0.9552 0.531 0.0
H286 H 0.3921 0.93354 0.55403 0.0
H287 H 0.46337 0.90471 0.54548 0.0
C288 C 0.41577 0.89739 0.6544 0.0
N289 N 0.38936 0.88409 0.64257 0.0
C290 C 0.41546 0.90041 0.67904 0.0
C291 C 0.36073 0.87619 0.67895 0.0
C292 C 0.36204 0.87385 0.65429 0.0
C293 C 0.3878 0.88923 0.69153 0.0
H294 H 0.43738 0.90472 0.64496 0.0
H295 H 0.34153 0.86272 0.64472 0.0
C296 C 0.39877 0.86474 0.53047 0.0
N297 N 0.40767 0.88065 0.48368 0.0
C298 C 0.37881 0.87495 0.5198 0.0
C299 C 0.42302 0.86231 0.51728 0.0
C300 C 0.38378 0.88299 0.49615 0.0
C301 C 0.42718 0.87053 0.49366 0.0
C302 C 0.37411 0.8284 0.62487 0.0
C303 C 0.40017 0.83051 0.63841 0.0
C304 C 0.3447 0.81512 0.63391 0.0
C305 C 0.39635 0.81927 0.66085 0.0
C306 C 0.34187 0.80424 0.65649 0.0
N307 N 0.36753 0.80652 0.66937 0.0
C308 C 0.46858 0.84379 0.56937 0.0
C309 C 0.42947 0.80979 0.58809 0.0
C310 C 0.48722 0.82949 0.5669 0.0
N311 N 0.44051 0.83382 0.58006 0.0
C312 C 0.44724 0.79484 0.58592 0.0
C313 C 0.47643 0.80477 0.57531 0.0
H314 H 0.47631 0.86274 0.56257 0.0
H315 H 0.40681 0.80222 0.59607 0.0
C316 C 0.30144 0.84307 0.55495 0.0
N317 N 0.32102 0.83362 0.5659 0.0
C318 C 0.27164 0.82714 0.54873 0.0
C319 C 0.28331 0.79227 0.56476 0.0
C320 C 0.31276 0.80876 0.5705 0.0
C321 C 0.26234 0.80152 0.55408 0.0
H322 H 0.30874 0.86299 0.55155 0.0
H323 H 0.32896 0.80183 0.57903 0.0
O324 O 0.43468 0.88681 0.59772 0.0
O325 O 0.36846 0.8889 0.58599 0.0
O326 O 0.39482 0.85747 0.55382 0.0
O327 O 0.3774 0.83946 0.60294 0.0
H328 H 0.42798 0.93008 0.60583 0.0
H329 H 0.49408 0.89551 0.59054 0.0
H330 H 0.47027 0.97175 0.60459 0.0
H331 H 0.53524 0.9377 0.58955 0.0
H332 H 0.27995 0.87794 0.62666 0.0
H333 H 0.38168 0.93603 0.59962 0.0
H334 H 0.3131 0.86147 0.60265 0.0
H335 H 0.34761 0.95106 0.6242 0.0
H336 H 0.49188 0.93961 0.51877 0.0
H337 H 0.41917 0.96918 0.52712 0.0
H338 H 0.43678 0.91037 0.68839 0.0
H339 H 0.33912 0.86711 0.68823 0.0
H340 H 0.36005 0.87709 0.52984 0.0
H341 H 0.43862 0.85438 0.52528 0.0
H342 H 0.36872 0.89118 0.48773 0.0
H343 H 0.44598 0.86894 0.48328 0.0
H344 H 0.42308 0.84087 0.63169 0.0
H345 H 0.3243 0.81349 0.62372 0.0
H346 H 0.41631 0.82077 0.67154 0.0
H347 H 0.31926 0.79403 0.66379 0.0
H348 H 0.5096 0.83749 0.55846 0.0
H349 H 0.43835 0.77571 0.59241 0.0
H350 H 0.25586 0.8347 0.54041 0.0
H351 H 0.27671 0.77253 0.56897 0.0
Li352 Li 0.49065 0.39247 0.13455 0.0
Li353 Li 0.49849 0.36157 0.10938 0.0
Li354 Li 0.54128 0.39753 0.11966 0.0
Li355 Li 0.5026 0.40104 0.09131 0.0
C356 C 0.49969 0.35488 0.15878 0.0
N357 N 0.46694 0.32189 0.19373 0.0
C358 C 0.4687 0.33997 0.15517 0.0
C359 C 0.51399 0.35295 0.18022 0.0
C360 C 0.45255 0.32343 0.17302 0.0
C361 C 0.49706 0.33617 0.19765 0.0
C362 C 0.4416 0.36023 0.09249 0.0
C363 C 0.42048 0.34424 0.05399 0.0
N364 N 0.39396 0.32927 0.06466 0.0
C365 C 0.41403 0.34482 0.10306 0.0
C366 C 0.4448 0.36004 0.06775 0.0
C367 C 0.39027 0.32924 0.0887 0.0
C368 C 0.43849 0.39176 0.16227 0.0
N369 N 0.46954 0.39748 0.16148 0.0
C370 C 0.47379 0.40348 0.20344 0.0
C371 C 0.4873 0.40383 0.18135 0.0
C372 C 0.44174 0.39653 0.20504 0.0
C373 C 0.42392 0.39138 0.18417 0.0
H374 H 0.42496 0.38639 0.14614 0.0
H375 H 0.51177 0.40765 0.18016 0.0
C376 C 0.51279 0.32056 0.11645 0.0
N377 N 0.49129 0.32679 0.10436 0.0
C378 C 0.51524 0.29736 0.11324 0.0
C379 C 0.47264 0.2865 0.08546 0.0
C380 C 0.47098 0.31025 0.08925 0.0
C381 C 0.49553 0.28029 0.09726 0.0
H382 H 0.52936 0.3342 0.12769 0.0
H383 H 0.45443 0.31568 0.07947 0.0
C384 C 0.54657 0.44412 0.12187 0.0
N385 N 0.59976 0.48604 0.12641 0.0
C386 C 0.55984 0.45854 0.10186 0.0
C387 C 0.56029 0.45111 0.1442 0.0
C388 C 0.58672 0.47965 0.10453 0.0
C389 C 0.58721 0.47232 0.14612 0.0
C390 C 0.54076 0.36727 0.07473 0.0
C391 C 0.56403 0.35952 0.08352 0.0
C392 C 0.52759 0.35862 0.05252 0.0
C393 C 0.57374 0.34328 0.06995 0.0
C394 C 0.53798 0.34242 0.03946 0.0
N395 N 0.56068 0.3352 0.04835 0.0
C396 C 0.59403 0.40078 0.14605 0.0
C397 C 0.60387 0.41883 0.10742 0.0
C398 C 0.62454 0.40224 0.1481 0.0
N399 N 0.58419 0.40825 0.12563 0.0
C400 C 0.63458 0.42067 0.10873 0.0
C401 C 0.64471 0.41142 0.1289 0.0
H402 H 0.57772 0.39214 0.16002 0.0
H403 H 0.59514 0.42402 0.0912 0.0
C404 C 0.47972 0.43353 0.06788 0.0
N405 N 0.49795 0.41976 0.06512 0.0
C406 C 0.48006 0.45132 0.05081 0.0
C407 C 0.51694 0.43957 0.02799 0.0
C408 C 0.51603 0.42211 0.04557 0.0
C409 C 0.49937 0.45476 0.03093 0.0
H410 H 0.46612 0.4315 0.0839 0.0
H411 H 0.53091 0.41138 0.04427 0.0
O412 O 0.51567 0.37206 0.14195 0.0
O413 O 0.46501 0.37574 0.10631 0.0
O414 O 0.5206 0.42305 0.11956 0.0
O415 O 0.53115 0.3834 0.08767 0.0
H416 H 0.45719 0.3412 0.13883 0.0
H417 H 0.53783 0.36447 0.18352 0.0
H418 H 0.42855 0.31187 0.17044 0.0
H419 H 0.50784 0.33458 0.21434 0.0
H420 H 0.42272 0.34385 0.03483 0.0
H421 H 0.41095 0.34492 0.12216 0.0
H422 H 0.46583 0.37182 0.05924 0.0
H423 H 0.36887 0.31717 0.09665 0.0
H424 H 0.48806 0.40745 0.2193 0.0
H425 H 0.39908 0.38592 0.18499 0.0
H426 H 0.53335 0.29318 0.12238 0.0
H427 H 0.45726 0.27364 0.07285 0.0
H428 H 0.54969 0.45345 0.08443 0.0
H429 H 0.5505 0.44012 0.15985 0.0
H430 H 0.59726 0.49093 0.08918 0.0
H431 H 0.59817 0.47785 0.16328 0.0
H432 H 0.57418 0.36562 0.1008 0.0
H433 H 0.50961 0.36436 0.04536 0.0
H434 H 0.5916 0.33705 0.07661 0.0
H435 H 0.52799 0.3356 0.02225 0.0
H436 H 0.63179 0.39482 0.16379 0.0
H437 H 0.64968 0.42762 0.09357 0.0
H438 H 0.46639 0.46293 0.05349 0.0
H439 H 0.53216 0.44202 0.01283 0.0
Li440 Li 0.09065 0.60409 0.61753 0.0
Li441 Li 0.13517 0.59851 0.59635 0.0
Li442 Li 0.11411 0.63055 0.58503 0.0
Li443 Li 0.0841 0.58841 0.57683 0.0
C444 C 0.14262 0.63566 0.63741 0.0
N445 N 0.15934 0.65222 0.68338 0.0
C446 C 0.15746 0.62363 0.65188 0.0
C447 C 0.1364 0.65618 0.64625 0.0
C448 C 0.16561 0.63222 0.67512 0.0
C449 C 0.14511 0.66431 0.66952 0.0
C450 C 0.07515 0.54882 0.60479 0.0
C451 C 0.06175 0.50638 0.59068 0.0
N452 N 0.03337 0.5003 0.60075 0.0
C453 C 0.04586 0.54218 0.61498 0.0
C454 C 0.08321 0.53083 0.59252 0.0
C455 C 0.02506 0.51754 0.61274 0.0
C456 C 0.05455 0.6138 0.65474 0.0
N457 N 0.07376 0.60169 0.64844 0.0
C458 C 0.07638 0.58898 0.68857 0.0
C459 C 0.08396 0.58879 0.66461 0.0
C460 C 0.05796 0.60239 0.69575 0.0
C461 C 0.04615 0.61431 0.67858 0.0
H462 H 0.04661 0.62372 0.64146 0.0
H463 H 0.0991 0.57927 0.65897 0.0
C464 C 0.19846 0.61053 0.59501 0.0
N465 N 0.17158 0.59148 0.60006 0.0
C466 C 0.22652 0.60721 0.59773 0.0
C467 C 0.19877 0.56488 0.61143 0.0
C468 C 0.17112 0.56898 0.60829 0.0
C469 C 0.22674 0.58418 0.60598 0.0
H470 H 0.19804 0.62841 0.58914 0.0
H471 H 0.14939 0.55437 0.61264 0.0
C472 C 0.05745 0.63085 0.58353 0.0
N473 N 0.03423 0.66646 0.56833 0.0
C474 C 0.04041 0.62717 0.56243 0.0
C475 C 0.06252 0.65254 0.59698 0.0
C476 C 0.02887 0.64541 0.55504 0.0
C477 C 0.05066 0.67036 0.58896 0.0
C478 C 0.13264 0.62045 0.5432 0.0
C479 C 0.10958 0.61987 0.52697 0.0
C480 C 0.16328 0.63554 0.53854 0.0
C481 C 0.11757 0.63449 0.50636 0.0
C482 C 0.17032 0.64994 0.51776 0.0
N483 N 0.14751 0.64912 0.50224 0.0
C484 C 0.15693 0.67851 0.58445 0.0
C485 C 0.11771 0.6741 0.55589 0.0
C486 C 0.17279 0.70304 0.57726 0.0
N487 N 0.12987 0.66455 0.57387 0.0
C488 C 0.13287 0.6988 0.54816 0.0
C489 C 0.16089 0.71331 0.55886 0.0
H490 H 0.16676 0.6704 0.59809 0.0
H491 H 0.09676 0.66249 0.54713 0.0
C492 C 0.02607 0.5573 0.55868 0.0
N493 N 0.05715 0.56463 0.55605 0.0
C494 C 0.00643 0.53862 0.544 0.0
C495 C 0.05129 0.53548 0.52439 0.0
C496 C 0.07002 0.55422 0.53938 0.0
C497 C 0.01921 0.52756 0.52675 0.0
H498 H 0.01664 0.56574 0.57238 0.0
H499 H 0.09485 0.56026 0.53802 0.0
O500 O 0.13438 0.62752 0.61462 0.0
O501 O 0.0956 0.57295 0.6064 0.0
O502 O 0.06856 0.61305 0.59119 0.0
O503 O 0.12517 0.60669 0.56374 0.0
H504 H 0.16237 0.60767 0.64534 0.0
H505 H 0.12505 0.66575 0.63523 0.0
H506 H 0.17693 0.623 0.68658 0.0
H507 H 0.14045 0.68017 0.67661 0.0
H508 H 0.06759 0.49228 0.58114 0.0
H509 H 0.03918 0.55596 0.62434 0.0
H510 H 0.10565 0.53577 0.58425 0.0
H511 H 0.00227 0.51214 0.62047 0.0
H512 H 0.08577 0.57962 0.7015 0.0
H513 H 0.03184 0.62478 0.68373 0.0
H514 H 0.24787 0.62248 0.59363 0.0
H515 H 0.1984 0.54698 0.61802 0.0
H516 H 0.03625 0.61049 0.55181 0.0
H517 H 0.07578 0.65573 0.61328 0.0
H518 H 0.01573 0.64286 0.53871 0.0
H519 H 0.05459 0.68732 0.5991 0.0
H520 H 0.0857 0.60855 0.53039 0.0
H521 H 0.18141 0.6363 0.55092 0.0
H522 H 0.09993 0.63432 0.49372 0.0
H523 H 0.19391 0.66182 0.51401 0.0
H524 H 0.19455 0.7138 0.58569 0.0
H525 H 0.12333 0.70628 0.53373 0.0
H526 H 0.98167 0.53266 0.5462 0.0
H527 H 0.06164 0.5271 0.51125 0.0
Li528 Li 0.85333 0.37546 0.37844 0.0
Li529 Li 0.89925 0.38981 0.40543 0.0
Li530 Li 0.9012 0.37543 0.36339 0.0
Li531 Li 0.8757 0.3462 0.39334 0.0
C532 C 0.88033 0.4233 0.3707 0.0
N533 N 0.85368 0.45873 0.36306 0.0
C534 C 0.88027 0.44008 0.3888 0.0
C535 C 0.86709 0.42473 0.34864 0.0
C536 C 0.86665 0.45783 0.38459 0.0
C537 C 0.85363 0.4427 0.34516 0.0
C538 C 0.83763 0.35024 0.4273 0.0
C539 C 0.82701 0.32917 0.46527 0.0
N540 N 0.79797 0.31546 0.45773 0.0
C541 C 0.8077 0.33593 0.4199 0.0
C542 C 0.84742 0.34684 0.45014 0.0
C543 C 0.78801 0.31842 0.43556 0.0
C544 C 0.79832 0.37123 0.35306 0.0
N545 N 0.81575 0.38052 0.37276 0.0
C546 C 0.77871 0.39691 0.38749 0.0
C547 C 0.80658 0.39318 0.38983 0.0
C548 C 0.76019 0.38735 0.36749 0.0
C549 C 0.77023 0.37457 0.34998 0.0
H550 H 0.80593 0.36089 0.33998 0.0
H551 H 0.82082 0.40009 0.40541 0.0
C552 C 0.94956 0.42777 0.42534 0.0
N553 N 0.91969 0.41288 0.4292 0.0
C554 C 0.96512 0.44615 0.44191 0.0
C555 C 0.91883 0.43339 0.46604 0.0
C556 C 0.90413 0.41528 0.44898 0.0
C557 C 0.94957 0.44905 0.4624 0.0
H558 H 0.96109 0.42548 0.40927 0.0
H559 H 0.88018 0.40347 0.45124 0.0
C560 C 0.86335 0.33949 0.3388 0.0
N561 N 0.87202 0.32313 0.29399 0.0
C562 C 0.87102 0.31813 0.33626 0.0
C563 C 0.85993 0.35244 0.31852 0.0
C564 C 0.87529 0.31016 0.31346 0.0
C565 C 0.8645 0.34392 0.29604 0.0
C566 C 0.93543 0.35382 0.40263 0.0
C567 C 0.9366 0.33266 0.39082 0.0
C568 C 0.95014 0.36071 0.42464 0.0
C569 C 0.95231 0.31862 0.40134 0.0
C570 C 0.96568 0.3462 0.43454 0.0
N571 N 0.96641 0.32563 0.42279 0.0
C572 C 0.93151 0.40366 0.32388 0.0
C573 C 0.94029 0.36579 0.32864 0.0
C574 C 0.94865 0.40886 0.3029 0.0
N575 N 0.92736 0.38228 0.33613 0.0
C576 C 0.95754 0.37017 0.30766 0.0
C577 C 0.96277 0.39233 0.29433 0.0
H578 H 0.92079 0.41642 0.33005 0.0
H579 H 0.9363 0.3487 0.33846 0.0
C580 C 0.83845 0.29575 0.39474 0.0
N581 N 0.86345 0.31275 0.40557 0.0
C582 C 0.82515 0.27154 0.40379 0.0
C583 C 0.86388 0.2824 0.43479 0.0
C584 C 0.87611 0.30663 0.4254 0.0
C585 C 0.83769 0.26481 0.42418 0.0
H586 H 0.82815 0.30129 0.37954 0.0
H587 H 0.89494 0.3207 0.43447 0.0
O588 O 0.89274 0.40528 0.37471 0.0
O589 O 0.85736 0.36726 0.41214 0.0
O590 O 0.85962 0.34787 0.36101 0.0
O591 O 0.9204 0.36797 0.39258 0.0
H592 H 0.89036 0.43931 0.40598 0.0
H593 H 0.8667 0.41181 0.33448 0.0
H594 H 0.86631 0.47084 0.39848 0.0
H595 H 0.84302 0.44382 0.32826 0.0
H596 H 0.83429 0.32627 0.48297 0.0
H597 H 0.79986 0.33813 0.40219 0.0
H598 H 0.87066 0.35754 0.45601 0.0
H599 H 0.76482 0.30714 0.43005 0.0
H600 H 0.77135 0.4067 0.40134 0.0
H601 H 0.75618 0.36684 0.33444 0.0
H602 H 0.98887 0.45812 0.43872 0.0
H603 H 0.90634 0.43543 0.4817 0.0
H604 H 0.87405 0.30798 0.35172 0.0
H605 H 0.85436 0.36915 0.32013 0.0
H606 H 0.88138 0.29374 0.31125 0.0
H607 H 0.8622 0.3539 0.28021 0.0
H608 H 0.92497 0.32682 0.37398 0.0
H609 H 0.94947 0.37701 0.43404 0.0
H610 H 0.9532 0.30209 0.39249 0.0
H611 H 0.9771 0.35128 0.45159 0.0
H612 H 0.94928 0.42532 0.29315 0.0
H613 H 0.96522 0.35545 0.30205 0.0
H614 H 0.80481 0.25834 0.39531 0.0
H615 H 0.8739 0.27772 0.45067 0.0
Li616 Li 0.38616 0.87416 0.87644 0.0
Li617 Li 0.40285 0.89077 0.91492 0.0
Li618 Li 0.40209 0.84965 0.90536 0.0
Li619 Li 0.3528 0.85789 0.91287 0.0
C620 C 0.44709 0.88917 0.87211 0.0
N621 N 0.48635 0.90452 0.83356 0.0
C622 C 0.4641 0.91464 0.86859 0.0
C623 C 0.45034 0.87149 0.85621 0.0
C624 C 0.48378 0.92203 0.84896 0.0
C625 C 0.47019 0.87963 0.83676 0.0
C626 C 0.36486 0.91462 0.90148 0.0
C627 C 0.34051 0.94133 0.9188 0.0
N628 N 0.36311 0.96173 0.90951 0.0
C629 C 0.38776 0.93581 0.892 0.0
C630 C 0.34098 0.91733 0.91493 0.0
C631 C 0.38651 0.95948 0.89632 0.0
C632 C 0.367 0.86044 0.82958 0.0
N633 N 0.38433 0.88012 0.84325 0.0
C634 C 0.40087 0.90611 0.80882 0.0
C635 C 0.40049 0.90287 0.83347 0.0
C636 C 0.38402 0.88582 0.79436 0.0
C637 C 0.36652 0.86289 0.8049 0.0
H638 H 0.35393 0.84271 0.8378 0.0
H639 H 0.41368 0.91834 0.84469 0.0
C640 C 0.45799 0.92218 0.93365 0.0
N641 N 0.42757 0.919 0.9329 0.0
C642 C 0.47833 0.94086 0.94781 0.0
C643 C 0.43571 0.95288 0.96007 0.0
C644 C 0.41606 0.93362 0.946 0.0
C645 C 0.46712 0.95643 0.96108 0.0
H646 H 0.46631 0.90971 0.92373 0.0
H647 H 0.39161 0.92995 0.94609 0.0
C648 C 0.35569 0.81384 0.88151 0.0
N649 N 0.34098 0.76333 0.87248 0.0
C650 C 0.33213 0.79595 0.89433 0.0
C651 C 0.37152 0.80604 0.86392 0.0
C652 C 0.32508 0.7705 0.88953 0.0
C653 C 0.36383 0.78042 0.8597 0.0
C654 C 0.3961 0.86804 0.95714 0.0
C655 C 0.42384 0.86708 0.96576 0.0
C656 C 0.37848 0.87768 0.9715 0.0
C657 C 0.43352 0.87579 0.98874 0.0
C658 C 0.38895 0.8862 0.99438 0.0
N659 N 0.41598 0.88502 0.00247 0.0
C660 C 0.45517 0.83794 0.90861 0.0
C661 C 0.40928 0.80325 0.91658 0.0
C662 C 0.473 0.82313 0.9119 0.0
N663 N 0.4239 0.82771 0.91048 0.0
C664 C 0.42617 0.78768 0.91975 0.0
C665 C 0.45831 0.79766 0.91715 0.0
H666 H 0.46631 0.85763 0.90451 0.0
H667 H 0.38457 0.7958 0.9189 0.0
C668 C 0.28888 0.8453 0.91031 0.0
N669 N 0.31207 0.84429 0.92437 0.0
C670 C 0.25821 0.83305 0.91709 0.0
C671 C 0.27603 0.81932 0.95289 0.0
C672 C 0.30632 0.83181 0.94537 0.0
C673 C 0.25083 0.81983 0.93895 0.0
H674 H 0.29424 0.85479 0.8933 0.0
H675 H 0.32529 0.83058 0.95579 0.0
O676 O 0.42737 0.8816 0.89103 0.0
O677 O 0.36553 0.89127 0.8974 0.0
O678 O 0.3629 0.83885 0.88594 0.0
O679 O 0.38613 0.85943 0.93479 0.0
H680 H 0.46183 0.92858 0.88072 0.0
H681 H 0.43764 0.85171 0.85885 0.0
H682 H 0.49693 0.94169 0.84591 0.0
H683 H 0.47277 0.86616 0.82423 0.0
H684 H 0.32222 0.94374 0.92922 0.0
H685 H 0.40659 0.93404 0.88183 0.0
H686 H 0.32307 0.90109 0.92237 0.0
H687 H 0.4042 0.97607 0.88925 0.0
H688 H 0.41459 0.92402 0.80108 0.0
H689 H 0.35326 0.84694 0.79409 0.0
H690 H 0.50244 0.94304 0.9486 0.0
H691 H 0.42645 0.96443 0.97055 0.0
H692 H 0.31951 0.80159 0.90791 0.0
H693 H 0.38952 0.8196 0.85362 0.0
H694 H 0.30699 0.75646 0.89938 0.0
H695 H 0.376 0.77413 0.84621 0.0
H696 H 0.43776 0.85971 0.95481 0.0
H697 H 0.35706 0.87873 0.96498 0.0
H698 H 0.45496 0.8752 0.99566 0.0
H699 H 0.37561 0.89377 0.00569 0.0
H700 H 0.49783 0.83129 0.90994 0.0
H701 H 0.41434 0.76805 0.924 0.0
H702 H 0.24096 0.83303 0.90426 0.0
H703 H 0.27319 0.80828 0.96885 0.0
Li704 Li 0.50491 0.39939 0.41491 0.0
Li705 Li 0.49769 0.35682 0.40616 0.0
Li706 Li 0.54185 0.39055 0.39063 0.0
Li707 Li 0.489 0.38213 0.37384 0.0
C708 C 0.53675 0.38601 0.44774 0.0
N709 N 0.54582 0.39647 0.49581 0.0
C710 C 0.52009 0.36829 0.46458 0.0
C711 C 0.55817 0.409 0.45536 0.0
C712 C 0.52501 0.37393 0.4888 0.0
C713 C 0.56235 0.41396 0.47974 0.0
C714 C 0.43907 0.354 0.41147 0.0
C715 C 0.38953 0.32241 0.4024 0.0
N716 N 0.38494 0.31697 0.426 0.0
C717 C 0.43385 0.34814 0.43563 0.0
C718 C 0.41678 0.34105 0.39468 0.0
C719 C 0.40636 0.32932 0.44262 0.0
C720 C 0.51064 0.44729 0.42966 0.0
N721 N 0.50083 0.42304 0.43709 0.0
C722 C 0.49108 0.43493 0.47616 0.0
C723 C 0.4903 0.41648 0.45964 0.0
C724 C 0.50205 0.46012 0.46905 0.0
C725 C 0.51137 0.46626 0.44544 0.0
H726 H 0.51838 0.45199 0.41156 0.0
H727 H 0.4822 0.39707 0.46503 0.0
C728 C 0.51635 0.32015 0.422 0.0
N729 N 0.48953 0.32315 0.41618 0.0
C730 C 0.51715 0.29633 0.42532 0.0
C731 C 0.46216 0.27882 0.41822 0.0
C732 C 0.46254 0.30313 0.41445 0.0
C733 C 0.49004 0.27535 0.42275 0.0
H734 H 0.5376 0.33628 0.42265 0.0
H735 H 0.4417 0.3057 0.40893 0.0
C736 C 0.54599 0.43275 0.37274 0.0
N737 N 0.5968 0.46739 0.35086 0.0
C738 C 0.5466 0.43562 0.34801 0.0
C739 C 0.5711 0.44766 0.38637 0.0
C740 C 0.57253 0.45321 0.33728 0.0
C741 C 0.59661 0.46501 0.37497 0.0
C742 C 0.51149 0.33882 0.36403 0.0
C743 C 0.53671 0.33101 0.36442 0.0
C744 C 0.48365 0.32339 0.35389 0.0
C745 C 0.53368 0.30787 0.35445 0.0
C746 C 0.48159 0.30043 0.34402 0.0
N747 N 0.50647 0.29325 0.34444 0.0
C748 C 0.60377 0.3996 0.40061 0.0
C749 C 0.59207 0.39708 0.35931 0.0
C750 C 0.63342 0.40022 0.39588 0.0
N751 N 0.5837 0.39765 0.38246 0.0
C752 C 0.62164 0.39767 0.35375 0.0
C753 C 0.64226 0.39867 0.37229 0.0
H754 H 0.59626 0.39939 0.41882 0.0
H755 H 0.57532 0.39489 0.3453 0.0
C756 C 0.44135 0.38846 0.34537 0.0
N757 N 0.46743 0.38288 0.34564 0.0
C758 C 0.42726 0.38996 0.32369 0.0
C759 C 0.46735 0.38008 0.30334 0.0
C760 C 0.48036 0.37848 0.32528 0.0
C761 C 0.44076 0.38616 0.30242 0.0
H762 H 0.43174 0.39198 0.36194 0.0
H763 H 0.50124 0.3743 0.32611 0.0
O764 O 0.53216 0.38089 0.42392 0.0
O765 O 0.46554 0.3727 0.40431 0.0
O766 O 0.52116 0.4152 0.38356 0.0
O767 O 0.51427 0.36172 0.37305 0.0
H768 H 0.50328 0.35047 0.45905 0.0
H769 H 0.57116 0.42299 0.4426 0.0
H770 H 0.51218 0.36044 0.50202 0.0
H771 H 0.57865 0.43175 0.48588 0.0
H772 H 0.37209 0.3122 0.38962 0.0
H773 H 0.45091 0.35789 0.44881 0.0
H774 H 0.42051 0.34523 0.3759 0.0
H775 H 0.40205 0.32453 0.46125 0.0
H776 H 0.48358 0.4297 0.4943 0.0
H777 H 0.51972 0.48558 0.43947 0.0
H778 H 0.53902 0.29423 0.42878 0.0
H779 H 0.44087 0.26288 0.4161 0.0
H780 H 0.52734 0.42436 0.3372 0.0
H781 H 0.57101 0.44564 0.40553 0.0
H782 H 0.57337 0.45557 0.31814 0.0
H783 H 0.61629 0.47654 0.38529 0.0
H784 H 0.55838 0.34271 0.37231 0.0
H785 H 0.46389 0.32916 0.35357 0.0
H786 H 0.55299 0.30156 0.35461 0.0
H787 H 0.46023 0.28831 0.33603 0.0
H788 H 0.64885 0.40074 0.41051 0.0
H789 H 0.62784 0.39615 0.33538 0.0
H790 H 0.40662 0.39457 0.32343 0.0
H791 H 0.47819 0.377 0.28716 0.0
Li792 Li 0.0879 0.60375 0.91698 0.0
Li793 Li 0.1413 0.61233 0.89752 0.0
Li794 Li 0.11968 0.64546 0.90469 0.0
Li795 Li 0.09865 0.61567 0.87528 0.0
C796 C 0.144 0.64 0.94642 0.0
N797 N 0.17259 0.67353 0.98217 0.0
C798 C 0.17549 0.65428 0.94494 0.0
C799 C 0.12703 0.64275 0.96606 0.0
C800 C 0.18951 0.67118 0.96319 0.0
C801 C 0.14192 0.65981 0.98395 0.0
C802 C 0.08518 0.56602 0.87656 0.0
C803 C 0.0842 0.53475 0.84746 0.0
N804 N 0.05311 0.52814 0.84546 0.0
C805 C 0.0532 0.55882 0.87437 0.0
C806 C 0.10084 0.55384 0.86313 0.0
C807 C 0.03741 0.53967 0.85848 0.0
C808 C 0.0301 0.57634 0.93806 0.0
N809 N 0.06116 0.58407 0.94032 0.0
C810 C 0.05619 0.56481 0.97844 0.0
C811 C 0.07438 0.57785 0.95959 0.0
C812 C 0.02385 0.55876 0.97819 0.0
C813 C 0.011 0.56314 0.95651 0.0
H814 H 0.02016 0.58055 0.92194 0.0
H815 H 0.09918 0.58316 0.96034 0.0
C816 C 0.20429 0.62196 0.8925 0.0
N817 N 0.17678 0.60374 0.89778 0.0
C818 C 0.23118 0.61651 0.89233 0.0
C819 C 0.20094 0.57367 0.90322 0.0
C820 C 0.17455 0.57996 0.90315 0.0
C821 C 0.22955 0.59216 0.89776 0.0
H822 H 0.20526 0.6407 0.88837 0.0
H823 H 0.1523 0.56593 0.90737 0.0
C824 C 0.0618 0.64458 0.90358 0.0
N825 N 0.03547 0.67962 0.91411 0.0
C826 C 0.06444 0.66398 0.88759 0.0
C827 C 0.04545 0.64284 0.92481 0.0
C828 C 0.05109 0.68157 0.89328 0.0
C829 C 0.03236 0.66077 0.92983 0.0
C830 C 0.14901 0.64746 0.85376 0.0
C831 C 0.13854 0.66527 0.84369 0.0
C832 C 0.16689 0.6374 0.84013 0.0
C833 C 0.14558 0.67234 0.81996 0.0
C834 C 0.17344 0.64496 0.81645 0.0
N835 N 0.16269 0.66209 0.80692 0.0
C836 C 0.15888 0.6957 0.90303 0.0
C837 C 0.11963 0.68806 0.93217 0.0
C838 C 0.17219 0.72063 0.91023 0.0
N839 N 0.13315 0.67995 0.91406 0.0
C840 C 0.13195 0.71298 0.93973 0.0
C841 C 0.15885 0.72933 0.92895 0.0
H842 H 0.16968 0.68872 0.88913 0.0
H843 H 0.09998 0.67506 0.94134 0.0
C844 C 0.05708 0.61641 0.83823 0.0
N845 N 0.08164 0.60993 0.84398 0.0
C846 C 0.0469 0.61469 0.81463 0.0
C847 C 0.08668 0.59871 0.80371 0.0
C848 C 0.09587 0.60055 0.82743 0.0
C849 C 0.06242 0.60634 0.79713 0.0
H850 H 0.04594 0.62352 0.8518 0.0
H851 H 0.1151 0.59528 0.8325 0.0
O852 O 0.12981 0.62351 0.92866 0.0
O853 O 0.1011 0.58504 0.89168 0.0
O854 O 0.07457 0.62709 0.89826 0.0
O855 O 0.14207 0.6401 0.87692 0.0
H856 H 0.18888 0.65246 0.92979 0.0
H857 H 0.10256 0.63202 0.96735 0.0
H858 H 0.21384 0.68244 0.96224 0.0
H859 H 0.12908 0.66221 -0.00078 0.0
H860 H 0.09603 0.52524 0.83683 0.0
H861 H 0.0408 0.56818 0.88457 0.0
H862 H 0.12562 0.55927 0.86457 0.0
H863 H 0.01268 0.53403 0.85645 0.0
H864 H 0.06789 0.55931 0.99276 0.0
H865 H 0.9866 0.55624 0.95302 0.0
H866 H 0.25305 0.63111 0.88809 0.0
H867 H 0.19914 0.55473 0.9075 0.0
H868 H 0.07664 0.66544 0.87096 0.0
H869 H 0.0433 0.62809 0.93748 0.0
H870 H 0.05311 0.69675 0.88112 0.0
H871 H 0.01985 0.65975 0.94627 0.0
H872 H 0.12515 0.67355 0.8541 0.0
H873 H 0.17512 0.62354 0.84759 0.0
H874 H 0.13746 0.68599 0.8119 0.0
H875 H 0.18697 0.63712 0.80562 0.0
H876 H 0.19306 0.73289 0.90165 0.0
H877 H 0.12131 0.71922 0.95434 0.0
H878 H 0.02803 0.62066 0.80993 0.0
H879 H 0.09898 0.59215 0.7905 0.0
Li880 Li 0.59033 0.14349 0.40646 0.0
Li881 Li 0.64247 0.13707 0.41177 0.0
Li882 Li 0.60957 0.12052 0.37642 0.0
Li883 Li 0.59341 0.10351 0.41432 0.0
C884 C 0.63724 0.1685 0.36569 0.0
N885 N 0.65288 0.19129 0.32177 0.0
C886 C 0.66759 0.17584 0.35749 0.0
C887 C 0.61483 0.17276 0.3516 0.0
C888 C 0.67504 0.18732 0.33521 0.0
C889 C 0.6232 0.18431 0.32943 0.0
C890 C 0.60281 0.12524 0.45774 0.0
C891 C 0.61236 0.1025 0.49111 0.0
N892 N 0.58952 0.10664 0.50349 0.0
C893 C 0.5797 0.12956 0.4709 0.0
C894 C 0.61953 0.11187 0.46801 0.0
C895 C 0.57323 0.1199 0.49396 0.0
C896 C 0.54002 0.15497 0.42253 0.0
N897 N 0.56821 0.1648 0.41201 0.0
C898 C 0.56346 0.2048 0.40862 0.0
C899 C 0.58028 0.18923 0.40524 0.0
C900 C 0.53418 0.19502 0.41915 0.0
C901 C 0.5224 0.16988 0.42628 0.0
H902 H 0.53123 0.13552 0.42794 0.0
H903 H 0.60284 0.19653 0.39705 0.0
C904 C 0.70657 0.1499 0.4094 0.0
N905 N 0.68329 0.15171 0.42284 0.0
C906 C 0.73718 0.16219 0.41633 0.0
C907 C 0.71911 0.17756 0.45105 0.0
C908 C 0.68888 0.165 0.44339 0.0
C909 C 0.74439 0.17622 0.43776 0.0
H910 H 0.70135 0.13958 0.39281 0.0
H911 H 0.66981 0.16657 0.45344 0.0
C912 C 0.54314 0.09068 0.38558 0.0
N913 N 0.49311 0.04682 0.37855 0.0
C914 C 0.5475 0.06924 0.37713 0.0
C915 C 0.51326 0.08993 0.39013 0.0
C916 C 0.52195 0.04721 0.37379 0.0
C917 C 0.48827 0.06755 0.38654 0.0
C918 C 0.64057 0.08451 0.39846 0.0
C919 C 0.63227 0.0657 0.3811 0.0
C920 C 0.66001 0.08352 0.41712 0.0
C921 C 0.64275 0.04577 0.38315 0.0
C922 C 0.67002 0.06329 0.41854 0.0
N923 N 0.6612 0.04496 0.4017 0.0
C924 C 0.63899 0.1162 0.33381 0.0
C925 C 0.58613 0.11082 0.32974 0.0
C926 C 0.64165 0.11384 0.30925 0.0
N927 N 0.61162 0.11494 0.34341 0.0
C928 C 0.58766 0.10805 0.30515 0.0
C929 C 0.61576 0.10984 0.29476 0.0
H930 H 0.65886 0.11964 0.34522 0.0
H931 H 0.56481 0.11023 0.33787 0.0
C932 C 0.544 0.0764 0.4416 0.0
N933 N 0.56972 0.07444 0.43169 0.0
C934 C 0.5246 0.0572 0.45568 0.0
C935 C 0.55801 0.03382 0.44868 0.0
C936 C 0.57693 0.05362 0.43476 0.0
C937 C 0.53176 0.03578 0.45936 0.0
H938 H 0.53882 0.09315 0.43876 0.0
H939 H 0.59733 0.05234 0.42672 0.0
O940 O 0.62937 0.15684 0.38725 0.0
O941 O 0.60906 0.13412 0.43494 0.0
O942 O 0.56801 0.11221 0.38961 0.0
O943 O 0.6308 0.1043 0.3966 0.0
H944 H 0.68517 0.1726 0.36816 0.0
H945 H 0.59116 0.16695 0.35763 0.0
H946 H 0.69842 0.19305 0.32858 0.0
H947 H 0.60609 0.18762 0.31828 0.0
H948 H 0.62493 0.09191 0.49919 0.0
H949 H 0.56677 0.14013 0.46336 0.0
H950 H 0.63766 0.10859 0.45819 0.0
H951 H 0.55524 0.12292 0.50428 0.0
H952 H 0.573 0.22419 0.40291 0.0
H953 H 0.49981 0.1619 0.43441 0.0
H954 H 0.75458 0.16151 0.40396 0.0
H955 H 0.72185 0.18913 0.46662 0.0
H956 H 0.57042 0.06956 0.37347 0.0
H957 H 0.50937 0.10641 0.39639 0.0
H958 H 0.52506 0.03042 0.36746 0.0
H959 H 0.46504 0.06667 0.39011 0.0
H960 H 0.61811 0.06655 0.36609 0.0
H961 H 0.66747 0.09827 0.4303 0.0
H962 H 0.63635 0.03102 0.36993 0.0
H963 H 0.6849 0.06221 0.43298 0.0
H964 H 0.66367 0.11549 0.30158 0.0
H965 H 0.56743 0.10522 0.29427 0.0
H966 H 0.50443 0.0591 0.4638 0.0
H967 H 0.56394 0.01735 0.45138 0.0
Li968 Li 0.50095 0.63895 0.91025 0.0
Li969 Li 0.49843 0.59738 0.91811 0.0
Li970 Li 0.50441 0.61348 0.87733 0.0
Li971 Li 0.45589 0.60428 0.8987 0.0
C972 C 0.55908 0.64121 0.9155 0.0
N973 N 0.60973 0.67471 0.93853 0.0
C974 C 0.55839 0.64452 0.94012 0.0
C975 C 0.58552 0.65483 0.90258 0.0
C976 C 0.58424 0.66159 0.95144 0.0
C977 C 0.6109 0.6717 0.91456 0.0
C978 C 0.45126 0.59847 0.94734 0.0
C979 C 0.41746 0.55716 0.95937 0.0
N980 N 0.41045 0.56707 0.97958 0.0
C981 C 0.44369 0.60823 0.96822 0.0
C982 C 0.43799 0.57271 0.94284 0.0
C983 C 0.42301 0.59206 0.98429 0.0
C984 C 0.48456 0.67472 0.93115 0.0
N985 N 0.50987 0.67227 0.92106 0.0
C986 C 0.53402 0.71674 0.91722 0.0
C987 C 0.53492 0.69265 0.91487 0.0
C988 C 0.50698 0.71941 0.92572 0.0
C989 C 0.48268 0.69828 0.93377 0.0
H990 H 0.46469 0.6582 0.93526 0.0
H991 H 0.55441 0.69022 0.90625 0.0
C992 C 0.51125 0.55476 0.92885 0.0
N993 N 0.50802 0.57531 0.93882 0.0
C994 C 0.51276 0.5354 0.94327 0.0
C995 C 0.50905 0.55936 0.97792 0.0
C996 C 0.50776 0.57831 0.96283 0.0
C997 C 0.51079 0.53742 0.96802 0.0
H998 H 0.51137 0.55299 0.90969 0.0
H999 H 0.505 0.59482 0.97024 0.0
C1000 C 0.48849 0.65524 0.86601 0.0
N1001 N 0.50838 0.69687 0.83676 0.0
C1002 C 0.46711 0.66404 0.85547 0.0
C1003 C 0.51997 0.6676 0.86169 0.0
C1004 C 0.47762 0.68506 0.84065 0.0
C1005 C 0.52957 0.68868 0.84692 0.0
C1006 C 0.46075 0.56631 0.86975 0.0
C1007 C 0.44608 0.57639 0.85308 0.0
C1008 C 0.46099 0.54219 0.86626 0.0
C1009 C 0.43204 0.56221 0.83316 0.0
C1010 C 0.44667 0.52859 0.84611 0.0
N1011 N 0.43264 0.5388 0.83011 0.0
C1012 C 0.5426 0.60057 0.84458 0.0
C1013 C 0.50761 0.61749 0.82757 0.0
C1014 C 0.55165 0.59569 0.82192 0.0
N1015 N 0.52075 0.61109 0.8469 0.0
C1016 C 0.51621 0.61331 0.80477 0.0
C1017 C 0.5381 0.602 0.80181 0.0
H1018 H 0.55211 0.59516 0.86031 0.0
H1019 H 0.48946 0.62489 0.82976 0.0
C1020 C 0.40344 0.61514 0.89846 0.0
N1021 N 0.41265 0.59522 0.89667 0.0
C1022 C 0.3722 0.61152 0.89834 0.0
C1023 C 0.36034 0.56683 0.89452 0.0
C1024 C 0.39198 0.57132 0.89476 0.0
C1025 C 0.3504 0.58717 0.8964 0.0
H1026 H 0.4205 0.63384 0.90027 0.0
H1027 H 0.4 0.55581 0.89371 0.0
O1028 O 0.53394 0.62479 0.90406 0.0
O1029 O 0.47155 0.61421 0.93152 0.0
O1030 O 0.4784 0.63408 0.87978 0.0
O1031 O 0.47552 0.58008 0.88907 0.0
H1032 H 0.53798 0.63425 0.95031 0.0
H1033 H 0.58635 0.65242 0.88349 0.0
H1034 H 0.584 0.66445 0.97047 0.0
H1035 H 0.63151 0.68243 0.9048 0.0
H1036 H 0.40713 0.53719 0.95614 0.0
H1037 H 0.45377 0.62811 0.97199 0.0
H1038 H 0.44353 0.5647 0.92686 0.0
H1039 H 0.41697 0.59938 0.00053 0.0
H1040 H 0.55298 0.7328 0.91062 0.0
H1041 H 0.46146 0.69982 0.94021 0.0
H1042 H 0.51417 0.51862 0.93524 0.0
H1043 H 0.50749 0.56132 0.99702 0.0
H1044 H 0.44264 0.65455 0.8585 0.0
H1045 H 0.53678 0.66087 0.86949 0.0
H1046 H 0.46133 0.69204 0.83232 0.0
H1047 H 0.55387 0.69844 0.84345 0.0
H1048 H 0.44564 0.59502 0.85534 0.0
H1049 H 0.47224 0.53407 0.87893 0.0
H1050 H 0.42074 0.56984 0.8201 0.0
H1051 H 0.44677 0.50992 0.84318 0.0
H1052 H 0.56829 0.58658 0.82007 0.0
H1053 H 0.50503 0.61798 0.78952 0.0
H1054 H 0.36506 0.62751 0.89992 0.0
H1055 H 0.34385 0.54782 0.89314 0.0
C1056 C 0.62321 0.13141 0.25525 0.0
C1057 C 0.61841 0.10918 0.2685 0.0
C1058 C 0.614 0.08516 0.2316 0.0
C1059 C 0.61954 0.10751 0.21839 0.0
N1060 N 0.63337 0.1524 0.21695 0.0
N1061 N 0.61323 0.06576 0.27023 0.0
C1062 C 0.62539 0.13081 0.23005 0.0
C1063 C 0.61505 0.08628 0.25693 0.0
N1064 N 0.62485 0.15292 0.26683 0.0
N1065 N 0.607 0.06283 0.21986 0.0
H1066 H 0.61291 0.06573 0.28881 0.0
H1067 H 0.61397 0.04921 0.26308 0.0
H1068 H 0.60732 0.06151 0.20133 0.0
H1069 H 0.5993 0.04543 0.22823 0.0
H1070 H 0.6245 0.16895 0.25827 0.0
H1071 H 0.62486 0.15443 0.28533 0.0
H1072 H 0.64141 0.17032 0.22428 0.0
H1073 H 0.63384 0.15259 0.1984 0.0
C1074 C 0.57069 0.60799 0.73941 0.0
C1075 C 0.5433 0.59313 0.72746 0.0
C1076 C 0.51983 0.57607 0.76566 0.0
C1077 C 0.54404 0.59509 0.77741 0.0
N1078 N 0.59338 0.6289 0.77615 0.0
N1079 N 0.49071 0.56348 0.72921 0.0
C1080 C 0.57014 0.61064 0.76455 0.0
C1081 C 0.51778 0.57675 0.74051 0.0
N1082 N 0.59688 0.61977 0.72656 0.0
N1083 N 0.49837 0.55787 0.77873 0.0
H1084 H 0.48779 0.56359 0.71083 0.0
H1085 H 0.47032 0.55374 0.73824 0.0
H1086 H 0.49945 0.5572 0.79729 0.0
H1087 H 0.48157 0.54223 0.77116 0.0
H1088 H 0.61829 0.62932 0.73429 0.0
H1089 H 0.59764 0.61791 0.70809 0.0
H1090 H 0.61126 0.6428 0.76744 0.0
H1091 H 0.59396 0.63087 0.79464 0.0
C1092 C 0.97182 0.37492 0.23216 0.0
C1093 C 0.96727 0.39566 0.22117 0.0
C1094 C 0.98351 0.41958 0.25797 0.0
C1095 C 0.97834 0.39678 0.27011 0.0
N1096 N 0.9957 0.36231 0.26552 0.0
N1097 N 0.97242 0.43929 0.22283 0.0
C1098 C 0.98067 0.3768 0.25645 0.0
C1099 C 0.9751 0.41878 0.23361 0.0
N1100 N 0.96713 0.35339 0.21965 0.0
N1101 N 0.9977 0.4417 0.26958 0.0
H1102 H 0.96628 0.43944 0.20498 0.0
H1103 H 0.97458 0.45566 0.23202 0.0
H1104 H 0.00522 0.442 0.28717 0.0
H1105 H 0.00449 0.45913 0.26123 0.0
H1106 H 0.967 0.33693 0.22772 0.0
H1107 H 0.96209 0.35182 0.20147 0.0
H1108 H 0.00029 0.34864 0.25563 0.0
H1109 H 0.00744 0.36681 0.28174 0.0
C1110 C 0.40317 0.87573 0.75558 0.0
C1111 C 0.38612 0.88795 0.76808 0.0
C1112 C 0.3736 0.90382 0.73046 0.0
C1113 C 0.38769 0.88927 0.71792 0.0
N1114 N 0.41123 0.85791 0.71827 0.0
N1115 N 0.35177 0.91102 0.76774 0.0
C1116 C 0.40127 0.87429 0.7304 0.0
C1117 C 0.37046 0.90138 0.75562 0.0
N1118 N 0.42184 0.86609 0.76776 0.0
N1119 N 0.36395 0.92041 0.71838 0.0
H1120 H 0.34906 0.90971 0.78619 0.0
H1121 H 0.33713 0.9186 0.75939 0.0
H1122 H 0.36588 0.92263 0.69993 0.0
H1123 H 0.35644 0.93341 0.72675 0.0
H1124 H 0.4373 0.85935 0.75943 0.0
H1125 H 0.42406 0.86694 0.78627 0.0
H1126 H 0.41806 0.84451 0.72663 0.0
H1127 H 0.41012 0.85613 0.69979 0.0
C1128 C 0.41518 0.36685 0.26476 0.0
C1129 C 0.42816 0.38873 0.27875 0.0
C1130 C 0.43314 0.41466 0.24327 0.0
C1131 C 0.42781 0.39307 0.22908 0.0
N1132 N 0.41195 0.34811 0.22569 0.0
N1133 N 0.44777 0.43382 0.28209 0.0
C1134 C 0.41735 0.36888 0.23959 0.0
C1135 C 0.4358 0.41281 0.26833 0.0
N1136 N 0.40175 0.34419 0.27575 0.0
N1137 N 0.43667 0.43693 0.23249 0.0
H1138 H 0.44947 0.43312 0.30057 0.0
H1139 H 0.45728 0.45188 0.27516 0.0
H1140 H 0.43489 0.43837 0.21405 0.0
H1141 H 0.43843 0.45315 0.24177 0.0
H1142 H 0.38975 0.32764 0.26667 0.0
H1143 H 0.40019 0.34254 0.29427 0.0
H1144 H 0.40818 0.33032 0.23252 0.0
H1145 H 0.41265 0.34884 0.20714 0.0
C1146 C 0.0333 0.58503 0.73468 0.0
C1147 C 0.05359 0.6055 0.72153 0.0
C1148 C 0.0718 0.62909 0.75842 0.0
C1149 C 0.05529 0.60719 0.77155 0.0
N1150 N 0.02016 0.5643 0.77307 0.0
N1151 N 0.09311 0.64684 0.72033 0.0
C1152 C 0.03561 0.58521 0.75994 0.0
C1153 C 0.07273 0.6277 0.73321 0.0
N1154 N 0.01184 0.56556 0.7229 0.0
N1155 N 0.08679 0.65114 0.77012 0.0
H1156 H 0.09391 0.64691 0.70179 0.0
H1157 H 0.11052 0.66203 0.72793 0.0
H1158 H 0.08711 0.65267 0.78863 0.0
H1159 H 0.0967 0.66835 0.76158 0.0
H1160 H 0.99456 0.55099 0.73138 0.0
H1161 H 0.00975 0.56508 0.70438 0.0
H1162 H 0.00829 0.54676 0.76567 0.0
H1163 H 0.02039 0.56424 0.79166 0.0
C1164 C 0.52667 0.01803 0.98232 0.0
C1165 C 0.52595 0.01349 0.00721 0.0
C1166 C 0.48777 0.97117 0.00175 0.0
C1167 C 0.48813 0.97583 0.97687 0.0
N1168 N 0.50941 0.00189 0.94271 0.0
N1169 N 0.50911 0.98577 0.0409 0.0
C1170 C 0.50814 -0.00126 0.96692 0.0
C1171 C 0.50753 0.98998 0.01701 0.0
N1172 N 0.54459 0.04107 0.97364 0.0
N1173 N 0.46806 0.94886 0.01067 0.0
H1174 H 0.52239 -0.00053 0.05274 0.0
H1175 H 0.4986 0.96848 0.04912 0.0
H1176 H 0.4546 0.93415 -0.00012 0.0
H1177 H 0.46398 0.94491 0.02869 0.0
H1178 H 0.54385 0.04691 0.95619 0.0
H1179 H 0.55989 0.05506 0.98424 0.0
H1180 H 0.52555 0.01693 0.93393 0.0
H1181 H 0.49494 0.98873 0.93096 0.0
C1182 C 0.48031 0.50186 0.51258 0.0
C1183 C 0.50963 0.52076 0.51672 0.0
C1184 C 0.53416 0.4972 0.49316 0.0
C1185 C 0.50454 0.48029 0.48634 0.0
N1186 N 0.44917 0.46858 0.48661 0.0
N1187 N 0.56421 0.53842 0.50844 0.0
C1188 C 0.47749 0.48311 0.49529 0.0
C1189 C 0.53657 0.51896 0.50639 0.0
N1190 N 0.45534 0.5014 0.52569 0.0
N1191 N 0.55989 0.49209 0.48754 0.0
H1192 H 0.56687 0.55477 0.51788 0.0
H1193 H 0.58392 0.53925 0.49911 0.0
H1194 H 0.55897 0.47606 0.47819 0.0
H1195 H 0.58178 0.50243 0.49409 0.0
H1196 H 0.43412 0.48663 0.52512 0.0
H1197 H 0.45665 0.51456 0.5389 0.0
H1198 H 0.42901 0.47175 0.49062 0.0
H1199 H 0.44609 0.45475 0.47373 0.0
C1200 C 0.01808 0.5417 0.02066 0.0
C1201 C 0.00422 0.54533 -0.00079 0.0
C1202 C 0.95721 0.51049 0.00972 0.0
C1203 C 0.97417 0.50288 0.02715 0.0
N1204 N 0.02079 0.51207 0.0504 0.0
N1205 N 0.95465 0.54631 0.98848 0.0
C1206 C 0.0045 0.51892 0.03327 0.0
C1207 C 0.97178 0.5335 0.99761 0.0
N1208 N 0.04181 0.56115 0.03031 0.0
N1209 N 0.92734 0.49593 0.00472 0.0
H1210 H 0.96476 0.56532 0.98417 0.0
H1211 H 0.9306 0.53946 0.98874 0.0
H1212 H 0.91531 0.47946 0.01396 0.0
H1213 H 0.91527 0.49961 0.99044 0.0
H1214 H 0.05105 0.56036 0.04708 0.0
H1215 H 0.04941 0.57897 0.02257 0.0
H1216 H 0.04408 0.52212 0.05368 0.0
H1217 H 0.01171 0.4954 0.06002 0.0
C1218 C 0.51817 0.01749 0.49999 0.0
C1219 C 0.51215 0.01579 0.47515 0.0
C1220 C 0.4696 0.97569 0.48045 0.0
C1221 C 0.47477 0.97794 0.50538 0.0
N1222 N 0.50027 0.00205 0.53959 0.0
N1223 N 0.48005 0.99586 0.44174 0.0
C1224 C 0.49796 -0.00078 0.51538 0.0
C1225 C 0.4872 0.99563 0.46536 0.0
N1226 N 0.54368 0.0362 0.5087 0.0
N1227 N 0.44854 0.95414 0.47123 0.0
H1228 H 0.49301 0.00985 0.43001 0.0
H1229 H 0.46016 0.9832 0.43402 0.0
H1230 H 0.43445 0.9395 0.48183 0.0
H1231 H 0.4462 0.95004 0.45311 0.0
H1232 H 0.55134 0.03695 0.5262 0.0
H1233 H 0.55866 0.05025 0.49799 0.0
H1234 H 0.51449 0.01831 0.54805 0.0
H1235 H 0.48616 0.98876 0.55142 0.0
C1236 C 0.53376 0.51667 0.99786 0.0
C1237 C 0.50834 0.51589 0.98353 0.0
C1238 C 0.47857 0.47367 -0.00195 0.0
C1239 C 0.50279 0.47551 0.01413 0.0
N1240 N 0.55138 0.50022 0.03235 0.0
N1241 N 0.45474 0.49573 0.97265 0.0
C1242 C 0.52991 0.4974 0.01485 0.0
C1243 C 0.48021 0.49493 0.9843 0.0
N1244 N 0.56174 0.53553 0.99484 0.0
N1245 N 0.45438 0.45141 0.99552 0.0
H1246 H 0.45491 0.51102 0.96246 0.0
H1247 H 0.43278 0.48217 0.97471 0.0
H1248 H 0.45242 0.43544 0.00537 0.0
H1249 H 0.43769 0.44814 0.98228 0.0
H1250 H 0.58194 0.53565 0.00295 0.0
H1251 H 0.56533 0.55005 0.98261 0.0
H1252 H 0.56989 0.51689 0.03535 0.0
H1253 H 0.54937 0.4866 0.04526 0.0
C1254 C 0.9793 0.46287 0.50028 0.0
C1255 C 0.96548 0.46889 0.47982 0.0
C1256 C 0.98642 0.51345 0.4903 0.0
C1257 C -0.00085 0.5073 0.51127 0.0
N1258 N 0.00345 0.47632 0.53871 0.0
N1259 N 0.95085 0.49868 0.45722 0.0
C1260 C 0.99426 0.48201 0.51703 0.0
C1261 C 0.9675 0.49385 0.4754 0.0
N1262 N 0.979 0.43904 0.50324 0.0
N1263 N 0.99332 0.53805 0.48424 0.0
H1264 H 0.93705 0.48479 0.44575 0.0
H1265 H 0.9487 0.51599 0.45461 0.0
H1266 H 0.00654 0.55292 0.495 0.0
H1267 H 0.98777 0.54382 0.46785 0.0
H1268 H 0.99167 0.43409 0.51628 0.0
H1269 H 0.96769 0.42439 0.49157 0.0
H1270 H 0.99778 0.4581 0.54504 0.0
H1271 H 0.01471 0.48996 0.55131 0.0
C1272 C 0.5425 0.24363 0.07712 0.0
C1273 C 0.53248 0.22249 0.09253 0.0
C1274 C 0.49541 0.23888 0.11031 0.0
C1275 C 0.50188 0.25722 0.0922 0.0
N1276 N 0.5291 0.27508 0.05617 0.0
N1277 N 0.51834 0.21534 0.13398 0.0
C1278 C 0.52431 0.25868 0.0747 0.0
C1279 C 0.5137 0.22379 0.11212 0.0
N1280 N 0.57209 0.25246 0.06885 0.0
N1281 N 0.47242 0.23647 0.1263 0.0
H1282 H 0.5371 0.20988 0.13729 0.0
H1283 H 0.50715 0.21775 0.14935 0.0
H1284 H 0.45879 0.24749 0.12539 0.0
H1285 H 0.46524 0.22202 0.1388 0.0
H1286 H 0.58148 0.26917 0.05934 0.0
H1287 H 0.58843 0.24522 0.07487 0.0
H1288 H 0.54385 0.27546 0.04206 0.0
H1289 H 0.51606 0.2864 0.05384 0.0
C1290 C 0.30065 0.57394 0.59056 0.0
C1291 C 0.31752 0.58187 0.61202 0.0
C1292 C 0.27339 0.58848 0.63059 0.0
C1293 C 0.2566 0.58072 0.60907 0.0
N1294 N 0.25116 0.56139 0.57038 0.0
N1295 N 0.31889 0.59186 0.65376 0.0
C1296 C 0.26926 0.57185 0.58964 0.0
C1297 C 0.30346 0.58755 0.6325 0.0
N1298 N 0.31509 0.56948 0.57081 0.0
N1299 N 0.26095 0.59757 0.64882 0.0
H1300 H 0.3411 0.5916 0.6556 0.0
H1301 H 0.30899 0.59377 0.66991 0.0
H1302 H 0.23849 0.59753 0.6484 0.0
H1303 H 0.27322 0.60633 0.66386 0.0
H1304 H 0.30538 0.56664 0.55385 0.0
H1305 H 0.33774 0.56997 0.57103 0.0
H1306 H 0.2579 0.55225 0.55666 0.0
H1307 H 0.22827 0.56009 0.56894 0.0
C1308 C 0.80951 0.24612 0.03468 0.0
C1309 C 0.82271 0.25413 0.0574 0.0
C1310 C 0.79029 0.21379 0.07445 0.0
C1311 C 0.77266 0.20854 0.05325 0.0
N1312 N 0.76596 0.21791 0.01236 0.0
N1313 N 0.8264 0.2455 0.09924 0.0
C1314 C 0.78282 0.22392 0.0329 0.0
C1315 C 0.81396 0.23766 0.07728 0.0
N1316 N 0.8224 0.26004 0.01503 0.0
N1317 N 0.78372 0.19614 0.09207 0.0
H1318 H 0.84428 0.26253 0.10216 0.0
H1319 H 0.81789 0.23574 0.11492 0.0
H1320 H 0.76608 0.17865 0.09053 0.0
H1321 H 0.79746 0.19783 0.1071 0.0
H1322 H 0.81538 0.25447 0.99767 0.0
H1323 H 0.84212 0.27627 0.01613 0.0
H1324 H 0.76989 0.22973 0.99766 0.0
H1325 H 0.7471 0.20117 0.01044 0.0
C1326 C 0.5144 0.78748 0.59227 0.0
C1327 C 0.49516 0.78877 0.5731 0.0
C1328 C 0.49891 0.751 0.55524 0.0
C1329 C 0.51596 0.74855 0.57542 0.0
N1330 N 0.54735 0.76708 0.60936 0.0
N1331 N 0.47609 0.77664 0.53341 0.0
C1332 C 0.52639 0.76788 0.59261 0.0
C1333 C 0.48996 0.77219 0.55348 0.0
N1334 N 0.51976 0.80419 0.61066 0.0
N1335 N 0.48974 0.73228 0.53862 0.0
H1336 H 0.46904 0.79194 0.53186 0.0
H1337 H 0.47384 0.76653 0.51766 0.0
H1338 H 0.49714 0.71711 0.53892 0.0
H1339 H 0.47402 0.73119 0.52508 0.0
H1340 H 0.53059 0.80268 0.62649 0.0
H1341 H 0.51222 0.8193 0.61043 0.0
H1342 H 0.55779 0.78142 0.62147 0.0
H1343 H 0.55629 0.75277 0.60975 0.0
C1344 C 0.67589 0.38454 0.12143 0.0
C1345 C 0.67485 0.40808 0.12843 0.0
C1346 C 0.73128 0.42588 0.13077 0.0
C1347 C 0.73217 0.40203 0.1248 0.0
N1348 N 0.70586 0.35765 0.11875 0.0
N1349 N 0.70034 0.45 0.14332 0.0
C1350 C 0.70459 0.38103 0.12146 0.0
C1351 C 0.70223 0.42844 0.13421 0.0
N1352 N 0.6496 0.36582 0.11388 0.0
N1353 N 0.75818 0.44618 0.13238 0.0
H1354 H 0.67939 0.45254 0.14567 0.0
H1355 H 0.71913 0.46463 0.15019 0.0
H1356 H 0.77986 0.44485 0.13059 0.0
H1357 H 0.7591 0.46456 0.13401 0.0
H1358 H 0.64945 0.34938 0.10582 0.0
H1359 H 0.62795 0.36738 0.114 0.0
H1360 H 0.68647 0.34121 0.11885 0.0
H1361 H 0.72655 0.35442 0.1184 0.0
C1362 C 0.18005 0.75919 0.56601 0.0
C1363 C 0.17914 0.73912 0.55095 0.0
C1364 C 0.22594 0.76615 0.5308 0.0
C1365 C 0.23057 0.78382 0.54942 0.0
N1366 N 0.21165 0.79867 0.58404 0.0
N1367 N 0.19911 0.72336 0.51756 0.0
C1368 C 0.20708 0.78115 0.56647 0.0
C1369 C 0.20103 0.74278 0.53243 0.0
N1370 N 0.15531 0.75673 0.58024 0.0
N1371 N 0.24589 0.77169 0.51197 0.0
H1372 H 0.18049 0.70635 0.51785 0.0
H1373 H 0.21633 0.7237 0.50558 0.0
H1374 H 0.26427 0.78882 0.51065 0.0
H1375 H 0.24272 0.76049 0.49687 0.0
H1376 H 0.15332 0.77126 0.59046 0.0
H1377 H 0.13541 0.74058 0.58004 0.0
H1378 H 0.19713 0.79636 0.59866 0.0
H1379 H 0.23088 0.81526 0.58454 0.0
C1380 C 0.70268 0.36873 0.37159 0.0
C1381 C 0.7295 0.38962 0.36573 0.0
C1382 C 0.69875 0.41641 0.3623 0.0
C1383 C 0.67188 0.39535 0.36755 0.0
N1384 N 0.6468 0.35061 0.37203 0.0
N1385 N 0.75286 0.4319 0.35108 0.0
C1386 C 0.67341 0.3712 0.37049 0.0
C1387 C 0.72745 0.41305 0.35967 0.0
N1388 N 0.70531 0.34693 0.37938 0.0
N1389 N 0.69694 0.43969 0.36067 0.0
H1390 H 0.77422 0.43 0.34905 0.0
H1391 H 0.7523 0.44861 0.34418 0.0
H1392 H 0.67611 0.44264 0.36177 0.0
H1393 H 0.71613 0.45622 0.35962 0.0
H1394 H 0.68705 0.33211 0.38662 0.0
H1395 H 0.7263 0.34425 0.38035 0.0
H1396 H 0.64627 0.33225 0.37166 0.0
H1397 H 0.62491 0.35173 0.37157 0.0
C1398 C 0.19358 0.80028 0.92862 0.0
C1399 C 0.21785 0.80327 0.9449 0.0
C1400 C 0.19211 0.76041 0.95859 0.0
C1401 C 0.17408 0.75542 0.93745 0.0
N1402 N 0.15296 0.77125 0.90459 0.0
N1403 N 0.2217 0.793 0.9859 0.0
C1404 C 0.17287 0.77566 0.92336 0.0
C1405 C 0.21161 0.78543 0.96342 0.0
N1406 N 0.18878 0.82093 0.92028 0.0
N1407 N 0.19215 0.74139 0.97324 0.0
H1408 H 0.23328 0.81198 0.9898 0.0
H1409 H 0.21558 0.7811 0.00061 0.0
H1410 H 0.17808 0.72276 0.97041 0.0
H1411 H 0.20751 0.74415 0.98742 0.0
H1412 H 0.16987 0.82005 0.90986 0.0
H1413 H 0.20236 0.83888 0.92618 0.0
H1414 H 0.1536 0.785 0.8922 0.0
H1415 H 0.13656 0.75353 0.90103 0.0
C1416 C 0.51546 0.22345 0.4436 0.0
C1417 C 0.51568 0.21118 0.4217 0.0
C1418 C 0.49146 0.23713 0.40142 0.0
C1419 C 0.49229 0.25012 0.42314 0.0
N1420 N 0.49647 0.25135 0.46583 0.0
N1421 N 0.49613 0.20086 0.38184 0.0
C1422 C 0.50134 0.2417 0.4446 0.0
C1423 C 0.50094 0.21618 0.4013 0.0
N1424 N 0.53008 0.21858 0.46305 0.0
N1425 N 0.48362 0.24576 0.38064 0.0
H1426 H 0.50306 0.18543 0.38123 0.0
H1427 H 0.48283 0.20198 0.36727 0.0
H1428 H 0.47563 0.26054 0.37991 0.0
H1429 H 0.48666 0.23919 0.36389 0.0
H1430 H 0.53387 0.22896 0.47873 0.0
H1431 H 0.54005 0.20491 0.46306 0.0
H1432 H 0.50016 0.24463 0.48234 0.0
H1433 H 0.48592 0.26463 0.46686 0.0
C1434 C 0.27051 0.58221 0.87584 0.0
C1435 C 0.25812 0.58638 0.89781 0.0
C1436 C 0.30292 0.58385 0.91906 0.0
C1437 C 0.31721 0.58344 0.89685 0.0
N1438 N 0.31588 0.5831 0.85394 0.0
N1439 N 0.26241 0.59237 0.94037 0.0
C1440 C 0.30121 0.58253 0.87516 0.0
C1441 C 0.27411 0.58721 0.91951 0.0
N1442 N 0.25275 0.57777 0.85571 0.0
N1443 N 0.31695 0.58092 0.93967 0.0
H1444 H 0.24102 0.59436 0.94147 0.0
H1445 H 0.27461 0.59621 0.95634 0.0
H1446 H 0.33822 0.57861 0.93987 0.0
H1447 H 0.3065 0.57862 0.95633 0.0
H1448 H 0.25923 0.5722 0.83957 0.0
H1449 H 0.23024 0.57761 0.85565 0.0
H1450 H 0.30693 0.58555 0.83753 0.0
H1451 H 0.33801 0.58253 0.85278 0.0
C1452 C 0.78373 0.21161 0.46118 0.0
C1453 C 0.77742 0.1926 0.44378 0.0
C1454 C 0.82339 0.21816 0.42205 0.0
C1455 C 0.82231 0.23948 0.43445 0.0
N1456 N 0.80383 0.25618 0.4684 0.0
N1457 N 0.80604 0.17266 0.42146 0.0
C1458 C 0.8038 0.23613 0.45522 0.0
C1459 C 0.80195 0.19411 0.42826 0.0
N1460 N 0.77322 0.2056 0.48383 0.0
N1461 N 0.84387 0.22104 0.40388 0.0
H1462 H 0.79169 0.15522 0.42796 0.0
H1463 H 0.82499 0.17247 0.41168 0.0
H1464 H 0.8608 0.23835 0.39976 0.0
H1465 H 0.84327 0.20645 0.39254 0.0
H1466 H 0.77935 0.21845 0.49783 0.0
H1467 H 0.76134 0.18695 0.48874 0.0
H1468 H 0.78811 0.25453 0.48212 0.0
H1469 H 0.81836 0.27451 0.46481 0.0
C1470 C 0.50108 0.75783 0.94285 0.0
C1471 C 0.50129 0.74311 0.9226 0.0
C1472 C 0.48083 0.76886 0.89793 0.0
C1473 C 0.47623 0.78096 0.91882 0.0
N1474 N 0.48151 0.78756 0.96122 0.0
N1475 N 0.48962 0.73313 0.88105 0.0
C1476 C 0.48657 0.77583 0.94131 0.0
C1477 C 0.4912 0.74849 0.90007 0.0
N1478 N 0.51489 0.75452 0.96341 0.0
N1479 N 0.47511 0.7768 0.87606 0.0
H1480 H 0.49741 0.71821 0.88165 0.0
H1481 H 0.4787 0.73406 0.86508 0.0
H1482 H 0.4665 0.79116 0.87382 0.0
H1483 H 0.48127 0.77065 0.86008 0.0
H1484 H 0.51794 0.76597 0.97833 0.0
H1485 H 0.52569 0.74144 0.96483 0.0
H1486 H 0.48527 0.78271 0.97849 0.0
H1487 H 0.472 0.80151 0.96053 0.0
loop_
_geom_bond_atom_site_label_1
_geom_bond_atom_site_label_2
_geom_bond_distance
_geom_bond_site_symmetry_2
_ccdc_geom_bond_type
Li0 N17 1.990 . S
Li0 O60 1.956 . S
Li0 O61 1.970 . S
Li0 O62 1.961 . S
Li1 N25 1.990 . S
Li1 O60 1.970 . S
Li1 O61 1.956 . S
Li1 O63 1.961 . S
Li2 N47 1.990 . S
Li2 O60 1.961 . S
Li2 O62 1.956 . S
Li2 O63 1.970 . S
Li3 N53 1.990 . S
Li3 O61 1.961 . S
Li3 O62 1.970 . S
Li3 O63 1.956 . S
C4 C6 1.348 . S
C4 C7 1.356 . S
C4 O60 1.325 . S
N5 C8 1.302 1_556 S
N5 C9 1.279 . S
C6 C4 1.348 . S
C6 C8 1.370 . S
C6 H64 0.929 . S
C7 C4 1.356 . S
C7 C9 1.358 1_554 S
C7 H65 0.930 . S
C8 N5 1.302 1_554 S
C8 C6 1.370 . S
C8 H66 0.924 1_554 S
C9 N5 1.279 . S
C9 C7 1.358 1_556 S
C9 H67 0.930 . S
C10 C13 1.348 . S
C10 C14 1.356 . S
C10 O61 1.325 . S
C11 N12 1.279 . S
C11 C14 1.358 . S
C11 H68 0.930 . S
N12 C11 1.279 . S
N12 C15 1.314 . S
C13 C10 1.348 . S
C13 C15 1.353 . S
C13 H69 0.929 . S
C14 C10 1.356 . S
C14 C11 1.358 . S
C14 H70 0.930 . S
C15 N12 1.314 . S
C15 C13 1.353 . S
C15 H71 0.930 . S
C16 N17 1.314 . S
C16 C21 1.353 . S
C16 H22 0.930 . S
N17 Li0 1.990 . S
N17 C16 1.314 . S
N17 C19 1.279 . S
C18 C19 1.358 . S
C18 C20 1.356 . S
C18 H72 0.930 . S
C19 N17 1.279 . S
C19 C18 1.358 . S
C19 H23 0.930 . S
C20 C18 1.356 . S
C20 C21 1.348 . S
C21 C16 1.353 . S
C21 C20 1.348 . S
C21 H73 0.929 . S
H22 C16 0.930 . S
H23 C19 0.930 . S
C24 N25 1.314 . S
C24 C26 1.353 . S
C24 H30 0.930 . S
N25 Li1 1.990 . S
N25 C24 1.314 . S
N25 C28 1.279 . S
C26 C24 1.353 . S
C26 C29 1.348 . S
C26 H74 0.929 . S
C27 C28 1.358 . S
C27 C29 1.356 . S
C27 H75 0.930 . S
C28 N25 1.279 . S
C28 C27 1.358 . S
C28 H31 0.930 . S
C29 C26 1.348 . S
C29 C27 1.356 . S
H30 C24 0.930 . S
H31 C28 0.930 . S
C32 C34 1.348 . S
C32 C35 1.356 . S
C32 O62 1.325 . S
N33 C36 1.314 . S
N33 C37 1.279 . S
C34 C32 1.348 . S
C34 C36 1.353 . S
C34 H76 0.929 . S
C35 C32 1.356 . S
C35 C37 1.358 . S
C35 H77 0.930 . S
C36 N33 1.314 . S
C36 C34 1.353 . S
C36 H78 0.930 . S
C37 N33 1.279 . S
C37 C35 1.358 . S
C37 H79 0.930 . S
C38 C39 1.348 . S
C38 C40 1.356 . S
C38 O63 1.325 . S
C39 C38 1.348 . S
C39 C41 1.353 . S
C39 H80 0.929 . S
C40 C38 1.356 . S
C40 C42 1.358 . S
C40 H81 0.930 . S
C41 C39 1.353 . S
C41 N43 1.314 . S
C41 H82 0.930 . S
C42 C40 1.358 . S
C42 N43 1.279 . S
C42 H83 0.930 . S
N43 C41 1.314 . S
N43 C42 1.279 . S
C44 C46 1.353 . S
C44 N47 1.314 . S
C44 H50 0.930 . S
C45 N47 1.279 . S
C45 C48 1.358 . S
C45 H51 0.930 . S
C46 C44 1.353 . S
C46 C49 1.348 . S
C46 H84 0.894 1_554 S
N47 Li2 1.990 . S
N47 C44 1.314 . S
N47 C45 1.279 . S
C48 C45 1.358 . S
C48 C49 1.356 . S
C48 H85 0.930 . S
C49 C46 1.348 . S
C49 C48 1.356 . S
H50 C44 0.930 . S
H51 C45 0.930 . S
C52 N53 1.314 . S
C52 C54 1.353 . S
C52 H58 0.930 . S
N53 Li3 1.990 . S
N53 C52 1.314 . S
N53 C56 1.279 . S
C54 C52 1.353 . S
C54 C57 1.348 . S
C54 H86 0.929 . S
C55 C56 1.358 . S
C55 C57 1.356 . S
C55 H87 0.930 . S
C56 N53 1.279 . S
C56 C55 1.358 . S
C56 H59 0.930 . S
C57 C54 1.348 . S
C57 C55 1.356 . S
H58 C52 0.930 . S
H59 C56 0.930 . S
O60 Li0 1.956 . S
O60 Li1 1.970 . S
O60 Li2 1.961 . S
O60 C4 1.325 . S
O61 Li0 1.970 . S
O61 Li1 1.956 . S
O61 Li3 1.961 . S
O61 C10 1.325 . S
O62 Li0 1.961 . S
O62 Li2 1.956 . S
O62 Li3 1.970 . S
O62 C32 1.325 . S
O63 Li1 1.961 . S
O63 Li2 1.970 . S
O63 Li3 1.956 . S
O63 C38 1.325 . S
H64 C6 0.929 . S
H65 C7 0.930 . S
H66 C8 0.924 1_556 S
H67 C9 0.930 . S
H68 C11 0.930 . S
H69 C13 0.929 . S
H70 C14 0.930 . S
H71 C15 0.930 . S
H72 C18 0.930 . S
H73 C21 0.929 . S
H74 C26 0.929 . S
H75 C27 0.930 . S
H76 C34 0.929 . S
H77 C35 0.930 . S
H78 C36 0.930 . S
H79 C37 0.930 . S
H80 C39 0.929 . S
H81 C40 0.930 . S
H82 C41 0.930 . S
H83 C42 0.930 . S
H84 C46 0.894 1_556 S
H85 C48 0.930 . S
H86 C54 0.929 . S
H87 C55 0.930 . S
Li88 N105 1.990 . S
Li88 O148 1.956 . S
Li88 O149 1.970 . S
Li88 O150 1.961 . S
Li89 N113 1.990 . S
Li89 O148 1.970 . S
Li89 O149 1.956 . S
Li89 O151 1.961 . S
Li90 N135 1.990 . S
Li90 O148 1.961 . S
Li90 O150 1.956 . S
Li90 O151 1.970 . S
Li91 N141 1.990 . S
Li91 O149 1.961 . S
Li91 O150 1.970 . S
Li91 O151 1.956 . S
C92 C94 1.348 . S
C92 C95 1.356 . S
C92 O148 1.325 . S
N93 C96 1.314 . S
N93 C97 1.279 . S
C94 C92 1.348 . S
C94 C96 1.353 . S
C94 H152 0.929 . S
C95 C92 1.356 . S
C95 C97 1.358 . S
C95 H153 0.930 . S
C96 N93 1.314 . S
C96 C94 1.353 . S
C96 H154 0.930 . S
C97 N93 1.279 . S
C97 C95 1.358 . S
C97 H155 0.930 . S
C98 C101 1.348 . S
C98 C102 1.356 . S
C98 O149 1.325 . S
C99 N100 1.279 . S
C99 C102 1.358 . S
C99 H156 0.930 . S
N100 C99 1.279 . S
N100 C103 1.314 . S
C101 C98 1.348 . S
C101 C103 1.353 . S
C101 H157 0.929 . S
C102 C98 1.356 . S
C102 C99 1.358 . S
C102 H158 0.930 . S
C103 N100 1.314 . S
C103 C101 1.353 . S
C103 H159 0.930 . S
C104 N105 1.314 . S
C104 C109 1.353 . S
C104 H110 0.930 . S
N105 Li88 1.990 . S
N105 C104 1.314 . S
N105 C107 1.279 . S
C106 C107 1.358 . S
C106 C108 1.356 . S
C106 H160 0.930 . S
C107 N105 1.279 . S
C107 C106 1.358 . S
C107 H111 0.930 . S
C108 C106 1.356 . S
C108 C109 1.348 . S
C109 C104 1.353 . S
C109 C108 1.348 . S
C109 H161 0.929 . S
H110 C104 0.930 . S
H111 C107 0.930 . S
C112 N113 1.314 . S
C112 C114 1.353 . S
C112 H118 0.930 . S
N113 Li89 1.990 . S
N113 C112 1.314 . S
N113 C116 1.279 . S
C114 C112 1.353 . S
C114 C117 1.348 . S
C114 H162 0.929 . S
C115 C116 1.358 . S
C115 C117 1.356 . S
C115 H163 0.930 . S
C116 N113 1.279 . S
C116 C115 1.358 . S
C116 H119 0.930 . S
C117 C114 1.348 . S
C117 C115 1.356 . S
H118 C112 0.930 . S
H119 C116 0.930 . S
C120 C122 1.348 . S
C120 C123 1.356 . S
C120 O150 1.325 . S
N121 C124 1.314 . S
N121 C125 1.279 . S
C122 C120 1.348 . S
C122 C124 1.353 . S
C122 H164 0.929 . S
C123 C120 1.356 . S
C123 C125 1.358 . S
C123 H165 0.930 . S
C124 N121 1.314 . S
C124 C122 1.353 . S
C124 H166 0.930 . S
C125 N121 1.279 . S
C125 C123 1.358 . S
C125 H167 0.930 . S
C126 C127 1.348 . S
C126 C128 1.356 . S
C126 O151 1.325 . S
C127 C126 1.348 . S
C127 C129 1.353 . S
C127 H168 0.929 . S
C128 C126 1.356 . S
C128 C130 1.358 . S
C128 H169 0.930 . S
C129 C127 1.353 . S
C129 N131 1.314 . S
C129 H170 0.930 . S
C130 C128 1.358 . S
C130 N131 1.279 . S
C130 H171 0.930 . S
N131 C129 1.314 . S
N131 C130 1.279 . S
C132 C134 1.353 . S
C132 N135 1.314 . S
C132 H138 0.930 . S
C133 N135 1.279 . S
C133 C136 1.358 . S
C133 H139 0.930 . S
C134 C132 1.353 . S
C134 C137 1.348 . S
C134 H172 0.929 . S
N135 Li90 1.990 . S
N135 C132 1.314 . S
N135 C133 1.279 . S
C136 C133 1.358 . S
C136 C137 1.356 . S
C136 H173 0.930 . S
C137 C134 1.348 . S
C137 C136 1.356 . S
H138 C132 0.930 . S
H139 C133 0.930 . S
C140 N141 1.314 . S
C140 C142 1.353 . S
C140 H146 0.930 . S
N141 Li91 1.990 . S
N141 C140 1.314 . S
N141 C144 1.279 . S
C142 C140 1.353 . S
C142 C145 1.348 . S
C142 H174 0.929 . S
C143 C144 1.358 . S
C143 C145 1.356 . S
C143 H175 0.930 . S
C144 N141 1.279 . S
C144 C143 1.358 . S
C144 H147 0.930 . S
C145 C142 1.348 . S
C145 C143 1.356 . S
H146 C140 0.930 . S
H147 C144 0.930 . S
O148 Li88 1.956 . S
O148 Li89 1.970 . S
O148 Li90 1.961 . S
O148 C92 1.325 . S
O149 Li88 1.970 . S
O149 Li89 1.956 . S
O149 Li91 1.961 . S
O149 C98 1.325 . S
O150 Li88 1.961 . S
O150 Li90 1.956 . S
O150 Li91 1.970 . S
O150 C120 1.325 . S
O151 Li89 1.961 . S
O151 Li90 1.970 . S
O151 Li91 1.956 . S
O151 C126 1.325 . S
H152 C94 0.929 . S
H153 C95 0.930 . S
H154 C96 0.930 . S
H155 C97 0.930 . S
H156 C99 0.930 . S
H157 C101 0.929 . S
H158 C102 0.930 . S
H159 C103 0.930 . S
H160 C106 0.930 . S
H161 C109 0.929 . S
H162 C114 0.929 . S
H163 C115 0.930 . S
H164 C122 0.929 . S
H165 C123 0.930 . S
H166 C124 0.930 . S
H167 C125 0.930 . S
H168 C127 0.929 . S
H169 C128 0.930 . S
H170 C129 0.930 . S
H171 C130 0.930 . S
H172 C134 0.929 . S
H173 C136 0.930 . S
H174 C142 0.929 . S
H175 C143 0.930 . S
Li176 N193 1.990 . S
Li176 O236 1.956 . S
Li176 O237 1.970 . S
Li176 O238 1.961 . S
Li177 N201 1.990 . S
Li177 O236 1.970 . S
Li177 O237 1.956 . S
Li177 O239 1.961 . S
Li178 N223 1.990 . S
Li178 O236 1.961 . S
Li178 O238 1.956 . S
Li178 O239 1.970 . S
Li179 N229 1.990 . S
Li179 O237 1.961 . S
Li179 O238 1.970 . S
Li179 O239 1.956 . S
C180 C182 1.348 . S
C180 C183 1.356 . S
C180 O236 1.325 . S
N181 C184 1.314 . S
N181 C185 1.279 . S
C182 C180 1.348 . S
C182 C184 1.353 . S
C182 H240 0.929 . S
C183 C180 1.356 . S
C183 C185 1.358 . S
C183 H241 0.930 . S
C184 N181 1.314 . S
C184 C182 1.353 . S
C184 H242 0.930 . S
C185 N181 1.279 . S
C185 C183 1.358 . S
C185 H243 0.930 . S
C186 C189 1.348 . S
C186 C190 1.356 . S
C186 O237 1.325 . S
C187 N188 1.279 . S
C187 C190 1.358 . S
C187 H244 0.930 . S
N188 C187 1.279 . S
N188 C191 1.314 . S
C189 C186 1.348 . S
C189 C191 1.353 . S
C189 H245 0.929 . S
C190 C186 1.356 . S
C190 C187 1.358 . S
C190 H246 0.930 . S
C191 N188 1.314 . S
C191 C189 1.353 . S
C191 H247 0.930 . S
C192 N193 1.314 . S
C192 C197 1.353 . S
C192 H198 0.930 . S
N193 Li176 1.990 . S
N193 C192 1.314 . S
N193 C195 1.279 . S
C194 C195 1.358 . S
C194 C196 1.356 . S
C194 H248 0.930 . S
C195 N193 1.279 . S
C195 C194 1.358 . S
C195 H199 0.930 . S
C196 C194 1.356 . S
C196 C197 1.348 . S
C197 C192 1.353 . S
C197 C196 1.348 . S
C197 H249 0.929 . S
H198 C192 0.930 . S
H199 C195 0.930 . S
C200 N201 1.314 . S
C200 C202 1.353 . S
C200 H206 0.930 . S
N201 Li177 1.990 . S
N201 C200 1.314 . S
N201 C204 1.279 . S
C202 C200 1.353 . S
C202 C205 1.348 . S
C202 H250 0.929 . S
C203 C204 1.358 . S
C203 C205 1.356 . S
C203 H251 0.930 . S
C204 N201 1.279 . S
C204 C203 1.358 . S
C204 H207 0.930 . S
C205 C202 1.348 . S
C205 C203 1.356 . S
H206 C200 0.930 . S
H207 C204 0.930 . S
C208 C210 1.348 . S
C208 C211 1.356 . S
C208 O238 1.325 . S
N209 C212 1.314 . S
N209 C213 1.279 . S
C210 C208 1.348 . S
C210 C212 1.353 1_554 S
C210 H252 0.929 . S
C211 C208 1.356 . S
C211 C213 1.358 1_554 S
C211 H253 0.930 . S
C212 N209 1.314 . S
C212 C210 1.353 1_556 S
C212 H254 0.930 . S
C213 N209 1.279 . S
C213 C211 1.358 1_556 S
C213 H255 0.930 . S
C214 C215 1.348 . S
C214 C216 1.356 . S
C214 O239 1.325 . S
C215 C214 1.348 . S
C215 C217 1.353 . S
C215 H256 0.929 . S
C216 C214 1.356 . S
C216 C218 1.358 . S
C216 H257 0.930 . S
C217 C215 1.353 . S
C217 N219 1.314 . S
C217 H258 0.930 . S
C218 C216 1.358 . S
C218 N219 1.279 . S
C218 H259 0.930 . S
N219 C217 1.314 . S
N219 C218 1.279 . S
C220 C222 1.353 . S
C220 N223 1.314 . S
C220 H226 0.930 . S
C221 N223 1.279 . S
C221 C224 1.358 . S
C221 H227 0.930 . S
C222 C220 1.353 . S
C222 C225 1.348 . S
C222 H260 0.929 1_655 S
N223 Li178 1.990 . S
N223 C220 1.314 . S
N223 C221 1.279 . S
C224 C221 1.358 . S
C224 C225 1.356 . S
C224 H261 0.930 1_554 S
C225 C222 1.348 . S
C225 C224 1.356 . S
H226 C220 0.930 . S
H227 C221 0.930 . S
C228 N229 1.314 . S
C228 C230 1.353 . S
C228 H234 0.930 . S
N229 Li179 1.990 . S
N229 C228 1.314 . S
N229 C232 1.279 . S
C230 C228 1.353 . S
C230 C233 1.348 . S
C230 H262 0.929 . S
C231 C232 1.358 . S
C231 C233 1.356 . S
C231 H263 0.930 . S
C232 N229 1.279 . S
C232 C231 1.358 . S
C232 H235 0.930 . S
C233 C230 1.348 . S
C233 C231 1.356 . S
H234 C228 0.930 . S
H235 C232 0.930 . S
O236 Li176 1.956 . S
O236 Li177 1.970 . S
O236 Li178 1.961 . S
O236 C180 1.325 . S
O237 Li176 1.970 . S
O237 Li177 1.956 . S
O237 Li179 1.961 . S
O237 C186 1.325 . S
O238 Li176 1.961 . S
O238 Li178 1.956 . S
O238 Li179 1.970 . S
O238 C208 1.325 . S
O239 Li177 1.961 . S
O239 Li178 1.970 . S
O239 Li179 1.956 . S
O239 C214 1.325 . S
H240 C182 0.929 . S
H241 C183 0.930 . S
H242 C184 0.930 . S
H243 C185 0.930 . S
H244 C187 0.930 . S
H245 C189 0.929 . S
H246 C190 0.930 . S
H247 C191 0.930 . S
H248 C194 0.930 . S
H249 C197 0.929 . S
H250 C202 0.929 . S
H251 C203 0.930 . S
H252 C210 0.929 . S
H253 C211 0.930 . S
H254 C212 0.930 . S
H255 C213 0.930 . S
H256 C215 0.929 . S
H257 C216 0.930 . S
H258 C217 0.930 . S
H259 C218 0.930 . S
H260 C222 0.929 1_455 S
H261 C224 0.930 1_556 S
H262 C230 0.929 . S
H263 C231 0.930 . S
Li264 N281 1.990 . S
Li264 O324 1.956 . S
Li264 O325 1.970 . S
Li264 O326 1.961 . S
Li265 N289 1.990 . S
Li265 O324 1.970 . S
Li265 O325 1.956 . S
Li265 O327 1.961 . S
Li266 N311 1.990 . S
Li266 O324 1.961 . S
Li266 O326 1.956 . S
Li266 O327 1.970 . S
Li267 N317 1.990 . S
Li267 O325 1.961 . S
Li267 O326 1.970 . S
Li267 O327 1.956 . S
C268 C270 1.348 . S
C268 C271 1.356 . S
C268 O324 1.325 . S
N269 C272 1.314 . S
N269 C273 1.279 . S
C270 C268 1.348 . S
C270 C272 1.353 . S
C270 H328 0.929 . S
C271 C268 1.356 . S
C271 C273 1.358 . S
C271 H329 0.930 . S
C272 N269 1.314 . S
C272 C270 1.353 . S
C272 H330 0.930 . S
C273 N269 1.279 . S
C273 C271 1.358 . S
C273 H331 0.930 . S
C274 C277 1.348 . S
C274 C278 1.356 . S
C274 O325 1.325 . S
C275 N276 1.279 . S
C275 C278 1.358 . S
C275 H332 0.930 . S
N276 C275 1.279 . S
N276 C279 1.314 . S
C277 C274 1.348 . S
C277 C279 1.353 . S
C277 H333 0.929 . S
C278 C274 1.356 . S
C278 C275 1.358 . S
C278 H334 0.930 . S
C279 N276 1.314 . S
C279 C277 1.353 . S
C279 H335 0.930 . S
C280 N281 1.314 . S
C280 C285 1.353 . S
C280 H286 0.930 . S
N281 Li264 1.990 . S
N281 C280 1.314 . S
N281 C283 1.279 . S
C282 C283 1.358 . S
C282 C284 1.356 . S
C282 H336 0.930 . S
C283 N281 1.279 . S
C283 C282 1.358 . S
C283 H287 0.930 . S
C284 C282 1.356 . S
C284 C285 1.348 . S
C285 C280 1.353 . S
C285 C284 1.348 . S
C285 H337 0.929 . S
H286 C280 0.930 . S
H287 C283 0.930 . S
C288 N289 1.314 . S
C288 C290 1.353 . S
C288 H294 0.930 . S
N289 Li265 1.990 . S
N289 C288 1.314 . S
N289 C292 1.279 . S
C290 C288 1.353 . S
C290 C293 1.348 . S
C290 H338 0.929 . S
C291 C292 1.358 . S
C291 C293 1.356 . S
C291 H339 0.930 . S
C292 N289 1.279 . S
C292 C291 1.358 . S
C292 H295 0.930 . S
C293 C290 1.348 . S
C293 C291 1.356 . S
H294 C288 0.930 . S
H295 C292 0.930 . S
C296 C298 1.348 . S
C296 C299 1.356 . S
C296 O326 1.325 . S
N297 C300 1.314 . S
N297 C301 1.279 . S
C298 C296 1.348 . S
C298 C300 1.353 . S
C298 H340 0.929 . S
C299 C296 1.356 . S
C299 C301 1.358 . S
C299 H341 0.930 . S
C300 N297 1.314 . S
C300 C298 1.353 . S
C300 H342 0.930 . S
C301 N297 1.279 . S
C301 C299 1.358 . S
C301 H343 0.930 . S
C302 C303 1.348 . S
C302 C304 1.356 . S
C302 O327 1.325 . S
C303 C302 1.348 . S
C303 C305 1.353 . S
C303 H344 0.929 . S
C304 C302 1.356 . S
C304 C306 1.358 . S
C304 H345 0.930 . S
C305 C303 1.353 . S
C305 N307 1.314 . S
C305 H346 0.930 . S
C306 C304 1.358 . S
C306 N307 1.279 . S
C306 H347 0.930 . S
N307 C305 1.314 . S
N307 C306 1.279 . S
C308 C310 1.353 . S
C308 N311 1.314 . S
C308 H314 0.930 . S
C309 N311 1.279 . S
C309 C312 1.358 . S
C309 H315 0.930 . S
C310 C308 1.353 . S
C310 C313 1.348 . S
C310 H348 0.929 . S
N311 Li266 1.990 . S
N311 C308 1.314 . S
N311 C309 1.279 . S
C312 C309 1.358 . S
C312 C313 1.356 . S
C312 H349 0.930 . S
C313 C310 1.348 . S
C313 C312 1.356 . S
H314 C308 0.930 . S
H315 C309 0.930 . S
C316 N317 1.314 . S
C316 C318 1.353 . S
C316 H322 0.930 . S
N317 Li267 1.990 . S
N317 C316 1.314 . S
N317 C320 1.279 . S
C318 C316 1.353 . S
C318 C321 1.348 . S
C318 H350 0.929 . S
C319 C320 1.358 . S
C319 C321 1.356 . S
C319 H351 0.930 . S
C320 N317 1.279 . S
C320 C319 1.358 . S
C320 H323 0.930 . S
C321 C318 1.348 . S
C321 C319 1.356 . S
H322 C316 0.930 . S
H323 C320 0.930 . S
O324 Li264 1.956 . S
O324 Li265 1.970 . S
O324 Li266 1.961 . S
O324 C268 1.325 . S
O325 Li264 1.970 . S
O325 Li265 1.956 . S
O325 Li267 1.961 . S
O325 C274 1.325 . S
O326 Li264 1.961 . S
O326 Li266 1.956 . S
O326 Li267 1.970 . S
O326 C296 1.325 . S
O327 Li265 1.961 . S
O327 Li266 1.970 . S
O327 Li267 1.956 . S
O327 C302 1.325 . S
H328 C270 0.929 . S
H329 C271 0.930 . S
H330 C272 0.930 . S
H331 C273 0.930 . S
H332 C275 0.930 . S
H333 C277 0.929 . S
H334 C278 0.930 . S
H335 C279 0.930 . S
H336 C282 0.930 . S
H337 C285 0.929 . S
H338 C290 0.929 . S
H339 C291 0.930 . S
H340 C298 0.929 . S
H341 C299 0.930 . S
H342 C300 0.930 . S
H343 C301 0.930 . S
H344 C303 0.929 . S
H345 C304 0.930 . S
H346 C305 0.930 . S
H347 C306 0.930 . S
H348 C310 0.929 . S
H349 C312 0.930 . S
H350 C318 0.929 . S
H351 C319 0.930 . S
Li352 N369 1.990 . S
Li352 O412 1.956 . S
Li352 O413 1.970 . S
Li352 O414 1.961 . S
Li353 N377 1.990 . S
Li353 O412 1.970 . S
Li353 O413 1.956 . S
Li353 O415 1.961 . S
Li354 N399 1.990 . S
Li354 O412 1.961 . S
Li354 O414 1.956 . S
Li354 O415 1.970 . S
Li355 N405 1.990 . S
Li355 O413 1.961 . S
Li355 O414 1.970 . S
Li355 O415 1.956 . S
C356 C358 1.348 . S
C356 C359 1.356 . S
C356 O412 1.325 . S
N357 C360 1.314 . S
N357 C361 1.279 . S
C358 C356 1.348 . S
C358 C360 1.353 . S
C358 H416 0.929 . S
C359 C356 1.356 . S
C359 C361 1.358 . S
C359 H417 0.930 . S
C360 N357 1.314 . S
C360 C358 1.353 . S
C360 H418 0.930 . S
C361 N357 1.279 . S
C361 C359 1.358 . S
C361 H419 0.930 . S
C362 C365 1.348 . S
C362 C366 1.356 . S
C362 O413 1.325 . S
C363 N364 1.279 . S
C363 C366 1.358 . S
C363 H420 0.930 . S
N364 C363 1.279 . S
N364 C367 1.314 . S
C365 C362 1.348 . S
C365 C367 1.353 . S
C365 H421 0.929 . S
C366 C362 1.356 . S
C366 C363 1.358 . S
C366 H422 0.930 . S
C367 N364 1.314 . S
C367 C365 1.353 . S
C367 H423 0.930 . S
C368 N369 1.314 . S
C368 C373 1.353 . S
C368 H374 0.930 . S
N369 Li352 1.990 . S
N369 C368 1.314 . S
N369 C371 1.279 . S
C370 C371 1.358 . S
C370 C372 1.356 . S
C370 H424 0.930 . S
C371 N369 1.279 . S
C371 C370 1.358 . S
C371 H375 0.930 . S
C372 C370 1.356 . S
C372 C373 1.348 . S
C373 C368 1.353 . S
C373 C372 1.348 . S
C373 H425 0.929 . S
H374 C368 0.930 . S
H375 C371 0.930 . S
C376 N377 1.314 . S
C376 C378 1.353 . S
C376 H382 0.930 . S
N377 Li353 1.990 . S
N377 C376 1.314 . S
N377 C380 1.279 . S
C378 C376 1.353 . S
C378 C381 1.348 . S
C378 H426 0.929 . S
C379 C380 1.358 . S
C379 C381 1.356 . S
C379 H427 0.930 . S
C380 N377 1.279 . S
C380 C379 1.358 . S
C380 H383 0.930 . S
C381 C378 1.348 . S
C381 C379 1.356 . S
H382 C376 0.930 . S
H383 C380 0.930 . S
C384 C386 1.348 . S
C384 C387 1.356 . S
C384 O414 1.325 . S
N385 C388 1.314 . S
N385 C389 1.279 . S
C386 C384 1.348 . S
C386 C388 1.353 . S
C386 H428 0.929 . S
C387 C384 1.356 . S
C387 C389 1.358 . S
C387 H429 0.930 . S
C388 N385 1.314 . S
C388 C386 1.353 . S
C388 H430 0.930 . S
C389 N385 1.279 . S
C389 C387 1.358 . S
C389 H431 0.930 . S
C390 C391 1.348 . S
C390 C392 1.356 . S
C390 O415 1.325 . S
C391 C390 1.348 . S
C391 C393 1.353 . S
C391 H432 0.929 . S
C392 C390 1.356 . S
C392 C394 1.358 1_554 S
C392 H433 0.930 . S
C393 C391 1.353 . S
C393 N395 1.314 1_554 S
C393 H434 0.930 1_554 S
C394 C392 1.358 1_556 S
C394 N395 1.279 . S
C394 H435 0.930 . S
N395 C393 1.314 1_556 S
N395 C394 1.279 . S
C396 C398 1.353 . S
C396 N399 1.314 . S
C396 H402 0.930 . S
C397 N399 1.279 . S
C397 C400 1.358 . S
C397 H403 0.930 . S
C398 C396 1.353 . S
C398 C401 1.348 . S
C398 H436 0.929 . S
N399 Li354 1.990 . S
N399 C396 1.314 . S
N399 C397 1.279 . S
C400 C397 1.358 . S
C400 C401 1.356 . S
C400 H437 0.930 . S
C401 C398 1.348 . S
C401 C400 1.356 . S
H402 C396 0.930 . S
H403 C397 0.930 . S
C404 N405 1.314 . S
C404 C406 1.353 . S
C404 H410 0.930 . S
N405 Li355 1.990 . S
N405 C404 1.314 . S
N405 C408 1.279 . S
C406 C404 1.353 . S
C406 C409 1.348 . S
C406 H438 0.929 . S
C407 C408 1.358 . S
C407 C409 1.356 . S
C407 H439 0.930 1_554 S
C408 N405 1.279 . S
C408 C407 1.358 . S
C408 H411 0.930 . S
C409 C406 1.348 . S
C409 C407 1.356 . S
H410 C404 0.930 . S
H411 C408 0.930 . S
O412 Li352 1.956 . S
O412 Li353 1.970 . S
O412 Li354 1.961 . S
O412 C356 1.325 . S
O413 Li352 1.970 . S
O413 Li353 1.956 . S
O413 Li355 1.961 . S
O413 C362 1.325 . S
O414 Li352 1.961 . S
O414 Li354 1.956 . S
O414 Li355 1.970 . S
O414 C384 1.325 . S
O415 Li353 1.961 . S
O415 Li354 1.970 . S
O415 Li355 1.956 . S
O415 C390 1.325 . S
H416 C358 0.929 . S
H417 C359 0.930 . S
H418 C360 0.930 . S
H419 C361 0.930 . S
H420 C363 0.930 . S
H421 C365 0.929 . S
H422 C366 0.930 . S
H423 C367 0.930 . S
H424 C370 0.930 . S
H425 C373 0.929 . S
H426 C378 0.929 . S
H427 C379 0.930 . S
H428 C386 0.929 . S
H429 C387 0.930 . S
H430 C388 0.930 . S
H431 C389 0.930 . S
H432 C391 0.929 . S
H433 C392 0.930 . S
H434 C393 0.930 1_556 S
H435 C394 0.930 . S
H436 C398 0.929 . S
H437 C400 0.930 . S
H438 C406 0.929 . S
H439 C407 0.930 1_556 S
Li440 N457 1.990 . S
Li440 O500 1.956 . S
Li440 O501 1.970 . S
Li440 O502 1.961 . S
Li441 N465 1.990 . S
Li441 O500 1.970 . S
Li441 O501 1.956 . S
Li441 O503 1.961 . S
Li442 N487 1.990 . S
Li442 O500 1.961 . S
Li442 O502 1.956 . S
Li442 O503 1.970 . S
Li443 N493 1.990 . S
Li443 O501 1.961 . S
Li443 O502 1.970 . S
Li443 O503 1.956 . S
C444 C446 1.348 . S
C444 C447 1.356 . S
C444 O500 1.325 . S
N445 C448 1.314 . S
N445 C449 1.279 . S
C446 C444 1.348 . S
C446 C448 1.353 . S
C446 H504 0.929 . S
C447 C444 1.356 . S
C447 C449 1.358 . S
C447 H505 0.930 . S
C448 N445 1.314 . S
C448 C446 1.353 . S
C448 H506 0.930 . S
C449 N445 1.279 . S
C449 C447 1.358 . S
C449 H507 0.930 . S
C450 C453 1.348 . S
C450 C454 1.356 . S
C450 O501 1.325 . S
C451 N452 1.279 . S
C451 C454 1.358 . S
C451 H508 0.930 . S
N452 C451 1.279 . S
N452 C455 1.314 . S
C453 C450 1.348 . S
C453 C455 1.353 . S
C453 H509 0.929 . S
C454 C450 1.356 . S
C454 C451 1.358 . S
C454 H510 0.930 . S
C455 N452 1.314 . S
C455 C453 1.353 . S
C455 H511 0.930 . S
C456 N457 1.314 . S
C456 C461 1.353 . S
C456 H462 0.930 . S
N457 Li440 1.990 . S
N457 C456 1.314 . S
N457 C459 1.279 . S
C458 C459 1.358 . S
C458 C460 1.356 . S
C458 H512 0.930 . S
C459 N457 1.279 . S
C459 C458 1.358 . S
C459 H463 0.930 . S
C460 C458 1.356 . S
C460 C461 1.348 . S
C461 C456 1.353 . S
C461 C460 1.348 . S
C461 H513 0.929 . S
H462 C456 0.930 . S
H463 C459 0.930 . S
C464 N465 1.314 . S
C464 C466 1.353 . S
C464 H470 0.930 . S
N465 Li441 1.990 . S
N465 C464 1.314 . S
N465 C468 1.279 . S
C466 C464 1.353 . S
C466 C469 1.348 . S
C466 H514 0.929 . S
C467 C468 1.358 . S
C467 C469 1.356 . S
C467 H515 0.930 . S
C468 N465 1.279 . S
C468 C467 1.358 . S
C468 H471 0.930 . S
C469 C466 1.348 . S
C469 C467 1.356 . S
H470 C464 0.930 . S
H471 C468 0.930 . S
C472 C474 1.348 . S
C472 C475 1.356 . S
C472 O502 1.325 . S
N473 C476 1.314 . S
N473 C477 1.279 . S
C474 C472 1.348 . S
C474 C476 1.353 . S
C474 H516 0.929 . S
C475 C472 1.356 . S
C475 C477 1.358 . S
C475 H517 0.930 . S
C476 N473 1.314 . S
C476 C474 1.353 . S
C476 H518 0.930 . S
C477 N473 1.279 . S
C477 C475 1.358 . S
C477 H519 0.930 . S
C478 C479 1.348 . S
C478 C480 1.356 . S
C478 O503 1.325 . S
C479 C478 1.348 . S
C479 C481 1.353 . S
C479 H520 0.929 . S
C480 C478 1.356 . S
C480 C482 1.358 . S
C480 H521 0.930 . S
C481 C479 1.353 . S
C481 N483 1.314 . S
C481 H522 0.930 . S
C482 C480 1.358 . S
C482 N483 1.279 . S
C482 H523 0.930 . S
N483 C481 1.314 . S
N483 C482 1.279 . S
C484 C486 1.353 . S
C484 N487 1.314 . S
C484 H490 0.930 . S
C485 N487 1.279 . S
C485 C488 1.358 . S
C485 H491 0.930 . S
C486 C484 1.353 . S
C486 C489 1.348 . S
C486 H524 0.929 . S
N487 Li442 1.990 . S
N487 C484 1.314 . S
N487 C485 1.279 . S
C488 C485 1.358 . S
C488 C489 1.356 . S
C488 H525 0.930 . S
C489 C486 1.348 . S
C489 C488 1.356 . S
H490 C484 0.930 . S
H491 C485 0.930 . S
C492 N493 1.314 . S
C492 C494 1.353 . S
C492 H498 0.930 . S
N493 Li443 1.990 . S
N493 C492 1.314 . S
N493 C496 1.279 . S
C494 C492 1.353 . S
C494 C497 1.348 . S
C494 H526 0.929 1_455 S
C495 C496 1.358 . S
C495 C497 1.356 . S
C495 H527 0.930 . S
C496 N493 1.279 . S
C496 C495 1.358 . S
C496 H499 0.930 . S
C497 C494 1.348 . S
C497 C495 1.356 . S
H498 C492 0.930 . S
H499 C496 0.930 . S
O500 Li440 1.956 . S
O500 Li441 1.970 . S
O500 Li442 1.961 . S
O500 C444 1.325 . S
O501 Li440 1.970 . S
O501 Li441 1.956 . S
O501 Li443 1.961 . S
O501 C450 1.325 . S
O502 Li440 1.961 . S
O502 Li442 1.956 . S
O502 Li443 1.970 . S
O502 C472 1.325 . S
O503 Li441 1.961 . S
O503 Li442 1.970 . S
O503 Li443 1.956 . S
O503 C478 1.325 . S
H504 C446 0.929 . S
H505 C447 0.930 . S
H506 C448 0.930 . S
H507 C449 0.930 . S
H508 C451 0.930 . S
H509 C453 0.929 . S
H510 C454 0.930 . S
H511 C455 0.930 . S
H512 C458 0.930 . S
H513 C461 0.929 . S
H514 C466 0.929 . S
H515 C467 0.930 . S
H516 C474 0.929 . S
H517 C475 0.930 . S
H518 C476 0.930 . S
H519 C477 0.930 . S
H520 C479 0.929 . S
H521 C480 0.930 . S
H522 C481 0.930 . S
H523 C482 0.930 . S
H524 C486 0.929 . S
H525 C488 0.930 . S
H526 C494 0.929 1_655 S
H527 C495 0.930 . S
Li528 N545 1.990 . S
Li528 O588 1.956 . S
Li528 O589 1.970 . S
Li528 O590 1.961 . S
Li529 N553 1.990 . S
Li529 O588 1.970 . S
Li529 O589 1.956 . S
Li529 O591 1.961 . S
Li530 N575 1.990 . S
Li530 O588 1.961 . S
Li530 O590 1.956 . S
Li530 O591 1.970 . S
Li531 N581 1.990 . S
Li531 O589 1.961 . S
Li531 O590 1.970 . S
Li531 O591 1.956 . S
C532 C534 1.348 . S
C532 C535 1.356 . S
C532 O588 1.325 . S
N533 C536 1.314 . S
N533 C537 1.279 . S
C534 C532 1.348 . S
C534 C536 1.353 . S
C534 H592 0.929 . S
C535 C532 1.356 . S
C535 C537 1.358 . S
C535 H593 0.930 . S
C536 N533 1.314 . S
C536 C534 1.353 . S
C536 H594 0.930 . S
C537 N533 1.279 . S
C537 C535 1.358 . S
C537 H595 0.930 . S
C538 C541 1.348 . S
C538 C542 1.356 . S
C538 O589 1.325 . S
C539 N540 1.279 . S
C539 C542 1.358 . S
C539 H596 0.930 . S
N540 C539 1.279 . S
N540 C543 1.314 . S
C541 C538 1.348 . S
C541 C543 1.353 . S
C541 H597 0.929 . S
C542 C538 1.356 . S
C542 C539 1.358 . S
C542 H598 0.930 . S
C543 N540 1.314 . S
C543 C541 1.353 . S
C543 H599 0.930 . S
C544 N545 1.314 . S
C544 C549 1.353 . S
C544 H550 0.930 . S
N545 Li528 1.990 . S
N545 C544 1.314 . S
N545 C547 1.279 . S
C546 C547 1.358 . S
C546 C548 1.356 . S
C546 H600 0.930 . S
C547 N545 1.279 . S
C547 C546 1.358 . S
C547 H551 0.930 . S
C548 C546 1.356 . S
C548 C549 1.348 . S
C549 C544 1.353 . S
C549 C548 1.348 . S
C549 H601 0.929 . S
H550 C544 0.930 . S
H551 C547 0.930 . S
C552 N553 1.314 . S
C552 C554 1.353 . S
C552 H558 0.930 . S
N553 Li529 1.990 . S
N553 C552 1.314 . S
N553 C556 1.279 . S
C554 C552 1.353 . S
C554 C557 1.348 . S
C554 H602 0.929 1_655 S
C555 C556 1.358 . S
C555 C557 1.356 . S
C555 H603 0.930 . S
C556 N553 1.279 . S
C556 C555 1.358 . S
C556 H559 0.930 . S
C557 C554 1.348 . S
C557 C555 1.356 . S
H558 C552 0.930 . S
H559 C556 0.930 . S
C560 C562 1.348 . S
C560 C563 1.356 . S
C560 O590 1.325 . S
N561 C564 1.314 . S
N561 C565 1.279 . S
C562 C560 1.348 . S
C562 C564 1.353 . S
C562 H604 0.929 . S
C563 C560 1.356 . S
C563 C565 1.358 . S
C563 H605 0.930 . S
C564 N561 1.314 . S
C564 C562 1.353 . S
C564 H606 0.930 . S
C565 N561 1.279 . S
C565 C563 1.358 . S
C565 H607 0.930 . S
C566 C567 1.348 . S
C566 C568 1.356 . S
C566 O591 1.325 . S
C567 C566 1.348 . S
C567 C569 1.353 . S
C567 H608 0.929 . S
C568 C566 1.356 . S
C568 C570 1.358 . S
C568 H609 0.930 . S
C569 C567 1.353 . S
C569 N571 1.314 . S
C569 H610 0.930 . S
C570 C568 1.358 . S
C570 N571 1.279 . S
C570 H611 0.930 . S
N571 C569 1.314 . S
N571 C570 1.279 . S
C572 C574 1.353 . S
C572 N575 1.314 . S
C572 H578 0.930 . S
C573 N575 1.279 . S
C573 C576 1.358 . S
C573 H579 0.930 . S
C574 C572 1.353 . S
C574 C577 1.348 . S
C574 H612 0.929 . S
N575 Li530 1.990 . S
N575 C572 1.314 . S
N575 C573 1.279 . S
C576 C573 1.358 . S
C576 C577 1.356 . S
C576 H613 0.930 . S
C577 C574 1.348 . S
C577 C576 1.356 . S
H578 C572 0.930 . S
H579 C573 0.930 . S
C580 N581 1.314 . S
C580 C582 1.353 . S
C580 H586 0.930 . S
N581 Li531 1.990 . S
N581 C580 1.314 . S
N581 C584 1.279 . S
C582 C580 1.353 . S
C582 C585 1.348 . S
C582 H614 0.929 . S
C583 C584 1.358 . S
C583 C585 1.356 . S
C583 H615 0.930 . S
C584 N581 1.279 . S
C584 C583 1.358 . S
C584 H587 0.930 . S
C585 C582 1.348 . S
C585 C583 1.356 . S
H586 C580 0.930 . S
H587 C584 0.930 . S
O588 Li528 1.956 . S
O588 Li529 1.970 . S
O588 Li530 1.961 . S
O588 C532 1.325 . S
O589 Li528 1.970 . S
O589 Li529 1.956 . S
O589 Li531 1.961 . S
O589 C538 1.325 . S
O590 Li528 1.961 . S
O590 Li530 1.956 . S
O590 Li531 1.970 . S
O590 C560 1.325 . S
O591 Li529 1.961 . S
O591 Li530 1.970 . S
O591 Li531 1.956 . S
O591 C566 1.325 . S
H592 C534 0.929 . S
H593 C535 0.930 . S
H594 C536 0.930 . S
H595 C537 0.930 . S
H596 C539 0.930 . S
H597 C541 0.929 . S
H598 C542 0.930 . S
H599 C543 0.930 . S
H600 C546 0.930 . S
H601 C549 0.929 . S
H602 C554 0.929 1_455 S
H603 C555 0.930 . S
H604 C562 0.929 . S
H605 C563 0.930 . S
H606 C564 0.930 . S
H607 C565 0.930 . S
H608 C567 0.929 . S
H609 C568 0.930 . S
H610 C569 0.930 . S
H611 C570 0.930 . S
H612 C574 0.929 . S
H613 C576 0.930 . S
H614 C582 0.929 . S
H615 C583 0.930 . S
Li616 N633 1.990 . S
Li616 O676 1.956 . S
Li616 O677 1.970 . S
Li616 O678 1.961 . S
Li617 N641 1.990 . S
Li617 O676 1.970 . S
Li617 O677 1.956 . S
Li617 O679 1.961 . S
Li618 N663 1.990 . S
Li618 O676 1.961 . S
Li618 O678 1.956 . S
Li618 O679 1.970 . S
Li619 N669 1.990 . S
Li619 O677 1.961 . S
Li619 O678 1.970 . S
Li619 O679 1.956 . S
C620 C622 1.348 . S
C620 C623 1.356 . S
C620 O676 1.325 . S
N621 C624 1.314 . S
N621 C625 1.279 . S
C622 C620 1.348 . S
C622 C624 1.353 . S
C622 H680 0.929 . S
C623 C620 1.356 . S
C623 C625 1.358 . S
C623 H681 0.930 . S
C624 N621 1.314 . S
C624 C622 1.353 . S
C624 H682 0.930 . S
C625 N621 1.279 . S
C625 C623 1.358 . S
C625 H683 0.930 . S
C626 C629 1.348 . S
C626 C630 1.356 . S
C626 O677 1.325 . S
C627 N628 1.279 . S
C627 C630 1.358 . S
C627 H684 0.930 . S
N628 C627 1.279 . S
N628 C631 1.314 . S
C629 C626 1.348 . S
C629 C631 1.353 . S
C629 H685 0.929 . S
C630 C626 1.356 . S
C630 C627 1.358 . S
C630 H686 0.930 . S
C631 N628 1.314 . S
C631 C629 1.353 . S
C631 H687 0.930 . S
C632 N633 1.314 . S
C632 C637 1.353 . S
C632 H638 0.930 . S
N633 Li616 1.990 . S
N633 C632 1.314 . S
N633 C635 1.279 . S
C634 C635 1.358 . S
C634 C636 1.356 . S
C634 H688 0.930 . S
C635 N633 1.279 . S
C635 C634 1.358 . S
C635 H639 0.930 . S
C636 C634 1.356 . S
C636 C637 1.348 . S
C637 C632 1.353 . S
C637 C636 1.348 . S
C637 H689 0.929 . S
H638 C632 0.930 . S
H639 C635 0.930 . S
C640 N641 1.314 . S
C640 C642 1.353 . S
C640 H646 0.930 . S
N641 Li617 1.990 . S
N641 C640 1.314 . S
N641 C644 1.279 . S
C642 C640 1.353 . S
C642 C645 1.348 . S
C642 H690 0.965 . S
C643 C644 1.358 . S
C643 C645 1.356 . S
C643 H691 0.930 . S
C644 N641 1.279 . S
C644 C643 1.358 . S
C644 H647 0.930 . S
C645 C642 1.348 . S
C645 C643 1.356 . S
H646 C640 0.930 . S
H647 C644 0.930 . S
C648 C650 1.348 . S
C648 C651 1.356 . S
C648 O678 1.325 . S
N649 C652 1.314 . S
N649 C653 1.279 . S
C650 C648 1.348 . S
C650 C652 1.353 . S
C650 H692 0.929 . S
C651 C648 1.356 . S
C651 C653 1.358 . S
C651 H693 0.930 . S
C652 N649 1.314 . S
C652 C650 1.353 . S
C652 H694 0.930 . S
C653 N649 1.279 . S
C653 C651 1.358 . S
C653 H695 0.930 . S
C654 C655 1.348 . S
C654 C656 1.356 . S
C654 O679 1.325 . S
C655 C654 1.348 . S
C655 C657 1.353 . S
C655 H696 0.929 . S
C656 C654 1.356 . S
C656 C658 1.358 1_556 S
C656 H697 0.930 . S
C657 C655 1.353 . S
C657 N659 1.314 1_556 S
C657 H698 0.930 1_556 S
C658 C656 1.358 1_554 S
C658 N659 1.279 . S
C658 H699 0.930 . S
N659 C657 1.314 1_554 S
N659 C658 1.279 . S
C660 C662 1.353 . S
C660 N663 1.314 . S
C660 H666 0.930 . S
C661 N663 1.279 . S
C661 C664 1.358 . S
C661 H667 0.930 . S
C662 C660 1.353 . S
C662 C665 1.348 . S
C662 H700 0.929 . S
N663 Li618 1.990 . S
N663 C660 1.314 . S
N663 C661 1.279 . S
C664 C661 1.358 . S
C664 C665 1.356 . S
C664 H701 0.930 . S
C665 C662 1.348 . S
C665 C664 1.356 . S
H666 C660 0.930 . S
H667 C661 0.930 . S
C668 N669 1.314 . S
C668 C670 1.353 . S
C668 H674 0.930 . S
N669 Li619 1.990 . S
N669 C668 1.314 . S
N669 C672 1.279 . S
C670 C668 1.353 . S
C670 C673 1.348 . S
C670 H702 0.929 . S
C671 C672 1.358 . S
C671 C673 1.356 . S
C671 H703 0.930 . S
C672 N669 1.279 . S
C672 C671 1.358 . S
C672 H675 0.930 . S
C673 C670 1.348 . S
C673 C671 1.356 . S
H674 C668 0.930 . S
H675 C672 0.930 . S
O676 Li616 1.956 . S
O676 Li617 1.970 . S
O676 Li618 1.961 . S
O676 C620 1.325 . S
O677 Li616 1.970 . S
O677 Li617 1.956 . S
O677 Li619 1.961 . S
O677 C626 1.325 . S
O678 Li616 1.961 . S
O678 Li618 1.956 . S
O678 Li619 1.970 . S
O678 C648 1.325 . S
O679 Li617 1.961 . S
O679 Li618 1.970 . S
O679 Li619 1.956 . S
O679 C654 1.325 . S
H680 C622 0.929 . S
H681 C623 0.930 . S
H682 C624 0.930 . S
H683 C625 0.930 . S
H684 C627 0.930 . S
H685 C629 0.929 . S
H686 C630 0.930 . S
H687 C631 0.930 . S
H688 C634 0.930 . S
H689 C637 0.929 . S
H690 C642 0.965 . S
H691 C643 0.930 . S
H692 C650 0.929 . S
H693 C651 0.930 . S
H694 C652 0.930 . S
H695 C653 0.930 . S
H696 C655 0.929 . S
H697 C656 0.930 . S
H698 C657 0.930 1_554 S
H699 C658 0.930 . S
H700 C662 0.929 . S
H701 C664 0.930 . S
H702 C670 0.929 . S
H703 C671 0.930 . S
Li704 N721 1.990 . S
Li704 O764 1.956 . S
Li704 O765 1.970 . S
Li704 O766 1.961 . S
Li705 N729 1.990 . S
Li705 O764 1.970 . S
Li705 O765 1.956 . S
Li705 O767 1.961 . S
Li706 N751 1.990 . S
Li706 O764 1.961 . S
Li706 O766 1.956 . S
Li706 O767 1.970 . S
Li707 N757 1.990 . S
Li707 O765 1.961 . S
Li707 O766 1.970 . S
Li707 O767 1.956 . S
C708 C710 1.348 . S
C708 C711 1.356 . S
C708 O764 1.325 . S
N709 C712 1.314 . S
N709 C713 1.279 . S
C710 C708 1.348 . S
C710 C712 1.353 . S
C710 H768 0.929 . S
C711 C708 1.356 . S
C711 C713 1.358 . S
C711 H769 0.930 . S
C712 N709 1.314 . S
C712 C710 1.353 . S
C712 H770 0.930 . S
C713 N709 1.279 . S
C713 C711 1.358 . S
C713 H771 0.930 . S
C714 C717 1.348 . S
C714 C718 1.356 . S
C714 O765 1.325 . S
C715 N716 1.279 . S
C715 C718 1.358 . S
C715 H772 0.930 . S
N716 C715 1.279 . S
N716 C719 1.314 . S
C717 C714 1.348 . S
C717 C719 1.353 . S
C717 H773 0.929 . S
C718 C714 1.356 . S
C718 C715 1.358 . S
C718 H774 0.930 . S
C719 N716 1.314 . S
C719 C717 1.353 . S
C719 H775 0.930 . S
C720 N721 1.314 . S
C720 C725 1.353 . S
C720 H726 0.930 . S
N721 Li704 1.990 . S
N721 C720 1.314 . S
N721 C723 1.279 . S
C722 C723 1.358 . S
C722 C724 1.356 . S
C722 H776 0.930 . S
C723 N721 1.279 . S
C723 C722 1.358 . S
C723 H727 0.930 . S
C724 C722 1.356 . S
C724 C725 1.348 . S
C725 C720 1.353 . S
C725 C724 1.348 . S
C725 H777 0.929 . S
H726 C720 0.930 . S
H727 C723 0.930 . S
C728 N729 1.314 . S
C728 C730 1.353 . S
C728 H734 0.930 . S
N729 Li705 1.990 . S
N729 C728 1.314 . S
N729 C732 1.279 . S
C730 C728 1.353 . S
C730 C733 1.348 . S
C730 H778 0.929 . S
C731 C732 1.358 . S
C731 C733 1.356 . S
C731 H779 0.930 . S
C732 N729 1.279 . S
C732 C731 1.358 . S
C732 H735 0.930 . S
C733 C730 1.348 . S
C733 C731 1.356 . S
H734 C728 0.930 . S
H735 C732 0.930 . S
C736 C738 1.348 . S
C736 C739 1.356 . S
C736 O766 1.325 . S
N737 C740 1.314 . S
N737 C741 1.279 . S
C738 C736 1.348 . S
C738 C740 1.353 . S
C738 H780 0.929 . S
C739 C736 1.356 . S
C739 C741 1.358 . S
C739 H781 0.930 . S
C740 N737 1.314 . S
C740 C738 1.353 . S
C740 H782 0.930 . S
C741 N737 1.279 . S
C741 C739 1.358 . S
C741 H783 0.930 . S
C742 C743 1.348 . S
C742 C744 1.356 . S
C742 O767 1.325 . S
C743 C742 1.348 . S
C743 C745 1.353 . S
C743 H784 0.929 . S
C744 C742 1.356 . S
C744 C746 1.358 . S
C744 H785 0.930 . S
C745 C743 1.353 . S
C745 N747 1.314 . S
C745 H786 0.930 . S
C746 C744 1.358 . S
C746 N747 1.279 . S
C746 H787 0.930 . S
N747 C745 1.314 . S
N747 C746 1.279 . S
C748 C750 1.353 . S
C748 N751 1.314 . S
C748 H754 0.930 . S
C749 N751 1.279 . S
C749 C752 1.358 . S
C749 H755 0.930 . S
C750 C748 1.353 . S
C750 C753 1.348 . S
C750 H788 0.929 . S
N751 Li706 1.990 . S
N751 C748 1.314 . S
N751 C749 1.279 . S
C752 C749 1.358 . S
C752 C753 1.356 . S
C752 H789 0.930 . S
C753 C750 1.348 . S
C753 C752 1.356 . S
H754 C748 0.930 . S
H755 C749 0.930 . S
C756 N757 1.314 . S
C756 C758 1.353 . S
C756 H762 0.930 . S
N757 Li707 1.990 . S
N757 C756 1.314 . S
N757 C760 1.279 . S
C758 C756 1.353 . S
C758 C761 1.348 . S
C758 H790 0.929 . S
C759 C760 1.358 . S
C759 C761 1.356 . S
C759 H791 0.930 . S
C760 N757 1.279 . S
C760 C759 1.358 . S
C760 H763 0.930 . S
C761 C758 1.348 . S
C761 C759 1.356 . S
H762 C756 0.930 . S
H763 C760 0.930 . S
O764 Li704 1.956 . S
O764 Li705 1.970 . S
O764 Li706 1.961 . S
O764 C708 1.325 . S
O765 Li704 1.970 . S
O765 Li705 1.956 . S
O765 Li707 1.961 . S
O765 C714 1.325 . S
O766 Li704 1.961 . S
O766 Li706 1.956 . S
O766 Li707 1.970 . S
O766 C736 1.325 . S
O767 Li705 1.961 . S
O767 Li706 1.970 . S
O767 Li707 1.956 . S
O767 C742 1.325 . S
H768 C710 0.929 . S
H769 C711 0.930 . S
H770 C712 0.930 . S
H771 C713 0.930 . S
H772 C715 0.930 . S
H773 C717 0.929 . S
H774 C718 0.930 . S
H775 C719 0.930 . S
H776 C722 0.930 . S
H777 C725 0.929 . S
H778 C730 0.929 . S
H779 C731 0.930 . S
H780 C738 0.929 . S
H781 C739 0.930 . S
H782 C740 0.930 . S
H783 C741 0.930 . S
H784 C743 0.929 . S
H785 C744 0.930 . S
H786 C745 0.930 . S
H787 C746 0.930 . S
H788 C750 0.929 . S
H789 C752 0.930 . S
H790 C758 0.929 . S
H791 C759 0.930 . S
Li792 N809 1.990 . S
Li792 O852 1.956 . S
Li792 O853 1.970 . S
Li792 O854 1.961 . S
Li793 N817 1.990 . S
Li793 O852 1.970 . S
Li793 O853 1.956 . S
Li793 O855 1.961 . S
Li794 N839 1.990 . S
Li794 O852 1.961 . S
Li794 O854 1.956 . S
Li794 O855 1.970 . S
Li795 N845 1.990 . S
Li795 O853 1.961 . S
Li795 O854 1.970 . S
Li795 O855 1.956 . S
C796 C798 1.348 . S
C796 C799 1.356 . S
C796 O852 1.325 . S
N797 C800 1.314 1_554 S
N797 C801 1.279 . S
C798 C796 1.348 . S
C798 C800 1.353 . S
C798 H856 0.929 . S
C799 C796 1.356 . S
C799 C801 1.358 1_556 S
C799 H857 0.930 . S
C800 N797 1.314 1_556 S
C800 C798 1.353 . S
C800 H858 0.930 1_556 S
C801 N797 1.279 . S
C801 C799 1.358 1_554 S
C801 H859 0.930 . S
C802 C805 1.348 . S
C802 C806 1.356 . S
C802 O853 1.325 . S
C803 N804 1.279 . S
C803 C806 1.358 . S
C803 H860 0.930 . S
N804 C803 1.279 . S
N804 C807 1.314 . S
C805 C802 1.348 . S
C805 C807 1.353 . S
C805 H861 0.929 . S
C806 C802 1.356 . S
C806 C803 1.358 . S
C806 H862 0.930 . S
C807 N804 1.314 . S
C807 C805 1.353 . S
C807 H863 0.930 . S
C808 N809 1.314 . S
C808 C813 1.353 . S
C808 H814 0.930 . S
N809 Li792 1.990 . S
N809 C808 1.314 . S
N809 C811 1.279 . S
C810 C811 1.358 . S
C810 C812 1.356 . S
C810 H864 0.930 1_556 S
C811 N809 1.279 . S
C811 C810 1.358 . S
C811 H815 0.930 . S
C812 C810 1.356 . S
C812 C813 1.348 . S
C813 C808 1.353 . S
C813 C812 1.348 . S
C813 H865 0.929 1_455 S
H814 C808 0.930 . S
H815 C811 0.930 . S
C816 N817 1.314 . S
C816 C818 1.353 . S
C816 H822 0.930 . S
N817 Li793 1.990 . S
N817 C816 1.314 . S
N817 C820 1.279 . S
C818 C816 1.353 . S
C818 C821 1.348 . S
C818 H866 0.929 . S
C819 C820 1.358 . S
C819 C821 1.356 . S
C819 H867 0.930 . S
C820 N817 1.279 . S
C820 C819 1.358 . S
C820 H823 0.930 . S
C821 C818 1.348 . S
C821 C819 1.356 . S
H822 C816 0.930 . S
H823 C820 0.930 . S
C824 C826 1.348 . S
C824 C827 1.356 . S
C824 O854 1.325 . S
N825 C828 1.314 . S
N825 C829 1.279 . S
C826 C824 1.348 . S
C826 C828 1.353 . S
C826 H868 0.929 . S
C827 C824 1.356 . S
C827 C829 1.358 . S
C827 H869 0.930 . S
C828 N825 1.314 . S
C828 C826 1.353 . S
C828 H870 0.930 . S
C829 N825 1.279 . S
C829 C827 1.358 . S
C829 H871 0.930 . S
C830 C831 1.348 . S
C830 C832 1.356 . S
C830 O855 1.325 . S
C831 C830 1.348 . S
C831 C833 1.353 . S
C831 H872 0.929 . S
C832 C830 1.356 . S
C832 C834 1.358 . S
C832 H873 0.930 . S
C833 C831 1.353 . S
C833 N835 1.314 . S
C833 H874 0.930 . S
C834 C832 1.358 . S
C834 N835 1.279 . S
C834 H875 0.930 . S
N835 C833 1.314 . S
N835 C834 1.279 . S
C836 C838 1.353 . S
C836 N839 1.314 . S
C836 H842 0.930 . S
C837 N839 1.279 . S
C837 C840 1.358 . S
C837 H843 0.930 . S
C838 C836 1.353 . S
C838 C841 1.348 . S
C838 H876 0.929 . S
N839 Li794 1.990 . S
N839 C836 1.314 . S
N839 C837 1.279 . S
C840 C837 1.358 . S
C840 C841 1.356 . S
C840 H877 0.930 . S
C841 C838 1.348 . S
C841 C840 1.356 . S
H842 C836 0.930 . S
H843 C837 0.930 . S
C844 N845 1.314 . S
C844 C846 1.353 . S
C844 H850 0.930 . S
N845 Li795 1.990 . S
N845 C844 1.314 . S
N845 C848 1.279 . S
C846 C844 1.353 . S
C846 C849 1.348 . S
C846 H878 0.929 . S
C847 C848 1.358 . S
C847 C849 1.356 . S
C847 H879 0.930 . S
C848 N845 1.279 . S
C848 C847 1.358 . S
C848 H851 0.930 . S
C849 C846 1.348 . S
C849 C847 1.356 . S
H850 C844 0.930 . S
H851 C848 0.930 . S
O852 Li792 1.956 . S
O852 Li793 1.970 . S
O852 Li794 1.961 . S
O852 C796 1.325 . S
O853 Li792 1.970 . S
O853 Li793 1.956 . S
O853 Li795 1.961 . S
O853 C802 1.325 . S
O854 Li792 1.961 . S
O854 Li794 1.956 . S
O854 Li795 1.970 . S
O854 C824 1.325 . S
O855 Li793 1.961 . S
O855 Li794 1.970 . S
O855 Li795 1.956 . S
O855 C830 1.325 . S
H856 C798 0.929 . S
H857 C799 0.930 . S
H858 C800 0.930 1_554 S
H859 C801 0.930 . S
H860 C803 0.930 . S
H861 C805 0.929 . S
H862 C806 0.930 . S
H863 C807 0.930 . S
H864 C810 0.930 1_554 S
H865 C813 0.929 1_655 S
H866 C818 0.929 . S
H867 C819 0.930 . S
H868 C826 0.929 . S
H869 C827 0.930 . S
H870 C828 0.930 . S
H871 C829 0.930 . S
H872 C831 0.929 . S
H873 C832 0.930 . S
H874 C833 0.930 . S
H875 C834 0.930 . S
H876 C838 0.929 . S
H877 C840 0.930 . S
H878 C846 0.929 . S
H879 C847 0.930 . S
Li880 N897 1.990 . S
Li880 O940 1.956 . S
Li880 O941 1.970 . S
Li880 O942 1.961 . S
Li881 N905 1.990 . S
Li881 O940 1.970 . S
Li881 O941 1.956 . S
Li881 O943 1.961 . S
Li882 N927 1.990 . S
Li882 O940 1.961 . S
Li882 O942 1.956 . S
Li882 O943 1.970 . S
Li883 N933 1.990 . S
Li883 O941 1.961 . S
Li883 O942 1.970 . S
Li883 O943 1.956 . S
C884 C886 1.348 . S
C884 C887 1.356 . S
C884 O940 1.325 . S
N885 C888 1.314 . S
N885 C889 1.279 . S
C886 C884 1.348 . S
C886 C888 1.353 . S
C886 H944 0.929 . S
C887 C884 1.356 . S
C887 C889 1.358 . S
C887 H945 0.930 . S
C888 N885 1.314 . S
C888 C886 1.353 . S
C888 H946 0.930 . S
C889 N885 1.279 . S
C889 C887 1.358 . S
C889 H947 0.930 . S
C890 C893 1.348 . S
C890 C894 1.356 . S
C890 O941 1.325 . S
C891 N892 1.279 . S
C891 C894 1.358 . S
C891 H948 0.930 . S
N892 C891 1.279 . S
N892 C895 1.314 . S
C893 C890 1.348 . S
C893 C895 1.353 . S
C893 H949 0.929 . S
C894 C890 1.356 . S
C894 C891 1.358 . S
C894 H950 0.930 . S
C895 N892 1.314 . S
C895 C893 1.353 . S
C895 H951 0.930 . S
C896 N897 1.314 . S
C896 C901 1.353 . S
C896 H902 0.930 . S
N897 Li880 1.990 . S
N897 C896 1.314 . S
N897 C899 1.279 . S
C898 C899 1.358 . S
C898 C900 1.356 . S
C898 H952 0.930 . S
C899 N897 1.279 . S
C899 C898 1.358 . S
C899 H903 0.930 . S
C900 C898 1.356 . S
C900 C901 1.348 . S
C901 C896 1.353 . S
C901 C900 1.348 . S
C901 H953 0.929 . S
H902 C896 0.930 . S
H903 C899 0.930 . S
C904 N905 1.314 . S
C904 C906 1.353 . S
C904 H910 0.930 . S
N905 Li881 1.990 . S
N905 C904 1.314 . S
N905 C908 1.279 . S
C906 C904 1.353 . S
C906 C909 1.348 . S
C906 H954 0.929 . S
C907 C908 1.358 . S
C907 C909 1.356 . S
C907 H955 0.930 . S
C908 N905 1.279 . S
C908 C907 1.358 . S
C908 H911 0.930 . S
C909 C906 1.348 . S
C909 C907 1.356 . S
H910 C904 0.930 . S
H911 C908 0.930 . S
C912 C914 1.348 . S
C912 C915 1.356 . S
C912 O942 1.325 . S
N913 C916 1.314 . S
N913 C917 1.279 . S
C914 C912 1.348 . S
C914 C916 1.353 . S
C914 H956 0.929 . S
C915 C912 1.356 . S
C915 C917 1.358 . S
C915 H957 0.930 . S
C916 N913 1.314 . S
C916 C914 1.353 . S
C916 H958 0.930 . S
C917 N913 1.279 . S
C917 C915 1.358 . S
C917 H959 0.930 . S
C918 C919 1.348 . S
C918 C920 1.356 . S
C918 O943 1.325 . S
C919 C918 1.348 . S
C919 C921 1.353 . S
C919 H960 0.929 . S
C920 C918 1.356 . S
C920 C922 1.358 . S
C920 H961 0.930 . S
C921 C919 1.353 . S
C921 N923 1.314 . S
C921 H962 0.930 . S
C922 C920 1.358 . S
C922 N923 1.279 . S
C922 H963 0.930 . S
N923 C921 1.314 . S
N923 C922 1.279 . S
C924 C926 1.353 . S
C924 N927 1.314 . S
C924 H930 0.930 . S
C925 N927 1.279 . S
C925 C928 1.358 . S
C925 H931 0.930 . S
C926 C924 1.353 . S
C926 C929 1.348 . S
C926 H964 0.929 . S
N927 Li882 1.990 . S
N927 C924 1.314 . S
N927 C925 1.279 . S
C928 C925 1.358 . S
C928 C929 1.356 . S
C928 H965 0.930 . S
C929 C926 1.348 . S
C929 C928 1.356 . S
H930 C924 0.930 . S
H931 C925 0.930 . S
C932 N933 1.314 . S
C932 C934 1.353 . S
C932 H938 0.930 . S
N933 Li883 1.990 . S
N933 C932 1.314 . S
N933 C936 1.279 . S
C934 C932 1.353 . S
C934 C937 1.348 . S
C934 H966 0.929 . S
C935 C936 1.358 . S
C935 C937 1.356 . S
C935 H967 0.930 . S
C936 N933 1.279 . S
C936 C935 1.358 . S
C936 H939 0.930 . S
C937 C934 1.348 . S
C937 C935 1.356 . S
H938 C932 0.930 . S
H939 C936 0.930 . S
O940 Li880 1.956 . S
O940 Li881 1.970 . S
O940 Li882 1.961 . S
O940 C884 1.325 . S
O941 Li880 1.970 . S
O941 Li881 1.956 . S
O941 Li883 1.961 . S
O941 C890 1.325 . S
O942 Li880 1.961 . S
O942 Li882 1.956 . S
O942 Li883 1.970 . S
O942 C912 1.325 . S
O943 Li881 1.961 . S
O943 Li882 1.970 . S
O943 Li883 1.956 . S
O943 C918 1.325 . S
H944 C886 0.929 . S
H945 C887 0.930 . S
H946 C888 0.930 . S
H947 C889 0.930 . S
H948 C891 0.930 . S
H949 C893 0.929 . S
H950 C894 0.930 . S
H951 C895 0.930 . S
H952 C898 0.930 . S
H953 C901 0.929 . S
H954 C906 0.929 . S
H955 C907 0.930 . S
H956 C914 0.929 . S
H957 C915 0.930 . S
H958 C916 0.930 . S
H959 C917 0.930 . S
H960 C919 0.929 . S
H961 C920 0.930 . S
H962 C921 0.930 . S
H963 C922 0.930 . S
H964 C926 0.929 . S
H965 C928 0.930 . S
H966 C934 0.929 . S
H967 C935 0.930 . S
Li968 N985 1.990 . S
Li968 O1028 1.956 . S
Li968 O1029 1.970 . S
Li968 O1030 1.961 . S
Li969 N993 1.990 . S
Li969 O1028 1.970 . S
Li969 O1029 1.956 . S
Li969 O1031 1.961 . S
Li970 N1015 1.990 . S
Li970 O1028 1.961 . S
Li970 O1030 1.956 . S
Li970 O1031 1.970 . S
Li971 N1021 1.990 . S
Li971 O1029 1.961 . S
Li971 O1030 1.970 . S
Li971 O1031 1.956 . S
C972 C974 1.348 . S
C972 C975 1.356 . S
C972 O1028 1.325 . S
N973 C976 1.314 . S
N973 C977 1.279 . S
C974 C972 1.348 . S
C974 C976 1.353 . S
C974 H1032 0.929 . S
C975 C972 1.356 . S
C975 C977 1.358 . S
C975 H1033 0.930 . S
C976 N973 1.314 . S
C976 C974 1.353 . S
C976 H1034 0.930 . S
C977 N973 1.279 . S
C977 C975 1.358 . S
C977 H1035 0.930 . S
C978 C981 1.348 . S
C978 C982 1.356 . S
C978 O1029 1.325 . S
C979 N980 1.288 . S
C979 C982 1.344 1_554 S
C979 H1036 0.936 . S
N980 C979 1.288 . S
N980 C983 1.314 . S
C981 C978 1.348 . S
C981 C983 1.353 1_556 S
C981 H1037 0.929 . S
C982 C978 1.356 . S
C982 C979 1.344 1_556 S
C982 H1038 0.930 . S
C983 N980 1.314 . S
C983 C981 1.353 1_554 S
C983 H1039 0.930 . S
C984 N985 1.314 . S
C984 C989 1.353 . S
C984 H990 0.930 . S
N985 Li968 1.990 . S
N985 C984 1.314 . S
N985 C987 1.279 . S
C986 C987 1.358 . S
C986 C988 1.356 . S
C986 H1040 0.930 . S
C987 N985 1.279 . S
C987 C986 1.358 . S
C987 H991 0.930 . S
C988 C986 1.356 . S
C988 C989 1.348 . S
C989 C984 1.353 . S
C989 C988 1.348 . S
C989 H1041 0.929 . S
H990 C984 0.930 . S
H991 C987 0.930 . S
C992 N993 1.314 . S
C992 C994 1.353 . S
C992 H998 0.930 . S
N993 Li969 1.990 . S
N993 C992 1.314 . S
N993 C996 1.279 . S
C994 C992 1.353 . S
C994 C997 1.348 . S
C994 H1042 0.929 . S
C995 C996 1.358 . S
C995 C997 1.356 . S
C995 H1043 0.930 1_556 S
C996 N993 1.279 . S
C996 C995 1.358 . S
C996 H999 0.930 . S
C997 C994 1.348 . S
C997 C995 1.356 . S
H998 C992 0.930 . S
H999 C996 0.930 . S
C1000 C1002 1.348 . S
C1000 C1003 1.356 . S
C1000 O1030 1.325 . S
N1001 C1004 1.314 . S
N1001 C1005 1.279 . S
C1002 C1000 1.348 . S
C1002 C1004 1.353 . S
C1002 H1044 0.929 . S
C1003 C1000 1.356 . S
C1003 C1005 1.358 . S
C1003 H1045 0.930 . S
C1004 N1001 1.314 . S
C1004 C1002 1.353 . S
C1004 H1046 0.930 . S
C1005 N1001 1.279 . S
C1005 C1003 1.358 . S
C1005 H1047 0.930 . S
C1006 C1007 1.348 . S
C1006 C1008 1.356 . S
C1006 O1031 1.325 . S
C1007 C1006 1.348 . S
C1007 C1009 1.353 . S
C1007 H1048 0.929 . S
C1008 C1006 1.356 . S
C1008 C1010 1.358 . S
C1008 H1049 0.930 . S
C1009 C1007 1.353 . S
C1009 N1011 1.314 . S
C1009 H1050 0.930 . S
C1010 C1008 1.358 . S
C1010 N1011 1.279 . S
C1010 H1051 0.930 . S
N1011 C1009 1.314 . S
N1011 C1010 1.279 . S
C1012 C1014 1.353 . S
C1012 N1015 1.314 . S
C1012 H1018 0.930 . S
C1013 N1015 1.279 . S
C1013 C1016 1.358 . S
C1013 H1019 0.930 . S
C1014 C1012 1.353 . S
C1014 C1017 1.348 . S
C1014 H1052 0.929 . S
N1015 Li970 1.990 . S
N1015 C1012 1.314 . S
N1015 C1013 1.279 . S
C1016 C1013 1.358 . S
C1016 C1017 1.356 . S
C1016 H1053 0.930 . S
C1017 C1014 1.348 . S
C1017 C1016 1.356 . S
H1018 C1012 0.930 . S
H1019 C1013 0.930 . S
C1020 N1021 1.314 . S
C1020 C1022 1.353 . S
C1020 H1026 0.930 . S
N1021 Li971 1.990 . S
N1021 C1020 1.314 . S
N1021 C1024 1.279 . S
C1022 C1020 1.353 . S
C1022 C1025 1.348 . S
C1022 H1054 0.929 . S
C1023 C1024 1.358 . S
C1023 C1025 1.356 . S
C1023 H1055 0.930 . S
C1024 N1021 1.279 . S
C1024 C1023 1.358 . S
C1024 H1027 0.930 . S
C1025 C1022 1.348 . S
C1025 C1023 1.356 . S
H1026 C1020 0.930 . S
H1027 C1024 0.930 . S
O1028 Li968 1.956 . S
O1028 Li969 1.970 . S
O1028 Li970 1.961 . S
O1028 C972 1.325 . S
O1029 Li968 1.970 . S
O1029 Li969 1.956 . S
O1029 Li971 1.961 . S
O1029 C978 1.325 . S
O1030 Li968 1.961 . S
O1030 Li970 1.956 . S
O1030 Li971 1.970 . S
O1030 C1000 1.325 . S
O1031 Li969 1.961 . S
O1031 Li970 1.970 . S
O1031 Li971 1.956 . S
O1031 C1006 1.325 . S
H1032 C974 0.929 . S
H1033 C975 0.930 . S
H1034 C976 0.930 . S
H1035 C977 0.930 . S
H1036 C979 0.936 . S
H1037 C981 0.929 . S
H1038 C982 0.930 . S
H1039 C983 0.930 . S
H1040 C986 0.930 . S
H1041 C989 0.929 . S
H1042 C994 0.929 . S
H1043 C995 0.930 1_554 S
H1044 C1002 0.929 . S
H1045 C1003 0.930 . S
H1046 C1004 0.930 . S
H1047 C1005 0.930 . S
H1048 C1007 0.929 . S
H1049 C1008 0.930 . S
H1050 C1009 0.930 . S
H1051 C1010 0.930 . S
H1052 C1014 0.929 . S
H1053 C1016 0.930 . S
H1054 C1022 0.929 . S
H1055 C1023 0.930 . S
C1056 C1057 1.363 . S
C1056 C1062 1.379 . S
C1056 N1064 1.356 . S
C1057 C1056 1.363 . S
C1057 C1063 1.363 . S
C1058 C1059 1.363 . S
C1058 C1063 1.379 . S
C1058 N1065 1.356 . S
C1059 C1058 1.363 . S
C1059 C1062 1.363 . S
N1060 C1062 1.356 . S
N1060 H1072 0.984 . S
N1060 H1073 0.985 . S
N1061 C1063 1.356 . S
N1061 H1066 0.984 . S
N1061 H1067 0.985 . S
C1062 C1056 1.379 . S
C1062 C1059 1.363 . S
C1062 N1060 1.356 . S
C1063 C1057 1.363 . S
C1063 C1058 1.379 . S
C1063 N1061 1.356 . S
N1064 C1056 1.356 . S
N1064 H1070 0.984 . S
N1064 H1071 0.984 . S
N1065 C1058 1.356 . S
N1065 H1068 0.984 . S
N1065 H1069 0.985 . S
H1066 N1061 0.984 . S
H1067 N1061 0.985 . S
H1068 N1065 0.984 . S
H1069 N1065 0.985 . S
H1070 N1064 0.984 . S
H1071 N1064 0.984 . S
H1072 N1060 0.984 . S
H1073 N1060 0.985 . S
C1074 C1075 1.363 . S
C1074 C1080 1.379 . S
C1074 N1082 1.356 . S
C1075 C1074 1.363 . S
C1075 C1081 1.363 . S
C1076 C1077 1.363 . S
C1076 C1081 1.379 . S
C1076 N1083 1.356 . S
C1077 C1076 1.363 . S
C1077 C1080 1.363 . S
N1078 C1080 1.356 . S
N1078 H1090 0.984 . S
N1078 H1091 0.985 . S
N1079 C1081 1.356 . S
N1079 H1084 0.984 . S
N1079 H1085 0.985 . S
C1080 C1074 1.379 . S
C1080 C1077 1.363 . S
C1080 N1078 1.356 . S
C1081 C1075 1.363 . S
C1081 C1076 1.379 . S
C1081 N1079 1.356 . S
N1082 C1074 1.356 . S
N1082 H1088 0.984 . S
N1082 H1089 0.984 . S
N1083 C1076 1.356 . S
N1083 H1086 0.984 . S
N1083 H1087 0.985 . S
H1084 N1079 0.984 . S
H1085 N1079 0.985 . S
H1086 N1083 0.984 . S
H1087 N1083 0.985 . S
H1088 N1082 0.984 . S
H1089 N1082 0.984 . S
H1090 N1078 0.984 . S
H1091 N1078 0.985 . S
C1092 C1093 1.363 . S
C1092 C1098 1.379 . S
C1092 N1100 1.356 . S
C1093 C1092 1.363 . S
C1093 C1099 1.363 . S
C1094 C1095 1.363 . S
C1094 C1099 1.379 . S
C1094 N1101 1.356 . S
C1095 C1094 1.363 . S
C1095 C1098 1.363 . S
N1096 C1098 1.356 . S
N1096 H1108 0.984 . S
N1096 H1109 0.985 . S
N1097 C1099 1.356 . S
N1097 H1102 0.984 . S
N1097 H1103 0.985 . S
C1098 C1092 1.379 . S
C1098 C1095 1.363 . S
C1098 N1096 1.356 . S
C1099 C1093 1.363 . S
C1099 C1094 1.379 . S
C1099 N1097 1.356 . S
N1100 C1092 1.356 . S
N1100 H1106 0.984 . S
N1100 H1107 0.984 . S
N1101 C1094 1.356 . S
N1101 H1104 0.984 . S
N1101 H1105 0.985 . S
H1102 N1097 0.984 . S
H1103 N1097 0.985 . S
H1104 N1101 0.984 . S
H1105 N1101 0.985 . S
H1106 N1100 0.984 . S
H1107 N1100 0.984 . S
H1108 N1096 0.984 . S
H1109 N1096 0.985 . S
C1110 C1111 1.363 . S
C1110 C1116 1.379 . S
C1110 N1118 1.356 . S
C1111 C1110 1.363 . S
C1111 C1117 1.363 . S
C1112 C1113 1.363 . S
C1112 C1117 1.379 . S
C1112 N1119 1.356 . S
C1113 C1112 1.363 . S
C1113 C1116 1.363 . S
N1114 C1116 1.356 . S
N1114 H1126 0.984 . S
N1114 H1127 0.985 . S
N1115 C1117 1.356 . S
N1115 H1120 0.984 . S
N1115 H1121 0.985 . S
C1116 C1110 1.379 . S
C1116 C1113 1.363 . S
C1116 N1114 1.356 . S
C1117 C1111 1.363 . S
C1117 C1112 1.379 . S
C1117 N1115 1.356 . S
N1118 C1110 1.356 . S
N1118 H1124 0.984 . S
N1118 H1125 0.984 . S
N1119 C1112 1.356 . S
N1119 H1122 0.984 . S
N1119 H1123 0.985 . S
H1120 N1115 0.984 . S
H1121 N1115 0.985 . S
H1122 N1119 0.984 . S
H1123 N1119 0.985 . S
H1124 N1118 0.984 . S
H1125 N1118 0.984 . S
H1126 N1114 0.984 . S
H1127 N1114 0.985 . S
C1128 C1129 1.363 . S
C1128 C1134 1.379 . S
C1128 N1136 1.356 . S
C1129 C1128 1.363 . S
C1129 C1135 1.363 . S
C1130 C1131 1.363 . S
C1130 C1135 1.379 . S
C1130 N1137 1.356 . S
C1131 C1130 1.363 . S
C1131 C1134 1.363 . S
N1132 C1134 1.356 . S
N1132 H1144 0.984 . S
N1132 H1145 0.985 . S
N1133 C1135 1.356 . S
N1133 H1138 0.984 . S
N1133 H1139 0.985 . S
C1134 C1128 1.379 . S
C1134 C1131 1.363 . S
C1134 N1132 1.356 . S
C1135 C1129 1.363 . S
C1135 C1130 1.379 . S
C1135 N1133 1.356 . S
N1136 C1128 1.356 . S
N1136 H1142 0.984 . S
N1136 H1143 0.984 . S
N1137 C1130 1.356 . S
N1137 H1140 0.984 . S
N1137 H1141 0.985 . S
H1138 N1133 0.984 . S
H1139 N1133 0.985 . S
H1140 N1137 0.984 . S
H1141 N1137 0.985 . S
H1142 N1136 0.984 . S
H1143 N1136 0.984 . S
H1144 N1132 0.984 . S
H1145 N1132 0.985 . S
C1146 C1147 1.363 . S
C1146 C1152 1.379 . S
C1146 N1154 1.356 . S
C1147 C1146 1.363 . S
C1147 C1153 1.363 . S
C1148 C1149 1.363 . S
C1148 C1153 1.379 . S
C1148 N1155 1.356 . S
C1149 C1148 1.363 . S
C1149 C1152 1.363 . S
N1150 C1152 1.356 . S
N1150 H1162 0.984 . S
N1150 H1163 0.985 . S
N1151 C1153 1.356 . S
N1151 H1156 0.984 . S
N1151 H1157 0.985 . S
C1152 C1146 1.379 . S
C1152 C1149 1.363 . S
C1152 N1150 1.356 . S
C1153 C1147 1.363 . S
C1153 C1148 1.379 . S
C1153 N1151 1.356 . S
N1154 C1146 1.356 . S
N1154 H1160 0.984 . S
N1154 H1161 0.984 . S
N1155 C1148 1.356 . S
N1155 H1158 0.984 . S
N1155 H1159 0.985 . S
H1156 N1151 0.984 . S
H1157 N1151 0.985 . S
H1158 N1155 0.984 . S
H1159 N1155 0.985 . S
H1160 N1154 0.984 . S
H1161 N1154 0.984 . S
H1162 N1150 0.984 . S
H1163 N1150 0.985 . S
C1164 C1165 1.363 1_556 S
C1164 C1170 1.383 . S
C1164 N1172 1.356 . S
C1165 C1164 1.363 1_554 S
C1165 C1171 1.358 1_545 S
C1166 C1167 1.363 1_554 S
C1166 C1171 1.383 . S
C1166 N1173 1.356 . S
C1167 C1166 1.363 1_556 S
C1167 C1170 1.358 1_565 S
N1168 C1170 1.356 1_565 S
N1168 H1180 0.984 1_565 S
N1168 H1181 0.985 . S
N1169 C1171 1.356 1_545 S
N1169 H1174 0.984 . S
N1169 H1175 0.985 1_545 S
C1170 C1164 1.383 . S
C1170 C1167 1.358 1_545 S
C1170 N1168 1.356 1_545 S
C1171 C1165 1.358 1_565 S
C1171 C1166 1.383 . S
C1171 N1169 1.356 1_565 S
N1172 C1164 1.356 . S
N1172 H1178 0.984 . S
N1172 H1179 0.984 . S
N1173 C1166 1.356 . S
N1173 H1176 0.984 . S
N1173 H1177 0.985 . S
H1174 N1169 0.984 . S
H1175 N1169 0.985 1_565 S
H1176 N1173 0.984 . S
H1177 N1173 0.985 . S
H1178 N1172 0.984 . S
H1179 N1172 0.984 . S
H1180 N1168 0.984 1_545 S
H1181 N1168 0.985 . S
C1182 C1183 1.363 . S
C1182 C1188 1.379 . S
C1182 N1190 1.356 . S
C1183 C1182 1.363 . S
C1183 C1189 1.363 . S
C1184 C1185 1.363 . S
C1184 C1189 1.379 . S
C1184 N1191 1.356 . S
C1185 C1184 1.363 . S
C1185 C1188 1.363 . S
N1186 C1188 1.356 . S
N1186 H1198 0.984 . S
N1186 H1199 0.985 . S
N1187 C1189 1.356 . S
N1187 H1192 0.984 . S
N1187 H1193 0.985 . S
C1188 C1182 1.379 . S
C1188 C1185 1.363 . S
C1188 N1186 1.356 . S
C1189 C1183 1.363 . S
C1189 C1184 1.379 . S
C1189 N1187 1.356 . S
N1190 C1182 1.356 . S
N1190 H1196 0.984 . S
N1190 H1197 0.984 . S
N1191 C1184 1.356 . S
N1191 H1194 0.984 . S
N1191 H1195 0.985 . S
H1192 N1187 0.984 . S
H1193 N1187 0.985 . S
H1194 N1191 0.984 . S
H1195 N1191 0.985 . S
H1196 N1190 0.984 . S
H1197 N1190 0.984 . S
H1198 N1186 0.984 . S
H1199 N1186 0.985 . S
C1200 C1201 1.363 1_454 S
C1200 C1206 1.379 . S
C1200 N1208 1.356 . S
C1201 C1200 1.363 1_656 S
C1201 C1207 1.363 . S
C1202 C1203 1.386 1_556 S
C1202 C1207 1.379 . S
C1202 N1209 1.356 . S
C1203 C1202 1.386 1_554 S
C1203 C1206 1.353 1_655 S
N1204 C1206 1.356 . S
N1204 H1216 0.984 . S
N1204 H1217 0.985 . S
N1205 C1207 1.356 . S
N1205 H1210 0.984 . S
N1205 H1211 0.985 . S
C1206 C1200 1.379 . S
C1206 C1203 1.353 1_455 S
C1206 N1204 1.356 . S
C1207 C1201 1.363 . S
C1207 C1202 1.379 . S
C1207 N1205 1.356 . S
N1208 C1200 1.356 . S
N1208 H1214 0.984 . S
N1208 H1215 0.984 . S
N1209 C1202 1.356 . S
N1209 H1212 0.984 . S
N1209 H1213 0.985 . S
H1210 N1205 0.984 . S
H1211 N1205 0.985 . S
H1212 N1209 0.984 . S
H1213 N1209 0.985 . S
H1214 N1208 0.984 . S
H1215 N1208 0.984 . S
H1216 N1204 0.984 . S
H1217 N1204 0.985 . S
C1218 C1219 1.363 . S
C1218 C1224 1.379 1_545 S
C1218 N1226 1.356 . S
C1219 C1218 1.363 . S
C1219 C1225 1.363 . S
C1220 C1221 1.363 . S
C1220 C1225 1.379 1_565 S
C1220 N1227 1.356 . S
C1221 C1220 1.363 . S
C1221 C1224 1.363 . S
N1222 C1224 1.356 . S
N1222 H1234 0.984 . S
N1222 H1235 0.985 . S
N1223 C1225 1.356 . S
N1223 H1228 0.984 . S
N1223 H1229 0.985 . S
C1224 C1218 1.379 1_565 S
C1224 C1221 1.363 . S
C1224 N1222 1.356 . S
C1225 C1219 1.363 . S
C1225 C1220 1.379 1_545 S
C1225 N1223 1.356 . S
N1226 C1218 1.356 . S
N1226 H1232 0.984 . S
N1226 H1233 0.984 . S
N1227 C1220 1.356 . S
N1227 H1230 0.984 . S
N1227 H1231 0.985 . S
H1228 N1223 0.984 . S
H1229 N1223 0.985 . S
H1230 N1227 0.984 . S
H1231 N1227 0.985 . S
H1232 N1226 0.984 . S
H1233 N1226 0.984 . S
H1234 N1222 0.984 . S
H1235 N1222 0.985 . S
C1236 C1237 1.363 1_554 S
C1236 C1242 1.379 . S
C1236 N1244 1.356 . S
C1237 C1236 1.363 1_556 S
C1237 C1243 1.363 . S
C1238 C1239 1.363 1_556 S
C1238 C1243 1.379 . S
C1238 N1245 1.356 . S
C1239 C1238 1.363 1_554 S
C1239 C1242 1.363 . S
N1240 C1242 1.356 . S
N1240 H1252 0.984 . S
N1240 H1253 0.985 . S
N1241 C1243 1.356 . S
N1241 H1246 0.984 . S
N1241 H1247 0.985 . S
C1242 C1236 1.379 . S
C1242 C1239 1.363 . S
C1242 N1240 1.356 . S
C1243 C1237 1.363 . S
C1243 C1238 1.379 . S
C1243 N1241 1.356 . S
N1244 C1236 1.356 . S
N1244 H1250 0.984 . S
N1244 H1251 0.984 . S
N1245 C1238 1.356 . S
N1245 H1248 0.984 . S
N1245 H1249 0.985 . S
H1246 N1241 0.984 . S
H1247 N1241 0.985 . S
H1248 N1245 0.984 . S
H1249 N1245 0.985 . S
H1250 N1244 0.984 . S
H1251 N1244 0.984 . S
H1252 N1240 0.984 . S
H1253 N1240 0.985 . S
C1254 C1255 1.363 . S
C1254 C1260 1.379 . S
C1254 N1262 1.356 . S
C1255 C1254 1.363 . S
C1255 C1261 1.363 1_455 S
C1256 C1257 1.352 1_655 S
C1256 C1261 1.379 . S
C1256 N1263 1.356 . S
C1257 C1256 1.352 1_455 S
C1257 C1260 1.388 . S
N1258 C1260 1.356 . S
N1258 H1270 0.984 . S
N1258 H1271 0.985 . S
N1259 C1261 1.356 . S
N1259 H1264 0.984 . S
N1259 H1265 0.985 . S
C1260 C1254 1.379 . S
C1260 C1257 1.388 . S
C1260 N1258 1.356 . S
C1261 C1255 1.363 1_655 S
C1261 C1256 1.379 . S
C1261 N1259 1.356 . S
N1262 C1254 1.356 . S
N1262 H1268 0.984 . S
N1262 H1269 0.984 . S
N1263 C1256 1.356 . S
N1263 H1266 0.984 . S
N1263 H1267 0.985 . S
H1264 N1259 0.984 . S
H1265 N1259 0.985 . S
H1266 N1263 0.984 . S
H1267 N1263 0.985 . S
H1268 N1262 0.984 . S
H1269 N1262 0.984 . S
H1270 N1258 0.984 . S
H1271 N1258 0.985 . S
C1272 C1273 1.363 . S
C1272 C1278 1.379 . S
C1272 N1280 1.356 . S
C1273 C1272 1.363 . S
C1273 C1279 1.363 . S
C1274 C1275 1.363 . S
C1274 C1279 1.379 . S
C1274 N1281 1.356 . S
C1275 C1274 1.363 . S
C1275 C1278 1.363 . S
N1276 C1278 1.356 . S
N1276 H1288 0.984 . S
N1276 H1289 0.985 . S
N1277 C1279 1.356 . S
N1277 H1282 0.984 . S
N1277 H1283 0.985 . S
C1278 C1272 1.379 . S
C1278 C1275 1.363 . S
C1278 N1276 1.356 . S
C1279 C1273 1.363 . S
C1279 C1274 1.379 . S
C1279 N1277 1.356 . S
N1280 C1272 1.356 . S
N1280 H1286 0.984 . S
N1280 H1287 0.984 . S
N1281 C1274 1.356 . S
N1281 H1284 0.984 . S
N1281 H1285 0.985 . S
H1282 N1277 0.984 . S
H1283 N1277 0.985 . S
H1284 N1281 0.984 . S
H1285 N1281 0.985 . S
H1286 N1280 0.984 . S
H1287 N1280 0.984 . S
H1288 N1276 0.984 . S
H1289 N1276 0.985 . S
C1290 C1291 1.363 . S
C1290 C1296 1.379 . S
C1290 N1298 1.356 . S
C1291 C1290 1.363 . S
C1291 C1297 1.363 . S
C1292 C1293 1.363 . S
C1292 C1297 1.379 . S
C1292 N1299 1.356 . S
C1293 C1292 1.363 . S
C1293 C1296 1.363 . S
N1294 C1296 1.356 . S
N1294 H1306 0.984 . S
N1294 H1307 0.985 . S
N1295 C1297 1.356 . S
N1295 H1300 0.984 . S
N1295 H1301 0.985 . S
C1296 C1290 1.379 . S
C1296 C1293 1.363 . S
C1296 N1294 1.356 . S
C1297 C1291 1.363 . S
C1297 C1292 1.379 . S
C1297 N1295 1.356 . S
N1298 C1290 1.356 . S
N1298 H1304 0.984 . S
N1298 H1305 0.984 . S
N1299 C1292 1.356 . S
N1299 H1302 0.984 . S
N1299 H1303 0.985 . S
H1300 N1295 0.984 . S
H1301 N1295 0.985 . S
H1302 N1299 0.984 . S
H1303 N1299 0.985 . S
H1304 N1298 0.984 . S
H1305 N1298 0.984 . S
H1306 N1294 0.984 . S
H1307 N1294 0.985 . S
C1308 C1309 1.363 . S
C1308 C1314 1.379 . S
C1308 N1316 1.356 . S
C1309 C1308 1.363 . S
C1309 C1315 1.363 . S
C1310 C1311 1.363 . S
C1310 C1315 1.379 . S
C1310 N1317 1.356 . S
C1311 C1310 1.363 . S
C1311 C1314 1.363 . S
N1312 C1314 1.356 . S
N1312 H1324 0.984 . S
N1312 H1325 0.985 . S
N1313 C1315 1.356 . S
N1313 H1318 0.984 . S
N1313 H1319 0.985 . S
C1314 C1308 1.379 . S
C1314 C1311 1.363 . S
C1314 N1312 1.356 . S
C1315 C1309 1.363 . S
C1315 C1310 1.379 . S
C1315 N1313 1.356 . S
N1316 C1308 1.356 . S
N1316 H1322 0.956 1_554 S
N1316 H1323 0.984 . S
N1317 C1310 1.356 . S
N1317 H1320 0.984 . S
N1317 H1321 0.985 . S
H1318 N1313 0.984 . S
H1319 N1313 0.985 . S
H1320 N1317 0.984 . S
H1321 N1317 0.985 . S
H1322 N1316 0.956 1_556 S
H1323 N1316 0.984 . S
H1324 N1312 0.984 . S
H1325 N1312 0.985 . S
C1326 C1327 1.363 . S
C1326 C1332 1.379 . S
C1326 N1334 1.356 . S
C1327 C1326 1.363 . S
C1327 C1333 1.363 . S
C1328 C1329 1.363 . S
C1328 C1333 1.379 . S
C1328 N1335 1.356 . S
C1329 C1328 1.363 . S
C1329 C1332 1.363 . S
N1330 C1332 1.356 . S
N1330 H1342 0.984 . S
N1330 H1343 0.985 . S
N1331 C1333 1.356 . S
N1331 H1336 0.984 . S
N1331 H1337 0.985 . S
C1332 C1326 1.379 . S
C1332 C1329 1.363 . S
C1332 N1330 1.356 . S
C1333 C1327 1.363 . S
C1333 C1328 1.379 . S
C1333 N1331 1.356 . S
N1334 C1326 1.356 . S
N1334 H1340 0.984 . S
N1334 H1341 0.984 . S
N1335 C1328 1.356 . S
N1335 H1338 0.984 . S
N1335 H1339 0.985 . S
H1336 N1331 0.984 . S
H1337 N1331 0.985 . S
H1338 N1335 0.984 . S
H1339 N1335 0.985 . S
H1340 N1334 0.984 . S
H1341 N1334 0.984 . S
H1342 N1330 0.984 . S
H1343 N1330 0.985 . S
C1344 C1345 1.363 . S
C1344 C1350 1.379 . S
C1344 N1352 1.356 . S
C1345 C1344 1.363 . S
C1345 C1351 1.363 . S
C1346 C1347 1.363 . S
C1346 C1351 1.379 . S
C1346 N1353 1.356 . S
C1347 C1346 1.363 . S
C1347 C1350 1.363 . S
N1348 C1350 1.356 . S
N1348 H1360 0.984 . S
N1348 H1361 0.985 . S
N1349 C1351 1.356 . S
N1349 H1354 0.984 . S
N1349 H1355 0.985 . S
C1350 C1344 1.379 . S
C1350 C1347 1.363 . S
C1350 N1348 1.356 . S
C1351 C1345 1.363 . S
C1351 C1346 1.379 . S
C1351 N1349 1.356 . S
N1352 C1344 1.356 . S
N1352 H1358 0.984 . S
N1352 H1359 0.984 . S
N1353 C1346 1.356 . S
N1353 H1356 0.984 . S
N1353 H1357 0.985 . S
H1354 N1349 0.984 . S
H1355 N1349 0.985 . S
H1356 N1353 0.984 . S
H1357 N1353 0.985 . S
H1358 N1352 0.984 . S
H1359 N1352 0.984 . S
H1360 N1348 0.984 . S
H1361 N1348 0.985 . S
C1362 C1363 1.363 . S
C1362 C1368 1.379 . S
C1362 N1370 1.356 . S
C1363 C1362 1.363 . S
C1363 C1369 1.363 . S
C1364 C1365 1.363 . S
C1364 C1369 1.379 . S
C1364 N1371 1.356 . S
C1365 C1364 1.363 . S
C1365 C1368 1.363 . S
N1366 C1368 1.356 . S
N1366 H1378 0.984 . S
N1366 H1379 0.985 . S
N1367 C1369 1.356 . S
N1367 H1372 0.984 . S
N1367 H1373 0.985 . S
C1368 C1362 1.379 . S
C1368 C1365 1.363 . S
C1368 N1366 1.356 . S
C1369 C1363 1.363 . S
C1369 C1364 1.379 . S
C1369 N1367 1.356 . S
N1370 C1362 1.356 . S
N1370 H1376 0.984 . S
N1370 H1377 0.984 . S
N1371 C1364 1.356 . S
N1371 H1374 0.984 . S
N1371 H1375 0.985 . S
H1372 N1367 0.984 . S
H1373 N1367 0.985 . S
H1374 N1371 0.984 . S
H1375 N1371 0.985 . S
H1376 N1370 0.984 . S
H1377 N1370 0.984 . S
H1378 N1366 0.984 . S
H1379 N1366 0.985 . S
C1380 C1381 1.363 . S
C1380 C1386 1.379 . S
C1380 N1388 1.356 . S
C1381 C1380 1.363 . S
C1381 C1387 1.363 . S
C1382 C1383 1.363 . S
C1382 C1387 1.379 . S
C1382 N1389 1.356 . S
C1383 C1382 1.363 . S
C1383 C1386 1.363 . S
N1384 C1386 1.356 . S
N1384 H1396 0.984 . S
N1384 H1397 0.985 . S
N1385 C1387 1.356 . S
N1385 H1390 0.984 . S
N1385 H1391 0.985 . S
C1386 C1380 1.379 . S
C1386 C1383 1.363 . S
C1386 N1384 1.356 . S
C1387 C1381 1.363 . S
C1387 C1382 1.379 . S
C1387 N1385 1.356 . S
N1388 C1380 1.356 . S
N1388 H1394 0.984 . S
N1388 H1395 0.984 . S
N1389 C1382 1.356 . S
N1389 H1392 0.984 . S
N1389 H1393 0.985 . S
H1390 N1385 0.984 . S
H1391 N1385 0.985 . S
H1392 N1389 0.984 . S
H1393 N1389 0.985 . S
H1394 N1388 0.984 . S
H1395 N1388 0.984 . S
H1396 N1384 0.984 . S
H1397 N1384 0.985 . S
C1398 C1399 1.363 . S
C1398 C1404 1.379 . S
C1398 N1406 1.356 . S
C1399 C1398 1.363 . S
C1399 C1405 1.363 . S
C1400 C1401 1.363 . S
C1400 C1405 1.379 . S
C1400 N1407 1.356 . S
C1401 C1400 1.363 . S
C1401 C1404 1.363 . S
N1402 C1404 1.356 . S
N1402 H1414 0.984 . S
N1402 H1415 0.985 . S
N1403 C1405 1.356 . S
N1403 H1408 0.984 . S
N1403 H1409 0.985 . S
C1404 C1398 1.379 . S
C1404 C1401 1.363 . S
C1404 N1402 1.356 . S
C1405 C1399 1.363 . S
C1405 C1400 1.379 . S
C1405 N1403 1.356 . S
N1406 C1398 1.356 . S
N1406 H1412 0.984 . S
N1406 H1413 0.984 . S
N1407 C1400 1.356 . S
N1407 H1410 0.984 . S
N1407 H1411 0.985 . S
H1408 N1403 0.984 . S
H1409 N1403 0.985 . S
H1410 N1407 0.984 . S
H1411 N1407 0.985 . S
H1412 N1406 0.984 . S
H1413 N1406 0.984 . S
H1414 N1402 0.984 . S
H1415 N1402 0.985 . S
C1416 C1417 1.363 . S
C1416 C1422 1.379 . S
C1416 N1424 1.356 . S
C1417 C1416 1.363 . S
C1417 C1423 1.363 . S
C1418 C1419 1.363 . S
C1418 C1423 1.379 . S
C1418 N1425 1.356 . S
C1419 C1418 1.363 . S
C1419 C1422 1.363 . S
N1420 C1422 1.356 . S
N1420 H1432 0.984 . S
N1420 H1433 0.985 . S
N1421 C1423 1.356 . S
N1421 H1426 0.984 . S
N1421 H1427 0.985 . S
C1422 C1416 1.379 . S
C1422 C1419 1.363 . S
C1422 N1420 1.356 . S
C1423 C1417 1.363 . S
C1423 C1418 1.379 . S
C1423 N1421 1.356 . S
N1424 C1416 1.356 . S
N1424 H1430 0.984 . S
N1424 H1431 0.984 . S
N1425 C1418 1.356 . S
N1425 H1428 0.984 . S
N1425 H1429 0.985 . S
H1426 N1421 0.984 . S
H1427 N1421 0.985 . S
H1428 N1425 0.984 . S
H1429 N1425 0.985 . S
H1430 N1424 0.984 . S
H1431 N1424 0.984 . S
H1432 N1420 0.984 . S
H1433 N1420 0.985 . S
C1434 C1435 1.363 . S
C1434 C1440 1.379 . S
C1434 N1442 1.356 . S
C1435 C1434 1.363 . S
C1435 C1441 1.363 . S
C1436 C1437 1.363 . S
C1436 C1441 1.379 . S
C1436 N1443 1.356 . S
C1437 C1436 1.363 . S
C1437 C1440 1.363 . S
N1438 C1440 1.356 . S
N1438 H1450 0.984 . S
N1438 H1451 0.985 . S
N1439 C1441 1.356 . S
N1439 H1444 0.984 . S
N1439 H1445 0.985 . S
C1440 C1434 1.379 . S
C1440 C1437 1.363 . S
C1440 N1438 1.356 . S
C1441 C1435 1.363 . S
C1441 C1436 1.379 . S
C1441 N1439 1.356 . S
N1442 C1434 1.356 . S
N1442 H1448 0.984 . S
N1442 H1449 0.984 . S
N1443 C1436 1.356 . S
N1443 H1446 0.984 . S
N1443 H1447 0.985 . S
H1444 N1439 0.984 . S
H1445 N1439 0.985 . S
H1446 N1443 0.984 . S
H1447 N1443 0.985 . S
H1448 N1442 0.984 . S
H1449 N1442 0.984 . S
H1450 N1438 0.984 . S
H1451 N1438 0.985 . S
C1452 C1453 1.363 . S
C1452 C1458 1.379 . S
C1452 N1460 1.356 . S
C1453 C1452 1.363 . S
C1453 C1459 1.363 . S
C1454 C1455 1.363 . S
C1454 C1459 1.379 . S
C1454 N1461 1.356 . S
C1455 C1454 1.363 . S
C1455 C1458 1.363 . S
N1456 C1458 1.356 . S
N1456 H1468 0.984 . S
N1456 H1469 0.985 . S
N1457 C1459 1.356 . S
N1457 H1462 0.984 . S
N1457 H1463 0.985 . S
C1458 C1452 1.379 . S
C1458 C1455 1.363 . S
C1458 N1456 1.356 . S
C1459 C1453 1.363 . S
C1459 C1454 1.379 . S
C1459 N1457 1.356 . S
N1460 C1452 1.356 . S
N1460 H1466 0.984 . S
N1460 H1467 0.984 . S
N1461 C1454 1.356 . S
N1461 H1464 0.984 . S
N1461 H1465 0.985 . S
H1462 N1457 0.984 . S
H1463 N1457 0.985 . S
H1464 N1461 0.984 . S
H1465 N1461 0.985 . S
H1466 N1460 0.984 . S
H1467 N1460 0.984 . S
H1468 N1456 0.984 . S
H1469 N1456 0.985 . S
C1470 C1471 1.363 . S
C1470 C1476 1.379 . S
C1470 N1478 1.356 . S
C1471 C1470 1.363 . S
C1471 C1477 1.363 . S
C1472 C1473 1.363 . S
C1472 C1477 1.379 . S
C1472 N1479 1.356 . S
C1473 C1472 1.363 . S
C1473 C1476 1.363 . S
N1474 C1476 1.356 . S
N1474 H1486 0.984 . S
N1474 H1487 0.985 . S
N1475 C1477 1.356 . S
N1475 H1480 0.984 . S
N1475 H1481 0.985 . S
C1476 C1470 1.379 . S
C1476 C1473 1.363 . S
C1476 N1474 1.356 . S
C1477 C1471 1.363 . S
C1477 C1472 1.379 . S
C1477 N1475 1.356 . S
N1478 C1470 1.356 . S
N1478 H1484 0.984 . S
N1478 H1485 0.984 . S
N1479 C1472 1.356 . S
N1479 H1482 0.984 . S
N1479 H1483 0.985 . S
H1480 N1475 0.984 . S
H1481 N1475 0.985 . S
H1482 N1479 0.984 . S
H1483 N1479 0.985 . S
H1484 N1478 0.984 . S
H1485 N1478 0.984 . S
H1486 N1474 0.984 . S
H1487 N1474 0.985 . S
C1057 C929 1.636 . S
C1059 C57 1.638 . S
C1075 C117 1.573 . S
C1077 C1017 1.576 . S
C1093 C205 1.615 . S
C1095 C577 1.613 . S
C1111 C636 1.637 . S
C1113 C293 1.638 . S
C1129 C761 1.576 . S
C1131 C372 1.573 . S
C1147 C460 1.615 . S
C1149 C849 1.613 . S
C1165 C49 0.851 . S
C1167 C645 0.856 . S
C1183 C137 1.714 . S
C1185 C724 1.690 . S
C1201 C812 1.632 1_655 S
C1203 C225 1.609 . S
C1219 C937 0.856 . S
C1221 C284 0.851 . S
C1237 C997 1.690 . S
C1239 C409 1.714 . S
C1255 C557 1.632 1_455 S
C1257 C497 1.610 . S
C1273 C20 1.458 . S
C1275 C381 1.248 . S
C1291 C145 0.987 . S
C1293 C469 0.991 . S
C1309 C233 1.195 . S
C1311 C29 1.295 . S
C1327 C313 1.458 . S
C1329 C108 1.248 . S
C1345 C401 0.987 . S
C1347 C196 0.991 . S
C1363 C489 1.195 . S
C1365 C321 1.295 . S
C1381 C548 0.989 . S
C1383 C753 0.990 . S
C1399 C673 1.307 . S
C1401 C841 1.209 . S
C1417 C900 1.450 . S
C1419 C733 1.231 . S
C1435 C821 0.988 . S
C1437 C1025 0.990 . S
C1453 C909 1.308 . S
C1455 C585 1.209 . S
C1471 C988 1.232 . S
C1473 C665 1.450 . S
