# Generated by pormake.
# Topology uop, (4)-cn, num edge types: 1
# Building blocks:
#     Node 0, Type 0, BuildingBlock: QUQFOY_clean_sbu_1, # of connection points: 4
#     Node 1, Type 0, BuildingBlock: QUQFOY_clean_sbu_1, # of connection points: 4
#     Node 2, Type 0, BuildingBlock: QUQFOY_clean_sbu_1, # of connection points: 4
#     Node 3, Type 0, BuildingBlock: QUQFOY_clean_sbu_1, # of connection points: 4
#     Node 4, Type 0, BuildingBlock: QUQFOY_clean_sbu_1, # of connection points: 4
#     Node 5, Type 0, BuildingBlock: QUQFOY_clean_sbu_1, # of connection points: 4
#     Node 6, Type 0, BuildingBlock: QUQFOY_clean_sbu_1, # of connection points: 4
#     Node 7, Type 0, BuildingBlock: QUQFOY_clean_sbu_1, # of connection points: 4
#     Node 8, Type 0, BuildingBlock: QUQFOY_clean_sbu_1, # of connection points: 4
#     Node 9, Type 0, BuildingBlock: QUQFOY_clean_sbu_1, # of connection points: 4
#     Node 10, Type 0, BuildingBlock: QUQFOY_clean_sbu_1, # of connection points: 4
#     Node 11, Type 0, BuildingBlock: QUQFOY_clean_sbu_1, # of connection points: 4
#     Edge 12, Type (0, 0), BuildingBlock: XUDNAN_clean_linker_2, # of connection points: 2
#     Edge 13, Type (0, 0), BuildingBlock: XUDNAN_clean_linker_2, # of connection points: 2
#     Edge 14, Type (0, 0), BuildingBlock: XUDNAN_clean_linker_2, # of connection points: 2
#     Edge 15, Type (0, 0), BuildingBlock: XUDNAN_clean_linker_2, # of connection points: 2
#     Edge 16, Type (0, 0), BuildingBlock: XUDNAN_clean_linker_2, # of connection points: 2
#     Edge 17, Type (0, 0), BuildingBlock: XUDNAN_clean_linker_2, # of connection points: 2
#     Edge 18, Type (0, 0), BuildingBlock: XUDNAN_clean_linker_2, # of connection points: 2
#     Edge 19, Type (0, 0), BuildingBlock: XUDNAN_clean_linker_2, # of connection points: 2
#     Edge 20, Type (0, 0), BuildingBlock: XUDNAN_clean_linker_2, # of connection points: 2
#     Edge 21, Type (0, 0), BuildingBlock: XUDNAN_clean_linker_2, # of connection points: 2
#     Edge 22, Type (0, 0), BuildingBlock: XUDNAN_clean_linker_2, # of connection points: 2
#     Edge 23, Type (0, 0), BuildingBlock: XUDNAN_clean_linker_2, # of connection points: 2
#     Edge 24, Type (0, 0), BuildingBlock: XUDNAN_clean_linker_2, # of connection points: 2
#     Edge 25, Type (0, 0), BuildingBlock: XUDNAN_clean_linker_2, # of connection points: 2
#     Edge 26, Type (0, 0), BuildingBlock: XUDNAN_clean_linker_2, # of connection points: 2
#     Edge 27, Type (0, 0), BuildingBlock: XUDNAN_clean_linker_2, # of connection points: 2
#     Edge 28, Type (0, 0), BuildingBlock: XUDNAN_clean_linker_2, # of connection points: 2
#     Edge 29, Type (0, 0), BuildingBlock: XUDNAN_clean_linker_2, # of connection points: 2
#     Edge 30, Type (0, 0), BuildingBlock: XUDNAN_clean_linker_2, # of connection points: 2
#     Edge 31, Type (0, 0), BuildingBlock: XUDNAN_clean_linker_2, # of connection points: 2
#     Edge 32, Type (0, 0), BuildingBlock: XUDNAN_clean_linker_2, # of connection points: 2
#     Edge 33, Type (0, 0), BuildingBlock: XUDNAN_clean_linker_2, # of connection points: 2
#     Edge 34, Type (0, 0), BuildingBlock: XUDNAN_clean_linker_2, # of connection points: 2
#     Edge 35, Type (0, 0), BuildingBlock: XUDNAN_clean_linker_2, # of connection points: 2
# Relax obj value: 0.098
# Max RMSD: 0.122
# Mean RMSD: 0.122
data_MOF--net-uop--node1-QUQFOY_clean_sbu_1--edge1-XUDNAN_clean_linker_2
_symmetry_space_group_name_H-M    P1
_symmetry_Int_Tables_number       1
_symmetry_cell_setting            triclinic
loop_
_symmetry_equiv_pos_as_xyz
'x, y, z'
_cell_length_a     32.815177
_cell_length_b     32.741478
_cell_length_c     52.988966
_cell_angle_alpha  90.109935
_cell_angle_beta   89.90492
_cell_angle_gamma 120.12731
loop_
_atom_site_label
_atom_site_type_symbol
_atom_site_fract_x
_atom_site_fract_y
_atom_site_fract_z
_atom_type_partial_charge
O0 O 0.21697 0.44773 0.22013 0.0
Cd1 Cd 0.21986 0.38666 0.21873 0.0
Cd2 Cd 0.26593 0.4238 0.26641 0.0
O3 O 0.23993 0.46985 0.25956 0.0
O4 O 0.16878 0.34319 0.19566 0.0
O5 O 0.1705 0.32858 0.23635 0.0
C6 C 0.14902 0.31609 0.21485 0.0
C7 C 0.2897 0.41235 0.30673 0.0
C8 C 0.22476 0.47578 0.23847 0.0
C9 C 0.3182 0.41404 0.21951 0.0
O10 O 0.31618 0.42745 0.24174 0.0
O11 O 0.28179 0.39376 0.20578 0.0
O12 O 0.30938 0.45285 0.29579 0.0
O13 O 0.25242 0.37875 0.29622 0.0
O14 O 0.79861 0.2465 0.548 0.0
Cd15 Cd 0.86778 0.26375 0.55139 0.0
Cd16 Cd 0.85507 0.29929 0.59452 0.0
O17 O 0.78311 0.25808 0.58705 0.0
O18 O 0.87378 0.22367 0.5251 0.0
O19 O 0.87828 0.21317 0.56603 0.0
C20 C 0.87643 0.19874 0.54311 0.0
C21 C 0.89346 0.31513 0.63395 0.0
C22 C 0.7693 0.24364 0.56461 0.0
C23 C 0.91285 0.36565 0.55216 0.0
O24 O 0.8875 0.35768 0.5717 0.0
O25 O 0.91648 0.33245 0.542 0.0
O26 O 0.86468 0.32977 0.62843 0.0
O27 O 0.89709 0.28718 0.61803 0.0
O28 O 0.55536 0.77797 0.88554 0.0
Cd29 Cd 0.61679 0.84275 0.88786 0.0
Cd30 Cd 0.57822 0.84029 0.93144 0.0
O31 O 0.54078 0.76743 0.92639 0.0
O32 O 0.65909 0.84178 0.86122 0.0
O33 O 0.67419 0.84409 0.90209 0.0
C34 C 0.68572 0.84158 0.87904 0.0
C35 C 0.61912 0.88451 0.96704 0.0
C36 C 0.5319 0.7515 0.90387 0.0
C37 C 0.57577 0.90213 0.89108 0.0
O38 O 0.55418 0.87544 0.9096 0.0
O39 O 0.61054 0.90127 0.88116 0.0
O40 O 0.57365 0.86123 0.96642 0.0
O41 O 0.6415 0.8792 0.94837 0.0
O42 O 0.77058 0.55911 0.20636 0.0
Cd43 Cd 0.75708 0.61383 0.20784 0.0
Cd44 Cd 0.73238 0.58132 0.25451 0.0
O45 O 0.77011 0.54656 0.2473 0.0
O46 O 0.80158 0.66241 0.18373 0.0
O47 O 0.80409 0.67298 0.22519 0.0
C48 C 0.82254 0.68831 0.2032 0.0
C49 C 0.73397 0.62327 0.29099 0.0
C50 C 0.77735 0.53824 0.22468 0.0
C51 C 0.65681 0.56462 0.21595 0.0
O52 O 0.66854 0.55293 0.23636 0.0
O53 O 0.68815 0.59523 0.2015 0.0
O54 O 0.71406 0.5778 0.29108 0.0
O55 O 0.75661 0.64519 0.27087 0.0
O56 O 0.23587 0.78021 0.55839 0.0
Cd57 Cd 0.17615 0.78531 0.55591 0.0
Cd58 Cd 0.14764 0.71922 0.59729 0.0
O59 O 0.21397 0.72739 0.58914 0.0
O60 O 0.19432 0.84423 0.53687 0.0
O61 O 0.16911 0.83312 0.57641 0.0
C62 C 0.1845 0.86024 0.55682 0.0
C63 C 0.10835 0.69028 0.63648 0.0
C64 C 0.24374 0.75348 0.5724 0.0
C65 C 0.09284 0.69263 0.54694 0.0
O66 O 0.0985 0.68481 0.56973 0.0
O67 O 0.12118 0.7314 0.53636 0.0
O68 O 0.12058 0.66629 0.62235 0.0
O69 O 0.1226 0.73325 0.62979 0.0
O70 O 0.43105 0.20974 0.88956 0.0
Cd71 Cd 0.37924 0.14042 0.89529 0.0
Cd72 Cd 0.43127 0.15879 0.93586 0.0
O73 O 0.46105 0.23025 0.92779 0.0
O74 O 0.33358 0.13023 0.8679 0.0
O75 O 0.31694 0.12957 0.90838 0.0
C76 C 0.30476 0.12804 0.88508 0.0
C77 C 0.38721 0.11368 0.9704 0.0
C78 C 0.45878 0.24129 0.90498 0.0
C79 C 0.43816 0.09769 0.89676 0.0
O80 O 0.45968 0.12762 0.91409 0.0
O81 O 0.39859 0.09029 0.88872 0.0
O82 O 0.4326 0.13946 0.97166 0.0
O83 O 0.36662 0.11662 0.95024 0.0
O84 O 0.55506 0.78816 0.51261 0.0
Cd85 Cd 0.6193 0.79181 0.51507 0.0
Cd86 Cd 0.58824 0.73633 0.47225 0.0
O87 O 0.52741 0.74002 0.47971 0.0
O88 O 0.66068 0.84815 0.53591 0.0
O89 O 0.67561 0.84058 0.49592 0.0
C90 C 0.68744 0.86556 0.51637 0.0
C91 C 0.61772 0.73427 0.43191 0.0
C92 C 0.5217 0.76315 0.49746 0.0
C93 C 0.60854 0.69745 0.51981 0.0
O94 O 0.5982 0.69369 0.49654 0.0
O95 O 0.6178 0.73446 0.53204 0.0
O96 O 0.57818 0.70013 0.43998 0.0
O97 O 0.63872 0.77171 0.44581 0.0
O98 O 0.77212 0.53803 0.85958 0.0
Cd99 Cd 0.83955 0.59411 0.85592 0.0
Cd100 Cd 0.8314 0.55321 0.81181 0.0
O101 O 0.75918 0.52175 0.81898 0.0
O102 O 0.84291 0.64572 0.87715 0.0
O103 O 0.84862 0.64921 0.83538 0.0
C104 C 0.84596 0.66784 0.85644 0.0
C105 C 0.86795 0.5735 0.77176 0.0
C106 C 0.74405 0.51546 0.84165 0.0
C107 C 0.89109 0.54524 0.85321 0.0
O108 O 0.86556 0.52791 0.83372 0.0
O109 O 0.89209 0.57986 0.86461 0.0
O110 O 0.83863 0.53045 0.77796 0.0
O111 O 0.87315 0.60611 0.78738 0.0
O112 O 0.21935 0.78866 0.18892 0.0
Cd113 Cd 0.22462 0.8515 0.17732 0.0
Cd114 Cd 0.26406 0.83289 0.13993 0.0
O115 O 0.23068 0.76326 0.15249 0.0
O116 O 0.18229 0.86108 0.20055 0.0
O117 O 0.16868 0.84785 0.15963 0.0
C118 C 0.15527 0.85429 0.18147 0.0
C119 C 0.26185 0.86785 0.10195 0.0
C120 C 0.21989 0.75626 0.17586 0.0
C121 C 0.32654 0.90994 0.17416 0.0
O122 O 0.32278 0.87646 0.16044 0.0
O123 O 0.29004 0.91168 0.18034 0.0
O124 O 0.28571 0.84636 0.10392 0.0
O125 O 0.23527 0.86505 0.1207 0.0
O126 O 0.46706 0.25445 0.5305 0.0
Cd127 Cd 0.41027 0.26473 0.52929 0.0
Cd128 Cd 0.44373 0.29197 0.48293 0.0
O129 O 0.47548 0.25137 0.48935 0.0
O130 O 0.36602 0.22271 0.55561 0.0
O131 O 0.35089 0.21208 0.51457 0.0
C132 C 0.33894 0.19717 0.53748 0.0
C133 C 0.41914 0.30487 0.44327 0.0
C134 C 0.48602 0.24603 0.5118 0.0
C135 C 0.45965 0.3647 0.52344 0.0
O136 O 0.47336 0.35383 0.5034 0.0
O137 O 0.4261 0.33281 0.53625 0.0
O138 O 0.46264 0.319 0.44822 0.0
O139 O 0.38831 0.27897 0.46 0.0
O140 O 0.2215 0.43142 0.85665 0.0
Cd141 Cd 0.15515 0.37469 0.85068 0.0
Cd142 Cd 0.1626 0.43487 0.81182 0.0
O143 O 0.2338 0.47361 0.82207 0.0
O144 O 0.15442 0.32504 0.87251 0.0
O145 O 0.14756 0.31858 0.83099 0.0
C146 C 0.15077 0.3014 0.85235 0.0
C147 C 0.12975 0.42367 0.77108 0.0
C148 C 0.24842 0.46693 0.84312 0.0
C149 C 0.09417 0.4153 0.85515 0.0
O150 O 0.11768 0.44068 0.83662 0.0
O151 O 0.0999 0.38207 0.86315 0.0
O152 O 0.1524 0.4648 0.78146 0.0
O153 O 0.13034 0.38918 0.78256 0.0
O154 O 0.77961 0.23031 0.17646 0.0
Cd155 Cd 0.76082 0.16103 0.16955 0.0
Cd156 Cd 0.73398 0.18347 0.12797 0.0
O157 O 0.77654 0.25406 0.13793 0.0
O158 O 0.79427 0.14721 0.19666 0.0
O159 O 0.81197 0.15031 0.15616 0.0
C160 C 0.82152 0.14644 0.17936 0.0
C161 C 0.73613 0.13919 0.0938 0.0
C162 C 0.78678 0.26329 0.16125 0.0
C163 C 0.65986 0.12129 0.16423 0.0
O164 O 0.67164 0.15261 0.14734 0.0
O165 O 0.69003 0.112 0.17343 0.0
O166 O 0.71791 0.16604 0.09145 0.0
O167 O 0.75655 0.1406 0.11489 0.0
H168 H 0.22213 0.67885 0.15596 0.0
H169 H 0.20176 0.73566 0.22594 0.0
H170 H 0.198 0.66916 0.24937 0.0
H171 H 0.14317 0.55361 0.17238 0.0
H172 H 0.18025 0.53481 0.15723 0.0
H173 H 0.17873 0.58571 0.14559 0.0
H174 H 0.26938 0.63618 0.15051 0.0
H175 H 0.27113 0.58556 0.16231 0.0
H176 H 0.29575 0.63902 0.18077 0.0
H177 H 0.20396 0.60035 0.26609 0.0
H178 H 0.21239 0.53033 0.2739 0.0
H179 H 0.22469 0.51583 0.19324 0.0
C180 C 0.21608 0.6769 0.17615 0.0
C181 C 0.21231 0.71278 0.18899 0.0
C182 C 0.20475 0.70884 0.21551 0.0
C183 C 0.20261 0.67111 0.22908 0.0
C184 C 0.20749 0.63698 0.21598 0.0
C185 C 0.21338 0.63906 0.19005 0.0
C186 C 0.21849 0.59807 0.18068 0.0
C187 C 0.17773 0.56616 0.16292 0.0
C188 C 0.26654 0.61578 0.16781 0.0
C189 C 0.21539 0.57329 0.20539 0.0
C190 C 0.20925 0.59637 0.22556 0.0
C191 C 0.20804 0.58151 0.25039 0.0
C192 C 0.213 0.54183 0.25469 0.0
C193 C 0.21857 0.51718 0.23423 0.0
C194 C 0.21957 0.53328 0.2093 0.0
H195 H 0.70377 0.26196 0.58665 0.0
H196 H 0.72543 0.19176 0.52281 0.0
H197 H 0.65143 0.17863 0.50379 0.0
H198 H 0.57174 0.18713 0.58796 0.0
H199 H 0.56507 0.23692 0.59615 0.0
H200 H 0.61628 0.23484 0.60652 0.0
H201 H 0.67 0.31604 0.58554 0.0
H202 H 0.61909 0.31811 0.57484 0.0
H203 H 0.66292 0.32352 0.55243 0.0
H204 H 0.58197 0.18402 0.48842 0.0
H205 H 0.51767 0.20108 0.48012 0.0
H206 H 0.53905 0.26466 0.5544 0.0
C207 C 0.69206 0.24236 0.56913 0.0
C208 C 0.72042 0.22781 0.55629 0.0
C209 C 0.70438 0.20329 0.53304 0.0
C210 C 0.6623 0.1956 0.52204 0.0
C211 C 0.63618 0.21216 0.53459 0.0
C212 C 0.64994 0.2343 0.55784 0.0
C213 C 0.61708 0.25152 0.56646 0.0
C214 C 0.59099 0.22607 0.59071 0.0
C215 C 0.64389 0.30549 0.57001 0.0
C216 C 0.58372 0.2368 0.54416 0.0
C217 C 0.59526 0.21411 0.52595 0.0
C218 C 0.57187 0.2008 0.50278 0.0
C219 C 0.5356 0.21082 0.49815 0.0
C220 C 0.52288 0.23353 0.51671 0.0
C221 C 0.54718 0.24625 0.54003 0.0
H222 H 0.47916 0.72107 0.86081 0.0
H223 H 0.49465 0.67361 0.93469 0.0
H224 H 0.42795 0.59367 0.92523 0.0
H225 H 0.35385 0.65846 0.86134 0.0
H226 H 0.34795 0.64548 0.82803 0.0
H227 H 0.39929 0.69743 0.83975 0.0
H228 H 0.45281 0.66999 0.81869 0.0
H229 H 0.40157 0.61776 0.80701 0.0
H230 H 0.44419 0.61241 0.82598 0.0
H231 H 0.35939 0.51975 0.90794 0.0
H232 H 0.2884 0.45894 0.88652 0.0
H233 H 0.31378 0.55543 0.82445 0.0
C234 C 0.46895 0.69365 0.87487 0.0
C235 C 0.49251 0.70329 0.89839 0.0
C236 C 0.47728 0.66689 0.91654 0.0
C237 C 0.43961 0.62139 0.91126 0.0
C238 C 0.41718 0.61312 0.88788 0.0
C239 C 0.43089 0.64838 0.8701 0.0
C240 C 0.3986 0.63125 0.84725 0.0
C241 C 0.37343 0.65985 0.84391 0.0
C242 C 0.42594 0.63295 0.82332 0.0
C243 C 0.36433 0.58075 0.85497 0.0
C244 C 0.37625 0.57096 0.87832 0.0
C245 C 0.34973 0.52707 0.88968 0.0
C246 C 0.30933 0.49264 0.87726 0.0
C247 C 0.29512 0.50218 0.85372 0.0
C248 C 0.32369 0.54674 0.84229 0.0
H249 H 0.76732 0.49352 0.17969 0.0
H250 H 0.81512 0.4994 0.25662 0.0
H251 H 0.8328 0.43592 0.24655 0.0
H252 H 0.70746 0.37046 0.17469 0.0
H253 H 0.72136 0.36942 0.14185 0.0
H254 H 0.71832 0.41895 0.15431 0.0
H255 H 0.80324 0.47554 0.13848 0.0
H256 H 0.80663 0.42602 0.12609 0.0
H257 H 0.85044 0.46594 0.14811 0.0
H258 H 0.84013 0.3685 0.22877 0.0
H259 H 0.82998 0.29796 0.20643 0.0
H260 H 0.77474 0.33439 0.14129 0.0
C261 C 0.78245 0.48224 0.19434 0.0
C262 C 0.79046 0.50192 0.21891 0.0
C263 C 0.809 0.4851 0.23767 0.0
C264 C 0.81936 0.44925 0.23205 0.0
C265 C 0.81071 0.43048 0.20765 0.0
C266 C 0.79234 0.44621 0.18916 0.0
C267 C 0.78196 0.41727 0.16517 0.0
C268 C 0.72915 0.39256 0.15864 0.0
C269 C 0.81239 0.44804 0.14316 0.0
C270 C 0.79656 0.38206 0.17312 0.0
C271 C 0.81378 0.39083 0.19756 0.0
C272 C 0.82708 0.36159 0.20958 0.0
C273 C 0.82118 0.32156 0.19668 0.0
C274 C 0.80172 0.31066 0.17202 0.0
C275 C 0.79054 0.34218 0.15988 0.0
H276 H 0.49572 0.82691 0.51312 0.0
H277 H 0.44108 0.67806 0.49846 0.0
H278 H 0.36586 0.65924 0.51896 0.0
H279 H 0.44392 0.81746 0.57238 0.0
H280 H 0.42874 0.86262 0.56725 0.0
H281 H 0.47803 0.86519 0.55078 0.0
H282 H 0.44194 0.86755 0.50774 0.0
H283 H 0.39323 0.8664 0.52411 0.0
H284 H 0.3824 0.82259 0.50037 0.0
H285 H 0.30056 0.65616 0.54581 0.0
H286 H 0.24134 0.66982 0.56716 0.0
H287 H 0.33427 0.82099 0.56003 0.0
C288 C 0.46739 0.79052 0.51366 0.0
C289 C 0.47399 0.7539 0.50408 0.0
C290 C 0.4364 0.70665 0.5053 0.0
C291 C 0.39382 0.69559 0.51722 0.0
C292 C 0.38898 0.73233 0.52728 0.0
C293 C 0.42405 0.77899 0.52477 0.0
C294 C 0.40899 0.81187 0.53624 0.0
C295 C 0.44189 0.841 0.55795 0.0
C296 C 0.40647 0.84399 0.5159 0.0
C297 C 0.36036 0.7764 0.54599 0.0
C298 C 0.35 0.73067 0.54116 0.0
C299 C 0.30802 0.69182 0.54935 0.0
C300 C 0.27486 0.6999 0.56178 0.0
C301 C 0.2834 0.7464 0.56537 0.0
C302 C 0.32702 0.78508 0.55767 0.0
H303 H 0.54387 0.30992 0.92475 0.0
H304 H 0.44943 0.27929 0.86124 0.0
H305 H 0.51007 0.35014 0.83936 0.0
H306 H 0.60243 0.44223 0.92022 0.0
H307 H 0.65899 0.4498 0.9287 0.0
H308 H 0.6058 0.40044 0.94096 0.0
H309 H 0.63158 0.3432 0.92305 0.0
H310 H 0.68443 0.39221 0.91045 0.0
H311 H 0.64472 0.34506 0.88988 0.0
H312 H 0.5848 0.41663 0.82139 0.0
H313 H 0.66613 0.47917 0.81083 0.0
H314 H 0.71108 0.46916 0.88638 0.0
C315 C 0.53537 0.31908 0.90666 0.0
C316 C 0.49176 0.289 0.89479 0.0
C317 C 0.48253 0.3017 0.87078 0.0
C318 C 0.51679 0.34195 0.85814 0.0
C319 C 0.56013 0.36971 0.86981 0.0
C320 C 0.56929 0.3594 0.89374 0.0
C321 C 0.61988 0.39334 0.90127 0.0
C322 C 0.62188 0.42323 0.92415 0.0
C323 C 0.64671 0.36686 0.90646 0.0
C324 C 0.63792 0.42322 0.8776 0.0
C325 C 0.60293 0.40908 0.85966 0.0
C326 C 0.61227 0.4288 0.8355 0.0
C327 C 0.65855 0.46409 0.8296 0.0
C328 C 0.69475 0.47954 0.84785 0.0
C329 C 0.68394 0.45892 0.87218 0.0
H330 H 0.58346 0.50263 0.24487 0.0
H331 H 0.61592 0.57257 0.17203 0.0
H332 H 0.53064 0.53094 0.16183 0.0
H333 H 0.48394 0.38964 0.22453 0.0
H334 H 0.45208 0.38294 0.25342 0.0
H335 H 0.51557 0.4143 0.25353 0.0
H336 H 0.51686 0.48762 0.27321 0.0
H337 H 0.4536 0.45624 0.27349 0.0
H338 H 0.48537 0.5125 0.25778 0.0
H339 H 0.4405 0.48516 0.16138 0.0
H340 H 0.35571 0.4473 0.17263 0.0
H341 H 0.38574 0.40936 0.24568 0.0
C342 C 0.57296 0.50897 0.22658 0.0
C343 C 0.60637 0.54075 0.20919 0.0
C344 C 0.59087 0.54832 0.18564 0.0
C345 C 0.5426 0.52454 0.17962 0.0
C346 C 0.51062 0.49326 0.1973 0.0
C347 C 0.52541 0.48577 0.22036 0.0
C348 C 0.48454 0.45384 0.23713 0.0
C349 C 0.48402 0.40743 0.24245 0.0
C350 C 0.48513 0.47907 0.26183 0.0
C351 C 0.44414 0.44567 0.22031 0.0
C352 C 0.45951 0.46767 0.19717 0.0
C353 C 0.42809 0.46728 0.17929 0.0
C354 C 0.38007 0.44547 0.18571 0.0
C355 C 0.36464 0.42536 0.20991 0.0
C356 C 0.39682 0.42413 0.22695 0.0
H357 H 0.00311 0.63545 0.56055 0.0
H358 H 0.10595 0.6565 0.50342 0.0
H359 H 0.0601 0.57185 0.49223 0.0
H360 H 0.99659 0.5437 0.58523 0.0
H361 H 0.93469 0.51044 0.59272 0.0
H362 H 0.96334 0.57334 0.58985 0.0
H363 H 0.9043 0.56668 0.5555 0.0
H364 H 0.87378 0.50334 0.55889 0.0
H365 H 0.89425 0.52971 0.52827 0.0
H366 H 0.01745 0.48332 0.49665 0.0
H367 H 0.97621 0.40101 0.51253 0.0
H368 H 0.90269 0.43916 0.56741 0.0
C369 C 0.01393 0.62267 0.54447 0.0
C370 C 0.05731 0.65214 0.53254 0.0
C371 C 0.072 0.63449 0.51226 0.0
C372 C 0.04635 0.58631 0.50599 0.0
C373 C 0.00586 0.55692 0.5199 0.0
C374 C 0.9889 0.57484 0.53823 0.0
C375 C 0.94996 0.53589 0.55356 0.0
C376 C 0.96193 0.54119 0.58198 0.0
C377 C 0.90277 0.53377 0.54875 0.0
C378 C 0.95012 0.49356 0.54239 0.0
C379 C 0.9817 0.50592 0.52265 0.0
C380 C 0.99152 0.47305 0.51155 0.0
C381 C 0.96831 0.42651 0.52082 0.0
C382 C 0.9363 0.41366 0.54123 0.0
C383 C 0.92676 0.44765 0.5517 0.0
H384 H 0.40392 0.00315 0.89509 0.0
H385 H 0.5246 0.13823 0.87567 0.0
H386 H 0.56911 0.09874 0.86352 0.0
H387 H 0.46636 0.96399 0.92661 0.0
H388 H 0.43196 0.90267 0.91774 0.0
H389 H 0.40524 0.9389 0.91803 0.0
H390 H 0.38074 0.91774 0.8712 0.0
H391 H 0.40727 0.88104 0.87081 0.0
H392 H 0.42477 0.9275 0.84787 0.0
H393 H 0.60433 0.04716 0.86007 0.0
H394 H 0.62926 0.98866 0.86886 0.0
H395 H 0.48737 0.88835 0.8934 0.0
C396 C 0.43894 0.02383 0.88718 0.0
C397 C 0.46078 0.07323 0.88564 0.0
C398 C 0.50738 0.10006 0.87647 0.0
C399 C 0.53272 0.07795 0.86943 0.0
C400 C 0.51094 0.0291 0.87195 0.0
C401 C 0.46507 0.00232 0.88066 0.0
C402 C 0.45273 0.95204 0.88593 0.0
C403 C 0.43827 0.93867 0.91372 0.0
C404 C 0.41409 0.91755 0.86787 0.0
C405 C 0.49947 0.95545 0.88014 0.0
C406 C 0.53215 0.99965 0.87128 0.0
C407 C 0.57885 0.01211 0.86654 0.0
C408 C 0.59273 0.97881 0.87159 0.0
C409 C 0.56019 0.93432 0.88184 0.0
C410 C 0.51286 0.92222 0.8855 0.0
H411 H 0.63137 0.63483 0.50166 0.0
H412 H 0.56594 0.66258 0.56527 0.0
H413 H 0.52843 0.57863 0.57784 0.0
H414 H 0.53875 0.53868 0.48278 0.0
H415 H 0.56638 0.5056 0.47294 0.0
H416 H 0.59988 0.56885 0.47345 0.0
H417 H 0.66173 0.56752 0.50321 0.0
H418 H 0.62931 0.50389 0.50216 0.0
H419 H 0.64286 0.53409 0.53211 0.0
H420 H 0.48257 0.48931 0.57654 0.0
H421 H 0.44025 0.40475 0.56435 0.0
H422 H 0.53616 0.43742 0.50122 0.0
C423 C 0.61133 0.62364 0.51905 0.0
C424 C 0.60179 0.65483 0.53267 0.0
C425 C 0.57441 0.6392 0.55495 0.0
C426 C 0.5527 0.5915 0.56208 0.0
C427 C 0.55973 0.56057 0.54699 0.0
C428 C 0.58962 0.57643 0.52631 0.0
C429 C 0.58635 0.53595 0.51099 0.0
C430 C 0.57196 0.53739 0.48345 0.0
C431 C 0.63282 0.53532 0.51221 0.0
C432 C 0.54769 0.49485 0.5252 0.0
C433 C 0.53321 0.50935 0.54617 0.0
C434 C 0.49456 0.47747 0.56057 0.0
C435 C 0.47047 0.42962 0.5534 0.0
C436 C 0.48486 0.41447 0.53184 0.0
C437 C 0.52431 0.44767 0.5179 0.0
H438 H 0.895 0.47193 0.83181 0.0
H439 H 0.95104 0.57117 0.89418 0.0
H440 H 1.00037 0.53693 0.9067 0.0
H441 H 0.89592 0.37141 0.86306 0.0
H442 H 0.91354 0.35499 0.83431 0.0
H443 H 0.87756 0.38222 0.83297 0.0
H444 H 0.93902 0.44786 0.80373 0.0
H445 H 0.97467 0.42056 0.80476 0.0
H446 H 0.99954 0.48158 0.81384 0.0
H447 H 0.05069 0.49845 0.90871 0.0
H448 H 0.10078 0.46389 0.89809 0.0
H449 H 0.01076 0.39106 0.8345 0.0
C450 C 0.9169 0.48605 0.84844 0.0
C451 C 0.91909 0.52416 0.86208 0.0
C452 C 0.94873 0.54186 0.8835 0.0
C453 C 0.97656 0.5224 0.89083 0.0
C454 C 0.97386 0.48511 0.87667 0.0
C455 C 0.94469 0.46724 0.85589 0.0
C456 C 0.95168 0.43093 0.84199 0.0
C457 C 0.90701 0.38199 0.84317 0.0
C458 C 0.96717 0.44618 0.81448 0.0
C459 C 0.99082 0.43238 0.85755 0.0
C460 C 0.00257 0.46298 0.87784 0.0
C461 C 0.04101 0.47351 0.89332 0.0
C462 C 0.06904 0.4536 0.8873 0.0
C463 C 0.05835 0.42398 0.86599 0.0
C464 C 0.01824 0.41228 0.85143 0.0
H465 H 0.4051 0.90277 0.17803 0.0
H466 H 0.35478 1.00194 0.18574 0.0
H467 H 0.43694 0.06719 0.19069 0.0
H468 H 0.50863 0.96526 0.22245 0.0
H469 H 0.5442 0.95025 0.20287 0.0
H470 H 0.48141 0.91083 0.20477 0.0
H471 H 0.4757 0.91322 0.15607 0.0
H472 H 0.53813 0.9529 0.154 0.0
H473 H 0.49807 0.9694 0.14049 0.0
H474 H 0.52304 0.12179 0.18565 0.0
H475 H 0.60763 0.16193 0.17479 0.0
H476 H 0.60255 0.02715 0.173 0.0
C477 C 0.41132 0.93807 0.1815 0.0
C478 C 0.37388 0.94758 0.18147 0.0
C479 C 0.38312 0.99405 0.18591 0.0
C480 C 0.42959 0.03121 0.18875 0.0
C481 C 0.46595 0.02086 0.18769 0.0
C482 C 0.45727 0.97525 0.18469 0.0
C483 C 0.50246 0.97389 0.18184 0.0
C484 C 0.50959 0.94856 0.20433 0.0
C485 C 0.50363 0.95103 0.1566 0.0
C486 C 0.53794 0.02612 0.18222 0.0
C487 C 0.51618 0.05259 0.18584 0.0
C488 C 0.5407 0.10156 0.18362 0.0
C489 C 0.58852 0.12396 0.1773 0.0
C490 C 0.61124 0.09741 0.17352 0.0
C491 C 0.58601 0.04809 0.17658 0.0
H492 H 0.2545 0.33755 0.34117 0.0
H493 H 0.38115 0.46745 0.32001 0.0
H494 H 0.42669 0.45131 0.351 0.0
H495 H 0.28319 0.34895 0.40909 0.0
H496 H 0.25867 0.28636 0.41361 0.0
H497 H 0.2351 0.30756 0.38957 0.0
H498 H 0.24994 0.25878 0.3561 0.0
H499 H 0.27417 0.23796 0.37997 0.0
H500 H 0.30841 0.2675 0.35235 0.0
H501 H 0.46054 0.41938 0.38121 0.0
H502 H 0.4792 0.38018 0.41496 0.0
H503 H 0.3311 0.27354 0.42102 0.0
C504 C 0.29166 0.36281 0.34335 0.0
C505 C 0.31409 0.40388 0.32805 0.0
C506 C 0.36286 0.436 0.33151 0.0
C507 C 0.38929 0.42698 0.34898 0.0
C508 C 0.36653 0.38603 0.36337 0.0
C509 C 0.31869 0.35493 0.36132 0.0
C510 C 0.30329 0.31452 0.38007 0.0
C511 C 0.26797 0.31435 0.39922 0.0
C512 C 0.28273 0.26687 0.36629 0.0
C513 C 0.35008 0.32771 0.39262 0.0
C514 C 0.38601 0.36872 0.38224 0.0
C515 C 0.43265 0.38753 0.38974 0.0
C516 C 0.44292 0.36468 0.40887 0.0
C517 C 0.40672 0.32371 0.4208 0.0
C518 C 0.35958 0.30479 0.41235 0.0
H519 H 0.94522 0.28106 0.65894 0.0
H520 H 0.91584 0.39645 0.65848 0.0
H521 H 0.9754 0.43709 0.69146 0.0
H522 H 0.96115 0.28311 0.72781 0.0
H523 H 0.00724 0.26854 0.72585 0.0
H524 H 0.96241 0.24812 0.70183 0.0
H525 H 0.02717 0.28753 0.66766 0.0
H526 H 0.07216 0.30865 0.69162 0.0
H527 H 0.06959 0.34969 0.66996 0.0
H528 H 0.04157 0.46858 0.72184 0.0
H529 H 0.10153 0.48349 0.75383 0.0
H530 H 0.08542 0.34561 0.73895 0.0
C531 C 0.95105 0.31462 0.66601 0.0
C532 C 0.92571 0.33551 0.65599 0.0
C533 C 0.93436 0.37944 0.66585 0.0
C534 C 0.96849 0.40309 0.6845 0.0
C535 C 0.99337 0.38214 0.69363 0.0
C536 C 0.98444 0.33841 0.68527 0.0
C537 C 0.01518 0.32332 0.69935 0.0
C538 C 0.98467 0.27809 0.71462 0.0
C539 C 0.04797 0.31692 0.68105 0.0
C540 C 0.043 0.36566 0.71663 0.0
C541 C 0.0302 0.39939 0.71255 0.0
C542 C 0.05155 0.44224 0.72542 0.0
C543 C 0.08598 0.45051 0.74348 0.0
C544 C 0.09844 0.41583 0.74903 0.0
C545 C 0.07681 0.37289 0.73517 0.0
H546 H 0.58898 0.93721 0.99235 0.0
H547 H 0.70753 0.914 0.98607 0.0
H548 H 0.75134 0.97733 1.0176 0.0
H549 H 0.6588 0.06326 0.99557 0.0
H550 H 0.61983 0.06953 1.01719 0.0
H551 H 0.59675 0.02027 0.99568 0.0
H552 H 0.56121 0.96202 1.03314 0.0
H553 H 0.58375 0.01111 0.05474 0.0
H554 H 0.59882 0.96564 0.05884 0.0
H555 H 0.78083 0.04216 0.05131 0.0
H556 H 0.79531 0.10561 0.08181 0.0
H557 H 0.66073 0.0917 0.06223 0.0
C558 C 0.62388 0.94491 0.99793 0.0
C559 C 0.64455 0.92002 0.98715 0.0
C560 C 0.69086 0.93223 0.99432 0.0
C561 C 0.71597 0.9682 1.01218 0.0
C562 C 0.69472 0.99241 1.02225 0.0
C563 C 0.64984 0.98152 1.01515 0.0
C564 C 0.63582 0.01439 1.02764 0.0
C565 C 0.62731 0.04359 1.00784 0.0
C566 C 0.59233 0.98663 0.0446 0.0
C567 C 0.67955 0.04525 0.04313 0.0
C568 C 0.71296 0.03171 0.04003 0.0
C569 C 0.75516 0.05342 0.05357 0.0
C570 C 0.76316 0.08948 0.07081 0.0
C571 C 0.72966 0.10429 0.07398 0.0
C572 C 0.68758 0.08205 0.05971 0.0
H573 H 0.5944 0.65192 0.40707 0.0
H574 H 0.69348 0.80261 0.4054 0.0
H575 H 0.73516 0.79086 0.36958 0.0
H576 H 0.67861 0.61617 0.39503 0.0
H577 H 0.63961 0.56606 0.37589 0.0
H578 H 0.61587 0.58665 0.40021 0.0
H579 H 0.5626 0.59586 0.36739 0.0
H580 H 0.58571 0.5747 0.34303 0.0
H581 H 0.58879 0.63093 0.33952 0.0
H582 H 0.76617 0.76183 0.33365 0.0
H583 H 0.78347 0.71844 0.301 0.0
H584 H 0.66662 0.58644 0.32813 0.0
C585 C 0.6244 0.68264 0.39893 0.0
C586 C 0.64032 0.72836 0.40889 0.0
C587 C 0.68038 0.76735 0.39799 0.0
C588 C 0.70435 0.76096 0.37767 0.0
C589 C 0.68819 0.71527 0.36862 0.0
C590 C 0.64908 0.6768 0.37893 0.0
C591 C 0.6397 0.63118 0.3664 0.0
C592 C 0.6437 0.59808 0.38553 0.0
C593 C 0.59134 0.60675 0.35331 0.0
C594 C 0.67954 0.6499 0.34734 0.0
C595 C 0.70702 0.69851 0.34879 0.0
C596 C 0.74501 0.72375 0.33249 0.0
C597 C 0.75468 0.69879 0.31404 0.0
C598 C 0.72686 0.64897 0.31216 0.0
C599 C 0.68916 0.6244 0.32932 0.0
H600 H 0.07593 0.72948 0.67258 0.0
H601 H 0.06172 0.59658 0.64737 0.0
H602 H 0.99758 0.55376 0.67775 0.0
H603 H 0.05318 0.69561 0.73968 0.0
H604 H 0.02124 0.72637 0.74499 0.0
H605 H 0.06695 0.74737 0.7214 0.0
H606 H 0.00756 0.74295 0.68787 0.0
H607 H 0.9615 0.72123 0.71127 0.0
H608 H 0.95366 0.68787 0.6828 0.0
H609 H 0.9315 0.52406 0.70811 0.0
H610 H 0.87442 0.50942 0.74187 0.0
H611 H 0.93227 0.66056 0.75078 0.0
C612 C 0.05974 0.69146 0.67373 0.0
C613 C 0.07412 0.66656 0.65745 0.0
C614 C 0.05179 0.61672 0.65958 0.0
C615 C 0.01495 0.59188 0.67672 0.0
C616 C 1.0009 0.61719 0.692 0.0
C617 C 0.02309 0.66588 0.69118 0.0
C618 C 1.00131 0.68401 0.71039 0.0
C619 C 0.03785 0.71519 0.7303 0.0
C620 C 0.97973 0.71059 0.69729 0.0
C621 C 0.96324 0.63784 0.72184 0.0
C622 C 0.96347 0.59986 0.7106 0.0
C623 C 0.93123 0.55351 0.71726 0.0
C624 C 0.89864 0.54558 0.73642 0.0
C625 C 0.89863 0.58374 0.74913 0.0
C626 C 0.9312 0.63058 0.74146 0.0
H627 H 0.3427 0.91913 0.07471 0.0
H628 H 0.19934 0.89126 0.08164 0.0
H629 H 0.21528 0.95099 0.04857 0.0
H630 H 0.39456 0.04367 0.06888 0.0
H631 H 0.43972 0.05041 0.04706 0.0
H632 H 0.41582 0.00248 0.06936 0.0
H633 H 0.39361 0.94218 1.03288 0.0
H634 H 0.418 0.98997 1.01049 0.0
H635 H 0.35792 0.94272 1.0072 0.0
H636 H 0.24761 0.0141 1.01409 0.0
H637 H 0.29415 0.07715 0.98302 0.0
H638 H 0.41829 0.06891 1.002 0.0
C639 C 0.31433 0.92482 0.06884 0.0
C640 C 0.26938 0.89975 0.08033 0.0
C641 C 0.23376 0.90953 0.07282 0.0
C642 C 0.24258 0.94349 0.0541 0.0
C643 C 0.28755 0.96817 0.04345 0.0
C644 C 0.32292 0.95945 0.05071 0.0
C645 C 0.36902 0.99281 0.03762 0.0
C646 C 0.40701 0.0242 0.05688 0.0
C647 C 0.38559 0.96527 1.02106 0.0
C648 C 0.35409 0.02148 1.02168 0.0
C649 C 0.30684 0.00643 1.02507 0.0
C650 C 0.28472 0.02641 1.01152 0.0
C651 C 0.31143 0.06228 0.99395 0.0
C652 C 0.36001 0.07857 0.9904 0.0
C653 C 0.38149 0.05802 1.00469 0.0
H654 H 0.90075 0.18054 0.15068 0.0
H655 H 0.84444 0.12283 0.22449 0.0
H656 H 0.92464 0.1475 0.23959 0.0
H657 H 0.00597 0.16018 0.15187 0.0
H658 H 0.04232 0.216 0.1364 0.0
H659 H 0.98022 0.18199 0.12943 0.0
H660 H 0.97164 0.25424 0.14092 0.0
H661 H 0.03322 0.28817 0.14828 0.0
H662 H 0.99015 0.28099 0.17166 0.0
H663 H 0.01064 0.19307 0.24916 0.0
H664 H 0.09458 0.25464 0.25215 0.0
H665 H 0.095 0.28438 0.17237 0.0
C666 C 0.90505 0.17092 0.16962 0.0
C667 C 0.8664 0.14924 0.18632 0.0
C668 C 0.87358 0.13895 0.2113 0.0
C669 C 0.91903 0.15277 0.22003 0.0
C670 C 0.95687 0.1767 0.20351 0.0
C671 C 0.95027 0.18518 0.17869 0.0
C672 C 0.99677 0.21809 0.16596 0.0
C673 C 0.00692 0.19252 0.14466 0.0
C674 C 0.99798 0.263 0.15616 0.0
C675 C 0.03023 0.22896 0.18786 0.0
C676 C 0.00679 0.2039 0.20919 0.0
C677 C 0.02959 0.21197 0.23242 0.0
C678 C 0.07726 0.24714 0.23397 0.0
C679 C 0.1014 0.27417 0.21248 0.0
C680 C 0.07774 0.26388 0.18906 0.0
H681 H 0.83598 0.12169 0.57369 0.0
H682 H 0.89564 0.16821 0.49912 0.0
H683 H 0.86347 0.08523 0.486 0.0
H684 H 0.84431 0.00961 0.5761 0.0
H685 H 0.78807 0.97831 0.59182 0.0
H686 H 0.82613 0.04067 0.59727 0.0
H687 H 0.75839 0.05517 0.58426 0.0
H688 H 0.72046 0.99326 0.57832 0.0
H689 H 0.73128 0.03547 0.55371 0.0
H690 H 0.81245 0.99843 0.47856 0.0
H691 H 0.74832 0.9151 0.47781 0.0
H692 H 0.71975 0.92537 0.55685 0.0
C693 C 0.84436 0.11443 0.55504 0.0
C694 C 0.86899 0.15128 0.53754 0.0
C695 C 0.87742 0.14043 0.5129 0.0
C696 C 0.85926 0.09339 0.50529 0.0
C697 C 0.83275 0.05763 0.52255 0.0
C698 C 0.82575 0.06762 0.54705 0.0
C699 C 0.79025 0.02326 0.56073 0.0
C700 C 0.8136 0.01232 0.58279 0.0
C701 C 0.7476 0.02705 0.56976 0.0
C702 C 0.77673 0.98724 0.53979 0.0
C703 C 0.80228 0.00748 0.51807 0.0
C704 C 0.79297 0.98195 0.49563 0.0
C705 C 0.75634 0.93468 0.49534 0.0
C706 C 0.72913 0.91366 0.51728 0.0
C707 C 0.74022 0.94022 0.53983 0.0
H708 H 0.82268 0.70426 0.89667 0.0
H709 H 0.85353 0.72451 0.81654 0.0
H710 H 0.82846 0.78408 0.81562 0.0
H711 H 0.7196 0.70273 0.89364 0.0
H712 H 0.72486 0.73296 0.92298 0.0
H713 H 0.75549 0.70085 0.91884 0.0
H714 H 0.83474 0.77606 0.92944 0.0
H715 H 0.80421 0.8085 0.93383 0.0
H716 H 0.85267 0.82959 0.91191 0.0
H717 H 0.78607 0.82874 0.82151 0.0
H718 H 0.73075 0.8556 0.8338 0.0
H719 H 0.72749 0.80688 0.91021 0.0
C720 C 0.82598 0.72257 0.87913 0.0
C721 C 0.84046 0.71002 0.85671 0.0
C722 C 0.84296 0.73384 0.83399 0.0
C723 C 0.82888 0.76783 0.83331 0.0
C724 C 0.81278 0.77788 0.85554 0.0
C725 C 0.81176 0.7563 0.87812 0.0
C726 C 0.78718 0.7684 0.89856 0.0
C727 C 0.74425 0.72358 0.9091 0.0
C728 C 0.82178 0.79737 0.91968 0.0
C729 C 0.77233 0.79816 0.88365 0.0
C730 C 0.78821 0.80395 0.85899 0.0
C731 C 0.77449 0.82552 0.84091 0.0
C732 C 0.74292 0.84052 0.84805 0.0
C733 C 0.72531 0.83381 0.87303 0.0
C734 C 0.74137 0.81362 0.89117 0.0
H735 H 0.88158 0.71431 0.16266 0.0
H736 H 0.87094 0.75612 0.23897 0.0
H737 H 0.9554 0.81643 0.23804 0.0
H738 H 0.9824 0.71439 0.17136 0.0
H739 H 0.00791 0.73618 0.14071 0.0
H740 H 0.9451 0.70559 0.14454 0.0
H741 H 0.94198 0.77706 0.1259 0.0
H742 H 0.00505 0.80791 0.12176 0.0
H743 H 0.97782 0.83487 0.13953 0.0
H744 H 0.04227 0.85947 0.23236 0.0
H745 H 0.12433 0.88188 0.22241 0.0
H746 H 0.07941 0.81206 0.1498 0.0
C747 C 0.89652 0.73759 0.17875 0.0
C748 C 0.8696 0.73092 0.20078 0.0
C749 C 0.89081 0.76095 0.2218 0.0
C750 C 0.93877 0.79542 0.22141 0.0
C751 C 0.96493 0.79956 0.19981 0.0
C752 C 0.94443 0.77176 0.17873 0.0
C753 C 0.98129 0.77803 0.15944 0.0
C754 C 0.97903 0.73076 0.15371 0.0
C755 C 0.97623 0.80084 0.13522 0.0
C756 C 0.02585 0.81161 0.17354 0.0
C757 C 0.01563 0.82444 0.19655 0.0
C758 C 0.05076 0.85071 0.21413 0.0
C759 C 0.09728 0.86313 0.20835 0.0
C760 C 0.10825 0.84909 0.18523 0.0
C761 C 0.07223 0.82431 0.16734 0.0
H762 H 0.21415 0.92326 0.51789 0.0
H763 H 0.17598 0.90826 0.59716 0.0
H764 H 0.19948 0.99274 0.59886 0.0
H765 H 0.31567 0.02971 0.52297 0.0
H766 H 0.31001 0.05338 0.49335 0.0
H767 H 0.28275 0.99062 0.49741 0.0
H768 H 0.20188 0.98084 0.4851 0.0
H769 H 0.22902 0.04384 0.48107 0.0
H770 H 0.17958 0.01324 0.50214 0.0
H771 H 0.23893 0.08056 0.59361 0.0
H772 H 0.29122 0.16411 0.58193 0.0
H773 H 0.30116 0.12145 0.50573 0.0
C774 C 0.20956 0.93738 0.53547 0.0
C775 C 0.19309 0.90913 0.55738 0.0
C776 C 0.18826 0.92917 0.5801 0.0
C777 C 0.20136 0.97708 0.58121 0.0
C778 C 0.21858 0.00425 0.55937 0.0
C779 C 0.22229 0.98496 0.53686 0.0
C780 C 0.24618 0.02244 0.51675 0.0
C781 C 0.29132 0.02413 0.50708 0.0
C782 C 0.21212 0.01462 0.49498 0.0
C783 C 0.25733 0.06622 0.53175 0.0
C784 C 0.24054 0.05495 0.5562 0.0
C785 C 0.25119 0.08975 0.57436 0.0
C786 C 0.28092 0.13712 0.56756 0.0
C787 C 0.29954 0.14921 0.54283 0.0
C788 C 0.28623 0.11334 0.52454 0.0
H789 H 0.16801 0.26442 0.89426 0.0
H790 H 0.14599 0.24345 0.81349 0.0
H791 H 0.16748 0.1812 0.81529 0.0
H792 H 0.26869 0.26201 0.89578 0.0
H793 H 0.25915 0.23232 0.92567 0.0
H794 H 0.23081 0.26586 0.9192 0.0
H795 H 0.14937 0.19225 0.92835 0.0
H796 H 0.17765 0.15833 0.9349 0.0
H797 H 0.13173 0.13802 0.91149 0.0
H798 H 0.20643 0.13422 0.82424 0.0
H799 H 0.26106 0.10843 0.8392 0.0
H800 H 0.25757 0.15939 0.91428 0.0
C801 C 0.16595 0.24552 0.87708 0.0
C802 C 0.155 0.25855 0.85375 0.0
C803 C 0.15388 0.23379 0.8316 0.0
C804 C 0.16585 0.19822 0.83248 0.0
C805 C 0.17837 0.18756 0.85568 0.0
C806 C 0.17807 0.21027 0.87764 0.0
C807 C 0.19953 0.19767 0.89942 0.0
C808 C 0.24206 0.24209 0.91064 0.0
C809 C 0.16234 0.1699 0.91974 0.0
C810 C 0.21457 0.16654 0.88599 0.0
C811 C 0.20102 0.16018 0.8609 0.0
C812 C 0.2161 0.13785 0.84398 0.0
C813 C 0.24719 0.12335 0.85264 0.0
C814 C 0.26307 0.13145 0.87797 0.0
C815 C 0.24493 0.1515 0.89502 0.0
loop_
_geom_bond_atom_site_label_1
_geom_bond_atom_site_label_2
_geom_bond_distance
_geom_bond_site_symmetry_2
_ccdc_geom_bond_type
O0 Cd1 2.223 . S
O0 C8 1.315 . S
Cd1 O0 2.223 . S
Cd1 O4 2.297 . S
Cd1 O5 2.439 . S
Cd1 O11 2.240 . S
Cd2 O3 2.240 . S
Cd2 O10 2.223 . S
Cd2 O12 2.297 . S
Cd2 O13 2.439 . S
O3 Cd2 2.240 . S
O3 C8 1.279 . S
O4 Cd1 2.297 . S
O4 C6 1.247 . S
O5 Cd1 2.439 . S
O5 C6 1.208 . S
C6 O4 1.247 . S
C6 O5 1.208 . S
C7 O12 1.247 . S
C7 O13 1.208 . S
C8 O0 1.315 . S
C8 O3 1.279 . S
C9 O10 1.315 . S
C9 O11 1.279 . S
O10 Cd2 2.223 . S
O10 C9 1.315 . S
O11 Cd1 2.240 . S
O11 C9 1.279 . S
O12 Cd2 2.297 . S
O12 C7 1.247 . S
O13 Cd2 2.439 . S
O13 C7 1.208 . S
O14 Cd15 2.223 . S
O14 C22 1.315 . S
Cd15 O14 2.223 . S
Cd15 O18 2.297 . S
Cd15 O19 2.439 . S
Cd15 O25 2.240 . S
Cd16 O17 2.240 . S
Cd16 O24 2.223 . S
Cd16 O26 2.297 . S
Cd16 O27 2.439 . S
O17 Cd16 2.240 . S
O17 C22 1.279 . S
O18 Cd15 2.297 . S
O18 C20 1.247 . S
O19 Cd15 2.439 . S
O19 C20 1.208 . S
C20 O18 1.247 . S
C20 O19 1.208 . S
C21 O26 1.247 . S
C21 O27 1.208 . S
C22 O14 1.315 . S
C22 O17 1.279 . S
C23 O24 1.315 . S
C23 O25 1.279 . S
O24 Cd16 2.223 . S
O24 C23 1.315 . S
O25 Cd15 2.240 . S
O25 C23 1.279 . S
O26 Cd16 2.297 . S
O26 C21 1.247 . S
O27 Cd16 2.439 . S
O27 C21 1.208 . S
O28 Cd29 2.223 . S
O28 C36 1.315 . S
Cd29 O28 2.223 . S
Cd29 O32 2.297 . S
Cd29 O33 2.439 . S
Cd29 O39 2.240 . S
Cd30 O31 2.240 . S
Cd30 O38 2.223 . S
Cd30 O40 2.297 . S
Cd30 O41 2.439 . S
O31 Cd30 2.240 . S
O31 C36 1.279 . S
O32 Cd29 2.297 . S
O32 C34 1.247 . S
O33 Cd29 2.439 . S
O33 C34 1.208 . S
C34 O32 1.247 . S
C34 O33 1.208 . S
C35 O40 1.247 . S
C35 O41 1.208 . S
C36 O28 1.315 . S
C36 O31 1.279 . S
C37 O38 1.315 . S
C37 O39 1.279 . S
O38 Cd30 2.223 . S
O38 C37 1.315 . S
O39 Cd29 2.240 . S
O39 C37 1.279 . S
O40 Cd30 2.297 . S
O40 C35 1.247 . S
O41 Cd30 2.439 . S
O41 C35 1.208 . S
O42 Cd43 2.223 . S
O42 C50 1.315 . S
Cd43 O42 2.223 . S
Cd43 O46 2.297 . S
Cd43 O47 2.439 . S
Cd43 O53 2.240 . S
Cd44 O45 2.240 . S
Cd44 O52 2.223 . S
Cd44 O54 2.297 . S
Cd44 O55 2.439 . S
O45 Cd44 2.240 . S
O45 C50 1.279 . S
O46 Cd43 2.297 . S
O46 C48 1.247 . S
O47 Cd43 2.439 . S
O47 C48 1.208 . S
C48 O46 1.247 . S
C48 O47 1.208 . S
C49 O54 1.247 . S
C49 O55 1.208 . S
C50 O42 1.315 . S
C50 O45 1.279 . S
C51 O52 1.315 . S
C51 O53 1.279 . S
O52 Cd44 2.223 . S
O52 C51 1.315 . S
O53 Cd43 2.240 . S
O53 C51 1.279 . S
O54 Cd44 2.297 . S
O54 C49 1.247 . S
O55 Cd44 2.439 . S
O55 C49 1.208 . S
O56 Cd57 2.223 . S
O56 C64 1.315 . S
Cd57 O56 2.223 . S
Cd57 O60 2.297 . S
Cd57 O61 2.439 . S
Cd57 O67 2.240 . S
Cd58 O59 2.240 . S
Cd58 O66 2.223 . S
Cd58 O68 2.297 . S
Cd58 O69 2.439 . S
O59 Cd58 2.240 . S
O59 C64 1.279 . S
O60 Cd57 2.297 . S
O60 C62 1.247 . S
O61 Cd57 2.439 . S
O61 C62 1.208 . S
C62 O60 1.247 . S
C62 O61 1.208 . S
C63 O68 1.247 . S
C63 O69 1.208 . S
C64 O56 1.315 . S
C64 O59 1.279 . S
C65 O66 1.315 . S
C65 O67 1.279 . S
O66 Cd58 2.223 . S
O66 C65 1.315 . S
O67 Cd57 2.240 . S
O67 C65 1.279 . S
O68 Cd58 2.297 . S
O68 C63 1.247 . S
O69 Cd58 2.439 . S
O69 C63 1.208 . S
O70 Cd71 2.223 . S
O70 C78 1.315 . S
Cd71 O70 2.223 . S
Cd71 O74 2.297 . S
Cd71 O75 2.439 . S
Cd71 O81 2.240 . S
Cd72 O73 2.240 . S
Cd72 O80 2.223 . S
Cd72 O82 2.297 . S
Cd72 O83 2.439 . S
O73 Cd72 2.240 . S
O73 C78 1.279 . S
O74 Cd71 2.297 . S
O74 C76 1.247 . S
O75 Cd71 2.439 . S
O75 C76 1.208 . S
C76 O74 1.247 . S
C76 O75 1.208 . S
C77 O82 1.247 . S
C77 O83 1.208 . S
C78 O70 1.315 . S
C78 O73 1.279 . S
C79 O80 1.315 . S
C79 O81 1.279 . S
O80 Cd72 2.223 . S
O80 C79 1.315 . S
O81 Cd71 2.240 . S
O81 C79 1.279 . S
O82 Cd72 2.297 . S
O82 C77 1.247 . S
O83 Cd72 2.439 . S
O83 C77 1.208 . S
O84 Cd85 2.223 . S
O84 C92 1.315 . S
Cd85 O84 2.223 . S
Cd85 O88 2.297 . S
Cd85 O89 2.439 . S
Cd85 O95 2.240 . S
Cd86 O87 2.240 . S
Cd86 O94 2.223 . S
Cd86 O96 2.297 . S
Cd86 O97 2.439 . S
O87 Cd86 2.240 . S
O87 C92 1.279 . S
O88 Cd85 2.297 . S
O88 C90 1.247 . S
O89 Cd85 2.439 . S
O89 C90 1.208 . S
C90 O88 1.247 . S
C90 O89 1.208 . S
C91 O96 1.247 . S
C91 O97 1.208 . S
C92 O84 1.315 . S
C92 O87 1.279 . S
C93 O94 1.315 . S
C93 O95 1.279 . S
O94 Cd86 2.223 . S
O94 C93 1.315 . S
O95 Cd85 2.240 . S
O95 C93 1.279 . S
O96 Cd86 2.297 . S
O96 C91 1.247 . S
O97 Cd86 2.439 . S
O97 C91 1.208 . S
O98 Cd99 2.223 . S
O98 C106 1.315 . S
Cd99 O98 2.223 . S
Cd99 O102 2.297 . S
Cd99 O103 2.439 . S
Cd99 O109 2.240 . S
Cd100 O101 2.240 . S
Cd100 O108 2.223 . S
Cd100 O110 2.297 . S
Cd100 O111 2.439 . S
O101 Cd100 2.240 . S
O101 C106 1.279 . S
O102 Cd99 2.297 . S
O102 C104 1.247 . S
O103 Cd99 2.439 . S
O103 C104 1.208 . S
C104 O102 1.247 . S
C104 O103 1.208 . S
C105 O110 1.247 . S
C105 O111 1.208 . S
C106 O98 1.315 . S
C106 O101 1.279 . S
C107 O108 1.315 . S
C107 O109 1.279 . S
O108 Cd100 2.223 . S
O108 C107 1.315 . S
O109 Cd99 2.240 . S
O109 C107 1.279 . S
O110 Cd100 2.297 . S
O110 C105 1.247 . S
O111 Cd100 2.439 . S
O111 C105 1.208 . S
O112 Cd113 2.223 . S
O112 C120 1.315 . S
Cd113 O112 2.223 . S
Cd113 O116 2.297 . S
Cd113 O117 2.439 . S
Cd113 O123 2.240 . S
Cd114 O115 2.240 . S
Cd114 O122 2.223 . S
Cd114 O124 2.297 . S
Cd114 O125 2.439 . S
O115 Cd114 2.240 . S
O115 C120 1.279 . S
O116 Cd113 2.297 . S
O116 C118 1.247 . S
O117 Cd113 2.439 . S
O117 C118 1.208 . S
C118 O116 1.247 . S
C118 O117 1.208 . S
C119 O124 1.247 . S
C119 O125 1.208 . S
C120 O112 1.315 . S
C120 O115 1.279 . S
C121 O122 1.315 . S
C121 O123 1.279 . S
O122 Cd114 2.223 . S
O122 C121 1.315 . S
O123 Cd113 2.240 . S
O123 C121 1.279 . S
O124 Cd114 2.297 . S
O124 C119 1.247 . S
O125 Cd114 2.439 . S
O125 C119 1.208 . S
O126 Cd127 2.223 . S
O126 C134 1.315 . S
Cd127 O126 2.223 . S
Cd127 O130 2.297 . S
Cd127 O131 2.439 . S
Cd127 O137 2.240 . S
Cd128 O129 2.240 . S
Cd128 O136 2.223 . S
Cd128 O138 2.297 . S
Cd128 O139 2.439 . S
O129 Cd128 2.240 . S
O129 C134 1.279 . S
O130 Cd127 2.297 . S
O130 C132 1.247 . S
O131 Cd127 2.439 . S
O131 C132 1.208 . S
C132 O130 1.247 . S
C132 O131 1.208 . S
C133 O138 1.247 . S
C133 O139 1.208 . S
C134 O126 1.315 . S
C134 O129 1.279 . S
C135 O136 1.315 . S
C135 O137 1.279 . S
O136 Cd128 2.223 . S
O136 C135 1.315 . S
O137 Cd127 2.240 . S
O137 C135 1.279 . S
O138 Cd128 2.297 . S
O138 C133 1.247 . S
O139 Cd128 2.439 . S
O139 C133 1.208 . S
O140 Cd141 2.223 . S
O140 C148 1.315 . S
Cd141 O140 2.223 . S
Cd141 O144 2.297 . S
Cd141 O145 2.439 . S
Cd141 O151 2.240 . S
Cd142 O143 2.240 . S
Cd142 O150 2.223 . S
Cd142 O152 2.297 . S
Cd142 O153 2.439 . S
O143 Cd142 2.240 . S
O143 C148 1.279 . S
O144 Cd141 2.297 . S
O144 C146 1.247 . S
O145 Cd141 2.439 . S
O145 C146 1.208 . S
C146 O144 1.247 . S
C146 O145 1.208 . S
C147 O152 1.247 . S
C147 O153 1.208 . S
C148 O140 1.315 . S
C148 O143 1.279 . S
C149 O150 1.315 . S
C149 O151 1.279 . S
O150 Cd142 2.223 . S
O150 C149 1.315 . S
O151 Cd141 2.240 . S
O151 C149 1.279 . S
O152 Cd142 2.297 . S
O152 C147 1.247 . S
O153 Cd142 2.439 . S
O153 C147 1.208 . S
O154 Cd155 2.223 . S
O154 C162 1.315 . S
Cd155 O154 2.223 . S
Cd155 O158 2.297 . S
Cd155 O159 2.439 . S
Cd155 O165 2.240 . S
Cd156 O157 2.240 . S
Cd156 O164 2.223 . S
Cd156 O166 2.297 . S
Cd156 O167 2.439 . S
O157 Cd156 2.240 . S
O157 C162 1.279 . S
O158 Cd155 2.297 . S
O158 C160 1.247 . S
O159 Cd155 2.439 . S
O159 C160 1.208 . S
C160 O158 1.247 . S
C160 O159 1.208 . S
C161 O166 1.247 . S
C161 O167 1.208 . S
C162 O154 1.315 . S
C162 O157 1.279 . S
C163 O164 1.315 . S
C163 O165 1.279 . S
O164 Cd156 2.223 . S
O164 C163 1.315 . S
O165 Cd155 2.240 . S
O165 C163 1.279 . S
O166 Cd156 2.297 . S
O166 C161 1.247 . S
O167 Cd156 2.439 . S
O167 C161 1.208 . S
H168 C180 0.930 . S
H169 C182 0.930 . S
H170 C183 0.930 . S
H171 C187 0.959 . S
H172 C187 0.959 . S
H173 C187 0.961 . S
H174 C188 0.960 . S
H175 C188 0.961 . S
H176 C188 0.959 . S
H177 C191 0.929 . S
H178 C192 0.931 . S
H179 C194 0.930 . S
C180 H168 0.930 . S
C180 C181 1.399 . S
C180 C185 1.399 . S
C181 C180 1.399 . S
C181 C182 1.376 . S
C182 H169 0.930 . S
C182 C181 1.376 . S
C182 C183 1.388 . S
C183 H170 0.930 . S
C183 C182 1.388 . S
C183 C184 1.390 . S
C184 C183 1.390 . S
C184 C185 1.394 . S
C184 C190 1.465 . S
C185 C180 1.399 . S
C185 C184 1.394 . S
C185 C186 1.516 . S
C186 C185 1.516 . S
C186 C187 1.502 . S
C186 C188 1.561 . S
C186 C189 1.526 . S
C187 H171 0.959 . S
C187 H172 0.959 . S
C187 H173 0.961 . S
C187 C186 1.502 . S
C188 H174 0.960 . S
C188 H175 0.961 . S
C188 H176 0.959 . S
C188 C186 1.561 . S
C189 C186 1.526 . S
C189 C190 1.396 . S
C189 C194 1.390 . S
C190 C184 1.465 . S
C190 C189 1.396 . S
C190 C191 1.399 . S
C191 H177 0.929 . S
C191 C190 1.399 . S
C191 C192 1.385 . S
C192 H178 0.931 . S
C192 C191 1.385 . S
C192 C193 1.389 . S
C193 C192 1.389 . S
C193 C194 1.387 . S
C194 H179 0.930 . S
C194 C189 1.390 . S
C194 C193 1.387 . S
H195 C207 0.930 . S
H196 C209 0.930 . S
H197 C210 0.930 . S
H198 C214 0.959 . S
H199 C214 0.959 . S
H200 C214 0.961 . S
H201 C215 0.960 . S
H202 C215 0.961 . S
H203 C215 0.959 . S
H204 C218 0.929 . S
H205 C219 0.931 . S
H206 C221 0.930 . S
C207 H195 0.930 . S
C207 C208 1.399 . S
C207 C212 1.399 . S
C208 C207 1.399 . S
C208 C209 1.376 . S
C209 H196 0.930 . S
C209 C208 1.376 . S
C209 C210 1.388 . S
C210 H197 0.930 . S
C210 C209 1.388 . S
C210 C211 1.390 . S
C211 C210 1.390 . S
C211 C212 1.394 . S
C211 C217 1.465 . S
C212 C207 1.399 . S
C212 C211 1.394 . S
C212 C213 1.516 . S
C213 C212 1.516 . S
C213 C214 1.502 . S
C213 C215 1.561 . S
C213 C216 1.526 . S
C214 H198 0.959 . S
C214 H199 0.959 . S
C214 H200 0.961 . S
C214 C213 1.502 . S
C215 H201 0.960 . S
C215 H202 0.961 . S
C215 H203 0.959 . S
C215 C213 1.561 . S
C216 C213 1.526 . S
C216 C217 1.396 . S
C216 C221 1.390 . S
C217 C211 1.465 . S
C217 C216 1.396 . S
C217 C218 1.399 . S
C218 H204 0.929 . S
C218 C217 1.399 . S
C218 C219 1.385 . S
C219 H205 0.931 . S
C219 C218 1.385 . S
C219 C220 1.389 . S
C220 C219 1.389 . S
C220 C221 1.387 . S
C221 H206 0.930 . S
C221 C216 1.390 . S
C221 C220 1.387 . S
H222 C234 0.930 . S
H223 C236 0.930 . S
H224 C237 0.930 . S
H225 C241 0.959 . S
H226 C241 0.959 . S
H227 C241 0.961 . S
H228 C242 0.960 . S
H229 C242 0.961 . S
H230 C242 0.959 . S
H231 C245 0.929 . S
H232 C246 0.931 . S
H233 C248 0.930 . S
C234 H222 0.930 . S
C234 C235 1.399 . S
C234 C239 1.399 . S
C235 C234 1.399 . S
C235 C236 1.376 . S
C236 H223 0.930 . S
C236 C235 1.376 . S
C236 C237 1.388 . S
C237 H224 0.930 . S
C237 C236 1.388 . S
C237 C238 1.390 . S
C238 C237 1.390 . S
C238 C239 1.394 . S
C238 C244 1.465 . S
C239 C234 1.399 . S
C239 C238 1.394 . S
C239 C240 1.516 . S
C240 C239 1.516 . S
C240 C241 1.502 . S
C240 C242 1.561 . S
C240 C243 1.526 . S
C241 H225 0.959 . S
C241 H226 0.959 . S
C241 H227 0.961 . S
C241 C240 1.502 . S
C242 H228 0.960 . S
C242 H229 0.961 . S
C242 H230 0.959 . S
C242 C240 1.561 . S
C243 C240 1.526 . S
C243 C244 1.396 . S
C243 C248 1.390 . S
C244 C238 1.465 . S
C244 C243 1.396 . S
C244 C245 1.399 . S
C245 H231 0.929 . S
C245 C244 1.399 . S
C245 C246 1.385 . S
C246 H232 0.931 . S
C246 C245 1.385 . S
C246 C247 1.389 . S
C247 C246 1.389 . S
C247 C248 1.387 . S
C248 H233 0.930 . S
C248 C243 1.390 . S
C248 C247 1.387 . S
H249 C261 0.930 . S
H250 C263 0.930 . S
H251 C264 0.930 . S
H252 C268 0.959 . S
H253 C268 0.959 . S
H254 C268 0.961 . S
H255 C269 0.960 . S
H256 C269 0.961 . S
H257 C269 0.959 . S
H258 C272 0.929 . S
H259 C273 0.931 . S
H260 C275 0.930 . S
C261 H249 0.930 . S
C261 C262 1.399 . S
C261 C266 1.399 . S
C262 C261 1.399 . S
C262 C263 1.376 . S
C263 H250 0.930 . S
C263 C262 1.376 . S
C263 C264 1.388 . S
C264 H251 0.930 . S
C264 C263 1.388 . S
C264 C265 1.390 . S
C265 C264 1.390 . S
C265 C266 1.394 . S
C265 C271 1.465 . S
C266 C261 1.399 . S
C266 C265 1.394 . S
C266 C267 1.516 . S
C267 C266 1.516 . S
C267 C268 1.502 . S
C267 C269 1.561 . S
C267 C270 1.526 . S
C268 H252 0.959 . S
C268 H253 0.959 . S
C268 H254 0.961 . S
C268 C267 1.502 . S
C269 H255 0.960 . S
C269 H256 0.961 . S
C269 H257 0.959 . S
C269 C267 1.561 . S
C270 C267 1.526 . S
C270 C271 1.396 . S
C270 C275 1.390 . S
C271 C265 1.465 . S
C271 C270 1.396 . S
C271 C272 1.399 . S
C272 H258 0.929 . S
C272 C271 1.399 . S
C272 C273 1.385 . S
C273 H259 0.931 . S
C273 C272 1.385 . S
C273 C274 1.389 . S
C274 C273 1.389 . S
C274 C275 1.387 . S
C275 H260 0.930 . S
C275 C270 1.390 . S
C275 C274 1.387 . S
H276 C288 0.930 . S
H277 C290 0.930 . S
H278 C291 0.930 . S
H279 C295 0.959 . S
H280 C295 0.959 . S
H281 C295 0.961 . S
H282 C296 0.960 . S
H283 C296 0.961 . S
H284 C296 0.959 . S
H285 C299 0.929 . S
H286 C300 0.931 . S
H287 C302 0.930 . S
C288 H276 0.930 . S
C288 C289 1.399 . S
C288 C293 1.399 . S
C289 C288 1.399 . S
C289 C290 1.376 . S
C290 H277 0.930 . S
C290 C289 1.376 . S
C290 C291 1.388 . S
C291 H278 0.930 . S
C291 C290 1.388 . S
C291 C292 1.390 . S
C292 C291 1.390 . S
C292 C293 1.394 . S
C292 C298 1.465 . S
C293 C288 1.399 . S
C293 C292 1.394 . S
C293 C294 1.516 . S
C294 C293 1.516 . S
C294 C295 1.502 . S
C294 C296 1.561 . S
C294 C297 1.526 . S
C295 H279 0.959 . S
C295 H280 0.959 . S
C295 H281 0.961 . S
C295 C294 1.502 . S
C296 H282 0.960 . S
C296 H283 0.961 . S
C296 H284 0.959 . S
C296 C294 1.561 . S
C297 C294 1.526 . S
C297 C298 1.396 . S
C297 C302 1.390 . S
C298 C292 1.465 . S
C298 C297 1.396 . S
C298 C299 1.399 . S
C299 H285 0.929 . S
C299 C298 1.399 . S
C299 C300 1.385 . S
C300 H286 0.931 . S
C300 C299 1.385 . S
C300 C301 1.389 . S
C301 C300 1.389 . S
C301 C302 1.387 . S
C302 H287 0.930 . S
C302 C297 1.390 . S
C302 C301 1.387 . S
H303 C315 0.930 . S
H304 C317 0.930 . S
H305 C318 0.930 . S
H306 C322 0.959 . S
H307 C322 0.959 . S
H308 C322 0.961 . S
H309 C323 0.960 . S
H310 C323 0.961 . S
H311 C323 0.959 . S
H312 C326 0.929 . S
H313 C327 0.931 . S
H314 C329 0.930 . S
C315 H303 0.930 . S
C315 C316 1.399 . S
C315 C320 1.399 . S
C316 C315 1.399 . S
C316 C317 1.376 . S
C317 H304 0.930 . S
C317 C316 1.376 . S
C317 C318 1.388 . S
C318 H305 0.930 . S
C318 C317 1.388 . S
C318 C319 1.390 . S
C319 C318 1.390 . S
C319 C320 1.394 . S
C319 C325 1.465 . S
C320 C315 1.399 . S
C320 C319 1.394 . S
C320 C321 1.516 . S
C321 C320 1.516 . S
C321 C322 1.502 . S
C321 C323 1.561 . S
C321 C324 1.526 . S
C322 H306 0.959 . S
C322 H307 0.959 . S
C322 H308 0.961 . S
C322 C321 1.502 . S
C323 H309 0.960 . S
C323 H310 0.961 . S
C323 H311 0.959 . S
C323 C321 1.561 . S
C324 C321 1.526 . S
C324 C325 1.396 . S
C324 C329 1.390 . S
C325 C319 1.465 . S
C325 C324 1.396 . S
C325 C326 1.399 . S
C326 H312 0.929 . S
C326 C325 1.399 . S
C326 C327 1.385 . S
C327 H313 0.931 . S
C327 C326 1.385 . S
C327 C328 1.389 . S
C328 C327 1.389 . S
C328 C329 1.387 . S
C329 H314 0.930 . S
C329 C324 1.390 . S
C329 C328 1.387 . S
H330 C342 0.930 . S
H331 C344 0.930 . S
H332 C345 0.930 . S
H333 C349 0.959 . S
H334 C349 0.959 . S
H335 C349 0.961 . S
H336 C350 0.960 . S
H337 C350 0.961 . S
H338 C350 0.959 . S
H339 C353 0.929 . S
H340 C354 0.931 . S
H341 C356 0.930 . S
C342 H330 0.930 . S
C342 C343 1.399 . S
C342 C347 1.399 . S
C343 C342 1.399 . S
C343 C344 1.376 . S
C344 H331 0.930 . S
C344 C343 1.376 . S
C344 C345 1.388 . S
C345 H332 0.930 . S
C345 C344 1.388 . S
C345 C346 1.390 . S
C346 C345 1.390 . S
C346 C347 1.394 . S
C346 C352 1.465 . S
C347 C342 1.399 . S
C347 C346 1.394 . S
C347 C348 1.516 . S
C348 C347 1.516 . S
C348 C349 1.502 . S
C348 C350 1.561 . S
C348 C351 1.526 . S
C349 H333 0.959 . S
C349 H334 0.959 . S
C349 H335 0.961 . S
C349 C348 1.502 . S
C350 H336 0.960 . S
C350 H337 0.961 . S
C350 H338 0.959 . S
C350 C348 1.561 . S
C351 C348 1.526 . S
C351 C352 1.396 . S
C351 C356 1.390 . S
C352 C346 1.465 . S
C352 C351 1.396 . S
C352 C353 1.399 . S
C353 H339 0.929 . S
C353 C352 1.399 . S
C353 C354 1.385 . S
C354 H340 0.931 . S
C354 C353 1.385 . S
C354 C355 1.389 . S
C355 C354 1.389 . S
C355 C356 1.387 . S
C356 H341 0.930 . S
C356 C351 1.390 . S
C356 C355 1.387 . S
H357 C369 0.930 . S
H358 C371 0.930 . S
H359 C372 0.930 1_655 S
H360 C376 0.959 . S
H361 C376 0.959 . S
H362 C376 0.961 . S
H363 C377 0.960 . S
H364 C377 0.961 . S
H365 C377 0.959 . S
H366 C380 0.929 . S
H367 C381 0.931 . S
H368 C383 0.930 . S
C369 H357 0.930 . S
C369 C370 1.399 . S
C369 C374 1.399 . S
C370 C369 1.399 . S
C370 C371 1.376 . S
C371 H358 0.930 . S
C371 C370 1.376 . S
C371 C372 1.388 . S
C372 H359 0.930 1_455 S
C372 C371 1.388 . S
C372 C373 1.390 . S
C373 C372 1.390 . S
C373 C374 1.394 . S
C373 C379 1.465 1_455 S
C374 C369 1.399 . S
C374 C373 1.394 . S
C374 C375 1.516 . S
C375 C374 1.516 . S
C375 C376 1.502 . S
C375 C377 1.561 1_455 S
C375 C378 1.526 1_455 S
C376 H360 0.959 . S
C376 H361 0.959 . S
C376 H362 0.961 . S
C376 C375 1.502 . S
C377 H363 0.960 . S
C377 H364 0.961 . S
C377 H365 0.959 . S
C377 C375 1.561 1_655 S
C378 C375 1.526 1_655 S
C378 C379 1.396 . S
C378 C383 1.390 . S
C379 C373 1.465 1_655 S
C379 C378 1.396 . S
C379 C380 1.399 . S
C380 H366 0.929 . S
C380 C379 1.399 . S
C380 C381 1.385 . S
C381 H367 0.931 . S
C381 C380 1.385 . S
C381 C382 1.389 . S
C382 C381 1.389 . S
C382 C383 1.387 . S
C383 H368 0.930 . S
C383 C378 1.390 . S
C383 C382 1.387 . S
H384 C396 0.930 . S
H385 C398 0.930 . S
H386 C399 0.930 . S
H387 C403 0.959 . S
H388 C403 0.959 . S
H389 C403 0.961 . S
H390 C404 0.960 . S
H391 C404 0.961 . S
H392 C404 0.959 . S
H393 C407 0.929 1_545 S
H394 C408 0.931 . S
H395 C410 0.930 . S
C396 H384 0.930 . S
C396 C397 1.399 . S
C396 C401 1.399 . S
C397 C396 1.399 . S
C397 C398 1.376 . S
C398 H385 0.930 . S
C398 C397 1.376 . S
C398 C399 1.388 . S
C399 H386 0.930 . S
C399 C398 1.388 . S
C399 C400 1.390 . S
C400 C399 1.390 . S
C400 C401 1.394 . S
C400 C406 1.465 1_545 S
C401 C396 1.399 . S
C401 C400 1.394 . S
C401 C402 1.516 1_545 S
C402 C401 1.516 1_565 S
C402 C403 1.502 . S
C402 C404 1.561 1_565 S
C402 C405 1.526 . S
C403 H387 0.959 . S
C403 H388 0.959 . S
C403 H389 0.961 . S
C403 C402 1.502 . S
C404 H390 0.960 . S
C404 H391 0.961 . S
C404 H392 0.959 . S
C404 C402 1.561 1_545 S
C405 C402 1.526 . S
C405 C406 1.396 . S
C405 C410 1.390 . S
C406 C400 1.465 1_565 S
C406 C405 1.396 . S
C406 C407 1.399 . S
C407 H393 0.929 1_565 S
C407 C406 1.399 . S
C407 C408 1.385 . S
C408 H394 0.931 . S
C408 C407 1.385 . S
C408 C409 1.389 . S
C409 C408 1.389 . S
C409 C410 1.387 . S
C410 H395 0.930 . S
C410 C405 1.390 . S
C410 C409 1.387 . S
H411 C423 0.930 . S
H412 C425 0.930 . S
H413 C426 0.930 . S
H414 C430 0.959 . S
H415 C430 0.959 . S
H416 C430 0.961 . S
H417 C431 0.960 . S
H418 C431 0.961 . S
H419 C431 0.959 . S
H420 C434 0.929 . S
H421 C435 0.931 . S
H422 C437 0.930 . S
C423 H411 0.930 . S
C423 C424 1.399 . S
C423 C428 1.399 . S
C424 C423 1.399 . S
C424 C425 1.376 . S
C425 H412 0.930 . S
C425 C424 1.376 . S
C425 C426 1.388 . S
C426 H413 0.930 . S
C426 C425 1.388 . S
C426 C427 1.390 . S
C427 C426 1.390 . S
C427 C428 1.394 . S
C427 C433 1.465 . S
C428 C423 1.399 . S
C428 C427 1.394 . S
C428 C429 1.516 . S
C429 C428 1.516 . S
C429 C430 1.502 . S
C429 C431 1.561 . S
C429 C432 1.526 . S
C430 H414 0.959 . S
C430 H415 0.959 . S
C430 H416 0.961 . S
C430 C429 1.502 . S
C431 H417 0.960 . S
C431 H418 0.961 . S
C431 H419 0.959 . S
C431 C429 1.561 . S
C432 C429 1.526 . S
C432 C433 1.396 . S
C432 C437 1.390 . S
C433 C427 1.465 . S
C433 C432 1.396 . S
C433 C434 1.399 . S
C434 H420 0.929 . S
C434 C433 1.399 . S
C434 C435 1.385 . S
C435 H421 0.931 . S
C435 C434 1.385 . S
C435 C436 1.389 . S
C436 C435 1.389 . S
C436 C437 1.387 . S
C437 H422 0.930 . S
C437 C432 1.390 . S
C437 C436 1.387 . S
H438 C450 0.930 . S
H439 C452 0.930 . S
H440 C453 0.930 . S
H441 C457 0.959 . S
H442 C457 0.959 . S
H443 C457 0.961 . S
H444 C458 0.960 . S
H445 C458 0.961 1_455 S
H446 C458 0.959 1_455 S
H447 C461 0.929 . S
H448 C462 0.931 . S
H449 C464 0.930 . S
C450 H438 0.930 . S
C450 C451 1.399 . S
C450 C455 1.399 . S
C451 C450 1.399 . S
C451 C452 1.376 . S
C452 H439 0.930 . S
C452 C451 1.376 . S
C452 C453 1.388 1_655 S
C453 H440 0.930 . S
C453 C452 1.388 1_455 S
C453 C454 1.390 . S
C454 C453 1.390 . S
C454 C455 1.394 1_455 S
C454 C460 1.465 . S
C455 C450 1.399 . S
C455 C454 1.394 1_655 S
C455 C456 1.516 . S
C456 C455 1.516 . S
C456 C457 1.502 . S
C456 C458 1.561 . S
C456 C459 1.526 1_655 S
C457 H441 0.959 . S
C457 H442 0.959 . S
C457 H443 0.961 . S
C457 C456 1.502 . S
C458 H444 0.960 . S
C458 H445 0.961 1_655 S
C458 H446 0.959 1_655 S
C458 C456 1.561 . S
C459 C456 1.526 1_455 S
C459 C460 1.396 . S
C459 C464 1.390 . S
C460 C454 1.465 . S
C460 C459 1.396 . S
C460 C461 1.399 . S
C461 H447 0.929 . S
C461 C460 1.399 . S
C461 C462 1.385 . S
C462 H448 0.931 . S
C462 C461 1.385 . S
C462 C463 1.389 . S
C463 C462 1.389 . S
C463 C464 1.387 . S
C464 H449 0.930 . S
C464 C459 1.390 . S
C464 C463 1.387 . S
H465 C477 0.930 . S
H466 C479 0.930 . S
H467 C480 0.930 . S
H468 C484 0.959 . S
H469 C484 0.959 . S
H470 C484 0.961 . S
H471 C485 0.960 . S
H472 C485 0.961 . S
H473 C485 0.959 . S
H474 C488 0.929 . S
H475 C489 0.931 . S
H476 C491 0.930 . S
C477 H465 0.930 . S
C477 C478 1.399 . S
C477 C482 1.399 . S
C478 C477 1.399 . S
C478 C479 1.376 . S
C479 H466 0.930 . S
C479 C478 1.376 . S
C479 C480 1.388 . S
C480 H467 0.930 . S
C480 C479 1.388 . S
C480 C481 1.390 . S
C481 C480 1.390 . S
C481 C482 1.394 . S
C481 C487 1.465 1_565 S
C482 C477 1.399 . S
C482 C481 1.394 . S
C482 C483 1.515 1_565 S
C483 C482 1.515 1_545 S
C483 C484 1.519 . S
C483 C485 1.544 1_545 S
C483 C486 1.525 . S
C484 H468 0.959 . S
C484 H469 0.959 . S
C484 H470 0.961 . S
C484 C483 1.519 . S
C485 H471 0.960 . S
C485 H472 0.961 . S
C485 H473 0.959 . S
C485 C483 1.544 1_565 S
C486 C483 1.525 . S
C486 C487 1.396 . S
C486 C491 1.390 . S
C487 C481 1.465 1_545 S
C487 C486 1.396 . S
C487 C488 1.399 . S
C488 H474 0.929 . S
C488 C487 1.399 . S
C488 C489 1.385 . S
C489 H475 0.931 . S
C489 C488 1.385 . S
C489 C490 1.389 . S
C490 C489 1.389 . S
C490 C491 1.387 . S
C491 H476 0.930 . S
C491 C486 1.390 . S
C491 C490 1.387 . S
H492 C504 0.930 . S
H493 C506 0.930 . S
H494 C507 0.930 . S
H495 C511 0.959 . S
H496 C511 0.959 . S
H497 C511 0.961 . S
H498 C512 0.960 . S
H499 C512 0.961 . S
H500 C512 0.959 . S
H501 C515 0.929 . S
H502 C516 0.931 . S
H503 C518 0.930 . S
C504 H492 0.930 . S
C504 C505 1.399 . S
C504 C509 1.399 . S
C505 C504 1.399 . S
C505 C506 1.376 . S
C506 H493 0.930 . S
C506 C505 1.376 . S
C506 C507 1.388 . S
C507 H494 0.930 . S
C507 C506 1.388 . S
C507 C508 1.390 . S
C508 C507 1.390 . S
C508 C509 1.394 . S
C508 C514 1.465 . S
C509 C504 1.399 . S
C509 C508 1.394 . S
C509 C510 1.516 . S
C510 C509 1.516 . S
C510 C511 1.502 . S
C510 C512 1.561 . S
C510 C513 1.526 . S
C511 H495 0.959 . S
C511 H496 0.959 . S
C511 H497 0.961 . S
C511 C510 1.502 . S
C512 H498 0.960 . S
C512 H499 0.961 . S
C512 H500 0.959 . S
C512 C510 1.561 . S
C513 C510 1.526 . S
C513 C514 1.396 . S
C513 C518 1.390 . S
C514 C508 1.465 . S
C514 C513 1.396 . S
C514 C515 1.399 . S
C515 H501 0.929 . S
C515 C514 1.399 . S
C515 C516 1.385 . S
C516 H502 0.931 . S
C516 C515 1.385 . S
C516 C517 1.389 . S
C517 C516 1.389 . S
C517 C518 1.387 . S
C518 H503 0.930 . S
C518 C513 1.390 . S
C518 C517 1.387 . S
H519 C531 0.930 . S
H520 C533 0.930 1_455 S
H521 C534 0.930 . S
H522 C538 0.959 . S
H523 C538 0.959 . S
H524 C538 0.961 . S
H525 C539 0.960 . S
H526 C539 0.961 . S
H527 C539 0.959 1_455 S
H528 C542 0.929 . S
H529 C543 0.931 . S
H530 C545 0.930 1_655 S
C531 H519 0.930 . S
C531 C532 1.399 . S
C531 C536 1.399 . S
C532 C531 1.399 . S
C532 C533 1.376 . S
C533 H520 0.930 1_655 S
C533 C532 1.376 . S
C533 C534 1.388 1_655 S
C534 H521 0.930 . S
C534 C533 1.388 1_455 S
C534 C535 1.390 . S
C535 C534 1.390 . S
C535 C536 1.394 1_455 S
C535 C541 1.465 . S
C536 C531 1.399 . S
C536 C535 1.394 1_655 S
C536 C537 1.516 . S
C537 C536 1.516 . S
C537 C538 1.502 . S
C537 C539 1.561 . S
C537 C540 1.526 1_655 S
C538 H522 0.959 . S
C538 H523 0.959 . S
C538 H524 0.961 . S
C538 C537 1.502 . S
C539 H525 0.960 . S
C539 H526 0.961 . S
C539 H527 0.959 1_655 S
C539 C537 1.561 . S
C540 C537 1.526 1_455 S
C540 C541 1.396 . S
C540 C545 1.390 . S
C541 C535 1.465 . S
C541 C540 1.396 . S
C541 C542 1.399 . S
C542 H528 0.929 . S
C542 C541 1.399 . S
C542 C543 1.385 . S
C543 H529 0.931 . S
C543 C542 1.385 . S
C543 C544 1.389 . S
C544 C543 1.389 . S
C544 C545 1.387 . S
C545 H530 0.930 1_455 S
C545 C540 1.390 . S
C545 C544 1.387 . S
H546 C558 0.930 1_545 S
H547 C560 0.930 . S
H548 C561 0.930 . S
H549 C565 0.959 . S
H550 C565 0.959 . S
H551 C565 0.961 . S
H552 C566 0.960 . S
H553 C566 0.961 . S
H554 C566 0.959 . S
H555 C569 0.929 . S
H556 C570 0.931 . S
H557 C572 0.930 . S
C558 H546 0.930 1_565 S
C558 C559 1.399 . S
C558 C563 1.399 1_565 S
C559 C558 1.399 . S
C559 C560 1.376 . S
C560 H547 0.930 . S
C560 C559 1.376 . S
C560 C561 1.388 . S
C561 H548 0.930 . S
C561 C560 1.388 . S
C561 C562 1.390 . S
C562 C561 1.390 . S
C562 C563 1.394 1_565 S
C562 C568 1.465 1_556 S
C563 C558 1.399 1_545 S
C563 C562 1.394 1_545 S
C563 C564 1.516 . S
C564 C563 1.516 . S
C564 C565 1.502 . S
C564 C566 1.561 . S
C564 C567 1.526 1_556 S
C565 H549 0.959 . S
C565 H550 0.959 . S
C565 H551 0.961 . S
C565 C564 1.502 . S
C566 H552 0.960 . S
C566 H553 0.961 . S
C566 H554 0.959 . S
C566 C564 1.561 . S
C567 C564 1.526 1_554 S
C567 C568 1.396 1_545 S
C567 C572 1.390 . S
C568 C562 1.465 1_554 S
C568 C567 1.396 1_565 S
C568 C569 1.399 . S
C569 H555 0.929 . S
C569 C568 1.399 . S
C569 C570 1.385 . S
C570 H556 0.931 . S
C570 C569 1.385 . S
C570 C571 1.389 1_565 S
C571 C570 1.389 1_545 S
C571 C572 1.387 . S
C572 H557 0.930 . S
C572 C567 1.390 . S
C572 C571 1.387 . S
H573 C585 0.930 . S
H574 C587 0.930 . S
H575 C588 0.930 . S
H576 C592 0.959 . S
H577 C592 0.959 . S
H578 C592 0.961 . S
H579 C593 0.960 . S
H580 C593 0.961 . S
H581 C593 0.959 . S
H582 C596 0.929 . S
H583 C597 0.931 . S
H584 C599 0.930 . S
C585 H573 0.930 . S
C585 C586 1.399 . S
C585 C590 1.399 . S
C586 C585 1.399 . S
C586 C587 1.376 . S
C587 H574 0.930 . S
C587 C586 1.376 . S
C587 C588 1.388 . S
C588 H575 0.930 . S
C588 C587 1.388 . S
C588 C589 1.390 . S
C589 C588 1.390 . S
C589 C590 1.394 . S
C589 C595 1.465 . S
C590 C585 1.399 . S
C590 C589 1.394 . S
C590 C591 1.516 . S
C591 C590 1.516 . S
C591 C592 1.502 . S
C591 C593 1.561 . S
C591 C594 1.526 . S
C592 H576 0.959 . S
C592 H577 0.959 . S
C592 H578 0.961 . S
C592 C591 1.502 . S
C593 H579 0.960 . S
C593 H580 0.961 . S
C593 H581 0.959 . S
C593 C591 1.561 . S
C594 C591 1.526 . S
C594 C595 1.396 . S
C594 C599 1.390 . S
C595 C589 1.465 . S
C595 C594 1.396 . S
C595 C596 1.399 . S
C596 H582 0.929 . S
C596 C595 1.399 . S
C596 C597 1.385 . S
C597 H583 0.931 . S
C597 C596 1.385 . S
C597 C598 1.389 . S
C598 C597 1.389 . S
C598 C599 1.387 . S
C599 H584 0.930 . S
C599 C594 1.390 . S
C599 C598 1.387 . S
H600 C612 0.930 . S
H601 C614 0.930 . S
H602 C615 0.930 . S
H603 C619 0.959 . S
H604 C619 0.959 . S
H605 C619 0.961 . S
H606 C620 0.960 . S
H607 C620 0.961 . S
H608 C620 0.959 . S
H609 C623 0.929 . S
H610 C624 0.931 . S
H611 C626 0.930 1_455 S
C612 H600 0.930 . S
C612 C613 1.399 . S
C612 C617 1.399 . S
C613 C612 1.399 . S
C613 C614 1.376 1_455 S
C614 H601 0.930 . S
C614 C613 1.376 1_655 S
C614 C615 1.388 . S
C615 H602 0.930 . S
C615 C614 1.388 . S
C615 C616 1.390 . S
C616 C615 1.390 . S
C616 C617 1.394 1_655 S
C616 C622 1.465 . S
C617 C612 1.399 . S
C617 C616 1.394 1_455 S
C617 C618 1.516 . S
C618 C617 1.516 . S
C618 C619 1.502 . S
C618 C620 1.561 . S
C618 C621 1.535 . S
C619 H603 0.959 . S
C619 H604 0.959 . S
C619 H605 0.961 . S
C619 C618 1.502 . S
C620 H606 0.960 . S
C620 H607 0.961 . S
C620 H608 0.959 . S
C620 C618 1.561 . S
C621 C618 1.535 . S
C621 C622 1.390 1_455 S
C621 C626 1.386 1_455 S
C622 C616 1.465 . S
C622 C621 1.390 1_655 S
C622 C623 1.399 . S
C623 H609 0.929 . S
C623 C622 1.399 . S
C623 C624 1.385 . S
C624 H610 0.931 . S
C624 C623 1.385 . S
C624 C625 1.389 . S
C625 C624 1.389 . S
C625 C626 1.387 . S
C626 H611 0.930 1_655 S
C626 C621 1.386 1_655 S
C626 C625 1.387 . S
H627 C639 0.930 1_545 S
H628 C641 0.930 . S
H629 C642 0.930 . S
H630 C646 0.959 . S
H631 C646 0.984 . S
H632 C646 0.961 . S
H633 C647 0.960 . S
H634 C647 0.961 . S
H635 C647 0.959 . S
H636 C650 0.929 . S
H637 C651 0.931 1_565 S
H638 C653 0.930 . S
C639 H627 0.930 1_565 S
C639 C640 1.399 . S
C639 C644 1.399 1_565 S
C640 C639 1.399 . S
C640 C641 1.376 . S
C641 H628 0.930 . S
C641 C640 1.376 . S
C641 C642 1.388 . S
C642 H629 0.930 . S
C642 C641 1.388 . S
C642 C643 1.390 . S
C643 C642 1.390 . S
C643 C644 1.394 1_565 S
C643 C649 1.465 1_554 S
C644 C639 1.399 1_545 S
C644 C643 1.394 1_545 S
C644 C645 1.516 . S
C645 C644 1.516 . S
C645 C646 1.502 . S
C645 C647 1.561 . S
C645 C648 1.526 1_554 S
C646 H630 0.959 . S
C646 H631 0.984 . S
C646 H632 0.961 . S
C646 C645 1.502 . S
C647 H633 0.960 . S
C647 H634 0.961 . S
C647 H635 0.959 . S
C647 C645 1.561 . S
C648 C645 1.526 1_556 S
C648 C649 1.396 1_545 S
C648 C653 1.390 . S
C649 C643 1.465 1_556 S
C649 C648 1.396 1_565 S
C649 C650 1.399 . S
C650 H636 0.929 . S
C650 C649 1.399 . S
C650 C651 1.385 1_565 S
C651 H637 0.931 1_545 S
C651 C650 1.385 1_545 S
C651 C652 1.389 . S
C652 C651 1.389 . S
C652 C653 1.387 . S
C653 H638 0.930 . S
C653 C648 1.390 . S
C653 C652 1.387 . S
H654 C666 0.930 . S
H655 C668 0.930 . S
H656 C669 0.930 . S
H657 C673 0.959 . S
H658 C673 0.959 . S
H659 C673 0.961 1_655 S
H660 C674 0.960 1_655 S
H661 C674 0.961 . S
H662 C674 0.959 . S
H663 C677 0.929 . S
H664 C678 0.931 . S
H665 C680 0.930 . S
C666 H654 0.930 . S
C666 C667 1.399 . S
C666 C671 1.399 . S
C667 C666 1.399 . S
C667 C668 1.376 . S
C668 H655 0.930 . S
C668 C667 1.376 . S
C668 C669 1.388 . S
C669 H656 0.930 . S
C669 C668 1.388 . S
C669 C670 1.390 . S
C670 C669 1.390 . S
C670 C671 1.394 . S
C670 C676 1.465 1_655 S
C671 C666 1.399 . S
C671 C670 1.394 . S
C671 C672 1.516 1_655 S
C672 C671 1.516 1_455 S
C672 C673 1.502 . S
C672 C674 1.561 . S
C672 C675 1.526 . S
C673 H657 0.959 . S
C673 H658 0.959 . S
C673 H659 0.961 1_455 S
C673 C672 1.502 . S
C674 H660 0.960 1_455 S
C674 H661 0.961 . S
C674 H662 0.959 . S
C674 C672 1.561 . S
C675 C672 1.526 . S
C675 C676 1.396 . S
C675 C680 1.390 . S
C676 C670 1.465 1_455 S
C676 C675 1.396 . S
C676 C677 1.399 . S
C677 H663 0.929 . S
C677 C676 1.399 . S
C677 C678 1.385 . S
C678 H664 0.931 . S
C678 C677 1.385 . S
C678 C679 1.389 . S
C679 C678 1.389 . S
C679 C680 1.387 . S
C680 H665 0.930 . S
C680 C675 1.390 . S
C680 C679 1.387 . S
H681 C693 0.930 . S
H682 C695 0.930 . S
H683 C696 0.930 . S
H684 C700 0.959 . S
H685 C700 0.959 . S
H686 C700 0.961 1_545 S
H687 C701 0.960 1_545 S
H688 C701 0.961 . S
H689 C701 0.959 . S
H690 C704 0.929 . S
H691 C705 0.931 . S
H692 C707 0.930 . S
C693 H681 0.930 . S
C693 C694 1.399 . S
C693 C698 1.399 . S
C694 C693 1.399 . S
C694 C695 1.376 . S
C695 H682 0.930 . S
C695 C694 1.376 . S
C695 C696 1.388 . S
C696 H683 0.930 . S
C696 C695 1.388 . S
C696 C697 1.390 . S
C697 C696 1.390 . S
C697 C698 1.394 . S
C697 C703 1.465 1_545 S
C698 C693 1.399 . S
C698 C697 1.394 . S
C698 C699 1.516 1_545 S
C699 C698 1.516 1_565 S
C699 C700 1.502 . S
C699 C701 1.561 . S
C699 C702 1.526 . S
C700 H684 0.959 . S
C700 H685 0.959 . S
C700 H686 0.961 1_565 S
C700 C699 1.502 . S
C701 H687 0.960 1_565 S
C701 H688 0.961 . S
C701 H689 0.959 . S
C701 C699 1.561 . S
C702 C699 1.526 . S
C702 C703 1.396 . S
C702 C707 1.390 . S
C703 C697 1.465 1_565 S
C703 C702 1.396 . S
C703 C704 1.399 . S
C704 H690 0.929 . S
C704 C703 1.399 . S
C704 C705 1.385 . S
C705 H691 0.931 . S
C705 C704 1.385 . S
C705 C706 1.389 . S
C706 C705 1.389 . S
C706 C707 1.387 . S
C707 H692 0.930 . S
C707 C702 1.390 . S
C707 C706 1.387 . S
H708 C720 0.930 . S
H709 C722 0.930 . S
H710 C723 0.930 . S
H711 C727 0.959 . S
H712 C727 0.959 . S
H713 C727 0.961 . S
H714 C728 0.960 . S
H715 C728 0.961 . S
H716 C728 0.959 . S
H717 C731 0.929 . S
H718 C732 0.931 . S
H719 C734 0.930 . S
C720 H708 0.930 . S
C720 C721 1.399 . S
C720 C725 1.399 . S
C721 C720 1.399 . S
C721 C722 1.376 . S
C722 H709 0.930 . S
C722 C721 1.376 . S
C722 C723 1.388 . S
C723 H710 0.930 . S
C723 C722 1.388 . S
C723 C724 1.390 . S
C724 C723 1.390 . S
C724 C725 1.394 . S
C724 C730 1.465 . S
C725 C720 1.399 . S
C725 C724 1.394 . S
C725 C726 1.516 . S
C726 C725 1.516 . S
C726 C727 1.502 . S
C726 C728 1.561 . S
C726 C729 1.526 . S
C727 H711 0.959 . S
C727 H712 0.959 . S
C727 H713 0.961 . S
C727 C726 1.502 . S
C728 H714 0.960 . S
C728 H715 0.961 . S
C728 H716 0.959 . S
C728 C726 1.561 . S
C729 C726 1.526 . S
C729 C730 1.396 . S
C729 C734 1.390 . S
C730 C724 1.465 . S
C730 C729 1.396 . S
C730 C731 1.399 . S
C731 H717 0.929 . S
C731 C730 1.399 . S
C731 C732 1.385 . S
C732 H718 0.931 . S
C732 C731 1.385 . S
C732 C733 1.389 . S
C733 C732 1.389 . S
C733 C734 1.387 . S
C734 H719 0.930 . S
C734 C729 1.390 . S
C734 C733 1.387 . S
H735 C747 0.930 . S
H736 C749 0.930 . S
H737 C750 0.930 . S
H738 C754 0.959 1_455 S
H739 C754 0.959 1_455 S
H740 C754 0.961 . S
H741 C755 0.960 . S
H742 C755 0.961 1_455 S
H743 C755 0.959 . S
H744 C758 0.929 . S
H745 C759 0.931 . S
H746 C761 0.930 . S
C747 H735 0.930 . S
C747 C748 1.399 . S
C747 C752 1.399 . S
C748 C747 1.399 . S
C748 C749 1.376 . S
C749 H736 0.930 . S
C749 C748 1.376 . S
C749 C750 1.388 . S
C750 H737 0.930 . S
C750 C749 1.388 . S
C750 C751 1.390 . S
C751 C750 1.390 . S
C751 C752 1.394 . S
C751 C757 1.465 1_655 S
C752 C747 1.399 . S
C752 C751 1.394 . S
C752 C753 1.516 . S
C753 C752 1.516 . S
C753 C754 1.502 . S
C753 C755 1.561 . S
C753 C756 1.526 1_655 S
C754 H738 0.959 1_655 S
C754 H739 0.959 1_655 S
C754 H740 0.961 . S
C754 C753 1.502 . S
C755 H741 0.960 . S
C755 H742 0.961 1_655 S
C755 H743 0.959 . S
C755 C753 1.561 . S
C756 C753 1.526 1_455 S
C756 C757 1.396 . S
C756 C761 1.390 . S
C757 C751 1.465 1_455 S
C757 C756 1.396 . S
C757 C758 1.399 . S
C758 H744 0.929 . S
C758 C757 1.399 . S
C758 C759 1.385 . S
C759 H745 0.931 . S
C759 C758 1.385 . S
C759 C760 1.389 . S
C760 C759 1.389 . S
C760 C761 1.387 . S
C761 H746 0.930 . S
C761 C756 1.390 . S
C761 C760 1.387 . S
H762 C774 0.930 . S
H763 C776 0.930 . S
H764 C777 0.930 . S
H765 C781 0.960 . S
H766 C781 0.959 1_545 S
H767 C781 0.961 . S
H768 C782 0.960 . S
H769 C782 0.961 1_545 S
H770 C782 0.959 . S
H771 C785 0.929 . S
H772 C786 0.931 . S
H773 C788 0.930 . S
C774 H762 0.930 . S
C774 C775 1.399 . S
C774 C779 1.399 . S
C775 C774 1.399 . S
C775 C776 1.376 . S
C776 H763 0.930 . S
C776 C775 1.376 . S
C776 C777 1.388 . S
C777 H764 0.930 . S
C777 C776 1.388 . S
C777 C778 1.390 . S
C778 C777 1.390 . S
C778 C779 1.394 . S
C778 C784 1.465 1_565 S
C779 C774 1.399 . S
C779 C778 1.394 . S
C779 C780 1.516 . S
C780 C779 1.516 . S
C780 C781 1.502 . S
C780 C782 1.561 . S
C780 C783 1.526 1_565 S
C781 H765 0.960 . S
C781 H766 0.959 1_565 S
C781 H767 0.961 . S
C781 C780 1.502 . S
C782 H768 0.960 . S
C782 H769 0.961 1_565 S
C782 H770 0.959 . S
C782 C780 1.561 . S
C783 C780 1.526 1_545 S
C783 C784 1.396 . S
C783 C788 1.390 . S
C784 C778 1.465 1_545 S
C784 C783 1.396 . S
C784 C785 1.399 . S
C785 H771 0.929 . S
C785 C784 1.399 . S
C785 C786 1.385 . S
C786 H772 0.931 . S
C786 C785 1.385 . S
C786 C787 1.389 . S
C787 C786 1.389 . S
C787 C788 1.387 . S
C788 H773 0.930 . S
C788 C783 1.390 . S
C788 C787 1.387 . S
H789 C801 0.930 . S
H790 C803 0.930 . S
H791 C804 0.930 . S
H792 C808 0.959 . S
H793 C808 0.959 . S
H794 C808 0.961 . S
H795 C809 0.960 . S
H796 C809 0.961 . S
H797 C809 0.959 . S
H798 C812 0.929 . S
H799 C813 0.931 . S
H800 C815 0.930 . S
C801 H789 0.930 . S
C801 C802 1.399 . S
C801 C806 1.399 . S
C802 C801 1.399 . S
C802 C803 1.376 . S
C803 H790 0.930 . S
C803 C802 1.376 . S
C803 C804 1.388 . S
C804 H791 0.930 . S
C804 C803 1.388 . S
C804 C805 1.390 . S
C805 C804 1.390 . S
C805 C806 1.394 . S
C805 C811 1.465 . S
C806 C801 1.399 . S
C806 C805 1.394 . S
C806 C807 1.516 . S
C807 C806 1.516 . S
C807 C808 1.502 . S
C807 C809 1.561 . S
C807 C810 1.526 . S
C808 H792 0.959 . S
C808 H793 0.959 . S
C808 H794 0.961 . S
C808 C807 1.502 . S
C809 H795 0.960 . S
C809 H796 0.961 . S
C809 H797 0.959 . S
C809 C807 1.561 . S
C810 C807 1.526 . S
C810 C811 1.396 . S
C810 C815 1.390 . S
C811 C805 1.465 . S
C811 C810 1.396 . S
C811 C812 1.399 . S
C812 H798 0.929 . S
C812 C811 1.399 . S
C812 C813 1.385 . S
C813 H799 0.931 . S
C813 C812 1.385 . S
C813 C814 1.389 . S
C814 C813 1.389 . S
C814 C815 1.387 . S
C815 H800 0.930 . S
C815 C810 1.390 . S
C815 C814 1.387 . S
C181 C120 2.131 . S
C193 C8 2.140 . S
C208 C22 2.118 . S
C220 C134 2.124 . S
C235 C36 2.125 . S
C247 C148 2.119 . S
C262 C50 2.121 . S
C274 C162 2.119 . S
C289 C92 2.143 . S
C301 C64 2.139 . S
C316 C78 2.135 . S
C328 C106 2.142 . S
C343 C51 0.841 . S
C355 C9 0.815 . S
C370 C65 0.855 . S
C382 C23 0.835 . S
C397 C79 0.690 . S
C409 C37 0.713 . S
C424 C93 0.857 . S
C436 C135 0.839 . S
C451 C107 0.844 . S
C463 C149 0.818 . S
C478 C121 0.683 . S
C490 C163 0.699 . S
C505 C7 1.486 . S
C517 C133 1.484 . S
C532 C21 1.525 . S
C544 C147 1.482 . S
C559 C35 1.477 . S
C571 C161 1.515 . S
C586 C91 1.539 . S
C598 C49 1.541 . S
C613 C63 1.531 . S
C625 C105 1.486 . S
C640 C119 1.476 . S
C652 C77 1.503 . S
C667 C160 1.205 . S
C679 C6 1.221 . S
C694 C20 1.202 . S
C706 C90 1.214 . S
C721 C104 1.227 . S
C733 C34 1.215 . S
C748 C48 1.227 . S
C760 C118 1.216 . S
C775 C62 1.227 . S
C787 C132 1.214 . S
C802 C146 1.227 . S
C814 C76 1.214 . S
