# Generated by pormake.
# Topology rhr, (4)-cn, num edge types: 1
# Building blocks:
#     Node 0, Type 0, BuildingBlock: MUDLON_clean_sbu_0, # of connection points: 4
#     Node 1, Type 0, BuildingBlock: MUDLON_clean_sbu_0, # of connection points: 4
#     Node 2, Type 0, BuildingBlock: MUDLON_clean_sbu_0, # of connection points: 4
#     Node 3, Type 0, BuildingBlock: MUDLON_clean_sbu_0, # of connection points: 4
#     Node 4, Type 0, BuildingBlock: MUDLON_clean_sbu_0, # of connection points: 4
#     Node 5, Type 0, BuildingBlock: MUDLON_clean_sbu_0, # of connection points: 4
#     Node 6, Type 0, BuildingBlock: MUDLON_clean_sbu_0, # of connection points: 4
#     Node 7, Type 0, BuildingBlock: MUDLON_clean_sbu_0, # of connection points: 4
#     Node 8, Type 0, BuildingBlock: MUDLON_clean_sbu_0, # of connection points: 4
#     Node 9, Type 0, BuildingBlock: MUDLON_clean_sbu_0, # of connection points: 4
#     Node 10, Type 0, BuildingBlock: MUDLON_clean_sbu_0, # of connection points: 4
#     Node 11, Type 0, BuildingBlock: MUDLON_clean_sbu_0, # of connection points: 4
#     Node 12, Type 0, BuildingBlock: MUDLON_clean_sbu_0, # of connection points: 4
#     Node 13, Type 0, BuildingBlock: MUDLON_clean_sbu_0, # of connection points: 4
#     Node 14, Type 0, BuildingBlock: MUDLON_clean_sbu_0, # of connection points: 4
#     Node 15, Type 0, BuildingBlock: MUDLON_clean_sbu_0, # of connection points: 4
#     Node 16, Type 0, BuildingBlock: MUDLON_clean_sbu_0, # of connection points: 4
#     Node 17, Type 0, BuildingBlock: MUDLON_clean_sbu_0, # of connection points: 4
#     Node 18, Type 0, BuildingBlock: MUDLON_clean_sbu_0, # of connection points: 4
#     Node 19, Type 0, BuildingBlock: MUDLON_clean_sbu_0, # of connection points: 4
#     Node 20, Type 0, BuildingBlock: MUDLON_clean_sbu_0, # of connection points: 4
#     Node 21, Type 0, BuildingBlock: MUDLON_clean_sbu_0, # of connection points: 4
#     Node 22, Type 0, BuildingBlock: MUDLON_clean_sbu_0, # of connection points: 4
#     Node 23, Type 0, BuildingBlock: MUDLON_clean_sbu_0, # of connection points: 4
#     Edge 24, Type (0, 0), BuildingBlock: AJUNOK_clean_linker_0, # of connection points: 2
#     Edge 25, Type (0, 0), BuildingBlock: AJUNOK_clean_linker_0, # of connection points: 2
#     Edge 26, Type (0, 0), BuildingBlock: AJUNOK_clean_linker_0, # of connection points: 2
#     Edge 27, Type (0, 0), BuildingBlock: AJUNOK_clean_linker_0, # of connection points: 2
#     Edge 28, Type (0, 0), BuildingBlock: AJUNOK_clean_linker_0, # of connection points: 2
#     Edge 29, Type (0, 0), BuildingBlock: AJUNOK_clean_linker_0, # of connection points: 2
#     Edge 30, Type (0, 0), BuildingBlock: AJUNOK_clean_linker_0, # of connection points: 2
#     Edge 31, Type (0, 0), BuildingBlock: AJUNOK_clean_linker_0, # of connection points: 2
#     Edge 32, Type (0, 0), BuildingBlock: AJUNOK_clean_linker_0, # of connection points: 2
#     Edge 33, Type (0, 0), BuildingBlock: AJUNOK_clean_linker_0, # of connection points: 2
#     Edge 34, Type (0, 0), BuildingBlock: AJUNOK_clean_linker_0, # of connection points: 2
#     Edge 35, Type (0, 0), BuildingBlock: AJUNOK_clean_linker_0, # of connection points: 2
#     Edge 36, Type (0, 0), BuildingBlock: AJUNOK_clean_linker_0, # of connection points: 2
#     Edge 37, Type (0, 0), BuildingBlock: AJUNOK_clean_linker_0, # of connection points: 2
#     Edge 38, Type (0, 0), BuildingBlock: AJUNOK_clean_linker_0, # of connection points: 2
#     Edge 39, Type (0, 0), BuildingBlock: AJUNOK_clean_linker_0, # of connection points: 2
#     Edge 40, Type (0, 0), BuildingBlock: AJUNOK_clean_linker_0, # of connection points: 2
#     Edge 41, Type (0, 0), BuildingBlock: AJUNOK_clean_linker_0, # of connection points: 2
#     Edge 42, Type (0, 0), BuildingBlock: AJUNOK_clean_linker_0, # of connection points: 2
#     Edge 43, Type (0, 0), BuildingBlock: AJUNOK_clean_linker_0, # of connection points: 2
#     Edge 44, Type (0, 0), BuildingBlock: AJUNOK_clean_linker_0, # of connection points: 2
#     Edge 45, Type (0, 0), BuildingBlock: AJUNOK_clean_linker_0, # of connection points: 2
#     Edge 46, Type (0, 0), BuildingBlock: AJUNOK_clean_linker_0, # of connection points: 2
#     Edge 47, Type (0, 0), BuildingBlock: AJUNOK_clean_linker_0, # of connection points: 2
#     Edge 48, Type (0, 0), BuildingBlock: AJUNOK_clean_linker_0, # of connection points: 2
#     Edge 49, Type (0, 0), BuildingBlock: AJUNOK_clean_linker_0, # of connection points: 2
#     Edge 50, Type (0, 0), BuildingBlock: AJUNOK_clean_linker_0, # of connection points: 2
#     Edge 51, Type (0, 0), BuildingBlock: AJUNOK_clean_linker_0, # of connection points: 2
#     Edge 52, Type (0, 0), BuildingBlock: AJUNOK_clean_linker_0, # of connection points: 2
#     Edge 53, Type (0, 0), BuildingBlock: AJUNOK_clean_linker_0, # of connection points: 2
#     Edge 54, Type (0, 0), BuildingBlock: AJUNOK_clean_linker_0, # of connection points: 2
#     Edge 55, Type (0, 0), BuildingBlock: AJUNOK_clean_linker_0, # of connection points: 2
#     Edge 56, Type (0, 0), BuildingBlock: AJUNOK_clean_linker_0, # of connection points: 2
#     Edge 57, Type (0, 0), BuildingBlock: AJUNOK_clean_linker_0, # of connection points: 2
#     Edge 58, Type (0, 0), BuildingBlock: AJUNOK_clean_linker_0, # of connection points: 2
#     Edge 59, Type (0, 0), BuildingBlock: AJUNOK_clean_linker_0, # of connection points: 2
#     Edge 60, Type (0, 0), BuildingBlock: AJUNOK_clean_linker_0, # of connection points: 2
#     Edge 61, Type (0, 0), BuildingBlock: AJUNOK_clean_linker_0, # of connection points: 2
#     Edge 62, Type (0, 0), BuildingBlock: AJUNOK_clean_linker_0, # of connection points: 2
#     Edge 63, Type (0, 0), BuildingBlock: AJUNOK_clean_linker_0, # of connection points: 2
#     Edge 64, Type (0, 0), BuildingBlock: AJUNOK_clean_linker_0, # of connection points: 2
#     Edge 65, Type (0, 0), BuildingBlock: AJUNOK_clean_linker_0, # of connection points: 2
#     Edge 66, Type (0, 0), BuildingBlock: AJUNOK_clean_linker_0, # of connection points: 2
#     Edge 67, Type (0, 0), BuildingBlock: AJUNOK_clean_linker_0, # of connection points: 2
#     Edge 68, Type (0, 0), BuildingBlock: AJUNOK_clean_linker_0, # of connection points: 2
#     Edge 69, Type (0, 0), BuildingBlock: AJUNOK_clean_linker_0, # of connection points: 2
#     Edge 70, Type (0, 0), BuildingBlock: AJUNOK_clean_linker_0, # of connection points: 2
#     Edge 71, Type (0, 0), BuildingBlock: AJUNOK_clean_linker_0, # of connection points: 2
# Relax obj value: 0.018
# Max RMSD: 0.032
# Mean RMSD: 0.029
data_MOF--net-rhr--node1-MUDLON_clean_sbu_0--edge1-AJUNOK_clean_linker_0
_symmetry_space_group_name_H-M    P1
_symmetry_Int_Tables_number       1
_symmetry_cell_setting            triclinic
loop_
_symmetry_equiv_pos_as_xyz
'x, y, z'
_cell_length_a     38.627621
_cell_length_b     38.638478
_cell_length_c     38.735206
_cell_angle_alpha  89.633378
_cell_angle_beta   89.196643
_cell_angle_gamma 89.971546
loop_
_atom_site_label
_atom_site_type_symbol
_atom_site_fract_x
_atom_site_fract_y
_atom_site_fract_z
_atom_type_partial_charge
Mg0 Mg 0.38686 0.01963 0.35598 0.0
C1 C 0.43619 0.95902 0.36081 0.0
O2 O 0.40676 0.94224 0.36407 0.0
C3 C 0.34487 0.07501 0.38967 0.0
O4 O 0.32638 0.06663 0.36276 0.0
C5 C 0.39649 0.07504 0.29983 0.0
O6 O 0.38618 0.09542 0.32492 0.0
O7 O 0.39606 0.04242 0.30468 0.0
O8 O 0.43569 0.99197 0.36217 0.0
O9 O 0.34645 0.98068 0.36207 0.0
C10 C 0.31741 0.97867 0.34725 0.0
O11 O 0.30968 1.00147 0.32328 0.0
O12 O 0.3738 0.05975 0.39395 0.0
Mg13 Mg 0.02166 0.3727 0.38043 0.0
C14 C 0.9709 0.40257 0.33383 0.0
O15 O 0.9789 0.42765 0.35499 0.0
C16 C 0.05018 0.30347 0.40609 0.0
O17 O 0.0209 0.30382 0.42372 0.0
C18 C 0.0807 0.41295 0.35209 0.0
O19 O 0.0857 0.38138 0.34065 0.0
O20 O 0.05516 0.41817 0.37269 0.0
O21 O 0.98699 0.37391 0.33648 0.0
O22 O 0.98576 0.36661 0.42429 0.0
C23 C 0.95924 0.38386 0.43378 0.0
O24 O 0.95398 0.41502 0.42129 0.0
O25 O 0.05609 0.32766 0.38425 0.0
Mg26 Mg 0.71165 0.06667 0.3632 0.0
C27 C 0.68592 0.13181 0.31921 0.0
O28 O 0.71927 0.13548 0.31317 0.0
C29 C 0.77544 0.02538 0.39961 0.0
O30 O 0.79453 0.05256 0.39222 0.0
C31 C 0.67682 0.02856 0.29741 0.0
O32 O 0.67276 0.05977 0.28452 0.0
O33 O 0.69109 0.02475 0.32666 0.0
O34 O 0.6757 0.10718 0.33872 0.0
O35 O 0.73235 0.10701 0.40072 0.0
C36 C 0.76033 0.12375 0.39539 0.0
O37 O 0.77712 0.11966 0.36598 0.0
O38 O 0.74391 0.02471 0.39038 0.0
Mg39 Mg 0.97176 0.70961 0.32614 0.0
C40 C 1.01049 0.77408 0.36212 0.0
O41 O 0.98034 0.7897 0.36094 0.0
C42 C 0.93507 0.66982 0.26864 0.0
O43 O 0.95664 0.68946 0.25085 0.0
C44 C 0.91688 0.727 0.38493 0.0
O45 O 0.9258 0.69594 0.39554 0.0
O46 O 0.92978 0.73854 0.35671 0.0
O47 O 1.01364 0.74351 0.35036 0.0
O48 O 1.01358 0.67972 0.29686 0.0
C49 C 0.03269 0.69361 0.2737 0.0
O50 O 0.02934 0.72682 0.26706 0.0
O51 O 0.93224 0.67426 0.30111 0.0
Mg52 Mg 0.31902 0.99156 0.70266 0.0
C53 C 0.37047 0.02621 0.75517 0.0
O54 O 0.39235 1.00551 0.73924 0.0
C55 C 0.27131 0.94316 0.65788 0.0
O56 O 0.25331 0.94116 0.68685 0.0
C57 C 0.34277 0.92429 0.74501 0.0
O58 O 0.31084 0.92461 0.75711 0.0
O59 O 0.35184 0.94674 0.72255 0.0
O60 O 0.33879 0.02579 0.74653 0.0
O61 O 0.28951 0.03765 0.68033 0.0
C62 C 0.25776 0.03783 0.67203 0.0
O63 O 0.23824 1.01095 0.67936 0.0
O64 O 0.3 0.95931 0.65745 0.0
Mg65 Mg 0.0705 0.38153 0.68423 0.0
C66 C 0.03072 0.3382 0.64262 0.0
O67 O 0.03657 0.3236 0.67272 0.0
C68 C 0.09679 0.44509 0.72088 0.0
O69 O 0.06712 0.44081 0.73725 0.0
C70 C 0.13128 0.34322 0.66231 0.0
O71 O 0.13542 0.37457 0.64959 0.0
O72 O 0.10634 0.33808 0.68365 0.0
O73 O 0.04351 0.36822 0.63689 0.0
O74 O 0.02697 0.38493 0.72048 0.0
C75 C 1.00262 0.40399 0.70908 0.0
O76 O 1.00578 0.41673 0.67766 0.0
O77 O 0.10345 0.42652 0.69446 0.0
Mg78 Mg 0.6775 0.05833 0.69809 0.0
C79 C 0.64356 0.03216 0.7653 0.0
O80 O 0.62474 0.06005 0.7606 0.0
C81 C 0.71772 0.11648 0.66875 0.0
O82 O 0.6906 0.11364 0.64885 0.0
C83 C 0.6295 0.11785 0.70711 0.0
O84 O 0.65825 0.12884 0.72102 0.0
O85 O 0.62967 0.08824 0.69276 0.0
O86 O 0.66958 0.02706 0.74532 0.0
O87 O 0.69034 0.02176 0.65673 0.0
C88 C 0.69888 0.99064 0.6638 0.0
O89 O 0.69526 0.97956 0.69577 0.0
O90 O 0.72018 0.0959 0.69451 0.0
Mg91 Mg 0.04476 0.69523 0.68173 0.0
C92 C 0.11474 0.67573 0.71715 0.0
O93 O 0.11352 0.70906 0.72352 0.0
C94 C 0.98348 0.75201 0.67497 0.0
O95 O 0.98636 0.75443 0.70862 0.0
C96 C 1.0138 0.65639 0.75111 0.0
O97 O 0.04634 0.65265 0.7597 0.0
O98 O 1.00661 0.67295 0.72345 0.0
O99 O 0.08939 0.6618 0.70184 0.0
O100 O 0.08064 0.71336 0.63762 0.0
C101 C 0.10243 0.73798 0.63845 0.0
O102 O 0.10539 0.75594 0.66692 0.0
O103 O 1.00197 0.73001 0.65873 0.0
Mg104 Mg 0.34973 0.37926 0.02518 0.0
C105 C 0.376 0.3326 0.97332 0.0
O106 O 0.39304 0.36184 0.96977 0.0
C107 C 0.28568 0.4148 0.05491 0.0
O108 O 0.29026 0.43321 0.0266 0.0
C109 C 0.39271 0.36522 0.08736 0.0
O110 O 0.36115 0.36277 0.10022 0.0
O111 O 0.39651 0.37607 0.05635 0.0
O112 O 0.35282 0.33047 0.99705 0.0
O113 O 0.34485 0.41496 0.98166 0.0
C114 C 0.36193 0.43885 0.96649 0.0
O115 O 0.39126 0.44973 0.97928 0.0
O116 O 0.30531 0.38876 0.05999 0.0
Mg117 Mg 0.7317 0.29317 0.98461 0.0
C118 C 0.67946 0.29134 0.04348 0.0
O119 O 0.68331 0.32425 0.03556 0.0
C120 C 0.75004 0.34388 0.9255 0.0
O121 O 0.71648 0.34836 0.92927 0.0
C122 C 0.66475 0.27002 0.94779 0.0
O123 O 0.65296 0.29222 0.97063 0.0
O124 O 0.69737 0.26573 0.94487 0.0
O125 O 0.69787 0.26939 0.02726 0.0
O126 O 0.76483 0.32016 0.02502 0.0
C127 C 0.77065 0.35252 0.02277 0.0
O128 O 0.75633 0.37036 0.9978 0.0
O129 O 0.76465 0.32021 0.94294 0.0
Mg130 Mg 0.69859 0.68592 1.00724 0.0
C131 C 0.7126 0.62197 0.05892 0.0
O132 O 0.6802 0.61381 0.05314 0.0
C133 C 0.64659 0.71985 0.95282 0.0
O134 O 0.63227 0.68901 0.95323 0.0
C135 C 0.70585 0.62988 0.94637 0.0
O136 O 0.67591 0.61876 0.95851 0.0
O137 O 0.7201 0.65565 0.96068 0.0
O138 O 0.7257 0.6484 0.04393 0.0
O139 O 0.68112 0.71925 0.05325 0.0
C140 C 0.66519 0.71074 0.08102 0.0
O141 O 0.65546 0.67848 0.08568 0.0
O142 O 0.67312 0.72515 0.97112 0.0
Mg143 Mg 0.34993 0.73629 0.05369 0.0
C144 C 0.31356 0.68931 1.00765 0.0
O145 O 0.28908 0.70731 0.02309 0.0
C146 C 0.39882 0.77183 0.09675 0.0
O147 O 0.37262 0.79307 0.09256 0.0
C148 C 0.31691 0.69844 0.11092 0.0
O149 O 0.34918 0.68766 0.11045 0.0
O150 O 0.30872 0.72329 0.09075 0.0
O151 O 0.34496 0.69525 0.01558 0.0
O152 O 0.35299 0.78403 0.02263 0.0
C153 C 0.38353 0.7855 1.00967 0.0
O154 O 0.40449 0.75925 0.01493 0.0
O155 O 0.39689 0.74156 0.08398 0.0
Mg156 Mg 0.86023 0.51774 0.83594 0.0
C157 C 0.90252 0.46947 0.80064 0.0
O158 O 0.91049 0.46973 0.83349 0.0
C159 C 0.78638 0.5434 0.85263 0.0
O160 O 0.7801 0.5102 0.85621 0.0
C161 C 0.90174 0.57578 0.81481 0.0
O162 O 0.87306 0.57589 0.79695 0.0
O163 O 0.90468 0.55303 0.8387 0.0
O164 O 0.8784 0.48957 0.79051 0.0
O165 O 0.84673 0.47445 0.8709 0.0
C166 C 0.82824 0.45262 0.85477 0.0
O167 O 0.82294 0.45794 0.82174 0.0
O168 O 0.81546 0.55289 0.83984 0.0
Mg169 Mg 0.51488 0.87757 0.86575 0.0
C170 C 0.57514 0.91828 0.83764 0.0
O171 O 0.58183 0.88692 0.82648 0.0
C172 C 0.45105 0.88078 0.91541 0.0
O173 O 0.43515 0.89476 0.88903 0.0
C174 C 0.45234 0.85798 0.82165 0.0
O175 O 0.44726 0.83418 0.84556 0.0
O176 O 0.47939 0.87667 0.82278 0.0
O177 O 0.54828 0.92283 0.85662 0.0
O178 O 0.54762 0.83193 0.87093 0.0
C179 C 0.57244 0.83569 0.89184 0.0
O180 O 0.57669 0.86607 0.90622 0.0
O181 O 0.48365 0.87574 0.91334 0.0
Mg182 Mg 0.24769 0.56554 0.8336 0.0
C183 C 0.23381 0.59659 0.76447 0.0
O184 O 0.23988 0.56487 0.75417 0.0
C185 C 0.28454 0.50656 0.86003 0.0
O186 O 0.25168 0.5013 0.86751 0.0
C187 C 0.20756 0.51005 0.79828 0.0
O188 O 0.2396 0.50193 0.78982 0.0
O189 O 0.20257 0.53407 0.82023 0.0
O190 O 0.24443 0.60556 0.79404 0.0
O191 O 0.24817 0.59333 0.88248 0.0
C192 C 0.27826 0.6053 0.88855 0.0
O193 O 0.30283 0.60048 0.86527 0.0
O194 O 0.29265 0.53237 0.84103 0.0
Mg195 Mg 0.48708 0.18678 0.84657 0.0
C196 C 0.42915 0.1377 0.83523 0.0
O197 O 0.41413 0.16797 0.83153 0.0
C198 C 0.56164 0.19356 0.87013 0.0
O199 O 0.56758 0.18617 0.83756 0.0
C200 C 0.50614 0.17137 0.77184 0.0
O201 O 0.48019 0.14964 0.7753 0.0
O202 O 0.51089 0.19356 0.79548 0.0
O203 O 0.4606 0.13693 0.84468 0.0
O204 O 0.4509 0.2265 0.86436 0.0
C205 C 0.43416 0.22001 0.89226 0.0
O206 O 0.43798 0.18946 0.90681 0.0
O207 O 0.53062 0.19202 0.88177 0.0
Mg208 Mg 0.84618 0.48814 0.17602 0.0
C209 C 0.86965 0.54771 0.21103 0.0
O210 O 0.84192 0.53582 0.22717 0.0
C211 C 0.83385 0.42758 0.13428 0.0
O212 O 0.8195 0.42038 0.16444 0.0
C213 C 0.88057 0.4375 0.22059 0.0
O214 O 0.89564 0.43309 0.19032 0.0
O215 O 0.85448 0.45762 0.22259 0.0
O216 O 0.88074 0.5314 0.1846 0.0
O217 O 0.7983 0.51534 0.16422 0.0
C218 C 0.80559 0.53523 0.13874 0.0
O219 O 0.83746 0.53506 0.1264 0.0
O220 O 0.85152 0.45523 0.13117 0.0
Mg221 Mg 0.56806 0.85569 0.21593 0.0
C222 C 0.51607 0.8174 0.17777 0.0
O223 O 0.53097 0.79417 0.19753 0.0
C224 C 0.62216 0.90339 0.23567 0.0
O225 O 0.62742 0.87501 0.25375 0.0
C226 C 0.61803 0.81806 0.17523 0.0
O227 O 0.61515 0.84893 0.16115 0.0
O228 O 0.60179 0.81214 0.20349 0.0
O229 O 0.52638 0.84868 0.17943 0.0
O230 O 0.543 0.86256 0.26649 0.0
C231 C 0.53351 0.89407 0.26926 0.0
O232 O 0.53803 0.91484 0.24263 0.0
O233 O 0.59919 0.90273 0.21245 0.0
Mg234 Mg 0.18122 0.54359 0.20332 0.0
C235 C 0.2185 0.5994 0.16889 0.0
O236 O 0.19098 0.59295 0.15044 0.0
C237 C 0.15285 0.52123 0.27422 0.0
O238 O 0.13874 0.55206 0.27219 0.0
C239 C 0.208 0.48134 0.16602 0.0
O240 O 0.21833 0.47571 0.19773 0.0
O241 O 0.18916 0.50781 0.16024 0.0
O242 O 0.22379 0.58067 0.19559 0.0
O243 O 0.13502 0.57627 0.20237 0.0
C244 C 0.13925 0.60613 0.21546 0.0
O245 O 0.16987 0.61452 0.22704 0.0
O246 O 0.17472 0.51234 0.25088 0.0
Mg247 Mg 0.52468 0.21564 0.18819 0.0
C248 C 0.57631 0.24633 0.14503 0.0
O249 O 0.5705 0.26668 0.17155 0.0
C250 C 0.49221 0.14627 0.20842 0.0
O251 O 0.52459 0.13834 0.21477 0.0
C252 C 0.48902 0.26998 0.149 0.0
O253 O 0.49888 0.24706 0.12599 0.0
O254 O 0.49522 0.26398 0.18078 0.0
O255 O 0.56008 0.21768 0.14378 0.0
O256 O 0.55864 0.20966 0.23304 0.0
C257 C 0.58824 0.19624 0.22673 0.0
O258 O 0.59671 0.18871 0.19474 0.0
O259 O 0.48566 0.17502 0.19369 0.0
Mg260 Mg 0.84367 0.86701 0.54229 0.0
C261 C 0.79644 0.91394 0.57877 0.0
O262 O 0.82213 0.93342 0.56759 0.0
C263 C 0.86366 0.82664 0.483 0.0
O264 O 0.88303 0.85457 0.48257 0.0
C265 C 0.81997 0.91099 0.48729 0.0
O266 O 0.79778 0.88542 0.49107 0.0
O267 O 0.84664 0.91093 0.50631 0.0
O268 O 0.79814 0.88134 0.57391 0.0
O269 O 0.88821 0.85347 0.57421 0.0
C270 C 0.88236 0.83725 0.60246 0.0
O271 O 0.85017 0.83383 0.61334 0.0
O272 O 0.8412 0.82303 0.50719 0.0
Mg273 Mg 0.18209 0.85582 0.47586 0.0
C274 C 0.13345 0.83443 0.42293 0.0
O275 O 0.16362 0.82218 0.4127 0.0
C276 C 0.2199 0.89122 0.52756 0.0
O277 O 0.24217 0.87246 0.5098 0.0
C278 C 0.16142 0.78828 0.50932 0.0
O279 O 0.13762 0.78945 0.48551 0.0
O280 O 0.18694 0.80899 0.50698 0.0
O281 O 0.13241 0.85294 0.45 0.0
O282 O 0.22226 0.86934 0.43794 0.0
C283 C 0.21389 0.89261 0.41616 0.0
O284 O 0.18193 0.90423 0.41674 0.0
O285 O 0.18863 0.89235 0.51756 0.0
Mg286 Mg 0.20384 0.18989 0.5173 0.0
C287 C 0.17884 0.23258 0.57324 0.0
O288 O 0.15795 0.20584 0.57135 0.0
C289 C 0.27364 0.16104 0.4911 0.0
O290 O 0.27693 0.15291 0.52383 0.0
C291 C 0.16307 0.22065 0.46056 0.0
O292 O 0.19483 0.23089 0.45354 0.0
O293 O 0.15822 0.20014 0.48608 0.0
O294 O 0.20407 0.23452 0.55169 0.0
O295 O 0.20128 0.1459 0.55286 0.0
C296 C 0.22017 0.14977 0.57927 0.0
O297 O 0.23742 0.17885 0.58232 0.0
O298 O 0.24757 0.17903 0.482 0.0
Mg299 Mg 0.85372 0.2506 0.55456 0.0
C300 C 0.81307 0.20734 0.50803 0.0
O301 O 0.78998 0.22083 0.52923 0.0
C302 C 0.92845 0.26989 0.55784 0.0
O303 O 0.92137 0.27987 0.52628 0.0
C304 C 0.82469 0.20778 0.61306 0.0
O305 O 0.85587 0.19461 0.60939 0.0
O306 O 0.81684 0.23432 0.59503 0.0
O307 O 0.84486 0.21472 0.5123 0.0
O308 O 0.85098 0.30317 0.53358 0.0
C309 C 0.84796 0.30611 0.50106 0.0
O310 O 0.8319 0.28139 0.48459 0.0
O311 O 0.906 0.25212 0.57462 0.0
C312 C 0.28467 0.14171 0.43023 0.0
C313 C 0.2958 0.14355 0.46461 0.0
C314 C 0.30159 0.12051 0.40605 0.0
C315 C 0.33062 0.1004 0.41498 0.0
H316 H 0.26169 0.1555 0.42219 0.0
H317 H 0.2911 0.11919 0.3803 0.0
S318 S 0.37292 0.09921 0.50042 0.0
N319 N 0.33976 0.12577 0.50552 0.0
N320 N 0.37162 0.08614 0.45996 0.0
C321 C 0.34338 0.10362 0.44865 0.0
C322 C 0.32596 0.12509 0.47345 0.0
C323 C 0.91072 0.37922 0.47786 0.0
C324 C 0.93022 0.36482 0.45057 0.0
C325 C 0.88342 0.36054 0.49377 0.0
C326 C 0.8739 0.3275 0.48195 0.0
H327 H 0.9172 0.40461 0.48753 0.0
H328 H 0.86983 0.37188 0.51558 0.0
S329 S 0.91627 0.27912 0.41028 0.0
N330 N 0.93777 0.31593 0.41202 0.0
N331 N 0.8863 0.28148 0.44093 0.0
C332 C 0.89272 0.3134 0.45399 0.0
C333 C 0.92091 0.33189 0.43856 0.0
C334 C 0.78206 0.93725 0.44264 0.0
C335 C 0.81171 0.93989 0.46323 0.0
C336 C 0.77119 0.96469 0.42171 0.0
C337 C 0.78953 0.99607 0.42016 0.0
H338 H 0.7665 0.91394 0.44304 0.0
H339 H 0.74785 0.96128 0.40691 0.0
S340 S 0.86984 0.01611 0.4678 0.0
N341 N 0.86 0.97621 0.4799 0.0
N342 N 0.83969 0.0279 0.44029 0.0
C343 C 0.81992 0.99885 0.43976 0.0
C344 C 0.83094 0.97077 0.46132 0.0
C345 C 0.10393 0.79552 0.38145 0.0
C346 C 0.1014 0.82199 0.40621 0.0
C347 C 0.07444 0.78057 0.36724 0.0
C348 C 0.04103 0.7917 0.37676 0.0
H349 H 0.12895 0.78549 0.37342 0.0
H350 H 0.07795 0.75995 0.34868 0.0
S351 S 0.01979 0.86113 0.43941 0.0
N352 N 0.06252 0.85939 0.43896 0.0
N353 N 1.00695 0.83155 0.4118 0.0
C354 C 0.03795 0.81884 0.40072 0.0
C355 C 0.06812 0.83388 0.41555 0.0
C356 C 0.26677 0.91306 0.56507 0.0
C357 C 0.23123 0.90705 0.56025 0.0
C358 C 0.27934 0.92461 0.59669 0.0
C359 C 0.25699 0.93015 0.62506 0.0
H360 H 0.28522 0.90856 0.54426 0.0
H361 H 0.30694 0.92878 0.59897 0.0
S362 S 0.16144 0.91912 0.6258 0.0
N363 N 0.17364 0.90827 0.5863 0.0
N364 N 0.19724 0.92976 0.64599 0.0
C365 C 0.22126 0.92463 0.62057 0.0
C366 C 0.20838 0.91324 0.58809 0.0
C367 C 0.13356 0.28069 0.64614 0.0
C368 C 0.14866 0.31375 0.6447 0.0
C369 C 0.14462 0.25437 0.62385 0.0
C370 C 0.17135 0.25986 0.59923 0.0
H371 H 0.1117 0.27555 0.66323 0.0
H372 H 0.1311 0.22983 0.62522 0.0
S373 S 0.22305 0.34019 0.58865 0.0
N374 N 0.19452 0.34937 0.6194 0.0
N375 N 0.21522 0.29981 0.5775 0.0
C376 C 0.18838 0.29199 0.59922 0.0
C377 C 0.17707 0.31891 0.62194 0.0
C378 C 0.76244 0.19226 0.62382 0.0
C379 C 0.79747 0.18788 0.63228 0.0
C380 C 0.73683 0.16983 0.63695 0.0
C381 C 0.74498 0.14229 0.65947 0.0
H382 H 0.75484 0.21209 0.60555 0.0
H383 H 0.71046 0.17362 0.62853 0.0
S384 S 0.83222 0.12199 0.69292 0.0
N385 N 0.83858 0.15553 0.66696 0.0
N386 N 0.79031 0.1137 0.69188 0.0
C387 C 0.77955 0.13888 0.66986 0.0
C388 C 0.80579 0.16154 0.65617 0.0
C389 C 0.93012 0.78911 0.67342 0.0
C390 C 0.95908 0.77502 0.65609 0.0
C391 C 0.90607 0.80997 0.65606 0.0
C392 C 0.91033 0.81835 0.6208 0.0
H393 H 0.92546 0.78328 0.70048 0.0
H394 H 0.8837 0.81934 0.67036 0.0
S395 S 0.98287 0.78974 0.5639 0.0
N396 N 0.9913 0.77199 0.60176 0.0
N397 N 0.94654 0.81169 0.5694 0.0
C398 C 0.93979 0.80538 0.60339 0.0
C399 C 0.96397 0.78357 0.62092 0.0
C400 C 0.41585 0.33452 0.13957 0.0
C401 C 0.42161 0.34784 0.1059 0.0
C402 C 0.43926 0.31137 0.15494 0.0
C403 C 0.46915 0.30051 0.13707 0.0
H404 H 0.3921 0.34046 0.15352 0.0
H405 H 0.43266 0.3001 0.17985 0.0
S406 S 0.49988 0.33229 0.0514 0.0
N407 N 0.46235 0.35195 0.05751 0.0
N408 N 0.5059 0.30831 0.08623 0.0
C409 C 0.47675 0.31582 0.10479 0.0
C410 C 0.45315 0.33958 0.08926 0.0
C411 C 0.81062 0.37336 0.10899 0.0
C412 C 0.8237 0.40704 0.1039 0.0
C413 C 0.79489 0.35529 0.08218 0.0
C414 C 0.79116 0.3704 0.04933 0.0
H415 H 0.81147 0.36124 0.13426 0.0
H416 H 0.78422 0.3299 0.08775 0.0
S417 S 0.82409 0.4566 0.0215 0.0
N418 N 0.83433 0.45372 0.06266 0.0
N419 N 0.80454 0.41988 1.01229 0.0
C420 C 0.80569 0.40337 0.04335 0.0
C421 C 0.82209 0.42163 0.0706 0.0
C422 C 0.63381 0.72981 0.1351 0.0
C423 C 0.65648 0.73756 0.10725 0.0
C424 C 0.62301 0.75549 0.15848 0.0
C425 C 0.63445 0.78991 0.15486 0.0
H426 H 0.62336 0.70396 0.13828 0.0
H427 H 0.6043 0.74865 0.17847 0.0
S428 S 0.69752 0.82294 0.08939 0.0
N429 N 0.6926 0.78173 0.07971 0.0
N430 N 0.6723 0.82965 0.12343 0.0
C431 C 0.65856 0.79757 0.12835 0.0
C432 C 0.66956 0.77153 0.10461 0.0
C433 C 0.27738 0.62709 0.16698 0.0
C434 C 0.24229 0.6278 0.15797 0.0
C435 C 0.30094 0.6513 0.15303 0.0
C436 C 0.29033 0.67743 0.1298 0.0
H437 H 0.28705 0.60677 0.18366 0.0
H438 H 0.32797 0.64869 0.15965 0.0
S439 S 0.20019 0.69341 0.10184 0.0
N440 N 0.19732 0.65901 0.1272 0.0
N441 N 0.24149 0.70434 0.10117 0.0
C442 C 0.25487 0.67976 0.12241 0.0
C443 C 0.23093 0.65497 0.1364 0.0
C444 C 0.43244 0.82404 0.99344 0.0
C445 C 0.39718 0.81576 0.99017 0.0
C446 C 0.4489 0.84734 0.97083 0.0
C447 C 0.43092 0.86321 0.94362 0.0
H448 H 0.44794 0.81119 1.01281 0.0
H449 H 0.47646 0.85142 0.97364 0.0
S450 S 0.33686 0.85357 0.92677 0.0
N451 N 0.34378 0.82782 0.96018 0.0
N452 N 0.37457 0.87164 0.91717 0.0
C453 C 0.39488 0.85721 0.94174 0.0
C454 C 0.37804 0.83348 0.96513 0.0
C455 C 0.35465 0.48878 0.92495 0.0
C456 C 0.34747 0.45427 0.93454 0.0
C457 C 0.33639 0.5051 0.89812 0.0
C458 C 0.31053 0.48731 0.88011 0.0
H459 H 0.37287 0.50391 0.93957 0.0
H460 H 0.34072 0.53241 0.89326 0.0
S461 S 0.28679 0.39495 0.89059 0.0
N462 N 0.31641 0.40154 0.92013 0.0
N463 N 0.28199 0.43242 0.87051 0.0
C464 C 0.30527 0.45215 0.88754 0.0
C465 C 0.32378 0.43555 0.91455 0.0
C466 C 0.58056 0.22721 0.92166 0.0
C467 C 0.58936 0.20972 0.89101 0.0
C468 C 0.60517 0.24642 0.93963 0.0
C469 C 0.63983 0.24877 0.92803 0.0
H470 H 0.55415 0.22697 0.93146 0.0
H471 H 0.59676 0.25968 0.96284 0.0
S472 S 0.67699 0.20638 0.85021 0.0
N473 N 0.63579 0.195 0.8505 0.0
N474 N 0.68203 0.23084 0.88457 0.0
C475 C 0.64936 0.23057 0.89804 0.0
C476 C 0.62416 0.21115 0.87949 0.0
C477 C 0.71282 0.57751 0.90892 0.0
C478 C 0.72438 0.6106 0.91844 0.0
C479 C 0.73195 0.55694 0.88581 0.0
C480 C 0.76344 0.56854 0.871 0.0
H481 H 0.6895 0.56669 0.92046 0.0
H482 H 0.72258 0.53108 0.88066 0.0
S483 S 0.80267 0.65526 0.88353 0.0
N484 N 0.76758 0.65552 0.90835 0.0
N485 N 0.80342 0.61695 0.86492 0.0
C486 C 0.7741 0.60254 0.87845 0.0
C487 C 0.75467 0.62346 0.90218 0.0
C488 C 0.12985 0.43401 0.31454 0.0
C489 C 0.10203 0.4418 0.3372 0.0
C490 C 0.1475 0.45998 0.29589 0.0
C491 C 0.13819 0.49504 0.29897 0.0
H492 H 0.13739 0.40739 0.31008 0.0
H493 H 0.16762 0.45221 0.27777 0.0
S494 S 0.07021 0.52994 0.3582 0.0
N495 N 0.06826 0.48763 0.3641 0.0
N496 N 0.10141 0.53648 0.32934 0.0
C497 C 0.1119 0.50347 0.32324 0.0
C498 C 0.09387 0.47691 0.34226 0.0
C499 C 0.20186 0.65235 0.75583 0.0
C500 C 0.20548 0.61694 0.74847 0.0
C501 C 0.17271 0.6711 0.74523 0.0
C502 C 0.14565 0.65514 0.72719 0.0
H503 H 0.22144 0.66561 0.77051 0.0
H504 H 0.1712 0.69825 0.75185 0.0
S505 S 0.14237 0.56278 0.70131 0.0
N506 N 0.17951 0.56661 0.72146 0.0
N507 N 0.12472 0.60167 0.70199 0.0
C508 C 0.14916 0.6198 0.71917 0.0
C509 C 0.17905 0.60078 0.72963 0.0
C510 C 0.41878 0.05208 0.7891 0.0
C511 C 0.38351 0.05211 0.78018 0.0
C512 C 0.43295 0.07864 0.80902 0.0
C513 C 0.41249 0.10646 0.82068 0.0
H514 H 0.436 0.03205 0.77962 0.0
H515 H 0.46053 0.07823 0.81368 0.0
S516 S 0.31779 0.11649 0.80872 0.0
N517 N 0.32774 0.08065 0.78785 0.0
N518 N 0.35441 0.1305 0.82506 0.0
C519 C 0.37678 0.10568 0.81388 0.0
C520 C 0.3623 0.07855 0.79372 0.0
C521 C 0.92647 0.45777 0.74135 0.0
C522 C 0.92403 0.44868 0.77643 0.0
C523 C 0.95092 0.44193 0.71946 0.0
C524 C 0.97389 0.41636 0.73178 0.0
H525 H 0.91056 0.47838 0.73104 0.0
H526 H 0.95265 0.45088 0.69295 0.0
S527 S 0.97414 0.37949 0.82043 0.0
N528 N 0.94377 0.40954 0.82163 0.0
N529 N 0.98975 0.38008 0.78055 0.0
C530 C 0.97011 0.40546 0.76628 0.0
C531 C 0.9452 0.42155 0.78857 0.0
C532 C 0.59886 1.00918 0.80723 0.0
C533 C 0.63021 1.00421 0.78876 0.0
C534 C 0.58215 0.98175 0.82465 0.0
C535 C 0.59599 0.94807 0.82425 0.0
H536 H 0.58617 0.03419 0.80707 0.0
H537 H 0.55735 0.9867 0.83705 0.0
S538 S 0.68013 0.92212 0.78452 0.0
N539 N 0.6764 0.9636 0.77479 0.0
N540 N 0.64506 0.91216 0.8073 0.0
C541 C 0.62849 0.9432 0.80795 0.0
C542 C 0.64559 0.97119 0.79033 0.0
C543 C 0.89063 0.62293 0.26957 0.0
C544 C 0.91776 0.64008 0.25209 0.0
C545 C 0.87536 0.59332 0.25585 0.0
C546 C 0.8867 0.57934 0.22412 0.0
H547 H 0.88118 0.63228 0.29428 0.0
H548 H 0.85466 0.58113 0.27062 0.0
S549 S 0.95708 0.61437 0.16791 0.0
N550 N 0.95545 0.64096 0.20109 0.0
N551 N 0.92668 0.58515 0.17539 0.0
C552 C 0.91369 0.59631 0.20616 0.0
C553 C 0.92918 0.62672 0.22006 0.0
C554 C 0.46472 0.90496 0.33865 0.0
C555 C 0.46677 0.94076 0.34563 0.0
C556 C 0.48853 0.88871 0.31622 0.0
C557 C 0.51509 0.90777 0.29997 0.0
H558 H 0.44321 0.88977 0.34863 0.0
H559 H 0.4844 0.86188 0.30949 0.0
S560 S 0.53666 0.99997 0.315 0.0
N561 N 0.5014 0.99311 0.33865 0.0
N562 N 0.54567 0.96262 0.29646 0.0
C563 C 0.5196 0.94255 0.30943 0.0
C564 C 0.49561 0.95904 0.33236 0.0
C565 C 0.67169 0.17141 0.27005 0.0
C566 C 0.66044 0.15265 0.29939 0.0
C567 C 0.64802 0.18718 0.24783 0.0
C568 C 0.61215 0.18555 0.25434 0.0
H569 H 0.69893 0.17257 0.26313 0.0
H570 H 0.65787 0.19979 0.22463 0.0
S571 S 0.56907 0.14256 0.32914 0.0
N572 N 0.61076 0.1354 0.33494 0.0
N573 N 0.56644 0.16568 0.29326 0.0
C574 C 0.60051 0.16879 0.2846 0.0
C575 C 0.62461 0.15216 0.30706 0.0
C576 C 0.72818 0.93489 0.64706 0.0
C577 C 0.71858 0.96914 0.63837 0.0
C578 C 0.75172 0.91597 0.6265 0.0
C579 C 0.76683 0.93077 0.59673 0.0
H580 H 0.71857 0.92302 0.67072 0.0
H581 H 0.75961 0.89045 0.63505 0.0
S582 S 0.7469 0.01716 0.55952 0.0
N583 N 0.72335 0.01521 0.59537 0.0
N584 N 0.76771 0.97991 0.55727 0.0
C585 C 0.7558 0.96396 0.58649 0.0
C586 C 0.73161 0.98306 0.60712 0.0
C587 C 0.12778 0.74466 0.54353 0.0
C588 C 0.15267 0.7712 0.54275 0.0
C589 C 0.11291 0.7331 0.57472 0.0
C590 C 0.12196 0.74788 0.60649 0.0
H591 H 0.11858 0.73368 0.51968 0.0
H592 H 0.09301 0.71341 0.57361 0.0
S593 S 0.18843 0.81599 0.619 0.0
N594 N 0.18783 0.81015 0.57684 0.0
N595 N 0.15973 0.78859 0.63542 0.0
C596 C 0.14828 0.77313 0.6063 0.0
C597 C 0.16372 0.78469 0.57447 0.0
C598 C 0.25117 0.12611 0.63019 0.0
C599 C 0.22612 0.12143 0.60453 0.0
C600 C 0.2603 0.09925 0.65261 0.0
C601 C 0.24443 0.06667 0.65074 0.0
H602 H 0.26477 0.15047 0.6325 0.0
H603 H 0.28044 0.10392 0.67121 0.0
S604 S 0.17586 0.04114 0.58972 0.0
N605 N 0.18448 0.08186 0.57958 0.0
N606 N 0.20143 0.03133 0.62216 0.0
C607 C 0.2183 0.06186 0.62624 0.0
C608 C 0.20922 0.08922 0.60302 0.0
C609 C 0.96705 0.2723 0.60884 0.0
C610 C 0.95824 0.28523 0.57619 0.0
C611 C 0.99126 0.2892 0.62926 0.0
C612 C 1.00764 0.32005 0.6182 0.0
H613 H 0.95443 0.2494 0.61925 0.0
H614 H 0.99629 0.27827 0.65452 0.0
S615 S 0.99609 0.36318 0.53331 0.0
N616 N 0.96976 0.32956 0.53242 0.0
N617 N 0.01508 0.36151 0.57123 0.0
C618 C 1.00029 0.33255 0.58495 0.0
C619 C 0.97571 0.31507 0.56385 0.0
C620 C 0.75422 0.15315 0.45244 0.0
C621 C 0.77482 0.14548 0.42325 0.0
C622 C 0.76709 0.17279 0.47964 0.0
C623 C 0.80127 0.18548 0.47908 0.0
H624 H 0.72774 0.14403 0.45437 0.0
H625 H 0.74996 0.17798 0.50137 0.0
S626 S 0.86628 0.1725 0.40891 0.0
N627 N 0.83148 0.152 0.39556 0.0
N628 N 0.85564 0.18889 0.44687 0.0
C629 C 0.82235 0.17786 0.45022 0.0
C630 C 0.80914 0.15797 0.42227 0.0
C631 C 0.89634 0.78635 0.40031 0.0
C632 C 0.89725 0.75074 0.40817 0.0
C633 C 0.88349 0.81037 0.42412 0.0
C634 C 0.87041 0.79988 0.45658 0.0
H635 H 0.9072 0.79612 0.37624 0.0
H636 H 0.88496 0.83762 0.41744 0.0
S637 S 0.8626 0.70957 0.48845 0.0
N638 N 0.88081 0.70592 0.44979 0.0
N639 N 0.8562 0.7514 0.49435 0.0
C640 C 0.86874 0.7643 0.46396 0.0
C641 C 0.8823 0.73967 0.43981 0.0
C642 C 0.30045 0.92974 0.38686 0.0
C643 C 0.2913 0.95333 0.36055 0.0
C644 C 0.27561 0.9087 0.40338 0.0
C645 C 0.24051 0.91045 0.39443 0.0
H646 H 0.32688 0.92827 0.39573 0.0
H647 H 0.28382 0.89218 0.42443 0.0
S648 S 0.20354 0.96405 0.32403 0.0
N649 N 0.24501 0.97433 0.32394 0.0
N650 N 0.1984 0.93489 0.355 0.0
C651 C 0.23129 0.93228 0.36676 0.0
C652 C 0.25664 0.95364 0.34981 0.0
C653 C 0.09997 0.23608 0.45759 0.0
C654 C 0.13341 0.23739 0.44276 0.0
C655 C 0.07283 0.25621 0.44443 0.0
C656 C 0.07791 0.2785 0.41581 0.0
H657 H 0.095 0.22063 0.48057 0.0
H658 H 0.04804 0.25525 0.45779 0.0
S659 S 0.15926 0.28749 0.36432 0.0
N660 N 0.16906 0.25992 0.39542 0.0
N661 N 0.1182 0.29768 0.37081 0.0
C662 C 0.11064 0.27832 0.39936 0.0
C663 C 0.1383 0.25782 0.41278 0.0
C664 C 0.59852 0.7441 0.9168 0.0
C665 C 0.63016 0.74905 0.9338 0.0
C666 C 0.58074 0.77196 0.90169 0.0
C667 C 0.5938 0.80589 0.90319 0.0
H668 H 0.58676 0.71869 0.91601 0.0
H669 H 0.55588 0.76704 0.89008 0.0
S670 S 0.67763 0.83237 0.94053 0.0
N671 N 0.67532 0.79035 0.9481 0.0
N672 N 0.64183 0.84242 0.92 0.0
C673 C 0.6262 0.81096 0.91848 0.0
C674 C 0.64439 0.78264 0.93368 0.0
C675 C 0.32962 0.65508 0.95505 0.0
C676 C 0.3044 0.66525 0.97939 0.0
C677 C 0.32081 0.63533 0.92623 0.0
C678 C 0.28641 0.62467 0.92054 0.0
H679 H 0.35627 0.66328 0.95766 0.0
H680 H 0.34127 0.62882 0.908 0.0
S681 S 0.2111 0.64161 0.9785 0.0
N682 N 0.24381 0.6611 0.99727 0.0
N683 N 0.22738 0.62398 0.94312 0.0
C684 C 0.26113 0.63351 0.9454 0.0
C685 C 0.27008 0.65378 0.97477 0.0
C686 C 0.40562 0.30951 0.92067 0.0
C687 C 0.38594 0.30301 0.95094 0.0
C688 C 0.41955 0.28251 0.9009 0.0
C689 C 0.41469 0.24774 0.91068 0.0
H690 H 0.41118 0.33582 0.91253 0.0
H691 H 0.43546 0.28911 0.87857 0.0
S692 S 0.36204 0.2165 0.98569 0.0
N693 N 0.35988 0.2591 0.98817 0.0
N694 N 0.38611 0.20816 0.95116 0.0
C695 C 0.3935 0.24075 0.9399 0.0
C696 C 0.37908 0.26839 0.95996 0.0
C697 C 0.80377 0.37998 0.91769 0.0
C698 C 0.77087 0.36983 0.90603 0.0
C699 C 0.82221 0.40718 0.90151 0.0
C700 C 0.80869 0.42457 0.87268 0.0
H701 H 0.8149 0.36752 0.94008 0.0
H702 H 0.84726 0.41442 0.91141 0.0
S703 S 0.72361 0.40774 0.83227 0.0
N704 N 0.72561 0.37943 0.86425 0.0
N705 N 0.76017 0.42974 0.83345 0.0
C706 C 0.77597 0.41431 0.86067 0.0
C707 C 0.75709 0.38717 0.87744 0.0
C708 C 0.64691 0.24462 0.07575 0.0
C709 C 0.6525 0.28011 0.0689 0.0
C710 C 0.62142 0.23355 0.09961 0.0
C711 C 0.60091 0.2576 0.11767 0.0
H712 H 0.66242 0.22519 0.06274 0.0
H713 H 0.61841 0.20609 0.10461 0.0
S714 S 0.60282 0.35314 0.10729 0.0
N715 N 0.63358 0.33905 0.08095 0.0
N716 N 0.58608 0.31819 0.12559 0.0
C717 C 0.60557 0.293 0.11047 0.0
C718 C 0.63126 0.30428 0.08616 0.0
C719 C 0.79221 0.58723 0.10354 0.0
C720 C 0.77996 0.55821 0.12209 0.0
C721 C 0.77006 0.60785 0.08401 0.0
C722 C 0.73454 0.60032 0.08182 0.0
H723 H 0.81945 0.59391 0.10362 0.0
H724 H 0.78123 0.62952 0.0699 0.0
S725 S 0.68893 0.5281 0.12708 0.0
N726 N 0.72977 0.52366 0.13842 0.0
N727 N 0.68774 0.56241 0.10143 0.0
C728 C 0.72159 0.57191 0.10112 0.0
C729 C 0.74435 0.55093 0.12137 0.0
C730 C 0.4513 0.75996 0.13222 0.0
C731 C 0.42982 0.78379 0.11535 0.0
C732 C 0.47934 0.77119 0.15186 0.0
C733 C 0.48728 0.80667 0.15511 0.0
H734 H 0.44589 0.73249 0.13101 0.0
H735 H 0.49467 0.75175 0.16489 0.0
S736 S 0.44096 0.87931 0.1129 0.0
N737 N 0.41973 0.84438 0.10106 0.0
N738 N 0.47246 0.86538 0.13779 0.0
C739 C 0.46675 0.83068 0.13725 0.0
C740 C 0.43802 0.81927 0.11746 0.0
C741 C 0.2417 0.45773 0.07645 0.0
C742 C 0.26163 0.42772 0.08248 0.0
C743 C 0.22279 0.47379 0.10313 0.0
C744 C 0.22306 0.46067 0.13709 0.0
H745 H 0.24167 0.46981 0.05115 0.0
H746 H 0.2092 0.49761 0.09732 0.0
S747 S 0.26702 0.38009 0.16581 0.0
N748 N 0.27742 0.38357 0.12446 0.0
N749 N 0.24201 0.41367 0.17448 0.0
C750 C 0.24107 0.42946 0.14306 0.0
C751 C 0.26026 0.41303 0.11582 0.0
C752 C 0.92416 0.62425 0.77774 0.0
C753 C 0.93066 0.59898 0.8033 0.0
C754 C 0.95097 0.64343 0.76212 0.0
C755 C 0.98571 0.63845 0.77131 0.0
H756 H 0.89809 0.62869 0.76876 0.0
H757 H 0.94432 0.6617 0.74194 0.0
S758 S 0.01663 0.57803 0.83943 0.0
N759 N 0.97435 0.57186 0.83895 0.0
N760 N 0.02489 0.60802 0.80988 0.0
C761 C 0.99253 0.61457 0.79819 0.0
C762 C 0.96503 0.59488 0.81411 0.0
C763 C 0.92265 0.39773 0.24917 0.0
C764 C 0.89858 0.42505 0.25191 0.0
C765 C 0.94491 0.38942 0.27636 0.0
C766 C 0.94436 0.40855 0.3071 0.0
H767 H 0.92517 0.38336 0.22534 0.0
H768 H 0.96374 0.36895 0.27261 0.0
S769 S 0.88401 0.48043 0.32868 0.0
N770 N 0.87377 0.46941 0.28901 0.0
N771 N 0.91568 0.45414 0.33988 0.0
C772 C 0.91922 0.43478 0.31085 0.0
C773 C 0.89627 0.44291 0.28336 0.0
C774 C 0.67791 0.96489 0.2866 0.0
C775 C 0.66436 0.9977 0.27857 0.0
C776 C 0.66526 0.93489 0.2711 0.0
C777 C 0.63829 0.93627 0.24702 0.0
H778 H 0.69823 0.9622 0.30543 0.0
H779 H 0.67618 0.91026 0.27886 0.0
S780 S 0.59407 0.01594 0.21658 0.0
N781 N 0.62293 0.02998 0.24425 0.0
N782 N 0.59891 0.9735 0.21529 0.0
C783 C 0.62513 0.96903 0.23792 0.0
C784 C 0.63818 0.99973 0.25366 0.0
C785 C 0.07884 0.61481 0.2373 0.0
C786 C 0.10975 0.6289 0.22387 0.0
C787 C 0.05362 0.63611 0.25263 0.0
C788 C 0.05823 0.67224 0.25453 0.0
H789 H 0.07501 0.58703 0.23784 0.0
H790 H 0.0307 0.62406 0.26377 0.0
S791 S 0.13311 0.72189 0.21933 0.0
N792 N 0.14254 0.68111 0.21087 0.0
N793 N 0.09491 0.72125 0.239 0.0
C794 C 0.08809 0.68675 0.23918 0.0
C795 C 0.11393 0.66502 0.22405 0.0
C796 C 0.47045 0.09173 0.23669 0.0
C797 C 0.46391 0.12575 0.22519 0.0
C798 C 0.44693 0.07416 0.25857 0.0
C799 C 0.41628 0.09021 0.27033 0.0
H800 H 0.49467 0.07911 0.23005 0.0
H801 H 0.45405 0.04879 0.26823 0.0
S802 S 0.38474 0.17715 0.24471 0.0
N803 N 0.42243 0.17327 0.22446 0.0
N804 N 0.37897 0.14057 0.26629 0.0
C805 C 0.40836 0.12325 0.25734 0.0
C806 C 0.43194 0.14092 0.23454 0.0
C807 C 0.15942 0.45491 0.73345 0.0
C808 C 0.12466 0.46487 0.738 0.0
C809 C 0.1857 0.46937 0.7534 0.0
C810 C 0.1785 0.49466 0.77862 0.0
H811 H 0.16632 0.43483 0.71521 0.0
H812 H 0.21194 0.46033 0.74906 0.0
S813 S 0.09201 0.53243 0.7979 0.0
N814 N 0.0846 0.50329 0.76792 0.0
N815 N 0.13402 0.53085 0.80504 0.0
C816 C 0.14395 0.50577 0.78255 0.0
C817 C 0.1171 0.49083 0.76234 0.0
C818 C 0.53473 0.13112 0.72976 0.0
C819 C 0.53498 0.16294 0.74741 0.0
C820 C 0.56487 0.11782 0.71412 0.0
C821 C 0.59644 0.13585 0.71547 0.0
H822 H 0.51175 0.11506 0.73003 0.0
H823 H 0.56386 0.09216 0.70309 0.0
S824 S 0.60914 0.22382 0.75131 0.0
N825 N 0.56814 0.21479 0.75991 0.0
N826 N 0.62468 0.18986 0.7306 0.0
C827 C 0.59616 0.16931 0.72975 0.0
C828 C 0.56546 0.18286 0.74565 0.0
C829 C 0.43134 0.8916 0.77087 0.0
C830 C 0.42397 0.86874 0.7984 0.0
C831 C 0.40484 0.9078 0.75252 0.0
C832 C 0.36972 0.90209 0.76105 0.0
H833 H 0.45788 0.89823 0.76428 0.0
H834 H 0.41217 0.92622 0.73253 0.0
S835 S 0.33634 0.84088 0.82789 0.0
N836 N 0.37885 0.83834 0.83096 0.0
N837 N 0.32899 0.86894 0.79652 0.0
C838 C 0.3619 0.87745 0.78695 0.0
C839 C 0.389 0.86071 0.80557 0.0
loop_
_geom_bond_atom_site_label_1
_geom_bond_atom_site_label_2
_geom_bond_distance
_geom_bond_site_symmetry_2
_ccdc_geom_bond_type
Mg0 O7 2.141 . S
Mg0 O8 2.048 1_545 S
Mg0 O9 2.048 1_545 S
Mg0 O12 2.141 . S
C1 O2 1.313 . S
C1 O8 1.195 . S
O2 C1 1.313 . S
C3 O4 1.245 . S
C3 O12 1.289 . S
O4 C3 1.245 . S
C5 O6 1.245 . S
C5 O7 1.289 . S
O6 C5 1.245 . S
O7 Mg0 2.141 . S
O7 C5 1.289 . S
O8 Mg0 2.048 1_565 S
O8 C1 1.195 . S
O9 Mg0 2.048 1_565 S
O9 C10 1.195 . S
C10 O9 1.195 . S
C10 O11 1.313 . S
O11 C10 1.313 . S
O12 Mg0 2.141 . S
O12 C3 1.289 . S
Mg13 O20 2.141 . S
Mg13 O21 2.048 1_455 S
Mg13 O22 2.048 1_455 S
Mg13 O25 2.141 . S
C14 O15 1.313 . S
C14 O21 1.195 . S
O15 C14 1.313 . S
C16 O17 1.245 . S
C16 O25 1.289 . S
O17 C16 1.245 . S
C18 O19 1.245 . S
C18 O20 1.289 . S
O19 C18 1.245 . S
O20 Mg13 2.141 . S
O20 C18 1.289 . S
O21 Mg13 2.048 1_655 S
O21 C14 1.195 . S
O22 Mg13 2.048 1_655 S
O22 C23 1.195 . S
C23 O22 1.195 . S
C23 O24 1.313 . S
O24 C23 1.313 . S
O25 Mg13 2.141 . S
O25 C16 1.289 . S
Mg26 O33 2.141 1_545 S
Mg26 O34 2.048 . S
Mg26 O35 2.048 . S
Mg26 O38 2.141 1_545 S
C27 O28 1.313 . S
C27 O34 1.195 . S
O28 C27 1.313 . S
C29 O30 1.245 . S
C29 O38 1.289 . S
O30 C29 1.245 . S
C31 O32 1.245 . S
C31 O33 1.289 . S
O32 C31 1.245 . S
O33 Mg26 2.141 1_565 S
O33 C31 1.289 . S
O34 Mg26 2.048 . S
O34 C27 1.195 . S
O35 Mg26 2.048 . S
O35 C36 1.195 . S
C36 O35 1.195 . S
C36 O37 1.313 . S
O37 C36 1.313 . S
O38 Mg26 2.141 1_565 S
O38 C29 1.289 . S
Mg39 O46 2.141 1_455 S
Mg39 O47 2.048 . S
Mg39 O48 2.048 . S
Mg39 O51 2.141 1_455 S
C40 O41 1.313 . S
C40 O47 1.195 . S
O41 C40 1.313 . S
C42 O43 1.245 . S
C42 O51 1.289 . S
O43 C42 1.245 . S
C44 O45 1.245 . S
C44 O46 1.289 . S
O45 C44 1.245 . S
O46 Mg39 2.141 1_655 S
O46 C44 1.289 . S
O47 Mg39 2.048 . S
O47 C40 1.195 . S
O48 Mg39 2.048 . S
O48 C49 1.195 . S
C49 O48 1.195 . S
C49 O50 1.313 . S
O50 C49 1.313 . S
O51 Mg39 2.141 1_655 S
O51 C42 1.289 . S
Mg52 O59 2.141 1_545 S
Mg52 O60 2.048 . S
Mg52 O61 2.048 . S
Mg52 O64 2.141 1_545 S
C53 O54 1.313 . S
C53 O60 1.195 . S
O54 C53 1.313 . S
C55 O56 1.245 . S
C55 O64 1.289 . S
O56 C55 1.245 . S
C57 O58 1.245 . S
C57 O59 1.289 . S
O58 C57 1.245 . S
O59 Mg52 2.141 1_565 S
O59 C57 1.289 . S
O60 Mg52 2.048 . S
O60 C53 1.195 . S
O61 Mg52 2.048 . S
O61 C62 1.195 . S
C62 O61 1.195 . S
C62 O63 1.313 . S
O63 C62 1.313 . S
O64 Mg52 2.141 1_565 S
O64 C55 1.289 . S
Mg65 O72 2.141 . S
Mg65 O73 2.048 1_455 S
Mg65 O74 2.048 1_455 S
Mg65 O77 2.141 . S
C66 O67 1.313 . S
C66 O73 1.195 . S
O67 C66 1.313 . S
C68 O69 1.245 . S
C68 O77 1.289 . S
O69 C68 1.245 . S
C70 O71 1.245 . S
C70 O72 1.289 . S
O71 C70 1.245 . S
O72 Mg65 2.141 . S
O72 C70 1.289 . S
O73 Mg65 2.048 1_655 S
O73 C66 1.195 . S
O74 Mg65 2.048 1_655 S
O74 C75 1.195 . S
C75 O74 1.195 . S
C75 O76 1.313 . S
O76 C75 1.313 . S
O77 Mg65 2.141 . S
O77 C68 1.289 . S
Mg78 O85 2.141 . S
Mg78 O86 2.048 1_545 S
Mg78 O87 2.048 1_545 S
Mg78 O90 2.141 . S
C79 O80 1.313 . S
C79 O86 1.195 . S
O80 C79 1.313 . S
C81 O82 1.245 . S
C81 O90 1.289 . S
O82 C81 1.245 . S
C83 O84 1.245 . S
C83 O85 1.289 . S
O84 C83 1.245 . S
O85 Mg78 2.141 . S
O85 C83 1.289 . S
O86 Mg78 2.048 1_565 S
O86 C79 1.195 . S
O87 Mg78 2.048 1_565 S
O87 C88 1.195 . S
C88 O87 1.195 . S
C88 O89 1.313 . S
O89 C88 1.313 . S
O90 Mg78 2.141 . S
O90 C81 1.289 . S
Mg91 O98 2.141 1_455 S
Mg91 O99 2.048 . S
Mg91 O100 2.048 . S
Mg91 O103 2.141 1_455 S
C92 O93 1.313 . S
C92 O99 1.195 . S
O93 C92 1.313 . S
C94 O95 1.245 . S
C94 O103 1.289 . S
O95 C94 1.245 . S
C96 O97 1.245 . S
C96 O98 1.289 . S
O97 C96 1.245 . S
O98 Mg91 2.141 1_655 S
O98 C96 1.289 . S
O99 Mg91 2.048 . S
O99 C92 1.195 . S
O100 Mg91 2.048 . S
O100 C101 1.195 . S
C101 O100 1.195 . S
C101 O102 1.313 . S
O102 C101 1.313 . S
O103 Mg91 2.141 1_655 S
O103 C94 1.289 . S
Mg104 O111 2.141 . S
Mg104 O112 2.048 1_554 S
Mg104 O113 2.048 1_554 S
Mg104 O116 2.141 . S
C105 O106 1.313 . S
C105 O112 1.195 . S
O106 C105 1.313 . S
C107 O108 1.245 . S
C107 O116 1.289 . S
O108 C107 1.245 . S
C109 O110 1.245 . S
C109 O111 1.289 . S
O110 C109 1.245 . S
O111 Mg104 2.141 . S
O111 C109 1.289 . S
O112 Mg104 2.048 1_556 S
O112 C105 1.195 . S
O113 Mg104 2.048 1_556 S
O113 C114 1.195 . S
C114 O113 1.195 . S
C114 O115 1.313 . S
O115 C114 1.313 . S
O116 Mg104 2.141 . S
O116 C107 1.289 . S
Mg117 O124 2.141 1_554 S
Mg117 O125 2.048 . S
Mg117 O126 2.048 . S
Mg117 O129 2.141 1_554 S
C118 O119 1.313 . S
C118 O125 1.195 . S
O119 C118 1.313 . S
C120 O121 1.245 . S
C120 O129 1.289 . S
O121 C120 1.245 . S
C122 O123 1.245 . S
C122 O124 1.289 . S
O123 C122 1.245 . S
O124 Mg117 2.141 1_556 S
O124 C122 1.289 . S
O125 Mg117 2.048 . S
O125 C118 1.195 . S
O126 Mg117 2.048 . S
O126 C127 1.195 . S
C127 O126 1.195 . S
C127 O128 1.313 . S
O128 C127 1.313 . S
O129 Mg117 2.141 1_556 S
O129 C120 1.289 . S
Mg130 O137 2.141 1_554 S
Mg130 O138 2.048 . S
Mg130 O139 2.048 . S
Mg130 O142 2.141 1_554 S
C131 O132 1.313 . S
C131 O138 1.195 . S
O132 C131 1.313 . S
C133 O134 1.245 . S
C133 O142 1.289 . S
O134 C133 1.245 . S
C135 O136 1.245 . S
C135 O137 1.289 . S
O136 C135 1.245 . S
O137 Mg130 2.141 1_556 S
O137 C135 1.289 . S
O138 Mg130 2.048 . S
O138 C131 1.195 . S
O139 Mg130 2.048 . S
O139 C140 1.195 . S
C140 O139 1.195 . S
C140 O141 1.313 . S
O141 C140 1.313 . S
O142 Mg130 2.141 1_556 S
O142 C133 1.289 . S
Mg143 O150 2.141 . S
Mg143 O151 2.048 1_554 S
Mg143 O152 2.048 1_554 S
Mg143 O155 2.141 . S
C144 O145 1.313 . S
C144 O151 1.195 . S
O145 C144 1.313 . S
C146 O147 1.245 . S
C146 O155 1.289 . S
O147 C146 1.245 . S
C148 O149 1.245 . S
C148 O150 1.289 . S
O149 C148 1.245 . S
O150 Mg143 2.141 . S
O150 C148 1.289 . S
O151 Mg143 2.048 1_556 S
O151 C144 1.195 . S
O152 Mg143 2.048 1_556 S
O152 C153 1.195 . S
C153 O152 1.195 . S
C153 O154 1.313 . S
O154 C153 1.313 . S
O155 Mg143 2.141 . S
O155 C146 1.289 . S
Mg156 O163 2.141 . S
Mg156 O164 2.048 . S
Mg156 O165 2.048 . S
Mg156 O168 2.141 . S
C157 O158 1.313 . S
C157 O164 1.195 . S
O158 C157 1.313 . S
C159 O160 1.245 . S
C159 O168 1.289 . S
O160 C159 1.245 . S
C161 O162 1.245 . S
C161 O163 1.289 . S
O162 C161 1.245 . S
O163 Mg156 2.141 . S
O163 C161 1.289 . S
O164 Mg156 2.048 . S
O164 C157 1.195 . S
O165 Mg156 2.048 . S
O165 C166 1.195 . S
C166 O165 1.195 . S
C166 O167 1.313 . S
O167 C166 1.313 . S
O168 Mg156 2.141 . S
O168 C159 1.289 . S
Mg169 O176 2.141 . S
Mg169 O177 2.048 . S
Mg169 O178 2.048 . S
Mg169 O181 2.141 . S
C170 O171 1.313 . S
C170 O177 1.195 . S
O171 C170 1.313 . S
C172 O173 1.245 . S
C172 O181 1.289 . S
O173 C172 1.245 . S
C174 O175 1.245 . S
C174 O176 1.289 . S
O175 C174 1.245 . S
O176 Mg169 2.141 . S
O176 C174 1.289 . S
O177 Mg169 2.048 . S
O177 C170 1.195 . S
O178 Mg169 2.048 . S
O178 C179 1.195 . S
C179 O178 1.195 . S
C179 O180 1.313 . S
O180 C179 1.313 . S
O181 Mg169 2.141 . S
O181 C172 1.289 . S
Mg182 O189 2.141 . S
Mg182 O190 2.048 . S
Mg182 O191 2.048 . S
Mg182 O194 2.141 . S
C183 O184 1.313 . S
C183 O190 1.195 . S
O184 C183 1.313 . S
C185 O186 1.245 . S
C185 O194 1.289 . S
O186 C185 1.245 . S
C187 O188 1.245 . S
C187 O189 1.289 . S
O188 C187 1.245 . S
O189 Mg182 2.141 . S
O189 C187 1.289 . S
O190 Mg182 2.048 . S
O190 C183 1.195 . S
O191 Mg182 2.048 . S
O191 C192 1.195 . S
C192 O191 1.195 . S
C192 O193 1.313 . S
O193 C192 1.313 . S
O194 Mg182 2.141 . S
O194 C185 1.289 . S
Mg195 O202 2.141 . S
Mg195 O203 2.048 . S
Mg195 O204 2.048 . S
Mg195 O207 2.141 . S
C196 O197 1.313 . S
C196 O203 1.195 . S
O197 C196 1.313 . S
C198 O199 1.245 . S
C198 O207 1.289 . S
O199 C198 1.245 . S
C200 O201 1.245 . S
C200 O202 1.289 . S
O201 C200 1.245 . S
O202 Mg195 2.141 . S
O202 C200 1.289 . S
O203 Mg195 2.048 . S
O203 C196 1.195 . S
O204 Mg195 2.048 . S
O204 C205 1.195 . S
C205 O204 1.195 . S
C205 O206 1.313 . S
O206 C205 1.313 . S
O207 Mg195 2.141 . S
O207 C198 1.289 . S
Mg208 O215 2.141 . S
Mg208 O216 2.048 . S
Mg208 O217 2.048 . S
Mg208 O220 2.141 . S
C209 O210 1.313 . S
C209 O216 1.195 . S
O210 C209 1.313 . S
C211 O212 1.245 . S
C211 O220 1.289 . S
O212 C211 1.245 . S
C213 O214 1.245 . S
C213 O215 1.289 . S
O214 C213 1.245 . S
O215 Mg208 2.141 . S
O215 C213 1.289 . S
O216 Mg208 2.048 . S
O216 C209 1.195 . S
O217 Mg208 2.048 . S
O217 C218 1.195 . S
C218 O217 1.195 . S
C218 O219 1.313 . S
O219 C218 1.313 . S
O220 Mg208 2.141 . S
O220 C211 1.289 . S
Mg221 O228 2.141 . S
Mg221 O229 2.048 . S
Mg221 O230 2.048 . S
Mg221 O233 2.141 . S
C222 O223 1.313 . S
C222 O229 1.195 . S
O223 C222 1.313 . S
C224 O225 1.245 . S
C224 O233 1.289 . S
O225 C224 1.245 . S
C226 O227 1.245 . S
C226 O228 1.289 . S
O227 C226 1.245 . S
O228 Mg221 2.141 . S
O228 C226 1.289 . S
O229 Mg221 2.048 . S
O229 C222 1.195 . S
O230 Mg221 2.048 . S
O230 C231 1.195 . S
C231 O230 1.195 . S
C231 O232 1.313 . S
O232 C231 1.313 . S
O233 Mg221 2.141 . S
O233 C224 1.289 . S
Mg234 O241 2.141 . S
Mg234 O242 2.048 . S
Mg234 O243 2.048 . S
Mg234 O246 2.141 . S
C235 O236 1.313 . S
C235 O242 1.195 . S
O236 C235 1.313 . S
C237 O238 1.245 . S
C237 O246 1.289 . S
O238 C237 1.245 . S
C239 O240 1.245 . S
C239 O241 1.289 . S
O240 C239 1.245 . S
O241 Mg234 2.141 . S
O241 C239 1.289 . S
O242 Mg234 2.048 . S
O242 C235 1.195 . S
O243 Mg234 2.048 . S
O243 C244 1.195 . S
C244 O243 1.195 . S
C244 O245 1.313 . S
O245 C244 1.313 . S
O246 Mg234 2.141 . S
O246 C237 1.289 . S
Mg247 O254 2.141 . S
Mg247 O255 2.048 . S
Mg247 O256 2.048 . S
Mg247 O259 2.141 . S
C248 O249 1.313 . S
C248 O255 1.195 . S
O249 C248 1.313 . S
C250 O251 1.245 . S
C250 O259 1.289 . S
O251 C250 1.245 . S
C252 O253 1.245 . S
C252 O254 1.289 . S
O253 C252 1.245 . S
O254 Mg247 2.141 . S
O254 C252 1.289 . S
O255 Mg247 2.048 . S
O255 C248 1.195 . S
O256 Mg247 2.048 . S
O256 C257 1.195 . S
C257 O256 1.195 . S
C257 O258 1.313 . S
O258 C257 1.313 . S
O259 Mg247 2.141 . S
O259 C250 1.289 . S
Mg260 O267 2.141 . S
Mg260 O268 2.048 . S
Mg260 O269 2.048 . S
Mg260 O272 2.141 . S
C261 O262 1.313 . S
C261 O268 1.195 . S
O262 C261 1.313 . S
C263 O264 1.245 . S
C263 O272 1.289 . S
O264 C263 1.245 . S
C265 O266 1.245 . S
C265 O267 1.289 . S
O266 C265 1.245 . S
O267 Mg260 2.141 . S
O267 C265 1.289 . S
O268 Mg260 2.048 . S
O268 C261 1.195 . S
O269 Mg260 2.048 . S
O269 C270 1.195 . S
C270 O269 1.195 . S
C270 O271 1.313 . S
O271 C270 1.313 . S
O272 Mg260 2.141 . S
O272 C263 1.289 . S
Mg273 O280 2.141 . S
Mg273 O281 2.048 . S
Mg273 O282 2.048 . S
Mg273 O285 2.141 . S
C274 O275 1.313 . S
C274 O281 1.195 . S
O275 C274 1.313 . S
C276 O277 1.245 . S
C276 O285 1.289 . S
O277 C276 1.245 . S
C278 O279 1.245 . S
C278 O280 1.289 . S
O279 C278 1.245 . S
O280 Mg273 2.141 . S
O280 C278 1.289 . S
O281 Mg273 2.048 . S
O281 C274 1.195 . S
O282 Mg273 2.048 . S
O282 C283 1.195 . S
C283 O282 1.195 . S
C283 O284 1.313 . S
O284 C283 1.313 . S
O285 Mg273 2.141 . S
O285 C276 1.289 . S
Mg286 O293 2.141 . S
Mg286 O294 2.048 . S
Mg286 O295 2.048 . S
Mg286 O298 2.141 . S
C287 O288 1.313 . S
C287 O294 1.195 . S
O288 C287 1.313 . S
C289 O290 1.245 . S
C289 O298 1.289 . S
O290 C289 1.245 . S
C291 O292 1.245 . S
C291 O293 1.289 . S
O292 C291 1.245 . S
O293 Mg286 2.141 . S
O293 C291 1.289 . S
O294 Mg286 2.048 . S
O294 C287 1.195 . S
O295 Mg286 2.048 . S
O295 C296 1.195 . S
C296 O295 1.195 . S
C296 O297 1.313 . S
O297 C296 1.313 . S
O298 Mg286 2.141 . S
O298 C289 1.289 . S
Mg299 O306 2.141 . S
Mg299 O307 2.048 . S
Mg299 O308 2.048 . S
Mg299 O311 2.141 . S
C300 O301 1.313 . S
C300 O307 1.195 . S
O301 C300 1.313 . S
C302 O303 1.245 . S
C302 O311 1.289 . S
O303 C302 1.245 . S
C304 O305 1.245 . S
C304 O306 1.289 . S
O305 C304 1.245 . S
O306 Mg299 2.141 . S
O306 C304 1.289 . S
O307 Mg299 2.048 . S
O307 C300 1.195 . S
O308 Mg299 2.048 . S
O308 C309 1.195 . S
C309 O308 1.195 . S
C309 O310 1.313 . S
O310 C309 1.313 . S
O311 Mg299 2.141 . S
O311 C302 1.289 . S
C312 C313 1.369 . S
C312 C314 1.419 . S
C312 H316 0.930 . S
C313 C312 1.369 . S
C313 C322 1.429 . S
C314 C312 1.419 . S
C314 C315 1.363 . S
C314 H317 0.929 . S
C315 C314 1.363 . S
C315 C321 1.428 . S
H316 C312 0.930 . S
H317 C314 0.929 . S
S318 N319 1.613 . S
S318 N320 1.610 . S
N319 S318 1.613 . S
N319 C322 1.350 . S
N320 S318 1.610 . S
N320 C321 1.351 . S
C321 C315 1.428 . S
C321 N320 1.351 . S
C321 C322 1.434 . S
C322 C313 1.429 . S
C322 N319 1.350 . S
C322 C321 1.434 . S
C323 C324 1.369 . S
C323 C325 1.419 . S
C323 H327 0.930 . S
C324 C323 1.369 . S
C324 C333 1.429 . S
C325 C323 1.419 . S
C325 C326 1.363 . S
C325 H328 0.929 . S
C326 C325 1.363 . S
C326 C332 1.428 . S
H327 C323 0.930 . S
H328 C325 0.929 . S
S329 N330 1.613 . S
S329 N331 1.610 . S
N330 S329 1.613 . S
N330 C333 1.350 . S
N331 S329 1.610 . S
N331 C332 1.351 . S
C332 C326 1.428 . S
C332 N331 1.351 . S
C332 C333 1.434 . S
C333 C324 1.429 . S
C333 N330 1.350 . S
C333 C332 1.434 . S
C334 C335 1.369 . S
C334 C336 1.419 . S
C334 H338 0.930 . S
C335 C334 1.369 . S
C335 C344 1.429 . S
C336 C334 1.419 . S
C336 C337 1.363 . S
C336 H339 0.929 . S
C337 C336 1.363 . S
C337 C343 1.428 . S
H338 C334 0.930 . S
H339 C336 0.929 . S
S340 N341 1.613 . S
S340 N342 1.610 . S
N341 S340 1.613 . S
N341 C344 1.350 . S
N342 S340 1.610 . S
N342 C343 1.351 . S
C343 C337 1.428 . S
C343 N342 1.351 . S
C343 C344 1.434 . S
C344 C335 1.429 . S
C344 N341 1.350 . S
C344 C343 1.434 . S
C345 C346 1.369 . S
C345 C347 1.419 . S
C345 H349 0.930 . S
C346 C345 1.369 . S
C346 C355 1.429 . S
C347 C345 1.419 . S
C347 C348 1.363 . S
C347 H350 0.929 . S
C348 C347 1.363 . S
C348 C354 1.428 . S
H349 C345 0.930 . S
H350 C347 0.929 . S
S351 N352 1.613 . S
S351 N353 1.610 . S
N352 S351 1.613 . S
N352 C355 1.350 . S
N353 S351 1.610 . S
N353 C354 1.351 . S
C354 C348 1.428 . S
C354 N353 1.351 . S
C354 C355 1.434 . S
C355 C346 1.429 . S
C355 N352 1.350 . S
C355 C354 1.434 . S
C356 C357 1.369 . S
C356 C358 1.419 . S
C356 H360 0.930 . S
C357 C356 1.369 . S
C357 C366 1.429 . S
C358 C356 1.419 . S
C358 C359 1.363 . S
C358 H361 0.929 . S
C359 C358 1.363 . S
C359 C365 1.428 . S
H360 C356 0.930 . S
H361 C358 0.929 . S
S362 N363 1.613 . S
S362 N364 1.610 . S
N363 S362 1.613 . S
N363 C366 1.350 . S
N364 S362 1.610 . S
N364 C365 1.351 . S
C365 C359 1.428 . S
C365 N364 1.351 . S
C365 C366 1.434 . S
C366 C357 1.429 . S
C366 N363 1.350 . S
C366 C365 1.434 . S
C367 C368 1.369 . S
C367 C369 1.419 . S
C367 H371 0.930 . S
C368 C367 1.369 . S
C368 C377 1.429 . S
C369 C367 1.419 . S
C369 C370 1.363 . S
C369 H372 0.929 . S
C370 C369 1.363 . S
C370 C376 1.428 . S
H371 C367 0.930 . S
H372 C369 0.929 . S
S373 N374 1.613 . S
S373 N375 1.610 . S
N374 S373 1.613 . S
N374 C377 1.350 . S
N375 S373 1.610 . S
N375 C376 1.351 . S
C376 C370 1.428 . S
C376 N375 1.351 . S
C376 C377 1.434 . S
C377 C368 1.429 . S
C377 N374 1.350 . S
C377 C376 1.434 . S
C378 C379 1.369 . S
C378 C380 1.419 . S
C378 H382 0.930 . S
C379 C378 1.369 . S
C379 C388 1.429 . S
C380 C378 1.419 . S
C380 C381 1.363 . S
C380 H383 0.929 . S
C381 C380 1.363 . S
C381 C387 1.428 . S
H382 C378 0.930 . S
H383 C380 0.929 . S
S384 N385 1.613 . S
S384 N386 1.610 . S
N385 S384 1.613 . S
N385 C388 1.350 . S
N386 S384 1.610 . S
N386 C387 1.351 . S
C387 C381 1.428 . S
C387 N386 1.351 . S
C387 C388 1.434 . S
C388 C379 1.429 . S
C388 N385 1.350 . S
C388 C387 1.434 . S
C389 C390 1.369 . S
C389 C391 1.419 . S
C389 H393 0.930 . S
C390 C389 1.369 . S
C390 C399 1.429 . S
C391 C389 1.419 . S
C391 C392 1.363 . S
C391 H394 0.929 . S
C392 C391 1.363 . S
C392 C398 1.428 . S
H393 C389 0.930 . S
H394 C391 0.929 . S
S395 N396 1.613 . S
S395 N397 1.610 . S
N396 S395 1.613 . S
N396 C399 1.350 . S
N397 S395 1.610 . S
N397 C398 1.351 . S
C398 C392 1.428 . S
C398 N397 1.351 . S
C398 C399 1.434 . S
C399 C390 1.429 . S
C399 N396 1.350 . S
C399 C398 1.434 . S
C400 C401 1.369 . S
C400 C402 1.419 . S
C400 H404 0.930 . S
C401 C400 1.369 . S
C401 C410 1.429 . S
C402 C400 1.419 . S
C402 C403 1.363 . S
C402 H405 0.929 . S
C403 C402 1.363 . S
C403 C409 1.428 . S
H404 C400 0.930 . S
H405 C402 0.929 . S
S406 N407 1.613 . S
S406 N408 1.610 . S
N407 S406 1.613 . S
N407 C410 1.350 . S
N408 S406 1.610 . S
N408 C409 1.351 . S
C409 C403 1.428 . S
C409 N408 1.351 . S
C409 C410 1.434 . S
C410 C401 1.429 . S
C410 N407 1.350 . S
C410 C409 1.434 . S
C411 C412 1.369 . S
C411 C413 1.419 . S
C411 H415 0.930 . S
C412 C411 1.369 . S
C412 C421 1.429 . S
C413 C411 1.419 . S
C413 C414 1.363 . S
C413 H416 0.929 . S
C414 C413 1.363 . S
C414 C420 1.428 . S
H415 C411 0.930 . S
H416 C413 0.929 . S
S417 N418 1.613 . S
S417 N419 1.610 . S
N418 S417 1.613 . S
N418 C421 1.350 . S
N419 S417 1.610 . S
N419 C420 1.351 . S
C420 C414 1.428 . S
C420 N419 1.351 . S
C420 C421 1.434 . S
C421 C412 1.429 . S
C421 N418 1.350 . S
C421 C420 1.434 . S
C422 C423 1.369 . S
C422 C424 1.419 . S
C422 H426 0.930 . S
C423 C422 1.369 . S
C423 C432 1.429 . S
C424 C422 1.419 . S
C424 C425 1.363 . S
C424 H427 0.929 . S
C425 C424 1.363 . S
C425 C431 1.428 . S
H426 C422 0.930 . S
H427 C424 0.929 . S
S428 N429 1.613 . S
S428 N430 1.610 . S
N429 S428 1.613 . S
N429 C432 1.350 . S
N430 S428 1.610 . S
N430 C431 1.351 . S
C431 C425 1.428 . S
C431 N430 1.351 . S
C431 C432 1.434 . S
C432 C423 1.429 . S
C432 N429 1.350 . S
C432 C431 1.434 . S
C433 C434 1.369 . S
C433 C435 1.419 . S
C433 H437 0.930 . S
C434 C433 1.369 . S
C434 C443 1.429 . S
C435 C433 1.419 . S
C435 C436 1.363 . S
C435 H438 0.929 . S
C436 C435 1.363 . S
C436 C442 1.428 . S
H437 C433 0.930 . S
H438 C435 0.929 . S
S439 N440 1.613 . S
S439 N441 1.610 . S
N440 S439 1.613 . S
N440 C443 1.350 . S
N441 S439 1.610 . S
N441 C442 1.351 . S
C442 C436 1.428 . S
C442 N441 1.351 . S
C442 C443 1.434 . S
C443 C434 1.429 . S
C443 N440 1.350 . S
C443 C442 1.434 . S
C444 C445 1.369 . S
C444 C446 1.419 . S
C444 H448 0.930 . S
C445 C444 1.369 . S
C445 C454 1.429 . S
C446 C444 1.419 . S
C446 C447 1.363 . S
C446 H449 0.929 . S
C447 C446 1.363 . S
C447 C453 1.428 . S
H448 C444 0.930 . S
H449 C446 0.929 . S
S450 N451 1.613 . S
S450 N452 1.610 . S
N451 S450 1.613 . S
N451 C454 1.350 . S
N452 S450 1.610 . S
N452 C453 1.351 . S
C453 C447 1.428 . S
C453 N452 1.351 . S
C453 C454 1.434 . S
C454 C445 1.429 . S
C454 N451 1.350 . S
C454 C453 1.434 . S
C455 C456 1.369 . S
C455 C457 1.419 . S
C455 H459 0.930 . S
C456 C455 1.369 . S
C456 C465 1.429 . S
C457 C455 1.419 . S
C457 C458 1.363 . S
C457 H460 0.929 . S
C458 C457 1.363 . S
C458 C464 1.428 . S
H459 C455 0.930 . S
H460 C457 0.929 . S
S461 N462 1.613 . S
S461 N463 1.610 . S
N462 S461 1.613 . S
N462 C465 1.350 . S
N463 S461 1.610 . S
N463 C464 1.351 . S
C464 C458 1.428 . S
C464 N463 1.351 . S
C464 C465 1.434 . S
C465 C456 1.429 . S
C465 N462 1.350 . S
C465 C464 1.434 . S
C466 C467 1.369 . S
C466 C468 1.419 . S
C466 H470 0.930 . S
C467 C466 1.369 . S
C467 C476 1.429 . S
C468 C466 1.419 . S
C468 C469 1.363 . S
C468 H471 0.929 . S
C469 C468 1.363 . S
C469 C475 1.428 . S
H470 C466 0.930 . S
H471 C468 0.929 . S
S472 N473 1.613 . S
S472 N474 1.610 . S
N473 S472 1.613 . S
N473 C476 1.350 . S
N474 S472 1.610 . S
N474 C475 1.351 . S
C475 C469 1.428 . S
C475 N474 1.351 . S
C475 C476 1.434 . S
C476 C467 1.429 . S
C476 N473 1.350 . S
C476 C475 1.434 . S
C477 C478 1.369 . S
C477 C479 1.419 . S
C477 H481 0.930 . S
C478 C477 1.369 . S
C478 C487 1.429 . S
C479 C477 1.419 . S
C479 C480 1.363 . S
C479 H482 0.929 . S
C480 C479 1.363 . S
C480 C486 1.428 . S
H481 C477 0.930 . S
H482 C479 0.929 . S
S483 N484 1.613 . S
S483 N485 1.610 . S
N484 S483 1.613 . S
N484 C487 1.350 . S
N485 S483 1.610 . S
N485 C486 1.351 . S
C486 C480 1.428 . S
C486 N485 1.351 . S
C486 C487 1.434 . S
C487 C478 1.429 . S
C487 N484 1.350 . S
C487 C486 1.434 . S
C488 C489 1.369 . S
C488 C490 1.419 . S
C488 H492 0.930 . S
C489 C488 1.369 . S
C489 C498 1.429 . S
C490 C488 1.419 . S
C490 C491 1.363 . S
C490 H493 0.929 . S
C491 C490 1.363 . S
C491 C497 1.428 . S
H492 C488 0.930 . S
H493 C490 0.929 . S
S494 N495 1.613 . S
S494 N496 1.610 . S
N495 S494 1.613 . S
N495 C498 1.350 . S
N496 S494 1.610 . S
N496 C497 1.351 . S
C497 C491 1.428 . S
C497 N496 1.351 . S
C497 C498 1.434 . S
C498 C489 1.429 . S
C498 N495 1.350 . S
C498 C497 1.434 . S
C499 C500 1.369 . S
C499 C501 1.419 . S
C499 H503 0.930 . S
C500 C499 1.369 . S
C500 C509 1.429 . S
C501 C499 1.419 . S
C501 C502 1.363 . S
C501 H504 0.929 . S
C502 C501 1.363 . S
C502 C508 1.428 . S
H503 C499 0.930 . S
H504 C501 0.929 . S
S505 N506 1.613 . S
S505 N507 1.610 . S
N506 S505 1.613 . S
N506 C509 1.350 . S
N507 S505 1.610 . S
N507 C508 1.351 . S
C508 C502 1.428 . S
C508 N507 1.351 . S
C508 C509 1.434 . S
C509 C500 1.429 . S
C509 N506 1.350 . S
C509 C508 1.434 . S
C510 C511 1.369 . S
C510 C512 1.419 . S
C510 H514 0.930 . S
C511 C510 1.369 . S
C511 C520 1.429 . S
C512 C510 1.419 . S
C512 C513 1.363 . S
C512 H515 0.929 . S
C513 C512 1.363 . S
C513 C519 1.428 . S
H514 C510 0.930 . S
H515 C512 0.929 . S
S516 N517 1.613 . S
S516 N518 1.610 . S
N517 S516 1.613 . S
N517 C520 1.350 . S
N518 S516 1.610 . S
N518 C519 1.351 . S
C519 C513 1.428 . S
C519 N518 1.351 . S
C519 C520 1.434 . S
C520 C511 1.429 . S
C520 N517 1.350 . S
C520 C519 1.434 . S
C521 C522 1.369 . S
C521 C523 1.419 . S
C521 H525 0.930 . S
C522 C521 1.369 . S
C522 C531 1.429 . S
C523 C521 1.419 . S
C523 C524 1.363 . S
C523 H526 0.929 . S
C524 C523 1.363 . S
C524 C530 1.428 . S
H525 C521 0.930 . S
H526 C523 0.929 . S
S527 N528 1.613 . S
S527 N529 1.610 . S
N528 S527 1.613 . S
N528 C531 1.350 . S
N529 S527 1.610 . S
N529 C530 1.351 . S
C530 C524 1.428 . S
C530 N529 1.351 . S
C530 C531 1.434 . S
C531 C522 1.429 . S
C531 N528 1.350 . S
C531 C530 1.434 . S
C532 C533 1.369 . S
C532 C534 1.419 . S
C532 H536 0.930 . S
C533 C532 1.369 . S
C533 C542 1.429 . S
C534 C532 1.419 . S
C534 C535 1.363 . S
C534 H537 0.929 . S
C535 C534 1.363 . S
C535 C541 1.428 . S
H536 C532 0.930 . S
H537 C534 0.929 . S
S538 N539 1.613 . S
S538 N540 1.610 . S
N539 S538 1.613 . S
N539 C542 1.350 . S
N540 S538 1.610 . S
N540 C541 1.351 . S
C541 C535 1.428 . S
C541 N540 1.351 . S
C541 C542 1.434 . S
C542 C533 1.429 . S
C542 N539 1.350 . S
C542 C541 1.434 . S
C543 C544 1.369 . S
C543 C545 1.419 . S
C543 H547 0.930 . S
C544 C543 1.369 . S
C544 C553 1.429 . S
C545 C543 1.419 . S
C545 C546 1.363 . S
C545 H548 0.929 . S
C546 C545 1.363 . S
C546 C552 1.428 . S
H547 C543 0.930 . S
H548 C545 0.929 . S
S549 N550 1.613 . S
S549 N551 1.610 . S
N550 S549 1.613 . S
N550 C553 1.350 . S
N551 S549 1.610 . S
N551 C552 1.351 . S
C552 C546 1.428 . S
C552 N551 1.351 . S
C552 C553 1.434 . S
C553 C544 1.429 . S
C553 N550 1.350 . S
C553 C552 1.434 . S
C554 C555 1.369 . S
C554 C556 1.419 . S
C554 H558 0.930 . S
C555 C554 1.369 . S
C555 C564 1.429 . S
C556 C554 1.419 . S
C556 C557 1.363 . S
C556 H559 0.929 . S
C557 C556 1.363 . S
C557 C563 1.428 . S
H558 C554 0.930 . S
H559 C556 0.929 . S
S560 N561 1.613 . S
S560 N562 1.610 . S
N561 S560 1.613 . S
N561 C564 1.350 . S
N562 S560 1.610 . S
N562 C563 1.351 . S
C563 C557 1.428 . S
C563 N562 1.351 . S
C563 C564 1.434 . S
C564 C555 1.429 . S
C564 N561 1.350 . S
C564 C563 1.434 . S
C565 C566 1.369 . S
C565 C567 1.419 . S
C565 H569 0.930 . S
C566 C565 1.369 . S
C566 C575 1.429 . S
C567 C565 1.419 . S
C567 C568 1.363 . S
C567 H570 0.929 . S
C568 C567 1.363 . S
C568 C574 1.428 . S
H569 C565 0.930 . S
H570 C567 0.929 . S
S571 N572 1.613 . S
S571 N573 1.610 . S
N572 S571 1.613 . S
N572 C575 1.350 . S
N573 S571 1.610 . S
N573 C574 1.351 . S
C574 C568 1.428 . S
C574 N573 1.351 . S
C574 C575 1.434 . S
C575 C566 1.429 . S
C575 N572 1.350 . S
C575 C574 1.434 . S
C576 C577 1.369 . S
C576 C578 1.419 . S
C576 H580 0.930 . S
C577 C576 1.369 . S
C577 C586 1.429 . S
C578 C576 1.419 . S
C578 C579 1.363 . S
C578 H581 0.929 . S
C579 C578 1.363 . S
C579 C585 1.428 . S
H580 C576 0.930 . S
H581 C578 0.929 . S
S582 N583 1.613 . S
S582 N584 1.610 . S
N583 S582 1.613 . S
N583 C586 1.350 . S
N584 S582 1.610 . S
N584 C585 1.351 . S
C585 C579 1.428 . S
C585 N584 1.351 . S
C585 C586 1.434 . S
C586 C577 1.429 . S
C586 N583 1.350 . S
C586 C585 1.434 . S
C587 C588 1.369 . S
C587 C589 1.419 . S
C587 H591 0.930 . S
C588 C587 1.369 . S
C588 C597 1.429 . S
C589 C587 1.419 . S
C589 C590 1.363 . S
C589 H592 0.929 . S
C590 C589 1.363 . S
C590 C596 1.428 . S
H591 C587 0.930 . S
H592 C589 0.929 . S
S593 N594 1.613 . S
S593 N595 1.610 . S
N594 S593 1.613 . S
N594 C597 1.350 . S
N595 S593 1.610 . S
N595 C596 1.351 . S
C596 C590 1.428 . S
C596 N595 1.351 . S
C596 C597 1.434 . S
C597 C588 1.429 . S
C597 N594 1.350 . S
C597 C596 1.434 . S
C598 C599 1.369 . S
C598 C600 1.419 . S
C598 H602 0.930 . S
C599 C598 1.369 . S
C599 C608 1.429 . S
C600 C598 1.419 . S
C600 C601 1.363 . S
C600 H603 0.929 . S
C601 C600 1.363 . S
C601 C607 1.428 . S
H602 C598 0.930 . S
H603 C600 0.929 . S
S604 N605 1.613 . S
S604 N606 1.610 . S
N605 S604 1.613 . S
N605 C608 1.350 . S
N606 S604 1.610 . S
N606 C607 1.351 . S
C607 C601 1.428 . S
C607 N606 1.351 . S
C607 C608 1.434 . S
C608 C599 1.429 . S
C608 N605 1.350 . S
C608 C607 1.434 . S
C609 C610 1.369 . S
C609 C611 1.419 . S
C609 H613 0.930 . S
C610 C609 1.369 . S
C610 C619 1.429 . S
C611 C609 1.419 . S
C611 C612 1.363 . S
C611 H614 0.929 . S
C612 C611 1.363 . S
C612 C618 1.428 . S
H613 C609 0.930 . S
H614 C611 0.929 . S
S615 N616 1.613 . S
S615 N617 1.610 . S
N616 S615 1.613 . S
N616 C619 1.350 . S
N617 S615 1.610 . S
N617 C618 1.351 . S
C618 C612 1.428 . S
C618 N617 1.351 . S
C618 C619 1.434 . S
C619 C610 1.429 . S
C619 N616 1.350 . S
C619 C618 1.434 . S
C620 C621 1.369 . S
C620 C622 1.419 . S
C620 H624 0.930 . S
C621 C620 1.369 . S
C621 C630 1.429 . S
C622 C620 1.419 . S
C622 C623 1.363 . S
C622 H625 0.929 . S
C623 C622 1.363 . S
C623 C629 1.428 . S
H624 C620 0.930 . S
H625 C622 0.929 . S
S626 N627 1.613 . S
S626 N628 1.610 . S
N627 S626 1.613 . S
N627 C630 1.350 . S
N628 S626 1.610 . S
N628 C629 1.351 . S
C629 C623 1.428 . S
C629 N628 1.351 . S
C629 C630 1.434 . S
C630 C621 1.429 . S
C630 N627 1.350 . S
C630 C629 1.434 . S
C631 C632 1.369 . S
C631 C633 1.419 . S
C631 H635 0.930 . S
C632 C631 1.369 . S
C632 C641 1.429 . S
C633 C631 1.419 . S
C633 C634 1.363 . S
C633 H636 0.929 . S
C634 C633 1.363 . S
C634 C640 1.428 . S
H635 C631 0.930 . S
H636 C633 0.929 . S
S637 N638 1.613 . S
S637 N639 1.610 . S
N638 S637 1.613 . S
N638 C641 1.350 . S
N639 S637 1.610 . S
N639 C640 1.351 . S
C640 C634 1.428 . S
C640 N639 1.351 . S
C640 C641 1.434 . S
C641 C632 1.429 . S
C641 N638 1.350 . S
C641 C640 1.434 . S
C642 C643 1.369 . S
C642 C644 1.419 . S
C642 H646 0.930 . S
C643 C642 1.369 . S
C643 C652 1.429 . S
C644 C642 1.419 . S
C644 C645 1.363 . S
C644 H647 0.929 . S
C645 C644 1.363 . S
C645 C651 1.428 . S
H646 C642 0.930 . S
H647 C644 0.929 . S
S648 N649 1.613 . S
S648 N650 1.610 . S
N649 S648 1.613 . S
N649 C652 1.350 . S
N650 S648 1.610 . S
N650 C651 1.351 . S
C651 C645 1.428 . S
C651 N650 1.351 . S
C651 C652 1.434 . S
C652 C643 1.429 . S
C652 N649 1.350 . S
C652 C651 1.434 . S
C653 C654 1.369 . S
C653 C655 1.419 . S
C653 H657 0.930 . S
C654 C653 1.369 . S
C654 C663 1.429 . S
C655 C653 1.419 . S
C655 C656 1.363 . S
C655 H658 0.929 . S
C656 C655 1.363 . S
C656 C662 1.428 . S
H657 C653 0.930 . S
H658 C655 0.929 . S
S659 N660 1.613 . S
S659 N661 1.610 . S
N660 S659 1.613 . S
N660 C663 1.350 . S
N661 S659 1.610 . S
N661 C662 1.351 . S
C662 C656 1.428 . S
C662 N661 1.351 . S
C662 C663 1.434 . S
C663 C654 1.429 . S
C663 N660 1.350 . S
C663 C662 1.434 . S
C664 C665 1.369 . S
C664 C666 1.419 . S
C664 H668 0.930 . S
C665 C664 1.369 . S
C665 C674 1.429 . S
C666 C664 1.419 . S
C666 C667 1.363 . S
C666 H669 0.929 . S
C667 C666 1.363 . S
C667 C673 1.428 . S
H668 C664 0.930 . S
H669 C666 0.929 . S
S670 N671 1.613 . S
S670 N672 1.610 . S
N671 S670 1.613 . S
N671 C674 1.350 . S
N672 S670 1.610 . S
N672 C673 1.351 . S
C673 C667 1.428 . S
C673 N672 1.351 . S
C673 C674 1.434 . S
C674 C665 1.429 . S
C674 N671 1.350 . S
C674 C673 1.434 . S
C675 C676 1.369 . S
C675 C677 1.419 . S
C675 H679 0.930 . S
C676 C675 1.369 . S
C676 C685 1.429 . S
C677 C675 1.419 . S
C677 C678 1.363 . S
C677 H680 0.929 . S
C678 C677 1.363 . S
C678 C684 1.428 . S
H679 C675 0.930 . S
H680 C677 0.929 . S
S681 N682 1.613 . S
S681 N683 1.610 . S
N682 S681 1.613 . S
N682 C685 1.350 . S
N683 S681 1.610 . S
N683 C684 1.351 . S
C684 C678 1.428 . S
C684 N683 1.351 . S
C684 C685 1.434 . S
C685 C676 1.429 . S
C685 N682 1.350 . S
C685 C684 1.434 . S
C686 C687 1.369 . S
C686 C688 1.419 . S
C686 H690 0.930 . S
C687 C686 1.369 . S
C687 C696 1.429 . S
C688 C686 1.419 . S
C688 C689 1.363 . S
C688 H691 0.929 . S
C689 C688 1.363 . S
C689 C695 1.428 . S
H690 C686 0.930 . S
H691 C688 0.929 . S
S692 N693 1.613 . S
S692 N694 1.610 . S
N693 S692 1.613 . S
N693 C696 1.350 . S
N694 S692 1.610 . S
N694 C695 1.351 . S
C695 C689 1.428 . S
C695 N694 1.351 . S
C695 C696 1.434 . S
C696 C687 1.429 . S
C696 N693 1.350 . S
C696 C695 1.434 . S
C697 C698 1.369 . S
C697 C699 1.419 . S
C697 H701 0.930 . S
C698 C697 1.369 . S
C698 C707 1.429 . S
C699 C697 1.419 . S
C699 C700 1.363 . S
C699 H702 0.929 . S
C700 C699 1.363 . S
C700 C706 1.428 . S
H701 C697 0.930 . S
H702 C699 0.929 . S
S703 N704 1.613 . S
S703 N705 1.610 . S
N704 S703 1.613 . S
N704 C707 1.350 . S
N705 S703 1.610 . S
N705 C706 1.351 . S
C706 C700 1.428 . S
C706 N705 1.351 . S
C706 C707 1.434 . S
C707 C698 1.429 . S
C707 N704 1.350 . S
C707 C706 1.434 . S
C708 C709 1.369 . S
C708 C710 1.419 . S
C708 H712 0.930 . S
C709 C708 1.369 . S
C709 C718 1.429 . S
C710 C708 1.419 . S
C710 C711 1.363 . S
C710 H713 0.929 . S
C711 C710 1.363 . S
C711 C717 1.428 . S
H712 C708 0.930 . S
H713 C710 0.929 . S
S714 N715 1.613 . S
S714 N716 1.610 . S
N715 S714 1.613 . S
N715 C718 1.350 . S
N716 S714 1.610 . S
N716 C717 1.351 . S
C717 C711 1.428 . S
C717 N716 1.351 . S
C717 C718 1.434 . S
C718 C709 1.429 . S
C718 N715 1.350 . S
C718 C717 1.434 . S
C719 C720 1.369 . S
C719 C721 1.419 . S
C719 H723 0.930 . S
C720 C719 1.369 . S
C720 C729 1.429 . S
C721 C719 1.419 . S
C721 C722 1.363 . S
C721 H724 0.929 . S
C722 C721 1.363 . S
C722 C728 1.428 . S
H723 C719 0.930 . S
H724 C721 0.929 . S
S725 N726 1.613 . S
S725 N727 1.610 . S
N726 S725 1.613 . S
N726 C729 1.350 . S
N727 S725 1.610 . S
N727 C728 1.351 . S
C728 C722 1.428 . S
C728 N727 1.351 . S
C728 C729 1.434 . S
C729 C720 1.429 . S
C729 N726 1.350 . S
C729 C728 1.434 . S
C730 C731 1.369 . S
C730 C732 1.419 . S
C730 H734 0.930 . S
C731 C730 1.369 . S
C731 C740 1.429 . S
C732 C730 1.419 . S
C732 C733 1.363 . S
C732 H735 0.929 . S
C733 C732 1.363 . S
C733 C739 1.428 . S
H734 C730 0.930 . S
H735 C732 0.929 . S
S736 N737 1.613 . S
S736 N738 1.610 . S
N737 S736 1.613 . S
N737 C740 1.350 . S
N738 S736 1.610 . S
N738 C739 1.351 . S
C739 C733 1.428 . S
C739 N738 1.351 . S
C739 C740 1.434 . S
C740 C731 1.429 . S
C740 N737 1.350 . S
C740 C739 1.434 . S
C741 C742 1.369 . S
C741 C743 1.419 . S
C741 H745 0.930 . S
C742 C741 1.369 . S
C742 C751 1.429 . S
C743 C741 1.419 . S
C743 C744 1.363 . S
C743 H746 0.929 . S
C744 C743 1.363 . S
C744 C750 1.428 . S
H745 C741 0.930 . S
H746 C743 0.929 . S
S747 N748 1.613 . S
S747 N749 1.610 . S
N748 S747 1.613 . S
N748 C751 1.350 . S
N749 S747 1.610 . S
N749 C750 1.351 . S
C750 C744 1.428 . S
C750 N749 1.351 . S
C750 C751 1.434 . S
C751 C742 1.429 . S
C751 N748 1.350 . S
C751 C750 1.434 . S
C752 C753 1.369 . S
C752 C754 1.419 . S
C752 H756 0.930 . S
C753 C752 1.369 . S
C753 C762 1.429 . S
C754 C752 1.419 . S
C754 C755 1.363 . S
C754 H757 0.929 . S
C755 C754 1.363 . S
C755 C761 1.428 . S
H756 C752 0.930 . S
H757 C754 0.929 . S
S758 N759 1.613 . S
S758 N760 1.610 . S
N759 S758 1.613 . S
N759 C762 1.350 . S
N760 S758 1.610 . S
N760 C761 1.351 . S
C761 C755 1.428 . S
C761 N760 1.351 . S
C761 C762 1.434 . S
C762 C753 1.429 . S
C762 N759 1.350 . S
C762 C761 1.434 . S
C763 C764 1.369 . S
C763 C765 1.419 . S
C763 H767 0.930 . S
C764 C763 1.369 . S
C764 C773 1.429 . S
C765 C763 1.419 . S
C765 C766 1.363 . S
C765 H768 0.929 . S
C766 C765 1.363 . S
C766 C772 1.428 . S
H767 C763 0.930 . S
H768 C765 0.929 . S
S769 N770 1.613 . S
S769 N771 1.610 . S
N770 S769 1.613 . S
N770 C773 1.350 . S
N771 S769 1.610 . S
N771 C772 1.351 . S
C772 C766 1.428 . S
C772 N771 1.351 . S
C772 C773 1.434 . S
C773 C764 1.429 . S
C773 N770 1.350 . S
C773 C772 1.434 . S
C774 C775 1.369 . S
C774 C776 1.419 . S
C774 H778 0.930 . S
C775 C774 1.369 . S
C775 C784 1.429 . S
C776 C774 1.419 . S
C776 C777 1.363 . S
C776 H779 0.929 . S
C777 C776 1.363 . S
C777 C783 1.428 . S
H778 C774 0.930 . S
H779 C776 0.929 . S
S780 N781 1.613 . S
S780 N782 1.610 . S
N781 S780 1.613 . S
N781 C784 1.350 . S
N782 S780 1.610 . S
N782 C783 1.351 . S
C783 C777 1.428 . S
C783 N782 1.351 . S
C783 C784 1.434 . S
C784 C775 1.429 . S
C784 N781 1.350 . S
C784 C783 1.434 . S
C785 C786 1.369 . S
C785 C787 1.419 . S
C785 H789 0.930 . S
C786 C785 1.369 . S
C786 C795 1.429 . S
C787 C785 1.419 . S
C787 C788 1.363 . S
C787 H790 0.929 . S
C788 C787 1.363 . S
C788 C794 1.428 . S
H789 C785 0.930 . S
H790 C787 0.929 . S
S791 N792 1.613 . S
S791 N793 1.610 . S
N792 S791 1.613 . S
N792 C795 1.350 . S
N793 S791 1.610 . S
N793 C794 1.351 . S
C794 C788 1.428 . S
C794 N793 1.351 . S
C794 C795 1.434 . S
C795 C786 1.429 . S
C795 N792 1.350 . S
C795 C794 1.434 . S
C796 C797 1.369 . S
C796 C798 1.419 . S
C796 H800 0.930 . S
C797 C796 1.369 . S
C797 C806 1.429 . S
C798 C796 1.419 . S
C798 C799 1.363 . S
C798 H801 0.929 . S
C799 C798 1.363 . S
C799 C805 1.428 . S
H800 C796 0.930 . S
H801 C798 0.929 . S
S802 N803 1.613 . S
S802 N804 1.610 . S
N803 S802 1.613 . S
N803 C806 1.350 . S
N804 S802 1.610 . S
N804 C805 1.351 . S
C805 C799 1.428 . S
C805 N804 1.351 . S
C805 C806 1.434 . S
C806 C797 1.429 . S
C806 N803 1.350 . S
C806 C805 1.434 . S
C807 C808 1.369 . S
C807 C809 1.419 . S
C807 H811 0.930 . S
C808 C807 1.369 . S
C808 C817 1.429 . S
C809 C807 1.419 . S
C809 C810 1.363 . S
C809 H812 0.929 . S
C810 C809 1.363 . S
C810 C816 1.428 . S
H811 C807 0.930 . S
H812 C809 0.929 . S
S813 N814 1.613 . S
S813 N815 1.610 . S
N814 S813 1.613 . S
N814 C817 1.350 . S
N815 S813 1.610 . S
N815 C816 1.351 . S
C816 C810 1.428 . S
C816 N815 1.351 . S
C816 C817 1.434 . S
C817 C808 1.429 . S
C817 N814 1.350 . S
C817 C816 1.434 . S
C818 C819 1.369 . S
C818 C820 1.419 . S
C818 H822 0.930 . S
C819 C818 1.369 . S
C819 C828 1.429 . S
C820 C818 1.419 . S
C820 C821 1.363 . S
C820 H823 0.929 . S
C821 C820 1.363 . S
C821 C827 1.428 . S
H822 C818 0.930 . S
H823 C820 0.929 . S
S824 N825 1.613 . S
S824 N826 1.610 . S
N825 S824 1.613 . S
N825 C828 1.350 . S
N826 S824 1.610 . S
N826 C827 1.351 . S
C827 C821 1.428 . S
C827 N826 1.351 . S
C827 C828 1.434 . S
C828 C819 1.429 . S
C828 N825 1.350 . S
C828 C827 1.434 . S
C829 C830 1.369 . S
C829 C831 1.419 . S
C829 H833 0.930 . S
C830 C829 1.369 . S
C830 C839 1.429 . S
C831 C829 1.419 . S
C831 C832 1.363 . S
C831 H834 0.929 . S
C832 C831 1.363 . S
C832 C838 1.428 . S
H833 C829 0.930 . S
H834 C831 0.929 . S
S835 N836 1.613 . S
S835 N837 1.610 . S
N836 S835 1.613 . S
N836 C839 1.350 . S
N837 S835 1.610 . S
N837 C838 1.351 . S
C838 C832 1.428 . S
C838 N837 1.351 . S
C838 C839 1.434 . S
C839 C830 1.429 . S
C839 N836 1.350 . S
C839 C838 1.434 . S
C313 C289 1.733 . S
C315 C3 1.729 . S
C324 C23 1.696 . S
C326 C309 1.685 . S
C335 C265 1.626 . S
C337 C29 1.726 . S
C346 C274 1.805 . S
C348 C40 1.810 . S
C357 C276 1.763 . S
C359 C55 1.769 . S
C368 C70 1.636 . S
C370 C287 1.722 . S
C379 C304 1.649 . S
C381 C81 1.755 . S
C390 C94 1.744 . S
C392 C270 1.672 . S
C401 C109 1.635 . S
C403 C252 1.633 . S
C412 C211 1.774 . S
C414 C127 1.688 . S
C423 C140 1.669 . S
C425 C226 1.654 . S
C434 C235 1.730 . S
C436 C148 1.644 . S
C445 C153 1.683 . S
C447 C172 1.764 . S
C456 C114 1.675 . S
C458 C185 1.754 . S
C467 C198 1.740 . S
C469 C122 1.644 . S
C478 C135 1.625 . S
C480 C159 1.712 . S
C489 C18 1.631 . S
C491 C237 1.718 . S
C500 C183 1.775 . S
C502 C92 1.772 . S
C511 C53 1.764 . S
C513 C196 1.768 . S
C522 C157 1.751 . S
C524 C75 1.685 . S
C533 C79 1.775 . S
C535 C170 1.778 . S
C544 C42 1.804 . S
C546 C209 1.791 . S
C555 C1 1.749 . S
C557 C231 1.681 . S
C566 C27 1.737 . S
C568 C257 1.673 . S
C577 C88 1.747 . S
C579 C261 1.684 . S
C588 C278 1.759 . S
C590 C101 1.756 . S
C599 C296 1.734 . S
C601 C62 1.738 . S
C610 C302 1.681 . S
C612 C66 1.700 . S
C621 C36 1.778 . S
C623 C300 1.705 . S
C632 C44 1.722 . S
C634 C263 1.631 . S
C643 C10 1.768 . S
C645 C283 1.769 . S
C654 C291 1.711 . S
C656 C16 1.621 . S
C665 C133 1.674 . S
C667 C179 1.754 . S
C676 C144 1.735 . S
C678 C192 1.806 . S
C687 C105 1.684 . S
C689 C205 1.743 . S
C698 C120 1.647 . S
C700 C166 1.730 . S
C709 C118 1.692 . S
C711 C248 1.695 . S
C720 C218 1.789 . S
C722 C131 1.717 . S
C731 C146 1.679 . S
C733 C222 1.690 . S
C742 C107 1.623 . S
C744 C239 1.712 . S
C753 C161 1.719 . S
C755 C96 1.722 . S
C764 C213 1.736 . S
C766 C14 1.664 . S
C775 C31 1.757 . S
C777 C224 1.654 . S
C786 C244 1.753 . S
C788 C49 1.748 . S
C797 C250 1.666 . S
C799 C5 1.762 . S
C808 C68 1.655 . S
C810 C187 1.762 . S
C819 C200 1.733 . S
C821 C83 1.736 . S
C830 C174 1.727 . S
C832 C57 1.725 . S
