# Generated by pormake.
# Topology lvt-a, (3)-cn, num edge types: 1
# Building blocks:
#     Node 0, Type 0, BuildingBlock: OLANEW_clean_sbu_2, # of connection points: 3
#     Node 1, Type 0, BuildingBlock: OLANEW_clean_sbu_2, # of connection points: 3
#     Node 2, Type 0, BuildingBlock: OLANEW_clean_sbu_2, # of connection points: 3
#     Node 3, Type 0, BuildingBlock: OLANEW_clean_sbu_2, # of connection points: 3
#     Node 4, Type 0, BuildingBlock: OLANEW_clean_sbu_2, # of connection points: 3
#     Node 5, Type 0, BuildingBlock: OLANEW_clean_sbu_2, # of connection points: 3
#     Node 6, Type 0, BuildingBlock: OLANEW_clean_sbu_2, # of connection points: 3
#     Node 7, Type 0, BuildingBlock: OLANEW_clean_sbu_2, # of connection points: 3
#     Node 8, Type 0, BuildingBlock: OLANEW_clean_sbu_2, # of connection points: 3
#     Node 9, Type 0, BuildingBlock: OLANEW_clean_sbu_2, # of connection points: 3
#     Node 10, Type 0, BuildingBlock: OLANEW_clean_sbu_2, # of connection points: 3
#     Node 11, Type 0, BuildingBlock: OLANEW_clean_sbu_2, # of connection points: 3
#     Node 12, Type 0, BuildingBlock: OLANEW_clean_sbu_2, # of connection points: 3
#     Node 13, Type 0, BuildingBlock: OLANEW_clean_sbu_2, # of connection points: 3
#     Node 14, Type 0, BuildingBlock: OLANEW_clean_sbu_2, # of connection points: 3
#     Node 15, Type 0, BuildingBlock: OLANEW_clean_sbu_2, # of connection points: 3
#     Node 16, Type 0, BuildingBlock: OLANEW_clean_sbu_2, # of connection points: 3
#     Node 17, Type 0, BuildingBlock: OLANEW_clean_sbu_2, # of connection points: 3
#     Node 18, Type 0, BuildingBlock: OLANEW_clean_sbu_2, # of connection points: 3
#     Node 19, Type 0, BuildingBlock: OLANEW_clean_sbu_2, # of connection points: 3
#     Node 20, Type 0, BuildingBlock: OLANEW_clean_sbu_2, # of connection points: 3
#     Node 21, Type 0, BuildingBlock: OLANEW_clean_sbu_2, # of connection points: 3
#     Node 22, Type 0, BuildingBlock: OLANEW_clean_sbu_2, # of connection points: 3
#     Node 23, Type 0, BuildingBlock: OLANEW_clean_sbu_2, # of connection points: 3
#     Node 24, Type 0, BuildingBlock: OLANEW_clean_sbu_2, # of connection points: 3
#     Node 25, Type 0, BuildingBlock: OLANEW_clean_sbu_2, # of connection points: 3
#     Node 26, Type 0, BuildingBlock: OLANEW_clean_sbu_2, # of connection points: 3
#     Node 27, Type 0, BuildingBlock: OLANEW_clean_sbu_2, # of connection points: 3
#     Node 28, Type 0, BuildingBlock: OLANEW_clean_sbu_2, # of connection points: 3
#     Node 29, Type 0, BuildingBlock: OLANEW_clean_sbu_2, # of connection points: 3
#     Node 30, Type 0, BuildingBlock: OLANEW_clean_sbu_2, # of connection points: 3
#     Node 31, Type 0, BuildingBlock: OLANEW_clean_sbu_2, # of connection points: 3
#     Edge 32, Type (0, 0), BuildingBlock: TEMPAE_clean_linker_10, # of connection points: 2
#     Edge 33, Type (0, 0), BuildingBlock: TEMPAE_clean_linker_10, # of connection points: 2
#     Edge 34, Type (0, 0), BuildingBlock: TEMPAE_clean_linker_10, # of connection points: 2
#     Edge 35, Type (0, 0), BuildingBlock: TEMPAE_clean_linker_10, # of connection points: 2
#     Edge 36, Type (0, 0), BuildingBlock: TEMPAE_clean_linker_10, # of connection points: 2
#     Edge 37, Type (0, 0), BuildingBlock: TEMPAE_clean_linker_10, # of connection points: 2
#     Edge 38, Type (0, 0), BuildingBlock: TEMPAE_clean_linker_10, # of connection points: 2
#     Edge 39, Type (0, 0), BuildingBlock: TEMPAE_clean_linker_10, # of connection points: 2
#     Edge 40, Type (0, 0), BuildingBlock: TEMPAE_clean_linker_10, # of connection points: 2
#     Edge 41, Type (0, 0), BuildingBlock: TEMPAE_clean_linker_10, # of connection points: 2
#     Edge 42, Type (0, 0), BuildingBlock: TEMPAE_clean_linker_10, # of connection points: 2
#     Edge 43, Type (0, 0), BuildingBlock: TEMPAE_clean_linker_10, # of connection points: 2
#     Edge 44, Type (0, 0), BuildingBlock: TEMPAE_clean_linker_10, # of connection points: 2
#     Edge 45, Type (0, 0), BuildingBlock: TEMPAE_clean_linker_10, # of connection points: 2
#     Edge 46, Type (0, 0), BuildingBlock: TEMPAE_clean_linker_10, # of connection points: 2
#     Edge 47, Type (0, 0), BuildingBlock: TEMPAE_clean_linker_10, # of connection points: 2
#     Edge 48, Type (0, 0), BuildingBlock: TEMPAE_clean_linker_10, # of connection points: 2
#     Edge 49, Type (0, 0), BuildingBlock: TEMPAE_clean_linker_10, # of connection points: 2
#     Edge 50, Type (0, 0), BuildingBlock: TEMPAE_clean_linker_10, # of connection points: 2
#     Edge 51, Type (0, 0), BuildingBlock: TEMPAE_clean_linker_10, # of connection points: 2
#     Edge 52, Type (0, 0), BuildingBlock: TEMPAE_clean_linker_10, # of connection points: 2
#     Edge 53, Type (0, 0), BuildingBlock: TEMPAE_clean_linker_10, # of connection points: 2
#     Edge 54, Type (0, 0), BuildingBlock: TEMPAE_clean_linker_10, # of connection points: 2
#     Edge 55, Type (0, 0), BuildingBlock: TEMPAE_clean_linker_10, # of connection points: 2
#     Edge 56, Type (0, 0), BuildingBlock: TEMPAE_clean_linker_10, # of connection points: 2
#     Edge 57, Type (0, 0), BuildingBlock: TEMPAE_clean_linker_10, # of connection points: 2
#     Edge 58, Type (0, 0), BuildingBlock: TEMPAE_clean_linker_10, # of connection points: 2
#     Edge 59, Type (0, 0), BuildingBlock: TEMPAE_clean_linker_10, # of connection points: 2
#     Edge 60, Type (0, 0), BuildingBlock: TEMPAE_clean_linker_10, # of connection points: 2
#     Edge 61, Type (0, 0), BuildingBlock: TEMPAE_clean_linker_10, # of connection points: 2
#     Edge 62, Type (0, 0), BuildingBlock: TEMPAE_clean_linker_10, # of connection points: 2
#     Edge 63, Type (0, 0), BuildingBlock: TEMPAE_clean_linker_10, # of connection points: 2
#     Edge 64, Type (0, 0), BuildingBlock: TEMPAE_clean_linker_10, # of connection points: 2
#     Edge 65, Type (0, 0), BuildingBlock: TEMPAE_clean_linker_10, # of connection points: 2
#     Edge 66, Type (0, 0), BuildingBlock: TEMPAE_clean_linker_10, # of connection points: 2
#     Edge 67, Type (0, 0), BuildingBlock: TEMPAE_clean_linker_10, # of connection points: 2
#     Edge 68, Type (0, 0), BuildingBlock: TEMPAE_clean_linker_10, # of connection points: 2
#     Edge 69, Type (0, 0), BuildingBlock: TEMPAE_clean_linker_10, # of connection points: 2
#     Edge 70, Type (0, 0), BuildingBlock: TEMPAE_clean_linker_10, # of connection points: 2
#     Edge 71, Type (0, 0), BuildingBlock: TEMPAE_clean_linker_10, # of connection points: 2
#     Edge 72, Type (0, 0), BuildingBlock: TEMPAE_clean_linker_10, # of connection points: 2
#     Edge 73, Type (0, 0), BuildingBlock: TEMPAE_clean_linker_10, # of connection points: 2
#     Edge 74, Type (0, 0), BuildingBlock: TEMPAE_clean_linker_10, # of connection points: 2
#     Edge 75, Type (0, 0), BuildingBlock: TEMPAE_clean_linker_10, # of connection points: 2
#     Edge 76, Type (0, 0), BuildingBlock: TEMPAE_clean_linker_10, # of connection points: 2
#     Edge 77, Type (0, 0), BuildingBlock: TEMPAE_clean_linker_10, # of connection points: 2
#     Edge 78, Type (0, 0), BuildingBlock: TEMPAE_clean_linker_10, # of connection points: 2
#     Edge 79, Type (0, 0), BuildingBlock: TEMPAE_clean_linker_10, # of connection points: 2
# Relax obj value: 0.007
# Max RMSD: 0.027
# Mean RMSD: 0.027
data_MOF--net-lvt-a--node1-OLANEW_clean_sbu_2--edge1-TEMPAE_clean_linker_10
_symmetry_space_group_name_H-M    P1
_symmetry_Int_Tables_number       1
_symmetry_cell_setting            triclinic
loop_
_symmetry_equiv_pos_as_xyz
'x, y, z'
_cell_length_a     94.179878
_cell_length_b     94.175604
_cell_length_c     79.700669
_cell_angle_alpha  90.014102
_cell_angle_beta   90.000371
_cell_angle_gamma 90.000641
loop_
_atom_site_label
_atom_site_type_symbol
_atom_site_fract_x
_atom_site_fract_y
_atom_site_fract_z
_atom_type_partial_charge
O0 O 0.05693 0.62495 0.03938 0.0
Cd1 Cd 0.08194 0.6317 0.03911 0.0
O2 O 0.06393 0.60317 0.03496 0.0
Cd3 Cd 0.06314 0.58009 0.0317 0.0
O4 O 0.0644 0.55802 0.02344 0.0
C5 C 0.05838 0.55461 0.00975 0.0
O6 O 0.05143 0.5644 0.00136 0.0
C7 C 0.05383 0.61194 0.03734 0.0
C8 C 0.09088 0.63796 0.0716 0.0
O9 O 0.08635 0.64775 0.06179 0.0
O10 O 0.09135 0.62523 0.06595 0.0
O11 O 0.62426 0.80133 0.27901 0.0
Cd12 Cd 0.62083 0.82702 0.27838 0.0
O13 O 0.64708 0.80528 0.27685 0.0
Cd14 Cd 0.66981 0.80034 0.27639 0.0
O15 O 0.6927 0.79827 0.27261 0.0
C16 C 0.69756 0.79938 0.25779 0.0
O17 O 0.68862 0.80142 0.24536 0.0
C18 C 0.63684 0.79652 0.27821 0.0
C19 C 0.6146 0.83686 0.31052 0.0
O20 O 0.60467 0.83352 0.30024 0.0
O21 O 0.62747 0.83572 0.30549 0.0
O22 O 0.4439 0.37299 0.52921 0.0
Cd23 Cd 0.41851 0.36778 0.5293 0.0
O24 O 0.43826 0.39541 0.5264 0.0
Cd25 Cd 0.44238 0.41801 0.5222 0.0
O26 O 0.44492 0.4407 0.51756 0.0
C27 C 0.45651 0.44581 0.51204 0.0
O28 O 0.46724 0.43721 0.50922 0.0
C29 C 0.44774 0.38588 0.52801 0.0
C30 C 0.40948 0.3617 0.56181 0.0
O31 O 0.41338 0.35177 0.5518 0.0
O32 O 0.4097 0.3745 0.55635 0.0
O33 O 0.87378 0.19841 0.78451 0.0
Cd34 Cd 0.8779 0.17282 0.78375 0.0
O35 O 0.8513 0.19413 0.77973 0.0
Cd36 Cd 0.82863 0.19886 0.777 0.0
O37 O 0.80596 0.20077 0.7716 0.0
C38 C 0.80112 0.19442 0.75874 0.0
O39 O 0.80994 0.18717 0.74925 0.0
C40 C 0.86123 0.20302 0.78241 0.0
C41 C 0.88495 0.16311 0.8157 0.0
O42 O 0.89459 0.16683 0.80524 0.0
O43 O 0.87197 0.1638 0.81094 0.0
O44 O 0.04494 0.41114 0.95647 0.0
Cd45 Cd 0.0706 0.41543 0.95736 0.0
O46 O 0.04292 0.42001 0.93105 0.0
Cd47 Cd 0.06155 0.43319 0.93557 0.0
O48 O 0.06763 0.45282 0.94823 0.0
C49 C 0.06 0.4559 0.96088 0.0
O50 O 0.05005 0.44692 0.96547 0.0
C51 C 0.03762 0.41314 0.94326 0.0
C52 C 0.08395 0.3998 0.932 0.0
O53 O 0.08167 0.39431 0.94646 0.0
O54 O 0.0802 0.41271 0.92967 0.0
O55 O 0.87743 0.79594 0.21538 0.0
Cd56 Cd 0.88167 0.82147 0.21714 0.0
O57 O 0.85497 0.80024 0.22024 0.0
Cd58 Cd 0.83274 0.79505 0.22559 0.0
O59 O 0.81015 0.79244 0.23111 0.0
C60 C 0.80303 0.80331 0.2354 0.0
O61 O 0.80953 0.81563 0.2364 0.0
C62 C 0.86483 0.79137 0.21716 0.0
C63 C 0.88748 0.83249 0.18542 0.0
O64 O 0.89751 0.82829 0.1951 0.0
O65 O 0.8747 0.83161 0.19084 0.0
O66 O 0.44668 0.62246 0.46076 0.0
Cd67 Cd 0.42086 0.62478 0.46082 0.0
O68 O 0.44399 0.59958 0.46432 0.0
Cd69 Cd 0.45026 0.57723 0.46614 0.0
O70 O 0.45349 0.55457 0.47059 0.0
C71 C 0.45885 0.55035 0.48435 0.0
O72 O 0.46272 0.55983 0.49555 0.0
C73 C 0.45218 0.61022 0.46243 0.0
C74 C 0.41144 0.63323 0.42922 0.0
O75 O 0.41435 0.64238 0.44061 0.0
O76 O 0.41281 0.62004 0.43287 0.0
O77 O 0.62552 0.19575 0.6969 0.0
Cd78 Cd 0.62153 0.17022 0.69964 0.0
O79 O 0.64745 0.19194 0.70477 0.0
Cd80 Cd 0.66895 0.19756 0.71294 0.0
O81 O 0.69109 0.20056 0.72036 0.0
C82 C 0.69656 0.19201 0.73086 0.0
O83 O 0.68863 0.1818 0.73709 0.0
C84 C 0.63778 0.20059 0.70026 0.0
C85 C 0.61426 0.15722 0.6694 0.0
O86 O 0.60472 0.16237 0.67913 0.0
O87 O 0.62727 0.15833 0.67392 0.0
O88 O 0.92531 0.4213 0.93704 0.0
Cd89 Cd 0.89978 0.42543 0.93979 0.0
O90 O 0.92552 0.4047 0.95647 0.0
Cd91 Cd 0.90566 0.41328 0.96637 0.0
O92 O 0.89943 0.43341 0.97801 0.0
C93 C 0.90822 0.44335 0.97503 0.0
O94 O 0.9192 0.44057 0.9654 0.0
C95 C 0.93186 0.41154 0.94492 0.0
C96 C 0.88488 0.40945 0.91614 0.0
O97 O 0.88817 0.42243 0.91326 0.0
O98 O 0.88853 0.40408 0.93027 0.0
O99 O 0.3349 0.18771 0.70196 0.0
Cd100 Cd 0.32738 0.16285 0.70096 0.0
O101 O 0.3292 0.18962 0.72863 0.0
Cd102 Cd 0.31851 0.16912 0.73028 0.0
O103 O 0.29876 0.15829 0.73663 0.0
C104 C 0.28804 0.16099 0.72749 0.0
O105 O 0.28981 0.16894 0.7141 0.0
C106 C 0.33445 0.19501 0.71538 0.0
C107 C 0.34017 0.14778 0.67485 0.0
O108 O 0.32788 0.15342 0.67299 0.0
O109 O 0.34642 0.14933 0.68902 0.0
O110 O 0.56355 0.58806 0.44533 0.0
Cd111 Cd 0.58879 0.58194 0.44398 0.0
O112 O 0.56571 0.59888 0.46966 0.0
Cd113 Cd 0.58652 0.58933 0.47375 0.0
O114 O 0.59497 0.56853 0.48059 0.0
C115 C 0.58678 0.55842 0.47636 0.0
O116 O 0.57513 0.56147 0.46803 0.0
C117 C 0.55813 0.59543 0.45709 0.0
C118 C 0.60282 0.59635 0.41824 0.0
O119 O 0.59806 0.58373 0.41602 0.0
O120 O 0.60092 0.60215 0.43262 0.0
O121 O 0.15891 0.81402 0.20161 0.0
Cd122 Cd 0.16545 0.839 0.19834 0.0
O123 O 0.1686 0.81263 0.22667 0.0
Cd124 Cd 0.17939 0.83313 0.22587 0.0
O125 O 0.19982 0.84325 0.23087 0.0
C126 C 0.2071 0.83685 0.24197 0.0
O127 O 0.20148 0.82574 0.24944 0.0
C128 C 0.16147 0.80697 0.21488 0.0
C129 C 0.15147 0.85161 0.17126 0.0
O130 O 0.16401 0.84651 0.16961 0.0
O131 O 0.14555 0.85075 0.18571 0.0
O132 O 0.94673 0.57442 0.05796 0.0
Cd133 Cd 0.92196 0.56684 0.06058 0.0
O134 O 0.94384 0.58068 0.03159 0.0
Cd135 Cd 0.92374 0.56926 0.02937 0.0
O136 O 0.91249 0.54978 0.0226 0.0
C137 C 0.91629 0.53847 0.03006 0.0
O138 O 0.92585 0.53937 0.04203 0.0
C139 C 0.95158 0.58011 0.04466 0.0
C140 C 0.9072 0.58306 0.08421 0.0
O141 O 0.91263 0.57103 0.08818 0.0
O142 O 0.90875 0.58741 0.06909 0.0
O143 O 0.16595 0.18746 0.81407 0.0
Cd144 Cd 0.17225 0.16225 0.81334 0.0
O145 O 0.15213 0.18587 0.79189 0.0
Cd146 Cd 0.16102 0.16518 0.78548 0.0
O147 O 0.18091 0.15631 0.77609 0.0
C148 C 0.19139 0.16457 0.77847 0.0
O149 O 0.18918 0.17658 0.78645 0.0
C150 C 0.15714 0.19314 0.80399 0.0
C151 C 0.15701 0.14674 0.83712 0.0
O152 O 0.16956 0.15129 0.84031 0.0
O153 O 0.1517 0.1495 0.82267 0.0
O154 O 0.55911 0.41057 0.54263 0.0
Cd155 Cd 0.58421 0.41716 0.54401 0.0
O156 O 0.55682 0.4187 0.5169 0.0
Cd157 Cd 0.57756 0.42899 0.51593 0.0
O158 O 0.58886 0.44875 0.5108 0.0
C159 C 0.58596 0.45921 0.52027 0.0
O160 O 0.57752 0.45713 0.53316 0.0
C161 C 0.55156 0.41241 0.52957 0.0
C162 C 0.59829 0.40329 0.57011 0.0
O163 O 0.59325 0.41581 0.57212 0.0
O164 O 0.59668 0.39734 0.55578 0.0
O165 O 0.33954 0.81921 0.3094 0.0
Cd166 Cd 0.33244 0.84414 0.31196 0.0
O167 O 0.34836 0.82244 0.28413 0.0
Cd168 Cd 0.33763 0.84285 0.28144 0.0
O169 O 0.31682 0.85127 0.27465 0.0
C170 C 0.3116 0.84614 0.26124 0.0
O171 O 0.31944 0.83742 0.25229 0.0
C172 C 0.34625 0.81443 0.29674 0.0
C173 C 0.34839 0.85887 0.33585 0.0
O174 O 0.33624 0.85361 0.33957 0.0
O175 O 0.35303 0.8571 0.32087 0.0
O176 O 0.54464 0.09156 0.54141 0.0
Cd177 Cd 0.57036 0.08772 0.54058 0.0
O178 O 0.54276 0.08146 0.56618 0.0
Cd179 Cd 0.56162 0.06876 0.56109 0.0
O180 O 0.5677 0.04916 0.54838 0.0
C181 C 0.55982 0.04592 0.536 0.0
O182 O 0.54965 0.05475 0.53166 0.0
C183 C 0.53734 0.08881 0.55444 0.0
C184 C 0.58308 0.10275 0.56687 0.0
O185 O 0.581 0.10863 0.55258 0.0
O186 O 0.57945 0.08973 0.56859 0.0
O187 O 0.12987 0.30443 0.8058 0.0
Cd188 Cd 0.12698 0.33009 0.80287 0.0
O189 O 0.15213 0.3073 0.79869 0.0
Cd190 Cd 0.17421 0.30113 0.79397 0.0
O191 O 0.19642 0.29746 0.78737 0.0
C192 C 0.19963 0.29187 0.77335 0.0
O193 O 0.18938 0.28805 0.76311 0.0
C194 C 0.14196 0.29906 0.8027 0.0
C195 C 0.1186 0.34343 0.8325 0.0
O196 O 0.10942 0.33852 0.82215 0.0
O197 O 0.13179 0.34191 0.82891 0.0
O198 O 0.94514 0.87563 0.03497 0.0
Cd199 Cd 0.91947 0.87205 0.03559 0.0
O200 O 0.94119 0.89816 0.0301 0.0
Cd201 Cd 0.94671 0.92017 0.02405 0.0
O202 O 0.94995 0.94263 0.0183 0.0
C203 C 0.93992 0.94948 0.01134 0.0
O204 O 0.92807 0.94278 0.00776 0.0
C205 C 0.94994 0.88807 0.03259 0.0
C206 C 0.91079 0.86408 0.06766 0.0
O207 O 0.91395 0.85474 0.05657 0.0
O208 O 0.91159 0.87721 0.0635 0.0
O209 O 0.37813 0.7048 0.28422 0.0
Cd210 Cd 0.38165 0.67922 0.2814 0.0
O211 O 0.35538 0.70107 0.28101 0.0
Cd212 Cd 0.33258 0.70569 0.28013 0.0
O213 O 0.30962 0.70666 0.27624 0.0
C214 C 0.30447 0.70024 0.26359 0.0
O215 O 0.31315 0.69353 0.2534 0.0
C216 C 0.36558 0.7097 0.28345 0.0
C217 C 0.38744 0.66726 0.31264 0.0
O218 O 0.39749 0.6715 0.30301 0.0
O219 O 0.37464 0.66852 0.30738 0.0
O220 O 0.55536 0.87587 0.46176 0.0
Cd221 Cd 0.58033 0.86892 0.46212 0.0
O222 O 0.56261 0.89772 0.46497 0.0
Cd223 Cd 0.56213 0.9209 0.46724 0.0
O224 O 0.56351 0.94311 0.47493 0.0
C225 C 0.55776 0.94668 0.48873 0.0
O226 O 0.55104 0.93698 0.49752 0.0
C227 C 0.5524 0.88897 0.46321 0.0
C228 C 0.58943 0.86248 0.42975 0.0
O229 O 0.58471 0.85277 0.43954 0.0
O230 O 0.58999 0.87522 0.43535 0.0
O231 O 0.37448 0.3025 0.71406 0.0
Cd232 Cd 0.37975 0.32788 0.71416 0.0
O233 O 0.35232 0.30811 0.71893 0.0
Cd234 Cd 0.32997 0.30417 0.72495 0.0
O235 O 0.3075 0.30228 0.73129 0.0
C236 C 0.30233 0.29085 0.73716 0.0
O237 O 0.31071 0.27984 0.73932 0.0
C238 C 0.36169 0.29864 0.71628 0.0
C239 C 0.38567 0.33715 0.68171 0.0
O240 O 0.39564 0.33315 0.69159 0.0
O241 O 0.3729 0.33691 0.68727 0.0
O242 O 0.94824 0.128 0.96588 0.0
Cd243 Cd 0.92266 0.13214 0.96647 0.0
O244 O 0.94371 0.10539 0.96907 0.0
Cd245 Cd 0.94813 0.08257 0.97048 0.0
O246 O 0.94961 0.05969 0.97469 0.0
C247 C 0.946 0.05485 0.98895 0.0
O248 O 0.94177 0.06379 0.00058 0.0
C249 C 0.95273 0.11534 0.96726 0.0
C250 C 0.91278 0.13818 0.9343 0.0
O251 O 0.91656 0.14815 0.94431 0.0
O252 O 0.91353 0.12535 0.93959 0.0
O253 O 0.12447 0.69857 0.22269 0.0
Cd254 Cd 0.12007 0.67305 0.22366 0.0
O255 O 0.14705 0.69385 0.22602 0.0
Cd256 Cd 0.16951 0.69888 0.2301 0.0
O257 O 0.19217 0.70211 0.23464 0.0
C258 C 0.19871 0.69344 0.2441 0.0
O259 O 0.1916 0.6829 0.25089 0.0
C260 C 0.13721 0.70291 0.2238 0.0
C261 C 0.1143 0.6631 0.19145 0.0
O262 O 0.10424 0.66686 0.20134 0.0
O263 O 0.12708 0.66384 0.19691 0.0
O264 O 0.44462 0.92556 0.44457 0.0
Cd265 Cd 0.41969 0.93277 0.44288 0.0
O266 O 0.443 0.9214 0.47167 0.0
Cd267 Cd 0.42303 0.93303 0.47431 0.0
O268 O 0.41192 0.95235 0.48204 0.0
C269 C 0.41116 0.96282 0.47202 0.0
O270 O 0.4161 0.96135 0.4567 0.0
C271 C 0.45009 0.92091 0.4581 0.0
C272 C 0.40453 0.91646 0.4197 0.0
O273 O 0.40659 0.91204 0.43471 0.0
O274 O 0.40964 0.92859 0.41563 0.0
O275 O 0.84388 0.67969 0.19686 0.0
Cd276 Cd 0.83763 0.65451 0.19501 0.0
O277 O 0.83557 0.68125 0.22259 0.0
Cd278 Cd 0.82492 0.66067 0.22296 0.0
O279 O 0.80439 0.65109 0.22878 0.0
C280 C 0.79384 0.65621 0.22089 0.0
O281 O 0.79623 0.66569 0.20913 0.0
C282 C 0.84193 0.68687 0.21018 0.0
C283 C 0.85298 0.64012 0.17029 0.0
O284 O 0.84051 0.64494 0.16728 0.0
O285 O 0.85822 0.64217 0.18493 0.0
O286 O 0.06181 0.08408 0.94947 0.0
Cd287 Cd 0.08651 0.07613 0.94775 0.0
O288 O 0.06508 0.09497 0.97358 0.0
Cd289 Cd 0.08536 0.08424 0.97733 0.0
O290 O 0.09417 0.06352 0.98381 0.0
C291 C 0.08595 0.05328 0.98011 0.0
O292 O 0.07391 0.05615 0.97249 0.0
C293 C 0.05709 0.09194 0.96121 0.0
C294 C 0.10171 0.09135 0.92366 0.0
O295 O 0.09613 0.07929 0.92013 0.0
O296 O 0.10011 0.09618 0.93858 0.0
O297 O 0.65903 0.31308 0.68877 0.0
Cd298 Cd 0.66487 0.33839 0.68879 0.0
O299 O 0.66338 0.31089 0.71576 0.0
Cd300 Cd 0.67326 0.33172 0.71858 0.0
O301 O 0.69277 0.34245 0.72618 0.0
C302 C 0.70369 0.3402 0.71721 0.0
O303 O 0.70225 0.3328 0.70333 0.0
C304 C 0.65912 0.30553 0.70201 0.0
C305 C 0.6505 0.35277 0.66331 0.0
O306 O 0.6632 0.34824 0.66111 0.0
O307 O 0.64463 0.35054 0.67757 0.0
O308 O 0.4255 0.07741 0.56038 0.0
Cd309 Cd 0.39992 0.07306 0.55926 0.0
O310 O 0.42431 0.09652 0.54457 0.0
Cd311 Cd 0.40395 0.08881 0.53514 0.0
O312 O 0.39771 0.0689 0.52303 0.0
C313 C 0.40836 0.06097 0.52013 0.0
O314 O 0.42104 0.06564 0.52424 0.0
C315 C 0.43144 0.08829 0.55401 0.0
C316 C 0.38611 0.08926 0.58361 0.0
O317 O 0.38964 0.07634 0.5865 0.0
O318 O 0.38898 0.09445 0.56915 0.0
O319 O 0.66384 0.68651 0.29843 0.0
Cd320 Cd 0.67057 0.66147 0.30066 0.0
O321 O 0.65453 0.68369 0.27334 0.0
Cd322 Cd 0.6648 0.6631 0.27019 0.0
O323 O 0.68508 0.65346 0.26339 0.0
C324 C 0.69585 0.66028 0.26863 0.0
O325 O 0.69378 0.67151 0.27811 0.0
C326 C 0.65698 0.69153 0.28602 0.0
C327 C 0.65574 0.64766 0.32622 0.0
O328 O 0.66817 0.65275 0.3288 0.0
O329 O 0.65033 0.64911 0.31157 0.0
O330 O 0.06264 0.9063 0.04583 0.0
Cd331 Cd 0.08797 0.91195 0.04698 0.0
O332 O 0.06077 0.91334 0.01962 0.0
Cd333 Cd 0.08168 0.92328 0.01841 0.0
O334 O 0.09233 0.94336 0.0131 0.0
C335 C 0.08935 0.95368 0.02276 0.0
O336 O 0.08129 0.95126 0.03592 0.0
C337 C 0.05524 0.90777 0.0326 0.0
C338 C 0.10143 0.89877 0.07403 0.0
O339 O 0.09688 0.91156 0.07519 0.0
O340 O 0.09961 0.89222 0.06009 0.0
O341 O 0.82892 0.31156 0.80135 0.0
Cd342 Cd 0.82025 0.33601 0.80306 0.0
O343 O 0.84147 0.31558 0.77857 0.0
Cd344 Cd 0.83088 0.3359 0.77457 0.0
O345 O 0.81056 0.3447 0.76648 0.0
C346 C 0.80028 0.33613 0.7685 0.0
O347 O 0.80285 0.32377 0.77553 0.0
C348 C 0.83767 0.30724 0.7903 0.0
C349 C 0.83422 0.3515 0.82793 0.0
O350 O 0.82232 0.34539 0.83093 0.0
O351 O 0.83949 0.35028 0.81317 0.0
C352 C 0.0519 0.47344 0.98237 0.0
C353 C 0.06129 0.46985 0.96937 0.0
C354 C 0.05207 0.48701 0.98962 0.0
C355 C 0.0619 0.49724 0.9838 0.0
C356 C 0.07176 0.49354 0.9711 0.0
C357 C 0.07132 0.47988 0.96401 0.0
C358 C 0.04138 0.49054 0.00313 0.0
C359 C 0.08248 0.50414 0.96467 0.0
C360 C 0.05165 0.53599 0.98885 0.0
C361 C 0.05937 0.53993 0.00316 0.0
C362 C 0.05248 0.52216 0.98237 0.0
C363 C 0.0613 0.51202 0.99034 0.0
C364 C 0.0692 0.51594 0.00472 0.0
C365 C 0.06811 0.52984 0.011 0.0
C366 C 0.0438 0.51836 0.96707 0.0
C367 C 0.07876 0.50543 0.0135 0.0
H368 H 0.04414 0.46575 0.98665 0.0
H369 H 0.07865 0.47718 0.95402 0.0
H370 H 0.04685 0.49477 0.01439 0.0
H371 H 0.03408 0.49894 0.99857 0.0
H372 H 0.03496 0.48117 0.00689 0.0
H373 H 0.09004 0.49931 0.95562 0.0
H374 H 0.0769 0.51303 0.95835 0.0
H375 H 0.08859 0.50873 0.97526 0.0
H376 H 0.04487 0.5437 0.98272 0.0
H377 H 0.07415 0.5328 0.02203 0.0
H378 H 0.03634 0.50963 0.97015 0.0
H379 H 0.05087 0.51449 0.95692 0.0
H380 H 0.03759 0.52752 0.96225 0.0
H381 H 0.07242 0.49631 0.01813 0.0
H382 H 0.08447 0.51025 0.02429 0.0
H383 H 0.0867 0.50115 0.00454 0.0
C384 C 0.77983 0.81436 0.24339 0.0
C385 C 0.78763 0.80221 0.23905 0.0
C386 C 0.76521 0.81357 0.24666 0.0
C387 C 0.7582 0.8003 0.24559 0.0
C388 C 0.76602 0.78797 0.24134 0.0
C389 C 0.78064 0.78907 0.23811 0.0
C390 C 0.75724 0.82696 0.25114 0.0
C391 C 0.75891 0.77364 0.24009 0.0
C392 C 0.72267 0.79692 0.26786 0.0
C393 C 0.71307 0.79899 0.25461 0.0
C394 C 0.73739 0.79709 0.26506 0.0
C395 C 0.74264 0.79941 0.24864 0.0
C396 C 0.73301 0.8013 0.23519 0.0
C397 C 0.71835 0.80105 0.23833 0.0
C398 C 0.74733 0.795 0.27972 0.0
C399 C 0.7382 0.80382 0.21751 0.0
H400 H 0.78513 0.82455 0.24417 0.0
H401 H 0.78658 0.77962 0.23478 0.0
H402 H 0.74878 0.82896 0.24175 0.0
H403 H 0.75198 0.8257 0.2635 0.0
H404 H 0.76429 0.83641 0.25166 0.0
H405 H 0.76653 0.76503 0.23695 0.0
H406 H 0.75365 0.77099 0.25215 0.0
H407 H 0.75053 0.77392 0.23032 0.0
H408 H 0.71869 0.79529 0.28047 0.0
H409 H 0.71103 0.80265 0.22801 0.0
H410 H 0.75395 0.80464 0.28147 0.0
H411 H 0.75467 0.78604 0.27716 0.0
H412 H 0.74156 0.79282 0.2916 0.0
H413 H 0.74452 0.81375 0.21703 0.0
H414 H 0.72934 0.80469 0.20837 0.0
H415 H 0.74528 0.79503 0.21354 0.0
C416 C 0.47015 0.46679 0.5013 0.0
C417 C 0.45771 0.4612 0.50839 0.0
C418 C 0.47121 0.48129 0.49734 0.0
C419 C 0.45958 0.49041 0.50058 0.0
C420 C 0.44707 0.48486 0.50794 0.0
C421 C 0.44628 0.47034 0.51173 0.0
C422 C 0.48472 0.48683 0.48951 0.0
C423 C 0.43445 0.49425 0.51165 0.0
C424 C 0.46492 0.53032 0.50375 0.0
C425 C 0.45989 0.53496 0.48812 0.0
C426 C 0.46518 0.51582 0.50785 0.0
C427 C 0.46031 0.50572 0.49603 0.0
C428 C 0.45555 0.5103 0.48007 0.0
C429 C 0.45539 0.52486 0.47631 0.0
C430 C 0.47035 0.51134 0.52499 0.0
C431 C 0.45031 0.49984 0.46711 0.0
H432 H 0.47903 0.45982 0.49868 0.0
H433 H 0.43664 0.46613 0.51725 0.0
H434 H 0.48239 0.49131 0.47693 0.0
H435 H 0.48916 0.49555 0.49726 0.0
H436 H 0.49291 0.47842 0.48814 0.0
H437 H 0.42563 0.48834 0.51772 0.0
H438 H 0.43767 0.50311 0.52 0.0
H439 H 0.43044 0.49903 0.49984 0.0
H440 H 0.46846 0.53803 0.51294 0.0
H441 H 0.45152 0.52833 0.46418 0.0
H442 H 0.47891 0.50331 0.52377 0.0
H443 H 0.46153 0.50629 0.53204 0.0
H444 H 0.47443 0.52043 0.53245 0.0
H445 H 0.45851 0.49163 0.46472 0.0
H446 H 0.44759 0.50506 0.45503 0.0
H447 H 0.44073 0.4943 0.47189 0.0
C448 C 0.78049 0.18732 0.74083 0.0
C449 C 0.78576 0.19485 0.75469 0.0
C450 C 0.76594 0.18729 0.73703 0.0
C451 C 0.75641 0.195 0.7473 0.0
C452 C 0.76166 0.20276 0.7612 0.0
C453 C 0.77628 0.20258 0.76474 0.0
C454 C 0.76075 0.17888 0.7221 0.0
C455 C 0.75182 0.21113 0.77242 0.0
C456 C 0.72031 0.20391 0.72875 0.0
C457 C 0.71175 0.19317 0.73557 0.0
C458 C 0.73482 0.20479 0.73268 0.0
C459 C 0.74092 0.19467 0.74367 0.0
C460 C 0.73229 0.18395 0.75079 0.0
C461 C 0.71782 0.18333 0.74667 0.0
C462 C 0.74368 0.2164 0.72486 0.0
C463 C 0.7384 0.17296 0.76256 0.0
H464 H 0.78772 0.18132 0.73298 0.0
H465 H 0.78025 0.20845 0.77545 0.0
H466 H 0.75319 0.17058 0.72631 0.0
H467 H 0.75496 0.18593 0.71331 0.0
H468 H 0.76957 0.17366 0.71519 0.0
H469 H 0.75762 0.21688 0.78248 0.0
H470 H 0.74575 0.21896 0.76489 0.0
H471 H 0.744 0.20389 0.77835 0.0
H472 H 0.71571 0.21159 0.7202 0.0
H473 H 0.71129 0.17501 0.75203 0.0
H474 H 0.75207 0.21165 0.71687 0.0
H475 H 0.74909 0.22265 0.73479 0.0
H476 H 0.73723 0.22374 0.71705 0.0
H477 H 0.74664 0.16666 0.75596 0.0
H478 H 0.73018 0.16558 0.76744 0.0
H479 H 0.74364 0.17825 0.77335 0.0
C480 C 0.90255 0.52323 0.00997 0.0
C481 C 0.91168 0.52437 0.02382 0.0
C482 C 0.89979 0.50999 0.0025 0.0
C483 C 0.90638 0.49765 0.009 0.0
C484 C 0.91489 0.49863 0.02359 0.0
C485 C 0.9174 0.51197 0.03085 0.0
C486 C 0.89052 0.50935 0.98707 0.0
C487 C 0.92212 0.48573 0.03092 0.0
C488 C 0.89613 0.46043 0.99468 0.0
C489 C 0.90685 0.45753 0.98293 0.0
C490 C 0.89554 0.47361 0.00297 0.0
C491 C 0.90592 0.48408 0.99943 0.0
C492 C 0.91649 0.48133 0.98724 0.0
C493 C 0.91681 0.46814 0.97914 0.0
C494 C 0.88405 0.47621 0.01581 0.0
C495 C 0.92777 0.4922 0.98307 0.0
H496 H 0.89798 0.53273 0.00453 0.0
H497 H 0.92438 0.51271 0.04163 0.0
H498 H 0.89722 0.50731 0.97588 0.0
H499 H 0.8828 0.5005 0.98805 0.0
H500 H 0.8846 0.51941 0.98504 0.0
H501 H 0.92713 0.48801 0.04325 0.0
H502 H 0.91441 0.47693 0.03252 0.0
H503 H 0.93048 0.48197 0.02216 0.0
H504 H 0.88838 0.4523 0.99765 0.0
H505 H 0.92509 0.46605 0.97002 0.0
H506 H 0.8785 0.48635 0.01313 0.0
H507 H 0.88888 0.4772 0.02846 0.0
H508 H 0.87611 0.4675 0.01611 0.0
H509 H 0.92275 0.50234 0.97922 0.0
H510 H 0.93492 0.4886 0.97283 0.0
H511 H 0.9343 0.49441 0.99436 0.0
C512 C 0.21673 0.17111 0.77385 0.0
C513 C 0.20562 0.1614 0.77147 0.0
C514 C 0.23003 0.16899 0.76641 0.0
C515 C 0.23235 0.15681 0.75638 0.0
C516 C 0.22135 0.1467 0.75434 0.0
C517 C 0.20807 0.14914 0.76189 0.0
C518 C 0.24147 0.18004 0.7689 0.0
C519 C 0.22351 0.13353 0.74385 0.0
C520 C 0.26167 0.16266 0.72468 0.0
C521 C 0.27353 0.15746 0.73337 0.0
C522 C 0.248 0.16166 0.73155 0.0
C523 C 0.24613 0.15521 0.74744 0.0
C524 C 0.25789 0.14895 0.75566 0.0
C525 C 0.27148 0.15018 0.74855 0.0
C526 C 0.23573 0.16846 0.72236 0.0
C527 C 0.25629 0.1418 0.77251 0.0
H528 H 0.21497 0.18058 0.78129 0.0
H529 H 0.19955 0.14156 0.76004 0.0
H530 H 0.25119 0.17504 0.77409 0.0
H531 H 0.24436 0.18482 0.75664 0.0
H532 H 0.23809 0.18869 0.77751 0.0
H533 H 0.21434 0.12614 0.74468 0.0
H534 H 0.22502 0.13656 0.73052 0.0
H535 H 0.23324 0.12784 0.7479 0.0
H536 H 0.26312 0.16818 0.71288 0.0
H537 H 0.28056 0.14599 0.75527 0.0
H538 H 0.2323 0.17813 0.72921 0.0
H539 H 0.22652 0.16114 0.72188 0.0
H540 H 0.2386 0.17154 0.70934 0.0
H541 H 0.25449 0.14998 0.78231 0.0
H542 H 0.26588 0.13559 0.77596 0.0
H543 H 0.24696 0.13462 0.77254 0.0
C544 C 0.57959 0.53299 0.47803 0.0
C545 C 0.58944 0.54365 0.48196 0.0
C546 C 0.58106 0.51921 0.48441 0.0
C547 C 0.59273 0.51594 0.49491 0.0
C548 C 0.60304 0.52647 0.4984 0.0
C549 C 0.60125 0.54025 0.49192 0.0
C550 C 0.5698 0.50829 0.48039 0.0
C551 C 0.61571 0.52332 0.50938 0.0
C552 C 0.58472 0.48548 0.52437 0.0
C553 C 0.58997 0.47384 0.5153 0.0
C554 C 0.58633 0.49938 0.51836 0.0
C555 C 0.59346 0.50172 0.50298 0.0
C556 C 0.59971 0.49013 0.4944 0.0
C557 C 0.59785 0.4763 0.50064 0.0
C558 C 0.57951 0.51145 0.52791 0.0
C559 C 0.60757 0.49222 0.47808 0.0
H560 H 0.57047 0.53547 0.47029 0.0
H561 H 0.60894 0.54842 0.49495 0.0
H562 H 0.57474 0.49867 0.47488 0.0
H563 H 0.56434 0.505 0.4921 0.0
H564 H 0.5617 0.51238 0.47148 0.0
H565 H 0.62348 0.53218 0.50949 0.0
H566 H 0.61211 0.52139 0.52244 0.0
H567 H 0.62114 0.51353 0.50505 0.0
H568 H 0.57873 0.48371 0.53579 0.0
H569 H 0.60207 0.46739 0.49363 0.0
H570 H 0.57034 0.51558 0.52066 0.0
H571 H 0.58712 0.52032 0.52952 0.0
H572 H 0.57568 0.50809 0.54048 0.0
H573 H 0.59988 0.49475 0.46798 0.0
H574 H 0.6136 0.48258 0.47435 0.0
H575 H 0.61505 0.50128 0.47905 0.0
C576 C 0.28753 0.85636 0.26734 0.0
C577 C 0.29641 0.84819 0.25701 0.0
C578 C 0.27278 0.8567 0.26469 0.0
C579 C 0.26681 0.8486 0.25148 0.0
C580 C 0.27581 0.841 0.24046 0.0
C581 C 0.2905 0.84094 0.24332 0.0
C582 C 0.26353 0.8651 0.27656 0.0
C583 C 0.26988 0.8322 0.22624 0.0
C584 C 0.23016 0.83262 0.25652 0.0
C585 C 0.22202 0.84087 0.24547 0.0
C586 C 0.24463 0.83534 0.25896 0.0
C587 C 0.25116 0.8467 0.25026 0.0
C588 C 0.24291 0.85546 0.23961 0.0
C589 C 0.22842 0.85241 0.23728 0.0
C590 C 0.25306 0.8257 0.27038 0.0
C591 C 0.24947 0.86776 0.23028 0.0
H592 H 0.29202 0.86209 0.27788 0.0
H593 H 0.29727 0.83469 0.23518 0.0
H594 H 0.25564 0.87146 0.26948 0.0
H595 H 0.25754 0.8577 0.28476 0.0
H596 H 0.26985 0.87233 0.28464 0.0
H597 H 0.27834 0.82795 0.21794 0.0
H598 H 0.26378 0.82313 0.23144 0.0
H599 H 0.26245 0.83861 0.21855 0.0
H600 H 0.22531 0.82372 0.26297 0.0
H601 H 0.22219 0.85888 0.22879 0.0
H602 H 0.2587 0.83204 0.28003 0.0
H603 H 0.26122 0.81996 0.26298 0.0
H604 H 0.24626 0.81775 0.27683 0.0
H605 H 0.25563 0.87456 0.23902 0.0
H606 H 0.24137 0.87441 0.22388 0.0
H607 H 0.257 0.8637 0.22071 0.0
C608 C 0.5713 0.02203 0.53276 0.0
C609 C 0.56105 0.03192 0.52762 0.0
C610 C 0.57169 0.00831 0.52583 0.0
C611 C 0.56156 0.0044 0.51353 0.0
C612 C 0.55151 0.01449 0.5079 0.0
C613 C 0.5514 0.02813 0.51498 0.0
C614 C 0.58265 0.99786 0.53205 0.0
C615 C 0.54052 0.01074 0.49482 0.0
C616 C 0.56729 0.9715 0.48669 0.0
C617 C 0.55882 0.96146 0.49501 0.0
C618 C 0.56845 0.98548 0.49269 0.0
C619 C 0.56089 0.98953 0.50727 0.0
C620 C 0.55234 0.97944 0.51572 0.0
C621 C 0.55144 0.96553 0.50952 0.0
C622 C 0.57772 0.99593 0.48339 0.0
C623 C 0.54403 0.98338 0.53125 0.0
H624 H 0.57884 0.02488 0.54246 0.0
H625 H 0.54347 0.03571 0.51087 0.0
H626 H 0.5773 0.98902 0.53872 0.0
H627 H 0.58851 0.99317 0.52131 0.0
H628 H 0.59042 0.00285 0.54072 0.0
H629 H 0.53397 0.02003 0.49111 0.0
H630 H 0.54574 0.00639 0.48345 0.0
H631 H 0.53337 0.00236 0.49977 0.0
H632 H 0.57308 0.96842 0.47551 0.0
H633 H 0.54486 0.95786 0.51602 0.0
H634 H 0.58586 0.00037 0.49199 0.0
H635 H 0.5712 0.00495 0.47884 0.0
H636 H 0.58318 0.99102 0.47248 0.0
H637 H 0.55132 0.98742 0.54108 0.0
H638 H 0.53799 0.97425 0.53645 0.0
H639 H 0.53644 0.99204 0.52829 0.0
C640 C 0.28156 0.27793 0.7496 0.0
C641 C 0.28714 0.29015 0.74199 0.0
C642 C 0.26729 0.27735 0.7547 0.0
C643 C 0.25839 0.28926 0.75208 0.0
C644 C 0.2639 0.30155 0.74419 0.0
C645 C 0.2782 0.30185 0.73926 0.0
C646 C 0.26178 0.26407 0.76309 0.0
C647 C 0.25474 0.31445 0.74112 0.0
C648 C 0.21824 0.28516 0.75232 0.0
C649 C 0.21471 0.29041 0.76826 0.0
C650 C 0.23244 0.28445 0.747 0.0
C651 C 0.24337 0.28906 0.7579 0.0
C652 C 0.23991 0.29405 0.77415 0.0
C653 C 0.22563 0.29467 0.77913 0.0
C654 C 0.23572 0.27906 0.72958 0.0
C655 C 0.25128 0.29903 0.78616 0.0
H656 H 0.28838 0.26884 0.75175 0.0
H657 H 0.28239 0.31132 0.73335 0.0
H658 H 0.25814 0.2666 0.77598 0.0
H659 H 0.25248 0.2599 0.75611 0.0
H660 H 0.26997 0.2556 0.76382 0.0
H661 H 0.26055 0.32303 0.73447 0.0
H662 H 0.2453 0.31147 0.73356 0.0
H663 H 0.2508 0.31869 0.75325 0.0
H664 H 0.20989 0.28181 0.74384 0.0
H665 H 0.22302 0.2987 0.79149 0.0
H666 H 0.2435 0.27023 0.73021 0.0
H667 H 0.24063 0.28767 0.72205 0.0
H668 H 0.22607 0.27526 0.72293 0.0
H669 H 0.25933 0.29057 0.78796 0.0
H670 H 0.24689 0.30201 0.79861 0.0
H671 H 0.25684 0.30838 0.78082 0.0
C672 C 0.95403 0.97208 0.01151 0.0
C673 C 0.94142 0.96484 0.00763 0.0
C674 C 0.95542 0.98668 0.00835 0.0
C675 C 0.94394 0.99423 0.00116 0.0
C676 C 0.93124 0.98697 0.99707 0.0
C677 C 0.93014 0.97237 0.00035 0.0
C678 C 0.96914 0.99407 0.01286 0.0
C679 C 0.91875 0.99465 0.9894 0.0
C680 C 0.94129 0.03409 0.00773 0.0
C681 C 0.94601 0.03935 0.99224 0.0
C682 C 0.94075 0.01943 0.01087 0.0
C683 C 0.94504 0.0098 0.99822 0.0
C684 C 0.95003 0.01503 0.98265 0.0
C685 C 0.95044 0.02975 0.97983 0.0
C686 C 0.93535 0.01426 0.02764 0.0
C687 C 0.95474 0.00507 0.96888 0.0
H688 H 0.96281 0.96635 0.01712 0.0
H689 H 0.92036 0.96688 0.99728 0.0
H690 H 0.97365 0.99936 0.00162 0.0
H691 H 0.96707 0.00246 0.02232 0.0
H692 H 0.97718 0.98662 0.018 0.0
H693 H 0.90973 0.98741 0.98667 0.0
H694 H 0.91501 0.00309 0.99805 0.0
H695 H 0.92202 0.9999 0.97756 0.0
H696 H 0.93786 0.04141 0.01741 0.0
H697 H 0.95414 0.03371 0.96784 0.0
H698 H 0.94342 0.00738 0.0337 0.0
H699 H 0.92567 0.00774 0.02581 0.0
H700 H 0.93277 0.02314 0.0363 0.0
H701 H 0.96323 0.99794 0.97356 0.0
H702 H 0.95877 0.01084 0.95769 0.0
H703 H 0.94572 0.99826 0.96496 0.0
C704 C 0.22135 0.68517 0.25735 0.0
C705 C 0.21416 0.69501 0.24722 0.0
C706 C 0.23601 0.68633 0.26018 0.0
C707 C 0.24368 0.69761 0.25274 0.0
C708 C 0.23648 0.70766 0.24263 0.0
C709 C 0.2218 0.70624 0.23999 0.0
C710 C 0.24331 0.67539 0.27102 0.0
C711 C 0.24431 0.71984 0.23449 0.0
C712 C 0.27959 0.70697 0.27153 0.0
C713 C 0.28893 0.69996 0.2606 0.0
C714 C 0.26484 0.70644 0.26902 0.0
C715 C 0.2593 0.6987 0.25526 0.0
C716 C 0.26867 0.69173 0.24409 0.0
C717 C 0.28337 0.69245 0.24688 0.0
C718 C 0.25517 0.71403 0.28118 0.0
C719 C 0.26317 0.68336 0.22928 0.0
H720 H 0.21554 0.67647 0.263 0.0
H721 H 0.21634 0.71391 0.23217 0.0
H722 H 0.25154 0.66976 0.26361 0.0
H723 H 0.24878 0.68068 0.28165 0.0
H724 H 0.23578 0.66742 0.27614 0.0
H725 H 0.23711 0.72693 0.2273 0.0
H726 H 0.24984 0.72624 0.24419 0.0
H727 H 0.25255 0.71567 0.22585 0.0
H728 H 0.28379 0.71282 0.28214 0.0
H729 H 0.29049 0.68701 0.23836 0.0
H730 H 0.24805 0.70625 0.28741 0.0
H731 H 0.24831 0.72167 0.27435 0.0
H732 H 0.26116 0.71988 0.291 0.0
H733 H 0.25631 0.67457 0.23374 0.0
H734 H 0.27188 0.67881 0.22157 0.0
H735 H 0.25655 0.69027 0.22117 0.0
C736 C 0.40727 0.98885 0.46756 0.0
C737 C 0.40688 0.97703 0.47827 0.0
C738 C 0.40547 0.00266 0.47383 0.0
C739 C 0.40324 0.00471 0.49123 0.0
C740 C 0.40187 0.99278 0.50191 0.0
C741 C 0.40369 0.97908 0.4953 0.0
C742 C 0.4069 0.0151 0.46199 0.0
C743 C 0.39944 0.9945 0.52053 0.0
C744 C 0.4188 0.03809 0.51038 0.0
C745 C 0.40676 0.04667 0.51258 0.0
C746 C 0.41773 0.02446 0.50346 0.0
C747 C 0.40428 0.01922 0.49854 0.0
C748 C 0.39205 0.0278 0.50065 0.0
C749 C 0.39344 0.04144 0.50769 0.0
C750 C 0.43104 0.01566 0.50147 0.0
C751 C 0.37755 0.02256 0.4955 0.0
H752 H 0.4096 0.98738 0.45435 0.0
H753 H 0.40325 0.97002 0.50367 0.0
H754 H 0.39825 0.02288 0.46411 0.0
H755 H 0.4171 0.02063 0.46442 0.0
H756 H 0.4067 0.01173 0.44863 0.0
H757 H 0.39678 0.98427 0.5267 0.0
H758 H 0.40919 0.99882 0.52645 0.0
H759 H 0.39074 0.00217 0.52294 0.0
H760 H 0.42915 0.042 0.51414 0.0
H761 H 0.38409 0.048 0.50935 0.0
H762 H 0.43258 0.01283 0.48808 0.0
H763 H 0.42999 0.00559 0.50858 0.0
H764 H 0.44068 0.0213 0.50595 0.0
H765 H 0.37754 0.01985 0.48195 0.0
H766 H 0.36911 0.03055 0.49789 0.0
H767 H 0.37491 0.0127 0.50246 0.0
C768 C 0.71267 0.64562 0.25132 0.0
C769 C 0.71035 0.65675 0.26272 0.0
C770 C 0.72619 0.64326 0.24437 0.0
C771 C 0.73759 0.6523 0.24887 0.0
C772 C 0.73542 0.66315 0.26089 0.0
C773 C 0.72186 0.6652 0.2677 0.0
C774 C 0.72814 0.63148 0.23174 0.0
C775 C 0.74729 0.67304 0.26603 0.0
C776 C 0.77647 0.64445 0.24032 0.0
C777 C 0.77912 0.65331 0.22651 0.0
C778 C 0.76277 0.64332 0.24719 0.0
C779 C 0.75152 0.6513 0.24013 0.0
C780 C 0.75398 0.6596 0.22561 0.0
C781 C 0.76772 0.66046 0.21895 0.0
C782 C 0.76052 0.6342 0.26253 0.0
C783 C 0.74227 0.66828 0.2177 0.0
H784 H 0.70385 0.63899 0.24747 0.0
H785 H 0.72021 0.67377 0.27658 0.0
H786 H 0.72999 0.63611 0.21913 0.0
H787 H 0.73761 0.62501 0.23493 0.0
H788 H 0.71873 0.6244 0.23107 0.0
H789 H 0.74407 0.6804 0.27624 0.0
H790 H 0.75663 0.66685 0.27033 0.0
H791 H 0.75071 0.67944 0.25507 0.0
H792 H 0.78518 0.6388 0.24617 0.0
H793 H 0.76963 0.66724 0.2082 0.0
H794 H 0.75088 0.62754 0.26106 0.0
H795 H 0.75884 0.64111 0.27364 0.0
H796 H 0.76975 0.62718 0.26505 0.0
H797 H 0.73279 0.66157 0.21536 0.0
H798 H 0.74561 0.67318 0.20565 0.0
H799 H 0.73902 0.67687 0.22642 0.0
C800 C 0.10139 0.03535 0.99472 0.0
C801 C 0.08911 0.03855 0.98547 0.0
C802 C 0.10375 0.02157 0.00093 0.0
C803 C 0.09356 0.01082 0.99789 0.0
C804 C 0.0814 0.0139 0.9881 0.0
C805 C 0.07936 0.02769 0.98199 0.0
C806 C 0.11691 0.01862 0.01116 0.0
C807 C 0.07026 0.00274 0.98456 0.0
C808 C 0.09996 0.97128 0.00274 0.0
C809 C 0.09276 0.96846 0.01779 0.0
C810 C 0.10118 0.98521 0.9966 0.0
C811 C 0.09497 0.99654 0.00568 0.0
C812 C 0.08853 0.99386 0.02141 0.0
C813 C 0.08755 0.97986 0.0273 0.0
C814 C 0.10831 0.98766 0.97989 0.0
C815 C 0.08179 0.00564 0.03151 0.0
H816 H 0.10901 0.04366 0.99741 0.0
H817 H 0.06988 0.03002 0.97478 0.0
H818 H 0.11388 0.01643 0.02436 0.0
H819 H 0.12243 0.00904 0.00635 0.0
H820 H 0.12444 0.0277 0.01101 0.0
H821 H 0.06171 0.00672 0.97618 0.0
H822 H 0.0752 0.9933 0.97864 0.0
H823 H 0.06536 0.9992 0.99652 0.0
H824 H 0.10414 0.96255 0.99537 0.0
H825 H 0.08207 0.97782 0.03902 0.0
H826 H 0.11559 0.9969 0.98057 0.0
H827 H 0.10014 0.99011 0.97028 0.0
H828 H 0.11441 0.97822 0.97566 0.0
H829 H 0.08923 0.01471 0.03283 0.0
H830 H 0.07856 0.00206 0.04422 0.0
H831 H 0.07223 0.0096 0.02484 0.0
C832 C 0.78311 0.35203 0.75332 0.0
C833 C 0.78591 0.33933 0.76193 0.0
C834 C 0.76974 0.35452 0.74601 0.0
C835 C 0.75902 0.34403 0.74727 0.0
C836 C 0.76169 0.33141 0.75639 0.0
C837 C 0.77506 0.32925 0.76363 0.0
C838 C 0.76723 0.36816 0.73653 0.0
C839 C 0.75055 0.31994 0.75804 0.0
C840 C 0.71979 0.35008 0.73941 0.0
C841 C 0.71805 0.34363 0.72366 0.0
C842 C 0.73327 0.35121 0.74683 0.0
C843 C 0.74526 0.34568 0.73833 0.0
C844 C 0.74369 0.34005 0.72196 0.0
C845 C 0.73012 0.33914 0.71481 0.0
C846 C 0.73454 0.35747 0.7642 0.0
C847 C 0.75621 0.33405 0.71246 0.0
H848 H 0.79142 0.35991 0.75201 0.0
H849 H 0.77709 0.31944 0.77032 0.0
H850 H 0.76593 0.36582 0.72297 0.0
H851 H 0.75729 0.3733 0.74087 0.0
H852 H 0.77614 0.37578 0.73804 0.0
H853 H 0.75413 0.311 0.76608 0.0
H854 H 0.74066 0.32442 0.76346 0.0
H855 H 0.74787 0.31568 0.74545 0.0
H856 H 0.71054 0.35371 0.74628 0.0
H857 H 0.72892 0.33426 0.70257 0.0
H858 H 0.74366 0.36489 0.76489 0.0
H859 H 0.73652 0.34884 0.77338 0.0
H860 H 0.72475 0.3632 0.76801 0.0
H861 H 0.76519 0.34167 0.71254 0.0
H862 H 0.7535 0.3315 0.69923 0.0
H863 H 0.7599 0.32419 0.7187 0.0
C864 C 0.97096 0.59391 0.03064 0.0
C865 C 0.96637 0.58546 0.04408 0.0
C866 C 0.98511 0.5985 0.02949 0.0
C867 C 0.99497 0.59438 0.04198 0.0
C868 C 0.9904 0.58593 0.05565 0.0
C869 C 0.97614 0.58166 0.0566 0.0
C870 C 0.98952 0.60769 0.01487 0.0
C871 C 0.00064 0.5812 0.06911 0.0
C872 C 0.03414 0.59487 0.03044 0.0
C873 C 0.0388 0.60733 0.03834 0.0
C874 C 0.01995 0.59042 0.03171 0.0
C875 C 0.01008 0.59885 0.0407 0.0
C876 C 0.01464 0.61161 0.04836 0.0
C877 C 0.02894 0.61567 0.04713 0.0
C878 C 0.01549 0.57673 0.02337 0.0
C879 C 0.00441 0.621 0.05785 0.0
H880 H 0.96347 0.59695 0.02095 0.0
H881 H 0.97271 0.57506 0.06698 0.0
H882 H 0.99425 0.61774 0.01952 0.0
H883 H 0.99778 0.60219 0.00738 0.0
H884 H 0.98047 0.61031 0.00649 0.0
H885 H 0.9954 0.57468 0.07894 0.0
H886 H 0.00933 0.57486 0.0634 0.0
H887 H 0.00559 0.59057 0.07517 0.0
H888 H 0.04146 0.58873 0.02294 0.0
H889 H 0.03243 0.62537 0.05319 0.0
H890 H 0.00753 0.57896 0.01346 0.0
H891 H 0.01039 0.5696 0.03267 0.0
H892 H 0.0246 0.57103 0.0176 0.0
H893 H 0.99555 0.62424 0.04951 0.0
H894 H 0.0096 0.63071 0.06285 0.0
H895 H 0.99971 0.61503 0.06848 0.0
C896 C 0.62983 0.77249 0.28844 0.0
C897 C 0.63935 0.78104 0.27944 0.0
C898 C 0.63202 0.7578 0.28993 0.0
C899 C 0.64402 0.75153 0.28224 0.0
C900 C 0.65358 0.76009 0.27297 0.0
C901 C 0.65104 0.77473 0.27155 0.0
C902 C 0.62152 0.74901 0.29979 0.0
C903 C 0.66648 0.75379 0.26452 0.0
C904 C 0.6577 0.71606 0.29815 0.0
C905 C 0.65271 0.70669 0.28579 0.0
C906 C 0.65478 0.73066 0.29728 0.0
C907 C 0.64658 0.736 0.2838 0.0
C908 C 0.64115 0.72655 0.27157 0.0
C909 C 0.64432 0.71202 0.27268 0.0
C910 C 0.6608 0.74042 0.31052 0.0
C911 C 0.63222 0.73183 0.25712 0.0
H912 H 0.62071 0.77732 0.29449 0.0
H913 H 0.65805 0.78114 0.26393 0.0
H914 H 0.61707 0.74051 0.29172 0.0
H915 H 0.62697 0.74374 0.31044 0.0
H916 H 0.61262 0.75549 0.30481 0.0
H917 H 0.67308 0.76197 0.25819 0.0
H918 H 0.67314 0.74819 0.2739 0.0
H919 H 0.66312 0.74583 0.25506 0.0
H920 H 0.66422 0.71206 0.30831 0.0
H921 H 0.64037 0.70486 0.26311 0.0
H922 H 0.65216 0.74667 0.31644 0.0
H923 H 0.66822 0.7481 0.30463 0.0
H924 H 0.66659 0.73454 0.32049 0.0
H925 H 0.62299 0.73793 0.26191 0.0
H926 H 0.62825 0.72303 0.24911 0.0
H927 H 0.63857 0.73915 0.2492 0.0
C928 C 0.5279 0.41101 0.51536 0.0
C929 C 0.53651 0.40777 0.52923 0.0
C930 C 0.51349 0.40726 0.51507 0.0
C931 C 0.50753 0.40003 0.52894 0.0
C932 C 0.51617 0.39655 0.54289 0.0
C933 C 0.53056 0.40048 0.54288 0.0
C934 C 0.50459 0.41122 0.50001 0.0
C935 C 0.51018 0.3888 0.55788 0.0
C936 C 0.46762 0.40243 0.53513 0.0
C937 C 0.463 0.38954 0.52825 0.0
C938 C 0.48208 0.406 0.5354 0.0
C939 C 0.49218 0.39631 0.52892 0.0
C940 C 0.48761 0.38315 0.52226 0.0
C941 C 0.47306 0.37991 0.52203 0.0
C942 C 0.48655 0.42013 0.54267 0.0
C943 C 0.49807 0.37253 0.51527 0.0
H944 H 0.53237 0.41666 0.50476 0.0
H945 H 0.53712 0.39792 0.55363 0.0
H946 H 0.49965 0.40158 0.49455 0.0
H947 H 0.49584 0.41838 0.50392 0.0
H948 H 0.5109 0.41661 0.49011 0.0
H949 H 0.51838 0.3866 0.56756 0.0
H950 H 0.50159 0.3952 0.56368 0.0
H951 H 0.50541 0.37858 0.55387 0.0
H952 H 0.45998 0.40961 0.54067 0.0
H953 H 0.46953 0.36987 0.51683 0.0
H954 H 0.49251 0.42631 0.53315 0.0
H955 H 0.49376 0.41841 0.55348 0.0
H956 H 0.47734 0.42656 0.54693 0.0
H957 H 0.50398 0.37732 0.50465 0.0
H958 H 0.4928 0.36268 0.51079 0.0
H959 H 0.50598 0.36965 0.52501 0.0
C960 C 0.84733 0.2247 0.77453 0.0
C961 C 0.85835 0.21843 0.78371 0.0
C962 C 0.84441 0.23926 0.77599 0.0
C963 C 0.85289 0.24779 0.78666 0.0
C964 C 0.86424 0.24157 0.79567 0.0
C965 C 0.86685 0.22696 0.79407 0.0
C966 C 0.83225 0.24551 0.76609 0.0
C967 C 0.87358 0.25033 0.80709 0.0
C968 C 0.85236 0.28749 0.77833 0.0
C969 C 0.84255 0.29227 0.79033 0.0
C970 C 0.85609 0.27309 0.77726 0.0
C971 C 0.84981 0.26321 0.78839 0.0
C972 C 0.84022 0.268 0.80083 0.0
C973 C 0.83673 0.28247 0.80169 0.0
C974 C 0.86647 0.2684 0.76392 0.0
C975 C 0.8333 0.25777 0.81292 0.0
H976 H 0.84116 0.2183 0.76593 0.0
H977 H 0.87545 0.22216 0.80112 0.0
H978 H 0.82457 0.25067 0.77472 0.0
H979 H 0.83627 0.25383 0.75747 0.0
H980 H 0.82652 0.23738 0.75859 0.0
H981 H 0.88213 0.24392 0.81299 0.0
H982 H 0.87852 0.25913 0.79991 0.0
H983 H 0.86706 0.25521 0.81715 0.0
H984 H 0.85694 0.29498 0.76954 0.0
H985 H 0.82914 0.28604 0.811 0.0
H986 H 0.86109 0.26119 0.75493 0.0
H987 H 0.87532 0.26234 0.7697 0.0
H988 H 0.87099 0.2775 0.75684 0.0
H989 H 0.82663 0.2501 0.80588 0.0
H990 H 0.82652 0.26327 0.8223 0.0
H991 H 0.84152 0.25156 0.81968 0.0
C992 C 0.95367 0.39631 0.94546 0.0
C993 C 0.94721 0.40942 0.94213 0.0
C994 C 0.96849 0.39475 0.94439 0.0
C995 C 0.977 0.40672 0.94055 0.0
C996 C 0.97046 0.41989 0.93683 0.0
C997 C 0.95564 0.42101 0.93739 0.0
C998 C 0.97506 0.38042 0.94781 0.0
C999 C 0.97914 0.43301 0.93311 0.0
C1000 C 0.0144 0.40996 0.9576 0.0
C1001 C 0.02247 0.40917 0.94287 0.0
C1002 C 0.99958 0.40861 0.95712 0.0
C1003 C 0.99274 0.40592 0.94161 0.0
C1004 C 0.00097 0.40404 0.92691 0.0
C1005 C 0.01575 0.40597 0.92765 0.0
C1006 C 0.99119 0.41108 0.97301 0.0
C1007 C 0.99413 0.40061 0.91027 0.0
H1008 H 0.94715 0.38732 0.94903 0.0
H1009 H 0.95068 0.43119 0.93496 0.0
H1010 H 0.98295 0.37777 0.93795 0.0
H1011 H 0.98077 0.38068 0.95996 0.0
H1012 H 0.96696 0.37185 0.94833 0.0
H1013 H 0.9724 0.4424 0.9303 0.0
H1014 H 0.98597 0.43557 0.94405 0.0
H1015 H 0.98625 0.43109 0.92226 0.0
H1016 H 0.01958 0.41254 0.96936 0.0
H1017 H 0.02201 0.40524 0.91627 0.0
H1018 H 0.98376 0.40215 0.97528 0.0
H1019 H 0.9847 0.42085 0.97166 0.0
H1020 H 0.99814 0.41229 0.98419 0.0
H1021 H 0.98608 0.3921 0.91178 0.0
H1022 H 0.00205 0.39719 0.90076 0.0
H1023 H 0.98856 0.41014 0.90542 0.0
C1024 C 0.85284 0.70868 0.1974 0.0
C1025 C 0.84641 0.70196 0.21116 0.0
C1026 C 0.85638 0.72317 0.19799 0.0
C1027 C 0.85341 0.73111 0.21267 0.0
C1028 C 0.84717 0.72433 0.22669 0.0
C1029 C 0.84376 0.70986 0.22577 0.0
C1030 C 0.86309 0.73003 0.18282 0.0
C1031 C 0.84384 0.73244 0.24257 0.0
C1032 C 0.87234 0.76612 0.22049 0.0
C1033 C 0.8619 0.77599 0.21588 0.0
C1034 C 0.8698 0.75146 0.21933 0.0
C1035 C 0.85652 0.74658 0.21332 0.0
C1036 C 0.84604 0.75651 0.20835 0.0
C1037 C 0.8489 0.7711 0.20959 0.0
C1038 C 0.88124 0.74121 0.22473 0.0
C1039 C 0.83178 0.75173 0.20177 0.0
H1040 H 0.85494 0.70267 0.18607 0.0
H1041 H 0.83882 0.70479 0.23648 0.0
H1042 H 0.85603 0.73851 0.17794 0.0
H1043 H 0.87328 0.73513 0.18636 0.0
H1044 H 0.86514 0.72229 0.17258 0.0
H1045 H 0.8393 0.72552 0.2525 0.0
H1046 H 0.85361 0.73753 0.2475 0.0
H1047 H 0.83614 0.74104 0.23981 0.0
H1048 H 0.88246 0.76987 0.22523 0.0
H1049 H 0.84105 0.77866 0.20528 0.0
H1050 H 0.88381 0.73383 0.2143 0.0
H1051 H 0.87738 0.73467 0.23537 0.0
H1052 H 0.89113 0.74672 0.22864 0.0
H1053 H 0.83325 0.74492 0.19055 0.0
H1054 H 0.82482 0.7608 0.19835 0.0
H1055 H 0.82628 0.74523 0.2114 0.0
C1056 C 0.47466 0.59762 0.47025 0.0
C1057 C 0.46778 0.60855 0.46153 0.0
C1058 C 0.48943 0.59586 0.46917 0.0
C1059 C 0.49753 0.60546 0.45939 0.0
C1060 C 0.49068 0.61671 0.45086 0.0
C1061 C 0.47588 0.61812 0.45204 0.0
C1062 C 0.49636 0.58375 0.47851 0.0
C1063 C 0.49897 0.62722 0.44043 0.0
C1064 C 0.53692 0.60774 0.46929 0.0
C1065 C 0.5428 0.59902 0.45681 0.0
C1066 C 0.52223 0.61019 0.47005 0.0
C1067 C 0.51319 0.60369 0.45812 0.0
C1068 C 0.51908 0.59517 0.44525 0.0
C1069 C 0.53381 0.59299 0.4447 0.0
C1070 C 0.51636 0.61948 0.48386 0.0
C1071 C 0.50976 0.58803 0.43233 0.0
H1072 H 0.46856 0.59061 0.47823 0.0
H1073 H 0.47061 0.62665 0.44536 0.0
H1074 H 0.50235 0.57695 0.46961 0.0
H1075 H 0.50409 0.58797 0.48774 0.0
H1076 H 0.48851 0.57705 0.48525 0.0
H1077 H 0.49206 0.63551 0.4348 0.0
H1078 H 0.50715 0.63249 0.44828 0.0
H1079 H 0.50462 0.62159 0.43018 0.0
H1080 H 0.54377 0.61249 0.47867 0.0
H1081 H 0.53824 0.58621 0.43503 0.0
H1082 H 0.50936 0.6131 0.49215 0.0
H1083 H 0.50977 0.6281 0.47843 0.0
H1084 H 0.52486 0.62432 0.49164 0.0
H1085 H 0.50247 0.58047 0.43863 0.0
H1086 H 0.51603 0.58214 0.42279 0.0
H1087 H 0.5031 0.59603 0.42583 0.0
C1088 C 0.65024 0.28418 0.68633 0.0
C1089 C 0.65492 0.29036 0.70137 0.0
C1090 C 0.64695 0.26964 0.68547 0.0
C1091 C 0.64842 0.26109 0.69997 0.0
C1092 C 0.65293 0.2673 0.71523 0.0
C1093 C 0.6561 0.28184 0.71576 0.0
C1094 C 0.64208 0.2634 0.66899 0.0
C1095 C 0.65465 0.25852 0.73097 0.0
C1096 C 0.62941 0.22561 0.70298 0.0
C1097 C 0.64044 0.21605 0.69955 0.0
C1098 C 0.63178 0.24033 0.70287 0.0
C1099 C 0.64551 0.24558 0.69919 0.0
C1100 C 0.6566 0.23598 0.69529 0.0
C1101 C 0.6539 0.22132 0.69539 0.0
C1102 C 0.61967 0.25023 0.70703 0.0
C1103 C 0.67137 0.24117 0.69119 0.0
H1104 H 0.64928 0.29066 0.67515 0.0
H1105 H 0.65971 0.28649 0.72745 0.0
H1106 H 0.64975 0.25521 0.66474 0.0
H1107 H 0.63167 0.25807 0.67061 0.0
H1108 H 0.64106 0.27157 0.659 0.0
H1109 H 0.65798 0.26502 0.74192 0.0
H1110 H 0.6445 0.25315 0.73408 0.0
H1111 H 0.6627 0.25011 0.72887 0.0
H1112 H 0.61895 0.22157 0.70607 0.0
H1113 H 0.66228 0.21402 0.69198 0.0
H1114 H 0.61825 0.25811 0.69683 0.0
H1115 H 0.62216 0.25623 0.71864 0.0
H1116 H 0.6095 0.24448 0.7089 0.0
H1117 H 0.671 0.24851 0.68031 0.0
H1118 H 0.67876 0.23233 0.68822 0.0
H1119 H 0.67573 0.24722 0.70197 0.0
C1120 C 0.34562 0.21605 0.70125 0.0
C1121 C 0.33939 0.20997 0.71553 0.0
C1122 C 0.34969 0.2304 0.70109 0.0
C1123 C 0.34741 0.23888 0.71552 0.0
C1124 C 0.34127 0.23277 0.73002 0.0
C1125 C 0.33738 0.2184 0.72988 0.0
C1126 C 0.35628 0.23654 0.68541 0.0
C1127 C 0.3386 0.24149 0.74562 0.0
C1128 C 0.36806 0.27322 0.72094 0.0
C1129 C 0.358 0.28338 0.71603 0.0
C1130 C 0.3648 0.25868 0.72071 0.0
C1131 C 0.35117 0.25421 0.7154 0.0
C1132 C 0.34104 0.26442 0.71021 0.0
C1133 C 0.34464 0.27887 0.71043 0.0
C1134 C 0.3759 0.24811 0.72628 0.0
C1135 C 0.3264 0.26007 0.70442 0.0
H1136 H 0.34723 0.20963 0.69012 0.0
H1137 H 0.33255 0.21383 0.74097 0.0
H1138 H 0.34947 0.24519 0.68045 0.0
H1139 H 0.36676 0.24128 0.68839 0.0
H1140 H 0.35772 0.22844 0.67543 0.0
H1141 H 0.334 0.23507 0.75598 0.0
H1142 H 0.34866 0.24632 0.75006 0.0
H1143 H 0.33119 0.25031 0.7427 0.0
H1144 H 0.37845 0.27666 0.72514 0.0
H1145 H 0.33708 0.2866 0.70583 0.0
H1146 H 0.37794 0.24031 0.71613 0.0
H1147 H 0.37197 0.24208 0.7373 0.0
H1148 H 0.38609 0.2533 0.72969 0.0
H1149 H 0.32724 0.25296 0.69338 0.0
H1150 H 0.31971 0.26935 0.701 0.0
H1151 H 0.32095 0.25403 0.71449 0.0
C1152 C 0.14937 0.78531 0.20336 0.0
C1153 C 0.15676 0.792 0.21645 0.0
C1154 C 0.14559 0.77091 0.20441 0.0
C1155 C 0.14931 0.76301 0.21887 0.0
C1156 C 0.15653 0.76976 0.23224 0.0
C1157 C 0.16015 0.78415 0.23088 0.0
C1158 C 0.13784 0.76407 0.18992 0.0
C1159 C 0.16068 0.76169 0.24787 0.0
C1160 C 0.13037 0.72826 0.22817 0.0
C1161 C 0.14034 0.71826 0.2226 0.0
C1162 C 0.13309 0.74288 0.22694 0.0
C1163 C 0.14606 0.74758 0.21986 0.0
C1164 C 0.15606 0.73752 0.21398 0.0
C1165 C 0.15303 0.72298 0.21531 0.0
C1166 C 0.12216 0.75329 0.23332 0.0
C1167 C 0.16996 0.74211 0.20625 0.0
H1168 H 0.14669 0.79128 0.19217 0.0
H1169 H 0.16585 0.7892 0.24108 0.0
H1170 H 0.14446 0.75549 0.18447 0.0
H1171 H 0.12784 0.75912 0.19439 0.0
H1172 H 0.13524 0.7718 0.17985 0.0
H1173 H 0.16587 0.7686 0.25736 0.0
H1174 H 0.15117 0.75673 0.25363 0.0
H1175 H 0.16811 0.75298 0.24455 0.0
H1176 H 0.12049 0.72463 0.23367 0.0
H1177 H 0.16046 0.71532 0.21028 0.0
H1178 H 0.11899 0.76065 0.22312 0.0
H1179 H 0.12679 0.75983 0.24352 0.0
H1180 H 0.1125 0.74791 0.23818 0.0
H1181 H 0.16793 0.74887 0.19511 0.0
H1182 H 0.17662 0.73294 0.20236 0.0
H1183 H 0.17607 0.7486 0.21536 0.0
C1184 C 0.14344 0.2146 0.79491 0.0
C1185 C 0.1536 0.20843 0.80551 0.0
C1186 C 0.14096 0.2293 0.79511 0.0
C1187 C 0.1489 0.23805 0.8061 0.0
C1188 C 0.15886 0.23184 0.81719 0.0
C1189 C 0.16106 0.2171 0.81681 0.0
C1190 C 0.13013 0.23551 0.78321 0.0
C1191 C 0.16756 0.24083 0.82905 0.0
C1192 C 0.1538 0.27659 0.79342 0.0
C1193 C 0.14399 0.28351 0.80381 0.0
C1194 C 0.15564 0.26183 0.79422 0.0
C1195 C 0.14724 0.25374 0.80545 0.0
C1196 C 0.13718 0.26064 0.81582 0.0
C1197 C 0.13567 0.27545 0.81486 0.0
C1198 C 0.16646 0.25487 0.78291 0.0
C1199 C 0.12796 0.25237 0.82784 0.0
H1200 H 0.13759 0.20799 0.78619 0.0
H1201 H 0.16895 0.21245 0.82504 0.0
H1202 H 0.1224 0.24214 0.79022 0.0
H1203 H 0.13551 0.24253 0.77402 0.0
H1204 H 0.12423 0.22719 0.77622 0.0
H1205 H 0.17434 0.23432 0.83745 0.0
H1206 H 0.17448 0.24809 0.82175 0.0
H1207 H 0.16049 0.24754 0.83687 0.0
H1208 H 0.15976 0.28264 0.78428 0.0
H1209 H 0.12798 0.28075 0.82282 0.0
H1210 H 0.16108 0.24739 0.77423 0.0
H1211 H 0.17409 0.24859 0.7905 0.0
H1212 H 0.17251 0.26272 0.77535 0.0
H1213 H 0.12152 0.24448 0.82083 0.0
H1214 H 0.12067 0.25933 0.83508 0.0
H1215 H 0.1347 0.24637 0.83679 0.0
C1216 C 0.3727 0.73314 0.29538 0.0
C1217 C 0.36311 0.72509 0.28584 0.0
C1218 C 0.37068 0.74776 0.29779 0.0
C1219 C 0.35876 0.7545 0.29048 0.0
C1220 C 0.34909 0.74645 0.28074 0.0
C1221 C 0.35147 0.73187 0.2784 0.0
C1222 C 0.3813 0.75601 0.30811 0.0
C1223 C 0.33627 0.75326 0.27268 0.0
C1224 C 0.34555 0.78961 0.30803 0.0
C1225 C 0.35058 0.7993 0.29605 0.0
C1226 C 0.34834 0.77502 0.30654 0.0
C1227 C 0.35647 0.77001 0.29282 0.0
C1228 C 0.36201 0.77977 0.28101 0.0
C1229 C 0.35895 0.79429 0.28273 0.0
C1230 C 0.3422 0.76491 0.31933 0.0
C1231 C 0.37087 0.77485 0.26633 0.0
H1232 H 0.38178 0.72797 0.30109 0.0
H1233 H 0.34439 0.72589 0.27039 0.0
H1234 H 0.38596 0.76468 0.30047 0.0
H1235 H 0.37591 0.76103 0.31897 0.0
H1236 H 0.39004 0.74919 0.31287 0.0
H1237 H 0.32951 0.74543 0.26599 0.0
H1238 H 0.32973 0.75865 0.28237 0.0
H1239 H 0.33973 0.7615 0.26361 0.0
H1240 H 0.33904 0.79336 0.31834 0.0
H1241 H 0.36294 0.80169 0.27345 0.0
H1242 H 0.35074 0.75828 0.32485 0.0
H1243 H 0.33459 0.75761 0.31312 0.0
H1244 H 0.33659 0.77055 0.32963 0.0
H1245 H 0.37996 0.7684 0.27082 0.0
H1246 H 0.37504 0.78386 0.25881 0.0
H1247 H 0.3644 0.76798 0.25802 0.0
C1248 C 0.45296 0.10396 0.55452 0.0
C1249 C 0.44687 0.09044 0.55617 0.0
C1250 C 0.46776 0.10578 0.55535 0.0
C1251 C 0.47662 0.09374 0.5573 0.0
C1252 C 0.47047 0.08011 0.55919 0.0
C1253 C 0.45567 0.07867 0.55886 0.0
C1254 C 0.47393 0.12052 0.55385 0.0
C1255 C 0.47954 0.06695 0.5609 0.0
C1256 C 0.51416 0.09302 0.54029 0.0
C1257 C 0.52213 0.09254 0.55512 0.0
C1258 C 0.49931 0.09407 0.54078 0.0
C1259 C 0.49233 0.0951 0.55647 0.0
C1260 C 0.50043 0.09573 0.57142 0.0
C1261 C 0.51525 0.09419 0.57059 0.0
C1262 C 0.49107 0.09301 0.52457 0.0
C1263 C 0.49342 0.09731 0.58835 0.0
H1264 H 0.44616 0.11309 0.55253 0.0
H1265 H 0.45101 0.06819 0.55998 0.0
H1266 H 0.48158 0.1225 0.56418 0.0
H1267 H 0.47986 0.1215 0.54189 0.0
H1268 H 0.46559 0.12886 0.55418 0.0
H1269 H 0.47308 0.05714 0.56224 0.0
H1270 H 0.48644 0.0658 0.5497 0.0
H1271 H 0.48658 0.06788 0.57199 0.0
H1272 H 0.51945 0.09166 0.52831 0.0
H1273 H 0.52142 0.09396 0.58207 0.0
H1274 H 0.48326 0.10179 0.52361 0.0
H1275 H 0.48501 0.0829 0.52437 0.0
H1276 H 0.49809 0.09333 0.51338 0.0
H1277 H 0.48518 0.10573 0.58795 0.0
H1278 H 0.50121 0.09994 0.59835 0.0
H1279 H 0.48806 0.08723 0.59177 0.0
C1280 C 0.03363 0.89766 0.04663 0.0
C1281 C 0.04002 0.9037 0.03242 0.0
C1282 C 0.01904 0.89455 0.04686 0.0
C1283 C 0.01065 0.8976 0.03257 0.0
C1284 C 0.01707 0.90346 0.01809 0.0
C1285 C 0.03167 0.90641 0.01818 0.0
C1286 C 0.01256 0.88823 0.0625 0.0
C1287 C 0.00847 0.90688 0.00262 0.0
C1288 C 0.97472 0.87978 0.02738 0.0
C1289 C 0.96544 0.89057 0.03256 0.0
C1290 C 0.98948 0.88187 0.02742 0.0
C1291 C 0.99506 0.89505 0.03286 0.0
C1292 C 0.98574 0.9059 0.03833 0.0
C1293 C 0.97104 0.90348 0.03824 0.0
C1294 C 0.99908 0.87003 0.02155 0.0
C1295 C 0.9913 0.92007 0.0443 0.0
H1296 H 0.03998 0.89551 0.05768 0.0
H1297 H 0.03649 0.91107 0.00713 0.0
H1298 H 0.00455 0.89564 0.06776 0.0
H1299 H 0.00695 0.87821 0.05939 0.0
H1300 H 0.02062 0.88599 0.07231 0.0
H1301 H 0.01515 0.91102 0.99222 0.0
H1302 H 0.00283 0.89725 0.99816 0.0
H1303 H 0.00028 0.91493 0.0057 0.0
H1304 H 0.97042 0.86973 0.02312 0.0
H1305 H 0.96398 0.91159 0.043 0.0
H1306 H 0.00677 0.86726 0.03157 0.0
H1307 H 0.00531 0.87359 0.01052 0.0
H1308 H 0.99306 0.86033 0.01805 0.0
H1309 H 0.99845 0.91852 0.05521 0.0
H1310 H 0.98263 0.92743 0.04802 0.0
H1311 H 0.99763 0.92517 0.03423 0.0
C1312 C 0.53297 0.90646 0.46966 0.0
C1313 C 0.53739 0.89366 0.46236 0.0
C1314 C 0.51877 0.91094 0.46861 0.0
C1315 C 0.50865 0.90219 0.46049 0.0
C1316 C 0.51297 0.8891 0.45343 0.0
C1317 C 0.52728 0.88503 0.45439 0.0
C1318 C 0.51459 0.925 0.47628 0.0
C1319 C 0.50246 0.87936 0.44491 0.0
C1320 C 0.4699 0.90769 0.47203 0.0
C1321 C 0.46488 0.91555 0.45829 0.0
C1322 C 0.48406 0.9031 0.47278 0.0
C1323 C 0.4935 0.90664 0.45961 0.0
C1324 C 0.4885 0.91449 0.44566 0.0
C1325 C 0.47421 0.91875 0.4451 0.0
C1326 C 0.48894 0.89452 0.48772 0.0
C1327 C 0.4983 0.91862 0.43149 0.0
H1328 H 0.54048 0.91286 0.47657 0.0
H1329 H 0.53057 0.87506 0.4488 0.0
H1330 H 0.50912 0.93169 0.46682 0.0
H1331 H 0.50702 0.92322 0.48672 0.0
H1332 H 0.52389 0.93096 0.4812 0.0
H1333 H 0.5075 0.86946 0.44024 0.0
H1334 H 0.49386 0.87647 0.4538 0.0
H1335 H 0.49742 0.8849 0.43417 0.0
H1336 H 0.46273 0.90512 0.48223 0.0
H1337 H 0.47044 0.92489 0.4345 0.0
H1338 H 0.49741 0.90033 0.49452 0.0
H1339 H 0.49353 0.88429 0.48346 0.0
H1340 H 0.48015 0.89226 0.49663 0.0
H1341 H 0.50715 0.92518 0.43641 0.0
H1342 H 0.49274 0.9247 0.42151 0.0
H1343 H 0.50306 0.90898 0.42579 0.0
C1344 C 0.03698 0.10584 0.97362 0.0
C1345 C 0.04209 0.09671 0.96108 0.0
C1346 C 0.02255 0.1095 0.97445 0.0
C1347 C 0.01297 0.10383 0.96252 0.0
C1348 C 0.0181 0.0949 0.94958 0.0
C1349 C 0.0326 0.09148 0.94898 0.0
C1350 C 0.0175 0.11918 0.98833 0.0
C1351 C 0.0082 0.08862 0.93665 0.0
C1352 C 0.97412 0.10087 0.9748 0.0
C1353 C 0.96813 0.11239 0.96622 0.0
C1354 C 0.98869 0.09792 0.97362 0.0
C1355 C 0.99752 0.10687 0.96387 0.0
C1356 C 0.99158 0.1187 0.95546 0.0
C1357 C 0.97695 0.12132 0.95675 0.0
C1358 C 0.99463 0.08524 0.98284 0.0
C1359 C 0.00067 0.12854 0.94506 0.0
H1360 H 0.04423 0.10997 0.98299 0.0
H1361 H 0.03642 0.08441 0.93925 0.0
H1362 H 0.01165 0.12835 0.98298 0.0
H1363 H 0.01002 0.11338 0.99661 0.0
H1364 H 0.0264 0.12326 0.99611 0.0
H1365 H 0.01394 0.08228 0.92704 0.0
H1366 H 0.00032 0.08165 0.94292 0.0
H1367 H 0.0022 0.09718 0.93023 0.0
H1368 H 0.96749 0.09433 0.98275 0.0
H1369 H 0.97237 0.1303 0.95018 0.0
H1370 H 0.00269 0.08877 0.99209 0.0
H1371 H 5e-05 0.07802 0.97388 0.0
H1372 H 0.98628 0.07914 0.98955 0.0
H1373 H 0.00927 0.1331 0.9529 0.0
H1374 H 0.99444 0.13739 0.9395 0.0
H1375 H 0.00582 0.12252 0.93476 0.0
C1376 C 0.12235 0.65647 0.16256 0.0
C1377 C 0.11125 0.65843 0.17408 0.0
C1378 C 0.11956 0.65274 0.14583 0.0
C1379 C 0.10535 0.65081 0.14054 0.0
C1380 C 0.09412 0.65247 0.15218 0.0
C1381 C 0.0972 0.65632 0.1688 0.0
C1382 C 0.13181 0.65114 0.13374 0.0
C1383 C 0.07883 0.65037 0.14704 0.0
C1384 C 0.09603 0.65536 0.09452 0.0
C1385 C 0.09511 0.64123 0.08907 0.0
C1386 C 0.09958 0.65862 0.11117 0.0
C1387 C 0.10216 0.64748 0.1227 0.0
C1388 C 0.10138 0.63319 0.11725 0.0
C1389 C 0.09793 0.63024 0.10047 0.0
C1390 C 0.10044 0.67399 0.11648 0.0
C1391 C 0.10396 0.62103 0.12921 0.0
H1392 H 0.13323 0.65811 0.16654 0.0
H1393 H 0.08857 0.65775 0.17764 0.0
H1394 H 0.13156 0.64047 0.12785 0.0
H1395 H 0.13081 0.65906 0.1235 0.0
H1396 H 0.14226 0.65261 0.13995 0.0
H1397 H 0.07138 0.65149 0.15777 0.0
H1398 H 0.07591 0.65826 0.1373 0.0
H1399 H 0.0774 0.63968 0.14143 0.0
H1400 H 0.09393 0.66391 0.08576 0.0
H1401 H 0.0972 0.61929 0.09637 0.0
H1402 H 0.11103 0.67626 0.12197 0.0
H1403 H 0.09242 0.67617 0.12635 0.0
H1404 H 0.0986 0.6814 0.10586 0.0
H1405 H 0.11463 0.62204 0.135 0.0
H1406 H 0.10323 0.61053 0.12292 0.0
H1407 H 0.09607 0.62137 0.13954 0.0
C1408 C 0.59717 0.84395 0.33268 0.0
C1409 C 0.61128 0.84152 0.32782 0.0
C1410 C 0.59382 0.84784 0.34921 0.0
C1411 C 0.60483 0.84924 0.36119 0.0
C1412 C 0.6191 0.84699 0.35632 0.0
C1413 C 0.62217 0.84321 0.33967 0.0
C1414 C 0.57847 0.85028 0.3539 0.0
C1415 C 0.63112 0.84831 0.36878 0.0
C1416 C 0.59708 0.87001 0.40102 0.0
C1417 C 0.59383 0.8591 0.41236 0.0
C1418 C 0.60077 0.86697 0.38433 0.0
C1419 C 0.60133 0.85266 0.37893 0.0
C1420 C 0.59829 0.84159 0.39039 0.0
C1421 C 0.59452 0.84495 0.40695 0.0
C1422 C 0.60386 0.87905 0.37244 0.0
C1423 C 0.5989 0.8262 0.38511 0.0
H1424 H 0.58871 0.84272 0.32358 0.0
H1425 H 0.63309 0.84133 0.33602 0.0
H1426 H 0.57518 0.84247 0.36356 0.0
H1427 H 0.57716 0.86101 0.35943 0.0
H1428 H 0.57123 0.84929 0.34295 0.0
H1429 H 0.64167 0.84658 0.36289 0.0
H1430 H 0.631 0.85899 0.37463 0.0
H1431 H 0.62971 0.84044 0.379 0.0
H1432 H 0.59654 0.88098 0.40509 0.0
H1433 H 0.59208 0.83645 0.41566 0.0
H1434 H 0.5962 0.87886 0.36187 0.0
H1435 H 0.61463 0.87782 0.36699 0.0
H1436 H 0.60321 0.88958 0.37869 0.0
H1437 H 0.59106 0.8242 0.375 0.0
H1438 H 0.59664 0.81884 0.39568 0.0
H1439 H 0.60955 0.82367 0.37997 0.0
C1440 C 0.40367 0.34437 0.58457 0.0
C1441 C 0.40518 0.35849 0.57926 0.0
C1442 C 0.40006 0.34115 0.60122 0.0
C1443 C 0.398 0.35231 0.61287 0.0
C1444 C 0.39935 0.36659 0.60756 0.0
C1445 C 0.40287 0.36951 0.59079 0.0
C1446 C 0.39859 0.32579 0.60638 0.0
C1447 C 0.39732 0.37877 0.61965 0.0
C1448 C 0.37771 0.344 0.65286 0.0
C1449 C 0.38879 0.34159 0.66428 0.0
C1450 C 0.38054 0.34763 0.63612 0.0
C1451 C 0.39479 0.349 0.6307 0.0
C1452 C 0.40601 0.34685 0.64224 0.0
C1453 C 0.40288 0.34311 0.65888 0.0
C1454 C 0.3683 0.34977 0.62414 0.0
C1455 C 0.42134 0.34833 0.63697 0.0
H1456 H 0.40538 0.3358 0.57572 0.0
H1457 H 0.40404 0.38045 0.5868 0.0
H1458 H 0.40657 0.32321 0.61616 0.0
H1459 H 0.38795 0.32393 0.61194 0.0
H1460 H 0.40006 0.31838 0.59567 0.0
H1461 H 0.39843 0.38927 0.61345 0.0
H1462 H 0.38666 0.37814 0.62551 0.0
H1463 H 0.40525 0.37805 0.62991 0.0
H1464 H 0.36679 0.34282 0.65694 0.0
H1465 H 0.4115 0.34133 0.66764 0.0
H1466 H 0.36894 0.34189 0.61381 0.0
H1467 H 0.36891 0.36047 0.61836 0.0
H1468 H 0.35783 0.34865 0.63043 0.0
H1469 H 0.42386 0.3404 0.62711 0.0
H1470 H 0.42881 0.3468 0.64761 0.0
H1471 H 0.42318 0.359 0.63148 0.0
C1472 C 0.90625 0.15552 0.91181 0.0
C1473 C 0.90797 0.1414 0.91702 0.0
C1474 C 0.90211 0.15875 0.89534 0.0
C1475 C 0.89972 0.1476 0.88377 0.0
C1476 C 0.9013 0.13332 0.88898 0.0
C1477 C 0.90537 0.13038 0.90557 0.0
C1478 C 0.90044 0.17411 0.89027 0.0
C1479 C 0.8989 0.12115 0.87697 0.0
C1480 C 0.87802 0.15604 0.84485 0.0
C1481 C 0.88868 0.1585 0.83291 0.0
C1482 C 0.88145 0.15231 0.86141 0.0
C1483 C 0.89588 0.15093 0.86611 0.0
C1484 C 0.90668 0.15312 0.85403 0.0
C1485 C 0.90295 0.15692 0.83759 0.0
C1486 C 0.86964 0.1501 0.87397 0.0
C1487 C 0.92218 0.15164 0.85854 0.0
H1488 H 0.90819 0.16409 0.9206 0.0
H1489 H 0.90669 0.11944 0.90949 0.0
H1490 H 0.90805 0.1767 0.88009 0.0
H1491 H 0.88961 0.17596 0.88527 0.0
H1492 H 0.9023 0.18151 0.9009 0.0
H1493 H 0.90027 0.11064 0.88309 0.0
H1494 H 0.88803 0.12174 0.87163 0.0
H1495 H 0.90646 0.12192 0.86633 0.0
H1496 H 0.86697 0.15725 0.84134 0.0
H1497 H 0.91125 0.15875 0.82842 0.0
H1498 H 0.8706 0.15798 0.88426 0.0
H1499 H 0.87051 0.1394 0.8797 0.0
H1500 H 0.85896 0.15117 0.8682 0.0
H1501 H 0.92504 0.15957 0.86828 0.0
H1502 H 0.92926 0.1532 0.84754 0.0
H1503 H 0.92423 0.14097 0.86391 0.0
C1504 C 0.09277 0.39768 0.90251 0.0
C1505 C 0.09026 0.39137 0.91818 0.0
C1506 C 0.09798 0.3897 0.88898 0.0
C1507 C 0.10072 0.37504 0.89115 0.0
C1508 C 0.0985 0.36865 0.90701 0.0
C1509 C 0.0933 0.37691 0.92036 0.0
C1510 C 0.10026 0.39691 0.87227 0.0
C1511 C 0.10131 0.35305 0.90979 0.0
C1512 C 0.09963 0.35236 0.85178 0.0
C1513 C 0.1141 0.35096 0.84794 0.0
C1514 C 0.09516 0.35994 0.86598 0.0
C1515 C 0.10539 0.36631 0.8766 0.0
C1516 C 0.12002 0.36474 0.87297 0.0
C1517 C 0.1242 0.35707 0.85869 0.0
C1518 C 0.07945 0.36135 0.86947 0.0
C1519 C 0.13124 0.37139 0.88399 0.0
H1520 H 0.09049 0.40886 0.90072 0.0
H1521 H 0.0914 0.37195 0.93242 0.0
H1522 H 0.11133 0.39522 0.86794 0.0
H1523 H 0.09314 0.39215 0.86271 0.0
H1524 H 0.09818 0.40851 0.87285 0.0
H1525 H 0.09964 0.34984 0.92306 0.0
H1526 H 0.09416 0.34665 0.90171 0.0
H1527 H 0.11236 0.3504 0.90615 0.0
H1528 H 0.09175 0.34764 0.84358 0.0
H1529 H 0.1354 0.35603 0.85582 0.0
H1530 H 0.07632 0.3727 0.86895 0.0
H1531 H 0.07701 0.35746 0.88228 0.0
H1532 H 0.07288 0.35534 0.86033 0.0
H1533 H 0.13003 0.38311 0.88393 0.0
H1534 H 0.14217 0.36872 0.8798 0.0
H1535 H 0.1299 0.3678 0.89715 0.0
C1536 C 0.87945 0.84109 0.15725 0.0
C1537 C 0.89056 0.8379 0.16836 0.0
C1538 C 0.88224 0.84572 0.14084 0.0
C1539 C 0.89647 0.84726 0.13545 0.0
C1540 C 0.90773 0.8443 0.14669 0.0
C1541 C 0.90464 0.83962 0.16299 0.0
C1542 C 0.86996 0.84873 0.12919 0.0
C1543 C 0.92305 0.84592 0.14142 0.0
C1544 C 0.90495 0.84545 0.08893 0.0
C1545 C 0.90662 0.85984 0.08486 0.0
C1546 C 0.90144 0.84123 0.10529 0.0
C1547 C 0.89964 0.85165 0.11792 0.0
C1548 C 0.90116 0.8662 0.11387 0.0
C1549 C 0.9046 0.87013 0.09737 0.0
C1550 C 0.89982 0.8256 0.10912 0.0
C1551 C 0.89935 0.87761 0.12701 0.0
H1552 H 0.86854 0.83978 0.1613 0.0
H1553 H 0.91328 0.83723 0.17151 0.0
H1554 H 0.87067 0.85976 0.12436 0.0
H1555 H 0.87045 0.84152 0.11819 0.0
H1556 H 0.85951 0.84734 0.13544 0.0
H1557 H 0.93055 0.84361 0.15182 0.0
H1558 H 0.9254 0.83861 0.13085 0.0
H1559 H 0.92501 0.85688 0.13689 0.0
H1560 H 0.90645 0.83743 0.07933 0.0
H1561 H 0.90588 0.88127 0.09433 0.0
H1562 H 0.88918 0.82352 0.11456 0.0
H1563 H 0.90781 0.82234 0.1186 0.0
H1564 H 0.90116 0.81887 0.09778 0.0
H1565 H 0.88871 0.87676 0.13289 0.0
H1566 H 0.90058 0.88846 0.12174 0.0
H1567 H 0.90733 0.87614 0.13711 0.0
C1568 C 0.37943 0.65789 0.34048 0.0
C1569 C 0.39053 0.66139 0.32949 0.0
C1570 C 0.38223 0.65287 0.35673 0.0
C1571 C 0.39648 0.65127 0.36208 0.0
C1572 C 0.40772 0.65454 0.35095 0.0
C1573 C 0.40461 0.65959 0.3348 0.0
C1574 C 0.36997 0.6495 0.36826 0.0
C1575 C 0.42305 0.6529 0.35618 0.0
C1576 C 0.40507 0.65221 0.4086 0.0
C1577 C 0.40698 0.63776 0.41222 0.0
C1578 C 0.40141 0.65672 0.39239 0.0
C1579 C 0.39966 0.64655 0.37948 0.0
C1580 C 0.40135 0.63193 0.3831 0.0
C1581 C 0.40497 0.62771 0.39944 0.0
C1582 C 0.39962 0.6724 0.38902 0.0
C1583 C 0.39959 0.62078 0.36964 0.0
H1584 H 0.36852 0.65925 0.33647 0.0
H1585 H 0.41325 0.66223 0.32637 0.0
H1586 H 0.37078 0.6384 0.3728 0.0
H1587 H 0.37037 0.65651 0.37945 0.0
H1588 H 0.35952 0.65092 0.36202 0.0
H1589 H 0.43054 0.65547 0.34585 0.0
H1590 H 0.42535 0.66 0.36696 0.0
H1591 H 0.42506 0.64186 0.36039 0.0
H1592 H 0.40656 0.66004 0.41841 0.0
H1593 H 0.40642 0.61652 0.40214 0.0
H1594 H 0.38897 0.67449 0.38362 0.0
H1595 H 0.40759 0.67595 0.37967 0.0
H1596 H 0.40088 0.67891 0.40056 0.0
H1597 H 0.38896 0.62172 0.36376 0.0
H1598 H 0.40083 0.60983 0.37463 0.0
H1599 H 0.40759 0.62246 0.35961 0.0
C1600 C 0.59216 0.12536 0.57956 0.0
C1601 C 0.58898 0.11087 0.5812 0.0
C1602 C 0.59692 0.13332 0.59336 0.0
C1603 C 0.59853 0.12663 0.60915 0.0
C1604 C 0.59566 0.11194 0.61078 0.0
C1605 C 0.59092 0.10424 0.59679 0.0
C1606 C 0.5999 0.14896 0.59114 0.0
C1607 C 0.59729 0.10442 0.62741 0.0
C1608 C 0.6208 0.1439 0.64329 0.0
C1609 C 0.61032 0.14992 0.65359 0.0
C1610 C 0.61715 0.13649 0.62862 0.0
C1611 C 0.60267 0.13507 0.62416 0.0
C1612 C 0.59206 0.14132 0.63435 0.0
C1613 C 0.59601 0.14866 0.64894 0.0
C1614 C 0.62876 0.12998 0.61805 0.0
C1615 C 0.5765 0.14004 0.63 0.0
H1616 H 0.5907 0.13055 0.56755 0.0
H1617 H 0.58852 0.09305 0.59817 0.0
H1618 H 0.59246 0.15526 0.59897 0.0
H1619 H 0.61081 0.15148 0.59546 0.0
H1620 H 0.59879 0.15241 0.57788 0.0
H1621 H 0.59519 0.09284 0.62642 0.0
H1622 H 0.60818 0.10598 0.63237 0.0
H1623 H 0.58982 0.10902 0.6367 0.0
H1624 H 0.63189 0.14484 0.64678 0.0
H1625 H 0.58785 0.1533 0.6568 0.0
H1626 H 0.62795 0.13382 0.60493 0.0
H1627 H 0.62749 0.11827 0.61774 0.0
H1628 H 0.63952 0.1325 0.6229 0.0
H1629 H 0.57456 0.1442 0.61718 0.0
H1630 H 0.5696 0.14589 0.63894 0.0
H1631 H 0.57332 0.12869 0.63002 0.0
C1632 C 0.8344 0.36398 0.85565 0.0
C1633 C 0.84162 0.3598 0.84107 0.0
C1634 C 0.84122 0.37208 0.86807 0.0
C1635 C 0.85566 0.37587 0.86597 0.0
C1636 C 0.86305 0.37151 0.85138 0.0
C1637 C 0.8559 0.36363 0.83904 0.0
C1638 C 0.83293 0.3767 0.88334 0.0
C1639 C 0.87852 0.37515 0.84882 0.0
C1640 C 0.87048 0.4075 0.88986 0.0
C1641 C 0.87724 0.40088 0.90345 0.0
C1642 C 0.86327 0.39949 0.87769 0.0
C1643 C 0.86302 0.3845 0.87898 0.0
C1644 C 0.86987 0.37776 0.89264 0.0
C1645 C 0.8768 0.38604 0.90479 0.0
C1646 C 0.85591 0.40708 0.86344 0.0
C1647 C 0.87002 0.36178 0.89431 0.0
H1648 H 0.82334 0.36111 0.85727 0.0
H1649 H 0.86156 0.36035 0.82784 0.0
H1650 H 0.83805 0.37254 0.89488 0.0
H1651 H 0.83297 0.38846 0.88427 0.0
H1652 H 0.82175 0.37296 0.88302 0.0
H1653 H 0.88282 0.37064 0.83699 0.0
H1654 H 0.87989 0.38685 0.84852 0.0
H1655 H 0.88491 0.37108 0.85948 0.0
H1656 H 0.87072 0.41897 0.88881 0.0
H1657 H 0.88207 0.38086 0.91521 0.0
H1658 H 0.84449 0.40416 0.8632 0.0
H1659 H 0.86055 0.40373 0.85128 0.0
H1660 H 0.85679 0.41881 0.86448 0.0
H1661 H 0.859 0.35769 0.89506 0.0
H1662 H 0.87593 0.35819 0.9056 0.0
H1663 H 0.87499 0.35696 0.88304 0.0
C1664 C 0.36135 0.13608 0.66188 0.0
C1665 C 0.34689 0.13958 0.66113 0.0
C1666 C 0.36782 0.12816 0.64907 0.0
C1667 C 0.35958 0.12342 0.63531 0.0
C1668 C 0.34497 0.12691 0.63447 0.0
C1669 C 0.33883 0.13505 0.64733 0.0
C1670 C 0.38347 0.12483 0.65027 0.0
C1671 C 0.3358 0.1219 0.62011 0.0
C1672 C 0.37834 0.11277 0.59498 0.0
C1673 C 0.3791 0.09797 0.59668 0.0
C1674 C 0.37205 0.1212 0.60749 0.0
C1675 C 0.3662 0.11464 0.62189 0.0
C1676 C 0.36678 0.09968 0.62357 0.0
C1677 C 0.37333 0.09154 0.611 0.0
C1678 C 0.37183 0.13713 0.60537 0.0
C1679 C 0.36049 0.09228 0.63864 0.0
H1680 H 0.36766 0.13962 0.67246 0.0
H1681 H 0.32763 0.13766 0.6467 0.0
H1682 H 0.38507 0.11317 0.65081 0.0
H1683 H 0.38906 0.12875 0.63892 0.0
H1684 H 0.38848 0.12968 0.66152 0.0
H1685 H 0.32462 0.12552 0.62132 0.0
H1686 H 0.34011 0.12586 0.60803 0.0
H1687 H 0.33591 0.11013 0.61952 0.0
H1688 H 0.38285 0.11782 0.58399 0.0
H1689 H 0.37383 0.08009 0.61235 0.0
H1690 H 0.37746 0.14225 0.616 0.0
H1691 H 0.36072 0.14105 0.60555 0.0
H1692 H 0.37689 0.14058 0.59346 0.0
H1693 H 0.36587 0.09594 0.65024 0.0
H1694 H 0.36148 0.08055 0.63783 0.0
H1695 H 0.34908 0.09504 0.63985 0.0
C1696 C 0.65501 0.63547 0.3541 0.0
C1697 C 0.64787 0.64029 0.33975 0.0
C1698 C 0.64772 0.62826 0.36689 0.0
C1699 C 0.6329 0.62606 0.36544 0.0
C1700 C 0.62561 0.63106 0.35107 0.0
C1701 C 0.63321 0.638 0.33832 0.0
C1702 C 0.6559 0.62289 0.3819 0.0
C1703 C 0.60977 0.62913 0.34919 0.0
C1704 C 0.6157 0.59651 0.39079 0.0
C1705 C 0.61037 0.60396 0.40466 0.0
C1706 C 0.62312 0.60356 0.37798 0.0
C1707 C 0.62503 0.61845 0.37892 0.0
C1708 C 0.6195 0.62606 0.39278 0.0
C1709 C 0.61235 0.6187 0.40556 0.0
C1710 C 0.62906 0.59504 0.36353 0.0
C1711 C 0.6211 0.64198 0.39408 0.0
H1712 H 0.66635 0.63715 0.35524 0.0
H1713 H 0.62762 0.64178 0.3273 0.0
H1714 H 0.65168 0.62775 0.39355 0.0
H1715 H 0.65455 0.61123 0.38307 0.0
H1716 H 0.66743 0.6253 0.38102 0.0
H1717 H 0.60564 0.63395 0.33744 0.0
H1718 H 0.6071 0.61766 0.34919 0.0
H1719 H 0.60419 0.63402 0.36001 0.0
H1720 H 0.61426 0.58511 0.39006 0.0
H1721 H 0.60817 0.62454 0.4162 0.0
H1722 H 0.64073 0.59656 0.36278 0.0
H1723 H 0.62448 0.59886 0.35153 0.0
H1724 H 0.6268 0.58351 0.36477 0.0
H1725 H 0.63252 0.64485 0.39445 0.0
H1726 H 0.61586 0.64636 0.40545 0.0
H1727 H 0.61645 0.64715 0.38284 0.0
C1728 C 0.1105 0.87699 0.08848 0.0
C1729 C 0.10862 0.89177 0.08833 0.0
C1730 C 0.11728 0.87021 0.10197 0.0
C1731 C 0.12253 0.87844 0.11549 0.0
C1732 C 0.12074 0.89336 0.11536 0.0
C1733 C 0.1137 0.89984 0.10185 0.0
C1734 C 0.11877 0.85425 0.10179 0.0
C1735 C 0.12638 0.90251 0.12943 0.0
C1736 C 0.12938 0.8608 0.15762 0.0
C1737 C 0.14406 0.85835 0.15695 0.0
C1738 C 0.12221 0.86717 0.14414 0.0
C1739 C 0.12994 0.87143 0.12976 0.0
C1740 C 0.14478 0.86905 0.12904 0.0
C1741 C 0.15164 0.86243 0.14259 0.0
C1742 C 0.10634 0.86932 0.14525 0.0
C1743 C 0.15343 0.87362 0.11403 0.0
H1744 H 0.10652 0.87069 0.07812 0.0
H1745 H 0.11235 0.91127 0.10177 0.0
H1746 H 0.13017 0.85128 0.10209 0.0
H1747 H 0.11375 0.84966 0.11315 0.0
H1748 H 0.11383 0.84937 0.09052 0.0
H1749 H 0.12429 0.91398 0.12732 0.0
H1750 H 0.12144 0.89934 0.14149 0.0
H1751 H 0.13801 0.90093 0.13073 0.0
H1752 H 0.12344 0.8576 0.16864 0.0
H1753 H 0.163 0.86063 0.14202 0.0
H1754 H 0.10102 0.86396 0.13456 0.0
H1755 H 0.10379 0.88079 0.14438 0.0
H1756 H 0.10184 0.8651 0.15714 0.0
H1757 H 0.14947 0.86825 0.10256 0.0
H1758 H 0.16489 0.87115 0.11551 0.0
H1759 H 0.15223 0.88522 0.11203 0.0
C1760 C 0.89411 0.58533 0.11139 0.0
C1761 C 0.89935 0.59164 0.09671 0.0
C1762 C 0.88647 0.59329 0.12324 0.0
C1763 C 0.88427 0.60798 0.12051 0.0
C1764 C 0.88969 0.61446 0.10581 0.0
C1765 C 0.89703 0.60617 0.094 0.0
C1766 C 0.88065 0.58595 0.13861 0.0
C1767 C 0.88781 0.63015 0.10261 0.0
C1768 C 0.854 0.6263 0.14349 0.0
C1769 C 0.86103 0.63223 0.15733 0.0
C1770 C 0.86142 0.61836 0.13143 0.0
C1771 C 0.87629 0.61657 0.13306 0.0
C1772 C 0.88349 0.62278 0.14682 0.0
C1773 C 0.87575 0.63041 0.15889 0.0
C1774 C 0.85333 0.6117 0.11709 0.0
C1775 C 0.89937 0.62134 0.14882 0.0
H1776 H 0.8958 0.57408 0.11351 0.0
H1777 H 0.90114 0.61113 0.08272 0.0
H1778 H 0.8852 0.59078 0.15011 0.0
H1779 H 0.86896 0.58739 0.13923 0.0
H1780 H 0.88302 0.57439 0.1387 0.0
H1781 H 0.89294 0.63361 0.09075 0.0
H1782 H 0.87634 0.63279 0.10198 0.0
H1783 H 0.8924 0.63634 0.11314 0.0
H1784 H 0.84261 0.62761 0.14227 0.0
H1785 H 0.88126 0.63506 0.16949 0.0
H1786 H 0.85479 0.60001 0.11729 0.0
H1787 H 0.85754 0.61559 0.10494 0.0
H1788 H 0.84178 0.61407 0.11765 0.0
H1789 H 0.90226 0.60999 0.15027 0.0
H1790 H 0.90344 0.62729 0.15986 0.0
H1791 H 0.90482 0.62531 0.1374 0.0
C1792 C 0.11475 0.09271 0.89637 0.0
C1793 C 0.10976 0.09945 0.91091 0.0
C1794 C 0.12256 0.10024 0.88427 0.0
C1795 C 0.12518 0.11491 0.88663 0.0
C1796 C 0.12002 0.1218 0.9012 0.0
C1797 C 0.11249 0.11395 0.91324 0.0
C1798 C 0.12809 0.09247 0.86904 0.0
C1799 C 0.12239 0.13748 0.90402 0.0
C1800 C 0.15583 0.13238 0.86348 0.0
C1801 C 0.14889 0.13857 0.84974 0.0
C1802 C 0.14827 0.12452 0.87548 0.0
C1803 C 0.13337 0.12305 0.87388 0.0
C1804 C 0.12628 0.12939 0.86012 0.0
C1805 C 0.13415 0.13696 0.84812 0.0
C1806 C 0.15623 0.11771 0.88982 0.0
C1807 C 0.11037 0.12826 0.85813 0.0
H1808 H 0.11274 0.08148 0.89454 0.0
H1809 H 0.10857 0.11924 0.92441 0.0
H1810 H 0.12367 0.09727 0.85746 0.0
H1811 H 0.13981 0.09352 0.86835 0.0
H1812 H 0.12533 0.081 0.86922 0.0
H1813 H 0.1174 0.1413 0.91581 0.0
H1814 H 0.13393 0.13978 0.90455 0.0
H1815 H 0.11795 0.14362 0.89336 0.0
H1816 H 0.16724 0.13352 0.86474 0.0
H1817 H 0.12871 0.14179 0.83759 0.0
H1818 H 0.15429 0.10609 0.88989 0.0
H1819 H 0.15231 0.12196 0.90195 0.0
H1820 H 0.16786 0.11959 0.88906 0.0
H1821 H 0.1072 0.11695 0.85711 0.0
H1822 H 0.10645 0.13401 0.84687 0.0
H1823 H 0.10502 0.13267 0.86939 0.0
C1824 C 0.62806 0.36218 0.6507 0.0
C1825 C 0.64281 0.36029 0.64976 0.0
C1826 C 0.6206 0.36911 0.63783 0.0
C1827 C 0.62811 0.37448 0.62382 0.0
C1828 C 0.64302 0.37274 0.62288 0.0
C1829 C 0.65018 0.36556 0.63579 0.0
C1830 C 0.60467 0.37056 0.63916 0.0
C1831 C 0.65143 0.37851 0.60825 0.0
C1832 C 0.60833 0.38126 0.58303 0.0
C1833 C 0.60582 0.39592 0.58391 0.0
C1834 C 0.61543 0.37412 0.59602 0.0
C1835 C 0.62036 0.38188 0.61009 0.0
C1836 C 0.61793 0.39669 0.611 0.0
C1837 C 0.61058 0.40352 0.59796 0.0
C1838 C 0.61762 0.35827 0.59472 0.0
C1839 C 0.6232 0.40536 0.62568 0.0
H1840 H 0.62229 0.35806 0.66142 0.0
H1841 H 0.66159 0.3642 0.63502 0.0
H1842 H 0.60165 0.38195 0.63902 0.0
H1843 H 0.59952 0.36548 0.62818 0.0
H1844 H 0.6004 0.36565 0.65078 0.0
H1845 H 0.663 0.37655 0.60959 0.0
H1846 H 0.64774 0.37354 0.59641 0.0
H1847 H 0.64965 0.39012 0.60708 0.0
H1848 H 0.6046 0.37531 0.57225 0.0
H1849 H 0.60873 0.41486 0.59867 0.0
H1850 H 0.61284 0.3529 0.60575 0.0
H1851 H 0.62913 0.35579 0.5948 0.0
H1852 H 0.61286 0.35375 0.58314 0.0
H1853 H 0.61845 0.40135 0.6375 0.0
H1854 H 0.62058 0.41681 0.62439 0.0
H1855 H 0.63488 0.40424 0.62685 0.0
C1856 C 0.37135 0.8691 0.34604 0.0
C1857 C 0.35675 0.86691 0.34839 0.0
C1858 C 0.37938 0.87683 0.35775 0.0
C1859 C 0.37259 0.88276 0.37197 0.0
C1860 C 0.35785 0.88061 0.37439 0.0
C1861 C 0.35014 0.87258 0.36266 0.0
C1862 C 0.39513 0.87863 0.3549 0.0
C1863 C 0.35018 0.88698 0.38923 0.0
C1864 C 0.39454 0.89322 0.41007 0.0
C1865 C 0.39644 0.90782 0.40746 0.0
C1866 C 0.38696 0.88489 0.39851 0.0
C1867 C 0.38087 0.89139 0.3842 0.0
C1868 C 0.38266 0.90616 0.38158 0.0
C1869 C 0.39055 0.91417 0.39315 0.0
C1870 C 0.38553 0.86913 0.40157 0.0
C1871 C 0.37611 0.91352 0.36663 0.0
H1872 H 0.37653 0.86465 0.33509 0.0
H1873 H 0.33884 0.87099 0.3645 0.0
H1874 H 0.39771 0.89006 0.35348 0.0
H1875 H 0.40111 0.87467 0.36595 0.0
H1876 H 0.39888 0.8729 0.34356 0.0
H1877 H 0.33866 0.88441 0.38923 0.0
H1878 H 0.35491 0.88305 0.40109 0.0
H1879 H 0.35141 0.8987 0.38912 0.0
H1880 H 0.39915 0.88825 0.42106 0.0
H1881 H 0.39192 0.92547 0.39112 0.0
H1882 H 0.38983 0.86315 0.3907 0.0
H1883 H 0.37416 0.86624 0.4028 0.0
H1884 H 0.3912 0.86566 0.41308 0.0
H1885 H 0.38031 0.90889 0.35484 0.0
H1886 H 0.37825 0.92512 0.36659 0.0
H1887 H 0.36445 0.91185 0.36662 0.0
loop_
_geom_bond_atom_site_label_1
_geom_bond_atom_site_label_2
_geom_bond_distance
_geom_bond_site_symmetry_2
_ccdc_geom_bond_type
O0 Cd1 2.300 . S
O0 C7 1.275 . S
Cd1 O0 2.300 . S
Cd1 O9 2.381 . S
Cd1 O10 2.378 . S
O2 Cd3 2.385 . S
O2 C7 1.255 . S
Cd3 O2 2.385 . S
Cd3 O4 2.317 . S
O4 Cd3 2.317 . S
O4 C5 1.232 . S
C5 O4 1.232 . S
C5 O6 1.218 . S
O6 C5 1.218 . S
C7 O0 1.275 . S
C7 O2 1.255 . S
C8 O9 1.258 . S
C8 O10 1.256 . S
O9 Cd1 2.381 . S
O9 C8 1.258 . S
O10 Cd1 2.378 . S
O10 C8 1.256 . S
O11 Cd12 2.300 . S
O11 C18 1.275 . S
Cd12 O11 2.300 . S
Cd12 O20 2.381 . S
Cd12 O21 2.378 . S
O13 Cd14 2.385 . S
O13 C18 1.255 . S
Cd14 O13 2.385 . S
Cd14 O15 2.317 . S
O15 Cd14 2.317 . S
O15 C16 1.232 . S
C16 O15 1.232 . S
C16 O17 1.218 . S
O17 C16 1.218 . S
C18 O11 1.275 . S
C18 O13 1.255 . S
C19 O20 1.258 . S
C19 O21 1.256 . S
O20 Cd12 2.381 . S
O20 C19 1.258 . S
O21 Cd12 2.378 . S
O21 C19 1.256 . S
O22 Cd23 2.300 . S
O22 C29 1.275 . S
Cd23 O22 2.300 . S
Cd23 O31 2.381 . S
Cd23 O32 2.378 . S
O24 Cd25 2.385 . S
O24 C29 1.255 . S
Cd25 O24 2.385 . S
Cd25 O26 2.317 . S
O26 Cd25 2.317 . S
O26 C27 1.232 . S
C27 O26 1.232 . S
C27 O28 1.218 . S
O28 C27 1.218 . S
C29 O22 1.275 . S
C29 O24 1.255 . S
C30 O31 1.258 . S
C30 O32 1.256 . S
O31 Cd23 2.381 . S
O31 C30 1.258 . S
O32 Cd23 2.378 . S
O32 C30 1.256 . S
O33 Cd34 2.300 . S
O33 C40 1.275 . S
Cd34 O33 2.300 . S
Cd34 O42 2.381 . S
Cd34 O43 2.378 . S
O35 Cd36 2.385 . S
O35 C40 1.255 . S
Cd36 O35 2.385 . S
Cd36 O37 2.317 . S
O37 Cd36 2.317 . S
O37 C38 1.232 . S
C38 O37 1.232 . S
C38 O39 1.218 . S
O39 C38 1.218 . S
C40 O33 1.275 . S
C40 O35 1.255 . S
C41 O42 1.258 . S
C41 O43 1.256 . S
O42 Cd34 2.381 . S
O42 C41 1.258 . S
O43 Cd34 2.378 . S
O43 C41 1.256 . S
O44 Cd45 2.300 . S
O44 C51 1.275 . S
Cd45 O44 2.300 . S
Cd45 O53 2.381 . S
Cd45 O54 2.378 . S
O46 Cd47 2.385 . S
O46 C51 1.255 . S
Cd47 O46 2.385 . S
Cd47 O48 2.317 . S
O48 Cd47 2.317 . S
O48 C49 1.232 . S
C49 O48 1.232 . S
C49 O50 1.218 . S
O50 C49 1.218 . S
C51 O44 1.275 . S
C51 O46 1.255 . S
C52 O53 1.258 . S
C52 O54 1.256 . S
O53 Cd45 2.381 . S
O53 C52 1.258 . S
O54 Cd45 2.378 . S
O54 C52 1.256 . S
O55 Cd56 2.300 . S
O55 C62 1.275 . S
Cd56 O55 2.300 . S
Cd56 O64 2.381 . S
Cd56 O65 2.378 . S
O57 Cd58 2.385 . S
O57 C62 1.255 . S
Cd58 O57 2.385 . S
Cd58 O59 2.317 . S
O59 Cd58 2.317 . S
O59 C60 1.232 . S
C60 O59 1.232 . S
C60 O61 1.218 . S
O61 C60 1.218 . S
C62 O55 1.275 . S
C62 O57 1.255 . S
C63 O64 1.258 . S
C63 O65 1.256 . S
O64 Cd56 2.381 . S
O64 C63 1.258 . S
O65 Cd56 2.378 . S
O65 C63 1.256 . S
O66 Cd67 2.300 . S
O66 C73 1.275 . S
Cd67 O66 2.300 . S
Cd67 O75 2.381 . S
Cd67 O76 2.378 . S
O68 Cd69 2.385 . S
O68 C73 1.255 . S
Cd69 O68 2.385 . S
Cd69 O70 2.317 . S
O70 Cd69 2.317 . S
O70 C71 1.232 . S
C71 O70 1.232 . S
C71 O72 1.218 . S
O72 C71 1.218 . S
C73 O66 1.275 . S
C73 O68 1.255 . S
C74 O75 1.258 . S
C74 O76 1.256 . S
O75 Cd67 2.381 . S
O75 C74 1.258 . S
O76 Cd67 2.378 . S
O76 C74 1.256 . S
O77 Cd78 2.300 . S
O77 C84 1.275 . S
Cd78 O77 2.300 . S
Cd78 O86 2.381 . S
Cd78 O87 2.378 . S
O79 Cd80 2.385 . S
O79 C84 1.255 . S
Cd80 O79 2.385 . S
Cd80 O81 2.317 . S
O81 Cd80 2.317 . S
O81 C82 1.232 . S
C82 O81 1.232 . S
C82 O83 1.218 . S
O83 C82 1.218 . S
C84 O77 1.275 . S
C84 O79 1.255 . S
C85 O86 1.258 . S
C85 O87 1.256 . S
O86 Cd78 2.381 . S
O86 C85 1.258 . S
O87 Cd78 2.378 . S
O87 C85 1.256 . S
O88 Cd89 2.300 . S
O88 C95 1.275 . S
Cd89 O88 2.300 . S
Cd89 O97 2.381 . S
Cd89 O98 2.378 . S
O90 Cd91 2.385 . S
O90 C95 1.255 . S
Cd91 O90 2.385 . S
Cd91 O92 2.317 . S
O92 Cd91 2.317 . S
O92 C93 1.232 . S
C93 O92 1.232 . S
C93 O94 1.218 . S
O94 C93 1.218 . S
C95 O88 1.275 . S
C95 O90 1.255 . S
C96 O97 1.258 . S
C96 O98 1.256 . S
O97 Cd89 2.381 . S
O97 C96 1.258 . S
O98 Cd89 2.378 . S
O98 C96 1.256 . S
O99 Cd100 2.300 . S
O99 C106 1.275 . S
Cd100 O99 2.300 . S
Cd100 O108 2.381 . S
Cd100 O109 2.378 . S
O101 Cd102 2.385 . S
O101 C106 1.255 . S
Cd102 O101 2.385 . S
Cd102 O103 2.317 . S
O103 Cd102 2.317 . S
O103 C104 1.232 . S
C104 O103 1.232 . S
C104 O105 1.218 . S
O105 C104 1.218 . S
C106 O99 1.275 . S
C106 O101 1.255 . S
C107 O108 1.258 . S
C107 O109 1.256 . S
O108 Cd100 2.381 . S
O108 C107 1.258 . S
O109 Cd100 2.378 . S
O109 C107 1.256 . S
O110 Cd111 2.300 . S
O110 C117 1.275 . S
Cd111 O110 2.300 . S
Cd111 O119 2.381 . S
Cd111 O120 2.378 . S
O112 Cd113 2.385 . S
O112 C117 1.255 . S
Cd113 O112 2.385 . S
Cd113 O114 2.317 . S
O114 Cd113 2.317 . S
O114 C115 1.232 . S
C115 O114 1.232 . S
C115 O116 1.218 . S
O116 C115 1.218 . S
C117 O110 1.275 . S
C117 O112 1.255 . S
C118 O119 1.258 . S
C118 O120 1.256 . S
O119 Cd111 2.381 . S
O119 C118 1.258 . S
O120 Cd111 2.378 . S
O120 C118 1.256 . S
O121 Cd122 2.300 . S
O121 C128 1.275 . S
Cd122 O121 2.300 . S
Cd122 O130 2.381 . S
Cd122 O131 2.378 . S
O123 Cd124 2.385 . S
O123 C128 1.255 . S
Cd124 O123 2.385 . S
Cd124 O125 2.317 . S
O125 Cd124 2.317 . S
O125 C126 1.232 . S
C126 O125 1.232 . S
C126 O127 1.218 . S
O127 C126 1.218 . S
C128 O121 1.275 . S
C128 O123 1.255 . S
C129 O130 1.258 . S
C129 O131 1.256 . S
O130 Cd122 2.381 . S
O130 C129 1.258 . S
O131 Cd122 2.378 . S
O131 C129 1.256 . S
O132 Cd133 2.300 . S
O132 C139 1.275 . S
Cd133 O132 2.300 . S
Cd133 O141 2.381 . S
Cd133 O142 2.378 . S
O134 Cd135 2.385 . S
O134 C139 1.255 . S
Cd135 O134 2.385 . S
Cd135 O136 2.317 . S
O136 Cd135 2.317 . S
O136 C137 1.232 . S
C137 O136 1.232 . S
C137 O138 1.218 . S
O138 C137 1.218 . S
C139 O132 1.275 . S
C139 O134 1.255 . S
C140 O141 1.258 . S
C140 O142 1.256 . S
O141 Cd133 2.381 . S
O141 C140 1.258 . S
O142 Cd133 2.378 . S
O142 C140 1.256 . S
O143 Cd144 2.300 . S
O143 C150 1.275 . S
Cd144 O143 2.300 . S
Cd144 O152 2.381 . S
Cd144 O153 2.378 . S
O145 Cd146 2.385 . S
O145 C150 1.255 . S
Cd146 O145 2.385 . S
Cd146 O147 2.317 . S
O147 Cd146 2.317 . S
O147 C148 1.232 . S
C148 O147 1.232 . S
C148 O149 1.218 . S
O149 C148 1.218 . S
C150 O143 1.275 . S
C150 O145 1.255 . S
C151 O152 1.258 . S
C151 O153 1.256 . S
O152 Cd144 2.381 . S
O152 C151 1.258 . S
O153 Cd144 2.378 . S
O153 C151 1.256 . S
O154 Cd155 2.300 . S
O154 C161 1.275 . S
Cd155 O154 2.300 . S
Cd155 O163 2.381 . S
Cd155 O164 2.378 . S
O156 Cd157 2.385 . S
O156 C161 1.255 . S
Cd157 O156 2.385 . S
Cd157 O158 2.317 . S
O158 Cd157 2.317 . S
O158 C159 1.232 . S
C159 O158 1.232 . S
C159 O160 1.218 . S
O160 C159 1.218 . S
C161 O154 1.275 . S
C161 O156 1.255 . S
C162 O163 1.258 . S
C162 O164 1.256 . S
O163 Cd155 2.381 . S
O163 C162 1.258 . S
O164 Cd155 2.378 . S
O164 C162 1.256 . S
O165 Cd166 2.300 . S
O165 C172 1.275 . S
Cd166 O165 2.300 . S
Cd166 O174 2.381 . S
Cd166 O175 2.378 . S
O167 Cd168 2.385 . S
O167 C172 1.255 . S
Cd168 O167 2.385 . S
Cd168 O169 2.317 . S
O169 Cd168 2.317 . S
O169 C170 1.232 . S
C170 O169 1.232 . S
C170 O171 1.218 . S
O171 C170 1.218 . S
C172 O165 1.275 . S
C172 O167 1.255 . S
C173 O174 1.258 . S
C173 O175 1.256 . S
O174 Cd166 2.381 . S
O174 C173 1.258 . S
O175 Cd166 2.378 . S
O175 C173 1.256 . S
O176 Cd177 2.300 . S
O176 C183 1.275 . S
Cd177 O176 2.300 . S
Cd177 O185 2.381 . S
Cd177 O186 2.378 . S
O178 Cd179 2.385 . S
O178 C183 1.255 . S
Cd179 O178 2.385 . S
Cd179 O180 2.317 . S
O180 Cd179 2.317 . S
O180 C181 1.232 . S
C181 O180 1.232 . S
C181 O182 1.218 . S
O182 C181 1.218 . S
C183 O176 1.275 . S
C183 O178 1.255 . S
C184 O185 1.258 . S
C184 O186 1.256 . S
O185 Cd177 2.381 . S
O185 C184 1.258 . S
O186 Cd177 2.378 . S
O186 C184 1.256 . S
O187 Cd188 2.300 . S
O187 C194 1.275 . S
Cd188 O187 2.300 . S
Cd188 O196 2.381 . S
Cd188 O197 2.378 . S
O189 Cd190 2.385 . S
O189 C194 1.255 . S
Cd190 O189 2.385 . S
Cd190 O191 2.317 . S
O191 Cd190 2.317 . S
O191 C192 1.232 . S
C192 O191 1.232 . S
C192 O193 1.218 . S
O193 C192 1.218 . S
C194 O187 1.275 . S
C194 O189 1.255 . S
C195 O196 1.258 . S
C195 O197 1.256 . S
O196 Cd188 2.381 . S
O196 C195 1.258 . S
O197 Cd188 2.378 . S
O197 C195 1.256 . S
O198 Cd199 2.300 . S
O198 C205 1.275 . S
Cd199 O198 2.300 . S
Cd199 O207 2.381 . S
Cd199 O208 2.378 . S
O200 Cd201 2.385 . S
O200 C205 1.255 . S
Cd201 O200 2.385 . S
Cd201 O202 2.317 . S
O202 Cd201 2.317 . S
O202 C203 1.232 . S
C203 O202 1.232 . S
C203 O204 1.218 . S
O204 C203 1.218 . S
C205 O198 1.275 . S
C205 O200 1.255 . S
C206 O207 1.258 . S
C206 O208 1.256 . S
O207 Cd199 2.381 . S
O207 C206 1.258 . S
O208 Cd199 2.378 . S
O208 C206 1.256 . S
O209 Cd210 2.300 . S
O209 C216 1.275 . S
Cd210 O209 2.300 . S
Cd210 O218 2.381 . S
Cd210 O219 2.378 . S
O211 Cd212 2.385 . S
O211 C216 1.255 . S
Cd212 O211 2.385 . S
Cd212 O213 2.317 . S
O213 Cd212 2.317 . S
O213 C214 1.232 . S
C214 O213 1.232 . S
C214 O215 1.218 . S
O215 C214 1.218 . S
C216 O209 1.275 . S
C216 O211 1.255 . S
C217 O218 1.258 . S
C217 O219 1.256 . S
O218 Cd210 2.381 . S
O218 C217 1.258 . S
O219 Cd210 2.378 . S
O219 C217 1.256 . S
O220 Cd221 2.300 . S
O220 C227 1.275 . S
Cd221 O220 2.300 . S
Cd221 O229 2.381 . S
Cd221 O230 2.378 . S
O222 Cd223 2.385 . S
O222 C227 1.255 . S
Cd223 O222 2.385 . S
Cd223 O224 2.317 . S
O224 Cd223 2.317 . S
O224 C225 1.232 . S
C225 O224 1.232 . S
C225 O226 1.218 . S
O226 C225 1.218 . S
C227 O220 1.275 . S
C227 O222 1.255 . S
C228 O229 1.258 . S
C228 O230 1.256 . S
O229 Cd221 2.381 . S
O229 C228 1.258 . S
O230 Cd221 2.378 . S
O230 C228 1.256 . S
O231 Cd232 2.300 . S
O231 C238 1.275 . S
Cd232 O231 2.300 . S
Cd232 O240 2.381 . S
Cd232 O241 2.378 . S
O233 Cd234 2.385 . S
O233 C238 1.255 . S
Cd234 O233 2.385 . S
Cd234 O235 2.317 . S
O235 Cd234 2.317 . S
O235 C236 1.232 . S
C236 O235 1.232 . S
C236 O237 1.218 . S
O237 C236 1.218 . S
C238 O231 1.275 . S
C238 O233 1.255 . S
C239 O240 1.258 . S
C239 O241 1.256 . S
O240 Cd232 2.381 . S
O240 C239 1.258 . S
O241 Cd232 2.378 . S
O241 C239 1.256 . S
O242 Cd243 2.300 . S
O242 C249 1.275 . S
Cd243 O242 2.300 . S
Cd243 O251 2.381 . S
Cd243 O252 2.378 . S
O244 Cd245 2.385 . S
O244 C249 1.255 . S
Cd245 O244 2.385 . S
Cd245 O246 2.317 . S
O246 Cd245 2.317 . S
O246 C247 1.232 . S
C247 O246 1.232 . S
C247 O248 1.218 . S
O248 C247 1.218 . S
C249 O242 1.275 . S
C249 O244 1.255 . S
C250 O251 1.258 . S
C250 O252 1.256 . S
O251 Cd243 2.381 . S
O251 C250 1.258 . S
O252 Cd243 2.378 . S
O252 C250 1.256 . S
O253 Cd254 2.300 . S
O253 C260 1.275 . S
Cd254 O253 2.300 . S
Cd254 O262 2.381 . S
Cd254 O263 2.378 . S
O255 Cd256 2.385 . S
O255 C260 1.255 . S
Cd256 O255 2.385 . S
Cd256 O257 2.317 . S
O257 Cd256 2.317 . S
O257 C258 1.232 . S
C258 O257 1.232 . S
C258 O259 1.218 . S
O259 C258 1.218 . S
C260 O253 1.275 . S
C260 O255 1.255 . S
C261 O262 1.258 . S
C261 O263 1.256 . S
O262 Cd254 2.381 . S
O262 C261 1.258 . S
O263 Cd254 2.378 . S
O263 C261 1.256 . S
O264 Cd265 2.300 . S
O264 C271 1.275 . S
Cd265 O264 2.300 . S
Cd265 O273 2.381 . S
Cd265 O274 2.378 . S
O266 Cd267 2.385 . S
O266 C271 1.255 . S
Cd267 O266 2.385 . S
Cd267 O268 2.317 . S
O268 Cd267 2.317 . S
O268 C269 1.232 . S
C269 O268 1.232 . S
C269 O270 1.218 . S
O270 C269 1.218 . S
C271 O264 1.275 . S
C271 O266 1.255 . S
C272 O273 1.258 . S
C272 O274 1.256 . S
O273 Cd265 2.381 . S
O273 C272 1.258 . S
O274 Cd265 2.378 . S
O274 C272 1.256 . S
O275 Cd276 2.300 . S
O275 C282 1.275 . S
Cd276 O275 2.300 . S
Cd276 O284 2.381 . S
Cd276 O285 2.378 . S
O277 Cd278 2.385 . S
O277 C282 1.255 . S
Cd278 O277 2.385 . S
Cd278 O279 2.317 . S
O279 Cd278 2.317 . S
O279 C280 1.232 . S
C280 O279 1.232 . S
C280 O281 1.218 . S
O281 C280 1.218 . S
C282 O275 1.275 . S
C282 O277 1.255 . S
C283 O284 1.258 . S
C283 O285 1.256 . S
O284 Cd276 2.381 . S
O284 C283 1.258 . S
O285 Cd276 2.378 . S
O285 C283 1.256 . S
O286 Cd287 2.300 . S
O286 C293 1.275 . S
Cd287 O286 2.300 . S
Cd287 O295 2.381 . S
Cd287 O296 2.378 . S
O288 Cd289 2.385 . S
O288 C293 1.255 . S
Cd289 O288 2.385 . S
Cd289 O290 2.317 . S
O290 Cd289 2.317 . S
O290 C291 1.232 . S
C291 O290 1.232 . S
C291 O292 1.218 . S
O292 C291 1.218 . S
C293 O286 1.275 . S
C293 O288 1.255 . S
C294 O295 1.258 . S
C294 O296 1.256 . S
O295 Cd287 2.381 . S
O295 C294 1.258 . S
O296 Cd287 2.378 . S
O296 C294 1.256 . S
O297 Cd298 2.300 . S
O297 C304 1.275 . S
Cd298 O297 2.300 . S
Cd298 O306 2.381 . S
Cd298 O307 2.378 . S
O299 Cd300 2.385 . S
O299 C304 1.255 . S
Cd300 O299 2.385 . S
Cd300 O301 2.317 . S
O301 Cd300 2.317 . S
O301 C302 1.232 . S
C302 O301 1.232 . S
C302 O303 1.218 . S
O303 C302 1.218 . S
C304 O297 1.275 . S
C304 O299 1.255 . S
C305 O306 1.258 . S
C305 O307 1.256 . S
O306 Cd298 2.381 . S
O306 C305 1.258 . S
O307 Cd298 2.378 . S
O307 C305 1.256 . S
O308 Cd309 2.300 . S
O308 C315 1.275 . S
Cd309 O308 2.300 . S
Cd309 O317 2.381 . S
Cd309 O318 2.378 . S
O310 Cd311 2.385 . S
O310 C315 1.255 . S
Cd311 O310 2.385 . S
Cd311 O312 2.317 . S
O312 Cd311 2.317 . S
O312 C313 1.232 . S
C313 O312 1.232 . S
C313 O314 1.218 . S
O314 C313 1.218 . S
C315 O308 1.275 . S
C315 O310 1.255 . S
C316 O317 1.258 . S
C316 O318 1.256 . S
O317 Cd309 2.381 . S
O317 C316 1.258 . S
O318 Cd309 2.378 . S
O318 C316 1.256 . S
O319 Cd320 2.300 . S
O319 C326 1.275 . S
Cd320 O319 2.300 . S
Cd320 O328 2.381 . S
Cd320 O329 2.378 . S
O321 Cd322 2.385 . S
O321 C326 1.255 . S
Cd322 O321 2.385 . S
Cd322 O323 2.317 . S
O323 Cd322 2.317 . S
O323 C324 1.232 . S
C324 O323 1.232 . S
C324 O325 1.218 . S
O325 C324 1.218 . S
C326 O319 1.275 . S
C326 O321 1.255 . S
C327 O328 1.258 . S
C327 O329 1.256 . S
O328 Cd320 2.381 . S
O328 C327 1.258 . S
O329 Cd320 2.378 . S
O329 C327 1.256 . S
O330 Cd331 2.300 . S
O330 C337 1.275 . S
Cd331 O330 2.300 . S
Cd331 O339 2.381 . S
Cd331 O340 2.378 . S
O332 Cd333 2.385 . S
O332 C337 1.255 . S
Cd333 O332 2.385 . S
Cd333 O334 2.317 . S
O334 Cd333 2.317 . S
O334 C335 1.232 . S
C335 O334 1.232 . S
C335 O336 1.218 . S
O336 C335 1.218 . S
C337 O330 1.275 . S
C337 O332 1.255 . S
C338 O339 1.258 . S
C338 O340 1.256 . S
O339 Cd331 2.381 . S
O339 C338 1.258 . S
O340 Cd331 2.378 . S
O340 C338 1.256 . S
O341 Cd342 2.300 . S
O341 C348 1.275 . S
Cd342 O341 2.300 . S
Cd342 O350 2.381 . S
Cd342 O351 2.378 . S
O343 Cd344 2.385 . S
O343 C348 1.255 . S
Cd344 O343 2.385 . S
Cd344 O345 2.317 . S
O345 Cd344 2.317 . S
O345 C346 1.232 . S
C346 O345 1.232 . S
C346 O347 1.218 . S
O347 C346 1.218 . S
C348 O341 1.275 . S
C348 O343 1.255 . S
C349 O350 1.258 . S
C349 O351 1.256 . S
O350 Cd342 2.381 . S
O350 C349 1.258 . S
O351 Cd342 2.378 . S
O351 C349 1.256 . S
C352 C353 1.391 . S
C352 C354 1.394 1_556 S
C352 H368 0.924 1_556 S
C353 C352 1.391 . S
C353 C357 1.376 . S
C354 C352 1.394 1_554 S
C354 C355 1.363 1_554 S
C354 C358 1.531 . S
C355 C354 1.363 1_556 S
C355 C356 1.424 . S
C355 C363 1.497 1_556 S
C356 C355 1.424 . S
C356 C357 1.392 . S
C356 C359 1.511 . S
C357 C353 1.376 . S
C357 C356 1.392 . S
C357 H369 0.929 . S
C358 C354 1.531 . S
C358 H370 0.960 . S
C358 H371 0.962 . S
C358 H372 0.960 . S
C359 C356 1.511 . S
C359 H373 0.961 . S
C359 H374 0.961 . S
C359 H375 0.961 . S
C360 C361 1.370 . S
C360 C362 1.363 1_554 S
C360 H376 0.931 1_554 S
C361 C360 1.370 . S
C361 C365 1.408 . S
C362 C360 1.363 1_556 S
C362 C363 1.370 1_556 S
C362 C366 1.524 . S
C363 C355 1.497 1_554 S
C363 C362 1.370 1_554 S
C363 C364 1.403 . S
C364 C363 1.403 . S
C364 C365 1.404 . S
C364 C367 1.539 . S
C365 C361 1.408 . S
C365 C364 1.404 . S
C365 H377 0.930 . S
C366 C362 1.524 . S
C366 H378 0.956 . S
C366 H379 0.961 . S
C366 H380 0.961 . S
C367 C364 1.539 . S
C367 H381 0.958 . S
C367 H382 0.961 . S
C367 H383 0.960 . S
H368 C352 0.924 1_554 S
H369 C357 0.929 . S
H370 C358 0.960 . S
H371 C358 0.962 . S
H372 C358 0.960 . S
H373 C359 0.961 . S
H374 C359 0.961 . S
H375 C359 0.961 . S
H376 C360 0.931 1_556 S
H377 C365 0.930 . S
H378 C366 0.956 . S
H379 C366 0.961 . S
H380 C366 0.961 . S
H381 C367 0.958 . S
H382 C367 0.961 . S
H383 C367 0.960 . S
C384 C385 1.391 . S
C384 C386 1.394 . S
C384 H400 0.931 . S
C385 C384 1.391 . S
C385 C389 1.376 . S
C386 C384 1.394 . S
C386 C387 1.369 . S
C386 C390 1.531 . S
C387 C386 1.369 . S
C387 C388 1.410 . S
C387 C395 1.503 . S
C388 C387 1.410 . S
C388 C389 1.392 . S
C388 C391 1.511 . S
C389 C385 1.376 . S
C389 C388 1.392 . S
C389 H401 0.929 . S
C390 C386 1.531 . S
C390 H402 0.960 . S
C390 H403 0.962 . S
C390 H404 0.960 . S
C391 C388 1.511 . S
C391 H405 0.961 . S
C391 H406 0.961 . S
C391 H407 0.961 . S
C392 C393 1.370 . S
C392 C394 1.363 . S
C392 H408 0.931 . S
C393 C392 1.370 . S
C393 C397 1.408 . S
C394 C392 1.363 . S
C394 C395 1.370 . S
C394 C398 1.524 . S
C395 C387 1.503 . S
C395 C394 1.370 . S
C395 C396 1.403 . S
C396 C395 1.403 . S
C396 C397 1.404 . S
C396 C399 1.539 . S
C397 C393 1.408 . S
C397 C396 1.404 . S
C397 H409 0.930 . S
C398 C394 1.524 . S
C398 H410 0.956 . S
C398 H411 0.961 . S
C398 H412 0.961 . S
C399 C396 1.539 . S
C399 H413 0.958 . S
C399 H414 0.961 . S
C399 H415 0.960 . S
H400 C384 0.931 . S
H401 C389 0.929 . S
H402 C390 0.960 . S
H403 C390 0.962 . S
H404 C390 0.960 . S
H405 C391 0.961 . S
H406 C391 0.961 . S
H407 C391 0.961 . S
H408 C392 0.931 . S
H409 C397 0.930 . S
H410 C398 0.956 . S
H411 C398 0.961 . S
H412 C398 0.961 . S
H413 C399 0.958 . S
H414 C399 0.961 . S
H415 C399 0.960 . S
C416 C417 1.391 . S
C416 C418 1.394 . S
C416 H432 0.931 . S
C417 C416 1.391 . S
C417 C421 1.376 . S
C418 C416 1.394 . S
C418 C419 1.369 . S
C418 C422 1.531 . S
C419 C418 1.369 . S
C419 C420 1.410 . S
C419 C427 1.503 . S
C420 C419 1.410 . S
C420 C421 1.392 . S
C420 C423 1.511 . S
C421 C417 1.376 . S
C421 C420 1.392 . S
C421 H433 0.929 . S
C422 C418 1.531 . S
C422 H434 0.960 . S
C422 H435 0.962 . S
C422 H436 0.960 . S
C423 C420 1.511 . S
C423 H437 0.961 . S
C423 H438 0.961 . S
C423 H439 0.961 . S
C424 C425 1.370 . S
C424 C426 1.363 . S
C424 H440 0.931 . S
C425 C424 1.370 . S
C425 C429 1.408 . S
C426 C424 1.363 . S
C426 C427 1.370 . S
C426 C430 1.524 . S
C427 C419 1.503 . S
C427 C426 1.370 . S
C427 C428 1.403 . S
C428 C427 1.403 . S
C428 C429 1.404 . S
C428 C431 1.539 . S
C429 C425 1.408 . S
C429 C428 1.404 . S
C429 H441 0.930 . S
C430 C426 1.524 . S
C430 H442 0.956 . S
C430 H443 0.961 . S
C430 H444 0.961 . S
C431 C428 1.539 . S
C431 H445 0.958 . S
C431 H446 0.961 . S
C431 H447 0.960 . S
H432 C416 0.931 . S
H433 C421 0.929 . S
H434 C422 0.960 . S
H435 C422 0.962 . S
H436 C422 0.960 . S
H437 C423 0.961 . S
H438 C423 0.961 . S
H439 C423 0.961 . S
H440 C424 0.931 . S
H441 C429 0.930 . S
H442 C430 0.956 . S
H443 C430 0.961 . S
H444 C430 0.961 . S
H445 C431 0.958 . S
H446 C431 0.961 . S
H447 C431 0.960 . S
C448 C449 1.391 . S
C448 C450 1.394 . S
C448 H464 0.931 . S
C449 C448 1.391 . S
C449 C453 1.376 . S
C450 C448 1.394 . S
C450 C451 1.369 . S
C450 C454 1.531 . S
C451 C450 1.369 . S
C451 C452 1.410 . S
C451 C459 1.503 . S
C452 C451 1.410 . S
C452 C453 1.392 . S
C452 C455 1.511 . S
C453 C449 1.376 . S
C453 C452 1.392 . S
C453 H465 0.929 . S
C454 C450 1.531 . S
C454 H466 0.960 . S
C454 H467 0.962 . S
C454 H468 0.960 . S
C455 C452 1.511 . S
C455 H469 0.961 . S
C455 H470 0.961 . S
C455 H471 0.961 . S
C456 C457 1.370 . S
C456 C458 1.363 . S
C456 H472 0.931 . S
C457 C456 1.370 . S
C457 C461 1.408 . S
C458 C456 1.363 . S
C458 C459 1.370 . S
C458 C462 1.524 . S
C459 C451 1.503 . S
C459 C458 1.370 . S
C459 C460 1.403 . S
C460 C459 1.403 . S
C460 C461 1.404 . S
C460 C463 1.539 . S
C461 C457 1.408 . S
C461 C460 1.404 . S
C461 H473 0.930 . S
C462 C458 1.524 . S
C462 H474 0.956 . S
C462 H475 0.961 . S
C462 H476 0.961 . S
C463 C460 1.539 . S
C463 H477 0.958 . S
C463 H478 0.961 . S
C463 H479 0.960 . S
H464 C448 0.931 . S
H465 C453 0.929 . S
H466 C454 0.960 . S
H467 C454 0.962 . S
H468 C454 0.960 . S
H469 C455 0.961 . S
H470 C455 0.961 . S
H471 C455 0.961 . S
H472 C456 0.931 . S
H473 C461 0.930 . S
H474 C462 0.956 . S
H475 C462 0.961 . S
H476 C462 0.961 . S
H477 C463 0.958 . S
H478 C463 0.961 . S
H479 C463 0.960 . S
C480 C481 1.391 . S
C480 C482 1.394 . S
C480 H496 0.931 . S
C481 C480 1.391 . S
C481 C485 1.376 . S
C482 C480 1.394 . S
C482 C483 1.367 1_554 S
C482 C486 1.531 1_554 S
C483 C482 1.367 1_556 S
C483 C484 1.407 1_556 S
C483 C491 1.506 . S
C484 C483 1.407 1_554 S
C484 C485 1.392 . S
C484 C487 1.523 . S
C485 C481 1.376 . S
C485 C484 1.392 . S
C485 H497 0.929 . S
C486 C482 1.531 1_556 S
C486 H498 0.960 . S
C486 H499 0.962 1_556 S
C486 H500 0.960 . S
C487 C484 1.523 . S
C487 H501 1.005 . S
C487 H502 0.969 . S
C487 H503 0.902 1_554 S
C488 C489 1.369 . S
C488 C490 1.363 1_556 S
C488 H504 0.931 1_556 S
C489 C488 1.369 . S
C489 C493 1.408 . S
C490 C488 1.363 1_554 S
C490 C491 1.370 1_554 S
C490 C494 1.524 . S
C491 C483 1.506 . S
C491 C490 1.370 1_556 S
C491 C492 1.403 . S
C492 C491 1.403 . S
C492 C493 1.404 . S
C492 C495 1.539 . S
C493 C489 1.408 . S
C493 C492 1.404 . S
C493 H505 0.930 . S
C494 C490 1.524 . S
C494 H506 0.956 . S
C494 H507 0.961 . S
C494 H508 0.961 . S
C495 C492 1.539 . S
C495 H509 0.958 . S
C495 H510 0.961 . S
C495 H511 0.960 . S
H496 C480 0.931 . S
H497 C485 0.929 . S
H498 C486 0.960 . S
H499 C486 0.962 1_554 S
H500 C486 0.960 . S
H501 C487 1.005 . S
H502 C487 0.969 . S
H503 C487 0.902 1_556 S
H504 C488 0.931 1_554 S
H505 C493 0.930 . S
H506 C494 0.956 . S
H507 C494 0.961 . S
H508 C494 0.961 . S
H509 C495 0.958 . S
H510 C495 0.961 . S
H511 C495 0.960 . S
C512 C513 1.391 . S
C512 C514 1.394 . S
C512 H528 0.931 . S
C513 C512 1.391 . S
C513 C517 1.376 . S
C514 C512 1.394 . S
C514 C515 1.369 . S
C514 C518 1.531 . S
C515 C514 1.369 . S
C515 C516 1.410 . S
C515 C523 1.503 . S
C516 C515 1.410 . S
C516 C517 1.392 . S
C516 C519 1.511 . S
C517 C513 1.376 . S
C517 C516 1.392 . S
C517 H529 0.929 . S
C518 C514 1.531 . S
C518 H530 0.960 . S
C518 H531 0.962 . S
C518 H532 0.960 . S
C519 C516 1.511 . S
C519 H533 0.961 . S
C519 H534 0.961 . S
C519 H535 0.961 . S
C520 C521 1.370 . S
C520 C522 1.363 . S
C520 H536 0.931 . S
C521 C520 1.370 . S
C521 C525 1.408 . S
C522 C520 1.363 . S
C522 C523 1.370 . S
C522 C526 1.524 . S
C523 C515 1.503 . S
C523 C522 1.370 . S
C523 C524 1.403 . S
C524 C523 1.403 . S
C524 C525 1.404 . S
C524 C527 1.539 . S
C525 C521 1.408 . S
C525 C524 1.404 . S
C525 H537 0.930 . S
C526 C522 1.524 . S
C526 H538 0.956 . S
C526 H539 0.961 . S
C526 H540 0.961 . S
C527 C524 1.539 . S
C527 H541 0.958 . S
C527 H542 0.961 . S
C527 H543 0.960 . S
H528 C512 0.931 . S
H529 C517 0.929 . S
H530 C518 0.960 . S
H531 C518 0.962 . S
H532 C518 0.960 . S
H533 C519 0.961 . S
H534 C519 0.961 . S
H535 C519 0.961 . S
H536 C520 0.931 . S
H537 C525 0.930 . S
H538 C526 0.956 . S
H539 C526 0.961 . S
H540 C526 0.961 . S
H541 C527 0.958 . S
H542 C527 0.961 . S
H543 C527 0.960 . S
C544 C545 1.391 . S
C544 C546 1.394 . S
C544 H560 0.931 . S
C545 C544 1.391 . S
C545 C549 1.376 . S
C546 C544 1.394 . S
C546 C547 1.369 . S
C546 C550 1.531 . S
C547 C546 1.369 . S
C547 C548 1.410 . S
C547 C555 1.503 . S
C548 C547 1.410 . S
C548 C549 1.392 . S
C548 C551 1.511 . S
C549 C545 1.376 . S
C549 C548 1.392 . S
C549 H561 0.929 . S
C550 C546 1.531 . S
C550 H562 0.960 . S
C550 H563 0.962 . S
C550 H564 0.960 . S
C551 C548 1.511 . S
C551 H565 0.961 . S
C551 H566 0.961 . S
C551 H567 0.961 . S
C552 C553 1.370 . S
C552 C554 1.363 . S
C552 H568 0.931 . S
C553 C552 1.370 . S
C553 C557 1.408 . S
C554 C552 1.363 . S
C554 C555 1.370 . S
C554 C558 1.524 . S
C555 C547 1.503 . S
C555 C554 1.370 . S
C555 C556 1.403 . S
C556 C555 1.403 . S
C556 C557 1.404 . S
C556 C559 1.539 . S
C557 C553 1.408 . S
C557 C556 1.404 . S
C557 H569 0.930 . S
C558 C554 1.524 . S
C558 H570 0.956 . S
C558 H571 0.961 . S
C558 H572 0.961 . S
C559 C556 1.539 . S
C559 H573 0.958 . S
C559 H574 0.961 . S
C559 H575 0.960 . S
H560 C544 0.931 . S
H561 C549 0.929 . S
H562 C550 0.960 . S
H563 C550 0.962 . S
H564 C550 0.960 . S
H565 C551 0.961 . S
H566 C551 0.961 . S
H567 C551 0.961 . S
H568 C552 0.931 . S
H569 C557 0.930 . S
H570 C558 0.956 . S
H571 C558 0.961 . S
H572 C558 0.961 . S
H573 C559 0.958 . S
H574 C559 0.961 . S
H575 C559 0.960 . S
C576 C577 1.391 . S
C576 C578 1.394 . S
C576 H592 0.931 . S
C577 C576 1.391 . S
C577 C581 1.376 . S
C578 C576 1.394 . S
C578 C579 1.369 . S
C578 C582 1.531 . S
C579 C578 1.369 . S
C579 C580 1.410 . S
C579 C587 1.503 . S
C580 C579 1.410 . S
C580 C581 1.392 . S
C580 C583 1.511 . S
C581 C577 1.376 . S
C581 C580 1.392 . S
C581 H593 0.929 . S
C582 C578 1.531 . S
C582 H594 0.960 . S
C582 H595 0.962 . S
C582 H596 0.960 . S
C583 C580 1.511 . S
C583 H597 0.961 . S
C583 H598 0.961 . S
C583 H599 0.961 . S
C584 C585 1.370 . S
C584 C586 1.363 . S
C584 H600 0.931 . S
C585 C584 1.370 . S
C585 C589 1.408 . S
C586 C584 1.363 . S
C586 C587 1.370 . S
C586 C590 1.524 . S
C587 C579 1.503 . S
C587 C586 1.370 . S
C587 C588 1.403 . S
C588 C587 1.403 . S
C588 C589 1.404 . S
C588 C591 1.539 . S
C589 C585 1.408 . S
C589 C588 1.404 . S
C589 H601 0.930 . S
C590 C586 1.524 . S
C590 H602 0.956 . S
C590 H603 0.961 . S
C590 H604 0.961 . S
C591 C588 1.539 . S
C591 H605 0.958 . S
C591 H606 0.961 . S
C591 H607 0.960 . S
H592 C576 0.931 . S
H593 C581 0.929 . S
H594 C582 0.960 . S
H595 C582 0.962 . S
H596 C582 0.960 . S
H597 C583 0.961 . S
H598 C583 0.961 . S
H599 C583 0.961 . S
H600 C584 0.931 . S
H601 C589 0.930 . S
H602 C590 0.956 . S
H603 C590 0.961 . S
H604 C590 0.961 . S
H605 C591 0.958 . S
H606 C591 0.961 . S
H607 C591 0.960 . S
C608 C609 1.391 . S
C608 C610 1.394 . S
C608 H624 0.931 . S
C609 C608 1.391 . S
C609 C613 1.376 . S
C610 C608 1.394 . S
C610 C611 1.369 . S
C610 C614 1.526 1_545 S
C611 C610 1.369 . S
C611 C612 1.410 . S
C611 C619 1.503 1_545 S
C612 C611 1.410 . S
C612 C613 1.392 . S
C612 C615 1.511 . S
C613 C609 1.376 . S
C613 C612 1.392 . S
C613 H625 0.929 . S
C614 C610 1.526 1_565 S
C614 H626 0.967 . S
C614 H627 0.962 . S
C614 H628 0.959 1_565 S
C615 C612 1.511 . S
C615 H629 0.961 . S
C615 H630 0.961 . S
C615 H631 0.961 . S
C616 C617 1.370 . S
C616 C618 1.363 . S
C616 H632 0.931 . S
C617 C616 1.370 . S
C617 C621 1.408 . S
C618 C616 1.363 . S
C618 C619 1.370 . S
C618 C622 1.524 1_565 S
C619 C611 1.503 1_565 S
C619 C618 1.370 . S
C619 C620 1.403 . S
C620 C619 1.403 . S
C620 C621 1.404 . S
C620 C623 1.539 . S
C621 C617 1.408 . S
C621 C620 1.404 . S
C621 H633 0.930 . S
C622 C618 1.524 1_545 S
C622 H634 0.956 . S
C622 H635 0.961 . S
C622 H636 0.961 1_545 S
C623 C620 1.539 . S
C623 H637 0.958 . S
C623 H638 0.961 . S
C623 H639 0.960 . S
H624 C608 0.931 . S
H625 C613 0.929 . S
H626 C614 0.967 . S
H627 C614 0.962 . S
H628 C614 0.959 1_545 S
H629 C615 0.961 . S
H630 C615 0.961 . S
H631 C615 0.961 . S
H632 C616 0.931 . S
H633 C621 0.930 . S
H634 C622 0.956 . S
H635 C622 0.961 . S
H636 C622 0.961 1_565 S
H637 C623 0.958 . S
H638 C623 0.961 . S
H639 C623 0.960 . S
C640 C641 1.391 . S
C640 C642 1.394 . S
C640 H656 0.931 . S
C641 C640 1.391 . S
C641 C645 1.376 . S
C642 C640 1.394 . S
C642 C643 1.369 . S
C642 C646 1.531 . S
C643 C642 1.369 . S
C643 C644 1.410 . S
C643 C651 1.503 . S
C644 C643 1.410 . S
C644 C645 1.392 . S
C644 C647 1.511 . S
C645 C641 1.376 . S
C645 C644 1.392 . S
C645 H657 0.929 . S
C646 C642 1.531 . S
C646 H658 0.960 . S
C646 H659 0.962 . S
C646 H660 0.960 . S
C647 C644 1.511 . S
C647 H661 0.961 . S
C647 H662 0.961 . S
C647 H663 0.961 . S
C648 C649 1.370 . S
C648 C650 1.363 . S
C648 H664 0.931 . S
C649 C648 1.370 . S
C649 C653 1.408 . S
C650 C648 1.363 . S
C650 C651 1.370 . S
C650 C654 1.524 . S
C651 C643 1.503 . S
C651 C650 1.370 . S
C651 C652 1.403 . S
C652 C651 1.403 . S
C652 C653 1.404 . S
C652 C655 1.539 . S
C653 C649 1.408 . S
C653 C652 1.404 . S
C653 H665 0.930 . S
C654 C650 1.524 . S
C654 H666 0.956 . S
C654 H667 0.961 . S
C654 H668 0.961 . S
C655 C652 1.539 . S
C655 H669 0.958 . S
C655 H670 0.961 . S
C655 H671 0.960 . S
H656 C640 0.931 . S
H657 C645 0.929 . S
H658 C646 0.960 . S
H659 C646 0.962 . S
H660 C646 0.960 . S
H661 C647 0.961 . S
H662 C647 0.961 . S
H663 C647 0.961 . S
H664 C648 0.931 . S
H665 C653 0.930 . S
H666 C654 0.956 . S
H667 C654 0.961 . S
H668 C654 0.961 . S
H669 C655 0.958 . S
H670 C655 0.961 . S
H671 C655 0.960 . S
C672 C673 1.391 . S
C672 C674 1.394 . S
C672 H688 0.931 . S
C673 C672 1.391 . S
C673 C677 1.376 . S
C674 C672 1.394 . S
C674 C675 1.368 1_554 S
C674 C678 1.531 . S
C675 C674 1.368 1_556 S
C675 C676 1.409 1_556 S
C675 C683 1.504 1_565 S
C676 C675 1.409 1_554 S
C676 C677 1.392 . S
C676 C679 1.511 1_554 S
C677 C673 1.376 . S
C677 C676 1.392 . S
C677 H689 0.929 . S
C678 C674 1.531 . S
C678 H690 0.998 1_554 S
C678 H691 0.962 . S
C678 H692 0.960 . S
C679 C676 1.511 1_556 S
C679 H693 0.961 1_556 S
C679 H694 0.946 1_565 S
C679 H695 0.961 . S
C680 C681 1.373 . S
C680 C682 1.362 1_556 S
C680 H696 0.929 1_556 S
C681 C680 1.373 . S
C681 C685 1.408 . S
C682 C680 1.362 1_554 S
C682 C683 1.370 1_554 S
C682 C686 1.524 . S
C683 C675 1.504 1_545 S
C683 C682 1.370 1_556 S
C683 C684 1.403 . S
C684 C683 1.403 . S
C684 C685 1.404 . S
C684 C687 1.539 1_545 S
C685 C681 1.408 . S
C685 C684 1.404 . S
C685 H697 0.930 . S
C686 C682 1.524 . S
C686 H698 0.956 . S
C686 H699 0.961 . S
C686 H700 0.961 . S
C687 C684 1.539 1_565 S
C687 H701 0.958 . S
C687 H702 0.944 1_565 S
C687 H703 0.960 . S
H688 C672 0.931 . S
H689 C677 0.929 . S
H690 C678 0.998 1_556 S
H691 C678 0.962 . S
H692 C678 0.960 . S
H693 C679 0.961 1_554 S
H694 C679 0.946 1_545 S
H695 C679 0.961 . S
H696 C680 0.929 1_554 S
H697 C685 0.930 . S
H698 C686 0.956 . S
H699 C686 0.961 . S
H700 C686 0.961 . S
H701 C687 0.958 . S
H702 C687 0.944 1_545 S
H703 C687 0.960 . S
C704 C705 1.391 . S
C704 C706 1.394 . S
C704 H720 0.931 . S
C705 C704 1.391 . S
C705 C709 1.376 . S
C706 C704 1.394 . S
C706 C707 1.369 . S
C706 C710 1.531 . S
C707 C706 1.369 . S
C707 C708 1.410 . S
C707 C715 1.503 . S
C708 C707 1.410 . S
C708 C709 1.392 . S
C708 C711 1.511 . S
C709 C705 1.376 . S
C709 C708 1.392 . S
C709 H721 0.929 . S
C710 C706 1.531 . S
C710 H722 0.960 . S
C710 H723 0.962 . S
C710 H724 0.960 . S
C711 C708 1.511 . S
C711 H725 0.961 . S
C711 H726 0.961 . S
C711 H727 0.961 . S
C712 C713 1.370 . S
C712 C714 1.363 . S
C712 H728 0.931 . S
C713 C712 1.370 . S
C713 C717 1.408 . S
C714 C712 1.363 . S
C714 C715 1.370 . S
C714 C718 1.524 . S
C715 C707 1.503 . S
C715 C714 1.370 . S
C715 C716 1.403 . S
C716 C715 1.403 . S
C716 C717 1.404 . S
C716 C719 1.539 . S
C717 C713 1.408 . S
C717 C716 1.404 . S
C717 H729 0.930 . S
C718 C714 1.524 . S
C718 H730 0.956 . S
C718 H731 0.961 . S
C718 H732 0.961 . S
C719 C716 1.539 . S
C719 H733 0.958 . S
C719 H734 0.961 . S
C719 H735 0.960 . S
H720 C704 0.931 . S
H721 C709 0.929 . S
H722 C710 0.960 . S
H723 C710 0.962 . S
H724 C710 0.960 . S
H725 C711 0.961 . S
H726 C711 0.961 . S
H727 C711 0.961 . S
H728 C712 0.931 . S
H729 C717 0.930 . S
H730 C718 0.956 . S
H731 C718 0.961 . S
H732 C718 0.961 . S
H733 C719 0.958 . S
H734 C719 0.961 . S
H735 C719 0.960 . S
C736 C737 1.391 . S
C736 C738 1.394 . S
C736 H752 0.931 . S
C737 C736 1.391 . S
C737 C741 1.376 . S
C738 C736 1.394 . S
C738 C739 1.369 . S
C738 C742 1.531 1_565 S
C739 C738 1.369 . S
C739 C740 1.410 . S
C739 C747 1.503 1_565 S
C740 C739 1.410 . S
C740 C741 1.392 . S
C740 C743 1.511 . S
C741 C737 1.376 . S
C741 C740 1.392 . S
C741 H753 0.929 . S
C742 C738 1.531 1_545 S
C742 H754 0.960 . S
C742 H755 0.962 . S
C742 H756 0.959 1_545 S
C743 C740 1.511 . S
C743 H757 0.961 . S
C743 H758 0.961 . S
C743 H759 0.961 . S
C744 C745 1.370 . S
C744 C746 1.363 . S
C744 H760 0.931 . S
C745 C744 1.370 . S
C745 C749 1.408 . S
C746 C744 1.363 . S
C746 C747 1.370 . S
C746 C750 1.524 . S
C747 C739 1.503 1_545 S
C747 C746 1.370 . S
C747 C748 1.403 . S
C748 C747 1.403 . S
C748 C749 1.404 . S
C748 C751 1.539 . S
C749 C745 1.408 . S
C749 C748 1.404 . S
C749 H761 0.930 . S
C750 C746 1.524 . S
C750 H762 0.956 . S
C750 H763 0.961 1_545 S
C750 H764 0.961 . S
C751 C748 1.539 . S
C751 H765 0.958 . S
C751 H766 0.961 . S
C751 H767 0.960 1_545 S
H752 C736 0.931 . S
H753 C741 0.929 . S
H754 C742 0.960 . S
H755 C742 0.962 . S
H756 C742 0.959 1_565 S
H757 C743 0.961 . S
H758 C743 0.961 . S
H759 C743 0.961 . S
H760 C744 0.931 . S
H761 C749 0.930 . S
H762 C750 0.956 . S
H763 C750 0.961 1_565 S
H764 C750 0.961 . S
H765 C751 0.958 . S
H766 C751 0.961 . S
H767 C751 0.960 1_565 S
C768 C769 1.391 . S
C768 C770 1.394 . S
C768 H784 0.931 . S
C769 C768 1.391 . S
C769 C773 1.376 . S
C770 C768 1.394 . S
C770 C771 1.369 . S
C770 C774 1.531 . S
C771 C770 1.369 . S
C771 C772 1.410 . S
C771 C779 1.503 . S
C772 C771 1.410 . S
C772 C773 1.392 . S
C772 C775 1.511 . S
C773 C769 1.376 . S
C773 C772 1.392 . S
C773 H785 0.929 . S
C774 C770 1.531 . S
C774 H786 0.960 . S
C774 H787 0.962 . S
C774 H788 0.960 . S
C775 C772 1.511 . S
C775 H789 0.961 . S
C775 H790 0.961 . S
C775 H791 0.961 . S
C776 C777 1.370 . S
C776 C778 1.363 . S
C776 H792 0.931 . S
C777 C776 1.370 . S
C777 C781 1.408 . S
C778 C776 1.363 . S
C778 C779 1.370 . S
C778 C782 1.524 . S
C779 C771 1.503 . S
C779 C778 1.370 . S
C779 C780 1.403 . S
C780 C779 1.403 . S
C780 C781 1.404 . S
C780 C783 1.539 . S
C781 C777 1.408 . S
C781 C780 1.404 . S
C781 H793 0.930 . S
C782 C778 1.524 . S
C782 H794 0.956 . S
C782 H795 0.961 . S
C782 H796 0.961 . S
C783 C780 1.539 . S
C783 H797 0.958 . S
C783 H798 0.961 . S
C783 H799 0.960 . S
H784 C768 0.931 . S
H785 C773 0.929 . S
H786 C774 0.960 . S
H787 C774 0.962 . S
H788 C774 0.960 . S
H789 C775 0.961 . S
H790 C775 0.961 . S
H791 C775 0.961 . S
H792 C776 0.931 . S
H793 C781 0.930 . S
H794 C782 0.956 . S
H795 C782 0.961 . S
H796 C782 0.961 . S
H797 C783 0.958 . S
H798 C783 0.961 . S
H799 C783 0.960 . S
C800 C801 1.391 . S
C800 C802 1.394 1_556 S
C800 H816 0.931 . S
C801 C800 1.391 . S
C801 C805 1.376 . S
C802 C800 1.394 1_554 S
C802 C803 1.369 1_554 S
C802 C806 1.531 . S
C803 C802 1.369 1_556 S
C803 C804 1.407 . S
C803 C811 1.505 1_546 S
C804 C803 1.407 . S
C804 C805 1.392 . S
C804 C807 1.511 . S
C805 C801 1.376 . S
C805 C804 1.392 . S
C805 H817 0.929 . S
C806 C802 1.531 . S
C806 H818 0.960 . S
C806 H819 0.962 . S
C806 H820 0.960 . S
C807 C804 1.511 . S
C807 H821 0.961 . S
C807 H822 0.961 1_545 S
C807 H823 0.961 . S
C808 C809 1.370 . S
C808 C810 1.363 1_554 S
C808 H824 0.931 1_554 S
C809 C808 1.370 . S
C809 C813 1.408 . S
C810 C808 1.363 1_556 S
C810 C811 1.370 1_556 S
C810 C814 1.524 . S
C811 C803 1.505 1_564 S
C811 C810 1.370 1_554 S
C811 C812 1.403 . S
C812 C811 1.403 . S
C812 C813 1.404 . S
C812 C815 1.539 1_565 S
C813 C809 1.408 . S
C813 C812 1.404 . S
C813 H825 0.930 . S
C814 C810 1.524 . S
C814 H826 0.956 . S
C814 H827 0.961 . S
C814 H828 0.961 . S
C815 C812 1.539 1_545 S
C815 H829 0.958 . S
C815 H830 0.961 1_545 S
C815 H831 0.960 . S
H816 C800 0.931 . S
H817 C805 0.929 . S
H818 C806 0.960 . S
H819 C806 0.962 . S
H820 C806 0.960 . S
H821 C807 0.961 . S
H822 C807 0.961 1_565 S
H823 C807 0.961 . S
H824 C808 0.931 1_556 S
H825 C813 0.930 . S
H826 C814 0.956 . S
H827 C814 0.961 . S
H828 C814 0.961 . S
H829 C815 0.958 . S
H830 C815 0.961 1_565 S
H831 C815 0.960 . S
C832 C833 1.391 . S
C832 C834 1.394 . S
C832 H848 0.931 . S
C833 C832 1.391 . S
C833 C837 1.376 . S
C834 C832 1.394 . S
C834 C835 1.369 . S
C834 C838 1.531 . S
C835 C834 1.369 . S
C835 C836 1.410 . S
C835 C843 1.503 . S
C836 C835 1.410 . S
C836 C837 1.392 . S
C836 C839 1.511 . S
C837 C833 1.376 . S
C837 C836 1.392 . S
C837 H849 0.929 . S
C838 C834 1.531 . S
C838 H850 0.960 . S
C838 H851 0.962 . S
C838 H852 0.960 . S
C839 C836 1.511 . S
C839 H853 0.961 . S
C839 H854 0.961 . S
C839 H855 0.961 . S
C840 C841 1.370 . S
C840 C842 1.363 . S
C840 H856 0.931 . S
C841 C840 1.370 . S
C841 C845 1.408 . S
C842 C840 1.363 . S
C842 C843 1.370 . S
C842 C846 1.524 . S
C843 C835 1.503 . S
C843 C842 1.370 . S
C843 C844 1.403 . S
C844 C843 1.403 . S
C844 C845 1.404 . S
C844 C847 1.539 . S
C845 C841 1.408 . S
C845 C844 1.404 . S
C845 H857 0.930 . S
C846 C842 1.524 . S
C846 H858 0.956 . S
C846 H859 0.961 . S
C846 H860 0.961 . S
C847 C844 1.539 . S
C847 H861 0.958 . S
C847 H862 0.961 . S
C847 H863 0.960 . S
H848 C832 0.931 . S
H849 C837 0.929 . S
H850 C838 0.960 . S
H851 C838 0.962 . S
H852 C838 0.960 . S
H853 C839 0.961 . S
H854 C839 0.961 . S
H855 C839 0.961 . S
H856 C840 0.931 . S
H857 C845 0.930 . S
H858 C846 0.956 . S
H859 C846 0.961 . S
H860 C846 0.961 . S
H861 C847 0.958 . S
H862 C847 0.961 . S
H863 C847 0.960 . S
C864 C865 1.391 . S
C864 C866 1.394 . S
C864 H880 0.931 . S
C865 C864 1.391 . S
C865 C869 1.376 . S
C866 C864 1.394 . S
C866 C867 1.369 . S
C866 C870 1.531 . S
C867 C866 1.369 . S
C867 C868 1.410 . S
C867 C875 1.503 1_655 S
C868 C867 1.410 . S
C868 C869 1.392 . S
C868 C871 1.511 . S
C869 C865 1.376 . S
C869 C868 1.392 . S
C869 H881 0.929 . S
C870 C866 1.531 . S
C870 H882 0.960 1_655 S
C870 H883 0.962 . S
C870 H884 0.960 . S
C871 C868 1.511 . S
C871 H885 0.961 . S
C871 H886 0.961 1_655 S
C871 H887 0.961 . S
C872 C873 1.370 . S
C872 C874 1.363 . S
C872 H888 0.931 . S
C873 C872 1.370 . S
C873 C877 1.408 . S
C874 C872 1.363 . S
C874 C875 1.370 . S
C874 C878 1.524 . S
C875 C867 1.503 1_455 S
C875 C874 1.370 . S
C875 C876 1.403 . S
C876 C875 1.403 . S
C876 C877 1.404 . S
C876 C879 1.539 . S
C877 C873 1.408 . S
C877 C876 1.404 . S
C877 H889 0.930 . S
C878 C874 1.524 . S
C878 H890 0.982 . S
C878 H891 0.919 1_455 S
C878 H892 0.961 . S
C879 C876 1.539 . S
C879 H893 0.958 . S
C879 H894 0.961 . S
C879 H895 0.967 . S
H880 C864 0.931 . S
H881 C869 0.929 . S
H882 C870 0.960 1_455 S
H883 C870 0.962 . S
H884 C870 0.960 . S
H885 C871 0.961 . S
H886 C871 0.961 1_455 S
H887 C871 0.961 . S
H888 C872 0.931 . S
H889 C877 0.930 . S
H890 C878 0.982 . S
H891 C878 0.919 1_655 S
H892 C878 0.961 . S
H893 C879 0.958 . S
H894 C879 0.961 . S
H895 C879 0.967 . S
C896 C897 1.391 . S
C896 C898 1.394 . S
C896 H912 0.931 . S
C897 C896 1.391 . S
C897 C901 1.376 . S
C898 C896 1.394 . S
C898 C899 1.369 . S
C898 C902 1.531 . S
C899 C898 1.369 . S
C899 C900 1.410 . S
C899 C907 1.503 . S
C900 C899 1.410 . S
C900 C901 1.392 . S
C900 C903 1.511 . S
C901 C897 1.376 . S
C901 C900 1.392 . S
C901 H913 0.929 . S
C902 C898 1.531 . S
C902 H914 0.960 . S
C902 H915 0.962 . S
C902 H916 0.960 . S
C903 C900 1.511 . S
C903 H917 0.961 . S
C903 H918 0.961 . S
C903 H919 0.961 . S
C904 C905 1.370 . S
C904 C906 1.363 . S
C904 H920 0.931 . S
C905 C904 1.370 . S
C905 C909 1.408 . S
C906 C904 1.363 . S
C906 C907 1.370 . S
C906 C910 1.524 . S
C907 C899 1.503 . S
C907 C906 1.370 . S
C907 C908 1.403 . S
C908 C907 1.403 . S
C908 C909 1.404 . S
C908 C911 1.539 . S
C909 C905 1.408 . S
C909 C908 1.404 . S
C909 H921 0.930 . S
C910 C906 1.524 . S
C910 H922 0.956 . S
C910 H923 0.961 . S
C910 H924 0.961 . S
C911 C908 1.539 . S
C911 H925 0.958 . S
C911 H926 0.961 . S
C911 H927 0.960 . S
H912 C896 0.931 . S
H913 C901 0.929 . S
H914 C902 0.960 . S
H915 C902 0.962 . S
H916 C902 0.960 . S
H917 C903 0.961 . S
H918 C903 0.961 . S
H919 C903 0.961 . S
H920 C904 0.931 . S
H921 C909 0.930 . S
H922 C910 0.956 . S
H923 C910 0.961 . S
H924 C910 0.961 . S
H925 C911 0.958 . S
H926 C911 0.961 . S
H927 C911 0.960 . S
C928 C929 1.391 . S
C928 C930 1.394 . S
C928 H944 0.931 . S
C929 C928 1.391 . S
C929 C933 1.376 . S
C930 C928 1.394 . S
C930 C931 1.369 . S
C930 C934 1.531 . S
C931 C930 1.369 . S
C931 C932 1.410 . S
C931 C939 1.503 . S
C932 C931 1.410 . S
C932 C933 1.392 . S
C932 C935 1.511 . S
C933 C929 1.376 . S
C933 C932 1.392 . S
C933 H945 0.929 . S
C934 C930 1.531 . S
C934 H946 0.960 . S
C934 H947 0.962 . S
C934 H948 0.960 . S
C935 C932 1.511 . S
C935 H949 0.961 . S
C935 H950 0.961 . S
C935 H951 0.961 . S
C936 C937 1.370 . S
C936 C938 1.363 . S
C936 H952 0.931 . S
C937 C936 1.370 . S
C937 C941 1.408 . S
C938 C936 1.363 . S
C938 C939 1.370 . S
C938 C942 1.524 . S
C939 C931 1.503 . S
C939 C938 1.370 . S
C939 C940 1.403 . S
C940 C939 1.403 . S
C940 C941 1.404 . S
C940 C943 1.539 . S
C941 C937 1.408 . S
C941 C940 1.404 . S
C941 H953 0.930 . S
C942 C938 1.524 . S
C942 H954 0.956 . S
C942 H955 0.961 . S
C942 H956 0.961 . S
C943 C940 1.539 . S
C943 H957 0.958 . S
C943 H958 0.961 . S
C943 H959 0.960 . S
H944 C928 0.931 . S
H945 C933 0.929 . S
H946 C934 0.960 . S
H947 C934 0.962 . S
H948 C934 0.960 . S
H949 C935 0.961 . S
H950 C935 0.961 . S
H951 C935 0.961 . S
H952 C936 0.931 . S
H953 C941 0.930 . S
H954 C942 0.956 . S
H955 C942 0.961 . S
H956 C942 0.961 . S
H957 C943 0.958 . S
H958 C943 0.961 . S
H959 C943 0.960 . S
C960 C961 1.391 . S
C960 C962 1.394 . S
C960 H976 0.931 . S
C961 C960 1.391 . S
C961 C965 1.376 . S
C962 C960 1.394 . S
C962 C963 1.369 . S
C962 C966 1.531 . S
C963 C962 1.369 . S
C963 C964 1.410 . S
C963 C971 1.503 . S
C964 C963 1.410 . S
C964 C965 1.392 . S
C964 C967 1.511 . S
C965 C961 1.376 . S
C965 C964 1.392 . S
C965 H977 0.929 . S
C966 C962 1.531 . S
C966 H978 0.960 . S
C966 H979 0.962 . S
C966 H980 0.960 . S
C967 C964 1.511 . S
C967 H981 0.961 . S
C967 H982 0.961 . S
C967 H983 0.961 . S
C968 C969 1.370 . S
C968 C970 1.363 . S
C968 H984 0.931 . S
C969 C968 1.370 . S
C969 C973 1.408 . S
C970 C968 1.363 . S
C970 C971 1.370 . S
C970 C974 1.524 . S
C971 C963 1.503 . S
C971 C970 1.370 . S
C971 C972 1.403 . S
C972 C971 1.403 . S
C972 C973 1.404 . S
C972 C975 1.539 . S
C973 C969 1.408 . S
C973 C972 1.404 . S
C973 H985 0.930 . S
C974 C970 1.524 . S
C974 H986 0.956 . S
C974 H987 0.961 . S
C974 H988 0.961 . S
C975 C972 1.539 . S
C975 H989 0.958 . S
C975 H990 0.961 . S
C975 H991 0.960 . S
H976 C960 0.931 . S
H977 C965 0.929 . S
H978 C966 0.960 . S
H979 C966 0.962 . S
H980 C966 0.960 . S
H981 C967 0.961 . S
H982 C967 0.961 . S
H983 C967 0.961 . S
H984 C968 0.931 . S
H985 C973 0.930 . S
H986 C974 0.956 . S
H987 C974 0.961 . S
H988 C974 0.961 . S
H989 C975 0.958 . S
H990 C975 0.961 . S
H991 C975 0.960 . S
C992 C993 1.391 . S
C992 C994 1.394 . S
C992 H1008 0.931 . S
C993 C992 1.391 . S
C993 C997 1.376 . S
C994 C992 1.394 . S
C994 C995 1.369 . S
C994 C998 1.531 . S
C995 C994 1.369 . S
C995 C996 1.410 . S
C995 C1003 1.503 1_655 S
C996 C995 1.410 . S
C996 C997 1.392 . S
C996 C999 1.511 . S
C997 C993 1.376 . S
C997 C996 1.392 . S
C997 H1009 0.929 . S
C998 C994 1.531 . S
C998 H1010 0.960 1_655 S
C998 H1011 0.962 . S
C998 H1012 0.960 . S
C999 C996 1.511 . S
C999 H1013 0.961 . S
C999 H1014 0.961 1_655 S
C999 H1015 0.961 . S
C1000 C1001 1.370 . S
C1000 C1002 1.363 . S
C1000 H1016 0.931 . S
C1001 C1000 1.370 . S
C1001 C1005 1.408 . S
C1002 C1000 1.363 . S
C1002 C1003 1.370 . S
C1002 C1006 1.524 . S
C1003 C995 1.503 1_455 S
C1003 C1002 1.370 . S
C1003 C1004 1.403 . S
C1004 C1003 1.403 . S
C1004 C1005 1.404 . S
C1004 C1007 1.539 . S
C1005 C1001 1.408 . S
C1005 C1004 1.404 . S
C1005 H1017 0.930 . S
C1006 C1002 1.524 . S
C1006 H1018 0.982 . S
C1006 H1019 0.919 1_455 S
C1006 H1020 0.961 . S
C1007 C1004 1.539 . S
C1007 H1021 0.958 . S
C1007 H1022 0.961 . S
C1007 H1023 0.967 . S
H1008 C992 0.931 . S
H1009 C997 0.929 . S
H1010 C998 0.960 1_455 S
H1011 C998 0.962 . S
H1012 C998 0.960 . S
H1013 C999 0.961 . S
H1014 C999 0.961 1_455 S
H1015 C999 0.961 . S
H1016 C1000 0.931 . S
H1017 C1005 0.930 . S
H1018 C1006 0.982 . S
H1019 C1006 0.919 1_655 S
H1020 C1006 0.961 . S
H1021 C1007 0.958 . S
H1022 C1007 0.961 . S
H1023 C1007 0.967 . S
C1024 C1025 1.391 . S
C1024 C1026 1.394 . S
C1024 H1040 0.931 . S
C1025 C1024 1.391 . S
C1025 C1029 1.376 . S
C1026 C1024 1.394 . S
C1026 C1027 1.369 . S
C1026 C1030 1.531 . S
C1027 C1026 1.369 . S
C1027 C1028 1.410 . S
C1027 C1035 1.503 . S
C1028 C1027 1.410 . S
C1028 C1029 1.392 . S
C1028 C1031 1.511 . S
C1029 C1025 1.376 . S
C1029 C1028 1.392 . S
C1029 H1041 0.929 . S
C1030 C1026 1.531 . S
C1030 H1042 0.960 . S
C1030 H1043 0.962 . S
C1030 H1044 0.960 . S
C1031 C1028 1.511 . S
C1031 H1045 0.961 . S
C1031 H1046 0.961 . S
C1031 H1047 0.961 . S
C1032 C1033 1.370 . S
C1032 C1034 1.363 . S
C1032 H1048 0.931 . S
C1033 C1032 1.370 . S
C1033 C1037 1.408 . S
C1034 C1032 1.363 . S
C1034 C1035 1.370 . S
C1034 C1038 1.524 . S
C1035 C1027 1.503 . S
C1035 C1034 1.370 . S
C1035 C1036 1.403 . S
C1036 C1035 1.403 . S
C1036 C1037 1.404 . S
C1036 C1039 1.539 . S
C1037 C1033 1.408 . S
C1037 C1036 1.404 . S
C1037 H1049 0.930 . S
C1038 C1034 1.524 . S
C1038 H1050 0.956 . S
C1038 H1051 0.961 . S
C1038 H1052 0.961 . S
C1039 C1036 1.539 . S
C1039 H1053 0.958 . S
C1039 H1054 0.961 . S
C1039 H1055 0.960 . S
H1040 C1024 0.931 . S
H1041 C1029 0.929 . S
H1042 C1030 0.960 . S
H1043 C1030 0.962 . S
H1044 C1030 0.960 . S
H1045 C1031 0.961 . S
H1046 C1031 0.961 . S
H1047 C1031 0.961 . S
H1048 C1032 0.931 . S
H1049 C1037 0.930 . S
H1050 C1038 0.956 . S
H1051 C1038 0.961 . S
H1052 C1038 0.961 . S
H1053 C1039 0.958 . S
H1054 C1039 0.961 . S
H1055 C1039 0.960 . S
C1056 C1057 1.391 . S
C1056 C1058 1.394 . S
C1056 H1072 0.931 . S
C1057 C1056 1.391 . S
C1057 C1061 1.376 . S
C1058 C1056 1.394 . S
C1058 C1059 1.369 . S
C1058 C1062 1.531 . S
C1059 C1058 1.369 . S
C1059 C1060 1.410 . S
C1059 C1067 1.503 . S
C1060 C1059 1.410 . S
C1060 C1061 1.392 . S
C1060 C1063 1.511 . S
C1061 C1057 1.376 . S
C1061 C1060 1.392 . S
C1061 H1073 0.929 . S
C1062 C1058 1.531 . S
C1062 H1074 0.960 . S
C1062 H1075 0.962 . S
C1062 H1076 0.960 . S
C1063 C1060 1.511 . S
C1063 H1077 0.961 . S
C1063 H1078 0.961 . S
C1063 H1079 0.961 . S
C1064 C1065 1.370 . S
C1064 C1066 1.363 . S
C1064 H1080 0.931 . S
C1065 C1064 1.370 . S
C1065 C1069 1.408 . S
C1066 C1064 1.363 . S
C1066 C1067 1.370 . S
C1066 C1070 1.524 . S
C1067 C1059 1.503 . S
C1067 C1066 1.370 . S
C1067 C1068 1.403 . S
C1068 C1067 1.403 . S
C1068 C1069 1.404 . S
C1068 C1071 1.539 . S
C1069 C1065 1.408 . S
C1069 C1068 1.404 . S
C1069 H1081 0.930 . S
C1070 C1066 1.524 . S
C1070 H1082 0.956 . S
C1070 H1083 0.961 . S
C1070 H1084 0.961 . S
C1071 C1068 1.539 . S
C1071 H1085 0.958 . S
C1071 H1086 0.961 . S
C1071 H1087 0.960 . S
H1072 C1056 0.931 . S
H1073 C1061 0.929 . S
H1074 C1062 0.960 . S
H1075 C1062 0.962 . S
H1076 C1062 0.960 . S
H1077 C1063 0.961 . S
H1078 C1063 0.961 . S
H1079 C1063 0.961 . S
H1080 C1064 0.931 . S
H1081 C1069 0.930 . S
H1082 C1070 0.956 . S
H1083 C1070 0.961 . S
H1084 C1070 0.961 . S
H1085 C1071 0.958 . S
H1086 C1071 0.961 . S
H1087 C1071 0.960 . S
C1088 C1089 1.391 . S
C1088 C1090 1.394 . S
C1088 H1104 0.931 . S
C1089 C1088 1.391 . S
C1089 C1093 1.376 . S
C1090 C1088 1.394 . S
C1090 C1091 1.369 . S
C1090 C1094 1.531 . S
C1091 C1090 1.369 . S
C1091 C1092 1.410 . S
C1091 C1099 1.503 . S
C1092 C1091 1.410 . S
C1092 C1093 1.392 . S
C1092 C1095 1.511 . S
C1093 C1089 1.376 . S
C1093 C1092 1.392 . S
C1093 H1105 0.929 . S
C1094 C1090 1.531 . S
C1094 H1106 0.960 . S
C1094 H1107 0.962 . S
C1094 H1108 0.960 . S
C1095 C1092 1.511 . S
C1095 H1109 0.961 . S
C1095 H1110 0.961 . S
C1095 H1111 0.961 . S
C1096 C1097 1.370 . S
C1096 C1098 1.363 . S
C1096 H1112 0.931 . S
C1097 C1096 1.370 . S
C1097 C1101 1.408 . S
C1098 C1096 1.363 . S
C1098 C1099 1.370 . S
C1098 C1102 1.524 . S
C1099 C1091 1.503 . S
C1099 C1098 1.370 . S
C1099 C1100 1.403 . S
C1100 C1099 1.403 . S
C1100 C1101 1.404 . S
C1100 C1103 1.539 . S
C1101 C1097 1.408 . S
C1101 C1100 1.404 . S
C1101 H1113 0.930 . S
C1102 C1098 1.524 . S
C1102 H1114 0.956 . S
C1102 H1115 0.961 . S
C1102 H1116 0.961 . S
C1103 C1100 1.539 . S
C1103 H1117 0.958 . S
C1103 H1118 0.961 . S
C1103 H1119 0.960 . S
H1104 C1088 0.931 . S
H1105 C1093 0.929 . S
H1106 C1094 0.960 . S
H1107 C1094 0.962 . S
H1108 C1094 0.960 . S
H1109 C1095 0.961 . S
H1110 C1095 0.961 . S
H1111 C1095 0.961 . S
H1112 C1096 0.931 . S
H1113 C1101 0.930 . S
H1114 C1102 0.956 . S
H1115 C1102 0.961 . S
H1116 C1102 0.961 . S
H1117 C1103 0.958 . S
H1118 C1103 0.961 . S
H1119 C1103 0.960 . S
C1120 C1121 1.391 . S
C1120 C1122 1.394 . S
C1120 H1136 0.931 . S
C1121 C1120 1.391 . S
C1121 C1125 1.376 . S
C1122 C1120 1.394 . S
C1122 C1123 1.369 . S
C1122 C1126 1.531 . S
C1123 C1122 1.369 . S
C1123 C1124 1.410 . S
C1123 C1131 1.503 . S
C1124 C1123 1.410 . S
C1124 C1125 1.392 . S
C1124 C1127 1.511 . S
C1125 C1121 1.376 . S
C1125 C1124 1.392 . S
C1125 H1137 0.929 . S
C1126 C1122 1.531 . S
C1126 H1138 0.960 . S
C1126 H1139 0.962 . S
C1126 H1140 0.960 . S
C1127 C1124 1.511 . S
C1127 H1141 0.961 . S
C1127 H1142 0.961 . S
C1127 H1143 0.961 . S
C1128 C1129 1.370 . S
C1128 C1130 1.363 . S
C1128 H1144 0.931 . S
C1129 C1128 1.370 . S
C1129 C1133 1.408 . S
C1130 C1128 1.363 . S
C1130 C1131 1.370 . S
C1130 C1134 1.524 . S
C1131 C1123 1.503 . S
C1131 C1130 1.370 . S
C1131 C1132 1.403 . S
C1132 C1131 1.403 . S
C1132 C1133 1.404 . S
C1132 C1135 1.539 . S
C1133 C1129 1.408 . S
C1133 C1132 1.404 . S
C1133 H1145 0.930 . S
C1134 C1130 1.524 . S
C1134 H1146 0.956 . S
C1134 H1147 0.961 . S
C1134 H1148 0.961 . S
C1135 C1132 1.539 . S
C1135 H1149 0.958 . S
C1135 H1150 0.961 . S
C1135 H1151 0.960 . S
H1136 C1120 0.931 . S
H1137 C1125 0.929 . S
H1138 C1126 0.960 . S
H1139 C1126 0.962 . S
H1140 C1126 0.960 . S
H1141 C1127 0.961 . S
H1142 C1127 0.961 . S
H1143 C1127 0.961 . S
H1144 C1128 0.931 . S
H1145 C1133 0.930 . S
H1146 C1134 0.956 . S
H1147 C1134 0.961 . S
H1148 C1134 0.961 . S
H1149 C1135 0.958 . S
H1150 C1135 0.961 . S
H1151 C1135 0.960 . S
C1152 C1153 1.391 . S
C1152 C1154 1.394 . S
C1152 H1168 0.931 . S
C1153 C1152 1.391 . S
C1153 C1157 1.376 . S
C1154 C1152 1.394 . S
C1154 C1155 1.369 . S
C1154 C1158 1.531 . S
C1155 C1154 1.369 . S
C1155 C1156 1.410 . S
C1155 C1163 1.503 . S
C1156 C1155 1.410 . S
C1156 C1157 1.392 . S
C1156 C1159 1.511 . S
C1157 C1153 1.376 . S
C1157 C1156 1.392 . S
C1157 H1169 0.929 . S
C1158 C1154 1.531 . S
C1158 H1170 0.960 . S
C1158 H1171 0.962 . S
C1158 H1172 0.960 . S
C1159 C1156 1.511 . S
C1159 H1173 0.961 . S
C1159 H1174 0.961 . S
C1159 H1175 0.961 . S
C1160 C1161 1.370 . S
C1160 C1162 1.363 . S
C1160 H1176 0.931 . S
C1161 C1160 1.370 . S
C1161 C1165 1.408 . S
C1162 C1160 1.363 . S
C1162 C1163 1.370 . S
C1162 C1166 1.524 . S
C1163 C1155 1.503 . S
C1163 C1162 1.370 . S
C1163 C1164 1.403 . S
C1164 C1163 1.403 . S
C1164 C1165 1.404 . S
C1164 C1167 1.539 . S
C1165 C1161 1.408 . S
C1165 C1164 1.404 . S
C1165 H1177 0.930 . S
C1166 C1162 1.524 . S
C1166 H1178 0.956 . S
C1166 H1179 0.961 . S
C1166 H1180 0.961 . S
C1167 C1164 1.539 . S
C1167 H1181 0.958 . S
C1167 H1182 0.961 . S
C1167 H1183 0.960 . S
H1168 C1152 0.931 . S
H1169 C1157 0.929 . S
H1170 C1158 0.960 . S
H1171 C1158 0.962 . S
H1172 C1158 0.960 . S
H1173 C1159 0.961 . S
H1174 C1159 0.961 . S
H1175 C1159 0.961 . S
H1176 C1160 0.931 . S
H1177 C1165 0.930 . S
H1178 C1166 0.956 . S
H1179 C1166 0.961 . S
H1180 C1166 0.961 . S
H1181 C1167 0.958 . S
H1182 C1167 0.961 . S
H1183 C1167 0.960 . S
C1184 C1185 1.391 . S
C1184 C1186 1.394 . S
C1184 H1200 0.931 . S
C1185 C1184 1.391 . S
C1185 C1189 1.376 . S
C1186 C1184 1.394 . S
C1186 C1187 1.369 . S
C1186 C1190 1.531 . S
C1187 C1186 1.369 . S
C1187 C1188 1.410 . S
C1187 C1195 1.503 . S
C1188 C1187 1.410 . S
C1188 C1189 1.392 . S
C1188 C1191 1.511 . S
C1189 C1185 1.376 . S
C1189 C1188 1.392 . S
C1189 H1201 0.929 . S
C1190 C1186 1.531 . S
C1190 H1202 0.960 . S
C1190 H1203 0.962 . S
C1190 H1204 0.960 . S
C1191 C1188 1.511 . S
C1191 H1205 0.961 . S
C1191 H1206 0.961 . S
C1191 H1207 0.961 . S
C1192 C1193 1.370 . S
C1192 C1194 1.363 . S
C1192 H1208 0.931 . S
C1193 C1192 1.370 . S
C1193 C1197 1.408 . S
C1194 C1192 1.363 . S
C1194 C1195 1.370 . S
C1194 C1198 1.524 . S
C1195 C1187 1.503 . S
C1195 C1194 1.370 . S
C1195 C1196 1.403 . S
C1196 C1195 1.403 . S
C1196 C1197 1.404 . S
C1196 C1199 1.539 . S
C1197 C1193 1.408 . S
C1197 C1196 1.404 . S
C1197 H1209 0.930 . S
C1198 C1194 1.524 . S
C1198 H1210 0.956 . S
C1198 H1211 0.961 . S
C1198 H1212 0.961 . S
C1199 C1196 1.539 . S
C1199 H1213 0.958 . S
C1199 H1214 0.961 . S
C1199 H1215 0.960 . S
H1200 C1184 0.931 . S
H1201 C1189 0.929 . S
H1202 C1190 0.960 . S
H1203 C1190 0.962 . S
H1204 C1190 0.960 . S
H1205 C1191 0.961 . S
H1206 C1191 0.961 . S
H1207 C1191 0.961 . S
H1208 C1192 0.931 . S
H1209 C1197 0.930 . S
H1210 C1198 0.956 . S
H1211 C1198 0.961 . S
H1212 C1198 0.961 . S
H1213 C1199 0.958 . S
H1214 C1199 0.961 . S
H1215 C1199 0.960 . S
C1216 C1217 1.391 . S
C1216 C1218 1.394 . S
C1216 H1232 0.931 . S
C1217 C1216 1.391 . S
C1217 C1221 1.376 . S
C1218 C1216 1.394 . S
C1218 C1219 1.369 . S
C1218 C1222 1.531 . S
C1219 C1218 1.369 . S
C1219 C1220 1.410 . S
C1219 C1227 1.503 . S
C1220 C1219 1.410 . S
C1220 C1221 1.392 . S
C1220 C1223 1.511 . S
C1221 C1217 1.376 . S
C1221 C1220 1.392 . S
C1221 H1233 0.929 . S
C1222 C1218 1.531 . S
C1222 H1234 0.960 . S
C1222 H1235 0.962 . S
C1222 H1236 0.960 . S
C1223 C1220 1.511 . S
C1223 H1237 0.961 . S
C1223 H1238 0.961 . S
C1223 H1239 0.961 . S
C1224 C1225 1.370 . S
C1224 C1226 1.363 . S
C1224 H1240 0.931 . S
C1225 C1224 1.370 . S
C1225 C1229 1.408 . S
C1226 C1224 1.363 . S
C1226 C1227 1.370 . S
C1226 C1230 1.524 . S
C1227 C1219 1.503 . S
C1227 C1226 1.370 . S
C1227 C1228 1.403 . S
C1228 C1227 1.403 . S
C1228 C1229 1.404 . S
C1228 C1231 1.539 . S
C1229 C1225 1.408 . S
C1229 C1228 1.404 . S
C1229 H1241 0.930 . S
C1230 C1226 1.524 . S
C1230 H1242 0.956 . S
C1230 H1243 0.961 . S
C1230 H1244 0.961 . S
C1231 C1228 1.539 . S
C1231 H1245 0.958 . S
C1231 H1246 0.961 . S
C1231 H1247 0.960 . S
H1232 C1216 0.931 . S
H1233 C1221 0.929 . S
H1234 C1222 0.960 . S
H1235 C1222 0.962 . S
H1236 C1222 0.960 . S
H1237 C1223 0.961 . S
H1238 C1223 0.961 . S
H1239 C1223 0.961 . S
H1240 C1224 0.931 . S
H1241 C1229 0.930 . S
H1242 C1230 0.956 . S
H1243 C1230 0.961 . S
H1244 C1230 0.961 . S
H1245 C1231 0.958 . S
H1246 C1231 0.961 . S
H1247 C1231 0.960 . S
C1248 C1249 1.391 . S
C1248 C1250 1.394 . S
C1248 H1264 0.931 . S
C1249 C1248 1.391 . S
C1249 C1253 1.376 . S
C1250 C1248 1.394 . S
C1250 C1251 1.369 . S
C1250 C1254 1.531 . S
C1251 C1250 1.369 . S
C1251 C1252 1.410 . S
C1251 C1259 1.503 . S
C1252 C1251 1.410 . S
C1252 C1253 1.392 . S
C1252 C1255 1.511 . S
C1253 C1249 1.376 . S
C1253 C1252 1.392 . S
C1253 H1265 0.929 . S
C1254 C1250 1.531 . S
C1254 H1266 0.960 . S
C1254 H1267 0.962 . S
C1254 H1268 0.960 . S
C1255 C1252 1.511 . S
C1255 H1269 0.961 . S
C1255 H1270 0.961 . S
C1255 H1271 0.961 . S
C1256 C1257 1.370 . S
C1256 C1258 1.363 . S
C1256 H1272 0.931 . S
C1257 C1256 1.370 . S
C1257 C1261 1.408 . S
C1258 C1256 1.363 . S
C1258 C1259 1.370 . S
C1258 C1262 1.524 . S
C1259 C1251 1.503 . S
C1259 C1258 1.370 . S
C1259 C1260 1.403 . S
C1260 C1259 1.403 . S
C1260 C1261 1.404 . S
C1260 C1263 1.539 . S
C1261 C1257 1.408 . S
C1261 C1260 1.404 . S
C1261 H1273 0.930 . S
C1262 C1258 1.524 . S
C1262 H1274 0.956 . S
C1262 H1275 0.961 . S
C1262 H1276 0.961 . S
C1263 C1260 1.539 . S
C1263 H1277 0.958 . S
C1263 H1278 0.961 . S
C1263 H1279 0.960 . S
H1264 C1248 0.931 . S
H1265 C1253 0.929 . S
H1266 C1254 0.960 . S
H1267 C1254 0.962 . S
H1268 C1254 0.960 . S
H1269 C1255 0.961 . S
H1270 C1255 0.961 . S
H1271 C1255 0.961 . S
H1272 C1256 0.931 . S
H1273 C1261 0.930 . S
H1274 C1262 0.956 . S
H1275 C1262 0.961 . S
H1276 C1262 0.961 . S
H1277 C1263 0.958 . S
H1278 C1263 0.961 . S
H1279 C1263 0.960 . S
C1280 C1281 1.391 . S
C1280 C1282 1.394 . S
C1280 H1296 0.931 . S
C1281 C1280 1.391 . S
C1281 C1285 1.376 . S
C1282 C1280 1.394 . S
C1282 C1283 1.369 . S
C1282 C1286 1.531 . S
C1283 C1282 1.369 . S
C1283 C1284 1.410 . S
C1283 C1291 1.503 1_455 S
C1284 C1283 1.410 . S
C1284 C1285 1.392 . S
C1284 C1287 1.511 . S
C1285 C1281 1.376 . S
C1285 C1284 1.392 . S
C1285 H1297 0.929 . S
C1286 C1282 1.531 . S
C1286 H1298 0.960 1_455 S
C1286 H1299 0.962 . S
C1286 H1300 0.960 . S
C1287 C1284 1.511 . S
C1287 H1301 0.961 . S
C1287 H1302 0.961 1_455 S
C1287 H1303 0.961 . S
C1288 C1289 1.370 . S
C1288 C1290 1.363 . S
C1288 H1304 0.931 . S
C1289 C1288 1.370 . S
C1289 C1293 1.408 . S
C1290 C1288 1.363 . S
C1290 C1291 1.370 . S
C1290 C1294 1.524 . S
C1291 C1283 1.503 1_655 S
C1291 C1290 1.370 . S
C1291 C1292 1.403 . S
C1292 C1291 1.403 . S
C1292 C1293 1.404 . S
C1292 C1295 1.539 . S
C1293 C1289 1.408 . S
C1293 C1292 1.404 . S
C1293 H1305 0.930 . S
C1294 C1290 1.524 . S
C1294 H1306 0.982 . S
C1294 H1307 0.919 1_655 S
C1294 H1308 0.961 . S
C1295 C1292 1.539 . S
C1295 H1309 0.958 . S
C1295 H1310 0.961 . S
C1295 H1311 0.967 . S
H1296 C1280 0.931 . S
H1297 C1285 0.929 . S
H1298 C1286 0.960 1_655 S
H1299 C1286 0.962 . S
H1300 C1286 0.960 . S
H1301 C1287 0.961 . S
H1302 C1287 0.961 1_655 S
H1303 C1287 0.961 . S
H1304 C1288 0.931 . S
H1305 C1293 0.930 . S
H1306 C1294 0.982 . S
H1307 C1294 0.919 1_455 S
H1308 C1294 0.961 . S
H1309 C1295 0.958 . S
H1310 C1295 0.961 . S
H1311 C1295 0.967 . S
C1312 C1313 1.391 . S
C1312 C1314 1.394 . S
C1312 H1328 0.931 . S
C1313 C1312 1.391 . S
C1313 C1317 1.376 . S
C1314 C1312 1.394 . S
C1314 C1315 1.369 . S
C1314 C1318 1.531 . S
C1315 C1314 1.369 . S
C1315 C1316 1.410 . S
C1315 C1323 1.503 . S
C1316 C1315 1.410 . S
C1316 C1317 1.392 . S
C1316 C1319 1.511 . S
C1317 C1313 1.376 . S
C1317 C1316 1.392 . S
C1317 H1329 0.929 . S
C1318 C1314 1.531 . S
C1318 H1330 0.960 . S
C1318 H1331 0.962 . S
C1318 H1332 0.960 . S
C1319 C1316 1.511 . S
C1319 H1333 0.961 . S
C1319 H1334 0.961 . S
C1319 H1335 0.961 . S
C1320 C1321 1.370 . S
C1320 C1322 1.363 . S
C1320 H1336 0.931 . S
C1321 C1320 1.370 . S
C1321 C1325 1.408 . S
C1322 C1320 1.363 . S
C1322 C1323 1.370 . S
C1322 C1326 1.524 . S
C1323 C1315 1.503 . S
C1323 C1322 1.370 . S
C1323 C1324 1.403 . S
C1324 C1323 1.403 . S
C1324 C1325 1.404 . S
C1324 C1327 1.539 . S
C1325 C1321 1.408 . S
C1325 C1324 1.404 . S
C1325 H1337 0.930 . S
C1326 C1322 1.524 . S
C1326 H1338 0.956 . S
C1326 H1339 0.961 . S
C1326 H1340 0.961 . S
C1327 C1324 1.539 . S
C1327 H1341 0.958 . S
C1327 H1342 0.961 . S
C1327 H1343 0.960 . S
H1328 C1312 0.931 . S
H1329 C1317 0.929 . S
H1330 C1318 0.960 . S
H1331 C1318 0.962 . S
H1332 C1318 0.960 . S
H1333 C1319 0.961 . S
H1334 C1319 0.961 . S
H1335 C1319 0.961 . S
H1336 C1320 0.931 . S
H1337 C1325 0.930 . S
H1338 C1326 0.956 . S
H1339 C1326 0.961 . S
H1340 C1326 0.961 . S
H1341 C1327 0.958 . S
H1342 C1327 0.961 . S
H1343 C1327 0.960 . S
C1344 C1345 1.391 . S
C1344 C1346 1.394 . S
C1344 H1360 0.931 . S
C1345 C1344 1.391 . S
C1345 C1349 1.376 . S
C1346 C1344 1.394 . S
C1346 C1347 1.369 . S
C1346 C1350 1.531 . S
C1347 C1346 1.369 . S
C1347 C1348 1.410 . S
C1347 C1355 1.503 1_455 S
C1348 C1347 1.410 . S
C1348 C1349 1.392 . S
C1348 C1351 1.511 . S
C1349 C1345 1.376 . S
C1349 C1348 1.392 . S
C1349 H1361 0.929 . S
C1350 C1346 1.531 . S
C1350 H1362 0.960 1_455 S
C1350 H1363 0.962 . S
C1350 H1364 0.960 . S
C1351 C1348 1.511 . S
C1351 H1365 0.961 . S
C1351 H1366 0.961 1_455 S
C1351 H1367 0.961 . S
C1352 C1353 1.370 . S
C1352 C1354 1.363 . S
C1352 H1368 0.931 . S
C1353 C1352 1.370 . S
C1353 C1357 1.408 . S
C1354 C1352 1.363 . S
C1354 C1355 1.370 . S
C1354 C1358 1.524 . S
C1355 C1347 1.503 1_655 S
C1355 C1354 1.370 . S
C1355 C1356 1.403 . S
C1356 C1355 1.403 . S
C1356 C1357 1.404 . S
C1356 C1359 1.539 . S
C1357 C1353 1.408 . S
C1357 C1356 1.404 . S
C1357 H1369 0.930 . S
C1358 C1354 1.524 . S
C1358 H1370 0.982 . S
C1358 H1371 0.919 1_655 S
C1358 H1372 0.961 . S
C1359 C1356 1.539 . S
C1359 H1373 0.958 . S
C1359 H1374 0.961 . S
C1359 H1375 0.967 . S
H1360 C1344 0.931 . S
H1361 C1349 0.929 . S
H1362 C1350 0.960 1_655 S
H1363 C1350 0.962 . S
H1364 C1350 0.960 . S
H1365 C1351 0.961 . S
H1366 C1351 0.961 1_655 S
H1367 C1351 0.961 . S
H1368 C1352 0.931 . S
H1369 C1357 0.930 . S
H1370 C1358 0.982 . S
H1371 C1358 0.919 1_455 S
H1372 C1358 0.961 . S
H1373 C1359 0.958 . S
H1374 C1359 0.961 . S
H1375 C1359 0.967 . S
C1376 C1377 1.391 . S
C1376 C1378 1.394 . S
C1376 H1392 0.931 . S
C1377 C1376 1.391 . S
C1377 C1381 1.376 . S
C1378 C1376 1.394 . S
C1378 C1379 1.369 . S
C1378 C1382 1.531 . S
C1379 C1378 1.369 . S
C1379 C1380 1.410 . S
C1379 C1387 1.503 . S
C1380 C1379 1.410 . S
C1380 C1381 1.392 . S
C1380 C1383 1.511 . S
C1381 C1377 1.376 . S
C1381 C1380 1.392 . S
C1381 H1393 0.929 . S
C1382 C1378 1.531 . S
C1382 H1394 0.960 . S
C1382 H1395 0.962 . S
C1382 H1396 0.960 . S
C1383 C1380 1.511 . S
C1383 H1397 0.961 . S
C1383 H1398 0.961 . S
C1383 H1399 0.961 . S
C1384 C1385 1.370 . S
C1384 C1386 1.363 . S
C1384 H1400 0.931 . S
C1385 C1384 1.370 . S
C1385 C1389 1.408 . S
C1386 C1384 1.363 . S
C1386 C1387 1.370 . S
C1386 C1390 1.524 . S
C1387 C1379 1.503 . S
C1387 C1386 1.370 . S
C1387 C1388 1.403 . S
C1388 C1387 1.403 . S
C1388 C1389 1.404 . S
C1388 C1391 1.539 . S
C1389 C1385 1.408 . S
C1389 C1388 1.404 . S
C1389 H1401 0.930 . S
C1390 C1386 1.524 . S
C1390 H1402 0.956 . S
C1390 H1403 0.961 . S
C1390 H1404 0.961 . S
C1391 C1388 1.539 . S
C1391 H1405 0.958 . S
C1391 H1406 0.961 . S
C1391 H1407 0.960 . S
H1392 C1376 0.931 . S
H1393 C1381 0.929 . S
H1394 C1382 0.960 . S
H1395 C1382 0.962 . S
H1396 C1382 0.960 . S
H1397 C1383 0.961 . S
H1398 C1383 0.961 . S
H1399 C1383 0.961 . S
H1400 C1384 0.931 . S
H1401 C1389 0.930 . S
H1402 C1390 0.956 . S
H1403 C1390 0.961 . S
H1404 C1390 0.961 . S
H1405 C1391 0.958 . S
H1406 C1391 0.961 . S
H1407 C1391 0.960 . S
C1408 C1409 1.391 . S
C1408 C1410 1.394 . S
C1408 H1424 0.931 . S
C1409 C1408 1.391 . S
C1409 C1413 1.376 . S
C1410 C1408 1.394 . S
C1410 C1411 1.369 . S
C1410 C1414 1.531 . S
C1411 C1410 1.369 . S
C1411 C1412 1.410 . S
C1411 C1419 1.503 . S
C1412 C1411 1.410 . S
C1412 C1413 1.392 . S
C1412 C1415 1.511 . S
C1413 C1409 1.376 . S
C1413 C1412 1.392 . S
C1413 H1425 0.929 . S
C1414 C1410 1.531 . S
C1414 H1426 0.960 . S
C1414 H1427 0.962 . S
C1414 H1428 0.960 . S
C1415 C1412 1.511 . S
C1415 H1429 0.961 . S
C1415 H1430 0.961 . S
C1415 H1431 0.961 . S
C1416 C1417 1.370 . S
C1416 C1418 1.363 . S
C1416 H1432 0.931 . S
C1417 C1416 1.370 . S
C1417 C1421 1.408 . S
C1418 C1416 1.363 . S
C1418 C1419 1.370 . S
C1418 C1422 1.524 . S
C1419 C1411 1.503 . S
C1419 C1418 1.370 . S
C1419 C1420 1.403 . S
C1420 C1419 1.403 . S
C1420 C1421 1.404 . S
C1420 C1423 1.539 . S
C1421 C1417 1.408 . S
C1421 C1420 1.404 . S
C1421 H1433 0.930 . S
C1422 C1418 1.524 . S
C1422 H1434 0.956 . S
C1422 H1435 0.961 . S
C1422 H1436 0.961 . S
C1423 C1420 1.539 . S
C1423 H1437 0.958 . S
C1423 H1438 0.961 . S
C1423 H1439 0.960 . S
H1424 C1408 0.931 . S
H1425 C1413 0.929 . S
H1426 C1414 0.960 . S
H1427 C1414 0.962 . S
H1428 C1414 0.960 . S
H1429 C1415 0.961 . S
H1430 C1415 0.961 . S
H1431 C1415 0.961 . S
H1432 C1416 0.931 . S
H1433 C1421 0.930 . S
H1434 C1422 0.956 . S
H1435 C1422 0.961 . S
H1436 C1422 0.961 . S
H1437 C1423 0.958 . S
H1438 C1423 0.961 . S
H1439 C1423 0.960 . S
C1440 C1441 1.391 . S
C1440 C1442 1.394 . S
C1440 H1456 0.931 . S
C1441 C1440 1.391 . S
C1441 C1445 1.376 . S
C1442 C1440 1.394 . S
C1442 C1443 1.369 . S
C1442 C1446 1.531 . S
C1443 C1442 1.369 . S
C1443 C1444 1.410 . S
C1443 C1451 1.503 . S
C1444 C1443 1.410 . S
C1444 C1445 1.392 . S
C1444 C1447 1.511 . S
C1445 C1441 1.376 . S
C1445 C1444 1.392 . S
C1445 H1457 0.929 . S
C1446 C1442 1.531 . S
C1446 H1458 0.960 . S
C1446 H1459 0.962 . S
C1446 H1460 0.960 . S
C1447 C1444 1.511 . S
C1447 H1461 0.961 . S
C1447 H1462 0.961 . S
C1447 H1463 0.961 . S
C1448 C1449 1.370 . S
C1448 C1450 1.363 . S
C1448 H1464 0.931 . S
C1449 C1448 1.370 . S
C1449 C1453 1.408 . S
C1450 C1448 1.363 . S
C1450 C1451 1.370 . S
C1450 C1454 1.524 . S
C1451 C1443 1.503 . S
C1451 C1450 1.370 . S
C1451 C1452 1.403 . S
C1452 C1451 1.403 . S
C1452 C1453 1.404 . S
C1452 C1455 1.539 . S
C1453 C1449 1.408 . S
C1453 C1452 1.404 . S
C1453 H1465 0.930 . S
C1454 C1450 1.524 . S
C1454 H1466 0.956 . S
C1454 H1467 0.961 . S
C1454 H1468 0.961 . S
C1455 C1452 1.539 . S
C1455 H1469 0.958 . S
C1455 H1470 0.961 . S
C1455 H1471 0.960 . S
H1456 C1440 0.931 . S
H1457 C1445 0.929 . S
H1458 C1446 0.960 . S
H1459 C1446 0.962 . S
H1460 C1446 0.960 . S
H1461 C1447 0.961 . S
H1462 C1447 0.961 . S
H1463 C1447 0.961 . S
H1464 C1448 0.931 . S
H1465 C1453 0.930 . S
H1466 C1454 0.956 . S
H1467 C1454 0.961 . S
H1468 C1454 0.961 . S
H1469 C1455 0.958 . S
H1470 C1455 0.961 . S
H1471 C1455 0.960 . S
C1472 C1473 1.391 . S
C1472 C1474 1.394 . S
C1472 H1488 0.931 . S
C1473 C1472 1.391 . S
C1473 C1477 1.376 . S
C1474 C1472 1.394 . S
C1474 C1475 1.369 . S
C1474 C1478 1.531 . S
C1475 C1474 1.369 . S
C1475 C1476 1.410 . S
C1475 C1483 1.503 . S
C1476 C1475 1.410 . S
C1476 C1477 1.392 . S
C1476 C1479 1.511 . S
C1477 C1473 1.376 . S
C1477 C1476 1.392 . S
C1477 H1489 0.929 . S
C1478 C1474 1.531 . S
C1478 H1490 0.960 . S
C1478 H1491 0.962 . S
C1478 H1492 0.960 . S
C1479 C1476 1.511 . S
C1479 H1493 0.961 . S
C1479 H1494 0.961 . S
C1479 H1495 0.961 . S
C1480 C1481 1.370 . S
C1480 C1482 1.363 . S
C1480 H1496 0.931 . S
C1481 C1480 1.370 . S
C1481 C1485 1.408 . S
C1482 C1480 1.363 . S
C1482 C1483 1.370 . S
C1482 C1486 1.524 . S
C1483 C1475 1.503 . S
C1483 C1482 1.370 . S
C1483 C1484 1.403 . S
C1484 C1483 1.403 . S
C1484 C1485 1.404 . S
C1484 C1487 1.539 . S
C1485 C1481 1.408 . S
C1485 C1484 1.404 . S
C1485 H1497 0.930 . S
C1486 C1482 1.524 . S
C1486 H1498 0.956 . S
C1486 H1499 0.961 . S
C1486 H1500 0.961 . S
C1487 C1484 1.539 . S
C1487 H1501 0.958 . S
C1487 H1502 0.961 . S
C1487 H1503 0.960 . S
H1488 C1472 0.931 . S
H1489 C1477 0.929 . S
H1490 C1478 0.960 . S
H1491 C1478 0.962 . S
H1492 C1478 0.960 . S
H1493 C1479 0.961 . S
H1494 C1479 0.961 . S
H1495 C1479 0.961 . S
H1496 C1480 0.931 . S
H1497 C1485 0.930 . S
H1498 C1486 0.956 . S
H1499 C1486 0.961 . S
H1500 C1486 0.961 . S
H1501 C1487 0.958 . S
H1502 C1487 0.961 . S
H1503 C1487 0.960 . S
C1504 C1505 1.391 . S
C1504 C1506 1.394 . S
C1504 H1520 0.931 . S
C1505 C1504 1.391 . S
C1505 C1509 1.376 . S
C1506 C1504 1.394 . S
C1506 C1507 1.369 . S
C1506 C1510 1.531 . S
C1507 C1506 1.369 . S
C1507 C1508 1.410 . S
C1507 C1515 1.503 . S
C1508 C1507 1.410 . S
C1508 C1509 1.392 . S
C1508 C1511 1.511 . S
C1509 C1505 1.376 . S
C1509 C1508 1.392 . S
C1509 H1521 0.929 . S
C1510 C1506 1.531 . S
C1510 H1522 0.960 . S
C1510 H1523 0.962 . S
C1510 H1524 0.960 . S
C1511 C1508 1.511 . S
C1511 H1525 0.961 . S
C1511 H1526 0.961 . S
C1511 H1527 0.961 . S
C1512 C1513 1.370 . S
C1512 C1514 1.363 . S
C1512 H1528 0.931 . S
C1513 C1512 1.370 . S
C1513 C1517 1.408 . S
C1514 C1512 1.363 . S
C1514 C1515 1.370 . S
C1514 C1518 1.524 . S
C1515 C1507 1.503 . S
C1515 C1514 1.370 . S
C1515 C1516 1.403 . S
C1516 C1515 1.403 . S
C1516 C1517 1.404 . S
C1516 C1519 1.539 . S
C1517 C1513 1.408 . S
C1517 C1516 1.404 . S
C1517 H1529 0.930 . S
C1518 C1514 1.524 . S
C1518 H1530 0.956 . S
C1518 H1531 0.961 . S
C1518 H1532 0.961 . S
C1519 C1516 1.539 . S
C1519 H1533 0.958 . S
C1519 H1534 0.961 . S
C1519 H1535 0.960 . S
H1520 C1504 0.931 . S
H1521 C1509 0.929 . S
H1522 C1510 0.960 . S
H1523 C1510 0.962 . S
H1524 C1510 0.960 . S
H1525 C1511 0.961 . S
H1526 C1511 0.961 . S
H1527 C1511 0.961 . S
H1528 C1512 0.931 . S
H1529 C1517 0.930 . S
H1530 C1518 0.956 . S
H1531 C1518 0.961 . S
H1532 C1518 0.961 . S
H1533 C1519 0.958 . S
H1534 C1519 0.961 . S
H1535 C1519 0.960 . S
C1536 C1537 1.391 . S
C1536 C1538 1.394 . S
C1536 H1552 0.931 . S
C1537 C1536 1.391 . S
C1537 C1541 1.376 . S
C1538 C1536 1.394 . S
C1538 C1539 1.369 . S
C1538 C1542 1.531 . S
C1539 C1538 1.369 . S
C1539 C1540 1.410 . S
C1539 C1547 1.503 . S
C1540 C1539 1.410 . S
C1540 C1541 1.392 . S
C1540 C1543 1.511 . S
C1541 C1537 1.376 . S
C1541 C1540 1.392 . S
C1541 H1553 0.929 . S
C1542 C1538 1.531 . S
C1542 H1554 0.960 . S
C1542 H1555 0.962 . S
C1542 H1556 0.960 . S
C1543 C1540 1.511 . S
C1543 H1557 0.961 . S
C1543 H1558 0.961 . S
C1543 H1559 0.961 . S
C1544 C1545 1.370 . S
C1544 C1546 1.363 . S
C1544 H1560 0.931 . S
C1545 C1544 1.370 . S
C1545 C1549 1.408 . S
C1546 C1544 1.363 . S
C1546 C1547 1.370 . S
C1546 C1550 1.524 . S
C1547 C1539 1.503 . S
C1547 C1546 1.370 . S
C1547 C1548 1.403 . S
C1548 C1547 1.403 . S
C1548 C1549 1.404 . S
C1548 C1551 1.539 . S
C1549 C1545 1.408 . S
C1549 C1548 1.404 . S
C1549 H1561 0.930 . S
C1550 C1546 1.524 . S
C1550 H1562 0.956 . S
C1550 H1563 0.961 . S
C1550 H1564 0.961 . S
C1551 C1548 1.539 . S
C1551 H1565 0.958 . S
C1551 H1566 0.961 . S
C1551 H1567 0.960 . S
H1552 C1536 0.931 . S
H1553 C1541 0.929 . S
H1554 C1542 0.960 . S
H1555 C1542 0.962 . S
H1556 C1542 0.960 . S
H1557 C1543 0.961 . S
H1558 C1543 0.961 . S
H1559 C1543 0.961 . S
H1560 C1544 0.931 . S
H1561 C1549 0.930 . S
H1562 C1550 0.956 . S
H1563 C1550 0.961 . S
H1564 C1550 0.961 . S
H1565 C1551 0.958 . S
H1566 C1551 0.961 . S
H1567 C1551 0.960 . S
C1568 C1569 1.391 . S
C1568 C1570 1.394 . S
C1568 H1584 0.931 . S
C1569 C1568 1.391 . S
C1569 C1573 1.376 . S
C1570 C1568 1.394 . S
C1570 C1571 1.369 . S
C1570 C1574 1.531 . S
C1571 C1570 1.369 . S
C1571 C1572 1.410 . S
C1571 C1579 1.503 . S
C1572 C1571 1.410 . S
C1572 C1573 1.392 . S
C1572 C1575 1.511 . S
C1573 C1569 1.376 . S
C1573 C1572 1.392 . S
C1573 H1585 0.929 . S
C1574 C1570 1.531 . S
C1574 H1586 0.960 . S
C1574 H1587 0.962 . S
C1574 H1588 0.960 . S
C1575 C1572 1.511 . S
C1575 H1589 0.961 . S
C1575 H1590 0.961 . S
C1575 H1591 0.961 . S
C1576 C1577 1.370 . S
C1576 C1578 1.363 . S
C1576 H1592 0.931 . S
C1577 C1576 1.370 . S
C1577 C1581 1.408 . S
C1578 C1576 1.363 . S
C1578 C1579 1.370 . S
C1578 C1582 1.524 . S
C1579 C1571 1.503 . S
C1579 C1578 1.370 . S
C1579 C1580 1.403 . S
C1580 C1579 1.403 . S
C1580 C1581 1.404 . S
C1580 C1583 1.539 . S
C1581 C1577 1.408 . S
C1581 C1580 1.404 . S
C1581 H1593 0.930 . S
C1582 C1578 1.524 . S
C1582 H1594 0.956 . S
C1582 H1595 0.961 . S
C1582 H1596 0.961 . S
C1583 C1580 1.539 . S
C1583 H1597 0.958 . S
C1583 H1598 0.961 . S
C1583 H1599 0.960 . S
H1584 C1568 0.931 . S
H1585 C1573 0.929 . S
H1586 C1574 0.960 . S
H1587 C1574 0.962 . S
H1588 C1574 0.960 . S
H1589 C1575 0.961 . S
H1590 C1575 0.961 . S
H1591 C1575 0.961 . S
H1592 C1576 0.931 . S
H1593 C1581 0.930 . S
H1594 C1582 0.956 . S
H1595 C1582 0.961 . S
H1596 C1582 0.961 . S
H1597 C1583 0.958 . S
H1598 C1583 0.961 . S
H1599 C1583 0.960 . S
C1600 C1601 1.391 . S
C1600 C1602 1.394 . S
C1600 H1616 0.931 . S
C1601 C1600 1.391 . S
C1601 C1605 1.376 . S
C1602 C1600 1.394 . S
C1602 C1603 1.369 . S
C1602 C1606 1.531 . S
C1603 C1602 1.369 . S
C1603 C1604 1.410 . S
C1603 C1611 1.503 . S
C1604 C1603 1.410 . S
C1604 C1605 1.392 . S
C1604 C1607 1.511 . S
C1605 C1601 1.376 . S
C1605 C1604 1.392 . S
C1605 H1617 0.929 . S
C1606 C1602 1.531 . S
C1606 H1618 0.960 . S
C1606 H1619 0.962 . S
C1606 H1620 0.960 . S
C1607 C1604 1.511 . S
C1607 H1621 0.961 . S
C1607 H1622 0.961 . S
C1607 H1623 0.961 . S
C1608 C1609 1.370 . S
C1608 C1610 1.363 . S
C1608 H1624 0.931 . S
C1609 C1608 1.370 . S
C1609 C1613 1.408 . S
C1610 C1608 1.363 . S
C1610 C1611 1.370 . S
C1610 C1614 1.524 . S
C1611 C1603 1.503 . S
C1611 C1610 1.370 . S
C1611 C1612 1.403 . S
C1612 C1611 1.403 . S
C1612 C1613 1.404 . S
C1612 C1615 1.539 . S
C1613 C1609 1.408 . S
C1613 C1612 1.404 . S
C1613 H1625 0.930 . S
C1614 C1610 1.524 . S
C1614 H1626 0.956 . S
C1614 H1627 0.961 . S
C1614 H1628 0.961 . S
C1615 C1612 1.539 . S
C1615 H1629 0.958 . S
C1615 H1630 0.961 . S
C1615 H1631 0.960 . S
H1616 C1600 0.931 . S
H1617 C1605 0.929 . S
H1618 C1606 0.960 . S
H1619 C1606 0.962 . S
H1620 C1606 0.960 . S
H1621 C1607 0.961 . S
H1622 C1607 0.961 . S
H1623 C1607 0.961 . S
H1624 C1608 0.931 . S
H1625 C1613 0.930 . S
H1626 C1614 0.956 . S
H1627 C1614 0.961 . S
H1628 C1614 0.961 . S
H1629 C1615 0.958 . S
H1630 C1615 0.961 . S
H1631 C1615 0.960 . S
C1632 C1633 1.391 . S
C1632 C1634 1.394 . S
C1632 H1648 0.931 . S
C1633 C1632 1.391 . S
C1633 C1637 1.376 . S
C1634 C1632 1.394 . S
C1634 C1635 1.369 . S
C1634 C1638 1.531 . S
C1635 C1634 1.369 . S
C1635 C1636 1.410 . S
C1635 C1643 1.503 . S
C1636 C1635 1.410 . S
C1636 C1637 1.392 . S
C1636 C1639 1.511 . S
C1637 C1633 1.376 . S
C1637 C1636 1.392 . S
C1637 H1649 0.929 . S
C1638 C1634 1.531 . S
C1638 H1650 0.960 . S
C1638 H1651 0.962 . S
C1638 H1652 0.960 . S
C1639 C1636 1.511 . S
C1639 H1653 0.961 . S
C1639 H1654 0.961 . S
C1639 H1655 0.961 . S
C1640 C1641 1.370 . S
C1640 C1642 1.363 . S
C1640 H1656 0.931 . S
C1641 C1640 1.370 . S
C1641 C1645 1.408 . S
C1642 C1640 1.363 . S
C1642 C1643 1.370 . S
C1642 C1646 1.524 . S
C1643 C1635 1.503 . S
C1643 C1642 1.370 . S
C1643 C1644 1.403 . S
C1644 C1643 1.403 . S
C1644 C1645 1.404 . S
C1644 C1647 1.539 . S
C1645 C1641 1.408 . S
C1645 C1644 1.404 . S
C1645 H1657 0.930 . S
C1646 C1642 1.524 . S
C1646 H1658 0.956 . S
C1646 H1659 0.961 . S
C1646 H1660 0.961 . S
C1647 C1644 1.539 . S
C1647 H1661 0.958 . S
C1647 H1662 0.961 . S
C1647 H1663 0.960 . S
H1648 C1632 0.931 . S
H1649 C1637 0.929 . S
H1650 C1638 0.960 . S
H1651 C1638 0.962 . S
H1652 C1638 0.960 . S
H1653 C1639 0.961 . S
H1654 C1639 0.961 . S
H1655 C1639 0.961 . S
H1656 C1640 0.931 . S
H1657 C1645 0.930 . S
H1658 C1646 0.956 . S
H1659 C1646 0.961 . S
H1660 C1646 0.961 . S
H1661 C1647 0.958 . S
H1662 C1647 0.961 . S
H1663 C1647 0.960 . S
C1664 C1665 1.391 . S
C1664 C1666 1.394 . S
C1664 H1680 0.931 . S
C1665 C1664 1.391 . S
C1665 C1669 1.376 . S
C1666 C1664 1.394 . S
C1666 C1667 1.369 . S
C1666 C1670 1.531 . S
C1667 C1666 1.369 . S
C1667 C1668 1.410 . S
C1667 C1675 1.503 . S
C1668 C1667 1.410 . S
C1668 C1669 1.392 . S
C1668 C1671 1.511 . S
C1669 C1665 1.376 . S
C1669 C1668 1.392 . S
C1669 H1681 0.929 . S
C1670 C1666 1.531 . S
C1670 H1682 0.960 . S
C1670 H1683 0.962 . S
C1670 H1684 0.960 . S
C1671 C1668 1.511 . S
C1671 H1685 0.961 . S
C1671 H1686 0.961 . S
C1671 H1687 0.961 . S
C1672 C1673 1.370 . S
C1672 C1674 1.363 . S
C1672 H1688 0.931 . S
C1673 C1672 1.370 . S
C1673 C1677 1.408 . S
C1674 C1672 1.363 . S
C1674 C1675 1.370 . S
C1674 C1678 1.524 . S
C1675 C1667 1.503 . S
C1675 C1674 1.370 . S
C1675 C1676 1.403 . S
C1676 C1675 1.403 . S
C1676 C1677 1.404 . S
C1676 C1679 1.539 . S
C1677 C1673 1.408 . S
C1677 C1676 1.404 . S
C1677 H1689 0.930 . S
C1678 C1674 1.524 . S
C1678 H1690 0.956 . S
C1678 H1691 0.961 . S
C1678 H1692 0.961 . S
C1679 C1676 1.539 . S
C1679 H1693 0.958 . S
C1679 H1694 0.961 . S
C1679 H1695 0.960 . S
H1680 C1664 0.931 . S
H1681 C1669 0.929 . S
H1682 C1670 0.960 . S
H1683 C1670 0.962 . S
H1684 C1670 0.960 . S
H1685 C1671 0.961 . S
H1686 C1671 0.961 . S
H1687 C1671 0.961 . S
H1688 C1672 0.931 . S
H1689 C1677 0.930 . S
H1690 C1678 0.956 . S
H1691 C1678 0.961 . S
H1692 C1678 0.961 . S
H1693 C1679 0.958 . S
H1694 C1679 0.961 . S
H1695 C1679 0.960 . S
C1696 C1697 1.391 . S
C1696 C1698 1.394 . S
C1696 H1712 0.931 . S
C1697 C1696 1.391 . S
C1697 C1701 1.376 . S
C1698 C1696 1.394 . S
C1698 C1699 1.369 . S
C1698 C1702 1.531 . S
C1699 C1698 1.369 . S
C1699 C1700 1.410 . S
C1699 C1707 1.503 . S
C1700 C1699 1.410 . S
C1700 C1701 1.392 . S
C1700 C1703 1.511 . S
C1701 C1697 1.376 . S
C1701 C1700 1.392 . S
C1701 H1713 0.929 . S
C1702 C1698 1.531 . S
C1702 H1714 0.960 . S
C1702 H1715 0.962 . S
C1702 H1716 0.960 . S
C1703 C1700 1.511 . S
C1703 H1717 0.961 . S
C1703 H1718 0.961 . S
C1703 H1719 0.961 . S
C1704 C1705 1.370 . S
C1704 C1706 1.363 . S
C1704 H1720 0.931 . S
C1705 C1704 1.370 . S
C1705 C1709 1.408 . S
C1706 C1704 1.363 . S
C1706 C1707 1.370 . S
C1706 C1710 1.524 . S
C1707 C1699 1.503 . S
C1707 C1706 1.370 . S
C1707 C1708 1.403 . S
C1708 C1707 1.403 . S
C1708 C1709 1.404 . S
C1708 C1711 1.539 . S
C1709 C1705 1.408 . S
C1709 C1708 1.404 . S
C1709 H1721 0.930 . S
C1710 C1706 1.524 . S
C1710 H1722 0.956 . S
C1710 H1723 0.961 . S
C1710 H1724 0.961 . S
C1711 C1708 1.539 . S
C1711 H1725 0.958 . S
C1711 H1726 0.961 . S
C1711 H1727 0.960 . S
H1712 C1696 0.931 . S
H1713 C1701 0.929 . S
H1714 C1702 0.960 . S
H1715 C1702 0.962 . S
H1716 C1702 0.960 . S
H1717 C1703 0.961 . S
H1718 C1703 0.961 . S
H1719 C1703 0.961 . S
H1720 C1704 0.931 . S
H1721 C1709 0.930 . S
H1722 C1710 0.956 . S
H1723 C1710 0.961 . S
H1724 C1710 0.961 . S
H1725 C1711 0.958 . S
H1726 C1711 0.961 . S
H1727 C1711 0.960 . S
C1728 C1729 1.391 . S
C1728 C1730 1.394 . S
C1728 H1744 0.931 . S
C1729 C1728 1.391 . S
C1729 C1733 1.376 . S
C1730 C1728 1.394 . S
C1730 C1731 1.369 . S
C1730 C1734 1.531 . S
C1731 C1730 1.369 . S
C1731 C1732 1.410 . S
C1731 C1739 1.503 . S
C1732 C1731 1.410 . S
C1732 C1733 1.392 . S
C1732 C1735 1.511 . S
C1733 C1729 1.376 . S
C1733 C1732 1.392 . S
C1733 H1745 0.929 . S
C1734 C1730 1.531 . S
C1734 H1746 0.960 . S
C1734 H1747 0.962 . S
C1734 H1748 0.960 . S
C1735 C1732 1.511 . S
C1735 H1749 0.961 . S
C1735 H1750 0.961 . S
C1735 H1751 0.961 . S
C1736 C1737 1.370 . S
C1736 C1738 1.363 . S
C1736 H1752 0.931 . S
C1737 C1736 1.370 . S
C1737 C1741 1.408 . S
C1738 C1736 1.363 . S
C1738 C1739 1.370 . S
C1738 C1742 1.524 . S
C1739 C1731 1.503 . S
C1739 C1738 1.370 . S
C1739 C1740 1.403 . S
C1740 C1739 1.403 . S
C1740 C1741 1.404 . S
C1740 C1743 1.539 . S
C1741 C1737 1.408 . S
C1741 C1740 1.404 . S
C1741 H1753 0.930 . S
C1742 C1738 1.524 . S
C1742 H1754 0.956 . S
C1742 H1755 0.961 . S
C1742 H1756 0.961 . S
C1743 C1740 1.539 . S
C1743 H1757 0.958 . S
C1743 H1758 0.961 . S
C1743 H1759 0.960 . S
H1744 C1728 0.931 . S
H1745 C1733 0.929 . S
H1746 C1734 0.960 . S
H1747 C1734 0.962 . S
H1748 C1734 0.960 . S
H1749 C1735 0.961 . S
H1750 C1735 0.961 . S
H1751 C1735 0.961 . S
H1752 C1736 0.931 . S
H1753 C1741 0.930 . S
H1754 C1742 0.956 . S
H1755 C1742 0.961 . S
H1756 C1742 0.961 . S
H1757 C1743 0.958 . S
H1758 C1743 0.961 . S
H1759 C1743 0.960 . S
C1760 C1761 1.391 . S
C1760 C1762 1.394 . S
C1760 H1776 0.931 . S
C1761 C1760 1.391 . S
C1761 C1765 1.376 . S
C1762 C1760 1.394 . S
C1762 C1763 1.369 . S
C1762 C1766 1.531 . S
C1763 C1762 1.369 . S
C1763 C1764 1.410 . S
C1763 C1771 1.503 . S
C1764 C1763 1.410 . S
C1764 C1765 1.392 . S
C1764 C1767 1.511 . S
C1765 C1761 1.376 . S
C1765 C1764 1.392 . S
C1765 H1777 0.929 . S
C1766 C1762 1.531 . S
C1766 H1778 0.960 . S
C1766 H1779 0.962 . S
C1766 H1780 0.960 . S
C1767 C1764 1.511 . S
C1767 H1781 0.961 . S
C1767 H1782 0.961 . S
C1767 H1783 0.961 . S
C1768 C1769 1.370 . S
C1768 C1770 1.363 . S
C1768 H1784 0.931 . S
C1769 C1768 1.370 . S
C1769 C1773 1.408 . S
C1770 C1768 1.363 . S
C1770 C1771 1.370 . S
C1770 C1774 1.524 . S
C1771 C1763 1.503 . S
C1771 C1770 1.370 . S
C1771 C1772 1.403 . S
C1772 C1771 1.403 . S
C1772 C1773 1.404 . S
C1772 C1775 1.539 . S
C1773 C1769 1.408 . S
C1773 C1772 1.404 . S
C1773 H1785 0.930 . S
C1774 C1770 1.524 . S
C1774 H1786 0.956 . S
C1774 H1787 0.961 . S
C1774 H1788 0.961 . S
C1775 C1772 1.539 . S
C1775 H1789 0.958 . S
C1775 H1790 0.961 . S
C1775 H1791 0.960 . S
H1776 C1760 0.931 . S
H1777 C1765 0.929 . S
H1778 C1766 0.960 . S
H1779 C1766 0.962 . S
H1780 C1766 0.960 . S
H1781 C1767 0.961 . S
H1782 C1767 0.961 . S
H1783 C1767 0.961 . S
H1784 C1768 0.931 . S
H1785 C1773 0.930 . S
H1786 C1774 0.956 . S
H1787 C1774 0.961 . S
H1788 C1774 0.961 . S
H1789 C1775 0.958 . S
H1790 C1775 0.961 . S
H1791 C1775 0.960 . S
C1792 C1793 1.391 . S
C1792 C1794 1.394 . S
C1792 H1808 0.931 . S
C1793 C1792 1.391 . S
C1793 C1797 1.376 . S
C1794 C1792 1.394 . S
C1794 C1795 1.369 . S
C1794 C1798 1.531 . S
C1795 C1794 1.369 . S
C1795 C1796 1.410 . S
C1795 C1803 1.503 . S
C1796 C1795 1.410 . S
C1796 C1797 1.392 . S
C1796 C1799 1.511 . S
C1797 C1793 1.376 . S
C1797 C1796 1.392 . S
C1797 H1809 0.929 . S
C1798 C1794 1.531 . S
C1798 H1810 0.960 . S
C1798 H1811 0.962 . S
C1798 H1812 0.960 . S
C1799 C1796 1.511 . S
C1799 H1813 0.961 . S
C1799 H1814 0.961 . S
C1799 H1815 0.961 . S
C1800 C1801 1.370 . S
C1800 C1802 1.363 . S
C1800 H1816 0.931 . S
C1801 C1800 1.370 . S
C1801 C1805 1.408 . S
C1802 C1800 1.363 . S
C1802 C1803 1.370 . S
C1802 C1806 1.524 . S
C1803 C1795 1.503 . S
C1803 C1802 1.370 . S
C1803 C1804 1.403 . S
C1804 C1803 1.403 . S
C1804 C1805 1.404 . S
C1804 C1807 1.539 . S
C1805 C1801 1.408 . S
C1805 C1804 1.404 . S
C1805 H1817 0.930 . S
C1806 C1802 1.524 . S
C1806 H1818 0.956 . S
C1806 H1819 0.961 . S
C1806 H1820 0.961 . S
C1807 C1804 1.539 . S
C1807 H1821 0.958 . S
C1807 H1822 0.961 . S
C1807 H1823 0.960 . S
H1808 C1792 0.931 . S
H1809 C1797 0.929 . S
H1810 C1798 0.960 . S
H1811 C1798 0.962 . S
H1812 C1798 0.960 . S
H1813 C1799 0.961 . S
H1814 C1799 0.961 . S
H1815 C1799 0.961 . S
H1816 C1800 0.931 . S
H1817 C1805 0.930 . S
H1818 C1806 0.956 . S
H1819 C1806 0.961 . S
H1820 C1806 0.961 . S
H1821 C1807 0.958 . S
H1822 C1807 0.961 . S
H1823 C1807 0.960 . S
C1824 C1825 1.391 . S
C1824 C1826 1.394 . S
C1824 H1840 0.931 . S
C1825 C1824 1.391 . S
C1825 C1829 1.376 . S
C1826 C1824 1.394 . S
C1826 C1827 1.369 . S
C1826 C1830 1.531 . S
C1827 C1826 1.369 . S
C1827 C1828 1.410 . S
C1827 C1835 1.503 . S
C1828 C1827 1.410 . S
C1828 C1829 1.392 . S
C1828 C1831 1.511 . S
C1829 C1825 1.376 . S
C1829 C1828 1.392 . S
C1829 H1841 0.929 . S
C1830 C1826 1.531 . S
C1830 H1842 0.960 . S
C1830 H1843 0.962 . S
C1830 H1844 0.960 . S
C1831 C1828 1.511 . S
C1831 H1845 0.961 . S
C1831 H1846 0.961 . S
C1831 H1847 0.961 . S
C1832 C1833 1.370 . S
C1832 C1834 1.363 . S
C1832 H1848 0.931 . S
C1833 C1832 1.370 . S
C1833 C1837 1.408 . S
C1834 C1832 1.363 . S
C1834 C1835 1.370 . S
C1834 C1838 1.524 . S
C1835 C1827 1.503 . S
C1835 C1834 1.370 . S
C1835 C1836 1.403 . S
C1836 C1835 1.403 . S
C1836 C1837 1.404 . S
C1836 C1839 1.539 . S
C1837 C1833 1.408 . S
C1837 C1836 1.404 . S
C1837 H1849 0.930 . S
C1838 C1834 1.524 . S
C1838 H1850 0.956 . S
C1838 H1851 0.961 . S
C1838 H1852 0.961 . S
C1839 C1836 1.539 . S
C1839 H1853 0.958 . S
C1839 H1854 0.961 . S
C1839 H1855 0.960 . S
H1840 C1824 0.931 . S
H1841 C1829 0.929 . S
H1842 C1830 0.960 . S
H1843 C1830 0.962 . S
H1844 C1830 0.960 . S
H1845 C1831 0.961 . S
H1846 C1831 0.961 . S
H1847 C1831 0.961 . S
H1848 C1832 0.931 . S
H1849 C1837 0.930 . S
H1850 C1838 0.956 . S
H1851 C1838 0.961 . S
H1852 C1838 0.961 . S
H1853 C1839 0.958 . S
H1854 C1839 0.961 . S
H1855 C1839 0.960 . S
C1856 C1857 1.391 . S
C1856 C1858 1.394 . S
C1856 H1872 0.931 . S
C1857 C1856 1.391 . S
C1857 C1861 1.376 . S
C1858 C1856 1.394 . S
C1858 C1859 1.369 . S
C1858 C1862 1.531 . S
C1859 C1858 1.369 . S
C1859 C1860 1.410 . S
C1859 C1867 1.503 . S
C1860 C1859 1.410 . S
C1860 C1861 1.392 . S
C1860 C1863 1.511 . S
C1861 C1857 1.376 . S
C1861 C1860 1.392 . S
C1861 H1873 0.929 . S
C1862 C1858 1.531 . S
C1862 H1874 0.960 . S
C1862 H1875 0.962 . S
C1862 H1876 0.960 . S
C1863 C1860 1.511 . S
C1863 H1877 0.961 . S
C1863 H1878 0.961 . S
C1863 H1879 0.961 . S
C1864 C1865 1.370 . S
C1864 C1866 1.363 . S
C1864 H1880 0.931 . S
C1865 C1864 1.370 . S
C1865 C1869 1.408 . S
C1866 C1864 1.363 . S
C1866 C1867 1.370 . S
C1866 C1870 1.524 . S
C1867 C1859 1.503 . S
C1867 C1866 1.370 . S
C1867 C1868 1.403 . S
C1868 C1867 1.403 . S
C1868 C1869 1.404 . S
C1868 C1871 1.539 . S
C1869 C1865 1.408 . S
C1869 C1868 1.404 . S
C1869 H1881 0.930 . S
C1870 C1866 1.524 . S
C1870 H1882 0.956 . S
C1870 H1883 0.961 . S
C1870 H1884 0.961 . S
C1871 C1868 1.539 . S
C1871 H1885 0.958 . S
C1871 H1886 0.961 . S
C1871 H1887 0.960 . S
H1872 C1856 0.931 . S
H1873 C1861 0.929 . S
H1874 C1862 0.960 . S
H1875 C1862 0.962 . S
H1876 C1862 0.960 . S
H1877 C1863 0.961 . S
H1878 C1863 0.961 . S
H1879 C1863 0.961 . S
H1880 C1864 0.931 . S
H1881 C1869 0.930 . S
H1882 C1870 0.956 . S
H1883 C1870 0.961 . S
H1884 C1870 0.961 . S
H1885 C1871 0.958 . S
H1886 C1871 0.961 . S
H1887 C1871 0.960 . S
C353 C49 1.318 . S
C361 C5 1.246 . S
C385 C60 1.187 . S
C393 C16 1.273 . S
C417 C27 1.314 . S
C425 C71 1.253 . S
C449 C38 1.254 . S
C457 C82 1.279 . S
C481 C137 1.404 . S
C489 C93 1.468 . S
C513 C148 1.478 . S
C521 C104 1.452 . S
C545 C115 1.493 . S
C553 C159 1.439 . S
C577 C170 1.438 . S
C585 C126 1.467 . S
C609 C181 1.181 . S
C617 C225 1.260 . S
C641 C236 1.318 . S
C649 C192 1.246 . S
C673 C203 1.305 . S
C681 C247 1.228 . S
C705 C258 1.218 . S
C713 C214 1.281 . S
C737 C269 1.457 . S
C745 C313 1.461 . S
C769 C324 1.404 . S
C777 C280 1.464 . S
C801 C291 1.404 . S
C809 C335 1.463 . S
C833 C346 1.403 . S
C841 C302 1.465 . S
C865 C139 1.505 . S
C873 C7 1.471 . S
C897 C18 1.508 . S
C905 C326 1.527 . S
C929 C161 1.520 . S
C937 C29 1.494 . S
C961 C40 1.460 . S
C969 C348 1.530 . S
C993 C95 1.508 . S
C1001 C51 1.469 . S
C1025 C282 1.532 . S
C1033 C62 1.471 . S
C1057 C73 1.444 . S
C1065 C117 1.523 . S
C1089 C304 1.526 . S
C1097 C84 1.468 . S
C1121 C106 1.531 . S
C1129 C238 1.471 . S
C1153 C128 1.525 . S
C1161 C260 1.468 . S
C1185 C150 1.516 . S
C1193 C194 1.467 . S
C1217 C216 1.507 . S
C1225 C172 1.528 . S
C1249 C315 1.509 . S
C1257 C183 1.469 . S
C1281 C337 1.532 . S
C1289 C205 1.471 . S
C1313 C227 1.450 . S
C1321 C271 1.528 . S
C1345 C293 1.503 . S
C1353 C249 1.473 . S
C1377 C261 1.559 . S
C1385 C8 1.524 . S
C1409 C19 1.509 . S
C1417 C228 1.546 . S
C1441 C30 1.537 . S
C1449 C239 1.536 . S
C1473 C250 1.538 . S
C1481 C41 1.535 . S
C1505 C52 1.512 . S
C1513 C195 1.541 . S
C1537 C63 1.558 . S
C1545 C206 1.523 . S
C1569 C217 1.557 . S
C1577 C74 1.524 . S
C1601 C184 1.519 . S
C1609 C85 1.543 . S
C1633 C349 1.570 . S
C1641 C96 1.578 . S
C1665 C107 1.584 . S
C1673 C316 1.580 . S
C1697 C327 1.570 . S
C1705 C118 1.577 . S
C1729 C338 1.579 . S
C1737 C129 1.578 . S
C1761 C140 1.575 . S
C1769 C283 1.583 . S
C1793 C294 1.568 . S
C1801 C151 1.580 . S
C1825 C305 1.580 . S
C1833 C162 1.584 . S
C1857 C173 1.583 . S
C1865 C272 1.583 . S
