# Generated by pormake.
# Topology whh, (6)-cn, num edge types: 1
# Building blocks:
#     Node 0, Type 0, BuildingBlock: KUMBOL_clean_sbu_1, # of connection points: 6
#     Node 1, Type 0, BuildingBlock: KUMBOL_clean_sbu_1, # of connection points: 6
#     Node 2, Type 0, BuildingBlock: KUMBOL_clean_sbu_1, # of connection points: 6
#     Node 3, Type 0, BuildingBlock: KUMBOL_clean_sbu_1, # of connection points: 6
#     Node 4, Type 0, BuildingBlock: KUMBOL_clean_sbu_1, # of connection points: 6
#     Node 5, Type 0, BuildingBlock: KUMBOL_clean_sbu_1, # of connection points: 6
#     Node 6, Type 0, BuildingBlock: KUMBOL_clean_sbu_1, # of connection points: 6
#     Node 7, Type 0, BuildingBlock: KUMBOL_clean_sbu_1, # of connection points: 6
#     Node 8, Type 0, BuildingBlock: KUMBOL_clean_sbu_1, # of connection points: 6
#     Node 9, Type 0, BuildingBlock: KUMBOL_clean_sbu_1, # of connection points: 6
#     Node 10, Type 0, BuildingBlock: KUMBOL_clean_sbu_1, # of connection points: 6
#     Node 11, Type 0, BuildingBlock: KUMBOL_clean_sbu_1, # of connection points: 6
#     Node 12, Type 0, BuildingBlock: KUMBOL_clean_sbu_1, # of connection points: 6
#     Node 13, Type 0, BuildingBlock: KUMBOL_clean_sbu_1, # of connection points: 6
#     Node 14, Type 0, BuildingBlock: KUMBOL_clean_sbu_1, # of connection points: 6
#     Node 15, Type 0, BuildingBlock: KUMBOL_clean_sbu_1, # of connection points: 6
#     Edge 16, Type (0, 0), BuildingBlock: XIVTED_clean_linker_0, # of connection points: 2
#     Edge 17, Type (0, 0), BuildingBlock: XIVTED_clean_linker_0, # of connection points: 2
#     Edge 18, Type (0, 0), BuildingBlock: XIVTED_clean_linker_0, # of connection points: 2
#     Edge 19, Type (0, 0), BuildingBlock: XIVTED_clean_linker_0, # of connection points: 2
#     Edge 20, Type (0, 0), BuildingBlock: XIVTED_clean_linker_0, # of connection points: 2
#     Edge 21, Type (0, 0), BuildingBlock: XIVTED_clean_linker_0, # of connection points: 2
#     Edge 22, Type (0, 0), BuildingBlock: XIVTED_clean_linker_0, # of connection points: 2
#     Edge 23, Type (0, 0), BuildingBlock: XIVTED_clean_linker_0, # of connection points: 2
#     Edge 24, Type (0, 0), BuildingBlock: XIVTED_clean_linker_0, # of connection points: 2
#     Edge 25, Type (0, 0), BuildingBlock: XIVTED_clean_linker_0, # of connection points: 2
#     Edge 26, Type (0, 0), BuildingBlock: XIVTED_clean_linker_0, # of connection points: 2
#     Edge 27, Type (0, 0), BuildingBlock: XIVTED_clean_linker_0, # of connection points: 2
#     Edge 28, Type (0, 0), BuildingBlock: XIVTED_clean_linker_0, # of connection points: 2
#     Edge 29, Type (0, 0), BuildingBlock: XIVTED_clean_linker_0, # of connection points: 2
#     Edge 30, Type (0, 0), BuildingBlock: XIVTED_clean_linker_0, # of connection points: 2
#     Edge 31, Type (0, 0), BuildingBlock: XIVTED_clean_linker_0, # of connection points: 2
#     Edge 32, Type (0, 0), BuildingBlock: XIVTED_clean_linker_0, # of connection points: 2
#     Edge 33, Type (0, 0), BuildingBlock: XIVTED_clean_linker_0, # of connection points: 2
#     Edge 34, Type (0, 0), BuildingBlock: XIVTED_clean_linker_0, # of connection points: 2
#     Edge 35, Type (0, 0), BuildingBlock: XIVTED_clean_linker_0, # of connection points: 2
#     Edge 36, Type (0, 0), BuildingBlock: XIVTED_clean_linker_0, # of connection points: 2
#     Edge 37, Type (0, 0), BuildingBlock: XIVTED_clean_linker_0, # of connection points: 2
#     Edge 38, Type (0, 0), BuildingBlock: XIVTED_clean_linker_0, # of connection points: 2
#     Edge 39, Type (0, 0), BuildingBlock: XIVTED_clean_linker_0, # of connection points: 2
#     Edge 40, Type (0, 0), BuildingBlock: XIVTED_clean_linker_0, # of connection points: 2
#     Edge 41, Type (0, 0), BuildingBlock: XIVTED_clean_linker_0, # of connection points: 2
#     Edge 42, Type (0, 0), BuildingBlock: XIVTED_clean_linker_0, # of connection points: 2
#     Edge 43, Type (0, 0), BuildingBlock: XIVTED_clean_linker_0, # of connection points: 2
#     Edge 44, Type (0, 0), BuildingBlock: XIVTED_clean_linker_0, # of connection points: 2
#     Edge 45, Type (0, 0), BuildingBlock: XIVTED_clean_linker_0, # of connection points: 2
#     Edge 46, Type (0, 0), BuildingBlock: XIVTED_clean_linker_0, # of connection points: 2
#     Edge 47, Type (0, 0), BuildingBlock: XIVTED_clean_linker_0, # of connection points: 2
#     Edge 48, Type (0, 0), BuildingBlock: XIVTED_clean_linker_0, # of connection points: 2
#     Edge 49, Type (0, 0), BuildingBlock: XIVTED_clean_linker_0, # of connection points: 2
#     Edge 50, Type (0, 0), BuildingBlock: XIVTED_clean_linker_0, # of connection points: 2
#     Edge 51, Type (0, 0), BuildingBlock: XIVTED_clean_linker_0, # of connection points: 2
#     Edge 52, Type (0, 0), BuildingBlock: XIVTED_clean_linker_0, # of connection points: 2
#     Edge 53, Type (0, 0), BuildingBlock: XIVTED_clean_linker_0, # of connection points: 2
#     Edge 54, Type (0, 0), BuildingBlock: XIVTED_clean_linker_0, # of connection points: 2
#     Edge 55, Type (0, 0), BuildingBlock: XIVTED_clean_linker_0, # of connection points: 2
#     Edge 56, Type (0, 0), BuildingBlock: XIVTED_clean_linker_0, # of connection points: 2
#     Edge 57, Type (0, 0), BuildingBlock: XIVTED_clean_linker_0, # of connection points: 2
#     Edge 58, Type (0, 0), BuildingBlock: XIVTED_clean_linker_0, # of connection points: 2
#     Edge 59, Type (0, 0), BuildingBlock: XIVTED_clean_linker_0, # of connection points: 2
#     Edge 60, Type (0, 0), BuildingBlock: XIVTED_clean_linker_0, # of connection points: 2
#     Edge 61, Type (0, 0), BuildingBlock: XIVTED_clean_linker_0, # of connection points: 2
#     Edge 62, Type (0, 0), BuildingBlock: XIVTED_clean_linker_0, # of connection points: 2
#     Edge 63, Type (0, 0), BuildingBlock: XIVTED_clean_linker_0, # of connection points: 2
# Relax obj value: 0.300
# Max RMSD: 0.307
# Mean RMSD: 0.306
data_MOF--net-whh--node1-KUMBOL_clean_sbu_1--edge1-XIVTED_clean_linker_0
_symmetry_space_group_name_H-M    P1
_symmetry_Int_Tables_number       1
_symmetry_cell_setting            triclinic
loop_
_symmetry_equiv_pos_as_xyz
'x, y, z'
_cell_length_a     45.976697
_cell_length_b     45.782673
_cell_length_c     39.812161
_cell_angle_alpha  90.277284
_cell_angle_beta   89.983201
_cell_angle_gamma 90.084723
loop_
_atom_site_label
_atom_site_type_symbol
_atom_site_fract_x
_atom_site_fract_y
_atom_site_fract_z
_atom_type_partial_charge
C0 C 0.93753 0.68427 0.12045 0.0
C1 C 0.92511 0.68483 0.06124 0.0
C2 C 0.93924 0.67174 0.08874 0.0
C3 C 0.9101 0.71123 0.06592 0.0
C4 C 0.92164 0.71024 0.12549 0.0
C5 C 0.90842 0.72393 0.09796 0.0
N6 N 0.95037 0.67044 0.14657 0.0
C7 C 0.94647 0.68027 0.17874 0.0
C8 C 0.9189 0.7213 0.15819 0.0
C9 C 0.93102 0.706 0.18499 0.0
Gd10 Gd 0.06349 0.61623 0.12357 0.0
Gd11 Gd 0.97584 0.62751 0.1333 0.0
N12 N 0.95441 0.64655 0.08483 0.0
C13 C 0.92642 0.67091 0.02988 0.0
C14 C 0.95443 0.63203 0.05479 0.0
C15 C 0.94088 0.64422 0.02674 0.0
H16 H 0.96511 0.61119 0.05238 0.0
H17 H 0.94147 0.63296 0.00278 0.0
H18 H 0.07271 0.63109 0.20745 0.0
H19 H 0.95536 0.66827 0.1997 0.0
H20 H 0.09583 0.60829 0.25598 0.0
H21 H 0.91593 0.68031 0.00811 0.0
H22 H 0.89941 0.7218 0.04502 0.0
H23 H 0.07227 0.56928 0.06041 0.0
H24 H 0.90686 0.74119 0.1631 0.0
H25 H 0.9284 0.71394 0.21046 0.0
H26 H 0.13347 0.51801 0.21326 0.0
H27 H 0.89636 0.74405 0.1013 0.0
H28 H 0.118 0.49492 0.09728 0.0
H29 H 0.09451 0.52112 0.0504 0.0
N30 N 0.07989 0.56886 0.11298 0.0
C31 C 0.09373 0.55552 0.13887 0.0
C32 C 0.08071 0.55722 0.0814 0.0
C33 C 0.10736 0.51564 0.10201 0.0
C34 C 0.09399 0.53026 0.07552 0.0
C35 C 0.10761 0.52833 0.13408 0.0
H36 H 0.13279 0.49422 0.15782 0.0
N37 N 0.08229 0.59631 0.17366 0.0
C38 C 0.09477 0.56945 0.17006 0.0
C39 C 0.1091 0.57 0.2285 0.0
C40 C 0.10882 0.55581 0.19732 0.0
C41 C 0.08262 0.61017 0.2041 0.0
C42 C 0.09579 0.59719 0.23192 0.0
O43 O 1.00117 0.65152 0.09285 0.0
O44 O 0.04673 0.66143 0.11329 0.0
O45 O 0.10918 0.62526 0.12926 0.0
O46 O 0.09021 0.62277 0.07905 0.0
O47 O 0.99246 0.58796 0.10554 0.0
O48 O 0.03397 0.60447 0.07956 0.0
O49 O 0.03576 0.58096 0.14546 0.0
O50 O 0.00409 0.60984 0.17435 0.0
O51 O 0.94731 0.58905 0.12474 0.0
O52 O 0.93807 0.62096 0.16427 0.0
O53 O 0.05208 0.65365 0.16033 0.0
O54 O 0.00173 0.65363 0.17208 0.0
C55 C 0.02244 0.67007 0.09906 0.0
C56 C 0.01184 0.58617 0.08139 0.0
C57 C 0.13745 0.64417 0.08441 0.0
C58 C 0.17698 0.67813 0.094 0.0
C59 C 0.17419 0.6514 0.04147 0.0
C60 C 0.1489 0.6377 0.05255 0.0
C61 C 0.1883 0.67146 0.06219 0.0
C62 C 0.15144 0.66473 0.10514 0.0
C63 C 0.11377 0.62593 0.09698 0.0
C64 C 0.12235 0.52861 0.19265 0.0
C65 C 0.12189 0.515 0.1611 0.0
H66 H 0.11956 0.56018 0.25005 0.0
C67 C 0.01904 0.58571 0.17131 0.0
C68 C 0.02867 0.66343 0.17677 0.0
C69 C 0.90488 0.58048 0.16155 0.0
C70 C 0.86142 0.55034 0.15302 0.0
C71 C 0.87575 0.56543 0.20935 0.0
C72 C 0.8996 0.58031 0.1963 0.0
C73 C 0.85684 0.55056 0.18797 0.0
C74 C 0.88563 0.56548 0.13978 0.0
C75 C 0.92988 0.5974 0.1487 0.0
H76 H 0.18314 0.6461 0.01706 0.0
H77 H 0.13875 0.62135 0.03662 0.0
H78 H 0.20815 0.68176 0.0535 0.0
H79 H 0.14313 0.66965 0.13003 0.0
H80 H 0.87175 0.56563 0.23615 0.0
H81 H 0.91394 0.59181 0.21348 0.0
H82 H 0.83813 0.53968 0.1988 0.0
H83 H 0.88929 0.56578 0.11289 0.0
C84 C 0.82971 0.92985 0.12023 0.0
C85 C 0.82497 0.92005 0.06065 0.0
C86 C 0.83821 0.93511 0.08755 0.0
C87 C 0.80195 0.90066 0.06719 0.0
C88 C 0.80693 0.91017 0.12709 0.0
C89 C 0.79283 0.89587 0.10034 0.0
N90 N 0.84355 0.94432 0.14537 0.0
C91 C 0.83694 0.93897 0.17812 0.0
C92 C 0.79909 0.90548 0.16063 0.0
C93 C 0.81437 0.91974 0.18628 0.0
Gd94 Gd 0.885 0.07045 0.12227 0.0
Gd95 Gd 0.87861 0.97867 0.12956 0.0
N96 N 0.85998 0.9545 0.08215 0.0
C97 C 0.83554 0.92466 0.02811 0.0
C98 C 0.8712 0.95825 0.05072 0.0
C99 C 0.85903 0.94358 0.0232 0.0
H100 H 0.8893 0.97282 0.04684 0.0
H101 H 0.86774 0.9469 0.99824 0.0
H102 H 0.87223 0.07708 0.20668 0.0
H103 H 0.84877 0.95001 0.19794 0.0
H104 H 0.89557 0.10077 0.25513 0.0
H105 H 0.82607 0.91339 0.00675 0.0
H106 H 0.79125 0.88911 0.04683 0.0
H107 H 0.93001 0.08112 0.05753 0.0
H108 H 0.78154 0.89069 0.16699 0.0
H109 H 0.80871 0.91602 0.2123 0.0
H110 H 0.98227 0.14381 0.21027 0.0
H111 H 0.77511 0.8808 0.10505 0.0
H112 H 0.00309 0.13001 0.09341 0.0
H113 H 0.97705 0.10532 0.04689 0.0
N114 N 0.93076 0.08969 0.11005 0.0
C115 C 0.94407 0.10405 0.13585 0.0
C116 C 0.94182 0.09066 0.0783 0.0
C117 C 0.98274 0.11886 0.09839 0.0
C118 C 0.9682 0.10483 0.07208 0.0
C119 C 0.97064 0.1188 0.13069 0.0
H120 H 0.00452 0.14473 0.15415 0.0
N121 N 0.90549 0.08919 0.17211 0.0
C122 C 0.9312 0.10373 0.16769 0.0
C123 C 0.932 0.1167 0.2266 0.0
C124 C 0.94505 0.11788 0.19489 0.0
C125 C 0.89267 0.08808 0.20301 0.0
C126 C 0.90581 0.10168 0.23067 0.0
O127 O 0.852 0.00448 0.09182 0.0
O128 O 0.84101 0.05061 0.11165 0.0
O129 O 0.87242 0.11484 0.13187 0.0
O130 O 0.87577 0.09932 0.08009 0.0
O131 O 0.91503 0.99738 0.09844 0.0
O132 O 0.89731 0.04113 0.07778 0.0
O133 O 0.92406 0.04742 0.14253 0.0
O134 O 0.89182 0.0162 0.16021 0.0
O135 O 0.91491 0.94906 0.11891 0.0
O136 O 0.9005 0.95627 0.16991 0.0
O137 O 0.84932 0.0542 0.15999 0.0
O138 O 0.84893 1.00252 0.16752 0.0
C139 C 0.83294 0.0252 0.09911 0.0
C140 C 0.91695 0.02002 0.07841 0.0
C141 C 0.85078 0.14455 0.09023 0.0
C142 C 0.81536 0.18172 0.10476 0.0
C143 C 0.84009 0.18343 0.05096 0.0
C144 C 0.85542 0.15826 0.05923 0.0
C145 C 0.82021 0.19521 0.07366 0.0
C146 C 0.83046 0.15628 0.11304 0.0
C147 C 0.87088 0.12142 0.10015 0.0
C148 C 0.97146 0.13268 0.18968 0.0
C149 C 0.98417 0.13318 0.15771 0.0
H150 H 0.94198 0.12732 0.24809 0.0
C151 C 0.9185 0.02475 0.16034 0.0
C152 C 0.83919 0.02957 0.17441 0.0
C153 C 0.92225 0.91006 0.15823 0.0
C154 C 0.9474 0.86344 0.14896 0.0
C155 C 0.9164 0.87007 0.19777 0.0
C156 C 0.91006 0.89845 0.18777 0.0
C157 C 0.93501 0.85275 0.17868 0.0
C158 C 0.94094 0.8922 0.1386 0.0
C159 C 0.91774 0.94146 0.15023 0.0
H160 H 0.84408 0.19418 0.02724 0.0
H161 H 0.87166 0.15003 0.04187 0.0
H162 H 0.80882 0.21511 0.06717 0.0
H163 H 0.82711 0.14638 0.13743 0.0
H164 H 0.90705 0.86153 0.22067 0.0
H165 H 0.89599 0.91145 0.2037 0.0
H166 H 0.93969 0.83076 0.18706 0.0
H167 H 0.9509 0.90078 0.11602 0.0
C168 C 0.40711 0.94324 0.08168 0.0
C169 C 0.39864 0.92537 0.02476 0.0
C170 C 0.40825 0.92066 0.05795 0.0
C171 C 0.38735 0.95267 0.01573 0.0
C172 C 0.39508 0.97051 0.07258 0.0
C173 C 0.38541 0.97509 0.0396 0.0
N174 N 0.41664 0.93832 0.11367 0.0
C175 C 0.41254 0.9594 0.13791 0.0
C176 C 0.39224 0.99226 0.09708 0.0
C177 C 0.40075 0.98656 0.12989 0.0
Gd178 Gd 0.52303 0.88175 0.12974 0.0
Gd179 Gd 0.42997 0.88905 0.12399 0.0
N180 N 0.41907 0.89419 0.06715 0.0
C181 C 0.4005 0.90236 0.00156 0.0
C182 C 0.42019 0.87143 0.04496 0.0
C183 C 0.41131 0.8753 0.01171 0.0
H184 H 0.42786 0.85031 0.05301 0.0
H185 H 0.41249 0.85734 0.994 0.0
H186 H 0.54081 0.92193 0.19697 0.0
H187 H 0.41668 0.95558 0.1641 0.0
H188 H 0.57525 0.9196 0.24315 0.0
H189 H 0.39341 0.9052 0.97583 0.0
H190 H 0.37974 0.9566 0.9904 0.0
H191 H 0.54234 0.82554 0.08055 0.0
H192 H 0.38274 0.01326 0.09113 0.0
H193 H 0.39753 1.00286 0.14932 0.0
H194 H 0.61036 0.82089 0.23981 0.0
H195 H 0.37612 0.99587 0.03234 0.0
H196 H 0.59073 0.7654 0.14029 0.0
H197 H 0.56709 0.77794 0.08648 0.0
N198 N 0.54706 0.83695 0.13186 0.0
C199 C 0.56187 0.83173 0.16079 0.0
C200 C 0.55038 0.81902 0.10478 0.0
C201 C 0.57865 0.78561 0.13821 0.0
C202 C 0.56525 0.79255 0.10783 0.0
C203 C 0.57808 0.80581 0.16471 0.0
H204 H 0.60695 0.78177 0.1975 0.0
N205 N 0.54763 0.87854 0.18083 0.0
C206 C 0.56288 0.85342 0.18547 0.0
C207 C 0.58542 0.87411 0.23499 0.0
C208 C 0.58129 0.85015 0.21355 0.0
C209 C 0.55118 0.90163 0.20202 0.0
C210 C 0.57083 0.90019 0.22854 0.0
O211 O 0.46133 0.90484 0.08201 0.0
O212 O 0.50229 0.92242 0.1083 0.0
O213 O 0.55769 0.91457 0.13326 0.0
O214 O 0.5535 0.88538 0.08892 0.0
O215 O 0.45132 0.84564 0.11313 0.0
O216 O 0.4979 0.85416 0.09133 0.0
O217 O 0.50047 0.85471 0.17015 0.0
O218 O 0.44898 0.85606 0.16348 0.0
O219 O 0.39236 0.86055 0.11574 0.0
O220 O 0.38862 0.89961 0.14592 0.0
O221 O 0.48232 0.90163 0.14574 0.0
O222 O 0.44324 0.91462 0.16937 0.0
C223 C 0.48283 0.92404 0.08418 0.0
C224 C 0.47558 0.83667 0.0984 0.0
C225 C 0.59457 0.91916 0.0887 0.0
C226 C 0.63636 0.95248 0.08882 0.0
C227 C 0.62905 0.91864 0.04241 0.0
C228 C 0.60404 0.90793 0.05766 0.0
C229 C 0.645 0.94078 0.05773 0.0
C230 C 0.61113 0.94142 0.10465 0.0
C231 C 0.56844 0.90595 0.10438 0.0
C232 C 0.59641 0.82386 0.21816 0.0
C233 C 0.5945 0.8016 0.19403 0.0
H234 H 0.60046 0.873 0.25589 0.0
C235 C 0.47356 0.84586 0.17775 0.0
C236 C 0.4708 0.9181 0.16878 0.0
C237 C 0.35527 0.86213 0.1578 0.0
C238 C 0.31839 0.82527 0.16749 0.0
C239 C 0.32628 0.86323 0.20897 0.0
C240 C 0.34804 0.87519 0.18885 0.0
C241 C 0.3115 0.8383 0.19837 0.0
C242 C 0.34016 0.83715 0.14717 0.0
C243 C 0.3755 0.87655 0.13455 0.0
H244 H 0.63628 0.90954 0.01871 0.0
H245 H 0.59229 0.89048 0.04515 0.0
H246 H 0.6647 0.94835 0.04557 0.0
H247 H 0.60467 0.94985 0.12902 0.0
H248 H 0.32045 0.87365 0.23248 0.0
H249 H 0.35861 0.89505 0.19731 0.0
H250 H 0.29407 0.82965 0.21375 0.0
H251 H 0.34462 0.82751 0.12275 0.0
C252 C 0.67633 0.57022 0.12338 0.0
C253 C 0.67952 0.58322 0.06461 0.0
C254 C 0.6655 0.56855 0.0911 0.0
C255 C 0.70562 0.59827 0.07094 0.0
C256 C 0.70177 0.58636 0.13025 0.0
C257 C 0.71681 0.59971 0.10369 0.0
N258 N 0.66113 0.55723 0.14832 0.0
C259 C 0.66854 0.56175 0.1811 0.0
C260 C 0.71082 0.58919 0.16369 0.0
C261 C 0.69379 0.5773 0.1893 0.0
Gd262 Gd 0.61512 0.43869 0.12268 0.0
Gd263 Gd 0.62153 0.52813 0.13195 0.0
N264 N 0.64087 0.55294 0.08573 0.0
C265 C 0.66682 0.58225 0.03264 0.0
C266 C 0.62756 0.55306 0.0551 0.0
C267 C 0.64049 0.56743 0.02799 0.0
H268 H 0.60724 0.54162 0.05156 0.0
H269 H 0.63021 0.56701 0.00354 0.0
H270 H 0.6267 0.43331 0.20702 0.0
H271 H 0.65497 0.55318 0.20091 0.0
H272 H 0.60258 0.41083 0.25549 0.0
H273 H 0.67691 0.5932 0.01157 0.0
H274 H 0.71708 0.60921 0.0508 0.0
H275 H 0.57064 0.42728 0.05717 0.0
H276 H 0.73033 0.60131 0.17006 0.0
H277 H 0.70001 0.58019 0.21532 0.0
H278 H 0.51642 0.36705 0.20971 0.0
H279 H 0.73668 0.61183 0.10835 0.0
H280 H 0.49731 0.37868 0.09233 0.0
H281 H 0.52384 0.40277 0.04604 0.0
N282 N 0.56953 0.41915 0.10972 0.0
C283 C 0.55577 0.40537 0.13545 0.0
C284 C 0.5587 0.41792 0.07785 0.0
C285 C 0.51757 0.38994 0.09753 0.0
C286 C 0.53242 0.40361 0.07134 0.0
C287 C 0.52924 0.39056 0.13001 0.0
H288 H 0.495 0.36508 0.15319 0.0
N289 N 0.59389 0.42052 0.17209 0.0
C290 C 0.5682 0.40611 0.16745 0.0
C291 C 0.5665 0.39439 0.22656 0.0
C292 C 0.55391 0.39258 0.19462 0.0
C293 C 0.60631 0.42221 0.20319 0.0
C294 C 0.59271 0.40936 0.23086 0.0
O295 O 0.64768 0.50538 0.0911 0.0
O296 O 0.65802 0.45945 0.11075 0.0
O297 O 0.63303 0.39629 0.13452 0.0
O298 O 0.62269 0.4075 0.08208 0.0
O299 O 0.58475 0.50686 0.10321 0.0
O300 O 0.60417 0.4664 0.07715 0.0
O301 O 0.5778 0.46345 0.14549 0.0
O302 O 0.60765 0.49581 0.17001 0.0
O303 O 0.58448 0.55616 0.11963 0.0
O304 O 0.60384 0.5582 0.1688 0.0
O305 O 0.65112 0.45332 0.15936 0.0
O306 O 0.65065 0.50411 0.1698 0.0
C307 C 0.66616 0.48399 0.09662 0.0
C308 C 0.58584 0.48852 0.07782 0.0
C309 C 0.64193 0.35904 0.09273 0.0
C310 C 0.6735 0.31731 0.10065 0.0
C311 C 0.63722 0.31667 0.0564 0.0
C312 C 0.62836 0.34468 0.06576 0.0
C313 C 0.65984 0.30308 0.07361 0.0
C314 C 0.66436 0.34518 0.11042 0.0
C315 C 0.63194 0.38793 0.10326 0.0
C316 C 0.52755 0.37776 0.18916 0.0
C317 C 0.51531 0.37668 0.15697 0.0
H318 H 0.55615 0.38432 0.24805 0.0
C319 C 0.58229 0.48356 0.16807 0.0
C320 C 0.66085 0.47724 0.17506 0.0
C321 C 0.58293 0.60212 0.14822 0.0
C322 C 0.55689 0.64721 0.13449 0.0
C323 C 0.60138 0.64921 0.16719 0.0
C324 C 0.60392 0.61895 0.16529 0.0
C325 C 0.57798 0.66322 0.15216 0.0
C326 C 0.55924 0.61648 0.13259 0.0
C327 C 0.58504 0.56974 0.14838 0.0
H328 H 0.62659 0.30551 0.03575 0.0
H329 H 0.61065 0.35494 0.0523 0.0
H330 H 0.66671 0.28142 0.0659 0.0
H331 H 0.67501 0.35617 0.13127 0.0
H332 H 0.61752 0.66187 0.18067 0.0
H333 H 0.62225 0.60877 0.17761 0.0
H334 H 0.57643 0.6868 0.15406 0.0
H335 H 0.54284 0.60394 0.1193 0.0
C336 C 0.93812 0.82348 0.37708 0.0
C337 C 0.92705 0.82079 0.4365 0.0
C338 C 0.94073 0.83471 0.40925 0.0
C339 C 0.91179 0.7946 0.43101 0.0
C340 C 0.92228 0.79759 0.37124 0.0
C341 C 0.90947 0.78298 0.39846 0.0
N342 N 0.95059 0.83821 0.35136 0.0
C343 C 0.94709 0.82903 0.31895 0.0
C344 C 0.91954 0.78737 0.33817 0.0
C345 C 0.93184 0.80329 0.31188 0.0
Gd346 Gd 0.06725 0.89049 0.37627 0.0
Gd347 Gd 0.97733 0.87997 0.36569 0.0
N348 N 0.9558 0.8599 0.41369 0.0
C349 C 0.92855 0.83399 0.46826 0.0
C350 C 0.95602 0.87374 0.44417 0.0
C351 C 0.94278 0.8608 0.47201 0.0
H352 H 0.96674 0.89458 0.4471 0.0
H353 H 0.94347 0.87155 0.49627 0.0
H354 H 0.07761 0.8741 0.29268 0.0
H355 H 0.95612 0.84157 0.29854 0.0
H356 H 0.10201 0.89614 0.24442 0.0
H357 H 0.91823 0.82404 0.48984 0.0
H358 H 0.90131 0.78341 0.45167 0.0
H359 H 0.07405 0.93889 0.43845 0.0
H360 H 0.90764 0.76748 0.33264 0.0
H361 H 0.92947 0.79583 0.28619 0.0
H362 H 0.14149 0.98585 0.28691 0.0
H363 H 0.89735 0.76295 0.39454 0.0
H364 H 0.12317 0.01138 0.40174 0.0
H365 H 0.0971 0.98687 0.44811 0.0
N366 N 0.08436 0.93768 0.38648 0.0
C367 C 0.09947 0.95015 0.36088 0.0
C368 C 0.08395 0.95014 0.41764 0.0
C369 C 0.1124 0.99068 0.39715 0.0
C370 C 0.09756 0.97701 0.42335 0.0
C371 C 0.11366 0.97722 0.36551 0.0
H372 H 0.14006 0.01051 0.34184 0.0
N373 N 0.08708 0.90938 0.32616 0.0
C374 C 0.10064 0.9358 0.32985 0.0
C375 C 0.11588 0.93434 0.27176 0.0
C376 C 0.11556 0.9488 0.30277 0.0
C377 C 0.08757 0.89515 0.29593 0.0
C378 C 0.10172 0.90752 0.26831 0.0
O379 O 0.00284 0.85643 0.40581 0.0
O380 O 0.04801 0.84521 0.38512 0.0
O381 O 0.11262 0.88001 0.37175 0.0
O382 O 0.09311 0.88406 0.42146 0.0
O383 O 0.99364 0.91825 0.39603 0.0
O384 O 0.0365 0.90138 0.41931 0.0
O385 O 0.04339 0.92894 0.35465 0.0
O386 O 0.01354 0.8958 0.33501 0.0
O387 O 0.94975 0.91819 0.37525 0.0
O388 O 0.94347 0.89169 0.32993 0.0
O389 O 0.05427 0.85309 0.33957 0.0
O390 O 0.0046 0.85733 0.32401 0.0
C391 C 0.0233 0.83721 0.39934 0.0
C392 C 0.01502 0.9204 0.41784 0.0
C393 C 0.13886 0.8599 0.41718 0.0
C394 C 0.17596 0.82337 0.40816 0.0
C395 C 0.1741 0.84981 0.46093 0.0
C396 C 0.15014 0.8654 0.44935 0.0
C397 C 0.18704 0.82887 0.44039 0.0
C398 C 0.1518 0.83867 0.39653 0.0
C399 C 0.11677 0.87966 0.4041 0.0
C400 C 0.12974 0.97573 0.3074 0.0
C401 C 0.12889 0.98982 0.33868 0.0
H402 H 0.12705 0.94365 0.25035 0.0
C403 C 0.02129 0.92276 0.33598 0.0
C404 C 0.0312 0.84549 0.3208 0.0
C405 C 0.91085 0.93304 0.33707 0.0
C406 C 0.86662 0.96111 0.34848 0.0
C407 C 0.88652 0.95887 0.29197 0.0
C408 C 0.9088 0.94069 0.30307 0.0
C409 C 0.86561 0.96909 0.31449 0.0
C410 C 0.88955 0.94325 0.35989 0.0
C411 C 0.93481 0.9138 0.34796 0.0
H412 H 0.18301 0.85438 0.48556 0.0
H413 H 0.14094 0.88239 0.46513 0.0
H414 H 0.20605 0.81729 0.44933 0.0
H415 H 0.14383 0.83465 0.37128 0.0
H416 H 0.8851 0.96458 0.26568 0.0
H417 H 0.92442 0.93253 0.28502 0.0
H418 H 0.84792 0.9824 0.30513 0.0
H419 H 0.89027 0.93661 0.38597 0.0
C420 C 0.67663 0.93545 0.37707 0.0
C421 C 0.68338 0.92732 0.43657 0.0
C422 C 0.66814 0.94027 0.40986 0.0
C423 C 0.70854 0.91094 0.42971 0.0
C424 C 0.70136 0.91843 0.36983 0.0
C425 C 0.71763 0.90667 0.39639 0.0
N426 N 0.66047 0.94727 0.35219 0.0
C427 C 0.66674 0.94167 0.31933 0.0
C428 C 0.70883 0.91371 0.33613 0.0
C429 C 0.69123 0.92512 0.31076 0.0
Gd430 Gd 0.61587 0.06872 0.37654 0.0
Gd431 Gd 0.62268 0.97848 0.3685 0.0
N432 N 0.64419 0.95674 0.41552 0.0
C433 C 0.67246 0.9307 0.46921 0.0
C434 C 0.63242 0.95876 0.44693 0.0
C435 C 0.64657 0.94609 0.47433 0.0
H436 H 0.61247 0.97076 0.45084 0.0
H437 H 0.63754 0.94824 0.49933 0.0
H438 H 0.62997 0.07622 0.29265 0.0
H439 H 0.65307 0.95044 0.29974 0.0
H440 H 0.60637 0.09805 0.24363 0.0
H441 H 0.68342 0.92095 0.49045 0.0
H442 H 0.72085 0.90113 0.44992 0.0
H443 H 0.5704 0.0807 0.44084 0.0
H444 H 0.72782 0.90096 0.32947 0.0
H445 H 0.69655 0.92125 0.28463 0.0
H446 H 0.51723 0.13749 0.2864 0.0
H447 H 0.73692 0.89379 0.3914 0.0
H448 H 0.49588 0.12554 0.40318 0.0
H449 H 0.52257 0.10337 0.45054 0.0
N450 N 0.56946 0.08704 0.38799 0.0
C451 C 0.55586 0.10026 0.36179 0.0
C452 C 0.55828 0.0888 0.41968 0.0
C453 C 0.51655 0.11488 0.39861 0.0
C454 C 0.53146 0.10225 0.42538 0.0
C455 C 0.52882 0.11428 0.36642 0.0
H456 H 0.49436 0.13858 0.34218 0.0
N457 N 0.59552 0.08674 0.32644 0.0
C458 C 0.56914 0.10007 0.33022 0.0
C459 C 0.56873 0.11238 0.27125 0.0
C460 C 0.55515 0.11329 0.30267 0.0
C461 C 0.60894 0.08609 0.29584 0.0
C462 C 0.59566 0.09868 0.26783 0.0
O463 O 0.64613 0.00546 0.4078 0.0
O464 O 0.66046 0.04939 0.38711 0.0
O465 O 0.62759 0.11342 0.36692 0.0
O466 O 0.62473 0.09824 0.41865 0.0
O467 O 0.58479 0.99905 0.39526 0.0
O468 O 0.60199 0.04075 0.42122 0.0
O469 O 0.57896 0.04338 0.35276 0.0
O470 O 0.60882 0.01015 0.32998 0.0
O471 O 0.58552 0.95144 0.38415 0.0
O472 O 0.60357 0.94734 0.3339 0.0
O473 O 0.6521 0.05401 0.34008 0.0
O474 O 0.64866 0.00345 0.32765 0.0
C475 C 0.66692 0.02425 0.4011 0.0
C476 C 0.58358 0.01858 0.41943 0.0
C477 C 0.64892 0.14404 0.40856 0.0
C478 C 0.68392 0.18184 0.3943 0.0
C479 C 0.65898 0.1834 0.44797 0.0
C480 C 0.64405 0.15788 0.43959 0.0
C481 C 0.67873 0.19544 0.42539 0.0
C482 C 0.66919 0.15601 0.38589 0.0
C483 C 0.6292 0.1203 0.39861 0.0
C484 C 0.52815 0.12708 0.30727 0.0
C485 C 0.51508 0.12764 0.33903 0.0
H486 H 0.55866 0.12228 0.2495 0.0
C487 C 0.58351 0.02245 0.33111 0.0
C488 C 0.6602 0.03013 0.32302 0.0
C489 C 0.57006 0.9096 0.35016 0.0
C490 C 0.5455 0.8649 0.36866 0.0
C491 C 0.54788 0.87659 0.30946 0.0
C492 C 0.56308 0.90203 0.31698 0.0
C493 C 0.53927 0.85811 0.33503 0.0
C494 C 0.56101 0.89088 0.37652 0.0
C495 C 0.58361 0.9388 0.3549 0.0
H496 H 0.65484 0.19416 0.47176 0.0
H497 H 0.62796 0.14943 0.45693 0.0
H498 H 0.6899 0.21551 0.43206 0.0
H499 H 0.67282 0.14597 0.36154 0.0
H500 H 0.54224 0.8713 0.28378 0.0
H501 H 0.5687 0.91664 0.2969 0.0
H502 H 0.52758 0.83829 0.32852 0.0
H503 H 0.56564 0.89646 0.40245 0.0
C504 C 0.39916 0.56644 0.41528 0.0
C505 C 0.39414 0.58515 0.47216 0.0
C506 C 0.40358 0.58882 0.43873 0.0
C507 C 0.37983 0.55929 0.48152 0.0
C508 C 0.38511 0.54031 0.42483 0.0
C509 C 0.37527 0.537 0.45793 0.0
N510 N 0.40968 0.56975 0.38357 0.0
C511 C 0.4059 0.54814 0.36004 0.0
C512 C 0.38161 0.51806 0.40094 0.0
C513 C 0.39207 0.52202 0.36844 0.0
Gd514 Gd 0.52058 0.62342 0.36818 0.0
Gd515 Gd 0.42726 0.61678 0.37147 0.0
N516 N 0.41753 0.61379 0.42909 0.0
C517 C 0.39939 0.60761 0.49532 0.0
C518 C 0.42235 0.63588 0.45146 0.0
C519 C 0.41359 0.63301 0.48495 0.0
H520 H 0.43234 0.65599 0.4436 0.0
H521 H 0.41745 0.65057 0.50269 0.0
H522 H 0.5306 0.59128 0.29314 0.0
H523 H 0.41255 0.55088 0.33433 0.0
H524 H 0.55694 0.60053 0.24049 0.0
H525 H 0.39247 0.6056 0.52123 0.0
H526 H 0.3723 0.55624 0.50706 0.0
H527 H 0.54271 0.6753 0.42303 0.0
H528 H 0.37084 0.49776 0.40731 0.0
H529 H 0.38912 0.5051 0.34964 0.0
H530 H 0.60452 0.69228 0.26001 0.0
H531 H 0.36435 0.51713 0.46562 0.0
H532 H 0.5946 0.73673 0.36858 0.0
H533 H 0.57089 0.72125 0.42135 0.0
N534 N 0.54858 0.66613 0.37104 0.0
C535 C 0.56259 0.67351 0.34215 0.0
C536 C 0.55239 0.68219 0.39964 0.0
C537 C 0.58196 0.71675 0.36902 0.0
C538 C 0.56862 0.70806 0.39888 0.0
C539 C 0.57963 0.69908 0.34037 0.0
H540 H 0.60737 0.72555 0.30859 0.0
N541 N 0.54418 0.63052 0.31676 0.0
C542 C 0.56075 0.65495 0.31448 0.0
C543 C 0.57461 0.6415 0.25785 0.0
C544 C 0.57614 0.66129 0.28471 0.0
C545 C 0.54282 0.61105 0.29076 0.0
C546 C 0.55797 0.61617 0.26095 0.0
O547 O 0.45526 0.58243 0.39849 0.0
O548 O 0.49623 0.60773 0.41457 0.0
O549 O 0.54766 0.58491 0.35739 0.0
O550 O 0.55024 0.60719 0.40526 0.0
O551 O 0.45004 0.66035 0.38478 0.0
O552 O 0.49708 0.65202 0.40546 0.0
O553 O 0.49799 0.64948 0.32633 0.0
O554 O 0.44682 0.65076 0.33439 0.0
O555 O 0.38633 0.6395 0.38121 0.0
O556 O 0.39023 0.60834 0.34035 0.0
O557 O 0.4802 0.6046 0.35021 0.0
O558 O 0.441 0.59181 0.32595 0.0
C559 C 0.47956 0.58428 0.41607 0.0
C560 C 0.47489 0.6693 0.39877 0.0
C561 C 0.59398 0.58825 0.38518 0.0
C562 C 0.64078 0.56368 0.39123 0.0
C563 C 0.63817 0.6165 0.39472 0.0
C564 C 0.60832 0.61528 0.38911 0.0
C565 C 0.65429 0.59089 0.39597 0.0
C566 C 0.61049 0.56227 0.38579 0.0
C567 C 0.56178 0.58751 0.38572 0.0
C568 C 0.5927 0.68698 0.28274 0.0
C569 C 0.59428 0.70592 0.31041 0.0
H570 H 0.58643 0.64543 0.23483 0.0
C571 C 0.47139 0.65959 0.31929 0.0
C572 C 0.46859 0.58835 0.32715 0.0
C573 C 0.3531 0.64288 0.33491 0.0
C574 C 0.31909 0.68261 0.32727 0.0
C575 C 0.32187 0.64403 0.28563 0.0
C576 C 0.34324 0.63031 0.3046 0.0
C577 C 0.30988 0.67018 0.29682 0.0
C578 C 0.34066 0.66901 0.34636 0.0
C579 C 0.37334 0.62649 0.3561 0.0
H580 H 0.64878 0.63736 0.39867 0.0
H581 H 0.59629 0.63553 0.38927 0.0
H582 H 0.67747 0.59226 0.40076 0.0
H583 H 0.59981 0.54125 0.38328 0.0
H584 H 0.31405 0.634 0.26267 0.0
H585 H 0.35152 0.60947 0.2959 0.0
H586 H 0.29246 0.68005 0.2825 0.0
H587 H 0.34687 0.67822 0.37047 0.0
C588 C 0.81852 0.56262 0.38002 0.0
C589 C 0.81562 0.57349 0.43968 0.0
C590 C 0.8294 0.5595 0.41235 0.0
C591 C 0.78994 0.58935 0.43429 0.0
C592 C 0.79334 0.57946 0.37437 0.0
C593 C 0.77876 0.59221 0.40174 0.0
N594 N 0.83354 0.55078 0.35395 0.0
C595 C 0.82584 0.55676 0.32153 0.0
C596 C 0.7842 0.58395 0.34126 0.0
C597 C 0.80077 0.57291 0.31471 0.0
Gd598 Gd 0.88522 0.43605 0.37429 0.0
Gd599 Gd 0.87581 0.52509 0.36829 0.0
N600 N 0.85411 0.54382 0.41693 0.0
C601 C 0.82845 0.57167 0.47151 0.0
C602 C 0.86768 0.54346 0.44745 0.0
C603 C 0.85479 0.5569 0.47531 0.0
H604 H 0.8884 0.53273 0.45026 0.0
H605 H 0.86534 0.55612 0.49959 0.0
H606 H 0.87011 0.4269 0.29079 0.0
H607 H 0.83899 0.54894 0.30083 0.0
H608 H 0.89298 0.40461 0.24145 0.0
H609 H 0.8186 0.58222 0.4931 0.0
H610 H 0.7789 0.6 0.45503 0.0
H611 H 0.93033 0.4232 0.43768 0.0
H612 H 0.76496 0.59674 0.3359 0.0
H613 H 0.7944 0.57703 0.289 0.0
H614 H 0.98378 0.36794 0.28231 0.0
H615 H 0.75929 0.60506 0.39789 0.0
H616 H 0.00568 0.38012 0.39907 0.0
H617 H 0.97853 0.40122 0.44701 0.0
N618 N 0.93171 0.41789 0.38478 0.0
C619 C 0.94544 0.4051 0.35831 0.0
C620 C 0.94278 0.41578 0.41642 0.0
C621 C 0.98492 0.39061 0.39475 0.0
C622 C 0.96976 0.40263 0.42185 0.0
C623 C 0.97264 0.39136 0.36258 0.0
H624 H 0.00725 0.36754 0.33775 0.0
N625 N 0.90516 0.41767 0.32384 0.0
C626 C 0.93187 0.405 0.32702 0.0
C627 C 0.93147 0.3916 0.2682 0.0
C628 C 0.94565 0.39159 0.29927 0.0
C629 C 0.89125 0.41749 0.29357 0.0
C630 C 0.90418 0.40463 0.26537 0.0
O631 O 0.85132 0.49803 0.40683 0.0
O632 O 0.84052 0.45366 0.3834 0.0
O633 O 0.87486 0.39051 0.3666 0.0
O634 O 0.87601 0.4085 0.41727 0.0
O635 O 0.91466 0.50652 0.39445 0.0
O636 O 0.89888 0.46421 0.41969 0.0
O637 O 0.92156 0.46296 0.35408 0.0
O638 O 0.8964 0.4988 0.32661 0.0
O639 O 0.91161 0.55368 0.38334 0.0
O640 O 0.88341 0.56615 0.34251 0.0
O641 O 0.84923 0.4506 0.33746 0.0
O642 O 0.85213 0.5011 0.32604 0.0
C643 C 0.83237 0.47757 0.39895 0.0
C644 C 0.91612 0.48745 0.41884 0.0
C645 C 0.84879 0.36463 0.40866 0.0
C646 C 0.81576 0.32472 0.39513 0.0
C647 C 0.82665 0.33625 0.45331 0.0
C648 C 0.84498 0.35876 0.44299 0.0
C649 C 0.81219 0.31921 0.42952 0.0
C650 C 0.8339 0.34752 0.38464 0.0
C651 C 0.87156 0.38542 0.39854 0.0
C652 C 0.97296 0.37837 0.30336 0.0
C653 C 0.98637 0.3782 0.33492 0.0
H654 H 0.94133 0.38152 0.24632 0.0
C655 C 0.91952 0.48237 0.33038 0.0
C656 C 0.84105 0.47461 0.32101 0.0
C657 C 0.9286 0.59134 0.34702 0.0
C658 C 0.95957 0.63462 0.3509 0.0
C659 C 0.96038 0.60419 0.30072 0.0
C660 C 0.93941 0.58571 0.31468 0.0
C661 C 0.97046 0.62849 0.3187 0.0
C662 C 0.93869 0.6159 0.365 0.0
C663 C 0.90501 0.57375 0.36166 0.0
H664 H 0.8241 0.33164 0.47978 0.0
H665 H 0.85684 0.37105 0.46187 0.0
H666 H 0.79841 0.30145 0.4379 0.0
H667 H 0.83707 0.35114 0.358 0.0
H668 H 0.96832 0.60007 0.27556 0.0
H669 H 0.93132 0.56741 0.30008 0.0
H670 H 0.98601 0.64308 0.30704 0.0
H671 H 0.92962 0.621 0.38949 0.0
C672 C 0.90586 0.44687 0.86033 0.0
C673 C 0.89066 0.44709 0.80192 0.0
C674 C 0.90515 0.43343 0.82886 0.0
C675 C 0.87685 0.4741 0.80704 0.0
C676 C 0.89182 0.47391 0.86555 0.0
C677 C 0.8774 0.48744 0.83874 0.0
N678 N 0.9201 0.43345 0.8859 0.0
C679 C 0.9195 0.44486 0.91759 0.0
C680 C 0.89233 0.4864 0.89771 0.0
C681 C 0.90605 0.47168 0.9239 0.0
Gd682 Gd 0.02851 0.38267 0.86303 0.0
Gd683 Gd 0.93929 0.38729 0.87374 0.0
N684 N 0.9188 0.40723 0.82454 0.0
C685 C 0.89038 0.4332 0.77057 0.0
C686 C 0.91857 0.39369 0.79392 0.0
C687 C 0.9044 0.40641 0.76657 0.0
H688 H 0.92914 0.37311 0.79015 0.0
H689 H 0.90431 0.39552 0.74238 0.0
H690 H 0.03493 0.39537 0.94569 0.0
H691 H 0.92855 0.43288 0.93831 0.0
H692 H 0.06019 0.37415 0.99446 0.0
H693 H 0.87945 0.44297 0.7493 0.0
H694 H 0.86558 0.48482 0.78663 0.0
H695 H 0.05273 0.34667 0.79509 0.0
H696 H 0.88171 0.50708 0.90273 0.0
H697 H 0.90584 0.48072 0.94907 0.0
H698 H 0.11654 0.29585 0.94715 0.0
H699 H 0.86648 0.50818 0.84232 0.0
H700 H 0.11242 0.28101 0.82793 0.0
H701 H 0.08547 0.30537 0.78216 0.0
N702 N 0.06117 0.34562 0.84762 0.0
C703 C 0.07683 0.3335 0.87289 0.0
C704 C 0.06466 0.33635 0.81521 0.0
C705 C 0.09848 0.29943 0.83367 0.0
C706 C 0.08321 0.31303 0.80778 0.0
C707 C 0.09545 0.30963 0.86671 0.0
H708 H 0.12382 0.27759 0.88952 0.0
N709 N 0.05249 0.36492 0.91074 0.0
C710 C 0.07201 0.34317 0.90548 0.0
C711 C 0.08201 0.34118 0.96501 0.0
C712 C 0.08669 0.33012 0.9326 0.0
C713 C 0.04913 0.37695 0.94197 0.0
C714 C 0.06349 0.36502 0.96962 0.0
O715 O 0.96312 0.42492 0.85181 0.0
O716 O 0.99723 0.39863 0.8238 0.0
O717 O 0.05753 0.4191 0.8761 0.0
O718 O 0.05959 0.39842 0.82633 0.0
O719 O 0.9544 0.35239 0.8357 0.0
O720 O 0.00533 0.3515 0.82737 0.0
O721 O 0.00498 0.3556 0.90265 0.0
O722 O 0.95878 0.34337 0.88503 0.0
O723 O 0.89578 0.37055 0.86546 0.0
O724 O 0.91135 0.38008 0.91686 0.0
O725 O 0.00812 0.42012 0.89087 0.0
O726 O 0.96845 0.40039 0.91776 0.0
C727 C 0.98207 0.4225 0.8278 0.0
C728 C 0.9785 0.34209 0.82115 0.0
C729 C 0.0936 0.43804 0.8364 0.0
C730 C 0.13663 0.46777 0.84864 0.0
C731 C 0.11728 0.46523 0.79185 0.0
C732 C 0.09542 0.44632 0.80255 0.0
C733 C 0.13768 0.47597 0.81468 0.0
C734 C 0.11441 0.4487 0.8595 0.0
C735 C 0.0702 0.41793 0.84684 0.0
C736 C 0.10539 0.30644 0.92657 0.0
C737 C 0.10965 0.29613 0.89373 0.0
H738 H 0.09288 0.33176 0.98652 0.0
C739 C 0.98408 0.33617 0.89779 0.0
C740 C 0.98946 0.42004 0.91579 0.0
C741 C 0.86182 0.3634 0.91088 0.0
C742 C 0.81931 0.33242 0.90807 0.0
C743 C 0.82143 0.37209 0.94864 0.0
C744 C 0.84909 0.37949 0.93707 0.0
C745 C 0.80662 0.34852 0.93436 0.0
C746 C 0.84681 0.34008 0.89613 0.0
C747 C 0.8899 0.37207 0.89743 0.0
H748 H 0.11858 0.47139 0.76567 0.0
H749 H 0.07981 0.43825 0.78433 0.0
H750 H 0.1549 0.49005 0.80557 0.0
H751 H 0.1136 0.44192 0.88554 0.0
H752 H 0.81141 0.38467 0.96858 0.0
H753 H 0.86028 0.39806 0.94805 0.0
H754 H 0.78511 0.34305 0.94354 0.0
H755 H 0.85662 0.3277 0.87577 0.0
C756 C 0.05646 0.90981 0.86482 0.0
C757 C 0.05457 0.89254 0.80702 0.0
C758 C 0.06951 0.90653 0.83359 0.0
C759 C 0.02619 0.88218 0.81219 0.0
C760 C 0.02852 0.89795 0.87051 0.0
C761 C 0.01326 0.88472 0.8439 0.0
N762 N 0.07203 0.92209 0.89034 0.0
C763 C 0.06227 0.91979 0.92265 0.0
C764 C 0.01737 0.89822 0.90319 0.0
C765 C 0.03457 0.90867 0.92946 0.0
Gd766 Gd 0.12235 0.02654 0.86981 0.0
Gd767 Gd 0.11977 0.93687 0.87704 0.0
N768 N 0.09743 0.91554 0.8297 0.0
C769 C 0.06895 0.88847 0.77635 0.0
C770 C 0.11204 0.91034 0.80033 0.0
C771 C 0.09788 0.89728 0.77306 0.0
H772 H 0.13455 0.91673 0.79795 0.0
H773 H 0.10937 0.89373 0.74967 0.0
H774 H 0.10815 0.03828 0.95136 0.0
H775 H 0.076 0.92587 0.94354 0.0
H776 H 0.13081 0.06454 0.99916 0.0
H777 H 0.05816 0.87791 0.75535 0.0
H778 H 0.0144 0.87132 0.79212 0.0
H779 H 0.15921 0.04752 0.80073 0.0
H780 H 0.99613 0.8891 0.90863 0.0
H781 H 0.02679 0.90756 0.95509 0.0
H782 H 0.21651 0.10798 0.95186 0.0
H783 H 0.99177 0.87559 0.84786 0.0
H784 H 0.23237 0.09777 0.83362 0.0
H785 H 0.20347 0.07562 0.78768 0.0
N786 N 0.16451 0.05134 0.85382 0.0
C787 C 0.17827 0.06576 0.87919 0.0
C788 C 0.17209 0.05633 0.82113 0.0
C789 C 0.21314 0.0851 0.83956 0.0
C790 C 0.19694 0.07261 0.81356 0.0
C791 C 0.20342 0.08251 0.87276 0.0
H792 H 0.23699 0.10971 0.89487 0.0
N793 N 0.14162 0.0496 0.91708 0.0
C794 C 0.16632 0.06525 0.91146 0.0
C795 C 0.16699 0.08016 0.96982 0.0
C796 C 0.1798 0.0808 0.93789 0.0
C797 C 0.1284 0.04975 0.94776 0.0
C798 C 0.14108 0.06475 0.9747 0.0
O799 O 0.10343 0.96129 0.83306 0.0
O800 O 0.08229 1.00076 0.85636 0.0
O801 O 0.10251 0.06872 0.88102 0.0
O802 O 0.10739 0.0542 0.82931 0.0
O803 O 0.15676 0.95285 0.84341 0.0
O804 O 0.14771 1.00179 0.82879 0.0
O805 O 0.15025 0.00321 0.90871 0.0
O806 O 0.16216 0.9569 0.89087 0.0
O807 O 0.13998 0.89588 0.86443 0.0
O808 O 0.12811 0.90505 0.91677 0.0
O809 O 0.08546 0.00786 0.89993 0.0
O810 O 0.1049 0.96533 0.92184 0.0
C811 C 0.08214 0.97969 0.83431 0.0
C812 C 0.16232 0.97684 0.82583 0.0
C813 C 0.07286 0.09268 0.83971 0.0
C814 C 0.04023 0.13422 0.85027 0.0
C815 C 0.04066 0.11009 0.7957 0.0
C816 C 0.06204 0.09083 0.80676 0.0
C817 C 0.02977 0.13155 0.81722 0.0
C818 C 0.06195 0.1147 0.86137 0.0
C819 C 0.09855 0.075 0.84947 0.0
C820 C 0.20565 0.09625 0.93176 0.0
C821 C 0.21741 0.0971 0.89932 0.0
H822 H 0.17677 0.09173 0.99078 0.0
C823 C 0.16951 0.98243 0.9031 0.0
C824 C 0.08564 0.98685 0.92231 0.0
C825 C 0.15071 0.85827 0.90416 0.0
C826 C 0.182 0.8175 0.89083 0.0
C827 C 0.15087 0.81565 0.93997 0.0
C828 C 0.1404 0.84348 0.93256 0.0
C829 C 0.17161 0.80263 0.91916 0.0
C830 C 0.17163 0.84525 0.88339 0.0
C831 C 0.13901 0.8867 0.89514 0.0
H832 H 0.03297 0.10884 0.77003 0.0
H833 H 0.07079 0.07506 0.78915 0.0
H834 H 0.01391 0.14684 0.80755 0.0
H835 H 0.07089 0.1172 0.88641 0.0
H836 H 0.14287 0.80414 0.96179 0.0
H837 H 0.12403 0.85322 0.94865 0.0
H838 H 0.17974 0.78109 0.92523 0.0
H839 H 0.17989 0.85661 0.8615 0.0
C840 C 0.43897 0.17622 0.83745 0.0
C841 C 0.41991 0.15831 0.78432 0.0
C842 C 0.43767 0.15452 0.81291 0.0
C843 C 0.40557 0.18498 0.77937 0.0
C844 C 0.42357 0.20257 0.83317 0.0
C845 C 0.40763 0.20716 0.80357 0.0
N846 N 0.4536 0.17081 0.86645 0.0
C847 C 0.45117 0.18922 0.89319 0.0
C848 C 0.42355 0.22299 0.85945 0.0
C849 C 0.43693 0.21602 0.88985 0.0
Gd850 Gd 0.57176 0.11837 0.87096 0.0
Gd851 Gd 0.47801 0.12622 0.86882 0.0
N852 N 0.45192 0.12892 0.8182 0.0
C853 C 0.41562 0.13458 0.76262 0.0
C854 C 0.44741 0.10576 0.79729 0.0
C855 C 0.42868 0.10793 0.7699 0.0
H856 H 0.45639 0.08508 0.80298 0.0
H857 H 0.42369 0.08876 0.75506 0.0
H858 H 0.5754 0.15713 0.94216 0.0
H859 H 0.45956 0.18287 0.91731 0.0
H860 H 0.59009 0.14968 0.00127 0.0
H861 H 0.40129 0.13622 0.74111 0.0
H862 H 0.39209 0.18832 0.7574 0.0
H863 H 0.59604 0.05726 0.82864 0.0
H864 H 0.4121 0.24354 0.85709 0.0
H865 H 0.4357 0.23097 0.91094 0.0
H866 H 0.62434 0.05084 0.00404 0.0
H867 H 0.3958 0.22733 0.79981 0.0
H868 H 0.62779 0.9972 0.90097 0.0
H869 H 0.61667 0.00983 0.84218 0.0
N870 N 0.59132 0.07114 0.87996 0.0
C871 C 0.59969 0.06557 0.91212 0.0
C872 C 0.59874 0.05192 0.85482 0.0
C873 C 0.61774 0.01801 0.89539 0.0
C874 C 0.61133 0.02497 0.86222 0.0
C875 C 0.61256 0.03859 0.92073 0.0
H876 H 0.63064 0.01271 0.96106 0.0
N877 N 0.5858 0.11379 0.92722 0.0
C878 C 0.59701 0.08747 0.93631 0.0
C879 C 0.60306 0.105 0.99327 0.0
C880 C 0.60588 0.0824 0.9697 0.0
C881 C 0.58368 0.13615 0.94985 0.0
C882 C 0.59205 0.13201 0.98326 0.0
O883 O 0.49926 0.1555 0.83019 0.0
O884 O 0.55069 0.15197 0.83397 0.0
O885 O 0.61219 0.14331 0.87925 0.0
O886 O 0.60582 0.11556 0.83454 0.0
O887 O 0.51759 0.10584 0.8501 0.0
O888 O 0.55662 0.08795 0.83084 0.0
O889 O 0.54221 0.10078 0.9136 0.0
O890 O 0.49985 0.08519 0.88818 0.0
O891 O 0.44322 0.09412 0.86721 0.0
O892 O 0.45062 0.12169 0.91261 0.0
O893 O 0.55036 0.16123 0.88407 0.0
O894 O 0.50416 0.15284 0.90714 0.0
C895 C 0.52604 0.1633 0.82137 0.0
C896 C 0.52901 0.08667 0.82995 0.0
C897 C 0.65232 0.13812 0.83909 0.0
C898 C 0.69284 0.17108 0.8306 0.0
C899 C 0.69488 0.12168 0.8084 0.0
C900 C 0.66732 0.11612 0.82156 0.0
C901 C 0.70761 0.14909 0.81275 0.0
C902 C 0.66507 0.1655 0.84357 0.0
C903 C 0.6229 0.13285 0.85132 0.0
C904 C 0.61748 0.05513 0.9785 0.0
C905 C 0.62093 0.03336 0.95406 0.0
H906 H 0.60959 0.1019 0.01916 0.0
C907 C 0.51923 0.08331 0.91243 0.0
C908 C 0.5267 0.17005 0.90018 0.0
C909 C 0.41084 0.08659 0.91482 0.0
C910 C 0.36702 0.05675 0.91347 0.0
C911 C 0.38718 0.07265 0.96683 0.0
C912 C 0.40939 0.08726 0.95004 0.0
C913 C 0.36618 0.05737 0.9487 0.0
C914 C 0.38938 0.0714 0.89641 0.0
C915 C 0.4353 0.10101 0.89785 0.0
H916 H 0.7065 0.10465 0.79511 0.0
H917 H 0.65774 0.09469 0.81806 0.0
H918 H 0.72938 0.15276 0.80325 0.0
H919 H 0.65338 0.18246 0.85707 0.0
H920 H 0.38618 0.07325 0.99398 0.0
H921 H 0.42564 0.09881 0.96467 0.0
H922 H 0.34877 0.04655 0.96217 0.0
H923 H 0.38992 0.07111 0.86917 0.0
C924 C 0.44551 0.60076 0.86294 0.0
C925 C 0.4475 0.61417 0.80397 0.0
C926 C 0.43334 0.60002 0.83081 0.0
C927 C 0.47351 0.62948 0.80985 0.0
C928 C 0.47173 0.61603 0.86879 0.0
C929 C 0.48556 0.63043 0.84213 0.0
N930 N 0.43177 0.58657 0.88841 0.0
C931 C 0.44228 0.58799 0.92043 0.0
C932 C 0.48316 0.61664 0.90137 0.0
C933 C 0.46831 0.60264 0.92731 0.0
Gd934 Gd 0.38208 0.47582 0.8672 0.0
Gd935 Gd 0.38663 0.5661 0.87467 0.0
N936 N 0.40806 0.58498 0.82572 0.0
C937 C 0.43513 0.61246 0.77191 0.0
C938 C 0.39601 0.58315 0.79447 0.0
C939 C 0.40939 0.59678 0.76714 0.0
H940 H 0.37611 0.57131 0.79032 0.0
H941 H 0.39973 0.59532 0.74239 0.0
H942 H 0.39211 0.4676 0.94937 0.0
H943 H 0.4303 0.57853 0.941 0.0
H944 H 0.36973 0.44063 0.99658 0.0
H945 H 0.44533 0.62309 0.75067 0.0
H946 H 0.48454 0.64064 0.78954 0.0
H947 H 0.35058 0.45148 0.79688 0.0
H948 H 0.50321 0.62819 0.90686 0.0
H949 H 0.47665 0.60354 0.95271 0.0
H950 H 0.29422 0.38371 0.94403 0.0
H951 H 0.50563 0.64238 0.84623 0.0
H952 H 0.28477 0.38958 0.82413 0.0
H953 H 0.31079 0.41783 0.78056 0.0
N954 N 0.34713 0.44194 0.84893 0.0
C955 C 0.33415 0.42556 0.87297 0.0
C956 C 0.33953 0.4389 0.81597 0.0
C957 C 0.30254 0.40385 0.83131 0.0
C958 C 0.31709 0.41987 0.80666 0.0
C959 C 0.31102 0.40655 0.86497 0.0
H960 H 0.27854 0.37718 0.88531 0.0
N961 N 0.36354 0.44965 0.91283 0.0
C962 C 0.34243 0.42981 0.90604 0.0
C963 C 0.33837 0.41863 0.96506 0.0
C964 C 0.32861 0.41437 0.93207 0.0
C965 C 0.37427 0.45279 0.9446 0.0
C966 C 0.36165 0.43757 0.97127 0.0
O967 O 0.42457 0.54244 0.85174 0.0
O968 O 0.39391 0.50974 0.83068 0.0
O969 O 0.42006 0.44952 0.87989 0.0
O970 O 0.40327 0.44909 0.82927 0.0
O971 O 0.35128 0.54992 0.8372 0.0
O972 O 0.3494 0.49834 0.83216 0.0
O973 O 0.35679 0.50024 0.90755 0.0
O974 O 0.34362 0.54558 0.88804 0.0
O975 O 0.36848 0.60841 0.86299 0.0
O976 O 0.3786 0.59684 0.91543 0.0
O977 O 0.4187 0.49736 0.89596 0.0
O978 O 0.39884 0.53868 0.92005 0.0
C979 C 0.41973 0.52087 0.83126 0.0
C980 C 0.34008 0.52515 0.82453 0.0
C981 C 0.42339 0.40478 0.84978 0.0
C982 C 0.44867 0.35948 0.86395 0.0
C983 C 0.40298 0.35772 0.8336 0.0
C984 C 0.40147 0.38807 0.8342 0.0
C985 C 0.42648 0.34351 0.84812 0.0
C986 C 0.44721 0.39026 0.86477 0.0
C987 C 0.42125 0.43711 0.85043 0.0
C988 C 0.30547 0.39542 0.92433 0.0
C989 C 0.29662 0.39161 0.89087 0.0
H990 H 0.32834 0.40716 0.98581 0.0
C991 C 0.33702 0.52062 0.90228 0.0
C992 C 0.41828 0.51754 0.91946 0.0
C993 C 0.35966 0.64529 0.90521 0.0
C994 C 0.329 0.68737 0.89655 0.0
C995 C 0.36375 0.68722 0.94232 0.0
C996 C 0.3726 0.6592 0.93292 0.0
C997 C 0.34187 0.70126 0.92431 0.0
C998 C 0.33796 0.65952 0.8869 0.0
C999 C 0.3696 0.61657 0.89435 0.0
H1000 H 0.38599 0.34514 0.82148 0.0
H1001 H 0.3831 0.39833 0.82223 0.0
H1002 H 0.42731 0.31985 0.8472 0.0
H1003 H 0.46427 0.40271 0.87704 0.0
H1004 H 0.37382 0.69804 0.96357 0.0
H1005 H 0.38978 0.6486 0.94691 0.0
H1006 H 0.33493 0.72289 0.93198 0.0
H1007 H 0.32779 0.64886 0.8655 0.0
C1008 C 0.90306 0.05693 0.63695 0.0
C1009 C 0.8854 0.05917 0.69443 0.0
C1010 C 0.90149 0.07149 0.66783 0.0
C1011 C 0.87061 0.03261 0.6895 0.0
C1012 C 0.88827 0.03023 0.63204 0.0
C1013 C 0.87199 0.01823 0.65842 0.0
N1014 N 0.91893 0.06894 0.61169 0.0
C1015 C 0.91973 0.05634 0.58062 0.0
C1016 C 0.88994 0.01656 0.60054 0.0
C1017 C 0.90568 0.02973 0.5747 0.0
Gd1018 Gd 0.02686 0.127 0.63247 0.0
Gd1019 Gd 0.93654 0.11583 0.62208 0.0
N1020 N 0.91559 0.0976 0.67176 0.0
C1021 C 0.88444 0.07399 0.7252 0.0
C1022 C 0.91451 0.11218 0.70175 0.0
C1023 C 0.89916 0.10049 0.7289 0.0
H1024 H 0.92489 0.13304 0.70505 0.0
H1025 H 0.89835 0.11215 0.75259 0.0
H1026 H 0.03996 0.1089 0.55263 0.0
H1027 H 0.93026 0.06731 0.56003 0.0
H1028 H 0.06577 0.12933 0.50361 0.0
H1029 H 0.87231 0.06522 0.74622 0.0
H1030 H 0.85795 0.02301 0.7096 0.0
H1031 H 0.04364 0.17049 0.69764 0.0
H1032 H 0.87876 0.99611 0.59574 0.0
H1033 H 0.90645 0.01974 0.55002 0.0
H1034 H 0.10505 0.22012 0.54436 0.0
H1035 H 0.86032 0.99785 0.65501 0.0
H1036 H 0.09018 0.24438 0.66037 0.0
H1037 H 0.06716 0.21814 0.70767 0.0
N1038 N 0.04989 0.17146 0.64485 0.0
C1039 C 0.06377 0.18461 0.61895 0.0
C1040 C 0.05192 0.18261 0.67661 0.0
C1041 C 0.07904 0.22388 0.65575 0.0
C1042 C 0.06596 0.20924 0.68247 0.0
C1043 C 0.07862 0.21129 0.62363 0.0
H1044 H 0.10449 0.24473 0.59945 0.0
N1045 N 0.04936 0.14523 0.58426 0.0
C1046 C 0.06401 0.1708 0.5879 0.0
C1047 C 0.07948 0.16821 0.52996 0.0
C1048 C 0.07918 0.18321 0.5607 0.0
C1049 C 0.05052 0.12989 0.55481 0.0
C1050 C 0.06526 0.14132 0.5271 0.0
O1051 O 0.95995 0.07743 0.6439 0.0
O1052 O 0.99067 0.11021 0.66328 0.0
O1053 O 0.0547 0.08812 0.62731 0.0
O1054 O 0.06354 0.12092 0.66609 0.0
O1055 O 0.94984 0.1533 0.65857 0.0
O1056 O 0.9994 0.14879 0.67413 0.0
O1057 O 0.00227 0.15059 0.59142 0.0
O1058 O 0.95646 0.16016 0.6124 0.0
O1059 O 0.89147 0.12771 0.62599 0.0
O1060 O 0.91114 0.12242 0.5765 0.0
O1061 O 0.01124 0.08822 0.60262 0.0
O1062 O 0.96803 0.10462 0.57978 0.0
C1063 C 0.98254 0.08325 0.66195 0.0
C1064 C 0.97304 0.16096 0.67708 0.0
C1065 C 0.09679 0.07986 0.66401 0.0
C1066 C 0.13946 0.0488 0.65483 0.0
C1067 C 0.12569 0.0636 0.71142 0.0
C1068 C 0.1025 0.07961 0.69864 0.0
C1069 C 0.14399 0.04826 0.68976 0.0
C1070 C 0.11553 0.06453 0.64195 0.0
C1071 C 0.07162 0.09675 0.65161 0.0
C1072 C 0.09348 0.2101 0.56503 0.0
C1073 C 0.09311 0.22415 0.59639 0.0
H1074 H 0.09087 0.17703 0.50845 0.0
C1075 C 0.98062 0.16871 0.59741 0.0
C1076 C 0.98932 0.08538 0.58166 0.0
C1077 C 0.86495 0.14671 0.57976 0.0
C1078 C 0.82241 0.17717 0.58852 0.0
C1079 C 0.83306 0.15796 0.53301 0.0
C1080 C 0.85772 0.14411 0.54562 0.0
C1081 C 0.81528 0.1742 0.5544 0.0
C1082 C 0.84741 0.1637 0.60108 0.0
C1083 C 0.88749 0.12765 0.59361 0.0
H1084 H 0.12974 0.06337 0.7382 0.0
H1085 H 0.08884 0.09171 0.71595 0.0
H1086 H 0.16233 0.03663 0.70032 0.0
H1087 H 0.11177 0.06513 0.61509 0.0
H1088 H 0.82748 0.15575 0.50672 0.0
H1089 H 0.87061 0.13061 0.5289 0.0
H1090 H 0.79623 0.18486 0.54421 0.0
H1091 H 0.85247 0.1657 0.6276 0.0
C1092 C 0.44111 0.89856 0.63257 0.0
C1093 C 0.44238 0.88016 0.68974 0.0
C1094 C 0.42821 0.89565 0.66399 0.0
C1095 C 0.46947 0.86714 0.6833 0.0
C1096 C 0.46806 0.88502 0.62588 0.0
C1097 C 0.48222 0.86947 0.65145 0.0
N1098 N 0.42734 0.91456 0.60859 0.0
C1099 C 0.43793 0.91534 0.5766 0.0
C1100 C 0.4799 0.88736 0.59362 0.0
C1101 C 0.46454 0.90221 0.56875 0.0
Gd1102 Gd 0.3797 0.0321 0.63157 0.0
Gd1103 Gd 0.38337 0.93664 0.62504 0.0
N1104 N 0.40253 0.90961 0.66993 0.0
C1105 C 0.42912 0.87869 0.72136 0.0
C1106 C 0.38915 0.9077 0.70045 0.0
C1107 C 0.40234 0.89238 0.72667 0.0
H1108 H 0.36858 0.91845 0.70474 0.0
H1109 H 0.39195 0.8913 0.75103 0.0
H1110 H 0.39335 0.04353 0.55063 0.0
H1111 H 0.42563 0.92555 0.55685 0.0
H1112 H 0.36962 0.06771 0.50218 0.0
H1113 H 0.43939 0.86711 0.74184 0.0
H1114 H 0.48077 0.85525 0.70281 0.0
H1115 H 0.34644 0.05757 0.70057 0.0
H1116 H 0.50053 0.87724 0.58746 0.0
H1117 H 0.47306 0.90334 0.54344 0.0
H1118 H 0.28299 0.11008 0.54958 0.0
H1119 H 0.50305 0.85915 0.64682 0.0
H1120 H 0.27016 0.10362 0.66904 0.0
H1121 H 0.30087 0.08371 0.71462 0.0
N1122 N 0.33995 0.06056 0.64795 0.0
C1123 C 0.32461 0.07301 0.62275 0.0
C1124 C 0.33261 0.06544 0.68066 0.0
C1125 C 0.28985 0.0918 0.66283 0.0
C1126 C 0.3071 0.08057 0.68863 0.0
C1127 C 0.29893 0.08875 0.62941 0.0
H1128 H 0.26362 0.1133 0.60719 0.0
N1129 N 0.36029 0.05595 0.58505 0.0
C1130 C 0.33543 0.07116 0.59037 0.0
C1131 C 0.33338 0.08348 0.53151 0.0
C1132 C 0.321 0.08503 0.56365 0.0
C1133 C 0.37316 0.05525 0.55417 0.0
C1134 C 0.35974 0.06878 0.52684 0.0
O1135 O 0.41673 0.95194 0.66194 0.0
O1136 O 0.39352 0.98945 0.64641 0.0
O1137 O 0.4161 0.05984 0.61839 0.0
O1138 O 0.40131 0.05827 0.67041 0.0
O1139 O 0.35114 0.95691 0.66379 0.0
O1140 O 0.35412 0.00838 0.67348 0.0
O1141 O 0.35414 0.00822 0.59125 0.0
O1142 O 0.34331 0.96333 0.61449 0.0
O1143 O 0.35301 0.90163 0.63341 0.0
O1144 O 0.37213 0.90729 0.58393 0.0
O1145 O 0.41678 0.01086 0.60403 0.0
O1146 O 0.39987 0.96662 0.58234 0.0
C1147 C 0.41394 0.97939 0.66541 0.0
C1148 C 0.3434 0.98165 0.67976 0.0
C1149 C 0.43556 0.09656 0.65545 0.0
C1150 C 0.45871 0.14214 0.63769 0.0
C1151 C 0.46452 0.12497 0.69485 0.0
C1152 C 0.44805 0.10029 0.68725 0.0
C1153 C 0.46977 0.14578 0.67029 0.0
C1154 C 0.44114 0.11758 0.6302 0.0
C1155 C 0.42032 0.06859 0.64911 0.0
C1156 C 0.29472 0.09973 0.56987 0.0
C1157 C 0.28365 0.10148 0.60267 0.0
H1158 H 0.32291 0.09374 0.51026 0.0
C1159 C 0.33563 0.98708 0.59822 0.0
C1160 C 0.41952 0.98795 0.5841 0.0
C1161 C 0.35509 0.85989 0.59931 0.0
C1162 C 0.33019 0.81428 0.61037 0.0
C1163 C 0.3727 0.81487 0.57431 0.0
C1164 C 0.37525 0.84505 0.57897 0.0
C1165 C 0.35018 0.7995 0.58986 0.0
C1166 C 0.33265 0.84435 0.61499 0.0
C1167 C 0.35502 0.89168 0.60287 0.0
H1168 H 0.47374 0.1277 0.71968 0.0
H1169 H 0.44582 0.08341 0.70594 0.0
H1170 H 0.48277 0.16479 0.67667 0.0
H1171 H 0.43251 0.11467 0.60508 0.0
H1172 H 0.38792 0.80344 0.55821 0.0
H1173 H 0.39257 0.85672 0.56634 0.0
H1174 H 0.34797 0.77623 0.58541 0.0
H1175 H 0.31658 0.85576 0.6301 0.0
C1176 C 0.4411 0.3337 0.65918 0.0
C1177 C 0.42864 0.34498 0.71729 0.0
C1178 C 0.44314 0.35211 0.68721 0.0
C1179 C 0.41278 0.31885 0.7193 0.0
C1180 C 0.42431 0.30795 0.66093 0.0
C1181 C 0.41069 0.30035 0.69127 0.0
N1182 N 0.45427 0.34155 0.6299 0.0
C1183 C 0.44913 0.32646 0.60089 0.0
C1184 C 0.42093 0.29101 0.63182 0.0
C1185 C 0.43292 0.30059 0.60155 0.0
Gd1186 Gd 0.57504 0.3875 0.62588 0.0
Gd1187 Gd 0.48078 0.38488 0.63301 0.0
N1188 N 0.4588 0.37723 0.68492 0.0
C1189 C 0.43021 0.36452 0.74439 0.0
C1190 C 0.46016 0.39654 0.71109 0.0
C1191 C 0.4459 0.39049 0.74125 0.0
H1192 H 0.47212 0.41657 0.70869 0.0
H1193 H 0.44695 0.40584 0.76199 0.0
H1194 H 0.57594 0.34877 0.55474 0.0
H1195 H 0.45776 0.33412 0.57727 0.0
H1196 H 0.59068 0.35573 0.49543 0.0
H1197 H 0.41911 0.35988 0.76767 0.0
H1198 H 0.40168 0.31294 0.74232 0.0
H1199 H 0.60264 0.44746 0.66856 0.0
H1200 H 0.40835 0.27098 0.63221 0.0
H1201 H 0.42965 0.28807 0.57874 0.0
H1202 H 0.62987 0.45287 0.49282 0.0
H1203 H 0.39792 0.28052 0.69311 0.0
H1204 H 0.63576 0.50648 0.59584 0.0
H1205 H 0.62433 0.49437 0.65473 0.0
N1206 N 0.59739 0.43354 0.61728 0.0
C1207 C 0.60624 0.43856 0.58517 0.0
C1208 C 0.60547 0.4526 0.64234 0.0
C1209 C 0.62536 0.48584 0.60158 0.0
C1210 C 0.61873 0.47921 0.63479 0.0
C1211 C 0.61983 0.46519 0.5764 0.0
H1212 H 0.63802 0.49068 0.53578 0.0
N1213 N 0.58961 0.39111 0.56988 0.0
C1214 C 0.60231 0.41684 0.5609 0.0
C1215 C 0.60645 0.39952 0.50367 0.0
C1216 C 0.61084 0.42177 0.52738 0.0
C1217 C 0.58568 0.36916 0.5471 0.0
C1218 C 0.59398 0.37307 0.51361 0.0
O1219 O 0.50422 0.36277 0.67709 0.0
O1220 O 0.55279 0.35352 0.66048 0.0
O1221 O 0.61611 0.36316 0.61772 0.0
O1222 O 0.60683 0.38746 0.6644 0.0
O1223 O 0.52267 0.40263 0.6464 0.0
O1224 O 0.56197 0.41888 0.66606 0.0
O1225 O 0.547 0.40907 0.58443 0.0
O1226 O 0.50303 0.42304 0.60805 0.0
O1227 O 0.44937 0.41939 0.6432 0.0
O1228 O 0.45101 0.39781 0.59418 0.0
O1229 O 0.5501 0.34548 0.61345 0.0
O1230 O 0.50411 0.35824 0.59306 0.0
C1231 C 0.5294 0.34847 0.6796 0.0
C1232 C 0.53452 0.42121 0.66681 0.0
C1233 C 0.65402 0.36676 0.66158 0.0
C1234 C 0.69779 0.33766 0.66601 0.0
C1235 C 0.69149 0.38021 0.70179 0.0
C1236 C 0.66457 0.38542 0.68701 0.0
C1237 C 0.70808 0.35645 0.69138 0.0
C1238 C 0.67074 0.34298 0.651 0.0
C1239 C 0.62517 0.37181 0.64727 0.0
C1240 C 0.62336 0.44865 0.5185 0.0
C1241 C 0.62791 0.47024 0.54294 0.0
H1242 H 0.61272 0.4025 0.47767 0.0
C1243 C 0.52194 0.42339 0.58327 0.0
C1244 C 0.52492 0.33893 0.59876 0.0
C1245 C 0.40561 0.41563 0.61186 0.0
C1246 C 0.35928 0.44029 0.60419 0.0
C1247 C 0.36125 0.38735 0.60536 0.0
C1248 C 0.39123 0.38857 0.6102 0.0
C1249 C 0.34535 0.41303 0.60224 0.0
C1250 C 0.38949 0.44165 0.6092 0.0
C1251 C 0.43751 0.41671 0.61346 0.0
H1252 H 0.6994 0.39446 0.72155 0.0
H1253 H 0.65196 0.40396 0.69564 0.0
H1254 H 0.72871 0.3524 0.70364 0.0
H1255 H 0.66266 0.32854 0.63143 0.0
H1256 H 0.35035 0.36643 0.60363 0.0
H1257 H 0.4032 0.36835 0.61192 0.0
H1258 H 0.32207 0.41169 0.59817 0.0
H1259 H 0.40041 0.46265 0.61009 0.0
C1260 C 0.05651 0.59632 0.64011 0.0
C1261 C 0.05712 0.6095 0.69925 0.0
C1262 C 0.07053 0.59624 0.67116 0.0
C1263 C 0.02987 0.62298 0.69567 0.0
C1264 C 0.02955 0.61065 0.63629 0.0
C1265 C 0.01624 0.62374 0.66426 0.0
N1266 N 0.06984 0.58372 0.61328 0.0
C1267 C 0.05866 0.58652 0.58176 0.0
C1268 C 0.0172 0.61227 0.60419 0.0
C1269 C 0.032 0.60039 0.57675 0.0
Gd1270 Gd 0.12748 0.47801 0.62998 0.0
Gd1271 Gd 0.1165 0.56585 0.62264 0.0
N1272 N 0.09756 0.58413 0.67365 0.0
C1273 C 0.07178 0.60947 0.73001 0.0
C1274 C 0.1123 0.585 0.70343 0.0
C1275 C 0.09947 0.59723 0.73207 0.0
H1276 H 0.13403 0.57666 0.70559 0.0
H1277 H 0.11114 0.59755 0.75567 0.0
H1278 H 0.11197 0.46633 0.54945 0.0
H1279 H 0.07092 0.57926 0.56027 0.0
H1280 H 0.13372 0.44124 0.50048 0.0
H1281 H 0.06213 0.61931 0.75216 0.0
H1282 H 0.01941 0.63342 0.71695 0.0
H1283 H 0.16796 0.45857 0.69617 0.0
H1284 H 0.99671 0.62339 0.60019 0.0
H1285 H 0.02322 0.60252 0.55165 0.0
H1286 H 0.22393 0.40344 0.54248 0.0
H1287 H 0.99558 0.63487 0.66177 0.0
H1288 H 0.24396 0.41517 0.65981 0.0
H1289 H 0.21545 0.4355 0.70715 0.0
N1290 N 0.17196 0.45598 0.64318 0.0
C1291 C 0.1864 0.44356 0.61702 0.0
C1292 C 0.18143 0.4521 0.67532 0.0
C1293 C 0.2238 0.42657 0.65484 0.0
C1294 C 0.20785 0.43811 0.68161 0.0
C1295 C 0.21272 0.42844 0.62217 0.0
H1296 H 0.24672 0.40297 0.59836 0.0
N1297 N 0.14817 0.45849 0.58129 0.0
C1298 C 0.17377 0.44417 0.58535 0.0
C1299 C 0.17246 0.4287 0.52724 0.0
C1300 C 0.18685 0.42924 0.55824 0.0
C1301 C 0.13329 0.45674 0.55168 0.0
C1302 C 0.14541 0.44227 0.52406 0.0
O1303 O 0.08145 0.53676 0.64248 0.0
O1304 O 0.10704 0.50292 0.67256 0.0
O1305 O 0.08826 0.45153 0.62282 0.0
O1306 O 0.12511 0.434 0.64981 0.0
O1307 O 0.15377 0.55239 0.65818 0.0
O1308 O 0.14675 0.50362 0.67444 0.0
O1309 O 0.15052 0.50476 0.59002 0.0
O1310 O 0.16134 0.54904 0.61343 0.0
O1311 O 0.12518 0.61144 0.63012 0.0
O1312 O 0.12576 0.5934 0.57907 0.0
O1313 O 0.0888 0.49439 0.60128 0.0
O1314 O 0.10284 0.53797 0.5772 0.0
C1315 C 0.0852 0.52111 0.66937 0.0
C1316 C 0.16002 0.52937 0.67731 0.0
C1317 C 0.08036 0.40804 0.65498 0.0
C1318 C 0.04857 0.36516 0.65195 0.0
C1319 C 0.06338 0.38511 0.70616 0.0
C1320 C 0.07952 0.40686 0.69017 0.0
C1321 C 0.04801 0.36444 0.68727 0.0
C1322 C 0.06487 0.38712 0.63594 0.0
C1323 C 0.09947 0.4288 0.63739 0.0
C1324 C 0.21347 0.41487 0.56307 0.0
C1325 C 0.22646 0.41463 0.59489 0.0
H1326 H 0.18171 0.41731 0.50585 0.0
C1327 C 0.16933 0.52557 0.59697 0.0
C1328 C 0.0862 0.51432 0.57784 0.0
C1329 C 0.14431 0.6422 0.58786 0.0
C1330 C 0.17822 0.68129 0.60055 0.0
C1331 C 0.14719 0.68443 0.55147 0.0
C1332 C 0.13501 0.65744 0.55934 0.0
C1333 C 0.16864 0.69641 0.57205 0.0
C1334 C 0.16624 0.65405 0.60843 0.0
C1335 C 0.12751 0.61666 0.59812 0.0
H1336 H 0.06313 0.38396 0.73332 0.0
H1337 H 0.09174 0.42237 0.70522 0.0
H1338 H 0.03624 0.34739 0.70032 0.0
H1339 H 0.06588 0.38767 0.60874 0.0
H1340 H 0.13968 0.69629 0.52969 0.0
H1341 H 0.11761 0.64888 0.54377 0.0
H1342 H 0.1778 0.71752 0.5658 0.0
H1343 H 0.17334 0.64266 0.63079 0.0
H1344 H 0.70935 0.45137 0.12429 0.0
H1345 H 0.83138 0.57222 0.09882 0.0
H1346 H 0.69659 0.52585 0.06038 0.0
H1347 H 0.84076 0.49487 0.15912 0.0
H1348 H 0.78608 0.55196 0.07535 0.0
H1349 H 0.76048 0.46305 0.12831 0.0
C1350 C 0.71721 0.4704 0.11109 0.0
C1351 C 0.69808 0.48882 0.09363 0.0
C1352 C 0.7984 0.53919 0.0932 0.0
C1353 C 0.75749 0.50232 0.09795 0.0
C1354 C 0.82437 0.55063 0.10637 0.0
C1355 C 0.83948 0.53544 0.13146 0.0
C1356 C 0.78764 0.51245 0.10531 0.0
C1357 C 0.82947 0.50755 0.14029 0.0
C1358 C 0.74667 0.47703 0.11334 0.0
C1359 C 0.71013 0.51239 0.07605 0.0
N1360 N 0.80402 0.49722 0.1277 0.0
N1361 N 0.739 0.51886 0.07914 0.0
H1362 H 0.9842 0.6996 0.05798 0.0
H1363 H 1.00147 0.84512 0.16644 0.0
H1364 H 0.05145 0.71412 0.13141 0.0
H1365 H 0.93588 0.83445 0.09021 0.0
H1366 H 0.02552 0.80082 0.14616 0.0
H1367 H 0.9707 0.75139 0.06229 0.0
C1368 C 0.99582 0.71358 0.0753 0.0
C1369 C 0.0176 0.70206 0.09595 0.0
C1370 C 0.0063 0.80846 0.13318 0.0
C1371 C 0.00354 0.76164 0.09987 0.0
C1372 C 0.99277 0.83397 0.14456 0.0
C1373 C 0.96675 0.84346 0.12986 0.0
C1374 C 0.9934 0.79195 0.10726 0.0
C1375 C 0.95604 0.82793 0.10202 0.0
C1376 C 0.98852 0.74326 0.07734 0.0
C1377 C 0.03376 0.72169 0.11581 0.0
N1378 N 0.96909 0.80262 0.092 0.0
N1379 N 0.02607 0.7503 0.11775 0.0
H1380 H 0.64948 0.00704 0.06635 0.0
H1381 H 0.80741 0.98072 0.13191 0.0
H1382 H 0.67012 0.94596 0.14466 0.0
H1383 H 0.78651 0.05754 0.07633 0.0
H1384 H 0.75633 0.97013 0.13956 0.0
H1385 H 0.69653 0.03101 0.07508 0.0
C1386 C 0.6634 0.99956 0.0865 0.0
C1387 C 0.65615 0.97422 0.10448 0.0
C1388 C 0.76262 0.98925 0.12535 0.0
C1389 C 0.71043 1.0007 0.11362 0.0
C1390 C 0.79202 0.9945 0.11991 0.0
C1391 C 0.80143 0.01841 0.10123 0.0
C1392 C 0.7419 0.00833 0.11194 0.0
C1393 C 0.78018 0.03794 0.08958 0.0
C1394 C 0.69043 0.01302 0.09119 0.0
C1395 C 0.67496 0.96529 0.13011 0.0
N1396 N 0.75133 0.03221 0.09457 0.0
N1397 N 0.7016 0.97801 0.13329 0.0
H1398 H 0.45104 0.79488 0.1376 0.0
H1399 H 0.55792 0.67137 0.07245 0.0
H1400 H 0.50503 0.80431 0.04986 0.0
H1401 H 0.50474 0.66398 0.16097 0.0
H1402 H 0.53025 0.71464 0.05578 0.0
H1403 H 0.46195 0.74302 0.13873 0.0
C1404 C 0.46532 0.78607 0.1185 0.0
C1405 C 0.47871 0.80444 0.09488 0.0
C1406 C 0.52395 0.70306 0.07829 0.0
C1407 C 0.49091 0.74441 0.09559 0.0
C1408 C 0.53949 0.67811 0.08754 0.0
C1409 C 0.53349 0.66407 0.11801 0.0
C1410 C 0.50249 0.71424 0.09993 0.0
C1411 C 0.50987 0.67407 0.13714 0.0
C1412 C 0.47142 0.75627 0.11908 0.0
C1413 C 0.49567 0.7913 0.06974 0.0
N1414 N 0.49557 0.69884 0.12811 0.0
N1415 N 0.50183 0.76218 0.07116 0.0
H1416 H 0.85489 0.01257 0.38179 0.0
H1417 H 0.69293 0.99045 0.3537 0.0
H1418 H 0.81981 0.92721 0.36056 0.0
H1419 H 0.7124 0.03786 0.44422 0.0
H1420 H 0.74225 0.97384 0.35029 0.0
H1421 H 0.80662 0.02804 0.40268 0.0
C1422 C 0.8373 0.99684 0.38273 0.0
C1423 C 0.84126 0.96848 0.36985 0.0
C1424 C 0.73578 0.98747 0.37134 0.0
C1425 C 0.78631 0.98623 0.39227 0.0
C1426 C 0.70724 0.99691 0.37341 0.0
C1427 C 0.69772 0.01441 0.40002 0.0
C1428 C 0.75582 0.99632 0.39566 0.0
C1429 C 0.71859 0.02357 0.42371 0.0
C1430 C 0.80987 0.00568 0.39453 0.0
C1431 C 0.81771 0.9491 0.37072 0.0
N1432 N 0.74691 0.0145 0.42096 0.0
N1433 N 0.79113 0.9585 0.38099 0.0
H1434 H 0.49175 0.85865 0.39677 0.0
H1435 H 0.50128 0.70215 0.35186 0.0
H1436 H 0.5766 0.81929 0.39187 0.0
H1437 H 0.46387 0.70816 0.45076 0.0
H1438 H 0.51718 0.75261 0.35613 0.0
H1439 H 0.47094 0.8109 0.41196 0.0
C1440 C 0.50623 0.84039 0.401 0.0
C1441 C 0.53605 0.84299 0.3936 0.0
C1442 C 0.50509 0.74303 0.37672 0.0
C1443 C 0.51229 0.78847 0.40933 0.0
C1444 C 0.49551 0.71434 0.37405 0.0
C1445 C 0.48072 0.70104 0.40063 0.0
C1446 C 0.49988 0.7588 0.40625 0.0
C1447 C 0.47506 0.71779 0.42959 0.0
C1448 C 0.49428 0.81314 0.40923 0.0
C1449 C 0.55367 0.81835 0.398 0.0
N1450 N 0.4847 0.74604 0.43175 0.0
N1451 N 0.5414 0.79192 0.40445 0.0
H1452 H 0.66596 0.53376 0.33972 0.0
H1453 H 0.80366 0.512 0.44507 0.0
H1454 H 0.66025 0.53726 0.44762 0.0
H1455 H 0.78857 0.45308 0.36212 0.0
H1456 H 0.75172 0.52454 0.44477 0.0
H1457 H 0.71082 0.50494 0.34458 0.0
C1458 C 0.67342 0.52721 0.36437 0.0
C1459 C 0.65942 0.53758 0.39334 0.0
C1460 C 0.75987 0.5087 0.4268 0.0
C1461 C 0.71109 0.5062 0.3991 0.0
C1462 C 0.78952 0.50201 0.4266 0.0
C1463 C 0.80072 0.48274 0.40248 0.0
C1464 C 0.74143 0.4961 0.40259 0.0
C1465 C 0.78108 0.4689 0.38043 0.0
C1466 C 0.69912 0.51109 0.36716 0.0
C1467 C 0.67042 0.52942 0.42477 0.0
N1468 N 0.7525 0.47638 0.38039 0.0
N1469 N 0.69606 0.51482 0.42688 0.0
H1470 H 0.03227 0.79403 0.44663 0.0
H1471 H 0.92786 0.68412 0.35101 0.0
H1472 H 0.99667 0.80854 0.34841 0.0
H1473 H 0.00877 0.64868 0.38692 0.0
H1474 H 0.94356 0.73274 0.36952 0.0
H1475 H 0.01629 0.7422 0.44231 0.0
C1476 C 0.02105 0.78649 0.4243 0.0
C1477 C 0.01523 0.80591 0.39794 0.0
C1478 C 0.95756 0.7142 0.3741 0.0
C1479 C 0.99665 0.74778 0.39322 0.0
C1480 C 0.94863 0.68656 0.3636 0.0
C1481 C 0.96715 0.66261 0.36739 0.0
C1482 C 0.98508 0.71791 0.38879 0.0
C1483 C 0.99401 0.66683 0.38357 0.0
C1484 C 0.01202 0.75711 0.42187 0.0
C1485 C 1.00115 0.79497 0.36945 0.0
N1486 N 0.00238 0.69415 0.39356 0.0
N1487 N 0.99202 0.76695 0.36798 0.0
H1488 H 0.15459 0.52354 0.86277 0.0
H1489 H 0.31104 0.47339 0.87854 0.0
H1490 H 0.1742 0.43346 0.88369 0.0
H1491 H 0.29093 0.55446 0.92559 0.0
H1492 H 0.26041 0.45923 0.87885 0.0
H1493 H 0.20212 0.53775 0.88612 0.0
C1494 C 0.16857 0.50689 0.87325 0.0
C1495 C 0.16065 0.47726 0.87108 0.0
C1496 C 0.26686 0.47966 0.89054 0.0
C1497 C 0.21502 0.49323 0.89683 0.0
C1498 C 0.29608 0.48698 0.89133 0.0
C1499 C 0.3057 0.51322 0.90495 0.0
C1500 C 0.2463 0.4998 0.90203 0.0
C1501 C 0.28454 0.5332 0.91611 0.0
C1502 C 0.1956 0.51501 0.88655 0.0
C1503 C 0.17946 0.4565 0.8849 0.0
N1504 N 0.25562 0.5262 0.91413 0.0
N1505 N 0.20607 0.46481 0.89641 0.0
H1506 H 0.94899 0.29113 0.92183 0.0
H1507 H 0.07386 0.17368 0.88451 0.0
H1508 H 0.03055 0.30829 0.87544 0.0
H1509 H 0.98437 0.15285 0.86237 0.0
H1510 H 0.05824 0.22119 0.9065 0.0
H1511 H 0.96093 0.2382 0.92097 0.0
C1512 C 0.97009 0.28402 0.9129 0.0
C1513 C 0.99051 0.30455 0.90127 0.0
C1514 C 0.04196 0.20584 0.89765 0.0
C1515 C 0.00417 0.24483 0.90038 0.0
C1516 C 0.05084 0.17868 0.88527 0.0
C1517 C 0.03043 0.15948 0.87111 0.0
C1518 C 0.01246 0.2138 0.89611 0.0
C1519 C 1.00083 0.16731 0.87256 0.0
C1520 C 0.97682 0.25397 0.91238 0.0
C1521 C 0.01657 0.294 0.88844 0.0
N1522 N 0.99271 0.19408 0.88436 0.0
N1523 N 0.02288 0.2652 0.88848 0.0
H1524 H 0.21329 0.95219 0.87184 0.0
H1525 H 0.32164 0.08397 0.88411 0.0
H1526 H 0.19874 0.02469 0.93903 0.0
H1527 H 0.35593 0.9986 0.9059 0.0
H1528 H 0.27302 0.06236 0.87791 0.0
H1529 H 0.26365 0.96818 0.86449 0.0
C1530 C 0.22049 0.9717 0.88491 0.0
C1531 C 0.20104 0.98869 0.90419 0.0
C1532 C 0.29145 0.04834 0.88299 0.0
C1533 C 0.25817 0.00707 0.89494 0.0
C1534 C 0.31912 0.0605 0.886 0.0
C1535 C 0.34249 0.04295 0.8958 0.0
C1536 C 0.28752 0.01855 0.88946 0.0
C1537 C 0.33822 0.0127 0.89841 0.0
C1538 C 0.24916 0.98078 0.88038 0.0
C1539 C 0.21211 0.01286 0.92141 0.0
N1540 N 0.31098 1.00135 0.89578 0.0
N1541 N 0.23982 0.02185 0.91578 0.0
H1542 H 0.4973 0.20121 0.9496 0.0
H1543 H 0.5002 0.34276 0.83619 0.0
H1544 H 0.55257 0.21256 0.86312 0.0
H1545 H 0.44863 0.33544 0.92601 0.0
H1546 H 0.52809 0.29984 0.85333 0.0
H1547 H 0.48681 0.25382 0.94885 0.0
C1548 C 0.50716 0.21471 0.93046 0.0
C1549 C 0.52425 0.20214 0.90509 0.0
C1550 C 0.51131 0.30809 0.86993 0.0
C1551 C 0.51338 0.26236 0.90474 0.0
C1552 C 0.49568 0.33286 0.86031 0.0
C1553 C 0.47226 0.34262 0.87987 0.0
C1554 C 0.50294 0.29268 0.89892 0.0
C1555 C 0.46672 0.3286 0.91045 0.0
C1556 C 0.50149 0.24479 0.93026 0.0
C1557 C 0.53815 0.22098 0.88233 0.0
N1558 N 0.4815 0.30395 0.91872 0.0
N1559 N 0.53193 0.24993 0.88223 0.0
H1560 H 0.15797 0.99236 0.65731 0.0
H1561 H 0.3057 0.02716 0.55928 0.0
H1562 H 0.17175 0.07278 0.6038 0.0
H1563 H 0.29206 0.95604 0.62791 0.0
H1564 H 0.25364 0.03936 0.56372 0.0
H1565 H 0.20295 0.97306 0.63348 0.0
C1566 C 0.17015 0.00567 0.63979 0.0
C1567 C 0.16137 0.03435 0.63289 0.0
C1568 C 0.26216 0.02104 0.57769 0.0
C1569 C 0.21348 0.01276 0.60616 0.0
C1570 C 0.29194 0.01453 0.57568 0.0
C1571 C 0.30377 0.99201 0.59509 0.0
C1572 C 0.24403 0.00425 0.59856 0.0
C1573 C 0.28441 0.97444 0.6135 0.0
C1574 C 0.19597 0.99475 0.62634 0.0
C1575 C 0.17786 0.0506 0.60986 0.0
N1576 N 0.25574 0.98116 0.6151 0.0
N1577 N 0.2035 0.03982 0.59784 0.0
H1578 H 0.50057 0.30686 0.64786 0.0
H1579 H 0.50903 0.15023 0.60245 0.0
H1580 H 0.53068 0.3 0.54576 0.0
H1581 H 0.42502 0.18831 0.62144 0.0
H1582 H 0.5269 0.19823 0.58363 0.0
H1583 H 0.48463 0.25643 0.64583 0.0
C1584 C 0.50454 0.29456 0.62526 0.0
C1585 C 0.51702 0.30768 0.59707 0.0
C1586 C 0.50421 0.19565 0.59037 0.0
C1587 C 0.49803 0.24983 0.5942 0.0
C1588 C 0.49394 0.16833 0.60088 0.0
C1589 C 0.46541 0.16538 0.6132 0.0
C1590 C 0.48592 0.22 0.59309 0.0
C1591 C 0.44698 0.18963 0.61172 0.0
C1592 C 0.49496 0.26587 0.62393 0.0
C1593 C 0.52075 0.29065 0.56791 0.0
N1594 N 0.45779 0.21614 0.6029 0.0
N1595 N 0.51122 0.26232 0.5671 0.0
H1596 H 0.19699 0.4905 0.55048 0.0
H1597 H 0.33698 0.47555 0.65301 0.0
H1598 H 0.21389 0.55278 0.62939 0.0
H1599 H 0.33893 0.46229 0.54587 0.0
H1600 H 0.2929 0.50524 0.64661 0.0
H1601 H 0.24905 0.47867 0.54914 0.0
C1602 C 0.21157 0.50137 0.56779 0.0
C1603 C 0.20087 0.52116 0.59164 0.0
C1604 C 0.30361 0.49673 0.62438 0.0
C1605 C 0.2603 0.50897 0.58928 0.0
C1606 C 0.32883 0.48007 0.62803 0.0
C1607 C 0.34131 0.46655 0.59988 0.0
C1608 C 0.29066 0.49903 0.59253 0.0
C1609 C 0.32971 0.4724 0.56808 0.0
C1610 C 0.24129 0.49514 0.56657 0.0
C1611 C 0.221 0.53627 0.61186 0.0
N1612 N 0.3045 0.48758 0.56529 0.0
N1613 N 0.24968 0.5294 0.61086 0.0
H1614 H 0.99272 0.34609 0.65944 0.0
H1615 H 0.01994 0.19804 0.55723 0.0
H1616 H 0.07005 0.3307 0.60076 0.0
H1617 H 0.94979 0.2129 0.62664 0.0
H1618 H 0.03373 0.2498 0.56236 0.0
H1619 H 0.97141 0.30144 0.6364 0.0
C1620 C 0.00505 0.33346 0.6413 0.0
C1621 C 0.03343 0.34175 0.6326 0.0
C1622 C 0.01529 0.24169 0.57645 0.0
C1623 C 0.00937 0.29022 0.60639 0.0
C1624 C 0.00781 0.21207 0.574 0.0
C1625 C 0.9853 0.20063 0.59373 0.0
C1626 C 0.99946 0.26008 0.59811 0.0
C1627 C 0.96835 0.22033 0.61241 0.0
C1628 C 0.9929 0.30793 0.62814 0.0
C1629 C 0.0482 0.32492 0.60841 0.0
N1630 N 0.97605 0.24889 0.6146 0.0
N1631 N 0.03623 0.2996 0.59662 0.0
H1632 H 0.07051 0.67772 0.22514 0.0
H1633 H 0.99813 0.83391 0.26493 0.0
H1634 H 0.99471 0.71162 0.17534 0.0
H1635 H 0.07088 0.80046 0.32111 0.0
H1636 H 0.9986 0.78991 0.23017 0.0
H1637 H 0.07298 0.72265 0.25899 0.0
C1638 C 0.05415 0.6943 0.22149 0.0
C1639 C 0.03155 0.69017 0.19816 0.0
C1640 C 0.0146 0.79213 0.24998 0.0
C1641 C 0.03472 0.74217 0.23632 0.0
C1642 C 0.01431 0.81735 0.26993 0.0
C1643 C 0.0343 0.8209 0.2963 0.0
C1644 C 0.03508 0.77001 0.25624 0.0
C1645 C 0.05515 0.7988 0.30097 0.0
C1646 C 0.05562 0.72007 0.24084 0.0
C1647 C 0.01145 0.71298 0.19428 0.0
N1648 N 0.05487 0.77425 0.28135 0.0
N1649 N 0.01349 0.7378 0.21299 0.0
H1650 H 0.69416 0.07863 0.30843 0.0
H1651 H 0.81151 0.98521 0.20769 0.0
H1652 H 0.68293 0.98817 0.28075 0.0
H1653 H 0.80783 0.07861 0.19517 0.0
H1654 H 0.76781 0.98711 0.24139 0.0
H1655 H 0.73767 0.08056 0.27243 0.0
C1656 C 0.70062 0.05916 0.2948 0.0
C1657 C 0.68484 0.03292 0.29842 0.0
C1658 C 0.77644 0.00728 0.23133 0.0
C1659 C 0.73511 0.03499 0.25756 0.0
C1660 C 0.80172 0.00624 0.21199 0.0
C1661 C 0.8137 0.03168 0.19796 0.0
C1662 C 0.76269 0.03408 0.23749 0.0
C1663 C 0.79957 0.05831 0.20524 0.0
C1664 C 0.72555 0.06034 0.27428 0.0
C1665 C 0.69445 0.00864 0.27976 0.0
N1666 N 0.77487 0.05884 0.22452 0.0
N1667 N 0.71895 0.01017 0.26065 0.0
H1668 H 0.51812 0.81665 0.20965 0.0
H1669 H 0.42294 0.69218 0.30001 0.0
H1670 H 0.42479 0.81401 0.19928 0.0
H1671 H 0.51561 0.68726 0.28438 0.0
H1672 H 0.42194 0.73733 0.26662 0.0
H1673 H 0.51637 0.77148 0.24126 0.0
C1674 C 0.49709 0.80687 0.21407 0.0
C1675 C 0.47159 0.81977 0.20119 0.0
C1676 C 0.44246 0.72624 0.27037 0.0
C1677 C 0.46947 0.7667 0.23841 0.0
C1678 C 0.44309 0.70023 0.2894 0.0
C1679 C 0.46948 0.68537 0.29546 0.0
C1680 C 0.46845 0.73804 0.25741 0.0
C1681 C 0.4947 0.69748 0.28083 0.0
C1682 C 0.49617 0.78068 0.23223 0.0
C1683 C 0.44513 0.80535 0.20856 0.0
N1684 N 0.49356 0.72291 0.26301 0.0
N1685 N 0.44477 0.77977 0.22654 0.0
H1686 H 0.6996 0.43149 0.18092 0.0
H1687 H 0.79413 0.51003 0.32459 0.0
H1688 H 0.67864 0.51488 0.22527 0.0
H1689 H 0.82445 0.43375 0.27189 0.0
H1690 H 0.75044 0.51011 0.29039 0.0
H1691 H 0.74313 0.4292 0.21651 0.0
C1692 C 0.70406 0.44939 0.19804 0.0
C1693 C 0.68569 0.47396 0.1991 0.0
C1694 C 0.76677 0.49356 0.28573 0.0
C1695 C 0.73559 0.47126 0.24031 0.0
C1696 C 0.79225 0.49403 0.30476 0.0
C1697 C 0.81418 0.47314 0.29981 0.0
C1698 C 0.76252 0.47158 0.26155 0.0
C1699 C 0.80876 0.45087 0.27612 0.0
C1700 C 0.72904 0.44806 0.21831 0.0
C1701 C 0.69253 0.49609 0.22238 0.0
N1702 N 0.7836 0.45079 0.25772 0.0
N1703 N 0.71682 0.49427 0.24181 0.0
H1704 H 0.00597 0.1709 0.73364 0.0
H1705 H 0.93283 0.32472 0.77991 0.0
H1706 H 0.93174 0.20459 0.68042 0.0
H1707 H 0.01752 0.29769 0.81423 0.0
H1708 H 0.92934 0.27968 0.74665 0.0
H1709 H 0.0069 0.21504 0.76818 0.0
C1710 C 0.99014 0.18781 0.72875 0.0
C1711 C 0.96991 0.18478 0.70251 0.0
C1712 C 0.94871 0.28371 0.76144 0.0
C1713 C 0.97008 0.23518 0.74312 0.0
C1714 C 0.95081 0.30957 0.78035 0.0
C1715 C 0.97583 0.31554 0.7995 0.0
C1716 C 0.97141 0.26319 0.76242 0.0
C1717 C 0.99813 0.29456 0.79932 0.0
C1718 C 0.99052 0.21296 0.74876 0.0
C1719 C 0.94849 0.20646 0.69936 0.0
N1720 N 0.99533 0.26939 0.78135 0.0
N1721 N 0.94933 0.2309 0.71909 0.0
H1722 H 0.32785 0.01966 0.73115 0.0
H1723 H 0.17723 0.93806 0.77503 0.0
H1724 H 0.30218 0.93812 0.68536 0.0
H1725 H 0.20932 0.01315 0.82869 0.0
H1726 H 0.22199 0.93791 0.74105 0.0
H1727 H 0.28405 0.01824 0.76597 0.0
C1728 C 0.31298 1.00158 0.72808 0.0
C1729 C 0.31865 0.97944 0.70436 0.0
C1730 C 0.21905 0.95473 0.75996 0.0
C1731 C 0.26808 0.97735 0.74496 0.0
C1732 C 0.1934 0.95484 0.77934 0.0
C1733 C 0.18871 0.9766 0.80375 0.0
C1734 C 0.24045 0.97635 0.76524 0.0
C1735 C 0.21091 0.99732 0.80864 0.0
C1736 C 0.28793 1.00064 0.74827 0.0
C1737 C 0.29882 0.95593 0.70288 0.0
N1738 N 0.23559 0.99677 0.78964 0.0
N1739 N 0.27444 0.95565 0.72253 0.0
H1740 H 0.56717 0.17807 0.77265 0.0
H1741 H 0.49389 0.33497 0.73372 0.0
H1742 H 0.49002 0.21067 0.82138 0.0
H1743 H 0.56735 0.30169 0.67822 0.0
H1744 H 0.49404 0.29048 0.76777 0.0
H1745 H 0.56916 0.22327 0.73902 0.0
C1746 C 0.55064 0.19461 0.77628 0.0
C1747 C 0.52807 0.19007 0.79958 0.0
C1748 C 0.51019 0.29286 0.74817 0.0
C1749 C 0.53056 0.24245 0.76164 0.0
C1750 C 0.51015 0.31844 0.72868 0.0
C1751 C 0.53069 0.32251 0.70291 0.0
C1752 C 0.53075 0.27064 0.74191 0.0
C1753 C 0.55127 0.29999 0.69798 0.0
C1754 C 0.55177 0.22049 0.75708 0.0
C1755 C 0.50736 0.21257 0.80316 0.0
N1756 N 0.55067 0.27517 0.71701 0.0
N1757 N 0.50919 0.23755 0.7847 0.0
H1758 H 0.17126 0.4952 0.73282 0.0
H1759 H 0.3239 0.57005 0.78175 0.0
H1760 H 0.20391 0.57106 0.68152 0.0
H1761 H 0.29655 0.48502 0.81559 0.0
H1762 H 0.27987 0.57278 0.74675 0.0
H1763 H 0.21554 0.49393 0.76651 0.0
C1764 C 0.18803 0.51118 0.7279 0.0
C1765 C 0.18451 0.53191 0.7023 0.0
C1766 C 0.28354 0.55354 0.76187 0.0
C1767 C 0.23531 0.53155 0.74245 0.0
C1768 C 0.30875 0.55194 0.78187 0.0
C1769 C 0.3142 0.52719 0.80174 0.0
C1770 C 0.26315 0.53055 0.76227 0.0
C1771 C 0.29363 0.50442 0.80059 0.0
C1772 C 0.21331 0.51066 0.74755 0.0
C1773 C 0.20611 0.55369 0.69963 0.0
N1774 N 0.26911 0.50676 0.78157 0.0
N1775 N 0.23064 0.55277 0.71907 0.0
H1776 H 0.16776 0.73616 0.09768 0.0
H1777 H 0.31971 0.76862 0.18715 0.0
H1778 H 0.22232 0.6674 0.1356 0.0
H1779 H 0.27554 0.82858 0.12157 0.0
H1780 H 0.28232 0.73161 0.17496 0.0
H1781 H 0.2033 0.77223 0.11733 0.0
C1782 C 0.18689 0.72887 0.11113 0.0
C1783 C 0.19257 0.69914 0.11497 0.0
C1784 C 0.28095 0.75281 0.16311 0.0
C1785 C 0.23346 0.7396 0.1362 0.0
C1786 C 0.3023 0.77365 0.16978 0.0
C1787 C 0.30028 0.80131 0.15529 0.0
C1788 C 0.25737 0.76024 0.14246 0.0
C1789 C 0.27759 0.80728 0.13306 0.0
C1790 C 0.20731 0.74927 0.12184 0.0
C1791 C 0.21754 0.69036 0.13225 0.0
N1792 N 0.25672 0.78693 0.12755 0.0
N1793 N 0.23744 0.71059 0.14195 0.0
H1794 H 0.82794 0.22296 0.15164 0.0
H1795 H 0.72727 0.30891 0.07574 0.0
H1796 H 0.7572 0.17365 0.10872 0.0
H1797 H 0.67413 0.29233 0.16281 0.0
H1798 H 0.76389 0.27524 0.09763 0.0
H1799 H 0.79322 0.26079 0.16929 0.0
C1800 C 0.80489 0.21936 0.14774 0.0
C1801 C 0.79518 0.19567 0.12835 0.0
C1802 C 0.74469 0.27991 0.11254 0.0
C1803 C 0.75603 0.23824 0.14817 0.0
C1804 C 0.72388 0.29887 0.10004 0.0
C1805 C 0.69789 0.30301 0.11757 0.0
C1806 C 0.73902 0.26457 0.14222 0.0
C1807 C 0.69406 0.28933 0.14872 0.0
C1808 C 0.78522 0.24085 0.15779 0.0
C1809 C 0.76531 0.19183 0.12352 0.0
N1810 N 0.71411 0.26972 0.1597 0.0
N1811 N 0.74673 0.21345 0.13254 0.0
H1812 H 0.31516 0.73773 0.30266 0.0
H1813 H 0.17138 0.76475 0.40944 0.0
H1814 H 0.28447 0.68158 0.38174 0.0
H1815 H 0.21579 0.83544 0.36001 0.0
H1816 H 0.20803 0.7308 0.38801 0.0
H1817 H 0.27688 0.77309 0.31703 0.0
C1818 C 0.30068 0.73332 0.32351 0.0
C1819 C 0.30252 0.70699 0.34106 0.0
C1820 C 0.20958 0.75369 0.38148 0.0
C1821 C 0.25848 0.74595 0.35634 0.0
C1822 C 0.1885 0.77282 0.39322 0.0
C1823 C 0.19117 0.8026 0.38666 0.0
C1824 C 0.23343 0.76472 0.3635 0.0
C1825 C 0.21345 0.81243 0.36558 0.0
C1826 C 0.27878 0.75316 0.3314 0.0
C1827 C 0.28355 0.70182 0.3678 0.0
N1828 N 0.23422 0.79348 0.35505 0.0
N1829 N 0.26192 0.72099 0.37434 0.0
H1830 H 0.76309 0.3327 0.36592 0.0
H1831 H 0.74122 0.16978 0.38717 0.0
H1832 H 0.83465 0.27243 0.37165 0.0
H1833 H 0.67344 0.22623 0.35105 0.0
H1834 H 0.77759 0.20378 0.36559 0.0
H1835 H 0.73225 0.29355 0.34388 0.0
C1836 C 0.77254 0.31142 0.36112 0.0
C1837 C 0.8011 0.3054 0.37093 0.0
C1838 C 0.75482 0.20833 0.3611 0.0
C1839 C 0.76598 0.26033 0.34719 0.0
C1840 C 0.73412 0.18879 0.37332 0.0
C1841 C 0.70457 0.19561 0.37111 0.0
C1842 C 0.74569 0.23516 0.3476 0.0
C1843 C 0.6962 0.22057 0.35341 0.0
C1844 C 0.75498 0.28898 0.34868 0.0
C1845 C 0.8125 0.27759 0.36463 0.0
N1846 N 0.7167 0.23991 0.34304 0.0
N1847 N 0.79467 0.25579 0.35394 0.0
H1848 H 0.69514 0.19737 0.89155 0.0
H1849 H 0.80624 0.32272 0.84187 0.0
H1850 H 0.7246 0.20667 0.78914 0.0
H1851 H 0.79724 0.28608 0.94095 0.0
H1852 H 0.7733 0.28472 0.81991 0.0
H1853 H 0.72657 0.2375 0.90812 0.0
C1854 C 0.70788 0.20825 0.87243 0.0
C1855 C 0.70779 0.19848 0.83908 0.0
C1856 C 0.7788 0.28499 0.84636 0.0
C1857 C 0.74439 0.24374 0.85802 0.0
C1858 C 0.79757 0.30642 0.8588 0.0
C1859 C 0.80358 0.30768 0.89332 0.0
C1860 C 0.76623 0.26513 0.86884 0.0
C1861 C 0.79231 0.28616 0.91436 0.0
C1862 C 0.72612 0.23086 0.88197 0.0
C1863 C 0.72475 0.21328 0.81529 0.0
N1864 N 0.77391 0.26587 0.90181 0.0
N1865 N 0.74273 0.23521 0.82529 0.0
H1866 H 0.27326 0.69098 0.91635 0.0
H1867 H 0.1745 0.77816 0.84042 0.0
H1868 H 0.33194 0.71689 0.83745 0.0
H1869 H 0.24 0.82588 0.89528 0.0
H1870 H 0.212 0.74352 0.82151 0.0
H1871 H 0.23652 0.72408 0.89365 0.0
C1872 C 0.2779 0.70298 0.89356 0.0
C1873 C 0.30536 0.70176 0.87871 0.0
C1874 C 0.21827 0.7625 0.83618 0.0
C1875 C 0.26416 0.73938 0.85319 0.0
C1876 C 0.19702 0.78198 0.84715 0.0
C1877 C 0.20445 0.80406 0.86999 0.0
C1878 C 0.24661 0.7654 0.8486 0.0
C1879 C 0.23368 0.80867 0.87799 0.0
C1880 C 0.25704 0.72155 0.88052 0.0
C1881 C 0.31084 0.71781 0.84949 0.0
N1882 N 0.25378 0.78887 0.86799 0.0
N1883 N 0.29061 0.73701 0.83817 0.0
H1884 H 0.84021 0.22331 0.6262 0.0
H1885 H 0.67907 0.28133 0.65844 0.0
H1886 H 0.76406 0.17314 0.59976 0.0
H1887 H 0.75549 0.33588 0.65189 0.0
H1888 H 0.70949 0.23833 0.64756 0.0
H1889 H 0.80886 0.26087 0.65062 0.0
C1890 C 0.81687 0.21997 0.62632 0.0
C1891 C 0.80444 0.19576 0.61025 0.0
C1892 C 0.71951 0.25974 0.64863 0.0
C1893 C 0.7687 0.23844 0.63735 0.0
C1894 C 0.70221 0.2842 0.65445 0.0
C1895 C 0.71501 0.31198 0.65636 0.0
C1896 C 0.74964 0.26332 0.64482 0.0
C1897 C 0.74499 0.3147 0.65125 0.0
C1898 C 0.79902 0.24144 0.63991 0.0
C1899 C 0.7742 0.1921 0.6112 0.0
N1900 N 0.76134 0.29061 0.64578 0.0
N1901 N 0.75717 0.21354 0.62412 0.0
H1902 H 0.32753 0.78257 0.66806 0.0
H1903 H 0.23596 0.67406 0.59345 0.0
H1904 H 0.27653 0.81078 0.58346 0.0
H1905 H 0.17168 0.7204 0.65156 0.0
H1906 H 0.27284 0.70912 0.61233 0.0
H1907 H 0.28837 0.74795 0.68312 0.0
C1908 C 0.30775 0.78189 0.6533 0.0
C1909 C 0.30514 0.79869 0.62416 0.0
C1910 C 0.25095 0.71063 0.62233 0.0
C1911 C 0.26107 0.76036 0.64128 0.0
C1912 C 0.23004 0.69071 0.61164 0.0
C1913 C 0.20106 0.69457 0.62119 0.0
C1914 C 0.2425 0.7346 0.64202 0.0
C1915 C 0.19401 0.71699 0.64386 0.0
C1916 C 0.28557 0.76249 0.66199 0.0
C1917 C 0.27921 0.79776 0.60588 0.0
N1918 N 0.21452 0.737 0.65272 0.0
N1919 N 0.25827 0.77832 0.61438 0.0
H1920 H 0.01706 0.47207 0.90693 0.0
H1921 H 0.98321 0.53465 0.09086 0.0
H1922 H 0.968 0.42407 0.98085 0.0
H1923 H 0.03354 0.58115 0.01686 0.0
H1924 H 0.9773 0.49421 0.05127 0.0
H1925 H 0.023 0.51192 0.94685 0.0
C1926 C 0.00745 0.46983 0.93162 0.0
C1927 C 0.99187 0.44452 0.94041 0.0
C1928 C 0.98967 0.5132 0.04362 0.0
C1929 C 0.99869 0.49065 0.98663 0.0
C1930 C 0.99301 0.53642 0.0662 0.0
C1931 C 0.00894 0.56145 0.05721 0.0
C1932 C 0.00218 0.5149 0.01156 0.0
C1933 C 0.02126 0.56227 0.02498 0.0
C1934 C 0.01087 0.49277 0.95445 0.0
C1935 C 0.97992 0.44321 0.97282 0.0
N1936 N 0.01761 0.53937 0.00335 0.0
N1937 N 0.98357 0.46594 0.99474 0.0
H1938 H 0.02857 0.97874 0.90954 0.0
H1939 H 0.97403 0.02761 0.09325 0.0
H1940 H 0.08764 0.9985 0.9904 0.0
H1941 H 0.91643 0.009 0.01064 0.0
H1942 H 0.01594 0.01797 0.0565 0.0
H1943 H 0.98745 0.98788 0.94719 0.0
C1944 C 0.03281 0.98463 0.93548 0.0
C1945 C 0.06149 0.9874 0.94703 0.0
C1946 C 0.99419 0.01616 0.04627 0.0
C1947 C 0.01442 0.99936 0.99012 0.0
C1948 C 0.97029 0.02195 0.06713 0.0
C1949 C 0.94179 0.01962 0.05472 0.0
C1950 C 0.98957 0.00723 0.01284 0.0
C1951 C 0.93806 0.01166 0.02097 0.0
C1952 C 0.00933 0.99013 0.95692 0.0
C1953 C 0.06583 0.99554 0.9807 0.0
N1954 N 0.96162 0.00557 0.00132 0.0
N1955 N 0.04256 1.00147 0.00101 0.0
H1956 H 0.5374 0.08223 0.97869 0.0
H1957 H 0.46537 0.92491 0.01766 0.0
H1958 H 0.49174 0.0306 0.90479 0.0
H1959 H 0.5092 0.97728 0.09235 0.0
H1960 H 0.47468 0.96332 0.97605 0.0
H1961 H 0.52786 0.04402 0.02055 0.0
C1962 C 0.52565 0.06276 0.97114 0.0
C1963 C 0.51531 0.05978 0.93808 0.0
C1964 C 0.48212 0.96652 0.0016 0.0
C1965 C 0.50424 0.0157 0.98601 0.0
C1966 C 0.4766 0.94461 0.02545 0.0
C1967 C 0.48643 0.94775 0.05868 0.0
C1968 C 0.4975 0.99198 0.01093 0.0
C1969 C 0.50137 0.97368 0.06703 0.0
C1970 C 0.52005 0.04095 0.99512 0.0
C1971 C 0.49989 0.0341 0.92999 0.0
N1972 N 0.5064 0.99465 0.04348 0.0
N1973 N 0.49492 0.01317 0.95361 0.0
H1974 H 0.58907 0.49818 0.01002 0.0
H1975 H 0.41518 0.50935 0.9875 0.0
H1976 H 0.52803 0.48383 0.09031 0.0
H1977 H 0.47602 0.52284 0.90681 0.0
H1978 H 0.45619 0.50091 0.02591 0.0
H1979 H 0.54813 0.5074 0.97169 0.0
C1980 C 0.567 0.49638 0.01932 0.0
C1981 C 0.5618 0.49003 0.05318 0.0
C1982 C 0.46064 0.5061 -9e-05 0.0
C1983 C 0.51486 0.50077 0.0098 0.0
C1984 C 0.43723 0.51117 0.97812 0.0
C1985 C 0.44234 0.51698 0.94413 0.0
C1986 C 0.48939 0.5071 0.98761 0.0
C1987 C 0.47127 0.51841 0.93294 0.0
C1988 C 0.54363 0.50188 0.99759 0.0
C1989 C 0.53286 0.48866 0.06429 0.0
N1990 N 0.49367 0.51357 0.95458 0.0
N1991 N 0.51052 0.4939 0.0427 0.0
H1992 H 0.97564 0.08535 0.51464 0.0
H1993 H 0.02861 0.91987 0.48505 0.0
H1994 H 0.00749 0.03016 0.59389 0.0
H1995 H 0.99663 0.97558 0.40634 0.0
H1996 H 0.02139 0.95993 0.52554 0.0
H1997 H 0.98268 0.04506 0.47459 0.0
C1998 C 0.98382 0.06462 0.52357 0.0
C1999 C 0.99112 0.06099 0.55742 0.0
C2000 C 0.01608 0.96343 0.49938 0.0
C2001 C 0.99935 0.01489 0.51202 0.0
C2002 C 0.02035 0.94064 0.47633 0.0
C2003 C 0.01305 0.94449 0.44249 0.0
C2004 C 0.00469 0.99026 0.48833 0.0
C2005 C 0.00219 0.97168 0.43237 0.0
C2006 C 0.98799 0.04167 0.50077 0.0
C2007 C 0.00191 0.03383 0.56782 0.0
N2008 N 0.99837 0.99352 0.45515 0.0
N2009 N 0.00568 0.01181 0.54523 0.0
H2010 H 0.4714 0.01442 0.59509 0.0
H2011 H 0.53249 0.98985 0.40891 0.0
H2012 H 0.42434 0.96704 0.51853 0.0
H2013 H 0.57785 0.04019 0.48441 0.0
H2014 H 0.49307 0.98131 0.44847 0.0
H2015 H 0.51064 0.02322 0.55529 0.0
C2016 C 0.4694 0.00557 0.56989 0.0
C2017 C 0.44443 0.98979 0.56027 0.0
C2018 C 0.51154 0.99428 0.45648 0.0
C2019 C 0.48972 0.99999 0.51421 0.0
C2020 C 0.53422 0.9992 0.43388 0.0
C2021 C 0.55881 0.01566 0.44335 0.0
C2022 C 0.51324 0.00575 0.48912 0.0
C2023 C 0.55939 0.02744 0.47594 0.0
C2024 C 0.4919 0.01071 0.54714 0.0
C2025 C 0.44327 0.97889 0.52729 0.0
N2026 N 0.53702 0.02215 0.49768 0.0
N2027 N 0.46555 0.98425 0.50544 0.0
H2028 H 0.55921 0.46651 0.56209 0.0
H2029 H 0.44777 0.53457 0.42893 0.0
H2030 H 0.47307 0.4327 0.54568 0.0
H2031 H 0.52676 0.57827 0.45908 0.0
H2032 H 0.45771 0.49605 0.46918 0.0
H2033 H 0.54955 0.50541 0.52159 0.0
C2034 C 0.53857 0.46678 0.54931 0.0
C2035 C 0.5173 0.44579 0.55674 0.0
C2036 C 0.47291 0.51405 0.4671 0.0
C2037 C 0.50549 0.49099 0.51078 0.0
C2038 C 0.4671 0.53638 0.44416 0.0
C2039 C 0.48609 0.56034 0.44067 0.0
C2040 C 0.49841 0.51495 0.48648 0.0
C2041 C 0.5113 0.56051 0.46076 0.0
C2042 C 0.53281 0.48934 0.52653 0.0
C2043 C 0.49024 0.44823 0.54057 0.0
N2044 N 0.51675 0.5382 0.48258 0.0
N2045 N 0.48517 0.47023 0.51831 0.0
H2046 H 0.04219 0.47423 0.58136 0.0
H2047 H 0.96031 0.52729 0.41548 0.0
H2048 H 0.0738 0.54399 0.51848 0.0
H2049 H 0.92752 0.45862 0.47917 0.0
H2050 H 1.001 0.53414 0.45341 0.0
H2051 H 1.00098 0.46774 0.54392 0.0
C2052 C 0.04053 0.48843 0.55977 0.0
C2053 C 0.06152 0.51027 0.55372 0.0
C2054 C 0.98512 0.51737 0.45904 0.0
C2055 C 0.0135 0.50283 0.51043 0.0
C2056 C 0.9616 0.51338 0.43734 0.0
C2057 C 0.94046 0.49168 0.44341 0.0
C2058 C 0.98799 0.49954 0.48732 0.0
C2059 C 0.94358 0.47491 0.47265 0.0
C2060 C 0.01673 0.48466 0.53839 0.0
C2061 C 0.05791 0.5275 0.52492 0.0
N2062 N 0.96697 0.47905 0.49334 0.0
N2063 N 0.03433 0.52352 0.50451 0.0
H2064 H 0.94437 0.45505 0.27719 0.0
H2065 H 0.02264 0.59941 0.23721 0.0
H2066 H 0.95535 0.52672 0.34637 0.0
H2067 H 0.01881 0.52648 0.16849 0.0
H2068 H 0.01477 0.56623 0.28387 0.0
H2069 H 0.98575 0.47294 0.24449 0.0
C2070 C 0.95586 0.47438 0.28557 0.0
C2071 C 0.94604 0.49044 0.3132 0.0
C2072 C 0.01605 0.55726 0.2587 0.0
C2073 C 0.99278 0.51099 0.27655 0.0
C2074 C 0.02038 0.57624 0.23216 0.0
C2075 C 0.02009 0.56552 0.19929 0.0
C2076 C 0.00963 0.52781 0.25189 0.0
C2077 C 0.01823 0.53541 0.19373 0.0
C2078 C 0.97954 0.48448 0.26719 0.0
C2079 C 0.96179 0.51469 0.32413 0.0
N2080 N 0.012 0.51754 0.21982 0.0
N2081 N 0.98414 0.52467 0.30531 0.0
H2082 H 0.98663 0.90802 0.28454 0.0
H2083 H 0.97738 0.03213 0.16661 0.0
H2084 H 0.03044 0.98198 0.33008 0.0
H2085 H 0.90071 1.00176 0.21881 0.0
H2086 H 0.00742 0.01354 0.21336 0.0
H2087 H 0.96612 0.94 0.24285 0.0
C2088 C 0.99188 0.93107 0.28591 0.0
C2089 C 0.0097 0.94267 0.31116 0.0
C2090 C 0.98394 0.01195 0.21461 0.0
C2091 C 0.98637 0.97894 0.26345 0.0
C2092 C 0.96699 0.02204 0.18806 0.0
C2093 C 0.93689 0.01735 0.18862 0.0
C2094 C 0.97022 0.99752 0.24116 0.0
C2095 C 0.92402 0.00483 0.21695 0.0
C2096 C 0.98036 0.94912 0.26195 0.0
C2097 C 0.01632 0.97257 0.31113 0.0
N2098 N 0.94089 0.99478 0.24191 0.0
N2099 N 0.00421 0.99013 0.28754 0.0
H2100 H 0.52545 0.03673 0.32637 0.0
H2101 H 0.51503 0.95575 0.15045 0.0
H2102 H 0.59654 0.99646 0.27228 0.0
H2103 H 0.45457 0.93668 0.23031 0.0
H2104 H 0.53673 0.99359 0.18494 0.0
H2105 H 0.49231 0.02139 0.2806 0.0
C2106 C 0.53407 0.02517 0.30476 0.0
C2107 C 0.56348 0.01721 0.30327 0.0
C2108 C 0.51831 0.98142 0.19456 0.0
C2109 C 0.52663 1.001 0.25141 0.0
C2110 C 0.50622 0.95929 0.17512 0.0
C2111 C 0.4846 0.94125 0.18868 0.0
C2112 C 0.50804 0.98602 0.22725 0.0
C2113 C 0.47279 0.94872 0.22006 0.0
C2114 C 0.51533 0.01665 0.27883 0.0
C2115 C 0.5739 1.00262 0.27472 0.0
N2116 N 0.48514 0.9702 0.23881 0.0
N2117 N 0.55543 0.99484 0.25001 0.0
H2118 H 0.50821 0.54902 0.34893 0.0
H2119 H 0.52327 0.47733 0.16726 0.0
H2120 H 0.45639 0.5731 0.26342 0.0
H2121 H 0.59596 0.49747 0.23204 0.0
H2122 H 0.49003 0.49296 0.21236 0.0
H2123 H 0.53236 0.51145 0.3145 0.0
C2124 C 0.50262 0.54679 0.32265 0.0
C2125 C 0.48261 0.56561 0.30768 0.0
C2126 C 0.51328 0.49314 0.21675 0.0
C2127 C 0.50712 0.52129 0.26987 0.0
C2128 C 0.5321 0.48438 0.1912 0.0
C2129 C 0.56211 0.48717 0.1959 0.0
C2130 C 0.52492 0.50412 0.24687 0.0
C2131 C 0.57281 0.49591 0.22729 0.0
C2132 C 0.51551 0.52489 0.3035 0.0
C2133 C 0.47315 0.55991 0.27494 0.0
N2134 N 0.55416 0.50448 0.25158 0.0
N2135 N 0.48587 0.53841 0.25677 0.0
H2136 H 0.09659 0.52769 0.73526 0.0
H2137 H 0.95621 0.44347 0.77195 0.0
H2138 H 0.02637 0.51986 0.66413 0.0
H2139 H 0.02388 0.46125 0.84388 0.0
H2140 H 0.97275 0.48502 0.73848 0.0
H2141 H 0.06235 0.52025 0.78092 0.0
C2142 C 0.07373 0.52482 0.7295 0.0
C2143 C 0.06413 0.52321 0.69634 0.0
C2144 C 0.98368 0.48023 0.76191 0.0
C2145 C 0.02528 0.51296 0.74775 0.0
C2146 C 0.97443 0.4564 0.78067 0.0
C2147 C 0.9898 0.44853 0.80946 0.0
C2148 C 0.00867 0.49561 0.7721 0.0
C2149 C 0.0125 0.46614 0.82083 0.0
C2150 C 0.05412 0.52068 0.75544 0.0
C2151 C 0.03441 0.52036 0.6897 0.0
N2152 N 0.02168 0.48864 0.80172 0.0
N2153 N 0.01598 0.51419 0.71529 0.0
H2154 H 0.02762 0.09291 0.70308 0.0
H2155 H 0.02379 0.97857 0.82485 0.0
H2156 H 0.97055 0.02459 0.66695 0.0
H2157 H 0.10585 0.99218 0.77474 0.0
H2158 H 0.99843 0.99459 0.77355 0.0
H2159 H 0.05256 0.05767 0.73749 0.0
C2160 C 0.02094 0.07029 0.70155 0.0
C2161 C 0.99787 0.06128 0.68118 0.0
C2162 C 0.02193 0.99286 0.7736 0.0
C2163 C 0.02534 0.02153 0.72186 0.0
C2164 C 0.03624 0.98433 0.80272 0.0
C2165 C 0.06659 0.98473 0.80349 0.0
C2166 C 0.03846 1.00232 0.74617 0.0
C2167 C 0.08229 0.9919 0.77468 0.0
C2168 C 0.03505 0.05035 0.72136 0.0
C2169 C 0.9888 0.03202 0.68193 0.0
N2170 N 0.06796 1.00129 0.74722 0.0
N2171 N 0.00239 0.01291 0.70267 0.0
H2172 H 0.39635 0.01327 0.71759 0.0
H2173 H 0.54648 0.06857 0.76942 0.0
H2174 H 0.47212 0.97794 0.66833 0.0
H2175 H 0.48229 0.05094 0.84564 0.0
H2176 H 0.52143 0.03488 0.73169 0.0
H2177 H 0.42737 0.03082 0.76352 0.0
C2178 C 0.41962 0.01004 0.71606 0.0
C2179 C 0.43213 0.99552 0.68872 0.0
C2180 C 0.51283 0.03842 0.75672 0.0
C2181 C 0.46707 0.01368 0.74143 0.0
C2182 C 0.52684 0.05784 0.77803 0.0
C2183 C 0.51462 0.06466 0.80929 0.0
C2184 C 0.48629 0.02636 0.76676 0.0
C2185 C 0.491 0.04812 0.82069 0.0
C2186 C 0.4371 0.01918 0.74261 0.0
C2187 C 0.46208 0.99015 0.68861 0.0
N2188 N 0.4766 0.03053 0.79874 0.0
N2189 N 0.47875 0.9996 0.71449 0.0
H2190 H 0.405 0.49472 0.77311 0.0
H2191 H 0.55191 0.43994 0.7276 0.0
H2192 H 0.47767 0.53468 0.82481 0.0
H2193 H 0.48892 0.45719 0.65004 0.0
H2194 H 0.52856 0.477 0.76292 0.0
H2195 H 0.4367 0.48158 0.72736 0.0
C2196 C 0.42768 0.50107 0.77465 0.0
C2197 C 0.43898 0.51536 0.80292 0.0
C2198 C 0.52014 0.47278 0.73796 0.0
C2199 C 0.47533 0.50041 0.75039 0.0
C2200 C 0.53296 0.45131 0.71816 0.0
C2201 C 0.5206 0.44369 0.68715 0.0
C2202 C 0.49479 0.4863 0.72647 0.0
C2203 C 0.49748 0.4603 0.67491 0.0
C2204 C 0.44567 0.49392 0.74822 0.0
C2205 C 0.46842 0.52327 0.80344 0.0
N2206 N 0.48473 0.48038 0.69505 0.0
N2207 N 0.486 0.51497 0.77767 0.0
loop_
_geom_bond_atom_site_label_1
_geom_bond_atom_site_label_2
_geom_bond_distance
_geom_bond_site_symmetry_2
_ccdc_geom_bond_type
C0 C2 1.422 . S
C0 C4 1.415 . S
C0 N6 1.369 . S
C1 C2 1.421 . S
C1 C3 1.417 . S
C1 C13 1.422 . S
C2 C0 1.422 . S
C2 C1 1.421 . S
C2 N12 1.359 . S
C3 C1 1.417 . S
C3 C5 1.329 . S
C3 H22 0.930 . S
C4 C0 1.415 . S
C4 C5 1.437 . S
C4 C8 1.413 . S
C5 C3 1.329 . S
C5 C4 1.437 . S
C5 H27 0.929 . S
N6 C0 1.369 . S
N6 C7 1.338 . S
N6 Gd11 2.622 . S
C7 N6 1.338 . S
C7 C9 1.378 . S
C7 H19 0.929 . S
C8 C4 1.413 . S
C8 C9 1.348 . S
C8 H24 0.931 . S
C9 C7 1.378 . S
C9 C8 1.348 . S
C9 H25 0.930 . S
Gd10 N30 2.622 . S
Gd10 N37 2.570 . S
Gd10 O44 2.353 . S
Gd10 O45 2.468 . S
Gd10 O46 2.427 . S
Gd10 O48 2.388 . S
Gd10 O49 2.386 . S
Gd10 O53 2.307 . S
Gd10 C63 2.805 . S
Gd11 N6 2.622 . S
Gd11 N12 2.570 . S
Gd11 O43 2.386 1_655 S
Gd11 O47 2.307 1_655 S
Gd11 O50 2.353 . S
Gd11 O51 2.468 . S
Gd11 O52 2.427 . S
Gd11 O54 2.382 1_655 S
Gd11 C75 2.805 . S
N12 C2 1.359 . S
N12 Gd11 2.570 . S
N12 C14 1.343 . S
C13 C1 1.422 . S
C13 C15 1.321 . S
C13 H21 0.931 . S
C14 N12 1.343 . S
C14 C15 1.390 . S
C14 H16 0.931 . S
C15 C13 1.321 . S
C15 C14 1.390 . S
C15 H17 0.930 . S
H16 C14 0.931 . S
H17 C15 0.930 . S
H18 C41 0.931 . S
H19 C7 0.929 . S
H20 C42 0.930 . S
H21 C13 0.931 . S
H22 C3 0.930 . S
H23 C32 0.929 . S
H24 C8 0.931 . S
H25 C9 0.930 . S
H26 C64 0.930 . S
H27 C5 0.929 . S
H28 C33 0.931 . S
H29 C34 0.930 . S
N30 Gd10 2.622 . S
N30 C31 1.369 . S
N30 C32 1.338 . S
C31 N30 1.369 . S
C31 C35 1.415 . S
C31 C38 1.422 . S
C32 H23 0.929 . S
C32 N30 1.338 . S
C32 C34 1.378 . S
C33 H28 0.931 . S
C33 C34 1.348 . S
C33 C35 1.413 . S
C34 H29 0.930 . S
C34 C32 1.378 . S
C34 C33 1.348 . S
C35 C31 1.415 . S
C35 C33 1.413 . S
C35 C65 1.437 . S
H36 C65 0.929 . S
N37 Gd10 2.570 . S
N37 C38 1.359 . S
N37 C41 1.343 . S
C38 C31 1.422 . S
C38 N37 1.359 . S
C38 C40 1.421 . S
C39 C40 1.422 . S
C39 C42 1.321 . S
C39 H66 0.931 . S
C40 C38 1.421 . S
C40 C39 1.422 . S
C40 C64 1.417 . S
C41 H18 0.931 . S
C41 N37 1.343 . S
C41 C42 1.390 . S
C42 H20 0.930 . S
C42 C39 1.321 . S
C42 C41 1.390 . S
O43 Gd11 2.386 1_455 S
O43 C55 1.265 . S
O44 Gd10 2.353 . S
O44 C55 1.242 . S
O45 Gd10 2.468 . S
O45 C63 1.263 . S
O46 Gd10 2.427 . S
O46 C63 1.252 . S
O47 Gd11 2.307 1_455 S
O47 C56 1.261 . S
O48 Gd10 2.388 . S
O48 C56 1.252 . S
O49 Gd10 2.386 . S
O49 C67 1.265 . S
O50 Gd11 2.353 . S
O50 C67 1.242 1_655 S
O51 Gd11 2.468 . S
O51 C75 1.263 . S
O52 Gd11 2.427 . S
O52 C75 1.252 . S
O53 Gd10 2.307 . S
O53 C68 1.261 . S
O54 Gd11 2.382 1_455 S
O54 C68 1.266 . S
C55 O43 1.265 . S
C55 O44 1.242 . S
C56 O47 1.261 . S
C56 O48 1.252 . S
C57 C60 1.394 . S
C57 C62 1.370 . S
C57 C63 1.500 . S
C58 C61 1.383 . S
C58 C62 1.395 . S
C59 C60 1.396 . S
C59 C61 1.365 . S
C59 H76 0.929 . S
C60 C57 1.394 . S
C60 C59 1.396 . S
C60 H77 0.930 . S
C61 C58 1.383 . S
C61 C59 1.365 . S
C61 H78 0.931 . S
C62 C57 1.370 . S
C62 C58 1.395 . S
C62 H79 0.930 . S
C63 Gd10 2.805 . S
C63 O45 1.263 . S
C63 O46 1.252 . S
C63 C57 1.500 . S
C64 H26 0.930 . S
C64 C40 1.417 . S
C64 C65 1.329 . S
C65 C35 1.437 . S
C65 H36 0.929 . S
C65 C64 1.329 . S
H66 C39 0.931 . S
C67 O49 1.265 . S
C67 O50 1.242 1_455 S
C68 O53 1.261 . S
C68 O54 1.266 . S
C69 C72 1.394 . S
C69 C74 1.370 . S
C69 C75 1.500 . S
C70 C73 1.383 . S
C70 C74 1.395 . S
C71 C72 1.396 . S
C71 C73 1.365 . S
C71 H80 0.929 . S
C72 C69 1.394 . S
C72 C71 1.396 . S
C72 H81 0.930 . S
C73 C70 1.383 . S
C73 C71 1.365 . S
C73 H82 0.931 . S
C74 C69 1.370 . S
C74 C70 1.395 . S
C74 H83 0.930 . S
C75 Gd11 2.805 . S
C75 O51 1.263 . S
C75 O52 1.252 . S
C75 C69 1.500 . S
H76 C59 0.929 . S
H77 C60 0.930 . S
H78 C61 0.931 . S
H79 C62 0.930 . S
H80 C71 0.929 . S
H81 C72 0.930 . S
H82 C73 0.931 . S
H83 C74 0.930 . S
C84 C86 1.422 . S
C84 C88 1.415 . S
C84 N90 1.369 . S
C85 C86 1.421 . S
C85 C87 1.417 . S
C85 C97 1.422 . S
C86 C84 1.422 . S
C86 C85 1.421 . S
C86 N96 1.359 . S
C87 C85 1.417 . S
C87 C89 1.329 . S
C87 H106 0.930 . S
C88 C84 1.415 . S
C88 C89 1.437 . S
C88 C92 1.413 . S
C89 C87 1.329 . S
C89 C88 1.437 . S
C89 H111 0.929 . S
N90 C84 1.369 . S
N90 C91 1.338 . S
N90 Gd95 2.622 . S
C91 N90 1.338 . S
C91 C93 1.378 . S
C91 H103 0.929 . S
C92 C88 1.413 . S
C92 C93 1.348 . S
C92 H108 0.931 . S
C93 C91 1.378 . S
C93 C92 1.348 . S
C93 H109 0.930 . S
Gd94 N114 2.622 . S
Gd94 N121 2.570 . S
Gd94 O128 2.353 . S
Gd94 O129 2.468 . S
Gd94 O130 2.427 . S
Gd94 O132 2.388 . S
Gd94 O133 2.386 . S
Gd94 O137 2.307 . S
Gd94 C147 2.805 . S
Gd95 N90 2.622 . S
Gd95 N96 2.570 . S
Gd95 O127 2.386 1_565 S
Gd95 O131 2.307 1_565 S
Gd95 O134 2.353 . S
Gd95 O135 2.468 . S
Gd95 O136 2.427 . S
Gd95 O138 2.372 1_565 S
Gd95 C159 2.805 . S
N96 C86 1.359 . S
N96 Gd95 2.570 . S
N96 C98 1.343 . S
C97 C85 1.422 . S
C97 C99 1.321 . S
C97 H105 0.931 . S
C98 N96 1.343 . S
C98 C99 1.390 . S
C98 H100 0.931 . S
C99 C97 1.321 . S
C99 C98 1.390 . S
C99 H101 0.930 . S
H100 C98 0.931 . S
H101 C99 0.930 . S
H102 C125 0.931 . S
H103 C91 0.929 . S
H104 C126 0.930 . S
H105 C97 0.931 . S
H106 C87 0.930 . S
H107 C116 0.929 . S
H108 C92 0.931 . S
H109 C93 0.930 . S
H110 C148 0.930 . S
H111 C89 0.929 . S
H112 C117 0.931 1_455 S
H113 C118 0.930 . S
N114 Gd94 2.622 . S
N114 C115 1.369 . S
N114 C116 1.338 . S
C115 N114 1.369 . S
C115 C119 1.415 . S
C115 C122 1.422 . S
C116 H107 0.929 . S
C116 N114 1.338 . S
C116 C118 1.378 . S
C117 H112 0.931 1_655 S
C117 C118 1.348 . S
C117 C119 1.413 . S
C118 H113 0.930 . S
C118 C116 1.378 . S
C118 C117 1.348 . S
C119 C115 1.415 . S
C119 C117 1.413 . S
C119 C149 1.437 . S
H120 C149 0.929 1_455 S
N121 Gd94 2.570 . S
N121 C122 1.359 . S
N121 C125 1.343 . S
C122 C115 1.422 . S
C122 N121 1.359 . S
C122 C124 1.421 . S
C123 C124 1.422 . S
C123 C126 1.321 . S
C123 H150 0.931 . S
C124 C122 1.421 . S
C124 C123 1.422 . S
C124 C148 1.417 . S
C125 H102 0.931 . S
C125 N121 1.343 . S
C125 C126 1.390 . S
C126 H104 0.930 . S
C126 C123 1.321 . S
C126 C125 1.390 . S
O127 Gd95 2.386 1_545 S
O127 C139 1.265 . S
O128 Gd94 2.353 . S
O128 C139 1.242 . S
O129 Gd94 2.468 . S
O129 C147 1.263 . S
O130 Gd94 2.427 . S
O130 C147 1.252 . S
O131 Gd95 2.307 1_545 S
O131 C140 1.261 . S
O132 Gd94 2.388 . S
O132 C140 1.252 . S
O133 Gd94 2.386 . S
O133 C151 1.265 . S
O134 Gd95 2.353 . S
O134 C151 1.242 1_565 S
O135 Gd95 2.468 . S
O135 C159 1.263 . S
O136 Gd95 2.427 . S
O136 C159 1.252 . S
O137 Gd94 2.307 . S
O137 C152 1.261 . S
O138 Gd95 2.372 1_545 S
O138 C152 1.287 . S
C139 O127 1.265 . S
C139 O128 1.242 . S
C140 O131 1.261 . S
C140 O132 1.252 . S
C141 C144 1.394 . S
C141 C146 1.370 . S
C141 C147 1.500 . S
C142 C145 1.383 . S
C142 C146 1.395 . S
C143 C144 1.396 . S
C143 C145 1.365 . S
C143 H160 0.929 . S
C144 C141 1.394 . S
C144 C143 1.396 . S
C144 H161 0.930 . S
C145 C142 1.383 . S
C145 C143 1.365 . S
C145 H162 0.931 . S
C146 C141 1.370 . S
C146 C142 1.395 . S
C146 H163 0.930 . S
C147 Gd94 2.805 . S
C147 O129 1.263 . S
C147 O130 1.252 . S
C147 C141 1.500 . S
C148 H110 0.930 . S
C148 C124 1.417 . S
C148 C149 1.329 . S
C149 C119 1.437 . S
C149 H120 0.929 1_655 S
C149 C148 1.329 . S
H150 C123 0.931 . S
C151 O133 1.265 . S
C151 O134 1.242 1_545 S
C152 O137 1.261 . S
C152 O138 1.287 . S
C153 C156 1.394 . S
C153 C158 1.370 . S
C153 C159 1.500 . S
C154 C157 1.383 . S
C154 C158 1.395 . S
C155 C156 1.396 . S
C155 C157 1.365 . S
C155 H164 0.929 . S
C156 C153 1.394 . S
C156 C155 1.396 . S
C156 H165 0.930 . S
C157 C154 1.383 . S
C157 C155 1.365 . S
C157 H166 0.931 . S
C158 C153 1.370 . S
C158 C154 1.395 . S
C158 H167 0.930 . S
C159 Gd95 2.805 . S
C159 O135 1.263 . S
C159 O136 1.252 . S
C159 C153 1.500 . S
H160 C143 0.929 . S
H161 C144 0.930 . S
H162 C145 0.931 . S
H163 C146 0.930 . S
H164 C155 0.929 . S
H165 C156 0.930 . S
H166 C157 0.931 . S
H167 C158 0.930 . S
C168 C170 1.422 . S
C168 C172 1.415 . S
C168 N174 1.369 . S
C169 C170 1.421 . S
C169 C171 1.417 . S
C169 C181 1.422 . S
C170 C168 1.422 . S
C170 C169 1.421 . S
C170 N180 1.359 . S
C171 C169 1.417 . S
C171 C173 1.329 . S
C171 H190 0.930 . S
C172 C168 1.415 . S
C172 C173 1.437 . S
C172 C176 1.419 . S
C173 C171 1.329 . S
C173 C172 1.437 . S
C173 H195 0.899 1_565 S
N174 C168 1.369 . S
N174 C175 1.338 . S
N174 Gd179 2.622 . S
C175 N174 1.338 . S
C175 C177 1.378 . S
C175 H187 0.929 . S
C176 C172 1.419 . S
C176 C177 1.350 . S
C176 H192 0.923 1_565 S
C177 C175 1.378 . S
C177 C176 1.350 . S
C177 H193 0.930 1_565 S
Gd178 N198 2.622 . S
Gd178 N205 2.570 . S
Gd178 O212 2.353 . S
Gd178 O213 2.468 . S
Gd178 O214 2.427 . S
Gd178 O216 2.388 . S
Gd178 O217 2.386 . S
Gd178 O221 2.307 . S
Gd178 C231 2.805 . S
Gd179 N174 2.622 . S
Gd179 N180 2.570 . S
Gd179 O211 2.386 . S
Gd179 O215 2.307 . S
Gd179 O218 2.353 . S
Gd179 O219 2.468 . S
Gd179 O220 2.427 . S
Gd179 O222 2.388 . S
Gd179 C243 2.805 . S
N180 C170 1.359 . S
N180 Gd179 2.570 . S
N180 C182 1.343 . S
C181 C169 1.422 . S
C181 C183 1.321 . S
C181 H189 0.931 1_554 S
C182 N180 1.343 . S
C182 C183 1.390 . S
C182 H184 0.931 . S
C183 C181 1.321 . S
C183 C182 1.390 . S
C183 H185 0.930 1_554 S
H184 C182 0.931 . S
H185 C183 0.930 1_556 S
H186 C209 0.931 . S
H187 C175 0.929 . S
H188 C210 0.930 . S
H189 C181 0.931 1_556 S
H190 C171 0.930 . S
H191 C200 0.929 . S
H192 C176 0.923 1_545 S
H193 C177 0.930 1_545 S
H194 C232 0.930 . S
H195 C173 0.899 1_545 S
H196 C201 0.931 . S
H197 C202 0.930 . S
N198 Gd178 2.622 . S
N198 C199 1.369 . S
N198 C200 1.338 . S
C199 N198 1.369 . S
C199 C203 1.415 . S
C199 C206 1.422 . S
C200 H191 0.929 . S
C200 N198 1.338 . S
C200 C202 1.378 . S
C201 H196 0.931 . S
C201 C202 1.348 . S
C201 C203 1.413 . S
C202 H197 0.930 . S
C202 C200 1.378 . S
C202 C201 1.348 . S
C203 C199 1.415 . S
C203 C201 1.413 . S
C203 C233 1.437 . S
H204 C233 0.929 . S
N205 Gd178 2.570 . S
N205 C206 1.359 . S
N205 C209 1.343 . S
C206 C199 1.422 . S
C206 N205 1.359 . S
C206 C208 1.421 . S
C207 C208 1.422 . S
C207 C210 1.321 . S
C207 H234 0.931 . S
C208 C206 1.421 . S
C208 C207 1.422 . S
C208 C232 1.417 . S
C209 H186 0.931 . S
C209 N205 1.343 . S
C209 C210 1.390 . S
C210 H188 0.930 . S
C210 C207 1.321 . S
C210 C209 1.390 . S
O211 Gd179 2.386 . S
O211 C223 1.265 . S
O212 Gd178 2.353 . S
O212 C223 1.242 . S
O213 Gd178 2.468 . S
O213 C231 1.263 . S
O214 Gd178 2.427 . S
O214 C231 1.252 . S
O215 Gd179 2.307 . S
O215 C224 1.261 . S
O216 Gd178 2.388 . S
O216 C224 1.252 . S
O217 Gd178 2.386 . S
O217 C235 1.265 . S
O218 Gd179 2.353 . S
O218 C235 1.242 . S
O219 Gd179 2.468 . S
O219 C243 1.263 . S
O220 Gd179 2.427 . S
O220 C243 1.252 . S
O221 Gd178 2.307 . S
O221 C236 1.261 . S
O222 Gd179 2.388 . S
O222 C236 1.252 . S
C223 O211 1.265 . S
C223 O212 1.242 . S
C224 O215 1.261 . S
C224 O216 1.252 . S
C225 C228 1.394 . S
C225 C230 1.370 . S
C225 C231 1.500 . S
C226 C229 1.383 . S
C226 C230 1.395 . S
C227 C228 1.396 . S
C227 C229 1.365 . S
C227 H244 0.929 . S
C228 C225 1.394 . S
C228 C227 1.396 . S
C228 H245 0.930 . S
C229 C226 1.383 . S
C229 C227 1.365 . S
C229 H246 0.931 . S
C230 C225 1.370 . S
C230 C226 1.395 . S
C230 H247 0.930 . S
C231 Gd178 2.805 . S
C231 O213 1.263 . S
C231 O214 1.252 . S
C231 C225 1.500 . S
C232 H194 0.930 . S
C232 C208 1.417 . S
C232 C233 1.329 . S
C233 C203 1.437 . S
C233 H204 0.929 . S
C233 C232 1.329 . S
H234 C207 0.931 . S
C235 O217 1.265 . S
C235 O218 1.242 . S
C236 O221 1.261 . S
C236 O222 1.252 . S
C237 C240 1.394 . S
C237 C242 1.370 . S
C237 C243 1.500 . S
C238 C241 1.383 . S
C238 C242 1.395 . S
C239 C240 1.396 . S
C239 C241 1.365 . S
C239 H248 0.929 . S
C240 C237 1.394 . S
C240 C239 1.396 . S
C240 H249 0.930 . S
C241 C238 1.383 . S
C241 C239 1.365 . S
C241 H250 0.931 . S
C242 C237 1.370 . S
C242 C238 1.395 . S
C242 H251 0.930 . S
C243 Gd179 2.805 . S
C243 O219 1.263 . S
C243 O220 1.252 . S
C243 C237 1.500 . S
H244 C227 0.929 . S
H245 C228 0.930 . S
H246 C229 0.931 . S
H247 C230 0.930 . S
H248 C239 0.929 . S
H249 C240 0.930 . S
H250 C241 0.931 . S
H251 C242 0.930 . S
C252 C254 1.422 . S
C252 C256 1.415 . S
C252 N258 1.369 . S
C253 C254 1.421 . S
C253 C255 1.417 . S
C253 C265 1.422 . S
C254 C252 1.422 . S
C254 C253 1.421 . S
C254 N264 1.359 . S
C255 C253 1.417 . S
C255 C257 1.329 . S
C255 H274 0.930 . S
C256 C252 1.415 . S
C256 C257 1.437 . S
C256 C260 1.413 . S
C257 C255 1.329 . S
C257 C256 1.437 . S
C257 H279 0.929 . S
N258 C252 1.369 . S
N258 C259 1.338 . S
N258 Gd263 2.622 . S
C259 N258 1.338 . S
C259 C261 1.378 . S
C259 H271 0.929 . S
C260 C256 1.413 . S
C260 C261 1.348 . S
C260 H276 0.931 . S
C261 C259 1.378 . S
C261 C260 1.348 . S
C261 H277 0.930 . S
Gd262 N282 2.622 . S
Gd262 N289 2.570 . S
Gd262 O296 2.353 . S
Gd262 O297 2.468 . S
Gd262 O298 2.427 . S
Gd262 O300 2.388 . S
Gd262 O301 2.386 . S
Gd262 O305 2.307 . S
Gd262 C315 2.805 . S
Gd263 N258 2.622 . S
Gd263 N264 2.570 . S
Gd263 O295 2.386 . S
Gd263 O299 2.307 . S
Gd263 O302 2.353 . S
Gd263 O303 2.468 . S
Gd263 O304 2.427 . S
Gd263 O306 2.388 . S
Gd263 C327 2.805 . S
N264 C254 1.359 . S
N264 Gd263 2.570 . S
N264 C266 1.343 . S
C265 C253 1.422 . S
C265 C267 1.321 . S
C265 H273 0.931 . S
C266 N264 1.343 . S
C266 C267 1.390 . S
C266 H268 0.931 . S
C267 C265 1.321 . S
C267 C266 1.390 . S
C267 H269 0.930 . S
H268 C266 0.931 . S
H269 C267 0.930 . S
H270 C293 0.931 . S
H271 C259 0.929 . S
H272 C294 0.930 . S
H273 C265 0.931 . S
H274 C255 0.930 . S
H275 C284 0.929 . S
H276 C260 0.931 . S
H277 C261 0.930 . S
H278 C316 0.930 . S
H279 C257 0.929 . S
H280 C285 0.931 . S
H281 C286 0.930 . S
N282 Gd262 2.622 . S
N282 C283 1.369 . S
N282 C284 1.338 . S
C283 N282 1.369 . S
C283 C287 1.415 . S
C283 C290 1.422 . S
C284 H275 0.929 . S
C284 N282 1.338 . S
C284 C286 1.378 . S
C285 H280 0.931 . S
C285 C286 1.348 . S
C285 C287 1.413 . S
C286 H281 0.930 . S
C286 C284 1.378 . S
C286 C285 1.348 . S
C287 C283 1.415 . S
C287 C285 1.413 . S
C287 C317 1.437 . S
H288 C317 0.929 . S
N289 Gd262 2.570 . S
N289 C290 1.359 . S
N289 C293 1.343 . S
C290 C283 1.422 . S
C290 N289 1.359 . S
C290 C292 1.421 . S
C291 C292 1.422 . S
C291 C294 1.321 . S
C291 H318 0.931 . S
C292 C290 1.421 . S
C292 C291 1.422 . S
C292 C316 1.417 . S
C293 H270 0.931 . S
C293 N289 1.343 . S
C293 C294 1.390 . S
C294 H272 0.930 . S
C294 C291 1.321 . S
C294 C293 1.390 . S
O295 Gd263 2.386 . S
O295 C307 1.265 . S
O296 Gd262 2.353 . S
O296 C307 1.242 . S
O297 Gd262 2.468 . S
O297 C315 1.263 . S
O298 Gd262 2.427 . S
O298 C315 1.252 . S
O299 Gd263 2.307 . S
O299 C308 1.261 . S
O300 Gd262 2.388 . S
O300 C308 1.252 . S
O301 Gd262 2.386 . S
O301 C319 1.265 . S
O302 Gd263 2.353 . S
O302 C319 1.242 . S
O303 Gd263 2.468 . S
O303 C327 1.263 . S
O304 Gd263 2.427 . S
O304 C327 1.252 . S
O305 Gd262 2.307 . S
O305 C320 1.261 . S
O306 Gd263 2.388 . S
O306 C320 1.252 . S
C307 O295 1.265 . S
C307 O296 1.242 . S
C308 O299 1.261 . S
C308 O300 1.252 . S
C309 C312 1.394 . S
C309 C314 1.370 . S
C309 C315 1.500 . S
C310 C313 1.383 . S
C310 C314 1.395 . S
C311 C312 1.396 . S
C311 C313 1.365 . S
C311 H328 0.929 . S
C312 C309 1.394 . S
C312 C311 1.396 . S
C312 H329 0.930 . S
C313 C310 1.383 . S
C313 C311 1.365 . S
C313 H330 0.931 . S
C314 C309 1.370 . S
C314 C310 1.395 . S
C314 H331 0.930 . S
C315 Gd262 2.805 . S
C315 O297 1.263 . S
C315 O298 1.252 . S
C315 C309 1.500 . S
C316 H278 0.930 . S
C316 C292 1.417 . S
C316 C317 1.329 . S
C317 C287 1.437 . S
C317 H288 0.929 . S
C317 C316 1.329 . S
H318 C291 0.931 . S
C319 O301 1.265 . S
C319 O302 1.242 . S
C320 O305 1.261 . S
C320 O306 1.252 . S
C321 C324 1.394 . S
C321 C326 1.370 . S
C321 C327 1.500 . S
C322 C325 1.383 . S
C322 C326 1.395 . S
C323 C324 1.396 . S
C323 C325 1.365 . S
C323 H332 0.929 . S
C324 C321 1.394 . S
C324 C323 1.396 . S
C324 H333 0.930 . S
C325 C322 1.383 . S
C325 C323 1.365 . S
C325 H334 0.931 . S
C326 C321 1.370 . S
C326 C322 1.395 . S
C326 H335 0.930 . S
C327 Gd263 2.805 . S
C327 O303 1.263 . S
C327 O304 1.252 . S
C327 C321 1.500 . S
H328 C311 0.929 . S
H329 C312 0.930 . S
H330 C313 0.931 . S
H331 C314 0.930 . S
H332 C323 0.929 . S
H333 C324 0.930 . S
H334 C325 0.931 . S
H335 C326 0.930 . S
C336 C338 1.422 . S
C336 C340 1.415 . S
C336 N342 1.369 . S
C337 C338 1.421 . S
C337 C339 1.417 . S
C337 C349 1.422 . S
C338 C336 1.422 . S
C338 C337 1.421 . S
C338 N348 1.359 . S
C339 C337 1.417 . S
C339 C341 1.329 . S
C339 H358 0.930 . S
C340 C336 1.415 . S
C340 C341 1.437 . S
C340 C344 1.413 . S
C341 C339 1.329 . S
C341 C340 1.437 . S
C341 H363 0.929 . S
N342 C336 1.369 . S
N342 C343 1.338 . S
N342 Gd347 2.622 . S
C343 N342 1.338 . S
C343 C345 1.378 . S
C343 H355 0.929 . S
C344 C340 1.413 . S
C344 C345 1.348 . S
C344 H360 0.931 . S
C345 C343 1.378 . S
C345 C344 1.348 . S
C345 H361 0.930 . S
Gd346 N366 2.622 . S
Gd346 N373 2.570 . S
Gd346 O380 2.353 . S
Gd346 O381 2.468 . S
Gd346 O382 2.427 . S
Gd346 O384 2.388 . S
Gd346 O385 2.386 . S
Gd346 O389 2.307 . S
Gd346 C399 2.805 . S
Gd347 N342 2.622 . S
Gd347 N348 2.570 . S
Gd347 O379 2.386 1_655 S
Gd347 O383 2.307 1_655 S
Gd347 O386 2.353 . S
Gd347 O387 2.468 . S
Gd347 O388 2.427 . S
Gd347 O390 2.382 1_655 S
Gd347 C411 2.805 . S
N348 C338 1.359 . S
N348 Gd347 2.570 . S
N348 C350 1.343 . S
C349 C337 1.422 . S
C349 C351 1.321 . S
C349 H357 0.931 . S
C350 N348 1.343 . S
C350 C351 1.390 . S
C350 H352 0.931 . S
C351 C349 1.321 . S
C351 C350 1.390 . S
C351 H353 0.930 . S
H352 C350 0.931 . S
H353 C351 0.930 . S
H354 C377 0.931 . S
H355 C343 0.929 . S
H356 C378 0.930 . S
H357 C349 0.931 . S
H358 C339 0.930 . S
H359 C368 0.929 . S
H360 C344 0.931 . S
H361 C345 0.930 . S
H362 C400 0.930 . S
H363 C341 0.929 . S
H364 C369 0.911 1_545 S
H365 C370 0.930 . S
N366 Gd346 2.622 . S
N366 C367 1.369 . S
N366 C368 1.338 . S
C367 N366 1.369 . S
C367 C371 1.415 . S
C367 C374 1.422 . S
C368 H359 0.929 . S
C368 N366 1.338 . S
C368 C370 1.378 . S
C369 H364 0.911 1_565 S
C369 C370 1.359 . S
C369 C371 1.423 . S
C370 H365 0.930 . S
C370 C368 1.378 . S
C370 C369 1.359 . S
C371 C367 1.415 . S
C371 C369 1.423 . S
C371 C401 1.452 . S
H372 C401 0.900 1_545 S
N373 Gd346 2.570 . S
N373 C374 1.359 . S
N373 C377 1.343 . S
C374 C367 1.422 . S
C374 N373 1.359 . S
C374 C376 1.421 . S
C375 C376 1.422 . S
C375 C378 1.321 . S
C375 H402 0.931 . S
C376 C374 1.421 . S
C376 C375 1.422 . S
C376 C400 1.417 . S
C377 H354 0.931 . S
C377 N373 1.343 . S
C377 C378 1.390 . S
C378 H356 0.930 . S
C378 C375 1.321 . S
C378 C377 1.390 . S
O379 Gd347 2.386 1_455 S
O379 C391 1.265 . S
O380 Gd346 2.353 . S
O380 C391 1.242 . S
O381 Gd346 2.468 . S
O381 C399 1.263 . S
O382 Gd346 2.427 . S
O382 C399 1.252 . S
O383 Gd347 2.307 1_455 S
O383 C392 1.261 . S
O384 Gd346 2.388 . S
O384 C392 1.252 . S
O385 Gd346 2.386 . S
O385 C403 1.265 . S
O386 Gd347 2.353 . S
O386 C403 1.242 1_655 S
O387 Gd347 2.468 . S
O387 C411 1.263 . S
O388 Gd347 2.427 . S
O388 C411 1.252 . S
O389 Gd346 2.307 . S
O389 C404 1.261 . S
O390 Gd347 2.382 1_455 S
O390 C404 1.266 . S
C391 O379 1.265 . S
C391 O380 1.242 . S
C392 O383 1.261 . S
C392 O384 1.252 . S
C393 C396 1.394 . S
C393 C398 1.370 . S
C393 C399 1.500 . S
C394 C397 1.383 . S
C394 C398 1.395 . S
C395 C396 1.396 . S
C395 C397 1.365 . S
C395 H412 0.929 . S
C396 C393 1.394 . S
C396 C395 1.396 . S
C396 H413 0.930 . S
C397 C394 1.383 . S
C397 C395 1.365 . S
C397 H414 0.931 . S
C398 C393 1.370 . S
C398 C394 1.395 . S
C398 H415 0.930 . S
C399 Gd346 2.805 . S
C399 O381 1.263 . S
C399 O382 1.252 . S
C399 C393 1.500 . S
C400 H362 0.930 . S
C400 C376 1.417 . S
C400 C401 1.344 . S
C401 C371 1.452 . S
C401 H372 0.900 1_565 S
C401 C400 1.344 . S
H402 C375 0.931 . S
C403 O385 1.265 . S
C403 O386 1.242 1_455 S
C404 O389 1.261 . S
C404 O390 1.266 . S
C405 C408 1.394 . S
C405 C410 1.370 . S
C405 C411 1.500 . S
C406 C409 1.383 . S
C406 C410 1.395 . S
C407 C408 1.396 . S
C407 C409 1.365 . S
C407 H416 0.929 . S
C408 C405 1.394 . S
C408 C407 1.396 . S
C408 H417 0.930 . S
C409 C406 1.383 . S
C409 C407 1.365 . S
C409 H418 0.931 . S
C410 C405 1.370 . S
C410 C406 1.395 . S
C410 H419 0.930 . S
C411 Gd347 2.805 . S
C411 O387 1.263 . S
C411 O388 1.252 . S
C411 C405 1.500 . S
H412 C395 0.929 . S
H413 C396 0.930 . S
H414 C397 0.931 . S
H415 C398 0.930 . S
H416 C407 0.929 . S
H417 C408 0.930 . S
H418 C409 0.931 . S
H419 C410 0.930 . S
C420 C422 1.422 . S
C420 C424 1.415 . S
C420 N426 1.369 . S
C421 C422 1.421 . S
C421 C423 1.417 . S
C421 C433 1.422 . S
C422 C420 1.422 . S
C422 C421 1.421 . S
C422 N432 1.359 . S
C423 C421 1.417 . S
C423 C425 1.329 . S
C423 H442 0.930 . S
C424 C420 1.415 . S
C424 C425 1.437 . S
C424 C428 1.413 . S
C425 C423 1.329 . S
C425 C424 1.437 . S
C425 H447 0.929 . S
N426 C420 1.369 . S
N426 C427 1.338 . S
N426 Gd431 2.622 . S
C427 N426 1.338 . S
C427 C429 1.378 . S
C427 H439 0.929 . S
C428 C424 1.413 . S
C428 C429 1.348 . S
C428 H444 0.931 . S
C429 C427 1.378 . S
C429 C428 1.348 . S
C429 H445 0.930 . S
Gd430 N450 2.622 . S
Gd430 N457 2.570 . S
Gd430 O464 2.353 . S
Gd430 O465 2.468 . S
Gd430 O466 2.427 . S
Gd430 O468 2.388 . S
Gd430 O469 2.386 . S
Gd430 O473 2.307 . S
Gd430 C483 2.805 . S
Gd431 N426 2.622 . S
Gd431 N432 2.570 . S
Gd431 O463 2.386 1_565 S
Gd431 O467 2.307 1_565 S
Gd431 O470 2.353 . S
Gd431 O471 2.468 . S
Gd431 O472 2.427 . S
Gd431 O474 2.388 1_565 S
Gd431 C495 2.805 . S
N432 C422 1.359 . S
N432 Gd431 2.570 . S
N432 C434 1.343 . S
C433 C421 1.422 . S
C433 C435 1.321 . S
C433 H441 0.931 . S
C434 N432 1.343 . S
C434 C435 1.390 . S
C434 H436 0.931 . S
C435 C433 1.321 . S
C435 C434 1.390 . S
C435 H437 0.930 . S
H436 C434 0.931 . S
H437 C435 0.930 . S
H438 C461 0.931 . S
H439 C427 0.929 . S
H440 C462 0.930 . S
H441 C433 0.931 . S
H442 C423 0.930 . S
H443 C452 0.929 . S
H444 C428 0.931 . S
H445 C429 0.930 . S
H446 C484 0.930 . S
H447 C425 0.929 . S
H448 C453 0.931 . S
H449 C454 0.930 . S
N450 Gd430 2.622 . S
N450 C451 1.369 . S
N450 C452 1.338 . S
C451 N450 1.369 . S
C451 C455 1.415 . S
C451 C458 1.422 . S
C452 H443 0.929 . S
C452 N450 1.338 . S
C452 C454 1.378 . S
C453 H448 0.931 . S
C453 C454 1.348 . S
C453 C455 1.413 . S
C454 H449 0.930 . S
C454 C452 1.378 . S
C454 C453 1.348 . S
C455 C451 1.415 . S
C455 C453 1.413 . S
C455 C485 1.437 . S
H456 C485 0.929 . S
N457 Gd430 2.570 . S
N457 C458 1.359 . S
N457 C461 1.343 . S
C458 C451 1.422 . S
C458 N457 1.359 . S
C458 C460 1.421 . S
C459 C460 1.422 . S
C459 C462 1.321 . S
C459 H486 0.931 . S
C460 C458 1.421 . S
C460 C459 1.422 . S
C460 C484 1.417 . S
C461 H438 0.931 . S
C461 N457 1.343 . S
C461 C462 1.390 . S
C462 H440 0.930 . S
C462 C459 1.321 . S
C462 C461 1.390 . S
O463 Gd431 2.386 1_545 S
O463 C475 1.265 . S
O464 Gd430 2.353 . S
O464 C475 1.242 . S
O465 Gd430 2.468 . S
O465 C483 1.263 . S
O466 Gd430 2.427 . S
O466 C483 1.252 . S
O467 Gd431 2.307 1_545 S
O467 C476 1.261 . S
O468 Gd430 2.388 . S
O468 C476 1.252 . S
O469 Gd430 2.386 . S
O469 C487 1.265 . S
O470 Gd431 2.353 . S
O470 C487 1.242 1_565 S
O471 Gd431 2.468 . S
O471 C495 1.263 . S
O472 Gd431 2.427 . S
O472 C495 1.252 . S
O473 Gd430 2.307 . S
O473 C488 1.261 . S
O474 Gd431 2.388 1_545 S
O474 C488 1.250 . S
C475 O463 1.265 . S
C475 O464 1.242 . S
C476 O467 1.261 . S
C476 O468 1.252 . S
C477 C480 1.394 . S
C477 C482 1.370 . S
C477 C483 1.500 . S
C478 C481 1.383 . S
C478 C482 1.395 . S
C479 C480 1.396 . S
C479 C481 1.365 . S
C479 H496 0.929 . S
C480 C477 1.394 . S
C480 C479 1.396 . S
C480 H497 0.930 . S
C481 C478 1.383 . S
C481 C479 1.365 . S
C481 H498 0.931 . S
C482 C477 1.370 . S
C482 C478 1.395 . S
C482 H499 0.930 . S
C483 Gd430 2.805 . S
C483 O465 1.263 . S
C483 O466 1.252 . S
C483 C477 1.500 . S
C484 H446 0.930 . S
C484 C460 1.417 . S
C484 C485 1.329 . S
C485 C455 1.437 . S
C485 H456 0.929 . S
C485 C484 1.329 . S
H486 C459 0.931 . S
C487 O469 1.265 . S
C487 O470 1.242 1_545 S
C488 O473 1.261 . S
C488 O474 1.250 . S
C489 C492 1.394 . S
C489 C494 1.370 . S
C489 C495 1.500 . S
C490 C493 1.383 . S
C490 C494 1.395 . S
C491 C492 1.396 . S
C491 C493 1.365 . S
C491 H500 0.929 . S
C492 C489 1.394 . S
C492 C491 1.396 . S
C492 H501 0.930 . S
C493 C490 1.383 . S
C493 C491 1.365 . S
C493 H502 0.931 . S
C494 C489 1.370 . S
C494 C490 1.395 . S
C494 H503 0.930 . S
C495 Gd431 2.805 . S
C495 O471 1.263 . S
C495 O472 1.252 . S
C495 C489 1.500 . S
H496 C479 0.929 . S
H497 C480 0.930 . S
H498 C481 0.931 . S
H499 C482 0.930 . S
H500 C491 0.929 . S
H501 C492 0.930 . S
H502 C493 0.931 . S
H503 C494 0.930 . S
C504 C506 1.422 . S
C504 C508 1.415 . S
C504 N510 1.369 . S
C505 C506 1.421 . S
C505 C507 1.417 . S
C505 C517 1.422 . S
C506 C504 1.422 . S
C506 C505 1.421 . S
C506 N516 1.359 . S
C507 C505 1.417 . S
C507 C509 1.329 . S
C507 H526 0.930 . S
C508 C504 1.415 . S
C508 C509 1.437 . S
C508 C512 1.413 . S
C509 C507 1.329 . S
C509 C508 1.437 . S
C509 H531 0.929 . S
N510 C504 1.369 . S
N510 C511 1.338 . S
N510 Gd515 2.622 . S
C511 N510 1.338 . S
C511 C513 1.378 . S
C511 H523 0.929 . S
C512 C508 1.413 . S
C512 C513 1.348 . S
C512 H528 0.931 . S
C513 C511 1.378 . S
C513 C512 1.348 . S
C513 H529 0.930 . S
Gd514 N534 2.622 . S
Gd514 N541 2.570 . S
Gd514 O548 2.353 . S
Gd514 O549 2.468 . S
Gd514 O550 2.427 . S
Gd514 O552 2.388 . S
Gd514 O553 2.386 . S
Gd514 O557 2.307 . S
Gd514 C567 2.805 . S
Gd515 N510 2.622 . S
Gd515 N516 2.570 . S
Gd515 O547 2.386 . S
Gd515 O551 2.307 . S
Gd515 O554 2.353 . S
Gd515 O555 2.468 . S
Gd515 O556 2.427 . S
Gd515 O558 2.388 . S
Gd515 C579 2.805 . S
N516 C506 1.359 . S
N516 Gd515 2.570 . S
N516 C518 1.343 . S
C517 C505 1.422 . S
C517 C519 1.321 . S
C517 H525 0.931 . S
C518 N516 1.343 . S
C518 C519 1.390 . S
C518 H520 0.931 . S
C519 C517 1.321 . S
C519 C518 1.390 . S
C519 H521 0.930 . S
H520 C518 0.931 . S
H521 C519 0.930 . S
H522 C545 0.931 . S
H523 C511 0.929 . S
H524 C546 0.930 . S
H525 C517 0.931 . S
H526 C507 0.930 . S
H527 C536 0.929 . S
H528 C512 0.931 . S
H529 C513 0.930 . S
H530 C568 0.930 . S
H531 C509 0.929 . S
H532 C537 0.931 . S
H533 C538 0.930 . S
N534 Gd514 2.622 . S
N534 C535 1.369 . S
N534 C536 1.338 . S
C535 N534 1.369 . S
C535 C539 1.415 . S
C535 C542 1.422 . S
C536 H527 0.929 . S
C536 N534 1.338 . S
C536 C538 1.378 . S
C537 H532 0.931 . S
C537 C538 1.348 . S
C537 C539 1.413 . S
C538 H533 0.930 . S
C538 C536 1.378 . S
C538 C537 1.348 . S
C539 C535 1.415 . S
C539 C537 1.413 . S
C539 C569 1.437 . S
H540 C569 0.929 . S
N541 Gd514 2.570 . S
N541 C542 1.359 . S
N541 C545 1.343 . S
C542 C535 1.422 . S
C542 N541 1.359 . S
C542 C544 1.421 . S
C543 C544 1.422 . S
C543 C546 1.321 . S
C543 H570 0.931 . S
C544 C542 1.421 . S
C544 C543 1.422 . S
C544 C568 1.417 . S
C545 H522 0.931 . S
C545 N541 1.343 . S
C545 C546 1.390 . S
C546 H524 0.930 . S
C546 C543 1.321 . S
C546 C545 1.390 . S
O547 Gd515 2.386 . S
O547 C559 1.265 . S
O548 Gd514 2.353 . S
O548 C559 1.242 . S
O549 Gd514 2.468 . S
O549 C567 1.263 . S
O550 Gd514 2.427 . S
O550 C567 1.252 . S
O551 Gd515 2.307 . S
O551 C560 1.261 . S
O552 Gd514 2.388 . S
O552 C560 1.252 . S
O553 Gd514 2.386 . S
O553 C571 1.265 . S
O554 Gd515 2.353 . S
O554 C571 1.242 . S
O555 Gd515 2.468 . S
O555 C579 1.263 . S
O556 Gd515 2.427 . S
O556 C579 1.252 . S
O557 Gd514 2.307 . S
O557 C572 1.261 . S
O558 Gd515 2.388 . S
O558 C572 1.252 . S
C559 O547 1.265 . S
C559 O548 1.242 . S
C560 O551 1.261 . S
C560 O552 1.252 . S
C561 C564 1.394 . S
C561 C566 1.370 . S
C561 C567 1.500 . S
C562 C565 1.383 . S
C562 C566 1.395 . S
C563 C564 1.396 . S
C563 C565 1.365 . S
C563 H580 0.929 . S
C564 C561 1.394 . S
C564 C563 1.396 . S
C564 H581 0.930 . S
C565 C562 1.383 . S
C565 C563 1.365 . S
C565 H582 0.931 . S
C566 C561 1.370 . S
C566 C562 1.395 . S
C566 H583 0.930 . S
C567 Gd514 2.805 . S
C567 O549 1.263 . S
C567 O550 1.252 . S
C567 C561 1.500 . S
C568 H530 0.930 . S
C568 C544 1.417 . S
C568 C569 1.329 . S
C569 C539 1.437 . S
C569 H540 0.929 . S
C569 C568 1.329 . S
H570 C543 0.931 . S
C571 O553 1.265 . S
C571 O554 1.242 . S
C572 O557 1.261 . S
C572 O558 1.252 . S
C573 C576 1.394 . S
C573 C578 1.370 . S
C573 C579 1.500 . S
C574 C577 1.383 . S
C574 C578 1.395 . S
C575 C576 1.396 . S
C575 C577 1.365 . S
C575 H584 0.929 . S
C576 C573 1.394 . S
C576 C575 1.396 . S
C576 H585 0.930 . S
C577 C574 1.383 . S
C577 C575 1.365 . S
C577 H586 0.931 . S
C578 C573 1.370 . S
C578 C574 1.395 . S
C578 H587 0.930 . S
C579 Gd515 2.805 . S
C579 O555 1.263 . S
C579 O556 1.252 . S
C579 C573 1.500 . S
H580 C563 0.929 . S
H581 C564 0.930 . S
H582 C565 0.931 . S
H583 C566 0.930 . S
H584 C575 0.929 . S
H585 C576 0.930 . S
H586 C577 0.931 . S
H587 C578 0.930 . S
C588 C590 1.422 . S
C588 C592 1.415 . S
C588 N594 1.369 . S
C589 C590 1.421 . S
C589 C591 1.417 . S
C589 C601 1.422 . S
C590 C588 1.422 . S
C590 C589 1.421 . S
C590 N600 1.359 . S
C591 C589 1.417 . S
C591 C593 1.329 . S
C591 H610 0.930 . S
C592 C588 1.415 . S
C592 C593 1.437 . S
C592 C596 1.413 . S
C593 C591 1.329 . S
C593 C592 1.437 . S
C593 H615 0.929 . S
N594 C588 1.369 . S
N594 C595 1.338 . S
N594 Gd599 2.622 . S
C595 N594 1.338 . S
C595 C597 1.378 . S
C595 H607 0.929 . S
C596 C592 1.413 . S
C596 C597 1.348 . S
C596 H612 0.931 . S
C597 C595 1.378 . S
C597 C596 1.348 . S
C597 H613 0.930 . S
Gd598 N618 2.622 . S
Gd598 N625 2.570 . S
Gd598 O632 2.353 . S
Gd598 O633 2.468 . S
Gd598 O634 2.427 . S
Gd598 O636 2.388 . S
Gd598 O637 2.386 . S
Gd598 O641 2.307 . S
Gd598 C651 2.805 . S
Gd599 N594 2.622 . S
Gd599 N600 2.570 . S
Gd599 O631 2.386 . S
Gd599 O635 2.307 . S
Gd599 O638 2.353 . S
Gd599 O639 2.468 . S
Gd599 O640 2.427 . S
Gd599 O642 2.388 . S
Gd599 C663 2.805 . S
N600 C590 1.359 . S
N600 Gd599 2.570 . S
N600 C602 1.343 . S
C601 C589 1.422 . S
C601 C603 1.321 . S
C601 H609 0.931 . S
C602 N600 1.343 . S
C602 C603 1.390 . S
C602 H604 0.931 . S
C603 C601 1.321 . S
C603 C602 1.390 . S
C603 H605 0.930 . S
H604 C602 0.931 . S
H605 C603 0.930 . S
H606 C629 0.931 . S
H607 C595 0.929 . S
H608 C630 0.930 . S
H609 C601 0.931 . S
H610 C591 0.930 . S
H611 C620 0.929 . S
H612 C596 0.931 . S
H613 C597 0.930 . S
H614 C652 0.930 . S
H615 C593 0.929 . S
H616 C621 0.931 1_455 S
H617 C622 0.930 . S
N618 Gd598 2.622 . S
N618 C619 1.369 . S
N618 C620 1.338 . S
C619 N618 1.369 . S
C619 C623 1.415 . S
C619 C626 1.422 . S
C620 H611 0.929 . S
C620 N618 1.338 . S
C620 C622 1.378 . S
C621 H616 0.931 1_655 S
C621 C622 1.348 . S
C621 C623 1.413 . S
C622 H617 0.930 . S
C622 C620 1.378 . S
C622 C621 1.348 . S
C623 C619 1.415 . S
C623 C621 1.413 . S
C623 C653 1.437 . S
H624 C653 0.929 1_455 S
N625 Gd598 2.570 . S
N625 C626 1.359 . S
N625 C629 1.343 . S
C626 C619 1.422 . S
C626 N625 1.359 . S
C626 C628 1.421 . S
C627 C628 1.422 . S
C627 C630 1.321 . S
C627 H654 0.931 . S
C628 C626 1.421 . S
C628 C627 1.422 . S
C628 C652 1.417 . S
C629 H606 0.931 . S
C629 N625 1.343 . S
C629 C630 1.390 . S
C630 H608 0.930 . S
C630 C627 1.321 . S
C630 C629 1.390 . S
O631 Gd599 2.386 . S
O631 C643 1.265 . S
O632 Gd598 2.353 . S
O632 C643 1.242 . S
O633 Gd598 2.468 . S
O633 C651 1.263 . S
O634 Gd598 2.427 . S
O634 C651 1.252 . S
O635 Gd599 2.307 . S
O635 C644 1.261 . S
O636 Gd598 2.388 . S
O636 C644 1.252 . S
O637 Gd598 2.386 . S
O637 C655 1.265 . S
O638 Gd599 2.353 . S
O638 C655 1.242 . S
O639 Gd599 2.468 . S
O639 C663 1.263 . S
O640 Gd599 2.427 . S
O640 C663 1.252 . S
O641 Gd598 2.307 . S
O641 C656 1.261 . S
O642 Gd599 2.388 . S
O642 C656 1.252 . S
C643 O631 1.265 . S
C643 O632 1.242 . S
C644 O635 1.261 . S
C644 O636 1.252 . S
C645 C648 1.394 . S
C645 C650 1.370 . S
C645 C651 1.500 . S
C646 C649 1.383 . S
C646 C650 1.395 . S
C647 C648 1.396 . S
C647 C649 1.365 . S
C647 H664 0.929 . S
C648 C645 1.394 . S
C648 C647 1.396 . S
C648 H665 0.930 . S
C649 C646 1.383 . S
C649 C647 1.365 . S
C649 H666 0.931 . S
C650 C645 1.370 . S
C650 C646 1.395 . S
C650 H667 0.930 . S
C651 Gd598 2.805 . S
C651 O633 1.263 . S
C651 O634 1.252 . S
C651 C645 1.500 . S
C652 H614 0.930 . S
C652 C628 1.417 . S
C652 C653 1.329 . S
C653 C623 1.437 . S
C653 H624 0.929 1_655 S
C653 C652 1.329 . S
H654 C627 0.931 . S
C655 O637 1.265 . S
C655 O638 1.242 . S
C656 O641 1.261 . S
C656 O642 1.252 . S
C657 C660 1.394 . S
C657 C662 1.370 . S
C657 C663 1.500 . S
C658 C661 1.383 . S
C658 C662 1.395 . S
C659 C660 1.396 . S
C659 C661 1.365 . S
C659 H668 0.929 . S
C660 C657 1.394 . S
C660 C659 1.396 . S
C660 H669 0.930 . S
C661 C658 1.383 . S
C661 C659 1.365 . S
C661 H670 0.931 . S
C662 C657 1.370 . S
C662 C658 1.395 . S
C662 H671 0.930 . S
C663 Gd599 2.805 . S
C663 O639 1.263 . S
C663 O640 1.252 . S
C663 C657 1.500 . S
H664 C647 0.929 . S
H665 C648 0.930 . S
H666 C649 0.931 . S
H667 C650 0.930 . S
H668 C659 0.929 . S
H669 C660 0.930 . S
H670 C661 0.931 . S
H671 C662 0.930 . S
C672 C674 1.422 . S
C672 C676 1.415 . S
C672 N678 1.369 . S
C673 C674 1.421 . S
C673 C675 1.417 . S
C673 C685 1.422 . S
C674 C672 1.422 . S
C674 C673 1.421 . S
C674 N684 1.359 . S
C675 C673 1.417 . S
C675 C677 1.329 . S
C675 H694 0.930 . S
C676 C672 1.415 . S
C676 C677 1.437 . S
C676 C680 1.413 . S
C677 C675 1.329 . S
C677 C676 1.437 . S
C677 H699 0.929 . S
N678 C672 1.369 . S
N678 C679 1.338 . S
N678 Gd683 2.622 . S
C679 N678 1.338 . S
C679 C681 1.378 . S
C679 H691 0.929 . S
C680 C676 1.413 . S
C680 C681 1.348 . S
C680 H696 0.931 . S
C681 C679 1.378 . S
C681 C680 1.348 . S
C681 H697 0.930 . S
Gd682 N702 2.622 . S
Gd682 N709 2.570 . S
Gd682 O716 2.353 . S
Gd682 O717 2.468 . S
Gd682 O718 2.427 . S
Gd682 O720 2.382 1_455 S
Gd682 O721 2.386 1_455 S
Gd682 O725 2.307 1_455 S
Gd682 C735 2.805 . S
Gd683 N678 2.622 . S
Gd683 N684 2.570 . S
Gd683 O715 2.386 . S
Gd683 O719 2.307 . S
Gd683 O722 2.353 . S
Gd683 O723 2.468 . S
Gd683 O724 2.427 . S
Gd683 O726 2.388 . S
Gd683 C747 2.805 . S
N684 C674 1.359 . S
N684 Gd683 2.570 . S
N684 C686 1.343 . S
C685 C673 1.422 . S
C685 C687 1.321 . S
C685 H693 0.931 . S
C686 N684 1.343 . S
C686 C687 1.390 . S
C686 H688 0.931 . S
C687 C685 1.321 . S
C687 C686 1.390 . S
C687 H689 0.930 . S
H688 C686 0.931 . S
H689 C687 0.930 . S
H690 C713 0.931 . S
H691 C679 0.929 . S
H692 C714 0.930 . S
H693 C685 0.931 . S
H694 C675 0.930 . S
H695 C704 0.929 . S
H696 C680 0.931 . S
H697 C681 0.930 . S
H698 C736 0.930 . S
H699 C677 0.929 . S
H700 C705 0.931 . S
H701 C706 0.930 . S
N702 Gd682 2.622 . S
N702 C703 1.369 . S
N702 C704 1.338 . S
C703 N702 1.369 . S
C703 C707 1.415 . S
C703 C710 1.422 . S
C704 H695 0.929 . S
C704 N702 1.338 . S
C704 C706 1.378 . S
C705 H700 0.931 . S
C705 C706 1.348 . S
C705 C707 1.413 . S
C706 H701 0.930 . S
C706 C704 1.378 . S
C706 C705 1.348 . S
C707 C703 1.415 . S
C707 C705 1.413 . S
C707 C737 1.437 . S
H708 C737 0.929 . S
N709 Gd682 2.570 . S
N709 C710 1.359 . S
N709 C713 1.343 . S
C710 C703 1.422 . S
C710 N709 1.359 . S
C710 C712 1.421 . S
C711 C712 1.422 . S
C711 C714 1.321 . S
C711 H738 0.931 . S
C712 C710 1.421 . S
C712 C711 1.422 . S
C712 C736 1.417 . S
C713 H690 0.931 . S
C713 N709 1.343 . S
C713 C714 1.390 . S
C714 H692 0.930 . S
C714 C711 1.321 . S
C714 C713 1.390 . S
O715 Gd683 2.386 . S
O715 C727 1.265 . S
O716 Gd682 2.353 . S
O716 C727 1.242 1_455 S
O717 Gd682 2.468 . S
O717 C735 1.263 . S
O718 Gd682 2.427 . S
O718 C735 1.252 . S
O719 Gd683 2.307 . S
O719 C728 1.261 . S
O720 Gd682 2.382 1_655 S
O720 C728 1.266 . S
O721 Gd682 2.386 1_655 S
O721 C739 1.265 . S
O722 Gd683 2.353 . S
O722 C739 1.242 . S
O723 Gd683 2.468 . S
O723 C747 1.263 . S
O724 Gd683 2.427 . S
O724 C747 1.252 . S
O725 Gd682 2.307 1_655 S
O725 C740 1.261 . S
O726 Gd683 2.388 . S
O726 C740 1.252 . S
C727 O715 1.265 . S
C727 O716 1.242 1_655 S
C728 O719 1.261 . S
C728 O720 1.266 . S
C729 C732 1.394 . S
C729 C734 1.370 . S
C729 C735 1.500 . S
C730 C733 1.383 . S
C730 C734 1.395 . S
C731 C732 1.396 . S
C731 C733 1.365 . S
C731 H748 0.929 . S
C732 C729 1.394 . S
C732 C731 1.396 . S
C732 H749 0.930 . S
C733 C730 1.383 . S
C733 C731 1.365 . S
C733 H750 0.931 . S
C734 C729 1.370 . S
C734 C730 1.395 . S
C734 H751 0.930 . S
C735 Gd682 2.805 . S
C735 O717 1.263 . S
C735 O718 1.252 . S
C735 C729 1.500 . S
C736 H698 0.930 . S
C736 C712 1.417 . S
C736 C737 1.329 . S
C737 C707 1.437 . S
C737 H708 0.929 . S
C737 C736 1.329 . S
H738 C711 0.931 . S
C739 O721 1.265 . S
C739 O722 1.242 . S
C740 O725 1.261 . S
C740 O726 1.252 . S
C741 C744 1.394 . S
C741 C746 1.370 . S
C741 C747 1.500 . S
C742 C745 1.383 . S
C742 C746 1.395 . S
C743 C744 1.396 . S
C743 C745 1.365 . S
C743 H752 0.929 . S
C744 C741 1.394 . S
C744 C743 1.396 . S
C744 H753 0.930 . S
C745 C742 1.383 . S
C745 C743 1.365 . S
C745 H754 0.931 . S
C746 C741 1.370 . S
C746 C742 1.395 . S
C746 H755 0.930 . S
C747 Gd683 2.805 . S
C747 O723 1.263 . S
C747 O724 1.252 . S
C747 C741 1.500 . S
H748 C731 0.929 . S
H749 C732 0.930 . S
H750 C733 0.931 . S
H751 C734 0.930 . S
H752 C743 0.929 . S
H753 C744 0.930 . S
H754 C745 0.931 . S
H755 C746 0.930 . S
C756 C758 1.422 . S
C756 C760 1.415 . S
C756 N762 1.369 . S
C757 C758 1.421 . S
C757 C759 1.417 . S
C757 C769 1.422 . S
C758 C756 1.422 . S
C758 C757 1.421 . S
C758 N768 1.359 . S
C759 C757 1.417 . S
C759 C761 1.329 . S
C759 H778 0.930 . S
C760 C756 1.415 . S
C760 C761 1.437 . S
C760 C764 1.413 . S
C761 C759 1.329 . S
C761 C760 1.437 . S
C761 H783 0.929 1_455 S
N762 C756 1.369 . S
N762 C763 1.338 . S
N762 Gd767 2.622 . S
C763 N762 1.338 . S
C763 C765 1.378 . S
C763 H775 0.929 . S
C764 C760 1.413 . S
C764 C765 1.348 . S
C764 H780 0.931 1_455 S
C765 C763 1.378 . S
C765 C764 1.348 . S
C765 H781 0.930 . S
Gd766 N786 2.622 . S
Gd766 N793 2.570 . S
Gd766 O800 2.353 . S
Gd766 O801 2.468 . S
Gd766 O802 2.427 . S
Gd766 O804 2.372 1_545 S
Gd766 O805 2.386 1_545 S
Gd766 O809 2.307 1_545 S
Gd766 C819 2.805 . S
Gd767 N762 2.622 . S
Gd767 N768 2.570 . S
Gd767 O799 2.386 . S
Gd767 O803 2.307 . S
Gd767 O806 2.353 . S
Gd767 O807 2.468 . S
Gd767 O808 2.427 . S
Gd767 O810 2.388 . S
Gd767 C831 2.805 . S
N768 C758 1.359 . S
N768 Gd767 2.570 . S
N768 C770 1.343 . S
C769 C757 1.422 . S
C769 C771 1.321 . S
C769 H777 0.931 . S
C770 N768 1.343 . S
C770 C771 1.390 . S
C770 H772 0.931 . S
C771 C769 1.321 . S
C771 C770 1.390 . S
C771 H773 0.930 . S
H772 C770 0.931 . S
H773 C771 0.930 . S
H774 C797 0.931 . S
H775 C763 0.929 . S
H776 C798 0.930 . S
H777 C769 0.931 . S
H778 C759 0.930 . S
H779 C788 0.929 . S
H780 C764 0.931 1_655 S
H781 C765 0.930 . S
H782 C820 0.930 . S
H783 C761 0.929 1_655 S
H784 C789 0.931 . S
H785 C790 0.930 . S
N786 Gd766 2.622 . S
N786 C787 1.369 . S
N786 C788 1.338 . S
C787 N786 1.369 . S
C787 C791 1.415 . S
C787 C794 1.422 . S
C788 H779 0.929 . S
C788 N786 1.338 . S
C788 C790 1.378 . S
C789 H784 0.931 . S
C789 C790 1.348 . S
C789 C791 1.413 . S
C790 H785 0.930 . S
C790 C788 1.378 . S
C790 C789 1.348 . S
C791 C787 1.415 . S
C791 C789 1.413 . S
C791 C821 1.437 . S
H792 C821 0.929 . S
N793 Gd766 2.570 . S
N793 C794 1.359 . S
N793 C797 1.343 . S
C794 C787 1.422 . S
C794 N793 1.359 . S
C794 C796 1.421 . S
C795 C796 1.422 . S
C795 C798 1.321 . S
C795 H822 0.931 . S
C796 C794 1.421 . S
C796 C795 1.422 . S
C796 C820 1.417 . S
C797 H774 0.931 . S
C797 N793 1.343 . S
C797 C798 1.390 . S
C798 H776 0.930 . S
C798 C795 1.321 . S
C798 C797 1.390 . S
O799 Gd767 2.386 . S
O799 C811 1.265 . S
O800 Gd766 2.353 . S
O800 C811 1.242 1_545 S
O801 Gd766 2.468 . S
O801 C819 1.263 . S
O802 Gd766 2.427 . S
O802 C819 1.252 . S
O803 Gd767 2.307 . S
O803 C812 1.261 . S
O804 Gd766 2.372 1_565 S
O804 C812 1.287 . S
O805 Gd766 2.386 1_565 S
O805 C823 1.265 . S
O806 Gd767 2.353 . S
O806 C823 1.242 . S
O807 Gd767 2.468 . S
O807 C831 1.263 . S
O808 Gd767 2.427 . S
O808 C831 1.252 . S
O809 Gd766 2.307 1_565 S
O809 C824 1.261 . S
O810 Gd767 2.388 . S
O810 C824 1.252 . S
C811 O799 1.265 . S
C811 O800 1.242 1_565 S
C812 O803 1.261 . S
C812 O804 1.287 . S
C813 C816 1.394 . S
C813 C818 1.370 . S
C813 C819 1.500 . S
C814 C817 1.383 . S
C814 C818 1.395 . S
C815 C816 1.396 . S
C815 C817 1.365 . S
C815 H832 0.929 . S
C816 C813 1.394 . S
C816 C815 1.396 . S
C816 H833 0.930 . S
C817 C814 1.383 . S
C817 C815 1.365 . S
C817 H834 0.931 . S
C818 C813 1.370 . S
C818 C814 1.395 . S
C818 H835 0.930 . S
C819 Gd766 2.805 . S
C819 O801 1.263 . S
C819 O802 1.252 . S
C819 C813 1.500 . S
C820 H782 0.930 . S
C820 C796 1.417 . S
C820 C821 1.329 . S
C821 C791 1.437 . S
C821 H792 0.929 . S
C821 C820 1.329 . S
H822 C795 0.931 . S
C823 O805 1.265 . S
C823 O806 1.242 . S
C824 O809 1.261 . S
C824 O810 1.252 . S
C825 C828 1.394 . S
C825 C830 1.370 . S
C825 C831 1.500 . S
C826 C829 1.383 . S
C826 C830 1.395 . S
C827 C828 1.396 . S
C827 C829 1.365 . S
C827 H836 0.929 . S
C828 C825 1.394 . S
C828 C827 1.396 . S
C828 H837 0.930 . S
C829 C826 1.383 . S
C829 C827 1.365 . S
C829 H838 0.931 . S
C830 C825 1.370 . S
C830 C826 1.395 . S
C830 H839 0.930 . S
C831 Gd767 2.805 . S
C831 O807 1.263 . S
C831 O808 1.252 . S
C831 C825 1.500 . S
H832 C815 0.929 . S
H833 C816 0.930 . S
H834 C817 0.931 . S
H835 C818 0.930 . S
H836 C827 0.929 . S
H837 C828 0.930 . S
H838 C829 0.931 . S
H839 C830 0.930 . S
C840 C842 1.422 . S
C840 C844 1.415 . S
C840 N846 1.369 . S
C841 C842 1.421 . S
C841 C843 1.417 . S
C841 C853 1.422 . S
C842 C840 1.422 . S
C842 C841 1.421 . S
C842 N852 1.359 . S
C843 C841 1.417 . S
C843 C845 1.329 . S
C843 H862 0.930 . S
C844 C840 1.415 . S
C844 C845 1.437 . S
C844 C848 1.413 . S
C845 C843 1.329 . S
C845 C844 1.437 . S
C845 H867 0.929 . S
N846 C840 1.369 . S
N846 C847 1.338 . S
N846 Gd851 2.622 . S
C847 N846 1.338 . S
C847 C849 1.378 . S
C847 H859 0.929 . S
C848 C844 1.413 . S
C848 C849 1.348 . S
C848 H864 0.931 . S
C849 C847 1.378 . S
C849 C848 1.348 . S
C849 H865 0.930 . S
Gd850 N870 2.622 . S
Gd850 N877 2.570 . S
Gd850 O884 2.353 . S
Gd850 O885 2.468 . S
Gd850 O886 2.427 . S
Gd850 O888 2.388 . S
Gd850 O889 2.386 . S
Gd850 O893 2.307 . S
Gd850 C903 2.805 . S
Gd851 N846 2.622 . S
Gd851 N852 2.570 . S
Gd851 O883 2.386 . S
Gd851 O887 2.307 . S
Gd851 O890 2.353 . S
Gd851 O891 2.468 . S
Gd851 O892 2.427 . S
Gd851 O894 2.388 . S
Gd851 C915 2.805 . S
N852 C842 1.359 . S
N852 Gd851 2.570 . S
N852 C854 1.343 . S
C853 C841 1.422 . S
C853 C855 1.321 . S
C853 H861 0.931 . S
C854 N852 1.343 . S
C854 C855 1.390 . S
C854 H856 0.931 . S
C855 C853 1.321 . S
C855 C854 1.390 . S
C855 H857 0.930 . S
H856 C854 0.931 . S
H857 C855 0.930 . S
H858 C881 0.931 . S
H859 C847 0.929 . S
H860 C882 0.930 1_554 S
H861 C853 0.931 . S
H862 C843 0.930 . S
H863 C872 0.929 . S
H864 C848 0.931 . S
H865 C849 0.930 . S
H866 C904 0.930 . S
H867 C845 0.929 . S
H868 C873 0.923 1_565 S
H869 C874 0.930 1_565 S
N870 Gd850 2.622 . S
N870 C871 1.369 . S
N870 C872 1.338 . S
C871 N870 1.369 . S
C871 C875 1.415 . S
C871 C878 1.422 . S
C872 H863 0.929 . S
C872 N870 1.338 . S
C872 C874 1.378 . S
C873 H868 0.923 1_545 S
C873 C874 1.350 . S
C873 C875 1.419 . S
C874 H869 0.930 1_545 S
C874 C872 1.378 . S
C874 C873 1.350 . S
C875 C871 1.415 . S
C875 C873 1.419 . S
C875 C905 1.437 . S
H876 C905 0.899 1_565 S
N877 Gd850 2.570 . S
N877 C878 1.359 . S
N877 C881 1.343 . S
C878 C871 1.422 . S
C878 N877 1.359 . S
C878 C880 1.421 . S
C879 C880 1.422 . S
C879 C882 1.321 . S
C879 H906 0.931 1_556 S
C880 C878 1.421 . S
C880 C879 1.422 . S
C880 C904 1.417 . S
C881 H858 0.931 . S
C881 N877 1.343 . S
C881 C882 1.390 . S
C882 H860 0.930 1_556 S
C882 C879 1.321 . S
C882 C881 1.390 . S
O883 Gd851 2.386 . S
O883 C895 1.265 . S
O884 Gd850 2.353 . S
O884 C895 1.242 . S
O885 Gd850 2.468 . S
O885 C903 1.263 . S
O886 Gd850 2.427 . S
O886 C903 1.252 . S
O887 Gd851 2.307 . S
O887 C896 1.261 . S
O888 Gd850 2.388 . S
O888 C896 1.252 . S
O889 Gd850 2.386 . S
O889 C907 1.265 . S
O890 Gd851 2.353 . S
O890 C907 1.242 . S
O891 Gd851 2.468 . S
O891 C915 1.263 . S
O892 Gd851 2.427 . S
O892 C915 1.252 . S
O893 Gd850 2.307 . S
O893 C908 1.261 . S
O894 Gd851 2.388 . S
O894 C908 1.252 . S
C895 O883 1.265 . S
C895 O884 1.242 . S
C896 O887 1.261 . S
C896 O888 1.252 . S
C897 C900 1.394 . S
C897 C902 1.370 . S
C897 C903 1.500 . S
C898 C901 1.383 . S
C898 C902 1.395 . S
C899 C900 1.396 . S
C899 C901 1.365 . S
C899 H916 0.929 . S
C900 C897 1.394 . S
C900 C899 1.396 . S
C900 H917 0.930 . S
C901 C898 1.383 . S
C901 C899 1.365 . S
C901 H918 0.931 . S
C902 C897 1.370 . S
C902 C898 1.395 . S
C902 H919 0.930 . S
C903 Gd850 2.805 . S
C903 O885 1.263 . S
C903 O886 1.252 . S
C903 C897 1.500 . S
C904 H866 0.930 . S
C904 C880 1.417 . S
C904 C905 1.329 . S
C905 C875 1.437 . S
C905 H876 0.899 1_545 S
C905 C904 1.329 . S
H906 C879 0.931 1_554 S
C907 O889 1.265 . S
C907 O890 1.242 . S
C908 O893 1.261 . S
C908 O894 1.252 . S
C909 C912 1.394 . S
C909 C914 1.370 . S
C909 C915 1.500 . S
C910 C913 1.383 . S
C910 C914 1.395 . S
C911 C912 1.396 . S
C911 C913 1.365 . S
C911 H920 0.929 . S
C912 C909 1.394 . S
C912 C911 1.396 . S
C912 H921 0.930 . S
C913 C910 1.383 . S
C913 C911 1.365 . S
C913 H922 0.931 . S
C914 C909 1.370 . S
C914 C910 1.395 . S
C914 H923 0.930 . S
C915 Gd851 2.805 . S
C915 O891 1.263 . S
C915 O892 1.252 . S
C915 C909 1.500 . S
H916 C899 0.929 . S
H917 C900 0.930 . S
H918 C901 0.931 . S
H919 C902 0.930 . S
H920 C911 0.929 . S
H921 C912 0.930 . S
H922 C913 0.931 . S
H923 C914 0.930 . S
C924 C926 1.422 . S
C924 C928 1.415 . S
C924 N930 1.369 . S
C925 C926 1.421 . S
C925 C927 1.417 . S
C925 C937 1.422 . S
C926 C924 1.422 . S
C926 C925 1.421 . S
C926 N936 1.359 . S
C927 C925 1.417 . S
C927 C929 1.329 . S
C927 H946 0.930 . S
C928 C924 1.415 . S
C928 C929 1.437 . S
C928 C932 1.413 . S
C929 C927 1.329 . S
C929 C928 1.437 . S
C929 H951 0.929 . S
N930 C924 1.369 . S
N930 C931 1.338 . S
N930 Gd935 2.622 . S
C931 N930 1.338 . S
C931 C933 1.378 . S
C931 H943 0.929 . S
C932 C928 1.413 . S
C932 C933 1.348 . S
C932 H948 0.931 . S
C933 C931 1.378 . S
C933 C932 1.348 . S
C933 H949 0.930 . S
Gd934 N954 2.622 . S
Gd934 N961 2.570 . S
Gd934 O968 2.353 . S
Gd934 O969 2.468 . S
Gd934 O970 2.427 . S
Gd934 O972 2.388 . S
Gd934 O973 2.386 . S
Gd934 O977 2.307 . S
Gd934 C987 2.805 . S
Gd935 N930 2.622 . S
Gd935 N936 2.570 . S
Gd935 O967 2.386 . S
Gd935 O971 2.307 . S
Gd935 O974 2.353 . S
Gd935 O975 2.468 . S
Gd935 O976 2.427 . S
Gd935 O978 2.388 . S
Gd935 C999 2.805 . S
N936 C926 1.359 . S
N936 Gd935 2.570 . S
N936 C938 1.343 . S
C937 C925 1.422 . S
C937 C939 1.321 . S
C937 H945 0.931 . S
C938 N936 1.343 . S
C938 C939 1.390 . S
C938 H940 0.931 . S
C939 C937 1.321 . S
C939 C938 1.390 . S
C939 H941 0.930 . S
H940 C938 0.931 . S
H941 C939 0.930 . S
H942 C965 0.931 . S
H943 C931 0.929 . S
H944 C966 0.930 . S
H945 C937 0.931 . S
H946 C927 0.930 . S
H947 C956 0.929 . S
H948 C932 0.931 . S
H949 C933 0.930 . S
H950 C988 0.930 . S
H951 C929 0.929 . S
H952 C957 0.931 . S
H953 C958 0.930 . S
N954 Gd934 2.622 . S
N954 C955 1.369 . S
N954 C956 1.338 . S
C955 N954 1.369 . S
C955 C959 1.415 . S
C955 C962 1.422 . S
C956 H947 0.929 . S
C956 N954 1.338 . S
C956 C958 1.378 . S
C957 H952 0.931 . S
C957 C958 1.348 . S
C957 C959 1.413 . S
C958 H953 0.930 . S
C958 C956 1.378 . S
C958 C957 1.348 . S
C959 C955 1.415 . S
C959 C957 1.413 . S
C959 C989 1.437 . S
H960 C989 0.929 . S
N961 Gd934 2.570 . S
N961 C962 1.359 . S
N961 C965 1.343 . S
C962 C955 1.422 . S
C962 N961 1.359 . S
C962 C964 1.421 . S
C963 C964 1.422 . S
C963 C966 1.321 . S
C963 H990 0.931 . S
C964 C962 1.421 . S
C964 C963 1.422 . S
C964 C988 1.417 . S
C965 H942 0.931 . S
C965 N961 1.343 . S
C965 C966 1.390 . S
C966 H944 0.930 . S
C966 C963 1.321 . S
C966 C965 1.390 . S
O967 Gd935 2.386 . S
O967 C979 1.265 . S
O968 Gd934 2.353 . S
O968 C979 1.242 . S
O969 Gd934 2.468 . S
O969 C987 1.263 . S
O970 Gd934 2.427 . S
O970 C987 1.252 . S
O971 Gd935 2.307 . S
O971 C980 1.261 . S
O972 Gd934 2.388 . S
O972 C980 1.252 . S
O973 Gd934 2.386 . S
O973 C991 1.265 . S
O974 Gd935 2.353 . S
O974 C991 1.242 . S
O975 Gd935 2.468 . S
O975 C999 1.263 . S
O976 Gd935 2.427 . S
O976 C999 1.252 . S
O977 Gd934 2.307 . S
O977 C992 1.261 . S
O978 Gd935 2.388 . S
O978 C992 1.252 . S
C979 O967 1.265 . S
C979 O968 1.242 . S
C980 O971 1.261 . S
C980 O972 1.252 . S
C981 C984 1.394 . S
C981 C986 1.370 . S
C981 C987 1.500 . S
C982 C985 1.383 . S
C982 C986 1.395 . S
C983 C984 1.396 . S
C983 C985 1.365 . S
C983 H1000 0.929 . S
C984 C981 1.394 . S
C984 C983 1.396 . S
C984 H1001 0.930 . S
C985 C982 1.383 . S
C985 C983 1.365 . S
C985 H1002 0.931 . S
C986 C981 1.370 . S
C986 C982 1.395 . S
C986 H1003 0.930 . S
C987 Gd934 2.805 . S
C987 O969 1.263 . S
C987 O970 1.252 . S
C987 C981 1.500 . S
C988 H950 0.930 . S
C988 C964 1.417 . S
C988 C989 1.329 . S
C989 C959 1.437 . S
C989 H960 0.929 . S
C989 C988 1.329 . S
H990 C963 0.931 . S
C991 O973 1.265 . S
C991 O974 1.242 . S
C992 O977 1.261 . S
C992 O978 1.252 . S
C993 C996 1.394 . S
C993 C998 1.370 . S
C993 C999 1.500 . S
C994 C997 1.383 . S
C994 C998 1.395 . S
C995 C996 1.396 . S
C995 C997 1.365 . S
C995 H1004 0.929 . S
C996 C993 1.394 . S
C996 C995 1.396 . S
C996 H1005 0.930 . S
C997 C994 1.383 . S
C997 C995 1.365 . S
C997 H1006 0.931 . S
C998 C993 1.370 . S
C998 C994 1.395 . S
C998 H1007 0.930 . S
C999 Gd935 2.805 . S
C999 O975 1.263 . S
C999 O976 1.252 . S
C999 C993 1.500 . S
H1000 C983 0.929 . S
H1001 C984 0.930 . S
H1002 C985 0.931 . S
H1003 C986 0.930 . S
H1004 C995 0.929 . S
H1005 C996 0.930 . S
H1006 C997 0.931 . S
H1007 C998 0.930 . S
C1008 C1010 1.422 . S
C1008 C1012 1.415 . S
C1008 N1014 1.369 . S
C1009 C1010 1.421 . S
C1009 C1011 1.417 . S
C1009 C1021 1.422 . S
C1010 C1008 1.422 . S
C1010 C1009 1.421 . S
C1010 N1020 1.359 . S
C1011 C1009 1.417 . S
C1011 C1013 1.344 . S
C1011 H1030 0.930 . S
C1012 C1008 1.415 . S
C1012 C1013 1.452 . S
C1012 C1016 1.423 . S
C1013 C1011 1.344 . S
C1013 C1012 1.452 . S
C1013 H1035 0.900 1_545 S
N1014 C1008 1.369 . S
N1014 C1015 1.338 . S
N1014 Gd1019 2.622 . S
C1015 N1014 1.338 . S
C1015 C1017 1.378 . S
C1015 H1027 0.929 . S
C1016 C1012 1.423 . S
C1016 C1017 1.359 . S
C1016 H1032 0.911 1_545 S
C1017 C1015 1.378 . S
C1017 C1016 1.359 . S
C1017 H1033 0.930 . S
Gd1018 N1038 2.622 . S
Gd1018 N1045 2.570 . S
Gd1018 O1052 2.353 . S
Gd1018 O1053 2.468 . S
Gd1018 O1054 2.427 . S
Gd1018 O1056 2.382 1_455 S
Gd1018 O1057 2.386 1_455 S
Gd1018 O1061 2.307 1_455 S
Gd1018 C1071 2.805 . S
Gd1019 N1014 2.622 . S
Gd1019 N1020 2.570 . S
Gd1019 O1051 2.386 . S
Gd1019 O1055 2.307 . S
Gd1019 O1058 2.353 . S
Gd1019 O1059 2.468 . S
Gd1019 O1060 2.427 . S
Gd1019 O1062 2.388 . S
Gd1019 C1083 2.805 . S
N1020 C1010 1.359 . S
N1020 Gd1019 2.570 . S
N1020 C1022 1.343 . S
C1021 C1009 1.422 . S
C1021 C1023 1.321 . S
C1021 H1029 0.931 . S
C1022 N1020 1.343 . S
C1022 C1023 1.390 . S
C1022 H1024 0.931 . S
C1023 C1021 1.321 . S
C1023 C1022 1.390 . S
C1023 H1025 0.930 . S
H1024 C1022 0.931 . S
H1025 C1023 0.930 . S
H1026 C1049 0.931 . S
H1027 C1015 0.929 . S
H1028 C1050 0.930 . S
H1029 C1021 0.931 . S
H1030 C1011 0.930 . S
H1031 C1040 0.929 . S
H1032 C1016 0.911 1_565 S
H1033 C1017 0.930 . S
H1034 C1072 0.930 . S
H1035 C1013 0.900 1_565 S
H1036 C1041 0.931 . S
H1037 C1042 0.930 . S
N1038 Gd1018 2.622 . S
N1038 C1039 1.369 . S
N1038 C1040 1.338 . S
C1039 N1038 1.369 . S
C1039 C1043 1.415 . S
C1039 C1046 1.422 . S
C1040 H1031 0.929 . S
C1040 N1038 1.338 . S
C1040 C1042 1.378 . S
C1041 H1036 0.931 . S
C1041 C1042 1.348 . S
C1041 C1043 1.413 . S
C1042 H1037 0.930 . S
C1042 C1040 1.378 . S
C1042 C1041 1.348 . S
C1043 C1039 1.415 . S
C1043 C1041 1.413 . S
C1043 C1073 1.437 . S
H1044 C1073 0.929 . S
N1045 Gd1018 2.570 . S
N1045 C1046 1.359 . S
N1045 C1049 1.343 . S
C1046 C1039 1.422 . S
C1046 N1045 1.359 . S
C1046 C1048 1.421 . S
C1047 C1048 1.422 . S
C1047 C1050 1.321 . S
C1047 H1074 0.931 . S
C1048 C1046 1.421 . S
C1048 C1047 1.422 . S
C1048 C1072 1.417 . S
C1049 H1026 0.931 . S
C1049 N1045 1.343 . S
C1049 C1050 1.390 . S
C1050 H1028 0.930 . S
C1050 C1047 1.321 . S
C1050 C1049 1.390 . S
O1051 Gd1019 2.386 . S
O1051 C1063 1.265 . S
O1052 Gd1018 2.353 . S
O1052 C1063 1.242 1_455 S
O1053 Gd1018 2.468 . S
O1053 C1071 1.263 . S
O1054 Gd1018 2.427 . S
O1054 C1071 1.252 . S
O1055 Gd1019 2.307 . S
O1055 C1064 1.261 . S
O1056 Gd1018 2.382 1_655 S
O1056 C1064 1.266 . S
O1057 Gd1018 2.386 1_655 S
O1057 C1075 1.265 . S
O1058 Gd1019 2.353 . S
O1058 C1075 1.242 . S
O1059 Gd1019 2.468 . S
O1059 C1083 1.263 . S
O1060 Gd1019 2.427 . S
O1060 C1083 1.252 . S
O1061 Gd1018 2.307 1_655 S
O1061 C1076 1.261 . S
O1062 Gd1019 2.388 . S
O1062 C1076 1.252 . S
C1063 O1051 1.265 . S
C1063 O1052 1.242 1_655 S
C1064 O1055 1.261 . S
C1064 O1056 1.266 . S
C1065 C1068 1.394 . S
C1065 C1070 1.370 . S
C1065 C1071 1.500 . S
C1066 C1069 1.383 . S
C1066 C1070 1.395 . S
C1067 C1068 1.396 . S
C1067 C1069 1.365 . S
C1067 H1084 0.929 . S
C1068 C1065 1.394 . S
C1068 C1067 1.396 . S
C1068 H1085 0.930 . S
C1069 C1066 1.383 . S
C1069 C1067 1.365 . S
C1069 H1086 0.931 . S
C1070 C1065 1.370 . S
C1070 C1066 1.395 . S
C1070 H1087 0.930 . S
C1071 Gd1018 2.805 . S
C1071 O1053 1.263 . S
C1071 O1054 1.252 . S
C1071 C1065 1.500 . S
C1072 H1034 0.930 . S
C1072 C1048 1.417 . S
C1072 C1073 1.329 . S
C1073 C1043 1.437 . S
C1073 H1044 0.929 . S
C1073 C1072 1.329 . S
H1074 C1047 0.931 . S
C1075 O1057 1.265 . S
C1075 O1058 1.242 . S
C1076 O1061 1.261 . S
C1076 O1062 1.252 . S
C1077 C1080 1.394 . S
C1077 C1082 1.370 . S
C1077 C1083 1.500 . S
C1078 C1081 1.383 . S
C1078 C1082 1.395 . S
C1079 C1080 1.396 . S
C1079 C1081 1.365 . S
C1079 H1088 0.929 . S
C1080 C1077 1.394 . S
C1080 C1079 1.396 . S
C1080 H1089 0.930 . S
C1081 C1078 1.383 . S
C1081 C1079 1.365 . S
C1081 H1090 0.931 . S
C1082 C1077 1.370 . S
C1082 C1078 1.395 . S
C1082 H1091 0.930 . S
C1083 Gd1019 2.805 . S
C1083 O1059 1.263 . S
C1083 O1060 1.252 . S
C1083 C1077 1.500 . S
H1084 C1067 0.929 . S
H1085 C1068 0.930 . S
H1086 C1069 0.931 . S
H1087 C1070 0.930 . S
H1088 C1079 0.929 . S
H1089 C1080 0.930 . S
H1090 C1081 0.931 . S
H1091 C1082 0.930 . S
C1092 C1094 1.422 . S
C1092 C1096 1.415 . S
C1092 N1098 1.369 . S
C1093 C1094 1.421 . S
C1093 C1095 1.417 . S
C1093 C1105 1.422 . S
C1094 C1092 1.422 . S
C1094 C1093 1.421 . S
C1094 N1104 1.359 . S
C1095 C1093 1.417 . S
C1095 C1097 1.329 . S
C1095 H1114 0.930 . S
C1096 C1092 1.415 . S
C1096 C1097 1.437 . S
C1096 C1100 1.413 . S
C1097 C1095 1.329 . S
C1097 C1096 1.437 . S
C1097 H1119 0.929 . S
N1098 C1092 1.369 . S
N1098 C1099 1.338 . S
N1098 Gd1103 2.622 . S
C1099 N1098 1.338 . S
C1099 C1101 1.378 . S
C1099 H1111 0.929 . S
C1100 C1096 1.413 . S
C1100 C1101 1.348 . S
C1100 H1116 0.931 . S
C1101 C1099 1.378 . S
C1101 C1100 1.348 . S
C1101 H1117 0.930 . S
Gd1102 N1122 2.622 . S
Gd1102 N1129 2.570 . S
Gd1102 O1136 2.353 . S
Gd1102 O1137 2.468 . S
Gd1102 O1138 2.427 . S
Gd1102 O1140 2.388 1_545 S
Gd1102 O1141 2.386 1_545 S
Gd1102 O1145 2.307 1_545 S
Gd1102 C1155 2.805 . S
Gd1103 N1098 2.622 . S
Gd1103 N1104 2.570 . S
Gd1103 O1135 2.386 . S
Gd1103 O1139 2.307 . S
Gd1103 O1142 2.353 . S
Gd1103 O1143 2.468 . S
Gd1103 O1144 2.427 . S
Gd1103 O1146 2.388 . S
Gd1103 C1167 2.805 . S
N1104 C1094 1.359 . S
N1104 Gd1103 2.570 . S
N1104 C1106 1.343 . S
C1105 C1093 1.422 . S
C1105 C1107 1.321 . S
C1105 H1113 0.931 . S
C1106 N1104 1.343 . S
C1106 C1107 1.390 . S
C1106 H1108 0.931 . S
C1107 C1105 1.321 . S
C1107 C1106 1.390 . S
C1107 H1109 0.930 . S
H1108 C1106 0.931 . S
H1109 C1107 0.930 . S
H1110 C1133 0.931 . S
H1111 C1099 0.929 . S
H1112 C1134 0.930 . S
H1113 C1105 0.931 . S
H1114 C1095 0.930 . S
H1115 C1124 0.929 . S
H1116 C1100 0.931 . S
H1117 C1101 0.930 . S
H1118 C1156 0.930 . S
H1119 C1097 0.929 . S
H1120 C1125 0.931 . S
H1121 C1126 0.930 . S
N1122 Gd1102 2.622 . S
N1122 C1123 1.369 . S
N1122 C1124 1.338 . S
C1123 N1122 1.369 . S
C1123 C1127 1.415 . S
C1123 C1130 1.422 . S
C1124 H1115 0.929 . S
C1124 N1122 1.338 . S
C1124 C1126 1.378 . S
C1125 H1120 0.931 . S
C1125 C1126 1.348 . S
C1125 C1127 1.413 . S
C1126 H1121 0.930 . S
C1126 C1124 1.378 . S
C1126 C1125 1.348 . S
C1127 C1123 1.415 . S
C1127 C1125 1.413 . S
C1127 C1157 1.437 . S
H1128 C1157 0.929 . S
N1129 Gd1102 2.570 . S
N1129 C1130 1.359 . S
N1129 C1133 1.343 . S
C1130 C1123 1.422 . S
C1130 N1129 1.359 . S
C1130 C1132 1.421 . S
C1131 C1132 1.422 . S
C1131 C1134 1.321 . S
C1131 H1158 0.931 . S
C1132 C1130 1.421 . S
C1132 C1131 1.422 . S
C1132 C1156 1.417 . S
C1133 H1110 0.931 . S
C1133 N1129 1.343 . S
C1133 C1134 1.390 . S
C1134 H1112 0.930 . S
C1134 C1131 1.321 . S
C1134 C1133 1.390 . S
O1135 Gd1103 2.386 . S
O1135 C1147 1.265 . S
O1136 Gd1102 2.353 . S
O1136 C1147 1.242 1_545 S
O1137 Gd1102 2.468 . S
O1137 C1155 1.263 . S
O1138 Gd1102 2.427 . S
O1138 C1155 1.252 . S
O1139 Gd1103 2.307 . S
O1139 C1148 1.261 . S
O1140 Gd1102 2.388 1_565 S
O1140 C1148 1.250 . S
O1141 Gd1102 2.386 1_565 S
O1141 C1159 1.265 . S
O1142 Gd1103 2.353 . S
O1142 C1159 1.242 . S
O1143 Gd1103 2.468 . S
O1143 C1167 1.263 . S
O1144 Gd1103 2.427 . S
O1144 C1167 1.252 . S
O1145 Gd1102 2.307 1_565 S
O1145 C1160 1.261 . S
O1146 Gd1103 2.388 . S
O1146 C1160 1.252 . S
C1147 O1135 1.265 . S
C1147 O1136 1.242 1_565 S
C1148 O1139 1.261 . S
C1148 O1140 1.250 . S
C1149 C1152 1.394 . S
C1149 C1154 1.370 . S
C1149 C1155 1.500 . S
C1150 C1153 1.383 . S
C1150 C1154 1.395 . S
C1151 C1152 1.396 . S
C1151 C1153 1.365 . S
C1151 H1168 0.929 . S
C1152 C1149 1.394 . S
C1152 C1151 1.396 . S
C1152 H1169 0.930 . S
C1153 C1150 1.383 . S
C1153 C1151 1.365 . S
C1153 H1170 0.931 . S
C1154 C1149 1.370 . S
C1154 C1150 1.395 . S
C1154 H1171 0.930 . S
C1155 Gd1102 2.805 . S
C1155 O1137 1.263 . S
C1155 O1138 1.252 . S
C1155 C1149 1.500 . S
C1156 H1118 0.930 . S
C1156 C1132 1.417 . S
C1156 C1157 1.329 . S
C1157 C1127 1.437 . S
C1157 H1128 0.929 . S
C1157 C1156 1.329 . S
H1158 C1131 0.931 . S
C1159 O1141 1.265 . S
C1159 O1142 1.242 . S
C1160 O1145 1.261 . S
C1160 O1146 1.252 . S
C1161 C1164 1.394 . S
C1161 C1166 1.370 . S
C1161 C1167 1.500 . S
C1162 C1165 1.383 . S
C1162 C1166 1.395 . S
C1163 C1164 1.396 . S
C1163 C1165 1.365 . S
C1163 H1172 0.929 . S
C1164 C1161 1.394 . S
C1164 C1163 1.396 . S
C1164 H1173 0.930 . S
C1165 C1162 1.383 . S
C1165 C1163 1.365 . S
C1165 H1174 0.931 . S
C1166 C1161 1.370 . S
C1166 C1162 1.395 . S
C1166 H1175 0.930 . S
C1167 Gd1103 2.805 . S
C1167 O1143 1.263 . S
C1167 O1144 1.252 . S
C1167 C1161 1.500 . S
H1168 C1151 0.929 . S
H1169 C1152 0.930 . S
H1170 C1153 0.931 . S
H1171 C1154 0.930 . S
H1172 C1163 0.929 . S
H1173 C1164 0.930 . S
H1174 C1165 0.931 . S
H1175 C1166 0.930 . S
C1176 C1178 1.422 . S
C1176 C1180 1.415 . S
C1176 N1182 1.369 . S
C1177 C1178 1.421 . S
C1177 C1179 1.417 . S
C1177 C1189 1.422 . S
C1178 C1176 1.422 . S
C1178 C1177 1.421 . S
C1178 N1188 1.359 . S
C1179 C1177 1.417 . S
C1179 C1181 1.329 . S
C1179 H1198 0.930 . S
C1180 C1176 1.415 . S
C1180 C1181 1.437 . S
C1180 C1184 1.413 . S
C1181 C1179 1.329 . S
C1181 C1180 1.437 . S
C1181 H1203 0.929 . S
N1182 C1176 1.369 . S
N1182 C1183 1.338 . S
N1182 Gd1187 2.622 . S
C1183 N1182 1.338 . S
C1183 C1185 1.378 . S
C1183 H1195 0.929 . S
C1184 C1180 1.413 . S
C1184 C1185 1.348 . S
C1184 H1200 0.931 . S
C1185 C1183 1.378 . S
C1185 C1184 1.348 . S
C1185 H1201 0.930 . S
Gd1186 N1206 2.622 . S
Gd1186 N1213 2.570 . S
Gd1186 O1220 2.353 . S
Gd1186 O1221 2.468 . S
Gd1186 O1222 2.427 . S
Gd1186 O1224 2.388 . S
Gd1186 O1225 2.386 . S
Gd1186 O1229 2.307 . S
Gd1186 C1239 2.805 . S
Gd1187 N1182 2.622 . S
Gd1187 N1188 2.570 . S
Gd1187 O1219 2.386 . S
Gd1187 O1223 2.307 . S
Gd1187 O1226 2.353 . S
Gd1187 O1227 2.468 . S
Gd1187 O1228 2.427 . S
Gd1187 O1230 2.388 . S
Gd1187 C1251 2.805 . S
N1188 C1178 1.359 . S
N1188 Gd1187 2.570 . S
N1188 C1190 1.343 . S
C1189 C1177 1.422 . S
C1189 C1191 1.321 . S
C1189 H1197 0.931 . S
C1190 N1188 1.343 . S
C1190 C1191 1.390 . S
C1190 H1192 0.931 . S
C1191 C1189 1.321 . S
C1191 C1190 1.390 . S
C1191 H1193 0.930 . S
H1192 C1190 0.931 . S
H1193 C1191 0.930 . S
H1194 C1217 0.931 . S
H1195 C1183 0.929 . S
H1196 C1218 0.930 . S
H1197 C1189 0.931 . S
H1198 C1179 0.930 . S
H1199 C1208 0.929 . S
H1200 C1184 0.931 . S
H1201 C1185 0.930 . S
H1202 C1240 0.930 . S
H1203 C1181 0.929 . S
H1204 C1209 0.931 . S
H1205 C1210 0.930 . S
N1206 Gd1186 2.622 . S
N1206 C1207 1.369 . S
N1206 C1208 1.338 . S
C1207 N1206 1.369 . S
C1207 C1211 1.415 . S
C1207 C1214 1.422 . S
C1208 H1199 0.929 . S
C1208 N1206 1.338 . S
C1208 C1210 1.378 . S
C1209 H1204 0.931 . S
C1209 C1210 1.348 . S
C1209 C1211 1.413 . S
C1210 H1205 0.930 . S
C1210 C1208 1.378 . S
C1210 C1209 1.348 . S
C1211 C1207 1.415 . S
C1211 C1209 1.413 . S
C1211 C1241 1.437 . S
H1212 C1241 0.929 . S
N1213 Gd1186 2.570 . S
N1213 C1214 1.359 . S
N1213 C1217 1.343 . S
C1214 C1207 1.422 . S
C1214 N1213 1.359 . S
C1214 C1216 1.421 . S
C1215 C1216 1.422 . S
C1215 C1218 1.321 . S
C1215 H1242 0.931 . S
C1216 C1214 1.421 . S
C1216 C1215 1.422 . S
C1216 C1240 1.417 . S
C1217 H1194 0.931 . S
C1217 N1213 1.343 . S
C1217 C1218 1.390 . S
C1218 H1196 0.930 . S
C1218 C1215 1.321 . S
C1218 C1217 1.390 . S
O1219 Gd1187 2.386 . S
O1219 C1231 1.265 . S
O1220 Gd1186 2.353 . S
O1220 C1231 1.242 . S
O1221 Gd1186 2.468 . S
O1221 C1239 1.263 . S
O1222 Gd1186 2.427 . S
O1222 C1239 1.252 . S
O1223 Gd1187 2.307 . S
O1223 C1232 1.261 . S
O1224 Gd1186 2.388 . S
O1224 C1232 1.252 . S
O1225 Gd1186 2.386 . S
O1225 C1243 1.265 . S
O1226 Gd1187 2.353 . S
O1226 C1243 1.242 . S
O1227 Gd1187 2.468 . S
O1227 C1251 1.263 . S
O1228 Gd1187 2.427 . S
O1228 C1251 1.252 . S
O1229 Gd1186 2.307 . S
O1229 C1244 1.261 . S
O1230 Gd1187 2.388 . S
O1230 C1244 1.252 . S
C1231 O1219 1.265 . S
C1231 O1220 1.242 . S
C1232 O1223 1.261 . S
C1232 O1224 1.252 . S
C1233 C1236 1.394 . S
C1233 C1238 1.370 . S
C1233 C1239 1.500 . S
C1234 C1237 1.383 . S
C1234 C1238 1.395 . S
C1235 C1236 1.396 . S
C1235 C1237 1.365 . S
C1235 H1252 0.929 . S
C1236 C1233 1.394 . S
C1236 C1235 1.396 . S
C1236 H1253 0.930 . S
C1237 C1234 1.383 . S
C1237 C1235 1.365 . S
C1237 H1254 0.931 . S
C1238 C1233 1.370 . S
C1238 C1234 1.395 . S
C1238 H1255 0.930 . S
C1239 Gd1186 2.805 . S
C1239 O1221 1.263 . S
C1239 O1222 1.252 . S
C1239 C1233 1.500 . S
C1240 H1202 0.930 . S
C1240 C1216 1.417 . S
C1240 C1241 1.329 . S
C1241 C1211 1.437 . S
C1241 H1212 0.929 . S
C1241 C1240 1.329 . S
H1242 C1215 0.931 . S
C1243 O1225 1.265 . S
C1243 O1226 1.242 . S
C1244 O1229 1.261 . S
C1244 O1230 1.252 . S
C1245 C1248 1.394 . S
C1245 C1250 1.370 . S
C1245 C1251 1.500 . S
C1246 C1249 1.383 . S
C1246 C1250 1.395 . S
C1247 C1248 1.396 . S
C1247 C1249 1.365 . S
C1247 H1256 0.929 . S
C1248 C1245 1.394 . S
C1248 C1247 1.396 . S
C1248 H1257 0.930 . S
C1249 C1246 1.383 . S
C1249 C1247 1.365 . S
C1249 H1258 0.931 . S
C1250 C1245 1.370 . S
C1250 C1246 1.395 . S
C1250 H1259 0.930 . S
C1251 Gd1187 2.805 . S
C1251 O1227 1.263 . S
C1251 O1228 1.252 . S
C1251 C1245 1.500 . S
H1252 C1235 0.929 . S
H1253 C1236 0.930 . S
H1254 C1237 0.931 . S
H1255 C1238 0.930 . S
H1256 C1247 0.929 . S
H1257 C1248 0.930 . S
H1258 C1249 0.931 . S
H1259 C1250 0.930 . S
C1260 C1262 1.422 . S
C1260 C1264 1.415 . S
C1260 N1266 1.369 . S
C1261 C1262 1.421 . S
C1261 C1263 1.417 . S
C1261 C1273 1.422 . S
C1262 C1260 1.422 . S
C1262 C1261 1.421 . S
C1262 N1272 1.359 . S
C1263 C1261 1.417 . S
C1263 C1265 1.329 . S
C1263 H1282 0.930 . S
C1264 C1260 1.415 . S
C1264 C1265 1.437 . S
C1264 C1268 1.413 . S
C1265 C1263 1.329 . S
C1265 C1264 1.437 . S
C1265 H1287 0.929 1_455 S
N1266 C1260 1.369 . S
N1266 C1267 1.338 . S
N1266 Gd1271 2.622 . S
C1267 N1266 1.338 . S
C1267 C1269 1.378 . S
C1267 H1279 0.929 . S
C1268 C1264 1.413 . S
C1268 C1269 1.348 . S
C1268 H1284 0.931 1_455 S
C1269 C1267 1.378 . S
C1269 C1268 1.348 . S
C1269 H1285 0.930 . S
Gd1270 N1290 2.622 . S
Gd1270 N1297 2.570 . S
Gd1270 O1304 2.353 . S
Gd1270 O1305 2.468 . S
Gd1270 O1306 2.427 . S
Gd1270 O1308 2.388 . S
Gd1270 O1309 2.386 . S
Gd1270 O1313 2.307 . S
Gd1270 C1323 2.805 . S
Gd1271 N1266 2.622 . S
Gd1271 N1272 2.570 . S
Gd1271 O1303 2.386 . S
Gd1271 O1307 2.307 . S
Gd1271 O1310 2.353 . S
Gd1271 O1311 2.468 . S
Gd1271 O1312 2.427 . S
Gd1271 O1314 2.388 . S
Gd1271 C1335 2.805 . S
N1272 C1262 1.359 . S
N1272 Gd1271 2.570 . S
N1272 C1274 1.343 . S
C1273 C1261 1.422 . S
C1273 C1275 1.321 . S
C1273 H1281 0.931 . S
C1274 N1272 1.343 . S
C1274 C1275 1.390 . S
C1274 H1276 0.931 . S
C1275 C1273 1.321 . S
C1275 C1274 1.390 . S
C1275 H1277 0.930 . S
H1276 C1274 0.931 . S
H1277 C1275 0.930 . S
H1278 C1301 0.931 . S
H1279 C1267 0.929 . S
H1280 C1302 0.930 . S
H1281 C1273 0.931 . S
H1282 C1263 0.930 . S
H1283 C1292 0.929 . S
H1284 C1268 0.931 1_655 S
H1285 C1269 0.930 . S
H1286 C1324 0.930 . S
H1287 C1265 0.929 1_655 S
H1288 C1293 0.931 . S
H1289 C1294 0.930 . S
N1290 Gd1270 2.622 . S
N1290 C1291 1.369 . S
N1290 C1292 1.338 . S
C1291 N1290 1.369 . S
C1291 C1295 1.415 . S
C1291 C1298 1.422 . S
C1292 H1283 0.929 . S
C1292 N1290 1.338 . S
C1292 C1294 1.378 . S
C1293 H1288 0.931 . S
C1293 C1294 1.348 . S
C1293 C1295 1.413 . S
C1294 H1289 0.930 . S
C1294 C1292 1.378 . S
C1294 C1293 1.348 . S
C1295 C1291 1.415 . S
C1295 C1293 1.413 . S
C1295 C1325 1.437 . S
H1296 C1325 0.929 . S
N1297 Gd1270 2.570 . S
N1297 C1298 1.359 . S
N1297 C1301 1.343 . S
C1298 C1291 1.422 . S
C1298 N1297 1.359 . S
C1298 C1300 1.421 . S
C1299 C1300 1.422 . S
C1299 C1302 1.321 . S
C1299 H1326 0.931 . S
C1300 C1298 1.421 . S
C1300 C1299 1.422 . S
C1300 C1324 1.417 . S
C1301 H1278 0.931 . S
C1301 N1297 1.343 . S
C1301 C1302 1.390 . S
C1302 H1280 0.930 . S
C1302 C1299 1.321 . S
C1302 C1301 1.390 . S
O1303 Gd1271 2.386 . S
O1303 C1315 1.265 . S
O1304 Gd1270 2.353 . S
O1304 C1315 1.242 . S
O1305 Gd1270 2.468 . S
O1305 C1323 1.263 . S
O1306 Gd1270 2.427 . S
O1306 C1323 1.252 . S
O1307 Gd1271 2.307 . S
O1307 C1316 1.261 . S
O1308 Gd1270 2.388 . S
O1308 C1316 1.252 . S
O1309 Gd1270 2.386 . S
O1309 C1327 1.265 . S
O1310 Gd1271 2.353 . S
O1310 C1327 1.242 . S
O1311 Gd1271 2.468 . S
O1311 C1335 1.263 . S
O1312 Gd1271 2.427 . S
O1312 C1335 1.252 . S
O1313 Gd1270 2.307 . S
O1313 C1328 1.261 . S
O1314 Gd1271 2.388 . S
O1314 C1328 1.252 . S
C1315 O1303 1.265 . S
C1315 O1304 1.242 . S
C1316 O1307 1.261 . S
C1316 O1308 1.252 . S
C1317 C1320 1.394 . S
C1317 C1322 1.370 . S
C1317 C1323 1.500 . S
C1318 C1321 1.383 . S
C1318 C1322 1.395 . S
C1319 C1320 1.396 . S
C1319 C1321 1.365 . S
C1319 H1336 0.929 . S
C1320 C1317 1.394 . S
C1320 C1319 1.396 . S
C1320 H1337 0.930 . S
C1321 C1318 1.383 . S
C1321 C1319 1.365 . S
C1321 H1338 0.931 . S
C1322 C1317 1.370 . S
C1322 C1318 1.395 . S
C1322 H1339 0.930 . S
C1323 Gd1270 2.805 . S
C1323 O1305 1.263 . S
C1323 O1306 1.252 . S
C1323 C1317 1.500 . S
C1324 H1286 0.930 . S
C1324 C1300 1.417 . S
C1324 C1325 1.329 . S
C1325 C1295 1.437 . S
C1325 H1296 0.929 . S
C1325 C1324 1.329 . S
H1326 C1299 0.931 . S
C1327 O1309 1.265 . S
C1327 O1310 1.242 . S
C1328 O1313 1.261 . S
C1328 O1314 1.252 . S
C1329 C1332 1.394 . S
C1329 C1334 1.370 . S
C1329 C1335 1.500 . S
C1330 C1333 1.383 . S
C1330 C1334 1.395 . S
C1331 C1332 1.396 . S
C1331 C1333 1.365 . S
C1331 H1340 0.929 . S
C1332 C1329 1.394 . S
C1332 C1331 1.396 . S
C1332 H1341 0.930 . S
C1333 C1330 1.383 . S
C1333 C1331 1.365 . S
C1333 H1342 0.931 . S
C1334 C1329 1.370 . S
C1334 C1330 1.395 . S
C1334 H1343 0.930 . S
C1335 Gd1271 2.805 . S
C1335 O1311 1.263 . S
C1335 O1312 1.252 . S
C1335 C1329 1.500 . S
H1336 C1319 0.929 . S
H1337 C1320 0.930 . S
H1338 C1321 0.931 . S
H1339 C1322 0.930 . S
H1340 C1331 0.929 . S
H1341 C1332 0.930 . S
H1342 C1333 0.931 . S
H1343 C1334 0.930 . S
H1344 C1350 0.930 . S
H1345 C1354 0.930 . S
H1346 C1359 0.929 . S
H1347 C1357 0.929 . S
H1348 C1352 0.929 . S
H1349 C1358 0.929 . S
C1350 H1344 0.930 . S
C1350 C1351 1.367 . S
C1350 C1358 1.378 . S
C1351 C1350 1.367 . S
C1351 C1359 1.433 . S
C1352 H1348 0.929 . S
C1352 C1354 1.378 . S
C1352 C1356 1.350 . S
C1353 C1356 1.463 . S
C1353 C1358 1.350 . S
C1353 N1361 1.427 . S
C1354 H1345 0.930 . S
C1354 C1352 1.378 . S
C1354 C1355 1.367 . S
C1355 C1354 1.367 . S
C1355 C1357 1.433 . S
C1356 C1352 1.350 . S
C1356 C1353 1.463 . S
C1356 N1360 1.427 . S
C1357 H1347 0.929 . S
C1357 C1355 1.433 . S
C1357 N1360 1.384 . S
C1358 H1349 0.929 . S
C1358 C1350 1.378 . S
C1358 C1353 1.350 . S
C1359 H1346 0.929 . S
C1359 C1351 1.433 . S
C1359 N1361 1.384 . S
N1360 C1356 1.427 . S
N1360 C1357 1.384 . S
N1361 C1353 1.427 . S
N1361 C1359 1.384 . S
H1362 C1368 0.930 . S
H1363 C1372 0.930 . S
H1364 C1377 0.929 . S
H1365 C1375 0.929 . S
H1366 C1370 0.929 . S
H1367 C1376 0.929 . S
C1368 H1362 0.930 . S
C1368 C1369 1.367 . S
C1368 C1376 1.378 . S
C1369 C1368 1.367 . S
C1369 C1377 1.433 . S
C1370 H1366 0.929 . S
C1370 C1372 1.378 1_455 S
C1370 C1374 1.350 . S
C1371 C1374 1.463 . S
C1371 C1376 1.350 . S
C1371 N1379 1.427 . S
C1372 H1363 0.930 . S
C1372 C1370 1.378 1_655 S
C1372 C1373 1.367 . S
C1373 C1372 1.367 . S
C1373 C1375 1.433 . S
C1374 C1370 1.350 . S
C1374 C1371 1.463 . S
C1374 N1378 1.427 1_455 S
C1375 H1365 0.929 . S
C1375 C1373 1.433 . S
C1375 N1378 1.384 . S
C1376 H1367 0.929 . S
C1376 C1368 1.378 . S
C1376 C1371 1.350 . S
C1377 H1364 0.929 . S
C1377 C1369 1.433 . S
C1377 N1379 1.384 . S
N1378 C1374 1.427 1_655 S
N1378 C1375 1.384 . S
N1379 C1371 1.427 . S
N1379 C1377 1.384 . S
H1380 C1386 0.930 . S
H1381 C1390 0.930 . S
H1382 C1395 0.929 . S
H1383 C1393 0.929 . S
H1384 C1388 0.929 . S
H1385 C1394 0.929 . S
C1386 H1380 0.930 . S
C1386 C1387 1.367 1_545 S
C1386 C1394 1.378 . S
C1387 C1386 1.367 1_565 S
C1387 C1395 1.433 . S
C1388 H1384 0.929 . S
C1388 C1390 1.378 . S
C1388 C1392 1.350 1_565 S
C1389 C1392 1.463 . S
C1389 C1394 1.350 . S
C1389 N1397 1.427 1_545 S
C1390 H1381 0.930 . S
C1390 C1388 1.378 . S
C1390 C1391 1.367 1_565 S
C1391 C1390 1.367 1_545 S
C1391 C1393 1.433 . S
C1392 C1388 1.350 1_545 S
C1392 C1389 1.463 . S
C1392 N1396 1.427 . S
C1393 H1383 0.929 . S
C1393 C1391 1.433 . S
C1393 N1396 1.384 . S
C1394 H1385 0.929 . S
C1394 C1386 1.378 . S
C1394 C1389 1.350 . S
C1395 H1382 0.929 . S
C1395 C1387 1.433 . S
C1395 N1397 1.384 . S
N1396 C1392 1.427 . S
N1396 C1393 1.384 . S
N1397 C1389 1.427 1_565 S
N1397 C1395 1.384 . S
H1398 C1404 0.930 . S
H1399 C1408 0.930 . S
H1400 C1413 0.929 . S
H1401 C1411 0.929 . S
H1402 C1406 0.929 . S
H1403 C1412 0.929 . S
C1404 H1398 0.930 . S
C1404 C1405 1.367 . S
C1404 C1412 1.378 . S
C1405 C1404 1.367 . S
C1405 C1413 1.433 . S
C1406 H1402 0.929 . S
C1406 C1408 1.378 . S
C1406 C1410 1.350 . S
C1407 C1410 1.463 . S
C1407 C1412 1.350 . S
C1407 N1415 1.427 . S
C1408 H1399 0.930 . S
C1408 C1406 1.378 . S
C1408 C1409 1.367 . S
C1409 C1408 1.367 . S
C1409 C1411 1.433 . S
C1410 C1406 1.350 . S
C1410 C1407 1.463 . S
C1410 N1414 1.427 . S
C1411 H1401 0.929 . S
C1411 C1409 1.433 . S
C1411 N1414 1.384 . S
C1412 H1403 0.929 . S
C1412 C1404 1.378 . S
C1412 C1407 1.350 . S
C1413 H1400 0.929 . S
C1413 C1405 1.433 . S
C1413 N1415 1.384 . S
N1414 C1410 1.427 . S
N1414 C1411 1.384 . S
N1415 C1407 1.427 . S
N1415 C1413 1.384 . S
H1416 C1422 0.930 . S
H1417 C1426 0.930 1_565 S
H1418 C1431 0.929 . S
H1419 C1429 0.929 . S
H1420 C1424 0.929 . S
H1421 C1430 0.929 . S
C1422 H1416 0.930 . S
C1422 C1423 1.367 1_545 S
C1422 C1430 1.378 . S
C1423 C1422 1.367 1_565 S
C1423 C1431 1.433 . S
C1424 H1420 0.929 . S
C1424 C1426 1.378 1_565 S
C1424 C1428 1.350 1_565 S
C1425 C1428 1.463 . S
C1425 C1430 1.350 . S
C1425 N1433 1.427 1_545 S
C1426 H1417 0.930 1_545 S
C1426 C1424 1.378 1_545 S
C1426 C1427 1.367 . S
C1427 C1426 1.367 . S
C1427 C1429 1.433 . S
C1428 C1424 1.350 1_545 S
C1428 C1425 1.463 . S
C1428 N1432 1.427 . S
C1429 H1419 0.929 . S
C1429 C1427 1.433 . S
C1429 N1432 1.384 . S
C1430 H1421 0.929 . S
C1430 C1422 1.378 . S
C1430 C1425 1.350 . S
C1431 H1418 0.929 . S
C1431 C1423 1.433 . S
C1431 N1433 1.384 . S
N1432 C1428 1.427 . S
N1432 C1429 1.384 . S
N1433 C1425 1.427 1_565 S
N1433 C1431 1.384 . S
H1434 C1440 0.930 . S
H1435 C1444 0.930 . S
H1436 C1449 0.929 . S
H1437 C1447 0.929 . S
H1438 C1442 0.929 . S
H1439 C1448 0.929 . S
C1440 H1434 0.930 . S
C1440 C1441 1.367 . S
C1440 C1448 1.378 . S
C1441 C1440 1.367 . S
C1441 C1449 1.433 . S
C1442 H1438 0.929 . S
C1442 C1444 1.378 . S
C1442 C1446 1.350 . S
C1443 C1446 1.463 . S
C1443 C1448 1.350 . S
C1443 N1451 1.427 . S
C1444 H1435 0.930 . S
C1444 C1442 1.378 . S
C1444 C1445 1.367 . S
C1445 C1444 1.367 . S
C1445 C1447 1.433 . S
C1446 C1442 1.350 . S
C1446 C1443 1.463 . S
C1446 N1450 1.427 . S
C1447 H1437 0.929 . S
C1447 C1445 1.433 . S
C1447 N1450 1.384 . S
C1448 H1439 0.929 . S
C1448 C1440 1.378 . S
C1448 C1443 1.350 . S
C1449 H1436 0.929 . S
C1449 C1441 1.433 . S
C1449 N1451 1.384 . S
N1450 C1446 1.427 . S
N1450 C1447 1.384 . S
N1451 C1443 1.427 . S
N1451 C1449 1.384 . S
H1452 C1458 0.930 . S
H1453 C1462 0.930 . S
H1454 C1467 0.929 . S
H1455 C1465 0.929 . S
H1456 C1460 0.929 . S
H1457 C1466 0.929 . S
C1458 H1452 0.930 . S
C1458 C1459 1.367 . S
C1458 C1466 1.378 . S
C1459 C1458 1.367 . S
C1459 C1467 1.433 . S
C1460 H1456 0.929 . S
C1460 C1462 1.378 . S
C1460 C1464 1.350 . S
C1461 C1464 1.463 . S
C1461 C1466 1.350 . S
C1461 N1469 1.427 . S
C1462 H1453 0.930 . S
C1462 C1460 1.378 . S
C1462 C1463 1.367 . S
C1463 C1462 1.367 . S
C1463 C1465 1.433 . S
C1464 C1460 1.350 . S
C1464 C1461 1.463 . S
C1464 N1468 1.427 . S
C1465 H1455 0.929 . S
C1465 C1463 1.433 . S
C1465 N1468 1.384 . S
C1466 H1457 0.929 . S
C1466 C1458 1.378 . S
C1466 C1461 1.350 . S
C1467 H1454 0.929 . S
C1467 C1459 1.433 . S
C1467 N1469 1.384 . S
N1468 C1464 1.427 . S
N1468 C1465 1.384 . S
N1469 C1461 1.427 . S
N1469 C1467 1.384 . S
H1470 C1476 0.930 . S
H1471 C1480 0.930 . S
H1472 C1485 0.923 1_655 S
H1473 C1483 0.929 . S
H1474 C1478 0.929 . S
H1475 C1484 0.929 . S
C1476 H1470 0.930 . S
C1476 C1477 1.367 . S
C1476 C1484 1.378 . S
C1477 C1476 1.367 . S
C1477 C1485 1.433 . S
C1478 H1474 0.929 . S
C1478 C1480 1.378 . S
C1478 C1482 1.350 1_655 S
C1479 C1482 1.463 . S
C1479 C1484 1.350 . S
C1479 N1487 1.417 1_455 S
C1480 H1471 0.930 . S
C1480 C1478 1.378 . S
C1480 C1481 1.367 . S
C1481 C1480 1.367 . S
C1481 C1483 1.433 1_655 S
C1482 C1478 1.350 1_455 S
C1482 C1479 1.463 . S
C1482 N1486 1.427 . S
C1483 H1473 0.929 . S
C1483 C1481 1.433 1_455 S
C1483 N1486 1.384 . S
C1484 H1475 0.929 . S
C1484 C1476 1.378 . S
C1484 C1479 1.350 . S
C1485 H1472 0.923 1_455 S
C1485 C1477 1.433 . S
C1485 N1487 1.377 1_455 S
N1486 C1482 1.427 . S
N1486 C1483 1.384 . S
N1487 C1479 1.417 1_655 S
N1487 C1485 1.377 1_655 S
H1488 C1494 0.930 . S
H1489 C1498 0.930 . S
H1490 C1503 0.929 . S
H1491 C1501 0.929 . S
H1492 C1496 0.929 . S
H1493 C1502 0.929 . S
C1494 H1488 0.930 . S
C1494 C1495 1.367 . S
C1494 C1502 1.378 . S
C1495 C1494 1.367 . S
C1495 C1503 1.433 . S
C1496 H1492 0.929 . S
C1496 C1498 1.378 . S
C1496 C1500 1.350 . S
C1497 C1500 1.463 . S
C1497 C1502 1.350 . S
C1497 N1505 1.427 . S
C1498 H1489 0.930 . S
C1498 C1496 1.378 . S
C1498 C1499 1.367 . S
C1499 C1498 1.367 . S
C1499 C1501 1.433 . S
C1500 C1496 1.350 . S
C1500 C1497 1.463 . S
C1500 N1504 1.427 . S
C1501 H1491 0.929 . S
C1501 C1499 1.433 . S
C1501 N1504 1.384 . S
C1502 H1493 0.929 . S
C1502 C1494 1.378 . S
C1502 C1497 1.350 . S
C1503 H1490 0.929 . S
C1503 C1495 1.433 . S
C1503 N1505 1.384 . S
N1504 C1500 1.427 . S
N1504 C1501 1.384 . S
N1505 C1497 1.427 . S
N1505 C1503 1.384 . S
H1506 C1512 0.930 . S
H1507 C1516 0.930 . S
H1508 C1521 0.929 . S
H1509 C1519 0.929 . S
H1510 C1514 0.929 . S
H1511 C1520 0.929 . S
C1512 H1506 0.930 . S
C1512 C1513 1.367 . S
C1512 C1520 1.378 . S
C1513 C1512 1.367 . S
C1513 C1521 1.433 1_655 S
C1514 H1510 0.929 . S
C1514 C1516 1.378 . S
C1514 C1518 1.350 1_455 S
C1515 C1518 1.463 . S
C1515 C1520 1.350 . S
C1515 N1523 1.427 1_655 S
C1516 H1507 0.930 . S
C1516 C1514 1.378 . S
C1516 C1517 1.367 . S
C1517 C1516 1.367 . S
C1517 C1519 1.433 1_455 S
C1518 C1514 1.350 1_655 S
C1518 C1515 1.463 . S
C1518 N1522 1.427 . S
C1519 H1509 0.929 . S
C1519 C1517 1.433 1_655 S
C1519 N1522 1.384 . S
C1520 H1511 0.929 . S
C1520 C1512 1.378 . S
C1520 C1515 1.350 . S
C1521 H1508 0.929 . S
C1521 C1513 1.433 1_455 S
C1521 N1523 1.384 . S
N1522 C1518 1.427 . S
N1522 C1519 1.384 . S
N1523 C1515 1.427 1_455 S
N1523 C1521 1.384 . S
H1524 C1530 0.930 . S
H1525 C1534 0.930 . S
H1526 C1539 0.929 . S
H1527 C1537 0.929 . S
H1528 C1532 0.929 . S
H1529 C1538 0.929 . S
C1530 H1524 0.930 . S
C1530 C1531 1.367 . S
C1530 C1538 1.378 . S
C1531 C1530 1.367 . S
C1531 C1539 1.433 1_565 S
C1532 H1528 0.929 . S
C1532 C1534 1.378 . S
C1532 C1536 1.350 1_545 S
C1533 C1536 1.463 . S
C1533 C1538 1.350 . S
C1533 N1541 1.427 1_565 S
C1534 H1525 0.930 . S
C1534 C1532 1.378 . S
C1534 C1535 1.367 . S
C1535 C1534 1.367 . S
C1535 C1537 1.433 1_545 S
C1536 C1532 1.350 1_565 S
C1536 C1533 1.463 . S
C1536 N1540 1.427 . S
C1537 H1527 0.929 . S
C1537 C1535 1.433 1_565 S
C1537 N1540 1.384 . S
C1538 H1529 0.929 . S
C1538 C1530 1.378 . S
C1538 C1533 1.350 . S
C1539 H1526 0.929 . S
C1539 C1531 1.433 1_545 S
C1539 N1541 1.384 . S
N1540 C1536 1.427 . S
N1540 C1537 1.384 . S
N1541 C1533 1.427 1_545 S
N1541 C1539 1.384 . S
H1542 C1548 0.930 . S
H1543 C1552 0.930 . S
H1544 C1557 0.929 . S
H1545 C1555 0.929 . S
H1546 C1550 0.929 . S
H1547 C1556 0.929 . S
C1548 H1542 0.930 . S
C1548 C1549 1.367 . S
C1548 C1556 1.378 . S
C1549 C1548 1.367 . S
C1549 C1557 1.433 . S
C1550 H1546 0.929 . S
C1550 C1552 1.378 . S
C1550 C1554 1.350 . S
C1551 C1554 1.463 . S
C1551 C1556 1.350 . S
C1551 N1559 1.427 . S
C1552 H1543 0.930 . S
C1552 C1550 1.378 . S
C1552 C1553 1.367 . S
C1553 C1552 1.367 . S
C1553 C1555 1.433 . S
C1554 C1550 1.350 . S
C1554 C1551 1.463 . S
C1554 N1558 1.427 . S
C1555 H1545 0.929 . S
C1555 C1553 1.433 . S
C1555 N1558 1.384 . S
C1556 H1547 0.929 . S
C1556 C1548 1.378 . S
C1556 C1551 1.350 . S
C1557 H1544 0.929 . S
C1557 C1549 1.433 . S
C1557 N1559 1.384 . S
N1558 C1554 1.427 . S
N1558 C1555 1.384 . S
N1559 C1551 1.427 . S
N1559 C1557 1.384 . S
H1560 C1566 0.930 . S
H1561 C1570 0.930 . S
H1562 C1575 0.929 . S
H1563 C1573 0.929 . S
H1564 C1568 0.929 . S
H1565 C1574 0.929 . S
C1566 H1560 0.930 . S
C1566 C1567 1.367 1_565 S
C1566 C1574 1.378 . S
C1567 C1566 1.367 1_545 S
C1567 C1575 1.433 . S
C1568 H1564 0.929 . S
C1568 C1570 1.378 . S
C1568 C1572 1.350 1_545 S
C1569 C1572 1.463 . S
C1569 C1574 1.350 . S
C1569 N1577 1.427 1_565 S
C1570 H1561 0.930 . S
C1570 C1568 1.378 . S
C1570 C1571 1.367 1_545 S
C1571 C1570 1.367 1_565 S
C1571 C1573 1.433 . S
C1572 C1568 1.350 1_565 S
C1572 C1569 1.463 . S
C1572 N1576 1.427 . S
C1573 H1563 0.929 . S
C1573 C1571 1.433 . S
C1573 N1576 1.384 . S
C1574 H1565 0.929 . S
C1574 C1566 1.378 . S
C1574 C1569 1.350 . S
C1575 H1562 0.929 . S
C1575 C1567 1.433 . S
C1575 N1577 1.384 . S
N1576 C1572 1.427 . S
N1576 C1573 1.384 . S
N1577 C1569 1.427 1_545 S
N1577 C1575 1.384 . S
H1578 C1584 0.930 . S
H1579 C1588 0.930 . S
H1580 C1593 0.929 . S
H1581 C1591 0.929 . S
H1582 C1586 0.929 . S
H1583 C1592 0.929 . S
C1584 H1578 0.930 . S
C1584 C1585 1.367 . S
C1584 C1592 1.378 . S
C1585 C1584 1.367 . S
C1585 C1593 1.433 . S
C1586 H1582 0.929 . S
C1586 C1588 1.378 . S
C1586 C1590 1.350 . S
C1587 C1590 1.463 . S
C1587 C1592 1.350 . S
C1587 N1595 1.427 . S
C1588 H1579 0.930 . S
C1588 C1586 1.378 . S
C1588 C1589 1.367 . S
C1589 C1588 1.367 . S
C1589 C1591 1.433 . S
C1590 C1586 1.350 . S
C1590 C1587 1.463 . S
C1590 N1594 1.427 . S
C1591 H1581 0.929 . S
C1591 C1589 1.433 . S
C1591 N1594 1.384 . S
C1592 H1583 0.929 . S
C1592 C1584 1.378 . S
C1592 C1587 1.350 . S
C1593 H1580 0.929 . S
C1593 C1585 1.433 . S
C1593 N1595 1.384 . S
N1594 C1590 1.427 . S
N1594 C1591 1.384 . S
N1595 C1587 1.427 . S
N1595 C1593 1.384 . S
H1596 C1602 0.930 . S
H1597 C1606 0.930 . S
H1598 C1611 0.929 . S
H1599 C1609 0.929 . S
H1600 C1604 0.929 . S
H1601 C1610 0.929 . S
C1602 H1596 0.930 . S
C1602 C1603 1.367 . S
C1602 C1610 1.378 . S
C1603 C1602 1.367 . S
C1603 C1611 1.433 . S
C1604 H1600 0.929 . S
C1604 C1606 1.378 . S
C1604 C1608 1.350 . S
C1605 C1608 1.463 . S
C1605 C1610 1.350 . S
C1605 N1613 1.427 . S
C1606 H1597 0.930 . S
C1606 C1604 1.378 . S
C1606 C1607 1.367 . S
C1607 C1606 1.367 . S
C1607 C1609 1.433 . S
C1608 C1604 1.350 . S
C1608 C1605 1.463 . S
C1608 N1612 1.427 . S
C1609 H1599 0.929 . S
C1609 C1607 1.433 . S
C1609 N1612 1.384 . S
C1610 H1601 0.929 . S
C1610 C1602 1.378 . S
C1610 C1605 1.350 . S
C1611 H1598 0.929 . S
C1611 C1603 1.433 . S
C1611 N1613 1.384 . S
N1612 C1608 1.427 . S
N1612 C1609 1.384 . S
N1613 C1605 1.427 . S
N1613 C1611 1.384 . S
H1614 C1620 0.930 . S
H1615 C1624 0.942 . S
H1616 C1629 0.929 . S
H1617 C1627 0.929 . S
H1618 C1622 0.929 . S
H1619 C1628 0.929 . S
C1620 H1614 0.930 . S
C1620 C1621 1.367 1_655 S
C1620 C1628 1.378 . S
C1621 C1620 1.367 1_455 S
C1621 C1629 1.433 . S
C1622 H1618 0.929 . S
C1622 C1624 1.383 . S
C1622 C1626 1.350 1_455 S
C1623 C1626 1.463 . S
C1623 C1628 1.350 . S
C1623 N1631 1.427 1_655 S
C1624 H1615 0.942 . S
C1624 C1622 1.383 . S
C1624 C1625 1.350 1_455 S
C1625 C1624 1.350 1_655 S
C1625 C1627 1.433 . S
C1626 C1622 1.350 1_655 S
C1626 C1623 1.463 . S
C1626 N1630 1.427 . S
C1627 H1617 0.929 . S
C1627 C1625 1.433 . S
C1627 N1630 1.384 . S
C1628 H1619 0.929 . S
C1628 C1620 1.378 . S
C1628 C1623 1.350 . S
C1629 H1616 0.929 . S
C1629 C1621 1.433 . S
C1629 N1631 1.384 . S
N1630 C1626 1.427 . S
N1630 C1627 1.384 . S
N1631 C1623 1.427 1_455 S
N1631 C1629 1.384 . S
H1632 C1638 0.930 . S
H1633 C1642 0.932 . S
H1634 C1647 0.928 1_655 S
H1635 C1645 0.929 . S
H1636 C1640 0.931 . S
H1637 C1646 0.929 . S
C1638 H1632 0.930 . S
C1638 C1639 1.367 . S
C1638 C1646 1.378 . S
C1639 C1638 1.367 . S
C1639 C1647 1.433 . S
C1640 H1636 0.931 . S
C1640 C1642 1.378 . S
C1640 C1644 1.350 . S
C1641 C1644 1.463 . S
C1641 C1646 1.350 . S
C1641 N1649 1.427 . S
C1642 H1633 0.932 . S
C1642 C1640 1.378 . S
C1642 C1643 1.367 . S
C1643 C1642 1.367 . S
C1643 C1645 1.433 . S
C1644 C1640 1.350 . S
C1644 C1641 1.463 . S
C1644 N1648 1.427 . S
C1645 H1635 0.929 . S
C1645 C1643 1.433 . S
C1645 N1648 1.384 . S
C1646 H1637 0.929 . S
C1646 C1638 1.378 . S
C1646 C1641 1.350 . S
C1647 H1634 0.928 1_455 S
C1647 C1639 1.433 . S
C1647 N1649 1.384 . S
N1648 C1644 1.427 . S
N1648 C1645 1.384 . S
N1649 C1641 1.427 . S
N1649 C1647 1.384 . S
H1650 C1656 0.930 . S
H1651 C1660 0.930 1_565 S
H1652 C1665 0.929 1_565 S
H1653 C1663 0.929 . S
H1654 C1658 0.929 1_565 S
H1655 C1664 0.929 . S
C1656 H1650 0.930 . S
C1656 C1657 1.367 . S
C1656 C1664 1.378 . S
C1657 C1656 1.367 . S
C1657 C1665 1.433 . S
C1658 H1654 0.929 1_545 S
C1658 C1660 1.378 . S
C1658 C1662 1.350 . S
C1659 C1662 1.463 . S
C1659 C1664 1.350 . S
C1659 N1667 1.427 . S
C1660 H1651 0.930 1_545 S
C1660 C1658 1.378 . S
C1660 C1661 1.367 . S
C1661 C1660 1.367 . S
C1661 C1663 1.433 . S
C1662 C1658 1.350 . S
C1662 C1659 1.463 . S
C1662 N1666 1.427 . S
C1663 H1653 0.929 . S
C1663 C1661 1.433 . S
C1663 N1666 1.384 . S
C1664 H1655 0.929 . S
C1664 C1656 1.378 . S
C1664 C1659 1.350 . S
C1665 H1652 0.929 1_545 S
C1665 C1657 1.433 . S
C1665 N1667 1.384 . S
N1666 C1662 1.427 . S
N1666 C1663 1.384 . S
N1667 C1659 1.427 . S
N1667 C1665 1.384 . S
H1668 C1674 0.930 . S
H1669 C1678 0.930 . S
H1670 C1683 0.929 . S
H1671 C1681 0.929 . S
H1672 C1676 0.929 . S
H1673 C1682 0.929 . S
C1674 H1668 0.930 . S
C1674 C1675 1.367 . S
C1674 C1682 1.378 . S
C1675 C1674 1.367 . S
C1675 C1683 1.433 . S
C1676 H1672 0.929 . S
C1676 C1678 1.378 . S
C1676 C1680 1.350 . S
C1677 C1680 1.463 . S
C1677 C1682 1.350 . S
C1677 N1685 1.427 . S
C1678 H1669 0.930 . S
C1678 C1676 1.378 . S
C1678 C1679 1.367 . S
C1679 C1678 1.367 . S
C1679 C1681 1.433 . S
C1680 C1676 1.350 . S
C1680 C1677 1.463 . S
C1680 N1684 1.427 . S
C1681 H1671 0.929 . S
C1681 C1679 1.433 . S
C1681 N1684 1.384 . S
C1682 H1673 0.929 . S
C1682 C1674 1.378 . S
C1682 C1677 1.350 . S
C1683 H1670 0.929 . S
C1683 C1675 1.433 . S
C1683 N1685 1.384 . S
N1684 C1680 1.427 . S
N1684 C1681 1.384 . S
N1685 C1677 1.427 . S
N1685 C1683 1.384 . S
H1686 C1692 0.930 . S
H1687 C1696 0.930 . S
H1688 C1701 0.929 . S
H1689 C1699 0.929 . S
H1690 C1694 0.929 . S
H1691 C1700 0.929 . S
C1692 H1686 0.930 . S
C1692 C1693 1.367 . S
C1692 C1700 1.378 . S
C1693 C1692 1.367 . S
C1693 C1701 1.433 . S
C1694 H1690 0.929 . S
C1694 C1696 1.378 . S
C1694 C1698 1.350 . S
C1695 C1698 1.463 . S
C1695 C1700 1.350 . S
C1695 N1703 1.427 . S
C1696 H1687 0.930 . S
C1696 C1694 1.378 . S
C1696 C1697 1.367 . S
C1697 C1696 1.367 . S
C1697 C1699 1.433 . S
C1698 C1694 1.350 . S
C1698 C1695 1.463 . S
C1698 N1702 1.427 . S
C1699 H1689 0.929 . S
C1699 C1697 1.433 . S
C1699 N1702 1.384 . S
C1700 H1691 0.929 . S
C1700 C1692 1.378 . S
C1700 C1695 1.350 . S
C1701 H1688 0.929 . S
C1701 C1693 1.433 . S
C1701 N1703 1.384 . S
N1702 C1698 1.427 . S
N1702 C1699 1.384 . S
N1703 C1695 1.427 . S
N1703 C1701 1.384 . S
H1704 C1710 0.930 . S
H1705 C1714 0.930 . S
H1706 C1719 0.929 . S
H1707 C1717 0.929 . S
H1708 C1712 0.929 . S
H1709 C1718 0.929 . S
C1710 H1704 0.930 . S
C1710 C1711 1.367 . S
C1710 C1718 1.378 . S
C1711 C1710 1.367 . S
C1711 C1719 1.433 . S
C1712 H1708 0.929 . S
C1712 C1714 1.378 . S
C1712 C1716 1.350 . S
C1713 C1716 1.463 . S
C1713 C1718 1.350 . S
C1713 N1721 1.427 . S
C1714 H1705 0.930 . S
C1714 C1712 1.378 . S
C1714 C1715 1.367 . S
C1715 C1714 1.367 . S
C1715 C1717 1.433 . S
C1716 C1712 1.350 . S
C1716 C1713 1.463 . S
C1716 N1720 1.427 . S
C1717 H1707 0.929 . S
C1717 C1715 1.433 . S
C1717 N1720 1.384 . S
C1718 H1709 0.929 . S
C1718 C1710 1.378 . S
C1718 C1713 1.350 . S
C1719 H1706 0.929 . S
C1719 C1711 1.433 . S
C1719 N1721 1.384 . S
N1720 C1716 1.427 . S
N1720 C1717 1.384 . S
N1721 C1713 1.427 . S
N1721 C1719 1.384 . S
H1722 C1728 0.930 1_545 S
H1723 C1732 0.930 . S
H1724 C1737 0.929 . S
H1725 C1735 0.929 1_545 S
H1726 C1730 0.929 . S
H1727 C1736 0.929 1_545 S
C1728 H1722 0.930 1_565 S
C1728 C1729 1.367 . S
C1728 C1736 1.378 . S
C1729 C1728 1.367 . S
C1729 C1737 1.433 . S
C1730 H1726 0.929 . S
C1730 C1732 1.378 . S
C1730 C1734 1.350 . S
C1731 C1734 1.463 . S
C1731 C1736 1.350 . S
C1731 N1739 1.427 . S
C1732 H1723 0.930 . S
C1732 C1730 1.378 . S
C1732 C1733 1.367 . S
C1733 C1732 1.367 . S
C1733 C1735 1.433 . S
C1734 C1730 1.350 . S
C1734 C1731 1.463 . S
C1734 N1738 1.427 . S
C1735 H1725 0.929 1_565 S
C1735 C1733 1.433 . S
C1735 N1738 1.384 . S
C1736 H1727 0.929 1_565 S
C1736 C1728 1.378 . S
C1736 C1731 1.350 . S
C1737 H1724 0.929 . S
C1737 C1729 1.433 . S
C1737 N1739 1.384 . S
N1738 C1734 1.427 . S
N1738 C1735 1.384 . S
N1739 C1731 1.427 . S
N1739 C1737 1.384 . S
H1740 C1746 0.930 . S
H1741 C1750 0.930 . S
H1742 C1755 0.929 . S
H1743 C1753 0.929 . S
H1744 C1748 0.929 . S
H1745 C1754 0.929 . S
C1746 H1740 0.930 . S
C1746 C1747 1.367 . S
C1746 C1754 1.378 . S
C1747 C1746 1.367 . S
C1747 C1755 1.433 . S
C1748 H1744 0.929 . S
C1748 C1750 1.378 . S
C1748 C1752 1.350 . S
C1749 C1752 1.463 . S
C1749 C1754 1.350 . S
C1749 N1757 1.427 . S
C1750 H1741 0.930 . S
C1750 C1748 1.378 . S
C1750 C1751 1.367 . S
C1751 C1750 1.367 . S
C1751 C1753 1.433 . S
C1752 C1748 1.350 . S
C1752 C1749 1.463 . S
C1752 N1756 1.427 . S
C1753 H1743 0.929 . S
C1753 C1751 1.433 . S
C1753 N1756 1.384 . S
C1754 H1745 0.929 . S
C1754 C1746 1.378 . S
C1754 C1749 1.350 . S
C1755 H1742 0.929 . S
C1755 C1747 1.433 . S
C1755 N1757 1.384 . S
N1756 C1752 1.427 . S
N1756 C1753 1.384 . S
N1757 C1749 1.427 . S
N1757 C1755 1.384 . S
H1758 C1764 0.930 . S
H1759 C1768 0.930 . S
H1760 C1773 0.929 . S
H1761 C1771 0.929 . S
H1762 C1766 0.929 . S
H1763 C1772 0.929 . S
C1764 H1758 0.930 . S
C1764 C1765 1.367 . S
C1764 C1772 1.378 . S
C1765 C1764 1.367 . S
C1765 C1773 1.433 . S
C1766 H1762 0.929 . S
C1766 C1768 1.378 . S
C1766 C1770 1.350 . S
C1767 C1770 1.463 . S
C1767 C1772 1.350 . S
C1767 N1775 1.427 . S
C1768 H1759 0.930 . S
C1768 C1766 1.378 . S
C1768 C1769 1.367 . S
C1769 C1768 1.367 . S
C1769 C1771 1.433 . S
C1770 C1766 1.350 . S
C1770 C1767 1.463 . S
C1770 N1774 1.427 . S
C1771 H1761 0.929 . S
C1771 C1769 1.433 . S
C1771 N1774 1.384 . S
C1772 H1763 0.929 . S
C1772 C1764 1.378 . S
C1772 C1767 1.350 . S
C1773 H1760 0.929 . S
C1773 C1765 1.433 . S
C1773 N1775 1.384 . S
N1774 C1770 1.427 . S
N1774 C1771 1.384 . S
N1775 C1767 1.427 . S
N1775 C1773 1.384 . S
H1776 C1782 0.930 . S
H1777 C1786 0.930 . S
H1778 C1791 0.929 . S
H1779 C1789 0.929 . S
H1780 C1784 0.929 . S
H1781 C1790 0.929 . S
C1782 H1776 0.930 . S
C1782 C1783 1.367 . S
C1782 C1790 1.378 . S
C1783 C1782 1.367 . S
C1783 C1791 1.433 . S
C1784 H1780 0.929 . S
C1784 C1786 1.378 . S
C1784 C1788 1.350 . S
C1785 C1788 1.463 . S
C1785 C1790 1.350 . S
C1785 N1793 1.427 . S
C1786 H1777 0.930 . S
C1786 C1784 1.378 . S
C1786 C1787 1.367 . S
C1787 C1786 1.367 . S
C1787 C1789 1.433 . S
C1788 C1784 1.350 . S
C1788 C1785 1.463 . S
C1788 N1792 1.427 . S
C1789 H1779 0.929 . S
C1789 C1787 1.433 . S
C1789 N1792 1.384 . S
C1790 H1781 0.929 . S
C1790 C1782 1.378 . S
C1790 C1785 1.350 . S
C1791 H1778 0.929 . S
C1791 C1783 1.433 . S
C1791 N1793 1.384 . S
N1792 C1788 1.427 . S
N1792 C1789 1.384 . S
N1793 C1785 1.427 . S
N1793 C1791 1.384 . S
H1794 C1800 0.930 . S
H1795 C1804 0.930 . S
H1796 C1809 0.929 . S
H1797 C1807 0.929 . S
H1798 C1802 0.929 . S
H1799 C1808 0.929 . S
C1800 H1794 0.930 . S
C1800 C1801 1.367 . S
C1800 C1808 1.378 . S
C1801 C1800 1.367 . S
C1801 C1809 1.433 . S
C1802 H1798 0.929 . S
C1802 C1804 1.378 . S
C1802 C1806 1.350 . S
C1803 C1806 1.463 . S
C1803 C1808 1.350 . S
C1803 N1811 1.427 . S
C1804 H1795 0.930 . S
C1804 C1802 1.378 . S
C1804 C1805 1.367 . S
C1805 C1804 1.367 . S
C1805 C1807 1.433 . S
C1806 C1802 1.350 . S
C1806 C1803 1.463 . S
C1806 N1810 1.427 . S
C1807 H1797 0.929 . S
C1807 C1805 1.433 . S
C1807 N1810 1.384 . S
C1808 H1799 0.929 . S
C1808 C1800 1.378 . S
C1808 C1803 1.350 . S
C1809 H1796 0.929 . S
C1809 C1801 1.433 . S
C1809 N1811 1.384 . S
N1810 C1806 1.427 . S
N1810 C1807 1.384 . S
N1811 C1803 1.427 . S
N1811 C1809 1.384 . S
H1812 C1818 0.930 . S
H1813 C1822 0.930 . S
H1814 C1827 0.929 . S
H1815 C1825 0.929 . S
H1816 C1820 0.929 . S
H1817 C1826 0.929 . S
C1818 H1812 0.930 . S
C1818 C1819 1.367 . S
C1818 C1826 1.378 . S
C1819 C1818 1.367 . S
C1819 C1827 1.433 . S
C1820 H1816 0.929 . S
C1820 C1822 1.378 . S
C1820 C1824 1.350 . S
C1821 C1824 1.463 . S
C1821 C1826 1.350 . S
C1821 N1829 1.427 . S
C1822 H1813 0.930 . S
C1822 C1820 1.378 . S
C1822 C1823 1.367 . S
C1823 C1822 1.367 . S
C1823 C1825 1.433 . S
C1824 C1820 1.350 . S
C1824 C1821 1.463 . S
C1824 N1828 1.427 . S
C1825 H1815 0.929 . S
C1825 C1823 1.433 . S
C1825 N1828 1.384 . S
C1826 H1817 0.929 . S
C1826 C1818 1.378 . S
C1826 C1821 1.350 . S
C1827 H1814 0.929 . S
C1827 C1819 1.433 . S
C1827 N1829 1.384 . S
N1828 C1824 1.427 . S
N1828 C1825 1.384 . S
N1829 C1821 1.427 . S
N1829 C1827 1.384 . S
H1830 C1836 0.930 . S
H1831 C1840 0.930 . S
H1832 C1845 0.929 . S
H1833 C1843 0.929 . S
H1834 C1838 0.929 . S
H1835 C1844 0.929 . S
C1836 H1830 0.930 . S
C1836 C1837 1.367 . S
C1836 C1844 1.378 . S
C1837 C1836 1.367 . S
C1837 C1845 1.433 . S
C1838 H1834 0.929 . S
C1838 C1840 1.378 . S
C1838 C1842 1.350 . S
C1839 C1842 1.463 . S
C1839 C1844 1.350 . S
C1839 N1847 1.427 . S
C1840 H1831 0.930 . S
C1840 C1838 1.378 . S
C1840 C1841 1.367 . S
C1841 C1840 1.367 . S
C1841 C1843 1.433 . S
C1842 C1838 1.350 . S
C1842 C1839 1.463 . S
C1842 N1846 1.427 . S
C1843 H1833 0.929 . S
C1843 C1841 1.433 . S
C1843 N1846 1.384 . S
C1844 H1835 0.929 . S
C1844 C1836 1.378 . S
C1844 C1839 1.350 . S
C1845 H1832 0.929 . S
C1845 C1837 1.433 . S
C1845 N1847 1.384 . S
N1846 C1842 1.427 . S
N1846 C1843 1.384 . S
N1847 C1839 1.427 . S
N1847 C1845 1.384 . S
H1848 C1854 0.930 . S
H1849 C1858 0.930 . S
H1850 C1863 0.929 . S
H1851 C1861 0.929 . S
H1852 C1856 0.929 . S
H1853 C1862 0.929 . S
C1854 H1848 0.930 . S
C1854 C1855 1.367 . S
C1854 C1862 1.378 . S
C1855 C1854 1.367 . S
C1855 C1863 1.433 . S
C1856 H1852 0.929 . S
C1856 C1858 1.378 . S
C1856 C1860 1.350 . S
C1857 C1860 1.463 . S
C1857 C1862 1.350 . S
C1857 N1865 1.427 . S
C1858 H1849 0.930 . S
C1858 C1856 1.378 . S
C1858 C1859 1.367 . S
C1859 C1858 1.367 . S
C1859 C1861 1.433 . S
C1860 C1856 1.350 . S
C1860 C1857 1.463 . S
C1860 N1864 1.427 . S
C1861 H1851 0.929 . S
C1861 C1859 1.433 . S
C1861 N1864 1.384 . S
C1862 H1853 0.929 . S
C1862 C1854 1.378 . S
C1862 C1857 1.350 . S
C1863 H1850 0.929 . S
C1863 C1855 1.433 . S
C1863 N1865 1.384 . S
N1864 C1860 1.427 . S
N1864 C1861 1.384 . S
N1865 C1857 1.427 . S
N1865 C1863 1.384 . S
H1866 C1872 0.930 . S
H1867 C1876 0.930 . S
H1868 C1881 0.929 . S
H1869 C1879 0.929 . S
H1870 C1874 0.929 . S
H1871 C1880 0.929 . S
C1872 H1866 0.930 . S
C1872 C1873 1.367 . S
C1872 C1880 1.378 . S
C1873 C1872 1.367 . S
C1873 C1881 1.433 . S
C1874 H1870 0.929 . S
C1874 C1876 1.378 . S
C1874 C1878 1.350 . S
C1875 C1878 1.463 . S
C1875 C1880 1.350 . S
C1875 N1883 1.427 . S
C1876 H1867 0.930 . S
C1876 C1874 1.378 . S
C1876 C1877 1.367 . S
C1877 C1876 1.367 . S
C1877 C1879 1.433 . S
C1878 C1874 1.350 . S
C1878 C1875 1.463 . S
C1878 N1882 1.427 . S
C1879 H1869 0.929 . S
C1879 C1877 1.433 . S
C1879 N1882 1.384 . S
C1880 H1871 0.929 . S
C1880 C1872 1.378 . S
C1880 C1875 1.350 . S
C1881 H1868 0.929 . S
C1881 C1873 1.433 . S
C1881 N1883 1.384 . S
N1882 C1878 1.427 . S
N1882 C1879 1.384 . S
N1883 C1875 1.427 . S
N1883 C1881 1.384 . S
H1884 C1890 0.930 . S
H1885 C1894 0.930 . S
H1886 C1899 0.929 . S
H1887 C1897 0.929 . S
H1888 C1892 0.929 . S
H1889 C1898 0.929 . S
C1890 H1884 0.930 . S
C1890 C1891 1.367 . S
C1890 C1898 1.378 . S
C1891 C1890 1.367 . S
C1891 C1899 1.433 . S
C1892 H1888 0.929 . S
C1892 C1894 1.378 . S
C1892 C1896 1.350 . S
C1893 C1896 1.463 . S
C1893 C1898 1.350 . S
C1893 N1901 1.427 . S
C1894 H1885 0.930 . S
C1894 C1892 1.378 . S
C1894 C1895 1.367 . S
C1895 C1894 1.367 . S
C1895 C1897 1.433 . S
C1896 C1892 1.350 . S
C1896 C1893 1.463 . S
C1896 N1900 1.427 . S
C1897 H1887 0.929 . S
C1897 C1895 1.433 . S
C1897 N1900 1.384 . S
C1898 H1889 0.929 . S
C1898 C1890 1.378 . S
C1898 C1893 1.350 . S
C1899 H1886 0.929 . S
C1899 C1891 1.433 . S
C1899 N1901 1.384 . S
N1900 C1896 1.427 . S
N1900 C1897 1.384 . S
N1901 C1893 1.427 . S
N1901 C1899 1.384 . S
H1902 C1908 0.930 . S
H1903 C1912 0.930 . S
H1904 C1917 0.929 . S
H1905 C1915 0.929 . S
H1906 C1910 0.929 . S
H1907 C1916 0.929 . S
C1908 H1902 0.930 . S
C1908 C1909 1.367 . S
C1908 C1916 1.378 . S
C1909 C1908 1.367 . S
C1909 C1917 1.433 . S
C1910 H1906 0.929 . S
C1910 C1912 1.378 . S
C1910 C1914 1.350 . S
C1911 C1914 1.463 . S
C1911 C1916 1.350 . S
C1911 N1919 1.427 . S
C1912 H1903 0.930 . S
C1912 C1910 1.378 . S
C1912 C1913 1.367 . S
C1913 C1912 1.367 . S
C1913 C1915 1.433 . S
C1914 C1910 1.350 . S
C1914 C1911 1.463 . S
C1914 N1918 1.427 . S
C1915 H1905 0.929 . S
C1915 C1913 1.433 . S
C1915 N1918 1.384 . S
C1916 H1907 0.929 . S
C1916 C1908 1.378 . S
C1916 C1911 1.350 . S
C1917 H1904 0.929 . S
C1917 C1909 1.433 . S
C1917 N1919 1.384 . S
N1918 C1914 1.427 . S
N1918 C1915 1.384 . S
N1919 C1911 1.427 . S
N1919 C1917 1.384 . S
H1920 C1926 0.930 . S
H1921 C1930 0.930 . S
H1922 C1935 0.929 . S
H1923 C1933 0.929 . S
H1924 C1928 0.929 . S
H1925 C1934 0.929 . S
C1926 H1920 0.930 . S
C1926 C1927 1.367 1_455 S
C1926 C1934 1.378 . S
C1927 C1926 1.367 1_655 S
C1927 C1935 1.433 . S
C1928 H1924 0.929 . S
C1928 C1930 1.378 . S
C1928 C1932 1.350 1_655 S
C1929 C1932 1.463 1_656 S
C1929 C1934 1.350 1_655 S
C1929 N1937 1.427 . S
C1930 H1921 0.930 . S
C1930 C1928 1.378 . S
C1930 C1931 1.367 1_655 S
C1931 C1930 1.367 1_455 S
C1931 C1933 1.433 . S
C1932 C1928 1.350 1_455 S
C1932 C1929 1.463 1_454 S
C1932 N1936 1.427 . S
C1933 H1923 0.929 . S
C1933 C1931 1.433 . S
C1933 N1936 1.384 . S
C1934 H1925 0.929 . S
C1934 C1926 1.378 . S
C1934 C1929 1.350 1_455 S
C1935 H1922 0.929 . S
C1935 C1927 1.433 . S
C1935 N1937 1.384 . S
N1936 C1932 1.427 . S
N1936 C1933 1.384 . S
N1937 C1929 1.427 . S
N1937 C1935 1.384 . S
H1938 C1944 0.930 . S
H1939 C1948 0.930 . S
H1940 C1953 0.929 . S
H1941 C1951 0.929 . S
H1942 C1946 0.929 1_455 S
H1943 C1952 0.929 1_655 S
C1944 H1938 0.930 . S
C1944 C1945 1.367 . S
C1944 C1952 1.378 . S
C1945 C1944 1.367 . S
C1945 C1953 1.433 1_565 S
C1946 H1942 0.929 1_655 S
C1946 C1948 1.378 . S
C1946 C1950 1.350 . S
C1947 C1950 1.463 1_466 S
C1947 C1952 1.350 . S
C1947 N1955 1.427 1_565 S
C1948 H1939 0.930 . S
C1948 C1946 1.378 . S
C1948 C1949 1.367 . S
C1949 C1948 1.367 . S
C1949 C1951 1.433 1_545 S
C1950 C1946 1.350 . S
C1950 C1947 1.463 1_644 S
C1950 N1954 1.427 1_545 S
C1951 H1941 0.929 . S
C1951 C1949 1.433 1_565 S
C1951 N1954 1.384 . S
C1952 H1943 0.929 1_455 S
C1952 C1944 1.378 . S
C1952 C1947 1.350 . S
C1953 H1940 0.929 . S
C1953 C1945 1.433 1_545 S
C1953 N1955 1.384 . S
N1954 C1950 1.427 1_565 S
N1954 C1951 1.384 . S
N1955 C1947 1.427 1_545 S
N1955 C1953 1.384 . S
H1956 C1962 0.930 . S
H1957 C1966 0.930 . S
H1958 C1971 0.929 . S
H1959 C1969 0.929 . S
H1960 C1964 0.929 . S
H1961 C1970 0.929 . S
C1962 H1956 0.930 . S
C1962 C1963 1.367 . S
C1962 C1970 1.378 1_556 S
C1963 C1962 1.367 . S
C1963 C1971 1.433 . S
C1964 H1960 0.929 . S
C1964 C1966 1.378 1_556 S
C1964 C1968 1.350 1_556 S
C1965 C1968 1.463 1_546 S
C1965 C1970 1.350 1_556 S
C1965 N1973 1.427 . S
C1966 H1957 0.930 . S
C1966 C1964 1.378 1_554 S
C1966 C1967 1.367 . S
C1967 C1966 1.367 . S
C1967 C1969 1.433 . S
C1968 C1964 1.350 1_554 S
C1968 C1965 1.463 1_564 S
C1968 N1972 1.427 . S
C1969 H1959 0.929 . S
C1969 C1967 1.433 . S
C1969 N1972 1.384 . S
C1970 H1961 0.929 . S
C1970 C1962 1.378 1_554 S
C1970 C1965 1.350 1_554 S
C1971 H1958 0.929 . S
C1971 C1963 1.433 . S
C1971 N1973 1.384 . S
N1972 C1968 1.427 . S
N1972 C1969 1.384 . S
N1973 C1965 1.427 . S
N1973 C1971 1.384 . S
H1974 C1980 0.930 . S
H1975 C1984 0.930 . S
H1976 C1989 0.929 . S
H1977 C1987 0.929 . S
H1978 C1982 0.929 1_554 S
H1979 C1988 0.929 1_556 S
C1980 H1974 0.930 . S
C1980 C1981 1.367 . S
C1980 C1988 1.378 . S
C1981 C1980 1.367 . S
C1981 C1989 1.433 . S
C1982 H1978 0.929 1_556 S
C1982 C1984 1.378 . S
C1982 C1986 1.350 . S
C1983 C1986 1.463 1_554 S
C1983 C1988 1.350 . S
C1983 N1991 1.427 . S
C1984 H1975 0.930 . S
C1984 C1982 1.378 . S
C1984 C1985 1.367 . S
C1985 C1984 1.367 . S
C1985 C1987 1.433 . S
C1986 C1982 1.350 . S
C1986 C1983 1.463 1_556 S
C1986 N1990 1.427 . S
C1987 H1977 0.929 . S
C1987 C1985 1.433 . S
C1987 N1990 1.384 . S
C1988 H1979 0.929 1_554 S
C1988 C1980 1.378 . S
C1988 C1983 1.350 . S
C1989 H1976 0.929 . S
C1989 C1981 1.433 . S
C1989 N1991 1.384 . S
N1990 C1986 1.427 . S
N1990 C1987 1.384 . S
N1991 C1983 1.427 . S
N1991 C1989 1.384 . S
H1992 C1998 0.930 . S
H1993 C2002 0.930 . S
H1994 C2007 0.929 . S
H1995 C2005 0.929 . S
H1996 C2000 0.929 . S
H1997 C2006 0.929 . S
C1998 H1992 0.930 . S
C1998 C1999 1.367 . S
C1998 C2006 1.378 . S
C1999 C1998 1.367 . S
C1999 C2007 1.433 . S
C2000 H1996 0.929 . S
C2000 C2002 1.378 . S
C2000 C2004 1.350 . S
C2001 C2004 1.463 1_645 S
C2001 C2006 1.350 . S
C2001 N2009 1.427 . S
C2002 H1993 0.930 . S
C2002 C2000 1.378 . S
C2002 C2003 1.367 . S
C2003 C2002 1.367 . S
C2003 C2005 1.433 . S
C2004 C2000 1.350 . S
C2004 C2001 1.463 1_465 S
C2004 N2008 1.427 . S
C2005 H1995 0.929 . S
C2005 C2003 1.433 . S
C2005 N2008 1.384 . S
C2006 H1997 0.929 . S
C2006 C1998 1.378 . S
C2006 C2001 1.350 . S
C2007 H1994 0.929 . S
C2007 C1999 1.433 . S
C2007 N2009 1.384 . S
N2008 C2004 1.427 . S
N2008 C2005 1.384 . S
N2009 C2001 1.427 . S
N2009 C2007 1.384 . S
H2010 C2016 0.930 . S
H2011 C2020 0.930 . S
H2012 C2025 0.929 . S
H2013 C2023 0.929 . S
H2014 C2018 0.929 . S
H2015 C2024 0.929 . S
C2016 H2010 0.930 . S
C2016 C2017 1.367 1_545 S
C2016 C2024 1.378 . S
C2017 C2016 1.367 1_565 S
C2017 C2025 1.433 . S
C2018 H2014 0.929 . S
C2018 C2020 1.378 . S
C2018 C2022 1.350 1_565 S
C2019 C2022 1.463 1_565 S
C2019 C2024 1.350 1_565 S
C2019 N2027 1.427 . S
C2020 H2011 0.930 . S
C2020 C2018 1.378 . S
C2020 C2021 1.367 1_565 S
C2021 C2020 1.367 1_545 S
C2021 C2023 1.433 . S
C2022 C2018 1.350 1_545 S
C2022 C2019 1.463 1_545 S
C2022 N2026 1.427 . S
C2023 H2013 0.929 . S
C2023 C2021 1.433 . S
C2023 N2026 1.384 . S
C2024 H2015 0.929 . S
C2024 C2016 1.378 . S
C2024 C2019 1.350 1_545 S
C2025 H2012 0.929 . S
C2025 C2017 1.433 . S
C2025 N2027 1.384 . S
N2026 C2022 1.427 . S
N2026 C2023 1.384 . S
N2027 C2019 1.427 . S
N2027 C2025 1.384 . S
H2028 C2034 0.930 . S
H2029 C2038 0.930 . S
H2030 C2043 0.929 . S
H2031 C2041 0.929 . S
H2032 C2036 0.929 . S
H2033 C2042 0.929 . S
C2034 H2028 0.930 . S
C2034 C2035 1.367 . S
C2034 C2042 1.378 . S
C2035 C2034 1.367 . S
C2035 C2043 1.433 . S
C2036 H2032 0.929 . S
C2036 C2038 1.378 . S
C2036 C2040 1.350 . S
C2037 C2040 1.463 . S
C2037 C2042 1.350 . S
C2037 N2045 1.427 . S
C2038 H2029 0.930 . S
C2038 C2036 1.378 . S
C2038 C2039 1.367 . S
C2039 C2038 1.367 . S
C2039 C2041 1.433 . S
C2040 C2036 1.350 . S
C2040 C2037 1.463 . S
C2040 N2044 1.427 . S
C2041 H2031 0.929 . S
C2041 C2039 1.433 . S
C2041 N2044 1.384 . S
C2042 H2033 0.929 . S
C2042 C2034 1.378 . S
C2042 C2037 1.350 . S
C2043 H2030 0.929 . S
C2043 C2035 1.433 . S
C2043 N2045 1.384 . S
N2044 C2040 1.427 . S
N2044 C2041 1.384 . S
N2045 C2037 1.427 . S
N2045 C2043 1.384 . S
H2046 C2052 0.930 . S
H2047 C2056 0.930 . S
H2048 C2061 0.929 . S
H2049 C2059 0.929 . S
H2050 C2054 0.929 . S
H2051 C2060 0.929 . S
C2052 H2046 0.930 . S
C2052 C2053 1.367 . S
C2052 C2060 1.378 . S
C2053 C2052 1.367 . S
C2053 C2061 1.433 . S
C2054 H2050 0.929 . S
C2054 C2056 1.378 . S
C2054 C2058 1.350 . S
C2055 C2058 1.463 1_455 S
C2055 C2060 1.350 . S
C2055 N2063 1.427 . S
C2056 H2047 0.930 . S
C2056 C2054 1.378 . S
C2056 C2057 1.367 . S
C2057 C2056 1.367 . S
C2057 C2059 1.433 . S
C2058 C2054 1.350 . S
C2058 C2055 1.463 1_655 S
C2058 N2062 1.427 . S
C2059 H2049 0.929 . S
C2059 C2057 1.433 . S
C2059 N2062 1.384 . S
C2060 H2051 0.929 . S
C2060 C2052 1.378 . S
C2060 C2055 1.350 . S
C2061 H2048 0.929 . S
C2061 C2053 1.433 . S
C2061 N2063 1.384 . S
N2062 C2058 1.427 . S
N2062 C2059 1.384 . S
N2063 C2055 1.427 . S
N2063 C2061 1.384 . S
H2064 C2070 0.930 . S
H2065 C2074 0.930 . S
H2066 C2079 0.929 . S
H2067 C2077 0.929 . S
H2068 C2072 0.929 . S
H2069 C2078 0.929 . S
C2070 H2064 0.930 . S
C2070 C2071 1.367 . S
C2070 C2078 1.378 . S
C2071 C2070 1.367 . S
C2071 C2079 1.433 . S
C2072 H2068 0.929 . S
C2072 C2074 1.378 1_655 S
C2072 C2076 1.350 . S
C2073 C2076 1.463 . S
C2073 C2078 1.350 . S
C2073 N2081 1.427 . S
C2074 H2065 0.930 . S
C2074 C2072 1.378 1_455 S
C2074 C2075 1.367 . S
C2075 C2074 1.367 . S
C2075 C2077 1.433 . S
C2076 C2072 1.350 . S
C2076 C2073 1.463 . S
C2076 N2080 1.427 . S
C2077 H2067 0.929 . S
C2077 C2075 1.433 . S
C2077 N2080 1.384 1_455 S
C2078 H2069 0.929 . S
C2078 C2070 1.378 . S
C2078 C2073 1.350 . S
C2079 H2066 0.929 . S
C2079 C2071 1.433 . S
C2079 N2081 1.384 . S
N2080 C2076 1.427 . S
N2080 C2077 1.384 1_655 S
N2081 C2073 1.427 . S
N2081 C2079 1.384 . S
H2082 C2088 0.930 . S
H2083 C2092 0.930 . S
H2084 C2097 0.929 . S
H2085 C2095 0.929 . S
H2086 C2090 0.929 1_455 S
H2087 C2096 0.929 . S
C2088 H2082 0.930 . S
C2088 C2089 1.367 1_655 S
C2088 C2096 1.378 . S
C2089 C2088 1.367 1_455 S
C2089 C2097 1.433 . S
C2090 H2086 0.929 1_655 S
C2090 C2092 1.378 . S
C2090 C2094 1.350 1_545 S
C2091 C2094 1.463 . S
C2091 C2096 1.350 . S
C2091 N2099 1.427 1_655 S
C2092 H2083 0.930 . S
C2092 C2090 1.378 . S
C2092 C2093 1.367 . S
C2093 C2092 1.367 . S
C2093 C2095 1.433 1_545 S
C2094 C2090 1.350 1_565 S
C2094 C2091 1.463 . S
C2094 N2098 1.427 . S
C2095 H2085 0.929 . S
C2095 C2093 1.433 1_565 S
C2095 N2098 1.384 . S
C2096 H2087 0.929 . S
C2096 C2088 1.378 . S
C2096 C2091 1.350 . S
C2097 H2084 0.929 . S
C2097 C2089 1.433 . S
C2097 N2099 1.384 . S
N2098 C2094 1.427 . S
N2098 C2095 1.384 . S
N2099 C2091 1.427 1_455 S
N2099 C2097 1.384 . S
H2100 C2106 0.930 . S
H2101 C2110 0.930 . S
H2102 C2115 0.929 . S
H2103 C2113 0.929 . S
H2104 C2108 0.929 . S
H2105 C2114 0.929 . S
C2106 H2100 0.930 . S
C2106 C2107 1.367 . S
C2106 C2114 1.378 . S
C2107 C2106 1.367 . S
C2107 C2115 1.433 1_545 S
C2108 H2104 0.929 . S
C2108 C2110 1.378 . S
C2108 C2112 1.350 . S
C2109 C2112 1.463 . S
C2109 C2114 1.350 1_565 S
C2109 N2117 1.427 . S
C2110 H2101 0.930 . S
C2110 C2108 1.378 . S
C2110 C2111 1.367 . S
C2111 C2110 1.367 . S
C2111 C2113 1.433 . S
C2112 C2108 1.350 . S
C2112 C2109 1.463 . S
C2112 N2116 1.427 . S
C2113 H2103 0.929 . S
C2113 C2111 1.433 . S
C2113 N2116 1.384 . S
C2114 H2105 0.929 . S
C2114 C2106 1.378 . S
C2114 C2109 1.350 1_545 S
C2115 H2102 0.929 . S
C2115 C2107 1.433 1_565 S
C2115 N2117 1.384 . S
N2116 C2112 1.427 . S
N2116 C2113 1.384 . S
N2117 C2109 1.427 . S
N2117 C2115 1.384 . S
H2118 C2124 0.930 . S
H2119 C2128 0.930 . S
H2120 C2133 0.929 . S
H2121 C2131 0.929 . S
H2122 C2126 0.929 . S
H2123 C2132 0.929 . S
C2124 H2118 0.930 . S
C2124 C2125 1.367 . S
C2124 C2132 1.378 . S
C2125 C2124 1.367 . S
C2125 C2133 1.433 . S
C2126 H2122 0.929 . S
C2126 C2128 1.378 . S
C2126 C2130 1.350 . S
C2127 C2130 1.463 . S
C2127 C2132 1.350 . S
C2127 N2135 1.427 . S
C2128 H2119 0.930 . S
C2128 C2126 1.378 . S
C2128 C2129 1.367 . S
C2129 C2128 1.367 . S
C2129 C2131 1.433 . S
C2130 C2126 1.350 . S
C2130 C2127 1.463 . S
C2130 N2134 1.427 . S
C2131 H2121 0.929 . S
C2131 C2129 1.433 . S
C2131 N2134 1.384 . S
C2132 H2123 0.929 . S
C2132 C2124 1.378 . S
C2132 C2127 1.350 . S
C2133 H2120 0.929 . S
C2133 C2125 1.433 . S
C2133 N2135 1.384 . S
N2134 C2130 1.427 . S
N2134 C2131 1.384 . S
N2135 C2127 1.427 . S
N2135 C2133 1.384 . S
H2136 C2142 0.930 . S
H2137 C2146 0.930 . S
H2138 C2151 0.929 . S
H2139 C2149 0.929 . S
H2140 C2144 0.929 . S
H2141 C2150 0.929 . S
C2142 H2136 0.930 . S
C2142 C2143 1.367 . S
C2142 C2150 1.378 . S
C2143 C2142 1.367 . S
C2143 C2151 1.433 . S
C2144 H2140 0.929 . S
C2144 C2146 1.378 . S
C2144 C2148 1.350 1_655 S
C2145 C2148 1.463 . S
C2145 C2150 1.350 . S
C2145 N2153 1.427 . S
C2146 H2137 0.930 . S
C2146 C2144 1.378 . S
C2146 C2147 1.367 . S
C2147 C2146 1.367 . S
C2147 C2149 1.433 1_655 S
C2148 C2144 1.350 1_455 S
C2148 C2145 1.463 . S
C2148 N2152 1.427 . S
C2149 H2139 0.929 . S
C2149 C2147 1.433 1_455 S
C2149 N2152 1.384 . S
C2150 H2141 0.929 . S
C2150 C2142 1.378 . S
C2150 C2145 1.350 . S
C2151 H2138 0.929 . S
C2151 C2143 1.433 . S
C2151 N2153 1.384 . S
N2152 C2148 1.427 . S
N2152 C2149 1.384 . S
N2153 C2145 1.427 . S
N2153 C2151 1.384 . S
H2154 C2160 0.930 . S
H2155 C2164 0.930 . S
H2156 C2169 0.929 . S
H2157 C2167 0.929 . S
H2158 C2162 0.929 1_655 S
H2159 C2168 0.929 . S
C2160 H2154 0.930 . S
C2160 C2161 1.367 1_455 S
C2160 C2168 1.378 . S
C2161 C2160 1.367 1_655 S
C2161 C2169 1.433 . S
C2162 H2158 0.929 1_455 S
C2162 C2164 1.378 . S
C2162 C2166 1.350 1_565 S
C2163 C2166 1.463 . S
C2163 C2168 1.350 . S
C2163 N2171 1.427 1_455 S
C2164 H2155 0.930 . S
C2164 C2162 1.378 . S
C2164 C2165 1.367 . S
C2165 C2164 1.367 . S
C2165 C2167 1.433 1_565 S
C2166 C2162 1.350 1_545 S
C2166 C2163 1.463 . S
C2166 N2170 1.427 . S
C2167 H2157 0.929 . S
C2167 C2165 1.433 1_545 S
C2167 N2170 1.384 . S
C2168 H2159 0.929 . S
C2168 C2160 1.378 . S
C2168 C2163 1.350 . S
C2169 H2156 0.929 . S
C2169 C2161 1.433 . S
C2169 N2171 1.384 . S
N2170 C2166 1.427 . S
N2170 C2167 1.384 . S
N2171 C2163 1.427 1_655 S
N2171 C2169 1.384 . S
H2172 C2178 0.930 . S
H2173 C2182 0.930 . S
H2174 C2187 0.929 . S
H2175 C2185 0.929 . S
H2176 C2180 0.935 . S
H2177 C2186 0.929 . S
C2178 H2172 0.930 . S
C2178 C2179 1.367 1_545 S
C2178 C2186 1.378 . S
C2179 C2178 1.367 1_565 S
C2179 C2187 1.433 . S
C2180 H2176 0.935 . S
C2180 C2182 1.378 . S
C2180 C2184 1.350 . S
C2181 C2184 1.463 . S
C2181 C2186 1.350 . S
C2181 N2189 1.427 1_545 S
C2182 H2173 0.930 . S
C2182 C2180 1.378 . S
C2182 C2183 1.367 . S
C2183 C2182 1.367 . S
C2183 C2185 1.433 . S
C2184 C2180 1.350 . S
C2184 C2181 1.463 . S
C2184 N2188 1.427 . S
C2185 H2175 0.929 . S
C2185 C2183 1.433 . S
C2185 N2188 1.384 . S
C2186 H2177 0.929 . S
C2186 C2178 1.378 . S
C2186 C2181 1.350 . S
C2187 H2174 0.929 . S
C2187 C2179 1.433 . S
C2187 N2189 1.384 . S
N2188 C2184 1.427 . S
N2188 C2185 1.384 . S
N2189 C2181 1.427 1_565 S
N2189 C2187 1.384 . S
H2190 C2196 0.930 . S
H2191 C2200 0.930 . S
H2192 C2205 0.929 . S
H2193 C2203 0.929 . S
H2194 C2198 0.929 . S
H2195 C2204 0.929 . S
C2196 H2190 0.930 . S
C2196 C2197 1.367 . S
C2196 C2204 1.378 . S
C2197 C2196 1.367 . S
C2197 C2205 1.433 . S
C2198 H2194 0.929 . S
C2198 C2200 1.378 . S
C2198 C2202 1.350 . S
C2199 C2202 1.463 . S
C2199 C2204 1.350 . S
C2199 N2207 1.427 . S
C2200 H2191 0.930 . S
C2200 C2198 1.378 . S
C2200 C2201 1.367 . S
C2201 C2200 1.367 . S
C2201 C2203 1.433 . S
C2202 C2198 1.350 . S
C2202 C2199 1.463 . S
C2202 N2206 1.427 . S
C2203 H2193 0.929 . S
C2203 C2201 1.433 . S
C2203 N2206 1.384 . S
C2204 H2195 0.929 . S
C2204 C2196 1.378 . S
C2204 C2199 1.350 . S
C2205 H2192 0.929 . S
C2205 C2197 1.433 . S
C2205 N2207 1.384 . S
N2206 C2202 1.427 . S
N2206 C2203 1.384 . S
N2207 C2199 1.427 . S
N2207 C2205 1.384 . S
C1351 C307 1.750 . S
C1355 C70 1.769 . S
C1369 C55 1.757 . S
C1373 C154 1.745 . S
C1387 C226 1.670 . S
C1391 C139 1.764 . S
C1405 C224 1.857 . S
C1409 C322 1.790 . S
C1423 C406 1.776 . S
C1427 C475 1.749 . S
C1441 C490 1.799 . S
C1445 C560 1.850 . S
C1459 C562 1.669 . S
C1463 C643 1.780 . S
C1477 C391 1.757 . S
C1481 C658 1.741 . S
C1495 C730 1.777 . S
C1499 C991 1.751 . S
C1513 C739 1.755 . S
C1517 C814 1.741 . S
C1531 C823 1.767 . S
C1535 C910 1.651 . S
C1549 C908 1.861 . S
C1553 C982 1.789 . S
C1567 C1066 1.770 . S
C1571 C1159 1.762 . S
C1585 C1244 1.851 . S
C1589 C1150 1.799 . S
C1603 C1327 1.778 . S
C1607 C1246 1.674 . S
C1621 C1318 1.752 . S
C1625 C1075 1.753 . S
C1639 C68 2.216 . S
C1643 C404 2.211 . S
C1657 C488 2.266 . S
C1661 C152 2.258 . S
C1675 C235 2.149 . S
C1679 C571 2.151 . S
C1693 C320 2.264 . S
C1697 C656 2.258 . S
C1711 C1064 2.212 . S
C1715 C728 2.216 . S
C1729 C1148 2.261 . S
C1733 C812 2.265 . S
C1747 C895 2.156 . S
C1751 C1231 2.155 . S
C1765 C1316 2.262 . S
C1769 C980 2.266 . S
C1783 C58 0.913 . S
C1787 C238 0.925 . S
C1801 C142 0.937 . S
C1805 C310 0.911 . S
C1819 C574 0.922 . S
C1823 C394 0.909 . S
C1837 C646 0.946 . S
C1841 C478 0.928 . S
C1855 C898 0.928 . S
C1859 C742 0.924 . S
C1873 C994 0.912 . S
C1877 C826 0.940 . S
C1891 C1078 0.923 . S
C1895 C1234 0.930 . S
C1909 C1162 0.943 . S
C1913 C1330 0.918 . S
C1927 C740 1.309 . S
C1931 C56 1.309 . S
C1945 C824 1.330 . S
C1949 C140 1.330 . S
C1963 C907 1.272 . S
C1967 C223 1.272 . S
C1981 C308 1.326 . S
C1985 C992 1.326 . S
C1999 C1076 1.306 . S
C2003 C392 1.306 . S
C2017 C1160 1.327 . S
C2021 C476 1.327 . S
C2035 C1243 1.262 . S
C2039 C559 1.262 . S
C2053 C1328 1.334 . S
C2057 C644 1.334 . S
C2071 C655 0.892 . S
C2075 C67 0.877 . S
C2089 C403 0.872 . S
C2093 C151 0.895 . S
C2107 C487 0.892 . S
C2111 C236 0.864 . S
C2125 C572 0.869 . S
C2129 C319 0.890 . S
C2143 C1315 0.879 . S
C2147 C727 0.891 . S
C2161 C1063 0.872 . S
C2165 C811 0.895 . S
C2179 C1147 0.870 . S
C2183 C896 0.880 . S
C2197 C979 0.869 . S
C2201 C1232 0.882 . S
