# Generated by pormake.
# Topology unu, (4)-cn, num edge types: 1
# Building blocks:
#     Node 0, Type 0, BuildingBlock: KUFVIS_clean_sbu_0, # of connection points: 4
#     Node 1, Type 0, BuildingBlock: KUFVIS_clean_sbu_0, # of connection points: 4
#     Node 2, Type 0, BuildingBlock: KUFVIS_clean_sbu_0, # of connection points: 4
#     Node 3, Type 0, BuildingBlock: KUFVIS_clean_sbu_0, # of connection points: 4
#     Node 4, Type 0, BuildingBlock: KUFVIS_clean_sbu_0, # of connection points: 4
#     Node 5, Type 0, BuildingBlock: KUFVIS_clean_sbu_0, # of connection points: 4
#     Node 6, Type 0, BuildingBlock: KUFVIS_clean_sbu_0, # of connection points: 4
#     Node 7, Type 0, BuildingBlock: KUFVIS_clean_sbu_0, # of connection points: 4
#     Node 8, Type 0, BuildingBlock: KUFVIS_clean_sbu_0, # of connection points: 4
#     Node 9, Type 0, BuildingBlock: KUFVIS_clean_sbu_0, # of connection points: 4
#     Node 10, Type 0, BuildingBlock: KUFVIS_clean_sbu_0, # of connection points: 4
#     Node 11, Type 0, BuildingBlock: KUFVIS_clean_sbu_0, # of connection points: 4
#     Node 12, Type 0, BuildingBlock: KUFVIS_clean_sbu_0, # of connection points: 4
#     Node 13, Type 0, BuildingBlock: KUFVIS_clean_sbu_0, # of connection points: 4
#     Node 14, Type 0, BuildingBlock: KUFVIS_clean_sbu_0, # of connection points: 4
#     Node 15, Type 0, BuildingBlock: KUFVIS_clean_sbu_0, # of connection points: 4
#     Node 16, Type 0, BuildingBlock: KUFVIS_clean_sbu_0, # of connection points: 4
#     Node 17, Type 0, BuildingBlock: KUFVIS_clean_sbu_0, # of connection points: 4
#     Node 18, Type 0, BuildingBlock: KUFVIS_clean_sbu_0, # of connection points: 4
#     Node 19, Type 0, BuildingBlock: KUFVIS_clean_sbu_0, # of connection points: 4
#     Node 20, Type 0, BuildingBlock: KUFVIS_clean_sbu_0, # of connection points: 4
#     Node 21, Type 0, BuildingBlock: KUFVIS_clean_sbu_0, # of connection points: 4
#     Node 22, Type 0, BuildingBlock: KUFVIS_clean_sbu_0, # of connection points: 4
#     Node 23, Type 0, BuildingBlock: KUFVIS_clean_sbu_0, # of connection points: 4
#     Node 24, Type 0, BuildingBlock: KUFVIS_clean_sbu_0, # of connection points: 4
#     Node 25, Type 0, BuildingBlock: KUFVIS_clean_sbu_0, # of connection points: 4
#     Node 26, Type 0, BuildingBlock: KUFVIS_clean_sbu_0, # of connection points: 4
#     Node 27, Type 0, BuildingBlock: KUFVIS_clean_sbu_0, # of connection points: 4
#     Node 28, Type 0, BuildingBlock: KUFVIS_clean_sbu_0, # of connection points: 4
#     Node 29, Type 0, BuildingBlock: KUFVIS_clean_sbu_0, # of connection points: 4
#     Node 30, Type 0, BuildingBlock: KUFVIS_clean_sbu_0, # of connection points: 4
#     Node 31, Type 0, BuildingBlock: KUFVIS_clean_sbu_0, # of connection points: 4
#     Node 32, Type 0, BuildingBlock: KUFVIS_clean_sbu_0, # of connection points: 4
#     Node 33, Type 0, BuildingBlock: KUFVIS_clean_sbu_0, # of connection points: 4
#     Node 34, Type 0, BuildingBlock: KUFVIS_clean_sbu_0, # of connection points: 4
#     Node 35, Type 0, BuildingBlock: KUFVIS_clean_sbu_0, # of connection points: 4
#     Edge 36, Type (0, 0), BuildingBlock: XIVTED_clean_linker_0, # of connection points: 2
#     Edge 37, Type (0, 0), BuildingBlock: XIVTED_clean_linker_0, # of connection points: 2
#     Edge 38, Type (0, 0), BuildingBlock: XIVTED_clean_linker_0, # of connection points: 2
#     Edge 39, Type (0, 0), BuildingBlock: XIVTED_clean_linker_0, # of connection points: 2
#     Edge 40, Type (0, 0), BuildingBlock: XIVTED_clean_linker_0, # of connection points: 2
#     Edge 41, Type (0, 0), BuildingBlock: XIVTED_clean_linker_0, # of connection points: 2
#     Edge 42, Type (0, 0), BuildingBlock: XIVTED_clean_linker_0, # of connection points: 2
#     Edge 43, Type (0, 0), BuildingBlock: XIVTED_clean_linker_0, # of connection points: 2
#     Edge 44, Type (0, 0), BuildingBlock: XIVTED_clean_linker_0, # of connection points: 2
#     Edge 45, Type (0, 0), BuildingBlock: XIVTED_clean_linker_0, # of connection points: 2
#     Edge 46, Type (0, 0), BuildingBlock: XIVTED_clean_linker_0, # of connection points: 2
#     Edge 47, Type (0, 0), BuildingBlock: XIVTED_clean_linker_0, # of connection points: 2
#     Edge 48, Type (0, 0), BuildingBlock: XIVTED_clean_linker_0, # of connection points: 2
#     Edge 49, Type (0, 0), BuildingBlock: XIVTED_clean_linker_0, # of connection points: 2
#     Edge 50, Type (0, 0), BuildingBlock: XIVTED_clean_linker_0, # of connection points: 2
#     Edge 51, Type (0, 0), BuildingBlock: XIVTED_clean_linker_0, # of connection points: 2
#     Edge 52, Type (0, 0), BuildingBlock: XIVTED_clean_linker_0, # of connection points: 2
#     Edge 53, Type (0, 0), BuildingBlock: XIVTED_clean_linker_0, # of connection points: 2
#     Edge 54, Type (0, 0), BuildingBlock: XIVTED_clean_linker_0, # of connection points: 2
#     Edge 55, Type (0, 0), BuildingBlock: XIVTED_clean_linker_0, # of connection points: 2
#     Edge 56, Type (0, 0), BuildingBlock: XIVTED_clean_linker_0, # of connection points: 2
#     Edge 57, Type (0, 0), BuildingBlock: XIVTED_clean_linker_0, # of connection points: 2
#     Edge 58, Type (0, 0), BuildingBlock: XIVTED_clean_linker_0, # of connection points: 2
#     Edge 59, Type (0, 0), BuildingBlock: XIVTED_clean_linker_0, # of connection points: 2
#     Edge 60, Type (0, 0), BuildingBlock: XIVTED_clean_linker_0, # of connection points: 2
#     Edge 61, Type (0, 0), BuildingBlock: XIVTED_clean_linker_0, # of connection points: 2
#     Edge 62, Type (0, 0), BuildingBlock: XIVTED_clean_linker_0, # of connection points: 2
#     Edge 63, Type (0, 0), BuildingBlock: XIVTED_clean_linker_0, # of connection points: 2
#     Edge 64, Type (0, 0), BuildingBlock: XIVTED_clean_linker_0, # of connection points: 2
#     Edge 65, Type (0, 0), BuildingBlock: XIVTED_clean_linker_0, # of connection points: 2
#     Edge 66, Type (0, 0), BuildingBlock: XIVTED_clean_linker_0, # of connection points: 2
#     Edge 67, Type (0, 0), BuildingBlock: XIVTED_clean_linker_0, # of connection points: 2
#     Edge 68, Type (0, 0), BuildingBlock: XIVTED_clean_linker_0, # of connection points: 2
#     Edge 69, Type (0, 0), BuildingBlock: XIVTED_clean_linker_0, # of connection points: 2
#     Edge 70, Type (0, 0), BuildingBlock: XIVTED_clean_linker_0, # of connection points: 2
#     Edge 71, Type (0, 0), BuildingBlock: XIVTED_clean_linker_0, # of connection points: 2
#     Edge 72, Type (0, 0), BuildingBlock: XIVTED_clean_linker_0, # of connection points: 2
#     Edge 73, Type (0, 0), BuildingBlock: XIVTED_clean_linker_0, # of connection points: 2
#     Edge 74, Type (0, 0), BuildingBlock: XIVTED_clean_linker_0, # of connection points: 2
#     Edge 75, Type (0, 0), BuildingBlock: XIVTED_clean_linker_0, # of connection points: 2
#     Edge 76, Type (0, 0), BuildingBlock: XIVTED_clean_linker_0, # of connection points: 2
#     Edge 77, Type (0, 0), BuildingBlock: XIVTED_clean_linker_0, # of connection points: 2
#     Edge 78, Type (0, 0), BuildingBlock: XIVTED_clean_linker_0, # of connection points: 2
#     Edge 79, Type (0, 0), BuildingBlock: XIVTED_clean_linker_0, # of connection points: 2
#     Edge 80, Type (0, 0), BuildingBlock: XIVTED_clean_linker_0, # of connection points: 2
#     Edge 81, Type (0, 0), BuildingBlock: XIVTED_clean_linker_0, # of connection points: 2
#     Edge 82, Type (0, 0), BuildingBlock: XIVTED_clean_linker_0, # of connection points: 2
#     Edge 83, Type (0, 0), BuildingBlock: XIVTED_clean_linker_0, # of connection points: 2
#     Edge 84, Type (0, 0), BuildingBlock: XIVTED_clean_linker_0, # of connection points: 2
#     Edge 85, Type (0, 0), BuildingBlock: XIVTED_clean_linker_0, # of connection points: 2
#     Edge 86, Type (0, 0), BuildingBlock: XIVTED_clean_linker_0, # of connection points: 2
#     Edge 87, Type (0, 0), BuildingBlock: XIVTED_clean_linker_0, # of connection points: 2
#     Edge 88, Type (0, 0), BuildingBlock: XIVTED_clean_linker_0, # of connection points: 2
#     Edge 89, Type (0, 0), BuildingBlock: XIVTED_clean_linker_0, # of connection points: 2
#     Edge 90, Type (0, 0), BuildingBlock: XIVTED_clean_linker_0, # of connection points: 2
#     Edge 91, Type (0, 0), BuildingBlock: XIVTED_clean_linker_0, # of connection points: 2
#     Edge 92, Type (0, 0), BuildingBlock: XIVTED_clean_linker_0, # of connection points: 2
#     Edge 93, Type (0, 0), BuildingBlock: XIVTED_clean_linker_0, # of connection points: 2
#     Edge 94, Type (0, 0), BuildingBlock: XIVTED_clean_linker_0, # of connection points: 2
#     Edge 95, Type (0, 0), BuildingBlock: XIVTED_clean_linker_0, # of connection points: 2
#     Edge 96, Type (0, 0), BuildingBlock: XIVTED_clean_linker_0, # of connection points: 2
#     Edge 97, Type (0, 0), BuildingBlock: XIVTED_clean_linker_0, # of connection points: 2
#     Edge 98, Type (0, 0), BuildingBlock: XIVTED_clean_linker_0, # of connection points: 2
#     Edge 99, Type (0, 0), BuildingBlock: XIVTED_clean_linker_0, # of connection points: 2
#     Edge 100, Type (0, 0), BuildingBlock: XIVTED_clean_linker_0, # of connection points: 2
#     Edge 101, Type (0, 0), BuildingBlock: XIVTED_clean_linker_0, # of connection points: 2
#     Edge 102, Type (0, 0), BuildingBlock: XIVTED_clean_linker_0, # of connection points: 2
#     Edge 103, Type (0, 0), BuildingBlock: XIVTED_clean_linker_0, # of connection points: 2
#     Edge 104, Type (0, 0), BuildingBlock: XIVTED_clean_linker_0, # of connection points: 2
#     Edge 105, Type (0, 0), BuildingBlock: XIVTED_clean_linker_0, # of connection points: 2
#     Edge 106, Type (0, 0), BuildingBlock: XIVTED_clean_linker_0, # of connection points: 2
#     Edge 107, Type (0, 0), BuildingBlock: XIVTED_clean_linker_0, # of connection points: 2
# Relax obj value: 0.204
# Max RMSD: 0.240
# Mean RMSD: 0.240
data_MOF--net-unu--node1-KUFVIS_clean_sbu_0--edge1-XIVTED_clean_linker_0
_symmetry_space_group_name_H-M    P1
_symmetry_Int_Tables_number       1
_symmetry_cell_setting            triclinic
loop_
_symmetry_equiv_pos_as_xyz
'x, y, z'
_cell_length_a     42.659375
_cell_length_b     42.670851
_cell_length_c     111.68341
_cell_angle_alpha  90.008673
_cell_angle_beta   90.008789
_cell_angle_gamma 119.99203
loop_
_atom_site_label
_atom_site_type_symbol
_atom_site_fract_x
_atom_site_fract_y
_atom_site_fract_z
_atom_type_partial_charge
Mn0 Mn 0.19878 0.04154 0.11204 0.0
Mn1 Mn 0.2099 0.982 0.12857 0.0
C2 C 0.15664 0.98091 0.11076 0.0
C3 C 0.17835 0.08265 0.11171 0.0
C4 C 0.25365 0.01884 0.10624 0.0
O5 O 0.23692 0.07244 0.12411 0.0
O6 O 0.23615 0.03029 0.13646 0.0
C7 C 0.17031 0.97971 0.15061 0.0
N8 N 0.17482 0.96234 0.14111 0.0
C9 C 0.12517 0.90512 0.14752 0.0
C10 C 0.12015 0.92236 0.15742 0.0
C11 C 0.1428 0.95982 0.15896 0.0
C12 C 0.15333 0.92626 0.13958 0.0
H13 H 0.18752 0.00855 0.15178 0.0
C14 C 0.24654 0.06322 0.13365 0.0
O15 O 0.20291 0.08561 0.10416 0.0
O16 O 0.16552 0.05571 0.11911 0.0
N17 N 0.18526 0.93434 0.12187 0.0
C18 C 0.19175 0.92245 0.11134 0.0
C19 C 0.17029 0.88589 0.10814 0.0
C20 C 0.14244 0.86195 0.1158 0.0
C21 C 0.13631 0.8748 0.12659 0.0
C22 C 0.15879 0.91145 0.12936 0.0
H23 H 0.21297 0.94076 0.10539 0.0
O24 O 0.15867 0.00303 0.10241 0.0
O25 O 0.17887 -0.00463 0.11969 0.0
O26 O 0.23602 0.03423 0.10292 0.0
O27 O 0.2468 0.00017 0.11583 0.0
C28 C 0.10824 0.85287 0.13458 0.0
C29 C 0.1027 0.868 0.14504 0.0
H30 H 0.09871 0.90719 0.16381 0.0
H31 H 0.13895 0.97335 0.16653 0.0
H32 H 0.1751 0.87621 0.09977 0.0
H33 H 0.12571 0.83384 0.11324 0.0
H34 H 0.0904 0.82443 0.13267 0.0
H35 H 0.08067 0.85099 0.15101 0.0
Mn36 Mn 0.94786 0.15403 0.11189 0.0
Mn37 Mn 0.00765 0.22353 0.12878 0.0
C38 C 0.00815 0.17079 0.11112 0.0
C39 C 0.90556 0.09293 0.11122 0.0
C40 C 0.97304 0.23213 0.10615 0.0
O41 O 0.9169 0.16211 0.1237 0.0
O42 O 0.95894 0.20255 0.13631 0.0
C43 C 0.00731 0.18519 0.15089 0.0
N44 N 0.02569 0.20697 0.14148 0.0
C45 C 0.08173 0.21242 0.14828 0.0
C46 C 0.06345 0.19023 0.15809 0.0
C47 C 0.02606 0.17655 0.15939 0.0
C48 C 0.06171 0.2205 0.14018 0.0
H49 H 0.97852 0.17441 0.15188 0.0
C50 C 0.926 0.18074 0.13329 0.0
O51 O 0.90391 0.11518 0.10364 0.0
O52 O 0.93182 0.10612 0.1189 0.0
N53 N 0.05567 0.24542 0.1224 0.0
C54 C 0.06861 0.26389 0.11194 0.0
C55 C 0.10522 0.27796 0.10898 0.0
C56 C 0.12812 0.27293 0.1168 0.0
C57 C 0.1142 0.25388 0.12752 0.0
C58 C 0.07757 0.24077 0.13005 0.0
H59 H 0.0511 0.26765 0.10586 0.0
O60 O 0.98635 0.15135 0.10261 0.0
O61 O -0.00644 0.17899 0.1199 0.0
O62 O 0.9571 0.19917 0.10278 0.0
O63 O 0.99119 0.24342 0.11586 0.0
C64 C 0.13503 0.24665 0.13566 0.0
C65 C 0.11883 0.22597 0.14604 0.0
H66 H 0.07774 0.18317 0.16459 0.0
H67 H 0.01172 0.15923 0.16689 0.0
H68 H 0.11573 0.29251 0.10066 0.0
H69 H 0.15627 0.28352 0.11442 0.0
H70 H 0.16343 0.25641 0.13394 0.0
H71 H 0.13499 0.22012 0.15213 0.0
Mn72 Mn 0.83981 0.79232 0.11062 0.0
Mn73 Mn 0.77192 0.78684 0.12748 0.0
C74 C 0.82433 0.83664 0.10909 0.0
C75 C 0.90063 0.80967 0.11001 0.0
C76 C 0.7608 0.74034 0.10549 0.0
O77 O 0.8314 0.75467 0.12302 0.0
O78 O 0.79192 0.75877 0.13542 0.0
C79 C 0.81257 0.82696 0.14902 0.0
N80 N 0.79031 0.82304 0.1397 0.0
C81 C 0.78753 0.87573 0.14574 0.0
C82 C 0.81022 0.88018 0.15546 0.0
C83 C 0.82279 0.85569 0.1571 0.0
C84 C 0.77785 0.84629 0.13808 0.0
H85 H 0.82254 0.80837 0.15025 0.0
C86 C 0.81303 0.74658 0.13265 0.0
O87 O 0.87788 0.78512 0.10268 0.0
O88 O 0.88812 0.8243 0.11732 0.0
N89 N 0.75088 0.81337 0.12077 0.0
C90 C 0.73159 0.80694 0.11044 0.0
C91 C 0.71831 0.82993 0.10719 0.0
C92 C 0.72497 0.85926 0.11458 0.0
C93 C 0.74479 0.86527 0.12519 0.0
C94 C 0.75698 0.8412 0.12804 0.0
H95 H 0.7266 0.7846 0.10467 0.0
O96 O 0.84311 0.83272 0.10068 0.0
O97 O 0.81609 0.81497 0.11819 0.0
O98 O 0.7937 0.75578 0.10201 0.0
O99 O 0.75045 0.74918 0.11501 0.0
C100 C 0.75368 0.89472 0.13289 0.0
C101 C 0.77502 0.89994 0.14316 0.0
H102 H 0.8185 0.90255 0.16163 0.0
H103 H 0.8405 0.85909 0.16453 0.0
H104 H 0.70315 0.8252 0.09897 0.0
H105 H 0.71504 0.87719 0.11198 0.0
H106 H 0.74473 0.91385 0.13089 0.0
H107 H 0.78217 0.92301 0.1489 0.0
Mn108 Mn 0.04417 0.19905 0.3786 0.0
Mn109 Mn 0.98324 0.2085 0.36225 0.0
C110 C 0.98411 0.15494 0.37945 0.0
C111 C 0.0872 0.18108 0.37874 0.0
C112 C 0.01803 0.25082 0.38502 0.0
O113 O 0.07442 0.23889 0.36693 0.0
O114 O 0.03167 0.23711 0.35463 0.0
C115 C 0.98365 0.17179 0.33983 0.0
N116 N 0.96528 0.1745 0.34937 0.0
C117 C 0.90936 0.12397 0.34247 0.0
C118 C 0.92763 0.12078 0.33253 0.0
C119 C 0.96494 0.14478 0.33121 0.0
C120 C 0.92934 0.1517 0.3507 0.0
H121 H 0.01238 0.19003 0.33883 0.0
C122 C 0.06478 0.24864 0.35751 0.0
O123 O 0.08867 0.20442 0.38654 0.0
O124 O 0.06069 0.16807 0.37116 0.0
N125 N 0.93539 0.1816 0.36872 0.0
C126 C 0.92248 0.18646 0.3793 0.0
C127 C 0.88595 0.16356 0.38228 0.0
C128 C 0.86309 0.13596 0.37435 0.0
C129 C 0.87696 0.13155 0.3635 0.0
C130 C 0.91351 0.15541 0.36096 0.0
H131 H 0.93996 0.20749 0.38546 0.0
O132 O 0.00631 0.15711 0.38779 0.0
O133 O -0.00182 0.17815 0.37076 0.0
O134 O 0.03451 0.23407 0.38812 0.0
O135 O -0.00041 0.24414 0.37538 0.0
C136 C 0.85617 0.10387 0.35524 0.0
C137 C 0.87235 0.10011 0.34473 0.0
H138 H 0.91338 0.09974 0.32592 0.0
H139 H 0.97927 0.14234 0.3236 0.0
H140 H 0.87548 0.16706 0.39069 0.0
H141 H 0.83502 0.11812 0.37673 0.0
H142 H 0.82785 0.08498 0.35697 0.0
H143 H 0.85622 0.07837 0.33854 0.0
Mn144 Mn 0.78821 0.83661 0.37761 0.0
Mn145 Mn 0.7781 0.76621 0.36113 0.0
C146 C 0.83113 0.81908 0.37879 0.0
C147 C 0.80814 0.89805 0.378 0.0
C148 C 0.7346 0.75872 0.38359 0.0
O149 O 0.74971 0.82879 0.36559 0.0
O150 O 0.75058 0.78713 0.3534 0.0
C151 C 0.81633 0.80379 0.33896 0.0
N152 N 0.81274 0.78221 0.34845 0.0
C153 C 0.86312 0.77615 0.34181 0.0
C154 C 0.86721 0.79812 0.33192 0.0
C155 C 0.84373 0.81202 0.3305 0.0
C156 C 0.83503 0.76849 0.34987 0.0
H157 H 0.79849 0.81473 0.33788 0.0
C158 C 0.73988 0.80946 0.35616 0.0
O159 O 0.78372 0.87628 0.38556 0.0
O160 O 0.82094 0.88414 0.37051 0.0
N161 N 0.80396 0.74425 0.36768 0.0
C162 C 0.79826 0.72605 0.37822 0.0
C163 C 0.82058 0.71183 0.3813 0.0
C164 C 0.84846 0.71642 0.37353 0.0
C165 C 0.85375 0.73519 0.36273 0.0
C166 C 0.83043 0.74846 0.36008 0.0
H167 H 0.77703 0.72264 0.38425 0.0
O168 O 0.82878 0.8389 0.38716 0.0
O169 O 0.80866 0.81091 0.3699 0.0
O170 O 0.7515 0.79187 0.38678 0.0
O171 O 0.74177 0.74698 0.37405 0.0
C172 C 0.88178 0.74198 0.35463 0.0
C173 C 0.88644 0.76242 0.34418 0.0
H174 H 0.88855 0.80486 0.32545 0.0
H175 H 0.84686 0.82917 0.32293 0.0
H176 H 0.81642 0.6975 0.38967 0.0
H177 H 0.86585 0.70572 0.376 0.0
H178 H 0.90026 0.73209 0.35645 0.0
H179 H 0.90844 0.76795 0.33812 0.0
Mn180 Mn 0.14991 0.94599 0.37833 0.0
Mn181 Mn 0.2196 0.00618 0.36159 0.0
C182 C 0.1677 0.00641 0.37966 0.0
C183 C 0.08853 0.90432 0.37881 0.0
C184 C 0.22803 0.97002 0.38385 0.0
O185 O 0.15728 0.9154 0.36618 0.0
O186 O 0.1981 0.95782 0.35378 0.0
C187 C 0.1808 0.00721 0.33977 0.0
N188 N 0.20297 0.02505 0.34916 0.0
C189 C 0.20854 0.08155 0.34287 0.0
C190 C 0.18598 0.06383 0.33307 0.0
C191 C 0.17204 0.0265 0.33152 0.0
C192 C 0.21674 0.06102 0.3507 0.0
H193 H 0.16981 0.97846 0.3386 0.0
C194 C 0.17599 0.92481 0.35661 0.0
O195 O 0.11049 0.90167 0.38629 0.0
O196 O 0.10218 0.93126 0.37141 0.0
N197 N 0.24214 0.05395 0.36821 0.0
C198 C 0.26117 0.06635 0.3786 0.0
C199 C 0.27569 0.10287 0.38177 0.0
C200 C 0.27052 0.12623 0.37422 0.0
C201 C 0.25095 0.11288 0.36355 0.0
C202 C 0.23745 0.07632 0.3608 0.0
H203 H 0.26502 0.04848 0.38448 0.0
O204 O 0.148 0.98422 0.38804 0.0
O205 O 0.17543 0.99214 0.37066 0.0
O206 O 0.19505 0.95397 0.38724 0.0
O207 O 0.23935 0.9888 0.37427 0.0
C208 C 0.24355 0.13419 0.35569 0.0
C209 C 0.22239 0.11855 0.34535 0.0
H210 H 0.17883 0.07853 0.32677 0.0
H211 H 0.15443 0.01259 0.32403 0.0
H212 H 0.29066 0.11294 0.39004 0.0
H213 H 0.28142 0.15429 0.37676 0.0
H214 H 0.25356 0.16253 0.3576 0.0
H215 H 0.21644 0.1351 0.33947 0.0
Mn216 Mn 0.78669 0.9491 0.87726 0.0
Mn217 Mn 0.77839 0.00994 0.86047 0.0
C218 C 0.8313 0.00898 0.87791 0.0
C219 C 0.80432 0.90586 0.87783 0.0
C220 C 0.73587 0.97689 0.88333 0.0
O221 O 0.74701 0.91863 0.86559 0.0
O222 O 0.74874 0.96109 0.85317 0.0
C223 C 0.81417 0.00699 0.83814 0.0
N224 N 0.81217 0.02632 0.84752 0.0
C225 C 0.86359 0.08104 0.84033 0.0
C226 C 0.86605 0.06177 0.83054 0.0
C227 C 0.84124 0.02458 0.82946 0.0
C228 C 0.83577 0.06216 0.84862 0.0
H229 H 0.79531 0.97833 0.83732 0.0
C230 C 0.73713 0.92804 0.85615 0.0
O231 O 0.78089 0.90482 0.8855 0.0
O232 O 0.81754 0.932 0.87012 0.0
N233 N 0.80632 0.05813 0.86658 0.0
C234 C 0.80202 0.07207 0.87703 0.0
C235 C 0.82572 0.10862 0.87976 0.0
C236 C 0.85352 0.13044 0.87174 0.0
C237 C 0.85735 0.11552 0.86103 0.0
C238 C 0.8327 0.079 0.85873 0.0
H239 H 0.78086 0.05539 0.88326 0.0
O240 O 0.82859 0.98707 0.88643 0.0
O241 O 0.80819 0.99475 0.86919 0.0
O242 O 0.75169 0.95953 0.88649 0.0
O243 O 0.74314 -0.00473 0.87366 0.0
C244 C 0.88517 0.13521 0.8527 0.0
C245 C 0.88827 0.118 0.84234 0.0
H246 H 0.88713 0.07515 0.82389 0.0
H247 H 0.84311 0.00948 0.82198 0.0
H248 H 0.82268 0.11991 0.88807 0.0
H249 H 0.87198 0.15854 0.87394 0.0
H250 H 0.90466 0.16348 0.85425 0.0
H251 H 0.91011 0.13328 0.8361 0.0
Mn252 Mn 0.04008 0.84149 0.87803 0.0
Mn253 Mn 0.97815 0.77415 0.8609 0.0
C254 C 0.98035 0.82629 0.87939 0.0
C255 C 0.08399 0.90208 0.87881 0.0
C256 C 0.01284 0.76246 0.88296 0.0
O257 O 0.06957 0.83294 0.86574 0.0
O258 O 0.02637 0.79435 0.85307 0.0
C259 C 0.97903 0.81531 0.83946 0.0
N260 N 0.96053 0.79279 0.84871 0.0
C261 C 0.9051 0.78999 0.84258 0.0
C262 C 0.9235 0.81294 0.83294 0.0
C263 C 0.96063 0.82567 0.83138 0.0
C264 C 0.92475 0.78019 0.85025 0.0
H265 H 0.00764 0.82538 0.8383 0.0
C266 C 0.0596 0.81503 0.85602 0.0
O267 O 0.08524 0.87906 0.88614 0.0
O268 O 0.05709 0.88999 0.8714 0.0
N269 N 0.93044 0.75287 0.86751 0.0
C270 C 0.9174 0.7333 0.87777 0.0
C271 C 0.88102 0.71984 0.88094 0.0
C272 C 0.85846 0.72661 0.87353 0.0
C273 C 0.87245 0.7467 0.86299 0.0
C274 C 0.90881 0.75907 0.86022 0.0
H275 H 0.93466 0.72821 0.88355 0.0
O276 O 0.00289 0.84498 0.88785 0.0
O277 O -0.00607 0.81811 0.8703 0.0
O278 O 0.02983 0.79518 0.88661 0.0
O279 O -0.00581 0.75236 0.87332 0.0
C280 C 0.852 0.7557 0.85528 0.0
C281 C 0.8683 0.77731 0.84508 0.0
H282 H 0.9095 0.82133 0.82677 0.0
H283 H 0.97507 0.84358 0.82401 0.0
H284 H 0.87046 0.70447 0.88911 0.0
H285 H 0.83053 0.71654 0.87607 0.0
H286 H 0.82385 0.74662 0.85721 0.0
H287 H 0.85244 0.78454 0.83933 0.0
Mn288 Mn 0.15254 0.19957 0.87705 0.0
Mn289 Mn 0.22441 0.2121 0.86091 0.0
C290 C 0.17189 0.15812 0.87846 0.0
C291 C 0.09078 0.17815 0.87714 0.0
C292 C 0.22954 0.25522 0.88323 0.0
O293 O 0.15963 0.23761 0.86497 0.0
O294 O 0.20217 0.23799 0.85291 0.0
C295 C 0.18862 0.1728 0.83867 0.0
N296 N 0.21008 0.17736 0.8483 0.0
C297 C 0.21879 0.12835 0.84196 0.0
C298 C 0.19697 0.12327 0.83193 0.0
C299 C 0.18181 0.14559 0.83028 0.0
C300 C 0.22502 0.15622 0.84993 0.0
H301 H 0.17672 0.18975 0.83742 0.0
C302 C 0.17906 0.24777 0.85556 0.0
O303 O 0.11189 0.20286 0.88473 0.0
O304 O 0.10552 0.1658 0.8698 0.0
N305 N 0.24765 0.18785 0.86776 0.0
C306 C 0.26549 0.19431 0.8784 0.0
C307 C 0.28084 0.17314 0.8817 0.0
C308 C 0.27771 0.14561 0.87404 0.0
C309 C 0.25927 0.13951 0.86313 0.0
C310 C 0.24482 0.16169 0.86026 0.0
H311 H 0.26779 0.21527 0.88436 0.0
O312 O 0.1513 0.15971 0.88671 0.0
O313 O 0.17972 0.18043 0.86954 0.0
O314 O 0.19639 0.23717 0.88636 0.0
O315 O 0.24208 0.24873 0.87375 0.0
C316 C 0.25392 0.11174 0.85512 0.0
C317 C 0.23373 0.10619 0.84454 0.0
H318 H 0.19131 0.10206 0.82551 0.0
H319 H 0.16476 0.14169 0.8226 0.0
H320 H 0.2949 0.17792 0.89016 0.0
H321 H 0.28928 0.12911 0.87667 0.0
H322 H 0.26475 0.09414 0.8571 0.0
H323 H 0.22932 0.08439 0.83855 0.0
Mn324 Mn 0.94612 0.7888 0.61105 0.0
Mn325 Mn 0.00629 0.77764 0.6272 0.0
C326 C 0.00675 0.83055 0.60941 0.0
C327 C 0.9054 0.80972 0.61103 0.0
C328 C 0.9679 0.73336 0.6051 0.0
O329 O 0.91576 0.75109 0.62331 0.0
O330 O 0.95846 0.75192 0.63541 0.0
C331 C 0.0102 0.81815 0.64918 0.0
N332 N 0.02689 0.81322 0.63957 0.0
C333 C 0.08448 0.86341 0.64543 0.0
C334 C 0.06796 0.86887 0.65544 0.0
C335 C 0.03065 0.84615 0.65732 0.0
C336 C 0.06282 0.83475 0.63772 0.0
H337 H 0.98147 0.80093 0.6506 0.0
C338 C 0.92542 0.74166 0.6328 0.0
O339 O 0.90175 0.78489 0.60347 0.0
O340 O 0.93276 0.8225 0.61825 0.0
N341 N 0.05353 0.80182 0.62016 0.0
C342 C 0.06469 0.79473 0.60959 0.0
C343 C 0.10101 0.81607 0.6061 0.0
C344 C 0.12543 0.84445 0.61349 0.0
C345 C 0.11334 0.85119 0.62434 0.0
C346 C 0.07692 0.82876 0.62743 0.0
H347 H 0.046 0.77313 0.60383 0.0
O348 O 0.98426 0.82854 0.6012 0.0
O349 O 0.99264 0.80854 0.61841 0.0
O350 O 0.95257 0.75113 0.60188 0.0
O351 O 0.98709 0.7403 0.61457 0.0
C352 C 0.13577 0.87981 0.63208 0.0
C353 C 0.12137 0.8859 0.64262 0.0
H354 H 0.08355 0.89069 0.66167 0.0
H355 H 0.01767 0.85034 0.66499 0.0
H356 H 0.1101 0.8108 0.59768 0.0
H357 H 0.15334 0.86111 0.6107 0.0
H358 H 0.16403 0.89765 0.62992 0.0
H359 H 0.13876 0.90833 0.6484 0.0
Mn360 Mn 0.19657 0.14645 0.61082 0.0
Mn361 Mn 0.20329 0.21487 0.62767 0.0
C362 C 0.15249 0.16229 0.60943 0.0
C363 C 0.17915 0.08564 0.61025 0.0
C364 C 0.24878 0.22512 0.60548 0.0
O365 O 0.23482 0.15506 0.62304 0.0
O366 O 0.23099 0.19441 0.63556 0.0
C367 C 0.16334 0.17496 0.64932 0.0
N368 N 0.16738 0.19717 0.63997 0.0
C369 C 0.11548 0.20119 0.64617 0.0
C370 C 0.11091 0.17857 0.65591 0.0
C371 C 0.13494 0.16539 0.65749 0.0
C372 C 0.14457 0.2102 0.63841 0.0
H373 H 0.18159 0.16455 0.65051 0.0
C374 C 0.24309 0.17329 0.63271 0.0
O375 O 0.20337 0.10827 0.60282 0.0
O376 O 0.16486 0.09825 0.61767 0.0
N377 N 0.17718 0.23643 0.621 0.0
C378 C 0.18366 0.25562 0.61065 0.0
C379 C 0.16108 0.26946 0.60746 0.0
C380 C 0.13214 0.26347 0.61495 0.0
C381 C 0.1261 0.24377 0.62557 0.0
C382 C 0.14974 0.23098 0.62835 0.0
H383 H 0.20572 0.26013 0.60482 0.0
O384 O 0.15583 0.14306 0.60106 0.0
O385 O 0.17443 0.17058 0.61848 0.0
O386 O 0.23269 0.19224 0.60199 0.0
O387 O 0.24076 0.23574 0.61512 0.0
C388 C 0.09701 0.23556 0.63337 0.0
C389 C 0.09172 0.2143 0.64366 0.0
H390 H 0.08881 0.1708 0.66216 0.0
H391 H 0.13145 0.14773 0.66494 0.0
H392 H 0.16585 0.28454 0.59923 0.0
H393 H 0.11454 0.27384 0.61239 0.0
H394 H 0.07822 0.24498 0.63143 0.0
H395 H 0.06893 0.2077 0.64948 0.0
Mn396 Mn 0.83706 0.04319 0.61202 0.0
Mn397 Mn 0.76878 0.98316 0.62926 0.0
C398 C 0.82107 0.98313 0.6113 0.0
C399 C 0.898 0.08606 0.61116 0.0
C400 C 0.75837 0.01657 0.60664 0.0
O401 O 0.82885 0.07406 0.62383 0.0
O402 O 0.7893 0.03203 0.63662 0.0
C403 C 0.80877 0.98516 0.65116 0.0
N404 N 0.78655 0.96614 0.64191 0.0
C405 C 0.78245 0.91082 0.64884 0.0
C406 C 0.80509 0.92977 0.65849 0.0
C407 C 0.81833 0.96711 0.65964 0.0
C408 C 0.77347 0.93016 0.64075 0.0
H409 H 0.8192 0.01392 0.65202 0.0
C410 C 0.81051 0.06497 0.63347 0.0
O411 O 0.87536 0.08725 0.60362 0.0
O412 O 0.88529 0.05995 0.61887 0.0
N413 N 0.74724 0.93493 0.62308 0.0
C414 C 0.72819 0.92132 0.61275 0.0
C415 C 0.71443 0.88466 0.60994 0.0
C416 C 0.72035 0.8624 0.61778 0.0
C417 C 0.73995 0.877 0.62838 0.0
C418 C 0.75271 0.91365 0.63076 0.0
H419 H 0.72374 0.93834 0.60665 0.0
O420 O 0.84006 0.00489 0.60272 0.0
O421 O 0.81296 -0.00236 0.62014 0.0
O422 O 0.79121 0.03299 0.6031 0.0
O423 O 0.7478 -0.0014 0.6164 0.0
C424 C 0.74807 0.85684 0.63652 0.0
C425 C 0.76927 0.87373 0.64675 0.0
H426 H 0.81285 0.91603 0.66498 0.0
H427 H 0.836 0.98196 0.66702 0.0
H428 H 0.69944 0.87362 0.60173 0.0
H429 H 0.71001 0.83422 0.61553 0.0
H430 H 0.73862 0.82846 0.63491 0.0
H431 H 0.77582 0.85808 0.65285 0.0
Mn432 Mn 0.86359 0.37571 0.44455 0.0
Mn433 Mn 0.8715 0.31569 0.46189 0.0
C434 C 0.82016 0.31551 0.44347 0.0
C435 C 0.84502 0.41823 0.44374 0.0
C436 C 0.91706 0.35063 0.4397 0.0
O437 O 0.90174 0.40638 0.45667 0.0
O438 O 0.8984 0.36422 0.46957 0.0
C439 C 0.83085 0.31562 0.48335 0.0
N440 N 0.83539 0.29741 0.47413 0.0
C441 C 0.78381 0.24132 0.48036 0.0
C442 C 0.77873 0.25943 0.48998 0.0
C443 C 0.80235 0.29675 0.49148 0.0
C444 C 0.81299 0.26145 0.47265 0.0
H445 H 0.84879 0.34437 0.48447 0.0
C446 C 0.91022 0.39718 0.46645 0.0
O447 O 0.8694 0.42007 0.43632 0.0
O448 O 0.83125 0.39157 0.45124 0.0
N449 N 0.84618 0.26779 0.45538 0.0
C450 C 0.85309 0.25502 0.44512 0.0
C451 C 0.83092 0.21848 0.44201 0.0
C452 C 0.80193 0.19548 0.44946 0.0
C453 C 0.79542 0.20922 0.45999 0.0
C454 C 0.81867 0.24578 0.4627 0.0
H455 H 0.87516 0.27261 0.43931 0.0
O456 O 0.82311 0.33748 0.43493 0.0
O457 O 0.84216 0.32993 0.45245 0.0
O458 O 0.90023 0.36636 0.43589 0.0
O459 O 0.90929 0.33254 0.44945 0.0
C460 C 0.76625 0.1883 0.46774 0.0
C461 C 0.76046 0.20433 0.47793 0.0
H462 H 0.75653 0.24506 0.49619 0.0
H463 H 0.79846 0.31096 0.49884 0.0
H464 H 0.83604 0.20811 0.43384 0.0
H465 H 0.78465 0.16741 0.44696 0.0
H466 H 0.74776 0.15998 0.46586 0.0
H467 H 0.73761 0.1881 0.48371 0.0
Mn468 Mn 0.61191 0.48451 0.44544 0.0
Mn469 Mn 0.67198 0.55414 0.46225 0.0
C470 C 0.67237 0.50215 0.44423 0.0
C471 C 0.57026 0.42315 0.44486 0.0
C472 C 0.63624 0.56267 0.43989 0.0
O473 O 0.58114 0.49181 0.45755 0.0
O474 O 0.62345 0.53279 0.46995 0.0
C475 C 0.67245 0.51544 0.48417 0.0
N476 N 0.69053 0.53756 0.47479 0.0
C477 C 0.74695 0.54348 0.48138 0.0
C478 C 0.72898 0.52096 0.49115 0.0
C479 C 0.69156 0.50686 0.49254 0.0
C480 C 0.72657 0.55147 0.47341 0.0
H481 H 0.64363 0.50434 0.48522 0.0
C482 C 0.59046 0.51059 0.4671 0.0
O483 O 0.56772 0.44518 0.43739 0.0
O484 O 0.59704 0.43673 0.45233 0.0
N485 N 0.71988 0.57652 0.45575 0.0
C486 C 0.73249 0.59526 0.44532 0.0
C487 C 0.76909 0.60975 0.44227 0.0
C488 C 0.79233 0.60487 0.44998 0.0
C489 C 0.77875 0.58556 0.46068 0.0
C490 C 0.74211 0.57204 0.4633 0.0
H491 H 0.71471 0.5989 0.43933 0.0
O492 O 0.65024 0.48262 0.4358 0.0
O493 O 0.65802 0.5099 0.4532 0.0
O494 O 0.62004 0.52967 0.43653 0.0
O495 O 0.65498 0.57397 0.44948 0.0
C496 C 0.79994 0.57845 0.4687 0.0
C497 C 0.78406 0.55746 0.47905 0.0
H498 H 0.74355 0.51395 0.49756 0.0
H499 H 0.67746 0.48927 0.50002 0.0
H500 H 0.77934 0.6245 0.43397 0.0
H501 H 0.82047 0.61578 0.44753 0.0
H502 H 0.82835 0.58852 0.4669 0.0
H503 H 0.8005 0.55168 0.48504 0.0
Mn504 Mn 0.50331 0.12227 0.4455 0.0
Mn505 Mn 0.43355 0.11341 0.46206 0.0
C506 C 0.48677 0.16593 0.44436 0.0
C507 C 0.56442 0.14083 0.44513 0.0
C508 C 0.4252 0.06941 0.43964 0.0
O509 O 0.49477 0.08351 0.45749 0.0
O510 O 0.45417 0.08573 0.46985 0.0
C511 C 0.47159 0.15195 0.48415 0.0
N512 N 0.44997 0.14835 0.47466 0.0
C513 C 0.44441 0.19909 0.48119 0.0
C514 C 0.46643 0.20321 0.49108 0.0
C515 C 0.48009 0.17955 0.49255 0.0
C516 C 0.43648 0.17081 0.47319 0.0
H517 H 0.48234 0.13397 0.48526 0.0
C518 C 0.47587 0.07431 0.46702 0.0
O519 O 0.54235 0.11679 0.43753 0.0
O520 O 0.55106 0.15421 0.45262 0.0
N521 N 0.41191 0.13948 0.45543 0.0
C522 C 0.39363 0.13372 0.44491 0.0
C523 C 0.37961 0.15618 0.44179 0.0
C524 C 0.38449 0.18428 0.4495 0.0
C525 C 0.40333 0.18964 0.46029 0.0
C526 C 0.4164 0.16618 0.46299 0.0
H527 H 0.38998 0.11231 0.43892 0.0
O528 O 0.5064 0.16327 0.43598 0.0
O529 O 0.47828 0.14338 0.45323 0.0
O530 O 0.45825 0.08615 0.43634 0.0
O531 O 0.41383 0.07676 0.44924 0.0
C532 C 0.4104 0.21786 0.46834 0.0
C533 C 0.43089 0.22256 0.47879 0.0
H534 H 0.47337 0.2247 0.49751 0.0
H535 H 0.49728 0.1827 0.50012 0.0
H536 H 0.36522 0.15196 0.43342 0.0
H537 H 0.37395 0.20177 0.447 0.0
H538 H 0.40068 0.23645 0.46648 0.0
H539 H 0.43663 0.24471 0.4848 0.0
Mn540 Mn 0.70641 0.53383 0.71065 0.0
Mn541 Mn 0.64549 0.54292 0.69418 0.0
C542 C 0.64623 0.49018 0.7118 0.0
C543 C 0.74906 0.51542 0.71096 0.0
C544 C 0.68132 0.58673 0.71662 0.0
O545 O 0.73655 0.57266 0.69867 0.0
O546 O 0.69374 0.57059 0.68634 0.0
C547 C 0.6447 0.50446 0.67204 0.0
N548 N 0.62681 0.50804 0.68156 0.0
C549 C 0.57043 0.4573 0.67508 0.0
C550 C 0.5882 0.45322 0.66515 0.0
C551 C 0.6255 0.47689 0.66363 0.0
C552 C 0.59087 0.48557 0.68307 0.0
H553 H 0.67342 0.52246 0.67089 0.0
C554 C 0.72687 0.58192 0.68915 0.0
O555 O 0.75099 0.53938 0.71858 0.0
O556 O 0.72228 0.50198 0.70348 0.0
N557 N 0.59784 0.51686 0.70085 0.0
C558 C 0.58546 0.5226 0.7114 0.0
C559 C 0.54902 0.50012 0.71457 0.0
C560 C 0.52571 0.47203 0.70687 0.0
C561 C 0.53906 0.4667 0.69605 0.0
C562 C 0.57555 0.49017 0.69331 0.0
H563 H 0.60328 0.54399 0.71739 0.0
O564 O 0.66857 0.49279 0.72015 0.0
O565 O 0.66023 0.51278 0.70294 0.0
O566 O 0.69755 0.56987 0.71986 0.0
O567 O 0.66259 0.57954 0.70703 0.0
C568 C 0.51781 0.43849 0.68801 0.0
C569 C 0.53347 0.43381 0.67753 0.0
H570 H 0.57357 0.43174 0.65872 0.0
H571 H 0.63945 0.47377 0.65603 0.0
H572 H 0.53895 0.50432 0.72296 0.0
H573 H 0.4977 0.45453 0.7094 0.0
H574 H 0.48952 0.41988 0.6899 0.0
H575 H 0.51698 0.41168 0.67151 0.0
Mn576 Mn 0.45468 0.17125 0.71163 0.0
Mn577 Mn 0.44534 0.10113 0.69516 0.0
C578 C 0.49807 0.15435 0.71281 0.0
C579 C 0.47389 0.23257 0.7119 0.0
C580 C 0.40164 0.09325 0.71761 0.0
O581 O 0.41596 0.16287 0.69962 0.0
O582 O 0.41762 0.12172 0.68738 0.0
C583 C 0.48361 0.13884 0.673 0.0
N584 N 0.48009 0.11732 0.68251 0.0
C585 C 0.53067 0.11154 0.67591 0.0
C586 C 0.53469 0.13345 0.66601 0.0
C587 C 0.51107 0.14718 0.66456 0.0
C588 C 0.50251 0.10376 0.68395 0.0
H589 H 0.46566 0.14964 0.6719 0.0
C590 C 0.40648 0.14369 0.69015 0.0
O591 O 0.44971 0.21076 0.71951 0.0
O592 O 0.48695 0.2188 0.70446 0.0
N593 N 0.47143 0.07948 0.70176 0.0
C594 C 0.46579 0.06134 0.7123 0.0
C595 C 0.48825 0.0473 0.71541 0.0
C596 C 0.51621 0.05201 0.70766 0.0
C597 C 0.52144 0.07071 0.69685 0.0
C598 C 0.49799 0.08381 0.69417 0.0
H599 H 0.4445 0.05782 0.71833 0.0
O600 O 0.49556 0.17414 0.72117 0.0
O601 O 0.47552 0.1459 0.70394 0.0
O602 O 0.41835 0.12637 0.72084 0.0
O603 O 0.40892 0.08171 0.70804 0.0
C604 C 0.54953 0.07762 0.68877 0.0
C605 C 0.55412 0.09798 0.6783 0.0
H606 H 0.55608 0.14027 0.65955 0.0
H607 H 0.51415 0.16429 0.65698 0.0
H608 H 0.48413 0.03302 0.72379 0.0
H609 H 0.53371 0.04145 0.71015 0.0
H610 H 0.56812 0.06787 0.69061 0.0
H611 H 0.57618 0.10361 0.67226 0.0
Mn612 Mn 0.81646 0.28308 0.71124 0.0
Mn613 Mn 0.88457 0.34341 0.69402 0.0
C614 C 0.8334 0.3433 0.71246 0.0
C615 C 0.75537 0.2407 0.71213 0.0
C616 C 0.89504 0.30799 0.71611 0.0
O617 O 0.82365 0.25261 0.69899 0.0
O618 O 0.86301 0.29498 0.68625 0.0
C619 C 0.84412 0.34371 0.67254 0.0
N620 N 0.86678 0.36181 0.6818 0.0
C621 C 0.87113 0.41791 0.67567 0.0
C622 C 0.84803 0.39991 0.66601 0.0
C623 C 0.83447 0.36265 0.66445 0.0
C624 C 0.88022 0.39773 0.68334 0.0
H625 H 0.8334 0.315 0.67136 0.0
C626 C 0.84151 0.26196 0.68925 0.0
O627 O 0.77802 0.23868 0.71945 0.0
O628 O 0.76816 0.26747 0.70466 0.0
N629 N 0.90702 0.39121 0.7006 0.0
C630 C 0.9266 0.40386 0.71089 0.0
C631 C 0.94083 0.44033 0.71407 0.0
C632 C 0.93479 0.46338 0.70665 0.0
C633 C 0.91464 0.44977 0.6961 0.0
C634 C 0.90148 0.41329 0.69332 0.0
H635 H 0.93111 0.38622 0.71666 0.0
O636 O 0.81449 0.32124 0.72099 0.0
O637 O 0.84089 0.32899 0.70342 0.0
O638 O 0.86236 0.29197 0.7198 0.0
O639 O 0.90551 0.3265 0.70645 0.0
C640 C 0.90634 0.47075 0.68839 0.0
C641 C 0.88463 0.45485 0.67818 0.0
H642 H 0.84018 0.41434 0.65983 0.0
H643 H 0.81645 0.34852 0.65706 0.0
H644 H 0.95623 0.4506 0.72225 0.0
H645 H 0.94546 0.4914 0.70921 0.0
H646 H 0.91606 0.49902 0.69033 0.0
H647 H 0.87797 0.47112 0.67242 0.0
Mn648 Mn 0.45483 0.28043 0.2123 0.0
Mn649 Mn 0.44449 0.34047 0.19577 0.0
C650 C 0.49732 0.3409 0.21361 0.0
C651 C 0.47459 0.23881 0.21254 0.0
C652 C 0.40053 0.30386 0.2181 0.0
O653 O 0.41654 0.24985 0.20022 0.0
O654 O 0.41788 0.29223 0.18786 0.0
C655 C 0.48416 0.34235 0.17381 0.0
N656 N 0.47979 0.35986 0.18329 0.0
C657 C 0.53027 0.41672 0.17704 0.0
C658 C 0.53516 0.39935 0.16715 0.0
C659 C 0.512 0.362 0.16554 0.0
C660 C 0.50175 0.39584 0.18489 0.0
H661 H 0.46659 0.31359 0.17259 0.0
C662 C 0.40712 0.25923 0.19067 0.0
O663 O 0.45021 0.23609 0.22012 0.0
O664 O 0.48769 0.26584 0.20517 0.0
N665 N 0.46948 0.38811 0.2025 0.0
C666 C 0.46287 0.40017 0.21297 0.0
C667 C 0.48467 0.43666 0.2162 0.0
C668 C 0.51297 0.46035 0.20864 0.0
C669 C 0.51917 0.44735 0.19789 0.0
C670 C 0.49632 0.4108 0.19507 0.0
H671 H 0.44133 0.38205 0.21885 0.0
O672 O 0.49521 0.31867 0.22193 0.0
O673 O 0.47507 0.32662 0.20468 0.0
O674 O 0.41789 0.28818 0.22142 0.0
O675 O 0.40753 0.32255 0.20851 0.0
C676 C 0.54768 0.46901 0.19001 0.0
C677 C 0.55321 0.45372 0.17958 0.0
H678 H 0.55685 0.41432 0.16082 0.0
H679 H 0.51575 0.34835 0.15797 0.0
H680 H 0.47979 0.44646 0.22454 0.0
H681 H 0.52998 0.48839 0.21123 0.0
H682 H 0.56584 0.49735 0.19197 0.0
H683 H 0.57555 0.47053 0.17369 0.0
Mn684 Mn 0.70632 0.17114 0.21115 0.0
Mn685 Mn 0.64714 0.10057 0.19449 0.0
C686 C 0.64568 0.15279 0.21214 0.0
C687 C 0.74726 0.2327 0.21163 0.0
C688 C 0.68289 0.09345 0.21708 0.0
O689 O 0.73766 0.16399 0.19924 0.0
O690 O 0.69583 0.12221 0.1869 0.0
C691 C 0.64646 0.13809 0.1723 0.0
N692 N 0.62843 0.11629 0.18175 0.0
C693 C 0.57183 0.1095 0.17495 0.0
C694 C 0.58975 0.13169 0.16511 0.0
C695 C 0.62723 0.14606 0.16379 0.0
C696 C 0.59232 0.10212 0.18307 0.0
H697 H 0.67531 0.14941 0.1713 0.0
C698 C 0.72868 0.14487 0.18976 0.0
O699 O 0.75003 0.21106 0.21921 0.0
O700 O 0.72072 0.21859 0.20407 0.0
N701 N 0.59913 0.07794 0.2009 0.0
C702 C 0.58654 0.05955 0.2114 0.0
C703 C 0.54985 0.04483 0.21437 0.0
C704 C 0.52652 0.04914 0.20654 0.0
C705 C 0.54009 0.06811 0.19578 0.0
C706 C 0.57682 0.08188 0.19323 0.0
H707 H 0.60438 0.05635 0.21749 0.0
O708 O 0.6675 0.17272 0.22058 0.0
O709 O 0.66043 0.14502 0.20329 0.0
O710 O 0.69866 0.12655 0.2203 0.0
O711 O 0.66434 0.0816 0.20747 0.0
C712 C 0.5188 0.07463 0.18762 0.0
C713 C 0.53464 0.09528 0.17721 0.0
H714 H 0.57509 0.13823 0.15859 0.0
H715 H 0.64128 0.16339 0.15625 0.0
H716 H 0.53962 0.03035 0.22272 0.0
H717 H 0.49832 0.03806 0.20892 0.0
H718 H 0.49032 0.06435 0.18936 0.0
H719 H 0.51812 0.10059 0.1711 0.0
Mn720 Mn 0.81282 0.53434 0.21166 0.0
Mn721 Mn 0.88204 0.54217 0.19502 0.0
C722 C 0.82843 0.48999 0.21269 0.0
C723 C 0.75191 0.51668 0.21208 0.0
C724 C 0.8912 0.58618 0.2175 0.0
O725 O 0.82197 0.57345 0.19973 0.0
O726 O 0.86207 0.57051 0.18731 0.0
C727 C 0.84353 0.50413 0.17293 0.0
N728 N 0.86508 0.50732 0.18239 0.0
C729 C 0.86973 0.45613 0.17576 0.0
C730 C 0.84777 0.45244 0.1659 0.0
C731 C 0.83459 0.47652 0.16449 0.0
C732 C 0.8781 0.48444 0.1838 0.0
H733 H 0.83316 0.52245 0.17186 0.0
C734 C 0.84081 0.58243 0.19018 0.0
O735 O 0.77424 0.54045 0.21969 0.0
O736 O 0.7649 0.50308 0.20454 0.0
N737 N 0.90308 0.51544 0.20157 0.0
C738 C 0.9214 0.52088 0.21207 0.0
C739 C 0.93497 0.49799 0.21513 0.0
C740 C 0.92961 0.46981 0.20737 0.0
C741 C 0.91076 0.46481 0.19661 0.0
C742 C 0.89815 0.48868 0.19398 0.0
H743 H 0.92542 0.54235 0.2181 0.0
O744 O 0.80902 0.49288 0.2211 0.0
O745 O 0.83722 0.51269 0.20386 0.0
O746 O 0.85817 0.56985 0.22083 0.0
O747 O 0.90227 0.57867 0.20787 0.0
C748 C 0.90325 0.43655 0.18852 0.0
C749 C 0.88278 0.43223 0.1781 0.0
H750 H 0.84049 0.43095 0.15943 0.0
H751 H 0.81745 0.4737 0.15694 0.0
H752 H 0.94937 0.50194 0.22348 0.0
H753 H 0.93981 0.45199 0.20983 0.0
H754 H 0.9126 0.41763 0.19033 0.0
H755 H 0.87668 0.41006 0.17205 0.0
Mn756 Mn 0.60826 0.12529 0.94503 0.0
Mn757 Mn 0.67075 0.1208 0.96214 0.0
C758 C 0.66781 0.17027 0.94365 0.0
C759 C 0.56401 0.14156 0.94427 0.0
C760 C 0.63635 0.07417 0.9401 0.0
O761 O 0.57912 0.08716 0.95733 0.0
O762 O 0.62264 0.09244 0.97 0.0
C763 C 0.66953 0.16094 0.98357 0.0
N764 N 0.68812 0.15712 0.97431 0.0
C765 C 0.74329 0.21009 0.98039 0.0
C766 C 0.72479 0.21445 0.99004 0.0
C767 C 0.68775 0.18977 0.99163 0.0
C768 C 0.72382 0.18057 0.97273 0.0
H769 H 0.64098 0.14218 0.98476 0.0
C770 C 0.58934 0.07949 0.96706 0.0
O771 O 0.56294 0.11737 0.93693 0.0
O772 O 0.59084 0.15643 0.9517 0.0
N773 N 0.71838 0.14758 0.95549 0.0
C774 C 0.73152 0.14115 0.94523 0.0
C775 C 0.76782 0.1643 0.94204 0.0
C776 C 0.79022 0.19377 0.94943 0.0
C777 C 0.77613 0.19975 0.95997 0.0
C778 C 0.73985 0.17553 0.96276 0.0
H779 H 0.71439 0.11869 0.93948 0.0
O780 O 0.64515 0.16615 0.9352 0.0
O781 O 0.65445 0.14851 0.95273 0.0
O782 O 0.61901 0.08954 0.93643 0.0
O783 O 0.655 0.08298 0.94974 0.0
C784 C 0.79641 0.22931 0.96766 0.0
C785 C 0.78001 0.23446 0.97786 0.0
H786 H 0.73865 0.23688 -0.00379 0.0
H787 H 0.67324 0.19308 -0.00098 0.0
H788 H 0.77846 0.15958 0.93387 0.0
H789 H 0.81809 0.21181 0.94687 0.0
H790 H 0.82449 0.24855 0.96571 0.0
H791 H 0.79573 0.25761 0.9836 0.0
Mn792 Mn 0.86244 0.48776 0.94517 0.0
Mn793 Mn 0.87249 0.5579 0.96175 0.0
C794 C 0.81897 0.50458 0.94428 0.0
C795 C 0.84348 0.42658 0.94482 0.0
C796 C 0.91541 0.56558 0.93913 0.0
O797 O 0.9017 0.49631 0.95696 0.0
O798 O 0.90016 0.53707 0.96943 0.0
C799 C 0.83461 0.52046 0.98399 0.0
N800 N 0.838 0.54192 0.97448 0.0
C801 C 0.7876 0.54784 0.98118 0.0
C802 C 0.78371 0.52599 0.99108 0.0
C803 C 0.80731 0.51222 0.99248 0.0
C804 C 0.81561 0.55552 0.97308 0.0
H805 H 0.85254 0.50961 0.98505 0.0
C806 C 0.91131 0.51522 0.9665 0.0
O807 O 0.86726 0.44844 0.93713 0.0
O808 O 0.83064 0.44021 0.95241 0.0
N809 N 0.84643 0.57969 0.95523 0.0
C810 C 0.85192 0.59776 0.94468 0.0
C811 C 0.82945 0.61183 0.94162 0.0
C812 C 0.80163 0.60721 0.94942 0.0
C813 C 0.79655 0.58856 0.96023 0.0
C814 C 0.82 0.57544 0.96286 0.0
H815 H 0.8731 0.60121 0.93861 0.0
O816 O 0.82113 0.48474 0.93587 0.0
O817 O 0.8419 0.5131 0.95304 0.0
O818 O 0.89824 0.53253 0.93585 0.0
O819 O 0.90872 0.57718 0.9488 0.0
C820 C 0.7686 0.58174 0.96836 0.0
C821 C 0.76415 0.56143 0.97883 0.0
H822 H 0.76243 0.51925 -0.00242 0.0
H823 H 0.80433 0.49516 7e-05 0.0
H824 H 0.83345 0.62606 0.93323 0.0
H825 H 0.78413 0.61779 0.94697 0.0
H826 H 0.75001 0.59152 0.96656 0.0
H827 H 0.7422 0.55588 0.98492 0.0
Mn828 Mn 0.49975 0.37479 0.94561 0.0
Mn829 Mn 0.43027 0.31391 0.96227 0.0
C830 C 0.48203 0.31445 0.94395 0.0
C831 C 0.56106 0.41662 0.9451 0.0
C832 C 0.42158 0.35104 0.94033 0.0
O833 O 0.49244 0.40482 0.95801 0.0
O834 O 0.45183 0.36193 0.97034 0.0
C835 C 0.4693 0.31191 0.98389 0.0
N836 N 0.44703 0.29448 0.97448 0.0
C837 C 0.44154 0.23772 0.98038 0.0
C838 C 0.46422 0.255 0.99019 0.0
C839 C 0.47817 0.29226 0.99195 0.0
C840 C 0.43324 0.25859 0.97275 0.0
H841 H 0.48031 0.3406 0.98521 0.0
C842 C 0.47386 0.39505 0.9676 0.0
O843 O 0.53892 0.41947 0.93777 0.0
O844 O 0.54763 0.38938 0.95238 0.0
N845 N 0.40768 0.26646 0.95541 0.0
C846 C 0.38861 0.25454 0.945 0.0
C847 C 0.37411 0.21819 0.94163 0.0
C848 C 0.37934 0.19448 0.94898 0.0
C849 C 0.39897 0.20734 0.95966 0.0
C850 C 0.41244 0.24375 0.96263 0.0
H851 H 0.38471 0.27269 0.93928 0.0
O852 O 0.50161 0.33702 0.93563 0.0
O853 O 0.47437 0.32833 0.95309 0.0
O854 O 0.4545 0.36711 0.93688 0.0
O855 O 0.41035 0.33187 0.94983 0.0
C856 C 0.40647 0.18568 0.96733 0.0
C857 C 0.42771 0.20084 0.97768 0.0
H858 H 0.47146 0.24003 -0.00365 0.0
H859 H 0.49587 0.30583 -0.00055 0.0
H860 H 0.35911 0.20851 0.93335 0.0
H861 H 0.36847 0.16656 0.94628 0.0
H862 H 0.3965 0.15745 0.96525 0.0
H863 H 0.43376 0.18405 0.98341 0.0
Mn864 Mn 0.52927 0.7073 0.77857 0.0
Mn865 Mn 0.53944 0.64714 0.79509 0.0
C866 C 0.48742 0.64674 0.77693 0.0
C867 C 0.50876 0.74829 0.77817 0.0
C868 C 0.58447 0.68477 0.77305 0.0
O869 O 0.56657 0.73772 0.79092 0.0
O870 O 0.56525 0.69516 0.80319 0.0
C871 C 0.49845 0.64416 0.81684 0.0
N872 N 0.5035 0.6271 0.80736 0.0
C873 C 0.45296 0.56983 0.81329 0.0
C874 C 0.44736 0.58675 0.82316 0.0
C875 C 0.4702 0.62408 0.82494 0.0
C876 C 0.48185 0.59114 0.80561 0.0
H877 H 0.51577 0.67291 0.81819 0.0
C878 C 0.57566 0.72817 0.8005 0.0
O879 O 0.53377 0.75159 0.77077 0.0
O880 O 0.49553 0.7211 0.78547 0.0
N881 N 0.51517 0.59971 0.7882 0.0
C882 C 0.52246 0.58813 0.77775 0.0
C883 C 0.50105 0.55173 0.77435 0.0
C884 C 0.47242 0.52764 0.78173 0.0
C885 C 0.4655 0.54016 0.79246 0.0
C886 C 0.48799 0.57664 0.79544 0.0
H887 H 0.54426 0.60655 0.772 0.0
O888 O 0.48984 0.66916 0.76864 0.0
O889 O 0.50902 0.66087 0.78603 0.0
O890 O 0.56712 0.70042 0.7697 0.0
O891 O 0.57709 0.66571 0.78257 0.0
C892 C 0.43663 0.51808 0.80016 0.0
C893 C 0.43038 0.53289 0.81057 0.0
H894 H 0.42536 0.57144 0.82935 0.0
H895 H 0.46592 0.63737 0.8325 0.0
H896 H 0.50647 0.54231 0.76604 0.0
H897 H 0.45571 0.49968 0.77902 0.0
H898 H 0.41874 0.48978 0.79808 0.0
H899 H 0.40777 0.51576 0.81633 0.0
Mn900 Mn 0.27322 0.81395 0.77773 0.0
Mn901 Mn 0.33474 0.88146 0.79491 0.0
C902 C 0.33304 0.82925 0.77659 0.0
C903 C 0.22976 0.75319 0.77688 0.0
C904 C 0.30076 0.89303 0.77263 0.0
O905 O 0.24329 0.8224 0.78987 0.0
O906 O 0.28624 0.86149 0.80252 0.0
C907 C 0.33287 0.84044 0.81651 0.0
N908 N 0.35177 0.8628 0.80728 0.0
C909 C 0.40681 0.86528 0.8137 0.0
C910 C 0.388 0.84248 0.82333 0.0
C911 C 0.35087 0.83001 0.82473 0.0
C912 C 0.38756 0.87516 0.80589 0.0
H913 H 0.30426 0.83055 0.81756 0.0
C914 C 0.25307 0.84064 0.79953 0.0
O915 O 0.22847 0.77608 0.76949 0.0
O916 O 0.2563 0.76553 0.78443 0.0
N917 N 0.38268 0.90251 0.7885 0.0
C918 C 0.39617 0.922 0.77825 0.0
C919 C 0.43262 0.93525 0.77524 0.0
C920 C 0.4548 0.92834 0.7828 0.0
C921 C 0.44034 0.90834 0.79333 0.0
C922 C 0.40393 0.89618 0.79593 0.0
H923 H 0.3792 0.92718 0.77236 0.0
O924 O 0.31076 0.81057 0.76808 0.0
O925 O 0.31917 0.83743 0.7856 0.0
O926 O 0.28356 0.86022 0.76906 0.0
O927 O 0.3193 0.90319 0.7823 0.0
C928 C 0.4604 0.89923 0.80118 0.0
C929 C 0.44366 0.87773 0.81136 0.0
H930 H 0.40168 0.83404 0.82962 0.0
H931 H 0.33611 0.81222 0.8321 0.0
H932 H 0.44354 0.95055 0.76708 0.0
H933 H 0.48279 0.93825 0.78037 0.0
H934 H 0.48858 0.90815 0.79938 0.0
H935 H 0.45922 0.87044 0.81723 0.0
Mn936 Mn 0.17154 0.45625 0.77678 0.0
Mn937 Mn 0.10248 0.44797 0.79361 0.0
C938 C 0.15476 0.49964 0.77546 0.0
C939 C 0.2325 0.47437 0.77635 0.0
C940 C 0.09329 0.403 0.77137 0.0
O941 O 0.1633 0.41791 0.78889 0.0
O942 O 0.12378 0.42105 0.80151 0.0
C943 C 0.14173 0.48826 0.81531 0.0
N944 N 0.11946 0.4838 0.80593 0.0
C945 C 0.11413 0.53496 0.81213 0.0
C946 C 0.13681 0.53995 0.8219 0.0
C947 C 0.15068 0.5165 0.82349 0.0
C948 C 0.10575 0.50605 0.80436 0.0
H949 H 0.15267 0.47046 0.81651 0.0
C950 C 0.14519 0.40936 0.79858 0.0
O951 O 0.21024 0.45023 0.76882 0.0
O952 O 0.21947 0.4883 0.78375 0.0
N953 N 0.08012 0.47328 0.78691 0.0
C954 C 0.06097 0.46649 0.77654 0.0
C955 C 0.04651 0.48852 0.77333 0.0
C956 C 0.05184 0.51722 0.78082 0.0
C957 C 0.07151 0.52359 0.79148 0.0
C958 C 0.08495 0.5005 0.79427 0.0
H959 H 0.05697 0.44462 0.77071 0.0
O960 O 0.17441 0.49689 0.76711 0.0
O961 O 0.14668 0.4776 0.78446 0.0
O962 O 0.12613 0.41989 0.76784 0.0
O963 O 0.08234 0.41047 0.78104 0.0
C964 C 0.07908 0.55248 0.79928 0.0
C965 C 0.10035 0.55815 0.8096 0.0
H966 H 0.14411 0.56194 0.82815 0.0
H967 H 0.16839 0.52032 0.83097 0.0
H968 H 0.03146 0.48351 0.76507 0.0
H969 H 0.04099 0.5344 0.77825 0.0
H970 H 0.06915 0.57085 0.79733 0.0
H971 H 0.10646 0.5808 0.81543 0.0
Mn972 Mn 0.37371 0.86538 0.04463 0.0
Mn973 Mn 0.31192 0.87247 0.02797 0.0
C974 C 0.3137 0.82164 0.04613 0.0
C975 C 0.4166 0.84726 0.04516 0.0
C976 C 0.3483 0.91841 0.04997 0.0
O977 O 0.40325 0.90329 0.03232 0.0
O978 O 0.35987 0.89975 0.01993 0.0
C979 C 0.31081 0.83205 0.0063 0.0
N980 N 0.29309 0.83635 0.01573 0.0
C981 C 0.23683 0.78443 0.0098 0.0
C982 C 0.25443 0.77958 -3e-05 0.0
C983 C 0.29158 0.80349 -0.00178 0.0
C984 C 0.25729 0.81368 0.01745 0.0
H985 H 0.33942 0.8502 0.00498 0.0
C986 C 0.39312 0.91166 0.0227 0.0
O987 O 0.41868 0.87178 0.05255 0.0
O988 O 0.38957 0.83315 0.03779 0.0
N989 N 0.26451 0.84674 0.03483 0.0
C990 C 0.2523 0.85347 0.04525 0.0
C991 C 0.21603 0.83102 0.04861 0.0
C992 C 0.1927 0.80194 0.04124 0.0
C993 C 0.20586 0.79562 0.03054 0.0
C994 C 0.24216 0.81914 0.02759 0.0
H995 H 0.27016 0.87562 0.05099 0.0
O996 O 0.33631 0.82496 0.05449 0.0
O997 O 0.32734 0.84352 0.03708 0.0
O998 O 0.36478 0.902 0.05346 0.0
O999 O 0.32924 0.91025 0.04043 0.0
C1000 C 0.1846 0.76637 0.02285 0.0
C1001 C 0.20007 0.7608 0.01248 0.0
H1002 H 0.23978 0.75734 0.99379 0.0
H1003 H 0.30539 0.79978 0.9907 0.0
H1004 H 0.20612 0.836 0.05691 0.0
H1005 H 0.16485 0.78444 0.04394 0.0
H1006 H 0.15647 0.74767 0.02493 0.0
H1007 H 0.1836 0.73788 0.00674 0.0
Mn1008 Mn 0.12189 0.50472 0.0435 0.0
Mn1009 Mn 0.1136 0.43575 0.02661 0.0
C1010 C 0.16551 0.48819 0.04467 0.0
C1011 C 0.14011 0.56568 0.04418 0.0
C1012 C 0.06907 0.42634 0.04897 0.0
O1013 O 0.08347 0.49662 0.03142 0.0
O1014 O 0.08603 0.45661 0.01888 0.0
C1015 C 0.15278 0.47492 0.00476 0.0
N1016 N 0.14891 0.45283 0.01413 0.0
C1017 C 0.19994 0.44772 0.00761 0.0
C1018 C 0.20432 0.47022 -0.00215 0.0
C1019 C 0.18065 0.4839 -0.00357 0.0
C1020 C 0.17139 0.43933 0.01554 0.0
H1021 H 0.13479 0.48569 0.00369 0.0
C1022 C 0.07454 0.47819 0.0218 0.0
O1023 O 0.1159 0.54318 0.05164 0.0
O1024 O 0.1539 0.55284 0.03665 0.0
N1025 N 0.13956 0.41387 0.03315 0.0
C1026 C 0.1335 0.39507 0.04356 0.0
C1027 C 0.15593 0.38096 0.04664 0.0
C1028 C 0.18428 0.38627 0.03897 0.0
C1029 C 0.18992 0.40562 0.02828 0.0
C1030 C 0.16648 0.41876 0.02564 0.0
H1031 H 0.11191 0.39108 0.04953 0.0
O1032 O 0.16258 0.50751 0.0531 0.0
O1033 O 0.14335 0.48011 0.03569 0.0
O1034 O 0.08566 0.45926 0.0524 0.0
O1035 O 0.07658 0.41536 0.03932 0.0
C1036 C 0.21841 0.41314 0.0203 0.0
C1037 C 0.22339 0.43414 0.00997 0.0
H1038 H 0.22602 0.47752 0.99147 0.0
H1039 H 0.18401 0.50146 0.98896 0.0
H1040 H 0.15149 0.36617 0.05492 0.0
H1041 H 0.20174 0.37565 0.04143 0.0
H1042 H 0.23699 0.40337 0.02212 0.0
H1043 H 0.24575 0.44023 0.004 0.0
Mn1044 Mn 0.48335 0.6142 0.04531 0.0
Mn1045 Mn 0.55171 0.67515 0.02833 0.0
C1046 C 0.50005 0.67436 0.04672 0.0
C1047 C 0.4222 0.57176 0.04587 0.0
C1048 C 0.56183 0.63908 0.05033 0.0
O1049 O 0.49107 0.58417 0.033 0.0
O1050 O 0.53034 0.627 0.02037 0.0
C1051 C 0.51178 0.67627 0.00683 0.0
N1052 N 0.53422 0.69402 0.01618 0.0
C1053 C 0.53875 0.75037 0.01026 0.0
C1054 C 0.51588 0.73274 0.00052 0.0
C1055 C 0.50234 0.69553 -0.00119 0.0
C1056 C 0.54763 0.72987 0.01787 0.0
H1057 H 0.50108 0.64761 0.00554 0.0
C1058 C 0.50902 0.59387 0.02328 0.0
O1059 O 0.4445 0.56943 0.05328 0.0
O1060 O 0.43535 0.59881 0.03853 0.0
N1061 N 0.57402 0.72269 0.03512 0.0
C1062 C 0.59335 0.73494 0.04546 0.0
C1063 C 0.60751 0.77129 0.0488 0.0
C1064 C 0.60167 0.79463 0.04147 0.0
C1065 C 0.58177 0.78143 0.03085 0.0
C1066 C 0.56866 0.74505 0.02792 0.0
H1067 H 0.59772 0.71708 0.05118 0.0
O1068 O 0.48092 0.65198 0.05515 0.0
O1069 O 0.50788 0.66038 0.03767 0.0
O1070 O 0.52911 0.62296 0.05401 0.0
O1071 O 0.57233 0.65776 0.04071 0.0
C1072 C 0.57367 0.80271 0.02321 0.0
C1073 C 0.55221 0.7872 0.01292 0.0
H1074 H 0.50819 0.74741 0.99439 0.0
H1075 H 0.48449 0.6817 0.99135 0.0
H1076 H 0.62272 0.78124 0.05703 0.0
H1077 H 0.61229 0.82255 0.04414 0.0
H1078 H 0.58336 0.8309 0.02526 0.0
H1079 H 0.5457 0.8037 0.00722 0.0
Mn1080 Mn 0.12303 0.61848 0.54298 0.0
Mn1081 Mn 0.11338 0.67894 0.52643 0.0
C1082 C 0.1647 0.67899 0.54485 0.0
C1083 C 0.14342 0.57737 0.54345 0.0
C1084 C 0.06748 0.64079 0.54826 0.0
O1085 O 0.0862 0.58835 0.53049 0.0
O1086 O 0.08766 0.63103 0.51825 0.0
C1087 C 0.15507 0.68216 0.50484 0.0
N1088 N 0.14971 0.69913 0.51429 0.0
C1089 C 0.20039 0.75647 0.50851 0.0
C1090 C 0.2063 0.73966 0.49867 0.0
C1091 C 0.18355 0.70234 0.49683 0.0
C1092 C 0.17127 0.73506 0.51609 0.0
H1093 H 0.13781 0.65343 0.50346 0.0
C1094 C 0.07713 0.59799 0.52092 0.0
O1095 O 0.11812 0.57397 0.55074 0.0
O1096 O 0.15705 0.60477 0.53623 0.0
N1097 N 0.13744 0.72628 0.53339 0.0
C1098 C 0.12981 0.73774 0.54381 0.0
C1099 C 0.15108 0.77411 0.54725 0.0
C1100 C 0.17992 0.79829 0.53996 0.0
C1101 C 0.18718 0.7859 0.52926 0.0
C1102 C 0.16481 0.74945 0.52622 0.0
H1103 H 0.10785 0.71922 0.54949 0.0
O1104 O 0.16199 0.65634 0.5531 0.0
O1105 O 0.14354 0.6651 0.53562 0.0
O1106 O 0.08475 0.62512 0.55168 0.0
O1107 O 0.0753 0.66018 0.53881 0.0
C1108 C 0.21626 0.80809 0.52164 0.0
C1109 C 0.22284 0.79339 0.51127 0.0
H1110 H 0.22848 0.75505 0.49254 0.0
H1111 H 0.18808 0.68914 0.4893 0.0
H1112 H 0.14539 0.78343 0.55554 0.0
H1113 H 0.19651 0.82623 0.54271 0.0
H1114 H 0.23406 0.83637 0.52378 0.0
H1115 H 0.24561 0.8106 0.50558 0.0
Mn1116 Mn 0.37324 0.50457 0.54523 0.0
Mn1117 Mn 0.31261 0.43644 0.52808 0.0
C1118 C 0.31324 0.48886 0.54608 0.0
C1119 C 0.41623 0.56546 0.54607 0.0
C1120 C 0.34646 0.42584 0.55058 0.0
O1121 O 0.40374 0.49626 0.53329 0.0
O1122 O 0.36131 0.45675 0.52058 0.0
C1123 C 0.31426 0.47649 0.50625 0.0
N1124 N 0.29542 0.45443 0.51555 0.0
C1125 C 0.24023 0.45134 0.50897 0.0
C1126 C 0.25898 0.47382 0.49927 0.0
C1127 C 0.29616 0.48646 0.49791 0.0
C1128 C 0.25959 0.4419 0.5169 0.0
H1129 H 0.3429 0.4865 0.50524 0.0
C1130 C 0.39436 0.47794 0.52364 0.0
O1131 O 0.41755 0.5428 0.55356 0.0
O1132 O 0.38995 0.5528 0.53841 0.0
N1133 N 0.26458 0.41521 0.53442 0.0
C1134 C 0.25115 0.39609 0.54475 0.0
C1135 C 0.21467 0.38278 0.54772 0.0
C1136 C 0.1924 0.38926 0.54006 0.0
C1137 C 0.2068 0.40893 0.52947 0.0
C1138 C 0.24326 0.42117 0.52691 0.0
H1139 H 0.26818 0.39125 0.55071 0.0
O1140 O 0.33516 0.50771 0.55465 0.0
O1141 O 0.32756 0.48065 0.53722 0.0
O1142 O 0.36313 0.4587 0.55409 0.0
O1143 O 0.32822 0.41531 0.54086 0.0
C1144 C 0.18665 0.4176 0.52151 0.0
C1145 C 0.20334 0.43876 0.51126 0.0
H1146 H 0.24522 0.48191 0.4929 0.0
H1147 H 0.31086 0.504 0.4905 0.0
H1148 H 0.20379 0.36775 0.55594 0.0
H1149 H 0.16438 0.3793 0.54246 0.0
H1150 H 0.15843 0.40858 0.52328 0.0
H1151 H 0.1877 0.4457 0.5053 0.0
Mn1152 Mn 0.47907 0.86538 0.54641 0.0
Mn1153 Mn 0.54632 0.87027 0.52937 0.0
C1154 C 0.49369 0.82044 0.5478 0.0
C1155 C 0.41868 0.84947 0.54695 0.0
C1156 C 0.55806 0.91665 0.55145 0.0
O1157 O 0.48836 0.90374 0.53418 0.0
O1158 O 0.52624 0.89825 0.52143 0.0
C1159 C 0.5053 0.82982 0.50794 0.0
N1160 N 0.52772 0.83389 0.51722 0.0
C1161 C 0.53055 0.78121 0.5112 0.0
C1162 C 0.50769 0.77661 0.50151 0.0
C1163 C 0.495 0.80101 0.49989 0.0
C1164 C 0.54029 0.81071 0.51883 0.0
H1165 H 0.49525 0.84836 0.50671 0.0
C1166 C 0.50595 0.91122 0.5244 0.0
O1167 O 0.4416 0.87337 0.55441 0.0
O1168 O 0.43068 0.83447 0.53959 0.0
N1169 N 0.56745 0.84383 0.53609 0.0
C1170 C 0.58693 0.85042 0.54639 0.0
C1171 C 0.60033 0.82752 0.54962 0.0
C1172 C 0.59362 0.79814 0.54225 0.0
C1173 C 0.57364 0.79198 0.53167 0.0
C1174 C 0.56131 0.81596 0.52884 0.0
H1175 H 0.59199 0.87282 0.55213 0.0
O1176 O 0.47483 0.82432 0.55619 0.0
O1177 O 0.50224 0.84232 0.53874 0.0
O1178 O 0.52536 0.9009 0.55513 0.0
O1179 O 0.56806 0.90822 0.54176 0.0
C1180 C 0.5647 0.76247 0.524 0.0
C1181 C 0.54319 0.7571 0.51376 0.0
H1182 H 0.49936 0.75419 0.49536 0.0
H1183 H 0.47716 0.79749 0.49248 0.0
H1184 H 0.61563 0.83237 0.55782 0.0
H1185 H 0.60365 0.78028 0.54485 0.0
H1186 H 0.57374 0.74341 0.52599 0.0
H1187 H 0.53601 0.73398 0.50804 0.0
Mn1188 Mn 0.27755 0.45796 0.2782 0.0
Mn1189 Mn 0.33932 0.45162 0.29512 0.0
C1190 C 0.33753 0.50171 0.27663 0.0
C1191 C 0.23444 0.47569 0.2775 0.0
C1192 C 0.30324 0.40494 0.27322 0.0
O1193 O 0.24803 0.4205 0.29062 0.0
O1194 O 0.29131 0.42459 0.30316 0.0
C1195 C 0.34015 0.49281 0.31655 0.0
N1196 N 0.35799 0.48818 0.30722 0.0
C1197 C 0.41416 0.54035 0.31307 0.0
C1198 C 0.39644 0.54554 0.3228 0.0
C1199 C 0.35928 0.52167 0.32453 0.0
C1200 C 0.3938 0.51082 0.30551 0.0
H1201 H 0.31153 0.4747 0.31785 0.0
C1202 C 0.25808 0.41261 0.30034 0.0
O1203 O 0.23251 0.45103 0.2702 0.0
O1204 O 0.26154 0.49028 0.28483 0.0
N1205 N 0.3868 0.47716 0.2883 0.0
C1206 C 0.39913 0.47009 0.27797 0.0
C1207 C 0.43544 0.49245 0.27462 0.0
C1208 C 0.45867 0.52179 0.28192 0.0
C1209 C 0.44539 0.52847 0.29253 0.0
C1210 C 0.40906 0.50502 0.29547 0.0
H1211 H 0.38136 0.44773 0.27228 0.0
O1212 O 0.3149 0.49805 0.26823 0.0
O1213 O 0.32392 0.4802 0.28577 0.0
O1214 O 0.28664 0.42112 0.26962 0.0
O1215 O 0.32219 0.41343 0.2828 0.0
C1216 C 0.46654 0.558 0.30013 0.0
C1217 C 0.45094 0.56392 0.3104 0.0
H1218 H 0.411 0.568 0.3289 0.0
H1219 H 0.34537 0.52563 0.33197 0.0
H1220 H 0.44545 0.4872 0.2664 0.0
H1221 H 0.48655 0.53922 0.27924 0.0
H1222 H 0.49469 0.57665 0.29806 0.0
H1223 H 0.46733 0.58704 0.31607 0.0
Mn1224 Mn 0.53039 0.81804 0.2783 0.0
Mn1225 Mn 0.53718 0.8865 0.29512 0.0
C1226 C 0.48659 0.83423 0.2768 0.0
C1227 C 0.51244 0.75714 0.27765 0.0
C1228 C 0.58314 0.89668 0.27307 0.0
O1229 O 0.56818 0.82618 0.29063 0.0
O1230 O 0.56471 0.8659 0.30307 0.0
C1231 C 0.49692 0.84658 0.31673 0.0
N1232 N 0.50108 0.86877 0.30736 0.0
C1233 C 0.44891 0.87254 0.31339 0.0
C1234 C 0.44422 0.84993 0.32315 0.0
C1235 C 0.46832 0.83689 0.32482 0.0
C1236 C 0.4782 0.88169 0.30572 0.0
H1237 H 0.51522 0.83625 0.31798 0.0
C1238 C 0.57655 0.84452 0.30027 0.0
O1239 O 0.537 0.77974 0.27029 0.0
O1240 O 0.49818 0.76985 0.28504 0.0
N1241 N 0.51121 0.9081 0.28838 0.0
C1242 C 0.51783 0.92727 0.27802 0.0
C1243 C 0.49519 0.94096 0.27474 0.0
C1244 C 0.46603 0.93482 0.28214 0.0
C1245 C 0.45983 0.91512 0.29277 0.0
C1246 C 0.48354 0.90249 0.29565 0.0
H1247 H 0.54003 0.93186 0.27225 0.0
O1248 O 0.49009 0.81514 0.26841 0.0
O1249 O 0.50831 0.8423 0.2859 0.0
O1250 O 0.56702 0.86379 0.26958 0.0
O1251 O 0.57487 0.90738 0.28263 0.0
C1252 C 0.43053 0.90676 0.30048 0.0
C1253 C 0.42509 0.88551 0.31079 0.0
H1254 H 0.42195 0.84206 0.32934 0.0
H1255 H 0.46473 0.81924 0.33229 0.0
H1256 H 0.50008 0.95602 0.26649 0.0
H1257 H 0.44839 0.94507 0.2795 0.0
H1258 H 0.41169 0.91607 0.29847 0.0
H1259 H 0.40214 0.8788 0.31654 0.0
Mn1260 Mn 0.16905 0.7088 0.27785 0.0
Mn1261 Mn 0.10019 0.64811 0.29476 0.0
C1262 C 0.15196 0.64856 0.27648 0.0
C1263 C 0.23021 0.75111 0.27726 0.0
C1264 C 0.09064 0.68398 0.27261 0.0
O1265 O 0.16145 0.73904 0.29008 0.0
O1266 O 0.12152 0.69639 0.30262 0.0
C1267 C 0.13979 0.64732 0.3164 0.0
N1268 N 0.11743 0.62941 0.30705 0.0
C1269 C 0.11254 0.57309 0.31321 0.0
C1270 C 0.13531 0.59089 0.32295 0.0
C1271 C 0.149 0.62816 0.32455 0.0
C1272 C 0.10389 0.5935 0.30548 0.0
H1273 H 0.1506 0.67603 0.3176 0.0
C1274 C 0.14319 0.72947 0.29974 0.0
O1275 O 0.2079 0.75336 0.26984 0.0
O1276 O 0.21707 0.72418 0.28466 0.0
N1277 N 0.07785 0.60041 0.28809 0.0
C1278 C 0.05861 0.58795 0.27774 0.0
C1279 C 0.0443 0.5515 0.27453 0.0
C1280 C 0.04991 0.52825 0.28199 0.0
C1281 C 0.06971 0.54165 0.29261 0.0
C1282 C 0.08297 0.57814 0.29542 0.0
H1283 H 0.05441 0.60574 0.27193 0.0
O1284 O 0.17133 0.67088 0.26807 0.0
O1285 O 0.1442 0.66263 0.28553 0.0
O1286 O 0.1235 0.7002 0.26909 0.0
O1287 O 0.0798 0.66528 0.28223 0.0
C1288 C 0.07756 0.52046 0.30038 0.0
C1289 C 0.09893 0.53616 0.31067 0.0
H1290 H 0.14282 0.57629 0.32918 0.0
H1291 H 0.16678 0.64213 0.332 0.0
H1292 H 0.02917 0.54139 0.26629 0.0
H1293 H 0.03919 0.50025 0.27941 0.0
H1294 H 0.06775 0.49219 0.29843 0.0
H1295 H 0.10525 0.51972 0.31648 0.0
H1296 H 0.27482 0.13613 0.13084 0.0
H1297 H 0.37838 0.1863 0.19351 0.0
H1298 H 0.27276 0.05687 0.15542 0.0
H1299 H 0.38104 0.26576 0.16889 0.0
H1300 H 0.33947 0.13863 0.17968 0.0
H1301 H 0.31362 0.18389 0.14468 0.0
C1302 C 0.28254 0.12869 0.13914 0.0
C1303 C 0.27049 0.09232 0.14195 0.0
C1304 C 0.34852 0.16648 0.1773 0.0
C1305 C 0.31497 0.1471 0.15786 0.0
C1306 C 0.37076 0.1938 0.18521 0.0
C1307 C 0.38303 0.23021 0.18237 0.0
C1308 C 0.3384 0.1755 0.16647 0.0
C1309 C 0.37221 0.23812 0.17146 0.0
C1310 C 0.30472 0.15606 0.14704 0.0
C1311 C 0.28142 0.08448 0.15286 0.0
N1312 N 0.3505 0.21094 0.16389 0.0
N1313 N 0.30305 0.11169 0.16042 0.0
H1314 H 0.80158 0.189 0.19284 0.0
H1315 H 0.85305 0.13745 0.13007 0.0
H1316 H 0.72275 0.11266 0.16795 0.0
H1317 H 0.93201 0.21275 0.15515 0.0
H1318 H 0.80503 0.12853 0.14377 0.0
H1319 H 0.84962 0.19818 0.1791 0.0
C1320 C 0.7943 0.17407 0.1845 0.0
C1321 C 0.75797 0.14995 0.18156 0.0
C1322 C 0.83284 0.14704 0.14627 0.0
C1323 C 0.81307 0.16051 0.16576 0.0
C1324 C 0.86036 0.15223 0.13844 0.0
C1325 C 0.89673 0.17595 0.14145 0.0
C1326 C 0.84164 0.16567 0.15721 0.0
C1327 C 0.9044 0.19425 0.15244 0.0
C1328 C 0.82183 0.17939 0.17665 0.0
C1329 C 0.75033 0.13145 0.17061 0.0
N1330 N 0.87704 0.18868 0.15993 0.0
N1331 N 0.77769 0.13716 0.1631 0.0
H1332 H 0.79919 0.61415 0.19307 0.0
H1333 H 0.85508 0.71534 0.13003 0.0
H1334 H 0.87374 0.60743 0.16842 0.0
H1335 H 0.78063 0.72261 0.15458 0.0
H1336 H 0.86229 0.67597 0.14407 0.0
H1337 H 0.79238 0.65422 0.17917 0.0
C1338 C 0.81423 0.62113 0.18475 0.0
C1339 C 0.83713 0.60735 0.18192 0.0
C1340 C 0.84436 0.68614 0.1464 0.0
C1341 C 0.82928 0.65324 0.16596 0.0
C1342 C 0.84015 0.70865 0.13837 0.0
C1343 C 0.81711 0.72231 0.14111 0.0
C1344 C 0.82542 0.67715 0.15727 0.0
C1345 C 0.79861 0.71267 0.15208 0.0
C1346 C 0.81026 0.64403 0.17682 0.0
C1347 C 0.85584 0.61739 0.171 0.0
N1348 N 0.80317 0.69064 0.15976 0.0
N1349 N 0.85146 0.63972 0.1634 0.0
H1350 H 0.13804 0.28007 0.36055 0.0
H1351 H 0.18492 0.38276 0.29776 0.0
H1352 H 0.0574 0.27484 0.3359 0.0
H1353 H 0.26596 0.38832 0.32229 0.0
H1354 H 0.13802 0.34383 0.31179 0.0
H1355 H 0.18526 0.32049 0.34681 0.0
C1356 C 0.13019 0.28746 0.35226 0.0
C1357 C 0.09359 0.27396 0.34938 0.0
C1358 C 0.16604 0.35354 0.31411 0.0
C1359 C 0.14772 0.32026 0.3336 0.0
C1360 C 0.19293 0.37579 0.30609 0.0
C1361 C 0.22954 0.3888 0.30882 0.0
C1362 C 0.17571 0.34415 0.32496 0.0
C1363 C 0.23812 0.37887 0.31979 0.0
C1364 C 0.15725 0.31056 0.34442 0.0
C1365 C 0.0852 0.28456 0.33851 0.0
N1366 N 0.21135 0.35707 0.32746 0.0
N1367 N 0.1121 0.30706 0.331 0.0
H1368 H 0.71376 0.77619 0.33449 0.0
H1369 H 0.60129 0.87697 0.32217 0.0
H1370 H 0.71002 0.85276 0.35896 0.0
H1371 H 0.6068 0.80162 0.29757 0.0
H1372 H 0.64081 0.86817 0.3359 0.0
H1373 H 0.67386 0.78475 0.32093 0.0
C1374 C 0.70452 0.79472 0.33704 0.0
C1375 C 0.71528 0.81374 0.34789 0.0
C1376 C 0.63335 0.85362 0.32748 0.0
C1377 C 0.6697 0.82374 0.3324 0.0
C1378 C 0.61082 0.85866 0.31964 0.0
C1379 C 0.60073 0.84009 0.30868 0.0
C1380 C 0.64581 0.82984 0.32435 0.0
C1381 C 0.61385 0.8166 0.3059 0.0
C1382 C 0.68176 0.79964 0.32928 0.0
C1383 C 0.70248 0.83748 0.35069 0.0
N1384 N 0.63568 0.81217 0.31368 0.0
N1385 N 0.68038 0.84181 0.34299 0.0
H1386 H 0.13217 0.8518 0.35947 0.0
H1387 H 0.1869 0.80248 0.29691 0.0
H1388 H 0.2087 0.93151 0.33485 0.0
H1389 H 0.11072 0.72261 0.32157 0.0
H1390 H 0.19509 0.84999 0.31072 0.0
H1391 H 0.12404 0.8042 0.3457 0.0
C1392 C 0.14735 0.85937 0.35118 0.0
C1393 C 0.17124 0.89582 0.34833 0.0
C1394 C 0.17656 0.82209 0.31311 0.0
C1395 C 0.1619 0.84122 0.3325 0.0
C1396 C 0.1718 0.79485 0.30522 0.0
C1397 C 0.14798 0.75838 0.30806 0.0
C1398 C 0.15741 0.81291 0.32394 0.0
C1399 C 0.1293 0.75031 0.31899 0.0
C1400 C 0.14263 0.83209 0.34331 0.0
C1401 C 0.19006 0.90383 0.33744 0.0
N1402 N 0.13443 0.77741 0.32653 0.0
N1403 N 0.18496 0.8767 0.32991 0.0
H1404 H 0.60038 0.72124 0.8225 0.0
H1405 H 0.71057 0.93467 0.83449 0.0
H1406 H 0.60392 0.80106 0.79785 0.0
H1407 H 0.70604 0.85498 0.85941 0.0
H1408 H 0.67045 0.88581 0.82107 0.0
H1409 H 0.63861 0.76992 0.8363 0.0
C1410 C 0.6092 0.74893 0.81997 0.0
C1411 C 0.59899 0.75702 0.80898 0.0
C1412 C 0.67819 0.87906 0.8295 0.0
C1413 C 0.64258 0.81277 0.82472 0.0
C1414 C 0.70106 0.90696 0.83717 0.0
C1415 C 0.71177 0.89899 0.84809 0.0
C1416 C 0.66603 0.84298 0.83276 0.0
C1417 C 0.69859 0.86251 0.85108 0.0
C1418 C 0.63097 0.77671 0.82786 0.0
C1419 C 0.61114 0.79345 0.80621 0.0
N1420 N 0.67649 0.83589 0.84344 0.0
N1421 N 0.6323 0.81994 0.81403 0.0
H1422 H 0.13284 0.85651 0.85899 0.0
H1423 H 0.17981 0.79943 0.79643 0.0
H1424 H 0.05185 0.78274 0.8341 0.0
H1425 H 0.2606 0.87319 0.82137 0.0
H1426 H 0.13264 0.79316 0.81008 0.0
H1427 H 0.17988 0.86298 0.84526 0.0
C1428 C 0.12486 0.84159 0.85064 0.0
C1429 C 0.08822 0.81893 0.84771 0.0
C1430 C 0.16067 0.81074 0.81257 0.0
C1431 C 0.14221 0.82638 0.83193 0.0
C1432 C 0.18771 0.81439 0.80477 0.0
C1433 C 0.22433 0.83695 0.80774 0.0
C1434 C 0.17023 0.82975 0.82343 0.0
C1435 C 0.23277 0.85555 0.81869 0.0
C1436 C 0.15183 0.84536 0.84279 0.0
C1437 C 0.07969 0.80043 0.83675 0.0
N1438 N 0.20588 0.85151 0.82614 0.0
N1439 N 0.10654 0.80457 0.82924 0.0
H1440 H 0.13393 0.27557 0.8582 0.0
H1441 H 0.18903 0.38019 0.79575 0.0
H1442 H 0.21241 0.27458 0.83394 0.0
H1443 H 0.11252 0.38352 0.82036 0.0
H1444 H 0.19734 0.34098 0.80957 0.0
H1445 H 0.12538 0.31464 0.84437 0.0
C1446 C 0.14945 0.28357 0.84997 0.0
C1447 C 0.17402 0.27176 0.84725 0.0
C1448 C 0.17871 0.35025 0.81195 0.0
C1449 C 0.16419 0.31656 0.83136 0.0
C1450 C 0.17387 0.37265 0.80405 0.0
C1451 C 0.14994 0.38519 0.80689 0.0
C1452 C 0.15952 0.34022 0.82277 0.0
C1453 C 0.1312 0.3745 0.81779 0.0
C1454 C 0.14449 0.30592 0.84208 0.0
C1455 C 0.19325 0.28305 0.83644 0.0
N1456 N 0.1364 0.35259 0.82535 0.0
N1457 N 0.18789 0.30484 0.82888 0.0
H1458 H 0.7196 0.60749 0.66737 0.0
H1459 H 0.93272 0.71646 0.65464 0.0
H1460 H 0.79998 0.61185 0.69196 0.0
H1461 H 0.85241 0.71327 0.63028 0.0
H1462 H 0.88432 0.67804 0.66848 0.0
H1463 H 0.76808 0.64664 0.65367 0.0
C1464 C 0.74738 0.61673 0.66992 0.0
C1465 C 0.75567 0.60633 0.68084 0.0
C1466 C 0.87735 0.68577 0.6601 0.0
C1467 C 0.81121 0.65099 0.6652 0.0
C1468 C 0.90497 0.70766 0.65218 0.0
C1469 C 0.89668 0.71809 0.64127 0.0
C1470 C 0.84122 0.67426 0.65707 0.0
C1471 C 0.86018 0.70594 0.63858 0.0
C1472 C 0.77505 0.63905 0.66208 0.0
C1473 C 0.79221 0.61911 0.68364 0.0
N1474 N 0.83383 0.68467 0.64643 0.0
N1475 N 0.8186 0.64072 0.67586 0.0
H1476 H 0.37596 0.18643 0.69293 0.0
H1477 H 0.27374 0.13071 0.63001 0.0
H1478 H 0.38089 0.11053 0.66844 0.0
H1479 H 0.26771 0.20581 0.65459 0.0
H1480 H 0.31308 0.12315 0.644 0.0
H1481 H 0.33623 0.19377 0.67902 0.0
C1482 C 0.36867 0.17121 0.68463 0.0
C1483 C 0.38182 0.14776 0.68186 0.0
C1484 C 0.30319 0.14131 0.64634 0.0
C1485 C 0.3363 0.15621 0.66588 0.0
C1486 C 0.28071 0.14571 0.63834 0.0
C1487 C 0.26739 0.16903 0.64111 0.0
C1488 C 0.31249 0.16032 0.6572 0.0
C1489 C 0.27736 0.18761 0.65206 0.0
C1490 C 0.34596 0.17547 0.67669 0.0
C1491 C 0.37139 0.12885 0.67097 0.0
N1492 N 0.29935 0.18284 0.65972 0.0
N1493 N 0.34925 0.13352 0.66337 0.0
H1494 H 0.79824 0.18902 0.69235 0.0
H1495 H 0.85247 0.13798 0.63 0.0
H1496 H 0.87323 0.26832 0.6673 0.0
H1497 H 0.77822 0.05894 0.65526 0.0
H1498 H 0.85981 0.18605 0.64343 0.0
H1499 H 0.79016 0.14116 0.67873 0.0
C1500 C 0.81308 0.19645 0.68399 0.0
C1501 C 0.83658 0.23286 0.68099 0.0
C1502 C 0.84188 0.1582 0.64603 0.0
C1503 C 0.82728 0.17793 0.66533 0.0
C1504 C 0.83762 0.13065 0.63836 0.0
C1505 C 0.81464 0.09426 0.6415 0.0
C1506 C 0.82307 0.14938 0.65692 0.0
C1507 C 0.79618 0.08656 0.65246 0.0
C1508 C 0.80839 0.16901 0.67621 0.0
C1509 C 0.85492 0.24067 0.67001 0.0
N1510 N 0.80084 0.11393 0.65978 0.0
N1511 N 0.84989 0.21338 0.66257 0.0
H1512 H 0.0502 0.60475 0.49932 0.0
H1513 H 0.93704 0.391 0.4881 0.0
H1514 H 0.04921 0.52516 0.5235 0.0
H1515 H 0.93971 0.47015 0.46334 0.0
H1516 H 0.97811 0.44011 0.50126 0.0
H1517 H 0.00961 0.55582 0.48595 0.0
C1518 C 0.04151 0.57707 0.50182 0.0
C1519 C 0.05308 0.56911 0.51257 0.0
C1520 C 0.96971 0.44669 0.49293 0.0
C1521 C 0.00671 0.5131 0.49735 0.0
C1522 C 0.94623 0.41865 0.48542 0.0
C1523 C 0.93492 0.4264 0.47458 0.0
C1524 C 0.9819 0.48272 0.48959 0.0
C1525 C 0.94772 0.46281 0.47159 0.0
C1526 C 0.01834 0.54915 0.49419 0.0
C1527 C 0.04099 0.53269 0.51533 0.0
N1528 N 0.97052 0.4896 0.47906 0.0
N1529 N 0.01844 0.50608 0.50778 0.0
H1530 H 0.46745 0.52004 0.5269 0.0
H1531 H 0.51743 0.46718 0.46409 0.0
H1532 H 0.38782 0.44599 0.50173 0.0
H1533 H 0.597 0.54264 0.48899 0.0
H1534 H 0.46971 0.45873 0.47786 0.0
H1535 H 0.5152 0.528 0.51322 0.0
C1536 C 0.45993 0.50534 0.51851 0.0
C1537 C 0.42345 0.48225 0.51547 0.0
C1538 C 0.49759 0.47716 0.48031 0.0
C1539 C 0.47823 0.49142 0.49975 0.0
C1540 C 0.52495 0.48206 0.47245 0.0
C1541 C 0.56139 0.50575 0.47537 0.0
C1542 C 0.50664 0.49602 0.4912 0.0
C1543 C 0.56932 0.52418 0.48634 0.0
C1544 C 0.4873 0.50998 0.51069 0.0
C1545 C 0.41551 0.46402 0.50446 0.0
N1546 N 0.54213 0.5189 0.49387 0.0
N1547 N 0.44272 0.46904 0.49699 0.0
H1548 H 0.51787 0.04306 0.46404 0.0
H1549 H 0.4647 0.94321 0.52734 0.0
H1550 H 0.44367 0.0496 0.4889 0.0
H1551 H 0.53731 0.93462 0.50229 0.0
H1552 H 0.4571 0.98252 0.51337 0.0
H1553 H 0.52544 0.00347 0.47794 0.0
C1554 C 0.50308 0.03615 0.47241 0.0
C1555 C 0.48003 0.04971 0.4753 0.0
C1556 C 0.47472 0.97208 0.51093 0.0
C1557 C 0.48875 0.00436 0.49126 0.0
C1558 C 0.47916 0.94962 0.51891 0.0
C1559 C 0.50178 0.93558 0.516 0.0
C1560 C 0.493 0.98064 0.49993 0.0
C1561 C 0.51966 0.94484 0.50493 0.0
C1562 C 0.50747 0.01351 0.48035 0.0
C1563 C 0.46165 0.03977 0.48628 0.0
N1564 N 0.51487 0.96683 0.49728 0.0
N1565 N 0.46645 0.0177 0.49387 0.0
H1566 H 0.38478 0.93625 0.0009 0.0
H1567 H 0.59777 0.05516 0.98891 0.0
H1568 H 0.46643 0.94309 0.02541 0.0
H1569 H 0.51602 0.04715 0.96421 0.0
H1570 H 0.5499 0.01409 0.00246 0.0
H1571 H 0.43267 0.97707 0.98731 0.0
C1572 C 0.41272 0.94632 0.00344 0.0
C1573 C 0.42155 0.93626 0.01433 0.0
C1574 C 0.5425 0.02134 0.99407 0.0
C1575 C 0.47642 0.9829 -0.00117 0.0
C1576 C 0.56982 0.04478 0.98632 0.0
C1577 C 0.56096 0.05461 0.97539 0.0
C1578 C 0.50611 0.0077 0.99085 0.0
C1579 C 0.52422 0.04033 0.97253 0.0
C1580 C 0.44005 0.96961 -0.00433 0.0
C1581 C 0.45826 0.9501 0.01712 0.0
N1582 N 0.49817 0.01761 0.98022 0.0
N1583 N 0.48433 0.97273 0.00942 0.0
H1584 H 0.93716 0.54764 0.9883 0.0
H1585 H 0.04951 0.44634 -0.00015 0.0
H1586 H 0.94161 0.47246 0.96336 0.0
H1587 H 0.04429 0.52098 0.02484 0.0
H1588 H 0.01004 0.45569 0.98628 0.0
H1589 H 0.97697 0.53856 0.00176 0.0
C1590 C 0.94655 0.52933 0.98563 0.0
C1591 C 0.93601 0.51082 0.97467 0.0
C1592 C 0.01755 0.46997 0.99475 0.0
C1593 C 0.98143 0.50022 0.99005 0.0
C1594 C 0.04003 0.4646 0.0025 0.0
C1595 C 0.05022 0.48283 0.01351 0.0
C1596 C 0.00521 0.49374 -0.00197 0.0
C1597 C 0.03717 0.50628 0.01646 0.0
C1598 C 0.96924 0.5241 0.99333 0.0
C1599 C 0.94898 0.48734 0.97171 0.0
N1600 N 0.01537 0.51104 0.00875 0.0
N1601 N 0.97099 0.4827 0.97936 0.0
H1602 H 0.44124 0.38771 0.98944 0.0
H1603 H 0.54124 0.6011 0.00139 0.0
H1604 H 0.51729 0.46812 0.96489 0.0
H1605 H 0.46603 0.52077 0.02613 0.0
H1606 H 0.53265 0.55256 0.98783 0.0
H1607 H 0.44985 0.43621 0.00303 0.0
C1608 C 0.4597 0.41549 0.98689 0.0
C1609 C 0.4785 0.42379 0.97599 0.0
C1610 C 0.51807 0.54561 -0.00376 0.0
C1611 C 0.48849 0.47936 0.99149 0.0
C1612 C 0.52298 0.57332 0.00399 0.0
C1613 C 0.50441 0.56506 0.01493 0.0
C1614 C 0.49441 0.50943 -0.00054 0.0
C1615 C 0.481 0.52851 0.01781 0.0
C1616 C 0.46462 0.44318 0.99466 0.0
C1617 C 0.50214 0.46034 0.97318 0.0
N1618 N 0.47669 0.50208 0.01012 0.0
N1619 N 0.50644 0.48674 0.98088 0.0
H1620 H 0.30674 0.00343 0.11185 0.0
H1621 H 0.32892 0.96842 0.04395 0.0
H1622 H 0.26394 0.03606 0.08237 0.0
H1623 H 0.36912 0.93319 0.07349 0.0
H1624 H 0.31937 0.00737 0.05758 0.0
H1625 H 0.34381 0.99241 0.09781 0.0
C1626 C 0.30554 0.0088 0.10243 0.0
C1627 C 0.2814 0.01961 0.09821 0.0
C1628 C 0.33083 0.99159 0.06106 0.0
C1629 C 0.32352 0.00673 0.08211 0.0
C1630 C 0.33617 0.96921 0.05329 0.0
C1631 C 0.34881 0.9467 0.05767 0.0
C1632 C 0.33772 0.9911 0.07331 0.0
C1633 C 0.35866 0.94958 0.06977 0.0
C1634 C 0.32681 0.00259 0.09442 0.0
C1635 C 0.28168 0.02707 0.08598 0.0
N1636 N 0.3522 0.97082 0.07723 0.0
N1637 N 0.30184 0.01973 0.07831 0.0
H1638 H 0.01931 0.35642 0.04341 0.0
H1639 H 0.99163 0.3017 0.11159 0.0
H1640 H 0.05616 0.43309 0.07261 0.0
H1641 H 0.9543 0.22498 0.08241 0.0
H1642 H 0.00202 0.34947 0.09752 0.0
H1643 H 0.98236 0.30825 0.05742 0.0
C1644 C 0.01927 0.36323 0.05276 0.0
C1645 C 0.04167 0.39866 0.05692 0.0
C1646 C 0.99101 0.3221 0.09421 0.0
C1647 C -0.00038 0.34356 0.073 0.0
C1648 C 0.98518 0.29479 0.10223 0.0
C1649 C 0.97307 0.2595 0.0981 0.0
C1650 C 0.98515 0.31415 0.08195 0.0
C1651 C 0.9643 0.25195 0.08595 0.0
C1652 C -0.00195 0.33569 0.06075 0.0
C1653 C 0.03981 0.40604 0.06905 0.0
N1654 N 0.97121 0.27925 0.07824 0.0
N1655 N 0.01972 0.37854 0.07672 0.0
H1656 H 0.63046 0.65735 0.04383 0.0
H1657 H 0.76882 0.71381 0.08395 0.0
H1658 H 0.55775 0.62091 0.07409 0.0
H1659 H 0.68794 0.70232 0.10961 0.0
H1660 H 0.72068 0.67452 0.07024 0.0
H1661 H 0.68018 0.66973 0.05704 0.0
C1662 C 0.62483 0.65119 0.05327 0.0
C1663 C 0.59007 0.63902 0.05792 0.0
C1664 C 0.71336 0.68074 0.07882 0.0
C1665 C 0.64714 0.65264 0.07323 0.0
C1666 C 0.74095 0.70299 0.08671 0.0
C1667 C 0.73247 0.71247 0.09778 0.0
C1668 C 0.67712 0.66851 0.08197 0.0
C1669 C 0.69589 0.69668 0.10103 0.0
C1670 C 0.65337 0.65794 0.06085 0.0
C1671 C 0.58424 0.63085 0.07015 0.0
N1672 N 0.66962 0.67601 0.09308 0.0
N1673 N 0.6127 0.63858 0.07743 0.0
H1674 H 0.97341 0.34223 0.44691 0.0
H1675 H 0.03736 0.26178 0.40871 0.0
H1676 H 0.92517 0.35915 0.41542 0.0
H1677 H -0.00179 0.30113 0.38008 0.0
H1678 H 0.02616 0.29824 0.42277 0.0
H1679 H 0.0127 0.33068 0.43426 0.0
C1680 C 0.97127 0.34364 0.43728 0.0
C1681 C 0.94528 0.35054 0.43218 0.0
C1682 C 0.02069 0.29985 0.41343 0.0
C1683 C 0.9892 0.33581 0.41752 0.0
C1684 C 0.02709 0.27874 0.40536 0.0
C1685 C 0.01777 0.27764 0.39327 0.0
C1686 C 0.00487 0.32 0.40934 0.0
C1687 C 0.0049 0.30041 0.38939 0.0
C1688 C -0.0064 0.33672 0.43001 0.0
C1689 C 0.94443 0.35329 0.41971 0.0
N1690 N -0.00169 0.32019 0.39743 0.0
N1691 N 0.96556 0.34518 0.4128 0.0
H1692 H 0.61317 0.55476 0.41655 0.0
H1693 H 0.72116 0.76718 0.40707 0.0
H1694 H 0.65875 0.63334 0.4451 0.0
H1695 H 0.68509 0.6884 0.37851 0.0
H1696 H 0.68338 0.71887 0.42104 0.0
H1697 H 0.62405 0.60342 0.4027 0.0
C1698 C 0.62487 0.58211 0.41996 0.0
C1699 C 0.63609 0.59015 0.43192 0.0
C1700 C 0.68329 0.7123 0.41167 0.0
C1701 C 0.64879 0.64586 0.41613 0.0
C1702 C 0.70483 0.73987 0.40369 0.0
C1703 C 0.70711 0.73162 0.39168 0.0
C1704 C 0.66411 0.67634 0.4076 0.0
C1705 C 0.68495 0.69585 0.38777 0.0
C1706 C 0.6311 0.60989 0.41204 0.0
C1707 C 0.65059 0.62601 0.43587 0.0
N1708 N 0.66484 0.66942 0.39575 0.0
N1709 N 0.65711 0.65264 0.42795 0.0
H1710 H 0.43301 0.05492 0.41622 0.0
H1711 H 0.22039 0.94756 0.40724 0.0
H1712 H 0.35485 0.02049 0.44493 0.0
H1713 H 0.29839 0.99152 0.37849 0.0
H1714 H 0.26926 0.95855 0.42103 0.0
H1715 H 0.38434 0.01662 0.40243 0.0
C1716 C 0.40576 0.03887 0.41967 0.0
C1717 C 0.39779 0.04176 0.43166 0.0
C1718 C 0.27555 0.9652 0.41166 0.0
C1719 C 0.3421 -0.00187 0.41596 0.0
C1720 C 0.24765 0.9589 0.40378 0.0
C1721 C 0.2555 0.96969 0.39178 0.0
C1722 C 0.31143 0.98253 0.40749 0.0
C1723 C 0.29123 0.98374 0.38775 0.0
C1724 C 0.37798 0.01701 0.41179 0.0
C1725 C 0.36208 0.0199 0.43568 0.0
N1726 N 0.31798 0.99036 0.39564 0.0
N1727 N 0.33545 -0.00052 0.4278 0.0
H1728 H 0.71331 0.94441 0.90536 0.0
H1729 H 0.65996 0.0276 0.94628 0.0
H1730 H 0.69709 0.01128 0.87991 0.0
H1731 H 0.61589 0.05795 0.91658 0.0
H1732 H 0.6732 0.99122 0.9329 0.0
H1733 H 0.67588 0.95394 0.91971 0.0
C1734 C 0.70186 0.96106 0.90278 0.0
C1735 C 0.70939 0.97806 0.89155 0.0
C1736 C 0.65956 0.0047 0.92928 0.0
C1737 C 0.66752 0.99014 0.90807 0.0
C1738 C 0.65233 0.02597 0.93695 0.0
C1739 C 0.63762 0.0466 0.93249 0.0
C1740 C 0.65213 0.00413 0.91701 0.0
C1741 C 0.62776 0.04293 0.92038 0.0
C1742 C 0.68069 0.96678 0.91103 0.0
C1743 C 0.6929 -0.00159 0.88857 0.0
N1744 N 0.6359 0.02271 0.91301 0.0
N1745 N 0.67323 0.00431 0.89685 0.0
H1746 H 0.96833 0.63416 0.94468 0.0
H1747 H 0.99064 0.69244 0.87685 0.0
H1748 H 0.92466 0.559 0.91515 0.0
H1749 H 0.0337 0.76747 0.90644 0.0
H1750 H 0.97946 0.64325 0.89038 0.0
H1751 H 0.00524 0.68227 0.93064 0.0
C1752 C 0.96686 0.62767 0.93524 0.0
C1753 C 0.94263 0.59276 0.93102 0.0
C1754 C 0.99189 0.67054 0.89389 0.0
C1755 C 0.98458 0.6478 0.91491 0.0
C1756 C -0.00182 0.69867 0.88617 0.0
C1757 C 0.01216 0.73398 0.8906 0.0
C1758 C -0.00079 0.67769 0.90614 0.0
C1759 C 0.02225 0.74056 0.90269 0.0
C1760 C 0.98805 0.65516 0.92723 0.0
C1761 C 0.94253 0.58568 0.91876 0.0
N1762 N 0.0149 0.71251 0.9101 0.0
N1763 N 0.96264 0.6132 0.91109 0.0
H1764 H 0.35191 0.33146 0.94608 0.0
H1765 H 0.29784 0.30929 0.87793 0.0
H1766 H 0.42855 0.37284 0.9169 0.0
H1767 H 0.22118 0.26508 0.90703 0.0
H1768 H 0.34492 0.34703 0.89217 0.0
H1769 H 0.30384 0.32177 0.93223 0.0
C1770 C 0.35875 0.33899 0.93678 0.0
C1771 C 0.39411 0.35192 0.93255 0.0
C1772 C 0.31768 0.32956 0.89544 0.0
C1773 C 0.33911 0.34064 0.91665 0.0
C1774 C 0.29078 0.3079 0.88731 0.0
C1775 C 0.25581 0.2832 0.89137 0.0
C1776 C 0.30967 0.32608 0.90771 0.0
C1777 C 0.24796 0.28325 0.90355 0.0
C1778 C 0.33126 0.33355 0.92888 0.0
C1779 C 0.40154 0.36212 0.9205 0.0
N1780 N 0.27493 0.3038 0.91135 0.0
N1781 N 0.37408 0.35554 0.9129 0.0
H1782 H 0.98332 0.68014 0.61051 0.0
H1783 H 0.01627 0.65877 0.54244 0.0
H1784 H 0.94922 0.72263 0.58135 0.0
H1785 H 0.05284 0.6188 0.57167 0.0
H1786 H 0.97698 0.66723 0.55624 0.0
H1787 H -0.00646 0.64286 0.59633 0.0
C1788 C 0.97745 0.68122 0.60113 0.0
C1789 C 0.9665 0.70537 0.59704 0.0
C1790 C -0.00689 0.65602 0.55961 0.0
C1791 C 0.97848 0.66302 0.58076 0.0
C1792 C 0.01568 0.65129 0.55174 0.0
C1793 C 0.03872 0.63913 0.55599 0.0
C1794 C -0.00603 0.64901 0.57184 0.0
C1795 C 0.03607 0.62894 0.56805 0.0
C1796 C 0.9832 0.65983 0.59304 0.0
C1797 C 0.95836 0.70491 0.58486 0.0
N1798 N 0.01467 0.63485 0.57562 0.0
N1799 N 0.9653 0.68467 0.57709 0.0
H1800 H 0.26354 0.21891 0.58196 0.0
H1801 H 0.36829 0.43221 0.57402 0.0
H1802 H 0.29656 0.29555 0.61111 0.0
H1803 H 0.32354 0.35535 0.54495 0.0
H1804 H 0.35732 0.38275 0.58753 0.0
H1805 H 0.3006 0.26862 0.56834 0.0
C1806 C 0.27907 0.24605 0.58554 0.0
C1807 C 0.27612 0.25324 0.59762 0.0
C1808 C 0.35044 0.37685 0.57815 0.0
C1809 C 0.31827 0.31012 0.58211 0.0
C1810 C 0.35671 0.40507 0.57043 0.0
C1811 C 0.34585 0.39774 0.55842 0.0
C1812 C 0.33315 0.34117 0.5738 0.0
C1813 C 0.33145 0.36213 0.55423 0.0
C1814 C 0.30018 0.27444 0.57776 0.0
C1815 C 0.29725 0.28888 0.6018 0.0
N1816 N 0.32499 0.33508 0.56195 0.0
N1817 N 0.31696 0.31609 0.59401 0.0
H1818 H 0.68948 -0.00127 0.61271 0.0
H1819 H 0.62753 0.96551 0.54513 0.0
H1820 H 0.76313 0.03274 0.58271 0.0
H1821 H 0.55395 0.93091 0.57516 0.0
H1822 H 0.67726 0.00302 0.55857 0.0
H1823 H 0.64028 0.98697 0.59909 0.0
C1824 C 0.6954 0.00415 0.60326 0.0
C1825 C 0.73026 0.01578 0.59878 0.0
C1826 C 0.65017 0.9877 0.5622 0.0
C1827 C 0.67396 0.00211 0.58314 0.0
C1828 C 0.62173 0.96615 0.55454 0.0
C1829 C 0.58669 0.94426 0.5591 0.0
C1830 C 0.6436 0.98699 0.57453 0.0
C1831 C 0.58064 0.94688 0.5713 0.0
C1832 C 0.66728 -0.00246 0.59549 0.0
C1833 C 0.73654 0.02322 0.58651 0.0
N1834 N 0.60899 0.96731 0.57865 0.0
N1835 N 0.70845 0.01556 0.57907 0.0
H1836 H 0.70468 0.60142 0.73993 0.0
H1837 H 0.59948 0.70842 0.74979 0.0
H1838 H 0.65927 0.63536 0.71159 0.0
H1839 H 0.63361 0.66341 0.77819 0.0
H1840 H 0.6373 0.69795 0.73582 0.0
H1841 H 0.69483 0.63969 0.75388 0.0
C1842 C 0.69321 0.61735 0.73659 0.0
C1843 C 0.68174 0.61433 0.72466 0.0
C1844 C 0.63698 0.69097 0.74516 0.0
C1845 C 0.6703 0.65795 0.74056 0.0
C1846 C 0.61542 0.69698 0.75314 0.0
C1847 C 0.61249 0.6857 0.76509 0.0
C1848 C 0.6555 0.67344 0.74917 0.0
C1849 C 0.63422 0.67156 0.76897 0.0
C1850 C 0.6876 0.6392 0.74456 0.0
C1851 C 0.66758 0.63606 0.72079 0.0
N1852 N 0.65431 0.66521 0.76099 0.0
N1853 N 0.66169 0.65648 0.72877 0.0
H1854 H 0.38935 0.10048 0.74131 0.0
H1855 H 0.27804 0.88735 0.74932 0.0
H1856 H 0.3512 0.02359 0.71217 0.0
H1857 H 0.32559 0.96382 0.77837 0.0
H1858 H 0.29006 0.93731 0.7359 0.0
H1859 H 0.35164 0.05144 0.75508 0.0
C1860 C 0.37256 0.07345 0.73777 0.0
C1861 C 0.37421 0.06589 0.72564 0.0
C1862 C 0.29733 0.94305 0.74526 0.0
C1863 C 0.33132 0.00979 0.74131 0.0
C1864 C 0.29045 0.91452 0.75293 0.0
C1865 C 0.30179 0.92154 0.7649 0.0
C1866 C 0.31577 0.97872 0.74962 0.0
C1867 C 0.31727 0.95724 0.76912 0.0
C1868 C 0.35108 0.04545 0.74564 0.0
C1869 C 0.35154 0.03046 0.72152 0.0
N1870 N 0.32435 0.98457 0.76144 0.0
N1871 N 0.33148 0.00361 0.72938 0.0
H1872 H 0.96407 0.32679 0.70978 0.0
H1873 H 0.02455 0.35132 0.77738 0.0
H1874 H 0.89002 0.28811 0.73969 0.0
H1875 H 0.09866 0.39148 0.7475 0.0
H1876 H 0.97552 0.31429 0.76364 0.0
H1877 H 0.01311 0.33657 0.72319 0.0
C1878 C 0.95801 0.31992 0.71915 0.0
C1879 C 0.9231 0.30763 0.7237 0.0
C1880 C 0.0026 0.33071 0.76009 0.0
C1881 C 0.97921 0.31899 0.7391 0.0
C1882 C 0.03062 0.35196 0.76793 0.0
C1883 C 0.06552 0.37533 0.76352 0.0
C1884 C 0.00944 0.33324 0.74774 0.0
C1885 C 0.07201 0.37434 0.75126 0.0
C1886 C 0.98605 0.32539 0.7268 0.0
C1887 C 0.91666 0.29828 0.73585 0.0
N1888 N 0.04402 0.35422 0.74375 0.0
N1889 N 0.94466 0.30485 0.74318 0.0
H1890 H 0.38794 0.28342 0.24171 0.0
H1891 H 0.27835 0.38659 0.25016 0.0
H1892 H 0.34975 0.32279 0.21277 0.0
H1893 H 0.32742 0.35841 0.27894 0.0
H1894 H 0.28863 0.34742 0.23677 0.0
H1895 H 0.35028 0.29446 0.25559 0.0
C1896 C 0.37114 0.29372 0.23823 0.0
C1897 C 0.37284 0.30327 0.22614 0.0
C1898 C 0.29659 0.34936 0.24607 0.0
C1899 C 0.33 0.31615 0.24193 0.0
C1900 C 0.29073 0.37173 0.25372 0.0
C1901 C 0.30308 0.37666 0.26559 0.0
C1902 C 0.31503 0.33202 0.25033 0.0
C1903 C 0.31839 0.35623 0.26976 0.0
C1904 C 0.34967 0.30006 0.24616 0.0
C1905 C 0.35008 0.31602 0.22209 0.0
N1906 N 0.32451 0.33529 0.26208 0.0
N1907 N 0.33008 0.3227 0.23001 0.0
H1908 H 0.60075 0.88947 0.24998 0.0
H1909 H 0.70359 0.10197 0.24068 0.0
H1910 H 0.62949 0.96769 0.27847 0.0
H1911 H 0.66326 0.02339 0.21204 0.0
H1912 H 0.69259 0.05371 0.25474 0.0
H1913 H 0.63924 0.9385 0.23636 0.0
C1914 C 0.61559 0.91683 0.25343 0.0
C1915 C 0.61103 0.92463 0.26529 0.0
C1916 C 0.68676 0.04718 0.24534 0.0
C1917 C 0.65488 0.98074 0.24976 0.0
C1918 C 0.69307 0.07473 0.2373 0.0
C1919 C 0.68328 0.06649 0.22524 0.0
C1920 C 0.67048 0.01127 0.24125 0.0
C1921 C 0.67024 0.0308 0.22133 0.0
C1922 C 0.63756 0.94482 0.24564 0.0
C1923 C 0.6314 0.96053 0.26931 0.0
N1924 N 0.66363 0.00439 0.22935 0.0
N1925 N 0.65196 0.98734 0.2615 0.0
H1926 H 0.88427 0.59986 0.24109 0.0
H1927 H 0.09731 0.7067 0.24928 0.0
H1928 H 0.9614 0.63504 0.21205 0.0
H1929 H 0.02034 0.66185 0.27829 0.0
H1930 H 0.04793 0.69591 0.23576 0.0
H1931 H 0.93352 0.63747 0.25481 0.0
C1932 C 0.91142 0.61595 0.23756 0.0
C1933 C 0.91893 0.61348 0.22549 0.0
C1934 C 0.04197 0.689 0.24513 0.0
C1935 C 0.97526 0.65629 0.2411 0.0
C1936 C 0.07017 0.69518 0.25285 0.0
C1937 C 0.06277 0.68413 0.26484 0.0
C1938 C 0.00625 0.67154 0.24944 0.0
C1939 C 0.02716 0.66985 0.26903 0.0
C1940 C 0.93953 0.6374 0.2454 0.0
C1941 C 0.95452 0.63533 0.22137 0.0
N1942 N 0.00012 0.66339 0.26129 0.0
N1943 N 0.98147 0.65536 0.2292 0.0
H1944 H 0.0312 0.15001 0.13032 0.0
H1945 H 0.17516 0.12462 0.09352 0.0
H1946 H 0.06102 0.18951 0.09426 0.0
H1947 H 0.15048 0.09849 0.13089 0.0
H1948 H 0.14203 0.1581 0.09413 0.0
H1949 H 0.08313 0.1413 0.13149 0.0
C1950 C 0.04963 0.15812 0.12279 0.0
C1951 C 0.04281 0.17177 0.11236 0.0
C1952 C 0.14452 0.14559 0.10224 0.0
C1953 C 0.10083 0.1591 0.1132 0.0
C1954 C 0.16342 0.12659 0.10189 0.0
C1955 C 0.1647 0.10817 0.1121 0.0
C1956 C 0.12712 0.14604 0.11289 0.0
C1957 C 0.14932 0.11161 0.12274 0.0
C1958 C 0.07905 0.15265 0.12337 0.0
C1959 C 0.06605 0.1796 0.10255 0.0
N1960 N 0.13087 0.12976 0.12282 0.0
N1961 N 0.09393 0.17275 0.10314 0.0
H1962 H 0.88234 0.04909 0.13048 0.0
H1963 H 0.80248 0.86771 0.09202 0.0
H1964 H 0.8705 0.04833 0.09212 0.0
H1965 H 0.84866 0.88388 0.12733 0.0
H1966 H 0.81046 0.92908 0.09281 0.0
H1967 H 0.85024 0.98322 0.13045 0.0
C1968 C 0.87244 0.03489 0.12206 0.0
C1969 C 0.87964 0.05392 0.11126 0.0
C1970 C 0.81794 0.91871 0.10048 0.0
C1971 C 0.84382 0.97869 0.11111 0.0
C1972 C 0.8134 0.88391 0.10003 0.0
C1973 C 0.8238 0.87061 0.10981 0.0
C1974 C 0.83335 0.94009 0.11072 0.0
C1975 C 0.83894 0.89272 0.11983 0.0
C1976 C 0.8542 -0.00265 0.12204 0.0
C1977 C 0.86568 0.03442 0.10061 0.0
N1978 N 0.84318 0.92632 0.12004 0.0
N1979 N 0.84902 -0.00238 0.10075 0.0
H1980 H 0.94568 0.81622 0.09133 0.0
H1981 H 0.112 0.95475 0.1297 0.0
H1982 H 0.94343 0.83022 0.12949 0.0
H1983 H 0.12464 0.92943 0.09333 0.0
H1984 H 0.0523 0.90136 0.13034 0.0
H1985 H 0.0123 0.84906 0.09208 0.0
C1986 C 0.95924 0.82536 0.09988 0.0
C1987 C 0.93938 0.82141 0.11032 0.0
C1988 C 0.06822 0.90671 0.12226 0.0
C1989 C 0.01476 0.85876 0.11128 0.0
C1990 C 0.1026 0.93699 0.12199 0.0
C1991 C 0.12364 0.9455 0.11163 0.0
C1992 C 0.05387 0.88579 0.11186 0.0
C1993 C 0.10928 0.9231 0.10157 0.0
C1994 C -0.00286 0.84414 0.10032 0.0
C1995 C 0.95793 0.83354 0.12119 0.0
N1996 N 0.07495 0.89439 0.10187 0.0
N1997 N -0.00547 0.85205 0.12136 0.0
H1998 H 0.10989 0.16121 0.35914 0.0
H1999 H 0.19035 0.05904 0.3968 0.0
H2000 H 0.12382 0.17202 0.39745 0.0
H2001 H 0.14633 0.03148 0.36116 0.0
H2002 H 0.18333 0.11297 0.39617 0.0
H2003 H 0.14289 0.12833 0.35868 0.0
C2004 C 0.12044 0.15706 0.36745 0.0
C2005 C 0.11355 0.16851 0.37838 0.0
C2006 C 0.17622 0.09561 0.38838 0.0
C2007 C 0.15046 0.13013 0.37797 0.0
C2008 C 0.18024 0.06504 0.38874 0.0
C2009 C 0.16998 0.04173 0.37885 0.0
C2010 C 0.16138 0.10228 0.37813 0.0
C2011 C 0.15592 0.04968 0.36875 0.0
C2012 C 0.13922 0.13827 0.36719 0.0
C2013 C 0.12836 0.16319 0.38886 0.0
N2014 N 0.15203 0.07927 0.36865 0.0
N2015 N 0.14553 0.14354 0.38845 0.0
H2016 H 0.96015 0.11125 0.36023 0.0
H2017 H 0.81368 0.94284 0.39664 0.0
H2018 H 0.93163 0.1211 0.39646 0.0
H2019 H 0.83481 0.94229 0.3589 0.0
H2020 H 0.84885 0.0094 0.3964 0.0
H2021 H 0.90708 0.05133 0.35898 0.0
C2022 C 0.94184 0.10109 0.36779 0.0
C2023 C 0.94928 0.12143 0.37828 0.0
C2024 C 0.84509 0.99466 0.38813 0.0
C2025 C 0.88978 0.05164 0.37732 0.0
C2026 C 0.82499 0.95678 0.38828 0.0
C2027 C 0.82217 0.93729 0.37784 0.0
C2028 C 0.86218 0.01269 0.37747 0.0
C2029 C 0.83712 0.95639 0.36721 0.0
C2030 C 0.91173 0.06666 0.36716 0.0
C2031 C 0.92612 0.10628 0.38812 0.0
N2032 N 0.85681 0.99296 0.36734 0.0
N2033 N 0.89745 0.07199 0.38746 0.0
H2034 H 0.0433 0.86439 0.39729 0.0
H2035 H 0.87544 0.83874 0.35973 0.0
H2036 H 0.04512 0.88592 0.35949 0.0
H2037 H 0.86438 0.80037 0.396 0.0
H2038 H 0.93564 0.84626 0.35884 0.0
H2039 H 0.97668 0.8314 0.39665 0.0
C2040 C 0.02965 0.86142 0.38883 0.0
C2041 C 0.04945 0.87849 0.37848 0.0
C2042 C 0.91999 0.8354 0.36695 0.0
C2043 C 0.97402 0.84124 0.37766 0.0
C2044 C 0.88535 0.83062 0.36737 0.0
C2045 C 0.8646 0.81759 0.37777 0.0
C2046 C 0.93484 0.82891 0.37725 0.0
C2047 C 0.87952 0.80978 0.38773 0.0
C2048 C 0.99174 0.84272 0.38846 0.0
C2049 C 0.03074 0.87385 0.36773 0.0
N2050 N 0.91404 0.81596 0.38728 0.0
N2051 N -0.00586 0.85606 0.36763 0.0
H2052 H 0.82328 0.88136 0.85849 0.0
H2053 H 0.92755 0.80359 0.8965 0.0
H2054 H 0.81469 0.87139 0.89693 0.0
H2055 H 0.95672 0.85038 0.86125 0.0
H2056 H 0.87367 0.81081 0.89589 0.0
H2057 H 0.85727 0.84944 0.8584 0.0
C2058 C 0.82809 0.87184 0.86691 0.0
C2059 C 0.81697 0.87957 0.87776 0.0
C2060 C 0.89143 0.81857 0.88819 0.0
C2061 C 0.85663 0.84398 0.87776 0.0
C2062 C 0.92197 0.81447 0.88853 0.0
C2063 C 0.94558 0.82526 0.87872 0.0
C2064 C 0.88508 0.83393 0.87801 0.0
C2065 C 0.93823 0.84034 0.86877 0.0
C2066 C 0.84754 0.85373 0.86686 0.0
C2067 C 0.82321 0.86613 0.8884 0.0
N2068 N 0.9086 0.84415 0.86865 0.0
N2069 N 0.84347 0.84959 0.88818 0.0
H2070 H 0.12274 0.94648 0.89758 0.0
H2071 H 0.15488 0.11436 0.85932 0.0
H2072 H 0.10718 0.94513 0.8594 0.0
H2073 H 0.19028 0.12545 0.89596 0.0
H2074 H 0.14825 0.05457 0.8586 0.0
H2075 H 0.15781 0.01305 0.89694 0.0
C2076 C 0.12755 0.96021 0.88905 0.0
C2077 C 0.11147 0.94066 0.87857 0.0
C2078 C 0.15834 0.07016 0.86676 0.0
C2079 C 0.15104 0.016 0.87774 0.0
C2080 C 0.16267 0.10462 0.86708 0.0
C2081 C 0.17452 0.12524 0.87754 0.0
C2082 C 0.16389 0.05527 0.87722 0.0
C2083 C 0.18178 0.11042 0.88765 0.0
C2084 C 0.14743 -0.00191 0.88867 0.0
C2085 C 0.11844 0.95941 0.86773 0.0
N2086 N 0.17584 0.07598 0.8873 0.0
N2087 N 0.13729 -0.004 0.86762 0.0
H2088 H 0.0454 0.17677 0.89495 0.0
H2089 H 0.87492 0.03082 0.85864 0.0
H2090 H 0.04693 0.1469 0.85814 0.0
H2091 H 0.86649 0.06199 0.89464 0.0
H2092 H 0.93609 0.08192 0.85736 0.0
H2093 H 0.97881 0.14355 0.89432 0.0
C2094 C 0.03172 0.16379 0.8867 0.0
C2095 C 0.05147 0.16379 0.87667 0.0
C2096 C 0.92083 0.07828 0.86549 0.0
C2097 C 0.97599 0.12611 0.87585 0.0
C2098 C 0.88567 0.04935 0.86614 0.0
C2099 C 0.86542 0.04316 0.87659 0.0
C2100 C 0.93656 0.10024 0.87561 0.0
C2101 C 0.88127 0.06653 0.88634 0.0
C2102 C -0.00618 0.14485 0.88633 0.0
C2103 C 0.03266 0.14684 0.86617 0.0
N2104 N 0.91619 0.09395 0.88568 0.0
N2105 N -0.00395 0.12842 0.86608 0.0
H2106 H 0.84323 0.96033 0.63022 0.0
H2107 H 0.86338 0.81386 0.59304 0.0
H2108 H 0.80084 0.92995 0.59448 0.0
H2109 H 0.89063 0.83778 0.63039 0.0
H2110 H 0.83115 0.84819 0.59389 0.0
H2111 H 0.85122 0.90792 0.63122 0.0
C2112 C 0.83441 0.94172 0.62273 0.0
C2113 C 0.8201 0.94847 0.61245 0.0
C2114 C 0.8436 0.84527 0.60194 0.0
C2115 C 0.83173 0.8898 0.61307 0.0
C2116 C 0.86188 0.82567 0.60145 0.0
C2117 C 0.88029 0.82384 0.61158 0.0
C2118 C 0.84388 0.86282 0.61264 0.0
C2119 C 0.87749 0.83934 0.62229 0.0
C2120 C 0.83941 0.91201 0.62321 0.0
C2121 C 0.81126 0.92497 0.60266 0.0
N2122 N 0.86006 0.8585 0.6225 0.0
N2123 N 0.81758 0.89673 0.60315 0.0
H2124 H 0.16097 0.04307 0.62977 0.0
H2125 H 0.05847 0.86084 0.59198 0.0
H2126 H 0.17015 0.04043 0.59139 0.0
H2127 H 0.03313 0.87636 0.62805 0.0
H2128 H 0.11223 0.92191 0.5925 0.0
H2129 H 0.12915 0.97722 0.63018 0.0
C2130 C 0.1567 0.02847 0.62143 0.0
C2131 C 0.16738 0.04692 0.6105 0.0
C2132 C 0.09545 0.91141 0.6004 0.0
C2133 C 0.13013 0.97163 0.61085 0.0
C2134 C 0.06497 0.87674 0.60011 0.0
C2135 C 0.04228 0.8634 0.61014 0.0
C2136 C 0.10265 0.93272 0.61074 0.0
C2137 C 0.05086 0.88517 0.62033 0.0
C2138 C 0.13851 0.99092 0.62166 0.0
C2139 C 0.16192 0.02695 0.59997 0.0
N2140 N 0.08032 0.91873 0.62037 0.0
N2141 N 0.1428 0.99012 0.60036 0.0
H2142 H 0.12284 0.18498 0.59217 0.0
H2143 H 0.94173 0.11154 0.63039 0.0
H2144 H 0.10512 0.13986 0.62767 0.0
H2145 H 0.94257 0.11926 0.59189 0.0
H2146 H 0.00764 0.14296 0.63039 0.0
H2147 H 0.06222 0.17892 0.59275 0.0
C2148 C 0.10649 0.17473 0.60018 0.0
C2149 C 0.11914 0.16406 0.61007 0.0
C2150 C -0.00649 0.13832 0.62194 0.0
C2151 C 0.05051 0.15672 0.61075 0.0
C2152 C 0.95596 0.1205 0.62194 0.0
C2153 C 0.93695 0.11226 0.61111 0.0
C2154 C 0.01216 0.14723 0.611 0.0
C2155 C 0.95648 0.12495 0.60041 0.0
C2156 C 0.07212 0.17129 0.60051 0.0
C2157 C 0.09683 0.14979 0.62009 0.0
N2158 N -0.00674 0.14118 0.60058 0.0
N2159 N 0.06364 0.14661 0.62019 0.0
H2160 H 0.69756 0.48213 0.46305 0.0
H2161 H 0.83735 0.45565 0.42492 0.0
H2162 H 0.72415 0.52184 0.42691 0.0
H2163 H 0.82399 0.44034 0.46313 0.0
H2164 H 0.80367 0.4886 0.42557 0.0
H2165 H 0.75071 0.47538 0.4637 0.0
C2166 C 0.71553 0.49073 0.45539 0.0
C2167 C 0.7075 0.50396 0.44511 0.0
C2168 C 0.8089 0.47875 0.43384 0.0
C2169 C 0.76699 0.49354 0.44534 0.0
C2170 C 0.82815 0.46008 0.43346 0.0
C2171 C 0.83256 0.44468 0.44395 0.0
C2172 C 0.79427 0.48178 0.44478 0.0
C2173 C 0.82033 0.45111 0.4548 0.0
C2174 C 0.74569 0.48641 0.45568 0.0
C2175 C 0.73015 0.51231 0.4351 0.0
N2176 N 0.80136 0.46874 0.45491 0.0
N2177 N 0.75878 0.50655 0.4354 0.0
H2178 H 0.50717 0.21047 0.46336 0.0
H2179 H 0.53143 0.3782 0.42618 0.0
H2180 H 0.4679 0.19922 0.4272 0.0
H2181 H 0.55122 0.37938 0.46409 0.0
H2182 H 0.49918 0.31159 0.42663 0.0
H2183 H 0.51445 0.27055 0.46433 0.0
C2184 C 0.49887 0.22034 0.45576 0.0
C2185 C 0.48558 0.19955 0.44537 0.0
C2186 C 0.50993 0.3265 0.43488 0.0
C2187 C 0.49648 0.26959 0.446 0.0
C2188 C 0.5282 0.3644 0.43462 0.0
C2189 C 0.54459 0.38403 0.44506 0.0
C2190 C 0.50824 0.30863 0.44566 0.0
C2191 C 0.53966 0.36514 0.45579 0.0
C2192 C 0.50345 0.25489 0.45623 0.0
C2193 C 0.47748 0.21439 0.43546 0.0
N2194 N 0.52233 0.32856 0.45578 0.0
N2195 N 0.48343 0.24882 0.43596 0.0
H2196 H 0.78983 0.26189 0.42664 0.0
H2197 H 0.60749 0.16185 0.4646 0.0
H2198 H 0.77335 0.29219 0.46186 0.0
H2199 H 0.60974 0.14935 0.42634 0.0
H2200 H 0.67337 0.19507 0.46488 0.0
H2201 H 0.72866 0.20826 0.42747 0.0
C2202 C 0.77365 0.25657 0.43466 0.0
C2203 C 0.78677 0.28052 0.44438 0.0
C2204 C 0.65957 0.1847 0.45643 0.0
C2205 C 0.71743 0.22033 0.44532 0.0
C2206 C 0.62201 0.16571 0.45626 0.0
C2207 C 0.6034 0.15366 0.44539 0.0
C2208 C 0.6787 0.19243 0.4456 0.0
C2209 C 0.62331 0.15864 0.43488 0.0
C2210 C 0.73894 0.22618 0.43512 0.0
C2211 C 0.76467 0.27347 0.45441 0.0
N2212 N 0.66013 0.17847 0.43519 0.0
N2213 N 0.73111 0.24402 0.45463 0.0
H2214 H 0.7709 0.49434 0.69146 0.0
H2215 H 0.85603 0.39681 0.72931 0.0
H2216 H 0.78661 0.50765 0.72966 0.0
H2217 H 0.80968 0.36628 0.69404 0.0
H2218 H 0.84757 0.44988 0.7285 0.0
H2219 H 0.8044 0.46198 0.6911 0.0
C2220 C 0.78191 0.49081 0.69976 0.0
C2221 C 0.7754 0.50284 0.71064 0.0
C2222 C 0.84024 0.43205 0.72083 0.0
C2223 C 0.81293 0.46507 0.71036 0.0
C2224 C 0.84507 0.40197 0.72129 0.0
C2225 C 0.83462 0.37811 0.71155 0.0
C2226 C 0.82442 0.43766 0.71062 0.0
C2227 C 0.81945 0.38496 0.70151 0.0
C2228 C 0.80098 0.47232 0.69956 0.0
C2229 C 0.79083 0.49834 0.72112 0.0
N2230 N 0.81483 0.41409 0.7013 0.0
N2231 N 0.8083 0.47898 0.72077 0.0
H2232 H 0.47936 0.27793 0.73035 0.0
H2233 H 0.62174 0.44566 0.69278 0.0
H2234 H 0.49893 0.27592 0.69256 0.0
H2235 H 0.59438 0.45683 0.72903 0.0
H2236 H 0.56919 0.38536 0.69191 0.0
H2237 H 0.51321 0.34453 0.72971 0.0
C2238 C 0.49004 0.29153 0.72189 0.0
C2239 C 0.48719 0.27167 0.71155 0.0
C2240 C 0.57395 0.40105 0.70002 0.0
C2241 C 0.52568 0.3471 0.71073 0.0
C2242 C 0.60374 0.43573 0.70042 0.0
C2243 C 0.6114 0.45655 0.71081 0.0
C2244 C 0.5526 0.38625 0.71031 0.0
C2245 C 0.58869 0.44164 0.72077 0.0
C2246 C 0.50939 0.32943 0.72152 0.0
C2247 C 0.5013 0.29034 0.7008 0.0
N2248 N 0.5604 0.4071 0.72033 0.0
N2249 N 0.52027 0.32693 0.7007 0.0
H2250 H 0.71108 0.20224 0.73096 0.0
H2251 H 0.54228 0.17422 0.69375 0.0
H2252 H 0.71142 0.21968 0.69292 0.0
H2253 H 0.53169 0.13602 0.73002 0.0
H2254 H 0.60245 0.18173 0.69276 0.0
H2255 H 0.64444 0.16883 0.73059 0.0
C2256 C 0.6971 0.19823 0.72252 0.0
C2257 C 0.71645 0.21432 0.71201 0.0
C2258 C 0.58691 0.17089 0.70089 0.0
C2259 C 0.64103 0.17666 0.71149 0.0
C2260 C 0.5523 0.16615 0.70137 0.0
C2261 C 0.53167 0.15312 0.71179 0.0
C2262 C 0.60187 0.16441 0.71116 0.0
C2263 C 0.54673 0.1454 0.72173 0.0
C2264 C 0.65918 0.1793 0.7223 0.0
C2265 C 0.69735 0.20838 0.70127 0.0
N2266 N 0.58124 0.15157 0.72123 0.0
N2267 N 0.66075 0.19044 0.70132 0.0
H2268 H 0.6208 0.17193 0.19301 0.0
H2269 H 0.47887 0.19749 0.23074 0.0
H2270 H 0.59343 0.13345 0.22926 0.0
H2271 H 0.50022 0.22146 0.19312 0.0
H2272 H 0.51181 0.16385 0.22989 0.0
H2273 H 0.56807 0.17936 0.19209 0.0
C2274 C 0.60273 0.16372 0.20063 0.0
C2275 C 0.6105 0.15077 0.21105 0.0
C2276 C 0.50859 0.17587 0.22178 0.0
C2277 C 0.55159 0.16209 0.21051 0.0
C2278 C 0.4898 0.19497 0.22227 0.0
C2279 C 0.48772 0.21289 0.21205 0.0
C2280 C 0.52508 0.17484 0.21099 0.0
C2281 C 0.50205 0.20875 0.20127 0.0
C2282 C 0.57285 0.16848 0.2002 0.0
C2283 C 0.58769 0.14283 0.22098 0.0
N2284 N 0.52045 0.19055 0.20106 0.0
N2285 N 0.55938 0.14906 0.22054 0.0
H2286 H 0.78597 0.2777 0.2303 0.0
H2287 H 0.80706 0.44537 0.19371 0.0
H2288 H 0.76486 0.27679 0.19249 0.0
H2289 H 0.8475 0.45646 0.2297 0.0
H2290 H 0.79981 0.3853 0.19258 0.0
H2291 H 0.81708 0.34426 0.23 0.0
C2292 C 0.78865 0.29156 0.22191 0.0
C2293 C 0.77223 0.27197 0.21146 0.0
C2294 C 0.81102 0.40092 0.20068 0.0
C2295 C 0.80729 0.34734 0.21103 0.0
C2296 C 0.81555 0.43543 0.20124 0.0
C2297 C 0.8292 0.45618 0.21162 0.0
C2298 C 0.81853 0.38625 0.21081 0.0
C2299 C 0.83762 0.44131 0.22145 0.0
C2300 C 0.80628 0.32943 0.22173 0.0
C2301 C 0.77646 0.29096 0.20081 0.0
N2302 N 0.83183 0.40695 0.22086 0.0
N2303 N 0.79317 0.32752 0.2009 0.0
H2304 H 0.70881 0.49736 0.19264 0.0
H2305 H 0.52741 0.39335 0.23081 0.0
H2306 H 0.70682 0.50726 0.23101 0.0
H2307 H 0.5433 0.36653 0.195 0.0
H2308 H 0.5881 0.44764 0.2301 0.0
H2309 H 0.64291 0.46418 0.19239 0.0
C2310 C 0.69434 0.49298 0.20101 0.0
C2311 C 0.71302 0.50425 0.21189 0.0
C2312 C 0.57777 0.43036 0.22229 0.0
C2313 C 0.63772 0.46548 0.21173 0.0
C2314 C 0.54333 0.39958 0.2227 0.0
C2315 C 0.53019 0.37637 0.21279 0.0
C2316 C 0.59904 0.43735 0.21196 0.0
C2317 C 0.55197 0.38463 0.20262 0.0
C2318 C 0.65677 0.474 0.20087 0.0
C2319 C 0.69318 0.4986 0.22246 0.0
N2320 N 0.5853 0.41442 0.20247 0.0
N2321 N 0.65636 0.47875 0.22217 0.0
H2322 H 0.53746 0.15738 0.96375 0.0
H2323 H 0.45974 0.26278 0.92648 0.0
H2324 H 0.52921 0.15189 0.92525 0.0
H2325 H 0.50332 0.28845 0.96221 0.0
H2326 H 0.46676 0.2088 0.92673 0.0
H2327 H 0.50378 0.18961 0.96417 0.0
C2328 C 0.52789 0.16245 0.95538 0.0
C2329 C 0.53661 0.15275 0.94443 0.0
C2330 C 0.47374 0.22574 0.93462 0.0
C2331 C 0.49907 0.1905 0.9448 0.0
C2332 C 0.46972 0.25634 0.93448 0.0
C2333 C 0.47981 0.27911 0.94451 0.0
C2334 C 0.48831 0.21846 0.94481 0.0
C2335 C 0.49377 0.27063 0.95452 0.0
C2336 C 0.50877 0.1809 0.95562 0.0
C2337 C 0.52316 0.1593 0.93385 0.0
N2338 N 0.49758 0.24099 0.95442 0.0
N2339 N 0.50567 0.17866 0.93426 0.0
H2340 H 0.82261 0.38353 0.96428 0.0
H2341 H 0.72068 0.20069 0.92658 0.0
H2342 H 0.83377 0.38109 0.92597 0.0
H2343 H 0.69084 0.21808 0.96175 0.0
H2344 H 0.77412 0.26203 0.92718 0.0
H2345 H 0.78856 0.31768 0.96456 0.0
C2346 C 0.81828 0.36897 0.95593 0.0
C2347 C 0.83021 0.38753 0.94505 0.0
C2348 C 0.7563 0.25195 0.93486 0.0
C2349 C 0.7905 0.3123 0.94525 0.0
C2350 C 0.72601 0.21716 0.93452 0.0
C2351 C 0.70234 0.20421 0.94431 0.0
C2352 C 0.76232 0.27369 0.94501 0.0
C2353 C 0.70938 0.22666 0.95425 0.0
C2354 C 0.79881 0.33143 0.95609 0.0
C2355 C 0.8246 0.36755 0.93452 0.0
N2356 N 0.73876 0.26026 0.95436 0.0
N2357 N 0.80433 0.33077 0.93482 0.0
H2358 H 0.7754 0.48465 0.96353 0.0
H2359 H 0.60573 0.45793 0.92672 0.0
H2360 H 0.78474 0.52286 0.9273 0.0
H2361 H 0.60495 0.43407 0.96428 0.0
H2362 H 0.67235 0.49162 0.92722 0.0
H2363 H 0.71495 0.4764 0.96471 0.0
C2364 C 0.76505 0.49258 0.95596 0.0
C2365 C 0.78538 0.50575 0.94548 0.0
C2366 C 0.65751 0.47961 0.93539 0.0
C2367 C 0.71486 0.49358 0.94634 0.0
C2368 C 0.6196 0.4605 0.9351 0.0
C2369 C 0.60011 0.44261 0.94541 0.0
C2370 C 0.67556 0.48068 0.94607 0.0
C2371 C 0.6191 0.44677 0.95606 0.0
C2372 C 0.73026 0.48737 0.95655 0.0
C2373 C 0.76993 0.51334 0.93563 0.0
N2374 N 0.6557 0.465 0.95608 0.0
N2375 N 0.73527 0.50673 0.93623 0.0
H2376 H 0.3865 0.85174 0.75974 0.0
H2377 H 0.48532 0.76787 0.79762 0.0
H2378 H 0.35564 0.80478 0.79492 0.0
H2379 H 0.50049 0.78574 0.75954 0.0
H2380 H 0.45128 0.79967 0.79794 0.0
H2381 H 0.43971 0.84351 0.76057 0.0
C2382 C 0.39157 0.84061 0.76774 0.0
C2383 C 0.36764 0.83 0.77746 0.0
C2384 C 0.46235 0.79707 0.78951 0.0
C2385 C 0.42734 0.82004 0.7784 0.0
C2386 C 0.48181 0.77898 0.78933 0.0
C2387 C 0.49493 0.77362 0.7785 0.0
C2388 C 0.45523 0.80919 0.77873 0.0
C2389 C 0.49038 0.78912 0.76805 0.0
C2390 C 0.42174 0.83591 0.76821 0.0
C2391 C 0.37437 0.81463 0.78746 0.0
N2392 N 0.47011 0.80564 0.76837 0.0
N2393 N 0.40359 0.81014 0.78769 0.0
H2394 H 0.20372 0.70987 0.79617 0.0
H2395 H 0.13153 0.52862 0.75815 0.0
H2396 H 0.19639 0.70847 0.75766 0.0
H2397 H 0.17601 0.54679 0.79376 0.0
H2398 H 0.13684 0.5889 0.75866 0.0
H2399 H 0.17212 0.64396 0.79627 0.0
C2400 C 0.19476 0.6955 0.78774 0.0
C2401 C 0.20318 0.71436 0.77687 0.0
C2402 C 0.14445 0.57915 0.76647 0.0
C2403 C 0.16806 0.63916 0.77689 0.0
C2404 C 0.14143 0.54497 0.76618 0.0
C2405 C 0.15219 0.53255 0.77611 0.0
C2406 C 0.1587 0.60084 0.77671 0.0
C2407 C 0.166 0.55488 0.78615 0.0
C2408 C 0.17685 0.65795 0.78779 0.0
C2409 C 0.19054 0.69468 0.7662 0.0
N2410 N 0.16881 0.58791 0.7862 0.0
N2411 N 0.17424 0.6579 0.76643 0.0
H2412 H 0.45828 0.59517 0.75944 0.0
H2413 H 0.27404 0.49189 0.79611 0.0
H2414 H 0.4406 0.62013 0.7953 0.0
H2415 H 0.27869 0.48401 0.75773 0.0
H2416 H 0.33987 0.52357 0.79692 0.0
H2417 H 0.39726 0.54132 0.75962 0.0
C2418 C 0.44191 0.58856 0.76746 0.0
C2419 C 0.45462 0.61117 0.77752 0.0
C2420 C 0.32661 0.51452 0.78831 0.0
C2421 C 0.38536 0.55071 0.77774 0.0
C2422 C 0.28908 0.49644 0.78785 0.0
C2423 C 0.27122 0.48618 0.77681 0.0
C2424 C 0.34647 0.52323 0.77762 0.0
C2425 C 0.29172 0.49194 0.7664 0.0
C2426 C 0.40727 0.55804 0.76756 0.0
C2427 C 0.43228 0.60246 0.78757 0.0
N2428 N 0.32854 0.51096 0.76701 0.0
N2429 N 0.39875 0.57295 0.78742 0.0
H2430 H 0.43931 0.82684 0.02573 0.0
H2431 H 0.52223 0.72741 0.06374 0.0
H2432 H 0.45333 0.83894 0.06401 0.0
H2433 H 0.47667 0.69781 0.02833 0.0
H2434 H 0.51398 0.78063 0.063 0.0
H2435 H 0.47247 0.79412 0.02548 0.0
C2436 C 0.44992 0.823 0.03408 0.0
C2437 C 0.44304 0.83481 0.04494 0.0
C2438 C 0.50677 0.76297 0.05529 0.0
C2439 C 0.4801 0.79656 0.04478 0.0
C2440 C 0.51148 0.7328 0.0557 0.0
C2441 C 0.50123 0.70917 0.0459 0.0
C2442 C 0.49128 0.76891 0.04506 0.0
C2443 C 0.48631 0.7163 0.03585 0.0
C2444 C 0.46878 0.80429 0.03394 0.0
C2445 C 0.4579 0.82986 0.05548 0.0
N2446 N 0.48181 0.74552 0.03568 0.0
N2447 N 0.47515 0.81027 0.05519 0.0
H2448 H 0.15991 0.6092 0.02487 0.0
H2449 H 0.26101 0.79062 0.06326 0.0
H2450 H 0.14909 0.61028 0.06323 0.0
H2451 H 0.28993 0.77496 0.02772 0.0
H2452 H 0.20754 0.72932 0.06248 0.0
H2453 H 0.1928 0.67508 0.02479 0.0
C2454 C 0.16407 0.62347 0.03327 0.0
C2455 C 0.15261 0.60456 0.0441 0.0
C2456 C 0.22513 0.7398 0.05475 0.0
C2457 C 0.19103 0.67981 0.04413 0.0
C2458 C 0.25544 0.77457 0.05519 0.0
C2459 C 0.27892 0.78797 0.04536 0.0
C2460 C 0.21889 0.71853 0.04446 0.0
C2461 C 0.27156 0.76606 0.03527 0.0
C2462 C 0.18286 0.66102 0.03323 0.0
C2463 C 0.15793 0.62412 0.05471 0.0
N2464 N 0.24219 0.73246 0.03507 0.0
N2465 N 0.17761 0.66094 0.05452 0.0
H2466 H 0.37649 0.53353 0.06447 0.0
H2467 H 0.21125 0.50884 0.02597 0.0
H2468 H 0.37962 0.55078 0.02635 0.0
H2469 H 0.1973 0.46828 0.06202 0.0
H2470 H 0.27125 0.51573 0.02546 0.0
H2471 H 0.30988 0.50088 0.0636 0.0
C2472 C 0.36312 0.52959 0.0559 0.0
C2473 C 0.38326 0.54543 0.0455 0.0
C2474 C 0.25499 0.50449 0.03343 0.0
C2475 C 0.3079 0.50871 0.04443 0.0
C2476 C 0.22049 0.50013 0.03364 0.0
C2477 C 0.19898 0.48661 0.04386 0.0
C2478 C 0.26891 0.49708 0.04378 0.0
C2479 C 0.21304 0.47804 0.05388 0.0
C2480 C 0.32522 0.51111 0.0554 0.0
C2481 C 0.36493 0.53965 0.03461 0.0
N2482 N 0.24743 0.4838 0.05365 0.0
N2483 N 0.32834 0.52218 0.03438 0.0
H2484 H 0.16907 0.55944 0.52416 0.0
H2485 H 0.25914 0.46785 0.56262 0.0
H2486 H 0.14848 0.53734 0.5619 0.0
H2487 H 0.29202 0.51306 0.5273 0.0
H2488 H 0.20739 0.4783 0.56139 0.0
H2489 H 0.20122 0.52578 0.52393 0.0
C2490 C 0.17106 0.5471 0.53239 0.0
C2491 C 0.15689 0.55173 0.54312 0.0
C2492 C 0.22542 0.48499 0.5538 0.0
C2493 C 0.1944 0.51387 0.543 0.0
C2494 C 0.25475 0.47899 0.5545 0.0
C2495 C 0.27893 0.48859 0.54488 0.0
C2496 C 0.22092 0.50121 0.54349 0.0
C2497 C 0.27308 0.50399 0.5347 0.0
C2498 C 0.18942 0.52789 0.53226 0.0
C2499 C 0.15945 0.53458 0.55348 0.0
N2500 N 0.24471 0.50984 0.53428 0.0
N2501 N 0.17866 0.51694 0.55323 0.0
H2502 H 0.4414 0.60916 0.52683 0.0
H2503 H 0.51644 0.79062 0.56499 0.0
H2504 H 0.44975 0.61001 0.56532 0.0
H2505 H 0.46976 0.77257 0.52971 0.0
H2506 H 0.50981 0.72977 0.56441 0.0
H2507 H 0.47274 0.67505 0.52685 0.0
C2508 C 0.45049 0.62339 0.53529 0.0
C2509 C 0.44245 0.60439 0.54611 0.0
C2510 C 0.50193 0.73963 0.5567 0.0
C2511 C 0.47731 0.67956 0.54624 0.0
C2512 C 0.50569 0.77412 0.55703 0.0
C2513 C 0.49481 0.78676 0.54719 0.0
C2514 C 0.48684 0.7179 0.54651 0.0
C2515 C 0.47987 0.76427 0.53725 0.0
C2516 C 0.46825 0.66093 0.5353 0.0
C2517 C 0.45529 0.62392 0.55681 0.0
N2518 N 0.47642 0.73098 0.53714 0.0
N2519 N 0.47148 0.66069 0.55664 0.0
H2520 H 0.3783 0.83639 0.52711 0.0
H2521 H 0.19242 0.72952 0.56268 0.0
H2522 H 0.37218 0.83849 0.5656 0.0
H2523 H 0.21254 0.7071 0.52678 0.0
H2524 H 0.25327 0.78362 0.56302 0.0
H2525 H 0.31249 0.80562 0.52603 0.0
C2526 C 0.36295 0.83088 0.53533 0.0
C2527 C 0.38035 0.83915 0.54647 0.0
C2528 C 0.2438 0.76742 0.55495 0.0
C2529 C 0.30517 0.80308 0.54534 0.0
C2530 C 0.20926 0.73676 0.55475 0.0
C2531 C 0.1973 0.71477 0.54453 0.0
C2532 C 0.26633 0.77557 0.5449 0.0
C2533 C 0.22025 0.72429 0.53462 0.0
C2534 C 0.32544 0.8133 0.53472 0.0
C2535 C 0.35949 0.83214 0.55686 0.0
N2536 N 0.25366 0.75395 0.53505 0.0
N2537 N 0.3227 0.81359 0.55608 0.0
H2538 H 0.21021 0.49412 0.29699 0.0
H2539 H 0.12944 0.59599 0.25931 0.0
H2540 H 0.1983 0.48468 0.25861 0.0
H2541 H 0.17415 0.62389 0.29486 0.0
H2542 H 0.13685 0.54226 0.25988 0.0
H2543 H 0.1766 0.52641 0.29736 0.0
C2544 C 0.19993 0.49842 0.28864 0.0
C2545 C 0.20756 0.48756 0.27773 0.0
C2546 C 0.14402 0.55965 0.26766 0.0
C2547 C 0.17006 0.52532 0.27803 0.0
C2548 C 0.13979 0.59011 0.26734 0.0
C2549 C 0.1501 0.61342 0.27723 0.0
C2550 C 0.15906 0.5531 0.27788 0.0
C2551 C 0.16449 0.60565 0.28728 0.0
C2552 C 0.18082 0.51688 0.28885 0.0
C2553 C 0.19314 0.49305 0.26719 0.0
N2554 N 0.16852 0.57616 0.28735 0.0
N2555 N 0.17568 0.51243 0.26755 0.0
H2556 H 0.49374 0.71424 0.29708 0.0
H2557 H 0.39002 0.53159 0.2594 0.0
H2558 H 0.50259 0.71203 0.25867 0.0
H2559 H 0.36178 0.54936 0.29478 0.0
H2560 H 0.44388 0.59269 0.25991 0.0
H2561 H 0.4604 0.64835 0.29735 0.0
C2562 C 0.48911 0.69971 0.28871 0.0
C2563 C 0.50012 0.71831 0.27781 0.0
C2564 C 0.42634 0.5827 0.26766 0.0
C2565 C 0.46115 0.64307 0.27801 0.0
C2566 C 0.39581 0.54806 0.26738 0.0
C2567 C 0.37244 0.5353 0.27725 0.0
C2568 C 0.43291 0.60448 0.27783 0.0
C2569 C 0.38007 0.55775 0.28721 0.0
C2570 C 0.47004 0.66216 0.28886 0.0
C2571 C 0.49414 0.69843 0.26723 0.0
N2572 N 0.40967 0.59121 0.28726 0.0
N2573 N 0.47419 0.66163 0.26754 0.0
H2574 H 0.45625 0.85612 0.25953 0.0
H2575 H 0.27271 0.77408 0.29682 0.0
H2576 H 0.43926 0.8113 0.29506 0.0
H2577 H 0.2759 0.78735 0.25849 0.0
H2578 H 0.33857 0.80712 0.29731 0.0
H2579 H 0.39477 0.84791 0.25994 0.0
C2580 C 0.43988 0.84554 0.26752 0.0
C2581 C 0.45295 0.83548 0.27745 0.0
C2582 C 0.32499 0.80329 0.28879 0.0
C2583 C 0.38325 0.82556 0.27793 0.0
C2584 C 0.28744 0.7845 0.28851 0.0
C2585 C 0.26911 0.77745 0.27757 0.0
C2586 C 0.34441 0.81439 0.27801 0.0
C2587 C 0.28927 0.79206 0.26708 0.0
C2588 C 0.40499 0.84085 0.26775 0.0
C2589 C 0.43061 0.82078 0.28744 0.0
N2590 N 0.32609 0.80926 0.26751 0.0
N2591 N 0.39689 0.81629 0.28743 0.0
loop_
_geom_bond_atom_site_label_1
_geom_bond_atom_site_label_2
_geom_bond_distance
_geom_bond_site_symmetry_2
_ccdc_geom_bond_type
Mn0 O5 2.095 . S
Mn0 O15 2.162 . S
Mn0 O16 2.297 . S
Mn0 O24 2.385 . S
Mn0 O25 2.209 . S
Mn0 O26 2.094 . S
Mn1 O6 2.121 . S
Mn1 N8 2.257 1_545 S
Mn1 N17 2.282 1_545 S
Mn1 O25 2.215 . S
Mn1 O27 2.117 . S
C2 O24 1.234 . S
C2 O25 1.283 . S
C3 O15 1.281 . S
C3 O16 1.236 . S
C4 O26 1.240 . S
C4 O27 1.264 . S
O5 Mn0 2.095 . S
O5 C14 1.250 . S
O6 Mn1 2.121 . S
O6 C14 1.258 . S
C7 N8 1.326 . S
C7 C11 1.460 . S
C7 H13 0.929 1_565 S
N8 Mn1 2.257 1_565 S
N8 C7 1.326 . S
N8 C12 1.362 . S
C9 C10 1.258 . S
C9 C12 1.431 . S
C9 C29 1.449 . S
C10 C9 1.258 . S
C10 C11 1.477 . S
C10 H30 0.931 . S
C11 C7 1.460 . S
C11 C10 1.477 . S
C11 H31 0.930 . S
C12 N8 1.362 . S
C12 C9 1.431 . S
C12 C22 1.476 . S
H13 C7 0.929 1_545 S
C14 O5 1.250 . S
C14 O6 1.258 . S
O15 Mn0 2.162 . S
O15 C3 1.281 . S
O16 Mn0 2.297 . S
O16 C3 1.236 . S
N17 Mn1 2.282 1_565 S
N17 C18 1.328 . S
N17 C22 1.318 . S
C18 N17 1.328 . S
C18 C19 1.457 . S
C18 H23 0.929 . S
C19 C18 1.457 . S
C19 C20 1.291 . S
C19 H32 0.931 . S
C20 C19 1.291 . S
C20 C21 1.373 . S
C20 H33 0.929 . S
C21 C20 1.373 . S
C21 C22 1.396 . S
C21 C28 1.403 . S
C22 C12 1.476 . S
C22 N17 1.318 . S
C22 C21 1.396 . S
H23 C18 0.929 . S
O24 Mn0 2.385 . S
O24 C2 1.234 . S
O25 Mn0 2.209 . S
O25 Mn1 2.215 . S
O25 C2 1.283 . S
O26 Mn0 2.094 . S
O26 C4 1.240 . S
O27 Mn1 2.117 . S
O27 C4 1.264 . S
C28 C21 1.403 . S
C28 C29 1.399 . S
C28 H34 0.929 . S
C29 C9 1.449 . S
C29 C28 1.399 . S
C29 H35 0.930 . S
H30 C10 0.931 . S
H31 C11 0.930 . S
H32 C19 0.931 . S
H33 C20 0.929 . S
H34 C28 0.929 . S
H35 C29 0.930 . S
Mn36 O41 2.095 . S
Mn36 O51 2.162 . S
Mn36 O52 2.297 . S
Mn36 O60 2.385 . S
Mn36 O61 2.209 . S
Mn36 O62 2.094 . S
Mn37 O42 2.121 . S
Mn37 N44 2.257 1_655 S
Mn37 N53 2.282 1_655 S
Mn37 O61 2.215 . S
Mn37 O63 2.117 . S
C38 O60 1.234 . S
C38 O61 1.283 . S
C39 O51 1.281 . S
C39 O52 1.236 . S
C40 O62 1.240 . S
C40 O63 1.264 . S
O41 Mn36 2.095 . S
O41 C50 1.250 . S
O42 Mn37 2.121 . S
O42 C50 1.258 . S
C43 N44 1.326 . S
C43 C47 1.460 . S
C43 H49 0.929 1_455 S
N44 Mn37 2.257 1_455 S
N44 C43 1.326 . S
N44 C48 1.362 . S
C45 C46 1.258 . S
C45 C48 1.431 . S
C45 C65 1.449 . S
C46 C45 1.258 . S
C46 C47 1.477 . S
C46 H66 0.931 . S
C47 C43 1.460 . S
C47 C46 1.477 . S
C47 H67 0.930 . S
C48 N44 1.362 . S
C48 C45 1.431 . S
C48 C58 1.476 . S
H49 C43 0.929 1_655 S
C50 O41 1.250 . S
C50 O42 1.258 . S
O51 Mn36 2.162 . S
O51 C39 1.281 . S
O52 Mn36 2.297 . S
O52 C39 1.236 . S
N53 Mn37 2.282 1_455 S
N53 C54 1.328 . S
N53 C58 1.318 . S
C54 N53 1.328 . S
C54 C55 1.457 . S
C54 H59 0.929 . S
C55 C54 1.457 . S
C55 C56 1.291 . S
C55 H68 0.931 . S
C56 C55 1.291 . S
C56 C57 1.373 . S
C56 H69 0.929 . S
C57 C56 1.373 . S
C57 C58 1.396 . S
C57 C64 1.403 . S
C58 C48 1.476 . S
C58 N53 1.318 . S
C58 C57 1.396 . S
H59 C54 0.929 . S
O60 Mn36 2.385 . S
O60 C38 1.234 . S
O61 Mn36 2.209 . S
O61 Mn37 2.215 . S
O61 C38 1.283 . S
O62 Mn36 2.094 . S
O62 C40 1.240 . S
O63 Mn37 2.117 . S
O63 C40 1.264 . S
C64 C57 1.403 . S
C64 C65 1.399 . S
C64 H70 0.929 . S
C65 C45 1.449 . S
C65 C64 1.399 . S
C65 H71 0.930 . S
H66 C46 0.931 . S
H67 C47 0.930 . S
H68 C55 0.931 . S
H69 C56 0.929 . S
H70 C64 0.929 . S
H71 C65 0.930 . S
Mn72 O77 2.095 . S
Mn72 O87 2.162 . S
Mn72 O88 2.297 . S
Mn72 O96 2.385 . S
Mn72 O97 2.209 . S
Mn72 O98 2.094 . S
Mn73 O78 2.121 . S
Mn73 N80 2.257 . S
Mn73 N89 2.282 . S
Mn73 O97 2.215 . S
Mn73 O99 2.117 . S
C74 O96 1.234 . S
C74 O97 1.283 . S
C75 O87 1.281 . S
C75 O88 1.236 . S
C76 O98 1.240 . S
C76 O99 1.264 . S
O77 Mn72 2.095 . S
O77 C86 1.250 . S
O78 Mn73 2.121 . S
O78 C86 1.258 . S
C79 N80 1.326 . S
C79 C83 1.460 . S
C79 H85 0.929 . S
N80 Mn73 2.257 . S
N80 C79 1.326 . S
N80 C84 1.362 . S
C81 C82 1.258 . S
C81 C84 1.431 . S
C81 C101 1.449 . S
C82 C81 1.258 . S
C82 C83 1.477 . S
C82 H102 0.931 . S
C83 C79 1.460 . S
C83 C82 1.477 . S
C83 H103 0.930 . S
C84 N80 1.362 . S
C84 C81 1.431 . S
C84 C94 1.476 . S
H85 C79 0.929 . S
C86 O77 1.250 . S
C86 O78 1.258 . S
O87 Mn72 2.162 . S
O87 C75 1.281 . S
O88 Mn72 2.297 . S
O88 C75 1.236 . S
N89 Mn73 2.282 . S
N89 C90 1.328 . S
N89 C94 1.318 . S
C90 N89 1.328 . S
C90 C91 1.457 . S
C90 H95 0.929 . S
C91 C90 1.457 . S
C91 C92 1.291 . S
C91 H104 0.931 . S
C92 C91 1.291 . S
C92 C93 1.373 . S
C92 H105 0.929 . S
C93 C92 1.373 . S
C93 C94 1.396 . S
C93 C100 1.403 . S
C94 C84 1.476 . S
C94 N89 1.318 . S
C94 C93 1.396 . S
H95 C90 0.929 . S
O96 Mn72 2.385 . S
O96 C74 1.234 . S
O97 Mn72 2.209 . S
O97 Mn73 2.215 . S
O97 C74 1.283 . S
O98 Mn72 2.094 . S
O98 C76 1.240 . S
O99 Mn73 2.117 . S
O99 C76 1.264 . S
C100 C93 1.403 . S
C100 C101 1.399 . S
C100 H106 0.929 . S
C101 C81 1.449 . S
C101 C100 1.399 . S
C101 H107 0.930 . S
H102 C82 0.931 . S
H103 C83 0.930 . S
H104 C91 0.931 . S
H105 C92 0.929 . S
H106 C100 0.929 . S
H107 C101 0.930 . S
Mn108 O113 2.095 . S
Mn108 O123 2.162 . S
Mn108 O124 2.297 . S
Mn108 O132 2.385 . S
Mn108 O133 2.209 . S
Mn108 O134 2.094 . S
Mn109 O114 2.121 . S
Mn109 N116 2.257 1_455 S
Mn109 N125 2.282 1_455 S
Mn109 O133 2.215 . S
Mn109 O135 2.117 . S
C110 O132 1.234 . S
C110 O133 1.283 . S
C111 O123 1.281 . S
C111 O124 1.236 . S
C112 O134 1.240 . S
C112 O135 1.264 . S
O113 Mn108 2.095 . S
O113 C122 1.250 . S
O114 Mn109 2.121 . S
O114 C122 1.258 . S
C115 N116 1.326 . S
C115 C119 1.460 . S
C115 H121 0.929 1_655 S
N116 Mn109 2.257 1_655 S
N116 C115 1.326 . S
N116 C120 1.362 . S
C117 C118 1.258 . S
C117 C120 1.431 . S
C117 C137 1.449 . S
C118 C117 1.258 . S
C118 C119 1.477 . S
C118 H138 0.931 . S
C119 C115 1.460 . S
C119 C118 1.477 . S
C119 H139 0.930 . S
C120 N116 1.362 . S
C120 C117 1.431 . S
C120 C130 1.476 . S
H121 C115 0.929 1_455 S
C122 O113 1.250 . S
C122 O114 1.258 . S
O123 Mn108 2.162 . S
O123 C111 1.281 . S
O124 Mn108 2.297 . S
O124 C111 1.236 . S
N125 Mn109 2.282 1_655 S
N125 C126 1.328 . S
N125 C130 1.318 . S
C126 N125 1.328 . S
C126 C127 1.457 . S
C126 H131 0.929 . S
C127 C126 1.457 . S
C127 C128 1.291 . S
C127 H140 0.931 . S
C128 C127 1.291 . S
C128 C129 1.373 . S
C128 H141 0.929 . S
C129 C128 1.373 . S
C129 C130 1.396 . S
C129 C136 1.403 . S
C130 C120 1.476 . S
C130 N125 1.318 . S
C130 C129 1.396 . S
H131 C126 0.929 . S
O132 Mn108 2.385 . S
O132 C110 1.234 . S
O133 Mn108 2.209 . S
O133 Mn109 2.215 . S
O133 C110 1.283 . S
O134 Mn108 2.094 . S
O134 C112 1.240 . S
O135 Mn109 2.117 . S
O135 C112 1.264 . S
C136 C129 1.403 . S
C136 C137 1.399 . S
C136 H142 0.929 . S
C137 C117 1.449 . S
C137 C136 1.399 . S
C137 H143 0.930 . S
H138 C118 0.931 . S
H139 C119 0.930 . S
H140 C127 0.931 . S
H141 C128 0.929 . S
H142 C136 0.929 . S
H143 C137 0.930 . S
Mn144 O149 2.095 . S
Mn144 O159 2.162 . S
Mn144 O160 2.297 . S
Mn144 O168 2.385 . S
Mn144 O169 2.209 . S
Mn144 O170 2.094 . S
Mn145 O150 2.121 . S
Mn145 N152 2.257 . S
Mn145 N161 2.282 . S
Mn145 O169 2.215 . S
Mn145 O171 2.117 . S
C146 O168 1.234 . S
C146 O169 1.283 . S
C147 O159 1.281 . S
C147 O160 1.236 . S
C148 O170 1.240 . S
C148 O171 1.264 . S
O149 Mn144 2.095 . S
O149 C158 1.250 . S
O150 Mn145 2.121 . S
O150 C158 1.258 . S
C151 N152 1.326 . S
C151 C155 1.460 . S
C151 H157 0.929 . S
N152 Mn145 2.257 . S
N152 C151 1.326 . S
N152 C156 1.362 . S
C153 C154 1.258 . S
C153 C156 1.431 . S
C153 C173 1.449 . S
C154 C153 1.258 . S
C154 C155 1.477 . S
C154 H174 0.931 . S
C155 C151 1.460 . S
C155 C154 1.477 . S
C155 H175 0.930 . S
C156 N152 1.362 . S
C156 C153 1.431 . S
C156 C166 1.476 . S
H157 C151 0.929 . S
C158 O149 1.250 . S
C158 O150 1.258 . S
O159 Mn144 2.162 . S
O159 C147 1.281 . S
O160 Mn144 2.297 . S
O160 C147 1.236 . S
N161 Mn145 2.282 . S
N161 C162 1.328 . S
N161 C166 1.318 . S
C162 N161 1.328 . S
C162 C163 1.457 . S
C162 H167 0.929 . S
C163 C162 1.457 . S
C163 C164 1.291 . S
C163 H176 0.931 . S
C164 C163 1.291 . S
C164 C165 1.373 . S
C164 H177 0.929 . S
C165 C164 1.373 . S
C165 C166 1.396 . S
C165 C172 1.403 . S
C166 C156 1.476 . S
C166 N161 1.318 . S
C166 C165 1.396 . S
H167 C162 0.929 . S
O168 Mn144 2.385 . S
O168 C146 1.234 . S
O169 Mn144 2.209 . S
O169 Mn145 2.215 . S
O169 C146 1.283 . S
O170 Mn144 2.094 . S
O170 C148 1.240 . S
O171 Mn145 2.117 . S
O171 C148 1.264 . S
C172 C165 1.403 . S
C172 C173 1.399 . S
C172 H178 0.929 . S
C173 C153 1.449 . S
C173 C172 1.399 . S
C173 H179 0.930 . S
H174 C154 0.931 . S
H175 C155 0.930 . S
H176 C163 0.931 . S
H177 C164 0.929 . S
H178 C172 0.929 . S
H179 C173 0.930 . S
Mn180 O185 2.095 . S
Mn180 O195 2.162 . S
Mn180 O196 2.297 . S
Mn180 O204 2.385 . S
Mn180 O205 2.209 . S
Mn180 O206 2.094 . S
Mn181 O186 2.121 . S
Mn181 N188 2.257 1_565 S
Mn181 N197 2.282 1_565 S
Mn181 O205 2.215 . S
Mn181 O207 2.117 . S
C182 O204 1.234 . S
C182 O205 1.283 . S
C183 O195 1.281 . S
C183 O196 1.236 . S
C184 O206 1.240 . S
C184 O207 1.264 . S
O185 Mn180 2.095 . S
O185 C194 1.250 . S
O186 Mn181 2.121 . S
O186 C194 1.258 . S
C187 N188 1.326 . S
C187 C191 1.460 . S
C187 H193 0.929 1_545 S
N188 Mn181 2.257 1_545 S
N188 C187 1.326 . S
N188 C192 1.362 . S
C189 C190 1.258 . S
C189 C192 1.431 . S
C189 C209 1.449 . S
C190 C189 1.258 . S
C190 C191 1.477 . S
C190 H210 0.931 . S
C191 C187 1.460 . S
C191 C190 1.477 . S
C191 H211 0.930 . S
C192 N188 1.362 . S
C192 C189 1.431 . S
C192 C202 1.476 . S
H193 C187 0.929 1_565 S
C194 O185 1.250 . S
C194 O186 1.258 . S
O195 Mn180 2.162 . S
O195 C183 1.281 . S
O196 Mn180 2.297 . S
O196 C183 1.236 . S
N197 Mn181 2.282 1_545 S
N197 C198 1.328 . S
N197 C202 1.318 . S
C198 N197 1.328 . S
C198 C199 1.457 . S
C198 H203 0.929 . S
C199 C198 1.457 . S
C199 C200 1.291 . S
C199 H212 0.931 . S
C200 C199 1.291 . S
C200 C201 1.373 . S
C200 H213 0.929 . S
C201 C200 1.373 . S
C201 C202 1.396 . S
C201 C208 1.403 . S
C202 C192 1.476 . S
C202 N197 1.318 . S
C202 C201 1.396 . S
H203 C198 0.929 . S
O204 Mn180 2.385 . S
O204 C182 1.234 . S
O205 Mn180 2.209 . S
O205 Mn181 2.215 . S
O205 C182 1.283 . S
O206 Mn180 2.094 . S
O206 C184 1.240 . S
O207 Mn181 2.117 . S
O207 C184 1.264 . S
C208 C201 1.403 . S
C208 C209 1.399 . S
C208 H214 0.929 . S
C209 C189 1.449 . S
C209 C208 1.399 . S
C209 H215 0.930 . S
H210 C190 0.931 . S
H211 C191 0.930 . S
H212 C199 0.931 . S
H213 C200 0.929 . S
H214 C208 0.929 . S
H215 C209 0.930 . S
Mn216 O221 2.095 . S
Mn216 O231 2.162 . S
Mn216 O232 2.297 . S
Mn216 O240 2.385 . S
Mn216 O241 2.209 . S
Mn216 O242 2.094 . S
Mn217 O222 2.121 . S
Mn217 N224 2.257 1_565 S
Mn217 N233 2.282 1_565 S
Mn217 O241 2.215 . S
Mn217 O243 2.117 . S
C218 O240 1.234 . S
C218 O241 1.283 . S
C219 O231 1.281 . S
C219 O232 1.236 . S
C220 O242 1.240 . S
C220 O243 1.264 . S
O221 Mn216 2.095 . S
O221 C230 1.250 . S
O222 Mn217 2.121 . S
O222 C230 1.258 . S
C223 N224 1.326 . S
C223 C227 1.460 . S
C223 H229 0.929 1_545 S
N224 Mn217 2.257 1_545 S
N224 C223 1.326 . S
N224 C228 1.362 . S
C225 C226 1.258 . S
C225 C228 1.431 . S
C225 C245 1.449 . S
C226 C225 1.258 . S
C226 C227 1.477 . S
C226 H246 0.931 . S
C227 C223 1.460 . S
C227 C226 1.477 . S
C227 H247 0.930 . S
C228 N224 1.362 . S
C228 C225 1.431 . S
C228 C238 1.476 . S
H229 C223 0.929 1_565 S
C230 O221 1.250 . S
C230 O222 1.258 . S
O231 Mn216 2.162 . S
O231 C219 1.281 . S
O232 Mn216 2.297 . S
O232 C219 1.236 . S
N233 Mn217 2.282 1_545 S
N233 C234 1.328 . S
N233 C238 1.318 . S
C234 N233 1.328 . S
C234 C235 1.457 . S
C234 H239 0.929 . S
C235 C234 1.457 . S
C235 C236 1.291 . S
C235 H248 0.931 . S
C236 C235 1.291 . S
C236 C237 1.373 . S
C236 H249 0.929 . S
C237 C236 1.373 . S
C237 C238 1.396 . S
C237 C244 1.403 . S
C238 C228 1.476 . S
C238 N233 1.318 . S
C238 C237 1.396 . S
H239 C234 0.929 . S
O240 Mn216 2.385 . S
O240 C218 1.234 . S
O241 Mn216 2.209 . S
O241 Mn217 2.215 . S
O241 C218 1.283 . S
O242 Mn216 2.094 . S
O242 C220 1.240 . S
O243 Mn217 2.117 . S
O243 C220 1.264 . S
C244 C237 1.403 . S
C244 C245 1.399 . S
C244 H250 0.929 . S
C245 C225 1.449 . S
C245 C244 1.399 . S
C245 H251 0.930 . S
H246 C226 0.931 . S
H247 C227 0.930 . S
H248 C235 0.931 . S
H249 C236 0.929 . S
H250 C244 0.929 . S
H251 C245 0.930 . S
Mn252 O257 2.095 . S
Mn252 O267 2.162 . S
Mn252 O268 2.297 . S
Mn252 O276 2.385 . S
Mn252 O277 2.209 . S
Mn252 O278 2.094 . S
Mn253 O258 2.121 . S
Mn253 N260 2.257 1_455 S
Mn253 N269 2.282 1_455 S
Mn253 O277 2.215 . S
Mn253 O279 2.117 . S
C254 O276 1.234 . S
C254 O277 1.283 . S
C255 O267 1.281 . S
C255 O268 1.236 . S
C256 O278 1.240 . S
C256 O279 1.264 . S
O257 Mn252 2.095 . S
O257 C266 1.250 . S
O258 Mn253 2.121 . S
O258 C266 1.258 . S
C259 N260 1.326 . S
C259 C263 1.460 . S
C259 H265 0.929 1_655 S
N260 Mn253 2.257 1_655 S
N260 C259 1.326 . S
N260 C264 1.362 . S
C261 C262 1.258 . S
C261 C264 1.431 . S
C261 C281 1.449 . S
C262 C261 1.258 . S
C262 C263 1.477 . S
C262 H282 0.931 . S
C263 C259 1.460 . S
C263 C262 1.477 . S
C263 H283 0.930 . S
C264 N260 1.362 . S
C264 C261 1.431 . S
C264 C274 1.476 . S
H265 C259 0.929 1_455 S
C266 O257 1.250 . S
C266 O258 1.258 . S
O267 Mn252 2.162 . S
O267 C255 1.281 . S
O268 Mn252 2.297 . S
O268 C255 1.236 . S
N269 Mn253 2.282 1_655 S
N269 C270 1.328 . S
N269 C274 1.318 . S
C270 N269 1.328 . S
C270 C271 1.457 . S
C270 H275 0.929 . S
C271 C270 1.457 . S
C271 C272 1.291 . S
C271 H284 0.931 . S
C272 C271 1.291 . S
C272 C273 1.373 . S
C272 H285 0.929 . S
C273 C272 1.373 . S
C273 C274 1.396 . S
C273 C280 1.403 . S
C274 C264 1.476 . S
C274 N269 1.318 . S
C274 C273 1.396 . S
H275 C270 0.929 . S
O276 Mn252 2.385 . S
O276 C254 1.234 . S
O277 Mn252 2.209 . S
O277 Mn253 2.215 . S
O277 C254 1.283 . S
O278 Mn252 2.094 . S
O278 C256 1.240 . S
O279 Mn253 2.117 . S
O279 C256 1.264 . S
C280 C273 1.403 . S
C280 C281 1.399 . S
C280 H286 0.929 . S
C281 C261 1.449 . S
C281 C280 1.399 . S
C281 H287 0.930 . S
H282 C262 0.931 . S
H283 C263 0.930 . S
H284 C271 0.931 . S
H285 C272 0.929 . S
H286 C280 0.929 . S
H287 C281 0.930 . S
Mn288 O293 2.095 . S
Mn288 O303 2.162 . S
Mn288 O304 2.297 . S
Mn288 O312 2.385 . S
Mn288 O313 2.209 . S
Mn288 O314 2.094 . S
Mn289 O294 2.121 . S
Mn289 N296 2.257 . S
Mn289 N305 2.282 . S
Mn289 O313 2.215 . S
Mn289 O315 2.117 . S
C290 O312 1.234 . S
C290 O313 1.283 . S
C291 O303 1.281 . S
C291 O304 1.236 . S
C292 O314 1.240 . S
C292 O315 1.264 . S
O293 Mn288 2.095 . S
O293 C302 1.250 . S
O294 Mn289 2.121 . S
O294 C302 1.258 . S
C295 N296 1.326 . S
C295 C299 1.460 . S
C295 H301 0.929 . S
N296 Mn289 2.257 . S
N296 C295 1.326 . S
N296 C300 1.362 . S
C297 C298 1.258 . S
C297 C300 1.431 . S
C297 C317 1.449 . S
C298 C297 1.258 . S
C298 C299 1.477 . S
C298 H318 0.931 . S
C299 C295 1.460 . S
C299 C298 1.477 . S
C299 H319 0.930 . S
C300 N296 1.362 . S
C300 C297 1.431 . S
C300 C310 1.476 . S
H301 C295 0.929 . S
C302 O293 1.250 . S
C302 O294 1.258 . S
O303 Mn288 2.162 . S
O303 C291 1.281 . S
O304 Mn288 2.297 . S
O304 C291 1.236 . S
N305 Mn289 2.282 . S
N305 C306 1.328 . S
N305 C310 1.318 . S
C306 N305 1.328 . S
C306 C307 1.457 . S
C306 H311 0.929 . S
C307 C306 1.457 . S
C307 C308 1.291 . S
C307 H320 0.931 . S
C308 C307 1.291 . S
C308 C309 1.373 . S
C308 H321 0.929 . S
C309 C308 1.373 . S
C309 C310 1.396 . S
C309 C316 1.403 . S
C310 C300 1.476 . S
C310 N305 1.318 . S
C310 C309 1.396 . S
H311 C306 0.929 . S
O312 Mn288 2.385 . S
O312 C290 1.234 . S
O313 Mn288 2.209 . S
O313 Mn289 2.215 . S
O313 C290 1.283 . S
O314 Mn288 2.094 . S
O314 C292 1.240 . S
O315 Mn289 2.117 . S
O315 C292 1.264 . S
C316 C309 1.403 . S
C316 C317 1.399 . S
C316 H322 0.929 . S
C317 C297 1.449 . S
C317 C316 1.399 . S
C317 H323 0.930 . S
H318 C298 0.931 . S
H319 C299 0.930 . S
H320 C307 0.931 . S
H321 C308 0.929 . S
H322 C316 0.929 . S
H323 C317 0.930 . S
Mn324 O329 2.095 . S
Mn324 O339 2.162 . S
Mn324 O340 2.297 . S
Mn324 O348 2.385 . S
Mn324 O349 2.209 . S
Mn324 O350 2.094 . S
Mn325 O330 2.121 . S
Mn325 N332 2.257 1_655 S
Mn325 N341 2.282 1_655 S
Mn325 O349 2.215 . S
Mn325 O351 2.117 . S
C326 O348 1.234 . S
C326 O349 1.283 . S
C327 O339 1.281 . S
C327 O340 1.236 . S
C328 O350 1.240 . S
C328 O351 1.264 . S
O329 Mn324 2.095 . S
O329 C338 1.250 . S
O330 Mn325 2.121 . S
O330 C338 1.258 . S
C331 N332 1.326 . S
C331 C335 1.460 . S
C331 H337 0.929 1_455 S
N332 Mn325 2.257 1_455 S
N332 C331 1.326 . S
N332 C336 1.362 . S
C333 C334 1.258 . S
C333 C336 1.431 . S
C333 C353 1.449 . S
C334 C333 1.258 . S
C334 C335 1.477 . S
C334 H354 0.931 . S
C335 C331 1.460 . S
C335 C334 1.477 . S
C335 H355 0.930 . S
C336 N332 1.362 . S
C336 C333 1.431 . S
C336 C346 1.476 . S
H337 C331 0.929 1_655 S
C338 O329 1.250 . S
C338 O330 1.258 . S
O339 Mn324 2.162 . S
O339 C327 1.281 . S
O340 Mn324 2.297 . S
O340 C327 1.236 . S
N341 Mn325 2.282 1_455 S
N341 C342 1.328 . S
N341 C346 1.318 . S
C342 N341 1.328 . S
C342 C343 1.457 . S
C342 H347 0.929 . S
C343 C342 1.457 . S
C343 C344 1.291 . S
C343 H356 0.931 . S
C344 C343 1.291 . S
C344 C345 1.373 . S
C344 H357 0.929 . S
C345 C344 1.373 . S
C345 C346 1.396 . S
C345 C352 1.403 . S
C346 C336 1.476 . S
C346 N341 1.318 . S
C346 C345 1.396 . S
H347 C342 0.929 . S
O348 Mn324 2.385 . S
O348 C326 1.234 . S
O349 Mn324 2.209 . S
O349 Mn325 2.215 . S
O349 C326 1.283 . S
O350 Mn324 2.094 . S
O350 C328 1.240 . S
O351 Mn325 2.117 . S
O351 C328 1.264 . S
C352 C345 1.403 . S
C352 C353 1.399 . S
C352 H358 0.929 . S
C353 C333 1.449 . S
C353 C352 1.399 . S
C353 H359 0.930 . S
H354 C334 0.931 . S
H355 C335 0.930 . S
H356 C343 0.931 . S
H357 C344 0.929 . S
H358 C352 0.929 . S
H359 C353 0.930 . S
Mn360 O365 2.095 . S
Mn360 O375 2.162 . S
Mn360 O376 2.297 . S
Mn360 O384 2.385 . S
Mn360 O385 2.209 . S
Mn360 O386 2.094 . S
Mn361 O366 2.121 . S
Mn361 N368 2.257 . S
Mn361 N377 2.282 . S
Mn361 O385 2.215 . S
Mn361 O387 2.117 . S
C362 O384 1.234 . S
C362 O385 1.283 . S
C363 O375 1.281 . S
C363 O376 1.236 . S
C364 O386 1.240 . S
C364 O387 1.264 . S
O365 Mn360 2.095 . S
O365 C374 1.250 . S
O366 Mn361 2.121 . S
O366 C374 1.258 . S
C367 N368 1.326 . S
C367 C371 1.460 . S
C367 H373 0.929 . S
N368 Mn361 2.257 . S
N368 C367 1.326 . S
N368 C372 1.362 . S
C369 C370 1.258 . S
C369 C372 1.431 . S
C369 C389 1.449 . S
C370 C369 1.258 . S
C370 C371 1.477 . S
C370 H390 0.931 . S
C371 C367 1.460 . S
C371 C370 1.477 . S
C371 H391 0.930 . S
C372 N368 1.362 . S
C372 C369 1.431 . S
C372 C382 1.476 . S
H373 C367 0.929 . S
C374 O365 1.250 . S
C374 O366 1.258 . S
O375 Mn360 2.162 . S
O375 C363 1.281 . S
O376 Mn360 2.297 . S
O376 C363 1.236 . S
N377 Mn361 2.282 . S
N377 C378 1.328 . S
N377 C382 1.318 . S
C378 N377 1.328 . S
C378 C379 1.457 . S
C378 H383 0.929 . S
C379 C378 1.457 . S
C379 C380 1.291 . S
C379 H392 0.931 . S
C380 C379 1.291 . S
C380 C381 1.373 . S
C380 H393 0.929 . S
C381 C380 1.373 . S
C381 C382 1.396 . S
C381 C388 1.403 . S
C382 C372 1.476 . S
C382 N377 1.318 . S
C382 C381 1.396 . S
H383 C378 0.929 . S
O384 Mn360 2.385 . S
O384 C362 1.234 . S
O385 Mn360 2.209 . S
O385 Mn361 2.215 . S
O385 C362 1.283 . S
O386 Mn360 2.094 . S
O386 C364 1.240 . S
O387 Mn361 2.117 . S
O387 C364 1.264 . S
C388 C381 1.403 . S
C388 C389 1.399 . S
C388 H394 0.929 . S
C389 C369 1.449 . S
C389 C388 1.399 . S
C389 H395 0.930 . S
H390 C370 0.931 . S
H391 C371 0.930 . S
H392 C379 0.931 . S
H393 C380 0.929 . S
H394 C388 0.929 . S
H395 C389 0.930 . S
Mn396 O401 2.095 . S
Mn396 O411 2.162 . S
Mn396 O412 2.297 . S
Mn396 O420 2.385 . S
Mn396 O421 2.209 . S
Mn396 O422 2.094 . S
Mn397 O402 2.121 . S
Mn397 N404 2.257 1_545 S
Mn397 N413 2.282 1_545 S
Mn397 O421 2.215 . S
Mn397 O423 2.117 . S
C398 O420 1.234 . S
C398 O421 1.283 . S
C399 O411 1.281 . S
C399 O412 1.236 . S
C400 O422 1.240 . S
C400 O423 1.264 . S
O401 Mn396 2.095 . S
O401 C410 1.250 . S
O402 Mn397 2.121 . S
O402 C410 1.258 . S
C403 N404 1.326 . S
C403 C407 1.460 . S
C403 H409 0.929 1_565 S
N404 Mn397 2.257 1_565 S
N404 C403 1.326 . S
N404 C408 1.362 . S
C405 C406 1.258 . S
C405 C408 1.431 . S
C405 C425 1.449 . S
C406 C405 1.258 . S
C406 C407 1.477 . S
C406 H426 0.931 . S
C407 C403 1.460 . S
C407 C406 1.477 . S
C407 H427 0.930 . S
C408 N404 1.362 . S
C408 C405 1.431 . S
C408 C418 1.476 . S
H409 C403 0.929 1_545 S
C410 O401 1.250 . S
C410 O402 1.258 . S
O411 Mn396 2.162 . S
O411 C399 1.281 . S
O412 Mn396 2.297 . S
O412 C399 1.236 . S
N413 Mn397 2.282 1_565 S
N413 C414 1.328 . S
N413 C418 1.318 . S
C414 N413 1.328 . S
C414 C415 1.457 . S
C414 H419 0.929 . S
C415 C414 1.457 . S
C415 C416 1.291 . S
C415 H428 0.931 . S
C416 C415 1.291 . S
C416 C417 1.373 . S
C416 H429 0.929 . S
C417 C416 1.373 . S
C417 C418 1.396 . S
C417 C424 1.403 . S
C418 C408 1.476 . S
C418 N413 1.318 . S
C418 C417 1.396 . S
H419 C414 0.929 . S
O420 Mn396 2.385 . S
O420 C398 1.234 . S
O421 Mn396 2.209 . S
O421 Mn397 2.215 . S
O421 C398 1.283 . S
O422 Mn396 2.094 . S
O422 C400 1.240 . S
O423 Mn397 2.117 . S
O423 C400 1.264 . S
C424 C417 1.403 . S
C424 C425 1.399 . S
C424 H430 0.929 . S
C425 C405 1.449 . S
C425 C424 1.399 . S
C425 H431 0.930 . S
H426 C406 0.931 . S
H427 C407 0.930 . S
H428 C415 0.931 . S
H429 C416 0.929 . S
H430 C424 0.929 . S
H431 C425 0.930 . S
Mn432 O437 2.095 . S
Mn432 O447 2.162 . S
Mn432 O448 2.297 . S
Mn432 O456 2.385 . S
Mn432 O457 2.209 . S
Mn432 O458 2.094 . S
Mn433 O438 2.121 . S
Mn433 N440 2.257 . S
Mn433 N449 2.282 . S
Mn433 O457 2.215 . S
Mn433 O459 2.117 . S
C434 O456 1.234 . S
C434 O457 1.283 . S
C435 O447 1.281 . S
C435 O448 1.236 . S
C436 O458 1.240 . S
C436 O459 1.264 . S
O437 Mn432 2.095 . S
O437 C446 1.250 . S
O438 Mn433 2.121 . S
O438 C446 1.258 . S
C439 N440 1.326 . S
C439 C443 1.460 . S
C439 H445 0.929 . S
N440 Mn433 2.257 . S
N440 C439 1.326 . S
N440 C444 1.362 . S
C441 C442 1.258 . S
C441 C444 1.431 . S
C441 C461 1.449 . S
C442 C441 1.258 . S
C442 C443 1.477 . S
C442 H462 0.931 . S
C443 C439 1.460 . S
C443 C442 1.477 . S
C443 H463 0.930 . S
C444 N440 1.362 . S
C444 C441 1.431 . S
C444 C454 1.476 . S
H445 C439 0.929 . S
C446 O437 1.250 . S
C446 O438 1.258 . S
O447 Mn432 2.162 . S
O447 C435 1.281 . S
O448 Mn432 2.297 . S
O448 C435 1.236 . S
N449 Mn433 2.282 . S
N449 C450 1.328 . S
N449 C454 1.318 . S
C450 N449 1.328 . S
C450 C451 1.457 . S
C450 H455 0.929 . S
C451 C450 1.457 . S
C451 C452 1.291 . S
C451 H464 0.931 . S
C452 C451 1.291 . S
C452 C453 1.373 . S
C452 H465 0.929 . S
C453 C452 1.373 . S
C453 C454 1.396 . S
C453 C460 1.403 . S
C454 C444 1.476 . S
C454 N449 1.318 . S
C454 C453 1.396 . S
H455 C450 0.929 . S
O456 Mn432 2.385 . S
O456 C434 1.234 . S
O457 Mn432 2.209 . S
O457 Mn433 2.215 . S
O457 C434 1.283 . S
O458 Mn432 2.094 . S
O458 C436 1.240 . S
O459 Mn433 2.117 . S
O459 C436 1.264 . S
C460 C453 1.403 . S
C460 C461 1.399 . S
C460 H466 0.929 . S
C461 C441 1.449 . S
C461 C460 1.399 . S
C461 H467 0.930 . S
H462 C442 0.931 . S
H463 C443 0.930 . S
H464 C451 0.931 . S
H465 C452 0.929 . S
H466 C460 0.929 . S
H467 C461 0.930 . S
Mn468 O473 2.095 . S
Mn468 O483 2.162 . S
Mn468 O484 2.297 . S
Mn468 O492 2.385 . S
Mn468 O493 2.209 . S
Mn468 O494 2.094 . S
Mn469 O474 2.121 . S
Mn469 N476 2.257 . S
Mn469 N485 2.282 . S
Mn469 O493 2.215 . S
Mn469 O495 2.117 . S
C470 O492 1.234 . S
C470 O493 1.283 . S
C471 O483 1.281 . S
C471 O484 1.236 . S
C472 O494 1.240 . S
C472 O495 1.264 . S
O473 Mn468 2.095 . S
O473 C482 1.250 . S
O474 Mn469 2.121 . S
O474 C482 1.258 . S
C475 N476 1.326 . S
C475 C479 1.460 . S
C475 H481 0.929 . S
N476 Mn469 2.257 . S
N476 C475 1.326 . S
N476 C480 1.362 . S
C477 C478 1.258 . S
C477 C480 1.431 . S
C477 C497 1.449 . S
C478 C477 1.258 . S
C478 C479 1.477 . S
C478 H498 0.931 . S
C479 C475 1.460 . S
C479 C478 1.477 . S
C479 H499 0.930 . S
C480 N476 1.362 . S
C480 C477 1.431 . S
C480 C490 1.476 . S
H481 C475 0.929 . S
C482 O473 1.250 . S
C482 O474 1.258 . S
O483 Mn468 2.162 . S
O483 C471 1.281 . S
O484 Mn468 2.297 . S
O484 C471 1.236 . S
N485 Mn469 2.282 . S
N485 C486 1.328 . S
N485 C490 1.318 . S
C486 N485 1.328 . S
C486 C487 1.457 . S
C486 H491 0.929 . S
C487 C486 1.457 . S
C487 C488 1.291 . S
C487 H500 0.931 . S
C488 C487 1.291 . S
C488 C489 1.373 . S
C488 H501 0.929 . S
C489 C488 1.373 . S
C489 C490 1.396 . S
C489 C496 1.403 . S
C490 C480 1.476 . S
C490 N485 1.318 . S
C490 C489 1.396 . S
H491 C486 0.929 . S
O492 Mn468 2.385 . S
O492 C470 1.234 . S
O493 Mn468 2.209 . S
O493 Mn469 2.215 . S
O493 C470 1.283 . S
O494 Mn468 2.094 . S
O494 C472 1.240 . S
O495 Mn469 2.117 . S
O495 C472 1.264 . S
C496 C489 1.403 . S
C496 C497 1.399 . S
C496 H502 0.929 . S
C497 C477 1.449 . S
C497 C496 1.399 . S
C497 H503 0.930 . S
H498 C478 0.931 . S
H499 C479 0.930 . S
H500 C487 0.931 . S
H501 C488 0.929 . S
H502 C496 0.929 . S
H503 C497 0.930 . S
Mn504 O509 2.095 . S
Mn504 O519 2.162 . S
Mn504 O520 2.297 . S
Mn504 O528 2.385 . S
Mn504 O529 2.209 . S
Mn504 O530 2.094 . S
Mn505 O510 2.121 . S
Mn505 N512 2.257 . S
Mn505 N521 2.282 . S
Mn505 O529 2.215 . S
Mn505 O531 2.117 . S
C506 O528 1.234 . S
C506 O529 1.283 . S
C507 O519 1.281 . S
C507 O520 1.236 . S
C508 O530 1.240 . S
C508 O531 1.264 . S
O509 Mn504 2.095 . S
O509 C518 1.250 . S
O510 Mn505 2.121 . S
O510 C518 1.258 . S
C511 N512 1.326 . S
C511 C515 1.460 . S
C511 H517 0.929 . S
N512 Mn505 2.257 . S
N512 C511 1.326 . S
N512 C516 1.362 . S
C513 C514 1.258 . S
C513 C516 1.431 . S
C513 C533 1.449 . S
C514 C513 1.258 . S
C514 C515 1.477 . S
C514 H534 0.931 . S
C515 C511 1.460 . S
C515 C514 1.477 . S
C515 H535 0.930 . S
C516 N512 1.362 . S
C516 C513 1.431 . S
C516 C526 1.476 . S
H517 C511 0.929 . S
C518 O509 1.250 . S
C518 O510 1.258 . S
O519 Mn504 2.162 . S
O519 C507 1.281 . S
O520 Mn504 2.297 . S
O520 C507 1.236 . S
N521 Mn505 2.282 . S
N521 C522 1.328 . S
N521 C526 1.318 . S
C522 N521 1.328 . S
C522 C523 1.457 . S
C522 H527 0.929 . S
C523 C522 1.457 . S
C523 C524 1.291 . S
C523 H536 0.931 . S
C524 C523 1.291 . S
C524 C525 1.373 . S
C524 H537 0.929 . S
C525 C524 1.373 . S
C525 C526 1.396 . S
C525 C532 1.403 . S
C526 C516 1.476 . S
C526 N521 1.318 . S
C526 C525 1.396 . S
H527 C522 0.929 . S
O528 Mn504 2.385 . S
O528 C506 1.234 . S
O529 Mn504 2.209 . S
O529 Mn505 2.215 . S
O529 C506 1.283 . S
O530 Mn504 2.094 . S
O530 C508 1.240 . S
O531 Mn505 2.117 . S
O531 C508 1.264 . S
C532 C525 1.403 . S
C532 C533 1.399 . S
C532 H538 0.929 . S
C533 C513 1.449 . S
C533 C532 1.399 . S
C533 H539 0.930 . S
H534 C514 0.931 . S
H535 C515 0.930 . S
H536 C523 0.931 . S
H537 C524 0.929 . S
H538 C532 0.929 . S
H539 C533 0.930 . S
Mn540 O545 2.095 . S
Mn540 O555 2.162 . S
Mn540 O556 2.297 . S
Mn540 O564 2.385 . S
Mn540 O565 2.209 . S
Mn540 O566 2.094 . S
Mn541 O546 2.121 . S
Mn541 N548 2.257 . S
Mn541 N557 2.282 . S
Mn541 O565 2.215 . S
Mn541 O567 2.117 . S
C542 O564 1.234 . S
C542 O565 1.283 . S
C543 O555 1.281 . S
C543 O556 1.236 . S
C544 O566 1.240 . S
C544 O567 1.264 . S
O545 Mn540 2.095 . S
O545 C554 1.250 . S
O546 Mn541 2.121 . S
O546 C554 1.258 . S
C547 N548 1.326 . S
C547 C551 1.460 . S
C547 H553 0.929 . S
N548 Mn541 2.257 . S
N548 C547 1.326 . S
N548 C552 1.362 . S
C549 C550 1.258 . S
C549 C552 1.431 . S
C549 C569 1.449 . S
C550 C549 1.258 . S
C550 C551 1.477 . S
C550 H570 0.931 . S
C551 C547 1.460 . S
C551 C550 1.477 . S
C551 H571 0.930 . S
C552 N548 1.362 . S
C552 C549 1.431 . S
C552 C562 1.476 . S
H553 C547 0.929 . S
C554 O545 1.250 . S
C554 O546 1.258 . S
O555 Mn540 2.162 . S
O555 C543 1.281 . S
O556 Mn540 2.297 . S
O556 C543 1.236 . S
N557 Mn541 2.282 . S
N557 C558 1.328 . S
N557 C562 1.318 . S
C558 N557 1.328 . S
C558 C559 1.457 . S
C558 H563 0.929 . S
C559 C558 1.457 . S
C559 C560 1.291 . S
C559 H572 0.931 . S
C560 C559 1.291 . S
C560 C561 1.373 . S
C560 H573 0.929 . S
C561 C560 1.373 . S
C561 C562 1.396 . S
C561 C568 1.403 . S
C562 C552 1.476 . S
C562 N557 1.318 . S
C562 C561 1.396 . S
H563 C558 0.929 . S
O564 Mn540 2.385 . S
O564 C542 1.234 . S
O565 Mn540 2.209 . S
O565 Mn541 2.215 . S
O565 C542 1.283 . S
O566 Mn540 2.094 . S
O566 C544 1.240 . S
O567 Mn541 2.117 . S
O567 C544 1.264 . S
C568 C561 1.403 . S
C568 C569 1.399 . S
C568 H574 0.929 . S
C569 C549 1.449 . S
C569 C568 1.399 . S
C569 H575 0.930 . S
H570 C550 0.931 . S
H571 C551 0.930 . S
H572 C559 0.931 . S
H573 C560 0.929 . S
H574 C568 0.929 . S
H575 C569 0.930 . S
Mn576 O581 2.095 . S
Mn576 O591 2.162 . S
Mn576 O592 2.297 . S
Mn576 O600 2.385 . S
Mn576 O601 2.209 . S
Mn576 O602 2.094 . S
Mn577 O582 2.121 . S
Mn577 N584 2.257 . S
Mn577 N593 2.282 . S
Mn577 O601 2.215 . S
Mn577 O603 2.117 . S
C578 O600 1.234 . S
C578 O601 1.283 . S
C579 O591 1.281 . S
C579 O592 1.236 . S
C580 O602 1.240 . S
C580 O603 1.264 . S
O581 Mn576 2.095 . S
O581 C590 1.250 . S
O582 Mn577 2.121 . S
O582 C590 1.258 . S
C583 N584 1.326 . S
C583 C587 1.460 . S
C583 H589 0.929 . S
N584 Mn577 2.257 . S
N584 C583 1.326 . S
N584 C588 1.362 . S
C585 C586 1.258 . S
C585 C588 1.431 . S
C585 C605 1.449 . S
C586 C585 1.258 . S
C586 C587 1.477 . S
C586 H606 0.931 . S
C587 C583 1.460 . S
C587 C586 1.477 . S
C587 H607 0.930 . S
C588 N584 1.362 . S
C588 C585 1.431 . S
C588 C598 1.476 . S
H589 C583 0.929 . S
C590 O581 1.250 . S
C590 O582 1.258 . S
O591 Mn576 2.162 . S
O591 C579 1.281 . S
O592 Mn576 2.297 . S
O592 C579 1.236 . S
N593 Mn577 2.282 . S
N593 C594 1.328 . S
N593 C598 1.318 . S
C594 N593 1.328 . S
C594 C595 1.457 . S
C594 H599 0.929 . S
C595 C594 1.457 . S
C595 C596 1.291 . S
C595 H608 0.931 . S
C596 C595 1.291 . S
C596 C597 1.373 . S
C596 H609 0.929 . S
C597 C596 1.373 . S
C597 C598 1.396 . S
C597 C604 1.403 . S
C598 C588 1.476 . S
C598 N593 1.318 . S
C598 C597 1.396 . S
H599 C594 0.929 . S
O600 Mn576 2.385 . S
O600 C578 1.234 . S
O601 Mn576 2.209 . S
O601 Mn577 2.215 . S
O601 C578 1.283 . S
O602 Mn576 2.094 . S
O602 C580 1.240 . S
O603 Mn577 2.117 . S
O603 C580 1.264 . S
C604 C597 1.403 . S
C604 C605 1.399 . S
C604 H610 0.929 . S
C605 C585 1.449 . S
C605 C604 1.399 . S
C605 H611 0.930 . S
H606 C586 0.931 . S
H607 C587 0.930 . S
H608 C595 0.931 . S
H609 C596 0.929 . S
H610 C604 0.929 . S
H611 C605 0.930 . S
Mn612 O617 2.095 . S
Mn612 O627 2.162 . S
Mn612 O628 2.297 . S
Mn612 O636 2.385 . S
Mn612 O637 2.209 . S
Mn612 O638 2.094 . S
Mn613 O618 2.121 . S
Mn613 N620 2.257 . S
Mn613 N629 2.282 . S
Mn613 O637 2.215 . S
Mn613 O639 2.117 . S
C614 O636 1.234 . S
C614 O637 1.283 . S
C615 O627 1.281 . S
C615 O628 1.236 . S
C616 O638 1.240 . S
C616 O639 1.264 . S
O617 Mn612 2.095 . S
O617 C626 1.250 . S
O618 Mn613 2.121 . S
O618 C626 1.258 . S
C619 N620 1.326 . S
C619 C623 1.460 . S
C619 H625 0.929 . S
N620 Mn613 2.257 . S
N620 C619 1.326 . S
N620 C624 1.362 . S
C621 C622 1.258 . S
C621 C624 1.431 . S
C621 C641 1.449 . S
C622 C621 1.258 . S
C622 C623 1.477 . S
C622 H642 0.931 . S
C623 C619 1.460 . S
C623 C622 1.477 . S
C623 H643 0.930 . S
C624 N620 1.362 . S
C624 C621 1.431 . S
C624 C634 1.476 . S
H625 C619 0.929 . S
C626 O617 1.250 . S
C626 O618 1.258 . S
O627 Mn612 2.162 . S
O627 C615 1.281 . S
O628 Mn612 2.297 . S
O628 C615 1.236 . S
N629 Mn613 2.282 . S
N629 C630 1.328 . S
N629 C634 1.318 . S
C630 N629 1.328 . S
C630 C631 1.457 . S
C630 H635 0.929 . S
C631 C630 1.457 . S
C631 C632 1.291 . S
C631 H644 0.931 . S
C632 C631 1.291 . S
C632 C633 1.373 . S
C632 H645 0.929 . S
C633 C632 1.373 . S
C633 C634 1.396 . S
C633 C640 1.403 . S
C634 C624 1.476 . S
C634 N629 1.318 . S
C634 C633 1.396 . S
H635 C630 0.929 . S
O636 Mn612 2.385 . S
O636 C614 1.234 . S
O637 Mn612 2.209 . S
O637 Mn613 2.215 . S
O637 C614 1.283 . S
O638 Mn612 2.094 . S
O638 C616 1.240 . S
O639 Mn613 2.117 . S
O639 C616 1.264 . S
C640 C633 1.403 . S
C640 C641 1.399 . S
C640 H646 0.929 . S
C641 C621 1.449 . S
C641 C640 1.399 . S
C641 H647 0.930 . S
H642 C622 0.931 . S
H643 C623 0.930 . S
H644 C631 0.931 . S
H645 C632 0.929 . S
H646 C640 0.929 . S
H647 C641 0.930 . S
Mn648 O653 2.095 . S
Mn648 O663 2.162 . S
Mn648 O664 2.297 . S
Mn648 O672 2.385 . S
Mn648 O673 2.209 . S
Mn648 O674 2.094 . S
Mn649 O654 2.121 . S
Mn649 N656 2.257 . S
Mn649 N665 2.282 . S
Mn649 O673 2.215 . S
Mn649 O675 2.117 . S
C650 O672 1.234 . S
C650 O673 1.283 . S
C651 O663 1.281 . S
C651 O664 1.236 . S
C652 O674 1.240 . S
C652 O675 1.264 . S
O653 Mn648 2.095 . S
O653 C662 1.250 . S
O654 Mn649 2.121 . S
O654 C662 1.258 . S
C655 N656 1.326 . S
C655 C659 1.460 . S
C655 H661 0.929 . S
N656 Mn649 2.257 . S
N656 C655 1.326 . S
N656 C660 1.362 . S
C657 C658 1.258 . S
C657 C660 1.431 . S
C657 C677 1.449 . S
C658 C657 1.258 . S
C658 C659 1.477 . S
C658 H678 0.931 . S
C659 C655 1.460 . S
C659 C658 1.477 . S
C659 H679 0.930 . S
C660 N656 1.362 . S
C660 C657 1.431 . S
C660 C670 1.476 . S
H661 C655 0.929 . S
C662 O653 1.250 . S
C662 O654 1.258 . S
O663 Mn648 2.162 . S
O663 C651 1.281 . S
O664 Mn648 2.297 . S
O664 C651 1.236 . S
N665 Mn649 2.282 . S
N665 C666 1.328 . S
N665 C670 1.318 . S
C666 N665 1.328 . S
C666 C667 1.457 . S
C666 H671 0.929 . S
C667 C666 1.457 . S
C667 C668 1.291 . S
C667 H680 0.931 . S
C668 C667 1.291 . S
C668 C669 1.373 . S
C668 H681 0.929 . S
C669 C668 1.373 . S
C669 C670 1.396 . S
C669 C676 1.403 . S
C670 C660 1.476 . S
C670 N665 1.318 . S
C670 C669 1.396 . S
H671 C666 0.929 . S
O672 Mn648 2.385 . S
O672 C650 1.234 . S
O673 Mn648 2.209 . S
O673 Mn649 2.215 . S
O673 C650 1.283 . S
O674 Mn648 2.094 . S
O674 C652 1.240 . S
O675 Mn649 2.117 . S
O675 C652 1.264 . S
C676 C669 1.403 . S
C676 C677 1.399 . S
C676 H682 0.929 . S
C677 C657 1.449 . S
C677 C676 1.399 . S
C677 H683 0.930 . S
H678 C658 0.931 . S
H679 C659 0.930 . S
H680 C667 0.931 . S
H681 C668 0.929 . S
H682 C676 0.929 . S
H683 C677 0.930 . S
Mn684 O689 2.095 . S
Mn684 O699 2.162 . S
Mn684 O700 2.297 . S
Mn684 O708 2.385 . S
Mn684 O709 2.209 . S
Mn684 O710 2.094 . S
Mn685 O690 2.121 . S
Mn685 N692 2.257 . S
Mn685 N701 2.282 . S
Mn685 O709 2.215 . S
Mn685 O711 2.117 . S
C686 O708 1.234 . S
C686 O709 1.283 . S
C687 O699 1.281 . S
C687 O700 1.236 . S
C688 O710 1.240 . S
C688 O711 1.264 . S
O689 Mn684 2.095 . S
O689 C698 1.250 . S
O690 Mn685 2.121 . S
O690 C698 1.258 . S
C691 N692 1.326 . S
C691 C695 1.460 . S
C691 H697 0.929 . S
N692 Mn685 2.257 . S
N692 C691 1.326 . S
N692 C696 1.362 . S
C693 C694 1.258 . S
C693 C696 1.431 . S
C693 C713 1.449 . S
C694 C693 1.258 . S
C694 C695 1.477 . S
C694 H714 0.931 . S
C695 C691 1.460 . S
C695 C694 1.477 . S
C695 H715 0.930 . S
C696 N692 1.362 . S
C696 C693 1.431 . S
C696 C706 1.476 . S
H697 C691 0.929 . S
C698 O689 1.250 . S
C698 O690 1.258 . S
O699 Mn684 2.162 . S
O699 C687 1.281 . S
O700 Mn684 2.297 . S
O700 C687 1.236 . S
N701 Mn685 2.282 . S
N701 C702 1.328 . S
N701 C706 1.318 . S
C702 N701 1.328 . S
C702 C703 1.457 . S
C702 H707 0.929 . S
C703 C702 1.457 . S
C703 C704 1.291 . S
C703 H716 0.931 . S
C704 C703 1.291 . S
C704 C705 1.373 . S
C704 H717 0.929 . S
C705 C704 1.373 . S
C705 C706 1.396 . S
C705 C712 1.403 . S
C706 C696 1.476 . S
C706 N701 1.318 . S
C706 C705 1.396 . S
H707 C702 0.929 . S
O708 Mn684 2.385 . S
O708 C686 1.234 . S
O709 Mn684 2.209 . S
O709 Mn685 2.215 . S
O709 C686 1.283 . S
O710 Mn684 2.094 . S
O710 C688 1.240 . S
O711 Mn685 2.117 . S
O711 C688 1.264 . S
C712 C705 1.403 . S
C712 C713 1.399 . S
C712 H718 0.929 . S
C713 C693 1.449 . S
C713 C712 1.399 . S
C713 H719 0.930 . S
H714 C694 0.931 . S
H715 C695 0.930 . S
H716 C703 0.931 . S
H717 C704 0.929 . S
H718 C712 0.929 . S
H719 C713 0.930 . S
Mn720 O725 2.095 . S
Mn720 O735 2.162 . S
Mn720 O736 2.297 . S
Mn720 O744 2.385 . S
Mn720 O745 2.209 . S
Mn720 O746 2.094 . S
Mn721 O726 2.121 . S
Mn721 N728 2.257 . S
Mn721 N737 2.282 . S
Mn721 O745 2.215 . S
Mn721 O747 2.117 . S
C722 O744 1.234 . S
C722 O745 1.283 . S
C723 O735 1.281 . S
C723 O736 1.236 . S
C724 O746 1.240 . S
C724 O747 1.264 . S
O725 Mn720 2.095 . S
O725 C734 1.250 . S
O726 Mn721 2.121 . S
O726 C734 1.258 . S
C727 N728 1.326 . S
C727 C731 1.460 . S
C727 H733 0.929 . S
N728 Mn721 2.257 . S
N728 C727 1.326 . S
N728 C732 1.362 . S
C729 C730 1.258 . S
C729 C732 1.431 . S
C729 C749 1.449 . S
C730 C729 1.258 . S
C730 C731 1.477 . S
C730 H750 0.931 . S
C731 C727 1.460 . S
C731 C730 1.477 . S
C731 H751 0.930 . S
C732 N728 1.362 . S
C732 C729 1.431 . S
C732 C742 1.476 . S
H733 C727 0.929 . S
C734 O725 1.250 . S
C734 O726 1.258 . S
O735 Mn720 2.162 . S
O735 C723 1.281 . S
O736 Mn720 2.297 . S
O736 C723 1.236 . S
N737 Mn721 2.282 . S
N737 C738 1.328 . S
N737 C742 1.318 . S
C738 N737 1.328 . S
C738 C739 1.457 . S
C738 H743 0.929 . S
C739 C738 1.457 . S
C739 C740 1.291 . S
C739 H752 0.931 . S
C740 C739 1.291 . S
C740 C741 1.373 . S
C740 H753 0.929 . S
C741 C740 1.373 . S
C741 C742 1.396 . S
C741 C748 1.403 . S
C742 C732 1.476 . S
C742 N737 1.318 . S
C742 C741 1.396 . S
H743 C738 0.929 . S
O744 Mn720 2.385 . S
O744 C722 1.234 . S
O745 Mn720 2.209 . S
O745 Mn721 2.215 . S
O745 C722 1.283 . S
O746 Mn720 2.094 . S
O746 C724 1.240 . S
O747 Mn721 2.117 . S
O747 C724 1.264 . S
C748 C741 1.403 . S
C748 C749 1.399 . S
C748 H754 0.929 . S
C749 C729 1.449 . S
C749 C748 1.399 . S
C749 H755 0.930 . S
H750 C730 0.931 . S
H751 C731 0.930 . S
H752 C739 0.931 . S
H753 C740 0.929 . S
H754 C748 0.929 . S
H755 C749 0.930 . S
Mn756 O761 2.095 . S
Mn756 O771 2.162 . S
Mn756 O772 2.297 . S
Mn756 O780 2.385 . S
Mn756 O781 2.209 . S
Mn756 O782 2.094 . S
Mn757 O762 2.121 . S
Mn757 N764 2.257 . S
Mn757 N773 2.282 . S
Mn757 O781 2.215 . S
Mn757 O783 2.117 . S
C758 O780 1.234 . S
C758 O781 1.283 . S
C759 O771 1.281 . S
C759 O772 1.236 . S
C760 O782 1.240 . S
C760 O783 1.264 . S
O761 Mn756 2.095 . S
O761 C770 1.250 . S
O762 Mn757 2.121 . S
O762 C770 1.258 . S
C763 N764 1.326 . S
C763 C767 1.460 . S
C763 H769 0.929 . S
N764 Mn757 2.257 . S
N764 C763 1.326 . S
N764 C768 1.362 . S
C765 C766 1.258 . S
C765 C768 1.431 . S
C765 C785 1.449 . S
C766 C765 1.258 . S
C766 C767 1.477 . S
C766 H786 0.931 1_556 S
C767 C763 1.460 . S
C767 C766 1.477 . S
C767 H787 0.930 1_556 S
C768 N764 1.362 . S
C768 C765 1.431 . S
C768 C778 1.476 . S
H769 C763 0.929 . S
C770 O761 1.250 . S
C770 O762 1.258 . S
O771 Mn756 2.162 . S
O771 C759 1.281 . S
O772 Mn756 2.297 . S
O772 C759 1.236 . S
N773 Mn757 2.282 . S
N773 C774 1.328 . S
N773 C778 1.318 . S
C774 N773 1.328 . S
C774 C775 1.457 . S
C774 H779 0.929 . S
C775 C774 1.457 . S
C775 C776 1.291 . S
C775 H788 0.931 . S
C776 C775 1.291 . S
C776 C777 1.373 . S
C776 H789 0.929 . S
C777 C776 1.373 . S
C777 C778 1.396 . S
C777 C784 1.403 . S
C778 C768 1.476 . S
C778 N773 1.318 . S
C778 C777 1.396 . S
H779 C774 0.929 . S
O780 Mn756 2.385 . S
O780 C758 1.234 . S
O781 Mn756 2.209 . S
O781 Mn757 2.215 . S
O781 C758 1.283 . S
O782 Mn756 2.094 . S
O782 C760 1.240 . S
O783 Mn757 2.117 . S
O783 C760 1.264 . S
C784 C777 1.403 . S
C784 C785 1.399 . S
C784 H790 0.929 . S
C785 C765 1.449 . S
C785 C784 1.399 . S
C785 H791 0.930 . S
H786 C766 0.931 1_554 S
H787 C767 0.930 1_554 S
H788 C775 0.931 . S
H789 C776 0.929 . S
H790 C784 0.929 . S
H791 C785 0.930 . S
Mn792 O797 2.095 . S
Mn792 O807 2.162 . S
Mn792 O808 2.297 . S
Mn792 O816 2.385 . S
Mn792 O817 2.209 . S
Mn792 O818 2.094 . S
Mn793 O798 2.121 . S
Mn793 N800 2.257 . S
Mn793 N809 2.282 . S
Mn793 O817 2.215 . S
Mn793 O819 2.117 . S
C794 O816 1.234 . S
C794 O817 1.283 . S
C795 O807 1.281 . S
C795 O808 1.236 . S
C796 O818 1.240 . S
C796 O819 1.264 . S
O797 Mn792 2.095 . S
O797 C806 1.250 . S
O798 Mn793 2.121 . S
O798 C806 1.258 . S
C799 N800 1.326 . S
C799 C803 1.460 . S
C799 H805 0.929 . S
N800 Mn793 2.257 . S
N800 C799 1.326 . S
N800 C804 1.362 . S
C801 C802 1.258 . S
C801 C804 1.431 . S
C801 C821 1.449 . S
C802 C801 1.258 . S
C802 C803 1.477 . S
C802 H822 0.931 1_556 S
C803 C799 1.460 . S
C803 C802 1.477 . S
C803 H823 0.930 1_556 S
C804 N800 1.362 . S
C804 C801 1.431 . S
C804 C814 1.476 . S
H805 C799 0.929 . S
C806 O797 1.250 . S
C806 O798 1.258 . S
O807 Mn792 2.162 . S
O807 C795 1.281 . S
O808 Mn792 2.297 . S
O808 C795 1.236 . S
N809 Mn793 2.282 . S
N809 C810 1.328 . S
N809 C814 1.318 . S
C810 N809 1.328 . S
C810 C811 1.457 . S
C810 H815 0.929 . S
C811 C810 1.457 . S
C811 C812 1.291 . S
C811 H824 0.931 . S
C812 C811 1.291 . S
C812 C813 1.373 . S
C812 H825 0.929 . S
C813 C812 1.373 . S
C813 C814 1.396 . S
C813 C820 1.403 . S
C814 C804 1.476 . S
C814 N809 1.318 . S
C814 C813 1.396 . S
H815 C810 0.929 . S
O816 Mn792 2.385 . S
O816 C794 1.234 . S
O817 Mn792 2.209 . S
O817 Mn793 2.215 . S
O817 C794 1.283 . S
O818 Mn792 2.094 . S
O818 C796 1.240 . S
O819 Mn793 2.117 . S
O819 C796 1.264 . S
C820 C813 1.403 . S
C820 C821 1.399 . S
C820 H826 0.929 . S
C821 C801 1.449 . S
C821 C820 1.399 . S
C821 H827 0.930 . S
H822 C802 0.931 1_554 S
H823 C803 0.930 1_554 S
H824 C811 0.931 . S
H825 C812 0.929 . S
H826 C820 0.929 . S
H827 C821 0.930 . S
Mn828 O833 2.095 . S
Mn828 O843 2.162 . S
Mn828 O844 2.297 . S
Mn828 O852 2.385 . S
Mn828 O853 2.209 . S
Mn828 O854 2.094 . S
Mn829 O834 2.121 . S
Mn829 N836 2.257 . S
Mn829 N845 2.282 . S
Mn829 O853 2.215 . S
Mn829 O855 2.117 . S
C830 O852 1.234 . S
C830 O853 1.283 . S
C831 O843 1.281 . S
C831 O844 1.236 . S
C832 O854 1.240 . S
C832 O855 1.264 . S
O833 Mn828 2.095 . S
O833 C842 1.250 . S
O834 Mn829 2.121 . S
O834 C842 1.258 . S
C835 N836 1.326 . S
C835 C839 1.460 . S
C835 H841 0.929 . S
N836 Mn829 2.257 . S
N836 C835 1.326 . S
N836 C840 1.362 . S
C837 C838 1.258 . S
C837 C840 1.431 . S
C837 C857 1.449 . S
C838 C837 1.258 . S
C838 C839 1.477 . S
C838 H858 0.931 1_556 S
C839 C835 1.460 . S
C839 C838 1.477 . S
C839 H859 0.930 1_556 S
C840 N836 1.362 . S
C840 C837 1.431 . S
C840 C850 1.476 . S
H841 C835 0.929 . S
C842 O833 1.250 . S
C842 O834 1.258 . S
O843 Mn828 2.162 . S
O843 C831 1.281 . S
O844 Mn828 2.297 . S
O844 C831 1.236 . S
N845 Mn829 2.282 . S
N845 C846 1.328 . S
N845 C850 1.318 . S
C846 N845 1.328 . S
C846 C847 1.457 . S
C846 H851 0.929 . S
C847 C846 1.457 . S
C847 C848 1.291 . S
C847 H860 0.931 . S
C848 C847 1.291 . S
C848 C849 1.373 . S
C848 H861 0.929 . S
C849 C848 1.373 . S
C849 C850 1.396 . S
C849 C856 1.403 . S
C850 C840 1.476 . S
C850 N845 1.318 . S
C850 C849 1.396 . S
H851 C846 0.929 . S
O852 Mn828 2.385 . S
O852 C830 1.234 . S
O853 Mn828 2.209 . S
O853 Mn829 2.215 . S
O853 C830 1.283 . S
O854 Mn828 2.094 . S
O854 C832 1.240 . S
O855 Mn829 2.117 . S
O855 C832 1.264 . S
C856 C849 1.403 . S
C856 C857 1.399 . S
C856 H862 0.929 . S
C857 C837 1.449 . S
C857 C856 1.399 . S
C857 H863 0.930 . S
H858 C838 0.931 1_554 S
H859 C839 0.930 1_554 S
H860 C847 0.931 . S
H861 C848 0.929 . S
H862 C856 0.929 . S
H863 C857 0.930 . S
Mn864 O869 2.095 . S
Mn864 O879 2.162 . S
Mn864 O880 2.297 . S
Mn864 O888 2.385 . S
Mn864 O889 2.209 . S
Mn864 O890 2.094 . S
Mn865 O870 2.121 . S
Mn865 N872 2.257 . S
Mn865 N881 2.282 . S
Mn865 O889 2.215 . S
Mn865 O891 2.117 . S
C866 O888 1.234 . S
C866 O889 1.283 . S
C867 O879 1.281 . S
C867 O880 1.236 . S
C868 O890 1.240 . S
C868 O891 1.264 . S
O869 Mn864 2.095 . S
O869 C878 1.250 . S
O870 Mn865 2.121 . S
O870 C878 1.258 . S
C871 N872 1.326 . S
C871 C875 1.460 . S
C871 H877 0.929 . S
N872 Mn865 2.257 . S
N872 C871 1.326 . S
N872 C876 1.362 . S
C873 C874 1.258 . S
C873 C876 1.431 . S
C873 C893 1.449 . S
C874 C873 1.258 . S
C874 C875 1.477 . S
C874 H894 0.931 . S
C875 C871 1.460 . S
C875 C874 1.477 . S
C875 H895 0.930 . S
C876 N872 1.362 . S
C876 C873 1.431 . S
C876 C886 1.476 . S
H877 C871 0.929 . S
C878 O869 1.250 . S
C878 O870 1.258 . S
O879 Mn864 2.162 . S
O879 C867 1.281 . S
O880 Mn864 2.297 . S
O880 C867 1.236 . S
N881 Mn865 2.282 . S
N881 C882 1.328 . S
N881 C886 1.318 . S
C882 N881 1.328 . S
C882 C883 1.457 . S
C882 H887 0.929 . S
C883 C882 1.457 . S
C883 C884 1.291 . S
C883 H896 0.931 . S
C884 C883 1.291 . S
C884 C885 1.373 . S
C884 H897 0.929 . S
C885 C884 1.373 . S
C885 C886 1.396 . S
C885 C892 1.403 . S
C886 C876 1.476 . S
C886 N881 1.318 . S
C886 C885 1.396 . S
H887 C882 0.929 . S
O888 Mn864 2.385 . S
O888 C866 1.234 . S
O889 Mn864 2.209 . S
O889 Mn865 2.215 . S
O889 C866 1.283 . S
O890 Mn864 2.094 . S
O890 C868 1.240 . S
O891 Mn865 2.117 . S
O891 C868 1.264 . S
C892 C885 1.403 . S
C892 C893 1.399 . S
C892 H898 0.929 . S
C893 C873 1.449 . S
C893 C892 1.399 . S
C893 H899 0.930 . S
H894 C874 0.931 . S
H895 C875 0.930 . S
H896 C883 0.931 . S
H897 C884 0.929 . S
H898 C892 0.929 . S
H899 C893 0.930 . S
Mn900 O905 2.095 . S
Mn900 O915 2.162 . S
Mn900 O916 2.297 . S
Mn900 O924 2.385 . S
Mn900 O925 2.209 . S
Mn900 O926 2.094 . S
Mn901 O906 2.121 . S
Mn901 N908 2.257 . S
Mn901 N917 2.282 . S
Mn901 O925 2.215 . S
Mn901 O927 2.117 . S
C902 O924 1.234 . S
C902 O925 1.283 . S
C903 O915 1.281 . S
C903 O916 1.236 . S
C904 O926 1.240 . S
C904 O927 1.264 . S
O905 Mn900 2.095 . S
O905 C914 1.250 . S
O906 Mn901 2.121 . S
O906 C914 1.258 . S
C907 N908 1.326 . S
C907 C911 1.460 . S
C907 H913 0.929 . S
N908 Mn901 2.257 . S
N908 C907 1.326 . S
N908 C912 1.362 . S
C909 C910 1.258 . S
C909 C912 1.431 . S
C909 C929 1.449 . S
C910 C909 1.258 . S
C910 C911 1.477 . S
C910 H930 0.931 . S
C911 C907 1.460 . S
C911 C910 1.477 . S
C911 H931 0.930 . S
C912 N908 1.362 . S
C912 C909 1.431 . S
C912 C922 1.476 . S
H913 C907 0.929 . S
C914 O905 1.250 . S
C914 O906 1.258 . S
O915 Mn900 2.162 . S
O915 C903 1.281 . S
O916 Mn900 2.297 . S
O916 C903 1.236 . S
N917 Mn901 2.282 . S
N917 C918 1.328 . S
N917 C922 1.318 . S
C918 N917 1.328 . S
C918 C919 1.457 . S
C918 H923 0.929 . S
C919 C918 1.457 . S
C919 C920 1.291 . S
C919 H932 0.931 . S
C920 C919 1.291 . S
C920 C921 1.373 . S
C920 H933 0.929 . S
C921 C920 1.373 . S
C921 C922 1.396 . S
C921 C928 1.403 . S
C922 C912 1.476 . S
C922 N917 1.318 . S
C922 C921 1.396 . S
H923 C918 0.929 . S
O924 Mn900 2.385 . S
O924 C902 1.234 . S
O925 Mn900 2.209 . S
O925 Mn901 2.215 . S
O925 C902 1.283 . S
O926 Mn900 2.094 . S
O926 C904 1.240 . S
O927 Mn901 2.117 . S
O927 C904 1.264 . S
C928 C921 1.403 . S
C928 C929 1.399 . S
C928 H934 0.929 . S
C929 C909 1.449 . S
C929 C928 1.399 . S
C929 H935 0.930 . S
H930 C910 0.931 . S
H931 C911 0.930 . S
H932 C919 0.931 . S
H933 C920 0.929 . S
H934 C928 0.929 . S
H935 C929 0.930 . S
Mn936 O941 2.095 . S
Mn936 O951 2.162 . S
Mn936 O952 2.297 . S
Mn936 O960 2.385 . S
Mn936 O961 2.209 . S
Mn936 O962 2.094 . S
Mn937 O942 2.121 . S
Mn937 N944 2.257 . S
Mn937 N953 2.282 . S
Mn937 O961 2.215 . S
Mn937 O963 2.117 . S
C938 O960 1.234 . S
C938 O961 1.283 . S
C939 O951 1.281 . S
C939 O952 1.236 . S
C940 O962 1.240 . S
C940 O963 1.264 . S
O941 Mn936 2.095 . S
O941 C950 1.250 . S
O942 Mn937 2.121 . S
O942 C950 1.258 . S
C943 N944 1.326 . S
C943 C947 1.460 . S
C943 H949 0.929 . S
N944 Mn937 2.257 . S
N944 C943 1.326 . S
N944 C948 1.362 . S
C945 C946 1.258 . S
C945 C948 1.431 . S
C945 C965 1.449 . S
C946 C945 1.258 . S
C946 C947 1.477 . S
C946 H966 0.931 . S
C947 C943 1.460 . S
C947 C946 1.477 . S
C947 H967 0.930 . S
C948 N944 1.362 . S
C948 C945 1.431 . S
C948 C958 1.476 . S
H949 C943 0.929 . S
C950 O941 1.250 . S
C950 O942 1.258 . S
O951 Mn936 2.162 . S
O951 C939 1.281 . S
O952 Mn936 2.297 . S
O952 C939 1.236 . S
N953 Mn937 2.282 . S
N953 C954 1.328 . S
N953 C958 1.318 . S
C954 N953 1.328 . S
C954 C955 1.457 . S
C954 H959 0.929 . S
C955 C954 1.457 . S
C955 C956 1.291 . S
C955 H968 0.931 . S
C956 C955 1.291 . S
C956 C957 1.373 . S
C956 H969 0.929 . S
C957 C956 1.373 . S
C957 C958 1.396 . S
C957 C964 1.403 . S
C958 C948 1.476 . S
C958 N953 1.318 . S
C958 C957 1.396 . S
H959 C954 0.929 . S
O960 Mn936 2.385 . S
O960 C938 1.234 . S
O961 Mn936 2.209 . S
O961 Mn937 2.215 . S
O961 C938 1.283 . S
O962 Mn936 2.094 . S
O962 C940 1.240 . S
O963 Mn937 2.117 . S
O963 C940 1.264 . S
C964 C957 1.403 . S
C964 C965 1.399 . S
C964 H970 0.929 . S
C965 C945 1.449 . S
C965 C964 1.399 . S
C965 H971 0.930 . S
H966 C946 0.931 . S
H967 C947 0.930 . S
H968 C955 0.931 . S
H969 C956 0.929 . S
H970 C964 0.929 . S
H971 C965 0.930 . S
Mn972 O977 2.095 . S
Mn972 O987 2.162 . S
Mn972 O988 2.297 . S
Mn972 O996 2.385 . S
Mn972 O997 2.209 . S
Mn972 O998 2.094 . S
Mn973 O978 2.121 . S
Mn973 N980 2.257 . S
Mn973 N989 2.282 . S
Mn973 O997 2.215 . S
Mn973 O999 2.117 . S
C974 O996 1.234 . S
C974 O997 1.283 . S
C975 O987 1.281 . S
C975 O988 1.236 . S
C976 O998 1.240 . S
C976 O999 1.264 . S
O977 Mn972 2.095 . S
O977 C986 1.250 . S
O978 Mn973 2.121 . S
O978 C986 1.258 . S
C979 N980 1.326 . S
C979 C983 1.460 . S
C979 H985 0.929 . S
N980 Mn973 2.257 . S
N980 C979 1.326 . S
N980 C984 1.362 . S
C981 C982 1.258 . S
C981 C984 1.431 . S
C981 C1001 1.449 . S
C982 C981 1.258 . S
C982 C983 1.477 . S
C982 H1002 0.931 1_554 S
C983 C979 1.460 . S
C983 C982 1.477 . S
C983 H1003 0.930 1_554 S
C984 N980 1.362 . S
C984 C981 1.431 . S
C984 C994 1.476 . S
H985 C979 0.929 . S
C986 O977 1.250 . S
C986 O978 1.258 . S
O987 Mn972 2.162 . S
O987 C975 1.281 . S
O988 Mn972 2.297 . S
O988 C975 1.236 . S
N989 Mn973 2.282 . S
N989 C990 1.328 . S
N989 C994 1.318 . S
C990 N989 1.328 . S
C990 C991 1.457 . S
C990 H995 0.929 . S
C991 C990 1.457 . S
C991 C992 1.291 . S
C991 H1004 0.931 . S
C992 C991 1.291 . S
C992 C993 1.373 . S
C992 H1005 0.929 . S
C993 C992 1.373 . S
C993 C994 1.396 . S
C993 C1000 1.403 . S
C994 C984 1.476 . S
C994 N989 1.318 . S
C994 C993 1.396 . S
H995 C990 0.929 . S
O996 Mn972 2.385 . S
O996 C974 1.234 . S
O997 Mn972 2.209 . S
O997 Mn973 2.215 . S
O997 C974 1.283 . S
O998 Mn972 2.094 . S
O998 C976 1.240 . S
O999 Mn973 2.117 . S
O999 C976 1.264 . S
C1000 C993 1.403 . S
C1000 C1001 1.399 . S
C1000 H1006 0.929 . S
C1001 C981 1.449 . S
C1001 C1000 1.399 . S
C1001 H1007 0.930 . S
H1002 C982 0.931 1_556 S
H1003 C983 0.930 1_556 S
H1004 C991 0.931 . S
H1005 C992 0.929 . S
H1006 C1000 0.929 . S
H1007 C1001 0.930 . S
Mn1008 O1013 2.095 . S
Mn1008 O1023 2.162 . S
Mn1008 O1024 2.297 . S
Mn1008 O1032 2.385 . S
Mn1008 O1033 2.209 . S
Mn1008 O1034 2.094 . S
Mn1009 O1014 2.121 . S
Mn1009 N1016 2.257 . S
Mn1009 N1025 2.282 . S
Mn1009 O1033 2.215 . S
Mn1009 O1035 2.117 . S
C1010 O1032 1.234 . S
C1010 O1033 1.283 . S
C1011 O1023 1.281 . S
C1011 O1024 1.236 . S
C1012 O1034 1.240 . S
C1012 O1035 1.264 . S
O1013 Mn1008 2.095 . S
O1013 C1022 1.250 . S
O1014 Mn1009 2.121 . S
O1014 C1022 1.258 . S
C1015 N1016 1.326 . S
C1015 C1019 1.460 . S
C1015 H1021 0.929 . S
N1016 Mn1009 2.257 . S
N1016 C1015 1.326 . S
N1016 C1020 1.362 . S
C1017 C1018 1.258 . S
C1017 C1020 1.431 . S
C1017 C1037 1.449 . S
C1018 C1017 1.258 . S
C1018 C1019 1.477 . S
C1018 H1038 0.931 1_554 S
C1019 C1015 1.460 . S
C1019 C1018 1.477 . S
C1019 H1039 0.930 1_554 S
C1020 N1016 1.362 . S
C1020 C1017 1.431 . S
C1020 C1030 1.476 . S
H1021 C1015 0.929 . S
C1022 O1013 1.250 . S
C1022 O1014 1.258 . S
O1023 Mn1008 2.162 . S
O1023 C1011 1.281 . S
O1024 Mn1008 2.297 . S
O1024 C1011 1.236 . S
N1025 Mn1009 2.282 . S
N1025 C1026 1.328 . S
N1025 C1030 1.318 . S
C1026 N1025 1.328 . S
C1026 C1027 1.457 . S
C1026 H1031 0.929 . S
C1027 C1026 1.457 . S
C1027 C1028 1.291 . S
C1027 H1040 0.931 . S
C1028 C1027 1.291 . S
C1028 C1029 1.373 . S
C1028 H1041 0.929 . S
C1029 C1028 1.373 . S
C1029 C1030 1.396 . S
C1029 C1036 1.403 . S
C1030 C1020 1.476 . S
C1030 N1025 1.318 . S
C1030 C1029 1.396 . S
H1031 C1026 0.929 . S
O1032 Mn1008 2.385 . S
O1032 C1010 1.234 . S
O1033 Mn1008 2.209 . S
O1033 Mn1009 2.215 . S
O1033 C1010 1.283 . S
O1034 Mn1008 2.094 . S
O1034 C1012 1.240 . S
O1035 Mn1009 2.117 . S
O1035 C1012 1.264 . S
C1036 C1029 1.403 . S
C1036 C1037 1.399 . S
C1036 H1042 0.929 . S
C1037 C1017 1.449 . S
C1037 C1036 1.399 . S
C1037 H1043 0.930 . S
H1038 C1018 0.931 1_556 S
H1039 C1019 0.930 1_556 S
H1040 C1027 0.931 . S
H1041 C1028 0.929 . S
H1042 C1036 0.929 . S
H1043 C1037 0.930 . S
Mn1044 O1049 2.095 . S
Mn1044 O1059 2.162 . S
Mn1044 O1060 2.297 . S
Mn1044 O1068 2.385 . S
Mn1044 O1069 2.209 . S
Mn1044 O1070 2.094 . S
Mn1045 O1050 2.121 . S
Mn1045 N1052 2.257 . S
Mn1045 N1061 2.282 . S
Mn1045 O1069 2.215 . S
Mn1045 O1071 2.117 . S
C1046 O1068 1.234 . S
C1046 O1069 1.283 . S
C1047 O1059 1.281 . S
C1047 O1060 1.236 . S
C1048 O1070 1.240 . S
C1048 O1071 1.264 . S
O1049 Mn1044 2.095 . S
O1049 C1058 1.250 . S
O1050 Mn1045 2.121 . S
O1050 C1058 1.258 . S
C1051 N1052 1.326 . S
C1051 C1055 1.460 . S
C1051 H1057 0.929 . S
N1052 Mn1045 2.257 . S
N1052 C1051 1.326 . S
N1052 C1056 1.362 . S
C1053 C1054 1.258 . S
C1053 C1056 1.431 . S
C1053 C1073 1.449 . S
C1054 C1053 1.258 . S
C1054 C1055 1.477 . S
C1054 H1074 0.931 1_554 S
C1055 C1051 1.460 . S
C1055 C1054 1.477 . S
C1055 H1075 0.930 1_554 S
C1056 N1052 1.362 . S
C1056 C1053 1.431 . S
C1056 C1066 1.476 . S
H1057 C1051 0.929 . S
C1058 O1049 1.250 . S
C1058 O1050 1.258 . S
O1059 Mn1044 2.162 . S
O1059 C1047 1.281 . S
O1060 Mn1044 2.297 . S
O1060 C1047 1.236 . S
N1061 Mn1045 2.282 . S
N1061 C1062 1.328 . S
N1061 C1066 1.318 . S
C1062 N1061 1.328 . S
C1062 C1063 1.457 . S
C1062 H1067 0.929 . S
C1063 C1062 1.457 . S
C1063 C1064 1.291 . S
C1063 H1076 0.931 . S
C1064 C1063 1.291 . S
C1064 C1065 1.373 . S
C1064 H1077 0.929 . S
C1065 C1064 1.373 . S
C1065 C1066 1.396 . S
C1065 C1072 1.403 . S
C1066 C1056 1.476 . S
C1066 N1061 1.318 . S
C1066 C1065 1.396 . S
H1067 C1062 0.929 . S
O1068 Mn1044 2.385 . S
O1068 C1046 1.234 . S
O1069 Mn1044 2.209 . S
O1069 Mn1045 2.215 . S
O1069 C1046 1.283 . S
O1070 Mn1044 2.094 . S
O1070 C1048 1.240 . S
O1071 Mn1045 2.117 . S
O1071 C1048 1.264 . S
C1072 C1065 1.403 . S
C1072 C1073 1.399 . S
C1072 H1078 0.929 . S
C1073 C1053 1.449 . S
C1073 C1072 1.399 . S
C1073 H1079 0.930 . S
H1074 C1054 0.931 1_556 S
H1075 C1055 0.930 1_556 S
H1076 C1063 0.931 . S
H1077 C1064 0.929 . S
H1078 C1072 0.929 . S
H1079 C1073 0.930 . S
Mn1080 O1085 2.095 . S
Mn1080 O1095 2.162 . S
Mn1080 O1096 2.297 . S
Mn1080 O1104 2.385 . S
Mn1080 O1105 2.209 . S
Mn1080 O1106 2.094 . S
Mn1081 O1086 2.121 . S
Mn1081 N1088 2.257 . S
Mn1081 N1097 2.282 . S
Mn1081 O1105 2.215 . S
Mn1081 O1107 2.117 . S
C1082 O1104 1.234 . S
C1082 O1105 1.283 . S
C1083 O1095 1.281 . S
C1083 O1096 1.236 . S
C1084 O1106 1.240 . S
C1084 O1107 1.264 . S
O1085 Mn1080 2.095 . S
O1085 C1094 1.250 . S
O1086 Mn1081 2.121 . S
O1086 C1094 1.258 . S
C1087 N1088 1.326 . S
C1087 C1091 1.460 . S
C1087 H1093 0.929 . S
N1088 Mn1081 2.257 . S
N1088 C1087 1.326 . S
N1088 C1092 1.362 . S
C1089 C1090 1.258 . S
C1089 C1092 1.431 . S
C1089 C1109 1.449 . S
C1090 C1089 1.258 . S
C1090 C1091 1.477 . S
C1090 H1110 0.931 . S
C1091 C1087 1.460 . S
C1091 C1090 1.477 . S
C1091 H1111 0.930 . S
C1092 N1088 1.362 . S
C1092 C1089 1.431 . S
C1092 C1102 1.476 . S
H1093 C1087 0.929 . S
C1094 O1085 1.250 . S
C1094 O1086 1.258 . S
O1095 Mn1080 2.162 . S
O1095 C1083 1.281 . S
O1096 Mn1080 2.297 . S
O1096 C1083 1.236 . S
N1097 Mn1081 2.282 . S
N1097 C1098 1.328 . S
N1097 C1102 1.318 . S
C1098 N1097 1.328 . S
C1098 C1099 1.457 . S
C1098 H1103 0.929 . S
C1099 C1098 1.457 . S
C1099 C1100 1.291 . S
C1099 H1112 0.931 . S
C1100 C1099 1.291 . S
C1100 C1101 1.373 . S
C1100 H1113 0.929 . S
C1101 C1100 1.373 . S
C1101 C1102 1.396 . S
C1101 C1108 1.403 . S
C1102 C1092 1.476 . S
C1102 N1097 1.318 . S
C1102 C1101 1.396 . S
H1103 C1098 0.929 . S
O1104 Mn1080 2.385 . S
O1104 C1082 1.234 . S
O1105 Mn1080 2.209 . S
O1105 Mn1081 2.215 . S
O1105 C1082 1.283 . S
O1106 Mn1080 2.094 . S
O1106 C1084 1.240 . S
O1107 Mn1081 2.117 . S
O1107 C1084 1.264 . S
C1108 C1101 1.403 . S
C1108 C1109 1.399 . S
C1108 H1114 0.929 . S
C1109 C1089 1.449 . S
C1109 C1108 1.399 . S
C1109 H1115 0.930 . S
H1110 C1090 0.931 . S
H1111 C1091 0.930 . S
H1112 C1099 0.931 . S
H1113 C1100 0.929 . S
H1114 C1108 0.929 . S
H1115 C1109 0.930 . S
Mn1116 O1121 2.095 . S
Mn1116 O1131 2.162 . S
Mn1116 O1132 2.297 . S
Mn1116 O1140 2.385 . S
Mn1116 O1141 2.209 . S
Mn1116 O1142 2.094 . S
Mn1117 O1122 2.121 . S
Mn1117 N1124 2.257 . S
Mn1117 N1133 2.282 . S
Mn1117 O1141 2.215 . S
Mn1117 O1143 2.117 . S
C1118 O1140 1.234 . S
C1118 O1141 1.283 . S
C1119 O1131 1.281 . S
C1119 O1132 1.236 . S
C1120 O1142 1.240 . S
C1120 O1143 1.264 . S
O1121 Mn1116 2.095 . S
O1121 C1130 1.250 . S
O1122 Mn1117 2.121 . S
O1122 C1130 1.258 . S
C1123 N1124 1.326 . S
C1123 C1127 1.460 . S
C1123 H1129 0.929 . S
N1124 Mn1117 2.257 . S
N1124 C1123 1.326 . S
N1124 C1128 1.362 . S
C1125 C1126 1.258 . S
C1125 C1128 1.431 . S
C1125 C1145 1.449 . S
C1126 C1125 1.258 . S
C1126 C1127 1.477 . S
C1126 H1146 0.931 . S
C1127 C1123 1.460 . S
C1127 C1126 1.477 . S
C1127 H1147 0.930 . S
C1128 N1124 1.362 . S
C1128 C1125 1.431 . S
C1128 C1138 1.476 . S
H1129 C1123 0.929 . S
C1130 O1121 1.250 . S
C1130 O1122 1.258 . S
O1131 Mn1116 2.162 . S
O1131 C1119 1.281 . S
O1132 Mn1116 2.297 . S
O1132 C1119 1.236 . S
N1133 Mn1117 2.282 . S
N1133 C1134 1.328 . S
N1133 C1138 1.318 . S
C1134 N1133 1.328 . S
C1134 C1135 1.457 . S
C1134 H1139 0.929 . S
C1135 C1134 1.457 . S
C1135 C1136 1.291 . S
C1135 H1148 0.931 . S
C1136 C1135 1.291 . S
C1136 C1137 1.373 . S
C1136 H1149 0.929 . S
C1137 C1136 1.373 . S
C1137 C1138 1.396 . S
C1137 C1144 1.403 . S
C1138 C1128 1.476 . S
C1138 N1133 1.318 . S
C1138 C1137 1.396 . S
H1139 C1134 0.929 . S
O1140 Mn1116 2.385 . S
O1140 C1118 1.234 . S
O1141 Mn1116 2.209 . S
O1141 Mn1117 2.215 . S
O1141 C1118 1.283 . S
O1142 Mn1116 2.094 . S
O1142 C1120 1.240 . S
O1143 Mn1117 2.117 . S
O1143 C1120 1.264 . S
C1144 C1137 1.403 . S
C1144 C1145 1.399 . S
C1144 H1150 0.929 . S
C1145 C1125 1.449 . S
C1145 C1144 1.399 . S
C1145 H1151 0.930 . S
H1146 C1126 0.931 . S
H1147 C1127 0.930 . S
H1148 C1135 0.931 . S
H1149 C1136 0.929 . S
H1150 C1144 0.929 . S
H1151 C1145 0.930 . S
Mn1152 O1157 2.095 . S
Mn1152 O1167 2.162 . S
Mn1152 O1168 2.297 . S
Mn1152 O1176 2.385 . S
Mn1152 O1177 2.209 . S
Mn1152 O1178 2.094 . S
Mn1153 O1158 2.121 . S
Mn1153 N1160 2.257 . S
Mn1153 N1169 2.282 . S
Mn1153 O1177 2.215 . S
Mn1153 O1179 2.117 . S
C1154 O1176 1.234 . S
C1154 O1177 1.283 . S
C1155 O1167 1.281 . S
C1155 O1168 1.236 . S
C1156 O1178 1.240 . S
C1156 O1179 1.264 . S
O1157 Mn1152 2.095 . S
O1157 C1166 1.250 . S
O1158 Mn1153 2.121 . S
O1158 C1166 1.258 . S
C1159 N1160 1.326 . S
C1159 C1163 1.460 . S
C1159 H1165 0.929 . S
N1160 Mn1153 2.257 . S
N1160 C1159 1.326 . S
N1160 C1164 1.362 . S
C1161 C1162 1.258 . S
C1161 C1164 1.431 . S
C1161 C1181 1.449 . S
C1162 C1161 1.258 . S
C1162 C1163 1.477 . S
C1162 H1182 0.931 . S
C1163 C1159 1.460 . S
C1163 C1162 1.477 . S
C1163 H1183 0.930 . S
C1164 N1160 1.362 . S
C1164 C1161 1.431 . S
C1164 C1174 1.476 . S
H1165 C1159 0.929 . S
C1166 O1157 1.250 . S
C1166 O1158 1.258 . S
O1167 Mn1152 2.162 . S
O1167 C1155 1.281 . S
O1168 Mn1152 2.297 . S
O1168 C1155 1.236 . S
N1169 Mn1153 2.282 . S
N1169 C1170 1.328 . S
N1169 C1174 1.318 . S
C1170 N1169 1.328 . S
C1170 C1171 1.457 . S
C1170 H1175 0.929 . S
C1171 C1170 1.457 . S
C1171 C1172 1.291 . S
C1171 H1184 0.931 . S
C1172 C1171 1.291 . S
C1172 C1173 1.373 . S
C1172 H1185 0.929 . S
C1173 C1172 1.373 . S
C1173 C1174 1.396 . S
C1173 C1180 1.403 . S
C1174 C1164 1.476 . S
C1174 N1169 1.318 . S
C1174 C1173 1.396 . S
H1175 C1170 0.929 . S
O1176 Mn1152 2.385 . S
O1176 C1154 1.234 . S
O1177 Mn1152 2.209 . S
O1177 Mn1153 2.215 . S
O1177 C1154 1.283 . S
O1178 Mn1152 2.094 . S
O1178 C1156 1.240 . S
O1179 Mn1153 2.117 . S
O1179 C1156 1.264 . S
C1180 C1173 1.403 . S
C1180 C1181 1.399 . S
C1180 H1186 0.929 . S
C1181 C1161 1.449 . S
C1181 C1180 1.399 . S
C1181 H1187 0.930 . S
H1182 C1162 0.931 . S
H1183 C1163 0.930 . S
H1184 C1171 0.931 . S
H1185 C1172 0.929 . S
H1186 C1180 0.929 . S
H1187 C1181 0.930 . S
Mn1188 O1193 2.095 . S
Mn1188 O1203 2.162 . S
Mn1188 O1204 2.297 . S
Mn1188 O1212 2.385 . S
Mn1188 O1213 2.209 . S
Mn1188 O1214 2.094 . S
Mn1189 O1194 2.121 . S
Mn1189 N1196 2.257 . S
Mn1189 N1205 2.282 . S
Mn1189 O1213 2.215 . S
Mn1189 O1215 2.117 . S
C1190 O1212 1.234 . S
C1190 O1213 1.283 . S
C1191 O1203 1.281 . S
C1191 O1204 1.236 . S
C1192 O1214 1.240 . S
C1192 O1215 1.264 . S
O1193 Mn1188 2.095 . S
O1193 C1202 1.250 . S
O1194 Mn1189 2.121 . S
O1194 C1202 1.258 . S
C1195 N1196 1.326 . S
C1195 C1199 1.460 . S
C1195 H1201 0.929 . S
N1196 Mn1189 2.257 . S
N1196 C1195 1.326 . S
N1196 C1200 1.362 . S
C1197 C1198 1.258 . S
C1197 C1200 1.431 . S
C1197 C1217 1.449 . S
C1198 C1197 1.258 . S
C1198 C1199 1.477 . S
C1198 H1218 0.931 . S
C1199 C1195 1.460 . S
C1199 C1198 1.477 . S
C1199 H1219 0.930 . S
C1200 N1196 1.362 . S
C1200 C1197 1.431 . S
C1200 C1210 1.476 . S
H1201 C1195 0.929 . S
C1202 O1193 1.250 . S
C1202 O1194 1.258 . S
O1203 Mn1188 2.162 . S
O1203 C1191 1.281 . S
O1204 Mn1188 2.297 . S
O1204 C1191 1.236 . S
N1205 Mn1189 2.282 . S
N1205 C1206 1.328 . S
N1205 C1210 1.318 . S
C1206 N1205 1.328 . S
C1206 C1207 1.457 . S
C1206 H1211 0.929 . S
C1207 C1206 1.457 . S
C1207 C1208 1.291 . S
C1207 H1220 0.931 . S
C1208 C1207 1.291 . S
C1208 C1209 1.373 . S
C1208 H1221 0.929 . S
C1209 C1208 1.373 . S
C1209 C1210 1.396 . S
C1209 C1216 1.403 . S
C1210 C1200 1.476 . S
C1210 N1205 1.318 . S
C1210 C1209 1.396 . S
H1211 C1206 0.929 . S
O1212 Mn1188 2.385 . S
O1212 C1190 1.234 . S
O1213 Mn1188 2.209 . S
O1213 Mn1189 2.215 . S
O1213 C1190 1.283 . S
O1214 Mn1188 2.094 . S
O1214 C1192 1.240 . S
O1215 Mn1189 2.117 . S
O1215 C1192 1.264 . S
C1216 C1209 1.403 . S
C1216 C1217 1.399 . S
C1216 H1222 0.929 . S
C1217 C1197 1.449 . S
C1217 C1216 1.399 . S
C1217 H1223 0.930 . S
H1218 C1198 0.931 . S
H1219 C1199 0.930 . S
H1220 C1207 0.931 . S
H1221 C1208 0.929 . S
H1222 C1216 0.929 . S
H1223 C1217 0.930 . S
Mn1224 O1229 2.095 . S
Mn1224 O1239 2.162 . S
Mn1224 O1240 2.297 . S
Mn1224 O1248 2.385 . S
Mn1224 O1249 2.209 . S
Mn1224 O1250 2.094 . S
Mn1225 O1230 2.121 . S
Mn1225 N1232 2.257 . S
Mn1225 N1241 2.282 . S
Mn1225 O1249 2.215 . S
Mn1225 O1251 2.117 . S
C1226 O1248 1.234 . S
C1226 O1249 1.283 . S
C1227 O1239 1.281 . S
C1227 O1240 1.236 . S
C1228 O1250 1.240 . S
C1228 O1251 1.264 . S
O1229 Mn1224 2.095 . S
O1229 C1238 1.250 . S
O1230 Mn1225 2.121 . S
O1230 C1238 1.258 . S
C1231 N1232 1.326 . S
C1231 C1235 1.460 . S
C1231 H1237 0.929 . S
N1232 Mn1225 2.257 . S
N1232 C1231 1.326 . S
N1232 C1236 1.362 . S
C1233 C1234 1.258 . S
C1233 C1236 1.431 . S
C1233 C1253 1.449 . S
C1234 C1233 1.258 . S
C1234 C1235 1.477 . S
C1234 H1254 0.931 . S
C1235 C1231 1.460 . S
C1235 C1234 1.477 . S
C1235 H1255 0.930 . S
C1236 N1232 1.362 . S
C1236 C1233 1.431 . S
C1236 C1246 1.476 . S
H1237 C1231 0.929 . S
C1238 O1229 1.250 . S
C1238 O1230 1.258 . S
O1239 Mn1224 2.162 . S
O1239 C1227 1.281 . S
O1240 Mn1224 2.297 . S
O1240 C1227 1.236 . S
N1241 Mn1225 2.282 . S
N1241 C1242 1.328 . S
N1241 C1246 1.318 . S
C1242 N1241 1.328 . S
C1242 C1243 1.457 . S
C1242 H1247 0.929 . S
C1243 C1242 1.457 . S
C1243 C1244 1.291 . S
C1243 H1256 0.931 . S
C1244 C1243 1.291 . S
C1244 C1245 1.373 . S
C1244 H1257 0.929 . S
C1245 C1244 1.373 . S
C1245 C1246 1.396 . S
C1245 C1252 1.403 . S
C1246 C1236 1.476 . S
C1246 N1241 1.318 . S
C1246 C1245 1.396 . S
H1247 C1242 0.929 . S
O1248 Mn1224 2.385 . S
O1248 C1226 1.234 . S
O1249 Mn1224 2.209 . S
O1249 Mn1225 2.215 . S
O1249 C1226 1.283 . S
O1250 Mn1224 2.094 . S
O1250 C1228 1.240 . S
O1251 Mn1225 2.117 . S
O1251 C1228 1.264 . S
C1252 C1245 1.403 . S
C1252 C1253 1.399 . S
C1252 H1258 0.929 . S
C1253 C1233 1.449 . S
C1253 C1252 1.399 . S
C1253 H1259 0.930 . S
H1254 C1234 0.931 . S
H1255 C1235 0.930 . S
H1256 C1243 0.931 . S
H1257 C1244 0.929 . S
H1258 C1252 0.929 . S
H1259 C1253 0.930 . S
Mn1260 O1265 2.095 . S
Mn1260 O1275 2.162 . S
Mn1260 O1276 2.297 . S
Mn1260 O1284 2.385 . S
Mn1260 O1285 2.209 . S
Mn1260 O1286 2.094 . S
Mn1261 O1266 2.121 . S
Mn1261 N1268 2.257 . S
Mn1261 N1277 2.282 . S
Mn1261 O1285 2.215 . S
Mn1261 O1287 2.117 . S
C1262 O1284 1.234 . S
C1262 O1285 1.283 . S
C1263 O1275 1.281 . S
C1263 O1276 1.236 . S
C1264 O1286 1.240 . S
C1264 O1287 1.264 . S
O1265 Mn1260 2.095 . S
O1265 C1274 1.250 . S
O1266 Mn1261 2.121 . S
O1266 C1274 1.258 . S
C1267 N1268 1.326 . S
C1267 C1271 1.460 . S
C1267 H1273 0.929 . S
N1268 Mn1261 2.257 . S
N1268 C1267 1.326 . S
N1268 C1272 1.362 . S
C1269 C1270 1.258 . S
C1269 C1272 1.431 . S
C1269 C1289 1.449 . S
C1270 C1269 1.258 . S
C1270 C1271 1.477 . S
C1270 H1290 0.931 . S
C1271 C1267 1.460 . S
C1271 C1270 1.477 . S
C1271 H1291 0.930 . S
C1272 N1268 1.362 . S
C1272 C1269 1.431 . S
C1272 C1282 1.476 . S
H1273 C1267 0.929 . S
C1274 O1265 1.250 . S
C1274 O1266 1.258 . S
O1275 Mn1260 2.162 . S
O1275 C1263 1.281 . S
O1276 Mn1260 2.297 . S
O1276 C1263 1.236 . S
N1277 Mn1261 2.282 . S
N1277 C1278 1.328 . S
N1277 C1282 1.318 . S
C1278 N1277 1.328 . S
C1278 C1279 1.457 . S
C1278 H1283 0.929 . S
C1279 C1278 1.457 . S
C1279 C1280 1.291 . S
C1279 H1292 0.931 . S
C1280 C1279 1.291 . S
C1280 C1281 1.373 . S
C1280 H1293 0.929 . S
C1281 C1280 1.373 . S
C1281 C1282 1.396 . S
C1281 C1288 1.403 . S
C1282 C1272 1.476 . S
C1282 N1277 1.318 . S
C1282 C1281 1.396 . S
H1283 C1278 0.929 . S
O1284 Mn1260 2.385 . S
O1284 C1262 1.234 . S
O1285 Mn1260 2.209 . S
O1285 Mn1261 2.215 . S
O1285 C1262 1.283 . S
O1286 Mn1260 2.094 . S
O1286 C1264 1.240 . S
O1287 Mn1261 2.117 . S
O1287 C1264 1.264 . S
C1288 C1281 1.403 . S
C1288 C1289 1.399 . S
C1288 H1294 0.929 . S
C1289 C1269 1.449 . S
C1289 C1288 1.399 . S
C1289 H1295 0.930 . S
H1290 C1270 0.931 . S
H1291 C1271 0.930 . S
H1292 C1279 0.931 . S
H1293 C1280 0.929 . S
H1294 C1288 0.929 . S
H1295 C1289 0.930 . S
H1296 C1302 0.930 . S
H1297 C1306 0.930 . S
H1298 C1311 0.929 . S
H1299 C1309 0.929 . S
H1300 C1304 0.929 . S
H1301 C1310 0.929 . S
C1302 H1296 0.930 . S
C1302 C1303 1.367 . S
C1302 C1310 1.378 . S
C1303 C1302 1.367 . S
C1303 C1311 1.433 . S
C1304 H1300 0.929 . S
C1304 C1306 1.378 . S
C1304 C1308 1.350 . S
C1305 C1308 1.463 . S
C1305 C1310 1.350 . S
C1305 N1313 1.427 . S
C1306 H1297 0.930 . S
C1306 C1304 1.378 . S
C1306 C1307 1.367 . S
C1307 C1306 1.367 . S
C1307 C1309 1.433 . S
C1308 C1304 1.350 . S
C1308 C1305 1.463 . S
C1308 N1312 1.427 . S
C1309 H1299 0.929 . S
C1309 C1307 1.433 . S
C1309 N1312 1.384 . S
C1310 H1301 0.929 . S
C1310 C1302 1.378 . S
C1310 C1305 1.350 . S
C1311 H1298 0.929 . S
C1311 C1303 1.433 . S
C1311 N1313 1.384 . S
N1312 C1308 1.427 . S
N1312 C1309 1.384 . S
N1313 C1305 1.427 . S
N1313 C1311 1.384 . S
H1314 C1320 0.930 . S
H1315 C1324 0.930 . S
H1316 C1329 0.929 . S
H1317 C1327 0.929 . S
H1318 C1322 0.929 . S
H1319 C1328 0.929 . S
C1320 H1314 0.930 . S
C1320 C1321 1.367 . S
C1320 C1328 1.378 . S
C1321 C1320 1.367 . S
C1321 C1329 1.433 . S
C1322 H1318 0.929 . S
C1322 C1324 1.378 . S
C1322 C1326 1.350 . S
C1323 C1326 1.463 . S
C1323 C1328 1.350 . S
C1323 N1331 1.427 . S
C1324 H1315 0.930 . S
C1324 C1322 1.378 . S
C1324 C1325 1.367 . S
C1325 C1324 1.367 . S
C1325 C1327 1.433 . S
C1326 C1322 1.350 . S
C1326 C1323 1.463 . S
C1326 N1330 1.427 . S
C1327 H1317 0.929 . S
C1327 C1325 1.433 . S
C1327 N1330 1.384 . S
C1328 H1319 0.929 . S
C1328 C1320 1.378 . S
C1328 C1323 1.350 . S
C1329 H1316 0.929 . S
C1329 C1321 1.433 . S
C1329 N1331 1.384 . S
N1330 C1326 1.427 . S
N1330 C1327 1.384 . S
N1331 C1323 1.427 . S
N1331 C1329 1.384 . S
H1332 C1338 0.930 . S
H1333 C1342 0.930 . S
H1334 C1347 0.929 . S
H1335 C1345 0.929 . S
H1336 C1340 0.929 . S
H1337 C1346 0.929 . S
C1338 H1332 0.930 . S
C1338 C1339 1.367 . S
C1338 C1346 1.378 . S
C1339 C1338 1.367 . S
C1339 C1347 1.433 . S
C1340 H1336 0.929 . S
C1340 C1342 1.378 . S
C1340 C1344 1.350 . S
C1341 C1344 1.463 . S
C1341 C1346 1.350 . S
C1341 N1349 1.427 . S
C1342 H1333 0.930 . S
C1342 C1340 1.378 . S
C1342 C1343 1.367 . S
C1343 C1342 1.367 . S
C1343 C1345 1.433 . S
C1344 C1340 1.350 . S
C1344 C1341 1.463 . S
C1344 N1348 1.427 . S
C1345 H1335 0.929 . S
C1345 C1343 1.433 . S
C1345 N1348 1.384 . S
C1346 H1337 0.929 . S
C1346 C1338 1.378 . S
C1346 C1341 1.350 . S
C1347 H1334 0.929 . S
C1347 C1339 1.433 . S
C1347 N1349 1.384 . S
N1348 C1344 1.427 . S
N1348 C1345 1.384 . S
N1349 C1341 1.427 . S
N1349 C1347 1.384 . S
H1350 C1356 0.930 . S
H1351 C1360 0.930 . S
H1352 C1365 0.929 . S
H1353 C1363 0.929 . S
H1354 C1358 0.929 . S
H1355 C1364 0.929 . S
C1356 H1350 0.930 . S
C1356 C1357 1.367 . S
C1356 C1364 1.378 . S
C1357 C1356 1.367 . S
C1357 C1365 1.433 . S
C1358 H1354 0.929 . S
C1358 C1360 1.378 . S
C1358 C1362 1.350 . S
C1359 C1362 1.463 . S
C1359 C1364 1.350 . S
C1359 N1367 1.427 . S
C1360 H1351 0.930 . S
C1360 C1358 1.378 . S
C1360 C1361 1.367 . S
C1361 C1360 1.367 . S
C1361 C1363 1.433 . S
C1362 C1358 1.350 . S
C1362 C1359 1.463 . S
C1362 N1366 1.427 . S
C1363 H1353 0.929 . S
C1363 C1361 1.433 . S
C1363 N1366 1.384 . S
C1364 H1355 0.929 . S
C1364 C1356 1.378 . S
C1364 C1359 1.350 . S
C1365 H1352 0.929 . S
C1365 C1357 1.433 . S
C1365 N1367 1.384 . S
N1366 C1362 1.427 . S
N1366 C1363 1.384 . S
N1367 C1359 1.427 . S
N1367 C1365 1.384 . S
H1368 C1374 0.930 . S
H1369 C1378 0.930 . S
H1370 C1383 0.929 . S
H1371 C1381 0.929 . S
H1372 C1376 0.929 . S
H1373 C1382 0.929 . S
C1374 H1368 0.930 . S
C1374 C1375 1.367 . S
C1374 C1382 1.378 . S
C1375 C1374 1.367 . S
C1375 C1383 1.433 . S
C1376 H1372 0.929 . S
C1376 C1378 1.378 . S
C1376 C1380 1.350 . S
C1377 C1380 1.463 . S
C1377 C1382 1.350 . S
C1377 N1385 1.427 . S
C1378 H1369 0.930 . S
C1378 C1376 1.378 . S
C1378 C1379 1.367 . S
C1379 C1378 1.367 . S
C1379 C1381 1.433 . S
C1380 C1376 1.350 . S
C1380 C1377 1.463 . S
C1380 N1384 1.427 . S
C1381 H1371 0.929 . S
C1381 C1379 1.433 . S
C1381 N1384 1.384 . S
C1382 H1373 0.929 . S
C1382 C1374 1.378 . S
C1382 C1377 1.350 . S
C1383 H1370 0.929 . S
C1383 C1375 1.433 . S
C1383 N1385 1.384 . S
N1384 C1380 1.427 . S
N1384 C1381 1.384 . S
N1385 C1377 1.427 . S
N1385 C1383 1.384 . S
H1386 C1392 0.930 . S
H1387 C1396 0.930 . S
H1388 C1401 0.929 . S
H1389 C1399 0.929 . S
H1390 C1394 0.929 . S
H1391 C1400 0.929 . S
C1392 H1386 0.930 . S
C1392 C1393 1.367 . S
C1392 C1400 1.378 . S
C1393 C1392 1.367 . S
C1393 C1401 1.433 . S
C1394 H1390 0.929 . S
C1394 C1396 1.378 . S
C1394 C1398 1.350 . S
C1395 C1398 1.463 . S
C1395 C1400 1.350 . S
C1395 N1403 1.427 . S
C1396 H1387 0.930 . S
C1396 C1394 1.378 . S
C1396 C1397 1.367 . S
C1397 C1396 1.367 . S
C1397 C1399 1.433 . S
C1398 C1394 1.350 . S
C1398 C1395 1.463 . S
C1398 N1402 1.427 . S
C1399 H1389 0.929 . S
C1399 C1397 1.433 . S
C1399 N1402 1.384 . S
C1400 H1391 0.929 . S
C1400 C1392 1.378 . S
C1400 C1395 1.350 . S
C1401 H1388 0.929 . S
C1401 C1393 1.433 . S
C1401 N1403 1.384 . S
N1402 C1398 1.427 . S
N1402 C1399 1.384 . S
N1403 C1395 1.427 . S
N1403 C1401 1.384 . S
H1404 C1410 0.930 . S
H1405 C1414 0.930 . S
H1406 C1419 0.929 . S
H1407 C1417 0.929 . S
H1408 C1412 0.929 . S
H1409 C1418 0.929 . S
C1410 H1404 0.930 . S
C1410 C1411 1.367 . S
C1410 C1418 1.378 . S
C1411 C1410 1.367 . S
C1411 C1419 1.433 . S
C1412 H1408 0.929 . S
C1412 C1414 1.378 . S
C1412 C1416 1.350 . S
C1413 C1416 1.463 . S
C1413 C1418 1.350 . S
C1413 N1421 1.427 . S
C1414 H1405 0.930 . S
C1414 C1412 1.378 . S
C1414 C1415 1.367 . S
C1415 C1414 1.367 . S
C1415 C1417 1.433 . S
C1416 C1412 1.350 . S
C1416 C1413 1.463 . S
C1416 N1420 1.427 . S
C1417 H1407 0.929 . S
C1417 C1415 1.433 . S
C1417 N1420 1.384 . S
C1418 H1409 0.929 . S
C1418 C1410 1.378 . S
C1418 C1413 1.350 . S
C1419 H1406 0.929 . S
C1419 C1411 1.433 . S
C1419 N1421 1.384 . S
N1420 C1416 1.427 . S
N1420 C1417 1.384 . S
N1421 C1413 1.427 . S
N1421 C1419 1.384 . S
H1422 C1428 0.930 . S
H1423 C1432 0.930 . S
H1424 C1437 0.929 . S
H1425 C1435 0.929 . S
H1426 C1430 0.929 . S
H1427 C1436 0.929 . S
C1428 H1422 0.930 . S
C1428 C1429 1.367 . S
C1428 C1436 1.378 . S
C1429 C1428 1.367 . S
C1429 C1437 1.433 . S
C1430 H1426 0.929 . S
C1430 C1432 1.378 . S
C1430 C1434 1.350 . S
C1431 C1434 1.463 . S
C1431 C1436 1.350 . S
C1431 N1439 1.427 . S
C1432 H1423 0.930 . S
C1432 C1430 1.378 . S
C1432 C1433 1.367 . S
C1433 C1432 1.367 . S
C1433 C1435 1.433 . S
C1434 C1430 1.350 . S
C1434 C1431 1.463 . S
C1434 N1438 1.427 . S
C1435 H1425 0.929 . S
C1435 C1433 1.433 . S
C1435 N1438 1.384 . S
C1436 H1427 0.929 . S
C1436 C1428 1.378 . S
C1436 C1431 1.350 . S
C1437 H1424 0.929 . S
C1437 C1429 1.433 . S
C1437 N1439 1.384 . S
N1438 C1434 1.427 . S
N1438 C1435 1.384 . S
N1439 C1431 1.427 . S
N1439 C1437 1.384 . S
H1440 C1446 0.930 . S
H1441 C1450 0.930 . S
H1442 C1455 0.929 . S
H1443 C1453 0.929 . S
H1444 C1448 0.929 . S
H1445 C1454 0.929 . S
C1446 H1440 0.930 . S
C1446 C1447 1.367 . S
C1446 C1454 1.378 . S
C1447 C1446 1.367 . S
C1447 C1455 1.433 . S
C1448 H1444 0.929 . S
C1448 C1450 1.378 . S
C1448 C1452 1.350 . S
C1449 C1452 1.463 . S
C1449 C1454 1.350 . S
C1449 N1457 1.427 . S
C1450 H1441 0.930 . S
C1450 C1448 1.378 . S
C1450 C1451 1.367 . S
C1451 C1450 1.367 . S
C1451 C1453 1.433 . S
C1452 C1448 1.350 . S
C1452 C1449 1.463 . S
C1452 N1456 1.427 . S
C1453 H1443 0.929 . S
C1453 C1451 1.433 . S
C1453 N1456 1.384 . S
C1454 H1445 0.929 . S
C1454 C1446 1.378 . S
C1454 C1449 1.350 . S
C1455 H1442 0.929 . S
C1455 C1447 1.433 . S
C1455 N1457 1.384 . S
N1456 C1452 1.427 . S
N1456 C1453 1.384 . S
N1457 C1449 1.427 . S
N1457 C1455 1.384 . S
H1458 C1464 0.930 . S
H1459 C1468 0.930 . S
H1460 C1473 0.929 . S
H1461 C1471 0.929 . S
H1462 C1466 0.929 . S
H1463 C1472 0.929 . S
C1464 H1458 0.930 . S
C1464 C1465 1.367 . S
C1464 C1472 1.378 . S
C1465 C1464 1.367 . S
C1465 C1473 1.433 . S
C1466 H1462 0.929 . S
C1466 C1468 1.378 . S
C1466 C1470 1.350 . S
C1467 C1470 1.463 . S
C1467 C1472 1.350 . S
C1467 N1475 1.427 . S
C1468 H1459 0.930 . S
C1468 C1466 1.378 . S
C1468 C1469 1.367 . S
C1469 C1468 1.367 . S
C1469 C1471 1.433 . S
C1470 C1466 1.350 . S
C1470 C1467 1.463 . S
C1470 N1474 1.427 . S
C1471 H1461 0.929 . S
C1471 C1469 1.433 . S
C1471 N1474 1.384 . S
C1472 H1463 0.929 . S
C1472 C1464 1.378 . S
C1472 C1467 1.350 . S
C1473 H1460 0.929 . S
C1473 C1465 1.433 . S
C1473 N1475 1.384 . S
N1474 C1470 1.427 . S
N1474 C1471 1.384 . S
N1475 C1467 1.427 . S
N1475 C1473 1.384 . S
H1476 C1482 0.930 . S
H1477 C1486 0.930 . S
H1478 C1491 0.929 . S
H1479 C1489 0.929 . S
H1480 C1484 0.929 . S
H1481 C1490 0.929 . S
C1482 H1476 0.930 . S
C1482 C1483 1.367 . S
C1482 C1490 1.378 . S
C1483 C1482 1.367 . S
C1483 C1491 1.433 . S
C1484 H1480 0.929 . S
C1484 C1486 1.378 . S
C1484 C1488 1.350 . S
C1485 C1488 1.463 . S
C1485 C1490 1.350 . S
C1485 N1493 1.427 . S
C1486 H1477 0.930 . S
C1486 C1484 1.378 . S
C1486 C1487 1.367 . S
C1487 C1486 1.367 . S
C1487 C1489 1.433 . S
C1488 C1484 1.350 . S
C1488 C1485 1.463 . S
C1488 N1492 1.427 . S
C1489 H1479 0.929 . S
C1489 C1487 1.433 . S
C1489 N1492 1.384 . S
C1490 H1481 0.929 . S
C1490 C1482 1.378 . S
C1490 C1485 1.350 . S
C1491 H1478 0.929 . S
C1491 C1483 1.433 . S
C1491 N1493 1.384 . S
N1492 C1488 1.427 . S
N1492 C1489 1.384 . S
N1493 C1485 1.427 . S
N1493 C1491 1.384 . S
H1494 C1500 0.930 . S
H1495 C1504 0.930 . S
H1496 C1509 0.929 . S
H1497 C1507 0.929 . S
H1498 C1502 0.929 . S
H1499 C1508 0.929 . S
C1500 H1494 0.930 . S
C1500 C1501 1.367 . S
C1500 C1508 1.378 . S
C1501 C1500 1.367 . S
C1501 C1509 1.433 . S
C1502 H1498 0.929 . S
C1502 C1504 1.378 . S
C1502 C1506 1.350 . S
C1503 C1506 1.463 . S
C1503 C1508 1.350 . S
C1503 N1511 1.427 . S
C1504 H1495 0.930 . S
C1504 C1502 1.378 . S
C1504 C1505 1.367 . S
C1505 C1504 1.367 . S
C1505 C1507 1.433 . S
C1506 C1502 1.350 . S
C1506 C1503 1.463 . S
C1506 N1510 1.427 . S
C1507 H1497 0.929 . S
C1507 C1505 1.433 . S
C1507 N1510 1.384 . S
C1508 H1499 0.929 . S
C1508 C1500 1.378 . S
C1508 C1503 1.350 . S
C1509 H1496 0.929 . S
C1509 C1501 1.433 . S
C1509 N1511 1.384 . S
N1510 C1506 1.427 . S
N1510 C1507 1.384 . S
N1511 C1503 1.427 . S
N1511 C1509 1.384 . S
H1512 C1518 0.930 . S
H1513 C1522 0.930 . S
H1514 C1527 0.929 . S
H1515 C1525 0.929 . S
H1516 C1520 0.929 . S
H1517 C1526 0.929 . S
C1518 H1512 0.930 . S
C1518 C1519 1.367 . S
C1518 C1526 1.378 . S
C1519 C1518 1.367 . S
C1519 C1527 1.433 . S
C1520 H1516 0.929 . S
C1520 C1522 1.378 . S
C1520 C1524 1.350 . S
C1521 C1524 1.463 1_455 S
C1521 C1526 1.350 . S
C1521 N1529 1.427 1_455 S
C1522 H1513 0.930 . S
C1522 C1520 1.378 . S
C1522 C1523 1.367 . S
C1523 C1522 1.367 . S
C1523 C1525 1.433 . S
C1524 C1520 1.350 . S
C1524 C1521 1.463 1_655 S
C1524 N1528 1.427 1_655 S
C1525 H1515 0.929 . S
C1525 C1523 1.433 . S
C1525 N1528 1.384 1_655 S
C1526 H1517 0.929 . S
C1526 C1518 1.378 . S
C1526 C1521 1.350 . S
C1527 H1514 0.929 . S
C1527 C1519 1.433 . S
C1527 N1529 1.384 1_455 S
N1528 C1524 1.427 1_455 S
N1528 C1525 1.384 1_455 S
N1529 C1521 1.427 1_655 S
N1529 C1527 1.384 1_655 S
H1530 C1536 0.930 . S
H1531 C1540 0.930 . S
H1532 C1545 0.929 . S
H1533 C1543 0.929 . S
H1534 C1538 0.929 . S
H1535 C1544 0.929 . S
C1536 H1530 0.930 . S
C1536 C1537 1.367 . S
C1536 C1544 1.378 . S
C1537 C1536 1.367 . S
C1537 C1545 1.433 . S
C1538 H1534 0.929 . S
C1538 C1540 1.378 . S
C1538 C1542 1.350 . S
C1539 C1542 1.463 . S
C1539 C1544 1.350 . S
C1539 N1547 1.427 . S
C1540 H1531 0.930 . S
C1540 C1538 1.378 . S
C1540 C1541 1.367 . S
C1541 C1540 1.367 . S
C1541 C1543 1.433 . S
C1542 C1538 1.350 . S
C1542 C1539 1.463 . S
C1542 N1546 1.427 . S
C1543 H1533 0.929 . S
C1543 C1541 1.433 . S
C1543 N1546 1.384 . S
C1544 H1535 0.929 . S
C1544 C1536 1.378 . S
C1544 C1539 1.350 . S
C1545 H1532 0.929 . S
C1545 C1537 1.433 . S
C1545 N1547 1.384 . S
N1546 C1542 1.427 . S
N1546 C1543 1.384 . S
N1547 C1539 1.427 . S
N1547 C1545 1.384 . S
H1548 C1554 0.930 . S
H1549 C1558 0.930 . S
H1550 C1563 0.929 . S
H1551 C1561 0.929 . S
H1552 C1556 0.929 . S
H1553 C1562 0.929 . S
C1554 H1548 0.930 . S
C1554 C1555 1.367 . S
C1554 C1562 1.378 1_545 S
C1555 C1554 1.367 . S
C1555 C1563 1.433 . S
C1556 H1552 0.929 . S
C1556 C1558 1.378 1_545 S
C1556 C1560 1.350 1_545 S
C1557 C1560 1.463 1_545 S
C1557 C1562 1.350 1_545 S
C1557 N1565 1.427 . S
C1558 H1549 0.930 . S
C1558 C1556 1.378 1_565 S
C1558 C1559 1.367 . S
C1559 C1558 1.367 . S
C1559 C1561 1.433 . S
C1560 C1556 1.350 1_565 S
C1560 C1557 1.463 1_565 S
C1560 N1564 1.427 . S
C1561 H1551 0.929 . S
C1561 C1559 1.433 . S
C1561 N1564 1.384 . S
C1562 H1553 0.929 . S
C1562 C1554 1.378 1_565 S
C1562 C1557 1.350 1_565 S
C1563 H1550 0.929 . S
C1563 C1555 1.433 . S
C1563 N1565 1.384 . S
N1564 C1560 1.427 . S
N1564 C1561 1.384 . S
N1565 C1557 1.427 . S
N1565 C1563 1.384 . S
H1566 C1572 0.930 . S
H1567 C1576 0.930 . S
H1568 C1581 0.929 . S
H1569 C1579 0.929 . S
H1570 C1574 0.929 1_554 S
H1571 C1580 0.929 1_556 S
C1572 H1566 0.930 . S
C1572 C1573 1.367 . S
C1572 C1580 1.378 . S
C1573 C1572 1.367 . S
C1573 C1581 1.433 . S
C1574 H1570 0.929 1_556 S
C1574 C1576 1.378 . S
C1574 C1578 1.350 . S
C1575 C1578 1.463 1_564 S
C1575 C1580 1.350 . S
C1575 N1583 1.427 1_565 S
C1576 H1567 0.930 . S
C1576 C1574 1.378 . S
C1576 C1577 1.367 . S
C1577 C1576 1.367 . S
C1577 C1579 1.433 . S
C1578 C1574 1.350 . S
C1578 C1575 1.463 1_546 S
C1578 N1582 1.427 1_545 S
C1579 H1569 0.929 . S
C1579 C1577 1.433 . S
C1579 N1582 1.384 1_545 S
C1580 H1571 0.929 1_554 S
C1580 C1572 1.378 . S
C1580 C1575 1.350 . S
C1581 H1568 0.929 . S
C1581 C1573 1.433 . S
C1581 N1583 1.384 1_565 S
N1582 C1578 1.427 1_565 S
N1582 C1579 1.384 1_565 S
N1583 C1575 1.427 1_545 S
N1583 C1581 1.384 1_545 S
H1584 C1590 0.930 . S
H1585 C1594 0.930 . S
H1586 C1599 0.929 . S
H1587 C1597 0.929 . S
H1588 C1592 0.929 1_655 S
H1589 C1598 0.929 1_455 S
C1590 H1584 0.930 . S
C1590 C1591 1.367 . S
C1590 C1598 1.378 . S
C1591 C1590 1.367 . S
C1591 C1599 1.433 . S
C1592 H1588 0.929 1_455 S
C1592 C1594 1.378 . S
C1592 C1596 1.350 . S
C1593 C1596 1.463 1_656 S
C1593 C1598 1.350 . S
C1593 N1601 1.427 . S
C1594 H1585 0.930 . S
C1594 C1592 1.378 . S
C1594 C1595 1.367 . S
C1595 C1594 1.367 . S
C1595 C1597 1.433 . S
C1596 C1592 1.350 . S
C1596 C1593 1.463 1_454 S
C1596 N1600 1.427 . S
C1597 H1587 0.929 . S
C1597 C1595 1.433 . S
C1597 N1600 1.384 . S
C1598 H1589 0.929 1_655 S
C1598 C1590 1.378 . S
C1598 C1593 1.350 . S
C1599 H1586 0.929 . S
C1599 C1591 1.433 . S
C1599 N1601 1.384 . S
N1600 C1596 1.427 . S
N1600 C1597 1.384 . S
N1601 C1593 1.427 . S
N1601 C1599 1.384 . S
H1602 C1608 0.930 . S
H1603 C1612 0.930 . S
H1604 C1617 0.929 . S
H1605 C1615 0.929 . S
H1606 C1610 0.929 . S
H1607 C1616 0.929 . S
C1608 H1602 0.930 . S
C1608 C1609 1.367 . S
C1608 C1616 1.378 . S
C1609 C1608 1.367 . S
C1609 C1617 1.433 . S
C1610 H1606 0.929 . S
C1610 C1612 1.378 . S
C1610 C1614 1.350 . S
C1611 C1614 1.463 1_556 S
C1611 C1616 1.350 . S
C1611 N1619 1.427 . S
C1612 H1603 0.930 . S
C1612 C1610 1.378 . S
C1612 C1613 1.367 . S
C1613 C1612 1.367 . S
C1613 C1615 1.433 . S
C1614 C1610 1.350 . S
C1614 C1611 1.463 1_554 S
C1614 N1618 1.427 . S
C1615 H1605 0.929 . S
C1615 C1613 1.433 . S
C1615 N1618 1.384 . S
C1616 H1607 0.929 . S
C1616 C1608 1.378 . S
C1616 C1611 1.350 . S
C1617 H1604 0.929 . S
C1617 C1609 1.433 . S
C1617 N1619 1.384 . S
N1618 C1614 1.427 . S
N1618 C1615 1.384 . S
N1619 C1611 1.427 . S
N1619 C1617 1.384 . S
H1620 C1626 0.930 . S
H1621 C1630 0.930 . S
H1622 C1635 0.929 . S
H1623 C1633 0.929 . S
H1624 C1628 0.929 . S
H1625 C1634 0.929 . S
C1626 H1620 0.930 . S
C1626 C1627 1.367 . S
C1626 C1634 1.378 1_545 S
C1627 C1626 1.367 . S
C1627 C1635 1.433 . S
C1628 H1624 0.929 . S
C1628 C1630 1.378 . S
C1628 C1632 1.350 . S
C1629 C1632 1.463 . S
C1629 C1634 1.350 . S
C1629 N1637 1.427 1_565 S
C1630 H1621 0.930 . S
C1630 C1628 1.378 . S
C1630 C1631 1.367 . S
C1631 C1630 1.367 . S
C1631 C1633 1.433 . S
C1632 C1628 1.350 . S
C1632 C1629 1.463 . S
C1632 N1636 1.427 . S
C1633 H1623 0.929 . S
C1633 C1631 1.433 . S
C1633 N1636 1.384 . S
C1634 H1625 0.929 . S
C1634 C1626 1.378 1_565 S
C1634 C1629 1.350 . S
C1635 H1622 0.929 . S
C1635 C1627 1.433 . S
C1635 N1637 1.384 . S
N1636 C1632 1.427 . S
N1636 C1633 1.384 . S
N1637 C1629 1.427 1_545 S
N1637 C1635 1.384 . S
H1638 C1644 0.930 . S
H1639 C1648 0.930 . S
H1640 C1653 0.929 . S
H1641 C1651 0.929 . S
H1642 C1646 0.929 . S
H1643 C1652 0.929 . S
C1644 H1638 0.930 . S
C1644 C1645 1.367 . S
C1644 C1652 1.378 . S
C1645 C1644 1.367 . S
C1645 C1653 1.433 . S
C1646 H1642 0.929 . S
C1646 C1648 1.378 . S
C1646 C1650 1.350 1_655 S
C1647 C1650 1.463 . S
C1647 C1652 1.350 . S
C1647 N1655 1.427 . S
C1648 H1639 0.930 . S
C1648 C1646 1.378 . S
C1648 C1649 1.367 . S
C1649 C1648 1.367 . S
C1649 C1651 1.433 . S
C1650 C1646 1.350 1_455 S
C1650 C1647 1.463 . S
C1650 N1654 1.427 1_455 S
C1651 H1641 0.929 . S
C1651 C1649 1.433 . S
C1651 N1654 1.384 . S
C1652 H1643 0.929 . S
C1652 C1644 1.378 . S
C1652 C1647 1.350 . S
C1653 H1640 0.929 . S
C1653 C1645 1.433 . S
C1653 N1655 1.384 . S
N1654 C1650 1.427 1_655 S
N1654 C1651 1.384 . S
N1655 C1647 1.427 . S
N1655 C1653 1.384 . S
H1656 C1662 0.930 . S
H1657 C1666 0.930 . S
H1658 C1671 0.929 . S
H1659 C1669 0.929 . S
H1660 C1664 0.929 . S
H1661 C1670 0.929 . S
C1662 H1656 0.930 . S
C1662 C1663 1.367 . S
C1662 C1670 1.378 . S
C1663 C1662 1.367 . S
C1663 C1671 1.433 . S
C1664 H1660 0.929 . S
C1664 C1666 1.378 . S
C1664 C1668 1.350 . S
C1665 C1668 1.463 . S
C1665 C1670 1.350 . S
C1665 N1673 1.427 . S
C1666 H1657 0.930 . S
C1666 C1664 1.378 . S
C1666 C1667 1.367 . S
C1667 C1666 1.367 . S
C1667 C1669 1.433 . S
C1668 C1664 1.350 . S
C1668 C1665 1.463 . S
C1668 N1672 1.427 . S
C1669 H1659 0.929 . S
C1669 C1667 1.433 . S
C1669 N1672 1.384 . S
C1670 H1661 0.929 . S
C1670 C1662 1.378 . S
C1670 C1665 1.350 . S
C1671 H1658 0.929 . S
C1671 C1663 1.433 . S
C1671 N1673 1.384 . S
N1672 C1668 1.427 . S
N1672 C1669 1.384 . S
N1673 C1665 1.427 . S
N1673 C1671 1.384 . S
H1674 C1680 0.930 . S
H1675 C1684 0.930 . S
H1676 C1689 0.929 . S
H1677 C1687 0.929 . S
H1678 C1682 0.929 . S
H1679 C1688 0.929 1_455 S
C1680 H1674 0.930 . S
C1680 C1681 1.367 . S
C1680 C1688 1.378 . S
C1681 C1680 1.367 . S
C1681 C1689 1.433 . S
C1682 H1678 0.929 . S
C1682 C1684 1.378 . S
C1682 C1686 1.350 . S
C1683 C1686 1.463 . S
C1683 C1688 1.350 . S
C1683 N1691 1.427 . S
C1684 H1675 0.930 . S
C1684 C1682 1.378 . S
C1684 C1685 1.367 1_655 S
C1685 C1684 1.367 1_455 S
C1685 C1687 1.433 . S
C1686 C1682 1.350 . S
C1686 C1683 1.463 . S
C1686 N1690 1.427 1_655 S
C1687 H1677 0.929 . S
C1687 C1685 1.433 . S
C1687 N1690 1.384 . S
C1688 H1679 0.929 1_655 S
C1688 C1680 1.378 . S
C1688 C1683 1.350 . S
C1689 H1676 0.929 . S
C1689 C1681 1.433 . S
C1689 N1691 1.384 . S
N1690 C1686 1.427 1_455 S
N1690 C1687 1.384 . S
N1691 C1683 1.427 . S
N1691 C1689 1.384 . S
H1692 C1698 0.930 . S
H1693 C1702 0.930 . S
H1694 C1707 0.929 . S
H1695 C1705 0.929 . S
H1696 C1700 0.929 . S
H1697 C1706 0.929 . S
C1698 H1692 0.930 . S
C1698 C1699 1.367 . S
C1698 C1706 1.378 . S
C1699 C1698 1.367 . S
C1699 C1707 1.433 . S
C1700 H1696 0.929 . S
C1700 C1702 1.378 . S
C1700 C1704 1.350 . S
C1701 C1704 1.463 . S
C1701 C1706 1.350 . S
C1701 N1709 1.427 . S
C1702 H1693 0.930 . S
C1702 C1700 1.378 . S
C1702 C1703 1.367 . S
C1703 C1702 1.367 . S
C1703 C1705 1.433 . S
C1704 C1700 1.350 . S
C1704 C1701 1.463 . S
C1704 N1708 1.427 . S
C1705 H1695 0.929 . S
C1705 C1703 1.433 . S
C1705 N1708 1.384 . S
C1706 H1697 0.929 . S
C1706 C1698 1.378 . S
C1706 C1701 1.350 . S
C1707 H1694 0.929 . S
C1707 C1699 1.433 . S
C1707 N1709 1.384 . S
N1708 C1704 1.427 . S
N1708 C1705 1.384 . S
N1709 C1701 1.427 . S
N1709 C1707 1.384 . S
H1710 C1716 0.930 . S
H1711 C1720 0.930 . S
H1712 C1725 0.929 . S
H1713 C1723 0.929 . S
H1714 C1718 0.929 1_545 S
H1715 C1724 0.929 . S
C1716 H1710 0.930 . S
C1716 C1717 1.367 . S
C1716 C1724 1.378 . S
C1717 C1716 1.367 . S
C1717 C1725 1.433 . S
C1718 H1714 0.929 1_565 S
C1718 C1720 1.378 . S
C1718 C1722 1.350 1_565 S
C1719 C1722 1.463 . S
C1719 C1724 1.350 . S
C1719 N1727 1.427 . S
C1720 H1711 0.930 . S
C1720 C1718 1.378 . S
C1720 C1721 1.367 . S
C1721 C1720 1.367 . S
C1721 C1723 1.433 . S
C1722 C1718 1.350 1_545 S
C1722 C1719 1.463 . S
C1722 N1726 1.427 1_545 S
C1723 H1713 0.929 . S
C1723 C1721 1.433 . S
C1723 N1726 1.384 . S
C1724 H1715 0.929 . S
C1724 C1716 1.378 . S
C1724 C1719 1.350 . S
C1725 H1712 0.929 . S
C1725 C1717 1.433 . S
C1725 N1727 1.384 . S
N1726 C1722 1.427 1_565 S
N1726 C1723 1.384 . S
N1727 C1719 1.427 . S
N1727 C1725 1.384 . S
H1728 C1734 0.930 . S
H1729 C1738 0.930 . S
H1730 C1743 0.929 . S
H1731 C1741 0.929 . S
H1732 C1736 0.923 1_565 S
H1733 C1742 0.929 . S
C1734 H1728 0.930 . S
C1734 C1735 1.367 1_545 S
C1734 C1742 1.378 . S
C1735 C1734 1.367 1_565 S
C1735 C1743 1.433 . S
C1736 H1732 0.923 1_545 S
C1736 C1738 1.383 . S
C1736 C1740 1.351 . S
C1737 C1740 1.463 . S
C1737 C1742 1.350 . S
C1737 N1745 1.427 1_545 S
C1738 H1729 0.930 . S
C1738 C1736 1.383 . S
C1738 C1739 1.367 . S
C1739 C1738 1.367 . S
C1739 C1741 1.433 . S
C1740 C1736 1.351 . S
C1740 C1737 1.463 . S
C1740 N1744 1.427 . S
C1741 H1731 0.929 . S
C1741 C1739 1.433 . S
C1741 N1744 1.384 . S
C1742 H1733 0.929 . S
C1742 C1734 1.378 . S
C1742 C1737 1.350 . S
C1743 H1730 0.929 . S
C1743 C1735 1.433 . S
C1743 N1745 1.384 . S
N1744 C1740 1.427 . S
N1744 C1741 1.384 . S
N1745 C1737 1.427 1_565 S
N1745 C1743 1.384 . S
H1746 C1752 0.930 . S
H1747 C1756 0.930 1_655 S
H1748 C1761 0.929 . S
H1749 C1759 0.929 . S
H1750 C1754 0.929 . S
H1751 C1760 0.929 1_455 S
C1752 H1746 0.930 . S
C1752 C1753 1.367 . S
C1752 C1760 1.378 . S
C1753 C1752 1.367 . S
C1753 C1761 1.433 . S
C1754 H1750 0.929 . S
C1754 C1756 1.378 1_655 S
C1754 C1758 1.350 . S
C1755 C1758 1.463 . S
C1755 C1760 1.350 . S
C1755 N1763 1.427 . S
C1756 H1747 0.930 1_455 S
C1756 C1754 1.378 1_455 S
C1756 C1757 1.367 . S
C1757 C1756 1.367 . S
C1757 C1759 1.433 . S
C1758 C1754 1.350 . S
C1758 C1755 1.463 . S
C1758 N1762 1.427 1_655 S
C1759 H1749 0.929 . S
C1759 C1757 1.433 . S
C1759 N1762 1.384 . S
C1760 H1751 0.929 1_655 S
C1760 C1752 1.378 . S
C1760 C1755 1.350 . S
C1761 H1748 0.929 . S
C1761 C1753 1.433 . S
C1761 N1763 1.384 . S
N1762 C1758 1.427 1_455 S
N1762 C1759 1.384 . S
N1763 C1755 1.427 . S
N1763 C1761 1.384 . S
H1764 C1770 0.930 . S
H1765 C1774 0.930 . S
H1766 C1779 0.929 . S
H1767 C1777 0.929 . S
H1768 C1772 0.929 . S
H1769 C1778 0.929 . S
C1770 H1764 0.930 . S
C1770 C1771 1.367 . S
C1770 C1778 1.378 . S
C1771 C1770 1.367 . S
C1771 C1779 1.433 . S
C1772 H1768 0.929 . S
C1772 C1774 1.378 . S
C1772 C1776 1.350 . S
C1773 C1776 1.463 . S
C1773 C1778 1.350 . S
C1773 N1781 1.427 . S
C1774 H1765 0.930 . S
C1774 C1772 1.378 . S
C1774 C1775 1.367 . S
C1775 C1774 1.367 . S
C1775 C1777 1.433 . S
C1776 C1772 1.350 . S
C1776 C1773 1.463 . S
C1776 N1780 1.427 . S
C1777 H1767 0.929 . S
C1777 C1775 1.433 . S
C1777 N1780 1.384 . S
C1778 H1769 0.929 . S
C1778 C1770 1.378 . S
C1778 C1773 1.350 . S
C1779 H1766 0.929 . S
C1779 C1771 1.433 . S
C1779 N1781 1.384 . S
N1780 C1776 1.427 . S
N1780 C1777 1.384 . S
N1781 C1773 1.427 . S
N1781 C1779 1.384 . S
H1782 C1788 0.930 . S
H1783 C1792 0.930 . S
H1784 C1797 0.929 . S
H1785 C1795 0.929 . S
H1786 C1790 0.929 . S
H1787 C1796 0.929 . S
C1788 H1782 0.930 . S
C1788 C1789 1.367 . S
C1788 C1796 1.378 . S
C1789 C1788 1.367 . S
C1789 C1797 1.433 . S
C1790 H1786 0.929 . S
C1790 C1792 1.378 . S
C1790 C1794 1.350 . S
C1791 C1794 1.463 . S
C1791 C1796 1.350 1_455 S
C1791 N1799 1.427 . S
C1792 H1783 0.930 . S
C1792 C1790 1.378 . S
C1792 C1793 1.367 . S
C1793 C1792 1.367 . S
C1793 C1795 1.433 . S
C1794 C1790 1.350 . S
C1794 C1791 1.463 . S
C1794 N1798 1.427 . S
C1795 H1785 0.929 . S
C1795 C1793 1.433 . S
C1795 N1798 1.384 . S
C1796 H1787 0.929 . S
C1796 C1788 1.378 . S
C1796 C1791 1.350 1_655 S
C1797 H1784 0.929 . S
C1797 C1789 1.433 . S
C1797 N1799 1.384 1_655 S
N1798 C1794 1.427 . S
N1798 C1795 1.384 . S
N1799 C1791 1.427 . S
N1799 C1797 1.384 1_455 S
H1800 C1806 0.930 . S
H1801 C1810 0.930 . S
H1802 C1815 0.929 . S
H1803 C1813 0.929 . S
H1804 C1808 0.929 . S
H1805 C1814 0.929 . S
C1806 H1800 0.930 . S
C1806 C1807 1.367 . S
C1806 C1814 1.378 . S
C1807 C1806 1.367 . S
C1807 C1815 1.433 . S
C1808 H1804 0.929 . S
C1808 C1810 1.378 . S
C1808 C1812 1.350 . S
C1809 C1812 1.463 . S
C1809 C1814 1.350 . S
C1809 N1817 1.427 . S
C1810 H1801 0.930 . S
C1810 C1808 1.378 . S
C1810 C1811 1.367 . S
C1811 C1810 1.367 . S
C1811 C1813 1.433 . S
C1812 C1808 1.350 . S
C1812 C1809 1.463 . S
C1812 N1816 1.427 . S
C1813 H1803 0.929 . S
C1813 C1811 1.433 . S
C1813 N1816 1.384 . S
C1814 H1805 0.929 . S
C1814 C1806 1.378 . S
C1814 C1809 1.350 . S
C1815 H1802 0.929 . S
C1815 C1807 1.433 . S
C1815 N1817 1.384 . S
N1816 C1812 1.427 . S
N1816 C1813 1.384 . S
N1817 C1809 1.427 . S
N1817 C1815 1.384 . S
H1818 C1824 0.925 1_565 S
H1819 C1828 0.930 . S
H1820 C1833 0.929 . S
H1821 C1831 0.929 . S
H1822 C1826 0.929 1_545 S
H1823 C1832 0.929 . S
C1824 H1818 0.925 1_545 S
C1824 C1825 1.372 . S
C1824 C1832 1.378 1_545 S
C1825 C1824 1.372 . S
C1825 C1833 1.433 . S
C1826 H1822 0.929 1_565 S
C1826 C1828 1.378 . S
C1826 C1830 1.350 . S
C1827 C1830 1.463 . S
C1827 C1832 1.350 . S
C1827 N1835 1.427 1_565 S
C1828 H1819 0.930 . S
C1828 C1826 1.378 . S
C1828 C1829 1.367 . S
C1829 C1828 1.367 . S
C1829 C1831 1.433 . S
C1830 C1826 1.350 . S
C1830 C1827 1.463 . S
C1830 N1834 1.427 . S
C1831 H1821 0.929 . S
C1831 C1829 1.433 . S
C1831 N1834 1.384 . S
C1832 H1823 0.929 . S
C1832 C1824 1.378 1_565 S
C1832 C1827 1.350 . S
C1833 H1820 0.929 . S
C1833 C1825 1.433 . S
C1833 N1835 1.384 . S
N1834 C1830 1.427 . S
N1834 C1831 1.384 . S
N1835 C1827 1.427 1_545 S
N1835 C1833 1.384 . S
H1836 C1842 0.930 . S
H1837 C1846 0.930 . S
H1838 C1851 0.929 . S
H1839 C1849 0.929 . S
H1840 C1844 0.929 . S
H1841 C1850 0.929 . S
C1842 H1836 0.930 . S
C1842 C1843 1.367 . S
C1842 C1850 1.378 . S
C1843 C1842 1.367 . S
C1843 C1851 1.433 . S
C1844 H1840 0.929 . S
C1844 C1846 1.378 . S
C1844 C1848 1.350 . S
C1845 C1848 1.463 . S
C1845 C1850 1.350 . S
C1845 N1853 1.427 . S
C1846 H1837 0.930 . S
C1846 C1844 1.378 . S
C1846 C1847 1.367 . S
C1847 C1846 1.367 . S
C1847 C1849 1.433 . S
C1848 C1844 1.350 . S
C1848 C1845 1.463 . S
C1848 N1852 1.427 . S
C1849 H1839 0.929 . S
C1849 C1847 1.433 . S
C1849 N1852 1.384 . S
C1850 H1841 0.929 . S
C1850 C1842 1.378 . S
C1850 C1845 1.350 . S
C1851 H1838 0.929 . S
C1851 C1843 1.433 . S
C1851 N1853 1.384 . S
N1852 C1848 1.427 . S
N1852 C1849 1.384 . S
N1853 C1845 1.427 . S
N1853 C1851 1.384 . S
H1854 C1860 0.930 . S
H1855 C1864 0.930 . S
H1856 C1869 0.929 . S
H1857 C1867 0.929 . S
H1858 C1862 0.929 . S
H1859 C1868 0.929 . S
C1860 H1854 0.930 . S
C1860 C1861 1.367 . S
C1860 C1868 1.378 . S
C1861 C1860 1.367 . S
C1861 C1869 1.433 . S
C1862 H1858 0.929 . S
C1862 C1864 1.378 . S
C1862 C1866 1.350 . S
C1863 C1866 1.463 1_545 S
C1863 C1868 1.350 . S
C1863 N1871 1.427 . S
C1864 H1855 0.930 . S
C1864 C1862 1.378 . S
C1864 C1865 1.367 . S
C1865 C1864 1.367 . S
C1865 C1867 1.433 . S
C1866 C1862 1.350 . S
C1866 C1863 1.463 1_565 S
C1866 N1870 1.427 . S
C1867 H1857 0.929 . S
C1867 C1865 1.433 . S
C1867 N1870 1.384 . S
C1868 H1859 0.929 . S
C1868 C1860 1.378 . S
C1868 C1863 1.350 . S
C1869 H1856 0.929 . S
C1869 C1861 1.433 . S
C1869 N1871 1.384 . S
N1870 C1866 1.427 . S
N1870 C1867 1.384 . S
N1871 C1863 1.427 . S
N1871 C1869 1.384 . S
H1872 C1878 0.930 . S
H1873 C1882 0.930 . S
H1874 C1887 0.929 . S
H1875 C1885 0.929 . S
H1876 C1880 0.929 . S
H1877 C1886 0.929 . S
C1878 H1872 0.930 . S
C1878 C1879 1.367 . S
C1878 C1886 1.378 . S
C1879 C1878 1.367 . S
C1879 C1887 1.433 . S
C1880 H1876 0.929 . S
C1880 C1882 1.378 . S
C1880 C1884 1.350 . S
C1881 C1884 1.463 1_655 S
C1881 C1886 1.350 . S
C1881 N1889 1.427 . S
C1882 H1873 0.930 . S
C1882 C1880 1.378 . S
C1882 C1883 1.367 . S
C1883 C1882 1.367 . S
C1883 C1885 1.433 . S
C1884 C1880 1.350 . S
C1884 C1881 1.463 1_455 S
C1884 N1888 1.427 . S
C1885 H1875 0.929 . S
C1885 C1883 1.433 . S
C1885 N1888 1.384 . S
C1886 H1877 0.929 . S
C1886 C1878 1.378 . S
C1886 C1881 1.350 . S
C1887 H1874 0.929 . S
C1887 C1879 1.433 . S
C1887 N1889 1.384 . S
N1888 C1884 1.427 . S
N1888 C1885 1.384 . S
N1889 C1881 1.427 . S
N1889 C1887 1.384 . S
H1890 C1896 0.930 . S
H1891 C1900 0.930 . S
H1892 C1905 0.929 . S
H1893 C1903 0.929 . S
H1894 C1898 0.929 . S
H1895 C1904 0.929 . S
C1896 H1890 0.930 . S
C1896 C1897 1.367 . S
C1896 C1904 1.378 . S
C1897 C1896 1.367 . S
C1897 C1905 1.433 . S
C1898 H1894 0.929 . S
C1898 C1900 1.378 . S
C1898 C1902 1.350 . S
C1899 C1902 1.463 . S
C1899 C1904 1.350 . S
C1899 N1907 1.427 . S
C1900 H1891 0.930 . S
C1900 C1898 1.378 . S
C1900 C1901 1.367 . S
C1901 C1900 1.367 . S
C1901 C1903 1.433 . S
C1902 C1898 1.350 . S
C1902 C1899 1.463 . S
C1902 N1906 1.427 . S
C1903 H1893 0.929 . S
C1903 C1901 1.433 . S
C1903 N1906 1.384 . S
C1904 H1895 0.929 . S
C1904 C1896 1.378 . S
C1904 C1899 1.350 . S
C1905 H1892 0.929 . S
C1905 C1897 1.433 . S
C1905 N1907 1.384 . S
N1906 C1902 1.427 . S
N1906 C1903 1.384 . S
N1907 C1899 1.427 . S
N1907 C1905 1.384 . S
H1908 C1914 0.930 . S
H1909 C1918 0.930 . S
H1910 C1923 0.929 . S
H1911 C1921 0.929 . S
H1912 C1916 0.929 . S
H1913 C1922 0.929 . S
C1914 H1908 0.930 . S
C1914 C1915 1.367 . S
C1914 C1922 1.378 . S
C1915 C1914 1.367 . S
C1915 C1923 1.433 . S
C1916 H1912 0.929 . S
C1916 C1918 1.378 . S
C1916 C1920 1.350 . S
C1917 C1920 1.463 1_565 S
C1917 C1922 1.350 . S
C1917 N1925 1.427 . S
C1918 H1909 0.930 . S
C1918 C1916 1.378 . S
C1918 C1919 1.367 . S
C1919 C1918 1.367 . S
C1919 C1921 1.433 . S
C1920 C1916 1.350 . S
C1920 C1917 1.463 1_545 S
C1920 N1924 1.427 . S
C1921 H1911 0.929 . S
C1921 C1919 1.433 . S
C1921 N1924 1.384 . S
C1922 H1913 0.929 . S
C1922 C1914 1.378 . S
C1922 C1917 1.350 . S
C1923 H1910 0.929 . S
C1923 C1915 1.433 . S
C1923 N1925 1.384 . S
N1924 C1920 1.427 . S
N1924 C1921 1.384 . S
N1925 C1917 1.427 . S
N1925 C1923 1.384 . S
H1926 C1932 0.930 . S
H1927 C1936 0.930 . S
H1928 C1941 0.929 . S
H1929 C1939 0.929 . S
H1930 C1934 0.929 . S
H1931 C1940 0.929 . S
C1932 H1926 0.930 . S
C1932 C1933 1.367 . S
C1932 C1940 1.378 . S
C1933 C1932 1.367 . S
C1933 C1941 1.433 . S
C1934 H1930 0.929 . S
C1934 C1936 1.378 . S
C1934 C1938 1.350 . S
C1935 C1938 1.463 1_655 S
C1935 C1940 1.350 . S
C1935 N1943 1.427 . S
C1936 H1927 0.930 . S
C1936 C1934 1.378 . S
C1936 C1937 1.367 . S
C1937 C1936 1.367 . S
C1937 C1939 1.433 . S
C1938 C1934 1.350 . S
C1938 C1935 1.463 1_455 S
C1938 N1942 1.427 . S
C1939 H1929 0.929 . S
C1939 C1937 1.433 . S
C1939 N1942 1.384 . S
C1940 H1931 0.929 . S
C1940 C1932 1.378 . S
C1940 C1935 1.350 . S
C1941 H1928 0.929 . S
C1941 C1933 1.433 . S
C1941 N1943 1.384 . S
N1942 C1938 1.427 . S
N1942 C1939 1.384 . S
N1943 C1935 1.427 . S
N1943 C1941 1.384 . S
H1944 C1950 0.930 1_655 S
H1945 C1954 0.930 . S
H1946 C1959 0.929 . S
H1947 C1957 0.929 . S
H1948 C1952 0.929 . S
H1949 C1958 0.929 . S
C1950 H1944 0.930 1_455 S
C1950 C1951 1.367 . S
C1950 C1958 1.378 . S
C1951 C1950 1.367 . S
C1951 C1959 1.433 . S
C1952 H1948 0.929 . S
C1952 C1954 1.378 . S
C1952 C1956 1.350 . S
C1953 C1956 1.463 . S
C1953 C1958 1.350 . S
C1953 N1961 1.427 . S
C1954 H1945 0.930 . S
C1954 C1952 1.378 . S
C1954 C1955 1.367 . S
C1955 C1954 1.367 . S
C1955 C1957 1.433 . S
C1956 C1952 1.350 . S
C1956 C1953 1.463 . S
C1956 N1960 1.427 . S
C1957 H1947 0.929 . S
C1957 C1955 1.433 . S
C1957 N1960 1.384 . S
C1958 H1949 0.929 . S
C1958 C1950 1.378 . S
C1958 C1953 1.350 . S
C1959 H1946 0.929 . S
C1959 C1951 1.433 . S
C1959 N1961 1.384 . S
N1960 C1956 1.427 . S
N1960 C1957 1.384 . S
N1961 C1953 1.427 . S
N1961 C1959 1.384 . S
H1962 C1968 0.930 . S
H1963 C1972 0.930 . S
H1964 C1977 0.929 . S
H1965 C1975 0.929 . S
H1966 C1970 0.929 . S
H1967 C1976 0.929 . S
C1968 H1962 0.930 . S
C1968 C1969 1.367 . S
C1968 C1976 1.378 1_545 S
C1969 C1968 1.367 . S
C1969 C1977 1.433 . S
C1970 H1966 0.929 . S
C1970 C1972 1.378 . S
C1970 C1974 1.350 . S
C1971 C1974 1.463 . S
C1971 C1976 1.350 . S
C1971 N1979 1.427 . S
C1972 H1963 0.930 . S
C1972 C1970 1.378 . S
C1972 C1973 1.367 . S
C1973 C1972 1.367 . S
C1973 C1975 1.433 . S
C1974 C1970 1.350 . S
C1974 C1971 1.463 . S
C1974 N1978 1.427 . S
C1975 H1965 0.929 . S
C1975 C1973 1.433 . S
C1975 N1978 1.384 . S
C1976 H1967 0.929 . S
C1976 C1968 1.378 1_565 S
C1976 C1971 1.350 . S
C1977 H1964 0.929 . S
C1977 C1969 1.433 . S
C1977 N1979 1.384 1_545 S
N1978 C1974 1.427 . S
N1978 C1975 1.384 . S
N1979 C1971 1.427 . S
N1979 C1977 1.384 1_565 S
H1980 C1986 0.930 . S
H1981 C1990 0.930 . S
H1982 C1995 0.929 . S
H1983 C1993 0.929 1_545 S
H1984 C1988 0.929 . S
H1985 C1994 0.929 . S
C1986 H1980 0.930 . S
C1986 C1987 1.367 . S
C1986 C1994 1.378 1_655 S
C1987 C1986 1.367 . S
C1987 C1995 1.433 . S
C1988 H1984 0.929 . S
C1988 C1990 1.378 . S
C1988 C1992 1.350 . S
C1989 C1992 1.463 . S
C1989 C1994 1.350 . S
C1989 N1997 1.427 . S
C1990 H1981 0.930 . S
C1990 C1988 1.378 . S
C1990 C1991 1.367 . S
C1991 C1990 1.367 . S
C1991 C1993 1.433 . S
C1992 C1988 1.350 . S
C1992 C1989 1.463 . S
C1992 N1996 1.427 . S
C1993 H1983 0.929 1_565 S
C1993 C1991 1.433 . S
C1993 N1996 1.384 . S
C1994 H1985 0.929 . S
C1994 C1986 1.378 1_455 S
C1994 C1989 1.350 . S
C1995 H1982 0.929 . S
C1995 C1987 1.433 . S
C1995 N1997 1.384 1_655 S
N1996 C1992 1.427 . S
N1996 C1993 1.384 . S
N1997 C1989 1.427 . S
N1997 C1995 1.384 1_455 S
H1998 C2004 0.930 . S
H1999 C2008 0.930 . S
H2000 C2013 0.929 . S
H2001 C2011 0.929 . S
H2002 C2006 0.929 . S
H2003 C2012 0.929 . S
C2004 H1998 0.930 . S
C2004 C2005 1.367 . S
C2004 C2012 1.378 . S
C2005 C2004 1.367 . S
C2005 C2013 1.433 . S
C2006 H2002 0.929 . S
C2006 C2008 1.378 . S
C2006 C2010 1.350 . S
C2007 C2010 1.463 . S
C2007 C2012 1.350 . S
C2007 N2015 1.427 . S
C2008 H1999 0.930 . S
C2008 C2006 1.378 . S
C2008 C2009 1.367 . S
C2009 C2008 1.367 . S
C2009 C2011 1.433 . S
C2010 C2006 1.350 . S
C2010 C2007 1.463 . S
C2010 N2014 1.427 . S
C2011 H2001 0.929 . S
C2011 C2009 1.433 . S
C2011 N2014 1.384 . S
C2012 H2003 0.929 . S
C2012 C2004 1.378 . S
C2012 C2007 1.350 . S
C2013 H2000 0.929 . S
C2013 C2005 1.433 . S
C2013 N2015 1.384 . S
N2014 C2010 1.427 . S
N2014 C2011 1.384 . S
N2015 C2007 1.427 . S
N2015 C2013 1.384 . S
H2016 C2022 0.930 . S
H2017 C2026 0.930 . S
H2018 C2031 0.929 1_455 S
H2019 C2029 0.929 . S
H2020 C2024 0.929 . S
H2021 C2030 0.929 . S
C2022 H2016 0.930 . S
C2022 C2023 1.367 . S
C2022 C2030 1.378 . S
C2023 C2022 1.367 . S
C2023 C2031 1.433 . S
C2024 H2020 0.929 . S
C2024 C2026 1.378 1_545 S
C2024 C2028 1.350 . S
C2025 C2028 1.463 . S
C2025 C2030 1.350 . S
C2025 N2033 1.427 . S
C2026 H2017 0.930 . S
C2026 C2024 1.378 1_565 S
C2026 C2027 1.367 . S
C2027 C2026 1.367 . S
C2027 C2029 1.433 . S
C2028 C2024 1.350 . S
C2028 C2025 1.463 . S
C2028 N2032 1.427 . S
C2029 H2019 0.929 . S
C2029 C2027 1.433 . S
C2029 N2032 1.384 1_565 S
C2030 H2021 0.929 . S
C2030 C2022 1.378 . S
C2030 C2025 1.350 . S
C2031 H2018 0.929 1_655 S
C2031 C2023 1.433 . S
C2031 N2033 1.384 . S
N2032 C2028 1.427 . S
N2032 C2029 1.384 1_545 S
N2033 C2025 1.427 . S
N2033 C2031 1.384 . S
H2034 C2040 0.930 . S
H2035 C2044 0.930 . S
H2036 C2049 0.929 . S
H2037 C2047 0.929 . S
H2038 C2042 0.929 . S
H2039 C2048 0.929 . S
C2040 H2034 0.930 . S
C2040 C2041 1.367 . S
C2040 C2048 1.378 1_455 S
C2041 C2040 1.367 . S
C2041 C2049 1.433 . S
C2042 H2038 0.929 . S
C2042 C2044 1.378 . S
C2042 C2046 1.350 . S
C2043 C2046 1.463 . S
C2043 C2048 1.350 . S
C2043 N2051 1.427 1_655 S
C2044 H2035 0.930 . S
C2044 C2042 1.378 . S
C2044 C2045 1.367 . S
C2045 C2044 1.367 . S
C2045 C2047 1.433 . S
C2046 C2042 1.350 . S
C2046 C2043 1.463 . S
C2046 N2050 1.427 . S
C2047 H2037 0.929 . S
C2047 C2045 1.433 . S
C2047 N2050 1.384 . S
C2048 H2039 0.929 . S
C2048 C2040 1.378 1_655 S
C2048 C2043 1.350 . S
C2049 H2036 0.929 . S
C2049 C2041 1.433 . S
C2049 N2051 1.384 . S
N2050 C2046 1.427 . S
N2050 C2047 1.384 . S
N2051 C2043 1.427 1_455 S
N2051 C2049 1.384 . S
H2052 C2058 0.930 . S
H2053 C2062 0.930 . S
H2054 C2067 0.929 . S
H2055 C2065 0.929 . S
H2056 C2060 0.929 . S
H2057 C2066 0.929 . S
C2058 H2052 0.930 . S
C2058 C2059 1.367 . S
C2058 C2066 1.378 . S
C2059 C2058 1.367 . S
C2059 C2067 1.433 . S
C2060 H2056 0.929 . S
C2060 C2062 1.378 . S
C2060 C2064 1.350 . S
C2061 C2064 1.463 . S
C2061 C2066 1.350 . S
C2061 N2069 1.427 . S
C2062 H2053 0.930 . S
C2062 C2060 1.378 . S
C2062 C2063 1.367 . S
C2063 C2062 1.367 . S
C2063 C2065 1.433 . S
C2064 C2060 1.350 . S
C2064 C2061 1.463 . S
C2064 N2068 1.427 . S
C2065 H2055 0.929 . S
C2065 C2063 1.433 . S
C2065 N2068 1.384 . S
C2066 H2057 0.929 . S
C2066 C2058 1.378 . S
C2066 C2061 1.350 . S
C2067 H2054 0.929 . S
C2067 C2059 1.433 . S
C2067 N2069 1.384 . S
N2068 C2064 1.427 . S
N2068 C2065 1.384 . S
N2069 C2061 1.427 . S
N2069 C2067 1.384 . S
H2070 C2076 0.930 . S
H2071 C2080 0.930 . S
H2072 C2085 0.929 . S
H2073 C2083 0.929 . S
H2074 C2078 0.929 . S
H2075 C2084 0.928 1_545 S
C2076 H2070 0.930 . S
C2076 C2077 1.367 . S
C2076 C2084 1.379 . S
C2077 C2076 1.367 . S
C2077 C2085 1.433 . S
C2078 H2074 0.929 . S
C2078 C2080 1.378 . S
C2078 C2082 1.350 . S
C2079 C2082 1.463 . S
C2079 C2084 1.349 1_545 S
C2079 N2087 1.427 . S
C2080 H2071 0.930 . S
C2080 C2078 1.378 . S
C2080 C2081 1.367 . S
C2081 C2080 1.367 . S
C2081 C2083 1.433 . S
C2082 C2078 1.350 . S
C2082 C2079 1.463 . S
C2082 N2086 1.427 . S
C2083 H2073 0.929 . S
C2083 C2081 1.433 . S
C2083 N2086 1.384 . S
C2084 H2075 0.928 1_565 S
C2084 C2076 1.379 . S
C2084 C2079 1.349 1_565 S
C2085 H2072 0.929 . S
C2085 C2077 1.433 . S
C2085 N2087 1.384 1_565 S
N2086 C2082 1.427 . S
N2086 C2083 1.384 . S
N2087 C2079 1.427 . S
N2087 C2085 1.384 1_545 S
H2088 C2094 0.930 . S
H2089 C2098 0.930 1_565 S
H2090 C2103 0.929 . S
H2091 C2101 0.929 . S
H2092 C2096 0.929 . S
H2093 C2102 0.929 . S
C2094 H2088 0.930 . S
C2094 C2095 1.367 . S
C2094 C2102 1.378 1_455 S
C2095 C2094 1.367 . S
C2095 C2103 1.433 . S
C2096 H2092 0.929 . S
C2096 C2098 1.378 . S
C2096 C2100 1.350 . S
C2097 C2100 1.463 . S
C2097 C2102 1.350 . S
C2097 N2105 1.427 1_655 S
C2098 H2089 0.930 1_545 S
C2098 C2096 1.378 . S
C2098 C2099 1.367 . S
C2099 C2098 1.367 . S
C2099 C2101 1.433 . S
C2100 C2096 1.350 . S
C2100 C2097 1.463 . S
C2100 N2104 1.427 . S
C2101 H2091 0.929 . S
C2101 C2099 1.433 . S
C2101 N2104 1.384 . S
C2102 H2093 0.929 . S
C2102 C2094 1.378 1_655 S
C2102 C2097 1.350 . S
C2103 H2090 0.929 . S
C2103 C2095 1.433 . S
C2103 N2105 1.384 . S
N2104 C2100 1.427 . S
N2104 C2101 1.384 . S
N2105 C2097 1.427 1_455 S
N2105 C2103 1.384 . S
H2106 C2112 0.930 . S
H2107 C2116 0.930 . S
H2108 C2121 0.929 1_545 S
H2109 C2119 0.929 . S
H2110 C2114 0.929 . S
H2111 C2120 0.929 . S
C2112 H2106 0.930 . S
C2112 C2113 1.367 . S
C2112 C2120 1.378 . S
C2113 C2112 1.367 . S
C2113 C2121 1.433 . S
C2114 H2110 0.929 . S
C2114 C2116 1.378 . S
C2114 C2118 1.350 . S
C2115 C2118 1.463 . S
C2115 C2120 1.350 . S
C2115 N2123 1.427 . S
C2116 H2107 0.930 . S
C2116 C2114 1.378 . S
C2116 C2117 1.367 . S
C2117 C2116 1.367 . S
C2117 C2119 1.433 . S
C2118 C2114 1.350 . S
C2118 C2115 1.463 . S
C2118 N2122 1.427 . S
C2119 H2109 0.929 . S
C2119 C2117 1.433 . S
C2119 N2122 1.384 . S
C2120 H2111 0.929 . S
C2120 C2112 1.378 . S
C2120 C2115 1.350 . S
C2121 H2108 0.929 1_565 S
C2121 C2113 1.433 . S
C2121 N2123 1.384 . S
N2122 C2118 1.427 . S
N2122 C2119 1.384 . S
N2123 C2115 1.427 . S
N2123 C2121 1.384 . S
H2124 C2130 0.930 . S
H2125 C2134 0.930 1_655 S
H2126 C2139 0.929 . S
H2127 C2137 0.929 . S
H2128 C2132 0.929 . S
H2129 C2138 0.929 . S
C2130 H2124 0.930 . S
C2130 C2131 1.367 . S
C2130 C2138 1.378 1_545 S
C2131 C2130 1.367 . S
C2131 C2139 1.433 . S
C2132 H2128 0.929 . S
C2132 C2134 1.378 . S
C2132 C2136 1.350 . S
C2133 C2136 1.463 . S
C2133 C2138 1.350 . S
C2133 N2141 1.432 . S
C2134 H2125 0.930 1_455 S
C2134 C2132 1.378 . S
C2134 C2135 1.367 . S
C2135 C2134 1.367 . S
C2135 C2137 1.433 . S
C2136 C2132 1.350 . S
C2136 C2133 1.463 . S
C2136 N2140 1.427 . S
C2137 H2127 0.929 . S
C2137 C2135 1.433 . S
C2137 N2140 1.384 . S
C2138 H2129 0.929 . S
C2138 C2130 1.378 1_565 S
C2138 C2133 1.350 . S
C2139 H2126 0.929 . S
C2139 C2131 1.433 . S
C2139 N2141 1.381 1_545 S
N2140 C2136 1.427 . S
N2140 C2137 1.384 . S
N2141 C2133 1.432 . S
N2141 C2139 1.381 1_565 S
H2142 C2148 0.930 . S
H2143 C2152 0.930 . S
H2144 C2157 0.929 . S
H2145 C2155 0.929 . S
H2146 C2150 0.929 . S
H2147 C2156 0.929 . S
C2148 H2142 0.930 . S
C2148 C2149 1.367 . S
C2148 C2156 1.378 . S
C2149 C2148 1.367 . S
C2149 C2157 1.433 . S
C2150 H2146 0.929 . S
C2150 C2152 1.378 1_455 S
C2150 C2154 1.350 . S
C2151 C2154 1.463 . S
C2151 C2156 1.350 . S
C2151 N2159 1.427 . S
C2152 H2143 0.930 . S
C2152 C2150 1.378 1_655 S
C2152 C2153 1.367 . S
C2153 C2152 1.367 . S
C2153 C2155 1.433 . S
C2154 C2150 1.350 . S
C2154 C2151 1.463 . S
C2154 N2158 1.433 . S
C2155 H2145 0.929 . S
C2155 C2153 1.433 . S
C2155 N2158 1.365 1_655 S
C2156 H2147 0.929 . S
C2156 C2148 1.378 . S
C2156 C2151 1.350 . S
C2157 H2144 0.929 . S
C2157 C2149 1.433 . S
C2157 N2159 1.384 . S
N2158 C2154 1.433 . S
N2158 C2155 1.365 1_455 S
N2159 C2151 1.427 . S
N2159 C2157 1.384 . S
H2160 C2166 0.930 . S
H2161 C2170 0.930 . S
H2162 C2175 0.929 . S
H2163 C2173 0.929 . S
H2164 C2168 0.929 . S
H2165 C2174 0.929 . S
C2166 H2160 0.930 . S
C2166 C2167 1.367 . S
C2166 C2174 1.378 . S
C2167 C2166 1.367 . S
C2167 C2175 1.433 . S
C2168 H2164 0.929 . S
C2168 C2170 1.378 . S
C2168 C2172 1.350 . S
C2169 C2172 1.463 . S
C2169 C2174 1.350 . S
C2169 N2177 1.427 . S
C2170 H2161 0.930 . S
C2170 C2168 1.378 . S
C2170 C2171 1.367 . S
C2171 C2170 1.367 . S
C2171 C2173 1.433 . S
C2172 C2168 1.350 . S
C2172 C2169 1.463 . S
C2172 N2176 1.427 . S
C2173 H2163 0.929 . S
C2173 C2171 1.433 . S
C2173 N2176 1.384 . S
C2174 H2165 0.929 . S
C2174 C2166 1.378 . S
C2174 C2169 1.350 . S
C2175 H2162 0.929 . S
C2175 C2167 1.433 . S
C2175 N2177 1.384 . S
N2176 C2172 1.427 . S
N2176 C2173 1.384 . S
N2177 C2169 1.427 . S
N2177 C2175 1.384 . S
H2178 C2184 0.930 . S
H2179 C2188 0.930 . S
H2180 C2193 0.929 . S
H2181 C2191 0.929 . S
H2182 C2186 0.929 . S
H2183 C2192 0.929 . S
C2184 H2178 0.930 . S
C2184 C2185 1.367 . S
C2184 C2192 1.378 . S
C2185 C2184 1.367 . S
C2185 C2193 1.433 . S
C2186 H2182 0.929 . S
C2186 C2188 1.378 . S
C2186 C2190 1.350 . S
C2187 C2190 1.463 . S
C2187 C2192 1.350 . S
C2187 N2195 1.427 . S
C2188 H2179 0.930 . S
C2188 C2186 1.378 . S
C2188 C2189 1.367 . S
C2189 C2188 1.367 . S
C2189 C2191 1.433 . S
C2190 C2186 1.350 . S
C2190 C2187 1.463 . S
C2190 N2194 1.427 . S
C2191 H2181 0.929 . S
C2191 C2189 1.433 . S
C2191 N2194 1.384 . S
C2192 H2183 0.929 . S
C2192 C2184 1.378 . S
C2192 C2187 1.350 . S
C2193 H2180 0.929 . S
C2193 C2185 1.433 . S
C2193 N2195 1.384 . S
N2194 C2190 1.427 . S
N2194 C2191 1.384 . S
N2195 C2187 1.427 . S
N2195 C2193 1.384 . S
H2196 C2202 0.930 . S
H2197 C2206 0.930 . S
H2198 C2211 0.929 . S
H2199 C2209 0.929 . S
H2200 C2204 0.929 . S
H2201 C2210 0.929 . S
C2202 H2196 0.930 . S
C2202 C2203 1.367 . S
C2202 C2210 1.378 . S
C2203 C2202 1.367 . S
C2203 C2211 1.433 . S
C2204 H2200 0.929 . S
C2204 C2206 1.378 . S
C2204 C2208 1.350 . S
C2205 C2208 1.463 . S
C2205 C2210 1.350 . S
C2205 N2213 1.427 . S
C2206 H2197 0.930 . S
C2206 C2204 1.378 . S
C2206 C2207 1.367 . S
C2207 C2206 1.367 . S
C2207 C2209 1.433 . S
C2208 C2204 1.350 . S
C2208 C2205 1.463 . S
C2208 N2212 1.427 . S
C2209 H2199 0.929 . S
C2209 C2207 1.433 . S
C2209 N2212 1.384 . S
C2210 H2201 0.929 . S
C2210 C2202 1.378 . S
C2210 C2205 1.350 . S
C2211 H2198 0.929 . S
C2211 C2203 1.433 . S
C2211 N2213 1.384 . S
N2212 C2208 1.427 . S
N2212 C2209 1.384 . S
N2213 C2205 1.427 . S
N2213 C2211 1.384 . S
H2214 C2220 0.930 . S
H2215 C2224 0.930 . S
H2216 C2229 0.929 . S
H2217 C2227 0.929 . S
H2218 C2222 0.929 . S
H2219 C2228 0.929 . S
C2220 H2214 0.930 . S
C2220 C2221 1.367 . S
C2220 C2228 1.378 . S
C2221 C2220 1.367 . S
C2221 C2229 1.433 . S
C2222 H2218 0.929 . S
C2222 C2224 1.378 . S
C2222 C2226 1.350 . S
C2223 C2226 1.463 . S
C2223 C2228 1.350 . S
C2223 N2231 1.427 . S
C2224 H2215 0.930 . S
C2224 C2222 1.378 . S
C2224 C2225 1.367 . S
C2225 C2224 1.367 . S
C2225 C2227 1.433 . S
C2226 C2222 1.350 . S
C2226 C2223 1.463 . S
C2226 N2230 1.427 . S
C2227 H2217 0.929 . S
C2227 C2225 1.433 . S
C2227 N2230 1.384 . S
C2228 H2219 0.929 . S
C2228 C2220 1.378 . S
C2228 C2223 1.350 . S
C2229 H2216 0.929 . S
C2229 C2221 1.433 . S
C2229 N2231 1.384 . S
N2230 C2226 1.427 . S
N2230 C2227 1.384 . S
N2231 C2223 1.427 . S
N2231 C2229 1.384 . S
H2232 C2238 0.930 . S
H2233 C2242 0.930 . S
H2234 C2247 0.929 . S
H2235 C2245 0.929 . S
H2236 C2240 0.929 . S
H2237 C2246 0.929 . S
C2238 H2232 0.930 . S
C2238 C2239 1.367 . S
C2238 C2246 1.378 . S
C2239 C2238 1.367 . S
C2239 C2247 1.433 . S
C2240 H2236 0.929 . S
C2240 C2242 1.378 . S
C2240 C2244 1.350 . S
C2241 C2244 1.463 . S
C2241 C2246 1.350 . S
C2241 N2249 1.427 . S
C2242 H2233 0.930 . S
C2242 C2240 1.378 . S
C2242 C2243 1.367 . S
C2243 C2242 1.367 . S
C2243 C2245 1.433 . S
C2244 C2240 1.350 . S
C2244 C2241 1.463 . S
C2244 N2248 1.427 . S
C2245 H2235 0.929 . S
C2245 C2243 1.433 . S
C2245 N2248 1.384 . S
C2246 H2237 0.929 . S
C2246 C2238 1.378 . S
C2246 C2241 1.350 . S
C2247 H2234 0.929 . S
C2247 C2239 1.433 . S
C2247 N2249 1.384 . S
N2248 C2244 1.427 . S
N2248 C2245 1.384 . S
N2249 C2241 1.427 . S
N2249 C2247 1.384 . S
H2250 C2256 0.930 . S
H2251 C2260 0.930 . S
H2252 C2265 0.929 . S
H2253 C2263 0.929 . S
H2254 C2258 0.929 . S
H2255 C2264 0.929 . S
C2256 H2250 0.930 . S
C2256 C2257 1.367 . S
C2256 C2264 1.378 . S
C2257 C2256 1.367 . S
C2257 C2265 1.433 . S
C2258 H2254 0.929 . S
C2258 C2260 1.378 . S
C2258 C2262 1.350 . S
C2259 C2262 1.463 . S
C2259 C2264 1.350 . S
C2259 N2267 1.427 . S
C2260 H2251 0.930 . S
C2260 C2258 1.378 . S
C2260 C2261 1.367 . S
C2261 C2260 1.367 . S
C2261 C2263 1.433 . S
C2262 C2258 1.350 . S
C2262 C2259 1.463 . S
C2262 N2266 1.427 . S
C2263 H2253 0.929 . S
C2263 C2261 1.433 . S
C2263 N2266 1.384 . S
C2264 H2255 0.929 . S
C2264 C2256 1.378 . S
C2264 C2259 1.350 . S
C2265 H2252 0.929 . S
C2265 C2257 1.433 . S
C2265 N2267 1.384 . S
N2266 C2262 1.427 . S
N2266 C2263 1.384 . S
N2267 C2259 1.427 . S
N2267 C2265 1.384 . S
H2268 C2274 0.930 . S
H2269 C2278 0.930 . S
H2270 C2283 0.929 . S
H2271 C2281 0.929 . S
H2272 C2276 0.929 . S
H2273 C2282 0.929 . S
C2274 H2268 0.930 . S
C2274 C2275 1.367 . S
C2274 C2282 1.378 . S
C2275 C2274 1.367 . S
C2275 C2283 1.433 . S
C2276 H2272 0.929 . S
C2276 C2278 1.378 . S
C2276 C2280 1.350 . S
C2277 C2280 1.463 . S
C2277 C2282 1.350 . S
C2277 N2285 1.427 . S
C2278 H2269 0.930 . S
C2278 C2276 1.378 . S
C2278 C2279 1.367 . S
C2279 C2278 1.367 . S
C2279 C2281 1.433 . S
C2280 C2276 1.350 . S
C2280 C2277 1.463 . S
C2280 N2284 1.427 . S
C2281 H2271 0.929 . S
C2281 C2279 1.433 . S
C2281 N2284 1.384 . S
C2282 H2273 0.929 . S
C2282 C2274 1.378 . S
C2282 C2277 1.350 . S
C2283 H2270 0.929 . S
C2283 C2275 1.433 . S
C2283 N2285 1.384 . S
N2284 C2280 1.427 . S
N2284 C2281 1.384 . S
N2285 C2277 1.427 . S
N2285 C2283 1.384 . S
H2286 C2292 0.930 . S
H2287 C2296 0.930 . S
H2288 C2301 0.929 . S
H2289 C2299 0.929 . S
H2290 C2294 0.929 . S
H2291 C2300 0.929 . S
C2292 H2286 0.930 . S
C2292 C2293 1.367 . S
C2292 C2300 1.378 . S
C2293 C2292 1.367 . S
C2293 C2301 1.433 . S
C2294 H2290 0.929 . S
C2294 C2296 1.378 . S
C2294 C2298 1.350 . S
C2295 C2298 1.463 . S
C2295 C2300 1.350 . S
C2295 N2303 1.427 . S
C2296 H2287 0.930 . S
C2296 C2294 1.378 . S
C2296 C2297 1.367 . S
C2297 C2296 1.367 . S
C2297 C2299 1.433 . S
C2298 C2294 1.350 . S
C2298 C2295 1.463 . S
C2298 N2302 1.427 . S
C2299 H2289 0.929 . S
C2299 C2297 1.433 . S
C2299 N2302 1.384 . S
C2300 H2291 0.929 . S
C2300 C2292 1.378 . S
C2300 C2295 1.350 . S
C2301 H2288 0.929 . S
C2301 C2293 1.433 . S
C2301 N2303 1.384 . S
N2302 C2298 1.427 . S
N2302 C2299 1.384 . S
N2303 C2295 1.427 . S
N2303 C2301 1.384 . S
H2304 C2310 0.930 . S
H2305 C2314 0.930 . S
H2306 C2319 0.929 . S
H2307 C2317 0.929 . S
H2308 C2312 0.929 . S
H2309 C2318 0.929 . S
C2310 H2304 0.930 . S
C2310 C2311 1.367 . S
C2310 C2318 1.378 . S
C2311 C2310 1.367 . S
C2311 C2319 1.433 . S
C2312 H2308 0.929 . S
C2312 C2314 1.378 . S
C2312 C2316 1.350 . S
C2313 C2316 1.463 . S
C2313 C2318 1.350 . S
C2313 N2321 1.427 . S
C2314 H2305 0.930 . S
C2314 C2312 1.378 . S
C2314 C2315 1.367 . S
C2315 C2314 1.367 . S
C2315 C2317 1.433 . S
C2316 C2312 1.350 . S
C2316 C2313 1.463 . S
C2316 N2320 1.427 . S
C2317 H2307 0.929 . S
C2317 C2315 1.433 . S
C2317 N2320 1.384 . S
C2318 H2309 0.929 . S
C2318 C2310 1.378 . S
C2318 C2313 1.350 . S
C2319 H2306 0.929 . S
C2319 C2311 1.433 . S
C2319 N2321 1.384 . S
N2320 C2316 1.427 . S
N2320 C2317 1.384 . S
N2321 C2313 1.427 . S
N2321 C2319 1.384 . S
H2322 C2328 0.930 . S
H2323 C2332 0.930 . S
H2324 C2337 0.929 . S
H2325 C2335 0.929 . S
H2326 C2330 0.929 . S
H2327 C2336 0.929 . S
C2328 H2322 0.930 . S
C2328 C2329 1.367 . S
C2328 C2336 1.378 . S
C2329 C2328 1.367 . S
C2329 C2337 1.433 . S
C2330 H2326 0.929 . S
C2330 C2332 1.378 . S
C2330 C2334 1.350 . S
C2331 C2334 1.463 . S
C2331 C2336 1.350 . S
C2331 N2339 1.427 . S
C2332 H2323 0.930 . S
C2332 C2330 1.378 . S
C2332 C2333 1.367 . S
C2333 C2332 1.367 . S
C2333 C2335 1.433 . S
C2334 C2330 1.350 . S
C2334 C2331 1.463 . S
C2334 N2338 1.427 . S
C2335 H2325 0.929 . S
C2335 C2333 1.433 . S
C2335 N2338 1.384 . S
C2336 H2327 0.929 . S
C2336 C2328 1.378 . S
C2336 C2331 1.350 . S
C2337 H2324 0.929 . S
C2337 C2329 1.433 . S
C2337 N2339 1.384 . S
N2338 C2334 1.427 . S
N2338 C2335 1.384 . S
N2339 C2331 1.427 . S
N2339 C2337 1.384 . S
H2340 C2346 0.930 . S
H2341 C2350 0.930 . S
H2342 C2355 0.929 . S
H2343 C2353 0.929 . S
H2344 C2348 0.929 . S
H2345 C2354 0.929 . S
C2346 H2340 0.930 . S
C2346 C2347 1.367 . S
C2346 C2354 1.378 . S
C2347 C2346 1.367 . S
C2347 C2355 1.433 . S
C2348 H2344 0.929 . S
C2348 C2350 1.378 . S
C2348 C2352 1.350 . S
C2349 C2352 1.463 . S
C2349 C2354 1.350 . S
C2349 N2357 1.427 . S
C2350 H2341 0.930 . S
C2350 C2348 1.378 . S
C2350 C2351 1.367 . S
C2351 C2350 1.367 . S
C2351 C2353 1.433 . S
C2352 C2348 1.350 . S
C2352 C2349 1.463 . S
C2352 N2356 1.427 . S
C2353 H2343 0.929 . S
C2353 C2351 1.433 . S
C2353 N2356 1.384 . S
C2354 H2345 0.929 . S
C2354 C2346 1.378 . S
C2354 C2349 1.350 . S
C2355 H2342 0.929 . S
C2355 C2347 1.433 . S
C2355 N2357 1.384 . S
N2356 C2352 1.427 . S
N2356 C2353 1.384 . S
N2357 C2349 1.427 . S
N2357 C2355 1.384 . S
H2358 C2364 0.930 . S
H2359 C2368 0.930 . S
H2360 C2373 0.929 . S
H2361 C2371 0.929 . S
H2362 C2366 0.929 . S
H2363 C2372 0.929 . S
C2364 H2358 0.930 . S
C2364 C2365 1.367 . S
C2364 C2372 1.378 . S
C2365 C2364 1.367 . S
C2365 C2373 1.433 . S
C2366 H2362 0.929 . S
C2366 C2368 1.378 . S
C2366 C2370 1.350 . S
C2367 C2370 1.463 . S
C2367 C2372 1.350 . S
C2367 N2375 1.427 . S
C2368 H2359 0.930 . S
C2368 C2366 1.378 . S
C2368 C2369 1.367 . S
C2369 C2368 1.367 . S
C2369 C2371 1.433 . S
C2370 C2366 1.350 . S
C2370 C2367 1.463 . S
C2370 N2374 1.427 . S
C2371 H2361 0.929 . S
C2371 C2369 1.433 . S
C2371 N2374 1.384 . S
C2372 H2363 0.929 . S
C2372 C2364 1.378 . S
C2372 C2367 1.350 . S
C2373 H2360 0.929 . S
C2373 C2365 1.433 . S
C2373 N2375 1.384 . S
N2374 C2370 1.427 . S
N2374 C2371 1.384 . S
N2375 C2367 1.427 . S
N2375 C2373 1.384 . S
H2376 C2382 0.930 . S
H2377 C2386 0.930 . S
H2378 C2391 0.929 . S
H2379 C2389 0.929 . S
H2380 C2384 0.929 . S
H2381 C2390 0.929 . S
C2382 H2376 0.930 . S
C2382 C2383 1.367 . S
C2382 C2390 1.378 . S
C2383 C2382 1.367 . S
C2383 C2391 1.433 . S
C2384 H2380 0.929 . S
C2384 C2386 1.378 . S
C2384 C2388 1.350 . S
C2385 C2388 1.463 . S
C2385 C2390 1.350 . S
C2385 N2393 1.427 . S
C2386 H2377 0.930 . S
C2386 C2384 1.378 . S
C2386 C2387 1.367 . S
C2387 C2386 1.367 . S
C2387 C2389 1.433 . S
C2388 C2384 1.350 . S
C2388 C2385 1.463 . S
C2388 N2392 1.427 . S
C2389 H2379 0.929 . S
C2389 C2387 1.433 . S
C2389 N2392 1.384 . S
C2390 H2381 0.929 . S
C2390 C2382 1.378 . S
C2390 C2385 1.350 . S
C2391 H2378 0.929 . S
C2391 C2383 1.433 . S
C2391 N2393 1.384 . S
N2392 C2388 1.427 . S
N2392 C2389 1.384 . S
N2393 C2385 1.427 . S
N2393 C2391 1.384 . S
H2394 C2400 0.930 . S
H2395 C2404 0.930 . S
H2396 C2409 0.929 . S
H2397 C2407 0.929 . S
H2398 C2402 0.929 . S
H2399 C2408 0.929 . S
C2400 H2394 0.930 . S
C2400 C2401 1.367 . S
C2400 C2408 1.378 . S
C2401 C2400 1.367 . S
C2401 C2409 1.433 . S
C2402 H2398 0.929 . S
C2402 C2404 1.378 . S
C2402 C2406 1.350 . S
C2403 C2406 1.463 . S
C2403 C2408 1.350 . S
C2403 N2411 1.427 . S
C2404 H2395 0.930 . S
C2404 C2402 1.378 . S
C2404 C2405 1.367 . S
C2405 C2404 1.367 . S
C2405 C2407 1.433 . S
C2406 C2402 1.350 . S
C2406 C2403 1.463 . S
C2406 N2410 1.427 . S
C2407 H2397 0.929 . S
C2407 C2405 1.433 . S
C2407 N2410 1.384 . S
C2408 H2399 0.929 . S
C2408 C2400 1.378 . S
C2408 C2403 1.350 . S
C2409 H2396 0.929 . S
C2409 C2401 1.433 . S
C2409 N2411 1.384 . S
N2410 C2406 1.427 . S
N2410 C2407 1.384 . S
N2411 C2403 1.427 . S
N2411 C2409 1.384 . S
H2412 C2418 0.930 . S
H2413 C2422 0.930 . S
H2414 C2427 0.929 . S
H2415 C2425 0.929 . S
H2416 C2420 0.929 . S
H2417 C2426 0.929 . S
C2418 H2412 0.930 . S
C2418 C2419 1.367 . S
C2418 C2426 1.378 . S
C2419 C2418 1.367 . S
C2419 C2427 1.433 . S
C2420 H2416 0.929 . S
C2420 C2422 1.378 . S
C2420 C2424 1.350 . S
C2421 C2424 1.463 . S
C2421 C2426 1.350 . S
C2421 N2429 1.427 . S
C2422 H2413 0.930 . S
C2422 C2420 1.378 . S
C2422 C2423 1.367 . S
C2423 C2422 1.367 . S
C2423 C2425 1.433 . S
C2424 C2420 1.350 . S
C2424 C2421 1.463 . S
C2424 N2428 1.427 . S
C2425 H2415 0.929 . S
C2425 C2423 1.433 . S
C2425 N2428 1.384 . S
C2426 H2417 0.929 . S
C2426 C2418 1.378 . S
C2426 C2421 1.350 . S
C2427 H2414 0.929 . S
C2427 C2419 1.433 . S
C2427 N2429 1.384 . S
N2428 C2424 1.427 . S
N2428 C2425 1.384 . S
N2429 C2421 1.427 . S
N2429 C2427 1.384 . S
H2430 C2436 0.930 . S
H2431 C2440 0.930 . S
H2432 C2445 0.929 . S
H2433 C2443 0.929 . S
H2434 C2438 0.929 . S
H2435 C2444 0.929 . S
C2436 H2430 0.930 . S
C2436 C2437 1.367 . S
C2436 C2444 1.378 . S
C2437 C2436 1.367 . S
C2437 C2445 1.433 . S
C2438 H2434 0.929 . S
C2438 C2440 1.378 . S
C2438 C2442 1.350 . S
C2439 C2442 1.463 . S
C2439 C2444 1.350 . S
C2439 N2447 1.427 . S
C2440 H2431 0.930 . S
C2440 C2438 1.378 . S
C2440 C2441 1.367 . S
C2441 C2440 1.367 . S
C2441 C2443 1.433 . S
C2442 C2438 1.350 . S
C2442 C2439 1.463 . S
C2442 N2446 1.427 . S
C2443 H2433 0.929 . S
C2443 C2441 1.433 . S
C2443 N2446 1.384 . S
C2444 H2435 0.929 . S
C2444 C2436 1.378 . S
C2444 C2439 1.350 . S
C2445 H2432 0.929 . S
C2445 C2437 1.433 . S
C2445 N2447 1.384 . S
N2446 C2442 1.427 . S
N2446 C2443 1.384 . S
N2447 C2439 1.427 . S
N2447 C2445 1.384 . S
H2448 C2454 0.930 . S
H2449 C2458 0.930 . S
H2450 C2463 0.929 . S
H2451 C2461 0.929 . S
H2452 C2456 0.929 . S
H2453 C2462 0.929 . S
C2454 H2448 0.930 . S
C2454 C2455 1.367 . S
C2454 C2462 1.378 . S
C2455 C2454 1.367 . S
C2455 C2463 1.433 . S
C2456 H2452 0.929 . S
C2456 C2458 1.378 . S
C2456 C2460 1.350 . S
C2457 C2460 1.463 . S
C2457 C2462 1.350 . S
C2457 N2465 1.427 . S
C2458 H2449 0.930 . S
C2458 C2456 1.378 . S
C2458 C2459 1.367 . S
C2459 C2458 1.367 . S
C2459 C2461 1.433 . S
C2460 C2456 1.350 . S
C2460 C2457 1.463 . S
C2460 N2464 1.427 . S
C2461 H2451 0.929 . S
C2461 C2459 1.433 . S
C2461 N2464 1.384 . S
C2462 H2453 0.929 . S
C2462 C2454 1.378 . S
C2462 C2457 1.350 . S
C2463 H2450 0.929 . S
C2463 C2455 1.433 . S
C2463 N2465 1.384 . S
N2464 C2460 1.427 . S
N2464 C2461 1.384 . S
N2465 C2457 1.427 . S
N2465 C2463 1.384 . S
H2466 C2472 0.930 . S
H2467 C2476 0.930 . S
H2468 C2481 0.929 . S
H2469 C2479 0.929 . S
H2470 C2474 0.929 . S
H2471 C2480 0.929 . S
C2472 H2466 0.930 . S
C2472 C2473 1.367 . S
C2472 C2480 1.378 . S
C2473 C2472 1.367 . S
C2473 C2481 1.433 . S
C2474 H2470 0.929 . S
C2474 C2476 1.378 . S
C2474 C2478 1.350 . S
C2475 C2478 1.463 . S
C2475 C2480 1.350 . S
C2475 N2483 1.427 . S
C2476 H2467 0.930 . S
C2476 C2474 1.378 . S
C2476 C2477 1.367 . S
C2477 C2476 1.367 . S
C2477 C2479 1.433 . S
C2478 C2474 1.350 . S
C2478 C2475 1.463 . S
C2478 N2482 1.427 . S
C2479 H2469 0.929 . S
C2479 C2477 1.433 . S
C2479 N2482 1.384 . S
C2480 H2471 0.929 . S
C2480 C2472 1.378 . S
C2480 C2475 1.350 . S
C2481 H2468 0.929 . S
C2481 C2473 1.433 . S
C2481 N2483 1.384 . S
N2482 C2478 1.427 . S
N2482 C2479 1.384 . S
N2483 C2475 1.427 . S
N2483 C2481 1.384 . S
H2484 C2490 0.930 . S
H2485 C2494 0.930 . S
H2486 C2499 0.929 . S
H2487 C2497 0.929 . S
H2488 C2492 0.929 . S
H2489 C2498 0.929 . S
C2490 H2484 0.930 . S
C2490 C2491 1.367 . S
C2490 C2498 1.378 . S
C2491 C2490 1.367 . S
C2491 C2499 1.433 . S
C2492 H2488 0.929 . S
C2492 C2494 1.378 . S
C2492 C2496 1.350 . S
C2493 C2496 1.463 . S
C2493 C2498 1.350 . S
C2493 N2501 1.427 . S
C2494 H2485 0.930 . S
C2494 C2492 1.378 . S
C2494 C2495 1.367 . S
C2495 C2494 1.367 . S
C2495 C2497 1.433 . S
C2496 C2492 1.350 . S
C2496 C2493 1.463 . S
C2496 N2500 1.427 . S
C2497 H2487 0.929 . S
C2497 C2495 1.433 . S
C2497 N2500 1.384 . S
C2498 H2489 0.929 . S
C2498 C2490 1.378 . S
C2498 C2493 1.350 . S
C2499 H2486 0.929 . S
C2499 C2491 1.433 . S
C2499 N2501 1.384 . S
N2500 C2496 1.427 . S
N2500 C2497 1.384 . S
N2501 C2493 1.427 . S
N2501 C2499 1.384 . S
H2502 C2508 0.930 . S
H2503 C2512 0.930 . S
H2504 C2517 0.929 . S
H2505 C2515 0.929 . S
H2506 C2510 0.929 . S
H2507 C2516 0.929 . S
C2508 H2502 0.930 . S
C2508 C2509 1.367 . S
C2508 C2516 1.378 . S
C2509 C2508 1.367 . S
C2509 C2517 1.433 . S
C2510 H2506 0.929 . S
C2510 C2512 1.378 . S
C2510 C2514 1.350 . S
C2511 C2514 1.463 . S
C2511 C2516 1.350 . S
C2511 N2519 1.427 . S
C2512 H2503 0.930 . S
C2512 C2510 1.378 . S
C2512 C2513 1.367 . S
C2513 C2512 1.367 . S
C2513 C2515 1.433 . S
C2514 C2510 1.350 . S
C2514 C2511 1.463 . S
C2514 N2518 1.427 . S
C2515 H2505 0.929 . S
C2515 C2513 1.433 . S
C2515 N2518 1.384 . S
C2516 H2507 0.929 . S
C2516 C2508 1.378 . S
C2516 C2511 1.350 . S
C2517 H2504 0.929 . S
C2517 C2509 1.433 . S
C2517 N2519 1.384 . S
N2518 C2514 1.427 . S
N2518 C2515 1.384 . S
N2519 C2511 1.427 . S
N2519 C2517 1.384 . S
H2520 C2526 0.930 . S
H2521 C2530 0.930 . S
H2522 C2535 0.929 . S
H2523 C2533 0.929 . S
H2524 C2528 0.929 . S
H2525 C2534 0.929 . S
C2526 H2520 0.930 . S
C2526 C2527 1.367 . S
C2526 C2534 1.378 . S
C2527 C2526 1.367 . S
C2527 C2535 1.433 . S
C2528 H2524 0.929 . S
C2528 C2530 1.378 . S
C2528 C2532 1.350 . S
C2529 C2532 1.463 . S
C2529 C2534 1.350 . S
C2529 N2537 1.427 . S
C2530 H2521 0.930 . S
C2530 C2528 1.378 . S
C2530 C2531 1.367 . S
C2531 C2530 1.367 . S
C2531 C2533 1.433 . S
C2532 C2528 1.350 . S
C2532 C2529 1.463 . S
C2532 N2536 1.427 . S
C2533 H2523 0.929 . S
C2533 C2531 1.433 . S
C2533 N2536 1.384 . S
C2534 H2525 0.929 . S
C2534 C2526 1.378 . S
C2534 C2529 1.350 . S
C2535 H2522 0.929 . S
C2535 C2527 1.433 . S
C2535 N2537 1.384 . S
N2536 C2532 1.427 . S
N2536 C2533 1.384 . S
N2537 C2529 1.427 . S
N2537 C2535 1.384 . S
H2538 C2544 0.930 . S
H2539 C2548 0.930 . S
H2540 C2553 0.929 . S
H2541 C2551 0.929 . S
H2542 C2546 0.929 . S
H2543 C2552 0.929 . S
C2544 H2538 0.930 . S
C2544 C2545 1.367 . S
C2544 C2552 1.378 . S
C2545 C2544 1.367 . S
C2545 C2553 1.433 . S
C2546 H2542 0.929 . S
C2546 C2548 1.378 . S
C2546 C2550 1.350 . S
C2547 C2550 1.463 . S
C2547 C2552 1.350 . S
C2547 N2555 1.427 . S
C2548 H2539 0.930 . S
C2548 C2546 1.378 . S
C2548 C2549 1.367 . S
C2549 C2548 1.367 . S
C2549 C2551 1.433 . S
C2550 C2546 1.350 . S
C2550 C2547 1.463 . S
C2550 N2554 1.427 . S
C2551 H2541 0.929 . S
C2551 C2549 1.433 . S
C2551 N2554 1.384 . S
C2552 H2543 0.929 . S
C2552 C2544 1.378 . S
C2552 C2547 1.350 . S
C2553 H2540 0.929 . S
C2553 C2545 1.433 . S
C2553 N2555 1.384 . S
N2554 C2550 1.427 . S
N2554 C2551 1.384 . S
N2555 C2547 1.427 . S
N2555 C2553 1.384 . S
H2556 C2562 0.930 . S
H2557 C2566 0.930 . S
H2558 C2571 0.929 . S
H2559 C2569 0.929 . S
H2560 C2564 0.929 . S
H2561 C2570 0.929 . S
C2562 H2556 0.930 . S
C2562 C2563 1.367 . S
C2562 C2570 1.378 . S
C2563 C2562 1.367 . S
C2563 C2571 1.433 . S
C2564 H2560 0.929 . S
C2564 C2566 1.378 . S
C2564 C2568 1.350 . S
C2565 C2568 1.463 . S
C2565 C2570 1.350 . S
C2565 N2573 1.427 . S
C2566 H2557 0.930 . S
C2566 C2564 1.378 . S
C2566 C2567 1.367 . S
C2567 C2566 1.367 . S
C2567 C2569 1.433 . S
C2568 C2564 1.350 . S
C2568 C2565 1.463 . S
C2568 N2572 1.427 . S
C2569 H2559 0.929 . S
C2569 C2567 1.433 . S
C2569 N2572 1.384 . S
C2570 H2561 0.929 . S
C2570 C2562 1.378 . S
C2570 C2565 1.350 . S
C2571 H2558 0.929 . S
C2571 C2563 1.433 . S
C2571 N2573 1.384 . S
N2572 C2568 1.427 . S
N2572 C2569 1.384 . S
N2573 C2565 1.427 . S
N2573 C2571 1.384 . S
H2574 C2580 0.930 . S
H2575 C2584 0.930 . S
H2576 C2589 0.929 . S
H2577 C2587 0.929 . S
H2578 C2582 0.929 . S
H2579 C2588 0.929 . S
C2580 H2574 0.930 . S
C2580 C2581 1.367 . S
C2580 C2588 1.378 . S
C2581 C2580 1.367 . S
C2581 C2589 1.433 . S
C2582 H2578 0.929 . S
C2582 C2584 1.378 . S
C2582 C2586 1.350 . S
C2583 C2586 1.463 . S
C2583 C2588 1.350 . S
C2583 N2591 1.427 . S
C2584 H2575 0.930 . S
C2584 C2582 1.378 . S
C2584 C2585 1.367 . S
C2585 C2584 1.367 . S
C2585 C2587 1.433 . S
C2586 C2582 1.350 . S
C2586 C2583 1.463 . S
C2586 N2590 1.427 . S
C2587 H2577 0.929 . S
C2587 C2585 1.433 . S
C2587 N2590 1.384 . S
C2588 H2579 0.929 . S
C2588 C2580 1.378 . S
C2588 C2583 1.350 . S
C2589 H2576 0.929 . S
C2589 C2581 1.433 . S
C2589 N2591 1.384 . S
N2590 C2586 1.427 . S
N2590 C2587 1.384 . S
N2591 C2583 1.427 . S
N2591 C2589 1.384 . S
C1303 C14 1.417 . S
C1307 C662 1.417 . S
C1321 C698 1.419 . S
C1325 C50 1.419 . S
C1339 C734 1.413 . S
C1343 C86 1.413 . S
C1357 C122 1.417 . S
C1361 C1202 1.417 . S
C1375 C158 1.411 . S
C1379 C1238 1.411 . S
C1393 C194 1.412 . S
C1397 C1274 1.412 . S
C1411 C878 1.408 . S
C1415 C230 1.408 . S
C1429 C266 1.419 . S
C1433 C914 1.419 . S
C1447 C302 1.415 . S
C1451 C950 1.415 . S
C1465 C554 1.409 . S
C1469 C338 1.409 . S
C1483 C590 1.419 . S
C1487 C374 1.419 . S
C1501 C626 1.415 . S
C1505 C410 1.415 . S
C1519 C1094 1.413 . S
C1523 C446 1.413 . S
C1537 C1130 1.410 . S
C1541 C482 1.410 . S
C1555 C518 1.413 . S
C1559 C1166 1.413 . S
C1573 C986 1.412 . S
C1577 C770 1.412 . S
C1591 C806 1.407 . S
C1595 C1022 1.407 . S
C1609 C842 1.407 . S
C1613 C1058 1.407 . S
C1627 C4 1.412 . S
C1631 C976 1.414 . S
C1645 C1012 1.412 . S
C1649 C40 1.414 . S
C1663 C1048 1.421 . S
C1667 C76 1.413 . S
C1681 C436 1.424 . S
C1685 C112 1.416 . S
C1699 C472 1.426 . S
C1703 C148 1.422 . S
C1717 C508 1.426 . S
C1721 C184 1.423 . S
C1735 C220 1.413 . S
C1739 C760 1.421 . S
C1753 C796 1.417 . S
C1757 C256 1.411 . S
C1771 C832 1.412 . S
C1775 C292 1.414 . S
C1789 C328 1.417 . S
C1793 C1084 1.411 . S
C1807 C364 1.423 . S
C1811 C1120 1.426 . S
C1825 C400 1.412 . S
C1829 C1156 1.418 . S
C1843 C544 1.426 . S
C1847 C868 1.422 . S
C1861 C580 1.424 . S
C1865 C904 1.426 . S
C1879 C616 1.412 . S
C1883 C940 1.418 . S
C1897 C652 1.420 . S
C1901 C1192 1.426 . S
C1915 C1228 1.418 . S
C1919 C688 1.426 . S
C1933 C724 1.423 . S
C1937 C1264 1.426 . S
C1951 C38 1.078 1_455 S
C1955 C3 1.079 . S
C1969 C39 1.062 . S
C1973 C74 1.067 . S
C1987 C75 1.068 . S
C1991 C2 1.085 1_565 S
C2005 C111 1.062 . S
C2009 C182 1.067 1_545 S
C2023 C110 1.084 1_655 S
C2027 C147 1.064 . S
C2041 C183 1.079 . S
C2045 C146 1.078 . S
C2059 C219 1.058 . S
C2063 C254 1.071 1_655 S
C2077 C255 1.062 . S
C2081 C290 1.083 . S
C2095 C291 1.079 . S
C2099 C218 1.079 1_545 S
C2113 C398 1.085 1_565 S
C2117 C327 1.068 . S
C2131 C363 1.074 . S
C2135 C326 1.070 1_455 S
C2149 C362 1.070 . S
C2153 C399 1.073 . S
C2167 C470 1.085 . S
C2171 C435 1.075 . S
C2185 C506 1.086 . S
C2189 C471 1.071 . S
C2203 C434 1.069 . S
C2207 C507 1.060 . S
C2221 C543 1.059 . S
C2225 C614 1.069 . S
C2239 C579 1.070 . S
C2243 C542 1.086 . S
C2257 C615 1.078 . S
C2261 C578 1.081 . S
C2275 C686 1.079 . S
C2279 C651 1.079 . S
C2293 C687 1.079 . S
C2297 C722 1.079 . S
C2311 C723 1.074 . S
C2315 C650 1.071 . S
C2329 C759 1.059 . S
C2333 C830 1.070 . S
C2347 C795 1.061 . S
C2351 C758 1.068 . S
C2365 C794 1.086 . S
C2369 C831 1.071 . S
C2383 C902 1.081 . S
C2387 C867 1.061 . S
C2401 C903 1.065 . S
C2405 C938 1.067 . S
C2419 C866 1.078 . S
C2423 C939 1.058 . S
C2437 C975 1.058 . S
C2441 C1046 1.074 . S
C2455 C1011 1.069 . S
C2459 C974 1.067 . S
C2473 C1047 1.078 . S
C2477 C1010 1.082 . S
C2491 C1083 1.059 . S
C2495 C1118 1.079 . S
C2509 C1119 1.059 . S
C2513 C1154 1.070 . S
C2527 C1155 1.074 . S
C2531 C1082 1.070 . S
C2545 C1191 1.058 . S
C2549 C1262 1.075 . S
C2563 C1227 1.066 . S
C2567 C1190 1.067 . S
C2581 C1226 1.079 . S
C2585 C1263 1.059 . S
