# Generated by pormake.
# Topology vmc, (5)-cn, num edge types: 1
# Building blocks:
#     Node 0, Type 0, BuildingBlock: XOMCOT_clean_sbu_1, # of connection points: 5
#     Node 1, Type 0, BuildingBlock: XOMCOT_clean_sbu_1, # of connection points: 5
#     Node 2, Type 0, BuildingBlock: XOMCOT_clean_sbu_1, # of connection points: 5
#     Node 3, Type 0, BuildingBlock: XOMCOT_clean_sbu_1, # of connection points: 5
#     Node 4, Type 0, BuildingBlock: XOMCOT_clean_sbu_1, # of connection points: 5
#     Node 5, Type 0, BuildingBlock: XOMCOT_clean_sbu_1, # of connection points: 5
#     Node 6, Type 0, BuildingBlock: XOMCOT_clean_sbu_1, # of connection points: 5
#     Node 7, Type 0, BuildingBlock: XOMCOT_clean_sbu_1, # of connection points: 5
#     Edge 8, Type (0, 0), None
#     Edge 9, Type (0, 0), None
#     Edge 10, Type (0, 0), None
#     Edge 11, Type (0, 0), None
#     Edge 12, Type (0, 0), None
#     Edge 13, Type (0, 0), None
#     Edge 14, Type (0, 0), None
#     Edge 15, Type (0, 0), None
#     Edge 16, Type (0, 0), None
#     Edge 17, Type (0, 0), None
#     Edge 18, Type (0, 0), None
#     Edge 19, Type (0, 0), None
#     Edge 20, Type (0, 0), None
#     Edge 21, Type (0, 0), None
#     Edge 22, Type (0, 0), None
#     Edge 23, Type (0, 0), None
#     Edge 24, Type (0, 0), None
#     Edge 25, Type (0, 0), None
#     Edge 26, Type (0, 0), None
#     Edge 27, Type (0, 0), None
# Relax obj value: 0.416
# Max RMSD: 0.219
# Mean RMSD: 0.219
data_MOF--net-vmc--node1-XOMCOT_clean_sbu_1--edge1-none
_symmetry_space_group_name_H-M    P1
_symmetry_Int_Tables_number       1
_symmetry_cell_setting            triclinic
loop_
_symmetry_equiv_pos_as_xyz
'x, y, z'
_cell_length_a     15.493724
_cell_length_b     26.977088
_cell_length_c     13.045594
_cell_angle_alpha  89.989263
_cell_angle_beta   88.824653
_cell_angle_gamma 90.003862
loop_
_atom_site_label
_atom_site_type_symbol
_atom_site_fract_x
_atom_site_fract_y
_atom_site_fract_z
_atom_type_partial_charge
C0 C 0.37221 0.33772 0.15008 0.0
C1 C 0.42592 0.31984 0.22401 0.0
N2 N 0.42407 0.35271 0.30094 0.0
N3 N 0.33662 0.38092 0.1827 0.0
C4 C 0.37112 0.38958 0.27452 0.0
H5 H 0.36076 0.3208 1.07651 0.0
Co6 Co 0.26005 0.41924 0.11079 0.0
C7 C 0.1426 0.44652 0.29737 0.0
O8 O 0.07327 0.42288 0.26777 0.0
N9 N 0.18529 0.45755 1.03104 0.0
C10 C 0.07509 0.49573 0.95741 0.0
C11 C 0.10129 0.47022 1.0427 0.0
C12 C 0.20825 0.47539 0.93724 0.0
N13 N 0.1424 0.49879 0.8909 0.0
O14 O 0.34055 0.4724 0.11375 0.0
H15 H 0.05989 0.46071 0.10657 0.0
H16 H 0.27201 0.47058 0.90313 0.0
O17 O 0.21138 0.44598 0.24121 0.0
C18 C 0.41738 0.46628 1.07969 0.0
O19 O 0.43736 0.42653 1.02617 0.0
N20 N 0.1858 0.36466 0.10801 0.0
C21 C 0.19012 0.26124 0.09513 0.0
C22 C 0.17372 0.28529 0.18938 0.0
C23 C 0.17248 0.33681 0.19435 0.0
C24 C 0.18557 0.34268 1.01431 0.0
C25 C 0.18767 0.29108 1.00597 0.0
H26 H 0.17781 0.35294 0.26945 0.0
H27 H 0.19726 0.36474 0.94621 0.0
H28 H 0.35932 0.42248 0.32015 0.0
H29 H 0.46572 0.2869 0.22017 0.0
H30 H 0.01096 0.5102 0.94476 0.0
H31 H 0.16929 0.26584 0.26138 0.0
H32 H 0.19372 0.27618 0.92959 0.0
C33 C 0.52985 0.33768 0.53607 0.0
C34 C 0.47598 0.31982 0.4623 0.0
N35 N 0.47759 0.35274 0.38545 0.0
N36 N 0.56536 0.38089 0.50337 0.0
C37 C 0.53066 0.38959 0.41167 0.0
H38 H 0.54146 0.32073 0.60959 0.0
Co39 Co 0.642 0.41921 0.57517 0.0
C40 C 0.75938 0.44652 0.38855 0.0
O41 O 0.82871 0.42288 0.41818 0.0
N42 N 0.71683 0.45752 0.65486 0.0
C43 C 0.82703 0.49571 0.72844 0.0
C44 C 0.80082 0.47019 0.64318 0.0
C45 C 0.69388 0.47536 0.74865 0.0
N46 N 0.75973 0.49878 0.79496 0.0
O47 O 0.56151 0.47238 0.57226 0.0
H48 H 0.84222 0.46069 0.57931 0.0
H49 H 0.63011 0.47055 0.78277 0.0
O50 O 0.69059 0.44597 0.44471 0.0
C51 C 0.48465 0.46627 0.60624 0.0
O52 O 0.46459 0.42652 0.65974 0.0
N53 N 0.71626 0.36464 0.57788 0.0
C54 C 0.71194 0.26121 0.59068 0.0
C55 C 0.72821 0.2853 0.49642 0.0
C56 C 0.72947 0.33681 0.4915 0.0
C57 C 0.71662 0.34262 0.67155 0.0
C58 C 0.71454 0.29101 0.67986 0.0
H59 H 0.72404 0.35297 0.41641 0.0
H60 H 0.70502 0.36466 0.73969 0.0
H61 H 0.5424 0.42249 0.366 0.0
H62 H 0.43623 0.28685 0.4662 0.0
H63 H 0.89116 0.51019 0.74107 0.0
H64 H 0.73251 0.26587 0.42439 0.0
H65 H 0.70863 0.27608 0.75623 0.0
C66 C 0.52984 0.63012 1.03581 0.0
C67 C 0.47614 0.64799 0.96186 0.0
N68 N 0.47797 0.61511 0.88495 0.0
N69 N 0.56542 0.58691 1.00321 0.0
C70 C 0.53091 0.57823 0.91139 0.0
H71 H 0.54132 0.64705 0.10935 0.0
Co72 Co 0.64201 0.54861 1.0751 0.0
C73 C 0.75943 0.5213 0.88852 0.0
O74 O 0.82875 0.54496 0.91811 0.0
N75 N 0.7168 0.51031 0.15485 0.0
C76 C 0.82701 0.47213 0.22848 0.0
C77 C 0.8008 0.49766 0.1432 0.0
C78 C 0.69383 0.49244 0.24864 0.0
N79 N 0.75969 0.46904 0.29497 0.0
O80 O 0.56151 0.49544 1.07222 0.0
H81 H 0.84221 0.50719 1.07935 0.0
H82 H 0.63006 0.49723 0.28273 0.0
O83 O 0.69065 0.52184 0.94469 0.0
C84 C 0.48468 0.50156 0.10629 0.0
O85 O 0.4647 0.54132 0.15979 0.0
N86 N 0.71627 0.60318 1.0778 0.0
C87 C 0.71198 0.7066 1.0906 0.0
C88 C 0.72823 0.68254 0.99634 0.0
C89 C 0.7295 0.63102 0.99142 0.0
C90 C 0.71662 0.62518 0.17147 0.0
C91 C 0.71456 0.67679 0.17978 0.0
H92 H 0.72409 0.61487 0.91634 0.0
H93 H 0.70501 0.60314 0.23962 0.0
H94 H 0.54271 0.54534 0.86578 0.0
H95 H 0.43635 0.68094 0.96567 0.0
H96 H 0.89115 0.45768 0.24114 0.0
H97 H 0.73252 0.70197 0.92431 0.0
H98 H 0.70868 0.69171 0.25615 0.0
C99 C 0.37221 0.63016 0.6498 0.0
C100 C 0.42608 0.64801 0.72359 0.0
N101 N 0.42448 0.61508 0.80042 0.0
N102 N 0.33671 0.58693 0.68248 0.0
C103 C 0.37142 0.57823 0.77418 0.0
H104 H 0.36058 0.64712 0.57631 0.0
Co105 Co 0.26005 0.54863 0.61068 0.0
C106 C 0.14271 0.52131 0.79731 0.0
O107 O 0.07339 0.54497 0.7677 0.0
N108 N 0.1852 0.51034 0.53101 0.0
C109 C 0.07498 0.47215 0.45743 0.0
C110 C 0.1012 0.49768 0.54267 0.0
C111 C 0.20815 0.49247 0.43723 0.0
N112 N 0.14229 0.46906 0.39093 0.0
O113 O 0.34054 0.49546 0.61353 0.0
H114 H 0.05979 0.50721 0.60652 0.0
H115 H 0.27192 0.49726 0.40312 0.0
O116 O 0.21149 0.52185 0.74115 0.0
C117 C 0.4174 0.50157 0.57954 0.0
O118 O 0.43746 0.54133 0.52606 0.0
N119 N 0.18578 0.6032 0.60806 0.0
C120 C 0.19007 0.70663 0.59534 0.0
C121 C 0.17393 0.68253 0.68961 0.0
C122 C 0.17265 0.63101 0.69448 0.0
C123 C 0.18532 0.62524 0.51441 0.0
C124 C 0.18735 0.67685 0.50614 0.0
H125 H 0.17815 0.61484 0.76954 0.0
H126 H 0.19683 0.60322 0.44623 0.0
H127 H 0.35968 0.54533 0.81983 0.0
H128 H 0.46581 0.68098 0.71971 0.0
H129 H 0.01084 0.45769 0.44479 0.0
H130 H 0.16977 0.70193 0.76166 0.0
H131 H 0.19311 0.69181 0.42978 0.0
C132 C 0.87225 0.83771 0.15005 0.0
C133 C 0.92597 0.81984 0.22397 0.0
N134 N 0.92413 0.85271 0.3009 0.0
N135 N 0.83665 0.88091 0.18268 0.0
C136 C 0.87116 0.88958 0.2745 0.0
H137 H 0.86079 0.82079 1.07648 0.0
Co138 Co 0.76007 0.91922 0.11078 0.0
C139 C 0.64262 0.94649 0.29737 0.0
O140 O 0.57329 0.92284 0.26777 0.0
N141 N 0.68529 0.95752 1.03104 0.0
C142 C 0.57507 -0.0043 0.95742 0.0
C143 C 0.60129 0.97018 1.0427 0.0
C144 C 0.70824 0.97538 0.93724 0.0
N145 N 0.64238 -0.00123 0.89091 0.0
O146 O 0.84055 0.97239 0.11373 0.0
H147 H 0.55989 0.96066 0.10657 0.0
H148 H 0.77201 0.97058 0.90313 0.0
O149 O 0.7114 0.94596 0.2412 0.0
C150 C 0.91739 0.96628 1.07968 0.0
O151 O 0.93738 0.92653 1.02616 0.0
N152 N 0.68583 0.86464 0.10801 0.0
C153 C 0.69017 0.76122 0.09514 0.0
C154 C 0.67379 0.78527 0.18939 0.0
C155 C 0.67254 0.83679 0.19436 0.0
C156 C 0.68559 0.84265 1.01432 0.0
C157 C 0.68769 0.79105 1.00598 0.0
H158 H 0.67788 0.85292 0.26946 0.0
H159 H 0.69726 0.86471 0.94621 0.0
H160 H 0.85936 0.92247 0.32013 0.0
H161 H -0.03421 0.7869 0.22013 0.0
H162 H 0.51094 0.01016 0.94477 0.0
H163 H 0.66939 0.76582 0.2614 0.0
H164 H 0.69372 0.77614 0.9296 0.0
C165 C 0.02988 0.83769 0.53606 0.0
C166 C -0.02398 0.81982 0.46227 0.0
N167 N -0.02235 0.85274 0.38541 0.0
N168 N 0.0654 0.8809 0.50335 0.0
C169 C 0.03071 0.88959 0.41164 0.0
H170 H 0.04146 0.82075 0.60958 0.0
Co171 Co 0.14201 0.91923 0.57517 0.0
C172 C 0.2594 0.94653 0.38854 0.0
O173 O 0.32875 0.92291 0.41817 0.0
N174 N 0.21681 0.95755 0.65485 0.0
C175 C 0.32701 -0.00424 0.72843 0.0
C176 C 0.3008 0.97023 0.64317 0.0
C177 C 0.19386 0.97539 0.74865 0.0
N178 N 0.25971 -0.00119 0.79496 0.0
O179 O 0.06151 0.9724 0.57221 0.0
H180 H 0.3422 0.96074 0.5793 0.0
H181 H 0.1301 0.97057 0.78277 0.0
O182 O 0.19062 0.94598 0.4447 0.0
C183 C -0.01534 0.96628 0.60623 0.0
O184 O -0.03536 0.92653 0.65976 0.0
N185 N 0.21627 0.86467 0.57794 0.0
C186 C 0.21192 0.76124 0.59081 0.0
C187 C 0.22832 0.78531 0.49656 0.0
C188 C 0.22956 0.83683 0.49159 0.0
C189 C 0.21652 0.84267 0.67163 0.0
C190 C 0.21439 0.79106 0.67997 0.0
H191 H 0.2242 0.85297 0.41649 0.0
H192 H 0.20485 0.86472 0.73974 0.0
H193 H 0.04245 0.92248 0.36597 0.0
H194 H 0.93626 0.78686 0.46618 0.0
H195 H 0.39114 0.01023 0.74106 0.0
H196 H 0.23275 0.76587 0.42456 0.0
H197 H 0.20834 0.77615 0.75635 0.0
C198 C 0.0298 0.13013 1.03583 0.0
C199 C -0.02392 0.14799 0.9619 0.0
N200 N -0.02209 0.11511 0.88499 0.0
N201 N 0.06538 0.08692 1.00323 0.0
C202 C 0.03087 0.07824 0.91142 0.0
H203 H 0.04128 0.14706 0.10938 0.0
Co204 Co 0.142 0.04862 1.07511 0.0
C205 C 0.2594 0.02133 0.88853 0.0
O206 O 0.32872 0.045 0.91811 0.0
N207 N 0.2168 0.01033 0.15485 0.0
C208 C 0.32702 0.97216 0.22847 0.0
C209 C 0.30081 -0.00231 0.14321 0.0
C210 C 0.19384 -0.00754 0.24864 0.0
N211 N 0.25971 0.96906 0.29496 0.0
O212 O 0.06151 -0.00455 1.07224 0.0
H213 H 0.34222 0.00723 1.07936 0.0
H214 H 0.13006 -0.00276 0.28274 0.0
O215 O 0.19063 0.02186 0.94469 0.0
C216 C -0.01533 0.00157 0.1063 0.0
O217 O -0.03532 0.04132 0.1598 0.0
N218 N 0.21624 0.1032 1.0778 0.0
C219 C 0.21193 0.20663 1.09058 0.0
C220 C 0.22817 0.18256 0.99632 0.0
C221 C 0.22945 0.13104 0.99141 0.0
C222 C 0.2166 0.12521 0.17147 0.0
C223 C 0.21454 0.17682 0.17977 0.0
H224 H 0.22403 0.11489 0.91634 0.0
H225 H 0.20502 0.10316 0.23962 0.0
H226 H 0.04267 0.04535 0.8658 0.0
H227 H 0.93629 0.18094 0.96571 0.0
H228 H 0.39117 0.95772 0.24114 0.0
H229 H 0.23242 0.20199 0.92429 0.0
H230 H 0.20868 0.19175 0.25614 0.0
C231 C 0.87219 0.13015 0.64982 0.0
C232 C 0.92604 0.14801 0.72362 0.0
N233 N 0.92442 0.11508 0.80046 0.0
N234 N 0.83668 0.08693 0.6825 0.0
C235 C 0.87136 0.07823 0.77421 0.0
H236 H 0.86058 0.1471 0.57631 0.0
Co237 Co 0.76004 0.04861 0.61069 0.0
C238 C 0.64268 0.0213 0.79732 0.0
O239 O 0.57335 0.04493 0.7677 0.0
N240 N 0.68522 0.0103 0.53101 0.0
C241 C 0.57501 0.97211 0.45744 0.0
C242 C 0.60122 -0.00236 0.54268 0.0
C243 C 0.70817 -0.00756 0.43723 0.0
N244 N 0.64231 0.96903 0.39093 0.0
O245 O 0.84054 -0.00456 0.61358 0.0
H246 H 0.55981 0.00716 0.60653 0.0
H247 H 0.77194 -0.00276 0.40312 0.0
O248 O 0.71146 0.02184 0.74116 0.0
C249 C 0.91739 0.00156 0.57955 0.0
O250 O 0.93741 0.04132 0.52604 0.0
N251 N 0.68577 0.10318 0.608 0.0
C252 C 0.6901 0.2066 0.59521 0.0
C253 C 0.67383 0.18252 0.68947 0.0
C254 C 0.67256 0.131 0.69439 0.0
C255 C 0.68541 0.12519 0.51433 0.0
C256 C 0.68749 0.1768 0.50603 0.0
H257 H 0.67799 0.11484 0.76947 0.0
H258 H 0.697 0.10316 0.44619 0.0
H259 H 0.85962 0.04533 0.81987 0.0
H260 H -0.03423 0.18098 0.71973 0.0
H261 H 0.51087 0.95764 0.4448 0.0
H262 H 0.66953 0.20194 0.7615 0.0
H263 H 0.6934 0.19174 0.42966 0.0
loop_
_geom_bond_atom_site_label_1
_geom_bond_atom_site_label_2
_geom_bond_distance
_geom_bond_site_symmetry_2
_ccdc_geom_bond_type
C0 C1 1.351 . S
C0 N3 1.368 . S
C0 H5 0.931 . S
C1 C0 1.351 . S
C1 N2 1.373 . S
C1 H29 0.930 . S
N2 C1 1.373 . S
N2 C4 1.340 . S
N3 C0 1.368 . S
N3 C4 1.321 . S
N3 Co6 2.135 . S
C4 N2 1.340 . S
C4 N3 1.321 . S
C4 H28 0.930 . S
H5 C0 0.931 . S
Co6 N3 2.135 . S
Co6 N9 2.121 1_554 S
Co6 O14 2.055 . S
Co6 O17 2.039 . S
Co6 N20 2.140 . S
C7 O8 1.227 . S
C7 O17 1.265 . S
O8 C7 1.227 . S
N9 Co6 2.121 1_556 S
N9 C11 1.375 . S
N9 C12 1.313 . S
C10 C11 1.338 . S
C10 N13 1.377 . S
C10 H30 0.930 1_455 S
C11 N9 1.375 . S
C11 C10 1.338 . S
C11 H15 0.931 1_556 S
C12 N9 1.313 . S
C12 N13 1.344 . S
C12 H16 0.930 . S
N13 C10 1.377 . S
N13 C12 1.344 . S
O14 Co6 2.055 . S
O14 C18 1.253 1_554 S
H15 C11 0.931 1_554 S
H16 C12 0.930 . S
O17 Co6 2.039 . S
O17 C7 1.265 . S
C18 O14 1.253 1_556 S
C18 O19 1.227 . S
O19 C18 1.227 . S
N20 Co6 2.140 . S
N20 C23 1.346 . S
N20 C24 1.345 1_554 S
C21 C22 1.387 1_556 S
C21 C25 1.391 . S
C22 C21 1.387 1_554 S
C22 C23 1.369 . S
C22 H31 0.929 . S
C23 N20 1.346 . S
C23 C22 1.369 . S
C23 H26 0.928 . S
C24 N20 1.345 1_556 S
C24 C25 1.371 . S
C24 H27 0.931 . S
C25 C21 1.391 . S
C25 C24 1.371 . S
C25 H32 0.930 . S
H26 C23 0.928 . S
H27 C24 0.931 . S
H28 C4 0.930 . S
H29 C1 0.930 . S
H30 C10 0.930 1_655 S
H31 C22 0.929 . S
H32 C25 0.930 . S
C33 C34 1.351 . S
C33 N36 1.368 . S
C33 H38 0.931 . S
C34 C33 1.351 . S
C34 N35 1.373 . S
C34 H62 0.930 . S
N35 C34 1.373 . S
N35 C37 1.340 . S
N36 C33 1.368 . S
N36 C37 1.321 . S
N36 Co39 2.135 . S
C37 N35 1.340 . S
C37 N36 1.321 . S
C37 H61 0.930 . S
H38 C33 0.931 . S
Co39 N36 2.135 . S
Co39 N42 2.121 . S
Co39 O47 2.055 . S
Co39 O50 2.039 . S
Co39 N53 2.140 . S
C40 O41 1.227 . S
C40 O50 1.265 . S
O41 C40 1.227 . S
N42 Co39 2.121 . S
N42 C44 1.375 . S
N42 C45 1.313 . S
C43 C44 1.338 . S
C43 N46 1.377 . S
C43 H63 0.930 1_655 S
C44 N42 1.375 . S
C44 C43 1.338 . S
C44 H48 0.931 . S
C45 N42 1.313 . S
C45 N46 1.344 . S
C45 H49 0.930 . S
N46 C43 1.377 . S
N46 C45 1.344 . S
O47 Co39 2.055 . S
O47 C51 1.253 . S
H48 C44 0.931 . S
H49 C45 0.930 . S
O50 Co39 2.039 . S
O50 C40 1.265 . S
C51 O47 1.253 . S
C51 O52 1.227 . S
O52 C51 1.227 . S
N53 Co39 2.140 . S
N53 C56 1.346 . S
N53 C57 1.345 . S
C54 C55 1.387 . S
C54 C58 1.391 . S
C55 C54 1.387 . S
C55 C56 1.369 . S
C55 H64 0.929 . S
C56 N53 1.346 . S
C56 C55 1.369 . S
C56 H59 0.928 . S
C57 N53 1.345 . S
C57 C58 1.371 . S
C57 H60 0.931 . S
C58 C54 1.391 . S
C58 C57 1.371 . S
C58 H65 0.930 . S
H59 C56 0.928 . S
H60 C57 0.931 . S
H61 C37 0.930 . S
H62 C34 0.930 . S
H63 C43 0.930 1_455 S
H64 C55 0.929 . S
H65 C58 0.930 . S
C66 C67 1.351 . S
C66 N69 1.368 . S
C66 H71 0.931 . S
C67 C66 1.351 . S
C67 N68 1.373 . S
C67 H95 0.930 . S
N68 C67 1.373 . S
N68 C70 1.340 . S
N69 C66 1.368 . S
N69 C70 1.321 . S
N69 Co72 2.135 . S
C70 N68 1.340 . S
C70 N69 1.321 . S
C70 H94 0.930 . S
H71 C66 0.931 . S
Co72 N69 2.135 . S
Co72 N75 2.121 1_556 S
Co72 O80 2.055 . S
Co72 O83 2.039 . S
Co72 N86 2.140 . S
C73 O74 1.227 . S
C73 O83 1.265 . S
O74 C73 1.227 . S
N75 Co72 2.121 1_554 S
N75 C77 1.375 . S
N75 C78 1.313 . S
C76 C77 1.338 . S
C76 N79 1.377 . S
C76 H96 0.930 1_655 S
C77 N75 1.375 . S
C77 C76 1.338 . S
C77 H81 0.931 1_554 S
C78 N75 1.313 . S
C78 N79 1.344 . S
C78 H82 0.930 . S
N79 C76 1.377 . S
N79 C78 1.344 . S
O80 Co72 2.055 . S
O80 C84 1.253 1_556 S
H81 C77 0.931 1_556 S
H82 C78 0.930 . S
O83 Co72 2.039 . S
O83 C73 1.265 . S
C84 O80 1.253 1_554 S
C84 O85 1.227 . S
O85 C84 1.227 . S
N86 Co72 2.140 . S
N86 C89 1.346 . S
N86 C90 1.345 1_556 S
C87 C88 1.387 1_554 S
C87 C91 1.391 . S
C88 C87 1.387 1_556 S
C88 C89 1.369 . S
C88 H97 0.929 . S
C89 N86 1.346 . S
C89 C88 1.369 . S
C89 H92 0.928 . S
C90 N86 1.345 1_554 S
C90 C91 1.371 . S
C90 H93 0.931 . S
C91 C87 1.391 . S
C91 C90 1.371 . S
C91 H98 0.930 . S
H92 C89 0.928 . S
H93 C90 0.931 . S
H94 C70 0.930 . S
H95 C67 0.930 . S
H96 C76 0.930 1_455 S
H97 C88 0.929 . S
H98 C91 0.930 . S
C99 C100 1.351 . S
C99 N102 1.368 . S
C99 H104 0.931 . S
C100 C99 1.351 . S
C100 N101 1.373 . S
C100 H128 0.930 . S
N101 C100 1.373 . S
N101 C103 1.340 . S
N102 C99 1.368 . S
N102 C103 1.321 . S
N102 Co105 2.135 . S
C103 N101 1.340 . S
C103 N102 1.321 . S
C103 H127 0.930 . S
H104 C99 0.931 . S
Co105 N102 2.135 . S
Co105 N108 2.121 . S
Co105 O113 2.055 . S
Co105 O116 2.039 . S
Co105 N119 2.140 . S
C106 O107 1.227 . S
C106 O116 1.265 . S
O107 C106 1.227 . S
N108 Co105 2.121 . S
N108 C110 1.375 . S
N108 C111 1.313 . S
C109 C110 1.338 . S
C109 N112 1.377 . S
C109 H129 0.930 1_455 S
C110 N108 1.375 . S
C110 C109 1.338 . S
C110 H114 0.931 . S
C111 N108 1.313 . S
C111 N112 1.344 . S
C111 H115 0.930 . S
N112 C109 1.377 . S
N112 C111 1.344 . S
O113 Co105 2.055 . S
O113 C117 1.253 . S
H114 C110 0.931 . S
H115 C111 0.930 . S
O116 Co105 2.039 . S
O116 C106 1.265 . S
C117 O113 1.253 . S
C117 O118 1.227 . S
O118 C117 1.227 . S
N119 Co105 2.140 . S
N119 C122 1.346 . S
N119 C123 1.345 . S
C120 C121 1.387 . S
C120 C124 1.391 . S
C121 C120 1.387 . S
C121 C122 1.369 . S
C121 H130 0.929 . S
C122 N119 1.346 . S
C122 C121 1.369 . S
C122 H125 0.928 . S
C123 N119 1.345 . S
C123 C124 1.371 . S
C123 H126 0.931 . S
C124 C120 1.391 . S
C124 C123 1.371 . S
C124 H131 0.930 . S
H125 C122 0.928 . S
H126 C123 0.931 . S
H127 C103 0.930 . S
H128 C100 0.930 . S
H129 C109 0.930 1_655 S
H130 C121 0.929 . S
H131 C124 0.930 . S
C132 C133 1.351 1_655 S
C132 N135 1.368 . S
C132 H137 0.931 1_655 S
C133 C132 1.351 1_455 S
C133 N134 1.373 1_455 S
C133 H161 0.930 . S
N134 C133 1.373 1_655 S
N134 C136 1.340 . S
N135 C132 1.368 . S
N135 C136 1.321 . S
N135 Co138 2.135 . S
C136 N134 1.340 . S
C136 N135 1.321 . S
C136 H160 0.930 . S
H137 C132 0.931 1_455 S
Co138 N135 2.135 . S
Co138 N141 2.121 1_554 S
Co138 O146 2.055 1_565 S
Co138 O149 2.039 1_565 S
Co138 N152 2.140 . S
C139 O140 1.227 . S
C139 O149 1.265 1_565 S
O140 C139 1.227 . S
N141 Co138 2.121 1_556 S
N141 C143 1.375 . S
N141 C144 1.313 1_565 S
C142 C143 1.338 . S
C142 N145 1.377 1_565 S
C142 H162 0.930 . S
C143 N141 1.375 . S
C143 C142 1.338 . S
C143 H147 0.931 1_556 S
C144 N141 1.313 1_545 S
C144 N145 1.344 . S
C144 H148 0.930 . S
N145 C142 1.377 1_545 S
N145 C144 1.344 . S
O146 Co138 2.055 1_545 S
O146 C150 1.253 1_544 S
H147 C143 0.931 1_554 S
H148 C144 0.930 . S
O149 Co138 2.039 1_545 S
O149 C139 1.265 1_545 S
C150 O146 1.253 1_566 S
C150 O151 1.227 . S
O151 C150 1.227 . S
N152 Co138 2.140 . S
N152 C155 1.346 . S
N152 C156 1.345 1_554 S
C153 C154 1.387 1_556 S
C153 C157 1.391 . S
C154 C153 1.387 1_554 S
C154 C155 1.369 . S
C154 H163 0.929 . S
C155 N152 1.346 . S
C155 C154 1.369 . S
C155 H158 0.928 . S
C156 N152 1.345 1_556 S
C156 C157 1.371 . S
C156 H159 0.931 . S
C157 C153 1.391 . S
C157 C156 1.371 . S
C157 H164 0.930 . S
H158 C155 0.928 . S
H159 C156 0.931 . S
H160 C136 0.930 . S
H161 C133 0.930 . S
H162 C142 0.930 . S
H163 C154 0.929 . S
H164 C157 0.930 . S
C165 C166 1.351 1_455 S
C165 N168 1.368 . S
C165 H170 0.931 1_455 S
C166 C165 1.351 1_655 S
C166 N167 1.373 1_655 S
C166 H194 0.930 . S
N167 C166 1.373 1_455 S
N167 C169 1.340 . S
N168 C165 1.368 . S
N168 C169 1.321 . S
N168 Co171 2.135 . S
C169 N167 1.340 . S
C169 N168 1.321 . S
C169 H193 0.930 . S
H170 C165 0.931 1_655 S
Co171 N168 2.135 . S
Co171 N174 2.121 . S
Co171 O179 2.055 1_565 S
Co171 O182 2.039 1_565 S
Co171 N185 2.140 . S
C172 O173 1.227 . S
C172 O182 1.265 1_565 S
O173 C172 1.227 . S
N174 Co171 2.121 . S
N174 C176 1.375 . S
N174 C177 1.313 1_565 S
C175 C176 1.338 . S
C175 N178 1.377 1_565 S
C175 H195 0.930 . S
C176 N174 1.375 . S
C176 C175 1.338 . S
C176 H180 0.931 . S
C177 N174 1.313 1_545 S
C177 N178 1.344 . S
C177 H181 0.930 . S
N178 C175 1.377 1_545 S
N178 C177 1.344 . S
O179 Co171 2.055 1_545 S
O179 C183 1.253 1_545 S
H180 C176 0.931 . S
H181 C177 0.930 . S
O182 Co171 2.039 1_545 S
O182 C172 1.265 1_545 S
C183 O179 1.253 1_565 S
C183 O184 1.227 . S
O184 C183 1.227 . S
N185 Co171 2.140 . S
N185 C188 1.346 . S
N185 C189 1.345 . S
C186 C187 1.387 . S
C186 C190 1.391 . S
C187 C186 1.387 . S
C187 C188 1.369 . S
C187 H196 0.929 . S
C188 N185 1.346 . S
C188 C187 1.369 . S
C188 H191 0.928 . S
C189 N185 1.345 . S
C189 C190 1.371 . S
C189 H192 0.931 . S
C190 C186 1.391 . S
C190 C189 1.371 . S
C190 H197 0.930 . S
H191 C188 0.928 . S
H192 C189 0.931 . S
H193 C169 0.930 . S
H194 C166 0.930 . S
H195 C175 0.930 . S
H196 C187 0.929 . S
H197 C190 0.930 . S
C198 C199 1.351 1_455 S
C198 N201 1.368 . S
C198 H203 0.931 1_455 S
C199 C198 1.351 1_655 S
C199 N200 1.373 1_655 S
C199 H227 0.930 . S
N200 C199 1.373 1_455 S
N200 C202 1.340 . S
N201 C198 1.368 . S
N201 C202 1.321 . S
N201 Co204 2.135 . S
C202 N200 1.340 . S
C202 N201 1.321 . S
C202 H226 0.930 . S
H203 C198 0.931 1_655 S
Co204 N201 2.135 . S
Co204 N207 2.121 1_556 S
Co204 O212 2.055 1_545 S
Co204 O215 2.039 1_545 S
Co204 N218 2.140 . S
C205 O206 1.227 . S
C205 O215 1.265 1_545 S
O206 C205 1.227 . S
N207 Co204 2.121 1_554 S
N207 C209 1.375 . S
N207 C210 1.313 1_545 S
C208 C209 1.338 . S
C208 N211 1.377 1_545 S
C208 H228 0.930 . S
C209 N207 1.375 . S
C209 C208 1.338 . S
C209 H213 0.931 1_554 S
C210 N207 1.313 1_565 S
C210 N211 1.344 . S
C210 H214 0.930 . S
N211 C208 1.377 1_565 S
N211 C210 1.344 . S
O212 Co204 2.055 1_565 S
O212 C216 1.253 1_566 S
H213 C209 0.931 1_556 S
H214 C210 0.930 . S
O215 Co204 2.039 1_565 S
O215 C205 1.265 1_565 S
C216 O212 1.253 1_544 S
C216 O217 1.227 . S
O217 C216 1.227 . S
N218 Co204 2.140 . S
N218 C221 1.346 . S
N218 C222 1.345 1_556 S
C219 C220 1.387 1_554 S
C219 C223 1.391 . S
C220 C219 1.387 1_556 S
C220 C221 1.369 . S
C220 H229 0.929 . S
C221 N218 1.346 . S
C221 C220 1.369 . S
C221 H224 0.928 . S
C222 N218 1.345 1_554 S
C222 C223 1.371 . S
C222 H225 0.931 . S
C223 C219 1.391 . S
C223 C222 1.371 . S
C223 H230 0.930 . S
H224 C221 0.928 . S
H225 C222 0.931 . S
H226 C202 0.930 . S
H227 C199 0.930 . S
H228 C208 0.930 . S
H229 C220 0.929 . S
H230 C223 0.930 . S
C231 C232 1.351 1_655 S
C231 N234 1.368 . S
C231 H236 0.931 1_655 S
C232 C231 1.351 1_455 S
C232 N233 1.373 1_455 S
C232 H260 0.930 . S
N233 C232 1.373 1_655 S
N233 C235 1.340 . S
N234 C231 1.368 . S
N234 C235 1.321 . S
N234 Co237 2.135 . S
C235 N233 1.340 . S
C235 N234 1.321 . S
C235 H259 0.930 . S
H236 C231 0.931 1_455 S
Co237 N234 2.135 . S
Co237 N240 2.121 . S
Co237 O245 2.055 1_545 S
Co237 O248 2.039 1_545 S
Co237 N251 2.140 . S
C238 O239 1.227 . S
C238 O248 1.265 1_545 S
O239 C238 1.227 . S
N240 Co237 2.121 . S
N240 C242 1.375 . S
N240 C243 1.313 1_545 S
C241 C242 1.338 . S
C241 N244 1.377 1_545 S
C241 H261 0.930 . S
C242 N240 1.375 . S
C242 C241 1.338 . S
C242 H246 0.931 . S
C243 N240 1.313 1_565 S
C243 N244 1.344 . S
C243 H247 0.930 . S
N244 C241 1.377 1_565 S
N244 C243 1.344 . S
O245 Co237 2.055 1_565 S
O245 C249 1.253 1_565 S
H246 C242 0.931 . S
H247 C243 0.930 . S
O248 Co237 2.039 1_565 S
O248 C238 1.265 1_565 S
C249 O245 1.253 1_545 S
C249 O250 1.227 . S
O250 C249 1.227 . S
N251 Co237 2.140 . S
N251 C254 1.346 . S
N251 C255 1.345 . S
C252 C253 1.387 . S
C252 C256 1.391 . S
C253 C252 1.387 . S
C253 C254 1.369 . S
C253 H262 0.929 . S
C254 N251 1.346 . S
C254 C253 1.369 . S
C254 H257 0.928 . S
C255 N251 1.345 . S
C255 C256 1.371 . S
C255 H258 0.931 . S
C256 C252 1.391 . S
C256 C255 1.371 . S
C256 H263 0.930 . S
H257 C254 0.928 . S
H258 C255 0.931 . S
H259 C235 0.930 . S
H260 C232 0.930 . S
H261 C241 0.930 . S
H262 C253 0.929 . S
H263 C256 0.930 . S
C106 N13 2.523 . S
N46 C73 2.523 . S
C40 N79 2.523 . S
C7 N112 2.523 . S
N145 C238 2.523 . S
C205 N178 2.523 . S
N211 C172 2.523 . S
N244 C139 2.523 . S
C18 C84 2.305 1_556 S
C51 C117 2.304 . S
C216 C150 2.304 1_444 S
C249 C183 2.304 1_645 S
C21 C219 1.992 1_556 S
C54 C252 1.992 . S
C153 C87 1.992 1_556 S
C186 C120 1.992 . S
N35 N2 0.876 . S
N101 N68 0.876 . S
N167 N134 0.875 1_455 S
N200 N233 0.875 1_455 S
