# Generated by pormake.
# Topology cbo, (4)-cn, num edge types: 1
# Building blocks:
#     Node 0, Type 0, BuildingBlock: KUFVIS_clean_sbu_0, # of connection points: 4
#     Node 1, Type 0, BuildingBlock: KUFVIS_clean_sbu_0, # of connection points: 4
#     Node 2, Type 0, BuildingBlock: KUFVIS_clean_sbu_0, # of connection points: 4
#     Node 3, Type 0, BuildingBlock: KUFVIS_clean_sbu_0, # of connection points: 4
#     Node 4, Type 0, BuildingBlock: KUFVIS_clean_sbu_0, # of connection points: 4
#     Node 5, Type 0, BuildingBlock: KUFVIS_clean_sbu_0, # of connection points: 4
#     Node 6, Type 0, BuildingBlock: KUFVIS_clean_sbu_0, # of connection points: 4
#     Node 7, Type 0, BuildingBlock: KUFVIS_clean_sbu_0, # of connection points: 4
#     Node 8, Type 0, BuildingBlock: KUFVIS_clean_sbu_0, # of connection points: 4
#     Node 9, Type 0, BuildingBlock: KUFVIS_clean_sbu_0, # of connection points: 4
#     Node 10, Type 0, BuildingBlock: KUFVIS_clean_sbu_0, # of connection points: 4
#     Node 11, Type 0, BuildingBlock: KUFVIS_clean_sbu_0, # of connection points: 4
#     Node 12, Type 0, BuildingBlock: KUFVIS_clean_sbu_0, # of connection points: 4
#     Node 13, Type 0, BuildingBlock: KUFVIS_clean_sbu_0, # of connection points: 4
#     Node 14, Type 0, BuildingBlock: KUFVIS_clean_sbu_0, # of connection points: 4
#     Node 15, Type 0, BuildingBlock: KUFVIS_clean_sbu_0, # of connection points: 4
#     Node 16, Type 0, BuildingBlock: KUFVIS_clean_sbu_0, # of connection points: 4
#     Node 17, Type 0, BuildingBlock: KUFVIS_clean_sbu_0, # of connection points: 4
#     Node 18, Type 0, BuildingBlock: KUFVIS_clean_sbu_0, # of connection points: 4
#     Node 19, Type 0, BuildingBlock: KUFVIS_clean_sbu_0, # of connection points: 4
#     Node 20, Type 0, BuildingBlock: KUFVIS_clean_sbu_0, # of connection points: 4
#     Node 21, Type 0, BuildingBlock: KUFVIS_clean_sbu_0, # of connection points: 4
#     Node 22, Type 0, BuildingBlock: KUFVIS_clean_sbu_0, # of connection points: 4
#     Node 23, Type 0, BuildingBlock: KUFVIS_clean_sbu_0, # of connection points: 4
#     Edge 24, Type (0, 0), BuildingBlock: ZUJKAS_clean_linker_0, # of connection points: 2
#     Edge 25, Type (0, 0), BuildingBlock: ZUJKAS_clean_linker_0, # of connection points: 2
#     Edge 26, Type (0, 0), BuildingBlock: ZUJKAS_clean_linker_0, # of connection points: 2
#     Edge 27, Type (0, 0), BuildingBlock: ZUJKAS_clean_linker_0, # of connection points: 2
#     Edge 28, Type (0, 0), BuildingBlock: ZUJKAS_clean_linker_0, # of connection points: 2
#     Edge 29, Type (0, 0), BuildingBlock: ZUJKAS_clean_linker_0, # of connection points: 2
#     Edge 30, Type (0, 0), BuildingBlock: ZUJKAS_clean_linker_0, # of connection points: 2
#     Edge 31, Type (0, 0), BuildingBlock: ZUJKAS_clean_linker_0, # of connection points: 2
#     Edge 32, Type (0, 0), BuildingBlock: ZUJKAS_clean_linker_0, # of connection points: 2
#     Edge 33, Type (0, 0), BuildingBlock: ZUJKAS_clean_linker_0, # of connection points: 2
#     Edge 34, Type (0, 0), BuildingBlock: ZUJKAS_clean_linker_0, # of connection points: 2
#     Edge 35, Type (0, 0), BuildingBlock: ZUJKAS_clean_linker_0, # of connection points: 2
#     Edge 36, Type (0, 0), BuildingBlock: ZUJKAS_clean_linker_0, # of connection points: 2
#     Edge 37, Type (0, 0), BuildingBlock: ZUJKAS_clean_linker_0, # of connection points: 2
#     Edge 38, Type (0, 0), BuildingBlock: ZUJKAS_clean_linker_0, # of connection points: 2
#     Edge 39, Type (0, 0), BuildingBlock: ZUJKAS_clean_linker_0, # of connection points: 2
#     Edge 40, Type (0, 0), BuildingBlock: ZUJKAS_clean_linker_0, # of connection points: 2
#     Edge 41, Type (0, 0), BuildingBlock: ZUJKAS_clean_linker_0, # of connection points: 2
#     Edge 42, Type (0, 0), BuildingBlock: ZUJKAS_clean_linker_0, # of connection points: 2
#     Edge 43, Type (0, 0), BuildingBlock: ZUJKAS_clean_linker_0, # of connection points: 2
#     Edge 44, Type (0, 0), BuildingBlock: ZUJKAS_clean_linker_0, # of connection points: 2
#     Edge 45, Type (0, 0), BuildingBlock: ZUJKAS_clean_linker_0, # of connection points: 2
#     Edge 46, Type (0, 0), BuildingBlock: ZUJKAS_clean_linker_0, # of connection points: 2
#     Edge 47, Type (0, 0), BuildingBlock: ZUJKAS_clean_linker_0, # of connection points: 2
#     Edge 48, Type (0, 0), BuildingBlock: ZUJKAS_clean_linker_0, # of connection points: 2
#     Edge 49, Type (0, 0), BuildingBlock: ZUJKAS_clean_linker_0, # of connection points: 2
#     Edge 50, Type (0, 0), BuildingBlock: ZUJKAS_clean_linker_0, # of connection points: 2
#     Edge 51, Type (0, 0), BuildingBlock: ZUJKAS_clean_linker_0, # of connection points: 2
#     Edge 52, Type (0, 0), BuildingBlock: ZUJKAS_clean_linker_0, # of connection points: 2
#     Edge 53, Type (0, 0), BuildingBlock: ZUJKAS_clean_linker_0, # of connection points: 2
#     Edge 54, Type (0, 0), BuildingBlock: ZUJKAS_clean_linker_0, # of connection points: 2
#     Edge 55, Type (0, 0), BuildingBlock: ZUJKAS_clean_linker_0, # of connection points: 2
#     Edge 56, Type (0, 0), BuildingBlock: ZUJKAS_clean_linker_0, # of connection points: 2
#     Edge 57, Type (0, 0), BuildingBlock: ZUJKAS_clean_linker_0, # of connection points: 2
#     Edge 58, Type (0, 0), BuildingBlock: ZUJKAS_clean_linker_0, # of connection points: 2
#     Edge 59, Type (0, 0), BuildingBlock: ZUJKAS_clean_linker_0, # of connection points: 2
#     Edge 60, Type (0, 0), BuildingBlock: ZUJKAS_clean_linker_0, # of connection points: 2
#     Edge 61, Type (0, 0), BuildingBlock: ZUJKAS_clean_linker_0, # of connection points: 2
#     Edge 62, Type (0, 0), BuildingBlock: ZUJKAS_clean_linker_0, # of connection points: 2
#     Edge 63, Type (0, 0), BuildingBlock: ZUJKAS_clean_linker_0, # of connection points: 2
#     Edge 64, Type (0, 0), BuildingBlock: ZUJKAS_clean_linker_0, # of connection points: 2
#     Edge 65, Type (0, 0), BuildingBlock: ZUJKAS_clean_linker_0, # of connection points: 2
#     Edge 66, Type (0, 0), BuildingBlock: ZUJKAS_clean_linker_0, # of connection points: 2
#     Edge 67, Type (0, 0), BuildingBlock: ZUJKAS_clean_linker_0, # of connection points: 2
#     Edge 68, Type (0, 0), BuildingBlock: ZUJKAS_clean_linker_0, # of connection points: 2
#     Edge 69, Type (0, 0), BuildingBlock: ZUJKAS_clean_linker_0, # of connection points: 2
#     Edge 70, Type (0, 0), BuildingBlock: ZUJKAS_clean_linker_0, # of connection points: 2
#     Edge 71, Type (0, 0), BuildingBlock: ZUJKAS_clean_linker_0, # of connection points: 2
# Relax obj value: 0.205
# Max RMSD: 0.223
# Mean RMSD: 0.213
data_MOF--net-cbo--node1-KUFVIS_clean_sbu_0--edge1-ZUJKAS_clean_linker_0
_symmetry_space_group_name_H-M    P1
_symmetry_Int_Tables_number       1
_symmetry_cell_setting            triclinic
loop_
_symmetry_equiv_pos_as_xyz
'x, y, z'
_cell_length_a     66.523263
_cell_length_b     65.919905
_cell_length_c     67.475634
_cell_angle_alpha  89.995955
_cell_angle_beta   90.000419
_cell_angle_gamma 90.017346
loop_
_atom_site_label
_atom_site_type_symbol
_atom_site_fract_x
_atom_site_fract_y
_atom_site_fract_z
_atom_type_partial_charge
Mn0 Mn 0.13637 0.16464 0.33332 0.0
Mn1 Mn 0.13225 0.11477 0.34374 0.0
C2 C 0.16395 0.14376 0.32999 0.0
C3 C 0.13255 0.19099 0.31059 0.0
C4 C 0.13614 0.14726 0.37537 0.0
O5 O 0.1063 0.16022 0.33413 0.0
O6 O 0.10502 0.12656 0.33949 0.0
C7 C 0.11699 0.10092 0.30482 0.0
N8 N 0.13099 0.09984 0.31951 0.0
C9 C 0.14892 0.07343 0.30241 0.0
C10 C 0.13462 0.07416 0.28716 0.0
C11 C 0.11863 0.08802 0.28834 0.0
C12 C 0.14653 0.08669 0.31845 0.0
H13 H 0.10466 0.11154 0.30568 0.0
C14 C 0.09658 0.14374 0.33637 0.0
O15 O 0.13248 0.19446 0.32956 0.0
O16 O 0.1348 0.17233 0.30498 0.0
N17 N 0.15731 0.10123 0.34802 0.0
C18 C 0.17032 0.10311 0.36352 0.0
C19 C 0.18748 0.09073 0.36428 0.0
C20 C 0.19093 0.07637 0.34928 0.0
C21 C 0.17718 0.07453 0.33363 0.0
C22 C 0.16039 0.08732 0.33362 0.0
H23 H 0.16767 0.11405 0.37514 0.0
O24 O 0.1662 0.16324 0.33161 0.0
O25 O 0.14552 0.13712 0.3298 0.0
O26 O 0.13765 0.16239 0.36361 0.0
O27 O 0.13389 0.12898 0.36944 0.0
C28 C 0.17955 0.06062 0.31795 0.0
C29 C 0.16553 0.06018 0.30227 0.0
H30 H 0.13584 0.06423 0.27442 0.0
H31 H 0.10758 0.08873 0.27659 0.0
H32 H 0.19801 0.09223 0.37642 0.0
H33 H 0.2042 0.06688 0.34989 0.0
H34 H 0.19221 0.05029 0.3177 0.0
H35 H 0.16771 0.04964 0.29014 0.0
Mn36 Mn 0.35897 0.82546 0.83359 0.0
Mn37 Mn 0.35865 0.87524 0.84506 0.0
C38 C 0.32927 0.84344 0.83212 0.0
C39 C 0.3643 0.80011 0.81014 0.0
C40 C 0.35977 0.84189 0.876 0.0
O41 O 0.3884 0.83303 0.83285 0.0
O42 O 0.38672 0.86647 0.83926 0.0
C43 C 0.37043 0.89155 0.80587 0.0
N44 N 0.35718 0.89083 0.82124 0.0
C45 C 0.33608 0.91602 0.806 0.0
C46 C 0.34956 0.91714 0.79006 0.0
C47 C 0.36676 0.90478 0.78996 0.0
C48 C 0.34049 0.90251 0.82141 0.0
H49 H 0.38369 0.88211 0.80577 0.0
C50 C 0.3966 0.85031 0.83517 0.0
O51 O 0.36599 0.79636 0.82898 0.0
O52 O 0.35953 0.81844 0.80506 0.0
N53 N 0.33259 0.88598 0.85087 0.0
C54 C 0.32054 0.88221 0.86678 0.0
C55 C 0.30234 0.8928 0.86875 0.0
C56 C 0.29688 0.90737 0.85453 0.0
C57 C 0.30965 0.91114 0.83841 0.0
C58 C 0.32753 0.90003 0.83716 0.0
H59 H 0.32474 0.87113 0.87781 0.0
O60 O 0.32908 0.82379 0.83351 0.0
O61 O 0.34691 0.85194 0.83119 0.0
O62 O 0.35922 0.82694 0.86396 0.0
O63 O 0.35977 0.86042 0.87042 0.0
C64 C 0.30526 0.92537 0.82343 0.0
C65 C 0.31837 0.92768 0.80716 0.0
H66 H 0.34679 0.92733 0.77777 0.0
H67 H 0.37719 0.90548 0.77767 0.0
H68 H 0.29256 0.8898 0.88123 0.0
H69 H 0.28283 0.9155 0.8561 0.0
H70 H 0.29173 0.93446 0.82418 0.0
H71 H 0.31463 0.93839 0.79555 0.0
Mn72 Mn 0.63321 0.32323 0.66698 0.0
Mn73 Mn 0.6341 0.37391 0.66041 0.0
C74 C 0.66314 0.34062 0.6698 0.0
C75 C 0.62767 0.2959 0.68813 0.0
C76 C 0.63078 0.34375 0.62654 0.0
O77 O 0.60396 0.33132 0.66895 0.0
O78 O 0.60617 0.36539 0.66718 0.0
C79 C 0.62546 0.38685 0.70153 0.0
N80 N 0.63773 0.38707 0.68538 0.0
C81 C 0.66146 0.40882 0.70192 0.0
C82 C 0.64901 0.40895 0.71869 0.0
C83 C 0.63095 0.39788 0.7185 0.0
C84 C 0.65516 0.39764 0.68541 0.0
H85 H 0.61162 0.37829 0.70147 0.0
C86 C 0.59611 0.34895 0.66943 0.0
O87 O 0.62573 0.29394 0.66905 0.0
O88 O 0.6329 0.31358 0.69475 0.0
N89 N 0.66023 0.38412 0.65395 0.0
C90 C 0.67108 0.38143 0.63703 0.0
C91 C 0.68985 0.39098 0.63507 0.0
C92 C 0.6972 0.40327 0.65046 0.0
C93 C 0.68568 0.40594 0.66766 0.0
C94 C 0.66703 0.39614 0.66873 0.0
H95 H 0.66551 0.37198 0.62516 0.0
O96 O 0.66318 0.3212 0.66655 0.0
O97 O 0.64558 0.34907 0.67153 0.0
O98 O 0.63242 0.32767 0.63696 0.0
O99 O 0.63076 0.36162 0.63392 0.0
C100 C 0.69211 0.41767 0.68392 0.0
C101 C 0.68005 0.41904 0.70107 0.0
H102 H 0.65325 0.41734 0.73185 0.0
H103 H 0.62132 0.39781 0.73143 0.0
H104 H 0.69866 0.38882 0.62175 0.0
H105 H 0.71175 0.41047 0.64896 0.0
H106 H 0.70644 0.42546 0.68349 0.0
H107 H 0.68533 0.42783 0.7136 0.0
Mn108 Mn 0.8614 0.67432 0.1598 0.0
Mn109 Mn 0.86043 0.62406 0.15076 0.0
C110 C 0.83208 0.65627 0.16438 0.0
C111 C 0.86781 0.70058 0.18203 0.0
C112 C 0.86002 0.65601 0.11828 0.0
O113 O 0.8909 0.66677 0.15868 0.0
O114 O 0.88875 0.63283 0.15518 0.0
C115 C 0.87339 0.60937 0.19018 0.0
N116 N 0.85952 0.6097 0.17535 0.0
C117 C 0.83761 0.5873 0.19343 0.0
C118 C 0.85173 0.5866 0.20884 0.0
C119 C 0.86969 0.59771 0.20721 0.0
C120 C 0.84219 0.59908 0.17675 0.0
H121 H 0.88715 0.61801 0.18905 0.0
C122 C 0.89889 0.64923 0.1574 0.0
O123 O 0.86801 0.70376 0.16301 0.0
O124 O 0.86417 0.68224 0.18793 0.0
N125 N 0.83392 0.61366 0.14642 0.0
C126 C 0.82146 0.61675 0.13068 0.0
C127 C 0.80264 0.6071 0.13023 0.0
C128 C 0.79688 0.59433 0.14589 0.0
C129 C 0.81004 0.59123 0.16183 0.0
C130 C 0.82869 0.60108 0.16138 0.0
H131 H 0.82579 0.62661 0.11864 0.0
O132 O 0.83151 0.67581 0.16214 0.0
O133 O 0.84982 0.64804 0.16413 0.0
O134 O 0.85942 0.67153 0.12961 0.0
O135 O 0.86084 0.63778 0.12473 0.0
C136 C 0.80525 0.57902 0.17831 0.0
C137 C 0.819 0.5771 0.19412 0.0
H138 H 0.84887 0.57774 0.22206 0.0
H139 H 0.88061 0.59734 0.2191 0.0
H140 H 0.79256 0.60959 0.11788 0.0
H141 H 0.78226 0.58709 0.14559 0.0
H142 H 0.79093 0.57124 0.17909 0.0
H143 H 0.81502 0.5679 0.20683 0.0
Mn144 Mn 0.34312 0.11583 0.18024 0.0
Mn145 Mn 0.35038 0.1228 0.1312 0.0
C146 C 0.3362 0.14681 0.16616 0.0
C147 C 0.32265 0.10544 0.20626 0.0
C148 C 0.38427 0.12259 0.16125 0.0
O149 O 0.34569 0.08716 0.16976 0.0
O150 O 0.34864 0.0932 0.13702 0.0
C151 C 0.31103 0.10775 0.11696 0.0
N152 N 0.32492 0.12289 0.11808 0.0
C153 C 0.30423 0.14516 0.09854 0.0
C154 C 0.28976 0.12976 0.09705 0.0
C155 C 0.29316 0.11099 0.10633 0.0
C156 C 0.32179 0.14101 0.10924 0.0
H157 H 0.31354 0.09335 0.12416 0.0
C158 C 0.34739 0.08113 0.15189 0.0
O159 O 0.34208 0.10598 0.20816 0.0
O160 O 0.31527 0.11043 0.18915 0.0
N161 N 0.35222 0.15066 0.12339 0.0
C162 C 0.36729 0.16419 0.12695 0.0
C163 C 0.36597 0.18387 0.1191 0.0
C164 C 0.34928 0.18939 0.10755 0.0
C165 C 0.33411 0.17512 0.10384 0.0
C166 C 0.33632 0.15567 0.11192 0.0
H167 H 0.38014 0.16004 0.13585 0.0
O168 O 0.33921 0.14533 0.1851 0.0
O169 O 0.33691 0.13 0.15607 0.0
O170 O 0.37332 0.12016 0.17659 0.0
O171 O 0.37724 0.12344 0.14364 0.0
C172 C 0.31671 0.17952 0.09274 0.0
C173 C 0.30176 0.16457 0.09013 0.0
H174 H 0.27591 0.13224 0.08896 0.0
H175 H 0.28202 0.09907 0.10533 0.0
H176 H 0.37775 0.1948 0.12202 0.0
H177 H 0.34821 0.20465 0.10169 0.0
H178 H 0.31455 0.19444 0.08634 0.0
H179 H 0.28833 0.16822 0.08178 0.0
Mn180 Mn 0.15293 0.87392 0.67742 0.0
Mn181 Mn 0.15125 0.87388 0.62749 0.0
C182 C 0.15874 0.84432 0.66012 0.0
C183 C 0.17144 0.87914 0.70623 0.0
C184 C 0.11399 0.87411 0.65346 0.0
O185 O 0.15404 0.90388 0.67052 0.0
O186 O 0.15526 0.90205 0.63721 0.0
C187 C 0.19365 0.88544 0.62046 0.0
N188 N 0.17821 0.87214 0.61784 0.0
C189 C 0.19936 0.84941 0.59929 0.0
C190 C 0.21545 0.86293 0.60167 0.0
C191 C 0.21259 0.88101 0.61233 0.0
C192 C 0.18086 0.85462 0.60776 0.0
H193 H 0.19155 0.89928 0.62876 0.0
C194 C 0.1555 0.9121 0.65346 0.0
O195 O 0.15192 0.88012 0.70641 0.0
O196 O 0.18002 0.87542 0.68938 0.0
N197 N 0.14759 0.84761 0.61594 0.0
C198 C 0.13046 0.83633 0.61477 0.0
C199 C 0.13067 0.81792 0.60429 0.0
C200 C 0.14842 0.81139 0.595 0.0
C201 C 0.16576 0.82344 0.59608 0.0
C202 C 0.16456 0.84178 0.60649 0.0
H203 H 0.11675 0.84131 0.62181 0.0
O204 O 0.15387 0.84362 0.67872 0.0
O205 O 0.16048 0.8623 0.65249 0.0
O206 O 0.12316 0.87313 0.67007 0.0
O207 O 0.123 0.87498 0.63671 0.0
C208 C 0.18419 0.81795 0.58732 0.0
C209 C 0.20101 0.83088 0.58901 0.0
H210 H 0.23009 0.85956 0.59546 0.0
H211 H 0.22496 0.89148 0.61432 0.0
H212 H 0.1172 0.80875 0.60343 0.0
H213 H 0.14858 0.79708 0.5871 0.0
H214 H 0.18563 0.80376 0.57936 0.0
H215 H 0.21515 0.8264 0.58236 0.0
Mn216 Mn 0.83818 0.3759 0.82558 0.0
Mn217 Mn 0.8429 0.37475 0.87533 0.0
C218 C 0.83011 0.34684 0.84282 0.0
C219 C 0.81917 0.38323 0.79756 0.0
C220 C 0.87828 0.37175 0.84714 0.0
O221 O 0.84041 0.40564 0.83291 0.0
O222 O 0.84128 0.40344 0.86625 0.0
C223 C 0.80292 0.39094 0.88623 0.0
N224 N 0.8169 0.3759 0.88728 0.0
C225 C 0.79557 0.35584 0.90841 0.0
C226 C 0.78099 0.37119 0.90766 0.0
C227 C 0.78467 0.38879 0.89649 0.0
C228 C 0.8135 0.35888 0.89796 0.0
H229 H 0.80566 0.40446 0.87759 0.0
C230 C 0.84096 0.4137 0.85009 0.0
O231 O 0.83866 0.38236 0.79671 0.0
O232 O 0.81087 0.38028 0.81471 0.0
N233 N 0.84447 0.34792 0.88602 0.0
C234 C 0.85959 0.3341 0.88428 0.0
C235 C 0.85806 0.31542 0.89418 0.0
C236 C 0.84107 0.31122 0.90584 0.0
C237 C 0.82572 0.3257 0.90744 0.0
C238 C 0.82816 0.34411 0.89738 0.0
H239 H 0.87269 0.33727 0.87535 0.0
O240 O 0.83421 0.34597 0.82404 0.0
O241 O 0.8306 0.36477 0.85085 0.0
O242 O 0.86811 0.37201 0.83113 0.0
O243 O 0.87037 0.37306 0.86435 0.0
C244 C 0.80797 0.32249 0.91841 0.0
C245 C 0.79288 0.33752 0.91883 0.0
H246 H 0.76686 0.36954 0.91547 0.0
H247 H 0.77345 0.40065 0.89575 0.0
H248 H 0.86994 0.3043 0.89282 0.0
H249 H 0.83997 0.29679 0.91343 0.0
H250 H 0.80566 0.30843 0.92639 0.0
H251 H 0.77918 0.33475 0.92708 0.0
Mn252 Mn 0.6575 0.61936 0.32305 0.0
Mn253 Mn 0.65169 0.62424 0.37251 0.0
C254 C 0.66102 0.65067 0.33761 0.0
C255 C 0.67798 0.61209 0.29604 0.0
C256 C 0.61676 0.62002 0.34392 0.0
O257 O 0.65908 0.59042 0.33291 0.0
O258 O 0.65705 0.59525 0.36592 0.0
C259 C 0.69327 0.61445 0.3848 0.0
N260 N 0.67747 0.62757 0.38457 0.0
C261 C 0.69592 0.65218 0.40364 0.0
C262 C 0.71235 0.63886 0.40422 0.0
C263 C 0.71102 0.61993 0.39473 0.0
C264 C 0.67858 0.64582 0.39365 0.0
H265 H 0.69235 0.59994 0.37742 0.0
C266 C 0.65908 0.58381 0.35067 0.0
O267 O 0.65856 0.61026 0.29488 0.0
O268 O 0.6854 0.61777 0.31292 0.0
N269 N 0.64652 0.65145 0.38099 0.0
C270 C 0.6297 0.6629 0.37824 0.0
C271 C 0.62881 0.68251 0.38633 0.0
C272 C 0.64514 0.69008 0.39726 0.0
C273 C 0.66218 0.67791 0.40013 0.0
C274 C 0.66214 0.65842 0.39186 0.0
H275 H 0.61713 0.65719 0.36979 0.0
O276 O 0.65741 0.64921 0.31878 0.0
O277 O 0.66292 0.6337 0.34729 0.0
O278 O 0.62719 0.6196 0.32805 0.0
O279 O 0.62444 0.62137 0.36124 0.0
C280 C 0.67935 0.6845 0.41052 0.0
C281 C 0.69622 0.67165 0.41226 0.0
H282 H 0.72611 0.64308 0.41174 0.0
H283 H 0.72367 0.60962 0.39501 0.0
H284 H 0.61561 0.69181 0.38405 0.0
H285 H 0.64449 0.7053 0.40328 0.0
H286 H 0.67984 0.69952 0.41702 0.0
H287 H 0.70943 0.67699 0.42006 0.0
Mn288 Mn 0.18677 0.3342 0.12533 0.0
Mn289 Mn 0.22789 0.35409 0.10354 0.0
C290 C 0.21455 0.3141 0.11967 0.0
C291 C 0.16883 0.32742 0.15424 0.0
C292 C 0.19003 0.34245 0.08099 0.0
O293 O 0.18197 0.36455 0.12733 0.0
O294 O 0.21135 0.37625 0.11516 0.0
C295 C 0.24864 0.3695 0.1393 0.0
N296 N 0.24865 0.35761 0.12279 0.0
C297 C 0.28225 0.34602 0.12957 0.0
C298 C 0.28266 0.35826 0.14656 0.0
C299 C 0.26576 0.37001 0.15146 0.0
C300 C 0.2648 0.3462 0.11797 0.0
H301 H 0.23564 0.37848 0.14317 0.0
C302 C 0.19403 0.37897 0.12307 0.0
O303 O 0.1599 0.32787 0.13711 0.0
O304 O 0.18783 0.33171 0.15453 0.0
N305 N 0.24527 0.33431 0.09182 0.0
C306 C 0.24209 0.32265 0.07545 0.0
C307 C 0.25741 0.30973 0.06872 0.0
C308 C 0.27586 0.30902 0.07882 0.0
C309 C 0.27881 0.32122 0.0956 0.0
C310 C 0.26307 0.33397 0.10148 0.0
H311 H 0.22797 0.32315 0.06759 0.0
O312 O 0.19707 0.30596 0.12265 0.0
O313 O 0.21532 0.33378 0.12056 0.0
O314 O 0.18031 0.33511 0.09565 0.0
O315 O 0.2075 0.3504 0.08259 0.0
C316 C 0.29664 0.32105 0.10686 0.0
C317 C 0.29834 0.33339 0.12387 0.0
H318 H 0.2958 0.35862 0.15604 0.0
H319 H 0.26592 0.37941 0.16461 0.0
H320 H 0.25502 0.30033 0.05578 0.0
H321 H 0.28763 0.29905 0.07355 0.0
H322 H 0.30907 0.31133 0.1027 0.0
H323 H 0.31203 0.33294 0.13255 0.0
Mn324 Mn 0.67304 0.16023 0.87197 0.0
Mn325 Mn 0.71554 0.14377 0.89394 0.0
C326 C 0.69856 0.18276 0.87869 0.0
C327 C 0.65523 0.16567 0.84271 0.0
C328 C 0.67654 0.15125 0.91623 0.0
O329 O 0.67128 0.12973 0.86895 0.0
O330 O 0.70107 0.12036 0.88189 0.0
C331 C 0.73766 0.13093 0.85801 0.0
N332 N 0.73658 0.14251 0.8747 0.0
C333 C 0.76884 0.15754 0.86799 0.0
C334 C 0.77037 0.14567 0.85081 0.0
C335 C 0.75469 0.13233 0.8458 0.0
C336 C 0.75157 0.15539 0.87966 0.0
H337 H 0.72558 0.12076 0.85404 0.0
C338 C 0.68432 0.1163 0.87335 0.0
O339 O 0.64591 0.16396 0.85958 0.0
O340 O 0.67459 0.16365 0.84295 0.0
N341 N 0.73112 0.16479 0.90609 0.0
C342 C 0.72697 0.17573 0.92273 0.0
C343 C 0.74094 0.19011 0.92953 0.0
C344 C 0.75908 0.19299 0.91925 0.0
C345 C 0.76315 0.18133 0.90234 0.0
C346 C 0.74875 0.16709 0.89637 0.0
H347 H 0.71303 0.17363 0.93067 0.0
O348 O 0.68044 0.18927 0.8756 0.0
O349 O 0.70127 0.16329 0.87731 0.0
O350 O 0.66622 0.15775 0.90156 0.0
O351 O 0.69477 0.14527 0.91473 0.0
C352 C 0.78078 0.18355 0.89096 0.0
C353 C 0.78361 0.17168 0.87379 0.0
H354 H 0.78342 0.14679 0.84128 0.0
H355 H 0.75571 0.1232 0.8325 0.0
H356 H 0.73769 0.19903 0.94261 0.0
H357 H 0.76971 0.20426 0.9244 0.0
H358 H 0.79214 0.19451 0.89516 0.0
H359 H 0.79711 0.17369 0.86504 0.0
Mn360 Mn 0.80514 0.83987 0.36887 0.0
Mn361 Mn 0.76542 0.86242 0.39076 0.0
C362 C 0.77679 0.82118 0.37604 0.0
C363 C 0.82244 0.83151 0.33999 0.0
C364 C 0.80317 0.84999 0.41297 0.0
O365 O 0.81099 0.8698 0.36533 0.0
O366 O 0.78271 0.88337 0.37803 0.0
C367 C 0.74466 0.87751 0.35487 0.0
N368 N 0.74445 0.86622 0.37177 0.0
C369 C 0.7102 0.856 0.36605 0.0
C370 C 0.71001 0.86762 0.34865 0.0
C371 C 0.72733 0.87839 0.34302 0.0
C372 C 0.72788 0.85578 0.37732 0.0
H373 H 0.75797 0.88573 0.35046 0.0
C374 C 0.79981 0.88495 0.36938 0.0
O375 O 0.83158 0.83226 0.357 0.0
O376 O 0.80349 0.83611 0.3398 0.0
N377 N 0.74737 0.84396 0.40352 0.0
C378 C 0.75033 0.83277 0.42025 0.0
C379 C 0.73457 0.82084 0.4277 0.0
C380 C 0.71591 0.82063 0.41797 0.0
C381 C 0.7132 0.83233 0.40082 0.0
C382 C 0.72938 0.84411 0.39421 0.0
H383 H 0.76462 0.83289 0.42782 0.0
O384 O 0.79387 0.81223 0.37301 0.0
O385 O 0.77669 0.84083 0.37427 0.0
O386 O 0.81229 0.84183 0.39835 0.0
O387 O 0.786 0.85856 0.41147 0.0
C388 C 0.69516 0.83255 0.38988 0.0
C389 C 0.69368 0.84434 0.37248 0.0
H390 H 0.69671 0.86826 0.33941 0.0
H391 H 0.72732 0.88732 0.32956 0.0
H392 H 0.73679 0.81182 0.44093 0.0
H393 H 0.7038 0.81141 0.42378 0.0
H394 H 0.68241 0.82352 0.39458 0.0
H395 H 0.67981 0.8442 0.36407 0.0
Mn396 Mn 0.31624 0.66341 0.62061 0.0
Mn397 Mn 0.27402 0.64207 0.60258 0.0
C398 C 0.28923 0.68352 0.61213 0.0
C399 C 0.33416 0.67311 0.64878 0.0
C400 C 0.31169 0.64892 0.57788 0.0
O401 O 0.32009 0.63355 0.62673 0.0
O402 O 0.29022 0.62122 0.61668 0.0
C403 C 0.25462 0.63354 0.64116 0.0
N404 N 0.25418 0.64267 0.62307 0.0
C405 C 0.22227 0.65823 0.63022 0.0
C406 C 0.22231 0.64886 0.64888 0.0
C407 C 0.23856 0.63647 0.65437 0.0
C408 C 0.23867 0.65473 0.61768 0.0
H409 H 0.26718 0.62418 0.64553 0.0
C410 C 0.3076 0.61907 0.62459 0.0
O411 O 0.34336 0.67017 0.632 0.0
O412 O 0.31498 0.66992 0.64907 0.0
N413 N 0.25672 0.66038 0.58866 0.0
C414 C 0.25876 0.66787 0.56994 0.0
C415 C 0.24354 0.6802 0.56199 0.0
C416 C 0.22636 0.68459 0.5733 0.0
C417 C 0.22439 0.67633 0.59235 0.0
C418 C 0.23987 0.66385 0.59935 0.0
H419 H 0.27191 0.66452 0.56116 0.0
O420 O 0.30695 0.69145 0.61411 0.0
O421 O 0.28787 0.66425 0.61581 0.0
O422 O 0.32211 0.65782 0.59128 0.0
O423 O 0.29393 0.64197 0.58079 0.0
C424 C 0.20771 0.68004 0.6047 0.0
C425 C 0.20669 0.67107 0.62366 0.0
H426 H 0.20999 0.65114 0.65914 0.0
H427 H 0.23876 0.62927 0.66879 0.0
H428 H 0.24512 0.6864 0.54722 0.0
H429 H 0.21477 0.69431 0.56721 0.0
H430 H 0.19561 0.68982 0.59978 0.0
H431 H 0.19385 0.67414 0.63306 0.0
Mn432 Mn 0.86296 0.83019 0.65749 0.0
Mn433 Mn 0.85834 0.88064 0.65041 0.0
C434 C 0.83252 0.84575 0.66316 0.0
C435 C 0.87216 0.80351 0.67818 0.0
C436 C 0.85878 0.85003 0.61678 0.0
O437 O 0.89176 0.83986 0.65599 0.0
O438 O 0.88734 0.87363 0.6535 0.0
C439 C 0.87182 0.89439 0.68999 0.0
N440 N 0.8575 0.89389 0.67558 0.0
C441 C 0.83516 0.91453 0.69508 0.0
C442 C 0.84974 0.91539 0.71007 0.0
C443 C 0.86813 0.90524 0.70752 0.0
C444 C 0.83973 0.90354 0.6779 0.0
H445 H 0.88593 0.88652 0.68814 0.0
C446 C 0.89857 0.8579 0.65498 0.0
O447 O 0.87194 0.80133 0.65904 0.0
O448 O 0.86711 0.82111 0.68515 0.0
N449 N 0.83117 0.88966 0.64733 0.0
C450 C 0.81843 0.88667 0.63179 0.0
C451 C 0.7992 0.89546 0.6322 0.0
C452 C 0.79335 0.90735 0.64848 0.0
C453 C 0.80683 0.91046 0.66416 0.0
C454 C 0.82585 0.90144 0.66286 0.0
H455 H 0.82283 0.87753 0.61924 0.0
O456 O 0.8334 0.8263 0.66034 0.0
O457 O 0.84958 0.85541 0.6631 0.0
O458 O 0.85992 0.83413 0.62753 0.0
O459 O 0.85853 0.86804 0.62385 0.0
C460 C 0.80206 0.92191 0.68114 0.0
C461 C 0.81618 0.92388 0.69663 0.0
H462 H 0.84691 0.92367 0.72365 0.0
H463 H 0.8794 0.90575 0.71907 0.0
H464 H 0.78889 0.893 0.62003 0.0
H465 H 0.77844 0.91394 0.64883 0.0
H466 H 0.78749 0.92909 0.68254 0.0
H467 H 0.81223 0.93249 0.70973 0.0
Mn468 Mn 0.63605 0.16041 0.16282 0.0
Mn469 Mn 0.63626 0.11008 0.1539 0.0
C470 C 0.66595 0.14277 0.16301 0.0
C471 C 0.63271 0.18726 0.18481 0.0
C472 C 0.63263 0.14155 0.12143 0.0
O473 O 0.60695 0.15263 0.16665 0.0
O474 O 0.60845 0.11909 0.16059 0.0
C475 C 0.62653 0.09607 0.19448 0.0
N476 N 0.63904 0.09598 0.17849 0.0
C477 C 0.66134 0.07226 0.19433 0.0
C478 C 0.64863 0.072 0.21092 0.0
C479 C 0.63119 0.08401 0.21101 0.0
C480 C 0.65591 0.08457 0.17829 0.0
H481 H 0.61311 0.10528 0.19461 0.0
C482 C 0.59876 0.13524 0.16514 0.0
O483 O 0.62904 0.18967 0.16606 0.0
O484 O 0.63815 0.16939 0.19074 0.0
N485 N 0.6621 0.09916 0.14748 0.0
C486 C 0.67336 0.10208 0.13085 0.0
C487 C 0.69168 0.09172 0.12875 0.0
C488 C 0.6981 0.0783 0.14363 0.0
C489 C 0.68616 0.0754 0.16052 0.0
C490 C 0.66808 0.08618 0.16183 0.0
H491 H 0.66846 0.11234 0.11935 0.0
O492 O 0.6658 0.16225 0.16019 0.0
O493 O 0.64854 0.13422 0.16582 0.0
O494 O 0.63309 0.15704 0.13277 0.0
O495 O 0.63383 0.12333 0.12779 0.0
C496 C 0.69158 0.06241 0.17622 0.0
C497 C 0.67926 0.06095 0.19317 0.0
H498 H 0.65219 0.06274 0.22371 0.0
H499 H 0.62136 0.08396 0.22378 0.0
H500 H 0.70082 0.09406 0.11569 0.0
H501 H 0.71227 0.07038 0.14199 0.0
H502 H 0.70532 0.05364 0.1755 0.0
H503 H 0.68379 0.05119 0.20528 0.0
Mn504 Mn 0.36604 0.65892 0.33164 0.0
Mn505 Mn 0.36132 0.60838 0.33795 0.0
C506 C 0.33556 0.64353 0.3259 0.0
C507 C 0.37508 0.68602 0.3114 0.0
C508 C 0.362 0.63839 0.37206 0.0
O509 O 0.3948 0.64919 0.33276 0.0
O510 O 0.39035 0.61539 0.33493 0.0
C511 C 0.37468 0.59531 0.29811 0.0
N512 N 0.36037 0.59562 0.31254 0.0
C513 C 0.3378 0.5757 0.29258 0.0
C514 C 0.35235 0.57504 0.27757 0.0
C515 C 0.37086 0.58492 0.28034 0.0
C516 C 0.3425 0.5862 0.31002 0.0
H517 H 0.38887 0.603 0.30013 0.0
C518 C 0.40159 0.63114 0.33355 0.0
O519 O 0.37501 0.68781 0.33058 0.0
O520 O 0.37002 0.66855 0.30412 0.0
N521 N 0.33412 0.5994 0.34091 0.0
C522 C 0.32142 0.60212 0.35654 0.0
C523 C 0.30211 0.59353 0.35595 0.0
C524 C 0.2961 0.58213 0.33938 0.0
C525 C 0.30953 0.5793 0.32361 0.0
C526 C 0.32865 0.58806 0.32511 0.0
H527 H 0.32593 0.6109 0.36929 0.0
O528 O 0.33649 0.66292 0.32907 0.0
O529 O 0.35259 0.63383 0.32569 0.0
O530 O 0.3632 0.65444 0.36152 0.0
O531 O 0.3616 0.62049 0.36474 0.0
C532 C 0.3046 0.56838 0.30634 0.0
C533 C 0.31869 0.56663 0.29081 0.0
H534 H 0.34942 0.56713 0.26379 0.0
H535 H 0.38212 0.58457 0.26877 0.0
H536 H 0.29184 0.59577 0.36819 0.0
H537 H 0.28112 0.57571 0.33889 0.0
H538 H 0.28992 0.56145 0.30475 0.0
H539 H 0.31462 0.55842 0.2775 0.0
Mn540 Mn 0.12967 0.327 0.83626 0.0
Mn541 Mn 0.13304 0.37742 0.84417 0.0
C542 C 0.15965 0.34349 0.83074 0.0
C543 C 0.12118 0.30041 0.81517 0.0
C544 C 0.13353 0.34624 0.87728 0.0
O545 O 0.10063 0.33585 0.83796 0.0
O546 O 0.10424 0.36966 0.84109 0.0
C547 C 0.11898 0.39147 0.80487 0.0
N548 N 0.13339 0.39111 0.8192 0.0
C549 C 0.15508 0.41267 0.79992 0.0
C550 C 0.14041 0.41339 0.78502 0.0
C551 C 0.1223 0.4027 0.78749 0.0
C552 C 0.1509 0.40128 0.81695 0.0
H553 H 0.10509 0.38319 0.80668 0.0
C554 C 0.09339 0.35368 0.83932 0.0
O555 O 0.12149 0.29793 0.83428 0.0
O556 O 0.1257 0.31826 0.80846 0.0
N557 N 0.15998 0.38713 0.84725 0.0
C558 C 0.17288 0.38424 0.86268 0.0
C559 C 0.19187 0.39356 0.86232 0.0
C560 C 0.19732 0.40587 0.84619 0.0
C561 C 0.18367 0.40886 0.83063 0.0
C562 C 0.16491 0.3993 0.83187 0.0
H563 H 0.16879 0.37478 0.8751 0.0
O564 O 0.15931 0.32398 0.83327 0.0
O565 O 0.14234 0.35267 0.83102 0.0
O566 O 0.13267 0.33051 0.86626 0.0
O567 O 0.13334 0.36437 0.87052 0.0
C568 C 0.18806 0.42071 0.8138 0.0
C569 C 0.17381 0.42255 0.79842 0.0
H570 H 0.14294 0.42196 0.77155 0.0
H571 H 0.11095 0.4031 0.77601 0.0
H572 H 0.2023 0.3912 0.8744 0.0
H573 H 0.21204 0.41288 0.84588 0.0
H574 H 0.20243 0.42831 0.81244 0.0
H575 H 0.17746 0.43148 0.78544 0.0
Mn576 Mn 0.65223 0.86743 0.81623 0.0
Mn577 Mn 0.64769 0.86401 0.86585 0.0
C578 C 0.66135 0.83796 0.83226 0.0
C579 C 0.67136 0.8768 0.78887 0.0
C580 C 0.61228 0.86165 0.83748 0.0
O581 O 0.64907 0.89671 0.82488 0.0
O582 O 0.64935 0.89312 0.85813 0.0
C583 C 0.68749 0.87991 0.87784 0.0
N584 N 0.67366 0.86467 0.87796 0.0
C585 C 0.69528 0.84347 0.89766 0.0
C586 C 0.7097 0.85899 0.89786 0.0
C587 C 0.70579 0.87728 0.88788 0.0
C588 C 0.67724 0.84704 0.88756 0.0
H589 H 0.6846 0.89394 0.87007 0.0
C590 C 0.64915 0.90405 0.84238 0.0
O591 O 0.65192 0.87522 0.78763 0.0
O592 O 0.67948 0.87326 0.80598 0.0
N593 N 0.64632 0.83657 0.87507 0.0
C594 C 0.63145 0.82263 0.8723 0.0
C595 C 0.63338 0.80324 0.8807 0.0
C596 C 0.65053 0.79839 0.89189 0.0
C597 C 0.66558 0.81302 0.89463 0.0
C598 C 0.66274 0.83216 0.88606 0.0
H599 H 0.61829 0.82623 0.86362 0.0
O600 O 0.65728 0.8377 0.81345 0.0
O601 O 0.66009 0.85548 0.84096 0.0
O602 O 0.62242 0.86233 0.82145 0.0
O603 O 0.62024 0.86273 0.8547 0.0
C604 C 0.68346 0.80923 0.90518 0.0
C605 C 0.69831 0.82443 0.90668 0.0
H606 H 0.72391 0.85696 0.90544 0.0
H607 H 0.71689 0.88928 0.88787 0.0
H608 H 0.62173 0.79201 0.87847 0.0
H609 H 0.65206 0.78335 0.89816 0.0
H610 H 0.68607 0.79457 0.91197 0.0
H611 H 0.71213 0.82123 0.91457 0.0
Mn612 Mn 0.84216 0.13105 0.31788 0.0
Mn613 Mn 0.84598 0.13146 0.36772 0.0
C614 C 0.83088 0.15866 0.33561 0.0
C615 C 0.82434 0.1222 0.28952 0.0
C616 C 0.88137 0.13825 0.34006 0.0
O617 O 0.84721 0.10153 0.32474 0.0
O618 O 0.84641 0.1029 0.35813 0.0
C619 C 0.80724 0.11206 0.37804 0.0
N620 N 0.82 0.12817 0.37937 0.0
C621 C 0.79678 0.1464 0.40012 0.0
C622 C 0.78345 0.12995 0.39908 0.0
C623 C 0.7887 0.11272 0.38797 0.0
C624 C 0.81513 0.1448 0.39006 0.0
H625 H 0.81115 0.09884 0.36941 0.0
C626 C 0.84747 0.09306 0.34175 0.0
O627 O 0.84363 0.12519 0.28893 0.0
O628 O 0.81558 0.12407 0.30659 0.0
N629 N 0.84538 0.15822 0.37874 0.0
C630 C 0.85935 0.17327 0.37722 0.0
C631 C 0.85606 0.19181 0.38693 0.0
C632 C 0.83849 0.19468 0.39813 0.0
C633 C 0.82441 0.17893 0.3996 0.0
C634 C 0.82859 0.1607 0.38977 0.0
H635 H 0.87284 0.17119 0.36855 0.0
O636 O 0.83509 0.16048 0.31691 0.0
O637 O 0.83323 0.14072 0.34321 0.0
O638 O 0.87141 0.13787 0.32393 0.0
O639 O 0.87342 0.13541 0.35709 0.0
C640 C 0.80618 0.18075 0.41009 0.0
C641 C 0.79238 0.1645 0.41035 0.0
H642 H 0.76907 0.13047 0.40658 0.0
H643 H 0.77844 0.10001 0.38701 0.0
H644 H 0.86698 0.20391 0.38569 0.0
H645 H 0.83589 0.20909 0.4054 0.0
H646 H 0.8025 0.19469 0.41777 0.0
H647 H 0.77829 0.16619 0.41823 0.0
Mn648 Mn 0.15463 0.62759 0.17131 0.0
Mn649 Mn 0.14906 0.63001 0.1217 0.0
C650 C 0.16244 0.65707 0.15473 0.0
C651 C 0.17432 0.61895 0.19851 0.0
C652 C 0.11417 0.63247 0.15058 0.0
O653 O 0.15214 0.5981 0.16325 0.0
O654 O 0.15088 0.60103 0.12998 0.0
C655 C 0.18894 0.6142 0.1099 0.0
N656 N 0.17494 0.62926 0.10942 0.0
C657 C 0.19625 0.65016 0.08908 0.0
C658 C 0.21084 0.63481 0.08923 0.0
C659 C 0.20717 0.61677 0.09972 0.0
C660 C 0.17832 0.64669 0.09941 0.0
H661 H 0.18623 0.60036 0.11805 0.0
C662 C 0.15147 0.59043 0.14592 0.0
O663 O 0.15488 0.62014 0.19998 0.0
O664 O 0.18217 0.62262 0.18129 0.0
N665 N 0.14733 0.65714 0.11172 0.0
C666 C 0.13213 0.67082 0.11384 0.0
C667 C 0.13367 0.68988 0.10466 0.0
C668 C 0.15075 0.69463 0.09333 0.0
C669 C 0.16609 0.68022 0.09118 0.0
C670 C 0.16364 0.66141 0.10052 0.0
H671 H 0.11899 0.66728 0.12258 0.0
O672 O 0.15885 0.65744 0.17362 0.0
O673 O 0.1617 0.63938 0.14624 0.0
O674 O 0.12461 0.63184 0.16643 0.0
O675 O 0.12178 0.63141 0.1332 0.0
C676 C 0.18385 0.6839 0.08039 0.0
C677 C 0.19895 0.66891 0.0794 0.0
H678 H 0.22498 0.63678 0.0815 0.0
H679 H 0.21841 0.6049 0.1 0.0
H680 H 0.12177 0.70093 0.1064 0.0
H681 H 0.15197 0.70942 0.08644 0.0
H682 H 0.18617 0.6983 0.07301 0.0
H683 H 0.21267 0.67203 0.07131 0.0
Mn684 Mn 0.34099 0.37148 0.67931 0.0
Mn685 Mn 0.34855 0.36921 0.62995 0.0
C686 C 0.33192 0.34284 0.66195 0.0
C687 C 0.32088 0.38053 0.70605 0.0
C688 C 0.38193 0.36437 0.6602 0.0
O689 O 0.34546 0.40086 0.67175 0.0
O690 O 0.3482 0.39815 0.63852 0.0
C691 C 0.31048 0.38783 0.61637 0.0
N692 N 0.3234 0.3718 0.6165 0.0
C693 C 0.30158 0.35243 0.59525 0.0
C694 C 0.28812 0.36879 0.59478 0.0
C695 C 0.29259 0.38655 0.6054 0.0
C696 C 0.31928 0.35466 0.60627 0.0
H697 H 0.31378 0.40146 0.62464 0.0
C698 C 0.34743 0.40863 0.65454 0.0
O699 O 0.34019 0.37836 0.70805 0.0
O700 O 0.31343 0.37782 0.68849 0.0
N701 N 0.3489 0.34206 0.61988 0.0
C702 C 0.36286 0.32724 0.62285 0.0
C703 C 0.36027 0.30824 0.61379 0.0
C704 C 0.34341 0.30469 0.60175 0.0
C705 C 0.32933 0.32022 0.59878 0.0
C706 C 0.33282 0.33892 0.60801 0.0
H707 H 0.37578 0.32984 0.6322 0.0
O708 O 0.33494 0.3419 0.68093 0.0
O709 O 0.33418 0.36056 0.6538 0.0
O710 O 0.37084 0.36556 0.67557 0.0
O711 O 0.37517 0.36593 0.64254 0.0
C712 C 0.31176 0.31773 0.58739 0.0
C713 C 0.2979 0.33383 0.58561 0.0
H714 H 0.27422 0.36779 0.58648 0.0
H715 H 0.28222 0.3992 0.6052 0.0
H716 H 0.37118 0.29631 0.61619 0.0
H717 H 0.34134 0.28993 0.59499 0.0
H718 H 0.30861 0.30341 0.58015 0.0
H719 H 0.28431 0.33164 0.57703 0.0
Mn720 Mn 0.83902 0.67181 0.8674 0.0
Mn721 Mn 0.88922 0.66493 0.86905 0.0
C722 C 0.85791 0.67637 0.83922 0.0
C723 C 0.81096 0.69235 0.87165 0.0
C724 C 0.85949 0.63024 0.8666 0.0
O725 O 0.8449 0.672 0.89679 0.0
O726 O 0.8785 0.66806 0.89655 0.0
C727 C 0.90038 0.70566 0.88389 0.0
N728 N 0.90191 0.69093 0.86982 0.0
C729 C 0.92481 0.7112 0.85059 0.0
C730 C 0.92359 0.72653 0.86494 0.0
C731 C 0.91128 0.72376 0.88164 0.0
C732 C 0.91364 0.69347 0.85366 0.0
H733 H 0.89088 0.70363 0.89672 0.0
C734 C 0.86174 0.67048 0.90564 0.0
O735 O 0.80956 0.67271 0.87251 0.0
O736 O 0.8287 0.69997 0.86871 0.0
N737 N 0.90169 0.6619 0.84366 0.0
C738 C 0.90063 0.64597 0.83084 0.0
C739 C 0.91169 0.64657 0.81312 0.0
C740 C 0.92389 0.66342 0.80888 0.0
C741 C 0.92497 0.67949 0.82244 0.0
C742 C 0.91363 0.67804 0.83987 0.0
H743 H 0.89128 0.63297 0.83402 0.0
O744 O 0.83874 0.673 0.83802 0.0
O745 O 0.86544 0.67753 0.85702 0.0
O746 O 0.84373 0.64124 0.86637 0.0
O747 O 0.8773 0.63747 0.86773 0.0
C748 C 0.93669 0.69701 0.81927 0.0
C749 C 0.93652 0.71289 0.83327 0.0
H750 H 0.93193 0.74053 0.86323 0.0
H751 H 0.91018 0.73556 0.89274 0.0
H752 H 0.9108 0.63409 0.80274 0.0
H753 H 0.93232 0.66388 0.79515 0.0
H754 H 0.94577 0.69849 0.80602 0.0
H755 H 0.94539 0.72639 0.83052 0.0
Mn756 Mn 0.3349 0.82509 0.12529 0.0
Mn757 Mn 0.38548 0.82826 0.12513 0.0
C758 C 0.35255 0.81879 0.15393 0.0
C759 C 0.30588 0.80634 0.11958 0.0
C760 C 0.35812 0.86505 0.12611 0.0
O761 O 0.34186 0.8248 0.09611 0.0
O762 O 0.37572 0.82478 0.09733 0.0
C763 C 0.39465 0.78636 0.11221 0.0
N764 N 0.39649 0.80149 0.12584 0.0
C765 C 0.41644 0.78026 0.14718 0.0
C766 C 0.41489 0.76451 0.1333 0.0
C767 C 0.40393 0.76757 0.11575 0.0
C768 C 0.40701 0.79871 0.14277 0.0
H769 H 0.3861 0.78859 0.09878 0.0
C770 C 0.35904 0.8241 0.08778 0.0
O771 O 0.30561 0.82605 0.11919 0.0
O772 O 0.32299 0.79764 0.12311 0.0
N773 N 0.39688 0.83142 0.151 0.0
C774 C 0.39622 0.84786 0.16323 0.0
C775 C 0.40609 0.84712 0.18162 0.0
C776 C 0.41658 0.82953 0.1872 0.0
C777 C 0.41725 0.8129 0.17427 0.0
C778 C 0.40733 0.81461 0.15604 0.0
H779 H 0.3881 0.86138 0.15907 0.0
O780 O 0.33362 0.82344 0.15471 0.0
O781 O 0.36045 0.81755 0.13633 0.0
O782 O 0.34159 0.85526 0.12682 0.0
O783 O 0.37533 0.85648 0.12497 0.0
C784 C 0.42706 0.79457 0.17891 0.0
C785 C 0.42663 0.77825 0.16538 0.0
H786 H 0.42189 0.74994 0.13604 0.0
H787 H 0.40257 0.75545 0.10502 0.0
H788 H 0.4055 0.86002 0.19152 0.0
H789 H 0.42397 0.82893 0.2015 0.0
H790 H 0.43478 0.79277 0.19293 0.0
H791 H 0.43403 0.76415 0.16922 0.0
Mn792 Mn 0.1612 0.16973 0.62554 0.0
Mn793 Mn 0.11137 0.16043 0.62422 0.0
C794 C 0.14212 0.17464 0.65355 0.0
C795 C 0.18803 0.19163 0.62007 0.0
C796 C 0.14273 0.12733 0.62824 0.0
O797 O 0.15535 0.16805 0.5962 0.0
O798 O 0.12188 0.16315 0.59662 0.0
C799 C 0.09829 0.20003 0.60804 0.0
N800 N 0.09744 0.18572 0.62259 0.0
C801 C 0.07355 0.20547 0.64114 0.0
C802 C 0.07405 0.22034 0.6263 0.0
C803 C 0.08652 0.21763 0.6097 0.0
C804 C 0.08559 0.18823 0.63867 0.0
H805 H 0.10789 0.19804 0.59529 0.0
C806 C 0.13856 0.16573 0.58742 0.0
O807 O 0.1906 0.17209 0.62032 0.0
O808 O 0.16988 0.19831 0.62269 0.0
N809 N 0.09903 0.15766 0.6497 0.0
C810 C 0.10075 0.14218 0.66299 0.0
C811 C 0.08958 0.14281 0.68064 0.0
C812 C 0.07659 0.15917 0.68433 0.0
C813 C 0.07482 0.17474 0.67028 0.0
C814 C 0.08631 0.1733 0.65295 0.0
H815 H 0.11068 0.12955 0.66022 0.0
O816 O 0.16146 0.17249 0.65482 0.0
O817 O 0.13453 0.17456 0.63574 0.0
O818 O 0.15803 0.13901 0.6282 0.0
O819 O 0.12465 0.1337 0.62648 0.0
C820 C 0.06226 0.19174 0.67288 0.0
C821 C 0.06171 0.20714 0.65838 0.0
H822 H 0.06503 0.23396 0.62754 0.0
H823 H 0.08706 0.22908 0.59822 0.0
H824 H 0.091 0.13071 0.69139 0.0
H825 H 0.06808 0.15965 0.69801 0.0
H826 H 0.05305 0.19319 0.68603 0.0
H827 H 0.05218 0.22026 0.66067 0.0
Mn828 Mn 0.65868 0.32602 0.37844 0.0
Mn829 Mn 0.609 0.33523 0.37484 0.0
C830 C 0.64231 0.3196 0.34907 0.0
C831 C 0.68505 0.30448 0.38659 0.0
C832 C 0.6407 0.36828 0.37361 0.0
O833 O 0.64995 0.3285 0.40698 0.0
O834 O 0.61652 0.33277 0.40345 0.0
C835 C 0.59323 0.29625 0.39009 0.0
N836 N 0.59439 0.31028 0.37531 0.0
C837 C 0.57233 0.29067 0.35451 0.0
C838 C 0.57078 0.27609 0.36957 0.0
C839 C 0.58129 0.27889 0.38743 0.0
C840 C 0.58425 0.3078 0.35812 0.0
H841 H 0.60139 0.29828 0.40378 0.0
C842 C 0.63235 0.33067 0.41415 0.0
O843 O 0.68749 0.32403 0.38622 0.0
O844 O 0.66719 0.29759 0.38281 0.0
N845 N 0.59986 0.33767 0.34806 0.0
C846 C 0.60427 0.3523 0.33447 0.0
C847 C 0.59572 0.35124 0.31547 0.0
C848 C 0.58271 0.33519 0.31066 0.0
C849 C 0.57833 0.32036 0.32492 0.0
C850 C 0.58715 0.32231 0.34367 0.0
H851 H 0.61438 0.36459 0.33804 0.0
O852 O 0.66162 0.32233 0.34943 0.0
O853 O 0.6331 0.32053 0.36611 0.0
O854 O 0.65592 0.35662 0.37478 0.0
O855 O 0.62259 0.36186 0.37381 0.0
C856 C 0.56597 0.30345 0.3211 0.0
C857 C 0.56296 0.28862 0.33589 0.0
H858 H 0.56175 0.26258 0.3675 0.0
H859 H 0.58026 0.26765 0.39907 0.0
H860 H 0.59924 0.3627 0.30452 0.0
H861 H 0.57632 0.33431 0.29592 0.0
H862 H 0.55896 0.30152 0.30673 0.0
H863 H 0.55368 0.27553 0.33267 0.0
H864 H 0.1824 0.33009 0.19214 0.0
H865 H 0.17049 0.31071 0.22067 0.0
H866 H 0.12134 0.28736 0.18587 0.0
H867 H 0.13312 0.30685 0.15712 0.0
H868 H 0.11484 0.29769 0.23164 0.0
H869 H 0.17783 0.24623 0.21095 0.0
H870 H 0.18364 0.27282 0.2129 0.0
H871 H 0.16707 0.26415 0.19371 0.0
C872 C 0.16873 0.32129 0.19067 0.0
C873 C 0.15884 0.31975 0.17232 0.0
C874 C 0.16193 0.31028 0.20701 0.0
C875 C 0.14518 0.29752 0.20526 0.0
C876 C 0.13427 0.29721 0.18746 0.0
H877 H 0.12756 0.18695 0.27082 0.0
H878 H 0.12775 0.21361 0.24577 0.0
C879 C 0.14103 0.30833 0.17107 0.0
C880 C 0.14116 0.28229 0.22084 0.0
H881 H 0.16013 0.23851 0.24014 0.0
C882 C 0.12465 0.2847 0.23355 0.0
C883 C 0.15393 0.26532 0.22306 0.0
C884 C 0.17156 0.26178 0.20939 0.0
C885 C 0.12074 0.27055 0.24871 0.0
C886 C 0.13381 0.2538 0.25117 0.0
C887 C 0.15016 0.25139 0.23826 0.0
C888 C 0.13088 0.23822 0.26675 0.0
C889 C 0.10256 0.27345 0.26174 0.0
C890 C 0.13228 0.24323 0.28694 0.0
C891 C 0.13213 0.22795 0.30138 0.0
C892 C 0.13079 0.20744 0.29579 0.0
C893 C 0.12875 0.20258 0.27561 0.0
C894 C 0.12879 0.21781 0.26126 0.0
H895 H 0.09154 0.28408 0.25501 0.0
H896 H 0.09498 0.25873 0.26464 0.0
H897 H 0.1074 0.27985 0.27619 0.0
H898 H 0.1343 0.25885 0.29149 0.0
H899 H 0.13377 0.23214 0.31682 0.0
H900 H 0.35048 0.80042 0.7724 0.0
H901 H 0.35459 0.77444 0.74711 0.0
H902 H 0.39025 0.73867 0.78755 0.0
H903 H 0.38521 0.76437 0.81343 0.0
H904 H 0.3861 0.75984 0.72865 0.0
H905 H 0.35012 0.69721 0.77115 0.0
H906 H 0.34967 0.72308 0.7797 0.0
H907 H 0.37212 0.7081 0.78227 0.0
C908 C 0.35914 0.78699 0.77596 0.0
C909 C 0.36736 0.78431 0.79494 0.0
C910 C 0.36157 0.77216 0.76144 0.0
C911 C 0.37253 0.75442 0.76543 0.0
C912 C 0.3813 0.75195 0.78424 0.0
H913 H 0.37454 0.68097 0.65481 0.0
H914 H 0.38972 0.69713 0.68411 0.0
C915 C 0.37849 0.76667 0.79898 0.0
C916 C 0.37404 0.73861 0.74977 0.0
H917 H 0.3586 0.69066 0.73822 0.0
C918 C 0.38032 0.7446 0.73076 0.0
C919 C 0.3667 0.71865 0.75261 0.0
C920 C 0.35912 0.71135 0.77247 0.0
C921 C 0.37777 0.73193 0.71422 0.0
C922 C 0.36943 0.71236 0.71691 0.0
C923 C 0.36494 0.70569 0.7362 0.0
C924 C 0.36157 0.70029 0.69998 0.0
C925 C 0.38249 0.74028 0.69391 0.0
C926 C 0.34098 0.69579 0.69955 0.0
C927 C 0.33246 0.68628 0.6832 0.0
C928 C 0.34426 0.68116 0.66666 0.0
C929 C 0.36506 0.68491 0.66728 0.0
C930 C 0.3737 0.69427 0.68394 0.0
H931 H 0.38567 0.75683 0.69426 0.0
H932 H 0.39595 0.73251 0.6879 0.0
H933 H 0.36977 0.7376 0.68359 0.0
H934 H 0.33125 0.70028 0.71167 0.0
H935 H 0.3164 0.68358 0.68332 0.0
H936 H 0.60835 0.25979 0.68092 0.0
H937 H 0.60201 0.23228 0.70471 0.0
H938 H 0.63342 0.26612 0.74987 0.0
H939 H 0.63901 0.29369 0.72662 0.0
H940 H 0.62611 0.20814 0.72369 0.0
H941 H 0.58483 0.25075 0.78037 0.0
H942 H 0.58925 0.26103 0.75596 0.0
H943 H 0.60769 0.2641 0.77538 0.0
C944 C 0.61372 0.26135 0.69599 0.0
C945 C 0.62403 0.27894 0.70197 0.0
C946 C 0.61004 0.24568 0.70957 0.0
C947 C 0.61669 0.24737 0.72928 0.0
C948 C 0.62738 0.26476 0.73503 0.0
H949 H 0.67244 0.17232 0.80692 0.0
H950 H 0.65733 0.18752 0.77792 0.0
C951 C 0.63079 0.28046 0.72162 0.0
C952 C 0.61401 0.23054 0.7437 0.0
H953 H 0.60586 0.22274 0.79296 0.0
C954 C 0.62116 0.21117 0.73871 0.0
C955 C 0.60674 0.23404 0.76312 0.0
C956 C 0.59647 0.25357 0.76889 0.0
C957 C 0.62337 0.19603 0.75318 0.0
C958 C 0.61908 0.20069 0.77324 0.0
C959 C 0.60974 0.21923 0.77773 0.0
C960 C 0.62711 0.18833 0.78989 0.0
C961 C 0.63095 0.17547 0.74686 0.0
C962 C 0.61531 0.18387 0.80666 0.0
C963 C 0.62415 0.17555 0.82369 0.0
C964 C 0.6449 0.17156 0.82418 0.0
C965 C 0.6564 0.17512 0.80706 0.0
C966 C 0.64767 0.1836 0.79025 0.0
H967 H 0.62468 0.1713 0.73215 0.0
H968 H 0.64755 0.17601 0.74529 0.0
H969 H 0.62691 0.16347 0.7577 0.0
H970 H 0.59944 0.18754 0.80683 0.0
H971 H 0.61492 0.17298 0.83667 0.0
H972 H 0.86484 0.74165 0.17598 0.0
H973 H 0.86307 0.768 0.20163 0.0
H974 H 0.87432 0.72292 0.24661 0.0
H975 H 0.87575 0.69662 0.22125 0.0
H976 H 0.83905 0.74413 0.25197 0.0
H977 H 0.90293 0.79691 0.23923 0.0
H978 H 0.888 0.7911 0.21775 0.0
H979 H 0.90243 0.77141 0.22939 0.0
C980 C 0.86742 0.73749 0.19129 0.0
C981 C 0.87021 0.71707 0.19665 0.0
C982 C 0.86651 0.75256 0.20592 0.0
C983 C 0.86865 0.74741 0.22601 0.0
C984 C 0.87265 0.72721 0.23119 0.0
H985 H 0.85949 0.81363 0.33666 0.0
H986 H 0.87272 0.7955 0.30768 0.0
C987 C 0.8734 0.71219 0.21667 0.0
C988 C 0.86397 0.76224 0.24185 0.0
H989 H 0.87825 0.80723 0.26278 0.0
C990 C 0.84769 0.75788 0.25436 0.0
C991 C 0.87528 0.78014 0.24493 0.0
C992 C 0.89325 0.78518 0.23225 0.0
C993 C 0.84232 0.77093 0.26982 0.0
C994 C 0.85336 0.789 0.27271 0.0
C995 C 0.86977 0.79339 0.26037 0.0
C996 C 0.84772 0.80327 0.28865 0.0
C997 C 0.82491 0.76525 0.28307 0.0
C998 C 0.82969 0.81416 0.28722 0.0
C999 C 0.82207 0.82437 0.3037 0.0
C1000 C 0.83239 0.8239 0.32188 0.0
C1001 C 0.85119 0.81421 0.32286 0.0
C1002 C 0.85879 0.80391 0.30633 0.0
H1003 H 0.82034 0.74916 0.28112 0.0
H1004 H 0.82882 0.76777 0.29888 0.0
H1005 H 0.8118 0.775 0.27949 0.0
H1006 H 0.82099 0.81384 0.27365 0.0
H1007 H 0.80763 0.83184 0.30241 0.0
H1008 H 0.2824 0.09836 0.2051 0.0
H1009 H 0.25923 0.09704 0.23313 0.0
H1010 H 0.30906 0.10201 0.2737 0.0
H1011 H 0.33249 0.10332 0.24562 0.0
H1012 H 0.25767 0.07154 0.27045 0.0
H1013 H 0.27252 0.15411 0.28132 0.0
H1014 H 0.27892 0.14135 0.25852 0.0
H1015 H 0.2936 0.13702 0.28041 0.0
C1016 C 0.2885 0.09878 0.21998 0.0
C1017 C 0.30923 0.10119 0.22318 0.0
C1018 C 0.27524 0.09793 0.23597 0.0
C1019 C 0.28247 0.09961 0.25541 0.0
C1020 C 0.30325 0.10078 0.25875 0.0
H1021 H 0.20052 0.14199 0.34762 0.0
H1022 H 0.23121 0.12683 0.33387 0.0
C1023 C 0.31658 0.1015 0.24272 0.0
C1024 C 0.26795 0.10248 0.27172 0.0
H1025 H 0.24584 0.13986 0.29897 0.0
C1026 C 0.25526 0.08636 0.277 0.0
C1027 C 0.26499 0.12181 0.28029 0.0
C1028 C 0.27811 0.13967 0.27488 0.0
C1029 C 0.23913 0.08932 0.29011 0.0
C1030 C 0.23534 0.10898 0.29761 0.0
C1031 C 0.24874 0.12479 0.29318 0.0
C1032 C 0.21645 0.11421 0.30808 0.0
C1033 C 0.22619 0.07148 0.29573 0.0
C1034 C 0.19794 0.11189 0.2983 0.0
C1035 C 0.1805 0.1205 0.30615 0.0
C1036 C 0.18125 0.13139 0.32397 0.0
C1037 C 0.19959 0.13325 0.33406 0.0
C1038 C 0.21705 0.12459 0.32624 0.0
H1039 H 0.23424 0.05689 0.29357 0.0
H1040 H 0.22146 0.07266 0.31147 0.0
H1041 H 0.21254 0.07126 0.28629 0.0
H1042 H 0.19718 0.1046 0.28394 0.0
H1043 H 0.16666 0.11961 0.29773 0.0
H1044 H 0.32357 0.86842 0.80087 0.0
H1045 H 0.29158 0.88096 0.78807 0.0
H1046 H 0.26048 0.85269 0.83691 0.0
H1047 H 0.29274 0.84026 0.84987 0.0
H1048 H 0.24645 0.84066 0.80081 0.0
H1049 H 0.25055 0.92444 0.80172 0.0
H1050 H 0.27344 0.91293 0.79327 0.0
H1051 H 0.26494 0.90854 0.81828 0.0
C1052 C 0.31001 0.86571 0.80934 0.0
C1053 C 0.31061 0.85401 0.82668 0.0
C1054 C 0.29171 0.87284 0.80202 0.0
C1055 C 0.27363 0.86814 0.81176 0.0
C1056 C 0.27426 0.85677 0.82935 0.0
H1057 H 0.15898 0.87676 0.74498 0.0
H1058 H 0.18052 0.87611 0.77463 0.0
C1059 C 0.29263 0.84969 0.83672 0.0
C1060 C 0.25423 0.87237 0.80176 0.0
H1061 H 0.22926 0.90957 0.77663 0.0
C1062 C 0.24231 0.8558 0.79602 0.0
C1063 C 0.24876 0.89211 0.79562 0.0
C1064 C 0.25998 0.91057 0.8027 0.0
C1065 C 0.22612 0.85828 0.78291 0.0
C1066 C 0.22177 0.87782 0.77546 0.0
C1067 C 0.23275 0.89458 0.7823 0.0
C1068 C 0.2082 0.88054 0.75835 0.0
C1069 C 0.2147 0.83984 0.77592 0.0
C1070 C 0.21665 0.88371 0.7396 0.0
C1071 C 0.20452 0.88393 0.72277 0.0
C1072 C 0.18365 0.88116 0.7244 0.0
C1073 C 0.17503 0.87895 0.74331 0.0
C1074 C 0.18728 0.87853 0.76021 0.0
H1075 H 0.22053 0.82558 0.78255 0.0
H1076 H 0.19859 0.8414 0.77993 0.0
H1077 H 0.21562 0.83864 0.75953 0.0
H1078 H 0.23278 0.88526 0.73791 0.0
H1079 H 0.21159 0.88579 0.70842 0.0
H1080 H 0.83088 0.38073 0.7587 0.0
H1081 H 0.80892 0.38044 0.72946 0.0
H1082 H 0.75748 0.39102 0.76696 0.0
H1083 H 0.77917 0.39136 0.79605 0.0
H1084 H 0.77823 0.35193 0.72522 0.0
H1085 H 0.74698 0.42938 0.72048 0.0
H1086 H 0.7698 0.42368 0.73392 0.0
H1087 H 0.74563 0.41949 0.74521 0.0
C1088 C 0.81495 0.38348 0.76062 0.0
C1089 C 0.80671 0.38598 0.77965 0.0
C1090 C 0.80245 0.3833 0.74392 0.0
C1091 C 0.78162 0.38599 0.74602 0.0
C1092 C 0.77355 0.38938 0.76494 0.0
H1093 H 0.66797 0.35928 0.70489 0.0
H1094 H 0.69907 0.37266 0.71906 0.0
C1095 C 0.78596 0.38938 0.78159 0.0
C1096 C 0.76783 0.38258 0.72913 0.0
H1097 H 0.7262 0.40244 0.70701 0.0
C1098 C 0.76717 0.36312 0.72073 0.0
C1099 C 0.75349 0.39723 0.72335 0.0
C1100 C 0.75412 0.41868 0.73108 0.0
C1101 C 0.75146 0.35735 0.70805 0.0
C1102 C 0.73628 0.37162 0.70336 0.0
C1103 C 0.73781 0.39152 0.71063 0.0
C1104 C 0.71738 0.36542 0.69348 0.0
C1105 C 0.75039 0.33562 0.70106 0.0
C1106 C 0.71729 0.3572 0.67427 0.0
C1107 C 0.69948 0.34945 0.66621 0.0
C1108 C 0.68151 0.35043 0.67704 0.0
C1109 C 0.68158 0.35895 0.69607 0.0
C1110 C 0.69932 0.36653 0.70416 0.0
H1111 H 0.76151 0.32577 0.7087 0.0
H1112 H 0.73514 0.32928 0.70357 0.0
H1113 H 0.75354 0.33503 0.68492 0.0
H1114 H 0.73103 0.3564 0.66571 0.0
H1115 H 0.69972 0.34264 0.6516 0.0
H1116 H 0.79441 0.654 0.14871 0.0
H1117 H 0.76438 0.63958 0.16466 0.0
H1118 H 0.80023 0.62272 0.21538 0.0
H1119 H 0.83016 0.63646 0.19919 0.0
H1120 H 0.77278 0.59361 0.20656 0.0
H1121 H 0.73645 0.66968 0.20862 0.0
H1122 H 0.74232 0.66031 0.18433 0.0
H1123 H 0.76229 0.66628 0.20132 0.0
C1124 C 0.79579 0.64687 0.16311 0.0
C1125 C 0.8145 0.64585 0.17262 0.0
C1126 C 0.77869 0.63878 0.17225 0.0
C1127 C 0.78002 0.63033 0.19133 0.0
C1128 C 0.79885 0.62908 0.20063 0.0
H1129 H 0.71852 0.60717 0.29601 0.0
H1130 H 0.74098 0.6074 0.26742 0.0
C1131 C 0.81592 0.63688 0.1914 0.0
C1132 C 0.76182 0.62408 0.20244 0.0
H1133 H 0.71978 0.64314 0.2247 0.0
C1134 C 0.76101 0.60434 0.21025 0.0
C1135 C 0.74648 0.63813 0.20731 0.0
C1136 C 0.74691 0.65983 0.20012 0.0
C1137 C 0.74577 0.59855 0.22346 0.0
C1138 C 0.73102 0.61288 0.22899 0.0
C1139 C 0.73111 0.63219 0.2203 0.0
C1140 C 0.71711 0.60928 0.24571 0.0
C1141 C 0.7459 0.57738 0.23191 0.0
C1142 C 0.69621 0.61012 0.24296 0.0
C1143 C 0.68329 0.60989 0.25933 0.0
C1144 C 0.69115 0.60926 0.27866 0.0
C1145 C 0.71204 0.6077 0.28129 0.0
C1146 C 0.72489 0.60767 0.26496 0.0
H1147 H 0.75422 0.5667 0.22216 0.0
H1148 H 0.75349 0.57759 0.24656 0.0
H1149 H 0.73036 0.57164 0.23407 0.0
H1150 H 0.68997 0.6116 0.2282 0.0
H1151 H 0.66725 0.61121 0.25688 0.0
H1152 H 0.3517 0.1847 0.16971 0.0
H1153 H 0.33586 0.2167 0.15918 0.0
H1154 H 0.28553 0.18318 0.13573 0.0
H1155 H 0.30122 0.15129 0.14635 0.0
H1156 H 0.31249 0.22353 0.11295 0.0
H1157 H 0.27239 0.22979 0.1853 0.0
H1158 H 0.2973 0.21902 0.18364 0.0
H1159 H 0.2762 0.20515 0.17426 0.0
C1160 C 0.33743 0.18426 0.16199 0.0
C1161 C 0.32791 0.16568 0.15816 0.0
C1162 C 0.32847 0.20242 0.15598 0.0
C1163 C 0.30973 0.20212 0.1465 0.0
C1164 C 0.30015 0.18357 0.14278 0.0
H1165 H 0.22199 0.28091 0.09721 0.0
H1166 H 0.24872 0.25586 0.10229 0.0
C1167 C 0.30913 0.16545 0.14873 0.0
C1168 C 0.29923 0.22119 0.14193 0.0
H1169 H 0.26395 0.25338 0.16057 0.0
C1170 C 0.30197 0.23022 0.12333 0.0
C1171 C 0.2858 0.22985 0.1557 0.0
C1172 C 0.28265 0.22059 0.17591 0.0
C1173 C 0.29104 0.24759 0.11792 0.0
C1174 C 0.27695 0.2558 0.13141 0.0
C1175 C 0.27479 0.24707 0.15026 0.0
C1176 C 0.26319 0.27252 0.126 0.0
C1177 C 0.29474 0.25714 0.09797 0.0
C1178 C 0.2624 0.29011 0.13769 0.0
C1179 C 0.24705 0.30427 0.13491 0.0
C1180 C 0.23247 0.30116 0.12021 0.0
C1181 C 0.23345 0.2838 0.10826 0.0
C1182 C 0.24879 0.26963 0.11105 0.0
H1183 H 0.30909 0.25189 0.09129 0.0
H1184 H 0.28233 0.25306 0.08773 0.0
H1185 H 0.29514 0.27389 0.09935 0.0
H1186 H 0.27316 0.29245 0.14953 0.0
H1187 H 0.24607 0.31718 0.14479 0.0
H1188 H 0.79418 0.34705 0.8613 0.0
H1189 H 0.77488 0.31768 0.87267 0.0
H1190 H 0.823 0.27803 0.85433 0.0
H1191 H 0.84265 0.30762 0.84356 0.0
H1192 H 0.76367 0.28805 0.84564 0.0
H1193 H 0.80628 0.25362 0.90817 0.0
H1194 H 0.80883 0.27994 0.90121 0.0
H1195 H 0.82071 0.26059 0.88666 0.0
C1196 C 0.80094 0.33212 0.86048 0.0
C1197 C 0.8201 0.32952 0.85224 0.0
C1198 C 0.78987 0.31537 0.86681 0.0
C1199 C 0.79765 0.29572 0.86465 0.0
C1200 C 0.81697 0.2931 0.85665 0.0
H1201 H 0.73014 0.18404 0.85357 0.0
H1202 H 0.75591 0.21062 0.85134 0.0
C1203 C 0.82809 0.30992 0.85038 0.0
C1204 C 0.78443 0.27805 0.86812 0.0
H1205 H 0.77867 0.23486 0.89556 0.0
C1206 C 0.76693 0.27648 0.85662 0.0
C1207 C 0.7888 0.26294 0.88237 0.0
C1208 C 0.8071 0.26429 0.89545 0.0
C1209 C 0.75367 0.26017 0.85895 0.0
C1210 C 0.75808 0.24507 0.8731 0.0
C1211 C 0.77551 0.24653 0.88467 0.0
C1212 C 0.74432 0.22787 0.87609 0.0
C1213 C 0.73494 0.25914 0.84636 0.0
C1214 C 0.72948 0.2289 0.8908 0.0
C1215 C 0.7148 0.21381 0.89205 0.0
C1216 C 0.71516 0.19734 0.87892 0.0
C1217 C 0.73009 0.19628 0.86428 0.0
C1218 C 0.7447 0.21142 0.86296 0.0
H1219 H 0.73304 0.27284 0.83694 0.0
H1220 H 0.73568 0.24561 0.8366 0.0
H1221 H 0.72148 0.25746 0.85595 0.0
H1222 H 0.72886 0.24172 0.90083 0.0
H1223 H 0.70306 0.21507 0.90311 0.0
H1224 H 0.74417 0.82442 0.35229 0.0
H1225 H 0.71612 0.80046 0.34972 0.0
H1226 H 0.74192 0.76467 0.39685 0.0
H1227 H 0.7694 0.78915 0.39998 0.0
H1228 H 0.72251 0.76269 0.33855 0.0
H1229 H 0.68331 0.76002 0.4108 0.0
H1230 H 0.6986 0.78127 0.40317 0.0
H1231 H 0.71011 0.75896 0.41357 0.0
C1232 C 0.74326 0.81193 0.36268 0.0
C1233 C 0.75843 0.80889 0.37679 0.0
C1234 C 0.72736 0.79819 0.36112 0.0
C1235 C 0.72667 0.78097 0.37337 0.0
C1236 C 0.7417 0.77818 0.38773 0.0
H1237 H 0.69603 0.65891 0.3561 0.0
H1238 H 0.70867 0.6923 0.36619 0.0
C1239 C 0.7575 0.79202 0.38938 0.0
C1240 C 0.71249 0.76425 0.3689 0.0
H1241 H 0.68073 0.72994 0.3904 0.0
C1242 C 0.713 0.75587 0.34978 0.0
C1243 C 0.70008 0.75531 0.38354 0.0
C1244 C 0.69781 0.76448 0.40387 0.0
C1245 C 0.70237 0.73815 0.34524 0.0
C1246 C 0.69105 0.72855 0.36021 0.0
C1247 C 0.68965 0.73735 0.37906 0.0
C1248 C 0.68207 0.70848 0.35672 0.0
C1249 C 0.70399 0.72919 0.32472 0.0
C1250 C 0.66292 0.70672 0.34821 0.0
C1251 C 0.65568 0.68767 0.34254 0.0
C1252 C 0.66738 0.67026 0.3457 0.0
C1253 C 0.68648 0.67209 0.35428 0.0
C1254 C 0.69371 0.69108 0.35994 0.0
H1255 H 0.71253 0.73913 0.31442 0.0
H1256 H 0.71163 0.71425 0.32554 0.0
H1257 H 0.68874 0.72661 0.31851 0.0
H1258 H 0.65394 0.7201 0.34536 0.0
H1259 H 0.64111 0.68655 0.33546 0.0
H1260 H 0.14117 0.80894 0.64808 0.0
H1261 H 0.15807 0.77987 0.63272 0.0
H1262 H 0.21529 0.8101 0.64046 0.0
H1263 H 0.19797 0.83998 0.65284 0.0
H1264 H 0.21806 0.79319 0.60954 0.0
H1265 H 0.18322 0.73453 0.65746 0.0
H1266 H 0.16517 0.74702 0.64208 0.0
H1267 H 0.17831 0.76105 0.6611 0.0
C1268 C 0.15732 0.8093 0.64607 0.0
C1269 C 0.16833 0.82667 0.65106 0.0
C1270 C 0.16707 0.79253 0.63771 0.0
C1271 C 0.18815 0.79232 0.63577 0.0
C1272 C 0.19904 0.80971 0.64144 0.0
H1273 H 0.26441 0.69017 0.64266 0.0
H1274 H 0.2383 0.71591 0.64513 0.0
C1275 C 0.1892 0.82679 0.64866 0.0
C1276 C 0.19928 0.77436 0.62796 0.0
H1277 H 0.20546 0.72321 0.63295 0.0
C1278 C 0.21545 0.77794 0.615 0.0
C1279 C 0.19576 0.75425 0.63462 0.0
C1280 C 0.1798 0.749 0.64971 0.0
C1281 C 0.22938 0.76275 0.6103 0.0
C1282 C 0.22584 0.74262 0.61689 0.0
C1283 C 0.20845 0.73861 0.62811 0.0
C1284 C 0.24092 0.72603 0.61456 0.0
C1285 C 0.2484 0.76912 0.59973 0.0
C1286 C 0.25118 0.72273 0.5966 0.0
C1287 C 0.26709 0.70891 0.59568 0.0
C1288 C 0.2717 0.69686 0.61214 0.0
C1289 C 0.26076 0.69915 0.62969 0.0
C1290 C 0.24573 0.71379 0.631 0.0
H1291 H 0.25122 0.78567 0.60123 0.0
H1292 H 0.26173 0.76103 0.60565 0.0
H1293 H 0.24691 0.76585 0.58367 0.0
H1294 H 0.24722 0.73106 0.58337 0.0
H1295 H 0.27561 0.70743 0.58208 0.0
H1296 H 0.85932 0.65775 0.80348 0.0
H1297 H 0.87041 0.67279 0.77206 0.0
H1298 H 0.88917 0.72668 0.80332 0.0
H1299 H 0.87835 0.71154 0.8346 0.0
H1300 H 0.85244 0.70595 0.7582 0.0
H1301 H 0.93385 0.7222 0.7632 0.0
H1302 H 0.92161 0.70288 0.77786 0.0
H1303 H 0.92063 0.72907 0.78538 0.0
C1304 C 0.86652 0.6725 0.80362 0.0
C1305 C 0.86855 0.68332 0.8214 0.0
C1306 C 0.87283 0.68106 0.78572 0.0
C1307 C 0.88095 0.70073 0.78533 0.0
C1308 C 0.8836 0.71124 0.80326 0.0
H1309 H 0.87928 0.80591 0.71776 0.0
H1310 H 0.88445 0.77801 0.74098 0.0
C1311 C 0.87739 0.70262 0.82115 0.0
C1312 C 0.88328 0.71163 0.76624 0.0
H1313 H 0.91465 0.74358 0.74111 0.0
C1314 C 0.86622 0.71373 0.75416 0.0
C1315 C 0.90125 0.72174 0.76094 0.0
C1316 C 0.92045 0.71872 0.77242 0.0
C1317 C 0.86621 0.7268 0.73777 0.0
C1318 C 0.88376 0.73797 0.73331 0.0
C1319 C 0.90119 0.73504 0.74467 0.0
C1320 C 0.88333 0.75457 0.7186 0.0
C1321 C 0.84705 0.72959 0.72609 0.0
C1322 C 0.88142 0.75059 0.69825 0.0
C1323 C 0.87848 0.76656 0.68486 0.0
C1324 C 0.87727 0.78667 0.69173 0.0
C1325 C 0.87998 0.79057 0.71203 0.0
C1326 C 0.88306 0.77467 0.72531 0.0
H1327 H 0.83421 0.72115 0.73263 0.0
H1328 H 0.84306 0.74593 0.72531 0.0
H1329 H 0.84935 0.72412 0.7107 0.0
H1330 H 0.88166 0.73513 0.69282 0.0
H1331 H 0.87649 0.76311 0.66929 0.0
H1332 H 0.60084 0.21246 0.19101 0.0
H1333 H 0.59717 0.23735 0.21785 0.0
H1334 H 0.65806 0.22499 0.23657 0.0
H1335 H 0.66099 0.19909 0.21087 0.0
H1336 H 0.63604 0.22419 0.26652 0.0
H1337 H 0.61481 0.29375 0.22554 0.0
H1338 H 0.59751 0.27333 0.22141 0.0
H1339 H 0.62315 0.27108 0.21308 0.0
C1340 C 0.61345 0.21538 0.20077 0.0
C1341 C 0.63119 0.20403 0.19901 0.0
C1342 C 0.61143 0.22969 0.21599 0.0
C1343 C 0.62743 0.23335 0.22917 0.0
C1344 C 0.64544 0.22246 0.22673 0.0
H1345 H 0.64873 0.33032 0.31088 0.0
H1346 H 0.64155 0.30974 0.28156 0.0
C1347 C 0.64717 0.20772 0.21202 0.0
C1348 C 0.6252 0.24716 0.24649 0.0
H1349 H 0.61248 0.29525 0.26068 0.0
C1350 C 0.63099 0.23977 0.26515 0.0
C1351 C 0.6186 0.26753 0.24481 0.0
C1352 C 0.61336 0.27696 0.2251 0.0
C1353 C 0.63121 0.25222 0.28196 0.0
C1354 C 0.62406 0.27243 0.28046 0.0
C1355 C 0.61767 0.27971 0.26191 0.0
C1356 C 0.62495 0.28666 0.29754 0.0
C1357 C 0.64025 0.24377 0.30078 0.0
C1358 C 0.61726 0.2811 0.31617 0.0
C1359 C 0.62214 0.2924 0.333 0.0
C1360 C 0.63344 0.31028 0.33131 0.0
C1361 C 0.63964 0.31677 0.31248 0.0
C1362 C 0.63547 0.30505 0.29573 0.0
H1363 H 0.65019 0.23059 0.29775 0.0
H1364 H 0.64922 0.25541 0.30872 0.0
H1365 H 0.62803 0.23843 0.31069 0.0
H1366 H 0.60857 0.26733 0.31791 0.0
H1367 H 0.61803 0.28653 0.34742 0.0
H1368 H 0.38302 0.68441 0.27195 0.0
H1369 H 0.38707 0.71278 0.24912 0.0
H1370 H 0.38164 0.75489 0.29773 0.0
H1371 H 0.3776 0.72639 0.32085 0.0
H1372 H 0.35429 0.76096 0.26624 0.0
H1373 H 0.43199 0.75423 0.23778 0.0
H1374 H 0.41869 0.73053 0.23769 0.0
H1375 H 0.42402 0.74288 0.26088 0.0
C1376 C 0.38305 0.69969 0.27787 0.0
C1377 C 0.37988 0.7032 0.29817 0.0
C1378 C 0.38557 0.71588 0.26481 0.0
C1379 C 0.38496 0.73592 0.27177 0.0
C1380 C 0.3824 0.73951 0.29213 0.0
H1381 H 0.35653 0.83634 0.19016 0.0
H1382 H 0.36811 0.81988 0.22079 0.0
C1383 C 0.38007 0.72324 0.30528 0.0
C1384 C 0.38425 0.75279 0.25732 0.0
H1385 H 0.40837 0.77181 0.21673 0.0
C1386 C 0.36628 0.76376 0.25568 0.0
C1387 C 0.39991 0.75627 0.24357 0.0
C1388 C 0.41982 0.74548 0.24515 0.0
C1389 C 0.36291 0.77701 0.23976 0.0
C1390 C 0.37822 0.77976 0.22541 0.0
C1391 C 0.39667 0.76968 0.22773 0.0
C1392 C 0.37443 0.79102 0.20678 0.0
C1393 C 0.34247 0.78676 0.23772 0.0
C1394 C 0.37511 0.78058 0.18865 0.0
C1395 C 0.36889 0.79006 0.17122 0.0
C1396 C 0.36215 0.8102 0.1716 0.0
C1397 C 0.36197 0.82086 0.18958 0.0
C1398 C 0.36844 0.81145 0.20702 0.0
H1399 H 0.33118 0.77978 0.24777 0.0
H1400 H 0.3436 0.80309 0.24152 0.0
H1401 H 0.33687 0.7855 0.22227 0.0
H1402 H 0.37958 0.76478 0.18813 0.0
H1403 H 0.36858 0.7814 0.15757 0.0
H1404 H 0.14146 0.15634 0.68941 0.0
H1405 H 0.12944 0.17105 0.72062 0.0
H1406 H 0.10819 0.22363 0.6888 0.0
H1407 H 0.11988 0.20875 0.65768 0.0
H1408 H 0.1457 0.20513 0.73423 0.0
H1409 H 0.0636 0.21728 0.72879 0.0
H1410 H 0.07683 0.19848 0.71432 0.0
H1411 H 0.07666 0.22465 0.70666 0.0
C1412 C 0.13352 0.17069 0.6891 0.0
C1413 C 0.13104 0.18122 0.67121 0.0
C1414 C 0.12668 0.17907 0.70688 0.0
C1415 C 0.1176 0.1983 0.70706 0.0
C1416 C 0.11451 0.2085 0.68902 0.0
H1417 H 0.11399 0.30314 0.77561 0.0
H1418 H 0.11013 0.2754 0.75197 0.0
C1419 C 0.12124 0.20004 0.67123 0.0
C1420 C 0.11465 0.2092 0.72606 0.0
H1421 H 0.08157 0.23938 0.75113 0.0
C1422 C 0.13153 0.21217 0.73822 0.0
C1423 C 0.09617 0.21837 0.73127 0.0
C1424 C 0.07722 0.2144 0.71968 0.0
C1425 C 0.13078 0.22513 0.75466 0.0
C1426 C 0.11265 0.23532 0.75909 0.0
C1427 C 0.09547 0.23158 0.7476 0.0
C1428 C 0.11213 0.2517 0.77403 0.0
C1429 C 0.14971 0.22885 0.76647 0.0
C1430 C 0.11407 0.24749 0.79433 0.0
C1431 C 0.11626 0.26336 0.80795 0.0
C1432 C 0.11669 0.2836 0.80138 0.0
C1433 C 0.11389 0.2877 0.78112 0.0
C1434 C 0.11156 0.27189 0.76759 0.0
H1435 H 0.16301 0.22121 0.7599 0.0
H1436 H 0.15281 0.24538 0.76744 0.0
H1437 H 0.14764 0.22309 0.78179 0.0
H1438 H 0.11449 0.23195 0.79953 0.0
H1439 H 0.11833 0.25976 0.82348 0.0
H1440 H 0.71042 0.88864 0.78889 0.0
H1441 H 0.7332 0.89027 0.76066 0.0
H1442 H 0.68433 0.87548 0.72121 0.0
H1443 H 0.66126 0.87384 0.7496 0.0
H1444 H 0.71739 0.84916 0.71914 0.0
H1445 H 0.7428 0.92882 0.7139 0.0
H1446 H 0.74363 0.91936 0.73882 0.0
H1447 H 0.71982 0.92158 0.72635 0.0
C1448 C 0.70439 0.88619 0.77417 0.0
C1449 C 0.6841 0.88099 0.77144 0.0
C1450 C 0.7174 0.88732 0.75802 0.0
C1451 C 0.7104 0.88325 0.73882 0.0
C1452 C 0.68995 0.87889 0.73591 0.0
H1453 H 0.79562 0.84464 0.64597 0.0
H1454 H 0.76375 0.85631 0.66048 0.0
C1455 C 0.67682 0.87796 0.75211 0.0
C1456 C 0.72513 0.88065 0.72259 0.0
H1457 H 0.76561 0.90346 0.70102 0.0
C1458 C 0.72765 0.86113 0.71471 0.0
C1459 C 0.73849 0.8963 0.71698 0.0
C1460 C 0.73594 0.91774 0.72431 0.0
C1461 C 0.74411 0.85642 0.70257 0.0
C1462 C 0.75813 0.87184 0.69781 0.0
C1463 C 0.75489 0.89167 0.70471 0.0
C1464 C 0.77731 0.86716 0.68766 0.0
C1465 C 0.74711 0.83467 0.69618 0.0
C1466 C 0.79551 0.87012 0.6978 0.0
C1467 C 0.81361 0.86379 0.68942 0.0
C1468 C 0.81383 0.85469 0.67065 0.0
C1469 C 0.79572 0.85194 0.66036 0.0
C1470 C 0.77759 0.85848 0.66866 0.0
H1471 H 0.73719 0.82405 0.70442 0.0
H1472 H 0.74358 0.83324 0.68018 0.0
H1473 H 0.76296 0.82991 0.69845 0.0
H1474 H 0.79562 0.87668 0.71253 0.0
H1475 H 0.82739 0.86547 0.69783 0.0
H1476 H 0.70196 0.14519 0.14404 0.0
H1477 H 0.73477 0.13432 0.15706 0.0
H1478 H 0.70536 0.10917 0.20848 0.0
H1479 H 0.67289 0.12023 0.19568 0.0
H1480 H 0.74884 0.14958 0.192 0.0
H1481 H 0.74742 0.06593 0.19742 0.0
H1482 H 0.73223 0.08 0.17998 0.0
H1483 H 0.72425 0.07725 0.20537 0.0
C1484 C 0.70257 0.13675 0.1578 0.0
C1485 C 0.68494 0.13292 0.16859 0.0
C1486 C 0.72124 0.13053 0.16519 0.0
C1487 C 0.72248 0.12051 0.18352 0.0
C1488 C 0.70475 0.11621 0.19399 0.0
H1489 H 0.7851 0.1109 0.28756 0.0
H1490 H 0.76417 0.10798 0.25802 0.0
C1491 C 0.68617 0.12251 0.18666 0.0
C1492 C 0.74212 0.11766 0.19349 0.0
H1493 H 0.76817 0.08345 0.22143 0.0
C1494 C 0.75347 0.13503 0.19794 0.0
C1495 C 0.74817 0.09867 0.20115 0.0
C1496 C 0.73749 0.07935 0.19558 0.0
C1497 C 0.76962 0.13418 0.21128 0.0
C1498 C 0.77458 0.11544 0.22022 0.0
C1499 C 0.76421 0.09782 0.21463 0.0
C1500 C 0.78826 0.11453 0.23746 0.0
C1501 C 0.78025 0.15358 0.21691 0.0
C1502 C 0.80887 0.11866 0.23559 0.0
C1503 C 0.82093 0.12033 0.25252 0.0
C1504 C 0.81247 0.118 0.27149 0.0
C1505 C 0.79203 0.11294 0.27317 0.0
C1506 C 0.78006 0.11116 0.25631 0.0
H1507 H 0.77325 0.16715 0.21 0.0
H1508 H 0.78012 0.15555 0.23326 0.0
H1509 H 0.79617 0.15279 0.21207 0.0
H1510 H 0.81545 0.12116 0.22111 0.0
H1511 H 0.83666 0.12419 0.25077 0.0
H1512 H 0.33043 0.62482 0.29072 0.0
H1513 H 0.29862 0.6145 0.27552 0.0
H1514 H 0.26673 0.63333 0.3281 0.0
H1515 H 0.29865 0.64419 0.34309 0.0
H1516 H 0.26814 0.58794 0.28544 0.0
H1517 H 0.24104 0.66788 0.28556 0.0
H1518 H 0.26662 0.66132 0.29156 0.0
H1519 H 0.24694 0.65742 0.30942 0.0
C1520 C 0.31664 0.62633 0.29913 0.0
C1521 C 0.31686 0.63483 0.31816 0.0
C1522 C 0.29851 0.6205 0.29046 0.0
C1523 C 0.28029 0.62334 0.3006 0.0
C1524 C 0.28058 0.63129 0.31991 0.0
H1525 H 0.16439 0.62045 0.2379 0.0
H1526 H 0.18748 0.6176 0.26618 0.0
C1527 C 0.29874 0.63736 0.32849 0.0
C1528 C 0.26111 0.61947 0.29013 0.0
H1529 H 0.22094 0.64386 0.26957 0.0
C1530 C 0.25764 0.60008 0.28223 0.0
C1531 C 0.2474 0.63535 0.28598 0.0
C1532 C 0.25067 0.65671 0.29341 0.0
C1533 C 0.24131 0.59636 0.26958 0.0
C1534 C 0.22825 0.61248 0.26463 0.0
C1535 C 0.23098 0.63153 0.27349 0.0
C1536 C 0.2136 0.61092 0.24822 0.0
C1537 C 0.23852 0.57538 0.26111 0.0
C1538 C 0.22065 0.60797 0.22886 0.0
C1539 C 0.20764 0.60982 0.21277 0.0
C1540 C 0.18729 0.61461 0.21574 0.0
C1541 C 0.18 0.61668 0.23519 0.0
C1542 C 0.19313 0.61504 0.25133 0.0
H1543 H 0.24531 0.56366 0.27086 0.0
H1544 H 0.22234 0.57184 0.25896 0.0
H1545 H 0.2461 0.57453 0.24648 0.0
H1546 H 0.23646 0.60522 0.2261 0.0
H1547 H 0.21368 0.60809 0.19796 0.0
H1548 H 0.28143 0.39121 0.70518 0.0
H1549 H 0.258 0.39199 0.73295 0.0
H1550 H 0.30646 0.37859 0.77334 0.0
H1551 H 0.33014 0.37777 0.74548 0.0
H1552 H 0.2744 0.35111 0.77448 0.0
H1553 H 0.24613 0.42981 0.77981 0.0
H1554 H 0.24605 0.42037 0.75486 0.0
H1555 H 0.26956 0.42348 0.76771 0.0
C1556 C 0.28721 0.38889 0.72001 0.0
C1557 C 0.30758 0.38428 0.72316 0.0
C1558 C 0.27383 0.38953 0.7359 0.0
C1559 C 0.28055 0.38559 0.75522 0.0
C1560 C 0.30105 0.38188 0.75855 0.0
H1561 H 0.1967 0.34335 0.84765 0.0
H1562 H 0.22806 0.35625 0.83305 0.0
C1563 C 0.31452 0.38141 0.74263 0.0
C1564 C 0.26563 0.38234 0.77116 0.0
H1565 H 0.22434 0.40362 0.79269 0.0
C1566 C 0.26372 0.36269 0.77891 0.0
C1567 C 0.25171 0.39747 0.77675 0.0
C1568 C 0.25356 0.41903 0.76949 0.0
C1569 C 0.2474 0.35736 0.79098 0.0
C1570 C 0.2329 0.37228 0.79582 0.0
C1571 C 0.23545 0.39222 0.78897 0.0
C1572 C 0.21395 0.36691 0.80606 0.0
C1573 C 0.24511 0.33547 0.79723 0.0
C1574 C 0.1956 0.36939 0.79608 0.0
C1575 C 0.17777 0.36239 0.80454 0.0
C1576 C 0.178 0.35306 0.8232 0.0
C1577 C 0.19626 0.3508 0.83334 0.0
C1578 C 0.2141 0.35804 0.82498 0.0
H1579 H 0.25526 0.32523 0.7888 0.0
H1580 H 0.24887 0.33402 0.81318 0.0
H1581 H 0.2294 0.33022 0.79509 0.0
H1582 H 0.19516 0.37609 0.78143 0.0
H1583 H 0.16388 0.36372 0.79625 0.0
H1584 H 0.80995 0.73356 0.86982 0.0
H1585 H 0.78034 0.75526 0.86731 0.0
H1586 H 0.74183 0.70294 0.87268 0.0
H1587 H 0.77149 0.68095 0.87523 0.0
H1588 H 0.75034 0.74701 0.83512 0.0
H1589 H 0.71844 0.74886 0.91154 0.0
H1590 H 0.74481 0.74406 0.90707 0.0
H1591 H 0.72657 0.72493 0.90134 0.0
C1592 C 0.79521 0.72665 0.87079 0.0
C1593 C 0.79305 0.70553 0.87259 0.0
C1594 C 0.77833 0.73908 0.86938 0.0
C1595 C 0.75899 0.73066 0.86989 0.0
C1596 C 0.75668 0.70968 0.87247 0.0
H1597 H 0.65115 0.79791 0.8325 0.0
H1598 H 0.67256 0.76942 0.84324 0.0
C1599 C 0.77362 0.69717 0.87385 0.0
C1600 C 0.74152 0.74373 0.86565 0.0
H1601 H 0.70221 0.7687 0.88718 0.0
C1602 C 0.73965 0.75156 0.84642 0.0
C1603 C 0.72768 0.74953 0.88048 0.0
C1604 C 0.72936 0.74154 0.90134 0.0
C1605 C 0.72457 0.76555 0.84174 0.0
C1606 C 0.71114 0.77189 0.8567 0.0
C1607 C 0.71256 0.76364 0.8758 0.0
C1608 C 0.69702 0.78863 0.85295 0.0
C1609 C 0.72347 0.77413 0.82103 0.0
C1610 C 0.7038 0.80863 0.855 0.0
C1611 C 0.69177 0.82471 0.84881 0.0
C1612 C 0.67262 0.82103 0.8409 0.0
C1613 C 0.66571 0.80101 0.83903 0.0
C1614 C 0.67782 0.78485 0.8452 0.0
H1615 H 0.73406 0.76649 0.81072 0.0
H1616 H 0.70796 0.77256 0.81513 0.0
H1617 H 0.72711 0.79056 0.82141 0.0
H1618 H 0.71873 0.81173 0.86065 0.0
H1619 H 0.69767 0.84001 0.84966 0.0
H1620 H 0.19875 0.65779 0.1371 0.0
H1621 H 0.21723 0.68755 0.12538 0.0
H1622 H 0.16688 0.72575 0.14073 0.0
H1623 H 0.14856 0.69585 0.15297 0.0
H1624 H 0.21025 0.71695 0.09725 0.0
H1625 H 0.21199 0.75015 0.17314 0.0
H1626 H 0.20362 0.72458 0.16852 0.0
H1627 H 0.18744 0.74567 0.16301 0.0
C1628 C 0.19153 0.67251 0.13758 0.0
C1629 C 0.17216 0.67463 0.14547 0.0
C1630 C 0.20207 0.68948 0.13095 0.0
C1631 C 0.1935 0.70889 0.13236 0.0
C1632 C 0.17388 0.71095 0.13978 0.0
H1633 H 0.2668 0.81939 0.12047 0.0
H1634 H 0.23643 0.79821 0.11997 0.0
C1635 C 0.16341 0.69394 0.14664 0.0
C1636 C 0.2059 0.72683 0.12738 0.0
H1637 H 0.23024 0.76697 0.1485 0.0
C1638 C 0.21436 0.7281 0.10835 0.0
C1639 C 0.21126 0.74137 0.14191 0.0
C1640 C 0.20327 0.74039 0.16284 0.0
C1641 C 0.22868 0.74297 0.10372 0.0
C1642 C 0.23476 0.75681 0.11854 0.0
C1643 C 0.22545 0.75634 0.13717 0.0
C1644 C 0.25256 0.77 0.11605 0.0
C1645 C 0.23766 0.74339 0.0832 0.0
C1646 C 0.27159 0.76111 0.11395 0.0
C1647 C 0.28887 0.77307 0.11445 0.0
C1648 C 0.28744 0.79416 0.11703 0.0
C1649 C 0.26833 0.80317 0.1184 0.0
C1650 C 0.25101 0.79113 0.1181 0.0
H1651 H 0.22738 0.73639 0.07216 0.0
H1652 H 0.24112 0.75916 0.07851 0.0
H1653 H 0.25187 0.73459 0.0832 0.0
H1654 H 0.27313 0.74479 0.11278 0.0
H1655 H 0.30338 0.7657 0.11333 0.0
H1656 H 0.29668 0.34627 0.64263 0.0
H1657 H 0.27537 0.31876 0.63027 0.0
H1658 H 0.31957 0.27493 0.64899 0.0
H1659 H 0.34117 0.30261 0.66117 0.0
H1660 H 0.29671 0.26959 0.60752 0.0
H1661 H 0.25092 0.27992 0.67587 0.0
H1662 H 0.25726 0.30253 0.66228 0.0
H1663 H 0.27675 0.28818 0.67417 0.0
C1664 C 0.30211 0.3308 0.64349 0.0
C1665 C 0.32073 0.32646 0.65226 0.0
C1666 C 0.28993 0.31515 0.63654 0.0
C1667 C 0.29602 0.29492 0.63864 0.0
C1668 C 0.31481 0.29051 0.64704 0.0
H1669 H 0.22832 0.18295 0.6208 0.0
H1670 H 0.25607 0.20736 0.62279 0.0
C1671 C 0.32703 0.30623 0.65403 0.0
C1672 C 0.28162 0.27851 0.63435 0.0
H1673 H 0.23819 0.25761 0.65165 0.0
C1674 C 0.28396 0.26678 0.61717 0.0
C1675 C 0.26513 0.27501 0.64707 0.0
C1676 C 0.26232 0.28694 0.66598 0.0
C1677 C 0.26973 0.25187 0.61209 0.0
C1678 C 0.25301 0.24868 0.62465 0.0
C1679 C 0.25098 0.26021 0.642 0.0
C1680 C 0.237 0.23382 0.62015 0.0
C1681 C 0.27231 0.24006 0.59313 0.0
C1682 C 0.21718 0.24063 0.61781 0.0
C1683 C 0.20136 0.2268 0.61686 0.0
C1684 C 0.20506 0.20587 0.61829 0.0
C1685 C 0.22503 0.199 0.61963 0.0
C1686 C 0.2409 0.2129 0.62065 0.0
H1687 H 0.28377 0.24702 0.58326 0.0
H1688 H 0.27719 0.22439 0.59672 0.0
H1689 H 0.25782 0.23905 0.585 0.0
H1690 H 0.21389 0.25673 0.61746 0.0
H1691 H 0.18616 0.23258 0.6157 0.0
H1692 H 0.68346 0.26358 0.39153 0.0
H1693 H 0.71131 0.23966 0.38874 0.0
H1694 H 0.75303 0.28945 0.38342 0.0
H1695 H 0.7252 0.31358 0.38645 0.0
H1696 H 0.73371 0.24083 0.35321 0.0
H1697 H 0.7831 0.24802 0.41939 0.0
H1698 H 0.75703 0.25579 0.41954 0.0
H1699 H 0.7756 0.27134 0.40765 0.0
C1700 C 0.69861 0.26947 0.3903 0.0
C1701 C 0.70215 0.29044 0.38898 0.0
C1702 C 0.7145 0.25578 0.38876 0.0
C1703 C 0.7342 0.2628 0.38592 0.0
C1704 C 0.73797 0.28374 0.38592 0.0
H1705 H 0.83918 0.19896 0.33942 0.0
H1706 H 0.81672 0.22522 0.35306 0.0
C1707 C 0.72204 0.2975 0.38755 0.0
C1708 C 0.74997 0.24832 0.37983 0.0
H1709 H 0.79504 0.22745 0.393 0.0
C1710 C 0.74709 0.23787 0.36195 0.0
C1711 C 0.76749 0.24474 0.39115 0.0
C1712 C 0.77104 0.25543 0.41059 0.0
C1713 C 0.76119 0.2238 0.3551 0.0
C1714 C 0.7785 0.21988 0.36659 0.0
C1715 C 0.78166 0.23055 0.38431 0.0
C1716 C 0.79296 0.20413 0.36051 0.0
C1717 C 0.75749 0.21326 0.33557 0.0
C1718 C 0.78699 0.18375 0.36043 0.0
C1719 C 0.79966 0.16893 0.35269 0.0
C1720 C 0.81865 0.17423 0.34531 0.0
C1721 C 0.82472 0.1946 0.34545 0.0
C1722 C 0.812 0.20949 0.35326 0.0
H1723 H 0.74601 0.22126 0.32652 0.0
H1724 H 0.77161 0.21215 0.32684 0.0
H1725 H 0.75201 0.19763 0.33843 0.0
H1726 H 0.7723 0.17938 0.36592 0.0
H1727 H 0.79448 0.15336 0.35211 0.0
H1728 H 0.16948 0.17579 0.56252 0.0
H1729 H 0.16947 0.17573 0.52636 0.0
H1730 H 0.10768 0.15591 0.52625 0.0
H1731 H 0.10735 0.15634 0.56245 0.0
H1732 H 0.16382 0.14408 0.50189 0.0
H1733 H 0.10588 0.20252 0.48724 0.0
H1734 H 0.11706 0.19899 0.51137 0.0
H1735 H 0.09705 0.18264 0.50318 0.0
C1736 C 0.15581 0.17154 0.55485 0.0
C1737 C 0.1384 0.16607 0.56545 0.0
C1738 C 0.15584 0.17155 0.53416 0.0
C1739 C 0.13849 0.16611 0.5236 0.0
C1740 C 0.12109 0.16064 0.53408 0.0
H1741 H 0.13161 0.11939 0.40505 0.0
H1742 H 0.13294 0.12511 0.44066 0.0
C1743 C 0.12099 0.16075 0.5548 0.0
C1744 C 0.13901 0.16507 0.50166 0.0
H1745 H 0.1154 0.18168 0.45975 0.0
C1746 C 0.15334 0.15244 0.49268 0.0
C1747 C 0.12554 0.17623 0.48963 0.0
C1748 C 0.11065 0.19102 0.49832 0.0
C1749 C 0.15418 0.15017 0.47203 0.0
C1750 C 0.14001 0.16047 0.46008 0.0
C1751 C 0.12609 0.17362 0.46898 0.0
C1752 C 0.13902 0.15727 0.43837 0.0
C1753 C 0.17031 0.13683 0.46323 0.0
C1754 C 0.1414 0.17359 0.42523 0.0
C1755 C 0.14047 0.17043 0.40474 0.0
C1756 C 0.13705 0.15088 0.39705 0.0
C1757 C 0.13443 0.13464 0.41036 0.0
C1758 C 0.13529 0.13784 0.43077 0.0
H1759 H 0.18329 0.13514 0.47346 0.0
H1760 H 0.16402 0.1215 0.46047 0.0
H1761 H 0.17582 0.14304 0.44893 0.0
H1762 H 0.14416 0.18874 0.43082 0.0
H1763 H 0.1425 0.1833 0.39495 0.0
H1764 H 0.32827 0.81389 0.06288 0.0
H1765 H 0.32867 0.81294 0.02675 0.0
H1766 H 0.39112 0.83059 0.02682 0.0
H1767 H 0.39103 0.83104 0.06305 0.0
H1768 H 0.33496 0.84382 0.00243 0.0
H1769 H 0.39198 0.78461 0.9875 0.0
H1770 H 0.38114 0.78841 0.01174 0.0
H1771 H 0.40137 0.80436 0.00329 0.0
C1772 C 0.34218 0.81739 0.05525 0.0
C1773 C 0.35963 0.82259 0.06588 0.0
C1774 C 0.34237 0.81679 0.03457 0.0
C1775 C 0.35998 0.82143 0.02406 0.0
C1776 C 0.37749 0.82645 0.03461 0.0
H1777 H 0.36602 0.86912 0.90587 0.0
H1778 H 0.36583 0.86287 0.94142 0.0
C1779 C 0.37737 0.82685 0.05533 0.0
C1780 C 0.35952 0.82252 0.00211 0.0
H1781 H 0.38296 0.80591 0.96009 0.0
C1782 C 0.34534 0.83537 0.99318 0.0
C1783 C 0.37286 0.81127 0.99001 0.0
C1784 C 0.38755 0.79623 -0.00139 0.0
C1785 C 0.3445 0.83775 0.97256 0.0
C1786 C 0.35858 0.8274 0.96054 0.0
C1787 C 0.37235 0.81403 0.96937 0.0
C1788 C 0.35955 0.83077 0.93886 0.0
C1789 C 0.32845 0.85125 0.96386 0.0
C1790 C 0.35683 0.81463 0.92556 0.0
C1791 C 0.35713 0.8181 0.90509 0.0
C1792 C 0.36018 0.8378 0.89761 0.0
C1793 C 0.36338 0.8538 0.91105 0.0
C1794 C 0.36319 0.85029 0.93143 0.0
H1795 H 0.31546 0.85293 0.97409 0.0
H1796 H 0.33481 0.86658 0.96124 0.0
H1797 H 0.3229 0.84521 0.9495 0.0
H1798 H 0.35414 0.79942 0.93103 0.0
H1799 H 0.35468 0.80542 0.89518 0.0
H1800 H 0.59879 0.33953 0.43631 0.0
H1801 H 0.59638 0.34164 0.47249 0.0
H1802 H 0.65862 0.32417 0.4776 0.0
H1803 H 0.66133 0.32231 0.44167 0.0
H1804 H 0.60351 0.31264 0.50221 0.0
H1805 H 0.65612 0.37758 0.50832 0.0
H1806 H 0.64522 0.36978 0.48504 0.0
H1807 H 0.66649 0.35642 0.49507 0.0
C1808 C 0.61196 0.33611 0.44512 0.0
C1809 C 0.63032 0.331 0.43603 0.0
C1810 C 0.61054 0.3373 0.46579 0.0
C1811 C 0.62743 0.33344 0.47766 0.0
C1812 C 0.64554 0.32767 0.46867 0.0
H1813 H 0.63581 0.30965 0.60368 0.0
H1814 H 0.63354 0.30707 0.5676 0.0
C1815 C 0.64701 0.32656 0.44809 0.0
C1816 C 0.62633 0.33563 0.49946 0.0
H1817 H 0.64781 0.36058 0.53835 0.0
C1818 C 0.61307 0.32321 0.51015 0.0
C1819 C 0.63861 0.34966 0.50971 0.0
C1820 C 0.65227 0.36427 0.49895 0.0
C1821 C 0.61217 0.32405 0.53093 0.0
C1822 C 0.62515 0.33741 0.54122 0.0
C1823 C 0.63802 0.35019 0.53046 0.0
C1824 C 0.62564 0.3386 0.56315 0.0
C1825 C 0.59717 0.31083 0.54163 0.0
C1826 C 0.6224 0.35727 0.57259 0.0
C1827 C 0.62398 0.35887 0.59315 0.0
C1828 C 0.62882 0.34181 0.60474 0.0
C1829 C 0.63193 0.32306 0.59524 0.0
C1830 C 0.63048 0.32152 0.57462 0.0
H1831 H 0.5847 0.30609 0.5317 0.0
H1832 H 0.60484 0.29692 0.54696 0.0
H1833 H 0.5907 0.3188 0.55465 0.0
H1834 H 0.61874 0.37066 0.56402 0.0
H1835 H 0.62142 0.37354 0.59992 0.0
H1836 H 0.86527 0.62732 0.08951 0.0
H1837 H 0.86576 0.63214 0.05375 0.0
H1838 H 0.85472 0.69611 0.06156 0.0
H1839 H 0.85466 0.69155 0.09757 0.0
H1840 H 0.83631 0.64573 0.02956 0.0
H1841 H 0.90297 0.6962 0.02461 0.0
H1842 H 0.89666 0.68239 0.04685 0.0
H1843 H 0.88348 0.70534 0.0407 0.0
C1844 C 0.86301 0.64247 0.08372 0.0
C1845 C 0.86001 0.65908 0.0965 0.0
C1846 C 0.86329 0.64518 0.06322 0.0
C1847 C 0.86057 0.66451 0.05499 0.0
C1848 C 0.85731 0.68112 0.06761 0.0
H1849 H 0.8309 0.68153 0.93023 0.0
H1850 H 0.83054 0.68137 0.96639 0.0
C1851 C 0.85715 0.67846 0.0882 0.0
C1852 C 0.86063 0.66698 0.03314 0.0
H1853 H 0.88483 0.69051 0.99487 0.0
C1854 C 0.8469 0.65554 0.02197 0.0
C1855 C 0.87464 0.67959 0.02328 0.0
C1856 C 0.89041 0.69145 0.03442 0.0
C1857 C 0.84681 0.65632 0.00121 0.0
C1858 C 0.86049 0.66929 0.99134 0.0
C1859 C 0.87424 0.68073 0.00249 0.0
C1860 C 0.86113 0.67068 0.96942 0.0
C1861 C 0.83243 0.64277 0.99004 0.0
C1862 C 0.87873 0.66552 0.95912 0.0
C1863 C 0.87909 0.66581 0.93841 0.0
C1864 C 0.86182 0.67124 0.9276 0.0
C1865 C 0.8444 0.67699 0.93803 0.0
C1866 C 0.84412 0.67684 0.95873 0.0
H1867 H 0.82696 0.63004 -0.00061 0.0
H1868 H 0.81918 0.65178 0.98534 0.0
H1869 H 0.83963 0.63636 0.97658 0.0
H1870 H 0.89207 0.66083 0.96711 0.0
H1871 H 0.89278 0.66137 0.93088 0.0
H1872 H 0.40539 0.12549 0.19608 0.0
H1873 H 0.44175 0.12912 0.20014 0.0
H1874 H 0.44932 0.12731 0.13669 0.0
H1875 H 0.4131 0.12411 0.13241 0.0
H1876 H 0.47215 0.10372 0.18881 0.0
H1877 H 0.48013 0.17812 0.15162 0.0
H1878 H 0.45605 0.16803 0.15901 0.0
H1879 H 0.46763 0.15983 0.13627 0.0
C1880 C 0.41477 0.12595 0.18297 0.0
C1881 C 0.40627 0.12462 0.1639 0.0
C1882 C 0.43554 0.12802 0.18534 0.0
C1883 C 0.44816 0.12885 0.16871 0.0
C1884 C 0.43979 0.12722 0.14971 0.0
H1885 H 0.57388 0.10344 0.15622 0.0
H1886 H 0.53737 0.10211 0.15956 0.0
C1887 C 0.41906 0.12526 0.1473 0.0
C1888 C 0.47017 0.13086 0.17113 0.0
H1889 H 0.5104 0.159 0.15613 0.0
C1890 C 0.48053 0.11592 0.18187 0.0
C1891 C 0.481 0.147 0.16238 0.0
C1892 C 0.47061 0.16427 0.15185 0.0
C1893 C 0.50156 0.11625 0.1834 0.0
C1894 C 0.51247 0.13166 0.17353 0.0
C1895 C 0.50203 0.14704 0.16348 0.0
C1896 C 0.53472 0.13188 0.17286 0.0
C1897 C 0.51185 0.10012 0.1956 0.0
C1898 C 0.54533 0.14921 0.1789 0.0
C1899 C 0.56617 0.15016 0.17671 0.0
C1900 C 0.57682 0.13377 0.16844 0.0
C1901 C 0.56618 0.11628 0.16276 0.0
C1902 C 0.5453 0.11542 0.1648 0.0
H1903 H 0.50161 0.09384 0.20707 0.0
H1904 H 0.51641 0.08745 0.18576 0.0
H1905 H 0.5255 0.10616 0.20302 0.0
H1906 H 0.53743 0.16211 0.18508 0.0
H1907 H 0.57389 0.16383 0.18134 0.0
H1908 H 0.9272 0.82961 0.66396 0.0
H1909 H 0.9636 0.83398 0.66414 0.0
H1910 H 0.95653 0.89654 0.64674 0.0
H1911 H 0.92001 0.89248 0.64695 0.0
H1912 H 0.988 0.84406 0.63355 0.0
H1913 H 0.99442 0.90119 0.69362 0.0
H1914 H 0.97161 0.88712 0.68907 0.0
H1915 H 0.97791 0.90862 0.67387 0.0
C1916 C 0.93333 0.84436 0.66027 0.0
C1917 C 0.92065 0.86071 0.65547 0.0
C1918 C 0.95416 0.84681 0.66038 0.0
C1919 C 0.96275 0.86564 0.65569 0.0
C1920 C 0.95019 0.882 0.65083 0.0
H1921 H 0.08843 0.88042 0.6222 0.0
H1922 H 0.05174 0.87916 0.62242 0.0
C1923 C 0.92931 0.87961 0.65085 0.0
C1924 C 0.98489 0.86782 0.65524 0.0
H1925 H 0.02413 0.89405 0.6754 0.0
C1926 C 0.99592 0.85497 0.64271 0.0
C1927 C 0.99516 0.88191 0.66737 0.0
C1928 C 0.98421 0.89537 0.68189 0.0
C1929 C 0.01696 0.85584 0.64195 0.0
C1930 C 0.0272 0.87031 0.65368 0.0
C1931 C 0.01619 0.88312 0.66627 0.0
C1932 C 0.04939 0.87191 0.65362 0.0
C1933 C 0.02802 0.84088 0.62898 0.0
C1934 C 0.06019 0.86893 0.67123 0.0
C1935 C 0.08115 0.86988 0.67123 0.0
C1936 C 0.09173 0.87381 0.65358 0.0
C1937 C 0.08081 0.87716 0.63602 0.0
C1938 C 0.05982 0.87635 0.63608 0.0
H1939 H 0.0185 0.82758 0.62521 0.0
H1940 H 0.03237 0.84844 0.61493 0.0
H1941 H 0.04191 0.83537 0.63635 0.0
H1942 H 0.05239 0.86556 0.68494 0.0
H1943 H 0.08904 0.86723 0.68503 0.0
H1944 H 0.07131 0.3877 0.84771 0.0
H1945 H 0.03471 0.39086 0.84859 0.0
H1946 H 0.02879 0.32835 0.83064 0.0
H1947 H 0.0653 0.32486 0.83012 0.0
H1948 H 0.0063 0.3856 0.81958 0.0
H1949 H 0.99479 0.3304 0.8806 0.0
H1950 H 0.01924 0.34033 0.87428 0.0
H1951 H 0.00837 0.32011 0.85993 0.0
C1952 C 0.06225 0.3746 0.84395 0.0
C1953 C 0.07126 0.35596 0.83907 0.0
C1954 C 0.04134 0.37645 0.84445 0.0
C1955 C 0.02908 0.35973 0.84005 0.0
C1956 C 0.038 0.34129 0.83458 0.0
H1957 H 0.90105 0.36353 0.81423 0.0
H1958 H 0.93762 0.36081 0.81224 0.0
C1959 C 0.05888 0.33937 0.83421 0.0
C1960 C 0.00696 0.36157 0.84119 0.0
H1961 H 0.96549 0.34186 0.86388 0.0
C1962 C 0.99735 0.37609 0.8293 0.0
C1963 C 0.9954 0.34933 0.85411 0.0
C1964 C 0.00497 0.33431 0.8681 0.0
C1965 C 0.97641 0.37854 0.82978 0.0
C1966 C 0.96479 0.3658 0.84218 0.0
C1967 C 0.97444 0.35145 0.85424 0.0
C1968 C 0.94264 0.36739 0.84327 0.0
C1969 C 0.96699 0.39501 0.81733 0.0
C1970 C 0.93332 0.37137 0.8615 0.0
C1971 C 0.91242 0.37267 0.86276 0.0
C1972 C 0.90042 0.37002 0.84579 0.0
C1973 C 0.90983 0.36584 0.82756 0.0
C1974 C 0.93074 0.3644 0.82635 0.0
H1975 H 0.97813 0.40679 0.81307 0.0
H1976 H 0.96093 0.38823 0.80351 0.0
H1977 H 0.95441 0.40245 0.82533 0.0
H1978 H 0.94224 0.37362 0.87475 0.0
H1979 H 0.90572 0.3759 0.87705 0.0
H1980 H 0.42307 0.59671 0.3421 0.0
H1981 H 0.45966 0.5931 0.34353 0.0
H1982 H 0.46658 0.65535 0.32511 0.0
H1983 H 0.43016 0.65929 0.32403 0.0
H1984 H 0.48932 0.59799 0.31534 0.0
H1985 H 0.49868 0.65355 0.37631 0.0
H1986 H 0.47447 0.64353 0.36927 0.0
H1987 H 0.48569 0.66384 0.35529 0.0
C1988 C 0.43237 0.60963 0.33831 0.0
C1989 C 0.42367 0.62838 0.33322 0.0
C1990 C 0.45326 0.60752 0.33912 0.0
C1991 C 0.46578 0.62409 0.33483 0.0
C1992 C 0.45717 0.64254 0.32898 0.0
H1993 H 0.59368 0.62437 0.31053 0.0
H1994 H 0.55702 0.62406 0.3083 0.0
C1995 C 0.43633 0.64473 0.32831 0.0
C1996 C 0.48786 0.62221 0.3367 0.0
H1997 H 0.52853 0.64289 0.35993 0.0
C1998 C 0.49792 0.6077 0.32516 0.0
C1999 C 0.49897 0.63468 0.34979 0.0
C2000 C 0.4889 0.64963 0.36352 0.0
C2001 C 0.51891 0.60566 0.32601 0.0
C2002 C 0.53009 0.61879 0.33842 0.0
C2003 C 0.51995 0.63298 0.35027 0.0
C2004 C 0.55231 0.61811 0.33951 0.0
C2005 C 0.52885 0.58929 0.31384 0.0
C2006 C 0.56182 0.61535 0.35787 0.0
C2007 C 0.58274 0.61584 0.35926 0.0
C2008 C 0.59459 0.61907 0.34228 0.0
C2009 C 0.58502 0.62168 0.32387 0.0
C2010 C 0.56406 0.62136 0.32253 0.0
H2011 H 0.5181 0.57702 0.30995 0.0
H2012 H 0.53451 0.59598 0.29982 0.0
H2013 H 0.54177 0.58251 0.32188 0.0
H2014 H 0.55302 0.61291 0.37117 0.0
H2015 H 0.58958 0.61372 0.37367 0.0
H2016 H 0.15569 0.39324 0.12812 0.0
H2017 H 0.14514 0.42864 0.13164 0.0
H2018 H 0.20719 0.44763 0.13076 0.0
H2019 H 0.21782 0.41248 0.12662 0.0
H2020 H 0.1521 0.4573 0.159 0.0
H2021 H 0.18397 0.48208 0.08728 0.0
H2022 H 0.18182 0.45568 0.094 0.0
H2023 H 0.20271 0.47061 0.10273 0.0
C2024 C 0.16708 0.40496 0.12874 0.0
C2025 C 0.18758 0.40008 0.12684 0.0
C2026 C 0.16103 0.42517 0.13072 0.0
C2027 C 0.17536 0.44081 0.13094 0.0
C2028 C 0.19585 0.43587 0.12997 0.0
H2029 H 0.16468 0.56311 0.1734 0.0
H2030 H 0.1681 0.5265 0.16954 0.0
C2031 C 0.2019 0.41574 0.12773 0.0
C2032 C 0.16899 0.46231 0.1322 0.0
H2033 H 0.1754 0.50843 0.11018 0.0
C2034 C 0.15701 0.46847 0.14822 0.0
C2035 C 0.17497 0.47678 0.11786 0.0
C2036 C 0.18638 0.47092 0.09939 0.0
C2037 C 0.15153 0.48888 0.15074 0.0
C2038 C 0.15876 0.50356 0.13718 0.0
C2039 C 0.17007 0.49724 0.12074 0.0
C2040 C 0.15541 0.52563 0.13999 0.0
C2041 C 0.13794 0.4944 0.16781 0.0
C2042 C 0.14763 0.53746 0.12448 0.0
C2043 C 0.14609 0.5585 0.12647 0.0
C2044 C 0.15217 0.56809 0.14409 0.0
C2045 C 0.15963 0.55617 0.15973 0.0
C2046 C 0.16145 0.53518 0.15761 0.0
H2047 H 0.12833 0.48137 0.17222 0.0
H2048 H 0.14727 0.49858 0.18082 0.0
H2049 H 0.12808 0.50743 0.16406 0.0
H2050 H 0.14298 0.53043 0.11071 0.0
H2051 H 0.14024 0.56725 0.11417 0.0
H2052 H 0.64709 0.93297 0.81322 0.0
H2053 H 0.65094 0.96963 0.81693 0.0
H2054 H 0.65748 0.96243 0.88011 0.0
H2055 H 0.65337 0.92582 0.87669 0.0
H2056 H 0.63247 0.99474 0.86934 0.0
H2057 H 0.70521 0.99664 0.82882 0.0
H2058 H 0.68469 0.98549 0.81538 0.0
H2059 H 0.69395 0.97333 0.83739 0.0
C2060 C 0.64923 0.93915 0.82794 0.0
C2061 C 0.65006 0.92638 0.84465 0.0
C2062 C 0.65152 0.96011 0.82999 0.0
C2063 C 0.65484 0.96865 0.84874 0.0
C2064 C 0.65502 0.95608 0.8655 0.0
H2065 H 0.70716 0.08283 0.8817 0.0
H2066 H 0.69905 0.04739 0.87502 0.0
C2067 C 0.65267 0.93514 0.86349 0.0
C2068 C 0.6586 0.99064 0.85095 0.0
H2069 H 0.69185 0.02814 0.83906 0.0
C2070 C 0.6454 0.0021 0.86267 0.0
C2071 C 0.67563 6e-05 0.84241 0.0
C2072 C 0.69081 0.98826 0.83043 0.0
C2073 C 0.6488 0.0228 0.86615 0.0
C2074 C 0.66569 0.03227 0.85739 0.0
C2075 C 0.67884 0.02082 0.84561 0.0
C2076 C 0.67051 0.05385 0.861 0.0
C2077 C 0.63466 0.03419 0.87964 0.0
C2078 C 0.65727 0.06923 0.85503 0.0
C2079 C 0.66181 0.08954 0.85889 0.0
C2080 C 0.67976 0.09484 0.86866 0.0
C2081 C 0.69318 0.07935 0.87421 0.0
C2082 C 0.68859 0.05906 0.8704 0.0
H2083 H 0.62534 0.02375 0.88873 0.0
H2084 H 0.6431 0.04442 0.88972 0.0
H2085 H 0.62439 0.04362 0.87054 0.0
H2086 H 0.64343 0.06551 0.84739 0.0
H2087 H 0.65119 0.10106 0.85425 0.0
H2088 H 0.84464 0.06897 0.37466 0.0
H2089 H 0.84134 0.03221 0.37582 0.0
H2090 H 0.8474 0.02926 0.31225 0.0
H2091 H 0.85039 0.06618 0.31082 0.0
H2092 H 0.81461 0.00895 0.32549 0.0
H2093 H 0.8811 0.98613 0.36932 0.0
H2094 H 0.86689 0.00563 0.38145 0.0
H2095 H 0.87886 0.01089 0.35807 0.0
C2096 C 0.84562 0.06055 0.36091 0.0
C2097 C 0.84773 0.0706 0.34263 0.0
C2098 C 0.84387 0.03947 0.36164 0.0
C2099 C 0.84442 0.02798 0.34415 0.0
C2100 C 0.84707 0.03786 0.32593 0.0
H2101 H 0.83543 0.89539 0.35154 0.0
H2102 H 0.84719 0.92945 0.34298 0.0
C2103 C 0.84877 0.05898 0.32516 0.0
C2104 C 0.84022 0.00595 0.34483 0.0
H2105 H 0.85373 0.96212 0.3682 0.0
C2106 C 0.82335 -0.00136 0.33457 0.0
C2107 C 0.8518 0.99245 0.35646 0.0
C2108 C 0.87079 -0.00087 0.36678 0.0
C2109 C 0.81714 0.97841 0.33646 0.0
C2110 C 0.82787 0.96531 0.34923 0.0
C2111 C 0.84536 0.97231 0.35864 0.0
C2112 C 0.82057 0.94466 0.35384 0.0
C2113 C 0.799 0.97133 0.32495 0.0
C2114 C 0.80181 0.94201 0.36295 0.0
C2115 C 0.79502 0.92262 0.36785 0.0
C2116 C 0.80695 0.90548 0.36387 0.0
C2117 C 0.82582 0.90823 0.35479 0.0
C2118 C 0.83259 0.92766 0.34989 0.0
H2119 H 0.7964 0.9809 0.31163 0.0
H2120 H 0.8007 0.9553 0.32017 0.0
H2121 H 0.78548 0.97245 0.33451 0.0
H2122 H 0.7925 0.95498 0.36651 0.0
H2123 H 0.78046 0.92114 0.37488 0.0
H2124 H 0.36031 0.43148 0.62318 0.0
H2125 H 0.35834 0.46831 0.61953 0.0
H2126 H 0.33236 0.47301 0.67794 0.0
H2127 H 0.33493 0.43636 0.68199 0.0
H2128 H 0.32547 0.48992 0.61846 0.0
H2129 H 0.37208 0.51844 0.68028 0.0
H2130 H 0.37258 0.49225 0.67249 0.0
H2131 H 0.35317 0.5012 0.68893 0.0
C2132 C 0.35449 0.44039 0.63538 0.0
C2133 C 0.3478 0.43099 0.65288 0.0
C2134 C 0.35339 0.46144 0.63328 0.0
C2135 C 0.34547 0.47347 0.64857 0.0
C2136 C 0.33907 0.46414 0.66617 0.0
H2137 H 0.28337 0.58644 0.63168 0.0
H2138 H 0.29367 0.55154 0.63822 0.0
C2139 C 0.34042 0.44313 0.6684 0.0
C2140 C 0.34206 0.49545 0.64537 0.0
H2141 H 0.34853 0.54221 0.6662 0.0
C2142 C 0.33075 0.50136 0.62879 0.0
C2143 C 0.34915 0.51043 0.65868 0.0
C2144 C 0.3626 0.50527 0.67596 0.0
C2145 C 0.32578 0.52172 0.62548 0.0
C2146 C 0.33173 0.53652 0.63949 0.0
C2147 C 0.34366 0.53077 0.65569 0.0
C2148 C 0.32556 0.558 0.63751 0.0
C2149 C 0.31433 0.52716 0.6069 0.0
C2150 C 0.34007 0.57338 0.63607 0.0
C2151 C 0.33422 0.59345 0.63265 0.0
C2152 C 0.31376 0.5984 0.63053 0.0
C2153 C 0.29926 0.58307 0.63292 0.0
C2154 C 0.30512 0.5631 0.63655 0.0
H2155 H 0.3164 0.51553 0.59515 0.0
H2156 H 0.29805 0.52797 0.61036 0.0
H2157 H 0.31917 0.54209 0.60097 0.0
H2158 H 0.35593 0.56976 0.63695 0.0
H2159 H 0.34576 0.60491 0.63093 0.0
H2160 H 0.78882 0.8664 0.44732 0.0
H2161 H 0.80261 0.86308 0.48054 0.0
H2162 H 0.8517 0.82734 0.45773 0.0
H2163 H 0.8381 0.83071 0.42412 0.0
H2164 H 0.80929 0.82607 0.50084 0.0
H2165 H 0.8793 0.87157 0.49211 0.0
H2166 H 0.85862 0.87331 0.47486 0.0
H2167 H 0.87499 0.85169 0.47434 0.0
C2168 C 0.80265 0.85795 0.44922 0.0
C2169 C 0.81235 0.84883 0.43296 0.0
C2170 C 0.81047 0.85604 0.46828 0.0
C2171 C 0.82819 0.84506 0.47156 0.0
C2172 C 0.83812 0.8361 0.45544 0.0
H2173 H 0.85925 0.81478 0.59499 0.0
H2174 H 0.8543 0.8112 0.5592 0.0
C2175 C 0.83029 0.83801 0.43626 0.0
C2176 C 0.83569 0.84267 0.49206 0.0
H2177 H 0.87275 0.85793 0.5237 0.0
C2178 C 0.82328 0.8328 0.50584 0.0
C2179 C 0.85389 0.85158 0.49844 0.0
C2180 C 0.86748 0.86277 0.48426 0.0
C2181 C 0.82825 0.8322 0.52602 0.0
C2182 C 0.84628 0.84144 0.5325 0.0
C2183 C 0.85901 0.85075 0.51861 0.0
C2184 C 0.85109 0.84339 0.55382 0.0
C2185 C 0.81367 0.82258 0.54038 0.0
C2186 C 0.85153 0.8627 0.56249 0.0
C2187 C 0.85443 0.86483 0.58285 0.0
C2188 C 0.85698 0.84766 0.595 0.0
C2189 C 0.85717 0.82832 0.58614 0.0
C2190 C 0.8543 0.82622 0.5657 0.0
H2191 H 0.79882 0.81953 0.53344 0.0
H2192 H 0.81991 0.80794 0.54565 0.0
H2193 H 0.81136 0.8325 0.55349 0.0
H2194 H 0.84908 0.87613 0.55356 0.0
H2195 H 0.85425 0.87997 0.58909 0.0
H2196 H 0.6924 0.13505 0.94995 0.0
H2197 H 0.67906 0.13678 0.98342 0.0
H2198 H 0.62718 0.16935 0.96214 0.0
H2199 H 0.64037 0.16758 0.9282 0.0
H2200 H 0.67056 0.17331 0.00397 0.0
H2201 H 0.60358 0.12301 0.99719 0.0
H2202 H 0.62384 0.12257 0.97938 0.0
H2203 H 0.60628 0.1432 0.97941 0.0
C2204 C 0.67806 0.14247 0.95222 0.0
C2205 C 0.66748 0.15122 0.93631 0.0
C2206 C 0.67047 0.14345 0.97142 0.0
C2207 C 0.65214 0.15313 0.97523 0.0
C2208 C 0.64127 0.16161 0.95944 0.0
H2209 H 0.62728 0.17738 0.10128 0.0
H2210 H 0.62848 0.18264 0.06539 0.0
C2211 C 0.64885 0.16061 0.94009 0.0
C2212 C 0.64515 0.15484 0.99597 0.0
H2213 H 0.61103 0.13585 0.02888 0.0
C2214 C 0.65737 0.16539 0.00942 0.0
C2215 C 0.628 0.1444 0.00293 0.0
C2216 C 0.61465 0.13252 0.98908 0.0
C2217 C 0.65345 0.16503 0.02983 0.0
C2218 C 0.63658 0.15414 0.0369 0.0
C2219 C 0.62387 0.14427 0.02335 0.0
C2220 C 0.63327 0.15098 0.05838 0.0
C2221 C 0.66806 0.17531 0.0437 0.0
C2222 C 0.63475 0.13135 0.06624 0.0
C2223 C 0.63393 0.12825 0.08667 0.0
C2224 C 0.63164 0.14476 0.0997 0.0
C2225 C 0.62929 0.16434 0.09171 0.0
C2226 C 0.63001 0.16741 0.07121 0.0
H2227 H 0.68225 0.17965 0.03612 0.0
H2228 H 0.66109 0.18931 0.0497 0.0
H2229 H 0.67181 0.16525 0.05637 0.0
H2230 H 0.63726 0.11847 0.05658 0.0
H2231 H 0.63571 0.11294 0.09223 0.0
H2232 H 0.3571 0.60821 0.39951 0.0
H2233 H 0.35216 0.61182 0.43514 0.0
H2234 H 0.35835 0.67671 0.42996 0.0
H2235 H 0.36309 0.67337 0.39416 0.0
H2236 H 0.37639 0.62969 0.46506 0.0
H2237 H 0.30283 0.66878 0.45598 0.0
H2238 H 0.31508 0.65566 0.43586 0.0
H2239 H 0.32374 0.68029 0.44339 0.0
C2240 C 0.35753 0.62328 0.40588 0.0
C2241 C 0.3603 0.64052 0.39387 0.0
C2242 C 0.35476 0.62529 0.42629 0.0
C2243 C 0.35465 0.64453 0.4351 0.0
C2244 C 0.35808 0.66174 0.42335 0.0
H2245 H 0.34719 0.66462 0.56363 0.0
H2246 H 0.3593 0.66402 0.52936 0.0
C2247 C 0.36083 0.65977 0.4029 0.0
C2248 C 0.35005 0.6465 0.45647 0.0
H2249 H 0.31437 0.66382 0.48859 0.0
C2250 C 0.36292 0.63727 0.47027 0.0
C2251 C 0.33235 0.65622 0.46311 0.0
C2252 C 0.31758 0.66568 0.44886 0.0
C2253 C 0.35841 0.63731 0.49061 0.0
C2254 C 0.34068 0.647 0.49722 0.0
C2255 C 0.328 0.65648 0.48343 0.0
C2256 C 0.33425 0.64647 0.51819 0.0
C2257 C 0.37222 0.6264 0.50478 0.0
C2258 C 0.31616 0.63686 0.52321 0.0
C2259 C 0.30916 0.63723 0.54267 0.0
C2260 C 0.32008 0.64732 0.55758 0.0
C2261 C 0.33844 0.65663 0.55257 0.0
C2262 C 0.34543 0.65626 0.53301 0.0
H2263 H 0.38307 0.61644 0.49691 0.0
H2264 H 0.38089 0.63773 0.51344 0.0
H2265 H 0.36344 0.61705 0.51539 0.0
H2266 H 0.30732 0.62924 0.51196 0.0
H2267 H 0.29498 0.62986 0.54592 0.0
H2268 H 0.20553 0.35757 0.04655 0.0
H2269 H 0.19173 0.35482 0.01329 0.0
H2270 H 0.14085 0.32164 0.03604 0.0
H2271 H 0.15444 0.32451 0.06969 0.0
H2272 H 0.1833 0.31897 0.99255 0.0
H2273 H 0.11519 0.36703 0.00224 0.0
H2274 H 0.13582 0.36738 0.01962 0.0
H2275 H 0.11843 0.34655 0.01956 0.0
C2276 C 0.19133 0.34978 0.04463 0.0
C2277 C 0.18108 0.3413 0.06089 0.0
C2278 C 0.18349 0.34819 0.02554 0.0
C2279 C 0.16523 0.33816 0.02223 0.0
C2280 C 0.15484 0.32971 0.03834 0.0
H2281 H 0.13271 0.31066 0.89854 0.0
H2282 H 0.13792 0.30642 0.93421 0.0
C2283 C 0.16268 0.33131 0.05755 0.0
C2284 C 0.15755 0.33634 0.00173 0.0
H2285 H 0.12085 0.35332 0.97052 0.0
C2286 C 0.16953 0.32626 0.98773 0.0
C2287 C 0.13963 0.34599 0.99556 0.0
C2288 C 0.12653 0.35749 0.00994 0.0
C2289 C 0.16445 0.32615 0.96756 0.0
C2290 C 0.1467 0.33609 0.96132 0.0
C2291 C 0.13437 0.34562 0.97541 0.0
C2292 C 0.14178 0.33846 0.94005 0.0
C2293 C 0.17865 0.3163 0.953 0.0
C2294 C 0.14157 0.35791 0.93167 0.0
C2295 C 0.13848 0.36043 0.91138 0.0
C2296 C 0.13553 0.3435 0.899 0.0
C2297 C 0.13512 0.32402 0.90757 0.0
C2298 C 0.13814 0.32155 0.92795 0.0
H2299 H 0.19348 0.31286 0.95978 0.0
H2300 H 0.17201 0.30184 0.94772 0.0
H2301 H 0.18107 0.32624 0.93993 0.0
H2302 H 0.14433 0.37116 0.94078 0.0
H2303 H 0.13885 0.37566 0.90537 0.0
H2304 H 0.58924 0.85543 0.80428 0.0
H2305 H 0.55262 0.85305 0.80236 0.0
H2306 H 0.54851 0.86164 0.86559 0.0
H2307 H 0.58504 0.86359 0.86778 0.0
H2308 H 0.52457 0.83092 0.85257 0.0
H2309 H 0.5131 0.89989 0.80672 0.0
H2310 H 0.52985 0.88162 0.79593 0.0
H2311 H 0.53674 0.89419 0.81859 0.0
C2312 C 0.58057 0.85684 0.81779 0.0
C2313 C 0.59012 0.85982 0.83618 0.0
C2314 C 0.55962 0.8556 0.81663 0.0
C2315 C 0.54786 0.85754 0.83378 0.0
C2316 C 0.55733 0.86021 0.85216 0.0
H2317 H 0.42087 0.8825 0.84459 0.0
H2318 H 0.45756 0.88381 0.84358 0.0
C2319 C 0.57824 0.86133 0.85337 0.0
C2320 C 0.52565 0.8565 0.83275 0.0
H2321 H 0.48437 0.87952 0.81281 0.0
C2322 C 0.51577 0.84154 0.84388 0.0
C2323 C 0.51423 0.87054 0.82159 0.0
C2324 C 0.52397 0.8876 0.81017 0.0
C2325 C 0.49473 0.84019 0.84414 0.0
C2326 C 0.48332 0.8539 0.83258 0.0
C2327 C 0.49319 0.86891 0.8215 0.0
C2328 C 0.46109 0.85329 0.8323 0.0
C2329 C 0.48494 0.82445 0.85722 0.0
C2330 C 0.45092 0.83585 0.82587 0.0
C2331 C 0.42997 0.83498 0.82657 0.0
C2332 C 0.41876 0.85165 0.83348 0.0
C2333 C 0.429 0.86937 0.83924 0.0
C2334 C 0.44998 0.87016 0.83867 0.0
H2335 H 0.49537 0.81891 0.86889 0.0
H2336 H 0.47127 0.83062 0.86449 0.0
H2337 H 0.48043 0.81125 0.84804 0.0
H2338 H 0.45921 0.82285 0.82045 0.0
H2339 H 0.42258 0.82118 0.82177 0.0
H2340 H 0.90882 0.13582 0.3702 0.0
H2341 H 0.94522 0.13955 0.36795 0.0
H2342 H 0.9402 0.15241 0.30547 0.0
H2343 H 0.90377 0.14828 0.30742 0.0
H2344 H 0.96851 0.12402 0.31313 0.0
H2345 H 0.97943 0.19007 0.36267 0.0
H2346 H 0.96567 0.16995 0.37435 0.0
H2347 H 0.95505 0.18283 0.35329 0.0
C2348 C 0.91539 0.13963 0.35599 0.0
C2349 C 0.90333 0.14171 0.33898 0.0
C2350 C 0.93621 0.1419 0.35478 0.0
C2351 C 0.94537 0.14657 0.33661 0.0
C2352 C 0.9334 0.1489 0.31966 0.0
H2353 H 0.07279 0.1762 0.32666 0.0
H2354 H 0.03612 0.17734 0.32522 0.0
C2355 C 0.91257 0.14652 0.32082 0.0
C2356 C 0.96752 0.14773 0.33508 0.0
H2357 H 0.00887 0.17072 0.35485 0.0
C2358 C 0.97734 0.13437 0.3221 0.0
C2359 C 0.97897 0.16145 0.34658 0.0
C2360 C 0.96923 0.17703 0.35985 0.0
C2361 C -0.00164 0.13389 0.32079 0.0
C2362 C 0.00983 0.1468 0.33312 0.0
C2363 C 2e-05 0.16065 0.3456 0.0
C2364 C 0.03204 0.14592 0.33357 0.0
C2365 C 0.00805 0.11962 0.30614 0.0
C2366 C 0.04187 0.12791 0.33893 0.0
C2367 C 0.06282 0.12715 0.33968 0.0
C2368 C 0.07436 0.14448 0.33532 0.0
C2369 C 0.06441 0.16256 0.33012 0.0
C2370 C 0.04345 0.16326 0.32928 0.0
H2371 H -0.00246 0.11549 0.29399 0.0
H2372 H 0.02177 0.12643 0.29954 0.0
H2373 H 0.01241 0.10544 0.31388 0.0
H2374 H 0.03332 0.11448 0.34275 0.0
H2375 H 0.06994 0.11301 0.34388 0.0
H2376 H 0.09199 0.64044 0.18396 0.0
H2377 H 0.0555 0.64392 0.18649 0.0
H2378 H 0.04981 0.63245 0.12381 0.0
H2379 H 0.08622 0.62941 0.121 0.0
H2380 H 0.02715 0.66443 0.13566 0.0
H2381 H 0.01437 0.59849 0.18526 0.0
H2382 H 0.03187 0.61674 0.19487 0.0
H2383 H 0.03797 0.60279 0.17277 0.0
C2384 C 0.08299 0.63858 0.17071 0.0
C2385 C 0.09207 0.63454 0.15229 0.0
C2386 C 0.06212 0.64047 0.17222 0.0
C2387 C 0.04994 0.63809 0.1554 0.0
C2388 C 0.05895 0.63425 0.13699 0.0
H2389 H 0.92229 0.61615 0.14915 0.0
H2390 H 0.95893 0.61417 0.14916 0.0
C2391 C 0.07978 0.6325 0.13543 0.0
C2392 C 0.02781 0.63997 0.1568 0.0
H2393 H 0.98625 0.61959 0.17879 0.0
C2394 C 0.01819 0.65463 0.14509 0.0
C2395 C 0.01617 0.62699 0.16893 0.0
C2396 C 0.02557 0.61023 0.18104 0.0
C2397 C 0.99721 0.6567 0.14516 0.0
C2398 C 0.98561 0.64406 0.15767 0.0
C2399 C 0.99522 0.62938 0.16937 0.0
C2400 C 0.9634 0.64532 0.15827 0.0
C2401 C 0.98767 0.67198 0.13141 0.0
C2402 C 0.95376 0.6634 0.16372 0.0
C2403 C 0.9328 0.66466 0.16357 0.0
C2404 C 0.92108 0.64775 0.15821 0.0
C2405 C 0.93082 0.62948 0.15331 0.0
C2406 C 0.95177 0.6283 0.15333 0.0
H2407 H -0.00198 0.67646 0.11925 0.0
H2408 H 0.97364 0.66589 0.12477 0.0
H2409 H 0.98382 0.68585 0.13992 0.0
H2410 H 0.96246 0.67657 0.16806 0.0
H2411 H 0.92581 0.6789 0.16765 0.0
H2412 H 0.41132 0.36533 0.63186 0.0
H2413 H 0.44742 0.36117 0.63652 0.0
H2414 H 0.43833 0.35195 0.69917 0.0
H2415 H 0.40215 0.35654 0.69478 0.0
H2416 H 0.46875 0.37851 0.69161 0.0
H2417 H 0.4782 0.30915 0.64631 0.0
H2418 H 0.46614 0.3292 0.63284 0.0
H2419 H 0.45386 0.31824 0.65407 0.0
C2420 C 0.41692 0.3623 0.64664 0.0
C2421 C 0.40378 0.36123 0.66294 0.0
C2422 C 0.43758 0.3598 0.64924 0.0
C2423 C 0.44549 0.3559 0.66813 0.0
C2424 C 0.43248 0.35484 0.68445 0.0
H2425 H 0.57042 0.31904 0.68159 0.0
H2426 H 0.53385 0.3207 0.68395 0.0
C2427 C 0.41181 0.35746 0.68189 0.0
C2428 C 0.46744 0.35368 0.67088 0.0
H2429 H 0.50823 0.32746 0.65419 0.0
C2430 C 0.47739 0.36721 0.6836 0.0
C2431 C 0.47861 0.33871 0.66069 0.0
C2432 C 0.46863 0.32286 0.64788 0.0
C2433 C 0.49834 0.36665 0.68584 0.0
C2434 C 0.50962 0.35248 0.67471 0.0
C2435 C 0.49958 0.33848 0.66255 0.0
C2436 C 0.53186 0.35215 0.67498 0.0
C2437 C 0.50816 0.38117 0.70017 0.0
C2438 C 0.54288 0.36934 0.66926 0.0
C2439 C 0.56383 0.36851 0.66803 0.0
C2440 C 0.57409 0.35036 0.67218 0.0
C2441 C 0.563 0.33325 0.67818 0.0
C2442 C 0.54209 0.33415 0.67957 0.0
H2443 H 0.49745 0.3862 0.71182 0.0
H2444 H 0.52142 0.37418 0.70745 0.0
H2445 H 0.51324 0.39485 0.69199 0.0
H2446 H 0.53527 0.38324 0.66518 0.0
H2447 H 0.57189 0.38192 0.66324 0.0
H2448 H 0.88816 0.60082 0.8716 0.0
H2449 H 0.88397 0.56416 0.86828 0.0
H2450 H 0.82132 0.57258 0.85405 0.0
H2451 H 0.82518 0.60919 0.85782 0.0
H2452 H 0.82662 0.54235 0.8804 0.0
H2453 H 0.87892 0.53251 0.81719 0.0
H2454 H 0.89049 0.5445 0.83816 0.0
H2455 H 0.87035 0.55712 0.8253 0.0
C2456 C 0.87348 0.5949 0.86775 0.0
C2457 C 0.85702 0.60798 0.86492 0.0
C2458 C 0.87116 0.57394 0.86572 0.0
C2459 C 0.85243 0.56569 0.86054 0.0
C2460 C 0.83593 0.57866 0.85796 0.0
H2461 H 0.83502 0.44144 0.82039 0.0
H2462 H 0.83648 0.4784 0.82286 0.0
C2463 C 0.83818 0.59959 0.86013 0.0
C2464 C 0.84989 0.54351 0.85822 0.0
H2465 H 0.86777 0.5023 0.83321 0.0
C2466 C 0.83554 0.5336 0.87001 0.0
C2467 C 0.86128 0.53218 0.8444 0.0
C2468 C 0.87598 0.54214 0.8304 0.0
C2469 C 0.83257 0.51258 0.86867 0.0
C2470 C 0.84465 0.50113 0.85553 0.0
C2471 C 0.85868 0.51109 0.84343 0.0
C2472 C 0.84315 0.47876 0.85425 0.0
C2473 C 0.81634 0.50292 0.88112 0.0
C2474 C 0.84656 0.46672 0.87105 0.0
C2475 C 0.84558 0.44561 0.86975 0.0
C2476 C 0.84149 0.43611 0.85152 0.0
C2477 C 0.83823 0.44824 0.83466 0.0
C2478 C 0.83905 0.46937 0.83603 0.0
H2479 H 0.8047 0.51414 0.88553 0.0
H2480 H 0.80889 0.49029 0.87307 0.0
H2481 H 0.82313 0.49673 0.89486 0.0
H2482 H 0.85025 0.47364 0.88515 0.0
H2483 H 0.84836 0.43677 0.883 0.0
H2484 H 0.32535 0.88905 0.13339 0.0
H2485 H 0.32429 0.92594 0.13592 0.0
H2486 H 0.38778 0.92895 0.12333 0.0
H2487 H 0.38915 0.89197 0.12121 0.0
H2488 H 0.37762 0.95233 0.1546 0.0
H2489 H 0.32587 0.96774 0.0921 0.0
H2490 H 0.31558 0.95012 0.10964 0.0
H2491 H 0.33767 0.94337 0.09573 0.0
C2492 C 0.33909 0.89752 0.131 0.0
C2493 C 0.35733 0.8875 0.12702 0.0
C2494 C 0.33842 0.91864 0.13233 0.0
C2495 C 0.35588 0.9302 0.12944 0.0
C2496 C 0.3741 0.9203 0.12548 0.0
H2497 H 0.35638 0.06178 0.11705 0.0
H2498 H 0.35924 0.0253 0.11135 0.0
C2499 C 0.37484 0.89915 0.12427 0.0
C2500 C 0.35529 0.95257 0.13149 0.0
H2501 H 0.33154 0.99511 0.11467 0.0
C2502 C 0.36766 0.96171 0.14577 0.0
C2503 C 0.3425 0.96481 0.11974 0.0
C2504 C 0.32981 0.95604 0.1033 0.0
C2505 C 0.36722 0.98272 0.14899 0.0
C2506 C 0.35368 0.99482 0.13796 0.0
C2507 C 0.34171 0.98576 0.1233 0.0
C2508 C 0.35169 0.01691 0.14144 0.0
C2509 C 0.38144 0.99177 0.16403 0.0
C2510 C 0.34611 0.02426 0.16016 0.0
C2511 C 0.34459 0.0451 0.16353 0.0
C2512 C 0.34836 0.05901 0.14815 0.0
C2513 C 0.35341 0.05154 0.12925 0.0
C2514 C 0.35506 0.03068 0.12595 0.0
H2515 H 0.39456 0.98172 0.16675 0.0
H2516 H 0.38702 0.00683 0.15912 0.0
H2517 H 0.37341 0.99376 0.17831 0.0
H2518 H 0.34292 0.01387 0.17219 0.0
H2519 H 0.34044 0.05028 0.1782 0.0
H2520 H 0.15316 0.93566 0.62024 0.0
H2521 H 0.1543 0.97249 0.61813 0.0
H2522 H 0.16297 0.97631 0.68137 0.0
H2523 H 0.16133 0.93929 0.68376 0.0
H2524 H 0.13443 0.00201 0.66897 0.0
H2525 H 0.20134 0.01069 0.62117 0.0
H2526 H 0.18314 0.9941 0.61017 0.0
H2527 H 0.19509 0.98701 0.63311 0.0
C2528 C 0.1555 0.94425 0.63373 0.0
C2529 C 0.15717 0.93447 0.65219 0.0
C2530 C 0.15631 0.96535 0.63245 0.0
C2531 C 0.15913 0.97713 0.64952 0.0
C2532 C 0.16093 0.96747 0.66798 0.0
H2533 H 0.17736 0.10817 0.63976 0.0
H2534 H 0.18208 0.07206 0.64647 0.0
C2535 C 0.15997 0.94632 0.66932 0.0
C2536 C 0.15886 -0.00045 0.64814 0.0
H2537 H 0.17909 0.03945 0.62281 0.0
C2538 C 0.14437 0.01023 0.65907 0.0
C2539 C 0.17206 0.01032 0.63549 0.0
C2540 C 0.18892 -5e-05 0.62449 0.0
C2541 C 0.14214 0.03128 0.65705 0.0
C2542 C 0.15438 0.04182 0.64333 0.0
C2543 C 0.16947 0.03129 0.63306 0.0
C2544 C 0.15152 0.06368 0.63913 0.0
C2545 C 0.12672 0.042 0.66969 0.0
C2546 C 0.13289 0.07088 0.63237 0.0
C2547 C 0.13008 0.09151 0.62865 0.0
C2548 C 0.14597 0.10533 0.6313 0.0
C2549 C 0.1648 0.09797 0.63753 0.0
C2550 C 0.16753 0.07734 0.64142 0.0
H2551 H 0.12342 0.03332 0.68343 0.0
H2552 H 0.13186 0.05744 0.67388 0.0
H2553 H 0.11249 0.04342 0.66123 0.0
H2554 H 0.12049 0.06052 0.62995 0.0
H2555 H 0.11544 0.09661 0.62369 0.0
H2556 H 0.6763 0.38808 0.36677 0.0
H2557 H 0.68162 0.42459 0.36331 0.0
H2558 H 0.61843 0.43509 0.37326 0.0
H2559 H 0.61283 0.39865 0.37626 0.0
H2560 H 0.63232 0.4561 0.34187 0.0
H2561 H 0.6829 0.46746 0.40632 0.0
H2562 H 0.69165 0.44867 0.3891 0.0
H2563 H 0.66874 0.44441 0.40264 0.0
C2564 C 0.66353 0.39815 0.36834 0.0
C2565 C 0.64413 0.39041 0.37185 0.0
C2566 C 0.66664 0.41903 0.36648 0.0
C2567 C 0.65048 0.43256 0.36837 0.0
C2568 C 0.63113 0.4249 0.37184 0.0
H2569 H 0.6512 0.56242 0.38458 0.0
H2570 H 0.65041 0.52559 0.38855 0.0
C2571 C 0.62796 0.40404 0.37354 0.0
C2572 C 0.65348 0.45468 0.36597 0.0
H2573 H 0.67868 0.49556 0.38466 0.0
C2574 C 0.64244 0.46474 0.35123 0.0
C2575 C 0.66654 0.46593 0.37836 0.0
C2576 C 0.678 0.45613 0.39512 0.0
C2577 C 0.64407 0.48575 0.34852 0.0
C2578 C 0.65754 0.49692 0.36054 0.0
C2579 C 0.66856 0.4869 0.37532 0.0
C2580 C 0.65972 0.51917 0.35847 0.0
C2581 C 0.6309 0.49584 0.33318 0.0
C2582 C 0.66582 0.52774 0.34042 0.0
C2583 C 0.6661 0.54877 0.33802 0.0
C2584 C 0.66057 0.56163 0.35375 0.0
C2585 C 0.65548 0.55298 0.37214 0.0
C2586 C 0.65503 0.53193 0.37445 0.0
H2587 H 0.61787 0.48616 0.32907 0.0
H2588 H 0.62515 0.51064 0.33863 0.0
H2589 H 0.63984 0.49863 0.31957 0.0
H2590 H 0.67 0.51815 0.32806 0.0
H2591 H 0.67038 0.55493 0.32375 0.0
loop_
_geom_bond_atom_site_label_1
_geom_bond_atom_site_label_2
_geom_bond_distance
_geom_bond_site_symmetry_2
_ccdc_geom_bond_type
Mn0 O5 2.095 . S
Mn0 O15 2.162 . S
Mn0 O16 2.297 . S
Mn0 O24 2.385 . S
Mn0 O25 2.209 . S
Mn0 O26 2.094 . S
Mn1 O6 2.121 . S
Mn1 N8 2.257 . S
Mn1 N17 2.282 . S
Mn1 O25 2.215 . S
Mn1 O27 2.117 . S
C2 O24 1.234 . S
C2 O25 1.283 . S
C3 O15 1.281 . S
C3 O16 1.236 . S
C4 O26 1.240 . S
C4 O27 1.264 . S
O5 Mn0 2.095 . S
O5 C14 1.250 . S
O6 Mn1 2.121 . S
O6 C14 1.258 . S
C7 N8 1.326 . S
C7 C11 1.460 . S
C7 H13 0.929 . S
N8 Mn1 2.257 . S
N8 C7 1.326 . S
N8 C12 1.362 . S
C9 C10 1.258 . S
C9 C12 1.431 . S
C9 C29 1.449 . S
C10 C9 1.258 . S
C10 C11 1.477 . S
C10 H30 0.931 . S
C11 C7 1.460 . S
C11 C10 1.477 . S
C11 H31 0.930 . S
C12 N8 1.362 . S
C12 C9 1.431 . S
C12 C22 1.476 . S
H13 C7 0.929 . S
C14 O5 1.250 . S
C14 O6 1.258 . S
O15 Mn0 2.162 . S
O15 C3 1.281 . S
O16 Mn0 2.297 . S
O16 C3 1.236 . S
N17 Mn1 2.282 . S
N17 C18 1.328 . S
N17 C22 1.318 . S
C18 N17 1.328 . S
C18 C19 1.457 . S
C18 H23 0.929 . S
C19 C18 1.457 . S
C19 C20 1.291 . S
C19 H32 0.931 . S
C20 C19 1.291 . S
C20 C21 1.373 . S
C20 H33 0.929 . S
C21 C20 1.373 . S
C21 C22 1.396 . S
C21 C28 1.403 . S
C22 C12 1.476 . S
C22 N17 1.318 . S
C22 C21 1.396 . S
H23 C18 0.929 . S
O24 Mn0 2.385 . S
O24 C2 1.234 . S
O25 Mn0 2.209 . S
O25 Mn1 2.215 . S
O25 C2 1.283 . S
O26 Mn0 2.094 . S
O26 C4 1.240 . S
O27 Mn1 2.117 . S
O27 C4 1.264 . S
C28 C21 1.403 . S
C28 C29 1.399 . S
C28 H34 0.929 . S
C29 C9 1.449 . S
C29 C28 1.399 . S
C29 H35 0.930 . S
H30 C10 0.931 . S
H31 C11 0.930 . S
H32 C19 0.931 . S
H33 C20 0.929 . S
H34 C28 0.929 . S
H35 C29 0.930 . S
Mn36 O41 2.095 . S
Mn36 O51 2.162 . S
Mn36 O52 2.297 . S
Mn36 O60 2.385 . S
Mn36 O61 2.209 . S
Mn36 O62 2.094 . S
Mn37 O42 2.121 . S
Mn37 N44 2.257 . S
Mn37 N53 2.282 . S
Mn37 O61 2.215 . S
Mn37 O63 2.117 . S
C38 O60 1.234 . S
C38 O61 1.283 . S
C39 O51 1.281 . S
C39 O52 1.236 . S
C40 O62 1.240 . S
C40 O63 1.264 . S
O41 Mn36 2.095 . S
O41 C50 1.250 . S
O42 Mn37 2.121 . S
O42 C50 1.258 . S
C43 N44 1.326 . S
C43 C47 1.460 . S
C43 H49 0.929 . S
N44 Mn37 2.257 . S
N44 C43 1.326 . S
N44 C48 1.362 . S
C45 C46 1.258 . S
C45 C48 1.431 . S
C45 C65 1.449 . S
C46 C45 1.258 . S
C46 C47 1.477 . S
C46 H66 0.931 . S
C47 C43 1.460 . S
C47 C46 1.477 . S
C47 H67 0.930 . S
C48 N44 1.362 . S
C48 C45 1.431 . S
C48 C58 1.476 . S
H49 C43 0.929 . S
C50 O41 1.250 . S
C50 O42 1.258 . S
O51 Mn36 2.162 . S
O51 C39 1.281 . S
O52 Mn36 2.297 . S
O52 C39 1.236 . S
N53 Mn37 2.282 . S
N53 C54 1.328 . S
N53 C58 1.318 . S
C54 N53 1.328 . S
C54 C55 1.457 . S
C54 H59 0.929 . S
C55 C54 1.457 . S
C55 C56 1.291 . S
C55 H68 0.931 . S
C56 C55 1.291 . S
C56 C57 1.373 . S
C56 H69 0.929 . S
C57 C56 1.373 . S
C57 C58 1.396 . S
C57 C64 1.403 . S
C58 C48 1.476 . S
C58 N53 1.318 . S
C58 C57 1.396 . S
H59 C54 0.929 . S
O60 Mn36 2.385 . S
O60 C38 1.234 . S
O61 Mn36 2.209 . S
O61 Mn37 2.215 . S
O61 C38 1.283 . S
O62 Mn36 2.094 . S
O62 C40 1.240 . S
O63 Mn37 2.117 . S
O63 C40 1.264 . S
C64 C57 1.403 . S
C64 C65 1.399 . S
C64 H70 0.929 . S
C65 C45 1.449 . S
C65 C64 1.399 . S
C65 H71 0.930 . S
H66 C46 0.931 . S
H67 C47 0.930 . S
H68 C55 0.931 . S
H69 C56 0.929 . S
H70 C64 0.929 . S
H71 C65 0.930 . S
Mn72 O77 2.095 . S
Mn72 O87 2.162 . S
Mn72 O88 2.297 . S
Mn72 O96 2.385 . S
Mn72 O97 2.209 . S
Mn72 O98 2.094 . S
Mn73 O78 2.121 . S
Mn73 N80 2.257 . S
Mn73 N89 2.282 . S
Mn73 O97 2.215 . S
Mn73 O99 2.117 . S
C74 O96 1.234 . S
C74 O97 1.283 . S
C75 O87 1.281 . S
C75 O88 1.236 . S
C76 O98 1.240 . S
C76 O99 1.264 . S
O77 Mn72 2.095 . S
O77 C86 1.250 . S
O78 Mn73 2.121 . S
O78 C86 1.258 . S
C79 N80 1.326 . S
C79 C83 1.460 . S
C79 H85 0.929 . S
N80 Mn73 2.257 . S
N80 C79 1.326 . S
N80 C84 1.362 . S
C81 C82 1.258 . S
C81 C84 1.431 . S
C81 C101 1.449 . S
C82 C81 1.258 . S
C82 C83 1.477 . S
C82 H102 0.931 . S
C83 C79 1.460 . S
C83 C82 1.477 . S
C83 H103 0.930 . S
C84 N80 1.362 . S
C84 C81 1.431 . S
C84 C94 1.476 . S
H85 C79 0.929 . S
C86 O77 1.250 . S
C86 O78 1.258 . S
O87 Mn72 2.162 . S
O87 C75 1.281 . S
O88 Mn72 2.297 . S
O88 C75 1.236 . S
N89 Mn73 2.282 . S
N89 C90 1.328 . S
N89 C94 1.318 . S
C90 N89 1.328 . S
C90 C91 1.457 . S
C90 H95 0.929 . S
C91 C90 1.457 . S
C91 C92 1.291 . S
C91 H104 0.931 . S
C92 C91 1.291 . S
C92 C93 1.373 . S
C92 H105 0.929 . S
C93 C92 1.373 . S
C93 C94 1.396 . S
C93 C100 1.403 . S
C94 C84 1.476 . S
C94 N89 1.318 . S
C94 C93 1.396 . S
H95 C90 0.929 . S
O96 Mn72 2.385 . S
O96 C74 1.234 . S
O97 Mn72 2.209 . S
O97 Mn73 2.215 . S
O97 C74 1.283 . S
O98 Mn72 2.094 . S
O98 C76 1.240 . S
O99 Mn73 2.117 . S
O99 C76 1.264 . S
C100 C93 1.403 . S
C100 C101 1.399 . S
C100 H106 0.929 . S
C101 C81 1.449 . S
C101 C100 1.399 . S
C101 H107 0.930 . S
H102 C82 0.931 . S
H103 C83 0.930 . S
H104 C91 0.931 . S
H105 C92 0.929 . S
H106 C100 0.929 . S
H107 C101 0.930 . S
Mn108 O113 2.095 . S
Mn108 O123 2.162 . S
Mn108 O124 2.297 . S
Mn108 O132 2.385 . S
Mn108 O133 2.209 . S
Mn108 O134 2.094 . S
Mn109 O114 2.121 . S
Mn109 N116 2.257 . S
Mn109 N125 2.282 . S
Mn109 O133 2.215 . S
Mn109 O135 2.117 . S
C110 O132 1.234 . S
C110 O133 1.283 . S
C111 O123 1.281 . S
C111 O124 1.236 . S
C112 O134 1.240 . S
C112 O135 1.264 . S
O113 Mn108 2.095 . S
O113 C122 1.250 . S
O114 Mn109 2.121 . S
O114 C122 1.258 . S
C115 N116 1.326 . S
C115 C119 1.460 . S
C115 H121 0.929 . S
N116 Mn109 2.257 . S
N116 C115 1.326 . S
N116 C120 1.362 . S
C117 C118 1.258 . S
C117 C120 1.431 . S
C117 C137 1.449 . S
C118 C117 1.258 . S
C118 C119 1.477 . S
C118 H138 0.931 . S
C119 C115 1.460 . S
C119 C118 1.477 . S
C119 H139 0.930 . S
C120 N116 1.362 . S
C120 C117 1.431 . S
C120 C130 1.476 . S
H121 C115 0.929 . S
C122 O113 1.250 . S
C122 O114 1.258 . S
O123 Mn108 2.162 . S
O123 C111 1.281 . S
O124 Mn108 2.297 . S
O124 C111 1.236 . S
N125 Mn109 2.282 . S
N125 C126 1.328 . S
N125 C130 1.318 . S
C126 N125 1.328 . S
C126 C127 1.457 . S
C126 H131 0.929 . S
C127 C126 1.457 . S
C127 C128 1.291 . S
C127 H140 0.931 . S
C128 C127 1.291 . S
C128 C129 1.373 . S
C128 H141 0.929 . S
C129 C128 1.373 . S
C129 C130 1.396 . S
C129 C136 1.403 . S
C130 C120 1.476 . S
C130 N125 1.318 . S
C130 C129 1.396 . S
H131 C126 0.929 . S
O132 Mn108 2.385 . S
O132 C110 1.234 . S
O133 Mn108 2.209 . S
O133 Mn109 2.215 . S
O133 C110 1.283 . S
O134 Mn108 2.094 . S
O134 C112 1.240 . S
O135 Mn109 2.117 . S
O135 C112 1.264 . S
C136 C129 1.403 . S
C136 C137 1.399 . S
C136 H142 0.929 . S
C137 C117 1.449 . S
C137 C136 1.399 . S
C137 H143 0.930 . S
H138 C118 0.931 . S
H139 C119 0.930 . S
H140 C127 0.931 . S
H141 C128 0.929 . S
H142 C136 0.929 . S
H143 C137 0.930 . S
Mn144 O149 2.095 . S
Mn144 O159 2.162 . S
Mn144 O160 2.297 . S
Mn144 O168 2.385 . S
Mn144 O169 2.209 . S
Mn144 O170 2.094 . S
Mn145 O150 2.121 . S
Mn145 N152 2.257 . S
Mn145 N161 2.282 . S
Mn145 O169 2.215 . S
Mn145 O171 2.117 . S
C146 O168 1.234 . S
C146 O169 1.283 . S
C147 O159 1.281 . S
C147 O160 1.236 . S
C148 O170 1.240 . S
C148 O171 1.264 . S
O149 Mn144 2.095 . S
O149 C158 1.250 . S
O150 Mn145 2.121 . S
O150 C158 1.258 . S
C151 N152 1.326 . S
C151 C155 1.460 . S
C151 H157 0.929 . S
N152 Mn145 2.257 . S
N152 C151 1.326 . S
N152 C156 1.362 . S
C153 C154 1.258 . S
C153 C156 1.431 . S
C153 C173 1.449 . S
C154 C153 1.258 . S
C154 C155 1.477 . S
C154 H174 0.931 . S
C155 C151 1.460 . S
C155 C154 1.477 . S
C155 H175 0.930 . S
C156 N152 1.362 . S
C156 C153 1.431 . S
C156 C166 1.476 . S
H157 C151 0.929 . S
C158 O149 1.250 . S
C158 O150 1.258 . S
O159 Mn144 2.162 . S
O159 C147 1.281 . S
O160 Mn144 2.297 . S
O160 C147 1.236 . S
N161 Mn145 2.282 . S
N161 C162 1.328 . S
N161 C166 1.318 . S
C162 N161 1.328 . S
C162 C163 1.457 . S
C162 H167 0.929 . S
C163 C162 1.457 . S
C163 C164 1.291 . S
C163 H176 0.931 . S
C164 C163 1.291 . S
C164 C165 1.373 . S
C164 H177 0.929 . S
C165 C164 1.373 . S
C165 C166 1.396 . S
C165 C172 1.403 . S
C166 C156 1.476 . S
C166 N161 1.318 . S
C166 C165 1.396 . S
H167 C162 0.929 . S
O168 Mn144 2.385 . S
O168 C146 1.234 . S
O169 Mn144 2.209 . S
O169 Mn145 2.215 . S
O169 C146 1.283 . S
O170 Mn144 2.094 . S
O170 C148 1.240 . S
O171 Mn145 2.117 . S
O171 C148 1.264 . S
C172 C165 1.403 . S
C172 C173 1.399 . S
C172 H178 0.929 . S
C173 C153 1.449 . S
C173 C172 1.399 . S
C173 H179 0.930 . S
H174 C154 0.931 . S
H175 C155 0.930 . S
H176 C163 0.931 . S
H177 C164 0.929 . S
H178 C172 0.929 . S
H179 C173 0.930 . S
Mn180 O185 2.095 . S
Mn180 O195 2.162 . S
Mn180 O196 2.297 . S
Mn180 O204 2.385 . S
Mn180 O205 2.209 . S
Mn180 O206 2.094 . S
Mn181 O186 2.121 . S
Mn181 N188 2.257 . S
Mn181 N197 2.282 . S
Mn181 O205 2.215 . S
Mn181 O207 2.117 . S
C182 O204 1.234 . S
C182 O205 1.283 . S
C183 O195 1.281 . S
C183 O196 1.236 . S
C184 O206 1.240 . S
C184 O207 1.264 . S
O185 Mn180 2.095 . S
O185 C194 1.250 . S
O186 Mn181 2.121 . S
O186 C194 1.258 . S
C187 N188 1.326 . S
C187 C191 1.460 . S
C187 H193 0.929 . S
N188 Mn181 2.257 . S
N188 C187 1.326 . S
N188 C192 1.362 . S
C189 C190 1.258 . S
C189 C192 1.431 . S
C189 C209 1.449 . S
C190 C189 1.258 . S
C190 C191 1.477 . S
C190 H210 0.931 . S
C191 C187 1.460 . S
C191 C190 1.477 . S
C191 H211 0.930 . S
C192 N188 1.362 . S
C192 C189 1.431 . S
C192 C202 1.476 . S
H193 C187 0.929 . S
C194 O185 1.250 . S
C194 O186 1.258 . S
O195 Mn180 2.162 . S
O195 C183 1.281 . S
O196 Mn180 2.297 . S
O196 C183 1.236 . S
N197 Mn181 2.282 . S
N197 C198 1.328 . S
N197 C202 1.318 . S
C198 N197 1.328 . S
C198 C199 1.457 . S
C198 H203 0.929 . S
C199 C198 1.457 . S
C199 C200 1.291 . S
C199 H212 0.931 . S
C200 C199 1.291 . S
C200 C201 1.373 . S
C200 H213 0.929 . S
C201 C200 1.373 . S
C201 C202 1.396 . S
C201 C208 1.403 . S
C202 C192 1.476 . S
C202 N197 1.318 . S
C202 C201 1.396 . S
H203 C198 0.929 . S
O204 Mn180 2.385 . S
O204 C182 1.234 . S
O205 Mn180 2.209 . S
O205 Mn181 2.215 . S
O205 C182 1.283 . S
O206 Mn180 2.094 . S
O206 C184 1.240 . S
O207 Mn181 2.117 . S
O207 C184 1.264 . S
C208 C201 1.403 . S
C208 C209 1.399 . S
C208 H214 0.929 . S
C209 C189 1.449 . S
C209 C208 1.399 . S
C209 H215 0.930 . S
H210 C190 0.931 . S
H211 C191 0.930 . S
H212 C199 0.931 . S
H213 C200 0.929 . S
H214 C208 0.929 . S
H215 C209 0.930 . S
Mn216 O221 2.095 . S
Mn216 O231 2.162 . S
Mn216 O232 2.297 . S
Mn216 O240 2.385 . S
Mn216 O241 2.209 . S
Mn216 O242 2.094 . S
Mn217 O222 2.121 . S
Mn217 N224 2.257 . S
Mn217 N233 2.282 . S
Mn217 O241 2.215 . S
Mn217 O243 2.117 . S
C218 O240 1.234 . S
C218 O241 1.283 . S
C219 O231 1.281 . S
C219 O232 1.236 . S
C220 O242 1.240 . S
C220 O243 1.264 . S
O221 Mn216 2.095 . S
O221 C230 1.250 . S
O222 Mn217 2.121 . S
O222 C230 1.258 . S
C223 N224 1.326 . S
C223 C227 1.460 . S
C223 H229 0.929 . S
N224 Mn217 2.257 . S
N224 C223 1.326 . S
N224 C228 1.362 . S
C225 C226 1.258 . S
C225 C228 1.431 . S
C225 C245 1.449 . S
C226 C225 1.258 . S
C226 C227 1.477 . S
C226 H246 0.931 . S
C227 C223 1.460 . S
C227 C226 1.477 . S
C227 H247 0.930 . S
C228 N224 1.362 . S
C228 C225 1.431 . S
C228 C238 1.476 . S
H229 C223 0.929 . S
C230 O221 1.250 . S
C230 O222 1.258 . S
O231 Mn216 2.162 . S
O231 C219 1.281 . S
O232 Mn216 2.297 . S
O232 C219 1.236 . S
N233 Mn217 2.282 . S
N233 C234 1.328 . S
N233 C238 1.318 . S
C234 N233 1.328 . S
C234 C235 1.457 . S
C234 H239 0.929 . S
C235 C234 1.457 . S
C235 C236 1.291 . S
C235 H248 0.931 . S
C236 C235 1.291 . S
C236 C237 1.373 . S
C236 H249 0.929 . S
C237 C236 1.373 . S
C237 C238 1.396 . S
C237 C244 1.403 . S
C238 C228 1.476 . S
C238 N233 1.318 . S
C238 C237 1.396 . S
H239 C234 0.929 . S
O240 Mn216 2.385 . S
O240 C218 1.234 . S
O241 Mn216 2.209 . S
O241 Mn217 2.215 . S
O241 C218 1.283 . S
O242 Mn216 2.094 . S
O242 C220 1.240 . S
O243 Mn217 2.117 . S
O243 C220 1.264 . S
C244 C237 1.403 . S
C244 C245 1.399 . S
C244 H250 0.929 . S
C245 C225 1.449 . S
C245 C244 1.399 . S
C245 H251 0.930 . S
H246 C226 0.931 . S
H247 C227 0.930 . S
H248 C235 0.931 . S
H249 C236 0.929 . S
H250 C244 0.929 . S
H251 C245 0.930 . S
Mn252 O257 2.095 . S
Mn252 O267 2.162 . S
Mn252 O268 2.297 . S
Mn252 O276 2.385 . S
Mn252 O277 2.209 . S
Mn252 O278 2.094 . S
Mn253 O258 2.121 . S
Mn253 N260 2.257 . S
Mn253 N269 2.282 . S
Mn253 O277 2.215 . S
Mn253 O279 2.117 . S
C254 O276 1.234 . S
C254 O277 1.283 . S
C255 O267 1.281 . S
C255 O268 1.236 . S
C256 O278 1.240 . S
C256 O279 1.264 . S
O257 Mn252 2.095 . S
O257 C266 1.250 . S
O258 Mn253 2.121 . S
O258 C266 1.258 . S
C259 N260 1.326 . S
C259 C263 1.460 . S
C259 H265 0.929 . S
N260 Mn253 2.257 . S
N260 C259 1.326 . S
N260 C264 1.362 . S
C261 C262 1.258 . S
C261 C264 1.431 . S
C261 C281 1.449 . S
C262 C261 1.258 . S
C262 C263 1.477 . S
C262 H282 0.931 . S
C263 C259 1.460 . S
C263 C262 1.477 . S
C263 H283 0.930 . S
C264 N260 1.362 . S
C264 C261 1.431 . S
C264 C274 1.476 . S
H265 C259 0.929 . S
C266 O257 1.250 . S
C266 O258 1.258 . S
O267 Mn252 2.162 . S
O267 C255 1.281 . S
O268 Mn252 2.297 . S
O268 C255 1.236 . S
N269 Mn253 2.282 . S
N269 C270 1.328 . S
N269 C274 1.318 . S
C270 N269 1.328 . S
C270 C271 1.457 . S
C270 H275 0.929 . S
C271 C270 1.457 . S
C271 C272 1.291 . S
C271 H284 0.931 . S
C272 C271 1.291 . S
C272 C273 1.373 . S
C272 H285 0.929 . S
C273 C272 1.373 . S
C273 C274 1.396 . S
C273 C280 1.403 . S
C274 C264 1.476 . S
C274 N269 1.318 . S
C274 C273 1.396 . S
H275 C270 0.929 . S
O276 Mn252 2.385 . S
O276 C254 1.234 . S
O277 Mn252 2.209 . S
O277 Mn253 2.215 . S
O277 C254 1.283 . S
O278 Mn252 2.094 . S
O278 C256 1.240 . S
O279 Mn253 2.117 . S
O279 C256 1.264 . S
C280 C273 1.403 . S
C280 C281 1.399 . S
C280 H286 0.929 . S
C281 C261 1.449 . S
C281 C280 1.399 . S
C281 H287 0.930 . S
H282 C262 0.931 . S
H283 C263 0.930 . S
H284 C271 0.931 . S
H285 C272 0.929 . S
H286 C280 0.929 . S
H287 C281 0.930 . S
Mn288 O293 2.095 . S
Mn288 O303 2.162 . S
Mn288 O304 2.297 . S
Mn288 O312 2.385 . S
Mn288 O313 2.209 . S
Mn288 O314 2.094 . S
Mn289 O294 2.121 . S
Mn289 N296 2.257 . S
Mn289 N305 2.282 . S
Mn289 O313 2.215 . S
Mn289 O315 2.117 . S
C290 O312 1.234 . S
C290 O313 1.283 . S
C291 O303 1.281 . S
C291 O304 1.236 . S
C292 O314 1.240 . S
C292 O315 1.264 . S
O293 Mn288 2.095 . S
O293 C302 1.250 . S
O294 Mn289 2.121 . S
O294 C302 1.258 . S
C295 N296 1.326 . S
C295 C299 1.460 . S
C295 H301 0.929 . S
N296 Mn289 2.257 . S
N296 C295 1.326 . S
N296 C300 1.362 . S
C297 C298 1.258 . S
C297 C300 1.431 . S
C297 C317 1.449 . S
C298 C297 1.258 . S
C298 C299 1.477 . S
C298 H318 0.931 . S
C299 C295 1.460 . S
C299 C298 1.477 . S
C299 H319 0.930 . S
C300 N296 1.362 . S
C300 C297 1.431 . S
C300 C310 1.476 . S
H301 C295 0.929 . S
C302 O293 1.250 . S
C302 O294 1.258 . S
O303 Mn288 2.162 . S
O303 C291 1.281 . S
O304 Mn288 2.297 . S
O304 C291 1.236 . S
N305 Mn289 2.282 . S
N305 C306 1.328 . S
N305 C310 1.318 . S
C306 N305 1.328 . S
C306 C307 1.457 . S
C306 H311 0.929 . S
C307 C306 1.457 . S
C307 C308 1.291 . S
C307 H320 0.931 . S
C308 C307 1.291 . S
C308 C309 1.373 . S
C308 H321 0.929 . S
C309 C308 1.373 . S
C309 C310 1.396 . S
C309 C316 1.403 . S
C310 C300 1.476 . S
C310 N305 1.318 . S
C310 C309 1.396 . S
H311 C306 0.929 . S
O312 Mn288 2.385 . S
O312 C290 1.234 . S
O313 Mn288 2.209 . S
O313 Mn289 2.215 . S
O313 C290 1.283 . S
O314 Mn288 2.094 . S
O314 C292 1.240 . S
O315 Mn289 2.117 . S
O315 C292 1.264 . S
C316 C309 1.403 . S
C316 C317 1.399 . S
C316 H322 0.929 . S
C317 C297 1.449 . S
C317 C316 1.399 . S
C317 H323 0.930 . S
H318 C298 0.931 . S
H319 C299 0.930 . S
H320 C307 0.931 . S
H321 C308 0.929 . S
H322 C316 0.929 . S
H323 C317 0.930 . S
Mn324 O329 2.095 . S
Mn324 O339 2.162 . S
Mn324 O340 2.297 . S
Mn324 O348 2.385 . S
Mn324 O349 2.209 . S
Mn324 O350 2.094 . S
Mn325 O330 2.121 . S
Mn325 N332 2.257 . S
Mn325 N341 2.282 . S
Mn325 O349 2.215 . S
Mn325 O351 2.117 . S
C326 O348 1.234 . S
C326 O349 1.283 . S
C327 O339 1.281 . S
C327 O340 1.236 . S
C328 O350 1.240 . S
C328 O351 1.264 . S
O329 Mn324 2.095 . S
O329 C338 1.250 . S
O330 Mn325 2.121 . S
O330 C338 1.258 . S
C331 N332 1.326 . S
C331 C335 1.460 . S
C331 H337 0.929 . S
N332 Mn325 2.257 . S
N332 C331 1.326 . S
N332 C336 1.362 . S
C333 C334 1.258 . S
C333 C336 1.431 . S
C333 C353 1.449 . S
C334 C333 1.258 . S
C334 C335 1.477 . S
C334 H354 0.931 . S
C335 C331 1.460 . S
C335 C334 1.477 . S
C335 H355 0.930 . S
C336 N332 1.362 . S
C336 C333 1.431 . S
C336 C346 1.476 . S
H337 C331 0.929 . S
C338 O329 1.250 . S
C338 O330 1.258 . S
O339 Mn324 2.162 . S
O339 C327 1.281 . S
O340 Mn324 2.297 . S
O340 C327 1.236 . S
N341 Mn325 2.282 . S
N341 C342 1.328 . S
N341 C346 1.318 . S
C342 N341 1.328 . S
C342 C343 1.457 . S
C342 H347 0.929 . S
C343 C342 1.457 . S
C343 C344 1.291 . S
C343 H356 0.931 . S
C344 C343 1.291 . S
C344 C345 1.373 . S
C344 H357 0.929 . S
C345 C344 1.373 . S
C345 C346 1.396 . S
C345 C352 1.403 . S
C346 C336 1.476 . S
C346 N341 1.318 . S
C346 C345 1.396 . S
H347 C342 0.929 . S
O348 Mn324 2.385 . S
O348 C326 1.234 . S
O349 Mn324 2.209 . S
O349 Mn325 2.215 . S
O349 C326 1.283 . S
O350 Mn324 2.094 . S
O350 C328 1.240 . S
O351 Mn325 2.117 . S
O351 C328 1.264 . S
C352 C345 1.403 . S
C352 C353 1.399 . S
C352 H358 0.929 . S
C353 C333 1.449 . S
C353 C352 1.399 . S
C353 H359 0.930 . S
H354 C334 0.931 . S
H355 C335 0.930 . S
H356 C343 0.931 . S
H357 C344 0.929 . S
H358 C352 0.929 . S
H359 C353 0.930 . S
Mn360 O365 2.095 . S
Mn360 O375 2.162 . S
Mn360 O376 2.297 . S
Mn360 O384 2.385 . S
Mn360 O385 2.209 . S
Mn360 O386 2.094 . S
Mn361 O366 2.121 . S
Mn361 N368 2.257 . S
Mn361 N377 2.282 . S
Mn361 O385 2.215 . S
Mn361 O387 2.117 . S
C362 O384 1.234 . S
C362 O385 1.283 . S
C363 O375 1.281 . S
C363 O376 1.236 . S
C364 O386 1.240 . S
C364 O387 1.264 . S
O365 Mn360 2.095 . S
O365 C374 1.250 . S
O366 Mn361 2.121 . S
O366 C374 1.258 . S
C367 N368 1.326 . S
C367 C371 1.460 . S
C367 H373 0.929 . S
N368 Mn361 2.257 . S
N368 C367 1.326 . S
N368 C372 1.362 . S
C369 C370 1.258 . S
C369 C372 1.431 . S
C369 C389 1.449 . S
C370 C369 1.258 . S
C370 C371 1.477 . S
C370 H390 0.931 . S
C371 C367 1.460 . S
C371 C370 1.477 . S
C371 H391 0.930 . S
C372 N368 1.362 . S
C372 C369 1.431 . S
C372 C382 1.476 . S
H373 C367 0.929 . S
C374 O365 1.250 . S
C374 O366 1.258 . S
O375 Mn360 2.162 . S
O375 C363 1.281 . S
O376 Mn360 2.297 . S
O376 C363 1.236 . S
N377 Mn361 2.282 . S
N377 C378 1.328 . S
N377 C382 1.318 . S
C378 N377 1.328 . S
C378 C379 1.457 . S
C378 H383 0.929 . S
C379 C378 1.457 . S
C379 C380 1.291 . S
C379 H392 0.931 . S
C380 C379 1.291 . S
C380 C381 1.373 . S
C380 H393 0.929 . S
C381 C380 1.373 . S
C381 C382 1.396 . S
C381 C388 1.403 . S
C382 C372 1.476 . S
C382 N377 1.318 . S
C382 C381 1.396 . S
H383 C378 0.929 . S
O384 Mn360 2.385 . S
O384 C362 1.234 . S
O385 Mn360 2.209 . S
O385 Mn361 2.215 . S
O385 C362 1.283 . S
O386 Mn360 2.094 . S
O386 C364 1.240 . S
O387 Mn361 2.117 . S
O387 C364 1.264 . S
C388 C381 1.403 . S
C388 C389 1.399 . S
C388 H394 0.929 . S
C389 C369 1.449 . S
C389 C388 1.399 . S
C389 H395 0.930 . S
H390 C370 0.931 . S
H391 C371 0.930 . S
H392 C379 0.931 . S
H393 C380 0.929 . S
H394 C388 0.929 . S
H395 C389 0.930 . S
Mn396 O401 2.095 . S
Mn396 O411 2.162 . S
Mn396 O412 2.297 . S
Mn396 O420 2.385 . S
Mn396 O421 2.209 . S
Mn396 O422 2.094 . S
Mn397 O402 2.121 . S
Mn397 N404 2.257 . S
Mn397 N413 2.282 . S
Mn397 O421 2.215 . S
Mn397 O423 2.117 . S
C398 O420 1.234 . S
C398 O421 1.283 . S
C399 O411 1.281 . S
C399 O412 1.236 . S
C400 O422 1.240 . S
C400 O423 1.264 . S
O401 Mn396 2.095 . S
O401 C410 1.250 . S
O402 Mn397 2.121 . S
O402 C410 1.258 . S
C403 N404 1.326 . S
C403 C407 1.460 . S
C403 H409 0.929 . S
N404 Mn397 2.257 . S
N404 C403 1.326 . S
N404 C408 1.362 . S
C405 C406 1.258 . S
C405 C408 1.431 . S
C405 C425 1.449 . S
C406 C405 1.258 . S
C406 C407 1.477 . S
C406 H426 0.931 . S
C407 C403 1.460 . S
C407 C406 1.477 . S
C407 H427 0.930 . S
C408 N404 1.362 . S
C408 C405 1.431 . S
C408 C418 1.476 . S
H409 C403 0.929 . S
C410 O401 1.250 . S
C410 O402 1.258 . S
O411 Mn396 2.162 . S
O411 C399 1.281 . S
O412 Mn396 2.297 . S
O412 C399 1.236 . S
N413 Mn397 2.282 . S
N413 C414 1.328 . S
N413 C418 1.318 . S
C414 N413 1.328 . S
C414 C415 1.457 . S
C414 H419 0.929 . S
C415 C414 1.457 . S
C415 C416 1.291 . S
C415 H428 0.931 . S
C416 C415 1.291 . S
C416 C417 1.373 . S
C416 H429 0.929 . S
C417 C416 1.373 . S
C417 C418 1.396 . S
C417 C424 1.403 . S
C418 C408 1.476 . S
C418 N413 1.318 . S
C418 C417 1.396 . S
H419 C414 0.929 . S
O420 Mn396 2.385 . S
O420 C398 1.234 . S
O421 Mn396 2.209 . S
O421 Mn397 2.215 . S
O421 C398 1.283 . S
O422 Mn396 2.094 . S
O422 C400 1.240 . S
O423 Mn397 2.117 . S
O423 C400 1.264 . S
C424 C417 1.403 . S
C424 C425 1.399 . S
C424 H430 0.929 . S
C425 C405 1.449 . S
C425 C424 1.399 . S
C425 H431 0.930 . S
H426 C406 0.931 . S
H427 C407 0.930 . S
H428 C415 0.931 . S
H429 C416 0.929 . S
H430 C424 0.929 . S
H431 C425 0.930 . S
Mn432 O437 2.095 . S
Mn432 O447 2.162 . S
Mn432 O448 2.297 . S
Mn432 O456 2.385 . S
Mn432 O457 2.209 . S
Mn432 O458 2.094 . S
Mn433 O438 2.121 . S
Mn433 N440 2.257 . S
Mn433 N449 2.282 . S
Mn433 O457 2.215 . S
Mn433 O459 2.117 . S
C434 O456 1.234 . S
C434 O457 1.283 . S
C435 O447 1.281 . S
C435 O448 1.236 . S
C436 O458 1.240 . S
C436 O459 1.264 . S
O437 Mn432 2.095 . S
O437 C446 1.250 . S
O438 Mn433 2.121 . S
O438 C446 1.258 . S
C439 N440 1.326 . S
C439 C443 1.460 . S
C439 H445 0.929 . S
N440 Mn433 2.257 . S
N440 C439 1.326 . S
N440 C444 1.362 . S
C441 C442 1.258 . S
C441 C444 1.431 . S
C441 C461 1.449 . S
C442 C441 1.258 . S
C442 C443 1.477 . S
C442 H462 0.931 . S
C443 C439 1.460 . S
C443 C442 1.477 . S
C443 H463 0.930 . S
C444 N440 1.362 . S
C444 C441 1.431 . S
C444 C454 1.476 . S
H445 C439 0.929 . S
C446 O437 1.250 . S
C446 O438 1.258 . S
O447 Mn432 2.162 . S
O447 C435 1.281 . S
O448 Mn432 2.297 . S
O448 C435 1.236 . S
N449 Mn433 2.282 . S
N449 C450 1.328 . S
N449 C454 1.318 . S
C450 N449 1.328 . S
C450 C451 1.457 . S
C450 H455 0.929 . S
C451 C450 1.457 . S
C451 C452 1.291 . S
C451 H464 0.931 . S
C452 C451 1.291 . S
C452 C453 1.373 . S
C452 H465 0.929 . S
C453 C452 1.373 . S
C453 C454 1.396 . S
C453 C460 1.403 . S
C454 C444 1.476 . S
C454 N449 1.318 . S
C454 C453 1.396 . S
H455 C450 0.929 . S
O456 Mn432 2.385 . S
O456 C434 1.234 . S
O457 Mn432 2.209 . S
O457 Mn433 2.215 . S
O457 C434 1.283 . S
O458 Mn432 2.094 . S
O458 C436 1.240 . S
O459 Mn433 2.117 . S
O459 C436 1.264 . S
C460 C453 1.403 . S
C460 C461 1.399 . S
C460 H466 0.929 . S
C461 C441 1.449 . S
C461 C460 1.399 . S
C461 H467 0.930 . S
H462 C442 0.931 . S
H463 C443 0.930 . S
H464 C451 0.931 . S
H465 C452 0.929 . S
H466 C460 0.929 . S
H467 C461 0.930 . S
Mn468 O473 2.095 . S
Mn468 O483 2.162 . S
Mn468 O484 2.297 . S
Mn468 O492 2.385 . S
Mn468 O493 2.209 . S
Mn468 O494 2.094 . S
Mn469 O474 2.121 . S
Mn469 N476 2.257 . S
Mn469 N485 2.282 . S
Mn469 O493 2.215 . S
Mn469 O495 2.117 . S
C470 O492 1.234 . S
C470 O493 1.283 . S
C471 O483 1.281 . S
C471 O484 1.236 . S
C472 O494 1.240 . S
C472 O495 1.264 . S
O473 Mn468 2.095 . S
O473 C482 1.250 . S
O474 Mn469 2.121 . S
O474 C482 1.258 . S
C475 N476 1.326 . S
C475 C479 1.460 . S
C475 H481 0.929 . S
N476 Mn469 2.257 . S
N476 C475 1.326 . S
N476 C480 1.362 . S
C477 C478 1.258 . S
C477 C480 1.431 . S
C477 C497 1.449 . S
C478 C477 1.258 . S
C478 C479 1.477 . S
C478 H498 0.931 . S
C479 C475 1.460 . S
C479 C478 1.477 . S
C479 H499 0.930 . S
C480 N476 1.362 . S
C480 C477 1.431 . S
C480 C490 1.476 . S
H481 C475 0.929 . S
C482 O473 1.250 . S
C482 O474 1.258 . S
O483 Mn468 2.162 . S
O483 C471 1.281 . S
O484 Mn468 2.297 . S
O484 C471 1.236 . S
N485 Mn469 2.282 . S
N485 C486 1.328 . S
N485 C490 1.318 . S
C486 N485 1.328 . S
C486 C487 1.457 . S
C486 H491 0.929 . S
C487 C486 1.457 . S
C487 C488 1.291 . S
C487 H500 0.931 . S
C488 C487 1.291 . S
C488 C489 1.373 . S
C488 H501 0.929 . S
C489 C488 1.373 . S
C489 C490 1.396 . S
C489 C496 1.403 . S
C490 C480 1.476 . S
C490 N485 1.318 . S
C490 C489 1.396 . S
H491 C486 0.929 . S
O492 Mn468 2.385 . S
O492 C470 1.234 . S
O493 Mn468 2.209 . S
O493 Mn469 2.215 . S
O493 C470 1.283 . S
O494 Mn468 2.094 . S
O494 C472 1.240 . S
O495 Mn469 2.117 . S
O495 C472 1.264 . S
C496 C489 1.403 . S
C496 C497 1.399 . S
C496 H502 0.929 . S
C497 C477 1.449 . S
C497 C496 1.399 . S
C497 H503 0.930 . S
H498 C478 0.931 . S
H499 C479 0.930 . S
H500 C487 0.931 . S
H501 C488 0.929 . S
H502 C496 0.929 . S
H503 C497 0.930 . S
Mn504 O509 2.095 . S
Mn504 O519 2.162 . S
Mn504 O520 2.297 . S
Mn504 O528 2.385 . S
Mn504 O529 2.209 . S
Mn504 O530 2.094 . S
Mn505 O510 2.121 . S
Mn505 N512 2.257 . S
Mn505 N521 2.282 . S
Mn505 O529 2.215 . S
Mn505 O531 2.117 . S
C506 O528 1.234 . S
C506 O529 1.283 . S
C507 O519 1.281 . S
C507 O520 1.236 . S
C508 O530 1.240 . S
C508 O531 1.264 . S
O509 Mn504 2.095 . S
O509 C518 1.250 . S
O510 Mn505 2.121 . S
O510 C518 1.258 . S
C511 N512 1.326 . S
C511 C515 1.460 . S
C511 H517 0.929 . S
N512 Mn505 2.257 . S
N512 C511 1.326 . S
N512 C516 1.362 . S
C513 C514 1.258 . S
C513 C516 1.431 . S
C513 C533 1.449 . S
C514 C513 1.258 . S
C514 C515 1.477 . S
C514 H534 0.931 . S
C515 C511 1.460 . S
C515 C514 1.477 . S
C515 H535 0.930 . S
C516 N512 1.362 . S
C516 C513 1.431 . S
C516 C526 1.476 . S
H517 C511 0.929 . S
C518 O509 1.250 . S
C518 O510 1.258 . S
O519 Mn504 2.162 . S
O519 C507 1.281 . S
O520 Mn504 2.297 . S
O520 C507 1.236 . S
N521 Mn505 2.282 . S
N521 C522 1.328 . S
N521 C526 1.318 . S
C522 N521 1.328 . S
C522 C523 1.457 . S
C522 H527 0.929 . S
C523 C522 1.457 . S
C523 C524 1.291 . S
C523 H536 0.931 . S
C524 C523 1.291 . S
C524 C525 1.373 . S
C524 H537 0.929 . S
C525 C524 1.373 . S
C525 C526 1.396 . S
C525 C532 1.403 . S
C526 C516 1.476 . S
C526 N521 1.318 . S
C526 C525 1.396 . S
H527 C522 0.929 . S
O528 Mn504 2.385 . S
O528 C506 1.234 . S
O529 Mn504 2.209 . S
O529 Mn505 2.215 . S
O529 C506 1.283 . S
O530 Mn504 2.094 . S
O530 C508 1.240 . S
O531 Mn505 2.117 . S
O531 C508 1.264 . S
C532 C525 1.403 . S
C532 C533 1.399 . S
C532 H538 0.929 . S
C533 C513 1.449 . S
C533 C532 1.399 . S
C533 H539 0.930 . S
H534 C514 0.931 . S
H535 C515 0.930 . S
H536 C523 0.931 . S
H537 C524 0.929 . S
H538 C532 0.929 . S
H539 C533 0.930 . S
Mn540 O545 2.095 . S
Mn540 O555 2.162 . S
Mn540 O556 2.297 . S
Mn540 O564 2.385 . S
Mn540 O565 2.209 . S
Mn540 O566 2.094 . S
Mn541 O546 2.121 . S
Mn541 N548 2.257 . S
Mn541 N557 2.282 . S
Mn541 O565 2.215 . S
Mn541 O567 2.117 . S
C542 O564 1.234 . S
C542 O565 1.283 . S
C543 O555 1.281 . S
C543 O556 1.236 . S
C544 O566 1.240 . S
C544 O567 1.264 . S
O545 Mn540 2.095 . S
O545 C554 1.250 . S
O546 Mn541 2.121 . S
O546 C554 1.258 . S
C547 N548 1.326 . S
C547 C551 1.460 . S
C547 H553 0.929 . S
N548 Mn541 2.257 . S
N548 C547 1.326 . S
N548 C552 1.362 . S
C549 C550 1.258 . S
C549 C552 1.431 . S
C549 C569 1.449 . S
C550 C549 1.258 . S
C550 C551 1.477 . S
C550 H570 0.931 . S
C551 C547 1.460 . S
C551 C550 1.477 . S
C551 H571 0.930 . S
C552 N548 1.362 . S
C552 C549 1.431 . S
C552 C562 1.476 . S
H553 C547 0.929 . S
C554 O545 1.250 . S
C554 O546 1.258 . S
O555 Mn540 2.162 . S
O555 C543 1.281 . S
O556 Mn540 2.297 . S
O556 C543 1.236 . S
N557 Mn541 2.282 . S
N557 C558 1.328 . S
N557 C562 1.318 . S
C558 N557 1.328 . S
C558 C559 1.457 . S
C558 H563 0.929 . S
C559 C558 1.457 . S
C559 C560 1.291 . S
C559 H572 0.931 . S
C560 C559 1.291 . S
C560 C561 1.373 . S
C560 H573 0.929 . S
C561 C560 1.373 . S
C561 C562 1.396 . S
C561 C568 1.403 . S
C562 C552 1.476 . S
C562 N557 1.318 . S
C562 C561 1.396 . S
H563 C558 0.929 . S
O564 Mn540 2.385 . S
O564 C542 1.234 . S
O565 Mn540 2.209 . S
O565 Mn541 2.215 . S
O565 C542 1.283 . S
O566 Mn540 2.094 . S
O566 C544 1.240 . S
O567 Mn541 2.117 . S
O567 C544 1.264 . S
C568 C561 1.403 . S
C568 C569 1.399 . S
C568 H574 0.929 . S
C569 C549 1.449 . S
C569 C568 1.399 . S
C569 H575 0.930 . S
H570 C550 0.931 . S
H571 C551 0.930 . S
H572 C559 0.931 . S
H573 C560 0.929 . S
H574 C568 0.929 . S
H575 C569 0.930 . S
Mn576 O581 2.095 . S
Mn576 O591 2.162 . S
Mn576 O592 2.297 . S
Mn576 O600 2.385 . S
Mn576 O601 2.209 . S
Mn576 O602 2.094 . S
Mn577 O582 2.121 . S
Mn577 N584 2.257 . S
Mn577 N593 2.282 . S
Mn577 O601 2.215 . S
Mn577 O603 2.117 . S
C578 O600 1.234 . S
C578 O601 1.283 . S
C579 O591 1.281 . S
C579 O592 1.236 . S
C580 O602 1.240 . S
C580 O603 1.264 . S
O581 Mn576 2.095 . S
O581 C590 1.250 . S
O582 Mn577 2.121 . S
O582 C590 1.258 . S
C583 N584 1.326 . S
C583 C587 1.460 . S
C583 H589 0.929 . S
N584 Mn577 2.257 . S
N584 C583 1.326 . S
N584 C588 1.362 . S
C585 C586 1.258 . S
C585 C588 1.431 . S
C585 C605 1.449 . S
C586 C585 1.258 . S
C586 C587 1.477 . S
C586 H606 0.931 . S
C587 C583 1.460 . S
C587 C586 1.477 . S
C587 H607 0.930 . S
C588 N584 1.362 . S
C588 C585 1.431 . S
C588 C598 1.476 . S
H589 C583 0.929 . S
C590 O581 1.250 . S
C590 O582 1.258 . S
O591 Mn576 2.162 . S
O591 C579 1.281 . S
O592 Mn576 2.297 . S
O592 C579 1.236 . S
N593 Mn577 2.282 . S
N593 C594 1.328 . S
N593 C598 1.318 . S
C594 N593 1.328 . S
C594 C595 1.457 . S
C594 H599 0.929 . S
C595 C594 1.457 . S
C595 C596 1.291 . S
C595 H608 0.931 . S
C596 C595 1.291 . S
C596 C597 1.373 . S
C596 H609 0.929 . S
C597 C596 1.373 . S
C597 C598 1.396 . S
C597 C604 1.403 . S
C598 C588 1.476 . S
C598 N593 1.318 . S
C598 C597 1.396 . S
H599 C594 0.929 . S
O600 Mn576 2.385 . S
O600 C578 1.234 . S
O601 Mn576 2.209 . S
O601 Mn577 2.215 . S
O601 C578 1.283 . S
O602 Mn576 2.094 . S
O602 C580 1.240 . S
O603 Mn577 2.117 . S
O603 C580 1.264 . S
C604 C597 1.403 . S
C604 C605 1.399 . S
C604 H610 0.929 . S
C605 C585 1.449 . S
C605 C604 1.399 . S
C605 H611 0.930 . S
H606 C586 0.931 . S
H607 C587 0.930 . S
H608 C595 0.931 . S
H609 C596 0.929 . S
H610 C604 0.929 . S
H611 C605 0.930 . S
Mn612 O617 2.095 . S
Mn612 O627 2.162 . S
Mn612 O628 2.297 . S
Mn612 O636 2.385 . S
Mn612 O637 2.209 . S
Mn612 O638 2.094 . S
Mn613 O618 2.121 . S
Mn613 N620 2.257 . S
Mn613 N629 2.282 . S
Mn613 O637 2.215 . S
Mn613 O639 2.117 . S
C614 O636 1.234 . S
C614 O637 1.283 . S
C615 O627 1.281 . S
C615 O628 1.236 . S
C616 O638 1.240 . S
C616 O639 1.264 . S
O617 Mn612 2.095 . S
O617 C626 1.250 . S
O618 Mn613 2.121 . S
O618 C626 1.258 . S
C619 N620 1.326 . S
C619 C623 1.460 . S
C619 H625 0.929 . S
N620 Mn613 2.257 . S
N620 C619 1.326 . S
N620 C624 1.362 . S
C621 C622 1.258 . S
C621 C624 1.431 . S
C621 C641 1.449 . S
C622 C621 1.258 . S
C622 C623 1.477 . S
C622 H642 0.931 . S
C623 C619 1.460 . S
C623 C622 1.477 . S
C623 H643 0.930 . S
C624 N620 1.362 . S
C624 C621 1.431 . S
C624 C634 1.476 . S
H625 C619 0.929 . S
C626 O617 1.250 . S
C626 O618 1.258 . S
O627 Mn612 2.162 . S
O627 C615 1.281 . S
O628 Mn612 2.297 . S
O628 C615 1.236 . S
N629 Mn613 2.282 . S
N629 C630 1.328 . S
N629 C634 1.318 . S
C630 N629 1.328 . S
C630 C631 1.457 . S
C630 H635 0.929 . S
C631 C630 1.457 . S
C631 C632 1.291 . S
C631 H644 0.931 . S
C632 C631 1.291 . S
C632 C633 1.373 . S
C632 H645 0.929 . S
C633 C632 1.373 . S
C633 C634 1.396 . S
C633 C640 1.403 . S
C634 C624 1.476 . S
C634 N629 1.318 . S
C634 C633 1.396 . S
H635 C630 0.929 . S
O636 Mn612 2.385 . S
O636 C614 1.234 . S
O637 Mn612 2.209 . S
O637 Mn613 2.215 . S
O637 C614 1.283 . S
O638 Mn612 2.094 . S
O638 C616 1.240 . S
O639 Mn613 2.117 . S
O639 C616 1.264 . S
C640 C633 1.403 . S
C640 C641 1.399 . S
C640 H646 0.929 . S
C641 C621 1.449 . S
C641 C640 1.399 . S
C641 H647 0.930 . S
H642 C622 0.931 . S
H643 C623 0.930 . S
H644 C631 0.931 . S
H645 C632 0.929 . S
H646 C640 0.929 . S
H647 C641 0.930 . S
Mn648 O653 2.095 . S
Mn648 O663 2.162 . S
Mn648 O664 2.297 . S
Mn648 O672 2.385 . S
Mn648 O673 2.209 . S
Mn648 O674 2.094 . S
Mn649 O654 2.121 . S
Mn649 N656 2.257 . S
Mn649 N665 2.282 . S
Mn649 O673 2.215 . S
Mn649 O675 2.117 . S
C650 O672 1.234 . S
C650 O673 1.283 . S
C651 O663 1.281 . S
C651 O664 1.236 . S
C652 O674 1.240 . S
C652 O675 1.264 . S
O653 Mn648 2.095 . S
O653 C662 1.250 . S
O654 Mn649 2.121 . S
O654 C662 1.258 . S
C655 N656 1.326 . S
C655 C659 1.460 . S
C655 H661 0.929 . S
N656 Mn649 2.257 . S
N656 C655 1.326 . S
N656 C660 1.362 . S
C657 C658 1.258 . S
C657 C660 1.431 . S
C657 C677 1.449 . S
C658 C657 1.258 . S
C658 C659 1.477 . S
C658 H678 0.931 . S
C659 C655 1.460 . S
C659 C658 1.477 . S
C659 H679 0.930 . S
C660 N656 1.362 . S
C660 C657 1.431 . S
C660 C670 1.476 . S
H661 C655 0.929 . S
C662 O653 1.250 . S
C662 O654 1.258 . S
O663 Mn648 2.162 . S
O663 C651 1.281 . S
O664 Mn648 2.297 . S
O664 C651 1.236 . S
N665 Mn649 2.282 . S
N665 C666 1.328 . S
N665 C670 1.318 . S
C666 N665 1.328 . S
C666 C667 1.457 . S
C666 H671 0.929 . S
C667 C666 1.457 . S
C667 C668 1.291 . S
C667 H680 0.931 . S
C668 C667 1.291 . S
C668 C669 1.373 . S
C668 H681 0.929 . S
C669 C668 1.373 . S
C669 C670 1.396 . S
C669 C676 1.403 . S
C670 C660 1.476 . S
C670 N665 1.318 . S
C670 C669 1.396 . S
H671 C666 0.929 . S
O672 Mn648 2.385 . S
O672 C650 1.234 . S
O673 Mn648 2.209 . S
O673 Mn649 2.215 . S
O673 C650 1.283 . S
O674 Mn648 2.094 . S
O674 C652 1.240 . S
O675 Mn649 2.117 . S
O675 C652 1.264 . S
C676 C669 1.403 . S
C676 C677 1.399 . S
C676 H682 0.929 . S
C677 C657 1.449 . S
C677 C676 1.399 . S
C677 H683 0.930 . S
H678 C658 0.931 . S
H679 C659 0.930 . S
H680 C667 0.931 . S
H681 C668 0.929 . S
H682 C676 0.929 . S
H683 C677 0.930 . S
Mn684 O689 2.095 . S
Mn684 O699 2.162 . S
Mn684 O700 2.297 . S
Mn684 O708 2.385 . S
Mn684 O709 2.209 . S
Mn684 O710 2.094 . S
Mn685 O690 2.121 . S
Mn685 N692 2.257 . S
Mn685 N701 2.282 . S
Mn685 O709 2.215 . S
Mn685 O711 2.117 . S
C686 O708 1.234 . S
C686 O709 1.283 . S
C687 O699 1.281 . S
C687 O700 1.236 . S
C688 O710 1.240 . S
C688 O711 1.264 . S
O689 Mn684 2.095 . S
O689 C698 1.250 . S
O690 Mn685 2.121 . S
O690 C698 1.258 . S
C691 N692 1.326 . S
C691 C695 1.460 . S
C691 H697 0.929 . S
N692 Mn685 2.257 . S
N692 C691 1.326 . S
N692 C696 1.362 . S
C693 C694 1.258 . S
C693 C696 1.431 . S
C693 C713 1.449 . S
C694 C693 1.258 . S
C694 C695 1.477 . S
C694 H714 0.931 . S
C695 C691 1.460 . S
C695 C694 1.477 . S
C695 H715 0.930 . S
C696 N692 1.362 . S
C696 C693 1.431 . S
C696 C706 1.476 . S
H697 C691 0.929 . S
C698 O689 1.250 . S
C698 O690 1.258 . S
O699 Mn684 2.162 . S
O699 C687 1.281 . S
O700 Mn684 2.297 . S
O700 C687 1.236 . S
N701 Mn685 2.282 . S
N701 C702 1.328 . S
N701 C706 1.318 . S
C702 N701 1.328 . S
C702 C703 1.457 . S
C702 H707 0.929 . S
C703 C702 1.457 . S
C703 C704 1.291 . S
C703 H716 0.931 . S
C704 C703 1.291 . S
C704 C705 1.373 . S
C704 H717 0.929 . S
C705 C704 1.373 . S
C705 C706 1.396 . S
C705 C712 1.403 . S
C706 C696 1.476 . S
C706 N701 1.318 . S
C706 C705 1.396 . S
H707 C702 0.929 . S
O708 Mn684 2.385 . S
O708 C686 1.234 . S
O709 Mn684 2.209 . S
O709 Mn685 2.215 . S
O709 C686 1.283 . S
O710 Mn684 2.094 . S
O710 C688 1.240 . S
O711 Mn685 2.117 . S
O711 C688 1.264 . S
C712 C705 1.403 . S
C712 C713 1.399 . S
C712 H718 0.929 . S
C713 C693 1.449 . S
C713 C712 1.399 . S
C713 H719 0.930 . S
H714 C694 0.931 . S
H715 C695 0.930 . S
H716 C703 0.931 . S
H717 C704 0.929 . S
H718 C712 0.929 . S
H719 C713 0.930 . S
Mn720 O725 2.095 . S
Mn720 O735 2.162 . S
Mn720 O736 2.297 . S
Mn720 O744 2.385 . S
Mn720 O745 2.209 . S
Mn720 O746 2.094 . S
Mn721 O726 2.121 . S
Mn721 N728 2.257 . S
Mn721 N737 2.282 . S
Mn721 O745 2.215 . S
Mn721 O747 2.117 . S
C722 O744 1.234 . S
C722 O745 1.283 . S
C723 O735 1.281 . S
C723 O736 1.236 . S
C724 O746 1.240 . S
C724 O747 1.264 . S
O725 Mn720 2.095 . S
O725 C734 1.250 . S
O726 Mn721 2.121 . S
O726 C734 1.258 . S
C727 N728 1.326 . S
C727 C731 1.460 . S
C727 H733 0.929 . S
N728 Mn721 2.257 . S
N728 C727 1.326 . S
N728 C732 1.362 . S
C729 C730 1.258 . S
C729 C732 1.431 . S
C729 C749 1.449 . S
C730 C729 1.258 . S
C730 C731 1.477 . S
C730 H750 0.931 . S
C731 C727 1.460 . S
C731 C730 1.477 . S
C731 H751 0.930 . S
C732 N728 1.362 . S
C732 C729 1.431 . S
C732 C742 1.476 . S
H733 C727 0.929 . S
C734 O725 1.250 . S
C734 O726 1.258 . S
O735 Mn720 2.162 . S
O735 C723 1.281 . S
O736 Mn720 2.297 . S
O736 C723 1.236 . S
N737 Mn721 2.282 . S
N737 C738 1.328 . S
N737 C742 1.318 . S
C738 N737 1.328 . S
C738 C739 1.457 . S
C738 H743 0.929 . S
C739 C738 1.457 . S
C739 C740 1.291 . S
C739 H752 0.931 . S
C740 C739 1.291 . S
C740 C741 1.373 . S
C740 H753 0.929 . S
C741 C740 1.373 . S
C741 C742 1.396 . S
C741 C748 1.403 . S
C742 C732 1.476 . S
C742 N737 1.318 . S
C742 C741 1.396 . S
H743 C738 0.929 . S
O744 Mn720 2.385 . S
O744 C722 1.234 . S
O745 Mn720 2.209 . S
O745 Mn721 2.215 . S
O745 C722 1.283 . S
O746 Mn720 2.094 . S
O746 C724 1.240 . S
O747 Mn721 2.117 . S
O747 C724 1.264 . S
C748 C741 1.403 . S
C748 C749 1.399 . S
C748 H754 0.929 . S
C749 C729 1.449 . S
C749 C748 1.399 . S
C749 H755 0.930 . S
H750 C730 0.931 . S
H751 C731 0.930 . S
H752 C739 0.931 . S
H753 C740 0.929 . S
H754 C748 0.929 . S
H755 C749 0.930 . S
Mn756 O761 2.095 . S
Mn756 O771 2.162 . S
Mn756 O772 2.297 . S
Mn756 O780 2.385 . S
Mn756 O781 2.209 . S
Mn756 O782 2.094 . S
Mn757 O762 2.121 . S
Mn757 N764 2.257 . S
Mn757 N773 2.282 . S
Mn757 O781 2.215 . S
Mn757 O783 2.117 . S
C758 O780 1.234 . S
C758 O781 1.283 . S
C759 O771 1.281 . S
C759 O772 1.236 . S
C760 O782 1.240 . S
C760 O783 1.264 . S
O761 Mn756 2.095 . S
O761 C770 1.250 . S
O762 Mn757 2.121 . S
O762 C770 1.258 . S
C763 N764 1.326 . S
C763 C767 1.460 . S
C763 H769 0.929 . S
N764 Mn757 2.257 . S
N764 C763 1.326 . S
N764 C768 1.362 . S
C765 C766 1.258 . S
C765 C768 1.431 . S
C765 C785 1.449 . S
C766 C765 1.258 . S
C766 C767 1.477 . S
C766 H786 0.931 . S
C767 C763 1.460 . S
C767 C766 1.477 . S
C767 H787 0.930 . S
C768 N764 1.362 . S
C768 C765 1.431 . S
C768 C778 1.476 . S
H769 C763 0.929 . S
C770 O761 1.250 . S
C770 O762 1.258 . S
O771 Mn756 2.162 . S
O771 C759 1.281 . S
O772 Mn756 2.297 . S
O772 C759 1.236 . S
N773 Mn757 2.282 . S
N773 C774 1.328 . S
N773 C778 1.318 . S
C774 N773 1.328 . S
C774 C775 1.457 . S
C774 H779 0.929 . S
C775 C774 1.457 . S
C775 C776 1.291 . S
C775 H788 0.931 . S
C776 C775 1.291 . S
C776 C777 1.373 . S
C776 H789 0.929 . S
C777 C776 1.373 . S
C777 C778 1.396 . S
C777 C784 1.403 . S
C778 C768 1.476 . S
C778 N773 1.318 . S
C778 C777 1.396 . S
H779 C774 0.929 . S
O780 Mn756 2.385 . S
O780 C758 1.234 . S
O781 Mn756 2.209 . S
O781 Mn757 2.215 . S
O781 C758 1.283 . S
O782 Mn756 2.094 . S
O782 C760 1.240 . S
O783 Mn757 2.117 . S
O783 C760 1.264 . S
C784 C777 1.403 . S
C784 C785 1.399 . S
C784 H790 0.929 . S
C785 C765 1.449 . S
C785 C784 1.399 . S
C785 H791 0.930 . S
H786 C766 0.931 . S
H787 C767 0.930 . S
H788 C775 0.931 . S
H789 C776 0.929 . S
H790 C784 0.929 . S
H791 C785 0.930 . S
Mn792 O797 2.095 . S
Mn792 O807 2.162 . S
Mn792 O808 2.297 . S
Mn792 O816 2.385 . S
Mn792 O817 2.209 . S
Mn792 O818 2.094 . S
Mn793 O798 2.121 . S
Mn793 N800 2.257 . S
Mn793 N809 2.282 . S
Mn793 O817 2.215 . S
Mn793 O819 2.117 . S
C794 O816 1.234 . S
C794 O817 1.283 . S
C795 O807 1.281 . S
C795 O808 1.236 . S
C796 O818 1.240 . S
C796 O819 1.264 . S
O797 Mn792 2.095 . S
O797 C806 1.250 . S
O798 Mn793 2.121 . S
O798 C806 1.258 . S
C799 N800 1.326 . S
C799 C803 1.460 . S
C799 H805 0.929 . S
N800 Mn793 2.257 . S
N800 C799 1.326 . S
N800 C804 1.362 . S
C801 C802 1.258 . S
C801 C804 1.431 . S
C801 C821 1.449 . S
C802 C801 1.258 . S
C802 C803 1.477 . S
C802 H822 0.931 . S
C803 C799 1.460 . S
C803 C802 1.477 . S
C803 H823 0.930 . S
C804 N800 1.362 . S
C804 C801 1.431 . S
C804 C814 1.476 . S
H805 C799 0.929 . S
C806 O797 1.250 . S
C806 O798 1.258 . S
O807 Mn792 2.162 . S
O807 C795 1.281 . S
O808 Mn792 2.297 . S
O808 C795 1.236 . S
N809 Mn793 2.282 . S
N809 C810 1.328 . S
N809 C814 1.318 . S
C810 N809 1.328 . S
C810 C811 1.457 . S
C810 H815 0.929 . S
C811 C810 1.457 . S
C811 C812 1.291 . S
C811 H824 0.931 . S
C812 C811 1.291 . S
C812 C813 1.373 . S
C812 H825 0.929 . S
C813 C812 1.373 . S
C813 C814 1.396 . S
C813 C820 1.403 . S
C814 C804 1.476 . S
C814 N809 1.318 . S
C814 C813 1.396 . S
H815 C810 0.929 . S
O816 Mn792 2.385 . S
O816 C794 1.234 . S
O817 Mn792 2.209 . S
O817 Mn793 2.215 . S
O817 C794 1.283 . S
O818 Mn792 2.094 . S
O818 C796 1.240 . S
O819 Mn793 2.117 . S
O819 C796 1.264 . S
C820 C813 1.403 . S
C820 C821 1.399 . S
C820 H826 0.929 . S
C821 C801 1.449 . S
C821 C820 1.399 . S
C821 H827 0.930 . S
H822 C802 0.931 . S
H823 C803 0.930 . S
H824 C811 0.931 . S
H825 C812 0.929 . S
H826 C820 0.929 . S
H827 C821 0.930 . S
Mn828 O833 2.095 . S
Mn828 O843 2.162 . S
Mn828 O844 2.297 . S
Mn828 O852 2.385 . S
Mn828 O853 2.209 . S
Mn828 O854 2.094 . S
Mn829 O834 2.121 . S
Mn829 N836 2.257 . S
Mn829 N845 2.282 . S
Mn829 O853 2.215 . S
Mn829 O855 2.117 . S
C830 O852 1.234 . S
C830 O853 1.283 . S
C831 O843 1.281 . S
C831 O844 1.236 . S
C832 O854 1.240 . S
C832 O855 1.264 . S
O833 Mn828 2.095 . S
O833 C842 1.250 . S
O834 Mn829 2.121 . S
O834 C842 1.258 . S
C835 N836 1.326 . S
C835 C839 1.460 . S
C835 H841 0.929 . S
N836 Mn829 2.257 . S
N836 C835 1.326 . S
N836 C840 1.362 . S
C837 C838 1.258 . S
C837 C840 1.431 . S
C837 C857 1.449 . S
C838 C837 1.258 . S
C838 C839 1.477 . S
C838 H858 0.931 . S
C839 C835 1.460 . S
C839 C838 1.477 . S
C839 H859 0.930 . S
C840 N836 1.362 . S
C840 C837 1.431 . S
C840 C850 1.476 . S
H841 C835 0.929 . S
C842 O833 1.250 . S
C842 O834 1.258 . S
O843 Mn828 2.162 . S
O843 C831 1.281 . S
O844 Mn828 2.297 . S
O844 C831 1.236 . S
N845 Mn829 2.282 . S
N845 C846 1.328 . S
N845 C850 1.318 . S
C846 N845 1.328 . S
C846 C847 1.457 . S
C846 H851 0.929 . S
C847 C846 1.457 . S
C847 C848 1.291 . S
C847 H860 0.931 . S
C848 C847 1.291 . S
C848 C849 1.373 . S
C848 H861 0.929 . S
C849 C848 1.373 . S
C849 C850 1.396 . S
C849 C856 1.403 . S
C850 C840 1.476 . S
C850 N845 1.318 . S
C850 C849 1.396 . S
H851 C846 0.929 . S
O852 Mn828 2.385 . S
O852 C830 1.234 . S
O853 Mn828 2.209 . S
O853 Mn829 2.215 . S
O853 C830 1.283 . S
O854 Mn828 2.094 . S
O854 C832 1.240 . S
O855 Mn829 2.117 . S
O855 C832 1.264 . S
C856 C849 1.403 . S
C856 C857 1.399 . S
C856 H862 0.929 . S
C857 C837 1.449 . S
C857 C856 1.399 . S
C857 H863 0.930 . S
H858 C838 0.931 . S
H859 C839 0.930 . S
H860 C847 0.931 . S
H861 C848 0.929 . S
H862 C856 0.929 . S
H863 C857 0.930 . S
H864 C872 0.929 . S
H865 C874 0.930 . S
H866 C876 0.930 . S
H867 C879 0.929 . S
H868 C882 0.930 . S
H869 C884 0.960 . S
H870 C884 0.960 . S
H871 C884 0.960 . S
C872 H864 0.929 . S
C872 C873 1.377 . S
C872 C874 1.384 . S
C873 C872 1.377 . S
C873 C879 1.390 . S
C874 H865 0.930 . S
C874 C872 1.384 . S
C874 C875 1.372 . S
C875 C874 1.372 . S
C875 C876 1.400 . S
C875 C880 1.490 . S
C876 H866 0.930 . S
C876 C875 1.400 . S
C876 C879 1.386 . S
H877 C893 0.930 . S
H878 C894 0.931 . S
C879 H867 0.929 . S
C879 C873 1.390 . S
C879 C876 1.386 . S
C880 C875 1.490 . S
C880 C882 1.395 . S
C880 C883 1.403 . S
H881 C887 0.930 . S
C882 H868 0.930 . S
C882 C880 1.395 . S
C882 C885 1.403 . S
C883 C880 1.403 . S
C883 C884 1.524 . S
C883 C887 1.400 . S
C884 H869 0.960 . S
C884 H870 0.960 . S
C884 H871 0.960 . S
C884 C883 1.524 . S
C885 C882 1.403 . S
C885 C886 1.392 . S
C885 C889 1.495 . S
C886 C885 1.392 . S
C886 C887 1.385 . S
C886 C888 1.478 . S
C887 H881 0.930 . S
C887 C883 1.400 . S
C887 C886 1.385 . S
C888 C886 1.478 . S
C888 C890 1.381 . S
C888 C894 1.383 . S
C889 C885 1.495 . S
C889 H895 0.959 . S
C889 H896 0.961 . S
C889 H897 0.960 . S
C890 C888 1.381 . S
C890 C891 1.394 . S
C890 H898 0.930 . S
C891 C890 1.394 . S
C891 C892 1.383 . S
C891 H899 0.929 . S
C892 C891 1.383 . S
C892 C893 1.377 . S
C893 H877 0.930 . S
C893 C892 1.377 . S
C893 C894 1.379 . S
C894 H878 0.931 . S
C894 C888 1.383 . S
C894 C893 1.379 . S
H895 C889 0.959 . S
H896 C889 0.961 . S
H897 C889 0.960 . S
H898 C890 0.930 . S
H899 C891 0.929 . S
H900 C908 0.929 . S
H901 C910 0.930 . S
H902 C912 0.930 . S
H903 C915 0.929 . S
H904 C918 0.930 . S
H905 C920 0.960 . S
H906 C920 0.960 . S
H907 C920 0.960 . S
C908 H900 0.929 . S
C908 C909 1.377 . S
C908 C910 1.384 . S
C909 C908 1.377 . S
C909 C915 1.390 . S
C910 H901 0.930 . S
C910 C908 1.384 . S
C910 C911 1.372 . S
C911 C910 1.372 . S
C911 C912 1.400 . S
C911 C916 1.490 . S
C912 H902 0.930 . S
C912 C911 1.400 . S
C912 C915 1.386 . S
H913 C929 0.930 . S
H914 C930 0.931 . S
C915 H903 0.929 . S
C915 C909 1.390 . S
C915 C912 1.386 . S
C916 C911 1.490 . S
C916 C918 1.395 . S
C916 C919 1.403 . S
H917 C923 0.930 . S
C918 H904 0.930 . S
C918 C916 1.395 . S
C918 C921 1.403 . S
C919 C916 1.403 . S
C919 C920 1.524 . S
C919 C923 1.400 . S
C920 H905 0.960 . S
C920 H906 0.960 . S
C920 H907 0.960 . S
C920 C919 1.524 . S
C921 C918 1.403 . S
C921 C922 1.392 . S
C921 C925 1.495 . S
C922 C921 1.392 . S
C922 C923 1.385 . S
C922 C924 1.478 . S
C923 H917 0.930 . S
C923 C919 1.400 . S
C923 C922 1.385 . S
C924 C922 1.478 . S
C924 C926 1.381 . S
C924 C930 1.383 . S
C925 C921 1.495 . S
C925 H931 0.959 . S
C925 H932 0.961 . S
C925 H933 0.960 . S
C926 C924 1.381 . S
C926 C927 1.394 . S
C926 H934 0.930 . S
C927 C926 1.394 . S
C927 C928 1.383 . S
C927 H935 0.929 . S
C928 C927 1.383 . S
C928 C929 1.377 . S
C929 H913 0.930 . S
C929 C928 1.377 . S
C929 C930 1.379 . S
C930 H914 0.931 . S
C930 C924 1.383 . S
C930 C929 1.379 . S
H931 C925 0.959 . S
H932 C925 0.961 . S
H933 C925 0.960 . S
H934 C926 0.930 . S
H935 C927 0.929 . S
H936 C944 0.929 . S
H937 C946 0.930 . S
H938 C948 0.930 . S
H939 C951 0.929 . S
H940 C954 0.930 . S
H941 C956 0.960 . S
H942 C956 0.960 . S
H943 C956 0.960 . S
C944 H936 0.929 . S
C944 C945 1.377 . S
C944 C946 1.384 . S
C945 C944 1.377 . S
C945 C951 1.390 . S
C946 H937 0.930 . S
C946 C944 1.384 . S
C946 C947 1.372 . S
C947 C946 1.372 . S
C947 C948 1.400 . S
C947 C952 1.490 . S
C948 H938 0.930 . S
C948 C947 1.400 . S
C948 C951 1.386 . S
H949 C965 0.930 . S
H950 C966 0.931 . S
C951 H939 0.929 . S
C951 C945 1.390 . S
C951 C948 1.386 . S
C952 C947 1.490 . S
C952 C954 1.395 . S
C952 C955 1.403 . S
H953 C959 0.930 . S
C954 H940 0.930 . S
C954 C952 1.395 . S
C954 C957 1.403 . S
C955 C952 1.403 . S
C955 C956 1.524 . S
C955 C959 1.400 . S
C956 H941 0.960 . S
C956 H942 0.960 . S
C956 H943 0.960 . S
C956 C955 1.524 . S
C957 C954 1.403 . S
C957 C958 1.392 . S
C957 C961 1.495 . S
C958 C957 1.392 . S
C958 C959 1.385 . S
C958 C960 1.478 . S
C959 H953 0.930 . S
C959 C955 1.400 . S
C959 C958 1.385 . S
C960 C958 1.478 . S
C960 C962 1.381 . S
C960 C966 1.383 . S
C961 C957 1.495 . S
C961 H967 0.959 . S
C961 H968 0.961 . S
C961 H969 0.960 . S
C962 C960 1.381 . S
C962 C963 1.394 . S
C962 H970 0.930 . S
C963 C962 1.394 . S
C963 C964 1.383 . S
C963 H971 0.929 . S
C964 C963 1.383 . S
C964 C965 1.377 . S
C965 H949 0.930 . S
C965 C964 1.377 . S
C965 C966 1.379 . S
C966 H950 0.931 . S
C966 C960 1.383 . S
C966 C965 1.379 . S
H967 C961 0.959 . S
H968 C961 0.961 . S
H969 C961 0.960 . S
H970 C962 0.930 . S
H971 C963 0.929 . S
H972 C980 0.929 . S
H973 C982 0.930 . S
H974 C984 0.930 . S
H975 C987 0.929 . S
H976 C990 0.930 . S
H977 C992 0.960 . S
H978 C992 0.960 . S
H979 C992 0.960 . S
C980 H972 0.929 . S
C980 C981 1.377 . S
C980 C982 1.384 . S
C981 C980 1.377 . S
C981 C987 1.390 . S
C982 H973 0.930 . S
C982 C980 1.384 . S
C982 C983 1.372 . S
C983 C982 1.372 . S
C983 C984 1.400 . S
C983 C988 1.490 . S
C984 H974 0.930 . S
C984 C983 1.400 . S
C984 C987 1.386 . S
H985 C1001 0.930 . S
H986 C1002 0.931 . S
C987 H975 0.929 . S
C987 C981 1.390 . S
C987 C984 1.386 . S
C988 C983 1.490 . S
C988 C990 1.395 . S
C988 C991 1.403 . S
H989 C995 0.930 . S
C990 H976 0.930 . S
C990 C988 1.395 . S
C990 C993 1.403 . S
C991 C988 1.403 . S
C991 C992 1.524 . S
C991 C995 1.400 . S
C992 H977 0.960 . S
C992 H978 0.960 . S
C992 H979 0.960 . S
C992 C991 1.524 . S
C993 C990 1.403 . S
C993 C994 1.392 . S
C993 C997 1.495 . S
C994 C993 1.392 . S
C994 C995 1.385 . S
C994 C996 1.478 . S
C995 H989 0.930 . S
C995 C991 1.400 . S
C995 C994 1.385 . S
C996 C994 1.478 . S
C996 C998 1.381 . S
C996 C1002 1.383 . S
C997 C993 1.495 . S
C997 H1003 0.959 . S
C997 H1004 0.961 . S
C997 H1005 0.960 . S
C998 C996 1.381 . S
C998 C999 1.394 . S
C998 H1006 0.930 . S
C999 C998 1.394 . S
C999 C1000 1.383 . S
C999 H1007 0.929 . S
C1000 C999 1.383 . S
C1000 C1001 1.377 . S
C1001 H985 0.930 . S
C1001 C1000 1.377 . S
C1001 C1002 1.379 . S
C1002 H986 0.931 . S
C1002 C996 1.383 . S
C1002 C1001 1.379 . S
H1003 C997 0.959 . S
H1004 C997 0.961 . S
H1005 C997 0.960 . S
H1006 C998 0.930 . S
H1007 C999 0.929 . S
H1008 C1016 0.929 . S
H1009 C1018 0.930 . S
H1010 C1020 0.930 . S
H1011 C1023 0.929 . S
H1012 C1026 0.930 . S
H1013 C1028 0.960 . S
H1014 C1028 0.960 . S
H1015 C1028 0.960 . S
C1016 H1008 0.929 . S
C1016 C1017 1.377 . S
C1016 C1018 1.384 . S
C1017 C1016 1.377 . S
C1017 C1023 1.390 . S
C1018 H1009 0.930 . S
C1018 C1016 1.384 . S
C1018 C1019 1.372 . S
C1019 C1018 1.372 . S
C1019 C1020 1.400 . S
C1019 C1024 1.490 . S
C1020 H1010 0.930 . S
C1020 C1019 1.400 . S
C1020 C1023 1.386 . S
H1021 C1037 0.930 . S
H1022 C1038 0.931 . S
C1023 H1011 0.929 . S
C1023 C1017 1.390 . S
C1023 C1020 1.386 . S
C1024 C1019 1.490 . S
C1024 C1026 1.395 . S
C1024 C1027 1.403 . S
H1025 C1031 0.930 . S
C1026 H1012 0.930 . S
C1026 C1024 1.395 . S
C1026 C1029 1.403 . S
C1027 C1024 1.403 . S
C1027 C1028 1.524 . S
C1027 C1031 1.400 . S
C1028 H1013 0.960 . S
C1028 H1014 0.960 . S
C1028 H1015 0.960 . S
C1028 C1027 1.524 . S
C1029 C1026 1.403 . S
C1029 C1030 1.392 . S
C1029 C1033 1.495 . S
C1030 C1029 1.392 . S
C1030 C1031 1.385 . S
C1030 C1032 1.478 . S
C1031 H1025 0.930 . S
C1031 C1027 1.400 . S
C1031 C1030 1.385 . S
C1032 C1030 1.478 . S
C1032 C1034 1.381 . S
C1032 C1038 1.383 . S
C1033 C1029 1.495 . S
C1033 H1039 0.959 . S
C1033 H1040 0.961 . S
C1033 H1041 0.960 . S
C1034 C1032 1.381 . S
C1034 C1035 1.394 . S
C1034 H1042 0.930 . S
C1035 C1034 1.394 . S
C1035 C1036 1.383 . S
C1035 H1043 0.929 . S
C1036 C1035 1.383 . S
C1036 C1037 1.377 . S
C1037 H1021 0.930 . S
C1037 C1036 1.377 . S
C1037 C1038 1.379 . S
C1038 H1022 0.931 . S
C1038 C1032 1.383 . S
C1038 C1037 1.379 . S
H1039 C1033 0.959 . S
H1040 C1033 0.961 . S
H1041 C1033 0.960 . S
H1042 C1034 0.930 . S
H1043 C1035 0.929 . S
H1044 C1052 0.929 . S
H1045 C1054 0.930 . S
H1046 C1056 0.930 . S
H1047 C1059 0.929 . S
H1048 C1062 0.930 . S
H1049 C1064 0.960 . S
H1050 C1064 0.960 . S
H1051 C1064 0.960 . S
C1052 H1044 0.929 . S
C1052 C1053 1.377 . S
C1052 C1054 1.384 . S
C1053 C1052 1.377 . S
C1053 C1059 1.390 . S
C1054 H1045 0.930 . S
C1054 C1052 1.384 . S
C1054 C1055 1.372 . S
C1055 C1054 1.372 . S
C1055 C1056 1.400 . S
C1055 C1060 1.490 . S
C1056 H1046 0.930 . S
C1056 C1055 1.400 . S
C1056 C1059 1.386 . S
H1057 C1073 0.930 . S
H1058 C1074 0.931 . S
C1059 H1047 0.929 . S
C1059 C1053 1.390 . S
C1059 C1056 1.386 . S
C1060 C1055 1.490 . S
C1060 C1062 1.395 . S
C1060 C1063 1.403 . S
H1061 C1067 0.930 . S
C1062 H1048 0.930 . S
C1062 C1060 1.395 . S
C1062 C1065 1.403 . S
C1063 C1060 1.403 . S
C1063 C1064 1.524 . S
C1063 C1067 1.400 . S
C1064 H1049 0.960 . S
C1064 H1050 0.960 . S
C1064 H1051 0.960 . S
C1064 C1063 1.524 . S
C1065 C1062 1.403 . S
C1065 C1066 1.392 . S
C1065 C1069 1.495 . S
C1066 C1065 1.392 . S
C1066 C1067 1.385 . S
C1066 C1068 1.478 . S
C1067 H1061 0.930 . S
C1067 C1063 1.400 . S
C1067 C1066 1.385 . S
C1068 C1066 1.478 . S
C1068 C1070 1.381 . S
C1068 C1074 1.383 . S
C1069 C1065 1.495 . S
C1069 H1075 0.959 . S
C1069 H1076 0.961 . S
C1069 H1077 0.960 . S
C1070 C1068 1.381 . S
C1070 C1071 1.394 . S
C1070 H1078 0.930 . S
C1071 C1070 1.394 . S
C1071 C1072 1.383 . S
C1071 H1079 0.929 . S
C1072 C1071 1.383 . S
C1072 C1073 1.377 . S
C1073 H1057 0.930 . S
C1073 C1072 1.377 . S
C1073 C1074 1.379 . S
C1074 H1058 0.931 . S
C1074 C1068 1.383 . S
C1074 C1073 1.379 . S
H1075 C1069 0.959 . S
H1076 C1069 0.961 . S
H1077 C1069 0.960 . S
H1078 C1070 0.930 . S
H1079 C1071 0.929 . S
H1080 C1088 0.929 . S
H1081 C1090 0.930 . S
H1082 C1092 0.930 . S
H1083 C1095 0.929 . S
H1084 C1098 0.930 . S
H1085 C1100 0.960 . S
H1086 C1100 0.960 . S
H1087 C1100 0.960 . S
C1088 H1080 0.929 . S
C1088 C1089 1.377 . S
C1088 C1090 1.384 . S
C1089 C1088 1.377 . S
C1089 C1095 1.390 . S
C1090 H1081 0.930 . S
C1090 C1088 1.384 . S
C1090 C1091 1.372 . S
C1091 C1090 1.372 . S
C1091 C1092 1.400 . S
C1091 C1096 1.490 . S
C1092 H1082 0.930 . S
C1092 C1091 1.400 . S
C1092 C1095 1.386 . S
H1093 C1109 0.930 . S
H1094 C1110 0.931 . S
C1095 H1083 0.929 . S
C1095 C1089 1.390 . S
C1095 C1092 1.386 . S
C1096 C1091 1.490 . S
C1096 C1098 1.395 . S
C1096 C1099 1.403 . S
H1097 C1103 0.930 . S
C1098 H1084 0.930 . S
C1098 C1096 1.395 . S
C1098 C1101 1.403 . S
C1099 C1096 1.403 . S
C1099 C1100 1.524 . S
C1099 C1103 1.400 . S
C1100 H1085 0.960 . S
C1100 H1086 0.960 . S
C1100 H1087 0.960 . S
C1100 C1099 1.524 . S
C1101 C1098 1.403 . S
C1101 C1102 1.392 . S
C1101 C1105 1.495 . S
C1102 C1101 1.392 . S
C1102 C1103 1.385 . S
C1102 C1104 1.478 . S
C1103 H1097 0.930 . S
C1103 C1099 1.400 . S
C1103 C1102 1.385 . S
C1104 C1102 1.478 . S
C1104 C1106 1.381 . S
C1104 C1110 1.383 . S
C1105 C1101 1.495 . S
C1105 H1111 0.959 . S
C1105 H1112 0.961 . S
C1105 H1113 0.960 . S
C1106 C1104 1.381 . S
C1106 C1107 1.394 . S
C1106 H1114 0.930 . S
C1107 C1106 1.394 . S
C1107 C1108 1.383 . S
C1107 H1115 0.929 . S
C1108 C1107 1.383 . S
C1108 C1109 1.377 . S
C1109 H1093 0.930 . S
C1109 C1108 1.377 . S
C1109 C1110 1.379 . S
C1110 H1094 0.931 . S
C1110 C1104 1.383 . S
C1110 C1109 1.379 . S
H1111 C1105 0.959 . S
H1112 C1105 0.961 . S
H1113 C1105 0.960 . S
H1114 C1106 0.930 . S
H1115 C1107 0.929 . S
H1116 C1124 0.929 . S
H1117 C1126 0.930 . S
H1118 C1128 0.930 . S
H1119 C1131 0.929 . S
H1120 C1134 0.930 . S
H1121 C1136 0.960 . S
H1122 C1136 0.960 . S
H1123 C1136 0.960 . S
C1124 H1116 0.929 . S
C1124 C1125 1.377 . S
C1124 C1126 1.384 . S
C1125 C1124 1.377 . S
C1125 C1131 1.390 . S
C1126 H1117 0.930 . S
C1126 C1124 1.384 . S
C1126 C1127 1.372 . S
C1127 C1126 1.372 . S
C1127 C1128 1.400 . S
C1127 C1132 1.490 . S
C1128 H1118 0.930 . S
C1128 C1127 1.400 . S
C1128 C1131 1.386 . S
H1129 C1145 0.930 . S
H1130 C1146 0.931 . S
C1131 H1119 0.929 . S
C1131 C1125 1.390 . S
C1131 C1128 1.386 . S
C1132 C1127 1.490 . S
C1132 C1134 1.395 . S
C1132 C1135 1.403 . S
H1133 C1139 0.930 . S
C1134 H1120 0.930 . S
C1134 C1132 1.395 . S
C1134 C1137 1.403 . S
C1135 C1132 1.403 . S
C1135 C1136 1.524 . S
C1135 C1139 1.400 . S
C1136 H1121 0.960 . S
C1136 H1122 0.960 . S
C1136 H1123 0.960 . S
C1136 C1135 1.524 . S
C1137 C1134 1.403 . S
C1137 C1138 1.392 . S
C1137 C1141 1.495 . S
C1138 C1137 1.392 . S
C1138 C1139 1.385 . S
C1138 C1140 1.478 . S
C1139 H1133 0.930 . S
C1139 C1135 1.400 . S
C1139 C1138 1.385 . S
C1140 C1138 1.478 . S
C1140 C1142 1.381 . S
C1140 C1146 1.383 . S
C1141 C1137 1.495 . S
C1141 H1147 0.959 . S
C1141 H1148 0.961 . S
C1141 H1149 0.960 . S
C1142 C1140 1.381 . S
C1142 C1143 1.394 . S
C1142 H1150 0.930 . S
C1143 C1142 1.394 . S
C1143 C1144 1.383 . S
C1143 H1151 0.929 . S
C1144 C1143 1.383 . S
C1144 C1145 1.377 . S
C1145 H1129 0.930 . S
C1145 C1144 1.377 . S
C1145 C1146 1.379 . S
C1146 H1130 0.931 . S
C1146 C1140 1.383 . S
C1146 C1145 1.379 . S
H1147 C1141 0.959 . S
H1148 C1141 0.961 . S
H1149 C1141 0.960 . S
H1150 C1142 0.930 . S
H1151 C1143 0.929 . S
H1152 C1160 0.929 . S
H1153 C1162 0.930 . S
H1154 C1164 0.930 . S
H1155 C1167 0.929 . S
H1156 C1170 0.930 . S
H1157 C1172 0.960 . S
H1158 C1172 0.960 . S
H1159 C1172 0.960 . S
C1160 H1152 0.929 . S
C1160 C1161 1.377 . S
C1160 C1162 1.384 . S
C1161 C1160 1.377 . S
C1161 C1167 1.390 . S
C1162 H1153 0.930 . S
C1162 C1160 1.384 . S
C1162 C1163 1.372 . S
C1163 C1162 1.372 . S
C1163 C1164 1.400 . S
C1163 C1168 1.490 . S
C1164 H1154 0.930 . S
C1164 C1163 1.400 . S
C1164 C1167 1.386 . S
H1165 C1181 0.930 . S
H1166 C1182 0.931 . S
C1167 H1155 0.929 . S
C1167 C1161 1.390 . S
C1167 C1164 1.386 . S
C1168 C1163 1.490 . S
C1168 C1170 1.395 . S
C1168 C1171 1.403 . S
H1169 C1175 0.930 . S
C1170 H1156 0.930 . S
C1170 C1168 1.395 . S
C1170 C1173 1.403 . S
C1171 C1168 1.403 . S
C1171 C1172 1.524 . S
C1171 C1175 1.400 . S
C1172 H1157 0.960 . S
C1172 H1158 0.960 . S
C1172 H1159 0.960 . S
C1172 C1171 1.524 . S
C1173 C1170 1.403 . S
C1173 C1174 1.392 . S
C1173 C1177 1.495 . S
C1174 C1173 1.392 . S
C1174 C1175 1.385 . S
C1174 C1176 1.478 . S
C1175 H1169 0.930 . S
C1175 C1171 1.400 . S
C1175 C1174 1.385 . S
C1176 C1174 1.478 . S
C1176 C1178 1.381 . S
C1176 C1182 1.383 . S
C1177 C1173 1.495 . S
C1177 H1183 0.959 . S
C1177 H1184 0.961 . S
C1177 H1185 0.960 . S
C1178 C1176 1.381 . S
C1178 C1179 1.394 . S
C1178 H1186 0.930 . S
C1179 C1178 1.394 . S
C1179 C1180 1.383 . S
C1179 H1187 0.929 . S
C1180 C1179 1.383 . S
C1180 C1181 1.377 . S
C1181 H1165 0.930 . S
C1181 C1180 1.377 . S
C1181 C1182 1.379 . S
C1182 H1166 0.931 . S
C1182 C1176 1.383 . S
C1182 C1181 1.379 . S
H1183 C1177 0.959 . S
H1184 C1177 0.961 . S
H1185 C1177 0.960 . S
H1186 C1178 0.930 . S
H1187 C1179 0.929 . S
H1188 C1196 0.929 . S
H1189 C1198 0.930 . S
H1190 C1200 0.930 . S
H1191 C1203 0.929 . S
H1192 C1206 0.930 . S
H1193 C1208 0.960 . S
H1194 C1208 0.960 . S
H1195 C1208 0.960 . S
C1196 H1188 0.929 . S
C1196 C1197 1.377 . S
C1196 C1198 1.384 . S
C1197 C1196 1.377 . S
C1197 C1203 1.390 . S
C1198 H1189 0.930 . S
C1198 C1196 1.384 . S
C1198 C1199 1.372 . S
C1199 C1198 1.372 . S
C1199 C1200 1.400 . S
C1199 C1204 1.490 . S
C1200 H1190 0.930 . S
C1200 C1199 1.400 . S
C1200 C1203 1.386 . S
H1201 C1217 0.930 . S
H1202 C1218 0.931 . S
C1203 H1191 0.929 . S
C1203 C1197 1.390 . S
C1203 C1200 1.386 . S
C1204 C1199 1.490 . S
C1204 C1206 1.395 . S
C1204 C1207 1.403 . S
H1205 C1211 0.930 . S
C1206 H1192 0.930 . S
C1206 C1204 1.395 . S
C1206 C1209 1.403 . S
C1207 C1204 1.403 . S
C1207 C1208 1.524 . S
C1207 C1211 1.400 . S
C1208 H1193 0.960 . S
C1208 H1194 0.960 . S
C1208 H1195 0.960 . S
C1208 C1207 1.524 . S
C1209 C1206 1.403 . S
C1209 C1210 1.392 . S
C1209 C1213 1.495 . S
C1210 C1209 1.392 . S
C1210 C1211 1.385 . S
C1210 C1212 1.478 . S
C1211 H1205 0.930 . S
C1211 C1207 1.400 . S
C1211 C1210 1.385 . S
C1212 C1210 1.478 . S
C1212 C1214 1.381 . S
C1212 C1218 1.383 . S
C1213 C1209 1.495 . S
C1213 H1219 0.959 . S
C1213 H1220 0.961 . S
C1213 H1221 0.960 . S
C1214 C1212 1.381 . S
C1214 C1215 1.394 . S
C1214 H1222 0.930 . S
C1215 C1214 1.394 . S
C1215 C1216 1.383 . S
C1215 H1223 0.929 . S
C1216 C1215 1.383 . S
C1216 C1217 1.377 . S
C1217 H1201 0.930 . S
C1217 C1216 1.377 . S
C1217 C1218 1.379 . S
C1218 H1202 0.931 . S
C1218 C1212 1.383 . S
C1218 C1217 1.379 . S
H1219 C1213 0.959 . S
H1220 C1213 0.961 . S
H1221 C1213 0.960 . S
H1222 C1214 0.930 . S
H1223 C1215 0.929 . S
H1224 C1232 0.929 . S
H1225 C1234 0.930 . S
H1226 C1236 0.930 . S
H1227 C1239 0.929 . S
H1228 C1242 0.930 . S
H1229 C1244 0.960 . S
H1230 C1244 0.960 . S
H1231 C1244 0.960 . S
C1232 H1224 0.929 . S
C1232 C1233 1.377 . S
C1232 C1234 1.384 . S
C1233 C1232 1.377 . S
C1233 C1239 1.390 . S
C1234 H1225 0.930 . S
C1234 C1232 1.384 . S
C1234 C1235 1.372 . S
C1235 C1234 1.372 . S
C1235 C1236 1.400 . S
C1235 C1240 1.490 . S
C1236 H1226 0.930 . S
C1236 C1235 1.400 . S
C1236 C1239 1.386 . S
H1237 C1253 0.930 . S
H1238 C1254 0.931 . S
C1239 H1227 0.929 . S
C1239 C1233 1.390 . S
C1239 C1236 1.386 . S
C1240 C1235 1.490 . S
C1240 C1242 1.395 . S
C1240 C1243 1.403 . S
H1241 C1247 0.930 . S
C1242 H1228 0.930 . S
C1242 C1240 1.395 . S
C1242 C1245 1.403 . S
C1243 C1240 1.403 . S
C1243 C1244 1.524 . S
C1243 C1247 1.400 . S
C1244 H1229 0.960 . S
C1244 H1230 0.960 . S
C1244 H1231 0.960 . S
C1244 C1243 1.524 . S
C1245 C1242 1.403 . S
C1245 C1246 1.392 . S
C1245 C1249 1.495 . S
C1246 C1245 1.392 . S
C1246 C1247 1.385 . S
C1246 C1248 1.478 . S
C1247 H1241 0.930 . S
C1247 C1243 1.400 . S
C1247 C1246 1.385 . S
C1248 C1246 1.478 . S
C1248 C1250 1.381 . S
C1248 C1254 1.383 . S
C1249 C1245 1.495 . S
C1249 H1255 0.959 . S
C1249 H1256 0.961 . S
C1249 H1257 0.960 . S
C1250 C1248 1.381 . S
C1250 C1251 1.394 . S
C1250 H1258 0.930 . S
C1251 C1250 1.394 . S
C1251 C1252 1.383 . S
C1251 H1259 0.929 . S
C1252 C1251 1.383 . S
C1252 C1253 1.377 . S
C1253 H1237 0.930 . S
C1253 C1252 1.377 . S
C1253 C1254 1.379 . S
C1254 H1238 0.931 . S
C1254 C1248 1.383 . S
C1254 C1253 1.379 . S
H1255 C1249 0.959 . S
H1256 C1249 0.961 . S
H1257 C1249 0.960 . S
H1258 C1250 0.930 . S
H1259 C1251 0.929 . S
H1260 C1268 0.929 . S
H1261 C1270 0.930 . S
H1262 C1272 0.930 . S
H1263 C1275 0.929 . S
H1264 C1278 0.930 . S
H1265 C1280 0.960 . S
H1266 C1280 0.960 . S
H1267 C1280 0.960 . S
C1268 H1260 0.929 . S
C1268 C1269 1.377 . S
C1268 C1270 1.384 . S
C1269 C1268 1.377 . S
C1269 C1275 1.390 . S
C1270 H1261 0.930 . S
C1270 C1268 1.384 . S
C1270 C1271 1.372 . S
C1271 C1270 1.372 . S
C1271 C1272 1.400 . S
C1271 C1276 1.490 . S
C1272 H1262 0.930 . S
C1272 C1271 1.400 . S
C1272 C1275 1.386 . S
H1273 C1289 0.930 . S
H1274 C1290 0.931 . S
C1275 H1263 0.929 . S
C1275 C1269 1.390 . S
C1275 C1272 1.386 . S
C1276 C1271 1.490 . S
C1276 C1278 1.395 . S
C1276 C1279 1.403 . S
H1277 C1283 0.930 . S
C1278 H1264 0.930 . S
C1278 C1276 1.395 . S
C1278 C1281 1.403 . S
C1279 C1276 1.403 . S
C1279 C1280 1.524 . S
C1279 C1283 1.400 . S
C1280 H1265 0.960 . S
C1280 H1266 0.960 . S
C1280 H1267 0.960 . S
C1280 C1279 1.524 . S
C1281 C1278 1.403 . S
C1281 C1282 1.392 . S
C1281 C1285 1.495 . S
C1282 C1281 1.392 . S
C1282 C1283 1.385 . S
C1282 C1284 1.478 . S
C1283 H1277 0.930 . S
C1283 C1279 1.400 . S
C1283 C1282 1.385 . S
C1284 C1282 1.478 . S
C1284 C1286 1.381 . S
C1284 C1290 1.383 . S
C1285 C1281 1.495 . S
C1285 H1291 0.959 . S
C1285 H1292 0.961 . S
C1285 H1293 0.960 . S
C1286 C1284 1.381 . S
C1286 C1287 1.394 . S
C1286 H1294 0.930 . S
C1287 C1286 1.394 . S
C1287 C1288 1.383 . S
C1287 H1295 0.929 . S
C1288 C1287 1.383 . S
C1288 C1289 1.377 . S
C1289 H1273 0.930 . S
C1289 C1288 1.377 . S
C1289 C1290 1.379 . S
C1290 H1274 0.931 . S
C1290 C1284 1.383 . S
C1290 C1289 1.379 . S
H1291 C1285 0.959 . S
H1292 C1285 0.961 . S
H1293 C1285 0.960 . S
H1294 C1286 0.930 . S
H1295 C1287 0.929 . S
H1296 C1304 0.929 . S
H1297 C1306 0.930 . S
H1298 C1308 0.930 . S
H1299 C1311 0.929 . S
H1300 C1314 0.930 . S
H1301 C1316 0.960 . S
H1302 C1316 0.960 . S
H1303 C1316 0.960 . S
C1304 H1296 0.929 . S
C1304 C1305 1.377 . S
C1304 C1306 1.384 . S
C1305 C1304 1.377 . S
C1305 C1311 1.390 . S
C1306 H1297 0.930 . S
C1306 C1304 1.384 . S
C1306 C1307 1.372 . S
C1307 C1306 1.372 . S
C1307 C1308 1.400 . S
C1307 C1312 1.490 . S
C1308 H1298 0.930 . S
C1308 C1307 1.400 . S
C1308 C1311 1.386 . S
H1309 C1325 0.930 . S
H1310 C1326 0.931 . S
C1311 H1299 0.929 . S
C1311 C1305 1.390 . S
C1311 C1308 1.386 . S
C1312 C1307 1.490 . S
C1312 C1314 1.395 . S
C1312 C1315 1.403 . S
H1313 C1319 0.930 . S
C1314 H1300 0.930 . S
C1314 C1312 1.395 . S
C1314 C1317 1.403 . S
C1315 C1312 1.403 . S
C1315 C1316 1.524 . S
C1315 C1319 1.400 . S
C1316 H1301 0.960 . S
C1316 H1302 0.960 . S
C1316 H1303 0.960 . S
C1316 C1315 1.524 . S
C1317 C1314 1.403 . S
C1317 C1318 1.392 . S
C1317 C1321 1.495 . S
C1318 C1317 1.392 . S
C1318 C1319 1.385 . S
C1318 C1320 1.478 . S
C1319 H1313 0.930 . S
C1319 C1315 1.400 . S
C1319 C1318 1.385 . S
C1320 C1318 1.478 . S
C1320 C1322 1.381 . S
C1320 C1326 1.383 . S
C1321 C1317 1.495 . S
C1321 H1327 0.959 . S
C1321 H1328 0.961 . S
C1321 H1329 0.960 . S
C1322 C1320 1.381 . S
C1322 C1323 1.394 . S
C1322 H1330 0.930 . S
C1323 C1322 1.394 . S
C1323 C1324 1.383 . S
C1323 H1331 0.929 . S
C1324 C1323 1.383 . S
C1324 C1325 1.377 . S
C1325 H1309 0.930 . S
C1325 C1324 1.377 . S
C1325 C1326 1.379 . S
C1326 H1310 0.931 . S
C1326 C1320 1.383 . S
C1326 C1325 1.379 . S
H1327 C1321 0.959 . S
H1328 C1321 0.961 . S
H1329 C1321 0.960 . S
H1330 C1322 0.930 . S
H1331 C1323 0.929 . S
H1332 C1340 0.929 . S
H1333 C1342 0.930 . S
H1334 C1344 0.930 . S
H1335 C1347 0.929 . S
H1336 C1350 0.930 . S
H1337 C1352 0.960 . S
H1338 C1352 0.960 . S
H1339 C1352 0.960 . S
C1340 H1332 0.929 . S
C1340 C1341 1.377 . S
C1340 C1342 1.384 . S
C1341 C1340 1.377 . S
C1341 C1347 1.390 . S
C1342 H1333 0.930 . S
C1342 C1340 1.384 . S
C1342 C1343 1.372 . S
C1343 C1342 1.372 . S
C1343 C1344 1.400 . S
C1343 C1348 1.490 . S
C1344 H1334 0.930 . S
C1344 C1343 1.400 . S
C1344 C1347 1.386 . S
H1345 C1361 0.930 . S
H1346 C1362 0.931 . S
C1347 H1335 0.929 . S
C1347 C1341 1.390 . S
C1347 C1344 1.386 . S
C1348 C1343 1.490 . S
C1348 C1350 1.395 . S
C1348 C1351 1.403 . S
H1349 C1355 0.930 . S
C1350 H1336 0.930 . S
C1350 C1348 1.395 . S
C1350 C1353 1.403 . S
C1351 C1348 1.403 . S
C1351 C1352 1.524 . S
C1351 C1355 1.400 . S
C1352 H1337 0.960 . S
C1352 H1338 0.960 . S
C1352 H1339 0.960 . S
C1352 C1351 1.524 . S
C1353 C1350 1.403 . S
C1353 C1354 1.392 . S
C1353 C1357 1.495 . S
C1354 C1353 1.392 . S
C1354 C1355 1.385 . S
C1354 C1356 1.478 . S
C1355 H1349 0.930 . S
C1355 C1351 1.400 . S
C1355 C1354 1.385 . S
C1356 C1354 1.478 . S
C1356 C1358 1.381 . S
C1356 C1362 1.383 . S
C1357 C1353 1.495 . S
C1357 H1363 0.959 . S
C1357 H1364 0.961 . S
C1357 H1365 0.960 . S
C1358 C1356 1.381 . S
C1358 C1359 1.394 . S
C1358 H1366 0.930 . S
C1359 C1358 1.394 . S
C1359 C1360 1.383 . S
C1359 H1367 0.929 . S
C1360 C1359 1.383 . S
C1360 C1361 1.377 . S
C1361 H1345 0.930 . S
C1361 C1360 1.377 . S
C1361 C1362 1.379 . S
C1362 H1346 0.931 . S
C1362 C1356 1.383 . S
C1362 C1361 1.379 . S
H1363 C1357 0.959 . S
H1364 C1357 0.961 . S
H1365 C1357 0.960 . S
H1366 C1358 0.930 . S
H1367 C1359 0.929 . S
H1368 C1376 0.929 . S
H1369 C1378 0.930 . S
H1370 C1380 0.930 . S
H1371 C1383 0.929 . S
H1372 C1386 0.930 . S
H1373 C1388 0.960 . S
H1374 C1388 0.960 . S
H1375 C1388 0.960 . S
C1376 H1368 0.929 . S
C1376 C1377 1.377 . S
C1376 C1378 1.384 . S
C1377 C1376 1.377 . S
C1377 C1383 1.390 . S
C1378 H1369 0.930 . S
C1378 C1376 1.384 . S
C1378 C1379 1.372 . S
C1379 C1378 1.372 . S
C1379 C1380 1.400 . S
C1379 C1384 1.490 . S
C1380 H1370 0.930 . S
C1380 C1379 1.400 . S
C1380 C1383 1.386 . S
H1381 C1397 0.930 . S
H1382 C1398 0.931 . S
C1383 H1371 0.929 . S
C1383 C1377 1.390 . S
C1383 C1380 1.386 . S
C1384 C1379 1.490 . S
C1384 C1386 1.395 . S
C1384 C1387 1.403 . S
H1385 C1391 0.930 . S
C1386 H1372 0.930 . S
C1386 C1384 1.395 . S
C1386 C1389 1.403 . S
C1387 C1384 1.403 . S
C1387 C1388 1.524 . S
C1387 C1391 1.400 . S
C1388 H1373 0.960 . S
C1388 H1374 0.960 . S
C1388 H1375 0.960 . S
C1388 C1387 1.524 . S
C1389 C1386 1.403 . S
C1389 C1390 1.392 . S
C1389 C1393 1.495 . S
C1390 C1389 1.392 . S
C1390 C1391 1.385 . S
C1390 C1392 1.478 . S
C1391 H1385 0.930 . S
C1391 C1387 1.400 . S
C1391 C1390 1.385 . S
C1392 C1390 1.478 . S
C1392 C1394 1.381 . S
C1392 C1398 1.383 . S
C1393 C1389 1.495 . S
C1393 H1399 0.959 . S
C1393 H1400 0.961 . S
C1393 H1401 0.960 . S
C1394 C1392 1.381 . S
C1394 C1395 1.394 . S
C1394 H1402 0.930 . S
C1395 C1394 1.394 . S
C1395 C1396 1.383 . S
C1395 H1403 0.929 . S
C1396 C1395 1.383 . S
C1396 C1397 1.377 . S
C1397 H1381 0.930 . S
C1397 C1396 1.377 . S
C1397 C1398 1.379 . S
C1398 H1382 0.931 . S
C1398 C1392 1.383 . S
C1398 C1397 1.379 . S
H1399 C1393 0.959 . S
H1400 C1393 0.961 . S
H1401 C1393 0.960 . S
H1402 C1394 0.930 . S
H1403 C1395 0.929 . S
H1404 C1412 0.929 . S
H1405 C1414 0.930 . S
H1406 C1416 0.930 . S
H1407 C1419 0.929 . S
H1408 C1422 0.930 . S
H1409 C1424 0.960 . S
H1410 C1424 0.960 . S
H1411 C1424 0.960 . S
C1412 H1404 0.929 . S
C1412 C1413 1.377 . S
C1412 C1414 1.384 . S
C1413 C1412 1.377 . S
C1413 C1419 1.390 . S
C1414 H1405 0.930 . S
C1414 C1412 1.384 . S
C1414 C1415 1.372 . S
C1415 C1414 1.372 . S
C1415 C1416 1.400 . S
C1415 C1420 1.490 . S
C1416 H1406 0.930 . S
C1416 C1415 1.400 . S
C1416 C1419 1.386 . S
H1417 C1433 0.930 . S
H1418 C1434 0.931 . S
C1419 H1407 0.929 . S
C1419 C1413 1.390 . S
C1419 C1416 1.386 . S
C1420 C1415 1.490 . S
C1420 C1422 1.395 . S
C1420 C1423 1.403 . S
H1421 C1427 0.930 . S
C1422 H1408 0.930 . S
C1422 C1420 1.395 . S
C1422 C1425 1.403 . S
C1423 C1420 1.403 . S
C1423 C1424 1.524 . S
C1423 C1427 1.400 . S
C1424 H1409 0.960 . S
C1424 H1410 0.960 . S
C1424 H1411 0.960 . S
C1424 C1423 1.524 . S
C1425 C1422 1.403 . S
C1425 C1426 1.392 . S
C1425 C1429 1.495 . S
C1426 C1425 1.392 . S
C1426 C1427 1.385 . S
C1426 C1428 1.478 . S
C1427 H1421 0.930 . S
C1427 C1423 1.400 . S
C1427 C1426 1.385 . S
C1428 C1426 1.478 . S
C1428 C1430 1.381 . S
C1428 C1434 1.383 . S
C1429 C1425 1.495 . S
C1429 H1435 0.959 . S
C1429 H1436 0.961 . S
C1429 H1437 0.960 . S
C1430 C1428 1.381 . S
C1430 C1431 1.394 . S
C1430 H1438 0.930 . S
C1431 C1430 1.394 . S
C1431 C1432 1.383 . S
C1431 H1439 0.929 . S
C1432 C1431 1.383 . S
C1432 C1433 1.377 . S
C1433 H1417 0.930 . S
C1433 C1432 1.377 . S
C1433 C1434 1.379 . S
C1434 H1418 0.931 . S
C1434 C1428 1.383 . S
C1434 C1433 1.379 . S
H1435 C1429 0.959 . S
H1436 C1429 0.961 . S
H1437 C1429 0.960 . S
H1438 C1430 0.930 . S
H1439 C1431 0.929 . S
H1440 C1448 0.929 . S
H1441 C1450 0.930 . S
H1442 C1452 0.930 . S
H1443 C1455 0.929 . S
H1444 C1458 0.930 . S
H1445 C1460 0.960 . S
H1446 C1460 0.960 . S
H1447 C1460 0.960 . S
C1448 H1440 0.929 . S
C1448 C1449 1.377 . S
C1448 C1450 1.384 . S
C1449 C1448 1.377 . S
C1449 C1455 1.390 . S
C1450 H1441 0.930 . S
C1450 C1448 1.384 . S
C1450 C1451 1.372 . S
C1451 C1450 1.372 . S
C1451 C1452 1.400 . S
C1451 C1456 1.490 . S
C1452 H1442 0.930 . S
C1452 C1451 1.400 . S
C1452 C1455 1.386 . S
H1453 C1469 0.930 . S
H1454 C1470 0.931 . S
C1455 H1443 0.929 . S
C1455 C1449 1.390 . S
C1455 C1452 1.386 . S
C1456 C1451 1.490 . S
C1456 C1458 1.395 . S
C1456 C1459 1.403 . S
H1457 C1463 0.930 . S
C1458 H1444 0.930 . S
C1458 C1456 1.395 . S
C1458 C1461 1.403 . S
C1459 C1456 1.403 . S
C1459 C1460 1.524 . S
C1459 C1463 1.400 . S
C1460 H1445 0.960 . S
C1460 H1446 0.960 . S
C1460 H1447 0.960 . S
C1460 C1459 1.524 . S
C1461 C1458 1.403 . S
C1461 C1462 1.392 . S
C1461 C1465 1.495 . S
C1462 C1461 1.392 . S
C1462 C1463 1.385 . S
C1462 C1464 1.478 . S
C1463 H1457 0.930 . S
C1463 C1459 1.400 . S
C1463 C1462 1.385 . S
C1464 C1462 1.478 . S
C1464 C1466 1.381 . S
C1464 C1470 1.383 . S
C1465 C1461 1.495 . S
C1465 H1471 0.959 . S
C1465 H1472 0.961 . S
C1465 H1473 0.960 . S
C1466 C1464 1.381 . S
C1466 C1467 1.394 . S
C1466 H1474 0.930 . S
C1467 C1466 1.394 . S
C1467 C1468 1.383 . S
C1467 H1475 0.929 . S
C1468 C1467 1.383 . S
C1468 C1469 1.377 . S
C1469 H1453 0.930 . S
C1469 C1468 1.377 . S
C1469 C1470 1.379 . S
C1470 H1454 0.931 . S
C1470 C1464 1.383 . S
C1470 C1469 1.379 . S
H1471 C1465 0.959 . S
H1472 C1465 0.961 . S
H1473 C1465 0.960 . S
H1474 C1466 0.930 . S
H1475 C1467 0.929 . S
H1476 C1484 0.929 . S
H1477 C1486 0.930 . S
H1478 C1488 0.930 . S
H1479 C1491 0.929 . S
H1480 C1494 0.930 . S
H1481 C1496 0.960 . S
H1482 C1496 0.960 . S
H1483 C1496 0.960 . S
C1484 H1476 0.929 . S
C1484 C1485 1.377 . S
C1484 C1486 1.384 . S
C1485 C1484 1.377 . S
C1485 C1491 1.390 . S
C1486 H1477 0.930 . S
C1486 C1484 1.384 . S
C1486 C1487 1.372 . S
C1487 C1486 1.372 . S
C1487 C1488 1.400 . S
C1487 C1492 1.490 . S
C1488 H1478 0.930 . S
C1488 C1487 1.400 . S
C1488 C1491 1.386 . S
H1489 C1505 0.930 . S
H1490 C1506 0.931 . S
C1491 H1479 0.929 . S
C1491 C1485 1.390 . S
C1491 C1488 1.386 . S
C1492 C1487 1.490 . S
C1492 C1494 1.395 . S
C1492 C1495 1.403 . S
H1493 C1499 0.930 . S
C1494 H1480 0.930 . S
C1494 C1492 1.395 . S
C1494 C1497 1.403 . S
C1495 C1492 1.403 . S
C1495 C1496 1.524 . S
C1495 C1499 1.400 . S
C1496 H1481 0.960 . S
C1496 H1482 0.960 . S
C1496 H1483 0.960 . S
C1496 C1495 1.524 . S
C1497 C1494 1.403 . S
C1497 C1498 1.392 . S
C1497 C1501 1.495 . S
C1498 C1497 1.392 . S
C1498 C1499 1.385 . S
C1498 C1500 1.478 . S
C1499 H1493 0.930 . S
C1499 C1495 1.400 . S
C1499 C1498 1.385 . S
C1500 C1498 1.478 . S
C1500 C1502 1.381 . S
C1500 C1506 1.383 . S
C1501 C1497 1.495 . S
C1501 H1507 0.959 . S
C1501 H1508 0.961 . S
C1501 H1509 0.960 . S
C1502 C1500 1.381 . S
C1502 C1503 1.394 . S
C1502 H1510 0.930 . S
C1503 C1502 1.394 . S
C1503 C1504 1.383 . S
C1503 H1511 0.929 . S
C1504 C1503 1.383 . S
C1504 C1505 1.377 . S
C1505 H1489 0.930 . S
C1505 C1504 1.377 . S
C1505 C1506 1.379 . S
C1506 H1490 0.931 . S
C1506 C1500 1.383 . S
C1506 C1505 1.379 . S
H1507 C1501 0.959 . S
H1508 C1501 0.961 . S
H1509 C1501 0.960 . S
H1510 C1502 0.930 . S
H1511 C1503 0.929 . S
H1512 C1520 0.929 . S
H1513 C1522 0.930 . S
H1514 C1524 0.930 . S
H1515 C1527 0.929 . S
H1516 C1530 0.930 . S
H1517 C1532 0.960 . S
H1518 C1532 0.960 . S
H1519 C1532 0.960 . S
C1520 H1512 0.929 . S
C1520 C1521 1.377 . S
C1520 C1522 1.384 . S
C1521 C1520 1.377 . S
C1521 C1527 1.390 . S
C1522 H1513 0.930 . S
C1522 C1520 1.384 . S
C1522 C1523 1.372 . S
C1523 C1522 1.372 . S
C1523 C1524 1.400 . S
C1523 C1528 1.490 . S
C1524 H1514 0.930 . S
C1524 C1523 1.400 . S
C1524 C1527 1.386 . S
H1525 C1541 0.930 . S
H1526 C1542 0.931 . S
C1527 H1515 0.929 . S
C1527 C1521 1.390 . S
C1527 C1524 1.386 . S
C1528 C1523 1.490 . S
C1528 C1530 1.395 . S
C1528 C1531 1.403 . S
H1529 C1535 0.930 . S
C1530 H1516 0.930 . S
C1530 C1528 1.395 . S
C1530 C1533 1.403 . S
C1531 C1528 1.403 . S
C1531 C1532 1.524 . S
C1531 C1535 1.400 . S
C1532 H1517 0.960 . S
C1532 H1518 0.960 . S
C1532 H1519 0.960 . S
C1532 C1531 1.524 . S
C1533 C1530 1.403 . S
C1533 C1534 1.392 . S
C1533 C1537 1.495 . S
C1534 C1533 1.392 . S
C1534 C1535 1.385 . S
C1534 C1536 1.478 . S
C1535 H1529 0.930 . S
C1535 C1531 1.400 . S
C1535 C1534 1.385 . S
C1536 C1534 1.478 . S
C1536 C1538 1.381 . S
C1536 C1542 1.383 . S
C1537 C1533 1.495 . S
C1537 H1543 0.959 . S
C1537 H1544 0.961 . S
C1537 H1545 0.960 . S
C1538 C1536 1.381 . S
C1538 C1539 1.394 . S
C1538 H1546 0.930 . S
C1539 C1538 1.394 . S
C1539 C1540 1.383 . S
C1539 H1547 0.929 . S
C1540 C1539 1.383 . S
C1540 C1541 1.377 . S
C1541 H1525 0.930 . S
C1541 C1540 1.377 . S
C1541 C1542 1.379 . S
C1542 H1526 0.931 . S
C1542 C1536 1.383 . S
C1542 C1541 1.379 . S
H1543 C1537 0.959 . S
H1544 C1537 0.961 . S
H1545 C1537 0.960 . S
H1546 C1538 0.930 . S
H1547 C1539 0.929 . S
H1548 C1556 0.929 . S
H1549 C1558 0.930 . S
H1550 C1560 0.930 . S
H1551 C1563 0.929 . S
H1552 C1566 0.930 . S
H1553 C1568 0.960 . S
H1554 C1568 0.960 . S
H1555 C1568 0.960 . S
C1556 H1548 0.929 . S
C1556 C1557 1.377 . S
C1556 C1558 1.384 . S
C1557 C1556 1.377 . S
C1557 C1563 1.390 . S
C1558 H1549 0.930 . S
C1558 C1556 1.384 . S
C1558 C1559 1.372 . S
C1559 C1558 1.372 . S
C1559 C1560 1.400 . S
C1559 C1564 1.490 . S
C1560 H1550 0.930 . S
C1560 C1559 1.400 . S
C1560 C1563 1.386 . S
H1561 C1577 0.930 . S
H1562 C1578 0.931 . S
C1563 H1551 0.929 . S
C1563 C1557 1.390 . S
C1563 C1560 1.386 . S
C1564 C1559 1.490 . S
C1564 C1566 1.395 . S
C1564 C1567 1.403 . S
H1565 C1571 0.930 . S
C1566 H1552 0.930 . S
C1566 C1564 1.395 . S
C1566 C1569 1.403 . S
C1567 C1564 1.403 . S
C1567 C1568 1.524 . S
C1567 C1571 1.400 . S
C1568 H1553 0.960 . S
C1568 H1554 0.960 . S
C1568 H1555 0.960 . S
C1568 C1567 1.524 . S
C1569 C1566 1.403 . S
C1569 C1570 1.392 . S
C1569 C1573 1.495 . S
C1570 C1569 1.392 . S
C1570 C1571 1.385 . S
C1570 C1572 1.478 . S
C1571 H1565 0.930 . S
C1571 C1567 1.400 . S
C1571 C1570 1.385 . S
C1572 C1570 1.478 . S
C1572 C1574 1.381 . S
C1572 C1578 1.383 . S
C1573 C1569 1.495 . S
C1573 H1579 0.959 . S
C1573 H1580 0.961 . S
C1573 H1581 0.960 . S
C1574 C1572 1.381 . S
C1574 C1575 1.394 . S
C1574 H1582 0.930 . S
C1575 C1574 1.394 . S
C1575 C1576 1.383 . S
C1575 H1583 0.929 . S
C1576 C1575 1.383 . S
C1576 C1577 1.377 . S
C1577 H1561 0.930 . S
C1577 C1576 1.377 . S
C1577 C1578 1.379 . S
C1578 H1562 0.931 . S
C1578 C1572 1.383 . S
C1578 C1577 1.379 . S
H1579 C1573 0.959 . S
H1580 C1573 0.961 . S
H1581 C1573 0.960 . S
H1582 C1574 0.930 . S
H1583 C1575 0.929 . S
H1584 C1592 0.929 . S
H1585 C1594 0.930 . S
H1586 C1596 0.930 . S
H1587 C1599 0.929 . S
H1588 C1602 0.930 . S
H1589 C1604 0.960 . S
H1590 C1604 0.960 . S
H1591 C1604 0.960 . S
C1592 H1584 0.929 . S
C1592 C1593 1.377 . S
C1592 C1594 1.384 . S
C1593 C1592 1.377 . S
C1593 C1599 1.390 . S
C1594 H1585 0.930 . S
C1594 C1592 1.384 . S
C1594 C1595 1.372 . S
C1595 C1594 1.372 . S
C1595 C1596 1.400 . S
C1595 C1600 1.490 . S
C1596 H1586 0.930 . S
C1596 C1595 1.400 . S
C1596 C1599 1.386 . S
H1597 C1613 0.930 . S
H1598 C1614 0.931 . S
C1599 H1587 0.929 . S
C1599 C1593 1.390 . S
C1599 C1596 1.386 . S
C1600 C1595 1.490 . S
C1600 C1602 1.395 . S
C1600 C1603 1.403 . S
H1601 C1607 0.930 . S
C1602 H1588 0.930 . S
C1602 C1600 1.395 . S
C1602 C1605 1.403 . S
C1603 C1600 1.403 . S
C1603 C1604 1.524 . S
C1603 C1607 1.400 . S
C1604 H1589 0.960 . S
C1604 H1590 0.960 . S
C1604 H1591 0.960 . S
C1604 C1603 1.524 . S
C1605 C1602 1.403 . S
C1605 C1606 1.392 . S
C1605 C1609 1.495 . S
C1606 C1605 1.392 . S
C1606 C1607 1.385 . S
C1606 C1608 1.478 . S
C1607 H1601 0.930 . S
C1607 C1603 1.400 . S
C1607 C1606 1.385 . S
C1608 C1606 1.478 . S
C1608 C1610 1.381 . S
C1608 C1614 1.383 . S
C1609 C1605 1.495 . S
C1609 H1615 0.959 . S
C1609 H1616 0.961 . S
C1609 H1617 0.960 . S
C1610 C1608 1.381 . S
C1610 C1611 1.394 . S
C1610 H1618 0.930 . S
C1611 C1610 1.394 . S
C1611 C1612 1.383 . S
C1611 H1619 0.929 . S
C1612 C1611 1.383 . S
C1612 C1613 1.377 . S
C1613 H1597 0.930 . S
C1613 C1612 1.377 . S
C1613 C1614 1.379 . S
C1614 H1598 0.931 . S
C1614 C1608 1.383 . S
C1614 C1613 1.379 . S
H1615 C1609 0.959 . S
H1616 C1609 0.961 . S
H1617 C1609 0.960 . S
H1618 C1610 0.930 . S
H1619 C1611 0.929 . S
H1620 C1628 0.929 . S
H1621 C1630 0.930 . S
H1622 C1632 0.930 . S
H1623 C1635 0.929 . S
H1624 C1638 0.930 . S
H1625 C1640 0.960 . S
H1626 C1640 0.960 . S
H1627 C1640 0.960 . S
C1628 H1620 0.929 . S
C1628 C1629 1.377 . S
C1628 C1630 1.384 . S
C1629 C1628 1.377 . S
C1629 C1635 1.390 . S
C1630 H1621 0.930 . S
C1630 C1628 1.384 . S
C1630 C1631 1.372 . S
C1631 C1630 1.372 . S
C1631 C1632 1.400 . S
C1631 C1636 1.490 . S
C1632 H1622 0.930 . S
C1632 C1631 1.400 . S
C1632 C1635 1.386 . S
H1633 C1649 0.930 . S
H1634 C1650 0.931 . S
C1635 H1623 0.929 . S
C1635 C1629 1.390 . S
C1635 C1632 1.386 . S
C1636 C1631 1.490 . S
C1636 C1638 1.395 . S
C1636 C1639 1.403 . S
H1637 C1643 0.930 . S
C1638 H1624 0.930 . S
C1638 C1636 1.395 . S
C1638 C1641 1.403 . S
C1639 C1636 1.403 . S
C1639 C1640 1.524 . S
C1639 C1643 1.400 . S
C1640 H1625 0.960 . S
C1640 H1626 0.960 . S
C1640 H1627 0.960 . S
C1640 C1639 1.524 . S
C1641 C1638 1.403 . S
C1641 C1642 1.392 . S
C1641 C1645 1.495 . S
C1642 C1641 1.392 . S
C1642 C1643 1.385 . S
C1642 C1644 1.478 . S
C1643 H1637 0.930 . S
C1643 C1639 1.400 . S
C1643 C1642 1.385 . S
C1644 C1642 1.478 . S
C1644 C1646 1.381 . S
C1644 C1650 1.383 . S
C1645 C1641 1.495 . S
C1645 H1651 0.959 . S
C1645 H1652 0.961 . S
C1645 H1653 0.960 . S
C1646 C1644 1.381 . S
C1646 C1647 1.394 . S
C1646 H1654 0.930 . S
C1647 C1646 1.394 . S
C1647 C1648 1.383 . S
C1647 H1655 0.929 . S
C1648 C1647 1.383 . S
C1648 C1649 1.377 . S
C1649 H1633 0.930 . S
C1649 C1648 1.377 . S
C1649 C1650 1.379 . S
C1650 H1634 0.931 . S
C1650 C1644 1.383 . S
C1650 C1649 1.379 . S
H1651 C1645 0.959 . S
H1652 C1645 0.961 . S
H1653 C1645 0.960 . S
H1654 C1646 0.930 . S
H1655 C1647 0.929 . S
H1656 C1664 0.929 . S
H1657 C1666 0.930 . S
H1658 C1668 0.930 . S
H1659 C1671 0.929 . S
H1660 C1674 0.930 . S
H1661 C1676 0.960 . S
H1662 C1676 0.960 . S
H1663 C1676 0.960 . S
C1664 H1656 0.929 . S
C1664 C1665 1.377 . S
C1664 C1666 1.384 . S
C1665 C1664 1.377 . S
C1665 C1671 1.390 . S
C1666 H1657 0.930 . S
C1666 C1664 1.384 . S
C1666 C1667 1.372 . S
C1667 C1666 1.372 . S
C1667 C1668 1.400 . S
C1667 C1672 1.490 . S
C1668 H1658 0.930 . S
C1668 C1667 1.400 . S
C1668 C1671 1.386 . S
H1669 C1685 0.930 . S
H1670 C1686 0.931 . S
C1671 H1659 0.929 . S
C1671 C1665 1.390 . S
C1671 C1668 1.386 . S
C1672 C1667 1.490 . S
C1672 C1674 1.395 . S
C1672 C1675 1.403 . S
H1673 C1679 0.930 . S
C1674 H1660 0.930 . S
C1674 C1672 1.395 . S
C1674 C1677 1.403 . S
C1675 C1672 1.403 . S
C1675 C1676 1.524 . S
C1675 C1679 1.400 . S
C1676 H1661 0.960 . S
C1676 H1662 0.960 . S
C1676 H1663 0.960 . S
C1676 C1675 1.524 . S
C1677 C1674 1.403 . S
C1677 C1678 1.392 . S
C1677 C1681 1.495 . S
C1678 C1677 1.392 . S
C1678 C1679 1.385 . S
C1678 C1680 1.478 . S
C1679 H1673 0.930 . S
C1679 C1675 1.400 . S
C1679 C1678 1.385 . S
C1680 C1678 1.478 . S
C1680 C1682 1.381 . S
C1680 C1686 1.383 . S
C1681 C1677 1.495 . S
C1681 H1687 0.959 . S
C1681 H1688 0.961 . S
C1681 H1689 0.960 . S
C1682 C1680 1.381 . S
C1682 C1683 1.394 . S
C1682 H1690 0.930 . S
C1683 C1682 1.394 . S
C1683 C1684 1.383 . S
C1683 H1691 0.929 . S
C1684 C1683 1.383 . S
C1684 C1685 1.377 . S
C1685 H1669 0.930 . S
C1685 C1684 1.377 . S
C1685 C1686 1.379 . S
C1686 H1670 0.931 . S
C1686 C1680 1.383 . S
C1686 C1685 1.379 . S
H1687 C1681 0.959 . S
H1688 C1681 0.961 . S
H1689 C1681 0.960 . S
H1690 C1682 0.930 . S
H1691 C1683 0.929 . S
H1692 C1700 0.929 . S
H1693 C1702 0.930 . S
H1694 C1704 0.930 . S
H1695 C1707 0.929 . S
H1696 C1710 0.930 . S
H1697 C1712 0.960 . S
H1698 C1712 0.960 . S
H1699 C1712 0.960 . S
C1700 H1692 0.929 . S
C1700 C1701 1.377 . S
C1700 C1702 1.384 . S
C1701 C1700 1.377 . S
C1701 C1707 1.390 . S
C1702 H1693 0.930 . S
C1702 C1700 1.384 . S
C1702 C1703 1.372 . S
C1703 C1702 1.372 . S
C1703 C1704 1.400 . S
C1703 C1708 1.490 . S
C1704 H1694 0.930 . S
C1704 C1703 1.400 . S
C1704 C1707 1.386 . S
H1705 C1721 0.930 . S
H1706 C1722 0.931 . S
C1707 H1695 0.929 . S
C1707 C1701 1.390 . S
C1707 C1704 1.386 . S
C1708 C1703 1.490 . S
C1708 C1710 1.395 . S
C1708 C1711 1.403 . S
H1709 C1715 0.930 . S
C1710 H1696 0.930 . S
C1710 C1708 1.395 . S
C1710 C1713 1.403 . S
C1711 C1708 1.403 . S
C1711 C1712 1.524 . S
C1711 C1715 1.400 . S
C1712 H1697 0.960 . S
C1712 H1698 0.960 . S
C1712 H1699 0.960 . S
C1712 C1711 1.524 . S
C1713 C1710 1.403 . S
C1713 C1714 1.392 . S
C1713 C1717 1.495 . S
C1714 C1713 1.392 . S
C1714 C1715 1.385 . S
C1714 C1716 1.478 . S
C1715 H1709 0.930 . S
C1715 C1711 1.400 . S
C1715 C1714 1.385 . S
C1716 C1714 1.478 . S
C1716 C1718 1.381 . S
C1716 C1722 1.383 . S
C1717 C1713 1.495 . S
C1717 H1723 0.959 . S
C1717 H1724 0.961 . S
C1717 H1725 0.960 . S
C1718 C1716 1.381 . S
C1718 C1719 1.394 . S
C1718 H1726 0.930 . S
C1719 C1718 1.394 . S
C1719 C1720 1.383 . S
C1719 H1727 0.929 . S
C1720 C1719 1.383 . S
C1720 C1721 1.377 . S
C1721 H1705 0.930 . S
C1721 C1720 1.377 . S
C1721 C1722 1.379 . S
C1722 H1706 0.931 . S
C1722 C1716 1.383 . S
C1722 C1721 1.379 . S
H1723 C1717 0.959 . S
H1724 C1717 0.961 . S
H1725 C1717 0.960 . S
H1726 C1718 0.930 . S
H1727 C1719 0.929 . S
H1728 C1736 0.929 . S
H1729 C1738 0.930 . S
H1730 C1740 0.930 . S
H1731 C1743 0.929 . S
H1732 C1746 0.930 . S
H1733 C1748 0.960 . S
H1734 C1748 0.960 . S
H1735 C1748 0.960 . S
C1736 H1728 0.929 . S
C1736 C1737 1.377 . S
C1736 C1738 1.384 . S
C1737 C1736 1.377 . S
C1737 C1743 1.390 . S
C1738 H1729 0.930 . S
C1738 C1736 1.384 . S
C1738 C1739 1.372 . S
C1739 C1738 1.372 . S
C1739 C1740 1.400 . S
C1739 C1744 1.490 . S
C1740 H1730 0.930 . S
C1740 C1739 1.400 . S
C1740 C1743 1.386 . S
H1741 C1757 0.930 . S
H1742 C1758 0.931 . S
C1743 H1731 0.929 . S
C1743 C1737 1.390 . S
C1743 C1740 1.386 . S
C1744 C1739 1.490 . S
C1744 C1746 1.395 . S
C1744 C1747 1.403 . S
H1745 C1751 0.930 . S
C1746 H1732 0.930 . S
C1746 C1744 1.395 . S
C1746 C1749 1.403 . S
C1747 C1744 1.403 . S
C1747 C1748 1.524 . S
C1747 C1751 1.400 . S
C1748 H1733 0.960 . S
C1748 H1734 0.960 . S
C1748 H1735 0.960 . S
C1748 C1747 1.524 . S
C1749 C1746 1.403 . S
C1749 C1750 1.392 . S
C1749 C1753 1.495 . S
C1750 C1749 1.392 . S
C1750 C1751 1.385 . S
C1750 C1752 1.478 . S
C1751 H1745 0.930 . S
C1751 C1747 1.400 . S
C1751 C1750 1.385 . S
C1752 C1750 1.478 . S
C1752 C1754 1.381 . S
C1752 C1758 1.383 . S
C1753 C1749 1.495 . S
C1753 H1759 0.959 . S
C1753 H1760 0.961 . S
C1753 H1761 0.960 . S
C1754 C1752 1.381 . S
C1754 C1755 1.394 . S
C1754 H1762 0.930 . S
C1755 C1754 1.394 . S
C1755 C1756 1.383 . S
C1755 H1763 0.929 . S
C1756 C1755 1.383 . S
C1756 C1757 1.377 . S
C1757 H1741 0.930 . S
C1757 C1756 1.377 . S
C1757 C1758 1.379 . S
C1758 H1742 0.931 . S
C1758 C1752 1.383 . S
C1758 C1757 1.379 . S
H1759 C1753 0.959 . S
H1760 C1753 0.961 . S
H1761 C1753 0.960 . S
H1762 C1754 0.930 . S
H1763 C1755 0.929 . S
H1764 C1772 0.929 . S
H1765 C1774 0.930 . S
H1766 C1776 0.930 . S
H1767 C1779 0.929 . S
H1768 C1782 0.930 . S
H1769 C1784 0.960 . S
H1770 C1784 0.960 . S
H1771 C1784 0.960 . S
C1772 H1764 0.929 . S
C1772 C1773 1.377 . S
C1772 C1774 1.384 . S
C1773 C1772 1.377 . S
C1773 C1779 1.390 . S
C1774 H1765 0.930 . S
C1774 C1772 1.384 . S
C1774 C1775 1.372 . S
C1775 C1774 1.372 . S
C1775 C1776 1.400 . S
C1775 C1780 1.495 1_554 S
C1776 H1766 0.930 . S
C1776 C1775 1.400 . S
C1776 C1779 1.386 . S
H1777 C1793 0.930 . S
H1778 C1794 0.931 . S
C1779 H1767 0.929 . S
C1779 C1773 1.390 . S
C1779 C1776 1.386 . S
C1780 C1775 1.495 1_556 S
C1780 C1782 1.391 . S
C1780 C1783 1.401 . S
H1781 C1787 0.930 . S
C1782 H1768 0.930 . S
C1782 C1780 1.391 . S
C1782 C1785 1.403 . S
C1783 C1780 1.401 . S
C1783 C1784 1.524 1_556 S
C1783 C1787 1.400 . S
C1784 H1769 0.960 . S
C1784 H1770 0.960 . S
C1784 H1771 0.960 . S
C1784 C1783 1.524 1_554 S
C1785 C1782 1.403 . S
C1785 C1786 1.392 . S
C1785 C1789 1.495 . S
C1786 C1785 1.392 . S
C1786 C1787 1.385 . S
C1786 C1788 1.478 . S
C1787 H1781 0.930 . S
C1787 C1783 1.400 . S
C1787 C1786 1.385 . S
C1788 C1786 1.478 . S
C1788 C1790 1.381 . S
C1788 C1794 1.383 . S
C1789 C1785 1.495 . S
C1789 H1795 0.959 . S
C1789 H1796 0.961 . S
C1789 H1797 0.960 . S
C1790 C1788 1.381 . S
C1790 C1791 1.394 . S
C1790 H1798 0.930 . S
C1791 C1790 1.394 . S
C1791 C1792 1.383 . S
C1791 H1799 0.929 . S
C1792 C1791 1.383 . S
C1792 C1793 1.377 . S
C1793 H1777 0.930 . S
C1793 C1792 1.377 . S
C1793 C1794 1.379 . S
C1794 H1778 0.931 . S
C1794 C1788 1.383 . S
C1794 C1793 1.379 . S
H1795 C1789 0.959 . S
H1796 C1789 0.961 . S
H1797 C1789 0.960 . S
H1798 C1790 0.930 . S
H1799 C1791 0.929 . S
H1800 C1808 0.929 . S
H1801 C1810 0.930 . S
H1802 C1812 0.930 . S
H1803 C1815 0.929 . S
H1804 C1818 0.930 . S
H1805 C1820 0.960 . S
H1806 C1820 0.960 . S
H1807 C1820 0.960 . S
C1808 H1800 0.929 . S
C1808 C1809 1.377 . S
C1808 C1810 1.384 . S
C1809 C1808 1.377 . S
C1809 C1815 1.390 . S
C1810 H1801 0.930 . S
C1810 C1808 1.384 . S
C1810 C1811 1.372 . S
C1811 C1810 1.372 . S
C1811 C1812 1.400 . S
C1811 C1816 1.490 . S
C1812 H1802 0.930 . S
C1812 C1811 1.400 . S
C1812 C1815 1.386 . S
H1813 C1829 0.930 . S
H1814 C1830 0.931 . S
C1815 H1803 0.929 . S
C1815 C1809 1.390 . S
C1815 C1812 1.386 . S
C1816 C1811 1.490 . S
C1816 C1818 1.395 . S
C1816 C1819 1.403 . S
H1817 C1823 0.930 . S
C1818 H1804 0.930 . S
C1818 C1816 1.395 . S
C1818 C1821 1.403 . S
C1819 C1816 1.403 . S
C1819 C1820 1.524 . S
C1819 C1823 1.400 . S
C1820 H1805 0.960 . S
C1820 H1806 0.960 . S
C1820 H1807 0.960 . S
C1820 C1819 1.524 . S
C1821 C1818 1.403 . S
C1821 C1822 1.392 . S
C1821 C1825 1.495 . S
C1822 C1821 1.392 . S
C1822 C1823 1.385 . S
C1822 C1824 1.478 . S
C1823 H1817 0.930 . S
C1823 C1819 1.400 . S
C1823 C1822 1.385 . S
C1824 C1822 1.478 . S
C1824 C1826 1.381 . S
C1824 C1830 1.383 . S
C1825 C1821 1.495 . S
C1825 H1831 0.959 . S
C1825 H1832 0.961 . S
C1825 H1833 0.960 . S
C1826 C1824 1.381 . S
C1826 C1827 1.394 . S
C1826 H1834 0.930 . S
C1827 C1826 1.394 . S
C1827 C1828 1.383 . S
C1827 H1835 0.929 . S
C1828 C1827 1.383 . S
C1828 C1829 1.377 . S
C1829 H1813 0.930 . S
C1829 C1828 1.377 . S
C1829 C1830 1.379 . S
C1830 H1814 0.931 . S
C1830 C1824 1.383 . S
C1830 C1829 1.379 . S
H1831 C1825 0.959 . S
H1832 C1825 0.961 . S
H1833 C1825 0.960 . S
H1834 C1826 0.930 . S
H1835 C1827 0.929 . S
H1836 C1844 0.929 . S
H1837 C1846 0.930 . S
H1838 C1848 0.930 . S
H1839 C1851 0.929 . S
H1840 C1854 0.930 . S
H1841 C1856 0.960 . S
H1842 C1856 0.960 . S
H1843 C1856 0.960 . S
C1844 H1836 0.929 . S
C1844 C1845 1.377 . S
C1844 C1846 1.384 . S
C1845 C1844 1.377 . S
C1845 C1851 1.390 . S
C1846 H1837 0.930 . S
C1846 C1844 1.384 . S
C1846 C1847 1.372 . S
C1847 C1846 1.372 . S
C1847 C1848 1.400 . S
C1847 C1852 1.490 . S
C1848 H1838 0.930 . S
C1848 C1847 1.400 . S
C1848 C1851 1.386 . S
H1849 C1865 0.930 . S
H1850 C1866 0.931 . S
C1851 H1839 0.929 . S
C1851 C1845 1.390 . S
C1851 C1848 1.386 . S
C1852 C1847 1.490 . S
C1852 C1854 1.395 . S
C1852 C1855 1.403 . S
H1853 C1859 0.930 1_556 S
C1854 H1840 0.930 . S
C1854 C1852 1.395 . S
C1854 C1857 1.403 . S
C1855 C1852 1.403 . S
C1855 C1856 1.524 . S
C1855 C1859 1.400 . S
C1856 H1841 0.960 . S
C1856 H1842 0.960 . S
C1856 H1843 0.960 . S
C1856 C1855 1.524 . S
C1857 C1854 1.403 . S
C1857 C1858 1.396 1_554 S
C1857 C1861 1.495 . S
C1858 C1857 1.396 1_556 S
C1858 C1859 1.386 1_556 S
C1858 C1860 1.473 . S
C1859 H1853 0.930 1_554 S
C1859 C1855 1.400 . S
C1859 C1858 1.386 1_554 S
C1860 C1858 1.473 . S
C1860 C1862 1.381 . S
C1860 C1866 1.383 . S
C1861 C1857 1.495 . S
C1861 H1867 0.959 . S
C1861 H1868 0.961 . S
C1861 H1869 0.961 . S
C1862 C1860 1.381 . S
C1862 C1863 1.394 . S
C1862 H1870 0.930 . S
C1863 C1862 1.394 . S
C1863 C1864 1.383 . S
C1863 H1871 0.929 . S
C1864 C1863 1.383 . S
C1864 C1865 1.377 . S
C1865 H1849 0.930 . S
C1865 C1864 1.377 . S
C1865 C1866 1.379 . S
C1866 H1850 0.931 . S
C1866 C1860 1.383 . S
C1866 C1865 1.379 . S
H1867 C1861 0.959 . S
H1868 C1861 0.961 . S
H1869 C1861 0.961 . S
H1870 C1862 0.930 . S
H1871 C1863 0.929 . S
H1872 C1880 0.929 . S
H1873 C1882 0.930 . S
H1874 C1884 0.930 . S
H1875 C1887 0.929 . S
H1876 C1890 0.930 . S
H1877 C1892 0.960 . S
H1878 C1892 0.960 . S
H1879 C1892 0.960 . S
C1880 H1872 0.929 . S
C1880 C1881 1.377 . S
C1880 C1882 1.384 . S
C1881 C1880 1.377 . S
C1881 C1887 1.390 . S
C1882 H1873 0.930 . S
C1882 C1880 1.384 . S
C1882 C1883 1.372 . S
C1883 C1882 1.372 . S
C1883 C1884 1.400 . S
C1883 C1888 1.490 . S
C1884 H1874 0.930 . S
C1884 C1883 1.400 . S
C1884 C1887 1.386 . S
H1885 C1901 0.930 . S
H1886 C1902 0.931 . S
C1887 H1875 0.929 . S
C1887 C1881 1.390 . S
C1887 C1884 1.386 . S
C1888 C1883 1.490 . S
C1888 C1890 1.395 . S
C1888 C1891 1.403 . S
H1889 C1895 0.930 . S
C1890 H1876 0.930 . S
C1890 C1888 1.395 . S
C1890 C1893 1.403 . S
C1891 C1888 1.403 . S
C1891 C1892 1.524 . S
C1891 C1895 1.400 . S
C1892 H1877 0.960 . S
C1892 H1878 0.960 . S
C1892 H1879 0.960 . S
C1892 C1891 1.524 . S
C1893 C1890 1.403 . S
C1893 C1894 1.392 . S
C1893 C1897 1.495 . S
C1894 C1893 1.392 . S
C1894 C1895 1.385 . S
C1894 C1896 1.478 . S
C1895 H1889 0.930 . S
C1895 C1891 1.400 . S
C1895 C1894 1.385 . S
C1896 C1894 1.478 . S
C1896 C1898 1.381 . S
C1896 C1902 1.383 . S
C1897 C1893 1.495 . S
C1897 H1903 0.959 . S
C1897 H1904 0.961 . S
C1897 H1905 0.960 . S
C1898 C1896 1.381 . S
C1898 C1899 1.394 . S
C1898 H1906 0.930 . S
C1899 C1898 1.394 . S
C1899 C1900 1.383 . S
C1899 H1907 0.929 . S
C1900 C1899 1.383 . S
C1900 C1901 1.377 . S
C1901 H1885 0.930 . S
C1901 C1900 1.377 . S
C1901 C1902 1.379 . S
C1902 H1886 0.931 . S
C1902 C1896 1.383 . S
C1902 C1901 1.379 . S
H1903 C1897 0.959 . S
H1904 C1897 0.961 . S
H1905 C1897 0.960 . S
H1906 C1898 0.930 . S
H1907 C1899 0.929 . S
H1908 C1916 0.929 . S
H1909 C1918 0.930 . S
H1910 C1920 0.930 . S
H1911 C1923 0.929 . S
H1912 C1926 0.930 . S
H1913 C1928 0.960 1_455 S
H1914 C1928 0.960 . S
H1915 C1928 0.960 . S
C1916 H1908 0.929 . S
C1916 C1917 1.377 . S
C1916 C1918 1.384 . S
C1917 C1916 1.377 . S
C1917 C1923 1.390 . S
C1918 H1909 0.930 . S
C1918 C1916 1.384 . S
C1918 C1919 1.372 . S
C1919 C1918 1.372 . S
C1919 C1920 1.400 . S
C1919 C1924 1.490 1_655 S
C1920 H1910 0.930 . S
C1920 C1919 1.400 . S
C1920 C1923 1.386 . S
H1921 C1937 0.930 . S
H1922 C1938 0.931 . S
C1923 H1911 0.929 . S
C1923 C1917 1.390 . S
C1923 C1920 1.386 . S
C1924 C1919 1.490 1_455 S
C1924 C1926 1.395 . S
C1924 C1927 1.403 . S
H1925 C1931 0.930 . S
C1926 H1912 0.930 . S
C1926 C1924 1.395 . S
C1926 C1929 1.403 . S
C1927 C1924 1.403 . S
C1927 C1928 1.524 1_455 S
C1927 C1931 1.400 . S
C1928 H1913 0.960 1_655 S
C1928 H1914 0.960 . S
C1928 H1915 0.960 . S
C1928 C1927 1.524 1_655 S
C1929 C1926 1.403 . S
C1929 C1930 1.392 . S
C1929 C1933 1.495 . S
C1930 C1929 1.392 . S
C1930 C1931 1.385 . S
C1930 C1932 1.478 . S
C1931 H1925 0.930 . S
C1931 C1927 1.400 . S
C1931 C1930 1.385 . S
C1932 C1930 1.478 . S
C1932 C1934 1.381 . S
C1932 C1938 1.383 . S
C1933 C1929 1.495 . S
C1933 H1939 0.959 . S
C1933 H1940 0.961 . S
C1933 H1941 0.960 . S
C1934 C1932 1.381 . S
C1934 C1935 1.394 . S
C1934 H1942 0.930 . S
C1935 C1934 1.394 . S
C1935 C1936 1.383 . S
C1935 H1943 0.929 . S
C1936 C1935 1.383 . S
C1936 C1937 1.377 . S
C1937 H1921 0.930 . S
C1937 C1936 1.377 . S
C1937 C1938 1.379 . S
C1938 H1922 0.931 . S
C1938 C1932 1.383 . S
C1938 C1937 1.379 . S
H1939 C1933 0.959 . S
H1940 C1933 0.961 . S
H1941 C1933 0.960 . S
H1942 C1934 0.930 . S
H1943 C1935 0.929 . S
H1944 C1952 0.929 . S
H1945 C1954 0.930 . S
H1946 C1956 0.930 . S
H1947 C1959 0.929 . S
H1948 C1962 0.930 1_455 S
H1949 C1964 0.960 . S
H1950 C1964 0.960 . S
H1951 C1964 0.960 . S
C1952 H1944 0.929 . S
C1952 C1953 1.377 . S
C1952 C1954 1.384 . S
C1953 C1952 1.377 . S
C1953 C1959 1.390 . S
C1954 H1945 0.930 . S
C1954 C1952 1.384 . S
C1954 C1955 1.372 . S
C1955 C1954 1.372 . S
C1955 C1956 1.400 . S
C1955 C1960 1.490 1_455 S
C1956 H1946 0.930 . S
C1956 C1955 1.400 . S
C1956 C1959 1.386 . S
H1957 C1973 0.930 . S
H1958 C1974 0.931 . S
C1959 H1947 0.929 . S
C1959 C1953 1.390 . S
C1959 C1956 1.386 . S
C1960 C1955 1.490 1_655 S
C1960 C1962 1.395 . S
C1960 C1963 1.403 . S
H1961 C1967 0.930 . S
C1962 H1948 0.930 1_655 S
C1962 C1960 1.395 . S
C1962 C1965 1.403 . S
C1963 C1960 1.403 . S
C1963 C1964 1.524 . S
C1963 C1967 1.400 . S
C1964 H1949 0.960 . S
C1964 H1950 0.960 . S
C1964 H1951 0.960 . S
C1964 C1963 1.524 . S
C1965 C1962 1.403 . S
C1965 C1966 1.392 . S
C1965 C1969 1.495 . S
C1966 C1965 1.392 . S
C1966 C1967 1.385 . S
C1966 C1968 1.478 . S
C1967 H1961 0.930 . S
C1967 C1963 1.400 . S
C1967 C1966 1.385 . S
C1968 C1966 1.478 . S
C1968 C1970 1.381 . S
C1968 C1974 1.383 . S
C1969 C1965 1.495 . S
C1969 H1975 0.959 . S
C1969 H1976 0.961 . S
C1969 H1977 0.960 . S
C1970 C1968 1.381 . S
C1970 C1971 1.394 . S
C1970 H1978 0.930 . S
C1971 C1970 1.394 . S
C1971 C1972 1.383 . S
C1971 H1979 0.929 . S
C1972 C1971 1.383 . S
C1972 C1973 1.377 . S
C1973 H1957 0.930 . S
C1973 C1972 1.377 . S
C1973 C1974 1.379 . S
C1974 H1958 0.931 . S
C1974 C1968 1.383 . S
C1974 C1973 1.379 . S
H1975 C1969 0.959 . S
H1976 C1969 0.961 . S
H1977 C1969 0.960 . S
H1978 C1970 0.930 . S
H1979 C1971 0.929 . S
H1980 C1988 0.929 . S
H1981 C1990 0.930 . S
H1982 C1992 0.930 . S
H1983 C1995 0.929 . S
H1984 C1998 0.930 . S
H1985 C2000 0.960 . S
H1986 C2000 0.960 . S
H1987 C2000 0.960 . S
C1988 H1980 0.929 . S
C1988 C1989 1.377 . S
C1988 C1990 1.384 . S
C1989 C1988 1.377 . S
C1989 C1995 1.390 . S
C1990 H1981 0.930 . S
C1990 C1988 1.384 . S
C1990 C1991 1.372 . S
C1991 C1990 1.372 . S
C1991 C1992 1.400 . S
C1991 C1996 1.490 . S
C1992 H1982 0.930 . S
C1992 C1991 1.400 . S
C1992 C1995 1.386 . S
H1993 C2009 0.930 . S
H1994 C2010 0.931 . S
C1995 H1983 0.929 . S
C1995 C1989 1.390 . S
C1995 C1992 1.386 . S
C1996 C1991 1.490 . S
C1996 C1998 1.395 . S
C1996 C1999 1.403 . S
H1997 C2003 0.930 . S
C1998 H1984 0.930 . S
C1998 C1996 1.395 . S
C1998 C2001 1.403 . S
C1999 C1996 1.403 . S
C1999 C2000 1.524 . S
C1999 C2003 1.400 . S
C2000 H1985 0.960 . S
C2000 H1986 0.960 . S
C2000 H1987 0.960 . S
C2000 C1999 1.524 . S
C2001 C1998 1.403 . S
C2001 C2002 1.392 . S
C2001 C2005 1.495 . S
C2002 C2001 1.392 . S
C2002 C2003 1.385 . S
C2002 C2004 1.478 . S
C2003 H1997 0.930 . S
C2003 C1999 1.400 . S
C2003 C2002 1.385 . S
C2004 C2002 1.478 . S
C2004 C2006 1.381 . S
C2004 C2010 1.383 . S
C2005 C2001 1.495 . S
C2005 H2011 0.959 . S
C2005 H2012 0.961 . S
C2005 H2013 0.960 . S
C2006 C2004 1.381 . S
C2006 C2007 1.394 . S
C2006 H2014 0.930 . S
C2007 C2006 1.394 . S
C2007 C2008 1.383 . S
C2007 H2015 0.929 . S
C2008 C2007 1.383 . S
C2008 C2009 1.377 . S
C2009 H1993 0.930 . S
C2009 C2008 1.377 . S
C2009 C2010 1.379 . S
C2010 H1994 0.931 . S
C2010 C2004 1.383 . S
C2010 C2009 1.379 . S
H2011 C2005 0.959 . S
H2012 C2005 0.961 . S
H2013 C2005 0.960 . S
H2014 C2006 0.930 . S
H2015 C2007 0.929 . S
H2016 C2024 0.929 . S
H2017 C2026 0.930 . S
H2018 C2028 0.930 . S
H2019 C2031 0.929 . S
H2020 C2034 0.930 . S
H2021 C2036 0.960 . S
H2022 C2036 0.960 . S
H2023 C2036 0.960 . S
C2024 H2016 0.929 . S
C2024 C2025 1.377 . S
C2024 C2026 1.384 . S
C2025 C2024 1.377 . S
C2025 C2031 1.390 . S
C2026 H2017 0.930 . S
C2026 C2024 1.384 . S
C2026 C2027 1.372 . S
C2027 C2026 1.372 . S
C2027 C2028 1.400 . S
C2027 C2032 1.490 . S
C2028 H2018 0.930 . S
C2028 C2027 1.400 . S
C2028 C2031 1.386 . S
H2029 C2045 0.930 . S
H2030 C2046 0.931 . S
C2031 H2019 0.929 . S
C2031 C2025 1.390 . S
C2031 C2028 1.386 . S
C2032 C2027 1.490 . S
C2032 C2034 1.395 . S
C2032 C2035 1.403 . S
H2033 C2039 0.930 . S
C2034 H2020 0.930 . S
C2034 C2032 1.395 . S
C2034 C2037 1.403 . S
C2035 C2032 1.403 . S
C2035 C2036 1.524 . S
C2035 C2039 1.400 . S
C2036 H2021 0.960 . S
C2036 H2022 0.960 . S
C2036 H2023 0.960 . S
C2036 C2035 1.524 . S
C2037 C2034 1.403 . S
C2037 C2038 1.392 . S
C2037 C2041 1.495 . S
C2038 C2037 1.392 . S
C2038 C2039 1.385 . S
C2038 C2040 1.478 . S
C2039 H2033 0.930 . S
C2039 C2035 1.400 . S
C2039 C2038 1.385 . S
C2040 C2038 1.478 . S
C2040 C2042 1.381 . S
C2040 C2046 1.383 . S
C2041 C2037 1.495 . S
C2041 H2047 0.959 . S
C2041 H2048 0.961 . S
C2041 H2049 0.960 . S
C2042 C2040 1.381 . S
C2042 C2043 1.394 . S
C2042 H2050 0.930 . S
C2043 C2042 1.394 . S
C2043 C2044 1.383 . S
C2043 H2051 0.929 . S
C2044 C2043 1.383 . S
C2044 C2045 1.377 . S
C2045 H2029 0.930 . S
C2045 C2044 1.377 . S
C2045 C2046 1.379 . S
C2046 H2030 0.931 . S
C2046 C2040 1.383 . S
C2046 C2045 1.379 . S
H2047 C2041 0.959 . S
H2048 C2041 0.961 . S
H2049 C2041 0.960 . S
H2050 C2042 0.930 . S
H2051 C2043 0.929 . S
H2052 C2060 0.929 . S
H2053 C2062 0.930 . S
H2054 C2064 0.930 . S
H2055 C2067 0.929 . S
H2056 C2070 0.930 . S
H2057 C2072 0.960 . S
H2058 C2072 0.960 1_565 S
H2059 C2072 0.960 1_565 S
C2060 H2052 0.929 . S
C2060 C2061 1.377 . S
C2060 C2062 1.384 . S
C2061 C2060 1.377 . S
C2061 C2067 1.390 . S
C2062 H2053 0.930 . S
C2062 C2060 1.384 . S
C2062 C2063 1.372 . S
C2063 C2062 1.372 . S
C2063 C2064 1.400 . S
C2063 C2068 1.490 1_565 S
C2064 H2054 0.930 . S
C2064 C2063 1.400 . S
C2064 C2067 1.386 . S
H2065 C2081 0.930 . S
H2066 C2082 0.931 . S
C2067 H2055 0.929 . S
C2067 C2061 1.390 . S
C2067 C2064 1.386 . S
C2068 C2063 1.490 1_545 S
C2068 C2070 1.395 . S
C2068 C2071 1.403 . S
H2069 C2075 0.930 . S
C2070 H2056 0.930 . S
C2070 C2068 1.395 . S
C2070 C2073 1.403 . S
C2071 C2068 1.403 . S
C2071 C2072 1.524 . S
C2071 C2075 1.400 . S
C2072 H2057 0.960 . S
C2072 H2058 0.960 1_545 S
C2072 H2059 0.960 1_545 S
C2072 C2071 1.524 . S
C2073 C2070 1.403 . S
C2073 C2074 1.392 . S
C2073 C2077 1.495 . S
C2074 C2073 1.392 . S
C2074 C2075 1.385 . S
C2074 C2076 1.478 . S
C2075 H2069 0.930 . S
C2075 C2071 1.400 . S
C2075 C2074 1.385 . S
C2076 C2074 1.478 . S
C2076 C2078 1.381 . S
C2076 C2082 1.383 . S
C2077 C2073 1.495 . S
C2077 H2083 0.959 . S
C2077 H2084 0.961 . S
C2077 H2085 0.960 . S
C2078 C2076 1.381 . S
C2078 C2079 1.394 . S
C2078 H2086 0.930 . S
C2079 C2078 1.394 . S
C2079 C2080 1.383 . S
C2079 H2087 0.929 . S
C2080 C2079 1.383 . S
C2080 C2081 1.377 . S
C2081 H2065 0.930 . S
C2081 C2080 1.377 . S
C2081 C2082 1.379 . S
C2082 H2066 0.931 . S
C2082 C2076 1.383 . S
C2082 C2081 1.379 . S
H2083 C2077 0.959 . S
H2084 C2077 0.961 . S
H2085 C2077 0.960 . S
H2086 C2078 0.930 . S
H2087 C2079 0.929 . S
H2088 C2096 0.929 . S
H2089 C2098 0.930 . S
H2090 C2100 0.930 . S
H2091 C2103 0.929 . S
H2092 C2106 0.930 . S
H2093 C2108 0.960 . S
H2094 C2108 0.960 . S
H2095 C2108 0.960 . S
C2096 H2088 0.929 . S
C2096 C2097 1.377 . S
C2096 C2098 1.384 . S
C2097 C2096 1.377 . S
C2097 C2103 1.390 . S
C2098 H2089 0.930 . S
C2098 C2096 1.384 . S
C2098 C2099 1.372 . S
C2099 C2098 1.372 . S
C2099 C2100 1.400 . S
C2099 C2104 1.490 1_545 S
C2100 H2090 0.930 . S
C2100 C2099 1.400 . S
C2100 C2103 1.386 . S
H2101 C2117 0.930 . S
H2102 C2118 0.931 . S
C2103 H2091 0.929 . S
C2103 C2097 1.390 . S
C2103 C2100 1.386 . S
C2104 C2099 1.490 1_565 S
C2104 C2106 1.395 . S
C2104 C2107 1.403 . S
H2105 C2111 0.930 . S
C2106 H2092 0.930 . S
C2106 C2104 1.395 . S
C2106 C2109 1.403 . S
C2107 C2104 1.403 . S
C2107 C2108 1.524 . S
C2107 C2111 1.400 . S
C2108 H2093 0.960 . S
C2108 H2094 0.960 . S
C2108 H2095 0.960 . S
C2108 C2107 1.524 . S
C2109 C2106 1.403 . S
C2109 C2110 1.392 . S
C2109 C2113 1.495 . S
C2110 C2109 1.392 . S
C2110 C2111 1.385 . S
C2110 C2112 1.478 . S
C2111 H2105 0.930 . S
C2111 C2107 1.400 . S
C2111 C2110 1.385 . S
C2112 C2110 1.478 . S
C2112 C2114 1.381 . S
C2112 C2118 1.383 . S
C2113 C2109 1.495 . S
C2113 H2119 0.959 . S
C2113 H2120 0.961 . S
C2113 H2121 0.960 . S
C2114 C2112 1.381 . S
C2114 C2115 1.394 . S
C2114 H2122 0.930 . S
C2115 C2114 1.394 . S
C2115 C2116 1.383 . S
C2115 H2123 0.929 . S
C2116 C2115 1.383 . S
C2116 C2117 1.377 . S
C2117 H2101 0.930 . S
C2117 C2116 1.377 . S
C2117 C2118 1.379 . S
C2118 H2102 0.931 . S
C2118 C2112 1.383 . S
C2118 C2117 1.379 . S
H2119 C2113 0.959 . S
H2120 C2113 0.961 . S
H2121 C2113 0.960 . S
H2122 C2114 0.930 . S
H2123 C2115 0.929 . S
H2124 C2132 0.929 . S
H2125 C2134 0.930 . S
H2126 C2136 0.930 . S
H2127 C2139 0.929 . S
H2128 C2142 0.930 . S
H2129 C2144 0.960 . S
H2130 C2144 0.960 . S
H2131 C2144 0.960 . S
C2132 H2124 0.929 . S
C2132 C2133 1.377 . S
C2132 C2134 1.384 . S
C2133 C2132 1.377 . S
C2133 C2139 1.390 . S
C2134 H2125 0.930 . S
C2134 C2132 1.384 . S
C2134 C2135 1.372 . S
C2135 C2134 1.372 . S
C2135 C2136 1.400 . S
C2135 C2140 1.490 . S
C2136 H2126 0.930 . S
C2136 C2135 1.400 . S
C2136 C2139 1.386 . S
H2137 C2153 0.930 . S
H2138 C2154 0.931 . S
C2139 H2127 0.929 . S
C2139 C2133 1.390 . S
C2139 C2136 1.386 . S
C2140 C2135 1.490 . S
C2140 C2142 1.395 . S
C2140 C2143 1.403 . S
H2141 C2147 0.930 . S
C2142 H2128 0.930 . S
C2142 C2140 1.395 . S
C2142 C2145 1.403 . S
C2143 C2140 1.403 . S
C2143 C2144 1.524 . S
C2143 C2147 1.400 . S
C2144 H2129 0.960 . S
C2144 H2130 0.960 . S
C2144 H2131 0.960 . S
C2144 C2143 1.524 . S
C2145 C2142 1.403 . S
C2145 C2146 1.392 . S
C2145 C2149 1.495 . S
C2146 C2145 1.392 . S
C2146 C2147 1.385 . S
C2146 C2148 1.478 . S
C2147 H2141 0.930 . S
C2147 C2143 1.400 . S
C2147 C2146 1.385 . S
C2148 C2146 1.478 . S
C2148 C2150 1.381 . S
C2148 C2154 1.383 . S
C2149 C2145 1.495 . S
C2149 H2155 0.959 . S
C2149 H2156 0.961 . S
C2149 H2157 0.960 . S
C2150 C2148 1.381 . S
C2150 C2151 1.394 . S
C2150 H2158 0.930 . S
C2151 C2150 1.394 . S
C2151 C2152 1.383 . S
C2151 H2159 0.929 . S
C2152 C2151 1.383 . S
C2152 C2153 1.377 . S
C2153 H2137 0.930 . S
C2153 C2152 1.377 . S
C2153 C2154 1.379 . S
C2154 H2138 0.931 . S
C2154 C2148 1.383 . S
C2154 C2153 1.379 . S
H2155 C2149 0.959 . S
H2156 C2149 0.961 . S
H2157 C2149 0.960 . S
H2158 C2150 0.930 . S
H2159 C2151 0.929 . S
H2160 C2168 0.929 . S
H2161 C2170 0.930 . S
H2162 C2172 0.930 . S
H2163 C2175 0.929 . S
H2164 C2178 0.930 . S
H2165 C2180 0.960 . S
H2166 C2180 0.960 . S
H2167 C2180 0.960 . S
C2168 H2160 0.929 . S
C2168 C2169 1.377 . S
C2168 C2170 1.384 . S
C2169 C2168 1.377 . S
C2169 C2175 1.390 . S
C2170 H2161 0.930 . S
C2170 C2168 1.384 . S
C2170 C2171 1.372 . S
C2171 C2170 1.372 . S
C2171 C2172 1.400 . S
C2171 C2176 1.490 . S
C2172 H2162 0.930 . S
C2172 C2171 1.400 . S
C2172 C2175 1.386 . S
H2173 C2189 0.930 . S
H2174 C2190 0.931 . S
C2175 H2163 0.929 . S
C2175 C2169 1.390 . S
C2175 C2172 1.386 . S
C2176 C2171 1.490 . S
C2176 C2178 1.395 . S
C2176 C2179 1.403 . S
H2177 C2183 0.930 . S
C2178 H2164 0.930 . S
C2178 C2176 1.395 . S
C2178 C2181 1.403 . S
C2179 C2176 1.403 . S
C2179 C2180 1.524 . S
C2179 C2183 1.400 . S
C2180 H2165 0.960 . S
C2180 H2166 0.960 . S
C2180 H2167 0.960 . S
C2180 C2179 1.524 . S
C2181 C2178 1.403 . S
C2181 C2182 1.392 . S
C2181 C2185 1.495 . S
C2182 C2181 1.392 . S
C2182 C2183 1.385 . S
C2182 C2184 1.478 . S
C2183 H2177 0.930 . S
C2183 C2179 1.400 . S
C2183 C2182 1.385 . S
C2184 C2182 1.478 . S
C2184 C2186 1.381 . S
C2184 C2190 1.383 . S
C2185 C2181 1.495 . S
C2185 H2191 0.959 . S
C2185 H2192 0.961 . S
C2185 H2193 0.960 . S
C2186 C2184 1.381 . S
C2186 C2187 1.394 . S
C2186 H2194 0.930 . S
C2187 C2186 1.394 . S
C2187 C2188 1.383 . S
C2187 H2195 0.929 . S
C2188 C2187 1.383 . S
C2188 C2189 1.377 . S
C2189 H2173 0.930 . S
C2189 C2188 1.377 . S
C2189 C2190 1.379 . S
C2190 H2174 0.931 . S
C2190 C2184 1.383 . S
C2190 C2189 1.379 . S
H2191 C2185 0.959 . S
H2192 C2185 0.961 . S
H2193 C2185 0.960 . S
H2194 C2186 0.930 . S
H2195 C2187 0.929 . S
H2196 C2204 0.929 . S
H2197 C2206 0.930 . S
H2198 C2208 0.930 . S
H2199 C2211 0.929 . S
H2200 C2214 0.930 . S
H2201 C2216 0.960 1_554 S
H2202 C2216 0.960 . S
H2203 C2216 0.960 . S
C2204 H2196 0.929 . S
C2204 C2205 1.377 . S
C2204 C2206 1.384 . S
C2205 C2204 1.377 . S
C2205 C2211 1.390 . S
C2206 H2197 0.930 . S
C2206 C2204 1.384 . S
C2206 C2207 1.372 . S
C2207 C2206 1.372 . S
C2207 C2208 1.400 . S
C2207 C2212 1.490 1_556 S
C2208 H2198 0.930 . S
C2208 C2207 1.400 . S
C2208 C2211 1.386 . S
H2209 C2225 0.930 . S
H2210 C2226 0.931 . S
C2211 H2199 0.929 . S
C2211 C2205 1.390 . S
C2211 C2208 1.386 . S
C2212 C2207 1.490 1_554 S
C2212 C2214 1.395 . S
C2212 C2215 1.403 . S
H2213 C2219 0.930 . S
C2214 H2200 0.930 . S
C2214 C2212 1.395 . S
C2214 C2217 1.403 . S
C2215 C2212 1.403 . S
C2215 C2216 1.524 1_554 S
C2215 C2219 1.400 . S
C2216 H2201 0.960 1_556 S
C2216 H2202 0.960 . S
C2216 H2203 0.960 . S
C2216 C2215 1.524 1_556 S
C2217 C2214 1.403 . S
C2217 C2218 1.392 . S
C2217 C2221 1.495 . S
C2218 C2217 1.392 . S
C2218 C2219 1.385 . S
C2218 C2220 1.478 . S
C2219 H2213 0.930 . S
C2219 C2215 1.400 . S
C2219 C2218 1.385 . S
C2220 C2218 1.478 . S
C2220 C2222 1.381 . S
C2220 C2226 1.383 . S
C2221 C2217 1.495 . S
C2221 H2227 0.959 . S
C2221 H2228 0.961 . S
C2221 H2229 0.960 . S
C2222 C2220 1.381 . S
C2222 C2223 1.394 . S
C2222 H2230 0.930 . S
C2223 C2222 1.394 . S
C2223 C2224 1.383 . S
C2223 H2231 0.929 . S
C2224 C2223 1.383 . S
C2224 C2225 1.377 . S
C2225 H2209 0.930 . S
C2225 C2224 1.377 . S
C2225 C2226 1.379 . S
C2226 H2210 0.931 . S
C2226 C2220 1.383 . S
C2226 C2225 1.379 . S
H2227 C2221 0.959 . S
H2228 C2221 0.961 . S
H2229 C2221 0.960 . S
H2230 C2222 0.930 . S
H2231 C2223 0.929 . S
H2232 C2240 0.929 . S
H2233 C2242 0.930 . S
H2234 C2244 0.930 . S
H2235 C2247 0.929 . S
H2236 C2250 0.930 . S
H2237 C2252 0.960 . S
H2238 C2252 0.960 . S
H2239 C2252 0.960 . S
C2240 H2232 0.929 . S
C2240 C2241 1.377 . S
C2240 C2242 1.384 . S
C2241 C2240 1.377 . S
C2241 C2247 1.390 . S
C2242 H2233 0.930 . S
C2242 C2240 1.384 . S
C2242 C2243 1.372 . S
C2243 C2242 1.372 . S
C2243 C2244 1.400 . S
C2243 C2248 1.490 . S
C2244 H2234 0.930 . S
C2244 C2243 1.400 . S
C2244 C2247 1.386 . S
H2245 C2261 0.930 . S
H2246 C2262 0.931 . S
C2247 H2235 0.929 . S
C2247 C2241 1.390 . S
C2247 C2244 1.386 . S
C2248 C2243 1.490 . S
C2248 C2250 1.395 . S
C2248 C2251 1.403 . S
H2249 C2255 0.930 . S
C2250 H2236 0.930 . S
C2250 C2248 1.395 . S
C2250 C2253 1.403 . S
C2251 C2248 1.403 . S
C2251 C2252 1.524 . S
C2251 C2255 1.400 . S
C2252 H2237 0.960 . S
C2252 H2238 0.960 . S
C2252 H2239 0.960 . S
C2252 C2251 1.524 . S
C2253 C2250 1.403 . S
C2253 C2254 1.392 . S
C2253 C2257 1.495 . S
C2254 C2253 1.392 . S
C2254 C2255 1.385 . S
C2254 C2256 1.478 . S
C2255 H2249 0.930 . S
C2255 C2251 1.400 . S
C2255 C2254 1.385 . S
C2256 C2254 1.478 . S
C2256 C2258 1.381 . S
C2256 C2262 1.383 . S
C2257 C2253 1.495 . S
C2257 H2263 0.959 . S
C2257 H2264 0.961 . S
C2257 H2265 0.960 . S
C2258 C2256 1.381 . S
C2258 C2259 1.394 . S
C2258 H2266 0.930 . S
C2259 C2258 1.394 . S
C2259 C2260 1.383 . S
C2259 H2267 0.929 . S
C2260 C2259 1.383 . S
C2260 C2261 1.377 . S
C2261 H2245 0.930 . S
C2261 C2260 1.377 . S
C2261 C2262 1.379 . S
C2262 H2246 0.931 . S
C2262 C2256 1.383 . S
C2262 C2261 1.379 . S
H2263 C2257 0.959 . S
H2264 C2257 0.961 . S
H2265 C2257 0.960 . S
H2266 C2258 0.930 . S
H2267 C2259 0.929 . S
H2268 C2276 0.929 . S
H2269 C2278 0.930 . S
H2270 C2280 0.930 . S
H2271 C2283 0.929 . S
H2272 C2286 0.930 . S
H2273 C2288 0.966 . S
H2274 C2288 0.955 1_554 S
H2275 C2288 0.952 1_554 S
C2276 H2268 0.929 . S
C2276 C2277 1.377 . S
C2276 C2278 1.384 . S
C2277 C2276 1.377 . S
C2277 C2283 1.390 . S
C2278 H2269 0.930 . S
C2278 C2276 1.384 . S
C2278 C2279 1.372 . S
C2279 C2278 1.372 . S
C2279 C2280 1.400 . S
C2279 C2284 1.490 1_554 S
C2280 H2270 0.930 . S
C2280 C2279 1.400 . S
C2280 C2283 1.386 . S
H2281 C2297 0.930 . S
H2282 C2298 0.931 . S
C2283 H2271 0.929 . S
C2283 C2277 1.390 . S
C2283 C2280 1.386 . S
C2284 C2279 1.490 1_556 S
C2284 C2286 1.395 . S
C2284 C2287 1.403 . S
H2285 C2291 0.930 . S
C2286 H2272 0.930 . S
C2286 C2284 1.395 . S
C2286 C2289 1.403 . S
C2287 C2284 1.403 . S
C2287 C2288 1.530 . S
C2287 C2291 1.400 . S
C2288 H2273 0.966 . S
C2288 H2274 0.955 1_556 S
C2288 H2275 0.952 1_556 S
C2288 C2287 1.530 . S
C2289 C2286 1.403 . S
C2289 C2290 1.392 . S
C2289 C2293 1.495 . S
C2290 C2289 1.392 . S
C2290 C2291 1.385 . S
C2290 C2292 1.478 . S
C2291 H2285 0.930 . S
C2291 C2287 1.400 . S
C2291 C2290 1.385 . S
C2292 C2290 1.478 . S
C2292 C2294 1.381 . S
C2292 C2298 1.383 . S
C2293 C2289 1.495 . S
C2293 H2299 0.959 . S
C2293 H2300 0.961 . S
C2293 H2301 0.960 . S
C2294 C2292 1.381 . S
C2294 C2295 1.394 . S
C2294 H2302 0.930 . S
C2295 C2294 1.394 . S
C2295 C2296 1.383 . S
C2295 H2303 0.929 . S
C2296 C2295 1.383 . S
C2296 C2297 1.377 . S
C2297 H2281 0.930 . S
C2297 C2296 1.377 . S
C2297 C2298 1.379 . S
C2298 H2282 0.931 . S
C2298 C2292 1.383 . S
C2298 C2297 1.379 . S
H2299 C2293 0.959 . S
H2300 C2293 0.961 . S
H2301 C2293 0.960 . S
H2302 C2294 0.930 . S
H2303 C2295 0.929 . S
H2304 C2312 0.929 . S
H2305 C2314 0.930 . S
H2306 C2316 0.930 . S
H2307 C2319 0.929 . S
H2308 C2322 0.930 . S
H2309 C2324 0.960 . S
H2310 C2324 0.960 . S
H2311 C2324 0.960 . S
C2312 H2304 0.929 . S
C2312 C2313 1.377 . S
C2312 C2314 1.384 . S
C2313 C2312 1.377 . S
C2313 C2319 1.390 . S
C2314 H2305 0.930 . S
C2314 C2312 1.384 . S
C2314 C2315 1.372 . S
C2315 C2314 1.372 . S
C2315 C2316 1.400 . S
C2315 C2320 1.490 . S
C2316 H2306 0.930 . S
C2316 C2315 1.400 . S
C2316 C2319 1.386 . S
H2317 C2333 0.930 . S
H2318 C2334 0.931 . S
C2319 H2307 0.929 . S
C2319 C2313 1.390 . S
C2319 C2316 1.386 . S
C2320 C2315 1.490 . S
C2320 C2322 1.395 . S
C2320 C2323 1.403 . S
H2321 C2327 0.930 . S
C2322 H2308 0.930 . S
C2322 C2320 1.395 . S
C2322 C2325 1.403 . S
C2323 C2320 1.403 . S
C2323 C2324 1.524 . S
C2323 C2327 1.400 . S
C2324 H2309 0.960 . S
C2324 H2310 0.960 . S
C2324 H2311 0.960 . S
C2324 C2323 1.524 . S
C2325 C2322 1.403 . S
C2325 C2326 1.392 . S
C2325 C2329 1.495 . S
C2326 C2325 1.392 . S
C2326 C2327 1.385 . S
C2326 C2328 1.478 . S
C2327 H2321 0.930 . S
C2327 C2323 1.400 . S
C2327 C2326 1.385 . S
C2328 C2326 1.478 . S
C2328 C2330 1.381 . S
C2328 C2334 1.383 . S
C2329 C2325 1.495 . S
C2329 H2335 0.959 . S
C2329 H2336 0.961 . S
C2329 H2337 0.960 . S
C2330 C2328 1.381 . S
C2330 C2331 1.394 . S
C2330 H2338 0.930 . S
C2331 C2330 1.394 . S
C2331 C2332 1.383 . S
C2331 H2339 0.929 . S
C2332 C2331 1.383 . S
C2332 C2333 1.377 . S
C2333 H2317 0.930 . S
C2333 C2332 1.377 . S
C2333 C2334 1.379 . S
C2334 H2318 0.931 . S
C2334 C2328 1.383 . S
C2334 C2333 1.379 . S
H2335 C2329 0.959 . S
H2336 C2329 0.961 . S
H2337 C2329 0.960 . S
H2338 C2330 0.930 . S
H2339 C2331 0.929 . S
H2340 C2348 0.929 . S
H2341 C2350 0.930 . S
H2342 C2352 0.930 . S
H2343 C2355 0.929 . S
H2344 C2358 0.930 . S
H2345 C2360 0.960 . S
H2346 C2360 0.960 . S
H2347 C2360 0.960 . S
C2348 H2340 0.929 . S
C2348 C2349 1.377 . S
C2348 C2350 1.384 . S
C2349 C2348 1.377 . S
C2349 C2355 1.390 . S
C2350 H2341 0.930 . S
C2350 C2348 1.384 . S
C2350 C2351 1.372 . S
C2351 C2350 1.372 . S
C2351 C2352 1.400 . S
C2351 C2356 1.490 . S
C2352 H2342 0.930 . S
C2352 C2351 1.400 . S
C2352 C2355 1.386 . S
H2353 C2369 0.930 . S
H2354 C2370 0.931 . S
C2355 H2343 0.929 . S
C2355 C2349 1.390 . S
C2355 C2352 1.386 . S
C2356 C2351 1.490 . S
C2356 C2358 1.395 . S
C2356 C2359 1.403 . S
H2357 C2363 0.930 . S
C2358 H2344 0.930 . S
C2358 C2356 1.395 . S
C2358 C2361 1.403 . S
C2359 C2356 1.403 . S
C2359 C2360 1.524 . S
C2359 C2363 1.400 . S
C2360 H2345 0.960 . S
C2360 H2346 0.960 . S
C2360 H2347 0.960 . S
C2360 C2359 1.524 . S
C2361 C2358 1.403 . S
C2361 C2362 1.408 . S
C2361 C2365 1.495 1_655 S
C2362 C2361 1.408 . S
C2362 C2363 1.420 . S
C2362 C2364 1.430 1_655 S
C2363 H2357 0.930 . S
C2363 C2359 1.400 . S
C2363 C2362 1.420 . S
C2364 C2362 1.430 1_455 S
C2364 C2366 1.381 . S
C2364 C2370 1.383 . S
C2365 C2361 1.495 1_455 S
C2365 H2371 0.974 . S
C2365 H2372 0.961 . S
C2365 H2373 0.960 . S
C2366 C2364 1.381 . S
C2366 C2367 1.394 . S
C2366 H2374 0.930 . S
C2367 C2366 1.394 . S
C2367 C2368 1.383 . S
C2367 H2375 0.929 . S
C2368 C2367 1.383 . S
C2368 C2369 1.377 . S
C2369 H2353 0.930 . S
C2369 C2368 1.377 . S
C2369 C2370 1.379 . S
C2370 H2354 0.931 . S
C2370 C2364 1.383 . S
C2370 C2369 1.379 . S
H2371 C2365 0.974 . S
H2372 C2365 0.961 . S
H2373 C2365 0.960 . S
H2374 C2366 0.930 . S
H2375 C2367 0.929 . S
H2376 C2384 0.929 . S
H2377 C2386 0.930 . S
H2378 C2388 0.930 . S
H2379 C2391 0.929 . S
H2380 C2394 0.930 . S
H2381 C2396 0.960 . S
H2382 C2396 0.960 . S
H2383 C2396 0.960 . S
C2384 H2376 0.929 . S
C2384 C2385 1.377 . S
C2384 C2386 1.384 . S
C2385 C2384 1.377 . S
C2385 C2391 1.390 . S
C2386 H2377 0.930 . S
C2386 C2384 1.384 . S
C2386 C2387 1.372 . S
C2387 C2386 1.372 . S
C2387 C2388 1.400 . S
C2387 C2392 1.490 . S
C2388 H2378 0.930 . S
C2388 C2387 1.400 . S
C2388 C2391 1.386 . S
H2389 C2405 0.930 . S
H2390 C2406 0.931 . S
C2391 H2379 0.929 . S
C2391 C2385 1.390 . S
C2391 C2388 1.386 . S
C2392 C2387 1.490 . S
C2392 C2394 1.395 . S
C2392 C2395 1.403 . S
H2393 C2399 0.909 1_655 S
C2394 H2380 0.930 . S
C2394 C2392 1.395 . S
C2394 C2397 1.403 . S
C2395 C2392 1.403 . S
C2395 C2396 1.524 . S
C2395 C2399 1.400 . S
C2396 H2381 0.960 . S
C2396 H2382 0.960 . S
C2396 H2383 0.960 . S
C2396 C2395 1.524 . S
C2397 C2394 1.403 . S
C2397 C2398 1.392 . S
C2397 C2401 1.495 . S
C2398 C2397 1.392 . S
C2398 C2399 1.385 . S
C2398 C2400 1.478 1_455 S
C2399 H2393 0.909 1_455 S
C2399 C2395 1.400 . S
C2399 C2398 1.385 . S
C2400 C2398 1.478 1_655 S
C2400 C2402 1.381 . S
C2400 C2406 1.383 . S
C2401 C2397 1.495 . S
C2401 H2407 0.959 . S
C2401 H2408 1.001 . S
C2401 H2409 0.960 . S
C2402 C2400 1.381 . S
C2402 C2403 1.394 . S
C2402 H2410 0.930 . S
C2403 C2402 1.394 . S
C2403 C2404 1.383 . S
C2403 H2411 0.929 . S
C2404 C2403 1.383 . S
C2404 C2405 1.377 . S
C2405 H2389 0.930 . S
C2405 C2404 1.377 . S
C2405 C2406 1.379 . S
C2406 H2390 0.931 . S
C2406 C2400 1.383 . S
C2406 C2405 1.379 . S
H2407 C2401 0.959 . S
H2408 C2401 1.001 . S
H2409 C2401 0.960 . S
H2410 C2402 0.930 . S
H2411 C2403 0.929 . S
H2412 C2420 0.929 . S
H2413 C2422 0.930 . S
H2414 C2424 0.930 . S
H2415 C2427 0.929 . S
H2416 C2430 0.930 . S
H2417 C2432 0.960 . S
H2418 C2432 0.960 . S
H2419 C2432 0.960 . S
C2420 H2412 0.929 . S
C2420 C2421 1.377 . S
C2420 C2422 1.384 . S
C2421 C2420 1.377 . S
C2421 C2427 1.390 . S
C2422 H2413 0.930 . S
C2422 C2420 1.384 . S
C2422 C2423 1.372 . S
C2423 C2422 1.372 . S
C2423 C2424 1.400 . S
C2423 C2428 1.490 . S
C2424 H2414 0.930 . S
C2424 C2423 1.400 . S
C2424 C2427 1.386 . S
H2425 C2441 0.930 . S
H2426 C2442 0.931 . S
C2427 H2415 0.929 . S
C2427 C2421 1.390 . S
C2427 C2424 1.386 . S
C2428 C2423 1.490 . S
C2428 C2430 1.395 . S
C2428 C2431 1.403 . S
H2429 C2435 0.930 . S
C2430 H2416 0.930 . S
C2430 C2428 1.395 . S
C2430 C2433 1.403 . S
C2431 C2428 1.403 . S
C2431 C2432 1.524 . S
C2431 C2435 1.400 . S
C2432 H2417 0.960 . S
C2432 H2418 0.960 . S
C2432 H2419 0.960 . S
C2432 C2431 1.524 . S
C2433 C2430 1.403 . S
C2433 C2434 1.392 . S
C2433 C2437 1.495 . S
C2434 C2433 1.392 . S
C2434 C2435 1.385 . S
C2434 C2436 1.478 . S
C2435 H2429 0.930 . S
C2435 C2431 1.400 . S
C2435 C2434 1.385 . S
C2436 C2434 1.478 . S
C2436 C2438 1.381 . S
C2436 C2442 1.383 . S
C2437 C2433 1.495 . S
C2437 H2443 0.959 . S
C2437 H2444 0.961 . S
C2437 H2445 0.960 . S
C2438 C2436 1.381 . S
C2438 C2439 1.394 . S
C2438 H2446 0.930 . S
C2439 C2438 1.394 . S
C2439 C2440 1.383 . S
C2439 H2447 0.929 . S
C2440 C2439 1.383 . S
C2440 C2441 1.377 . S
C2441 H2425 0.930 . S
C2441 C2440 1.377 . S
C2441 C2442 1.379 . S
C2442 H2426 0.931 . S
C2442 C2436 1.383 . S
C2442 C2441 1.379 . S
H2443 C2437 0.959 . S
H2444 C2437 0.961 . S
H2445 C2437 0.960 . S
H2446 C2438 0.930 . S
H2447 C2439 0.929 . S
H2448 C2456 0.929 . S
H2449 C2458 0.930 . S
H2450 C2460 0.930 . S
H2451 C2463 0.929 . S
H2452 C2466 0.930 . S
H2453 C2468 0.960 . S
H2454 C2468 0.960 . S
H2455 C2468 0.960 . S
C2456 H2448 0.929 . S
C2456 C2457 1.377 . S
C2456 C2458 1.384 . S
C2457 C2456 1.377 . S
C2457 C2463 1.390 . S
C2458 H2449 0.930 . S
C2458 C2456 1.384 . S
C2458 C2459 1.372 . S
C2459 C2458 1.372 . S
C2459 C2460 1.400 . S
C2459 C2464 1.490 . S
C2460 H2450 0.930 . S
C2460 C2459 1.400 . S
C2460 C2463 1.386 . S
H2461 C2477 0.930 . S
H2462 C2478 0.931 . S
C2463 H2451 0.929 . S
C2463 C2457 1.390 . S
C2463 C2460 1.386 . S
C2464 C2459 1.490 . S
C2464 C2466 1.395 . S
C2464 C2467 1.403 . S
H2465 C2471 0.930 . S
C2466 H2452 0.930 . S
C2466 C2464 1.395 . S
C2466 C2469 1.403 . S
C2467 C2464 1.403 . S
C2467 C2468 1.524 . S
C2467 C2471 1.400 . S
C2468 H2453 0.960 . S
C2468 H2454 0.960 . S
C2468 H2455 0.960 . S
C2468 C2467 1.524 . S
C2469 C2466 1.403 . S
C2469 C2470 1.392 . S
C2469 C2473 1.495 . S
C2470 C2469 1.392 . S
C2470 C2471 1.385 . S
C2470 C2472 1.478 . S
C2471 H2465 0.930 . S
C2471 C2467 1.400 . S
C2471 C2470 1.385 . S
C2472 C2470 1.478 . S
C2472 C2474 1.381 . S
C2472 C2478 1.383 . S
C2473 C2469 1.495 . S
C2473 H2479 0.959 . S
C2473 H2480 0.961 . S
C2473 H2481 0.960 . S
C2474 C2472 1.381 . S
C2474 C2475 1.394 . S
C2474 H2482 0.930 . S
C2475 C2474 1.394 . S
C2475 C2476 1.383 . S
C2475 H2483 0.929 . S
C2476 C2475 1.383 . S
C2476 C2477 1.377 . S
C2477 H2461 0.930 . S
C2477 C2476 1.377 . S
C2477 C2478 1.379 . S
C2478 H2462 0.931 . S
C2478 C2472 1.383 . S
C2478 C2477 1.379 . S
H2479 C2473 0.959 . S
H2480 C2473 0.961 . S
H2481 C2473 0.960 . S
H2482 C2474 0.930 . S
H2483 C2475 0.929 . S
H2484 C2492 0.929 . S
H2485 C2494 0.930 . S
H2486 C2496 0.930 . S
H2487 C2499 0.929 . S
H2488 C2502 0.930 . S
H2489 C2504 0.960 . S
H2490 C2504 0.960 . S
H2491 C2504 0.960 . S
C2492 H2484 0.929 . S
C2492 C2493 1.377 . S
C2492 C2494 1.384 . S
C2493 C2492 1.377 . S
C2493 C2499 1.390 . S
C2494 H2485 0.930 . S
C2494 C2492 1.384 . S
C2494 C2495 1.372 . S
C2495 C2494 1.372 . S
C2495 C2496 1.400 . S
C2495 C2500 1.490 . S
C2496 H2486 0.930 . S
C2496 C2495 1.400 . S
C2496 C2499 1.386 . S
H2497 C2513 0.930 . S
H2498 C2514 0.931 . S
C2499 H2487 0.929 . S
C2499 C2493 1.390 . S
C2499 C2496 1.386 . S
C2500 C2495 1.490 . S
C2500 C2502 1.395 . S
C2500 C2503 1.403 . S
H2501 C2507 0.930 1_545 S
C2502 H2488 0.930 . S
C2502 C2500 1.395 . S
C2502 C2505 1.403 . S
C2503 C2500 1.403 . S
C2503 C2504 1.524 . S
C2503 C2507 1.400 . S
C2504 H2489 0.960 . S
C2504 H2490 0.960 . S
C2504 H2491 0.960 . S
C2504 C2503 1.524 . S
C2505 C2502 1.403 . S
C2505 C2506 1.392 1_565 S
C2505 C2509 1.495 . S
C2506 C2505 1.392 1_545 S
C2506 C2507 1.385 1_545 S
C2506 C2508 1.478 . S
C2507 H2501 0.930 1_565 S
C2507 C2503 1.400 . S
C2507 C2506 1.385 1_565 S
C2508 C2506 1.478 . S
C2508 C2510 1.381 . S
C2508 C2514 1.383 . S
C2509 C2505 1.495 . S
C2509 H2515 0.959 . S
C2509 H2516 0.961 1_565 S
C2509 H2517 0.961 . S
C2510 C2508 1.381 . S
C2510 C2511 1.394 . S
C2510 H2518 0.930 . S
C2511 C2510 1.394 . S
C2511 C2512 1.383 . S
C2511 H2519 0.929 . S
C2512 C2511 1.383 . S
C2512 C2513 1.377 . S
C2513 H2497 0.930 . S
C2513 C2512 1.377 . S
C2513 C2514 1.379 . S
C2514 H2498 0.931 . S
C2514 C2508 1.383 . S
C2514 C2513 1.379 . S
H2515 C2509 0.959 . S
H2516 C2509 0.961 1_545 S
H2517 C2509 0.961 . S
H2518 C2510 0.930 . S
H2519 C2511 0.929 . S
H2520 C2528 0.929 . S
H2521 C2530 0.930 . S
H2522 C2532 0.930 . S
H2523 C2535 0.929 . S
H2524 C2538 0.930 . S
H2525 C2540 0.960 . S
H2526 C2540 0.960 . S
H2527 C2540 0.960 . S
C2528 H2520 0.929 . S
C2528 C2529 1.377 . S
C2528 C2530 1.384 . S
C2529 C2528 1.377 . S
C2529 C2535 1.390 . S
C2530 H2521 0.930 . S
C2530 C2528 1.384 . S
C2530 C2531 1.372 . S
C2531 C2530 1.372 . S
C2531 C2532 1.400 . S
C2531 C2536 1.490 . S
C2532 H2522 0.930 . S
C2532 C2531 1.400 . S
C2532 C2535 1.386 . S
H2533 C2549 0.930 . S
H2534 C2550 0.931 . S
C2535 H2523 0.929 . S
C2535 C2529 1.390 . S
C2535 C2532 1.386 . S
C2536 C2531 1.490 . S
C2536 C2538 1.395 1_565 S
C2536 C2539 1.403 1_565 S
H2537 C2543 0.930 . S
C2538 H2524 0.930 . S
C2538 C2536 1.395 1_545 S
C2538 C2541 1.403 . S
C2539 C2536 1.403 1_545 S
C2539 C2540 1.524 1_545 S
C2539 C2543 1.400 . S
C2540 H2525 0.960 . S
C2540 H2526 0.960 . S
C2540 H2527 0.960 . S
C2540 C2539 1.524 1_565 S
C2541 C2538 1.403 . S
C2541 C2542 1.392 . S
C2541 C2545 1.495 . S
C2542 C2541 1.392 . S
C2542 C2543 1.385 . S
C2542 C2544 1.478 . S
C2543 H2537 0.930 . S
C2543 C2539 1.400 . S
C2543 C2542 1.385 . S
C2544 C2542 1.478 . S
C2544 C2546 1.381 . S
C2544 C2550 1.383 . S
C2545 C2541 1.495 . S
C2545 H2551 0.959 . S
C2545 H2552 0.961 . S
C2545 H2553 0.960 . S
C2546 C2544 1.381 . S
C2546 C2547 1.394 . S
C2546 H2554 0.930 . S
C2547 C2546 1.394 . S
C2547 C2548 1.383 . S
C2547 H2555 0.929 . S
C2548 C2547 1.383 . S
C2548 C2549 1.377 . S
C2549 H2533 0.930 . S
C2549 C2548 1.377 . S
C2549 C2550 1.379 . S
C2550 H2534 0.931 . S
C2550 C2544 1.383 . S
C2550 C2549 1.379 . S
H2551 C2545 0.959 . S
H2552 C2545 0.961 . S
H2553 C2545 0.960 . S
H2554 C2546 0.930 . S
H2555 C2547 0.929 . S
H2556 C2564 0.929 . S
H2557 C2566 0.930 . S
H2558 C2568 0.930 . S
H2559 C2571 0.929 . S
H2560 C2574 0.930 . S
H2561 C2576 0.960 . S
H2562 C2576 0.960 . S
H2563 C2576 0.960 . S
C2564 H2556 0.929 . S
C2564 C2565 1.377 . S
C2564 C2566 1.384 . S
C2565 C2564 1.377 . S
C2565 C2571 1.390 . S
C2566 H2557 0.930 . S
C2566 C2564 1.384 . S
C2566 C2567 1.372 . S
C2567 C2566 1.372 . S
C2567 C2568 1.400 . S
C2567 C2572 1.490 . S
C2568 H2558 0.930 . S
C2568 C2567 1.400 . S
C2568 C2571 1.386 . S
H2569 C2585 0.930 . S
H2570 C2586 0.931 . S
C2571 H2559 0.929 . S
C2571 C2565 1.390 . S
C2571 C2568 1.386 . S
C2572 C2567 1.490 . S
C2572 C2574 1.395 . S
C2572 C2575 1.403 . S
H2573 C2579 0.930 . S
C2574 H2560 0.930 . S
C2574 C2572 1.395 . S
C2574 C2577 1.403 . S
C2575 C2572 1.403 . S
C2575 C2576 1.524 . S
C2575 C2579 1.400 . S
C2576 H2561 0.960 . S
C2576 H2562 0.960 . S
C2576 H2563 0.960 . S
C2576 C2575 1.524 . S
C2577 C2574 1.403 . S
C2577 C2578 1.392 . S
C2577 C2581 1.495 . S
C2578 C2577 1.392 . S
C2578 C2579 1.385 . S
C2578 C2580 1.478 . S
C2579 H2573 0.930 . S
C2579 C2575 1.400 . S
C2579 C2578 1.385 . S
C2580 C2578 1.478 . S
C2580 C2582 1.381 . S
C2580 C2586 1.383 . S
C2581 C2577 1.495 . S
C2581 H2587 0.959 . S
C2581 H2588 0.961 . S
C2581 H2589 0.960 . S
C2582 C2580 1.381 . S
C2582 C2583 1.394 . S
C2582 H2590 0.930 . S
C2583 C2582 1.394 . S
C2583 C2584 1.383 . S
C2583 H2591 0.929 . S
C2584 C2583 1.383 . S
C2584 C2585 1.377 . S
C2585 H2569 0.930 . S
C2585 C2584 1.377 . S
C2585 C2586 1.379 . S
C2586 H2570 0.931 . S
C2586 C2580 1.383 . S
C2586 C2585 1.379 . S
H2587 C2581 0.959 . S
H2588 C2581 0.961 . S
H2589 C2581 0.960 . S
H2590 C2582 0.930 . S
H2591 C2583 0.929 . S
C873 C291 0.794 . S
C892 C3 0.814 . S
C909 C39 0.795 . S
C928 C399 0.794 . S
C945 C75 0.802 . S
C964 C327 0.784 . S
C981 C111 0.802 . S
C1000 C363 0.776 . S
C1017 C147 0.821 . S
C1036 C2 0.860 . S
C1053 C38 0.825 . S
C1072 C183 0.808 . S
C1089 C219 0.830 . S
C1108 C74 0.781 . S
C1125 C110 0.815 . S
C1144 C255 0.837 . S
C1161 C146 0.876 . S
C1180 C290 0.863 . S
C1197 C218 0.886 . S
C1216 C326 0.832 . S
C1233 C362 0.880 . S
C1252 C254 0.839 . S
C1269 C182 0.877 . S
C1288 C398 0.857 . S
C1305 C722 0.819 . S
C1324 C435 0.802 . S
C1341 C471 0.828 . S
C1360 C830 0.850 . S
C1377 C507 0.820 . S
C1396 C758 0.774 . S
C1413 C794 0.822 . S
C1432 C543 0.810 . S
C1449 C579 0.851 . S
C1468 C434 0.850 . S
C1485 C470 0.848 . S
C1504 C615 0.866 . S
C1521 C506 0.835 . S
C1540 C651 0.859 . S
C1557 C687 0.851 . S
C1576 C542 0.850 . S
C1593 C723 0.832 . S
C1612 C578 0.816 . S
C1629 C650 0.820 . S
C1648 C759 0.843 . S
C1665 C686 0.831 . S
C1684 C795 0.856 . S
C1701 C831 0.829 . S
C1720 C614 0.792 . S
C1737 C806 1.300 . S
C1756 C4 1.289 . S
C1773 C770 1.299 . S
C1792 C40 1.292 . S
C1809 C842 1.292 . S
C1828 C76 1.323 . S
C1845 C112 1.310 . S
C1864 C734 1.293 . S
C1881 C148 1.331 . S
C1900 C482 1.336 . S
C1917 C446 1.318 . S
C1936 C184 1.324 . S
C1953 C554 1.314 . S
C1972 C220 1.341 . S
C1989 C518 1.315 . S
C2008 C256 1.339 . S
C2025 C302 1.288 . S
C2044 C662 1.285 . S
C2061 C590 1.288 . S
C2080 C338 1.301 . S
C2097 C626 1.277 . S
C2116 C374 1.277 . S
C2133 C698 1.280 . S
C2152 C410 1.268 . S
C2169 C364 1.385 . S
C2188 C436 1.376 . S
C2205 C328 1.386 . S
C2224 C472 1.362 . S
C2241 C508 1.372 . S
C2260 C400 1.389 . S
C2277 C292 1.386 . S
C2296 C544 1.370 . S
C2313 C580 1.343 . S
C2332 C50 1.315 . S
C2349 C616 1.339 . S
C2368 C14 1.317 . S
C2385 C652 1.343 . S
C2404 C122 1.319 . S
C2421 C688 1.339 . S
C2440 C86 1.319 . S
C2457 C724 1.344 . S
C2476 C230 1.307 . S
C2493 C760 1.348 . S
C2512 C158 1.317 . S
C2529 C194 1.328 . S
C2548 C796 1.332 . S
C2565 C832 1.350 . S
C2584 C266 1.354 . S
