# Generated by pormake.
# Topology umy, (4)-cn, num edge types: 1
# Building blocks:
#     Node 0, Type 0, BuildingBlock: UXUYUI_clean_sbu_0, # of connection points: 4
#     Node 1, Type 0, BuildingBlock: UXUYUI_clean_sbu_0, # of connection points: 4
#     Node 2, Type 0, BuildingBlock: UXUYUI_clean_sbu_0, # of connection points: 4
#     Node 3, Type 0, BuildingBlock: UXUYUI_clean_sbu_0, # of connection points: 4
#     Node 4, Type 0, BuildingBlock: UXUYUI_clean_sbu_0, # of connection points: 4
#     Node 5, Type 0, BuildingBlock: UXUYUI_clean_sbu_0, # of connection points: 4
#     Node 6, Type 0, BuildingBlock: UXUYUI_clean_sbu_0, # of connection points: 4
#     Node 7, Type 0, BuildingBlock: UXUYUI_clean_sbu_0, # of connection points: 4
#     Node 8, Type 0, BuildingBlock: UXUYUI_clean_sbu_0, # of connection points: 4
#     Node 9, Type 0, BuildingBlock: UXUYUI_clean_sbu_0, # of connection points: 4
#     Node 10, Type 0, BuildingBlock: UXUYUI_clean_sbu_0, # of connection points: 4
#     Node 11, Type 0, BuildingBlock: UXUYUI_clean_sbu_0, # of connection points: 4
#     Edge 12, Type (0, 0), BuildingBlock: ZUJKAS_clean_linker_0, # of connection points: 2
#     Edge 13, Type (0, 0), BuildingBlock: ZUJKAS_clean_linker_0, # of connection points: 2
#     Edge 14, Type (0, 0), BuildingBlock: ZUJKAS_clean_linker_0, # of connection points: 2
#     Edge 15, Type (0, 0), BuildingBlock: ZUJKAS_clean_linker_0, # of connection points: 2
#     Edge 16, Type (0, 0), BuildingBlock: ZUJKAS_clean_linker_0, # of connection points: 2
#     Edge 17, Type (0, 0), BuildingBlock: ZUJKAS_clean_linker_0, # of connection points: 2
#     Edge 18, Type (0, 0), BuildingBlock: ZUJKAS_clean_linker_0, # of connection points: 2
#     Edge 19, Type (0, 0), BuildingBlock: ZUJKAS_clean_linker_0, # of connection points: 2
#     Edge 20, Type (0, 0), BuildingBlock: ZUJKAS_clean_linker_0, # of connection points: 2
#     Edge 21, Type (0, 0), BuildingBlock: ZUJKAS_clean_linker_0, # of connection points: 2
#     Edge 22, Type (0, 0), BuildingBlock: ZUJKAS_clean_linker_0, # of connection points: 2
#     Edge 23, Type (0, 0), BuildingBlock: ZUJKAS_clean_linker_0, # of connection points: 2
#     Edge 24, Type (0, 0), BuildingBlock: ZUJKAS_clean_linker_0, # of connection points: 2
#     Edge 25, Type (0, 0), BuildingBlock: ZUJKAS_clean_linker_0, # of connection points: 2
#     Edge 26, Type (0, 0), BuildingBlock: ZUJKAS_clean_linker_0, # of connection points: 2
#     Edge 27, Type (0, 0), BuildingBlock: ZUJKAS_clean_linker_0, # of connection points: 2
#     Edge 28, Type (0, 0), BuildingBlock: ZUJKAS_clean_linker_0, # of connection points: 2
#     Edge 29, Type (0, 0), BuildingBlock: ZUJKAS_clean_linker_0, # of connection points: 2
#     Edge 30, Type (0, 0), BuildingBlock: ZUJKAS_clean_linker_0, # of connection points: 2
#     Edge 31, Type (0, 0), BuildingBlock: ZUJKAS_clean_linker_0, # of connection points: 2
#     Edge 32, Type (0, 0), BuildingBlock: ZUJKAS_clean_linker_0, # of connection points: 2
#     Edge 33, Type (0, 0), BuildingBlock: ZUJKAS_clean_linker_0, # of connection points: 2
#     Edge 34, Type (0, 0), BuildingBlock: ZUJKAS_clean_linker_0, # of connection points: 2
#     Edge 35, Type (0, 0), BuildingBlock: ZUJKAS_clean_linker_0, # of connection points: 2
# Relax obj value: 0.205
# Max RMSD: 0.156
# Mean RMSD: 0.156
data_MOF--net-umy--node1-UXUYUI_clean_sbu_0--edge1-ZUJKAS_clean_linker_0
_symmetry_space_group_name_H-M    P1
_symmetry_Int_Tables_number       1
_symmetry_cell_setting            triclinic
loop_
_symmetry_equiv_pos_as_xyz
'x, y, z'
_cell_length_a     70.332643
_cell_length_b     70.331021
_cell_length_c     79.229353
_cell_angle_alpha  90.004246
_cell_angle_beta   89.998765
_cell_angle_gamma 119.99662
loop_
_atom_site_label
_atom_site_type_symbol
_atom_site_fract_x
_atom_site_fract_y
_atom_site_fract_z
_atom_type_partial_charge
Li0 Li 0.09068 0.34691 0.09146 0.0
Li1 Li 0.09303 0.35745 0.12118 0.0
Li2 Li 0.05637 0.33338 0.10771 0.0
Li3 Li 0.07787 0.37277 0.10161 0.0
C4 C 0.07988 0.30791 0.10894 0.0
N5 N 0.07758 0.26799 0.10354 0.0
C6 C 0.0944 0.30293 0.11722 0.0
C7 C 0.06397 0.29245 0.09813 0.0
C8 C 0.09305 0.28271 0.11426 0.0
C9 C 0.06312 0.27239 0.09551 0.0
C10 C 0.12852 0.39062 0.10781 0.0
C11 C 0.15266 0.4207 0.12589 0.0
N12 N 0.1697 0.41791 0.12118 0.0
C13 C 0.14631 0.3882 0.10301 0.0
C14 C 0.13174 0.40713 0.11921 0.0
C15 C 0.16699 0.4021 0.10996 0.0
C16 C 0.10235 0.34249 0.05771 0.0
N17 N 0.10544 0.34026 0.07438 0.0
C18 C 0.13148 0.32902 0.06782 0.0
C19 C 0.11974 0.33379 0.07957 0.0
C20 C 0.1287 0.33112 0.0505 0.0
C21 C 0.11381 0.33787 0.04547 0.0
H22 H 0.09116 0.34804 0.05394 0.0
H23 H 0.1223 0.33269 0.09289 0.0
C24 C 0.10284 0.3668 0.15587 0.0
N25 N 0.10957 0.36194 0.14124 0.0
C26 C 0.11421 0.36907 0.17087 0.0
C27 C 0.13925 0.36137 0.15544 0.0
C28 C 0.1274 0.35925 0.14075 0.0
C29 C 0.13257 0.36616 0.17081 0.0
H30 H 0.08837 0.36843 0.15598 0.0
H31 H 0.13224 0.35517 0.12896 0.0
C32 C 0.04716 0.33773 0.07364 0.0
N33 N 0.01379 0.31715 0.05025 0.0
C34 C 0.03296 0.34581 0.07038 0.0
C35 C 0.04464 0.31944 0.06475 0.0
C36 C 0.01612 0.33511 0.05858 0.0
C37 C 0.0276 0.30919 0.05305 0.0
C38 C 0.05561 0.36888 0.13067 0.0
C39 C 0.03274 0.35907 0.13068 0.0
C40 C 0.06833 0.38964 0.13792 0.0
C41 C 0.02298 0.37034 0.1377 0.0
C42 C 0.05797 0.40039 0.14479 0.0
N43 N 0.0357 0.39061 0.14453 0.0
C44 C 0.02791 0.29581 0.12516 0.0
C45 C 0.00918 0.30508 0.10484 0.0
C46 C 0.00817 0.27828 0.13086 0.0
N47 N 0.0281 0.30883 0.11243 0.0
C48 C 0.98897 0.28774 0.11023 0.0
C49 C 0.98828 0.27426 0.12359 0.0
H50 H 0.04315 0.29934 0.13115 0.0
H51 H 0.0096 0.31596 0.09508 0.0
C52 C 0.09546 0.417 0.0921 0.0
N53 N 0.07652 0.39859 0.09647 0.0
C54 C 0.09572 0.43677 0.08953 0.0
C55 C 0.05684 0.41814 0.09553 0.0
C56 C 0.05731 0.39871 0.09786 0.0
C57 C 0.07629 0.43761 0.0915 0.0
H58 H 0.11045 0.41642 0.09079 0.0
H59 H 0.0424 0.38383 0.10114 0.0
O60 O 0.08107 0.32771 0.11164 0.0
O61 O 0.10806 0.37692 0.10136 0.0
O62 O 0.06384 0.34813 0.08508 0.0
O63 O 0.06545 0.35813 0.12377 0.0
H64 H 0.10667 0.31461 0.12577 0.0
H65 H 0.05224 0.29576 0.09198 0.0
H66 H 0.10428 0.27871 0.1205 0.0
H67 H 0.0509 0.26029 0.08715 0.0
H68 H 0.15535 0.43345 0.13481 0.0
H69 H 0.1442 0.37568 0.09408 0.0
H70 H 0.11823 0.40941 0.1229 0.0
H71 H 0.18088 0.40032 0.10644 0.0
H72 H 0.14259 0.32365 0.07229 0.0
H73 H 0.11137 0.33998 0.03226 0.0
H74 H 0.10826 0.37241 0.18248 0.0
H75 H 0.15342 0.35919 0.15478 0.0
H76 H 0.03482 0.36009 0.07695 0.0
H77 H 0.05583 0.31333 0.06671 0.0
H78 H 0.00492 0.34109 0.05603 0.0
H79 H 0.02542 0.29498 0.04614 0.0
H80 H 0.02261 0.34299 0.12523 0.0
H81 H 0.08602 0.39741 0.13818 0.0
H82 H 0.00531 0.36298 0.1377 0.0
H83 H 0.06763 0.41652 0.15033 0.0
H84 H 0.00849 0.26815 0.14103 0.0
H85 H 0.97403 0.28545 0.10443 0.0
H86 H 0.11101 0.45123 0.08607 0.0
H87 H 0.04151 0.41798 0.09733 0.0
Li88 Li 0.74339 0.08845 0.257 0.0
Li89 Li 0.73536 0.09159 0.2875 0.0
Li90 Li 0.7213 0.05607 0.27427 0.0
Li91 Li 0.70558 0.07817 0.26768 0.0
C92 C 0.7617 0.06751 0.28324 0.0
N93 N 0.77835 0.04185 0.29512 0.0
C94 C 0.76166 0.06364 0.30054 0.0
C95 C 0.77029 0.05844 0.27198 0.0
C96 C 0.77013 0.05058 0.3063 0.0
C97 C 0.77863 0.0455 0.27824 0.0
C98 C 0.74341 0.12872 0.27302 0.0
C99 C 0.74511 0.15721 0.29101 0.0
N100 N 0.76547 0.17137 0.28491 0.0
C101 C 0.76431 0.14358 0.26687 0.0
C102 C 0.73366 0.13561 0.28511 0.0
C103 C 0.7752 0.16506 0.27306 0.0
C104 C 0.75927 0.10808 0.22501 0.0
N105 N 0.76463 0.1021 0.23978 0.0
C106 C 0.80214 0.11846 0.23139 0.0
C107 C 0.78551 0.10695 0.24313 0.0
C108 C 0.7973 0.12532 0.21612 0.0
C109 C 0.77545 0.11975 0.2129 0.0
H110 H 0.74252 0.1042 0.22282 0.0
H111 H 0.78935 0.10229 0.2551 0.0
C112 C 0.73654 0.10218 0.32211 0.0
N113 N 0.74831 0.10788 0.30754 0.0
C114 C 0.74608 0.11343 0.33706 0.0
C115 C 0.77973 0.13614 0.32175 0.0
C116 C 0.76958 0.12432 0.30713 0.0
C117 C 0.76799 0.13068 0.33703 0.0
H118 H 0.71988 0.08859 0.32221 0.0
H119 H 0.7787 0.12818 0.29544 0.0
C120 C 0.70923 0.04415 0.24198 0.0
N121 N 0.69859 0.00711 0.22309 0.0
C122 C 0.68918 0.02489 0.2445 0.0
C123 C 0.72384 0.04461 0.22979 0.0
C124 C 0.68412 0.00632 0.23485 0.0
C125 C 0.71815 0.02571 0.22038 0.0
C126 C 0.68517 0.05889 0.29527 0.0
C127 C 0.66867 0.03703 0.29312 0.0
C128 C 0.68 0.07389 0.30249 0.0
C129 C 0.64726 0.03056 0.2982 0.0
C130 C 0.65838 0.06678 0.30735 0.0
N131 N 0.64259 0.04545 0.30513 0.0
C132 C 0.70871 0.02038 0.29556 0.0
C133 C 0.72097 0.0148 0.26917 0.0
C134 C 0.70531 0.00026 0.30144 0.0
N135 N 0.71611 0.02716 0.27962 0.0
C136 C 0.71772 0.99443 0.27452 0.0
C137 C 0.70985 0.98698 0.29089 0.0
H138 H 0.70574 0.0308 0.30388 0.0
H139 H 0.72788 0.02089 0.25686 0.0
C140 C 0.67999 0.09827 0.26178 0.0
N141 N 0.67941 0.07868 0.26205 0.0
C142 C 0.66076 0.09907 0.2592 0.0
C143 C 0.64077 0.05953 0.2568 0.0
C144 C 0.66043 0.05954 0.25923 0.0
C145 C 0.6407 0.07948 0.25695 0.0
H146 H 0.69533 0.1133 0.26376 0.0
H147 H 0.66038 0.04419 0.25939 0.0
O148 O 0.75289 0.07969 0.27733 0.0
O149 O 0.7326 0.10752 0.2673 0.0
O150 O 0.7144 0.06261 0.25112 0.0
O151 O 0.7062 0.06564 0.29015 0.0
H152 H 0.75492 0.07043 0.3094 0.0
H153 H 0.77017 0.06105 0.25852 0.0
H154 H 0.77008 0.04733 0.31964 0.0
H155 H 0.78519 0.03824 0.26967 0.0
H156 H 0.73782 0.16271 0.30045 0.0
H157 H 0.77211 0.1386 0.2575 0.0
H158 H 0.71754 0.12434 0.29004 0.0
H159 H 0.79142 0.17671 0.26846 0.0
H160 H 0.81867 0.12211 0.23432 0.0
H161 H 0.77102 0.12492 0.2014 0.0
H162 H 0.73655 0.10829 0.34859 0.0
H163 H 0.79658 0.14939 0.32106 0.0
H164 H 0.67781 0.02415 0.254 0.0
H165 H 0.73942 0.05936 0.22765 0.0
H166 H 0.66873 0.99126 0.23675 0.0
H167 H 0.72931 0.02581 0.21093 0.0
H168 H 0.67223 0.02525 0.28731 0.0
H169 H 0.69249 0.09088 0.30416 0.0
H170 H 0.63432 0.01372 0.29652 0.0
H171 H 0.65413 0.07825 0.31285 0.0
H172 H 0.69912 0.99514 0.31412 0.0
H173 H 0.72186 0.9849 0.26611 0.0
H174 H 0.66164 0.11489 0.25902 0.0
H175 H 0.62574 0.04398 0.25532 0.0
Li176 Li 0.65417 0.74366 0.42223 0.0
Li177 Li 0.64326 0.73707 0.453 0.0
Li178 Li 0.66519 0.72308 0.44039 0.0
Li179 Li 0.6273 0.70621 0.43389 0.0
C180 C 0.69381 0.76422 0.44783 0.0
N181 N 0.73677 0.78245 0.4586 0.0
C182 C 0.69849 0.76487 0.46503 0.0
C183 C 0.71094 0.77294 0.4361 0.0
C184 C 0.72033 0.77411 0.47022 0.0
C185 C 0.73257 0.78209 0.44181 0.0
C186 C 0.61296 0.74321 0.43695 0.0
C187 C 0.58524 0.74513 0.4536 0.0
N188 N 0.59003 0.76419 0.44571 0.0
C189 C 0.61753 0.76277 0.42896 0.0
C190 C 0.5966 0.73425 0.44932 0.0
C191 C 0.60578 0.77314 0.43358 0.0
C192 C 0.65074 0.75668 0.38913 0.0
N193 N 0.6612 0.76369 0.4042 0.0
C194 C 0.68061 0.80074 0.39444 0.0
C195 C 0.67593 0.78519 0.40706 0.0
C196 C 0.6699 0.7941 0.37877 0.0
C197 C 0.65488 0.77171 0.37614 0.0
H198 H 0.63897 0.73946 0.38731 0.0
H199 H 0.68364 0.79032 0.41929 0.0
C200 C 0.63873 0.74003 0.48787 0.0
N201 N 0.63962 0.75001 0.47298 0.0
C202 C 0.63689 0.749 0.50306 0.0
C203 C 0.63683 0.77841 0.48733 0.0
C204 C 0.63913 0.76908 0.47246 0.0
C205 C 0.63577 0.76843 0.50298 0.0
H206 H 0.63989 0.72527 0.48798 0.0
H207 H 0.64057 0.7771 0.46052 0.0
C208 C 0.66525 0.70921 0.40897 0.0
N209 N 0.69233 0.69797 0.39168 0.0
C210 C 0.66501 0.68968 0.41277 0.0
C211 C 0.67921 0.72298 0.39633 0.0
C212 C 0.67886 0.68431 0.40391 0.0
C213 C 0.69278 0.71701 0.38773 0.0
C214 C 0.62631 0.68794 0.46255 0.0
C215 C 0.63071 0.67073 0.4608 0.0
C216 C 0.60693 0.68412 0.47041 0.0
C217 C 0.61551 0.6499 0.46684 0.0
C218 C 0.59212 0.66304 0.47624 0.0
N219 N 0.59667 0.64651 0.47435 0.0
C220 C 0.68846 0.71151 0.46234 0.0
C221 C 0.70692 0.7241 0.4362 0.0
C222 C 0.70557 0.7091 0.46873 0.0
N223 N 0.68928 0.71874 0.44631 0.0
C224 C 0.72441 0.72178 0.44205 0.0
C225 C 0.72389 0.71434 0.45858 0.0
H226 H 0.67468 0.70805 0.47036 0.0
H227 H 0.70776 0.73075 0.42376 0.0
C228 C 0.58149 0.67948 0.42938 0.0
N229 N 0.6008 0.67946 0.42903 0.0
C230 C 0.56163 0.65994 0.42732 0.0
C231 C 0.58189 0.64077 0.424 0.0
C232 C 0.60136 0.66071 0.42607 0.0
C233 C 0.56165 0.64017 0.42483 0.0
H234 H 0.58146 0.69462 0.43144 0.0
H235 H 0.61688 0.66109 0.4258 0.0
O236 O 0.67251 0.75465 0.44249 0.0
O237 O 0.62432 0.73282 0.4326 0.0
O238 O 0.65163 0.71466 0.41734 0.0
O239 O 0.64078 0.70835 0.45641 0.0
H240 H 0.68539 0.75805 0.47425 0.0
H241 H 0.70756 0.77232 0.42273 0.0
H242 H 0.72421 0.77459 0.48348 0.0
H243 H 0.74599 0.78877 0.43287 0.0
H244 H 0.57264 0.73845 0.46321 0.0
H245 H 0.63003 0.76992 0.41932 0.0
H246 H 0.59287 0.71918 0.45568 0.0
H247 H 0.6092 0.78831 0.42753 0.0
H248 H 0.69196 0.81787 0.39713 0.0
H249 H 0.64635 0.7659 0.36423 0.0
H250 H 0.63683 0.741 0.51474 0.0
H251 H 0.63586 0.79326 0.48652 0.0
H252 H 0.65458 0.67899 0.42267 0.0
H253 H 0.67965 0.73817 0.39323 0.0
H254 H 0.67896 0.66933 0.40681 0.0
H255 H 0.7037 0.72753 0.37795 0.0
H256 H 0.64555 0.67334 0.45464 0.0
H257 H 0.60329 0.69725 0.47191 0.0
H258 H 0.61863 0.6364 0.46548 0.0
H259 H 0.57699 0.65983 0.48226 0.0
H260 H 0.70446 0.70321 0.48152 0.0
H261 H 0.73843 0.72633 0.43393 0.0
H262 H 0.54644 0.66032 0.4277 0.0
H263 H 0.58269 0.62591 0.42226 0.0
Li264 Li 0.94386 0.66779 0.60663 0.0
Li265 Li 0.92258 0.62844 0.60075 0.0
Li266 Li 0.91032 0.65457 0.59101 0.0
Li267 Li 0.90727 0.64429 0.62086 0.0
C268 C 0.95651 0.66378 0.57605 0.0
N269 N 0.99695 0.68595 0.56034 0.0
C270 C 0.96909 0.65363 0.57391 0.0
C271 C 0.96436 0.68509 0.57 0.0
C272 C 0.98952 0.66513 0.56598 0.0
C273 C 0.98488 0.69606 0.56216 0.0
C274 C 0.93999 0.63146 0.63391 0.0
C275 C 0.92903 0.60242 0.6544 0.0
N276 N 0.95042 0.60818 0.6566 0.0
C277 C 0.9619 0.6373 0.63661 0.0
C278 C 0.92345 0.61406 0.64307 0.0
C279 C 0.96682 0.62525 0.64803 0.0
C280 C 0.97463 0.7112 0.61558 0.0
N281 N 0.97265 0.69184 0.61048 0.0
C282 C 0.01121 0.70614 0.61398 0.0
C283 C 0.99045 0.68914 0.60935 0.0
C284 C 0.01365 0.72612 0.61984 0.0
C285 C 0.99507 0.72867 0.62022 0.0
H286 H 0.96023 0.71289 0.61653 0.0
H287 H 0.98842 0.67354 0.60539 0.0
C288 C 0.90707 0.58625 0.58681 0.0
N289 N 0.92393 0.60267 0.59554 0.0
C290 C 0.90674 0.56651 0.58385 0.0
C291 C 0.94173 0.58142 0.59805 0.0
C292 C 0.94131 0.6008 0.60082 0.0
C293 C 0.92411 0.56383 0.5897 0.0
H294 H 0.8937 0.58834 0.58238 0.0
H295 H 0.95485 0.61433 0.60723 0.0
C296 C 0.91268 0.6886 0.60781 0.0
N297 N 0.8974 0.71705 0.60054 0.0
C298 C 0.89457 0.6869 0.61646 0.0
C299 C 0.92322 0.70499 0.59564 0.0
C300 C 0.88706 0.70139 0.61257 0.0
C301 C 0.91518 0.71914 0.59208 0.0
C302 C 0.87324 0.60626 0.60509 0.0
C303 C 0.85324 0.60363 0.5994 0.0
C304 C 0.87339 0.58954 0.61452 0.0
C305 C 0.83372 0.58457 0.60361 0.0
C306 C 0.85353 0.57072 0.61845 0.0
N307 N 0.83426 0.56866 0.61299 0.0
C308 C 0.90399 0.66755 0.55817 0.0
C309 C 0.8764 0.66013 0.5785 0.0
C310 C 0.89313 0.67342 0.54628 0.0
N311 N 0.89554 0.66124 0.57396 0.0
C312 C 0.8651 0.66592 0.5671 0.0
C313 C 0.87353 0.67287 0.55079 0.0
H314 H 0.91924 0.66824 0.55489 0.0
H315 H 0.87007 0.65505 0.59113 0.0
C316 C 0.90257 0.64576 0.65594 0.0
N317 N 0.89117 0.63993 0.64119 0.0
C318 C 0.89175 0.64349 0.67121 0.0
C319 C 0.8577 0.6298 0.65581 0.0
C320 C 0.86917 0.63218 0.64084 0.0
C321 C 0.86902 0.63549 0.67126 0.0
H322 H 0.92015 0.65237 0.65581 0.0
H323 H 0.86058 0.62829 0.62894 0.0
O324 O 0.93656 0.65286 0.58395 0.0
O325 O 0.93491 0.64316 0.62276 0.0
O326 O 0.92002 0.67428 0.61123 0.0
O327 O 0.89252 0.6249 0.60112 0.0
H328 H 0.9632 0.6371 0.57838 0.0
H329 H 0.95477 0.69312 0.57142 0.0
H330 H 0.99949 0.65752 0.56431 0.0
H331 H 0.99122 0.71261 0.55753 0.0
H332 H 0.91635 0.5889 0.66153 0.0
H333 H 0.97498 0.65088 0.62987 0.0
H334 H 0.9065 0.60978 0.64171 0.0
H335 H 0.9837 0.62949 0.6501 0.0
H336 H 0.02498 0.7033 0.61367 0.0
H337 H 0.9962 0.74386 0.62439 0.0
H338 H 0.89304 0.5535 0.57706 0.0
H339 H 0.95545 0.58006 0.60277 0.0
H340 H 0.8863 0.67444 0.626 0.0
H341 H 0.93734 0.70666 0.58892 0.0
H342 H 0.87297 0.70016 0.61909 0.0
H343 H 0.92307 0.73178 0.58259 0.0
H344 H 0.85274 0.61614 0.59183 0.0
H345 H 0.88866 0.59086 0.61851 0.0
H346 H 0.81814 0.58242 0.59938 0.0
H347 H 0.85346 0.55769 0.62576 0.0
H348 H 0.90019 0.67875 0.53383 0.0
H349 H 0.84986 0.66488 0.57102 0.0
H350 H 0.90116 0.64845 0.6828 0.0
H351 H 0.84018 0.62357 0.6553 0.0
Li352 Li 0.29348 0.92075 0.76706 0.0
Li353 Li 0.27797 0.94288 0.77412 0.0
Li354 Li 0.26439 0.90753 0.78732 0.0
Li355 Li 0.2555 0.91048 0.75702 0.0
C356 C 0.31507 0.94052 0.79381 0.0
N357 N 0.35841 0.95442 0.80156 0.0
C358 C 0.33126 0.9624 0.7912 0.0
C359 C 0.32096 0.92573 0.80038 0.0
C360 C 0.35307 0.96911 0.79523 0.0
C361 C 0.34295 0.93306 0.80418 0.0
C362 C 0.28953 0.95491 0.74185 0.0
C363 C 0.28072 0.97372 0.72048 0.0
N364 N 0.30024 0.99229 0.72339 0.0
C365 C 0.30953 0.97416 0.74458 0.0
C366 C 0.275 0.95466 0.72968 0.0
C367 C 0.31463 0.99289 0.73514 0.0
C368 C 0.31888 0.90048 0.76135 0.0
N369 N 0.31935 0.92002 0.7608 0.0
C370 C 0.35757 0.9388 0.754 0.0
C371 C 0.33805 0.93892 0.75683 0.0
C372 C 0.35778 0.91896 0.75507 0.0
C373 C 0.33799 0.89956 0.75851 0.0
H374 H 0.30376 0.88564 0.76426 0.0
H375 H 0.33802 0.95423 0.75643 0.0
C376 C 0.29132 0.97913 0.79512 0.0
N377 N 0.28308 0.97177 0.77945 0.0
C378 C 0.295 0.99945 0.80075 0.0
C379 C 0.28094 0.00418 0.77422 0.0
C380 C 0.27744 0.98364 0.76913 0.0
C381 C 0.28998 0.0124 0.79021 0.0
H382 H 0.29473 0.969 0.80342 0.0
H383 H 0.2699 0.97709 0.75706 0.0
C384 C 0.25541 0.87033 0.77305 0.0
N385 N 0.23275 0.82808 0.78571 0.0
C386 C 0.23419 0.8557 0.76734 0.0
C387 C 0.26516 0.86339 0.7851 0.0
C388 C 0.22301 0.83442 0.77391 0.0
C389 C 0.25341 0.84199 0.79139 0.0
C390 C 0.23762 0.93127 0.78365 0.0
C391 C 0.23857 0.93575 0.80091 0.0
C392 C 0.22801 0.93954 0.77262 0.0
C393 C 0.23001 0.94865 0.80684 0.0
C394 C 0.21962 0.95235 0.77905 0.0
N395 N 0.22081 0.95663 0.79588 0.0
C396 C 0.26468 0.89547 0.8214 0.0
C397 C 0.23024 0.87603 0.80762 0.0
C398 C 0.25564 0.88385 0.8363 0.0
N399 N 0.25197 0.89126 0.80744 0.0
C400 C 0.2205 0.864 0.82225 0.0
C401 C 0.23325 0.86789 0.83688 0.0
H402 H 0.28178 0.90801 0.82104 0.0
H403 H 0.22044 0.87334 0.7964 0.0
C404 C 0.24001 0.89234 0.72477 0.0
N405 N 0.23414 0.89687 0.73993 0.0
C406 C 0.22404 0.8806 0.71255 0.0
C407 C 0.19643 0.87867 0.73179 0.0
C408 C 0.21291 0.89048 0.74359 0.0
C409 C 0.20187 0.87334 0.7161 0.0
H410 H 0.25703 0.89745 0.72233 0.0
H411 H 0.20872 0.89406 0.75586 0.0
O412 O 0.29366 0.93352 0.78966 0.0
O413 O 0.28431 0.93631 0.75081 0.0
O414 O 0.26647 0.89138 0.767 0.0
O415 O 0.24648 0.91923 0.77756 0.0
H416 H 0.32715 0.97404 0.78587 0.0
H417 H 0.30876 0.90868 0.80225 0.0
H418 H 0.36576 0.98597 0.7932 0.0
H419 H 0.34774 0.92174 0.80915 0.0
H420 H 0.26962 0.97377 0.71105 0.0
H421 H 0.32083 0.97478 0.75409 0.0
H422 H 0.25944 0.93994 0.72741 0.0
H423 H 0.32998 0.00794 0.73721 0.0
H424 H 0.37245 0.95419 0.75155 0.0
H425 H 0.33727 0.88383 0.75911 0.0
H426 H 0.30131 0.00475 0.81338 0.0
H427 H 0.27668 0.01351 0.76571 0.0
H428 H 0.22637 0.8607 0.758 0.0
H429 H 0.28149 0.87449 0.78976 0.0
H430 H 0.20655 0.82297 0.76965 0.0
H431 H 0.2607 0.83648 0.80082 0.0
H432 H 0.24608 0.92956 0.80959 0.0
H433 H 0.22736 0.93638 0.7592 0.0
H434 H 0.23075 0.95239 0.82016 0.0
H435 H 0.21227 0.959 0.77065 0.0
H436 H 0.26611 0.8873 0.84724 0.0
H437 H 0.2031 0.85215 0.82221 0.0
H438 H 0.22891 0.87663 0.7007 0.0
H439 H 0.17957 0.87358 0.73498 0.0
Li440 Li 0.37014 0.29289 0.93508 0.0
Li441 Li 0.33051 0.27514 0.94037 0.0
Li442 Li 0.35402 0.2619 0.95454 0.0
Li443 Li 0.34431 0.25448 0.92464 0.0
C444 C 0.36547 0.31064 0.96443 0.0
N445 N 0.38694 0.35159 0.97947 0.0
C446 C 0.35709 0.32488 0.96296 0.0
C447 C 0.38457 0.3171 0.97382 0.0
C448 C 0.36823 0.34554 0.97058 0.0
C449 C 0.39525 0.3379 0.98125 0.0
C450 C 0.33533 0.28916 0.90709 0.0
C451 C 0.30414 0.28072 0.88943 0.0
N452 N 0.31365 0.30223 0.88499 0.0
C453 C 0.3449 0.31114 0.9022 0.0
C454 C 0.31489 0.27377 0.90053 0.0
C455 C 0.33364 0.31745 0.89107 0.0
C456 C 0.415 0.31996 0.9271 0.0
N457 N 0.39614 0.32012 0.93047 0.0
C458 C 0.41502 0.3593 0.92883 0.0
C459 C 0.39574 0.33924 0.93106 0.0
C460 C 0.43489 0.35967 0.92589 0.0
C461 C 0.43468 0.33963 0.92483 0.0
H462 H 0.41485 0.30456 0.92626 0.0
H463 H 0.38048 0.33895 0.93343 0.0
C464 C 0.29081 0.26521 0.95529 0.0
N465 N 0.30601 0.27927 0.94412 0.0
C466 C 0.27302 0.2677 0.95985 0.0
C467 C 0.28676 0.29912 0.94132 0.0
C468 C 0.30428 0.29599 0.93708 0.0
C469 C 0.27093 0.28498 0.95298 0.0
H470 H 0.2928 0.25234 0.96098 0.0
H471 H 0.31684 0.30736 0.92861 0.0
C472 C 0.38928 0.26176 0.94105 0.0
N473 N 0.41997 0.25172 0.95341 0.0
C474 C 0.39033 0.24379 0.93464 0.0
C475 C 0.40411 0.27484 0.95353 0.0
C476 C 0.40589 0.23892 0.9411 0.0
C477 C 0.41943 0.26944 0.95968 0.0
C478 C 0.30688 0.2243 0.94131 0.0
C479 C 0.30643 0.20566 0.94795 0.0
C480 C 0.28918 0.22196 0.9317 0.0
C481 C 0.28851 0.18493 0.94447 0.0
C482 C 0.27155 0.20096 0.92852 0.0
N483 N 0.2716 0.18303 0.93489 0.0
C484 C 0.35843 0.25944 0.98973 0.0
C485 C 0.36032 0.23172 0.97409 0.0
C486 C 0.36097 0.25076 0.00485 0.0
N487 N 0.3582 0.24988 0.97477 0.0
C488 C 0.36295 0.22252 0.98888 0.0
C489 C 0.36319 0.23198 0.00456 0.0
H490 H 0.35631 0.27364 0.98994 0.0
H491 H 0.35981 0.22426 0.96204 0.0
C492 C 0.33562 0.23743 0.89098 0.0
N493 N 0.33805 0.23332 0.90738 0.0
C494 C 0.33125 0.22162 0.87858 0.0
C495 C 0.33247 0.19793 0.90014 0.0
C496 C 0.33659 0.21407 0.9121 0.0
C497 C 0.32977 0.20163 0.88312 0.0
H498 H 0.33734 0.25306 0.88748 0.0
H499 H 0.33894 0.21136 0.92517 0.0
O500 O 0.35483 0.29038 0.95694 0.0
O501 O 0.34608 0.28274 0.91806 0.0
O502 O 0.37393 0.26662 0.93505 0.0
O503 O 0.32436 0.24473 0.94453 0.0
H504 H 0.34229 0.32016 0.95585 0.0
H505 H 0.39103 0.30616 0.97547 0.0
H506 H 0.36201 0.35678 0.96941 0.0
H507 H 0.4101 0.34314 0.98847 0.0
H508 H 0.28827 0.26898 0.88431 0.0
H509 H 0.36083 0.32323 0.90695 0.0
H510 H 0.30747 0.25664 0.90385 0.0
H511 H 0.34081 0.33443 0.88725 0.0
H512 H 0.41445 0.37437 0.9298 0.0
H513 H 0.44955 0.33915 0.92224 0.0
H514 H 0.26149 0.25668 0.96915 0.0
H515 H 0.28577 0.31264 0.9357 0.0
H516 H 0.37932 0.23373 0.92475 0.0
H517 H 0.4038 0.289 0.9584 0.0
H518 H 0.4068 0.22499 0.93632 0.0
H519 H 0.4309 0.27936 0.96942 0.0
H520 H 0.31984 0.20715 0.95558 0.0
H521 H 0.28892 0.23619 0.9269 0.0
H522 H 0.28805 0.17036 0.9494 0.0
H523 H 0.25778 0.19892 0.92105 0.0
H524 H 0.36066 0.25837 0.01665 0.0
H525 H 0.36481 0.20816 0.98804 0.0
H526 H 0.32952 0.22517 0.86555 0.0
H527 H 0.3313 0.18267 0.90417 0.0
Li528 Li 0.66602 0.94257 0.72525 0.0
Li529 Li 0.62818 0.92084 0.73193 0.0
Li530 Li 0.65559 0.91063 0.74293 0.0
Li531 Li 0.64434 0.90678 0.71237 0.0
C532 C 0.66587 0.95529 0.75731 0.0
N533 N 0.69225 0.99271 0.77583 0.0
C534 C 0.6654 0.97463 0.75425 0.0
C535 C 0.6797 0.95496 0.76985 0.0
C536 C 0.6789 0.99338 0.76372 0.0
C537 C 0.69292 0.97406 0.77907 0.0
C538 C 0.62683 0.93908 0.70394 0.0
C539 C 0.5921 0.93028 0.69143 0.0
N540 N 0.59707 0.95146 0.69356 0.0
C541 C 0.63162 0.96079 0.70595 0.0
C542 C 0.60695 0.92371 0.69655 0.0
C543 C 0.61636 0.96672 0.70062 0.0
C544 C 0.68892 0.97813 0.70374 0.0
N545 N 0.68967 0.9714 0.71968 0.0
C546 C 0.7238 0.00434 0.72475 0.0
C547 C 0.70689 0.98387 0.73008 0.0
C548 C 0.72314 0.01189 0.70846 0.0
C549 C 0.70546 0.99836 0.69787 0.0
H550 H 0.67559 0.96757 0.69543 0.0
H551 H 0.70776 0.97785 0.74242 0.0
C552 C 0.58239 0.90129 0.73733 0.0
N553 N 0.60164 0.92069 0.73737 0.0
C554 C 0.56254 0.90086 0.73984 0.0
C555 C 0.58271 0.94034 0.74284 0.0
C556 C 0.60217 0.93997 0.74043 0.0
C557 C 0.56254 0.92062 0.74237 0.0
H558 H 0.5824 0.88616 0.73508 0.0
H559 H 0.61764 0.95515 0.74055 0.0
C560 C 0.69465 0.93087 0.71613 0.0
N561 N 0.73643 0.95635 0.7032 0.0
C562 C 0.69781 0.93394 0.69871 0.0
C563 C 0.71272 0.94069 0.72698 0.0
C564 C 0.71907 0.9469 0.69242 0.0
C565 C 0.73372 0.95352 0.72019 0.0
C566 C 0.61487 0.86992 0.72781 0.0
C567 C 0.62043 0.85512 0.73485 0.0
C568 C 0.59814 0.86256 0.71576 0.0
C569 C 0.60925 0.83322 0.7296 0.0
C570 C 0.58739 0.84055 0.71083 0.0
N571 N 0.59312 0.82645 0.71779 0.0
C572 C 0.64996 0.89046 0.77468 0.0
C573 C 0.68037 0.89444 0.75886 0.0
C574 C 0.65427 0.87946 0.78748 0.0
N575 N 0.66291 0.89754 0.76073 0.0
C576 C 0.68544 0.8838 0.77142 0.0
C577 C 0.67219 0.87598 0.78588 0.0
H578 H 0.63606 0.89302 0.77571 0.0
H579 H 0.69005 0.89978 0.74744 0.0
C580 C 0.63721 0.89824 0.67762 0.0
N581 N 0.64051 0.89032 0.6923 0.0
C582 C 0.63518 0.88736 0.66243 0.0
C583 C 0.63991 0.86028 0.67772 0.0
C584 C 0.64222 0.87192 0.69258 0.0
C585 C 0.63644 0.86802 0.6623 0.0
H586 H 0.63664 0.91331 0.67765 0.0
H587 H 0.64549 0.86632 0.70435 0.0
O588 O 0.6526 0.93666 0.74835 0.0
O589 O 0.64135 0.93282 0.7094 0.0
O590 O 0.6739 0.91876 0.72254 0.0
O591 O 0.6257 0.89146 0.73273 0.0
H592 H 0.65508 0.9753 0.74444 0.0
H593 H 0.68026 0.94016 0.77243 0.0
H594 H 0.67882 0.0085 0.76139 0.0
H595 H 0.70372 0.97405 0.78878 0.0
H596 H 0.5766 0.91852 0.6858 0.0
H597 H 0.64679 0.97286 0.71182 0.0
H598 H 0.60296 0.90685 0.69492 0.0
H599 H 0.6198 0.98342 0.7022 0.0
H600 H 0.73717 0.01416 0.73332 0.0
H601 H 0.70458 0.00314 0.68503 0.0
H602 H 0.54732 0.88531 0.73931 0.0
H603 H 0.58343 0.9559 0.74499 0.0
H604 H 0.68399 0.92661 0.69015 0.0
H605 H 0.71052 0.9388 0.74052 0.0
H606 H 0.72176 0.94951 0.67897 0.0
H607 H 0.74784 0.96135 0.72844 0.0
H608 H 0.6333 0.86046 0.74418 0.0
H609 H 0.59367 0.87378 0.71013 0.0
H610 H 0.61344 0.82161 0.7349 0.0
H611 H 0.57451 0.83468 0.70143 0.0
H612 H 0.6437 0.87369 0.79847 0.0
H613 H 0.69916 0.88107 0.76958 0.0
H614 H 0.63318 0.89439 0.65088 0.0
H615 H 0.64084 0.84539 0.67835 0.0
Li616 Li 0.7226 0.66709 0.89233 0.0
Li617 Li 0.70491 0.62754 0.89806 0.0
Li618 Li 0.74284 0.65365 0.90797 0.0
Li619 Li 0.73631 0.64388 0.87813 0.0
C620 C 0.70574 0.66184 0.92379 0.0
N621 N 0.68724 0.68209 0.94192 0.0
C622 C 0.68344 0.65028 0.92792 0.0
C623 C 0.71868 0.68363 0.92903 0.0
C624 C 0.67438 0.66082 0.93706 0.0
C625 C 0.709 0.6936 0.93813 0.0
C626 C 0.69005 0.6331 0.86525 0.0
C627 C 0.67015 0.60802 0.84257 0.0
N628 N 0.65515 0.61483 0.84291 0.0
C629 C 0.67459 0.64006 0.86517 0.0
C630 C 0.68795 0.61713 0.85368 0.0
C631 C 0.657 0.63054 0.85388 0.0
C632 C 0.73375 0.70853 0.8798 0.0
N633 N 0.71777 0.69109 0.88833 0.0
C634 C 0.69519 0.7076 0.88862 0.0
C635 C 0.69875 0.69035 0.89281 0.0
C636 C 0.71123 0.72567 0.8795 0.0
C637 C 0.73083 0.72606 0.87524 0.0
H638 H 0.74857 0.70854 0.87612 0.0
H639 H 0.68608 0.67615 0.8993 0.0
C640 C 0.678 0.58482 0.91131 0.0
N641 N 0.67774 0.60171 0.90317 0.0
C642 C 0.65844 0.56525 0.91431 0.0
C643 C 0.63859 0.58125 0.90135 0.0
C644 C 0.65853 0.60044 0.89853 0.0
C645 C 0.6384 0.56322 0.90913 0.0
H646 H 0.69343 0.58643 0.91532 0.0
H647 H 0.65866 0.61433 0.89267 0.0
C648 C 0.77442 0.688 0.89248 0.0
N649 N 0.81731 0.71612 0.90212 0.0
C650 C 0.79126 0.68464 0.88664 0.0
C651 C 0.77941 0.70581 0.90304 0.0
C652 C 0.81284 0.69901 0.8917 0.0
C653 C 0.80119 0.7198 0.90782 0.0
C654 C 0.72985 0.6047 0.89249 0.0
C655 C 0.74478 0.59854 0.8983 0.0
C656 C 0.71308 0.59085 0.88149 0.0
C657 C 0.74284 0.57878 0.89279 0.0
C658 C 0.71166 0.5712 0.87629 0.0
N659 N 0.72647 0.56563 0.88197 0.0
C660 C 0.76338 0.66966 0.94003 0.0
C661 C 0.77989 0.65506 0.92207 0.0
C662 C 0.77957 0.67479 0.95226 0.0
N663 N 0.76393 0.66007 0.92527 0.0
C664 C 0.79626 0.65973 0.93396 0.0
C665 C 0.79625 0.66975 0.94928 0.0
H666 H 0.75045 0.67336 0.94231 0.0
H667 H 0.78008 0.64774 0.91012 0.0
C668 C 0.74316 0.64596 0.84309 0.0
N669 N 0.74834 0.63985 0.85788 0.0
C670 C 0.75189 0.64371 0.8279 0.0
C671 C 0.77162 0.62946 0.84349 0.0
C672 C 0.76237 0.63184 0.85837 0.0
C673 C 0.76638 0.63541 0.82799 0.0
H674 H 0.73234 0.65274 0.84312 0.0
H675 H 0.76665 0.62761 0.87033 0.0
O676 O 0.71487 0.65177 0.91483 0.0
O677 O 0.70753 0.64246 0.87614 0.0
O678 O 0.75312 0.67379 0.88801 0.0
O679 O 0.7317 0.62415 0.89759 0.0
H680 H 0.67323 0.63336 0.92413 0.0
H681 H 0.73595 0.69282 0.92595 0.0
H682 H 0.65713 0.65209 0.9403 0.0
H683 H 0.7188 0.71049 0.94216 0.0
H684 H 0.66833 0.59561 0.83361 0.0
H685 H 0.67597 0.65248 0.87389 0.0
H686 H 0.70004 0.61196 0.8531 0.0
H687 H 0.64483 0.63566 0.85383 0.0
H688 H 0.67991 0.70665 0.8923 0.0
H689 H 0.74349 0.73938 0.86793 0.0
H690 H 0.65898 0.5519 0.92066 0.0
H691 H 0.62353 0.58041 0.89716 0.0
H692 H 0.78769 0.67095 0.87845 0.0
H693 H 0.7666 0.70876 0.90753 0.0
H694 H 0.82603 0.69651 0.88738 0.0
H695 H 0.80528 0.73357 0.91608 0.0
H696 H 0.75774 0.60891 0.90695 0.0
H697 H 0.70108 0.59505 0.87724 0.0
H698 H 0.75434 0.57387 0.89713 0.0
H699 H 0.69872 0.56034 0.86778 0.0
H700 H 0.77892 0.68239 0.96397 0.0
H701 H 0.80903 0.6559 0.93106 0.0
H702 H 0.74774 0.64886 0.81626 0.0
H703 H 0.7827 0.62297 0.8441 0.0
Li704 Li 0.09277 0.73673 0.04423 0.0
Li705 Li 0.08921 0.74396 0.07338 0.0
Li706 Li 0.0777 0.707 0.06428 0.0
Li707 Li 0.05686 0.72418 0.0564 0.0
C708 C 0.12952 0.74875 0.06469 0.0
N709 N 0.17311 0.78125 0.06649 0.0
C710 C 0.13625 0.76963 0.05817 0.0
C711 C 0.14496 0.74439 0.07211 0.0
C712 C 0.15835 0.78584 0.0592 0.0
C713 C 0.16692 0.76104 0.0729 0.0
C714 C 0.07337 0.76877 0.05762 0.0
C715 C 0.05403 0.77986 0.07675 0.0
N716 N 0.05838 0.797 0.06641 0.0
C717 C 0.07764 0.78647 0.04718 0.0
C718 C 0.06147 0.7654 0.07254 0.0
C719 C 0.06993 0.80057 0.05184 0.0
C720 C 0.10038 0.75672 0.01296 0.0
N721 N 0.10869 0.74779 0.02381 0.0
C722 C 0.13802 0.7554 0.00479 0.0
C723 C 0.12704 0.74681 0.02003 0.0
C724 C 0.12996 0.765 0.99338 0.0
C725 C 0.11079 0.76546 0.99761 0.0
H726 H 0.0856 0.757 0.01626 0.0
H727 H 0.13322 0.73947 0.02887 0.0
C728 C 0.10218 0.75811 0.10714 0.0
N729 N 0.10293 0.76496 0.09098 0.0
C730 C 0.11289 0.77344 0.12001 0.0
C731 C 0.1248 0.80245 0.09933 0.0
C732 C 0.11387 0.78663 0.08692 0.0
C733 C 0.12446 0.79598 0.11615 0.0
H734 H 0.09339 0.74074 0.10999 0.0
H735 H 0.1144 0.79169 0.07398 0.0
C736 C 0.07012 0.69554 0.03014 0.0
N737 N 0.07813 0.67106 0.00693 0.0
C738 C 0.05493 0.68421 0.01736 0.0
C739 C 0.0894 0.69444 0.03113 0.0
C740 C 0.05927 0.67191 0.00574 0.0
C741 C 0.09314 0.68197 0.01927 0.0
C742 C 0.04329 0.69863 0.08566 0.0
C743 C 0.0289 0.68233 0.07453 0.0
C744 C 0.03878 0.69635 0.10295 0.0
C745 C 0.01023 0.66399 0.08091 0.0
C746 C 0.01993 0.67775 0.10884 0.0
N747 N 0.00617 0.66209 0.09779 0.0
C748 C 0.09083 0.68011 0.0812 0.0
C749 C 0.06041 0.66096 0.06287 0.0
C750 C 0.09077 0.66067 0.08499 0.0
N751 N 0.07592 0.67991 0.07019 0.0
C752 C 0.05978 0.6412 0.06626 0.0
C753 C 0.07521 0.64089 0.07735 0.0
H754 H 0.10292 0.69542 0.08688 0.0
H755 H 0.04878 0.66122 0.05411 0.0
C756 C 0.02519 0.71934 0.03372 0.0
N757 N 0.02887 0.72002 0.05058 0.0
C758 C 0.00525 0.7162 0.02765 0.0
C759 C 0.99324 0.7148 0.05645 0.0
C760 C 0.01354 0.71805 0.06199 0.0
C761 C 0.98884 0.71368 0.03905 0.0
H762 H 0.03787 0.72128 0.02498 0.0
H763 H 0.017 0.71887 0.07535 0.0
O764 O 0.10795 0.73257 0.06395 0.0
O765 O 0.08081 0.75484 0.05313 0.0
O766 O 0.06602 0.70766 0.04155 0.0
O767 O 0.06175 0.71677 0.0798 0.0
H768 H 0.12458 0.77334 0.05234 0.0
H769 H 0.14002 0.7283 0.07721 0.0
H770 H 0.16378 0.80208 0.05421 0.0
H771 H 0.17904 0.75789 0.07862 0.0
H772 H 0.0448 0.77745 0.08825 0.0
H773 H 0.08684 0.78929 0.0356 0.0
H774 H 0.05801 0.75182 0.0808 0.0
H775 H 0.07312 0.81435 0.04388 0.0
H776 H 0.15283 0.75485 0.0021 0.0
H777 H 0.10375 0.77231 0.98907 0.0
H778 H 0.11207 0.76773 0.13283 0.0
H779 H 0.13384 0.81957 0.09567 0.0
H780 H 0.03993 0.68489 0.01643 0.0
H781 H 0.10134 0.70305 0.04094 0.0
H782 H 0.04765 0.66304 0.99578 0.0
H783 H 0.10798 0.68097 0.01989 0.0
H784 H 0.03203 0.68382 0.06111 0.0
H785 H 0.04975 0.70883 0.11172 0.0
H786 H 0.99897 0.65126 0.07244 0.0
H787 H 0.01624 0.67577 0.12219 0.0
H788 H 0.10279 0.66115 0.09378 0.0
H789 H 0.0477 0.62646 0.05988 0.0
H790 H 0.0028 0.71594 0.01414 0.0
H791 H 0.98103 0.71284 0.06568 0.0
Li792 Li 0.33022 0.05343 0.2255 0.0
Li793 Li 0.36944 0.07619 0.23175 0.0
Li794 Li 0.3426 0.08812 0.24103 0.0
Li795 Li 0.3536 0.08996 0.2114 0.0
C796 C 0.33438 0.04603 0.26006 0.0
N797 N 0.31382 0.01398 0.28443 0.0
C798 C 0.34282 0.03245 0.26445 0.0
C799 C 0.31573 0.04359 0.26833 0.0
C800 C 0.33213 0.01625 0.27672 0.0
C801 C 0.3055 0.02722 0.28054 0.0
C802 C 0.36719 0.05394 0.20317 0.0
C803 C 0.40003 0.05826 0.18997 0.0
N804 N 0.39137 0.03611 0.19029 0.0
C805 C 0.35853 0.0312 0.20322 0.0
C806 C 0.38802 0.06757 0.19635 0.0
C807 C 0.37104 0.02251 0.19669 0.0
C808 C 0.29149 0.02255 0.20983 0.0
N809 N 0.30644 0.02444 0.22156 0.0
C810 C 0.28836 0.98541 0.22463 0.0
C811 C 0.30517 0.00641 0.22901 0.0
C812 C 0.27274 0.983 0.2125 0.0
C813 C 0.27433 0.00194 0.2052 0.0
H814 H 0.29321 0.03708 0.20374 0.0
H815 H 0.31759 0.00822 0.23788 0.0
C816 C 0.41366 0.09514 0.2417 0.0
N817 N 0.39555 0.07581 0.23756 0.0
C818 C 0.43361 0.096 0.24477 0.0
C819 C 0.4158 0.05693 0.23971 0.0
C820 C 0.39615 0.0568 0.23691 0.0
C821 C 0.43499 0.07678 0.24351 0.0
H822 H 0.41267 0.10996 0.24244 0.0
H823 H 0.38147 0.04158 0.23383 0.0
C824 C 0.30373 0.0762 0.22265 0.0
N825 N 0.26359 0.07393 0.22646 0.0
C826 C 0.29892 0.09023 0.21344 0.0
C827 C 0.28799 0.06079 0.23358 0.0
C828 C 0.27857 0.0889 0.21561 0.0
C829 C 0.26782 0.05995 0.23539 0.0
C830 C 0.38574 0.12661 0.22493 0.0
C831 C 0.38216 0.14374 0.22957 0.0
C832 C 0.40287 0.13074 0.21388 0.0
C833 C 0.39554 0.16465 0.22281 0.0
C834 C 0.41587 0.15187 0.20737 0.0
N835 N 0.41195 0.16824 0.21192 0.0
C836 C 0.33897 0.10095 0.27441 0.0
C837 C 0.32736 0.11585 0.25257 0.0
C838 C 0.33442 0.11253 0.28658 0.0
N839 N 0.33534 0.10279 0.25779 0.0
C840 C 0.32254 0.12764 0.26426 0.0
C841 C 0.32623 0.12624 0.28153 0.0
H842 H 0.34572 0.09075 0.27819 0.0
H843 H 0.32521 0.11754 0.23927 0.0
C844 C 0.36294 0.09856 0.17662 0.0
N845 N 0.35808 0.10584 0.19096 0.0
C846 C 0.36559 0.10956 0.16137 0.0
C847 C 0.35826 0.13541 0.17596 0.0
C848 C 0.35566 0.12384 0.19091 0.0
C849 C 0.36314 0.1282 0.1609 0.0
H850 H 0.36447 0.08403 0.17695 0.0
H851 H 0.3514 0.12904 0.20245 0.0
O852 O 0.34475 0.06205 0.24814 0.0
O853 O 0.35524 0.06275 0.20965 0.0
O854 O 0.32362 0.07735 0.2207 0.0
O855 O 0.3726 0.10594 0.23123 0.0
H856 H 0.35739 0.03427 0.25836 0.0
H857 H 0.30934 0.05437 0.26551 0.0
H858 H 0.33839 0.00551 0.28013 0.0
H859 H 0.29102 0.02512 0.28699 0.0
H860 H 0.41624 0.06864 0.18476 0.0
H861 H 0.34239 0.02038 0.2083 0.0
H862 H 0.39488 0.08516 0.19603 0.0
H863 H 0.36458 0.00496 0.19674 0.0
H864 H 0.28775 0.9712 0.2305 0.0
H865 H 0.26294 0.00081 0.19553 0.0
H866 H 0.44781 0.11159 0.24805 0.0
H867 H 0.41603 0.04172 0.23844 0.0
H868 H 0.3108 0.1021 0.20477 0.0
H869 H 0.29117 0.0494 0.24042 0.0
H870 H 0.2747 0.09976 0.20865 0.0
H871 H 0.25551 0.04811 0.24384 0.0
H872 H 0.36915 0.14093 0.23824 0.0
H873 H 0.40606 0.11777 0.21033 0.0
H874 H 0.39286 0.17803 0.22621 0.0
H875 H 0.42909 0.15525 0.19872 0.0
H876 H 0.3378 0.1112 0.29973 0.0
H877 H 0.31606 0.13782 0.25978 0.0
H878 H 0.36949 0.10353 0.15007 0.0
H879 H 0.35588 0.14948 0.17612 0.0
Li880 Li 0.29348 0.37054 0.39891 0.0
Li881 Li 0.27591 0.33257 0.3919 0.0
Li882 Li 0.26276 0.35366 0.37853 0.0
Li883 Li 0.25488 0.34282 0.40933 0.0
C884 C 0.30524 0.37468 0.36567 0.0
N885 N 0.33071 0.40939 0.34434 0.0
C886 C 0.32206 0.37475 0.3562 0.0
C887 C 0.3015 0.39235 0.36432 0.0
C888 C 0.33473 0.39242 0.34549 0.0
C889 C 0.31449 0.4097 0.35346 0.0
C890 C 0.29229 0.33449 0.42268 0.0
C891 C 0.28968 0.30774 0.44295 0.0
N892 N 0.30979 0.31145 0.43805 0.0
C893 C 0.31301 0.33821 0.41794 0.0
C894 C 0.28055 0.31927 0.43535 0.0
C895 C 0.32154 0.32631 0.42582 0.0
C896 C 0.31939 0.41243 0.41383 0.0
N897 N 0.3199 0.39643 0.40457 0.0
C898 C 0.35882 0.41811 0.40157 0.0
C899 C 0.33908 0.39875 0.39867 0.0
C900 C 0.3588 0.43522 0.41071 0.0
C901 C 0.33876 0.43212 0.41702 0.0
H902 H 0.3039 0.40997 0.41858 0.0
H903 H 0.33901 0.38567 0.39144 0.0
C904 C 0.29297 0.31103 0.37306 0.0
N905 N 0.28162 0.30902 0.38745 0.0
C906 C 0.29711 0.29443 0.36812 0.0
C907 C 0.27762 0.27371 0.39282 0.0
C908 C 0.27397 0.29083 0.39736 0.0
C909 C 0.28932 0.27541 0.378 0.0
H910 H 0.29837 0.32532 0.36518 0.0
H911 H 0.26463 0.28937 0.40859 0.0
C912 C 0.25656 0.38523 0.39867 0.0
N913 N 0.237 0.41093 0.39939 0.0
C914 C 0.23423 0.37585 0.40245 0.0
C915 C 0.26897 0.40776 0.3954 0.0
C916 C 0.22464 0.38909 0.40271 0.0
C917 C 0.25877 0.42045 0.39577 0.0
C918 C 0.23575 0.30324 0.38359 0.0
C919 C 0.23776 0.2987 0.36672 0.0
C920 C 0.22508 0.28597 0.39507 0.0
C921 C 0.22923 0.27691 0.36164 0.0
C922 C 0.21671 0.26439 0.38947 0.0
N923 N 0.21897 0.26035 0.37302 0.0
C924 C 0.25839 0.35433 0.34323 0.0
C925 C 0.23443 0.3628 0.35821 0.0
C926 C 0.25002 0.35651 0.32784 0.0
N927 N 0.25069 0.35768 0.35802 0.0
C928 C 0.22557 0.36515 0.3431 0.0
C929 C 0.23334 0.36196 0.32764 0.0
H930 H 0.27096 0.34976 0.34335 0.0
H931 H 0.22801 0.36468 0.37003 0.0
C932 C 0.24186 0.34722 0.44204 0.0
N933 N 0.23469 0.33614 0.42723 0.0
C934 C 0.22697 0.34372 0.45499 0.0
C935 C 0.19774 0.31719 0.43725 0.0
C936 C 0.21316 0.32126 0.42465 0.0
C937 C 0.20454 0.32865 0.45261 0.0
H938 H 0.2591 0.35906 0.44366 0.0
H939 H 0.20787 0.31307 0.41259 0.0
O940 O 0.29301 0.35763 0.37649 0.0
O941 O 0.2836 0.34587 0.41508 0.0
O942 O 0.26636 0.37259 0.39872 0.0
O943 O 0.2444 0.3245 0.38887 0.0
H944 H 0.32548 0.36141 0.35721 0.0
H945 H 0.28859 0.3926 0.37145 0.0
H946 H 0.34781 0.39268 0.33812 0.0
H947 H 0.31167 0.42342 0.35228 0.0
H948 H 0.28075 0.29581 0.45271 0.0
H949 H 0.32227 0.34996 0.40815 0.0
H950 H 0.26451 0.31629 0.43917 0.0
H951 H 0.33748 0.32888 0.42219 0.0
H952 H 0.37383 0.41987 0.39634 0.0
H953 H 0.33806 0.44476 0.42434 0.0
H954 H 0.30577 0.29621 0.35639 0.0
H955 H 0.27132 0.2593 0.40078 0.0
H956 H 0.22429 0.35846 0.40482 0.0
H957 H 0.28631 0.41544 0.39262 0.0
H958 H 0.20735 0.38198 0.40551 0.0
H959 H 0.26817 0.43788 0.39322 0.0
H960 H 0.24608 0.31187 0.35771 0.0
H961 H 0.22363 0.28919 0.40822 0.0
H962 H 0.23081 0.27316 0.34865 0.0
H963 H 0.20856 0.25087 0.39823 0.0
H964 H 0.25659 0.354 0.31623 0.0
H965 H 0.2124 0.3689 0.34356 0.0
H966 H 0.23291 0.3528 0.46668 0.0
H967 H 0.18057 0.30575 0.43475 0.0
Li968 Li 0.94525 0.27726 0.55894 0.0
Li969 Li 0.92215 0.29357 0.56455 0.0
Li970 Li 0.91048 0.25507 0.57415 0.0
Li971 Li 0.9087 0.26352 0.5444 0.0
C972 C 0.95267 0.289 0.59297 0.0
N973 N 0.98575 0.30022 0.61638 0.0
C974 C 0.96466 0.31054 0.59896 0.0
C975 C 0.95729 0.27311 0.59908 0.0
C976 C 0.98138 0.31591 0.61075 0.0
C977 C 0.97413 0.27912 0.61086 0.0
C978 C 0.94519 0.31328 0.53612 0.0
C979 C 0.94223 0.34125 0.52067 0.0
N980 N 0.96406 0.35525 0.523 0.0
C981 C 0.96764 0.32787 0.53819 0.0
C982 C 0.93241 0.31993 0.52713 0.0
C983 C 0.97686 0.34905 0.53151 0.0
C984 C 0.97627 0.27023 0.54294 0.0
N985 N 0.97429 0.28256 0.55527 0.0
C986 C 0.0132 0.30248 0.55926 0.0
C987 C 0.99221 0.29846 0.56345 0.0
C988 C 0.01577 0.29014 0.54644 0.0
C989 C 0.9969 0.27369 0.53834 0.0
H990 H 0.96179 0.258 0.5364 0.0
H991 H 0.99036 0.3085 0.57286 0.0
C992 C 0.90306 0.31957 0.57229 0.0
N993 N 0.92248 0.3202 0.56978 0.0
C994 C 0.90256 0.33894 0.5749 0.0
C995 C 0.94215 0.35923 0.57298 0.0
C996 C 0.94187 0.33945 0.57039 0.0
C997 C 0.92228 0.35915 0.57505 0.0
H998 H 0.8879 0.30405 0.57214 0.0
H999 H 0.95712 0.33951 0.56863 0.0
C1000 C 0.92011 0.22668 0.55651 0.0
N1001 N 0.91689 0.18621 0.56113 0.0
C1002 C 0.90268 0.20785 0.54937 0.0
C1003 C 0.93615 0.22497 0.5657 0.0
C1004 C 0.90125 0.18753 0.55194 0.0
C1005 C 0.93418 0.20436 0.56797 0.0
C1006 C 0.87215 0.26083 0.55759 0.0
C1007 C 0.85361 0.24196 0.56354 0.0
C1008 C 0.86976 0.27365 0.54522 0.0
C1009 C 0.83303 0.236 0.55676 0.0
C1010 C 0.84892 0.26714 0.53875 0.0
N1011 N 0.83113 0.24858 0.54458 0.0
C1012 C 0.90107 0.23748 0.60757 0.0
C1013 C 0.87908 0.21342 0.58579 0.0
C1014 C 0.88964 0.2213 0.61973 0.0
N1015 N 0.89571 0.23321 0.59097 0.0
C1016 C 0.8671 0.19688 0.59749 0.0
C1017 C 0.87231 0.20075 0.61471 0.0
H1018 H 0.91396 0.25353 0.61143 0.0
H1019 H 0.87481 0.21062 0.57257 0.0
C1020 C 0.90308 0.26255 0.50916 0.0
N1021 N 0.89338 0.25198 0.52375 0.0
C1022 C 0.89271 0.25429 0.49369 0.0
C1023 C 0.86248 0.22448 0.50854 0.0
C1024 C 0.87352 0.23322 0.52372 0.0
C1025 C 0.87215 0.23498 0.49326 0.0
H1026 H 0.91901 0.27727 0.50953 0.0
H1027 H 0.86635 0.22491 0.53546 0.0
O1028 O 0.93634 0.28351 0.58135 0.0
O1029 O 0.93584 0.29253 0.5427 0.0
O1030 O 0.92175 0.24673 0.55412 0.0
O1031 O 0.8925 0.26678 0.56392 0.0
H1032 H 0.96115 0.323 0.59455 0.0
H1033 H 0.94784 0.25627 0.59492 0.0
H1034 H 0.99087 0.33254 0.61542 0.0
H1035 H 0.97791 0.26698 0.61565 0.0
H1036 H 0.9325 0.34664 0.51378 0.0
H1037 H 0.97782 0.32302 0.54502 0.0
H1038 H 0.91513 0.30876 0.5251 0.0
H1039 H 0.99418 0.36056 0.53314 0.0
H1040 H 0.02727 0.31529 0.56586 0.0
H1041 H 0.99809 0.26408 0.52814 0.0
H1042 H 0.8869 0.33809 0.57679 0.0
H1043 H 0.95773 0.37444 0.57292 0.0
H1044 H 0.89027 0.20889 0.54203 0.0
H1045 H 0.95012 0.23941 0.57087 0.0
H1046 H 0.88773 0.17281 0.54661 0.0
H1047 H 0.94644 0.20281 0.57511 0.0
H1048 H 0.85503 0.23204 0.57331 0.0
H1049 H 0.88386 0.28844 0.54066 0.0
H1050 H 0.81856 0.22138 0.56119 0.0
H1051 H 0.84688 0.27685 0.52909 0.0
H1052 H 0.89394 0.22499 0.63292 0.0
H1053 H 0.8539 0.18122 0.59311 0.0
H1054 H 0.90066 0.26295 0.48219 0.0
H1055 H 0.84681 0.20937 0.50875 0.0
H1056 H 0.04002 0.59939 0.08131 0.0
H1057 H 0.04057 0.565 0.08424 0.0
H1058 H 0.11129 0.60091 0.0834 0.0
H1059 H 0.111 0.63538 0.08002 0.0
H1060 H 0.07304 0.55516 0.05815 0.0
H1061 H 0.08093 0.55398 0.12812 0.0
H1062 H 0.0659 0.5657 0.11836 0.0
H1063 H 0.0952 0.57955 0.11667 0.0
C1064 C 0.0557 0.60001 0.08169 0.0
C1065 C 0.07547 0.62016 0.08037 0.0
C1066 C 0.05596 0.58037 0.08345 0.0
C1067 C 0.07596 0.58056 0.08404 0.0
C1068 C 0.09572 0.60057 0.08305 0.0
H1069 H 0.10796 0.4784 0.10209 0.0
H1070 H 0.10809 0.51305 0.09946 0.0
C1071 C 0.0955 0.62022 0.08124 0.0
C1072 C 0.07618 0.55974 0.08505 0.0
H1073 H 0.07968 0.52464 0.11286 0.0
C1074 C 0.07446 0.5484 0.07008 0.0
C1075 C 0.07822 0.55125 0.10063 0.0
C1076 C 0.08016 0.56312 0.11695 0.0
C1077 C 0.07485 0.52864 0.07027 0.0
C1078 C 0.0765 0.51985 0.08592 0.0
C1079 C 0.07834 0.53136 0.10089 0.0
C1080 C 0.0765 0.49881 0.08705 0.0
C1081 C 0.07399 0.51766 0.05369 0.0
C1082 C 0.05864 0.47926 0.08102 0.0
C1083 C 0.05865 0.45945 0.08227 0.0
C1084 C 0.07643 0.45875 0.08977 0.0
C1085 C 0.0942 0.47837 0.09594 0.0
C1086 C 0.09422 0.49818 0.0946 0.0
H1087 H 0.07904 0.52939 0.04298 0.0
H1088 H 0.08476 0.51031 0.05393 0.0
H1089 H 0.0569 0.50436 0.05132 0.0
H1090 H 0.04459 0.47929 0.07546 0.0
H1091 H 0.04477 0.44471 0.07727 0.0
H1092 H 0.60508 0.05314 0.23705 0.0
H1093 H 0.57029 0.05281 0.23521 0.0
H1094 H 0.59432 0.10671 0.27042 0.0
H1095 H 0.62865 0.10628 0.27317 0.0
H1096 H 0.55346 0.07583 0.27808 0.0
H1097 H 0.55788 0.09486 0.20986 0.0
H1098 H 0.55976 0.07079 0.21401 0.0
H1099 H 0.581 0.09712 0.22143 0.0
C1100 C 0.60295 0.06483 0.24452 0.0
C1101 C 0.61978 0.07981 0.25521 0.0
C1102 C 0.58313 0.06482 0.24326 0.0
C1103 C 0.57985 0.08003 0.25242 0.0
C1104 C 0.59656 0.09495 0.26312 0.0
H1105 H 0.47563 0.10901 0.23312 0.0
H1106 H 0.51068 0.11016 0.23634 0.0
C1107 C 0.61629 0.09483 0.26453 0.0
C1108 C 0.5588 0.08002 0.25124 0.0
H1109 H 0.52362 0.0835 0.22341 0.0
C1110 C 0.54698 0.07762 0.26614 0.0
C1111 C 0.55051 0.08266 0.23568 0.0
C1112 C 0.56305 0.08673 0.21936 0.0
C1113 C 0.52698 0.07753 0.26589 0.0
C1114 C 0.51827 0.07927 0.25025 0.0
C1115 C 0.53021 0.08193 0.23537 0.0
C1116 C 0.49697 0.07876 0.24899 0.0
C1117 C 0.51568 0.07605 0.28243 0.0
C1118 C 0.47757 0.06069 0.255 0.0
C1119 C 0.45751 0.06016 0.25348 0.0
C1120 C 0.45639 0.07756 0.24566 0.0
C1121 C 0.47588 0.09553 0.23952 0.0
C1122 C 0.49594 0.09613 0.2412 0.0
H1123 H 0.52737 0.0814 0.29319 0.0
H1124 H 0.50771 0.08627 0.28224 0.0
H1125 H 0.50284 0.05874 0.28471 0.0
H1126 H 0.47788 0.04687 0.26072 0.0
H1127 H 0.4429 0.04614 0.25847 0.0
H1128 H 0.52405 0.62666 0.44314 0.0
H1129 H 0.48959 0.59181 0.44098 0.0
H1130 H 0.51743 0.57066 0.4018 0.0
H1131 H 0.55175 0.60582 0.40344 0.0
H1132 H 0.47545 0.56274 0.39432 0.0
H1133 H 0.4786 0.53236 0.45833 0.0
H1134 H 0.48108 0.55904 0.45814 0.0
H1135 H 0.50212 0.55522 0.44858 0.0
C1136 C 0.5228 0.61469 0.43394 0.0
C1137 C 0.54067 0.61902 0.42347 0.0
C1138 C 0.50318 0.59468 0.43288 0.0
C1139 C 0.50111 0.57854 0.42144 0.0
C1140 C 0.51878 0.58286 0.41082 0.0
H1141 H 0.39941 0.44147 0.41867 0.0
H1142 H 0.4339 0.47635 0.42109 0.0
C1143 C 0.53842 0.60289 0.41185 0.0
C1144 C 0.48035 0.55729 0.4203 0.0
H1145 H 0.44529 0.51189 0.44307 0.0
C1146 C 0.46886 0.55158 0.40495 0.0
C1147 C 0.47197 0.54268 0.43415 0.0
C1148 C 0.48415 0.54748 0.45069 0.0
C1149 C 0.449 0.53175 0.40314 0.0
C1150 C 0.44028 0.51747 0.41715 0.0
C1151 C 0.45193 0.52301 0.43242 0.0
C1152 C 0.41926 0.49648 0.41608 0.0
C1153 C 0.4377 0.5261 0.38619 0.0
C1154 C 0.39958 0.49631 0.41278 0.0
C1155 C 0.37988 0.47642 0.41131 0.0
C1156 C 0.37951 0.45635 0.41318 0.0
C1157 C 0.3992 0.45663 0.4169 0.0
C1158 C 0.41889 0.47653 0.41839 0.0
H1159 H 0.44904 0.53601 0.37587 0.0
H1160 H 0.4309 0.50842 0.38325 0.0
H1161 H 0.4239 0.52948 0.38645 0.0
H1162 H 0.39949 0.51157 0.41123 0.0
H1163 H 0.36503 0.47677 0.40831 0.0
H1164 H 0.95787 0.5573 0.58026 0.0
H1165 H 0.95721 0.52228 0.57763 0.0
H1166 H 0.88871 0.48755 0.59135 0.0
H1167 H 0.88931 0.5225 0.59433 0.0
H1168 H 0.91565 0.4744 0.60926 0.0
H1169 H 0.92692 0.47583 0.53975 0.0
H1170 H 0.94658 0.50017 0.55073 0.0
H1171 H 0.91822 0.49297 0.55029 0.0
C1172 C 0.94268 0.5422 0.58274 0.0
C1173 C 0.92362 0.54264 0.58745 0.0
C1174 C 0.94229 0.52223 0.5811 0.0
C1175 C 0.92286 0.50237 0.58412 0.0
C1176 C 0.90383 0.50273 0.58886 0.0
H1177 H 0.89423 0.37049 0.56029 0.0
H1178 H 0.89405 0.40502 0.56315 0.0
C1179 C 0.90417 0.52268 0.59044 0.0
C1180 C 0.92249 0.48122 0.58278 0.0
H1181 H 0.92851 0.4476 0.55491 0.0
C1182 C 0.91842 0.46848 0.59739 0.0
C1183 C 0.9259 0.47353 0.56723 0.0
C1184 C 0.92947 0.4862 0.55105 0.0
C1185 C 0.91797 0.44832 0.59691 0.0
C1186 C 0.92191 0.44087 0.58143 0.0
C1187 C 0.92567 0.45347 0.56677 0.0
C1188 C 0.92186 0.41987 0.58011 0.0
C1189 C 0.91296 0.43498 0.61289 0.0
C1190 C 0.93764 0.41687 0.58864 0.0
C1191 C 0.93773 0.39711 0.5871 0.0
C1192 C 0.92205 0.38004 0.57697 0.0
C1193 C 0.90631 0.38317 0.56841 0.0
C1194 C 0.90627 0.40294 0.56992 0.0
H1195 H 0.90535 0.44042 0.62264 0.0
H1196 H 0.90176 0.41727 0.61029 0.0
H1197 H 0.92845 0.43691 0.61814 0.0
H1198 H 0.95001 0.42988 0.59637 0.0
H1199 H 0.94998 0.39515 0.59393 0.0
H1200 H 0.55113 0.94828 0.72712 0.0
H1201 H 0.5163 0.94808 0.72949 0.0
H1202 H 0.49172 0.8928 0.76337 0.0
H1203 H 0.5266 0.89303 0.76123 0.0
H1204 H 0.47257 0.91034 0.72188 0.0
H1205 H 0.48188 0.9401 0.78809 0.0
H1206 H 0.50497 0.94424 0.77537 0.0
H1207 H 0.48698 0.9178 0.78441 0.0
C1208 C 0.5384 0.93625 0.73524 0.0
C1209 C 0.5416 0.92073 0.74406 0.0
C1210 C 0.51851 0.93608 0.73649 0.0
C1211 C 0.5016 0.92056 0.74672 0.0
C1212 C 0.50471 0.90505 0.75556 0.0
H1213 H 0.37155 0.89497 0.77321 0.0
H1214 H 0.40602 0.89475 0.77036 0.0
C1215 C 0.52455 0.90511 0.75423 0.0
C1216 C 0.48048 0.92026 0.74781 0.0
H1217 H 0.44779 0.92887 0.77484 0.0
C1218 C 0.46712 0.91445 0.73342 0.0
C1219 C 0.47351 0.92555 0.76292 0.0
C1220 C 0.4876 0.93244 0.77859 0.0
C1221 C 0.44668 0.91342 0.73381 0.0
C1222 C 0.43973 0.91886 0.7489 0.0
C1223 C 0.45316 0.92471 0.76329 0.0
C1224 C 0.41856 0.91855 0.7501 0.0
C1225 C 0.4325 0.90598 0.71819 0.0
C1226 C 0.41422 0.93208 0.73969 0.0
C1227 C 0.39439 0.93203 0.74112 0.0
C1228 C 0.37861 0.9186 0.75313 0.0
C1229 C 0.38312 0.90518 0.76361 0.0
C1230 C 0.4029 0.90518 0.76211 0.0
H1231 H 0.43729 0.89668 0.70951 0.0
H1232 H 0.4149 0.89547 0.72151 0.0
H1233 H 0.43444 0.92058 0.7113 0.0
H1234 H 0.42627 0.94287 0.73057 0.0
H1235 H 0.3914 0.94246 0.73279 0.0
H1236 H 0.47481 0.37081 0.93956 0.0
H1237 H 0.50921 0.40571 0.93689 0.0
H1238 H 0.47662 0.43133 0.90608 0.0
H1239 H 0.44219 0.39628 0.90838 0.0
H1240 H 0.51772 0.43867 0.89315 0.0
H1241 H 0.52329 0.46408 0.96021 0.0
H1242 H 0.51926 0.43701 0.95704 0.0
H1243 H 0.49814 0.44286 0.95088 0.0
C1244 C 0.47499 0.38381 0.93211 0.0
C1245 C 0.45578 0.38081 0.92419 0.0
C1246 C 0.49459 0.4038 0.93075 0.0
C1247 C 0.49533 0.42114 0.92149 0.0
C1248 C 0.47629 0.41815 0.91339 0.0
H1249 H 0.59895 0.55767 0.91986 0.0
H1250 H 0.56408 0.52316 0.92261 0.0
C1251 C 0.45664 0.39819 0.91479 0.0
C1252 C 0.51609 0.44229 0.92 0.0
H1253 H 0.55438 0.48568 0.94296 0.0
C1254 C 0.52573 0.449 0.90401 0.0
C1255 C 0.52632 0.45578 0.9342 0.0
C1256 C 0.51618 0.44973 0.95155 0.0
C1257 C 0.5456 0.46873 0.90187 0.0
C1258 C 0.55615 0.48191 0.91614 0.0
C1259 C 0.54631 0.4754 0.93209 0.0
C1260 C 0.57733 0.50266 0.91473 0.0
C1261 C 0.55505 0.47546 0.88436 0.0
C1262 C 0.59632 0.50245 0.90965 0.0
C1263 C 0.61622 0.5221 0.90804 0.0
C1264 C 0.61746 0.54231 0.91151 0.0
C1265 C 0.59844 0.54239 0.91688 0.0
C1266 C 0.57857 0.52272 0.91854 0.0
H1267 H 0.54261 0.46625 0.87445 0.0
H1268 H 0.56167 0.49331 0.88236 0.0
H1269 H 0.56875 0.47206 0.88279 0.0
H1270 H 0.59573 0.48708 0.90687 0.0
H1271 H 0.63054 0.52151 0.90375 0.0
H1272 H 0.11464 0.30961 0.02016 0.0
H1273 H 0.13557 0.30036 0.0003 0.0
H1274 H 0.19239 0.33268 0.03256 0.0
H1275 H 0.17186 0.34234 0.05224 0.0
H1276 H 0.1781 0.32929 0.98347 0.0
H1277 H 0.17967 0.26807 0.02683 0.0
H1278 H 0.16043 0.27783 0.02917 0.0
H1279 H 0.18831 0.29442 0.03622 0.0
C1280 C 0.13167 0.31499 0.02291 0.0
C1281 C 0.1415 0.32648 0.03789 0.0
C1282 C 0.14355 0.30962 0.01159 0.0
C1283 C 0.16537 0.31555 0.01514 0.0
C1284 C 0.17542 0.32762 0.02978 0.0
H1285 H 0.274 0.32433 0.96063 0.0
H1286 H 0.24592 0.33055 0.97327 0.0
C1287 C 0.16363 0.33303 0.04104 0.0
C1288 C 0.17769 0.30884 0.00384 0.0
H1289 H 0.20385 0.27906 0.00327 0.0
C1290 C 0.18355 0.31813 0.98767 0.0
C1291 C 0.18447 0.29402 0.00931 0.0
C1292 C 0.17776 0.28282 0.02627 0.0
C1293 C 0.19691 0.31369 0.97709 0.0
C1294 C 0.20468 0.29981 0.98295 0.0
C1295 C 0.19799 0.2898 0.99883 0.0
C1296 C 0.2207 0.29627 0.97331 0.0
C1297 C 0.20267 0.32399 0.95978 0.0
C1298 C 0.21587 0.27492 0.96915 0.0
C1299 C 0.23192 0.2713 0.96194 0.0
C1300 C 0.25316 0.28897 0.95886 0.0
C1301 C 0.25772 0.3104 0.96257 0.0
C1302 C 0.24166 0.314 0.96978 0.0
H1303 H 0.19047 0.32851 0.95532 0.0
H1304 H 0.21893 0.33921 0.96032 0.0
H1305 H 0.20362 0.31273 0.95044 0.0
H1306 H 0.19981 0.261 0.97184 0.0
H1307 H 0.22782 0.25462 0.95905 0.0
H1308 H 0.83864 0.15858 0.22339 0.0
H1309 H 0.86839 0.18043 0.20375 0.0
H1310 H 0.82634 0.14543 0.16178 0.0
H1311 H 0.7964 0.12301 0.18144 0.0
H1312 H 0.88607 0.16252 0.17845 0.0
H1313 H 0.85258 0.21288 0.15118 0.0
H1314 H 0.84336 0.19912 0.17127 0.0
H1315 H 0.83494 0.18353 0.1521 0.0
C1316 C 0.8357 0.15532 0.21 0.0
C1317 C 0.81516 0.1389 0.204 0.0
C1318 C 0.8527 0.16793 0.1988 0.0
C1319 C 0.84949 0.16459 0.18135 0.0
C1320 C 0.82901 0.1484 0.17522 0.0
H1321 H 0.95075 0.24556 0.10634 0.0
H1322 H 0.9159 0.21688 0.11832 0.0
C1323 C 0.81194 0.13565 0.18646 0.0
C1324 C 0.86797 0.17789 0.16981 0.0
H1325 H 0.88809 0.22151 0.14278 0.0
C1326 C 0.88643 0.17524 0.17047 0.0
C1327 C 0.86825 0.1943 0.15934 0.0
C1328 C 0.84882 0.19784 0.15838 0.0
C1329 C 0.90553 0.18912 0.16139 0.0
C1330 C 0.90628 0.20634 0.15167 0.0
C1331 C 0.88744 0.20831 0.15031 0.0
C1332 C 0.92709 0.22362 0.14421 0.0
C1333 C 0.9249 0.1855 0.16253 0.0
C1334 C 0.94465 0.23713 0.15484 0.0
C1335 C 0.9644 0.25352 0.14811 0.0
C1336 C 0.96703 0.25681 0.13056 0.0
C1337 C 0.94923 0.2435 0.11991 0.0
C1338 C 0.92937 0.22706 0.12671 0.0
H1339 H 0.91971 0.1683 0.16608 0.0
H1340 H 0.93393 0.18937 0.15037 0.0
H1341 H 0.93635 0.19645 0.17239 0.0
H1342 H 0.94301 0.23508 0.16841 0.0
H1343 H 0.97752 0.26383 0.15671 0.0
H1344 H 0.63928 0.79624 0.35882 0.0
H1345 H 0.64499 0.82563 0.33934 0.0
H1346 H 0.71436 0.85935 0.35023 0.0
H1347 H 0.70888 0.82976 0.36934 0.0
H1348 H 0.66099 0.86823 0.34932 0.0
H1349 H 0.71365 0.86456 0.29894 0.0
H1350 H 0.69815 0.84208 0.31333 0.0
H1351 H 0.72398 0.86506 0.31975 0.0
C1352 C 0.65583 0.80961 0.35672 0.0
C1353 C 0.67363 0.8107 0.36565 0.0
C1354 C 0.65905 0.82644 0.34565 0.0
C1355 C 0.68012 0.84454 0.34319 0.0
C1356 C 0.69802 0.84534 0.35167 0.0
H1357 H 0.72062 0.97812 0.32183 0.0
H1358 H 0.71248 0.94249 0.33306 0.0
C1359 C 0.69482 0.82855 0.36276 0.0
C1360 C 0.68312 0.86369 0.33325 0.0
H1361 H 0.71291 0.8983 0.30119 0.0
C1362 C 0.67211 0.87462 0.33864 0.0
C1363 C 0.69747 0.87189 0.31924 0.0
C1364 C 0.70883 0.86017 0.31235 0.0
C1365 C 0.67579 0.89407 0.33087 0.0
C1366 C 0.6911 0.90296 0.31751 0.0
C1367 C 0.70138 0.89155 0.31158 0.0
C1368 C 0.69725 0.9246 0.31015 0.0
C1369 C 0.66345 0.90511 0.33716 0.0
C1370 C 0.69201 0.92639 0.29336 0.0
C1371 C 0.69658 0.94677 0.28689 0.0
C1372 C 0.7065 0.96563 0.29714 0.0
C1373 C 0.7125 0.96382 0.31374 0.0
C1374 C 0.70793 0.94351 0.32016 0.0
H1375 H 0.64847 0.89355 0.3443 0.0
H1376 H 0.67422 0.91877 0.34575 0.0
H1377 H 0.65862 0.91208 0.32652 0.0
H1378 H 0.68384 0.91194 0.28543 0.0
H1379 H 0.6917 0.94763 0.27408 0.0
H1380 H 0.74629 0.69636 0.44339 0.0
H1381 H 0.77442 0.68994 0.45618 0.0
H1382 H 0.77123 0.72136 0.50198 0.0
H1383 H 0.74329 0.72784 0.48935 0.0
H1384 H 0.81666 0.71953 0.47205 0.0
H1385 H 0.75572 0.65853 0.51647 0.0
H1386 H 0.74785 0.66772 0.49784 0.0
H1387 H 0.75651 0.68444 0.51655 0.0
C1388 C 0.75184 0.70215 0.4561 0.0
C1389 C 0.74236 0.71227 0.46548 0.0
C1390 C 0.76784 0.69844 0.46338 0.0
C1391 C 0.77454 0.70481 0.48011 0.0
C1392 C 0.76592 0.71592 0.48916 0.0
H1393 H 0.855 0.69814 0.55714 0.0
H1394 H 0.83241 0.70601 0.5382 0.0
C1395 C 0.74994 0.71955 0.48195 0.0
C1396 C 0.78976 0.69909 0.48855 0.0
H1397 H 0.79336 0.6712 0.52247 0.0
C1398 C 0.81159 0.70877 0.48296 0.0
C1399 C 0.78295 0.68489 0.50266 0.0
C1400 C 0.75943 0.67311 0.50867 0.0
C1401 C 0.82708 0.70542 0.49169 0.0
C1402 C 0.82041 0.69194 0.50621 0.0
C1403 C 0.79842 0.68168 0.5114 0.0
C1404 C 0.83602 0.68896 0.51681 0.0
C1405 C 0.8506 0.71692 0.48577 0.0
C1406 C 0.84573 0.67697 0.51096 0.0
C1407 C 0.85858 0.67231 0.52182 0.0
C1408 C 0.86174 0.67945 0.5387 0.0
C1409 C 0.85255 0.69208 0.54429 0.0
C1410 C 0.83977 0.69671 0.53347 0.0
H1411 H 0.85378 0.72937 0.47589 0.0
H1412 H 0.86191 0.72509 0.49654 0.0
H1413 H 0.85446 0.70464 0.48045 0.0
H1414 H 0.84275 0.67058 0.4982 0.0
H1415 H 0.8653 0.66239 0.5172 0.0
H1416 H 0.0552 0.73961 0.6078 0.0
H1417 H 0.09025 0.76654 0.62056 0.0
H1418 H 0.05549 0.77891 0.65991 0.0
H1419 H 0.02055 0.75186 0.64757 0.0
H1420 H 0.09226 0.81771 0.64499 0.0
H1421 H 0.11269 0.75443 0.66603 0.0
H1422 H 0.10597 0.75433 0.6441 0.0
H1423 H 0.08525 0.74752 0.65988 0.0
C1424 C 0.05502 0.74804 0.61919 0.0
C1425 C 0.03503 0.74354 0.62667 0.0
C1426 C 0.07504 0.76344 0.62642 0.0
C1427 C 0.07538 0.77456 0.64122 0.0
C1428 C 0.05553 0.77055 0.64844 0.0
H1429 H 0.16257 0.83673 0.72279 0.0
H1430 H 0.13356 0.81389 0.70284 0.0
C1431 C 0.03556 0.75515 0.64129 0.0
C1432 C 0.09627 0.78979 0.64972 0.0
H1433 H 0.13705 0.79097 0.67384 0.0
C1434 C 0.10227 0.81199 0.65112 0.0
C1435 C 0.10909 0.78212 0.65779 0.0
C1436 C 0.10297 0.75829 0.65704 0.0
C1437 C 0.12051 0.82667 0.66076 0.0
C1438 C 0.13307 0.8189 0.66909 0.0
C1439 C 0.1274 0.79683 0.66734 0.0
C1440 C 0.15096 0.83291 0.68088 0.0
C1441 C 0.12565 0.85013 0.66259 0.0
C1442 C 0.17041 0.8511 0.67508 0.0
C1443 C 0.18702 0.86429 0.68649 0.0
C1444 C 0.18439 0.85949 0.70387 0.0
C1445 C 0.16494 0.84111 0.70954 0.0
C1446 C 0.14843 0.82793 0.69815 0.0
H1447 H 0.11235 0.85262 0.65748 0.0
H1448 H 0.12831 0.85513 0.67607 0.0
H1449 H 0.14101 0.8611 0.65565 0.0
H1450 H 0.17274 0.85505 0.66176 0.0
H1451 H 0.20179 0.87838 0.68175 0.0
H1452 H 0.32486 0.04323 0.80835 0.0
H1453 H 0.32982 0.07742 0.82018 0.0
H1454 H 0.26959 0.0657 0.79667 0.0
H1455 H 0.26391 0.03081 0.78543 0.0
H1456 H 0.3338 0.11448 0.80551 0.0
H1457 H 0.25903 0.07392 0.84579 0.0
H1458 H 0.2699 0.0587 0.8352 0.0
H1459 H 0.25439 0.06832 0.8236 0.0
C1460 C 0.31253 0.04779 0.8058 0.0
C1461 C 0.29381 0.03409 0.79615 0.0
C1462 C 0.31551 0.06746 0.81244 0.0
C1463 C 0.29988 0.07393 0.80955 0.0
C1464 C 0.28162 0.0608 0.79934 0.0
H1465 H 0.29913 0.18632 0.85784 0.0
H1466 H 0.29149 0.1569 0.83757 0.0
C1467 C 0.27854 0.04099 0.79276 0.0
C1468 C 0.30266 0.09413 0.8177 0.0
H1469 H 0.2805 0.11236 0.84757 0.0
C1470 C 0.32204 0.11406 0.81459 0.0
C1471 C 0.28728 0.09354 0.82953 0.0
C1472 C 0.26655 0.07248 0.83388 0.0
C1473 C 0.32674 0.13327 0.82333 0.0
C1474 C 0.31172 0.13247 0.83554 0.0
C1475 C 0.29192 0.11284 0.83814 0.0
C1476 C 0.31715 0.15122 0.84685 0.0
C1477 C 0.3479 0.1542 0.81969 0.0
C1478 C 0.33402 0.15762 0.85876 0.0
C1479 C 0.3383 0.17421 0.87035 0.0
C1480 C 0.32579 0.18475 0.87024 0.0
C1481 C 0.30913 0.17859 0.85811 0.0
C1482 C 0.30471 0.16179 0.84658 0.0
H1483 H 0.35477 0.15361 0.8072 0.0
H1484 H 0.3454 0.16859 0.82 0.0
H1485 H 0.36017 0.15663 0.8295 0.0
H1486 H 0.34358 0.14942 0.8593 0.0
H1487 H 0.35135 0.17875 0.87947 0.0
H1488 H 0.74048 0.76993 0.87755 0.0
H1489 H 0.7344 0.79824 0.86498 0.0
H1490 H 0.66673 0.74996 0.85557 0.0
H1491 H 0.67271 0.72143 0.86763 0.0
H1492 H 0.71864 0.79478 0.83042 0.0
H1493 H 0.66474 0.80317 0.87752 0.0
H1494 H 0.68228 0.79207 0.88279 0.0
H1495 H 0.65702 0.77553 0.87164 0.0
C1496 C 0.72427 0.76531 0.87286 0.0
C1497 C 0.70711 0.74335 0.87356 0.0
C1498 C 0.72081 0.78155 0.8658 0.0
C1499 C 0.70008 0.77619 0.85954 0.0
C1500 C 0.68275 0.75447 0.86065 0.0
H1501 H 0.64263 0.83706 0.80037 0.0
H1502 H 0.65033 0.81428 0.81938 0.0
C1503 C 0.68621 0.7382 0.86759 0.0
C1504 C 0.69702 0.79279 0.8504 0.0
H1505 H 0.66844 0.82023 0.85088 0.0
C1506 C 0.70787 0.80058 0.83495 0.0
C1507 C 0.68278 0.80005 0.85633 0.0
C1508 C 0.67112 0.79244 0.87305 0.0
C1509 C 0.70436 0.81498 0.82494 0.0
C1510 C 0.69007 0.82228 0.83083 0.0
C1511 C 0.67945 0.8147 0.84643 0.0
C1512 C 0.6853 0.83705 0.8206 0.0
C1513 C 0.71528 0.82148 0.80786 0.0
C1514 C 0.70231 0.85768 0.8154 0.0
C1515 C 0.69798 0.8706 0.80443 0.0
C1516 C 0.67649 0.86329 0.79872 0.0
C1517 C 0.65932 0.84314 0.80464 0.0
C1518 C 0.6637 0.83011 0.81546 0.0
H1519 H 0.72079 0.81001 0.80344 0.0
H1520 H 0.704 0.82191 0.79825 0.0
H1521 H 0.72997 0.8381 0.8087 0.0
H1522 H 0.71901 0.86361 0.81958 0.0
H1523 H 0.71146 0.88623 0.80027 0.0
H1524 H 0.81232 0.64365 0.95994 0.0
H1525 H 0.843 0.65333 0.9792 0.0
H1526 H 0.85048 0.7175 0.98641 0.0
H1527 H 0.81986 0.708 0.96694 0.0
H1528 H 0.88956 0.71732 0.97721 0.0
H1529 H 0.84744 0.66154 0.03106 0.0
H1530 H 0.84038 0.64812 0.01087 0.0
H1531 H 0.83306 0.66864 0.01565 0.0
C1532 C 0.82041 0.65978 0.96571 0.0
C1533 C 0.81375 0.6751 0.96192 0.0
C1534 C 0.83777 0.6652 0.97684 0.0
C1535 C 0.84878 0.68601 0.98439 0.0
C1536 C 0.84201 0.70127 0.98082 0.0
H1537 H 0.9639 0.73089 0.05097 0.0
H1538 H 0.92918 0.72553 0.03934 0.0
C1539 C 0.82451 0.6958 0.96977 0.0
C1540 C 0.86847 0.6923 0.99484 0.0
H1541 H 0.88651 0.6768 0.02938 0.0
C1542 C 0.88887 0.70875 0.98878 0.0
C1543 C 0.86748 0.68113 0.00996 0.0
C1544 C 0.84589 0.664 0.01739 0.0
C1545 C 0.90843 0.71352 0.99698 0.0
C1546 C 0.90748 0.70156 0.01157 0.0
C1547 C 0.88708 0.68585 0.01812 0.0
C1548 C 0.92766 0.70397 0.01928 0.0
C1549 C 0.9301 0.73077 0.98974 0.0
C1550 C 0.93791 0.69331 0.01195 0.0
C1551 C 0.95752 0.69615 0.01859 0.0
C1552 C 0.96733 0.70982 0.03266 0.0
C1553 C 0.95669 0.72012 0.04021 0.0
C1554 C 0.93696 0.71718 0.03356 0.0
H1555 H 0.92797 0.74063 0.97974 0.0
H1556 H 0.9407 0.74198 -0.00013 0.0
H1557 H 0.93876 0.72269 0.98422 0.0
H1558 H 0.93081 0.68294 0.00097 0.0
H1559 H 0.96502 0.68763 0.01267 0.0
H1560 H 0.27797 0.94809 0.20454 0.0
H1561 H 0.25098 0.91338 0.19145 0.0
H1562 H 0.20242 0.93361 0.19345 0.0
H1563 H 0.22924 0.96832 0.20667 0.0
H1564 H 0.18917 0.88513 0.20299 0.0
H1565 H 0.22992 0.91722 0.14085 0.0
H1566 H 0.24702 0.91997 0.15867 0.0
H1567 H 0.23282 0.9352 0.15816 0.0
C1568 C 0.26141 0.94495 0.20255 0.0
C1569 C 0.25573 0.96097 0.20654 0.0
C1570 C 0.24607 0.92518 0.19502 0.0
C1571 C 0.22482 0.92108 0.19146 0.0
C1572 C 0.21877 0.93654 0.19614 0.0
H1573 H 0.12775 0.83619 0.1199 0.0
H1574 H 0.15122 0.8654 0.13952 0.0
C1575 C 0.23412 0.95637 0.20357 0.0
C1576 C 0.20953 0.90161 0.18151 0.0
H1577 H 0.19936 0.88153 0.14132 0.0
C1578 C 0.19139 0.8842 0.18953 0.0
C1579 C 0.21249 0.90069 0.16396 0.0
C1580 C 0.23152 0.91926 0.15478 0.0
C1581 C 0.17607 0.86575 0.18034 0.0
C1582 C 0.17907 0.86488 0.16279 0.0
C1583 C 0.19721 0.8823 0.15481 0.0
C1584 C 0.1633 0.84634 0.15223 0.0
C1585 C 0.15656 0.84752 0.1893 0.0
C1586 C 0.16222 0.8259 0.15304 0.0
C1587 C 0.14902 0.80922 0.14169 0.0
C1588 C 0.13673 0.81276 0.12934 0.0
C1589 C 0.1373 0.83305 0.12904 0.0
C1590 C 0.15057 0.8497 0.14031 0.0
H1591 H 0.15506 0.85199 0.20249 0.0
H1592 H 0.14121 0.84325 0.18237 0.0
H1593 H 0.15824 0.83265 0.18959 0.0
H1594 H 0.17218 0.82314 0.16204 0.0
H1595 H 0.14916 0.7939 0.14215 0.0
H1596 H 0.33527 0.16861 0.27823 0.0
H1597 H 0.32719 0.1901 0.29813 0.0
H1598 H 0.30026 0.13596 0.33316 0.0
H1599 H 0.30791 0.11402 0.31312 0.0
H1600 H 0.28369 0.17692 0.31164 0.0
H1601 H 0.34601 0.19124 0.36091 0.0
H1602 H 0.34828 0.1837 0.33951 0.0
H1603 H 0.32864 0.16351 0.35363 0.0
C1604 C 0.32748 0.16116 0.2901 0.0
C1605 C 0.32208 0.13952 0.29402 0.0
C1606 C 0.32301 0.17352 0.30149 0.0
C1607 C 0.31324 0.16463 0.3171 0.0
C1608 C 0.30805 0.14317 0.32123 0.0
H1609 H 0.25942 0.2314 0.37778 0.0
H1610 H 0.26393 0.20197 0.36532 0.0
C1611 C 0.31247 0.1307 0.30979 0.0
C1612 C 0.30794 0.17781 0.32869 0.0
H1613 H 0.32407 0.20741 0.36526 0.0
C1614 C 0.29229 0.18339 0.32348 0.0
C1615 C 0.31934 0.18626 0.34402 0.0
C1616 C 0.33662 0.18106 0.34991 0.0
C1617 C 0.28811 0.1977 0.33301 0.0
C1618 C 0.29975 0.20645 0.34824 0.0
C1619 C 0.31506 0.20049 0.35365 0.0
C1620 C 0.29767 0.22339 0.35779 0.0
C1621 C 0.27201 0.20414 0.32634 0.0
C1622 C 0.3154 0.24496 0.35824 0.0
C1623 C 0.31292 0.26172 0.36539 0.0
C1624 C 0.29266 0.2572 0.3723 0.0
C1625 C 0.27524 0.23537 0.37262 0.0
C1626 C 0.27773 0.21858 0.36541 0.0
H1627 H 0.26728 0.19888 0.31304 0.0
H1628 H 0.25691 0.19629 0.33416 0.0
H1629 H 0.27905 0.2222 0.32709 0.0
H1630 H 0.33093 0.24896 0.35247 0.0
H1631 H 0.32672 0.27833 0.36519 0.0
H1632 H 0.16907 0.29018 0.46315 0.0
H1633 H 0.14 0.28568 0.48255 0.0
H1634 H 0.17382 0.35556 0.49112 0.0
H1635 H 0.20272 0.3603 0.47146 0.0
H1636 H 0.14184 0.29935 0.51766 0.0
H1637 H 0.11207 0.33984 0.47296 0.0
H1638 H 0.1302 0.32994 0.46652 0.0
H1639 H 0.14076 0.35505 0.47826 0.0
C1640 C 0.17033 0.30459 0.46919 0.0
C1641 C 0.18809 0.32562 0.46565 0.0
C1642 C 0.15381 0.30197 0.48034 0.0
C1643 C 0.15468 0.32031 0.48808 0.0
C1644 C 0.17278 0.34123 0.48512 0.0
H1645 H 0.05246 0.3305 0.54238 0.0
H1646 H 0.08791 0.33872 0.53066 0.0
C1647 C 0.18935 0.34388 0.47399 0.0
C1648 C 0.13605 0.31761 0.49852 0.0
H1649 H 0.09363 0.32804 0.49891 0.0
C1650 C 0.13132 0.3057 0.51364 0.0
C1651 C 0.12245 0.32595 0.49321 0.0
C1652 C 0.12643 0.33828 0.4768 0.0
C1653 C 0.11324 0.30188 0.52363 0.0
C1654 C 0.09934 0.3098 0.51811 0.0
C1655 C 0.10435 0.32205 0.50314 0.0
C1656 C 0.07886 0.30471 0.52713 0.0
C1657 C 0.10931 0.28955 0.54002 0.0
C1658 C 0.06207 0.28285 0.52919 0.0
C1659 C 0.04186 0.27809 0.53604 0.0
C1660 C 0.03794 0.29511 0.54079 0.0
C1661 C 0.055 0.31699 0.53909 0.0
C1662 C 0.07524 0.32173 0.53228 0.0
H1663 H 0.12467 0.29076 0.54493 0.0
H1664 H 0.1025 0.29583 0.54978 0.0
H1665 H 0.09733 0.27192 0.53786 0.0
H1666 H 0.06432 0.26946 0.52498 0.0
H1667 H 0.02915 0.26107 0.53732 0.0
H1668 H 0.82779 0.17574 0.61665 0.0
H1669 H 0.80611 0.14634 0.63674 0.0
H1670 H 0.86548 0.15737 0.66133 0.0
H1671 H 0.8874 0.18691 0.64116 0.0
H1672 H 0.83303 0.1115 0.65108 0.0
H1673 H 0.79697 0.1523 0.68868 0.0
H1674 H 0.79581 0.15485 0.66617 0.0
H1675 H 0.82198 0.16743 0.67661 0.0
C1676 C 0.83624 0.17193 0.62635 0.0
C1677 C 0.85927 0.18355 0.62733 0.0
C1678 C 0.82384 0.15528 0.63789 0.0
C1679 C 0.83423 0.1499 0.65058 0.0
C1680 C 0.85721 0.16147 0.65167 0.0
H1681 H 0.76759 0.03119 0.71388 0.0
H1682 H 0.79662 0.06594 0.70231 0.0
C1683 C 0.86966 0.17832 0.64021 0.0
C1684 C 0.82091 0.13136 0.66204 0.0
H1685 H 0.77997 0.11342 0.69132 0.0
C1686 C 0.82167 0.11194 0.66011 0.0
C1687 C 0.80613 0.13211 0.67372 0.0
C1688 C 0.80522 0.15284 0.67658 0.0
C1689 C 0.8071 0.09276 0.6689 0.0
C1690 C 0.79177 0.09329 0.68021 0.0
C1691 C 0.79171 0.11304 0.68265 0.0
C1692 C 0.77442 0.07315 0.68848 0.0
C1693 C 0.80742 0.07186 0.66526 0.0
C1694 C 0.75231 0.06617 0.68514 0.0
C1695 C 0.73571 0.04659 0.69198 0.0
C1696 C 0.74086 0.03349 0.70227 0.0
C1697 C 0.76304 0.0409 0.70606 0.0
C1698 C 0.77967 0.06062 0.69929 0.0
H1699 H 0.81678 0.07317 0.65359 0.0
H1700 H 0.81538 0.06829 0.67593 0.0
H1701 H 0.79048 0.05777 0.66387 0.0
H1702 H 0.74788 0.07567 0.67694 0.0
H1703 H 0.71881 0.04164 0.68909 0.0
H1704 H 0.223 0.33532 0.29998 0.0
H1705 H 0.20699 0.33803 0.27335 0.0
H1706 H 0.20497 0.39454 0.29215 0.0
H1707 H 0.22165 0.39238 0.31868 0.0
H1708 H 0.16639 0.33577 0.26893 0.0
H1709 H 0.23501 0.41532 0.24602 0.0
H1710 H 0.23837 0.39985 0.26278 0.0
H1711 H 0.22549 0.41591 0.26695 0.0
C1712 C 0.21949 0.34855 0.29836 0.0
C1713 C 0.22374 0.36372 0.31142 0.0
C1714 C 0.2102 0.34998 0.28318 0.0
C1715 C 0.20507 0.36665 0.28071 0.0
C1716 C 0.20917 0.38178 0.29371 0.0
H1717 H 0.14322 0.39544 0.19686 0.0
H1718 H 0.16052 0.39575 0.22379 0.0
C1719 C 0.21847 0.38037 0.30892 0.0
C1720 C 0.19469 0.36763 0.26472 0.0
H1721 H 0.20216 0.39944 0.23002 0.0
C1722 C 0.17422 0.34966 0.2604 0.0
C1723 C 0.20492 0.38584 0.25369 0.0
C1724 C 0.22725 0.40528 0.25747 0.0
C1725 C 0.16362 0.34943 0.24535 0.0
C1726 C 0.17397 0.3675 0.2342 0.0
C1727 C 0.19432 0.38561 0.23861 0.0
C1728 C 0.16406 0.36767 0.21777 0.0
C1729 C 0.14129 0.32997 0.2416 0.0
C1730 C 0.16072 0.35204 0.2054 0.0
C1731 C 0.15078 0.35175 0.19007 0.0
C1732 C 0.14408 0.36719 0.1868 0.0
C1733 C 0.14792 0.38315 0.19909 0.0
C1734 C 0.1579 0.38343 0.21443 0.0
H1735 H 0.13326 0.32038 0.25318 0.0
H1736 H 0.13036 0.33529 0.23576 0.0
H1737 H 0.14314 0.31892 0.23259 0.0
H1738 H 0.16569 0.33995 0.20764 0.0
H1739 H 0.1479 0.33912 0.18095 0.0
H1740 H 0.89068 0.23023 0.46444 0.0
H1741 H 0.87238 0.21356 0.43775 0.0
H1742 H 0.81054 0.20108 0.45855 0.0
H1743 H 0.82876 0.21797 0.48527 0.0
H1744 H 0.8348 0.16846 0.43453 0.0
H1745 H 0.81713 0.23306 0.41212 0.0
H1746 H 0.83817 0.23849 0.42756 0.0
H1747 H 0.80978 0.22389 0.43357 0.0
C1748 C 0.87324 0.22421 0.46326 0.0
C1749 C 0.86115 0.22546 0.47693 0.0
C1750 C 0.86281 0.2146 0.44805 0.0
C1751 C 0.84019 0.2063 0.44618 0.0
C1752 C 0.82807 0.20764 0.45972 0.0
H1753 H 0.75005 0.14283 0.36268 0.0
H1754 H 0.76725 0.1606 0.38936 0.0
C1755 C 0.83846 0.21711 0.47499 0.0
C1756 C 0.82916 0.19545 0.43025 0.0
H1757 H 0.80316 0.20076 0.39573 0.0
C1758 C 0.8279 0.1755 0.426 0.0
C1759 C 0.82007 0.20466 0.4193 0.0
C1760 C 0.8214 0.22628 0.42322 0.0
C1761 C 0.81758 0.16434 0.4111 0.0
C1762 C 0.80883 0.17374 0.39994 0.0
C1763 C 0.80994 0.19364 0.40428 0.0
C1764 C 0.79855 0.16321 0.38366 0.0
C1765 C 0.81574 0.14237 0.40765 0.0
C1766 C 0.81056 0.15912 0.37149 0.0
C1767 C 0.8007 0.1487 0.35634 0.0
C1768 C 0.77869 0.14242 0.35294 0.0
C1769 C 0.76689 0.14708 0.365 0.0
C1770 C 0.77674 0.15739 0.3802 0.0
H1771 H 0.81729 0.13467 0.41942 0.0
H1772 H 0.79983 0.1309 0.40156 0.0
H1773 H 0.82917 0.14471 0.39902 0.0
H1774 H 0.82757 0.16392 0.37373 0.0
H1775 H 0.81025 0.14523 0.34743 0.0
H1776 H 0.65824 0.84624 0.65316 0.0
H1777 H 0.65624 0.82828 0.6264 0.0
H1778 H 0.61035 0.84687 0.60747 0.0
H1779 H 0.61087 0.86338 0.63465 0.0
H1780 H 0.59831 0.80675 0.59799 0.0
H1781 H 0.68687 0.85923 0.58419 0.0
H1782 H 0.68228 0.84459 0.60366 0.0
H1783 H 0.67374 0.86473 0.60154 0.0
C1784 C 0.64739 0.84621 0.64346 0.0
C1785 C 0.63485 0.8565 0.64611 0.0
C1786 C 0.64658 0.83624 0.62801 0.0
C1787 C 0.63364 0.83677 0.61474 0.0
C1788 C 0.62067 0.84649 0.61746 0.0
H1789 H 0.65382 0.81224 0.5107 0.0
H1790 H 0.65138 0.82847 0.53717 0.0
C1791 C 0.62119 0.85615 0.63298 0.0
C1792 C 0.63353 0.82714 0.59803 0.0
H1793 H 0.66703 0.82797 0.56652 0.0
C1794 C 0.61333 0.81149 0.59105 0.0
C1795 C 0.65308 0.83363 0.5888 0.0
C1796 C 0.67517 0.85164 0.59485 0.0
C1797 C 0.61214 0.80193 0.57524 0.0
C1798 C 0.6318 0.80758 0.56644 0.0
C1799 C 0.65196 0.82344 0.57332 0.0
C1800 C 0.63195 0.79743 0.55002 0.0
C1801 C 0.58979 0.7863 0.56802 0.0
C1802 C 0.6218 0.77454 0.54834 0.0
C1803 C 0.62259 0.76514 0.53301 0.0
C1804 C 0.63408 0.77843 0.51911 0.0
C1805 C 0.64441 0.80139 0.52092 0.0
C1806 C 0.64325 0.81075 0.53616 0.0
H1807 H 0.57699 0.78943 0.57333 0.0
H1808 H 0.58965 0.78764 0.55407 0.0
H1809 H 0.58526 0.76923 0.57135 0.0
H1810 H 0.61348 0.7639 0.55895 0.0
H1811 H 0.61417 0.74741 0.53211 0.0
H1812 H 0.83839 0.64776 0.67723 0.0
H1813 H 0.82024 0.6462 0.704 0.0
H1814 H 0.85536 0.61813 0.72831 0.0
H1815 H 0.87341 0.61938 0.70153 0.0
H1816 H 0.80753 0.59697 0.73529 0.0
H1817 H 0.85379 0.68741 0.7452 0.0
H1818 H 0.84107 0.67811 0.72487 0.0
H1819 H 0.86311 0.67367 0.731 0.0
C1820 C 0.84207 0.64104 0.68823 0.0
C1821 C 0.85738 0.63376 0.6873 0.0
C1822 C 0.83182 0.64031 0.70351 0.0
C1823 C 0.83666 0.63226 0.7181 0.0
C1824 C 0.85152 0.6245 0.71717 0.0
H1825 H 0.80921 0.6471 0.8224 0.0
H1826 H 0.82596 0.6451 0.79586 0.0
C1827 C 0.86189 0.62534 0.70191 0.0
C1828 C 0.82648 0.63226 0.73442 0.0
H1829 H 0.82538 0.66632 0.7646 0.0
C1830 C 0.8114 0.61209 0.74174 0.0
C1831 C 0.8318 0.65204 0.74281 0.0
C1832 C 0.84845 0.67408 0.73569 0.0
C1833 C 0.8012 0.61123 0.75718 0.0
C1834 C 0.8062 0.63104 0.76539 0.0
C1835 C 0.82153 0.65118 0.75819 0.0
C1836 C 0.79576 0.63127 0.78154 0.0
C1837 C 0.78535 0.58918 0.76472 0.0
C1838 C 0.77327 0.62422 0.7822 0.0
C1839 C 0.76366 0.62536 0.79733 0.0
C1840 C 0.7764 0.63355 0.81205 0.0
C1841 C 0.79892 0.64045 0.81133 0.0
C1842 C 0.80853 0.63943 0.79618 0.0
H1843 H 0.78671 0.57566 0.75866 0.0
H1844 H 0.78824 0.58906 0.77849 0.0
H1845 H 0.76832 0.5859 0.76292 0.0
H1846 H 0.76322 0.61813 0.77096 0.0
H1847 H 0.74625 0.6198 0.79752 0.0
H1848 H 0.2028 0.82427 0.84069 0.0
H1849 H 0.18545 0.80482 0.86689 0.0
H1850 H 0.22359 0.86457 0.89513 0.0
H1851 H 0.24079 0.88421 0.86904 0.0
H1852 H 0.2224 0.82655 0.90935 0.0
H1853 H 0.13939 0.81297 0.89371 0.0
H1854 H 0.15166 0.80383 0.87815 0.0
H1855 H 0.16379 0.83262 0.8826 0.0
C1856 C 0.20737 0.83331 0.85246 0.0
C1857 C 0.22312 0.85582 0.85276 0.0
C1858 C 0.19749 0.82216 0.8674 0.0
C1859 C 0.20311 0.83334 0.88288 0.0
C1860 C 0.21907 0.85567 0.88328 0.0
H1861 H 0.13707 0.80306 0.97847 0.0
H1862 H 0.15504 0.81849 0.95151 0.0
C1863 C 0.22894 0.86683 0.86837 0.0
C1864 C 0.19221 0.82192 0.8987 0.0
H1865 H 0.14295 0.79772 0.91922 0.0
C1866 C 0.20501 0.82013 0.91152 0.0
C1867 C 0.16958 0.81378 0.90148 0.0
C1868 C 0.15526 0.81599 0.88835 0.0
C1869 C 0.19575 0.81046 0.92712 0.0
C1870 C 0.1731 0.80224 0.92985 0.0
C1871 C 0.16029 0.80393 0.91701 0.0
C1872 C 0.16253 0.79277 0.94624 0.0
C1873 C 0.21035 0.80965 0.94072 0.0
C1874 C 0.16073 0.77313 0.95215 0.0
C1875 C 0.15033 0.76416 0.96753 0.0
C1876 C 0.14147 0.77465 0.97721 0.0
C1877 C 0.14341 0.79438 0.97122 0.0
C1878 C 0.15376 0.80329 0.95586 0.0
H1879 H 0.22804 0.82047 0.93778 0.0
H1880 H 0.20677 0.81462 0.95308 0.0
H1881 H 0.20714 0.79258 0.94195 0.0
H1882 H 0.16711 0.76459 0.94476 0.0
H1883 H 0.14883 0.74879 0.97167 0.0
H1884 H 0.38374 0.17247 0.15494 0.0
H1885 H 0.385 0.19098 0.12838 0.0
H1886 H 0.34804 0.12818 0.10375 0.0
H1887 H 0.34631 0.10956 0.13025 0.0
H1888 H 0.40155 0.18703 0.09556 0.0
H1889 H 0.3126 0.1601 0.095 0.0
H1890 H 0.32672 0.15932 0.11379 0.0
H1891 H 0.31891 0.13851 0.09789 0.0
C1892 C 0.37579 0.16262 0.14388 0.0
C1893 C 0.36484 0.13955 0.1447 0.0
C1894 C 0.37664 0.17321 0.12872 0.0
C1895 C 0.36639 0.16091 0.11421 0.0
C1896 C 0.35582 0.13793 0.11489 0.0
H1897 H 0.34367 0.18832 0.01242 0.0
H1898 H 0.34601 0.17181 0.03889 0.0
C1899 C 0.35503 0.12734 0.13 0.0
C1900 C 0.36652 0.17204 0.09833 0.0
H1901 H 0.3328 0.17768 0.07035 0.0
C1902 C 0.38657 0.18513 0.09005 0.0
C1903 C 0.34693 0.16947 0.09125 0.0
C1904 C 0.32506 0.15625 0.09998 0.0
C1905 C 0.38747 0.19528 0.07458 0.0
C1906 C 0.36782 0.19257 0.06743 0.0
C1907 C 0.34782 0.17966 0.07583 0.0
C1908 C 0.36751 0.20278 0.05115 0.0
C1909 C 0.40931 0.2083 0.06579 0.0
C1910 C 0.3788 0.22569 0.04928 0.0
C1911 C 0.37766 0.23519 0.03409 0.0
C1912 C 0.36507 0.22195 0.02054 0.0
C1913 C 0.35381 0.199 0.02248 0.0
C1914 C 0.35499 0.18953 0.03765 0.0
H1915 H 0.4216 0.20413 0.07064 0.0
H1916 H 0.40757 0.20539 0.05196 0.0
H1917 H 0.41576 0.22606 0.06803 0.0
H1918 H 0.38822 0.23623 0.05965 0.0
H1919 H 0.38666 0.25291 0.03297 0.0
loop_
_geom_bond_atom_site_label_1
_geom_bond_atom_site_label_2
_geom_bond_distance
_geom_bond_site_symmetry_2
_ccdc_geom_bond_type
Li0 N17 1.990 . S
Li0 O60 1.956 . S
Li0 O61 1.970 . S
Li0 O62 1.961 . S
Li1 N25 1.990 . S
Li1 O60 1.970 . S
Li1 O61 1.956 . S
Li1 O63 1.961 . S
Li2 N47 1.990 . S
Li2 O60 1.961 . S
Li2 O62 1.956 . S
Li2 O63 1.970 . S
Li3 N53 1.990 . S
Li3 O61 1.961 . S
Li3 O62 1.970 . S
Li3 O63 1.956 . S
C4 C6 1.348 . S
C4 C7 1.356 . S
C4 O60 1.325 . S
N5 C8 1.314 . S
N5 C9 1.279 . S
C6 C4 1.348 . S
C6 C8 1.353 . S
C6 H64 0.929 . S
C7 C4 1.356 . S
C7 C9 1.358 . S
C7 H65 0.930 . S
C8 N5 1.314 . S
C8 C6 1.353 . S
C8 H66 0.930 . S
C9 N5 1.279 . S
C9 C7 1.358 . S
C9 H67 0.930 . S
C10 C13 1.348 . S
C10 C14 1.356 . S
C10 O61 1.325 . S
C11 N12 1.279 . S
C11 C14 1.358 . S
C11 H68 0.930 . S
N12 C11 1.279 . S
N12 C15 1.314 . S
C13 C10 1.348 . S
C13 C15 1.353 . S
C13 H69 0.929 . S
C14 C10 1.356 . S
C14 C11 1.358 . S
C14 H70 0.930 . S
C15 N12 1.314 . S
C15 C13 1.353 . S
C15 H71 0.930 . S
C16 N17 1.314 . S
C16 C21 1.353 . S
C16 H22 0.930 . S
N17 Li0 1.990 . S
N17 C16 1.314 . S
N17 C19 1.279 . S
C18 C19 1.358 . S
C18 C20 1.356 . S
C18 H72 0.930 . S
C19 N17 1.279 . S
C19 C18 1.358 . S
C19 H23 0.930 . S
C20 C18 1.356 . S
C20 C21 1.348 . S
C21 C16 1.353 . S
C21 C20 1.348 . S
C21 H73 0.929 . S
H22 C16 0.930 . S
H23 C19 0.930 . S
C24 N25 1.314 . S
C24 C26 1.353 . S
C24 H30 0.930 . S
N25 Li1 1.990 . S
N25 C24 1.314 . S
N25 C28 1.279 . S
C26 C24 1.353 . S
C26 C29 1.348 . S
C26 H74 0.929 . S
C27 C28 1.358 . S
C27 C29 1.356 . S
C27 H75 0.930 . S
C28 N25 1.279 . S
C28 C27 1.358 . S
C28 H31 0.930 . S
C29 C26 1.348 . S
C29 C27 1.356 . S
H30 C24 0.930 . S
H31 C28 0.930 . S
C32 C34 1.348 . S
C32 C35 1.356 . S
C32 O62 1.325 . S
N33 C36 1.314 . S
N33 C37 1.279 . S
C34 C32 1.348 . S
C34 C36 1.353 . S
C34 H76 0.929 . S
C35 C32 1.356 . S
C35 C37 1.358 . S
C35 H77 0.930 . S
C36 N33 1.314 . S
C36 C34 1.353 . S
C36 H78 0.930 . S
C37 N33 1.279 . S
C37 C35 1.358 . S
C37 H79 0.930 . S
C38 C39 1.348 . S
C38 C40 1.356 . S
C38 O63 1.325 . S
C39 C38 1.348 . S
C39 C41 1.353 . S
C39 H80 0.929 . S
C40 C38 1.356 . S
C40 C42 1.358 . S
C40 H81 0.930 . S
C41 C39 1.353 . S
C41 N43 1.314 . S
C41 H82 0.930 . S
C42 C40 1.358 . S
C42 N43 1.279 . S
C42 H83 0.930 . S
N43 C41 1.314 . S
N43 C42 1.279 . S
C44 C46 1.353 1_455 S
C44 N47 1.314 . S
C44 H50 0.930 . S
C45 N47 1.279 . S
C45 C48 1.358 1_455 S
C45 H51 0.930 . S
C46 C44 1.353 1_655 S
C46 C49 1.348 . S
C46 H84 0.929 . S
N47 Li2 1.990 . S
N47 C44 1.314 . S
N47 C45 1.279 . S
C48 C45 1.358 1_655 S
C48 C49 1.356 . S
C48 H85 0.930 . S
C49 C46 1.348 . S
C49 C48 1.356 . S
H50 C44 0.930 . S
H51 C45 0.930 . S
C52 N53 1.314 . S
C52 C54 1.353 . S
C52 H58 0.930 . S
N53 Li3 1.990 . S
N53 C52 1.314 . S
N53 C56 1.279 . S
C54 C52 1.353 . S
C54 C57 1.348 . S
C54 H86 0.929 . S
C55 C56 1.358 . S
C55 C57 1.356 . S
C55 H87 0.930 . S
C56 N53 1.279 . S
C56 C55 1.358 . S
C56 H59 0.930 . S
C57 C54 1.348 . S
C57 C55 1.356 . S
H58 C52 0.930 . S
H59 C56 0.930 . S
O60 Li0 1.956 . S
O60 Li1 1.970 . S
O60 Li2 1.961 . S
O60 C4 1.325 . S
O61 Li0 1.970 . S
O61 Li1 1.956 . S
O61 Li3 1.961 . S
O61 C10 1.325 . S
O62 Li0 1.961 . S
O62 Li2 1.956 . S
O62 Li3 1.970 . S
O62 C32 1.325 . S
O63 Li1 1.961 . S
O63 Li2 1.970 . S
O63 Li3 1.956 . S
O63 C38 1.325 . S
H64 C6 0.929 . S
H65 C7 0.930 . S
H66 C8 0.930 . S
H67 C9 0.930 . S
H68 C11 0.930 . S
H69 C13 0.929 . S
H70 C14 0.930 . S
H71 C15 0.930 . S
H72 C18 0.930 . S
H73 C21 0.929 . S
H74 C26 0.929 . S
H75 C27 0.930 . S
H76 C34 0.929 . S
H77 C35 0.930 . S
H78 C36 0.930 . S
H79 C37 0.930 . S
H80 C39 0.929 . S
H81 C40 0.930 . S
H82 C41 0.930 . S
H83 C42 0.930 . S
H84 C46 0.929 . S
H85 C48 0.930 . S
H86 C54 0.929 . S
H87 C55 0.930 . S
Li88 N105 1.990 . S
Li88 O148 1.956 . S
Li88 O149 1.970 . S
Li88 O150 1.961 . S
Li89 N113 1.990 . S
Li89 O148 1.970 . S
Li89 O149 1.956 . S
Li89 O151 1.961 . S
Li90 N135 1.990 . S
Li90 O148 1.961 . S
Li90 O150 1.956 . S
Li90 O151 1.970 . S
Li91 N141 1.990 . S
Li91 O149 1.961 . S
Li91 O150 1.970 . S
Li91 O151 1.956 . S
C92 C94 1.348 . S
C92 C95 1.356 . S
C92 O148 1.325 . S
N93 C96 1.314 . S
N93 C97 1.279 . S
C94 C92 1.348 . S
C94 C96 1.353 . S
C94 H152 0.929 . S
C95 C92 1.356 . S
C95 C97 1.358 . S
C95 H153 0.930 . S
C96 N93 1.314 . S
C96 C94 1.353 . S
C96 H154 0.930 . S
C97 N93 1.279 . S
C97 C95 1.358 . S
C97 H155 0.930 . S
C98 C101 1.348 . S
C98 C102 1.356 . S
C98 O149 1.325 . S
C99 N100 1.279 . S
C99 C102 1.358 . S
C99 H156 0.930 . S
N100 C99 1.279 . S
N100 C103 1.314 . S
C101 C98 1.348 . S
C101 C103 1.353 . S
C101 H157 0.929 . S
C102 C98 1.356 . S
C102 C99 1.358 . S
C102 H158 0.930 . S
C103 N100 1.314 . S
C103 C101 1.353 . S
C103 H159 0.930 . S
C104 N105 1.314 . S
C104 C109 1.353 . S
C104 H110 0.930 . S
N105 Li88 1.990 . S
N105 C104 1.314 . S
N105 C107 1.279 . S
C106 C107 1.358 . S
C106 C108 1.356 . S
C106 H160 0.930 . S
C107 N105 1.279 . S
C107 C106 1.358 . S
C107 H111 0.930 . S
C108 C106 1.356 . S
C108 C109 1.348 . S
C109 C104 1.353 . S
C109 C108 1.348 . S
C109 H161 0.929 . S
H110 C104 0.930 . S
H111 C107 0.930 . S
C112 N113 1.314 . S
C112 C114 1.353 . S
C112 H118 0.930 . S
N113 Li89 1.990 . S
N113 C112 1.314 . S
N113 C116 1.279 . S
C114 C112 1.353 . S
C114 C117 1.348 . S
C114 H162 0.929 . S
C115 C116 1.358 . S
C115 C117 1.356 . S
C115 H163 0.930 . S
C116 N113 1.279 . S
C116 C115 1.358 . S
C116 H119 0.930 . S
C117 C114 1.348 . S
C117 C115 1.356 . S
H118 C112 0.930 . S
H119 C116 0.930 . S
C120 C122 1.348 . S
C120 C123 1.356 . S
C120 O150 1.325 . S
N121 C124 1.314 . S
N121 C125 1.279 . S
C122 C120 1.348 . S
C122 C124 1.353 . S
C122 H164 0.929 . S
C123 C120 1.356 . S
C123 C125 1.358 . S
C123 H165 0.930 . S
C124 N121 1.314 . S
C124 C122 1.353 . S
C124 H166 0.930 . S
C125 N121 1.279 . S
C125 C123 1.358 . S
C125 H167 0.930 . S
C126 C127 1.348 . S
C126 C128 1.356 . S
C126 O151 1.325 . S
C127 C126 1.348 . S
C127 C129 1.353 . S
C127 H168 0.929 . S
C128 C126 1.356 . S
C128 C130 1.358 . S
C128 H169 0.930 . S
C129 C127 1.353 . S
C129 N131 1.314 . S
C129 H170 0.930 . S
C130 C128 1.358 . S
C130 N131 1.279 . S
C130 H171 0.930 . S
N131 C129 1.314 . S
N131 C130 1.279 . S
C132 C134 1.353 1_545 S
C132 N135 1.314 . S
C132 H138 0.930 . S
C133 N135 1.279 . S
C133 C136 1.358 1_545 S
C133 H139 0.930 . S
C134 C132 1.353 1_565 S
C134 C137 1.348 . S
C134 H172 0.929 . S
N135 Li90 1.990 . S
N135 C132 1.314 . S
N135 C133 1.279 . S
C136 C133 1.358 1_565 S
C136 C137 1.356 . S
C136 H173 0.930 . S
C137 C134 1.348 . S
C137 C136 1.356 . S
H138 C132 0.930 . S
H139 C133 0.930 . S
C140 N141 1.314 . S
C140 C142 1.353 . S
C140 H146 0.930 . S
N141 Li91 1.990 . S
N141 C140 1.314 . S
N141 C144 1.279 . S
C142 C140 1.353 . S
C142 C145 1.348 . S
C142 H174 0.929 . S
C143 C144 1.358 . S
C143 C145 1.356 . S
C143 H175 0.930 . S
C144 N141 1.279 . S
C144 C143 1.358 . S
C144 H147 0.930 . S
C145 C142 1.348 . S
C145 C143 1.356 . S
H146 C140 0.930 . S
H147 C144 0.930 . S
O148 Li88 1.956 . S
O148 Li89 1.970 . S
O148 Li90 1.961 . S
O148 C92 1.325 . S
O149 Li88 1.970 . S
O149 Li89 1.956 . S
O149 Li91 1.961 . S
O149 C98 1.325 . S
O150 Li88 1.961 . S
O150 Li90 1.956 . S
O150 Li91 1.970 . S
O150 C120 1.325 . S
O151 Li89 1.961 . S
O151 Li90 1.970 . S
O151 Li91 1.956 . S
O151 C126 1.325 . S
H152 C94 0.929 . S
H153 C95 0.930 . S
H154 C96 0.930 . S
H155 C97 0.930 . S
H156 C99 0.930 . S
H157 C101 0.929 . S
H158 C102 0.930 . S
H159 C103 0.930 . S
H160 C106 0.930 . S
H161 C109 0.929 . S
H162 C114 0.929 . S
H163 C115 0.930 . S
H164 C122 0.929 . S
H165 C123 0.930 . S
H166 C124 0.930 . S
H167 C125 0.930 . S
H168 C127 0.929 . S
H169 C128 0.930 . S
H170 C129 0.930 . S
H171 C130 0.930 . S
H172 C134 0.929 . S
H173 C136 0.930 . S
H174 C142 0.929 . S
H175 C143 0.930 . S
Li176 N193 1.990 . S
Li176 O236 1.956 . S
Li176 O237 1.970 . S
Li176 O238 1.961 . S
Li177 N201 1.990 . S
Li177 O236 1.970 . S
Li177 O237 1.956 . S
Li177 O239 1.961 . S
Li178 N223 1.990 . S
Li178 O236 1.961 . S
Li178 O238 1.956 . S
Li178 O239 1.970 . S
Li179 N229 1.990 . S
Li179 O237 1.961 . S
Li179 O238 1.970 . S
Li179 O239 1.956 . S
C180 C182 1.348 . S
C180 C183 1.356 . S
C180 O236 1.325 . S
N181 C184 1.314 . S
N181 C185 1.279 . S
C182 C180 1.348 . S
C182 C184 1.353 . S
C182 H240 0.929 . S
C183 C180 1.356 . S
C183 C185 1.358 . S
C183 H241 0.930 . S
C184 N181 1.314 . S
C184 C182 1.353 . S
C184 H242 0.930 . S
C185 N181 1.279 . S
C185 C183 1.358 . S
C185 H243 0.930 . S
C186 C189 1.348 . S
C186 C190 1.356 . S
C186 O237 1.325 . S
C187 N188 1.279 . S
C187 C190 1.358 . S
C187 H244 0.930 . S
N188 C187 1.279 . S
N188 C191 1.314 . S
C189 C186 1.348 . S
C189 C191 1.353 . S
C189 H245 0.929 . S
C190 C186 1.356 . S
C190 C187 1.358 . S
C190 H246 0.930 . S
C191 N188 1.314 . S
C191 C189 1.353 . S
C191 H247 0.930 . S
C192 N193 1.314 . S
C192 C197 1.353 . S
C192 H198 0.930 . S
N193 Li176 1.990 . S
N193 C192 1.314 . S
N193 C195 1.279 . S
C194 C195 1.358 . S
C194 C196 1.356 . S
C194 H248 0.930 . S
C195 N193 1.279 . S
C195 C194 1.358 . S
C195 H199 0.930 . S
C196 C194 1.356 . S
C196 C197 1.348 . S
C197 C192 1.353 . S
C197 C196 1.348 . S
C197 H249 0.929 . S
H198 C192 0.930 . S
H199 C195 0.930 . S
C200 N201 1.314 . S
C200 C202 1.353 . S
C200 H206 0.930 . S
N201 Li177 1.990 . S
N201 C200 1.314 . S
N201 C204 1.279 . S
C202 C200 1.353 . S
C202 C205 1.348 . S
C202 H250 0.929 . S
C203 C204 1.358 . S
C203 C205 1.356 . S
C203 H251 0.930 . S
C204 N201 1.279 . S
C204 C203 1.358 . S
C204 H207 0.930 . S
C205 C202 1.348 . S
C205 C203 1.356 . S
H206 C200 0.930 . S
H207 C204 0.930 . S
C208 C210 1.348 . S
C208 C211 1.356 . S
C208 O238 1.325 . S
N209 C212 1.314 . S
N209 C213 1.279 . S
C210 C208 1.348 . S
C210 C212 1.353 . S
C210 H252 0.929 . S
C211 C208 1.356 . S
C211 C213 1.358 . S
C211 H253 0.930 . S
C212 N209 1.314 . S
C212 C210 1.353 . S
C212 H254 0.930 . S
C213 N209 1.279 . S
C213 C211 1.358 . S
C213 H255 0.930 . S
C214 C215 1.348 . S
C214 C216 1.356 . S
C214 O239 1.325 . S
C215 C214 1.348 . S
C215 C217 1.353 . S
C215 H256 0.929 . S
C216 C214 1.356 . S
C216 C218 1.358 . S
C216 H257 0.930 . S
C217 C215 1.353 . S
C217 N219 1.314 . S
C217 H258 0.930 . S
C218 C216 1.358 . S
C218 N219 1.279 . S
C218 H259 0.930 . S
N219 C217 1.314 . S
N219 C218 1.279 . S
C220 C222 1.353 . S
C220 N223 1.314 . S
C220 H226 0.930 . S
C221 N223 1.279 . S
C221 C224 1.358 . S
C221 H227 0.930 . S
C222 C220 1.353 . S
C222 C225 1.348 . S
C222 H260 0.929 . S
N223 Li178 1.990 . S
N223 C220 1.314 . S
N223 C221 1.279 . S
C224 C221 1.358 . S
C224 C225 1.356 . S
C224 H261 0.930 . S
C225 C222 1.348 . S
C225 C224 1.356 . S
H226 C220 0.930 . S
H227 C221 0.930 . S
C228 N229 1.314 . S
C228 C230 1.353 . S
C228 H234 0.930 . S
N229 Li179 1.990 . S
N229 C228 1.314 . S
N229 C232 1.279 . S
C230 C228 1.353 . S
C230 C233 1.348 . S
C230 H262 0.929 . S
C231 C232 1.358 . S
C231 C233 1.356 . S
C231 H263 0.930 . S
C232 N229 1.279 . S
C232 C231 1.358 . S
C232 H235 0.930 . S
C233 C230 1.348 . S
C233 C231 1.356 . S
H234 C228 0.930 . S
H235 C232 0.930 . S
O236 Li176 1.956 . S
O236 Li177 1.970 . S
O236 Li178 1.961 . S
O236 C180 1.325 . S
O237 Li176 1.970 . S
O237 Li177 1.956 . S
O237 Li179 1.961 . S
O237 C186 1.325 . S
O238 Li176 1.961 . S
O238 Li178 1.956 . S
O238 Li179 1.970 . S
O238 C208 1.325 . S
O239 Li177 1.961 . S
O239 Li178 1.970 . S
O239 Li179 1.956 . S
O239 C214 1.325 . S
H240 C182 0.929 . S
H241 C183 0.930 . S
H242 C184 0.930 . S
H243 C185 0.930 . S
H244 C187 0.930 . S
H245 C189 0.929 . S
H246 C190 0.930 . S
H247 C191 0.930 . S
H248 C194 0.930 . S
H249 C197 0.929 . S
H250 C202 0.929 . S
H251 C203 0.930 . S
H252 C210 0.929 . S
H253 C211 0.930 . S
H254 C212 0.930 . S
H255 C213 0.930 . S
H256 C215 0.929 . S
H257 C216 0.930 . S
H258 C217 0.930 . S
H259 C218 0.930 . S
H260 C222 0.929 . S
H261 C224 0.930 . S
H262 C230 0.929 . S
H263 C231 0.930 . S
Li264 N281 1.990 . S
Li264 O324 1.956 . S
Li264 O325 1.970 . S
Li264 O326 1.961 . S
Li265 N289 1.990 . S
Li265 O324 1.970 . S
Li265 O325 1.956 . S
Li265 O327 1.961 . S
Li266 N311 1.990 . S
Li266 O324 1.961 . S
Li266 O326 1.956 . S
Li266 O327 1.970 . S
Li267 N317 1.990 . S
Li267 O325 1.961 . S
Li267 O326 1.970 . S
Li267 O327 1.956 . S
C268 C270 1.348 . S
C268 C271 1.356 . S
C268 O324 1.325 . S
N269 C272 1.314 . S
N269 C273 1.279 . S
C270 C268 1.348 . S
C270 C272 1.353 . S
C270 H328 0.929 . S
C271 C268 1.356 . S
C271 C273 1.358 . S
C271 H329 0.930 . S
C272 N269 1.314 . S
C272 C270 1.353 . S
C272 H330 0.930 . S
C273 N269 1.279 . S
C273 C271 1.358 . S
C273 H331 0.930 . S
C274 C277 1.348 . S
C274 C278 1.356 . S
C274 O325 1.325 . S
C275 N276 1.279 . S
C275 C278 1.358 . S
C275 H332 0.930 . S
N276 C275 1.279 . S
N276 C279 1.314 . S
C277 C274 1.348 . S
C277 C279 1.353 . S
C277 H333 0.929 . S
C278 C274 1.356 . S
C278 C275 1.358 . S
C278 H334 0.930 . S
C279 N276 1.314 . S
C279 C277 1.353 . S
C279 H335 0.930 . S
C280 N281 1.314 . S
C280 C285 1.353 1_655 S
C280 H286 0.930 . S
N281 Li264 1.990 . S
N281 C280 1.314 . S
N281 C283 1.279 . S
C282 C283 1.358 1_455 S
C282 C284 1.356 . S
C282 H336 0.930 . S
C283 N281 1.279 . S
C283 C282 1.358 1_655 S
C283 H287 0.930 . S
C284 C282 1.356 . S
C284 C285 1.348 . S
C285 C280 1.353 1_455 S
C285 C284 1.348 . S
C285 H337 0.929 . S
H286 C280 0.930 . S
H287 C283 0.930 . S
C288 N289 1.314 . S
C288 C290 1.353 . S
C288 H294 0.930 . S
N289 Li265 1.990 . S
N289 C288 1.314 . S
N289 C292 1.279 . S
C290 C288 1.353 . S
C290 C293 1.348 . S
C290 H338 0.929 . S
C291 C292 1.358 . S
C291 C293 1.356 . S
C291 H339 0.930 . S
C292 N289 1.279 . S
C292 C291 1.358 . S
C292 H295 0.930 . S
C293 C290 1.348 . S
C293 C291 1.356 . S
H294 C288 0.930 . S
H295 C292 0.930 . S
C296 C298 1.348 . S
C296 C299 1.356 . S
C296 O326 1.325 . S
N297 C300 1.314 . S
N297 C301 1.279 . S
C298 C296 1.348 . S
C298 C300 1.353 . S
C298 H340 0.929 . S
C299 C296 1.356 . S
C299 C301 1.358 . S
C299 H341 0.930 . S
C300 N297 1.314 . S
C300 C298 1.353 . S
C300 H342 0.930 . S
C301 N297 1.279 . S
C301 C299 1.358 . S
C301 H343 0.930 . S
C302 C303 1.348 . S
C302 C304 1.356 . S
C302 O327 1.325 . S
C303 C302 1.348 . S
C303 C305 1.353 . S
C303 H344 0.929 . S
C304 C302 1.356 . S
C304 C306 1.358 . S
C304 H345 0.930 . S
C305 C303 1.353 . S
C305 N307 1.314 . S
C305 H346 0.930 . S
C306 C304 1.358 . S
C306 N307 1.279 . S
C306 H347 0.930 . S
N307 C305 1.314 . S
N307 C306 1.279 . S
C308 C310 1.353 . S
C308 N311 1.314 . S
C308 H314 0.930 . S
C309 N311 1.279 . S
C309 C312 1.358 . S
C309 H315 0.930 . S
C310 C308 1.353 . S
C310 C313 1.348 . S
C310 H348 0.929 . S
N311 Li266 1.990 . S
N311 C308 1.314 . S
N311 C309 1.279 . S
C312 C309 1.358 . S
C312 C313 1.356 . S
C312 H349 0.930 . S
C313 C310 1.348 . S
C313 C312 1.356 . S
H314 C308 0.930 . S
H315 C309 0.930 . S
C316 N317 1.314 . S
C316 C318 1.353 . S
C316 H322 0.930 . S
N317 Li267 1.990 . S
N317 C316 1.314 . S
N317 C320 1.279 . S
C318 C316 1.353 . S
C318 C321 1.348 . S
C318 H350 0.929 . S
C319 C320 1.358 . S
C319 C321 1.356 . S
C319 H351 0.930 . S
C320 N317 1.279 . S
C320 C319 1.358 . S
C320 H323 0.930 . S
C321 C318 1.348 . S
C321 C319 1.356 . S
H322 C316 0.930 . S
H323 C320 0.930 . S
O324 Li264 1.956 . S
O324 Li265 1.970 . S
O324 Li266 1.961 . S
O324 C268 1.325 . S
O325 Li264 1.970 . S
O325 Li265 1.956 . S
O325 Li267 1.961 . S
O325 C274 1.325 . S
O326 Li264 1.961 . S
O326 Li266 1.956 . S
O326 Li267 1.970 . S
O326 C296 1.325 . S
O327 Li265 1.961 . S
O327 Li266 1.970 . S
O327 Li267 1.956 . S
O327 C302 1.325 . S
H328 C270 0.929 . S
H329 C271 0.930 . S
H330 C272 0.930 . S
H331 C273 0.930 . S
H332 C275 0.930 . S
H333 C277 0.929 . S
H334 C278 0.930 . S
H335 C279 0.930 . S
H336 C282 0.930 . S
H337 C285 0.929 . S
H338 C290 0.929 . S
H339 C291 0.930 . S
H340 C298 0.929 . S
H341 C299 0.930 . S
H342 C300 0.930 . S
H343 C301 0.930 . S
H344 C303 0.929 . S
H345 C304 0.930 . S
H346 C305 0.930 . S
H347 C306 0.930 . S
H348 C310 0.929 . S
H349 C312 0.930 . S
H350 C318 0.929 . S
H351 C319 0.930 . S
Li352 N369 1.990 . S
Li352 O412 1.956 . S
Li352 O413 1.970 . S
Li352 O414 1.961 . S
Li353 N377 1.990 . S
Li353 O412 1.970 . S
Li353 O413 1.956 . S
Li353 O415 1.961 . S
Li354 N399 1.990 . S
Li354 O412 1.961 . S
Li354 O414 1.956 . S
Li354 O415 1.970 . S
Li355 N405 1.990 . S
Li355 O413 1.961 . S
Li355 O414 1.970 . S
Li355 O415 1.956 . S
C356 C358 1.348 . S
C356 C359 1.356 . S
C356 O412 1.325 . S
N357 C360 1.314 . S
N357 C361 1.279 . S
C358 C356 1.348 . S
C358 C360 1.353 . S
C358 H416 0.929 . S
C359 C356 1.356 . S
C359 C361 1.358 . S
C359 H417 0.930 . S
C360 N357 1.314 . S
C360 C358 1.353 . S
C360 H418 0.930 . S
C361 N357 1.279 . S
C361 C359 1.358 . S
C361 H419 0.930 . S
C362 C365 1.348 . S
C362 C366 1.356 . S
C362 O413 1.325 . S
C363 N364 1.279 . S
C363 C366 1.358 . S
C363 H420 0.930 . S
N364 C363 1.279 . S
N364 C367 1.314 . S
C365 C362 1.348 . S
C365 C367 1.353 . S
C365 H421 0.929 . S
C366 C362 1.356 . S
C366 C363 1.358 . S
C366 H422 0.930 . S
C367 N364 1.314 . S
C367 C365 1.353 . S
C367 H423 0.930 . S
C368 N369 1.314 . S
C368 C373 1.353 . S
C368 H374 0.930 . S
N369 Li352 1.990 . S
N369 C368 1.314 . S
N369 C371 1.279 . S
C370 C371 1.358 . S
C370 C372 1.356 . S
C370 H424 0.930 . S
C371 N369 1.279 . S
C371 C370 1.358 . S
C371 H375 0.930 . S
C372 C370 1.356 . S
C372 C373 1.348 . S
C373 C368 1.353 . S
C373 C372 1.348 . S
C373 H425 0.929 . S
H374 C368 0.930 . S
H375 C371 0.930 . S
C376 N377 1.314 . S
C376 C378 1.353 1_565 S
C376 H382 0.930 . S
N377 Li353 1.990 . S
N377 C376 1.314 . S
N377 C380 1.279 . S
C378 C376 1.353 1_545 S
C378 C381 1.348 . S
C378 H426 0.929 . S
C379 C380 1.358 1_545 S
C379 C381 1.356 . S
C379 H427 0.930 . S
C380 N377 1.279 . S
C380 C379 1.358 1_565 S
C380 H383 0.930 . S
C381 C378 1.348 . S
C381 C379 1.356 . S
H382 C376 0.930 . S
H383 C380 0.930 . S
C384 C386 1.348 . S
C384 C387 1.356 . S
C384 O414 1.325 . S
N385 C388 1.314 . S
N385 C389 1.279 . S
C386 C384 1.348 . S
C386 C388 1.353 . S
C386 H428 0.929 . S
C387 C384 1.356 . S
C387 C389 1.358 . S
C387 H429 0.930 . S
C388 N385 1.314 . S
C388 C386 1.353 . S
C388 H430 0.930 . S
C389 N385 1.279 . S
C389 C387 1.358 . S
C389 H431 0.930 . S
C390 C391 1.348 . S
C390 C392 1.356 . S
C390 O415 1.325 . S
C391 C390 1.348 . S
C391 C393 1.353 . S
C391 H432 0.929 . S
C392 C390 1.356 . S
C392 C394 1.358 . S
C392 H433 0.930 . S
C393 C391 1.353 . S
C393 N395 1.314 . S
C393 H434 0.930 . S
C394 C392 1.358 . S
C394 N395 1.279 . S
C394 H435 0.930 . S
N395 C393 1.314 . S
N395 C394 1.279 . S
C396 C398 1.353 . S
C396 N399 1.314 . S
C396 H402 0.930 . S
C397 N399 1.279 . S
C397 C400 1.358 . S
C397 H403 0.930 . S
C398 C396 1.353 . S
C398 C401 1.348 . S
C398 H436 0.929 . S
N399 Li354 1.990 . S
N399 C396 1.314 . S
N399 C397 1.279 . S
C400 C397 1.358 . S
C400 C401 1.356 . S
C400 H437 0.930 . S
C401 C398 1.348 . S
C401 C400 1.356 . S
H402 C396 0.930 . S
H403 C397 0.930 . S
C404 N405 1.314 . S
C404 C406 1.353 . S
C404 H410 0.930 . S
N405 Li355 1.990 . S
N405 C404 1.314 . S
N405 C408 1.279 . S
C406 C404 1.353 . S
C406 C409 1.348 . S
C406 H438 0.929 . S
C407 C408 1.358 . S
C407 C409 1.356 . S
C407 H439 0.930 . S
C408 N405 1.279 . S
C408 C407 1.358 . S
C408 H411 0.930 . S
C409 C406 1.348 . S
C409 C407 1.356 . S
H410 C404 0.930 . S
H411 C408 0.930 . S
O412 Li352 1.956 . S
O412 Li353 1.970 . S
O412 Li354 1.961 . S
O412 C356 1.325 . S
O413 Li352 1.970 . S
O413 Li353 1.956 . S
O413 Li355 1.961 . S
O413 C362 1.325 . S
O414 Li352 1.961 . S
O414 Li354 1.956 . S
O414 Li355 1.970 . S
O414 C384 1.325 . S
O415 Li353 1.961 . S
O415 Li354 1.970 . S
O415 Li355 1.956 . S
O415 C390 1.325 . S
H416 C358 0.929 . S
H417 C359 0.930 . S
H418 C360 0.930 . S
H419 C361 0.930 . S
H420 C363 0.930 . S
H421 C365 0.929 . S
H422 C366 0.930 . S
H423 C367 0.930 . S
H424 C370 0.930 . S
H425 C373 0.929 . S
H426 C378 0.929 . S
H427 C379 0.930 . S
H428 C386 0.929 . S
H429 C387 0.930 . S
H430 C388 0.930 . S
H431 C389 0.930 . S
H432 C391 0.929 . S
H433 C392 0.930 . S
H434 C393 0.930 . S
H435 C394 0.930 . S
H436 C398 0.929 . S
H437 C400 0.930 . S
H438 C406 0.929 . S
H439 C407 0.930 . S
Li440 N457 1.990 . S
Li440 O500 1.956 . S
Li440 O501 1.970 . S
Li440 O502 1.961 . S
Li441 N465 1.990 . S
Li441 O500 1.970 . S
Li441 O501 1.956 . S
Li441 O503 1.961 . S
Li442 N487 1.990 . S
Li442 O500 1.961 . S
Li442 O502 1.956 . S
Li442 O503 1.970 . S
Li443 N493 1.990 . S
Li443 O501 1.961 . S
Li443 O502 1.970 . S
Li443 O503 1.956 . S
C444 C446 1.348 . S
C444 C447 1.356 . S
C444 O500 1.325 . S
N445 C448 1.314 . S
N445 C449 1.279 . S
C446 C444 1.348 . S
C446 C448 1.353 . S
C446 H504 0.929 . S
C447 C444 1.356 . S
C447 C449 1.358 . S
C447 H505 0.930 . S
C448 N445 1.314 . S
C448 C446 1.353 . S
C448 H506 0.930 . S
C449 N445 1.279 . S
C449 C447 1.358 . S
C449 H507 0.931 . S
C450 C453 1.348 . S
C450 C454 1.356 . S
C450 O501 1.325 . S
C451 N452 1.279 . S
C451 C454 1.358 . S
C451 H508 0.930 . S
N452 C451 1.279 . S
N452 C455 1.314 . S
C453 C450 1.348 . S
C453 C455 1.353 . S
C453 H509 0.929 . S
C454 C450 1.356 . S
C454 C451 1.358 . S
C454 H510 0.930 . S
C455 N452 1.314 . S
C455 C453 1.353 . S
C455 H511 0.930 . S
C456 N457 1.314 . S
C456 C461 1.353 . S
C456 H462 0.930 . S
N457 Li440 1.990 . S
N457 C456 1.314 . S
N457 C459 1.279 . S
C458 C459 1.358 . S
C458 C460 1.356 . S
C458 H512 0.930 . S
C459 N457 1.279 . S
C459 C458 1.358 . S
C459 H463 0.930 . S
C460 C458 1.356 . S
C460 C461 1.348 . S
C461 C456 1.353 . S
C461 C460 1.348 . S
C461 H513 0.929 . S
H462 C456 0.930 . S
H463 C459 0.930 . S
C464 N465 1.314 . S
C464 C466 1.353 . S
C464 H470 0.930 . S
N465 Li441 1.990 . S
N465 C464 1.314 . S
N465 C468 1.279 . S
C466 C464 1.353 . S
C466 C469 1.348 . S
C466 H514 0.929 . S
C467 C468 1.358 . S
C467 C469 1.356 . S
C467 H515 0.930 . S
C468 N465 1.279 . S
C468 C467 1.358 . S
C468 H471 0.930 . S
C469 C466 1.348 . S
C469 C467 1.356 . S
H470 C464 0.930 . S
H471 C468 0.930 . S
C472 C474 1.348 . S
C472 C475 1.356 . S
C472 O502 1.325 . S
N473 C476 1.314 . S
N473 C477 1.279 . S
C474 C472 1.348 . S
C474 C476 1.353 . S
C474 H516 0.929 . S
C475 C472 1.356 . S
C475 C477 1.358 . S
C475 H517 0.930 . S
C476 N473 1.314 . S
C476 C474 1.353 . S
C476 H518 0.930 . S
C477 N473 1.279 . S
C477 C475 1.358 . S
C477 H519 0.930 . S
C478 C479 1.348 . S
C478 C480 1.356 . S
C478 O503 1.325 . S
C479 C478 1.348 . S
C479 C481 1.353 . S
C479 H520 0.929 . S
C480 C478 1.356 . S
C480 C482 1.358 . S
C480 H521 0.930 . S
C481 C479 1.353 . S
C481 N483 1.314 . S
C481 H522 0.930 . S
C482 C480 1.358 . S
C482 N483 1.279 . S
C482 H523 0.930 . S
N483 C481 1.314 . S
N483 C482 1.279 . S
C484 C486 1.353 1_556 S
C484 N487 1.314 . S
C484 H490 0.930 . S
C485 N487 1.279 . S
C485 C488 1.358 . S
C485 H491 0.930 . S
C486 C484 1.353 1_554 S
C486 C489 1.348 . S
C486 H524 0.929 . S
N487 Li442 1.990 . S
N487 C484 1.314 . S
N487 C485 1.279 . S
C488 C485 1.358 . S
C488 C489 1.356 1_556 S
C488 H525 0.930 . S
C489 C486 1.348 . S
C489 C488 1.356 1_554 S
H490 C484 0.930 . S
H491 C485 0.930 . S
C492 N493 1.314 . S
C492 C494 1.353 . S
C492 H498 0.930 . S
N493 Li443 1.990 . S
N493 C492 1.314 . S
N493 C496 1.279 . S
C494 C492 1.353 . S
C494 C497 1.348 . S
C494 H526 0.929 . S
C495 C496 1.358 . S
C495 C497 1.356 . S
C495 H527 0.930 . S
C496 N493 1.279 . S
C496 C495 1.358 . S
C496 H499 0.930 . S
C497 C494 1.348 . S
C497 C495 1.356 . S
H498 C492 0.930 . S
H499 C496 0.930 . S
O500 Li440 1.956 . S
O500 Li441 1.970 . S
O500 Li442 1.961 . S
O500 C444 1.325 . S
O501 Li440 1.970 . S
O501 Li441 1.956 . S
O501 Li443 1.961 . S
O501 C450 1.325 . S
O502 Li440 1.961 . S
O502 Li442 1.956 . S
O502 Li443 1.970 . S
O502 C472 1.325 . S
O503 Li441 1.961 . S
O503 Li442 1.970 . S
O503 Li443 1.956 . S
O503 C478 1.325 . S
H504 C446 0.929 . S
H505 C447 0.930 . S
H506 C448 0.930 . S
H507 C449 0.931 . S
H508 C451 0.930 . S
H509 C453 0.929 . S
H510 C454 0.930 . S
H511 C455 0.930 . S
H512 C458 0.930 . S
H513 C461 0.929 . S
H514 C466 0.929 . S
H515 C467 0.930 . S
H516 C474 0.929 . S
H517 C475 0.930 . S
H518 C476 0.930 . S
H519 C477 0.930 . S
H520 C479 0.929 . S
H521 C480 0.930 . S
H522 C481 0.930 . S
H523 C482 0.930 . S
H524 C486 0.929 . S
H525 C488 0.930 . S
H526 C494 0.929 . S
H527 C495 0.930 . S
Li528 N545 1.990 . S
Li528 O588 1.956 . S
Li528 O589 1.970 . S
Li528 O590 1.961 . S
Li529 N553 1.990 . S
Li529 O588 1.970 . S
Li529 O589 1.956 . S
Li529 O591 1.961 . S
Li530 N575 1.990 . S
Li530 O588 1.961 . S
Li530 O590 1.956 . S
Li530 O591 1.970 . S
Li531 N581 1.990 . S
Li531 O589 1.961 . S
Li531 O590 1.970 . S
Li531 O591 1.956 . S
C532 C534 1.348 . S
C532 C535 1.356 . S
C532 O588 1.325 . S
N533 C536 1.314 . S
N533 C537 1.279 . S
C534 C532 1.348 . S
C534 C536 1.353 . S
C534 H592 0.929 . S
C535 C532 1.356 . S
C535 C537 1.358 . S
C535 H593 0.930 . S
C536 N533 1.314 . S
C536 C534 1.353 . S
C536 H594 0.930 . S
C537 N533 1.279 . S
C537 C535 1.358 . S
C537 H595 0.930 . S
C538 C541 1.348 . S
C538 C542 1.356 . S
C538 O589 1.325 . S
C539 N540 1.279 . S
C539 C542 1.358 . S
C539 H596 0.930 . S
N540 C539 1.279 . S
N540 C543 1.314 . S
C541 C538 1.348 . S
C541 C543 1.353 . S
C541 H597 0.929 . S
C542 C538 1.356 . S
C542 C539 1.358 . S
C542 H598 0.930 . S
C543 N540 1.314 . S
C543 C541 1.353 . S
C543 H599 0.930 . S
C544 N545 1.314 . S
C544 C549 1.353 1_565 S
C544 H550 0.930 . S
N545 Li528 1.990 . S
N545 C544 1.314 . S
N545 C547 1.279 . S
C546 C547 1.358 1_545 S
C546 C548 1.356 . S
C546 H600 0.930 . S
C547 N545 1.279 . S
C547 C546 1.358 1_565 S
C547 H551 0.930 . S
C548 C546 1.356 . S
C548 C549 1.348 . S
C549 C544 1.353 1_545 S
C549 C548 1.348 . S
C549 H601 0.929 . S
H550 C544 0.930 . S
H551 C547 0.930 . S
C552 N553 1.314 . S
C552 C554 1.353 . S
C552 H558 0.930 . S
N553 Li529 1.990 . S
N553 C552 1.314 . S
N553 C556 1.279 . S
C554 C552 1.353 . S
C554 C557 1.348 . S
C554 H602 0.929 . S
C555 C556 1.358 . S
C555 C557 1.356 . S
C555 H603 0.930 . S
C556 N553 1.279 . S
C556 C555 1.358 . S
C556 H559 0.930 . S
C557 C554 1.348 . S
C557 C555 1.356 . S
H558 C552 0.930 . S
H559 C556 0.930 . S
C560 C562 1.348 . S
C560 C563 1.356 . S
C560 O590 1.325 . S
N561 C564 1.314 . S
N561 C565 1.279 . S
C562 C560 1.348 . S
C562 C564 1.353 . S
C562 H604 0.929 . S
C563 C560 1.356 . S
C563 C565 1.358 . S
C563 H605 0.930 . S
C564 N561 1.314 . S
C564 C562 1.353 . S
C564 H606 0.930 . S
C565 N561 1.279 . S
C565 C563 1.358 . S
C565 H607 0.930 . S
C566 C567 1.348 . S
C566 C568 1.356 . S
C566 O591 1.325 . S
C567 C566 1.348 . S
C567 C569 1.353 . S
C567 H608 0.929 . S
C568 C566 1.356 . S
C568 C570 1.358 . S
C568 H609 0.930 . S
C569 C567 1.353 . S
C569 N571 1.314 . S
C569 H610 0.930 . S
C570 C568 1.358 . S
C570 N571 1.279 . S
C570 H611 0.930 . S
N571 C569 1.314 . S
N571 C570 1.279 . S
C572 C574 1.353 . S
C572 N575 1.314 . S
C572 H578 0.930 . S
C573 N575 1.279 . S
C573 C576 1.358 . S
C573 H579 0.930 . S
C574 C572 1.353 . S
C574 C577 1.348 . S
C574 H612 0.929 . S
N575 Li530 1.990 . S
N575 C572 1.314 . S
N575 C573 1.279 . S
C576 C573 1.358 . S
C576 C577 1.356 . S
C576 H613 0.930 . S
C577 C574 1.348 . S
C577 C576 1.356 . S
H578 C572 0.930 . S
H579 C573 0.930 . S
C580 N581 1.314 . S
C580 C582 1.353 . S
C580 H586 0.930 . S
N581 Li531 1.990 . S
N581 C580 1.314 . S
N581 C584 1.279 . S
C582 C580 1.353 . S
C582 C585 1.348 . S
C582 H614 0.929 . S
C583 C584 1.358 . S
C583 C585 1.356 . S
C583 H615 0.930 . S
C584 N581 1.279 . S
C584 C583 1.358 . S
C584 H587 0.930 . S
C585 C582 1.348 . S
C585 C583 1.356 . S
H586 C580 0.930 . S
H587 C584 0.930 . S
O588 Li528 1.956 . S
O588 Li529 1.970 . S
O588 Li530 1.961 . S
O588 C532 1.325 . S
O589 Li528 1.970 . S
O589 Li529 1.956 . S
O589 Li531 1.961 . S
O589 C538 1.325 . S
O590 Li528 1.961 . S
O590 Li530 1.956 . S
O590 Li531 1.970 . S
O590 C560 1.325 . S
O591 Li529 1.961 . S
O591 Li530 1.970 . S
O591 Li531 1.956 . S
O591 C566 1.325 . S
H592 C534 0.929 . S
H593 C535 0.930 . S
H594 C536 0.930 . S
H595 C537 0.930 . S
H596 C539 0.930 . S
H597 C541 0.929 . S
H598 C542 0.930 . S
H599 C543 0.930 . S
H600 C546 0.930 . S
H601 C549 0.929 . S
H602 C554 0.929 . S
H603 C555 0.930 . S
H604 C562 0.929 . S
H605 C563 0.930 . S
H606 C564 0.930 . S
H607 C565 0.930 . S
H608 C567 0.929 . S
H609 C568 0.930 . S
H610 C569 0.930 . S
H611 C570 0.930 . S
H612 C574 0.929 . S
H613 C576 0.930 . S
H614 C582 0.929 . S
H615 C583 0.930 . S
Li616 N633 1.990 . S
Li616 O676 1.956 . S
Li616 O677 1.970 . S
Li616 O678 1.961 . S
Li617 N641 1.990 . S
Li617 O676 1.970 . S
Li617 O677 1.956 . S
Li617 O679 1.961 . S
Li618 N663 1.990 . S
Li618 O676 1.961 . S
Li618 O678 1.956 . S
Li618 O679 1.970 . S
Li619 N669 1.990 . S
Li619 O677 1.961 . S
Li619 O678 1.970 . S
Li619 O679 1.956 . S
C620 C622 1.348 . S
C620 C623 1.356 . S
C620 O676 1.325 . S
N621 C624 1.314 . S
N621 C625 1.279 . S
C622 C620 1.348 . S
C622 C624 1.353 . S
C622 H680 0.929 . S
C623 C620 1.356 . S
C623 C625 1.358 . S
C623 H681 0.930 . S
C624 N621 1.314 . S
C624 C622 1.353 . S
C624 H682 0.930 . S
C625 N621 1.279 . S
C625 C623 1.358 . S
C625 H683 0.930 . S
C626 C629 1.348 . S
C626 C630 1.356 . S
C626 O677 1.325 . S
C627 N628 1.279 . S
C627 C630 1.358 . S
C627 H684 0.930 . S
N628 C627 1.279 . S
N628 C631 1.314 . S
C629 C626 1.348 . S
C629 C631 1.353 . S
C629 H685 0.929 . S
C630 C626 1.356 . S
C630 C627 1.358 . S
C630 H686 0.930 . S
C631 N628 1.314 . S
C631 C629 1.353 . S
C631 H687 0.930 . S
C632 N633 1.314 . S
C632 C637 1.353 . S
C632 H638 0.930 . S
N633 Li616 1.990 . S
N633 C632 1.314 . S
N633 C635 1.279 . S
C634 C635 1.358 . S
C634 C636 1.356 . S
C634 H688 0.930 . S
C635 N633 1.279 . S
C635 C634 1.358 . S
C635 H639 0.930 . S
C636 C634 1.356 . S
C636 C637 1.348 . S
C637 C632 1.353 . S
C637 C636 1.348 . S
C637 H689 0.929 . S
H638 C632 0.930 . S
H639 C635 0.930 . S
C640 N641 1.314 . S
C640 C642 1.353 . S
C640 H646 0.930 . S
N641 Li617 1.990 . S
N641 C640 1.314 . S
N641 C644 1.279 . S
C642 C640 1.353 . S
C642 C645 1.348 . S
C642 H690 0.929 . S
C643 C644 1.358 . S
C643 C645 1.356 . S
C643 H691 0.930 . S
C644 N641 1.279 . S
C644 C643 1.358 . S
C644 H647 0.930 . S
C645 C642 1.348 . S
C645 C643 1.356 . S
H646 C640 0.930 . S
H647 C644 0.930 . S
C648 C650 1.348 . S
C648 C651 1.356 . S
C648 O678 1.325 . S
N649 C652 1.314 . S
N649 C653 1.279 . S
C650 C648 1.348 . S
C650 C652 1.353 . S
C650 H692 0.929 . S
C651 C648 1.356 . S
C651 C653 1.358 . S
C651 H693 0.930 . S
C652 N649 1.314 . S
C652 C650 1.353 . S
C652 H694 0.930 . S
C653 N649 1.279 . S
C653 C651 1.358 . S
C653 H695 0.930 . S
C654 C655 1.348 . S
C654 C656 1.356 . S
C654 O679 1.325 . S
C655 C654 1.348 . S
C655 C657 1.353 . S
C655 H696 0.929 . S
C656 C654 1.356 . S
C656 C658 1.358 . S
C656 H697 0.930 . S
C657 C655 1.353 . S
C657 N659 1.314 . S
C657 H698 0.930 . S
C658 C656 1.358 . S
C658 N659 1.279 . S
C658 H699 0.930 . S
N659 C657 1.314 . S
N659 C658 1.279 . S
C660 C662 1.353 . S
C660 N663 1.314 . S
C660 H666 0.930 . S
C661 N663 1.279 . S
C661 C664 1.358 . S
C661 H667 0.930 . S
C662 C660 1.353 . S
C662 C665 1.348 . S
C662 H700 0.929 . S
N663 Li618 1.990 . S
N663 C660 1.314 . S
N663 C661 1.279 . S
C664 C661 1.358 . S
C664 C665 1.356 . S
C664 H701 0.930 . S
C665 C662 1.348 . S
C665 C664 1.356 . S
H666 C660 0.930 . S
H667 C661 0.930 . S
C668 N669 1.314 . S
C668 C670 1.353 . S
C668 H674 0.930 . S
N669 Li619 1.990 . S
N669 C668 1.314 . S
N669 C672 1.279 . S
C670 C668 1.353 . S
C670 C673 1.348 . S
C670 H702 0.929 . S
C671 C672 1.358 . S
C671 C673 1.356 . S
C671 H703 0.930 . S
C672 N669 1.279 . S
C672 C671 1.358 . S
C672 H675 0.930 . S
C673 C670 1.348 . S
C673 C671 1.356 . S
H674 C668 0.930 . S
H675 C672 0.930 . S
O676 Li616 1.956 . S
O676 Li617 1.970 . S
O676 Li618 1.961 . S
O676 C620 1.325 . S
O677 Li616 1.970 . S
O677 Li617 1.956 . S
O677 Li619 1.961 . S
O677 C626 1.325 . S
O678 Li616 1.961 . S
O678 Li618 1.956 . S
O678 Li619 1.970 . S
O678 C648 1.325 . S
O679 Li617 1.961 . S
O679 Li618 1.970 . S
O679 Li619 1.956 . S
O679 C654 1.325 . S
H680 C622 0.929 . S
H681 C623 0.930 . S
H682 C624 0.930 . S
H683 C625 0.930 . S
H684 C627 0.930 . S
H685 C629 0.929 . S
H686 C630 0.930 . S
H687 C631 0.930 . S
H688 C634 0.930 . S
H689 C637 0.929 . S
H690 C642 0.929 . S
H691 C643 0.930 . S
H692 C650 0.929 . S
H693 C651 0.930 . S
H694 C652 0.930 . S
H695 C653 0.930 . S
H696 C655 0.929 . S
H697 C656 0.930 . S
H698 C657 0.930 . S
H699 C658 0.930 . S
H700 C662 0.929 . S
H701 C664 0.930 . S
H702 C670 0.929 . S
H703 C671 0.930 . S
Li704 N721 1.990 . S
Li704 O764 1.956 . S
Li704 O765 1.970 . S
Li704 O766 1.961 . S
Li705 N729 1.990 . S
Li705 O764 1.970 . S
Li705 O765 1.956 . S
Li705 O767 1.961 . S
Li706 N751 1.990 . S
Li706 O764 1.961 . S
Li706 O766 1.956 . S
Li706 O767 1.970 . S
Li707 N757 1.990 . S
Li707 O765 1.961 . S
Li707 O766 1.970 . S
Li707 O767 1.956 . S
C708 C710 1.348 . S
C708 C711 1.356 . S
C708 O764 1.325 . S
N709 C712 1.314 . S
N709 C713 1.279 . S
C710 C708 1.348 . S
C710 C712 1.353 . S
C710 H768 0.929 . S
C711 C708 1.356 . S
C711 C713 1.358 . S
C711 H769 0.930 . S
C712 N709 1.314 . S
C712 C710 1.353 . S
C712 H770 0.930 . S
C713 N709 1.279 . S
C713 C711 1.358 . S
C713 H771 0.930 . S
C714 C717 1.348 . S
C714 C718 1.356 . S
C714 O765 1.325 . S
C715 N716 1.279 . S
C715 C718 1.358 . S
C715 H772 0.930 . S
N716 C715 1.279 . S
N716 C719 1.314 . S
C717 C714 1.348 . S
C717 C719 1.353 . S
C717 H773 0.929 . S
C718 C714 1.356 . S
C718 C715 1.358 . S
C718 H774 0.930 . S
C719 N716 1.314 . S
C719 C717 1.353 . S
C719 H775 0.930 . S
C720 N721 1.314 . S
C720 C725 1.353 1_554 S
C720 H726 0.930 . S
N721 Li704 1.990 . S
N721 C720 1.314 . S
N721 C723 1.279 . S
C722 C723 1.358 . S
C722 C724 1.356 1_554 S
C722 H776 0.930 . S
C723 N721 1.279 . S
C723 C722 1.358 . S
C723 H727 0.930 . S
C724 C722 1.356 1_556 S
C724 C725 1.348 . S
C725 C720 1.353 1_556 S
C725 C724 1.348 . S
C725 H777 0.929 . S
H726 C720 0.930 . S
H727 C723 0.930 . S
C728 N729 1.314 . S
C728 C730 1.353 . S
C728 H734 0.930 . S
N729 Li705 1.990 . S
N729 C728 1.314 . S
N729 C732 1.279 . S
C730 C728 1.353 . S
C730 C733 1.348 . S
C730 H778 0.929 . S
C731 C732 1.358 . S
C731 C733 1.356 . S
C731 H779 0.930 . S
C732 N729 1.279 . S
C732 C731 1.358 . S
C732 H735 0.930 . S
C733 C730 1.348 . S
C733 C731 1.356 . S
H734 C728 0.930 . S
H735 C732 0.930 . S
C736 C738 1.348 . S
C736 C739 1.356 . S
C736 O766 1.325 . S
N737 C740 1.314 . S
N737 C741 1.279 . S
C738 C736 1.348 . S
C738 C740 1.353 . S
C738 H780 0.929 . S
C739 C736 1.356 . S
C739 C741 1.358 . S
C739 H781 0.930 . S
C740 N737 1.314 . S
C740 C738 1.353 . S
C740 H782 0.930 . S
C741 N737 1.279 . S
C741 C739 1.358 . S
C741 H783 0.931 . S
C742 C743 1.348 . S
C742 C744 1.356 . S
C742 O767 1.325 . S
C743 C742 1.348 . S
C743 C745 1.353 . S
C743 H784 0.929 . S
C744 C742 1.356 . S
C744 C746 1.358 . S
C744 H785 0.930 . S
C745 C743 1.353 . S
C745 N747 1.314 . S
C745 H786 0.930 . S
C746 C744 1.358 . S
C746 N747 1.279 . S
C746 H787 0.930 . S
N747 C745 1.314 . S
N747 C746 1.279 . S
C748 C750 1.353 . S
C748 N751 1.314 . S
C748 H754 0.930 . S
C749 N751 1.279 . S
C749 C752 1.358 . S
C749 H755 0.930 . S
C750 C748 1.353 . S
C750 C753 1.348 . S
C750 H788 0.929 . S
N751 Li706 1.990 . S
N751 C748 1.314 . S
N751 C749 1.279 . S
C752 C749 1.358 . S
C752 C753 1.356 . S
C752 H789 0.930 . S
C753 C750 1.348 . S
C753 C752 1.356 . S
H754 C748 0.930 . S
H755 C749 0.930 . S
C756 N757 1.314 . S
C756 C758 1.353 1_455 S
C756 H762 0.930 . S
N757 Li707 1.990 . S
N757 C756 1.314 . S
N757 C760 1.279 . S
C758 C756 1.353 1_655 S
C758 C761 1.348 . S
C758 H790 0.929 . S
C759 C760 1.358 1_655 S
C759 C761 1.356 . S
C759 H791 0.930 . S
C760 N757 1.279 . S
C760 C759 1.358 1_455 S
C760 H763 0.930 . S
C761 C758 1.348 . S
C761 C759 1.356 . S
H762 C756 0.930 . S
H763 C760 0.930 . S
O764 Li704 1.956 . S
O764 Li705 1.970 . S
O764 Li706 1.961 . S
O764 C708 1.325 . S
O765 Li704 1.970 . S
O765 Li705 1.956 . S
O765 Li707 1.961 . S
O765 C714 1.325 . S
O766 Li704 1.961 . S
O766 Li706 1.956 . S
O766 Li707 1.970 . S
O766 C736 1.325 . S
O767 Li705 1.961 . S
O767 Li706 1.970 . S
O767 Li707 1.956 . S
O767 C742 1.325 . S
H768 C710 0.929 . S
H769 C711 0.930 . S
H770 C712 0.930 . S
H771 C713 0.930 . S
H772 C715 0.930 . S
H773 C717 0.929 . S
H774 C718 0.930 . S
H775 C719 0.930 . S
H776 C722 0.930 . S
H777 C725 0.929 . S
H778 C730 0.929 . S
H779 C731 0.930 . S
H780 C738 0.929 . S
H781 C739 0.930 . S
H782 C740 0.930 . S
H783 C741 0.931 . S
H784 C743 0.929 . S
H785 C744 0.930 . S
H786 C745 0.930 . S
H787 C746 0.930 . S
H788 C750 0.929 . S
H789 C752 0.930 . S
H790 C758 0.929 . S
H791 C759 0.930 . S
Li792 N809 1.990 . S
Li792 O852 1.956 . S
Li792 O853 1.970 . S
Li792 O854 1.961 . S
Li793 N817 1.990 . S
Li793 O852 1.970 . S
Li793 O853 1.956 . S
Li793 O855 1.961 . S
Li794 N839 1.990 . S
Li794 O852 1.961 . S
Li794 O854 1.956 . S
Li794 O855 1.970 . S
Li795 N845 1.990 . S
Li795 O853 1.961 . S
Li795 O854 1.970 . S
Li795 O855 1.956 . S
C796 C798 1.348 . S
C796 C799 1.356 . S
C796 O852 1.325 . S
N797 C800 1.314 . S
N797 C801 1.279 . S
C798 C796 1.348 . S
C798 C800 1.353 . S
C798 H856 0.929 . S
C799 C796 1.356 . S
C799 C801 1.358 . S
C799 H857 0.930 . S
C800 N797 1.314 . S
C800 C798 1.353 . S
C800 H858 0.930 . S
C801 N797 1.279 . S
C801 C799 1.358 . S
C801 H859 0.930 . S
C802 C805 1.348 . S
C802 C806 1.356 . S
C802 O853 1.325 . S
C803 N804 1.279 . S
C803 C806 1.358 . S
C803 H860 0.930 . S
N804 C803 1.279 . S
N804 C807 1.314 . S
C805 C802 1.348 . S
C805 C807 1.353 . S
C805 H861 0.929 . S
C806 C802 1.356 . S
C806 C803 1.358 . S
C806 H862 0.930 . S
C807 N804 1.314 . S
C807 C805 1.353 . S
C807 H863 0.930 . S
C808 N809 1.314 . S
C808 C813 1.353 1_545 S
C808 H814 0.930 . S
N809 Li792 1.990 . S
N809 C808 1.314 . S
N809 C811 1.279 . S
C810 C811 1.358 1_565 S
C810 C812 1.356 . S
C810 H864 0.930 . S
C811 N809 1.279 . S
C811 C810 1.358 1_545 S
C811 H815 0.930 . S
C812 C810 1.356 . S
C812 C813 1.348 . S
C813 C808 1.353 1_565 S
C813 C812 1.348 . S
C813 H865 0.929 . S
H814 C808 0.930 . S
H815 C811 0.930 . S
C816 N817 1.314 . S
C816 C818 1.353 . S
C816 H822 0.930 . S
N817 Li793 1.990 . S
N817 C816 1.314 . S
N817 C820 1.279 . S
C818 C816 1.353 . S
C818 C821 1.348 . S
C818 H866 0.929 . S
C819 C820 1.358 . S
C819 C821 1.356 . S
C819 H867 0.930 . S
C820 N817 1.279 . S
C820 C819 1.358 . S
C820 H823 0.930 . S
C821 C818 1.348 . S
C821 C819 1.356 . S
H822 C816 0.930 . S
H823 C820 0.930 . S
C824 C826 1.348 . S
C824 C827 1.356 . S
C824 O854 1.325 . S
N825 C828 1.314 . S
N825 C829 1.279 . S
C826 C824 1.348 . S
C826 C828 1.353 . S
C826 H868 0.929 . S
C827 C824 1.356 . S
C827 C829 1.358 . S
C827 H869 0.930 . S
C828 N825 1.314 . S
C828 C826 1.353 . S
C828 H870 0.930 . S
C829 N825 1.279 . S
C829 C827 1.358 . S
C829 H871 0.930 . S
C830 C831 1.348 . S
C830 C832 1.356 . S
C830 O855 1.325 . S
C831 C830 1.348 . S
C831 C833 1.353 . S
C831 H872 0.929 . S
C832 C830 1.356 . S
C832 C834 1.358 . S
C832 H873 0.930 . S
C833 C831 1.353 . S
C833 N835 1.314 . S
C833 H874 0.930 . S
C834 C832 1.358 . S
C834 N835 1.279 . S
C834 H875 0.930 . S
N835 C833 1.314 . S
N835 C834 1.279 . S
C836 C838 1.353 . S
C836 N839 1.314 . S
C836 H842 0.930 . S
C837 N839 1.279 . S
C837 C840 1.358 . S
C837 H843 0.930 . S
C838 C836 1.353 . S
C838 C841 1.348 . S
C838 H876 0.929 . S
N839 Li794 1.990 . S
N839 C836 1.314 . S
N839 C837 1.279 . S
C840 C837 1.358 . S
C840 C841 1.356 . S
C840 H877 0.930 . S
C841 C838 1.348 . S
C841 C840 1.356 . S
H842 C836 0.930 . S
H843 C837 0.930 . S
C844 N845 1.314 . S
C844 C846 1.353 . S
C844 H850 0.930 . S
N845 Li795 1.990 . S
N845 C844 1.314 . S
N845 C848 1.279 . S
C846 C844 1.353 . S
C846 C849 1.348 . S
C846 H878 0.929 . S
C847 C848 1.358 . S
C847 C849 1.356 . S
C847 H879 0.930 . S
C848 N845 1.279 . S
C848 C847 1.358 . S
C848 H851 0.930 . S
C849 C846 1.348 . S
C849 C847 1.356 . S
H850 C844 0.930 . S
H851 C848 0.930 . S
O852 Li792 1.956 . S
O852 Li793 1.970 . S
O852 Li794 1.961 . S
O852 C796 1.325 . S
O853 Li792 1.970 . S
O853 Li793 1.956 . S
O853 Li795 1.961 . S
O853 C802 1.325 . S
O854 Li792 1.961 . S
O854 Li794 1.956 . S
O854 Li795 1.970 . S
O854 C824 1.325 . S
O855 Li793 1.961 . S
O855 Li794 1.970 . S
O855 Li795 1.956 . S
O855 C830 1.325 . S
H856 C798 0.929 . S
H857 C799 0.930 . S
H858 C800 0.930 . S
H859 C801 0.930 . S
H860 C803 0.930 . S
H861 C805 0.929 . S
H862 C806 0.930 . S
H863 C807 0.930 . S
H864 C810 0.930 . S
H865 C813 0.929 . S
H866 C818 0.929 . S
H867 C819 0.930 . S
H868 C826 0.929 . S
H869 C827 0.930 . S
H870 C828 0.930 . S
H871 C829 0.930 . S
H872 C831 0.929 . S
H873 C832 0.930 . S
H874 C833 0.930 . S
H875 C834 0.930 . S
H876 C838 0.929 . S
H877 C840 0.930 . S
H878 C846 0.929 . S
H879 C847 0.930 . S
Li880 N897 1.990 . S
Li880 O940 1.956 . S
Li880 O941 1.970 . S
Li880 O942 1.961 . S
Li881 N905 1.990 . S
Li881 O940 1.970 . S
Li881 O941 1.956 . S
Li881 O943 1.961 . S
Li882 N927 1.990 . S
Li882 O940 1.961 . S
Li882 O942 1.956 . S
Li882 O943 1.970 . S
Li883 N933 1.990 . S
Li883 O941 1.961 . S
Li883 O942 1.970 . S
Li883 O943 1.956 . S
C884 C886 1.348 . S
C884 C887 1.356 . S
C884 O940 1.325 . S
N885 C888 1.314 . S
N885 C889 1.279 . S
C886 C884 1.348 . S
C886 C888 1.353 . S
C886 H944 0.929 . S
C887 C884 1.356 . S
C887 C889 1.358 . S
C887 H945 0.930 . S
C888 N885 1.314 . S
C888 C886 1.353 . S
C888 H946 0.930 . S
C889 N885 1.279 . S
C889 C887 1.358 . S
C889 H947 0.930 . S
C890 C893 1.348 . S
C890 C894 1.356 . S
C890 O941 1.325 . S
C891 N892 1.279 . S
C891 C894 1.358 . S
C891 H948 0.930 . S
N892 C891 1.279 . S
N892 C895 1.314 . S
C893 C890 1.348 . S
C893 C895 1.353 . S
C893 H949 0.929 . S
C894 C890 1.356 . S
C894 C891 1.358 . S
C894 H950 0.930 . S
C895 N892 1.314 . S
C895 C893 1.353 . S
C895 H951 0.930 . S
C896 N897 1.314 . S
C896 C901 1.353 . S
C896 H902 0.930 . S
N897 Li880 1.990 . S
N897 C896 1.314 . S
N897 C899 1.279 . S
C898 C899 1.358 . S
C898 C900 1.356 . S
C898 H952 0.930 . S
C899 N897 1.279 . S
C899 C898 1.358 . S
C899 H903 0.930 . S
C900 C898 1.356 . S
C900 C901 1.348 . S
C901 C896 1.353 . S
C901 C900 1.348 . S
C901 H953 0.929 . S
H902 C896 0.930 . S
H903 C899 0.930 . S
C904 N905 1.314 . S
C904 C906 1.353 . S
C904 H910 0.930 . S
N905 Li881 1.990 . S
N905 C904 1.314 . S
N905 C908 1.279 . S
C906 C904 1.353 . S
C906 C909 1.348 . S
C906 H954 0.929 . S
C907 C908 1.358 . S
C907 C909 1.356 . S
C907 H955 0.930 . S
C908 N905 1.279 . S
C908 C907 1.358 . S
C908 H911 0.930 . S
C909 C906 1.348 . S
C909 C907 1.356 . S
H910 C904 0.930 . S
H911 C908 0.930 . S
C912 C914 1.348 . S
C912 C915 1.356 . S
C912 O942 1.325 . S
N913 C916 1.314 . S
N913 C917 1.279 . S
C914 C912 1.348 . S
C914 C916 1.353 . S
C914 H956 0.929 . S
C915 C912 1.356 . S
C915 C917 1.358 . S
C915 H957 0.930 . S
C916 N913 1.314 . S
C916 C914 1.353 . S
C916 H958 0.930 . S
C917 N913 1.279 . S
C917 C915 1.358 . S
C917 H959 0.930 . S
C918 C919 1.348 . S
C918 C920 1.356 . S
C918 O943 1.325 . S
C919 C918 1.348 . S
C919 C921 1.353 . S
C919 H960 0.929 . S
C920 C918 1.356 . S
C920 C922 1.358 . S
C920 H961 0.930 . S
C921 C919 1.353 . S
C921 N923 1.314 . S
C921 H962 0.930 . S
C922 C920 1.358 . S
C922 N923 1.279 . S
C922 H963 0.930 . S
N923 C921 1.314 . S
N923 C922 1.279 . S
C924 C926 1.353 . S
C924 N927 1.314 . S
C924 H930 0.930 . S
C925 N927 1.279 . S
C925 C928 1.358 . S
C925 H931 0.930 . S
C926 C924 1.353 . S
C926 C929 1.348 . S
C926 H964 0.929 . S
N927 Li882 1.990 . S
N927 C924 1.314 . S
N927 C925 1.279 . S
C928 C925 1.358 . S
C928 C929 1.356 . S
C928 H965 0.930 . S
C929 C926 1.348 . S
C929 C928 1.356 . S
H930 C924 0.930 . S
H931 C925 0.930 . S
C932 N933 1.314 . S
C932 C934 1.353 . S
C932 H938 0.930 . S
N933 Li883 1.990 . S
N933 C932 1.314 . S
N933 C936 1.279 . S
C934 C932 1.353 . S
C934 C937 1.348 . S
C934 H966 0.929 . S
C935 C936 1.358 . S
C935 C937 1.356 . S
C935 H967 0.930 . S
C936 N933 1.279 . S
C936 C935 1.358 . S
C936 H939 0.930 . S
C937 C934 1.348 . S
C937 C935 1.356 . S
H938 C932 0.930 . S
H939 C936 0.930 . S
O940 Li880 1.956 . S
O940 Li881 1.970 . S
O940 Li882 1.961 . S
O940 C884 1.325 . S
O941 Li880 1.970 . S
O941 Li881 1.956 . S
O941 Li883 1.961 . S
O941 C890 1.325 . S
O942 Li880 1.961 . S
O942 Li882 1.956 . S
O942 Li883 1.970 . S
O942 C912 1.325 . S
O943 Li881 1.961 . S
O943 Li882 1.970 . S
O943 Li883 1.956 . S
O943 C918 1.325 . S
H944 C886 0.929 . S
H945 C887 0.930 . S
H946 C888 0.930 . S
H947 C889 0.930 . S
H948 C891 0.930 . S
H949 C893 0.929 . S
H950 C894 0.930 . S
H951 C895 0.930 . S
H952 C898 0.930 . S
H953 C901 0.929 . S
H954 C906 0.929 . S
H955 C907 0.930 . S
H956 C914 0.929 . S
H957 C915 0.930 . S
H958 C916 0.930 . S
H959 C917 0.930 . S
H960 C919 0.929 . S
H961 C920 0.930 . S
H962 C921 0.930 . S
H963 C922 0.930 . S
H964 C926 0.929 . S
H965 C928 0.930 . S
H966 C934 0.929 . S
H967 C935 0.930 . S
Li968 N985 1.990 . S
Li968 O1028 1.956 . S
Li968 O1029 1.970 . S
Li968 O1030 1.961 . S
Li969 N993 1.990 . S
Li969 O1028 1.970 . S
Li969 O1029 1.956 . S
Li969 O1031 1.961 . S
Li970 N1015 1.990 . S
Li970 O1028 1.961 . S
Li970 O1030 1.956 . S
Li970 O1031 1.970 . S
Li971 N1021 1.990 . S
Li971 O1029 1.961 . S
Li971 O1030 1.970 . S
Li971 O1031 1.956 . S
C972 C974 1.348 . S
C972 C975 1.356 . S
C972 O1028 1.325 . S
N973 C976 1.314 . S
N973 C977 1.279 . S
C974 C972 1.348 . S
C974 C976 1.353 . S
C974 H1032 0.929 . S
C975 C972 1.356 . S
C975 C977 1.358 . S
C975 H1033 0.930 . S
C976 N973 1.314 . S
C976 C974 1.353 . S
C976 H1034 0.930 . S
C977 N973 1.279 . S
C977 C975 1.358 . S
C977 H1035 0.930 . S
C978 C981 1.348 . S
C978 C982 1.356 . S
C978 O1029 1.325 . S
C979 N980 1.279 . S
C979 C982 1.358 . S
C979 H1036 0.930 . S
N980 C979 1.279 . S
N980 C983 1.314 . S
C981 C978 1.348 . S
C981 C983 1.353 . S
C981 H1037 0.929 . S
C982 C978 1.356 . S
C982 C979 1.358 . S
C982 H1038 0.930 . S
C983 N980 1.314 . S
C983 C981 1.353 . S
C983 H1039 0.930 . S
C984 N985 1.314 . S
C984 C989 1.353 1_655 S
C984 H990 0.930 . S
N985 Li968 1.990 . S
N985 C984 1.314 . S
N985 C987 1.279 . S
C986 C987 1.358 1_455 S
C986 C988 1.356 . S
C986 H1040 0.930 . S
C987 N985 1.279 . S
C987 C986 1.358 1_655 S
C987 H991 0.930 . S
C988 C986 1.356 . S
C988 C989 1.348 . S
C989 C984 1.353 1_455 S
C989 C988 1.348 . S
C989 H1041 0.929 . S
H990 C984 0.930 . S
H991 C987 0.930 . S
C992 N993 1.314 . S
C992 C994 1.353 . S
C992 H998 0.930 . S
N993 Li969 1.990 . S
N993 C992 1.314 . S
N993 C996 1.279 . S
C994 C992 1.353 . S
C994 C997 1.348 . S
C994 H1042 0.929 . S
C995 C996 1.358 . S
C995 C997 1.356 . S
C995 H1043 0.930 . S
C996 N993 1.279 . S
C996 C995 1.358 . S
C996 H999 0.930 . S
C997 C994 1.348 . S
C997 C995 1.356 . S
H998 C992 0.930 . S
H999 C996 0.930 . S
C1000 C1002 1.348 . S
C1000 C1003 1.356 . S
C1000 O1030 1.325 . S
N1001 C1004 1.314 . S
N1001 C1005 1.279 . S
C1002 C1000 1.348 . S
C1002 C1004 1.353 . S
C1002 H1044 0.929 . S
C1003 C1000 1.356 . S
C1003 C1005 1.358 . S
C1003 H1045 0.930 . S
C1004 N1001 1.314 . S
C1004 C1002 1.353 . S
C1004 H1046 0.930 . S
C1005 N1001 1.279 . S
C1005 C1003 1.358 . S
C1005 H1047 0.930 . S
C1006 C1007 1.348 . S
C1006 C1008 1.356 . S
C1006 O1031 1.325 . S
C1007 C1006 1.348 . S
C1007 C1009 1.353 . S
C1007 H1048 0.929 . S
C1008 C1006 1.356 . S
C1008 C1010 1.358 . S
C1008 H1049 0.930 . S
C1009 C1007 1.353 . S
C1009 N1011 1.314 . S
C1009 H1050 0.930 . S
C1010 C1008 1.358 . S
C1010 N1011 1.279 . S
C1010 H1051 0.930 . S
N1011 C1009 1.314 . S
N1011 C1010 1.279 . S
C1012 C1014 1.353 . S
C1012 N1015 1.314 . S
C1012 H1018 0.930 . S
C1013 N1015 1.279 . S
C1013 C1016 1.358 . S
C1013 H1019 0.930 . S
C1014 C1012 1.353 . S
C1014 C1017 1.348 . S
C1014 H1052 0.929 . S
N1015 Li970 1.990 . S
N1015 C1012 1.314 . S
N1015 C1013 1.279 . S
C1016 C1013 1.358 . S
C1016 C1017 1.356 . S
C1016 H1053 0.930 . S
C1017 C1014 1.348 . S
C1017 C1016 1.356 . S
H1018 C1012 0.930 . S
H1019 C1013 0.930 . S
C1020 N1021 1.314 . S
C1020 C1022 1.353 . S
C1020 H1026 0.930 . S
N1021 Li971 1.990 . S
N1021 C1020 1.314 . S
N1021 C1024 1.279 . S
C1022 C1020 1.353 . S
C1022 C1025 1.348 . S
C1022 H1054 0.929 . S
C1023 C1024 1.358 . S
C1023 C1025 1.356 . S
C1023 H1055 0.930 . S
C1024 N1021 1.279 . S
C1024 C1023 1.358 . S
C1024 H1027 0.930 . S
C1025 C1022 1.348 . S
C1025 C1023 1.356 . S
H1026 C1020 0.930 . S
H1027 C1024 0.930 . S
O1028 Li968 1.956 . S
O1028 Li969 1.970 . S
O1028 Li970 1.961 . S
O1028 C972 1.325 . S
O1029 Li968 1.970 . S
O1029 Li969 1.956 . S
O1029 Li971 1.961 . S
O1029 C978 1.325 . S
O1030 Li968 1.961 . S
O1030 Li970 1.956 . S
O1030 Li971 1.970 . S
O1030 C1000 1.325 . S
O1031 Li969 1.961 . S
O1031 Li970 1.970 . S
O1031 Li971 1.956 . S
O1031 C1006 1.325 . S
H1032 C974 0.929 . S
H1033 C975 0.930 . S
H1034 C976 0.930 . S
H1035 C977 0.930 . S
H1036 C979 0.930 . S
H1037 C981 0.929 . S
H1038 C982 0.930 . S
H1039 C983 0.930 . S
H1040 C986 0.930 . S
H1041 C989 0.929 . S
H1042 C994 0.929 . S
H1043 C995 0.930 . S
H1044 C1002 0.929 . S
H1045 C1003 0.930 . S
H1046 C1004 0.930 . S
H1047 C1005 0.930 . S
H1048 C1007 0.929 . S
H1049 C1008 0.930 . S
H1050 C1009 0.930 . S
H1051 C1010 0.930 . S
H1052 C1014 0.929 . S
H1053 C1016 0.930 . S
H1054 C1022 0.929 . S
H1055 C1023 0.930 . S
H1056 C1064 0.929 . S
H1057 C1066 0.930 . S
H1058 C1068 0.930 . S
H1059 C1071 0.929 . S
H1060 C1074 0.930 . S
H1061 C1076 0.960 . S
H1062 C1076 0.960 . S
H1063 C1076 0.960 . S
C1064 H1056 0.929 . S
C1064 C1065 1.377 . S
C1064 C1066 1.384 . S
C1065 C1064 1.377 . S
C1065 C1071 1.390 . S
C1066 H1057 0.930 . S
C1066 C1064 1.384 . S
C1066 C1067 1.372 . S
C1067 C1066 1.372 . S
C1067 C1068 1.400 . S
C1067 C1072 1.490 . S
C1068 H1058 0.930 . S
C1068 C1067 1.400 . S
C1068 C1071 1.386 . S
H1069 C1085 0.930 . S
H1070 C1086 0.931 . S
C1071 H1059 0.929 . S
C1071 C1065 1.390 . S
C1071 C1068 1.386 . S
C1072 C1067 1.490 . S
C1072 C1074 1.395 . S
C1072 C1075 1.403 . S
H1073 C1079 0.930 . S
C1074 H1060 0.930 . S
C1074 C1072 1.395 . S
C1074 C1077 1.403 . S
C1075 C1072 1.403 . S
C1075 C1076 1.524 . S
C1075 C1079 1.400 . S
C1076 H1061 0.960 . S
C1076 H1062 0.960 . S
C1076 H1063 0.960 . S
C1076 C1075 1.524 . S
C1077 C1074 1.403 . S
C1077 C1078 1.392 . S
C1077 C1081 1.495 . S
C1078 C1077 1.392 . S
C1078 C1079 1.385 . S
C1078 C1080 1.478 . S
C1079 H1073 0.930 . S
C1079 C1075 1.400 . S
C1079 C1078 1.385 . S
C1080 C1078 1.478 . S
C1080 C1082 1.381 . S
C1080 C1086 1.383 . S
C1081 C1077 1.495 . S
C1081 H1087 0.959 . S
C1081 H1088 0.961 . S
C1081 H1089 0.960 . S
C1082 C1080 1.381 . S
C1082 C1083 1.394 . S
C1082 H1090 0.930 . S
C1083 C1082 1.394 . S
C1083 C1084 1.383 . S
C1083 H1091 0.929 . S
C1084 C1083 1.383 . S
C1084 C1085 1.377 . S
C1085 H1069 0.930 . S
C1085 C1084 1.377 . S
C1085 C1086 1.379 . S
C1086 H1070 0.931 . S
C1086 C1080 1.383 . S
C1086 C1085 1.379 . S
H1087 C1081 0.959 . S
H1088 C1081 0.961 . S
H1089 C1081 0.960 . S
H1090 C1082 0.930 . S
H1091 C1083 0.929 . S
H1092 C1100 0.929 . S
H1093 C1102 0.930 . S
H1094 C1104 0.930 . S
H1095 C1107 0.929 . S
H1096 C1110 0.930 . S
H1097 C1112 0.960 . S
H1098 C1112 0.960 . S
H1099 C1112 0.960 . S
C1100 H1092 0.929 . S
C1100 C1101 1.377 . S
C1100 C1102 1.384 . S
C1101 C1100 1.377 . S
C1101 C1107 1.390 . S
C1102 H1093 0.930 . S
C1102 C1100 1.384 . S
C1102 C1103 1.372 . S
C1103 C1102 1.372 . S
C1103 C1104 1.400 . S
C1103 C1108 1.490 . S
C1104 H1094 0.930 . S
C1104 C1103 1.400 . S
C1104 C1107 1.386 . S
H1105 C1121 0.930 . S
H1106 C1122 0.931 . S
C1107 H1095 0.929 . S
C1107 C1101 1.390 . S
C1107 C1104 1.386 . S
C1108 C1103 1.490 . S
C1108 C1110 1.395 . S
C1108 C1111 1.403 . S
H1109 C1115 0.930 . S
C1110 H1096 0.930 . S
C1110 C1108 1.395 . S
C1110 C1113 1.403 . S
C1111 C1108 1.403 . S
C1111 C1112 1.524 . S
C1111 C1115 1.400 . S
C1112 H1097 0.960 . S
C1112 H1098 0.960 . S
C1112 H1099 0.960 . S
C1112 C1111 1.524 . S
C1113 C1110 1.403 . S
C1113 C1114 1.392 . S
C1113 C1117 1.495 . S
C1114 C1113 1.392 . S
C1114 C1115 1.385 . S
C1114 C1116 1.478 . S
C1115 H1109 0.930 . S
C1115 C1111 1.400 . S
C1115 C1114 1.385 . S
C1116 C1114 1.478 . S
C1116 C1118 1.381 . S
C1116 C1122 1.383 . S
C1117 C1113 1.495 . S
C1117 H1123 0.959 . S
C1117 H1124 0.961 . S
C1117 H1125 0.960 . S
C1118 C1116 1.381 . S
C1118 C1119 1.394 . S
C1118 H1126 0.930 . S
C1119 C1118 1.394 . S
C1119 C1120 1.383 . S
C1119 H1127 0.929 . S
C1120 C1119 1.383 . S
C1120 C1121 1.377 . S
C1121 H1105 0.930 . S
C1121 C1120 1.377 . S
C1121 C1122 1.379 . S
C1122 H1106 0.931 . S
C1122 C1116 1.383 . S
C1122 C1121 1.379 . S
H1123 C1117 0.959 . S
H1124 C1117 0.961 . S
H1125 C1117 0.960 . S
H1126 C1118 0.930 . S
H1127 C1119 0.929 . S
H1128 C1136 0.929 . S
H1129 C1138 0.930 . S
H1130 C1140 0.930 . S
H1131 C1143 0.929 . S
H1132 C1146 0.930 . S
H1133 C1148 0.960 . S
H1134 C1148 0.960 . S
H1135 C1148 0.960 . S
C1136 H1128 0.929 . S
C1136 C1137 1.377 . S
C1136 C1138 1.384 . S
C1137 C1136 1.377 . S
C1137 C1143 1.390 . S
C1138 H1129 0.930 . S
C1138 C1136 1.384 . S
C1138 C1139 1.372 . S
C1139 C1138 1.372 . S
C1139 C1140 1.400 . S
C1139 C1144 1.490 . S
C1140 H1130 0.930 . S
C1140 C1139 1.400 . S
C1140 C1143 1.386 . S
H1141 C1157 0.930 . S
H1142 C1158 0.931 . S
C1143 H1131 0.929 . S
C1143 C1137 1.390 . S
C1143 C1140 1.386 . S
C1144 C1139 1.490 . S
C1144 C1146 1.395 . S
C1144 C1147 1.403 . S
H1145 C1151 0.930 . S
C1146 H1132 0.930 . S
C1146 C1144 1.395 . S
C1146 C1149 1.403 . S
C1147 C1144 1.403 . S
C1147 C1148 1.524 . S
C1147 C1151 1.400 . S
C1148 H1133 0.960 . S
C1148 H1134 0.960 . S
C1148 H1135 0.960 . S
C1148 C1147 1.524 . S
C1149 C1146 1.403 . S
C1149 C1150 1.392 . S
C1149 C1153 1.495 . S
C1150 C1149 1.392 . S
C1150 C1151 1.385 . S
C1150 C1152 1.478 . S
C1151 H1145 0.930 . S
C1151 C1147 1.400 . S
C1151 C1150 1.385 . S
C1152 C1150 1.478 . S
C1152 C1154 1.381 . S
C1152 C1158 1.383 . S
C1153 C1149 1.495 . S
C1153 H1159 0.959 . S
C1153 H1160 0.961 . S
C1153 H1161 0.960 . S
C1154 C1152 1.381 . S
C1154 C1155 1.394 . S
C1154 H1162 0.930 . S
C1155 C1154 1.394 . S
C1155 C1156 1.383 . S
C1155 H1163 0.929 . S
C1156 C1155 1.383 . S
C1156 C1157 1.377 . S
C1157 H1141 0.930 . S
C1157 C1156 1.377 . S
C1157 C1158 1.379 . S
C1158 H1142 0.931 . S
C1158 C1152 1.383 . S
C1158 C1157 1.379 . S
H1159 C1153 0.959 . S
H1160 C1153 0.961 . S
H1161 C1153 0.960 . S
H1162 C1154 0.930 . S
H1163 C1155 0.929 . S
H1164 C1172 0.929 . S
H1165 C1174 0.930 . S
H1166 C1176 0.930 . S
H1167 C1179 0.929 . S
H1168 C1182 0.930 . S
H1169 C1184 0.960 . S
H1170 C1184 0.960 . S
H1171 C1184 0.960 . S
C1172 H1164 0.929 . S
C1172 C1173 1.377 . S
C1172 C1174 1.384 . S
C1173 C1172 1.377 . S
C1173 C1179 1.390 . S
C1174 H1165 0.930 . S
C1174 C1172 1.384 . S
C1174 C1175 1.372 . S
C1175 C1174 1.372 . S
C1175 C1176 1.400 . S
C1175 C1180 1.490 . S
C1176 H1166 0.930 . S
C1176 C1175 1.400 . S
C1176 C1179 1.386 . S
H1177 C1193 0.930 . S
H1178 C1194 0.931 . S
C1179 H1167 0.929 . S
C1179 C1173 1.390 . S
C1179 C1176 1.386 . S
C1180 C1175 1.490 . S
C1180 C1182 1.395 . S
C1180 C1183 1.403 . S
H1181 C1187 0.930 . S
C1182 H1168 0.930 . S
C1182 C1180 1.395 . S
C1182 C1185 1.403 . S
C1183 C1180 1.403 . S
C1183 C1184 1.524 . S
C1183 C1187 1.400 . S
C1184 H1169 0.960 . S
C1184 H1170 0.960 . S
C1184 H1171 0.960 . S
C1184 C1183 1.524 . S
C1185 C1182 1.403 . S
C1185 C1186 1.392 . S
C1185 C1189 1.495 . S
C1186 C1185 1.392 . S
C1186 C1187 1.385 . S
C1186 C1188 1.478 . S
C1187 H1181 0.930 . S
C1187 C1183 1.400 . S
C1187 C1186 1.385 . S
C1188 C1186 1.478 . S
C1188 C1190 1.381 . S
C1188 C1194 1.383 . S
C1189 C1185 1.495 . S
C1189 H1195 0.959 . S
C1189 H1196 0.961 . S
C1189 H1197 0.960 . S
C1190 C1188 1.381 . S
C1190 C1191 1.394 . S
C1190 H1198 0.930 . S
C1191 C1190 1.394 . S
C1191 C1192 1.383 . S
C1191 H1199 0.929 . S
C1192 C1191 1.383 . S
C1192 C1193 1.377 . S
C1193 H1177 0.930 . S
C1193 C1192 1.377 . S
C1193 C1194 1.379 . S
C1194 H1178 0.931 . S
C1194 C1188 1.383 . S
C1194 C1193 1.379 . S
H1195 C1189 0.959 . S
H1196 C1189 0.961 . S
H1197 C1189 0.960 . S
H1198 C1190 0.930 . S
H1199 C1191 0.929 . S
H1200 C1208 0.929 . S
H1201 C1210 0.930 . S
H1202 C1212 0.930 . S
H1203 C1215 0.929 . S
H1204 C1218 0.930 . S
H1205 C1220 0.960 . S
H1206 C1220 0.960 . S
H1207 C1220 0.960 . S
C1208 H1200 0.929 . S
C1208 C1209 1.377 . S
C1208 C1210 1.384 . S
C1209 C1208 1.377 . S
C1209 C1215 1.390 . S
C1210 H1201 0.930 . S
C1210 C1208 1.384 . S
C1210 C1211 1.372 . S
C1211 C1210 1.372 . S
C1211 C1212 1.400 . S
C1211 C1216 1.490 . S
C1212 H1202 0.930 . S
C1212 C1211 1.400 . S
C1212 C1215 1.386 . S
H1213 C1229 0.930 . S
H1214 C1230 0.931 . S
C1215 H1203 0.929 . S
C1215 C1209 1.390 . S
C1215 C1212 1.386 . S
C1216 C1211 1.490 . S
C1216 C1218 1.395 . S
C1216 C1219 1.403 . S
H1217 C1223 0.930 . S
C1218 H1204 0.930 . S
C1218 C1216 1.395 . S
C1218 C1221 1.403 . S
C1219 C1216 1.403 . S
C1219 C1220 1.524 . S
C1219 C1223 1.400 . S
C1220 H1205 0.960 . S
C1220 H1206 0.960 . S
C1220 H1207 0.960 . S
C1220 C1219 1.524 . S
C1221 C1218 1.403 . S
C1221 C1222 1.392 . S
C1221 C1225 1.495 . S
C1222 C1221 1.392 . S
C1222 C1223 1.385 . S
C1222 C1224 1.478 . S
C1223 H1217 0.930 . S
C1223 C1219 1.400 . S
C1223 C1222 1.385 . S
C1224 C1222 1.478 . S
C1224 C1226 1.381 . S
C1224 C1230 1.383 . S
C1225 C1221 1.495 . S
C1225 H1231 0.959 . S
C1225 H1232 0.961 . S
C1225 H1233 0.960 . S
C1226 C1224 1.381 . S
C1226 C1227 1.394 . S
C1226 H1234 0.930 . S
C1227 C1226 1.394 . S
C1227 C1228 1.383 . S
C1227 H1235 0.929 . S
C1228 C1227 1.383 . S
C1228 C1229 1.377 . S
C1229 H1213 0.930 . S
C1229 C1228 1.377 . S
C1229 C1230 1.379 . S
C1230 H1214 0.931 . S
C1230 C1224 1.383 . S
C1230 C1229 1.379 . S
H1231 C1225 0.959 . S
H1232 C1225 0.961 . S
H1233 C1225 0.960 . S
H1234 C1226 0.930 . S
H1235 C1227 0.929 . S
H1236 C1244 0.929 . S
H1237 C1246 0.930 . S
H1238 C1248 0.930 . S
H1239 C1251 0.929 . S
H1240 C1254 0.930 . S
H1241 C1256 0.960 . S
H1242 C1256 0.960 . S
H1243 C1256 0.960 . S
C1244 H1236 0.929 . S
C1244 C1245 1.377 . S
C1244 C1246 1.384 . S
C1245 C1244 1.377 . S
C1245 C1251 1.390 . S
C1246 H1237 0.930 . S
C1246 C1244 1.384 . S
C1246 C1247 1.372 . S
C1247 C1246 1.372 . S
C1247 C1248 1.400 . S
C1247 C1252 1.490 . S
C1248 H1238 0.930 . S
C1248 C1247 1.400 . S
C1248 C1251 1.386 . S
H1249 C1265 0.930 . S
H1250 C1266 0.931 . S
C1251 H1239 0.929 . S
C1251 C1245 1.390 . S
C1251 C1248 1.386 . S
C1252 C1247 1.490 . S
C1252 C1254 1.395 . S
C1252 C1255 1.403 . S
H1253 C1259 0.930 . S
C1254 H1240 0.930 . S
C1254 C1252 1.395 . S
C1254 C1257 1.403 . S
C1255 C1252 1.403 . S
C1255 C1256 1.524 . S
C1255 C1259 1.400 . S
C1256 H1241 0.960 . S
C1256 H1242 0.960 . S
C1256 H1243 0.960 . S
C1256 C1255 1.524 . S
C1257 C1254 1.403 . S
C1257 C1258 1.392 . S
C1257 C1261 1.495 . S
C1258 C1257 1.392 . S
C1258 C1259 1.385 . S
C1258 C1260 1.478 . S
C1259 H1253 0.930 . S
C1259 C1255 1.400 . S
C1259 C1258 1.385 . S
C1260 C1258 1.478 . S
C1260 C1262 1.381 . S
C1260 C1266 1.383 . S
C1261 C1257 1.495 . S
C1261 H1267 0.959 . S
C1261 H1268 0.961 . S
C1261 H1269 0.960 . S
C1262 C1260 1.381 . S
C1262 C1263 1.394 . S
C1262 H1270 0.930 . S
C1263 C1262 1.394 . S
C1263 C1264 1.383 . S
C1263 H1271 0.929 . S
C1264 C1263 1.383 . S
C1264 C1265 1.377 . S
C1265 H1249 0.930 . S
C1265 C1264 1.377 . S
C1265 C1266 1.379 . S
C1266 H1250 0.931 . S
C1266 C1260 1.383 . S
C1266 C1265 1.379 . S
H1267 C1261 0.959 . S
H1268 C1261 0.961 . S
H1269 C1261 0.960 . S
H1270 C1262 0.930 . S
H1271 C1263 0.929 . S
H1272 C1280 0.929 . S
H1273 C1282 0.930 . S
H1274 C1284 0.930 . S
H1275 C1287 0.929 . S
H1276 C1290 0.930 . S
H1277 C1292 0.960 . S
H1278 C1292 0.960 . S
H1279 C1292 0.960 . S
C1280 H1272 0.929 . S
C1280 C1281 1.377 . S
C1280 C1282 1.384 . S
C1281 C1280 1.377 . S
C1281 C1287 1.390 . S
C1282 H1273 0.930 . S
C1282 C1280 1.384 . S
C1282 C1283 1.372 . S
C1283 C1282 1.372 . S
C1283 C1284 1.400 . S
C1283 C1288 1.490 . S
C1284 H1274 0.930 . S
C1284 C1283 1.400 . S
C1284 C1287 1.386 . S
H1285 C1301 0.930 . S
H1286 C1302 0.931 . S
C1287 H1275 0.929 . S
C1287 C1281 1.390 . S
C1287 C1284 1.386 . S
C1288 C1283 1.490 . S
C1288 C1290 1.395 1_554 S
C1288 C1291 1.403 . S
H1289 C1295 0.930 . S
C1290 H1276 0.930 . S
C1290 C1288 1.395 1_556 S
C1290 C1293 1.403 . S
C1291 C1288 1.403 . S
C1291 C1292 1.524 . S
C1291 C1295 1.400 . S
C1292 H1277 0.960 . S
C1292 H1278 0.960 . S
C1292 H1279 0.960 . S
C1292 C1291 1.524 . S
C1293 C1290 1.403 . S
C1293 C1294 1.392 . S
C1293 C1297 1.495 . S
C1294 C1293 1.392 . S
C1294 C1295 1.385 1_556 S
C1294 C1296 1.478 . S
C1295 H1289 0.930 . S
C1295 C1291 1.400 . S
C1295 C1294 1.385 1_554 S
C1296 C1294 1.478 . S
C1296 C1298 1.381 . S
C1296 C1302 1.383 . S
C1297 C1293 1.495 . S
C1297 H1303 0.959 . S
C1297 H1304 0.961 . S
C1297 H1305 0.960 . S
C1298 C1296 1.381 . S
C1298 C1299 1.394 . S
C1298 H1306 0.930 . S
C1299 C1298 1.394 . S
C1299 C1300 1.383 . S
C1299 H1307 0.929 . S
C1300 C1299 1.383 . S
C1300 C1301 1.377 . S
C1301 H1285 0.930 . S
C1301 C1300 1.377 . S
C1301 C1302 1.379 . S
C1302 H1286 0.931 . S
C1302 C1296 1.383 . S
C1302 C1301 1.379 . S
H1303 C1297 0.959 . S
H1304 C1297 0.961 . S
H1305 C1297 0.960 . S
H1306 C1298 0.930 . S
H1307 C1299 0.929 . S
H1308 C1316 0.929 . S
H1309 C1318 0.930 . S
H1310 C1320 0.930 . S
H1311 C1323 0.929 . S
H1312 C1326 0.930 . S
H1313 C1328 0.960 . S
H1314 C1328 0.960 . S
H1315 C1328 0.960 . S
C1316 H1308 0.929 . S
C1316 C1317 1.377 . S
C1316 C1318 1.384 . S
C1317 C1316 1.377 . S
C1317 C1323 1.390 . S
C1318 H1309 0.930 . S
C1318 C1316 1.384 . S
C1318 C1319 1.372 . S
C1319 C1318 1.372 . S
C1319 C1320 1.400 . S
C1319 C1324 1.490 . S
C1320 H1310 0.930 . S
C1320 C1319 1.400 . S
C1320 C1323 1.386 . S
H1321 C1337 0.930 . S
H1322 C1338 0.931 . S
C1323 H1311 0.929 . S
C1323 C1317 1.390 . S
C1323 C1320 1.386 . S
C1324 C1319 1.490 . S
C1324 C1326 1.395 . S
C1324 C1327 1.403 . S
H1325 C1331 0.930 . S
C1326 H1312 0.930 . S
C1326 C1324 1.395 . S
C1326 C1329 1.403 . S
C1327 C1324 1.403 . S
C1327 C1328 1.524 . S
C1327 C1331 1.400 . S
C1328 H1313 0.960 . S
C1328 H1314 0.960 . S
C1328 H1315 0.960 . S
C1328 C1327 1.524 . S
C1329 C1326 1.403 . S
C1329 C1330 1.392 . S
C1329 C1333 1.495 . S
C1330 C1329 1.392 . S
C1330 C1331 1.385 . S
C1330 C1332 1.478 . S
C1331 H1325 0.930 . S
C1331 C1327 1.400 . S
C1331 C1330 1.385 . S
C1332 C1330 1.478 . S
C1332 C1334 1.381 . S
C1332 C1338 1.383 . S
C1333 C1329 1.495 . S
C1333 H1339 0.959 . S
C1333 H1340 0.961 . S
C1333 H1341 0.960 . S
C1334 C1332 1.381 . S
C1334 C1335 1.394 . S
C1334 H1342 0.930 . S
C1335 C1334 1.394 . S
C1335 C1336 1.383 . S
C1335 H1343 0.929 . S
C1336 C1335 1.383 . S
C1336 C1337 1.377 . S
C1337 H1321 0.930 . S
C1337 C1336 1.377 . S
C1337 C1338 1.379 . S
C1338 H1322 0.931 . S
C1338 C1332 1.383 . S
C1338 C1337 1.379 . S
H1339 C1333 0.959 . S
H1340 C1333 0.961 . S
H1341 C1333 0.960 . S
H1342 C1334 0.930 . S
H1343 C1335 0.929 . S
H1344 C1352 0.929 . S
H1345 C1354 0.930 . S
H1346 C1356 0.930 . S
H1347 C1359 0.929 . S
H1348 C1362 0.930 . S
H1349 C1364 0.960 . S
H1350 C1364 0.960 . S
H1351 C1364 0.960 . S
C1352 H1344 0.929 . S
C1352 C1353 1.377 . S
C1352 C1354 1.384 . S
C1353 C1352 1.377 . S
C1353 C1359 1.390 . S
C1354 H1345 0.930 . S
C1354 C1352 1.384 . S
C1354 C1355 1.372 . S
C1355 C1354 1.372 . S
C1355 C1356 1.400 . S
C1355 C1360 1.490 . S
C1356 H1346 0.930 . S
C1356 C1355 1.400 . S
C1356 C1359 1.386 . S
H1357 C1373 0.930 . S
H1358 C1374 0.931 . S
C1359 H1347 0.929 . S
C1359 C1353 1.390 . S
C1359 C1356 1.386 . S
C1360 C1355 1.490 . S
C1360 C1362 1.395 . S
C1360 C1363 1.403 . S
H1361 C1367 0.930 . S
C1362 H1348 0.930 . S
C1362 C1360 1.395 . S
C1362 C1365 1.403 . S
C1363 C1360 1.403 . S
C1363 C1364 1.524 . S
C1363 C1367 1.400 . S
C1364 H1349 0.960 . S
C1364 H1350 0.960 . S
C1364 H1351 0.960 . S
C1364 C1363 1.524 . S
C1365 C1362 1.403 . S
C1365 C1366 1.392 . S
C1365 C1369 1.495 . S
C1366 C1365 1.392 . S
C1366 C1367 1.385 . S
C1366 C1368 1.478 . S
C1367 H1361 0.930 . S
C1367 C1363 1.400 . S
C1367 C1366 1.385 . S
C1368 C1366 1.478 . S
C1368 C1370 1.381 . S
C1368 C1374 1.383 . S
C1369 C1365 1.495 . S
C1369 H1375 0.959 . S
C1369 H1376 0.961 . S
C1369 H1377 0.960 . S
C1370 C1368 1.381 . S
C1370 C1371 1.394 . S
C1370 H1378 0.930 . S
C1371 C1370 1.394 . S
C1371 C1372 1.383 . S
C1371 H1379 0.929 . S
C1372 C1371 1.383 . S
C1372 C1373 1.377 . S
C1373 H1357 0.930 . S
C1373 C1372 1.377 . S
C1373 C1374 1.379 . S
C1374 H1358 0.931 . S
C1374 C1368 1.383 . S
C1374 C1373 1.379 . S
H1375 C1369 0.959 . S
H1376 C1369 0.961 . S
H1377 C1369 0.960 . S
H1378 C1370 0.930 . S
H1379 C1371 0.929 . S
H1380 C1388 0.929 . S
H1381 C1390 0.930 . S
H1382 C1392 0.930 . S
H1383 C1395 0.929 . S
H1384 C1398 0.930 . S
H1385 C1400 0.960 . S
H1386 C1400 0.960 . S
H1387 C1400 0.960 . S
C1388 H1380 0.929 . S
C1388 C1389 1.377 . S
C1388 C1390 1.384 . S
C1389 C1388 1.377 . S
C1389 C1395 1.390 . S
C1390 H1381 0.930 . S
C1390 C1388 1.384 . S
C1390 C1391 1.372 . S
C1391 C1390 1.372 . S
C1391 C1392 1.400 . S
C1391 C1396 1.490 . S
C1392 H1382 0.930 . S
C1392 C1391 1.400 . S
C1392 C1395 1.386 . S
H1393 C1409 0.930 . S
H1394 C1410 0.931 . S
C1395 H1383 0.929 . S
C1395 C1389 1.390 . S
C1395 C1392 1.386 . S
C1396 C1391 1.490 . S
C1396 C1398 1.395 . S
C1396 C1399 1.403 . S
H1397 C1403 0.930 . S
C1398 H1384 0.930 . S
C1398 C1396 1.395 . S
C1398 C1401 1.403 . S
C1399 C1396 1.403 . S
C1399 C1400 1.524 . S
C1399 C1403 1.400 . S
C1400 H1385 0.960 . S
C1400 H1386 0.960 . S
C1400 H1387 0.960 . S
C1400 C1399 1.524 . S
C1401 C1398 1.403 . S
C1401 C1402 1.392 . S
C1401 C1405 1.495 . S
C1402 C1401 1.392 . S
C1402 C1403 1.385 . S
C1402 C1404 1.478 . S
C1403 H1397 0.930 . S
C1403 C1399 1.400 . S
C1403 C1402 1.385 . S
C1404 C1402 1.478 . S
C1404 C1406 1.381 . S
C1404 C1410 1.383 . S
C1405 C1401 1.495 . S
C1405 H1411 0.959 . S
C1405 H1412 0.961 . S
C1405 H1413 0.960 . S
C1406 C1404 1.381 . S
C1406 C1407 1.394 . S
C1406 H1414 0.930 . S
C1407 C1406 1.394 . S
C1407 C1408 1.383 . S
C1407 H1415 0.929 . S
C1408 C1407 1.383 . S
C1408 C1409 1.377 . S
C1409 H1393 0.930 . S
C1409 C1408 1.377 . S
C1409 C1410 1.379 . S
C1410 H1394 0.931 . S
C1410 C1404 1.383 . S
C1410 C1409 1.379 . S
H1411 C1405 0.959 . S
H1412 C1405 0.961 . S
H1413 C1405 0.960 . S
H1414 C1406 0.930 . S
H1415 C1407 0.929 . S
H1416 C1424 0.929 . S
H1417 C1426 0.930 . S
H1418 C1428 0.930 . S
H1419 C1431 0.929 . S
H1420 C1434 0.930 . S
H1421 C1436 0.960 . S
H1422 C1436 0.960 . S
H1423 C1436 0.960 . S
C1424 H1416 0.929 . S
C1424 C1425 1.377 . S
C1424 C1426 1.384 . S
C1425 C1424 1.377 . S
C1425 C1431 1.390 . S
C1426 H1417 0.930 . S
C1426 C1424 1.384 . S
C1426 C1427 1.372 . S
C1427 C1426 1.372 . S
C1427 C1428 1.400 . S
C1427 C1432 1.490 . S
C1428 H1418 0.930 . S
C1428 C1427 1.400 . S
C1428 C1431 1.386 . S
H1429 C1445 0.930 . S
H1430 C1446 0.931 . S
C1431 H1419 0.929 . S
C1431 C1425 1.390 . S
C1431 C1428 1.386 . S
C1432 C1427 1.490 . S
C1432 C1434 1.395 . S
C1432 C1435 1.403 . S
H1433 C1439 0.930 . S
C1434 H1420 0.930 . S
C1434 C1432 1.395 . S
C1434 C1437 1.403 . S
C1435 C1432 1.403 . S
C1435 C1436 1.524 . S
C1435 C1439 1.400 . S
C1436 H1421 0.960 . S
C1436 H1422 0.960 . S
C1436 H1423 0.960 . S
C1436 C1435 1.524 . S
C1437 C1434 1.403 . S
C1437 C1438 1.392 . S
C1437 C1441 1.495 . S
C1438 C1437 1.392 . S
C1438 C1439 1.385 . S
C1438 C1440 1.478 . S
C1439 H1433 0.930 . S
C1439 C1435 1.400 . S
C1439 C1438 1.385 . S
C1440 C1438 1.478 . S
C1440 C1442 1.381 . S
C1440 C1446 1.383 . S
C1441 C1437 1.495 . S
C1441 H1447 0.959 . S
C1441 H1448 0.961 . S
C1441 H1449 0.960 . S
C1442 C1440 1.381 . S
C1442 C1443 1.394 . S
C1442 H1450 0.930 . S
C1443 C1442 1.394 . S
C1443 C1444 1.383 . S
C1443 H1451 0.929 . S
C1444 C1443 1.383 . S
C1444 C1445 1.377 . S
C1445 H1429 0.930 . S
C1445 C1444 1.377 . S
C1445 C1446 1.379 . S
C1446 H1430 0.931 . S
C1446 C1440 1.383 . S
C1446 C1445 1.379 . S
H1447 C1441 0.959 . S
H1448 C1441 0.961 . S
H1449 C1441 0.960 . S
H1450 C1442 0.930 . S
H1451 C1443 0.929 . S
H1452 C1460 0.929 . S
H1453 C1462 0.930 . S
H1454 C1464 0.930 . S
H1455 C1467 0.929 . S
H1456 C1470 0.930 . S
H1457 C1472 0.960 . S
H1458 C1472 0.960 . S
H1459 C1472 0.960 . S
C1460 H1452 0.929 . S
C1460 C1461 1.377 . S
C1460 C1462 1.384 . S
C1461 C1460 1.377 . S
C1461 C1467 1.390 . S
C1462 H1453 0.930 . S
C1462 C1460 1.384 . S
C1462 C1463 1.372 . S
C1463 C1462 1.372 . S
C1463 C1464 1.400 . S
C1463 C1468 1.490 . S
C1464 H1454 0.930 . S
C1464 C1463 1.400 . S
C1464 C1467 1.386 . S
H1465 C1481 0.930 . S
H1466 C1482 0.931 . S
C1467 H1455 0.929 . S
C1467 C1461 1.390 . S
C1467 C1464 1.386 . S
C1468 C1463 1.490 . S
C1468 C1470 1.395 . S
C1468 C1471 1.403 . S
H1469 C1475 0.930 . S
C1470 H1456 0.930 . S
C1470 C1468 1.395 . S
C1470 C1473 1.403 . S
C1471 C1468 1.403 . S
C1471 C1472 1.524 . S
C1471 C1475 1.400 . S
C1472 H1457 0.960 . S
C1472 H1458 0.960 . S
C1472 H1459 0.960 . S
C1472 C1471 1.524 . S
C1473 C1470 1.403 . S
C1473 C1474 1.392 . S
C1473 C1477 1.495 . S
C1474 C1473 1.392 . S
C1474 C1475 1.385 . S
C1474 C1476 1.478 . S
C1475 H1469 0.930 . S
C1475 C1471 1.400 . S
C1475 C1474 1.385 . S
C1476 C1474 1.478 . S
C1476 C1478 1.381 . S
C1476 C1482 1.383 . S
C1477 C1473 1.495 . S
C1477 H1483 0.959 . S
C1477 H1484 0.961 . S
C1477 H1485 0.960 . S
C1478 C1476 1.381 . S
C1478 C1479 1.394 . S
C1478 H1486 0.930 . S
C1479 C1478 1.394 . S
C1479 C1480 1.383 . S
C1479 H1487 0.929 . S
C1480 C1479 1.383 . S
C1480 C1481 1.377 . S
C1481 H1465 0.930 . S
C1481 C1480 1.377 . S
C1481 C1482 1.379 . S
C1482 H1466 0.931 . S
C1482 C1476 1.383 . S
C1482 C1481 1.379 . S
H1483 C1477 0.959 . S
H1484 C1477 0.961 . S
H1485 C1477 0.960 . S
H1486 C1478 0.930 . S
H1487 C1479 0.929 . S
H1488 C1496 0.929 . S
H1489 C1498 0.930 . S
H1490 C1500 0.930 . S
H1491 C1503 0.929 . S
H1492 C1506 0.930 . S
H1493 C1508 0.960 . S
H1494 C1508 0.960 . S
H1495 C1508 0.960 . S
C1496 H1488 0.929 . S
C1496 C1497 1.377 . S
C1496 C1498 1.384 . S
C1497 C1496 1.377 . S
C1497 C1503 1.390 . S
C1498 H1489 0.930 . S
C1498 C1496 1.384 . S
C1498 C1499 1.372 . S
C1499 C1498 1.372 . S
C1499 C1500 1.400 . S
C1499 C1504 1.490 . S
C1500 H1490 0.930 . S
C1500 C1499 1.400 . S
C1500 C1503 1.386 . S
H1501 C1517 0.930 . S
H1502 C1518 0.931 . S
C1503 H1491 0.929 . S
C1503 C1497 1.390 . S
C1503 C1500 1.386 . S
C1504 C1499 1.490 . S
C1504 C1506 1.395 . S
C1504 C1507 1.403 . S
H1505 C1511 0.930 . S
C1506 H1492 0.930 . S
C1506 C1504 1.395 . S
C1506 C1509 1.403 . S
C1507 C1504 1.403 . S
C1507 C1508 1.524 . S
C1507 C1511 1.400 . S
C1508 H1493 0.960 . S
C1508 H1494 0.960 . S
C1508 H1495 0.960 . S
C1508 C1507 1.524 . S
C1509 C1506 1.403 . S
C1509 C1510 1.392 . S
C1509 C1513 1.495 . S
C1510 C1509 1.392 . S
C1510 C1511 1.385 . S
C1510 C1512 1.478 . S
C1511 H1505 0.930 . S
C1511 C1507 1.400 . S
C1511 C1510 1.385 . S
C1512 C1510 1.478 . S
C1512 C1514 1.381 . S
C1512 C1518 1.383 . S
C1513 C1509 1.495 . S
C1513 H1519 0.959 . S
C1513 H1520 0.961 . S
C1513 H1521 0.960 . S
C1514 C1512 1.381 . S
C1514 C1515 1.394 . S
C1514 H1522 0.930 . S
C1515 C1514 1.394 . S
C1515 C1516 1.383 . S
C1515 H1523 0.929 . S
C1516 C1515 1.383 . S
C1516 C1517 1.377 . S
C1517 H1501 0.930 . S
C1517 C1516 1.377 . S
C1517 C1518 1.379 . S
C1518 H1502 0.931 . S
C1518 C1512 1.383 . S
C1518 C1517 1.379 . S
H1519 C1513 0.959 . S
H1520 C1513 0.961 . S
H1521 C1513 0.960 . S
H1522 C1514 0.930 . S
H1523 C1515 0.929 . S
H1524 C1532 0.929 . S
H1525 C1534 0.930 . S
H1526 C1536 0.930 . S
H1527 C1539 0.929 . S
H1528 C1542 0.930 . S
H1529 C1544 0.960 . S
H1530 C1544 0.960 . S
H1531 C1544 0.960 . S
C1532 H1524 0.929 . S
C1532 C1533 1.377 . S
C1532 C1534 1.384 . S
C1533 C1532 1.377 . S
C1533 C1539 1.390 . S
C1534 H1525 0.930 . S
C1534 C1532 1.384 . S
C1534 C1535 1.372 . S
C1535 C1534 1.372 . S
C1535 C1536 1.400 . S
C1535 C1540 1.490 . S
C1536 H1526 0.930 . S
C1536 C1535 1.400 . S
C1536 C1539 1.386 . S
H1537 C1553 0.930 . S
H1538 C1554 0.931 . S
C1539 H1527 0.929 . S
C1539 C1533 1.390 . S
C1539 C1536 1.386 . S
C1540 C1535 1.490 . S
C1540 C1542 1.395 . S
C1540 C1543 1.403 1_556 S
H1541 C1547 0.930 . S
C1542 H1528 0.930 . S
C1542 C1540 1.395 . S
C1542 C1545 1.403 . S
C1543 C1540 1.403 1_554 S
C1543 C1544 1.524 . S
C1543 C1547 1.400 . S
C1544 H1529 0.960 . S
C1544 H1530 0.960 . S
C1544 H1531 0.960 . S
C1544 C1543 1.524 . S
C1545 C1542 1.403 . S
C1545 C1546 1.392 1_556 S
C1545 C1549 1.495 . S
C1546 C1545 1.392 1_554 S
C1546 C1547 1.385 . S
C1546 C1548 1.478 . S
C1547 H1541 0.930 . S
C1547 C1543 1.400 . S
C1547 C1546 1.385 . S
C1548 C1546 1.478 . S
C1548 C1550 1.381 . S
C1548 C1554 1.383 . S
C1549 C1545 1.495 . S
C1549 H1555 0.959 . S
C1549 H1556 0.961 . S
C1549 H1557 0.960 . S
C1550 C1548 1.381 . S
C1550 C1551 1.394 . S
C1550 H1558 0.930 . S
C1551 C1550 1.394 . S
C1551 C1552 1.383 . S
C1551 H1559 0.929 . S
C1552 C1551 1.383 . S
C1552 C1553 1.377 . S
C1553 H1537 0.930 . S
C1553 C1552 1.377 . S
C1553 C1554 1.379 . S
C1554 H1538 0.931 . S
C1554 C1548 1.383 . S
C1554 C1553 1.379 . S
H1555 C1549 0.959 . S
H1556 C1549 0.961 . S
H1557 C1549 0.960 . S
H1558 C1550 0.930 . S
H1559 C1551 0.929 . S
H1560 C1568 0.929 . S
H1561 C1570 0.930 . S
H1562 C1572 0.930 . S
H1563 C1575 0.929 . S
H1564 C1578 0.930 . S
H1565 C1580 0.960 . S
H1566 C1580 0.960 . S
H1567 C1580 0.960 . S
C1568 H1560 0.929 . S
C1568 C1569 1.377 . S
C1568 C1570 1.384 . S
C1569 C1568 1.377 . S
C1569 C1575 1.390 . S
C1570 H1561 0.930 . S
C1570 C1568 1.384 . S
C1570 C1571 1.372 . S
C1571 C1570 1.372 . S
C1571 C1572 1.400 . S
C1571 C1576 1.490 . S
C1572 H1562 0.930 . S
C1572 C1571 1.400 . S
C1572 C1575 1.386 . S
H1573 C1589 0.930 . S
H1574 C1590 0.931 . S
C1575 H1563 0.929 . S
C1575 C1569 1.390 . S
C1575 C1572 1.386 . S
C1576 C1571 1.490 . S
C1576 C1578 1.395 . S
C1576 C1579 1.403 . S
H1577 C1583 0.930 . S
C1578 H1564 0.930 . S
C1578 C1576 1.395 . S
C1578 C1581 1.403 . S
C1579 C1576 1.403 . S
C1579 C1580 1.524 . S
C1579 C1583 1.400 . S
C1580 H1565 0.960 . S
C1580 H1566 0.960 . S
C1580 H1567 0.960 . S
C1580 C1579 1.524 . S
C1581 C1578 1.403 . S
C1581 C1582 1.392 . S
C1581 C1585 1.495 . S
C1582 C1581 1.392 . S
C1582 C1583 1.385 . S
C1582 C1584 1.478 . S
C1583 H1577 0.930 . S
C1583 C1579 1.400 . S
C1583 C1582 1.385 . S
C1584 C1582 1.478 . S
C1584 C1586 1.381 . S
C1584 C1590 1.383 . S
C1585 C1581 1.495 . S
C1585 H1591 0.959 . S
C1585 H1592 0.961 . S
C1585 H1593 0.960 . S
C1586 C1584 1.381 . S
C1586 C1587 1.394 . S
C1586 H1594 0.930 . S
C1587 C1586 1.394 . S
C1587 C1588 1.383 . S
C1587 H1595 0.929 . S
C1588 C1587 1.383 . S
C1588 C1589 1.377 . S
C1589 H1573 0.930 . S
C1589 C1588 1.377 . S
C1589 C1590 1.379 . S
C1590 H1574 0.931 . S
C1590 C1584 1.383 . S
C1590 C1589 1.379 . S
H1591 C1585 0.959 . S
H1592 C1585 0.961 . S
H1593 C1585 0.960 . S
H1594 C1586 0.930 . S
H1595 C1587 0.929 . S
H1596 C1604 0.929 . S
H1597 C1606 0.930 . S
H1598 C1608 0.930 . S
H1599 C1611 0.929 . S
H1600 C1614 0.930 . S
H1601 C1616 0.960 . S
H1602 C1616 0.960 . S
H1603 C1616 0.960 . S
C1604 H1596 0.929 . S
C1604 C1605 1.377 . S
C1604 C1606 1.384 . S
C1605 C1604 1.377 . S
C1605 C1611 1.390 . S
C1606 H1597 0.930 . S
C1606 C1604 1.384 . S
C1606 C1607 1.372 . S
C1607 C1606 1.372 . S
C1607 C1608 1.400 . S
C1607 C1612 1.490 . S
C1608 H1598 0.930 . S
C1608 C1607 1.400 . S
C1608 C1611 1.386 . S
H1609 C1625 0.930 . S
H1610 C1626 0.931 . S
C1611 H1599 0.929 . S
C1611 C1605 1.390 . S
C1611 C1608 1.386 . S
C1612 C1607 1.490 . S
C1612 C1614 1.395 . S
C1612 C1615 1.403 . S
H1613 C1619 0.930 . S
C1614 H1600 0.930 . S
C1614 C1612 1.395 . S
C1614 C1617 1.403 . S
C1615 C1612 1.403 . S
C1615 C1616 1.524 . S
C1615 C1619 1.400 . S
C1616 H1601 0.960 . S
C1616 H1602 0.960 . S
C1616 H1603 0.960 . S
C1616 C1615 1.524 . S
C1617 C1614 1.403 . S
C1617 C1618 1.392 . S
C1617 C1621 1.495 . S
C1618 C1617 1.392 . S
C1618 C1619 1.385 . S
C1618 C1620 1.478 . S
C1619 H1613 0.930 . S
C1619 C1615 1.400 . S
C1619 C1618 1.385 . S
C1620 C1618 1.478 . S
C1620 C1622 1.381 . S
C1620 C1626 1.383 . S
C1621 C1617 1.495 . S
C1621 H1627 0.959 . S
C1621 H1628 0.961 . S
C1621 H1629 0.960 . S
C1622 C1620 1.381 . S
C1622 C1623 1.394 . S
C1622 H1630 0.930 . S
C1623 C1622 1.394 . S
C1623 C1624 1.383 . S
C1623 H1631 0.929 . S
C1624 C1623 1.383 . S
C1624 C1625 1.377 . S
C1625 H1609 0.930 . S
C1625 C1624 1.377 . S
C1625 C1626 1.379 . S
C1626 H1610 0.931 . S
C1626 C1620 1.383 . S
C1626 C1625 1.379 . S
H1627 C1621 0.959 . S
H1628 C1621 0.961 . S
H1629 C1621 0.960 . S
H1630 C1622 0.930 . S
H1631 C1623 0.929 . S
H1632 C1640 0.929 . S
H1633 C1642 0.930 . S
H1634 C1644 0.930 . S
H1635 C1647 0.929 . S
H1636 C1650 0.930 . S
H1637 C1652 0.960 . S
H1638 C1652 0.960 . S
H1639 C1652 0.960 . S
C1640 H1632 0.929 . S
C1640 C1641 1.377 . S
C1640 C1642 1.384 . S
C1641 C1640 1.377 . S
C1641 C1647 1.390 . S
C1642 H1633 0.930 . S
C1642 C1640 1.384 . S
C1642 C1643 1.372 . S
C1643 C1642 1.372 . S
C1643 C1644 1.400 . S
C1643 C1648 1.490 . S
C1644 H1634 0.930 . S
C1644 C1643 1.400 . S
C1644 C1647 1.386 . S
H1645 C1661 0.930 . S
H1646 C1662 0.931 . S
C1647 H1635 0.929 . S
C1647 C1641 1.390 . S
C1647 C1644 1.386 . S
C1648 C1643 1.490 . S
C1648 C1650 1.395 . S
C1648 C1651 1.403 . S
H1649 C1655 0.930 . S
C1650 H1636 0.930 . S
C1650 C1648 1.395 . S
C1650 C1653 1.403 . S
C1651 C1648 1.403 . S
C1651 C1652 1.524 . S
C1651 C1655 1.400 . S
C1652 H1637 0.960 . S
C1652 H1638 0.960 . S
C1652 H1639 0.960 . S
C1652 C1651 1.524 . S
C1653 C1650 1.403 . S
C1653 C1654 1.392 . S
C1653 C1657 1.495 . S
C1654 C1653 1.392 . S
C1654 C1655 1.385 . S
C1654 C1656 1.478 . S
C1655 H1649 0.930 . S
C1655 C1651 1.400 . S
C1655 C1654 1.385 . S
C1656 C1654 1.478 . S
C1656 C1658 1.381 . S
C1656 C1662 1.383 . S
C1657 C1653 1.495 . S
C1657 H1663 0.959 . S
C1657 H1664 0.961 . S
C1657 H1665 0.960 . S
C1658 C1656 1.381 . S
C1658 C1659 1.394 . S
C1658 H1666 0.930 . S
C1659 C1658 1.394 . S
C1659 C1660 1.383 . S
C1659 H1667 0.929 . S
C1660 C1659 1.383 . S
C1660 C1661 1.377 . S
C1661 H1645 0.930 . S
C1661 C1660 1.377 . S
C1661 C1662 1.379 . S
C1662 H1646 0.931 . S
C1662 C1656 1.383 . S
C1662 C1661 1.379 . S
H1663 C1657 0.959 . S
H1664 C1657 0.961 . S
H1665 C1657 0.960 . S
H1666 C1658 0.930 . S
H1667 C1659 0.929 . S
H1668 C1676 0.929 . S
H1669 C1678 0.930 . S
H1670 C1680 0.930 . S
H1671 C1683 0.929 . S
H1672 C1686 0.930 . S
H1673 C1688 0.960 . S
H1674 C1688 0.960 . S
H1675 C1688 0.960 . S
C1676 H1668 0.929 . S
C1676 C1677 1.377 . S
C1676 C1678 1.384 . S
C1677 C1676 1.377 . S
C1677 C1683 1.390 . S
C1678 H1669 0.930 . S
C1678 C1676 1.384 . S
C1678 C1679 1.372 . S
C1679 C1678 1.372 . S
C1679 C1680 1.400 . S
C1679 C1684 1.490 . S
C1680 H1670 0.930 . S
C1680 C1679 1.400 . S
C1680 C1683 1.386 . S
H1681 C1697 0.930 . S
H1682 C1698 0.931 . S
C1683 H1671 0.929 . S
C1683 C1677 1.390 . S
C1683 C1680 1.386 . S
C1684 C1679 1.490 . S
C1684 C1686 1.395 . S
C1684 C1687 1.403 . S
H1685 C1691 0.930 . S
C1686 H1672 0.930 . S
C1686 C1684 1.395 . S
C1686 C1689 1.403 . S
C1687 C1684 1.403 . S
C1687 C1688 1.524 . S
C1687 C1691 1.400 . S
C1688 H1673 0.960 . S
C1688 H1674 0.960 . S
C1688 H1675 0.960 . S
C1688 C1687 1.524 . S
C1689 C1686 1.403 . S
C1689 C1690 1.392 . S
C1689 C1693 1.495 . S
C1690 C1689 1.392 . S
C1690 C1691 1.385 . S
C1690 C1692 1.478 . S
C1691 H1685 0.930 . S
C1691 C1687 1.400 . S
C1691 C1690 1.385 . S
C1692 C1690 1.478 . S
C1692 C1694 1.381 . S
C1692 C1698 1.383 . S
C1693 C1689 1.495 . S
C1693 H1699 0.959 . S
C1693 H1700 0.961 . S
C1693 H1701 0.960 . S
C1694 C1692 1.381 . S
C1694 C1695 1.394 . S
C1694 H1702 0.930 . S
C1695 C1694 1.394 . S
C1695 C1696 1.383 . S
C1695 H1703 0.929 . S
C1696 C1695 1.383 . S
C1696 C1697 1.377 . S
C1697 H1681 0.930 . S
C1697 C1696 1.377 . S
C1697 C1698 1.379 . S
C1698 H1682 0.931 . S
C1698 C1692 1.383 . S
C1698 C1697 1.379 . S
H1699 C1693 0.959 . S
H1700 C1693 0.961 . S
H1701 C1693 0.960 . S
H1702 C1694 0.930 . S
H1703 C1695 0.929 . S
H1704 C1712 0.929 . S
H1705 C1714 0.930 . S
H1706 C1716 0.930 . S
H1707 C1719 0.929 . S
H1708 C1722 0.930 . S
H1709 C1724 0.960 . S
H1710 C1724 0.960 . S
H1711 C1724 0.960 . S
C1712 H1704 0.929 . S
C1712 C1713 1.377 . S
C1712 C1714 1.384 . S
C1713 C1712 1.377 . S
C1713 C1719 1.390 . S
C1714 H1705 0.930 . S
C1714 C1712 1.384 . S
C1714 C1715 1.372 . S
C1715 C1714 1.372 . S
C1715 C1716 1.400 . S
C1715 C1720 1.490 . S
C1716 H1706 0.930 . S
C1716 C1715 1.400 . S
C1716 C1719 1.386 . S
H1717 C1733 0.930 . S
H1718 C1734 0.931 . S
C1719 H1707 0.929 . S
C1719 C1713 1.390 . S
C1719 C1716 1.386 . S
C1720 C1715 1.490 . S
C1720 C1722 1.395 . S
C1720 C1723 1.403 . S
H1721 C1727 0.930 . S
C1722 H1708 0.930 . S
C1722 C1720 1.395 . S
C1722 C1725 1.403 . S
C1723 C1720 1.403 . S
C1723 C1724 1.524 . S
C1723 C1727 1.400 . S
C1724 H1709 0.960 . S
C1724 H1710 0.960 . S
C1724 H1711 0.960 . S
C1724 C1723 1.524 . S
C1725 C1722 1.403 . S
C1725 C1726 1.392 . S
C1725 C1729 1.495 . S
C1726 C1725 1.392 . S
C1726 C1727 1.385 . S
C1726 C1728 1.478 . S
C1727 H1721 0.930 . S
C1727 C1723 1.400 . S
C1727 C1726 1.385 . S
C1728 C1726 1.478 . S
C1728 C1730 1.381 . S
C1728 C1734 1.383 . S
C1729 C1725 1.495 . S
C1729 H1735 0.959 . S
C1729 H1736 0.961 . S
C1729 H1737 0.960 . S
C1730 C1728 1.381 . S
C1730 C1731 1.394 . S
C1730 H1738 0.930 . S
C1731 C1730 1.394 . S
C1731 C1732 1.383 . S
C1731 H1739 0.929 . S
C1732 C1731 1.383 . S
C1732 C1733 1.377 . S
C1733 H1717 0.930 . S
C1733 C1732 1.377 . S
C1733 C1734 1.379 . S
C1734 H1718 0.931 . S
C1734 C1728 1.383 . S
C1734 C1733 1.379 . S
H1735 C1729 0.959 . S
H1736 C1729 0.961 . S
H1737 C1729 0.960 . S
H1738 C1730 0.930 . S
H1739 C1731 0.929 . S
H1740 C1748 0.929 . S
H1741 C1750 0.930 . S
H1742 C1752 0.930 . S
H1743 C1755 0.929 . S
H1744 C1758 0.930 . S
H1745 C1760 0.960 . S
H1746 C1760 0.960 . S
H1747 C1760 0.960 . S
C1748 H1740 0.929 . S
C1748 C1749 1.377 . S
C1748 C1750 1.384 . S
C1749 C1748 1.377 . S
C1749 C1755 1.390 . S
C1750 H1741 0.930 . S
C1750 C1748 1.384 . S
C1750 C1751 1.372 . S
C1751 C1750 1.372 . S
C1751 C1752 1.400 . S
C1751 C1756 1.490 . S
C1752 H1742 0.930 . S
C1752 C1751 1.400 . S
C1752 C1755 1.386 . S
H1753 C1769 0.930 . S
H1754 C1770 0.931 . S
C1755 H1743 0.929 . S
C1755 C1749 1.390 . S
C1755 C1752 1.386 . S
C1756 C1751 1.490 . S
C1756 C1758 1.395 . S
C1756 C1759 1.403 . S
H1757 C1763 0.930 . S
C1758 H1744 0.930 . S
C1758 C1756 1.395 . S
C1758 C1761 1.403 . S
C1759 C1756 1.403 . S
C1759 C1760 1.524 . S
C1759 C1763 1.400 . S
C1760 H1745 0.960 . S
C1760 H1746 0.960 . S
C1760 H1747 0.960 . S
C1760 C1759 1.524 . S
C1761 C1758 1.403 . S
C1761 C1762 1.392 . S
C1761 C1765 1.495 . S
C1762 C1761 1.392 . S
C1762 C1763 1.385 . S
C1762 C1764 1.478 . S
C1763 H1757 0.930 . S
C1763 C1759 1.400 . S
C1763 C1762 1.385 . S
C1764 C1762 1.478 . S
C1764 C1766 1.381 . S
C1764 C1770 1.383 . S
C1765 C1761 1.495 . S
C1765 H1771 0.959 . S
C1765 H1772 0.961 . S
C1765 H1773 0.960 . S
C1766 C1764 1.381 . S
C1766 C1767 1.394 . S
C1766 H1774 0.930 . S
C1767 C1766 1.394 . S
C1767 C1768 1.383 . S
C1767 H1775 0.929 . S
C1768 C1767 1.383 . S
C1768 C1769 1.377 . S
C1769 H1753 0.930 . S
C1769 C1768 1.377 . S
C1769 C1770 1.379 . S
C1770 H1754 0.931 . S
C1770 C1764 1.383 . S
C1770 C1769 1.379 . S
H1771 C1765 0.959 . S
H1772 C1765 0.961 . S
H1773 C1765 0.960 . S
H1774 C1766 0.930 . S
H1775 C1767 0.929 . S
H1776 C1784 0.929 . S
H1777 C1786 0.930 . S
H1778 C1788 0.930 . S
H1779 C1791 0.929 . S
H1780 C1794 0.930 . S
H1781 C1796 0.960 . S
H1782 C1796 0.960 . S
H1783 C1796 0.960 . S
C1784 H1776 0.929 . S
C1784 C1785 1.377 . S
C1784 C1786 1.384 . S
C1785 C1784 1.377 . S
C1785 C1791 1.390 . S
C1786 H1777 0.930 . S
C1786 C1784 1.384 . S
C1786 C1787 1.372 . S
C1787 C1786 1.372 . S
C1787 C1788 1.400 . S
C1787 C1792 1.490 . S
C1788 H1778 0.930 . S
C1788 C1787 1.400 . S
C1788 C1791 1.386 . S
H1789 C1805 0.930 . S
H1790 C1806 0.931 . S
C1791 H1779 0.929 . S
C1791 C1785 1.390 . S
C1791 C1788 1.386 . S
C1792 C1787 1.490 . S
C1792 C1794 1.395 . S
C1792 C1795 1.403 . S
H1793 C1799 0.930 . S
C1794 H1780 0.930 . S
C1794 C1792 1.395 . S
C1794 C1797 1.403 . S
C1795 C1792 1.403 . S
C1795 C1796 1.524 . S
C1795 C1799 1.400 . S
C1796 H1781 0.960 . S
C1796 H1782 0.960 . S
C1796 H1783 0.960 . S
C1796 C1795 1.524 . S
C1797 C1794 1.403 . S
C1797 C1798 1.392 . S
C1797 C1801 1.495 . S
C1798 C1797 1.392 . S
C1798 C1799 1.385 . S
C1798 C1800 1.478 . S
C1799 H1793 0.930 . S
C1799 C1795 1.400 . S
C1799 C1798 1.385 . S
C1800 C1798 1.478 . S
C1800 C1802 1.381 . S
C1800 C1806 1.383 . S
C1801 C1797 1.495 . S
C1801 H1807 0.959 . S
C1801 H1808 0.961 . S
C1801 H1809 0.960 . S
C1802 C1800 1.381 . S
C1802 C1803 1.394 . S
C1802 H1810 0.930 . S
C1803 C1802 1.394 . S
C1803 C1804 1.383 . S
C1803 H1811 0.929 . S
C1804 C1803 1.383 . S
C1804 C1805 1.377 . S
C1805 H1789 0.930 . S
C1805 C1804 1.377 . S
C1805 C1806 1.379 . S
C1806 H1790 0.931 . S
C1806 C1800 1.383 . S
C1806 C1805 1.379 . S
H1807 C1801 0.959 . S
H1808 C1801 0.961 . S
H1809 C1801 0.960 . S
H1810 C1802 0.930 . S
H1811 C1803 0.929 . S
H1812 C1820 0.929 . S
H1813 C1822 0.930 . S
H1814 C1824 0.930 . S
H1815 C1827 0.929 . S
H1816 C1830 0.930 . S
H1817 C1832 0.960 . S
H1818 C1832 0.960 . S
H1819 C1832 0.960 . S
C1820 H1812 0.929 . S
C1820 C1821 1.377 . S
C1820 C1822 1.384 . S
C1821 C1820 1.377 . S
C1821 C1827 1.390 . S
C1822 H1813 0.930 . S
C1822 C1820 1.384 . S
C1822 C1823 1.372 . S
C1823 C1822 1.372 . S
C1823 C1824 1.400 . S
C1823 C1828 1.490 . S
C1824 H1814 0.930 . S
C1824 C1823 1.400 . S
C1824 C1827 1.386 . S
H1825 C1841 0.930 . S
H1826 C1842 0.931 . S
C1827 H1815 0.929 . S
C1827 C1821 1.390 . S
C1827 C1824 1.386 . S
C1828 C1823 1.490 . S
C1828 C1830 1.395 . S
C1828 C1831 1.403 . S
H1829 C1835 0.930 . S
C1830 H1816 0.930 . S
C1830 C1828 1.395 . S
C1830 C1833 1.403 . S
C1831 C1828 1.403 . S
C1831 C1832 1.524 . S
C1831 C1835 1.400 . S
C1832 H1817 0.960 . S
C1832 H1818 0.960 . S
C1832 H1819 0.960 . S
C1832 C1831 1.524 . S
C1833 C1830 1.403 . S
C1833 C1834 1.392 . S
C1833 C1837 1.495 . S
C1834 C1833 1.392 . S
C1834 C1835 1.385 . S
C1834 C1836 1.478 . S
C1835 H1829 0.930 . S
C1835 C1831 1.400 . S
C1835 C1834 1.385 . S
C1836 C1834 1.478 . S
C1836 C1838 1.381 . S
C1836 C1842 1.383 . S
C1837 C1833 1.495 . S
C1837 H1843 0.959 . S
C1837 H1844 0.961 . S
C1837 H1845 0.960 . S
C1838 C1836 1.381 . S
C1838 C1839 1.394 . S
C1838 H1846 0.930 . S
C1839 C1838 1.394 . S
C1839 C1840 1.383 . S
C1839 H1847 0.929 . S
C1840 C1839 1.383 . S
C1840 C1841 1.377 . S
C1841 H1825 0.930 . S
C1841 C1840 1.377 . S
C1841 C1842 1.379 . S
C1842 H1826 0.931 . S
C1842 C1836 1.383 . S
C1842 C1841 1.379 . S
H1843 C1837 0.959 . S
H1844 C1837 0.961 . S
H1845 C1837 0.960 . S
H1846 C1838 0.930 . S
H1847 C1839 0.929 . S
H1848 C1856 0.929 . S
H1849 C1858 0.930 . S
H1850 C1860 0.930 . S
H1851 C1863 0.929 . S
H1852 C1866 0.930 . S
H1853 C1868 0.960 . S
H1854 C1868 0.960 . S
H1855 C1868 0.960 . S
C1856 H1848 0.929 . S
C1856 C1857 1.377 . S
C1856 C1858 1.384 . S
C1857 C1856 1.377 . S
C1857 C1863 1.390 . S
C1858 H1849 0.930 . S
C1858 C1856 1.384 . S
C1858 C1859 1.372 . S
C1859 C1858 1.372 . S
C1859 C1860 1.400 . S
C1859 C1864 1.490 . S
C1860 H1850 0.930 . S
C1860 C1859 1.400 . S
C1860 C1863 1.386 . S
H1861 C1877 0.930 . S
H1862 C1878 0.931 . S
C1863 H1851 0.929 . S
C1863 C1857 1.390 . S
C1863 C1860 1.386 . S
C1864 C1859 1.490 . S
C1864 C1866 1.395 . S
C1864 C1867 1.403 . S
H1865 C1871 0.930 . S
C1866 H1852 0.930 . S
C1866 C1864 1.395 . S
C1866 C1869 1.403 . S
C1867 C1864 1.403 . S
C1867 C1868 1.524 . S
C1867 C1871 1.400 . S
C1868 H1853 0.960 . S
C1868 H1854 0.960 . S
C1868 H1855 0.960 . S
C1868 C1867 1.524 . S
C1869 C1866 1.403 . S
C1869 C1870 1.392 . S
C1869 C1873 1.495 . S
C1870 C1869 1.392 . S
C1870 C1871 1.385 . S
C1870 C1872 1.478 . S
C1871 H1865 0.930 . S
C1871 C1867 1.400 . S
C1871 C1870 1.385 . S
C1872 C1870 1.478 . S
C1872 C1874 1.381 . S
C1872 C1878 1.383 . S
C1873 C1869 1.495 . S
C1873 H1879 0.959 . S
C1873 H1880 0.961 . S
C1873 H1881 0.960 . S
C1874 C1872 1.381 . S
C1874 C1875 1.394 . S
C1874 H1882 0.930 . S
C1875 C1874 1.394 . S
C1875 C1876 1.383 . S
C1875 H1883 0.929 . S
C1876 C1875 1.383 . S
C1876 C1877 1.377 . S
C1877 H1861 0.930 . S
C1877 C1876 1.377 . S
C1877 C1878 1.379 . S
C1878 H1862 0.931 . S
C1878 C1872 1.383 . S
C1878 C1877 1.379 . S
H1879 C1873 0.959 . S
H1880 C1873 0.961 . S
H1881 C1873 0.960 . S
H1882 C1874 0.930 . S
H1883 C1875 0.929 . S
H1884 C1892 0.929 . S
H1885 C1894 0.930 . S
H1886 C1896 0.930 . S
H1887 C1899 0.929 . S
H1888 C1902 0.930 . S
H1889 C1904 0.960 . S
H1890 C1904 0.960 . S
H1891 C1904 0.960 . S
C1892 H1884 0.929 . S
C1892 C1893 1.377 . S
C1892 C1894 1.384 . S
C1893 C1892 1.377 . S
C1893 C1899 1.390 . S
C1894 H1885 0.930 . S
C1894 C1892 1.384 . S
C1894 C1895 1.372 . S
C1895 C1894 1.372 . S
C1895 C1896 1.400 . S
C1895 C1900 1.490 . S
C1896 H1886 0.930 . S
C1896 C1895 1.400 . S
C1896 C1899 1.386 . S
H1897 C1913 0.930 . S
H1898 C1914 0.931 . S
C1899 H1887 0.929 . S
C1899 C1893 1.390 . S
C1899 C1896 1.386 . S
C1900 C1895 1.490 . S
C1900 C1902 1.395 . S
C1900 C1903 1.403 . S
H1901 C1907 0.930 . S
C1902 H1888 0.930 . S
C1902 C1900 1.395 . S
C1902 C1905 1.403 . S
C1903 C1900 1.403 . S
C1903 C1904 1.524 . S
C1903 C1907 1.400 . S
C1904 H1889 0.960 . S
C1904 H1890 0.960 . S
C1904 H1891 0.960 . S
C1904 C1903 1.524 . S
C1905 C1902 1.403 . S
C1905 C1906 1.392 . S
C1905 C1909 1.495 . S
C1906 C1905 1.392 . S
C1906 C1907 1.385 . S
C1906 C1908 1.478 . S
C1907 H1901 0.930 . S
C1907 C1903 1.400 . S
C1907 C1906 1.385 . S
C1908 C1906 1.478 . S
C1908 C1910 1.381 . S
C1908 C1914 1.383 . S
C1909 C1905 1.495 . S
C1909 H1915 0.959 . S
C1909 H1916 0.961 . S
C1909 H1917 0.960 . S
C1910 C1908 1.381 . S
C1910 C1911 1.394 . S
C1910 H1918 0.930 . S
C1911 C1910 1.394 . S
C1911 C1912 1.383 . S
C1911 H1919 0.929 . S
C1912 C1911 1.383 . S
C1912 C1913 1.377 . S
C1913 H1897 0.930 . S
C1913 C1912 1.377 . S
C1913 C1914 1.379 . S
C1914 H1898 0.931 . S
C1914 C1908 1.383 . S
C1914 C1913 1.379 . S
H1915 C1909 0.959 . S
H1916 C1909 0.961 . S
H1917 C1909 0.960 . S
H1918 C1910 0.930 . S
H1919 C1911 0.929 . S
C1065 C753 1.311 . S
C1084 C57 1.322 . S
C1101 C145 1.311 . S
C1120 C821 1.322 . S
C1137 C233 1.306 . S
C1156 C900 1.294 . S
C1173 C293 1.311 . S
C1192 C997 1.322 . S
C1209 C557 1.309 . S
C1228 C372 1.320 . S
C1245 C460 1.306 . S
C1264 C645 1.291 . S
C1281 C20 1.372 . S
C1300 C469 1.381 . S
C1317 C108 1.367 . S
C1336 C49 1.351 . S
C1353 C196 1.371 . S
C1372 C137 1.341 . S
C1389 C225 1.365 . S
C1408 C313 1.385 . S
C1425 C284 1.366 . S
C1444 C409 1.383 . S
C1461 C381 1.359 . S
C1480 C497 1.366 . S
C1497 C636 1.366 . S
C1516 C577 1.357 . S
C1533 C665 1.369 . S
C1552 C761 1.340 . S
C1569 C812 1.364 . S
C1588 C733 1.385 . S
C1605 C841 1.368 . S
C1624 C909 1.342 . S
C1641 C937 1.370 . S
C1660 C988 1.380 . S
C1677 C1017 1.367 . S
C1696 C548 1.349 . S
C1713 C929 1.053 . S
C1732 C29 1.044 . S
C1749 C1025 1.053 . S
C1768 C117 1.044 . S
C1785 C585 1.053 . S
C1804 C205 1.060 . S
C1821 C321 1.053 . S
C1840 C673 1.061 . S
C1857 C401 1.055 . S
C1876 C724 1.059 . S
C1893 C849 1.054 . S
C1912 C489 1.060 . S
