# Generated by pormake.
# Topology mok, (4)-cn, num edge types: 1
# Building blocks:
#     Node 0, Type 0, BuildingBlock: AZAVOO_clean_sbu_0, # of connection points: 4
#     Node 1, Type 0, BuildingBlock: AZAVOO_clean_sbu_0, # of connection points: 4
#     Node 2, Type 0, BuildingBlock: AZAVOO_clean_sbu_0, # of connection points: 4
#     Node 3, Type 0, BuildingBlock: AZAVOO_clean_sbu_0, # of connection points: 4
#     Node 4, Type 0, BuildingBlock: AZAVOO_clean_sbu_0, # of connection points: 4
#     Node 5, Type 0, BuildingBlock: AZAVOO_clean_sbu_0, # of connection points: 4
#     Node 6, Type 0, BuildingBlock: AZAVOO_clean_sbu_0, # of connection points: 4
#     Node 7, Type 0, BuildingBlock: AZAVOO_clean_sbu_0, # of connection points: 4
#     Edge 8, Type (0, 0), BuildingBlock: ZUJKAS_clean_linker_0, # of connection points: 2
#     Edge 9, Type (0, 0), BuildingBlock: ZUJKAS_clean_linker_0, # of connection points: 2
#     Edge 10, Type (0, 0), BuildingBlock: ZUJKAS_clean_linker_0, # of connection points: 2
#     Edge 11, Type (0, 0), BuildingBlock: ZUJKAS_clean_linker_0, # of connection points: 2
#     Edge 12, Type (0, 0), BuildingBlock: ZUJKAS_clean_linker_0, # of connection points: 2
#     Edge 13, Type (0, 0), BuildingBlock: ZUJKAS_clean_linker_0, # of connection points: 2
#     Edge 14, Type (0, 0), BuildingBlock: ZUJKAS_clean_linker_0, # of connection points: 2
#     Edge 15, Type (0, 0), BuildingBlock: ZUJKAS_clean_linker_0, # of connection points: 2
#     Edge 16, Type (0, 0), BuildingBlock: ZUJKAS_clean_linker_0, # of connection points: 2
#     Edge 17, Type (0, 0), BuildingBlock: ZUJKAS_clean_linker_0, # of connection points: 2
#     Edge 18, Type (0, 0), BuildingBlock: ZUJKAS_clean_linker_0, # of connection points: 2
#     Edge 19, Type (0, 0), BuildingBlock: ZUJKAS_clean_linker_0, # of connection points: 2
#     Edge 20, Type (0, 0), BuildingBlock: ZUJKAS_clean_linker_0, # of connection points: 2
#     Edge 21, Type (0, 0), BuildingBlock: ZUJKAS_clean_linker_0, # of connection points: 2
#     Edge 22, Type (0, 0), BuildingBlock: ZUJKAS_clean_linker_0, # of connection points: 2
#     Edge 23, Type (0, 0), BuildingBlock: ZUJKAS_clean_linker_0, # of connection points: 2
# Relax obj value: 0.033
# Max RMSD: 0.042
# Mean RMSD: 0.042
data_MOF--net-mok--node1-AZAVOO_clean_sbu_0--edge1-ZUJKAS_clean_linker_0
_symmetry_space_group_name_H-M    P1
_symmetry_Int_Tables_number       1
_symmetry_cell_setting            triclinic
loop_
_symmetry_equiv_pos_as_xyz
'x, y, z'
_cell_length_a     56.326653
_cell_length_b     27.635222
_cell_length_c     34.553729
_cell_angle_alpha  89.997976
_cell_angle_beta   89.993218
_cell_angle_gamma 89.993126
loop_
_atom_site_label
_atom_site_type_symbol
_atom_site_fract_x
_atom_site_fract_y
_atom_site_fract_z
_atom_type_partial_charge
Mg0 Mg 0.57046 0.33409 0.00262 0.0
O1 O 0.60952 0.30879 0.0036 0.0
O2 O 0.61486 0.27142 0.06034 0.0
Mg3 Mg 0.58032 0.27231 0.0948 0.0
C4 C 0.62268 0.286 0.02765 0.0
C5 C 0.55335 0.37061 0.92528 0.0
O6 O 0.53468 0.37331 0.94799 0.0
O7 O 0.55838 0.25682 0.99058 0.0
O8 O 0.56359 0.22291 0.04868 0.0
O9 O 0.58057 0.40318 0.03136 0.0
O10 O 0.56978 0.3371 0.06271 0.0
C11 C 0.55697 0.22052 0.01334 0.0
C12 C 0.57745 0.38096 0.06395 0.0
O13 O 0.57239 0.35252 0.93872 0.0
Mg14 Mg 0.42433 0.66601 -3e-05 0.0
O15 O 0.38539 0.69163 0.00069 0.0
O16 O 0.37964 0.72799 0.05772 0.0
Mg17 Mg 0.41418 0.72672 0.09234 0.0
C18 C 0.37204 0.71386 0.02478 0.0
C19 C 0.43658 0.61374 0.92733 0.0
O20 O 0.44958 0.59442 0.95489 0.0
O21 O 0.43681 0.74313 0.98863 0.0
O22 O 0.43114 0.77666 0.04676 0.0
O23 O 0.41336 0.59707 0.02797 0.0
O24 O 0.42497 0.66229 0.05994 0.0
C25 C 0.43805 0.77928 0.01157 0.0
C26 C 0.41677 0.61883 0.06066 0.0
O27 O 0.42271 0.64839 0.93596 0.0
Mg28 Mg 0.57649 0.66819 0.49096 0.0
O29 O 0.61554 0.69335 0.48942 0.0
O30 O 0.6198 0.73573 0.43461 0.0
Mg31 Mg 0.58511 0.73492 0.40061 0.0
C32 C 0.6281 0.71877 0.46622 0.0
C33 C 0.55964 0.64273 0.57236 0.0
O34 O 0.53982 0.65394 0.5544 0.0
O35 O 0.56449 0.74489 0.50581 0.0
O36 O 0.56862 0.78152 0.44855 0.0
O37 O 0.58619 0.60055 0.4596 0.0
O38 O 0.57519 0.66831 0.43089 0.0
C39 C 0.56254 0.78215 0.48418 0.0
C40 C 0.58274 0.6245 0.42789 0.0
O41 O 0.57919 0.64725 0.55434 0.0
Mg42 Mg 0.42654 0.32734 0.48372 0.0
O43 O 0.38812 0.29914 0.48394 0.0
O44 O 0.38294 0.25869 0.42855 0.0
Mg45 Mg 0.41764 0.25923 0.39436 0.0
C46 C 0.37511 0.27463 0.46082 0.0
C47 C 0.4345 0.39002 0.55238 0.0
O48 O 0.44477 0.41154 0.52288 0.0
O49 O 0.44007 0.2521 0.49901 0.0
O50 O 0.43495 0.21391 0.44263 0.0
O51 O 0.4144 0.39309 0.45252 0.0
O52 O 0.42735 0.32672 0.42352 0.0
C53 C 0.44178 0.21432 0.47792 0.0
C54 C 0.41825 0.36934 0.42088 0.0
O55 O 0.42415 0.34977 0.54671 0.0
Mg56 Mg 0.0704 0.82577 9e-05 0.0
O57 O 0.10922 0.79928 0.00034 0.0
O58 O 0.11498 0.76278 0.05733 0.0
Mg59 Mg 0.08055 0.76451 0.09218 0.0
C60 C 0.12255 0.77681 0.02433 0.0
C61 C 0.05781 0.87772 0.9274 0.0
O62 O 0.04492 0.89732 0.95496 0.0
O63 O 0.05749 0.74909 0.98883 0.0
O64 O 0.06334 0.71483 0.04664 0.0
O65 O 0.08195 0.89432 0.02784 0.0
O66 O 0.07009 0.82937 0.06 0.0
C67 C 0.05627 0.71272 0.01152 0.0
C68 C 0.07866 0.87255 0.06057 0.0
O69 O 0.07174 0.84319 0.93609 0.0
Mg70 Mg 0.92431 0.16151 0.00554 0.0
O71 O 0.88477 0.18407 0.00535 0.0
O72 O 0.87878 0.22277 0.06137 0.0
Mg73 Mg 0.91302 0.22518 0.0964 0.0
C74 C 0.87124 0.20677 0.02893 0.0
C75 C 0.94222 0.1179 0.93222 0.0
O76 O 0.95887 0.11101 0.9583 0.0
O77 O 0.93513 0.2391 0.99238 0.0
O78 O 0.92915 0.2746 0.04968 0.0
O79 O 0.91532 0.09244 0.03523 0.0
O80 O 0.92458 0.16021 0.06555 0.0
C81 C 0.93586 0.27622 0.01435 0.0
C82 C 0.91782 0.11577 0.06746 0.0
O83 O 0.9237 0.14122 0.94195 0.0
Mg84 Mg 0.07408 0.16121 0.48381 0.0
O85 O 0.11282 0.18786 0.48447 0.0
O86 O 0.11834 0.22855 0.42925 0.0
Mg87 Mg 0.08376 0.22954 0.3948 0.0
C88 C 0.12603 0.21211 0.46145 0.0
C89 C 0.06356 0.10028 0.55234 0.0
O90 O 0.05236 0.08081 0.52283 0.0
O91 O 0.06128 0.23681 0.49931 0.0
O92 O 0.06684 0.27528 0.44315 0.0
O93 O 0.08564 0.09513 0.45254 0.0
O94 O 0.0735 0.1623 0.42374 0.0
C95 C 0.05998 0.27483 0.47843 0.0
C96 C 0.08217 0.11932 0.42098 0.0
O97 O 0.07571 0.13838 0.5467 0.0
Mg98 Mg 0.93194 0.82663 0.49294 0.0
O99 O 0.89264 0.80294 0.49145 0.0
O100 O 0.88794 0.76205 0.43602 0.0
Mg101 Mg 0.92264 0.76154 0.40208 0.0
C102 C 0.8798 0.77867 0.46786 0.0
C103 C 0.9485 0.86779 0.56875 0.0
O104 O 0.96663 0.87255 0.54512 0.0
O105 O 0.94325 0.74948 0.50713 0.0
O106 O 0.93861 0.71358 0.44969 0.0
O107 O 0.92256 0.89492 0.46263 0.0
O108 O 0.93302 0.82744 0.43288 0.0
C109 C 0.94474 0.71234 0.4853 0.0
C110 C 0.92556 0.8714 0.4306 0.0
O111 O 0.92984 0.84707 0.55639 0.0
H112 H 0.83801 0.25451 0.07182 0.0
H113 H 0.79624 0.26671 0.05716 0.0
H114 H 0.80479 0.19114 0.94889 0.0
H115 H 0.84695 0.17801 0.96353 0.0
H116 H 0.77489 0.31373 0.99394 0.0
H117 H 0.74972 0.11906 0.00271 0.0
H118 H 0.77775 0.14124 0.02074 0.0
H119 H 0.77309 0.13496 0.96961 0.0
C120 C 0.83116 0.24036 0.04481 0.0
C121 C 0.84591 0.21493 0.01897 0.0
C122 C 0.80722 0.24758 0.03644 0.0
C123 C 0.79737 0.22953 0.00212 0.0
C124 C 0.812 0.20482 0.9758 0.0
H125 H 0.64723 0.31158 0.96176 0.0
H126 H 0.68929 0.29679 0.94757 0.0
C127 C 0.83609 0.19749 0.98418 0.0
C128 C 0.77161 0.23617 -0.00495 0.0
H129 H 0.71887 0.17532 -0.00451 0.0
C130 C 0.76261 0.28351 0.99357 0.0
C131 C 0.7557 0.19659 -0.0052 0.0
C132 C 0.7644 0.14502 -0.00272 0.0
C133 C 0.73807 0.29245 0.99376 0.0
C134 C 0.72215 0.2529 -0.00511 0.0
C135 C 0.73116 0.20552 -0.00554 0.0
C136 C 0.69638 0.25987 0.00158 0.0
C137 C 0.7294 0.34411 -0.00484 0.0
C138 C 0.68633 0.24304 0.03616 0.0
C139 C 0.66242 0.25119 0.04429 0.0
C140 C 0.64791 0.27635 0.01793 0.0
C141 C 0.6579 0.29236 0.98282 0.0
C142 C 0.68195 0.28409 0.97469 0.0
H143 H 0.74408 0.37016 0.00038 0.0
H144 H 0.72092 0.35343 0.96716 0.0
H145 H 0.71591 0.34863 0.01831 0.0
H146 H 0.69716 0.22429 0.05732 0.0
H147 H 0.65541 0.2381 0.07153 0.0
H148 H 0.14735 0.80767 0.96029 0.0
H149 H 0.1896 0.79526 0.94632 0.0
H150 H 0.19707 0.71398 0.05214 0.0
H151 H 0.15512 0.72554 0.06612 0.0
H152 H 0.22751 0.82538 0.99088 0.0
H153 H 0.22989 0.62659 0.97388 0.0
H154 H 0.20258 0.66081 0.972 0.0
H155 H 0.21535 0.64415 0.01789 0.0
C156 C 0.15792 0.78664 0.98035 0.0
C157 C 0.14777 0.76758 0.01433 0.0
C158 C 0.18206 0.77961 0.97231 0.0
C159 C 0.19638 0.75299 -0.00214 0.0
C160 C 0.18625 0.73363 0.03153 0.0
H161 H 0.33929 0.76426 0.06691 0.0
H162 H 0.29733 0.77572 0.05282 0.0
C163 C 0.16223 0.74067 0.03963 0.0
C164 C 0.22228 0.74815 0.99123 0.0
H165 H 0.26707 0.66494 0.99065 0.0
C166 C 0.23615 0.7903 0.99007 0.0
C167 C 0.23354 0.70243 0.98948 0.0
C168 C 0.21953 0.65595 0.98795 0.0
C169 C 0.26105 0.78789 0.98987 0.0
C170 C 0.2723 0.74215 0.99149 0.0
C171 C 0.25843 0.70001 0.98995 0.0
C172 C 0.29818 0.73726 -0.00171 0.0
C173 C 0.27506 0.83438 0.98875 0.0
C174 C 0.31258 0.71096 0.97265 0.0
C175 C 0.33671 0.70399 0.98074 0.0
C176 C 0.34678 0.7228 0.01488 0.0
C177 C 0.33223 0.74934 0.04031 0.0
C178 C 0.30822 0.75632 0.03215 0.0
H179 H 0.26475 0.8639 0.97479 0.0
H180 H 0.27915 0.84587 0.01879 0.0
H181 H 0.29205 0.82967 0.97289 0.0
H182 H 0.3051 0.69555 0.94652 0.0
H183 H 0.34735 0.68326 0.96057 0.0
H184 H 0.85171 0.70612 0.44089 0.0
H185 H 0.80896 0.69677 0.44922 0.0
H186 H 0.80732 0.82379 0.5217 0.0
H187 H 0.85048 0.83254 0.51449 0.0
H188 H 0.77686 0.75225 0.54774 0.0
H189 H 0.76397 0.78455 0.39096 0.0
H190 H 0.78331 0.73436 0.40031 0.0
H191 H 0.79206 0.7944 0.41468 0.0
C192 C 0.84232 0.73189 0.45888 0.0
C193 C 0.8544 0.77053 0.47655 0.0
C194 C 0.81787 0.72656 0.46352 0.0
C195 C 0.80487 0.76034 0.48518 0.0
C196 C 0.81701 0.79754 0.50458 0.0
H197 H 0.65451 0.79574 0.44306 0.0
H198 H 0.69684 0.8092 0.45306 0.0
C199 C 0.84163 0.80251 0.50042 0.0
C200 C 0.77857 0.75806 0.48566 0.0
H201 H 0.7305 0.75554 0.42574 0.0
C202 C 0.76664 0.75331 0.52115 0.0
C203 C 0.76526 0.76043 0.45098 0.0
C204 C 0.77678 0.76924 0.41213 0.0
C205 C 0.74174 0.74959 0.52276 0.0
C206 C 0.72856 0.7495 0.48785 0.0
C207 C 0.74055 0.75521 0.45252 0.0
C208 C 0.70232 0.74401 0.48668 0.0
C209 C 0.72985 0.74666 0.5618 0.0
C210 C 0.6911 0.70334 0.5029 0.0
C211 C 0.66669 0.69599 0.49776 0.0
C212 C 0.65327 0.72858 0.47547 0.0
C213 C 0.66443 0.76975 0.46006 0.0
C214 C 0.68864 0.77752 0.46582 0.0
H215 H 0.74122 0.76235 0.58489 0.0
H216 H 0.71254 0.76587 0.56178 0.0
H217 H 0.72665 0.70813 0.56913 0.0
H218 H 0.70133 0.6763 0.51826 0.0
H219 H 0.65857 0.66377 0.50972 0.0
H220 H 0.15068 0.17889 0.52487 0.0
H221 H 0.19288 0.19079 0.53938 0.0
H222 H 0.20065 0.27545 0.43532 0.0
H223 H 0.15874 0.26449 0.42085 0.0
H224 H 0.23083 0.16207 0.49517 0.0
H225 H 0.23334 0.36033 0.515 0.0
H226 H 0.20597 0.32629 0.5159 0.0
H227 H 0.219 0.3442 0.4705 0.0
C228 C 0.16131 0.20053 0.50531 0.0
C229 C 0.15125 0.22077 0.47169 0.0
C230 C 0.18541 0.20728 0.51367 0.0
C231 C 0.19979 0.23473 0.48879 0.0
C232 C 0.18976 0.25518 0.45545 0.0
H233 H 0.34241 0.22332 0.41929 0.0
H234 H 0.30056 0.21137 0.4339 0.0
C235 C 0.16578 0.24847 0.44706 0.0
C236 C 0.22567 0.23932 0.49568 0.0
H237 H 0.27049 0.32235 0.49713 0.0
C238 C 0.2395 0.19709 0.49638 0.0
C239 C 0.23696 0.28496 0.49803 0.0
C240 C 0.223 0.33148 0.50025 0.0
C241 C 0.26439 0.1994 0.49659 0.0
C242 C 0.27567 0.24512 0.49535 0.0
C243 C 0.26184 0.28729 0.49748 0.0
C244 C 0.30151 0.25007 0.48832 0.0
C245 C 0.27834 0.15282 0.4973 0.0
C246 C 0.31592 0.27673 0.5137 0.0
C247 C 0.33996 0.28407 0.50525 0.0
C248 C 0.34995 0.26522 0.47107 0.0
C249 C 0.33542 0.23824 0.44594 0.0
C250 C 0.31147 0.23097 0.45441 0.0
H251 H 0.2681 0.12335 0.51143 0.0
H252 H 0.28215 0.14138 0.46715 0.0
H253 H 0.29547 0.15733 0.51279 0.0
H254 H 0.30851 0.29218 0.53986 0.0
H255 H 0.3506 0.3051 0.52522 0.0
H256 H 0.56746 0.34765 0.1365 0.0
H257 H 0.57262 0.39045 0.19783 0.0
H258 H 0.60348 0.51154 0.1374 0.0
H259 H 0.59844 0.46898 0.0757 0.0
H260 H 0.62723 0.477 0.21225 0.0
H261 H 0.53034 0.51532 0.22097 0.0
H262 H 0.53868 0.45373 0.21089 0.0
H263 H 0.54496 0.50015 0.17604 0.0
C264 C 0.57565 0.38308 0.13622 0.0
C265 C 0.58246 0.40503 0.10123 0.0
C266 C 0.57851 0.40749 0.17128 0.0
C267 C 0.58826 0.45414 0.17193 0.0
C268 C 0.59591 0.4755 0.13732 0.0
H269 H 0.5731 0.66295 0.35684 0.0
H270 H 0.57715 0.62366 0.29389 0.0
C271 C 0.59295 0.4512 0.10216 0.0
C272 C 0.58915 0.48162 0.20851 0.0
H273 H 0.55364 0.53695 0.27505 0.0
C274 C 0.6112 0.49029 0.22604 0.0
C275 C 0.56819 0.49922 0.22597 0.0
C276 C 0.54416 0.49207 0.2075 0.0
C277 C 0.61276 0.51548 0.26127 0.0
C278 C 0.5917 0.532 0.27922 0.0
C279 C 0.56973 0.52405 0.26122 0.0
C280 C 0.59184 0.55732 0.31691 0.0
C281 C 0.63685 0.52463 0.27884 0.0
C282 C 0.59895 0.53309 0.35065 0.0
C283 C 0.59666 0.55546 0.38674 0.0
C284 C 0.58716 0.60238 0.38963 0.0
C285 C 0.58063 0.62695 0.35563 0.0
C286 C 0.58288 0.60454 0.31962 0.0
H287 H 0.65133 0.51989 0.25732 0.0
H288 H 0.6379 0.56176 0.29101 0.0
H289 H 0.63985 0.49859 0.30279 0.0
H290 H 0.60551 0.49628 0.34919 0.0
H291 H 0.60179 0.53554 0.41241 0.0
H292 H 0.43907 0.6331 0.12906 0.0
H293 H 0.43346 0.58826 0.18917 0.0
H294 H 0.37615 0.50782 0.13669 0.0
H295 H 0.38304 0.5503 0.07543 0.0
H296 H 0.40046 0.58028 0.23833 0.0
H297 H 0.41379 0.39796 0.17485 0.0
H298 H 0.41859 0.45248 0.14745 0.0
H299 H 0.38898 0.42926 0.15423 0.0
C300 C 0.42529 0.60579 0.1304 0.0
C301 C 0.41167 0.59462 0.09764 0.0
C302 C 0.42205 0.58021 0.16477 0.0
C303 C 0.40474 0.54372 0.16734 0.0
C304 C 0.39022 0.53441 0.1351 0.0
H305 H 0.38216 0.43126 0.40323 0.0
H306 H 0.37467 0.47062 0.34088 0.0
C307 C 0.39399 0.55899 0.10025 0.0
C308 C 0.40236 0.51554 0.20377 0.0
H309 H 0.40329 0.40105 0.24083 0.0
C310 C 0.40112 0.54105 0.23887 0.0
C311 C 0.40337 0.46432 0.20453 0.0
C312 C 0.4065 0.43441 0.1683 0.0
C313 C 0.40188 0.51713 0.27464 0.0
C314 C 0.40245 0.46587 0.27541 0.0
C315 C 0.40271 0.44028 0.24028 0.0
C316 C 0.40492 0.43816 0.31205 0.0
C317 C 0.40345 0.54742 0.31094 0.0
C318 C 0.42333 0.40415 0.31589 0.0
C319 C 0.42695 0.38014 0.35091 0.0
C320 C 0.41259 0.39057 0.38299 0.0
C321 C 0.3937 0.42329 0.37896 0.0
C322 C 0.38957 0.44611 0.34349 0.0
H323 H 0.40978 0.58469 0.30465 0.0
H324 H 0.38556 0.5505 0.32414 0.0
H325 H 0.41568 0.53092 0.33241 0.0
H326 H 0.43537 0.39712 0.2921 0.0
H327 H 0.44164 0.35501 0.35337 0.0
H328 H 0.4619 0.5357 0.90245 0.0
H329 H 0.46239 0.50025 0.83788 0.0
H330 H 0.41449 0.61116 0.79759 0.0
H331 H 0.41346 0.64643 0.86261 0.0
H332 H 0.40038 0.52164 0.77587 0.0
H333 H 0.49567 0.54518 0.74091 0.0
H334 H 0.49103 0.514 0.78576 0.0
H335 H 0.4817 0.57599 0.78096 0.0
C336 C 0.4516 0.55287 0.87983 0.0
C337 C 0.43763 0.59394 0.88764 0.0
C338 C 0.45205 0.53271 0.84283 0.0
C339 C 0.4388 0.55353 0.81279 0.0
C340 C 0.42496 0.59472 0.82038 0.0
H341 H 0.45127 0.4795 0.57059 0.0
H342 H 0.45164 0.5187 0.63377 0.0
C343 C 0.42439 0.61483 0.85749 0.0
C344 C 0.43835 0.53065 0.77406 0.0
H345 H 0.47376 0.49218 0.70007 0.0
C346 C 0.4164 0.51549 0.75914 0.0
C347 C 0.45926 0.523 0.7522 0.0
C348 C 0.48321 0.54084 0.76559 0.0
C349 C 0.41479 0.49228 0.72315 0.0
C350 C 0.4358 0.48301 0.70199 0.0
C351 C 0.45772 0.49878 0.71663 0.0
C352 C 0.43538 0.45858 0.66388 0.0
C353 C 0.39059 0.47873 0.70785 0.0
C354 C 0.42632 0.41149 0.65993 0.0
C355 C 0.42592 0.389 0.62368 0.0
C356 C 0.43485 0.41308 0.59094 0.0
C357 C 0.44423 0.45993 0.5952 0.0
C358 C 0.44449 0.48243 0.63131 0.0
H359 H 0.37626 0.49959 0.72234 0.0
H360 H 0.38943 0.48505 0.67617 0.0
H361 H 0.38736 0.43974 0.71339 0.0
H362 H 0.4197 0.39204 0.68491 0.0
H363 H 0.41875 0.35275 0.62135 0.0
H364 H 0.51557 0.41329 0.88948 0.0
H365 H 0.51553 0.45795 0.8285 0.0
H366 H 0.58989 0.42601 0.81312 0.0
H367 H 0.59005 0.38065 0.87389 0.0
H368 H 0.54276 0.53913 0.81246 0.0
H369 H 0.56175 0.39213 0.70763 0.0
H370 H 0.55197 0.38043 0.7565 0.0
H371 H 0.58253 0.39501 0.74696 0.0
C372 C 0.53186 0.41512 0.87288 0.0
C373 C 0.55283 0.39339 0.88655 0.0
C374 C 0.53179 0.44077 0.83807 0.0
C375 C 0.55264 0.44494 0.81615 0.0
C376 C 0.57349 0.42246 0.82926 0.0
H377 H 0.59662 0.60419 0.61347 0.0
H378 H 0.59445 0.55866 0.67411 0.0
C379 C 0.57358 0.39671 0.86407 0.0
C380 C 0.55294 0.47523 0.78083 0.0
H381 H 0.56509 0.47287 0.68409 0.0
C382 C 0.5475 0.52464 0.78432 0.0
C383 C 0.55906 0.45612 0.74421 0.0
C384 C 0.56395 0.40293 0.7384 0.0
C385 C 0.54861 0.55574 0.75228 0.0
C386 C 0.5551 0.53673 0.71584 0.0
C387 C 0.56029 0.48728 0.71223 0.0
C388 C 0.55652 0.56744 0.6809 0.0
C389 C 0.54337 0.60885 0.75771 0.0
C390 C 0.53591 0.5877 0.66494 0.0
C391 C 0.53707 0.61369 0.63031 0.0
C392 C 0.55886 0.6197 0.61099 0.0
C393 C 0.57957 0.60035 0.62765 0.0
C394 C 0.57837 0.57422 0.66221 0.0
H395 H 0.54307 0.61925 0.78876 0.0
H396 H 0.55681 0.63128 0.74249 0.0
H397 H 0.52575 0.61732 0.74508 0.0
H398 H 0.51883 0.58225 0.6787 0.0
H399 H 0.52078 0.62801 0.61821 0.0
H400 H 0.05681 0.85956 0.1295 0.0
H401 H 0.0638 0.9037 0.18955 0.0
H402 H 0.12185 0.98041 0.13562 0.0
H403 H 0.1136 0.93874 0.07447 0.0
H404 H 0.09754 0.90912 0.23769 0.0
H405 H 0.08641 0.09259 0.17507 0.0
H406 H 0.08044 0.03855 0.14768 0.0
H407 H 0.11049 0.05965 0.15376 0.0
C408 C 0.07104 0.88592 0.13052 0.0
C409 C 0.08448 0.89632 0.0974 0.0
C410 C 0.07508 0.91108 0.16484 0.0
C411 C 0.09302 0.94633 0.167 0.0
C412 C 0.10734 0.95482 0.13437 0.0
H413 H 0.11777 0.05629 0.40318 0.0
H414 H 0.12502 0.01718 0.34063 0.0
C415 C 0.10278 0.9307 0.09958 0.0
C416 C 0.09624 0.97414 0.2034 0.0
H417 H 0.09712 0.08842 0.24085 0.0
C418 C 0.09742 0.94837 0.23838 0.0
C419 C 0.09597 0.0254 0.20434 0.0
C420 C 0.09303 0.05567 0.16826 0.0
C421 C 0.0972 0.9721 0.27424 0.0
C422 C 0.09727 0.02337 0.27518 0.0
C423 C 0.09719 0.04917 0.24015 0.0
C424 C 0.09509 0.05097 0.3119 0.0
C425 C 0.09546 0.9417 0.31046 0.0
C426 C 0.07697 0.08561 0.31585 0.0
C427 C 0.07351 0.10944 0.35097 0.0
C428 C 0.08772 0.0982 0.38304 0.0
C429 C 0.10635 0.06487 0.37891 0.0
C430 C 0.11033 0.04221 0.34333 0.0
H431 H 0.08879 0.9047 0.30413 0.0
H432 H 0.11334 0.93794 0.32355 0.0
H433 H 0.08342 0.95856 0.33205 0.0
H434 H 0.06501 0.09324 0.29207 0.0
H435 H 0.05903 0.13506 0.35352 0.0
H436 H 0.93545 0.83565 0.35872 0.0
H437 H 0.92979 0.8762 0.29646 0.0
H438 H 0.8987 -0.00119 0.3546 0.0
H439 H 0.90424 0.95857 0.41712 0.0
H440 H 0.87478 0.96135 0.28083 0.0
H441 H 0.97153 0.001 0.27052 0.0
H442 H 0.96326 0.93965 0.28167 0.0
H443 H 0.95717 0.98689 0.31588 0.0
C444 C 0.92712 0.87095 0.35828 0.0
C445 C 0.92039 0.89404 0.39283 0.0
C446 C 0.92395 0.89404 0.32271 0.0
C447 C 0.91398 0.94046 0.32117 0.0
C448 C 0.90643 0.96292 0.35538 0.0
H449 H 0.92608 0.15261 0.13946 0.0
H450 H 0.92244 0.11077 0.20143 0.0
C451 C 0.90969 0.93996 0.39101 0.0
C452 C 0.91284 0.96685 0.28412 0.0
H453 H 0.94774 0.02334 0.21735 0.0
C454 C 0.89067 0.97495 0.26682 0.0
C455 C 0.93365 0.98479 0.26638 0.0
C456 C 0.95779 0.97808 0.28454 0.0
C457 C 0.88882 0.00027 0.2317 0.0
C458 C 0.90968 0.01761 0.21371 0.0
C459 C 0.9318 0.00984 0.23129 0.0
C460 C 0.90918 0.0442 0.17664 0.0
C461 C 0.86462 0.00893 0.21434 0.0
C462 C 0.90269 0.02063 0.1423 0.0
C463 C 0.90476 0.04444 0.10677 0.0
C464 C 0.9134 0.09214 0.10511 0.0
C465 C 0.91922 0.11602 0.13974 0.0
C466 C 0.91721 0.09217 0.17517 0.0
H467 H 0.85016 0.0021 0.23552 0.0
H468 H 0.86309 0.04665 0.20355 0.0
H469 H 0.86207 0.98421 0.18937 0.0
H470 H 0.8968 0.98332 0.14285 0.0
H471 H 0.90018 0.02505 0.08057 0.0
H472 H 0.91326 0.86998 0.62336 0.0
H473 H 0.9137 0.9129 0.68535 0.0
H474 H 0.98571 0.95876 0.66406 0.0
H475 H 0.98542 0.91643 0.602 0.0
H476 H 0.94537 0.90333 0.74994 0.0
H477 H 0.94896 0.08626 0.68311 0.0
H478 H 0.94114 0.03277 0.65594 0.0
H479 H 0.97166 0.04482 0.66764 0.0
C480 C 0.92924 0.88896 0.63195 0.0
C481 C 0.94923 0.89014 0.60761 0.0
C482 C 0.92945 0.91344 0.66734 0.0
C483 C 0.94958 0.93963 0.67884 0.0
C484 C 0.96984 0.9395 0.65529 0.0
H485 H 0.97861 0.06213 0.90535 0.0
H486 H 0.98105 0.01972 0.84348 0.0
C487 C 0.96966 0.91506 0.61993 0.0
C488 C 0.94925 0.96756 0.7153 0.0
H489 H 0.9519 0.08245 0.75142 0.0
C490 C 0.94674 0.94248 0.75033 0.0
C491 C 0.95106 0.01862 0.71553 0.0
C492 C 0.95317 0.04739 0.67856 0.0
C493 C 0.9462 0.96717 0.78577 0.0
C494 C 0.94814 0.01818 0.78601 0.0
C495 C 0.95049 0.04331 0.75099 0.0
C496 C 0.94728 0.04606 0.82243 0.0
C497 C 0.94339 0.93864 0.82271 0.0
C498 C 0.92777 0.07596 0.83049 0.0
C499 C 0.92627 0.10031 0.86588 0.0
C500 C 0.94438 0.09532 0.89359 0.0
C501 C 0.96428 0.06656 0.88475 0.0
C502 C 0.96571 0.04214 0.84947 0.0
H503 H 0.93754 0.90088 0.81711 0.0
H504 H 0.9607 0.93729 0.838 0.0
H505 H 0.93033 0.95631 0.84222 0.0
H506 H 0.91344 0.07952 0.80977 0.0
H507 H 0.91077 0.12229 0.87177 0.0
H508 H 0.03306 0.9565 0.90241 0.0
H509 H 0.03256 0.9913 0.8376 0.0
H510 H 0.07891 0.87764 0.79729 0.0
H511 H 0.08 0.84313 0.86251 0.0
H512 H 0.09427 0.96396 0.77451 0.0
H513 H 0.99879 0.94809 0.74115 0.0
H514 H 0.00323 0.98325 0.78413 0.0
H515 H 0.01167 0.92033 0.78339 0.0
C516 C 0.04302 0.93861 0.87972 0.0
C517 C 0.05661 0.89706 0.88759 0.0
C518 C 0.04256 0.95841 0.84259 0.0
C519 C 0.0554 0.93667 0.81248 0.0
C520 C 0.06878 0.89485 0.82012 0.0
H521 H 0.04293 0.01414 0.57056 0.0
H522 H 0.04126 0.97478 0.63365 0.0
C523 C 0.06939 0.87518 0.85736 0.0
C524 C 0.05609 0.95934 0.77366 0.0
H525 H 0.02112 0.0023 0.7007 0.0
C526 C 0.07829 0.97195 0.7582 0.0
C527 C 0.03523 0.96937 0.75228 0.0
C528 C 0.01093 0.95407 0.766 0.0
C529 C 0.08021 0.99495 0.72218 0.0
C530 C 0.05931 0.00692 0.70162 0.0
C531 C 0.03712 0.99367 0.71678 0.0
C532 C 0.06011 0.03174 0.66369 0.0
C533 C 0.10464 0.00533 0.70624 0.0
C534 C 0.07095 0.07724 0.65977 0.0
C535 C 0.07214 0.09974 0.62359 0.0
C536 C 0.06219 0.07734 0.59088 0.0
C537 C 0.05085 0.03232 0.59515 0.0
C538 C 0.04983 0.00976 0.63121 0.0
H539 H 0.11838 0.98213 0.71998 0.0
H540 H 0.10524 -0.00043 0.67445 0.0
H541 H 0.10931 0.04361 0.71224 0.0
H542 H 0.07847 0.09538 0.6847 0.0
H543 H 0.08077 0.13464 0.62127 0.0
H544 H 0.45985 0.79826 0.94183 0.0
H545 H 0.47962 0.87355 0.92227 0.0
H546 H 0.45987 0.93919 0.03081 0.0
H547 H 0.43996 0.86507 0.05035 0.0
H548 H 0.45369 0.00018 0.9655 0.0
H549 H 0.54348 0.91545 0.97114 0.0
H550 H 0.52148 0.8881 0.94038 0.0
H551 H 0.51777 0.88647 0.99193 0.0
C552 C 0.45953 0.8289 0.96136 0.0
C553 C 0.44852 0.8254 -0.00214 0.0
C554 C 0.4709 0.87178 0.95017 0.0
C555 C 0.47141 0.91167 0.9753 0.0
C556 C 0.45969 0.90879 0.011 0.0
H557 H 0.55485 0.1345 0.05173 0.0
H558 H 0.5351 0.06047 0.03157 0.0
C559 C 0.4484 0.86619 0.02219 0.0
C560 C 0.4851 0.95592 0.96618 0.0
H561 H 0.54173 -0.00021 0.96636 0.0
C562 C 0.47294 0.00021 0.9647 0.0
C563 C 0.5102 0.95558 0.96529 0.0
C564 C 0.52415 0.90901 0.96744 0.0
C565 C 0.48522 0.04439 0.96508 0.0
C566 C 0.51032 0.04405 0.96646 0.0
C567 C 0.52249 -0.00024 0.96518 0.0
C568 C 0.52394 0.08828 0.97595 0.0
C569 C 0.47126 0.09095 0.96701 0.0
C570 C 0.52461 0.12831 0.95097 0.0
C571 C 0.53588 0.17115 0.96252 0.0
C572 C 0.54663 0.17446 -0.00077 0.0
C573 C 0.54661 0.13352 0.02342 0.0
C574 C 0.53542 0.09098 0.01187 0.0
H575 H 0.4519 0.08451 0.97033 0.0
H576 H 0.47746 0.11347 0.99164 0.0
H577 H 0.47412 0.1119 0.94002 0.0
H578 H 0.51609 0.12668 0.9229 0.0
H579 H 0.53568 0.2019 0.9431 0.0
H580 H 0.5409 0.79684 0.55481 0.0
H581 H 0.52098 0.87085 0.57714 0.0
H582 H 0.54084 0.9429 0.47126 0.0
H583 H 0.56092 0.87025 0.44912 0.0
H584 H 0.54605 0.00084 0.53795 0.0
H585 H 0.45709 0.91281 0.52924 0.0
H586 H 0.47931 0.88578 0.55977 0.0
H587 H 0.4831 0.88528 0.50821 0.0
C588 C 0.54125 0.82867 0.53653 0.0
C589 C 0.55226 0.8274 0.49994 0.0
C590 C 0.52979 0.87081 0.54929 0.0
C591 C 0.52923 0.9121 0.52563 0.0
C592 C 0.54108 0.91142 0.48998 0.0
H593 H 0.44614 0.12674 0.44242 0.0
H594 H 0.46608 0.05477 0.46635 0.0
C595 C 0.55244 0.86964 0.47726 0.0
C596 C 0.51507 0.95542 0.53575 0.0
H597 H 0.4581 -0.00282 0.53264 0.0
C598 C 0.5268 0.00016 0.53794 0.0
C599 C 0.48997 0.95415 0.53567 0.0
C600 C 0.47648 0.90709 0.53295 0.0
C601 C 0.51414 0.04388 0.53663 0.0
C602 C 0.48911 0.04258 0.53365 0.0
C603 C 0.47731 -0.00212 0.53492 0.0
C604 C 0.4754 0.0858 0.52179 0.0
C605 C 0.52772 0.09092 0.53505 0.0
C606 C 0.47369 0.12704 0.54533 0.0
C607 C 0.46233 0.16876 0.53156 0.0
C608 C 0.4525 0.16969 0.49408 0.0
C609 C 0.45362 0.1276 0.47128 0.0
C610 C 0.46492 0.08622 0.485 0.0
H611 H 0.54722 0.08516 0.53356 0.0
H612 H 0.52216 0.11244 0.50947 0.0
H613 H 0.52377 0.11254 0.56133 0.0
H614 H 0.48142 0.12719 0.57402 0.0
H615 H 0.46165 0.20044 0.54997 0.0
H616 H 0.05618 0.62527 0.04801 0.0
H617 H 0.0363 0.55134 0.02793 0.0
H618 H 0.0124 0.62136 0.92342 0.0
H619 H 0.03221 0.69632 0.94351 0.0
H620 H 0.9763 0.57587 0.96357 0.0
H621 H 0.05182 0.45064 0.94577 0.0
H622 H 0.05364 0.48211 0.99105 0.0
H623 H 0.05548 0.5156 0.94641 0.0
C624 C 0.04696 0.62501 0.0205 0.0
C625 C 0.04574 0.66686 -0.00256 0.0
C626 C 0.03579 0.58246 0.00888 0.0
C627 C 0.02324 0.5806 0.97387 0.0
C628 C 0.02224 0.62196 0.95036 0.0
H629 H 0.9593 0.29222 0.94572 0.0
H630 H 0.97835 0.36749 0.92448 0.0
C631 C 0.03356 0.6647 0.9619 0.0
C632 C 0.00939 0.53669 0.96434 0.0
H633 H 0.01409 0.4137 0.96369 0.0
C634 C 0.98457 0.54043 0.96254 0.0
C635 C 0.02017 0.49056 0.96216 0.0
C636 C 0.04677 0.48452 0.96101 0.0
C637 C 0.9702 0.49898 0.96231 0.0
C638 C 0.98099 0.45285 0.96454 0.0
C639 C 0.00581 0.44911 0.96259 0.0
C640 C 0.96721 0.40894 0.97439 0.0
C641 C 0.9436 0.50503 0.96128 0.0
C642 C 0.95465 0.40739 0.00942 0.0
C643 C 0.94389 0.36467 0.02168 0.0
C644 C 0.94556 0.32233 -0.00072 0.0
C645 C 0.95762 0.32421 0.96362 0.0
C646 C 0.96851 0.36714 0.95142 0.0
H647 H 0.93854 0.53866 0.9457 0.0
H648 H 0.93483 0.47372 0.94709 0.0
H649 H 0.93681 0.50801 0.99134 0.0
H650 H 0.95392 0.43885 0.0281 0.0
H651 H 0.93474 0.36464 0.04926 0.0
H652 H 0.03992 0.28857 0.55034 0.0
H653 H 0.02092 0.36242 0.57486 0.0
H654 H 0.03777 0.43574 0.46816 0.0
H655 H 0.05692 0.36314 0.44375 0.0
H656 H 0.04606 0.49171 0.53567 0.0
H657 H 0.95588 0.40832 0.53318 0.0
H658 H 0.97881 0.37922 0.56098 0.0
H659 H 0.98079 0.38032 0.50917 0.0
C660 C 0.03973 0.32057 0.53225 0.0
C661 C 0.04974 0.31973 0.49488 0.0
C662 C 0.02883 0.36263 0.54629 0.0
C663 C 0.02777 0.4043 0.52315 0.0
C664 C 0.03843 0.40395 0.4865 0.0
H665 H 0.94623 0.62481 0.44924 0.0
H666 H 0.96517 0.55097 0.47155 0.0
C667 C 0.04928 0.36221 0.4725 0.0
C668 C 0.01449 0.44795 0.5352 0.0
H669 H 0.95804 0.49254 0.53786 0.0
C670 C 0.02683 0.49198 0.53731 0.0
C671 C 0.98942 0.44789 0.53735 0.0
C672 C 0.9753 0.40158 0.53493 0.0
C673 C 0.01471 0.53633 0.538 0.0
C674 C 0.9896 0.53634 0.53711 0.0
C675 C 0.9773 0.49222 0.53856 0.0
C676 C 0.97616 0.58046 0.52672 0.0
C677 C 0.02881 0.58271 0.53618 0.0
C678 C 0.97565 0.62141 0.55074 0.0
C679 C 0.96486 0.6642 0.53789 0.0
C680 C 0.95446 0.66649 0.50087 0.0
C681 C 0.95424 0.62464 0.47774 0.0
C682 C 0.96495 0.58218 0.49055 0.0
H683 H 0.04818 0.57605 0.53333 0.0
H684 H 0.02288 0.60507 0.51129 0.0
H685 H 0.02577 0.60393 0.56299 0.0
H686 H 0.98398 0.62056 0.57897 0.0
H687 H 0.96521 0.69571 0.55652 0.0
loop_
_geom_bond_atom_site_label_1
_geom_bond_atom_site_label_2
_geom_bond_distance
_geom_bond_site_symmetry_2
_ccdc_geom_bond_type
Mg0 O1 2.028 1_554 S
Mg0 O7 1.986 1_554 S
Mg0 O9 2.114 . S
Mg0 O10 2.251 . S
Mg0 O13 2.010 1_554 S
O1 Mg0 2.028 1_556 S
O1 C4 1.250 1_556 S
O2 Mg3 2.028 . S
O2 C4 1.248 . S
Mg3 O2 2.028 . S
Mg3 O8 2.032 . S
Mg3 O10 2.079 . S
C4 O1 1.250 1_554 S
C4 O2 1.248 . S
C5 O6 1.264 . S
C5 O13 1.249 . S
O6 C5 1.264 . S
O7 Mg0 1.986 1_556 S
O7 C11 1.246 1_556 S
O8 Mg3 2.032 . S
O8 C11 1.259 . S
O9 Mg0 2.114 . S
O9 C12 1.252 . S
O10 Mg0 2.251 . S
O10 Mg3 2.079 . S
O10 C12 1.273 . S
C11 O7 1.246 1_554 S
C11 O8 1.259 . S
C12 O9 1.252 . S
C12 O10 1.273 . S
O13 Mg0 2.010 1_556 S
O13 C5 1.249 . S
Mg14 O15 2.028 1_554 S
Mg14 O21 1.986 1_554 S
Mg14 O23 2.114 . S
Mg14 O24 2.251 . S
Mg14 O27 2.010 1_554 S
O15 Mg14 2.028 1_556 S
O15 C18 1.250 1_556 S
O16 Mg17 2.028 . S
O16 C18 1.248 . S
Mg17 O16 2.028 . S
Mg17 O22 2.032 . S
Mg17 O24 2.079 . S
C18 O15 1.250 1_554 S
C18 O16 1.248 . S
C19 O20 1.264 . S
C19 O27 1.249 . S
O20 C19 1.264 . S
O21 Mg14 1.986 1_556 S
O21 C25 1.246 1_556 S
O22 Mg17 2.032 . S
O22 C25 1.259 . S
O23 Mg14 2.114 . S
O23 C26 1.252 . S
O24 Mg14 2.251 . S
O24 Mg17 2.079 . S
O24 C26 1.273 . S
C25 O21 1.246 1_554 S
C25 O22 1.259 . S
C26 O23 1.252 . S
C26 O24 1.273 . S
O27 Mg14 2.010 1_556 S
O27 C19 1.249 . S
Mg28 O29 2.028 . S
Mg28 O35 1.986 . S
Mg28 O37 2.114 . S
Mg28 O38 2.251 . S
Mg28 O41 2.010 . S
O29 Mg28 2.028 . S
O29 C32 1.250 . S
O30 Mg31 2.028 . S
O30 C32 1.248 . S
Mg31 O30 2.028 . S
Mg31 O36 2.032 . S
Mg31 O38 2.079 . S
C32 O29 1.250 . S
C32 O30 1.248 . S
C33 O34 1.264 . S
C33 O41 1.249 . S
O34 C33 1.264 . S
O35 Mg28 1.986 . S
O35 C39 1.246 . S
O36 Mg31 2.032 . S
O36 C39 1.259 . S
O37 Mg28 2.114 . S
O37 C40 1.252 . S
O38 Mg28 2.251 . S
O38 Mg31 2.079 . S
O38 C40 1.273 . S
C39 O35 1.246 . S
C39 O36 1.259 . S
C40 O37 1.252 . S
C40 O38 1.273 . S
O41 Mg28 2.010 . S
O41 C33 1.249 . S
Mg42 O43 2.028 . S
Mg42 O49 1.986 . S
Mg42 O51 2.114 . S
Mg42 O52 2.251 . S
Mg42 O55 2.010 . S
O43 Mg42 2.028 . S
O43 C46 1.250 . S
O44 Mg45 2.028 . S
O44 C46 1.248 . S
Mg45 O44 2.028 . S
Mg45 O50 2.032 . S
Mg45 O52 2.079 . S
C46 O43 1.250 . S
C46 O44 1.248 . S
C47 O48 1.264 . S
C47 O55 1.249 . S
O48 C47 1.264 . S
O49 Mg42 1.986 . S
O49 C53 1.246 . S
O50 Mg45 2.032 . S
O50 C53 1.259 . S
O51 Mg42 2.114 . S
O51 C54 1.252 . S
O52 Mg42 2.251 . S
O52 Mg45 2.079 . S
O52 C54 1.273 . S
C53 O49 1.246 . S
C53 O50 1.259 . S
C54 O51 1.252 . S
C54 O52 1.273 . S
O55 Mg42 2.010 . S
O55 C47 1.249 . S
Mg56 O57 2.028 1_554 S
Mg56 O63 1.986 1_554 S
Mg56 O65 2.114 . S
Mg56 O66 2.251 . S
Mg56 O69 2.010 1_554 S
O57 Mg56 2.028 1_556 S
O57 C60 1.250 1_556 S
O58 Mg59 2.028 . S
O58 C60 1.248 . S
Mg59 O58 2.028 . S
Mg59 O64 2.032 . S
Mg59 O66 2.079 . S
C60 O57 1.250 1_554 S
C60 O58 1.248 . S
C61 O62 1.264 . S
C61 O69 1.249 . S
O62 C61 1.264 . S
O63 Mg56 1.986 1_556 S
O63 C67 1.246 1_556 S
O64 Mg59 2.032 . S
O64 C67 1.259 . S
O65 Mg56 2.114 . S
O65 C68 1.252 . S
O66 Mg56 2.251 . S
O66 Mg59 2.079 . S
O66 C68 1.273 . S
C67 O63 1.246 1_554 S
C67 O64 1.259 . S
C68 O65 1.252 . S
C68 O66 1.273 . S
O69 Mg56 2.010 1_556 S
O69 C61 1.249 . S
Mg70 O71 2.028 1_554 S
Mg70 O77 1.986 1_554 S
Mg70 O79 2.114 . S
Mg70 O80 2.251 . S
Mg70 O83 2.010 1_554 S
O71 Mg70 2.028 1_556 S
O71 C74 1.250 1_556 S
O72 Mg73 2.028 . S
O72 C74 1.248 . S
Mg73 O72 2.028 . S
Mg73 O78 2.032 . S
Mg73 O80 2.079 . S
C74 O71 1.250 1_554 S
C74 O72 1.248 . S
C75 O76 1.264 . S
C75 O83 1.249 . S
O76 C75 1.264 . S
O77 Mg70 1.986 1_556 S
O77 C81 1.246 1_556 S
O78 Mg73 2.032 . S
O78 C81 1.259 . S
O79 Mg70 2.114 . S
O79 C82 1.252 . S
O80 Mg70 2.251 . S
O80 Mg73 2.079 . S
O80 C82 1.273 . S
C81 O77 1.246 1_554 S
C81 O78 1.259 . S
C82 O79 1.252 . S
C82 O80 1.273 . S
O83 Mg70 2.010 1_556 S
O83 C75 1.249 . S
Mg84 O85 2.028 . S
Mg84 O91 1.986 . S
Mg84 O93 2.114 . S
Mg84 O94 2.251 . S
Mg84 O97 2.010 . S
O85 Mg84 2.028 . S
O85 C88 1.250 . S
O86 Mg87 2.028 . S
O86 C88 1.248 . S
Mg87 O86 2.028 . S
Mg87 O92 2.032 . S
Mg87 O94 2.079 . S
C88 O85 1.250 . S
C88 O86 1.248 . S
C89 O90 1.264 . S
C89 O97 1.249 . S
O90 C89 1.264 . S
O91 Mg84 1.986 . S
O91 C95 1.246 . S
O92 Mg87 2.032 . S
O92 C95 1.259 . S
O93 Mg84 2.114 . S
O93 C96 1.252 . S
O94 Mg84 2.251 . S
O94 Mg87 2.079 . S
O94 C96 1.273 . S
C95 O91 1.246 . S
C95 O92 1.259 . S
C96 O93 1.252 . S
C96 O94 1.273 . S
O97 Mg84 2.010 . S
O97 C89 1.249 . S
Mg98 O99 2.028 . S
Mg98 O105 1.986 . S
Mg98 O107 2.114 . S
Mg98 O108 2.251 . S
Mg98 O111 2.010 . S
O99 Mg98 2.028 . S
O99 C102 1.250 . S
O100 Mg101 2.028 . S
O100 C102 1.248 . S
Mg101 O100 2.028 . S
Mg101 O106 2.032 . S
Mg101 O108 2.079 . S
C102 O99 1.250 . S
C102 O100 1.248 . S
C103 O104 1.264 . S
C103 O111 1.249 . S
O104 C103 1.264 . S
O105 Mg98 1.986 . S
O105 C109 1.246 . S
O106 Mg101 2.032 . S
O106 C109 1.259 . S
O107 Mg98 2.114 . S
O107 C110 1.252 . S
O108 Mg98 2.251 . S
O108 Mg101 2.079 . S
O108 C110 1.273 . S
C109 O105 1.246 . S
C109 O106 1.259 . S
C110 O107 1.252 . S
C110 O108 1.273 . S
O111 Mg98 2.010 . S
O111 C103 1.249 . S
H112 C120 0.929 . S
H113 C122 0.930 . S
H114 C124 0.930 . S
H115 C127 0.929 . S
H116 C130 0.930 . S
H117 C132 0.960 . S
H118 C132 0.960 . S
H119 C132 0.960 . S
C120 H112 0.929 . S
C120 C121 1.377 . S
C120 C122 1.384 . S
C121 C120 1.377 . S
C121 C127 1.390 1_554 S
C122 H113 0.930 . S
C122 C120 1.384 . S
C122 C123 1.372 . S
C123 C122 1.372 . S
C123 C124 1.400 1_554 S
C123 C128 1.490 . S
C124 H114 0.930 . S
C124 C123 1.400 1_556 S
C124 C127 1.386 . S
H125 C141 0.930 . S
H126 C142 0.931 . S
C127 H115 0.929 . S
C127 C121 1.390 1_556 S
C127 C124 1.386 . S
C128 C123 1.490 . S
C128 C130 1.395 . S
C128 C131 1.403 1_554 S
H129 C135 0.930 . S
C130 H116 0.930 . S
C130 C128 1.395 . S
C130 C133 1.403 . S
C131 C128 1.403 1_556 S
C131 C132 1.524 . S
C131 C135 1.400 . S
C132 H117 0.960 . S
C132 H118 0.960 . S
C132 H119 0.960 . S
C132 C131 1.524 . S
C133 C130 1.403 . S
C133 C134 1.392 . S
C133 C137 1.495 . S
C134 C133 1.392 . S
C134 C135 1.385 1_554 S
C134 C136 1.478 . S
C135 H129 0.930 . S
C135 C131 1.400 . S
C135 C134 1.385 1_556 S
C136 C134 1.478 . S
C136 C138 1.381 . S
C136 C142 1.383 1_554 S
C137 C133 1.495 . S
C137 H143 0.959 . S
C137 H144 0.961 . S
C137 H145 0.960 . S
C138 C136 1.381 . S
C138 C139 1.394 . S
C138 H146 0.930 . S
C139 C138 1.394 . S
C139 C140 1.383 . S
C139 H147 0.929 . S
C140 C139 1.383 . S
C140 C141 1.377 1_554 S
C141 H125 0.930 . S
C141 C140 1.377 1_556 S
C141 C142 1.379 . S
C142 H126 0.931 . S
C142 C136 1.383 1_556 S
C142 C141 1.379 . S
H143 C137 0.959 . S
H144 C137 0.961 . S
H145 C137 0.960 . S
H146 C138 0.930 . S
H147 C139 0.929 . S
H148 C156 0.929 . S
H149 C158 0.930 . S
H150 C160 0.930 . S
H151 C163 0.929 . S
H152 C166 0.930 . S
H153 C168 0.960 . S
H154 C168 0.960 . S
H155 C168 0.960 . S
C156 H148 0.929 . S
C156 C157 1.377 1_556 S
C156 C158 1.384 . S
C157 C156 1.377 1_554 S
C157 C163 1.390 . S
C158 H149 0.930 . S
C158 C156 1.384 . S
C158 C159 1.372 1_556 S
C159 C158 1.372 1_554 S
C159 C160 1.400 . S
C159 C164 1.490 . S
C160 H150 0.930 . S
C160 C159 1.400 . S
C160 C163 1.386 . S
H161 C177 0.930 . S
H162 C178 0.931 . S
C163 H151 0.929 . S
C163 C157 1.390 . S
C163 C160 1.386 . S
C164 C159 1.490 . S
C164 C166 1.395 1_554 S
C164 C167 1.403 . S
H165 C171 0.930 . S
C166 H152 0.930 . S
C166 C164 1.395 1_556 S
C166 C169 1.403 . S
C167 C164 1.403 . S
C167 C168 1.524 . S
C167 C171 1.400 . S
C168 H153 0.960 . S
C168 H154 0.960 . S
C168 H155 0.960 . S
C168 C167 1.524 . S
C169 C166 1.403 . S
C169 C170 1.392 1_556 S
C169 C173 1.495 . S
C170 C169 1.392 1_554 S
C170 C171 1.385 . S
C170 C172 1.478 . S
C171 H165 0.930 . S
C171 C167 1.400 . S
C171 C170 1.385 . S
C172 C170 1.478 . S
C172 C174 1.381 1_554 S
C172 C178 1.383 . S
C173 C169 1.495 . S
C173 H179 0.959 . S
C173 H180 0.964 1_556 S
C173 H181 0.960 . S
C174 C172 1.381 1_556 S
C174 C175 1.394 . S
C174 H182 0.930 . S
C175 C174 1.394 . S
C175 C176 1.383 1_556 S
C175 H183 0.929 . S
C176 C175 1.383 1_554 S
C176 C177 1.377 . S
C177 H161 0.930 . S
C177 C176 1.377 . S
C177 C178 1.379 . S
C178 H162 0.931 . S
C178 C172 1.383 . S
C178 C177 1.379 . S
H179 C173 0.959 . S
H180 C173 0.964 1_554 S
H181 C173 0.960 . S
H182 C174 0.930 . S
H183 C175 0.929 . S
H184 C192 0.929 . S
H185 C194 0.930 . S
H186 C196 0.930 . S
H187 C199 0.929 . S
H188 C202 0.930 . S
H189 C204 0.960 . S
H190 C204 0.960 . S
H191 C204 0.960 . S
C192 H184 0.929 . S
C192 C193 1.377 . S
C192 C194 1.384 . S
C193 C192 1.377 . S
C193 C199 1.390 . S
C194 H185 0.930 . S
C194 C192 1.384 . S
C194 C195 1.372 . S
C195 C194 1.372 . S
C195 C196 1.400 . S
C195 C200 1.490 . S
C196 H186 0.930 . S
C196 C195 1.400 . S
C196 C199 1.386 . S
H197 C213 0.930 . S
H198 C214 0.931 . S
C199 H187 0.929 . S
C199 C193 1.390 . S
C199 C196 1.386 . S
C200 C195 1.490 . S
C200 C202 1.395 . S
C200 C203 1.403 . S
H201 C207 0.930 . S
C202 H188 0.930 . S
C202 C200 1.395 . S
C202 C205 1.403 . S
C203 C200 1.403 . S
C203 C204 1.524 . S
C203 C207 1.400 . S
C204 H189 0.960 . S
C204 H190 0.960 . S
C204 H191 0.960 . S
C204 C203 1.524 . S
C205 C202 1.403 . S
C205 C206 1.392 . S
C205 C209 1.495 . S
C206 C205 1.392 . S
C206 C207 1.385 . S
C206 C208 1.478 . S
C207 H201 0.930 . S
C207 C203 1.400 . S
C207 C206 1.385 . S
C208 C206 1.478 . S
C208 C210 1.381 . S
C208 C214 1.383 . S
C209 C205 1.495 . S
C209 H215 0.959 . S
C209 H216 0.961 . S
C209 H217 0.960 . S
C210 C208 1.381 . S
C210 C211 1.394 . S
C210 H218 0.930 . S
C211 C210 1.394 . S
C211 C212 1.383 . S
C211 H219 0.929 . S
C212 C211 1.383 . S
C212 C213 1.377 . S
C213 H197 0.930 . S
C213 C212 1.377 . S
C213 C214 1.379 . S
C214 H198 0.931 . S
C214 C208 1.383 . S
C214 C213 1.379 . S
H215 C209 0.959 . S
H216 C209 0.961 . S
H217 C209 0.960 . S
H218 C210 0.930 . S
H219 C211 0.929 . S
H220 C228 0.929 . S
H221 C230 0.930 . S
H222 C232 0.930 . S
H223 C235 0.929 . S
H224 C238 0.930 . S
H225 C240 0.960 . S
H226 C240 0.960 . S
H227 C240 0.960 . S
C228 H220 0.929 . S
C228 C229 1.377 . S
C228 C230 1.384 . S
C229 C228 1.377 . S
C229 C235 1.390 . S
C230 H221 0.930 . S
C230 C228 1.384 . S
C230 C231 1.372 . S
C231 C230 1.372 . S
C231 C232 1.400 . S
C231 C236 1.490 . S
C232 H222 0.930 . S
C232 C231 1.400 . S
C232 C235 1.386 . S
H233 C249 0.930 . S
H234 C250 0.931 . S
C235 H223 0.929 . S
C235 C229 1.390 . S
C235 C232 1.386 . S
C236 C231 1.490 . S
C236 C238 1.395 . S
C236 C239 1.403 . S
H237 C243 0.930 . S
C238 H224 0.930 . S
C238 C236 1.395 . S
C238 C241 1.403 . S
C239 C236 1.403 . S
C239 C240 1.524 . S
C239 C243 1.400 . S
C240 H225 0.960 . S
C240 H226 0.960 . S
C240 H227 0.960 . S
C240 C239 1.524 . S
C241 C238 1.403 . S
C241 C242 1.392 . S
C241 C245 1.495 . S
C242 C241 1.392 . S
C242 C243 1.385 . S
C242 C244 1.478 . S
C243 H237 0.930 . S
C243 C239 1.400 . S
C243 C242 1.385 . S
C244 C242 1.478 . S
C244 C246 1.381 . S
C244 C250 1.383 . S
C245 C241 1.495 . S
C245 H251 0.959 . S
C245 H252 0.961 . S
C245 H253 0.960 . S
C246 C244 1.381 . S
C246 C247 1.394 . S
C246 H254 0.930 . S
C247 C246 1.394 . S
C247 C248 1.383 . S
C247 H255 0.929 . S
C248 C247 1.383 . S
C248 C249 1.377 . S
C249 H233 0.930 . S
C249 C248 1.377 . S
C249 C250 1.379 . S
C250 H234 0.931 . S
C250 C244 1.383 . S
C250 C249 1.379 . S
H251 C245 0.959 . S
H252 C245 0.961 . S
H253 C245 0.960 . S
H254 C246 0.930 . S
H255 C247 0.929 . S
H256 C264 0.929 . S
H257 C266 0.930 . S
H258 C268 0.930 . S
H259 C271 0.929 . S
H260 C274 0.930 . S
H261 C276 0.960 . S
H262 C276 0.960 . S
H263 C276 0.960 . S
C264 H256 0.929 . S
C264 C265 1.377 . S
C264 C266 1.384 . S
C265 C264 1.377 . S
C265 C271 1.390 . S
C266 H257 0.930 . S
C266 C264 1.384 . S
C266 C267 1.372 . S
C267 C266 1.372 . S
C267 C268 1.400 . S
C267 C272 1.490 . S
C268 H258 0.930 . S
C268 C267 1.400 . S
C268 C271 1.386 . S
H269 C285 0.930 . S
H270 C286 0.931 . S
C271 H259 0.929 . S
C271 C265 1.390 . S
C271 C268 1.386 . S
C272 C267 1.490 . S
C272 C274 1.395 . S
C272 C275 1.403 . S
H273 C279 0.930 . S
C274 H260 0.930 . S
C274 C272 1.395 . S
C274 C277 1.403 . S
C275 C272 1.403 . S
C275 C276 1.524 . S
C275 C279 1.400 . S
C276 H261 0.960 . S
C276 H262 0.960 . S
C276 H263 0.960 . S
C276 C275 1.524 . S
C277 C274 1.403 . S
C277 C278 1.392 . S
C277 C281 1.495 . S
C278 C277 1.392 . S
C278 C279 1.385 . S
C278 C280 1.478 . S
C279 H273 0.930 . S
C279 C275 1.400 . S
C279 C278 1.385 . S
C280 C278 1.478 . S
C280 C282 1.381 . S
C280 C286 1.383 . S
C281 C277 1.495 . S
C281 H287 0.959 . S
C281 H288 0.961 . S
C281 H289 0.960 . S
C282 C280 1.381 . S
C282 C283 1.394 . S
C282 H290 0.930 . S
C283 C282 1.394 . S
C283 C284 1.383 . S
C283 H291 0.929 . S
C284 C283 1.383 . S
C284 C285 1.377 . S
C285 H269 0.930 . S
C285 C284 1.377 . S
C285 C286 1.379 . S
C286 H270 0.931 . S
C286 C280 1.383 . S
C286 C285 1.379 . S
H287 C281 0.959 . S
H288 C281 0.961 . S
H289 C281 0.960 . S
H290 C282 0.930 . S
H291 C283 0.929 . S
H292 C300 0.929 . S
H293 C302 0.930 . S
H294 C304 0.930 . S
H295 C307 0.929 . S
H296 C310 0.930 . S
H297 C312 0.960 . S
H298 C312 0.960 . S
H299 C312 0.960 . S
C300 H292 0.929 . S
C300 C301 1.377 . S
C300 C302 1.384 . S
C301 C300 1.377 . S
C301 C307 1.390 . S
C302 H293 0.930 . S
C302 C300 1.384 . S
C302 C303 1.372 . S
C303 C302 1.372 . S
C303 C304 1.400 . S
C303 C308 1.490 . S
C304 H294 0.930 . S
C304 C303 1.400 . S
C304 C307 1.386 . S
H305 C321 0.930 . S
H306 C322 0.931 . S
C307 H295 0.929 . S
C307 C301 1.390 . S
C307 C304 1.386 . S
C308 C303 1.490 . S
C308 C310 1.395 . S
C308 C311 1.403 . S
H309 C315 0.930 . S
C310 H296 0.930 . S
C310 C308 1.395 . S
C310 C313 1.403 . S
C311 C308 1.403 . S
C311 C312 1.524 . S
C311 C315 1.400 . S
C312 H297 0.960 . S
C312 H298 0.960 . S
C312 H299 0.960 . S
C312 C311 1.524 . S
C313 C310 1.403 . S
C313 C314 1.392 . S
C313 C317 1.495 . S
C314 C313 1.392 . S
C314 C315 1.385 . S
C314 C316 1.478 . S
C315 H309 0.930 . S
C315 C311 1.400 . S
C315 C314 1.385 . S
C316 C314 1.478 . S
C316 C318 1.381 . S
C316 C322 1.383 . S
C317 C313 1.495 . S
C317 H323 0.959 . S
C317 H324 0.961 . S
C317 H325 0.960 . S
C318 C316 1.381 . S
C318 C319 1.394 . S
C318 H326 0.930 . S
C319 C318 1.394 . S
C319 C320 1.383 . S
C319 H327 0.929 . S
C320 C319 1.383 . S
C320 C321 1.377 . S
C321 H305 0.930 . S
C321 C320 1.377 . S
C321 C322 1.379 . S
C322 H306 0.931 . S
C322 C316 1.383 . S
C322 C321 1.379 . S
H323 C317 0.959 . S
H324 C317 0.961 . S
H325 C317 0.960 . S
H326 C318 0.930 . S
H327 C319 0.929 . S
H328 C336 0.929 . S
H329 C338 0.930 . S
H330 C340 0.930 . S
H331 C343 0.929 . S
H332 C346 0.930 . S
H333 C348 0.960 . S
H334 C348 0.960 . S
H335 C348 0.960 . S
C336 H328 0.929 . S
C336 C337 1.377 . S
C336 C338 1.384 . S
C337 C336 1.377 . S
C337 C343 1.390 . S
C338 H329 0.930 . S
C338 C336 1.384 . S
C338 C339 1.372 . S
C339 C338 1.372 . S
C339 C340 1.400 . S
C339 C344 1.490 . S
C340 H330 0.930 . S
C340 C339 1.400 . S
C340 C343 1.386 . S
H341 C357 0.930 . S
H342 C358 0.931 . S
C343 H331 0.929 . S
C343 C337 1.390 . S
C343 C340 1.386 . S
C344 C339 1.490 . S
C344 C346 1.395 . S
C344 C347 1.403 . S
H345 C351 0.930 . S
C346 H332 0.930 . S
C346 C344 1.395 . S
C346 C349 1.403 . S
C347 C344 1.403 . S
C347 C348 1.524 . S
C347 C351 1.400 . S
C348 H333 0.960 . S
C348 H334 0.960 . S
C348 H335 0.960 . S
C348 C347 1.524 . S
C349 C346 1.403 . S
C349 C350 1.392 . S
C349 C353 1.495 . S
C350 C349 1.392 . S
C350 C351 1.385 . S
C350 C352 1.478 . S
C351 H345 0.930 . S
C351 C347 1.400 . S
C351 C350 1.385 . S
C352 C350 1.478 . S
C352 C354 1.381 . S
C352 C358 1.383 . S
C353 C349 1.495 . S
C353 H359 0.959 . S
C353 H360 0.961 . S
C353 H361 0.960 . S
C354 C352 1.381 . S
C354 C355 1.394 . S
C354 H362 0.930 . S
C355 C354 1.394 . S
C355 C356 1.383 . S
C355 H363 0.929 . S
C356 C355 1.383 . S
C356 C357 1.377 . S
C357 H341 0.930 . S
C357 C356 1.377 . S
C357 C358 1.379 . S
C358 H342 0.931 . S
C358 C352 1.383 . S
C358 C357 1.379 . S
H359 C353 0.959 . S
H360 C353 0.961 . S
H361 C353 0.960 . S
H362 C354 0.930 . S
H363 C355 0.929 . S
H364 C372 0.929 . S
H365 C374 0.930 . S
H366 C376 0.930 . S
H367 C379 0.929 . S
H368 C382 0.930 . S
H369 C384 0.960 . S
H370 C384 0.960 . S
H371 C384 0.960 . S
C372 H364 0.929 . S
C372 C373 1.377 . S
C372 C374 1.384 . S
C373 C372 1.377 . S
C373 C379 1.390 . S
C374 H365 0.930 . S
C374 C372 1.384 . S
C374 C375 1.372 . S
C375 C374 1.372 . S
C375 C376 1.400 . S
C375 C380 1.490 . S
C376 H366 0.930 . S
C376 C375 1.400 . S
C376 C379 1.386 . S
H377 C393 0.930 . S
H378 C394 0.931 . S
C379 H367 0.929 . S
C379 C373 1.390 . S
C379 C376 1.386 . S
C380 C375 1.490 . S
C380 C382 1.395 . S
C380 C383 1.403 . S
H381 C387 0.930 . S
C382 H368 0.930 . S
C382 C380 1.395 . S
C382 C385 1.403 . S
C383 C380 1.403 . S
C383 C384 1.524 . S
C383 C387 1.400 . S
C384 H369 0.960 . S
C384 H370 0.960 . S
C384 H371 0.960 . S
C384 C383 1.524 . S
C385 C382 1.403 . S
C385 C386 1.392 . S
C385 C389 1.495 . S
C386 C385 1.392 . S
C386 C387 1.385 . S
C386 C388 1.478 . S
C387 H381 0.930 . S
C387 C383 1.400 . S
C387 C386 1.385 . S
C388 C386 1.478 . S
C388 C390 1.381 . S
C388 C394 1.383 . S
C389 C385 1.495 . S
C389 H395 0.959 . S
C389 H396 0.961 . S
C389 H397 0.960 . S
C390 C388 1.381 . S
C390 C391 1.394 . S
C390 H398 0.930 . S
C391 C390 1.394 . S
C391 C392 1.383 . S
C391 H399 0.929 . S
C392 C391 1.383 . S
C392 C393 1.377 . S
C393 H377 0.930 . S
C393 C392 1.377 . S
C393 C394 1.379 . S
C394 H378 0.931 . S
C394 C388 1.383 . S
C394 C393 1.379 . S
H395 C389 0.959 . S
H396 C389 0.961 . S
H397 C389 0.960 . S
H398 C390 0.930 . S
H399 C391 0.929 . S
H400 C408 0.929 . S
H401 C410 0.930 . S
H402 C412 0.930 . S
H403 C415 0.929 . S
H404 C418 0.930 . S
H405 C420 0.960 . S
H406 C420 0.960 . S
H407 C420 0.960 . S
C408 H400 0.929 . S
C408 C409 1.377 . S
C408 C410 1.384 . S
C409 C408 1.377 . S
C409 C415 1.390 . S
C410 H401 0.930 . S
C410 C408 1.384 . S
C410 C411 1.372 . S
C411 C410 1.372 . S
C411 C412 1.400 . S
C411 C416 1.490 . S
C412 H402 0.930 . S
C412 C411 1.400 . S
C412 C415 1.386 . S
H413 C429 0.930 . S
H414 C430 0.931 . S
C415 H403 0.929 . S
C415 C409 1.390 . S
C415 C412 1.386 . S
C416 C411 1.490 . S
C416 C418 1.395 . S
C416 C419 1.403 1_565 S
H417 C423 0.930 . S
C418 H404 0.930 . S
C418 C416 1.395 . S
C418 C421 1.403 . S
C419 C416 1.403 1_545 S
C419 C420 1.524 . S
C419 C423 1.400 . S
C420 H405 0.960 . S
C420 H406 0.960 . S
C420 H407 0.960 . S
C420 C419 1.524 . S
C421 C418 1.403 . S
C421 C422 1.392 1_565 S
C421 C425 1.495 . S
C422 C421 1.392 1_545 S
C422 C423 1.385 . S
C422 C424 1.478 . S
C423 H417 0.930 . S
C423 C419 1.400 . S
C423 C422 1.385 . S
C424 C422 1.478 . S
C424 C426 1.381 . S
C424 C430 1.383 . S
C425 C421 1.495 . S
C425 H431 0.959 . S
C425 H432 0.961 . S
C425 H433 0.960 . S
C426 C424 1.381 . S
C426 C427 1.394 . S
C426 H434 0.930 . S
C427 C426 1.394 . S
C427 C428 1.383 . S
C427 H435 0.929 . S
C428 C427 1.383 . S
C428 C429 1.377 . S
C429 H413 0.930 . S
C429 C428 1.377 . S
C429 C430 1.379 . S
C430 H414 0.931 . S
C430 C424 1.383 . S
C430 C429 1.379 . S
H431 C425 0.959 . S
H432 C425 0.961 . S
H433 C425 0.960 . S
H434 C426 0.930 . S
H435 C427 0.929 . S
H436 C444 0.929 . S
H437 C446 0.930 . S
H438 C448 0.930 . S
H439 C451 0.929 . S
H440 C454 0.930 . S
H441 C456 0.960 . S
H442 C456 0.960 . S
H443 C456 0.960 . S
C444 H436 0.929 . S
C444 C445 1.377 . S
C444 C446 1.384 . S
C445 C444 1.377 . S
C445 C451 1.390 . S
C446 H437 0.930 . S
C446 C444 1.384 . S
C446 C447 1.372 . S
C447 C446 1.372 . S
C447 C448 1.400 . S
C447 C452 1.490 . S
C448 H438 0.930 . S
C448 C447 1.400 . S
C448 C451 1.386 . S
H449 C465 0.930 . S
H450 C466 0.931 . S
C451 H439 0.929 . S
C451 C445 1.390 . S
C451 C448 1.386 . S
C452 C447 1.490 . S
C452 C454 1.395 . S
C452 C455 1.403 1_565 S
H453 C459 0.930 . S
C454 H440 0.930 . S
C454 C452 1.395 . S
C454 C457 1.403 . S
C455 C452 1.403 1_545 S
C455 C456 1.524 . S
C455 C459 1.400 . S
C456 H441 0.960 . S
C456 H442 0.960 . S
C456 H443 0.960 . S
C456 C455 1.524 . S
C457 C454 1.403 . S
C457 C458 1.392 1_565 S
C457 C461 1.495 . S
C458 C457 1.392 1_545 S
C458 C459 1.385 . S
C458 C460 1.478 . S
C459 H453 0.930 . S
C459 C455 1.400 . S
C459 C458 1.385 . S
C460 C458 1.478 . S
C460 C462 1.381 . S
C460 C466 1.383 . S
C461 C457 1.495 . S
C461 H467 0.959 . S
C461 H468 0.961 . S
C461 H469 0.960 . S
C462 C460 1.381 . S
C462 C463 1.394 . S
C462 H470 0.930 . S
C463 C462 1.394 . S
C463 C464 1.383 . S
C463 H471 0.929 . S
C464 C463 1.383 . S
C464 C465 1.377 . S
C465 H449 0.930 . S
C465 C464 1.377 . S
C465 C466 1.379 . S
C466 H450 0.931 . S
C466 C460 1.383 . S
C466 C465 1.379 . S
H467 C461 0.959 . S
H468 C461 0.961 . S
H469 C461 0.960 . S
H470 C462 0.930 . S
H471 C463 0.929 . S
H472 C480 0.929 . S
H473 C482 0.930 . S
H474 C484 0.930 . S
H475 C487 0.929 . S
H476 C490 0.930 . S
H477 C492 0.960 . S
H478 C492 0.960 . S
H479 C492 0.960 . S
C480 H472 0.929 . S
C480 C481 1.377 . S
C480 C482 1.384 . S
C481 C480 1.377 . S
C481 C487 1.390 . S
C482 H473 0.930 . S
C482 C480 1.384 . S
C482 C483 1.372 . S
C483 C482 1.372 . S
C483 C484 1.400 . S
C483 C488 1.490 . S
C484 H474 0.930 . S
C484 C483 1.400 . S
C484 C487 1.386 . S
H485 C501 0.930 . S
H486 C502 0.931 . S
C487 H475 0.929 . S
C487 C481 1.390 . S
C487 C484 1.386 . S
C488 C483 1.490 . S
C488 C490 1.395 . S
C488 C491 1.403 1_565 S
H489 C495 0.930 . S
C490 H476 0.930 . S
C490 C488 1.395 . S
C490 C493 1.403 . S
C491 C488 1.403 1_545 S
C491 C492 1.524 . S
C491 C495 1.400 . S
C492 H477 0.960 . S
C492 H478 0.960 . S
C492 H479 0.960 . S
C492 C491 1.524 . S
C493 C490 1.403 . S
C493 C494 1.392 1_565 S
C493 C497 1.495 . S
C494 C493 1.392 1_545 S
C494 C495 1.385 . S
C494 C496 1.478 . S
C495 H489 0.930 . S
C495 C491 1.400 . S
C495 C494 1.385 . S
C496 C494 1.478 . S
C496 C498 1.381 . S
C496 C502 1.383 . S
C497 C493 1.495 . S
C497 H503 0.959 . S
C497 H504 0.961 . S
C497 H505 0.960 . S
C498 C496 1.381 . S
C498 C499 1.394 . S
C498 H506 0.930 . S
C499 C498 1.394 . S
C499 C500 1.383 . S
C499 H507 0.929 . S
C500 C499 1.383 . S
C500 C501 1.377 . S
C501 H485 0.930 . S
C501 C500 1.377 . S
C501 C502 1.379 . S
C502 H486 0.931 . S
C502 C496 1.383 . S
C502 C501 1.379 . S
H503 C497 0.959 . S
H504 C497 0.961 . S
H505 C497 0.960 . S
H506 C498 0.930 . S
H507 C499 0.929 . S
H508 C516 0.929 . S
H509 C518 0.930 1_545 S
H510 C520 0.930 . S
H511 C523 0.929 . S
H512 C526 0.930 . S
H513 C528 0.960 . S
H514 C528 0.960 . S
H515 C528 0.960 . S
C516 H508 0.929 . S
C516 C517 1.377 . S
C516 C518 1.384 . S
C517 C516 1.377 . S
C517 C523 1.390 . S
C518 H509 0.930 1_565 S
C518 C516 1.384 . S
C518 C519 1.372 . S
C519 C518 1.372 . S
C519 C520 1.400 . S
C519 C524 1.490 . S
C520 H510 0.930 . S
C520 C519 1.400 . S
C520 C523 1.386 . S
H521 C537 0.930 . S
H522 C538 0.931 . S
C523 H511 0.929 . S
C523 C517 1.390 . S
C523 C520 1.386 . S
C524 C519 1.490 . S
C524 C526 1.395 1_565 S
C524 C527 1.403 . S
H525 C531 0.930 . S
C526 H512 0.930 . S
C526 C524 1.395 1_545 S
C526 C529 1.403 . S
C527 C524 1.403 . S
C527 C528 1.524 . S
C527 C531 1.400 . S
C528 H513 0.960 . S
C528 H514 0.960 . S
C528 H515 0.960 . S
C528 C527 1.524 . S
C529 C526 1.403 . S
C529 C530 1.392 . S
C529 C533 1.495 . S
C530 C529 1.392 . S
C530 C531 1.385 1_545 S
C530 C532 1.478 . S
C531 H525 0.930 . S
C531 C527 1.400 . S
C531 C530 1.385 1_565 S
C532 C530 1.478 . S
C532 C534 1.381 . S
C532 C538 1.383 . S
C533 C529 1.495 . S
C533 H539 0.959 . S
C533 H540 0.961 . S
C533 H541 0.960 . S
C534 C532 1.381 . S
C534 C535 1.394 . S
C534 H542 0.930 . S
C535 C534 1.394 . S
C535 C536 1.383 . S
C535 H543 0.929 . S
C536 C535 1.383 . S
C536 C537 1.377 . S
C537 H521 0.930 . S
C537 C536 1.377 . S
C537 C538 1.379 . S
C538 H522 0.931 . S
C538 C532 1.383 . S
C538 C537 1.379 . S
H539 C533 0.959 . S
H540 C533 0.961 . S
H541 C533 0.960 . S
H542 C534 0.930 . S
H543 C535 0.929 . S
H544 C552 0.929 . S
H545 C554 0.930 . S
H546 C556 0.930 . S
H547 C559 0.929 . S
H548 C562 0.930 . S
H549 C564 0.960 . S
H550 C564 0.960 . S
H551 C564 0.960 . S
C552 H544 0.929 . S
C552 C553 1.377 1_556 S
C552 C554 1.384 . S
C553 C552 1.377 1_554 S
C553 C559 1.390 . S
C554 H545 0.930 . S
C554 C552 1.384 . S
C554 C555 1.372 1_556 S
C555 C554 1.372 1_554 S
C555 C556 1.400 . S
C555 C560 1.490 . S
C556 H546 0.930 . S
C556 C555 1.400 . S
C556 C559 1.386 . S
H557 C573 0.930 . S
H558 C574 0.931 . S
C559 H547 0.929 . S
C559 C553 1.390 . S
C559 C556 1.386 . S
C560 C555 1.490 . S
C560 C562 1.395 1_554 S
C560 C563 1.403 . S
H561 C567 0.930 . S
C562 H548 0.930 . S
C562 C560 1.395 1_556 S
C562 C565 1.403 1_565 S
C563 C560 1.403 . S
C563 C564 1.524 . S
C563 C567 1.400 1_565 S
C564 H549 0.960 . S
C564 H550 0.960 . S
C564 H551 0.960 . S
C564 C563 1.524 . S
C565 C562 1.403 1_545 S
C565 C566 1.392 1_556 S
C565 C569 1.495 . S
C566 C565 1.392 1_554 S
C566 C567 1.385 . S
C566 C568 1.478 . S
C567 H561 0.930 . S
C567 C563 1.400 1_545 S
C567 C566 1.385 . S
C568 C566 1.478 . S
C568 C570 1.381 1_554 S
C568 C574 1.383 . S
C569 C565 1.495 . S
C569 H575 0.959 . S
C569 H576 0.961 1_556 S
C569 H577 0.960 . S
C570 C568 1.381 1_556 S
C570 C571 1.394 . S
C570 H578 0.930 . S
C571 C570 1.394 . S
C571 C572 1.383 1_556 S
C571 H579 0.929 . S
C572 C571 1.383 1_554 S
C572 C573 1.377 . S
C573 H557 0.930 . S
C573 C572 1.377 . S
C573 C574 1.379 . S
C574 H558 0.931 . S
C574 C568 1.383 . S
C574 C573 1.379 . S
H575 C569 0.959 . S
H576 C569 0.961 1_554 S
H577 C569 0.960 . S
H578 C570 0.930 . S
H579 C571 0.929 . S
H580 C588 0.929 . S
H581 C590 0.930 . S
H582 C592 0.930 . S
H583 C595 0.929 . S
H584 C598 0.930 . S
H585 C600 0.960 . S
H586 C600 0.960 . S
H587 C600 0.960 . S
C588 H580 0.929 . S
C588 C589 1.377 . S
C588 C590 1.384 . S
C589 C588 1.377 . S
C589 C595 1.390 . S
C590 H581 0.930 . S
C590 C588 1.384 . S
C590 C591 1.372 . S
C591 C590 1.372 . S
C591 C592 1.400 . S
C591 C596 1.490 . S
C592 H582 0.930 . S
C592 C591 1.400 . S
C592 C595 1.386 . S
H593 C609 0.930 . S
H594 C610 0.931 . S
C595 H583 0.929 . S
C595 C589 1.390 . S
C595 C592 1.386 . S
C596 C591 1.490 . S
C596 C598 1.395 . S
C596 C599 1.403 . S
H597 C603 0.930 . S
C598 H584 0.930 . S
C598 C596 1.395 . S
C598 C601 1.403 1_565 S
C599 C596 1.403 . S
C599 C600 1.524 . S
C599 C603 1.400 1_565 S
C600 H585 0.960 . S
C600 H586 0.960 . S
C600 H587 0.960 . S
C600 C599 1.524 . S
C601 C598 1.403 1_545 S
C601 C602 1.392 . S
C601 C605 1.495 . S
C602 C601 1.392 . S
C602 C603 1.385 . S
C602 C604 1.478 . S
C603 H597 0.930 . S
C603 C599 1.400 1_545 S
C603 C602 1.385 . S
C604 C602 1.478 . S
C604 C606 1.381 . S
C604 C610 1.383 . S
C605 C601 1.495 . S
C605 H611 0.959 . S
C605 H612 0.961 . S
C605 H613 0.960 . S
C606 C604 1.381 . S
C606 C607 1.394 . S
C606 H614 0.930 . S
C607 C606 1.394 . S
C607 C608 1.383 . S
C607 H615 0.929 . S
C608 C607 1.383 . S
C608 C609 1.377 . S
C609 H593 0.930 . S
C609 C608 1.377 . S
C609 C610 1.379 . S
C610 H594 0.931 . S
C610 C604 1.383 . S
C610 C609 1.379 . S
H611 C605 0.959 . S
H612 C605 0.961 . S
H613 C605 0.960 . S
H614 C606 0.930 . S
H615 C607 0.929 . S
H616 C624 0.929 . S
H617 C626 0.930 . S
H618 C628 0.930 . S
H619 C631 0.929 . S
H620 C634 0.932 . S
H621 C636 0.960 . S
H622 C636 0.960 . S
H623 C636 0.960 . S
C624 H616 0.929 . S
C624 C625 1.377 . S
C624 C626 1.384 . S
C625 C624 1.377 . S
C625 C631 1.390 1_554 S
C626 H617 0.930 . S
C626 C624 1.384 . S
C626 C627 1.372 . S
C627 C626 1.372 . S
C627 C628 1.400 1_554 S
C627 C632 1.490 . S
C628 H618 0.930 . S
C628 C627 1.400 1_556 S
C628 C631 1.386 . S
H629 C645 0.930 . S
H630 C646 0.931 . S
C631 H619 0.929 . S
C631 C625 1.390 1_556 S
C631 C628 1.386 . S
C632 C627 1.490 . S
C632 C634 1.410 . S
C632 C635 1.403 1_554 S
H633 C639 0.933 . S
C634 H620 0.932 . S
C634 C632 1.410 . S
C634 C637 1.388 1_455 S
C635 C632 1.403 1_556 S
C635 C636 1.524 . S
C635 C639 1.379 1_455 S
C636 H621 0.960 . S
C636 H622 0.960 . S
C636 H623 0.960 . S
C636 C635 1.524 . S
C637 C634 1.388 1_655 S
C637 C638 1.392 . S
C637 C641 1.495 . S
C638 C637 1.392 . S
C638 C639 1.405 1_554 S
C638 C640 1.478 . S
C639 H633 0.933 . S
C639 C635 1.379 1_655 S
C639 C638 1.405 1_556 S
C640 C638 1.478 . S
C640 C642 1.381 . S
C640 C646 1.383 1_554 S
C641 C637 1.495 . S
C641 H647 0.959 . S
C641 H648 0.961 . S
C641 H649 0.960 . S
C642 C640 1.381 . S
C642 C643 1.394 . S
C642 H650 0.930 . S
C643 C642 1.394 . S
C643 C644 1.383 . S
C643 H651 0.929 . S
C644 C643 1.383 . S
C644 C645 1.377 1_554 S
C645 H629 0.930 . S
C645 C644 1.377 1_556 S
C645 C646 1.379 . S
C646 H630 0.931 . S
C646 C640 1.383 1_556 S
C646 C645 1.379 . S
H647 C641 0.959 . S
H648 C641 0.961 . S
H649 C641 0.960 . S
H650 C642 0.930 . S
H651 C643 0.929 . S
H652 C660 0.929 . S
H653 C662 0.930 . S
H654 C664 0.930 . S
H655 C667 0.929 . S
H656 C670 0.930 . S
H657 C672 0.960 . S
H658 C672 0.960 . S
H659 C672 0.960 . S
C660 H652 0.929 . S
C660 C661 1.377 . S
C660 C662 1.384 . S
C661 C660 1.377 . S
C661 C667 1.390 . S
C662 H653 0.930 . S
C662 C660 1.384 . S
C662 C663 1.372 . S
C663 C662 1.372 . S
C663 C664 1.400 . S
C663 C668 1.490 . S
C664 H654 0.930 . S
C664 C663 1.400 . S
C664 C667 1.386 . S
H665 C681 0.930 . S
H666 C682 0.931 . S
C667 H655 0.929 . S
C667 C661 1.390 . S
C667 C664 1.386 . S
C668 C663 1.490 . S
C668 C670 1.395 . S
C668 C671 1.403 1_455 S
H669 C675 0.930 . S
C670 H656 0.930 . S
C670 C668 1.395 . S
C670 C673 1.403 . S
C671 C668 1.403 1_655 S
C671 C672 1.524 . S
C671 C675 1.400 . S
C672 H657 0.960 . S
C672 H658 0.960 . S
C672 H659 0.960 . S
C672 C671 1.524 . S
C673 C670 1.403 . S
C673 C674 1.392 1_455 S
C673 C677 1.495 . S
C674 C673 1.392 1_655 S
C674 C675 1.385 . S
C674 C676 1.478 . S
C675 H669 0.930 . S
C675 C671 1.400 . S
C675 C674 1.385 . S
C676 C674 1.478 . S
C676 C678 1.381 . S
C676 C682 1.383 . S
C677 C673 1.495 . S
C677 H683 0.959 . S
C677 H684 0.961 . S
C677 H685 0.960 . S
C678 C676 1.381 . S
C678 C679 1.394 . S
C678 H686 0.930 . S
C679 C678 1.394 . S
C679 C680 1.383 . S
C679 H687 0.929 . S
C680 C679 1.383 . S
C680 C681 1.377 . S
C681 H665 0.930 . S
C681 C680 1.377 . S
C681 C682 1.379 . S
C682 H666 0.931 . S
C682 C676 1.383 . S
C682 C681 1.379 . S
H683 C677 0.959 . S
H684 C677 0.961 . S
H685 C677 0.960 . S
H686 C678 0.930 . S
H687 C679 0.929 . S
C121 C74 1.482 . S
C140 C4 1.476 . S
C157 C60 1.485 . S
C176 C18 1.478 . S
C193 C102 1.479 . S
C212 C32 1.499 . S
C229 C88 1.487 . S
C248 C46 1.464 . S
C265 C12 1.368 . S
C284 C40 1.361 . S
C301 C26 1.368 . S
C320 C54 1.364 . S
C337 C19 1.207 . S
C356 C47 1.261 . S
C373 C5 1.212 . S
C392 C33 1.218 . S
C409 C68 1.368 . S
C428 C96 1.365 . S
C445 C110 1.368 . S
C464 C82 1.363 . S
C481 C103 1.226 . S
C500 C75 1.206 . S
C517 C61 1.207 . S
C536 C89 1.261 . S
C553 C25 1.514 . S
C572 C11 1.523 . S
C589 C39 1.514 . S
C608 C53 1.526 . S
C625 C67 1.508 . S
C644 C81 1.489 . S
C661 C95 1.514 . S
C680 C109 1.517 . S
