# Generated by pormake.
# Topology gme, (4)-cn, num edge types: 1
# Building blocks:
#     Node 0, Type 0, BuildingBlock: QUQFOY_clean_sbu_1, # of connection points: 4
#     Node 1, Type 0, BuildingBlock: QUQFOY_clean_sbu_1, # of connection points: 4
#     Node 2, Type 0, BuildingBlock: QUQFOY_clean_sbu_1, # of connection points: 4
#     Node 3, Type 0, BuildingBlock: QUQFOY_clean_sbu_1, # of connection points: 4
#     Node 4, Type 0, BuildingBlock: QUQFOY_clean_sbu_1, # of connection points: 4
#     Node 5, Type 0, BuildingBlock: QUQFOY_clean_sbu_1, # of connection points: 4
#     Node 6, Type 0, BuildingBlock: QUQFOY_clean_sbu_1, # of connection points: 4
#     Node 7, Type 0, BuildingBlock: QUQFOY_clean_sbu_1, # of connection points: 4
#     Node 8, Type 0, BuildingBlock: QUQFOY_clean_sbu_1, # of connection points: 4
#     Node 9, Type 0, BuildingBlock: QUQFOY_clean_sbu_1, # of connection points: 4
#     Node 10, Type 0, BuildingBlock: QUQFOY_clean_sbu_1, # of connection points: 4
#     Node 11, Type 0, BuildingBlock: QUQFOY_clean_sbu_1, # of connection points: 4
#     Node 12, Type 0, BuildingBlock: QUQFOY_clean_sbu_1, # of connection points: 4
#     Node 13, Type 0, BuildingBlock: QUQFOY_clean_sbu_1, # of connection points: 4
#     Node 14, Type 0, BuildingBlock: QUQFOY_clean_sbu_1, # of connection points: 4
#     Node 15, Type 0, BuildingBlock: QUQFOY_clean_sbu_1, # of connection points: 4
#     Node 16, Type 0, BuildingBlock: QUQFOY_clean_sbu_1, # of connection points: 4
#     Node 17, Type 0, BuildingBlock: QUQFOY_clean_sbu_1, # of connection points: 4
#     Node 18, Type 0, BuildingBlock: QUQFOY_clean_sbu_1, # of connection points: 4
#     Node 19, Type 0, BuildingBlock: QUQFOY_clean_sbu_1, # of connection points: 4
#     Node 20, Type 0, BuildingBlock: QUQFOY_clean_sbu_1, # of connection points: 4
#     Node 21, Type 0, BuildingBlock: QUQFOY_clean_sbu_1, # of connection points: 4
#     Node 22, Type 0, BuildingBlock: QUQFOY_clean_sbu_1, # of connection points: 4
#     Node 23, Type 0, BuildingBlock: QUQFOY_clean_sbu_1, # of connection points: 4
#     Edge 24, Type (0, 0), BuildingBlock: ZUJKAS_clean_linker_0, # of connection points: 2
#     Edge 25, Type (0, 0), BuildingBlock: ZUJKAS_clean_linker_0, # of connection points: 2
#     Edge 26, Type (0, 0), BuildingBlock: ZUJKAS_clean_linker_0, # of connection points: 2
#     Edge 27, Type (0, 0), BuildingBlock: ZUJKAS_clean_linker_0, # of connection points: 2
#     Edge 28, Type (0, 0), BuildingBlock: ZUJKAS_clean_linker_0, # of connection points: 2
#     Edge 29, Type (0, 0), BuildingBlock: ZUJKAS_clean_linker_0, # of connection points: 2
#     Edge 30, Type (0, 0), BuildingBlock: ZUJKAS_clean_linker_0, # of connection points: 2
#     Edge 31, Type (0, 0), BuildingBlock: ZUJKAS_clean_linker_0, # of connection points: 2
#     Edge 32, Type (0, 0), BuildingBlock: ZUJKAS_clean_linker_0, # of connection points: 2
#     Edge 33, Type (0, 0), BuildingBlock: ZUJKAS_clean_linker_0, # of connection points: 2
#     Edge 34, Type (0, 0), BuildingBlock: ZUJKAS_clean_linker_0, # of connection points: 2
#     Edge 35, Type (0, 0), BuildingBlock: ZUJKAS_clean_linker_0, # of connection points: 2
#     Edge 36, Type (0, 0), BuildingBlock: ZUJKAS_clean_linker_0, # of connection points: 2
#     Edge 37, Type (0, 0), BuildingBlock: ZUJKAS_clean_linker_0, # of connection points: 2
#     Edge 38, Type (0, 0), BuildingBlock: ZUJKAS_clean_linker_0, # of connection points: 2
#     Edge 39, Type (0, 0), BuildingBlock: ZUJKAS_clean_linker_0, # of connection points: 2
#     Edge 40, Type (0, 0), BuildingBlock: ZUJKAS_clean_linker_0, # of connection points: 2
#     Edge 41, Type (0, 0), BuildingBlock: ZUJKAS_clean_linker_0, # of connection points: 2
#     Edge 42, Type (0, 0), BuildingBlock: ZUJKAS_clean_linker_0, # of connection points: 2
#     Edge 43, Type (0, 0), BuildingBlock: ZUJKAS_clean_linker_0, # of connection points: 2
#     Edge 44, Type (0, 0), BuildingBlock: ZUJKAS_clean_linker_0, # of connection points: 2
#     Edge 45, Type (0, 0), BuildingBlock: ZUJKAS_clean_linker_0, # of connection points: 2
#     Edge 46, Type (0, 0), BuildingBlock: ZUJKAS_clean_linker_0, # of connection points: 2
#     Edge 47, Type (0, 0), BuildingBlock: ZUJKAS_clean_linker_0, # of connection points: 2
#     Edge 48, Type (0, 0), BuildingBlock: ZUJKAS_clean_linker_0, # of connection points: 2
#     Edge 49, Type (0, 0), BuildingBlock: ZUJKAS_clean_linker_0, # of connection points: 2
#     Edge 50, Type (0, 0), BuildingBlock: ZUJKAS_clean_linker_0, # of connection points: 2
#     Edge 51, Type (0, 0), BuildingBlock: ZUJKAS_clean_linker_0, # of connection points: 2
#     Edge 52, Type (0, 0), BuildingBlock: ZUJKAS_clean_linker_0, # of connection points: 2
#     Edge 53, Type (0, 0), BuildingBlock: ZUJKAS_clean_linker_0, # of connection points: 2
#     Edge 54, Type (0, 0), BuildingBlock: ZUJKAS_clean_linker_0, # of connection points: 2
#     Edge 55, Type (0, 0), BuildingBlock: ZUJKAS_clean_linker_0, # of connection points: 2
#     Edge 56, Type (0, 0), BuildingBlock: ZUJKAS_clean_linker_0, # of connection points: 2
#     Edge 57, Type (0, 0), BuildingBlock: ZUJKAS_clean_linker_0, # of connection points: 2
#     Edge 58, Type (0, 0), BuildingBlock: ZUJKAS_clean_linker_0, # of connection points: 2
#     Edge 59, Type (0, 0), BuildingBlock: ZUJKAS_clean_linker_0, # of connection points: 2
#     Edge 60, Type (0, 0), BuildingBlock: ZUJKAS_clean_linker_0, # of connection points: 2
#     Edge 61, Type (0, 0), BuildingBlock: ZUJKAS_clean_linker_0, # of connection points: 2
#     Edge 62, Type (0, 0), BuildingBlock: ZUJKAS_clean_linker_0, # of connection points: 2
#     Edge 63, Type (0, 0), BuildingBlock: ZUJKAS_clean_linker_0, # of connection points: 2
#     Edge 64, Type (0, 0), BuildingBlock: ZUJKAS_clean_linker_0, # of connection points: 2
#     Edge 65, Type (0, 0), BuildingBlock: ZUJKAS_clean_linker_0, # of connection points: 2
#     Edge 66, Type (0, 0), BuildingBlock: ZUJKAS_clean_linker_0, # of connection points: 2
#     Edge 67, Type (0, 0), BuildingBlock: ZUJKAS_clean_linker_0, # of connection points: 2
#     Edge 68, Type (0, 0), BuildingBlock: ZUJKAS_clean_linker_0, # of connection points: 2
#     Edge 69, Type (0, 0), BuildingBlock: ZUJKAS_clean_linker_0, # of connection points: 2
#     Edge 70, Type (0, 0), BuildingBlock: ZUJKAS_clean_linker_0, # of connection points: 2
#     Edge 71, Type (0, 0), BuildingBlock: ZUJKAS_clean_linker_0, # of connection points: 2
# Relax obj value: 0.038
# Max RMSD: 0.064
# Mean RMSD: 0.064
data_MOF--net-gme--node1-QUQFOY_clean_sbu_1--edge1-ZUJKAS_clean_linker_0
_symmetry_space_group_name_H-M    P1
_symmetry_Int_Tables_number       1
_symmetry_cell_setting            triclinic
loop_
_symmetry_equiv_pos_as_xyz
'x, y, z'
_cell_length_a     80.542555
_cell_length_b     80.524165
_cell_length_c     72.247244
_cell_angle_alpha  90.018074
_cell_angle_beta   89.973694
_cell_angle_gamma 119.9691
loop_
_atom_site_label
_atom_site_type_symbol
_atom_site_fract_x
_atom_site_fract_y
_atom_site_fract_z
_atom_type_partial_charge
O0 O 0.4184 0.09041 0.15378 0.0
Cd1 Cd 0.43049 0.09989 0.12794 0.0
Cd2 Cd 0.41168 0.06096 0.12223 0.0
O3 O 0.40087 0.05934 0.1486 0.0
O4 O 0.44172 0.12818 0.13006 0.0
O5 O 0.41862 0.11064 0.11033 0.0
C6 C 0.43001 0.12724 0.11744 0.0
C7 C 0.39225 0.04613 0.09658 0.0
C8 C 0.40653 0.07362 0.15943 0.0
C9 C 0.45455 0.08171 0.1194 0.0
O10 O 0.43922 0.06556 0.1203 0.0
O11 O 0.45397 0.09714 0.12106 0.0
O12 O 0.3949 0.03633 0.10917 0.0
O13 O 0.39998 0.06443 0.099 0.0
O14 O 0.33136 0.41517 0.65535 0.0
Cd15 Cd 0.33359 0.42825 0.63013 0.0
Cd16 Cd 0.35376 0.40957 0.62256 0.0
O17 O 0.34501 0.398 0.64875 0.0
O18 O 0.31615 0.43888 0.63354 0.0
O19 O 0.31083 0.41673 0.61269 0.0
C20 C 0.30535 0.42752 0.62072 0.0
C21 C 0.35027 0.39067 0.59668 0.0
C22 C 0.33644 0.40318 0.66017 0.0
C23 C 0.37551 0.45273 0.62111 0.0
O24 O 0.37627 0.43735 0.62098 0.0
O25 O 0.3596 0.45216 0.62358 0.0
O26 O 0.3629 0.39395 0.60927 0.0
O27 O 0.33887 0.39744 0.59924 0.0
O28 O 0.91713 0.33002 0.15709 0.0
Cd29 Cd 0.90498 0.33084 0.13213 0.0
Cd30 Cd 0.94366 0.35293 0.12345 0.0
O31 O 0.94791 0.34599 0.14998 0.0
O32 O 0.87724 0.31218 0.13596 0.0
O33 O 0.89455 0.3081 0.11469 0.0
C34 C 0.87822 0.30189 0.12283 0.0
C35 C 0.9598 0.35029 0.09773 0.0
C36 C 0.93459 0.33674 0.16167 0.0
C37 C 0.91961 0.37206 0.1218 0.0
O38 O 0.93619 0.37387 0.12102 0.0
O39 O 0.90505 0.35585 0.12533 0.0
O40 O 0.96835 0.36389 0.10967 0.0
O41 O 0.94218 0.33744 0.1009 0.0
O42 O 0.59113 0.91478 0.65596 0.0
Cd43 Cd 0.57811 0.90447 0.63061 0.0
Cd44 Cd 0.59693 0.94327 0.62365 0.0
O45 O 0.60849 0.94567 0.64977 0.0
O46 O 0.56736 0.87629 0.63318 0.0
O47 O 0.58966 0.89368 0.61268 0.0
C48 C 0.57872 0.87718 0.62019 0.0
C49 C 0.61566 0.95816 0.59756 0.0
C50 C 0.60321 0.93175 0.661 0.0
C51 C 0.55386 0.92231 0.62206 0.0
O52 O 0.56928 0.93841 0.62219 0.0
O53 O 0.55434 0.90689 0.62423 0.0
O54 O 0.61281 0.96784 0.61014 0.0
O55 O 0.60862 0.93999 0.60028 0.0
O56 O 0.67616 0.5894 0.15539 0.0
Cd57 Cd 0.67374 0.57705 0.12972 0.0
Cd58 Cd 0.6533 0.59518 0.12328 0.0
O59 O 0.66226 0.60648 0.14955 0.0
O60 O 0.69135 0.56647 0.13178 0.0
O61 O 0.6961 0.58918 0.11184 0.0
C62 C 0.70174 0.57813 0.11895 0.0
C63 C 0.65848 0.61399 0.097 0.0
C64 C 0.67098 0.6012 0.16066 0.0
C65 C 0.63168 0.55231 0.12103 0.0
O66 O 0.63057 0.5675 0.12152 0.0
O67 O 0.64779 0.55319 0.12302 0.0
O68 O 0.64576 0.61167 0.10917 0.0
O69 O 0.66898 0.60632 0.10023 0.0
O70 O 0.08934 0.67378 0.65543 0.0
Cd71 Cd 0.10046 0.67258 0.62998 0.0
Cd72 Cd 0.06174 0.65172 0.62239 0.0
O73 O 0.0585 0.6596 0.64888 0.0
O74 O 0.12846 0.68999 0.63382 0.0
O75 O 0.11188 0.69595 0.61326 0.0
C76 C 0.12806 0.70117 0.62132 0.0
C77 C 0.04778 0.65672 0.59623 0.0
C78 C 0.07218 0.66814 0.66036 0.0
C79 C 0.0839 0.63091 0.61983 0.0
O80 O 0.06748 0.62954 0.62008 0.0
O81 O 0.09892 0.64704 0.62248 0.0
O82 O 0.03766 0.64359 0.60817 0.0
O83 O 0.06583 0.66774 0.59966 0.0
O84 O 0.91594 0.5884 0.3619 0.0
Cd85 Cd 0.90725 0.57776 0.38848 0.0
Cd86 Cd 0.94604 0.59614 0.3922 0.0
O87 O 0.94696 0.6073 0.36627 0.0
O88 O 0.8789 0.56634 0.38688 0.0
O89 O 0.89684 0.59058 0.40535 0.0
C90 C 0.88009 0.57873 0.39883 0.0
C91 C 0.96065 0.61477 0.41836 0.0
C92 C 0.93239 0.60065 0.35574 0.0
C93 C 0.92538 0.55369 0.39618 0.0
O94 O 0.94141 0.56856 0.39288 0.0
O95 O 0.91012 0.55468 0.39687 0.0
O96 O 0.9706 0.61273 0.40546 0.0
O97 O 0.94234 0.60689 0.41596 0.0
O98 O 0.33278 0.91704 0.86035 0.0
Cd99 Cd 0.33482 0.90682 0.88598 0.0
Cd100 Cd 0.35425 0.94537 0.89285 0.0
O101 O 0.34536 0.94782 0.86659 0.0
O102 O 0.3177 0.87866 0.883 0.0
O103 O 0.31176 0.8957 0.90307 0.0
C104 C 0.30659 0.87933 0.89543 0.0
C105 C 0.34884 0.95881 0.91916 0.0
C106 C 0.33734 0.93391 0.85526 0.0
C107 C 0.37673 0.92491 0.8952 0.0
O108 O 0.37733 0.94098 0.8946 0.0
O109 O 0.36088 0.90941 0.8932 0.0
O110 O 0.36154 0.96931 0.90701 0.0
O111 O 0.33847 0.94065 0.91587 0.0
O112 O 0.41916 0.32918 0.36022 0.0
Cd113 Cd 0.43181 0.3315 0.38571 0.0
Cd114 Cd 0.41355 0.35196 0.39265 0.0
O115 O 0.40214 0.34309 0.36643 0.0
O116 O 0.44218 0.31372 0.38337 0.0
O117 O 0.41974 0.30914 0.40359 0.0
C118 C 0.43061 0.30337 0.39628 0.0
C119 C 0.39462 0.3481 0.41858 0.0
C120 C 0.40732 0.33439 0.35517 0.0
C121 C 0.45659 0.37347 0.39452 0.0
O122 O 0.44134 0.37447 0.39434 0.0
O123 O 0.4558 0.35742 0.39229 0.0
O124 O 0.39779 0.36082 0.40612 0.0
O125 O 0.4015 0.33682 0.41584 0.0
O126 O 0.09172 0.41638 0.86164 0.0
Cd127 Cd 0.10323 0.42888 0.88692 0.0
Cd128 Cd 0.0642 0.41218 0.89436 0.0
O129 O 0.0607 0.40149 0.86766 0.0
O130 O 0.13107 0.43837 0.8832 0.0
O131 O 0.11385 0.41654 0.90413 0.0
C132 C 0.13019 0.42694 0.89609 0.0
C133 C 0.04761 0.39312 0.91975 0.0
C134 C 0.07445 0.40579 0.85644 0.0
C135 C 0.08826 0.4553 0.8969 0.0
O136 O 0.07164 0.44055 0.89709 0.0
O137 O 0.10292 0.45366 0.89387 0.0
O138 O 0.03924 0.39824 0.90766 0.0
O139 O 0.0653 0.39795 0.91687 0.0
O140 O 0.67605 0.08934 0.36219 0.0
Cd141 Cd 0.67392 0.09947 0.38785 0.0
Cd142 Cd 0.65327 0.06038 0.39402 0.0
O143 O 0.66182 0.05824 0.36751 0.0
O144 O 0.69114 0.12763 0.38493 0.0
O145 O 0.69679 0.11057 0.40518 0.0
C146 C 0.70203 0.12697 0.39758 0.0
C147 C 0.65725 0.04482 0.41947 0.0
C148 C 0.67066 0.07242 0.35662 0.0
C149 C 0.63194 0.08205 0.39697 0.0
O150 O 0.63088 0.06578 0.39634 0.0
O151 O 0.64798 0.09732 0.39488 0.0
O152 O 0.64444 0.03552 0.40699 0.0
O153 O 0.66855 0.063 0.41699 0.0
O154 O 0.59107 0.67682 0.86056 0.0
Cd155 Cd 0.57818 0.67418 0.88598 0.0
Cd156 Cd 0.59679 0.65398 0.89293 0.0
O157 O 0.60834 0.6632 0.86678 0.0
O158 O 0.56734 0.69154 0.88341 0.0
O159 O 0.58974 0.69658 0.90384 0.0
C160 C 0.57873 0.70207 0.89635 0.0
C161 C 0.61558 0.65807 0.91901 0.0
C162 C 0.60309 0.67184 0.85553 0.0
C163 C 0.55382 0.63202 0.89459 0.0
O164 O 0.56916 0.63117 0.89438 0.0
O165 O 0.55446 0.64801 0.89247 0.0
O166 O 0.6131 0.64574 0.90634 0.0
O167 O 0.60807 0.66882 0.91644 0.0
O168 O 0.59051 0.91451 0.86097 0.0
Cd169 Cd 0.57783 0.90465 0.88652 0.0
Cd170 Cd 0.59746 0.94329 0.8935 0.0
O171 O 0.60886 0.94523 0.86735 0.0
O172 O 0.56653 0.87635 0.88435 0.0
O173 O 0.58939 0.89381 0.90436 0.0
C174 C 0.57806 0.87724 0.89715 0.0
C175 C 0.61649 0.95789 0.91946 0.0
C176 C 0.60301 0.93134 0.856 0.0
C177 C 0.55451 0.92349 0.89519 0.0
O178 O 0.57016 0.93938 0.89491 0.0
O179 O 0.55455 0.90782 0.89314 0.0
O180 O 0.61429 0.96782 0.9067 0.0
O181 O 0.60856 0.93958 0.91706 0.0
O182 O 0.67847 0.58973 0.36104 0.0
Cd183 Cd 0.67623 0.57711 0.38652 0.0
Cd184 Cd 0.65562 0.59527 0.39363 0.0
O185 O 0.66438 0.60655 0.36732 0.0
O186 O 0.69402 0.56674 0.38404 0.0
O187 O 0.69869 0.5892 0.40429 0.0
C188 C 0.70445 0.57835 0.3969 0.0
C189 C 0.65964 0.61442 0.41944 0.0
C190 C 0.67312 0.60146 0.35602 0.0
C191 C 0.63425 0.55227 0.39557 0.0
O192 O 0.63315 0.56748 0.39545 0.0
O193 O 0.65032 0.55314 0.39321 0.0
O194 O 0.64704 0.6114 0.4069 0.0
O195 O 0.67066 0.60721 0.41691 0.0
O196 O 0.09074 0.67511 0.86048 0.0
Cd197 Cd 0.10273 0.67419 0.88549 0.0
Cd198 Cd 0.06375 0.65189 0.89367 0.0
O199 O 0.05986 0.65907 0.86711 0.0
O200 O 0.13047 0.6924 0.88111 0.0
O201 O 0.11386 0.69734 0.9025 0.0
C202 C 0.12995 0.70316 0.89401 0.0
C203 C 0.04748 0.65465 0.91924 0.0
C204 C 0.07337 0.66846 0.85564 0.0
C205 C 0.0879 0.63286 0.89568 0.0
O206 O 0.07128 0.63098 0.89619 0.0
O207 O 0.10249 0.64913 0.89239 0.0
O208 O 0.03897 0.64103 0.90731 0.0
O209 O 0.06517 0.6674 0.91618 0.0
O210 O 0.41696 0.08979 0.36197 0.0
Cd211 Cd 0.42908 0.09951 0.38775 0.0
Cd212 Cd 0.41082 0.0606 0.3934 0.0
O213 O 0.39996 0.05866 0.36701 0.0
O214 O 0.44007 0.12774 0.38529 0.0
O215 O 0.41719 0.11035 0.40528 0.0
C216 C 0.42842 0.12688 0.39794 0.0
C217 C 0.39172 0.04646 0.4194 0.0
C218 C 0.40538 0.07294 0.35625 0.0
C219 C 0.45365 0.08189 0.39629 0.0
O220 O 0.43849 0.06561 0.39537 0.0
O221 O 0.45279 0.09717 0.39463 0.0
O222 O 0.39426 0.03631 0.40709 0.0
O223 O 0.39931 0.06467 0.41643 0.0
O224 O 0.3318 0.41559 0.85999 0.0
Cd225 Cd 0.33401 0.42838 0.88538 0.0
Cd226 Cd 0.35462 0.4103 0.89251 0.0
O227 O 0.34585 0.39873 0.86634 0.0
O228 O 0.31629 0.43878 0.88268 0.0
O229 O 0.31153 0.4165 0.90315 0.0
C230 C 0.30584 0.42734 0.89562 0.0
C231 C 0.35076 0.39156 0.91858 0.0
C232 C 0.3371 0.40379 0.85502 0.0
C233 C 0.37595 0.45335 0.89418 0.0
O234 O 0.37705 0.43814 0.89409 0.0
O235 O 0.35987 0.45245 0.89192 0.0
O236 O 0.36353 0.39469 0.90617 0.0
O237 O 0.33944 0.39836 0.91572 0.0
O238 O 0.9162 0.32963 0.36022 0.0
Cd239 Cd 0.90374 0.33152 0.3844 0.0
Cd240 Cd 0.94224 0.35235 0.39491 0.0
O241 O 0.94678 0.34635 0.36793 0.0
O242 O 0.87595 0.31309 0.38069 0.0
O243 O 0.89296 0.30951 0.40266 0.0
C244 C 0.87671 0.30321 0.39434 0.0
C245 C 0.95866 0.34895 0.42 0.0
C246 C 0.93379 0.33672 0.35605 0.0
C247 C 0.91897 0.37248 0.39576 0.0
O248 O 0.93487 0.37326 0.39886 0.0
O249 O 0.90468 0.35718 0.38976 0.0
O250 O 0.96705 0.36293 0.40844 0.0
O251 O 0.94103 0.33616 0.41679 0.0
O252 O 0.08969 0.4158 0.65435 0.0
Cd253 Cd 0.1008 0.4279 0.62884 0.0
Cd254 Cd 0.06161 0.4103 0.62199 0.0
O255 O 0.0586 0.39985 0.64872 0.0
O256 O 0.12874 0.43821 0.63284 0.0
O257 O 0.11215 0.41577 0.61221 0.0
C258 C 0.1283 0.42659 0.62037 0.0
C259 C 0.04539 0.39078 0.59673 0.0
C260 C 0.07258 0.40482 0.6598 0.0
C261 C 0.08477 0.45339 0.6188 0.0
O262 O 0.0683 0.43845 0.61918 0.0
O263 O 0.09973 0.45217 0.62139 0.0
O264 O 0.0367 0.39559 0.60876 0.0
O265 O 0.06325 0.39626 0.59957 0.0
O266 O 0.67669 0.08921 0.1543 0.0
Cd267 Cd 0.67456 0.09899 0.12846 0.0
Cd268 Cd 0.65452 0.06017 0.12247 0.0
O269 O 0.66324 0.05818 0.14894 0.0
O270 O 0.69159 0.12724 0.13099 0.0
O271 O 0.69752 0.10994 0.11125 0.0
C272 C 0.70261 0.12645 0.11854 0.0
C273 C 0.66 0.04632 0.09654 0.0
C274 C 0.67168 0.07237 0.15988 0.0
C275 C 0.6325 0.081 0.11936 0.0
O276 O 0.63163 0.06482 0.12027 0.0
O277 O 0.64849 0.09639 0.1212 0.0
O278 O 0.64724 0.03602 0.10872 0.0
O279 O 0.67039 0.06453 0.0996 0.0
O280 O 0.59034 0.67611 0.65543 0.0
Cd281 Cd 0.57762 0.67359 0.62995 0.0
Cd282 Cd 0.59656 0.65392 0.62288 0.0
O283 O 0.60803 0.66297 0.64907 0.0
O284 O 0.56669 0.69088 0.63239 0.0
O285 O 0.58931 0.69604 0.61216 0.0
C286 C 0.57817 0.70146 0.61953 0.0
C287 C 0.61527 0.65884 0.59654 0.0
C288 C 0.60252 0.67132 0.66041 0.0
C289 C 0.55359 0.63153 0.62115 0.0
O290 O 0.56904 0.63089 0.62134 0.0
O291 O 0.55401 0.6474 0.62333 0.0
O292 O 0.61301 0.64626 0.60884 0.0
O293 O 0.60762 0.66937 0.59967 0.0
O294 O 0.91383 0.58783 0.15287 0.0
Cd295 Cd 0.90326 0.5756 0.1273 0.0
Cd296 Cd 0.94243 0.59256 0.12112 0.0
O297 O 0.94502 0.60311 0.1478 0.0
O298 O 0.8753 0.56582 0.13025 0.0
O299 O 0.89298 0.58801 0.10979 0.0
C300 C 0.87646 0.57743 0.11741 0.0
C301 C 0.95914 0.61191 0.09592 0.0
C302 C 0.93088 0.59855 0.15858 0.0
C303 C 0.91883 0.54948 0.11818 0.0
O304 O 0.9354 0.56428 0.11848 0.0
O305 O 0.90401 0.55099 0.12059 0.0
O306 O 0.96756 0.60703 0.10815 0.0
O307 O 0.94128 0.60663 0.0985 0.0
O308 O 0.33105 0.91509 0.65537 0.0
Cd309 Cd 0.33345 0.90461 0.63 0.0
Cd310 Cd 0.35308 0.94329 0.62261 0.0
O311 O 0.34399 0.94582 0.64875 0.0
O312 O 0.31631 0.87647 0.63313 0.0
O313 O 0.31065 0.89331 0.6126 0.0
C314 C 0.30538 0.87701 0.62044 0.0
C315 C 0.34877 0.95788 0.59655 0.0
C316 C 0.33573 0.93206 0.6602 0.0
C317 C 0.37549 0.92265 0.62112 0.0
O318 O 0.37607 0.93871 0.62121 0.0
O319 O 0.35964 0.90718 0.62334 0.0
O320 O 0.36114 0.96778 0.60916 0.0
O321 O 0.33815 0.93962 0.59913 0.0
O322 O 0.41758 0.328 0.15505 0.0
Cd323 Cd 0.43047 0.33054 0.12964 0.0
Cd324 Cd 0.41188 0.35082 0.12269 0.0
O325 O 0.40048 0.34183 0.14889 0.0
O326 O 0.44107 0.31297 0.13218 0.0
O327 O 0.41876 0.30817 0.11174 0.0
C328 C 0.42966 0.30253 0.11922 0.0
C329 C 0.39292 0.34732 0.09689 0.0
C330 C 0.40567 0.33312 0.16011 0.0
C331 C 0.45495 0.37258 0.12096 0.0
O332 O 0.43961 0.37341 0.1211 0.0
O333 O 0.45433 0.35662 0.12317 0.0
O334 O 0.39612 0.35987 0.10955 0.0
O335 O 0.39979 0.336 0.09933 0.0
H336 H 0.38751 0.03923 0.33647 0.0
H337 H 0.38288 0.03575 0.30279 0.0
H338 H 0.40581 0.09669 0.29768 0.0
H339 H 0.4106 0.10037 0.33108 0.0
H340 H 0.36341 0.04876 0.27559 0.0
H341 H 0.44235 0.08378 0.26729 0.0
H342 H 0.43044 0.07382 0.28903 0.0
H343 H 0.43448 0.09683 0.28153 0.0
C344 C 0.39125 0.05184 0.32821 0.0
C345 C 0.39967 0.07012 0.33646 0.0
C346 C 0.38859 0.04982 0.30898 0.0
C347 C 0.39429 0.06601 0.29777 0.0
C348 C 0.40156 0.08406 0.30609 0.0
H349 H 0.41321 0.10117 0.18502 0.0
H350 H 0.40768 0.09717 0.2183 0.0
C351 C 0.40428 0.08611 0.32521 0.0
C352 C 0.3942 0.06454 0.27732 0.0
H353 H 0.42429 0.07995 0.24009 0.0
C354 C 0.37667 0.05538 0.26777 0.0
C355 C 0.41155 0.07306 0.26721 0.0
C356 C 0.4308 0.08228 0.27675 0.0
C357 C 0.37611 0.05532 0.24828 0.0
C358 C 0.3935 0.0645 0.23823 0.0
C359 C 0.41097 0.07307 0.24783 0.0
C360 C 0.39419 0.06625 0.21776 0.0
C361 C 0.35699 0.04609 0.23857 0.0
C362 C 0.38809 0.05013 0.20633 0.0
C363 C 0.39122 0.05236 0.18717 0.0
C364 C 0.40066 0.07078 0.17919 0.0
C365 C 0.40601 0.08679 0.19066 0.0
C366 C 0.40284 0.08454 0.20972 0.0
H367 H 0.34499 0.0426 0.2483 0.0
H368 H 0.35691 0.05567 0.22756 0.0
H369 H 0.35442 0.0326 0.23189 0.0
H370 H 0.38164 0.03591 0.21229 0.0
H371 H 0.38699 0.03974 0.17875 0.0
H372 H 0.35135 0.38336 0.67799 0.0
H373 H 0.349 0.37553 0.71105 0.0
H374 H 0.3129 0.40031 0.7194 0.0
H375 H 0.315 0.40799 0.68658 0.0
H376 H 0.3615 0.40248 0.73926 0.0
H377 H 0.28443 0.35038 0.74833 0.0
H378 H 0.29594 0.356 0.72592 0.0
H379 H 0.28832 0.37147 0.73621 0.0
C380 C 0.3426 0.38679 0.68681 0.0
C381 C 0.33339 0.39634 0.67962 0.0
C382 C 0.3413 0.38233 0.7057 0.0
C383 C 0.33056 0.38709 0.71766 0.0
C384 C 0.32091 0.3961 0.71039 0.0
H385 H 0.31705 0.41011 0.82818 0.0
H386 H 0.31523 0.40255 0.79531 0.0
C387 C 0.32227 0.40063 0.6916 0.0
C388 C 0.33084 0.38451 0.73798 0.0
H389 H 0.30157 0.36752 0.77579 0.0
C390 C 0.34846 0.39447 0.74727 0.0
C391 C 0.31381 0.37406 0.74838 0.0
C392 C 0.29458 0.36221 0.73918 0.0
C393 C 0.34938 0.39534 0.76669 0.0
C394 C 0.33222 0.38572 0.77708 0.0
C395 C 0.3147 0.37494 0.7678 0.0
C396 C 0.33198 0.3884 0.79739 0.0
C397 C 0.36857 0.40752 0.77589 0.0
C398 C 0.34158 0.38247 0.8096 0.0
C399 C 0.34269 0.38681 0.82851 0.0
C400 C 0.33419 0.39713 0.8355 0.0
C401 C 0.32388 0.40226 0.8233 0.0
C402 C 0.32277 0.3979 0.80448 0.0
H403 H 0.37993 0.41659 0.7658 0.0
H404 H 0.36762 0.41698 0.78653 0.0
H405 H 0.37296 0.39808 0.78293 0.0
H406 H 0.34853 0.37484 0.80445 0.0
H407 H 0.35066 0.38257 0.83752 0.0
H408 H 0.90973 0.31499 0.18892 0.0
H409 H 0.91651 0.31449 0.22174 0.0
H410 H 0.97654 0.35348 0.21175 0.0
H411 H 0.96987 0.35423 0.17871 0.0
H412 H 0.94191 0.3051 0.24095 0.0
H413 H 0.96116 0.38135 0.25052 0.0
H414 H 0.94894 0.36789 0.23009 0.0
H415 H 0.97403 0.37636 0.2331 0.0
C416 C 0.92443 0.32335 0.1936 0.0
C417 C 0.93923 0.33481 0.18116 0.0
C418 C 0.92828 0.323 0.2124 0.0
C419 C 0.94697 0.33415 0.21923 0.0
C420 C 0.96196 0.34499 0.20679 0.0
H421 H 0.96897 0.35617 0.33887 0.0
H422 H 0.97591 0.355 0.30593 0.0
C423 C 0.95813 0.34531 0.1879 0.0
C424 C 0.95028 0.33498 0.2395 0.0
H425 H 0.959 0.36384 0.27717 0.0
C426 C 0.94594 0.31802 0.24887 0.0
C427 C 0.95566 0.35188 0.24981 0.0
C428 C 0.96012 0.37042 0.24047 0.0
C429 C 0.94611 0.3173 0.2683 0.0
C430 C 0.95034 0.3339 0.27862 0.0
C431 C 0.95574 0.35113 0.26924 0.0
C432 C 0.94699 0.33317 0.29891 0.0
C433 C 0.94135 0.29867 0.27758 0.0
C434 C 0.92849 0.32125 0.3059 0.0
C435 C 0.92448 0.32192 0.32459 0.0
C436 C 0.93887 0.33461 0.33677 0.0
C437 C 0.95758 0.34616 0.32989 0.0
C438 C 0.96156 0.34554 0.31107 0.0
H439 H 0.94509 0.28983 0.26857 0.0
H440 H 0.94901 0.30117 0.29097 0.0
H441 H 0.92571 0.29032 0.28029 0.0
H442 H 0.9169 0.31191 0.29674 0.0
H443 H 0.90992 0.31283 0.32936 0.0
H444 H 0.62373 0.96623 0.6791 0.0
H445 H 0.63158 0.97127 0.71217 0.0
H446 H 0.60532 0.91019 0.72001 0.0
H447 H 0.59763 0.90503 0.68718 0.0
H448 H 0.60487 0.95751 0.74037 0.0
H449 H 0.65492 0.9299 0.74893 0.0
H450 H 0.64953 0.93614 0.72659 0.0
H451 H 0.63355 0.91321 0.73687 0.0
C452 C 0.61997 0.9539 0.6878 0.0
C453 C 0.61002 0.93522 0.68046 0.0
C454 C 0.62445 0.95681 0.7067 0.0
C455 C 0.61928 0.94113 0.71853 0.0
C456 C 0.60985 0.92254 0.71112 0.0
H457 H 0.59532 0.90462 0.82911 0.0
H458 H 0.6028 0.91009 0.7962 0.0
C459 C 0.60531 0.91961 0.69231 0.0
C460 C 0.62192 0.9438 0.73888 0.0
H461 H 0.63813 0.9304 0.77649 0.0
C462 C 0.61251 0.952 0.74828 0.0
C463 C 0.63191 0.9366 0.74917 0.0
C464 C 0.64321 0.92865 0.73985 0.0
C465 C 0.61172 0.95201 0.76771 0.0
C466 C 0.62084 0.94387 0.77799 0.0
C467 C 0.63108 0.93657 0.76859 0.0
C468 C 0.61822 0.94102 0.7983 0.0
C469 C 0.60015 0.95968 0.77705 0.0
C470 C 0.62488 0.95662 0.81052 0.0
C471 C 0.62061 0.95354 0.82945 0.0
C472 C 0.6096 0.9348 0.83645 0.0
C473 C 0.60372 0.91924 0.82423 0.0
C474 C 0.60802 0.92233 0.80538 0.0
H475 H 0.59139 0.96251 0.76703 0.0
H476 H 0.59046 0.94942 0.78765 0.0
H477 H 0.61 0.97334 0.78416 0.0
H478 H 0.63303 0.97116 0.80537 0.0
H479 H 0.62543 0.96584 0.83848 0.0
H480 H 0.6942 0.59617 0.3295 0.0
H481 H 0.69603 0.60353 0.29661 0.0
H482 H 0.66027 0.62869 0.30497 0.0
H483 H 0.65818 0.62119 0.33809 0.0
H484 H 0.64742 0.60162 0.27692 0.0
H485 H 0.72457 0.65322 0.26737 0.0
H486 H 0.72055 0.63209 0.27949 0.0
H487 H 0.71321 0.64775 0.28985 0.0
C488 C 0.68694 0.60355 0.32447 0.0
C489 C 0.67601 0.60806 0.33648 0.0
C490 C 0.68814 0.60788 0.30563 0.0
C491 C 0.67852 0.61691 0.29835 0.0
C492 C 0.66794 0.62186 0.31033 0.0
H493 H 0.65764 0.62229 0.17881 0.0
H494 H 0.66001 0.6296 0.21199 0.0
C495 C 0.6668 0.6176 0.32926 0.0
C496 C 0.67812 0.61939 0.27801 0.0
H497 H 0.70712 0.63631 0.24001 0.0
C498 C 0.66042 0.60955 0.26883 0.0
C499 C 0.69509 0.62974 0.2675 0.0
C500 C 0.71441 0.64146 0.27658 0.0
C501 C 0.65935 0.60875 0.24941 0.0
C502 C 0.67643 0.61832 0.2389 0.0
C503 C 0.69404 0.62893 0.24808 0.0
C504 C 0.67648 0.61583 0.21854 0.0
C505 C 0.64007 0.59673 0.24032 0.0
C506 C 0.68557 0.60634 0.21112 0.0
C507 C 0.68433 0.60223 0.19222 0.0
C508 C 0.674 0.60758 0.18028 0.0
C509 C 0.66562 0.61788 0.18761 0.0
C510 C 0.66686 0.62197 0.20659 0.0
H511 H 0.62878 0.58761 0.25046 0.0
H512 H 0.63567 0.60629 0.23354 0.0
H513 H 0.64086 0.58735 0.22951 0.0
H514 H 0.69312 0.60153 0.22007 0.0
H515 H 0.69107 0.59439 0.18708 0.0
H516 H 0.09824 0.68862 0.68727 0.0
H517 H 0.09242 0.6897 0.72024 0.0
H518 H 0.03162 0.65416 0.71129 0.0
H519 H 0.03731 0.65282 0.67808 0.0
H520 H 0.06953 0.70168 0.74008 0.0
H521 H 0.04445 0.624 0.74956 0.0
H522 H 0.05684 0.63685 0.72893 0.0
H523 H 0.03223 0.63021 0.73249 0.0
C524 C 0.08358 0.68114 0.69221 0.0
C525 C 0.06825 0.67047 0.68 0.0
C526 C 0.08029 0.68182 0.7111 0.0
C527 C 0.06163 0.67179 0.71826 0.0
C528 C 0.04617 0.66177 0.70607 0.0
H529 H 0.03848 0.65112 0.83785 0.0
H530 H 0.0325 0.65279 0.80477 0.0
C531 C 0.04945 0.66111 0.68709 0.0
C532 C 0.05876 0.67128 0.73861 0.0
H533 H 0.04804 0.64201 0.77627 0.0
C534 C 0.06457 0.68859 0.748 0.0
C535 C 0.0522 0.65417 0.74891 0.0
C536 C 0.04616 0.63523 0.73956 0.0
C537 C 0.06462 0.68937 0.76742 0.0
C538 C 0.05907 0.67245 0.77774 0.0
C539 C 0.05231 0.65497 0.76835 0.0
C540 C 0.0621 0.67285 0.79806 0.0
C541 C 0.07093 0.70837 0.77672 0.0
C542 C 0.08069 0.68359 0.80527 0.0
C543 C 0.08415 0.68264 0.82407 0.0
C544 C 0.06911 0.67083 0.83613 0.0
C545 C 0.05038 0.66042 0.82898 0.0
C546 C 0.04694 0.66133 0.81008 0.0
H547 H 0.06833 0.71802 0.7677 0.0
H548 H 0.06334 0.70649 0.79007 0.0
H549 H 0.08655 0.71554 0.77952 0.0
H550 H 0.0927 0.69223 0.79623 0.0
H551 H 0.09876 0.69083 0.82904 0.0
H552 H 0.96472 0.61557 0.17824 0.0
H553 H 0.96848 0.62057 0.21189 0.0
H554 H 0.90786 0.59935 0.21724 0.0
H555 H 0.90391 0.59429 0.1839 0.0
H556 H 0.95507 0.64131 0.2388 0.0
H557 H 0.92102 0.56248 0.24811 0.0
H558 H 0.93151 0.57425 0.22644 0.0
H559 H 0.90832 0.57021 0.23319 0.0
C560 C 0.95225 0.61228 0.18655 0.0
C561 C 0.93398 0.6043 0.17837 0.0
C562 C 0.95444 0.61516 0.20575 0.0
C563 C 0.9384 0.6101 0.21701 0.0
C564 C 0.92038 0.60316 0.20878 0.0
H565 H 0.90402 0.59142 0.33032 0.0
H566 H 0.90736 0.59612 0.29689 0.0
C567 C 0.91817 0.60027 0.18969 0.0
C568 C 0.93994 0.6105 0.23746 0.0
H569 H 0.92508 0.58089 0.27504 0.0
C570 C 0.94872 0.62816 0.24679 0.0
C571 C 0.9317 0.59329 0.24777 0.0
C572 C 0.92273 0.57395 0.23843 0.0
C573 C 0.94873 0.62898 0.26627 0.0
C574 C 0.93992 0.61171 0.27655 0.0
C575 C 0.93169 0.59412 0.26715 0.0
C576 C 0.93836 0.61127 0.29705 0.0
C577 C 0.95749 0.64825 0.27569 0.0
C578 C 0.95471 0.61856 0.30833 0.0
C579 C 0.95286 0.61593 0.32756 0.0
C580 C 0.9346 0.60582 0.3358 0.0
C581 C 0.9183 0.5992 0.32448 0.0
C582 C 0.92017 0.60187 0.30533 0.0
H583 H 0.96008 0.6599 0.26584 0.0
H584 H 0.94808 0.64807 0.28703 0.0
H585 H 0.97144 0.65161 0.28186 0.0
H586 H 0.96888 0.62558 0.30221 0.0
H587 H 0.96571 0.62114 0.33585 0.0
H588 H 0.31823 0.90705 0.82857 0.0
H589 H 0.31609 0.91225 0.79564 0.0
H590 H 0.34726 0.9734 0.80428 0.0
H591 H 0.34971 0.96835 0.83743 0.0
H592 H 0.30097 0.93223 0.77599 0.0
H593 H 0.37968 0.96443 0.76562 0.0
H594 H 0.36782 0.95165 0.78646 0.0
H595 H 0.37207 0.97549 0.78268 0.0
C596 C 0.32453 0.92164 0.82357 0.0
C597 C 0.33432 0.93729 0.83566 0.0
C598 C 0.32324 0.92457 0.80471 0.0
C599 C 0.33175 0.9432 0.79746 0.0
C600 C 0.34085 0.9589 0.80955 0.0
H601 H 0.3496 0.96677 0.67784 0.0
H602 H 0.34724 0.97226 0.7109 0.0
C603 C 0.34214 0.95598 0.82851 0.0
C604 C 0.33174 0.94583 0.77713 0.0
H605 H 0.36086 0.95902 0.73915 0.0
C606 C 0.31408 0.93833 0.76794 0.0
C607 C 0.34887 0.95388 0.76664 0.0
C608 C 0.36822 0.96173 0.77576 0.0
C609 C 0.31304 0.93806 0.74852 0.0
C610 C 0.33009 0.94517 0.73803 0.0
C611 C 0.34781 0.95357 0.74722 0.0
C612 C 0.3298 0.94219 0.71772 0.0
C613 C 0.29367 0.92986 0.73942 0.0
C614 C 0.32073 0.92349 0.71057 0.0
C615 C 0.32209 0.92031 0.69178 0.0
C616 C 0.33264 0.93576 0.67967 0.0
C617 C 0.34128 0.95455 0.68675 0.0
C618 C 0.33998 0.95772 0.70564 0.0
H619 H 0.28326 0.93112 0.74858 0.0
H620 H 0.29461 0.93716 0.72611 0.0
H621 H 0.28799 0.9144 0.73659 0.0
H622 H 0.31317 0.91126 0.71967 0.0
H623 H 0.31527 0.90565 0.68685 0.0
H624 H 0.41399 0.31451 0.32838 0.0
H625 H 0.4064 0.3125 0.29551 0.0
H626 H 0.37809 0.34526 0.30452 0.0
H627 H 0.38585 0.34759 0.33759 0.0
H628 H 0.37127 0.29837 0.27605 0.0
H629 H 0.41962 0.37682 0.26573 0.0
H630 H 0.42021 0.36468 0.2865 0.0
H631 H 0.40114 0.36977 0.28291 0.0
C632 C 0.406 0.32118 0.32347 0.0
C633 C 0.40071 0.3314 0.33564 0.0
C634 C 0.40163 0.31996 0.30464 0.0
C635 C 0.39194 0.32897 0.29752 0.0
C636 C 0.38586 0.33847 0.3097 0.0
H637 H 0.38578 0.34777 0.17825 0.0
H638 H 0.37828 0.34542 0.21139 0.0
C639 C 0.39022 0.33969 0.32861 0.0
C640 C 0.3892 0.32907 0.27722 0.0
H641 H 0.40545 0.35823 0.23928 0.0
C642 C 0.37853 0.31148 0.26801 0.0
C643 C 0.39861 0.3462 0.26676 0.0
C644 C 0.41066 0.36546 0.27588 0.0
C645 C 0.37753 0.3105 0.2486 0.0
C646 C 0.38776 0.32752 0.23812 0.0
C647 C 0.39763 0.34519 0.24734 0.0
C648 C 0.39014 0.32719 0.21777 0.0
C649 C 0.36578 0.2912 0.23948 0.0
C650 C 0.3992 0.31766 0.21034 0.0
C651 C 0.40353 0.319 0.1915 0.0
C652 C 0.399 0.33001 0.17962 0.0
C653 C 0.38939 0.3391 0.18698 0.0
C654 C 0.38513 0.33781 0.20591 0.0
H655 H 0.35408 0.28101 0.24872 0.0
H656 H 0.3594 0.29243 0.22628 0.0
H657 H 0.37514 0.28509 0.23641 0.0
H658 H 0.4036 0.30974 0.21926 0.0
H659 H 0.41095 0.31183 0.18636 0.0
H660 H 0.09926 0.40999 0.6858 0.0
H661 H 0.0947 0.40497 0.71908 0.0
H662 H 0.03397 0.38242 0.71246 0.0
H663 H 0.03836 0.38733 0.67887 0.0
H664 H 0.07835 0.42368 0.74023 0.0
H665 H 0.03849 0.34435 0.74921 0.0
H666 H 0.05254 0.35571 0.72875 0.0
H667 H 0.02991 0.35452 0.73208 0.0
C668 C 0.08485 0.40367 0.6913 0.0
C669 C 0.06918 0.39919 0.67962 0.0
C670 C 0.08229 0.40079 0.71036 0.0
C671 C 0.06402 0.39328 0.71823 0.0
C672 C 0.04817 0.38801 0.70663 0.0
H673 H 0.04004 0.38954 0.83777 0.0
H674 H 0.03517 0.38462 0.8042 0.0
C675 C 0.05072 0.39088 0.68744 0.0
C676 C 0.06215 0.39288 0.73868 0.0
H677 H 0.04631 0.36319 0.77633 0.0
C678 C 0.07122 0.41045 0.74811 0.0
C679 C 0.05268 0.37561 0.74889 0.0
C680 C 0.04289 0.35641 0.73932 0.0
C681 C 0.07153 0.41124 0.76749 0.0
C682 C 0.0628 0.39398 0.77775 0.0
C683 C 0.05306 0.37638 0.76838 0.0
C684 C 0.06491 0.39425 0.79814 0.0
C685 C 0.08144 0.43057 0.77687 0.0
C686 C 0.08309 0.40065 0.80583 0.0
C687 C 0.08593 0.4035 0.82487 0.0
C688 C 0.07062 0.39996 0.8367 0.0
C689 C 0.05215 0.39245 0.82907 0.0
C690 C 0.04933 0.38962 0.8099 0.0
H691 H 0.08323 0.44221 0.76738 0.0
H692 H 0.0733 0.43063 0.78925 0.0
H693 H 0.09589 0.43379 0.78149 0.0
H694 H 0.09526 0.4041 0.79697 0.0
H695 H 0.10031 0.40911 0.83024 0.0
H696 H 0.69247 0.0996 0.3311 0.0
H697 H 0.69354 0.09551 0.29777 0.0
H698 H 0.65611 0.03456 0.3036 0.0
H699 H 0.65498 0.03846 0.33723 0.0
H700 H 0.68896 0.04783 0.27644 0.0
H701 H 0.6437 0.08132 0.26723 0.0
H702 H 0.66444 0.09477 0.28156 0.0
H703 H 0.64576 0.07164 0.2891 0.0
C704 C 0.68464 0.08526 0.32541 0.0
C705 C 0.67343 0.06938 0.33685 0.0
C706 C 0.68528 0.08297 0.30633 0.0
C707 C 0.67468 0.06479 0.29823 0.0
C708 C 0.66434 0.04872 0.30963 0.0
H709 H 0.65712 0.03837 0.17905 0.0
H710 H 0.65812 0.03436 0.21263 0.0
C711 C 0.66372 0.05099 0.32882 0.0
C712 C 0.67335 0.06305 0.2778 0.0
H713 H 0.65842 0.07774 0.24022 0.0
C714 C 0.6821 0.05414 0.26846 0.0
C715 C 0.66425 0.07118 0.26749 0.0
C716 C 0.65384 0.08012 0.27682 0.0
C717 C 0.68278 0.05399 0.24898 0.0
C718 C 0.67435 0.06284 0.23873 0.0
C719 C 0.66502 0.07111 0.24812 0.0
C720 C 0.67574 0.06468 0.21829 0.0
C721 C 0.6931 0.04509 0.23947 0.0
C722 C 0.68547 0.08301 0.21035 0.0
C723 C 0.68486 0.08536 0.19128 0.0
C724 C 0.67441 0.06941 0.17968 0.0
C725 C 0.66535 0.05095 0.18757 0.0
C726 C 0.66595 0.04862 0.20675 0.0
H727 H 0.7014 0.04151 0.24938 0.0
H728 H 0.68248 0.03169 0.23244 0.0
H729 H 0.70301 0.05493 0.22875 0.0
H730 H 0.69309 0.09559 0.21902 0.0
H731 H 0.69211 0.09978 0.18571 0.0
H732 H 0.62427 0.65846 0.67803 0.0
H733 H 0.63185 0.6607 0.71114 0.0
H734 H 0.6029 0.69285 0.72012 0.0
H735 H 0.59547 0.69091 0.68721 0.0
H736 H 0.63795 0.70722 0.73979 0.0
H737 H 0.5902 0.62861 0.74967 0.0
H738 H 0.60881 0.63596 0.73259 0.0
H739 H 0.58957 0.64078 0.72894 0.0
C740 C 0.61972 0.66621 0.68701 0.0
C741 C 0.60909 0.67434 0.67996 0.0
C742 C 0.62398 0.66738 0.70595 0.0
C743 C 0.61766 0.67668 0.71813 0.0
C744 C 0.60784 0.68554 0.71098 0.0
H745 H 0.59768 0.69303 0.82927 0.0
H746 H 0.6052 0.69529 0.79639 0.0
C747 C 0.60357 0.68436 0.69214 0.0
C748 C 0.62029 0.6765 0.73845 0.0
H749 H 0.604 0.64713 0.77624 0.0
C750 C 0.63074 0.69406 0.74776 0.0
C751 C 0.61095 0.65931 0.74883 0.0
C752 C 0.59913 0.64006 0.7396 0.0
C753 C 0.63159 0.69495 0.76718 0.0
C754 C 0.62143 0.67786 0.77757 0.0
C755 C 0.61178 0.66022 0.76826 0.0
C756 C 0.61889 0.67805 0.79792 0.0
C757 C 0.64313 0.71422 0.7764 0.0
C758 C 0.62397 0.66749 0.80979 0.0
C759 C 0.6196 0.6661 0.82871 0.0
C760 C 0.60984 0.67504 0.83604 0.0
C761 C 0.60522 0.68598 0.82415 0.0
C762 C 0.60966 0.68742 0.80532 0.0
H763 H 0.65484 0.72454 0.76725 0.0
H764 H 0.63362 0.72018 0.77941 0.0
H765 H 0.64945 0.71301 0.78964 0.0
H766 H 0.63095 0.66 0.80433 0.0
H767 H 0.62328 0.65749 0.83744 0.0
H768 H 0.40374 0.12997 0.09522 0.0
H769 H 0.40193 0.15896 0.08848 0.0
H770 H 0.45276 0.19258 0.12114 0.0
H771 H 0.45475 0.16399 0.12779 0.0
H772 H 0.39826 0.1827 0.11475 0.0
H773 H 0.46448 0.22417 0.07379 0.0
H774 H 0.45371 0.19866 0.07752 0.0
H775 H 0.46882 0.21535 0.09497 0.0
C776 C 0.41467 0.14361 0.10072 0.0
C777 C 0.42941 0.14468 0.11201 0.0
C778 C 0.4136 0.16013 0.09688 0.0
C779 C 0.42739 0.17798 0.10406 0.0
C780 C 0.44222 0.17906 0.1151 0.0
H781 H 0.45306 0.2893 0.13084 0.0
H782 H 0.45077 0.25862 0.12381 0.0
C783 C 0.44324 0.16263 0.119 0.0
C784 C 0.42577 0.19539 0.10132 0.0
H785 H 0.45205 0.24249 0.08884 0.0
C786 C 0.40979 0.19568 0.1087 0.0
C787 C 0.44081 0.21228 0.09337 0.0
C788 C 0.45783 0.21258 0.08429 0.0
C789 C 0.40909 0.21277 0.10953 0.0
C790 C 0.42468 0.22991 0.10257 0.0
C791 C 0.44015 0.22935 0.09424 0.0
C792 C 0.42626 0.24885 0.1057 0.0
C793 C 0.39227 0.21264 0.11888 0.0
C794 C 0.41341 0.2537 0.09758 0.0
C795 C 0.41469 0.27136 0.10158 0.0
C796 C 0.42884 0.28439 0.11376 0.0
C797 C 0.44194 0.2796 0.12146 0.0
C798 C 0.44069 0.26207 0.11743 0.0
H799 H 0.38273 0.19877 0.12586 0.0
H800 H 0.39733 0.22431 0.12929 0.0
H801 H 0.38371 0.21517 0.10839 0.0
H802 H 0.40232 0.24379 0.0883 0.0
H803 H 0.40442 0.27465 0.0954 0.0
H804 H 0.13228 0.40194 0.59672 0.0
H805 H 0.16089 0.39874 0.59254 0.0
H806 H 0.19203 0.44519 0.63087 0.0
H807 H 0.16381 0.44849 0.63514 0.0
H808 H 0.20148 0.42874 0.58223 0.0
H809 H 0.194 0.3976 0.6523 0.0
H810 H 0.17437 0.39785 0.64046 0.0
H811 H 0.19245 0.41909 0.65181 0.0
C812 C 0.14528 0.41156 0.60412 0.0
C813 C 0.14571 0.42536 0.61638 0.0
C814 C 0.16159 0.40972 0.6017 0.0
C815 C 0.17844 0.42157 0.6116 0.0
C816 C 0.17906 0.43575 0.6233 0.0
H817 H 0.29144 0.44939 0.63504 0.0
H818 H 0.25994 0.44598 0.63027 0.0
C819 C 0.1629 0.43762 0.62569 0.0
C820 C 0.19537 0.41897 0.61045 0.0
H821 H 0.22447 0.40976 0.63763 0.0
C822 C 0.20637 0.42424 0.59418 0.0
C823 C 0.20162 0.413 0.62606 0.0
C824 C 0.18992 0.40638 0.64361 0.0
C825 C 0.22412 0.4248 0.59353 0.0
C826 C 0.23082 0.41984 0.60951 0.0
C827 C 0.21933 0.41366 0.62543 0.0
C828 C 0.25042 0.42262 0.61074 0.0
C829 C 0.23609 0.43164 0.57618 0.0
C830 C 0.25559 0.41072 0.60114 0.0
C831 C 0.27372 0.41261 0.60386 0.0
C832 C 0.28685 0.4264 0.61627 0.0
C833 C 0.2817 0.43859 0.62542 0.0
C834 C 0.26368 0.43667 0.62272 0.0
H835 H 0.22968 0.43676 0.56559 0.0
H836 H 0.25073 0.44346 0.57952 0.0
H837 H 0.23749 0.41972 0.57016 0.0
H838 H 0.24545 0.39964 0.59198 0.0
H839 H 0.27723 0.40297 0.59665 0.0
H840 H 0.84187 0.28758 0.13575 0.0
H841 H 0.81366 0.25687 0.12853 0.0
H842 H 0.84712 0.24355 0.09115 0.0
H843 H 0.8757 0.27449 0.09837 0.0
H844 H 0.79642 0.24208 0.09258 0.0
H845 H 0.82167 0.19716 0.12787 0.0
H846 H 0.83229 0.22249 0.13246 0.0
H847 H 0.83728 0.21449 0.11111 0.0
C848 C 0.84331 0.27819 0.12595 0.0
C849 C 0.86109 0.28347 0.1177 0.0
C850 C 0.82713 0.26064 0.12182 0.0
C851 C 0.82833 0.24788 0.10944 0.0
C852 C 0.84596 0.25313 0.1009 0.0
H853 H 0.73187 0.12946 0.0965 0.0
H854 H 0.76282 0.15847 0.0904 0.0
C855 C 0.86223 0.27082 0.10499 0.0
C856 C 0.81099 0.22906 0.10588 0.0
H857 H 0.79001 0.18156 0.11695 0.0
C858 C 0.79509 0.22879 0.09764 0.0
C859 C 0.80936 0.21173 0.11237 0.0
C860 C 0.82597 0.21132 0.12154 0.0
C861 C 0.77736 0.21178 0.09639 0.0
C862 C 0.77538 0.19467 0.10394 0.0
C863 C 0.79156 0.1947 0.11122 0.0
C864 C 0.7563 0.17726 0.10634 0.0
C865 C 0.76078 0.21239 0.08738 0.0
C866 C 0.74245 0.17819 0.11736 0.0
C867 C 0.7249 0.16175 0.12088 0.0
C868 C 0.72079 0.14393 0.11352 0.0
C869 C 0.73456 0.143 0.10227 0.0
C870 C 0.75225 0.15953 0.09881 0.0
H871 H 0.76587 0.22419 0.07709 0.0
H872 H 0.75098 0.19863 0.08036 0.0
H873 H 0.75253 0.21504 0.09813 0.0
H874 H 0.74541 0.1916 0.12368 0.0
H875 H 0.71467 0.163 0.12966 0.0
H876 H 0.55376 0.71378 0.63024 0.0
H877 H 0.55573 0.74431 0.62336 0.0
H878 H 0.60593 0.76087 0.58986 0.0
H879 H 0.60413 0.73012 0.59681 0.0
H880 H 0.61003 0.78869 0.61606 0.0
H881 H 0.54332 0.76349 0.5758 0.0
H882 H 0.53931 0.75058 0.5971 0.0
H883 H 0.5542 0.74884 0.57949 0.0
C884 C 0.56512 0.72378 0.62122 0.0
C885 C 0.57878 0.71949 0.61405 0.0
C886 C 0.56614 0.7412 0.6172 0.0
C887 C 0.58078 0.75475 0.60585 0.0
C888 C 0.59441 0.75052 0.59851 0.0
H889 H 0.6038 0.87432 0.59628 0.0
H890 H 0.60581 0.8455 0.58931 0.0
C891 C 0.59334 0.73296 0.60246 0.0
C892 C 0.58239 0.77374 0.60293 0.0
H893 H 0.55599 0.79444 0.59043 0.0
C894 C 0.59845 0.79009 0.61006 0.0
C895 C 0.56727 0.77551 0.59505 0.0
C896 C 0.55014 0.75869 0.58626 0.0
C897 C 0.59916 0.80789 0.61074 0.0
C898 C 0.5835 0.80936 0.60386 0.0
C899 C 0.56795 0.79326 0.59577 0.0
C900 C 0.58195 0.82676 0.60688 0.0
C901 C 0.61608 0.82466 0.61986 0.0
C902 C 0.56758 0.82566 0.61864 0.0
C903 C 0.56637 0.84198 0.62259 0.0
C904 C 0.57946 0.8598 0.61478 0.0
C905 C 0.59354 0.86081 0.60255 0.0
C906 C 0.59477 0.8444 0.59863 0.0
H907 H 0.62566 0.82039 0.62685 0.0
H908 H 0.62457 0.8356 0.60923 0.0
H909 H 0.61114 0.83144 0.63022 0.0
H910 H 0.55752 0.81219 0.62513 0.0
H911 H 0.5553 0.84064 0.63201 0.0
H912 H 0.73018 0.60456 0.09634 0.0
H913 H 0.76094 0.60663 0.08882 0.0
H914 H 0.74486 0.55595 0.1214 0.0
H915 H 0.71434 0.55374 0.12886 0.0
H916 H 0.78905 0.61032 0.11468 0.0
H917 H 0.7636 0.54445 0.07294 0.0
H918 H 0.74902 0.55532 0.07718 0.0
H919 H 0.75073 0.54001 0.09432 0.0
C920 C 0.73313 0.59373 0.10167 0.0
C921 C 0.7198 0.57897 0.11317 0.0
C922 C 0.7507 0.59495 0.09739 0.0
C923 C 0.75505 0.58127 0.10431 0.0
C924 C 0.74165 0.56643 0.11557 0.0
H925 H 0.83986 0.55456 0.12927 0.0
H926 H 0.81179 0.55746 0.12255 0.0
C927 C 0.72423 0.56526 0.11993 0.0
C928 C 0.77401 0.58295 0.10101 0.0
H929 H 0.79451 0.55664 0.08754 0.0
C930 C 0.7904 0.59884 0.10833 0.0
C931 C 0.77571 0.56797 0.09268 0.0
C932 C 0.75884 0.55107 0.08366 0.0
C933 C 0.80814 0.59944 0.1088 0.0
C934 C 0.80952 0.58385 0.10152 0.0
C935 C 0.7934 0.56854 0.09318 0.0
C936 C 0.82674 0.582 0.10451 0.0
C937 C 0.82497 0.61611 0.11814 0.0
C938 C 0.84447 0.5947 0.09634 0.0
C939 C 0.86067 0.59307 0.10015 0.0
C940 C 0.85935 0.57873 0.11221 0.0
C941 C 0.84144 0.56582 0.11998 0.0
C942 C 0.82533 0.56742 0.11613 0.0
H943 H 0.82084 0.62578 0.12518 0.0
H944 H 0.83146 0.61086 0.1285 0.0
H945 H 0.83608 0.62458 0.10765 0.0
H946 H 0.84579 0.60591 0.08714 0.0
H947 H 0.87426 0.6032 0.09393 0.0
H948 H 0.29207 0.84107 0.63408 0.0
H949 H 0.26059 0.81291 0.62952 0.0
H950 H 0.24504 0.84496 0.5926 0.0
H951 H 0.27679 0.87347 0.59705 0.0
H952 H 0.22529 0.8135 0.63817 0.0
H953 H 0.22868 0.79234 0.56539 0.0
H954 H 0.25007 0.80661 0.57892 0.0
H955 H 0.23656 0.81713 0.57032 0.0
C956 C 0.2821 0.84216 0.62479 0.0
C957 C 0.28694 0.85957 0.61598 0.0
C958 C 0.2641 0.82601 0.62221 0.0
C959 C 0.25053 0.82684 0.61069 0.0
C960 C 0.25541 0.84399 0.60139 0.0
H961 H 0.13201 0.72996 0.59795 0.0
H962 H 0.16075 0.76161 0.59361 0.0
C963 C 0.27352 0.86026 0.60399 0.0
C964 C 0.23093 0.81001 0.60973 0.0
H965 H 0.20084 0.77208 0.58248 0.0
C966 C 0.21983 0.80457 0.62592 0.0
C967 C 0.22381 0.79851 0.59369 0.0
C968 C 0.23534 0.80378 0.57604 0.0
C969 C 0.20211 0.78756 0.62672 0.0
C970 C 0.19544 0.7755 0.61101 0.0
C971 C 0.20606 0.78136 0.59451 0.0
C972 C 0.17843 0.75603 0.61221 0.0
C973 C 0.19083 0.78239 0.64455 0.0
C974 C 0.17907 0.74234 0.62369 0.0
C975 C 0.16283 0.72439 0.62618 0.0
C976 C 0.14554 0.71969 0.61719 0.0
C977 C 0.14509 0.73317 0.60511 0.0
C978 C 0.16147 0.75123 0.6026 0.0
H979 H 0.19512 0.7952 0.65338 0.0
H980 H 0.17521 0.7754 0.64176 0.0
H981 H 0.19356 0.77216 0.65244 0.0
H982 H 0.19212 0.74569 0.63102 0.0
H983 H 0.16376 0.71433 0.63547 0.0
H984 H 0.87769 0.60598 0.41986 0.0
H985 H 0.84878 0.60794 0.4265 0.0
H986 H 0.81465 0.55561 0.39601 0.0
H987 H 0.84317 0.55346 0.38949 0.0
H988 H 0.82442 0.61035 0.40029 0.0
H989 H 0.78401 0.5458 0.44368 0.0
H990 H 0.80943 0.55645 0.43947 0.0
H991 H 0.79237 0.54058 0.42266 0.0
C992 C 0.86397 0.59476 0.41482 0.0
C993 C 0.86273 0.57954 0.40418 0.0
C994 C 0.84749 0.59592 0.4186 0.0
C995 C 0.82951 0.58175 0.41201 0.0
C996 C 0.82828 0.56647 0.40161 0.0
H997 H 0.71774 0.55482 0.38582 0.0
H998 H 0.74859 0.5575 0.3928 0.0
C999 C 0.84466 0.56534 0.39778 0.0
C1000 C 0.8121 0.58338 0.4147 0.0
H1001 H 0.76526 0.55742 0.4281 0.0
C1002 C 0.81158 0.59903 0.40676 0.0
C1003 C 0.7954 0.56862 0.4232 0.0
C1004 C 0.79536 0.55201 0.4329 0.0
C1005 C 0.79443 0.59961 0.40592 0.0
C1006 C 0.77747 0.58424 0.41342 0.0
C1007 C 0.77826 0.56915 0.42228 0.0
C1008 C 0.75844 0.58246 0.41032 0.0
C1009 C 0.7943 0.61603 0.396 0.0
C1010 C 0.75358 0.59544 0.41814 0.0
C1011 C 0.73582 0.59393 0.41419 0.0
C1012 C 0.72271 0.57943 0.40233 0.0
C1013 C 0.72751 0.56621 0.39494 0.0
C1014 C 0.74514 0.56769 0.39894 0.0
H1015 H 0.80806 0.62544 0.3888 0.0
H1016 H 0.78251 0.61052 0.38568 0.0
H1017 H 0.79175 0.62485 0.40616 0.0
H1018 H 0.76357 0.60681 0.42714 0.0
H1019 H 0.73253 0.6043 0.42012 0.0
H1020 H 0.16537 0.71765 0.87875 0.0
H1021 H 0.19346 0.74905 0.88377 0.0
H1022 H 0.16211 0.7627 0.92349 0.0
H1023 H 0.13367 0.73098 0.9186 0.0
H1024 H 0.19364 0.78464 0.87766 0.0
H1025 H 0.21444 0.77743 0.94952 0.0
H1026 H 0.19953 0.75678 0.93531 0.0
H1027 H 0.18981 0.77056 0.94512 0.0
C1028 C 0.16441 0.7272 0.8887 0.0
C1029 C 0.14723 0.72181 0.89825 0.0
C1030 C 0.18051 0.74516 0.89154 0.0
C1031 C 0.1799 0.75815 0.90405 0.0
C1032 C 0.16293 0.75277 0.91393 0.0
H1033 H 0.2778 0.87597 0.91846 0.0
H1034 H 0.2459 0.84755 0.92266 0.0
C1035 C 0.1467 0.73469 0.91107 0.0
C1036 C 0.19685 0.77762 0.90569 0.0
H1037 H 0.23496 0.80599 0.93354 0.0
C1038 C 0.20253 0.78943 0.88997 0.0
C1039 C 0.20834 0.78385 0.9218 0.0
C1040 C 0.20289 0.77154 0.93894 0.0
C1041 C 0.21977 0.80696 0.88968 0.0
C1042 C 0.23177 0.81274 0.90543 0.0
C1043 C 0.22569 0.80145 0.9215 0.0
C1044 C 0.25142 0.82945 0.90457 0.0
C1045 C 0.22533 0.81896 0.8723 0.0
C1046 C 0.26514 0.82844 0.89344 0.0
C1047 C 0.28324 0.84451 0.89105 0.0
C1048 C 0.28804 0.86196 0.89976 0.0
C1049 C 0.27452 0.86275 0.91154 0.0
C1050 C 0.25632 0.84656 0.91396 0.0
H1051 H 0.21276 0.81501 0.86324 0.0
H1052 H 0.23218 0.83445 0.87573 0.0
H1053 H 0.23583 0.81666 0.8644 0.0
H1054 H 0.26166 0.8153 0.88622 0.0
H1055 H 0.29331 0.84333 0.88197 0.0
H1056 H 0.40294 0.12989 0.42118 0.0
H1057 H 0.401 0.15883 0.42777 0.0
H1058 H 0.45011 0.19194 0.3928 0.0
H1059 H 0.45226 0.16339 0.38632 0.0
H1060 H 0.45114 0.20977 0.42714 0.0
H1061 H 0.3821 0.18416 0.38962 0.0
H1062 H 0.38276 0.16897 0.40751 0.0
H1063 H 0.39649 0.17289 0.38677 0.0
C1064 C 0.41339 0.14338 0.41502 0.0
C1065 C 0.42769 0.14431 0.40315 0.0
C1066 C 0.4122 0.15986 0.41872 0.0
C1067 C 0.42528 0.17748 0.41059 0.0
C1068 C 0.43985 0.17849 0.39919 0.0
H1069 H 0.45464 0.29045 0.38594 0.0
H1070 H 0.4522 0.25978 0.39321 0.0
C1071 C 0.44102 0.16211 0.39547 0.0
C1072 C 0.42381 0.19496 0.41336 0.0
H1073 H 0.39777 0.21591 0.40029 0.0
C1074 C 0.43932 0.21104 0.42154 0.0
C1075 C 0.40834 0.19655 0.40613 0.0
C1076 C 0.39148 0.17981 0.3969 0.0
C1077 C 0.44016 0.22887 0.42198 0.0
C1078 C 0.42524 0.23074 0.41376 0.0
C1079 C 0.4092 0.21443 0.40655 0.0
C1080 C 0.42709 0.24979 0.41056 0.0
C1081 C 0.45725 0.24567 0.43085 0.0
C1082 C 0.41359 0.25431 0.41769 0.0
C1083 C 0.41494 0.27196 0.41352 0.0
C1084 C 0.42965 0.28522 0.40193 0.0
C1085 C 0.44316 0.28062 0.39495 0.0
C1086 C 0.44187 0.26312 0.39919 0.0
H1087 H 0.46391 0.24086 0.44146 0.0
H1088 H 0.4682 0.25369 0.42007 0.0
H1089 H 0.4532 0.25561 0.43742 0.0
H1090 H 0.40196 0.24413 0.42635 0.0
H1091 H 0.40426 0.27504 0.41903 0.0
H1092 H 0.29299 0.4512 0.88458 0.0
H1093 H 0.26235 0.44896 0.89154 0.0
H1094 H 0.24658 0.3993 0.92562 0.0
H1095 H 0.27744 0.40139 0.91859 0.0
H1096 H 0.21832 0.39468 0.89953 0.0
H1097 H 0.24365 0.46176 0.93927 0.0
H1098 H 0.25641 0.4656 0.9179 0.0
H1099 H 0.25833 0.4509 0.93558 0.0
C1100 C 0.28314 0.4399 0.89372 0.0
C1101 C 0.28769 0.42649 0.90106 0.0
C1102 C 0.26565 0.43872 0.89779 0.0
C1103 C 0.25231 0.42416 0.90934 0.0
C1104 C 0.25677 0.41076 0.91681 0.0
H1105 H 0.13299 0.40184 0.92004 0.0
H1106 H 0.16167 0.39945 0.92667 0.0
C1107 C 0.2744 0.41199 0.91281 0.0
C1108 C 0.2333 0.42247 0.91241 0.0
H1109 H 0.21261 0.4489 0.92481 0.0
C1110 C 0.21693 0.4063 0.90546 0.0
C1111 C 0.23154 0.43763 0.92022 0.0
C1112 C 0.2484 0.45487 0.92884 0.0
C1113 C 0.19911 0.40554 0.90486 0.0
C1114 C 0.19765 0.42126 0.91161 0.0
C1115 C 0.21378 0.4369 0.91957 0.0
C1116 C 0.18027 0.42282 0.90854 0.0
C1117 C 0.18227 0.38851 0.89596 0.0
C1118 C 0.18135 0.43696 0.89649 0.0
C1119 C 0.16511 0.43837 0.89272 0.0
C1120 C 0.14741 0.42571 0.901 0.0
C1121 C 0.14641 0.41177 0.91341 0.0
C1122 C 0.16274 0.41033 0.91715 0.0
H1123 H 0.18643 0.3787 0.88926 0.0
H1124 H 0.17128 0.38031 0.90665 0.0
H1125 H 0.17559 0.39335 0.8854 0.0
H1126 H 0.19474 0.44675 0.88973 0.0
H1127 H 0.16645 0.44932 0.88314 0.0
H1128 H 0.71494 0.16316 0.38484 0.0
H1129 H 0.74565 0.19178 0.39094 0.0
H1130 H 0.76123 0.15949 0.42753 0.0
H1131 H 0.73036 0.13046 0.4213 0.0
H1132 H 0.76214 0.21063 0.4246 0.0
H1133 H 0.80586 0.18355 0.39001 0.0
H1134 H 0.78024 0.17213 0.38697 0.0
H1135 H 0.78995 0.16904 0.40818 0.0
C1136 C 0.72481 0.16207 0.39426 0.0
C1137 C 0.72023 0.14447 0.4025 0.0
C1138 C 0.74238 0.1785 0.39776 0.0
C1139 C 0.75582 0.17773 0.40951 0.0
C1140 C 0.75117 0.16032 0.41819 0.0
H1141 H 0.87409 0.2757 0.41866 0.0
H1142 H 0.84536 0.24494 0.42606 0.0
C1143 C 0.73349 0.14379 0.4147 0.0
C1144 C 0.77476 0.19525 0.4121 0.0
H1145 H 0.82193 0.21559 0.39986 0.0
C1146 C 0.77527 0.21164 0.41946 0.0
C1147 C 0.7919 0.19652 0.40547 0.0
C1148 C 0.7921 0.17946 0.3971 0.0
C1149 C 0.79228 0.22944 0.41963 0.0
C1150 C 0.80915 0.23095 0.41202 0.0
C1151 C 0.80894 0.21437 0.40566 0.0
C1152 C 0.82644 0.24984 0.40856 0.0
C1153 C 0.79193 0.24661 0.42752 0.0
C1154 C 0.82532 0.26266 0.39618 0.0
C1155 C 0.84161 0.28006 0.39187 0.0
C1156 C 0.85943 0.28506 0.39982 0.0
C1157 C 0.86054 0.2723 0.41238 0.0
C1158 C 0.84418 0.25474 0.4166 0.0
H1159 H 0.78013 0.24225 0.43771 0.0
H1160 H 0.80573 0.25661 0.43434 0.0
H1161 H 0.78952 0.25442 0.41613 0.0
H1162 H 0.81186 0.25901 0.38953 0.0
H1163 H 0.84023 0.28951 0.38211 0.0
H1164 H 0.55518 0.71507 0.88459 0.0
H1165 H 0.55729 0.74569 0.89145 0.0
H1166 H 0.60571 0.76087 0.92712 0.0
H1167 H 0.6038 0.73008 0.92018 0.0
H1168 H 0.55579 0.76196 0.92614 0.0
H1169 H 0.62533 0.80571 0.88949 0.0
H1170 H 0.61086 0.78014 0.8862 0.0
H1171 H 0.62435 0.78949 0.90713 0.0
C1172 C 0.56625 0.72483 0.89397 0.0
C1173 C 0.57941 0.72016 0.90174 0.0
C1174 C 0.5674 0.74234 0.89791 0.0
C1175 C 0.58177 0.75564 0.90962 0.0
C1176 C 0.59466 0.75089 0.91784 0.0
H1177 H 0.60406 0.87444 0.91972 0.0
H1178 H 0.60578 0.84544 0.92662 0.0
C1179 C 0.59349 0.73327 0.91393 0.0
C1180 C 0.58327 0.77457 0.91263 0.0
H1181 H 0.60971 0.82177 0.90042 0.0
C1182 C 0.56771 0.7751 0.92077 0.0
C1183 C 0.59889 0.79171 0.90572 0.0
C1184 C 0.6158 0.79188 0.89653 0.0
C1185 C 0.56701 0.79215 0.92153 0.0
C1186 C 0.58209 0.80905 0.91364 0.0
C1187 C 0.59815 0.80878 0.90643 0.0
C1188 C 0.58049 0.82645 0.91081 0.0
C1189 C 0.54989 0.79182 0.93041 0.0
C1190 C 0.56577 0.82539 0.8996 0.0
C1191 C 0.5648 0.84183 0.89561 0.0
C1192 C 0.57857 0.85977 0.90268 0.0
C1193 C 0.59318 0.86082 0.91415 0.0
C1194 C 0.5942 0.84429 0.91808 0.0
H1195 H 0.54313 0.78021 0.94088 0.0
H1196 H 0.55394 0.80572 0.93718 0.0
H1197 H 0.53901 0.78908 0.91962 0.0
H1198 H 0.55529 0.81188 0.8935 0.0
H1199 H 0.55339 0.8405 0.88668 0.0
H1200 H 0.36634 0.99671 0.92856 0.0
H1201 H 0.36816 0.01034 0.95926 0.0
H1202 H 0.33077 0.95378 0.98099 0.0
H1203 H 0.3288 0.93996 0.95027 0.0
H1204 H 0.33726 0.00568 0.98645 0.0
H1205 H 0.38384 0.97676 0.00959 0.0
H1206 H 0.38002 0.97951 0.98542 0.0
H1207 H 0.36152 0.96028 0.9986 0.0
C1208 C 0.35823 0.98717 0.93978 0.0
C1209 C 0.34754 0.96722 0.93699 0.0
C1210 C 0.35926 0.995 0.95731 0.0
C1211 C 0.34975 0.98304 0.97239 0.0
C1212 C 0.3383 0.96322 0.96951 0.0
H1213 H 0.36969 0.00782 0.09001 0.0
H1214 H 0.3565 0.9921 0.06039 0.0
C1215 C 0.33715 0.95537 0.95194 0.0
C1216 C 0.35319 0.99119 0.99133 0.0
H1217 H 0.37724 0.99438 0.03123 0.0
C1218 C 0.34589 0.00315 0.99633 0.0
C1219 C 0.36447 0.98786 1.00413 0.0
C1220 C 0.37307 0.97551 0.99924 0.0
C1221 C 0.34952 0.01182 0.01391 0.0
C1222 C 0.36117 0.00882 0.0266 0.0
C1223 C 0.36826 0.99665 0.02158 0.0
C1224 C 0.36681 0.01849 0.04495 0.0
C1225 C 0.34061 0.02387 0.01878 0.0
C1226 C 0.3767 0.03859 0.04629 0.0
C1227 C 0.38407 0.04764 0.06331 0.0
C1228 C 0.382 0.03674 0.07925 0.0
C1229 C 0.37158 0.01663 0.07799 0.0
C1230 C 0.36403 0.00762 0.06105 0.0
H1231 H 0.32751 0.0197 0.01044 0.0
H1232 H 0.3368 0.02259 0.03368 0.0
H1233 H 0.351 0.03913 0.01573 0.0
H1234 H 0.37948 0.04734 0.03404 0.0
H1235 H 0.39219 0.06315 0.06378 0.0
H1236 H 0.37981 0.37085 0.42826 0.0
H1237 H 0.36811 0.37363 0.45866 0.0
H1238 H 0.37591 0.32778 0.47926 0.0
H1239 H 0.38777 0.32487 0.44881 0.0
H1240 H 0.33826 0.3304 0.48983 0.0
H1241 H 0.41025 0.39368 0.50352 0.0
H1242 H 0.39936 0.39238 0.48139 0.0
H1243 H 0.40669 0.37532 0.48703 0.0
C1244 C 0.37875 0.3611 0.43913 0.0
C1245 C 0.38488 0.34772 0.43613 0.0
C1246 C 0.37203 0.36272 0.45649 0.0
C1247 C 0.37124 0.35097 0.47116 0.0
C1248 C 0.37638 0.33693 0.46804 0.0
H1249 H 0.37254 0.37511 0.5879 0.0
H1250 H 0.37567 0.36307 0.55786 0.0
C1251 C 0.38317 0.33532 0.45066 0.0
C1252 C 0.36685 0.3547 0.4901 0.0
H1253 H 0.38637 0.3862 0.52598 0.0
C1254 C 0.34874 0.34254 0.49781 0.0
C1255 C 0.38063 0.37048 0.50043 0.0
C1256 C 0.4004 0.38373 0.49282 0.0
C1257 C 0.34398 0.34599 0.51561 0.0
C1258 C 0.35769 0.362 0.52581 0.0
C1259 C 0.37587 0.37395 0.51812 0.0
C1260 C 0.35371 0.36679 0.54453 0.0
C1261 C 0.32446 0.33239 0.52348 0.0
C1262 C 0.34006 0.37258 0.54712 0.0
C1263 C 0.33823 0.37953 0.56435 0.0
C1264 C 0.3501 0.38087 0.57924 0.0
C1265 C 0.36319 0.3743 0.57675 0.0
C1266 C 0.36501 0.36741 0.55957 0.0
H1267 H 0.31723 0.31862 0.51576 0.0
H1268 H 0.32556 0.32937 0.53829 0.0
H1269 H 0.31534 0.33909 0.52259 0.0
H1270 H 0.3314 0.37251 0.53562 0.0
H1271 H 0.32808 0.38454 0.56577 0.0
H1272 H 0.01673 0.39302 0.93493 0.0
H1273 H 1.0023 0.38083 0.96509 0.0
H1274 H 0.04058 0.35858 0.97381 0.0
H1275 H 0.05599 0.37197 0.94394 0.0
H1276 H 0.98338 0.34807 0.98041 0.0
H1277 H 0.05123 0.38858 0.01979 0.0
H1278 H 0.0498 0.39211 0.99537 0.0
H1279 H 0.05156 0.37191 1.00356 0.0
C1280 C 0.02205 0.38545 0.94321 0.0
C1281 C 0.03762 0.38361 0.93712 0.0
C1282 C 0.01375 0.37845 0.9605 0.0
C1283 C 0.02057 0.36912 0.97204 0.0
C1284 C 0.03546 0.3663 0.96553 0.0
H1285 H 0.95118 0.32045 0.07385 0.0
H1286 H 0.96637 0.32204 0.04395 0.0
C1287 C 0.04413 0.37378 0.94836 0.0
C1288 C 0.01224 0.36295 0.99094 0.0
H1289 H 0.02353 0.36861 0.03697 0.0
C1290 C 0.99218 0.35254 0.99279 0.0
C1291 C 0.02367 0.36884 1.00716 0.0
C1292 C 0.04523 0.38113 1.00644 0.0
C1293 C 0.98324 0.34864 0.01022 0.0
C1294 C 0.99467 0.35446 0.02643 0.0
C1295 C 0.01473 0.36407 0.02459 0.0
C1296 C 0.98635 0.3526 0.0453 0.0
C1297 C 0.96167 0.33937 0.01091 0.0
C1298 C 0.99319 0.36893 0.0566 0.0
C1299 C 0.98501 0.36788 0.0739 0.0
C1300 C 0.96954 0.35055 0.08025 0.0
C1301 C 0.96296 0.33405 0.06923 0.0
C1302 C 0.97152 0.335 0.05204 0.0
H1303 H 0.95566 0.3406 0.99748 0.0
H1304 H 0.95537 0.32389 0.01403 0.0
H1305 H 0.95709 0.34595 0.02182 0.0
H1306 H 0.00461 0.38269 0.05183 0.0
H1307 H 0.99038 0.38088 0.08201 0.0
H1308 H 0.68005 0.0607 0.45005 0.0
H1309 H 0.67718 0.04528 0.48006 0.0
H1310 H 0.6323 0.99175 0.45815 0.0
H1311 H 0.63498 0.00698 0.42824 0.0
H1312 H 0.62232 0.00433 0.49046 0.0
H1313 H 0.69134 0.00526 0.49908 0.0
H1314 H 0.69329 0.0277 0.49245 0.0
H1315 H 0.68264 0.00773 0.47678 0.0
C1316 C 0.66985 0.04555 0.4515 0.0
C1317 C 0.65769 0.0351 0.43675 0.0
C1318 C 0.66829 0.03674 0.46865 0.0
C1319 C 0.6546 0.01733 0.4713 0.0
C1320 C 0.643 0.00672 0.45639 0.0
H1321 H 0.62171 0.94151 0.56704 0.0
H1322 H 0.63309 0.95613 0.53647 0.0
C1323 C 0.64457 0.01548 0.43928 0.0
C1324 C 0.65091 0.00856 0.49001 0.0
H1325 H 0.67084 0.99623 0.52541 0.0
C1326 C 0.6329 1.00248 0.49805 0.0
C1327 C 0.66473 0.00613 0.49986 0.0
C1328 C 0.68406 0.01189 0.4916 0.0
C1329 C 0.62843 0.9943 0.51577 0.0
C1330 C 0.64234 0.99219 0.52576 0.0
C1331 C 0.66027 0.99798 0.51769 0.0
C1332 C 0.63827 0.98413 0.54472 0.0
C1333 C 0.60886 0.98797 0.52378 0.0
C1334 C 0.63793 0.99522 0.55952 0.0
C1335 C 0.63149 0.98696 0.57695 0.0
C1336 C 0.62519 0.96742 0.5799 0.0
C1337 C 0.62645 0.95659 0.56524 0.0
C1338 C 0.63297 0.96491 0.54778 0.0
H1339 H 0.59885 0.98816 0.51332 0.0
H1340 H 0.60256 0.97326 0.52954 0.0
H1341 H 0.61021 0.99771 0.53529 0.0
H1342 H 0.64198 0.01009 0.55739 0.0
H1343 H 0.63076 0.99575 0.58792 0.0
H1344 H 0.67725 0.61401 0.06537 0.0
H1345 H 0.67509 0.62597 0.03478 0.0
H1346 H 0.63995 0.64738 0.05762 0.0
H1347 H 0.6419 0.6354 0.08817 0.0
H1348 H 0.6374 0.6127 0.01762 0.0
H1349 H 0.6802 0.69202 0.02395 0.0
H1350 H 0.68398 0.6761 0.03875 0.0
H1351 H 0.66386 0.6795 0.0426 0.0
C1352 C 0.66941 0.62163 0.06397 0.0
C1353 C 0.6597 0.6237 0.0792 0.0
C1354 C 0.66817 0.62843 0.04648 0.0
C1355 C 0.65749 0.63769 0.04398 0.0
C1356 C 0.64849 0.64053 0.0593 0.0
H1357 H 0.6141 0.6738 0.95216 0.0
H1358 H 0.62597 0.66989 0.98214 0.0
C1359 C 0.64956 0.63358 0.07674 0.0
C1360 C 0.65393 0.64247 0.0251 0.0
H1361 H 0.66071 0.67958 0.99717 0.0
C1362 C 0.64266 0.62732 0.01304 0.0
C1363 C 0.66058 0.66154 0.01933 0.0
C1364 C 0.67295 0.67829 0.03174 0.0
C1365 C 0.63744 0.63067 0.9955 0.0
C1366 C 0.64421 0.64978 0.98958 0.0
C1367 C 0.65562 0.66496 1.00163 0.0
C1368 C 0.63904 0.65412 0.97115 0.0
C1369 C 0.62405 0.61361 0.98382 0.0
C1370 C 0.64311 0.64726 0.95489 0.0
C1371 C 0.63614 0.64926 0.93781 0.0
C1372 C 0.62531 0.65853 0.93657 0.0
C1373 C 0.62239 0.66658 0.95266 0.0
C1374 C 0.62915 0.66433 0.96981 0.0
H1375 H 0.61601 0.60044 0.99232 0.0
H1376 H 0.61357 0.61629 0.97635 0.0
H1377 H 0.63253 0.61082 0.97345 0.0
H1378 H 0.6512 0.63985 0.95548 0.0
H1379 H 0.63883 0.6431 0.92564 0.0
H1380 H 0.00988 0.63805 0.58676 0.0
H1381 H 0.99609 0.63617 0.55613 0.0
H1382 H 0.05223 0.67547 0.53465 0.0
H1383 H 0.06621 0.67754 0.56531 0.0
H1384 H 1.00005 0.66761 0.52946 0.0
H1385 H 0.03045 0.62262 0.50524 0.0
H1386 H 0.02727 0.62572 0.52949 0.0
H1387 H 0.04642 0.64479 0.51676 0.0
C1388 C 0.01928 0.64656 0.57562 0.0
C1389 C 0.03918 0.65785 0.57846 0.0
C1390 C 0.01135 0.64549 0.55813 0.0
C1391 C 0.02317 0.65554 0.54313 0.0
C1392 C 0.0429 0.66753 0.54607 0.0
H1393 H 0.99891 0.63733 0.42526 0.0
H1394 H 0.0144 0.64993 0.45509 0.0
C1395 C 0.05085 0.66873 0.5636 0.0
C1396 C 0.01501 0.65221 0.5242 0.0
H1397 H 0.0124 0.62894 0.48389 0.0
C1398 C 1.0028 0.65926 0.51941 0.0
C1399 C 0.01864 0.64131 0.51118 0.0
C1400 C 0.03131 0.63302 0.51584 0.0
C1401 C 0.99418 0.65577 0.50181 0.0
C1402 C 0.99748 0.64448 0.48889 0.0
C1403 C 0.00988 0.63763 0.49372 0.0
C1404 C 0.98791 0.63904 0.47048 0.0
C1405 C 0.98188 0.66446 0.49718 0.0
C1406 C 0.96782 0.62898 0.46904 0.0
C1407 C 0.9589 0.62194 0.45191 0.0
C1408 C 0.96991 0.62452 0.43593 0.0
C1409 C 0.99 0.63506 0.4373 0.0
C1410 C 0.99889 0.64226 0.45437 0.0
H1411 H 0.98581 0.67738 0.50573 0.0
H1412 H 0.98315 0.6685 0.48234 0.0
H1413 H 0.96667 0.65383 0.50014 0.0
H1414 H 0.95898 0.62584 0.48129 0.0
H1415 H 0.9434 0.61372 0.45136 0.0
H1416 H 0.61465 0.94084 0.95279 0.0
H1417 H 0.6268 0.95682 0.98264 0.0
H1418 H 0.65314 0.01184 0.95545 0.0
H1419 H 0.64051 0.99603 0.92573 0.0
H1420 H 0.66184 0.9816 0.99759 0.0
H1421 H 0.61821 0.01718 0.99191 0.0
H1422 H 0.61543 0.99856 0.97621 0.0
H1423 H 0.63469 0.02279 0.97308 0.0
C1424 C 0.62325 0.95633 0.95315 0.0
C1425 C 0.6264 0.96719 0.93694 0.0
C1426 C 0.63017 0.96545 0.97022 0.0
C1427 C 0.64045 0.98556 0.97137 0.0
C1428 C 0.64476 0.99634 0.955 0.0
H1429 H 0.67896 0.06475 0.06488 0.0
H1430 H 0.67687 0.05033 0.03447 0.0
C1431 C 0.63763 0.98727 0.93799 0.0
C1432 C 0.64573 0.99525 0.9897 0.0
H1433 H 0.63948 0.02619 0.01729 0.0
C1434 C 0.65697 0.99136 1.00189 0.0
C1435 C 0.63924 0.00789 0.9954 0.0
C1436 C 0.62607 0.01172 0.98356 0.0
C1437 C 0.66201 0.99991 0.01951 0.0
C1438 C 0.65562 0.01261 0.02507 0.0
C1439 C 0.64455 0.01661 0.01287 0.0
C1440 C 0.65922 0.02111 0.04388 0.0
C1441 C 0.67419 0.99539 0.03206 0.0
C1442 C 0.65018 0.00944 0.05928 0.0
C1443 C 0.65122 0.01762 0.07662 0.0
C1444 C 0.66135 0.03765 0.0789 0.0
C1445 C 0.67112 0.04928 0.06362 0.0
C1446 C 0.66992 0.04107 0.04622 0.0
H1447 H 0.68141 0.98882 0.02436 0.0
H1448 H 0.68523 0.00857 0.03911 0.0
H1449 H 0.66496 0.98514 0.04287 0.0
H1450 H 0.64161 0.99402 0.05771 0.0
H1451 H 0.64351 0.00826 0.08809 0.0
H1452 H 0.64309 0.63626 0.42604 0.0
H1453 H 0.64033 0.64937 0.45563 0.0
H1454 H 0.67358 0.6275 0.48197 0.0
H1455 H 0.67692 0.6149 0.45224 0.0
H1456 H 0.62231 0.62877 0.48493 0.0
H1457 H 0.69721 0.67958 0.50525 0.0
H1458 H 0.69081 0.67005 0.48209 0.0
H1459 H 0.69349 0.65616 0.50015 0.0
C1460 C 0.65017 0.6346 0.43805 0.0
C1461 C 0.66023 0.62454 0.43679 0.0
C1462 C 0.64856 0.64209 0.45498 0.0
C1463 C 0.65688 0.63962 0.47106 0.0
C1464 C 0.66743 0.63006 0.46973 0.0
H1465 H 0.63553 0.64108 0.58749 0.0
H1466 H 0.64727 0.63883 0.55688 0.0
C1467 C 0.66924 0.62275 0.45272 0.0
C1468 C 0.65281 0.64527 0.4894 0.0
H1469 H 0.67354 0.66982 0.5293 0.0
C1470 C 0.63355 0.63798 0.4945 0.0
C1471 C 0.66745 0.65722 0.50197 0.0
C1472 C 0.68839 0.66636 0.49702 0.0
C1473 C 0.62853 0.64188 0.5119 0.0
C1474 C 0.64313 0.65347 0.52457 0.0
C1475 C 0.66239 0.66095 0.51951 0.0
C1476 C 0.63842 0.65712 0.54343 0.0
C1477 C 0.6076 0.63311 0.51685 0.0
C1478 C 0.63007 0.66863 0.54609 0.0
C1479 C 0.62341 0.67004 0.56361 0.0
C1480 C 0.62488 0.65983 0.57872 0.0
C1481 C 0.6341 0.64906 0.57614 0.0
C1482 C 0.64086 0.64778 0.55866 0.0
H1483 H 0.59811 0.62222 0.50658 0.0
H1484 H 0.60479 0.62626 0.53071 0.0
H1485 H 0.60376 0.64455 0.51746 0.0
H1486 H 0.62815 0.67603 0.53449 0.0
H1487 H 0.61639 0.67845 0.56511 0.0
H1488 H 0.99102 0.61356 0.08138 0.0
H1489 H 0.00601 0.62661 0.05165 0.0
H1490 H 0.96577 0.64626 0.04181 0.0
H1491 H 0.94989 0.63203 0.07129 0.0
H1492 H 0.96839 0.63094 0.01241 0.0
H1493 H 0.04282 0.67826 0.0344 0.0
H1494 H 0.03525 0.65466 0.04286 0.0
H1495 H 0.02347 0.66742 0.0509 0.0
C1496 C 0.98553 0.62093 0.07305 0.0
C1497 C 0.96933 0.62186 0.07875 0.0
C1498 C 0.99426 0.62859 0.05605 0.0
C1499 C 0.98744 0.63795 0.04455 0.0
C1500 C 0.97145 0.63925 0.05042 0.0
H1501 H 0.05674 0.6845 0.94327 0.0
H1502 H 0.04108 0.68337 0.97277 0.0
C1503 C 0.9624 0.63116 0.0673 0.0
C1504 C 0.996 0.64478 0.02582 0.0
H1505 H 0.03874 0.66622 1.00276 0.0
C1506 C 0.98378 0.639 0.01036 0.0
C1507 C 0.01607 0.65582 0.02293 0.0
C1508 C 0.03008 0.66457 0.03871 0.0
C1509 C 0.99105 0.64284 0.99222 0.0
C1510 C 0.01113 0.65193 0.98936 0.0
C1511 C 0.02334 0.65883 1.0048 0.0
C1512 C 0.01968 0.65325 0.9707 0.0
C1513 C 0.97702 0.63708 0.97639 0.0
C1514 C 0.01298 0.63679 0.95962 0.0
C1515 C 0.02159 0.63755 0.94262 0.0
C1516 C 0.03755 0.65464 0.93651 0.0
C1517 C 0.04441 0.67113 0.94759 0.0
C1518 C 0.03548 0.67047 0.96447 0.0
H1519 H 0.9642 0.63799 0.98049 0.0
H1520 H 0.98357 0.64627 0.96404 0.0
H1521 H 0.97201 0.62195 0.9726 0.0
H1522 H 1.00139 0.62313 0.96433 0.0
H1523 H 0.01615 0.62449 0.93459 0.0
H1524 H 0.33314 0.94072 0.56337 0.0
H1525 H 0.3367 0.95658 0.53349 0.0
H1526 H 0.36606 0.01173 0.5604 0.0
H1527 H 0.36315 0.99603 0.59013 0.0
H1528 H 0.32644 0.98137 0.51873 0.0
H1529 H 0.40565 0.0167 0.52336 0.0
H1530 H 0.39001 0.99822 0.53926 0.0
H1531 H 0.39515 0.02252 0.54237 0.0
C1532 C 0.34014 0.95621 0.56295 0.0
C1533 C 0.3481 0.96714 0.57906 0.0
C1534 C 0.34218 0.96527 0.54585 0.0
C1535 C 0.35211 0.98537 0.54462 0.0
C1536 C 0.35887 0.99622 0.56091 0.0
H1537 H 0.39122 0.06464 0.45126 0.0
H1538 H 0.37928 0.05004 0.48168 0.0
C1539 C 0.35707 0.98722 0.57793 0.0
C1540 C 0.35628 0.99498 0.52624 0.0
H1541 H 0.3931 0.02586 0.49829 0.0
C1542 C 0.34101 0.9911 0.51427 0.0
C1543 C 0.37533 0.00757 0.52032 0.0
C1544 C 0.39248 0.01137 0.5319 0.0
C1545 C 0.34429 0.99964 0.49665 0.0
C1546 C 0.36329 0.01233 0.49089 0.0
C1547 C 0.37852 0.01629 0.50287 0.0
C1548 C 0.36794 0.0209 0.47211 0.0
C1549 C 0.32745 0.99514 0.48433 0.0
C1550 C 0.36529 0.00932 0.45663 0.0
C1551 C 0.37223 0.01761 0.43928 0.0
C1552 C 0.3819 0.03765 0.43707 0.0
C1553 C 0.38375 0.04917 0.45246 0.0
C1554 C 0.37697 0.04086 0.46986 0.0
H1555 H 0.31373 0.98839 0.49214 0.0
H1556 H 0.32941 0.00836 0.4775 0.0
H1557 H 0.32642 0.98504 0.47332 0.0
H1558 H 0.35862 0.99392 0.45812 0.0
H1559 H 0.37058 0.00834 0.42772 0.0
H1560 H 0.3774 0.36966 0.08819 0.0
H1561 H 0.3654 0.37286 0.05816 0.0
H1562 H 0.37476 0.32856 0.03581 0.0
H1563 H 0.38676 0.32516 0.06593 0.0
H1564 H 0.38854 0.38357 0.02627 0.0
H1565 H 0.32091 0.31451 0.01598 0.0
H1566 H 0.33164 0.32281 0.03851 0.0
H1567 H 0.34133 0.31254 0.02281 0.0
C1568 C 0.37659 0.36031 0.07702 0.0
C1569 C 0.38312 0.3472 0.07946 0.0
C1570 C 0.36972 0.36218 0.05985 0.0
C1571 C 0.36907 0.35088 0.04478 0.0
C1572 C 0.37484 0.33721 0.04733 0.0
H1573 H 0.37359 0.37694 0.92853 0.0
H1574 H 0.37629 0.36537 0.95902 0.0
C1575 C 0.38177 0.33534 0.06454 0.0
C1576 C 0.36432 0.3549 0.02607 0.0
H1577 H 0.33282 0.3355 0.99003 0.0
C1578 C 0.3763 0.37308 0.0184 0.0
C1579 C 0.34831 0.34121 0.01585 0.0
C1580 C 0.33468 0.3217 0.02371 0.0
C1581 C 0.3729 0.37785 1.00068 0.0
C1582 C 0.35714 0.36407 0.99032 0.0
C1583 C 0.34494 0.34597 0.99803 0.0
C1584 C 0.35352 0.36844 0.97135 0.0
C1585 C 0.3862 0.39761 0.99308 0.0
C1586 C 0.33944 0.37351 0.9681 0.0
C1587 C 0.33788 0.38022 0.95066 0.0
C1588 C 0.35037 0.38192 0.93621 0.0
C1589 C 0.36378 0.37587 0.93934 0.0
C1590 C 0.36535 0.36924 0.95675 0.0
H1591 H 0.39607 0.40748 1.00382 0.0
H1592 H 0.39492 0.39655 0.98174 0.0
H1593 H 0.37783 0.4039 0.98719 0.0
H1594 H 0.33022 0.37302 0.97925 0.0
H1595 H 0.3274 0.38475 0.94871 0.0
H1596 H 0.01336 0.38846 0.58184 0.0
H1597 H 0.9988 0.37523 0.55202 0.0
H1598 H 0.03996 0.35664 0.54276 0.0
H1599 H 0.0554 0.37104 0.57236 0.0
H1600 H 0.03732 0.3718 0.51325 0.0
H1601 H 0.9629 0.32338 0.53455 0.0
H1602 H 0.96992 0.34683 0.5431 0.0
H1603 H 0.98204 0.33444 0.55124 0.0
C1604 C 0.01915 0.38128 0.57362 0.0
C1605 C 0.03548 0.3807 0.57952 0.0
C1606 C 0.01066 0.37352 0.55657 0.0
C1607 C 0.01787 0.3644 0.54522 0.0
C1608 C 0.03399 0.36345 0.55127 0.0
H1609 H 0.94957 0.31861 0.44333 0.0
H1610 H 0.96516 0.31926 0.47272 0.0
C1611 C 0.04279 0.37164 0.56821 0.0
C1612 C 0.00957 0.35751 0.52642 0.0
H1613 H 0.96708 0.33576 0.50299 0.0
C1614 C 0.02196 0.36356 0.51107 0.0
C1615 C 0.98956 0.34623 0.52334 0.0
C1616 C 0.97542 0.33718 0.539 0.0
C1617 C 0.01487 0.35981 0.49287 0.0
C1618 C 0.99482 0.35053 0.48984 0.0
C1619 C 0.98246 0.3433 0.50516 0.0
C1620 C 0.98641 0.34946 0.47117 0.0
C1621 C 0.02908 0.3659 0.47715 0.0
C1622 C 0.99308 0.36612 0.4604 0.0
C1623 C 0.98452 0.36564 0.44347 0.0
C1624 C 0.96864 0.34862 0.4371 0.0
C1625 C 0.96183 0.33191 0.44784 0.0
C1626 C 0.97072 0.3323 0.46466 0.0
H1627 H 0.04191 0.36504 0.48128 0.0
H1628 H 0.02272 0.3569 0.46466 0.0
H1629 H 0.03404 0.38108 0.47359 0.0
H1630 H 0.00458 0.37973 0.46533 0.0
H1631 H 0.9899 0.37885 0.4357 0.0
H1632 H 0.46123 0.05167 0.11602 0.0
H1633 H 0.49218 0.05303 0.11403 0.0
H1634 H 0.52116 0.11478 0.11535 0.0
H1635 H 0.49029 0.11362 0.11757 0.0
H1636 H 0.52204 0.07098 0.08776 0.0
H1637 H 0.54579 0.10129 0.15827 0.0
H1638 H 0.52123 0.09091 0.15073 0.0
H1639 H 0.53878 0.11467 0.14351 0.0
C1640 C 0.47416 0.06556 0.11585 0.0
C1641 C 0.47325 0.08253 0.11711 0.0
C1642 C 0.49184 0.0663 0.11468 0.0
C1643 C 0.50896 0.08399 0.11484 0.0
C1644 C 0.50812 0.10097 0.11557 0.0
H1645 H 0.62866 0.11294 0.11812 0.0
H1646 H 0.59902 0.11418 0.11549 0.0
C1647 C 0.49044 0.10026 0.11674 0.0
C1648 C 0.52766 0.0846 0.11447 0.0
H1649 H 0.56812 0.09784 0.13988 0.0
C1650 C 0.53214 0.07686 0.09914 0.0
C1651 C 0.54079 0.0923 0.12934 0.0
C1652 C 0.53641 0.10013 0.14648 0.0
C1653 C 0.54949 0.07671 0.09822 0.0
C1654 C 0.56252 0.08421 0.11318 0.0
C1655 C 0.55813 0.09215 0.12841 0.0
C1656 C 0.58053 0.08345 0.11363 0.0
C1657 C 0.55383 0.06875 0.08115 0.0
C1658 C 0.57996 0.06574 0.11351 0.0
C1659 C 0.59686 0.06496 0.11501 0.0
C1660 C 0.61469 0.08189 0.11678 0.0
C1661 C 0.61521 0.09963 0.11674 0.0
C1662 C 0.59828 0.10038 0.11525 0.0
H1663 H 0.5452 0.06861 0.06909 0.0
H1664 H 0.56926 0.07721 0.07748 0.0
H1665 H 0.55026 0.05376 0.08387 0.0
H1666 H 0.56639 0.05248 0.11266 0.0
H1667 H 0.5959 0.05105 0.11507 0.0
H1668 H 0.54736 0.59517 0.61603 0.0
H1669 H 0.51662 0.56539 0.61406 0.0
H1670 H 0.48687 0.59717 0.61989 0.0
H1671 H 0.51755 0.6271 0.62165 0.0
H1672 H 0.4883 0.55089 0.64118 0.0
H1673 H 0.46006 0.56258 0.57532 0.0
H1674 H 0.48497 0.57668 0.58185 0.0
H1675 H 0.46747 0.58159 0.59194 0.0
C1676 C 0.5343 0.59589 0.61671 0.0
C1677 C 0.53495 0.61356 0.61899 0.0
C1678 C 0.51674 0.57883 0.61559 0.0
C1679 C 0.49947 0.57908 0.6166 0.0
C1680 C 0.50002 0.59668 0.6187 0.0
H1681 H 0.37989 0.48877 0.62248 0.0
H1682 H 0.40986 0.51953 0.6211 0.0
C1683 C 0.51759 0.61377 0.61981 0.0
C1684 C 0.48093 0.56081 0.61654 0.0
H1685 H 0.43865 0.53547 0.59316 0.0
C1686 C 0.47748 0.54747 0.63063 0.0
C1687 C 0.4668 0.55646 0.60283 0.0
C1688 C 0.47001 0.56998 0.58702 0.0
C1689 C 0.46019 0.52997 0.63151 0.0
C1690 C 0.44613 0.52553 0.61771 0.0
C1691 C 0.44949 0.53892 0.60369 0.0
C1692 C 0.42792 0.50696 0.61759 0.0
C1693 C 0.457 0.51652 0.6474 0.0
C1694 C 0.42813 0.48973 0.61563 0.0
C1695 C 0.41107 0.47215 0.61643 0.0
C1696 C 0.39342 0.47144 0.61911 0.0
C1697 C 0.39321 0.48878 0.62048 0.0
C1698 C 0.41032 0.50638 0.61968 0.0
H1699 H 0.46681 0.52404 0.65915 0.0
H1700 H 0.44199 0.5097 0.65246 0.0
H1701 H 0.45976 0.50502 0.64261 0.0
H1702 H 0.44154 0.48988 0.61363 0.0
H1703 H 0.41178 0.45912 0.61518 0.0
H1704 H 0.94777 0.40886 0.11467 0.0
H1705 H 0.94452 0.43732 0.11188 0.0
H1706 H 0.88346 0.40265 0.11981 0.0
H1707 H 0.88656 0.37403 0.12289 0.0
H1708 H 0.92304 0.44581 0.08702 0.0
H1709 H 0.8996 0.44408 0.15978 0.0
H1710 H 0.90996 0.42994 0.152 0.0
H1711 H 0.88545 0.42254 0.14668 0.0
C1712 C 0.93361 0.40722 0.1158 0.0
C1713 C 0.91743 0.38915 0.11915 0.0
C1714 C 0.9318 0.42353 0.11416 0.0
C1715 C 0.9138 0.42214 0.11591 0.0
C1716 C 0.89753 0.40408 0.11877 0.0
H1717 H 0.88606 0.51431 0.1197 0.0
H1718 H 0.88339 0.48272 0.11742 0.0
C1719 C 0.89933 0.38773 0.12043 0.0
C1720 C 0.91227 0.43972 0.11494 0.0
H1721 H 0.90139 0.46861 0.14065 0.0
C1722 C 0.91822 0.45076 0.09871 0.0
C1723 C 0.90594 0.44611 0.13021 0.0
C1724 C 0.90001 0.43518 0.14823 0.0
C1725 C 0.91816 0.46813 0.09737 0.0
C1726 C 0.91228 0.47475 0.11279 0.0
C1727 C 0.90586 0.46347 0.12885 0.0
C1728 C 0.91369 0.49382 0.11295 0.0
C1729 C 0.92437 0.47923 0.07947 0.0
C1730 C 0.93161 0.51052 0.11124 0.0
C1731 C 0.93321 0.52857 0.11256 0.0
C1732 C 0.9169 0.5303 0.11571 0.0
C1733 C 0.8989 0.51352 0.11721 0.0
C1734 C 0.89734 0.49545 0.11594 0.0
H1735 H 0.92303 0.46985 0.06761 0.0
H1736 H 0.91578 0.48624 0.0765 0.0
H1737 H 0.93965 0.49056 0.08058 0.0
H1738 H 0.94447 0.50959 0.10932 0.0
H1739 H 0.9473 0.54116 0.1114 0.0
H1740 H 0.38011 0.89113 0.62198 0.0
H1741 H 0.41018 0.89055 0.62077 0.0
H1742 H 0.44167 0.95199 0.61447 0.0
H1743 H 0.41178 0.9528 0.61587 0.0
H1744 H 0.43925 0.90385 0.59332 0.0
H1745 H 0.46655 0.94256 0.65988 0.0
H1746 H 0.44182 0.93219 0.6529 0.0
H1747 H 0.45972 0.95474 0.6434 0.0
C1748 C 0.39341 0.90453 0.62028 0.0
C1749 C 0.39352 0.92204 0.61919 0.0
C1750 C 0.41058 0.90415 0.61957 0.0
C1751 C 0.42816 0.92125 0.61785 0.0
C1752 C 0.42828 0.93867 0.61618 0.0
H1753 H 0.54761 0.95244 0.61714 0.0
H1754 H 0.51689 0.9515 0.61506 0.0
C1755 C 0.41115 0.93908 0.61689 0.0
C1756 C 0.44641 0.92095 0.61808 0.0
H1757 H 0.48826 0.93739 0.64204 0.0
C1758 C 0.44995 0.9111 0.604 0.0
C1759 C 0.46029 0.93038 0.63207 0.0
C1760 C 0.4569 0.94043 0.64803 0.0
C1761 C 0.46726 0.91083 0.60329 0.0
C1762 C 0.4812 0.92042 0.6172 0.0
C1763 C 0.47757 0.93013 0.63134 0.0
C1764 C 0.49973 0.92066 0.6174 0.0
C1765 C 0.47066 0.9007 0.58743 0.0
C1766 C 0.50028 0.9036 0.61943 0.0
C1767 C 0.51785 0.90407 0.62061 0.0
C1768 C 0.5352 0.92163 0.61992 0.0
C1769 C 0.53456 0.93866 0.61772 0.0
C1770 C 0.517 0.93817 0.61654 0.0
H1771 H 0.46083 0.89824 0.57566 0.0
H1772 H 0.48568 0.90906 0.58241 0.0
H1773 H 0.46814 0.88654 0.59225 0.0
H1774 H 0.48712 0.88996 0.62049 0.0
H1775 H 0.51781 0.89069 0.62238 0.0
H1776 H 0.62848 0.5168 0.12064 0.0
H1777 H 0.59919 0.48563 0.11812 0.0
H1778 H 0.5657 0.51374 0.11404 0.0
H1779 H 0.59487 0.54497 0.11635 0.0
H1780 H 0.5679 0.47089 0.14217 0.0
H1781 H 0.54576 0.47594 0.07067 0.0
H1782 H 0.56963 0.49174 0.0793 0.0
H1783 H 0.55032 0.49592 0.08512 0.0
C1784 C 0.61492 0.51639 0.11902 0.0
C1785 C 0.61405 0.53342 0.11867 0.0
C1786 C 0.59819 0.49855 0.11759 0.0
C1787 C 0.58031 0.49738 0.11564 0.0
C1788 C 0.57939 0.51433 0.11515 0.0
H1789 H 0.46156 0.40916 0.11669 0.0
H1790 H 0.49245 0.43878 0.11485 0.0
C1791 C 0.59609 0.53217 0.11659 0.0
C1792 C 0.56251 0.47844 0.11515 0.0
H1793 H 0.5226 0.45044 0.08931 0.0
C1794 C 0.55807 0.46631 0.13055 0.0
C1795 C 0.54972 0.47255 0.09997 0.0
C1796 C 0.55414 0.48462 0.08274 0.0
C1797 C 0.54088 0.4487 0.13143 0.0
C1798 C 0.52797 0.44291 0.11636 0.0
C1799 C 0.53253 0.45492 0.10085 0.0
C1800 C 0.50933 0.42475 0.11672 0.0
C1801 C 0.5364 0.43673 0.14876 0.0
C1802 C 0.50858 0.407 0.11802 0.0
C1803 C 0.49093 0.39 0.11913 0.0
C1804 C 0.47368 0.39045 0.11884 0.0
C1805 C 0.47453 0.40826 0.11703 0.0
C1806 C 0.49218 0.42522 0.11594 0.0
H1807 H 0.54555 0.44518 0.16058 0.0
H1808 H 0.52114 0.43064 0.15276 0.0
H1809 H 0.53902 0.42465 0.14615 0.0
H1810 H 0.52166 0.4063 0.11827 0.0
H1811 H 0.49082 0.37655 0.12039 0.0
H1812 H 0.11741 0.48872 0.61828 0.0
H1813 H 0.11963 0.52009 0.6158 0.0
H1814 H 0.05814 0.49257 0.61112 0.0
H1815 H 0.05575 0.4612 0.61333 0.0
H1816 H 0.078 0.52291 0.58589 0.0
H1817 H 0.10461 0.54433 0.65789 0.0
H1818 H 0.11842 0.53738 0.64366 0.0
H1819 H 0.09425 0.51994 0.64983 0.0
C1820 C 0.10436 0.48932 0.61662 0.0
C1821 C 0.08639 0.47242 0.61615 0.0
C1822 C 0.10566 0.50727 0.61531 0.0
C1823 C 0.08903 0.50865 0.61359 0.0
C1824 C 0.07115 0.49182 0.61253 0.0
H1825 H 0.0549 0.59421 0.6136 0.0
H1826 H 0.05736 0.56531 0.61063 0.0
C1827 C 0.06982 0.47389 0.61383 0.0
C1828 C 0.09009 0.52756 0.61326 0.0
H1829 H 0.10171 0.56705 0.63971 0.0
C1830 C 0.08325 0.53261 0.59762 0.0
C1831 C 0.09697 0.54018 0.62859 0.0
C1832 C 0.10385 0.5352 0.64603 0.0
C1833 C 0.08304 0.54993 0.59691 0.0
C1834 C 0.08954 0.56235 0.61238 0.0
C1835 C 0.09676 0.55749 0.62786 0.0
C1836 C 0.08825 0.58007 0.61317 0.0
C1837 C 0.07595 0.55482 0.57957 0.0
C1838 C 0.10478 0.59795 0.61587 0.0
C1839 C 0.10343 0.61453 0.61769 0.0
C1840 C 0.08548 0.61351 0.61699 0.0
C1841 C 0.06896 0.59556 0.61414 0.0
C1842 C 0.07034 0.57901 0.61231 0.0
H1843 H 0.07677 0.54685 0.56738 0.0
H1844 H 0.06073 0.55083 0.58149 0.0
H1845 H 0.08435 0.57042 0.5766 0.0
H1846 H 0.11873 0.59905 0.61671 0.0
H1847 H 0.11644 0.62809 0.61991 0.0
H1848 H 0.90057 0.52356 0.41774 0.0
H1849 H 0.89903 0.49256 0.42135 0.0
H1850 H 0.9452 0.51019 0.382 0.0
H1851 H 0.94764 0.54155 0.37945 0.0
H1852 H 0.8903 0.46481 0.39987 0.0
H1853 H 0.96513 0.49039 0.42023 0.0
H1854 H 0.95556 0.50634 0.41882 0.0
H1855 H 0.96476 0.50071 0.39842 0.0
C1856 C 0.91054 0.52084 0.41009 0.0
C1857 C 0.9244 0.535 0.39852 0.0
C1858 C 0.90964 0.50312 0.41211 0.0
C1859 C 0.92231 0.49909 0.40231 0.0
C1860 C 0.93579 0.51312 0.39034 0.0
H1861 H 0.89971 0.38508 0.37437 0.0
H1862 H 0.89972 0.41533 0.37723 0.0
C1863 C 0.93707 0.53101 0.38875 0.0
C1864 C 0.92092 0.47998 0.40392 0.0
H1865 H 0.94789 0.45831 0.40795 0.0
C1866 C 0.90288 0.46341 0.40192 0.0
C1867 C 0.93718 0.47796 0.40708 0.0
C1868 C 0.95667 0.49482 0.41148 0.0
C1869 C 0.90076 0.445 0.40237 0.0
C1870 C 0.91727 0.44308 0.40387 0.0
C1871 C 0.9352 0.45964 0.40648 0.0
C1872 C 0.91646 0.42421 0.40251 0.0
C1873 C 0.88075 0.4279 0.4016 0.0
C1874 C 0.92646 0.41929 0.41531 0.0
C1875 C 0.92714 0.40238 0.4132 0.0
C1876 C 0.91742 0.3898 0.39853 0.0
C1877 C 0.90705 0.39441 0.38598 0.0
C1878 C 0.9069 0.41164 0.38773 0.0
H1879 H 0.87016 0.43138 0.40762 0.0
H1880 H 0.87667 0.42379 0.38694 0.0
H1881 H 0.87972 0.41543 0.40918 0.0
H1882 H 0.934 0.42868 0.42682 0.0
H1883 H 0.93524 0.39912 0.42306 0.0
H1884 H 0.51814 0.89239 0.89491 0.0
H1885 H 0.4878 0.89244 0.89648 0.0
H1886 H 0.51872 0.95399 0.9019 0.0
H1887 H 0.54909 0.95416 0.90014 0.0
H1888 H 0.47302 0.90661 0.92408 0.0
H1889 H 0.48366 0.94442 0.85708 0.0
H1890 H 0.49784 0.9338 0.86391 0.0
H1891 H 0.50301 0.95659 0.87322 0.0
C1892 C 0.51851 0.90595 0.89649 0.0
C1893 C 0.53608 0.9233 0.89723 0.0
C1894 C 0.50115 0.90593 0.89741 0.0
C1895 C 0.50103 0.92324 0.89899 0.0
C1896 C 0.5185 0.94051 0.9003 0.0
H1897 H 0.41309 0.95518 0.89972 0.0
H1898 H 0.44292 0.9543 0.9019 0.0
C1899 C 0.53586 0.94056 0.89937 0.0
C1900 C 0.48265 0.92327 0.89904 0.0
H1901 H 0.45715 0.93972 0.87521 0.0
C1902 C 0.46949 0.91378 0.91338 0.0
C1903 C 0.47809 0.93261 0.88503 0.0
C1904 C 0.49129 0.9423 0.86883 0.0
C1905 C 0.45203 0.91373 0.91429 0.0
C1906 C 0.44754 0.92316 0.90032 0.0
C1907 C 0.46068 0.93258 0.88595 0.0
C1908 C 0.42925 0.92341 0.90019 0.0
C1909 C 0.43874 0.90395 0.93038 0.0
C1910 C 0.41166 0.90632 0.89851 0.0
C1911 C 0.39454 0.90674 0.89727 0.0
C1912 C 0.39473 0.92431 0.89757 0.0
C1913 C 0.41239 0.9414 0.89946 0.0
C1914 C 0.42947 0.94094 0.9007 0.0
H1915 H 0.44631 0.90177 0.94217 0.0
H1916 H 0.43212 0.91239 0.93528 0.0
H1917 H 0.42707 0.88967 0.92589 0.0
H1918 H 0.41119 0.89266 0.89771 0.0
H1919 H 0.38122 0.89333 0.89574 0.0
H1920 H 0.4636 0.41016 0.39916 0.0
H1921 H 0.49468 0.43956 0.40121 0.0
H1922 H 0.52329 0.40653 0.39725 0.0
H1923 H 0.49227 0.37701 0.39495 0.0
H1924 H 0.52484 0.45051 0.42685 0.0
H1925 H 0.54754 0.44588 0.35525 0.0
H1926 H 0.52307 0.43155 0.36303 0.0
H1927 H 0.54066 0.42509 0.36939 0.0
C1928 C 0.47648 0.4091 0.39875 0.0
C1929 C 0.47542 0.3912 0.39674 0.0
C1930 C 0.49424 0.42593 0.39996 0.0
C1931 C 0.51128 0.42524 0.3991 0.0
C1932 C 0.51031 0.4074 0.39759 0.0
H1933 H 0.63085 0.51664 0.39521 0.0
H1934 H 0.60145 0.48552 0.39759 0.0
C1935 C 0.49255 0.39054 0.39637 0.0
C1936 C 0.53003 0.44326 0.3996 0.0
H1937 H 0.57005 0.47124 0.37387 0.0
C1938 C 0.53475 0.45505 0.41529 0.0
C1939 C 0.54293 0.44911 0.3845 0.0
C1940 C 0.5383 0.43736 0.367 0.0
C1941 C 0.55208 0.47254 0.41631 0.0
C1942 C 0.56484 0.47852 0.4011 0.0
C1943 C 0.56025 0.46659 0.38552 0.0
C1944 C 0.58274 0.4974 0.40073 0.0
C1945 C 0.55665 0.48437 0.43373 0.0
C1946 C 0.58195 0.5144 0.40164 0.0
C1947 C 0.59871 0.53221 0.4003 0.0
C1948 C 0.6166 0.53338 0.39788 0.0
C1949 C 0.61734 0.5163 0.39711 0.0
C1950 C 0.60055 0.49849 0.39844 0.0
H1951 H 0.54832 0.47552 0.44575 0.0
H1952 H 0.57216 0.49138 0.43707 0.0
H1953 H 0.55287 0.49574 0.43168 0.0
H1954 H 0.56831 0.5139 0.403 0.0
H1955 H 0.59757 0.54505 0.40087 0.0
H1956 H 0.12113 0.49038 0.89499 0.0
H1957 H 0.12404 0.52205 0.89778 0.0
H1958 H 0.06318 0.49544 0.90717 0.0
H1959 H 0.06011 0.46382 0.90462 0.0
H1960 H 0.10598 0.53656 0.87547 0.0
H1961 H 0.08537 0.53487 0.94891 0.0
H1962 H 0.09222 0.51836 0.93955 0.0
H1963 H 0.06837 0.51432 0.936 0.0
C1964 C 0.10839 0.49125 0.89787 0.0
C1965 C 0.09038 0.47453 0.8996 0.0
C1966 C 0.11009 0.50937 0.89944 0.0
C1967 C 0.09388 0.51109 0.90295 0.0
C1968 C 0.07594 0.49445 0.90487 0.0
H1969 H 0.05978 0.59599 0.90267 0.0
H1970 H 0.0631 0.56755 0.90516 0.0
C1971 C 0.07421 0.47636 0.90327 0.0
C1972 C 0.09539 0.53021 0.90343 0.0
H1973 H 0.08493 0.55897 0.92986 0.0
C1974 C 0.10165 0.54162 0.88744 0.0
C1975 C 0.0897 0.53673 0.91907 0.0
C1976 C 0.08371 0.52552 0.93692 0.0
C1977 C 0.10158 0.55899 0.88637 0.0
C1978 C 0.09539 0.56526 0.90184 0.0
C1979 C 0.08962 0.5541 0.91801 0.0
C1980 C 0.09382 0.58282 0.90116 0.0
C1981 C 0.10735 0.57009 0.86844 0.0
C1982 C 0.11007 0.60092 0.89843 0.0
C1983 C 0.10824 0.61726 0.89695 0.0
C1984 C 0.09011 0.61579 0.89826 0.0
C1985 C 0.07395 0.59767 0.90151 0.0
C1986 C 0.07581 0.58138 0.90298 0.0
H1987 H 0.10776 0.56133 0.85675 0.0
H1988 H 0.09728 0.57525 0.86487 0.0
H1989 H 0.12187 0.58278 0.86999 0.0
H1990 H 0.12415 0.60239 0.89733 0.0
H1991 H 0.12099 0.63099 0.89457 0.0
H1992 H 0.62836 0.11418 0.39758 0.0
H1993 H 0.59885 0.11568 0.4002 0.0
H1994 H 0.56595 0.05406 0.40419 0.0
H1995 H 0.59531 0.05238 0.40181 0.0
H1996 H 0.56773 0.09908 0.3762 0.0
H1997 H 0.54529 0.07113 0.44742 0.0
H1998 H 0.56924 0.07942 0.43887 0.0
H1999 H 0.55009 0.05588 0.43295 0.0
C2000 C 0.61488 0.10095 0.39922 0.0
C2001 C 0.61423 0.08315 0.39951 0.0
C2002 C 0.59802 0.10184 0.4007 0.0
C2003 C 0.58024 0.08501 0.40265 0.0
C2004 C 0.57955 0.06726 0.4031 0.0
H2005 H 0.46088 0.05225 0.40002 0.0
H2006 H 0.49206 0.05413 0.4022 0.0
C2007 C 0.59637 0.06633 0.40161 0.0
C2008 C 0.56227 0.08587 0.4031 0.0
H2009 H 0.52185 0.07282 0.42856 0.0
C2010 C 0.55778 0.09355 0.38773 0.0
C2011 C 0.54932 0.07858 0.41814 0.0
C2012 C 0.55377 0.07095 0.43536 0.0
C2013 C 0.54038 0.09357 0.38673 0.0
C2014 C 0.52729 0.086 0.40164 0.0
C2015 C 0.53191 0.07859 0.41714 0.0
C2016 C 0.50846 0.0851 0.40113 0.0
C2017 C 0.53588 0.10109 0.36944 0.0
C2018 C 0.50735 0.10192 0.40019 0.0
C2019 C 0.48954 0.10091 0.39891 0.0
C2020 C 0.4725 0.08304 0.39865 0.0
C2021 C 0.47369 0.06624 0.40011 0.0
C2022 C 0.4915 0.06728 0.40138 0.0
H2023 H 0.54535 0.10229 0.35772 0.0
H2024 H 0.52074 0.09164 0.3652 0.0
H2025 H 0.53799 0.11556 0.37225 0.0
H2026 H 0.52026 0.11583 0.40032 0.0
H2027 H 0.48916 0.11414 0.39792 0.0
H2028 H 0.51801 0.62814 0.89443 0.0
H2029 H 0.4871 0.5985 0.89681 0.0
H2030 H 0.51614 0.56595 0.90165 0.0
H2031 H 0.54709 0.59545 0.8995 0.0
H2032 H 0.47301 0.56711 0.87297 0.0
H2033 H 0.47808 0.54559 0.94472 0.0
H2034 H 0.49363 0.5695 0.93602 0.0
H2035 H 0.49827 0.55042 0.93047 0.0
C2036 C 0.51785 0.6147 0.89619 0.0
C2037 C 0.53506 0.6142 0.89681 0.0
C2038 C 0.50016 0.59778 0.89753 0.0
C2039 C 0.49933 0.58006 0.89967 0.0
C2040 C 0.51646 0.57951 0.9004 0.0
H2041 H 0.41274 0.4606 0.89861 0.0
H2042 H 0.44202 0.4918 0.90047 0.0
C2043 C 0.53415 0.5964 0.89905 0.0
C2044 C 0.48057 0.56204 0.90012 0.0
H2045 H 0.45302 0.522 0.92598 0.0
C2046 C 0.46853 0.55732 0.88463 0.0
C2047 C 0.47481 0.5493 0.91533 0.0
C2048 C 0.48678 0.554 0.93266 0.0
C2049 C 0.45113 0.53992 0.8837 0.0
C2050 C 0.44548 0.52705 0.89881 0.0
C2051 C 0.4574 0.53188 0.91441 0.0
C2052 C 0.42753 0.50823 0.89843 0.0
C2053 C 0.43925 0.53516 0.86629 0.0
C2054 C 0.40963 0.50713 0.89704 0.0
C2055 C 0.39283 0.48931 0.89593 0.0
C2056 C 0.39363 0.47224 0.8963 0.0
C2057 C 0.41158 0.47343 0.89821 0.0
C2058 C 0.42835 0.49125 0.8993 0.0
H2059 H 0.44765 0.54437 0.85448 0.0
H2060 H 0.43348 0.51992 0.86235 0.0
H2061 H 0.42695 0.53746 0.86877 0.0
H2062 H 0.40866 0.52007 0.89671 0.0
H2063 H 0.37926 0.48893 0.8946 0.0
loop_
_geom_bond_atom_site_label_1
_geom_bond_atom_site_label_2
_geom_bond_distance
_geom_bond_site_symmetry_2
_ccdc_geom_bond_type
O0 Cd1 2.223 . S
O0 C8 1.315 . S
Cd1 O0 2.223 . S
Cd1 O4 2.297 . S
Cd1 O5 2.439 . S
Cd1 O11 2.240 . S
Cd2 O3 2.240 . S
Cd2 O10 2.223 . S
Cd2 O12 2.297 . S
Cd2 O13 2.439 . S
O3 Cd2 2.240 . S
O3 C8 1.279 . S
O4 Cd1 2.297 . S
O4 C6 1.247 . S
O5 Cd1 2.439 . S
O5 C6 1.208 . S
C6 O4 1.247 . S
C6 O5 1.208 . S
C7 O12 1.247 . S
C7 O13 1.208 . S
C8 O0 1.315 . S
C8 O3 1.279 . S
C9 O10 1.315 . S
C9 O11 1.279 . S
O10 Cd2 2.223 . S
O10 C9 1.315 . S
O11 Cd1 2.240 . S
O11 C9 1.279 . S
O12 Cd2 2.297 . S
O12 C7 1.247 . S
O13 Cd2 2.439 . S
O13 C7 1.208 . S
O14 Cd15 2.223 . S
O14 C22 1.315 . S
Cd15 O14 2.223 . S
Cd15 O18 2.297 . S
Cd15 O19 2.439 . S
Cd15 O25 2.240 . S
Cd16 O17 2.240 . S
Cd16 O24 2.223 . S
Cd16 O26 2.297 . S
Cd16 O27 2.439 . S
O17 Cd16 2.240 . S
O17 C22 1.279 . S
O18 Cd15 2.297 . S
O18 C20 1.247 . S
O19 Cd15 2.439 . S
O19 C20 1.208 . S
C20 O18 1.247 . S
C20 O19 1.208 . S
C21 O26 1.247 . S
C21 O27 1.208 . S
C22 O14 1.315 . S
C22 O17 1.279 . S
C23 O24 1.315 . S
C23 O25 1.279 . S
O24 Cd16 2.223 . S
O24 C23 1.315 . S
O25 Cd15 2.240 . S
O25 C23 1.279 . S
O26 Cd16 2.297 . S
O26 C21 1.247 . S
O27 Cd16 2.439 . S
O27 C21 1.208 . S
O28 Cd29 2.223 . S
O28 C36 1.315 . S
Cd29 O28 2.223 . S
Cd29 O32 2.297 . S
Cd29 O33 2.439 . S
Cd29 O39 2.240 . S
Cd30 O31 2.240 . S
Cd30 O38 2.223 . S
Cd30 O40 2.297 . S
Cd30 O41 2.439 . S
O31 Cd30 2.240 . S
O31 C36 1.279 . S
O32 Cd29 2.297 . S
O32 C34 1.247 . S
O33 Cd29 2.439 . S
O33 C34 1.208 . S
C34 O32 1.247 . S
C34 O33 1.208 . S
C35 O40 1.247 . S
C35 O41 1.208 . S
C36 O28 1.315 . S
C36 O31 1.279 . S
C37 O38 1.315 . S
C37 O39 1.279 . S
O38 Cd30 2.223 . S
O38 C37 1.315 . S
O39 Cd29 2.240 . S
O39 C37 1.279 . S
O40 Cd30 2.297 . S
O40 C35 1.247 . S
O41 Cd30 2.439 . S
O41 C35 1.208 . S
O42 Cd43 2.223 . S
O42 C50 1.315 . S
Cd43 O42 2.223 . S
Cd43 O46 2.297 . S
Cd43 O47 2.439 . S
Cd43 O53 2.240 . S
Cd44 O45 2.240 . S
Cd44 O52 2.223 . S
Cd44 O54 2.297 . S
Cd44 O55 2.439 . S
O45 Cd44 2.240 . S
O45 C50 1.279 . S
O46 Cd43 2.297 . S
O46 C48 1.247 . S
O47 Cd43 2.439 . S
O47 C48 1.208 . S
C48 O46 1.247 . S
C48 O47 1.208 . S
C49 O54 1.247 . S
C49 O55 1.208 . S
C50 O42 1.315 . S
C50 O45 1.279 . S
C51 O52 1.315 . S
C51 O53 1.279 . S
O52 Cd44 2.223 . S
O52 C51 1.315 . S
O53 Cd43 2.240 . S
O53 C51 1.279 . S
O54 Cd44 2.297 . S
O54 C49 1.247 . S
O55 Cd44 2.439 . S
O55 C49 1.208 . S
O56 Cd57 2.223 . S
O56 C64 1.315 . S
Cd57 O56 2.223 . S
Cd57 O60 2.297 . S
Cd57 O61 2.439 . S
Cd57 O67 2.240 . S
Cd58 O59 2.240 . S
Cd58 O66 2.223 . S
Cd58 O68 2.297 . S
Cd58 O69 2.439 . S
O59 Cd58 2.240 . S
O59 C64 1.279 . S
O60 Cd57 2.297 . S
O60 C62 1.247 . S
O61 Cd57 2.439 . S
O61 C62 1.208 . S
C62 O60 1.247 . S
C62 O61 1.208 . S
C63 O68 1.247 . S
C63 O69 1.208 . S
C64 O56 1.315 . S
C64 O59 1.279 . S
C65 O66 1.315 . S
C65 O67 1.279 . S
O66 Cd58 2.223 . S
O66 C65 1.315 . S
O67 Cd57 2.240 . S
O67 C65 1.279 . S
O68 Cd58 2.297 . S
O68 C63 1.247 . S
O69 Cd58 2.439 . S
O69 C63 1.208 . S
O70 Cd71 2.223 . S
O70 C78 1.315 . S
Cd71 O70 2.223 . S
Cd71 O74 2.297 . S
Cd71 O75 2.439 . S
Cd71 O81 2.240 . S
Cd72 O73 2.240 . S
Cd72 O80 2.223 . S
Cd72 O82 2.297 . S
Cd72 O83 2.439 . S
O73 Cd72 2.240 . S
O73 C78 1.279 . S
O74 Cd71 2.297 . S
O74 C76 1.247 . S
O75 Cd71 2.439 . S
O75 C76 1.208 . S
C76 O74 1.247 . S
C76 O75 1.208 . S
C77 O82 1.247 . S
C77 O83 1.208 . S
C78 O70 1.315 . S
C78 O73 1.279 . S
C79 O80 1.315 . S
C79 O81 1.279 . S
O80 Cd72 2.223 . S
O80 C79 1.315 . S
O81 Cd71 2.240 . S
O81 C79 1.279 . S
O82 Cd72 2.297 . S
O82 C77 1.247 . S
O83 Cd72 2.439 . S
O83 C77 1.208 . S
O84 Cd85 2.223 . S
O84 C92 1.315 . S
Cd85 O84 2.223 . S
Cd85 O88 2.297 . S
Cd85 O89 2.439 . S
Cd85 O95 2.240 . S
Cd86 O87 2.240 . S
Cd86 O94 2.223 . S
Cd86 O96 2.297 . S
Cd86 O97 2.439 . S
O87 Cd86 2.240 . S
O87 C92 1.279 . S
O88 Cd85 2.297 . S
O88 C90 1.247 . S
O89 Cd85 2.439 . S
O89 C90 1.208 . S
C90 O88 1.247 . S
C90 O89 1.208 . S
C91 O96 1.247 . S
C91 O97 1.208 . S
C92 O84 1.315 . S
C92 O87 1.279 . S
C93 O94 1.315 . S
C93 O95 1.279 . S
O94 Cd86 2.223 . S
O94 C93 1.315 . S
O95 Cd85 2.240 . S
O95 C93 1.279 . S
O96 Cd86 2.297 . S
O96 C91 1.247 . S
O97 Cd86 2.439 . S
O97 C91 1.208 . S
O98 Cd99 2.223 . S
O98 C106 1.315 . S
Cd99 O98 2.223 . S
Cd99 O102 2.297 . S
Cd99 O103 2.439 . S
Cd99 O109 2.240 . S
Cd100 O101 2.240 . S
Cd100 O108 2.223 . S
Cd100 O110 2.297 . S
Cd100 O111 2.439 . S
O101 Cd100 2.240 . S
O101 C106 1.279 . S
O102 Cd99 2.297 . S
O102 C104 1.247 . S
O103 Cd99 2.439 . S
O103 C104 1.208 . S
C104 O102 1.247 . S
C104 O103 1.208 . S
C105 O110 1.247 . S
C105 O111 1.208 . S
C106 O98 1.315 . S
C106 O101 1.279 . S
C107 O108 1.315 . S
C107 O109 1.279 . S
O108 Cd100 2.223 . S
O108 C107 1.315 . S
O109 Cd99 2.240 . S
O109 C107 1.279 . S
O110 Cd100 2.297 . S
O110 C105 1.247 . S
O111 Cd100 2.439 . S
O111 C105 1.208 . S
O112 Cd113 2.223 . S
O112 C120 1.315 . S
Cd113 O112 2.223 . S
Cd113 O116 2.297 . S
Cd113 O117 2.439 . S
Cd113 O123 2.240 . S
Cd114 O115 2.240 . S
Cd114 O122 2.223 . S
Cd114 O124 2.297 . S
Cd114 O125 2.439 . S
O115 Cd114 2.240 . S
O115 C120 1.279 . S
O116 Cd113 2.297 . S
O116 C118 1.247 . S
O117 Cd113 2.439 . S
O117 C118 1.208 . S
C118 O116 1.247 . S
C118 O117 1.208 . S
C119 O124 1.247 . S
C119 O125 1.208 . S
C120 O112 1.315 . S
C120 O115 1.279 . S
C121 O122 1.315 . S
C121 O123 1.279 . S
O122 Cd114 2.223 . S
O122 C121 1.315 . S
O123 Cd113 2.240 . S
O123 C121 1.279 . S
O124 Cd114 2.297 . S
O124 C119 1.247 . S
O125 Cd114 2.439 . S
O125 C119 1.208 . S
O126 Cd127 2.223 . S
O126 C134 1.315 . S
Cd127 O126 2.223 . S
Cd127 O130 2.297 . S
Cd127 O131 2.439 . S
Cd127 O137 2.240 . S
Cd128 O129 2.240 . S
Cd128 O136 2.223 . S
Cd128 O138 2.297 . S
Cd128 O139 2.439 . S
O129 Cd128 2.240 . S
O129 C134 1.279 . S
O130 Cd127 2.297 . S
O130 C132 1.247 . S
O131 Cd127 2.439 . S
O131 C132 1.208 . S
C132 O130 1.247 . S
C132 O131 1.208 . S
C133 O138 1.247 . S
C133 O139 1.208 . S
C134 O126 1.315 . S
C134 O129 1.279 . S
C135 O136 1.315 . S
C135 O137 1.279 . S
O136 Cd128 2.223 . S
O136 C135 1.315 . S
O137 Cd127 2.240 . S
O137 C135 1.279 . S
O138 Cd128 2.297 . S
O138 C133 1.247 . S
O139 Cd128 2.439 . S
O139 C133 1.208 . S
O140 Cd141 2.223 . S
O140 C148 1.315 . S
Cd141 O140 2.223 . S
Cd141 O144 2.297 . S
Cd141 O145 2.439 . S
Cd141 O151 2.240 . S
Cd142 O143 2.240 . S
Cd142 O150 2.223 . S
Cd142 O152 2.297 . S
Cd142 O153 2.439 . S
O143 Cd142 2.240 . S
O143 C148 1.279 . S
O144 Cd141 2.297 . S
O144 C146 1.247 . S
O145 Cd141 2.439 . S
O145 C146 1.208 . S
C146 O144 1.247 . S
C146 O145 1.208 . S
C147 O152 1.247 . S
C147 O153 1.208 . S
C148 O140 1.315 . S
C148 O143 1.279 . S
C149 O150 1.315 . S
C149 O151 1.279 . S
O150 Cd142 2.223 . S
O150 C149 1.315 . S
O151 Cd141 2.240 . S
O151 C149 1.279 . S
O152 Cd142 2.297 . S
O152 C147 1.247 . S
O153 Cd142 2.439 . S
O153 C147 1.208 . S
O154 Cd155 2.223 . S
O154 C162 1.315 . S
Cd155 O154 2.223 . S
Cd155 O158 2.297 . S
Cd155 O159 2.439 . S
Cd155 O165 2.240 . S
Cd156 O157 2.240 . S
Cd156 O164 2.223 . S
Cd156 O166 2.297 . S
Cd156 O167 2.439 . S
O157 Cd156 2.240 . S
O157 C162 1.279 . S
O158 Cd155 2.297 . S
O158 C160 1.247 . S
O159 Cd155 2.439 . S
O159 C160 1.208 . S
C160 O158 1.247 . S
C160 O159 1.208 . S
C161 O166 1.247 . S
C161 O167 1.208 . S
C162 O154 1.315 . S
C162 O157 1.279 . S
C163 O164 1.315 . S
C163 O165 1.279 . S
O164 Cd156 2.223 . S
O164 C163 1.315 . S
O165 Cd155 2.240 . S
O165 C163 1.279 . S
O166 Cd156 2.297 . S
O166 C161 1.247 . S
O167 Cd156 2.439 . S
O167 C161 1.208 . S
O168 Cd169 2.223 . S
O168 C176 1.315 . S
Cd169 O168 2.223 . S
Cd169 O172 2.297 . S
Cd169 O173 2.439 . S
Cd169 O179 2.240 . S
Cd170 O171 2.240 . S
Cd170 O178 2.223 . S
Cd170 O180 2.297 . S
Cd170 O181 2.439 . S
O171 Cd170 2.240 . S
O171 C176 1.279 . S
O172 Cd169 2.297 . S
O172 C174 1.247 . S
O173 Cd169 2.439 . S
O173 C174 1.208 . S
C174 O172 1.247 . S
C174 O173 1.208 . S
C175 O180 1.247 . S
C175 O181 1.208 . S
C176 O168 1.315 . S
C176 O171 1.279 . S
C177 O178 1.315 . S
C177 O179 1.279 . S
O178 Cd170 2.223 . S
O178 C177 1.315 . S
O179 Cd169 2.240 . S
O179 C177 1.279 . S
O180 Cd170 2.297 . S
O180 C175 1.247 . S
O181 Cd170 2.439 . S
O181 C175 1.208 . S
O182 Cd183 2.223 . S
O182 C190 1.315 . S
Cd183 O182 2.223 . S
Cd183 O186 2.297 . S
Cd183 O187 2.439 . S
Cd183 O193 2.240 . S
Cd184 O185 2.240 . S
Cd184 O192 2.223 . S
Cd184 O194 2.297 . S
Cd184 O195 2.439 . S
O185 Cd184 2.240 . S
O185 C190 1.279 . S
O186 Cd183 2.297 . S
O186 C188 1.247 . S
O187 Cd183 2.439 . S
O187 C188 1.208 . S
C188 O186 1.247 . S
C188 O187 1.208 . S
C189 O194 1.247 . S
C189 O195 1.208 . S
C190 O182 1.315 . S
C190 O185 1.279 . S
C191 O192 1.315 . S
C191 O193 1.279 . S
O192 Cd184 2.223 . S
O192 C191 1.315 . S
O193 Cd183 2.240 . S
O193 C191 1.279 . S
O194 Cd184 2.297 . S
O194 C189 1.247 . S
O195 Cd184 2.439 . S
O195 C189 1.208 . S
O196 Cd197 2.223 . S
O196 C204 1.315 . S
Cd197 O196 2.223 . S
Cd197 O200 2.297 . S
Cd197 O201 2.439 . S
Cd197 O207 2.240 . S
Cd198 O199 2.240 . S
Cd198 O206 2.223 . S
Cd198 O208 2.297 . S
Cd198 O209 2.439 . S
O199 Cd198 2.240 . S
O199 C204 1.279 . S
O200 Cd197 2.297 . S
O200 C202 1.247 . S
O201 Cd197 2.439 . S
O201 C202 1.208 . S
C202 O200 1.247 . S
C202 O201 1.208 . S
C203 O208 1.247 . S
C203 O209 1.208 . S
C204 O196 1.315 . S
C204 O199 1.279 . S
C205 O206 1.315 . S
C205 O207 1.279 . S
O206 Cd198 2.223 . S
O206 C205 1.315 . S
O207 Cd197 2.240 . S
O207 C205 1.279 . S
O208 Cd198 2.297 . S
O208 C203 1.247 . S
O209 Cd198 2.439 . S
O209 C203 1.208 . S
O210 Cd211 2.223 . S
O210 C218 1.315 . S
Cd211 O210 2.223 . S
Cd211 O214 2.297 . S
Cd211 O215 2.439 . S
Cd211 O221 2.240 . S
Cd212 O213 2.240 . S
Cd212 O220 2.223 . S
Cd212 O222 2.297 . S
Cd212 O223 2.439 . S
O213 Cd212 2.240 . S
O213 C218 1.279 . S
O214 Cd211 2.297 . S
O214 C216 1.247 . S
O215 Cd211 2.439 . S
O215 C216 1.208 . S
C216 O214 1.247 . S
C216 O215 1.208 . S
C217 O222 1.247 . S
C217 O223 1.208 . S
C218 O210 1.315 . S
C218 O213 1.279 . S
C219 O220 1.315 . S
C219 O221 1.279 . S
O220 Cd212 2.223 . S
O220 C219 1.315 . S
O221 Cd211 2.240 . S
O221 C219 1.279 . S
O222 Cd212 2.297 . S
O222 C217 1.247 . S
O223 Cd212 2.439 . S
O223 C217 1.208 . S
O224 Cd225 2.223 . S
O224 C232 1.315 . S
Cd225 O224 2.223 . S
Cd225 O228 2.297 . S
Cd225 O229 2.439 . S
Cd225 O235 2.240 . S
Cd226 O227 2.240 . S
Cd226 O234 2.223 . S
Cd226 O236 2.297 . S
Cd226 O237 2.439 . S
O227 Cd226 2.240 . S
O227 C232 1.279 . S
O228 Cd225 2.297 . S
O228 C230 1.247 . S
O229 Cd225 2.439 . S
O229 C230 1.208 . S
C230 O228 1.247 . S
C230 O229 1.208 . S
C231 O236 1.247 . S
C231 O237 1.208 . S
C232 O224 1.315 . S
C232 O227 1.279 . S
C233 O234 1.315 . S
C233 O235 1.279 . S
O234 Cd226 2.223 . S
O234 C233 1.315 . S
O235 Cd225 2.240 . S
O235 C233 1.279 . S
O236 Cd226 2.297 . S
O236 C231 1.247 . S
O237 Cd226 2.439 . S
O237 C231 1.208 . S
O238 Cd239 2.223 . S
O238 C246 1.315 . S
Cd239 O238 2.223 . S
Cd239 O242 2.297 . S
Cd239 O243 2.439 . S
Cd239 O249 2.240 . S
Cd240 O241 2.240 . S
Cd240 O248 2.223 . S
Cd240 O250 2.297 . S
Cd240 O251 2.439 . S
O241 Cd240 2.240 . S
O241 C246 1.279 . S
O242 Cd239 2.297 . S
O242 C244 1.247 . S
O243 Cd239 2.439 . S
O243 C244 1.208 . S
C244 O242 1.247 . S
C244 O243 1.208 . S
C245 O250 1.247 . S
C245 O251 1.208 . S
C246 O238 1.315 . S
C246 O241 1.279 . S
C247 O248 1.315 . S
C247 O249 1.279 . S
O248 Cd240 2.223 . S
O248 C247 1.315 . S
O249 Cd239 2.240 . S
O249 C247 1.279 . S
O250 Cd240 2.297 . S
O250 C245 1.247 . S
O251 Cd240 2.439 . S
O251 C245 1.208 . S
O252 Cd253 2.223 . S
O252 C260 1.315 . S
Cd253 O252 2.223 . S
Cd253 O256 2.297 . S
Cd253 O257 2.439 . S
Cd253 O263 2.240 . S
Cd254 O255 2.240 . S
Cd254 O262 2.223 . S
Cd254 O264 2.297 . S
Cd254 O265 2.439 . S
O255 Cd254 2.240 . S
O255 C260 1.279 . S
O256 Cd253 2.297 . S
O256 C258 1.247 . S
O257 Cd253 2.439 . S
O257 C258 1.208 . S
C258 O256 1.247 . S
C258 O257 1.208 . S
C259 O264 1.247 . S
C259 O265 1.208 . S
C260 O252 1.315 . S
C260 O255 1.279 . S
C261 O262 1.315 . S
C261 O263 1.279 . S
O262 Cd254 2.223 . S
O262 C261 1.315 . S
O263 Cd253 2.240 . S
O263 C261 1.279 . S
O264 Cd254 2.297 . S
O264 C259 1.247 . S
O265 Cd254 2.439 . S
O265 C259 1.208 . S
O266 Cd267 2.223 . S
O266 C274 1.315 . S
Cd267 O266 2.223 . S
Cd267 O270 2.297 . S
Cd267 O271 2.439 . S
Cd267 O277 2.240 . S
Cd268 O269 2.240 . S
Cd268 O276 2.223 . S
Cd268 O278 2.297 . S
Cd268 O279 2.439 . S
O269 Cd268 2.240 . S
O269 C274 1.279 . S
O270 Cd267 2.297 . S
O270 C272 1.247 . S
O271 Cd267 2.439 . S
O271 C272 1.208 . S
C272 O270 1.247 . S
C272 O271 1.208 . S
C273 O278 1.247 . S
C273 O279 1.208 . S
C274 O266 1.315 . S
C274 O269 1.279 . S
C275 O276 1.315 . S
C275 O277 1.279 . S
O276 Cd268 2.223 . S
O276 C275 1.315 . S
O277 Cd267 2.240 . S
O277 C275 1.279 . S
O278 Cd268 2.297 . S
O278 C273 1.247 . S
O279 Cd268 2.439 . S
O279 C273 1.208 . S
O280 Cd281 2.223 . S
O280 C288 1.315 . S
Cd281 O280 2.223 . S
Cd281 O284 2.297 . S
Cd281 O285 2.439 . S
Cd281 O291 2.240 . S
Cd282 O283 2.240 . S
Cd282 O290 2.223 . S
Cd282 O292 2.297 . S
Cd282 O293 2.439 . S
O283 Cd282 2.240 . S
O283 C288 1.279 . S
O284 Cd281 2.297 . S
O284 C286 1.247 . S
O285 Cd281 2.439 . S
O285 C286 1.208 . S
C286 O284 1.247 . S
C286 O285 1.208 . S
C287 O292 1.247 . S
C287 O293 1.208 . S
C288 O280 1.315 . S
C288 O283 1.279 . S
C289 O290 1.315 . S
C289 O291 1.279 . S
O290 Cd282 2.223 . S
O290 C289 1.315 . S
O291 Cd281 2.240 . S
O291 C289 1.279 . S
O292 Cd282 2.297 . S
O292 C287 1.247 . S
O293 Cd282 2.439 . S
O293 C287 1.208 . S
O294 Cd295 2.223 . S
O294 C302 1.315 . S
Cd295 O294 2.223 . S
Cd295 O298 2.297 . S
Cd295 O299 2.439 . S
Cd295 O305 2.240 . S
Cd296 O297 2.240 . S
Cd296 O304 2.223 . S
Cd296 O306 2.297 . S
Cd296 O307 2.439 . S
O297 Cd296 2.240 . S
O297 C302 1.279 . S
O298 Cd295 2.297 . S
O298 C300 1.247 . S
O299 Cd295 2.439 . S
O299 C300 1.208 . S
C300 O298 1.247 . S
C300 O299 1.208 . S
C301 O306 1.247 . S
C301 O307 1.208 . S
C302 O294 1.315 . S
C302 O297 1.279 . S
C303 O304 1.315 . S
C303 O305 1.279 . S
O304 Cd296 2.223 . S
O304 C303 1.315 . S
O305 Cd295 2.240 . S
O305 C303 1.279 . S
O306 Cd296 2.297 . S
O306 C301 1.247 . S
O307 Cd296 2.439 . S
O307 C301 1.208 . S
O308 Cd309 2.223 . S
O308 C316 1.315 . S
Cd309 O308 2.223 . S
Cd309 O312 2.297 . S
Cd309 O313 2.439 . S
Cd309 O319 2.240 . S
Cd310 O311 2.240 . S
Cd310 O318 2.223 . S
Cd310 O320 2.297 . S
Cd310 O321 2.439 . S
O311 Cd310 2.240 . S
O311 C316 1.279 . S
O312 Cd309 2.297 . S
O312 C314 1.247 . S
O313 Cd309 2.439 . S
O313 C314 1.208 . S
C314 O312 1.247 . S
C314 O313 1.208 . S
C315 O320 1.247 . S
C315 O321 1.208 . S
C316 O308 1.315 . S
C316 O311 1.279 . S
C317 O318 1.315 . S
C317 O319 1.279 . S
O318 Cd310 2.223 . S
O318 C317 1.315 . S
O319 Cd309 2.240 . S
O319 C317 1.279 . S
O320 Cd310 2.297 . S
O320 C315 1.247 . S
O321 Cd310 2.439 . S
O321 C315 1.208 . S
O322 Cd323 2.223 . S
O322 C330 1.315 . S
Cd323 O322 2.223 . S
Cd323 O326 2.297 . S
Cd323 O327 2.439 . S
Cd323 O333 2.240 . S
Cd324 O325 2.240 . S
Cd324 O332 2.223 . S
Cd324 O334 2.297 . S
Cd324 O335 2.439 . S
O325 Cd324 2.240 . S
O325 C330 1.279 . S
O326 Cd323 2.297 . S
O326 C328 1.247 . S
O327 Cd323 2.439 . S
O327 C328 1.208 . S
C328 O326 1.247 . S
C328 O327 1.208 . S
C329 O334 1.247 . S
C329 O335 1.208 . S
C330 O322 1.315 . S
C330 O325 1.279 . S
C331 O332 1.315 . S
C331 O333 1.279 . S
O332 Cd324 2.223 . S
O332 C331 1.315 . S
O333 Cd323 2.240 . S
O333 C331 1.279 . S
O334 Cd324 2.297 . S
O334 C329 1.247 . S
O335 Cd324 2.439 . S
O335 C329 1.208 . S
H336 C344 0.929 . S
H337 C346 0.930 . S
H338 C348 0.930 . S
H339 C351 0.929 . S
H340 C354 0.930 . S
H341 C356 0.960 . S
H342 C356 0.960 . S
H343 C356 0.960 . S
C344 H336 0.929 . S
C344 C345 1.377 . S
C344 C346 1.384 . S
C345 C344 1.377 . S
C345 C351 1.390 . S
C346 H337 0.930 . S
C346 C344 1.384 . S
C346 C347 1.372 . S
C347 C346 1.372 . S
C347 C348 1.400 . S
C347 C352 1.490 . S
C348 H338 0.930 . S
C348 C347 1.400 . S
C348 C351 1.386 . S
H349 C365 0.930 . S
H350 C366 0.931 . S
C351 H339 0.929 . S
C351 C345 1.390 . S
C351 C348 1.386 . S
C352 C347 1.490 . S
C352 C354 1.395 . S
C352 C355 1.403 . S
H353 C359 0.930 . S
C354 H340 0.930 . S
C354 C352 1.395 . S
C354 C357 1.403 . S
C355 C352 1.403 . S
C355 C356 1.524 . S
C355 C359 1.400 . S
C356 H341 0.960 . S
C356 H342 0.960 . S
C356 H343 0.960 . S
C356 C355 1.524 . S
C357 C354 1.403 . S
C357 C358 1.392 . S
C357 C361 1.495 . S
C358 C357 1.392 . S
C358 C359 1.385 . S
C358 C360 1.478 . S
C359 H353 0.930 . S
C359 C355 1.400 . S
C359 C358 1.385 . S
C360 C358 1.478 . S
C360 C362 1.381 . S
C360 C366 1.383 . S
C361 C357 1.495 . S
C361 H367 0.959 . S
C361 H368 0.961 . S
C361 H369 0.960 . S
C362 C360 1.381 . S
C362 C363 1.394 . S
C362 H370 0.930 . S
C363 C362 1.394 . S
C363 C364 1.383 . S
C363 H371 0.929 . S
C364 C363 1.383 . S
C364 C365 1.377 . S
C365 H349 0.930 . S
C365 C364 1.377 . S
C365 C366 1.379 . S
C366 H350 0.931 . S
C366 C360 1.383 . S
C366 C365 1.379 . S
H367 C361 0.959 . S
H368 C361 0.961 . S
H369 C361 0.960 . S
H370 C362 0.930 . S
H371 C363 0.929 . S
H372 C380 0.929 . S
H373 C382 0.930 . S
H374 C384 0.930 . S
H375 C387 0.929 . S
H376 C390 0.930 . S
H377 C392 0.960 . S
H378 C392 0.960 . S
H379 C392 0.960 . S
C380 H372 0.929 . S
C380 C381 1.377 . S
C380 C382 1.384 . S
C381 C380 1.377 . S
C381 C387 1.390 . S
C382 H373 0.930 . S
C382 C380 1.384 . S
C382 C383 1.372 . S
C383 C382 1.372 . S
C383 C384 1.400 . S
C383 C388 1.490 . S
C384 H374 0.930 . S
C384 C383 1.400 . S
C384 C387 1.386 . S
H385 C401 0.930 . S
H386 C402 0.931 . S
C387 H375 0.929 . S
C387 C381 1.390 . S
C387 C384 1.386 . S
C388 C383 1.490 . S
C388 C390 1.395 . S
C388 C391 1.403 . S
H389 C395 0.930 . S
C390 H376 0.930 . S
C390 C388 1.395 . S
C390 C393 1.403 . S
C391 C388 1.403 . S
C391 C392 1.524 . S
C391 C395 1.400 . S
C392 H377 0.960 . S
C392 H378 0.960 . S
C392 H379 0.960 . S
C392 C391 1.524 . S
C393 C390 1.403 . S
C393 C394 1.392 . S
C393 C397 1.495 . S
C394 C393 1.392 . S
C394 C395 1.385 . S
C394 C396 1.478 . S
C395 H389 0.930 . S
C395 C391 1.400 . S
C395 C394 1.385 . S
C396 C394 1.478 . S
C396 C398 1.381 . S
C396 C402 1.383 . S
C397 C393 1.495 . S
C397 H403 0.959 . S
C397 H404 0.961 . S
C397 H405 0.960 . S
C398 C396 1.381 . S
C398 C399 1.394 . S
C398 H406 0.930 . S
C399 C398 1.394 . S
C399 C400 1.383 . S
C399 H407 0.929 . S
C400 C399 1.383 . S
C400 C401 1.377 . S
C401 H385 0.930 . S
C401 C400 1.377 . S
C401 C402 1.379 . S
C402 H386 0.931 . S
C402 C396 1.383 . S
C402 C401 1.379 . S
H403 C397 0.959 . S
H404 C397 0.961 . S
H405 C397 0.960 . S
H406 C398 0.930 . S
H407 C399 0.929 . S
H408 C416 0.929 . S
H409 C418 0.930 . S
H410 C420 0.930 . S
H411 C423 0.929 . S
H412 C426 0.930 . S
H413 C428 0.960 . S
H414 C428 0.960 . S
H415 C428 0.960 . S
C416 H408 0.929 . S
C416 C417 1.377 . S
C416 C418 1.384 . S
C417 C416 1.377 . S
C417 C423 1.390 . S
C418 H409 0.930 . S
C418 C416 1.384 . S
C418 C419 1.372 . S
C419 C418 1.372 . S
C419 C420 1.400 . S
C419 C424 1.490 . S
C420 H410 0.930 . S
C420 C419 1.400 . S
C420 C423 1.386 . S
H421 C437 0.930 . S
H422 C438 0.931 . S
C423 H411 0.929 . S
C423 C417 1.390 . S
C423 C420 1.386 . S
C424 C419 1.490 . S
C424 C426 1.395 . S
C424 C427 1.403 . S
H425 C431 0.930 . S
C426 H412 0.930 . S
C426 C424 1.395 . S
C426 C429 1.403 . S
C427 C424 1.403 . S
C427 C428 1.524 . S
C427 C431 1.400 . S
C428 H413 0.960 . S
C428 H414 0.960 . S
C428 H415 0.960 . S
C428 C427 1.524 . S
C429 C426 1.403 . S
C429 C430 1.392 . S
C429 C433 1.495 . S
C430 C429 1.392 . S
C430 C431 1.385 . S
C430 C432 1.478 . S
C431 H425 0.930 . S
C431 C427 1.400 . S
C431 C430 1.385 . S
C432 C430 1.478 . S
C432 C434 1.381 . S
C432 C438 1.383 . S
C433 C429 1.495 . S
C433 H439 0.959 . S
C433 H440 0.961 . S
C433 H441 0.960 . S
C434 C432 1.381 . S
C434 C435 1.394 . S
C434 H442 0.930 . S
C435 C434 1.394 . S
C435 C436 1.383 . S
C435 H443 0.929 . S
C436 C435 1.383 . S
C436 C437 1.377 . S
C437 H421 0.930 . S
C437 C436 1.377 . S
C437 C438 1.379 . S
C438 H422 0.931 . S
C438 C432 1.383 . S
C438 C437 1.379 . S
H439 C433 0.959 . S
H440 C433 0.961 . S
H441 C433 0.960 . S
H442 C434 0.930 . S
H443 C435 0.929 . S
H444 C452 0.929 . S
H445 C454 0.930 . S
H446 C456 0.930 . S
H447 C459 0.929 . S
H448 C462 0.930 . S
H449 C464 0.960 . S
H450 C464 0.960 . S
H451 C464 0.960 . S
C452 H444 0.929 . S
C452 C453 1.377 . S
C452 C454 1.384 . S
C453 C452 1.377 . S
C453 C459 1.390 . S
C454 H445 0.930 . S
C454 C452 1.384 . S
C454 C455 1.372 . S
C455 C454 1.372 . S
C455 C456 1.400 . S
C455 C460 1.490 . S
C456 H446 0.930 . S
C456 C455 1.400 . S
C456 C459 1.386 . S
H457 C473 0.930 . S
H458 C474 0.931 . S
C459 H447 0.929 . S
C459 C453 1.390 . S
C459 C456 1.386 . S
C460 C455 1.490 . S
C460 C462 1.395 . S
C460 C463 1.403 . S
H461 C467 0.930 . S
C462 H448 0.930 . S
C462 C460 1.395 . S
C462 C465 1.403 . S
C463 C460 1.403 . S
C463 C464 1.524 . S
C463 C467 1.400 . S
C464 H449 0.960 . S
C464 H450 0.960 . S
C464 H451 0.960 . S
C464 C463 1.524 . S
C465 C462 1.403 . S
C465 C466 1.392 . S
C465 C469 1.495 . S
C466 C465 1.392 . S
C466 C467 1.385 . S
C466 C468 1.478 . S
C467 H461 0.930 . S
C467 C463 1.400 . S
C467 C466 1.385 . S
C468 C466 1.478 . S
C468 C470 1.381 . S
C468 C474 1.383 . S
C469 C465 1.495 . S
C469 H475 0.959 . S
C469 H476 0.961 . S
C469 H477 0.960 . S
C470 C468 1.381 . S
C470 C471 1.394 . S
C470 H478 0.930 . S
C471 C470 1.394 . S
C471 C472 1.383 . S
C471 H479 0.929 . S
C472 C471 1.383 . S
C472 C473 1.377 . S
C473 H457 0.930 . S
C473 C472 1.377 . S
C473 C474 1.379 . S
C474 H458 0.931 . S
C474 C468 1.383 . S
C474 C473 1.379 . S
H475 C469 0.959 . S
H476 C469 0.961 . S
H477 C469 0.960 . S
H478 C470 0.930 . S
H479 C471 0.929 . S
H480 C488 0.929 . S
H481 C490 0.930 . S
H482 C492 0.930 . S
H483 C495 0.929 . S
H484 C498 0.930 . S
H485 C500 0.960 . S
H486 C500 0.960 . S
H487 C500 0.960 . S
C488 H480 0.929 . S
C488 C489 1.377 . S
C488 C490 1.384 . S
C489 C488 1.377 . S
C489 C495 1.390 . S
C490 H481 0.930 . S
C490 C488 1.384 . S
C490 C491 1.372 . S
C491 C490 1.372 . S
C491 C492 1.400 . S
C491 C496 1.490 . S
C492 H482 0.930 . S
C492 C491 1.400 . S
C492 C495 1.386 . S
H493 C509 0.930 . S
H494 C510 0.931 . S
C495 H483 0.929 . S
C495 C489 1.390 . S
C495 C492 1.386 . S
C496 C491 1.490 . S
C496 C498 1.395 . S
C496 C499 1.403 . S
H497 C503 0.930 . S
C498 H484 0.930 . S
C498 C496 1.395 . S
C498 C501 1.403 . S
C499 C496 1.403 . S
C499 C500 1.524 . S
C499 C503 1.400 . S
C500 H485 0.960 . S
C500 H486 0.960 . S
C500 H487 0.960 . S
C500 C499 1.524 . S
C501 C498 1.403 . S
C501 C502 1.392 . S
C501 C505 1.495 . S
C502 C501 1.392 . S
C502 C503 1.385 . S
C502 C504 1.478 . S
C503 H497 0.930 . S
C503 C499 1.400 . S
C503 C502 1.385 . S
C504 C502 1.478 . S
C504 C506 1.381 . S
C504 C510 1.383 . S
C505 C501 1.495 . S
C505 H511 0.959 . S
C505 H512 0.961 . S
C505 H513 0.960 . S
C506 C504 1.381 . S
C506 C507 1.394 . S
C506 H514 0.930 . S
C507 C506 1.394 . S
C507 C508 1.383 . S
C507 H515 0.929 . S
C508 C507 1.383 . S
C508 C509 1.377 . S
C509 H493 0.930 . S
C509 C508 1.377 . S
C509 C510 1.379 . S
C510 H494 0.931 . S
C510 C504 1.383 . S
C510 C509 1.379 . S
H511 C505 0.959 . S
H512 C505 0.961 . S
H513 C505 0.960 . S
H514 C506 0.930 . S
H515 C507 0.929 . S
H516 C524 0.929 . S
H517 C526 0.930 . S
H518 C528 0.930 . S
H519 C531 0.929 . S
H520 C534 0.930 . S
H521 C536 0.960 . S
H522 C536 0.960 . S
H523 C536 0.960 . S
C524 H516 0.929 . S
C524 C525 1.377 . S
C524 C526 1.384 . S
C525 C524 1.377 . S
C525 C531 1.390 . S
C526 H517 0.930 . S
C526 C524 1.384 . S
C526 C527 1.372 . S
C527 C526 1.372 . S
C527 C528 1.400 . S
C527 C532 1.490 . S
C528 H518 0.930 . S
C528 C527 1.400 . S
C528 C531 1.386 . S
H529 C545 0.930 . S
H530 C546 0.931 . S
C531 H519 0.929 . S
C531 C525 1.390 . S
C531 C528 1.386 . S
C532 C527 1.490 . S
C532 C534 1.395 . S
C532 C535 1.403 . S
H533 C539 0.930 . S
C534 H520 0.930 . S
C534 C532 1.395 . S
C534 C537 1.403 . S
C535 C532 1.403 . S
C535 C536 1.524 . S
C535 C539 1.400 . S
C536 H521 0.960 . S
C536 H522 0.960 . S
C536 H523 0.960 . S
C536 C535 1.524 . S
C537 C534 1.403 . S
C537 C538 1.392 . S
C537 C541 1.495 . S
C538 C537 1.392 . S
C538 C539 1.385 . S
C538 C540 1.478 . S
C539 H533 0.930 . S
C539 C535 1.400 . S
C539 C538 1.385 . S
C540 C538 1.478 . S
C540 C542 1.381 . S
C540 C546 1.383 . S
C541 C537 1.495 . S
C541 H547 0.959 . S
C541 H548 0.961 . S
C541 H549 0.960 . S
C542 C540 1.381 . S
C542 C543 1.394 . S
C542 H550 0.930 . S
C543 C542 1.394 . S
C543 C544 1.383 . S
C543 H551 0.929 . S
C544 C543 1.383 . S
C544 C545 1.377 . S
C545 H529 0.930 . S
C545 C544 1.377 . S
C545 C546 1.379 . S
C546 H530 0.931 . S
C546 C540 1.383 . S
C546 C545 1.379 . S
H547 C541 0.959 . S
H548 C541 0.961 . S
H549 C541 0.960 . S
H550 C542 0.930 . S
H551 C543 0.929 . S
H552 C560 0.929 . S
H553 C562 0.930 . S
H554 C564 0.930 . S
H555 C567 0.929 . S
H556 C570 0.930 . S
H557 C572 0.960 . S
H558 C572 0.960 . S
H559 C572 0.960 . S
C560 H552 0.929 . S
C560 C561 1.377 . S
C560 C562 1.384 . S
C561 C560 1.377 . S
C561 C567 1.390 . S
C562 H553 0.930 . S
C562 C560 1.384 . S
C562 C563 1.372 . S
C563 C562 1.372 . S
C563 C564 1.400 . S
C563 C568 1.490 . S
C564 H554 0.930 . S
C564 C563 1.400 . S
C564 C567 1.386 . S
H565 C581 0.930 . S
H566 C582 0.931 . S
C567 H555 0.929 . S
C567 C561 1.390 . S
C567 C564 1.386 . S
C568 C563 1.490 . S
C568 C570 1.395 . S
C568 C571 1.403 . S
H569 C575 0.930 . S
C570 H556 0.930 . S
C570 C568 1.395 . S
C570 C573 1.403 . S
C571 C568 1.403 . S
C571 C572 1.524 . S
C571 C575 1.400 . S
C572 H557 0.960 . S
C572 H558 0.960 . S
C572 H559 0.960 . S
C572 C571 1.524 . S
C573 C570 1.403 . S
C573 C574 1.392 . S
C573 C577 1.495 . S
C574 C573 1.392 . S
C574 C575 1.385 . S
C574 C576 1.478 . S
C575 H569 0.930 . S
C575 C571 1.400 . S
C575 C574 1.385 . S
C576 C574 1.478 . S
C576 C578 1.381 . S
C576 C582 1.383 . S
C577 C573 1.495 . S
C577 H583 0.959 . S
C577 H584 0.961 . S
C577 H585 0.960 . S
C578 C576 1.381 . S
C578 C579 1.394 . S
C578 H586 0.930 . S
C579 C578 1.394 . S
C579 C580 1.383 . S
C579 H587 0.929 . S
C580 C579 1.383 . S
C580 C581 1.377 . S
C581 H565 0.930 . S
C581 C580 1.377 . S
C581 C582 1.379 . S
C582 H566 0.931 . S
C582 C576 1.383 . S
C582 C581 1.379 . S
H583 C577 0.959 . S
H584 C577 0.961 . S
H585 C577 0.960 . S
H586 C578 0.930 . S
H587 C579 0.929 . S
H588 C596 0.929 . S
H589 C598 0.930 . S
H590 C600 0.930 . S
H591 C603 0.929 . S
H592 C606 0.930 . S
H593 C608 0.960 . S
H594 C608 0.960 . S
H595 C608 0.960 . S
C596 H588 0.929 . S
C596 C597 1.377 . S
C596 C598 1.384 . S
C597 C596 1.377 . S
C597 C603 1.390 . S
C598 H589 0.930 . S
C598 C596 1.384 . S
C598 C599 1.372 . S
C599 C598 1.372 . S
C599 C600 1.400 . S
C599 C604 1.490 . S
C600 H590 0.930 . S
C600 C599 1.400 . S
C600 C603 1.386 . S
H601 C617 0.930 . S
H602 C618 0.931 . S
C603 H591 0.929 . S
C603 C597 1.390 . S
C603 C600 1.386 . S
C604 C599 1.490 . S
C604 C606 1.395 . S
C604 C607 1.403 . S
H605 C611 0.930 . S
C606 H592 0.930 . S
C606 C604 1.395 . S
C606 C609 1.403 . S
C607 C604 1.403 . S
C607 C608 1.524 . S
C607 C611 1.400 . S
C608 H593 0.960 . S
C608 H594 0.960 . S
C608 H595 0.960 . S
C608 C607 1.524 . S
C609 C606 1.403 . S
C609 C610 1.392 . S
C609 C613 1.495 . S
C610 C609 1.392 . S
C610 C611 1.385 . S
C610 C612 1.478 . S
C611 H605 0.930 . S
C611 C607 1.400 . S
C611 C610 1.385 . S
C612 C610 1.478 . S
C612 C614 1.381 . S
C612 C618 1.383 . S
C613 C609 1.495 . S
C613 H619 0.959 . S
C613 H620 0.961 . S
C613 H621 0.960 . S
C614 C612 1.381 . S
C614 C615 1.394 . S
C614 H622 0.930 . S
C615 C614 1.394 . S
C615 C616 1.383 . S
C615 H623 0.929 . S
C616 C615 1.383 . S
C616 C617 1.377 . S
C617 H601 0.930 . S
C617 C616 1.377 . S
C617 C618 1.379 . S
C618 H602 0.931 . S
C618 C612 1.383 . S
C618 C617 1.379 . S
H619 C613 0.959 . S
H620 C613 0.961 . S
H621 C613 0.960 . S
H622 C614 0.930 . S
H623 C615 0.929 . S
H624 C632 0.929 . S
H625 C634 0.930 . S
H626 C636 0.930 . S
H627 C639 0.929 . S
H628 C642 0.930 . S
H629 C644 0.960 . S
H630 C644 0.960 . S
H631 C644 0.960 . S
C632 H624 0.929 . S
C632 C633 1.377 . S
C632 C634 1.384 . S
C633 C632 1.377 . S
C633 C639 1.390 . S
C634 H625 0.930 . S
C634 C632 1.384 . S
C634 C635 1.372 . S
C635 C634 1.372 . S
C635 C636 1.400 . S
C635 C640 1.490 . S
C636 H626 0.930 . S
C636 C635 1.400 . S
C636 C639 1.386 . S
H637 C653 0.930 . S
H638 C654 0.931 . S
C639 H627 0.929 . S
C639 C633 1.390 . S
C639 C636 1.386 . S
C640 C635 1.490 . S
C640 C642 1.395 . S
C640 C643 1.403 . S
H641 C647 0.930 . S
C642 H628 0.930 . S
C642 C640 1.395 . S
C642 C645 1.403 . S
C643 C640 1.403 . S
C643 C644 1.524 . S
C643 C647 1.400 . S
C644 H629 0.960 . S
C644 H630 0.960 . S
C644 H631 0.960 . S
C644 C643 1.524 . S
C645 C642 1.403 . S
C645 C646 1.392 . S
C645 C649 1.495 . S
C646 C645 1.392 . S
C646 C647 1.385 . S
C646 C648 1.478 . S
C647 H641 0.930 . S
C647 C643 1.400 . S
C647 C646 1.385 . S
C648 C646 1.478 . S
C648 C650 1.381 . S
C648 C654 1.383 . S
C649 C645 1.495 . S
C649 H655 0.959 . S
C649 H656 0.961 . S
C649 H657 0.960 . S
C650 C648 1.381 . S
C650 C651 1.394 . S
C650 H658 0.930 . S
C651 C650 1.394 . S
C651 C652 1.383 . S
C651 H659 0.929 . S
C652 C651 1.383 . S
C652 C653 1.377 . S
C653 H637 0.930 . S
C653 C652 1.377 . S
C653 C654 1.379 . S
C654 H638 0.931 . S
C654 C648 1.383 . S
C654 C653 1.379 . S
H655 C649 0.959 . S
H656 C649 0.961 . S
H657 C649 0.960 . S
H658 C650 0.930 . S
H659 C651 0.929 . S
H660 C668 0.929 . S
H661 C670 0.930 . S
H662 C672 0.930 . S
H663 C675 0.929 . S
H664 C678 0.930 . S
H665 C680 0.960 . S
H666 C680 0.960 . S
H667 C680 0.960 . S
C668 H660 0.929 . S
C668 C669 1.377 . S
C668 C670 1.384 . S
C669 C668 1.377 . S
C669 C675 1.390 . S
C670 H661 0.930 . S
C670 C668 1.384 . S
C670 C671 1.372 . S
C671 C670 1.372 . S
C671 C672 1.400 . S
C671 C676 1.490 . S
C672 H662 0.930 . S
C672 C671 1.400 . S
C672 C675 1.386 . S
H673 C689 0.930 . S
H674 C690 0.931 . S
C675 H663 0.929 . S
C675 C669 1.390 . S
C675 C672 1.386 . S
C676 C671 1.490 . S
C676 C678 1.395 . S
C676 C679 1.403 . S
H677 C683 0.930 . S
C678 H664 0.930 . S
C678 C676 1.395 . S
C678 C681 1.403 . S
C679 C676 1.403 . S
C679 C680 1.524 . S
C679 C683 1.400 . S
C680 H665 0.960 . S
C680 H666 0.960 . S
C680 H667 0.960 . S
C680 C679 1.524 . S
C681 C678 1.403 . S
C681 C682 1.392 . S
C681 C685 1.495 . S
C682 C681 1.392 . S
C682 C683 1.385 . S
C682 C684 1.478 . S
C683 H677 0.930 . S
C683 C679 1.400 . S
C683 C682 1.385 . S
C684 C682 1.478 . S
C684 C686 1.381 . S
C684 C690 1.383 . S
C685 C681 1.495 . S
C685 H691 0.959 . S
C685 H692 0.961 . S
C685 H693 0.960 . S
C686 C684 1.381 . S
C686 C687 1.394 . S
C686 H694 0.930 . S
C687 C686 1.394 . S
C687 C688 1.383 . S
C687 H695 0.929 . S
C688 C687 1.383 . S
C688 C689 1.377 . S
C689 H673 0.930 . S
C689 C688 1.377 . S
C689 C690 1.379 . S
C690 H674 0.931 . S
C690 C684 1.383 . S
C690 C689 1.379 . S
H691 C685 0.959 . S
H692 C685 0.961 . S
H693 C685 0.960 . S
H694 C686 0.930 . S
H695 C687 0.929 . S
H696 C704 0.929 . S
H697 C706 0.930 . S
H698 C708 0.930 . S
H699 C711 0.929 . S
H700 C714 0.930 . S
H701 C716 0.960 . S
H702 C716 0.960 . S
H703 C716 0.960 . S
C704 H696 0.929 . S
C704 C705 1.377 . S
C704 C706 1.384 . S
C705 C704 1.377 . S
C705 C711 1.390 . S
C706 H697 0.930 . S
C706 C704 1.384 . S
C706 C707 1.372 . S
C707 C706 1.372 . S
C707 C708 1.400 . S
C707 C712 1.490 . S
C708 H698 0.930 . S
C708 C707 1.400 . S
C708 C711 1.386 . S
H709 C725 0.930 . S
H710 C726 0.931 . S
C711 H699 0.929 . S
C711 C705 1.390 . S
C711 C708 1.386 . S
C712 C707 1.490 . S
C712 C714 1.395 . S
C712 C715 1.403 . S
H713 C719 0.930 . S
C714 H700 0.930 . S
C714 C712 1.395 . S
C714 C717 1.403 . S
C715 C712 1.403 . S
C715 C716 1.524 . S
C715 C719 1.400 . S
C716 H701 0.960 . S
C716 H702 0.960 . S
C716 H703 0.960 . S
C716 C715 1.524 . S
C717 C714 1.403 . S
C717 C718 1.392 . S
C717 C721 1.495 . S
C718 C717 1.392 . S
C718 C719 1.385 . S
C718 C720 1.478 . S
C719 H713 0.930 . S
C719 C715 1.400 . S
C719 C718 1.385 . S
C720 C718 1.478 . S
C720 C722 1.381 . S
C720 C726 1.383 . S
C721 C717 1.495 . S
C721 H727 0.959 . S
C721 H728 0.961 . S
C721 H729 0.960 . S
C722 C720 1.381 . S
C722 C723 1.394 . S
C722 H730 0.930 . S
C723 C722 1.394 . S
C723 C724 1.383 . S
C723 H731 0.929 . S
C724 C723 1.383 . S
C724 C725 1.377 . S
C725 H709 0.930 . S
C725 C724 1.377 . S
C725 C726 1.379 . S
C726 H710 0.931 . S
C726 C720 1.383 . S
C726 C725 1.379 . S
H727 C721 0.959 . S
H728 C721 0.961 . S
H729 C721 0.960 . S
H730 C722 0.930 . S
H731 C723 0.929 . S
H732 C740 0.929 . S
H733 C742 0.930 . S
H734 C744 0.930 . S
H735 C747 0.929 . S
H736 C750 0.930 . S
H737 C752 0.960 . S
H738 C752 0.960 . S
H739 C752 0.960 . S
C740 H732 0.929 . S
C740 C741 1.377 . S
C740 C742 1.384 . S
C741 C740 1.377 . S
C741 C747 1.390 . S
C742 H733 0.930 . S
C742 C740 1.384 . S
C742 C743 1.372 . S
C743 C742 1.372 . S
C743 C744 1.400 . S
C743 C748 1.490 . S
C744 H734 0.930 . S
C744 C743 1.400 . S
C744 C747 1.386 . S
H745 C761 0.930 . S
H746 C762 0.931 . S
C747 H735 0.929 . S
C747 C741 1.390 . S
C747 C744 1.386 . S
C748 C743 1.490 . S
C748 C750 1.395 . S
C748 C751 1.403 . S
H749 C755 0.930 . S
C750 H736 0.930 . S
C750 C748 1.395 . S
C750 C753 1.403 . S
C751 C748 1.403 . S
C751 C752 1.524 . S
C751 C755 1.400 . S
C752 H737 0.960 . S
C752 H738 0.960 . S
C752 H739 0.960 . S
C752 C751 1.524 . S
C753 C750 1.403 . S
C753 C754 1.392 . S
C753 C757 1.495 . S
C754 C753 1.392 . S
C754 C755 1.385 . S
C754 C756 1.478 . S
C755 H749 0.930 . S
C755 C751 1.400 . S
C755 C754 1.385 . S
C756 C754 1.478 . S
C756 C758 1.381 . S
C756 C762 1.383 . S
C757 C753 1.495 . S
C757 H763 0.959 . S
C757 H764 0.961 . S
C757 H765 0.960 . S
C758 C756 1.381 . S
C758 C759 1.394 . S
C758 H766 0.930 . S
C759 C758 1.394 . S
C759 C760 1.383 . S
C759 H767 0.929 . S
C760 C759 1.383 . S
C760 C761 1.377 . S
C761 H745 0.930 . S
C761 C760 1.377 . S
C761 C762 1.379 . S
C762 H746 0.931 . S
C762 C756 1.383 . S
C762 C761 1.379 . S
H763 C757 0.959 . S
H764 C757 0.961 . S
H765 C757 0.960 . S
H766 C758 0.930 . S
H767 C759 0.929 . S
H768 C776 0.929 . S
H769 C778 0.930 . S
H770 C780 0.930 . S
H771 C783 0.929 . S
H772 C786 0.930 . S
H773 C788 0.960 . S
H774 C788 0.960 . S
H775 C788 0.960 . S
C776 H768 0.929 . S
C776 C777 1.377 . S
C776 C778 1.384 . S
C777 C776 1.377 . S
C777 C783 1.390 . S
C778 H769 0.930 . S
C778 C776 1.384 . S
C778 C779 1.372 . S
C779 C778 1.372 . S
C779 C780 1.400 . S
C779 C784 1.490 . S
C780 H770 0.930 . S
C780 C779 1.400 . S
C780 C783 1.386 . S
H781 C797 0.930 . S
H782 C798 0.931 . S
C783 H771 0.929 . S
C783 C777 1.390 . S
C783 C780 1.386 . S
C784 C779 1.490 . S
C784 C786 1.395 . S
C784 C787 1.403 . S
H785 C791 0.930 . S
C786 H772 0.930 . S
C786 C784 1.395 . S
C786 C789 1.403 . S
C787 C784 1.403 . S
C787 C788 1.524 . S
C787 C791 1.400 . S
C788 H773 0.960 . S
C788 H774 0.960 . S
C788 H775 0.960 . S
C788 C787 1.524 . S
C789 C786 1.403 . S
C789 C790 1.392 . S
C789 C793 1.495 . S
C790 C789 1.392 . S
C790 C791 1.385 . S
C790 C792 1.478 . S
C791 H785 0.930 . S
C791 C787 1.400 . S
C791 C790 1.385 . S
C792 C790 1.478 . S
C792 C794 1.381 . S
C792 C798 1.383 . S
C793 C789 1.495 . S
C793 H799 0.959 . S
C793 H800 0.961 . S
C793 H801 0.960 . S
C794 C792 1.381 . S
C794 C795 1.394 . S
C794 H802 0.930 . S
C795 C794 1.394 . S
C795 C796 1.383 . S
C795 H803 0.929 . S
C796 C795 1.383 . S
C796 C797 1.377 . S
C797 H781 0.930 . S
C797 C796 1.377 . S
C797 C798 1.379 . S
C798 H782 0.931 . S
C798 C792 1.383 . S
C798 C797 1.379 . S
H799 C793 0.959 . S
H800 C793 0.961 . S
H801 C793 0.960 . S
H802 C794 0.930 . S
H803 C795 0.929 . S
H804 C812 0.929 . S
H805 C814 0.930 . S
H806 C816 0.930 . S
H807 C819 0.929 . S
H808 C822 0.930 . S
H809 C824 0.960 . S
H810 C824 0.960 . S
H811 C824 0.960 . S
C812 H804 0.929 . S
C812 C813 1.377 . S
C812 C814 1.384 . S
C813 C812 1.377 . S
C813 C819 1.390 . S
C814 H805 0.930 . S
C814 C812 1.384 . S
C814 C815 1.372 . S
C815 C814 1.372 . S
C815 C816 1.400 . S
C815 C820 1.490 . S
C816 H806 0.930 . S
C816 C815 1.400 . S
C816 C819 1.386 . S
H817 C833 0.930 . S
H818 C834 0.931 . S
C819 H807 0.929 . S
C819 C813 1.390 . S
C819 C816 1.386 . S
C820 C815 1.490 . S
C820 C822 1.395 . S
C820 C823 1.403 . S
H821 C827 0.930 . S
C822 H808 0.930 . S
C822 C820 1.395 . S
C822 C825 1.403 . S
C823 C820 1.403 . S
C823 C824 1.524 . S
C823 C827 1.400 . S
C824 H809 0.960 . S
C824 H810 0.960 . S
C824 H811 0.960 . S
C824 C823 1.524 . S
C825 C822 1.403 . S
C825 C826 1.392 . S
C825 C829 1.495 . S
C826 C825 1.392 . S
C826 C827 1.385 . S
C826 C828 1.478 . S
C827 H821 0.930 . S
C827 C823 1.400 . S
C827 C826 1.385 . S
C828 C826 1.478 . S
C828 C830 1.381 . S
C828 C834 1.383 . S
C829 C825 1.495 . S
C829 H835 0.959 . S
C829 H836 0.961 . S
C829 H837 0.960 . S
C830 C828 1.381 . S
C830 C831 1.394 . S
C830 H838 0.930 . S
C831 C830 1.394 . S
C831 C832 1.383 . S
C831 H839 0.929 . S
C832 C831 1.383 . S
C832 C833 1.377 . S
C833 H817 0.930 . S
C833 C832 1.377 . S
C833 C834 1.379 . S
C834 H818 0.931 . S
C834 C828 1.383 . S
C834 C833 1.379 . S
H835 C829 0.959 . S
H836 C829 0.961 . S
H837 C829 0.960 . S
H838 C830 0.930 . S
H839 C831 0.929 . S
H840 C848 0.929 . S
H841 C850 0.930 . S
H842 C852 0.930 . S
H843 C855 0.929 . S
H844 C858 0.930 . S
H845 C860 0.960 . S
H846 C860 0.960 . S
H847 C860 0.960 . S
C848 H840 0.929 . S
C848 C849 1.377 . S
C848 C850 1.384 . S
C849 C848 1.377 . S
C849 C855 1.390 . S
C850 H841 0.930 . S
C850 C848 1.384 . S
C850 C851 1.372 . S
C851 C850 1.372 . S
C851 C852 1.400 . S
C851 C856 1.490 . S
C852 H842 0.930 . S
C852 C851 1.400 . S
C852 C855 1.386 . S
H853 C869 0.930 . S
H854 C870 0.931 . S
C855 H843 0.929 . S
C855 C849 1.390 . S
C855 C852 1.386 . S
C856 C851 1.490 . S
C856 C858 1.395 . S
C856 C859 1.403 . S
H857 C863 0.930 . S
C858 H844 0.930 . S
C858 C856 1.395 . S
C858 C861 1.403 . S
C859 C856 1.403 . S
C859 C860 1.524 . S
C859 C863 1.400 . S
C860 H845 0.960 . S
C860 H846 0.960 . S
C860 H847 0.960 . S
C860 C859 1.524 . S
C861 C858 1.403 . S
C861 C862 1.392 . S
C861 C865 1.495 . S
C862 C861 1.392 . S
C862 C863 1.385 . S
C862 C864 1.478 . S
C863 H857 0.930 . S
C863 C859 1.400 . S
C863 C862 1.385 . S
C864 C862 1.478 . S
C864 C866 1.381 . S
C864 C870 1.383 . S
C865 C861 1.495 . S
C865 H871 0.959 . S
C865 H872 0.961 . S
C865 H873 0.960 . S
C866 C864 1.381 . S
C866 C867 1.394 . S
C866 H874 0.930 . S
C867 C866 1.394 . S
C867 C868 1.383 . S
C867 H875 0.929 . S
C868 C867 1.383 . S
C868 C869 1.377 . S
C869 H853 0.930 . S
C869 C868 1.377 . S
C869 C870 1.379 . S
C870 H854 0.931 . S
C870 C864 1.383 . S
C870 C869 1.379 . S
H871 C865 0.959 . S
H872 C865 0.961 . S
H873 C865 0.960 . S
H874 C866 0.930 . S
H875 C867 0.929 . S
H876 C884 0.929 . S
H877 C886 0.930 . S
H878 C888 0.930 . S
H879 C891 0.929 . S
H880 C894 0.930 . S
H881 C896 0.960 . S
H882 C896 0.960 . S
H883 C896 0.960 . S
C884 H876 0.929 . S
C884 C885 1.377 . S
C884 C886 1.384 . S
C885 C884 1.377 . S
C885 C891 1.390 . S
C886 H877 0.930 . S
C886 C884 1.384 . S
C886 C887 1.372 . S
C887 C886 1.372 . S
C887 C888 1.400 . S
C887 C892 1.490 . S
C888 H878 0.930 . S
C888 C887 1.400 . S
C888 C891 1.386 . S
H889 C905 0.930 . S
H890 C906 0.931 . S
C891 H879 0.929 . S
C891 C885 1.390 . S
C891 C888 1.386 . S
C892 C887 1.490 . S
C892 C894 1.395 . S
C892 C895 1.403 . S
H893 C899 0.930 . S
C894 H880 0.930 . S
C894 C892 1.395 . S
C894 C897 1.403 . S
C895 C892 1.403 . S
C895 C896 1.524 . S
C895 C899 1.400 . S
C896 H881 0.960 . S
C896 H882 0.960 . S
C896 H883 0.960 . S
C896 C895 1.524 . S
C897 C894 1.403 . S
C897 C898 1.392 . S
C897 C901 1.495 . S
C898 C897 1.392 . S
C898 C899 1.385 . S
C898 C900 1.478 . S
C899 H893 0.930 . S
C899 C895 1.400 . S
C899 C898 1.385 . S
C900 C898 1.478 . S
C900 C902 1.381 . S
C900 C906 1.383 . S
C901 C897 1.495 . S
C901 H907 0.959 . S
C901 H908 0.961 . S
C901 H909 0.960 . S
C902 C900 1.381 . S
C902 C903 1.394 . S
C902 H910 0.930 . S
C903 C902 1.394 . S
C903 C904 1.383 . S
C903 H911 0.929 . S
C904 C903 1.383 . S
C904 C905 1.377 . S
C905 H889 0.930 . S
C905 C904 1.377 . S
C905 C906 1.379 . S
C906 H890 0.931 . S
C906 C900 1.383 . S
C906 C905 1.379 . S
H907 C901 0.959 . S
H908 C901 0.961 . S
H909 C901 0.960 . S
H910 C902 0.930 . S
H911 C903 0.929 . S
H912 C920 0.929 . S
H913 C922 0.930 . S
H914 C924 0.930 . S
H915 C927 0.929 . S
H916 C930 0.930 . S
H917 C932 0.960 . S
H918 C932 0.960 . S
H919 C932 0.960 . S
C920 H912 0.929 . S
C920 C921 1.377 . S
C920 C922 1.384 . S
C921 C920 1.377 . S
C921 C927 1.390 . S
C922 H913 0.930 . S
C922 C920 1.384 . S
C922 C923 1.372 . S
C923 C922 1.372 . S
C923 C924 1.400 . S
C923 C928 1.490 . S
C924 H914 0.930 . S
C924 C923 1.400 . S
C924 C927 1.386 . S
H925 C941 0.930 . S
H926 C942 0.931 . S
C927 H915 0.929 . S
C927 C921 1.390 . S
C927 C924 1.386 . S
C928 C923 1.490 . S
C928 C930 1.395 . S
C928 C931 1.403 . S
H929 C935 0.930 . S
C930 H916 0.930 . S
C930 C928 1.395 . S
C930 C933 1.403 . S
C931 C928 1.403 . S
C931 C932 1.524 . S
C931 C935 1.400 . S
C932 H917 0.960 . S
C932 H918 0.960 . S
C932 H919 0.960 . S
C932 C931 1.524 . S
C933 C930 1.403 . S
C933 C934 1.392 . S
C933 C937 1.495 . S
C934 C933 1.392 . S
C934 C935 1.385 . S
C934 C936 1.478 . S
C935 H929 0.930 . S
C935 C931 1.400 . S
C935 C934 1.385 . S
C936 C934 1.478 . S
C936 C938 1.381 . S
C936 C942 1.383 . S
C937 C933 1.495 . S
C937 H943 0.959 . S
C937 H944 0.961 . S
C937 H945 0.960 . S
C938 C936 1.381 . S
C938 C939 1.394 . S
C938 H946 0.930 . S
C939 C938 1.394 . S
C939 C940 1.383 . S
C939 H947 0.929 . S
C940 C939 1.383 . S
C940 C941 1.377 . S
C941 H925 0.930 . S
C941 C940 1.377 . S
C941 C942 1.379 . S
C942 H926 0.931 . S
C942 C936 1.383 . S
C942 C941 1.379 . S
H943 C937 0.959 . S
H944 C937 0.961 . S
H945 C937 0.960 . S
H946 C938 0.930 . S
H947 C939 0.929 . S
H948 C956 0.929 . S
H949 C958 0.930 . S
H950 C960 0.930 . S
H951 C963 0.929 . S
H952 C966 0.930 . S
H953 C968 0.960 . S
H954 C968 0.960 . S
H955 C968 0.960 . S
C956 H948 0.929 . S
C956 C957 1.377 . S
C956 C958 1.384 . S
C957 C956 1.377 . S
C957 C963 1.390 . S
C958 H949 0.930 . S
C958 C956 1.384 . S
C958 C959 1.372 . S
C959 C958 1.372 . S
C959 C960 1.400 . S
C959 C964 1.490 . S
C960 H950 0.930 . S
C960 C959 1.400 . S
C960 C963 1.386 . S
H961 C977 0.930 . S
H962 C978 0.931 . S
C963 H951 0.929 . S
C963 C957 1.390 . S
C963 C960 1.386 . S
C964 C959 1.490 . S
C964 C966 1.395 . S
C964 C967 1.403 . S
H965 C971 0.930 . S
C966 H952 0.930 . S
C966 C964 1.395 . S
C966 C969 1.403 . S
C967 C964 1.403 . S
C967 C968 1.524 . S
C967 C971 1.400 . S
C968 H953 0.960 . S
C968 H954 0.960 . S
C968 H955 0.960 . S
C968 C967 1.524 . S
C969 C966 1.403 . S
C969 C970 1.392 . S
C969 C973 1.495 . S
C970 C969 1.392 . S
C970 C971 1.385 . S
C970 C972 1.478 . S
C971 H965 0.930 . S
C971 C967 1.400 . S
C971 C970 1.385 . S
C972 C970 1.478 . S
C972 C974 1.381 . S
C972 C978 1.383 . S
C973 C969 1.495 . S
C973 H979 0.959 . S
C973 H980 0.961 . S
C973 H981 0.960 . S
C974 C972 1.381 . S
C974 C975 1.394 . S
C974 H982 0.930 . S
C975 C974 1.394 . S
C975 C976 1.383 . S
C975 H983 0.929 . S
C976 C975 1.383 . S
C976 C977 1.377 . S
C977 H961 0.930 . S
C977 C976 1.377 . S
C977 C978 1.379 . S
C978 H962 0.931 . S
C978 C972 1.383 . S
C978 C977 1.379 . S
H979 C973 0.959 . S
H980 C973 0.961 . S
H981 C973 0.960 . S
H982 C974 0.930 . S
H983 C975 0.929 . S
H984 C992 0.929 . S
H985 C994 0.930 . S
H986 C996 0.930 . S
H987 C999 0.929 . S
H988 C1002 0.930 . S
H989 C1004 0.960 . S
H990 C1004 0.960 . S
H991 C1004 0.960 . S
C992 H984 0.929 . S
C992 C993 1.377 . S
C992 C994 1.384 . S
C993 C992 1.377 . S
C993 C999 1.390 . S
C994 H985 0.930 . S
C994 C992 1.384 . S
C994 C995 1.372 . S
C995 C994 1.372 . S
C995 C996 1.400 . S
C995 C1000 1.490 . S
C996 H986 0.930 . S
C996 C995 1.400 . S
C996 C999 1.386 . S
H997 C1013 0.930 . S
H998 C1014 0.931 . S
C999 H987 0.929 . S
C999 C993 1.390 . S
C999 C996 1.386 . S
C1000 C995 1.490 . S
C1000 C1002 1.395 . S
C1000 C1003 1.403 . S
H1001 C1007 0.930 . S
C1002 H988 0.930 . S
C1002 C1000 1.395 . S
C1002 C1005 1.403 . S
C1003 C1000 1.403 . S
C1003 C1004 1.524 . S
C1003 C1007 1.400 . S
C1004 H989 0.960 . S
C1004 H990 0.960 . S
C1004 H991 0.960 . S
C1004 C1003 1.524 . S
C1005 C1002 1.403 . S
C1005 C1006 1.392 . S
C1005 C1009 1.495 . S
C1006 C1005 1.392 . S
C1006 C1007 1.385 . S
C1006 C1008 1.478 . S
C1007 H1001 0.930 . S
C1007 C1003 1.400 . S
C1007 C1006 1.385 . S
C1008 C1006 1.478 . S
C1008 C1010 1.381 . S
C1008 C1014 1.383 . S
C1009 C1005 1.495 . S
C1009 H1015 0.959 . S
C1009 H1016 0.961 . S
C1009 H1017 0.960 . S
C1010 C1008 1.381 . S
C1010 C1011 1.394 . S
C1010 H1018 0.930 . S
C1011 C1010 1.394 . S
C1011 C1012 1.383 . S
C1011 H1019 0.929 . S
C1012 C1011 1.383 . S
C1012 C1013 1.377 . S
C1013 H997 0.930 . S
C1013 C1012 1.377 . S
C1013 C1014 1.379 . S
C1014 H998 0.931 . S
C1014 C1008 1.383 . S
C1014 C1013 1.379 . S
H1015 C1009 0.959 . S
H1016 C1009 0.961 . S
H1017 C1009 0.960 . S
H1018 C1010 0.930 . S
H1019 C1011 0.929 . S
H1020 C1028 0.929 . S
H1021 C1030 0.930 . S
H1022 C1032 0.930 . S
H1023 C1035 0.929 . S
H1024 C1038 0.930 . S
H1025 C1040 0.960 . S
H1026 C1040 0.960 . S
H1027 C1040 0.960 . S
C1028 H1020 0.929 . S
C1028 C1029 1.377 . S
C1028 C1030 1.384 . S
C1029 C1028 1.377 . S
C1029 C1035 1.390 . S
C1030 H1021 0.930 . S
C1030 C1028 1.384 . S
C1030 C1031 1.372 . S
C1031 C1030 1.372 . S
C1031 C1032 1.400 . S
C1031 C1036 1.490 . S
C1032 H1022 0.930 . S
C1032 C1031 1.400 . S
C1032 C1035 1.386 . S
H1033 C1049 0.930 . S
H1034 C1050 0.931 . S
C1035 H1023 0.929 . S
C1035 C1029 1.390 . S
C1035 C1032 1.386 . S
C1036 C1031 1.490 . S
C1036 C1038 1.395 . S
C1036 C1039 1.403 . S
H1037 C1043 0.930 . S
C1038 H1024 0.930 . S
C1038 C1036 1.395 . S
C1038 C1041 1.403 . S
C1039 C1036 1.403 . S
C1039 C1040 1.524 . S
C1039 C1043 1.400 . S
C1040 H1025 0.960 . S
C1040 H1026 0.960 . S
C1040 H1027 0.960 . S
C1040 C1039 1.524 . S
C1041 C1038 1.403 . S
C1041 C1042 1.392 . S
C1041 C1045 1.495 . S
C1042 C1041 1.392 . S
C1042 C1043 1.385 . S
C1042 C1044 1.478 . S
C1043 H1037 0.930 . S
C1043 C1039 1.400 . S
C1043 C1042 1.385 . S
C1044 C1042 1.478 . S
C1044 C1046 1.381 . S
C1044 C1050 1.383 . S
C1045 C1041 1.495 . S
C1045 H1051 0.959 . S
C1045 H1052 0.961 . S
C1045 H1053 0.960 . S
C1046 C1044 1.381 . S
C1046 C1047 1.394 . S
C1046 H1054 0.930 . S
C1047 C1046 1.394 . S
C1047 C1048 1.383 . S
C1047 H1055 0.929 . S
C1048 C1047 1.383 . S
C1048 C1049 1.377 . S
C1049 H1033 0.930 . S
C1049 C1048 1.377 . S
C1049 C1050 1.379 . S
C1050 H1034 0.931 . S
C1050 C1044 1.383 . S
C1050 C1049 1.379 . S
H1051 C1045 0.959 . S
H1052 C1045 0.961 . S
H1053 C1045 0.960 . S
H1054 C1046 0.930 . S
H1055 C1047 0.929 . S
H1056 C1064 0.929 . S
H1057 C1066 0.930 . S
H1058 C1068 0.930 . S
H1059 C1071 0.929 . S
H1060 C1074 0.930 . S
H1061 C1076 0.960 . S
H1062 C1076 0.960 . S
H1063 C1076 0.960 . S
C1064 H1056 0.929 . S
C1064 C1065 1.377 . S
C1064 C1066 1.384 . S
C1065 C1064 1.377 . S
C1065 C1071 1.390 . S
C1066 H1057 0.930 . S
C1066 C1064 1.384 . S
C1066 C1067 1.372 . S
C1067 C1066 1.372 . S
C1067 C1068 1.400 . S
C1067 C1072 1.490 . S
C1068 H1058 0.930 . S
C1068 C1067 1.400 . S
C1068 C1071 1.386 . S
H1069 C1085 0.930 . S
H1070 C1086 0.931 . S
C1071 H1059 0.929 . S
C1071 C1065 1.390 . S
C1071 C1068 1.386 . S
C1072 C1067 1.490 . S
C1072 C1074 1.395 . S
C1072 C1075 1.403 . S
H1073 C1079 0.930 . S
C1074 H1060 0.930 . S
C1074 C1072 1.395 . S
C1074 C1077 1.403 . S
C1075 C1072 1.403 . S
C1075 C1076 1.524 . S
C1075 C1079 1.400 . S
C1076 H1061 0.960 . S
C1076 H1062 0.960 . S
C1076 H1063 0.960 . S
C1076 C1075 1.524 . S
C1077 C1074 1.403 . S
C1077 C1078 1.392 . S
C1077 C1081 1.495 . S
C1078 C1077 1.392 . S
C1078 C1079 1.385 . S
C1078 C1080 1.478 . S
C1079 H1073 0.930 . S
C1079 C1075 1.400 . S
C1079 C1078 1.385 . S
C1080 C1078 1.478 . S
C1080 C1082 1.381 . S
C1080 C1086 1.383 . S
C1081 C1077 1.495 . S
C1081 H1087 0.959 . S
C1081 H1088 0.961 . S
C1081 H1089 0.960 . S
C1082 C1080 1.381 . S
C1082 C1083 1.394 . S
C1082 H1090 0.930 . S
C1083 C1082 1.394 . S
C1083 C1084 1.383 . S
C1083 H1091 0.929 . S
C1084 C1083 1.383 . S
C1084 C1085 1.377 . S
C1085 H1069 0.930 . S
C1085 C1084 1.377 . S
C1085 C1086 1.379 . S
C1086 H1070 0.931 . S
C1086 C1080 1.383 . S
C1086 C1085 1.379 . S
H1087 C1081 0.959 . S
H1088 C1081 0.961 . S
H1089 C1081 0.960 . S
H1090 C1082 0.930 . S
H1091 C1083 0.929 . S
H1092 C1100 0.929 . S
H1093 C1102 0.930 . S
H1094 C1104 0.930 . S
H1095 C1107 0.929 . S
H1096 C1110 0.930 . S
H1097 C1112 0.960 . S
H1098 C1112 0.960 . S
H1099 C1112 0.960 . S
C1100 H1092 0.929 . S
C1100 C1101 1.377 . S
C1100 C1102 1.384 . S
C1101 C1100 1.377 . S
C1101 C1107 1.390 . S
C1102 H1093 0.930 . S
C1102 C1100 1.384 . S
C1102 C1103 1.372 . S
C1103 C1102 1.372 . S
C1103 C1104 1.400 . S
C1103 C1108 1.490 . S
C1104 H1094 0.930 . S
C1104 C1103 1.400 . S
C1104 C1107 1.386 . S
H1105 C1121 0.930 . S
H1106 C1122 0.931 . S
C1107 H1095 0.929 . S
C1107 C1101 1.390 . S
C1107 C1104 1.386 . S
C1108 C1103 1.490 . S
C1108 C1110 1.395 . S
C1108 C1111 1.403 . S
H1109 C1115 0.930 . S
C1110 H1096 0.930 . S
C1110 C1108 1.395 . S
C1110 C1113 1.403 . S
C1111 C1108 1.403 . S
C1111 C1112 1.524 . S
C1111 C1115 1.400 . S
C1112 H1097 0.960 . S
C1112 H1098 0.960 . S
C1112 H1099 0.960 . S
C1112 C1111 1.524 . S
C1113 C1110 1.403 . S
C1113 C1114 1.392 . S
C1113 C1117 1.495 . S
C1114 C1113 1.392 . S
C1114 C1115 1.385 . S
C1114 C1116 1.478 . S
C1115 H1109 0.930 . S
C1115 C1111 1.400 . S
C1115 C1114 1.385 . S
C1116 C1114 1.478 . S
C1116 C1118 1.381 . S
C1116 C1122 1.383 . S
C1117 C1113 1.495 . S
C1117 H1123 0.959 . S
C1117 H1124 0.961 . S
C1117 H1125 0.960 . S
C1118 C1116 1.381 . S
C1118 C1119 1.394 . S
C1118 H1126 0.930 . S
C1119 C1118 1.394 . S
C1119 C1120 1.383 . S
C1119 H1127 0.929 . S
C1120 C1119 1.383 . S
C1120 C1121 1.377 . S
C1121 H1105 0.930 . S
C1121 C1120 1.377 . S
C1121 C1122 1.379 . S
C1122 H1106 0.931 . S
C1122 C1116 1.383 . S
C1122 C1121 1.379 . S
H1123 C1117 0.959 . S
H1124 C1117 0.961 . S
H1125 C1117 0.960 . S
H1126 C1118 0.930 . S
H1127 C1119 0.929 . S
H1128 C1136 0.929 . S
H1129 C1138 0.930 . S
H1130 C1140 0.930 . S
H1131 C1143 0.929 . S
H1132 C1146 0.930 . S
H1133 C1148 0.960 . S
H1134 C1148 0.960 . S
H1135 C1148 0.960 . S
C1136 H1128 0.929 . S
C1136 C1137 1.377 . S
C1136 C1138 1.384 . S
C1137 C1136 1.377 . S
C1137 C1143 1.390 . S
C1138 H1129 0.930 . S
C1138 C1136 1.384 . S
C1138 C1139 1.372 . S
C1139 C1138 1.372 . S
C1139 C1140 1.400 . S
C1139 C1144 1.490 . S
C1140 H1130 0.930 . S
C1140 C1139 1.400 . S
C1140 C1143 1.386 . S
H1141 C1157 0.930 . S
H1142 C1158 0.931 . S
C1143 H1131 0.929 . S
C1143 C1137 1.390 . S
C1143 C1140 1.386 . S
C1144 C1139 1.490 . S
C1144 C1146 1.395 . S
C1144 C1147 1.403 . S
H1145 C1151 0.930 . S
C1146 H1132 0.930 . S
C1146 C1144 1.395 . S
C1146 C1149 1.403 . S
C1147 C1144 1.403 . S
C1147 C1148 1.524 . S
C1147 C1151 1.400 . S
C1148 H1133 0.960 . S
C1148 H1134 0.960 . S
C1148 H1135 0.960 . S
C1148 C1147 1.524 . S
C1149 C1146 1.403 . S
C1149 C1150 1.392 . S
C1149 C1153 1.495 . S
C1150 C1149 1.392 . S
C1150 C1151 1.385 . S
C1150 C1152 1.478 . S
C1151 H1145 0.930 . S
C1151 C1147 1.400 . S
C1151 C1150 1.385 . S
C1152 C1150 1.478 . S
C1152 C1154 1.381 . S
C1152 C1158 1.383 . S
C1153 C1149 1.495 . S
C1153 H1159 0.959 . S
C1153 H1160 0.961 . S
C1153 H1161 0.960 . S
C1154 C1152 1.381 . S
C1154 C1155 1.394 . S
C1154 H1162 0.930 . S
C1155 C1154 1.394 . S
C1155 C1156 1.383 . S
C1155 H1163 0.929 . S
C1156 C1155 1.383 . S
C1156 C1157 1.377 . S
C1157 H1141 0.930 . S
C1157 C1156 1.377 . S
C1157 C1158 1.379 . S
C1158 H1142 0.931 . S
C1158 C1152 1.383 . S
C1158 C1157 1.379 . S
H1159 C1153 0.959 . S
H1160 C1153 0.961 . S
H1161 C1153 0.960 . S
H1162 C1154 0.930 . S
H1163 C1155 0.929 . S
H1164 C1172 0.929 . S
H1165 C1174 0.930 . S
H1166 C1176 0.930 . S
H1167 C1179 0.929 . S
H1168 C1182 0.930 . S
H1169 C1184 0.960 . S
H1170 C1184 0.960 . S
H1171 C1184 0.960 . S
C1172 H1164 0.929 . S
C1172 C1173 1.377 . S
C1172 C1174 1.384 . S
C1173 C1172 1.377 . S
C1173 C1179 1.390 . S
C1174 H1165 0.930 . S
C1174 C1172 1.384 . S
C1174 C1175 1.372 . S
C1175 C1174 1.372 . S
C1175 C1176 1.400 . S
C1175 C1180 1.490 . S
C1176 H1166 0.930 . S
C1176 C1175 1.400 . S
C1176 C1179 1.386 . S
H1177 C1193 0.930 . S
H1178 C1194 0.931 . S
C1179 H1167 0.929 . S
C1179 C1173 1.390 . S
C1179 C1176 1.386 . S
C1180 C1175 1.490 . S
C1180 C1182 1.395 . S
C1180 C1183 1.403 . S
H1181 C1187 0.930 . S
C1182 H1168 0.930 . S
C1182 C1180 1.395 . S
C1182 C1185 1.403 . S
C1183 C1180 1.403 . S
C1183 C1184 1.524 . S
C1183 C1187 1.400 . S
C1184 H1169 0.960 . S
C1184 H1170 0.960 . S
C1184 H1171 0.960 . S
C1184 C1183 1.524 . S
C1185 C1182 1.403 . S
C1185 C1186 1.392 . S
C1185 C1189 1.495 . S
C1186 C1185 1.392 . S
C1186 C1187 1.385 . S
C1186 C1188 1.478 . S
C1187 H1181 0.930 . S
C1187 C1183 1.400 . S
C1187 C1186 1.385 . S
C1188 C1186 1.478 . S
C1188 C1190 1.381 . S
C1188 C1194 1.383 . S
C1189 C1185 1.495 . S
C1189 H1195 0.959 . S
C1189 H1196 0.961 . S
C1189 H1197 0.960 . S
C1190 C1188 1.381 . S
C1190 C1191 1.394 . S
C1190 H1198 0.930 . S
C1191 C1190 1.394 . S
C1191 C1192 1.383 . S
C1191 H1199 0.929 . S
C1192 C1191 1.383 . S
C1192 C1193 1.377 . S
C1193 H1177 0.930 . S
C1193 C1192 1.377 . S
C1193 C1194 1.379 . S
C1194 H1178 0.931 . S
C1194 C1188 1.383 . S
C1194 C1193 1.379 . S
H1195 C1189 0.959 . S
H1196 C1189 0.961 . S
H1197 C1189 0.960 . S
H1198 C1190 0.930 . S
H1199 C1191 0.929 . S
H1200 C1208 0.929 . S
H1201 C1210 0.930 . S
H1202 C1212 0.930 . S
H1203 C1215 0.929 . S
H1204 C1218 0.930 . S
H1205 C1220 0.980 . S
H1206 C1220 0.952 1_556 S
H1207 C1220 0.950 1_556 S
C1208 H1200 0.929 . S
C1208 C1209 1.377 . S
C1208 C1210 1.384 . S
C1209 C1208 1.377 . S
C1209 C1215 1.390 . S
C1210 H1201 0.930 . S
C1210 C1208 1.384 . S
C1210 C1211 1.372 . S
C1211 C1210 1.372 . S
C1211 C1212 1.400 . S
C1211 C1216 1.490 . S
C1212 H1202 0.930 . S
C1212 C1211 1.400 . S
C1212 C1215 1.386 . S
H1213 C1229 0.930 . S
H1214 C1230 0.931 . S
C1215 H1203 0.929 . S
C1215 C1209 1.390 . S
C1215 C1212 1.386 . S
C1216 C1211 1.490 . S
C1216 C1218 1.395 1_565 S
C1216 C1219 1.443 . S
H1217 C1223 0.930 . S
C1218 H1204 0.930 . S
C1218 C1216 1.395 1_545 S
C1218 C1221 1.445 . S
C1219 C1216 1.443 . S
C1219 C1220 1.522 1_556 S
C1219 C1223 1.361 1_556 S
C1220 H1205 0.980 . S
C1220 H1206 0.952 1_554 S
C1220 H1207 0.950 1_554 S
C1220 C1219 1.522 1_554 S
C1221 C1218 1.445 . S
C1221 C1222 1.351 1_556 S
C1221 C1225 1.498 . S
C1222 C1221 1.351 1_554 S
C1222 C1223 1.385 1_545 S
C1222 C1224 1.478 . S
C1223 H1217 0.930 . S
C1223 C1219 1.361 1_554 S
C1223 C1222 1.385 1_565 S
C1224 C1222 1.478 . S
C1224 C1226 1.381 . S
C1224 C1230 1.383 . S
C1225 C1221 1.498 . S
C1225 H1231 0.959 . S
C1225 H1232 0.961 1_556 S
C1225 H1233 0.960 1_556 S
C1226 C1224 1.381 . S
C1226 C1227 1.394 . S
C1226 H1234 0.930 . S
C1227 C1226 1.394 . S
C1227 C1228 1.383 . S
C1227 H1235 0.929 . S
C1228 C1227 1.383 . S
C1228 C1229 1.377 . S
C1229 H1213 0.930 . S
C1229 C1228 1.377 . S
C1229 C1230 1.379 . S
C1230 H1214 0.931 . S
C1230 C1224 1.383 . S
C1230 C1229 1.379 . S
H1231 C1225 0.959 . S
H1232 C1225 0.961 1_554 S
H1233 C1225 0.960 1_554 S
H1234 C1226 0.930 . S
H1235 C1227 0.929 . S
H1236 C1244 0.929 . S
H1237 C1246 0.930 . S
H1238 C1248 0.930 . S
H1239 C1251 0.929 . S
H1240 C1254 0.930 . S
H1241 C1256 0.960 . S
H1242 C1256 0.960 . S
H1243 C1256 0.960 . S
C1244 H1236 0.929 . S
C1244 C1245 1.377 . S
C1244 C1246 1.384 . S
C1245 C1244 1.377 . S
C1245 C1251 1.390 . S
C1246 H1237 0.930 . S
C1246 C1244 1.384 . S
C1246 C1247 1.372 . S
C1247 C1246 1.372 . S
C1247 C1248 1.400 . S
C1247 C1252 1.490 . S
C1248 H1238 0.930 . S
C1248 C1247 1.400 . S
C1248 C1251 1.386 . S
H1249 C1265 0.930 . S
H1250 C1266 0.931 . S
C1251 H1239 0.929 . S
C1251 C1245 1.390 . S
C1251 C1248 1.386 . S
C1252 C1247 1.490 . S
C1252 C1254 1.395 . S
C1252 C1255 1.403 . S
H1253 C1259 0.930 . S
C1254 H1240 0.930 . S
C1254 C1252 1.395 . S
C1254 C1257 1.403 . S
C1255 C1252 1.403 . S
C1255 C1256 1.524 . S
C1255 C1259 1.400 . S
C1256 H1241 0.960 . S
C1256 H1242 0.960 . S
C1256 H1243 0.960 . S
C1256 C1255 1.524 . S
C1257 C1254 1.403 . S
C1257 C1258 1.392 . S
C1257 C1261 1.495 . S
C1258 C1257 1.392 . S
C1258 C1259 1.385 . S
C1258 C1260 1.478 . S
C1259 H1253 0.930 . S
C1259 C1255 1.400 . S
C1259 C1258 1.385 . S
C1260 C1258 1.478 . S
C1260 C1262 1.381 . S
C1260 C1266 1.383 . S
C1261 C1257 1.495 . S
C1261 H1267 0.959 . S
C1261 H1268 0.961 . S
C1261 H1269 0.960 . S
C1262 C1260 1.381 . S
C1262 C1263 1.394 . S
C1262 H1270 0.930 . S
C1263 C1262 1.394 . S
C1263 C1264 1.383 . S
C1263 H1271 0.929 . S
C1264 C1263 1.383 . S
C1264 C1265 1.377 . S
C1265 H1249 0.930 . S
C1265 C1264 1.377 . S
C1265 C1266 1.379 . S
C1266 H1250 0.931 . S
C1266 C1260 1.383 . S
C1266 C1265 1.379 . S
H1267 C1261 0.959 . S
H1268 C1261 0.961 . S
H1269 C1261 0.960 . S
H1270 C1262 0.930 . S
H1271 C1263 0.929 . S
H1272 C1280 0.929 . S
H1273 C1282 0.930 . S
H1274 C1284 0.930 . S
H1275 C1287 0.929 . S
H1276 C1290 0.930 . S
H1277 C1292 0.901 1_554 S
H1278 C1292 0.978 . S
H1279 C1292 1.003 . S
C1280 H1272 0.929 . S
C1280 C1281 1.377 . S
C1280 C1282 1.384 . S
C1281 C1280 1.377 . S
C1281 C1287 1.390 . S
C1282 H1273 0.930 . S
C1282 C1280 1.384 . S
C1282 C1283 1.372 . S
C1283 C1282 1.372 . S
C1283 C1284 1.400 . S
C1283 C1288 1.490 . S
C1284 H1274 0.930 . S
C1284 C1283 1.400 . S
C1284 C1287 1.386 . S
H1285 C1301 0.930 . S
H1286 C1302 0.931 . S
C1287 H1275 0.929 . S
C1287 C1281 1.390 . S
C1287 C1284 1.386 . S
C1288 C1283 1.490 . S
C1288 C1290 1.395 1_455 S
C1288 C1291 1.403 . S
H1289 C1295 0.930 . S
C1290 H1276 0.930 . S
C1290 C1288 1.395 1_655 S
C1290 C1293 1.389 1_556 S
C1291 C1288 1.403 . S
C1291 C1292 1.526 . S
C1291 C1295 1.400 1_556 S
C1292 H1277 0.901 1_556 S
C1292 H1278 0.978 . S
C1292 H1279 1.003 . S
C1292 C1291 1.526 . S
C1293 C1290 1.389 1_554 S
C1293 C1294 1.406 . S
C1293 C1297 1.495 . S
C1294 C1293 1.406 . S
C1294 C1295 1.385 1_655 S
C1294 C1296 1.478 . S
C1295 H1289 0.930 . S
C1295 C1291 1.400 1_554 S
C1295 C1294 1.385 1_455 S
C1296 C1294 1.478 . S
C1296 C1298 1.381 . S
C1296 C1302 1.383 . S
C1297 C1293 1.495 . S
C1297 H1303 0.934 1_554 S
C1297 H1304 0.969 . S
C1297 H1305 0.978 . S
C1298 C1296 1.381 . S
C1298 C1299 1.394 . S
C1298 H1306 0.930 . S
C1299 C1298 1.394 . S
C1299 C1300 1.383 . S
C1299 H1307 0.929 . S
C1300 C1299 1.383 . S
C1300 C1301 1.377 . S
C1301 H1285 0.930 . S
C1301 C1300 1.377 . S
C1301 C1302 1.379 . S
C1302 H1286 0.931 . S
C1302 C1296 1.383 . S
C1302 C1301 1.379 . S
H1303 C1297 0.934 1_556 S
H1304 C1297 0.969 . S
H1305 C1297 0.978 . S
H1306 C1298 0.930 . S
H1307 C1299 0.929 . S
H1308 C1316 0.929 . S
H1309 C1318 0.930 . S
H1310 C1320 0.930 1_565 S
H1311 C1323 0.929 . S
H1312 C1326 0.930 . S
H1313 C1328 0.960 . S
H1314 C1328 0.960 . S
H1315 C1328 0.991 . S
C1316 H1308 0.929 . S
C1316 C1317 1.377 . S
C1316 C1318 1.384 . S
C1317 C1316 1.377 . S
C1317 C1323 1.390 . S
C1318 H1309 0.930 . S
C1318 C1316 1.384 . S
C1318 C1319 1.372 . S
C1319 C1318 1.372 . S
C1319 C1320 1.400 . S
C1319 C1324 1.490 . S
C1320 H1310 0.930 1_545 S
C1320 C1319 1.400 . S
C1320 C1323 1.386 . S
H1321 C1337 0.930 . S
H1322 C1338 0.931 . S
C1323 H1311 0.929 . S
C1323 C1317 1.390 . S
C1323 C1320 1.386 . S
C1324 C1319 1.490 . S
C1324 C1326 1.395 . S
C1324 C1327 1.403 . S
H1325 C1331 0.930 . S
C1326 H1312 0.930 . S
C1326 C1324 1.395 . S
C1326 C1329 1.403 1_545 S
C1327 C1324 1.403 . S
C1327 C1328 1.524 . S
C1327 C1331 1.400 1_545 S
C1328 H1313 0.960 . S
C1328 H1314 0.960 . S
C1328 H1315 0.991 . S
C1328 C1327 1.524 . S
C1329 C1326 1.403 1_565 S
C1329 C1330 1.392 . S
C1329 C1333 1.495 . S
C1330 C1329 1.392 . S
C1330 C1331 1.385 . S
C1330 C1332 1.478 . S
C1331 H1325 0.930 . S
C1331 C1327 1.400 1_565 S
C1331 C1330 1.385 . S
C1332 C1330 1.478 . S
C1332 C1334 1.381 . S
C1332 C1338 1.383 . S
C1333 C1329 1.495 . S
C1333 H1339 0.921 1_565 S
C1333 H1340 0.961 . S
C1333 H1341 0.960 1_565 S
C1334 C1332 1.381 . S
C1334 C1335 1.394 . S
C1334 H1342 0.930 1_565 S
C1335 C1334 1.394 . S
C1335 C1336 1.383 . S
C1335 H1343 0.929 . S
C1336 C1335 1.383 . S
C1336 C1337 1.377 . S
C1337 H1321 0.930 . S
C1337 C1336 1.377 . S
C1337 C1338 1.379 . S
C1338 H1322 0.931 . S
C1338 C1332 1.383 . S
C1338 C1337 1.379 . S
H1339 C1333 0.921 1_545 S
H1340 C1333 0.961 . S
H1341 C1333 0.960 1_545 S
H1342 C1334 0.930 1_545 S
H1343 C1335 0.929 . S
H1344 C1352 0.929 . S
H1345 C1354 0.930 . S
H1346 C1356 0.930 . S
H1347 C1359 0.929 . S
H1348 C1362 0.930 . S
H1349 C1364 0.960 . S
H1350 C1364 0.960 . S
H1351 C1364 0.960 . S
C1352 H1344 0.929 . S
C1352 C1353 1.377 . S
C1352 C1354 1.384 . S
C1353 C1352 1.377 . S
C1353 C1359 1.390 . S
C1354 H1345 0.930 . S
C1354 C1352 1.384 . S
C1354 C1355 1.372 . S
C1355 C1354 1.372 . S
C1355 C1356 1.400 . S
C1355 C1360 1.490 . S
C1356 H1346 0.930 . S
C1356 C1355 1.400 . S
C1356 C1359 1.386 . S
H1357 C1373 0.930 . S
H1358 C1374 0.931 . S
C1359 H1347 0.929 . S
C1359 C1353 1.390 . S
C1359 C1356 1.386 . S
C1360 C1355 1.490 . S
C1360 C1362 1.395 . S
C1360 C1363 1.403 . S
H1361 C1367 0.930 . S
C1362 H1348 0.930 . S
C1362 C1360 1.395 . S
C1362 C1365 1.403 1_554 S
C1363 C1360 1.403 . S
C1363 C1364 1.524 . S
C1363 C1367 1.400 1_554 S
C1364 H1349 0.960 . S
C1364 H1350 0.960 . S
C1364 H1351 0.960 . S
C1364 C1363 1.524 . S
C1365 C1362 1.403 1_556 S
C1365 C1366 1.392 . S
C1365 C1369 1.495 . S
C1366 C1365 1.392 . S
C1366 C1367 1.385 . S
C1366 C1368 1.478 . S
C1367 H1361 0.930 . S
C1367 C1363 1.400 1_556 S
C1367 C1366 1.385 . S
C1368 C1366 1.478 . S
C1368 C1370 1.381 . S
C1368 C1374 1.383 . S
C1369 C1365 1.495 . S
C1369 H1375 0.959 . S
C1369 H1376 0.961 . S
C1369 H1377 0.960 . S
C1370 C1368 1.381 . S
C1370 C1371 1.394 . S
C1370 H1378 0.930 . S
C1371 C1370 1.394 . S
C1371 C1372 1.383 . S
C1371 H1379 0.929 . S
C1372 C1371 1.383 . S
C1372 C1373 1.377 . S
C1373 H1357 0.930 . S
C1373 C1372 1.377 . S
C1373 C1374 1.379 . S
C1374 H1358 0.931 . S
C1374 C1368 1.383 . S
C1374 C1373 1.379 . S
H1375 C1369 0.959 . S
H1376 C1369 0.961 . S
H1377 C1369 0.960 . S
H1378 C1370 0.930 . S
H1379 C1371 0.929 . S
H1380 C1388 0.929 . S
H1381 C1390 0.930 1_655 S
H1382 C1392 0.930 . S
H1383 C1395 0.929 . S
H1384 C1398 0.930 . S
H1385 C1400 0.960 . S
H1386 C1400 0.960 . S
H1387 C1400 0.960 . S
C1388 H1380 0.929 . S
C1388 C1389 1.377 . S
C1388 C1390 1.384 . S
C1389 C1388 1.377 . S
C1389 C1395 1.390 . S
C1390 H1381 0.930 1_455 S
C1390 C1388 1.384 . S
C1390 C1391 1.372 . S
C1391 C1390 1.372 . S
C1391 C1392 1.400 . S
C1391 C1396 1.490 . S
C1392 H1382 0.930 . S
C1392 C1391 1.400 . S
C1392 C1395 1.386 . S
H1393 C1409 0.930 . S
H1394 C1410 0.931 1_455 S
C1395 H1383 0.929 . S
C1395 C1389 1.390 . S
C1395 C1392 1.386 . S
C1396 C1391 1.490 . S
C1396 C1398 1.395 1_455 S
C1396 C1399 1.403 . S
H1397 C1403 0.930 . S
C1398 H1384 0.930 . S
C1398 C1396 1.395 1_655 S
C1398 C1401 1.403 . S
C1399 C1396 1.403 . S
C1399 C1400 1.524 . S
C1399 C1403 1.400 . S
C1400 H1385 0.960 . S
C1400 H1386 0.960 . S
C1400 H1387 0.960 . S
C1400 C1399 1.524 . S
C1401 C1398 1.403 . S
C1401 C1402 1.392 . S
C1401 C1405 1.495 . S
C1402 C1401 1.392 . S
C1402 C1403 1.385 1_655 S
C1402 C1404 1.478 . S
C1403 H1397 0.930 . S
C1403 C1399 1.400 . S
C1403 C1402 1.385 1_455 S
C1404 C1402 1.478 . S
C1404 C1406 1.381 . S
C1404 C1410 1.383 . S
C1405 C1401 1.495 . S
C1405 H1411 0.959 . S
C1405 H1412 0.961 . S
C1405 H1413 0.960 . S
C1406 C1404 1.381 . S
C1406 C1407 1.394 . S
C1406 H1414 0.930 . S
C1407 C1406 1.394 . S
C1407 C1408 1.383 . S
C1407 H1415 0.929 . S
C1408 C1407 1.383 . S
C1408 C1409 1.377 . S
C1409 H1393 0.930 . S
C1409 C1408 1.377 . S
C1409 C1410 1.379 . S
C1410 H1394 0.931 1_655 S
C1410 C1404 1.383 . S
C1410 C1409 1.379 . S
H1411 C1405 0.959 . S
H1412 C1405 0.961 . S
H1413 C1405 0.960 . S
H1414 C1406 0.930 . S
H1415 C1407 0.929 . S
H1416 C1424 0.929 . S
H1417 C1426 0.930 . S
H1418 C1428 0.930 . S
H1419 C1431 0.929 . S
H1420 C1434 0.930 . S
H1421 C1436 0.960 . S
H1422 C1436 0.960 . S
H1423 C1436 0.960 . S
C1424 H1416 0.929 . S
C1424 C1425 1.377 . S
C1424 C1426 1.384 . S
C1425 C1424 1.377 . S
C1425 C1431 1.390 . S
C1426 H1417 0.930 . S
C1426 C1424 1.384 . S
C1426 C1427 1.372 . S
C1427 C1426 1.372 . S
C1427 C1428 1.400 . S
C1427 C1432 1.490 . S
C1428 H1418 0.930 . S
C1428 C1427 1.400 . S
C1428 C1431 1.386 . S
H1429 C1445 0.930 . S
H1430 C1446 0.931 . S
C1431 H1419 0.929 . S
C1431 C1425 1.390 . S
C1431 C1428 1.386 . S
C1432 C1427 1.490 . S
C1432 C1434 1.395 . S
C1432 C1435 1.403 1_565 S
H1433 C1439 0.930 . S
C1434 H1420 0.930 . S
C1434 C1432 1.395 . S
C1434 C1437 1.403 1_556 S
C1435 C1432 1.403 1_545 S
C1435 C1436 1.524 . S
C1435 C1439 1.400 1_556 S
C1436 H1421 0.960 . S
C1436 H1422 0.960 . S
C1436 H1423 0.960 . S
C1436 C1435 1.524 . S
C1437 C1434 1.403 1_554 S
C1437 C1438 1.392 1_565 S
C1437 C1441 1.495 . S
C1438 C1437 1.392 1_545 S
C1438 C1439 1.385 . S
C1438 C1440 1.478 . S
C1439 H1433 0.930 . S
C1439 C1435 1.400 1_554 S
C1439 C1438 1.385 . S
C1440 C1438 1.478 . S
C1440 C1442 1.381 . S
C1440 C1446 1.383 . S
C1441 C1437 1.495 . S
C1441 H1447 0.959 . S
C1441 H1448 0.961 . S
C1441 H1449 0.960 . S
C1442 C1440 1.381 . S
C1442 C1443 1.394 . S
C1442 H1450 0.930 . S
C1443 C1442 1.394 . S
C1443 C1444 1.383 . S
C1443 H1451 0.929 . S
C1444 C1443 1.383 . S
C1444 C1445 1.377 . S
C1445 H1429 0.930 . S
C1445 C1444 1.377 . S
C1445 C1446 1.379 . S
C1446 H1430 0.931 . S
C1446 C1440 1.383 . S
C1446 C1445 1.379 . S
H1447 C1441 0.959 . S
H1448 C1441 0.961 . S
H1449 C1441 0.960 . S
H1450 C1442 0.930 . S
H1451 C1443 0.929 . S
H1452 C1460 0.929 . S
H1453 C1462 0.930 . S
H1454 C1464 0.930 . S
H1455 C1467 0.929 . S
H1456 C1470 0.930 . S
H1457 C1472 0.960 . S
H1458 C1472 0.960 . S
H1459 C1472 0.960 . S
C1460 H1452 0.929 . S
C1460 C1461 1.377 . S
C1460 C1462 1.384 . S
C1461 C1460 1.377 . S
C1461 C1467 1.390 . S
C1462 H1453 0.930 . S
C1462 C1460 1.384 . S
C1462 C1463 1.372 . S
C1463 C1462 1.372 . S
C1463 C1464 1.400 . S
C1463 C1468 1.490 . S
C1464 H1454 0.930 . S
C1464 C1463 1.400 . S
C1464 C1467 1.386 . S
H1465 C1481 0.930 . S
H1466 C1482 0.931 . S
C1467 H1455 0.929 . S
C1467 C1461 1.390 . S
C1467 C1464 1.386 . S
C1468 C1463 1.490 . S
C1468 C1470 1.395 . S
C1468 C1471 1.403 . S
H1469 C1475 0.930 . S
C1470 H1456 0.930 . S
C1470 C1468 1.395 . S
C1470 C1473 1.403 . S
C1471 C1468 1.403 . S
C1471 C1472 1.524 . S
C1471 C1475 1.400 . S
C1472 H1457 0.960 . S
C1472 H1458 0.960 . S
C1472 H1459 0.960 . S
C1472 C1471 1.524 . S
C1473 C1470 1.403 . S
C1473 C1474 1.392 . S
C1473 C1477 1.495 . S
C1474 C1473 1.392 . S
C1474 C1475 1.385 . S
C1474 C1476 1.478 . S
C1475 H1469 0.930 . S
C1475 C1471 1.400 . S
C1475 C1474 1.385 . S
C1476 C1474 1.478 . S
C1476 C1478 1.381 . S
C1476 C1482 1.383 . S
C1477 C1473 1.495 . S
C1477 H1483 0.959 . S
C1477 H1484 0.961 . S
C1477 H1485 0.960 . S
C1478 C1476 1.381 . S
C1478 C1479 1.394 . S
C1478 H1486 0.930 . S
C1479 C1478 1.394 . S
C1479 C1480 1.383 . S
C1479 H1487 0.929 . S
C1480 C1479 1.383 . S
C1480 C1481 1.377 . S
C1481 H1465 0.930 . S
C1481 C1480 1.377 . S
C1481 C1482 1.379 . S
C1482 H1466 0.931 . S
C1482 C1476 1.383 . S
C1482 C1481 1.379 . S
H1483 C1477 0.959 . S
H1484 C1477 0.961 . S
H1485 C1477 0.960 . S
H1486 C1478 0.930 . S
H1487 C1479 0.929 . S
H1488 C1496 0.929 . S
H1489 C1498 0.930 . S
H1490 C1500 0.930 . S
H1491 C1503 0.929 . S
H1492 C1506 0.930 . S
H1493 C1508 0.960 . S
H1494 C1508 0.960 . S
H1495 C1508 0.960 . S
C1496 H1488 0.929 . S
C1496 C1497 1.377 . S
C1496 C1498 1.384 . S
C1497 C1496 1.377 . S
C1497 C1503 1.390 . S
C1498 H1489 0.930 . S
C1498 C1496 1.384 . S
C1498 C1499 1.372 . S
C1499 C1498 1.372 . S
C1499 C1500 1.400 . S
C1499 C1504 1.490 . S
C1500 H1490 0.930 . S
C1500 C1499 1.400 . S
C1500 C1503 1.386 . S
H1501 C1517 0.930 . S
H1502 C1518 0.931 . S
C1503 H1491 0.929 . S
C1503 C1497 1.390 . S
C1503 C1500 1.386 . S
C1504 C1499 1.490 . S
C1504 C1506 1.395 . S
C1504 C1507 1.403 1_655 S
H1505 C1511 0.930 . S
C1506 H1492 0.930 . S
C1506 C1504 1.395 . S
C1506 C1509 1.403 1_554 S
C1507 C1504 1.403 1_455 S
C1507 C1508 1.524 . S
C1507 C1511 1.400 1_554 S
C1508 H1493 0.960 . S
C1508 H1494 0.960 . S
C1508 H1495 0.960 . S
C1508 C1507 1.524 . S
C1509 C1506 1.403 1_556 S
C1509 C1510 1.392 1_655 S
C1509 C1513 1.495 . S
C1510 C1509 1.392 1_455 S
C1510 C1511 1.385 . S
C1510 C1512 1.478 . S
C1511 H1505 0.930 . S
C1511 C1507 1.400 1_556 S
C1511 C1510 1.385 . S
C1512 C1510 1.478 . S
C1512 C1514 1.381 . S
C1512 C1518 1.383 . S
C1513 C1509 1.495 . S
C1513 H1519 0.959 . S
C1513 H1520 0.961 . S
C1513 H1521 0.960 . S
C1514 C1512 1.381 . S
C1514 C1515 1.394 . S
C1514 H1522 0.930 . S
C1515 C1514 1.394 . S
C1515 C1516 1.383 . S
C1515 H1523 0.929 . S
C1516 C1515 1.383 . S
C1516 C1517 1.377 . S
C1517 H1501 0.930 . S
C1517 C1516 1.377 . S
C1517 C1518 1.379 . S
C1518 H1502 0.931 . S
C1518 C1512 1.383 . S
C1518 C1517 1.379 . S
H1519 C1513 0.959 . S
H1520 C1513 0.961 . S
H1521 C1513 0.960 . S
H1522 C1514 0.930 . S
H1523 C1515 0.929 . S
H1524 C1532 0.929 . S
H1525 C1534 0.930 . S
H1526 C1536 0.930 . S
H1527 C1539 0.929 . S
H1528 C1542 0.930 . S
H1529 C1544 0.960 . S
H1530 C1544 0.960 . S
H1531 C1544 0.960 . S
C1532 H1524 0.929 . S
C1532 C1533 1.377 . S
C1532 C1534 1.384 . S
C1533 C1532 1.377 . S
C1533 C1539 1.390 . S
C1534 H1525 0.930 . S
C1534 C1532 1.384 . S
C1534 C1535 1.372 . S
C1535 C1534 1.372 . S
C1535 C1536 1.400 . S
C1535 C1540 1.490 . S
C1536 H1526 0.930 . S
C1536 C1535 1.400 . S
C1536 C1539 1.386 . S
H1537 C1553 0.930 . S
H1538 C1554 0.931 . S
C1539 H1527 0.929 . S
C1539 C1533 1.390 . S
C1539 C1536 1.386 . S
C1540 C1535 1.490 . S
C1540 C1542 1.395 . S
C1540 C1543 1.403 1_565 S
H1541 C1547 0.930 . S
C1542 H1528 0.930 . S
C1542 C1540 1.395 . S
C1542 C1545 1.403 . S
C1543 C1540 1.403 1_545 S
C1543 C1544 1.524 . S
C1543 C1547 1.400 . S
C1544 H1529 0.960 . S
C1544 H1530 0.960 . S
C1544 H1531 0.960 . S
C1544 C1543 1.524 . S
C1545 C1542 1.403 . S
C1545 C1546 1.392 1_565 S
C1545 C1549 1.495 . S
C1546 C1545 1.392 1_545 S
C1546 C1547 1.385 . S
C1546 C1548 1.478 . S
C1547 H1541 0.930 . S
C1547 C1543 1.400 . S
C1547 C1546 1.385 . S
C1548 C1546 1.478 . S
C1548 C1550 1.381 . S
C1548 C1554 1.383 . S
C1549 C1545 1.495 . S
C1549 H1555 0.959 . S
C1549 H1556 0.961 . S
C1549 H1557 0.960 . S
C1550 C1548 1.381 . S
C1550 C1551 1.394 . S
C1550 H1558 0.930 . S
C1551 C1550 1.394 . S
C1551 C1552 1.383 . S
C1551 H1559 0.929 . S
C1552 C1551 1.383 . S
C1552 C1553 1.377 . S
C1553 H1537 0.930 . S
C1553 C1552 1.377 . S
C1553 C1554 1.379 . S
C1554 H1538 0.931 . S
C1554 C1548 1.383 . S
C1554 C1553 1.379 . S
H1555 C1549 0.959 . S
H1556 C1549 0.961 . S
H1557 C1549 0.960 . S
H1558 C1550 0.930 . S
H1559 C1551 0.929 . S
H1560 C1568 0.929 . S
H1561 C1570 0.930 . S
H1562 C1572 0.930 . S
H1563 C1575 0.929 . S
H1564 C1578 0.930 . S
H1565 C1580 0.960 . S
H1566 C1580 0.960 . S
H1567 C1580 0.960 . S
C1568 H1560 0.929 . S
C1568 C1569 1.377 . S
C1568 C1570 1.384 . S
C1569 C1568 1.377 . S
C1569 C1575 1.390 . S
C1570 H1561 0.930 . S
C1570 C1568 1.384 . S
C1570 C1571 1.372 . S
C1571 C1570 1.372 . S
C1571 C1572 1.400 . S
C1571 C1576 1.490 . S
C1572 H1562 0.930 . S
C1572 C1571 1.400 . S
C1572 C1575 1.386 . S
H1573 C1589 0.930 . S
H1574 C1590 0.931 . S
C1575 H1563 0.929 . S
C1575 C1569 1.390 . S
C1575 C1572 1.386 . S
C1576 C1571 1.490 . S
C1576 C1578 1.395 . S
C1576 C1579 1.403 . S
H1577 C1583 0.930 . S
C1578 H1564 0.930 . S
C1578 C1576 1.395 . S
C1578 C1581 1.403 1_554 S
C1579 C1576 1.403 . S
C1579 C1580 1.524 . S
C1579 C1583 1.400 1_554 S
C1580 H1565 0.960 . S
C1580 H1566 0.960 . S
C1580 H1567 0.960 . S
C1580 C1579 1.524 . S
C1581 C1578 1.403 1_556 S
C1581 C1582 1.392 . S
C1581 C1585 1.495 . S
C1582 C1581 1.392 . S
C1582 C1583 1.385 . S
C1582 C1584 1.478 . S
C1583 H1577 0.930 . S
C1583 C1579 1.400 1_556 S
C1583 C1582 1.385 . S
C1584 C1582 1.478 . S
C1584 C1586 1.381 . S
C1584 C1590 1.383 . S
C1585 C1581 1.495 . S
C1585 H1591 0.959 . S
C1585 H1592 0.961 . S
C1585 H1593 0.960 . S
C1586 C1584 1.381 . S
C1586 C1587 1.394 . S
C1586 H1594 0.930 . S
C1587 C1586 1.394 . S
C1587 C1588 1.383 . S
C1587 H1595 0.929 . S
C1588 C1587 1.383 . S
C1588 C1589 1.377 . S
C1589 H1573 0.930 . S
C1589 C1588 1.377 . S
C1589 C1590 1.379 . S
C1590 H1574 0.931 . S
C1590 C1584 1.383 . S
C1590 C1589 1.379 . S
H1591 C1585 0.959 . S
H1592 C1585 0.961 . S
H1593 C1585 0.960 . S
H1594 C1586 0.930 . S
H1595 C1587 0.929 . S
H1596 C1604 0.929 . S
H1597 C1606 0.930 . S
H1598 C1608 0.930 . S
H1599 C1611 0.929 . S
H1600 C1614 0.930 . S
H1601 C1616 0.960 . S
H1602 C1616 0.960 . S
H1603 C1616 0.960 . S
C1604 H1596 0.929 . S
C1604 C1605 1.377 . S
C1604 C1606 1.384 . S
C1605 C1604 1.377 . S
C1605 C1611 1.390 . S
C1606 H1597 0.930 . S
C1606 C1604 1.384 . S
C1606 C1607 1.372 . S
C1607 C1606 1.372 . S
C1607 C1608 1.400 . S
C1607 C1612 1.490 . S
C1608 H1598 0.930 . S
C1608 C1607 1.400 . S
C1608 C1611 1.386 . S
H1609 C1625 0.930 . S
H1610 C1626 0.931 . S
C1611 H1599 0.929 . S
C1611 C1605 1.390 . S
C1611 C1608 1.386 . S
C1612 C1607 1.490 . S
C1612 C1614 1.395 . S
C1612 C1615 1.403 1_455 S
H1613 C1619 0.930 . S
C1614 H1600 0.930 . S
C1614 C1612 1.395 . S
C1614 C1617 1.403 . S
C1615 C1612 1.403 1_655 S
C1615 C1616 1.524 . S
C1615 C1619 1.400 . S
C1616 H1601 0.960 . S
C1616 H1602 0.960 . S
C1616 H1603 0.960 . S
C1616 C1615 1.524 . S
C1617 C1614 1.403 . S
C1617 C1618 1.392 1_455 S
C1617 C1621 1.495 . S
C1618 C1617 1.392 1_655 S
C1618 C1619 1.385 . S
C1618 C1620 1.478 . S
C1619 H1613 0.930 . S
C1619 C1615 1.400 . S
C1619 C1618 1.385 . S
C1620 C1618 1.478 . S
C1620 C1622 1.381 . S
C1620 C1626 1.383 . S
C1621 C1617 1.495 . S
C1621 H1627 0.959 . S
C1621 H1628 0.961 . S
C1621 H1629 0.960 . S
C1622 C1620 1.381 . S
C1622 C1623 1.394 . S
C1622 H1630 0.930 . S
C1623 C1622 1.394 . S
C1623 C1624 1.383 . S
C1623 H1631 0.929 . S
C1624 C1623 1.383 . S
C1624 C1625 1.377 . S
C1625 H1609 0.930 . S
C1625 C1624 1.377 . S
C1625 C1626 1.379 . S
C1626 H1610 0.931 . S
C1626 C1620 1.383 . S
C1626 C1625 1.379 . S
H1627 C1621 0.959 . S
H1628 C1621 0.961 . S
H1629 C1621 0.960 . S
H1630 C1622 0.930 . S
H1631 C1623 0.929 . S
H1632 C1640 0.929 . S
H1633 C1642 0.930 . S
H1634 C1644 0.930 . S
H1635 C1647 0.929 . S
H1636 C1650 0.930 . S
H1637 C1652 0.960 . S
H1638 C1652 0.960 . S
H1639 C1652 0.960 . S
C1640 H1632 0.929 . S
C1640 C1641 1.377 . S
C1640 C1642 1.384 . S
C1641 C1640 1.377 . S
C1641 C1647 1.390 . S
C1642 H1633 0.930 . S
C1642 C1640 1.384 . S
C1642 C1643 1.372 . S
C1643 C1642 1.372 . S
C1643 C1644 1.400 . S
C1643 C1648 1.490 . S
C1644 H1634 0.930 . S
C1644 C1643 1.400 . S
C1644 C1647 1.386 . S
H1645 C1661 0.930 . S
H1646 C1662 0.931 . S
C1647 H1635 0.929 . S
C1647 C1641 1.390 . S
C1647 C1644 1.386 . S
C1648 C1643 1.490 . S
C1648 C1650 1.395 . S
C1648 C1651 1.403 . S
H1649 C1655 0.930 . S
C1650 H1636 0.930 . S
C1650 C1648 1.395 . S
C1650 C1653 1.403 . S
C1651 C1648 1.403 . S
C1651 C1652 1.524 . S
C1651 C1655 1.400 . S
C1652 H1637 0.960 . S
C1652 H1638 0.960 . S
C1652 H1639 0.960 . S
C1652 C1651 1.524 . S
C1653 C1650 1.403 . S
C1653 C1654 1.392 . S
C1653 C1657 1.495 . S
C1654 C1653 1.392 . S
C1654 C1655 1.385 . S
C1654 C1656 1.478 . S
C1655 H1649 0.930 . S
C1655 C1651 1.400 . S
C1655 C1654 1.385 . S
C1656 C1654 1.478 . S
C1656 C1658 1.381 . S
C1656 C1662 1.383 . S
C1657 C1653 1.495 . S
C1657 H1663 0.959 . S
C1657 H1664 0.961 . S
C1657 H1665 0.960 . S
C1658 C1656 1.381 . S
C1658 C1659 1.394 . S
C1658 H1666 0.930 . S
C1659 C1658 1.394 . S
C1659 C1660 1.383 . S
C1659 H1667 0.929 . S
C1660 C1659 1.383 . S
C1660 C1661 1.377 . S
C1661 H1645 0.930 . S
C1661 C1660 1.377 . S
C1661 C1662 1.379 . S
C1662 H1646 0.931 . S
C1662 C1656 1.383 . S
C1662 C1661 1.379 . S
H1663 C1657 0.959 . S
H1664 C1657 0.961 . S
H1665 C1657 0.960 . S
H1666 C1658 0.930 . S
H1667 C1659 0.929 . S
H1668 C1676 0.929 . S
H1669 C1678 0.930 . S
H1670 C1680 0.930 . S
H1671 C1683 0.929 . S
H1672 C1686 0.930 . S
H1673 C1688 0.960 . S
H1674 C1688 0.960 . S
H1675 C1688 0.960 . S
C1676 H1668 0.929 . S
C1676 C1677 1.377 . S
C1676 C1678 1.384 . S
C1677 C1676 1.377 . S
C1677 C1683 1.390 . S
C1678 H1669 0.930 . S
C1678 C1676 1.384 . S
C1678 C1679 1.372 . S
C1679 C1678 1.372 . S
C1679 C1680 1.400 . S
C1679 C1684 1.490 . S
C1680 H1670 0.930 . S
C1680 C1679 1.400 . S
C1680 C1683 1.386 . S
H1681 C1697 0.930 . S
H1682 C1698 0.931 . S
C1683 H1671 0.929 . S
C1683 C1677 1.390 . S
C1683 C1680 1.386 . S
C1684 C1679 1.490 . S
C1684 C1686 1.395 . S
C1684 C1687 1.403 . S
H1685 C1691 0.930 . S
C1686 H1672 0.930 . S
C1686 C1684 1.395 . S
C1686 C1689 1.403 . S
C1687 C1684 1.403 . S
C1687 C1688 1.524 . S
C1687 C1691 1.400 . S
C1688 H1673 0.960 . S
C1688 H1674 0.960 . S
C1688 H1675 0.960 . S
C1688 C1687 1.524 . S
C1689 C1686 1.403 . S
C1689 C1690 1.392 . S
C1689 C1693 1.495 . S
C1690 C1689 1.392 . S
C1690 C1691 1.385 . S
C1690 C1692 1.478 . S
C1691 H1685 0.930 . S
C1691 C1687 1.400 . S
C1691 C1690 1.385 . S
C1692 C1690 1.478 . S
C1692 C1694 1.381 . S
C1692 C1698 1.383 . S
C1693 C1689 1.495 . S
C1693 H1699 0.959 . S
C1693 H1700 0.961 . S
C1693 H1701 0.960 . S
C1694 C1692 1.381 . S
C1694 C1695 1.394 . S
C1694 H1702 0.930 . S
C1695 C1694 1.394 . S
C1695 C1696 1.383 . S
C1695 H1703 0.929 . S
C1696 C1695 1.383 . S
C1696 C1697 1.377 . S
C1697 H1681 0.930 . S
C1697 C1696 1.377 . S
C1697 C1698 1.379 . S
C1698 H1682 0.931 . S
C1698 C1692 1.383 . S
C1698 C1697 1.379 . S
H1699 C1693 0.959 . S
H1700 C1693 0.961 . S
H1701 C1693 0.960 . S
H1702 C1694 0.930 . S
H1703 C1695 0.929 . S
H1704 C1712 0.929 . S
H1705 C1714 0.930 . S
H1706 C1716 0.930 . S
H1707 C1719 0.929 . S
H1708 C1722 0.930 . S
H1709 C1724 0.960 . S
H1710 C1724 0.960 . S
H1711 C1724 0.960 . S
C1712 H1704 0.929 . S
C1712 C1713 1.377 . S
C1712 C1714 1.384 . S
C1713 C1712 1.377 . S
C1713 C1719 1.390 . S
C1714 H1705 0.930 . S
C1714 C1712 1.384 . S
C1714 C1715 1.372 . S
C1715 C1714 1.372 . S
C1715 C1716 1.400 . S
C1715 C1720 1.490 . S
C1716 H1706 0.930 . S
C1716 C1715 1.400 . S
C1716 C1719 1.386 . S
H1717 C1733 0.930 . S
H1718 C1734 0.931 . S
C1719 H1707 0.929 . S
C1719 C1713 1.390 . S
C1719 C1716 1.386 . S
C1720 C1715 1.490 . S
C1720 C1722 1.395 . S
C1720 C1723 1.403 . S
H1721 C1727 0.930 . S
C1722 H1708 0.930 . S
C1722 C1720 1.395 . S
C1722 C1725 1.403 . S
C1723 C1720 1.403 . S
C1723 C1724 1.524 . S
C1723 C1727 1.400 . S
C1724 H1709 0.960 . S
C1724 H1710 0.960 . S
C1724 H1711 0.960 . S
C1724 C1723 1.524 . S
C1725 C1722 1.403 . S
C1725 C1726 1.392 . S
C1725 C1729 1.495 . S
C1726 C1725 1.392 . S
C1726 C1727 1.385 . S
C1726 C1728 1.478 . S
C1727 H1721 0.930 . S
C1727 C1723 1.400 . S
C1727 C1726 1.385 . S
C1728 C1726 1.478 . S
C1728 C1730 1.381 . S
C1728 C1734 1.383 . S
C1729 C1725 1.495 . S
C1729 H1735 0.959 . S
C1729 H1736 0.961 . S
C1729 H1737 0.960 . S
C1730 C1728 1.381 . S
C1730 C1731 1.394 . S
C1730 H1738 0.930 . S
C1731 C1730 1.394 . S
C1731 C1732 1.383 . S
C1731 H1739 0.929 . S
C1732 C1731 1.383 . S
C1732 C1733 1.377 . S
C1733 H1717 0.930 . S
C1733 C1732 1.377 . S
C1733 C1734 1.379 . S
C1734 H1718 0.931 . S
C1734 C1728 1.383 . S
C1734 C1733 1.379 . S
H1735 C1729 0.959 . S
H1736 C1729 0.961 . S
H1737 C1729 0.960 . S
H1738 C1730 0.930 . S
H1739 C1731 0.929 . S
H1740 C1748 0.929 . S
H1741 C1750 0.930 . S
H1742 C1752 0.930 . S
H1743 C1755 0.929 . S
H1744 C1758 0.930 . S
H1745 C1760 0.960 . S
H1746 C1760 0.960 . S
H1747 C1760 0.960 . S
C1748 H1740 0.929 . S
C1748 C1749 1.377 . S
C1748 C1750 1.384 . S
C1749 C1748 1.377 . S
C1749 C1755 1.390 . S
C1750 H1741 0.930 . S
C1750 C1748 1.384 . S
C1750 C1751 1.372 . S
C1751 C1750 1.372 . S
C1751 C1752 1.400 . S
C1751 C1756 1.490 . S
C1752 H1742 0.930 . S
C1752 C1751 1.400 . S
C1752 C1755 1.386 . S
H1753 C1769 0.930 . S
H1754 C1770 0.931 . S
C1755 H1743 0.929 . S
C1755 C1749 1.390 . S
C1755 C1752 1.386 . S
C1756 C1751 1.490 . S
C1756 C1758 1.395 . S
C1756 C1759 1.403 . S
H1757 C1763 0.930 . S
C1758 H1744 0.930 . S
C1758 C1756 1.395 . S
C1758 C1761 1.403 . S
C1759 C1756 1.403 . S
C1759 C1760 1.524 . S
C1759 C1763 1.400 . S
C1760 H1745 0.960 . S
C1760 H1746 0.960 . S
C1760 H1747 0.960 . S
C1760 C1759 1.524 . S
C1761 C1758 1.403 . S
C1761 C1762 1.392 . S
C1761 C1765 1.495 . S
C1762 C1761 1.392 . S
C1762 C1763 1.385 . S
C1762 C1764 1.478 . S
C1763 H1757 0.930 . S
C1763 C1759 1.400 . S
C1763 C1762 1.385 . S
C1764 C1762 1.478 . S
C1764 C1766 1.381 . S
C1764 C1770 1.383 . S
C1765 C1761 1.495 . S
C1765 H1771 0.959 . S
C1765 H1772 0.961 . S
C1765 H1773 0.960 . S
C1766 C1764 1.381 . S
C1766 C1767 1.394 . S
C1766 H1774 0.930 . S
C1767 C1766 1.394 . S
C1767 C1768 1.383 . S
C1767 H1775 0.929 . S
C1768 C1767 1.383 . S
C1768 C1769 1.377 . S
C1769 H1753 0.930 . S
C1769 C1768 1.377 . S
C1769 C1770 1.379 . S
C1770 H1754 0.931 . S
C1770 C1764 1.383 . S
C1770 C1769 1.379 . S
H1771 C1765 0.959 . S
H1772 C1765 0.961 . S
H1773 C1765 0.960 . S
H1774 C1766 0.930 . S
H1775 C1767 0.929 . S
H1776 C1784 0.929 . S
H1777 C1786 0.930 . S
H1778 C1788 0.930 . S
H1779 C1791 0.929 . S
H1780 C1794 0.930 . S
H1781 C1796 0.960 . S
H1782 C1796 0.960 . S
H1783 C1796 0.960 . S
C1784 H1776 0.929 . S
C1784 C1785 1.377 . S
C1784 C1786 1.384 . S
C1785 C1784 1.377 . S
C1785 C1791 1.390 . S
C1786 H1777 0.930 . S
C1786 C1784 1.384 . S
C1786 C1787 1.372 . S
C1787 C1786 1.372 . S
C1787 C1788 1.400 . S
C1787 C1792 1.490 . S
C1788 H1778 0.930 . S
C1788 C1787 1.400 . S
C1788 C1791 1.386 . S
H1789 C1805 0.930 . S
H1790 C1806 0.931 . S
C1791 H1779 0.929 . S
C1791 C1785 1.390 . S
C1791 C1788 1.386 . S
C1792 C1787 1.490 . S
C1792 C1794 1.395 . S
C1792 C1795 1.403 . S
H1793 C1799 0.930 . S
C1794 H1780 0.930 . S
C1794 C1792 1.395 . S
C1794 C1797 1.403 . S
C1795 C1792 1.403 . S
C1795 C1796 1.524 . S
C1795 C1799 1.400 . S
C1796 H1781 0.960 . S
C1796 H1782 0.960 . S
C1796 H1783 0.960 . S
C1796 C1795 1.524 . S
C1797 C1794 1.403 . S
C1797 C1798 1.392 . S
C1797 C1801 1.495 . S
C1798 C1797 1.392 . S
C1798 C1799 1.385 . S
C1798 C1800 1.478 . S
C1799 H1793 0.930 . S
C1799 C1795 1.400 . S
C1799 C1798 1.385 . S
C1800 C1798 1.478 . S
C1800 C1802 1.381 . S
C1800 C1806 1.383 . S
C1801 C1797 1.495 . S
C1801 H1807 0.959 . S
C1801 H1808 0.961 . S
C1801 H1809 0.960 . S
C1802 C1800 1.381 . S
C1802 C1803 1.394 . S
C1802 H1810 0.930 . S
C1803 C1802 1.394 . S
C1803 C1804 1.383 . S
C1803 H1811 0.929 . S
C1804 C1803 1.383 . S
C1804 C1805 1.377 . S
C1805 H1789 0.930 . S
C1805 C1804 1.377 . S
C1805 C1806 1.379 . S
C1806 H1790 0.931 . S
C1806 C1800 1.383 . S
C1806 C1805 1.379 . S
H1807 C1801 0.959 . S
H1808 C1801 0.961 . S
H1809 C1801 0.960 . S
H1810 C1802 0.930 . S
H1811 C1803 0.929 . S
H1812 C1820 0.929 . S
H1813 C1822 0.930 . S
H1814 C1824 0.930 . S
H1815 C1827 0.929 . S
H1816 C1830 0.930 . S
H1817 C1832 0.960 . S
H1818 C1832 0.960 . S
H1819 C1832 0.960 . S
C1820 H1812 0.929 . S
C1820 C1821 1.377 . S
C1820 C1822 1.384 . S
C1821 C1820 1.377 . S
C1821 C1827 1.390 . S
C1822 H1813 0.930 . S
C1822 C1820 1.384 . S
C1822 C1823 1.372 . S
C1823 C1822 1.372 . S
C1823 C1824 1.400 . S
C1823 C1828 1.490 . S
C1824 H1814 0.930 . S
C1824 C1823 1.400 . S
C1824 C1827 1.386 . S
H1825 C1841 0.930 . S
H1826 C1842 0.931 . S
C1827 H1815 0.929 . S
C1827 C1821 1.390 . S
C1827 C1824 1.386 . S
C1828 C1823 1.490 . S
C1828 C1830 1.395 . S
C1828 C1831 1.403 . S
H1829 C1835 0.930 . S
C1830 H1816 0.930 . S
C1830 C1828 1.395 . S
C1830 C1833 1.403 . S
C1831 C1828 1.403 . S
C1831 C1832 1.524 . S
C1831 C1835 1.400 . S
C1832 H1817 0.960 . S
C1832 H1818 0.960 . S
C1832 H1819 0.960 . S
C1832 C1831 1.524 . S
C1833 C1830 1.403 . S
C1833 C1834 1.392 . S
C1833 C1837 1.495 . S
C1834 C1833 1.392 . S
C1834 C1835 1.385 . S
C1834 C1836 1.478 . S
C1835 H1829 0.930 . S
C1835 C1831 1.400 . S
C1835 C1834 1.385 . S
C1836 C1834 1.478 . S
C1836 C1838 1.381 . S
C1836 C1842 1.383 . S
C1837 C1833 1.495 . S
C1837 H1843 0.959 . S
C1837 H1844 0.961 . S
C1837 H1845 0.960 . S
C1838 C1836 1.381 . S
C1838 C1839 1.394 . S
C1838 H1846 0.930 . S
C1839 C1838 1.394 . S
C1839 C1840 1.383 . S
C1839 H1847 0.929 . S
C1840 C1839 1.383 . S
C1840 C1841 1.377 . S
C1841 H1825 0.930 . S
C1841 C1840 1.377 . S
C1841 C1842 1.379 . S
C1842 H1826 0.931 . S
C1842 C1836 1.383 . S
C1842 C1841 1.379 . S
H1843 C1837 0.959 . S
H1844 C1837 0.961 . S
H1845 C1837 0.960 . S
H1846 C1838 0.930 . S
H1847 C1839 0.929 . S
H1848 C1856 0.929 . S
H1849 C1858 0.930 . S
H1850 C1860 0.930 . S
H1851 C1863 0.929 . S
H1852 C1866 0.930 . S
H1853 C1868 0.960 . S
H1854 C1868 0.960 . S
H1855 C1868 0.960 . S
C1856 H1848 0.929 . S
C1856 C1857 1.377 . S
C1856 C1858 1.384 . S
C1857 C1856 1.377 . S
C1857 C1863 1.390 . S
C1858 H1849 0.930 . S
C1858 C1856 1.384 . S
C1858 C1859 1.372 . S
C1859 C1858 1.372 . S
C1859 C1860 1.400 . S
C1859 C1864 1.490 . S
C1860 H1850 0.930 . S
C1860 C1859 1.400 . S
C1860 C1863 1.386 . S
H1861 C1877 0.930 . S
H1862 C1878 0.931 . S
C1863 H1851 0.929 . S
C1863 C1857 1.390 . S
C1863 C1860 1.386 . S
C1864 C1859 1.490 . S
C1864 C1866 1.395 . S
C1864 C1867 1.403 . S
H1865 C1871 0.930 . S
C1866 H1852 0.930 . S
C1866 C1864 1.395 . S
C1866 C1869 1.403 . S
C1867 C1864 1.403 . S
C1867 C1868 1.524 . S
C1867 C1871 1.400 . S
C1868 H1853 0.960 . S
C1868 H1854 0.960 . S
C1868 H1855 0.960 . S
C1868 C1867 1.524 . S
C1869 C1866 1.403 . S
C1869 C1870 1.392 . S
C1869 C1873 1.495 . S
C1870 C1869 1.392 . S
C1870 C1871 1.385 . S
C1870 C1872 1.478 . S
C1871 H1865 0.930 . S
C1871 C1867 1.400 . S
C1871 C1870 1.385 . S
C1872 C1870 1.478 . S
C1872 C1874 1.381 . S
C1872 C1878 1.383 . S
C1873 C1869 1.495 . S
C1873 H1879 0.959 . S
C1873 H1880 0.961 . S
C1873 H1881 0.960 . S
C1874 C1872 1.381 . S
C1874 C1875 1.394 . S
C1874 H1882 0.930 . S
C1875 C1874 1.394 . S
C1875 C1876 1.383 . S
C1875 H1883 0.929 . S
C1876 C1875 1.383 . S
C1876 C1877 1.377 . S
C1877 H1861 0.930 . S
C1877 C1876 1.377 . S
C1877 C1878 1.379 . S
C1878 H1862 0.931 . S
C1878 C1872 1.383 . S
C1878 C1877 1.379 . S
H1879 C1873 0.959 . S
H1880 C1873 0.961 . S
H1881 C1873 0.960 . S
H1882 C1874 0.930 . S
H1883 C1875 0.929 . S
H1884 C1892 0.929 . S
H1885 C1894 0.930 . S
H1886 C1896 0.930 . S
H1887 C1899 0.929 . S
H1888 C1902 0.930 . S
H1889 C1904 0.960 . S
H1890 C1904 0.960 . S
H1891 C1904 0.960 . S
C1892 H1884 0.929 . S
C1892 C1893 1.377 . S
C1892 C1894 1.384 . S
C1893 C1892 1.377 . S
C1893 C1899 1.390 . S
C1894 H1885 0.930 . S
C1894 C1892 1.384 . S
C1894 C1895 1.372 . S
C1895 C1894 1.372 . S
C1895 C1896 1.400 . S
C1895 C1900 1.490 . S
C1896 H1886 0.930 . S
C1896 C1895 1.400 . S
C1896 C1899 1.386 . S
H1897 C1913 0.930 . S
H1898 C1914 0.931 . S
C1899 H1887 0.929 . S
C1899 C1893 1.390 . S
C1899 C1896 1.386 . S
C1900 C1895 1.490 . S
C1900 C1902 1.395 . S
C1900 C1903 1.403 . S
H1901 C1907 0.930 . S
C1902 H1888 0.930 . S
C1902 C1900 1.395 . S
C1902 C1905 1.403 . S
C1903 C1900 1.403 . S
C1903 C1904 1.524 . S
C1903 C1907 1.400 . S
C1904 H1889 0.960 . S
C1904 H1890 0.960 . S
C1904 H1891 0.960 . S
C1904 C1903 1.524 . S
C1905 C1902 1.403 . S
C1905 C1906 1.392 . S
C1905 C1909 1.495 . S
C1906 C1905 1.392 . S
C1906 C1907 1.385 . S
C1906 C1908 1.478 . S
C1907 H1901 0.930 . S
C1907 C1903 1.400 . S
C1907 C1906 1.385 . S
C1908 C1906 1.478 . S
C1908 C1910 1.381 . S
C1908 C1914 1.383 . S
C1909 C1905 1.495 . S
C1909 H1915 0.959 . S
C1909 H1916 0.961 . S
C1909 H1917 0.960 . S
C1910 C1908 1.381 . S
C1910 C1911 1.394 . S
C1910 H1918 0.930 . S
C1911 C1910 1.394 . S
C1911 C1912 1.383 . S
C1911 H1919 0.929 . S
C1912 C1911 1.383 . S
C1912 C1913 1.377 . S
C1913 H1897 0.930 . S
C1913 C1912 1.377 . S
C1913 C1914 1.379 . S
C1914 H1898 0.931 . S
C1914 C1908 1.383 . S
C1914 C1913 1.379 . S
H1915 C1909 0.959 . S
H1916 C1909 0.961 . S
H1917 C1909 0.960 . S
H1918 C1910 0.930 . S
H1919 C1911 0.929 . S
H1920 C1928 0.929 . S
H1921 C1930 0.930 . S
H1922 C1932 0.930 . S
H1923 C1935 0.929 . S
H1924 C1938 0.930 . S
H1925 C1940 0.960 . S
H1926 C1940 0.960 . S
H1927 C1940 0.960 . S
C1928 H1920 0.929 . S
C1928 C1929 1.377 . S
C1928 C1930 1.384 . S
C1929 C1928 1.377 . S
C1929 C1935 1.390 . S
C1930 H1921 0.930 . S
C1930 C1928 1.384 . S
C1930 C1931 1.372 . S
C1931 C1930 1.372 . S
C1931 C1932 1.400 . S
C1931 C1936 1.490 . S
C1932 H1922 0.930 . S
C1932 C1931 1.400 . S
C1932 C1935 1.386 . S
H1933 C1949 0.930 . S
H1934 C1950 0.931 . S
C1935 H1923 0.929 . S
C1935 C1929 1.390 . S
C1935 C1932 1.386 . S
C1936 C1931 1.490 . S
C1936 C1938 1.395 . S
C1936 C1939 1.403 . S
H1937 C1943 0.930 . S
C1938 H1924 0.930 . S
C1938 C1936 1.395 . S
C1938 C1941 1.403 . S
C1939 C1936 1.403 . S
C1939 C1940 1.524 . S
C1939 C1943 1.400 . S
C1940 H1925 0.960 . S
C1940 H1926 0.960 . S
C1940 H1927 0.960 . S
C1940 C1939 1.524 . S
C1941 C1938 1.403 . S
C1941 C1942 1.392 . S
C1941 C1945 1.495 . S
C1942 C1941 1.392 . S
C1942 C1943 1.385 . S
C1942 C1944 1.478 . S
C1943 H1937 0.930 . S
C1943 C1939 1.400 . S
C1943 C1942 1.385 . S
C1944 C1942 1.478 . S
C1944 C1946 1.381 . S
C1944 C1950 1.383 . S
C1945 C1941 1.495 . S
C1945 H1951 0.959 . S
C1945 H1952 0.961 . S
C1945 H1953 0.960 . S
C1946 C1944 1.381 . S
C1946 C1947 1.394 . S
C1946 H1954 0.930 . S
C1947 C1946 1.394 . S
C1947 C1948 1.383 . S
C1947 H1955 0.929 . S
C1948 C1947 1.383 . S
C1948 C1949 1.377 . S
C1949 H1933 0.930 . S
C1949 C1948 1.377 . S
C1949 C1950 1.379 . S
C1950 H1934 0.931 . S
C1950 C1944 1.383 . S
C1950 C1949 1.379 . S
H1951 C1945 0.959 . S
H1952 C1945 0.961 . S
H1953 C1945 0.960 . S
H1954 C1946 0.930 . S
H1955 C1947 0.929 . S
H1956 C1964 0.929 . S
H1957 C1966 0.930 . S
H1958 C1968 0.930 . S
H1959 C1971 0.929 . S
H1960 C1974 0.930 . S
H1961 C1976 0.960 . S
H1962 C1976 0.960 . S
H1963 C1976 0.960 . S
C1964 H1956 0.929 . S
C1964 C1965 1.377 . S
C1964 C1966 1.384 . S
C1965 C1964 1.377 . S
C1965 C1971 1.390 . S
C1966 H1957 0.930 . S
C1966 C1964 1.384 . S
C1966 C1967 1.372 . S
C1967 C1966 1.372 . S
C1967 C1968 1.400 . S
C1967 C1972 1.490 . S
C1968 H1958 0.930 . S
C1968 C1967 1.400 . S
C1968 C1971 1.386 . S
H1969 C1985 0.930 . S
H1970 C1986 0.931 . S
C1971 H1959 0.929 . S
C1971 C1965 1.390 . S
C1971 C1968 1.386 . S
C1972 C1967 1.490 . S
C1972 C1974 1.395 . S
C1972 C1975 1.403 . S
H1973 C1979 0.930 . S
C1974 H1960 0.930 . S
C1974 C1972 1.395 . S
C1974 C1977 1.403 . S
C1975 C1972 1.403 . S
C1975 C1976 1.524 . S
C1975 C1979 1.400 . S
C1976 H1961 0.960 . S
C1976 H1962 0.960 . S
C1976 H1963 0.960 . S
C1976 C1975 1.524 . S
C1977 C1974 1.403 . S
C1977 C1978 1.392 . S
C1977 C1981 1.495 . S
C1978 C1977 1.392 . S
C1978 C1979 1.385 . S
C1978 C1980 1.478 . S
C1979 H1973 0.930 . S
C1979 C1975 1.400 . S
C1979 C1978 1.385 . S
C1980 C1978 1.478 . S
C1980 C1982 1.381 . S
C1980 C1986 1.383 . S
C1981 C1977 1.495 . S
C1981 H1987 0.959 . S
C1981 H1988 0.961 . S
C1981 H1989 0.960 . S
C1982 C1980 1.381 . S
C1982 C1983 1.394 . S
C1982 H1990 0.930 . S
C1983 C1982 1.394 . S
C1983 C1984 1.383 . S
C1983 H1991 0.929 . S
C1984 C1983 1.383 . S
C1984 C1985 1.377 . S
C1985 H1969 0.930 . S
C1985 C1984 1.377 . S
C1985 C1986 1.379 . S
C1986 H1970 0.931 . S
C1986 C1980 1.383 . S
C1986 C1985 1.379 . S
H1987 C1981 0.959 . S
H1988 C1981 0.961 . S
H1989 C1981 0.960 . S
H1990 C1982 0.930 . S
H1991 C1983 0.929 . S
H1992 C2000 0.929 . S
H1993 C2002 0.930 . S
H1994 C2004 0.930 . S
H1995 C2007 0.929 . S
H1996 C2010 0.930 . S
H1997 C2012 0.960 . S
H1998 C2012 0.960 . S
H1999 C2012 0.960 . S
C2000 H1992 0.929 . S
C2000 C2001 1.377 . S
C2000 C2002 1.384 . S
C2001 C2000 1.377 . S
C2001 C2007 1.390 . S
C2002 H1993 0.930 . S
C2002 C2000 1.384 . S
C2002 C2003 1.372 . S
C2003 C2002 1.372 . S
C2003 C2004 1.400 . S
C2003 C2008 1.490 . S
C2004 H1994 0.930 . S
C2004 C2003 1.400 . S
C2004 C2007 1.386 . S
H2005 C2021 0.930 . S
H2006 C2022 0.931 . S
C2007 H1995 0.929 . S
C2007 C2001 1.390 . S
C2007 C2004 1.386 . S
C2008 C2003 1.490 . S
C2008 C2010 1.395 . S
C2008 C2011 1.403 . S
H2009 C2015 0.930 . S
C2010 H1996 0.930 . S
C2010 C2008 1.395 . S
C2010 C2013 1.403 . S
C2011 C2008 1.403 . S
C2011 C2012 1.524 . S
C2011 C2015 1.400 . S
C2012 H1997 0.960 . S
C2012 H1998 0.960 . S
C2012 H1999 0.960 . S
C2012 C2011 1.524 . S
C2013 C2010 1.403 . S
C2013 C2014 1.392 . S
C2013 C2017 1.495 . S
C2014 C2013 1.392 . S
C2014 C2015 1.385 . S
C2014 C2016 1.478 . S
C2015 H2009 0.930 . S
C2015 C2011 1.400 . S
C2015 C2014 1.385 . S
C2016 C2014 1.478 . S
C2016 C2018 1.381 . S
C2016 C2022 1.383 . S
C2017 C2013 1.495 . S
C2017 H2023 0.959 . S
C2017 H2024 0.961 . S
C2017 H2025 0.960 . S
C2018 C2016 1.381 . S
C2018 C2019 1.394 . S
C2018 H2026 0.930 . S
C2019 C2018 1.394 . S
C2019 C2020 1.383 . S
C2019 H2027 0.929 . S
C2020 C2019 1.383 . S
C2020 C2021 1.377 . S
C2021 H2005 0.930 . S
C2021 C2020 1.377 . S
C2021 C2022 1.379 . S
C2022 H2006 0.931 . S
C2022 C2016 1.383 . S
C2022 C2021 1.379 . S
H2023 C2017 0.959 . S
H2024 C2017 0.961 . S
H2025 C2017 0.960 . S
H2026 C2018 0.930 . S
H2027 C2019 0.929 . S
H2028 C2036 0.929 . S
H2029 C2038 0.930 . S
H2030 C2040 0.930 . S
H2031 C2043 0.929 . S
H2032 C2046 0.930 . S
H2033 C2048 0.960 . S
H2034 C2048 0.960 . S
H2035 C2048 0.960 . S
C2036 H2028 0.929 . S
C2036 C2037 1.377 . S
C2036 C2038 1.384 . S
C2037 C2036 1.377 . S
C2037 C2043 1.390 . S
C2038 H2029 0.930 . S
C2038 C2036 1.384 . S
C2038 C2039 1.372 . S
C2039 C2038 1.372 . S
C2039 C2040 1.400 . S
C2039 C2044 1.490 . S
C2040 H2030 0.930 . S
C2040 C2039 1.400 . S
C2040 C2043 1.386 . S
H2041 C2057 0.930 . S
H2042 C2058 0.931 . S
C2043 H2031 0.929 . S
C2043 C2037 1.390 . S
C2043 C2040 1.386 . S
C2044 C2039 1.490 . S
C2044 C2046 1.395 . S
C2044 C2047 1.403 . S
H2045 C2051 0.930 . S
C2046 H2032 0.930 . S
C2046 C2044 1.395 . S
C2046 C2049 1.403 . S
C2047 C2044 1.403 . S
C2047 C2048 1.524 . S
C2047 C2051 1.400 . S
C2048 H2033 0.960 . S
C2048 H2034 0.960 . S
C2048 H2035 0.960 . S
C2048 C2047 1.524 . S
C2049 C2046 1.403 . S
C2049 C2050 1.392 . S
C2049 C2053 1.495 . S
C2050 C2049 1.392 . S
C2050 C2051 1.385 . S
C2050 C2052 1.478 . S
C2051 H2045 0.930 . S
C2051 C2047 1.400 . S
C2051 C2050 1.385 . S
C2052 C2050 1.478 . S
C2052 C2054 1.381 . S
C2052 C2058 1.383 . S
C2053 C2049 1.495 . S
C2053 H2059 0.959 . S
C2053 H2060 0.961 . S
C2053 H2061 0.960 . S
C2054 C2052 1.381 . S
C2054 C2055 1.394 . S
C2054 H2062 0.930 . S
C2055 C2054 1.394 . S
C2055 C2056 1.383 . S
C2055 H2063 0.929 . S
C2056 C2055 1.383 . S
C2056 C2057 1.377 . S
C2057 H2041 0.930 . S
C2057 C2056 1.377 . S
C2057 C2058 1.379 . S
C2058 H2042 0.931 . S
C2058 C2052 1.383 . S
C2058 C2057 1.379 . S
H2059 C2053 0.959 . S
H2060 C2053 0.961 . S
H2061 C2053 0.960 . S
H2062 C2054 0.930 . S
H2063 C2055 0.929 . S
C345 C218 1.244 . S
C364 C8 1.274 . S
C381 C22 1.249 . S
C400 C232 1.268 . S
C417 C36 1.242 . S
C436 C246 1.249 . S
C453 C50 1.250 . S
C472 C176 1.265 . S
C489 C190 1.242 . S
C508 C64 1.257 . S
C525 C78 1.245 . S
C544 C204 1.232 . S
C561 C302 1.250 . S
C580 C92 1.265 . S
C597 C106 1.252 . S
C616 C316 1.217 . S
C633 C120 1.251 . S
C652 C330 1.216 . S
C669 C260 1.245 . S
C688 C134 1.231 . S
C705 C148 1.242 . S
C724 C274 1.264 . S
C741 C288 1.254 . S
C760 C162 1.223 . S
C777 C6 1.663 . S
C796 C328 1.684 . S
C813 C258 1.669 . S
C832 C20 1.656 . S
C849 C34 1.663 . S
C868 C272 1.645 . S
C885 C286 1.661 . S
C904 C48 1.683 . S
C921 C62 1.664 . S
C940 C300 1.680 . S
C957 C314 1.666 . S
C976 C76 1.638 . S
C993 C90 1.668 . S
C1012 C188 1.667 . S
C1029 C202 1.662 . S
C1048 C104 1.649 . S
C1065 C216 1.668 . S
C1084 C118 1.639 . S
C1101 C230 1.661 . S
C1120 C132 1.683 . S
C1137 C146 1.664 . S
C1156 C244 1.642 . S
C1173 C160 1.665 . S
C1192 C174 1.639 . S
C1209 C105 1.296 . S
C1228 C7 1.307 . S
C1245 C119 1.293 . S
C1264 C21 1.303 . S
C1281 C133 1.298 . S
C1300 C35 1.303 . S
C1317 C147 1.300 . S
C1336 C49 1.285 . S
C1353 C63 1.298 . S
C1372 C161 1.279 . S
C1389 C77 1.294 . S
C1408 C91 1.309 . S
C1425 C175 1.294 . S
C1444 C273 1.284 . S
C1461 C189 1.299 . S
C1480 C287 1.306 . S
C1497 C301 1.293 . S
C1516 C203 1.279 . S
C1533 C315 1.294 . S
C1552 C217 1.284 . S
C1569 C329 1.295 . S
C1588 C231 1.283 . S
C1605 C259 1.293 . S
C1624 C245 1.278 . S
C1641 C9 1.823 . S
C1660 C275 1.808 . S
C1677 C289 1.821 . S
C1696 C23 1.814 . S
C1713 C37 1.825 . S
C1732 C303 1.810 . S
C1749 C317 1.824 . S
C1768 C51 1.819 . S
C1785 C65 1.822 . S
C1804 C331 1.829 . S
C1821 C261 1.824 . S
C1840 C79 1.809 . S
C1857 C93 1.820 . S
C1876 C247 1.825 . S
C1893 C177 1.825 . S
C1912 C107 1.818 . S
C1929 C121 1.821 . S
C1948 C191 1.817 . S
C1965 C135 1.821 . S
C1984 C205 1.829 . S
C2001 C149 1.821 . S
C2020 C219 1.828 . S
C2037 C163 1.822 . S
C2056 C233 1.829 . S
