# Generated by pormake.
# Topology umw, (4)-cn, num edge types: 1
# Building blocks:
#     Node 0, Type 0, BuildingBlock: UXUYUI_clean_sbu_0, # of connection points: 4
#     Node 1, Type 0, BuildingBlock: UXUYUI_clean_sbu_0, # of connection points: 4
#     Node 2, Type 0, BuildingBlock: UXUYUI_clean_sbu_0, # of connection points: 4
#     Node 3, Type 0, BuildingBlock: UXUYUI_clean_sbu_0, # of connection points: 4
#     Node 4, Type 0, BuildingBlock: UXUYUI_clean_sbu_0, # of connection points: 4
#     Node 5, Type 0, BuildingBlock: UXUYUI_clean_sbu_0, # of connection points: 4
#     Node 6, Type 0, BuildingBlock: UXUYUI_clean_sbu_0, # of connection points: 4
#     Node 7, Type 0, BuildingBlock: UXUYUI_clean_sbu_0, # of connection points: 4
#     Edge 8, Type (0, 0), BuildingBlock: XIVTED_clean_linker_0, # of connection points: 2
#     Edge 9, Type (0, 0), BuildingBlock: XIVTED_clean_linker_0, # of connection points: 2
#     Edge 10, Type (0, 0), BuildingBlock: XIVTED_clean_linker_0, # of connection points: 2
#     Edge 11, Type (0, 0), BuildingBlock: XIVTED_clean_linker_0, # of connection points: 2
#     Edge 12, Type (0, 0), BuildingBlock: XIVTED_clean_linker_0, # of connection points: 2
#     Edge 13, Type (0, 0), BuildingBlock: XIVTED_clean_linker_0, # of connection points: 2
#     Edge 14, Type (0, 0), BuildingBlock: XIVTED_clean_linker_0, # of connection points: 2
#     Edge 15, Type (0, 0), BuildingBlock: XIVTED_clean_linker_0, # of connection points: 2
#     Edge 16, Type (0, 0), BuildingBlock: XIVTED_clean_linker_0, # of connection points: 2
#     Edge 17, Type (0, 0), BuildingBlock: XIVTED_clean_linker_0, # of connection points: 2
#     Edge 18, Type (0, 0), BuildingBlock: XIVTED_clean_linker_0, # of connection points: 2
#     Edge 19, Type (0, 0), BuildingBlock: XIVTED_clean_linker_0, # of connection points: 2
#     Edge 20, Type (0, 0), BuildingBlock: XIVTED_clean_linker_0, # of connection points: 2
#     Edge 21, Type (0, 0), BuildingBlock: XIVTED_clean_linker_0, # of connection points: 2
#     Edge 22, Type (0, 0), BuildingBlock: XIVTED_clean_linker_0, # of connection points: 2
#     Edge 23, Type (0, 0), BuildingBlock: XIVTED_clean_linker_0, # of connection points: 2
# Relax obj value: 0.239
# Max RMSD: 0.148
# Mean RMSD: 0.148
data_MOF--net-umw--node1-UXUYUI_clean_sbu_0--edge1-XIVTED_clean_linker_0
_symmetry_space_group_name_H-M    P1
_symmetry_Int_Tables_number       1
_symmetry_cell_setting            triclinic
loop_
_symmetry_equiv_pos_as_xyz
'x, y, z'
_cell_length_a     63.407095
_cell_length_b     63.406802
_cell_length_c     35.04352
_cell_angle_alpha  89.984698
_cell_angle_beta   90.050715
_cell_angle_gamma 89.981476
loop_
_atom_site_label
_atom_site_type_symbol
_atom_site_fract_x
_atom_site_fract_y
_atom_site_fract_z
_atom_type_partial_charge
Li0 Li 0.37578 0.14701 0.26778 0.0
Li1 Li 0.40491 0.1662 0.29959 0.0
Li2 Li 0.37416 0.18417 0.27787 0.0
Li3 Li 0.39815 0.17128 0.2322 0.0
C4 C 0.35914 0.16666 0.34034 0.0
N5 N 0.32535 0.17834 0.38542 0.0
C6 C 0.36257 0.17526 0.37654 0.0
C7 C 0.3385 0.16379 0.32726 0.0
C8 C 0.34529 0.18113 0.39884 0.0
C9 C 0.32163 0.16983 0.35044 0.0
C10 C 0.41399 0.12568 0.26975 0.0
C11 C 0.43413 0.09401 0.25856 0.0
N12 N 0.42793 0.08644 0.29309 0.0
C13 C 0.40782 0.11759 0.30517 0.0
C14 C 0.42723 0.1138 0.24623 0.0
C15 C 0.41503 0.09772 0.31643 0.0
C16 C 0.36513 0.10815 0.23496 0.0
N17 N 0.36236 0.12028 0.26649 0.0
C18 C 0.34657 0.09152 0.29988 0.0
C19 C 0.35308 0.1125 0.29846 0.0
C20 C 0.35016 0.07823 0.26845 0.0
C21 C 0.35915 0.08696 0.23531 0.0
H22 H 0.37308 0.11465 0.2103 0.0
H23 H 0.35168 0.12222 0.32361 0.0
C24 C 0.42324 0.18072 0.36605 0.0
N25 N 0.42585 0.16597 0.33839 0.0
C26 C 0.43724 0.18179 0.39665 0.0
C27 C 0.45705 0.1531 0.36876 0.0
C28 C 0.44266 0.15264 0.3386 0.0
C29 C 0.45424 0.16762 0.39861 0.0
H30 H 0.41024 0.19172 0.3642 0.0
H31 H 0.44498 0.14163 0.31552 0.0
C32 C 0.3593 0.18235 0.20306 0.0
N33 N 0.34435 0.20974 0.14795 0.0
C34 C 0.3667 0.2031 0.20154 0.0
C35 C 0.34429 0.17554 0.17658 0.0
C36 C 0.35895 0.2167 0.17346 0.0
C37 C 0.33693 0.18962 0.14893 0.0
C38 C 0.42376 0.20078 0.26793 0.0
C39 C 0.42772 0.22226 0.2732 0.0
C40 C 0.44043 0.1872 0.259 0.0
C41 C 0.4483 0.22983 0.2693 0.0
C42 C 0.46077 0.19538 0.25536 0.0
N43 N 0.46426 0.21635 0.26053 0.0
C44 C 0.3645 0.21997 0.31941 0.0
C45 C 0.33572 0.20787 0.28208 0.0
C46 C 0.35171 0.23486 0.33724 0.0
N47 N 0.35625 0.20662 0.29303 0.0
C48 C 0.32231 0.22252 0.29928 0.0
C49 C 0.3302 0.23596 0.32783 0.0
H50 H 0.38083 0.21832 0.3279 0.0
H51 H 0.32952 0.19683 0.26142 0.0
C52 C 0.41588 0.1579 0.16338 0.0
N53 N 0.41174 0.17538 0.18447 0.0
C54 C 0.428 0.15941 0.13027 0.0
C55 C 0.43085 0.197 0.14067 0.0
C56 C 0.41847 0.1948 0.17334 0.0
C57 C 0.43603 0.1791 0.11907 0.0
H58 H 0.41027 0.14268 0.17295 0.0
H59 H 0.4148 0.2085 0.19043 0.0
O60 O 0.37586 0.16137 0.31754 0.0
O61 O 0.40669 0.14484 0.25753 0.0
O62 O 0.3666 0.16861 0.23017 0.0
O63 O 0.40362 0.1933 0.27172 0.0
H64 H 0.37839 0.1774 0.38735 0.0
H65 H 0.33556 0.15732 0.29917 0.0
H66 H 0.34773 0.18791 0.42682 0.0
H67 H 0.30559 0.16788 0.34051 0.0
H68 H 0.44439 0.08465 0.24064 0.0
H69 H 0.3976 0.12652 0.32381 0.0
H70 H 0.4321 0.11981 0.2187 0.0
H71 H 0.41037 0.09126 0.34372 0.0
H72 H 0.33948 0.08562 0.32587 0.0
H73 H 0.36263 0.0773 0.21063 0.0
H74 H 0.43482 0.19365 0.41845 0.0
H75 H 0.46997 0.14193 0.36904 0.0
H76 H 0.37823 0.20874 0.2218 0.0
H77 H 0.3384 0.15952 0.17739 0.0
H78 H 0.36455 0.23279 0.17196 0.0
H79 H 0.32531 0.18456 0.12825 0.0
H80 H 0.41499 0.23297 0.28016 0.0
H81 H 0.43775 0.17054 0.25476 0.0
H82 H 0.45158 0.24643 0.27325 0.0
H83 H 0.4738 0.18505 0.24839 0.0
H84 H 0.35838 0.2447 0.35943 0.0
H85 H 0.30587 0.22301 0.29096 0.0
H86 H 0.43177 0.14521 0.11451 0.0
H87 H 0.43655 0.21249 0.13268 0.0
Li88 Li 0.82876 0.39952 0.54971 0.0
Li89 Li 0.85066 0.3717 0.51597 0.0
Li90 Li 0.82662 0.397 0.47943 0.0
Li91 Li 0.81311 0.37004 0.51985 0.0
C92 C 0.86819 0.41668 0.51744 0.0
N93 N 0.902 0.44352 0.52886 0.0
C94 C 0.88549 0.41016 0.53926 0.0
C95 C 0.8682 0.43685 0.50124 0.0
C96 C 0.90239 0.42396 0.54476 0.0
C97 C 0.8854 0.45018 0.50741 0.0
C98 C 0.82577 0.3546 0.58614 0.0
C99 C 0.82215 0.31802 0.60392 0.0
N100 N 0.80837 0.32364 0.63184 0.0
C101 C 0.81172 0.36003 0.61523 0.0
C102 C 0.83114 0.33344 0.58053 0.0
C103 C 0.80303 0.34414 0.63794 0.0
C104 C 0.80832 0.42143 0.60847 0.0
N105 N 0.8276 0.41762 0.59296 0.0
C106 C 0.84432 0.4381 0.64149 0.0
C107 C 0.84545 0.42557 0.60887 0.0
C108 C 0.82463 0.4423 0.65819 0.0
C109 C 0.80645 0.43383 0.64117 0.0
H110 H 0.7944 0.4145 0.59579 0.0
H111 H 0.86061 0.42198 0.5967 0.0
C112 C 0.89006 0.35949 0.48554 0.0
N113 N 0.87735 0.3584 0.51667 0.0
C114 C 0.91109 0.35305 0.48808 0.0
C115 C 0.90517 0.3437 0.55412 0.0
C116 C 0.88431 0.35033 0.55033 0.0
C117 C 0.91902 0.34559 0.52306 0.0
H118 H 0.88414 0.36635 0.45937 0.0
H119 H 0.87401 0.35012 0.57486 0.0
C120 C 0.79446 0.41918 0.51436 0.0
N121 N 0.77696 0.45898 0.50865 0.0
C122 C 0.77267 0.42156 0.5101 0.0
C123 C 0.80732 0.43704 0.51584 0.0
C124 C 0.76412 0.44181 0.50722 0.0
C125 C 0.79819 0.45702 0.51288 0.0
C126 C 0.81955 0.35259 0.45076 0.0
C127 C 0.79992 0.3588 0.43655 0.0
C128 C 0.82753 0.33265 0.44187 0.0
C129 C 0.78842 0.34478 0.4139 0.0
C130 C 0.81555 0.3191 0.41908 0.0
N131 N 0.7964 0.32539 0.40572 0.0
C132 C 0.84316 0.41906 0.41715 0.0
C133 C 0.80584 0.4199 0.42033 0.0
C134 C 0.84304 0.43292 0.38622 0.0
N135 N 0.82478 0.41326 0.43402 0.0
C136 C 0.80496 0.43379 0.38943 0.0
C137 C 0.82376 0.44076 0.37234 0.0
H138 H 0.85798 0.41339 0.42852 0.0
H139 H 0.79141 0.41477 0.43384 0.0
C140 C 0.77404 0.35963 0.54869 0.0
N141 N 0.79036 0.35105 0.52901 0.0
C142 C 0.75884 0.34672 0.56534 0.0
C143 C 0.77671 0.31638 0.53891 0.0
C144 C 0.7917 0.32991 0.52302 0.0
C145 C 0.76041 0.32471 0.56157 0.0
H146 H 0.77368 0.37643 0.55392 0.0
H147 H 0.80516 0.32337 0.50835 0.0
O148 O 0.85168 0.40319 0.51104 0.0
O149 O 0.83402 0.36988 0.56298 0.0
O150 O 0.80298 0.39939 0.51678 0.0
O151 O 0.83099 0.36603 0.4731 0.0
H152 H 0.88572 0.39478 0.55246 0.0
H153 H 0.85511 0.4422 0.48395 0.0
H154 H 0.91579 0.41913 0.56177 0.0
H155 H 0.88557 0.46582 0.49507 0.0
H156 H 0.82601 0.30157 0.59967 0.0
H157 H 0.80736 0.37631 0.61991 0.0
H158 H 0.84181 0.32892 0.55787 0.0
H159 H 0.79198 0.34811 0.66032 0.0
H160 H 0.85874 0.44446 0.65341 0.0
H161 H 0.79098 0.43634 0.65344 0.0
H162 H 0.92131 0.35504 0.46358 0.0
H163 H 0.91059 0.33789 0.58149 0.0
H164 H 0.76248 0.40788 0.50881 0.0
H165 H 0.82413 0.43551 0.51951 0.0
H166 H 0.74729 0.44388 0.50381 0.0
H167 H 0.80799 0.47097 0.51401 0.0
H168 H 0.79355 0.37419 0.44331 0.0
H169 H 0.84275 0.32767 0.45265 0.0
H170 H 0.77313 0.34931 0.40286 0.0
H171 H 0.82146 0.30357 0.41206 0.0
H172 H 0.85792 0.43797 0.37419 0.0
H173 H 0.78974 0.4391 0.37919 0.0
H174 H 0.74685 0.3539 0.58305 0.0
H175 H 0.77842 0.29954 0.53487 0.0
Li176 Li 0.59102 0.82916 0.80217 0.0
Li177 Li 0.61418 0.85225 0.76544 0.0
Li178 Li 0.59616 0.82307 0.7322 0.0
Li179 Li 0.62468 0.81741 0.77613 0.0
C180 C 0.56242 0.84921 0.75266 0.0
N181 N 0.5197 0.85131 0.73758 0.0
C182 C 0.55344 0.86803 0.73974 0.0
C183 C 0.54968 0.83145 0.75795 0.0
C184 C 0.5318 0.86877 0.73228 0.0
C185 C 0.52812 0.83284 0.75015 0.0
C186 C 0.63098 0.85419 0.83324 0.0
C187 C 0.66277 0.8749 0.8383 0.0
N188 N 0.65386 0.88626 0.86699 0.0
C189 C 0.62223 0.86589 0.86309 0.0
C190 C 0.6515 0.85856 0.82103 0.0
C191 C 0.63402 0.8821 0.87967 0.0
C192 C 0.56351 0.80937 0.8546 0.0
N193 N 0.57119 0.82818 0.84233 0.0
C194 C 0.5511 0.84666 0.88918 0.0
C195 C 0.56499 0.84667 0.85833 0.0
C196 C 0.54338 0.82742 0.90336 0.0
C197 C 0.54954 0.80861 0.88531 0.0
H198 H 0.56822 0.79496 0.84058 0.0
H199 H 0.57105 0.86141 0.84734 0.0
C200 C 0.63863 0.88735 0.73996 0.0
N201 N 0.62213 0.88094 0.76183 0.0
C202 C 0.64473 0.90853 0.73997 0.0
C203 C 0.61673 0.9159 0.7849 0.0
C204 C 0.61102 0.8947 0.78364 0.0
C205 C 0.63384 0.92301 0.76302 0.0
H206 H 0.64718 0.87597 0.72297 0.0
H207 H 0.59792 0.88907 0.80058 0.0
C208 C 0.60301 0.78224 0.78117 0.0
N209 N 0.61736 0.74183 0.79539 0.0
C210 C 0.60566 0.768 0.7511 0.0
C211 C 0.60766 0.77592 0.81848 0.0
C212 C 0.61289 0.74763 0.75889 0.0
C213 C 0.61493 0.75544 0.82506 0.0
C214 C 0.6414 0.82287 0.70684 0.0
C215 C 0.63646 0.80729 0.68006 0.0
C216 C 0.66247 0.82833 0.71317 0.0
C217 C 0.65275 0.79724 0.66035 0.0
C218 C 0.6783 0.81786 0.69294 0.0
N219 N 0.67316 0.80266 0.66719 0.0
C220 C 0.57971 0.83191 0.66048 0.0
C221 C 0.56791 0.79929 0.6858 0.0
C222 C 0.56556 0.83027 0.63013 0.0
N223 N 0.58039 0.8167 0.68774 0.0
C224 C 0.55368 0.79688 0.65564 0.0
C225 C 0.55206 0.81277 0.62786 0.0
H226 H 0.58954 0.84577 0.66331 0.0
H227 H 0.56823 0.78783 0.70863 0.0
C228 C 0.65562 0.80265 0.82601 0.0
N229 N 0.6481 0.79963 0.79007 0.0
C230 C 0.67075 0.78916 0.84124 0.0
C231 C 0.67031 0.76939 0.78235 0.0
C232 C 0.65533 0.78351 0.76798 0.0
C233 C 0.67801 0.77207 0.81962 0.0
H234 H 0.64922 0.81498 0.84371 0.0
H235 H 0.64882 0.78098 0.7399 0.0
O236 O 0.58365 0.84818 0.75935 0.0
O237 O 0.61952 0.83858 0.81592 0.0
O238 O 0.59629 0.80236 0.77406 0.0
O239 O 0.62566 0.83299 0.72621 0.0
H240 H 0.56313 0.88188 0.73539 0.0
H241 H 0.55638 0.81671 0.76765 0.0
H242 H 0.52464 0.88323 0.72221 0.0
H243 H 0.51809 0.8192 0.754 0.0
H244 H 0.67858 0.87857 0.82886 0.0
H245 H 0.60651 0.86256 0.8733 0.0
H246 H 0.65854 0.84955 0.79815 0.0
H247 H 0.62739 0.89138 0.90262 0.0
H248 H 0.54686 0.86153 0.90229 0.0
H249 H 0.5436 0.79347 0.89472 0.0
H250 H 0.65803 0.91346 0.72277 0.0
H251 H 0.60773 0.92665 0.80256 0.0
H252 H 0.6025 0.77272 0.72198 0.0
H253 H 0.60607 0.78686 0.842 0.0
H254 H 0.6151 0.73648 0.73588 0.0
H255 H 0.61876 0.7504 0.85373 0.0
H256 H 0.62025 0.80288 0.67474 0.0
H257 H 0.66656 0.84048 0.7335 0.0
H258 H 0.64917 0.78508 0.63969 0.0
H259 H 0.69469 0.82184 0.69769 0.0
H260 H 0.56482 0.8428 0.60916 0.0
H261 H 0.5433 0.78332 0.65514 0.0
H262 H 0.67593 0.79151 0.8704 0.0
H263 H 0.67549 0.75631 0.76484 0.0
Li264 Li 0.14513 0.61617 0.01578 0.0
Li265 Li 0.16417 0.58853 0.05127 0.0
Li266 Li 0.18173 0.61956 0.03003 0.0
Li267 Li 0.17114 0.59431 0.98425 0.0
C268 C 0.15953 0.63612 0.08689 0.0
N269 N 0.16449 0.67351 0.12638 0.0
C270 C 0.16679 0.63591 0.12455 0.0
C271 C 0.15468 0.65534 0.06938 0.0
C272 C 0.16922 0.65499 0.14401 0.0
C273 C 0.1573 0.67406 0.08982 0.0
C274 C 0.12501 0.57745 0.01825 0.0
C275 C 0.09353 0.55756 0.00419 0.0
N276 N 0.08566 0.56269 0.03907 0.0
C277 C 0.11661 0.5825 0.05399 0.0
C278 C 0.11339 0.56488 0.99314 0.0
C279 C 0.0967 0.57489 0.06397 0.0
C280 C 0.11035 0.63097 0.9742 0.0
N281 N 0.11829 0.62882 0.00998 0.0
C282 C 0.08534 0.63875 0.0375 0.0
C283 C 0.10647 0.63305 0.04138 0.0
C284 C 0.07632 0.64013 0.00092 0.0
C285 C 0.08931 0.63678 0.96896 0.0
H286 H 0.12014 0.6273 0.94981 0.0
H287 H 0.11313 0.63087 0.06952 0.0
C288 C 0.17542 0.57346 0.12233 0.0
N289 N 0.16342 0.56855 0.0915 0.0
C290 C 0.17587 0.56015 0.15395 0.0
C291 C 0.15213 0.53652 0.12096 0.0
C292 C 0.15223 0.55028 0.08985 0.0
C293 C 0.16389 0.54151 0.15376 0.0
H294 H 0.18475 0.58772 0.12217 0.0
H295 H 0.14334 0.54637 0.06451 0.0
C296 C 0.18199 0.63309 0.95452 0.0
N297 N 0.21075 0.64824 0.90205 0.0
C298 C 0.20293 0.62618 0.95545 0.0
C299 C 0.17569 0.6477 0.92692 0.0
C300 C 0.21722 0.63402 0.92867 0.0
C301 C 0.19046 0.65518 0.90064 0.0
C302 C 0.20047 0.57042 0.02413 0.0
C303 C 0.22183 0.56732 0.03211 0.0
C304 C 0.18785 0.55317 0.01425 0.0
C305 C 0.23027 0.54699 0.03001 0.0
C306 C 0.19687 0.5331 0.01246 0.0
N307 N 0.21771 0.53045 0.0203 0.0
C308 C 0.2145 0.6315 0.07704 0.0
C309 C 0.20368 0.65896 0.03542 0.0
C310 C 0.22785 0.64521 0.09658 0.0
N311 N 0.20255 0.63864 0.04758 0.0
C312 C 0.21696 0.67322 0.05401 0.0
C313 C 0.22896 0.6665 0.08556 0.0
H314 H 0.21285 0.61534 0.0865 0.0
H315 H 0.19367 0.66429 0.01237 0.0
C316 C 0.15924 0.57621 0.91582 0.0
N317 N 0.17654 0.5803 0.93742 0.0
C318 C 0.16094 0.564 0.88291 0.0
C319 C 0.19846 0.56107 0.89423 0.0
C320 C 0.19602 0.57342 0.92698 0.0
C321 C 0.1807 0.55594 0.87205 0.0
H322 H 0.14399 0.582 0.92481 0.0
H323 H 0.20956 0.57703 0.94456 0.0
O324 O 0.15779 0.61769 0.0668 0.0
O325 O 0.1443 0.58507 0.00741 0.0
O326 O 0.16757 0.62567 0.98027 0.0
O327 O 0.19214 0.59031 0.02618 0.0
H328 H 0.17061 0.62122 0.13859 0.0
H329 H 0.14934 0.65582 0.04005 0.0
H330 H 0.17493 0.65507 0.17312 0.0
H331 H 0.15376 0.68905 0.07652 0.0
H332 H 0.08436 0.54783 0.98502 0.0
H333 H 0.12536 0.59216 0.07389 0.0
H334 H 0.11964 0.56081 0.96538 0.0
H335 H 0.09001 0.5787 0.09151 0.0
H336 H 0.07591 0.64083 0.06297 0.0
H337 H 0.08312 0.63795 0.94023 0.0
H338 H 0.18563 0.56434 0.17815 0.0
H339 H 0.14265 0.52234 0.11954 0.0
H340 H 0.20818 0.61494 0.97658 0.0
H341 H 0.15953 0.65319 0.92583 0.0
H342 H 0.23347 0.62882 0.92907 0.0
H343 H 0.1858 0.6665 0.87912 0.0
H344 H 0.2318 0.58051 0.03984 0.0
H345 H 0.1713 0.55519 0.00788 0.0
H346 H 0.24679 0.54437 0.03609 0.0
H347 H 0.1873 0.51963 0.0048 0.0
H348 H 0.23648 0.63937 0.12107 0.0
H349 H 0.2175 0.68941 0.04424 0.0
H350 H 0.14678 0.56026 0.86701 0.0
H351 H 0.21401 0.55543 0.88661 0.0
Li352 Li 0.40169 0.82428 0.31119 0.0
Li353 Li 0.37263 0.81551 0.26794 0.0
Li354 Li 0.40683 0.82992 0.24205 0.0
Li355 Li 0.38152 0.85208 0.27639 0.0
C356 C 0.41285 0.78511 0.27683 0.0
N357 N 0.43577 0.74887 0.2913 0.0
C358 C 0.4028 0.7671 0.29089 0.0
C359 C 0.43451 0.78454 0.26949 0.0
C360 C 0.41467 0.74897 0.29819 0.0
C361 C 0.44584 0.76612 0.27718 0.0
C362 C 0.35495 0.823 0.33522 0.0
C363 C 0.31762 0.81824 0.34497 0.0
N364 N 0.3218 0.80393 0.37289 0.0
C365 C 0.3589 0.80834 0.36414 0.0
C366 C 0.33416 0.82812 0.32568 0.0
C367 C 0.34192 0.79885 0.38283 0.0
C368 C 0.42351 0.83667 0.37579 0.0
N369 N 0.41665 0.81902 0.35766 0.0
C370 C 0.4339 0.79718 0.40381 0.0
C371 C 0.42122 0.79948 0.3714 0.0
C372 C 0.44193 0.81518 0.42224 0.0
C373 C 0.43633 0.83513 0.40799 0.0
H374 H 0.41948 0.85203 0.36451 0.0
H375 H 0.4152 0.78565 0.35724 0.0
C376 C 0.34216 0.79896 0.21957 0.0
N377 N 0.35045 0.79636 0.25504 0.0
C378 C 0.32677 0.78525 0.20595 0.0
C379 C 0.32875 0.76602 0.26538 0.0
C380 C 0.34398 0.78035 0.27811 0.0
C381 C 0.32004 0.76839 0.22876 0.0
H382 H 0.34787 0.81137 0.20126 0.0
H383 H 0.35089 0.77842 0.30605 0.0
C384 C 0.43282 0.85657 0.28529 0.0
N385 N 0.47424 0.87009 0.28761 0.0
C386 C 0.43766 0.8778 0.27908 0.0
C387 C 0.44903 0.84229 0.29316 0.0
C388 C 0.4587 0.88431 0.2802 0.0
C389 C 0.46987 0.8494 0.29412 0.0
C390 C 0.3667 0.85118 0.20579 0.0
C391 C 0.37663 0.86118 0.17513 0.0
C392 C 0.34571 0.85601 0.21432 0.0
C393 C 0.36548 0.87614 0.15389 0.0
C394 C 0.33512 0.87109 0.19244 0.0
N395 N 0.34515 0.88077 0.16296 0.0
C396 C 0.42885 0.81083 0.1816 0.0
C397 C 0.43511 0.84747 0.18883 0.0
C398 C 0.44189 0.81015 0.14957 0.0
N399 N 0.42584 0.82928 0.20054 0.0
C400 C 0.44819 0.84755 0.15687 0.0
C401 C 0.45164 0.82873 0.1367 0.0
H402 H 0.42083 0.79671 0.19103 0.0
H403 H 0.43194 0.86204 0.20375 0.0
C404 C 0.35603 0.88649 0.30216 0.0
N405 N 0.37148 0.88022 0.27781 0.0
C406 C 0.349 0.90741 0.30173 0.0
C407 C 0.37374 0.91471 0.25091 0.0
C408 C 0.38046 0.89383 0.2527 0.0
C409 C 0.35785 0.92174 0.27568 0.0
H410 H 0.34922 0.87529 0.3219 0.0
H411 H 0.39284 0.8884 0.23392 0.0
O412 O 0.4014 0.80294 0.26921 0.0
O413 O 0.37136 0.83244 0.31658 0.0
O414 O 0.41228 0.84993 0.28411 0.0
O415 O 0.37747 0.83675 0.22737 0.0
H416 H 0.38606 0.76716 0.29649 0.0
H417 H 0.44251 0.79807 0.2576 0.0
H418 H 0.4071 0.73499 0.30937 0.0
H419 H 0.46262 0.76551 0.27174 0.0
H420 H 0.30145 0.82195 0.33775 0.0
H421 H 0.37489 0.80424 0.37193 0.0
H422 H 0.33085 0.83953 0.30354 0.0
H423 H 0.34473 0.7874 0.40516 0.0
H424 H 0.43742 0.78149 0.4142 0.0
H425 H 0.44229 0.84948 0.42079 0.0
H426 H 0.32076 0.78738 0.17726 0.0
H427 H 0.32394 0.75317 0.28379 0.0
H428 H 0.42532 0.88914 0.27336 0.0
H429 H 0.44556 0.82595 0.29898 0.0
H430 H 0.46267 0.90067 0.27525 0.0
H431 H 0.48256 0.83849 0.30017 0.0
H432 H 0.39279 0.85751 0.16793 0.0
H433 H 0.33777 0.84833 0.23781 0.0
H434 H 0.37301 0.8841 0.13024 0.0
H435 H 0.31893 0.8751 0.19893 0.0
H436 H 0.44386 0.79538 0.13446 0.0
H437 H 0.45548 0.8622 0.148 0.0
H438 H 0.33672 0.91229 0.32129 0.0
H439 H 0.38123 0.92536 0.2309 0.0
Li440 Li 0.16739 0.40204 0.56108 0.0
Li441 Li 0.1806 0.37527 0.5195 0.0
Li442 Li 0.16211 0.4052 0.49341 0.0
Li443 Li 0.14343 0.37857 0.52877 0.0
C444 C 0.19761 0.42509 0.52094 0.0
N445 N 0.21448 0.46526 0.52044 0.0
C446 C 0.2189 0.42812 0.51232 0.0
C447 C 0.18489 0.4425 0.52931 0.0
C448 C 0.22714 0.44855 0.51222 0.0
C449 C 0.19371 0.46267 0.52891 0.0
C450 C 0.17832 0.36471 0.59642 0.0
C451 C 0.18513 0.34565 0.65472 0.0
N452 N 0.20551 0.35231 0.65388 0.0
C453 C 0.19935 0.37134 0.59611 0.0
C454 C 0.17114 0.35175 0.62592 0.0
C455 C 0.21284 0.36491 0.62542 0.0
C456 C 0.15442 0.4253 0.62439 0.0
N457 N 0.17189 0.41811 0.60617 0.0
C458 C 0.19423 0.43803 0.64767 0.0
C459 C 0.19159 0.42383 0.61757 0.0
C460 C 0.1764 0.44646 0.66593 0.0
C461 C 0.15631 0.43959 0.65445 0.0
H462 H 0.13899 0.42037 0.6148 0.0
H463 H 0.20524 0.41802 0.60238 0.0
C464 C 0.21599 0.36388 0.47941 0.0
N465 N 0.20274 0.35661 0.5068 0.0
C466 C 0.23135 0.3507 0.464 0.0
C467 C 0.21938 0.32284 0.50589 0.0
C468 C 0.20424 0.33664 0.52062 0.0
C469 C 0.23297 0.32976 0.47678 0.0
H470 H 0.21409 0.37975 0.46856 0.0
H471 H 0.19328 0.33122 0.54211 0.0
C472 C 0.122 0.41614 0.51934 0.0
N473 N 0.08364 0.42893 0.48973 0.0
C474 C 0.11593 0.40994 0.48265 0.0
C475 C 0.10857 0.42892 0.54089 0.0
C476 C 0.09648 0.41655 0.46821 0.0
C477 C 0.08924 0.4352 0.52544 0.0
C478 C 0.15637 0.35535 0.46529 0.0
C479 C 0.15666 0.35211 0.42586 0.0
C480 C 0.15418 0.3381 0.48983 0.0
C481 C 0.15476 0.33163 0.41159 0.0
C482 C 0.15233 0.31786 0.47445 0.0
N483 N 0.15265 0.31507 0.43598 0.0
C484 C 0.17133 0.41679 0.41879 0.0
C485 C 0.15245 0.44305 0.45275 0.0
C486 C 0.1718 0.42945 0.38625 0.0
N487 N 0.16169 0.42373 0.45101 0.0
C488 C 0.15247 0.4562 0.42084 0.0
C489 C 0.16223 0.44944 0.38698 0.0
H490 H 0.17875 0.40143 0.4185 0.0
H491 H 0.145 0.44823 0.47885 0.0
C492 C 0.10868 0.361 0.56758 0.0
N493 N 0.11693 0.36467 0.53245 0.0
C494 C 0.08807 0.35349 0.57122 0.0
C495 C 0.08516 0.35312 0.50244 0.0
C496 C 0.10583 0.36045 0.50016 0.0
C497 C 0.0758 0.34997 0.53834 0.0
H498 H 0.11789 0.36459 0.59277 0.0
H499 H 0.11266 0.36367 0.47253 0.0
O500 O 0.18942 0.40512 0.52104 0.0
O501 O 0.16468 0.37077 0.56818 0.0
O502 O 0.1409 0.40975 0.53437 0.0
O503 O 0.15849 0.37532 0.47955 0.0
H504 H 0.22895 0.41479 0.5058 0.0
H505 H 0.1684 0.44051 0.53618 0.0
H506 H 0.2436 0.45112 0.50559 0.0
H507 H 0.18405 0.47628 0.53537 0.0
H508 H 0.17977 0.33563 0.67774 0.0
H509 H 0.20527 0.38131 0.57352 0.0
H510 H 0.15491 0.34648 0.62654 0.0
H511 H 0.22914 0.36994 0.62553 0.0
H512 H 0.20998 0.44303 0.65547 0.0
H513 H 0.14218 0.44543 0.6682 0.0
H514 H 0.24122 0.35659 0.44117 0.0
H515 H 0.2202 0.30686 0.51671 0.0
H516 H 0.12609 0.40012 0.46541 0.0
H517 H 0.11301 0.43394 0.56928 0.0
H518 H 0.0916 0.41182 0.43989 0.0
H519 H 0.07869 0.44507 0.54184 0.0
H520 H 0.15838 0.3653 0.40649 0.0
H521 H 0.15398 0.34026 0.52043 0.0
H522 H 0.15497 0.32889 0.38113 0.0
H523 H 0.15066 0.30437 0.49311 0.0
H524 H 0.17981 0.42375 0.36101 0.0
H525 H 0.14469 0.47138 0.42258 0.0
H526 H 0.08165 0.351 0.59949 0.0
H527 H 0.0763 0.35101 0.47629 0.0
Li528 Li 0.61931 0.18595 0.7708 0.0
Li529 Li 0.59058 0.17234 0.80664 0.0
Li530 Li 0.61675 0.14779 0.77474 0.0
Li531 Li 0.59032 0.16944 0.7384 0.0
C532 C 0.6382 0.1754 0.83702 0.0
N533 N 0.6727 0.19039 0.87674 0.0
C534 C 0.63733 0.1951 0.85481 0.0
C535 C 0.65652 0.16322 0.83967 0.0
C536 C 0.65498 0.20244 0.87465 0.0
C537 C 0.67382 0.17111 0.85986 0.0
C538 C 0.57779 0.20998 0.78759 0.0
C539 C 0.54389 0.22215 0.80982 0.0
N540 N 0.55345 0.23881 0.8271 0.0
C541 C 0.58727 0.22722 0.80559 0.0
C542 C 0.55591 0.20743 0.78966 0.0
C543 C 0.5747 0.24163 0.82539 0.0
C544 C 0.63112 0.22429 0.7403 0.0
N545 N 0.63902 0.20825 0.76172 0.0
C546 C 0.6741 0.22112 0.75286 0.0
C547 C 0.66006 0.20662 0.76876 0.0
C548 C 0.66645 0.23721 0.72893 0.0
C549 C 0.64457 0.239 0.72364 0.0
H550 H 0.61446 0.22478 0.73382 0.0
H551 H 0.66618 0.19327 0.7843 0.0
C552 C 0.55749 0.15955 0.85405 0.0
N553 N 0.57266 0.17454 0.85029 0.0
C554 C 0.54274 0.16083 0.8834 0.0
C555 C 0.55979 0.19265 0.90541 0.0
C556 C 0.57439 0.19062 0.87577 0.0
C557 C 0.54349 0.17775 0.90923 0.0
H558 H 0.55674 0.14662 0.83409 0.0
H559 H 0.58676 0.20217 0.8726 0.0
C560 C 0.63478 0.17293 0.70373 0.0
N561 N 0.66385 0.19117 0.65518 0.0
C562 C 0.62807 0.18654 0.67477 0.0
C563 C 0.65625 0.16845 0.7078 0.0
C564 C 0.64302 0.19564 0.65057 0.0
C565 C 0.67071 0.17786 0.683 0.0
C566 C 0.57075 0.13466 0.75644 0.0
C567 C 0.57702 0.11604 0.73835 0.0
C568 C 0.54982 0.14142 0.75341 0.0
C569 C 0.56225 0.10456 0.71728 0.0
C570 C 0.53555 0.12952 0.732 0.0
N571 N 0.542 0.11149 0.71452 0.0
C572 C 0.62547 0.10872 0.80761 0.0
C573 C 0.64088 0.11373 0.74666 0.0
C574 C 0.63174 0.08763 0.80788 0.0
N575 N 0.62979 0.12111 0.77701 0.0
C576 C 0.64762 0.09278 0.74585 0.0
C577 C 0.64255 0.07924 0.77629 0.0
H578 H 0.61626 0.11499 0.83097 0.0
H579 H 0.64368 0.12384 0.72235 0.0
C580 C 0.55895 0.18492 0.68881 0.0
N581 N 0.57364 0.16956 0.69357 0.0
C582 C 0.54608 0.18499 0.65656 0.0
C583 C 0.56421 0.15382 0.63406 0.0
C584 C 0.57672 0.15434 0.66684 0.0
C585 C 0.54852 0.16919 0.62883 0.0
H586 H 0.55723 0.19713 0.71001 0.0
H587 H 0.58876 0.14249 0.67124 0.0
O588 O 0.62108 0.16782 0.81774 0.0
O589 O 0.58984 0.19564 0.76819 0.0
O590 O 0.62044 0.16437 0.7284 0.0
O591 O 0.58509 0.1464 0.77649 0.0
H592 H 0.62327 0.2047 0.85296 0.0
H593 H 0.65738 0.14789 0.82617 0.0
H594 H 0.65459 0.21772 0.88836 0.0
H595 H 0.68814 0.16191 0.86206 0.0
H596 H 0.52697 0.22029 0.81185 0.0
H597 H 0.60418 0.22937 0.8047 0.0
H598 H 0.54831 0.19406 0.77636 0.0
H599 H 0.58184 0.255 0.83955 0.0
H600 H 0.69084 0.21919 0.75793 0.0
H601 H 0.63791 0.25079 0.7048 0.0
H602 H 0.5309 0.1486 0.8858 0.0
H603 H 0.56099 0.20601 0.92451 0.0
H604 H 0.61152 0.19028 0.67139 0.0
H605 H 0.66174 0.15816 0.73038 0.0
H606 H 0.63807 0.20633 0.62824 0.0
H607 H 0.68739 0.17471 0.68605 0.0
H608 H 0.59314 0.11059 0.74023 0.0
H609 H 0.54472 0.15584 0.76705 0.0
H610 H 0.56691 0.09017 0.703 0.0
H611 H 0.51935 0.13465 0.72918 0.0
H612 H 0.62712 0.07777 0.83168 0.0
H613 H 0.65611 0.0871 0.72112 0.0
H614 H 0.53447 0.19739 0.65322 0.0
H615 H 0.56653 0.14131 0.61345 0.0
Li616 Li 0.81196 0.61652 0.00999 0.0
Li617 Li 0.82682 0.59083 0.05504 0.0
Li618 Li 0.8495 0.61122 0.01315 0.0
Li619 Li 0.82731 0.58453 0.9877 0.0
C620 C 0.82024 0.63095 0.08443 0.0
N621 N 0.7983 0.64845 0.14472 0.0
C622 C 0.79945 0.6248 0.09172 0.0
C623 C 0.82986 0.64598 0.10781 0.0
C624 C 0.78863 0.63384 0.12233 0.0
C625 C 0.8185 0.65466 0.13814 0.0
C626 C 0.79139 0.56944 0.01309 0.0
C627 C 0.7877 0.53169 0.01825 0.0
N628 N 0.7704 0.53254 0.99532 0.0
C629 C 0.77355 0.56996 0.98968 0.0
C630 C 0.79852 0.55017 0.02758 0.0
C631 C 0.76317 0.55113 0.98099 0.0
C632 C 0.78013 0.6307 0.9644 0.0
N633 N 0.79074 0.63621 0.99655 0.0
C634 C 0.77451 0.67021 0.99647 0.0
C635 C 0.78819 0.65548 0.01292 0.0
C636 C 0.76364 0.66507 0.96269 0.0
C637 C 0.7664 0.64489 0.94701 0.0
H638 H 0.78323 0.61563 0.95114 0.0
H639 H 0.79739 0.65979 0.03768 0.0
C640 C 0.84345 0.57206 0.12029 0.0
N641 N 0.82499 0.57739 0.10316 0.0
C642 C 0.84345 0.55913 0.15251 0.0
C643 C 0.80534 0.55826 0.14988 0.0
C644 C 0.80609 0.57121 0.11765 0.0
C645 C 0.82423 0.5516 0.16712 0.0
H646 H 0.85822 0.57723 0.10803 0.0
H647 H 0.79166 0.57552 0.10313 0.0
C648 C 0.8342 0.63204 0.94932 0.0
N649 N 0.83861 0.67067 0.91365 0.0
C650 C 0.83309 0.63347 0.90958 0.0
C651 C 0.83756 0.65028 0.97094 0.0
C652 C 0.83537 0.65314 0.89208 0.0
C653 C 0.83974 0.66965 0.95237 0.0
C654 C 0.86815 0.572 0.00724 0.0
C655 C 0.87262 0.57613 0.96889 0.0
C656 C 0.88177 0.55921 0.02843 0.0
C657 C 0.89069 0.56744 0.95241 0.0
C658 C 0.89969 0.5508 0.01091 0.0
N659 N 0.90374 0.55506 0.97359 0.0
C660 C 0.88814 0.62664 0.04154 0.0
C661 C 0.88549 0.62653 0.97406 0.0
C662 C 0.90928 0.63279 0.03943 0.0
N663 N 0.87686 0.62335 0.0091 0.0
C664 C 0.90647 0.63275 0.97063 0.0
C665 C 0.91882 0.63546 0.00354 0.0
H666 H 0.88094 0.62367 0.06899 0.0
H667 H 0.87639 0.62342 0.94862 0.0
C668 C 0.816 0.56972 0.91564 0.0
N669 N 0.82462 0.56366 0.94937 0.0
C670 C 0.81441 0.55541 0.88558 0.0
C671 C 0.8301 0.52874 0.92602 0.0
C672 C 0.83145 0.54361 0.95525 0.0
C673 C 0.8217 0.53465 0.89044 0.0
H674 H 0.81063 0.58579 0.91198 0.0
H675 H 0.83811 0.53922 0.98255 0.0
O676 O 0.83132 0.62232 0.05481 0.0
O677 O 0.80204 0.58765 0.02132 0.0
O678 O 0.83155 0.61289 0.96673 0.0
O679 O 0.85066 0.58046 0.02426 0.0
H680 H 0.79165 0.61331 0.07389 0.0
H681 H 0.84595 0.65088 0.10255 0.0
H682 H 0.77253 0.62925 0.12827 0.0
H683 H 0.82576 0.66632 0.15646 0.0
H684 H 0.79312 0.51665 0.02906 0.0
H685 H 0.76774 0.58472 0.97836 0.0
H686 H 0.8125 0.54941 0.04523 0.0
H687 H 0.74936 0.55129 0.96285 0.0
H688 H 0.77282 0.68558 0.00957 0.0
H689 H 0.75882 0.6404 0.92052 0.0
H690 H 0.85835 0.55467 0.16529 0.0
H691 H 0.7902 0.55268 0.15997 0.0
H692 H 0.83044 0.61952 0.89244 0.0
H693 H 0.83841 0.64957 0.00171 0.0
H694 H 0.83452 0.65447 0.86134 0.0
H695 H 0.84231 0.68388 0.96874 0.0
H696 H 0.86229 0.58595 0.95196 0.0
H697 H 0.87854 0.55583 0.05813 0.0
H698 H 0.89433 0.57054 0.92279 0.0
H699 H 0.91037 0.5409 0.02699 0.0
H700 H 0.91828 0.63443 0.06553 0.0
H701 H 0.91309 0.63487 0.94241 0.0
H702 H 0.80808 0.56075 0.85855 0.0
H703 H 0.8356 0.51283 0.93122 0.0
H704 H 0.49731 0.16253 0.39959 0.0
H705 H 0.506 0.17604 0.62615 0.0
H706 H 0.44397 0.17291 0.47378 0.0
H707 H 0.55925 0.1612 0.55435 0.0
H708 H 0.48325 0.17578 0.57004 0.0
H709 H 0.52047 0.16248 0.45544 0.0
C710 C 0.49045 0.16471 0.42761 0.0
C711 C 0.46865 0.16778 0.43198 0.0
C712 C 0.4999 0.17256 0.56649 0.0
C713 C 0.49508 0.16793 0.49592 0.0
C714 C 0.51293 0.17283 0.59851 0.0
C715 C 0.53457 0.16872 0.59489 0.0
C716 C 0.50856 0.16819 0.53047 0.0
C717 C 0.54262 0.16427 0.55846 0.0
C718 C 0.5037 0.16478 0.45945 0.0
C719 C 0.4607 0.17082 0.46894 0.0
N720 N 0.52961 0.16418 0.52761 0.0
N721 N 0.4739 0.17082 0.49943 0.0
H722 H 0.79483 0.472 0.67668 0.0
H723 H 0.85178 0.5056 0.87074 0.0
H724 H 0.85099 0.44184 0.72021 0.0
H725 H 0.79087 0.5294 0.83613 0.0
H726 H 0.85169 0.48209 0.81573 0.0
H727 H 0.79306 0.49328 0.7347 0.0
C728 C 0.80671 0.46974 0.69853 0.0
C729 C 0.82314 0.45517 0.69345 0.0
C730 C 0.83828 0.49238 0.82026 0.0
C731 C 0.82134 0.47965 0.75973 0.0
C732 C 0.83826 0.50572 0.85185 0.0
C733 C 0.82131 0.51955 0.8581 0.0
C734 C 0.82131 0.4929 0.79453 0.0
C735 C 0.80442 0.51926 0.83214 0.0
C736 C 0.80573 0.48196 0.73158 0.0
C737 C 0.83826 0.45314 0.72254 0.0
N738 N 0.80489 0.50622 0.80141 0.0
N739 N 0.83702 0.46528 0.75435 0.0
H740 H 0.4523 0.85771 0.07883 0.0
H741 H 0.54386 0.79931 0.96278 0.0
H742 H 0.48106 0.79936 0.11522 0.0
H743 H 0.5111 0.8545 0.92146 0.0
H744 H 0.52122 0.79921 0.01904 0.0
H745 H 0.47429 0.85724 0.02167 0.0
C746 C 0.46334 0.84486 0.07489 0.0
C747 C 0.46491 0.82859 0.1019 0.0
C748 C 0.51895 0.81131 -0.00237 0.0
C749 C 0.48998 0.82783 0.03633 0.0
C750 C 0.53178 0.8113 0.96534 0.0
C751 C 0.52938 0.82693 0.93728 0.0
C752 C 0.50361 0.8271 0.00202 0.0
C753 C 0.51372 0.84231 0.94257 0.0
C754 C 0.47579 0.84453 0.04213 0.0
C755 C 0.47921 0.81213 0.09498 0.0
N756 N 0.50145 0.84202 0.97433 0.0
N757 N 0.49124 0.81221 0.06293 0.0
H758 H 0.16773 0.49231 0.38378 0.0
H759 H 0.16385 0.49817 0.15593 0.0
H760 H 0.15743 0.43794 0.31195 0.0
H761 H 0.16317 0.55296 0.22911 0.0
H762 H 0.16322 0.47564 0.2125 0.0
H763 H 0.1679 0.51464 0.3271 0.0
C764 C 0.16536 0.48506 0.35612 0.0
C765 C 0.1625 0.46319 0.35269 0.0
C766 C 0.1632 0.49259 0.21614 0.0
C767 C 0.16299 0.48868 0.28754 0.0
C768 C 0.16345 0.50548 0.18385 0.0
C769 C 0.16359 0.52752 0.18772 0.0
C770 C 0.16316 0.5018 0.25258 0.0
C771 C 0.16342 0.53607 0.22469 0.0
C772 C 0.16557 0.49782 0.32373 0.0
C773 C 0.15995 0.45467 0.31597 0.0
N774 N 0.16323 0.5232 0.25564 0.0
N775 N 0.16026 0.46743 0.28483 0.0
H776 H 0.3375 0.27667 0.35067 0.0
H777 H 0.22616 0.28866 0.45608 0.0
H778 H 0.29059 0.2274 0.35471 0.0
H779 H 0.27363 0.33744 0.45402 0.0
H780 H 0.24993 0.26561 0.42055 0.0
H781 H 0.31446 0.29904 0.38916 0.0
C782 C 0.32235 0.27056 0.35965 0.0
C783 C 0.31594 0.25016 0.34935 0.0
C784 C 0.25519 0.28132 0.42801 0.0
C785 C 0.28946 0.27568 0.39338 0.0
C786 C 0.24169 0.29443 0.44861 0.0
C787 C 0.24789 0.31504 0.458 0.0
C788 C 0.27505 0.28885 0.41666 0.0
C789 C 0.26808 0.32177 0.44695 0.0
C790 C 0.30918 0.28335 0.38157 0.0
C791 C 0.29604 0.24315 0.36146 0.0
N792 N 0.2809 0.30874 0.42678 0.0
N793 N 0.28352 0.25587 0.38288 0.0
H794 H 0.77059 0.28757 0.59738 0.0
H795 H 0.66206 0.27913 0.71039 0.0
H796 H 0.71836 0.33009 0.57838 0.0
H797 H 0.70403 0.22606 0.69575 0.0
H798 H 0.68463 0.29995 0.66833 0.0
H799 H 0.74813 0.26627 0.63869 0.0
C800 C 0.75433 0.29229 0.60133 0.0
C801 C 0.74638 0.31068 0.58414 0.0
C802 C 0.68889 0.28375 0.67446 0.0
C803 C 0.72081 0.28666 0.63254 0.0
C804 C 0.67603 0.27184 0.69846 0.0
C805 C 0.68108 0.25075 0.70666 0.0
C806 C 0.70708 0.27462 0.65879 0.0
C807 C 0.69964 0.24233 0.69085 0.0
C808 C 0.74158 0.2802 0.62526 0.0
C809 C 0.7253 0.31623 0.59135 0.0
N810 N 0.71195 0.25429 0.66767 0.0
N811 N 0.71329 0.30435 0.61518 0.0
H812 H 0.72604 0.659 0.92541 0.0
H813 H 0.71338 0.77946 0.86228 0.0
H814 H 0.77156 0.70729 0.95305 0.0
H815 H 0.67467 0.7291 0.81817 0.0
H816 H 0.73438 0.75349 0.89728 0.0
H817 H 0.70617 0.68478 0.88818 0.0
C818 C 0.73188 0.67502 0.92366 0.0
C819 C 0.75055 0.68095 0.94239 0.0
C820 C 0.7214 0.74809 0.87972 0.0
C821 C 0.72775 0.71061 0.89994 0.0
C822 C 0.70943 0.7629 0.85977 0.0
C823 C 0.69229 0.75639 0.83733 0.0
C824 C 0.71607 0.72664 0.87753 0.0
C825 C 0.6879 0.73475 0.83483 0.0
C826 C 0.7205 0.68974 0.90241 0.0
C827 C 0.75712 0.70204 0.93959 0.0
N828 N 0.69962 0.72065 0.85495 0.0
N829 N 0.74574 0.7161 0.91873 0.0
H830 H 0.21932 0.70746 0.10392 0.0
H831 H 0.32276 0.72536 0.23073 0.0
H832 H 0.26763 0.66015 0.11922 0.0
H833 H 0.28331 0.77613 0.19036 0.0
H834 H 0.2998 0.70012 0.19793 0.0
H835 H 0.24026 0.73196 0.142 0.0
C836 C 0.23441 0.70225 0.11494 0.0
C837 C 0.24177 0.6817 0.10804 0.0
C838 C 0.2961 0.71678 0.19647 0.0
C839 C 0.26557 0.70958 0.15255 0.0
C840 C 0.30907 0.73114 0.21546 0.0
C841 C 0.30495 0.75284 0.21305 0.0
C842 C 0.27882 0.72418 0.17521 0.0
C843 C 0.28715 0.75953 0.19254 0.0
C844 C 0.24627 0.71621 0.13698 0.0
C845 C 0.2612 0.67573 0.12405 0.0
N846 N 0.27476 0.74526 0.17432 0.0
N847 N 0.27242 0.6896 0.14555 0.0
H848 H 0.34867 0.94623 0.21365 0.0
H849 H 0.35593 0.05276 0.33092 0.0
H850 H 0.35278 0.94828 0.33645 0.0
H851 H 0.33638 0.0507 0.21284 0.0
H852 H 0.35308 0.01458 0.334 0.0
H853 H 0.34259 0.98433 0.21283 0.0
C854 C 0.34809 0.95472 0.24046 0.0
C855 C 0.35142 0.94418 0.27515 0.0
C856 C 0.34915 0.02248 0.30753 0.0
C857 C 0.34462 0.98771 0.27447 0.0
C858 C 0.35063 0.04438 0.30576 0.0
C859 C 0.34645 0.05511 0.27147 0.0
C860 C 0.34374 0.01107 0.27466 0.0
C861 C 0.34015 0.04315 0.23969 0.0
C862 C 0.34454 0.97642 0.24 0.0
C863 C 0.35024 0.95581 0.30911 0.0
N864 N 0.33921 0.02177 0.24194 0.0
N865 N 0.34722 0.97702 0.30788 0.0
H866 H 0.94682 0.32606 0.4742 0.0
H867 H 0.04733 0.36474 0.59079 0.0
H868 H 0.94356 0.35724 0.58351 0.0
H869 H 0.05184 0.32425 0.49201 0.0
H870 H 0.0093 0.36 0.59059 0.0
H871 H 0.98519 0.32355 0.48131 0.0
C872 C 0.95415 0.33222 0.4998 0.0
C873 C 0.94196 0.34191 0.52825 0.0
C874 C 0.0186 0.35195 0.56916 0.0
C875 C 0.98577 0.33915 0.53656 0.0
C876 C 0.04043 0.35451 0.56944 0.0
C877 C 0.05292 0.345 0.5412 0.0
C878 C 0.00906 0.33999 0.54019 0.0
C879 C 0.04284 0.33226 0.51388 0.0
C880 C 0.97602 0.3307 0.50394 0.0
C881 C 0.95226 0.34943 0.56103 0.0
N882 N 0.02149 0.33031 0.5138 0.0
N883 N 0.97355 0.34806 0.56409 0.0
H884 H 0.64259 0.94906 0.70278 0.0
H885 H 0.65417 0.05187 0.83362 0.0
H886 H 0.63884 0.94813 0.82568 0.0
H887 H 0.63998 0.05382 0.71308 0.0
H888 H 0.65602 0.01342 0.82999 0.0
H889 H 0.64929 0.98711 0.70515 0.0
C890 C 0.64347 0.95684 0.73026 0.0
C891 C 0.63993 0.94554 0.76407 0.0
C892 C 0.65272 0.02233 0.80429 0.0
C893 C 0.64752 0.98891 0.76701 0.0
C894 C 0.65158 0.04428 0.80635 0.0
C895 C 0.64666 0.05618 0.77371 0.0
C896 C 0.64903 0.01217 0.76933 0.0
C897 C 0.64399 0.04542 0.73897 0.0
C898 C 0.64718 0.97853 0.7316 0.0
C899 C 0.64114 0.95636 0.79893 0.0
N900 N 0.64504 0.02404 0.73777 0.0
N901 N 0.64474 0.97747 0.7995 0.0
H902 H 0.94392 0.6614 0.04734 0.0
H903 H 0.05021 0.62073 0.94957 0.0
H904 H 0.94632 0.61796 0.95259 0.0
H905 H 0.04946 0.66539 0.04261 0.0
H906 H 0.01195 0.62237 0.94678 0.0
H907 H 0.98231 0.66531 0.04353 0.0
C908 C 0.95248 0.65277 0.02566 0.0
C909 C 0.94185 0.63933 0.00026 0.0
C910 C 0.02012 0.63197 0.96762 0.0
C911 C 0.9857 0.6438 0.99564 0.0
C912 C 0.04206 0.63121 0.96901 0.0
C913 C 0.05316 0.64291 0.99645 0.0
C914 C 0.00906 0.6444 0.99406 0.0
C915 C 0.04156 0.65583 0.02137 0.0
C916 C 0.97437 0.65509 0.02338 0.0
C917 C 0.95374 0.62873 0.97244 0.0
N918 N 0.02013 0.65611 0.01978 0.0
N919 N 0.97498 0.6311 0.97104 0.0
H920 H 0.54865 0.19171 0.98306 0.0
H921 H 0.43226 0.16105 0.04839 0.0
H922 H 0.50126 0.16845 0.90508 0.0
H923 H 0.47339 0.20047 0.11571 0.0
H924 H 0.45798 0.16206 0.99635 0.0
H925 H 0.52185 0.19386 0.03293 0.0
C926 C 0.53261 0.18722 0.97625 0.0
C927 C 0.52731 0.17975 0.93975 0.0
C928 C 0.4613 0.17062 0.0224 0.0
C929 C 0.49661 0.18184 0.99703 0.0
C930 C 0.44668 0.16997 0.05211 0.0
C931 C 0.45072 0.18069 0.08635 0.0
C932 C 0.48024 0.18183 0.02717 0.0
C933 C 0.46957 0.19216 0.08962 0.0
C934 C 0.51733 0.18837 0.00483 0.0
C935 C 0.50626 0.17386 0.93294 0.0
N936 N 0.48372 0.19228 0.06053 0.0
N937 N 0.49174 0.17491 0.96134 0.0
H938 H 0.79734 0.54919 0.22855 0.0
H939 H 0.84844 0.44223 0.30809 0.0
H940 H 0.85038 0.51769 0.17652 0.0
H941 H 0.79831 0.4756 0.36551 0.0
H942 H 0.84864 0.46936 0.2587 0.0
H943 H 0.79666 0.52197 0.27811 0.0
C944 C 0.80884 0.53656 0.22755 0.0
C945 C 0.82401 0.53579 0.19841 0.0
C946 C 0.83757 0.47074 0.28207 0.0
C947 C 0.82332 0.50461 0.255 0.0
C948 C 0.8375 0.45528 0.31038 0.0
C949 C 0.82337 0.45662 0.34111 0.0
C950 C 0.8234 0.48774 0.28437 0.0
C951 C 0.8093 0.47375 0.34214 0.0
C952 C 0.80848 0.52107 0.2559 0.0
C953 C 0.83863 0.51915 0.19874 0.0
N954 N 0.80971 0.48865 0.31425 0.0
N955 N 0.83789 0.50423 0.22649 0.0
H956 H 0.54116 0.77949 0.58177 0.0
H957 H 0.44428 0.84041 0.48583 0.0
H958 H 0.52481 0.84399 0.6073 0.0
H959 H 0.47321 0.78576 0.43415 0.0
H960 H 0.47051 0.83907 0.53669 0.0
H961 H 0.51316 0.77875 0.53327 0.0
C962 C 0.53165 0.79345 0.57717 0.0
C963 C 0.53539 0.81189 0.59825 0.0
C964 C 0.47107 0.82734 0.51425 0.0
C965 C 0.50334 0.8111 0.54341 0.0
C966 C 0.45613 0.82813 0.48507 0.0
C967 C 0.45662 0.81333 0.45525 0.0
C968 C 0.48655 0.81152 0.51398 0.0
C969 C 0.47206 0.79742 0.4566 0.0
C970 C 0.51575 0.79305 0.5495 0.0
C971 C 0.52265 0.82957 0.59123 0.0
N972 N 0.48646 0.79698 0.48539 0.0
N973 N 0.50717 0.82871 0.56451 0.0
H974 H 0.16042 0.55856 0.80303 0.0
H975 H 0.20468 0.4483 0.72531 0.0
H976 H 0.20462 0.52 0.86574 0.0
H977 H 0.15335 0.48261 0.67337 0.0
H978 H 0.20774 0.47608 0.77363 0.0
H979 H 0.16061 0.53258 0.75168 0.0
C980 C 0.17021 0.54465 0.80598 0.0
C981 C 0.18237 0.54139 0.83896 0.0
C982 C 0.19582 0.47751 0.75163 0.0
C983 C 0.18275 0.51158 0.78005 0.0
C984 C 0.19412 0.4617 0.72401 0.0
C985 C 0.17862 0.46306 0.69549 0.0
C986 C 0.18204 0.49485 0.75051 0.0
C987 C 0.16528 0.48073 0.69524 0.0
C988 C 0.17035 0.52984 0.77659 0.0
C989 C 0.1951 0.52327 0.84077 0.0
N990 N 0.16729 0.49591 0.7223 0.0
N991 N 0.19486 0.50898 0.81184 0.0
loop_
_geom_bond_atom_site_label_1
_geom_bond_atom_site_label_2
_geom_bond_distance
_geom_bond_site_symmetry_2
_ccdc_geom_bond_type
Li0 N17 1.990 . S
Li0 O60 1.956 . S
Li0 O61 1.970 . S
Li0 O62 1.961 . S
Li1 N25 1.990 . S
Li1 O60 1.970 . S
Li1 O61 1.956 . S
Li1 O63 1.961 . S
Li2 N47 1.990 . S
Li2 O60 1.961 . S
Li2 O62 1.956 . S
Li2 O63 1.970 . S
Li3 N53 1.990 . S
Li3 O61 1.961 . S
Li3 O62 1.970 . S
Li3 O63 1.956 . S
C4 C6 1.348 . S
C4 C7 1.356 . S
C4 O60 1.325 . S
N5 C8 1.314 . S
N5 C9 1.279 . S
C6 C4 1.348 . S
C6 C8 1.353 . S
C6 H64 0.929 . S
C7 C4 1.356 . S
C7 C9 1.358 . S
C7 H65 0.930 . S
C8 N5 1.314 . S
C8 C6 1.353 . S
C8 H66 0.930 . S
C9 N5 1.279 . S
C9 C7 1.358 . S
C9 H67 0.930 . S
C10 C13 1.348 . S
C10 C14 1.356 . S
C10 O61 1.325 . S
C11 N12 1.279 . S
C11 C14 1.358 . S
C11 H68 0.930 . S
N12 C11 1.279 . S
N12 C15 1.314 . S
C13 C10 1.348 . S
C13 C15 1.353 . S
C13 H69 0.929 . S
C14 C10 1.356 . S
C14 C11 1.358 . S
C14 H70 0.930 . S
C15 N12 1.314 . S
C15 C13 1.353 . S
C15 H71 0.930 . S
C16 N17 1.314 . S
C16 C21 1.353 . S
C16 H22 0.930 . S
N17 Li0 1.990 . S
N17 C16 1.314 . S
N17 C19 1.279 . S
C18 C19 1.358 . S
C18 C20 1.356 . S
C18 H72 0.930 . S
C19 N17 1.279 . S
C19 C18 1.358 . S
C19 H23 0.930 . S
C20 C18 1.356 . S
C20 C21 1.348 . S
C21 C16 1.353 . S
C21 C20 1.348 . S
C21 H73 0.929 . S
H22 C16 0.930 . S
H23 C19 0.930 . S
C24 N25 1.314 . S
C24 C26 1.353 . S
C24 H30 0.930 . S
N25 Li1 1.990 . S
N25 C24 1.314 . S
N25 C28 1.279 . S
C26 C24 1.353 . S
C26 C29 1.348 . S
C26 H74 0.929 . S
C27 C28 1.358 . S
C27 C29 1.356 . S
C27 H75 0.930 . S
C28 N25 1.279 . S
C28 C27 1.358 . S
C28 H31 0.930 . S
C29 C26 1.348 . S
C29 C27 1.356 . S
H30 C24 0.930 . S
H31 C28 0.930 . S
C32 C34 1.348 . S
C32 C35 1.356 . S
C32 O62 1.325 . S
N33 C36 1.314 . S
N33 C37 1.279 . S
C34 C32 1.348 . S
C34 C36 1.353 . S
C34 H76 0.929 . S
C35 C32 1.356 . S
C35 C37 1.358 . S
C35 H77 0.930 . S
C36 N33 1.314 . S
C36 C34 1.353 . S
C36 H78 0.930 . S
C37 N33 1.279 . S
C37 C35 1.358 . S
C37 H79 0.930 . S
C38 C39 1.348 . S
C38 C40 1.356 . S
C38 O63 1.325 . S
C39 C38 1.348 . S
C39 C41 1.353 . S
C39 H80 0.929 . S
C40 C38 1.356 . S
C40 C42 1.358 . S
C40 H81 0.930 . S
C41 C39 1.353 . S
C41 N43 1.314 . S
C41 H82 0.930 . S
C42 C40 1.358 . S
C42 N43 1.279 . S
C42 H83 0.930 . S
N43 C41 1.314 . S
N43 C42 1.279 . S
C44 C46 1.353 . S
C44 N47 1.314 . S
C44 H50 0.930 . S
C45 N47 1.279 . S
C45 C48 1.358 . S
C45 H51 0.930 . S
C46 C44 1.353 . S
C46 C49 1.348 . S
C46 H84 0.929 . S
N47 Li2 1.990 . S
N47 C44 1.314 . S
N47 C45 1.279 . S
C48 C45 1.358 . S
C48 C49 1.356 . S
C48 H85 0.930 . S
C49 C46 1.348 . S
C49 C48 1.356 . S
H50 C44 0.930 . S
H51 C45 0.930 . S
C52 N53 1.314 . S
C52 C54 1.353 . S
C52 H58 0.930 . S
N53 Li3 1.990 . S
N53 C52 1.314 . S
N53 C56 1.279 . S
C54 C52 1.353 . S
C54 C57 1.348 . S
C54 H86 0.929 . S
C55 C56 1.358 . S
C55 C57 1.356 . S
C55 H87 0.930 . S
C56 N53 1.279 . S
C56 C55 1.358 . S
C56 H59 0.930 . S
C57 C54 1.348 . S
C57 C55 1.356 . S
H58 C52 0.930 . S
H59 C56 0.930 . S
O60 Li0 1.956 . S
O60 Li1 1.970 . S
O60 Li2 1.961 . S
O60 C4 1.325 . S
O61 Li0 1.970 . S
O61 Li1 1.956 . S
O61 Li3 1.961 . S
O61 C10 1.325 . S
O62 Li0 1.961 . S
O62 Li2 1.956 . S
O62 Li3 1.970 . S
O62 C32 1.325 . S
O63 Li1 1.961 . S
O63 Li2 1.970 . S
O63 Li3 1.956 . S
O63 C38 1.325 . S
H64 C6 0.929 . S
H65 C7 0.930 . S
H66 C8 0.930 . S
H67 C9 0.930 . S
H68 C11 0.930 . S
H69 C13 0.929 . S
H70 C14 0.930 . S
H71 C15 0.930 . S
H72 C18 0.930 . S
H73 C21 0.929 . S
H74 C26 0.929 . S
H75 C27 0.930 . S
H76 C34 0.929 . S
H77 C35 0.930 . S
H78 C36 0.930 . S
H79 C37 0.930 . S
H80 C39 0.929 . S
H81 C40 0.930 . S
H82 C41 0.930 . S
H83 C42 0.930 . S
H84 C46 0.929 . S
H85 C48 0.930 . S
H86 C54 0.929 . S
H87 C55 0.930 . S
Li88 N105 1.990 . S
Li88 O148 1.956 . S
Li88 O149 1.970 . S
Li88 O150 1.961 . S
Li89 N113 1.990 . S
Li89 O148 1.970 . S
Li89 O149 1.956 . S
Li89 O151 1.961 . S
Li90 N135 1.990 . S
Li90 O148 1.961 . S
Li90 O150 1.956 . S
Li90 O151 1.970 . S
Li91 N141 1.990 . S
Li91 O149 1.961 . S
Li91 O150 1.970 . S
Li91 O151 1.956 . S
C92 C94 1.348 . S
C92 C95 1.356 . S
C92 O148 1.325 . S
N93 C96 1.314 . S
N93 C97 1.279 . S
C94 C92 1.348 . S
C94 C96 1.353 . S
C94 H152 0.929 . S
C95 C92 1.356 . S
C95 C97 1.358 . S
C95 H153 0.930 . S
C96 N93 1.314 . S
C96 C94 1.353 . S
C96 H154 0.930 . S
C97 N93 1.279 . S
C97 C95 1.358 . S
C97 H155 0.930 . S
C98 C101 1.348 . S
C98 C102 1.356 . S
C98 O149 1.325 . S
C99 N100 1.279 . S
C99 C102 1.358 . S
C99 H156 0.930 . S
N100 C99 1.279 . S
N100 C103 1.314 . S
C101 C98 1.348 . S
C101 C103 1.353 . S
C101 H157 0.929 . S
C102 C98 1.356 . S
C102 C99 1.358 . S
C102 H158 0.930 . S
C103 N100 1.314 . S
C103 C101 1.353 . S
C103 H159 0.930 . S
C104 N105 1.314 . S
C104 C109 1.353 . S
C104 H110 0.930 . S
N105 Li88 1.990 . S
N105 C104 1.314 . S
N105 C107 1.279 . S
C106 C107 1.358 . S
C106 C108 1.356 . S
C106 H160 0.930 . S
C107 N105 1.279 . S
C107 C106 1.358 . S
C107 H111 0.930 . S
C108 C106 1.356 . S
C108 C109 1.348 . S
C109 C104 1.353 . S
C109 C108 1.348 . S
C109 H161 0.929 . S
H110 C104 0.930 . S
H111 C107 0.930 . S
C112 N113 1.314 . S
C112 C114 1.353 . S
C112 H118 0.930 . S
N113 Li89 1.990 . S
N113 C112 1.314 . S
N113 C116 1.279 . S
C114 C112 1.353 . S
C114 C117 1.348 . S
C114 H162 0.929 . S
C115 C116 1.358 . S
C115 C117 1.356 . S
C115 H163 0.930 . S
C116 N113 1.279 . S
C116 C115 1.358 . S
C116 H119 0.930 . S
C117 C114 1.348 . S
C117 C115 1.356 . S
H118 C112 0.930 . S
H119 C116 0.930 . S
C120 C122 1.348 . S
C120 C123 1.356 . S
C120 O150 1.325 . S
N121 C124 1.314 . S
N121 C125 1.279 . S
C122 C120 1.348 . S
C122 C124 1.353 . S
C122 H164 0.929 . S
C123 C120 1.356 . S
C123 C125 1.358 . S
C123 H165 0.930 . S
C124 N121 1.314 . S
C124 C122 1.353 . S
C124 H166 0.930 . S
C125 N121 1.279 . S
C125 C123 1.358 . S
C125 H167 0.930 . S
C126 C127 1.348 . S
C126 C128 1.356 . S
C126 O151 1.325 . S
C127 C126 1.348 . S
C127 C129 1.353 . S
C127 H168 0.929 . S
C128 C126 1.356 . S
C128 C130 1.358 . S
C128 H169 0.930 . S
C129 C127 1.353 . S
C129 N131 1.314 . S
C129 H170 0.930 . S
C130 C128 1.358 . S
C130 N131 1.279 . S
C130 H171 0.930 . S
N131 C129 1.314 . S
N131 C130 1.279 . S
C132 C134 1.353 . S
C132 N135 1.314 . S
C132 H138 0.930 . S
C133 N135 1.279 . S
C133 C136 1.358 . S
C133 H139 0.930 . S
C134 C132 1.353 . S
C134 C137 1.348 . S
C134 H172 0.929 . S
N135 Li90 1.990 . S
N135 C132 1.314 . S
N135 C133 1.279 . S
C136 C133 1.358 . S
C136 C137 1.356 . S
C136 H173 0.930 . S
C137 C134 1.348 . S
C137 C136 1.356 . S
H138 C132 0.930 . S
H139 C133 0.930 . S
C140 N141 1.314 . S
C140 C142 1.353 . S
C140 H146 0.930 . S
N141 Li91 1.990 . S
N141 C140 1.314 . S
N141 C144 1.279 . S
C142 C140 1.353 . S
C142 C145 1.348 . S
C142 H174 0.929 . S
C143 C144 1.358 . S
C143 C145 1.356 . S
C143 H175 0.930 . S
C144 N141 1.279 . S
C144 C143 1.358 . S
C144 H147 0.930 . S
C145 C142 1.348 . S
C145 C143 1.356 . S
H146 C140 0.930 . S
H147 C144 0.930 . S
O148 Li88 1.956 . S
O148 Li89 1.970 . S
O148 Li90 1.961 . S
O148 C92 1.325 . S
O149 Li88 1.970 . S
O149 Li89 1.956 . S
O149 Li91 1.961 . S
O149 C98 1.325 . S
O150 Li88 1.961 . S
O150 Li90 1.956 . S
O150 Li91 1.970 . S
O150 C120 1.325 . S
O151 Li89 1.961 . S
O151 Li90 1.970 . S
O151 Li91 1.956 . S
O151 C126 1.325 . S
H152 C94 0.929 . S
H153 C95 0.930 . S
H154 C96 0.930 . S
H155 C97 0.930 . S
H156 C99 0.930 . S
H157 C101 0.929 . S
H158 C102 0.930 . S
H159 C103 0.930 . S
H160 C106 0.930 . S
H161 C109 0.929 . S
H162 C114 0.929 . S
H163 C115 0.930 . S
H164 C122 0.929 . S
H165 C123 0.930 . S
H166 C124 0.930 . S
H167 C125 0.930 . S
H168 C127 0.929 . S
H169 C128 0.930 . S
H170 C129 0.930 . S
H171 C130 0.930 . S
H172 C134 0.929 . S
H173 C136 0.930 . S
H174 C142 0.929 . S
H175 C143 0.930 . S
Li176 N193 1.990 . S
Li176 O236 1.956 . S
Li176 O237 1.970 . S
Li176 O238 1.961 . S
Li177 N201 1.990 . S
Li177 O236 1.970 . S
Li177 O237 1.956 . S
Li177 O239 1.961 . S
Li178 N223 1.990 . S
Li178 O236 1.961 . S
Li178 O238 1.956 . S
Li178 O239 1.970 . S
Li179 N229 1.990 . S
Li179 O237 1.961 . S
Li179 O238 1.970 . S
Li179 O239 1.956 . S
C180 C182 1.348 . S
C180 C183 1.356 . S
C180 O236 1.325 . S
N181 C184 1.314 . S
N181 C185 1.279 . S
C182 C180 1.348 . S
C182 C184 1.353 . S
C182 H240 0.929 . S
C183 C180 1.356 . S
C183 C185 1.358 . S
C183 H241 0.930 . S
C184 N181 1.314 . S
C184 C182 1.353 . S
C184 H242 0.930 . S
C185 N181 1.279 . S
C185 C183 1.358 . S
C185 H243 0.930 . S
C186 C189 1.348 . S
C186 C190 1.356 . S
C186 O237 1.325 . S
C187 N188 1.279 . S
C187 C190 1.358 . S
C187 H244 0.930 . S
N188 C187 1.279 . S
N188 C191 1.314 . S
C189 C186 1.348 . S
C189 C191 1.353 . S
C189 H245 0.929 . S
C190 C186 1.356 . S
C190 C187 1.358 . S
C190 H246 0.930 . S
C191 N188 1.314 . S
C191 C189 1.353 . S
C191 H247 0.930 . S
C192 N193 1.314 . S
C192 C197 1.353 . S
C192 H198 0.930 . S
N193 Li176 1.990 . S
N193 C192 1.314 . S
N193 C195 1.279 . S
C194 C195 1.358 . S
C194 C196 1.356 . S
C194 H248 0.930 . S
C195 N193 1.279 . S
C195 C194 1.358 . S
C195 H199 0.930 . S
C196 C194 1.356 . S
C196 C197 1.348 . S
C197 C192 1.353 . S
C197 C196 1.348 . S
C197 H249 0.929 . S
H198 C192 0.930 . S
H199 C195 0.930 . S
C200 N201 1.314 . S
C200 C202 1.353 . S
C200 H206 0.930 . S
N201 Li177 1.990 . S
N201 C200 1.314 . S
N201 C204 1.279 . S
C202 C200 1.353 . S
C202 C205 1.348 . S
C202 H250 0.929 . S
C203 C204 1.358 . S
C203 C205 1.356 . S
C203 H251 0.930 . S
C204 N201 1.279 . S
C204 C203 1.358 . S
C204 H207 0.930 . S
C205 C202 1.348 . S
C205 C203 1.356 . S
H206 C200 0.930 . S
H207 C204 0.930 . S
C208 C210 1.348 . S
C208 C211 1.356 . S
C208 O238 1.325 . S
N209 C212 1.314 . S
N209 C213 1.279 . S
C210 C208 1.348 . S
C210 C212 1.353 . S
C210 H252 0.929 . S
C211 C208 1.356 . S
C211 C213 1.358 . S
C211 H253 0.930 . S
C212 N209 1.314 . S
C212 C210 1.353 . S
C212 H254 0.930 . S
C213 N209 1.279 . S
C213 C211 1.358 . S
C213 H255 0.930 . S
C214 C215 1.348 . S
C214 C216 1.356 . S
C214 O239 1.325 . S
C215 C214 1.348 . S
C215 C217 1.353 . S
C215 H256 0.929 . S
C216 C214 1.356 . S
C216 C218 1.358 . S
C216 H257 0.930 . S
C217 C215 1.353 . S
C217 N219 1.314 . S
C217 H258 0.930 . S
C218 C216 1.358 . S
C218 N219 1.279 . S
C218 H259 0.930 . S
N219 C217 1.314 . S
N219 C218 1.279 . S
C220 C222 1.353 . S
C220 N223 1.314 . S
C220 H226 0.930 . S
C221 N223 1.279 . S
C221 C224 1.358 . S
C221 H227 0.930 . S
C222 C220 1.353 . S
C222 C225 1.348 . S
C222 H260 0.929 . S
N223 Li178 1.990 . S
N223 C220 1.314 . S
N223 C221 1.279 . S
C224 C221 1.358 . S
C224 C225 1.356 . S
C224 H261 0.930 . S
C225 C222 1.348 . S
C225 C224 1.356 . S
H226 C220 0.930 . S
H227 C221 0.930 . S
C228 N229 1.314 . S
C228 C230 1.353 . S
C228 H234 0.930 . S
N229 Li179 1.990 . S
N229 C228 1.314 . S
N229 C232 1.279 . S
C230 C228 1.353 . S
C230 C233 1.348 . S
C230 H262 0.929 . S
C231 C232 1.358 . S
C231 C233 1.356 . S
C231 H263 0.930 . S
C232 N229 1.279 . S
C232 C231 1.358 . S
C232 H235 0.930 . S
C233 C230 1.348 . S
C233 C231 1.356 . S
H234 C228 0.930 . S
H235 C232 0.930 . S
O236 Li176 1.956 . S
O236 Li177 1.970 . S
O236 Li178 1.961 . S
O236 C180 1.325 . S
O237 Li176 1.970 . S
O237 Li177 1.956 . S
O237 Li179 1.961 . S
O237 C186 1.325 . S
O238 Li176 1.961 . S
O238 Li178 1.956 . S
O238 Li179 1.970 . S
O238 C208 1.325 . S
O239 Li177 1.961 . S
O239 Li178 1.970 . S
O239 Li179 1.956 . S
O239 C214 1.325 . S
H240 C182 0.929 . S
H241 C183 0.930 . S
H242 C184 0.930 . S
H243 C185 0.930 . S
H244 C187 0.930 . S
H245 C189 0.929 . S
H246 C190 0.930 . S
H247 C191 0.930 . S
H248 C194 0.930 . S
H249 C197 0.929 . S
H250 C202 0.929 . S
H251 C203 0.930 . S
H252 C210 0.929 . S
H253 C211 0.930 . S
H254 C212 0.930 . S
H255 C213 0.930 . S
H256 C215 0.929 . S
H257 C216 0.930 . S
H258 C217 0.930 . S
H259 C218 0.930 . S
H260 C222 0.929 . S
H261 C224 0.930 . S
H262 C230 0.929 . S
H263 C231 0.930 . S
Li264 N281 1.990 . S
Li264 O324 1.956 . S
Li264 O325 1.970 . S
Li264 O326 1.961 1_554 S
Li265 N289 1.990 . S
Li265 O324 1.970 . S
Li265 O325 1.956 . S
Li265 O327 1.961 . S
Li266 N311 1.990 . S
Li266 O324 1.961 . S
Li266 O326 1.956 1_554 S
Li266 O327 1.970 . S
Li267 N317 1.990 . S
Li267 O325 1.961 1_556 S
Li267 O326 1.970 . S
Li267 O327 1.956 1_556 S
C268 C270 1.348 . S
C268 C271 1.356 . S
C268 O324 1.325 . S
N269 C272 1.314 . S
N269 C273 1.279 . S
C270 C268 1.348 . S
C270 C272 1.353 . S
C270 H328 0.929 . S
C271 C268 1.356 . S
C271 C273 1.358 . S
C271 H329 0.930 . S
C272 N269 1.314 . S
C272 C270 1.353 . S
C272 H330 0.930 . S
C273 N269 1.279 . S
C273 C271 1.358 . S
C273 H331 0.930 . S
C274 C277 1.348 . S
C274 C278 1.356 . S
C274 O325 1.325 . S
C275 N276 1.279 . S
C275 C278 1.358 . S
C275 H332 0.925 1_554 S
N276 C275 1.279 . S
N276 C279 1.314 . S
C277 C274 1.348 . S
C277 C279 1.353 . S
C277 H333 0.929 . S
C278 C274 1.356 . S
C278 C275 1.358 . S
C278 H334 0.930 . S
C279 N276 1.314 . S
C279 C277 1.353 . S
C279 H335 0.930 . S
C280 N281 1.314 1_556 S
C280 C285 1.353 . S
C280 H286 0.930 . S
N281 Li264 1.990 . S
N281 C280 1.314 1_554 S
N281 C283 1.279 . S
C282 C283 1.358 . S
C282 C284 1.356 . S
C282 H336 0.930 . S
C283 N281 1.279 . S
C283 C282 1.358 . S
C283 H287 0.930 . S
C284 C282 1.356 . S
C284 C285 1.348 1_554 S
C285 C280 1.353 . S
C285 C284 1.348 1_556 S
C285 H337 0.929 . S
H286 C280 0.930 . S
H287 C283 0.930 . S
C288 N289 1.314 . S
C288 C290 1.353 . S
C288 H294 0.930 . S
N289 Li265 1.990 . S
N289 C288 1.314 . S
N289 C292 1.279 . S
C290 C288 1.353 . S
C290 C293 1.348 . S
C290 H338 0.929 . S
C291 C292 1.358 . S
C291 C293 1.356 . S
C291 H339 0.930 . S
C292 N289 1.279 . S
C292 C291 1.358 . S
C292 H295 0.930 . S
C293 C290 1.348 . S
C293 C291 1.356 . S
H294 C288 0.930 . S
H295 C292 0.930 . S
C296 C298 1.348 . S
C296 C299 1.356 . S
C296 O326 1.325 . S
N297 C300 1.314 . S
N297 C301 1.279 . S
C298 C296 1.348 . S
C298 C300 1.353 . S
C298 H340 0.929 . S
C299 C296 1.356 . S
C299 C301 1.358 . S
C299 H341 0.930 . S
C300 N297 1.314 . S
C300 C298 1.353 . S
C300 H342 0.930 . S
C301 N297 1.279 . S
C301 C299 1.358 . S
C301 H343 0.930 . S
C302 C303 1.348 . S
C302 C304 1.356 . S
C302 O327 1.325 . S
C303 C302 1.348 . S
C303 C305 1.353 . S
C303 H344 0.929 . S
C304 C302 1.356 . S
C304 C306 1.358 . S
C304 H345 0.930 . S
C305 C303 1.353 . S
C305 N307 1.314 . S
C305 H346 0.930 . S
C306 C304 1.358 . S
C306 N307 1.279 . S
C306 H347 0.930 . S
N307 C305 1.314 . S
N307 C306 1.279 . S
C308 C310 1.353 . S
C308 N311 1.314 . S
C308 H314 0.930 . S
C309 N311 1.279 . S
C309 C312 1.358 . S
C309 H315 0.930 1_554 S
C310 C308 1.353 . S
C310 C313 1.348 . S
C310 H348 0.929 . S
N311 Li266 1.990 . S
N311 C308 1.314 . S
N311 C309 1.279 . S
C312 C309 1.358 . S
C312 C313 1.356 . S
C312 H349 0.930 . S
C313 C310 1.348 . S
C313 C312 1.356 . S
H314 C308 0.930 . S
H315 C309 0.930 1_556 S
C316 N317 1.314 . S
C316 C318 1.353 . S
C316 H322 0.930 . S
N317 Li267 1.990 . S
N317 C316 1.314 . S
N317 C320 1.279 . S
C318 C316 1.353 . S
C318 C321 1.348 . S
C318 H350 0.929 . S
C319 C320 1.358 . S
C319 C321 1.356 . S
C319 H351 0.930 . S
C320 N317 1.279 . S
C320 C319 1.358 . S
C320 H323 0.930 . S
C321 C318 1.348 . S
C321 C319 1.356 . S
H322 C316 0.930 . S
H323 C320 0.930 . S
O324 Li264 1.956 . S
O324 Li265 1.970 . S
O324 Li266 1.961 . S
O324 C268 1.325 . S
O325 Li264 1.970 . S
O325 Li265 1.956 . S
O325 Li267 1.961 1_554 S
O325 C274 1.325 . S
O326 Li264 1.961 1_556 S
O326 Li266 1.956 1_556 S
O326 Li267 1.970 . S
O326 C296 1.325 . S
O327 Li265 1.961 . S
O327 Li266 1.970 . S
O327 Li267 1.956 1_554 S
O327 C302 1.325 . S
H328 C270 0.929 . S
H329 C271 0.930 . S
H330 C272 0.930 . S
H331 C273 0.930 . S
H332 C275 0.925 1_556 S
H333 C277 0.929 . S
H334 C278 0.930 . S
H335 C279 0.930 . S
H336 C282 0.930 . S
H337 C285 0.929 . S
H338 C290 0.929 . S
H339 C291 0.930 . S
H340 C298 0.929 . S
H341 C299 0.930 . S
H342 C300 0.930 . S
H343 C301 0.930 . S
H344 C303 0.929 . S
H345 C304 0.930 . S
H346 C305 0.930 . S
H347 C306 0.930 . S
H348 C310 0.929 . S
H349 C312 0.930 . S
H350 C318 0.929 . S
H351 C319 0.930 . S
Li352 N369 1.990 . S
Li352 O412 1.956 . S
Li352 O413 1.970 . S
Li352 O414 1.961 . S
Li353 N377 1.990 . S
Li353 O412 1.970 . S
Li353 O413 1.956 . S
Li353 O415 1.961 . S
Li354 N399 1.990 . S
Li354 O412 1.961 . S
Li354 O414 1.956 . S
Li354 O415 1.970 . S
Li355 N405 1.990 . S
Li355 O413 1.961 . S
Li355 O414 1.970 . S
Li355 O415 1.956 . S
C356 C358 1.348 . S
C356 C359 1.356 . S
C356 O412 1.325 . S
N357 C360 1.314 . S
N357 C361 1.279 . S
C358 C356 1.348 . S
C358 C360 1.353 . S
C358 H416 0.929 . S
C359 C356 1.356 . S
C359 C361 1.358 . S
C359 H417 0.930 . S
C360 N357 1.314 . S
C360 C358 1.353 . S
C360 H418 0.930 . S
C361 N357 1.279 . S
C361 C359 1.358 . S
C361 H419 0.930 . S
C362 C365 1.348 . S
C362 C366 1.356 . S
C362 O413 1.325 . S
C363 N364 1.279 . S
C363 C366 1.358 . S
C363 H420 0.930 . S
N364 C363 1.279 . S
N364 C367 1.314 . S
C365 C362 1.348 . S
C365 C367 1.353 . S
C365 H421 0.929 . S
C366 C362 1.356 . S
C366 C363 1.358 . S
C366 H422 0.930 . S
C367 N364 1.314 . S
C367 C365 1.353 . S
C367 H423 0.930 . S
C368 N369 1.314 . S
C368 C373 1.353 . S
C368 H374 0.930 . S
N369 Li352 1.990 . S
N369 C368 1.314 . S
N369 C371 1.279 . S
C370 C371 1.358 . S
C370 C372 1.356 . S
C370 H424 0.930 . S
C371 N369 1.279 . S
C371 C370 1.358 . S
C371 H375 0.930 . S
C372 C370 1.356 . S
C372 C373 1.348 . S
C373 C368 1.353 . S
C373 C372 1.348 . S
C373 H425 0.929 . S
H374 C368 0.930 . S
H375 C371 0.930 . S
C376 N377 1.314 . S
C376 C378 1.353 . S
C376 H382 0.930 . S
N377 Li353 1.990 . S
N377 C376 1.314 . S
N377 C380 1.279 . S
C378 C376 1.353 . S
C378 C381 1.348 . S
C378 H426 0.929 . S
C379 C380 1.358 . S
C379 C381 1.356 . S
C379 H427 0.930 . S
C380 N377 1.279 . S
C380 C379 1.358 . S
C380 H383 0.930 . S
C381 C378 1.348 . S
C381 C379 1.356 . S
H382 C376 0.930 . S
H383 C380 0.930 . S
C384 C386 1.348 . S
C384 C387 1.356 . S
C384 O414 1.325 . S
N385 C388 1.314 . S
N385 C389 1.279 . S
C386 C384 1.348 . S
C386 C388 1.353 . S
C386 H428 0.929 . S
C387 C384 1.356 . S
C387 C389 1.358 . S
C387 H429 0.930 . S
C388 N385 1.314 . S
C388 C386 1.353 . S
C388 H430 0.930 . S
C389 N385 1.279 . S
C389 C387 1.358 . S
C389 H431 0.930 . S
C390 C391 1.348 . S
C390 C392 1.356 . S
C390 O415 1.325 . S
C391 C390 1.348 . S
C391 C393 1.353 . S
C391 H432 0.929 . S
C392 C390 1.356 . S
C392 C394 1.358 . S
C392 H433 0.930 . S
C393 C391 1.353 . S
C393 N395 1.314 . S
C393 H434 0.930 . S
C394 C392 1.358 . S
C394 N395 1.279 . S
C394 H435 0.930 . S
N395 C393 1.314 . S
N395 C394 1.279 . S
C396 C398 1.353 . S
C396 N399 1.314 . S
C396 H402 0.930 . S
C397 N399 1.279 . S
C397 C400 1.358 . S
C397 H403 0.930 . S
C398 C396 1.353 . S
C398 C401 1.348 . S
C398 H436 0.929 . S
N399 Li354 1.990 . S
N399 C396 1.314 . S
N399 C397 1.279 . S
C400 C397 1.358 . S
C400 C401 1.356 . S
C400 H437 0.930 . S
C401 C398 1.348 . S
C401 C400 1.356 . S
H402 C396 0.930 . S
H403 C397 0.930 . S
C404 N405 1.314 . S
C404 C406 1.353 . S
C404 H410 0.930 . S
N405 Li355 1.990 . S
N405 C404 1.314 . S
N405 C408 1.279 . S
C406 C404 1.353 . S
C406 C409 1.348 . S
C406 H438 0.929 . S
C407 C408 1.358 . S
C407 C409 1.356 . S
C407 H439 0.930 . S
C408 N405 1.279 . S
C408 C407 1.358 . S
C408 H411 0.930 . S
C409 C406 1.348 . S
C409 C407 1.356 . S
H410 C404 0.930 . S
H411 C408 0.930 . S
O412 Li352 1.956 . S
O412 Li353 1.970 . S
O412 Li354 1.961 . S
O412 C356 1.325 . S
O413 Li352 1.970 . S
O413 Li353 1.956 . S
O413 Li355 1.961 . S
O413 C362 1.325 . S
O414 Li352 1.961 . S
O414 Li354 1.956 . S
O414 Li355 1.970 . S
O414 C384 1.325 . S
O415 Li353 1.961 . S
O415 Li354 1.970 . S
O415 Li355 1.956 . S
O415 C390 1.325 . S
H416 C358 0.929 . S
H417 C359 0.930 . S
H418 C360 0.930 . S
H419 C361 0.930 . S
H420 C363 0.930 . S
H421 C365 0.929 . S
H422 C366 0.930 . S
H423 C367 0.930 . S
H424 C370 0.930 . S
H425 C373 0.929 . S
H426 C378 0.929 . S
H427 C379 0.930 . S
H428 C386 0.929 . S
H429 C387 0.930 . S
H430 C388 0.930 . S
H431 C389 0.930 . S
H432 C391 0.929 . S
H433 C392 0.930 . S
H434 C393 0.930 . S
H435 C394 0.930 . S
H436 C398 0.929 . S
H437 C400 0.930 . S
H438 C406 0.929 . S
H439 C407 0.930 . S
Li440 N457 1.990 . S
Li440 O500 1.956 . S
Li440 O501 1.970 . S
Li440 O502 1.961 . S
Li441 N465 1.990 . S
Li441 O500 1.970 . S
Li441 O501 1.956 . S
Li441 O503 1.961 . S
Li442 N487 1.990 . S
Li442 O500 1.961 . S
Li442 O502 1.956 . S
Li442 O503 1.970 . S
Li443 N493 1.990 . S
Li443 O501 1.961 . S
Li443 O502 1.970 . S
Li443 O503 1.956 . S
C444 C446 1.348 . S
C444 C447 1.356 . S
C444 O500 1.325 . S
N445 C448 1.314 . S
N445 C449 1.279 . S
C446 C444 1.348 . S
C446 C448 1.353 . S
C446 H504 0.929 . S
C447 C444 1.356 . S
C447 C449 1.358 . S
C447 H505 0.930 . S
C448 N445 1.314 . S
C448 C446 1.353 . S
C448 H506 0.930 . S
C449 N445 1.279 . S
C449 C447 1.358 . S
C449 H507 0.930 . S
C450 C453 1.348 . S
C450 C454 1.356 . S
C450 O501 1.325 . S
C451 N452 1.279 . S
C451 C454 1.358 . S
C451 H508 0.930 . S
N452 C451 1.279 . S
N452 C455 1.314 . S
C453 C450 1.348 . S
C453 C455 1.353 . S
C453 H509 0.929 . S
C454 C450 1.356 . S
C454 C451 1.358 . S
C454 H510 0.930 . S
C455 N452 1.314 . S
C455 C453 1.353 . S
C455 H511 0.930 . S
C456 N457 1.314 . S
C456 C461 1.353 . S
C456 H462 0.930 . S
N457 Li440 1.990 . S
N457 C456 1.314 . S
N457 C459 1.279 . S
C458 C459 1.358 . S
C458 C460 1.356 . S
C458 H512 0.930 . S
C459 N457 1.279 . S
C459 C458 1.358 . S
C459 H463 0.930 . S
C460 C458 1.356 . S
C460 C461 1.348 . S
C461 C456 1.353 . S
C461 C460 1.348 . S
C461 H513 0.929 . S
H462 C456 0.930 . S
H463 C459 0.930 . S
C464 N465 1.314 . S
C464 C466 1.353 . S
C464 H470 0.930 . S
N465 Li441 1.990 . S
N465 C464 1.314 . S
N465 C468 1.279 . S
C466 C464 1.353 . S
C466 C469 1.348 . S
C466 H514 0.929 . S
C467 C468 1.358 . S
C467 C469 1.356 . S
C467 H515 0.930 . S
C468 N465 1.279 . S
C468 C467 1.358 . S
C468 H471 0.930 . S
C469 C466 1.348 . S
C469 C467 1.356 . S
H470 C464 0.930 . S
H471 C468 0.930 . S
C472 C474 1.348 . S
C472 C475 1.356 . S
C472 O502 1.325 . S
N473 C476 1.314 . S
N473 C477 1.279 . S
C474 C472 1.348 . S
C474 C476 1.353 . S
C474 H516 0.929 . S
C475 C472 1.356 . S
C475 C477 1.358 . S
C475 H517 0.930 . S
C476 N473 1.314 . S
C476 C474 1.353 . S
C476 H518 0.930 . S
C477 N473 1.279 . S
C477 C475 1.358 . S
C477 H519 0.930 . S
C478 C479 1.348 . S
C478 C480 1.356 . S
C478 O503 1.325 . S
C479 C478 1.348 . S
C479 C481 1.353 . S
C479 H520 0.929 . S
C480 C478 1.356 . S
C480 C482 1.358 . S
C480 H521 0.930 . S
C481 C479 1.353 . S
C481 N483 1.314 . S
C481 H522 0.930 . S
C482 C480 1.358 . S
C482 N483 1.279 . S
C482 H523 0.930 . S
N483 C481 1.314 . S
N483 C482 1.279 . S
C484 C486 1.353 . S
C484 N487 1.314 . S
C484 H490 0.930 . S
C485 N487 1.279 . S
C485 C488 1.358 . S
C485 H491 0.930 . S
C486 C484 1.353 . S
C486 C489 1.348 . S
C486 H524 0.929 . S
N487 Li442 1.990 . S
N487 C484 1.314 . S
N487 C485 1.279 . S
C488 C485 1.358 . S
C488 C489 1.356 . S
C488 H525 0.930 . S
C489 C486 1.348 . S
C489 C488 1.356 . S
H490 C484 0.930 . S
H491 C485 0.930 . S
C492 N493 1.314 . S
C492 C494 1.353 . S
C492 H498 0.930 . S
N493 Li443 1.990 . S
N493 C492 1.314 . S
N493 C496 1.279 . S
C494 C492 1.353 . S
C494 C497 1.348 . S
C494 H526 0.929 . S
C495 C496 1.358 . S
C495 C497 1.356 . S
C495 H527 0.930 . S
C496 N493 1.279 . S
C496 C495 1.358 . S
C496 H499 0.930 . S
C497 C494 1.348 . S
C497 C495 1.356 . S
H498 C492 0.930 . S
H499 C496 0.930 . S
O500 Li440 1.956 . S
O500 Li441 1.970 . S
O500 Li442 1.961 . S
O500 C444 1.325 . S
O501 Li440 1.970 . S
O501 Li441 1.956 . S
O501 Li443 1.961 . S
O501 C450 1.325 . S
O502 Li440 1.961 . S
O502 Li442 1.956 . S
O502 Li443 1.970 . S
O502 C472 1.325 . S
O503 Li441 1.961 . S
O503 Li442 1.970 . S
O503 Li443 1.956 . S
O503 C478 1.325 . S
H504 C446 0.929 . S
H505 C447 0.930 . S
H506 C448 0.930 . S
H507 C449 0.930 . S
H508 C451 0.930 . S
H509 C453 0.929 . S
H510 C454 0.930 . S
H511 C455 0.930 . S
H512 C458 0.930 . S
H513 C461 0.929 . S
H514 C466 0.929 . S
H515 C467 0.930 . S
H516 C474 0.929 . S
H517 C475 0.930 . S
H518 C476 0.930 . S
H519 C477 0.930 . S
H520 C479 0.929 . S
H521 C480 0.930 . S
H522 C481 0.930 . S
H523 C482 0.930 . S
H524 C486 0.929 . S
H525 C488 0.930 . S
H526 C494 0.929 . S
H527 C495 0.930 . S
Li528 N545 1.990 . S
Li528 O588 1.956 . S
Li528 O589 1.970 . S
Li528 O590 1.961 . S
Li529 N553 1.990 . S
Li529 O588 1.970 . S
Li529 O589 1.956 . S
Li529 O591 1.961 . S
Li530 N575 1.990 . S
Li530 O588 1.961 . S
Li530 O590 1.956 . S
Li530 O591 1.970 . S
Li531 N581 1.990 . S
Li531 O589 1.961 . S
Li531 O590 1.970 . S
Li531 O591 1.956 . S
C532 C534 1.348 . S
C532 C535 1.356 . S
C532 O588 1.325 . S
N533 C536 1.314 . S
N533 C537 1.279 . S
C534 C532 1.348 . S
C534 C536 1.353 . S
C534 H592 0.929 . S
C535 C532 1.356 . S
C535 C537 1.358 . S
C535 H593 0.930 . S
C536 N533 1.314 . S
C536 C534 1.353 . S
C536 H594 0.930 . S
C537 N533 1.279 . S
C537 C535 1.358 . S
C537 H595 0.930 . S
C538 C541 1.348 . S
C538 C542 1.356 . S
C538 O589 1.325 . S
C539 N540 1.279 . S
C539 C542 1.358 . S
C539 H596 0.930 . S
N540 C539 1.279 . S
N540 C543 1.314 . S
C541 C538 1.348 . S
C541 C543 1.353 . S
C541 H597 0.929 . S
C542 C538 1.356 . S
C542 C539 1.358 . S
C542 H598 0.930 . S
C543 N540 1.314 . S
C543 C541 1.353 . S
C543 H599 0.930 . S
C544 N545 1.314 . S
C544 C549 1.353 . S
C544 H550 0.930 . S
N545 Li528 1.990 . S
N545 C544 1.314 . S
N545 C547 1.279 . S
C546 C547 1.358 . S
C546 C548 1.356 . S
C546 H600 0.930 . S
C547 N545 1.279 . S
C547 C546 1.358 . S
C547 H551 0.930 . S
C548 C546 1.356 . S
C548 C549 1.348 . S
C549 C544 1.353 . S
C549 C548 1.348 . S
C549 H601 0.929 . S
H550 C544 0.930 . S
H551 C547 0.930 . S
C552 N553 1.314 . S
C552 C554 1.353 . S
C552 H558 0.930 . S
N553 Li529 1.990 . S
N553 C552 1.314 . S
N553 C556 1.279 . S
C554 C552 1.353 . S
C554 C557 1.348 . S
C554 H602 0.929 . S
C555 C556 1.358 . S
C555 C557 1.356 . S
C555 H603 0.930 . S
C556 N553 1.279 . S
C556 C555 1.358 . S
C556 H559 0.930 . S
C557 C554 1.348 . S
C557 C555 1.356 . S
H558 C552 0.930 . S
H559 C556 0.930 . S
C560 C562 1.348 . S
C560 C563 1.356 . S
C560 O590 1.325 . S
N561 C564 1.314 . S
N561 C565 1.279 . S
C562 C560 1.348 . S
C562 C564 1.353 . S
C562 H604 0.929 . S
C563 C560 1.356 . S
C563 C565 1.358 . S
C563 H605 0.930 . S
C564 N561 1.314 . S
C564 C562 1.353 . S
C564 H606 0.930 . S
C565 N561 1.279 . S
C565 C563 1.358 . S
C565 H607 0.930 . S
C566 C567 1.348 . S
C566 C568 1.356 . S
C566 O591 1.325 . S
C567 C566 1.348 . S
C567 C569 1.353 . S
C567 H608 0.929 . S
C568 C566 1.356 . S
C568 C570 1.358 . S
C568 H609 0.930 . S
C569 C567 1.353 . S
C569 N571 1.314 . S
C569 H610 0.930 . S
C570 C568 1.358 . S
C570 N571 1.279 . S
C570 H611 0.930 . S
N571 C569 1.314 . S
N571 C570 1.279 . S
C572 C574 1.353 . S
C572 N575 1.314 . S
C572 H578 0.930 . S
C573 N575 1.279 . S
C573 C576 1.358 . S
C573 H579 0.930 . S
C574 C572 1.353 . S
C574 C577 1.348 . S
C574 H612 0.929 . S
N575 Li530 1.990 . S
N575 C572 1.314 . S
N575 C573 1.279 . S
C576 C573 1.358 . S
C576 C577 1.356 . S
C576 H613 0.930 . S
C577 C574 1.348 . S
C577 C576 1.356 . S
H578 C572 0.930 . S
H579 C573 0.930 . S
C580 N581 1.314 . S
C580 C582 1.353 . S
C580 H586 0.930 . S
N581 Li531 1.990 . S
N581 C580 1.314 . S
N581 C584 1.279 . S
C582 C580 1.353 . S
C582 C585 1.348 . S
C582 H614 0.929 . S
C583 C584 1.358 . S
C583 C585 1.356 . S
C583 H615 0.930 . S
C584 N581 1.279 . S
C584 C583 1.358 . S
C584 H587 0.930 . S
C585 C582 1.348 . S
C585 C583 1.356 . S
H586 C580 0.930 . S
H587 C584 0.930 . S
O588 Li528 1.956 . S
O588 Li529 1.970 . S
O588 Li530 1.961 . S
O588 C532 1.325 . S
O589 Li528 1.970 . S
O589 Li529 1.956 . S
O589 Li531 1.961 . S
O589 C538 1.325 . S
O590 Li528 1.961 . S
O590 Li530 1.956 . S
O590 Li531 1.970 . S
O590 C560 1.325 . S
O591 Li529 1.961 . S
O591 Li530 1.970 . S
O591 Li531 1.956 . S
O591 C566 1.325 . S
H592 C534 0.929 . S
H593 C535 0.930 . S
H594 C536 0.930 . S
H595 C537 0.930 . S
H596 C539 0.930 . S
H597 C541 0.929 . S
H598 C542 0.930 . S
H599 C543 0.930 . S
H600 C546 0.930 . S
H601 C549 0.929 . S
H602 C554 0.929 . S
H603 C555 0.930 . S
H604 C562 0.929 . S
H605 C563 0.930 . S
H606 C564 0.930 . S
H607 C565 0.930 . S
H608 C567 0.929 . S
H609 C568 0.930 . S
H610 C569 0.930 . S
H611 C570 0.930 . S
H612 C574 0.929 . S
H613 C576 0.930 . S
H614 C582 0.929 . S
H615 C583 0.930 . S
Li616 N633 1.990 . S
Li616 O676 1.956 . S
Li616 O677 1.970 . S
Li616 O678 1.961 1_554 S
Li617 N641 1.990 . S
Li617 O676 1.970 . S
Li617 O677 1.956 . S
Li617 O679 1.961 . S
Li618 N663 1.990 . S
Li618 O676 1.961 . S
Li618 O678 1.956 1_554 S
Li618 O679 1.970 . S
Li619 N669 1.990 . S
Li619 O677 1.961 1_556 S
Li619 O678 1.970 . S
Li619 O679 1.956 1_556 S
C620 C622 1.348 . S
C620 C623 1.356 . S
C620 O676 1.325 . S
N621 C624 1.314 . S
N621 C625 1.279 . S
C622 C620 1.348 . S
C622 C624 1.353 . S
C622 H680 0.929 . S
C623 C620 1.356 . S
C623 C625 1.358 . S
C623 H681 0.930 . S
C624 N621 1.314 . S
C624 C622 1.353 . S
C624 H682 0.930 . S
C625 N621 1.279 . S
C625 C623 1.358 . S
C625 H683 0.930 . S
C626 C629 1.348 . S
C626 C630 1.356 . S
C626 O677 1.325 . S
C627 N628 1.279 . S
C627 C630 1.358 . S
C627 H684 0.931 . S
N628 C627 1.279 . S
N628 C631 1.314 . S
C629 C626 1.348 . S
C629 C631 1.353 . S
C629 H685 0.929 . S
C630 C626 1.356 . S
C630 C627 1.358 . S
C630 H686 0.930 . S
C631 N628 1.314 . S
C631 C629 1.353 . S
C631 H687 0.930 . S
C632 N633 1.314 1_556 S
C632 C637 1.353 . S
C632 H638 0.930 . S
N633 Li616 1.990 . S
N633 C632 1.314 1_554 S
N633 C635 1.279 . S
C634 C635 1.358 . S
C634 C636 1.356 1_554 S
C634 H688 0.930 . S
C635 N633 1.279 . S
C635 C634 1.358 . S
C635 H639 0.930 . S
C636 C634 1.356 1_556 S
C636 C637 1.348 . S
C637 C632 1.353 . S
C637 C636 1.348 . S
C637 H689 0.929 . S
H638 C632 0.930 . S
H639 C635 0.930 . S
C640 N641 1.314 . S
C640 C642 1.353 . S
C640 H646 0.930 . S
N641 Li617 1.990 . S
N641 C640 1.314 . S
N641 C644 1.279 . S
C642 C640 1.353 . S
C642 C645 1.348 . S
C642 H690 0.929 . S
C643 C644 1.358 . S
C643 C645 1.356 . S
C643 H691 0.930 . S
C644 N641 1.279 . S
C644 C643 1.358 . S
C644 H647 0.930 . S
C645 C642 1.348 . S
C645 C643 1.356 . S
H646 C640 0.930 . S
H647 C644 0.930 . S
C648 C650 1.348 . S
C648 C651 1.356 . S
C648 O678 1.325 . S
N649 C652 1.314 . S
N649 C653 1.279 . S
C650 C648 1.348 . S
C650 C652 1.353 . S
C650 H692 0.929 . S
C651 C648 1.356 . S
C651 C653 1.358 . S
C651 H693 0.930 . S
C652 N649 1.314 . S
C652 C650 1.353 . S
C652 H694 0.930 . S
C653 N649 1.279 . S
C653 C651 1.358 . S
C653 H695 0.930 . S
C654 C655 1.348 . S
C654 C656 1.356 . S
C654 O679 1.325 . S
C655 C654 1.348 . S
C655 C657 1.353 . S
C655 H696 0.929 . S
C656 C654 1.356 . S
C656 C658 1.358 . S
C656 H697 0.930 . S
C657 C655 1.353 . S
C657 N659 1.314 . S
C657 H698 0.930 . S
C658 C656 1.358 . S
C658 N659 1.279 . S
C658 H699 0.930 . S
N659 C657 1.314 . S
N659 C658 1.279 . S
C660 C662 1.353 . S
C660 N663 1.314 . S
C660 H666 0.930 . S
C661 N663 1.279 1_556 S
C661 C664 1.358 . S
C661 H667 0.930 . S
C662 C660 1.353 . S
C662 C665 1.348 . S
C662 H700 0.929 . S
N663 Li618 1.990 . S
N663 C660 1.314 . S
N663 C661 1.279 1_554 S
C664 C661 1.358 . S
C664 C665 1.356 1_556 S
C664 H701 0.930 . S
C665 C662 1.348 . S
C665 C664 1.356 1_554 S
H666 C660 0.930 . S
H667 C661 0.930 . S
C668 N669 1.314 . S
C668 C670 1.353 . S
C668 H674 0.930 . S
N669 Li619 1.990 . S
N669 C668 1.314 . S
N669 C672 1.279 . S
C670 C668 1.353 . S
C670 C673 1.348 . S
C670 H702 0.929 . S
C671 C672 1.358 . S
C671 C673 1.356 . S
C671 H703 0.930 . S
C672 N669 1.279 . S
C672 C671 1.358 . S
C672 H675 0.930 . S
C673 C670 1.348 . S
C673 C671 1.356 . S
H674 C668 0.930 . S
H675 C672 0.930 . S
O676 Li616 1.956 . S
O676 Li617 1.970 . S
O676 Li618 1.961 . S
O676 C620 1.325 . S
O677 Li616 1.970 . S
O677 Li617 1.956 . S
O677 Li619 1.961 1_554 S
O677 C626 1.325 . S
O678 Li616 1.961 1_556 S
O678 Li618 1.956 1_556 S
O678 Li619 1.970 . S
O678 C648 1.325 . S
O679 Li617 1.961 . S
O679 Li618 1.970 . S
O679 Li619 1.956 1_554 S
O679 C654 1.325 . S
H680 C622 0.929 . S
H681 C623 0.930 . S
H682 C624 0.930 . S
H683 C625 0.930 . S
H684 C627 0.931 . S
H685 C629 0.929 . S
H686 C630 0.930 . S
H687 C631 0.930 . S
H688 C634 0.930 . S
H689 C637 0.929 . S
H690 C642 0.929 . S
H691 C643 0.930 . S
H692 C650 0.929 . S
H693 C651 0.930 . S
H694 C652 0.930 . S
H695 C653 0.930 . S
H696 C655 0.929 . S
H697 C656 0.930 . S
H698 C657 0.930 . S
H699 C658 0.930 . S
H700 C662 0.929 . S
H701 C664 0.930 . S
H702 C670 0.929 . S
H703 C671 0.930 . S
H704 C710 0.930 . S
H705 C714 0.930 . S
H706 C719 0.929 . S
H707 C717 0.929 . S
H708 C712 0.929 . S
H709 C718 0.929 . S
C710 H704 0.930 . S
C710 C711 1.367 . S
C710 C718 1.378 . S
C711 C710 1.367 . S
C711 C719 1.433 . S
C712 H708 0.929 . S
C712 C714 1.378 . S
C712 C716 1.350 . S
C713 C716 1.463 . S
C713 C718 1.350 . S
C713 N721 1.427 . S
C714 H705 0.930 . S
C714 C712 1.378 . S
C714 C715 1.367 . S
C715 C714 1.367 . S
C715 C717 1.433 . S
C716 C712 1.350 . S
C716 C713 1.463 . S
C716 N720 1.427 . S
C717 H707 0.929 . S
C717 C715 1.433 . S
C717 N720 1.384 . S
C718 H709 0.929 . S
C718 C710 1.378 . S
C718 C713 1.350 . S
C719 H706 0.929 . S
C719 C711 1.433 . S
C719 N721 1.384 . S
N720 C716 1.427 . S
N720 C717 1.384 . S
N721 C713 1.427 . S
N721 C719 1.384 . S
H722 C728 0.930 . S
H723 C732 0.930 . S
H724 C737 0.929 . S
H725 C735 0.929 . S
H726 C730 0.929 . S
H727 C736 0.929 . S
C728 H722 0.930 . S
C728 C729 1.367 . S
C728 C736 1.378 . S
C729 C728 1.367 . S
C729 C737 1.433 . S
C730 H726 0.929 . S
C730 C732 1.378 . S
C730 C734 1.350 . S
C731 C734 1.463 . S
C731 C736 1.350 . S
C731 N739 1.427 . S
C732 H723 0.930 . S
C732 C730 1.378 . S
C732 C733 1.367 . S
C733 C732 1.367 . S
C733 C735 1.433 . S
C734 C730 1.350 . S
C734 C731 1.463 . S
C734 N738 1.427 . S
C735 H725 0.929 . S
C735 C733 1.433 . S
C735 N738 1.384 . S
C736 H727 0.929 . S
C736 C728 1.378 . S
C736 C731 1.350 . S
C737 H724 0.929 . S
C737 C729 1.433 . S
C737 N739 1.384 . S
N738 C734 1.427 . S
N738 C735 1.384 . S
N739 C731 1.427 . S
N739 C737 1.384 . S
H740 C746 0.930 . S
H741 C750 0.930 . S
H742 C755 0.929 . S
H743 C753 0.929 . S
H744 C748 0.929 . S
H745 C754 0.929 . S
C746 H740 0.930 . S
C746 C747 1.367 . S
C746 C754 1.378 . S
C747 C746 1.367 . S
C747 C755 1.433 . S
C748 H744 0.929 . S
C748 C750 1.378 1_554 S
C748 C752 1.350 . S
C749 C752 1.463 . S
C749 C754 1.350 . S
C749 N757 1.427 . S
C750 H741 0.930 . S
C750 C748 1.378 1_556 S
C750 C751 1.367 . S
C751 C750 1.367 . S
C751 C753 1.433 . S
C752 C748 1.350 . S
C752 C749 1.463 . S
C752 N756 1.427 1_554 S
C753 H743 0.929 . S
C753 C751 1.433 . S
C753 N756 1.384 . S
C754 H745 0.929 . S
C754 C746 1.378 . S
C754 C749 1.350 . S
C755 H742 0.929 . S
C755 C747 1.433 . S
C755 N757 1.384 . S
N756 C752 1.427 1_556 S
N756 C753 1.384 . S
N757 C749 1.427 . S
N757 C755 1.384 . S
H758 C764 0.930 . S
H759 C768 0.930 . S
H760 C773 0.929 . S
H761 C771 0.929 . S
H762 C766 0.929 . S
H763 C772 0.929 . S
C764 H758 0.930 . S
C764 C765 1.367 . S
C764 C772 1.378 . S
C765 C764 1.367 . S
C765 C773 1.433 . S
C766 H762 0.929 . S
C766 C768 1.378 . S
C766 C770 1.350 . S
C767 C770 1.463 . S
C767 C772 1.350 . S
C767 N775 1.427 . S
C768 H759 0.930 . S
C768 C766 1.378 . S
C768 C769 1.367 . S
C769 C768 1.367 . S
C769 C771 1.433 . S
C770 C766 1.350 . S
C770 C767 1.463 . S
C770 N774 1.427 . S
C771 H761 0.929 . S
C771 C769 1.433 . S
C771 N774 1.384 . S
C772 H763 0.929 . S
C772 C764 1.378 . S
C772 C767 1.350 . S
C773 H760 0.929 . S
C773 C765 1.433 . S
C773 N775 1.384 . S
N774 C770 1.427 . S
N774 C771 1.384 . S
N775 C767 1.427 . S
N775 C773 1.384 . S
H776 C782 0.930 . S
H777 C786 0.930 . S
H778 C791 0.929 . S
H779 C789 0.929 . S
H780 C784 0.929 . S
H781 C790 0.929 . S
C782 H776 0.930 . S
C782 C783 1.367 . S
C782 C790 1.378 . S
C783 C782 1.367 . S
C783 C791 1.433 . S
C784 H780 0.929 . S
C784 C786 1.378 . S
C784 C788 1.350 . S
C785 C788 1.463 . S
C785 C790 1.350 . S
C785 N793 1.427 . S
C786 H777 0.930 . S
C786 C784 1.378 . S
C786 C787 1.367 . S
C787 C786 1.367 . S
C787 C789 1.433 . S
C788 C784 1.350 . S
C788 C785 1.463 . S
C788 N792 1.427 . S
C789 H779 0.929 . S
C789 C787 1.433 . S
C789 N792 1.384 . S
C790 H781 0.929 . S
C790 C782 1.378 . S
C790 C785 1.350 . S
C791 H778 0.929 . S
C791 C783 1.433 . S
C791 N793 1.384 . S
N792 C788 1.427 . S
N792 C789 1.384 . S
N793 C785 1.427 . S
N793 C791 1.384 . S
H794 C800 0.930 . S
H795 C804 0.930 . S
H796 C809 0.929 . S
H797 C807 0.929 . S
H798 C802 0.929 . S
H799 C808 0.929 . S
C800 H794 0.930 . S
C800 C801 1.367 . S
C800 C808 1.378 . S
C801 C800 1.367 . S
C801 C809 1.433 . S
C802 H798 0.929 . S
C802 C804 1.378 . S
C802 C806 1.350 . S
C803 C806 1.463 . S
C803 C808 1.350 . S
C803 N811 1.427 . S
C804 H795 0.930 . S
C804 C802 1.378 . S
C804 C805 1.367 . S
C805 C804 1.367 . S
C805 C807 1.433 . S
C806 C802 1.350 . S
C806 C803 1.463 . S
C806 N810 1.427 . S
C807 H797 0.929 . S
C807 C805 1.433 . S
C807 N810 1.384 . S
C808 H799 0.929 . S
C808 C800 1.378 . S
C808 C803 1.350 . S
C809 H796 0.929 . S
C809 C801 1.433 . S
C809 N811 1.384 . S
N810 C806 1.427 . S
N810 C807 1.384 . S
N811 C803 1.427 . S
N811 C809 1.384 . S
H812 C818 0.930 . S
H813 C822 0.930 . S
H814 C827 0.912 1_554 S
H815 C825 0.929 . S
H816 C820 0.929 . S
H817 C826 0.929 . S
C818 H812 0.930 . S
C818 C819 1.367 . S
C818 C826 1.378 . S
C819 C818 1.367 . S
C819 C827 1.433 . S
C820 H816 0.929 . S
C820 C822 1.378 . S
C820 C824 1.350 . S
C821 C824 1.463 . S
C821 C826 1.350 . S
C821 N829 1.427 . S
C822 H813 0.930 . S
C822 C820 1.378 . S
C822 C823 1.367 . S
C823 C822 1.367 . S
C823 C825 1.433 . S
C824 C820 1.350 . S
C824 C821 1.463 . S
C824 N828 1.427 . S
C825 H815 0.929 . S
C825 C823 1.433 . S
C825 N828 1.384 . S
C826 H817 0.929 . S
C826 C818 1.378 . S
C826 C821 1.350 . S
C827 H814 0.912 1_556 S
C827 C819 1.433 . S
C827 N829 1.384 . S
N828 C824 1.427 . S
N828 C825 1.384 . S
N829 C821 1.427 . S
N829 C827 1.384 . S
H830 C836 0.930 . S
H831 C840 0.930 . S
H832 C845 0.929 . S
H833 C843 0.929 . S
H834 C838 0.929 . S
H835 C844 0.929 . S
C836 H830 0.930 . S
C836 C837 1.367 . S
C836 C844 1.378 . S
C837 C836 1.367 . S
C837 C845 1.433 . S
C838 H834 0.929 . S
C838 C840 1.378 . S
C838 C842 1.350 . S
C839 C842 1.463 . S
C839 C844 1.350 . S
C839 N847 1.427 . S
C840 H831 0.930 . S
C840 C838 1.378 . S
C840 C841 1.367 . S
C841 C840 1.367 . S
C841 C843 1.433 . S
C842 C838 1.350 . S
C842 C839 1.463 . S
C842 N846 1.427 . S
C843 H833 0.929 . S
C843 C841 1.433 . S
C843 N846 1.384 . S
C844 H835 0.929 . S
C844 C836 1.378 . S
C844 C839 1.350 . S
C845 H832 0.929 . S
C845 C837 1.433 . S
C845 N847 1.384 . S
N846 C842 1.427 . S
N846 C843 1.384 . S
N847 C839 1.427 . S
N847 C845 1.384 . S
H848 C854 0.930 . S
H849 C858 0.930 . S
H850 C863 0.929 . S
H851 C861 0.929 . S
H852 C856 0.929 . S
H853 C862 0.929 . S
C854 H848 0.930 . S
C854 C855 1.367 . S
C854 C862 1.378 . S
C855 C854 1.367 . S
C855 C863 1.433 . S
C856 H852 0.929 . S
C856 C858 1.378 . S
C856 C860 1.350 . S
C857 C860 1.463 1_565 S
C857 C862 1.350 . S
C857 N865 1.427 . S
C858 H849 0.930 . S
C858 C856 1.378 . S
C858 C859 1.367 . S
C859 C858 1.367 . S
C859 C861 1.433 . S
C860 C856 1.350 . S
C860 C857 1.463 1_545 S
C860 N864 1.427 . S
C861 H851 0.929 . S
C861 C859 1.433 . S
C861 N864 1.384 . S
C862 H853 0.929 . S
C862 C854 1.378 . S
C862 C857 1.350 . S
C863 H850 0.929 . S
C863 C855 1.433 . S
C863 N865 1.384 . S
N864 C860 1.427 . S
N864 C861 1.384 . S
N865 C857 1.427 . S
N865 C863 1.384 . S
H866 C872 0.930 . S
H867 C876 0.930 . S
H868 C881 0.929 . S
H869 C879 0.929 . S
H870 C874 0.929 . S
H871 C880 0.929 . S
C872 H866 0.930 . S
C872 C873 1.367 . S
C872 C880 1.378 . S
C873 C872 1.367 . S
C873 C881 1.433 . S
C874 H870 0.929 . S
C874 C876 1.378 . S
C874 C878 1.350 . S
C875 C878 1.463 1_655 S
C875 C880 1.350 . S
C875 N883 1.427 . S
C876 H867 0.930 . S
C876 C874 1.378 . S
C876 C877 1.367 . S
C877 C876 1.367 . S
C877 C879 1.433 . S
C878 C874 1.350 . S
C878 C875 1.463 1_455 S
C878 N882 1.427 . S
C879 H869 0.929 . S
C879 C877 1.433 . S
C879 N882 1.384 . S
C880 H871 0.929 . S
C880 C872 1.378 . S
C880 C875 1.350 . S
C881 H868 0.929 . S
C881 C873 1.433 . S
C881 N883 1.384 . S
N882 C878 1.427 . S
N882 C879 1.384 . S
N883 C875 1.427 . S
N883 C881 1.384 . S
H884 C890 0.930 . S
H885 C894 0.930 . S
H886 C899 0.929 . S
H887 C897 0.929 . S
H888 C892 0.929 . S
H889 C898 0.929 . S
C890 H884 0.930 . S
C890 C891 1.367 . S
C890 C898 1.378 . S
C891 C890 1.367 . S
C891 C899 1.433 . S
C892 H888 0.929 . S
C892 C894 1.378 . S
C892 C896 1.350 . S
C893 C896 1.463 1_565 S
C893 C898 1.350 . S
C893 N901 1.427 . S
C894 H885 0.930 . S
C894 C892 1.378 . S
C894 C895 1.367 . S
C895 C894 1.367 . S
C895 C897 1.433 . S
C896 C892 1.350 . S
C896 C893 1.463 1_545 S
C896 N900 1.427 . S
C897 H887 0.929 . S
C897 C895 1.433 . S
C897 N900 1.384 . S
C898 H889 0.929 . S
C898 C890 1.378 . S
C898 C893 1.350 . S
C899 H886 0.929 . S
C899 C891 1.433 . S
C899 N901 1.384 . S
N900 C896 1.427 . S
N900 C897 1.384 . S
N901 C893 1.427 . S
N901 C899 1.384 . S
H902 C908 0.930 . S
H903 C912 0.930 . S
H904 C917 0.929 . S
H905 C915 0.929 . S
H906 C910 0.929 . S
H907 C916 0.929 . S
C908 H902 0.930 . S
C908 C909 1.367 . S
C908 C916 1.378 . S
C909 C908 1.367 . S
C909 C917 1.433 . S
C910 H906 0.929 . S
C910 C912 1.378 . S
C910 C914 1.350 . S
C911 C914 1.463 1_655 S
C911 C916 1.350 . S
C911 N919 1.427 . S
C912 H903 0.930 . S
C912 C910 1.378 . S
C912 C913 1.367 . S
C913 C912 1.367 . S
C913 C915 1.433 . S
C914 C910 1.350 . S
C914 C911 1.463 1_455 S
C914 N918 1.427 . S
C915 H905 0.929 . S
C915 C913 1.433 . S
C915 N918 1.384 . S
C916 H907 0.929 . S
C916 C908 1.378 . S
C916 C911 1.350 . S
C917 H904 0.929 . S
C917 C909 1.433 . S
C917 N919 1.384 . S
N918 C914 1.427 . S
N918 C915 1.384 . S
N919 C911 1.427 . S
N919 C917 1.384 . S
H920 C926 0.930 . S
H921 C930 0.930 . S
H922 C935 0.929 . S
H923 C933 0.929 . S
H924 C928 0.929 . S
H925 C934 0.925 1_554 S
C926 H920 0.930 . S
C926 C927 1.367 . S
C926 C934 1.383 . S
C927 C926 1.367 . S
C927 C935 1.433 . S
C928 H924 0.929 . S
C928 C930 1.378 . S
C928 C932 1.350 . S
C929 C932 1.463 . S
C929 C934 1.348 1_554 S
C929 N937 1.427 1_554 S
C930 H921 0.930 . S
C930 C928 1.378 . S
C930 C931 1.367 . S
C931 C930 1.367 . S
C931 C933 1.433 . S
C932 C928 1.350 . S
C932 C929 1.463 . S
C932 N936 1.427 . S
C933 H923 0.929 . S
C933 C931 1.433 . S
C933 N936 1.384 . S
C934 H925 0.925 1_556 S
C934 C926 1.383 . S
C934 C929 1.348 1_556 S
C935 H922 0.929 . S
C935 C927 1.433 . S
C935 N937 1.384 . S
N936 C932 1.427 . S
N936 C933 1.384 . S
N937 C929 1.427 1_556 S
N937 C935 1.384 . S
H938 C944 0.930 . S
H939 C948 0.930 . S
H940 C953 0.929 . S
H941 C951 0.929 . S
H942 C946 0.929 . S
H943 C952 0.929 . S
C944 H938 0.930 . S
C944 C945 1.367 . S
C944 C952 1.378 . S
C945 C944 1.367 . S
C945 C953 1.433 . S
C946 H942 0.929 . S
C946 C948 1.378 . S
C946 C950 1.350 . S
C947 C950 1.463 . S
C947 C952 1.350 . S
C947 N955 1.427 . S
C948 H939 0.930 . S
C948 C946 1.378 . S
C948 C949 1.367 . S
C949 C948 1.367 . S
C949 C951 1.433 . S
C950 C946 1.350 . S
C950 C947 1.463 . S
C950 N954 1.427 . S
C951 H941 0.929 . S
C951 C949 1.433 . S
C951 N954 1.384 . S
C952 H943 0.929 . S
C952 C944 1.378 . S
C952 C947 1.350 . S
C953 H940 0.929 . S
C953 C945 1.433 . S
C953 N955 1.384 . S
N954 C950 1.427 . S
N954 C951 1.384 . S
N955 C947 1.427 . S
N955 C953 1.384 . S
H956 C962 0.930 . S
H957 C966 0.930 . S
H958 C971 0.929 . S
H959 C969 0.929 . S
H960 C964 0.929 . S
H961 C970 0.929 . S
C962 H956 0.930 . S
C962 C963 1.367 . S
C962 C970 1.378 . S
C963 C962 1.367 . S
C963 C971 1.433 . S
C964 H960 0.929 . S
C964 C966 1.378 . S
C964 C968 1.350 . S
C965 C968 1.463 . S
C965 C970 1.350 . S
C965 N973 1.427 . S
C966 H957 0.930 . S
C966 C964 1.378 . S
C966 C967 1.367 . S
C967 C966 1.367 . S
C967 C969 1.433 . S
C968 C964 1.350 . S
C968 C965 1.463 . S
C968 N972 1.427 . S
C969 H959 0.929 . S
C969 C967 1.433 . S
C969 N972 1.384 . S
C970 H961 0.929 . S
C970 C962 1.378 . S
C970 C965 1.350 . S
C971 H958 0.929 . S
C971 C963 1.433 . S
C971 N973 1.384 . S
N972 C968 1.427 . S
N972 C969 1.384 . S
N973 C965 1.427 . S
N973 C971 1.384 . S
H974 C980 0.930 . S
H975 C984 0.930 . S
H976 C989 0.929 . S
H977 C987 0.929 . S
H978 C982 0.929 . S
H979 C988 0.929 . S
C980 H974 0.930 . S
C980 C981 1.367 . S
C980 C988 1.378 . S
C981 C980 1.367 . S
C981 C989 1.433 . S
C982 H978 0.929 . S
C982 C984 1.378 . S
C982 C986 1.350 . S
C983 C986 1.463 . S
C983 C988 1.350 . S
C983 N991 1.427 . S
C984 H975 0.930 . S
C984 C982 1.378 . S
C984 C985 1.367 . S
C985 C984 1.367 . S
C985 C987 1.433 . S
C986 C982 1.350 . S
C986 C983 1.463 . S
C986 N990 1.427 . S
C987 H977 0.929 . S
C987 C985 1.433 . S
C987 N990 1.384 . S
C988 H979 0.929 . S
C988 C980 1.378 . S
C988 C983 1.350 . S
C989 H976 0.929 . S
C989 C981 1.433 . S
C989 N991 1.384 . S
N990 C986 1.427 . S
N990 C987 1.384 . S
N991 C983 1.427 . S
N991 C989 1.384 . S
C711 C29 0.847 . S
C715 C585 0.850 . S
C729 C108 0.851 . S
C733 C673 0.845 . S
C747 C401 0.846 . S
C751 C196 0.849 . S
C765 C489 0.849 . S
C769 C293 0.847 . S
C783 C49 1.366 . S
C787 C469 1.369 . S
C801 C145 1.374 . S
C805 C548 1.372 . S
C819 C636 1.359 . S
C823 C233 1.361 . S
C837 C313 1.375 . S
C841 C381 1.373 . S
C855 C409 1.352 . S
C859 C20 1.344 . S
C873 C117 1.352 . S
C877 C497 1.346 . S
C891 C205 1.346 . S
C895 C577 1.352 . S
C909 C665 1.353 . S
C913 C284 1.345 . S
C927 C557 1.725 . S
C931 C57 1.720 . S
C945 C645 1.727 . S
C949 C137 1.722 . S
C963 C225 1.726 . S
C967 C372 1.721 . S
C981 C321 1.721 . S
C985 C460 1.726 . S
