# Generated by pormake.
# Topology lig, (3)-cn, num edge types: 1
# Building blocks:
#     Node 0, Type 0, BuildingBlock: WUSLED_clean_sbu_0, # of connection points: 3
#     Node 1, Type 0, BuildingBlock: WUSLED_clean_sbu_0, # of connection points: 3
#     Node 2, Type 0, BuildingBlock: WUSLED_clean_sbu_0, # of connection points: 3
#     Node 3, Type 0, BuildingBlock: WUSLED_clean_sbu_0, # of connection points: 3
#     Node 4, Type 0, BuildingBlock: WUSLED_clean_sbu_0, # of connection points: 3
#     Node 5, Type 0, BuildingBlock: WUSLED_clean_sbu_0, # of connection points: 3
#     Node 6, Type 0, BuildingBlock: WUSLED_clean_sbu_0, # of connection points: 3
#     Node 7, Type 0, BuildingBlock: WUSLED_clean_sbu_0, # of connection points: 3
#     Node 8, Type 0, BuildingBlock: WUSLED_clean_sbu_0, # of connection points: 3
#     Node 9, Type 0, BuildingBlock: WUSLED_clean_sbu_0, # of connection points: 3
#     Node 10, Type 0, BuildingBlock: WUSLED_clean_sbu_0, # of connection points: 3
#     Node 11, Type 0, BuildingBlock: WUSLED_clean_sbu_0, # of connection points: 3
#     Node 12, Type 0, BuildingBlock: WUSLED_clean_sbu_0, # of connection points: 3
#     Node 13, Type 0, BuildingBlock: WUSLED_clean_sbu_0, # of connection points: 3
#     Node 14, Type 0, BuildingBlock: WUSLED_clean_sbu_0, # of connection points: 3
#     Node 15, Type 0, BuildingBlock: WUSLED_clean_sbu_0, # of connection points: 3
#     Edge 16, Type (0, 0), BuildingBlock: AJUNOK_clean_linker_0, # of connection points: 2
#     Edge 17, Type (0, 0), BuildingBlock: AJUNOK_clean_linker_0, # of connection points: 2
#     Edge 18, Type (0, 0), BuildingBlock: AJUNOK_clean_linker_0, # of connection points: 2
#     Edge 19, Type (0, 0), BuildingBlock: AJUNOK_clean_linker_0, # of connection points: 2
#     Edge 20, Type (0, 0), BuildingBlock: AJUNOK_clean_linker_0, # of connection points: 2
#     Edge 21, Type (0, 0), BuildingBlock: AJUNOK_clean_linker_0, # of connection points: 2
#     Edge 22, Type (0, 0), BuildingBlock: AJUNOK_clean_linker_0, # of connection points: 2
#     Edge 23, Type (0, 0), BuildingBlock: AJUNOK_clean_linker_0, # of connection points: 2
#     Edge 24, Type (0, 0), BuildingBlock: AJUNOK_clean_linker_0, # of connection points: 2
#     Edge 25, Type (0, 0), BuildingBlock: AJUNOK_clean_linker_0, # of connection points: 2
#     Edge 26, Type (0, 0), BuildingBlock: AJUNOK_clean_linker_0, # of connection points: 2
#     Edge 27, Type (0, 0), BuildingBlock: AJUNOK_clean_linker_0, # of connection points: 2
#     Edge 28, Type (0, 0), BuildingBlock: AJUNOK_clean_linker_0, # of connection points: 2
#     Edge 29, Type (0, 0), BuildingBlock: AJUNOK_clean_linker_0, # of connection points: 2
#     Edge 30, Type (0, 0), BuildingBlock: AJUNOK_clean_linker_0, # of connection points: 2
#     Edge 31, Type (0, 0), BuildingBlock: AJUNOK_clean_linker_0, # of connection points: 2
#     Edge 32, Type (0, 0), BuildingBlock: AJUNOK_clean_linker_0, # of connection points: 2
#     Edge 33, Type (0, 0), BuildingBlock: AJUNOK_clean_linker_0, # of connection points: 2
#     Edge 34, Type (0, 0), BuildingBlock: AJUNOK_clean_linker_0, # of connection points: 2
#     Edge 35, Type (0, 0), BuildingBlock: AJUNOK_clean_linker_0, # of connection points: 2
#     Edge 36, Type (0, 0), BuildingBlock: AJUNOK_clean_linker_0, # of connection points: 2
#     Edge 37, Type (0, 0), BuildingBlock: AJUNOK_clean_linker_0, # of connection points: 2
#     Edge 38, Type (0, 0), BuildingBlock: AJUNOK_clean_linker_0, # of connection points: 2
#     Edge 39, Type (0, 0), BuildingBlock: AJUNOK_clean_linker_0, # of connection points: 2
# Relax obj value: 0.000
# Max RMSD: 0.008
# Mean RMSD: 0.005
data_MOF--net-lig--node1-WUSLED_clean_sbu_0--edge1-AJUNOK_clean_linker_0
_symmetry_space_group_name_H-M    P1
_symmetry_Int_Tables_number       1
_symmetry_cell_setting            triclinic
loop_
_symmetry_equiv_pos_as_xyz
'x, y, z'
_cell_length_a     75.922311
_cell_length_b     76.765683
_cell_length_c     54.279737
_cell_angle_alpha  88.379479
_cell_angle_beta   89.969915
_cell_angle_gamma 91.330133
loop_
_atom_site_label
_atom_site_type_symbol
_atom_site_fract_x
_atom_site_fract_y
_atom_site_fract_z
_atom_type_partial_charge
C0 C 0.09314 1.01761 0.04483 0.0
C1 C 0.08449 0.03339 0.04831 0.0
C2 C 0.05597 1.01949 0.03955 0.0
C3 C 0.06613 0.03431 0.04569 0.0
C4 C 0.06469 1.00384 0.03558 0.0
C5 C 0.083 1.00291 0.03823 0.0
U6 U 0.1436 0.02554 0.03391 0.0
O7 O 0.16446 0.02987 0.0615 0.0
O8 O 0.16508 1.00691 0.03842 0.0
C9 C 0.17213 1.01509 0.05711 0.0
C10 C 0.1122 1.01565 0.05048 0.0
C11 C 0.17766 1.00432 0.07893 0.0
C12 C 0.18428 0.9761 0.09829 0.0
C13 C 0.17704 0.98597 0.0788 0.0
C14 C 0.19256 1.00262 0.11877 0.0
C15 C 0.19245 0.9843 0.11828 0.0
C16 C 0.18536 1.01248 0.09929 0.0
C17 C 0.15982 0.05501 0.97818 0.0
C18 C 0.18413 0.05461 0.94872 0.0
C19 C 0.16994 0.08175 0.95674 0.0
C20 C 0.15864 0.07305 0.97363 0.0
C21 C 0.18273 0.07265 0.94388 0.0
C22 C 0.17281 0.04588 0.96568 0.0
C23 C 0.14638 0.04601 0.99424 0.0
O24 O 0.12142 1.00644 0.03524 0.0
O25 O 0.12095 0.02939 0.05835 0.0
O26 O 0.14454 0.05191 1.01658 0.0
O27 O 0.14515 0.02891 0.99354 0.0
H28 H 0.0918 0.04494 0.05374 0.0
H29 H 0.05984 0.04648 0.04938 0.0
H30 H 0.05729 0.9922 0.03074 0.0
H31 H 0.0892 0.99052 0.03572 0.0
H32 H 0.18399 0.96202 0.09732 0.0
H33 H 0.17138 0.97919 0.06336 0.0
H34 H 0.19838 1.00936 0.13413 0.0
H35 H 0.18619 0.02657 0.09991 0.0
H36 H 0.19361 0.04713 0.93883 0.0
H37 H 0.16856 0.09565 0.95358 0.0
H38 H 0.14867 0.08039 0.98281 0.0
H39 H 0.17399 0.03194 0.96857 0.0
C40 C 0.27265 0.85047 0.29887 0.0
C41 C 0.27972 0.84298 0.27776 0.0
C42 C 0.26974 0.81393 0.29216 0.0
C43 C 0.27822 0.82493 0.27442 0.0
C44 C 0.26225 0.82153 0.31287 0.0
C45 C 0.26378 0.83953 0.31623 0.0
U46 U 0.26813 0.90052 0.28663 0.0
O47 O 0.26338 0.92098 0.31349 0.0
O48 O 0.28784 0.92158 0.29191 0.0
C49 C 0.27886 0.9286 0.30967 0.0
C50 C 0.27558 0.86923 0.30431 0.0
C51 C 0.28876 0.93422 0.33181 0.0
C52 C 0.31546 0.93556 0.35683 0.0
C53 C 0.30589 0.92859 0.33711 0.0
C54 C 0.29082 0.95356 0.36662 0.0
C55 C 0.30813 0.94835 0.37161 0.0
C56 C 0.28131 0.94663 0.34694 0.0
C57 C 0.24209 0.91767 0.22917 0.0
C58 C 0.21745 0.93568 0.21614 0.0
C59 C 0.24338 0.93464 0.19042 0.0
C60 C 0.25109 0.9231 0.20751 0.0
C61 C 0.22643 0.94103 0.19446 0.0
C62 C 0.22516 0.92415 0.23327 0.0
C63 C 0.24953 0.90391 0.24584 0.0
O64 O 0.28614 0.87848 0.28954 0.0
O65 O 0.26174 0.87785 0.31122 0.0
O66 O 0.24244 0.90174 0.26786 0.0
O67 O 0.26676 0.90247 0.24608 0.0
H68 H 0.28673 0.85097 0.26404 0.0
H69 H 0.28413 0.81951 0.25826 0.0
H70 H 0.25526 0.81353 0.32661 0.0
H71 H 0.25825 0.84489 0.33272 0.0
H72 H 0.32861 0.93098 0.36047 0.0
H73 H 0.31202 0.91901 0.32583 0.0
H74 H 0.28479 0.96341 0.37754 0.0
H75 H 0.2682 0.95131 0.34317 0.0
H76 H 0.20437 0.94033 0.21979 0.0
H77 H 0.2505 0.93813 0.17364 0.0
H78 H 0.26395 0.91809 0.2034 0.0
H79 H 0.21767 0.92004 0.24948 0.0
C80 C 0.35977 1.00359 0.49028 0.0
C81 C 0.36029 1.01022 0.46582 0.0
C82 C 0.34545 0.98389 0.45111 0.0
C83 C 0.35323 1.00049 0.44651 0.0
C84 C 0.34518 0.97717 0.47549 0.0
C85 C 0.35221 0.98689 0.4948 0.0
U86 U 0.3937 0.02601 0.53404 0.0
O87 O 0.39291 0.05226 0.5496 0.0
O88 O 0.39208 0.02909 0.57419 0.0
C89 C 0.39095 0.04615 0.57234 0.0
C90 C 0.36518 1.01456 0.51136 0.0
C91 C 0.37753 0.05454 0.58782 0.0
C92 C 0.35432 0.05296 0.61906 0.0
C93 C 0.36547 0.04472 0.60259 0.0
C94 C 0.36676 0.081 0.60605 0.0
C95 C 0.35491 0.07121 0.62114 0.0
C96 C 0.37791 0.07278 0.58964 0.0
C97 C 0.4442 1.01943 0.52349 0.0
C98 C 0.47227 0.03511 0.5168 0.0
C99 C 0.47188 1.00658 0.53682 0.0
C100 C 0.45348 1.00569 0.53475 0.0
C101 C 0.48155 0.0212 0.52762 0.0
C102 C 0.45384 0.03423 0.51472 0.0
C103 C 0.42501 1.01716 0.51823 0.0
O104 O 0.37206 1.00653 0.53066 0.0
O105 O 0.37296 0.02971 0.50614 0.0
O106 O 0.41656 0.03077 0.50952 0.0
O107 O 0.41559 1.00762 0.5341 0.0
H108 H 0.36569 0.02314 0.46161 0.0
H109 H 0.35329 1.00628 0.42808 0.0
H110 H 0.33929 0.96445 0.4797 0.0
H111 H 0.35132 0.98149 0.51343 0.0
H112 H 0.34564 0.04496 0.63075 0.0
H113 H 0.36494 0.03063 0.60193 0.0
H114 H 0.36754 0.09507 0.60712 0.0
H115 H 0.38718 0.08069 0.57874 0.0
H116 H 0.4793 0.04642 0.50904 0.0
H117 H 0.47859 0.99565 0.5453 0.0
H118 H 0.44656 0.99397 0.54133 0.0
H119 H 0.44724 0.04493 0.50551 0.0
C120 C 0.2779 0.20214 0.76946 0.0
C121 C 0.26125 0.20823 0.77602 0.0
C122 C 0.27314 0.23805 0.77807 0.0
C123 C 0.2589 0.226 0.78021 0.0
C124 C 0.28978 0.23185 0.77172 0.0
C125 C 0.29212 0.21413 0.76748 0.0
U126 U 0.27189 0.15207 0.77995 0.0
O127 O 0.26799 0.13164 0.7526 0.0
O128 O 0.29147 0.13153 0.77609 0.0
C129 C 0.28321 0.12445 0.75744 0.0
C130 C 0.2807 0.18367 0.76338 0.0
C131 C 0.2942 0.11929 0.73616 0.0
C132 C 0.29717 0.11238 0.69267 0.0
C133 C 0.2875 0.11936 0.71196 0.0
C134 C 0.32061 0.10539 0.72113 0.0
C135 C 0.31373 0.10502 0.6971 0.0
C136 C 0.31095 0.11233 0.7404 0.0
C137 C 0.24361 0.13446 0.83602 0.0
C138 C 0.22015 0.11293 0.84518 0.0
C139 C 0.24004 0.12174 0.87753 0.0
C140 C 0.24901 0.13298 0.86076 0.0
C141 C 0.22537 0.1117 0.87003 0.0
C142 C 0.22915 0.12415 0.82836 0.0
C143 C 0.25191 0.14816 0.81954 0.0
O144 O 0.29051 0.17461 0.77878 0.0
O145 O 0.26699 0.17473 0.75535 0.0
O146 O 0.24559 0.15006 0.79709 0.0
O147 O 0.26916 0.14991 0.82041 0.0
H148 H 0.25001 0.19932 0.77758 0.0
H149 H 0.24583 0.23035 0.7846 0.0
H150 H 0.30105 0.24072 0.77005 0.0
H151 H 0.30506 0.20979 0.76237 0.0
H152 H 0.29162 0.11264 0.6743 0.0
H153 H 0.2746 0.12446 0.70795 0.0
H154 H 0.33328 0.09978 0.72522 0.0
H155 H 0.31641 0.11179 0.75884 0.0
H156 H 0.2089 0.10537 0.83881 0.0
H157 H 0.24419 0.12144 0.89662 0.0
H158 H 0.25987 0.14097 0.86736 0.0
H159 H 0.22447 0.12505 0.80954 0.0
C160 C 0.8562 1.0064 0.07827 0.0
C161 C 0.86317 0.99006 0.08467 0.0
C162 C 0.84163 0.98597 0.11796 0.0
C163 C 0.85597 0.97997 0.10435 0.0
C164 C 0.83515 1.00258 0.11203 0.0
C165 C 0.84231 1.01262 0.09237 0.0
U166 U 0.8913 0.0265 0.03264 0.0
O167 O 0.88991 0.02858 0.99204 0.0
O168 O 0.89157 0.05225 1.01371 0.0
C169 C 0.8894 0.04569 0.99176 0.0
C170 C 0.8622 1.01668 0.05615 0.0
C171 C 0.87617 0.0539 0.97519 0.0
C172 C 0.85324 0.07505 0.96691 0.0
C173 C 0.86429 0.06625 0.98356 0.0
C174 C 0.86538 0.05909 0.93334 0.0
C175 C 0.85372 0.07167 0.94156 0.0
C176 C 0.87645 0.05034 0.94994 0.0
C177 C 0.94139 1.01871 0.04414 0.0
C178 C 0.96942 0.03501 0.04525 0.0
C179 C 0.96902 1.00455 0.03504 0.0
C180 C 0.95065 1.00388 0.03755 0.0
C181 C 0.97869 1.02005 0.03913 0.0
C182 C 0.951 0.03435 0.04774 0.0
C183 C 0.92221 1.01702 0.0498 0.0
O184 O 0.8706 0.03152 0.06001 0.0
O185 O 0.86898 1.00799 0.03803 0.0
O186 O 0.91253 1.00738 0.03513 0.0
O187 O 0.91415 0.03105 0.05679 0.0
H188 H 0.87391 0.98492 0.07416 0.0
H189 H 0.86129 0.96725 0.10846 0.0
H190 H 0.82443 1.00779 0.1225 0.0
H191 H 0.83674 0.02519 0.08787 0.0
H192 H 0.8444 0.08466 0.97383 0.0
H193 H 0.86377 0.06937 1.00287 0.0
H194 H 0.8664 0.05643 0.91391 0.0
H195 H 0.88563 0.04108 0.94291 0.0
H196 H 0.97644 0.04707 0.04904 0.0
H197 H 0.97572 0.99281 0.03023 0.0
H198 H 0.94371 0.99158 0.03497 0.0
H199 H 0.94439 0.04598 0.0532 0.0
C200 C 0.76316 0.20087 0.7659 0.0
C201 C 0.76211 0.20712 0.78995 0.0
C202 C 0.7669 0.2371 0.77444 0.0
C203 C 0.76389 0.22504 0.79415 0.0
C204 C 0.76804 0.23074 0.75045 0.0
C205 C 0.76619 0.21286 0.74626 0.0
U206 U 0.76953 0.15136 0.77836 0.0
O207 O 0.75052 0.12951 0.77452 0.0
O208 O 0.77435 0.13086 0.75162 0.0
C209 C 0.75932 0.12263 0.75648 0.0
C210 C 0.76046 0.18215 0.76053 0.0
C211 C 0.74898 0.11667 0.73503 0.0
C212 C 0.72429 0.11905 0.70649 0.0
C213 C 0.73438 0.12575 0.7259 0.0
C214 C 0.74338 0.09432 0.70483 0.0
C215 C 0.72862 0.10318 0.69578 0.0
C216 C 0.75343 0.101 0.72418 0.0
C217 C 0.79822 0.13643 0.83444 0.0
C218 C 0.79755 0.11082 0.86217 0.0
C219 C 0.82434 0.1283 0.85778 0.0
C220 C 0.81593 0.13939 0.84083 0.0
C221 C 0.81526 0.11394 0.86882 0.0
C222 C 0.78911 0.12194 0.84514 0.0
C223 C 0.78947 0.14938 0.81801 0.0
O224 O 0.77437 0.17393 0.75295 0.0
O225 O 0.75067 0.17272 0.77611 0.0
O226 O 0.77217 0.14985 0.81877 0.0
O227 O 0.79586 0.15144 0.79558 0.0
H228 H 0.7597 0.1982 0.80547 0.0
H229 H 0.76257 0.22949 0.81281 0.0
H230 H 0.77042 0.23961 0.73487 0.0
H231 H 0.767 0.20839 0.72754 0.0
H232 H 0.71283 0.12608 0.70028 0.0
H233 H 0.73063 0.13785 0.73402 0.0
H234 H 0.74717 0.08214 0.69695 0.0
H235 H 0.7646 0.09375 0.73092 0.0
H236 H 0.79006 0.10006 0.87062 0.0
H237 H 0.838 0.13103 0.86234 0.0
H238 H 0.82323 0.15051 0.83299 0.0
H239 H 0.77541 0.11937 0.84071 0.0
C240 C 0.596 1.01866 0.51984 0.0
C241 C 0.587 0.03355 0.51152 0.0
C242 C 0.55884 0.02068 0.52542 0.0
C243 C 0.56867 0.03455 0.5143 0.0
C244 C 0.56787 1.00592 0.53402 0.0
C245 C 0.58617 1.00491 0.53123 0.0
U246 U 0.64623 0.02626 0.53155 0.0
O247 O 0.66778 1.00767 0.52892 0.0
O248 O 0.66769 0.03096 0.50457 0.0
C249 C 0.67553 1.01636 0.51056 0.0
C250 C 0.61511 1.01656 0.51455 0.0
C251 C 0.68218 1.00604 0.49003 0.0
C252 C 0.67889 0.98357 0.45934 0.0
C253 C 0.67167 0.99358 0.47801 0.0
C254 C 0.70702 0.99853 0.46433 0.0
C255 C 0.69676 0.98575 0.45257 0.0
C256 C 0.69982 1.00851 0.48284 0.0
C257 C 0.6612 0.05505 0.58611 0.0
C258 C 0.68837 0.05521 0.61008 0.0
C259 C 0.66882 0.07959 0.61193 0.0
C260 C 0.65737 0.07143 0.59538 0.0
C261 C 0.68444 0.07156 0.61961 0.0
C262 C 0.6769 0.04706 0.59343 0.0
C263 C 0.64805 0.04633 0.57012 0.0
O264 O 0.62404 0.03034 0.50605 0.0
O265 O 0.62413 1.00713 0.5305 0.0
O266 O 0.64692 0.02922 0.57177 0.0
O267 O 0.64679 0.05247 0.54736 0.0
H268 H 0.59402 0.04429 0.50224 0.0
H269 H 0.56213 0.04595 0.50694 0.0
H270 H 0.56072 0.99501 0.5427 0.0
H271 H 0.59259 0.99313 0.53751 0.0
H272 H 0.67063 0.97388 0.45054 0.0
H273 H 0.658 0.99149 0.48323 0.0
H274 H 0.72067 1.00086 0.45917 0.0
H275 H 0.70814 1.01811 0.49174 0.0
H276 H 0.70031 0.0487 0.61558 0.0
H277 H 0.66518 0.09197 0.61927 0.0
H278 H 0.64528 0.07779 0.5902 0.0
H279 H 0.68019 0.03442 0.58658 0.0
C280 C 0.76191 0.85057 0.30083 0.0
C281 C 0.75973 0.8443 0.27689 0.0
C282 C 0.76475 0.81448 0.29187 0.0
C283 C 0.76113 0.82645 0.27247 0.0
C284 C 0.76734 0.82088 0.31565 0.0
C285 C 0.76587 0.83869 0.32007 0.0
U286 U 0.76785 0.90038 0.28816 0.0
O287 O 0.7489 0.9213 0.29335 0.0
O288 O 0.77358 0.92122 0.31436 0.0
C289 C 0.75831 0.92862 0.31075 0.0
C290 C 0.75941 0.86916 0.30652 0.0
C291 C 0.74892 0.9344 0.33305 0.0
C292 C 0.72241 0.93668 0.35822 0.0
C293 C 0.73123 0.92966 0.33812 0.0
C294 C 0.7488 0.95311 0.36861 0.0
C295 C 0.7311 0.94851 0.37372 0.0
C296 C 0.75756 0.94615 0.34858 0.0
C297 C 0.79467 0.91643 0.23028 0.0
C298 C 0.7953 0.94505 0.20961 0.0
C299 C 0.81701 0.92385 0.19925 0.0
C300 C 0.80944 0.91198 0.21647 0.0
C301 C 0.80991 0.94045 0.19533 0.0
C302 C 0.78773 0.93314 0.22692 0.0
C303 C 0.78654 0.90311 0.24725 0.0
O304 O 0.77355 0.87803 0.31318 0.0
O305 O 0.74909 0.87814 0.29172 0.0
O306 O 0.76923 0.90198 0.24763 0.0
O307 O 0.7936 0.90154 0.26926 0.0
H308 H 0.75678 0.85315 0.26163 0.0
H309 H 0.75943 0.82201 0.25384 0.0
H310 H 0.77013 0.81204 0.33099 0.0
H311 H 0.76759 0.84317 0.33869 0.0
H312 H 0.70878 0.93289 0.36163 0.0
H313 H 0.72412 0.92074 0.3264 0.0
H314 H 0.75578 0.9625 0.37975 0.0
H315 H 0.77108 0.95028 0.34489 0.0
H316 H 0.78972 0.95785 0.2074 0.0
H317 H 0.82818 0.91986 0.18854 0.0
H318 H 0.815 0.89916 0.21873 0.0
H319 H 0.7764 0.93692 0.23748 0.0
C320 C 0.59398 0.51929 0.5462 0.0
C321 C 0.58561 0.5147 0.52409 0.0
C322 C 0.55692 0.52192 0.54097 0.0
C323 C 0.56729 0.51603 0.5215 0.0
C324 C 0.5654 0.52701 0.56272 0.0
C325 C 0.58367 0.52564 0.56533 0.0
U326 U 0.64441 0.52447 0.53282 0.0
O327 O 0.66608 0.52732 0.55949 0.0
O328 O 0.66481 0.50456 0.53604 0.0
C329 C 0.6727 0.51211 0.55463 0.0
C330 C 0.61297 0.51618 0.55075 0.0
C331 C 0.67777 0.50063 0.57597 0.0
C332 C 0.68565 0.49664 0.61939 0.0
C333 C 0.67917 0.50708 0.59995 0.0
C334 C 0.68943 0.47303 0.59146 0.0
C335 C 0.6909 0.4795 0.61539 0.0
C336 C 0.68299 0.48346 0.57203 0.0
C337 C 0.6611 0.5534 0.47668 0.0
C338 C 0.67594 0.57991 0.46058 0.0
C339 C 0.67994 0.55267 0.44022 0.0
C340 C 0.66892 0.54411 0.45768 0.0
C341 C 0.68331 0.57075 0.44117 0.0
C342 C 0.66491 0.57137 0.478 0.0
C343 C 0.64751 0.54507 0.49331 0.0
O344 O 0.6213 0.50662 0.53495 0.0
O345 O 0.62256 0.52946 0.55833 0.0
O346 O 0.64653 0.55087 0.51583 0.0
O347 O 0.64514 0.52807 0.49242 0.0
H348 H 0.59315 0.50977 0.50895 0.0
H349 H 0.56121 0.51232 0.50433 0.0
H350 H 0.55782 0.53153 0.5781 0.0
H351 H 0.58972 0.52913 0.58264 0.0
H352 H 0.68665 0.50202 0.63759 0.0
H353 H 0.67557 0.52032 0.60367 0.0
H354 H 0.69377 0.46005 0.58758 0.0
H355 H 0.68251 0.47819 0.55374 0.0
H356 H 0.67821 0.59384 0.46179 0.0
H357 H 0.68567 0.54517 0.42578 0.0
H358 H 0.66622 0.53029 0.4559 0.0
H359 H 0.65891 0.57899 0.49212 0.0
C360 C 0.77602 0.34907 0.79531 0.0
C361 C 0.75941 0.34092 0.79207 0.0
C362 C 0.77309 0.31259 0.78819 0.0
C363 C 0.75798 0.32289 0.7885 0.0
C364 C 0.78968 0.32089 0.79069 0.0
C365 C 0.79111 0.33887 0.79433 0.0
U366 U 0.76861 0.39878 0.78476 0.0
O367 O 0.76329 0.41865 0.81226 0.0
O368 O 0.78734 0.42072 0.78984 0.0
C369 C 0.77834 0.42706 0.80812 0.0
C370 C 0.778 0.36778 0.80138 0.0
C371 C 0.78833 0.43286 0.83009 0.0
C372 C 0.81563 0.43611 0.85347 0.0
C373 C 0.80614 0.42885 0.8339 0.0
C374 C 0.78963 0.45114 0.86611 0.0
C375 C 0.80755 0.44758 0.8696 0.0
C376 C 0.78018 0.44393 0.84658 0.0
C377 C 0.74075 0.41495 0.72844 0.0
C378 C 0.74218 0.43656 0.69453 0.0
C379 C 0.71385 0.42686 0.71077 0.0
C380 C 0.72227 0.41588 0.72789 0.0
C381 C 0.72368 0.43706 0.69351 0.0
C382 C 0.75062 0.42559 0.7117 0.0
C383 C 0.74924 0.40158 0.74463 0.0
O384 O 0.78785 0.37763 0.78642 0.0
O385 O 0.76387 0.37565 0.80897 0.0
O386 O 0.74255 0.39894 0.76682 0.0
O387 O 0.76654 0.40102 0.74433 0.0
H388 H 0.7475 0.34839 0.79272 0.0
H389 H 0.745 0.31693 0.78656 0.0
H390 H 0.80162 0.31348 0.78986 0.0
H391 H 0.80406 0.34479 0.79674 0.0
H392 H 0.82932 0.43281 0.85593 0.0
H393 H 0.81283 0.42035 0.82155 0.0
H394 H 0.78301 0.45995 0.87811 0.0
H395 H 0.76653 0.44738 0.84398 0.0
H396 H 0.75014 0.44424 0.68148 0.0
H397 H 0.6996 0.42721 0.71089 0.0
H398 H 0.71426 0.40777 0.74037 0.0
H399 H 0.76486 0.42514 0.71137 0.0
C400 C 0.85789 0.50423 0.98799 0.0
C401 C 0.85658 0.51157 0.964 0.0
C402 C 0.84402 0.48435 0.9487 0.0
C403 C 0.84976 0.50176 0.94463 0.0
C404 C 0.8455 0.47695 0.97259 0.0
C405 C 0.85232 0.48676 0.99197 0.0
U406 U 0.89154 0.52641 0.03231 0.0
O407 O 0.89088 0.5526 0.04798 0.0
O408 O 0.8897 0.52941 0.07249 0.0
C409 C 0.88873 0.54649 0.07069 0.0
C410 C 0.86311 0.51517 1.00921 0.0
C411 C 0.87536 0.55501 0.08621 0.0
C412 C 0.85603 0.55455 0.12227 0.0
C413 C 0.86676 0.54585 0.10578 0.0
C414 C 0.86189 0.5817 0.09982 0.0
C415 C 0.85375 0.57265 0.11982 0.0
C416 C 0.87263 0.57302 0.08335 0.0
C417 C 0.94205 0.51957 1.02228 0.0
C418 C 0.97073 0.53317 1.01239 0.0
C419 C 0.9691 0.50768 0.03955 0.0
C420 C 0.9507 0.50721 0.03729 0.0
C421 C 0.97938 0.52041 0.02665 0.0
C422 C 0.95231 0.5327 1.0101 0.0
C423 C 0.92288 0.51741 1.01681 0.0
O424 O 0.8698 0.50711 0.02863 0.0
O425 O 0.871 0.53028 1.00413 0.0
O426 O 0.91459 0.53112 1.00808 0.0
O427 O 0.91327 0.50788 0.03248 0.0
H428 H 0.86035 0.52508 0.96027 0.0
H429 H 0.84841 0.50803 0.92663 0.0
H430 H 0.84118 0.4636 0.97638 0.0
H431 H 0.85282 0.48074 1.01024 0.0
H432 H 0.84998 0.54718 0.13748 0.0
H433 H 0.8687 0.53202 0.10883 0.0
H434 H 0.86012 0.59558 0.09704 0.0
H435 H 0.87916 0.58054 0.06869 0.0
H436 H 0.97825 0.54312 1.00216 0.0
H437 H 0.97532 0.49786 0.05107 0.0
H438 H 0.94331 0.49679 0.04674 0.0
H439 H 0.94618 0.54229 0.99809 0.0
C440 C 0.77451 0.70363 0.26672 0.0
C441 C 0.77645 0.71007 0.2906 0.0
C442 C 0.76997 0.73954 0.27549 0.0
C443 C 0.77427 0.72785 0.29491 0.0
C444 C 0.76792 0.73301 0.25168 0.0
C445 C 0.77016 0.71528 0.24738 0.0
U446 U 0.76947 0.65344 0.27755 0.0
O447 O 0.766 0.63305 0.25004 0.0
O448 O 0.78929 0.63314 0.27386 0.0
C449 C 0.78127 0.62602 0.25503 0.0
C450 C 0.77785 0.68517 0.26105 0.0
C451 C 0.79238 0.62109 0.23374 0.0
C452 C 0.79462 0.61015 0.19201 0.0
C453 C 0.78457 0.6169 0.21107 0.0
C454 C 0.82059 0.6117 0.21764 0.0
C455 C 0.81274 0.60735 0.19508 0.0
C456 C 0.81056 0.61845 0.23671 0.0
C457 C 0.74029 0.63525 0.33231 0.0
C458 C 0.74114 0.61394 0.36658 0.0
C459 C 0.71319 0.62132 0.34819 0.0
C460 C 0.72187 0.63292 0.33162 0.0
C461 C 0.7227 0.61176 0.36599 0.0
C462 C 0.74985 0.62553 0.34993 0.0
C463 C 0.74887 0.64917 0.31647 0.0
O464 O 0.78761 0.67625 0.2767 0.0
O465 O 0.76439 0.67602 0.25269 0.0
O466 O 0.74288 0.65112 0.29386 0.0
O467 O 0.7661 0.65113 0.31785 0.0
H468 H 0.77983 0.70143 0.30591 0.0
H469 H 0.77591 0.73246 0.31346 0.0
H470 H 0.76498 0.74168 0.23622 0.0
H471 H 0.76876 0.71071 0.22876 0.0
H472 H 0.78815 0.60693 0.17489 0.0
H473 H 0.77057 0.61841 0.20823 0.0
H474 H 0.83441 0.60932 0.22091 0.0
H475 H 0.81699 0.6211 0.25406 0.0
H476 H 0.74883 0.6068 0.3801 0.0
H477 H 0.69895 0.6203 0.3476 0.0
H478 H 0.71407 0.64046 0.31867 0.0
H479 H 0.76402 0.62713 0.35127 0.0
C480 C 0.35763 0.50605 0.57875 0.0
C481 C 0.3651 0.4899 0.58489 0.0
C482 C 0.34413 0.48524 0.61878 0.0
C483 C 0.35837 0.47958 0.60465 0.0
C484 C 0.33688 0.5015 0.61274 0.0
C485 C 0.34357 0.51177 0.59299 0.0
U486 U 0.39252 0.52755 0.53422 0.0
O487 O 0.39152 0.53077 0.49379 0.0
O488 O 0.39254 0.55385 0.51672 0.0
C489 C 0.39073 0.54785 0.49439 0.0
C490 C 0.36342 0.51674 0.55689 0.0
C491 C 0.37761 0.55658 0.47816 0.0
C492 C 0.354 0.5557 0.44762 0.0
C493 C 0.36503 0.54712 0.46457 0.0
C494 C 0.36769 0.58333 0.45778 0.0
C495 C 0.35529 0.57391 0.44388 0.0
C496 C 0.3787 0.57477 0.47465 0.0
C497 C 0.44258 0.52101 0.54713 0.0
C498 C 0.46886 0.51705 0.52214 0.0
C499 C 0.47179 0.52807 0.56327 0.0
C500 C 0.45345 0.52715 0.5661 0.0
C501 C 0.47976 0.52274 0.54143 0.0
C502 C 0.45047 0.51616 0.52495 0.0
C503 C 0.42339 0.51848 0.55192 0.0
O504 O 0.37142 0.5317 0.56128 0.0
O505 O 0.37054 0.5085 0.53859 0.0
O506 O 0.41423 0.50903 0.5364 0.0
O507 O 0.41491 0.53213 0.55932 0.0
H508 H 0.37596 0.48515 0.57424 0.0
H509 H 0.36425 0.46712 0.60885 0.0
H510 H 0.32568 0.50609 0.62285 0.0
H511 H 0.33748 0.52408 0.5885 0.0
H512 H 0.34483 0.54799 0.43691 0.0
H513 H 0.36394 0.53306 0.46661 0.0
H514 H 0.36898 0.59736 0.45546 0.0
H515 H 0.38837 0.5824 0.48465 0.0
H516 H 0.47456 0.51316 0.5049 0.0
H517 H 0.47977 0.53245 0.57853 0.0
H518 H 0.44777 0.53084 0.58346 0.0
H519 H 0.44249 0.51138 0.50994 0.0
C520 C 0.26246 0.70198 0.27041 0.0
C521 C 0.25553 0.70904 0.29193 0.0
C522 C 0.26573 0.7383 0.27883 0.0
C523 C 0.25713 0.72697 0.29605 0.0
C524 C 0.27275 0.73119 0.25744 0.0
C525 C 0.27112 0.71329 0.25329 0.0
U526 U 0.26812 0.65198 0.28086 0.0
O527 O 0.24873 0.63055 0.2764 0.0
O528 O 0.27238 0.63197 0.25312 0.0
C529 C 0.25718 0.62399 0.25778 0.0
C530 C 0.25962 0.68331 0.26441 0.0
C531 C 0.24652 0.61852 0.23624 0.0
C532 C 0.21852 0.61615 0.21434 0.0
C533 C 0.22885 0.62329 0.23317 0.0
C534 C 0.24344 0.59986 0.20075 0.0
C535 C 0.22559 0.60407 0.19821 0.0
C536 C 0.25373 0.60694 0.21959 0.0
C537 C 0.29592 0.63509 0.33688 0.0
C538 C 0.31949 0.61475 0.34595 0.0
C539 C 0.29877 0.62156 0.37792 0.0
C540 C 0.29001 0.63268 0.36133 0.0
C541 C 0.31374 0.61259 0.37053 0.0
C542 C 0.3107 0.62585 0.32932 0.0
C543 C 0.28778 0.64865 0.32065 0.0
O544 O 0.27341 0.67503 0.25651 0.0
O545 O 0.2496 0.67365 0.27942 0.0
O546 O 0.27051 0.64965 0.32133 0.0
O547 O 0.29427 0.65108 0.29831 0.0
H548 H 0.24857 0.70079 0.30539 0.0
H549 H 0.25123 0.73203 0.31247 0.0
H550 H 0.2795 0.73951 0.24383 0.0
H551 H 0.27641 0.7083 0.23641 0.0
H552 H 0.20493 0.61996 0.21256 0.0
H553 H 0.22287 0.63221 0.24562 0.0
H554 H 0.24929 0.59059 0.18867 0.0
H555 H 0.26726 0.60294 0.22161 0.0
H556 H 0.33097 0.60803 0.33967 0.0
H557 H 0.29422 0.62053 0.39683 0.0
H558 H 0.2789 0.63985 0.36789 0.0
H559 H 0.31577 0.62749 0.31073 0.0
C560 C 0.09389 0.5183 1.02171 0.0
C561 C 0.08443 0.53153 1.00949 0.0
C562 C 0.05663 0.51973 0.02624 0.0
C563 C 0.06606 0.5323 1.01186 0.0
C564 C 0.06613 0.50686 0.03912 0.0
C565 C 0.08448 0.50609 0.03679 0.0
U566 U 0.14457 0.52427 0.03302 0.0
O567 O 0.16521 0.50471 0.02954 0.0
O568 O 0.16586 0.52824 1.00568 0.0
C569 C 0.17279 0.51299 1.01067 0.0
C570 C 0.11295 0.51595 1.01635 0.0
C571 C 0.17797 0.50227 0.98947 0.0
C572 C 0.18438 0.49944 0.94565 0.0
C573 C 0.17748 0.50891 0.96503 0.0
C574 C 0.19215 0.47633 0.97451 0.0
C575 C 0.19194 0.48309 0.95016 0.0
C576 C 0.1853 0.4858 0.99389 0.0
C577 C 0.16137 0.55137 0.08885 0.0
C578 C 0.17951 0.57643 0.10102 0.0
C579 C 0.17638 0.5513 0.12866 0.0
C580 C 0.16555 0.54301 0.11144 0.0
C581 C 0.18319 0.56826 0.12391 0.0
C582 C 0.16864 0.56814 0.08377 0.0
C583 C 0.14784 0.54352 0.07231 0.0
O584 O 0.12216 0.52969 1.00832 0.0
O585 O 0.12182 0.50599 0.0318 0.0
O586 O 0.14574 0.52645 0.07338 0.0
O587 O 0.14658 0.55009 0.04975 0.0
H588 H 0.09115 0.541 0.99743 0.0
H589 H 0.05915 0.54235 1.00164 0.0
H590 H 0.05931 0.49716 0.05073 0.0
H591 H 0.09122 0.4956 0.0463 0.0
H592 H 0.18401 0.50503 0.92711 0.0
H593 H 0.17215 0.52163 0.96088 0.0
H594 H 0.19823 0.46398 0.97876 0.0
H595 H 0.18622 0.48044 1.01251 0.0
H596 H 0.18453 0.58949 0.0968 0.0
H597 H 0.17925 0.54449 0.14589 0.0
H598 H 0.16006 0.5302 0.11616 0.0
H599 H 0.16554 0.57512 0.06677 0.0
C600 C 0.26066 0.34925 0.79849 0.0
C601 C 0.27713 0.34258 0.79227 0.0
C602 C 0.26442 0.31303 0.79125 0.0
C603 C 0.27897 0.32466 0.78864 0.0
C604 C 0.24789 0.31986 0.79677 0.0
C605 C 0.24606 0.33772 0.80044 0.0
U606 U 0.26713 0.39927 0.78705 0.0
O607 O 0.24809 0.42009 0.79222 0.0
O608 O 0.27242 0.41975 0.814 0.0
C609 C 0.25719 0.42718 0.81012 0.0
C610 C 0.25842 0.36785 0.80443 0.0
C611 C 0.24735 0.4327 0.8322 0.0
C612 C 0.21988 0.43655 0.85468 0.0
C613 C 0.22915 0.42933 0.83518 0.0
C614 C 0.24681 0.45035 0.86888 0.0
C615 C 0.22857 0.44731 0.87165 0.0
C616 C 0.25605 0.44316 0.84943 0.0
C617 C 0.29362 0.41663 0.72937 0.0
C618 C 0.3164 0.43869 0.71923 0.0
C619 C 0.2956 0.42985 0.688 0.0
C620 C 0.28742 0.41824 0.70504 0.0
C621 C 0.31027 0.44015 0.69479 0.0
C622 C 0.30818 0.42708 0.73632 0.0
C623 C 0.28581 0.40288 0.74621 0.0
O624 O 0.27254 0.37663 0.81145 0.0
O625 O 0.24823 0.37697 0.78963 0.0
O626 O 0.26853 0.40127 0.74646 0.0
O627 O 0.29285 0.40087 0.76822 0.0
H628 H 0.28864 0.35113 0.79058 0.0
H629 H 0.29188 0.31985 0.78436 0.0
H630 H 0.23632 0.31138 0.79829 0.0
H631 H 0.23321 0.34252 0.80515 0.0
H632 H 0.20579 0.43418 0.85597 0.0
H633 H 0.22196 0.4215 0.82209 0.0
H634 H 0.25393 0.4585 0.88166 0.0
H635 H 0.27001 0.44617 0.84749 0.0
H636 H 0.32788 0.44615 0.72497 0.0
H637 H 0.2905 0.43068 0.66938 0.0
H638 H 0.27639 0.41023 0.699 0.0
H639 H 0.31351 0.42603 0.75479 0.0
C640 C 0.18623 0.09322 0.90721 0.0
C641 C 0.19398 0.08196 0.92482 0.0
C642 C 0.19641 0.10244 0.88935 0.0
C643 C 0.21485 0.10092 0.88839 0.0
H644 H 0.1721 0.09492 0.90719 0.0
H645 H 0.18981 0.11113 0.87649 0.0
S646 S 0.24168 0.0729 0.92987 0.0
N647 N 0.2213 0.0697 0.93996 0.0
N648 N 0.2404 0.08684 0.90623 0.0
C649 C 0.22278 0.08955 0.90569 0.0
C650 C 0.21238 0.0801 0.92385 0.0
C651 C 0.20056 0.94886 0.1676 0.0
C652 C 0.21785 0.95264 0.17563 0.0
C653 C 0.19245 0.95914 0.14919 0.0
C654 C 0.2012 0.97376 0.13819 0.0
H655 H 0.19334 0.93764 0.17529 0.0
H656 H 0.17918 0.95564 0.14357 0.0
S657 S 0.24651 0.98949 0.1529 0.0
N658 N 0.24329 0.9723 0.17147 0.0
N659 N 0.22822 0.99141 0.13671 0.0
C660 C 0.21843 0.97778 0.14623 0.0
C661 C 0.2267 0.96728 0.1649 0.0
C662 C 0.31061 0.95842 0.41526 0.0
C663 C 0.3184 0.95655 0.39195 0.0
C664 C 0.31957 0.96691 0.43432 0.0
C665 C 0.33669 0.97407 0.43087 0.0
H666 H 0.29739 0.95333 0.4188 0.0
H667 H 0.31285 0.96825 0.45174 0.0
S668 S 0.36321 0.9724 0.37354 0.0
N669 N 0.3444 0.96246 0.36663 0.0
N670 N 0.36131 0.97815 0.40249 0.0
C671 C 0.34475 0.97207 0.40778 0.0
C672 C 0.33563 0.96336 0.38838 0.0
C673 C 0.34181 0.10052 0.67357 0.0
C674 C 0.32373 0.09666 0.67698 0.0
C675 C 0.35165 0.09245 0.65533 0.0
C676 C 0.3439 0.08001 0.63981 0.0
H677 H 0.34844 0.10991 0.6851 0.0
H678 H 0.36556 0.09575 0.65368 0.0
S679 S 0.29698 0.06528 0.64098 0.0
N680 N 0.29849 0.07946 0.66323 0.0
N681 N 0.31687 0.06453 0.6288 0.0
C682 C 0.3258 0.0761 0.64291 0.0
C683 C 0.31576 0.08438 0.66143 0.0
C684 C 0.83603 0.95541 0.17442 0.0
C685 C 0.81764 0.95267 0.17605 0.0
C686 C 0.84367 0.96623 0.15576 0.0
C687 C 0.83323 0.97478 0.13793 0.0
H688 H 0.84463 0.94917 0.18773 0.0
H689 H 0.85786 0.96798 0.15539 0.0
S690 S 0.78453 0.97093 0.13282 0.0
N691 N 0.78927 0.95881 0.15743 0.0
N692 N 0.80355 0.97904 0.12246 0.0
C693 C 0.81483 0.97206 0.13926 0.0
C694 C 0.80707 0.96107 0.15826 0.0
C695 C 0.84306 0.1003 0.92439 0.0
C696 C 0.84295 0.08199 0.92356 0.0
C697 C 0.83397 0.11043 0.90681 0.0
C698 C 0.82424 0.1027 0.88772 0.0
H699 H 0.85058 0.10692 0.93842 0.0
H700 H 0.83459 0.12448 0.90817 0.0
S701 S 0.81912 0.0552 0.87783 0.0
N702 N 0.83174 0.05649 0.90252 0.0
N703 N 0.81487 0.0755 0.86935 0.0
C704 C 0.82373 0.08438 0.88695 0.0
C705 C 0.83306 0.07405 0.90482 0.0
C706 C 0.70199 0.07007 0.65893 0.0
C707 C 0.69615 0.07987 0.63831 0.0
C708 C 0.71244 0.0777 0.67728 0.0
C709 C 0.71754 0.09547 0.67585 0.0
H710 H 0.69816 0.05643 0.66117 0.0
H711 H 0.71632 0.06963 0.69296 0.0
S712 S 0.70711 0.12652 0.62455 0.0
N713 N 0.69716 0.10811 0.61686 0.0
N714 N 0.71678 0.1224 0.65126 0.0
C715 C 0.71206 0.10536 0.65511 0.0
C716 C 0.7014 0.09759 0.63641 0.0
C717 C 0.70517 0.96417 0.39111 0.0
C718 C 0.72173 0.95655 0.39469 0.0
C719 C 0.69689 0.97314 0.41007 0.0
C720 C 0.70486 0.97486 0.43333 0.0
H721 H 0.69882 0.96371 0.37327 0.0
H722 H 0.68445 0.97927 0.40621 0.0
S723 S 0.74689 0.95516 0.45329 0.0
N724 N 0.74486 0.94984 0.42415 0.0
N725 N 0.72941 0.96665 0.45956 0.0
C726 C 0.72101 0.96662 0.43745 0.0
C727 C 0.72941 0.9575 0.41822 0.0
C728 C 0.71696 0.60191 0.40997 0.0
C729 C 0.71327 0.60029 0.38469 0.0
C730 C 0.70741 0.59217 0.42804 0.0
C731 C 0.69392 0.58024 0.4216 0.0
H732 H 0.72699 0.61113 0.4159 0.0
H733 H 0.71057 0.59406 0.44726 0.0
S734 S 0.67952 0.57064 0.35794 0.0
N735 N 0.69556 0.58537 0.35415 0.0
N736 N 0.67754 0.56726 0.388 0.0
C737 C 0.69036 0.57824 0.39636 0.0
C738 C 0.70001 0.58822 0.37797 0.0
C739 C 0.71211 0.4755 0.65069 0.0
C740 C 0.69855 0.46863 0.63585 0.0
C741 C 0.72009 0.46528 0.66929 0.0
C742 C 0.71472 0.44782 0.67404 0.0
H743 H 0.71685 0.4888 0.64757 0.0
H744 H 0.73054 0.47112 0.68009 0.0
S745 S 0.67952 0.4237 0.64079 0.0
N746 N 0.67983 0.44336 0.62764 0.0
N747 N 0.69494 0.42413 0.66222 0.0
C748 C 0.70103 0.44086 0.65952 0.0
C749 C 0.69296 0.45124 0.64053 0.0
C750 C 0.81939 0.46529 0.93269 0.0
C751 C 0.83556 0.47427 0.92849 0.0
C752 C 0.81061 0.45651 0.91372 0.0
C753 C 0.81769 0.45617 0.88975 0.0
H754 H 0.81322 0.46539 0.95068 0.0
H755 H 0.79811 0.44998 0.91786 0.0
S756 S 0.85996 0.4771 0.86918 0.0
N757 N 0.85858 0.48174 0.89863 0.0
N758 N 0.84201 0.46549 0.86297 0.0
C759 C 0.83401 0.46481 0.88539 0.0
C760 C 0.84292 0.47382 0.9047 0.0
C761 C 0.82661 0.57555 0.1461 0.0
C762 C 0.8433 0.58206 0.13847 0.0
C763 C 0.81673 0.58396 0.16401 0.0
C764 C 0.82319 0.59914 0.17528 0.0
H765 H 0.82109 0.56387 0.1381 0.0
H766 H 0.80406 0.5783 0.16942 0.0
S767 S 0.86611 0.62158 0.16188 0.0
N768 N 0.86585 0.60465 0.14378 0.0
N769 N 0.84723 0.62053 0.17703 0.0
C770 C 0.83981 0.60585 0.16772 0.0
C771 C 0.84983 0.59733 0.14942 0.0
C772 C 0.33187 0.4563 0.63456 0.0
C773 C 0.33628 0.47386 0.63894 0.0
C774 C 0.32356 0.44556 0.65269 0.0
C775 C 0.31941 0.45186 0.67609 0.0
H776 H 0.33453 0.45089 0.61676 0.0
H777 H 0.32038 0.43217 0.64834 0.0
S778 S 0.32867 0.49671 0.69723 0.0
N779 N 0.33635 0.4969 0.66875 0.0
N780 N 0.32055 0.47683 0.70265 0.0
C781 C 0.324 0.46932 0.68085 0.0
C782 C 0.33241 0.48028 0.66234 0.0
C783 C 0.34238 0.60448 0.39054 0.0
C784 C 0.324 0.60194 0.38875 0.0
C785 C 0.3523 0.59534 0.40828 0.0
C786 C 0.34433 0.58314 0.42492 0.0
H787 H 0.34914 0.6139 0.37843 0.0
H788 H 0.36639 0.59784 0.40891 0.0
S789 S 0.29667 0.57125 0.42756 0.0
N790 N 0.29828 0.58593 0.40477 0.0
N791 N 0.31687 0.56892 0.43827 0.0
C792 C 0.32599 0.58027 0.42312 0.0
C793 C 0.31586 0.58965 0.40509 0.0
C794 C 0.22011 0.59443 0.15475 0.0
C795 C 0.21434 0.59534 0.17936 0.0
C796 C 0.20993 0.58585 0.1369 0.0
C797 C 0.19368 0.57759 0.14301 0.0
H798 H 0.23258 0.60047 0.14921 0.0
H799 H 0.21496 0.58544 0.11825 0.0
S800 S 0.17257 0.57622 0.20477 0.0
N801 N 0.19127 0.58717 0.20881 0.0
N802 N 0.17213 0.57127 0.17537 0.0
C803 C 0.18774 0.57848 0.16751 0.0
C804 C 0.19803 0.58731 0.18562 0.0
C805 C 0.21254 0.48263 0.91388 0.0
C806 C 0.20055 0.47367 0.92977 0.0
C807 C 0.22145 0.47401 0.89525 0.0
C808 C 0.21867 0.45606 0.89151 0.0
H809 H 0.21534 0.49639 0.91614 0.0
H810 H 0.23056 0.48152 0.88357 0.0
S811 S 0.18828 0.42664 0.92766 0.0
N812 N 0.18603 0.44585 0.94009 0.0
N813 N 0.20289 0.42964 0.90531 0.0
C814 C 0.20654 0.44697 0.90706 0.0
C815 C 0.19751 0.45575 0.92614 0.0
C816 C 1.00764 1.00683 0.05069 0.0
C817 C 0.9984 1.02023 0.03847 0.0
C818 C 0.02614 1.0067 0.05079 0.0
C819 C 0.03628 1.01995 0.03868 0.0
H820 H 1.00052 0.99647 0.06066 0.0
H821 H 0.03256 0.99624 0.06084 0.0
S822 S 1.01859 0.05733 1.00238 0.0
N823 N 1.00086 0.04668 1.01289 0.0
N824 N 0.0356 0.04643 1.01308 0.0
C825 C 0.02723 0.03333 0.02613 0.0
C826 C 1.00834 0.03347 0.02602 0.0
C827 C 0.26288 0.7694 0.26335 0.0
C828 C 0.26696 0.75754 0.2827 0.0
C829 C 0.26383 0.78753 0.26652 0.0
C830 C 0.26888 0.7946 0.28919 0.0
H831 H 0.25867 0.76464 0.24565 0.0
H832 H 0.26035 0.79608 0.25116 0.0
S833 S 0.28247 0.76929 0.34504 0.0
N834 N 0.27727 0.75428 0.32492 0.0
N835 N 0.27905 0.78823 0.33087 0.0
C836 C 0.27326 0.78289 0.30857 0.0
C837 C 0.2723 0.76444 0.30534 0.0
C838 C 0.5104 1.00674 0.52013 0.0
C839 C 0.50128 0.02138 0.52794 0.0
C840 C 0.52891 1.00662 0.51959 0.0
C841 C 0.53915 0.02113 0.52685 0.0
H842 H 0.50318 0.99536 0.51389 0.0
H843 H 0.53523 0.99515 0.51296 0.0
S844 S 0.52181 0.06218 0.55083 0.0
N845 N 0.50398 0.05043 0.54442 0.0
N846 N 0.53871 0.0502 0.54344 0.0
C847 C 0.53022 0.03575 0.53509 0.0
C848 C 0.51134 0.03588 0.53563 0.0
C849 C 0.2759 0.28757 0.76817 0.0
C850 C 0.2665 0.29385 0.78833 0.0
C851 C 0.27794 0.2696 0.76501 0.0
C852 C 0.27069 0.2571 0.78189 0.0
H853 H 0.28155 0.29663 0.75451 0.0
H854 H 0.28509 0.26547 0.74901 0.0
S855 S 0.24623 0.26668 0.83897 0.0
N856 N 0.25074 0.28606 0.82621 0.0
N857 N 0.25458 0.25241 0.82028 0.0
C858 C 0.26148 0.2632 0.80231 0.0
C859 C 0.25939 0.2815 0.80553 0.0
C860 C 0.76069 0.28625 0.76685 0.0
C861 C 0.77153 0.29327 0.78531 0.0
C862 C 0.75929 0.26817 0.7635 0.0
C863 C 0.76854 0.25627 0.77862 0.0
H864 H 0.7534 0.29483 0.75461 0.0
H865 H 0.75075 0.26345 0.74903 0.0
S866 S 0.79844 0.26784 0.83003 0.0
N867 N 0.79135 0.28677 0.81937 0.0
N868 N 0.78901 0.25293 0.81275 0.0
C869 C 0.77933 0.26311 0.79728 0.0
C870 C 0.78078 0.28152 0.80066 0.0
C871 C 0.77994 0.78573 0.29696 0.0
C872 C 0.76576 0.79537 0.28748 0.0
C873 C 0.78111 0.76773 0.29322 0.0
C874 C 0.76815 0.75858 0.27986 0.0
H875 H 0.79036 0.7922 0.30709 0.0
H876 H 0.79243 0.76098 0.30051 0.0
S877 S 0.72749 0.77734 0.25325 0.0
N878 N 0.73791 0.79411 0.26549 0.0
N879 N 0.7401 0.76039 0.25849 0.0
C880 C 0.75374 0.768 0.27068 0.0
C881 C 0.75256 0.78632 0.27447 0.0
C882 C 0.50961 0.53721 0.54667 0.0
C883 C 0.49941 0.52268 0.53937 0.0
C884 C 0.52812 0.53701 0.54657 0.0
C885 C 0.53727 0.52228 0.53915 0.0
H886 H 0.50321 0.54882 0.55268 0.0
H887 H 0.53535 0.54848 0.5525 0.0
S888 S 0.51684 0.48054 0.51944 0.0
N889 N 0.49993 0.49297 0.52511 0.0
N890 N 0.53463 0.4926 0.52491 0.0
C891 C 0.52724 0.50772 0.53159 0.0
C892 C 0.50838 0.50792 0.53169 0.0
C893 C 1.00924 0.53518 0.03117 0.0
C894 C 0.99907 0.51993 0.02713 0.0
C895 C 0.02778 0.53501 0.03106 0.0
C896 C 0.03693 0.5196 0.02691 0.0
H897 H 1.0028 0.54732 0.03458 0.0
H898 H 0.03502 0.54704 0.03439 0.0
S899 S 1.01656 0.47656 1.01303 0.0
N900 N 0.99964 0.48925 1.01736 0.0
N901 N 0.03432 0.48894 1.01716 0.0
C902 C 0.02691 0.50433 1.02254 0.0
C903 C 1.00807 0.5045 1.02265 0.0
loop_
_geom_bond_atom_site_label_1
_geom_bond_atom_site_label_2
_geom_bond_distance
_geom_bond_site_symmetry_2
_ccdc_geom_bond_type
C0 C1 1.236 1_554 S
C0 C5 1.479 1_545 S
C0 C10 1.465 . S
C1 C0 1.236 1_556 S
C1 C3 1.344 . S
C1 H28 0.956 . S
C2 C3 1.395 1_554 S
C2 C4 1.320 1_545 S
C3 C1 1.344 . S
C3 C2 1.395 1_556 S
C3 H29 0.929 . S
C4 C2 1.320 1_565 S
C4 C5 1.405 . S
C4 H30 0.930 . S
C5 C0 1.479 1_565 S
C5 C4 1.405 . S
C5 H31 0.931 . S
U6 O7 2.454 1_545 S
U6 O8 2.458 1_545 S
U6 C9 2.984 1_545 S
U6 C10 2.847 . S
U6 C23 2.882 1_554 S
U6 O24 2.440 . S
U6 O25 2.420 . S
U6 O26 2.455 1_554 S
U6 O27 2.449 1_554 S
O7 U6 2.454 1_565 S
O7 C9 1.353 . S
O8 U6 2.458 1_565 S
O8 C9 1.286 . S
C9 U6 2.984 1_565 S
C9 O7 1.353 . S
C9 O8 1.286 . S
C9 C11 1.363 . S
C10 C0 1.465 . S
C10 U6 2.847 . S
C10 O24 1.248 . S
C10 O25 1.202 . S
C11 C9 1.363 . S
C11 C13 1.408 . S
C11 C16 1.342 . S
C12 C13 1.310 . S
C12 C15 1.461 . S
C12 H32 0.932 . S
C13 C11 1.408 . S
C13 C12 1.310 . S
C13 H33 0.930 . S
C14 C15 1.474 . S
C14 C16 1.285 . S
C14 H34 0.929 . S
C15 C12 1.461 . S
C15 C14 1.474 . S
C16 C11 1.342 . S
C16 C14 1.285 . S
C16 H35 0.930 . S
C17 C20 1.424 . S
C17 C22 1.245 . S
C17 C23 1.428 . S
C18 C21 1.260 . S
C18 C22 1.477 . S
C18 H36 0.932 . S
C19 C20 1.384 . S
C19 C21 1.479 . S
C19 H37 0.929 . S
C20 C17 1.424 . S
C20 C19 1.384 . S
C20 H38 0.928 . S
C21 C18 1.260 . S
C21 C19 1.479 . S
C22 C17 1.245 . S
C22 C18 1.477 . S
C22 H39 0.932 . S
C23 U6 2.882 1_556 S
C23 C17 1.428 . S
C23 O26 1.301 . S
C23 O27 1.282 . S
O24 U6 2.440 . S
O24 C10 1.248 . S
O25 U6 2.420 . S
O25 C10 1.202 . S
O26 U6 2.455 1_556 S
O26 C23 1.301 . S
O27 U6 2.449 1_556 S
O27 C23 1.282 . S
H28 C1 0.956 . S
H29 C3 0.929 . S
H30 C4 0.930 . S
H31 C5 0.931 . S
H32 C12 0.932 . S
H33 C13 0.930 . S
H34 C14 0.929 . S
H35 C16 0.930 . S
H36 C18 0.932 . S
H37 C19 0.929 . S
H38 C20 0.928 . S
H39 C22 0.932 . S
C40 C41 1.264 . S
C40 C45 1.479 . S
C40 C50 1.465 . S
C41 C40 1.264 . S
C41 C43 1.339 . S
C41 H68 0.931 . S
C42 C43 1.395 . S
C42 C44 1.320 . S
C43 C41 1.339 . S
C43 C42 1.395 . S
C43 H69 0.929 . S
C44 C42 1.320 . S
C44 C45 1.405 . S
C44 H70 0.930 . S
C45 C40 1.479 . S
C45 C44 1.405 . S
C45 H71 0.931 . S
U46 O47 2.454 . S
U46 O48 2.458 . S
U46 C49 2.984 . S
U46 C50 2.847 . S
U46 C63 2.882 . S
U46 O64 2.441 . S
U46 O65 2.420 . S
U46 O66 2.455 . S
U46 O67 2.449 . S
O47 U46 2.454 . S
O47 C49 1.353 . S
O48 U46 2.458 . S
O48 C49 1.286 . S
C49 U46 2.984 . S
C49 O47 1.353 . S
C49 O48 1.286 . S
C49 C51 1.363 . S
C50 C40 1.465 . S
C50 U46 2.847 . S
C50 O64 1.249 . S
C50 O65 1.202 . S
C51 C49 1.363 . S
C51 C53 1.408 . S
C51 C56 1.342 . S
C52 C53 1.310 . S
C52 C55 1.461 . S
C52 H72 0.932 . S
C53 C51 1.408 . S
C53 C52 1.310 . S
C53 H73 0.930 . S
C54 C55 1.474 . S
C54 C56 1.285 . S
C54 H74 0.929 . S
C55 C52 1.461 . S
C55 C54 1.474 . S
C56 C51 1.342 . S
C56 C54 1.285 . S
C56 H75 0.930 . S
C57 C60 1.424 . S
C57 C62 1.245 . S
C57 C63 1.428 . S
C58 C61 1.260 . S
C58 C62 1.477 . S
C58 H76 0.932 . S
C59 C60 1.384 . S
C59 C61 1.479 . S
C59 H77 0.929 . S
C60 C57 1.424 . S
C60 C59 1.384 . S
C60 H78 0.928 . S
C61 C58 1.260 . S
C61 C59 1.479 . S
C62 C57 1.245 . S
C62 C58 1.477 . S
C62 H79 0.932 . S
C63 U46 2.882 . S
C63 C57 1.428 . S
C63 O66 1.301 . S
C63 O67 1.282 . S
O64 U46 2.441 . S
O64 C50 1.249 . S
O65 U46 2.420 . S
O65 C50 1.202 . S
O66 U46 2.455 . S
O66 C63 1.301 . S
O67 U46 2.449 . S
O67 C63 1.282 . S
H68 C41 0.931 . S
H69 C43 0.929 . S
H70 C44 0.930 . S
H71 C45 0.931 . S
H72 C52 0.932 . S
H73 C53 0.930 . S
H74 C54 0.929 . S
H75 C56 0.930 . S
H76 C58 0.932 . S
H77 C59 0.929 . S
H78 C60 0.928 . S
H79 C62 0.932 . S
C80 C81 1.264 . S
C80 C85 1.479 . S
C80 C90 1.465 1_565 S
C81 C80 1.264 . S
C81 C83 1.339 . S
C81 H108 0.931 . S
C82 C83 1.395 . S
C82 C84 1.320 . S
C83 C81 1.339 . S
C83 C82 1.395 . S
C83 H109 0.929 . S
C84 C82 1.320 . S
C84 C85 1.405 . S
C84 H110 0.930 . S
C85 C80 1.479 . S
C85 C84 1.405 . S
C85 H111 0.931 . S
U86 O87 2.454 . S
U86 O88 2.458 . S
U86 C89 2.984 . S
U86 C90 2.847 . S
U86 C103 2.882 . S
U86 O104 2.441 . S
U86 O105 2.420 . S
U86 O106 2.455 . S
U86 O107 2.449 . S
O87 U86 2.454 . S
O87 C89 1.353 . S
O88 U86 2.458 . S
O88 C89 1.286 . S
C89 U86 2.984 . S
C89 O87 1.353 . S
C89 O88 1.286 . S
C89 C91 1.363 . S
C90 C80 1.465 1_545 S
C90 U86 2.847 . S
C90 O104 1.249 . S
C90 O105 1.202 . S
C91 C89 1.363 . S
C91 C93 1.408 . S
C91 C96 1.342 . S
C92 C93 1.310 . S
C92 C95 1.461 . S
C92 H112 0.932 . S
C93 C91 1.408 . S
C93 C92 1.310 . S
C93 H113 0.930 . S
C94 C95 1.474 . S
C94 C96 1.285 . S
C94 H114 0.929 . S
C95 C92 1.461 . S
C95 C94 1.474 . S
C96 C91 1.342 . S
C96 C94 1.285 . S
C96 H115 0.930 . S
C97 C100 1.424 . S
C97 C102 1.245 . S
C97 C103 1.428 . S
C98 C101 1.260 . S
C98 C102 1.477 . S
C98 H116 0.932 . S
C99 C100 1.384 . S
C99 C101 1.479 . S
C99 H117 0.929 1_545 S
C100 C97 1.424 . S
C100 C99 1.384 . S
C100 H118 0.907 1_545 S
C101 C98 1.260 . S
C101 C99 1.479 . S
C102 C97 1.245 . S
C102 C98 1.477 . S
C102 H119 0.932 . S
C103 U86 2.882 . S
C103 C97 1.428 . S
C103 O106 1.301 . S
C103 O107 1.282 . S
O104 U86 2.441 . S
O104 C90 1.249 . S
O105 U86 2.420 . S
O105 C90 1.202 . S
O106 U86 2.455 . S
O106 C103 1.301 . S
O107 U86 2.449 . S
O107 C103 1.282 . S
H108 C81 0.931 . S
H109 C83 0.929 . S
H110 C84 0.930 . S
H111 C85 0.931 . S
H112 C92 0.932 . S
H113 C93 0.930 . S
H114 C94 0.929 . S
H115 C96 0.930 . S
H116 C98 0.932 . S
H117 C99 0.929 1_565 S
H118 C100 0.907 1_565 S
H119 C102 0.932 . S
C120 C121 1.264 . S
C120 C125 1.479 . S
C120 C130 1.465 . S
C121 C120 1.264 . S
C121 C123 1.339 . S
C121 H148 0.931 . S
C122 C123 1.395 . S
C122 C124 1.320 . S
C123 C121 1.339 . S
C123 C122 1.395 . S
C123 H149 0.929 . S
C124 C122 1.320 . S
C124 C125 1.405 . S
C124 H150 0.930 . S
C125 C120 1.479 . S
C125 C124 1.405 . S
C125 H151 0.931 . S
U126 O127 2.454 . S
U126 O128 2.458 . S
U126 C129 2.984 . S
U126 C130 2.847 . S
U126 C143 2.882 . S
U126 O144 2.441 . S
U126 O145 2.420 . S
U126 O146 2.455 . S
U126 O147 2.449 . S
O127 U126 2.454 . S
O127 C129 1.353 . S
O128 U126 2.458 . S
O128 C129 1.286 . S
C129 U126 2.984 . S
C129 O127 1.353 . S
C129 O128 1.286 . S
C129 C131 1.363 . S
C130 C120 1.465 . S
C130 U126 2.847 . S
C130 O144 1.249 . S
C130 O145 1.202 . S
C131 C129 1.363 . S
C131 C133 1.408 . S
C131 C136 1.342 . S
C132 C133 1.310 . S
C132 C135 1.461 . S
C132 H152 0.932 . S
C133 C131 1.408 . S
C133 C132 1.310 . S
C133 H153 0.930 . S
C134 C135 1.474 . S
C134 C136 1.285 . S
C134 H154 0.929 . S
C135 C132 1.461 . S
C135 C134 1.474 . S
C136 C131 1.342 . S
C136 C134 1.285 . S
C136 H155 0.930 . S
C137 C140 1.424 . S
C137 C142 1.245 . S
C137 C143 1.428 . S
C138 C141 1.260 . S
C138 C142 1.477 . S
C138 H156 0.932 . S
C139 C140 1.384 . S
C139 C141 1.479 . S
C139 H157 0.929 . S
C140 C137 1.424 . S
C140 C139 1.384 . S
C140 H158 0.928 . S
C141 C138 1.260 . S
C141 C139 1.479 . S
C142 C137 1.245 . S
C142 C138 1.477 . S
C142 H159 0.932 . S
C143 U126 2.882 . S
C143 C137 1.428 . S
C143 O146 1.301 . S
C143 O147 1.282 . S
O144 U126 2.441 . S
O144 C130 1.249 . S
O145 U126 2.420 . S
O145 C130 1.202 . S
O146 U126 2.455 . S
O146 C143 1.301 . S
O147 U126 2.449 . S
O147 C143 1.282 . S
H148 C121 0.931 . S
H149 C123 0.929 . S
H150 C124 0.930 . S
H151 C125 0.931 . S
H152 C132 0.932 . S
H153 C133 0.930 . S
H154 C134 0.929 . S
H155 C136 0.930 . S
H156 C138 0.932 . S
H157 C139 0.929 . S
H158 C140 0.928 . S
H159 C142 0.932 . S
C160 C161 1.264 . S
C160 C165 1.479 . S
C160 C170 1.465 . S
C161 C160 1.264 . S
C161 C163 1.339 . S
C161 H188 0.931 . S
C162 C163 1.395 . S
C162 C164 1.320 . S
C163 C161 1.339 . S
C163 C162 1.395 . S
C163 H189 0.929 . S
C164 C162 1.320 . S
C164 C165 1.405 . S
C164 H190 0.930 . S
C165 C160 1.479 . S
C165 C164 1.405 . S
C165 H191 0.931 . S
U166 O167 2.454 1_554 S
U166 O168 2.458 1_554 S
U166 C169 2.984 1_554 S
U166 C170 2.847 1_545 S
U166 C183 2.886 . S
U166 O184 2.441 1_545 S
U166 O185 2.420 1_545 S
U166 O186 2.455 1_554 S
U166 O187 2.449 1_545 S
O167 U166 2.454 1_556 S
O167 C169 1.353 . S
O168 U166 2.458 1_556 S
O168 C169 1.286 . S
C169 U166 2.984 1_556 S
C169 O167 1.353 . S
C169 O168 1.286 . S
C169 C171 1.363 . S
C170 C160 1.465 . S
C170 U166 2.847 1_565 S
C170 O184 1.249 . S
C170 O185 1.202 . S
C171 C169 1.363 . S
C171 C173 1.408 . S
C171 C176 1.342 . S
C172 C173 1.310 . S
C172 C175 1.461 . S
C172 H192 0.932 . S
C173 C171 1.408 . S
C173 C172 1.310 . S
C173 H193 0.930 . S
C174 C175 1.474 . S
C174 C176 1.285 . S
C174 H194 0.929 . S
C175 C172 1.461 . S
C175 C174 1.474 . S
C176 C171 1.342 . S
C176 C174 1.285 . S
C176 H195 0.930 . S
C177 C180 1.424 1_545 S
C177 C182 1.245 1_554 S
C177 C183 1.433 . S
C178 C181 1.260 1_556 S
C178 C182 1.477 . S
C178 H196 0.932 . S
C179 C180 1.384 . S
C179 C181 1.479 1_565 S
C179 H197 0.929 . S
C180 C177 1.424 1_565 S
C180 C179 1.384 . S
C180 H198 0.928 . S
C181 C178 1.260 1_554 S
C181 C179 1.479 1_545 S
C182 C177 1.245 1_556 S
C182 C178 1.477 . S
C182 H199 0.932 . S
C183 U166 2.886 . S
C183 C177 1.433 . S
C183 O186 1.327 1_554 S
C183 O187 1.254 1_545 S
O184 U166 2.441 1_565 S
O184 C170 1.249 . S
O185 U166 2.420 1_565 S
O185 C170 1.202 . S
O186 U166 2.455 1_556 S
O186 C183 1.327 1_556 S
O187 U166 2.449 1_565 S
O187 C183 1.254 1_565 S
H188 C161 0.931 . S
H189 C163 0.929 . S
H190 C164 0.930 . S
H191 C165 0.931 . S
H192 C172 0.932 . S
H193 C173 0.930 . S
H194 C174 0.929 . S
H195 C176 0.930 . S
H196 C178 0.932 . S
H197 C179 0.929 . S
H198 C180 0.928 . S
H199 C182 0.932 . S
C200 C201 1.264 . S
C200 C205 1.479 . S
C200 C210 1.465 . S
C201 C200 1.264 . S
C201 C203 1.339 . S
C201 H228 0.931 . S
C202 C203 1.395 . S
C202 C204 1.320 . S
C203 C201 1.339 . S
C203 C202 1.395 . S
C203 H229 0.929 . S
C204 C202 1.320 . S
C204 C205 1.405 . S
C204 H230 0.930 . S
C205 C200 1.479 . S
C205 C204 1.405 . S
C205 H231 0.931 . S
U206 O207 2.454 . S
U206 O208 2.458 . S
U206 C209 2.984 . S
U206 C210 2.847 . S
U206 C223 2.882 . S
U206 O224 2.441 . S
U206 O225 2.420 . S
U206 O226 2.455 . S
U206 O227 2.449 . S
O207 U206 2.454 . S
O207 C209 1.353 . S
O208 U206 2.458 . S
O208 C209 1.286 . S
C209 U206 2.984 . S
C209 O207 1.353 . S
C209 O208 1.286 . S
C209 C211 1.363 . S
C210 C200 1.465 . S
C210 U206 2.847 . S
C210 O224 1.249 . S
C210 O225 1.202 . S
C211 C209 1.363 . S
C211 C213 1.408 . S
C211 C216 1.342 . S
C212 C213 1.310 . S
C212 C215 1.461 . S
C212 H232 0.932 . S
C213 C211 1.408 . S
C213 C212 1.310 . S
C213 H233 0.930 . S
C214 C215 1.474 . S
C214 C216 1.285 . S
C214 H234 0.929 . S
C215 C212 1.461 . S
C215 C214 1.474 . S
C216 C211 1.342 . S
C216 C214 1.285 . S
C216 H235 0.930 . S
C217 C220 1.424 . S
C217 C222 1.245 . S
C217 C223 1.428 . S
C218 C221 1.260 . S
C218 C222 1.477 . S
C218 H236 0.932 . S
C219 C220 1.384 . S
C219 C221 1.479 . S
C219 H237 0.929 . S
C220 C217 1.424 . S
C220 C219 1.384 . S
C220 H238 0.928 . S
C221 C218 1.260 . S
C221 C219 1.479 . S
C222 C217 1.245 . S
C222 C218 1.477 . S
C222 H239 0.932 . S
C223 U206 2.882 . S
C223 C217 1.428 . S
C223 O226 1.301 . S
C223 O227 1.282 . S
O224 U206 2.441 . S
O224 C210 1.249 . S
O225 U206 2.420 . S
O225 C210 1.202 . S
O226 U206 2.455 . S
O226 C223 1.301 . S
O227 U206 2.449 . S
O227 C223 1.282 . S
H228 C201 0.931 . S
H229 C203 0.929 . S
H230 C204 0.930 . S
H231 C205 0.931 . S
H232 C212 0.932 . S
H233 C213 0.930 . S
H234 C214 0.929 . S
H235 C216 0.930 . S
H236 C218 0.932 . S
H237 C219 0.929 . S
H238 C220 0.928 . S
H239 C222 0.932 . S
C240 C241 1.264 1_565 S
C240 C245 1.479 . S
C240 C250 1.465 . S
C241 C240 1.264 1_545 S
C241 C243 1.339 . S
C241 H268 0.931 . S
C242 C243 1.402 . S
C242 C244 1.306 1_545 S
C243 C241 1.339 . S
C243 C242 1.402 . S
C243 H269 0.929 . S
C244 C242 1.306 1_565 S
C244 C245 1.405 . S
C244 H270 0.930 . S
C245 C240 1.479 . S
C245 C244 1.405 . S
C245 H271 0.931 . S
U246 O247 2.454 . S
U246 O248 2.458 . S
U246 C249 2.984 . S
U246 C250 2.847 . S
U246 C263 2.882 1_565 S
U246 O264 2.441 . S
U246 O265 2.420 . S
U246 O266 2.453 1_565 S
U246 O267 2.449 1_565 S
O247 U246 2.454 . S
O247 C249 1.353 . S
O248 U246 2.458 . S
O248 C249 1.286 . S
C249 U246 2.984 . S
C249 O247 1.353 . S
C249 O248 1.286 . S
C249 C251 1.363 . S
C250 C240 1.465 . S
C250 U246 2.847 . S
C250 O264 1.249 . S
C250 O265 1.202 . S
C251 C249 1.363 . S
C251 C253 1.408 . S
C251 C256 1.342 . S
C252 C253 1.310 . S
C252 C255 1.461 . S
C252 H272 0.932 . S
C253 C251 1.408 . S
C253 C252 1.310 . S
C253 H273 0.930 . S
C254 C255 1.474 . S
C254 C256 1.285 . S
C254 H274 0.929 . S
C255 C252 1.461 . S
C255 C254 1.474 . S
C256 C251 1.342 . S
C256 C254 1.285 . S
C256 H275 0.930 . S
C257 C260 1.424 . S
C257 C262 1.245 . S
C257 C263 1.428 . S
C258 C261 1.260 . S
C258 C262 1.477 . S
C258 H276 0.932 . S
C259 C260 1.384 . S
C259 C261 1.479 . S
C259 H277 0.929 . S
C260 C257 1.424 . S
C260 C259 1.384 . S
C260 H278 0.928 . S
C261 C258 1.260 . S
C261 C259 1.479 . S
C262 C257 1.245 . S
C262 C258 1.477 . S
C262 H279 0.932 . S
C263 U246 2.882 1_545 S
C263 C257 1.428 . S
C263 O266 1.306 . S
C263 O267 1.282 . S
O264 U246 2.441 . S
O264 C250 1.249 . S
O265 U246 2.420 . S
O265 C250 1.202 . S
O266 U246 2.453 1_545 S
O266 C263 1.306 . S
O267 U246 2.449 1_545 S
O267 C263 1.282 . S
H268 C241 0.931 . S
H269 C243 0.929 . S
H270 C244 0.930 . S
H271 C245 0.931 . S
H272 C252 0.932 . S
H273 C253 0.930 . S
H274 C254 0.929 . S
H275 C256 0.930 . S
H276 C258 0.932 . S
H277 C259 0.929 . S
H278 C260 0.928 . S
H279 C262 0.932 . S
C280 C281 1.264 . S
C280 C285 1.479 . S
C280 C290 1.465 . S
C281 C280 1.264 . S
C281 C283 1.339 . S
C281 H308 0.931 . S
C282 C283 1.395 . S
C282 C284 1.320 . S
C283 C281 1.339 . S
C283 C282 1.395 . S
C283 H309 0.929 . S
C284 C282 1.320 . S
C284 C285 1.405 . S
C284 H310 0.930 . S
C285 C280 1.479 . S
C285 C284 1.405 . S
C285 H311 0.931 . S
U286 O287 2.454 . S
U286 O288 2.458 . S
U286 C289 2.984 . S
U286 C290 2.847 . S
U286 C303 2.882 . S
U286 O304 2.441 . S
U286 O305 2.420 . S
U286 O306 2.455 . S
U286 O307 2.449 . S
O287 U286 2.454 . S
O287 C289 1.353 . S
O288 U286 2.458 . S
O288 C289 1.286 . S
C289 U286 2.984 . S
C289 O287 1.353 . S
C289 O288 1.286 . S
C289 C291 1.363 . S
C290 C280 1.465 . S
C290 U286 2.847 . S
C290 O304 1.249 . S
C290 O305 1.202 . S
C291 C289 1.363 . S
C291 C293 1.408 . S
C291 C296 1.342 . S
C292 C293 1.310 . S
C292 C295 1.461 . S
C292 H312 0.932 . S
C293 C291 1.408 . S
C293 C292 1.310 . S
C293 H313 0.930 . S
C294 C295 1.474 . S
C294 C296 1.285 . S
C294 H314 0.929 . S
C295 C292 1.461 . S
C295 C294 1.474 . S
C296 C291 1.342 . S
C296 C294 1.285 . S
C296 H315 0.930 . S
C297 C300 1.424 . S
C297 C302 1.245 . S
C297 C303 1.428 . S
C298 C301 1.260 . S
C298 C302 1.477 . S
C298 H316 0.932 . S
C299 C300 1.384 . S
C299 C301 1.479 . S
C299 H317 0.929 . S
C300 C297 1.424 . S
C300 C299 1.384 . S
C300 H318 0.928 . S
C301 C298 1.260 . S
C301 C299 1.479 . S
C302 C297 1.245 . S
C302 C298 1.477 . S
C302 H319 0.932 . S
C303 U286 2.882 . S
C303 C297 1.428 . S
C303 O306 1.301 . S
C303 O307 1.282 . S
O304 U286 2.441 . S
O304 C290 1.249 . S
O305 U286 2.420 . S
O305 C290 1.202 . S
O306 U286 2.455 . S
O306 C303 1.301 . S
O307 U286 2.449 . S
O307 C303 1.282 . S
H308 C281 0.931 . S
H309 C283 0.929 . S
H310 C284 0.930 . S
H311 C285 0.931 . S
H312 C292 0.932 . S
H313 C293 0.930 . S
H314 C294 0.929 . S
H315 C296 0.930 . S
H316 C298 0.932 . S
H317 C299 0.929 . S
H318 C300 0.928 . S
H319 C302 0.932 . S
C320 C321 1.264 . S
C320 C325 1.479 . S
C320 C330 1.465 . S
C321 C320 1.264 . S
C321 C323 1.339 . S
C321 H348 0.931 . S
C322 C323 1.395 . S
C322 C324 1.320 . S
C323 C321 1.339 . S
C323 C322 1.395 . S
C323 H349 0.929 . S
C324 C322 1.320 . S
C324 C325 1.405 . S
C324 H350 0.930 . S
C325 C320 1.479 . S
C325 C324 1.405 . S
C325 H351 0.931 . S
U326 O327 2.454 . S
U326 O328 2.458 . S
U326 C329 2.984 . S
U326 C330 2.847 . S
U326 C343 2.882 . S
U326 O344 2.441 . S
U326 O345 2.420 . S
U326 O346 2.455 . S
U326 O347 2.449 . S
O327 U326 2.454 . S
O327 C329 1.353 . S
O328 U326 2.458 . S
O328 C329 1.286 . S
C329 U326 2.984 . S
C329 O327 1.353 . S
C329 O328 1.286 . S
C329 C331 1.363 . S
C330 C320 1.465 . S
C330 U326 2.847 . S
C330 O344 1.249 . S
C330 O345 1.202 . S
C331 C329 1.363 . S
C331 C333 1.408 . S
C331 C336 1.342 . S
C332 C333 1.310 . S
C332 C335 1.461 . S
C332 H352 0.932 . S
C333 C331 1.408 . S
C333 C332 1.310 . S
C333 H353 0.930 . S
C334 C335 1.474 . S
C334 C336 1.285 . S
C334 H354 0.929 . S
C335 C332 1.461 . S
C335 C334 1.474 . S
C336 C331 1.342 . S
C336 C334 1.285 . S
C336 H355 0.930 . S
C337 C340 1.424 . S
C337 C342 1.245 . S
C337 C343 1.428 . S
C338 C341 1.260 . S
C338 C342 1.477 . S
C338 H356 0.932 . S
C339 C340 1.384 . S
C339 C341 1.479 . S
C339 H357 0.929 . S
C340 C337 1.424 . S
C340 C339 1.384 . S
C340 H358 0.928 . S
C341 C338 1.260 . S
C341 C339 1.479 . S
C342 C337 1.245 . S
C342 C338 1.477 . S
C342 H359 0.932 . S
C343 U326 2.882 . S
C343 C337 1.428 . S
C343 O346 1.301 . S
C343 O347 1.282 . S
O344 U326 2.441 . S
O344 C330 1.249 . S
O345 U326 2.420 . S
O345 C330 1.202 . S
O346 U326 2.455 . S
O346 C343 1.301 . S
O347 U326 2.449 . S
O347 C343 1.282 . S
H348 C321 0.931 . S
H349 C323 0.929 . S
H350 C324 0.930 . S
H351 C325 0.931 . S
H352 C332 0.932 . S
H353 C333 0.930 . S
H354 C334 0.929 . S
H355 C336 0.930 . S
H356 C338 0.932 . S
H357 C339 0.929 . S
H358 C340 0.928 . S
H359 C342 0.932 . S
C360 C361 1.264 . S
C360 C365 1.479 . S
C360 C370 1.465 . S
C361 C360 1.264 . S
C361 C363 1.339 . S
C361 H388 0.931 . S
C362 C363 1.395 . S
C362 C364 1.320 . S
C363 C361 1.339 . S
C363 C362 1.395 . S
C363 H389 0.929 . S
C364 C362 1.320 . S
C364 C365 1.405 . S
C364 H390 0.930 . S
C365 C360 1.479 . S
C365 C364 1.405 . S
C365 H391 0.931 . S
U366 O367 2.454 . S
U366 O368 2.458 . S
U366 C369 2.984 . S
U366 C370 2.847 . S
U366 C383 2.882 . S
U366 O384 2.441 . S
U366 O385 2.420 . S
U366 O386 2.455 . S
U366 O387 2.449 . S
O367 U366 2.454 . S
O367 C369 1.353 . S
O368 U366 2.458 . S
O368 C369 1.286 . S
C369 U366 2.984 . S
C369 O367 1.353 . S
C369 O368 1.286 . S
C369 C371 1.363 . S
C370 C360 1.465 . S
C370 U366 2.847 . S
C370 O384 1.249 . S
C370 O385 1.202 . S
C371 C369 1.363 . S
C371 C373 1.408 . S
C371 C376 1.342 . S
C372 C373 1.310 . S
C372 C375 1.461 . S
C372 H392 0.932 . S
C373 C371 1.408 . S
C373 C372 1.310 . S
C373 H393 0.930 . S
C374 C375 1.474 . S
C374 C376 1.285 . S
C374 H394 0.929 . S
C375 C372 1.461 . S
C375 C374 1.474 . S
C376 C371 1.342 . S
C376 C374 1.285 . S
C376 H395 0.930 . S
C377 C380 1.424 . S
C377 C382 1.245 . S
C377 C383 1.428 . S
C378 C381 1.260 . S
C378 C382 1.477 . S
C378 H396 0.932 . S
C379 C380 1.384 . S
C379 C381 1.479 . S
C379 H397 0.929 . S
C380 C377 1.424 . S
C380 C379 1.384 . S
C380 H398 0.928 . S
C381 C378 1.260 . S
C381 C379 1.479 . S
C382 C377 1.245 . S
C382 C378 1.477 . S
C382 H399 0.932 . S
C383 U366 2.882 . S
C383 C377 1.428 . S
C383 O386 1.301 . S
C383 O387 1.282 . S
O384 U366 2.441 . S
O384 C370 1.249 . S
O385 U366 2.420 . S
O385 C370 1.202 . S
O386 U366 2.455 . S
O386 C383 1.301 . S
O387 U366 2.449 . S
O387 C383 1.282 . S
H388 C361 0.931 . S
H389 C363 0.929 . S
H390 C364 0.930 . S
H391 C365 0.931 . S
H392 C372 0.932 . S
H393 C373 0.930 . S
H394 C374 0.929 . S
H395 C376 0.930 . S
H396 C378 0.932 . S
H397 C379 0.929 . S
H398 C380 0.928 . S
H399 C382 0.932 . S
C400 C401 1.264 . S
C400 C405 1.479 . S
C400 C410 1.465 . S
C401 C400 1.264 . S
C401 C403 1.339 . S
C401 H428 0.931 . S
C402 C403 1.395 . S
C402 C404 1.320 . S
C403 C401 1.339 . S
C403 C402 1.395 . S
C403 H429 0.929 . S
C404 C402 1.320 . S
C404 C405 1.405 . S
C404 H430 0.930 . S
C405 C400 1.479 . S
C405 C404 1.405 . S
C405 H431 0.931 . S
U406 O407 2.454 1_556 S
U406 O408 2.458 1_556 S
U406 C409 2.984 1_556 S
U406 C410 2.847 . S
U406 C423 2.882 . S
U406 O424 2.441 . S
U406 O425 2.420 . S
U406 O426 2.455 1_556 S
U406 O427 2.449 . S
O407 U406 2.454 1_554 S
O407 C409 1.353 . S
O408 U406 2.458 1_554 S
O408 C409 1.286 . S
C409 U406 2.984 1_554 S
C409 O407 1.353 . S
C409 O408 1.286 . S
C409 C411 1.363 . S
C410 C400 1.465 . S
C410 U406 2.847 . S
C410 O424 1.249 . S
C410 O425 1.202 . S
C411 C409 1.363 . S
C411 C413 1.408 . S
C411 C416 1.342 . S
C412 C413 1.310 . S
C412 C415 1.461 . S
C412 H432 0.932 . S
C413 C411 1.408 . S
C413 C412 1.310 . S
C413 H433 0.930 . S
C414 C415 1.474 . S
C414 C416 1.285 . S
C414 H434 0.929 . S
C415 C412 1.461 . S
C415 C414 1.474 . S
C416 C411 1.342 . S
C416 C414 1.285 . S
C416 H435 0.930 . S
C417 C420 1.409 1_554 S
C417 C422 1.264 . S
C417 C423 1.425 1_554 S
C418 C421 1.260 . S
C418 C422 1.477 . S
C418 H436 0.932 . S
C419 C420 1.384 . S
C419 C421 1.479 1_556 S
C419 H437 0.929 . S
C420 C417 1.409 1_556 S
C420 C419 1.384 . S
C420 H438 0.928 . S
C421 C418 1.260 . S
C421 C419 1.479 1_554 S
C422 C417 1.264 . S
C422 C418 1.477 . S
C422 H439 0.932 . S
C423 U406 2.882 . S
C423 C417 1.425 1_556 S
C423 O426 1.301 1_556 S
C423 O427 1.282 . S
O424 U406 2.441 . S
O424 C410 1.249 . S
O425 U406 2.420 . S
O425 C410 1.202 . S
O426 U406 2.455 1_554 S
O426 C423 1.301 1_554 S
O427 U406 2.449 . S
O427 C423 1.282 . S
H428 C401 0.931 . S
H429 C403 0.929 . S
H430 C404 0.930 . S
H431 C405 0.931 . S
H432 C412 0.932 . S
H433 C413 0.930 . S
H434 C414 0.929 . S
H435 C416 0.930 . S
H436 C418 0.932 . S
H437 C419 0.929 . S
H438 C420 0.928 . S
H439 C422 0.932 . S
C440 C441 1.264 . S
C440 C445 1.479 . S
C440 C450 1.465 . S
C441 C440 1.264 . S
C441 C443 1.339 . S
C441 H468 0.931 . S
C442 C443 1.395 . S
C442 C444 1.320 . S
C443 C441 1.339 . S
C443 C442 1.395 . S
C443 H469 0.929 . S
C444 C442 1.320 . S
C444 C445 1.405 . S
C444 H470 0.930 . S
C445 C440 1.479 . S
C445 C444 1.405 . S
C445 H471 0.931 . S
U446 O447 2.454 . S
U446 O448 2.458 . S
U446 C449 2.984 . S
U446 C450 2.847 . S
U446 C463 2.882 . S
U446 O464 2.441 . S
U446 O465 2.420 . S
U446 O466 2.455 . S
U446 O467 2.449 . S
O447 U446 2.454 . S
O447 C449 1.353 . S
O448 U446 2.458 . S
O448 C449 1.286 . S
C449 U446 2.984 . S
C449 O447 1.353 . S
C449 O448 1.286 . S
C449 C451 1.363 . S
C450 C440 1.465 . S
C450 U446 2.847 . S
C450 O464 1.249 . S
C450 O465 1.202 . S
C451 C449 1.363 . S
C451 C453 1.408 . S
C451 C456 1.342 . S
C452 C453 1.310 . S
C452 C455 1.461 . S
C452 H472 0.932 . S
C453 C451 1.408 . S
C453 C452 1.310 . S
C453 H473 0.930 . S
C454 C455 1.474 . S
C454 C456 1.285 . S
C454 H474 0.929 . S
C455 C452 1.461 . S
C455 C454 1.474 . S
C456 C451 1.342 . S
C456 C454 1.285 . S
C456 H475 0.930 . S
C457 C460 1.424 . S
C457 C462 1.245 . S
C457 C463 1.428 . S
C458 C461 1.260 . S
C458 C462 1.477 . S
C458 H476 0.932 . S
C459 C460 1.384 . S
C459 C461 1.479 . S
C459 H477 0.929 . S
C460 C457 1.424 . S
C460 C459 1.384 . S
C460 H478 0.928 . S
C461 C458 1.260 . S
C461 C459 1.479 . S
C462 C457 1.245 . S
C462 C458 1.477 . S
C462 H479 0.932 . S
C463 U446 2.882 . S
C463 C457 1.428 . S
C463 O466 1.301 . S
C463 O467 1.282 . S
O464 U446 2.441 . S
O464 C450 1.249 . S
O465 U446 2.420 . S
O465 C450 1.202 . S
O466 U446 2.455 . S
O466 C463 1.301 . S
O467 U446 2.449 . S
O467 C463 1.282 . S
H468 C441 0.931 . S
H469 C443 0.929 . S
H470 C444 0.930 . S
H471 C445 0.931 . S
H472 C452 0.932 . S
H473 C453 0.930 . S
H474 C454 0.929 . S
H475 C456 0.930 . S
H476 C458 0.932 . S
H477 C459 0.929 . S
H478 C460 0.928 . S
H479 C462 0.932 . S
C480 C481 1.264 . S
C480 C485 1.479 . S
C480 C490 1.465 . S
C481 C480 1.264 . S
C481 C483 1.339 . S
C481 H508 0.931 . S
C482 C483 1.395 . S
C482 C484 1.320 . S
C483 C481 1.339 . S
C483 C482 1.395 . S
C483 H509 0.929 . S
C484 C482 1.320 . S
C484 C485 1.405 . S
C484 H510 0.930 . S
C485 C480 1.479 . S
C485 C484 1.405 . S
C485 H511 0.931 . S
U486 O487 2.454 . S
U486 O488 2.458 . S
U486 C489 2.984 . S
U486 C490 2.847 . S
U486 C503 2.882 . S
U486 O504 2.441 . S
U486 O505 2.420 . S
U486 O506 2.455 . S
U486 O507 2.449 . S
O487 U486 2.454 . S
O487 C489 1.353 . S
O488 U486 2.458 . S
O488 C489 1.286 . S
C489 U486 2.984 . S
C489 O487 1.353 . S
C489 O488 1.286 . S
C489 C491 1.363 . S
C490 C480 1.465 . S
C490 U486 2.847 . S
C490 O504 1.249 . S
C490 O505 1.202 . S
C491 C489 1.363 . S
C491 C493 1.408 . S
C491 C496 1.342 . S
C492 C493 1.310 . S
C492 C495 1.461 . S
C492 H512 0.932 . S
C493 C491 1.408 . S
C493 C492 1.310 . S
C493 H513 0.930 . S
C494 C495 1.474 . S
C494 C496 1.285 . S
C494 H514 0.929 . S
C495 C492 1.461 . S
C495 C494 1.474 . S
C496 C491 1.342 . S
C496 C494 1.285 . S
C496 H515 0.930 . S
C497 C500 1.424 . S
C497 C502 1.245 . S
C497 C503 1.428 . S
C498 C501 1.260 . S
C498 C502 1.477 . S
C498 H516 0.932 . S
C499 C500 1.384 . S
C499 C501 1.479 . S
C499 H517 0.929 . S
C500 C497 1.424 . S
C500 C499 1.384 . S
C500 H518 0.928 . S
C501 C498 1.260 . S
C501 C499 1.479 . S
C502 C497 1.245 . S
C502 C498 1.477 . S
C502 H519 0.932 . S
C503 U486 2.882 . S
C503 C497 1.428 . S
C503 O506 1.301 . S
C503 O507 1.282 . S
O504 U486 2.441 . S
O504 C490 1.249 . S
O505 U486 2.420 . S
O505 C490 1.202 . S
O506 U486 2.455 . S
O506 C503 1.301 . S
O507 U486 2.449 . S
O507 C503 1.282 . S
H508 C481 0.931 . S
H509 C483 0.929 . S
H510 C484 0.930 . S
H511 C485 0.931 . S
H512 C492 0.932 . S
H513 C493 0.930 . S
H514 C494 0.929 . S
H515 C496 0.930 . S
H516 C498 0.932 . S
H517 C499 0.929 . S
H518 C500 0.928 . S
H519 C502 0.932 . S
C520 C521 1.264 . S
C520 C525 1.479 . S
C520 C530 1.465 . S
C521 C520 1.264 . S
C521 C523 1.339 . S
C521 H548 0.931 . S
C522 C523 1.395 . S
C522 C524 1.320 . S
C523 C521 1.339 . S
C523 C522 1.395 . S
C523 H549 0.929 . S
C524 C522 1.320 . S
C524 C525 1.405 . S
C524 H550 0.930 . S
C525 C520 1.479 . S
C525 C524 1.405 . S
C525 H551 0.931 . S
U526 O527 2.454 . S
U526 O528 2.458 . S
U526 C529 2.984 . S
U526 C530 2.847 . S
U526 C543 2.882 . S
U526 O544 2.441 . S
U526 O545 2.420 . S
U526 O546 2.455 . S
U526 O547 2.449 . S
O527 U526 2.454 . S
O527 C529 1.353 . S
O528 U526 2.458 . S
O528 C529 1.286 . S
C529 U526 2.984 . S
C529 O527 1.353 . S
C529 O528 1.286 . S
C529 C531 1.363 . S
C530 C520 1.465 . S
C530 U526 2.847 . S
C530 O544 1.249 . S
C530 O545 1.202 . S
C531 C529 1.363 . S
C531 C533 1.408 . S
C531 C536 1.342 . S
C532 C533 1.310 . S
C532 C535 1.461 . S
C532 H552 0.932 . S
C533 C531 1.408 . S
C533 C532 1.310 . S
C533 H553 0.930 . S
C534 C535 1.474 . S
C534 C536 1.285 . S
C534 H554 0.929 . S
C535 C532 1.461 . S
C535 C534 1.474 . S
C536 C531 1.342 . S
C536 C534 1.285 . S
C536 H555 0.930 . S
C537 C540 1.424 . S
C537 C542 1.245 . S
C537 C543 1.428 . S
C538 C541 1.260 . S
C538 C542 1.477 . S
C538 H556 0.932 . S
C539 C540 1.384 . S
C539 C541 1.479 . S
C539 H557 0.929 . S
C540 C537 1.424 . S
C540 C539 1.384 . S
C540 H558 0.928 . S
C541 C538 1.260 . S
C541 C539 1.479 . S
C542 C537 1.245 . S
C542 C538 1.477 . S
C542 H559 0.932 . S
C543 U526 2.882 . S
C543 C537 1.428 . S
C543 O546 1.301 . S
C543 O547 1.282 . S
O544 U526 2.441 . S
O544 C530 1.249 . S
O545 U526 2.420 . S
O545 C530 1.202 . S
O546 U526 2.455 . S
O546 C543 1.301 . S
O547 U526 2.449 . S
O547 C543 1.282 . S
H548 C521 0.931 . S
H549 C523 0.929 . S
H550 C524 0.930 . S
H551 C525 0.931 . S
H552 C532 0.932 . S
H553 C533 0.930 . S
H554 C534 0.929 . S
H555 C536 0.930 . S
H556 C538 0.932 . S
H557 C539 0.929 . S
H558 C540 0.928 . S
H559 C542 0.932 . S
C560 C561 1.264 . S
C560 C565 1.470 1_554 S
C560 C570 1.465 . S
C561 C560 1.264 . S
C561 C563 1.339 . S
C561 H588 0.931 . S
C562 C563 1.395 . S
C562 C564 1.320 1_554 S
C563 C561 1.339 . S
C563 C562 1.395 . S
C563 H589 0.929 . S
C564 C562 1.320 1_556 S
C564 C565 1.406 . S
C564 H590 0.930 . S
C565 C560 1.470 1_556 S
C565 C564 1.406 . S
C565 H591 0.938 . S
U566 O567 2.454 1_554 S
U566 O568 2.454 1_554 S
U566 C569 2.984 1_554 S
U566 C570 2.847 . S
U566 C583 2.882 . S
U566 O584 2.441 . S
U566 O585 2.420 . S
U566 O586 2.455 . S
U566 O587 2.449 . S
O567 U566 2.454 1_556 S
O567 C569 1.353 . S
O568 U566 2.454 1_556 S
O568 C569 1.292 . S
C569 U566 2.984 1_556 S
C569 O567 1.353 . S
C569 O568 1.292 . S
C569 C571 1.363 . S
C570 C560 1.465 . S
C570 U566 2.847 . S
C570 O584 1.249 . S
C570 O585 1.202 . S
C571 C569 1.363 . S
C571 C573 1.408 . S
C571 C576 1.342 . S
C572 C573 1.310 . S
C572 C575 1.461 . S
C572 H592 0.932 . S
C573 C571 1.408 . S
C573 C572 1.310 . S
C573 H593 0.930 . S
C574 C575 1.474 . S
C574 C576 1.285 . S
C574 H594 0.929 . S
C575 C572 1.461 . S
C575 C574 1.474 . S
C576 C571 1.342 . S
C576 C574 1.285 . S
C576 H595 0.930 . S
C577 C580 1.424 . S
C577 C582 1.245 . S
C577 C583 1.428 . S
C578 C581 1.260 . S
C578 C582 1.477 . S
C578 H596 0.932 . S
C579 C580 1.384 . S
C579 C581 1.479 . S
C579 H597 0.929 . S
C580 C577 1.424 . S
C580 C579 1.384 . S
C580 H598 0.928 . S
C581 C578 1.260 . S
C581 C579 1.479 . S
C582 C577 1.245 . S
C582 C578 1.477 . S
C582 H599 0.932 . S
C583 U566 2.882 . S
C583 C577 1.428 . S
C583 O586 1.301 . S
C583 O587 1.282 . S
O584 U566 2.441 . S
O584 C570 1.249 . S
O585 U566 2.420 . S
O585 C570 1.202 . S
O586 U566 2.455 . S
O586 C583 1.301 . S
O587 U566 2.449 . S
O587 C583 1.282 . S
H588 C561 0.931 . S
H589 C563 0.929 . S
H590 C564 0.930 . S
H591 C565 0.938 . S
H592 C572 0.932 . S
H593 C573 0.930 . S
H594 C574 0.929 . S
H595 C576 0.930 . S
H596 C578 0.932 . S
H597 C579 0.929 . S
H598 C580 0.928 . S
H599 C582 0.932 . S
C600 C601 1.264 . S
C600 C605 1.479 . S
C600 C610 1.465 . S
C601 C600 1.264 . S
C601 C603 1.339 . S
C601 H628 0.931 . S
C602 C603 1.395 . S
C602 C604 1.320 . S
C603 C601 1.339 . S
C603 C602 1.395 . S
C603 H629 0.929 . S
C604 C602 1.320 . S
C604 C605 1.405 . S
C604 H630 0.930 . S
C605 C600 1.479 . S
C605 C604 1.405 . S
C605 H631 0.931 . S
U606 O607 2.454 . S
U606 O608 2.458 . S
U606 C609 2.984 . S
U606 C610 2.847 . S
U606 C623 2.882 . S
U606 O624 2.441 . S
U606 O625 2.420 . S
U606 O626 2.455 . S
U606 O627 2.449 . S
O607 U606 2.454 . S
O607 C609 1.353 . S
O608 U606 2.458 . S
O608 C609 1.286 . S
C609 U606 2.984 . S
C609 O607 1.353 . S
C609 O608 1.286 . S
C609 C611 1.363 . S
C610 C600 1.465 . S
C610 U606 2.847 . S
C610 O624 1.249 . S
C610 O625 1.202 . S
C611 C609 1.363 . S
C611 C613 1.408 . S
C611 C616 1.342 . S
C612 C613 1.310 . S
C612 C615 1.461 . S
C612 H632 0.932 . S
C613 C611 1.408 . S
C613 C612 1.310 . S
C613 H633 0.930 . S
C614 C615 1.474 . S
C614 C616 1.285 . S
C614 H634 0.929 . S
C615 C612 1.461 . S
C615 C614 1.474 . S
C616 C611 1.342 . S
C616 C614 1.285 . S
C616 H635 0.930 . S
C617 C620 1.424 . S
C617 C622 1.245 . S
C617 C623 1.428 . S
C618 C621 1.260 . S
C618 C622 1.477 . S
C618 H636 0.932 . S
C619 C620 1.384 . S
C619 C621 1.479 . S
C619 H637 0.929 . S
C620 C617 1.424 . S
C620 C619 1.384 . S
C620 H638 0.928 . S
C621 C618 1.260 . S
C621 C619 1.479 . S
C622 C617 1.245 . S
C622 C618 1.477 . S
C622 H639 0.932 . S
C623 U606 2.882 . S
C623 C617 1.428 . S
C623 O626 1.301 . S
C623 O627 1.282 . S
O624 U606 2.441 . S
O624 C610 1.249 . S
O625 U606 2.420 . S
O625 C610 1.202 . S
O626 U606 2.455 . S
O626 C623 1.301 . S
O627 U606 2.449 . S
O627 C623 1.282 . S
H628 C601 0.931 . S
H629 C603 0.929 . S
H630 C604 0.930 . S
H631 C605 0.931 . S
H632 C612 0.932 . S
H633 C613 0.930 . S
H634 C614 0.929 . S
H635 C616 0.930 . S
H636 C618 0.932 . S
H637 C619 0.929 . S
H638 C620 0.928 . S
H639 C622 0.932 . S
C640 C641 1.369 . S
C640 C642 1.419 . S
C640 H644 0.930 . S
C641 C640 1.369 . S
C641 C650 1.429 . S
C642 C640 1.419 . S
C642 C643 1.363 . S
C642 H645 0.929 . S
C643 C642 1.363 . S
C643 C649 1.428 . S
H644 C640 0.930 . S
H645 C642 0.929 . S
S646 N647 1.613 . S
S646 N648 1.610 . S
N647 S646 1.613 . S
N647 C650 1.350 . S
N648 S646 1.610 . S
N648 C649 1.351 . S
C649 C643 1.428 . S
C649 N648 1.351 . S
C649 C650 1.434 . S
C650 C641 1.429 . S
C650 N647 1.350 . S
C650 C649 1.434 . S
C651 C652 1.369 . S
C651 C653 1.419 . S
C651 H655 0.930 . S
C652 C651 1.369 . S
C652 C661 1.429 . S
C653 C651 1.419 . S
C653 C654 1.363 . S
C653 H656 0.929 . S
C654 C653 1.363 . S
C654 C660 1.428 . S
H655 C651 0.930 . S
H656 C653 0.929 . S
S657 N658 1.613 . S
S657 N659 1.610 . S
N658 S657 1.613 . S
N658 C661 1.350 . S
N659 S657 1.610 . S
N659 C660 1.351 . S
C660 C654 1.428 . S
C660 N659 1.351 . S
C660 C661 1.434 . S
C661 C652 1.429 . S
C661 N658 1.350 . S
C661 C660 1.434 . S
C662 C663 1.369 . S
C662 C664 1.419 . S
C662 H666 0.930 . S
C663 C662 1.369 . S
C663 C672 1.429 . S
C664 C662 1.419 . S
C664 C665 1.363 . S
C664 H667 0.929 . S
C665 C664 1.363 . S
C665 C671 1.428 . S
H666 C662 0.930 . S
H667 C664 0.929 . S
S668 N669 1.613 . S
S668 N670 1.610 . S
N669 S668 1.613 . S
N669 C672 1.350 . S
N670 S668 1.610 . S
N670 C671 1.351 . S
C671 C665 1.428 . S
C671 N670 1.351 . S
C671 C672 1.434 . S
C672 C663 1.429 . S
C672 N669 1.350 . S
C672 C671 1.434 . S
C673 C674 1.369 . S
C673 C675 1.419 . S
C673 H677 0.930 . S
C674 C673 1.369 . S
C674 C683 1.429 . S
C675 C673 1.419 . S
C675 C676 1.363 . S
C675 H678 0.929 . S
C676 C675 1.363 . S
C676 C682 1.428 . S
H677 C673 0.930 . S
H678 C675 0.929 . S
S679 N680 1.613 . S
S679 N681 1.610 . S
N680 S679 1.613 . S
N680 C683 1.350 . S
N681 S679 1.610 . S
N681 C682 1.351 . S
C682 C676 1.428 . S
C682 N681 1.351 . S
C682 C683 1.434 . S
C683 C674 1.429 . S
C683 N680 1.350 . S
C683 C682 1.434 . S
C684 C685 1.369 . S
C684 C686 1.419 . S
C684 H688 0.930 . S
C685 C684 1.369 . S
C685 C694 1.429 . S
C686 C684 1.419 . S
C686 C687 1.363 . S
C686 H689 0.929 . S
C687 C686 1.363 . S
C687 C693 1.428 . S
H688 C684 0.930 . S
H689 C686 0.929 . S
S690 N691 1.613 . S
S690 N692 1.610 . S
N691 S690 1.613 . S
N691 C694 1.350 . S
N692 S690 1.610 . S
N692 C693 1.351 . S
C693 C687 1.428 . S
C693 N692 1.351 . S
C693 C694 1.434 . S
C694 C685 1.429 . S
C694 N691 1.350 . S
C694 C693 1.434 . S
C695 C696 1.369 . S
C695 C697 1.419 . S
C695 H699 0.930 . S
C696 C695 1.369 . S
C696 C705 1.429 . S
C697 C695 1.419 . S
C697 C698 1.363 . S
C697 H700 0.929 . S
C698 C697 1.363 . S
C698 C704 1.428 . S
H699 C695 0.930 . S
H700 C697 0.929 . S
S701 N702 1.613 . S
S701 N703 1.610 . S
N702 S701 1.613 . S
N702 C705 1.350 . S
N703 S701 1.610 . S
N703 C704 1.351 . S
C704 C698 1.428 . S
C704 N703 1.351 . S
C704 C705 1.434 . S
C705 C696 1.429 . S
C705 N702 1.350 . S
C705 C704 1.434 . S
C706 C707 1.369 . S
C706 C708 1.419 . S
C706 H710 0.930 . S
C707 C706 1.369 . S
C707 C716 1.429 . S
C708 C706 1.419 . S
C708 C709 1.363 . S
C708 H711 0.929 . S
C709 C708 1.363 . S
C709 C715 1.428 . S
H710 C706 0.930 . S
H711 C708 0.929 . S
S712 N713 1.613 . S
S712 N714 1.610 . S
N713 S712 1.613 . S
N713 C716 1.350 . S
N714 S712 1.610 . S
N714 C715 1.351 . S
C715 C709 1.428 . S
C715 N714 1.351 . S
C715 C716 1.434 . S
C716 C707 1.429 . S
C716 N713 1.350 . S
C716 C715 1.434 . S
C717 C718 1.369 . S
C717 C719 1.419 . S
C717 H721 0.930 . S
C718 C717 1.369 . S
C718 C727 1.429 . S
C719 C717 1.419 . S
C719 C720 1.363 . S
C719 H722 0.929 . S
C720 C719 1.363 . S
C720 C726 1.428 . S
H721 C717 0.930 . S
H722 C719 0.929 . S
S723 N724 1.613 . S
S723 N725 1.610 . S
N724 S723 1.613 . S
N724 C727 1.350 . S
N725 S723 1.610 . S
N725 C726 1.351 . S
C726 C720 1.428 . S
C726 N725 1.351 . S
C726 C727 1.434 . S
C727 C718 1.429 . S
C727 N724 1.350 . S
C727 C726 1.434 . S
C728 C729 1.369 . S
C728 C730 1.419 . S
C728 H732 0.930 . S
C729 C728 1.369 . S
C729 C738 1.429 . S
C730 C728 1.419 . S
C730 C731 1.363 . S
C730 H733 0.929 . S
C731 C730 1.363 . S
C731 C737 1.428 . S
H732 C728 0.930 . S
H733 C730 0.929 . S
S734 N735 1.613 . S
S734 N736 1.610 . S
N735 S734 1.613 . S
N735 C738 1.350 . S
N736 S734 1.610 . S
N736 C737 1.351 . S
C737 C731 1.428 . S
C737 N736 1.351 . S
C737 C738 1.434 . S
C738 C729 1.429 . S
C738 N735 1.350 . S
C738 C737 1.434 . S
C739 C740 1.369 . S
C739 C741 1.419 . S
C739 H743 0.930 . S
C740 C739 1.369 . S
C740 C749 1.429 . S
C741 C739 1.419 . S
C741 C742 1.363 . S
C741 H744 0.929 . S
C742 C741 1.363 . S
C742 C748 1.428 . S
H743 C739 0.930 . S
H744 C741 0.929 . S
S745 N746 1.613 . S
S745 N747 1.610 . S
N746 S745 1.613 . S
N746 C749 1.350 . S
N747 S745 1.610 . S
N747 C748 1.351 . S
C748 C742 1.428 . S
C748 N747 1.351 . S
C748 C749 1.434 . S
C749 C740 1.429 . S
C749 N746 1.350 . S
C749 C748 1.434 . S
C750 C751 1.369 . S
C750 C752 1.419 . S
C750 H754 0.930 . S
C751 C750 1.369 . S
C751 C760 1.429 . S
C752 C750 1.419 . S
C752 C753 1.363 . S
C752 H755 0.929 . S
C753 C752 1.363 . S
C753 C759 1.428 . S
H754 C750 0.930 . S
H755 C752 0.929 . S
S756 N757 1.613 . S
S756 N758 1.610 . S
N757 S756 1.613 . S
N757 C760 1.350 . S
N758 S756 1.610 . S
N758 C759 1.351 . S
C759 C753 1.428 . S
C759 N758 1.351 . S
C759 C760 1.434 . S
C760 C751 1.429 . S
C760 N757 1.350 . S
C760 C759 1.434 . S
C761 C762 1.369 . S
C761 C763 1.419 . S
C761 H765 0.930 . S
C762 C761 1.369 . S
C762 C771 1.429 . S
C763 C761 1.419 . S
C763 C764 1.363 . S
C763 H766 0.929 . S
C764 C763 1.363 . S
C764 C770 1.428 . S
H765 C761 0.930 . S
H766 C763 0.929 . S
S767 N768 1.613 . S
S767 N769 1.610 . S
N768 S767 1.613 . S
N768 C771 1.350 . S
N769 S767 1.610 . S
N769 C770 1.351 . S
C770 C764 1.428 . S
C770 N769 1.351 . S
C770 C771 1.434 . S
C771 C762 1.429 . S
C771 N768 1.350 . S
C771 C770 1.434 . S
C772 C773 1.369 . S
C772 C774 1.419 . S
C772 H776 0.930 . S
C773 C772 1.369 . S
C773 C782 1.429 . S
C774 C772 1.419 . S
C774 C775 1.363 . S
C774 H777 0.929 . S
C775 C774 1.363 . S
C775 C781 1.428 . S
H776 C772 0.930 . S
H777 C774 0.929 . S
S778 N779 1.613 . S
S778 N780 1.610 . S
N779 S778 1.613 . S
N779 C782 1.350 . S
N780 S778 1.610 . S
N780 C781 1.351 . S
C781 C775 1.428 . S
C781 N780 1.351 . S
C781 C782 1.434 . S
C782 C773 1.429 . S
C782 N779 1.350 . S
C782 C781 1.434 . S
C783 C784 1.369 . S
C783 C785 1.419 . S
C783 H787 0.930 . S
C784 C783 1.369 . S
C784 C793 1.429 . S
C785 C783 1.419 . S
C785 C786 1.363 . S
C785 H788 0.929 . S
C786 C785 1.363 . S
C786 C792 1.428 . S
H787 C783 0.930 . S
H788 C785 0.929 . S
S789 N790 1.613 . S
S789 N791 1.610 . S
N790 S789 1.613 . S
N790 C793 1.350 . S
N791 S789 1.610 . S
N791 C792 1.351 . S
C792 C786 1.428 . S
C792 N791 1.351 . S
C792 C793 1.434 . S
C793 C784 1.429 . S
C793 N790 1.350 . S
C793 C792 1.434 . S
C794 C795 1.369 . S
C794 C796 1.419 . S
C794 H798 0.930 . S
C795 C794 1.369 . S
C795 C804 1.429 . S
C796 C794 1.419 . S
C796 C797 1.363 . S
C796 H799 0.929 . S
C797 C796 1.363 . S
C797 C803 1.428 . S
H798 C794 0.930 . S
H799 C796 0.929 . S
S800 N801 1.613 . S
S800 N802 1.610 . S
N801 S800 1.613 . S
N801 C804 1.350 . S
N802 S800 1.610 . S
N802 C803 1.351 . S
C803 C797 1.428 . S
C803 N802 1.351 . S
C803 C804 1.434 . S
C804 C795 1.429 . S
C804 N801 1.350 . S
C804 C803 1.434 . S
C805 C806 1.369 . S
C805 C807 1.419 . S
C805 H809 0.930 . S
C806 C805 1.369 . S
C806 C815 1.429 . S
C807 C805 1.419 . S
C807 C808 1.363 . S
C807 H810 0.929 . S
C808 C807 1.363 . S
C808 C814 1.428 . S
H809 C805 0.930 . S
H810 C807 0.929 . S
S811 N812 1.613 . S
S811 N813 1.610 . S
N812 S811 1.613 . S
N812 C815 1.350 . S
N813 S811 1.610 . S
N813 C814 1.351 . S
C814 C808 1.428 . S
C814 N813 1.351 . S
C814 C815 1.434 . S
C815 C806 1.429 . S
C815 N812 1.350 . S
C815 C814 1.434 . S
C816 C817 1.369 . S
C816 C818 1.419 1_655 S
C816 H820 0.930 . S
C817 C816 1.369 . S
C817 C826 1.429 1_554 S
C818 C816 1.419 1_455 S
C818 C819 1.363 . S
C818 H821 0.929 . S
C819 C818 1.363 . S
C819 C825 1.428 1_554 S
H820 C816 0.930 . S
H821 C818 0.929 . S
S822 N823 1.613 . S
S822 N824 1.610 1_655 S
N823 S822 1.613 . S
N823 C826 1.350 . S
N824 S822 1.610 1_455 S
N824 C825 1.351 . S
C825 C819 1.428 1_556 S
C825 N824 1.351 . S
C825 C826 1.434 1_455 S
C826 C817 1.429 1_556 S
C826 N823 1.350 . S
C826 C825 1.434 1_655 S
C827 C828 1.369 . S
C827 C829 1.419 . S
C827 H831 0.930 . S
C828 C827 1.369 . S
C828 C837 1.429 . S
C829 C827 1.419 . S
C829 C830 1.363 . S
C829 H832 0.929 . S
C830 C829 1.363 . S
C830 C836 1.428 . S
H831 C827 0.930 . S
H832 C829 0.929 . S
S833 N834 1.613 . S
S833 N835 1.610 . S
N834 S833 1.613 . S
N834 C837 1.350 . S
N835 S833 1.610 . S
N835 C836 1.351 . S
C836 C830 1.428 . S
C836 N835 1.351 . S
C836 C837 1.434 . S
C837 C828 1.429 . S
C837 N834 1.350 . S
C837 C836 1.434 . S
C838 C839 1.366 1_565 S
C838 C840 1.419 . S
C838 H842 0.933 . S
C839 C838 1.366 1_545 S
C839 C848 1.429 . S
C840 C838 1.419 . S
C840 C841 1.363 1_565 S
C840 H843 0.929 . S
C841 C840 1.363 1_545 S
C841 C847 1.428 . S
H842 C838 0.933 . S
H843 C840 0.929 . S
S844 N845 1.613 . S
S844 N846 1.610 . S
N845 S844 1.613 . S
N845 C848 1.350 . S
N846 S844 1.610 . S
N846 C847 1.351 . S
C847 C841 1.428 . S
C847 N846 1.351 . S
C847 C848 1.434 . S
C848 C839 1.429 . S
C848 N845 1.350 . S
C848 C847 1.434 . S
C849 C850 1.369 . S
C849 C851 1.419 . S
C849 H853 0.930 . S
C850 C849 1.369 . S
C850 C859 1.429 . S
C851 C849 1.419 . S
C851 C852 1.363 . S
C851 H854 0.929 . S
C852 C851 1.363 . S
C852 C858 1.428 . S
H853 C849 0.930 . S
H854 C851 0.929 . S
S855 N856 1.613 . S
S855 N857 1.610 . S
N856 S855 1.613 . S
N856 C859 1.350 . S
N857 S855 1.610 . S
N857 C858 1.351 . S
C858 C852 1.428 . S
C858 N857 1.351 . S
C858 C859 1.434 . S
C859 C850 1.429 . S
C859 N856 1.350 . S
C859 C858 1.434 . S
C860 C861 1.369 . S
C860 C862 1.419 . S
C860 H864 0.930 . S
C861 C860 1.369 . S
C861 C870 1.429 . S
C862 C860 1.419 . S
C862 C863 1.363 . S
C862 H865 0.929 . S
C863 C862 1.363 . S
C863 C869 1.428 . S
H864 C860 0.930 . S
H865 C862 0.929 . S
S866 N867 1.613 . S
S866 N868 1.610 . S
N867 S866 1.613 . S
N867 C870 1.350 . S
N868 S866 1.610 . S
N868 C869 1.351 . S
C869 C863 1.428 . S
C869 N868 1.351 . S
C869 C870 1.434 . S
C870 C861 1.429 . S
C870 N867 1.350 . S
C870 C869 1.434 . S
C871 C872 1.369 . S
C871 C873 1.419 . S
C871 H875 0.930 . S
C872 C871 1.369 . S
C872 C881 1.429 . S
C873 C871 1.419 . S
C873 C874 1.363 . S
C873 H876 0.929 . S
C874 C873 1.363 . S
C874 C880 1.428 . S
H875 C871 0.930 . S
H876 C873 0.929 . S
S877 N878 1.613 . S
S877 N879 1.610 . S
N878 S877 1.613 . S
N878 C881 1.350 . S
N879 S877 1.610 . S
N879 C880 1.351 . S
C880 C874 1.428 . S
C880 N879 1.351 . S
C880 C881 1.434 . S
C881 C872 1.429 . S
C881 N878 1.350 . S
C881 C880 1.434 . S
C882 C883 1.369 . S
C882 C884 1.419 . S
C882 H886 0.930 . S
C883 C882 1.369 . S
C883 C892 1.429 . S
C884 C882 1.419 . S
C884 C885 1.363 . S
C884 H887 0.929 . S
C885 C884 1.363 . S
C885 C891 1.428 . S
H886 C882 0.930 . S
H887 C884 0.929 . S
S888 N889 1.613 . S
S888 N890 1.610 . S
N889 S888 1.613 . S
N889 C892 1.350 . S
N890 S888 1.610 . S
N890 C891 1.351 . S
C891 C885 1.428 . S
C891 N890 1.351 . S
C891 C892 1.434 . S
C892 C883 1.429 . S
C892 N889 1.350 . S
C892 C891 1.434 . S
C893 C894 1.369 . S
C893 C895 1.419 1_655 S
C893 H897 0.930 . S
C894 C893 1.369 . S
C894 C903 1.429 1_554 S
C895 C893 1.419 1_455 S
C895 C896 1.363 . S
C895 H898 0.929 . S
C896 C895 1.363 . S
C896 C902 1.428 1_554 S
H897 C893 0.930 . S
H898 C895 0.929 . S
S899 N900 1.606 1_455 S
S899 N901 1.617 . S
N900 S899 1.606 1_655 S
N900 C903 1.350 . S
N901 S899 1.617 . S
N901 C902 1.351 . S
C902 C896 1.428 1_556 S
C902 N901 1.351 . S
C902 C903 1.434 1_455 S
C903 C894 1.429 1_556 S
C903 N900 1.350 . S
C903 C902 1.434 1_655 S
C641 C21 1.483 . S
C643 C141 1.493 . S
C652 C61 1.493 . S
C654 C15 1.501 . S
C663 C55 1.503 . S
C665 C82 1.496 . S
C674 C135 1.503 . S
C676 C95 1.503 . S
C685 C301 1.487 . S
C687 C162 1.490 . S
C696 C175 1.503 . S
C698 C221 1.491 . S
C707 C261 1.502 . S
C709 C215 1.505 . S
C718 C295 1.505 . S
C720 C255 1.506 . S
C729 C461 1.494 . S
C731 C341 1.485 . S
C740 C335 1.503 . S
C742 C381 1.491 . S
C751 C402 1.497 . S
C753 C375 1.504 . S
C762 C415 1.506 . S
C764 C455 1.505 . S
C773 C482 1.497 . S
C775 C621 1.489 . S
C784 C541 1.488 . S
C786 C495 1.503 . S
C795 C535 1.503 . S
C797 C581 1.498 . S
C806 C575 1.508 . S
C808 C615 1.507 . S
C817 C181 1.485 . S
C819 C2 1.488 . S
C828 C522 1.487 . S
C830 C42 1.486 . S
C839 C101 1.507 . S
C841 C242 1.512 . S
C850 C602 1.487 . S
C852 C122 1.503 . S
C861 C362 1.487 . S
C863 C202 1.488 . S
C872 C282 1.483 . S
C874 C442 1.501 . S
C883 C501 1.485 . S
C885 C322 1.489 . S
C894 C421 1.507 . S
C896 C562 1.504 . S
