# Generated by pormake.
# Topology wip, (6)-cn, num edge types: 1
# Building blocks:
#     Node 0, Type 0, BuildingBlock: BETDEL_clean_sbu_0, # of connection points: 6
#     Node 1, Type 0, BuildingBlock: BETDEL_clean_sbu_0, # of connection points: 6
#     Node 2, Type 0, BuildingBlock: BETDEL_clean_sbu_0, # of connection points: 6
#     Node 3, Type 0, BuildingBlock: BETDEL_clean_sbu_0, # of connection points: 6
#     Node 4, Type 0, BuildingBlock: BETDEL_clean_sbu_0, # of connection points: 6
#     Node 5, Type 0, BuildingBlock: BETDEL_clean_sbu_0, # of connection points: 6
#     Node 6, Type 0, BuildingBlock: BETDEL_clean_sbu_0, # of connection points: 6
#     Node 7, Type 0, BuildingBlock: BETDEL_clean_sbu_0, # of connection points: 6
#     Node 8, Type 0, BuildingBlock: BETDEL_clean_sbu_0, # of connection points: 6
#     Node 9, Type 0, BuildingBlock: BETDEL_clean_sbu_0, # of connection points: 6
#     Node 10, Type 0, BuildingBlock: BETDEL_clean_sbu_0, # of connection points: 6
#     Node 11, Type 0, BuildingBlock: BETDEL_clean_sbu_0, # of connection points: 6
#     Node 12, Type 0, BuildingBlock: BETDEL_clean_sbu_0, # of connection points: 6
#     Node 13, Type 0, BuildingBlock: BETDEL_clean_sbu_0, # of connection points: 6
#     Node 14, Type 0, BuildingBlock: BETDEL_clean_sbu_0, # of connection points: 6
#     Node 15, Type 0, BuildingBlock: BETDEL_clean_sbu_0, # of connection points: 6
#     Node 16, Type 0, BuildingBlock: BETDEL_clean_sbu_0, # of connection points: 6
#     Node 17, Type 0, BuildingBlock: BETDEL_clean_sbu_0, # of connection points: 6
#     Node 18, Type 0, BuildingBlock: BETDEL_clean_sbu_0, # of connection points: 6
#     Node 19, Type 0, BuildingBlock: BETDEL_clean_sbu_0, # of connection points: 6
#     Node 20, Type 0, BuildingBlock: BETDEL_clean_sbu_0, # of connection points: 6
#     Node 21, Type 0, BuildingBlock: BETDEL_clean_sbu_0, # of connection points: 6
#     Node 22, Type 0, BuildingBlock: BETDEL_clean_sbu_0, # of connection points: 6
#     Node 23, Type 0, BuildingBlock: BETDEL_clean_sbu_0, # of connection points: 6
#     Node 24, Type 0, BuildingBlock: BETDEL_clean_sbu_0, # of connection points: 6
#     Node 25, Type 0, BuildingBlock: BETDEL_clean_sbu_0, # of connection points: 6
#     Node 26, Type 0, BuildingBlock: BETDEL_clean_sbu_0, # of connection points: 6
#     Node 27, Type 0, BuildingBlock: BETDEL_clean_sbu_0, # of connection points: 6
#     Node 28, Type 0, BuildingBlock: BETDEL_clean_sbu_0, # of connection points: 6
#     Node 29, Type 0, BuildingBlock: BETDEL_clean_sbu_0, # of connection points: 6
#     Node 30, Type 0, BuildingBlock: BETDEL_clean_sbu_0, # of connection points: 6
#     Node 31, Type 0, BuildingBlock: BETDEL_clean_sbu_0, # of connection points: 6
#     Edge 32, Type (0, 0), BuildingBlock: CIFDUS_clean_linker_0, # of connection points: 2
#     Edge 33, Type (0, 0), BuildingBlock: CIFDUS_clean_linker_0, # of connection points: 2
#     Edge 34, Type (0, 0), BuildingBlock: CIFDUS_clean_linker_0, # of connection points: 2
#     Edge 35, Type (0, 0), BuildingBlock: CIFDUS_clean_linker_0, # of connection points: 2
#     Edge 36, Type (0, 0), BuildingBlock: CIFDUS_clean_linker_0, # of connection points: 2
#     Edge 37, Type (0, 0), BuildingBlock: CIFDUS_clean_linker_0, # of connection points: 2
#     Edge 38, Type (0, 0), BuildingBlock: CIFDUS_clean_linker_0, # of connection points: 2
#     Edge 39, Type (0, 0), BuildingBlock: CIFDUS_clean_linker_0, # of connection points: 2
#     Edge 40, Type (0, 0), BuildingBlock: CIFDUS_clean_linker_0, # of connection points: 2
#     Edge 41, Type (0, 0), BuildingBlock: CIFDUS_clean_linker_0, # of connection points: 2
#     Edge 42, Type (0, 0), BuildingBlock: CIFDUS_clean_linker_0, # of connection points: 2
#     Edge 43, Type (0, 0), BuildingBlock: CIFDUS_clean_linker_0, # of connection points: 2
#     Edge 44, Type (0, 0), BuildingBlock: CIFDUS_clean_linker_0, # of connection points: 2
#     Edge 45, Type (0, 0), BuildingBlock: CIFDUS_clean_linker_0, # of connection points: 2
#     Edge 46, Type (0, 0), BuildingBlock: CIFDUS_clean_linker_0, # of connection points: 2
#     Edge 47, Type (0, 0), BuildingBlock: CIFDUS_clean_linker_0, # of connection points: 2
#     Edge 48, Type (0, 0), BuildingBlock: CIFDUS_clean_linker_0, # of connection points: 2
#     Edge 49, Type (0, 0), BuildingBlock: CIFDUS_clean_linker_0, # of connection points: 2
#     Edge 50, Type (0, 0), BuildingBlock: CIFDUS_clean_linker_0, # of connection points: 2
#     Edge 51, Type (0, 0), BuildingBlock: CIFDUS_clean_linker_0, # of connection points: 2
#     Edge 52, Type (0, 0), BuildingBlock: CIFDUS_clean_linker_0, # of connection points: 2
#     Edge 53, Type (0, 0), BuildingBlock: CIFDUS_clean_linker_0, # of connection points: 2
#     Edge 54, Type (0, 0), BuildingBlock: CIFDUS_clean_linker_0, # of connection points: 2
#     Edge 55, Type (0, 0), BuildingBlock: CIFDUS_clean_linker_0, # of connection points: 2
#     Edge 56, Type (0, 0), BuildingBlock: CIFDUS_clean_linker_0, # of connection points: 2
#     Edge 57, Type (0, 0), BuildingBlock: CIFDUS_clean_linker_0, # of connection points: 2
#     Edge 58, Type (0, 0), BuildingBlock: CIFDUS_clean_linker_0, # of connection points: 2
#     Edge 59, Type (0, 0), BuildingBlock: CIFDUS_clean_linker_0, # of connection points: 2
#     Edge 60, Type (0, 0), BuildingBlock: CIFDUS_clean_linker_0, # of connection points: 2
#     Edge 61, Type (0, 0), BuildingBlock: CIFDUS_clean_linker_0, # of connection points: 2
#     Edge 62, Type (0, 0), BuildingBlock: CIFDUS_clean_linker_0, # of connection points: 2
#     Edge 63, Type (0, 0), BuildingBlock: CIFDUS_clean_linker_0, # of connection points: 2
#     Edge 64, Type (0, 0), BuildingBlock: CIFDUS_clean_linker_0, # of connection points: 2
#     Edge 65, Type (0, 0), BuildingBlock: CIFDUS_clean_linker_0, # of connection points: 2
#     Edge 66, Type (0, 0), BuildingBlock: CIFDUS_clean_linker_0, # of connection points: 2
#     Edge 67, Type (0, 0), BuildingBlock: CIFDUS_clean_linker_0, # of connection points: 2
#     Edge 68, Type (0, 0), BuildingBlock: CIFDUS_clean_linker_0, # of connection points: 2
#     Edge 69, Type (0, 0), BuildingBlock: CIFDUS_clean_linker_0, # of connection points: 2
#     Edge 70, Type (0, 0), BuildingBlock: CIFDUS_clean_linker_0, # of connection points: 2
#     Edge 71, Type (0, 0), BuildingBlock: CIFDUS_clean_linker_0, # of connection points: 2
#     Edge 72, Type (0, 0), BuildingBlock: CIFDUS_clean_linker_0, # of connection points: 2
#     Edge 73, Type (0, 0), BuildingBlock: CIFDUS_clean_linker_0, # of connection points: 2
#     Edge 74, Type (0, 0), BuildingBlock: CIFDUS_clean_linker_0, # of connection points: 2
#     Edge 75, Type (0, 0), BuildingBlock: CIFDUS_clean_linker_0, # of connection points: 2
#     Edge 76, Type (0, 0), BuildingBlock: CIFDUS_clean_linker_0, # of connection points: 2
#     Edge 77, Type (0, 0), BuildingBlock: CIFDUS_clean_linker_0, # of connection points: 2
#     Edge 78, Type (0, 0), BuildingBlock: CIFDUS_clean_linker_0, # of connection points: 2
#     Edge 79, Type (0, 0), BuildingBlock: CIFDUS_clean_linker_0, # of connection points: 2
#     Edge 80, Type (0, 0), BuildingBlock: CIFDUS_clean_linker_0, # of connection points: 2
#     Edge 81, Type (0, 0), BuildingBlock: CIFDUS_clean_linker_0, # of connection points: 2
#     Edge 82, Type (0, 0), BuildingBlock: CIFDUS_clean_linker_0, # of connection points: 2
#     Edge 83, Type (0, 0), BuildingBlock: CIFDUS_clean_linker_0, # of connection points: 2
#     Edge 84, Type (0, 0), BuildingBlock: CIFDUS_clean_linker_0, # of connection points: 2
#     Edge 85, Type (0, 0), BuildingBlock: CIFDUS_clean_linker_0, # of connection points: 2
#     Edge 86, Type (0, 0), BuildingBlock: CIFDUS_clean_linker_0, # of connection points: 2
#     Edge 87, Type (0, 0), BuildingBlock: CIFDUS_clean_linker_0, # of connection points: 2
#     Edge 88, Type (0, 0), BuildingBlock: CIFDUS_clean_linker_0, # of connection points: 2
#     Edge 89, Type (0, 0), BuildingBlock: CIFDUS_clean_linker_0, # of connection points: 2
#     Edge 90, Type (0, 0), BuildingBlock: CIFDUS_clean_linker_0, # of connection points: 2
#     Edge 91, Type (0, 0), BuildingBlock: CIFDUS_clean_linker_0, # of connection points: 2
#     Edge 92, Type (0, 0), BuildingBlock: CIFDUS_clean_linker_0, # of connection points: 2
#     Edge 93, Type (0, 0), BuildingBlock: CIFDUS_clean_linker_0, # of connection points: 2
#     Edge 94, Type (0, 0), BuildingBlock: CIFDUS_clean_linker_0, # of connection points: 2
#     Edge 95, Type (0, 0), BuildingBlock: CIFDUS_clean_linker_0, # of connection points: 2
#     Edge 96, Type (0, 0), BuildingBlock: CIFDUS_clean_linker_0, # of connection points: 2
#     Edge 97, Type (0, 0), BuildingBlock: CIFDUS_clean_linker_0, # of connection points: 2
#     Edge 98, Type (0, 0), BuildingBlock: CIFDUS_clean_linker_0, # of connection points: 2
#     Edge 99, Type (0, 0), BuildingBlock: CIFDUS_clean_linker_0, # of connection points: 2
#     Edge 100, Type (0, 0), BuildingBlock: CIFDUS_clean_linker_0, # of connection points: 2
#     Edge 101, Type (0, 0), BuildingBlock: CIFDUS_clean_linker_0, # of connection points: 2
#     Edge 102, Type (0, 0), BuildingBlock: CIFDUS_clean_linker_0, # of connection points: 2
#     Edge 103, Type (0, 0), BuildingBlock: CIFDUS_clean_linker_0, # of connection points: 2
#     Edge 104, Type (0, 0), BuildingBlock: CIFDUS_clean_linker_0, # of connection points: 2
#     Edge 105, Type (0, 0), BuildingBlock: CIFDUS_clean_linker_0, # of connection points: 2
#     Edge 106, Type (0, 0), BuildingBlock: CIFDUS_clean_linker_0, # of connection points: 2
#     Edge 107, Type (0, 0), BuildingBlock: CIFDUS_clean_linker_0, # of connection points: 2
#     Edge 108, Type (0, 0), BuildingBlock: CIFDUS_clean_linker_0, # of connection points: 2
#     Edge 109, Type (0, 0), BuildingBlock: CIFDUS_clean_linker_0, # of connection points: 2
#     Edge 110, Type (0, 0), BuildingBlock: CIFDUS_clean_linker_0, # of connection points: 2
#     Edge 111, Type (0, 0), BuildingBlock: CIFDUS_clean_linker_0, # of connection points: 2
#     Edge 112, Type (0, 0), BuildingBlock: CIFDUS_clean_linker_0, # of connection points: 2
#     Edge 113, Type (0, 0), BuildingBlock: CIFDUS_clean_linker_0, # of connection points: 2
#     Edge 114, Type (0, 0), BuildingBlock: CIFDUS_clean_linker_0, # of connection points: 2
#     Edge 115, Type (0, 0), BuildingBlock: CIFDUS_clean_linker_0, # of connection points: 2
#     Edge 116, Type (0, 0), BuildingBlock: CIFDUS_clean_linker_0, # of connection points: 2
#     Edge 117, Type (0, 0), BuildingBlock: CIFDUS_clean_linker_0, # of connection points: 2
#     Edge 118, Type (0, 0), BuildingBlock: CIFDUS_clean_linker_0, # of connection points: 2
#     Edge 119, Type (0, 0), BuildingBlock: CIFDUS_clean_linker_0, # of connection points: 2
#     Edge 120, Type (0, 0), BuildingBlock: CIFDUS_clean_linker_0, # of connection points: 2
#     Edge 121, Type (0, 0), BuildingBlock: CIFDUS_clean_linker_0, # of connection points: 2
#     Edge 122, Type (0, 0), BuildingBlock: CIFDUS_clean_linker_0, # of connection points: 2
#     Edge 123, Type (0, 0), BuildingBlock: CIFDUS_clean_linker_0, # of connection points: 2
#     Edge 124, Type (0, 0), BuildingBlock: CIFDUS_clean_linker_0, # of connection points: 2
#     Edge 125, Type (0, 0), BuildingBlock: CIFDUS_clean_linker_0, # of connection points: 2
#     Edge 126, Type (0, 0), BuildingBlock: CIFDUS_clean_linker_0, # of connection points: 2
#     Edge 127, Type (0, 0), BuildingBlock: CIFDUS_clean_linker_0, # of connection points: 2
# Relax obj value: 0.366
# Max RMSD: 0.220
# Mean RMSD: 0.200
data_MOF--net-wip--node1-BETDEL_clean_sbu_0--edge1-CIFDUS_clean_linker_0
_symmetry_space_group_name_H-M    P1
_symmetry_Int_Tables_number       1
_symmetry_cell_setting            triclinic
loop_
_symmetry_equiv_pos_as_xyz
'x, y, z'
_cell_length_a     57.655407
_cell_length_b     57.563237
_cell_length_c     23.894098
_cell_angle_alpha  93.002674
_cell_angle_beta   89.834917
_cell_angle_gamma 90.024658
loop_
_atom_site_label
_atom_site_type_symbol
_atom_site_fract_x
_atom_site_fract_y
_atom_site_fract_z
_atom_type_partial_charge
Dy0 Dy 0.05217 0.40503 0.08675 0.0
C1 C 0.09335 0.46377 0.9164 0.0
C2 C 0.03167 0.38592 0.17896 0.0
Dy3 Dy 0.08231 0.43526 1.00361 0.0
O4 O 0.02257 0.38686 0.12946 0.0
O5 O 0.0528 0.39369 0.17662 0.0
O6 O 0.02036 0.42349 0.06127 0.0
O7 O 0.05221 0.44002 0.05769 0.0
C8 C 0.03127 0.44151 0.04468 0.0
C9 C 0.10395 0.39941 0.04824 0.0
O10 O 0.08975 0.45529 0.08675 0.0
O11 O 0.07506 0.42712 0.14421 0.0
O12 O 0.09352 0.44111 0.91327 0.0
O13 O 0.08807 0.4706 0.96772 0.0
O14 O 0.1149 0.41733 1.02963 0.0
O15 O 0.08292 0.40018 0.03423 0.0
O16 O 0.0442 0.38575 1.00543 0.0
O17 O 0.05449 0.4169 0.95143 0.0
C18 C 0.08658 0.44679 0.13731 0.0
C19 C 0.04337 0.39693 0.95805 0.0
Dy20 Dy 0.81054 0.81303 0.37377 0.0
C21 C 0.76005 0.84569 0.18316 0.0
C22 C 0.82974 0.79088 0.46291 0.0
Dy23 Dy 0.78753 0.83778 0.27416 0.0
O24 O 0.81782 0.78104 0.42212 0.0
O25 O 0.83281 0.81274 0.4525 0.0
O26 O 0.77481 0.80757 0.40481 0.0
O27 O 0.78087 0.80649 0.31936 0.0
C28 C 0.76553 0.80368 0.35607 0.0
C29 C 0.82399 0.86002 0.32182 0.0
O30 O 0.76746 0.85281 0.34839 0.0
O31 O 0.79549 0.84584 0.41513 0.0
O32 O 0.7825 0.84842 0.18472 0.0
O33 O 0.7528 0.83958 0.23188 0.0
O34 O 0.8073 0.87039 0.29624 0.0
O35 O 0.82178 0.83821 0.31456 0.0
O36 O 0.82204 0.7888 0.29899 0.0
O37 O 0.8044 0.808 0.22655 0.0
C38 C 0.77578 0.85578 0.40012 0.0
C39 C 0.81659 0.79043 0.24471 0.0
Dy40 Dy 0.42785 0.55927 0.51793 0.0
C41 C 0.36098 0.51876 0.6752 0.0
C42 C 0.45435 0.56841 0.42386 0.0
Dy43 Dy 0.393 0.53362 0.60038 0.0
O44 O 0.43243 0.5731 0.43124 0.0
O45 O 0.46221 0.55977 0.46965 0.0
O46 O 0.41543 0.59387 0.55465 0.0
O47 O 0.39309 0.5652 0.55387 0.0
C48 C 0.3956 0.58604 0.57198 0.0
C49 C 0.43395 0.51343 0.57999 0.0
O50 O 0.37783 0.52051 0.51831 0.0
O51 O 0.40597 0.53594 0.45968 0.0
O52 O 0.37191 0.50551 0.63805 0.0
O53 O 0.36662 0.54038 0.66893 0.0
O54 O 0.42241 0.51097 0.62601 0.0
O55 O 0.42213 0.52478 0.5471 0.0
O56 O 0.4477 0.56168 0.60154 0.0
O57 O 0.4153 0.55608 0.65818 0.0
C58 C 0.38724 0.52298 0.46806 0.0
C59 C 0.43759 0.56151 0.65228 0.0
Dy60 Dy 0.68087 0.18416 0.75635 0.0
C61 C 0.71121 0.11581 0.91684 0.0
C62 C 0.67557 0.21723 0.67768 0.0
Dy63 Dy 0.70267 0.14523 0.83242 0.0
O64 O 0.68302 0.22112 0.7286 0.0
O65 O 0.67034 0.1953 0.67025 0.0
O66 O 0.6452 0.17509 0.78655 0.0
O67 O 0.6715 0.14987 0.78297 0.0
C68 C 0.65121 0.15423 0.79971 0.0
C69 C 0.73235 0.17587 0.79242 0.0
O70 O 0.7044 0.12655 0.74716 0.0
O71 O 0.70107 0.16031 0.69698 0.0
O72 O 0.72606 0.1215 0.8789 0.0
O73 O 0.69129 0.12531 0.90673 0.0
O74 O 0.73894 0.15572 0.80874 0.0
O75 O 0.7115 0.17884 0.8058 0.0
O76 O 0.68119 0.20422 0.83967 0.0
O77 O 0.69072 0.17377 0.89649 0.0
C78 C 0.70585 0.13783 0.69987 0.0
C79 C 0.68423 0.19578 0.89002 0.0
Dy80 Dy 0.06451 0.58437 0.60977 0.0
C81 C 0.1054 0.52952 0.41466 0.0
C82 C 0.03635 0.59702 0.69966 0.0
Dy83 Dy 0.08615 0.55364 0.50629 0.0
O84 O 0.05875 0.60036 0.6982 0.0
O85 O 0.0297 0.58756 0.65181 0.0
O86 O 0.08635 0.61457 0.58648 0.0
O87 O 0.09803 0.5806 0.56655 0.0
C88 C 0.10186 0.6018 0.55945 0.0
C89 C 0.04117 0.54826 0.52652 0.0
O90 O 0.09723 0.53265 0.58178 0.0
O91 O 0.0805 0.55562 0.65529 0.0
O92 O 0.09478 0.52035 0.45631 0.0
O93 O 0.10735 0.5519 0.42581 0.0
O94 O 0.05043 0.54461 0.47749 0.0
O95 O 0.05692 0.55217 0.56196 0.0
O96 O 0.04427 0.59682 0.53746 0.0
O97 O 0.06953 0.58439 0.46554 0.0
C98 C 0.09212 0.5369 0.63647 0.0
C99 C 0.05067 0.59593 0.48391 0.0
Dy100 Dy 0.66559 0.79027 0.82446 0.0
C101 C 0.70938 0.86159 0.68518 0.0
C102 C 0.65759 0.76048 0.91113 0.0
Dy103 Dy 0.6897 0.82835 0.74819 0.0
O104 O 0.66593 0.75438 0.8616 0.0
O105 O 0.65267 0.78256 0.91185 0.0
O106 O 0.63071 0.80489 0.80213 0.0
O107 O 0.65998 0.82635 0.80395 0.0
C108 C 0.63885 0.8253 0.79117 0.0
C109 C 0.70889 0.78688 0.74212 0.0
O110 O 0.70249 0.84098 0.83385 0.0
O111 O 0.68936 0.80984 0.88458 0.0
O112 O 0.71899 0.85207 0.72747 0.0
O113 O 0.68805 0.85422 0.68023 0.0
O114 O 0.71186 0.80158 0.70384 0.0
O115 O 0.69921 0.79629 0.7849 0.0
O116 O 0.6607 0.77398 0.73654 0.0
O117 O 0.66557 0.80818 0.6888 0.0
C118 C 0.70104 0.82959 0.88089 0.0
C119 C 0.66018 0.78561 0.68946 0.0
Dy120 Dy 0.43628 0.43365 0.11812 0.0
C121 C 0.36478 0.45869 0.95725 0.0
C122 C 0.46603 0.42924 0.20829 0.0
Dy123 Dy 0.39494 0.4529 0.04402 0.0
O124 O 0.44924 0.41509 0.19355 0.0
O125 O 0.46729 0.44529 0.17183 0.0
O126 O 0.43044 0.39804 0.0772 0.0
O127 O 0.40255 0.42147 0.08715 0.0
C128 C 0.40874 0.40195 0.06562 0.0
C129 C 0.42092 0.48468 0.09683 0.0
O130 O 0.37667 0.4536 0.12701 0.0
O131 O 0.41059 0.45025 0.17953 0.0
O132 O 0.36885 0.47393 0.99806 0.0
O133 O 0.37649 0.43991 0.96542 0.0
O134 O 0.4004 0.48946 0.07837 0.0
O135 O 0.42738 0.46508 0.0767 0.0
O136 O 0.4563 0.4361 0.03604 0.0
O137 O 0.42444 0.44636 0.98174 0.0
C138 C 0.38818 0.45528 0.17532 0.0
C139 C 0.44681 0.44076 0.98672 0.0
Dy140 Dy 0.8043 0.17689 0.38201 0.0
C141 C 0.77125 0.10702 0.2078 0.0
C142 C 0.81167 0.20902 0.47086 0.0
Dy143 Dy 0.78158 0.13886 0.29326 0.0
O144 O 0.81614 0.18684 0.47103 0.0
O145 O 0.80391 0.21362 0.42158 0.0
O146 O 0.83979 0.16729 0.34721 0.0
O147 O 0.81306 0.14283 0.34276 0.0
C148 C 0.83343 0.14682 0.32704 0.0
C149 C 0.75575 0.17675 0.31356 0.0
O150 O 0.77318 0.12209 0.3745 0.0
O151 O 0.78526 0.15281 0.43667 0.0
O152 O 0.75731 0.11343 0.24875 0.0
O153 O 0.79147 0.11659 0.21675 0.0
O154 O 0.75229 0.16189 0.27186 0.0
O155 O 0.77034 0.16829 0.3462 0.0
O156 O 0.8035 0.19675 0.30468 0.0
O157 O 0.79959 0.16528 0.23968 0.0
C158 C 0.77552 0.13213 0.4259 0.0
C159 C 0.80364 0.1878 0.25237 0.0
Dy160 Dy 0.92382 0.56559 0.18513 0.0
C161 C 0.97178 0.60653 0.99693 0.0
C162 C 0.91287 0.54347 0.28326 0.0
Dy163 Dy 0.95311 0.59274 0.09589 0.0
O164 O 0.91545 0.56568 0.2781 0.0
O165 O 0.91541 0.53313 0.23361 0.0
O166 O 0.8915 0.58393 0.15872 0.0
O167 O 0.92382 0.60019 0.1517 0.0
C168 C 0.90267 0.60161 0.1397 0.0
C169 C 0.97416 0.55729 0.14194 0.0
O170 O 0.96723 0.61114 0.17315 0.0
O171 O 0.95337 0.58343 0.23324 0.0
O172 O 0.96534 0.58568 1.00766 0.0
O173 O 0.96773 0.6206 0.04074 0.0
O174 O 0.98502 0.5751 0.1236 0.0
O175 O 0.95309 0.55861 0.12978 0.0
O176 O 0.91612 0.54396 0.10372 0.0
O177 O 0.92464 0.57434 0.04672 0.0
C178 C 0.96675 0.60159 0.22269 0.0
C179 C 0.9162 0.55315 0.05327 0.0
Dy180 Dy 0.18233 0.16093 0.90987 0.0
C181 C 0.12685 0.20051 0.72896 0.0
C182 C 0.21225 0.15531 0.999 0.0
Dy183 Dy 0.14801 0.1853 0.82448 0.0
O184 O 0.19077 0.14828 0.99667 0.0
O185 O 0.21735 0.16462 0.95198 0.0
O186 O 0.17145 0.1257 0.87576 0.0
O187 O 0.14841 0.15389 0.87172 0.0
C188 C 0.15209 0.13306 0.85467 0.0
C189 C 0.1801 0.21219 0.87593 0.0
O190 O 0.12679 0.18967 0.90342 0.0
O191 O 0.15831 0.1838 0.96282 0.0
O192 O 0.12776 0.21175 0.77752 0.0
O193 O 0.1358 0.17998 0.73404 0.0
O194 O 0.16096 0.22015 0.85632 0.0
O195 O 0.18193 0.19122 0.86012 0.0
O196 O 0.2038 0.15625 0.83035 0.0
O197 O 0.1745 0.16661 0.76894 0.0
C198 C 0.13684 0.19112 0.95373 0.0
C199 C 0.19543 0.15799 0.7787 0.0
Dy200 Dy 0.59544 0.46347 0.54651 0.0
C201 C 0.52753 0.42958 0.70678 0.0
C202 C 0.62547 0.4778 0.46634 0.0
Dy203 Dy 0.55719 0.43698 0.61713 0.0
O204 O 0.61867 0.49012 0.51034 0.0
O205 O 0.61659 0.45702 0.46742 0.0
O206 O 0.58361 0.49814 0.58411 0.0
O207 O 0.56122 0.46979 0.57842 0.0
C208 C 0.56393 0.48987 0.60036 0.0
C209 C 0.58895 0.41059 0.56131 0.0
O210 O 0.53744 0.43822 0.5346 0.0
O211 O 0.56807 0.45294 0.48197 0.0
O212 O 0.54535 0.41677 0.6916 0.0
O213 O 0.52517 0.44562 0.67067 0.0
O214 O 0.56809 0.40326 0.57276 0.0
O215 O 0.59239 0.43032 0.58546 0.0
O216 O 0.6138 0.46414 0.62844 0.0
O217 O 0.58064 0.4558 0.68003 0.0
C218 C 0.54653 0.44459 0.48596 0.0
C219 C 0.60224 0.46366 0.67649 0.0
Dy220 Dy 0.28413 0.84707 0.32831 0.0
C221 C 0.31378 0.7786 0.48748 0.0
C222 C 0.27194 0.87336 0.24029 0.0
Dy223 Dy 0.309 0.81139 0.40862 0.0
O224 O 0.25787 0.86604 0.27809 0.0
O225 O 0.29307 0.86748 0.25271 0.0
O226 O 0.24917 0.83237 0.3506 0.0
O227 O 0.27903 0.81297 0.35627 0.0
C228 C 0.25801 0.81347 0.36882 0.0
C229 C 0.33614 0.84289 0.36397 0.0
O230 O 0.31319 0.79115 0.32592 0.0
O231 O 0.30024 0.81976 0.26718 0.0
O232 O 0.32446 0.79859 0.48874 0.0
O233 O 0.30113 0.77647 0.44256 0.0
O234 O 0.34382 0.8229 0.37967 0.0
O235 O 0.31536 0.84601 0.3794 0.0
O236 O 0.27921 0.86668 0.41167 0.0
O237 O 0.28794 0.83517 0.46647 0.0
C238 C 0.30952 0.79889 0.27502 0.0
C239 C 0.27971 0.85647 0.46054 0.0
Dy240 Dy 0.9216 0.44674 0.67726 0.0
C241 C 0.9698 0.40155 0.48081 0.0
C242 C 0.903 0.46986 0.772 0.0
Dy243 Dy 0.94325 0.41553 0.57316 0.0
O244 O 0.91219 0.47962 0.72918 0.0
O245 O 0.90203 0.44743 0.76033 0.0
O246 O 0.95727 0.45856 0.70033 0.0
O247 O 0.94949 0.44871 0.61765 0.0
C248 C 0.96565 0.45434 0.65056 0.0
C249 C 0.90775 0.39698 0.62835 0.0
O250 O 0.96542 0.40555 0.64456 0.0
O251 O 0.94037 0.41711 0.71769 0.0
O252 O 0.94722 0.40005 0.48372 0.0
O253 O 0.97757 0.4101 0.52865 0.0
O254 O 0.92331 0.38467 0.60041 0.0
O255 O 0.91036 0.41825 0.61991 0.0
O256 O 0.90789 0.46584 0.60072 0.0
O257 O 0.92573 0.44332 0.52758 0.0
C258 C 0.95954 0.40639 0.69842 0.0
C259 C 0.9129 0.46127 0.54597 0.0
Dy260 Dy 0.29748 0.17132 0.4219 0.0
C261 C 0.34024 0.22432 0.24154 0.0
C262 C 0.28045 0.15001 0.51421 0.0
Dy263 Dy 0.32757 0.19626 0.32664 0.0
O264 O 0.26879 0.15429 0.46942 0.0
O265 O 0.30204 0.15582 0.50663 0.0
O266 O 0.26831 0.19637 0.419 0.0
O267 O 0.30047 0.20468 0.38709 0.0
C268 C 0.27945 0.21007 0.38689 0.0
C269 C 0.34455 0.1576 0.36996 0.0
O270 O 0.33933 0.21676 0.40335 0.0
O271 O 0.32405 0.19323 0.47163 0.0
O272 O 0.33019 0.2311 0.28828 0.0
O273 O 0.34406 0.20199 0.24168 0.0
O274 O 0.35773 0.17401 0.35135 0.0
O275 O 0.32371 0.16185 0.35972 0.0
O276 O 0.28196 0.15511 0.34015 0.0
O277 O 0.29783 0.18107 0.27801 0.0
C278 C 0.33676 0.21128 0.45642 0.0
C279 C 0.28329 0.16408 0.28932 0.0
Dy280 Dy 0.5861 0.53957 0.09896 0.0
C281 C 0.52296 0.5713 0.92312 0.0
C282 C 0.61896 0.52224 0.16766 0.0
Dy283 Dy 0.54975 0.56369 1.01718 0.0
O284 O 0.60952 0.51099 0.125 0.0
O285 O 0.61114 0.54349 0.17117 0.0
O286 O 0.55822 0.51468 0.12244 0.0
O287 O 0.55774 0.52936 0.04473 0.0
C288 C 0.54663 0.51691 0.07666 0.0
C289 C 0.58102 0.59183 0.06983 0.0
O290 O 0.5302 0.56444 0.10168 0.0
O291 O 0.56306 0.56087 0.15761 0.0
O292 O 0.54475 0.57665 0.92993 0.0
O293 O 0.51534 0.56288 0.96947 0.0
O294 O 0.56089 0.599 0.05305 0.0
O295 O 0.58406 0.57105 0.05219 0.0
O296 O 0.60316 0.53011 1.01697 0.0
O297 O 0.57306 0.54172 0.95898 0.0
C298 C 0.54039 0.56464 0.15229 0.0
C299 C 0.59331 0.53128 0.96707 0.0
Dy300 Dy 0.19814 0.84776 0.8501 0.0
C301 C 0.17269 0.77853 0.67135 0.0
C302 C 0.20984 0.87351 0.94619 0.0
Dy303 Dy 0.17483 0.81132 0.75973 0.0
O304 O 0.22382 0.86781 0.90503 0.0
O305 O 0.18907 0.86625 0.9332 0.0
O306 O 0.23368 0.83481 0.82334 0.0
O307 O 0.20487 0.81405 0.81224 0.0
C308 C 0.22584 0.81553 0.79998 0.0
C309 C 0.14555 0.84032 0.81482 0.0
O310 O 0.17217 0.79044 0.83665 0.0
O311 O 0.1837 0.81951 0.90308 0.0
O312 O 0.16208 0.79857 0.67338 0.0
O313 O 0.18365 0.77629 0.71824 0.0
O314 O 0.13922 0.82041 0.79074 0.0
O315 O 0.16619 0.84509 0.80087 0.0
O316 O 0.20177 0.86809 0.77256 0.0
O317 O 0.19488 0.83633 0.70923 0.0
C318 C 0.17564 0.79823 0.88953 0.0
C319 C 0.20192 0.85801 0.721 0.0
Dy320 Dy 0.55983 0.91911 0.58935 0.0
C321 C 0.60146 0.97188 0.41192 0.0
C322 C 0.53789 0.90663 0.6868 0.0
Dy323 Dy 0.58929 0.94456 0.49914 0.0
O324 O 0.53127 0.92239 0.65362 0.0
O325 O 0.55649 0.89649 0.66543 0.0
O326 O 0.52941 0.9355 0.55235 0.0
O327 O 0.5607 0.95346 0.55596 0.0
C328 C 0.53959 0.95505 0.54343 0.0
C329 C 0.6102 0.90969 0.54891 0.0
O330 O 0.59824 0.96719 0.57544 0.0
O331 O 0.585 0.9418 0.6413 0.0
O332 O 0.60355 0.94933 0.41117 0.0
O333 O 0.59333 0.9792 0.46045 0.0
O334 O 0.62153 0.927 0.52865 0.0
O335 O 0.58918 0.91064 0.53526 0.0
O336 O 0.54669 0.89935 0.51163 0.0
O337 O 0.56072 0.92636 0.44987 0.0
C338 C 0.59621 0.96102 0.62806 0.0
C339 C 0.54734 0.90834 0.46109 0.0
Dy340 Dy 0.3263 0.30125 0.85635 0.0
C341 C 0.26404 0.32959 0.67744 0.0
C342 C 0.34871 0.285 0.94845 0.0
Dy343 Dy 0.29415 0.32563 0.76718 0.0
O344 O 0.34705 0.27428 0.89952 0.0
O345 O 0.33954 0.30561 0.94592 0.0
O346 O 0.3127 0.2665 0.82614 0.0
O347 O 0.29267 0.29588 0.81872 0.0
C348 C 0.29398 0.27467 0.80487 0.0
C349 C 0.32532 0.3527 0.8223 0.0
O350 O 0.27173 0.33087 0.84463 0.0
O351 O 0.29907 0.31999 0.91053 0.0
O352 O 0.28562 0.33645 0.6785 0.0
O353 O 0.259 0.3217 0.72603 0.0
O354 O 0.30618 0.36074 0.80138 0.0
O355 O 0.32803 0.33168 0.80623 0.0
O356 O 0.34794 0.29511 0.77914 0.0
O357 O 0.31739 0.30085 0.71727 0.0
C358 C 0.27849 0.32878 0.89752 0.0
C359 C 0.3383 0.29265 0.72863 0.0
Dy360 Dy 0.93984 0.06213 1.01932 0.0
C361 C 0.87012 0.02281 0.17141 0.0
C362 C 0.96988 0.0676 0.93015 0.0
Dy363 Dy 0.89995 0.03711 0.0903 0.0
O364 O 0.95286 0.0815 0.94505 0.0
O365 O 0.97131 0.05146 0.96627 0.0
O366 O 0.93211 0.0965 0.06222 0.0
O367 O 0.90547 0.07108 0.05453 0.0
C368 C 0.91122 0.09066 0.07757 0.0
C369 C 0.93192 0.00981 0.03842 0.0
O370 O 0.88159 0.03767 1.00772 0.0
O371 O 0.91476 0.0462 0.95596 0.0
O372 O 0.87489 0.01141 0.12448 0.0
O373 O 0.8809 0.04269 0.17285 0.0
O374 O 0.91237 0.00164 0.05589 0.0
O375 O 0.93352 0.03021 0.058 0.0
O376 O 0.95939 0.05905 0.1018 0.0
O377 O 0.92772 0.04658 0.15471 0.0
C378 C 0.89282 0.03931 0.95937 0.0
C379 C 0.94983 0.05336 0.15056 0.0
Dy380 Dy 0.18045 0.69067 0.24295 0.0
C381 C 0.22101 0.62865 0.40835 0.0
C382 C 0.17578 0.72328 0.16383 0.0
Dy383 Dy 0.20506 0.655 0.32385 0.0
O384 O 0.16604 0.70282 0.16123 0.0
O385 O 0.18746 0.72598 0.21018 0.0
O386 O 0.14526 0.6811 0.27173 0.0
O387 O 0.17263 0.65691 0.2768 0.0
C388 C 0.15203 0.66165 0.29228 0.0
C389 C 0.23166 0.68782 0.28001 0.0
O390 O 0.20777 0.63463 0.241 0.0
O391 O 0.2008 0.66627 0.18552 0.0
O392 O 0.2322 0.6331 0.36297 0.0
O393 O 0.20024 0.63745 0.406 0.0
O394 O 0.24018 0.66905 0.29939 0.0
O395 O 0.21078 0.68854 0.29337 0.0
O396 O 0.1778 0.71138 0.32568 0.0
O397 O 0.19019 0.68273 0.38513 0.0
C398 C 0.20793 0.64465 0.19194 0.0
C399 C 0.18154 0.7038 0.37678 0.0
Dy400 Dy 0.55396 0.07577 0.1019 0.0
C401 C 0.6125 0.03242 0.91912 0.0
C402 C 0.52448 0.08094 0.19323 0.0
Dy403 Dy 0.5855 0.05421 1.00113 0.0
O404 O 0.54397 0.09207 0.18763 0.0
O405 O 0.52109 0.06747 0.14859 0.0
O406 O 0.56646 0.11147 0.0841 0.0
O407 O 0.58789 0.08264 0.06448 0.0
C408 C 0.58549 0.10423 0.05939 0.0
C409 C 0.54417 0.03585 1.00855 0.0
O410 O 0.601 0.03711 0.07713 0.0
O411 O 0.57738 0.05337 0.14887 0.0
O412 O 0.6058 0.02367 0.96547 0.0
O413 O 0.6063 0.05426 0.92009 0.0
O414 O 0.55585 0.03512 0.96249 0.0
O415 O 0.55626 0.04334 0.04962 0.0
O416 O 0.53298 0.08418 1.02777 0.0
O417 O 0.56196 0.08018 0.95921 0.0
C418 C 0.59427 0.03932 0.13087 0.0
C419 C 0.54058 0.0866 0.97587 0.0
Dy420 Dy 0.14816 0.2836 0.34127 0.0
C421 C 0.20544 0.33398 0.18284 0.0
C422 C 0.13559 0.25544 0.42692 0.0
Dy423 Dy 0.17643 0.31163 0.25429 0.0
O424 O 0.13283 0.27788 0.42711 0.0
O425 O 0.14448 0.24828 0.37879 0.0
O426 O 0.11682 0.30547 0.32595 0.0
O427 O 0.14989 0.31974 0.31676 0.0
C428 C 0.12853 0.32323 0.30937 0.0
C429 C 0.18268 0.2656 0.24722 0.0
O430 O 0.19559 0.32234 0.33548 0.0
O431 O 0.17655 0.29829 0.39621 0.0
O432 O 0.21177 0.32177 0.22435 0.0
O433 O 0.18282 0.33554 0.18267 0.0
O434 O 0.18302 0.2787 0.20517 0.0
O435 O 0.18018 0.27816 0.29195 0.0
O436 O 0.13451 0.26833 0.25892 0.0
O437 O 0.14452 0.29978 0.20593 0.0
C438 C 0.19289 0.3137 0.38598 0.0
C439 C 0.13369 0.27951 0.2114 0.0
Dy440 Dy 0.93404 0.93858 0.62916 0.0
C441 C 0.86594 0.97783 0.47299 0.0
C442 C 0.96236 0.93103 0.71962 0.0
Dy443 Dy 0.89774 0.96253 0.54757 0.0
O444 O 0.94248 0.92092 0.70935 0.0
O445 O 0.96722 0.94444 0.67887 0.0
O446 O 0.92713 0.90371 0.58492 0.0
O447 O 0.90131 0.9295 0.58741 0.0
C448 C 0.90686 0.9097 0.56651 0.0
C449 C 0.93378 0.98832 0.58162 0.0
O450 O 0.87926 0.96927 0.63075 0.0
O451 O 0.90759 0.95413 0.68923 0.0
O452 O 0.87284 0.98929 0.51828 0.0
O453 O 0.87529 0.95721 0.47075 0.0
O454 O 0.92307 0.99123 0.53488 0.0
O455 O 0.92352 0.97318 0.60808 0.0
O456 O 0.9556 0.94157 0.55037 0.0
O457 O 0.92516 0.94689 0.4879 0.0
C458 C 0.88763 0.96501 0.6813 0.0
C459 C 0.94751 0.94276 0.49822 0.0
Dy460 Dy 0.31634 0.69119 0.89287 0.0
C461 C 0.27049 0.63068 0.71667 0.0
C462 C 0.32028 0.72447 0.98002 0.0
Dy463 Dy 0.28897 0.65645 0.80592 0.0
O464 O 0.32998 0.70396 0.97857 0.0
O465 O 0.30946 0.72691 0.93304 0.0
O466 O 0.35078 0.67977 0.85903 0.0
O467 O 0.32213 0.6568 0.85075 0.0
C468 C 0.34282 0.66044 0.83493 0.0
C469 C 0.26476 0.69113 0.85871 0.0
O470 O 0.28632 0.6362 0.88362 0.0
O471 O 0.29598 0.66738 0.94607 0.0
O472 O 0.25995 0.6364 0.7634 0.0
O473 O 0.29188 0.63797 0.71983 0.0
O474 O 0.25508 0.67252 0.83671 0.0
O475 O 0.28546 0.69057 0.84388 0.0
O476 O 0.31909 0.7114 0.81466 0.0
O477 O 0.30458 0.68302 0.74993 0.0
C478 C 0.28759 0.64615 0.93511 0.0
C479 C 0.31426 0.70374 0.76225 0.0
Dy480 Dy 0.40946 0.05895 0.6907 0.0
C481 C 0.46025 0.08995 0.49285 0.0
C482 C 0.39624 0.03256 0.77921 0.0
Dy483 Dy 0.44047 0.07985 0.59381 0.0
O484 O 0.39666 0.05526 0.78077 0.0
O485 O 0.40235 0.02481 0.72934 0.0
O486 O 0.37837 0.07767 0.65622 0.0
O487 O 0.41187 0.09112 0.64759 0.0
C488 C 0.39112 0.09353 0.63387 0.0
C489 C 0.45971 0.04749 0.65405 0.0
O490 O 0.45536 0.10041 0.66778 0.0
O491 O 0.43867 0.07798 0.73686 0.0
O492 O 0.45624 0.06939 0.51032 0.0
O493 O 0.45338 0.10565 0.53108 0.0
O494 O 0.4714 0.06334 0.62935 0.0
O495 O 0.43888 0.04825 0.63915 0.0
O496 O 0.40226 0.03401 0.61708 0.0
O497 O 0.41246 0.05891 0.54769 0.0
C498 C 0.45378 0.0939 0.72051 0.0
C499 C 0.40309 0.03921 0.56358 0.0
Dy500 Dy 0.69173 0.64508 0.40197 0.0
C501 C 0.65946 0.69977 0.21053 0.0
C502 C 0.71175 0.63295 0.50154 0.0
Dy503 Dy 0.67487 0.67509 0.30067 0.0
O504 O 0.68961 0.63258 0.49038 0.0
O505 O 0.72298 0.63904 0.4572 0.0
O506 O 0.67211 0.61431 0.36513 0.0
O507 O 0.66035 0.648 0.35067 0.0
C508 C 0.65755 0.62667 0.33747 0.0
C509 C 0.71859 0.68143 0.33728 0.0
O510 O 0.65883 0.69601 0.37563 0.0
O511 O 0.67306 0.67412 0.44809 0.0
O512 O 0.66785 0.70861 0.25753 0.0
O513 O 0.65799 0.67726 0.21429 0.0
O514 O 0.71214 0.68256 0.28561 0.0
O515 O 0.70095 0.6778 0.36641 0.0
O516 O 0.71571 0.63303 0.33186 0.0
O517 O 0.69164 0.64328 0.25882 0.0
C518 C 0.6615 0.69216 0.43014 0.0
C519 C 0.71022 0.63246 0.27774 0.0
Dy520 Dy 0.09404 0.96576 0.04814 0.0
C521 C 0.02278 0.93606 0.20919 0.0
C522 C 0.1251 0.98089 0.97126 0.0
Dy523 Dy 0.05555 0.94002 0.12428 0.0
O524 O 0.11834 0.99251 1.0164 0.0
O525 O 0.11553 0.96034 0.96917 0.0
O526 O 0.07747 0.00092 0.07181 0.0
O527 O 0.0598 0.97047 0.07853 0.0
C528 C 0.05901 0.99155 0.09211 0.0
C529 C 0.08808 0.91302 0.07369 0.0
O530 O 0.03713 0.93953 0.03922 0.0
O531 O 0.06882 0.9505 0.98428 0.0
O532 O 0.01912 0.94438 0.16027 0.0
O533 O 0.04418 0.92876 0.21049 0.0
O534 O 0.0679 0.90513 0.08938 0.0
O535 O 0.09074 0.93371 0.0929 0.0
O536 O 0.11172 0.96775 0.13062 0.0
O537 O 0.07772 0.96315 0.18234 0.0
C538 C 0.0469 0.94339 0.98938 0.0
C539 C 0.09978 0.96976 0.17806 0.0
Dy540 Dy 0.79153 0.3344 0.82203 0.0
C541 C 0.81661 0.26357 0.9803 0.0
C542 C 0.77663 0.36544 0.7468 0.0
Dy543 Dy 0.81262 0.2965 0.9011 0.0
O544 O 0.76605 0.36024 0.79234 0.0
O545 O 0.79649 0.35454 0.74367 0.0
O546 O 0.75513 0.32189 0.83995 0.0
O547 O 0.78317 0.30058 0.8481 0.0
C548 C 0.76197 0.30218 0.85775 0.0
C549 C 0.84344 0.32563 0.85946 0.0
O550 O 0.8126 0.27634 0.81701 0.0
O551 O 0.80534 0.30683 0.75832 0.0
O552 O 0.81855 0.28593 0.98989 0.0
O553 O 0.81323 0.25918 0.92702 0.0
O554 O 0.84887 0.30541 0.87776 0.0
O555 O 0.82275 0.33071 0.8728 0.0
O556 O 0.78808 0.35287 0.90671 0.0
O557 O 0.78991 0.31936 0.95731 0.0
C558 C 0.81096 0.28466 0.76594 0.0
C559 C 0.78464 0.34165 0.95326 0.0
Dy560 Dy 0.41212 0.94666 0.18267 0.0
C561 C 0.46497 0.91756 0.9764 0.0
C562 C 0.38954 0.96023 0.28126 0.0
Dy563 Dy 0.4426 0.92527 0.07894 0.0
O564 O 0.38294 0.96486 0.23105 0.0
O565 O 0.40723 0.94631 0.27675 0.0
O566 O 0.42539 0.98263 0.17557 0.0
O567 O 0.44443 0.95385 0.14288 0.0
C568 C 0.44236 0.97558 0.14362 0.0
C569 C 0.41128 0.89697 0.12399 0.0
O570 O 0.46732 0.92091 0.14983 0.0
O571 O 0.44014 0.92477 0.22264 0.0
O572 O 0.44297 0.92131 0.98442 0.0
O573 O 0.4751 0.91767 1.02522 0.0
O574 O 0.42979 0.88954 0.09749 0.0
O575 O 0.40908 0.91845 0.11893 0.0
O576 O 0.39285 0.95992 0.10693 0.0
O577 O 0.4226 0.95349 0.04127 0.0
C578 C 0.46133 0.91913 0.2034 0.0
C579 C 0.40251 0.96286 0.05669 0.0
Dy580 Dy 0.79357 0.655 0.91494 0.0
C581 C 0.82759 0.7147 0.73773 0.0
C582 C 0.78049 0.62587 0.99692 0.0
Dy583 Dy 0.81713 0.69033 0.8321 0.0
O584 O 0.79828 0.63983 0.99988 0.0
O585 O 0.77115 0.62687 0.94781 0.0
O586 O 0.75746 0.66603 0.89781 0.0
O587 O 0.78575 0.68817 0.88328 0.0
C588 C 0.76452 0.68452 0.87436 0.0
C589 C 0.84436 0.65849 0.87864 0.0
O590 O 0.81753 0.71291 0.91208 0.0
O591 O 0.80814 0.68417 0.97442 0.0
O592 O 0.82111 0.7242 0.78612 0.0
O593 O 0.82906 0.69237 0.74239 0.0
O594 O 0.85184 0.67885 0.86537 0.0
O595 O 0.82395 0.65579 0.86184 0.0
O596 O 0.78832 0.63638 0.82908 0.0
O597 O 0.79272 0.66933 0.7773 0.0
C598 C 0.81502 0.70581 0.9642 0.0
C599 C 0.78587 0.64759 0.78175 0.0
Dy600 Dy 0.09996 0.03749 0.59876 0.0
C601 C 0.03147 0.06281 0.42712 0.0
C602 C 0.1337 0.02533 0.67197 0.0
Dy603 Dy 0.05976 0.05692 0.51905 0.0
O604 O 0.12771 0.01337 0.62664 0.0
O605 O 0.12236 0.04492 0.6747 0.0
O606 O 0.07826 0.00599 0.61253 0.0
O607 O 0.07484 0.02385 0.53947 0.0
C608 C 0.06692 0.00748 0.56612 0.0
C609 C 0.08409 0.08871 0.5807 0.0
O610 O 0.03986 0.05185 0.60018 0.0
O611 O 0.07222 0.05044 0.65917 0.0
O612 O 0.04998 0.07488 0.44024 0.0
O613 O 0.02778 0.04811 0.46602 0.0
O614 O 0.06302 0.09222 0.56353 0.0
O615 O 0.09161 0.06972 0.55909 0.0
O616 O 0.11867 0.03362 0.51646 0.0
O617 O 0.08748 0.04345 0.4593 0.0
C618 C 0.04942 0.05178 0.65123 0.0
C619 C 0.10895 0.03565 0.46649 0.0
Dy620 Dy 0.70779 0.34136 0.36269 0.0
C621 C 0.68236 0.27133 0.18492 0.0
C622 C 0.72222 0.37131 0.44876 0.0
Dy623 Dy 0.68659 0.30428 0.27295 0.0
O624 O 0.73254 0.3676 0.40093 0.0
O625 O 0.7028 0.35969 0.44824 0.0
O626 O 0.74413 0.3286 0.34477 0.0
O627 O 0.716 0.30721 0.32876 0.0
C628 C 0.73734 0.30916 0.32068 0.0
C629 C 0.65609 0.33409 0.32236 0.0
O630 O 0.68344 0.28417 0.35083 0.0
O631 O 0.69201 0.31419 0.41755 0.0
O632 O 0.67514 0.29277 0.18475 0.0
O633 O 0.69124 0.26783 0.23378 0.0
O634 O 0.65048 0.31376 0.29979 0.0
O635 O 0.67688 0.33886 0.31003 0.0
O636 O 0.71333 0.3596 0.28262 0.0
O637 O 0.70989 0.32639 0.22305 0.0
C638 C 0.68501 0.29248 0.40386 0.0
C639 C 0.71638 0.34825 0.23318 0.0
H640 H 0.09806 0.49375 0.15859 0.0
H641 H 0.0936 0.42804 0.23744 0.0
H642 H 0.10073 0.4473 0.3283 0.0
H643 H 0.10469 0.48298 0.38815 0.0
H644 H 0.11044 0.54904 0.31269 0.0
H645 H 0.10679 0.52966 0.21913 0.0
C646 C 0.09909 0.48361 0.19546 0.0
C647 C 0.09486 0.45936 0.19042 0.0
C648 C 0.10335 0.49493 0.24895 0.0
C649 C 0.09632 0.4467 0.2393 0.0
C650 C 0.10047 0.45771 0.29179 0.0
C651 C 0.10564 0.49312 0.35121 0.0
C652 C 0.10786 0.51748 0.35779 0.0
C653 C 0.10345 0.48185 0.29748 0.0
C654 C 0.10895 0.53027 0.30916 0.0
C655 C 0.10666 0.51916 0.25546 0.0
H656 H 0.69593 0.86784 0.57736 0.0
H657 H 0.75466 0.87449 0.68842 0.0
H658 H 0.78075 0.877 0.60841 0.0
H659 H 0.78747 0.86997 0.50723 0.0
H660 H 0.72888 0.86257 0.39578 0.0
H661 H 0.70235 0.8681 0.47504 0.0
C662 C 0.71434 0.87065 0.58408 0.0
C663 C 0.72335 0.87065 0.63881 0.0
C664 C 0.72941 0.87151 0.53757 0.0
C665 C 0.74727 0.87428 0.64676 0.0
C666 C 0.76226 0.87553 0.60091 0.0
C667 C 0.76891 0.87015 0.50007 0.0
C668 C 0.76027 0.86545 0.44555 0.0
C669 C 0.75365 0.873 0.5461 0.0
C670 C 0.73612 0.86605 0.43714 0.0
C671 C 0.72086 0.86904 0.48265 0.0
H672 H 0.35587 0.47385 0.70247 0.0
H673 H 0.34541 0.5445 0.76663 0.0
H674 H 0.34115 0.53111 0.86149 0.0
H675 H 0.34825 0.50042 0.92737 0.0
H676 H 0.3607 0.43007 0.86341 0.0
H677 H 0.35587 0.44208 0.76754 0.0
C678 C 0.35192 0.48622 0.73698 0.0
C679 C 0.35132 0.51016 0.72771 0.0
C680 C 0.35022 0.47846 0.79169 0.0
C681 C 0.34609 0.526 0.77273 0.0
C682 C 0.34385 0.51836 0.8271 0.0
C683 C 0.3492 0.4876 0.89251 0.0
C684 C 0.35522 0.46448 0.90232 0.0
C685 C 0.34707 0.49479 0.83738 0.0
C686 C 0.35629 0.44802 0.85686 0.0
C687 C 0.35367 0.45492 0.80198 0.0
H688 H 0.72672 0.10131 0.17197 0.0
H689 H 0.79773 0.09642 0.11544 0.0
H690 H 0.78484 0.09502 1.01796 0.0
H691 H 0.75397 0.1021 0.9498 0.0
H692 H 0.68313 0.10904 1.00659 0.0
H693 H 0.69525 0.10244 0.10249 0.0
C694 C 0.73932 0.09918 0.13832 0.0
C695 C 0.76318 0.09914 0.15101 0.0
C696 C 0.7318 0.09918 0.08223 0.0
C697 C 0.77928 0.09651 0.10687 0.0
C698 C 0.77192 0.09592 0.05104 0.0
C699 C 0.74111 0.10155 0.98293 0.0
C700 C 0.71771 0.1063 0.97117 0.0
C701 C 0.7483 0.0983 0.03829 0.0
C702 C 0.70126 0.10553 1.01454 0.0
C703 C 0.70821 0.10188 0.0695 0.0
H704 H 0.91011 0.50508 1.0298 0.0
H705 H 0.90516 0.57147 0.95443 0.0
H706 H 0.8997 0.55212 0.8629 0.0
H707 H 0.89959 0.5165 0.80098 0.0
H708 H 0.9022 0.4497 0.87374 0.0
H709 H 0.90498 0.46878 0.96776 0.0
C710 C 0.90733 0.51532 0.99363 0.0
C711 C 0.90843 0.53994 1.00006 0.0
C712 C 0.90393 0.50392 0.93965 0.0
C713 C 0.90481 0.55262 0.95178 0.0
C714 C 0.90166 0.54153 0.89879 0.0
C715 C 0.90032 0.50607 0.83743 0.0
C716 C 0.90066 0.48159 0.8297 0.0
C717 C 0.90172 0.51721 0.89176 0.0
C718 C 0.9017 0.46852 0.87792 0.0
C719 C 0.90345 0.47949 0.93199 0.0
H720 H 0.2433 0.15699 0.76461 0.0
H721 H 0.1789 0.14301 0.67742 0.0
H722 H 0.1997 0.13683 0.58934 0.0
H723 H 0.23548 0.13931 0.53452 0.0
H724 H 0.30031 0.15352 0.61869 0.0
H725 H 0.28031 0.15527 0.70961 0.0
C726 C 0.23391 0.15214 0.72652 0.0
C727 C 0.20945 0.1508 0.72794 0.0
C728 C 0.24609 0.14877 0.67497 0.0
C729 C 0.19764 0.14456 0.67783 0.0
C730 C 0.20953 0.14097 0.62715 0.0
C731 C 0.24534 0.1423 0.57283 0.0
C732 C 0.26938 0.14631 0.5696 0.0
C733 C 0.23366 0.14363 0.62485 0.0
C734 C 0.28182 0.15024 0.61981 0.0
C735 C 0.27032 0.15143 0.67191 0.0
H736 H 0.63397 0.54202 0.26686 0.0
H737 H 0.62748 0.47603 0.17416 0.0
H738 H 0.63349 0.45553 0.25976 0.0
H739 H 0.63239 0.45673 0.36297 0.0
H740 H 0.63815 0.52278 0.45568 0.0
H741 H 0.64119 0.54277 0.3684 0.0
C742 C 0.63464 0.52316 0.26515 0.0
C743 C 0.62981 0.51056 0.21458 0.0
C744 C 0.63763 0.51145 0.31484 0.0
C745 C 0.63091 0.48614 0.21277 0.0
C746 C 0.63419 0.47437 0.26183 0.0
C747 C 0.63508 0.4754 0.36401 0.0
C748 C 0.63456 0.4883 0.41556 0.0
C749 C 0.63632 0.48687 0.31351 0.0
C750 C 0.63823 0.51247 0.41642 0.0
C751 C 0.63982 0.52396 0.36648 0.0
H752 H 0.2278 0.88096 0.20577 0.0
H753 H 0.2988 0.88081 0.14862 0.0
H754 H 0.28572 0.88402 0.05198 0.0
H755 H 0.25401 0.88143 0.98263 0.0
H756 H 0.18303 0.88033 0.03981 0.0
H757 H 0.19611 0.88339 0.13722 0.0
C758 C 0.24042 0.88218 0.17232 0.0
C759 C 0.26426 0.88051 0.18441 0.0
C760 C 0.23273 0.88355 0.11663 0.0
C761 C 0.28038 0.88208 0.14055 0.0
C762 C 0.27288 0.88376 0.08516 0.0
C763 C 0.24139 0.88242 1.01642 0.0
C764 C 0.21756 0.88049 1.00392 0.0
C765 C 0.24909 0.88372 0.07248 0.0
C766 C 0.20145 0.88175 0.0482 0.0
C767 C 0.20894 0.88336 0.10399 0.0
H768 H 0.61128 0.04401 0.80884 0.0
H769 H 0.62313 0.98652 0.91386 0.0
H770 H 0.62059 0.95922 0.83258 0.0
H771 H 0.61015 0.95109 0.73346 0.0
H772 H 0.59926 0.00833 0.62721 0.0
H773 H 0.60634 0.03605 0.70641 0.0
C774 C 0.61401 0.02558 0.81364 0.0
C775 C 0.61728 0.01739 0.86766 0.0
C776 C 0.61225 0.00977 0.7664 0.0
C777 C 0.62058 0.99338 0.87296 0.0
C778 C 0.61894 0.97766 0.82644 0.0
C779 C 0.60967 0.96964 0.72746 0.0
C780 C 0.60399 0.97755 0.67442 0.0
C781 C 0.61396 0.98556 0.77326 0.0
C782 C 0.60367 0.00168 0.6674 0.0
C783 C 0.60761 0.0176 0.71286 0.0
H784 H 0.28787 0.33375 1.00955 0.0
H785 H 0.23139 0.3363 0.89202 0.0
H786 H 0.20374 0.34104 0.96976 0.0
H787 H 0.19517 0.34069 0.07209 0.0
H788 H 0.25213 0.33722 0.18789 0.0
H789 H 0.27978 0.33698 0.11042 0.0
C790 C 0.26954 0.33557 1.00069 0.0
C791 C 0.26184 0.33445 0.94458 0.0
C792 C 0.25367 0.33815 0.04569 0.0
C793 C 0.23795 0.33708 0.93449 0.0
C794 C 0.22206 0.33972 0.97911 0.0
C795 C 0.21365 0.34051 0.08036 0.0
C796 C 0.22152 0.33906 0.13599 0.0
C797 C 0.22963 0.33983 0.03504 0.0
C798 C 0.24555 0.33844 0.14571 0.0
C799 C 0.26142 0.33814 0.10129 0.0
H800 H 0.86064 0.04337 0.27433 0.0
H801 H 0.85888 0.97733 0.18051 0.0
H802 H 0.85327 0.95718 0.26688 0.0
H803 H 0.856 0.95793 0.36991 0.0
H804 H 0.85749 0.02396 0.46382 0.0
H805 H 0.85545 0.04442 0.37705 0.0
C806 C 0.85837 0.02464 0.27274 0.0
C807 C 0.86058 0.01184 0.22124 0.0
C808 C 0.85533 0.01309 0.32279 0.0
C809 C 0.85741 0.98759 0.21967 0.0
C810 C 0.85434 0.97601 0.26916 0.0
C811 C 0.85513 0.97678 0.37142 0.0
C812 C 0.85731 0.98939 0.42316 0.0
C813 C 0.85431 0.98849 0.32115 0.0
C814 C 0.856 0.01382 0.42451 0.0
C815 C 0.85503 0.02557 0.3748 0.0
H816 H 0.20203 0.6237 0.51221 0.0
H817 H 0.26668 0.61882 0.42115 0.0
H818 H 0.288 0.61644 0.5087 0.0
H819 H 0.28874 0.62117 0.61208 0.0
H820 H 0.22406 0.62512 0.70311 0.0
H821 H 0.20248 0.6221 0.61535 0.0
C822 C 0.22072 0.62152 0.51151 0.0
C823 C 0.23273 0.6217 0.46019 0.0
C824 C 0.23299 0.62027 0.56231 0.0
C825 C 0.25697 0.61882 0.46003 0.0
C826 C 0.26924 0.61759 0.51021 0.0
C827 C 0.26993 0.62081 0.61267 0.0
C828 C 0.25807 0.62364 0.6641 0.0
C829 C 0.25752 0.61912 0.56177 0.0
C830 C 0.23367 0.62305 0.66414 0.0
C831 C 0.22126 0.62145 0.61386 0.0
H832 H 0.38334 0.04445 0.46054 0.0
H833 H 0.41016 0.99269 0.5672 0.0
H834 H 0.40655 0.9629 0.491 0.0
H835 H 0.39946 0.95229 0.39065 0.0
H836 H 0.36992 0.0033 0.28595 0.0
H837 H 0.37046 0.03228 0.36439 0.0
C838 C 0.38798 0.02655 0.46731 0.0
C839 C 0.39709 0.02088 0.51955 0.0
C840 C 0.38542 0.00928 0.4234 0.0
C841 C 0.40292 -0.00244 0.52768 0.0
C842 C 0.401 0.98049 0.48391 0.0
C843 C 0.39258 0.96957 0.38545 0.0
C844 C 0.38475 0.97556 0.33226 0.0
C845 C 0.39274 0.98622 0.43115 0.0
C846 C 0.37593 -0.00191 0.32634 0.0
C847 C 0.37643 0.0148 0.37118 0.0
H848 H 0.79292 0.62937 0.10761 0.0
H849 H 0.73849 0.60469 0.99617 0.0
H850 H 0.71214 0.60156 0.07534 0.0
H851 H 0.70266 0.61224 0.17396 0.0
H852 H 0.75712 0.63577 0.28642 0.0
H853 H 0.78529 0.6326 0.20979 0.0
C854 C 0.77553 0.62261 0.10092 0.0
C855 C 0.7676 0.61765 0.04593 0.0
C856 C 0.7603 0.62096 0.14688 0.0
C857 C 0.74502 0.60881 0.03798 0.0
C858 C 0.72984 0.60716 0.08327 0.0
C859 C 0.72083 0.61601 0.18192 0.0
C860 C 0.72775 0.62438 0.23563 0.0
C861 C 0.73697 0.61417 0.13758 0.0
C862 C 0.75136 0.62912 0.24553 0.0
C863 C 0.76747 0.62754 0.20153 0.0
H864 H 0.13802 0.96042 0.87038 0.0
H865 H 0.13551 0.02658 0.96363 0.0
H866 H 0.14269 0.04681 0.87814 0.0
H867 H 0.14195 0.04585 0.77507 0.0
H868 H 0.14477 0.97977 0.68157 0.0
H869 H 0.14595 0.95947 0.76862 0.0
C870 C 0.13975 0.97921 0.87214 0.0
C871 C 0.13576 0.99199 0.92298 0.0
C872 C 0.14373 0.99081 0.82255 0.0
C873 C 0.13827 0.01632 0.92487 0.0
C874 C 0.14227 0.02796 0.87589 0.0
C875 C 0.14366 0.02706 0.77379 0.0
C876 C 0.14279 0.01433 0.72202 0.0
C877 C 0.1439 0.01543 0.82413 0.0
C878 C 0.14522 0.99 0.72092 0.0
C879 C 0.14566 0.97832 0.77077 0.0
H880 H 0.7053 0.37856 0.55516 0.0
H881 H 0.76819 0.38072 0.45748 0.0
H882 H 0.79137 0.38207 0.54268 0.0
H883 H 0.79387 0.37572 0.64404 0.0
H884 H 0.73093 0.37589 0.74208 0.0
H885 H 0.70789 0.38098 0.65838 0.0
C886 C 0.72402 0.38006 0.55271 0.0
C887 C 0.73498 0.37908 0.50009 0.0
C888 C 0.73736 0.38091 0.60209 0.0
C889 C 0.75928 0.38125 0.49749 0.0
C890 C 0.77262 0.38186 0.54627 0.0
C891 C 0.77518 0.37756 0.64722 0.0
C892 C 0.76415 0.37495 0.69898 0.0
C893 C 0.7619 0.38064 0.59871 0.0
C894 C 0.7399 0.37761 0.70261 0.0
C895 C 0.72663 0.3804 0.65464 0.0
H896 H 0.15195 0.35637 0.25571 0.0
H897 H 0.08486 0.32371 0.26667 0.0
H898 H 0.07177 0.34345 0.18451 0.0
H899 H 0.08016 0.3681 0.10626 0.0
H900 H 0.14684 0.40157 0.09589 0.0
H901 H 0.15976 0.38256 0.17953 0.0
C902 C 0.13441 0.3538 0.24034 0.0
C903 C 0.11947 0.33848 0.26678 0.0
C904 C 0.12716 0.36482 0.19235 0.0
C905 C 0.09669 0.33543 0.24697 0.0
C906 C 0.08927 0.34651 0.19965 0.0
C907 C 0.09749 0.37126 0.12245 0.0
C908 C 0.1125 0.38622 0.0952 0.0
C909 C 0.10452 0.36084 0.17135 0.0
C910 C 0.135 0.39002 0.11615 0.0
C911 C 0.14232 0.37933 0.1642 0.0
H912 H 0.86575 0.92148 0.52262 0.0
H913 H 0.91776 0.86774 0.51414 0.0
H914 H 0.89637 0.84689 0.4385 0.0
H915 H 0.86329 0.84484 0.37208 0.0
H916 H 0.8144 0.90162 0.37444 0.0
H917 H 0.83454 0.92085 0.45341 0.0
C918 C 0.87264 0.90547 0.50338 0.0
C919 C 0.89347 0.89642 0.52302 0.0
C920 C 0.86089 0.89425 0.45833 0.0
C921 C 0.90178 0.87514 0.49937 0.0
C922 C 0.88961 0.86327 0.456 0.0
C923 C 0.85722 0.86148 0.38982 0.0
C924 C 0.83747 0.87182 0.36743 0.0
C925 C 0.86927 0.87281 0.43461 0.0
C926 C 0.8297 0.89339 0.39061 0.0
C927 C 0.84111 0.90435 0.43604 0.0
H928 H 0.32844 0.62248 0.76868 0.0
H929 H 0.38602 0.66937 0.79825 0.0
H930 H 0.407 0.6509 0.71954 0.0
H931 H 0.40905 0.62212 0.64098 0.0
H932 H 0.3516 0.5757 0.60693 0.0
H933 H 0.33033 0.59351 0.68745 0.0
C934 C 0.34548 0.6287 0.75748 0.0
C935 C 0.35548 0.64748 0.78901 0.0
C936 C 0.35743 0.6182 0.71101 0.0
C937 C 0.37782 0.65503 0.77472 0.0
C938 C 0.38986 0.64453 0.72947 0.0
C939 C 0.3918 0.61599 0.65089 0.0
C940 C 0.38195 0.59754 0.61828 0.0
C941 C 0.37978 0.62628 0.69702 0.0
C942 C 0.35963 0.58975 0.63183 0.0
C943 C 0.34748 0.59993 0.67785 0.0
H944 H 0.61905 0.1704 0.87441 0.0
H945 H 0.658 0.10908 0.82209 0.0
H946 H 0.64266 0.08865 0.90147 0.0
H947 H 0.61884 0.08872 0.98699 0.0
H948 H 0.57816 0.14927 0.03591 0.0
H949 H 0.59417 0.16993 0.95783 0.0
C950 C 0.62388 0.15246 0.88002 0.0
C951 C 0.63961 0.14119 0.84291 0.0
C952 C 0.61509 0.14093 0.92573 0.0
C953 C 0.64588 0.11802 0.85048 0.0
C954 C 0.63725 0.10641 0.89594 0.0
C955 C 0.61344 0.10638 0.98022 0.0
C956 C 0.59724 0.1174 1.01652 0.0
C957 C 0.62204 0.1178 0.93415 0.0
C958 C 0.59064 0.14045 1.0083 0.0
C959 C 0.59963 0.15219 0.96348 0.0
H960 H 0.09401 0.64082 0.50618 0.0
H961 H 0.1388 0.5809 0.50523 0.0
H962 H 0.15858 0.59379 0.42103 0.0
H963 H 0.16222 0.62207 0.34624 0.0
H964 H 0.11525 0.68051 0.3475 0.0
H965 H 0.0969 0.66795 0.43222 0.0
C966 C 0.10829 0.63071 0.48796 0.0
C967 C 0.11519 0.61015 0.51194 0.0
C968 C 0.11891 0.63778 0.43904 0.0
C969 C 0.13338 0.59694 0.4874 0.0
C970 C 0.14456 0.60422 0.43922 0.0
C971 C 0.14797 0.63195 0.36524 0.0
C972 C 0.14023 0.65224 0.3409 0.0
C973 C 0.13731 0.62456 0.41433 0.0
C974 C 0.12156 0.6648 0.36534 0.0
C975 C 0.11109 0.65773 0.41404 0.0
H976 H 0.5894 0.87268 0.59267 0.0
H977 H 0.64939 0.91723 0.61029 0.0
H978 H 0.66181 0.89681 0.69216 0.0
H979 H 0.65614 0.86562 0.75695 0.0
H980 H 0.59773 0.81925 0.73568 0.0
H981 H 0.5835 0.84165 0.65846 0.0
C982 C 0.60523 0.8778 0.61442 0.0
C983 C 0.61856 0.89627 0.59552 0.0
C984 C 0.6123 0.8659 0.66118 0.0
C985 C 0.63901 0.90286 0.62383 0.0
C986 C 0.646 0.89132 0.67084 0.0
C987 C 0.64028 0.86046 0.73537 0.0
C988 C 0.62817 0.84069 0.75121 0.0
C989 C 0.63284 0.87276 0.68967 0.0
C990 C 0.60738 0.83441 0.72397 0.0
C991 C 0.59938 0.84706 0.67954 0.0
H992 H 0.36416 0.40895 0.03549 0.0
H993 H 0.42272 0.36382 1.00161 0.0
H994 H 0.40162 0.34383 0.92439 0.0
H995 H 0.36743 0.34101 0.86243 0.0
H996 H 0.31102 0.3895 0.88969 0.0
H997 H 0.33067 0.40703 0.97204 0.0
C998 C 0.37234 0.39483 1.0109 0.0
C999 C 0.3951 0.38819 1.02337 0.0
C1000 C 0.36064 0.38436 0.96469 0.0
C1001 C 0.40527 0.36942 0.9924 0.0
C1002 C 0.39328 0.3581 0.94802 0.0
C1003 C 0.35954 0.35548 0.88636 0.0
C1004 C 0.33789 0.36405 0.87001 0.0
C1005 C 0.37116 0.36578 0.93299 0.0
C1006 C 0.32778 0.38277 0.90123 0.0
C1007 C 0.33892 0.39266 0.94855 0.0
H1008 H 0.87174 0.15924 0.26953 0.0
H1009 H 0.82345 0.10287 0.28619 0.0
H1010 H 0.84142 0.08138 0.20615 0.0
H1011 H 0.87059 0.07924 0.12943 0.0
H1012 H 0.92199 0.13337 0.12248 0.0
H1013 H 0.90265 0.15554 0.19873 0.0
C1014 C 0.86528 0.14217 0.2559 0.0
C1015 C 0.84594 0.13289 0.28273 0.0
C1016 C 0.87609 0.12969 0.21087 0.0
C1017 C 0.83797 0.11063 0.26514 0.0
C1018 C 0.84825 0.09832 0.21946 0.0
C1019 C 0.8778 0.09558 0.14558 0.0
C1020 C 0.89796 0.10433 0.12111 0.0
C1021 C 0.86724 0.10777 0.19162 0.0
C1022 C 0.90656 0.12611 0.1408 0.0
C1023 C 0.89559 0.13879 0.18466 0.0
H1024 H 0.86669 0.59155 0.07065 0.0
H1025 H 0.92034 0.64234 0.1059 0.0
H1026 H 0.9079 0.66424 1.02602 0.0
H1027 H 0.88135 0.66895 0.94637 0.0
H1028 H 0.82916 0.61668 0.90939 0.0
H1029 H 0.84168 0.59512 0.98905 0.0
C1030 C 0.87544 0.60758 0.06121 0.0
C1031 C 0.89405 0.61565 0.09448 0.0
C1032 C 0.86867 0.61959 1.01443 0.0
C1033 C 0.90572 0.63605 0.08107 0.0
C1034 C 0.89872 0.64846 0.03529 0.0
C1035 C 0.87297 0.6527 0.95547 0.0
C1036 C 0.85431 0.64445 0.92241 0.0
C1037 C 0.88024 0.64035 1.00153 0.0
C1038 C 0.84355 0.62338 0.93447 0.0
C1039 C 0.85059 0.6111 0.98015 0.0
H1040 H 0.12672 0.08227 0.6233 0.0
H1041 H 0.0651 0.12402 0.64625 0.0
H1042 H 0.08087 0.14192 0.73323 0.0
H1043 H 0.11135 0.1439 0.80574 0.0
H1044 H 0.17097 0.09886 0.78666 0.0
H1045 H 0.15646 0.0833 0.69659 0.0
C1046 C 0.11666 0.09506 0.64784 0.0
C1047 C 0.09465 0.10144 0.6293 0.0
C1048 C 0.1253 0.10435 0.69902 0.0
C1049 C 0.08208 0.11871 0.66004 0.0
C1050 C 0.09099 0.1288 0.70995 0.0
C1051 C 0.12099 0.13053 0.78195 0.0
C1052 C 0.14206 0.12242 0.80284 0.0
C1053 C 0.11238 0.12139 0.73045 0.0
C1054 C 0.15454 0.10519 0.77171 0.0
C1055 C 0.14637 0.09642 0.71997 0.0
H1056 H 0.66614 0.37339 0.38881 0.0
H1057 H 0.6117 0.32406 0.34742 0.0
H1058 H 0.58642 0.34306 0.41746 0.0
H1059 H 0.57966 0.37312 0.49189 0.0
H1060 H 0.63373 0.4223 0.5365 0.0
H1061 H 0.65926 0.40389 0.46482 0.0
C1062 C 0.64876 0.36687 0.39527 0.0
C1063 C 0.6409 0.34725 0.36303 0.0
C1064 C 0.63425 0.37777 0.43657 0.0
C1065 C 0.61825 0.33909 0.37161 0.0
C1066 C 0.60374 0.34991 0.41185 0.0
C1067 C 0.59706 0.37977 0.48607 0.0
C1068 C 0.60476 0.39906 0.51937 0.0
C1069 C 0.61157 0.36912 0.44487 0.0
C1070 C 0.62735 0.4075 0.5112 0.0
C1071 C 0.64195 0.39699 0.47017 0.0
H1072 H 0.37132 0.82866 0.29667 0.0
H1073 H 0.32707 0.88751 0.33767 0.0
H1074 H 0.3462 0.90958 0.26553 0.0
H1075 H 0.37562 0.91184 0.19087 0.0
H1076 H 0.41891 0.85226 0.14907 0.0
H1077 H 0.39983 0.83055 0.22125 0.0
C1078 C 0.36598 0.84638 0.29004 0.0
C1079 C 0.34802 0.85661 0.32242 0.0
C1080 C 0.37672 0.85867 0.24812 0.0
C1081 C 0.34098 0.87941 0.31311 0.0
C1082 C 0.35184 0.89195 0.27189 0.0
C1083 C 0.38073 0.89406 0.19745 0.0
C1084 C 0.39859 0.8836 0.16492 0.0
C1085 C 0.3697 0.88171 0.23904 0.0
C1086 C 0.40515 0.8606 0.17366 0.0
C1087 C 0.39433 0.84823 0.215 0.0
H1088 H 0.9134 0.35638 0.676 0.0
H1089 H 0.86933 0.41686 0.67918 0.0
H1090 H 0.84505 0.40031 0.75197 0.0
H1091 H 0.83644 0.36796 0.81425 0.0
H1092 H 0.88277 0.30898 0.81188 0.0
H1093 H 0.90617 0.3257 0.7396 0.0
C1094 C 0.89842 0.36592 0.69246 0.0
C1095 C 0.89292 0.38759 0.67204 0.0
C1096 C 0.88504 0.35659 0.73469 0.0
C1097 C 0.87375 0.40001 0.6943 0.0
C1098 C 0.85993 0.39057 0.73585 0.0
C1099 C 0.85172 0.35892 0.79792 0.0
C1100 C 0.85781 0.33724 0.81817 0.0
C1101 C 0.86541 0.3688 0.75637 0.0
C1102 C 0.8777 0.3257 0.79704 0.0
C1103 C 0.8911 0.33519 0.75554 0.0
H1104 H 0.38273 0.16057 0.43565 0.0
H1105 H 0.32052 0.12049 0.40423 0.0
H1106 H 0.32854 0.09751 0.48523 0.0
H1107 H 0.35304 0.08935 0.56652 0.0
H1108 H 0.41495 0.13002 0.59761 0.0
H1109 H 0.40714 0.1524 0.51596 0.0
C1110 C 0.37117 0.14656 0.4461 0.0
C1111 C 0.35123 0.14204 0.41403 0.0
C1112 C 0.37561 0.13379 0.49331 0.0
C1113 C 0.33613 0.1241 0.42833 0.0
C1114 C 0.34059 0.11109 0.47481 0.0
C1115 C 0.36457 0.10332 0.55567 0.0
C1116 C 0.3844 0.1082 0.58804 0.0
C1117 C 0.36014 0.11596 0.50808 0.0
C1118 C 0.39949 0.12607 0.57326 0.0
C1119 C 0.39513 0.13879 0.52645 0.0
H1120 H 0.62141 0.57742 0.11274 0.0
H1121 H 0.5711 0.63266 0.12855 0.0
H1122 H 0.59104 0.64914 0.21192 0.0
H1123 H 0.62133 0.64609 0.28439 0.0
H1124 H 0.66822 0.58765 0.27431 0.0
H1125 H 0.65075 0.57368 0.18597 0.0
C1126 C 0.61468 0.59288 0.13497 0.0
C1127 C 0.59458 0.60349 0.11549 0.0
C1128 C 0.62543 0.60143 0.18445 0.0
C1129 C 0.5865 0.62408 0.14309 0.0
C1130 C 0.59778 0.63339 0.19097 0.0
C1131 C 0.62754 0.63023 0.26287 0.0
C1132 C 0.64586 0.61781 0.28587 0.0
C1133 C 0.61694 0.6219 0.2128 0.0
C1134 C 0.65391 0.59733 0.25773 0.0
C1135 C 0.64404 0.58941 0.20702 0.0
H1136 H 0.1558 0.88085 0.87528 0.0
H1137 H 0.1042 0.82681 0.85569 0.0
H1138 H 0.08221 0.84417 0.93433 0.0
H1139 H 0.07781 0.87413 1.01011 0.0
H1140 H 0.13042 0.92678 0.03567 0.0
H1141 H 0.15228 0.91015 0.95498 0.0
C1142 C 0.13995 0.87273 0.88894 0.0
C1143 C 0.13191 0.85234 0.86029 0.0
C1144 C 0.12767 0.88243 0.93566 0.0
C1145 C 0.11088 0.84244 0.87712 0.0
C1146 C 0.09831 0.85228 0.92235 0.0
C1147 C 0.09414 0.88187 0.99829 0.0
C1148 C 0.10237 0.9018 1.02834 0.0
C1149 C 0.10663 0.87212 0.95227 0.0
C1150 C 0.1236 0.91158 1.01265 0.0
C1151 C 0.13608 0.90209 0.9665 0.0
H1152 H 0.01281 0.54576 0.08669 0.0
H1153 H 0.95871 0.51905 0.19082 0.0
H1154 H 0.96962 0.47919 0.16121 0.0
H1155 H 0.99297 0.4529 0.10187 0.0
H1156 H 0.04606 0.47982 0.99538 0.0
H1157 H 0.03562 0.51961 1.02633 0.0
C1158 C 0.00382 0.53119 0.10406 0.0
C1159 C 0.98516 0.53488 0.14084 0.0
C1160 C 0.00905 0.50884 0.08402 0.0
C1161 C 0.97335 0.51616 0.16281 0.0
C1162 C 0.9792 0.49359 0.145 0.0
C1163 C 0.00181 0.46752 0.08431 0.0
C1164 C 0.02025 0.46391 0.04682 0.0
C1165 C -0.00351 0.48989 0.10426 0.0
C1166 C 0.03181 0.48267 1.02444 0.0
C1167 C 0.02615 0.50518 0.04283 0.0
H1168 H 0.77578 0.76479 0.29664 0.0
H1169 H 0.72589 0.79602 0.41274 0.0
H1170 H 0.7113 0.75734 0.43312 0.0
H1171 H 0.71296 0.71533 0.41623 0.0
H1172 H 0.76219 0.68481 0.29768 0.0
H1173 H 0.77941 0.72298 0.28551 0.0
C1174 C 0.76127 0.7632 0.32523 0.0
C1175 C 0.75136 0.78299 0.35223 0.0
C1176 C 0.75431 0.74125 0.33942 0.0
C1177 C 0.73307 0.78081 0.39034 0.0
C1178 C 0.72533 0.75883 0.40321 0.0
C1179 C 0.72811 0.71696 0.38959 0.0
C1180 C 0.73613 0.69777 0.35665 0.0
C1181 C 0.73616 0.739 0.37866 0.0
C1182 C 0.7559 0.69966 0.3231 0.0
C1183 C 0.76513 0.72147 0.31471 0.0
H1184 H 0.53928 0.50893 0.5234 0.0
H1185 H 0.54337 0.49983 0.70072 0.0
H1186 H 0.50173 0.50793 0.71086 0.0
H1187 H 0.46374 0.51031 0.66559 0.0
H1188 H 0.45966 0.51353 0.48584 0.0
H1189 H 0.50194 0.51404 0.47923 0.0
C1190 C 0.53109 0.50983 0.56448 0.0
C1191 C 0.54385 0.50425 0.61142 0.0
C1192 C 0.50717 0.51219 0.56872 0.0
C1193 C 0.53353 0.50465 0.66451 0.0
C1194 C 0.50978 0.50868 0.66993 0.0
C1195 C 0.4722 0.51098 0.62507 0.0
C1196 C 0.459 0.51168 0.5761 0.0
C1197 C 0.49632 0.51108 0.62175 0.0
C1198 C 0.46982 0.51291 0.52382 0.0
C1199 C 0.49384 0.51341 0.52013 0.0
H1200 H 0.72618 0.21369 0.73621 0.0
H1201 H 0.77048 0.18333 0.85729 0.0
H1202 H 0.779 0.22189 0.89985 0.0
H1203 H 0.76999 0.26343 0.90869 0.0
H1204 H 0.72539 0.29384 0.78815 0.0
H1205 H 0.71796 0.2554 0.74363 0.0
C1206 C 0.73816 0.21578 0.77096 0.0
C1207 C 0.74728 0.19609 0.79462 0.0
C1208 C 0.74115 0.23753 0.79807 0.0
C1209 C 0.76337 0.19848 0.83842 0.0
C1210 C 0.76755 0.22036 0.86395 0.0
C1211 C 0.75818 0.26139 0.87359 0.0
C1212 C 0.7484 0.28108 0.85125 0.0
C1213 C 0.75555 0.23973 0.84581 0.0
C1214 C 0.7328 0.27869 0.80641 0.0
C1215 C 0.72919 0.25691 0.77987 0.0
H1216 H 0.96768 0.49968 0.66407 0.0
H1217 H 0.0026 0.4395 0.58932 0.0
H1218 H 0.02683 0.46457 0.53335 0.0
H1219 H 0.03739 0.50336 0.50712 0.0
H1220 H 0.00305 0.56361 0.58313 0.0
H1221 H 0.97775 0.53849 0.63637 0.0
C1222 C 0.98113 0.49225 0.63666 0.0
C1223 C 0.98408 0.46821 0.63065 0.0
C1224 C 0.994 0.50654 0.6038 0.0
C1225 C 0.00067 0.45821 0.59421 0.0
C1226 C 0.01409 0.4724 0.56199 0.0
C1227 C 0.02378 0.51082 0.534 0.0
C1228 C 0.02156 0.53488 0.54189 0.0
C1229 C 0.01052 0.4965 0.56588 0.0
C1230 C 0.0046 0.5449 0.57725 0.0
C1231 C 0.99054 0.53066 0.60789 0.0
H1232 H 0.7789 0.7131 0.79738 0.0
H1233 H 0.7178 0.68429 0.8716 0.0
H1234 H 0.69331 0.71107 0.82234 0.0
H1235 H 0.69103 0.74756 0.77584 0.0
H1236 H 0.75225 0.7774 0.7052 0.0
H1237 H 0.77537 0.74425 0.73259 0.0
C1238 C 0.76025 0.7125 0.80172 0.0
C1239 C 0.75 0.69778 0.83905 0.0
C1240 C 0.74655 0.7278 0.77367 0.0
C1241 C 0.72584 0.69621 0.84374 0.0
C1242 C 0.71191 0.71133 0.81558 0.0
C1243 C 0.70928 0.74642 0.76566 0.0
C1244 C 0.72043 0.76481 0.74145 0.0
C1245 C 0.72229 0.72799 0.78312 0.0
C1246 C 0.74375 0.76323 0.72525 0.0
C1247 C 0.75689 0.74452 0.7412 0.0
H1248 H 0.44163 0.50928 1.02288 0.0
H1249 H 0.439 0.49658 0.19862 0.0
H1250 H 0.47981 0.50791 0.20898 0.0
H1251 H 0.5174 0.51214 0.16285 0.0
H1252 H 0.52069 0.51708 0.98338 0.0
H1253 H 0.47839 0.51676 0.97822 0.0
C1254 C 0.44985 0.51022 0.06382 0.0
C1255 C 0.43795 0.50232 0.10996 0.0
C1256 C 0.47359 0.51383 0.06763 0.0
C1257 C 0.44824 0.50298 0.16296 0.0
C1258 C 0.47158 0.50878 0.1684 0.0
C1259 C 0.50877 0.51301 0.12271 0.0
C1260 C 0.52171 0.51439 0.07339 0.0
C1261 C 0.48469 0.51248 0.12017 0.0
C1262 C 0.51069 0.51589 1.0216 0.0
C1263 C 0.48667 0.51598 1.01877 0.0
H1264 H 0.76364 0.21246 0.38887 0.0
H1265 H 0.7388 0.1959 0.2215 0.0
H1266 H 0.73689 0.2369 0.20311 0.0
H1267 H 0.73922 0.27733 0.23723 0.0
H1268 H 0.76445 0.29457 0.4036 0.0
H1269 H 0.77109 0.25343 0.41862 0.0
C1270 C 0.75835 0.21799 0.34826 0.0
C1271 C 0.7518 0.20143 0.30662 0.0
C1272 C 0.75805 0.24157 0.33718 0.0
C1273 C 0.74388 0.20848 0.25452 0.0
C1274 C 0.74308 0.23186 0.24352 0.0
C1275 C 0.74725 0.272 0.27557 0.0
C1276 C 0.75146 0.28846 0.31911 0.0
C1277 C 0.75002 0.2485 0.28461 0.0
C1278 C 0.76157 0.28188 0.36921 0.0
C1279 C 0.76483 0.25841 0.37827 0.0
H1280 H 0.28163 0.24517 0.88053 0.0
H1281 H 0.25946 0.27608 0.72916 0.0
H1282 H 0.21977 0.2624 0.74412 0.0
H1283 H 0.19196 0.24243 0.80168 0.0
H1284 H 0.21429 0.21111 0.95235 0.0
H1285 H 0.25384 0.22534 0.93816 0.0
C1286 C 0.26819 0.24824 0.85003 0.0
C1287 C 0.27302 0.26114 0.80345 0.0
C1288 C 0.24564 0.24126 0.86028 0.0
C1289 C 0.25571 0.26585 0.76485 0.0
C1290 C 0.23316 0.25839 0.77388 0.0
C1291 C 0.20539 0.23945 0.83225 0.0
C1292 C 0.20066 0.22628 0.8784 0.0
C1293 C 0.22792 0.24658 0.82216 0.0
C1294 C 0.21796 0.22163 0.91711 0.0
C1295 C 0.24043 0.22937 0.90845 0.0
H1296 H 0.2472 0.70834 0.37303 0.0
H1297 H 0.23955 0.7162 0.19579 0.0
H1298 H 0.24153 0.7586 0.2107 0.0
H1299 H 0.24289 0.79288 0.27536 0.0
H1300 H 0.25006 0.78497 0.45271 0.0
H1301 H 0.24832 0.74257 0.43767 0.0
C1302 C 0.24705 0.71943 0.33761 0.0
C1303 C 0.24395 0.7096 0.28334 0.0
C1304 C 0.24615 0.74344 0.34717 0.0
C1305 C 0.24279 0.72373 0.23757 0.0
C1306 C 0.24312 0.74782 0.24635 0.0
C1307 C 0.24299 0.78177 0.31074 0.0
C1308 C 0.24591 0.79158 0.36509 0.0
C1309 C 0.24386 0.75775 0.30117 0.0
C1310 C 0.24699 0.77744 0.41085 0.0
C1311 C 0.24679 0.75336 0.40201 0.0
H1312 H 0.24178 0.19144 0.34021 0.0
H1313 H 0.29139 0.24697 0.32578 0.0
H1314 H 0.26669 0.26454 0.25626 0.0
H1315 H 0.22697 0.26989 0.22619 0.0
H1316 H 0.17427 0.22028 0.26636 0.0
H1317 H 0.20417 0.19358 0.29738 0.0
C1318 C 0.24732 0.20726 0.32125 0.0
C1319 C 0.26781 0.21853 0.33856 0.0
C1320 C 0.23231 0.21799 0.28589 0.0
C1321 C 0.27549 0.23832 0.31267 0.0
C1322 C 0.26134 0.24832 0.27347 0.0
C1323 C 0.2223 0.25278 0.23977 0.0
C1324 C 0.19895 0.24675 0.24556 0.0
C1325 C 0.23906 0.23919 0.26337 0.0
C1326 C 0.19241 0.22491 0.26266 0.0
C1327 C 0.2094 0.20994 0.28067 0.0
H1328 H 0.24918 0.71146 0.77016 0.0
H1329 H 0.25851 0.72092 0.94867 0.0
H1330 H 0.25168 0.76285 0.94387 0.0
H1331 H 0.24373 0.79637 0.88787 0.0
H1332 H 0.23407 0.78673 0.70949 0.0
H1333 H 0.24199 0.74503 0.71401 0.0
C1334 C 0.24884 0.72271 0.8081 0.0
C1335 C 0.25334 0.71346 0.85998 0.0
C1336 C 0.24626 0.74661 0.80431 0.0
C1337 C 0.25409 0.72792 0.90883 0.0
C1338 C 0.2508 0.75179 0.90579 0.0
C1339 C 0.24437 0.78518 0.84986 0.0
C1340 C 0.23917 0.79429 0.79817 0.0
C1341 C 0.24738 0.76131 0.85356 0.0
C1342 C 0.2389 0.77987 0.7492 0.0
C1343 C 0.2428 0.7561 0.7521 0.0
H1344 H 0.50442 0.04262 0.67803 0.0
H1345 H 0.44025 0.00452 0.6628 0.0
H1346 H 0.46055 0.9714 0.61774 0.0
H1347 H 0.49394 0.95818 0.56287 0.0
H1348 H 0.55767 -0.00216 0.56975 0.0
H1349 H 0.53913 0.02754 0.63131 0.0
C1350 C 0.49516 0.02663 0.6666 0.0
C1351 C 0.47096 0.02624 0.66904 0.0
C1352 C 0.50631 0.00924 0.63445 0.0
C1353 C 0.45895 0.00531 0.65854 0.0
C1354 C 0.47036 0.98678 0.63103 0.0
C1355 C 0.50375 0.97343 0.57733 0.0
C1356 C 0.52708 0.9759 0.56227 0.0
C1357 C 0.49349 0.98957 0.61456 0.0
C1358 C 0.53955 0.99581 0.58061 0.0
C1359 C 0.52923 0.01237 0.61696 0.0
H1360 H 0.03527 0.00226 1.00338 0.0
H1361 H 0.0323 0.00032 0.1832 0.0
H1362 H 0.98991 -0.00199 0.17978 0.0
H1363 H 0.95439 0.99493 0.12479 0.0
H1364 H 0.95715 -0.00141 0.94537 0.0
H1365 H -0.00037 -0.00132 0.94819 0.0
C1366 C 0.02514 0.00246 0.04182 0.0
C1367 C 0.03644 0.00225 0.09361 0.0
C1368 C 0.00123 -0.00071 0.03896 0.0
C1369 C 0.02361 0.00145 0.14327 0.0
C1370 C -0.00042 -0.00073 0.14107 0.0
C1371 C 0.96444 0.99464 0.08621 0.0
C1372 C 0.95306 0.99644 0.0349 0.0
C1373 C 0.98839 -0.00263 0.089 0.0
C1374 C 0.96583 0.99663 0.98503 0.0
C1375 C 0.98996 -0.00239 0.98694 0.0
H1376 H 0.4716 0.96268 0.06143 0.0
H1377 H 0.442 0.02243 0.15191 0.0
H1378 H 0.46912 0.04804 0.10668 0.0
H1379 H 0.50527 0.05184 0.05544 0.0
H1380 H 0.53641 0.99189 0.97016 0.0
H1381 H 0.50377 0.96761 0.99698 0.0
C1382 C 0.47095 0.98132 0.07033 0.0
C1383 C 0.45581 0.99084 0.11077 0.0
C1384 C 0.48663 0.99567 0.04508 0.0
C1385 C 0.45422 0.01496 0.12149 0.0
C1386 C 0.46955 0.02953 0.0957 0.0
C1387 C 0.50472 0.03351 0.04292 0.0
C1388 C 0.52313 0.02306 1.0139 0.0
C1389 C 0.48654 0.01985 0.05983 0.0
C1390 C 0.52219 -0.00024 0.99407 0.0
C1391 C 0.50375 0.986 1.00944 0.0
H1392 H 0.96426 0.99433 0.49998 0.0
H1393 H 0.9571 0.99262 0.67951 0.0
H1394 H -0.00065 0.99473 0.69005 0.0
H1395 H 0.03762 -0.00299 0.64736 0.0
H1396 H 0.04445 8e-05 0.46807 0.0
H1397 H 0.00246 0.99557 0.45728 0.0
C1398 C 0.97199 0.99475 0.54139 0.0
C1399 C 0.95809 0.99343 0.58906 0.0
C1400 C -0.00409 0.99514 0.54667 0.0
C1401 C 0.96792 0.99372 0.64256 0.0
C1402 C 0.99187 0.99461 0.64844 0.0
C1403 C 0.02988 0.99622 0.60597 0.0
C1404 C 0.04357 -0.00101 0.55849 0.0
C1405 C 0.00596 0.99502 0.60064 0.0
C1406 C 0.03378 -0.00202 0.5049 0.0
C1407 C 0.00994 0.99576 0.49888 0.0
H1408 H 0.04892 0.39562 0.84544 0.0
H1409 H -0.00188 0.38524 0.97412 0.0
H1410 H 0.96697 0.38575 0.90451 0.0
H1411 H 0.95398 0.39438 0.80831 0.0
H1412 H 0.00582 0.40254 0.67998 0.0
H1413 H 0.03647 0.39744 0.7476 0.0
C1414 C 0.03108 0.3927 0.85786 0.0
C1415 C 0.02585 0.39029 0.91475 0.0
C1416 C 0.01331 0.393 0.81762 0.0
C1417 C 0.00265 0.38673 0.93042 0.0
C1418 C 0.98478 0.38735 0.89068 0.0
C1419 C 0.97197 0.39459 0.79501 0.0
C1420 C 0.97742 0.39908 0.73897 0.0
C1421 C 0.98984 0.39128 0.83434 0.0
C1422 C 0.00091 0.39909 0.72254 0.0
C1423 C 0.0186 0.39628 0.76136 0.0
H1424 H 0.81637 0.69961 0.0796 0.0
H1425 H 0.82155 0.75254 0.95843 0.0
H1426 H 0.82484 0.78238 0.03357 0.0
H1427 H 0.82377 0.79442 0.13325 0.0
H1428 H 0.81907 0.74286 0.25707 0.0
H1429 H 0.81857 0.71186 0.18209 0.0
C1430 C 0.81837 0.71764 0.06955 0.0
C1431 C 0.81851 0.72351 1.01249 0.0
C1432 C 0.82048 0.73515 0.11376 0.0
C1433 C 0.82131 0.74714 1.00117 0.0
C1434 C 0.8232 0.7644 0.04441 0.0
C1435 C 0.82308 0.77637 0.14416 0.0
C1436 C 0.82157 0.77115 0.20125 0.0
C1437 C 0.82253 0.75871 0.10077 0.0
C1438 C 0.82063 0.74755 0.21392 0.0
C1439 C 0.82005 0.72979 0.17077 0.0
H1440 H 0.4924 0.5704 0.17144 0.0
H1441 H 0.5575 0.56367 0.25834 0.0
H1442 H 0.53742 0.5639 0.34725 0.0
H1443 H 0.50136 0.56509 0.40312 0.0
H1444 H 0.43612 0.57418 0.31982 0.0
H1445 H 0.45598 0.57398 0.22897 0.0
C1446 C 0.50225 0.56929 0.20978 0.0
C1447 C 0.52672 0.56705 0.20673 0.0
C1448 C 0.49046 0.56975 0.26255 0.0
C1449 C 0.53881 0.56545 0.25785 0.0
C1450 C 0.52729 0.56553 0.30953 0.0
C1451 C 0.49148 0.56723 0.36519 0.0
C1452 C 0.46717 0.56971 0.36893 0.0
C1453 C 0.50312 0.56753 0.31269 0.0
C1454 C 0.45482 0.5724 0.3188 0.0
C1455 C 0.46622 0.57222 0.26647 0.0
H1456 H 0.66833 0.20961 0.56519 0.0
H1457 H 0.68343 0.26394 0.69079 0.0
H1458 H 0.68714 0.29212 0.61815 0.0
H1459 H 0.68754 0.30118 0.51817 0.0
H1460 H 0.67244 0.24659 0.39267 0.0
H1461 H 0.66719 0.21901 0.46557 0.0
C1462 C 0.67221 0.22767 0.57668 0.0
C1463 C 0.67574 0.23458 0.63347 0.0
C1464 C 0.6744 0.24385 0.53447 0.0
C1465 C 0.68084 0.25805 0.64748 0.0
C1466 C 0.68294 0.27423 0.60586 0.0
C1467 C 0.68294 0.2833 0.50664 0.0
C1468 C 0.68045 0.27616 0.44951 0.0
C1469 C 0.68001 0.2673 0.54906 0.0
C1470 C 0.6745 0.2528 0.43594 0.0
C1471 C 0.67151 0.23689 0.47776 0.0
H1472 H 0.96325 0.5872 0.89433 0.0
H1473 H 0.00826 0.63653 0.98136 0.0
H1474 H 0.03256 0.63849 0.89682 0.0
H1475 H 0.04259 0.62341 0.79922 0.0
H1476 H 0.99516 0.57594 0.71296 0.0
H1477 H 0.97038 0.57603 0.79552 0.0
C1478 C 0.97815 0.59875 0.89446 0.0
C1479 C 0.98395 0.6117 0.944 0.0
C1480 C 0.99181 0.59987 0.84576 0.0
C1481 C 0.00327 0.62658 0.94357 0.0
C1482 C 0.01729 0.6275 0.89533 0.0
C1483 C 0.02672 0.61331 0.7985 0.0
C1484 C 0.02092 0.5995 0.74987 0.0
C1485 C 0.01203 0.61381 0.84636 0.0
C1486 C 0.00014 0.58669 0.74955 0.0
C1487 C 0.98591 0.58668 0.79692 0.0
H1488 H 0.66049 0.68455 0.0982 0.0
H1489 H 0.6511 0.74613 0.20633 0.0
H1490 H 0.64846 0.7699 0.12472 0.0
H1491 H 0.65048 0.77389 1.02205 0.0
H1492 H 0.66273 0.71305 0.91332 0.0
H1493 H 0.66258 0.68864 0.9945 0.0
C1494 C 0.65751 0.70312 0.10386 0.0
C1495 C 0.65569 0.71338 0.15897 0.0
C1496 C 0.6567 0.71699 0.05613 0.0
C1497 C 0.65238 0.73761 0.16493 0.0
C1498 C 0.65095 0.7513 0.11802 0.0
C1499 C 0.6529 0.75525 1.01595 0.0
C1500 C 0.65638 0.74542 0.961 0.0
C1501 C 0.65331 0.74129 0.06333 0.0
C1502 C 0.65985 0.72121 0.95463 0.0
C1503 C 0.6598 0.70719 1.00132 0.0
H1504 H 0.51087 0.41477 0.44881 0.0
H1505 H 0.54996 0.47489 0.40338 0.0
H1506 H 0.52927 0.47554 0.31489 0.0
H1507 H 0.50026 0.45899 0.24816 0.0
H1508 H 0.4617 0.39824 0.29064 0.0
H1509 H 0.48179 0.39783 0.38074 0.0
C1510 C 0.51474 0.42808 0.41971 0.0
C1511 C 0.53215 0.44471 0.43338 0.0
C1512 C 0.50291 0.42816 0.36743 0.0
C1513 C 0.53691 0.46169 0.3944 0.0
C1514 C 0.52501 0.46213 0.34341 0.0
C1515 C 0.49635 0.44556 0.27694 0.0
C1516 C 0.47949 0.42859 0.26202 0.0
C1517 C 0.5081 0.44537 0.32904 0.0
C1518 C 0.47464 0.41146 0.30045 0.0
C1519 C 0.48612 0.41126 0.35235 0.0
H1520 H 0.80801 0.29348 0.65362 0.0
H1521 H 0.81897 0.23766 0.76443 0.0
H1522 H 0.82103 0.20976 0.6842 0.0
H1523 H 0.81863 0.20057 0.58181 0.0
H1524 H 0.80734 0.25621 0.47117 0.0
H1525 H 0.80657 0.28444 0.55127 0.0
C1526 C 0.81101 0.27525 0.66038 0.0
C1527 C 0.81341 0.26793 0.71568 0.0
C1528 C 0.81207 0.25905 0.61364 0.0
C1529 C 0.81717 0.24407 0.72286 0.0
C1530 C 0.81831 0.22797 0.67675 0.0
C1531 C 0.81621 0.2189 0.5752 0.0
C1532 C 0.81296 0.22615 0.52022 0.0
C1533 C 0.81567 0.23517 0.62186 0.0
C1534 C 0.8097 0.25002 0.51278 0.0
C1535 C 0.80929 0.26624 0.55874 0.0
H1536 H 0.0567 0.60397 0.37159 0.0
H1537 H 0.00479 0.60407 0.50238 0.0
H1538 H 0.97433 0.60813 0.43383 0.0
H1539 H 0.96172 0.60663 0.33555 0.0
H1540 H 0.01276 0.60905 0.20407 0.0
H1541 H 0.04398 0.60938 0.27356 0.0
C1542 C 0.03877 0.60541 0.3852 0.0
C1543 C 0.03324 0.60345 0.44236 0.0
C1544 C 0.02101 0.60804 0.34522 0.0
C1545 C 0.00982 0.60552 0.45899 0.0
C1546 C 0.99221 0.60771 0.41963 0.0
C1547 C 0.97967 0.60791 0.3223 0.0
C1548 C 0.9849 0.60785 0.26479 0.0
C1549 C -0.00249 0.60828 0.36251 0.0
C1550 C 0.00825 0.6094 0.24815 0.0
C1551 C 0.02614 0.60933 0.28791 0.0
H1552 H 0.12338 0.23326 0.19588 0.0
H1553 H 0.12619 0.2969 0.10831 0.0
H1554 H 0.12253 0.27477 1.01873 0.0
H1555 H 0.12566 0.23694 0.96477 0.0
H1556 H 0.12578 0.17364 0.053 0.0
H1557 H 0.12063 0.19584 0.14221 0.0
C1558 C 0.12249 0.24242 0.15742 0.0
C1559 C 0.12534 0.26678 0.15919 0.0
C1560 C 0.12105 0.22949 0.10572 0.0
C1561 C 0.12425 0.27818 0.10852 0.0
C1562 C 0.12224 0.26549 0.05705 0.0
C1563 C 0.12347 0.22803 1.00333 0.0
C1564 C 0.12561 0.20364 1.00224 0.0
C1565 C 0.1216 0.24108 0.05495 0.0
C1566 C 0.12368 0.19234 0.05273 0.0
C1567 C 0.12104 0.20508 0.10385 0.0
H1568 H 0.48427 0.41312 0.94924 0.0
H1569 H 0.44173 0.47081 0.9042 0.0
H1570 H 0.46213 0.47245 0.81508 0.0
H1571 H 0.49175 0.45735 0.74757 0.0
H1572 H 0.53379 0.39895 0.78957 0.0
H1573 H 0.51408 0.39767 0.88038 0.0
C1574 C 0.47962 0.42616 0.92015 0.0
C1575 C 0.46133 0.44184 0.93418 0.0
C1576 C 0.49127 0.42676 0.86742 0.0
C1577 C 0.45553 0.4584 0.89505 0.0
C1578 C 0.46724 0.45938 0.84368 0.0
C1579 C 0.49651 0.44421 0.77636 0.0
C1580 C 0.51424 0.42815 0.761 0.0
C1581 C 0.485 0.44354 0.82894 0.0
C1582 C 0.52016 0.41144 0.79959 0.0
C1583 C 0.50891 0.41077 0.85193 0.0
H1584 H 0.3326 0.78357 0.59288 0.0
H1585 H 0.29484 0.73541 0.48284 0.0
H1586 H 0.29259 0.70775 0.55671 0.0
H1587 H 0.3 0.69764 0.65344 0.0
H1588 H 0.33649 0.74608 0.76565 0.0
H1589 H 0.34059 0.77301 0.69041 0.0
C1590 C 0.32409 0.76692 0.58501 0.0
C1591 C 0.31401 0.76154 0.5322 0.0
C1592 C 0.32253 0.75112 0.62825 0.0
C1593 C 0.30282 0.73999 0.52292 0.0
C1594 C 0.30148 0.72414 0.56525 0.0
C1595 C 0.30905 0.71398 0.66157 0.0
C1596 C 0.31798 0.71965 0.71551 0.0
C1597 C 0.31109 0.72957 0.61823 0.0
C1598 C 0.32944 0.74111 0.7248 0.0
C1599 C 0.33178 0.75659 0.68167 0.0
H1600 H 0.04587 0.39388 0.28766 0.0
H1601 H 0.98626 0.3732 0.1887 0.0
H1602 H 0.9619 0.37509 0.27286 0.0
H1603 H 0.95675 0.38552 0.37448 0.0
H1604 H 0.01649 0.40674 0.47257 0.0
H1605 H 0.04127 0.40177 0.38979 0.0
C1606 C 0.02764 0.38935 0.28465 0.0
C1607 C 0.01801 0.38331 0.23165 0.0
C1608 C 0.01356 0.39087 0.33339 0.0
C1609 C 0.99425 0.37777 0.22876 0.0
C1610 C 0.98022 0.379 0.27699 0.0
C1611 C 0.97522 0.38883 0.37781 0.0
C1612 C 0.98464 0.39657 0.43001 0.0
C1613 C 0.98954 0.386 0.32951 0.0
C1614 C 0.00867 0.40078 0.43322 0.0
C1615 C 0.02292 0.39796 0.38571 0.0
H1616 H 0.33907 0.29957 0.05707 0.0
H1617 H 0.3681 0.24228 0.95673 0.0
H1618 H 0.36941 0.21868 0.03876 0.0
H1619 H 0.35902 0.21295 0.13779 0.0
H1620 H 0.3293 0.27009 0.23748 0.0
H1621 H 0.33157 0.29486 0.15776 0.0
C1622 C 0.34619 0.28212 0.05347 0.0
C1623 C 0.35355 0.27279 1.00068 0.0
C1624 C 0.34645 0.26838 0.10086 0.0
C1625 C 0.36241 0.24998 0.99678 0.0
C1626 C 0.36302 0.23637 0.04371 0.0
C1627 C 0.35332 0.2309 0.1422 0.0
C1628 C 0.34395 0.23957 0.19367 0.0
C1629 C 0.35456 0.24515 0.09576 0.0
C1630 C 0.3366 0.2629 0.19849 0.0
C1631 C 0.33786 0.27713 0.15277 0.0
H1632 H 0.47594 0.56824 0.90317 0.0
H1633 H 0.54145 0.57441 0.81827 0.0
H1634 H 0.52178 0.57228 0.72739 0.0
H1635 H 0.48547 0.56765 0.67046 0.0
H1636 H 0.42007 0.56415 0.75841 0.0
H1637 H 0.43994 0.56643 0.84749 0.0
C1638 C 0.48591 0.56934 0.86485 0.0
C1639 C 0.51024 0.57153 0.86812 0.0
C1640 C 0.47438 0.56859 0.81229 0.0
C1641 C 0.52273 0.57289 0.81754 0.0
C1642 C 0.51144 0.57161 0.76522 0.0
C1643 C 0.47552 0.56773 0.70902 0.0
C1644 C 0.45105 0.56562 0.70636 0.0
C1645 C 0.48718 0.56939 0.76176 0.0
C1646 C 0.43879 0.56562 0.75773 0.0
C1647 C 0.45019 0.56691 0.80947 0.0
H1648 H 0.15854 0.78405 0.56294 0.0
H1649 H 0.19105 0.73504 0.66835 0.0
H1650 H 0.19604 0.70753 0.58786 0.0
H1651 H 0.19219 0.69755 0.4869 0.0
H1652 H 0.161 0.74694 0.38005 0.0
H1653 H 0.15459 0.77388 0.46108 0.0
C1654 C 0.16652 0.76726 0.56831 0.0
C1655 C 0.17422 0.7616 0.62193 0.0
C1656 C 0.16972 0.75153 0.52129 0.0
C1657 C 0.18481 0.73985 0.62783 0.0
C1658 C 0.18774 0.72409 0.58166 0.0
C1659 C 0.18386 0.71414 0.48114 0.0
C1660 C 0.17704 0.72 0.42691 0.0
C1661 C 0.1804 0.72975 0.52807 0.0
C1662 C 0.16644 0.74177 0.4209 0.0
C1663 C 0.16275 0.75727 0.46742 0.0
H1664 H 0.45687 0.90647 0.31325 0.0
H1665 H 0.50797 0.91805 0.18509 0.0
H1666 H 0.53899 0.91249 0.25166 0.0
H1667 H 0.55195 0.90842 0.34826 0.0
H1668 H 0.50186 0.89614 0.47751 0.0
H1669 H 0.47042 0.89726 0.4087 0.0
C1670 C 0.47479 0.90751 0.29971 0.0
C1671 C 0.47987 0.91298 0.24393 0.0
C1672 C 0.49287 0.90406 0.33853 0.0
C1673 C 0.5033 0.91397 0.2274 0.0
C1674 C 0.52119 0.91081 0.26562 0.0
C1675 C 0.5342 0.90532 0.36114 0.0
C1676 C 0.52935 0.90211 0.41808 0.0
C1677 C 0.51622 0.90635 0.3215 0.0
C1678 C 0.50621 0.89826 0.43395 0.0
C1679 C 0.48815 0.89926 0.39462 0.0
H1680 H 0.34618 0.20472 0.56736 0.0
H1681 H 0.34431 0.25734 0.44514 0.0
H1682 H 0.34852 0.28768 0.51901 0.0
H1683 H 0.34615 0.2996 0.61922 0.0
H1684 H 0.35006 0.24772 0.74219 0.0
H1685 H 0.35214 0.21691 0.6676 0.0
C1686 C 0.34724 0.22279 0.55686 0.0
C1687 C 0.34454 0.22866 0.50071 0.0
C1688 C 0.34995 0.24038 0.59982 0.0
C1689 C 0.34627 0.25219 0.48783 0.0
C1690 C 0.34855 0.26967 0.53018 0.0
C1691 C 0.34845 0.28161 0.62953 0.0
C1692 C 0.34807 0.27591 0.68595 0.0
C1693 C 0.34954 0.26403 0.58642 0.0
C1694 C 0.35073 0.25254 0.69899 0.0
C1695 C 0.35156 0.23489 0.65629 0.0
H1696 H 0.00443 0.03821 0.89059 0.0
H1697 H 0.96435 0.09762 0.8462 0.0
H1698 H 0.98365 0.09725 0.75471 0.0
H1699 H 0.01267 0.08021 0.68637 0.0
H1700 H 0.05386 0.02205 0.73399 0.0
H1701 H 0.03335 0.02149 0.82341 0.0
C1702 C 2e-05 0.05118 0.86107 0.0
C1703 C 0.983 0.06804 0.87582 0.0
C1704 C 0.01131 0.05092 0.80823 0.0
C1705 C 0.97748 0.08456 0.83651 0.0
C1706 C 0.98846 0.08428 0.78383 0.0
C1707 C 0.01691 0.06728 0.7161 0.0
C1708 C 0.0347 0.05104 0.70294 0.0
C1709 C 0.00544 0.06752 0.76894 0.0
C1710 C 0.04023 0.0347 0.74269 0.0
C1711 C 0.02855 0.03442 0.79415 0.0
H1712 H 0.18814 0.8049 0.99936 0.0
H1713 H 0.15581 0.75471 0.88381 0.0
H1714 H 0.152 0.72752 0.95862 0.0
H1715 H 0.15897 0.7174 0.05682 0.0
H1716 H 0.1927 0.76733 0.17029 0.0
H1717 H 0.19471 0.79511 0.09662 0.0
C1718 C 0.18007 0.78811 0.99038 0.0
C1719 C 0.1722 0.78202 0.93569 0.0
C1720 C 0.17821 0.7724 0.03346 0.0
C1721 C 0.16202 0.75999 0.92528 0.0
C1722 C 0.15984 0.74438 0.96815 0.0
C1723 C 0.16656 0.73444 0.06545 0.0
C1724 C 0.17554 0.74031 0.11916 0.0
C1725 C 0.16801 0.75031 1.02238 0.0
C1726 C 0.18556 0.76238 0.12949 0.0
C1727 C 0.18676 0.77829 0.08729 0.0
H1728 H 0.52302 0.11323 0.28316 0.0
H1729 H 0.49245 0.04883 0.21897 0.0
H1730 H 0.46968 0.04636 0.30462 0.0
H1731 H 0.45956 0.06133 0.39971 0.0
H1732 H 0.48722 0.12699 0.46327 0.0
H1733 H 0.5097 0.13032 0.37633 0.0
C1734 C 0.51125 0.09876 0.2879 0.0
C1735 C 0.50966 0.0811 0.24466 0.0
C1736 C 0.49764 0.09768 0.33731 0.0
C1737 C 0.49411 0.06263 0.25135 0.0
C1738 C 0.48107 0.06117 0.3005 0.0
C1739 C 0.47034 0.07651 0.39435 0.0
C1740 C 0.4718 0.09383 0.43814 0.0
C1741 C 0.48286 0.07843 0.34399 0.0
C1742 C 0.48569 0.11346 0.43023 0.0
C1743 C 0.49866 0.11527 0.38057 0.0
H1744 H 0.11789 0.26875 0.53021 0.0
H1745 H 0.14597 0.20937 0.43579 0.0
H1746 H 0.14389 0.18635 0.51905 0.0
H1747 H 0.13664 0.18381 0.62125 0.0
H1748 H 0.10894 0.24354 0.71518 0.0
H1749 H 0.10802 0.26536 0.63022 0.0
C1750 C 0.1233 0.25069 0.52764 0.0
C1751 C 0.13212 0.24089 0.47651 0.0
C1752 C 0.12213 0.23751 0.57601 0.0
C1753 C 0.13908 0.21743 0.47431 0.0
C1754 C 0.13794 0.20423 0.52212 0.0
C1755 C 0.12995 0.20143 0.62288 0.0
C1756 C 0.12276 0.21192 0.67489 0.0
C1757 C 0.1298 0.21414 0.57355 0.0
C1758 C 0.11446 0.23492 0.67601 0.0
C1759 C 0.11406 0.24751 0.62731 0.0
H1760 H 0.00587 0.91942 0.9624 0.0
H1761 H 0.05593 0.96668 0.89615 0.0
H1762 H 0.03491 0.96683 0.80858 0.0
H1763 H 0.00249 0.95367 0.74867 0.0
H1764 H 0.9522 0.90609 0.81134 0.0
H1765 H 0.97299 0.90578 0.90074 0.0
C1766 C 0.01217 0.92969 0.92878 0.0
C1767 C 0.03279 0.94276 0.93644 0.0
C1768 C -3e-05 0.92956 0.87704 0.0
C1769 C 0.04047 0.95605 0.89194 0.0
C1770 C 0.02837 0.95626 0.8414 0.0
C1771 C -0.00385 0.94308 0.7817 0.0
C1772 C 0.97585 0.92979 0.77286 0.0
C1773 C 0.00821 0.943 0.83315 0.0
C1774 C 0.96786 0.91636 0.8166 0.0
C1775 C 0.97973 0.91625 0.868 0.0
H1776 H 0.30019 0.80557 0.16413 0.0
H1777 H 0.33024 0.75585 0.27191 0.0
H1778 H 0.33728 0.72908 0.191 0.0
H1779 H 0.33392 0.71893 0.089 0.0
H1780 H 0.30275 0.7683 0.98236 0.0
H1781 H 0.29737 0.79579 0.06272 0.0
C1782 C 0.30843 0.78896 0.17011 0.0
C1783 C 0.31467 0.78296 0.22465 0.0
C1784 C 0.31229 0.77341 0.12315 0.0
C1785 C 0.3252 0.76116 0.23087 0.0
C1786 C 0.32926 0.74573 0.18439 0.0
C1787 C 0.3262 0.73581 0.0833 0.0
C1788 C 0.31894 0.74154 1.02935 0.0
C1789 C 0.32278 0.75156 0.13025 0.0
C1790 C 0.30866 0.76341 1.0231 0.0
C1791 C 0.30549 0.77918 0.06922 0.0
H1792 H 0.45055 0.10112 0.83323 0.0
H1793 H 0.49992 0.09885 0.69746 0.0
H1794 H 0.53196 0.09807 0.76444 0.0
H1795 H 0.54563 0.09293 0.86197 0.0
H1796 H 0.49518 0.09672 0.99639 0.0
H1797 H 0.46435 0.10217 0.93004 0.0
C1798 C 0.46835 0.10116 0.81838 0.0
C1799 C 0.47278 0.10011 0.76046 0.0
C1800 C 0.48667 0.10058 0.85709 0.0
C1801 C 0.49597 0.10003 0.74187 0.0
C1802 C 0.51434 0.09927 0.78022 0.0
C1803 C 0.52798 0.09538 0.87684 0.0
C1804 C 0.52298 0.09398 0.93446 0.0
C1805 C 0.50989 0.09876 0.83803 0.0
C1806 C 0.49986 0.09742 0.95258 0.0
C1807 C 0.48199 0.10054 0.91452 0.0
H1808 H 0.66601 0.74005 0.4411 0.0
H1809 H 0.63958 0.68104 0.52492 0.0
H1810 H 0.63535 0.70475 0.61193 0.0
H1811 H 0.6435 0.74106 0.66794 0.0
H1812 H 0.66951 0.8005 0.58462 0.0
H1813 H 0.66944 0.77812 0.49514 0.0
C1814 C 0.6585 0.73264 0.47781 0.0
C1815 C 0.65289 0.70874 0.47593 0.0
C1816 C 0.65649 0.74642 0.52877 0.0
C1817 C 0.64383 0.69938 0.52475 0.0
C1818 C 0.64161 0.71291 0.57492 0.0
C1819 C 0.64877 0.74929 0.63015 0.0
C1820 C 0.65659 0.77255 0.63388 0.0
C1821 C 0.64859 0.73627 0.57808 0.0
C1822 C 0.66331 0.78272 0.58381 0.0
C1823 C 0.66336 0.76986 0.53219 0.0
H1824 H 0.03043 0.92783 0.32066 0.0
H1825 H 0.97686 0.94756 0.20705 0.0
H1826 H 0.94905 0.951 0.28462 0.0
H1827 H 0.93966 0.94881 0.38558 0.0
H1828 H 0.9937 0.93084 0.50012 0.0
H1829 H 0.02119 0.92649 0.42231 0.0
C1830 C 0.01262 0.93269 0.31276 0.0
C1831 C 0.00581 0.9371 0.25741 0.0
C1832 C -0.00337 0.93506 0.35821 0.0
C1833 C 0.98267 0.9438 0.24869 0.0
C1834 C 0.9667 0.94584 0.29329 0.0
C1835 C 0.9574 0.94381 0.39373 0.0
C1836 C 0.96426 0.93994 0.44941 0.0
C1837 C 0.97342 0.94155 0.34838 0.0
C1838 C 0.98759 0.93379 0.45827 0.0
C1839 C 0.00346 0.9313 0.41349 0.0
H1840 H 0.817 0.27169 0.09336 0.0
H1841 H 0.81357 0.21618 0.96549 0.0
H1842 H 0.80964 0.18762 0.03752 0.0
H1843 H 0.80627 0.17846 0.13772 0.0
H1844 H 0.80906 0.23485 0.26424 0.0
H1845 H 0.81403 0.26267 0.19236 0.0
C1846 C 0.81559 0.25332 0.08125 0.0
C1847 C 0.81568 0.2461 1.02407 0.0
C1848 C 0.81311 0.23702 0.12291 0.0
C1849 C 0.8136 0.22223 1.00918 0.0
C1850 C 0.81131 0.20587 0.05043 0.0
C1851 C 0.80811 0.1968 0.14961 0.0
C1852 C 0.80744 0.20429 0.20682 0.0
C1853 C 0.81091 0.21304 0.10758 0.0
C1854 C 0.80969 0.22828 0.22095 0.0
C1855 C 0.8125 0.24437 0.1797 0.0
H1856 H 0.4957 0.92183 0.72202 0.0
H1857 H 0.55601 0.88607 0.77951 0.0
H1858 H 0.53945 0.88653 0.87473 0.0
H1859 H 0.50783 0.89868 0.9432 0.0
H1860 H 0.4472 0.93271 0.88082 0.0
H1861 H 0.46385 0.93152 0.78701 0.0
C1862 C 0.50518 0.91386 0.75518 0.0
C1863 C 0.52711 0.90388 0.7433 0.0
C1864 C 0.49549 0.91413 0.80957 0.0
C1865 C 0.53904 0.89369 0.78708 0.0
C1866 C 0.5296 0.89413 0.84175 0.0
C1867 C 0.49831 0.90577 0.90899 0.0
C1868 C 0.47621 0.91589 0.91957 0.0
C1869 C 0.50788 0.90457 0.85384 0.0
C1870 C 0.46412 0.92479 0.87435 0.0
C1871 C 0.47365 0.92413 0.8204 0.0
H1872 H 0.82811 0.74491 0.48554 0.0
H1873 H 0.8387 0.81287 0.56545 0.0
H1874 H 0.83879 0.79595 0.65766 0.0
H1875 H 0.83381 0.76155 0.71684 0.0
H1876 H 0.82562 0.69362 0.63423 0.0
H1877 H 0.82656 0.71065 0.54308 0.0
C1878 C 0.83082 0.756 0.52304 0.0
C1879 C 0.83347 0.78019 0.51817 0.0
C1880 C 0.83102 0.74609 0.57606 0.0
C1881 C 0.83686 0.79421 0.56755 0.0
C1882 C 0.83672 0.78452 0.62053 0.0
C1883 C 0.8324 0.7505 0.67886 0.0
C1884 C 0.82956 0.72622 0.6829 0.0
C1885 C 0.83348 0.76046 0.62557 0.0
C1886 C 0.82789 0.71227 0.63289 0.0
C1887 C 0.82838 0.72202 0.58041 0.0
H1888 H 0.99404 0.03675 0.38958 0.0
H1889 H 0.03976 0.09152 0.34166 0.0
H1890 H 0.01993 0.09305 0.25145 0.0
H1891 H 0.9889 0.07901 0.18505 0.0
H1892 H 0.94294 0.02472 0.23559 0.0
H1893 H 0.96344 0.02275 0.32396 0.0
C1894 C -0.00041 0.04912 0.35957 0.0
C1895 C 0.01835 0.06412 0.37304 0.0
C1896 C 0.98801 0.04995 0.30735 0.0
C1897 C 0.02532 0.07986 0.333 0.0
C1898 C 0.01399 0.0807 0.28104 0.0
C1899 C 0.98346 0.0667 0.21527 0.0
C1900 C 0.96412 0.0522 0.2031 0.0
C1901 C -0.00476 0.06583 0.26748 0.0
C1902 C 0.95745 0.0364 0.24343 0.0
C1903 C 0.96924 0.03518 0.29437 0.0
H1904 H 0.69255 0.18772 1.00128 0.0
H1905 H 0.67013 0.24126 0.89358 0.0
H1906 H 0.66686 0.26877 0.97418 0.0
H1907 H 0.67109 0.27838 0.07571 0.0
H1908 H 0.69413 0.22536 0.18357 0.0
H1909 H 0.69636 0.19724 0.10326 0.0
C1910 C 0.68683 0.20536 0.99533 0.0
C1911 C 0.68157 0.21216 0.94076 0.0
C1912 C 0.6851 0.22138 0.0423 0.0
C1913 C 0.6743 0.23527 0.93456 0.0
C1914 C 0.67242 0.25115 0.98088 0.0
C1915 C 0.67643 0.26062 0.0817 0.0
C1916 C 0.6824 0.25406 0.13587 0.0
C1917 C 0.67785 0.24449 0.03498 0.0
C1918 C 0.68945 0.23097 0.14254 0.0
C1919 C 0.69074 0.21483 0.09647 0.0
H1920 H 0.09545 0.54576 0.74914 0.0
H1921 H 0.09981 0.48907 0.62438 0.0
H1922 H 0.10162 0.46129 0.69922 0.0
H1923 H 0.09894 0.45295 0.80168 0.0
H1924 H 0.09367 0.51084 0.9233 0.0
H1925 H 0.09507 0.53798 0.84855 0.0
C1926 C 0.09707 0.52734 0.73783 0.0
C1927 C 0.09749 0.51973 0.68046 0.0
C1928 C 0.09767 0.51151 0.78107 0.0
C1929 C 0.09971 0.49567 0.66766 0.0
C1930 C 0.1005 0.47971 0.71072 0.0
C1931 C 0.09836 0.47151 0.8118 0.0
C1932 C 0.09618 0.4797 0.86872 0.0
C1933 C 0.09905 0.48736 0.76781 0.0
C1934 C 0.09535 0.50388 0.88047 0.0
C1935 C 0.09613 0.51951 0.8375 0.0
H1936 H 0.68801 0.82518 0.98864 0.0
H1937 H 0.74275 0.85286 0.88858 0.0
H1938 H 0.76579 0.86147 0.97353 0.0
H1939 H 0.7715 0.85812 0.07645 0.0
H1940 H 0.71538 0.83167 0.17469 0.0
H1941 H 0.69186 0.82571 0.09067 0.0
C1942 C 0.70488 0.83336 0.98539 0.0
C1943 C 0.7137 0.83821 0.9322 0.0
C1944 C 0.7179 0.83835 0.03431 0.0
C1945 C 0.73548 0.84904 0.92894 0.0
C1946 C 0.74873 0.85381 0.97755 0.0
C1947 C 0.754 0.85138 0.07944 0.0
C1948 C 0.74531 0.84521 0.13197 0.0
C1949 C 0.74031 0.84812 1.0305 0.0
C1950 C 0.72257 0.83656 0.13504 0.0
C1951 C 0.70908 0.83305 0.08687 0.0
H1952 H 0.37535 0.53385 0.36188 0.0
H1953 H 0.38419 0.4762 0.46771 0.0
H1954 H 0.38228 0.44888 0.3859 0.0
H1955 H 0.38421 0.44211 0.28273 0.0
H1956 H 0.37187 0.49924 0.1774 0.0
H1957 H 0.3685 0.52595 0.26008 0.0
C1958 C 0.37608 0.51526 0.36704 0.0
C1959 C 0.37992 0.50703 0.42068 0.0
C1960 C 0.37448 0.49956 0.31977 0.0
C1961 C 0.38097 0.48292 0.42692 0.0
C1962 C 0.38009 0.46729 0.38005 0.0
C1963 C 0.37978 0.46022 0.27813 0.0
C1964 C 0.3781 0.46866 0.22408 0.0
C1965 C 0.37762 0.47546 0.32606 0.0
C1966 C 0.37278 0.49225 0.21856 0.0
C1967 C 0.37119 0.5076 0.26588 0.0
H1968 H 0.73022 0.12361 0.44756 0.0
H1969 H 0.79875 0.11922 0.51709 0.0
H1970 H 0.78238 0.11531 0.61064 0.0
H1971 H 0.74901 0.12168 0.6746 0.0
H1972 H 0.68086 0.13008 0.60559 0.0
H1973 H 0.69625 0.12344 0.51063 0.0
C1974 C 0.74145 0.12066 0.48286 0.0
C1975 C 0.76562 0.12134 0.47543 0.0
C1976 C 0.73187 0.1196 0.53711 0.0
C1977 C 0.78007 0.11836 0.52177 0.0
C1978 C 0.77071 0.11642 0.57541 0.0
C1979 C 0.73746 0.12096 0.63878 0.0
C1980 C 0.7138 0.12596 0.64694 0.0
C1981 C 0.74668 0.1182 0.58404 0.0
C1982 C 0.69907 0.12585 0.60021 0.0
C1983 C 0.70793 0.12231 0.54585 0.0
H1984 H 0.91973 0.50857 0.53265 0.0
H1985 H 0.89034 0.44674 0.45197 0.0
H1986 H 0.88749 0.46606 0.36379 0.0
H1987 H 0.89686 0.49942 0.30577 0.0
H1988 H 0.92469 0.56199 0.38646 0.0
H1989 H 0.9247 0.54378 0.47669 0.0
C1990 C 0.91183 0.49965 0.49643 0.0
C1991 C 0.90483 0.4762 0.4999 0.0
C1992 C 0.91052 0.51091 0.44469 0.0
C1993 C 0.89547 0.46484 0.45132 0.0
C1994 C 0.8941 0.47583 0.40034 0.0
C1995 C 0.9027 0.50915 0.34317 0.0
C1996 C 0.91092 0.53211 0.33865 0.0
C1997 C 0.90219 0.49866 0.39585 0.0
C1998 C 0.91825 0.54436 0.38814 0.0
C1999 C 0.91827 0.5339 0.44011 0.0
H2000 H 0.20308 0.14367 0.10884 0.0
H2001 H 0.25776 0.16634 1.00059 0.0
H2002 H 0.28451 0.1687 0.07924 0.0
H2003 H 0.29232 0.16658 0.17877 0.0
H2004 H 0.23861 0.14551 0.29123 0.0
H2005 H 0.21186 0.13987 0.21137 0.0
C2006 C 0.22092 0.14888 0.10247 0.0
C2007 C 0.22831 0.1548 0.0483 0.0
C2008 C 0.23647 0.15047 0.14878 0.0
C2009 C 0.25148 0.16167 0.04128 0.0
C2010 C 0.26687 0.16304 0.08644 0.0
C2011 C 0.27482 0.16048 0.18617 0.0
C2012 C 0.26765 0.15644 0.24148 0.0
C2013 C 0.25953 0.15778 0.14037 0.0
C2014 C 0.24486 0.14846 0.24941 0.0
C2015 C 0.22946 0.14548 0.2036 0.0
H2016 H 0.60536 0.45084 0.78389 0.0
H2017 H 0.6157 0.50859 0.67904 0.0
H2018 H 0.61575 0.53558 0.76155 0.0
H2019 H 0.60625 0.54306 0.86228 0.0
H2020 H 0.59925 0.48501 0.96776 0.0
H2021 H 0.60476 0.4578 0.88677 0.0
C2022 C 0.60862 0.46923 0.77949 0.0
C2023 C 0.61061 0.47774 0.72567 0.0
C2024 C 0.60879 0.48462 0.82722 0.0
C2025 C 0.61452 0.50161 0.7202 0.0
C2026 C 0.6142 0.5171 0.76733 0.0
C2027 C 0.60667 0.52446 0.86753 0.0
C2028 C 0.60228 0.51596 0.92058 0.0
C2029 C 0.61037 0.50889 0.82086 0.0
C2030 C 0.60279 0.49188 0.92722 0.0
C2031 C 0.60578 0.47632 0.88089 0.0
H2032 H 0.24693 0.86973 0.70761 0.0
H2033 H 0.18057 0.86942 0.62568 0.0
H2034 H 0.19945 0.87428 0.53523 0.0
H2035 H 0.23501 0.87 0.47761 0.0
H2036 H 0.30121 0.86596 0.55931 0.0
H2037 H 0.2826 0.8719 0.65099 0.0
C2038 C 0.23663 0.87191 0.67031 0.0
C2039 C 0.21239 0.86967 0.67338 0.0
C2040 C 0.24774 0.87344 0.6179 0.0
C2041 C 0.19923 0.87157 0.62442 0.0
C2042 C 0.21007 0.87403 0.57254 0.0
C2043 C 0.24538 0.87151 0.51544 0.0
C2044 C 0.26947 0.86788 0.51176 0.0
C2045 C 0.23435 0.87379 0.56833 0.0
C2046 C 0.28267 0.86905 0.56116 0.0
C2047 C 0.27199 0.87219 0.61366 0.0
H2048 H 0.60957 0.95975 0.29954 0.0
H2049 H 0.60124 0.01878 0.41684 0.0
H2050 H 0.60214 0.04502 0.34031 0.0
H2051 H 0.60082 0.05122 0.24025 0.0
H2052 H 0.60764 0.99319 0.1201 0.0
H2053 H 0.61249 0.96677 0.19691 0.0
C2054 C 0.60835 0.97838 0.30826 0.0
C2055 C 0.60515 0.98721 0.36414 0.0
C2056 C 0.60862 0.99361 0.26338 0.0
C2057 C 0.60355 0.01142 0.37452 0.0
C2058 C 0.60407 0.02651 0.33065 0.0
C2059 C 0.60393 0.03284 0.23067 0.0
C2060 C 0.60385 0.02425 0.17431 0.0
C2061 C 0.60599 0.0178 0.27494 0.0
C2062 C 0.60792 0.00038 0.16289 0.0
C2063 C 0.61036 0.98522 0.20699 0.0
H2064 H 0.18553 0.30783 0.49705 0.0
H2065 H 0.23609 0.33524 0.38473 0.0
H2066 H 0.26243 0.34343 0.46416 0.0
H2067 H 0.27184 0.3411 0.56665 0.0
H2068 H 0.21998 0.31368 0.6759 0.0
H2069 H 0.19373 0.30731 0.59707 0.0
C2070 C 0.20227 0.3157 0.48951 0.0
C2071 C 0.20868 0.32075 0.43425 0.0
C2072 C 0.21729 0.32034 0.53537 0.0
C2073 C 0.23048 0.33117 0.42638 0.0
C2074 C 0.24564 0.33577 0.472 0.0
C2075 C 0.25471 0.33396 0.5732 0.0
C2076 C 0.24803 0.32792 0.62777 0.0
C2077 C 0.23937 0.33022 0.52687 0.0
C2078 C 0.22573 0.31858 0.63495 0.0
C2079 C 0.21062 0.31484 0.58963 0.0
H2080 H 0.87582 0.99615 0.93292 0.0
H2081 H 0.88836 0.06275 0.86466 0.0
H2082 H 0.88223 0.04591 0.76972 0.0
H2083 H 0.88097 0.0109 0.70575 0.0
H2084 H 0.87352 0.94359 0.77401 0.0
H2085 H 0.86942 0.96175 0.86845 0.0
C2086 C 0.87621 0.0071 0.89734 0.0
C2087 C 0.88213 0.03075 0.90581 0.0
C2088 C 0.87388 -0.00304 0.84247 0.0
C2089 C 0.88346 0.0446 0.8592 0.0
C2090 C 0.88018 0.0349 0.80483 0.0
C2091 C 0.87735 0.00035 0.74106 0.0
C2092 C 0.87705 0.97596 0.73278 0.0
C2093 C 0.87639 0.01091 0.79574 0.0
C2094 C 0.87333 0.9624 0.77921 0.0
C2095 C 0.87129 0.9728 0.83336 0.0
H2096 H 0.25312 0.63352 0.17783 0.0
H2097 H 0.18744 0.63284 0.09276 0.0
H2098 H 0.2071 0.62773 1.00207 0.0
H2099 H 0.24306 0.63202 0.94715 0.0
H2100 H 0.30852 0.63756 0.03299 0.0
H2101 H 0.28926 0.63172 0.12247 0.0
C2102 C 0.24316 0.63109 0.13951 0.0
C2103 C 0.21887 0.63308 0.14191 0.0
C2104 C 0.25471 0.6295 0.0873 0.0
C2105 C 0.20613 0.63088 0.09189 0.0
C2106 C 0.21741 0.62827 0.03997 0.0
C2107 C 0.25314 0.63087 0.98516 0.0
C2108 C 0.2772 0.63489 0.98348 0.0
C2109 C 0.24173 0.62874 0.03701 0.0
C2110 C 0.29002 0.63419 0.03327 0.0
C2111 C 0.27897 0.63109 0.08454 0.0
H2112 H 0.39484 0.95184 0.94791 0.0
H2113 H 0.39032 0.00906 0.07062 0.0
H2114 H 0.38636 0.03638 0.9953 0.0
H2115 H 0.38928 0.04421 0.8929 0.0
H2116 H 0.39467 0.98573 0.7729 0.0
H2117 H 0.39318 0.95895 0.84811 0.0
C2118 C 0.39211 0.97022 0.95827 0.0
C2119 C 0.39238 0.9783 1.01495 0.0
C2120 C 0.39054 0.98575 0.91477 0.0
C2121 C 0.38945 0.00225 1.02754 0.0
C2122 C 0.38762 0.01792 0.98426 0.0
C2123 C 0.38972 0.0256 0.88329 0.0
C2124 C 0.39227 0.01711 0.8269 0.0
C2125 C 0.38891 0.00996 0.92747 0.0
C2126 C 0.39285 0.99289 0.81553 0.0
C2127 C 0.39198 0.97746 0.85868 0.0
H2128 H 0.74012 0.63827 0.7589 0.0
H2129 H 0.80846 0.63532 0.68598 0.0
H2130 H 0.7918 0.6292 0.59237 0.0
H2131 H 0.75768 0.62928 0.52979 0.0
H2132 H 0.68912 0.63217 0.60205 0.0
H2133 H 0.70574 0.63358 0.69635 0.0
C2134 C 0.75132 0.63525 0.72271 0.0
C2135 C 0.7756 0.6365 0.72979 0.0
C2136 C 0.74149 0.63228 0.66837 0.0
C2137 C 0.78981 0.63369 0.682 0.0
C2138 C 0.78024 0.63053 0.62824 0.0
C2139 C 0.74636 0.62983 0.56616 0.0
C2140 C 0.72212 0.63072 0.5585 0.0
C2141 C 0.7561 0.6305 0.62063 0.0
C2142 C 0.7078 0.63142 0.60638 0.0
C2143 C 0.71733 0.63229 0.66054 0.0
H2144 H 0.11846 0.95875 0.27824 0.0
H2145 H 0.10008 0.01615 0.17859 0.0
H2146 H 0.10625 0.0435 0.25882 0.0
H2147 H 0.10996 0.04994 0.36069 0.0
H2148 H 0.12911 0.99301 0.46103 0.0
H2149 H 0.13057 0.96678 0.37721 0.0
C2150 C 0.11655 0.97732 0.274 0.0
C2151 C 0.10877 0.98557 0.2231 0.0
C2152 C 0.12028 0.993 0.32041 0.0
C2153 C 0.10617 0.00957 0.21761 0.0
C2154 C 0.1096 0.02518 0.26346 0.0
C2155 C 0.11547 0.03203 0.36374 0.0
C2156 C 0.11932 0.02338 0.41679 0.0
C2157 C 0.11577 0.01699 0.31557 0.0
C2158 C 0.12632 0.00013 0.4205 0.0
C2159 C 0.12674 0.98501 0.37265 0.0
H2160 H 0.70499 0.35823 0.12701 0.0
H2161 H 0.76219 0.35697 0.24215 0.0
H2162 H 0.78972 0.35757 0.16404 0.0
H2163 H 0.79696 0.35099 0.06202 0.0
H2164 H 0.73985 0.3546 0.9471 0.0
H2165 H 0.71282 0.36093 1.02562 0.0
C2166 C 0.72348 0.35923 0.13501 0.0
C2167 C 0.73159 0.35781 0.1902 0.0
C2168 C 0.7392 0.35955 0.08974 0.0
C2169 C 0.75558 0.35857 0.20012 0.0
C2170 C 0.77132 0.35854 0.15533 0.0
C2171 C 0.77872 0.3541 0.05433 0.0
C2172 C 0.77035 0.35244 0.99901 0.0
C2173 C 0.7633 0.35798 0.09982 0.0
C2174 C 0.74668 0.35615 0.98935 0.0
C2175 C 0.73119 0.35954 0.03429 0.0
loop_
_geom_bond_atom_site_label_1
_geom_bond_atom_site_label_2
_geom_bond_distance
_geom_bond_site_symmetry_2
_ccdc_geom_bond_type
Dy0 O4 2.398 . S
Dy0 O5 2.491 . S
Dy0 O6 2.403 . S
Dy0 O7 2.664 . S
Dy0 O11 2.326 . S
Dy0 O15 2.310 . S
Dy0 O16 2.351 1_554 S
C1 O12 1.185 . S
C1 O13 1.355 . S
C2 O4 1.185 . S
C2 O5 1.355 . S
Dy3 O7 2.305 1_556 S
Dy3 O10 2.331 1_556 S
Dy3 O12 2.416 . S
Dy3 O13 2.510 . S
Dy3 O14 2.400 1_556 S
Dy3 O15 2.652 1_556 S
Dy3 O17 2.337 . S
O4 Dy0 2.398 . S
O4 C2 1.185 . S
O5 Dy0 2.491 . S
O5 C2 1.355 . S
O6 Dy0 2.403 . S
O6 C8 1.254 . S
O7 Dy0 2.664 . S
O7 Dy3 2.305 1_554 S
O7 C8 1.268 . S
C8 O6 1.254 . S
C8 O7 1.268 . S
C9 O14 1.254 . S
C9 O15 1.268 . S
O10 Dy3 2.331 1_554 S
O10 C18 1.249 . S
O11 Dy0 2.326 . S
O11 C18 1.267 . S
O12 C1 1.185 . S
O12 Dy3 2.416 . S
O13 C1 1.355 . S
O13 Dy3 2.510 . S
O14 Dy3 2.400 1_554 S
O14 C9 1.254 . S
O15 Dy0 2.310 . S
O15 Dy3 2.652 1_554 S
O15 C9 1.268 . S
O16 Dy0 2.351 1_556 S
O16 C19 1.249 . S
O17 Dy3 2.337 . S
O17 C19 1.267 . S
C18 O10 1.249 . S
C18 O11 1.267 . S
C19 O16 1.249 . S
C19 O17 1.267 . S
Dy20 O24 2.398 . S
Dy20 O25 2.491 . S
Dy20 O26 2.403 . S
Dy20 O27 2.664 . S
Dy20 O31 2.326 . S
Dy20 O35 2.310 . S
Dy20 O36 2.351 . S
C21 O32 1.185 . S
C21 O33 1.355 . S
C22 O24 1.185 . S
C22 O25 1.355 . S
Dy23 O27 2.310 . S
Dy23 O30 2.351 . S
Dy23 O32 2.398 . S
Dy23 O33 2.491 . S
Dy23 O34 2.403 . S
Dy23 O35 2.664 . S
Dy23 O37 2.326 . S
O24 Dy20 2.398 . S
O24 C22 1.185 . S
O25 Dy20 2.491 . S
O25 C22 1.355 . S
O26 Dy20 2.403 . S
O26 C28 1.254 . S
O27 Dy20 2.664 . S
O27 Dy23 2.310 . S
O27 C28 1.268 . S
C28 O26 1.254 . S
C28 O27 1.268 . S
C29 O34 1.254 . S
C29 O35 1.268 . S
O30 Dy23 2.351 . S
O30 C38 1.249 . S
O31 Dy20 2.326 . S
O31 C38 1.267 . S
O32 C21 1.185 . S
O32 Dy23 2.398 . S
O33 C21 1.355 . S
O33 Dy23 2.491 . S
O34 Dy23 2.403 . S
O34 C29 1.254 . S
O35 Dy20 2.310 . S
O35 Dy23 2.664 . S
O35 C29 1.268 . S
O36 Dy20 2.351 . S
O36 C39 1.249 . S
O37 Dy23 2.326 . S
O37 C39 1.267 . S
C38 O30 1.249 . S
C38 O31 1.267 . S
C39 O36 1.249 . S
C39 O37 1.267 . S
Dy40 O44 2.398 . S
Dy40 O45 2.491 . S
Dy40 O46 2.403 . S
Dy40 O47 2.664 . S
Dy40 O51 2.326 . S
Dy40 O55 2.310 . S
Dy40 O56 2.351 . S
C41 O52 1.185 . S
C41 O53 1.355 . S
C42 O44 1.185 . S
C42 O45 1.355 . S
Dy43 O47 2.310 . S
Dy43 O50 2.351 . S
Dy43 O52 2.398 . S
Dy43 O53 2.491 . S
Dy43 O54 2.403 . S
Dy43 O55 2.664 . S
Dy43 O57 2.326 . S
O44 Dy40 2.398 . S
O44 C42 1.185 . S
O45 Dy40 2.491 . S
O45 C42 1.355 . S
O46 Dy40 2.403 . S
O46 C48 1.254 . S
O47 Dy40 2.664 . S
O47 Dy43 2.310 . S
O47 C48 1.268 . S
C48 O46 1.254 . S
C48 O47 1.268 . S
C49 O54 1.254 . S
C49 O55 1.268 . S
O50 Dy43 2.351 . S
O50 C58 1.249 . S
O51 Dy40 2.326 . S
O51 C58 1.267 . S
O52 C41 1.185 . S
O52 Dy43 2.398 . S
O53 C41 1.355 . S
O53 Dy43 2.491 . S
O54 Dy43 2.403 . S
O54 C49 1.254 . S
O55 Dy40 2.310 . S
O55 Dy43 2.664 . S
O55 C49 1.268 . S
O56 Dy40 2.351 . S
O56 C59 1.249 . S
O57 Dy43 2.326 . S
O57 C59 1.267 . S
C58 O50 1.249 . S
C58 O51 1.267 . S
C59 O56 1.249 . S
C59 O57 1.267 . S
Dy60 O64 2.398 . S
Dy60 O65 2.491 . S
Dy60 O66 2.403 . S
Dy60 O67 2.664 . S
Dy60 O71 2.326 . S
Dy60 O75 2.310 . S
Dy60 O76 2.351 . S
C61 O72 1.185 . S
C61 O73 1.355 . S
C62 O64 1.185 . S
C62 O65 1.355 . S
Dy63 O67 2.310 . S
Dy63 O70 2.351 . S
Dy63 O72 2.398 . S
Dy63 O73 2.491 . S
Dy63 O74 2.403 . S
Dy63 O75 2.664 . S
Dy63 O77 2.326 . S
O64 Dy60 2.398 . S
O64 C62 1.185 . S
O65 Dy60 2.491 . S
O65 C62 1.355 . S
O66 Dy60 2.403 . S
O66 C68 1.254 . S
O67 Dy60 2.664 . S
O67 Dy63 2.310 . S
O67 C68 1.268 . S
C68 O66 1.254 . S
C68 O67 1.268 . S
C69 O74 1.254 . S
C69 O75 1.268 . S
O70 Dy63 2.351 . S
O70 C78 1.249 . S
O71 Dy60 2.326 . S
O71 C78 1.267 . S
O72 C61 1.185 . S
O72 Dy63 2.398 . S
O73 C61 1.355 . S
O73 Dy63 2.491 . S
O74 Dy63 2.403 . S
O74 C69 1.254 . S
O75 Dy60 2.310 . S
O75 Dy63 2.664 . S
O75 C69 1.268 . S
O76 Dy60 2.351 . S
O76 C79 1.249 . S
O77 Dy63 2.326 . S
O77 C79 1.267 . S
C78 O70 1.249 . S
C78 O71 1.267 . S
C79 O76 1.249 . S
C79 O77 1.267 . S
Dy80 O84 2.398 . S
Dy80 O85 2.491 . S
Dy80 O86 2.403 . S
Dy80 O87 2.664 . S
Dy80 O91 2.326 . S
Dy80 O95 2.310 . S
Dy80 O96 2.351 . S
C81 O92 1.185 . S
C81 O93 1.355 . S
C82 O84 1.185 . S
C82 O85 1.355 . S
Dy83 O87 2.310 . S
Dy83 O90 2.351 . S
Dy83 O92 2.398 . S
Dy83 O93 2.491 . S
Dy83 O94 2.403 . S
Dy83 O95 2.664 . S
Dy83 O97 2.326 . S
O84 Dy80 2.398 . S
O84 C82 1.185 . S
O85 Dy80 2.491 . S
O85 C82 1.355 . S
O86 Dy80 2.403 . S
O86 C88 1.254 . S
O87 Dy80 2.664 . S
O87 Dy83 2.310 . S
O87 C88 1.268 . S
C88 O86 1.254 . S
C88 O87 1.268 . S
C89 O94 1.254 . S
C89 O95 1.268 . S
O90 Dy83 2.351 . S
O90 C98 1.249 . S
O91 Dy80 2.326 . S
O91 C98 1.267 . S
O92 C81 1.185 . S
O92 Dy83 2.398 . S
O93 C81 1.355 . S
O93 Dy83 2.491 . S
O94 Dy83 2.403 . S
O94 C89 1.254 . S
O95 Dy80 2.310 . S
O95 Dy83 2.664 . S
O95 C89 1.268 . S
O96 Dy80 2.351 . S
O96 C99 1.249 . S
O97 Dy83 2.326 . S
O97 C99 1.267 . S
C98 O90 1.249 . S
C98 O91 1.267 . S
C99 O96 1.249 . S
C99 O97 1.267 . S
Dy100 O104 2.398 . S
Dy100 O105 2.491 . S
Dy100 O106 2.403 . S
Dy100 O107 2.664 . S
Dy100 O111 2.326 . S
Dy100 O115 2.310 . S
Dy100 O116 2.351 . S
C101 O112 1.185 . S
C101 O113 1.355 . S
C102 O104 1.185 . S
C102 O105 1.355 . S
Dy103 O107 2.310 . S
Dy103 O110 2.351 . S
Dy103 O112 2.398 . S
Dy103 O113 2.491 . S
Dy103 O114 2.403 . S
Dy103 O115 2.664 . S
Dy103 O117 2.326 . S
O104 Dy100 2.398 . S
O104 C102 1.185 . S
O105 Dy100 2.491 . S
O105 C102 1.355 . S
O106 Dy100 2.403 . S
O106 C108 1.254 . S
O107 Dy100 2.664 . S
O107 Dy103 2.310 . S
O107 C108 1.268 . S
C108 O106 1.254 . S
C108 O107 1.268 . S
C109 O114 1.254 . S
C109 O115 1.268 . S
O110 Dy103 2.351 . S
O110 C118 1.249 . S
O111 Dy100 2.326 . S
O111 C118 1.267 . S
O112 C101 1.185 . S
O112 Dy103 2.398 . S
O113 C101 1.355 . S
O113 Dy103 2.491 . S
O114 Dy103 2.403 . S
O114 C109 1.254 . S
O115 Dy100 2.310 . S
O115 Dy103 2.664 . S
O115 C109 1.268 . S
O116 Dy100 2.351 . S
O116 C119 1.249 . S
O117 Dy103 2.326 . S
O117 C119 1.267 . S
C118 O110 1.249 . S
C118 O111 1.267 . S
C119 O116 1.249 . S
C119 O117 1.267 . S
Dy120 O124 2.398 . S
Dy120 O125 2.491 . S
Dy120 O126 2.403 . S
Dy120 O127 2.664 . S
Dy120 O131 2.326 . S
Dy120 O135 2.310 . S
Dy120 O136 2.351 1_554 S
C121 O132 1.185 . S
C121 O133 1.355 . S
C122 O124 1.185 . S
C122 O125 1.355 . S
Dy123 O127 2.310 . S
Dy123 O130 2.351 . S
Dy123 O132 2.398 1_554 S
Dy123 O133 2.491 1_554 S
Dy123 O134 2.403 . S
Dy123 O135 2.664 . S
Dy123 O137 2.326 1_554 S
O124 Dy120 2.398 . S
O124 C122 1.185 . S
O125 Dy120 2.491 . S
O125 C122 1.355 . S
O126 Dy120 2.403 . S
O126 C128 1.254 . S
O127 Dy120 2.664 . S
O127 Dy123 2.310 . S
O127 C128 1.268 . S
C128 O126 1.254 . S
C128 O127 1.268 . S
C129 O134 1.254 . S
C129 O135 1.268 . S
O130 Dy123 2.351 . S
O130 C138 1.249 . S
O131 Dy120 2.326 . S
O131 C138 1.267 . S
O132 C121 1.185 . S
O132 Dy123 2.398 1_556 S
O133 C121 1.355 . S
O133 Dy123 2.491 1_556 S
O134 Dy123 2.403 . S
O134 C129 1.254 . S
O135 Dy120 2.310 . S
O135 Dy123 2.664 . S
O135 C129 1.268 . S
O136 Dy120 2.351 1_556 S
O136 C139 1.249 . S
O137 Dy123 2.326 1_556 S
O137 C139 1.267 . S
C138 O130 1.249 . S
C138 O131 1.267 . S
C139 O136 1.249 . S
C139 O137 1.267 . S
Dy140 O144 2.398 . S
Dy140 O145 2.491 . S
Dy140 O146 2.403 . S
Dy140 O147 2.664 . S
Dy140 O151 2.326 . S
Dy140 O155 2.310 . S
Dy140 O156 2.351 . S
C141 O152 1.185 . S
C141 O153 1.355 . S
C142 O144 1.185 . S
C142 O145 1.355 . S
Dy143 O147 2.310 . S
Dy143 O150 2.351 . S
Dy143 O152 2.398 . S
Dy143 O153 2.491 . S
Dy143 O154 2.403 . S
Dy143 O155 2.664 . S
Dy143 O157 2.326 . S
O144 Dy140 2.398 . S
O144 C142 1.185 . S
O145 Dy140 2.491 . S
O145 C142 1.355 . S
O146 Dy140 2.403 . S
O146 C148 1.254 . S
O147 Dy140 2.664 . S
O147 Dy143 2.310 . S
O147 C148 1.268 . S
C148 O146 1.254 . S
C148 O147 1.268 . S
C149 O154 1.254 . S
C149 O155 1.268 . S
O150 Dy143 2.351 . S
O150 C158 1.249 . S
O151 Dy140 2.326 . S
O151 C158 1.267 . S
O152 C141 1.185 . S
O152 Dy143 2.398 . S
O153 C141 1.355 . S
O153 Dy143 2.491 . S
O154 Dy143 2.403 . S
O154 C149 1.254 . S
O155 Dy140 2.310 . S
O155 Dy143 2.664 . S
O155 C149 1.268 . S
O156 Dy140 2.351 . S
O156 C159 1.249 . S
O157 Dy143 2.326 . S
O157 C159 1.267 . S
C158 O150 1.249 . S
C158 O151 1.267 . S
C159 O156 1.249 . S
C159 O157 1.267 . S
Dy160 O164 2.398 . S
Dy160 O165 2.491 . S
Dy160 O166 2.403 . S
Dy160 O167 2.664 . S
Dy160 O171 2.326 . S
Dy160 O175 2.310 . S
Dy160 O176 2.351 . S
C161 O172 1.185 . S
C161 O173 1.355 . S
C162 O164 1.185 . S
C162 O165 1.355 . S
Dy163 O167 2.310 . S
Dy163 O170 2.351 . S
Dy163 O172 2.398 1_554 S
Dy163 O173 2.491 1_554 S
Dy163 O174 2.403 . S
Dy163 O175 2.664 . S
Dy163 O177 2.326 1_554 S
O164 Dy160 2.398 . S
O164 C162 1.185 . S
O165 Dy160 2.491 . S
O165 C162 1.355 . S
O166 Dy160 2.403 . S
O166 C168 1.254 . S
O167 Dy160 2.664 . S
O167 Dy163 2.310 . S
O167 C168 1.268 . S
C168 O166 1.254 . S
C168 O167 1.268 . S
C169 O174 1.254 . S
C169 O175 1.268 . S
O170 Dy163 2.351 . S
O170 C178 1.249 . S
O171 Dy160 2.326 . S
O171 C178 1.267 . S
O172 C161 1.185 . S
O172 Dy163 2.398 1_556 S
O173 C161 1.355 . S
O173 Dy163 2.491 1_556 S
O174 Dy163 2.403 . S
O174 C169 1.254 . S
O175 Dy160 2.310 . S
O175 Dy163 2.664 . S
O175 C169 1.268 . S
O176 Dy160 2.351 . S
O176 C179 1.249 1_554 S
O177 Dy163 2.326 1_556 S
O177 C179 1.267 . S
C178 O170 1.249 . S
C178 O171 1.267 . S
C179 O176 1.249 1_556 S
C179 O177 1.267 . S
Dy180 O184 2.398 . S
Dy180 O185 2.491 . S
Dy180 O186 2.403 . S
Dy180 O187 2.664 . S
Dy180 O191 2.326 . S
Dy180 O195 2.310 . S
Dy180 O196 2.351 . S
C181 O192 1.185 . S
C181 O193 1.355 . S
C182 O184 1.185 . S
C182 O185 1.355 . S
Dy183 O187 2.310 . S
Dy183 O190 2.351 . S
Dy183 O192 2.398 . S
Dy183 O193 2.491 . S
Dy183 O194 2.403 . S
Dy183 O195 2.664 . S
Dy183 O197 2.326 . S
O184 Dy180 2.398 . S
O184 C182 1.185 . S
O185 Dy180 2.491 . S
O185 C182 1.355 . S
O186 Dy180 2.403 . S
O186 C188 1.254 . S
O187 Dy180 2.664 . S
O187 Dy183 2.310 . S
O187 C188 1.268 . S
C188 O186 1.254 . S
C188 O187 1.268 . S
C189 O194 1.254 . S
C189 O195 1.268 . S
O190 Dy183 2.351 . S
O190 C198 1.249 . S
O191 Dy180 2.326 . S
O191 C198 1.267 . S
O192 C181 1.185 . S
O192 Dy183 2.398 . S
O193 C181 1.355 . S
O193 Dy183 2.491 . S
O194 Dy183 2.403 . S
O194 C189 1.254 . S
O195 Dy180 2.310 . S
O195 Dy183 2.664 . S
O195 C189 1.268 . S
O196 Dy180 2.351 . S
O196 C199 1.249 . S
O197 Dy183 2.326 . S
O197 C199 1.267 . S
C198 O190 1.249 . S
C198 O191 1.267 . S
C199 O196 1.249 . S
C199 O197 1.267 . S
Dy200 O204 2.398 . S
Dy200 O205 2.491 . S
Dy200 O206 2.403 . S
Dy200 O207 2.664 . S
Dy200 O211 2.326 . S
Dy200 O215 2.310 . S
Dy200 O216 2.351 . S
C201 O212 1.185 . S
C201 O213 1.355 . S
C202 O204 1.185 . S
C202 O205 1.355 . S
Dy203 O207 2.310 . S
Dy203 O210 2.351 . S
Dy203 O212 2.398 . S
Dy203 O213 2.491 . S
Dy203 O214 2.403 . S
Dy203 O215 2.664 . S
Dy203 O217 2.326 . S
O204 Dy200 2.398 . S
O204 C202 1.185 . S
O205 Dy200 2.491 . S
O205 C202 1.355 . S
O206 Dy200 2.403 . S
O206 C208 1.254 . S
O207 Dy200 2.664 . S
O207 Dy203 2.310 . S
O207 C208 1.268 . S
C208 O206 1.254 . S
C208 O207 1.268 . S
C209 O214 1.254 . S
C209 O215 1.268 . S
O210 Dy203 2.351 . S
O210 C218 1.249 . S
O211 Dy200 2.326 . S
O211 C218 1.267 . S
O212 C201 1.185 . S
O212 Dy203 2.398 . S
O213 C201 1.355 . S
O213 Dy203 2.491 . S
O214 Dy203 2.403 . S
O214 C209 1.254 . S
O215 Dy200 2.310 . S
O215 Dy203 2.664 . S
O215 C209 1.268 . S
O216 Dy200 2.351 . S
O216 C219 1.249 . S
O217 Dy203 2.326 . S
O217 C219 1.267 . S
C218 O210 1.249 . S
C218 O211 1.267 . S
C219 O216 1.249 . S
C219 O217 1.267 . S
Dy220 O224 2.398 . S
Dy220 O225 2.491 . S
Dy220 O226 2.403 . S
Dy220 O227 2.664 . S
Dy220 O231 2.326 . S
Dy220 O235 2.310 . S
Dy220 O236 2.351 . S
C221 O232 1.185 . S
C221 O233 1.355 . S
C222 O224 1.185 . S
C222 O225 1.355 . S
Dy223 O227 2.310 . S
Dy223 O230 2.351 . S
Dy223 O232 2.398 . S
Dy223 O233 2.491 . S
Dy223 O234 2.403 . S
Dy223 O235 2.664 . S
Dy223 O237 2.326 . S
O224 Dy220 2.398 . S
O224 C222 1.185 . S
O225 Dy220 2.491 . S
O225 C222 1.355 . S
O226 Dy220 2.403 . S
O226 C228 1.254 . S
O227 Dy220 2.664 . S
O227 Dy223 2.310 . S
O227 C228 1.268 . S
C228 O226 1.254 . S
C228 O227 1.268 . S
C229 O234 1.254 . S
C229 O235 1.268 . S
O230 Dy223 2.351 . S
O230 C238 1.249 . S
O231 Dy220 2.326 . S
O231 C238 1.267 . S
O232 C221 1.185 . S
O232 Dy223 2.398 . S
O233 C221 1.355 . S
O233 Dy223 2.491 . S
O234 Dy223 2.403 . S
O234 C229 1.254 . S
O235 Dy220 2.310 . S
O235 Dy223 2.664 . S
O235 C229 1.268 . S
O236 Dy220 2.351 . S
O236 C239 1.249 . S
O237 Dy223 2.326 . S
O237 C239 1.267 . S
C238 O230 1.249 . S
C238 O231 1.267 . S
C239 O236 1.249 . S
C239 O237 1.267 . S
Dy240 O244 2.398 . S
Dy240 O245 2.491 . S
Dy240 O246 2.403 . S
Dy240 O247 2.664 . S
Dy240 O251 2.326 . S
Dy240 O255 2.310 . S
Dy240 O256 2.351 . S
C241 O252 1.185 . S
C241 O253 1.355 . S
C242 O244 1.185 . S
C242 O245 1.355 . S
Dy243 O247 2.310 . S
Dy243 O250 2.351 . S
Dy243 O252 2.398 . S
Dy243 O253 2.491 . S
Dy243 O254 2.403 . S
Dy243 O255 2.664 . S
Dy243 O257 2.326 . S
O244 Dy240 2.398 . S
O244 C242 1.185 . S
O245 Dy240 2.491 . S
O245 C242 1.355 . S
O246 Dy240 2.403 . S
O246 C248 1.254 . S
O247 Dy240 2.664 . S
O247 Dy243 2.310 . S
O247 C248 1.268 . S
C248 O246 1.254 . S
C248 O247 1.268 . S
C249 O254 1.254 . S
C249 O255 1.268 . S
O250 Dy243 2.351 . S
O250 C258 1.249 . S
O251 Dy240 2.326 . S
O251 C258 1.267 . S
O252 C241 1.185 . S
O252 Dy243 2.398 . S
O253 C241 1.355 . S
O253 Dy243 2.491 . S
O254 Dy243 2.403 . S
O254 C249 1.254 . S
O255 Dy240 2.310 . S
O255 Dy243 2.664 . S
O255 C249 1.268 . S
O256 Dy240 2.351 . S
O256 C259 1.249 . S
O257 Dy243 2.326 . S
O257 C259 1.267 . S
C258 O250 1.249 . S
C258 O251 1.267 . S
C259 O256 1.249 . S
C259 O257 1.267 . S
Dy260 O264 2.398 . S
Dy260 O265 2.491 . S
Dy260 O266 2.403 . S
Dy260 O267 2.664 . S
Dy260 O271 2.326 . S
Dy260 O275 2.310 . S
Dy260 O276 2.351 . S
C261 O272 1.185 . S
C261 O273 1.355 . S
C262 O264 1.185 . S
C262 O265 1.355 . S
Dy263 O267 2.310 . S
Dy263 O270 2.351 . S
Dy263 O272 2.398 . S
Dy263 O273 2.491 . S
Dy263 O274 2.403 . S
Dy263 O275 2.664 . S
Dy263 O277 2.326 . S
O264 Dy260 2.398 . S
O264 C262 1.185 . S
O265 Dy260 2.491 . S
O265 C262 1.355 . S
O266 Dy260 2.403 . S
O266 C268 1.254 . S
O267 Dy260 2.664 . S
O267 Dy263 2.310 . S
O267 C268 1.268 . S
C268 O266 1.254 . S
C268 O267 1.268 . S
C269 O274 1.254 . S
C269 O275 1.268 . S
O270 Dy263 2.351 . S
O270 C278 1.249 . S
O271 Dy260 2.326 . S
O271 C278 1.267 . S
O272 C261 1.185 . S
O272 Dy263 2.398 . S
O273 C261 1.355 . S
O273 Dy263 2.491 . S
O274 Dy263 2.403 . S
O274 C269 1.254 . S
O275 Dy260 2.310 . S
O275 Dy263 2.664 . S
O275 C269 1.268 . S
O276 Dy260 2.351 . S
O276 C279 1.249 . S
O277 Dy263 2.326 . S
O277 C279 1.267 . S
C278 O270 1.249 . S
C278 O271 1.267 . S
C279 O276 1.249 . S
C279 O277 1.267 . S
Dy280 O284 2.398 . S
Dy280 O285 2.491 . S
Dy280 O286 2.403 . S
Dy280 O287 2.664 . S
Dy280 O291 2.326 . S
Dy280 O295 2.310 . S
Dy280 O296 2.351 1_554 S
C281 O292 1.185 . S
C281 O293 1.355 . S
C282 O284 1.185 . S
C282 O285 1.355 . S
Dy283 O287 2.310 . S
Dy283 O290 2.351 . S
Dy283 O292 2.398 1_554 S
Dy283 O293 2.491 1_554 S
Dy283 O294 2.403 . S
Dy283 O295 2.664 . S
Dy283 O297 2.326 1_554 S
O284 Dy280 2.398 . S
O284 C282 1.185 . S
O285 Dy280 2.491 . S
O285 C282 1.355 . S
O286 Dy280 2.403 . S
O286 C288 1.254 . S
O287 Dy280 2.664 . S
O287 Dy283 2.310 . S
O287 C288 1.268 . S
C288 O286 1.254 . S
C288 O287 1.268 . S
C289 O294 1.254 . S
C289 O295 1.268 . S
O290 Dy283 2.351 . S
O290 C298 1.249 . S
O291 Dy280 2.326 . S
O291 C298 1.267 . S
O292 C281 1.185 . S
O292 Dy283 2.398 1_556 S
O293 C281 1.355 . S
O293 Dy283 2.491 1_556 S
O294 Dy283 2.403 . S
O294 C289 1.254 . S
O295 Dy280 2.310 . S
O295 Dy283 2.664 . S
O295 C289 1.268 . S
O296 Dy280 2.351 1_556 S
O296 C299 1.249 . S
O297 Dy283 2.326 1_556 S
O297 C299 1.267 . S
C298 O290 1.249 . S
C298 O291 1.267 . S
C299 O296 1.249 . S
C299 O297 1.267 . S
Dy300 O304 2.398 . S
Dy300 O305 2.491 . S
Dy300 O306 2.403 . S
Dy300 O307 2.664 . S
Dy300 O311 2.326 . S
Dy300 O315 2.310 . S
Dy300 O316 2.351 . S
C301 O312 1.185 . S
C301 O313 1.355 . S
C302 O304 1.185 . S
C302 O305 1.355 . S
Dy303 O307 2.310 . S
Dy303 O310 2.351 . S
Dy303 O312 2.398 . S
Dy303 O313 2.491 . S
Dy303 O314 2.403 . S
Dy303 O315 2.664 . S
Dy303 O317 2.326 . S
O304 Dy300 2.398 . S
O304 C302 1.185 . S
O305 Dy300 2.491 . S
O305 C302 1.355 . S
O306 Dy300 2.403 . S
O306 C308 1.254 . S
O307 Dy300 2.664 . S
O307 Dy303 2.310 . S
O307 C308 1.268 . S
C308 O306 1.254 . S
C308 O307 1.268 . S
C309 O314 1.254 . S
C309 O315 1.268 . S
O310 Dy303 2.351 . S
O310 C318 1.249 . S
O311 Dy300 2.326 . S
O311 C318 1.267 . S
O312 C301 1.185 . S
O312 Dy303 2.398 . S
O313 C301 1.355 . S
O313 Dy303 2.491 . S
O314 Dy303 2.403 . S
O314 C309 1.254 . S
O315 Dy300 2.310 . S
O315 Dy303 2.664 . S
O315 C309 1.268 . S
O316 Dy300 2.351 . S
O316 C319 1.249 . S
O317 Dy303 2.326 . S
O317 C319 1.267 . S
C318 O310 1.249 . S
C318 O311 1.267 . S
C319 O316 1.249 . S
C319 O317 1.267 . S
Dy320 O324 2.398 . S
Dy320 O325 2.491 . S
Dy320 O326 2.403 . S
Dy320 O327 2.664 . S
Dy320 O331 2.326 . S
Dy320 O335 2.310 . S
Dy320 O336 2.351 . S
C321 O332 1.185 . S
C321 O333 1.355 . S
C322 O324 1.185 . S
C322 O325 1.355 . S
Dy323 O327 2.310 . S
Dy323 O330 2.351 . S
Dy323 O332 2.398 . S
Dy323 O333 2.491 . S
Dy323 O334 2.403 . S
Dy323 O335 2.664 . S
Dy323 O337 2.326 . S
O324 Dy320 2.398 . S
O324 C322 1.185 . S
O325 Dy320 2.491 . S
O325 C322 1.355 . S
O326 Dy320 2.403 . S
O326 C328 1.254 . S
O327 Dy320 2.664 . S
O327 Dy323 2.310 . S
O327 C328 1.268 . S
C328 O326 1.254 . S
C328 O327 1.268 . S
C329 O334 1.254 . S
C329 O335 1.268 . S
O330 Dy323 2.351 . S
O330 C338 1.249 . S
O331 Dy320 2.326 . S
O331 C338 1.267 . S
O332 C321 1.185 . S
O332 Dy323 2.398 . S
O333 C321 1.355 . S
O333 Dy323 2.491 . S
O334 Dy323 2.403 . S
O334 C329 1.254 . S
O335 Dy320 2.310 . S
O335 Dy323 2.664 . S
O335 C329 1.268 . S
O336 Dy320 2.351 . S
O336 C339 1.249 . S
O337 Dy323 2.326 . S
O337 C339 1.267 . S
C338 O330 1.249 . S
C338 O331 1.267 . S
C339 O336 1.249 . S
C339 O337 1.267 . S
Dy340 O344 2.398 . S
Dy340 O345 2.491 . S
Dy340 O346 2.403 . S
Dy340 O347 2.664 . S
Dy340 O351 2.326 . S
Dy340 O355 2.310 . S
Dy340 O356 2.351 . S
C341 O352 1.185 . S
C341 O353 1.355 . S
C342 O344 1.185 . S
C342 O345 1.355 . S
Dy343 O347 2.310 . S
Dy343 O350 2.351 . S
Dy343 O352 2.398 . S
Dy343 O353 2.491 . S
Dy343 O354 2.403 . S
Dy343 O355 2.664 . S
Dy343 O357 2.326 . S
O344 Dy340 2.398 . S
O344 C342 1.185 . S
O345 Dy340 2.491 . S
O345 C342 1.355 . S
O346 Dy340 2.403 . S
O346 C348 1.254 . S
O347 Dy340 2.664 . S
O347 Dy343 2.310 . S
O347 C348 1.268 . S
C348 O346 1.254 . S
C348 O347 1.268 . S
C349 O354 1.254 . S
C349 O355 1.268 . S
O350 Dy343 2.351 . S
O350 C358 1.249 . S
O351 Dy340 2.326 . S
O351 C358 1.267 . S
O352 C341 1.185 . S
O352 Dy343 2.398 . S
O353 C341 1.355 . S
O353 Dy343 2.491 . S
O354 Dy343 2.403 . S
O354 C349 1.254 . S
O355 Dy340 2.310 . S
O355 Dy343 2.664 . S
O355 C349 1.268 . S
O356 Dy340 2.351 . S
O356 C359 1.249 . S
O357 Dy343 2.326 . S
O357 C359 1.267 . S
C358 O350 1.249 . S
C358 O351 1.267 . S
C359 O356 1.249 . S
C359 O357 1.267 . S
Dy360 O364 2.398 1_554 S
Dy360 O365 2.491 1_554 S
Dy360 O366 2.403 . S
Dy360 O367 2.664 . S
Dy360 O371 2.326 1_554 S
Dy360 O375 2.310 . S
Dy360 O376 2.351 . S
C361 O372 1.185 . S
C361 O373 1.355 . S
C362 O364 1.185 . S
C362 O365 1.355 . S
Dy363 O367 2.310 . S
Dy363 O370 2.351 1_554 S
Dy363 O372 2.398 . S
Dy363 O373 2.491 . S
Dy363 O374 2.403 . S
Dy363 O375 2.664 . S
Dy363 O377 2.326 . S
O364 Dy360 2.398 1_556 S
O364 C362 1.185 . S
O365 Dy360 2.491 1_556 S
O365 C362 1.355 . S
O366 Dy360 2.403 . S
O366 C368 1.254 . S
O367 Dy360 2.664 . S
O367 Dy363 2.310 . S
O367 C368 1.268 . S
C368 O366 1.254 . S
C368 O367 1.268 . S
C369 O374 1.254 . S
C369 O375 1.268 . S
O370 Dy363 2.351 1_556 S
O370 C378 1.249 . S
O371 Dy360 2.326 1_556 S
O371 C378 1.267 . S
O372 C361 1.185 . S
O372 Dy363 2.398 . S
O373 C361 1.355 . S
O373 Dy363 2.491 . S
O374 Dy363 2.403 . S
O374 C369 1.254 . S
O375 Dy360 2.310 . S
O375 Dy363 2.664 . S
O375 C369 1.268 . S
O376 Dy360 2.351 . S
O376 C379 1.249 . S
O377 Dy363 2.326 . S
O377 C379 1.267 . S
C378 O370 1.249 . S
C378 O371 1.267 . S
C379 O376 1.249 . S
C379 O377 1.267 . S
Dy380 O384 2.398 . S
Dy380 O385 2.491 . S
Dy380 O386 2.403 . S
Dy380 O387 2.664 . S
Dy380 O391 2.326 . S
Dy380 O395 2.310 . S
Dy380 O396 2.351 . S
C381 O392 1.185 . S
C381 O393 1.355 . S
C382 O384 1.185 . S
C382 O385 1.355 . S
Dy383 O387 2.310 . S
Dy383 O390 2.351 . S
Dy383 O392 2.398 . S
Dy383 O393 2.491 . S
Dy383 O394 2.403 . S
Dy383 O395 2.664 . S
Dy383 O397 2.326 . S
O384 Dy380 2.398 . S
O384 C382 1.185 . S
O385 Dy380 2.491 . S
O385 C382 1.355 . S
O386 Dy380 2.403 . S
O386 C388 1.254 . S
O387 Dy380 2.664 . S
O387 Dy383 2.310 . S
O387 C388 1.268 . S
C388 O386 1.254 . S
C388 O387 1.268 . S
C389 O394 1.254 . S
C389 O395 1.268 . S
O390 Dy383 2.351 . S
O390 C398 1.249 . S
O391 Dy380 2.326 . S
O391 C398 1.267 . S
O392 C381 1.185 . S
O392 Dy383 2.398 . S
O393 C381 1.355 . S
O393 Dy383 2.491 . S
O394 Dy383 2.403 . S
O394 C389 1.254 . S
O395 Dy380 2.310 . S
O395 Dy383 2.664 . S
O395 C389 1.268 . S
O396 Dy380 2.351 . S
O396 C399 1.249 . S
O397 Dy383 2.326 . S
O397 C399 1.267 . S
C398 O390 1.249 . S
C398 O391 1.267 . S
C399 O396 1.249 . S
C399 O397 1.267 . S
Dy400 O404 2.398 . S
Dy400 O405 2.491 . S
Dy400 O406 2.403 . S
Dy400 O407 2.664 1_554 S
Dy400 O411 2.326 . S
Dy400 O415 2.310 . S
Dy400 O416 2.351 1_554 S
C401 O412 1.185 . S
C401 O413 1.355 . S
C402 O404 1.185 . S
C402 O405 1.355 . S
Dy403 O407 2.310 . S
Dy403 O410 2.351 1_556 S
Dy403 O412 2.398 . S
Dy403 O413 2.491 . S
Dy403 O414 2.403 . S
Dy403 O415 2.664 1_556 S
Dy403 O417 2.326 . S
O404 Dy400 2.398 . S
O404 C402 1.185 . S
O405 Dy400 2.491 . S
O405 C402 1.355 . S
O406 Dy400 2.403 . S
O406 C408 1.254 1_554 S
O407 Dy400 2.664 1_556 S
O407 Dy403 2.310 . S
O407 C408 1.268 . S
C408 O406 1.254 1_556 S
C408 O407 1.268 . S
C409 O414 1.254 1_554 S
C409 O415 1.268 . S
O410 Dy403 2.351 1_554 S
O410 C418 1.249 . S
O411 Dy400 2.326 . S
O411 C418 1.267 . S
O412 C401 1.185 . S
O412 Dy403 2.398 . S
O413 C401 1.355 . S
O413 Dy403 2.491 . S
O414 Dy403 2.403 . S
O414 C409 1.254 1_556 S
O415 Dy400 2.310 . S
O415 Dy403 2.664 1_554 S
O415 C409 1.268 . S
O416 Dy400 2.351 1_556 S
O416 C419 1.249 . S
O417 Dy403 2.326 . S
O417 C419 1.267 . S
C418 O410 1.249 . S
C418 O411 1.267 . S
C419 O416 1.249 . S
C419 O417 1.267 . S
Dy420 O424 2.398 . S
Dy420 O425 2.491 . S
Dy420 O426 2.403 . S
Dy420 O427 2.664 . S
Dy420 O431 2.326 . S
Dy420 O435 2.310 . S
Dy420 O436 2.351 . S
C421 O432 1.185 . S
C421 O433 1.355 . S
C422 O424 1.185 . S
C422 O425 1.355 . S
Dy423 O427 2.310 . S
Dy423 O430 2.351 . S
Dy423 O432 2.398 . S
Dy423 O433 2.491 . S
Dy423 O434 2.403 . S
Dy423 O435 2.664 . S
Dy423 O437 2.326 . S
O424 Dy420 2.398 . S
O424 C422 1.185 . S
O425 Dy420 2.491 . S
O425 C422 1.355 . S
O426 Dy420 2.403 . S
O426 C428 1.254 . S
O427 Dy420 2.664 . S
O427 Dy423 2.310 . S
O427 C428 1.268 . S
C428 O426 1.254 . S
C428 O427 1.268 . S
C429 O434 1.254 . S
C429 O435 1.268 . S
O430 Dy423 2.351 . S
O430 C438 1.249 . S
O431 Dy420 2.326 . S
O431 C438 1.267 . S
O432 C421 1.185 . S
O432 Dy423 2.398 . S
O433 C421 1.355 . S
O433 Dy423 2.491 . S
O434 Dy423 2.403 . S
O434 C429 1.254 . S
O435 Dy420 2.310 . S
O435 Dy423 2.664 . S
O435 C429 1.268 . S
O436 Dy420 2.351 . S
O436 C439 1.249 . S
O437 Dy423 2.326 . S
O437 C439 1.267 . S
C438 O430 1.249 . S
C438 O431 1.267 . S
C439 O436 1.249 . S
C439 O437 1.267 . S
Dy440 O444 2.398 . S
Dy440 O445 2.491 . S
Dy440 O446 2.403 . S
Dy440 O447 2.664 . S
Dy440 O451 2.326 . S
Dy440 O455 2.310 . S
Dy440 O456 2.351 . S
C441 O452 1.185 . S
C441 O453 1.355 . S
C442 O444 1.185 . S
C442 O445 1.355 . S
Dy443 O447 2.310 . S
Dy443 O450 2.351 . S
Dy443 O452 2.398 . S
Dy443 O453 2.491 . S
Dy443 O454 2.403 . S
Dy443 O455 2.664 . S
Dy443 O457 2.326 . S
O444 Dy440 2.398 . S
O444 C442 1.185 . S
O445 Dy440 2.491 . S
O445 C442 1.355 . S
O446 Dy440 2.403 . S
O446 C448 1.254 . S
O447 Dy440 2.664 . S
O447 Dy443 2.310 . S
O447 C448 1.268 . S
C448 O446 1.254 . S
C448 O447 1.268 . S
C449 O454 1.254 . S
C449 O455 1.268 . S
O450 Dy443 2.351 . S
O450 C458 1.249 . S
O451 Dy440 2.326 . S
O451 C458 1.267 . S
O452 C441 1.185 . S
O452 Dy443 2.398 . S
O453 C441 1.355 . S
O453 Dy443 2.491 . S
O454 Dy443 2.403 . S
O454 C449 1.254 . S
O455 Dy440 2.310 . S
O455 Dy443 2.664 . S
O455 C449 1.268 . S
O456 Dy440 2.351 . S
O456 C459 1.249 . S
O457 Dy443 2.326 . S
O457 C459 1.267 . S
C458 O450 1.249 . S
C458 O451 1.267 . S
C459 O456 1.249 . S
C459 O457 1.267 . S
Dy460 O464 2.398 . S
Dy460 O465 2.491 . S
Dy460 O466 2.403 . S
Dy460 O467 2.664 . S
Dy460 O471 2.326 . S
Dy460 O475 2.310 . S
Dy460 O476 2.351 . S
C461 O472 1.185 . S
C461 O473 1.355 . S
C462 O464 1.185 . S
C462 O465 1.355 . S
Dy463 O467 2.310 . S
Dy463 O470 2.351 . S
Dy463 O472 2.398 . S
Dy463 O473 2.491 . S
Dy463 O474 2.403 . S
Dy463 O475 2.664 . S
Dy463 O477 2.326 . S
O464 Dy460 2.398 . S
O464 C462 1.185 . S
O465 Dy460 2.491 . S
O465 C462 1.355 . S
O466 Dy460 2.403 . S
O466 C468 1.254 . S
O467 Dy460 2.664 . S
O467 Dy463 2.310 . S
O467 C468 1.268 . S
C468 O466 1.254 . S
C468 O467 1.268 . S
C469 O474 1.254 . S
C469 O475 1.268 . S
O470 Dy463 2.351 . S
O470 C478 1.249 . S
O471 Dy460 2.326 . S
O471 C478 1.267 . S
O472 C461 1.185 . S
O472 Dy463 2.398 . S
O473 C461 1.355 . S
O473 Dy463 2.491 . S
O474 Dy463 2.403 . S
O474 C469 1.254 . S
O475 Dy460 2.310 . S
O475 Dy463 2.664 . S
O475 C469 1.268 . S
O476 Dy460 2.351 . S
O476 C479 1.249 . S
O477 Dy463 2.326 . S
O477 C479 1.267 . S
C478 O470 1.249 . S
C478 O471 1.267 . S
C479 O476 1.249 . S
C479 O477 1.267 . S
Dy480 O484 2.398 . S
Dy480 O485 2.491 . S
Dy480 O486 2.403 . S
Dy480 O487 2.664 . S
Dy480 O491 2.326 . S
Dy480 O495 2.310 . S
Dy480 O496 2.351 . S
C481 O492 1.185 . S
C481 O493 1.355 . S
C482 O484 1.185 . S
C482 O485 1.355 . S
Dy483 O487 2.310 . S
Dy483 O490 2.351 . S
Dy483 O492 2.398 . S
Dy483 O493 2.491 . S
Dy483 O494 2.403 . S
Dy483 O495 2.664 . S
Dy483 O497 2.326 . S
O484 Dy480 2.398 . S
O484 C482 1.185 . S
O485 Dy480 2.491 . S
O485 C482 1.355 . S
O486 Dy480 2.403 . S
O486 C488 1.254 . S
O487 Dy480 2.664 . S
O487 Dy483 2.310 . S
O487 C488 1.268 . S
C488 O486 1.254 . S
C488 O487 1.268 . S
C489 O494 1.254 . S
C489 O495 1.268 . S
O490 Dy483 2.351 . S
O490 C498 1.249 . S
O491 Dy480 2.326 . S
O491 C498 1.267 . S
O492 C481 1.185 . S
O492 Dy483 2.398 . S
O493 C481 1.355 . S
O493 Dy483 2.491 . S
O494 Dy483 2.403 . S
O494 C489 1.254 . S
O495 Dy480 2.310 . S
O495 Dy483 2.664 . S
O495 C489 1.268 . S
O496 Dy480 2.351 . S
O496 C499 1.249 . S
O497 Dy483 2.326 . S
O497 C499 1.267 . S
C498 O490 1.249 . S
C498 O491 1.267 . S
C499 O496 1.249 . S
C499 O497 1.267 . S
Dy500 O504 2.398 . S
Dy500 O505 2.491 . S
Dy500 O506 2.403 . S
Dy500 O507 2.664 . S
Dy500 O511 2.326 . S
Dy500 O515 2.310 . S
Dy500 O516 2.351 . S
C501 O512 1.185 . S
C501 O513 1.355 . S
C502 O504 1.185 . S
C502 O505 1.355 . S
Dy503 O507 2.310 . S
Dy503 O510 2.351 . S
Dy503 O512 2.398 . S
Dy503 O513 2.491 . S
Dy503 O514 2.403 . S
Dy503 O515 2.664 . S
Dy503 O517 2.326 . S
O504 Dy500 2.398 . S
O504 C502 1.185 . S
O505 Dy500 2.491 . S
O505 C502 1.355 . S
O506 Dy500 2.403 . S
O506 C508 1.254 . S
O507 Dy500 2.664 . S
O507 Dy503 2.310 . S
O507 C508 1.268 . S
C508 O506 1.254 . S
C508 O507 1.268 . S
C509 O514 1.254 . S
C509 O515 1.268 . S
O510 Dy503 2.351 . S
O510 C518 1.249 . S
O511 Dy500 2.326 . S
O511 C518 1.267 . S
O512 C501 1.185 . S
O512 Dy503 2.398 . S
O513 C501 1.355 . S
O513 Dy503 2.491 . S
O514 Dy503 2.403 . S
O514 C509 1.254 . S
O515 Dy500 2.310 . S
O515 Dy503 2.664 . S
O515 C509 1.268 . S
O516 Dy500 2.351 . S
O516 C519 1.249 . S
O517 Dy503 2.326 . S
O517 C519 1.267 . S
C518 O510 1.249 . S
C518 O511 1.267 . S
C519 O516 1.249 . S
C519 O517 1.267 . S
Dy520 O524 2.398 1_554 S
Dy520 O525 2.491 1_554 S
Dy520 O526 2.403 . S
Dy520 O527 2.664 . S
Dy520 O531 2.326 1_554 S
Dy520 O535 2.310 . S
Dy520 O536 2.351 . S
C521 O532 1.185 . S
C521 O533 1.355 . S
C522 O524 1.185 . S
C522 O525 1.355 . S
Dy523 O527 2.310 . S
Dy523 O530 2.351 1_554 S
Dy523 O532 2.398 . S
Dy523 O533 2.491 . S
Dy523 O534 2.403 . S
Dy523 O535 2.664 . S
Dy523 O537 2.326 . S
O524 Dy520 2.398 1_556 S
O524 C522 1.185 . S
O525 Dy520 2.491 1_556 S
O525 C522 1.355 . S
O526 Dy520 2.403 . S
O526 C528 1.254 . S
O527 Dy520 2.664 . S
O527 Dy523 2.310 . S
O527 C528 1.268 . S
C528 O526 1.254 . S
C528 O527 1.268 . S
C529 O534 1.254 . S
C529 O535 1.268 . S
O530 Dy523 2.351 1_556 S
O530 C538 1.249 . S
O531 Dy520 2.326 1_556 S
O531 C538 1.267 . S
O532 C521 1.185 . S
O532 Dy523 2.398 . S
O533 C521 1.355 . S
O533 Dy523 2.491 . S
O534 Dy523 2.403 . S
O534 C529 1.254 . S
O535 Dy520 2.310 . S
O535 Dy523 2.664 . S
O535 C529 1.268 . S
O536 Dy520 2.351 . S
O536 C539 1.249 . S
O537 Dy523 2.326 . S
O537 C539 1.267 . S
C538 O530 1.249 . S
C538 O531 1.267 . S
C539 O536 1.249 . S
C539 O537 1.267 . S
Dy540 O544 2.398 . S
Dy540 O545 2.491 . S
Dy540 O546 2.403 . S
Dy540 O547 2.664 . S
Dy540 O551 2.326 . S
Dy540 O555 2.310 . S
Dy540 O556 2.351 . S
C541 O552 1.185 . S
C541 O553 1.355 . S
C542 O544 1.185 . S
C542 O545 1.355 . S
Dy543 O547 2.310 . S
Dy543 O550 2.351 . S
Dy543 O552 2.398 . S
Dy543 O553 2.491 . S
Dy543 O554 2.403 . S
Dy543 O555 2.664 . S
Dy543 O557 2.326 . S
O544 Dy540 2.398 . S
O544 C542 1.185 . S
O545 Dy540 2.491 . S
O545 C542 1.355 . S
O546 Dy540 2.403 . S
O546 C548 1.254 . S
O547 Dy540 2.664 . S
O547 Dy543 2.310 . S
O547 C548 1.268 . S
C548 O546 1.254 . S
C548 O547 1.268 . S
C549 O554 1.254 . S
C549 O555 1.268 . S
O550 Dy543 2.351 . S
O550 C558 1.249 . S
O551 Dy540 2.326 . S
O551 C558 1.267 . S
O552 C541 1.185 . S
O552 Dy543 2.398 . S
O553 C541 1.355 . S
O553 Dy543 2.491 . S
O554 Dy543 2.403 . S
O554 C549 1.254 . S
O555 Dy540 2.310 . S
O555 Dy543 2.664 . S
O555 C549 1.268 . S
O556 Dy540 2.351 . S
O556 C559 1.249 . S
O557 Dy543 2.326 . S
O557 C559 1.267 . S
C558 O550 1.249 . S
C558 O551 1.267 . S
C559 O556 1.249 . S
C559 O557 1.267 . S
Dy560 O564 2.398 . S
Dy560 O565 2.491 . S
Dy560 O566 2.403 . S
Dy560 O567 2.664 . S
Dy560 O571 2.326 . S
Dy560 O575 2.310 . S
Dy560 O576 2.351 . S
C561 O572 1.185 . S
C561 O573 1.355 . S
C562 O564 1.185 . S
C562 O565 1.355 . S
Dy563 O567 2.310 . S
Dy563 O570 2.351 . S
Dy563 O572 2.398 1_554 S
Dy563 O573 2.491 1_554 S
Dy563 O574 2.403 . S
Dy563 O575 2.664 . S
Dy563 O577 2.326 . S
O564 Dy560 2.398 . S
O564 C562 1.185 . S
O565 Dy560 2.491 . S
O565 C562 1.355 . S
O566 Dy560 2.403 . S
O566 C568 1.254 . S
O567 Dy560 2.664 . S
O567 Dy563 2.310 . S
O567 C568 1.268 . S
C568 O566 1.254 . S
C568 O567 1.268 . S
C569 O574 1.254 . S
C569 O575 1.268 . S
O570 Dy563 2.351 . S
O570 C578 1.249 . S
O571 Dy560 2.326 . S
O571 C578 1.267 . S
O572 C561 1.185 . S
O572 Dy563 2.398 1_556 S
O573 C561 1.355 . S
O573 Dy563 2.491 1_556 S
O574 Dy563 2.403 . S
O574 C569 1.254 . S
O575 Dy560 2.310 . S
O575 Dy563 2.664 . S
O575 C569 1.268 . S
O576 Dy560 2.351 . S
O576 C579 1.249 . S
O577 Dy563 2.326 . S
O577 C579 1.267 . S
C578 O570 1.249 . S
C578 O571 1.267 . S
C579 O576 1.249 . S
C579 O577 1.267 . S
Dy580 O584 2.398 . S
Dy580 O585 2.491 . S
Dy580 O586 2.403 . S
Dy580 O587 2.664 . S
Dy580 O591 2.326 . S
Dy580 O595 2.310 . S
Dy580 O596 2.351 . S
C581 O592 1.185 . S
C581 O593 1.355 . S
C582 O584 1.185 . S
C582 O585 1.355 . S
Dy583 O587 2.310 . S
Dy583 O590 2.351 . S
Dy583 O592 2.398 . S
Dy583 O593 2.491 . S
Dy583 O594 2.403 . S
Dy583 O595 2.664 . S
Dy583 O597 2.326 . S
O584 Dy580 2.398 . S
O584 C582 1.185 . S
O585 Dy580 2.491 . S
O585 C582 1.355 . S
O586 Dy580 2.403 . S
O586 C588 1.254 . S
O587 Dy580 2.664 . S
O587 Dy583 2.310 . S
O587 C588 1.268 . S
C588 O586 1.254 . S
C588 O587 1.268 . S
C589 O594 1.254 . S
C589 O595 1.268 . S
O590 Dy583 2.351 . S
O590 C598 1.249 . S
O591 Dy580 2.326 . S
O591 C598 1.267 . S
O592 C581 1.185 . S
O592 Dy583 2.398 . S
O593 C581 1.355 . S
O593 Dy583 2.491 . S
O594 Dy583 2.403 . S
O594 C589 1.254 . S
O595 Dy580 2.310 . S
O595 Dy583 2.664 . S
O595 C589 1.268 . S
O596 Dy580 2.351 . S
O596 C599 1.249 . S
O597 Dy583 2.326 . S
O597 C599 1.267 . S
C598 O590 1.249 . S
C598 O591 1.267 . S
C599 O596 1.249 . S
C599 O597 1.267 . S
Dy600 O604 2.398 . S
Dy600 O605 2.491 . S
Dy600 O606 2.403 . S
Dy600 O607 2.664 . S
Dy600 O611 2.326 . S
Dy600 O615 2.310 . S
Dy600 O616 2.351 . S
C601 O612 1.185 . S
C601 O613 1.355 . S
C602 O604 1.185 . S
C602 O605 1.355 . S
Dy603 O607 2.310 . S
Dy603 O610 2.351 . S
Dy603 O612 2.398 . S
Dy603 O613 2.491 . S
Dy603 O614 2.403 . S
Dy603 O615 2.664 . S
Dy603 O617 2.326 . S
O604 Dy600 2.398 . S
O604 C602 1.185 . S
O605 Dy600 2.491 . S
O605 C602 1.355 . S
O606 Dy600 2.403 . S
O606 C608 1.254 . S
O607 Dy600 2.664 . S
O607 Dy603 2.310 . S
O607 C608 1.268 . S
C608 O606 1.254 . S
C608 O607 1.268 . S
C609 O614 1.254 . S
C609 O615 1.268 . S
O610 Dy603 2.351 . S
O610 C618 1.249 . S
O611 Dy600 2.326 . S
O611 C618 1.267 . S
O612 C601 1.185 . S
O612 Dy603 2.398 . S
O613 C601 1.355 . S
O613 Dy603 2.491 . S
O614 Dy603 2.403 . S
O614 C609 1.254 . S
O615 Dy600 2.310 . S
O615 Dy603 2.664 . S
O615 C609 1.268 . S
O616 Dy600 2.351 . S
O616 C619 1.249 . S
O617 Dy603 2.326 . S
O617 C619 1.267 . S
C618 O610 1.249 . S
C618 O611 1.267 . S
C619 O616 1.249 . S
C619 O617 1.267 . S
Dy620 O624 2.398 . S
Dy620 O625 2.491 . S
Dy620 O626 2.403 . S
Dy620 O627 2.664 . S
Dy620 O631 2.326 . S
Dy620 O635 2.310 . S
Dy620 O636 2.351 . S
C621 O632 1.185 . S
C621 O633 1.355 . S
C622 O624 1.185 . S
C622 O625 1.355 . S
Dy623 O627 2.310 . S
Dy623 O630 2.351 . S
Dy623 O632 2.398 . S
Dy623 O633 2.491 . S
Dy623 O634 2.403 . S
Dy623 O635 2.664 . S
Dy623 O637 2.326 . S
O624 Dy620 2.398 . S
O624 C622 1.185 . S
O625 Dy620 2.491 . S
O625 C622 1.355 . S
O626 Dy620 2.403 . S
O626 C628 1.254 . S
O627 Dy620 2.664 . S
O627 Dy623 2.310 . S
O627 C628 1.268 . S
C628 O626 1.254 . S
C628 O627 1.268 . S
C629 O634 1.254 . S
C629 O635 1.268 . S
O630 Dy623 2.351 . S
O630 C638 1.249 . S
O631 Dy620 2.326 . S
O631 C638 1.267 . S
O632 C621 1.185 . S
O632 Dy623 2.398 . S
O633 C621 1.355 . S
O633 Dy623 2.491 . S
O634 Dy623 2.403 . S
O634 C629 1.254 . S
O635 Dy620 2.310 . S
O635 Dy623 2.664 . S
O635 C629 1.268 . S
O636 Dy620 2.351 . S
O636 C639 1.249 . S
O637 Dy623 2.326 . S
O637 C639 1.267 . S
C638 O630 1.249 . S
C638 O631 1.267 . S
C639 O636 1.249 . S
C639 O637 1.267 . S
H640 C646 0.930 . S
H641 C649 0.930 . S
H642 C650 0.930 . S
H643 C651 0.930 . S
H644 C654 0.930 . S
H645 C655 0.930 . S
C646 H640 0.930 . S
C646 C647 1.355 . S
C646 C648 1.415 . S
C647 C646 1.355 . S
C647 C649 1.419 . S
C648 C646 1.415 . S
C648 C653 1.425 . S
C648 C655 1.409 . S
C649 H641 0.930 . S
C649 C647 1.419 . S
C649 C650 1.362 . S
C650 H642 0.930 . S
C650 C649 1.362 . S
C650 C653 1.409 . S
C651 H643 0.930 . S
C651 C652 1.355 . S
C651 C653 1.415 . S
C652 C651 1.355 . S
C652 C654 1.419 . S
C653 C648 1.425 . S
C653 C650 1.409 . S
C653 C651 1.415 . S
C654 H644 0.930 . S
C654 C652 1.419 . S
C654 C655 1.362 . S
C655 H645 0.930 . S
C655 C648 1.409 . S
C655 C654 1.362 . S
H656 C662 0.930 . S
H657 C665 0.930 . S
H658 C666 0.930 . S
H659 C667 0.930 . S
H660 C670 0.930 . S
H661 C671 0.930 . S
C662 H656 0.930 . S
C662 C663 1.355 . S
C662 C664 1.415 . S
C663 C662 1.355 . S
C663 C665 1.419 . S
C664 C662 1.415 . S
C664 C669 1.425 . S
C664 C671 1.409 . S
C665 H657 0.930 . S
C665 C663 1.419 . S
C665 C666 1.362 . S
C666 H658 0.930 . S
C666 C665 1.362 . S
C666 C669 1.409 . S
C667 H659 0.930 . S
C667 C668 1.355 . S
C667 C669 1.415 . S
C668 C667 1.355 . S
C668 C670 1.419 . S
C669 C664 1.425 . S
C669 C666 1.409 . S
C669 C667 1.415 . S
C670 H660 0.930 . S
C670 C668 1.419 . S
C670 C671 1.362 . S
C671 H661 0.930 . S
C671 C664 1.409 . S
C671 C670 1.362 . S
H672 C678 0.930 . S
H673 C681 0.930 . S
H674 C682 0.930 . S
H675 C683 0.930 . S
H676 C686 0.930 . S
H677 C687 0.930 . S
C678 H672 0.930 . S
C678 C679 1.355 . S
C678 C680 1.415 . S
C679 C678 1.355 . S
C679 C681 1.419 . S
C680 C678 1.415 . S
C680 C685 1.425 . S
C680 C687 1.409 . S
C681 H673 0.930 . S
C681 C679 1.419 . S
C681 C682 1.362 . S
C682 H674 0.930 . S
C682 C681 1.362 . S
C682 C685 1.409 . S
C683 H675 0.930 . S
C683 C684 1.355 . S
C683 C685 1.415 . S
C684 C683 1.355 . S
C684 C686 1.419 . S
C685 C680 1.425 . S
C685 C682 1.409 . S
C685 C683 1.415 . S
C686 H676 0.930 . S
C686 C684 1.419 . S
C686 C687 1.362 . S
C687 H677 0.930 . S
C687 C680 1.409 . S
C687 C686 1.362 . S
H688 C694 0.930 . S
H689 C697 0.930 . S
H690 C698 0.930 1_556 S
H691 C699 0.930 . S
H692 C702 0.930 . S
H693 C703 0.930 . S
C694 H688 0.930 . S
C694 C695 1.355 . S
C694 C696 1.415 . S
C695 C694 1.355 . S
C695 C697 1.419 . S
C696 C694 1.415 . S
C696 C701 1.425 . S
C696 C703 1.409 . S
C697 H689 0.930 . S
C697 C695 1.419 . S
C697 C698 1.362 . S
C698 H690 0.930 1_554 S
C698 C697 1.362 . S
C698 C701 1.409 . S
C699 H691 0.930 . S
C699 C700 1.355 . S
C699 C701 1.415 1_556 S
C700 C699 1.355 . S
C700 C702 1.419 1_556 S
C701 C696 1.425 . S
C701 C698 1.409 . S
C701 C699 1.415 1_554 S
C702 H692 0.930 . S
C702 C700 1.419 1_554 S
C702 C703 1.362 . S
C703 H693 0.930 . S
C703 C696 1.409 . S
C703 C702 1.362 . S
H704 C710 0.930 . S
H705 C713 0.930 . S
H706 C714 0.930 . S
H707 C715 0.930 . S
H708 C718 0.930 . S
H709 C719 0.930 . S
C710 H704 0.930 . S
C710 C711 1.355 . S
C710 C712 1.415 . S
C711 C710 1.355 . S
C711 C713 1.419 . S
C712 C710 1.415 . S
C712 C717 1.425 . S
C712 C719 1.409 . S
C713 H705 0.930 . S
C713 C711 1.419 . S
C713 C714 1.362 . S
C714 H706 0.930 . S
C714 C713 1.362 . S
C714 C717 1.409 . S
C715 H707 0.930 . S
C715 C716 1.355 . S
C715 C717 1.415 . S
C716 C715 1.355 . S
C716 C718 1.419 . S
C717 C712 1.425 . S
C717 C714 1.409 . S
C717 C715 1.415 . S
C718 H708 0.930 . S
C718 C716 1.419 . S
C718 C719 1.362 . S
C719 H709 0.930 . S
C719 C712 1.409 . S
C719 C718 1.362 . S
H720 C726 0.930 . S
H721 C729 0.930 . S
H722 C730 0.930 . S
H723 C731 0.930 . S
H724 C734 0.930 . S
H725 C735 0.930 . S
C726 H720 0.930 . S
C726 C727 1.355 . S
C726 C728 1.415 . S
C727 C726 1.355 . S
C727 C729 1.419 . S
C728 C726 1.415 . S
C728 C733 1.425 . S
C728 C735 1.409 . S
C729 H721 0.930 . S
C729 C727 1.419 . S
C729 C730 1.362 . S
C730 H722 0.930 . S
C730 C729 1.362 . S
C730 C733 1.409 . S
C731 H723 0.930 . S
C731 C732 1.355 . S
C731 C733 1.415 . S
C732 C731 1.355 . S
C732 C734 1.419 . S
C733 C728 1.425 . S
C733 C730 1.409 . S
C733 C731 1.415 . S
C734 H724 0.930 . S
C734 C732 1.419 . S
C734 C735 1.362 . S
C735 H725 0.930 . S
C735 C728 1.409 . S
C735 C734 1.362 . S
H736 C742 0.930 . S
H737 C745 0.930 . S
H738 C746 0.930 . S
H739 C747 0.930 . S
H740 C750 0.930 . S
H741 C751 0.930 . S
C742 H736 0.930 . S
C742 C743 1.355 . S
C742 C744 1.415 . S
C743 C742 1.355 . S
C743 C745 1.419 . S
C744 C742 1.415 . S
C744 C749 1.425 . S
C744 C751 1.409 . S
C745 H737 0.930 . S
C745 C743 1.419 . S
C745 C746 1.362 . S
C746 H738 0.930 . S
C746 C745 1.362 . S
C746 C749 1.409 . S
C747 H739 0.930 . S
C747 C748 1.355 . S
C747 C749 1.415 . S
C748 C747 1.355 . S
C748 C750 1.419 . S
C749 C744 1.425 . S
C749 C746 1.409 . S
C749 C747 1.415 . S
C750 H740 0.930 . S
C750 C748 1.419 . S
C750 C751 1.362 . S
C751 H741 0.930 . S
C751 C744 1.409 . S
C751 C750 1.362 . S
H752 C758 0.930 . S
H753 C761 0.930 . S
H754 C762 0.930 . S
H755 C763 0.930 . S
H756 C766 0.930 . S
H757 C767 0.930 . S
C758 H752 0.930 . S
C758 C759 1.355 . S
C758 C760 1.415 . S
C759 C758 1.355 . S
C759 C761 1.419 . S
C760 C758 1.415 . S
C760 C765 1.425 . S
C760 C767 1.409 . S
C761 H753 0.930 . S
C761 C759 1.419 . S
C761 C762 1.362 . S
C762 H754 0.930 . S
C762 C761 1.362 . S
C762 C765 1.409 . S
C763 H755 0.930 . S
C763 C764 1.355 1_554 S
C763 C765 1.415 . S
C764 C763 1.355 1_556 S
C764 C766 1.419 . S
C765 C760 1.425 . S
C765 C762 1.409 . S
C765 C763 1.415 . S
C766 H756 0.930 . S
C766 C764 1.419 . S
C766 C767 1.362 1_556 S
C767 H757 0.930 . S
C767 C760 1.409 . S
C767 C766 1.362 1_554 S
H768 C774 0.930 . S
H769 C777 0.930 . S
H770 C778 0.930 . S
H771 C779 0.930 . S
H772 C782 0.930 . S
H773 C783 0.930 . S
C774 H768 0.930 . S
C774 C775 1.355 . S
C774 C776 1.415 . S
C775 C774 1.355 . S
C775 C777 1.419 1_545 S
C776 C774 1.415 . S
C776 C781 1.425 1_545 S
C776 C783 1.409 . S
C777 H769 0.930 . S
C777 C775 1.419 1_565 S
C777 C778 1.362 . S
C778 H770 0.930 . S
C778 C777 1.362 . S
C778 C781 1.409 . S
C779 H771 0.930 . S
C779 C780 1.355 . S
C779 C781 1.415 . S
C780 C779 1.355 . S
C780 C782 1.419 . S
C781 C776 1.425 1_565 S
C781 C778 1.409 . S
C781 C779 1.415 . S
C782 H772 0.930 . S
C782 C780 1.419 . S
C782 C783 1.362 1_565 S
C783 H773 0.930 . S
C783 C776 1.409 . S
C783 C782 1.362 1_545 S
H784 C790 0.930 . S
H785 C793 0.930 . S
H786 C794 0.930 . S
H787 C795 0.930 . S
H788 C798 0.930 . S
H789 C799 0.930 . S
C790 H784 0.930 . S
C790 C791 1.355 . S
C790 C792 1.415 . S
C791 C790 1.355 . S
C791 C793 1.419 . S
C792 C790 1.415 . S
C792 C797 1.425 . S
C792 C799 1.409 1_556 S
C793 H785 0.930 . S
C793 C791 1.419 . S
C793 C794 1.362 . S
C794 H786 0.930 . S
C794 C793 1.362 . S
C794 C797 1.409 . S
C795 H787 0.930 . S
C795 C796 1.355 . S
C795 C797 1.415 1_554 S
C796 C795 1.355 . S
C796 C798 1.419 . S
C797 C792 1.425 . S
C797 C794 1.409 . S
C797 C795 1.415 1_556 S
C798 H788 0.930 . S
C798 C796 1.419 . S
C798 C799 1.362 . S
C799 H789 0.930 . S
C799 C792 1.409 1_554 S
C799 C798 1.362 . S
H800 C806 0.930 . S
H801 C809 0.930 . S
H802 C810 0.930 . S
H803 C811 0.930 . S
H804 C814 0.930 . S
H805 C815 0.930 . S
C806 H800 0.930 . S
C806 C807 1.355 . S
C806 C808 1.415 . S
C807 C806 1.355 . S
C807 C809 1.419 . S
C808 C806 1.415 . S
C808 C813 1.425 1_545 S
C808 C815 1.409 1_545 S
C809 H801 0.930 . S
C809 C807 1.419 . S
C809 C810 1.362 . S
C810 H802 0.930 . S
C810 C809 1.362 . S
C810 C813 1.409 1_545 S
C811 H803 0.930 . S
C811 C812 1.355 . S
C811 C813 1.415 . S
C812 C811 1.355 . S
C812 C814 1.419 . S
C813 C808 1.425 1_565 S
C813 C810 1.409 1_565 S
C813 C811 1.415 . S
C814 H804 0.930 . S
C814 C812 1.419 . S
C814 C815 1.362 . S
C815 H805 0.930 . S
C815 C808 1.409 1_565 S
C815 C814 1.362 . S
H816 C822 0.930 . S
H817 C825 0.930 . S
H818 C826 0.930 . S
H819 C827 0.930 . S
H820 C830 0.930 . S
H821 C831 0.930 . S
C822 H816 0.930 . S
C822 C823 1.355 . S
C822 C824 1.415 . S
C823 C822 1.355 . S
C823 C825 1.419 . S
C824 C822 1.415 . S
C824 C829 1.425 . S
C824 C831 1.409 . S
C825 H817 0.930 . S
C825 C823 1.419 . S
C825 C826 1.362 . S
C826 H818 0.930 . S
C826 C825 1.362 . S
C826 C829 1.409 . S
C827 H819 0.930 . S
C827 C828 1.355 . S
C827 C829 1.415 . S
C828 C827 1.355 . S
C828 C830 1.419 . S
C829 C824 1.425 . S
C829 C826 1.409 . S
C829 C827 1.415 . S
C830 H820 0.930 . S
C830 C828 1.419 . S
C830 C831 1.362 . S
C831 H821 0.930 . S
C831 C824 1.409 . S
C831 C830 1.362 . S
H832 C838 0.930 . S
H833 C841 0.930 . S
H834 C842 0.930 . S
H835 C843 0.930 . S
H836 C846 0.930 . S
H837 C847 0.933 . S
C838 H832 0.930 . S
C838 C839 1.355 . S
C838 C840 1.415 . S
C839 C838 1.355 . S
C839 C841 1.419 . S
C840 C838 1.415 . S
C840 C845 1.425 . S
C840 C847 1.409 1_545 S
C841 H833 0.930 . S
C841 C839 1.419 . S
C841 C842 1.362 . S
C842 H834 0.930 . S
C842 C841 1.362 . S
C842 C845 1.409 . S
C843 H835 0.930 . S
C843 C844 1.355 . S
C843 C845 1.415 1_565 S
C844 C843 1.355 . S
C844 C846 1.419 . S
C845 C840 1.425 . S
C845 C842 1.409 . S
C845 C843 1.415 1_545 S
C846 H836 0.930 . S
C846 C844 1.419 . S
C846 C847 1.362 . S
C847 H837 0.933 . S
C847 C840 1.409 1_565 S
C847 C846 1.362 . S
H848 C854 0.930 . S
H849 C857 0.930 . S
H850 C858 0.930 . S
H851 C859 0.930 . S
H852 C862 0.930 . S
H853 C863 0.930 . S
C854 H848 0.930 . S
C854 C855 1.355 . S
C854 C856 1.415 . S
C855 C854 1.355 . S
C855 C857 1.419 . S
C856 C854 1.415 . S
C856 C861 1.425 . S
C856 C863 1.409 . S
C857 H849 0.930 . S
C857 C855 1.419 . S
C857 C858 1.362 . S
C858 H850 0.930 . S
C858 C857 1.362 . S
C858 C861 1.409 . S
C859 H851 0.930 . S
C859 C860 1.355 . S
C859 C861 1.415 . S
C860 C859 1.355 . S
C860 C862 1.419 . S
C861 C856 1.425 . S
C861 C858 1.409 . S
C861 C859 1.415 . S
C862 H852 0.930 . S
C862 C860 1.419 . S
C862 C863 1.362 . S
C863 H853 0.930 . S
C863 C856 1.409 . S
C863 C862 1.362 . S
H864 C870 0.930 . S
H865 C873 0.930 1_545 S
H866 C874 0.930 . S
H867 C875 0.930 . S
H868 C878 0.930 1_565 S
H869 C879 0.930 . S
C870 H864 0.930 . S
C870 C871 1.355 . S
C870 C872 1.415 . S
C871 C870 1.355 . S
C871 C873 1.419 . S
C872 C870 1.415 . S
C872 C877 1.425 1_565 S
C872 C879 1.409 . S
C873 H865 0.930 1_565 S
C873 C871 1.419 . S
C873 C874 1.362 1_565 S
C874 H866 0.930 . S
C874 C873 1.362 1_545 S
C874 C877 1.409 . S
C875 H867 0.930 . S
C875 C876 1.355 . S
C875 C877 1.415 . S
C876 C875 1.355 . S
C876 C878 1.419 . S
C877 C872 1.425 1_545 S
C877 C874 1.409 . S
C877 C875 1.415 . S
C878 H868 0.930 1_545 S
C878 C876 1.419 . S
C878 C879 1.362 1_545 S
C879 H869 0.930 . S
C879 C872 1.409 . S
C879 C878 1.362 1_565 S
H880 C886 0.930 . S
H881 C889 0.930 . S
H882 C890 0.930 . S
H883 C891 0.930 . S
H884 C894 0.930 . S
H885 C895 0.930 . S
C886 H880 0.930 . S
C886 C887 1.355 . S
C886 C888 1.415 . S
C887 C886 1.355 . S
C887 C889 1.419 . S
C888 C886 1.415 . S
C888 C893 1.425 . S
C888 C895 1.409 . S
C889 H881 0.930 . S
C889 C887 1.419 . S
C889 C890 1.362 . S
C890 H882 0.930 . S
C890 C889 1.362 . S
C890 C893 1.409 . S
C891 H883 0.930 . S
C891 C892 1.355 . S
C891 C893 1.415 . S
C892 C891 1.355 . S
C892 C894 1.419 . S
C893 C888 1.425 . S
C893 C890 1.409 . S
C893 C891 1.415 . S
C894 H884 0.930 . S
C894 C892 1.419 . S
C894 C895 1.362 . S
C895 H885 0.930 . S
C895 C888 1.409 . S
C895 C894 1.362 . S
H896 C902 0.930 . S
H897 C905 0.930 . S
H898 C906 0.930 . S
H899 C907 0.930 . S
H900 C910 0.930 . S
H901 C911 0.930 . S
C902 H896 0.930 . S
C902 C903 1.355 . S
C902 C904 1.415 . S
C903 C902 1.355 . S
C903 C905 1.419 . S
C904 C902 1.415 . S
C904 C909 1.425 . S
C904 C911 1.409 . S
C905 H897 0.930 . S
C905 C903 1.419 . S
C905 C906 1.362 . S
C906 H898 0.930 . S
C906 C905 1.362 . S
C906 C909 1.409 . S
C907 H899 0.930 . S
C907 C908 1.355 . S
C907 C909 1.415 . S
C908 C907 1.355 . S
C908 C910 1.419 . S
C909 C904 1.425 . S
C909 C906 1.409 . S
C909 C907 1.415 . S
C910 H900 0.930 . S
C910 C908 1.419 . S
C910 C911 1.362 . S
C911 H901 0.930 . S
C911 C904 1.409 . S
C911 C910 1.362 . S
H912 C918 0.930 . S
H913 C921 0.930 . S
H914 C922 0.930 . S
H915 C923 0.930 . S
H916 C926 0.930 . S
H917 C927 0.930 . S
C918 H912 0.930 . S
C918 C919 1.355 . S
C918 C920 1.415 . S
C919 C918 1.355 . S
C919 C921 1.419 . S
C920 C918 1.415 . S
C920 C925 1.425 . S
C920 C927 1.409 . S
C921 H913 0.930 . S
C921 C919 1.419 . S
C921 C922 1.362 . S
C922 H914 0.930 . S
C922 C921 1.362 . S
C922 C925 1.409 . S
C923 H915 0.930 . S
C923 C924 1.355 . S
C923 C925 1.415 . S
C924 C923 1.355 . S
C924 C926 1.419 . S
C925 C920 1.425 . S
C925 C922 1.409 . S
C925 C923 1.415 . S
C926 H916 0.930 . S
C926 C924 1.419 . S
C926 C927 1.362 . S
C927 H917 0.930 . S
C927 C920 1.409 . S
C927 C926 1.362 . S
H928 C934 0.930 . S
H929 C937 0.930 . S
H930 C938 0.930 . S
H931 C939 0.930 . S
H932 C942 0.930 . S
H933 C943 0.930 . S
C934 H928 0.930 . S
C934 C935 1.355 . S
C934 C936 1.415 . S
C935 C934 1.355 . S
C935 C937 1.419 . S
C936 C934 1.415 . S
C936 C941 1.425 . S
C936 C943 1.409 . S
C937 H929 0.930 . S
C937 C935 1.419 . S
C937 C938 1.362 . S
C938 H930 0.930 . S
C938 C937 1.362 . S
C938 C941 1.409 . S
C939 H931 0.930 . S
C939 C940 1.355 . S
C939 C941 1.415 . S
C940 C939 1.355 . S
C940 C942 1.419 . S
C941 C936 1.425 . S
C941 C938 1.409 . S
C941 C939 1.415 . S
C942 H932 0.930 . S
C942 C940 1.419 . S
C942 C943 1.362 . S
C943 H933 0.930 . S
C943 C936 1.409 . S
C943 C942 1.362 . S
H944 C950 0.930 . S
H945 C953 0.930 . S
H946 C954 0.930 . S
H947 C955 0.930 . S
H948 C958 0.930 . S
H949 C959 0.930 . S
C950 H944 0.930 . S
C950 C951 1.355 . S
C950 C952 1.415 . S
C951 C950 1.355 . S
C951 C953 1.419 . S
C952 C950 1.415 . S
C952 C957 1.425 . S
C952 C959 1.409 . S
C953 H945 0.930 . S
C953 C951 1.419 . S
C953 C954 1.362 . S
C954 H946 0.930 . S
C954 C953 1.362 . S
C954 C957 1.409 . S
C955 H947 0.930 . S
C955 C956 1.355 . S
C955 C957 1.415 . S
C956 C955 1.355 . S
C956 C958 1.419 . S
C957 C952 1.425 . S
C957 C954 1.409 . S
C957 C955 1.415 . S
C958 H948 0.930 . S
C958 C956 1.419 . S
C958 C959 1.362 . S
C959 H949 0.930 . S
C959 C952 1.409 . S
C959 C958 1.362 . S
H960 C966 0.930 . S
H961 C969 0.930 . S
H962 C970 0.930 . S
H963 C971 0.930 . S
H964 C974 0.930 . S
H965 C975 0.930 . S
C966 H960 0.930 . S
C966 C967 1.355 . S
C966 C968 1.415 . S
C967 C966 1.355 . S
C967 C969 1.419 . S
C968 C966 1.415 . S
C968 C973 1.425 . S
C968 C975 1.409 . S
C969 H961 0.930 . S
C969 C967 1.419 . S
C969 C970 1.362 . S
C970 H962 0.930 . S
C970 C969 1.362 . S
C970 C973 1.409 . S
C971 H963 0.930 . S
C971 C972 1.355 . S
C971 C973 1.415 . S
C972 C971 1.355 . S
C972 C974 1.419 . S
C973 C968 1.425 . S
C973 C970 1.409 . S
C973 C971 1.415 . S
C974 H964 0.930 . S
C974 C972 1.419 . S
C974 C975 1.362 . S
C975 H965 0.930 . S
C975 C968 1.409 . S
C975 C974 1.362 . S
H976 C982 0.930 . S
H977 C985 0.930 . S
H978 C986 0.930 . S
H979 C987 0.930 . S
H980 C990 0.930 . S
H981 C991 0.930 . S
C982 H976 0.930 . S
C982 C983 1.355 . S
C982 C984 1.415 . S
C983 C982 1.355 . S
C983 C985 1.419 . S
C984 C982 1.415 . S
C984 C989 1.425 . S
C984 C991 1.409 . S
C985 H977 0.930 . S
C985 C983 1.419 . S
C985 C986 1.362 . S
C986 H978 0.930 . S
C986 C985 1.362 . S
C986 C989 1.409 . S
C987 H979 0.930 . S
C987 C988 1.355 . S
C987 C989 1.415 . S
C988 C987 1.355 . S
C988 C990 1.419 . S
C989 C984 1.425 . S
C989 C986 1.409 . S
C989 C987 1.415 . S
C990 H980 0.930 . S
C990 C988 1.419 . S
C990 C991 1.362 . S
C991 H981 0.930 . S
C991 C984 1.409 . S
C991 C990 1.362 . S
H992 C998 0.930 . S
H993 C1001 0.930 . S
H994 C1002 0.930 . S
H995 C1003 0.930 . S
H996 C1006 0.930 . S
H997 C1007 0.930 . S
C998 H992 0.930 . S
C998 C999 1.355 1_556 S
C998 C1000 1.415 . S
C999 C998 1.355 1_554 S
C999 C1001 1.419 . S
C1000 C998 1.415 . S
C1000 C1005 1.425 . S
C1000 C1007 1.409 . S
C1001 H993 0.930 . S
C1001 C999 1.419 . S
C1001 C1002 1.362 1_554 S
C1002 H994 0.930 . S
C1002 C1001 1.362 1_556 S
C1002 C1005 1.409 . S
C1003 H995 0.930 . S
C1003 C1004 1.355 . S
C1003 C1005 1.415 . S
C1004 C1003 1.355 . S
C1004 C1006 1.419 . S
C1005 C1000 1.425 . S
C1005 C1002 1.409 . S
C1005 C1003 1.415 . S
C1006 H996 0.930 . S
C1006 C1004 1.419 . S
C1006 C1007 1.362 . S
C1007 H997 0.930 . S
C1007 C1000 1.409 . S
C1007 C1006 1.362 . S
H1008 C1014 0.930 . S
H1009 C1017 0.930 . S
H1010 C1018 0.930 . S
H1011 C1019 0.930 . S
H1012 C1022 0.930 . S
H1013 C1023 0.930 . S
C1014 H1008 0.930 . S
C1014 C1015 1.355 . S
C1014 C1016 1.415 . S
C1015 C1014 1.355 . S
C1015 C1017 1.419 . S
C1016 C1014 1.415 . S
C1016 C1021 1.425 . S
C1016 C1023 1.409 . S
C1017 H1009 0.930 . S
C1017 C1015 1.419 . S
C1017 C1018 1.362 . S
C1018 H1010 0.930 . S
C1018 C1017 1.362 . S
C1018 C1021 1.409 . S
C1019 H1011 0.930 . S
C1019 C1020 1.355 . S
C1019 C1021 1.415 . S
C1020 C1019 1.355 . S
C1020 C1022 1.419 . S
C1021 C1016 1.425 . S
C1021 C1018 1.409 . S
C1021 C1019 1.415 . S
C1022 H1012 0.930 . S
C1022 C1020 1.419 . S
C1022 C1023 1.362 . S
C1023 H1013 0.930 . S
C1023 C1016 1.409 . S
C1023 C1022 1.362 . S
H1024 C1030 0.930 . S
H1025 C1033 0.930 . S
H1026 C1034 0.930 . S
H1027 C1035 0.930 . S
H1028 C1038 0.930 . S
H1029 C1039 0.930 1_554 S
C1030 H1024 0.930 . S
C1030 C1031 1.355 . S
C1030 C1032 1.415 1_554 S
C1031 C1030 1.355 . S
C1031 C1033 1.419 1_554 S
C1032 C1030 1.415 1_556 S
C1032 C1037 1.425 . S
C1032 C1039 1.409 . S
C1033 H1025 0.930 . S
C1033 C1031 1.419 1_556 S
C1033 C1034 1.362 . S
C1034 H1026 0.930 . S
C1034 C1033 1.362 . S
C1034 C1037 1.409 . S
C1035 H1027 0.930 . S
C1035 C1036 1.355 . S
C1035 C1037 1.415 . S
C1036 C1035 1.355 . S
C1036 C1038 1.419 . S
C1037 C1032 1.425 . S
C1037 C1034 1.409 . S
C1037 C1035 1.415 . S
C1038 H1028 0.930 . S
C1038 C1036 1.419 . S
C1038 C1039 1.362 . S
C1039 H1029 0.930 1_556 S
C1039 C1032 1.409 . S
C1039 C1038 1.362 . S
H1040 C1046 0.930 . S
H1041 C1049 0.930 . S
H1042 C1050 0.930 . S
H1043 C1051 0.930 . S
H1044 C1054 0.930 . S
H1045 C1055 0.930 . S
C1046 H1040 0.930 . S
C1046 C1047 1.355 . S
C1046 C1048 1.415 . S
C1047 C1046 1.355 . S
C1047 C1049 1.419 . S
C1048 C1046 1.415 . S
C1048 C1053 1.425 . S
C1048 C1055 1.409 . S
C1049 H1041 0.930 . S
C1049 C1047 1.419 . S
C1049 C1050 1.362 . S
C1050 H1042 0.930 . S
C1050 C1049 1.362 . S
C1050 C1053 1.409 . S
C1051 H1043 0.930 . S
C1051 C1052 1.355 . S
C1051 C1053 1.415 . S
C1052 C1051 1.355 . S
C1052 C1054 1.419 . S
C1053 C1048 1.425 . S
C1053 C1050 1.409 . S
C1053 C1051 1.415 . S
C1054 H1044 0.930 . S
C1054 C1052 1.419 . S
C1054 C1055 1.362 . S
C1055 H1045 0.930 . S
C1055 C1048 1.409 . S
C1055 C1054 1.362 . S
H1056 C1062 0.930 . S
H1057 C1065 0.930 . S
H1058 C1066 0.930 . S
H1059 C1067 0.930 . S
H1060 C1070 0.930 . S
H1061 C1071 0.930 . S
C1062 H1056 0.930 . S
C1062 C1063 1.355 . S
C1062 C1064 1.415 . S
C1063 C1062 1.355 . S
C1063 C1065 1.419 . S
C1064 C1062 1.415 . S
C1064 C1069 1.425 . S
C1064 C1071 1.409 . S
C1065 H1057 0.930 . S
C1065 C1063 1.419 . S
C1065 C1066 1.362 . S
C1066 H1058 0.930 . S
C1066 C1065 1.362 . S
C1066 C1069 1.409 . S
C1067 H1059 0.930 . S
C1067 C1068 1.355 . S
C1067 C1069 1.415 . S
C1068 C1067 1.355 . S
C1068 C1070 1.419 . S
C1069 C1064 1.425 . S
C1069 C1066 1.409 . S
C1069 C1067 1.415 . S
C1070 H1060 0.930 . S
C1070 C1068 1.419 . S
C1070 C1071 1.362 . S
C1071 H1061 0.930 . S
C1071 C1064 1.409 . S
C1071 C1070 1.362 . S
H1072 C1078 0.930 . S
H1073 C1081 0.930 . S
H1074 C1082 0.930 . S
H1075 C1083 0.930 . S
H1076 C1086 0.930 . S
H1077 C1087 0.930 . S
C1078 H1072 0.930 . S
C1078 C1079 1.355 . S
C1078 C1080 1.415 . S
C1079 C1078 1.355 . S
C1079 C1081 1.419 . S
C1080 C1078 1.415 . S
C1080 C1085 1.425 . S
C1080 C1087 1.409 . S
C1081 H1073 0.930 . S
C1081 C1079 1.419 . S
C1081 C1082 1.362 . S
C1082 H1074 0.930 . S
C1082 C1081 1.362 . S
C1082 C1085 1.409 . S
C1083 H1075 0.930 . S
C1083 C1084 1.355 . S
C1083 C1085 1.415 . S
C1084 C1083 1.355 . S
C1084 C1086 1.419 . S
C1085 C1080 1.425 . S
C1085 C1082 1.409 . S
C1085 C1083 1.415 . S
C1086 H1076 0.930 . S
C1086 C1084 1.419 . S
C1086 C1087 1.362 . S
C1087 H1077 0.930 . S
C1087 C1080 1.409 . S
C1087 C1086 1.362 . S
H1088 C1094 0.930 . S
H1089 C1097 0.930 . S
H1090 C1098 0.930 . S
H1091 C1099 0.930 . S
H1092 C1102 0.930 . S
H1093 C1103 0.930 . S
C1094 H1088 0.930 . S
C1094 C1095 1.355 . S
C1094 C1096 1.415 . S
C1095 C1094 1.355 . S
C1095 C1097 1.419 . S
C1096 C1094 1.415 . S
C1096 C1101 1.425 . S
C1096 C1103 1.409 . S
C1097 H1089 0.930 . S
C1097 C1095 1.419 . S
C1097 C1098 1.362 . S
C1098 H1090 0.930 . S
C1098 C1097 1.362 . S
C1098 C1101 1.409 . S
C1099 H1091 0.930 . S
C1099 C1100 1.355 . S
C1099 C1101 1.415 . S
C1100 C1099 1.355 . S
C1100 C1102 1.419 . S
C1101 C1096 1.425 . S
C1101 C1098 1.409 . S
C1101 C1099 1.415 . S
C1102 H1092 0.930 . S
C1102 C1100 1.419 . S
C1102 C1103 1.362 . S
C1103 H1093 0.930 . S
C1103 C1096 1.409 . S
C1103 C1102 1.362 . S
H1104 C1110 0.930 . S
H1105 C1113 0.930 . S
H1106 C1114 0.930 . S
H1107 C1115 0.930 . S
H1108 C1118 0.930 . S
H1109 C1119 0.930 . S
C1110 H1104 0.930 . S
C1110 C1111 1.355 . S
C1110 C1112 1.415 . S
C1111 C1110 1.355 . S
C1111 C1113 1.419 . S
C1112 C1110 1.415 . S
C1112 C1117 1.425 . S
C1112 C1119 1.409 . S
C1113 H1105 0.930 . S
C1113 C1111 1.419 . S
C1113 C1114 1.362 . S
C1114 H1106 0.930 . S
C1114 C1113 1.362 . S
C1114 C1117 1.409 . S
C1115 H1107 0.930 . S
C1115 C1116 1.355 . S
C1115 C1117 1.415 . S
C1116 C1115 1.355 . S
C1116 C1118 1.419 . S
C1117 C1112 1.425 . S
C1117 C1114 1.409 . S
C1117 C1115 1.415 . S
C1118 H1108 0.930 . S
C1118 C1116 1.419 . S
C1118 C1119 1.362 . S
C1119 H1109 0.930 . S
C1119 C1112 1.409 . S
C1119 C1118 1.362 . S
H1120 C1126 0.930 . S
H1121 C1129 0.930 . S
H1122 C1130 0.930 . S
H1123 C1131 0.930 . S
H1124 C1134 0.930 . S
H1125 C1135 0.930 . S
C1126 H1120 0.930 . S
C1126 C1127 1.355 . S
C1126 C1128 1.415 . S
C1127 C1126 1.355 . S
C1127 C1129 1.419 . S
C1128 C1126 1.415 . S
C1128 C1133 1.425 . S
C1128 C1135 1.409 . S
C1129 H1121 0.930 . S
C1129 C1127 1.419 . S
C1129 C1130 1.362 . S
C1130 H1122 0.930 . S
C1130 C1129 1.362 . S
C1130 C1133 1.409 . S
C1131 H1123 0.930 . S
C1131 C1132 1.355 . S
C1131 C1133 1.415 . S
C1132 C1131 1.355 . S
C1132 C1134 1.419 . S
C1133 C1128 1.425 . S
C1133 C1130 1.409 . S
C1133 C1131 1.415 . S
C1134 H1124 0.930 . S
C1134 C1132 1.419 . S
C1134 C1135 1.362 . S
C1135 H1125 0.930 . S
C1135 C1128 1.409 . S
C1135 C1134 1.362 . S
H1136 C1142 0.930 . S
H1137 C1145 0.930 . S
H1138 C1146 0.930 . S
H1139 C1147 0.930 . S
H1140 C1150 0.930 . S
H1141 C1151 0.930 . S
C1142 H1136 0.930 . S
C1142 C1143 1.355 . S
C1142 C1144 1.415 . S
C1143 C1142 1.355 . S
C1143 C1145 1.419 . S
C1144 C1142 1.415 . S
C1144 C1149 1.425 . S
C1144 C1151 1.409 . S
C1145 H1137 0.930 . S
C1145 C1143 1.419 . S
C1145 C1146 1.362 . S
C1146 H1138 0.930 . S
C1146 C1145 1.362 . S
C1146 C1149 1.409 . S
C1147 H1139 0.930 . S
C1147 C1148 1.361 . S
C1147 C1149 1.415 . S
C1148 C1147 1.361 . S
C1148 C1150 1.429 . S
C1149 C1144 1.425 . S
C1149 C1146 1.409 . S
C1149 C1147 1.415 . S
C1150 H1140 0.930 . S
C1150 C1148 1.429 . S
C1150 C1151 1.362 . S
C1151 H1141 0.930 . S
C1151 C1144 1.409 . S
C1151 C1150 1.362 . S
H1152 C1158 0.923 1_455 S
H1153 C1161 0.930 . S
H1154 C1162 0.930 . S
H1155 C1163 0.925 1_655 S
H1156 C1166 0.930 . S
H1157 C1167 0.930 . S
C1158 H1152 0.923 1_655 S
C1158 C1159 1.355 . S
C1158 C1160 1.415 1_655 S
C1159 C1158 1.355 . S
C1159 C1161 1.419 . S
C1160 C1158 1.415 1_455 S
C1160 C1165 1.425 1_455 S
C1160 C1167 1.409 . S
C1161 H1153 0.930 . S
C1161 C1159 1.419 . S
C1161 C1162 1.362 . S
C1162 H1154 0.930 . S
C1162 C1161 1.362 . S
C1162 C1165 1.409 . S
C1163 H1155 0.925 1_455 S
C1163 C1164 1.355 . S
C1163 C1165 1.415 1_455 S
C1164 C1163 1.355 . S
C1164 C1166 1.419 . S
C1165 C1160 1.425 1_655 S
C1165 C1162 1.409 . S
C1165 C1163 1.415 1_655 S
C1166 H1156 0.930 . S
C1166 C1164 1.419 . S
C1166 C1167 1.362 . S
C1167 H1157 0.930 . S
C1167 C1160 1.409 . S
C1167 C1166 1.362 . S
H1168 C1174 0.930 . S
H1169 C1177 0.930 . S
H1170 C1178 0.930 . S
H1171 C1179 0.930 . S
H1172 C1182 0.930 . S
H1173 C1183 0.930 . S
C1174 H1168 0.930 . S
C1174 C1175 1.355 . S
C1174 C1176 1.415 . S
C1175 C1174 1.355 . S
C1175 C1177 1.419 . S
C1176 C1174 1.415 . S
C1176 C1181 1.425 . S
C1176 C1183 1.409 . S
C1177 H1169 0.930 . S
C1177 C1175 1.419 . S
C1177 C1178 1.362 . S
C1178 H1170 0.930 . S
C1178 C1177 1.362 . S
C1178 C1181 1.409 . S
C1179 H1171 0.930 . S
C1179 C1180 1.355 . S
C1179 C1181 1.415 . S
C1180 C1179 1.355 . S
C1180 C1182 1.419 . S
C1181 C1176 1.425 . S
C1181 C1178 1.409 . S
C1181 C1179 1.415 . S
C1182 H1172 0.930 . S
C1182 C1180 1.419 . S
C1182 C1183 1.362 . S
C1183 H1173 0.930 . S
C1183 C1176 1.409 . S
C1183 C1182 1.362 . S
H1184 C1190 0.930 . S
H1185 C1193 0.930 . S
H1186 C1194 0.930 . S
H1187 C1195 0.930 . S
H1188 C1198 0.930 . S
H1189 C1199 0.930 . S
C1190 H1184 0.930 . S
C1190 C1191 1.355 . S
C1190 C1192 1.415 . S
C1191 C1190 1.355 . S
C1191 C1193 1.419 . S
C1192 C1190 1.415 . S
C1192 C1197 1.425 . S
C1192 C1199 1.409 . S
C1193 H1185 0.930 . S
C1193 C1191 1.419 . S
C1193 C1194 1.362 . S
C1194 H1186 0.930 . S
C1194 C1193 1.362 . S
C1194 C1197 1.409 . S
C1195 H1187 0.930 . S
C1195 C1196 1.355 . S
C1195 C1197 1.415 . S
C1196 C1195 1.355 . S
C1196 C1198 1.419 . S
C1197 C1192 1.425 . S
C1197 C1194 1.409 . S
C1197 C1195 1.415 . S
C1198 H1188 0.930 . S
C1198 C1196 1.419 . S
C1198 C1199 1.362 . S
C1199 H1189 0.930 . S
C1199 C1192 1.409 . S
C1199 C1198 1.362 . S
H1200 C1206 0.930 . S
H1201 C1209 0.930 . S
H1202 C1210 0.930 . S
H1203 C1211 0.930 . S
H1204 C1214 0.930 . S
H1205 C1215 0.930 . S
C1206 H1200 0.930 . S
C1206 C1207 1.355 . S
C1206 C1208 1.415 . S
C1207 C1206 1.355 . S
C1207 C1209 1.419 . S
C1208 C1206 1.415 . S
C1208 C1213 1.425 . S
C1208 C1215 1.409 . S
C1209 H1201 0.930 . S
C1209 C1207 1.419 . S
C1209 C1210 1.362 . S
C1210 H1202 0.930 . S
C1210 C1209 1.362 . S
C1210 C1213 1.409 . S
C1211 H1203 0.930 . S
C1211 C1212 1.355 . S
C1211 C1213 1.415 . S
C1212 C1211 1.355 . S
C1212 C1214 1.419 . S
C1213 C1208 1.425 . S
C1213 C1210 1.409 . S
C1213 C1211 1.415 . S
C1214 H1204 0.930 . S
C1214 C1212 1.419 . S
C1214 C1215 1.362 . S
C1215 H1205 0.930 . S
C1215 C1208 1.409 . S
C1215 C1214 1.362 . S
H1216 C1222 0.930 . S
H1217 C1225 0.930 . S
H1218 C1226 0.930 . S
H1219 C1227 0.930 . S
H1220 C1230 0.930 . S
H1221 C1231 0.930 . S
C1222 H1216 0.930 . S
C1222 C1223 1.355 . S
C1222 C1224 1.415 . S
C1223 C1222 1.355 . S
C1223 C1225 1.419 . S
C1224 C1222 1.415 . S
C1224 C1229 1.425 1_655 S
C1224 C1231 1.409 . S
C1225 H1217 0.930 . S
C1225 C1223 1.419 . S
C1225 C1226 1.362 1_655 S
C1226 H1218 0.930 . S
C1226 C1225 1.362 1_455 S
C1226 C1229 1.409 . S
C1227 H1219 0.930 . S
C1227 C1228 1.355 . S
C1227 C1229 1.415 . S
C1228 C1227 1.355 . S
C1228 C1230 1.419 . S
C1229 C1224 1.425 1_455 S
C1229 C1226 1.409 . S
C1229 C1227 1.415 . S
C1230 H1220 0.930 . S
C1230 C1228 1.419 . S
C1230 C1231 1.362 1_455 S
C1231 H1221 0.930 . S
C1231 C1224 1.409 . S
C1231 C1230 1.362 1_655 S
H1232 C1238 0.930 . S
H1233 C1241 0.930 . S
H1234 C1242 0.930 . S
H1235 C1243 0.930 . S
H1236 C1246 0.930 . S
H1237 C1247 0.930 . S
C1238 H1232 0.930 . S
C1238 C1239 1.355 . S
C1238 C1240 1.415 . S
C1239 C1238 1.355 . S
C1239 C1241 1.419 . S
C1240 C1238 1.415 . S
C1240 C1245 1.425 . S
C1240 C1247 1.409 . S
C1241 H1233 0.930 . S
C1241 C1239 1.419 . S
C1241 C1242 1.362 . S
C1242 H1234 0.930 . S
C1242 C1241 1.362 . S
C1242 C1245 1.409 . S
C1243 H1235 0.930 . S
C1243 C1244 1.355 . S
C1243 C1245 1.415 . S
C1244 C1243 1.355 . S
C1244 C1246 1.419 . S
C1245 C1240 1.425 . S
C1245 C1242 1.409 . S
C1245 C1243 1.415 . S
C1246 H1236 0.930 . S
C1246 C1244 1.419 . S
C1246 C1247 1.362 . S
C1247 H1237 0.930 . S
C1247 C1240 1.409 . S
C1247 C1246 1.362 . S
H1248 C1254 0.930 . S
H1249 C1257 0.930 . S
H1250 C1258 0.930 1_556 S
H1251 C1259 0.930 1_556 S
H1252 C1262 0.930 . S
H1253 C1263 0.930 . S
C1254 H1248 0.930 . S
C1254 C1255 1.355 . S
C1254 C1256 1.415 . S
C1255 C1254 1.355 . S
C1255 C1257 1.419 . S
C1256 C1254 1.415 . S
C1256 C1261 1.425 . S
C1256 C1263 1.409 . S
C1257 H1249 0.930 . S
C1257 C1255 1.419 . S
C1257 C1258 1.362 . S
C1258 H1250 0.930 1_554 S
C1258 C1257 1.362 . S
C1258 C1261 1.409 . S
C1259 H1251 0.930 1_554 S
C1259 C1260 1.355 . S
C1259 C1261 1.415 . S
C1260 C1259 1.355 . S
C1260 C1262 1.419 . S
C1261 C1256 1.425 . S
C1261 C1258 1.409 . S
C1261 C1259 1.415 . S
C1262 H1252 0.930 . S
C1262 C1260 1.419 . S
C1262 C1263 1.362 . S
C1263 H1253 0.930 . S
C1263 C1256 1.409 . S
C1263 C1262 1.362 . S
H1264 C1270 0.930 . S
H1265 C1273 0.930 . S
H1266 C1274 0.930 . S
H1267 C1275 0.930 . S
H1268 C1278 0.930 . S
H1269 C1279 0.930 . S
C1270 H1264 0.930 . S
C1270 C1271 1.355 . S
C1270 C1272 1.415 . S
C1271 C1270 1.355 . S
C1271 C1273 1.419 . S
C1272 C1270 1.415 . S
C1272 C1277 1.425 . S
C1272 C1279 1.409 . S
C1273 H1265 0.930 . S
C1273 C1271 1.419 . S
C1273 C1274 1.362 . S
C1274 H1266 0.930 . S
C1274 C1273 1.362 . S
C1274 C1277 1.409 . S
C1275 H1267 0.930 . S
C1275 C1276 1.355 . S
C1275 C1277 1.415 . S
C1276 C1275 1.355 . S
C1276 C1278 1.419 . S
C1277 C1272 1.425 . S
C1277 C1274 1.409 . S
C1277 C1275 1.415 . S
C1278 H1268 0.930 . S
C1278 C1276 1.419 . S
C1278 C1279 1.362 . S
C1279 H1269 0.930 . S
C1279 C1272 1.409 . S
C1279 C1278 1.362 . S
H1280 C1286 0.930 . S
H1281 C1289 0.930 . S
H1282 C1290 0.930 . S
H1283 C1291 0.930 . S
H1284 C1294 0.930 . S
H1285 C1295 0.930 . S
C1286 H1280 0.930 . S
C1286 C1287 1.355 . S
C1286 C1288 1.415 . S
C1287 C1286 1.355 . S
C1287 C1289 1.419 . S
C1288 C1286 1.415 . S
C1288 C1293 1.425 . S
C1288 C1295 1.409 . S
C1289 H1281 0.930 . S
C1289 C1287 1.419 . S
C1289 C1290 1.362 . S
C1290 H1282 0.930 . S
C1290 C1289 1.362 . S
C1290 C1293 1.409 . S
C1291 H1283 0.930 . S
C1291 C1292 1.355 . S
C1291 C1293 1.415 . S
C1292 C1291 1.355 . S
C1292 C1294 1.419 . S
C1293 C1288 1.425 . S
C1293 C1290 1.409 . S
C1293 C1291 1.415 . S
C1294 H1284 0.930 . S
C1294 C1292 1.419 . S
C1294 C1295 1.362 . S
C1295 H1285 0.930 . S
C1295 C1288 1.409 . S
C1295 C1294 1.362 . S
H1296 C1302 0.930 . S
H1297 C1305 0.930 . S
H1298 C1306 0.930 . S
H1299 C1307 0.930 . S
H1300 C1310 0.930 . S
H1301 C1311 0.930 . S
C1302 H1296 0.930 . S
C1302 C1303 1.355 . S
C1302 C1304 1.415 . S
C1303 C1302 1.355 . S
C1303 C1305 1.419 . S
C1304 C1302 1.415 . S
C1304 C1309 1.425 . S
C1304 C1311 1.409 . S
C1305 H1297 0.930 . S
C1305 C1303 1.419 . S
C1305 C1306 1.362 . S
C1306 H1298 0.930 . S
C1306 C1305 1.362 . S
C1306 C1309 1.409 . S
C1307 H1299 0.930 . S
C1307 C1308 1.355 . S
C1307 C1309 1.415 . S
C1308 C1307 1.355 . S
C1308 C1310 1.419 . S
C1309 C1304 1.425 . S
C1309 C1306 1.409 . S
C1309 C1307 1.415 . S
C1310 H1300 0.930 . S
C1310 C1308 1.419 . S
C1310 C1311 1.362 . S
C1311 H1301 0.930 . S
C1311 C1304 1.409 . S
C1311 C1310 1.362 . S
H1312 C1318 0.930 . S
H1313 C1321 0.930 . S
H1314 C1322 0.930 . S
H1315 C1323 0.930 . S
H1316 C1326 0.930 . S
H1317 C1327 0.930 . S
C1318 H1312 0.930 . S
C1318 C1319 1.355 . S
C1318 C1320 1.415 . S
C1319 C1318 1.355 . S
C1319 C1321 1.419 . S
C1320 C1318 1.415 . S
C1320 C1325 1.425 . S
C1320 C1327 1.409 . S
C1321 H1313 0.930 . S
C1321 C1319 1.419 . S
C1321 C1322 1.362 . S
C1322 H1314 0.930 . S
C1322 C1321 1.362 . S
C1322 C1325 1.409 . S
C1323 H1315 0.930 . S
C1323 C1324 1.355 . S
C1323 C1325 1.415 . S
C1324 C1323 1.355 . S
C1324 C1326 1.419 . S
C1325 C1320 1.425 . S
C1325 C1322 1.409 . S
C1325 C1323 1.415 . S
C1326 H1316 0.930 . S
C1326 C1324 1.419 . S
C1326 C1327 1.362 . S
C1327 H1317 0.930 . S
C1327 C1320 1.409 . S
C1327 C1326 1.362 . S
H1328 C1334 0.930 . S
H1329 C1337 0.930 . S
H1330 C1338 0.930 . S
H1331 C1339 0.930 . S
H1332 C1342 0.930 . S
H1333 C1343 0.930 . S
C1334 H1328 0.930 . S
C1334 C1335 1.355 . S
C1334 C1336 1.415 . S
C1335 C1334 1.355 . S
C1335 C1337 1.419 . S
C1336 C1334 1.415 . S
C1336 C1341 1.425 . S
C1336 C1343 1.409 . S
C1337 H1329 0.930 . S
C1337 C1335 1.419 . S
C1337 C1338 1.362 . S
C1338 H1330 0.930 . S
C1338 C1337 1.362 . S
C1338 C1341 1.409 . S
C1339 H1331 0.930 . S
C1339 C1340 1.355 . S
C1339 C1341 1.415 . S
C1340 C1339 1.355 . S
C1340 C1342 1.419 . S
C1341 C1336 1.425 . S
C1341 C1338 1.409 . S
C1341 C1339 1.415 . S
C1342 H1332 0.930 . S
C1342 C1340 1.419 . S
C1342 C1343 1.362 . S
C1343 H1333 0.930 . S
C1343 C1336 1.409 . S
C1343 C1342 1.362 . S
H1344 C1350 0.930 . S
H1345 C1353 0.930 . S
H1346 C1354 0.930 . S
H1347 C1355 0.930 . S
H1348 C1358 0.930 . S
H1349 C1359 0.930 . S
C1350 H1344 0.930 . S
C1350 C1351 1.355 . S
C1350 C1352 1.420 . S
C1351 C1350 1.355 . S
C1351 C1353 1.419 . S
C1352 C1350 1.420 . S
C1352 C1357 1.426 1_545 S
C1352 C1359 1.404 1_545 S
C1353 H1345 0.930 . S
C1353 C1351 1.419 . S
C1353 C1354 1.362 . S
C1354 H1346 0.930 . S
C1354 C1353 1.362 . S
C1354 C1357 1.409 1_545 S
C1355 H1347 0.930 . S
C1355 C1356 1.355 . S
C1355 C1357 1.415 . S
C1356 C1355 1.355 . S
C1356 C1358 1.419 . S
C1357 C1352 1.426 1_565 S
C1357 C1354 1.409 1_565 S
C1357 C1355 1.415 . S
C1358 H1348 0.930 . S
C1358 C1356 1.419 . S
C1358 C1359 1.362 . S
C1359 H1349 0.930 . S
C1359 C1352 1.404 1_565 S
C1359 C1358 1.362 . S
H1360 C1366 0.930 . S
H1361 C1369 0.930 . S
H1362 C1370 0.922 1_656 S
H1363 C1371 0.928 . S
H1364 C1374 0.930 . S
H1365 C1375 0.930 1_455 S
C1366 H1360 0.930 . S
C1366 C1367 1.355 . S
C1366 C1368 1.415 1_565 S
C1367 C1366 1.355 . S
C1367 C1369 1.419 . S
C1368 C1366 1.415 1_545 S
C1368 C1373 1.425 1_445 S
C1368 C1375 1.409 1_455 S
C1369 H1361 0.930 . S
C1369 C1367 1.419 . S
C1369 C1370 1.367 . S
C1370 H1362 0.922 1_454 S
C1370 C1369 1.367 . S
C1370 C1373 1.413 1_455 S
C1371 H1363 0.928 . S
C1371 C1372 1.355 1_556 S
C1371 C1373 1.415 1_546 S
C1372 C1371 1.355 1_554 S
C1372 C1374 1.419 . S
C1373 C1368 1.425 1_665 S
C1373 C1370 1.413 1_655 S
C1373 C1371 1.415 1_564 S
C1374 H1364 0.930 . S
C1374 C1372 1.419 . S
C1374 C1375 1.362 . S
C1375 H1365 0.930 1_655 S
C1375 C1368 1.409 1_655 S
C1375 C1374 1.362 . S
H1376 C1382 0.930 . S
H1377 C1385 0.930 1_545 S
H1378 C1386 0.930 . S
H1379 C1387 0.930 . S
H1380 C1390 0.930 1_565 S
H1381 C1391 0.930 . S
C1382 H1376 0.930 . S
C1382 C1383 1.355 . S
C1382 C1384 1.415 . S
C1383 C1382 1.355 . S
C1383 C1385 1.419 . S
C1384 C1382 1.415 . S
C1384 C1389 1.425 1_565 S
C1384 C1391 1.409 . S
C1385 H1377 0.930 1_565 S
C1385 C1383 1.419 . S
C1385 C1386 1.362 1_565 S
C1386 H1378 0.930 . S
C1386 C1385 1.362 1_545 S
C1386 C1389 1.409 . S
C1387 H1379 0.930 . S
C1387 C1388 1.355 . S
C1387 C1389 1.415 . S
C1388 C1387 1.355 . S
C1388 C1390 1.419 . S
C1389 C1384 1.425 1_545 S
C1389 C1386 1.409 . S
C1389 C1387 1.415 . S
C1390 H1380 0.930 1_545 S
C1390 C1388 1.419 . S
C1390 C1391 1.362 1_545 S
C1391 H1381 0.930 . S
C1391 C1384 1.409 . S
C1391 C1390 1.362 1_565 S
H1392 C1398 0.930 . S
H1393 C1401 0.930 . S
H1394 C1402 0.926 1_455 S
H1395 C1403 0.930 . S
H1396 C1406 0.930 . S
H1397 C1407 0.927 1_655 S
C1398 H1392 0.930 . S
C1398 C1399 1.355 . S
C1398 C1400 1.415 1_565 S
C1399 C1398 1.355 . S
C1399 C1401 1.419 . S
C1400 C1398 1.415 1_545 S
C1400 C1405 1.425 1_645 S
C1400 C1407 1.407 1_655 S
C1401 H1393 0.930 . S
C1401 C1399 1.419 . S
C1401 C1402 1.368 . S
C1402 H1394 0.926 1_655 S
C1402 C1401 1.368 . S
C1402 C1405 1.407 1_655 S
C1403 H1395 0.930 . S
C1403 C1404 1.355 . S
C1403 C1405 1.415 1_545 S
C1404 C1403 1.355 . S
C1404 C1406 1.419 . S
C1405 C1400 1.425 1_465 S
C1405 C1402 1.407 1_455 S
C1405 C1403 1.415 1_565 S
C1406 H1396 0.930 . S
C1406 C1404 1.419 . S
C1406 C1407 1.368 . S
C1407 H1397 0.927 1_455 S
C1407 C1400 1.407 1_455 S
C1407 C1406 1.368 . S
H1408 C1414 0.930 . S
H1409 C1417 0.930 . S
H1410 C1418 0.930 . S
H1411 C1419 0.930 . S
H1412 C1422 0.930 . S
H1413 C1423 0.930 . S
C1414 H1408 0.930 . S
C1414 C1415 1.355 . S
C1414 C1416 1.415 . S
C1415 C1414 1.355 . S
C1415 C1417 1.419 . S
C1416 C1414 1.415 . S
C1416 C1421 1.425 1_455 S
C1416 C1423 1.409 . S
C1417 H1409 0.930 . S
C1417 C1415 1.419 . S
C1417 C1418 1.362 1_455 S
C1418 H1410 0.930 . S
C1418 C1417 1.362 1_655 S
C1418 C1421 1.409 . S
C1419 H1411 0.930 . S
C1419 C1420 1.355 . S
C1419 C1421 1.415 . S
C1420 C1419 1.355 . S
C1420 C1422 1.419 . S
C1421 C1416 1.425 1_655 S
C1421 C1418 1.409 . S
C1421 C1419 1.415 . S
C1422 H1412 0.930 . S
C1422 C1420 1.419 . S
C1422 C1423 1.362 1_655 S
C1423 H1413 0.930 . S
C1423 C1416 1.409 . S
C1423 C1422 1.362 1_455 S
H1424 C1430 0.930 . S
H1425 C1433 0.930 . S
H1426 C1434 0.930 . S
H1427 C1435 0.930 . S
H1428 C1438 0.930 . S
H1429 C1439 0.930 . S
C1430 H1424 0.930 . S
C1430 C1431 1.355 1_554 S
C1430 C1432 1.415 . S
C1431 C1430 1.355 1_556 S
C1431 C1433 1.419 . S
C1432 C1430 1.415 . S
C1432 C1437 1.425 . S
C1432 C1439 1.409 . S
C1433 H1425 0.930 . S
C1433 C1431 1.419 . S
C1433 C1434 1.362 1_556 S
C1434 H1426 0.930 . S
C1434 C1433 1.362 1_554 S
C1434 C1437 1.409 . S
C1435 H1427 0.930 . S
C1435 C1436 1.355 . S
C1435 C1437 1.415 . S
C1436 C1435 1.355 . S
C1436 C1438 1.419 . S
C1437 C1432 1.425 . S
C1437 C1434 1.409 . S
C1437 C1435 1.415 . S
C1438 H1428 0.930 . S
C1438 C1436 1.419 . S
C1438 C1439 1.362 . S
C1439 H1429 0.930 . S
C1439 C1432 1.409 . S
C1439 C1438 1.362 . S
H1440 C1446 0.930 . S
H1441 C1449 0.930 . S
H1442 C1450 0.930 . S
H1443 C1451 0.930 . S
H1444 C1454 0.930 . S
H1445 C1455 0.930 . S
C1446 H1440 0.930 . S
C1446 C1447 1.355 . S
C1446 C1448 1.415 . S
C1447 C1446 1.355 . S
C1447 C1449 1.419 . S
C1448 C1446 1.415 . S
C1448 C1453 1.425 . S
C1448 C1455 1.409 . S
C1449 H1441 0.930 . S
C1449 C1447 1.419 . S
C1449 C1450 1.362 . S
C1450 H1442 0.930 . S
C1450 C1449 1.362 . S
C1450 C1453 1.409 . S
C1451 H1443 0.930 . S
C1451 C1452 1.355 . S
C1451 C1453 1.415 . S
C1452 C1451 1.355 . S
C1452 C1454 1.419 . S
C1453 C1448 1.425 . S
C1453 C1450 1.409 . S
C1453 C1451 1.415 . S
C1454 H1444 0.930 . S
C1454 C1452 1.419 . S
C1454 C1455 1.362 . S
C1455 H1445 0.930 . S
C1455 C1448 1.409 . S
C1455 C1454 1.362 . S
H1456 C1462 0.930 . S
H1457 C1465 0.930 . S
H1458 C1466 0.930 . S
H1459 C1467 0.930 . S
H1460 C1470 0.930 . S
H1461 C1471 0.930 . S
C1462 H1456 0.930 . S
C1462 C1463 1.355 . S
C1462 C1464 1.415 . S
C1463 C1462 1.355 . S
C1463 C1465 1.419 . S
C1464 C1462 1.415 . S
C1464 C1469 1.425 . S
C1464 C1471 1.409 . S
C1465 H1457 0.930 . S
C1465 C1463 1.419 . S
C1465 C1466 1.362 . S
C1466 H1458 0.930 . S
C1466 C1465 1.362 . S
C1466 C1469 1.409 . S
C1467 H1459 0.930 . S
C1467 C1468 1.355 . S
C1467 C1469 1.415 . S
C1468 C1467 1.355 . S
C1468 C1470 1.419 . S
C1469 C1464 1.425 . S
C1469 C1466 1.409 . S
C1469 C1467 1.415 . S
C1470 H1460 0.930 . S
C1470 C1468 1.419 . S
C1470 C1471 1.362 . S
C1471 H1461 0.930 . S
C1471 C1464 1.409 . S
C1471 C1470 1.362 . S
H1472 C1478 0.930 . S
H1473 C1481 0.930 . S
H1474 C1482 0.930 . S
H1475 C1483 0.930 . S
H1476 C1486 0.930 . S
H1477 C1487 0.930 . S
C1478 H1472 0.930 . S
C1478 C1479 1.355 . S
C1478 C1480 1.415 . S
C1479 C1478 1.355 . S
C1479 C1481 1.419 1_655 S
C1480 C1478 1.415 . S
C1480 C1485 1.425 1_655 S
C1480 C1487 1.409 . S
C1481 H1473 0.930 . S
C1481 C1479 1.419 1_455 S
C1481 C1482 1.362 . S
C1482 H1474 0.930 . S
C1482 C1481 1.362 . S
C1482 C1485 1.409 . S
C1483 H1475 0.930 . S
C1483 C1484 1.355 . S
C1483 C1485 1.415 . S
C1484 C1483 1.355 . S
C1484 C1486 1.419 . S
C1485 C1480 1.425 1_455 S
C1485 C1482 1.409 . S
C1485 C1483 1.415 . S
C1486 H1476 0.930 . S
C1486 C1484 1.419 . S
C1486 C1487 1.362 1_455 S
C1487 H1477 0.930 . S
C1487 C1480 1.409 . S
C1487 C1486 1.362 1_655 S
H1488 C1494 0.930 . S
H1489 C1497 0.930 . S
H1490 C1498 0.930 . S
H1491 C1499 0.930 . S
H1492 C1502 0.930 . S
H1493 C1503 0.930 . S
C1494 H1488 0.930 . S
C1494 C1495 1.355 . S
C1494 C1496 1.415 . S
C1495 C1494 1.355 . S
C1495 C1497 1.419 . S
C1496 C1494 1.415 . S
C1496 C1501 1.425 . S
C1496 C1503 1.409 1_554 S
C1497 H1489 0.930 . S
C1497 C1495 1.419 . S
C1497 C1498 1.362 . S
C1498 H1490 0.930 . S
C1498 C1497 1.362 . S
C1498 C1501 1.409 . S
C1499 H1491 0.930 . S
C1499 C1500 1.355 . S
C1499 C1501 1.415 1_556 S
C1500 C1499 1.355 . S
C1500 C1502 1.419 . S
C1501 C1496 1.425 . S
C1501 C1498 1.409 . S
C1501 C1499 1.415 1_554 S
C1502 H1492 0.930 . S
C1502 C1500 1.419 . S
C1502 C1503 1.362 . S
C1503 H1493 0.930 . S
C1503 C1496 1.409 1_556 S
C1503 C1502 1.362 . S
H1504 C1510 0.930 . S
H1505 C1513 0.930 . S
H1506 C1514 0.930 . S
H1507 C1515 0.930 . S
H1508 C1518 0.930 . S
H1509 C1519 0.930 . S
C1510 H1504 0.930 . S
C1510 C1511 1.355 . S
C1510 C1512 1.415 . S
C1511 C1510 1.355 . S
C1511 C1513 1.419 . S
C1512 C1510 1.415 . S
C1512 C1517 1.425 . S
C1512 C1519 1.409 . S
C1513 H1505 0.930 . S
C1513 C1511 1.419 . S
C1513 C1514 1.362 . S
C1514 H1506 0.930 . S
C1514 C1513 1.362 . S
C1514 C1517 1.409 . S
C1515 H1507 0.930 . S
C1515 C1516 1.355 . S
C1515 C1517 1.415 . S
C1516 C1515 1.355 . S
C1516 C1518 1.419 . S
C1517 C1512 1.425 . S
C1517 C1514 1.409 . S
C1517 C1515 1.415 . S
C1518 H1508 0.930 . S
C1518 C1516 1.419 . S
C1518 C1519 1.362 . S
C1519 H1509 0.930 . S
C1519 C1512 1.409 . S
C1519 C1518 1.362 . S
H1520 C1526 0.930 . S
H1521 C1529 0.930 . S
H1522 C1530 0.930 . S
H1523 C1531 0.930 . S
H1524 C1534 0.930 . S
H1525 C1535 0.930 . S
C1526 H1520 0.930 . S
C1526 C1527 1.355 . S
C1526 C1528 1.415 . S
C1527 C1526 1.355 . S
C1527 C1529 1.419 . S
C1528 C1526 1.415 . S
C1528 C1533 1.425 . S
C1528 C1535 1.409 . S
C1529 H1521 0.930 . S
C1529 C1527 1.419 . S
C1529 C1530 1.362 . S
C1530 H1522 0.930 . S
C1530 C1529 1.362 . S
C1530 C1533 1.409 . S
C1531 H1523 0.930 . S
C1531 C1532 1.355 . S
C1531 C1533 1.415 . S
C1532 C1531 1.355 . S
C1532 C1534 1.419 . S
C1533 C1528 1.425 . S
C1533 C1530 1.409 . S
C1533 C1531 1.415 . S
C1534 H1524 0.930 . S
C1534 C1532 1.419 . S
C1534 C1535 1.362 . S
C1535 H1525 0.930 . S
C1535 C1528 1.409 . S
C1535 C1534 1.362 . S
H1536 C1542 0.930 . S
H1537 C1545 0.930 . S
H1538 C1546 0.930 . S
H1539 C1547 0.930 . S
H1540 C1550 0.930 . S
H1541 C1551 0.930 . S
C1542 H1536 0.930 . S
C1542 C1543 1.355 . S
C1542 C1544 1.415 . S
C1543 C1542 1.355 . S
C1543 C1545 1.419 1_455 S
C1544 C1542 1.415 . S
C1544 C1549 1.425 1_455 S
C1544 C1551 1.409 . S
C1545 H1537 0.930 . S
C1545 C1543 1.419 1_655 S
C1545 C1546 1.362 . S
C1546 H1538 0.930 . S
C1546 C1545 1.362 . S
C1546 C1549 1.409 . S
C1547 H1539 0.930 . S
C1547 C1548 1.355 . S
C1547 C1549 1.415 . S
C1548 C1547 1.355 . S
C1548 C1550 1.419 . S
C1549 C1544 1.425 1_655 S
C1549 C1546 1.409 . S
C1549 C1547 1.415 . S
C1550 H1540 0.930 . S
C1550 C1548 1.419 . S
C1550 C1551 1.362 1_655 S
C1551 H1541 0.930 . S
C1551 C1544 1.409 . S
C1551 C1550 1.362 1_455 S
H1552 C1558 0.930 . S
H1553 C1561 0.930 . S
H1554 C1562 0.930 1_556 S
H1555 C1563 0.930 . S
H1556 C1566 0.930 . S
H1557 C1567 0.930 . S
C1558 H1552 0.930 . S
C1558 C1559 1.355 . S
C1558 C1560 1.415 . S
C1559 C1558 1.355 . S
C1559 C1561 1.419 . S
C1560 C1558 1.415 . S
C1560 C1565 1.425 . S
C1560 C1567 1.409 . S
C1561 H1553 0.930 . S
C1561 C1559 1.419 . S
C1561 C1562 1.362 . S
C1562 H1554 0.930 1_554 S
C1562 C1561 1.362 . S
C1562 C1565 1.409 . S
C1563 H1555 0.930 . S
C1563 C1564 1.355 . S
C1563 C1565 1.415 1_556 S
C1564 C1563 1.355 . S
C1564 C1566 1.419 . S
C1565 C1560 1.425 . S
C1565 C1562 1.409 . S
C1565 C1563 1.415 1_554 S
C1566 H1556 0.930 . S
C1566 C1564 1.419 . S
C1566 C1567 1.362 1_556 S
C1567 H1557 0.930 . S
C1567 C1560 1.409 . S
C1567 C1566 1.362 1_554 S
H1568 C1574 0.930 . S
H1569 C1577 0.930 . S
H1570 C1578 0.930 . S
H1571 C1579 0.930 . S
H1572 C1582 0.930 . S
H1573 C1583 0.930 . S
C1574 H1568 0.930 . S
C1574 C1575 1.355 . S
C1574 C1576 1.415 . S
C1575 C1574 1.355 . S
C1575 C1577 1.419 . S
C1576 C1574 1.415 . S
C1576 C1581 1.425 . S
C1576 C1583 1.409 . S
C1577 H1569 0.930 . S
C1577 C1575 1.419 . S
C1577 C1578 1.362 . S
C1578 H1570 0.930 . S
C1578 C1577 1.362 . S
C1578 C1581 1.409 . S
C1579 H1571 0.930 . S
C1579 C1580 1.355 . S
C1579 C1581 1.415 . S
C1580 C1579 1.355 . S
C1580 C1582 1.419 . S
C1581 C1576 1.425 . S
C1581 C1578 1.409 . S
C1581 C1579 1.415 . S
C1582 H1572 0.930 . S
C1582 C1580 1.419 . S
C1582 C1583 1.362 . S
C1583 H1573 0.930 . S
C1583 C1576 1.409 . S
C1583 C1582 1.362 . S
H1584 C1590 0.930 . S
H1585 C1593 0.930 . S
H1586 C1594 0.930 . S
H1587 C1595 0.930 . S
H1588 C1598 0.930 . S
H1589 C1599 0.930 . S
C1590 H1584 0.930 . S
C1590 C1591 1.355 . S
C1590 C1592 1.415 . S
C1591 C1590 1.355 . S
C1591 C1593 1.419 . S
C1592 C1590 1.415 . S
C1592 C1597 1.425 . S
C1592 C1599 1.409 . S
C1593 H1585 0.930 . S
C1593 C1591 1.419 . S
C1593 C1594 1.362 . S
C1594 H1586 0.930 . S
C1594 C1593 1.362 . S
C1594 C1597 1.409 . S
C1595 H1587 0.930 . S
C1595 C1596 1.355 . S
C1595 C1597 1.415 . S
C1596 C1595 1.355 . S
C1596 C1598 1.419 . S
C1597 C1592 1.425 . S
C1597 C1594 1.409 . S
C1597 C1595 1.415 . S
C1598 H1588 0.930 . S
C1598 C1596 1.419 . S
C1598 C1599 1.362 . S
C1599 H1589 0.930 . S
C1599 C1592 1.409 . S
C1599 C1598 1.362 . S
H1600 C1606 0.930 . S
H1601 C1609 0.930 . S
H1602 C1610 0.930 . S
H1603 C1611 0.930 . S
H1604 C1614 0.930 1_455 S
H1605 C1615 0.930 . S
C1606 H1600 0.930 . S
C1606 C1607 1.355 . S
C1606 C1608 1.415 . S
C1607 C1606 1.355 . S
C1607 C1609 1.419 1_455 S
C1608 C1606 1.415 . S
C1608 C1613 1.425 1_455 S
C1608 C1615 1.409 . S
C1609 H1601 0.930 . S
C1609 C1607 1.419 1_655 S
C1609 C1610 1.362 . S
C1610 H1602 0.930 . S
C1610 C1609 1.362 . S
C1610 C1613 1.409 . S
C1611 H1603 0.930 . S
C1611 C1612 1.355 . S
C1611 C1613 1.415 . S
C1612 C1611 1.355 . S
C1612 C1614 1.419 . S
C1613 C1608 1.425 1_655 S
C1613 C1610 1.409 . S
C1613 C1611 1.415 . S
C1614 H1604 0.930 1_655 S
C1614 C1612 1.419 . S
C1614 C1615 1.362 1_655 S
C1615 H1605 0.930 . S
C1615 C1608 1.409 . S
C1615 C1614 1.362 1_455 S
H1616 C1622 0.930 1_556 S
H1617 C1625 0.930 . S
H1618 C1626 0.930 . S
H1619 C1627 0.930 . S
H1620 C1630 0.930 . S
H1621 C1631 0.930 . S
C1622 H1616 0.930 1_554 S
C1622 C1623 1.355 1_554 S
C1622 C1624 1.415 . S
C1623 C1622 1.355 1_556 S
C1623 C1625 1.419 1_556 S
C1624 C1622 1.415 . S
C1624 C1629 1.425 . S
C1624 C1631 1.409 . S
C1625 H1617 0.930 . S
C1625 C1623 1.419 1_554 S
C1625 C1626 1.362 . S
C1626 H1618 0.930 . S
C1626 C1625 1.362 . S
C1626 C1629 1.409 . S
C1627 H1619 0.930 . S
C1627 C1628 1.355 . S
C1627 C1629 1.415 . S
C1628 C1627 1.355 . S
C1628 C1630 1.419 . S
C1629 C1624 1.425 . S
C1629 C1626 1.409 . S
C1629 C1627 1.415 . S
C1630 H1620 0.930 . S
C1630 C1628 1.419 . S
C1630 C1631 1.362 . S
C1631 H1621 0.930 . S
C1631 C1624 1.409 . S
C1631 C1630 1.362 . S
H1632 C1638 0.930 . S
H1633 C1641 0.930 . S
H1634 C1642 0.930 . S
H1635 C1643 0.930 . S
H1636 C1646 0.930 . S
H1637 C1647 0.930 . S
C1638 H1632 0.930 . S
C1638 C1639 1.355 . S
C1638 C1640 1.415 . S
C1639 C1638 1.355 . S
C1639 C1641 1.419 . S
C1640 C1638 1.415 . S
C1640 C1645 1.425 . S
C1640 C1647 1.409 . S
C1641 H1633 0.930 . S
C1641 C1639 1.419 . S
C1641 C1642 1.362 . S
C1642 H1634 0.930 . S
C1642 C1641 1.362 . S
C1642 C1645 1.409 . S
C1643 H1635 0.930 . S
C1643 C1644 1.355 . S
C1643 C1645 1.415 . S
C1644 C1643 1.355 . S
C1644 C1646 1.419 . S
C1645 C1640 1.425 . S
C1645 C1642 1.409 . S
C1645 C1643 1.415 . S
C1646 H1636 0.930 . S
C1646 C1644 1.419 . S
C1646 C1647 1.362 . S
C1647 H1637 0.930 . S
C1647 C1640 1.409 . S
C1647 C1646 1.362 . S
H1648 C1654 0.930 . S
H1649 C1657 0.930 . S
H1650 C1658 0.930 . S
H1651 C1659 0.930 . S
H1652 C1662 0.930 . S
H1653 C1663 0.930 . S
C1654 H1648 0.930 . S
C1654 C1655 1.355 . S
C1654 C1656 1.415 . S
C1655 C1654 1.355 . S
C1655 C1657 1.419 . S
C1656 C1654 1.415 . S
C1656 C1661 1.425 . S
C1656 C1663 1.409 . S
C1657 H1649 0.930 . S
C1657 C1655 1.419 . S
C1657 C1658 1.362 . S
C1658 H1650 0.930 . S
C1658 C1657 1.362 . S
C1658 C1661 1.409 . S
C1659 H1651 0.930 . S
C1659 C1660 1.355 . S
C1659 C1661 1.415 . S
C1660 C1659 1.355 . S
C1660 C1662 1.419 . S
C1661 C1656 1.425 . S
C1661 C1658 1.409 . S
C1661 C1659 1.415 . S
C1662 H1652 0.930 . S
C1662 C1660 1.419 . S
C1662 C1663 1.362 . S
C1663 H1653 0.930 . S
C1663 C1656 1.409 . S
C1663 C1662 1.362 . S
H1664 C1670 0.930 . S
H1665 C1673 0.930 . S
H1666 C1674 0.930 . S
H1667 C1675 0.930 . S
H1668 C1678 0.930 . S
H1669 C1679 0.930 . S
C1670 H1664 0.930 . S
C1670 C1671 1.355 . S
C1670 C1672 1.415 . S
C1671 C1670 1.355 . S
C1671 C1673 1.419 . S
C1672 C1670 1.415 . S
C1672 C1677 1.425 . S
C1672 C1679 1.409 . S
C1673 H1665 0.930 . S
C1673 C1671 1.419 . S
C1673 C1674 1.362 . S
C1674 H1666 0.930 . S
C1674 C1673 1.362 . S
C1674 C1677 1.409 . S
C1675 H1667 0.930 . S
C1675 C1676 1.355 . S
C1675 C1677 1.415 . S
C1676 C1675 1.355 . S
C1676 C1678 1.419 . S
C1677 C1672 1.425 . S
C1677 C1674 1.409 . S
C1677 C1675 1.415 . S
C1678 H1668 0.930 . S
C1678 C1676 1.419 . S
C1678 C1679 1.362 . S
C1679 H1669 0.930 . S
C1679 C1672 1.409 . S
C1679 C1678 1.362 . S
H1680 C1686 0.930 . S
H1681 C1689 0.930 . S
H1682 C1690 0.930 . S
H1683 C1691 0.930 . S
H1684 C1694 0.930 . S
H1685 C1695 0.930 . S
C1686 H1680 0.930 . S
C1686 C1687 1.355 . S
C1686 C1688 1.415 . S
C1687 C1686 1.355 . S
C1687 C1689 1.419 . S
C1688 C1686 1.415 . S
C1688 C1693 1.425 . S
C1688 C1695 1.409 . S
C1689 H1681 0.930 . S
C1689 C1687 1.419 . S
C1689 C1690 1.362 . S
C1690 H1682 0.930 . S
C1690 C1689 1.362 . S
C1690 C1693 1.409 . S
C1691 H1683 0.930 . S
C1691 C1692 1.355 . S
C1691 C1693 1.415 . S
C1692 C1691 1.355 . S
C1692 C1694 1.419 . S
C1693 C1688 1.425 . S
C1693 C1690 1.409 . S
C1693 C1691 1.415 . S
C1694 H1684 0.930 . S
C1694 C1692 1.419 . S
C1694 C1695 1.362 . S
C1695 H1685 0.930 . S
C1695 C1688 1.409 . S
C1695 C1694 1.362 . S
H1696 C1702 0.930 . S
H1697 C1705 0.930 . S
H1698 C1706 0.930 . S
H1699 C1707 0.930 . S
H1700 C1710 0.930 . S
H1701 C1711 0.930 . S
C1702 H1696 0.930 . S
C1702 C1703 1.355 . S
C1702 C1704 1.415 1_655 S
C1703 C1702 1.355 . S
C1703 C1705 1.419 . S
C1704 C1702 1.415 1_455 S
C1704 C1709 1.420 1_455 S
C1704 C1711 1.409 . S
C1705 H1697 0.930 . S
C1705 C1703 1.419 . S
C1705 C1706 1.362 . S
C1706 H1698 0.930 . S
C1706 C1705 1.362 . S
C1706 C1709 1.426 . S
C1707 H1699 0.930 . S
C1707 C1708 1.355 . S
C1707 C1709 1.403 1_455 S
C1708 C1707 1.355 . S
C1708 C1710 1.419 . S
C1709 C1704 1.420 1_655 S
C1709 C1706 1.426 . S
C1709 C1707 1.403 1_655 S
C1710 H1700 0.930 . S
C1710 C1708 1.419 . S
C1710 C1711 1.362 . S
C1711 H1701 0.930 . S
C1711 C1704 1.409 . S
C1711 C1710 1.362 . S
H1712 C1718 0.930 . S
H1713 C1721 0.930 . S
H1714 C1722 0.930 . S
H1715 C1723 0.930 . S
H1716 C1726 0.930 . S
H1717 C1727 0.930 . S
C1718 H1712 0.930 . S
C1718 C1719 1.355 . S
C1718 C1720 1.415 1_556 S
C1719 C1718 1.355 . S
C1719 C1721 1.419 . S
C1720 C1718 1.415 1_554 S
C1720 C1725 1.425 . S
C1720 C1727 1.409 . S
C1721 H1713 0.930 . S
C1721 C1719 1.419 . S
C1721 C1722 1.362 1_556 S
C1722 H1714 0.930 . S
C1722 C1721 1.362 1_554 S
C1722 C1725 1.409 . S
C1723 H1715 0.930 . S
C1723 C1724 1.355 . S
C1723 C1725 1.415 . S
C1724 C1723 1.355 . S
C1724 C1726 1.419 . S
C1725 C1720 1.425 . S
C1725 C1722 1.409 . S
C1725 C1723 1.415 . S
C1726 H1716 0.930 . S
C1726 C1724 1.419 . S
C1726 C1727 1.362 . S
C1727 H1717 0.930 . S
C1727 C1720 1.409 . S
C1727 C1726 1.362 . S
H1728 C1734 0.930 . S
H1729 C1737 0.930 . S
H1730 C1738 0.930 . S
H1731 C1739 0.930 . S
H1732 C1742 0.930 . S
H1733 C1743 0.930 . S
C1734 H1728 0.930 . S
C1734 C1735 1.355 . S
C1734 C1736 1.415 . S
C1735 C1734 1.355 . S
C1735 C1737 1.419 . S
C1736 C1734 1.415 . S
C1736 C1741 1.425 . S
C1736 C1743 1.409 . S
C1737 H1729 0.930 . S
C1737 C1735 1.419 . S
C1737 C1738 1.362 . S
C1738 H1730 0.930 . S
C1738 C1737 1.362 . S
C1738 C1741 1.409 . S
C1739 H1731 0.930 . S
C1739 C1740 1.355 . S
C1739 C1741 1.415 . S
C1740 C1739 1.355 . S
C1740 C1742 1.419 . S
C1741 C1736 1.425 . S
C1741 C1738 1.409 . S
C1741 C1739 1.415 . S
C1742 H1732 0.930 . S
C1742 C1740 1.419 . S
C1742 C1743 1.362 . S
C1743 H1733 0.930 . S
C1743 C1736 1.409 . S
C1743 C1742 1.362 . S
H1744 C1750 0.930 . S
H1745 C1753 0.930 . S
H1746 C1754 0.930 . S
H1747 C1755 0.930 . S
H1748 C1758 0.930 . S
H1749 C1759 0.930 . S
C1750 H1744 0.930 . S
C1750 C1751 1.355 . S
C1750 C1752 1.415 . S
C1751 C1750 1.355 . S
C1751 C1753 1.419 . S
C1752 C1750 1.415 . S
C1752 C1757 1.425 . S
C1752 C1759 1.409 . S
C1753 H1745 0.930 . S
C1753 C1751 1.419 . S
C1753 C1754 1.362 . S
C1754 H1746 0.930 . S
C1754 C1753 1.362 . S
C1754 C1757 1.409 . S
C1755 H1747 0.930 . S
C1755 C1756 1.355 . S
C1755 C1757 1.415 . S
C1756 C1755 1.355 . S
C1756 C1758 1.419 . S
C1757 C1752 1.425 . S
C1757 C1754 1.409 . S
C1757 C1755 1.415 . S
C1758 H1748 0.930 . S
C1758 C1756 1.419 . S
C1758 C1759 1.362 . S
C1759 H1749 0.930 . S
C1759 C1752 1.409 . S
C1759 C1758 1.362 . S
H1760 C1766 0.930 1_655 S
H1761 C1769 0.930 . S
H1762 C1770 0.930 . S
H1763 C1771 0.930 1_455 S
H1764 C1774 0.930 . S
H1765 C1775 0.930 . S
C1766 H1760 0.930 1_455 S
C1766 C1767 1.355 . S
C1766 C1768 1.415 1_455 S
C1767 C1766 1.355 . S
C1767 C1769 1.419 . S
C1768 C1766 1.415 1_655 S
C1768 C1773 1.425 1_655 S
C1768 C1775 1.409 . S
C1769 H1761 0.930 . S
C1769 C1767 1.419 . S
C1769 C1770 1.362 . S
C1770 H1762 0.930 . S
C1770 C1769 1.362 . S
C1770 C1773 1.409 . S
C1771 H1763 0.930 1_655 S
C1771 C1772 1.355 . S
C1771 C1773 1.415 1_655 S
C1772 C1771 1.355 . S
C1772 C1774 1.419 . S
C1773 C1768 1.425 1_455 S
C1773 C1770 1.409 . S
C1773 C1771 1.415 1_455 S
C1774 H1764 0.930 . S
C1774 C1772 1.419 . S
C1774 C1775 1.362 . S
C1775 H1765 0.930 . S
C1775 C1768 1.409 . S
C1775 C1774 1.362 . S
H1776 C1782 0.930 . S
H1777 C1785 0.930 . S
H1778 C1786 0.930 . S
H1779 C1787 0.930 . S
H1780 C1790 0.930 . S
H1781 C1791 0.930 . S
C1782 H1776 0.930 . S
C1782 C1783 1.355 . S
C1782 C1784 1.415 . S
C1783 C1782 1.355 . S
C1783 C1785 1.419 . S
C1784 C1782 1.415 . S
C1784 C1789 1.425 . S
C1784 C1791 1.409 . S
C1785 H1777 0.930 . S
C1785 C1783 1.419 . S
C1785 C1786 1.362 . S
C1786 H1778 0.930 . S
C1786 C1785 1.362 . S
C1786 C1789 1.409 . S
C1787 H1779 0.930 . S
C1787 C1788 1.355 1_554 S
C1787 C1789 1.415 . S
C1788 C1787 1.355 1_556 S
C1788 C1790 1.419 . S
C1789 C1784 1.425 . S
C1789 C1786 1.409 . S
C1789 C1787 1.415 . S
C1790 H1780 0.930 . S
C1790 C1788 1.419 . S
C1790 C1791 1.362 1_556 S
C1791 H1781 0.930 . S
C1791 C1784 1.409 . S
C1791 C1790 1.362 1_554 S
H1792 C1798 0.930 . S
H1793 C1801 0.930 . S
H1794 C1802 0.930 . S
H1795 C1803 0.930 . S
H1796 C1806 0.930 . S
H1797 C1807 0.930 . S
C1798 H1792 0.930 . S
C1798 C1799 1.355 . S
C1798 C1800 1.415 . S
C1799 C1798 1.355 . S
C1799 C1801 1.419 . S
C1800 C1798 1.415 . S
C1800 C1805 1.425 . S
C1800 C1807 1.409 . S
C1801 H1793 0.930 . S
C1801 C1799 1.419 . S
C1801 C1802 1.362 . S
C1802 H1794 0.930 . S
C1802 C1801 1.362 . S
C1802 C1805 1.409 . S
C1803 H1795 0.930 . S
C1803 C1804 1.355 . S
C1803 C1805 1.415 . S
C1804 C1803 1.355 . S
C1804 C1806 1.419 . S
C1805 C1800 1.425 . S
C1805 C1802 1.409 . S
C1805 C1803 1.415 . S
C1806 H1796 0.930 . S
C1806 C1804 1.419 . S
C1806 C1807 1.362 . S
C1807 H1797 0.930 . S
C1807 C1800 1.409 . S
C1807 C1806 1.362 . S
H1808 C1814 0.930 . S
H1809 C1817 0.930 . S
H1810 C1818 0.930 . S
H1811 C1819 0.930 . S
H1812 C1822 0.930 . S
H1813 C1823 0.930 . S
C1814 H1808 0.930 . S
C1814 C1815 1.355 . S
C1814 C1816 1.415 . S
C1815 C1814 1.355 . S
C1815 C1817 1.419 . S
C1816 C1814 1.415 . S
C1816 C1821 1.425 . S
C1816 C1823 1.409 . S
C1817 H1809 0.930 . S
C1817 C1815 1.419 . S
C1817 C1818 1.362 . S
C1818 H1810 0.930 . S
C1818 C1817 1.362 . S
C1818 C1821 1.409 . S
C1819 H1811 0.930 . S
C1819 C1820 1.355 . S
C1819 C1821 1.415 . S
C1820 C1819 1.355 . S
C1820 C1822 1.419 . S
C1821 C1816 1.425 . S
C1821 C1818 1.409 . S
C1821 C1819 1.415 . S
C1822 H1812 0.930 . S
C1822 C1820 1.419 . S
C1822 C1823 1.362 . S
C1823 H1813 0.930 . S
C1823 C1816 1.409 . S
C1823 C1822 1.362 . S
H1824 C1830 0.930 . S
H1825 C1833 0.930 . S
H1826 C1834 0.930 . S
H1827 C1835 0.930 . S
H1828 C1838 0.930 . S
H1829 C1839 0.930 . S
C1830 H1824 0.930 . S
C1830 C1831 1.355 . S
C1830 C1832 1.415 1_455 S
C1831 C1830 1.355 . S
C1831 C1833 1.419 . S
C1832 C1830 1.415 1_655 S
C1832 C1837 1.425 . S
C1832 C1839 1.409 . S
C1833 H1825 0.930 . S
C1833 C1831 1.419 . S
C1833 C1834 1.362 . S
C1834 H1826 0.930 . S
C1834 C1833 1.362 . S
C1834 C1837 1.409 1_455 S
C1835 H1827 0.930 . S
C1835 C1836 1.355 . S
C1835 C1837 1.415 . S
C1836 C1835 1.355 . S
C1836 C1838 1.419 . S
C1837 C1832 1.425 . S
C1837 C1834 1.409 1_655 S
C1837 C1835 1.415 . S
C1838 H1828 0.930 . S
C1838 C1836 1.419 . S
C1838 C1839 1.362 . S
C1839 H1829 0.930 . S
C1839 C1832 1.409 . S
C1839 C1838 1.362 . S
H1840 C1846 0.930 . S
H1841 C1849 0.930 . S
H1842 C1850 0.930 . S
H1843 C1851 0.930 . S
H1844 C1854 0.930 . S
H1845 C1855 0.930 . S
C1846 H1840 0.930 . S
C1846 C1847 1.355 . S
C1846 C1848 1.415 . S
C1847 C1846 1.355 . S
C1847 C1849 1.419 1_554 S
C1848 C1846 1.415 . S
C1848 C1853 1.425 . S
C1848 C1855 1.409 . S
C1849 H1841 0.930 . S
C1849 C1847 1.419 1_556 S
C1849 C1850 1.362 1_556 S
C1850 H1842 0.930 . S
C1850 C1849 1.362 1_554 S
C1850 C1853 1.409 . S
C1851 H1843 0.930 . S
C1851 C1852 1.355 . S
C1851 C1853 1.415 . S
C1852 C1851 1.355 . S
C1852 C1854 1.419 . S
C1853 C1848 1.425 . S
C1853 C1850 1.409 . S
C1853 C1851 1.415 . S
C1854 H1844 0.930 . S
C1854 C1852 1.419 . S
C1854 C1855 1.362 . S
C1855 H1845 0.930 . S
C1855 C1848 1.409 . S
C1855 C1854 1.362 . S
H1856 C1862 0.930 . S
H1857 C1865 0.930 . S
H1858 C1866 0.930 . S
H1859 C1867 0.930 . S
H1860 C1870 0.930 . S
H1861 C1871 0.930 . S
C1862 H1856 0.930 . S
C1862 C1863 1.355 . S
C1862 C1864 1.415 . S
C1863 C1862 1.355 . S
C1863 C1865 1.419 . S
C1864 C1862 1.415 . S
C1864 C1869 1.425 . S
C1864 C1871 1.409 . S
C1865 H1857 0.930 . S
C1865 C1863 1.419 . S
C1865 C1866 1.362 . S
C1866 H1858 0.930 . S
C1866 C1865 1.362 . S
C1866 C1869 1.409 . S
C1867 H1859 0.930 . S
C1867 C1868 1.355 . S
C1867 C1869 1.415 . S
C1868 C1867 1.355 . S
C1868 C1870 1.419 . S
C1869 C1864 1.425 . S
C1869 C1866 1.409 . S
C1869 C1867 1.415 . S
C1870 H1860 0.930 . S
C1870 C1868 1.419 . S
C1870 C1871 1.362 . S
C1871 H1861 0.930 . S
C1871 C1864 1.409 . S
C1871 C1870 1.362 . S
H1872 C1878 0.930 . S
H1873 C1881 0.930 . S
H1874 C1882 0.930 . S
H1875 C1883 0.930 . S
H1876 C1886 0.930 . S
H1877 C1887 0.930 . S
C1878 H1872 0.930 . S
C1878 C1879 1.355 . S
C1878 C1880 1.415 . S
C1879 C1878 1.355 . S
C1879 C1881 1.419 . S
C1880 C1878 1.415 . S
C1880 C1885 1.425 . S
C1880 C1887 1.409 . S
C1881 H1873 0.930 . S
C1881 C1879 1.419 . S
C1881 C1882 1.362 . S
C1882 H1874 0.930 . S
C1882 C1881 1.362 . S
C1882 C1885 1.409 . S
C1883 H1875 0.930 . S
C1883 C1884 1.355 . S
C1883 C1885 1.415 . S
C1884 C1883 1.355 . S
C1884 C1886 1.419 . S
C1885 C1880 1.425 . S
C1885 C1882 1.409 . S
C1885 C1883 1.415 . S
C1886 H1876 0.930 . S
C1886 C1884 1.419 . S
C1886 C1887 1.362 . S
C1887 H1877 0.930 . S
C1887 C1880 1.409 . S
C1887 C1886 1.362 . S
H1888 C1894 0.930 1_655 S
H1889 C1897 0.930 . S
H1890 C1898 0.930 . S
H1891 C1899 0.930 1_455 S
H1892 C1902 0.930 . S
H1893 C1903 0.930 . S
C1894 H1888 0.930 1_455 S
C1894 C1895 1.355 . S
C1894 C1896 1.415 1_455 S
C1895 C1894 1.355 . S
C1895 C1897 1.419 . S
C1896 C1894 1.415 1_655 S
C1896 C1901 1.425 1_655 S
C1896 C1903 1.409 . S
C1897 H1889 0.930 . S
C1897 C1895 1.419 . S
C1897 C1898 1.362 . S
C1898 H1890 0.930 . S
C1898 C1897 1.362 . S
C1898 C1901 1.409 . S
C1899 H1891 0.930 1_655 S
C1899 C1900 1.355 . S
C1899 C1901 1.415 1_655 S
C1900 C1899 1.355 . S
C1900 C1902 1.419 . S
C1901 C1896 1.425 1_455 S
C1901 C1898 1.409 . S
C1901 C1899 1.415 1_455 S
C1902 H1892 0.930 . S
C1902 C1900 1.419 . S
C1902 C1903 1.362 . S
C1903 H1893 0.930 . S
C1903 C1896 1.409 . S
C1903 C1902 1.362 . S
H1904 C1910 0.930 . S
H1905 C1913 0.930 . S
H1906 C1914 0.930 . S
H1907 C1915 0.930 . S
H1908 C1918 0.930 . S
H1909 C1919 0.930 . S
C1910 H1904 0.930 . S
C1910 C1911 1.355 . S
C1910 C1912 1.407 1_556 S
C1911 C1910 1.355 . S
C1911 C1913 1.419 . S
C1912 C1910 1.407 1_554 S
C1912 C1917 1.430 . S
C1912 C1919 1.412 . S
C1913 H1905 0.930 . S
C1913 C1911 1.419 . S
C1913 C1914 1.362 1_556 S
C1914 H1906 0.930 . S
C1914 C1913 1.362 1_554 S
C1914 C1917 1.409 . S
C1915 H1907 0.930 . S
C1915 C1916 1.355 . S
C1915 C1917 1.415 . S
C1916 C1915 1.355 . S
C1916 C1918 1.419 . S
C1917 C1912 1.430 . S
C1917 C1914 1.409 . S
C1917 C1915 1.415 . S
C1918 H1908 0.930 . S
C1918 C1916 1.419 . S
C1918 C1919 1.362 . S
C1919 H1909 0.930 . S
C1919 C1912 1.412 . S
C1919 C1918 1.362 . S
H1920 C1926 0.930 . S
H1921 C1929 0.930 . S
H1922 C1930 0.930 . S
H1923 C1931 0.930 . S
H1924 C1934 0.930 . S
H1925 C1935 0.930 . S
C1926 H1920 0.930 . S
C1926 C1927 1.355 . S
C1926 C1928 1.415 . S
C1927 C1926 1.355 . S
C1927 C1929 1.419 . S
C1928 C1926 1.415 . S
C1928 C1933 1.425 . S
C1928 C1935 1.409 . S
C1929 H1921 0.930 . S
C1929 C1927 1.419 . S
C1929 C1930 1.362 . S
C1930 H1922 0.930 . S
C1930 C1929 1.362 . S
C1930 C1933 1.409 . S
C1931 H1923 0.930 . S
C1931 C1932 1.355 . S
C1931 C1933 1.415 . S
C1932 C1931 1.355 . S
C1932 C1934 1.419 . S
C1933 C1928 1.425 . S
C1933 C1930 1.409 . S
C1933 C1931 1.415 . S
C1934 H1924 0.930 . S
C1934 C1932 1.419 . S
C1934 C1935 1.362 . S
C1935 H1925 0.930 . S
C1935 C1928 1.409 . S
C1935 C1934 1.362 . S
H1936 C1942 0.930 . S
H1937 C1945 0.930 . S
H1938 C1946 0.930 . S
H1939 C1947 0.930 . S
H1940 C1950 0.930 . S
H1941 C1951 0.930 . S
C1942 H1936 0.930 . S
C1942 C1943 1.355 . S
C1942 C1944 1.415 1_556 S
C1943 C1942 1.355 . S
C1943 C1945 1.419 . S
C1944 C1942 1.415 1_554 S
C1944 C1949 1.425 1_554 S
C1944 C1951 1.409 . S
C1945 H1937 0.930 . S
C1945 C1943 1.419 . S
C1945 C1946 1.362 . S
C1946 H1938 0.930 . S
C1946 C1945 1.362 . S
C1946 C1949 1.409 . S
C1947 H1939 0.930 . S
C1947 C1948 1.355 . S
C1947 C1949 1.415 1_554 S
C1948 C1947 1.355 . S
C1948 C1950 1.419 . S
C1949 C1944 1.425 1_556 S
C1949 C1946 1.409 . S
C1949 C1947 1.415 1_556 S
C1950 H1940 0.930 . S
C1950 C1948 1.419 . S
C1950 C1951 1.362 . S
C1951 H1941 0.930 . S
C1951 C1944 1.409 . S
C1951 C1950 1.362 . S
H1952 C1958 0.930 . S
H1953 C1961 0.930 . S
H1954 C1962 0.930 . S
H1955 C1963 0.930 . S
H1956 C1966 0.930 . S
H1957 C1967 0.930 . S
C1958 H1952 0.930 . S
C1958 C1959 1.355 . S
C1958 C1960 1.415 . S
C1959 C1958 1.355 . S
C1959 C1961 1.419 . S
C1960 C1958 1.415 . S
C1960 C1965 1.425 . S
C1960 C1967 1.409 . S
C1961 H1953 0.930 . S
C1961 C1959 1.419 . S
C1961 C1962 1.362 . S
C1962 H1954 0.930 . S
C1962 C1961 1.362 . S
C1962 C1965 1.409 . S
C1963 H1955 0.930 . S
C1963 C1964 1.355 . S
C1963 C1965 1.415 . S
C1964 C1963 1.355 . S
C1964 C1966 1.419 . S
C1965 C1960 1.425 . S
C1965 C1962 1.409 . S
C1965 C1963 1.415 . S
C1966 H1956 0.930 . S
C1966 C1964 1.419 . S
C1966 C1967 1.362 . S
C1967 H1957 0.930 . S
C1967 C1960 1.409 . S
C1967 C1966 1.362 . S
H1968 C1974 0.930 . S
H1969 C1977 0.930 . S
H1970 C1978 0.930 . S
H1971 C1979 0.930 . S
H1972 C1982 0.930 . S
H1973 C1983 0.930 . S
C1974 H1968 0.930 . S
C1974 C1975 1.355 . S
C1974 C1976 1.415 . S
C1975 C1974 1.355 . S
C1975 C1977 1.419 . S
C1976 C1974 1.415 . S
C1976 C1981 1.425 . S
C1976 C1983 1.409 . S
C1977 H1969 0.930 . S
C1977 C1975 1.419 . S
C1977 C1978 1.362 . S
C1978 H1970 0.930 . S
C1978 C1977 1.362 . S
C1978 C1981 1.409 . S
C1979 H1971 0.930 . S
C1979 C1980 1.355 . S
C1979 C1981 1.415 . S
C1980 C1979 1.355 . S
C1980 C1982 1.419 . S
C1981 C1976 1.425 . S
C1981 C1978 1.409 . S
C1981 C1979 1.415 . S
C1982 H1972 0.930 . S
C1982 C1980 1.419 . S
C1982 C1983 1.362 . S
C1983 H1973 0.930 . S
C1983 C1976 1.409 . S
C1983 C1982 1.362 . S
H1984 C1990 0.930 . S
H1985 C1993 0.930 . S
H1986 C1994 0.930 . S
H1987 C1995 0.930 . S
H1988 C1998 0.930 . S
H1989 C1999 0.930 . S
C1990 H1984 0.930 . S
C1990 C1991 1.355 . S
C1990 C1992 1.415 . S
C1991 C1990 1.355 . S
C1991 C1993 1.419 . S
C1992 C1990 1.415 . S
C1992 C1997 1.425 . S
C1992 C1999 1.409 . S
C1993 H1985 0.930 . S
C1993 C1991 1.419 . S
C1993 C1994 1.362 . S
C1994 H1986 0.930 . S
C1994 C1993 1.362 . S
C1994 C1997 1.409 . S
C1995 H1987 0.930 . S
C1995 C1996 1.355 . S
C1995 C1997 1.415 . S
C1996 C1995 1.355 . S
C1996 C1998 1.419 . S
C1997 C1992 1.425 . S
C1997 C1994 1.409 . S
C1997 C1995 1.415 . S
C1998 H1988 0.930 . S
C1998 C1996 1.419 . S
C1998 C1999 1.362 . S
C1999 H1989 0.930 . S
C1999 C1992 1.409 . S
C1999 C1998 1.362 . S
H2000 C2006 0.930 . S
H2001 C2009 0.930 1_556 S
H2002 C2010 0.930 . S
H2003 C2011 0.930 . S
H2004 C2014 0.930 . S
H2005 C2015 0.930 . S
C2006 H2000 0.930 . S
C2006 C2007 1.355 . S
C2006 C2008 1.415 . S
C2007 C2006 1.355 . S
C2007 C2009 1.419 . S
C2008 C2006 1.415 . S
C2008 C2013 1.425 . S
C2008 C2015 1.409 . S
C2009 H2001 0.930 1_554 S
C2009 C2007 1.419 . S
C2009 C2010 1.362 . S
C2010 H2002 0.930 . S
C2010 C2009 1.362 . S
C2010 C2013 1.409 . S
C2011 H2003 0.930 . S
C2011 C2012 1.355 . S
C2011 C2013 1.415 . S
C2012 C2011 1.355 . S
C2012 C2014 1.419 . S
C2013 C2008 1.425 . S
C2013 C2010 1.409 . S
C2013 C2011 1.415 . S
C2014 H2004 0.930 . S
C2014 C2012 1.419 . S
C2014 C2015 1.362 . S
C2015 H2005 0.930 . S
C2015 C2008 1.409 . S
C2015 C2014 1.362 . S
H2016 C2022 0.930 . S
H2017 C2025 0.930 . S
H2018 C2026 0.930 . S
H2019 C2027 0.930 . S
H2020 C2030 0.930 . S
H2021 C2031 0.930 . S
C2022 H2016 0.930 . S
C2022 C2023 1.355 . S
C2022 C2024 1.415 . S
C2023 C2022 1.355 . S
C2023 C2025 1.419 . S
C2024 C2022 1.415 . S
C2024 C2029 1.425 . S
C2024 C2031 1.409 . S
C2025 H2017 0.930 . S
C2025 C2023 1.419 . S
C2025 C2026 1.362 . S
C2026 H2018 0.930 . S
C2026 C2025 1.362 . S
C2026 C2029 1.409 . S
C2027 H2019 0.930 . S
C2027 C2028 1.355 . S
C2027 C2029 1.415 . S
C2028 C2027 1.355 . S
C2028 C2030 1.419 . S
C2029 C2024 1.425 . S
C2029 C2026 1.409 . S
C2029 C2027 1.415 . S
C2030 H2020 0.930 . S
C2030 C2028 1.419 . S
C2030 C2031 1.362 . S
C2031 H2021 0.930 . S
C2031 C2024 1.409 . S
C2031 C2030 1.362 . S
H2032 C2038 0.930 . S
H2033 C2041 0.930 . S
H2034 C2042 0.930 . S
H2035 C2043 0.930 . S
H2036 C2046 0.930 . S
H2037 C2047 0.930 . S
C2038 H2032 0.930 . S
C2038 C2039 1.355 . S
C2038 C2040 1.415 . S
C2039 C2038 1.355 . S
C2039 C2041 1.419 . S
C2040 C2038 1.415 . S
C2040 C2045 1.425 . S
C2040 C2047 1.409 . S
C2041 H2033 0.930 . S
C2041 C2039 1.419 . S
C2041 C2042 1.362 . S
C2042 H2034 0.930 . S
C2042 C2041 1.362 . S
C2042 C2045 1.409 . S
C2043 H2035 0.930 . S
C2043 C2044 1.355 . S
C2043 C2045 1.415 . S
C2044 C2043 1.355 . S
C2044 C2046 1.419 . S
C2045 C2040 1.425 . S
C2045 C2042 1.409 . S
C2045 C2043 1.415 . S
C2046 H2036 0.930 . S
C2046 C2044 1.419 . S
C2046 C2047 1.362 . S
C2047 H2037 0.930 . S
C2047 C2040 1.409 . S
C2047 C2046 1.362 . S
H2048 C2054 0.930 . S
H2049 C2057 0.930 . S
H2050 C2058 0.930 . S
H2051 C2059 0.930 . S
H2052 C2062 0.923 1_565 S
H2053 C2063 0.930 . S
C2054 H2048 0.930 . S
C2054 C2055 1.355 . S
C2054 C2056 1.415 . S
C2055 C2054 1.355 . S
C2055 C2057 1.419 1_565 S
C2056 C2054 1.415 . S
C2056 C2061 1.425 1_565 S
C2056 C2063 1.409 . S
C2057 H2049 0.930 . S
C2057 C2055 1.419 1_545 S
C2057 C2058 1.362 . S
C2058 H2050 0.930 . S
C2058 C2057 1.362 . S
C2058 C2061 1.409 . S
C2059 H2051 0.930 . S
C2059 C2060 1.355 . S
C2059 C2061 1.415 . S
C2060 C2059 1.355 . S
C2060 C2062 1.455 . S
C2061 C2056 1.425 1_545 S
C2061 C2058 1.409 . S
C2061 C2059 1.415 . S
C2062 H2052 0.923 1_545 S
C2062 C2060 1.455 . S
C2062 C2063 1.335 1_545 S
C2063 H2053 0.930 . S
C2063 C2056 1.409 . S
C2063 C2062 1.335 1_565 S
H2064 C2070 0.930 . S
H2065 C2073 0.930 . S
H2066 C2074 0.930 . S
H2067 C2075 0.930 . S
H2068 C2078 0.930 . S
H2069 C2079 0.930 . S
C2070 H2064 0.930 . S
C2070 C2071 1.355 . S
C2070 C2072 1.415 . S
C2071 C2070 1.355 . S
C2071 C2073 1.419 . S
C2072 C2070 1.415 . S
C2072 C2077 1.425 . S
C2072 C2079 1.409 . S
C2073 H2065 0.930 . S
C2073 C2071 1.419 . S
C2073 C2074 1.362 . S
C2074 H2066 0.930 . S
C2074 C2073 1.362 . S
C2074 C2077 1.409 . S
C2075 H2067 0.930 . S
C2075 C2076 1.355 . S
C2075 C2077 1.415 . S
C2076 C2075 1.355 . S
C2076 C2078 1.419 . S
C2077 C2072 1.425 . S
C2077 C2074 1.409 . S
C2077 C2075 1.415 . S
C2078 H2068 0.930 . S
C2078 C2076 1.419 . S
C2078 C2079 1.362 . S
C2079 H2069 0.930 . S
C2079 C2072 1.409 . S
C2079 C2078 1.362 . S
H2080 C2086 0.930 1_565 S
H2081 C2089 0.930 . S
H2082 C2090 0.930 . S
H2083 C2091 0.930 1_545 S
H2084 C2094 0.930 . S
H2085 C2095 0.930 . S
C2086 H2080 0.930 1_545 S
C2086 C2087 1.355 . S
C2086 C2088 1.415 1_545 S
C2087 C2086 1.355 . S
C2087 C2089 1.419 . S
C2088 C2086 1.415 1_565 S
C2088 C2093 1.425 1_565 S
C2088 C2095 1.409 . S
C2089 H2081 0.930 . S
C2089 C2087 1.419 . S
C2089 C2090 1.362 . S
C2090 H2082 0.930 . S
C2090 C2089 1.362 . S
C2090 C2093 1.409 . S
C2091 H2083 0.930 1_565 S
C2091 C2092 1.355 . S
C2091 C2093 1.415 1_565 S
C2092 C2091 1.355 . S
C2092 C2094 1.419 . S
C2093 C2088 1.425 1_545 S
C2093 C2090 1.409 . S
C2093 C2091 1.415 1_545 S
C2094 H2084 0.930 . S
C2094 C2092 1.419 . S
C2094 C2095 1.362 . S
C2095 H2085 0.930 . S
C2095 C2088 1.409 . S
C2095 C2094 1.362 . S
H2096 C2102 0.930 . S
H2097 C2105 0.930 . S
H2098 C2106 0.930 . S
H2099 C2107 0.930 . S
H2100 C2110 0.930 . S
H2101 C2111 0.930 . S
C2102 H2096 0.930 . S
C2102 C2103 1.355 . S
C2102 C2104 1.415 . S
C2103 C2102 1.355 . S
C2103 C2105 1.419 . S
C2104 C2102 1.415 . S
C2104 C2109 1.425 . S
C2104 C2111 1.409 . S
C2105 H2097 0.930 . S
C2105 C2103 1.419 . S
C2105 C2106 1.362 . S
C2106 H2098 0.930 . S
C2106 C2105 1.362 . S
C2106 C2109 1.409 . S
C2107 H2099 0.930 . S
C2107 C2108 1.355 . S
C2107 C2109 1.415 1_556 S
C2108 C2107 1.355 . S
C2108 C2110 1.419 . S
C2109 C2104 1.425 . S
C2109 C2106 1.409 . S
C2109 C2107 1.415 1_554 S
C2110 H2100 0.930 . S
C2110 C2108 1.419 . S
C2110 C2111 1.362 1_556 S
C2111 H2101 0.930 . S
C2111 C2104 1.409 . S
C2111 C2110 1.362 1_554 S
H2112 C2118 0.930 . S
H2113 C2121 0.930 . S
H2114 C2122 0.930 . S
H2115 C2123 0.930 . S
H2116 C2126 0.930 . S
H2117 C2127 0.930 . S
C2118 H2112 0.930 . S
C2118 C2119 1.355 . S
C2118 C2120 1.415 . S
C2119 C2118 1.355 . S
C2119 C2121 1.419 . S
C2120 C2118 1.415 . S
C2120 C2125 1.425 1_565 S
C2120 C2127 1.409 . S
C2121 H2113 0.930 . S
C2121 C2119 1.419 . S
C2121 C2122 1.362 1_565 S
C2122 H2114 0.930 . S
C2122 C2121 1.362 1_545 S
C2122 C2125 1.409 . S
C2123 H2115 0.930 . S
C2123 C2124 1.355 . S
C2123 C2125 1.415 . S
C2124 C2123 1.355 . S
C2124 C2126 1.419 . S
C2125 C2120 1.425 1_545 S
C2125 C2122 1.409 . S
C2125 C2123 1.415 . S
C2126 H2116 0.930 . S
C2126 C2124 1.419 . S
C2126 C2127 1.362 1_545 S
C2127 H2117 0.930 . S
C2127 C2120 1.409 . S
C2127 C2126 1.362 1_565 S
H2128 C2134 0.930 . S
H2129 C2137 0.930 . S
H2130 C2138 0.930 . S
H2131 C2139 0.930 . S
H2132 C2142 0.930 . S
H2133 C2143 0.930 . S
C2134 H2128 0.930 . S
C2134 C2135 1.355 . S
C2134 C2136 1.415 . S
C2135 C2134 1.355 . S
C2135 C2137 1.419 . S
C2136 C2134 1.415 . S
C2136 C2141 1.425 . S
C2136 C2143 1.409 . S
C2137 H2129 0.930 . S
C2137 C2135 1.419 . S
C2137 C2138 1.362 . S
C2138 H2130 0.930 . S
C2138 C2137 1.362 . S
C2138 C2141 1.409 . S
C2139 H2131 0.930 . S
C2139 C2140 1.355 . S
C2139 C2141 1.415 . S
C2140 C2139 1.355 . S
C2140 C2142 1.419 . S
C2141 C2136 1.425 . S
C2141 C2138 1.409 . S
C2141 C2139 1.415 . S
C2142 H2132 0.930 . S
C2142 C2140 1.419 . S
C2142 C2143 1.362 . S
C2143 H2133 0.930 . S
C2143 C2136 1.409 . S
C2143 C2142 1.362 . S
H2144 C2150 0.930 . S
H2145 C2153 0.930 . S
H2146 C2154 0.930 . S
H2147 C2155 0.930 . S
H2148 C2158 0.930 . S
H2149 C2159 0.930 . S
C2150 H2144 0.930 . S
C2150 C2151 1.355 . S
C2150 C2152 1.415 1_565 S
C2151 C2150 1.355 . S
C2151 C2153 1.419 . S
C2152 C2150 1.415 1_545 S
C2152 C2157 1.425 1_545 S
C2152 C2159 1.409 . S
C2153 H2145 0.930 . S
C2153 C2151 1.419 . S
C2153 C2154 1.362 . S
C2154 H2146 0.930 . S
C2154 C2153 1.362 . S
C2154 C2157 1.409 . S
C2155 H2147 0.930 . S
C2155 C2156 1.355 . S
C2155 C2157 1.415 1_545 S
C2156 C2155 1.355 . S
C2156 C2158 1.419 . S
C2157 C2152 1.425 1_565 S
C2157 C2154 1.409 . S
C2157 C2155 1.415 1_565 S
C2158 H2148 0.930 . S
C2158 C2156 1.419 . S
C2158 C2159 1.362 . S
C2159 H2149 0.930 . S
C2159 C2152 1.409 . S
C2159 C2158 1.362 . S
H2160 C2166 0.930 . S
H2161 C2169 0.930 . S
H2162 C2170 0.930 . S
H2163 C2171 0.930 . S
H2164 C2174 0.930 . S
H2165 C2175 0.930 1_556 S
C2166 H2160 0.930 . S
C2166 C2167 1.355 . S
C2166 C2168 1.415 . S
C2167 C2166 1.355 . S
C2167 C2169 1.419 . S
C2168 C2166 1.415 . S
C2168 C2173 1.425 . S
C2168 C2175 1.409 . S
C2169 H2161 0.930 . S
C2169 C2167 1.419 . S
C2169 C2170 1.362 . S
C2170 H2162 0.930 . S
C2170 C2169 1.362 . S
C2170 C2173 1.409 . S
C2171 H2163 0.930 . S
C2171 C2172 1.355 1_554 S
C2171 C2173 1.415 . S
C2172 C2171 1.355 1_556 S
C2172 C2174 1.419 . S
C2173 C2168 1.425 . S
C2173 C2170 1.409 . S
C2173 C2171 1.415 . S
C2174 H2164 0.930 . S
C2174 C2172 1.419 . S
C2174 C2175 1.362 1_556 S
C2175 H2165 0.930 1_554 S
C2175 C2168 1.409 . S
C2175 C2174 1.362 1_554 S
C647 C18 0.828 . S
C652 C81 0.767 . S
C663 C101 0.701 . S
C668 C38 0.710 . S
C679 C41 0.653 . S
C684 C121 0.602 . S
C695 C141 0.725 . S
C700 C61 0.698 . S
C711 C179 0.754 . S
C716 C242 0.818 . S
C727 C199 0.821 . S
C732 C262 0.767 . S
C743 C282 0.598 . S
C748 C202 0.570 . S
C759 C222 0.594 . S
C764 C302 0.639 . S
C775 C401 0.711 . S
C780 C338 0.772 . S
C791 C358 0.700 . S
C796 C421 0.771 . S
C807 C361 0.652 . S
C812 C441 0.601 . S
C823 C381 0.604 . S
C828 C461 0.653 . S
C839 C499 0.831 . S
C844 C562 0.774 . S
C855 C582 0.811 1_554 S
C860 C519 0.751 . S
C871 C522 0.617 . S
C876 C602 0.577 . S
C887 C622 0.582 . S
C892 C542 0.590 . S
C903 C428 1.407 . S
C908 C9 1.407 . S
C919 C448 1.401 . S
C924 C29 1.402 . S
C935 C468 1.438 . S
C940 C48 1.472 . S
C951 C68 1.357 . S
C956 C408 1.375 . S
C967 C88 1.402 . S
C972 C388 1.348 . S
C983 C329 1.340 . S
C988 C108 1.346 . S
C999 C128 1.449 . S
C1004 C349 1.450 . S
C1015 C148 1.471 . S
C1020 C368 1.446 . S
C1031 C168 1.343 . S
C1036 C589 1.349 . S
C1047 C609 1.404 . S
C1052 C188 1.405 . S
C1063 C629 1.399 . S
C1068 C209 1.399 . S
C1079 C229 1.428 . S
C1084 C569 1.398 . S
C1095 C249 1.432 . S
C1100 C549 1.381 . S
C1111 C269 1.407 . S
C1116 C488 1.401 . S
C1127 C289 1.426 . S
C1132 C508 1.426 . S
C1143 C309 1.388 . S
C1148 C529 1.418 1_556 S
C1159 C169 0.577 . S
C1164 C8 0.577 . S
C1175 C28 0.722 . S
C1180 C509 0.722 . S
C1191 C208 0.701 . S
C1196 C49 0.701 . S
C1207 C69 0.618 . S
C1212 C548 0.618 . S
C1223 C248 0.441 . S
C1228 C89 0.441 . S
C1239 C588 0.313 . S
C1244 C109 0.313 . S
C1255 C129 0.472 . S
C1260 C288 0.472 . S
C1271 C149 0.484 . S
C1276 C628 0.484 . S
C1287 C348 0.508 . S
C1292 C189 0.507 . S
C1303 C389 0.688 . S
C1308 C228 0.688 . S
C1319 C268 0.419 . S
C1324 C429 0.420 . S
C1335 C469 0.674 . S
C1340 C308 0.674 . S
C1351 C489 0.451 . S
C1356 C328 0.451 . S
C1367 C528 0.589 . S
C1372 C369 0.589 . S
C1383 C568 0.253 . S
C1388 C409 0.255 . S
C1399 C449 0.525 . S
C1404 C608 0.525 . S
C1415 C19 1.661 . S
C1420 C258 1.621 . S
C1431 C598 1.621 . S
C1436 C39 1.661 . S
C1447 C298 1.542 . S
C1452 C42 1.516 . S
C1463 C62 1.484 . S
C1468 C638 1.485 . S
C1479 C161 1.265 . S
C1484 C82 1.255 . S
C1495 C501 1.270 . S
C1500 C102 1.287 . S
C1511 C218 1.537 . S
C1516 C122 1.490 . S
C1527 C558 1.513 . S
C1532 C142 1.471 . S
C1543 C99 1.632 . S
C1548 C178 1.640 . S
C1559 C439 1.639 . S
C1564 C198 1.680 . S
C1575 C139 1.543 . S
C1580 C201 1.506 . S
C1591 C221 1.489 . S
C1596 C479 1.538 . S
C1607 C2 1.265 . S
C1612 C241 1.255 . S
C1623 C342 1.282 . S
C1628 C261 1.300 . S
C1639 C281 1.494 . S
C1644 C59 1.538 . S
C1655 C301 1.516 . S
C1660 C399 1.495 . S
C1671 C578 1.623 . S
C1676 C339 1.651 . S
C1687 C278 1.654 . S
C1692 C359 1.633 . S
C1703 C362 1.525 . S
C1708 C618 1.504 . S
C1719 C318 1.538 . S
C1724 C382 1.490 . S
C1735 C402 1.286 . S
C1740 C481 1.315 . S
C1751 C422 1.244 . S
C1756 C181 1.257 . S
C1767 C538 1.542 . S
C1772 C442 1.515 . S
C1783 C238 1.497 . S
C1788 C462 1.474 . S
C1799 C498 1.651 . S
C1804 C419 1.625 . S
C1815 C518 1.679 . S
C1820 C119 1.656 . S
C1831 C521 1.531 . S
C1836 C459 1.515 . S
C1847 C541 1.471 1_554 S
C1852 C159 1.490 . S
C1863 C322 1.333 . S
C1868 C561 1.328 . S
C1879 C22 1.298 . S
C1884 C581 1.265 . S
C1895 C601 1.504 . S
C1900 C379 1.541 . S
C1911 C79 1.550 . S
C1916 C621 1.521 . S
C1927 C98 2.086 . S
C1932 C1 2.032 . S
C1943 C118 2.071 . S
C1948 C21 2.022 . S
C1959 C58 2.281 . S
C1964 C138 2.275 . S
C1975 C158 2.288 . S
C1980 C78 2.304 . S
C1991 C259 2.091 . S
C1996 C162 2.070 . S
C2007 C182 2.022 1_554 S
C2012 C279 2.074 . S
C2023 C219 2.286 . S
C2028 C299 2.298 . S
C2039 C319 2.296 . S
C2044 C239 2.303 . S
C2055 C321 2.029 . S
C2060 C418 2.072 . S
C2071 C438 2.089 . S
C2076 C341 2.048 . S
C2087 C378 2.292 . S
C2092 C458 2.297 . S
C2103 C398 2.304 . S
C2108 C478 2.295 . S
C2119 C579 2.079 1_556 S
C2124 C482 2.028 . S
C2135 C599 2.088 . S
C2140 C502 2.059 . S
C2151 C539 2.295 . S
C2156 C619 2.277 . S
C2167 C639 2.280 . S
C2172 C559 2.293 . S
