# Generated by pormake.
# Topology umk, (4)-cn, num edge types: 1
# Building blocks:
#     Node 0, Type 0, BuildingBlock: AZAVOO_clean_sbu_0, # of connection points: 4
#     Node 1, Type 0, BuildingBlock: AZAVOO_clean_sbu_0, # of connection points: 4
#     Node 2, Type 0, BuildingBlock: AZAVOO_clean_sbu_0, # of connection points: 4
#     Node 3, Type 0, BuildingBlock: AZAVOO_clean_sbu_0, # of connection points: 4
#     Node 4, Type 0, BuildingBlock: AZAVOO_clean_sbu_0, # of connection points: 4
#     Node 5, Type 0, BuildingBlock: AZAVOO_clean_sbu_0, # of connection points: 4
#     Node 6, Type 0, BuildingBlock: AZAVOO_clean_sbu_0, # of connection points: 4
#     Node 7, Type 0, BuildingBlock: AZAVOO_clean_sbu_0, # of connection points: 4
#     Node 8, Type 0, BuildingBlock: AZAVOO_clean_sbu_0, # of connection points: 4
#     Node 9, Type 0, BuildingBlock: AZAVOO_clean_sbu_0, # of connection points: 4
#     Node 10, Type 0, BuildingBlock: AZAVOO_clean_sbu_0, # of connection points: 4
#     Node 11, Type 0, BuildingBlock: AZAVOO_clean_sbu_0, # of connection points: 4
#     Node 12, Type 0, BuildingBlock: AZAVOO_clean_sbu_0, # of connection points: 4
#     Node 13, Type 0, BuildingBlock: AZAVOO_clean_sbu_0, # of connection points: 4
#     Node 14, Type 0, BuildingBlock: AZAVOO_clean_sbu_0, # of connection points: 4
#     Node 15, Type 0, BuildingBlock: AZAVOO_clean_sbu_0, # of connection points: 4
#     Node 16, Type 0, BuildingBlock: AZAVOO_clean_sbu_0, # of connection points: 4
#     Node 17, Type 0, BuildingBlock: AZAVOO_clean_sbu_0, # of connection points: 4
#     Node 18, Type 0, BuildingBlock: AZAVOO_clean_sbu_0, # of connection points: 4
#     Node 19, Type 0, BuildingBlock: AZAVOO_clean_sbu_0, # of connection points: 4
#     Node 20, Type 0, BuildingBlock: AZAVOO_clean_sbu_0, # of connection points: 4
#     Node 21, Type 0, BuildingBlock: AZAVOO_clean_sbu_0, # of connection points: 4
#     Node 22, Type 0, BuildingBlock: AZAVOO_clean_sbu_0, # of connection points: 4
#     Node 23, Type 0, BuildingBlock: AZAVOO_clean_sbu_0, # of connection points: 4
#     Edge 24, Type (0, 0), BuildingBlock: UVAHIK_clean_linker_0, # of connection points: 2
#     Edge 25, Type (0, 0), BuildingBlock: UVAHIK_clean_linker_0, # of connection points: 2
#     Edge 26, Type (0, 0), BuildingBlock: UVAHIK_clean_linker_0, # of connection points: 2
#     Edge 27, Type (0, 0), BuildingBlock: UVAHIK_clean_linker_0, # of connection points: 2
#     Edge 28, Type (0, 0), BuildingBlock: UVAHIK_clean_linker_0, # of connection points: 2
#     Edge 29, Type (0, 0), BuildingBlock: UVAHIK_clean_linker_0, # of connection points: 2
#     Edge 30, Type (0, 0), BuildingBlock: UVAHIK_clean_linker_0, # of connection points: 2
#     Edge 31, Type (0, 0), BuildingBlock: UVAHIK_clean_linker_0, # of connection points: 2
#     Edge 32, Type (0, 0), BuildingBlock: UVAHIK_clean_linker_0, # of connection points: 2
#     Edge 33, Type (0, 0), BuildingBlock: UVAHIK_clean_linker_0, # of connection points: 2
#     Edge 34, Type (0, 0), BuildingBlock: UVAHIK_clean_linker_0, # of connection points: 2
#     Edge 35, Type (0, 0), BuildingBlock: UVAHIK_clean_linker_0, # of connection points: 2
#     Edge 36, Type (0, 0), BuildingBlock: UVAHIK_clean_linker_0, # of connection points: 2
#     Edge 37, Type (0, 0), BuildingBlock: UVAHIK_clean_linker_0, # of connection points: 2
#     Edge 38, Type (0, 0), BuildingBlock: UVAHIK_clean_linker_0, # of connection points: 2
#     Edge 39, Type (0, 0), BuildingBlock: UVAHIK_clean_linker_0, # of connection points: 2
#     Edge 40, Type (0, 0), BuildingBlock: UVAHIK_clean_linker_0, # of connection points: 2
#     Edge 41, Type (0, 0), BuildingBlock: UVAHIK_clean_linker_0, # of connection points: 2
#     Edge 42, Type (0, 0), BuildingBlock: UVAHIK_clean_linker_0, # of connection points: 2
#     Edge 43, Type (0, 0), BuildingBlock: UVAHIK_clean_linker_0, # of connection points: 2
#     Edge 44, Type (0, 0), BuildingBlock: UVAHIK_clean_linker_0, # of connection points: 2
#     Edge 45, Type (0, 0), BuildingBlock: UVAHIK_clean_linker_0, # of connection points: 2
#     Edge 46, Type (0, 0), BuildingBlock: UVAHIK_clean_linker_0, # of connection points: 2
#     Edge 47, Type (0, 0), BuildingBlock: UVAHIK_clean_linker_0, # of connection points: 2
#     Edge 48, Type (0, 0), BuildingBlock: UVAHIK_clean_linker_0, # of connection points: 2
#     Edge 49, Type (0, 0), BuildingBlock: UVAHIK_clean_linker_0, # of connection points: 2
#     Edge 50, Type (0, 0), BuildingBlock: UVAHIK_clean_linker_0, # of connection points: 2
#     Edge 51, Type (0, 0), BuildingBlock: UVAHIK_clean_linker_0, # of connection points: 2
#     Edge 52, Type (0, 0), BuildingBlock: UVAHIK_clean_linker_0, # of connection points: 2
#     Edge 53, Type (0, 0), BuildingBlock: UVAHIK_clean_linker_0, # of connection points: 2
#     Edge 54, Type (0, 0), BuildingBlock: UVAHIK_clean_linker_0, # of connection points: 2
#     Edge 55, Type (0, 0), BuildingBlock: UVAHIK_clean_linker_0, # of connection points: 2
#     Edge 56, Type (0, 0), BuildingBlock: UVAHIK_clean_linker_0, # of connection points: 2
#     Edge 57, Type (0, 0), BuildingBlock: UVAHIK_clean_linker_0, # of connection points: 2
#     Edge 58, Type (0, 0), BuildingBlock: UVAHIK_clean_linker_0, # of connection points: 2
#     Edge 59, Type (0, 0), BuildingBlock: UVAHIK_clean_linker_0, # of connection points: 2
#     Edge 60, Type (0, 0), BuildingBlock: UVAHIK_clean_linker_0, # of connection points: 2
#     Edge 61, Type (0, 0), BuildingBlock: UVAHIK_clean_linker_0, # of connection points: 2
#     Edge 62, Type (0, 0), BuildingBlock: UVAHIK_clean_linker_0, # of connection points: 2
#     Edge 63, Type (0, 0), BuildingBlock: UVAHIK_clean_linker_0, # of connection points: 2
#     Edge 64, Type (0, 0), BuildingBlock: UVAHIK_clean_linker_0, # of connection points: 2
#     Edge 65, Type (0, 0), BuildingBlock: UVAHIK_clean_linker_0, # of connection points: 2
#     Edge 66, Type (0, 0), BuildingBlock: UVAHIK_clean_linker_0, # of connection points: 2
#     Edge 67, Type (0, 0), BuildingBlock: UVAHIK_clean_linker_0, # of connection points: 2
#     Edge 68, Type (0, 0), BuildingBlock: UVAHIK_clean_linker_0, # of connection points: 2
#     Edge 69, Type (0, 0), BuildingBlock: UVAHIK_clean_linker_0, # of connection points: 2
#     Edge 70, Type (0, 0), BuildingBlock: UVAHIK_clean_linker_0, # of connection points: 2
#     Edge 71, Type (0, 0), BuildingBlock: UVAHIK_clean_linker_0, # of connection points: 2
# Relax obj value: 0.144
# Max RMSD: 0.161
# Mean RMSD: 0.161
data_MOF--net-umk--node1-AZAVOO_clean_sbu_0--edge1-UVAHIK_clean_linker_0
_symmetry_space_group_name_H-M    P1
_symmetry_Int_Tables_number       1
_symmetry_cell_setting            triclinic
loop_
_symmetry_equiv_pos_as_xyz
'x, y, z'
_cell_length_a     84.236162
_cell_length_b     84.37134
_cell_length_c     55.644447
_cell_angle_alpha  89.976555
_cell_angle_beta   89.961389
_cell_angle_gamma 120.03236
loop_
_atom_site_label
_atom_site_type_symbol
_atom_site_fract_x
_atom_site_fract_y
_atom_site_fract_z
_atom_type_partial_charge
Mg0 Mg 0.33625 0.44514 0.06879 0.0
O1 O 0.36271 0.46833 0.0519 0.0
O2 O 0.38609 0.46837 0.07101 0.0
Mg3 Mg 0.375 0.44521 0.09846 0.0
C4 C 0.3799 0.47499 0.05539 0.0
C5 C 0.3044 0.4522 0.06334 0.0
O6 O 0.30083 0.44305 0.08363 0.0
O7 O 0.34118 0.46268 0.1022 0.0
O8 O 0.36388 0.46072 0.12005 0.0
O9 O 0.33553 0.42482 0.04229 0.0
O10 O 0.34971 0.43092 0.07726 0.0
C11 C 0.35234 0.46635 0.11962 0.0
C12 C 0.3458 0.42219 0.05718 0.0
O13 O 0.31902 0.45604 0.05206 0.0
Mg14 Mg 0.86139 0.33587 0.58672 0.0
O15 O 0.86241 0.36097 0.56873 0.0
O16 O 0.88409 0.38577 0.58778 0.0
Mg17 Mg 0.89722 0.3769 0.61649 0.0
C18 C 0.87157 0.37829 0.57187 0.0
C19 C 0.83225 0.31459 0.54666 0.0
O20 O 0.84651 0.32428 0.53275 0.0
O21 O 0.84695 0.33924 0.61927 0.0
O22 O 0.8697 0.36435 0.63645 0.0
O23 O 0.88268 0.33746 0.56124 0.0
O24 O 0.88874 0.35151 0.59634 0.0
C25 C 0.85305 0.35136 0.63575 0.0
C26 C 0.89471 0.3485 0.57654 0.0
O27 O 0.83402 0.31682 0.56927 0.0
Mg28 Mg 0.50966 0.85869 0.09518 0.0
O29 O 0.48908 0.86494 0.07685 0.0
O30 O 0.48791 0.887 0.09767 0.0
Mg31 Mg 0.50843 0.8954 0.12846 0.0
C32 C 0.48263 0.87559 0.08032 0.0
C33 C 0.50099 0.81985 0.08193 0.0
O34 O 0.5092 0.82223 0.10279 0.0
O35 O 0.48932 0.84376 0.12536 0.0
O36 O 0.49 0.86708 0.14532 0.0
O37 O 0.53217 0.87992 0.07272 0.0
O38 O 0.52406 0.88527 0.10825 0.0
C39 C 0.4841 0.84997 0.14269 0.0
C40 C 0.53412 0.89153 0.0893 0.0
O41 O 0.49863 0.83253 0.07364 0.0
Mg42 Mg 0.65892 0.53894 0.60118 0.0
O43 O 0.63984 0.51475 0.57717 0.0
O44 O 0.61125 0.50937 0.58262 0.0
Mg45 Mg 0.61229 0.53095 0.60824 0.0
C46 C 0.62266 0.50555 0.57292 0.0
C47 C 0.69727 0.54231 0.60392 0.0
O48 O 0.70001 0.55609 0.61771 0.0
O49 O 0.64831 0.5211 0.63487 0.0
O50 O 0.62053 0.51815 0.63862 0.0
O51 O 0.66331 0.55833 0.57138 0.0
O52 O 0.64123 0.54945 0.5984 0.0
C53 C 0.63315 0.51519 0.64611 0.0
C54 C 0.64893 0.55855 0.5791 0.0
O55 O 0.68137 0.53198 0.59538 0.0
Mg56 Mg 0.11685 0.66111 0.0826 0.0
O57 O 0.11806 0.63786 0.06269 0.0
O58 O 0.09913 0.61172 0.08178 0.0
Mg59 Mg 0.08537 0.618 0.11267 0.0
C60 C 0.11074 0.62054 0.06522 0.0
C61 C 0.14711 0.699 0.06735 0.0
O62 O 0.13677 0.70252 0.08153 0.0
O63 O 0.13398 0.65921 0.11296 0.0
O64 O 0.11362 0.63304 0.13073 0.0
O65 O 0.09339 0.65724 0.05957 0.0
O66 O 0.09038 0.64303 0.09404 0.0
C67 C 0.12965 0.64709 0.12928 0.0
C68 C 0.08278 0.64531 0.07531 0.0
O69 O 0.14256 0.68242 0.0635 0.0
Mg70 Mg 0.45805 0.12619 0.57578 0.0
O71 O 0.47712 0.11841 0.55583 0.0
O72 O 0.47624 0.09484 0.57543 0.0
Mg73 Mg 0.45796 0.08846 0.60832 0.0
C74 C 0.48204 0.10641 0.55822 0.0
C75 C 0.46645 0.15248 0.53196 0.0
O76 O 0.45784 0.13677 0.52052 0.0
O77 O 0.48005 0.1406 0.60427 0.0
O78 O 0.47911 0.11672 0.62307 0.0
O79 O 0.43407 0.1052 0.55473 0.0
O80 O 0.44311 0.09993 0.58958 0.0
C81 C 0.48584 0.13396 0.62037 0.0
C82 C 0.43235 0.09368 0.57132 0.0
O83 O 0.46917 0.15251 0.55441 0.0
Mg84 Mg 0.54782 0.67893 0.93218 0.0
O85 O 0.52566 0.64937 0.94068 0.0
O86 O 0.53431 0.6304 0.92529 0.0
Mg87 Mg 0.56152 0.64794 0.90584 0.0
C88 C 0.52293 0.63325 0.93698 0.0
C89 C 0.53171 0.70435 0.9364 0.0
O90 O 0.54558 0.71364 0.92174 0.0
O91 O 0.53762 0.67551 0.8937 0.0
O92 O 0.54639 0.65643 0.87896 0.0
O93 O 0.56245 0.67911 0.9656 0.0
O94 O 0.56742 0.671 0.92979 0.0
C95 C 0.53859 0.66601 0.87654 0.0
C96 C 0.57046 0.67244 0.95259 0.0
O97 O 0.52852 0.68881 0.94388 0.0
Mg98 Mg 0.86324 0.5514 0.41701 0.0
O99 O 0.86122 0.5246 0.4299 0.0
O100 O 0.87693 0.51704 0.40449 0.0
Mg101 Mg 0.88883 0.53885 0.37527 0.0
C102 C 0.86704 0.51393 0.42321 0.0
C103 C 0.84444 0.55608 0.46225 0.0
O104 O 0.86162 0.56851 0.46625 0.0
O105 O 0.84261 0.53624 0.387 0.0
O106 O 0.85953 0.52944 0.36272 0.0
O107 O 0.88898 0.56698 0.43813 0.0
O108 O 0.88824 0.55878 0.40028 0.0
C109 C 0.84453 0.52899 0.36789 0.0
C110 C 0.89763 0.56595 0.41951 0.0
O111 O 0.8404 0.54668 0.44306 0.0
Mg112 Mg 0.31467 0.8767 0.90105 0.0
O113 O 0.33848 0.87511 0.91869 0.0
O114 O 0.36366 0.89133 0.89637 0.0
Mg115 Mg 0.35604 0.90337 0.86479 0.0
C116 C 0.35549 0.88128 0.91453 0.0
C117 C 0.2962 0.8512 0.94618 0.0
O118 O 0.31093 0.86383 0.95713 0.0
O119 O 0.31256 0.85682 0.87177 0.0
O120 O 0.33788 0.87428 0.85035 0.0
O121 O 0.32239 0.90209 0.92216 0.0
O122 O 0.33325 0.90182 0.8861 0.0
C123 C 0.32318 0.85908 0.85413 0.0
C124 C 0.3336 0.91098 0.90479 0.0
O125 O 0.29407 0.85291 0.92391 0.0
Mg126 Mg 0.47225 0.33856 0.39261 0.0
O127 O 0.50022 0.36083 0.40633 0.0
O128 O 0.50923 0.38603 0.38418 0.0
Mg129 Mg 0.48648 0.37999 0.35722 0.0
C130 C 0.51187 0.3774 0.40111 0.0
C131 C 0.46435 0.30613 0.4269 0.0
O132 O 0.4497 0.30738 0.43136 0.0
O133 O 0.48486 0.3344 0.35901 0.0
O134 O 0.49252 0.35957 0.3374 0.0
O135 O 0.45874 0.34795 0.41866 0.0
O136 O 0.46625 0.35851 0.38151 0.0
C137 C 0.49147 0.34402 0.34009 0.0
C138 C 0.45981 0.35934 0.40223 0.0
O139 O 0.47618 0.31715 0.41205 0.0
Mg140 Mg 0.12863 0.45487 0.90931 0.0
O141 O 0.13139 0.48219 0.92179 0.0
O142 O 0.11322 0.48789 0.89836 0.0
Mg143 Mg 0.09873 0.46451 0.8718 0.0
C144 C 0.12472 0.49224 0.91549 0.0
C145 C 0.15383 0.45694 0.95213 0.0
O146 O 0.13803 0.44915 0.96348 0.0
O147 O 0.1458 0.4684 0.87589 0.0
O148 O 0.12659 0.47368 0.85412 0.0
O149 O 0.10529 0.43997 0.9348 0.0
O150 O 0.10215 0.44635 0.89721 0.0
C151 C 0.14203 0.47453 0.85711 0.0
C152 C 0.09475 0.43991 0.91783 0.0
O153 O 0.15436 0.46109 0.93008 0.0
Mg154 Mg 0.66793 0.1181 0.41107 0.0
O155 O 0.63982 0.11432 0.42179 0.0
O156 O 0.61864 0.09347 0.3973 0.0
Mg157 Mg 0.63323 0.08527 0.36993 0.0
C158 C 0.62317 0.10455 0.41496 0.0
C159 C 0.69494 0.1456 0.44835 0.0
O160 O 0.69913 0.13257 0.44983 0.0
O161 O 0.66933 0.13561 0.37919 0.0
O162 O 0.64732 0.11475 0.35551 0.0
O163 O 0.66266 0.09461 0.4348 0.0
O164 O 0.65514 0.092 0.39636 0.0
C165 C 0.65967 0.1312 0.36014 0.0
C166 C 0.65452 0.08418 0.41651 0.0
O167 O 0.68216 0.1435 0.4343 0.0
Mg168 Mg 0.6391 0.52883 0.94572 0.0
O169 O 0.61307 0.50549 0.96343 0.0
O170 O 0.58951 0.50842 0.95054 0.0
Mg171 Mg 0.59999 0.53309 0.92568 0.0
C172 C 0.59594 0.50018 0.96296 0.0
C173 C 0.66748 0.5158 0.94103 0.0
O174 O 0.66863 0.5227 0.9195 0.0
O175 O 0.63112 0.51401 0.90969 0.0
O176 O 0.60802 0.51808 0.89804 0.0
O177 O 0.64305 0.54746 0.97647 0.0
O178 O 0.6265 0.54454 0.94418 0.0
C179 C 0.61895 0.51195 0.89442 0.0
C180 C 0.63211 0.55151 0.9652 0.0
O181 O 0.6559 0.51556 0.9559 0.0
Mg182 Mg 0.12455 0.64746 0.40264 0.0
O183 O 0.12457 0.62292 0.4205 0.0
O184 O 0.10493 0.59794 0.39988 0.0
Mg185 Mg 0.09147 0.60616 0.37064 0.0
C186 C 0.11661 0.60569 0.41671 0.0
C187 C 0.16266 0.68117 0.40976 0.0
O188 O 0.15921 0.68284 0.38717 0.0
O189 O 0.14053 0.64571 0.37084 0.0
O190 O 0.11927 0.62119 0.35109 0.0
O191 O 0.10209 0.64412 0.42699 0.0
O192 O 0.09768 0.63074 0.39154 0.0
C193 C 0.13559 0.63472 0.35307 0.0
C194 C 0.09082 0.63296 0.41108 0.0
O195 O 0.15093 0.66742 0.4217 0.0
Mg196 Mg 0.49328 0.13392 0.88751 0.0
O197 O 0.51437 0.1279 0.90473 0.0
O198 O 0.51363 0.10444 0.88514 0.0
Mg199 Mg 0.49232 0.09571 0.85531 0.0
C200 C 0.52004 0.11657 0.90164 0.0
C201 C 0.50497 0.1616 0.92982 0.0
O202 O 0.49749 0.1462 0.94202 0.0
O203 O 0.51217 0.14745 0.85573 0.0
O204 O 0.51019 0.12336 0.8363 0.0
O205 O 0.47157 0.11365 0.91197 0.0
O206 O 0.47793 0.10689 0.87619 0.0
C207 C 0.51638 0.14058 0.83813 0.0
C208 C 0.46873 0.1014 0.89591 0.0
O209 O 0.50572 0.16107 0.90706 0.0
Mg210 Mg 0.34665 0.47419 0.39904 0.0
O211 O 0.36902 0.50032 0.4176 0.0
O212 O 0.39495 0.50934 0.39682 0.0
Mg213 Mg 0.38987 0.4889 0.36706 0.0
C214 C 0.38604 0.51146 0.41385 0.0
C215 C 0.30942 0.47205 0.4067 0.0
O216 O 0.30825 0.46681 0.38422 0.0
O217 O 0.34548 0.4905 0.36701 0.0
O218 O 0.37176 0.49814 0.34796 0.0
O219 O 0.35352 0.4573 0.42309 0.0
O220 O 0.36639 0.46797 0.38771 0.0
C221 C 0.35668 0.49821 0.34968 0.0
C222 C 0.36563 0.45935 0.40717 0.0
O223 O 0.32405 0.47651 0.41834 0.0
Mg224 Mg 0.86692 0.34214 0.91404 0.0
O225 O 0.86325 0.36306 0.93638 0.0
O226 O 0.88139 0.39056 0.91982 0.0
Mg227 Mg 0.89708 0.38754 0.88856 0.0
C228 C 0.86962 0.38034 0.93549 0.0
C229 C 0.83932 0.30279 0.92618 0.0
O230 O 0.85147 0.30164 0.91259 0.0
O231 O 0.85008 0.34434 0.88357 0.0
O232 O 0.86961 0.37204 0.86862 0.0
O233 O 0.89003 0.3461 0.93764 0.0
O234 O 0.8933 0.36211 0.90473 0.0
C235 C 0.85413 0.35722 0.86852 0.0
C236 C 0.90067 0.35926 0.92327 0.0
O237 O 0.84151 0.31852 0.93073 0.0
Mg238 Mg 0.50811 0.85695 0.41217 0.0
O239 O 0.48753 0.86327 0.43065 0.0
O240 O 0.48802 0.88675 0.41128 0.0
Mg241 Mg 0.50711 0.8939 0.37903 0.0
C242 C 0.48217 0.8749 0.42815 0.0
C243 C 0.50106 0.83181 0.4562 0.0
O244 O 0.50982 0.84799 0.46643 0.0
O245 O 0.48753 0.84195 0.38239 0.0
O246 O 0.48794 0.86537 0.363 0.0
O247 O 0.53096 0.87854 0.43413 0.0
O248 O 0.52254 0.88343 0.3986 0.0
C249 C 0.48202 0.84824 0.36548 0.0
C250 C 0.53274 0.88993 0.41733 0.0
O251 O 0.49747 0.83079 0.4339 0.0
Mg252 Mg 0.43464 0.28853 0.05927 0.0
O253 O 0.45428 0.31928 0.05896 0.0
O254 O 0.44372 0.33311 0.08305 0.0
Mg255 Mg 0.41684 0.31027 0.09942 0.0
C256 C 0.45572 0.3337 0.06844 0.0
C257 C 0.45658 0.28205 0.01889 0.0
O258 O 0.44376 0.28213 0.00555 0.0
O259 O 0.44574 0.2871 0.09594 0.0
O260 O 0.43327 0.29941 0.11965 0.0
O261 O 0.41908 0.29245 0.02956 0.0
O262 O 0.41308 0.29273 0.06822 0.0
C263 C 0.44299 0.29182 0.1166 0.0
C264 C 0.41011 0.2953 0.04628 0.0
O265 O 0.45653 0.28447 0.04139 0.0
Mg266 Mg 0.12174 0.43294 0.57633 0.0
O267 O 0.12233 0.45895 0.56257 0.0
O268 O 0.104 0.4644 0.58602 0.0
Mg269 Mg 0.09184 0.44211 0.61457 0.0
C270 C 0.11502 0.46853 0.56833 0.0
C271 C 0.14725 0.44202 0.53116 0.0
O272 O 0.13249 0.43982 0.52016 0.0
O273 O 0.14006 0.44885 0.60795 0.0
O274 O 0.12079 0.45394 0.62995 0.0
O275 O 0.09748 0.41608 0.55284 0.0
O276 O 0.09565 0.42363 0.59033 0.0
C277 C 0.13652 0.45561 0.62628 0.0
C278 C 0.08748 0.4162 0.57046 0.0
O279 O 0.14692 0.43994 0.5538 0.0
Mg280 Mg 0.68321 0.11736 0.09283 0.0
O281 O 0.65833 0.11606 0.07373 0.0
O282 O 0.63296 0.09681 0.09397 0.0
Mg283 Mg 0.64171 0.08772 0.12739 0.0
C284 C 0.64092 0.10758 0.07632 0.0
C285 C 0.7003 0.14307 0.04756 0.0
O286 O 0.6859 0.12987 0.03671 0.0
O287 O 0.68247 0.13656 0.12099 0.0
O288 O 0.65639 0.11757 0.14023 0.0
O289 O 0.67838 0.09249 0.0725 0.0
O290 O 0.66623 0.09183 0.10798 0.0
C291 C 0.67035 0.13342 0.13693 0.0
C292 C 0.6672 0.08305 0.08965 0.0
O293 O 0.7027 0.14166 0.06982 0.0
Mg294 Mg 0.55708 0.68269 0.58189 0.0
O295 O 0.53342 0.65638 0.56663 0.0
O296 O 0.53432 0.63221 0.5813 0.0
Mg297 Mg 0.5592 0.64358 0.60638 0.0
C298 C 0.52696 0.63915 0.56812 0.0
C299 C 0.54282 0.70119 0.54622 0.0
O300 O 0.55138 0.69614 0.53101 0.0
O301 O 0.54235 0.67735 0.61789 0.0
O302 O 0.54467 0.65371 0.63174 0.0
O303 O 0.57477 0.6829 0.55164 0.0
O304 O 0.57241 0.66996 0.58706 0.0
C305 C 0.53937 0.66542 0.63405 0.0
C306 C 0.57889 0.67319 0.56556 0.0
O307 O 0.54289 0.69782 0.56844 0.0
Mg308 Mg 0.85362 0.54433 0.09132 0.0
O309 O 0.85259 0.51743 0.08149 0.0
O310 O 0.87168 0.51367 0.1056 0.0
Mg311 Mg 0.88496 0.53829 0.13069 0.0
C312 C 0.86002 0.50824 0.08853 0.0
C313 C 0.82646 0.53112 0.04773 0.0
O314 O 0.84087 0.53237 0.03677 0.0
O315 O 0.83671 0.53135 0.12507 0.0
O316 O 0.85678 0.52831 0.14806 0.0
O317 O 0.8767 0.55921 0.06549 0.0
O318 O 0.88035 0.55484 0.10378 0.0
C319 C 0.84092 0.5264 0.14457 0.0
C320 C 0.88757 0.56071 0.0829 0.0
O321 O 0.82757 0.5353 0.06984 0.0
Mg322 Mg 0.30024 0.86577 0.58276 0.0
O323 O 0.32813 0.86989 0.57056 0.0
O324 O 0.35032 0.89242 0.59216 0.0
Mg325 Mg 0.33631 0.90047 0.62074 0.0
C326 C 0.34505 0.88048 0.57547 0.0
C327 C 0.28991 0.83992 0.53833 0.0
O328 O 0.30232 0.85529 0.5283 0.0
O329 O 0.30068 0.84944 0.615 0.0
O330 O 0.32338 0.87143 0.63663 0.0
O331 O 0.30406 0.88847 0.55833 0.0
O332 O 0.31296 0.89227 0.59627 0.0
C333 C 0.31113 0.85469 0.63336 0.0
C334 C 0.31263 0.89945 0.57599 0.0
O335 O 0.286 0.83989 0.56039 0.0
C336 C 0.36466 0.48176 0.159 0.0
C337 C 0.35184 0.47712 0.14036 0.0
C338 C 0.36381 0.49089 0.17934 0.0
C339 C 0.33144 0.49761 0.21565 0.0
H340 H 0.37622 0.52751 0.25116 0.0
C341 C 0.3633 0.52128 0.3177 0.0
C342 C 0.35095 0.50464 0.32868 0.0
C343 C 0.3605 0.52479 0.294 0.0
C344 C 0.36343 0.51966 0.2416 0.0
H345 H 0.32836 0.47901 0.12823 0.0
H346 H 0.32696 0.49519 0.16401 0.0
H347 H 0.3779 0.52152 0.20927 0.0
H348 H 0.32522 0.47936 0.32467 0.0
H349 H 0.3209 0.48465 0.28306 0.0
H350 H 0.31693 0.49591 0.24796 0.0
C351 C 0.33758 0.49155 0.16281 0.0
C352 C 0.36447 0.51594 0.21745 0.0
C353 C 0.33842 0.48234 0.14231 0.0
C354 C 0.33488 0.49234 0.31653 0.0
C355 C 0.33242 0.4955 0.29254 0.0
C356 C 0.33035 0.50168 0.23978 0.0
C357 C 0.3502 0.49579 0.18166 0.0
C358 C 0.3486 0.50387 0.20466 0.0
C359 C 0.34581 0.51127 0.28045 0.0
C360 C 0.3464 0.51175 0.25356 0.0
H361 H 0.3752 0.478 0.1582 0.0
H362 H 0.3735 0.49348 0.19367 0.0
H363 H 0.31889 0.48844 0.20625 0.0
H364 H 0.37572 0.53104 0.32691 0.0
H365 H 0.37068 0.53749 0.28582 0.0
C366 C 0.84114 0.36581 0.66376 0.0
C367 C 0.841 0.35002 0.65567 0.0
C368 C 0.83316 0.36576 0.68574 0.0
C369 C 0.80898 0.33678 0.73974 0.0
H370 H 0.84586 0.38001 0.77281 0.0
C371 C 0.83232 0.3377 0.8366 0.0
C372 C 0.84144 0.35452 0.84872 0.0
C373 C 0.82443 0.33657 0.8141 0.0
C374 C 0.83502 0.36802 0.76402 0.0
H375 H 0.83127 0.32142 0.66291 0.0
H376 H 0.81827 0.32149 0.70208 0.0
H377 H 0.84604 0.37912 0.72976 0.0
H378 H 0.84731 0.38261 0.84875 0.0
H379 H 0.83278 0.38045 0.81009 0.0
H380 H 0.79883 0.32534 0.77465 0.0
C381 C 0.82394 0.33381 0.69127 0.0
C382 C 0.83512 0.3675 0.73906 0.0
C383 C 0.83149 0.33375 0.66888 0.0
C384 C 0.84064 0.36957 0.83947 0.0
C385 C 0.83238 0.36833 0.81731 0.0
C386 C 0.80892 0.33728 0.76492 0.0
C387 C 0.82554 0.3501 0.7005 0.0
C388 C 0.82254 0.35167 0.72655 0.0
C389 C 0.8253 0.35219 0.80362 0.0
C390 C 0.82237 0.3527 0.77735 0.0
H391 H 0.84821 0.37845 0.6536 0.0
H392 H 0.83409 0.37837 0.69189 0.0
H393 H 0.7989 0.32447 0.73068 0.0
H394 H 0.83275 0.3259 0.84343 0.0
H395 H 0.81914 0.32392 0.8041 0.0
C396 C 0.46936 0.81911 0.34178 0.0
C397 C 0.46988 0.83573 0.34659 0.0
C398 C 0.46125 0.80944 0.32065 0.0
C399 C 0.43529 0.80929 0.26592 0.0
H400 H 0.47489 0.80789 0.23235 0.0
C401 C 0.46241 0.84288 0.17682 0.0
C402 C 0.47199 0.83735 0.16152 0.0
C403 C 0.45384 0.83287 0.19745 0.0
C404 C 0.46332 0.80756 0.24133 0.0
H405 H 0.46046 0.85407 0.3346 0.0
H406 H 0.4465 0.83742 0.29795 0.0
H407 H 0.47429 0.80745 0.27582 0.0
H408 H 0.47864 0.81603 0.15459 0.0
H409 H 0.46381 0.7986 0.19104 0.0
H410 H 0.42524 0.81099 0.23123 0.0
C411 C 0.4523 0.83174 0.31028 0.0
C412 C 0.46297 0.80731 0.26641 0.0
C413 C 0.46052 0.84146 0.33121 0.0
C414 C 0.47147 0.82071 0.16616 0.0
C415 C 0.463 0.81074 0.18703 0.0
C416 C 0.43564 0.80955 0.24081 0.0
C417 C 0.45337 0.81614 0.30414 0.0
C418 C 0.44969 0.80949 0.27894 0.0
C419 C 0.45476 0.81715 0.20338 0.0
C420 C 0.45039 0.81 0.22834 0.0
H421 H 0.47636 0.81427 0.35341 0.0
H422 H 0.46213 0.79736 0.31651 0.0
H423 H 0.42463 0.81055 0.27511 0.0
H424 H 0.46236 0.85552 0.17353 0.0
H425 H 0.4478 0.83836 0.2097 0.0
C426 C 0.6021 0.49552 0.85741 0.0
C427 C 0.61841 0.50377 0.87076 0.0
C428 C 0.60213 0.49065 0.83346 0.0
C429 C 0.63102 0.48758 0.78449 0.0
H430 H 0.60292 0.50277 0.74538 0.0
C431 C 0.64558 0.50971 0.68426 0.0
C432 C 0.6305 0.50619 0.66977 0.0
C433 C 0.64298 0.50439 0.70846 0.0
C434 C 0.61058 0.49809 0.75595 0.0
H435 H 0.64733 0.51233 0.87007 0.0
H436 H 0.6476 0.50454 0.82792 0.0
H437 H 0.60021 0.5025 0.78859 0.0
H438 H 0.60081 0.49262 0.66846 0.0
H439 H 0.59629 0.48308 0.71035 0.0
H440 H 0.64203 0.48409 0.75136 0.0
C441 C 0.63466 0.50142 0.83602 0.0
C442 C 0.60899 0.49789 0.78086 0.0
C443 C 0.63454 0.50597 0.86018 0.0
C444 C 0.61273 0.49583 0.67929 0.0
C445 C 0.61014 0.4904 0.70331 0.0
C446 C 0.63272 0.48791 0.75939 0.0
C447 C 0.61858 0.49433 0.82212 0.0
C448 C 0.61928 0.49278 0.79553 0.0
C449 C 0.62525 0.49536 0.71845 0.0
C450 C 0.62259 0.49331 0.74489 0.0
H451 H 0.58939 0.49338 0.86524 0.0
H452 H 0.58937 0.48468 0.82355 0.0
H453 H 0.63904 0.48343 0.79521 0.0
H454 H 0.65944 0.51765 0.67742 0.0
H455 H 0.65491 0.50844 0.71967 0.0
C456 C 0.16315 0.65659 0.32904 0.0
C457 C 0.14843 0.63875 0.33283 0.0
C458 C 0.17272 0.66125 0.30724 0.0
C459 C 0.17693 0.64215 0.24852 0.0
H460 H 0.16881 0.67994 0.22184 0.0
C461 C 0.14064 0.63434 0.16133 0.0
C462 C 0.14315 0.64953 0.14795 0.0
C463 C 0.15134 0.63666 0.18152 0.0
C464 C 0.17182 0.66976 0.22887 0.0
H465 H 0.13365 0.61133 0.318 0.0
H466 H 0.15018 0.61939 0.28016 0.0
H467 H 0.17017 0.67726 0.26501 0.0
H468 H 0.15992 0.67897 0.14397 0.0
H469 H 0.17857 0.6831 0.17972 0.0
H470 H 0.1771 0.63378 0.21225 0.0
C471 C 0.15439 0.62986 0.29385 0.0
C472 C 0.1726 0.66821 0.25376 0.0
C473 C 0.14473 0.62526 0.31547 0.0
C474 C 0.15758 0.66702 0.15408 0.0
C475 C 0.16824 0.66938 0.17452 0.0
C476 C 0.17621 0.64374 0.22361 0.0
C477 C 0.16787 0.64808 0.28902 0.0
C478 C 0.17388 0.65361 0.26382 0.0
C479 C 0.16476 0.65427 0.18895 0.0
C480 C 0.17233 0.65674 0.21363 0.0
H481 H 0.16643 0.66727 0.34217 0.0
H482 H 0.18315 0.67536 0.30408 0.0
H483 H 0.17834 0.63101 0.25581 0.0
H484 H 0.1298 0.62065 0.15685 0.0
H485 H 0.14809 0.62472 0.1923 0.0
C486 C 0.52817 0.16959 0.81434 0.0
C487 C 0.5269 0.15247 0.81772 0.0
C488 C 0.53415 0.17874 0.79233 0.0
C489 C 0.55145 0.1757 0.73139 0.0
H490 H 0.50972 0.17942 0.70974 0.0
C491 C 0.51061 0.1401 0.64961 0.0
C492 C 0.50026 0.14634 0.63725 0.0
C493 C 0.52224 0.15038 0.66825 0.0
C494 C 0.52187 0.17908 0.71532 0.0
H495 H 0.53312 0.1327 0.80194 0.0
H496 H 0.54326 0.14839 0.76376 0.0
H497 H 0.51636 0.18109 0.75224 0.0
H498 H 0.49511 0.16894 0.63332 0.0
H499 H 0.51528 0.18685 0.66646 0.0
H500 H 0.55587 0.17203 0.6944 0.0
C501 C 0.53969 0.15487 0.77788 0.0
C502 C 0.52571 0.18005 0.73983 0.0
C503 C 0.53364 0.14571 0.79975 0.0
C504 C 0.50283 0.16374 0.64269 0.0
C505 C 0.51436 0.17398 0.66162 0.0
C506 C 0.54759 0.17471 0.70684 0.0
C507 C 0.53907 0.17097 0.77345 0.0
C508 C 0.53971 0.17702 0.74822 0.0
C509 C 0.52369 0.16708 0.67513 0.0
C510 C 0.53195 0.17505 0.69877 0.0
H511 H 0.52327 0.17528 0.82795 0.0
H512 H 0.53376 0.19124 0.78955 0.0
H513 H 0.56263 0.17378 0.7373 0.0
H514 H 0.50913 0.12686 0.64559 0.0
H515 H 0.52901 0.14451 0.67841 0.0
C516 C 0.53001 0.68131 0.66435 0.0
C517 C 0.53053 0.66564 0.65692 0.0
C518 C 0.52411 0.68227 0.68757 0.0
C519 C 0.50194 0.65436 0.74246 0.0
H520 H 0.53891 0.69705 0.77645 0.0
C521 C 0.52611 0.65177 0.8367 0.0
C522 C 0.53083 0.66624 0.85283 0.0
C523 C 0.52026 0.65248 0.81352 0.0
C524 C 0.52817 0.68524 0.76722 0.0
H525 H 0.5239 0.63819 0.66725 0.0
H526 H 0.51384 0.6399 0.70744 0.0
H527 H 0.53865 0.69694 0.7327 0.0
H528 H 0.53249 0.69253 0.85769 0.0
H529 H 0.52267 0.694 0.81664 0.0
H530 H 0.49236 0.64219 0.77709 0.0
C531 C 0.51788 0.65145 0.69551 0.0
C532 C 0.52799 0.68518 0.74211 0.0
C533 C 0.52386 0.65054 0.67249 0.0
C534 C 0.52894 0.68118 0.84559 0.0
C535 C 0.52336 0.68204 0.82216 0.0
C536 C 0.50219 0.65439 0.76754 0.0
C537 C 0.51845 0.6675 0.7036 0.0
C538 C 0.51544 0.66939 0.72948 0.0
C539 C 0.51922 0.66779 0.80583 0.0
C540 C 0.51585 0.6695 0.7801 0.0
H541 H 0.53499 0.69315 0.65271 0.0
H542 H 0.52457 0.69476 0.69324 0.0
H543 H 0.49185 0.64214 0.73322 0.0
H544 H 0.52728 0.64 0.84182 0.0
H545 H 0.51742 0.64141 0.80123 0.0
C546 C 0.81855 0.52864 0.34545 0.0
C547 C 0.82968 0.52094 0.34994 0.0
C548 C 0.80774 0.52386 0.32465 0.0
C549 C 0.79359 0.49305 0.27074 0.0
H550 H 0.81142 0.53856 0.2357 0.0
C551 C 0.8283 0.50695 0.18099 0.0
C552 C 0.82762 0.51919 0.16454 0.0
C553 C 0.81817 0.50248 0.20221 0.0
C554 C 0.80574 0.52563 0.24517 0.0
H555 H 0.83669 0.50079 0.33795 0.0
H556 H 0.81802 0.49245 0.30203 0.0
H557 H 0.81162 0.53893 0.27928 0.0
H558 H 0.81487 0.53541 0.15647 0.0
H559 H 0.79749 0.528 0.19421 0.0
H560 H 0.78945 0.48008 0.23641 0.0
C561 C 0.81748 0.50216 0.31425 0.0
C562 C 0.80583 0.52583 0.27027 0.0
C563 C 0.82839 0.50708 0.33475 0.0
C564 C 0.81563 0.52593 0.16891 0.0
C565 C 0.80571 0.52172 0.19046 0.0
C566 C 0.79361 0.49288 0.24564 0.0
C567 C 0.80775 0.51114 0.30829 0.0
C568 C 0.80099 0.50973 0.28327 0.0
C569 C 0.80735 0.51039 0.20764 0.0
C570 C 0.80087 0.50935 0.23268 0.0
H571 H 0.81927 0.53935 0.35695 0.0
H572 H 0.80027 0.5309 0.32065 0.0
H573 H 0.78935 0.48036 0.28029 0.0
H574 H 0.83732 0.50145 0.17796 0.0
H575 H 0.81994 0.49391 0.21518 0.0
C576 C 0.29079 0.82682 0.65783 0.0
C577 C 0.30838 0.84143 0.65247 0.0
C578 C 0.28777 0.81664 0.67894 0.0
C579 C 0.31124 0.80963 0.73128 0.0
H580 H 0.27855 0.81973 0.76882 0.0
C581 C 0.33093 0.84517 0.8199 0.0
C582 C 0.31777 0.84441 0.83608 0.0
C583 C 0.32559 0.834 0.79964 0.0
C584 C 0.2873 0.81612 0.75877 0.0
H585 H 0.33689 0.85562 0.66341 0.0
H586 H 0.33173 0.83789 0.6999 0.0
H587 H 0.27657 0.81914 0.72542 0.0
H588 H 0.28885 0.82991 0.84517 0.0
H589 H 0.27945 0.81033 0.80953 0.0
H590 H 0.32286 0.80795 0.76471 0.0
C591 C 0.32021 0.83423 0.68805 0.0
C592 C 0.28616 0.8158 0.73374 0.0
C593 C 0.32315 0.84456 0.66727 0.0
C594 C 0.29929 0.83094 0.83286 0.0
C595 C 0.29391 0.81976 0.81242 0.0
C596 C 0.31229 0.8098 0.75635 0.0
C597 C 0.30238 0.82072 0.69468 0.0
C598 C 0.29901 0.8139 0.71978 0.0
C599 C 0.30693 0.82181 0.79499 0.0
C600 C 0.30127 0.81446 0.77026 0.0
H601 H 0.27917 0.82409 0.64665 0.0
H602 H 0.27391 0.80629 0.68362 0.0
H603 H 0.32108 0.80778 0.72091 0.0
H604 H 0.34532 0.8552 0.82209 0.0
H605 H 0.33605 0.83614 0.78663 0.0
C606 C 0.50886 0.34691 0.30235 0.0
C607 C 0.49552 0.33585 0.31925 0.0
C608 C 0.51014 0.33958 0.28039 0.0
C609 C 0.48754 0.29575 0.24388 0.0
H610 H 0.49461 0.32983 0.19266 0.0
C611 C 0.44376 0.28492 0.15984 0.0
C612 C 0.45273 0.29029 0.13758 0.0
C613 C 0.45371 0.2869 0.18075 0.0
C614 C 0.493 0.32022 0.20669 0.0
H615 H 0.47387 0.30827 0.32726 0.0
H616 H 0.47508 0.29578 0.28871 0.0
H617 H 0.5046 0.34129 0.23287 0.0
H618 H 0.47886 0.30114 0.11932 0.0
H619 H 0.4965 0.30554 0.15633 0.0
H620 H 0.47381 0.27455 0.21754 0.0
C621 C 0.48517 0.30991 0.29232 0.0
C622 C 0.49882 0.32677 0.2299 0.0
C623 C 0.48433 0.31711 0.31454 0.0
C624 C 0.47165 0.29673 0.13632 0.0
C625 C 0.48172 0.29924 0.15737 0.0
C626 C 0.4812 0.28918 0.22072 0.0
C627 C 0.49759 0.3212 0.27448 0.0
C628 C 0.49548 0.31458 0.24911 0.0
C629 C 0.47284 0.29475 0.17976 0.0
C630 C 0.48339 0.30137 0.20221 0.0
H631 H 0.51785 0.36137 0.30576 0.0
H632 H 0.5204 0.34861 0.26763 0.0
H633 H 0.48527 0.28593 0.25787 0.0
H634 H 0.42919 0.27998 0.16119 0.0
H635 H 0.44666 0.28362 0.1979 0.0
C636 C 0.15627 0.45557 0.65936 0.0
C637 C 0.15058 0.46527 0.64463 0.0
C638 C 0.16518 0.46318 0.68111 0.0
C639 C 0.16307 0.49399 0.72502 0.0
H640 H 0.19261 0.48026 0.76352 0.0
C641 C 0.1587 0.4976 0.82534 0.0
C642 C 0.155 0.48136 0.83693 0.0
C643 C 0.16693 0.50182 0.8027 0.0
C644 C 0.18441 0.48429 0.75299 0.0
H645 H 0.15132 0.49101 0.63925 0.0
H646 H 0.16774 0.50474 0.67651 0.0
H647 H 0.19154 0.47638 0.71985 0.0
H648 H 0.15821 0.45751 0.83522 0.0
H649 H 0.1716 0.46422 0.79505 0.0
H650 H 0.15484 0.50072 0.7577 0.0
C651 C 0.16483 0.49107 0.6719 0.0
C652 C 0.18382 0.48209 0.72797 0.0
C653 C 0.15558 0.48331 0.6505 0.0
C654 C 0.16104 0.47017 0.82656 0.0
C655 C 0.1688 0.4741 0.80355 0.0
C656 C 0.16359 0.49611 0.74984 0.0
C657 C 0.16864 0.48066 0.6882 0.0
C658 C 0.17265 0.48638 0.7138 0.0
C659 C 0.1709 0.48948 0.79081 0.0
C660 C 0.17376 0.49074 0.7643 0.0
H661 H 0.15236 0.44155 0.65516 0.0
H662 H 0.16781 0.45471 0.69322 0.0
H663 H 0.15398 0.49709 0.7149 0.0
H664 H 0.15428 0.50651 0.83321 0.0
H665 H 0.16893 0.51411 0.7938 0.0
C666 C 0.68066 0.15436 0.33069 0.0
C667 C 0.66343 0.14513 0.34179 0.0
C668 C 0.68285 0.16367 0.30905 0.0
C669 C 0.653 0.15757 0.25811 0.0
H670 H 0.69919 0.19147 0.22777 0.0
C671 C 0.65828 0.15047 0.15945 0.0
C672 C 0.67305 0.14788 0.15388 0.0
C673 C 0.65869 0.15998 0.18015 0.0
C674 C 0.68613 0.1821 0.23599 0.0
H675 H 0.63563 0.14013 0.34117 0.0
H676 H 0.63967 0.15739 0.30428 0.0
H677 H 0.69673 0.19053 0.2716 0.0
H678 H 0.70052 0.15459 0.16389 0.0
H679 H 0.70093 0.17028 0.20083 0.0
H680 H 0.6426 0.14824 0.22309 0.0
C681 C 0.65131 0.15679 0.31143 0.0
C682 C 0.68472 0.18154 0.26111 0.0
C683 C 0.64899 0.14702 0.33262 0.0
C684 C 0.68899 0.15649 0.16789 0.0
C685 C 0.68922 0.16557 0.18903 0.0
C686 C 0.65438 0.15817 0.23319 0.0
C687 C 0.66787 0.16412 0.29847 0.0
C688 C 0.66837 0.1686 0.27248 0.0
C689 C 0.67358 0.16637 0.19616 0.0
C690 C 0.67119 0.16979 0.22179 0.0
H691 H 0.69195 0.15298 0.33753 0.0
H692 H 0.69579 0.16903 0.29966 0.0
H693 H 0.64022 0.1472 0.26594 0.0
H694 H 0.64592 0.14408 0.14864 0.0
H695 H 0.64666 0.16089 0.18467 0.0
C696 C 0.1876 0.46841 0.95233 0.0
C697 C 0.17068 0.45993 0.96444 0.0
C698 C 0.20333 0.47031 0.96346 0.0
C699 C 0.2228 0.46908 0.02263 0.0
H700 H 0.25343 0.45628 0.9848 0.0
C701 C 0.27425 0.45118 0.06501 0.0
C702 C 0.2909 0.45663 0.05304 0.0
C703 C 0.26084 0.45407 0.05457 0.0
C704 C 0.24523 0.46021 0.99553 0.0
H705 H 0.15708 0.44717 -0.00206 0.0
H706 H 0.18446 0.4503 0.01723 0.0
H707 H 0.22762 0.45674 0.96591 0.0
H708 H 0.30681 0.47 0.02112 0.0
H709 H 0.28343 0.47521 0.00299 0.0
H710 H 0.24026 0.47224 0.05236 0.0
C711 C 0.18563 0.45568 -0.00076 0.0
C712 C 0.23041 0.46046 0.98469 0.0
C713 C 0.1699 0.45379 0.98812 0.0
C714 C 0.29408 0.46554 0.03074 0.0
C715 C 0.28065 0.46844 0.02029 0.0
C716 C 0.23764 0.46885 0.03347 0.0
C717 C 0.20248 0.46378 0.98693 0.0
C718 C 0.21889 0.46468 -0.00182 0.0
C719 C 0.26378 0.4625 0.03195 0.0
C720 C 0.24889 0.46419 0.0201 0.0
H721 H 0.1887 0.4734 0.93412 0.0
H722 H 0.21615 0.47685 0.95362 0.0
H723 H 0.21436 0.47267 0.03341 0.0
H724 H 0.27135 0.44428 0.08222 0.0
H725 H 0.24792 0.44912 0.0639 0.0
C726 C 0.7025 0.17764 0.45796 0.0
C727 C 0.70596 0.1631 0.46123 0.0
C728 C 0.71382 0.19464 0.46864 0.0
C729 C 0.74859 0.21757 0.51622 0.0
H730 H 0.76565 0.26055 0.47577 0.0
C731 C 0.79991 0.28911 0.5517 0.0
C732 C 0.81499 0.29963 0.53659 0.0
C733 C 0.78445 0.27354 0.54294 0.0
C734 C 0.761 0.24868 0.48728 0.0
H735 H 0.72364 0.15486 0.47887 0.0
H736 H 0.74343 0.18452 0.49734 0.0
H737 H 0.7427 0.23062 0.46045 0.0
H738 H 0.82524 0.30262 0.50013 0.0
H739 H 0.79833 0.27533 0.48491 0.0
H740 H 0.76739 0.23545 0.54268 0.0
C741 C 0.73189 0.18274 0.48669 0.0
C742 C 0.74772 0.23157 0.47861 0.0
C743 C 0.72061 0.16576 0.47599 0.0
C744 C 0.81387 0.29479 0.51224 0.0
C745 C 0.7984 0.27919 0.50349 0.0
C746 C 0.76183 0.23466 0.52489 0.0
C747 C 0.72877 0.19744 0.48287 0.0
C748 C 0.74161 0.21579 0.49285 0.0
C749 C 0.78372 0.26814 0.5189 0.0
C750 C 0.7684 0.25036 0.51039 0.0
H751 H 0.69127 0.17601 0.44677 0.0
H752 H 0.71094 0.20563 0.46561 0.0
H753 H 0.74401 0.2057 0.52771 0.0
H754 H 0.80025 0.29257 0.5705 0.0
H755 H 0.77321 0.2655 0.55514 0.0
C756 C 0.5029 0.79176 0.07373 0.0
C757 C 0.49645 0.80359 0.06713 0.0
C758 C 0.5006 0.7777 0.05838 0.0
C759 C 0.49485 0.76637 0.99405 0.0
H760 H 0.49342 0.72243 0.01753 0.0
C761 C 0.5058 0.70248 0.96072 0.0
C762 C 0.52142 0.71277 0.9464 0.0
C763 C 0.49747 0.71099 0.97264 0.0
C764 C 0.49343 0.73439 0.01046 0.0
H765 H 0.48141 0.80921 0.04004 0.0
H766 H 0.47699 0.78434 0.01347 0.0
H767 H 0.48725 0.74105 0.04498 0.0
H768 H 0.53996 0.73985 0.93227 0.0
H769 H 0.52591 0.75478 0.95356 0.0
H770 H 0.50095 0.75967 0.95951 0.0
C771 C 0.48427 0.78624 0.03021 0.0
C772 C 0.49015 0.74524 0.02635 0.0
C773 C 0.48673 0.80043 0.04549 0.0
C774 C 0.52795 0.73154 0.9432 0.0
C775 C 0.51977 0.74008 0.9553 0.0
C776 C 0.4979 0.7554 0.9781 0.0
C777 C 0.49161 0.77501 0.03618 0.0
C778 C 0.49155 0.76174 0.01855 0.0
C779 C 0.50471 0.73001 0.97066 0.0
C780 C 0.49796 0.73967 0.98631 0.0
H781 H 0.51045 0.79382 0.09028 0.0
H782 H 0.5067 0.76953 0.06346 0.0
H783 H 0.49611 0.779 0.98736 0.0
H784 H 0.5003 0.68792 0.96328 0.0
H785 H 0.48567 0.70275 0.98392 0.0
C786 C 0.73086 0.5529 0.60312 0.0
C787 C 0.71296 0.54058 0.59533 0.0
C788 C 0.74591 0.55298 0.59242 0.0
C789 C 0.75956 0.52687 0.5516 0.0
H790 H 0.79879 0.57526 0.53395 0.0
C791 C 0.81171 0.53954 0.47611 0.0
C792 C 0.83006 0.55314 0.47987 0.0
C793 C 0.79814 0.53702 0.49265 0.0
C794 C 0.78811 0.56165 0.53903 0.0
H795 H 0.69677 0.51793 0.5712 0.0
H796 H 0.72296 0.51825 0.55234 0.0
H797 H 0.77396 0.57219 0.55947 0.0
H798 H 0.84861 0.57454 0.50418 0.0
H799 H 0.82494 0.5701 0.533 0.0
H800 H 0.77356 0.51639 0.53051 0.0
C801 C 0.72542 0.52776 0.56684 0.0
C802 C 0.77388 0.55988 0.55374 0.0
C803 C 0.71038 0.52765 0.57758 0.0
C804 C 0.83459 0.564 0.50067 0.0
C805 C 0.82102 0.56151 0.51716 0.0
C806 C 0.77379 0.52865 0.5368 0.0
C807 C 0.74338 0.54075 0.57368 0.0
C808 C 0.75932 0.54248 0.55996 0.0
C809 C 0.80264 0.54807 0.51326 0.0
C810 C 0.7881 0.54607 0.53014 0.0
H811 H 0.73331 0.56293 0.61691 0.0
H812 H 0.75956 0.56292 0.59843 0.0
H813 H 0.74868 0.51327 0.55632 0.0
H814 H 0.80778 0.53093 0.46028 0.0
H815 H 0.78406 0.52669 0.489 0.0
C816 C 0.2848 0.83222 0.98368 0.0
C817 C 0.28213 0.83506 0.95948 0.0
C818 C 0.27139 0.81696 -0.00386 0.0
C819 C 0.23041 0.77117 0.98665 0.0
H820 H 0.2185 0.77746 0.05197 0.0
C821 C 0.1756 0.71064 0.04237 0.0
C822 C 0.16368 0.71415 0.05607 0.0
C823 C 0.19116 0.72502 0.0316 0.0
C824 C 0.2216 0.77549 0.03369 0.0
H825 H 0.26331 0.8241 0.92939 0.0
H826 H 0.23987 0.79779 0.95118 0.0
H827 H 0.24341 0.80324 0.03092 0.0
H828 H 0.15875 0.7355 0.06929 0.0
H829 H 0.1856 0.76048 0.05017 0.0
H830 H 0.20814 0.74363 0.98906 0.0
C831 C 0.25243 0.80711 0.96045 0.0
C832 C 0.23604 0.79021 0.02173 0.0
C833 C 0.26583 0.8223 0.948 0.0
C834 C 0.16769 0.73233 0.05891 0.0
C835 C 0.18317 0.74668 0.04808 0.0
C836 C 0.21594 0.75646 -0.00143 0.0
C837 C 0.25503 0.80426 0.98468 0.0
C838 C 0.24047 0.78829 -0.00204 0.0
C839 C 0.19508 0.74321 0.03425 0.0
C840 C 0.21121 0.75851 0.02214 0.0
H841 H 0.29725 0.84175 0.99301 0.0
H842 H 0.27391 0.81506 0.01471 0.0
H843 H 0.23364 0.76914 0.96847 0.0
H844 H 0.17295 0.69678 0.03996 0.0
H845 H 0.20016 0.7219 0.02132 0.0
C846 C 0.47943 0.1864 0.53232 0.0
C847 C 0.47075 0.16973 0.51971 0.0
C848 C 0.48143 0.20234 0.52187 0.0
C849 C 0.47917 0.22321 0.46434 0.0
H850 H 0.46502 0.25127 0.50534 0.0
C851 C 0.48205 0.28981 0.43252 0.0
C852 C 0.4668 0.29166 0.4383 0.0
C853 C 0.48409 0.2758 0.44268 0.0
C854 C 0.46895 0.24355 0.49365 0.0
H855 H 0.45824 0.15694 0.48578 0.0
H856 H 0.46158 0.18475 0.46763 0.0
H857 H 0.4664 0.22528 0.52194 0.0
H858 H 0.44185 0.28037 0.45949 0.0
H859 H 0.44538 0.25586 0.47712 0.0
H860 H 0.48116 0.2412 0.43587 0.0
C861 C 0.46694 0.18551 0.48554 0.0
C862 C 0.46997 0.22879 0.50322 0.0
C863 C 0.46495 0.16955 0.49599 0.0
C864 C 0.45377 0.27934 0.45469 0.0
C865 C 0.45584 0.26536 0.46489 0.0
C866 C 0.47819 0.23802 0.45478 0.0
C867 C 0.47479 0.20197 0.4986 0.0
C868 C 0.47493 0.21836 0.48863 0.0
C869 C 0.47098 0.26338 0.4589 0.0
C870 C 0.47288 0.24822 0.46928 0.0
H871 H 0.48422 0.18706 0.55055 0.0
H872 H 0.48786 0.2149 0.53221 0.0
H873 H 0.48316 0.21551 0.4527 0.0
H874 H 0.49238 0.2991 0.41999 0.0
H875 H 0.49601 0.27475 0.43794 0.0
C876 C 0.80844 0.52313 0.00939 0.0
C877 C 0.80915 0.52511 0.03451 0.0
C878 C 0.7922 0.51819 -0.00308 0.0
C879 C 0.74212 0.49772 0.00467 0.0
H880 H 0.74597 0.52873 0.95096 0.0
C881 C 0.68233 0.50698 0.97324 0.0
C882 C 0.68119 0.51083 0.94894 0.0
C883 C 0.69685 0.50488 0.98136 0.0
C884 C 0.7446 0.51963 0.96555 0.0
H885 H 0.79324 0.52291 0.06632 0.0
H886 H 0.765 0.51433 0.04459 0.0
H887 H 0.7737 0.53223 0.96946 0.0
H888 H 0.69366 0.51418 0.91379 0.0
H889 H 0.71881 0.51016 0.92792 0.0
H890 H 0.71301 0.48536 0.00109 0.0
C891 C 0.77694 0.5165 0.03453 0.0
C892 C 0.76053 0.52168 0.97619 0.0
C893 C 0.79318 0.52158 0.04695 0.0
C894 C 0.69426 0.51143 0.93269 0.0
C895 C 0.70874 0.50923 0.9408 0.0
C896 C 0.72617 0.49558 0.99394 0.0
C897 C 0.77633 0.51495 0.00937 0.0
C898 C 0.75946 0.51107 -0.00377 0.0
C899 C 0.71049 0.50645 0.96535 0.0
C900 C 0.72723 0.50683 0.97463 0.0
H901 H 0.8205 0.5257 -0.00071 0.0
H902 H 0.79208 0.51698 0.97754 0.0
H903 H 0.74089 0.48915 0.01987 0.0
H904 H 0.67247 0.50641 0.98623 0.0
H905 H 0.69784 0.50295 0.00043 0.0
C906 C 0.19254 0.71056 0.40791 0.0
C907 C 0.17919 0.69591 0.42154 0.0
C908 C 0.20729 0.72539 0.41919 0.0
C909 C 0.23226 0.7412 0.47718 0.0
H910 H 0.24249 0.78892 0.45468 0.0
C911 C 0.26767 0.80635 0.53517 0.0
C912 C 0.28016 0.82295 0.52403 0.0
C913 C 0.25778 0.79046 0.52158 0.0
C914 C 0.24004 0.77572 0.46094 0.0
H915 H 0.17123 0.68495 0.45759 0.0
H916 H 0.19676 0.71098 0.47732 0.0
H917 H 0.22087 0.76161 0.43279 0.0
H918 H 0.29245 0.83577 0.48997 0.0
H919 H 0.27508 0.80795 0.46622 0.0
H920 H 0.25105 0.75541 0.50583 0.0
C921 C 0.196 0.71092 0.45789 0.0
C922 C 0.22766 0.76005 0.44838 0.0
C923 C 0.18129 0.69604 0.44659 0.0
C924 C 0.28286 0.82322 0.49908 0.0
C925 C 0.27289 0.80732 0.48546 0.0
C926 C 0.24461 0.75689 0.48981 0.0
C927 C 0.20897 0.72593 0.44435 0.0
C928 C 0.22341 0.74258 0.45655 0.0
C929 C 0.2601 0.79082 0.49655 0.0
C930 C 0.24841 0.77429 0.48201 0.0
H931 H 0.19142 0.71078 0.38854 0.0
H932 H 0.21723 0.73658 0.40821 0.0
H933 H 0.22951 0.72797 0.48372 0.0
H934 H 0.26531 0.80566 0.55438 0.0
H935 H 0.24787 0.77801 0.53061 0.0
C936 C 0.52002 0.19575 0.92969 0.0
C937 C 0.50973 0.17902 0.94182 0.0
C938 C 0.52192 0.21189 0.93936 0.0
C939 C 0.51079 0.23099 0.99356 0.0
H940 H 0.50124 0.25845 0.94553 0.0
C941 C 0.48469 0.27921 0.02185 0.0
C942 C 0.46962 0.27711 0.00843 0.0
C943 C 0.49567 0.27239 0.01319 0.0
C944 C 0.5039 0.25095 0.95921 0.0
H945 H 0.49445 0.16623 0.97432 0.0
H946 H 0.49705 0.19404 0.99071 0.0
H947 H 0.50965 0.23616 0.93289 0.0
H948 H 0.45486 0.26715 0.97487 0.0
H949 H 0.47345 0.25468 0.96017 0.0
H950 H 0.50335 0.24455 0.0198 0.0
C951 C 0.50408 0.19497 0.97402 0.0
C952 C 0.50905 0.23832 0.95196 0.0
C953 C 0.50244 0.17891 0.96453 0.0
C954 C 0.46636 0.26896 0.98565 0.0
C955 C 0.47717 0.26194 0.97713 0.0
C956 C 0.50534 0.2434 0.00079 0.0
C957 C 0.51331 0.21156 0.96117 0.0
C958 C 0.51183 0.22763 0.96903 0.0
C959 C 0.49168 0.26313 0.99106 0.0
C960 C 0.5011 0.25298 0.98365 0.0
H961 H 0.52605 0.19628 0.91229 0.0
H962 H 0.52953 0.22447 0.92926 0.0
H963 H 0.51329 0.22336 0.00723 0.0
H964 H 0.48771 0.28568 0.03936 0.0
H965 H 0.50696 0.2739 0.02417 0.0
C966 C 0.18039 0.45092 0.52957 0.0
C967 C 0.16414 0.44686 0.51745 0.0
C968 C 0.19631 0.45529 0.51674 0.0
C969 C 0.21201 0.44878 0.45812 0.0
H970 H 0.25937 0.48806 0.47913 0.0
C971 C 0.27796 0.46808 0.40507 0.0
C972 C 0.29352 0.47168 0.41855 0.0
C973 C 0.26247 0.46663 0.41635 0.0
C974 C 0.24628 0.47694 0.47316 0.0
H975 H 0.15194 0.44437 0.48233 0.0
H976 H 0.1798 0.45193 0.4599 0.0
H977 H 0.23165 0.48247 0.50029 0.0
H978 H 0.30516 0.47697 0.45439 0.0
H979 H 0.27802 0.4741 0.47415 0.0
H980 H 0.22656 0.44292 0.43137 0.0
C981 C 0.18013 0.45164 0.47935 0.0
C982 C 0.2304 0.47377 0.48525 0.0
C983 C 0.16421 0.44738 0.4922 0.0
C984 C 0.29341 0.47422 0.44349 0.0
C985 C 0.27787 0.47267 0.4548 0.0
C986 C 0.22787 0.45188 0.44611 0.0
C987 C 0.19634 0.4556 0.4915 0.0
C988 C 0.21311 0.45957 0.47796 0.0
C989 C 0.26213 0.46865 0.44139 0.0
C990 C 0.24522 0.46592 0.45358 0.0
H991 H 0.18082 0.45067 0.54901 0.0
H992 H 0.20852 0.45806 0.52659 0.0
H993 H 0.1989 0.43757 0.4523 0.0
H994 H 0.27765 0.4662 0.38579 0.0
H995 H 0.25073 0.46386 0.40542 0.0
C996 C 0.82279 0.26907 0.93362 0.0
C997 C 0.82381 0.28609 0.93661 0.0
C998 C 0.80865 0.25334 0.94427 0.0
C999 C 0.76235 0.23332 0.96992 0.0
H1000 H 0.77636 0.20248 0.00503 0.0
C1001 C 0.73049 0.17204 0.0448 0.0
C1002 C 0.71377 0.15941 0.03407 0.0
C1003 C 0.74341 0.18735 0.03209 0.0
C1004 C 0.77225 0.21099 0.99534 0.0
H1005 H 0.8105 0.29989 0.95256 0.0
H1006 H 0.78571 0.27232 0.97117 0.0
H1007 H 0.79972 0.22952 0.98402 0.0
H1008 H 0.69735 0.15313 0.0017 0.0
H1009 H 0.71999 0.18007 0.97949 0.0
H1010 H 0.73484 0.21477 0.9815 0.0
C1011 C 0.79588 0.27119 0.96053 0.0
C1012 C 0.78558 0.22636 0.98314 0.0
C1013 C 0.81012 0.28698 0.95 0.0
C1014 C 0.71014 0.16257 0.01043 0.0
C1015 C 0.72303 0.17803 -0.00223 0.0
C1016 C 0.74895 0.21781 0.98197 0.0
C1017 C 0.79515 0.25427 0.95801 0.0
C1018 C 0.7808 0.23774 0.97041 0.0
C1019 C 0.73984 0.19048 0.00843 0.0
C1020 C 0.75382 0.20658 0.99494 0.0
H1021 H 0.83307 0.26788 0.92333 0.0
H1022 H 0.8083 0.24044 0.9418 0.0
H1023 H 0.75828 0.2418 0.96011 0.0
H1024 H 0.7337 0.17004 0.063 0.0
H1025 H 0.75617 0.19685 0.04084 0.0
C1026 C 0.48721 0.79784 0.45953 0.0
C1027 C 0.49821 0.81537 0.46932 0.0
C1028 C 0.4868 0.7826 0.47005 0.0
C1029 C 0.50281 0.76747 0.5236 0.0
H1030 H 0.50634 0.73522 0.47704 0.0
C1031 C 0.5212 0.71303 0.55263 0.0
C1032 C 0.53359 0.7111 0.5377 0.0
C1033 C 0.51296 0.72296 0.54488 0.0
C1034 C 0.50548 0.74415 0.4903 0.0
H1035 H 0.51656 0.83056 0.49857 0.0
H1036 H 0.51643 0.80427 0.51633 0.0
H1037 H 0.49874 0.75794 0.4636 0.0
H1038 H 0.5469 0.71785 0.50286 0.0
H1039 H 0.53317 0.73574 0.48968 0.0
H1040 H 0.51095 0.7546 0.55003 0.0
C1041 C 0.50775 0.80206 0.50089 0.0
C1042 C 0.50077 0.75701 0.48264 0.0
C1043 C 0.50794 0.81723 0.49059 0.0
C1044 C 0.53735 0.71904 0.51474 0.0
C1045 C 0.52933 0.72918 0.50711 0.0
C1046 C 0.50778 0.75478 0.53121 0.0
C1047 C 0.4976 0.78462 0.49036 0.0
C1048 C 0.49983 0.76917 0.4991 0.0
C1049 C 0.51713 0.73139 0.52215 0.0
C1050 C 0.50965 0.74328 0.51455 0.0
H1051 H 0.47936 0.79596 0.4433 0.0
H1052 H 0.47846 0.76932 0.46179 0.0
H1053 H 0.50185 0.77634 0.53687 0.0
H1054 H 0.51787 0.70688 0.57035 0.0
H1055 H 0.5034 0.72409 0.55678 0.0
C1056 C 0.36532 0.40846 0.06683 0.0
C1057 C 0.35256 0.40944 0.05163 0.0
C1058 C 0.37056 0.3954 0.06303 0.0
C1059 C 0.36896 0.35924 0.06273 0.0
H1060 H 0.37669 0.34399 0.0002 0.0
C1061 C 0.3851 0.30151 0.05672 0.0
C1062 C 0.39937 0.30431 0.04119 0.0
C1063 C 0.37687 0.31227 0.05477 0.0
C1064 C 0.37464 0.34815 0.0178 0.0
H1065 H 0.33563 0.39773 0.01998 0.0
H1066 H 0.34442 0.37446 0.01369 0.0
H1067 H 0.36873 0.36812 0.003 0.0
H1068 H 0.41574 0.31986 0.01067 0.0
H1069 H 0.40192 0.33926 0.0078 0.0
H1070 H 0.37568 0.34015 0.07775 0.0
C1071 C 0.35063 0.38406 0.02835 0.0
C1072 C 0.36991 0.36185 0.01939 0.0
C1073 C 0.34554 0.39735 0.03201 0.0
C1074 C 0.40464 0.31737 0.02277 0.0
C1075 C 0.39668 0.32845 0.02112 0.0
C1076 C 0.37382 0.34575 0.06118 0.0
C1077 C 0.36292 0.38271 0.04416 0.0
C1078 C 0.36724 0.36771 0.04193 0.0
C1079 C 0.38311 0.32642 0.03765 0.0
C1080 C 0.37681 0.34005 0.03873 0.0
H1081 H 0.37109 0.41752 0.08203 0.0
H1082 H 0.38045 0.3951 0.07518 0.0
H1083 H 0.36663 0.3631 0.08039 0.0
H1084 H 0.38067 0.29138 0.07092 0.0
H1085 H 0.36607 0.30991 0.06731 0.0
C1086 C 0.05908 0.40361 0.54496 0.0
C1087 C 0.06769 0.4096 0.56743 0.0
C1088 C 0.04046 0.398 0.54226 0.0
C1089 C 0.00406 0.40381 0.56958 0.0
H1090 H 0.96998 0.35678 0.54151 0.0
C1091 C 0.92725 0.36779 0.5896 0.0
C1092 C 0.9146 0.35747 0.57158 0.0
C1093 C 0.94602 0.37549 0.58566 0.0
C1094 C 0.97934 0.37012 0.54897 0.0
H1095 H 0.06327 0.41364 0.60483 0.0
H1096 H 0.03113 0.4043 0.59997 0.0
H1097 H 0.00289 0.36763 0.54067 0.0
H1098 H 0.91176 0.34734 0.53511 0.0
H1099 H 0.94474 0.36101 0.52811 0.0
H1100 H 0.98069 0.40634 0.57815 0.0
C1101 C 0.03879 0.40418 0.58439 0.0
C1102 C -0.00183 0.37629 0.54852 0.0
C1103 C 0.05724 0.40955 0.58715 0.0
C1104 C 0.92118 0.35523 0.54936 0.0
C1105 C 0.94005 0.36297 0.54538 0.0
C1106 C 0.98532 0.39774 0.56987 0.0
C1107 C 0.03023 0.39849 0.56192 0.0
C1108 C 0.01062 0.39295 0.55944 0.0
C1109 C 0.95267 0.37311 0.56357 0.0
C1110 C 0.97268 0.38058 0.56021 0.0
H1111 H 0.06674 0.40341 0.52944 0.0
H1112 H 0.03415 0.39362 0.52475 0.0
H1113 H 0.01342 0.41688 0.57773 0.0
H1114 H 0.92267 0.36959 0.60704 0.0
H1115 H 0.95531 0.38287 0.60025 0.0
C1116 C 0.55692 0.91836 0.06492 0.0
C1117 C 0.54709 0.91134 0.08643 0.0
C1118 C 0.5696 0.93706 0.06266 0.0
C1119 C 0.58258 0.98194 0.08997 0.0
H1120 H 0.63034 -0.0024 0.06186 0.0
C1121 C 0.64362 0.05323 0.10708 0.0
C1122 C 0.65442 0.06316 0.08733 0.0
C1123 C 0.63051 0.03477 0.10478 0.0
C1124 C 0.61698 0.99343 0.06947 0.0
H1125 H 0.54297 0.9184 0.12248 0.0
H1126 H 0.56503 0.95082 0.11862 0.0
H1127 H 0.60695 0.96512 0.06159 0.0
H1128 H 0.66045 0.06133 0.04987 0.0
H1129 H 0.63748 0.0288 0.04591 0.0
H1130 H 0.59269 0.01012 0.09836 0.0
C1131 C 0.56275 0.942 0.10331 0.0
C1132 C 0.60358 0.97486 0.06929 0.0
C1133 C 0.55012 0.92337 0.10556 0.0
C1134 C 0.65229 0.05404 0.0654 0.0
C1135 C 0.63918 0.03545 0.06313 0.0
C1136 C 0.59595 0.00042 0.09024 0.0
C1137 C 0.57265 0.94908 0.08186 0.0
C1138 C 0.58635 0.96889 0.07997 0.0
C1139 C 0.62795 0.02575 0.08272 0.0
C1140 C 0.6134 0.00632 0.08042 0.0
H1141 H 0.55489 0.90942 0.04985 0.0
H1142 H 0.57691 0.94212 0.04584 0.0
H1143 H 0.56931 0.97784 0.09785 0.0
H1144 H 0.64518 0.05972 0.12438 0.0
H1145 H 0.62235 0.02754 0.12035 0.0
C1146 C 0.62474 0.56707 0.57262 0.0
C1147 C 0.6419 0.56924 0.56655 0.0
C1148 C 0.61897 0.57852 0.56269 0.0
C1149 C 0.63809 0.62518 0.54401 0.0
H1150 H 0.58763 0.6099 0.52788 0.0
C1151 C 0.58754 0.65803 0.53348 0.0
C1152 C 0.58947 0.66476 0.55702 0.0
C1153 C 0.596 0.648 0.52678 0.0
C1154 C 0.60187 0.61441 0.53177 0.0
H1155 H 0.66616 0.58466 0.54449 0.0
H1156 H 0.65621 0.60507 0.52764 0.0
H1157 H 0.59757 0.58716 0.52955 0.0
H1158 H 0.60238 0.66729 0.59155 0.0
H1159 H 0.61758 0.6504 0.57968 0.0
H1160 H 0.642 0.65216 0.54808 0.0
C1161 C 0.6472 0.59433 0.5399 0.0
C1162 C 0.60751 0.60141 0.5329 0.0
C1163 C 0.65285 0.58265 0.54955 0.0
C1164 C 0.60068 0.6622 0.57331 0.0
C1165 C 0.60947 0.65266 0.56647 0.0
C1166 C 0.63238 0.63811 0.54321 0.0
C1167 C 0.63034 0.59257 0.54674 0.0
C1168 C 0.62548 0.60658 0.53994 0.0
C1169 C 0.60689 0.64512 0.54336 0.0
C1170 C 0.61405 0.6327 0.53801 0.0
H1171 H 0.61596 0.55692 0.5856 0.0
H1172 H 0.60601 0.57702 0.56856 0.0
H1173 H 0.65198 0.62953 0.54964 0.0
H1174 H 0.57884 0.65976 0.52069 0.0
H1175 H 0.59375 0.64218 0.50891 0.0
C1176 C 0.91878 0.56892 0.09776 0.0
C1177 C 0.90738 0.56794 0.07874 0.0
C1178 C 0.93746 0.57568 0.09398 0.0
C1179 C 0.97586 0.60636 0.05601 0.0
H1180 H -0.00082 0.58106 0.08402 0.0
C1181 C 0.05441 0.63555 0.05063 0.0
C1182 C 0.06268 0.6345 0.07203 0.0
C1183 C 0.03529 0.62595 0.04828 0.0
C1184 C 0.99291 0.58836 0.0762 0.0
H1185 H 0.90674 0.57361 0.04082 0.0
H1186 H 0.93959 0.58578 0.03433 0.0
H1187 H 0.96594 0.5672 0.08597 0.0
H1188 H 0.05737 0.62258 0.10775 0.0
H1189 H 0.02429 0.60615 0.10381 0.0
H1190 H 0.00287 0.62788 0.04708 0.0
C1191 C 0.93393 0.58112 0.05212 0.0
C1192 C 0.97388 0.58038 0.07727 0.0
C1193 C 0.91514 0.57412 0.05584 0.0
C1194 C 0.05149 0.62351 0.09089 0.0
C1195 C 0.03245 0.614 0.08858 0.0
C1196 C -0.00504 0.61444 0.05512 0.0
C1197 C 0.94524 0.58186 0.07115 0.0
C1198 C 0.96519 0.58947 0.06764 0.0
C1199 C 0.02408 0.61515 0.06732 0.0
C1200 C 0.00374 0.60571 0.06569 0.0
H1201 H 0.91338 0.56461 0.1157 0.0
H1202 H 0.94591 0.57641 0.10908 0.0
H1203 H 0.96951 0.6137 0.04857 0.0
H1204 H 0.06268 0.6439 0.03576 0.0
H1205 H 0.02929 0.62701 0.03157 0.0
C1206 C 0.41073 0.06617 0.54694 0.0
C1207 C 0.41947 0.07383 0.56888 0.0
C1208 C 0.39905 0.04722 0.54484 0.0
C1209 C 0.38888 0.00387 0.57456 0.0
H1210 H 0.34208 0.98306 0.5417 0.0
C1211 C 0.33175 0.93091 0.59249 0.0
C1212 C 0.32349 0.9195 0.57256 0.0
C1213 C 0.34327 0.94967 0.58945 0.0
C1214 C 0.35522 0.98872 0.55066 0.0
H1215 H 0.42227 0.06778 0.60601 0.0
H1216 H 0.40187 0.03503 0.60248 0.0
H1217 H 0.36292 0.01629 0.54111 0.0
H1218 H 0.32009 0.91897 0.53387 0.0
H1219 H 0.34019 0.9521 0.52862 0.0
H1220 H 0.381 0.97647 0.58476 0.0
C1221 C 0.40436 0.04347 0.58668 0.0
C1222 C 0.36715 0.0077 0.55031 0.0
C1223 C 0.41602 0.06229 0.58874 0.0
C1224 C 0.32634 0.92741 0.54956 0.0
C1225 C 0.3378 0.94632 0.54654 0.0
C1226 C 0.37695 0.98503 0.57507 0.0
C1227 C 0.39591 0.03566 0.56466 0.0
C1228 C 0.38393 0.01549 0.56275 0.0
C1229 C 0.34666 0.95753 0.56645 0.0
C1230 C 0.35985 0.97731 0.56359 0.0
H1231 H 0.41313 0.07475 0.53132 0.0
H1232 H 0.39277 0.0416 0.52761 0.0
H1233 H 0.40191 0.00938 0.58377 0.0
H1234 H 0.3295 0.92537 0.61051 0.0
H1235 H 0.34963 0.95808 0.60516 0.0
C1236 C 0.59294 0.66162 0.94942 0.0
C1237 C 0.58082 0.66449 0.96358 0.0
C1238 C 0.60126 0.65223 0.95871 0.0
C1239 C 0.62187 0.63676 0.98528 0.0
H1240 H 0.5857 0.58823 0.0072 0.0
C1241 C 0.63851 0.57857 0.99038 0.0
C1242 C 0.62636 0.56382 0.97588 0.0
C1243 C 0.63406 0.59177 -0.0024 0.0
C1244 C 0.59603 0.60183 0.00151 0.0
H1245 H 0.56844 0.66051 -0.00114 0.0
H1246 H 0.58275 0.6436 0.01501 0.0
H1247 H 0.57726 0.6119 0.00333 0.0
H1248 H 0.59944 0.55032 0.95952 0.0
H1249 H 0.59165 0.57319 0.97203 0.0
H1250 H 0.64029 0.62635 0.98193 0.0
C1251 C 0.58588 0.6488 -0.00321 0.0
C1252 C 0.59125 0.61541 -0.00054 0.0
C1253 C 0.57776 0.65848 0.98757 0.0
C1254 C 0.60922 0.56175 0.97019 0.0
C1255 C 0.60466 0.57473 0.97769 0.0
C1256 C 0.6267 0.62323 0.98751 0.0
C1257 C 0.59746 0.64532 0.98227 0.0
C1258 C 0.60388 0.63274 0.99025 0.0
C1259 C 0.61724 0.59016 0.99084 0.0
C1260 C 0.61356 0.6054 0.99457 0.0
H1261 H 0.59562 0.66619 0.9309 0.0
H1262 H 0.60991 0.64954 0.94699 0.0
H1263 H 0.6319 0.65007 0.97834 0.0
H1264 H 0.65181 0.58043 0.99505 0.0
H1265 H 0.64397 0.60351 0.00779 0.0
C1266 C 0.92698 0.57786 0.44252 0.0
C1267 C 0.91728 0.57154 0.42081 0.0
C1268 C 0.94554 0.58308 0.44372 0.0
C1269 C 0.98104 0.57724 0.4131 0.0
H1270 H 0.01515 0.62344 0.44307 0.0
C1271 C 0.05877 0.61331 0.39624 0.0
C1272 C 0.07078 0.62329 0.415 0.0
C1273 C 0.03985 0.60542 0.39915 0.0
C1274 C 0.0058 0.61033 0.43502 0.0
H1275 H 0.91959 0.56609 0.38325 0.0
H1276 H 0.95186 0.57501 0.38542 0.0
H1277 H 0.98238 0.61274 0.4441 0.0
H1278 H 0.07235 0.63231 0.45185 0.0
H1279 H 0.03924 0.61825 0.45711 0.0
H1280 H 0.0044 0.57483 0.40387 0.0
C1281 C 0.94504 0.57569 0.40158 0.0
C1282 C 0.98703 0.60424 0.43557 0.0
C1283 C 0.92655 0.57061 0.40034 0.0
C1284 C 0.06344 0.62477 0.43701 0.0
C1285 C 0.04448 0.61681 0.43998 0.0
C1286 C -0.00021 0.58327 0.41267 0.0
C1287 C 0.95474 0.58199 0.42327 0.0
C1288 C 0.97449 0.58778 0.42427 0.0
C1289 C 0.03248 0.60727 0.42095 0.0
C1290 C 0.01243 0.60004 0.42328 0.0
H1291 H 0.92023 0.57875 0.45862 0.0
H1292 H 0.95266 0.58781 0.4607 0.0
H1293 H 0.97166 0.56434 0.40458 0.0
H1294 H 0.06398 0.61203 0.37898 0.0
H1295 H 0.03105 0.59842 0.384 0.0
C1296 C 0.44676 0.07558 0.9224 0.0
C1297 C 0.45582 0.08174 0.90022 0.0
C1298 C 0.43419 0.05698 0.92604 0.0
C1299 C 0.42046 0.01112 0.90161 0.0
H1300 H 0.37322 -0.00347 0.93063 0.0
C1301 C 0.35848 0.93999 0.88705 0.0
C1302 C 0.34744 0.93062 0.9069 0.0
C1303 C 0.37211 0.95829 0.88897 0.0
C1304 C 0.38646 0.0004 0.92283 0.0
H1305 H 0.45861 0.07326 0.86441 0.0
H1306 H 0.43681 0.04104 0.87071 0.0
H1307 H 0.39673 0.02896 0.92922 0.0
H1308 H 0.34169 0.93329 0.94422 0.0
H1309 H 0.36559 0.96555 0.94751 0.0
H1310 H 0.41009 0.98269 0.89465 0.0
C1311 C 0.43961 0.05045 0.88547 0.0
C1312 C 0.39992 0.01895 0.92203 0.0
C1313 C 0.4521 0.06897 0.88182 0.0
C1314 C 0.35003 0.94013 0.92862 0.0
C1315 C 0.36366 0.95857 0.93051 0.0
C1316 C 0.40704 0.99266 0.90234 0.0
C1317 C 0.4305 0.04422 0.90759 0.0
C1318 C 0.41691 0.02452 0.9109 0.0
C1319 C 0.37498 0.96775 0.91075 0.0
C1320 C 0.38975 0.98714 0.91245 0.0
H1321 H 0.44932 0.0851 0.93692 0.0
H1322 H 0.42745 0.05258 0.94333 0.0
H1323 H 0.43356 0.01493 0.89341 0.0
H1324 H 0.35661 0.93322 0.86991 0.0
H1325 H 0.38034 0.96512 0.87328 0.0
C1326 C 0.37818 0.44376 0.43292 0.0
C1327 C 0.37831 0.45227 0.41115 0.0
C1328 C 0.38942 0.43608 0.43594 0.0
C1329 C 0.42966 0.43534 0.40978 0.0
H1330 H 0.40654 0.38614 0.43589 0.0
C1331 C 0.45458 0.38468 0.38887 0.0
C1332 C 0.45379 0.37276 0.40706 0.0
C1333 C 0.44763 0.3964 0.39283 0.0
C1334 C 0.41333 0.4 0.42896 0.0
H1335 H 0.39049 0.45958 0.3756 0.0
H1336 H 0.4099 0.44618 0.38079 0.0
H1337 H 0.39021 0.40317 0.43683 0.0
H1338 H 0.44556 0.36415 0.44392 0.0
H1339 H 0.43338 0.38465 0.4508 0.0
H1340 H 0.45254 0.4319 0.40119 0.0
C1341 C 0.4014 0.44568 0.39571 0.0
C1342 C 0.40398 0.40977 0.42952 0.0
C1343 C 0.39018 0.45331 0.39269 0.0
C1344 C 0.44633 0.37314 0.42951 0.0
C1345 C 0.43929 0.38482 0.43343 0.0
C1346 C 0.43899 0.42555 0.40917 0.0
C1347 C 0.40102 0.4368 0.41725 0.0
C1348 C 0.41187 0.42739 0.41943 0.0
C1349 C 0.43966 0.39641 0.41502 0.0
C1350 C 0.43076 0.40763 0.41827 0.0
H1351 H 0.36922 0.44278 0.44751 0.0
H1352 H 0.38894 0.42947 0.45283 0.0
H1353 H 0.43625 0.44902 0.40227 0.0
H1354 H 0.46012 0.38465 0.37132 0.0
H1355 H 0.44789 0.40498 0.37816 0.0
C1356 C 0.06722 0.42667 0.94491 0.0
C1357 C 0.07515 0.43358 0.9223 0.0
C1358 C 0.04859 0.4204 0.94888 0.0
C1359 C 0.00964 0.42404 0.92585 0.0
H1360 H 0.97933 0.3752 0.95172 0.0
C1361 C 0.9321 0.38281 0.91004 0.0
C1362 C 0.9206 0.37048 0.92766 0.0
C1363 C 0.95108 0.39229 0.91304 0.0
C1364 C 0.9876 0.38901 0.94496 0.0
H1365 H 0.06963 0.43912 0.8861 0.0
H1366 H 0.03739 0.42859 0.89318 0.0
H1367 H 0.01256 0.38857 0.95045 0.0
H1368 H 0.91995 0.35888 0.96268 0.0
H1369 H 0.95319 0.37572 0.96814 0.0
H1370 H 0.98479 0.42451 0.92012 0.0
C1371 C 0.0456 0.42817 0.90788 0.0
C1372 C 0.00664 0.39664 0.94418 0.0
C1373 C 0.0641 0.43419 0.90383 0.0
C1374 C 0.92847 0.36825 0.94873 0.0
C1375 C 0.94751 0.37782 0.9518 0.0
C1376 C 0.99065 0.41651 0.92683 0.0
C1377 C 0.03764 0.42115 0.9304 0.0
C1378 C 0.01778 0.41402 0.93404 0.0
C1379 C 0.95906 0.38975 0.9338 0.0
C1380 C 0.97935 0.3987 0.93579 0.0
H1381 H 0.07535 0.42597 0.9595 0.0
H1382 H 0.04278 0.41506 0.96642 0.0
H1383 H 0.01797 0.4376 0.9183 0.0
H1384 H 0.92651 0.38473 0.89349 0.0
H1385 H 0.95952 0.40109 0.8986 0.0
C1386 C 0.54888 0.92136 0.39993 0.0
C1387 C 0.5453 0.90983 0.41985 0.0
C1388 C 0.56064 0.94018 0.40197 0.0
C1389 C 0.59793 0.97558 0.43881 0.0
H1390 H 0.58556 0.00759 0.40354 0.0
C1391 C 0.63975 0.05561 0.44171 0.0
C1392 C 0.6432 0.06408 0.41903 0.0
C1393 C 0.628 0.03669 0.44393 0.0
C1394 C 0.58921 -0.00119 0.41343 0.0
H1395 H 0.55136 0.90895 0.45753 0.0
H1396 H 0.57181 0.94205 0.46121 0.0
H1397 H 0.56418 0.97477 0.40401 0.0
H1398 H 0.63787 0.05918 0.38081 0.0
H1399 H 0.61721 0.02642 0.38476 0.0
H1400 H 0.62303 -0.00012 0.44823 0.0
C1401 C 0.56563 0.93644 0.44394 0.0
C1402 C 0.577 0.98001 0.41365 0.0
C1403 C 0.55387 0.91752 0.44186 0.0
C1404 C 0.63517 0.0532 0.3986 0.0
C1405 C 0.62335 0.03441 0.40084 0.0
C1406 C 0.61012 0.9945 0.43875 0.0
C1407 C 0.56905 0.94799 0.42402 0.0
C1408 C 0.58138 0.96811 0.42586 0.0
C1409 C 0.61942 0.026 0.42352 0.0
C1410 C 0.60602 0.00621 0.4256 0.0
H1411 H 0.54275 0.91585 0.38261 0.0
H1412 H 0.56332 0.94859 0.3861 0.0
H1413 H 0.60176 0.96678 0.44828 0.0
H1414 H 0.64582 0.06363 0.45778 0.0
H1415 H 0.62519 0.0305 0.46162 0.0
C1416 C 0.49514 0.61997 0.96359 0.0
C1417 C 0.50625 0.61737 0.94703 0.0
C1418 C 0.47992 0.60495 0.97396 0.0
C1419 C 0.44766 0.5555 0.96684 0.0
H1420 H 0.44353 0.55586 0.03624 0.0
C1421 C 0.38772 0.49754 0.02155 0.0
C1422 C 0.39323 0.49133 0.04162 0.0
C1423 C 0.40044 0.51322 0.00904 0.0
C1424 C 0.4445 0.55559 0.01685 0.0
H1425 H 0.50971 0.59689 0.92785 0.0
H1426 H 0.48315 0.57073 0.94592 0.0
H1427 H 0.46753 0.58278 0.01568 0.0
H1428 H 0.41643 0.49679 0.06423 0.0
H1429 H 0.43841 0.52406 0.04257 0.0
H1430 H 0.42478 0.52811 0.96816 0.0
C1431 C 0.4862 0.5844 0.95081 0.0
C1432 C 0.45812 0.57104 0.00506 0.0
C1433 C 0.50151 0.59941 0.94061 0.0
C1434 C 0.41169 0.50113 0.04885 0.0
C1435 C 0.42429 0.51685 0.03655 0.0
C1436 C 0.43389 0.54007 0.97864 0.0
C1437 C 0.47539 0.58702 0.96782 0.0
C1438 C 0.46002 0.57107 0.97998 0.0
C1439 C 0.41881 0.5231 0.01659 0.0
C1440 C 0.43238 0.53988 0.00379 0.0
H1441 H 0.49836 0.63361 0.96892 0.0
H1442 H 0.47174 0.60736 0.98687 0.0
H1443 H 0.44873 0.5552 0.94747 0.0
H1444 H 0.37362 0.4903 0.01549 0.0
H1445 H 0.39586 0.51779 0.99372 0.0
C1446 C 0.86958 0.40653 0.56694 0.0
C1447 C 0.86747 0.39029 0.55707 0.0
C1448 C 0.86664 0.41851 0.55294 0.0
C1449 C 0.8481 0.42313 0.4939 0.0
H1450 H 0.8804 0.47482 0.50661 0.0
C1451 C 0.86398 0.48306 0.42842 0.0
C1452 C 0.86303 0.49791 0.43825 0.0
C1453 C 0.86174 0.46862 0.44305 0.0
C1454 C 0.87116 0.46042 0.50304 0.0
H1455 H 0.86031 0.37359 0.525 0.0
H1456 H 0.85611 0.39502 0.49998 0.0
H1457 H 0.88234 0.45224 0.53155 0.0
H1458 H 0.85845 0.50904 0.47097 0.0
H1459 H 0.85506 0.48399 0.49666 0.0
H1460 H 0.83776 0.43171 0.46437 0.0
C1461 C 0.85947 0.39829 0.51877 0.0
C1462 C 0.87216 0.44742 0.51741 0.0
C1463 C 0.86199 0.38604 0.53302 0.0
C1464 C 0.85924 0.49777 0.46287 0.0
C1465 C 0.85735 0.4835 0.47758 0.0
C1466 C 0.84738 0.43621 0.47919 0.0
C1467 C 0.862 0.41483 0.52848 0.0
C1468 C 0.86061 0.42857 0.51314 0.0
C1469 C 0.85883 0.46895 0.46783 0.0
C1470 C 0.85888 0.45495 0.48373 0.0
H1471 H 0.87347 0.40996 0.58559 0.0
H1472 H 0.86813 0.43076 0.56135 0.0
H1473 H 0.8388 0.40879 0.49022 0.0
H1474 H 0.86677 0.48274 0.40947 0.0
H1475 H 0.86304 0.45758 0.43519 0.0
C1476 C 0.36149 0.87453 0.95624 0.0
C1477 C 0.36639 0.8774 0.93182 0.0
C1478 C 0.37277 0.87256 0.97293 0.0
C1479 C 0.40718 0.85928 0.9809 0.0
H1480 H 0.42713 0.8959 0.03123 0.0
C1481 C 0.46747 0.86866 0.04005 0.0
C1482 C 0.46842 0.87456 0.06386 0.0
C1483 C 0.45417 0.86797 0.0244 0.0
C1484 C 0.42144 0.8853 0.01767 0.0
H1485 H 0.38642 0.87962 0.90552 0.0
H1486 H 0.40584 0.87559 0.93469 0.0
H1487 H 0.40456 0.89543 0.00351 0.0
H1488 H 0.45591 0.88378 0.09025 0.0
H1489 H 0.43218 0.88175 0.06344 0.0
H1490 H 0.42355 0.84873 0.99525 0.0
C1491 C 0.39341 0.87513 0.94086 0.0
C1492 C 0.40858 0.88513 0.00173 0.0
C1493 C 0.38237 0.87751 0.92425 0.0
C1494 C 0.45563 0.87942 0.07188 0.0
C1495 C 0.44209 0.87834 0.05641 0.0
C1496 C 0.41976 0.85918 -0.00284 0.0
C1497 C 0.38888 0.87299 0.96536 0.0
C1498 C 0.40151 0.87226 0.98309 0.0
C1499 C 0.44126 0.87278 0.03237 0.0
C1500 C 0.42725 0.87233 0.01561 0.0
H1501 H 0.3493 0.87448 0.96258 0.0
H1502 H 0.36903 0.87089 0.99178 0.0
H1503 H 0.4018 0.84917 0.96667 0.0
H1504 H 0.47725 0.86495 0.03335 0.0
H1505 H 0.45427 0.86398 0.00594 0.0
C1506 C 0.52709 0.38304 0.44111 0.0
C1507 C 0.52807 0.38756 0.41667 0.0
C1508 C 0.54121 0.39432 0.45677 0.0
C1509 C 0.579 0.44252 0.46099 0.0
H1510 H 0.58638 0.4256 0.52254 0.0
C1511 C 0.62632 0.49105 0.5357 0.0
C1512 C 0.61569 0.4903 0.55562 0.0
C1513 C 0.61892 0.47741 0.51809 0.0
C1514 C 0.58459 0.43044 0.50528 0.0
H1515 H 0.54518 0.40652 0.38902 0.0
H1516 H 0.57034 0.42566 0.41602 0.0
H1517 H 0.56824 0.40331 0.49159 0.0
H1518 H 0.58947 0.47433 0.57348 0.0
H1519 H 0.57678 0.45018 0.54306 0.0
H1520 H 0.59554 0.46967 0.47487 0.0
C1521 C 0.55833 0.41391 0.42343 0.0
C1522 C 0.57406 0.41773 0.48761 0.0
C1523 C 0.54398 0.40286 0.40787 0.0
C1524 C 0.5979 0.47527 0.55823 0.0
C1525 C 0.5907 0.46142 0.54097 0.0
C1526 C 0.58988 0.4552 0.47844 0.0
C1527 C 0.55685 0.41018 0.44827 0.0
C1528 C 0.57057 0.42357 0.46551 0.0
C1529 C 0.60101 0.46259 0.52055 0.0
C1530 C 0.59228 0.44924 0.50094 0.0
H1531 H 0.51492 0.37138 0.44843 0.0
H1532 H 0.5393 0.39103 0.47573 0.0
H1533 H 0.57647 0.44769 0.4445 0.0
H1534 H 0.64004 0.50254 0.53324 0.0
H1535 H 0.62703 0.47857 0.50237 0.0
C1536 C 0.13258 0.50967 0.9541 0.0
C1537 C 0.12946 0.50896 0.92926 0.0
C1538 C 0.13436 0.52443 0.96765 0.0
C1539 C 0.12196 0.56089 0.96424 0.0
H1540 H 0.148 0.57564 0.02489 0.0
C1541 C 0.1228 0.6168 0.02566 0.0
C1542 C 0.11617 0.61028 0.04889 0.0
C1543 C 0.12731 0.60662 0.01011 0.0
C1544 C 0.14077 0.57169 0.0079 0.0
H1545 H 0.12719 0.52365 0.89876 0.0
H1546 H 0.1313 0.54985 0.92206 0.0
H1547 H 0.15172 0.55444 -0.00118 0.0
H1548 H 0.10974 0.58838 0.07436 0.0
H1549 H 0.118 0.57087 0.04735 0.0
H1550 H 0.11119 0.57835 0.9734 0.0
C1551 C 0.13153 0.5387 0.9314 0.0
C1552 C 0.14276 0.55945 0.99303 0.0
C1553 C 0.12932 0.52376 0.91797 0.0
C1554 C 0.11466 0.59368 0.05649 0.0
C1555 C 0.11953 0.58374 0.04115 0.0
C1556 C 0.12027 0.57339 0.9789 0.0
C1557 C 0.13344 0.53896 0.95654 0.0
C1558 C 0.13305 0.55355 0.97122 0.0
C1559 C 0.12569 0.59001 0.01776 0.0
C1560 C 0.12933 0.57858 0.00107 0.0
H1561 H 0.13263 0.49836 0.96326 0.0
H1562 H 0.13558 0.52395 0.98697 0.0
H1563 H 0.11394 0.55646 0.9479 0.0
H1564 H 0.1241 0.62954 0.01934 0.0
H1565 H 0.13203 0.61169 0.99211 0.0
C1566 C 0.50045 0.09269 0.54296 0.0
C1567 C 0.49545 0.10624 0.54112 0.0
C1568 C 0.51372 0.0929 0.52776 0.0
C1569 C 0.53479 0.09077 0.4851 0.0
H1570 H 0.5796 0.13671 0.47345 0.0
C1571 C 0.59021 0.09563 0.42025 0.0
C1572 C 0.60853 0.10588 0.42797 0.0
C1573 C 0.57625 0.09638 0.43278 0.0
C1574 C 0.56719 0.12377 0.47664 0.0
H1575 H 0.50035 0.13053 0.5215 0.0
H1576 H 0.52351 0.1308 0.49478 0.0
H1577 H 0.55521 0.13638 0.49761 0.0
H1578 H 0.62652 0.1252 0.45478 0.0
H1579 H 0.60205 0.12632 0.47682 0.0
H1580 H 0.5469 0.07806 0.46476 0.0
C1581 C 0.51723 0.12013 0.50822 0.0
C1582 C 0.55314 0.12362 0.49022 0.0
C1583 C 0.50387 0.11989 0.52343 0.0
C1584 C 0.61257 0.11713 0.44833 0.0
C1585 C 0.59856 0.11787 0.46088 0.0
C1586 C 0.5488 0.09093 0.47152 0.0
C1587 C 0.52234 0.10667 0.51032 0.0
C1588 C 0.53686 0.10708 0.49477 0.0
C1589 C 0.58023 0.10737 0.45335 0.0
C1590 C 0.5652 0.10741 0.46725 0.0
H1591 H 0.49428 0.08197 0.55637 0.0
H1592 H 0.51752 0.08248 0.53004 0.0
H1593 H 0.52233 0.07783 0.48809 0.0
H1594 H 0.58657 0.08691 0.40456 0.0
H1595 H 0.5623 0.08835 0.42629 0.0
C1596 C 0.47498 0.36789 0.07303 0.0
C1597 C 0.47169 0.35162 0.06173 0.0
C1598 C 0.48985 0.38475 0.06605 0.0
C1599 C 0.53368 0.40549 0.03149 0.0
H1600 H 0.52511 0.44629 0.02431 0.0
C1601 C 0.56393 0.47676 0.97457 0.0
C1602 C 0.58292 0.48398 0.97723 0.0
C1603 C 0.55149 0.46153 0.98783 0.0
C1604 C 0.52772 0.43501 0.02613 0.0
H1605 H 0.48163 0.34037 0.03434 0.0
H1606 H 0.50711 0.36961 0.02188 0.0
H1607 H 0.50139 0.41779 0.04185 0.0
H1608 H 0.6037 0.48087 -0.00382 0.0
H1609 H 0.58189 0.45433 0.01965 0.0
H1610 H 0.55963 0.4224 0.01458 0.0
C1611 C 0.4985 0.3694 0.0365 0.0
C1612 C 0.51419 0.41874 0.03652 0.0
C1613 C 0.48375 0.35259 0.04354 0.0
C1614 C 0.58917 0.47561 0.99361 0.0
C1615 C 0.57666 0.46037 0.007 0.0
C1616 C 0.54716 0.42174 0.02095 0.0
C1617 C 0.50171 0.38571 0.04755 0.0
C1618 C 0.51685 0.40364 0.03889 0.0
C1619 C 0.55766 0.45314 0.00424 0.0
C1620 C 0.54419 0.43657 0.01768 0.0
H1621 H 0.46604 0.36763 0.08721 0.0
H1622 H 0.49205 0.39703 0.07515 0.0
H1623 H 0.53632 0.39425 0.03344 0.0
H1624 H 0.55858 0.48275 0.96204 0.0
H1625 H 0.53697 0.45612 0.98481 0.0
C1626 C 0.11825 0.57736 0.42422 0.0
C1627 C 0.1206 0.59412 0.43262 0.0
C1628 C 0.12094 0.56582 0.43957 0.0
C1629 C 0.11567 0.55193 0.50115 0.0
H1630 H 0.14589 0.53066 0.48548 0.0
C1631 C 0.11824 0.49945 0.56435 0.0
C1632 C 0.11912 0.48479 0.55384 0.0
C1633 C 0.1211 0.51445 0.5505 0.0
C1634 C 0.13719 0.53627 0.49002 0.0
H1635 H 0.12788 0.61207 0.46353 0.0
H1636 H 0.13198 0.59149 0.49065 0.0
H1637 H 0.146 0.55386 0.4591 0.0
H1638 H 0.12394 0.47438 0.52072 0.0
H1639 H 0.128 0.50007 0.49619 0.0
H1640 H 0.10589 0.53376 0.53112 0.0
C1641 C 0.12831 0.58751 0.47207 0.0
C1642 C 0.13741 0.54966 0.475 0.0
C1643 C 0.12602 0.59926 0.45657 0.0
C1644 C 0.12327 0.48556 0.52929 0.0
C1645 C 0.12572 0.50038 0.51528 0.0
C1646 C 0.11515 0.5383 0.5159 0.0
C1647 C 0.12566 0.57065 0.46371 0.0
C1648 C 0.12658 0.55752 0.4804 0.0
C1649 C 0.12447 0.51496 0.52565 0.0
C1650 C 0.12582 0.53017 0.51049 0.0
H1651 H 0.11419 0.5731 0.40581 0.0
H1652 H 0.11869 0.55282 0.43279 0.0
H1653 H 0.10699 0.55763 0.50547 0.0
H1654 H 0.11533 0.49934 0.58334 0.0
H1655 H 0.12054 0.52559 0.55933 0.0
C1656 C 0.63746 0.12216 0.03876 0.0
C1657 C 0.62944 0.1099 0.05807 0.0
C1658 C 0.62647 0.1238 0.02124 0.0
C1659 C 0.58035 0.09825 0.99489 0.0
H1660 H 0.59059 0.14555 0.97062 0.0
C1661 C 0.54122 0.12996 0.93692 0.0
C1662 C 0.53414 0.11715 0.91808 0.0
C1663 C 0.55391 0.12991 0.95304 0.0
C1664 C 0.58754 0.13226 0.9773 0.0
H1665 H 0.60354 0.09001 0.07427 0.0
H1666 H 0.5845 0.09297 0.04388 0.0
H1667 H 0.61057 0.14391 0.00121 0.0
H1668 H 0.53528 0.09456 0.90109 0.0
H1669 H 0.55744 0.09459 0.92911 0.0
H1670 H 0.55717 0.08657 0.97143 0.0
C1671 C 0.59927 0.10113 0.04211 0.0
C1672 C 0.59906 0.13132 0.99462 0.0
C1673 C 0.61021 0.09953 0.05962 0.0
C1674 C 0.54034 0.10456 0.91546 0.0
C1675 C 0.55298 0.1045 0.93158 0.0
C1676 C 0.5689 0.09918 0.97755 0.0
C1677 C 0.60726 0.11316 0.02264 0.0
C1678 C 0.59549 0.11429 0.00372 0.0
C1679 C 0.55975 0.11704 0.9507 0.0
C1680 C 0.57231 0.11619 0.96864 0.0
H1681 H 0.65222 0.1304 0.03705 0.0
H1682 H 0.633 0.13311 0.00635 0.0
H1683 H 0.57736 0.08492 0.00135 0.0
H1684 H 0.53676 0.13986 0.93948 0.0
H1685 H 0.55876 0.13963 0.96773 0.0
C1686 C 0.49928 0.60848 0.56007 0.0
C1687 C 0.51063 0.62694 0.55365 0.0
C1688 C 0.484 0.59699 0.54604 0.0
C1689 C 0.46835 0.5897 0.48501 0.0
H1690 H 0.41891 0.56146 0.51014 0.0
C1691 C 0.40984 0.54373 0.42185 0.0
C1692 C 0.39644 0.52664 0.43067 0.0
C1693 C 0.42194 0.55728 0.43755 0.0
C1694 C 0.43265 0.56905 0.50285 0.0
H1695 H 0.51486 0.64785 0.52757 0.0
H1696 H 0.48853 0.62757 0.50271 0.0
H1697 H 0.44391 0.582 0.53675 0.0
H1698 H 0.38462 0.51038 0.4627 0.0
H1699 H 0.40633 0.53363 0.49019 0.0
H1700 H 0.45772 0.57627 0.45161 0.0
C1701 C 0.49134 0.62213 0.51877 0.0
C1702 C 0.44691 0.58087 0.5181 0.0
C1703 C 0.50636 0.6337 0.53302 0.0
C1704 C 0.39477 0.52356 0.45555 0.0
C1705 C 0.40723 0.53695 0.47127 0.0
C1706 C 0.45424 0.57765 0.46992 0.0
C1707 C 0.48008 0.60369 0.52513 0.0
C1708 C 0.46485 0.59129 0.50924 0.0
C1709 C 0.42133 0.55383 0.4624 0.0
C1710 C 0.43614 0.56717 0.47855 0.0
H1711 H 0.50217 0.60292 0.57593 0.0
H1712 H 0.47554 0.58276 0.55116 0.0
H1713 H 0.48215 0.59745 0.47788 0.0
H1714 H 0.41126 0.54643 0.4027 0.0
H1715 H 0.43213 0.57029 0.43004 0.0
C1716 C 0.85872 0.38242 0.97668 0.0
C1717 C 0.86326 0.38905 0.95303 0.0
C1718 C 0.85429 0.39183 0.99366 0.0
C1719 C 0.83794 0.42425 0.00121 0.0
H1720 H 0.87194 0.44429 0.05449 0.0
C1721 C 0.84962 0.4885 0.05187 0.0
C1722 C 0.85564 0.49117 0.07581 0.0
C1723 C 0.84715 0.47317 0.03911 0.0
C1724 C 0.86196 0.4385 0.04016 0.0
H1725 H 0.86579 0.41002 0.92823 0.0
H1726 H 0.85754 0.4261 0.9577 0.0
H1727 H 0.87291 0.42174 0.02825 0.0
H1728 H 0.86268 0.47936 0.10568 0.0
H1729 H 0.85758 0.45221 0.08382 0.0
H1730 H 0.8269 0.44087 0.01296 0.0
C1731 C 0.85763 0.41381 0.96316 0.0
C1732 C 0.8626 0.4256 0.02508 0.0
C1733 C 0.86248 0.4047 0.94639 0.0
C1734 C 0.85828 0.47778 0.08711 0.0
C1735 C 0.85546 0.46226 0.0745 0.0
C1736 C 0.83704 0.43688 0.01656 0.0
C1737 C 0.85384 0.40767 0.98702 0.0
C1738 C 0.85096 0.41878 0.00512 0.0
C1739 C 0.85029 0.45996 0.05014 0.0
C1740 C 0.84943 0.44462 0.03581 0.0
H1741 H 0.85928 0.3704 0.98224 0.0
H1742 H 0.85145 0.38691 0.01202 0.0
H1743 H 0.82875 0.41905 0.98596 0.0
H1744 H 0.84755 0.49863 0.04265 0.0
H1745 H 0.84348 0.47213 0.0203 0.0
C1746 C 0.45561 0.85818 0.45622 0.0
C1747 C 0.46857 0.8746 0.44514 0.0
C1748 C 0.4422 0.85784 0.47139 0.0
C1749 C 0.43247 0.88483 0.51226 0.0
H1750 H 0.38141 0.85579 0.49365 0.0
C1751 C 0.37679 0.89413 0.55891 0.0
C1752 C 0.35906 0.87898 0.56127 0.0
C1753 C 0.39006 0.89284 0.5454 0.0
C1754 C 0.39553 0.8637 0.49947 0.0
H1755 H 0.47804 0.9036 0.44176 0.0
H1756 H 0.45495 0.90307 0.46898 0.0
H1757 H 0.40499 0.85444 0.46972 0.0
H1758 H 0.34136 0.85051 0.55168 0.0
H1759 H 0.36474 0.84794 0.52907 0.0
H1760 H 0.42327 0.89372 0.54236 0.0
C1761 C 0.45505 0.89047 0.46557 0.0
C1762 C 0.40901 0.86297 0.48564 0.0
C1763 C 0.46816 0.89074 0.44997 0.0
C1764 C 0.35489 0.86246 0.55001 0.0
C1765 C 0.3683 0.86104 0.53691 0.0
C1766 C 0.419 0.88526 0.5264 0.0
C1767 C 0.44187 0.874 0.47617 0.0
C1768 C 0.42757 0.87373 0.49176 0.0
C1769 C 0.38607 0.87625 0.53434 0.0
C1770 C 0.40034 0.87494 0.52 0.0
H1771 H 0.45558 0.84553 0.45272 0.0
H1772 H 0.43213 0.845 0.47946 0.0
H1773 H 0.44674 0.89313 0.51735 0.0
H1774 H 0.38033 0.90711 0.56717 0.0
H1775 H 0.40338 0.90501 0.54339 0.0
loop_
_geom_bond_atom_site_label_1
_geom_bond_atom_site_label_2
_geom_bond_distance
_geom_bond_site_symmetry_2
_ccdc_geom_bond_type
Mg0 O1 2.028 . S
Mg0 O7 1.986 . S
Mg0 O9 2.114 . S
Mg0 O10 2.251 . S
Mg0 O13 2.010 . S
O1 Mg0 2.028 . S
O1 C4 1.250 . S
O2 Mg3 2.028 . S
O2 C4 1.248 . S
Mg3 O2 2.028 . S
Mg3 O8 2.032 . S
Mg3 O10 2.079 . S
C4 O1 1.250 . S
C4 O2 1.248 . S
C5 O6 1.264 . S
C5 O13 1.249 . S
O6 C5 1.264 . S
O7 Mg0 1.986 . S
O7 C11 1.246 . S
O8 Mg3 2.032 . S
O8 C11 1.259 . S
O9 Mg0 2.114 . S
O9 C12 1.252 . S
O10 Mg0 2.251 . S
O10 Mg3 2.079 . S
O10 C12 1.273 . S
C11 O7 1.246 . S
C11 O8 1.259 . S
C12 O9 1.252 . S
C12 O10 1.273 . S
O13 Mg0 2.010 . S
O13 C5 1.249 . S
Mg14 O15 2.028 . S
Mg14 O21 1.986 . S
Mg14 O23 2.114 . S
Mg14 O24 2.251 . S
Mg14 O27 2.010 . S
O15 Mg14 2.028 . S
O15 C18 1.250 . S
O16 Mg17 2.028 . S
O16 C18 1.248 . S
Mg17 O16 2.028 . S
Mg17 O22 2.032 . S
Mg17 O24 2.079 . S
C18 O15 1.250 . S
C18 O16 1.248 . S
C19 O20 1.264 . S
C19 O27 1.249 . S
O20 C19 1.264 . S
O21 Mg14 1.986 . S
O21 C25 1.246 . S
O22 Mg17 2.032 . S
O22 C25 1.259 . S
O23 Mg14 2.114 . S
O23 C26 1.252 . S
O24 Mg14 2.251 . S
O24 Mg17 2.079 . S
O24 C26 1.273 . S
C25 O21 1.246 . S
C25 O22 1.259 . S
C26 O23 1.252 . S
C26 O24 1.273 . S
O27 Mg14 2.010 . S
O27 C19 1.249 . S
Mg28 O29 2.028 . S
Mg28 O35 1.986 . S
Mg28 O37 2.114 . S
Mg28 O38 2.251 . S
Mg28 O41 2.010 . S
O29 Mg28 2.028 . S
O29 C32 1.250 . S
O30 Mg31 2.028 . S
O30 C32 1.248 . S
Mg31 O30 2.028 . S
Mg31 O36 2.032 . S
Mg31 O38 2.079 . S
C32 O29 1.250 . S
C32 O30 1.248 . S
C33 O34 1.264 . S
C33 O41 1.249 . S
O34 C33 1.264 . S
O35 Mg28 1.986 . S
O35 C39 1.246 . S
O36 Mg31 2.032 . S
O36 C39 1.259 . S
O37 Mg28 2.114 . S
O37 C40 1.252 . S
O38 Mg28 2.251 . S
O38 Mg31 2.079 . S
O38 C40 1.273 . S
C39 O35 1.246 . S
C39 O36 1.259 . S
C40 O37 1.252 . S
C40 O38 1.273 . S
O41 Mg28 2.010 . S
O41 C33 1.249 . S
Mg42 O43 2.028 . S
Mg42 O49 1.986 . S
Mg42 O51 2.114 . S
Mg42 O52 2.251 . S
Mg42 O55 2.010 . S
O43 Mg42 2.028 . S
O43 C46 1.250 . S
O44 Mg45 2.028 . S
O44 C46 1.248 . S
Mg45 O44 2.028 . S
Mg45 O50 2.032 . S
Mg45 O52 2.079 . S
C46 O43 1.250 . S
C46 O44 1.248 . S
C47 O48 1.264 . S
C47 O55 1.249 . S
O48 C47 1.264 . S
O49 Mg42 1.986 . S
O49 C53 1.246 . S
O50 Mg45 2.032 . S
O50 C53 1.259 . S
O51 Mg42 2.114 . S
O51 C54 1.252 . S
O52 Mg42 2.251 . S
O52 Mg45 2.079 . S
O52 C54 1.273 . S
C53 O49 1.246 . S
C53 O50 1.259 . S
C54 O51 1.252 . S
C54 O52 1.273 . S
O55 Mg42 2.010 . S
O55 C47 1.249 . S
Mg56 O57 2.028 . S
Mg56 O63 1.986 . S
Mg56 O65 2.114 . S
Mg56 O66 2.251 . S
Mg56 O69 2.010 . S
O57 Mg56 2.028 . S
O57 C60 1.250 . S
O58 Mg59 2.028 . S
O58 C60 1.248 . S
Mg59 O58 2.028 . S
Mg59 O64 2.032 . S
Mg59 O66 2.079 . S
C60 O57 1.250 . S
C60 O58 1.248 . S
C61 O62 1.264 . S
C61 O69 1.249 . S
O62 C61 1.264 . S
O63 Mg56 1.986 . S
O63 C67 1.246 . S
O64 Mg59 2.032 . S
O64 C67 1.259 . S
O65 Mg56 2.114 . S
O65 C68 1.252 . S
O66 Mg56 2.251 . S
O66 Mg59 2.079 . S
O66 C68 1.273 . S
C67 O63 1.246 . S
C67 O64 1.259 . S
C68 O65 1.252 . S
C68 O66 1.273 . S
O69 Mg56 2.010 . S
O69 C61 1.249 . S
Mg70 O71 2.028 . S
Mg70 O77 1.986 . S
Mg70 O79 2.114 . S
Mg70 O80 2.251 . S
Mg70 O83 2.010 . S
O71 Mg70 2.028 . S
O71 C74 1.250 . S
O72 Mg73 2.028 . S
O72 C74 1.248 . S
Mg73 O72 2.028 . S
Mg73 O78 2.032 . S
Mg73 O80 2.079 . S
C74 O71 1.250 . S
C74 O72 1.248 . S
C75 O76 1.264 . S
C75 O83 1.249 . S
O76 C75 1.264 . S
O77 Mg70 1.986 . S
O77 C81 1.246 . S
O78 Mg73 2.032 . S
O78 C81 1.259 . S
O79 Mg70 2.114 . S
O79 C82 1.252 . S
O80 Mg70 2.251 . S
O80 Mg73 2.079 . S
O80 C82 1.273 . S
C81 O77 1.246 . S
C81 O78 1.259 . S
C82 O79 1.252 . S
C82 O80 1.273 . S
O83 Mg70 2.010 . S
O83 C75 1.249 . S
Mg84 O85 2.028 . S
Mg84 O91 1.986 . S
Mg84 O93 2.114 . S
Mg84 O94 2.251 . S
Mg84 O97 2.010 . S
O85 Mg84 2.028 . S
O85 C88 1.250 . S
O86 Mg87 2.028 . S
O86 C88 1.248 . S
Mg87 O86 2.028 . S
Mg87 O92 2.032 . S
Mg87 O94 2.079 . S
C88 O85 1.250 . S
C88 O86 1.248 . S
C89 O90 1.264 . S
C89 O97 1.249 . S
O90 C89 1.264 . S
O91 Mg84 1.986 . S
O91 C95 1.246 . S
O92 Mg87 2.032 . S
O92 C95 1.259 . S
O93 Mg84 2.114 . S
O93 C96 1.252 . S
O94 Mg84 2.251 . S
O94 Mg87 2.079 . S
O94 C96 1.273 . S
C95 O91 1.246 . S
C95 O92 1.259 . S
C96 O93 1.252 . S
C96 O94 1.273 . S
O97 Mg84 2.010 . S
O97 C89 1.249 . S
Mg98 O99 2.028 . S
Mg98 O105 1.986 . S
Mg98 O107 2.114 . S
Mg98 O108 2.251 . S
Mg98 O111 2.010 . S
O99 Mg98 2.028 . S
O99 C102 1.250 . S
O100 Mg101 2.028 . S
O100 C102 1.248 . S
Mg101 O100 2.028 . S
Mg101 O106 2.032 . S
Mg101 O108 2.079 . S
C102 O99 1.250 . S
C102 O100 1.248 . S
C103 O104 1.264 . S
C103 O111 1.249 . S
O104 C103 1.264 . S
O105 Mg98 1.986 . S
O105 C109 1.246 . S
O106 Mg101 2.032 . S
O106 C109 1.259 . S
O107 Mg98 2.114 . S
O107 C110 1.252 . S
O108 Mg98 2.251 . S
O108 Mg101 2.079 . S
O108 C110 1.273 . S
C109 O105 1.246 . S
C109 O106 1.259 . S
C110 O107 1.252 . S
C110 O108 1.273 . S
O111 Mg98 2.010 . S
O111 C103 1.249 . S
Mg112 O113 2.028 . S
Mg112 O119 1.986 . S
Mg112 O121 2.114 . S
Mg112 O122 2.251 . S
Mg112 O125 2.010 . S
O113 Mg112 2.028 . S
O113 C116 1.250 . S
O114 Mg115 2.028 . S
O114 C116 1.248 . S
Mg115 O114 2.028 . S
Mg115 O120 2.032 . S
Mg115 O122 2.079 . S
C116 O113 1.250 . S
C116 O114 1.248 . S
C117 O118 1.264 . S
C117 O125 1.249 . S
O118 C117 1.264 . S
O119 Mg112 1.986 . S
O119 C123 1.246 . S
O120 Mg115 2.032 . S
O120 C123 1.259 . S
O121 Mg112 2.114 . S
O121 C124 1.252 . S
O122 Mg112 2.251 . S
O122 Mg115 2.079 . S
O122 C124 1.273 . S
C123 O119 1.246 . S
C123 O120 1.259 . S
C124 O121 1.252 . S
C124 O122 1.273 . S
O125 Mg112 2.010 . S
O125 C117 1.249 . S
Mg126 O127 2.028 . S
Mg126 O133 1.986 . S
Mg126 O135 2.114 . S
Mg126 O136 2.251 . S
Mg126 O139 2.010 . S
O127 Mg126 2.028 . S
O127 C130 1.250 . S
O128 Mg129 2.028 . S
O128 C130 1.248 . S
Mg129 O128 2.028 . S
Mg129 O134 2.032 . S
Mg129 O136 2.079 . S
C130 O127 1.250 . S
C130 O128 1.248 . S
C131 O132 1.264 . S
C131 O139 1.249 . S
O132 C131 1.264 . S
O133 Mg126 1.986 . S
O133 C137 1.246 . S
O134 Mg129 2.032 . S
O134 C137 1.259 . S
O135 Mg126 2.114 . S
O135 C138 1.252 . S
O136 Mg126 2.251 . S
O136 Mg129 2.079 . S
O136 C138 1.273 . S
C137 O133 1.246 . S
C137 O134 1.259 . S
C138 O135 1.252 . S
C138 O136 1.273 . S
O139 Mg126 2.010 . S
O139 C131 1.249 . S
Mg140 O141 2.028 . S
Mg140 O147 1.986 . S
Mg140 O149 2.114 . S
Mg140 O150 2.251 . S
Mg140 O153 2.010 . S
O141 Mg140 2.028 . S
O141 C144 1.250 . S
O142 Mg143 2.028 . S
O142 C144 1.248 . S
Mg143 O142 2.028 . S
Mg143 O148 2.032 . S
Mg143 O150 2.079 . S
C144 O141 1.250 . S
C144 O142 1.248 . S
C145 O146 1.264 . S
C145 O153 1.249 . S
O146 C145 1.264 . S
O147 Mg140 1.986 . S
O147 C151 1.246 . S
O148 Mg143 2.032 . S
O148 C151 1.259 . S
O149 Mg140 2.114 . S
O149 C152 1.252 . S
O150 Mg140 2.251 . S
O150 Mg143 2.079 . S
O150 C152 1.273 . S
C151 O147 1.246 . S
C151 O148 1.259 . S
C152 O149 1.252 . S
C152 O150 1.273 . S
O153 Mg140 2.010 . S
O153 C145 1.249 . S
Mg154 O155 2.028 . S
Mg154 O161 1.986 . S
Mg154 O163 2.114 . S
Mg154 O164 2.251 . S
Mg154 O167 2.010 . S
O155 Mg154 2.028 . S
O155 C158 1.250 . S
O156 Mg157 2.028 . S
O156 C158 1.248 . S
Mg157 O156 2.028 . S
Mg157 O162 2.032 . S
Mg157 O164 2.079 . S
C158 O155 1.250 . S
C158 O156 1.248 . S
C159 O160 1.264 . S
C159 O167 1.249 . S
O160 C159 1.264 . S
O161 Mg154 1.986 . S
O161 C165 1.246 . S
O162 Mg157 2.032 . S
O162 C165 1.259 . S
O163 Mg154 2.114 . S
O163 C166 1.252 . S
O164 Mg154 2.251 . S
O164 Mg157 2.079 . S
O164 C166 1.273 . S
C165 O161 1.246 . S
C165 O162 1.259 . S
C166 O163 1.252 . S
C166 O164 1.273 . S
O167 Mg154 2.010 . S
O167 C159 1.249 . S
Mg168 O169 2.028 . S
Mg168 O175 1.986 . S
Mg168 O177 2.114 . S
Mg168 O178 2.251 . S
Mg168 O181 2.010 . S
O169 Mg168 2.028 . S
O169 C172 1.250 . S
O170 Mg171 2.028 . S
O170 C172 1.248 . S
Mg171 O170 2.028 . S
Mg171 O176 2.032 . S
Mg171 O178 2.079 . S
C172 O169 1.250 . S
C172 O170 1.248 . S
C173 O174 1.264 . S
C173 O181 1.249 . S
O174 C173 1.264 . S
O175 Mg168 1.986 . S
O175 C179 1.246 . S
O176 Mg171 2.032 . S
O176 C179 1.259 . S
O177 Mg168 2.114 . S
O177 C180 1.252 . S
O178 Mg168 2.251 . S
O178 Mg171 2.079 . S
O178 C180 1.273 . S
C179 O175 1.246 . S
C179 O176 1.259 . S
C180 O177 1.252 . S
C180 O178 1.273 . S
O181 Mg168 2.010 . S
O181 C173 1.249 . S
Mg182 O183 2.028 . S
Mg182 O189 1.986 . S
Mg182 O191 2.114 . S
Mg182 O192 2.251 . S
Mg182 O195 2.010 . S
O183 Mg182 2.028 . S
O183 C186 1.250 . S
O184 Mg185 2.028 . S
O184 C186 1.248 . S
Mg185 O184 2.028 . S
Mg185 O190 2.032 . S
Mg185 O192 2.079 . S
C186 O183 1.250 . S
C186 O184 1.248 . S
C187 O188 1.264 . S
C187 O195 1.249 . S
O188 C187 1.264 . S
O189 Mg182 1.986 . S
O189 C193 1.246 . S
O190 Mg185 2.032 . S
O190 C193 1.259 . S
O191 Mg182 2.114 . S
O191 C194 1.252 . S
O192 Mg182 2.251 . S
O192 Mg185 2.079 . S
O192 C194 1.273 . S
C193 O189 1.246 . S
C193 O190 1.259 . S
C194 O191 1.252 . S
C194 O192 1.273 . S
O195 Mg182 2.010 . S
O195 C187 1.249 . S
Mg196 O197 2.028 . S
Mg196 O203 1.986 . S
Mg196 O205 2.114 . S
Mg196 O206 2.251 . S
Mg196 O209 2.010 . S
O197 Mg196 2.028 . S
O197 C200 1.250 . S
O198 Mg199 2.028 . S
O198 C200 1.248 . S
Mg199 O198 2.028 . S
Mg199 O204 2.032 . S
Mg199 O206 2.079 . S
C200 O197 1.250 . S
C200 O198 1.248 . S
C201 O202 1.264 . S
C201 O209 1.249 . S
O202 C201 1.264 . S
O203 Mg196 1.986 . S
O203 C207 1.246 . S
O204 Mg199 2.032 . S
O204 C207 1.259 . S
O205 Mg196 2.114 . S
O205 C208 1.252 . S
O206 Mg196 2.251 . S
O206 Mg199 2.079 . S
O206 C208 1.273 . S
C207 O203 1.246 . S
C207 O204 1.259 . S
C208 O205 1.252 . S
C208 O206 1.273 . S
O209 Mg196 2.010 . S
O209 C201 1.249 . S
Mg210 O211 2.028 . S
Mg210 O217 1.986 . S
Mg210 O219 2.114 . S
Mg210 O220 2.251 . S
Mg210 O223 2.010 . S
O211 Mg210 2.028 . S
O211 C214 1.250 . S
O212 Mg213 2.028 . S
O212 C214 1.248 . S
Mg213 O212 2.028 . S
Mg213 O218 2.032 . S
Mg213 O220 2.079 . S
C214 O211 1.250 . S
C214 O212 1.248 . S
C215 O216 1.264 . S
C215 O223 1.249 . S
O216 C215 1.264 . S
O217 Mg210 1.986 . S
O217 C221 1.246 . S
O218 Mg213 2.032 . S
O218 C221 1.259 . S
O219 Mg210 2.114 . S
O219 C222 1.252 . S
O220 Mg210 2.251 . S
O220 Mg213 2.079 . S
O220 C222 1.273 . S
C221 O217 1.246 . S
C221 O218 1.259 . S
C222 O219 1.252 . S
C222 O220 1.273 . S
O223 Mg210 2.010 . S
O223 C215 1.249 . S
Mg224 O225 2.028 . S
Mg224 O231 1.986 . S
Mg224 O233 2.114 . S
Mg224 O234 2.251 . S
Mg224 O237 2.010 . S
O225 Mg224 2.028 . S
O225 C228 1.250 . S
O226 Mg227 2.028 . S
O226 C228 1.248 . S
Mg227 O226 2.028 . S
Mg227 O232 2.032 . S
Mg227 O234 2.079 . S
C228 O225 1.250 . S
C228 O226 1.248 . S
C229 O230 1.264 . S
C229 O237 1.249 . S
O230 C229 1.264 . S
O231 Mg224 1.986 . S
O231 C235 1.246 . S
O232 Mg227 2.032 . S
O232 C235 1.259 . S
O233 Mg224 2.114 . S
O233 C236 1.252 . S
O234 Mg224 2.251 . S
O234 Mg227 2.079 . S
O234 C236 1.273 . S
C235 O231 1.246 . S
C235 O232 1.259 . S
C236 O233 1.252 . S
C236 O234 1.273 . S
O237 Mg224 2.010 . S
O237 C229 1.249 . S
Mg238 O239 2.028 . S
Mg238 O245 1.986 . S
Mg238 O247 2.114 . S
Mg238 O248 2.251 . S
Mg238 O251 2.010 . S
O239 Mg238 2.028 . S
O239 C242 1.250 . S
O240 Mg241 2.028 . S
O240 C242 1.248 . S
Mg241 O240 2.028 . S
Mg241 O246 2.032 . S
Mg241 O248 2.079 . S
C242 O239 1.250 . S
C242 O240 1.248 . S
C243 O244 1.264 . S
C243 O251 1.249 . S
O244 C243 1.264 . S
O245 Mg238 1.986 . S
O245 C249 1.246 . S
O246 Mg241 2.032 . S
O246 C249 1.259 . S
O247 Mg238 2.114 . S
O247 C250 1.252 . S
O248 Mg238 2.251 . S
O248 Mg241 2.079 . S
O248 C250 1.273 . S
C249 O245 1.246 . S
C249 O246 1.259 . S
C250 O247 1.252 . S
C250 O248 1.273 . S
O251 Mg238 2.010 . S
O251 C243 1.249 . S
Mg252 O253 2.028 . S
Mg252 O259 1.986 . S
Mg252 O261 2.114 . S
Mg252 O262 2.251 . S
Mg252 O265 2.010 . S
O253 Mg252 2.028 . S
O253 C256 1.250 . S
O254 Mg255 2.028 . S
O254 C256 1.248 . S
Mg255 O254 2.028 . S
Mg255 O260 2.032 . S
Mg255 O262 2.079 . S
C256 O253 1.250 . S
C256 O254 1.248 . S
C257 O258 1.264 . S
C257 O265 1.249 . S
O258 C257 1.264 . S
O259 Mg252 1.986 . S
O259 C263 1.246 . S
O260 Mg255 2.032 . S
O260 C263 1.259 . S
O261 Mg252 2.114 . S
O261 C264 1.252 . S
O262 Mg252 2.251 . S
O262 Mg255 2.079 . S
O262 C264 1.273 . S
C263 O259 1.246 . S
C263 O260 1.259 . S
C264 O261 1.252 . S
C264 O262 1.273 . S
O265 Mg252 2.010 . S
O265 C257 1.249 . S
Mg266 O267 2.028 . S
Mg266 O273 1.986 . S
Mg266 O275 2.114 . S
Mg266 O276 2.251 . S
Mg266 O279 2.010 . S
O267 Mg266 2.028 . S
O267 C270 1.250 . S
O268 Mg269 2.028 . S
O268 C270 1.248 . S
Mg269 O268 2.028 . S
Mg269 O274 2.032 . S
Mg269 O276 2.079 . S
C270 O267 1.250 . S
C270 O268 1.248 . S
C271 O272 1.264 . S
C271 O279 1.249 . S
O272 C271 1.264 . S
O273 Mg266 1.986 . S
O273 C277 1.246 . S
O274 Mg269 2.032 . S
O274 C277 1.259 . S
O275 Mg266 2.114 . S
O275 C278 1.252 . S
O276 Mg266 2.251 . S
O276 Mg269 2.079 . S
O276 C278 1.273 . S
C277 O273 1.246 . S
C277 O274 1.259 . S
C278 O275 1.252 . S
C278 O276 1.273 . S
O279 Mg266 2.010 . S
O279 C271 1.249 . S
Mg280 O281 2.028 . S
Mg280 O287 1.986 . S
Mg280 O289 2.114 . S
Mg280 O290 2.251 . S
Mg280 O293 2.010 . S
O281 Mg280 2.028 . S
O281 C284 1.250 . S
O282 Mg283 2.028 . S
O282 C284 1.248 . S
Mg283 O282 2.028 . S
Mg283 O288 2.032 . S
Mg283 O290 2.079 . S
C284 O281 1.250 . S
C284 O282 1.248 . S
C285 O286 1.264 . S
C285 O293 1.249 . S
O286 C285 1.264 . S
O287 Mg280 1.986 . S
O287 C291 1.246 . S
O288 Mg283 2.032 . S
O288 C291 1.259 . S
O289 Mg280 2.114 . S
O289 C292 1.252 . S
O290 Mg280 2.251 . S
O290 Mg283 2.079 . S
O290 C292 1.273 . S
C291 O287 1.246 . S
C291 O288 1.259 . S
C292 O289 1.252 . S
C292 O290 1.273 . S
O293 Mg280 2.010 . S
O293 C285 1.249 . S
Mg294 O295 2.028 . S
Mg294 O301 1.986 . S
Mg294 O303 2.114 . S
Mg294 O304 2.251 . S
Mg294 O307 2.010 . S
O295 Mg294 2.028 . S
O295 C298 1.250 . S
O296 Mg297 2.028 . S
O296 C298 1.248 . S
Mg297 O296 2.028 . S
Mg297 O302 2.032 . S
Mg297 O304 2.079 . S
C298 O295 1.250 . S
C298 O296 1.248 . S
C299 O300 1.264 . S
C299 O307 1.249 . S
O300 C299 1.264 . S
O301 Mg294 1.986 . S
O301 C305 1.246 . S
O302 Mg297 2.032 . S
O302 C305 1.259 . S
O303 Mg294 2.114 . S
O303 C306 1.252 . S
O304 Mg294 2.251 . S
O304 Mg297 2.079 . S
O304 C306 1.273 . S
C305 O301 1.246 . S
C305 O302 1.259 . S
C306 O303 1.252 . S
C306 O304 1.273 . S
O307 Mg294 2.010 . S
O307 C299 1.249 . S
Mg308 O309 2.028 . S
Mg308 O315 1.986 . S
Mg308 O317 2.114 . S
Mg308 O318 2.251 . S
Mg308 O321 2.010 . S
O309 Mg308 2.028 . S
O309 C312 1.250 . S
O310 Mg311 2.028 . S
O310 C312 1.248 . S
Mg311 O310 2.028 . S
Mg311 O316 2.032 . S
Mg311 O318 2.079 . S
C312 O309 1.250 . S
C312 O310 1.248 . S
C313 O314 1.264 . S
C313 O321 1.249 . S
O314 C313 1.264 . S
O315 Mg308 1.986 . S
O315 C319 1.246 . S
O316 Mg311 2.032 . S
O316 C319 1.259 . S
O317 Mg308 2.114 . S
O317 C320 1.252 . S
O318 Mg308 2.251 . S
O318 Mg311 2.079 . S
O318 C320 1.273 . S
C319 O315 1.246 . S
C319 O316 1.259 . S
C320 O317 1.252 . S
C320 O318 1.273 . S
O321 Mg308 2.010 . S
O321 C313 1.249 . S
Mg322 O323 2.028 . S
Mg322 O329 1.986 . S
Mg322 O331 2.114 . S
Mg322 O332 2.251 . S
Mg322 O335 2.010 . S
O323 Mg322 2.028 . S
O323 C326 1.250 . S
O324 Mg325 2.028 . S
O324 C326 1.248 . S
Mg325 O324 2.028 . S
Mg325 O330 2.032 . S
Mg325 O332 2.079 . S
C326 O323 1.250 . S
C326 O324 1.248 . S
C327 O328 1.264 . S
C327 O335 1.249 . S
O328 C327 1.264 . S
O329 Mg322 1.986 . S
O329 C333 1.246 . S
O330 Mg325 2.032 . S
O330 C333 1.259 . S
O331 Mg322 2.114 . S
O331 C334 1.252 . S
O332 Mg322 2.251 . S
O332 Mg325 2.079 . S
O332 C334 1.273 . S
C333 O329 1.246 . S
C333 O330 1.259 . S
C334 O331 1.252 . S
C334 O332 1.273 . S
O335 Mg322 2.010 . S
O335 C327 1.249 . S
C336 C337 1.349 . S
C336 C338 1.327 . S
C336 H361 0.950 . S
C337 C336 1.349 . S
C337 C353 1.349 . S
C338 C336 1.327 . S
C338 C357 1.429 . S
C338 H362 0.950 . S
C339 C356 1.574 . S
C339 C358 1.368 . S
C339 H363 0.949 . S
H340 C344 0.949 . S
C341 C342 1.349 . S
C341 C343 1.327 . S
C341 H364 0.950 . S
C342 C341 1.349 . S
C342 C354 1.349 . S
C343 C341 1.327 . S
C343 C359 1.429 . S
C343 H365 0.950 . S
C344 H340 0.949 . S
C344 C352 1.574 . S
C344 C360 1.368 . S
H345 C353 0.950 . S
H346 C351 0.950 . S
H347 C352 0.949 . S
H348 C354 0.950 . S
H349 C355 0.950 . S
H350 C356 0.949 . S
C351 H346 0.950 . S
C351 C353 1.327 . S
C351 C357 1.429 . S
C352 C344 1.574 . S
C352 H347 0.949 . S
C352 C358 1.368 . S
C353 C337 1.349 . S
C353 H345 0.950 . S
C353 C351 1.327 . S
C354 C342 1.349 . S
C354 H348 0.950 . S
C354 C355 1.327 . S
C355 H349 0.950 . S
C355 C354 1.327 . S
C355 C359 1.429 . S
C356 C339 1.574 . S
C356 H350 0.949 . S
C356 C360 1.368 . S
C357 C338 1.429 . S
C357 C351 1.429 . S
C357 C358 1.523 . S
C358 C339 1.368 . S
C358 C352 1.368 . S
C358 C357 1.523 . S
C359 C343 1.429 . S
C359 C355 1.429 . S
C359 C360 1.523 . S
C360 C344 1.368 . S
C360 C356 1.368 . S
C360 C359 1.523 . S
H361 C336 0.950 . S
H362 C338 0.950 . S
H363 C339 0.949 . S
H364 C341 0.950 . S
H365 C343 0.950 . S
C366 C367 1.349 . S
C366 C368 1.327 . S
C366 H391 0.950 . S
C367 C366 1.349 . S
C367 C383 1.349 . S
C368 C366 1.327 . S
C368 C387 1.429 . S
C368 H392 0.950 . S
C369 C386 1.574 . S
C369 C388 1.368 . S
C369 H393 0.949 . S
H370 C374 0.949 . S
C371 C372 1.349 . S
C371 C373 1.327 . S
C371 H394 0.950 . S
C372 C371 1.349 . S
C372 C384 1.349 . S
C373 C371 1.327 . S
C373 C389 1.429 . S
C373 H395 0.950 . S
C374 H370 0.949 . S
C374 C382 1.574 . S
C374 C390 1.368 . S
H375 C383 0.950 . S
H376 C381 0.950 . S
H377 C382 0.949 . S
H378 C384 0.950 . S
H379 C385 0.950 . S
H380 C386 0.949 . S
C381 H376 0.950 . S
C381 C383 1.327 . S
C381 C387 1.429 . S
C382 C374 1.574 . S
C382 H377 0.949 . S
C382 C388 1.368 . S
C383 C367 1.349 . S
C383 H375 0.950 . S
C383 C381 1.327 . S
C384 C372 1.349 . S
C384 H378 0.950 . S
C384 C385 1.327 . S
C385 H379 0.950 . S
C385 C384 1.327 . S
C385 C389 1.429 . S
C386 C369 1.574 . S
C386 H380 0.949 . S
C386 C390 1.368 . S
C387 C368 1.429 . S
C387 C381 1.429 . S
C387 C388 1.523 . S
C388 C369 1.368 . S
C388 C382 1.368 . S
C388 C387 1.523 . S
C389 C373 1.429 . S
C389 C385 1.429 . S
C389 C390 1.523 . S
C390 C374 1.368 . S
C390 C386 1.368 . S
C390 C389 1.523 . S
H391 C366 0.950 . S
H392 C368 0.950 . S
H393 C369 0.949 . S
H394 C371 0.950 . S
H395 C373 0.950 . S
C396 C397 1.349 . S
C396 C398 1.327 . S
C396 H421 0.950 . S
C397 C396 1.349 . S
C397 C413 1.349 . S
C398 C396 1.327 . S
C398 C417 1.429 . S
C398 H422 0.950 . S
C399 C416 1.574 . S
C399 C418 1.368 . S
C399 H423 0.949 . S
H400 C404 0.949 . S
C401 C402 1.349 . S
C401 C403 1.327 . S
C401 H424 0.950 . S
C402 C401 1.349 . S
C402 C414 1.349 . S
C403 C401 1.327 . S
C403 C419 1.429 . S
C403 H425 0.950 . S
C404 H400 0.949 . S
C404 C412 1.574 . S
C404 C420 1.368 . S
H405 C413 0.950 . S
H406 C411 0.950 . S
H407 C412 0.949 . S
H408 C414 0.950 . S
H409 C415 0.950 . S
H410 C416 0.949 . S
C411 H406 0.950 . S
C411 C413 1.327 . S
C411 C417 1.429 . S
C412 C404 1.574 . S
C412 H407 0.949 . S
C412 C418 1.368 . S
C413 C397 1.349 . S
C413 H405 0.950 . S
C413 C411 1.327 . S
C414 C402 1.349 . S
C414 H408 0.950 . S
C414 C415 1.327 . S
C415 H409 0.950 . S
C415 C414 1.327 . S
C415 C419 1.429 . S
C416 C399 1.574 . S
C416 H410 0.949 . S
C416 C420 1.368 . S
C417 C398 1.429 . S
C417 C411 1.429 . S
C417 C418 1.523 . S
C418 C399 1.368 . S
C418 C412 1.368 . S
C418 C417 1.523 . S
C419 C403 1.429 . S
C419 C415 1.429 . S
C419 C420 1.523 . S
C420 C404 1.368 . S
C420 C416 1.368 . S
C420 C419 1.523 . S
H421 C396 0.950 . S
H422 C398 0.950 . S
H423 C399 0.949 . S
H424 C401 0.950 . S
H425 C403 0.950 . S
C426 C427 1.349 . S
C426 C428 1.327 . S
C426 H451 0.950 . S
C427 C426 1.349 . S
C427 C443 1.349 . S
C428 C426 1.327 . S
C428 C447 1.429 . S
C428 H452 0.950 . S
C429 C446 1.574 . S
C429 C448 1.368 . S
C429 H453 0.949 . S
H430 C434 0.949 . S
C431 C432 1.349 . S
C431 C433 1.327 . S
C431 H454 0.950 . S
C432 C431 1.349 . S
C432 C444 1.349 . S
C433 C431 1.327 . S
C433 C449 1.429 . S
C433 H455 0.950 . S
C434 H430 0.949 . S
C434 C442 1.574 . S
C434 C450 1.368 . S
H435 C443 0.950 . S
H436 C441 0.950 . S
H437 C442 0.949 . S
H438 C444 0.950 . S
H439 C445 0.950 . S
H440 C446 0.949 . S
C441 H436 0.950 . S
C441 C443 1.327 . S
C441 C447 1.429 . S
C442 C434 1.574 . S
C442 H437 0.949 . S
C442 C448 1.368 . S
C443 C427 1.349 . S
C443 H435 0.950 . S
C443 C441 1.327 . S
C444 C432 1.349 . S
C444 H438 0.950 . S
C444 C445 1.327 . S
C445 H439 0.950 . S
C445 C444 1.327 . S
C445 C449 1.429 . S
C446 C429 1.574 . S
C446 H440 0.949 . S
C446 C450 1.368 . S
C447 C428 1.429 . S
C447 C441 1.429 . S
C447 C448 1.523 . S
C448 C429 1.368 . S
C448 C442 1.368 . S
C448 C447 1.523 . S
C449 C433 1.429 . S
C449 C445 1.429 . S
C449 C450 1.523 . S
C450 C434 1.368 . S
C450 C446 1.368 . S
C450 C449 1.523 . S
H451 C426 0.950 . S
H452 C428 0.950 . S
H453 C429 0.949 . S
H454 C431 0.950 . S
H455 C433 0.950 . S
C456 C457 1.349 . S
C456 C458 1.327 . S
C456 H481 0.950 . S
C457 C456 1.349 . S
C457 C473 1.349 . S
C458 C456 1.327 . S
C458 C477 1.429 . S
C458 H482 0.950 . S
C459 C476 1.574 . S
C459 C478 1.368 . S
C459 H483 0.949 . S
H460 C464 0.949 . S
C461 C462 1.349 . S
C461 C463 1.327 . S
C461 H484 0.950 . S
C462 C461 1.349 . S
C462 C474 1.349 . S
C463 C461 1.327 . S
C463 C479 1.429 . S
C463 H485 0.950 . S
C464 H460 0.949 . S
C464 C472 1.574 . S
C464 C480 1.368 . S
H465 C473 0.950 . S
H466 C471 0.950 . S
H467 C472 0.949 . S
H468 C474 0.950 . S
H469 C475 0.950 . S
H470 C476 0.949 . S
C471 H466 0.950 . S
C471 C473 1.327 . S
C471 C477 1.429 . S
C472 C464 1.574 . S
C472 H467 0.949 . S
C472 C478 1.368 . S
C473 C457 1.349 . S
C473 H465 0.950 . S
C473 C471 1.327 . S
C474 C462 1.349 . S
C474 H468 0.950 . S
C474 C475 1.327 . S
C475 H469 0.950 . S
C475 C474 1.327 . S
C475 C479 1.429 . S
C476 C459 1.574 . S
C476 H470 0.949 . S
C476 C480 1.368 . S
C477 C458 1.429 . S
C477 C471 1.429 . S
C477 C478 1.523 . S
C478 C459 1.368 . S
C478 C472 1.368 . S
C478 C477 1.523 . S
C479 C463 1.429 . S
C479 C475 1.429 . S
C479 C480 1.523 . S
C480 C464 1.368 . S
C480 C476 1.368 . S
C480 C479 1.523 . S
H481 C456 0.950 . S
H482 C458 0.950 . S
H483 C459 0.949 . S
H484 C461 0.950 . S
H485 C463 0.950 . S
C486 C487 1.349 . S
C486 C488 1.327 . S
C486 H511 0.950 . S
C487 C486 1.349 . S
C487 C503 1.349 . S
C488 C486 1.327 . S
C488 C507 1.429 . S
C488 H512 0.950 . S
C489 C506 1.574 . S
C489 C508 1.368 . S
C489 H513 0.949 . S
H490 C494 0.949 . S
C491 C492 1.349 . S
C491 C493 1.327 . S
C491 H514 0.950 . S
C492 C491 1.349 . S
C492 C504 1.349 . S
C493 C491 1.327 . S
C493 C509 1.429 . S
C493 H515 0.950 . S
C494 H490 0.949 . S
C494 C502 1.574 . S
C494 C510 1.368 . S
H495 C503 0.950 . S
H496 C501 0.950 . S
H497 C502 0.949 . S
H498 C504 0.950 . S
H499 C505 0.950 . S
H500 C506 0.949 . S
C501 H496 0.950 . S
C501 C503 1.327 . S
C501 C507 1.429 . S
C502 C494 1.574 . S
C502 H497 0.949 . S
C502 C508 1.368 . S
C503 C487 1.349 . S
C503 H495 0.950 . S
C503 C501 1.327 . S
C504 C492 1.349 . S
C504 H498 0.950 . S
C504 C505 1.327 . S
C505 H499 0.950 . S
C505 C504 1.327 . S
C505 C509 1.429 . S
C506 C489 1.574 . S
C506 H500 0.949 . S
C506 C510 1.368 . S
C507 C488 1.429 . S
C507 C501 1.429 . S
C507 C508 1.523 . S
C508 C489 1.368 . S
C508 C502 1.368 . S
C508 C507 1.523 . S
C509 C493 1.429 . S
C509 C505 1.429 . S
C509 C510 1.523 . S
C510 C494 1.368 . S
C510 C506 1.368 . S
C510 C509 1.523 . S
H511 C486 0.950 . S
H512 C488 0.950 . S
H513 C489 0.949 . S
H514 C491 0.950 . S
H515 C493 0.950 . S
C516 C517 1.349 . S
C516 C518 1.327 . S
C516 H541 0.950 . S
C517 C516 1.349 . S
C517 C533 1.349 . S
C518 C516 1.327 . S
C518 C537 1.429 . S
C518 H542 0.950 . S
C519 C536 1.574 . S
C519 C538 1.368 . S
C519 H543 0.949 . S
H520 C524 0.949 . S
C521 C522 1.349 . S
C521 C523 1.327 . S
C521 H544 0.950 . S
C522 C521 1.349 . S
C522 C534 1.349 . S
C523 C521 1.327 . S
C523 C539 1.429 . S
C523 H545 0.950 . S
C524 H520 0.949 . S
C524 C532 1.574 . S
C524 C540 1.368 . S
H525 C533 0.950 . S
H526 C531 0.950 . S
H527 C532 0.949 . S
H528 C534 0.950 . S
H529 C535 0.950 . S
H530 C536 0.949 . S
C531 H526 0.950 . S
C531 C533 1.327 . S
C531 C537 1.429 . S
C532 C524 1.574 . S
C532 H527 0.949 . S
C532 C538 1.368 . S
C533 C517 1.349 . S
C533 H525 0.950 . S
C533 C531 1.327 . S
C534 C522 1.349 . S
C534 H528 0.950 . S
C534 C535 1.327 . S
C535 H529 0.950 . S
C535 C534 1.327 . S
C535 C539 1.429 . S
C536 C519 1.574 . S
C536 H530 0.949 . S
C536 C540 1.368 . S
C537 C518 1.429 . S
C537 C531 1.429 . S
C537 C538 1.523 . S
C538 C519 1.368 . S
C538 C532 1.368 . S
C538 C537 1.523 . S
C539 C523 1.429 . S
C539 C535 1.429 . S
C539 C540 1.523 . S
C540 C524 1.368 . S
C540 C536 1.368 . S
C540 C539 1.523 . S
H541 C516 0.950 . S
H542 C518 0.950 . S
H543 C519 0.949 . S
H544 C521 0.950 . S
H545 C523 0.950 . S
C546 C547 1.349 . S
C546 C548 1.327 . S
C546 H571 0.950 . S
C547 C546 1.349 . S
C547 C563 1.349 . S
C548 C546 1.327 . S
C548 C567 1.429 . S
C548 H572 0.950 . S
C549 C566 1.574 . S
C549 C568 1.368 . S
C549 H573 0.949 . S
H550 C554 0.949 . S
C551 C552 1.349 . S
C551 C553 1.327 . S
C551 H574 0.950 . S
C552 C551 1.349 . S
C552 C564 1.349 . S
C553 C551 1.327 . S
C553 C569 1.429 . S
C553 H575 0.950 . S
C554 H550 0.949 . S
C554 C562 1.574 . S
C554 C570 1.368 . S
H555 C563 0.950 . S
H556 C561 0.950 . S
H557 C562 0.949 . S
H558 C564 0.950 . S
H559 C565 0.950 . S
H560 C566 0.949 . S
C561 H556 0.950 . S
C561 C563 1.327 . S
C561 C567 1.429 . S
C562 C554 1.574 . S
C562 H557 0.949 . S
C562 C568 1.368 . S
C563 C547 1.349 . S
C563 H555 0.950 . S
C563 C561 1.327 . S
C564 C552 1.349 . S
C564 H558 0.950 . S
C564 C565 1.327 . S
C565 H559 0.950 . S
C565 C564 1.327 . S
C565 C569 1.429 . S
C566 C549 1.574 . S
C566 H560 0.949 . S
C566 C570 1.368 . S
C567 C548 1.429 . S
C567 C561 1.429 . S
C567 C568 1.523 . S
C568 C549 1.368 . S
C568 C562 1.368 . S
C568 C567 1.523 . S
C569 C553 1.429 . S
C569 C565 1.429 . S
C569 C570 1.523 . S
C570 C554 1.368 . S
C570 C566 1.368 . S
C570 C569 1.523 . S
H571 C546 0.950 . S
H572 C548 0.950 . S
H573 C549 0.949 . S
H574 C551 0.950 . S
H575 C553 0.950 . S
C576 C577 1.349 . S
C576 C578 1.327 . S
C576 H601 0.950 . S
C577 C576 1.349 . S
C577 C593 1.349 . S
C578 C576 1.327 . S
C578 C597 1.429 . S
C578 H602 0.950 . S
C579 C596 1.574 . S
C579 C598 1.368 . S
C579 H603 0.949 . S
H580 C584 0.949 . S
C581 C582 1.349 . S
C581 C583 1.327 . S
C581 H604 0.950 . S
C582 C581 1.349 . S
C582 C594 1.349 . S
C583 C581 1.327 . S
C583 C599 1.429 . S
C583 H605 0.950 . S
C584 H580 0.949 . S
C584 C592 1.574 . S
C584 C600 1.368 . S
H585 C593 0.950 . S
H586 C591 0.950 . S
H587 C592 0.949 . S
H588 C594 0.950 . S
H589 C595 0.950 . S
H590 C596 0.949 . S
C591 H586 0.950 . S
C591 C593 1.327 . S
C591 C597 1.429 . S
C592 C584 1.574 . S
C592 H587 0.949 . S
C592 C598 1.368 . S
C593 C577 1.349 . S
C593 H585 0.950 . S
C593 C591 1.327 . S
C594 C582 1.349 . S
C594 H588 0.950 . S
C594 C595 1.327 . S
C595 H589 0.950 . S
C595 C594 1.327 . S
C595 C599 1.429 . S
C596 C579 1.574 . S
C596 H590 0.949 . S
C596 C600 1.368 . S
C597 C578 1.429 . S
C597 C591 1.429 . S
C597 C598 1.523 . S
C598 C579 1.368 . S
C598 C592 1.368 . S
C598 C597 1.523 . S
C599 C583 1.429 . S
C599 C595 1.429 . S
C599 C600 1.523 . S
C600 C584 1.368 . S
C600 C596 1.368 . S
C600 C599 1.523 . S
H601 C576 0.950 . S
H602 C578 0.950 . S
H603 C579 0.949 . S
H604 C581 0.950 . S
H605 C583 0.950 . S
C606 C607 1.349 . S
C606 C608 1.327 . S
C606 H631 0.950 . S
C607 C606 1.349 . S
C607 C623 1.349 . S
C608 C606 1.327 . S
C608 C627 1.429 . S
C608 H632 0.950 . S
C609 C626 1.574 . S
C609 C628 1.368 . S
C609 H633 0.949 . S
H610 C614 0.949 . S
C611 C612 1.349 . S
C611 C613 1.327 . S
C611 H634 0.950 . S
C612 C611 1.349 . S
C612 C624 1.349 . S
C613 C611 1.327 . S
C613 C629 1.429 . S
C613 H635 0.950 . S
C614 H610 0.949 . S
C614 C622 1.574 . S
C614 C630 1.368 . S
H615 C623 0.950 . S
H616 C621 0.950 . S
H617 C622 0.949 . S
H618 C624 0.950 . S
H619 C625 0.950 . S
H620 C626 0.949 . S
C621 H616 0.950 . S
C621 C623 1.327 . S
C621 C627 1.429 . S
C622 C614 1.574 . S
C622 H617 0.949 . S
C622 C628 1.368 . S
C623 C607 1.349 . S
C623 H615 0.950 . S
C623 C621 1.327 . S
C624 C612 1.349 . S
C624 H618 0.950 . S
C624 C625 1.327 . S
C625 H619 0.950 . S
C625 C624 1.327 . S
C625 C629 1.429 . S
C626 C609 1.574 . S
C626 H620 0.949 . S
C626 C630 1.368 . S
C627 C608 1.429 . S
C627 C621 1.429 . S
C627 C628 1.523 . S
C628 C609 1.368 . S
C628 C622 1.368 . S
C628 C627 1.523 . S
C629 C613 1.429 . S
C629 C625 1.429 . S
C629 C630 1.523 . S
C630 C614 1.368 . S
C630 C626 1.368 . S
C630 C629 1.523 . S
H631 C606 0.950 . S
H632 C608 0.950 . S
H633 C609 0.949 . S
H634 C611 0.950 . S
H635 C613 0.950 . S
C636 C637 1.349 . S
C636 C638 1.327 . S
C636 H661 0.950 . S
C637 C636 1.349 . S
C637 C653 1.349 . S
C638 C636 1.327 . S
C638 C657 1.429 . S
C638 H662 0.950 . S
C639 C656 1.574 . S
C639 C658 1.368 . S
C639 H663 0.949 . S
H640 C644 0.949 . S
C641 C642 1.349 . S
C641 C643 1.327 . S
C641 H664 0.950 . S
C642 C641 1.349 . S
C642 C654 1.349 . S
C643 C641 1.327 . S
C643 C659 1.429 . S
C643 H665 0.950 . S
C644 H640 0.949 . S
C644 C652 1.574 . S
C644 C660 1.368 . S
H645 C653 0.950 . S
H646 C651 0.950 . S
H647 C652 0.949 . S
H648 C654 0.950 . S
H649 C655 0.950 . S
H650 C656 0.949 . S
C651 H646 0.950 . S
C651 C653 1.327 . S
C651 C657 1.429 . S
C652 C644 1.574 . S
C652 H647 0.949 . S
C652 C658 1.368 . S
C653 C637 1.349 . S
C653 H645 0.950 . S
C653 C651 1.327 . S
C654 C642 1.349 . S
C654 H648 0.950 . S
C654 C655 1.327 . S
C655 H649 0.950 . S
C655 C654 1.327 . S
C655 C659 1.429 . S
C656 C639 1.574 . S
C656 H650 0.949 . S
C656 C660 1.368 . S
C657 C638 1.429 . S
C657 C651 1.429 . S
C657 C658 1.523 . S
C658 C639 1.368 . S
C658 C652 1.368 . S
C658 C657 1.523 . S
C659 C643 1.429 . S
C659 C655 1.429 . S
C659 C660 1.523 . S
C660 C644 1.368 . S
C660 C656 1.368 . S
C660 C659 1.523 . S
H661 C636 0.950 . S
H662 C638 0.950 . S
H663 C639 0.949 . S
H664 C641 0.950 . S
H665 C643 0.950 . S
C666 C667 1.349 . S
C666 C668 1.327 . S
C666 H691 0.950 . S
C667 C666 1.349 . S
C667 C683 1.349 . S
C668 C666 1.327 . S
C668 C687 1.429 . S
C668 H692 0.950 . S
C669 C686 1.574 . S
C669 C688 1.368 . S
C669 H693 0.949 . S
H670 C674 0.949 . S
C671 C672 1.349 . S
C671 C673 1.327 . S
C671 H694 0.950 . S
C672 C671 1.349 . S
C672 C684 1.349 . S
C673 C671 1.327 . S
C673 C689 1.429 . S
C673 H695 0.950 . S
C674 H670 0.949 . S
C674 C682 1.574 . S
C674 C690 1.368 . S
H675 C683 0.950 . S
H676 C681 0.950 . S
H677 C682 0.949 . S
H678 C684 0.950 . S
H679 C685 0.950 . S
H680 C686 0.949 . S
C681 H676 0.950 . S
C681 C683 1.327 . S
C681 C687 1.429 . S
C682 C674 1.574 . S
C682 H677 0.949 . S
C682 C688 1.368 . S
C683 C667 1.349 . S
C683 H675 0.950 . S
C683 C681 1.327 . S
C684 C672 1.349 . S
C684 H678 0.950 . S
C684 C685 1.327 . S
C685 H679 0.950 . S
C685 C684 1.327 . S
C685 C689 1.429 . S
C686 C669 1.574 . S
C686 H680 0.949 . S
C686 C690 1.368 . S
C687 C668 1.429 . S
C687 C681 1.429 . S
C687 C688 1.523 . S
C688 C669 1.368 . S
C688 C682 1.368 . S
C688 C687 1.523 . S
C689 C673 1.429 . S
C689 C685 1.429 . S
C689 C690 1.523 . S
C690 C674 1.368 . S
C690 C686 1.368 . S
C690 C689 1.523 . S
H691 C666 0.950 . S
H692 C668 0.950 . S
H693 C669 0.949 . S
H694 C671 0.950 . S
H695 C673 0.950 . S
C696 C697 1.349 . S
C696 C698 1.327 . S
C696 H721 0.950 . S
C697 C696 1.349 . S
C697 C713 1.349 . S
C698 C696 1.327 . S
C698 C717 1.429 . S
C698 H722 0.968 . S
C699 C716 1.574 . S
C699 C718 1.368 . S
C699 H723 0.949 . S
H700 C704 0.949 . S
C701 C702 1.349 . S
C701 C703 1.327 . S
C701 H724 0.950 . S
C702 C701 1.349 . S
C702 C714 1.349 . S
C703 C701 1.327 . S
C703 C719 1.429 . S
C703 H725 0.968 . S
C704 H700 0.949 . S
C704 C712 1.574 . S
C704 C720 1.368 . S
H705 C713 0.950 . S
H706 C711 0.950 . S
H707 C712 0.949 . S
H708 C714 0.950 . S
H709 C715 0.950 . S
H710 C716 0.949 . S
C711 H706 0.950 . S
C711 C713 1.327 . S
C711 C717 1.429 . S
C712 C704 1.574 . S
C712 H707 0.949 . S
C712 C718 1.368 1_554 S
C713 C697 1.349 . S
C713 H705 0.950 . S
C713 C711 1.327 . S
C714 C702 1.349 . S
C714 H708 0.950 . S
C714 C715 1.327 . S
C715 H709 0.950 . S
C715 C714 1.327 . S
C715 C719 1.429 . S
C716 C699 1.574 . S
C716 H710 0.949 . S
C716 C720 1.368 1_556 S
C717 C698 1.429 . S
C717 C711 1.429 . S
C717 C718 1.523 . S
C718 C699 1.368 . S
C718 C712 1.368 1_556 S
C718 C717 1.523 . S
C719 C703 1.429 . S
C719 C715 1.429 . S
C719 C720 1.523 . S
C720 C704 1.368 . S
C720 C716 1.368 1_554 S
C720 C719 1.523 . S
H721 C696 0.950 . S
H722 C698 0.968 . S
H723 C699 0.949 . S
H724 C701 0.950 . S
H725 C703 0.968 . S
C726 C727 1.349 . S
C726 C728 1.327 . S
C726 H751 0.950 . S
C727 C726 1.349 . S
C727 C743 1.349 . S
C728 C726 1.327 . S
C728 C747 1.429 . S
C728 H752 0.950 . S
C729 C746 1.574 . S
C729 C748 1.368 . S
C729 H753 0.949 . S
H730 C734 0.949 . S
C731 C732 1.349 . S
C731 C733 1.327 . S
C731 H754 0.950 . S
C732 C731 1.349 . S
C732 C744 1.349 . S
C733 C731 1.327 . S
C733 C749 1.429 . S
C733 H755 0.950 . S
C734 H730 0.949 . S
C734 C742 1.574 . S
C734 C750 1.368 . S
H735 C743 0.950 . S
H736 C741 0.950 . S
H737 C742 0.949 . S
H738 C744 0.950 . S
H739 C745 0.950 . S
H740 C746 0.949 . S
C741 H736 0.950 . S
C741 C743 1.327 . S
C741 C747 1.429 . S
C742 C734 1.574 . S
C742 H737 0.949 . S
C742 C748 1.368 . S
C743 C727 1.349 . S
C743 H735 0.950 . S
C743 C741 1.327 . S
C744 C732 1.349 . S
C744 H738 0.950 . S
C744 C745 1.327 . S
C745 H739 0.950 . S
C745 C744 1.327 . S
C745 C749 1.429 . S
C746 C729 1.574 . S
C746 H740 0.949 . S
C746 C750 1.368 . S
C747 C728 1.429 . S
C747 C741 1.429 . S
C747 C748 1.523 . S
C748 C729 1.368 . S
C748 C742 1.368 . S
C748 C747 1.523 . S
C749 C733 1.429 . S
C749 C745 1.429 . S
C749 C750 1.523 . S
C750 C734 1.368 . S
C750 C746 1.368 . S
C750 C749 1.523 . S
H751 C726 0.950 . S
H752 C728 0.950 . S
H753 C729 0.949 . S
H754 C731 0.950 . S
H755 C733 0.950 . S
C756 C757 1.349 . S
C756 C758 1.327 . S
C756 H781 0.950 . S
C757 C756 1.349 . S
C757 C773 1.349 . S
C758 C756 1.327 . S
C758 C777 1.429 . S
C758 H782 0.950 . S
C759 C776 1.574 . S
C759 C778 1.368 . S
C759 H783 0.949 . S
H760 C764 0.949 . S
C761 C762 1.349 . S
C761 C763 1.327 . S
C761 H784 0.950 . S
C762 C761 1.349 . S
C762 C774 1.349 . S
C763 C761 1.327 . S
C763 C779 1.429 . S
C763 H785 0.950 . S
C764 H760 0.949 . S
C764 C772 1.574 . S
C764 C780 1.368 . S
H765 C773 0.950 . S
H766 C771 0.950 . S
H767 C772 0.949 . S
H768 C774 0.950 . S
H769 C775 0.950 . S
H770 C776 0.949 . S
C771 H766 0.950 . S
C771 C773 1.327 . S
C771 C777 1.429 . S
C772 C764 1.574 . S
C772 H767 0.949 . S
C772 C778 1.368 1_556 S
C773 C757 1.349 . S
C773 H765 0.950 . S
C773 C771 1.327 . S
C774 C762 1.349 . S
C774 H768 0.950 . S
C774 C775 1.327 . S
C775 H769 0.950 . S
C775 C774 1.327 . S
C775 C779 1.429 . S
C776 C759 1.574 . S
C776 H770 0.949 . S
C776 C780 1.368 1_554 S
C777 C758 1.429 . S
C777 C771 1.429 . S
C777 C778 1.523 . S
C778 C759 1.368 . S
C778 C772 1.368 1_554 S
C778 C777 1.523 . S
C779 C763 1.429 . S
C779 C775 1.429 . S
C779 C780 1.523 . S
C780 C764 1.368 . S
C780 C776 1.368 1_556 S
C780 C779 1.523 . S
H781 C756 0.950 . S
H782 C758 0.950 . S
H783 C759 0.949 . S
H784 C761 0.950 . S
H785 C763 0.950 . S
C786 C787 1.349 . S
C786 C788 1.327 . S
C786 H811 0.950 . S
C787 C786 1.349 . S
C787 C803 1.349 . S
C788 C786 1.327 . S
C788 C807 1.429 . S
C788 H812 0.950 . S
C789 C806 1.574 . S
C789 C808 1.368 . S
C789 H813 0.949 . S
H790 C794 0.949 . S
C791 C792 1.349 . S
C791 C793 1.327 . S
C791 H814 0.950 . S
C792 C791 1.349 . S
C792 C804 1.349 . S
C793 C791 1.327 . S
C793 C809 1.429 . S
C793 H815 0.950 . S
C794 H790 0.949 . S
C794 C802 1.574 . S
C794 C810 1.368 . S
H795 C803 0.950 . S
H796 C801 0.950 . S
H797 C802 0.949 . S
H798 C804 0.950 . S
H799 C805 0.950 . S
H800 C806 0.949 . S
C801 H796 0.950 . S
C801 C803 1.327 . S
C801 C807 1.429 . S
C802 C794 1.574 . S
C802 H797 0.949 . S
C802 C808 1.368 . S
C803 C787 1.349 . S
C803 H795 0.950 . S
C803 C801 1.327 . S
C804 C792 1.349 . S
C804 H798 0.950 . S
C804 C805 1.327 . S
C805 H799 0.950 . S
C805 C804 1.327 . S
C805 C809 1.429 . S
C806 C789 1.574 . S
C806 H800 0.949 . S
C806 C810 1.368 . S
C807 C788 1.429 . S
C807 C801 1.429 . S
C807 C808 1.523 . S
C808 C789 1.368 . S
C808 C802 1.368 . S
C808 C807 1.523 . S
C809 C793 1.429 . S
C809 C805 1.429 . S
C809 C810 1.523 . S
C810 C794 1.368 . S
C810 C806 1.368 . S
C810 C809 1.523 . S
H811 C786 0.950 . S
H812 C788 0.950 . S
H813 C789 0.949 . S
H814 C791 0.950 . S
H815 C793 0.950 . S
C816 C817 1.349 . S
C816 C818 1.327 . S
C816 H841 0.950 . S
C817 C816 1.349 . S
C817 C833 1.349 . S
C818 C816 1.327 . S
C818 C837 1.429 . S
C818 H842 0.950 . S
C819 C836 1.574 1_556 S
C819 C838 1.368 . S
C819 H843 0.949 . S
H820 C824 0.949 . S
C821 C822 1.349 . S
C821 C823 1.327 . S
C821 H844 0.950 . S
C822 C821 1.349 . S
C822 C834 1.349 . S
C823 C821 1.327 . S
C823 C839 1.429 . S
C823 H845 0.950 . S
C824 H820 0.949 . S
C824 C832 1.574 1_554 S
C824 C840 1.368 . S
H825 C833 0.950 . S
H826 C831 0.950 . S
H827 C832 0.949 . S
H828 C834 0.950 . S
H829 C835 0.950 . S
H830 C836 0.949 . S
C831 H826 0.950 . S
C831 C833 1.327 . S
C831 C837 1.429 . S
C832 C824 1.574 1_556 S
C832 H827 0.949 . S
C832 C838 1.368 . S
C833 C817 1.349 . S
C833 H825 0.950 . S
C833 C831 1.327 . S
C834 C822 1.349 . S
C834 H828 0.950 . S
C834 C835 1.327 . S
C835 H829 0.950 . S
C835 C834 1.327 . S
C835 C839 1.429 . S
C836 C819 1.574 1_554 S
C836 H830 0.949 . S
C836 C840 1.368 . S
C837 C818 1.429 . S
C837 C831 1.429 . S
C837 C838 1.523 . S
C838 C819 1.368 . S
C838 C832 1.368 . S
C838 C837 1.523 . S
C839 C823 1.429 . S
C839 C835 1.429 . S
C839 C840 1.523 . S
C840 C824 1.368 . S
C840 C836 1.368 . S
C840 C839 1.523 . S
H841 C816 0.950 . S
H842 C818 0.950 . S
H843 C819 0.949 . S
H844 C821 0.950 . S
H845 C823 0.950 . S
C846 C847 1.349 . S
C846 C848 1.327 . S
C846 H871 0.950 . S
C847 C846 1.349 . S
C847 C863 1.349 . S
C848 C846 1.327 . S
C848 C867 1.429 . S
C848 H872 0.950 . S
C849 C866 1.574 . S
C849 C868 1.368 . S
C849 H873 0.949 . S
H850 C854 0.949 . S
C851 C852 1.349 . S
C851 C853 1.327 . S
C851 H874 0.950 . S
C852 C851 1.349 . S
C852 C864 1.349 . S
C853 C851 1.327 . S
C853 C869 1.429 . S
C853 H875 0.950 . S
C854 H850 0.949 . S
C854 C862 1.574 . S
C854 C870 1.368 . S
H855 C863 0.950 . S
H856 C861 0.950 . S
H857 C862 0.949 . S
H858 C864 0.950 . S
H859 C865 0.950 . S
H860 C866 0.949 . S
C861 H856 0.950 . S
C861 C863 1.327 . S
C861 C867 1.429 . S
C862 C854 1.574 . S
C862 H857 0.949 . S
C862 C868 1.368 . S
C863 C847 1.349 . S
C863 H855 0.950 . S
C863 C861 1.327 . S
C864 C852 1.349 . S
C864 H858 0.950 . S
C864 C865 1.327 . S
C865 H859 0.950 . S
C865 C864 1.327 . S
C865 C869 1.429 . S
C866 C849 1.574 . S
C866 H860 0.949 . S
C866 C870 1.368 . S
C867 C848 1.429 . S
C867 C861 1.429 . S
C867 C868 1.523 . S
C868 C849 1.368 . S
C868 C862 1.368 . S
C868 C867 1.523 . S
C869 C853 1.429 . S
C869 C865 1.429 . S
C869 C870 1.523 . S
C870 C854 1.368 . S
C870 C866 1.368 . S
C870 C869 1.523 . S
H871 C846 0.950 . S
H872 C848 0.950 . S
H873 C849 0.949 . S
H874 C851 0.950 . S
H875 C853 0.950 . S
C876 C877 1.349 . S
C876 C878 1.327 . S
C876 H901 0.950 . S
C877 C876 1.349 . S
C877 C893 1.349 . S
C878 C876 1.327 . S
C878 C897 1.429 . S
C878 H902 0.968 . S
C879 C896 1.574 . S
C879 C898 1.368 . S
C879 H903 0.949 . S
H880 C884 0.949 . S
C881 C882 1.349 . S
C881 C883 1.327 . S
C881 H904 0.950 . S
C882 C881 1.349 . S
C882 C894 1.349 . S
C883 C881 1.327 . S
C883 C899 1.429 . S
C883 H905 0.968 . S
C884 H880 0.949 . S
C884 C892 1.574 . S
C884 C900 1.368 . S
H885 C893 0.950 . S
H886 C891 0.950 . S
H887 C892 0.949 . S
H888 C894 0.950 . S
H889 C895 0.950 . S
H890 C896 0.949 . S
C891 H886 0.950 . S
C891 C893 1.327 . S
C891 C897 1.429 . S
C892 C884 1.574 . S
C892 H887 0.949 . S
C892 C898 1.368 1_556 S
C893 C877 1.349 . S
C893 H885 0.950 . S
C893 C891 1.327 . S
C894 C882 1.349 . S
C894 H888 0.950 . S
C894 C895 1.327 . S
C895 H889 0.950 . S
C895 C894 1.327 . S
C895 C899 1.429 . S
C896 C879 1.574 . S
C896 H890 0.949 . S
C896 C900 1.368 1_554 S
C897 C878 1.429 . S
C897 C891 1.429 . S
C897 C898 1.523 . S
C898 C879 1.368 . S
C898 C892 1.368 1_554 S
C898 C897 1.523 . S
C899 C883 1.429 . S
C899 C895 1.429 . S
C899 C900 1.523 . S
C900 C884 1.368 . S
C900 C896 1.368 1_556 S
C900 C899 1.523 . S
H901 C876 0.950 . S
H902 C878 0.968 . S
H903 C879 0.949 . S
H904 C881 0.950 . S
H905 C883 0.968 . S
C906 C907 1.349 . S
C906 C908 1.327 . S
C906 H931 0.950 . S
C907 C906 1.349 . S
C907 C923 1.349 . S
C908 C906 1.327 . S
C908 C927 1.429 . S
C908 H932 0.950 . S
C909 C926 1.574 . S
C909 C928 1.368 . S
C909 H933 0.949 . S
H910 C914 0.949 . S
C911 C912 1.349 . S
C911 C913 1.327 . S
C911 H934 0.950 . S
C912 C911 1.349 . S
C912 C924 1.349 . S
C913 C911 1.327 . S
C913 C929 1.429 . S
C913 H935 0.950 . S
C914 H910 0.949 . S
C914 C922 1.574 . S
C914 C930 1.368 . S
H915 C923 0.950 . S
H916 C921 0.950 . S
H917 C922 0.949 . S
H918 C924 0.950 . S
H919 C925 0.950 . S
H920 C926 0.949 . S
C921 H916 0.950 . S
C921 C923 1.327 . S
C921 C927 1.429 . S
C922 C914 1.574 . S
C922 H917 0.949 . S
C922 C928 1.368 . S
C923 C907 1.349 . S
C923 H915 0.950 . S
C923 C921 1.327 . S
C924 C912 1.349 . S
C924 H918 0.950 . S
C924 C925 1.327 . S
C925 H919 0.950 . S
C925 C924 1.327 . S
C925 C929 1.429 . S
C926 C909 1.574 . S
C926 H920 0.949 . S
C926 C930 1.368 . S
C927 C908 1.429 . S
C927 C921 1.429 . S
C927 C928 1.523 . S
C928 C909 1.368 . S
C928 C922 1.368 . S
C928 C927 1.523 . S
C929 C913 1.429 . S
C929 C925 1.429 . S
C929 C930 1.523 . S
C930 C914 1.368 . S
C930 C926 1.368 . S
C930 C929 1.523 . S
H931 C906 0.950 . S
H932 C908 0.950 . S
H933 C909 0.949 . S
H934 C911 0.950 . S
H935 C913 0.950 . S
C936 C937 1.349 . S
C936 C938 1.327 . S
C936 H961 0.950 . S
C937 C936 1.349 . S
C937 C953 1.349 . S
C938 C936 1.327 . S
C938 C957 1.429 . S
C938 H962 0.950 . S
C939 C956 1.574 . S
C939 C958 1.368 1_554 S
C939 H963 0.949 . S
H940 C944 0.949 . S
C941 C942 1.349 . S
C941 C943 1.327 . S
C941 H964 0.950 . S
C942 C941 1.349 . S
C942 C954 1.349 . S
C943 C941 1.327 . S
C943 C959 1.429 . S
C943 H965 0.950 . S
C944 H940 0.949 . S
C944 C952 1.574 . S
C944 C960 1.368 1_556 S
H945 C953 0.950 . S
H946 C951 0.950 1_554 S
H947 C952 0.949 . S
H948 C954 0.950 . S
H949 C955 0.950 1_556 S
H950 C956 0.949 . S
C951 H946 0.950 1_556 S
C951 C953 1.327 . S
C951 C957 1.429 . S
C952 C944 1.574 . S
C952 H947 0.949 . S
C952 C958 1.368 . S
C953 C937 1.349 . S
C953 H945 0.950 . S
C953 C951 1.327 . S
C954 C942 1.349 . S
C954 H948 0.950 . S
C954 C955 1.327 . S
C955 H949 0.950 1_554 S
C955 C954 1.327 . S
C955 C959 1.429 . S
C956 C939 1.574 . S
C956 H950 0.949 . S
C956 C960 1.368 . S
C957 C938 1.429 . S
C957 C951 1.429 . S
C957 C958 1.523 . S
C958 C939 1.368 1_556 S
C958 C952 1.368 . S
C958 C957 1.523 . S
C959 C943 1.429 . S
C959 C955 1.429 . S
C959 C960 1.523 . S
C960 C944 1.368 1_554 S
C960 C956 1.368 . S
C960 C959 1.523 . S
H961 C936 0.950 . S
H962 C938 0.950 . S
H963 C939 0.949 . S
H964 C941 0.950 . S
H965 C943 0.950 . S
C966 C967 1.349 . S
C966 C968 1.327 . S
C966 H991 0.950 . S
C967 C966 1.349 . S
C967 C983 1.349 . S
C968 C966 1.327 . S
C968 C987 1.429 . S
C968 H992 0.950 . S
C969 C986 1.574 . S
C969 C988 1.368 . S
C969 H993 0.949 . S
H970 C974 0.949 . S
C971 C972 1.349 . S
C971 C973 1.327 . S
C971 H994 0.950 . S
C972 C971 1.349 . S
C972 C984 1.349 . S
C973 C971 1.327 . S
C973 C989 1.429 . S
C973 H995 0.950 . S
C974 H970 0.949 . S
C974 C982 1.574 . S
C974 C990 1.368 . S
H975 C983 0.950 . S
H976 C981 0.950 . S
H977 C982 0.949 . S
H978 C984 0.950 . S
H979 C985 0.950 . S
H980 C986 0.949 . S
C981 H976 0.950 . S
C981 C983 1.327 . S
C981 C987 1.429 . S
C982 C974 1.574 . S
C982 H977 0.949 . S
C982 C988 1.368 . S
C983 C967 1.349 . S
C983 H975 0.950 . S
C983 C981 1.327 . S
C984 C972 1.349 . S
C984 H978 0.950 . S
C984 C985 1.327 . S
C985 H979 0.950 . S
C985 C984 1.327 . S
C985 C989 1.429 . S
C986 C969 1.574 . S
C986 H980 0.949 . S
C986 C990 1.368 . S
C987 C968 1.429 . S
C987 C981 1.429 . S
C987 C988 1.523 . S
C988 C969 1.368 . S
C988 C982 1.368 . S
C988 C987 1.523 . S
C989 C973 1.429 . S
C989 C985 1.429 . S
C989 C990 1.523 . S
C990 C974 1.368 . S
C990 C986 1.368 . S
C990 C989 1.523 . S
H991 C966 0.950 . S
H992 C968 0.950 . S
H993 C969 0.949 . S
H994 C971 0.950 . S
H995 C973 0.950 . S
C996 C997 1.349 . S
C996 C998 1.327 . S
C996 H1021 0.950 . S
C997 C996 1.349 . S
C997 C1013 1.349 . S
C998 C996 1.327 . S
C998 C1017 1.429 . S
C998 H1022 0.950 . S
C999 C1016 1.574 . S
C999 C1018 1.368 1_554 S
C999 H1023 0.949 . S
H1000 C1004 0.949 . S
C1001 C1002 1.349 . S
C1001 C1003 1.327 . S
C1001 H1024 0.950 . S
C1002 C1001 1.349 . S
C1002 C1014 1.349 . S
C1003 C1001 1.327 . S
C1003 C1019 1.429 . S
C1003 H1025 0.950 . S
C1004 H1000 0.949 . S
C1004 C1012 1.574 . S
C1004 C1020 1.368 1_556 S
H1005 C1013 0.950 . S
H1006 C1011 0.975 . S
H1007 C1012 0.949 . S
H1008 C1014 0.950 . S
H1009 C1015 0.975 . S
H1010 C1016 0.949 . S
C1011 H1006 0.975 . S
C1011 C1013 1.327 . S
C1011 C1017 1.429 . S
C1012 C1004 1.574 . S
C1012 H1007 0.949 . S
C1012 C1018 1.368 . S
C1013 C997 1.349 . S
C1013 H1005 0.950 . S
C1013 C1011 1.327 . S
C1014 C1002 1.349 . S
C1014 H1008 0.950 . S
C1014 C1015 1.327 . S
C1015 H1009 0.975 . S
C1015 C1014 1.327 . S
C1015 C1019 1.429 . S
C1016 C999 1.574 . S
C1016 H1010 0.949 . S
C1016 C1020 1.368 . S
C1017 C998 1.429 . S
C1017 C1011 1.429 . S
C1017 C1018 1.523 . S
C1018 C999 1.368 1_556 S
C1018 C1012 1.368 . S
C1018 C1017 1.523 . S
C1019 C1003 1.429 . S
C1019 C1015 1.429 . S
C1019 C1020 1.523 . S
C1020 C1004 1.368 1_554 S
C1020 C1016 1.368 . S
C1020 C1019 1.523 . S
H1021 C996 0.950 . S
H1022 C998 0.950 . S
H1023 C999 0.949 . S
H1024 C1001 0.950 . S
H1025 C1003 0.950 . S
C1026 C1027 1.349 . S
C1026 C1028 1.327 . S
C1026 H1051 0.950 . S
C1027 C1026 1.349 . S
C1027 C1043 1.349 . S
C1028 C1026 1.327 . S
C1028 C1047 1.429 . S
C1028 H1052 0.950 . S
C1029 C1046 1.574 . S
C1029 C1048 1.368 . S
C1029 H1053 0.949 . S
H1030 C1034 0.949 . S
C1031 C1032 1.349 . S
C1031 C1033 1.327 . S
C1031 H1054 0.950 . S
C1032 C1031 1.349 . S
C1032 C1044 1.349 . S
C1033 C1031 1.327 . S
C1033 C1049 1.429 . S
C1033 H1055 0.950 . S
C1034 H1030 0.949 . S
C1034 C1042 1.574 . S
C1034 C1050 1.368 . S
H1035 C1043 0.950 . S
H1036 C1041 0.950 . S
H1037 C1042 0.949 . S
H1038 C1044 0.950 . S
H1039 C1045 0.950 . S
H1040 C1046 0.949 . S
C1041 H1036 0.950 . S
C1041 C1043 1.327 . S
C1041 C1047 1.429 . S
C1042 C1034 1.574 . S
C1042 H1037 0.949 . S
C1042 C1048 1.368 . S
C1043 C1027 1.349 . S
C1043 H1035 0.950 . S
C1043 C1041 1.327 . S
C1044 C1032 1.349 . S
C1044 H1038 0.950 . S
C1044 C1045 1.327 . S
C1045 H1039 0.950 . S
C1045 C1044 1.327 . S
C1045 C1049 1.429 . S
C1046 C1029 1.574 . S
C1046 H1040 0.949 . S
C1046 C1050 1.368 . S
C1047 C1028 1.429 . S
C1047 C1041 1.429 . S
C1047 C1048 1.523 . S
C1048 C1029 1.368 . S
C1048 C1042 1.368 . S
C1048 C1047 1.523 . S
C1049 C1033 1.429 . S
C1049 C1045 1.429 . S
C1049 C1050 1.523 . S
C1050 C1034 1.368 . S
C1050 C1046 1.368 . S
C1050 C1049 1.523 . S
H1051 C1026 0.950 . S
H1052 C1028 0.950 . S
H1053 C1029 0.949 . S
H1054 C1031 0.950 . S
H1055 C1033 0.950 . S
C1056 C1057 1.349 . S
C1056 C1058 1.327 . S
C1056 H1081 0.950 . S
C1057 C1056 1.349 . S
C1057 C1073 1.349 . S
C1058 C1056 1.327 . S
C1058 C1077 1.429 . S
C1058 H1082 0.950 . S
C1059 C1076 1.574 . S
C1059 C1078 1.368 . S
C1059 H1083 0.949 . S
H1060 C1064 0.949 . S
C1061 C1062 1.349 . S
C1061 C1063 1.327 . S
C1061 H1084 0.950 . S
C1062 C1061 1.349 . S
C1062 C1074 1.349 . S
C1063 C1061 1.327 . S
C1063 C1079 1.429 . S
C1063 H1085 0.950 . S
C1064 H1060 0.949 . S
C1064 C1072 1.574 . S
C1064 C1080 1.368 . S
H1065 C1073 0.950 . S
H1066 C1071 0.950 . S
H1067 C1072 0.949 . S
H1068 C1074 0.950 . S
H1069 C1075 0.950 . S
H1070 C1076 0.949 . S
C1071 H1066 0.950 . S
C1071 C1073 1.327 . S
C1071 C1077 1.429 . S
C1072 C1064 1.574 . S
C1072 H1067 0.949 . S
C1072 C1078 1.368 . S
C1073 C1057 1.349 . S
C1073 H1065 0.950 . S
C1073 C1071 1.327 . S
C1074 C1062 1.349 . S
C1074 H1068 0.950 . S
C1074 C1075 1.327 . S
C1075 H1069 0.950 . S
C1075 C1074 1.327 . S
C1075 C1079 1.429 . S
C1076 C1059 1.574 . S
C1076 H1070 0.949 . S
C1076 C1080 1.368 . S
C1077 C1058 1.429 . S
C1077 C1071 1.429 . S
C1077 C1078 1.523 . S
C1078 C1059 1.368 . S
C1078 C1072 1.368 . S
C1078 C1077 1.523 . S
C1079 C1063 1.429 . S
C1079 C1075 1.429 . S
C1079 C1080 1.523 . S
C1080 C1064 1.368 . S
C1080 C1076 1.368 . S
C1080 C1079 1.523 . S
H1081 C1056 0.950 . S
H1082 C1058 0.950 . S
H1083 C1059 0.949 . S
H1084 C1061 0.950 . S
H1085 C1063 0.950 . S
C1086 C1087 1.349 . S
C1086 C1088 1.327 . S
C1086 H1111 0.950 . S
C1087 C1086 1.349 . S
C1087 C1103 1.349 . S
C1088 C1086 1.327 . S
C1088 C1107 1.429 . S
C1088 H1112 0.950 . S
C1089 C1106 1.574 1_455 S
C1089 C1108 1.368 . S
C1089 H1113 0.949 . S
H1090 C1094 0.949 . S
C1091 C1092 1.349 . S
C1091 C1093 1.327 . S
C1091 H1114 0.950 . S
C1092 C1091 1.349 . S
C1092 C1104 1.349 . S
C1093 C1091 1.327 . S
C1093 C1109 1.429 . S
C1093 H1115 0.950 . S
C1094 H1090 0.949 . S
C1094 C1102 1.574 1_655 S
C1094 C1110 1.368 . S
H1095 C1103 0.950 . S
H1096 C1101 0.950 . S
H1097 C1102 0.949 . S
H1098 C1104 0.950 . S
H1099 C1105 0.950 . S
H1100 C1106 0.949 . S
C1101 H1096 0.950 . S
C1101 C1103 1.327 . S
C1101 C1107 1.429 . S
C1102 C1094 1.574 1_455 S
C1102 H1097 0.949 . S
C1102 C1108 1.368 . S
C1103 C1087 1.349 . S
C1103 H1095 0.950 . S
C1103 C1101 1.327 . S
C1104 C1092 1.349 . S
C1104 H1098 0.950 . S
C1104 C1105 1.327 . S
C1105 H1099 0.950 . S
C1105 C1104 1.327 . S
C1105 C1109 1.429 . S
C1106 C1089 1.574 1_655 S
C1106 H1100 0.949 . S
C1106 C1110 1.368 . S
C1107 C1088 1.429 . S
C1107 C1101 1.429 . S
C1107 C1108 1.523 . S
C1108 C1089 1.368 . S
C1108 C1102 1.368 . S
C1108 C1107 1.523 . S
C1109 C1093 1.429 . S
C1109 C1105 1.429 . S
C1109 C1110 1.523 . S
C1110 C1094 1.368 . S
C1110 C1106 1.368 . S
C1110 C1109 1.523 . S
H1111 C1086 0.950 . S
H1112 C1088 0.950 . S
H1113 C1089 0.949 . S
H1114 C1091 0.950 . S
H1115 C1093 0.950 . S
C1116 C1117 1.349 . S
C1116 C1118 1.327 . S
C1116 H1141 0.950 . S
C1117 C1116 1.349 . S
C1117 C1133 1.349 . S
C1118 C1116 1.327 . S
C1118 C1137 1.429 . S
C1118 H1142 0.950 . S
C1119 C1136 1.574 1_565 S
C1119 C1138 1.368 . S
C1119 H1143 0.949 . S
H1120 C1124 0.949 . S
C1121 C1122 1.349 . S
C1121 C1123 1.327 . S
C1121 H1144 0.950 . S
C1122 C1121 1.349 . S
C1122 C1134 1.349 . S
C1123 C1121 1.327 . S
C1123 C1139 1.429 . S
C1123 H1145 0.950 . S
C1124 H1120 0.949 . S
C1124 C1132 1.574 1_545 S
C1124 C1140 1.368 . S
H1125 C1133 0.950 . S
H1126 C1131 0.950 . S
H1127 C1132 0.949 . S
H1128 C1134 0.950 . S
H1129 C1135 0.950 . S
H1130 C1136 0.949 . S
C1131 H1126 0.950 . S
C1131 C1133 1.327 . S
C1131 C1137 1.429 . S
C1132 C1124 1.574 1_565 S
C1132 H1127 0.949 . S
C1132 C1138 1.368 . S
C1133 C1117 1.349 . S
C1133 H1125 0.950 . S
C1133 C1131 1.327 . S
C1134 C1122 1.349 . S
C1134 H1128 0.950 . S
C1134 C1135 1.327 . S
C1135 H1129 0.950 . S
C1135 C1134 1.327 . S
C1135 C1139 1.429 . S
C1136 C1119 1.574 1_545 S
C1136 H1130 0.949 . S
C1136 C1140 1.368 . S
C1137 C1118 1.429 . S
C1137 C1131 1.429 . S
C1137 C1138 1.523 . S
C1138 C1119 1.368 . S
C1138 C1132 1.368 . S
C1138 C1137 1.523 . S
C1139 C1123 1.429 . S
C1139 C1135 1.429 . S
C1139 C1140 1.523 . S
C1140 C1124 1.368 . S
C1140 C1136 1.368 . S
C1140 C1139 1.523 . S
H1141 C1116 0.950 . S
H1142 C1118 0.950 . S
H1143 C1119 0.949 . S
H1144 C1121 0.950 . S
H1145 C1123 0.950 . S
C1146 C1147 1.349 . S
C1146 C1148 1.327 . S
C1146 H1171 0.950 . S
C1147 C1146 1.349 . S
C1147 C1163 1.349 . S
C1148 C1146 1.327 . S
C1148 C1167 1.429 . S
C1148 H1172 0.950 . S
C1149 C1166 1.574 . S
C1149 C1168 1.368 . S
C1149 H1173 0.949 . S
H1150 C1154 0.949 . S
C1151 C1152 1.349 . S
C1151 C1153 1.327 . S
C1151 H1174 0.950 . S
C1152 C1151 1.349 . S
C1152 C1164 1.349 . S
C1153 C1151 1.327 . S
C1153 C1169 1.429 . S
C1153 H1175 0.950 . S
C1154 H1150 0.949 . S
C1154 C1162 1.574 . S
C1154 C1170 1.368 . S
H1155 C1163 0.950 . S
H1156 C1161 0.950 . S
H1157 C1162 0.949 . S
H1158 C1164 0.950 . S
H1159 C1165 0.950 . S
H1160 C1166 0.949 . S
C1161 H1156 0.950 . S
C1161 C1163 1.327 . S
C1161 C1167 1.429 . S
C1162 C1154 1.574 . S
C1162 H1157 0.949 . S
C1162 C1168 1.368 . S
C1163 C1147 1.349 . S
C1163 H1155 0.950 . S
C1163 C1161 1.327 . S
C1164 C1152 1.349 . S
C1164 H1158 0.950 . S
C1164 C1165 1.327 . S
C1165 H1159 0.950 . S
C1165 C1164 1.327 . S
C1165 C1169 1.429 . S
C1166 C1149 1.574 . S
C1166 H1160 0.949 . S
C1166 C1170 1.368 . S
C1167 C1148 1.429 . S
C1167 C1161 1.429 . S
C1167 C1168 1.523 . S
C1168 C1149 1.368 . S
C1168 C1162 1.368 . S
C1168 C1167 1.523 . S
C1169 C1153 1.429 . S
C1169 C1165 1.429 . S
C1169 C1170 1.523 . S
C1170 C1154 1.368 . S
C1170 C1166 1.368 . S
C1170 C1169 1.523 . S
H1171 C1146 0.950 . S
H1172 C1148 0.950 . S
H1173 C1149 0.949 . S
H1174 C1151 0.950 . S
H1175 C1153 0.950 . S
C1176 C1177 1.349 . S
C1176 C1178 1.327 . S
C1176 H1201 0.950 . S
C1177 C1176 1.349 . S
C1177 C1193 1.349 . S
C1178 C1176 1.327 . S
C1178 C1197 1.429 . S
C1178 H1202 0.950 . S
C1179 C1196 1.574 1_655 S
C1179 C1198 1.368 . S
C1179 H1203 0.949 . S
H1180 C1184 0.949 . S
C1181 C1182 1.349 . S
C1181 C1183 1.327 . S
C1181 H1204 0.950 . S
C1182 C1181 1.349 . S
C1182 C1194 1.349 . S
C1183 C1181 1.327 . S
C1183 C1199 1.429 . S
C1183 H1205 0.950 . S
C1184 H1180 0.949 . S
C1184 C1192 1.574 1_455 S
C1184 C1200 1.368 . S
H1185 C1193 0.950 . S
H1186 C1191 0.950 . S
H1187 C1192 0.949 . S
H1188 C1194 0.950 . S
H1189 C1195 0.950 . S
H1190 C1196 0.949 . S
C1191 H1186 0.950 . S
C1191 C1193 1.327 . S
C1191 C1197 1.429 . S
C1192 C1184 1.574 1_655 S
C1192 H1187 0.949 . S
C1192 C1198 1.368 . S
C1193 C1177 1.349 . S
C1193 H1185 0.950 . S
C1193 C1191 1.327 . S
C1194 C1182 1.349 . S
C1194 H1188 0.950 . S
C1194 C1195 1.327 . S
C1195 H1189 0.950 . S
C1195 C1194 1.327 . S
C1195 C1199 1.429 . S
C1196 C1179 1.574 1_455 S
C1196 H1190 0.949 . S
C1196 C1200 1.368 . S
C1197 C1178 1.429 . S
C1197 C1191 1.429 . S
C1197 C1198 1.523 . S
C1198 C1179 1.368 . S
C1198 C1192 1.368 . S
C1198 C1197 1.523 . S
C1199 C1183 1.429 . S
C1199 C1195 1.429 . S
C1199 C1200 1.523 . S
C1200 C1184 1.368 . S
C1200 C1196 1.368 . S
C1200 C1199 1.523 . S
H1201 C1176 0.950 . S
H1202 C1178 0.950 . S
H1203 C1179 0.949 . S
H1204 C1181 0.950 . S
H1205 C1183 0.950 . S
C1206 C1207 1.349 . S
C1206 C1208 1.327 . S
C1206 H1231 0.950 . S
C1207 C1206 1.349 . S
C1207 C1223 1.349 . S
C1208 C1206 1.327 . S
C1208 C1227 1.429 . S
C1208 H1232 0.950 . S
C1209 C1226 1.574 1_545 S
C1209 C1228 1.368 . S
C1209 H1233 0.949 . S
H1210 C1214 0.949 . S
C1211 C1212 1.349 . S
C1211 C1213 1.327 . S
C1211 H1234 0.950 . S
C1212 C1211 1.349 . S
C1212 C1224 1.349 . S
C1213 C1211 1.327 . S
C1213 C1229 1.429 . S
C1213 H1235 0.950 . S
C1214 H1210 0.949 . S
C1214 C1222 1.574 1_565 S
C1214 C1230 1.368 . S
H1215 C1223 0.950 . S
H1216 C1221 0.950 . S
H1217 C1222 0.949 . S
H1218 C1224 0.950 . S
H1219 C1225 0.950 . S
H1220 C1226 0.949 . S
C1221 H1216 0.950 . S
C1221 C1223 1.327 . S
C1221 C1227 1.429 . S
C1222 C1214 1.574 1_545 S
C1222 H1217 0.949 . S
C1222 C1228 1.368 . S
C1223 C1207 1.349 . S
C1223 H1215 0.950 . S
C1223 C1221 1.327 . S
C1224 C1212 1.349 . S
C1224 H1218 0.950 . S
C1224 C1225 1.327 . S
C1225 H1219 0.950 . S
C1225 C1224 1.327 . S
C1225 C1229 1.429 . S
C1226 C1209 1.574 1_565 S
C1226 H1220 0.949 . S
C1226 C1230 1.368 . S
C1227 C1208 1.429 . S
C1227 C1221 1.429 . S
C1227 C1228 1.523 . S
C1228 C1209 1.368 . S
C1228 C1222 1.368 . S
C1228 C1227 1.523 . S
C1229 C1213 1.429 . S
C1229 C1225 1.429 . S
C1229 C1230 1.523 . S
C1230 C1214 1.368 . S
C1230 C1226 1.368 . S
C1230 C1229 1.523 . S
H1231 C1206 0.950 . S
H1232 C1208 0.950 . S
H1233 C1209 0.949 . S
H1234 C1211 0.950 . S
H1235 C1213 0.950 . S
C1236 C1237 1.349 . S
C1236 C1238 1.327 . S
C1236 H1261 0.950 . S
C1237 C1236 1.349 . S
C1237 C1253 1.349 . S
C1238 C1236 1.327 . S
C1238 C1257 1.429 . S
C1238 H1262 0.950 . S
C1239 C1256 1.574 . S
C1239 C1258 1.368 . S
C1239 H1263 0.949 . S
H1240 C1244 0.949 . S
C1241 C1242 1.349 . S
C1241 C1243 1.327 . S
C1241 H1264 0.950 . S
C1242 C1241 1.349 . S
C1242 C1254 1.349 . S
C1243 C1241 1.327 . S
C1243 C1259 1.429 . S
C1243 H1265 0.950 . S
C1244 H1240 0.949 . S
C1244 C1252 1.574 . S
C1244 C1260 1.368 . S
H1245 C1253 0.950 . S
H1246 C1251 0.950 . S
H1247 C1252 0.949 . S
H1248 C1254 0.950 . S
H1249 C1255 0.950 . S
H1250 C1256 0.949 . S
C1251 H1246 0.950 . S
C1251 C1253 1.327 . S
C1251 C1257 1.429 . S
C1252 C1244 1.574 . S
C1252 H1247 0.949 . S
C1252 C1258 1.368 . S
C1253 C1237 1.349 . S
C1253 H1245 0.950 . S
C1253 C1251 1.327 . S
C1254 C1242 1.349 . S
C1254 H1248 0.950 . S
C1254 C1255 1.327 . S
C1255 H1249 0.950 . S
C1255 C1254 1.327 . S
C1255 C1259 1.429 . S
C1256 C1239 1.574 . S
C1256 H1250 0.949 . S
C1256 C1260 1.368 . S
C1257 C1238 1.429 . S
C1257 C1251 1.429 . S
C1257 C1258 1.523 . S
C1258 C1239 1.368 . S
C1258 C1252 1.368 . S
C1258 C1257 1.523 . S
C1259 C1243 1.429 . S
C1259 C1255 1.429 . S
C1259 C1260 1.523 . S
C1260 C1244 1.368 . S
C1260 C1256 1.368 . S
C1260 C1259 1.523 . S
H1261 C1236 0.950 . S
H1262 C1238 0.950 . S
H1263 C1239 0.949 . S
H1264 C1241 0.950 . S
H1265 C1243 0.950 . S
C1266 C1267 1.349 . S
C1266 C1268 1.327 . S
C1266 H1291 0.950 . S
C1267 C1266 1.349 . S
C1267 C1283 1.349 . S
C1268 C1266 1.327 . S
C1268 C1287 1.429 . S
C1268 H1292 0.950 . S
C1269 C1286 1.574 1_655 S
C1269 C1288 1.368 . S
C1269 H1293 0.949 . S
H1270 C1274 0.949 . S
C1271 C1272 1.349 . S
C1271 C1273 1.327 . S
C1271 H1294 0.950 . S
C1272 C1271 1.349 . S
C1272 C1284 1.349 . S
C1273 C1271 1.327 . S
C1273 C1289 1.429 . S
C1273 H1295 0.950 . S
C1274 H1270 0.949 . S
C1274 C1282 1.574 1_455 S
C1274 C1290 1.368 . S
H1275 C1283 0.950 . S
H1276 C1281 0.950 . S
H1277 C1282 0.949 . S
H1278 C1284 0.950 . S
H1279 C1285 0.950 . S
H1280 C1286 0.949 . S
C1281 H1276 0.950 . S
C1281 C1283 1.327 . S
C1281 C1287 1.429 . S
C1282 C1274 1.574 1_655 S
C1282 H1277 0.949 . S
C1282 C1288 1.368 . S
C1283 C1267 1.349 . S
C1283 H1275 0.950 . S
C1283 C1281 1.327 . S
C1284 C1272 1.349 . S
C1284 H1278 0.950 . S
C1284 C1285 1.327 . S
C1285 H1279 0.950 . S
C1285 C1284 1.327 . S
C1285 C1289 1.429 . S
C1286 C1269 1.574 1_455 S
C1286 H1280 0.949 . S
C1286 C1290 1.368 . S
C1287 C1268 1.429 . S
C1287 C1281 1.429 . S
C1287 C1288 1.523 . S
C1288 C1269 1.368 . S
C1288 C1282 1.368 . S
C1288 C1287 1.523 . S
C1289 C1273 1.429 . S
C1289 C1285 1.429 . S
C1289 C1290 1.523 . S
C1290 C1274 1.368 . S
C1290 C1286 1.368 . S
C1290 C1289 1.523 . S
H1291 C1266 0.950 . S
H1292 C1268 0.950 . S
H1293 C1269 0.949 . S
H1294 C1271 0.950 . S
H1295 C1273 0.950 . S
C1296 C1297 1.349 . S
C1296 C1298 1.327 . S
C1296 H1321 0.950 . S
C1297 C1296 1.349 . S
C1297 C1313 1.349 . S
C1298 C1296 1.327 . S
C1298 C1317 1.429 . S
C1298 H1322 0.950 . S
C1299 C1316 1.574 1_545 S
C1299 C1318 1.368 . S
C1299 H1323 0.949 . S
H1300 C1304 0.949 . S
C1301 C1302 1.349 . S
C1301 C1303 1.327 . S
C1301 H1324 0.950 . S
C1302 C1301 1.349 . S
C1302 C1314 1.349 . S
C1303 C1301 1.327 . S
C1303 C1319 1.429 . S
C1303 H1325 0.950 . S
C1304 H1300 0.949 . S
C1304 C1312 1.574 1_565 S
C1304 C1320 1.368 . S
H1305 C1313 0.950 . S
H1306 C1311 0.950 . S
H1307 C1312 0.949 . S
H1308 C1314 0.950 . S
H1309 C1315 0.950 . S
H1310 C1316 0.949 . S
C1311 H1306 0.950 . S
C1311 C1313 1.327 . S
C1311 C1317 1.429 . S
C1312 C1304 1.574 1_545 S
C1312 H1307 0.949 . S
C1312 C1318 1.368 . S
C1313 C1297 1.349 . S
C1313 H1305 0.950 . S
C1313 C1311 1.327 . S
C1314 C1302 1.349 . S
C1314 H1308 0.950 . S
C1314 C1315 1.327 . S
C1315 H1309 0.950 . S
C1315 C1314 1.327 . S
C1315 C1319 1.429 . S
C1316 C1299 1.574 1_565 S
C1316 H1310 0.949 . S
C1316 C1320 1.368 . S
C1317 C1298 1.429 . S
C1317 C1311 1.429 . S
C1317 C1318 1.523 . S
C1318 C1299 1.368 . S
C1318 C1312 1.368 . S
C1318 C1317 1.523 . S
C1319 C1303 1.429 . S
C1319 C1315 1.429 . S
C1319 C1320 1.523 . S
C1320 C1304 1.368 . S
C1320 C1316 1.368 . S
C1320 C1319 1.523 . S
H1321 C1296 0.950 . S
H1322 C1298 0.950 . S
H1323 C1299 0.949 . S
H1324 C1301 0.950 . S
H1325 C1303 0.950 . S
C1326 C1327 1.349 . S
C1326 C1328 1.327 . S
C1326 H1351 0.950 . S
C1327 C1326 1.349 . S
C1327 C1343 1.349 . S
C1328 C1326 1.327 . S
C1328 C1347 1.429 . S
C1328 H1352 0.950 . S
C1329 C1346 1.574 . S
C1329 C1348 1.368 . S
C1329 H1353 0.949 . S
H1330 C1334 0.949 . S
C1331 C1332 1.349 . S
C1331 C1333 1.327 . S
C1331 H1354 0.950 . S
C1332 C1331 1.349 . S
C1332 C1344 1.349 . S
C1333 C1331 1.327 . S
C1333 C1349 1.429 . S
C1333 H1355 0.950 . S
C1334 H1330 0.949 . S
C1334 C1342 1.574 . S
C1334 C1350 1.368 . S
H1335 C1343 0.950 . S
H1336 C1341 0.950 . S
H1337 C1342 0.949 . S
H1338 C1344 0.950 . S
H1339 C1345 0.950 . S
H1340 C1346 0.949 . S
C1341 H1336 0.950 . S
C1341 C1343 1.327 . S
C1341 C1347 1.429 . S
C1342 C1334 1.574 . S
C1342 H1337 0.949 . S
C1342 C1348 1.368 . S
C1343 C1327 1.349 . S
C1343 H1335 0.950 . S
C1343 C1341 1.327 . S
C1344 C1332 1.349 . S
C1344 H1338 0.950 . S
C1344 C1345 1.327 . S
C1345 H1339 0.950 . S
C1345 C1344 1.327 . S
C1345 C1349 1.429 . S
C1346 C1329 1.574 . S
C1346 H1340 0.949 . S
C1346 C1350 1.368 . S
C1347 C1328 1.429 . S
C1347 C1341 1.429 . S
C1347 C1348 1.523 . S
C1348 C1329 1.368 . S
C1348 C1342 1.368 . S
C1348 C1347 1.523 . S
C1349 C1333 1.429 . S
C1349 C1345 1.429 . S
C1349 C1350 1.523 . S
C1350 C1334 1.368 . S
C1350 C1346 1.368 . S
C1350 C1349 1.523 . S
H1351 C1326 0.950 . S
H1352 C1328 0.950 . S
H1353 C1329 0.949 . S
H1354 C1331 0.950 . S
H1355 C1333 0.950 . S
C1356 C1357 1.349 . S
C1356 C1358 1.327 . S
C1356 H1381 0.950 . S
C1357 C1356 1.349 . S
C1357 C1373 1.349 . S
C1358 C1356 1.327 . S
C1358 C1377 1.429 . S
C1358 H1382 0.950 . S
C1359 C1376 1.574 1_455 S
C1359 C1378 1.368 . S
C1359 H1383 0.949 . S
H1360 C1364 0.949 . S
C1361 C1362 1.349 . S
C1361 C1363 1.327 . S
C1361 H1384 0.950 . S
C1362 C1361 1.349 . S
C1362 C1374 1.349 . S
C1363 C1361 1.327 . S
C1363 C1379 1.429 . S
C1363 H1385 0.950 . S
C1364 H1360 0.949 . S
C1364 C1372 1.574 1_655 S
C1364 C1380 1.368 . S
H1365 C1373 0.950 . S
H1366 C1371 0.950 . S
H1367 C1372 0.949 . S
H1368 C1374 0.950 . S
H1369 C1375 0.950 . S
H1370 C1376 0.949 . S
C1371 H1366 0.950 . S
C1371 C1373 1.327 . S
C1371 C1377 1.429 . S
C1372 C1364 1.574 1_455 S
C1372 H1367 0.949 . S
C1372 C1378 1.368 . S
C1373 C1357 1.349 . S
C1373 H1365 0.950 . S
C1373 C1371 1.327 . S
C1374 C1362 1.349 . S
C1374 H1368 0.950 . S
C1374 C1375 1.327 . S
C1375 H1369 0.950 . S
C1375 C1374 1.327 . S
C1375 C1379 1.429 . S
C1376 C1359 1.574 1_655 S
C1376 H1370 0.949 . S
C1376 C1380 1.368 . S
C1377 C1358 1.429 . S
C1377 C1371 1.429 . S
C1377 C1378 1.523 . S
C1378 C1359 1.368 . S
C1378 C1372 1.368 . S
C1378 C1377 1.523 . S
C1379 C1363 1.429 . S
C1379 C1375 1.429 . S
C1379 C1380 1.523 . S
C1380 C1364 1.368 . S
C1380 C1376 1.368 . S
C1380 C1379 1.523 . S
H1381 C1356 0.950 . S
H1382 C1358 0.950 . S
H1383 C1359 0.949 . S
H1384 C1361 0.950 . S
H1385 C1363 0.950 . S
C1386 C1387 1.349 . S
C1386 C1388 1.327 . S
C1386 H1411 0.950 . S
C1387 C1386 1.349 . S
C1387 C1403 1.349 . S
C1388 C1386 1.327 . S
C1388 C1407 1.429 . S
C1388 H1412 0.950 . S
C1389 C1406 1.574 1_565 S
C1389 C1408 1.368 . S
C1389 H1413 0.949 . S
H1390 C1394 0.949 . S
C1391 C1392 1.349 . S
C1391 C1393 1.327 . S
C1391 H1414 0.950 . S
C1392 C1391 1.349 . S
C1392 C1404 1.349 . S
C1393 C1391 1.327 . S
C1393 C1409 1.429 . S
C1393 H1415 0.950 . S
C1394 H1390 0.949 . S
C1394 C1402 1.574 1_545 S
C1394 C1410 1.368 . S
H1395 C1403 0.950 . S
H1396 C1401 0.950 . S
H1397 C1402 0.949 . S
H1398 C1404 0.950 . S
H1399 C1405 0.950 . S
H1400 C1406 0.949 . S
C1401 H1396 0.950 . S
C1401 C1403 1.327 . S
C1401 C1407 1.429 . S
C1402 C1394 1.574 1_565 S
C1402 H1397 0.949 . S
C1402 C1408 1.368 . S
C1403 C1387 1.349 . S
C1403 H1395 0.950 . S
C1403 C1401 1.327 . S
C1404 C1392 1.349 . S
C1404 H1398 0.950 . S
C1404 C1405 1.327 . S
C1405 H1399 0.950 . S
C1405 C1404 1.327 . S
C1405 C1409 1.429 . S
C1406 C1389 1.574 1_545 S
C1406 H1400 0.949 . S
C1406 C1410 1.368 . S
C1407 C1388 1.429 . S
C1407 C1401 1.429 . S
C1407 C1408 1.523 . S
C1408 C1389 1.368 . S
C1408 C1402 1.368 . S
C1408 C1407 1.523 . S
C1409 C1393 1.429 . S
C1409 C1405 1.429 . S
C1409 C1410 1.523 . S
C1410 C1394 1.368 . S
C1410 C1406 1.368 . S
C1410 C1409 1.523 . S
H1411 C1386 0.950 . S
H1412 C1388 0.950 . S
H1413 C1389 0.949 . S
H1414 C1391 0.950 . S
H1415 C1393 0.950 . S
C1416 C1417 1.349 . S
C1416 C1418 1.327 . S
C1416 H1441 0.950 . S
C1417 C1416 1.349 . S
C1417 C1433 1.349 . S
C1418 C1416 1.327 . S
C1418 C1437 1.429 . S
C1418 H1442 0.950 . S
C1419 C1436 1.553 1_556 S
C1419 C1438 1.368 . S
C1419 H1443 0.949 . S
H1420 C1424 0.949 . S
C1421 C1422 1.349 . S
C1421 C1423 1.327 . S
C1421 H1444 0.950 . S
C1422 C1421 1.349 . S
C1422 C1434 1.349 . S
C1423 C1421 1.327 . S
C1423 C1439 1.429 . S
C1423 H1445 0.950 . S
C1424 H1420 0.949 . S
C1424 C1432 1.553 1_554 S
C1424 C1440 1.368 . S
H1425 C1433 0.950 . S
H1426 C1431 0.950 . S
H1427 C1432 0.953 . S
H1428 C1434 0.950 . S
H1429 C1435 0.950 . S
H1430 C1436 0.953 . S
C1431 H1426 0.950 . S
C1431 C1433 1.327 . S
C1431 C1437 1.429 . S
C1432 C1424 1.553 1_556 S
C1432 H1427 0.953 . S
C1432 C1438 1.387 . S
C1433 C1417 1.349 . S
C1433 H1425 0.950 . S
C1433 C1431 1.327 . S
C1434 C1422 1.349 . S
C1434 H1428 0.950 . S
C1434 C1435 1.327 . S
C1435 H1429 0.950 . S
C1435 C1434 1.327 . S
C1435 C1439 1.429 . S
C1436 C1419 1.553 1_554 S
C1436 H1430 0.953 . S
C1436 C1440 1.387 . S
C1437 C1418 1.429 . S
C1437 C1431 1.429 . S
C1437 C1438 1.523 . S
C1438 C1419 1.368 . S
C1438 C1432 1.387 . S
C1438 C1437 1.523 . S
C1439 C1423 1.429 . S
C1439 C1435 1.429 . S
C1439 C1440 1.523 . S
C1440 C1424 1.368 . S
C1440 C1436 1.387 . S
C1440 C1439 1.523 . S
H1441 C1416 0.950 . S
H1442 C1418 0.950 . S
H1443 C1419 0.949 . S
H1444 C1421 0.950 . S
H1445 C1423 0.950 . S
C1446 C1447 1.349 . S
C1446 C1448 1.327 . S
C1446 H1471 0.950 . S
C1447 C1446 1.349 . S
C1447 C1463 1.349 . S
C1448 C1446 1.327 . S
C1448 C1467 1.429 . S
C1448 H1472 0.950 . S
C1449 C1466 1.574 . S
C1449 C1468 1.368 . S
C1449 H1473 0.949 . S
H1450 C1454 0.949 . S
C1451 C1452 1.349 . S
C1451 C1453 1.327 . S
C1451 H1474 0.950 . S
C1452 C1451 1.349 . S
C1452 C1464 1.349 . S
C1453 C1451 1.327 . S
C1453 C1469 1.429 . S
C1453 H1475 0.950 . S
C1454 H1450 0.949 . S
C1454 C1462 1.574 . S
C1454 C1470 1.368 . S
H1455 C1463 0.950 . S
H1456 C1461 0.950 . S
H1457 C1462 0.949 . S
H1458 C1464 0.950 . S
H1459 C1465 0.950 . S
H1460 C1466 0.949 . S
C1461 H1456 0.950 . S
C1461 C1463 1.327 . S
C1461 C1467 1.429 . S
C1462 C1454 1.574 . S
C1462 H1457 0.949 . S
C1462 C1468 1.368 . S
C1463 C1447 1.349 . S
C1463 H1455 0.950 . S
C1463 C1461 1.327 . S
C1464 C1452 1.349 . S
C1464 H1458 0.950 . S
C1464 C1465 1.327 . S
C1465 H1459 0.950 . S
C1465 C1464 1.327 . S
C1465 C1469 1.429 . S
C1466 C1449 1.574 . S
C1466 H1460 0.949 . S
C1466 C1470 1.368 . S
C1467 C1448 1.429 . S
C1467 C1461 1.429 . S
C1467 C1468 1.523 . S
C1468 C1449 1.368 . S
C1468 C1462 1.368 . S
C1468 C1467 1.523 . S
C1469 C1453 1.429 . S
C1469 C1465 1.429 . S
C1469 C1470 1.523 . S
C1470 C1454 1.368 . S
C1470 C1466 1.368 . S
C1470 C1469 1.523 . S
H1471 C1446 0.950 . S
H1472 C1448 0.950 . S
H1473 C1449 0.949 . S
H1474 C1451 0.950 . S
H1475 C1453 0.950 . S
C1476 C1477 1.349 . S
C1476 C1478 1.327 . S
C1476 H1501 0.950 . S
C1477 C1476 1.349 . S
C1477 C1493 1.349 . S
C1478 C1476 1.327 . S
C1478 C1497 1.429 . S
C1478 H1502 0.950 . S
C1479 C1496 1.574 . S
C1479 C1498 1.368 . S
C1479 H1503 0.949 . S
H1480 C1484 0.949 . S
C1481 C1482 1.349 . S
C1481 C1483 1.327 . S
C1481 H1504 0.950 . S
C1482 C1481 1.349 . S
C1482 C1494 1.349 . S
C1483 C1481 1.327 . S
C1483 C1499 1.429 . S
C1483 H1505 0.950 . S
C1484 H1480 0.949 . S
C1484 C1492 1.574 . S
C1484 C1500 1.368 . S
H1485 C1493 0.950 . S
H1486 C1491 0.950 . S
H1487 C1492 0.949 . S
H1488 C1494 0.950 . S
H1489 C1495 0.950 . S
H1490 C1496 0.949 . S
C1491 H1486 0.950 . S
C1491 C1493 1.327 . S
C1491 C1497 1.429 . S
C1492 C1484 1.574 . S
C1492 H1487 0.949 . S
C1492 C1498 1.368 1_554 S
C1493 C1477 1.349 . S
C1493 H1485 0.950 . S
C1493 C1491 1.327 . S
C1494 C1482 1.349 . S
C1494 H1488 0.950 . S
C1494 C1495 1.327 . S
C1495 H1489 0.950 . S
C1495 C1494 1.327 . S
C1495 C1499 1.429 . S
C1496 C1479 1.574 . S
C1496 H1490 0.949 . S
C1496 C1500 1.368 1_556 S
C1497 C1478 1.429 . S
C1497 C1491 1.429 . S
C1497 C1498 1.523 . S
C1498 C1479 1.368 . S
C1498 C1492 1.368 1_556 S
C1498 C1497 1.523 . S
C1499 C1483 1.429 . S
C1499 C1495 1.429 . S
C1499 C1500 1.523 . S
C1500 C1484 1.368 . S
C1500 C1496 1.368 1_554 S
C1500 C1499 1.523 . S
H1501 C1476 0.950 . S
H1502 C1478 0.950 . S
H1503 C1479 0.949 . S
H1504 C1481 0.950 . S
H1505 C1483 0.950 . S
C1506 C1507 1.349 . S
C1506 C1508 1.327 . S
C1506 H1531 0.950 . S
C1507 C1506 1.349 . S
C1507 C1523 1.349 . S
C1508 C1506 1.327 . S
C1508 C1527 1.429 . S
C1508 H1532 0.950 . S
C1509 C1526 1.574 . S
C1509 C1528 1.368 . S
C1509 H1533 0.949 . S
H1510 C1514 0.949 . S
C1511 C1512 1.349 . S
C1511 C1513 1.327 . S
C1511 H1534 0.950 . S
C1512 C1511 1.349 . S
C1512 C1524 1.349 . S
C1513 C1511 1.327 . S
C1513 C1529 1.429 . S
C1513 H1535 0.950 . S
C1514 H1510 0.949 . S
C1514 C1522 1.574 . S
C1514 C1530 1.368 . S
H1515 C1523 0.950 . S
H1516 C1521 0.950 . S
H1517 C1522 0.949 . S
H1518 C1524 0.950 . S
H1519 C1525 0.950 . S
H1520 C1526 0.949 . S
C1521 H1516 0.950 . S
C1521 C1523 1.327 . S
C1521 C1527 1.429 . S
C1522 C1514 1.574 . S
C1522 H1517 0.949 . S
C1522 C1528 1.368 . S
C1523 C1507 1.349 . S
C1523 H1515 0.950 . S
C1523 C1521 1.327 . S
C1524 C1512 1.349 . S
C1524 H1518 0.950 . S
C1524 C1525 1.327 . S
C1525 H1519 0.950 . S
C1525 C1524 1.327 . S
C1525 C1529 1.429 . S
C1526 C1509 1.574 . S
C1526 H1520 0.949 . S
C1526 C1530 1.368 . S
C1527 C1508 1.429 . S
C1527 C1521 1.429 . S
C1527 C1528 1.523 . S
C1528 C1509 1.368 . S
C1528 C1522 1.368 . S
C1528 C1527 1.523 . S
C1529 C1513 1.429 . S
C1529 C1525 1.429 . S
C1529 C1530 1.523 . S
C1530 C1514 1.368 . S
C1530 C1526 1.368 . S
C1530 C1529 1.523 . S
H1531 C1506 0.950 . S
H1532 C1508 0.950 . S
H1533 C1509 0.949 . S
H1534 C1511 0.950 . S
H1535 C1513 0.950 . S
C1536 C1537 1.349 . S
C1536 C1538 1.327 . S
C1536 H1561 0.950 . S
C1537 C1536 1.349 . S
C1537 C1553 1.349 . S
C1538 C1536 1.327 . S
C1538 C1557 1.429 . S
C1538 H1562 0.950 1_556 S
C1539 C1556 1.574 . S
C1539 C1558 1.368 . S
C1539 H1563 0.949 . S
H1540 C1544 0.949 . S
C1541 C1542 1.349 . S
C1541 C1543 1.327 . S
C1541 H1564 0.950 . S
C1542 C1541 1.349 . S
C1542 C1554 1.349 . S
C1543 C1541 1.327 . S
C1543 C1559 1.429 . S
C1543 H1565 0.950 1_554 S
C1544 H1540 0.949 . S
C1544 C1552 1.574 . S
C1544 C1560 1.368 . S
H1545 C1553 0.950 . S
H1546 C1551 0.950 . S
H1547 C1552 0.949 . S
H1548 C1554 0.950 . S
H1549 C1555 0.950 . S
H1550 C1556 0.949 . S
C1551 H1546 0.950 . S
C1551 C1553 1.327 . S
C1551 C1557 1.429 . S
C1552 C1544 1.574 . S
C1552 H1547 0.949 . S
C1552 C1558 1.368 1_554 S
C1553 C1537 1.349 . S
C1553 H1545 0.950 . S
C1553 C1551 1.327 . S
C1554 C1542 1.349 . S
C1554 H1548 0.950 . S
C1554 C1555 1.327 . S
C1555 H1549 0.950 . S
C1555 C1554 1.327 . S
C1555 C1559 1.429 . S
C1556 C1539 1.574 . S
C1556 H1550 0.949 . S
C1556 C1560 1.368 1_556 S
C1557 C1538 1.429 . S
C1557 C1551 1.429 . S
C1557 C1558 1.523 . S
C1558 C1539 1.368 . S
C1558 C1552 1.368 1_556 S
C1558 C1557 1.523 . S
C1559 C1543 1.429 . S
C1559 C1555 1.429 . S
C1559 C1560 1.523 . S
C1560 C1544 1.368 . S
C1560 C1556 1.368 1_554 S
C1560 C1559 1.523 . S
H1561 C1536 0.950 . S
H1562 C1538 0.950 1_554 S
H1563 C1539 0.949 . S
H1564 C1541 0.950 . S
H1565 C1543 0.950 1_556 S
C1566 C1567 1.349 . S
C1566 C1568 1.327 . S
C1566 H1591 0.950 . S
C1567 C1566 1.349 . S
C1567 C1583 1.349 . S
C1568 C1566 1.327 . S
C1568 C1587 1.429 . S
C1568 H1592 0.950 . S
C1569 C1586 1.574 . S
C1569 C1588 1.368 . S
C1569 H1593 0.949 . S
H1570 C1574 0.949 . S
C1571 C1572 1.349 . S
C1571 C1573 1.327 . S
C1571 H1594 0.950 . S
C1572 C1571 1.349 . S
C1572 C1584 1.349 . S
C1573 C1571 1.327 . S
C1573 C1589 1.429 . S
C1573 H1595 0.950 . S
C1574 H1570 0.949 . S
C1574 C1582 1.574 . S
C1574 C1590 1.368 . S
H1575 C1583 0.950 . S
H1576 C1581 0.950 . S
H1577 C1582 0.949 . S
H1578 C1584 0.950 . S
H1579 C1585 0.950 . S
H1580 C1586 0.949 . S
C1581 H1576 0.950 . S
C1581 C1583 1.327 . S
C1581 C1587 1.429 . S
C1582 C1574 1.574 . S
C1582 H1577 0.949 . S
C1582 C1588 1.368 . S
C1583 C1567 1.349 . S
C1583 H1575 0.950 . S
C1583 C1581 1.327 . S
C1584 C1572 1.349 . S
C1584 H1578 0.950 . S
C1584 C1585 1.327 . S
C1585 H1579 0.950 . S
C1585 C1584 1.327 . S
C1585 C1589 1.429 . S
C1586 C1569 1.574 . S
C1586 H1580 0.949 . S
C1586 C1590 1.368 . S
C1587 C1568 1.429 . S
C1587 C1581 1.429 . S
C1587 C1588 1.523 . S
C1588 C1569 1.368 . S
C1588 C1582 1.368 . S
C1588 C1587 1.523 . S
C1589 C1573 1.429 . S
C1589 C1585 1.429 . S
C1589 C1590 1.523 . S
C1590 C1574 1.368 . S
C1590 C1586 1.368 . S
C1590 C1589 1.523 . S
H1591 C1566 0.950 . S
H1592 C1568 0.950 . S
H1593 C1569 0.949 . S
H1594 C1571 0.950 . S
H1595 C1573 0.950 . S
C1596 C1597 1.349 . S
C1596 C1598 1.327 . S
C1596 H1621 0.950 . S
C1597 C1596 1.349 . S
C1597 C1613 1.349 . S
C1598 C1596 1.327 . S
C1598 C1617 1.429 . S
C1598 H1622 0.950 . S
C1599 C1616 1.574 . S
C1599 C1618 1.368 1_556 S
C1599 H1623 0.949 . S
H1600 C1604 0.949 . S
C1601 C1602 1.349 . S
C1601 C1603 1.327 . S
C1601 H1624 0.950 . S
C1602 C1601 1.349 . S
C1602 C1614 1.349 . S
C1603 C1601 1.327 . S
C1603 C1619 1.429 . S
C1603 H1625 0.950 . S
C1604 H1600 0.949 . S
C1604 C1612 1.574 . S
C1604 C1620 1.368 1_554 S
H1605 C1613 0.950 . S
H1606 C1611 0.950 . S
H1607 C1612 0.949 . S
H1608 C1614 0.950 . S
H1609 C1615 0.950 . S
H1610 C1616 0.949 . S
C1611 H1606 0.950 . S
C1611 C1613 1.327 . S
C1611 C1617 1.429 . S
C1612 C1604 1.574 . S
C1612 H1607 0.949 . S
C1612 C1618 1.368 . S
C1613 C1597 1.349 . S
C1613 H1605 0.950 . S
C1613 C1611 1.327 . S
C1614 C1602 1.349 . S
C1614 H1608 0.950 . S
C1614 C1615 1.327 . S
C1615 H1609 0.950 . S
C1615 C1614 1.327 . S
C1615 C1619 1.429 . S
C1616 C1599 1.574 . S
C1616 H1610 0.949 . S
C1616 C1620 1.368 . S
C1617 C1598 1.429 . S
C1617 C1611 1.429 . S
C1617 C1618 1.523 . S
C1618 C1599 1.368 1_554 S
C1618 C1612 1.368 . S
C1618 C1617 1.523 . S
C1619 C1603 1.429 . S
C1619 C1615 1.429 . S
C1619 C1620 1.523 . S
C1620 C1604 1.368 1_556 S
C1620 C1616 1.368 . S
C1620 C1619 1.523 . S
H1621 C1596 0.950 . S
H1622 C1598 0.950 . S
H1623 C1599 0.949 . S
H1624 C1601 0.950 . S
H1625 C1603 0.950 . S
C1626 C1627 1.349 . S
C1626 C1628 1.327 . S
C1626 H1651 0.950 . S
C1627 C1626 1.349 . S
C1627 C1643 1.349 . S
C1628 C1626 1.327 . S
C1628 C1647 1.429 . S
C1628 H1652 0.950 . S
C1629 C1646 1.574 . S
C1629 C1648 1.368 . S
C1629 H1653 0.949 . S
H1630 C1634 0.949 . S
C1631 C1632 1.349 . S
C1631 C1633 1.327 . S
C1631 H1654 0.950 . S
C1632 C1631 1.349 . S
C1632 C1644 1.349 . S
C1633 C1631 1.327 . S
C1633 C1649 1.429 . S
C1633 H1655 0.950 . S
C1634 H1630 0.949 . S
C1634 C1642 1.574 . S
C1634 C1650 1.368 . S
H1635 C1643 0.950 . S
H1636 C1641 0.950 . S
H1637 C1642 0.949 . S
H1638 C1644 0.950 . S
H1639 C1645 0.950 . S
H1640 C1646 0.949 . S
C1641 H1636 0.950 . S
C1641 C1643 1.327 . S
C1641 C1647 1.429 . S
C1642 C1634 1.574 . S
C1642 H1637 0.949 . S
C1642 C1648 1.368 . S
C1643 C1627 1.349 . S
C1643 H1635 0.950 . S
C1643 C1641 1.327 . S
C1644 C1632 1.349 . S
C1644 H1638 0.950 . S
C1644 C1645 1.327 . S
C1645 H1639 0.950 . S
C1645 C1644 1.327 . S
C1645 C1649 1.429 . S
C1646 C1629 1.574 . S
C1646 H1640 0.949 . S
C1646 C1650 1.368 . S
C1647 C1628 1.429 . S
C1647 C1641 1.429 . S
C1647 C1648 1.523 . S
C1648 C1629 1.368 . S
C1648 C1642 1.368 . S
C1648 C1647 1.523 . S
C1649 C1633 1.429 . S
C1649 C1645 1.429 . S
C1649 C1650 1.523 . S
C1650 C1634 1.368 . S
C1650 C1646 1.368 . S
C1650 C1649 1.523 . S
H1651 C1626 0.950 . S
H1652 C1628 0.950 . S
H1653 C1629 0.949 . S
H1654 C1631 0.950 . S
H1655 C1633 0.950 . S
C1656 C1657 1.349 . S
C1656 C1658 1.327 . S
C1656 H1681 0.950 . S
C1657 C1656 1.349 . S
C1657 C1673 1.349 . S
C1658 C1656 1.327 . S
C1658 C1677 1.429 . S
C1658 H1682 0.950 . S
C1659 C1676 1.574 . S
C1659 C1678 1.368 . S
C1659 H1683 0.949 . S
H1660 C1664 0.949 . S
C1661 C1662 1.349 . S
C1661 C1663 1.327 . S
C1661 H1684 0.950 . S
C1662 C1661 1.349 . S
C1662 C1674 1.349 . S
C1663 C1661 1.327 . S
C1663 C1679 1.429 . S
C1663 H1685 0.950 . S
C1664 H1660 0.949 . S
C1664 C1672 1.574 . S
C1664 C1680 1.368 . S
H1665 C1673 0.950 . S
H1666 C1671 0.950 . S
H1667 C1672 0.949 . S
H1668 C1674 0.950 . S
H1669 C1675 0.950 . S
H1670 C1676 0.949 . S
C1671 H1666 0.950 . S
C1671 C1673 1.327 . S
C1671 C1677 1.429 . S
C1672 C1664 1.574 . S
C1672 H1667 0.949 . S
C1672 C1678 1.368 1_556 S
C1673 C1657 1.349 . S
C1673 H1665 0.950 . S
C1673 C1671 1.327 . S
C1674 C1662 1.349 . S
C1674 H1668 0.950 . S
C1674 C1675 1.327 . S
C1675 H1669 0.950 . S
C1675 C1674 1.327 . S
C1675 C1679 1.429 . S
C1676 C1659 1.574 . S
C1676 H1670 0.949 . S
C1676 C1680 1.368 1_554 S
C1677 C1658 1.429 . S
C1677 C1671 1.429 . S
C1677 C1678 1.523 . S
C1678 C1659 1.368 . S
C1678 C1672 1.368 1_554 S
C1678 C1677 1.523 . S
C1679 C1663 1.429 . S
C1679 C1675 1.429 . S
C1679 C1680 1.523 . S
C1680 C1664 1.368 . S
C1680 C1676 1.368 1_556 S
C1680 C1679 1.523 . S
H1681 C1656 0.950 . S
H1682 C1658 0.950 . S
H1683 C1659 0.949 . S
H1684 C1661 0.950 . S
H1685 C1663 0.950 . S
C1686 C1687 1.349 . S
C1686 C1688 1.327 . S
C1686 H1711 0.950 . S
C1687 C1686 1.349 . S
C1687 C1703 1.349 . S
C1688 C1686 1.327 . S
C1688 C1707 1.429 . S
C1688 H1712 0.950 . S
C1689 C1706 1.574 . S
C1689 C1708 1.368 . S
C1689 H1713 0.949 . S
H1690 C1694 0.949 . S
C1691 C1692 1.349 . S
C1691 C1693 1.327 . S
C1691 H1714 0.950 . S
C1692 C1691 1.349 . S
C1692 C1704 1.349 . S
C1693 C1691 1.327 . S
C1693 C1709 1.429 . S
C1693 H1715 0.950 . S
C1694 H1690 0.949 . S
C1694 C1702 1.574 . S
C1694 C1710 1.368 . S
H1695 C1703 0.950 . S
H1696 C1701 0.950 . S
H1697 C1702 0.949 . S
H1698 C1704 0.950 . S
H1699 C1705 0.950 . S
H1700 C1706 0.949 . S
C1701 H1696 0.950 . S
C1701 C1703 1.327 . S
C1701 C1707 1.429 . S
C1702 C1694 1.574 . S
C1702 H1697 0.949 . S
C1702 C1708 1.368 . S
C1703 C1687 1.349 . S
C1703 H1695 0.950 . S
C1703 C1701 1.327 . S
C1704 C1692 1.349 . S
C1704 H1698 0.950 . S
C1704 C1705 1.327 . S
C1705 H1699 0.950 . S
C1705 C1704 1.327 . S
C1705 C1709 1.429 . S
C1706 C1689 1.574 . S
C1706 H1700 0.949 . S
C1706 C1710 1.368 . S
C1707 C1688 1.429 . S
C1707 C1701 1.429 . S
C1707 C1708 1.523 . S
C1708 C1689 1.368 . S
C1708 C1702 1.368 . S
C1708 C1707 1.523 . S
C1709 C1693 1.429 . S
C1709 C1705 1.429 . S
C1709 C1710 1.523 . S
C1710 C1694 1.368 . S
C1710 C1706 1.368 . S
C1710 C1709 1.523 . S
H1711 C1686 0.950 . S
H1712 C1688 0.950 . S
H1713 C1689 0.949 . S
H1714 C1691 0.950 . S
H1715 C1693 0.950 . S
C1716 C1717 1.349 . S
C1716 C1718 1.327 . S
C1716 H1741 0.950 . S
C1717 C1716 1.349 . S
C1717 C1733 1.349 . S
C1718 C1716 1.327 . S
C1718 C1737 1.429 . S
C1718 H1742 0.950 1_556 S
C1719 C1736 1.574 . S
C1719 C1738 1.368 . S
C1719 H1743 0.949 . S
H1720 C1724 0.949 . S
C1721 C1722 1.349 . S
C1721 C1723 1.327 . S
C1721 H1744 0.950 . S
C1722 C1721 1.349 . S
C1722 C1734 1.349 . S
C1723 C1721 1.327 . S
C1723 C1739 1.429 . S
C1723 H1745 0.950 1_554 S
C1724 H1720 0.949 . S
C1724 C1732 1.574 . S
C1724 C1740 1.368 . S
H1725 C1733 0.950 . S
H1726 C1731 0.950 . S
H1727 C1732 0.949 . S
H1728 C1734 0.950 . S
H1729 C1735 0.950 . S
H1730 C1736 0.949 . S
C1731 H1726 0.950 . S
C1731 C1733 1.327 . S
C1731 C1737 1.429 . S
C1732 C1724 1.574 . S
C1732 H1727 0.949 . S
C1732 C1738 1.368 1_554 S
C1733 C1717 1.349 . S
C1733 H1725 0.950 . S
C1733 C1731 1.327 . S
C1734 C1722 1.349 . S
C1734 H1728 0.950 . S
C1734 C1735 1.327 . S
C1735 H1729 0.950 . S
C1735 C1734 1.327 . S
C1735 C1739 1.429 . S
C1736 C1719 1.574 . S
C1736 H1730 0.949 . S
C1736 C1740 1.368 1_556 S
C1737 C1718 1.429 . S
C1737 C1731 1.429 . S
C1737 C1738 1.523 . S
C1738 C1719 1.368 . S
C1738 C1732 1.368 1_556 S
C1738 C1737 1.523 . S
C1739 C1723 1.429 . S
C1739 C1735 1.429 . S
C1739 C1740 1.523 . S
C1740 C1724 1.368 . S
C1740 C1736 1.368 1_554 S
C1740 C1739 1.523 . S
H1741 C1716 0.950 . S
H1742 C1718 0.950 1_554 S
H1743 C1719 0.949 . S
H1744 C1721 0.950 . S
H1745 C1723 0.950 1_556 S
C1746 C1747 1.349 . S
C1746 C1748 1.327 . S
C1746 H1771 0.950 . S
C1747 C1746 1.349 . S
C1747 C1763 1.349 . S
C1748 C1746 1.327 . S
C1748 C1767 1.429 . S
C1748 H1772 0.950 . S
C1749 C1766 1.574 . S
C1749 C1768 1.368 . S
C1749 H1773 0.949 . S
H1750 C1754 0.949 . S
C1751 C1752 1.349 . S
C1751 C1753 1.327 . S
C1751 H1774 0.950 . S
C1752 C1751 1.349 . S
C1752 C1764 1.349 . S
C1753 C1751 1.327 . S
C1753 C1769 1.429 . S
C1753 H1775 0.950 . S
C1754 H1750 0.949 . S
C1754 C1762 1.574 . S
C1754 C1770 1.368 . S
H1755 C1763 0.950 . S
H1756 C1761 0.950 . S
H1757 C1762 0.949 . S
H1758 C1764 0.950 . S
H1759 C1765 0.950 . S
H1760 C1766 0.949 . S
C1761 H1756 0.950 . S
C1761 C1763 1.327 . S
C1761 C1767 1.429 . S
C1762 C1754 1.574 . S
C1762 H1757 0.949 . S
C1762 C1768 1.368 . S
C1763 C1747 1.349 . S
C1763 H1755 0.950 . S
C1763 C1761 1.327 . S
C1764 C1752 1.349 . S
C1764 H1758 0.950 . S
C1764 C1765 1.327 . S
C1765 H1759 0.950 . S
C1765 C1764 1.327 . S
C1765 C1769 1.429 . S
C1766 C1749 1.574 . S
C1766 H1760 0.949 . S
C1766 C1770 1.368 . S
C1767 C1748 1.429 . S
C1767 C1761 1.429 . S
C1767 C1768 1.523 . S
C1768 C1749 1.368 . S
C1768 C1762 1.368 . S
C1768 C1767 1.523 . S
C1769 C1753 1.429 . S
C1769 C1765 1.429 . S
C1769 C1770 1.523 . S
C1770 C1754 1.368 . S
C1770 C1766 1.368 . S
C1770 C1769 1.523 . S
H1771 C1746 0.950 . S
H1772 C1748 0.950 . S
H1773 C1749 0.949 . S
H1774 C1751 0.950 . S
H1775 C1753 0.950 . S
C337 C11 1.439 . S
C342 C221 1.439 . S
C367 C25 1.438 . S
C372 C235 1.438 . S
C397 C249 1.438 . S
C402 C39 1.438 . S
C427 C179 1.439 . S
C432 C53 1.439 . S
C457 C193 1.438 . S
C462 C67 1.438 . S
C487 C207 1.438 . S
C492 C81 1.438 . S
C517 C305 1.439 . S
C522 C95 1.439 . S
C547 C109 1.438 . S
C552 C319 1.438 . S
C577 C333 1.438 . S
C582 C123 1.438 . S
C607 C137 1.439 . S
C612 C263 1.439 . S
C637 C277 1.438 . S
C642 C151 1.438 . S
C667 C165 1.438 . S
C672 C291 1.438 . S
C697 C145 0.871 . S
C702 C5 0.871 . S
C727 C159 0.870 . S
C732 C19 0.870 . S
C757 C33 0.871 . S
C762 C89 0.870 . S
C787 C47 0.871 . S
C792 C103 0.871 . S
C817 C117 0.870 . S
C822 C61 0.870 . S
C847 C75 0.871 . S
C852 C131 0.871 . S
C877 C313 0.871 . S
C882 C173 0.870 . S
C907 C187 0.870 . S
C912 C327 0.870 . S
C937 C201 0.871 . S
C942 C257 0.871 . S
C967 C271 0.871 . S
C972 C215 0.871 . S
C997 C229 0.870 . S
C1002 C285 0.870 . S
C1027 C243 0.871 . S
C1032 C299 0.871 . S
C1057 C12 1.053 . S
C1062 C264 1.053 . S
C1087 C278 1.053 . S
C1092 C26 1.053 . S
C1117 C40 1.053 . S
C1122 C292 1.053 . S
C1147 C54 1.053 . S
C1152 C306 1.053 . S
C1177 C320 1.053 . S
C1182 C68 1.053 . S
C1207 C82 1.053 . S
C1212 C334 1.053 . S
C1237 C96 1.053 . S
C1242 C180 1.053 . S
C1267 C110 1.053 . S
C1272 C194 1.053 . S
C1297 C208 1.053 . S
C1302 C124 1.053 . S
C1327 C222 1.053 . S
C1332 C138 1.053 . S
C1357 C152 1.053 . S
C1362 C236 1.053 . S
C1387 C250 1.053 . S
C1392 C166 1.053 . S
C1417 C88 1.516 . S
C1422 C4 1.516 . S
C1447 C18 1.516 . S
C1452 C102 1.516 . S
C1477 C116 1.516 . S
C1482 C32 1.516 . S
C1507 C130 1.516 . S
C1512 C46 1.516 . S
C1537 C144 1.516 . S
C1542 C60 1.516 . S
C1567 C74 1.516 . S
C1572 C158 1.516 . S
C1597 C256 1.516 . S
C1602 C172 1.516 . S
C1627 C186 1.516 . S
C1632 C270 1.516 . S
C1657 C284 1.516 . S
C1662 C200 1.516 . S
C1687 C298 1.516 . S
C1692 C214 1.516 . S
C1717 C228 1.516 . S
C1722 C312 1.516 . S
C1747 C242 1.516 . S
C1752 C326 1.516 . S
