# Generated by pormake.
# Topology une, (4)-cn, num edge types: 1
# Building blocks:
#     Node 0, Type 0, BuildingBlock: AZAVOO_clean_sbu_0, # of connection points: 4
#     Node 1, Type 0, BuildingBlock: AZAVOO_clean_sbu_0, # of connection points: 4
#     Node 2, Type 0, BuildingBlock: AZAVOO_clean_sbu_0, # of connection points: 4
#     Node 3, Type 0, BuildingBlock: AZAVOO_clean_sbu_0, # of connection points: 4
#     Node 4, Type 0, BuildingBlock: AZAVOO_clean_sbu_0, # of connection points: 4
#     Node 5, Type 0, BuildingBlock: AZAVOO_clean_sbu_0, # of connection points: 4
#     Node 6, Type 0, BuildingBlock: AZAVOO_clean_sbu_0, # of connection points: 4
#     Node 7, Type 0, BuildingBlock: AZAVOO_clean_sbu_0, # of connection points: 4
#     Node 8, Type 0, BuildingBlock: AZAVOO_clean_sbu_0, # of connection points: 4
#     Node 9, Type 0, BuildingBlock: AZAVOO_clean_sbu_0, # of connection points: 4
#     Node 10, Type 0, BuildingBlock: AZAVOO_clean_sbu_0, # of connection points: 4
#     Node 11, Type 0, BuildingBlock: AZAVOO_clean_sbu_0, # of connection points: 4
#     Node 12, Type 0, BuildingBlock: AZAVOO_clean_sbu_0, # of connection points: 4
#     Node 13, Type 0, BuildingBlock: AZAVOO_clean_sbu_0, # of connection points: 4
#     Node 14, Type 0, BuildingBlock: AZAVOO_clean_sbu_0, # of connection points: 4
#     Node 15, Type 0, BuildingBlock: AZAVOO_clean_sbu_0, # of connection points: 4
#     Node 16, Type 0, BuildingBlock: AZAVOO_clean_sbu_0, # of connection points: 4
#     Node 17, Type 0, BuildingBlock: AZAVOO_clean_sbu_0, # of connection points: 4
#     Edge 18, Type (0, 0), BuildingBlock: XIVTED_clean_linker_0, # of connection points: 2
#     Edge 19, Type (0, 0), BuildingBlock: XIVTED_clean_linker_0, # of connection points: 2
#     Edge 20, Type (0, 0), BuildingBlock: XIVTED_clean_linker_0, # of connection points: 2
#     Edge 21, Type (0, 0), BuildingBlock: XIVTED_clean_linker_0, # of connection points: 2
#     Edge 22, Type (0, 0), BuildingBlock: XIVTED_clean_linker_0, # of connection points: 2
#     Edge 23, Type (0, 0), BuildingBlock: XIVTED_clean_linker_0, # of connection points: 2
#     Edge 24, Type (0, 0), BuildingBlock: XIVTED_clean_linker_0, # of connection points: 2
#     Edge 25, Type (0, 0), BuildingBlock: XIVTED_clean_linker_0, # of connection points: 2
#     Edge 26, Type (0, 0), BuildingBlock: XIVTED_clean_linker_0, # of connection points: 2
#     Edge 27, Type (0, 0), BuildingBlock: XIVTED_clean_linker_0, # of connection points: 2
#     Edge 28, Type (0, 0), BuildingBlock: XIVTED_clean_linker_0, # of connection points: 2
#     Edge 29, Type (0, 0), BuildingBlock: XIVTED_clean_linker_0, # of connection points: 2
#     Edge 30, Type (0, 0), BuildingBlock: XIVTED_clean_linker_0, # of connection points: 2
#     Edge 31, Type (0, 0), BuildingBlock: XIVTED_clean_linker_0, # of connection points: 2
#     Edge 32, Type (0, 0), BuildingBlock: XIVTED_clean_linker_0, # of connection points: 2
#     Edge 33, Type (0, 0), BuildingBlock: XIVTED_clean_linker_0, # of connection points: 2
#     Edge 34, Type (0, 0), BuildingBlock: XIVTED_clean_linker_0, # of connection points: 2
#     Edge 35, Type (0, 0), BuildingBlock: XIVTED_clean_linker_0, # of connection points: 2
#     Edge 36, Type (0, 0), BuildingBlock: XIVTED_clean_linker_0, # of connection points: 2
#     Edge 37, Type (0, 0), BuildingBlock: XIVTED_clean_linker_0, # of connection points: 2
#     Edge 38, Type (0, 0), BuildingBlock: XIVTED_clean_linker_0, # of connection points: 2
#     Edge 39, Type (0, 0), BuildingBlock: XIVTED_clean_linker_0, # of connection points: 2
#     Edge 40, Type (0, 0), BuildingBlock: XIVTED_clean_linker_0, # of connection points: 2
#     Edge 41, Type (0, 0), BuildingBlock: XIVTED_clean_linker_0, # of connection points: 2
#     Edge 42, Type (0, 0), BuildingBlock: XIVTED_clean_linker_0, # of connection points: 2
#     Edge 43, Type (0, 0), BuildingBlock: XIVTED_clean_linker_0, # of connection points: 2
#     Edge 44, Type (0, 0), BuildingBlock: XIVTED_clean_linker_0, # of connection points: 2
#     Edge 45, Type (0, 0), BuildingBlock: XIVTED_clean_linker_0, # of connection points: 2
#     Edge 46, Type (0, 0), BuildingBlock: XIVTED_clean_linker_0, # of connection points: 2
#     Edge 47, Type (0, 0), BuildingBlock: XIVTED_clean_linker_0, # of connection points: 2
#     Edge 48, Type (0, 0), BuildingBlock: XIVTED_clean_linker_0, # of connection points: 2
#     Edge 49, Type (0, 0), BuildingBlock: XIVTED_clean_linker_0, # of connection points: 2
#     Edge 50, Type (0, 0), BuildingBlock: XIVTED_clean_linker_0, # of connection points: 2
#     Edge 51, Type (0, 0), BuildingBlock: XIVTED_clean_linker_0, # of connection points: 2
#     Edge 52, Type (0, 0), BuildingBlock: XIVTED_clean_linker_0, # of connection points: 2
#     Edge 53, Type (0, 0), BuildingBlock: XIVTED_clean_linker_0, # of connection points: 2
# Relax obj value: 0.232
# Max RMSD: 0.200
# Mean RMSD: 0.182
data_MOF--net-une--node1-AZAVOO_clean_sbu_0--edge1-XIVTED_clean_linker_0
_symmetry_space_group_name_H-M    P1
_symmetry_Int_Tables_number       1
_symmetry_cell_setting            triclinic
loop_
_symmetry_equiv_pos_as_xyz
'x, y, z'
_cell_length_a     36.711327
_cell_length_b     37.817826
_cell_length_c     55.622294
_cell_angle_alpha  90.608159
_cell_angle_beta   88.596009
_cell_angle_gamma 120.72181
loop_
_atom_site_label
_atom_site_type_symbol
_atom_site_fract_x
_atom_site_fract_y
_atom_site_fract_z
_atom_type_partial_charge
Mg0 Mg 0.35469 0.02027 0.08087 0.0
O1 O 0.31375 0.02395 0.05142 0.0
O2 O 0.27554 0.96319 0.03309 0.0
Mg3 Mg 0.29579 0.92113 0.04947 0.0
C4 C 0.28633 0.00075 0.03609 0.0
C5 C 0.36093 0.10287 0.09121 0.0
O6 O 0.32058 0.0777 0.08712 0.0
O7 O 0.40296 0.02534 0.05136 0.0
O8 O 0.36205 0.96435 0.03388 0.0
O9 O 0.29878 -0.0025 0.10564 0.0
O10 O 0.31196 0.95677 0.08296 0.0
C11 C 0.39671 -0.00118 0.03499 0.0
C12 C 0.28573 0.96164 0.09636 0.0
O13 O 0.38655 0.08983 0.08785 0.0
Mg14 Mg 0.9848 0.3539 0.05388 0.0
O15 O 0.94997 0.29992 0.02807 0.0
O16 O 0.985 0.31319 0.99278 0.0
Mg17 Mg 0.04344 0.37716 0.9958 0.0
C18 C 0.95403 0.2896 0.00672 0.0
C19 C 0.91556 0.28588 0.086 0.0
O20 O 0.9358 0.26898 0.07604 0.0
O21 O 0.96248 0.39247 0.03335 0.0
O22 O 0.00107 0.40491 0.99933 0.0
O23 O 0.02312 0.32658 0.0654 0.0
O24 O 0.0418 0.3703 0.03521 0.0
C25 C 0.97429 0.40885 0.01239 0.0
C26 C 0.04839 0.34535 0.04733 0.0
O27 O 0.92691 0.32272 0.08015 0.0
Mg28 Mg 0.64171 0.63646 0.09471 0.0
O29 O 0.68929 0.66491 0.06326 0.0
O30 O 0.66784 0.69538 0.03763 0.0
Mg31 Mg 0.60193 0.68031 0.05087 0.0
C32 C 0.69477 0.68582 0.04424 0.0
C33 C 0.68895 0.62065 0.13247 0.0
O34 O 0.66833 0.63625 0.14355 0.0
O35 O 0.60007 0.58061 0.07014 0.0
O36 O 0.57911 0.6124 0.04508 0.0
O37 O 0.67205 0.69881 0.11184 0.0
O38 O 0.61755 0.67473 0.08774 0.0
C39 C 0.57928 0.58031 0.05181 0.0
C40 C 0.64614 0.70492 0.09977 0.0
O41 O 0.68217 0.61195 0.11021 0.0
Mg42 Mg 0.65859 0.92963 0.94657 0.0
O43 O 0.7216 0.98826 0.95364 0.0
O44 O 0.77051 0.97161 0.96127 0.0
Mg45 Mg 0.73984 0.90236 0.95624 0.0
C46 C 0.75914 -0.00187 0.95915 0.0
C47 C 0.59027 0.95086 0.93581 0.0
O48 O 0.56943 0.91078 0.93279 0.0
O49 O 0.68079 0.92619 0.90796 0.0
O50 O 0.72814 0.90782 0.91647 0.0
O51 O 0.64432 0.921 0.98588 0.0
O52 O 0.67797 0.89495 0.966 0.0
C53 C 0.70796 0.91615 0.90131 0.0
C54 C 0.66421 0.90102 0.98625 0.0
O55 O 0.6302 0.96932 0.93803 0.0
Mg56 Mg 0.04864 0.75796 0.94838 0.0
O57 O 0.98497 0.75413 0.95548 0.0
O58 O 0.99742 0.81779 0.96176 0.0
Mg59 Mg 0.06874 0.86258 0.9583 0.0
C60 C 0.97203 0.77903 0.96033 0.0
C61 C 0.03139 0.67342 0.95245 0.0
O62 O 0.0675 0.69873 0.96266 0.0
O63 O 0.05444 0.78249 0.90952 0.0
O64 O 0.06948 0.84631 0.9185 0.0
O65 O 0.05431 0.75397 0.98773 0.0
O66 O 0.07981 0.81291 0.9685 0.0
C67 C 0.06422 0.81886 0.9031 0.0
C68 C 0.07295 0.79353 0.98857 0.0
O69 O 0.01405 0.68864 0.93995 0.0
Mg70 Mg 0.29933 0.26681 0.92622 0.0
O71 O 0.25446 0.26721 0.955 0.0
O72 O 0.25942 0.24084 0.98962 0.0
Mg73 Mg 0.31071 0.22397 0.9829 0.0
C74 C 0.24338 0.2572 0.97693 0.0
C75 C 0.26725 0.28587 0.88095 0.0
O76 O 0.27433 0.25641 0.87435 0.0
O77 O 0.35433 0.32386 0.94501 0.0
O78 O 0.35863 0.29224 0.97775 0.0
O79 O 0.25118 0.20112 0.91704 0.0
O80 O 0.30073 0.21966 0.94416 0.0
C81 C 0.37178 0.32448 0.96489 0.0
C82 C 0.26817 0.191 0.93364 0.0
O83 O 0.2791 0.30186 0.90167 0.0
Mg84 Mg 0.02906 0.3597 0.41591 0.0
O85 O 0.98812 0.36176 0.38591 0.0
O86 O 0.94932 0.30002 0.36872 0.0
Mg87 Mg 0.96899 0.25865 0.38668 0.0
C88 C 0.96054 0.33783 0.37088 0.0
C89 C 0.0371 0.44401 0.42306 0.0
O90 O 0.99683 0.4195 0.41847 0.0
O91 O 0.07683 0.36224 0.38686 0.0
O92 O 0.03533 0.3002 0.37071 0.0
O93 O 0.97337 0.33925 0.44059 0.0
O94 O 0.98573 0.29656 0.41934 0.0
C95 C 0.07024 0.33453 0.37124 0.0
C96 C 0.95985 0.3027 0.43224 0.0
O97 O 0.06189 0.42973 0.42121 0.0
Mg98 Mg 0.66202 0.68654 0.39734 0.0
O99 O 0.63337 0.6408 0.36636 0.0
O100 O 0.68258 0.65499 0.33757 0.0
Mg101 Mg 0.74092 0.71559 0.34792 0.0
C102 C 0.64518 0.63261 0.34635 0.0
C103 C 0.57788 0.61748 0.41975 0.0
O104 O 0.59447 0.59747 0.40931 0.0
O105 O 0.65364 0.73375 0.37567 0.0
O106 O 0.70172 0.74714 0.34622 0.0
O107 O 0.6873 0.64841 0.41125 0.0
O108 O 0.72298 0.70019 0.3859 0.0
C109 C 0.67287 0.75214 0.35609 0.0
C110 C 0.7198 0.66911 0.3971 0.0
O111 O 0.5966 0.6564 0.41692 0.0
Mg112 Mg 0.32344 0.97496 0.42502 0.0
O113 O 0.36958 -0.00292 0.39258 0.0
O114 O 0.35081 0.02972 0.36683 0.0
Mg115 Mg 0.28885 0.0235 0.38112 0.0
C116 C 0.37556 0.01721 0.37313 0.0
C117 C 0.36425 0.95423 0.46367 0.0
O118 O 0.34547 0.97268 0.47353 0.0
O119 O 0.27517 0.91924 0.40212 0.0
O120 O 0.25728 0.95396 0.37738 0.0
O121 O 0.36147 0.03838 0.44049 0.0
O122 O 0.30601 0.01839 0.4176 0.0
C123 C 0.25359 0.92031 0.38457 0.0
C124 C 0.33757 0.04749 0.42862 0.0
O125 O 0.35827 0.94497 0.44143 0.0
Mg126 Mg 0.3436 0.27596 0.28034 0.0
O127 O 0.40457 0.33701 0.28629 0.0
O128 O 0.45858 0.3259 0.28857 0.0
Mg129 Mg 0.43175 0.25688 0.28461 0.0
C130 C 0.44386 0.35002 0.28884 0.0
C131 C 0.26931 0.29027 0.27293 0.0
O132 O 0.2509 0.25029 0.26996 0.0
O133 O 0.36262 0.27468 0.24064 0.0
O134 O 0.41377 0.26007 0.24587 0.0
O135 O 0.3338 0.26631 0.31978 0.0
O136 O 0.36925 0.24471 0.29755 0.0
C137 C 0.3904 0.26668 0.23219 0.0
C138 C 0.35637 0.24899 0.31855 0.0
O139 O 0.30942 0.31122 0.27426 0.0
Mg140 Mg 0.73424 0.0955 0.28348 0.0
O141 O 0.66842 0.08813 0.28776 0.0
O142 O 0.67738 0.15098 0.29153 0.0
Mg143 Mg 0.74815 0.19846 0.2895 0.0
C144 C 0.65353 0.11193 0.29076 0.0
C145 C 0.72175 0.01299 0.29019 0.0
O146 O 0.75556 0.03995 0.30172 0.0
O147 O 0.74193 0.11732 0.24388 0.0
O148 O 0.75326 0.18057 0.25057 0.0
O149 O 0.73694 0.09423 0.32324 0.0
O150 O 0.76132 0.1516 0.3025 0.0
C151 C 0.7506 0.15275 0.23624 0.0
C152 C 0.75373 0.13365 0.32311 0.0
O153 O 0.70419 0.02616 0.27626 0.0
Mg154 Mg 0.95966 0.60289 0.26595 0.0
O155 O 0.91605 0.59673 0.29773 0.0
O156 O 0.93342 0.57395 0.32995 0.0
Mg157 Mg 0.98574 0.56103 0.31796 0.0
C158 C 0.91117 0.58648 0.31987 0.0
C159 C 0.92366 0.62212 0.22291 0.0
O160 O 0.93674 0.59766 0.21474 0.0
O161 O 0.01484 0.66141 0.284 0.0
O162 O 0.02897 0.62998 0.31317 0.0
O163 O 0.91428 0.53685 0.2563 0.0
O164 O 0.96848 0.55746 0.28037 0.0
C165 C 0.03713 0.66245 0.30179 0.0
C166 C 0.9355 0.52788 0.27067 0.0
O167 O 0.9324 0.63526 0.24442 0.0
Mg168 Mg 0.69028 0.66905 0.74848 0.0
O169 O 0.64651 0.67395 0.72161 0.0
O170 O 0.61068 0.61658 0.69996 0.0
Mg171 Mg 0.63699 0.57611 0.71093 0.0
C172 C 0.61911 0.65264 0.70583 0.0
C173 C 0.68872 0.74586 0.76499 0.0
O174 O 0.64867 0.7179 0.76217 0.0
O175 O 0.73945 0.68341 0.71756 0.0
O176 O 0.7017 0.6257 0.69633 0.0
O177 O 0.63432 0.63712 0.77341 0.0
O178 O 0.65243 0.60487 0.74667 0.0
C179 C 0.73482 0.66098 0.69912 0.0
C180 C 0.62474 0.60386 0.76172 0.0
O181 O 0.71679 0.73666 0.75947 0.0
Mg182 Mg 0.30617 0.03032 0.72934 0.0
O183 O 0.28126 0.97886 0.70136 0.0
O184 O 0.32939 0.99283 0.67197 0.0
Mg185 Mg 0.38284 0.05843 0.6785 0.0
C186 C 0.29351 0.969 0.68211 0.0
C187 C 0.22978 0.95758 0.75499 0.0
O188 O 0.25194 0.94203 0.7459 0.0
O189 O 0.28764 0.06745 0.70428 0.0
O190 O 0.33565 0.08016 0.67494 0.0
O191 O 0.34179 0.00358 0.74614 0.0
O192 O 0.36852 0.04992 0.71718 0.0
C193 C 0.30464 0.08277 0.68368 0.0
C194 C 0.37188 0.02424 0.73055 0.0
O195 O 0.24199 0.99509 0.75037 0.0
Mg196 Mg 0.98753 0.31035 0.75491 0.0
O197 O 0.03702 0.33901 0.72446 0.0
O198 O 0.01386 0.36319 0.69574 0.0
Mg199 Mg 0.94795 0.3495 0.70802 0.0
C200 C 0.04204 0.357 0.70434 0.0
C201 C 0.0385 0.29921 0.79315 0.0
O202 O 0.02162 0.31883 0.80379 0.0
O203 O 0.94624 0.25255 0.73147 0.0
O204 O 0.92402 0.28107 0.70485 0.0
O205 O 0.01636 0.37343 0.77076 0.0
O206 O 0.96289 0.34735 0.74576 0.0
C207 C 0.92455 0.24995 0.71305 0.0
C208 C 0.99076 0.37839 0.75762 0.0
O209 O 0.02799 0.28678 0.77165 0.0
Mg210 Mg 0.00649 0.61256 0.60777 0.0
O211 O 0.06719 0.67135 0.61747 0.0
O212 O 0.1192 0.65808 0.62252 0.0
Mg213 Mg 0.09087 0.58926 0.61632 0.0
C214 C 0.10547 0.68299 0.62226 0.0
C215 C 0.93661 0.63233 0.59838 0.0
O216 O 0.91633 0.59237 0.59492 0.0
O217 O 0.03172 0.61452 0.56919 0.0
O218 O 0.08029 0.59732 0.57678 0.0
O219 O 0.98986 0.59934 0.64649 0.0
O220 O 0.02713 0.57784 0.62593 0.0
C221 C 0.06002 0.6063 0.56206 0.0
C222 C 0.01138 0.58093 0.64628 0.0
O223 O 0.97659 0.65128 0.60043 0.0
Mg224 Mg 0.3846 0.41205 0.60894 0.0
O225 O 0.32924 0.42133 0.61945 0.0
O226 O 0.35593 0.48721 0.62979 0.0
Mg227 Mg 0.42765 0.52094 0.62375 0.0
C228 C 0.32461 0.45077 0.62711 0.0
C229 C 0.35276 0.32267 0.59498 0.0
O230 O 0.39376 0.34 0.59087 0.0
O231 O 0.39249 0.44198 0.57161 0.0
O232 O 0.42121 0.50753 0.58321 0.0
O233 O 0.39165 0.40115 0.64725 0.0
O234 O 0.42527 0.46265 0.63033 0.0
C235 C 0.40897 0.48029 0.5667 0.0
C236 C 0.41615 0.44043 0.64944 0.0
O237 O 0.33732 0.3457 0.59856 0.0
Mg238 Mg 0.60979 0.92514 0.61282 0.0
O239 O 0.56814 0.93204 0.64159 0.0
O240 O 0.57669 0.91097 0.67732 0.0
Mg241 Mg 0.62526 0.89053 0.6716 0.0
C242 C 0.55978 0.92585 0.66411 0.0
C243 C 0.57926 0.93948 0.56517 0.0
O244 O 0.58631 0.90934 0.56048 0.0
O245 O 0.66818 0.98401 0.62814 0.0
O246 O 0.67479 0.9567 0.66212 0.0
O247 O 0.56027 0.85831 0.60654 0.0
O248 O 0.61019 0.88013 0.6336 0.0
C249 C 0.68778 0.9869 0.64758 0.0
C250 C 0.57718 0.85023 0.62415 0.0
O251 O 0.59009 0.95729 0.58553 0.0
H252 H 0.48412 0.04397 0.03857 0.0
H253 H 0.50941 0.92892 0.92498 0.0
H254 H 0.38419 0.96999 0.98941 0.0
H255 H 0.61655 0.0177 0.96548 0.0
H256 H 0.46551 0.95182 0.94531 0.0
H257 H 0.53562 0.04316 0.00965 0.0
C258 C 0.47318 0.02839 0.02152 0.0
C259 C 0.42977 0.00635 0.01657 0.0
C260 C 0.49879 0.96692 0.94952 0.0
C261 C 0.48806 0.00501 0.98362 0.0
C262 C 0.52389 0.95388 0.9378 0.0
C263 C 0.56657 0.97116 0.94365 0.0
C264 C 0.51616 -0.00314 0.9677 0.0
C265 C 0.58373 0.0035 0.96041 0.0
C266 C 0.50248 0.02778 0.00505 0.0
C267 C 0.41726 0.98665 0.99421 0.0
N268 N 0.55827 0.01473 0.97224 0.0
N269 N 0.44607 0.98603 0.97877 0.0
H270 H 0.9641 0.42362 0.96594 0.0
H271 H 0.01901 0.64785 0.99841 0.0
H272 H 0.95922 0.46228 0.03855 0.0
H273 H 0.99101 0.60148 0.926 0.0
H274 H 0.98955 0.5779 0.01335 0.0
H275 H 0.96478 0.48437 0.9508 0.0
C276 C 0.96199 0.44438 0.97871 0.0
C277 C 0.96205 0.43811 1.00358 0.0
C278 C 0.98911 0.58268 0.99422 0.0
C279 C 0.96395 0.50839 0.98632 0.0
C280 C 0.00609 0.62266 0.98566 0.0
C281 C 0.00774 0.63034 0.96093 0.0
C282 C 0.97454 0.54993 0.97789 0.0
C283 C 0.99032 0.59673 0.94521 0.0
C284 C 0.9625 0.47915 0.97003 0.0
C285 C 0.95919 0.46588 0.01926 0.0
N286 N 0.97514 0.55793 0.95392 0.0
N287 N 0.96121 0.50029 0.01038 0.0
H288 H 0.40161 0.40481 0.95058 0.0
H289 H 0.55979 0.50069 0.06139 0.0
H290 H 0.42335 0.33255 1.00157 0.0
H291 H 0.54022 0.57317 0.00943 0.0
H292 H 0.51338 0.4388 0.03812 0.0
H293 H 0.45632 0.46747 0.97019 0.0
C294 C 0.41808 0.40207 0.96568 0.0
C295 C 0.40742 0.36328 0.97454 0.0
C296 C 0.5195 0.46836 0.03179 0.0
C297 C 0.4698 0.43469 0.99719 0.0
C298 C 0.54604 0.50368 0.04509 0.0
C299 C 0.5537 0.54224 0.03759 0.0
C300 C 0.50052 0.47164 0.01087 0.0
C301 C 0.535 0.54416 0.01618 0.0
C302 C 0.44921 0.43782 0.97696 0.0
C303 C 0.42994 0.36169 0.99424 0.0
N304 N 0.50922 0.50948 1.00372 0.0
N305 N 0.45973 0.39674 0.00494 0.0
H306 H 0.15773 0.38248 0.37373 0.0
H307 H 0.18624 0.26179 0.26389 0.0
H308 H 0.05728 0.29977 0.32713 0.0
H309 H 0.29285 0.35818 0.30132 0.0
H310 H 0.14014 0.28209 0.28415 0.0
H311 H 0.20949 0.38103 0.34529 0.0
C312 C 0.14666 0.36471 0.35735 0.0
C313 C 0.10311 0.3406 0.35302 0.0
C314 C 0.17372 0.29935 0.28772 0.0
C315 C 0.16174 0.33859 0.3206 0.0
C316 C 0.20007 0.28778 0.27604 0.0
C317 C 0.24336 0.3081 0.28102 0.0
C318 C 0.19051 0.33097 0.30495 0.0
C319 C 0.2596 0.34166 0.29694 0.0
C320 C 0.17613 0.36376 0.34116 0.0
C321 C 0.09047 0.31815 0.33149 0.0
N322 N 0.23304 0.35157 0.30871 0.0
N323 N 0.11949 0.31735 0.31631 0.0
H324 H 0.68089 0.77258 0.30866 0.0
H325 H 0.70054 0.98601 0.33576 0.0
H326 H 0.64725 0.80188 0.37776 0.0
H327 H 0.69552 0.9425 0.26334 0.0
H328 H 0.6758 0.91691 0.35097 0.0
H329 H 0.68077 0.83142 0.29108 0.0
C330 C 0.67277 0.79106 0.32008 0.0
C331 C 0.66455 0.7826 0.34481 0.0
C332 C 0.67931 0.92207 0.33173 0.0
C333 C 0.66505 0.85054 0.32478 0.0
C334 C 0.6935 0.96153 0.32304 0.0
C335 C 0.70014 0.9698 0.2983 0.0
C336 C 0.67272 0.89068 0.3156 0.0
C337 C 0.69061 0.9372 0.28254 0.0
C338 C 0.67263 0.82462 0.30998 0.0
C339 C 0.65385 0.80732 0.35865 0.0
N340 N 0.67809 0.8991 0.2915 0.0
N341 N 0.65522 0.84065 0.34854 0.0
H342 H 0.10068 0.67209 0.33033 0.0
H343 H 0.19952 0.91326 0.34951 0.0
H344 H 0.05499 0.74232 0.2946 0.0
H345 H 0.23761 0.84065 0.38955 0.0
H346 H 0.14989 0.85221 0.3276 0.0
H347 H 0.15437 0.7344 0.34962 0.0
C348 C 0.10201 0.70073 0.32639 0.0
C349 C 0.07278 0.70175 0.31091 0.0
C350 C 0.16906 0.84951 0.34113 0.0
C351 C 0.13476 0.77372 0.33328 0.0
C352 C 0.1976 0.88446 0.35377 0.0
C353 C 0.22306 0.88231 0.37157 0.0
C354 C 0.16565 0.81173 0.34615 0.0
C355 C 0.2187 0.8439 0.3761 0.0
C356 C 0.13282 0.73637 0.33752 0.0
C357 C 0.07674 0.73999 0.30636 0.0
N358 N 0.19055 0.81014 0.36346 0.0
N359 N 0.10697 0.77443 0.31765 0.0
H360 H 0.96277 0.69874 0.62838 0.0
H361 H 0.72444 0.64456 0.65153 0.0
H362 H 0.85484 0.60898 0.58873 0.0
H363 H 0.82176 0.70533 0.70415 0.0
H364 H 0.77763 0.65021 0.62229 0.0
H365 H 0.91697 0.71881 0.64985 0.0
C366 C 0.92973 0.6841 0.62365 0.0
C367 C 0.91243 0.65179 0.60688 0.0
C368 C 0.78761 0.66295 0.64008 0.0
C369 C 0.86007 0.67457 0.63143 0.0
C370 C 0.75727 0.65985 0.65679 0.0
C371 C 0.76863 0.67385 0.68043 0.0
C372 C 0.82974 0.67982 0.64704 0.0
C373 C 0.81169 0.69396 0.68614 0.0
C374 C 0.90359 0.69538 0.63607 0.0
C375 C 0.8694 0.63374 0.60165 0.0
N376 N 0.8407 0.69566 0.66966 0.0
N377 N 0.84466 0.64512 0.61403 0.0
H378 H 0.36125 0.25917 0.57847 0.0
H379 H 0.27752 0.13542 0.69936 0.0
H380 H 0.2923 0.28838 0.63098 0.0
H381 H 0.30372 0.0865 0.6352 0.0
H382 H 0.27588 0.18816 0.67456 0.0
H383 H 0.33478 0.19272 0.59811 0.0
C384 C 0.33965 0.2511 0.5938 0.0
C385 C 0.32892 0.27925 0.60305 0.0
C386 C 0.2809 0.16518 0.66588 0.0
C387 C 0.29962 0.20377 0.62631 0.0
C388 C 0.28155 0.13494 0.68003 0.0
C389 C 0.29141 0.10698 0.66936 0.0
C390 C 0.2905 0.1674 0.64106 0.0
C391 C 0.29674 0.10795 0.64423 0.0
C392 C 0.32459 0.21319 0.6051 0.0
C393 C 0.30109 0.26738 0.62314 0.0
N394 N 0.29698 0.13803 0.63105 0.0
N395 N 0.28814 0.2309 0.63444 0.0
H396 H 0.72483 0.06406 0.6263 0.0
H397 H 0.89754 0.17134 0.72941 0.0
H398 H 0.74001 -0.0016 0.6846 0.0
H399 H 0.88695 0.2372 0.6696 0.0
H400 H 0.84342 0.10667 0.71136 0.0
H401 H 0.78736 0.12746 0.64021 0.0
C402 C 0.7413 0.06285 0.64187 0.0
C403 C 0.72669 0.0258 0.65437 0.0
C404 C 0.85326 0.13532 0.70211 0.0
C405 C 0.79818 0.09807 0.6704 0.0
C406 C 0.88434 0.17222 0.71237 0.0
C407 C 0.89653 0.20986 0.70122 0.0
C408 C 0.83422 0.1361 0.68057 0.0
C409 C 0.8782 0.20902 0.6791 0.0
C410 C 0.77701 0.09902 0.64983 0.0
C411 C 0.74956 0.02617 0.67445 0.0
N412 N 0.84781 0.1729 0.66966 0.0
N413 N 0.78383 0.06161 0.68186 0.0
H414 H 0.4372 0.15531 0.11229 0.0
H415 H 0.33033 0.248 0.19785 0.0
H416 H 0.31301 0.13776 0.10139 0.0
H417 H 0.45579 0.26782 0.20714 0.0
H418 H 0.32925 0.22012 0.15773 0.0
H419 H 0.45052 0.20868 0.14186 0.0
C420 C 0.41308 0.16325 0.11571 0.0
C421 C 0.3736 0.14136 0.1047 0.0
C422 C 0.35736 0.23133 0.16837 0.0
C423 C 0.38832 0.20199 0.13885 0.0
C424 C 0.35806 0.24749 0.19124 0.0
C425 C 0.39283 0.25947 0.20609 0.0
C426 C 0.39162 0.22707 0.16038 0.0
C427 C 0.42791 0.25813 0.19652 0.0
C428 C 0.42061 0.19366 0.1327 0.0
C429 C 0.34365 0.15326 0.10976 0.0
N430 N 0.42612 0.24157 0.1745 0.0
N431 N 0.35132 0.18219 0.12676 0.0
H432 H 0.87146 0.31225 0.11452 0.0
H433 H 0.77475 0.11558 0.20146 0.0
H434 H 0.88541 0.20707 0.10125 0.0
H435 H 0.7565 0.21863 0.21278 0.0
H436 H 0.80825 0.14466 0.16224 0.0
H437 H 0.82303 0.27521 0.14835 0.0
C438 C 0.86406 0.28128 0.11854 0.0
C439 C 0.88294 0.263 0.10512 0.0
C440 C 0.79639 0.16061 0.1732 0.0
C441 C 0.82765 0.22039 0.14394 0.0
C442 C 0.77697 0.14382 0.19554 0.0
C443 C 0.76318 0.16485 0.21064 0.0
C444 C 0.80214 0.19874 0.16592 0.0
C445 C 0.76713 0.20151 0.20196 0.0
C446 C 0.83641 0.2601 0.13789 0.0
C447 C 0.872 0.22266 0.11118 0.0
N448 N 0.78659 0.21745 0.18039 0.0
N449 N 0.84546 0.20292 0.13021 0.0
H450 H 0.87505 0.65516 0.23737 0.0
H451 H 0.74529 0.59823 0.11477 0.0
H452 H 0.90176 0.60041 0.1761 0.0
H453 H 0.71133 0.64024 0.17927 0.0
H454 H 0.8049 0.60171 0.13598 0.0
H455 H 0.81829 0.65489 0.21501 0.0
C456 C 0.86941 0.64362 0.21912 0.0
C457 C 0.89319 0.62766 0.20868 0.0
C458 C 0.78427 0.61004 0.14548 0.0
C459 C 0.82777 0.62671 0.18301 0.0
C460 C 0.7501 0.60784 0.1334 0.0
C461 C 0.72311 0.61887 0.14521 0.0
C462 C 0.79165 0.62355 0.16951 0.0
C463 C 0.73116 0.63138 0.16936 0.0
C464 C 0.83675 0.64316 0.2064 0.0
C465 C 0.88418 0.61287 0.18496 0.0
N466 N 0.76464 0.63349 0.18063 0.0
N467 N 0.85215 0.61259 0.17299 0.0
H468 H 0.65177 0.89788 0.86478 0.0
H469 H 0.76407 0.80171 0.78579 0.0
H470 H 0.77433 0.91426 0.87949 0.0
H471 H 0.63715 0.77679 0.77467 0.0
H472 H 0.77514 0.85624 0.81408 0.0
H473 H 0.65303 0.8675 0.82587 0.0
C474 C 0.67943 0.89614 0.85958 0.0
C475 C 0.71261 0.90791 0.87563 0.0
C476 C 0.7451 0.83928 0.80514 0.0
C477 C 0.71402 0.87263 0.83132 0.0
C478 C 0.73884 0.80824 0.78891 0.0
C479 C 0.69936 0.7841 0.7782 0.0
C480 C 0.71161 0.84616 0.81072 0.0
C481 C 0.66787 0.79411 0.78285 0.0
C482 C 0.68002 0.87849 0.83742 0.0
C483 C 0.74766 0.90487 0.86789 0.0
N484 N 0.67445 0.82392 0.79899 0.0
N485 N 0.74714 0.88698 0.8465 0.0
H486 H 0.06879 0.88602 0.88213 0.0
H487 H 0.19458 0.87603 0.76556 0.0
H488 H 0.08636 0.78376 0.86601 0.0
H489 H 0.18621 0.98238 0.78527 0.0
H490 H 0.14526 0.83754 0.79846 0.0
H491 H 0.10091 0.91639 0.84322 0.0
C492 C 0.07877 0.86952 0.87024 0.0
C493 C 0.07525 0.83239 0.87758 0.0
C494 C 0.15379 0.86913 0.79547 0.0
C495 C 0.11275 0.86758 0.83283 0.0
C496 C 0.18201 0.89125 0.77663 0.0
C497 C 0.19507 0.93281 0.77274 0.0
C498 C 0.13838 0.88857 0.81072 0.0
C499 C 0.17726 0.95054 0.78761 0.0
C500 C 0.09729 0.88706 0.84799 0.0
C501 C 0.08844 0.81241 0.8612 0.0
N502 N 0.15021 0.92847 0.80608 0.0
N503 N 0.10712 0.83053 0.83975 0.0
H504 H 0.2301 0.3311 0.8933 0.0
H505 H 0.08573 0.26576 0.77619 0.0
H506 H 0.23845 0.25795 0.83574 0.0
H507 H 0.06947 0.32701 0.83787 0.0
H508 H 0.14463 0.266 0.79632 0.0
H509 H 0.17543 0.33517 0.87133 0.0
C510 C 0.22094 0.31641 0.87589 0.0
C511 C 0.23885 0.294 0.86644 0.0
C512 C 0.12807 0.27931 0.80543 0.0
C513 C 0.1757 0.29802 0.84127 0.0
C514 C 0.09431 0.279 0.79398 0.0
C515 C 0.07243 0.29626 0.80534 0.0
C516 C 0.14018 0.29717 0.82835 0.0
C517 C 0.08523 0.31325 0.82837 0.0
C518 C 0.18943 0.31846 0.86341 0.0
C519 C 0.22543 0.27541 0.84381 0.0
N520 N 0.11818 0.31334 0.83903 0.0
N521 N 0.19457 0.27764 0.83208 0.0
H522 H 0.9925 0.4835 0.42818 0.0
H523 H 0.12879 0.60959 0.53988 0.0
H524 H 0.11065 0.49356 0.44732 0.0
H525 H 0.00485 0.58978 0.52521 0.0
H526 H 0.13131 0.58334 0.50005 0.0
H527 H 0.00547 0.53751 0.45706 0.0
C528 C 0.02166 0.49767 0.43809 0.0
C529 C 0.0501 0.48328 0.4357 0.0
C530 C 0.10387 0.58542 0.50531 0.0
C531 C 0.06489 0.54499 0.46902 0.0
C532 C 0.10243 0.60053 0.52807 0.0
C533 C 0.06614 0.60109 0.53611 0.0
C534 C 0.0686 0.5703 0.49049 0.0
C535 C 0.03329 0.58956 0.51986 0.0
C536 C 0.02897 0.5285 0.45463 0.0
C537 C 0.08759 0.50327 0.44876 0.0
N538 N 0.03492 0.57382 0.498 0.0
N539 N 0.09352 0.53257 0.46519 0.0
H540 H 0.54348 0.64974 0.45144 0.0
H541 H 0.41538 0.44004 0.52656 0.0
H542 H 0.5313 0.53479 0.42868 0.0
H543 H 0.42893 0.55556 0.54931 0.0
H544 H 0.44785 0.47131 0.48755 0.0
H545 H 0.49234 0.61329 0.48426 0.0
C546 C 0.52961 0.61678 0.45309 0.0
C547 C 0.5422 0.59547 0.4374 0.0
C548 C 0.44312 0.48962 0.50097 0.0
C549 C 0.48383 0.55348 0.47515 0.0
C550 C 0.42426 0.47164 0.52321 0.0
C551 C 0.41986 0.49528 0.54142 0.0
C552 C 0.45769 0.53152 0.49691 0.0
C553 C 0.43219 0.53622 0.53598 0.0
C554 C 0.50046 0.59594 0.47191 0.0
C555 C 0.52299 0.55267 0.44046 0.0
N556 N 0.45094 0.5531 0.51441 0.0
N557 N 0.49522 0.53323 0.45908 0.0
H558 H 0.54125 0.98521 0.57344 0.0
H559 H 0.41512 0.92295 0.44945 0.0
H560 H 0.55528 0.90975 0.51959 0.0
H561 H 0.38611 0.9771 0.51015 0.0
H562 H 0.47055 0.92221 0.47304 0.0
H563 H 0.48974 0.98894 0.54811 0.0
C564 C 0.53399 0.96991 0.55615 0.0
C565 C 0.55257 0.947 0.54872 0.0
C566 C 0.45189 0.93412 0.48115 0.0
C567 C 0.49309 0.95071 0.51967 0.0
C568 C 0.42012 0.93437 0.46773 0.0
C569 C 0.39574 0.95 0.47779 0.0
C570 C 0.45954 0.94995 0.50471 0.0
C571 C 0.40392 0.96467 0.50156 0.0
C572 C 0.50427 0.97175 0.54176 0.0
C573 C 0.54164 0.92762 0.52613 0.0
N574 N 0.43509 0.96443 0.51409 0.0
N575 N 0.51256 0.92978 0.51247 0.0
H576 H 0.22529 0.98102 0.08859 0.0
H577 H 0.07565 0.76085 0.03144 0.0
H578 H 0.24419 0.87802 0.09517 0.0
H579 H 0.10658 0.87578 0.9981 0.0
H580 H 0.11436 0.79868 0.06697 0.0
H581 H 0.15844 0.93636 0.06842 0.0
C582 C 0.21431 0.94853 0.08689 0.0
C583 C 0.24023 0.93303 0.09334 0.0
C584 C 0.11166 0.81539 0.05208 0.0
C585 C 0.1644 0.88229 0.07032 0.0
C586 C 0.08966 0.79394 0.03178 0.0
C587 C 0.08867 0.81534 0.01156 0.0
C588 C 0.13229 0.85841 0.05224 0.0
C589 C 0.10712 0.85814 0.01312 0.0
C590 C 0.17646 0.92327 0.07515 0.0
C591 C 0.22503 0.89099 0.09032 0.0
N592 N 0.12868 0.8784 0.03304 0.0
N593 N 0.18826 0.86708 0.07869 0.0
H594 H 0.10868 0.38234 0.01174 0.0
H595 H 0.20315 0.23419 0.0214 0.0
H596 H 0.06 0.28351 0.0636 0.0
H597 H 0.21548 0.30531 0.95823 0.0
H598 H 0.15674 0.25637 0.04001 0.0
H599 H 0.15563 0.35999 0.99519 0.0
C600 C 0.10774 0.35585 0.01963 0.0
C601 C 0.07974 0.3343 0.03879 0.0
C602 C 0.16958 0.26689 0.02205 0.0
C603 C 0.13399 0.30882 0.02008 0.0
C604 C 0.19602 0.25427 0.01141 0.0
C605 C 0.21327 0.26786 0.9882 0.0
C606 C 0.16092 0.2937 0.00948 0.0
C607 C 0.20291 0.29387 0.97611 0.0
C608 C 0.13464 0.34313 0.01018 0.0
C609 C 0.08088 0.30086 0.0487 0.0
N610 N 0.17769 0.30609 0.98694 0.0
N611 N 0.10751 0.28902 0.03918 0.0
H612 H 0.58996 0.73094 0.09812 0.0
H613 H 0.62793 0.89801 0.03031 0.0
H614 H 0.72203 0.7712 0.08664 0.0
H615 H 0.7133 0.86697 0.99418 0.0
H616 H 0.62979 0.86218 0.06629 0.0
H617 H 0.60072 0.79153 0.0765 0.0
C618 C 0.62163 0.7536 0.09189 0.0
C619 C 0.65524 0.74649 0.09422 0.0
C620 C 0.64843 0.86371 0.05051 0.0
C621 C 0.66765 0.81504 0.06894 0.0
C622 C 0.64755 0.88423 0.03002 0.0
C623 C 0.6699 0.88484 0.00902 0.0
C624 C 0.67202 0.84394 0.04996 0.0
C625 C 0.69514 0.86687 0.00977 0.0
C626 C 0.62782 0.7882 0.07958 0.0
C627 C 0.69551 0.77607 0.08544 0.0
N628 N 0.69527 0.84689 0.02986 0.0
N629 N 0.70036 0.80854 0.07248 0.0
H630 H 0.82302 0.02771 0.99117 0.0
H631 H 0.92672 0.2633 0.96105 0.0
H632 H 0.76422 0.06675 0.93986 0.0
H633 H 0.91369 0.22042 0.03411 0.0
H634 H 0.87906 0.19185 0.9482 0.0
H635 H 0.87041 0.09977 1.00227 0.0
C636 C 0.82047 0.0515 0.98206 0.0
C637 C 0.7897 0.04145 0.96465 0.0
C638 C 0.88664 0.19839 0.96702 0.0
C639 C 0.84381 0.12338 0.97702 0.0
C640 C 0.91372 0.23888 0.97434 0.0
C641 C 0.9238 0.24759 0.99867 0.0
C642 C 0.87088 0.16661 0.98409 0.0
C643 C 0.9063 0.21499 0.01523 0.0
C644 C 0.84722 0.0924 0.9885 0.0
C645 C 0.78743 0.07337 0.95349 0.0
N646 N 0.88106 0.1758 0.00758 0.0
N647 N 0.81441 0.11312 0.95975 0.0
H648 H 0.73198 0.7484 0.01109 0.0
H649 H 0.91328 0.69983 0.97304 0.0
H650 H 0.74482 0.65178 0.0429 0.0
H651 H 0.92844 0.82005 0.96444 0.0
H652 H 0.84287 0.67525 0.99086 0.0
H653 H 0.7965 0.769 0.9868 0.0
C654 C 0.74822 0.73141 0.01287 0.0
C655 C 0.73321 0.69852 0.02916 0.0
C656 C 0.8615 0.70689 0.98483 0.0
C657 C 0.80635 0.72149 1.00126 0.0
C658 C 0.90157 0.72091 0.97449 0.0
C659 C 0.92703 0.76222 0.96745 0.0
C660 C 0.84654 0.73421 0.98792 0.0
C661 C 0.91009 0.78807 0.96984 0.0
C662 C 0.78498 0.74321 0.99905 0.0
C663 C 0.7555 0.67759 0.03077 0.0
N664 N 0.87094 0.77369 0.98 0.0
N665 N 0.79088 0.68937 0.01695 0.0
H666 H 0.2109 0.15926 0.97033 0.0
H667 H 0.26882 0.06049 0.04815 0.0
H668 H 0.28371 0.13075 0.9204 0.0
H669 H 0.2616 0.98187 0.98945 0.0
H670 H 0.24631 0.09602 0.02139 0.0
H671 H 0.19906 0.10154 0.99572 0.0
C672 C 0.22293 0.13973 0.96432 0.0
C673 C 0.24816 0.14933 0.94338 0.0
C674 C 0.24836 0.07021 0.01448 0.0
C675 C 0.23668 0.08507 0.9726 0.0
C676 C 0.26183 0.05034 0.02968 0.0
C677 C 0.26751 0.01861 0.02088 0.0
C678 C 0.24128 0.05874 0.99016 0.0
C679 C 0.25765 0.00632 0.99687 0.0
C680 C 0.21678 0.10732 0.97893 0.0
C681 C 0.26381 0.12385 0.93641 0.0
N682 N 0.24602 0.02715 0.98212 0.0
N683 N 0.25832 0.09306 0.95121 0.0
H684 H 0.91741 0.21917 0.43356 0.0
H685 H 0.78764 0.21663 0.32983 0.0
H686 H 0.90026 0.3223 0.4223 0.0
H687 H 0.75109 0.10407 0.36799 0.0
H688 H 0.82317 0.25559 0.36576 0.0
H689 H 0.85053 0.17457 0.4136 0.0
C690 C 0.89856 0.23199 0.42779 0.0
C691 C 0.91426 0.2743 0.4294 0.0
C692 C 0.80628 0.22229 0.36648 0.0
C693 C 0.83916 0.22423 0.4056 0.0
C694 C 0.78618 0.20005 0.34591 0.0
C695 C 0.76717 0.15712 0.34575 0.0
C696 C 0.80811 0.20141 0.38674 0.0
C697 C 0.76601 0.13722 0.36718 0.0
C698 C 0.86053 0.20666 0.41628 0.0
C699 C 0.88904 0.2897 0.42143 0.0
N700 N 0.7872 0.15959 0.38664 0.0
N701 N 0.85333 0.26489 0.40908 0.0
H702 H 0.92371 0.62189 0.36407 0.0
H703 H 0.69568 0.59035 0.38522 0.0
H704 H 0.83084 0.56601 0.30869 0.0
H705 H 0.80579 0.7115 0.39189 0.0
H706 H 0.74133 0.56556 0.36845 0.0
H707 H 0.87615 0.63957 0.3861 0.0
C708 C 0.89295 0.6126 0.35686 0.0
C709 C 0.88097 0.59254 0.33461 0.0
C710 C 0.75537 0.59735 0.37402 0.0
C711 C 0.82674 0.61177 0.35974 0.0
C712 C 0.72958 0.6114 0.38368 0.0
C713 C 0.7473 0.65288 0.39001 0.0
C714 C 0.7991 0.62477 0.37143 0.0
C715 C 0.79118 0.67927 0.38725 0.0
C716 C 0.86614 0.62288 0.3693 0.0
C717 C 0.8411 0.5816 0.32579 0.0
N718 N 0.81578 0.66469 0.37829 0.0
N719 N 0.81516 0.59116 0.33847 0.0
H720 H 0.32128 0.2409 0.36346 0.0
H721 H 0.41521 0.10654 0.41189 0.0
H722 H 0.41054 0.21964 0.32342 0.0
H723 H 0.28973 0.08314 0.42921 0.0
H724 H 0.43005 0.16858 0.38976 0.0
H725 H 0.32648 0.2034 0.39749 0.0
C726 C 0.34266 0.22915 0.36197 0.0
C727 C 0.36496 0.23277 0.34038 0.0
C728 C 0.39981 0.15056 0.39911 0.0
C729 C 0.37129 0.19039 0.3793 0.0
C730 C 0.39152 0.11554 0.41191 0.0
C731 C 0.35126 0.09007 0.42231 0.0
C732 C 0.36773 0.16011 0.39711 0.0
C733 C 0.32116 0.10224 0.42139 0.0
C734 C 0.34556 0.20779 0.3814 0.0
C735 C 0.39236 0.21713 0.33956 0.0
N736 N 0.32986 0.1363 0.40878 0.0
N737 N 0.39444 0.19621 0.35867 0.0
H738 H 0.66321 0.59096 0.31208 0.0
H739 H 0.4232 0.40746 0.30238 0.0
H740 H 0.55907 0.58701 0.35233 0.0
H741 H 0.53061 0.39329 0.28575 0.0
H742 H 0.47189 0.47924 0.31295 0.0
H743 H 0.61364 0.52412 0.29452 0.0
C744 C 0.62987 0.57632 0.31697 0.0
C745 C 0.61524 0.59441 0.33381 0.0
C746 C 0.48471 0.46042 0.30683 0.0
C747 C 0.55863 0.51825 0.31379 0.0
C748 C 0.45701 0.41952 0.30071 0.0
C749 C 0.4729 0.39423 0.2934 0.0
C750 C 0.52857 0.47626 0.30536 0.0
C751 C 0.517 0.41156 0.29157 0.0
C752 C 0.60171 0.53814 0.30705 0.0
C753 C 0.57174 0.57399 0.33958 0.0
N754 N 0.54335 0.45154 0.29757 0.0
N755 N 0.54495 0.53692 0.32961 0.0
H756 H 0.6063 0.14919 0.28947 0.0
H757 H 0.424 0.98121 0.3734 0.0
H758 H 0.59716 0.03374 0.30644 0.0
H759 H 0.41217 0.07547 0.33756 0.0
H760 H 0.48757 5e-05 0.34896 0.0
H761 H 0.53478 0.12256 0.3062 0.0
C762 C 0.58902 0.11802 0.29638 0.0
C763 C 0.60792 0.09381 0.29675 0.0
C764 C 0.47083 0.01634 0.34628 0.0
C765 C 0.52638 0.06345 0.31631 0.0
C766 C 0.43468 0.00577 0.36033 0.0
C767 C 0.41287 0.02697 0.35763 0.0
C768 C 0.48573 0.04878 0.32967 0.0
C769 C 0.42799 0.05831 0.34026 0.0
C770 C 0.54819 0.10285 0.30593 0.0
C771 C 0.58391 0.05355 0.30581 0.0
N772 N 0.46377 0.06859 0.32712 0.0
N773 N 0.54465 0.03987 0.31559 0.0
H774 H 0.87379 0.48735 0.3044 0.0
H775 H 0.93594 0.39224 0.38332 0.0
H776 H 0.96381 0.47649 0.25855 0.0
H777 H 0.94255 0.32262 0.32323 0.0
H778 H 0.913 0.42732 0.35634 0.0
H779 H 0.86472 0.42921 0.32851 0.0
C780 C 0.89026 0.47152 0.2989 0.0
C781 C 0.91933 0.48614 0.27953 0.0
C782 C 0.91825 0.40354 0.34914 0.0
C783 C 0.91049 0.42134 0.30723 0.0
C784 C 0.93192 0.38399 0.36446 0.0
C785 C 0.94152 0.35498 0.35534 0.0
C786 C 0.9151 0.39461 0.32444 0.0
C787 C 0.93545 0.34495 0.33085 0.0
C788 C 0.88559 0.4389 0.3128 0.0
C789 C 0.94086 0.46559 0.27332 0.0
N790 N 0.92369 0.36561 0.31605 0.0
N791 N 0.93634 0.43433 0.28731 0.0
H792 H 0.42869 0.40334 0.68741 0.0
H793 H 0.55722 0.61441 0.75849 0.0
H794 H 0.44309 0.51885 0.66521 0.0
H795 H 0.59253 0.52181 0.75561 0.0
H796 H 0.49235 0.56782 0.73715 0.0
H797 H 0.46679 0.43645 0.72422 0.0
C798 C 0.43913 0.43545 0.69048 0.0
C799 C 0.43363 0.4587 0.67299 0.0
C800 C 0.51354 0.55718 0.74204 0.0
C801 C 0.47616 0.4962 0.71509 0.0
C802 C 0.55025 0.58349 0.75448 0.0
C803 C 0.58024 0.57186 0.75855 0.0
C804 C 0.50681 0.51902 0.73406 0.0
C805 C 0.57013 0.53181 0.75261 0.0
C806 C 0.46074 0.45419 0.71145 0.0
C807 C 0.44756 0.50007 0.6779 0.0
N808 N 0.53447 0.50693 0.74026 0.0
N809 N 0.46851 0.51763 0.69844 0.0
H810 H 0.51726 0.90232 0.70779 0.0
H811 H 0.44314 0.06672 0.70238 0.0
H812 H 0.53956 0.98055 0.6465 0.0
H813 H 0.37467 0.95651 0.74541 0.0
H814 H 0.48971 0.04274 0.68735 0.0
H815 H 0.474 0.928 0.72668 0.0
C816 C 0.51302 0.92479 0.6983 0.0
C817 C 0.53191 0.93919 0.67548 0.0
C818 C 0.46458 0.02387 0.70015 0.0
C819 C 0.48344 0.96912 0.69716 0.0
C820 C 0.43795 0.03751 0.70875 0.0
C821 C 0.40428 0.01311 0.72472 0.0
C822 C 0.45799 0.98579 0.70782 0.0
C823 C 0.40002 0.97614 0.73294 0.0
C824 C 0.48838 0.93936 0.70909 0.0
C825 C 0.52537 0.96831 0.66401 0.0
N826 N 0.42644 0.96341 0.72427 0.0
N827 N 0.50196 0.98249 0.67504 0.0
H828 H 0.93338 0.40257 0.75403 0.0
H829 H 0.97316 0.57396 0.69017 0.0
H830 H 0.06644 0.44533 0.74483 0.0
H831 H 0.06069 0.54673 0.65311 0.0
H832 H 0.9736 0.53519 0.72499 0.0
H833 H 0.94416 0.46342 0.73268 0.0
C834 C 0.96517 0.42573 0.74828 0.0
C835 C -0.00083 0.41943 0.7513 0.0
C836 C 0.99299 0.53813 0.70928 0.0
C837 C 0.01165 0.48831 0.72638 0.0
C838 C 0.99293 0.56035 0.68944 0.0
C839 C 0.01632 0.56291 0.6685 0.0
C840 C 0.01674 0.51856 0.70814 0.0
C841 C 0.04174 0.5451 0.66871 0.0
C842 C 0.97137 0.46047 0.73615 0.0
C843 C 0.03963 0.44963 0.74311 0.0
N844 N 0.04102 0.52337 0.68818 0.0
N845 N 0.04459 0.48233 0.73035 0.0
H846 H 0.20841 0.91888 0.69005 0.0
H847 H 0.19231 0.72535 0.6233 0.0
H848 H 0.31474 0.92594 0.65059 0.0
H849 H 0.08389 0.73937 0.63635 0.0
H850 H 0.23862 0.79654 0.63628 0.0
H851 H 0.16274 0.85018 0.67372 0.0
C852 C 0.22213 0.90602 0.6779 0.0
C853 C 0.26542 0.92813 0.67164 0.0
C854 C 0.2047 0.784 0.63611 0.0
C855 C 0.21344 0.84949 0.65312 0.0
C856 C 0.17827 0.74341 0.62881 0.0
C857 C 0.13419 0.7264 0.62881 0.0
C858 C 0.18679 0.80736 0.64383 0.0
C859 C 0.11769 0.75124 0.63601 0.0
C860 C 0.19602 0.86691 0.66852 0.0
C861 C 0.28148 0.91 0.65577 0.0
N862 N 0.14399 0.79036 0.64346 0.0
N863 N 0.25551 0.87149 0.6472 0.0
H864 H 0.05591 0.35879 0.65563 0.0
H865 H 0.30596 0.49007 0.66226 0.0
H866 H 0.12034 0.39099 0.72323 0.0
H867 H 0.24694 0.38962 0.61188 0.0
H868 H 0.23601 0.46916 0.67981 0.0
H869 H 0.12473 0.38431 0.63451 0.0
C870 C 0.08455 0.37145 0.66595 0.0
C871 C 0.08267 0.37262 0.69115 0.0
C872 C 0.23849 0.45209 0.66472 0.0
C873 C 0.16066 0.40255 0.66729 0.0
C874 C 0.27823 0.46409 0.65459 0.0
C875 C 0.28219 0.44139 0.63565 0.0
C876 C 0.20243 0.41779 0.6555 0.0
C877 C 0.24519 0.40775 0.62657 0.0
C878 C 0.12353 0.38579 0.65395 0.0
C879 C 0.12052 0.38921 0.70378 0.0
N880 N 0.20667 0.39694 0.63656 0.0
N881 N 0.15808 0.40389 0.6917 0.0
H882 H 0.57604 0.62939 0.66331 0.0
H883 H 0.56515 0.78173 0.60054 0.0
H884 H 0.61184 0.71754 0.72097 0.0
H885 H 0.55259 0.82577 0.67014 0.0
H886 H 0.56077 0.72173 0.61979 0.0
H887 H 0.54725 0.66576 0.6419 0.0
C888 C 0.57762 0.65622 0.67153 0.0
C889 C 0.59738 0.6711 0.69369 0.0
C890 C 0.55719 0.74349 0.63086 0.0
C891 C 0.56494 0.71296 0.6693 0.0
C892 C 0.55957 0.7777 0.6198 0.0
C893 C 0.55979 0.80869 0.63391 0.0
C894 C 0.55516 0.74079 0.65615 0.0
C895 C 0.55329 0.80272 0.65877 0.0
C896 C 0.56143 0.67713 0.65922 0.0
C897 C 0.59789 0.70551 0.70369 0.0
N898 N 0.55208 0.76988 0.66915 0.0
N899 N 0.58221 0.72534 0.69137 0.0
loop_
_geom_bond_atom_site_label_1
_geom_bond_atom_site_label_2
_geom_bond_distance
_geom_bond_site_symmetry_2
_ccdc_geom_bond_type
Mg0 O1 2.028 . S
Mg0 O7 1.986 . S
Mg0 O9 2.114 1_545 S
Mg0 O10 2.251 1_545 S
Mg0 O13 2.010 . S
O1 Mg0 2.028 . S
O1 C4 1.250 . S
O2 Mg3 2.028 . S
O2 C4 1.248 . S
Mg3 O2 2.028 . S
Mg3 O8 2.032 . S
Mg3 O10 2.079 1_545 S
C4 O1 1.250 . S
C4 O2 1.248 . S
C5 O6 1.264 . S
C5 O13 1.249 . S
O6 C5 1.264 . S
O7 Mg0 1.986 . S
O7 C11 1.246 . S
O8 Mg3 2.032 . S
O8 C11 1.259 . S
O9 Mg0 2.114 1_565 S
O9 C12 1.252 . S
O10 Mg0 2.251 1_565 S
O10 Mg3 2.079 1_565 S
O10 C12 1.273 . S
C11 O7 1.246 . S
C11 O8 1.259 . S
C12 O9 1.252 . S
C12 O10 1.273 . S
O13 Mg0 2.010 . S
O13 C5 1.249 . S
Mg14 O15 2.028 . S
Mg14 O21 1.986 . S
Mg14 O23 2.114 1_655 S
Mg14 O24 2.251 1_655 S
Mg14 O27 2.010 . S
O15 Mg14 2.028 . S
O15 C18 1.250 . S
O16 Mg17 2.028 1_554 S
O16 C18 1.248 . S
Mg17 O16 2.028 1_556 S
Mg17 O22 2.032 1_556 S
Mg17 O24 2.079 1_656 S
C18 O15 1.250 . S
C18 O16 1.248 . S
C19 O20 1.264 . S
C19 O27 1.249 . S
O20 C19 1.264 . S
O21 Mg14 1.986 . S
O21 C25 1.246 . S
O22 Mg17 2.032 1_554 S
O22 C25 1.259 . S
O23 Mg14 2.114 1_455 S
O23 C26 1.252 . S
O24 Mg14 2.251 1_455 S
O24 Mg17 2.079 1_454 S
O24 C26 1.273 . S
C25 O21 1.246 . S
C25 O22 1.259 . S
C26 O23 1.252 . S
C26 O24 1.273 . S
O27 Mg14 2.010 . S
O27 C19 1.249 . S
Mg28 O29 2.028 . S
Mg28 O35 1.986 . S
Mg28 O37 2.114 . S
Mg28 O38 2.251 . S
Mg28 O41 2.010 . S
O29 Mg28 2.028 . S
O29 C32 1.250 . S
O30 Mg31 2.028 . S
O30 C32 1.248 . S
Mg31 O30 2.028 . S
Mg31 O36 2.032 . S
Mg31 O38 2.079 . S
C32 O29 1.250 . S
C32 O30 1.248 . S
C33 O34 1.264 . S
C33 O41 1.249 . S
O34 C33 1.264 . S
O35 Mg28 1.986 . S
O35 C39 1.246 . S
O36 Mg31 2.032 . S
O36 C39 1.259 . S
O37 Mg28 2.114 . S
O37 C40 1.252 . S
O38 Mg28 2.251 . S
O38 Mg31 2.079 . S
O38 C40 1.273 . S
C39 O35 1.246 . S
C39 O36 1.259 . S
C40 O37 1.252 . S
C40 O38 1.273 . S
O41 Mg28 2.010 . S
O41 C33 1.249 . S
Mg42 O43 2.028 1_565 S
Mg42 O49 1.986 . S
Mg42 O51 2.114 . S
Mg42 O52 2.251 . S
Mg42 O55 2.010 . S
O43 Mg42 2.028 1_545 S
O43 C46 1.250 . S
O44 Mg45 2.028 1_545 S
O44 C46 1.248 . S
Mg45 O44 2.028 1_565 S
Mg45 O50 2.032 . S
Mg45 O52 2.079 . S
C46 O43 1.250 . S
C46 O44 1.248 . S
C47 O48 1.264 . S
C47 O55 1.249 . S
O48 C47 1.264 . S
O49 Mg42 1.986 . S
O49 C53 1.246 . S
O50 Mg45 2.032 . S
O50 C53 1.259 . S
O51 Mg42 2.114 . S
O51 C54 1.252 . S
O52 Mg42 2.251 . S
O52 Mg45 2.079 . S
O52 C54 1.273 . S
C53 O49 1.246 . S
C53 O50 1.259 . S
C54 O51 1.252 . S
C54 O52 1.273 . S
O55 Mg42 2.010 . S
O55 C47 1.249 . S
Mg56 O57 2.028 1_455 S
Mg56 O63 1.986 . S
Mg56 O65 2.114 . S
Mg56 O66 2.251 . S
Mg56 O69 2.010 . S
O57 Mg56 2.028 1_655 S
O57 C60 1.250 . S
O58 Mg59 2.028 1_655 S
O58 C60 1.248 . S
Mg59 O58 2.028 1_455 S
Mg59 O64 2.032 . S
Mg59 O66 2.079 . S
C60 O57 1.250 . S
C60 O58 1.248 . S
C61 O62 1.264 . S
C61 O69 1.249 . S
O62 C61 1.264 . S
O63 Mg56 1.986 . S
O63 C67 1.246 . S
O64 Mg59 2.032 . S
O64 C67 1.259 . S
O65 Mg56 2.114 . S
O65 C68 1.252 . S
O66 Mg56 2.251 . S
O66 Mg59 2.079 . S
O66 C68 1.273 . S
C67 O63 1.246 . S
C67 O64 1.259 . S
C68 O65 1.252 . S
C68 O66 1.273 . S
O69 Mg56 2.010 . S
O69 C61 1.249 . S
Mg70 O71 2.028 . S
Mg70 O77 1.986 . S
Mg70 O79 2.114 . S
Mg70 O80 2.251 . S
Mg70 O83 2.010 . S
O71 Mg70 2.028 . S
O71 C74 1.250 . S
O72 Mg73 2.028 . S
O72 C74 1.248 . S
Mg73 O72 2.028 . S
Mg73 O78 2.032 . S
Mg73 O80 2.079 . S
C74 O71 1.250 . S
C74 O72 1.248 . S
C75 O76 1.264 . S
C75 O83 1.249 . S
O76 C75 1.264 . S
O77 Mg70 1.986 . S
O77 C81 1.246 . S
O78 Mg73 2.032 . S
O78 C81 1.259 . S
O79 Mg70 2.114 . S
O79 C82 1.252 . S
O80 Mg70 2.251 . S
O80 Mg73 2.079 . S
O80 C82 1.273 . S
C81 O77 1.246 . S
C81 O78 1.259 . S
C82 O79 1.252 . S
C82 O80 1.273 . S
O83 Mg70 2.010 . S
O83 C75 1.249 . S
Mg84 O85 2.028 . S
Mg84 O91 1.986 1_655 S
Mg84 O93 2.114 . S
Mg84 O94 2.251 . S
Mg84 O97 2.010 1_655 S
O85 Mg84 2.028 . S
O85 C88 1.250 . S
O86 Mg87 2.027 . S
O86 C88 1.248 . S
Mg87 O86 2.027 . S
Mg87 O92 2.034 1_655 S
Mg87 O94 2.078 . S
C88 O85 1.250 . S
C88 O86 1.248 . S
C89 O90 1.264 . S
C89 O97 1.249 1_655 S
O90 C89 1.264 . S
O91 Mg84 1.986 1_455 S
O91 C95 1.246 . S
O92 Mg87 2.034 1_455 S
O92 C95 1.259 . S
O93 Mg84 2.114 . S
O93 C96 1.252 . S
O94 Mg84 2.251 . S
O94 Mg87 2.078 . S
O94 C96 1.273 . S
C95 O91 1.246 . S
C95 O92 1.259 . S
C96 O93 1.252 . S
C96 O94 1.273 . S
O97 Mg84 2.010 1_455 S
O97 C89 1.249 1_455 S
Mg98 O99 2.028 . S
Mg98 O105 1.986 . S
Mg98 O107 2.114 . S
Mg98 O108 2.251 . S
Mg98 O111 2.010 . S
O99 Mg98 2.028 . S
O99 C102 1.250 . S
O100 Mg101 2.028 . S
O100 C102 1.248 . S
Mg101 O100 2.028 . S
Mg101 O106 2.032 . S
Mg101 O108 2.079 . S
C102 O99 1.250 . S
C102 O100 1.248 . S
C103 O104 1.264 . S
C103 O111 1.249 . S
O104 C103 1.264 . S
O105 Mg98 1.986 . S
O105 C109 1.246 . S
O106 Mg101 2.032 . S
O106 C109 1.259 . S
O107 Mg98 2.114 . S
O107 C110 1.252 . S
O108 Mg98 2.251 . S
O108 Mg101 2.079 . S
O108 C110 1.273 . S
C109 O105 1.246 . S
C109 O106 1.259 . S
C110 O107 1.252 . S
C110 O108 1.273 . S
O111 Mg98 2.010 . S
O111 C103 1.249 . S
Mg112 O113 2.028 . S
Mg112 O119 1.986 1_545 S
Mg112 O121 2.114 . S
Mg112 O122 2.251 . S
Mg112 O125 2.010 1_545 S
O113 Mg112 2.028 . S
O113 C116 1.250 . S
O114 Mg115 2.028 . S
O114 C116 1.248 . S
Mg115 O114 2.028 . S
Mg115 O120 2.032 1_545 S
Mg115 O122 2.079 . S
C116 O113 1.250 . S
C116 O114 1.248 . S
C117 O118 1.264 1_565 S
C117 O125 1.249 . S
O118 C117 1.264 1_545 S
O119 Mg112 1.986 1_565 S
O119 C123 1.246 . S
O120 Mg115 2.032 1_565 S
O120 C123 1.259 . S
O121 Mg112 2.114 . S
O121 C124 1.252 . S
O122 Mg112 2.251 . S
O122 Mg115 2.079 . S
O122 C124 1.273 . S
C123 O119 1.246 . S
C123 O120 1.259 . S
C124 O121 1.252 . S
C124 O122 1.273 . S
O125 Mg112 2.010 1_565 S
O125 C117 1.249 . S
Mg126 O127 2.028 . S
Mg126 O133 1.986 . S
Mg126 O135 2.114 . S
Mg126 O136 2.251 . S
Mg126 O139 2.010 . S
O127 Mg126 2.028 . S
O127 C130 1.250 . S
O128 Mg129 2.028 . S
O128 C130 1.248 . S
Mg129 O128 2.028 . S
Mg129 O134 2.032 . S
Mg129 O136 2.079 . S
C130 O127 1.250 . S
C130 O128 1.248 . S
C131 O132 1.264 . S
C131 O139 1.249 . S
O132 C131 1.264 . S
O133 Mg126 1.986 . S
O133 C137 1.246 . S
O134 Mg129 2.032 . S
O134 C137 1.259 . S
O135 Mg126 2.114 . S
O135 C138 1.252 . S
O136 Mg126 2.251 . S
O136 Mg129 2.079 . S
O136 C138 1.273 . S
C137 O133 1.246 . S
C137 O134 1.259 . S
C138 O135 1.252 . S
C138 O136 1.273 . S
O139 Mg126 2.010 . S
O139 C131 1.249 . S
Mg140 O141 2.028 . S
Mg140 O147 1.986 . S
Mg140 O149 2.114 . S
Mg140 O150 2.251 . S
Mg140 O153 2.010 1_545 S
O141 Mg140 2.028 . S
O141 C144 1.250 . S
O142 Mg143 2.028 . S
O142 C144 1.248 . S
Mg143 O142 2.028 . S
Mg143 O148 2.032 . S
Mg143 O150 2.079 . S
C144 O141 1.250 . S
C144 O142 1.248 . S
C145 O146 1.264 . S
C145 O153 1.249 . S
O146 C145 1.264 . S
O147 Mg140 1.986 . S
O147 C151 1.246 . S
O148 Mg143 2.032 . S
O148 C151 1.259 . S
O149 Mg140 2.114 . S
O149 C152 1.252 . S
O150 Mg140 2.251 . S
O150 Mg143 2.079 . S
O150 C152 1.273 . S
C151 O147 1.246 . S
C151 O148 1.259 . S
C152 O149 1.252 . S
C152 O150 1.273 . S
O153 Mg140 2.010 1_565 S
O153 C145 1.249 . S
Mg154 O155 2.028 . S
Mg154 O161 1.986 1_655 S
Mg154 O163 2.114 . S
Mg154 O164 2.251 . S
Mg154 O167 2.010 . S
O155 Mg154 2.028 . S
O155 C158 1.250 . S
O156 Mg157 2.028 . S
O156 C158 1.248 . S
Mg157 O156 2.028 . S
Mg157 O162 2.032 1_655 S
Mg157 O164 2.079 . S
C158 O155 1.250 . S
C158 O156 1.248 . S
C159 O160 1.264 . S
C159 O167 1.249 . S
O160 C159 1.264 . S
O161 Mg154 1.986 1_455 S
O161 C165 1.246 . S
O162 Mg157 2.032 1_455 S
O162 C165 1.259 . S
O163 Mg154 2.114 . S
O163 C166 1.252 . S
O164 Mg154 2.251 . S
O164 Mg157 2.079 . S
O164 C166 1.273 . S
C165 O161 1.246 . S
C165 O162 1.259 . S
C166 O163 1.252 . S
C166 O164 1.273 . S
O167 Mg154 2.010 . S
O167 C159 1.249 . S
Mg168 O169 2.028 . S
Mg168 O175 1.986 . S
Mg168 O177 2.114 . S
Mg168 O178 2.251 . S
Mg168 O181 2.010 . S
O169 Mg168 2.028 . S
O169 C172 1.250 . S
O170 Mg171 2.028 . S
O170 C172 1.248 . S
Mg171 O170 2.028 . S
Mg171 O176 2.032 . S
Mg171 O178 2.079 . S
C172 O169 1.250 . S
C172 O170 1.248 . S
C173 O174 1.264 . S
C173 O181 1.249 . S
O174 C173 1.264 . S
O175 Mg168 1.986 . S
O175 C179 1.246 . S
O176 Mg171 2.032 . S
O176 C179 1.259 . S
O177 Mg168 2.114 . S
O177 C180 1.252 . S
O178 Mg168 2.251 . S
O178 Mg171 2.079 . S
O178 C180 1.273 . S
C179 O175 1.246 . S
C179 O176 1.259 . S
C180 O177 1.252 . S
C180 O178 1.273 . S
O181 Mg168 2.010 . S
O181 C173 1.249 . S
Mg182 O183 2.028 . S
Mg182 O189 1.986 1_565 S
Mg182 O191 2.114 . S
Mg182 O192 2.251 . S
Mg182 O195 2.010 . S
O183 Mg182 2.028 . S
O183 C186 1.250 . S
O184 Mg185 2.028 . S
O184 C186 1.248 . S
Mg185 O184 2.028 . S
Mg185 O190 2.032 1_565 S
Mg185 O192 2.079 . S
C186 O183 1.250 . S
C186 O184 1.248 . S
C187 O188 1.264 . S
C187 O195 1.249 . S
O188 C187 1.264 . S
O189 Mg182 1.986 1_545 S
O189 C193 1.246 . S
O190 Mg185 2.032 1_545 S
O190 C193 1.259 . S
O191 Mg182 2.114 . S
O191 C194 1.252 . S
O192 Mg182 2.251 . S
O192 Mg185 2.079 . S
O192 C194 1.273 . S
C193 O189 1.246 . S
C193 O190 1.259 . S
C194 O191 1.252 . S
C194 O192 1.273 . S
O195 Mg182 2.010 . S
O195 C187 1.249 . S
Mg196 O197 2.028 . S
Mg196 O203 1.986 1_455 S
Mg196 O205 2.114 . S
Mg196 O206 2.251 . S
Mg196 O209 2.010 . S
O197 Mg196 2.028 . S
O197 C200 1.250 . S
O198 Mg199 2.028 . S
O198 C200 1.248 . S
Mg199 O198 2.028 . S
Mg199 O204 2.032 1_455 S
Mg199 O206 2.079 . S
C200 O197 1.250 . S
C200 O198 1.248 . S
C201 O202 1.264 . S
C201 O209 1.249 . S
O202 C201 1.264 . S
O203 Mg196 1.986 1_655 S
O203 C207 1.246 . S
O204 Mg199 2.032 1_655 S
O204 C207 1.259 . S
O205 Mg196 2.114 . S
O205 C208 1.252 . S
O206 Mg196 2.251 . S
O206 Mg199 2.079 . S
O206 C208 1.273 . S
C207 O203 1.246 . S
C207 O204 1.259 . S
C208 O205 1.252 . S
C208 O206 1.273 . S
O209 Mg196 2.010 . S
O209 C201 1.249 . S
Mg210 O211 2.028 1_655 S
Mg210 O217 1.986 . S
Mg210 O219 2.114 . S
Mg210 O220 2.251 1_655 S
Mg210 O223 2.010 . S
O211 Mg210 2.028 1_455 S
O211 C214 1.250 . S
O212 Mg213 2.028 . S
O212 C214 1.248 . S
Mg213 O212 2.028 . S
Mg213 O218 2.032 . S
Mg213 O220 2.079 . S
C214 O211 1.250 . S
C214 O212 1.248 . S
C215 O216 1.264 . S
C215 O223 1.249 . S
O216 C215 1.264 . S
O217 Mg210 1.986 . S
O217 C221 1.246 1_655 S
O218 Mg213 2.032 . S
O218 C221 1.259 . S
O219 Mg210 2.114 . S
O219 C222 1.252 1_655 S
O220 Mg210 2.251 1_455 S
O220 Mg213 2.079 . S
O220 C222 1.273 . S
C221 O217 1.246 1_455 S
C221 O218 1.259 . S
C222 O219 1.252 1_455 S
C222 O220 1.273 . S
O223 Mg210 2.010 . S
O223 C215 1.249 . S
Mg224 O225 2.028 . S
Mg224 O231 1.986 . S
Mg224 O233 2.114 . S
Mg224 O234 2.251 . S
Mg224 O237 2.010 . S
O225 Mg224 2.028 . S
O225 C228 1.250 . S
O226 Mg227 2.028 . S
O226 C228 1.248 . S
Mg227 O226 2.028 . S
Mg227 O232 2.032 . S
Mg227 O234 2.079 . S
C228 O225 1.250 . S
C228 O226 1.248 . S
C229 O230 1.264 . S
C229 O237 1.249 . S
O230 C229 1.264 . S
O231 Mg224 1.986 . S
O231 C235 1.246 . S
O232 Mg227 2.032 . S
O232 C235 1.259 . S
O233 Mg224 2.114 . S
O233 C236 1.252 . S
O234 Mg224 2.251 . S
O234 Mg227 2.079 . S
O234 C236 1.273 . S
C235 O231 1.246 . S
C235 O232 1.259 . S
C236 O233 1.252 . S
C236 O234 1.273 . S
O237 Mg224 2.010 . S
O237 C229 1.249 . S
Mg238 O239 2.028 . S
Mg238 O245 1.986 1_565 S
Mg238 O247 2.114 . S
Mg238 O248 2.251 . S
Mg238 O251 2.010 1_565 S
O239 Mg238 2.028 . S
O239 C242 1.250 . S
O240 Mg241 2.022 . S
O240 C242 1.248 . S
Mg241 O240 2.022 . S
Mg241 O246 2.022 1_565 S
Mg241 O248 2.088 . S
C242 O239 1.250 . S
C242 O240 1.248 . S
C243 O244 1.265 . S
C243 O251 1.250 1_565 S
O244 C243 1.265 . S
O245 Mg238 1.986 1_545 S
O245 C249 1.246 . S
O246 Mg241 2.022 1_545 S
O246 C249 1.259 . S
O247 Mg238 2.114 . S
O247 C250 1.252 . S
O248 Mg238 2.251 . S
O248 Mg241 2.088 . S
O248 C250 1.273 . S
C249 O245 1.246 . S
C249 O246 1.259 . S
C250 O247 1.252 . S
C250 O248 1.273 . S
O251 Mg238 2.010 1_545 S
O251 C243 1.250 1_545 S
H252 C258 0.941 . S
H253 C262 0.930 . S
H254 C267 0.929 . S
H255 C265 0.929 . S
H256 C260 0.929 . S
H257 C266 0.929 . S
C258 H252 0.941 . S
C258 C259 1.339 1_565 S
C258 C266 1.395 . S
C259 C258 1.339 1_545 S
C259 C267 1.433 . S
C260 H256 0.929 . S
C260 C262 1.378 . S
C260 C264 1.350 . S
C261 C264 1.463 1_554 S
C261 C266 1.350 1_545 S
C261 N269 1.427 . S
C262 H253 0.930 . S
C262 C260 1.378 . S
C262 C263 1.367 1_545 S
C263 C262 1.367 1_565 S
C263 C265 1.433 . S
C264 C260 1.350 . S
C264 C261 1.463 1_556 S
C264 N268 1.427 1_545 S
C265 H255 0.929 . S
C265 C263 1.433 . S
C265 N268 1.384 . S
C266 H257 0.929 . S
C266 C258 1.395 . S
C266 C261 1.350 1_565 S
C267 H254 0.929 . S
C267 C259 1.433 . S
C267 N269 1.384 . S
N268 C264 1.427 1_565 S
N268 C265 1.384 . S
N269 C261 1.427 . S
N269 C267 1.384 . S
H270 C276 0.930 . S
H271 C280 0.930 . S
H272 C285 0.929 . S
H273 C283 0.929 . S
H274 C278 0.929 . S
H275 C284 0.912 1_556 S
C276 H270 0.930 . S
C276 C277 1.367 . S
C276 C284 1.378 . S
C277 C276 1.367 . S
C277 C285 1.433 1_655 S
C278 H274 0.929 . S
C278 C280 1.378 . S
C278 C282 1.350 1_455 S
C279 C282 1.463 1_554 S
C279 C284 1.350 . S
C279 N287 1.427 1_655 S
C280 H271 0.930 . S
C280 C278 1.378 . S
C280 C281 1.367 . S
C281 C280 1.367 . S
C281 C283 1.433 1_455 S
C282 C278 1.350 1_655 S
C282 C279 1.463 1_556 S
C282 N286 1.427 . S
C283 H273 0.929 . S
C283 C281 1.433 1_655 S
C283 N286 1.384 . S
C284 H275 0.912 1_554 S
C284 C276 1.378 . S
C284 C279 1.350 . S
C285 H272 0.929 . S
C285 C277 1.433 1_455 S
C285 N287 1.384 . S
N286 C282 1.427 . S
N286 C283 1.384 . S
N287 C279 1.427 1_455 S
N287 C285 1.384 . S
H288 C294 0.930 . S
H289 C298 0.930 . S
H290 C303 0.929 . S
H291 C301 0.929 . S
H292 C296 0.929 . S
H293 C302 0.929 . S
C294 H288 0.930 . S
C294 C295 1.367 . S
C294 C302 1.378 . S
C295 C294 1.367 . S
C295 C303 1.433 . S
C296 H292 0.929 . S
C296 C298 1.378 . S
C296 C300 1.350 . S
C297 C300 1.463 1_556 S
C297 C302 1.350 . S
C297 N305 1.427 . S
C298 H289 0.930 . S
C298 C296 1.378 . S
C298 C299 1.367 . S
C299 C298 1.367 . S
C299 C301 1.433 . S
C300 C296 1.350 . S
C300 C297 1.463 1_554 S
C300 N304 1.427 . S
C301 H291 0.929 . S
C301 C299 1.433 . S
C301 N304 1.384 . S
C302 H293 0.929 . S
C302 C294 1.378 . S
C302 C297 1.350 . S
C303 H290 0.929 . S
C303 C295 1.433 . S
C303 N305 1.384 . S
N304 C300 1.427 . S
N304 C301 1.384 . S
N305 C297 1.427 . S
N305 C303 1.384 . S
H306 C312 0.930 . S
H307 C316 0.930 . S
H308 C321 0.929 . S
H309 C319 0.929 . S
H310 C314 0.929 . S
H311 C320 0.929 . S
C312 H306 0.930 . S
C312 C313 1.367 . S
C312 C320 1.378 . S
C313 C312 1.367 . S
C313 C321 1.433 . S
C314 H310 0.929 . S
C314 C316 1.378 . S
C314 C318 1.350 . S
C315 C318 1.463 . S
C315 C320 1.350 . S
C315 N323 1.427 . S
C316 H307 0.930 . S
C316 C314 1.378 . S
C316 C317 1.367 . S
C317 C316 1.367 . S
C317 C319 1.433 . S
C318 C314 1.350 . S
C318 C315 1.463 . S
C318 N322 1.427 . S
C319 H309 0.929 . S
C319 C317 1.433 . S
C319 N322 1.384 . S
C320 H311 0.929 . S
C320 C312 1.378 . S
C320 C315 1.350 . S
C321 H308 0.929 . S
C321 C313 1.433 . S
C321 N323 1.384 . S
N322 C318 1.427 . S
N322 C319 1.384 . S
N323 C315 1.427 . S
N323 C321 1.384 . S
H324 C330 0.930 . S
H325 C334 0.930 . S
H326 C339 0.929 . S
H327 C337 0.929 . S
H328 C332 0.929 . S
H329 C338 0.929 . S
C330 H324 0.930 . S
C330 C331 1.367 . S
C330 C338 1.378 . S
C331 C330 1.367 . S
C331 C339 1.433 . S
C332 H328 0.929 . S
C332 C334 1.378 . S
C332 C336 1.350 . S
C333 C336 1.463 . S
C333 C338 1.350 . S
C333 N341 1.427 . S
C334 H325 0.930 . S
C334 C332 1.378 . S
C334 C335 1.367 . S
C335 C334 1.367 . S
C335 C337 1.433 . S
C336 C332 1.350 . S
C336 C333 1.463 . S
C336 N340 1.427 . S
C337 H327 0.929 . S
C337 C335 1.433 . S
C337 N340 1.384 . S
C338 H329 0.929 . S
C338 C330 1.378 . S
C338 C333 1.350 . S
C339 H326 0.929 . S
C339 C331 1.433 . S
C339 N341 1.384 . S
N340 C336 1.427 . S
N340 C337 1.384 . S
N341 C333 1.427 . S
N341 C339 1.384 . S
H342 C348 0.930 . S
H343 C352 0.930 . S
H344 C357 0.929 . S
H345 C355 0.929 . S
H346 C350 0.929 . S
H347 C356 0.929 . S
C348 H342 0.930 . S
C348 C349 1.367 . S
C348 C356 1.378 . S
C349 C348 1.367 . S
C349 C357 1.433 . S
C350 H346 0.929 . S
C350 C352 1.378 . S
C350 C354 1.350 . S
C351 C354 1.463 . S
C351 C356 1.350 . S
C351 N359 1.427 . S
C352 H343 0.930 . S
C352 C350 1.378 . S
C352 C353 1.367 . S
C353 C352 1.367 . S
C353 C355 1.433 . S
C354 C350 1.350 . S
C354 C351 1.463 . S
C354 N358 1.427 . S
C355 H345 0.929 . S
C355 C353 1.433 . S
C355 N358 1.384 . S
C356 H347 0.929 . S
C356 C348 1.378 . S
C356 C351 1.350 . S
C357 H344 0.929 . S
C357 C349 1.433 . S
C357 N359 1.384 . S
N358 C354 1.427 . S
N358 C355 1.384 . S
N359 C351 1.427 . S
N359 C357 1.384 . S
H360 C366 0.930 . S
H361 C370 0.930 . S
H362 C375 0.929 . S
H363 C373 0.929 . S
H364 C368 0.929 . S
H365 C374 0.929 . S
C366 H360 0.930 . S
C366 C367 1.367 . S
C366 C374 1.378 . S
C367 C366 1.367 . S
C367 C375 1.433 . S
C368 H364 0.929 . S
C368 C370 1.378 . S
C368 C372 1.350 . S
C369 C372 1.463 . S
C369 C374 1.350 . S
C369 N377 1.427 . S
C370 H361 0.930 . S
C370 C368 1.378 . S
C370 C371 1.367 . S
C371 C370 1.367 . S
C371 C373 1.433 . S
C372 C368 1.350 . S
C372 C369 1.463 . S
C372 N376 1.427 . S
C373 H363 0.929 . S
C373 C371 1.433 . S
C373 N376 1.384 . S
C374 H365 0.929 . S
C374 C366 1.378 . S
C374 C369 1.350 . S
C375 H362 0.929 . S
C375 C367 1.433 . S
C375 N377 1.384 . S
N376 C372 1.427 . S
N376 C373 1.384 . S
N377 C369 1.427 . S
N377 C375 1.384 . S
H378 C384 0.930 . S
H379 C388 0.930 . S
H380 C393 0.929 . S
H381 C391 0.929 . S
H382 C386 0.929 . S
H383 C392 0.929 . S
C384 H378 0.930 . S
C384 C385 1.367 . S
C384 C392 1.378 . S
C385 C384 1.367 . S
C385 C393 1.433 . S
C386 H382 0.929 . S
C386 C388 1.378 . S
C386 C390 1.350 . S
C387 C390 1.463 . S
C387 C392 1.350 . S
C387 N395 1.427 . S
C388 H379 0.930 . S
C388 C386 1.378 . S
C388 C389 1.367 . S
C389 C388 1.367 . S
C389 C391 1.433 . S
C390 C386 1.350 . S
C390 C387 1.463 . S
C390 N394 1.427 . S
C391 H381 0.929 . S
C391 C389 1.433 . S
C391 N394 1.384 . S
C392 H383 0.929 . S
C392 C384 1.378 . S
C392 C387 1.350 . S
C393 H380 0.929 . S
C393 C385 1.433 . S
C393 N395 1.384 . S
N394 C390 1.427 . S
N394 C391 1.384 . S
N395 C387 1.427 . S
N395 C393 1.384 . S
H396 C402 0.930 . S
H397 C406 0.930 . S
H398 C411 0.929 . S
H399 C409 0.929 . S
H400 C404 0.929 . S
H401 C410 0.929 . S
C402 H396 0.930 . S
C402 C403 1.367 . S
C402 C410 1.378 . S
C403 C402 1.367 . S
C403 C411 1.433 . S
C404 H400 0.929 . S
C404 C406 1.378 . S
C404 C408 1.350 . S
C405 C408 1.463 . S
C405 C410 1.350 . S
C405 N413 1.427 . S
C406 H397 0.930 . S
C406 C404 1.378 . S
C406 C407 1.367 . S
C407 C406 1.367 . S
C407 C409 1.433 . S
C408 C404 1.350 . S
C408 C405 1.463 . S
C408 N412 1.427 . S
C409 H399 0.929 . S
C409 C407 1.433 . S
C409 N412 1.384 . S
C410 H401 0.929 . S
C410 C402 1.378 . S
C410 C405 1.350 . S
C411 H398 0.929 . S
C411 C403 1.433 . S
C411 N413 1.384 . S
N412 C408 1.427 . S
N412 C409 1.384 . S
N413 C405 1.427 . S
N413 C411 1.384 . S
H414 C420 0.930 . S
H415 C424 0.930 . S
H416 C429 0.929 . S
H417 C427 0.929 . S
H418 C422 0.929 . S
H419 C428 0.929 . S
C420 H414 0.930 . S
C420 C421 1.367 . S
C420 C428 1.378 . S
C421 C420 1.367 . S
C421 C429 1.433 . S
C422 H418 0.929 . S
C422 C424 1.378 . S
C422 C426 1.350 . S
C423 C426 1.463 . S
C423 C428 1.350 . S
C423 N431 1.427 . S
C424 H415 0.930 . S
C424 C422 1.378 . S
C424 C425 1.367 . S
C425 C424 1.367 . S
C425 C427 1.433 . S
C426 C422 1.350 . S
C426 C423 1.463 . S
C426 N430 1.427 . S
C427 H417 0.929 . S
C427 C425 1.433 . S
C427 N430 1.384 . S
C428 H419 0.929 . S
C428 C420 1.378 . S
C428 C423 1.350 . S
C429 H416 0.929 . S
C429 C421 1.433 . S
C429 N431 1.384 . S
N430 C426 1.427 . S
N430 C427 1.384 . S
N431 C423 1.427 . S
N431 C429 1.384 . S
H432 C438 0.930 . S
H433 C442 0.930 . S
H434 C447 0.929 . S
H435 C445 0.929 . S
H436 C440 0.929 . S
H437 C446 0.929 . S
C438 H432 0.930 . S
C438 C439 1.367 . S
C438 C446 1.378 . S
C439 C438 1.367 . S
C439 C447 1.433 . S
C440 H436 0.929 . S
C440 C442 1.378 . S
C440 C444 1.350 . S
C441 C444 1.463 . S
C441 C446 1.350 . S
C441 N449 1.427 . S
C442 H433 0.930 . S
C442 C440 1.378 . S
C442 C443 1.367 . S
C443 C442 1.367 . S
C443 C445 1.433 . S
C444 C440 1.350 . S
C444 C441 1.463 . S
C444 N448 1.427 . S
C445 H435 0.929 . S
C445 C443 1.433 . S
C445 N448 1.384 . S
C446 H437 0.929 . S
C446 C438 1.378 . S
C446 C441 1.350 . S
C447 H434 0.929 . S
C447 C439 1.433 . S
C447 N449 1.384 . S
N448 C444 1.427 . S
N448 C445 1.384 . S
N449 C441 1.427 . S
N449 C447 1.384 . S
H450 C456 0.930 . S
H451 C460 0.930 . S
H452 C465 0.929 . S
H453 C463 0.929 . S
H454 C458 0.929 . S
H455 C464 0.929 . S
C456 H450 0.930 . S
C456 C457 1.367 . S
C456 C464 1.378 . S
C457 C456 1.367 . S
C457 C465 1.433 . S
C458 H454 0.929 . S
C458 C460 1.378 . S
C458 C462 1.350 . S
C459 C462 1.463 . S
C459 C464 1.350 . S
C459 N467 1.427 . S
C460 H451 0.930 . S
C460 C458 1.378 . S
C460 C461 1.367 . S
C461 C460 1.367 . S
C461 C463 1.433 . S
C462 C458 1.350 . S
C462 C459 1.463 . S
C462 N466 1.427 . S
C463 H453 0.929 . S
C463 C461 1.433 . S
C463 N466 1.384 . S
C464 H455 0.929 . S
C464 C456 1.378 . S
C464 C459 1.350 . S
C465 H452 0.929 . S
C465 C457 1.433 . S
C465 N467 1.384 . S
N466 C462 1.427 . S
N466 C463 1.384 . S
N467 C459 1.427 . S
N467 C465 1.384 . S
H468 C474 0.930 . S
H469 C478 0.930 . S
H470 C483 0.929 . S
H471 C481 0.929 . S
H472 C476 0.929 . S
H473 C482 0.929 . S
C474 H468 0.930 . S
C474 C475 1.367 . S
C474 C482 1.378 . S
C475 C474 1.367 . S
C475 C483 1.433 . S
C476 H472 0.929 . S
C476 C478 1.378 . S
C476 C480 1.350 . S
C477 C480 1.463 . S
C477 C482 1.350 . S
C477 N485 1.427 . S
C478 H469 0.930 . S
C478 C476 1.378 . S
C478 C479 1.367 . S
C479 C478 1.367 . S
C479 C481 1.433 . S
C480 C476 1.350 . S
C480 C477 1.463 . S
C480 N484 1.427 . S
C481 H471 0.929 . S
C481 C479 1.433 . S
C481 N484 1.384 . S
C482 H473 0.929 . S
C482 C474 1.378 . S
C482 C477 1.350 . S
C483 H470 0.929 . S
C483 C475 1.433 . S
C483 N485 1.384 . S
N484 C480 1.427 . S
N484 C481 1.384 . S
N485 C477 1.427 . S
N485 C483 1.384 . S
H486 C492 0.930 . S
H487 C496 0.930 . S
H488 C501 0.929 . S
H489 C499 0.929 . S
H490 C494 0.929 . S
H491 C500 0.929 . S
C492 H486 0.930 . S
C492 C493 1.367 . S
C492 C500 1.378 . S
C493 C492 1.367 . S
C493 C501 1.433 . S
C494 H490 0.929 . S
C494 C496 1.378 . S
C494 C498 1.350 . S
C495 C498 1.463 . S
C495 C500 1.350 . S
C495 N503 1.427 . S
C496 H487 0.930 . S
C496 C494 1.378 . S
C496 C497 1.367 . S
C497 C496 1.367 . S
C497 C499 1.433 . S
C498 C494 1.350 . S
C498 C495 1.463 . S
C498 N502 1.427 . S
C499 H489 0.929 . S
C499 C497 1.433 . S
C499 N502 1.384 . S
C500 H491 0.929 . S
C500 C492 1.378 . S
C500 C495 1.350 . S
C501 H488 0.929 . S
C501 C493 1.433 . S
C501 N503 1.384 . S
N502 C498 1.427 . S
N502 C499 1.384 . S
N503 C495 1.427 . S
N503 C501 1.384 . S
H504 C510 0.930 . S
H505 C514 0.930 . S
H506 C519 0.929 . S
H507 C517 0.929 . S
H508 C512 0.929 . S
H509 C518 0.929 . S
C510 H504 0.930 . S
C510 C511 1.367 . S
C510 C518 1.378 . S
C511 C510 1.367 . S
C511 C519 1.433 . S
C512 H508 0.929 . S
C512 C514 1.378 . S
C512 C516 1.350 . S
C513 C516 1.463 . S
C513 C518 1.350 . S
C513 N521 1.427 . S
C514 H505 0.930 . S
C514 C512 1.378 . S
C514 C515 1.367 . S
C515 C514 1.367 . S
C515 C517 1.433 . S
C516 C512 1.350 . S
C516 C513 1.463 . S
C516 N520 1.427 . S
C517 H507 0.929 . S
C517 C515 1.433 . S
C517 N520 1.384 . S
C518 H509 0.929 . S
C518 C510 1.378 . S
C518 C513 1.350 . S
C519 H506 0.929 . S
C519 C511 1.433 . S
C519 N521 1.384 . S
N520 C516 1.427 . S
N520 C517 1.384 . S
N521 C513 1.427 . S
N521 C519 1.384 . S
H522 C528 0.930 . S
H523 C532 0.930 . S
H524 C537 0.929 . S
H525 C535 0.929 . S
H526 C530 0.929 . S
H527 C536 0.929 . S
C528 H522 0.930 . S
C528 C529 1.391 . S
C528 C536 1.378 . S
C529 C528 1.391 . S
C529 C537 1.418 1_655 S
C530 H526 0.929 . S
C530 C532 1.378 . S
C530 C534 1.350 . S
C531 C534 1.463 . S
C531 C536 1.350 1_455 S
C531 N539 1.427 . S
C532 H523 0.930 . S
C532 C530 1.378 . S
C532 C533 1.367 . S
C533 C532 1.367 . S
C533 C535 1.433 1_455 S
C534 C530 1.350 . S
C534 C531 1.463 . S
C534 N538 1.427 1_455 S
C535 H525 0.929 . S
C535 C533 1.433 1_655 S
C535 N538 1.384 . S
C536 H527 0.929 . S
C536 C528 1.378 . S
C536 C531 1.350 1_655 S
C537 H524 0.929 . S
C537 C529 1.418 1_455 S
C537 N539 1.384 . S
N538 C534 1.427 1_655 S
N538 C535 1.384 . S
N539 C531 1.427 . S
N539 C537 1.384 . S
H540 C546 0.930 . S
H541 C550 0.930 . S
H542 C555 0.929 . S
H543 C553 0.929 . S
H544 C548 0.929 . S
H545 C554 0.929 . S
C546 H540 0.930 . S
C546 C547 1.367 . S
C546 C554 1.378 . S
C547 C546 1.367 . S
C547 C555 1.433 . S
C548 H544 0.929 . S
C548 C550 1.378 . S
C548 C552 1.350 . S
C549 C552 1.463 . S
C549 C554 1.350 . S
C549 N557 1.427 . S
C550 H541 0.930 . S
C550 C548 1.378 . S
C550 C551 1.367 . S
C551 C550 1.367 . S
C551 C553 1.433 . S
C552 C548 1.350 . S
C552 C549 1.463 . S
C552 N556 1.427 . S
C553 H543 0.929 . S
C553 C551 1.433 . S
C553 N556 1.384 . S
C554 H545 0.929 . S
C554 C546 1.378 . S
C554 C549 1.350 . S
C555 H542 0.929 . S
C555 C547 1.433 . S
C555 N557 1.384 . S
N556 C552 1.427 . S
N556 C553 1.384 . S
N557 C549 1.427 . S
N557 C555 1.384 . S
H558 C564 0.930 . S
H559 C568 0.930 . S
H560 C573 0.929 . S
H561 C571 0.929 . S
H562 C566 0.929 . S
H563 C572 0.929 . S
C564 H558 0.930 . S
C564 C565 1.381 . S
C564 C572 1.378 . S
C565 C564 1.381 . S
C565 C573 1.424 1_545 S
C566 H562 0.929 . S
C566 C568 1.378 . S
C566 C570 1.350 . S
C567 C570 1.469 1_545 S
C567 C572 1.361 . S
C567 N575 1.409 1_545 S
C568 H559 0.930 . S
C568 C566 1.378 . S
C568 C569 1.367 . S
C569 C568 1.367 . S
C569 C571 1.433 1_565 S
C570 C566 1.350 . S
C570 C567 1.469 1_565 S
C570 N574 1.427 1_565 S
C571 H561 0.929 . S
C571 C569 1.433 1_545 S
C571 N574 1.384 . S
C572 H563 0.929 . S
C572 C564 1.378 . S
C572 C567 1.361 . S
C573 H560 0.929 . S
C573 C565 1.424 1_565 S
C573 N575 1.384 . S
N574 C570 1.427 1_545 S
N574 C571 1.384 . S
N575 C567 1.409 1_565 S
N575 C573 1.384 . S
H576 C582 0.930 . S
H577 C586 0.930 . S
H578 C591 0.929 . S
H579 C589 0.929 . S
H580 C584 0.929 . S
H581 C590 0.929 . S
C582 H576 0.930 . S
C582 C583 1.367 . S
C582 C590 1.378 . S
C583 C582 1.367 . S
C583 C591 1.433 . S
C584 H580 0.929 . S
C584 C586 1.378 . S
C584 C588 1.350 1_556 S
C585 C588 1.463 . S
C585 C590 1.350 . S
C585 N593 1.427 . S
C586 H577 0.930 . S
C586 C584 1.378 . S
C586 C587 1.367 . S
C587 C586 1.367 . S
C587 C589 1.433 . S
C588 C584 1.350 1_554 S
C588 C585 1.463 . S
C588 N592 1.427 . S
C589 H579 0.929 . S
C589 C587 1.433 . S
C589 N592 1.384 1_556 S
C590 H581 0.929 . S
C590 C582 1.378 . S
C590 C585 1.350 . S
C591 H578 0.929 . S
C591 C583 1.433 . S
C591 N593 1.384 . S
N592 C588 1.427 . S
N592 C589 1.384 1_554 S
N593 C585 1.427 . S
N593 C591 1.384 . S
H594 C600 0.930 . S
H595 C604 0.930 . S
H596 C609 0.929 . S
H597 C607 0.929 . S
H598 C602 0.929 1_554 S
H599 C608 0.929 . S
C600 H594 0.930 . S
C600 C601 1.367 . S
C600 C608 1.378 . S
C601 C600 1.367 . S
C601 C609 1.433 . S
C602 H598 0.929 1_556 S
C602 C604 1.378 . S
C602 C606 1.350 . S
C603 C606 1.463 1_554 S
C603 C608 1.350 . S
C603 N611 1.427 . S
C604 H595 0.930 . S
C604 C602 1.378 . S
C604 C605 1.367 . S
C605 C604 1.367 . S
C605 C607 1.433 . S
C606 C602 1.350 . S
C606 C603 1.463 1_556 S
C606 N610 1.427 . S
C607 H597 0.929 . S
C607 C605 1.433 . S
C607 N610 1.384 . S
C608 H599 0.929 . S
C608 C600 1.378 . S
C608 C603 1.350 . S
C609 H596 0.929 . S
C609 C601 1.433 . S
C609 N611 1.384 . S
N610 C606 1.427 . S
N610 C607 1.384 . S
N611 C603 1.427 . S
N611 C609 1.384 . S
H612 C618 0.930 . S
H613 C622 0.930 . S
H614 C627 0.929 . S
H615 C625 0.929 . S
H616 C620 0.929 . S
H617 C626 0.929 1_556 S
C618 H612 0.930 . S
C618 C619 1.367 . S
C618 C626 1.378 . S
C619 C618 1.367 . S
C619 C627 1.433 . S
C620 H616 0.929 . S
C620 C622 1.378 . S
C620 C624 1.350 . S
C621 C624 1.463 . S
C621 C626 1.350 . S
C621 N629 1.427 . S
C622 H613 0.930 . S
C622 C620 1.378 . S
C622 C623 1.367 1_554 S
C623 C622 1.367 1_556 S
C623 C625 1.433 . S
C624 C620 1.350 . S
C624 C621 1.463 . S
C624 N628 1.427 1_554 S
C625 H615 0.929 . S
C625 C623 1.433 . S
C625 N628 1.384 . S
C626 H617 0.929 1_554 S
C626 C618 1.378 . S
C626 C621 1.350 . S
C627 H614 0.929 . S
C627 C619 1.433 . S
C627 N629 1.384 . S
N628 C624 1.427 1_556 S
N628 C625 1.384 . S
N629 C621 1.427 . S
N629 C627 1.384 . S
H630 C636 0.930 . S
H631 C640 0.930 1_556 S
H632 C645 0.929 . S
H633 C643 0.929 . S
H634 C638 0.929 . S
H635 C644 0.929 1_554 S
C636 H630 0.930 . S
C636 C637 1.367 . S
C636 C644 1.378 . S
C637 C636 1.367 . S
C637 C645 1.433 . S
C638 H634 0.929 . S
C638 C640 1.378 1_556 S
C638 C642 1.350 . S
C639 C642 1.463 . S
C639 C644 1.350 . S
C639 N647 1.427 . S
C640 H631 0.930 1_554 S
C640 C638 1.378 1_554 S
C640 C641 1.367 . S
C641 C640 1.367 . S
C641 C643 1.433 . S
C642 C638 1.350 . S
C642 C639 1.463 . S
C642 N646 1.427 1_556 S
C643 H633 0.929 . S
C643 C641 1.433 . S
C643 N646 1.384 . S
C644 H635 0.929 1_556 S
C644 C636 1.378 . S
C644 C639 1.350 . S
C645 H632 0.929 . S
C645 C637 1.433 . S
C645 N647 1.384 . S
N646 C642 1.427 1_554 S
N646 C643 1.384 . S
N647 C639 1.427 . S
N647 C645 1.384 . S
H648 C654 0.930 . S
H649 C658 0.930 . S
H650 C663 0.929 . S
H651 C661 0.929 . S
H652 C656 0.929 1_554 S
H653 C662 0.929 . S
C654 H648 0.930 . S
C654 C655 1.367 . S
C654 C662 1.378 1_554 S
C655 C654 1.367 . S
C655 C663 1.433 . S
C656 H652 0.929 1_556 S
C656 C658 1.378 . S
C656 C660 1.350 . S
C657 C660 1.463 . S
C657 C662 1.350 . S
C657 N665 1.427 1_556 S
C658 H649 0.930 . S
C658 C656 1.378 . S
C658 C659 1.367 . S
C659 C658 1.367 . S
C659 C661 1.433 . S
C660 C656 1.350 . S
C660 C657 1.463 . S
C660 N664 1.427 . S
C661 H651 0.929 . S
C661 C659 1.433 . S
C661 N664 1.384 . S
C662 H653 0.929 . S
C662 C654 1.378 1_556 S
C662 C657 1.350 . S
C663 H650 0.929 . S
C663 C655 1.433 . S
C663 N665 1.384 . S
N664 C660 1.427 . S
N664 C661 1.384 . S
N665 C657 1.427 1_554 S
N665 C663 1.384 . S
H666 C672 0.930 . S
H667 C676 0.930 . S
H668 C681 0.929 . S
H669 C679 0.929 . S
H670 C674 0.938 . S
H671 C680 0.929 . S
C672 H666 0.930 . S
C672 C673 1.367 . S
C672 C680 1.378 . S
C673 C672 1.367 . S
C673 C681 1.433 . S
C674 H670 0.938 . S
C674 C676 1.367 1_556 S
C674 C678 1.351 . S
C675 C678 1.463 . S
C675 C680 1.350 . S
C675 N683 1.427 . S
C676 H667 0.930 . S
C676 C674 1.367 1_554 S
C676 C677 1.367 . S
C677 C676 1.367 . S
C677 C679 1.433 . S
C678 C674 1.351 . S
C678 C675 1.463 . S
C678 N682 1.427 1_556 S
C679 H669 0.929 . S
C679 C677 1.433 . S
C679 N682 1.384 . S
C680 H671 0.929 . S
C680 C672 1.378 . S
C680 C675 1.350 . S
C681 H668 0.929 . S
C681 C673 1.433 . S
C681 N683 1.384 . S
N682 C678 1.427 1_554 S
N682 C679 1.384 . S
N683 C675 1.427 . S
N683 C681 1.384 . S
H684 C690 0.930 . S
H685 C694 0.930 . S
H686 C699 0.929 . S
H687 C697 0.929 . S
H688 C692 0.929 . S
H689 C698 0.929 . S
C690 H684 0.930 . S
C690 C691 1.367 . S
C690 C698 1.378 . S
C691 C690 1.367 . S
C691 C699 1.433 . S
C692 H688 0.929 . S
C692 C694 1.378 . S
C692 C696 1.350 . S
C693 C696 1.463 . S
C693 C698 1.350 . S
C693 N701 1.427 . S
C694 H685 0.930 . S
C694 C692 1.378 . S
C694 C695 1.367 . S
C695 C694 1.367 . S
C695 C697 1.433 . S
C696 C692 1.350 . S
C696 C693 1.463 . S
C696 N700 1.427 . S
C697 H687 0.929 . S
C697 C695 1.433 . S
C697 N700 1.384 . S
C698 H689 0.929 . S
C698 C690 1.378 . S
C698 C693 1.350 . S
C699 H686 0.929 . S
C699 C691 1.433 . S
C699 N701 1.384 . S
N700 C696 1.427 . S
N700 C697 1.384 . S
N701 C693 1.427 . S
N701 C699 1.384 . S
H702 C708 0.930 . S
H703 C712 0.930 . S
H704 C717 0.929 . S
H705 C715 0.929 . S
H706 C710 0.929 . S
H707 C716 0.929 . S
C708 H702 0.930 . S
C708 C709 1.367 . S
C708 C716 1.378 . S
C709 C708 1.367 . S
C709 C717 1.433 . S
C710 H706 0.929 . S
C710 C712 1.378 . S
C710 C714 1.350 . S
C711 C714 1.463 . S
C711 C716 1.350 . S
C711 N719 1.427 . S
C712 H703 0.930 . S
C712 C710 1.378 . S
C712 C713 1.367 . S
C713 C712 1.367 . S
C713 C715 1.433 . S
C714 C710 1.350 . S
C714 C711 1.463 . S
C714 N718 1.427 . S
C715 H705 0.929 . S
C715 C713 1.433 . S
C715 N718 1.384 . S
C716 H707 0.929 . S
C716 C708 1.378 . S
C716 C711 1.350 . S
C717 H704 0.929 . S
C717 C709 1.433 . S
C717 N719 1.384 . S
N718 C714 1.427 . S
N718 C715 1.384 . S
N719 C711 1.427 . S
N719 C717 1.384 . S
H720 C726 0.930 . S
H721 C730 0.930 . S
H722 C735 0.929 . S
H723 C733 0.929 . S
H724 C728 0.929 . S
H725 C734 0.929 . S
C726 H720 0.930 . S
C726 C727 1.367 . S
C726 C734 1.378 . S
C727 C726 1.367 . S
C727 C735 1.433 . S
C728 H724 0.929 . S
C728 C730 1.378 . S
C728 C732 1.350 . S
C729 C732 1.463 . S
C729 C734 1.350 . S
C729 N737 1.427 . S
C730 H721 0.930 . S
C730 C728 1.378 . S
C730 C731 1.367 . S
C731 C730 1.367 . S
C731 C733 1.433 . S
C732 C728 1.350 . S
C732 C729 1.463 . S
C732 N736 1.427 . S
C733 H723 0.929 . S
C733 C731 1.433 . S
C733 N736 1.384 . S
C734 H725 0.929 . S
C734 C726 1.378 . S
C734 C729 1.350 . S
C735 H722 0.929 . S
C735 C727 1.433 . S
C735 N737 1.384 . S
N736 C732 1.427 . S
N736 C733 1.384 . S
N737 C729 1.427 . S
N737 C735 1.384 . S
H738 C744 0.930 . S
H739 C748 0.930 . S
H740 C753 0.929 . S
H741 C751 0.929 . S
H742 C746 0.929 . S
H743 C752 0.929 . S
C744 H738 0.930 . S
C744 C745 1.367 . S
C744 C752 1.378 . S
C745 C744 1.367 . S
C745 C753 1.433 . S
C746 H742 0.929 . S
C746 C748 1.378 . S
C746 C750 1.350 . S
C747 C750 1.463 . S
C747 C752 1.350 . S
C747 N755 1.427 . S
C748 H739 0.930 . S
C748 C746 1.378 . S
C748 C749 1.367 . S
C749 C748 1.367 . S
C749 C751 1.433 . S
C750 C746 1.350 . S
C750 C747 1.463 . S
C750 N754 1.427 . S
C751 H741 0.929 . S
C751 C749 1.433 . S
C751 N754 1.384 . S
C752 H743 0.929 . S
C752 C744 1.378 . S
C752 C747 1.350 . S
C753 H740 0.929 . S
C753 C745 1.433 . S
C753 N755 1.384 . S
N754 C750 1.427 . S
N754 C751 1.384 . S
N755 C747 1.427 . S
N755 C753 1.384 . S
H756 C762 0.930 . S
H757 C766 0.930 1_565 S
H758 C771 0.929 . S
H759 C769 0.929 . S
H760 C764 0.929 . S
H761 C770 0.929 . S
C762 H756 0.930 . S
C762 C763 1.367 . S
C762 C770 1.378 . S
C763 C762 1.367 . S
C763 C771 1.433 . S
C764 H760 0.929 . S
C764 C766 1.378 . S
C764 C768 1.350 . S
C765 C768 1.463 . S
C765 C770 1.350 . S
C765 N773 1.427 . S
C766 H757 0.930 1_545 S
C766 C764 1.378 . S
C766 C767 1.367 . S
C767 C766 1.367 . S
C767 C769 1.433 . S
C768 C764 1.350 . S
C768 C765 1.463 . S
C768 N772 1.427 . S
C769 H759 0.929 . S
C769 C767 1.433 . S
C769 N772 1.384 . S
C770 H761 0.929 . S
C770 C762 1.378 . S
C770 C765 1.350 . S
C771 H758 0.929 . S
C771 C763 1.433 . S
C771 N773 1.384 . S
N772 C768 1.427 . S
N772 C769 1.384 . S
N773 C765 1.427 . S
N773 C771 1.384 . S
H774 C780 0.930 . S
H775 C784 0.930 . S
H776 C789 0.929 1_455 S
H777 C787 0.929 . S
H778 C782 0.929 . S
H779 C788 0.929 . S
C780 H774 0.930 . S
C780 C781 1.367 . S
C780 C788 1.378 . S
C781 C780 1.367 . S
C781 C789 1.433 . S
C782 H778 0.929 . S
C782 C784 1.378 . S
C782 C786 1.350 1_455 S
C783 C786 1.463 . S
C783 C788 1.350 . S
C783 N791 1.428 . S
C784 H775 0.930 . S
C784 C782 1.378 . S
C784 C785 1.367 1_455 S
C785 C784 1.367 1_655 S
C785 C787 1.433 . S
C786 C782 1.350 1_655 S
C786 C783 1.463 . S
C786 N790 1.427 . S
C787 H777 0.929 . S
C787 C785 1.433 . S
C787 N790 1.384 . S
C788 H779 0.929 . S
C788 C780 1.378 . S
C788 C783 1.350 . S
C789 H776 0.929 1_655 S
C789 C781 1.433 . S
C789 N791 1.401 . S
N790 C786 1.427 . S
N790 C787 1.384 . S
N791 C783 1.428 . S
N791 C789 1.401 . S
H792 C798 0.930 . S
H793 C802 0.930 . S
H794 C807 0.929 . S
H795 C805 0.929 . S
H796 C800 0.929 . S
H797 C806 0.929 . S
C798 H792 0.930 . S
C798 C799 1.367 . S
C798 C806 1.378 . S
C799 C798 1.367 . S
C799 C807 1.433 . S
C800 H796 0.929 . S
C800 C802 1.378 . S
C800 C804 1.350 . S
C801 C804 1.463 . S
C801 C806 1.350 . S
C801 N809 1.427 . S
C802 H793 0.930 . S
C802 C800 1.378 . S
C802 C803 1.367 . S
C803 C802 1.367 . S
C803 C805 1.433 . S
C804 C800 1.350 . S
C804 C801 1.463 . S
C804 N808 1.427 . S
C805 H795 0.929 . S
C805 C803 1.433 . S
C805 N808 1.384 . S
C806 H797 0.929 . S
C806 C798 1.378 . S
C806 C801 1.350 . S
C807 H794 0.929 . S
C807 C799 1.433 . S
C807 N809 1.384 . S
N808 C804 1.427 . S
N808 C805 1.384 . S
N809 C801 1.427 . S
N809 C807 1.384 . S
H810 C816 0.930 . S
H811 C820 0.930 1_545 S
H812 C825 0.929 . S
H813 C823 0.929 . S
H814 C818 0.929 1_545 S
H815 C824 0.929 . S
C816 H810 0.930 . S
C816 C817 1.367 . S
C816 C824 1.378 . S
C817 C816 1.367 . S
C817 C825 1.433 1_565 S
C818 H814 0.929 1_565 S
C818 C820 1.378 . S
C818 C822 1.350 . S
C819 C822 1.463 . S
C819 C824 1.350 . S
C819 N827 1.427 1_565 S
C820 H811 0.930 1_565 S
C820 C818 1.378 . S
C820 C821 1.367 . S
C821 C820 1.367 . S
C821 C823 1.433 . S
C822 C818 1.350 . S
C822 C819 1.463 . S
C822 N826 1.427 . S
C823 H813 0.929 . S
C823 C821 1.433 . S
C823 N826 1.384 . S
C824 H815 0.929 . S
C824 C816 1.378 . S
C824 C819 1.350 . S
C825 H812 0.929 . S
C825 C817 1.433 1_545 S
C825 N827 1.384 . S
N826 C822 1.427 . S
N826 C823 1.384 . S
N827 C819 1.427 1_545 S
N827 C825 1.384 . S
H828 C834 0.930 . S
H829 C838 0.930 . S
H830 C843 0.929 . S
H831 C841 0.929 . S
H832 C836 0.929 . S
H833 C842 0.929 1_655 S
C834 H828 0.930 . S
C834 C835 1.367 . S
C834 C842 1.378 . S
C835 C834 1.367 . S
C835 C843 1.433 . S
C836 H832 0.929 . S
C836 C838 1.378 . S
C836 C840 1.350 . S
C837 C840 1.463 . S
C837 C842 1.350 . S
C837 N845 1.427 . S
C838 H829 0.930 . S
C838 C836 1.378 . S
C838 C839 1.367 . S
C839 C838 1.367 . S
C839 C841 1.433 1_455 S
C840 C836 1.350 . S
C840 C837 1.463 . S
C840 N844 1.427 1_455 S
C841 H831 0.929 . S
C841 C839 1.433 1_655 S
C841 N844 1.384 . S
C842 H833 0.929 1_455 S
C842 C834 1.378 . S
C842 C837 1.350 . S
C843 H830 0.929 . S
C843 C835 1.433 . S
C843 N845 1.384 . S
N844 C840 1.427 1_655 S
N844 C841 1.384 . S
N845 C837 1.427 . S
N845 C843 1.384 . S
H846 C852 0.930 . S
H847 C856 0.930 . S
H848 C861 0.929 . S
H849 C859 0.929 . S
H850 C854 0.929 . S
H851 C860 0.929 . S
C852 H846 0.930 . S
C852 C853 1.367 . S
C852 C860 1.378 . S
C853 C852 1.367 . S
C853 C861 1.433 . S
C854 H850 0.929 . S
C854 C856 1.378 . S
C854 C858 1.350 . S
C855 C858 1.463 . S
C855 C860 1.350 . S
C855 N863 1.427 . S
C856 H847 0.930 . S
C856 C854 1.378 . S
C856 C857 1.367 . S
C857 C856 1.367 . S
C857 C859 1.433 . S
C858 C854 1.350 . S
C858 C855 1.463 . S
C858 N862 1.427 . S
C859 H849 0.929 . S
C859 C857 1.433 . S
C859 N862 1.384 . S
C860 H851 0.929 . S
C860 C852 1.378 . S
C860 C855 1.350 . S
C861 H848 0.929 . S
C861 C853 1.433 . S
C861 N863 1.384 . S
N862 C858 1.427 . S
N862 C859 1.384 . S
N863 C855 1.427 . S
N863 C861 1.384 . S
H864 C870 0.930 . S
H865 C874 0.930 . S
H866 C879 0.929 . S
H867 C877 0.929 . S
H868 C872 0.929 . S
H869 C878 0.929 . S
C870 H864 0.930 . S
C870 C871 1.367 . S
C870 C878 1.378 . S
C871 C870 1.367 . S
C871 C879 1.433 . S
C872 H868 0.929 . S
C872 C874 1.378 . S
C872 C876 1.350 . S
C873 C876 1.463 . S
C873 C878 1.350 . S
C873 N881 1.427 . S
C874 H865 0.930 . S
C874 C872 1.378 . S
C874 C875 1.367 . S
C875 C874 1.367 . S
C875 C877 1.433 . S
C876 C872 1.350 . S
C876 C873 1.463 . S
C876 N880 1.427 . S
C877 H867 0.929 . S
C877 C875 1.433 . S
C877 N880 1.384 . S
C878 H869 0.929 . S
C878 C870 1.378 . S
C878 C873 1.350 . S
C879 H866 0.929 . S
C879 C871 1.433 . S
C879 N881 1.384 . S
N880 C876 1.427 . S
N880 C877 1.384 . S
N881 C873 1.427 . S
N881 C879 1.384 . S
H882 C888 0.930 . S
H883 C892 0.930 . S
H884 C897 0.929 . S
H885 C895 0.929 . S
H886 C890 0.929 . S
H887 C896 0.929 . S
C888 H882 0.930 . S
C888 C889 1.367 . S
C888 C896 1.378 . S
C889 C888 1.367 . S
C889 C897 1.433 . S
C890 H886 0.929 . S
C890 C892 1.378 . S
C890 C894 1.350 . S
C891 C894 1.463 . S
C891 C896 1.350 . S
C891 N899 1.427 . S
C892 H883 0.930 . S
C892 C890 1.378 . S
C892 C893 1.367 . S
C893 C892 1.367 . S
C893 C895 1.433 . S
C894 C890 1.350 . S
C894 C891 1.463 . S
C894 N898 1.427 . S
C895 H885 0.929 . S
C895 C893 1.433 . S
C895 N898 1.384 . S
C896 H887 0.929 . S
C896 C888 1.378 . S
C896 C891 1.350 . S
C897 H884 0.929 . S
C897 C889 1.433 . S
C897 N899 1.384 . S
N898 C894 1.427 . S
N898 C895 1.384 . S
N899 C891 1.427 . S
N899 C897 1.384 . S
C259 C11 1.521 . S
C263 C47 1.414 . S
C277 C25 1.667 . S
C281 C61 1.509 . S
C295 C81 1.589 . S
C299 C39 1.589 . S
C313 C95 1.473 . S
C317 C131 1.387 . S
C331 C109 1.642 . S
C335 C145 1.498 . S
C349 C165 1.524 . S
C353 C123 1.524 . S
C367 C215 1.375 . S
C371 C179 1.478 . S
C385 C229 1.485 . S
C389 C193 1.649 . S
C403 C249 1.512 . S
C407 C207 1.511 . S
C421 C5 1.677 . S
C425 C137 1.622 . S
C439 C19 1.745 . S
C443 C151 1.703 . S
C457 C159 1.755 . S
C461 C33 1.751 . S
C475 C53 1.626 . S
C479 C173 1.685 . S
C493 C67 1.700 . S
C497 C187 1.751 . S
C511 C75 1.765 . S
C515 C201 1.760 . S
C529 C89 1.691 . S
C533 C221 1.629 . S
C547 C103 1.792 . S
C551 C235 1.740 . S
C565 C243 1.667 1_545 S
C569 C117 1.667 . S
C583 C12 0.656 . S
C587 C68 0.646 . S
C601 C26 0.684 . S
C605 C74 0.686 . S
C619 C40 0.644 . S
C623 C54 0.650 . S
C637 C46 0.527 . S
C641 C18 0.531 . S
C655 C32 0.563 . S
C659 C60 0.587 . S
C673 C82 0.574 . S
C677 C4 0.585 . S
C691 C96 0.738 . S
C695 C152 0.729 . S
C709 C158 0.701 . S
C713 C110 0.702 . S
C727 C138 0.710 . S
C731 C124 0.705 . S
C745 C102 0.529 . S
C749 C130 0.543 . S
C763 C144 0.608 . S
C767 C116 0.615 . S
C781 C166 0.564 . S
C785 C88 0.582 . S
C799 C236 0.644 . S
C803 C180 0.644 . S
C817 C242 0.712 . S
C821 C194 0.712 . S
C835 C208 0.608 . S
C839 C222 0.613 . S
C853 C186 0.627 . S
C857 C214 0.614 . S
C871 C200 0.587 . S
C875 C228 0.589 . S
C889 C172 0.603 . S
C893 C250 0.601 . S
