# Generated by pormake.
# Topology bcg, (8)-cn, num edge types: 1
# Building blocks:
#     Node 0, Type 0, BuildingBlock: XADDAJ01_clean_sbu_3, # of connection points: 8
#     Node 1, Type 0, BuildingBlock: XADDAJ01_clean_sbu_3, # of connection points: 8
#     Node 2, Type 0, BuildingBlock: XADDAJ01_clean_sbu_3, # of connection points: 8
#     Node 3, Type 0, BuildingBlock: XADDAJ01_clean_sbu_3, # of connection points: 8
#     Edge 4, Type (0, 0), BuildingBlock: UVAHIK_clean_linker_0, # of connection points: 2
#     Edge 5, Type (0, 0), BuildingBlock: UVAHIK_clean_linker_0, # of connection points: 2
#     Edge 6, Type (0, 0), BuildingBlock: UVAHIK_clean_linker_0, # of connection points: 2
#     Edge 7, Type (0, 0), BuildingBlock: UVAHIK_clean_linker_0, # of connection points: 2
#     Edge 8, Type (0, 0), BuildingBlock: UVAHIK_clean_linker_0, # of connection points: 2
#     Edge 9, Type (0, 0), BuildingBlock: UVAHIK_clean_linker_0, # of connection points: 2
#     Edge 10, Type (0, 0), BuildingBlock: UVAHIK_clean_linker_0, # of connection points: 2
#     Edge 11, Type (0, 0), BuildingBlock: UVAHIK_clean_linker_0, # of connection points: 2
#     Edge 12, Type (0, 0), BuildingBlock: UVAHIK_clean_linker_0, # of connection points: 2
#     Edge 13, Type (0, 0), BuildingBlock: UVAHIK_clean_linker_0, # of connection points: 2
#     Edge 14, Type (0, 0), BuildingBlock: UVAHIK_clean_linker_0, # of connection points: 2
#     Edge 15, Type (0, 0), BuildingBlock: UVAHIK_clean_linker_0, # of connection points: 2
#     Edge 16, Type (0, 0), BuildingBlock: UVAHIK_clean_linker_0, # of connection points: 2
#     Edge 17, Type (0, 0), BuildingBlock: UVAHIK_clean_linker_0, # of connection points: 2
#     Edge 18, Type (0, 0), BuildingBlock: UVAHIK_clean_linker_0, # of connection points: 2
#     Edge 19, Type (0, 0), BuildingBlock: UVAHIK_clean_linker_0, # of connection points: 2
# Relax obj value: 0.147
# Max RMSD: 0.212
# Mean RMSD: 0.212
data_MOF--net-bcg--node1-XADDAJ01_clean_sbu_3--edge1-UVAHIK_clean_linker_0
_symmetry_space_group_name_H-M    P1
_symmetry_Int_Tables_number       1
_symmetry_cell_setting            triclinic
loop_
_symmetry_equiv_pos_as_xyz
'x, y, z'
_cell_length_a     26.872758
_cell_length_b     26.012601
_cell_length_c     41.268296
_cell_angle_alpha  81.965637
_cell_angle_beta   90.091185
_cell_angle_gamma 89.844494
loop_
_atom_site_label
_atom_site_type_symbol
_atom_site_fract_x
_atom_site_fract_y
_atom_site_fract_z
_atom_type_partial_charge
C0 C 0.09503 0.31964 0.03688 0.0
C1 C 0.05127 0.31597 0.01874 0.0
C2 C 1.00483 0.32322 0.03298 0.0
C3 C 1.00262 0.33407 0.06529 0.0
C4 C 0.04592 0.33662 0.0839 0.0
C5 C 0.09223 0.32926 0.06954 0.0
O6 O 0.23322 0.22813 0.97544 0.0
Tb7 Tb 0.18704 0.29784 0.97082 0.0
Tb8 Tb 0.33218 0.21656 0.00872 0.0
O9 O 0.13965 0.29585 0.9282 0.0
O10 O 0.26501 0.16892 0.01475 0.0
O11 O 0.15916 0.35069 0.0001 0.0
C12 C 0.37505 0.20135 0.95701 0.0
O13 O 0.15461 0.26652 0.0153 0.0
O14 O 0.28586 0.28613 0.00406 0.0
O15 O 0.25422 0.34555 0.96485 0.0
C16 C 0.14413 0.31297 0.02256 0.0
C17 C 0.40075 0.17649 0.06756 0.0
O18 O 0.39577 0.13146 0.05694 0.0
C19 C 0.22627 0.18633 -0.00318 0.0
C20 C 0.29292 0.32803 0.98279 0.0
O21 O 0.37939 0.21792 0.05145 0.0
C22 C 0.42409 0.19383 0.94286 0.0
C23 C 0.47307 0.17547 0.89612 0.0
C24 C 0.42682 0.18359 0.91034 0.0
C25 C 0.46785 0.19728 0.96103 0.0
C26 C 0.51425 0.18928 0.94694 0.0
C27 C 0.51638 0.17788 0.91474 0.0
C28 C 0.12045 0.33746 0.91088 0.0
O29 O 0.12767 0.38314 0.92019 0.0
O30 O 0.35918 0.16366 0.97919 0.0
O31 O 0.36539 0.24785 0.9645 0.0
H32 H 0.05337 0.30737 -0.00619 0.0
H33 H 0.96665 0.33766 0.07668 0.0
H34 H 0.12602 0.33098 0.08374 0.0
H35 H 0.39303 0.18197 0.89612 0.0
H36 H 0.46579 0.2063 0.98587 0.0
H37 H 0.55232 0.17372 0.90343 0.0
C38 C 0.60624 0.80159 0.03606 0.0
C39 C 0.56107 0.79553 0.0192 0.0
C40 C 0.51584 0.78829 0.03666 0.0
C41 C 0.51644 0.78566 0.07082 0.0
C42 C 0.56071 0.7915 0.08787 0.0
C43 C 0.6054 0.7997 0.07033 0.0
O44 O 0.70607 0.71609 0.96509 0.0
Tb45 Tb 0.70915 0.79692 0.97279 0.0
Tb46 Tb 0.8089 0.71909 0.00915 0.0
O47 O 0.67144 0.81828 0.9263 0.0
O48 O 0.7395 0.67477 0.01291 0.0
O49 O 0.6517 0.84118 -0.01089 0.0
C50 C 0.86473 0.70133 0.96324 0.0
O51 O 0.69062 0.78125 0.02276 0.0
O52 O 0.8102 0.79997 0.01681 0.0
O53 O 0.77869 0.84064 0.96855 0.0
C54 C 0.65403 0.81547 0.01889 0.0
C55 C 0.86126 0.66114 0.07138 0.0
O56 O 0.85167 0.61877 0.05854 0.0
C57 C 0.70692 0.67671 0.9888 0.0
C58 C 0.81084 0.83877 -0.00721 0.0
O59 O 0.84712 0.70658 0.05605 0.0
C60 C 0.91279 0.71446 0.94626 0.0
C61 C 0.95884 0.72303 0.89466 0.0
C62 C 0.91397 0.71542 0.91205 0.0
C63 C 0.9578 0.72077 0.96322 0.0
C64 C 1.00321 0.72745 0.94591 0.0
C65 C 1.00294 0.72926 0.91178 0.0
C66 C 0.68882 0.80178 0.89982 0.0
O67 O 0.73048 0.77493 0.90181 0.0
O68 O 0.86632 0.6747 -0.00719 0.0
O69 O 0.8288 0.73637 0.95952 0.0
H70 H 0.56077 0.79838 -0.00724 0.0
H71 H 0.48165 0.78068 0.0842 0.0
H72 H 0.63957 0.80544 0.08337 0.0
H73 H 0.87992 0.70942 0.89895 0.0
H74 H 0.95781 0.71855 -0.01037 0.0
H75 H 0.03784 0.73383 0.89852 0.0
C76 C 0.09398 0.69472 0.44062 0.0
C77 C 0.04965 0.70416 0.45678 0.0
C78 C 1.00406 0.70445 0.4401 0.0
C79 C 1.00334 0.69683 0.40714 0.0
C80 C 0.04735 0.68808 0.39072 0.0
C81 C 0.0927 0.68626 0.40768 0.0
O82 O 0.23041 0.77946 0.50544 0.0
Tb83 Tb 0.18416 0.70996 0.50932 0.0
Tb84 Tb 0.33054 0.78856 0.47214 0.0
O85 O 0.13586 0.71428 0.5512 0.0
O86 O 0.26359 0.83667 0.46545 0.0
O87 O 0.15163 0.658 0.48111 0.0
C88 C 0.37328 0.80482 0.5237 0.0
O89 O 0.15761 0.7412 0.46308 0.0
O90 O 0.28276 0.72043 0.47752 0.0
O91 O 0.25054 0.66089 0.51609 0.0
C92 C 0.14236 0.6956 0.45698 0.0
C93 C 0.40064 0.8281 0.41425 0.0
O94 O 0.39753 0.87246 0.42593 0.0
C95 C 0.22449 0.8206 0.4833 0.0
C96 C 0.28953 0.67829 0.49865 0.0
O97 O 0.37745 0.78716 0.42932 0.0
C98 C 0.42214 0.81425 0.53752 0.0
C99 C 0.47105 0.83308 0.58422 0.0
C100 C 0.42501 0.82316 0.57029 0.0
C101 C 0.46559 0.81416 0.51872 0.0
C102 C 0.51184 0.8239 0.5325 0.0
C103 C 0.51405 0.83377 0.56504 0.0
C104 C 0.11767 0.67297 0.56927 0.0
O105 O 0.12626 0.62686 0.56089 0.0
O106 O 0.35561 0.84206 0.50177 0.0
O107 O 0.36545 0.75806 0.51607 0.0
H108 H 0.05062 0.7109 0.48211 0.0
H109 H 0.96825 0.69836 0.39399 0.0
H110 H 0.12701 0.67982 0.39502 0.0
H111 H 0.39145 0.82238 0.58491 0.0
H112 H 0.4634 0.80632 0.49363 0.0
H113 H 0.54994 0.83912 0.57613 0.0
C114 C 0.6054 0.20868 0.44552 0.0
C115 C 0.56081 0.21548 0.46275 0.0
C116 C 0.51522 0.22352 0.44566 0.0
C117 C 0.51475 0.22561 0.41154 0.0
C118 C 0.55844 0.21869 0.39417 0.0
C119 C 0.60357 0.21018 0.41132 0.0
O120 O 0.70553 0.29198 0.51717 0.0
Tb121 Tb 0.70975 0.21187 0.50815 0.0
Tb122 Tb 0.80741 0.29134 0.47208 0.0
O123 O 0.67352 0.18849 0.55485 0.0
O124 O 0.73726 0.3343 0.46933 0.0
O125 O 0.65221 0.16801 0.49174 0.0
C126 C 0.86314 0.30818 0.51835 0.0
O127 O 0.68981 0.22909 0.45845 0.0
O128 O 0.81103 0.21138 0.46277 0.0
O129 O 0.77989 0.16882 0.5107 0.0
C130 C 0.65365 0.1946 0.46219 0.0
C131 C 0.82721 0.29899 0.39884 0.0
O132 O 0.7861 0.27151 0.40048 0.0
C133 C 0.70566 0.3319 0.49388 0.0
C134 C 0.81115 0.17131 0.48597 0.0
O135 O 0.84429 0.31489 0.4256 0.0
C136 C 0.91149 0.29438 0.53495 0.0
C137 C 0.95899 0.2858 0.58608 0.0
C138 C 0.91369 0.29393 0.56908 0.0
C139 C 0.95587 0.28696 0.51766 0.0
C140 C 1.00164 0.27934 0.5346 0.0
C141 C 1.00246 0.27822 0.56865 0.0
C142 C 0.69085 0.20483 0.5814 0.0
O143 O 0.7319 0.23242 0.57942 0.0
O144 O 0.86445 0.3353 0.48896 0.0
O145 O 0.82732 0.27329 0.52177 0.0
H146 H 0.56127 0.21291 0.48918 0.0
H147 H 0.47957 0.2308 0.39852 0.0
H148 H 0.63732 0.20384 0.39802 0.0
H149 H 0.88013 0.30083 0.58241 0.0
H150 H 0.95514 0.28881 0.49127 0.0
H151 H 0.03776 0.27334 0.58154 0.0
C152 C 0.60045 0.16131 0.96344 0.0
C153 C 0.56139 0.19714 0.96398 0.0
C154 C 0.64844 0.17383 0.97245 0.0
C155 C 0.72299 0.26658 0.01226 0.0
H156 H 0.82395 0.23686 0.95024 0.0
C157 C 0.91855 0.35085 0.01655 0.0
C158 C 0.95775 0.31521 0.01593 0.0
C159 C 0.8706 0.33813 0.00759 0.0
C160 C 0.79627 0.24508 0.96788 0.0
H161 H 0.54084 0.27254 0.97639 0.0
H162 H 0.62493 0.2946 -0.00775 0.0
H163 H 0.73866 0.20802 0.94398 0.0
H164 H 0.97859 0.23993 0.00347 0.0
H165 H 0.89454 0.21748 0.98772 0.0
H166 H 0.78059 0.30365 0.03616 0.0
C167 C 0.61846 0.25675 0.98499 0.0
C168 C 0.74748 0.22837 0.96442 0.0
C169 C 0.5703 0.24411 0.97605 0.0
C170 C 0.949 0.26822 0.00386 0.0
C171 C 0.90087 0.25536 -0.00501 0.0
C172 C 0.77178 0.28328 0.01572 0.0
C173 C 0.65831 0.22249 0.98208 0.0
C174 C 0.71033 0.23889 0.9866 0.0
C175 C 0.8609 0.28943 -0.00203 0.0
C176 C 0.80891 0.27282 -0.00648 0.0
H177 H 0.59427 0.1246 0.95451 0.0
H178 H 0.67817 0.14614 0.97075 0.0
H179 H 0.6953 0.27483 0.02989 0.0
H180 H 0.9246 0.38755 0.02551 0.0
H181 H 0.84076 0.36569 0.00934 0.0
C182 C 0.0883 0.69124 0.95838 0.0
C183 C 0.05241 0.72925 0.96236 0.0
C184 C 0.13793 0.69726 0.96743 0.0
C185 C 0.22884 0.79991 0.97927 0.0
H186 H 0.31249 0.68336 0.01397 0.0
C187 C 0.4307 0.82463 0.02457 0.0
C188 C 0.46652 0.78667 0.02035 0.0
C189 C 0.381 0.81871 0.01562 0.0
C190 C 0.28993 0.71627 0.00379 0.0
H191 H 0.04008 0.80281 0.97981 0.0
H192 H 0.127 0.8133 -0.00373 0.0
H193 H 0.22382 0.67003 0.00585 0.0
H194 H 0.47866 0.71328 0.00264 0.0
H195 H 0.39162 0.70296 0.9864 0.0
H196 H 0.29497 0.84615 0.97724 0.0
C197 C 0.11679 0.77885 0.98584 0.0
C198 C 0.23883 0.70866 -0.00073 0.0
C199 C 0.06684 0.77258 0.9769 0.0
C200 C 0.45195 0.74348 0.00572 0.0
C201 C 0.40194 0.73731 -0.0031 0.0
C202 C 0.27994 0.80752 0.98381 0.0
C203 C 0.1533 0.74177 0.98055 0.0
C204 C 0.20746 0.75035 0.98691 0.0
C205 C 0.36551 0.77434 0.0024 0.0
C206 C 0.31131 0.76582 -0.00387 0.0
H207 H 0.07829 0.65777 0.94683 0.0
H208 H 0.1647 0.6681 0.96261 0.0
H209 H 0.20629 0.83281 0.96909 0.0
H210 H 0.44083 0.85797 0.03621 0.0
H211 H 0.35428 0.84783 0.02059 0.0
C212 C 0.59708 0.85552 0.51638 0.0
C213 C 0.55895 0.81914 0.51471 0.0
C214 C 0.64523 0.8453 0.50641 0.0
C215 C 0.72511 0.73318 0.50079 0.0
H216 H 0.81769 0.8352 0.45846 0.0
C217 C 0.91657 0.67998 0.45377 0.0
C218 C 0.95653 0.71387 0.45609 0.0
C219 C 0.86905 0.69276 0.46344 0.0
C220 C 0.79242 0.80655 0.47079 0.0
H221 H 0.54013 0.74551 0.49901 0.0
H222 H 0.62426 0.72802 0.48089 0.0
H223 H 0.7309 0.85959 0.46532 0.0
H224 H 0.97918 0.78637 0.47172 0.0
H225 H 0.89553 0.80887 0.48906 0.0
H226 H 0.78645 0.68013 0.50625 0.0
C227 C 0.61709 0.76397 0.49053 0.0
C228 C 0.7427 0.8204 0.47449 0.0
C229 C 0.56884 0.77427 0.50046 0.0
C230 C 0.94884 0.75956 0.4699 0.0
C231 C 0.90102 0.77262 0.47943 0.0
C232 C 0.77474 0.71936 0.49711 0.0
C233 C 0.65611 0.79848 0.49459 0.0
C234 C 0.70847 0.78373 0.48934 0.0
C235 C 0.86048 0.73985 0.47554 0.0
C236 C 0.80885 0.75578 0.48188 0.0
H237 H 0.5902 0.89063 0.52705 0.0
H238 H 0.67444 0.87263 0.50987 0.0
H239 H 0.69993 0.70442 0.51309 0.0
H240 H 0.92179 0.64447 0.44321 0.0
H241 H 0.83861 0.66691 0.4599 0.0
C242 C 0.08364 0.31799 0.51675 0.0
C243 C 0.05021 0.27639 0.51774 0.0
C244 C 0.13349 0.31232 0.50798 0.0
C245 C 0.23035 0.21061 0.5067 0.0
H246 H 0.30649 0.3229 0.45906 0.0
C247 C 0.43323 0.18443 0.46319 0.0
C248 C 0.4665 0.22615 0.46237 0.0
C249 C 0.38327 0.1899 0.47181 0.0
C250 C 0.28606 0.29134 0.47285 0.0
H251 H 0.04242 0.1964 0.50984 0.0
H252 H 0.12949 0.18643 0.49376 0.0
H253 H 0.21739 0.33375 0.46691 0.0
H254 H 0.47385 0.30615 0.47033 0.0
H255 H 0.38663 0.31575 0.48613 0.0
H256 H 0.29904 0.1682 0.51264 0.0
C257 C 0.11731 0.22354 0.49998 0.0
C258 C 0.23471 0.2975 0.47725 0.0
C259 C 0.06722 0.22937 0.50866 0.0
C260 C 0.44919 0.27308 0.47141 0.0
C261 C 0.39902 0.27871 0.47993 0.0
C262 C 0.28171 0.20444 0.50231 0.0
C263 C 0.15149 0.26461 0.50024 0.0
C264 C 0.20601 0.25725 0.49427 0.0
C265 C 0.36501 0.23752 0.47952 0.0
C266 C 0.31043 0.24472 0.48533 0.0
H267 H 0.07168 0.35428 0.52435 0.0
H268 H 0.15847 0.34467 0.50891 0.0
H269 H 0.20992 0.17905 0.52051 0.0
H270 H 0.44542 0.14822 0.4556 0.0
H271 H 0.35842 0.15747 0.47077 0.0
C272 C 0.63582 0.63754 0.96156 0.0
C273 C 0.67011 0.63433 0.9876 0.0
C274 C 0.59941 0.59959 0.96055 0.0
C275 C 0.53011 0.49773 0.01334 0.0
H276 H 0.48979 0.45738 0.9302 0.0
C277 C 0.37732 0.34404 0.00523 0.0
C278 C 0.34132 0.35579 0.98053 0.0
C279 C 0.42087 0.37338 0.00529 0.0
C280 C 0.50036 0.46846 0.95359 0.0
H281 H 0.69298 0.58789 0.03294 0.0
H282 H 0.62946 0.521 0.03102 0.0
H283 H 0.55994 0.51612 0.93231 0.0
H284 H 0.32331 0.40733 0.93615 0.0
H285 H 0.39924 0.45888 0.93626 0.0
H286 H 0.4702 0.45043 0.03455 0.0
C287 C 0.63062 0.55345 0.01149 0.0
C288 C 0.54063 0.5022 0.95483 0.0
C289 C 0.66726 0.59162 0.01251 0.0
C290 C 0.35043 0.39701 0.95542 0.0
C291 C 0.3941 0.42642 0.95543 0.0
C292 C 0.48991 0.46387 0.0121 0.0
C293 C 0.59607 0.55707 0.98552 0.0
C294 C 0.55566 0.51789 0.98466 0.0
C295 C 0.42952 0.4155 0.98068 0.0
C296 C 0.47412 0.44926 0.98215 0.0
H297 H 0.63648 0.66992 0.94196 0.0
H298 H 0.57303 0.60437 0.94048 0.0
H299 H 0.54007 0.50944 0.03667 0.0
H300 H 0.37115 0.31319 0.02521 0.0
H301 H 0.44751 0.36342 0.02489 0.0
C302 C 0.635 0.37052 0.52185 0.0
C303 C 0.66877 0.37406 0.49561 0.0
C304 C 0.59832 0.40831 0.52309 0.0
C305 C 0.5274 0.50886 0.47022 0.0
H306 H 0.48731 0.55054 0.55301 0.0
C307 C 0.37414 0.66227 0.47699 0.0
C308 C 0.33801 0.65066 0.50147 0.0
C309 C 0.41794 0.63313 0.47741 0.0
C310 C 0.49786 0.53905 0.52973 0.0
H311 H 0.69076 0.42089 0.45029 0.0
H312 H 0.62685 0.48741 0.45264 0.0
H313 H 0.55813 0.49206 0.5512 0.0
H314 H 0.31986 0.59968 0.54596 0.0
H315 H 0.39634 0.54831 0.54666 0.0
H316 H 0.46686 0.55538 0.44881 0.0
C317 C 0.62853 0.45487 0.4721 0.0
C318 C 0.53846 0.50551 0.52867 0.0
C319 C 0.66537 0.41692 0.47084 0.0
C320 C 0.34714 0.60982 0.52686 0.0
C321 C 0.39108 0.58056 0.52732 0.0
C322 C 0.4869 0.54248 0.47127 0.0
C323 C 0.59432 0.45083 0.49815 0.0
C324 C 0.55341 0.48949 0.49895 0.0
C325 C 0.42662 0.59133 0.50226 0.0
C326 C 0.47131 0.55761 0.50109 0.0
H327 H 0.63623 0.338 0.54134 0.0
H328 H 0.57221 0.40336 0.54324 0.0
H329 H 0.53728 0.49675 0.447 0.0
H330 H 0.36789 0.69282 0.45681 0.0
H331 H 0.44473 0.64293 0.45796 0.0
C332 C 0.16903 0.11745 0.02452 0.0
C333 C 0.1779 0.15853 -0.00072 0.0
C334 C 0.12542 0.08792 0.02472 0.0
C335 C 0.02933 0.04988 0.96847 0.0
H336 H 0.95997 0.99781 0.04856 0.0
C337 C 0.85137 0.92313 0.96885 0.0
C338 C 0.84836 0.88049 -0.00621 0.0
C339 C 0.88839 0.96092 0.9697 0.0
C340 C 0.97911 0.01167 0.02597 0.0
H341 H 0.14773 0.20079 0.95461 0.0
H342 H 0.07143 0.15038 0.9553 0.0
H343 H 0.03008 0.05671 0.05034 0.0
H344 H 0.88219 0.84443 0.03922 0.0
H345 H 0.94639 0.90942 0.04043 0.0
H346 H 0.97899 1.00416 0.94416 0.0
C347 C 0.09823 0.1406 0.97484 0.0
C348 C 0.01935 0.0455 0.02701 0.0
C349 C 0.14173 0.17006 0.97468 0.0
C350 C 0.88297 0.87684 0.01965 0.0
C351 C 0.9198 0.91443 0.02049 0.0
C352 C 0.98915 0.01596 0.96743 0.0
C353 C 0.08982 0.09859 -0.00043 0.0
C354 C 0.04531 0.06468 -0.00167 0.0
C355 C 0.9232 0.95695 -0.00448 0.0
C356 C 0.96383 0.9959 -0.00378 0.0
H357 H 0.19628 0.10731 0.04372 0.0
H358 H 0.12047 0.05555 0.04399 0.0
H359 H 0.04885 0.06326 0.94594 0.0
H360 H 0.8254 0.92716 0.94855 0.0
H361 H 0.8896 0.99337 0.95018 0.0
C362 C 0.88109 0.13313 0.45722 0.0
C363 C 0.84813 0.12935 0.4839 0.0
C364 C 0.91829 0.09603 0.45573 0.0
C365 C 0.95867 0.96294 0.48827 0.0
H366 H 0.08928 0.01641 0.46202 0.0
C367 C 0.13925 0.83892 0.50344 0.0
C368 C 0.17637 0.84887 0.47944 0.0
C369 C 0.09611 0.86936 0.50201 0.0
C370 C 0.05292 1.00064 0.46886 0.0
H371 H 0.82786 0.08253 0.5296 0.0
H372 H 0.8933 0.01743 0.52699 0.0
H373 H 0.02021 0.0763 0.46423 0.0
H374 H 0.19651 0.8975 0.43443 0.0
H375 H 0.12106 0.95047 0.4317 0.0
H376 H 0.99179 0.88712 0.49309 0.0
C377 C 0.88993 0.04922 0.50715 0.0
C378 C 0.01328 0.03506 0.47023 0.0
C379 C 0.85257 0.08661 0.5087 0.0
C380 C 0.16869 0.88892 0.45336 0.0
C381 C 0.12556 0.91945 0.45192 0.0
C382 C 0.99846 0.92835 0.48684 0.0
C383 C 0.9237 0.05402 0.48085 0.0
C384 C 0.96563 0.01672 0.47987 0.0
C385 C 0.08922 0.91077 0.47662 0.0
C386 C 0.0461 0.94684 0.47707 0.0
H387 H 0.87876 0.16526 0.43751 0.0
H388 H 0.94305 0.10043 0.43484 0.0
H389 H 0.92232 0.94754 0.49549 0.0
H390 H 0.14443 0.80903 0.52415 0.0
H391 H 0.06929 0.86188 0.52165 0.0
C392 C 0.52976 0.25601 0.33794 0.0
C393 C 0.55552 0.21703 0.35838 0.0
C394 C 0.52195 0.25174 0.30492 0.0
C395 C 0.50682 0.1543 0.25017 0.0
H396 H 0.51958 0.27115 0.18132 0.0
C397 C 0.45213 0.13774 0.11607 0.0
C398 C 0.42725 0.18062 0.0987 0.0
C399 C 0.47467 0.14148 0.14632 0.0
C400 C 0.51528 0.2382 0.20025 0.0
H401 H 0.5941 0.14348 0.36019 0.0
H402 H 0.57997 0.13566 0.30235 0.0
H403 H 0.54666 0.27968 0.23673 0.0
H404 H 0.40721 0.26133 0.0994 0.0
H405 H 0.44497 0.26744 0.15212 0.0
H406 H 0.47354 0.11337 0.21423 0.0
C407 C 0.56603 0.16962 0.31193 0.0
C408 C 0.53108 0.24309 0.23199 0.0
C409 C 0.57449 0.1743 0.3449 0.0
C410 C 0.42618 0.2275 0.112 0.0
C411 C 0.44828 0.23113 0.14226 0.0
C412 C 0.49047 0.14955 0.21849 0.0
C413 C 0.53912 0.20801 0.29169 0.0
C414 C 0.52645 0.20143 0.2574 0.0
C415 C 0.47258 0.18812 0.16002 0.0
C416 C 0.49378 0.1917 0.19316 0.0
H417 H 0.51477 0.28937 0.34771 0.0
H418 H 0.50075 0.28175 0.29004 0.0
H419 H 0.50224 0.12167 0.26932 0.0
H420 H 0.45389 0.10111 0.10646 0.0
H421 H 0.49367 0.10774 0.15897 0.0
C422 C 0.57755 0.83452 0.13762 0.0
C423 C 0.55865 0.79219 0.12378 0.0
C424 C 0.56913 0.83859 0.17069 0.0
C425 C 0.53306 0.76375 0.25008 0.0
H426 H 0.47648 0.89377 0.26858 0.0
C427 C 0.42556 0.77818 0.36912 0.0
C428 C 0.42737 0.82436 0.38317 0.0
C429 C 0.44813 0.77498 0.33897 0.0
C430 C 0.49311 0.85747 0.26411 0.0
H431 H 0.51821 0.71986 0.13389 0.0
H432 H 0.50423 0.72641 0.19164 0.0
H433 H 0.50608 0.88637 0.2136 0.0
H434 H 0.45571 0.90307 0.37682 0.0
H435 H 0.49612 0.8972 0.32447 0.0
H436 H 0.52015 0.73464 0.30042 0.0
C437 C 0.52537 0.75658 0.17704 0.0
C438 C 0.51002 0.85325 0.2325 0.0
C439 C 0.53318 0.7529 0.14395 0.0
C440 C 0.45337 0.86697 0.36663 0.0
C441 C 0.47629 0.86368 0.33648 0.0
C442 C 0.51662 0.76809 0.28175 0.0
C443 C 0.54231 0.79999 0.19065 0.0
C444 C 0.52932 0.80604 0.22498 0.0
C445 C 0.47358 0.81775 0.32206 0.0
C446 C 0.49543 0.81469 0.28908 0.0
H447 H 0.59692 0.86558 0.12254 0.0
H448 H 0.58293 0.87231 0.18054 0.0
H449 H 0.54838 0.72707 0.24516 0.0
H450 H 0.40575 0.74457 0.38106 0.0
H451 H 0.44435 0.73925 0.32853 0.0
C452 C 0.45597 0.80137 0.64357 0.0
C453 C 0.47597 0.83886 0.61933 0.0
C454 C 0.46895 0.80104 0.67646 0.0
C455 C 0.52987 0.87725 0.73528 0.0
H456 H 0.57712 0.74247 0.77588 0.0
C457 C 0.61642 0.83995 0.86598 0.0
C458 C 0.66012 0.80974 0.86885 0.0
C459 C 0.58828 0.84529 0.83711 0.0
C460 C 0.56405 0.78036 0.76489 0.0
H461 H 0.52199 0.90763 0.61061 0.0
H462 H 0.54459 0.90718 0.6679 0.0
H463 H 0.53447 0.75021 0.72329 0.0
H464 H 0.70877 0.76196 0.84348 0.0
H465 H 0.65979 0.77127 0.79331 0.0
H466 H 0.56105 0.90752 0.77657 0.0
C467 C 0.51897 0.878 0.66166 0.0
C468 C 0.53902 0.78471 0.73495 0.0
C469 C 0.50629 0.8781 0.62882 0.0
C470 C 0.6753 0.78546 0.84214 0.0
C471 C 0.64701 0.79045 0.81346 0.0
C472 C 0.55465 0.87282 0.76541 0.0
C473 C 0.50183 0.83845 0.68572 0.0
C474 C 0.52247 0.83334 0.71947 0.0
C475 C 0.60302 0.8201 0.81067 0.0
C476 C 0.57294 0.82447 0.78017 0.0
H477 H 0.43272 0.77052 0.63691 0.0
H478 H 0.45468 0.77042 0.69451 0.0
H479 H 0.51728 0.9152 0.72405 0.0
H480 H 0.60369 0.85913 0.88613 0.0
H481 H 0.55445 0.86824 0.83571 0.0
C482 C 0.45656 0.20475 0.83662 0.0
C483 C 0.47776 0.16848 0.8612 0.0
C484 C 0.46957 0.20453 0.8038 0.0
C485 C 0.53292 0.12842 0.7459 0.0
H486 H 0.57718 0.26353 0.70445 0.0
C487 C 0.6193 0.16544 0.61527 0.0
C488 C 0.66238 0.19634 0.6124 0.0
C489 C 0.59115 0.15991 0.64408 0.0
C490 C 0.56493 0.22555 0.71567 0.0
H491 H 0.52601 0.10121 0.87068 0.0
H492 H 0.54851 0.10055 0.81351 0.0
H493 H 0.53426 0.25598 0.75686 0.0
H494 H 0.70995 0.24511 0.63771 0.0
H495 H 0.66093 0.23551 0.68774 0.0
H496 H 0.56512 0.09792 0.705 0.0
C497 C 0.52196 0.12922 0.81941 0.0
C498 C 0.53976 0.22129 0.74551 0.0
C499 C 0.5093 0.12973 0.85217 0.0
C500 C 0.67698 0.22106 0.63905 0.0
C501 C 0.64867 0.2159 0.66766 0.0
C502 C 0.55779 0.13276 0.71585 0.0
C503 C 0.50364 0.16772 0.79498 0.0
C504 C 0.5243 0.17257 0.76129 0.0
C505 C 0.60524 0.18562 0.67043 0.0
C506 C 0.57502 0.18124 0.7008 0.0
H507 H 0.43239 0.23522 0.84294 0.0
H508 H 0.45442 0.23434 0.78546 0.0
H509 H 0.52121 0.09039 0.75738 0.0
H510 H 0.60702 0.14592 0.59517 0.0
H511 H 0.55778 0.13645 0.64548 0.0
C512 C 0.02512 0.72419 0.33356 0.0
C513 C 0.04486 0.68315 0.35552 0.0
C514 C 0.01596 0.71801 0.30105 0.0
C515 C 0.98237 0.6193 0.25087 0.0
H516 H 1.00682 0.72943 0.17922 0.0
C517 C 0.90853 0.61198 0.11881 0.0
C518 C 0.88863 0.65884 0.1028 0.0
C519 C 0.93485 0.61094 0.14829 0.0
C520 C 0.99942 0.69839 0.19896 0.0
H521 H 0.07155 0.60388 0.36091 0.0
H522 H 0.05485 0.59258 0.30367 0.0
H523 H 0.04195 0.7353 0.23305 0.0
H524 H 0.88045 0.74121 0.10546 0.0
H525 H 0.925 0.73918 0.15668 0.0
H526 H 0.93802 0.58343 0.21715 0.0
C527 C 0.04681 0.62964 0.31168 0.0
C528 C 0.01979 0.70167 0.22975 0.0
C529 C 0.05672 0.63616 0.34423 0.0
C530 C 0.89547 0.70443 0.11694 0.0
C531 C 0.9215 0.70336 0.14629 0.0
C532 C 0.96162 0.61616 0.22005 0.0
C533 C 0.0257 0.67036 0.28989 0.0
C534 C 0.01047 0.66284 0.25625 0.0
C535 C 0.94179 0.65674 0.16232 0.0
C536 C 0.96877 0.65642 0.19394 0.0
H537 H 0.01542 0.76066 0.34186 0.0
H538 H 0.99914 0.74989 0.28501 0.0
H539 H 0.97422 0.58896 0.2709 0.0
H540 H 0.90406 0.57619 0.10852 0.0
H541 H 0.95021 0.5744 0.15988 0.0
C542 C 0.89876 0.33925 0.36532 0.0
C543 C 0.85583 0.30812 0.36791 0.0
C544 C 0.92691 0.3456 0.3365 0.0
C545 C 0.95357 0.28203 0.26411 0.0
H546 H 0.99655 0.41816 0.22362 0.0
C547 C 0.06238 0.30624 0.14328 0.0
C548 C 0.04114 0.34289 0.11893 0.0
C549 C 0.04917 0.30564 0.17613 0.0
C550 C 0.98506 0.37987 0.23476 0.0
H551 H 0.80858 0.25974 0.34211 0.0
H552 H 0.85762 0.27075 0.29207 0.0
H553 H 0.95259 0.40911 0.27602 0.0
H554 H 0.99258 0.40997 0.10995 0.0
H555 H 0.96977 0.40924 0.1672 0.0
H556 H 0.98454 0.25284 0.22257 0.0
C557 C 0.86975 0.28992 0.31237 0.0
C558 C 0.96014 0.37466 0.26482 0.0
C559 C 0.84143 0.28396 0.34099 0.0
C560 C 1.00935 0.38119 0.12827 0.0
C561 C 0.9965 0.38089 0.16108 0.0
C562 C 0.97879 0.28715 0.23427 0.0
C563 C 0.91299 0.32049 0.30986 0.0
C564 C 0.9432 0.3258 0.27945 0.0
C565 C 0.01485 0.34199 0.18525 0.0
C566 C 0.99401 0.33623 0.21892 0.0
H567 H 0.91089 0.35837 0.38564 0.0
H568 H 0.96014 0.36926 0.33531 0.0
H569 H 0.94154 0.24378 0.27499 0.0
H570 H 0.08673 0.27609 0.13671 0.0
H571 H 0.06437 0.27554 0.19427 0.0
C572 C 0.07043 0.3756 0.86158 0.0
C573 C 0.09392 0.33261 0.87984 0.0
C574 C 0.0478 0.37107 0.83146 0.0
C575 C 1.00439 0.27261 0.77949 0.0
H576 H 0.01949 0.38629 0.70875 0.0
C577 C 0.98781 0.24981 0.64251 0.0
C578 C 0.96239 0.28862 0.62172 0.0
C579 C 0.99625 0.25515 0.67533 0.0
C580 C 0.01435 0.35447 0.72836 0.0
H581 H 0.11145 0.25092 0.88084 0.0
H582 H 0.07363 0.24342 0.82832 0.0
H583 H 0.04902 0.39615 0.76341 0.0
H584 H 0.92511 0.36301 0.61905 0.0
H585 H 0.94042 0.37272 0.6765 0.0
H586 H 0.97165 0.23029 0.74387 0.0
C587 C 0.07141 0.28045 0.83738 0.0
C588 C 0.03117 0.36012 0.75981 0.0
C589 C 0.09355 0.28486 0.86754 0.0
C590 C 0.94441 0.3323 0.63463 0.0
C591 C 0.95355 0.33805 0.66737 0.0
C592 C 0.98817 0.26678 0.74797 0.0
C593 C 0.04845 0.32353 0.81875 0.0
C594 C 0.02706 0.319 0.78577 0.0
C595 C 0.98011 0.29981 0.68797 0.0
C596 C 0.99348 0.30742 0.72197 0.0
H597 H 0.06978 0.41289 0.87041 0.0
H598 H 0.02984 0.40494 0.81816 0.0
H599 H 0.99943 0.24046 0.79889 0.0
H600 H 1.00208 0.21577 0.63317 0.0
H601 H 0.01715 0.22522 0.69049 0.0
C602 C 0.09084 0.72631 0.61234 0.0
C603 C 0.09117 0.67844 0.60019 0.0
C604 C 0.06903 0.73098 0.64256 0.0
C605 C 0.02946 0.6513 0.7203 0.0
H606 H 0.97043 0.78138 0.73671 0.0
C607 C 0.94317 0.67788 0.84565 0.0
C608 C 0.96127 0.72115 0.85887 0.0
C609 C 0.95205 0.67268 0.81279 0.0
C610 C 0.98681 0.74481 0.73248 0.0
H611 H 0.06717 0.59829 0.60988 0.0
H612 H 0.02772 0.60672 0.66208 0.0
H613 H 0.99809 0.77157 0.68164 0.0
H614 H 1.0008 0.79389 0.84786 0.0
H615 H 0.01537 0.78545 0.79037 0.0
H616 H 0.01773 0.62466 0.77126 0.0
C617 C 0.04555 0.64046 0.64872 0.0
C618 C 1.00299 0.73919 0.70092 0.0
C619 C 0.06788 0.63567 0.6186 0.0
C620 C 0.9864 0.76018 0.83826 0.0
C621 C 0.99458 0.7554 0.80535 0.0
C622 C 0.01268 0.65674 0.75176 0.0
C623 C 0.04635 0.68805 0.66137 0.0
C624 C 0.0254 0.69266 0.69445 0.0
C625 C 0.97848 0.71107 0.7924 0.0
C626 C 0.99191 0.70383 0.75833 0.0
H627 H 0.10863 0.76006 0.59892 0.0
H628 H 0.07133 0.76806 0.65154 0.0
H629 H 0.04716 0.61515 0.7166 0.0
H630 H 0.92411 0.647 0.86108 0.0
H631 H 0.93892 0.63825 0.80344 0.0
loop_
_geom_bond_atom_site_label_1
_geom_bond_atom_site_label_2
_geom_bond_distance
_geom_bond_site_symmetry_2
_ccdc_geom_bond_type
C0 C1 1.386 . S
C0 C5 1.384 . S
C0 C16 1.497 . S
C1 C0 1.386 . S
C1 C2 1.393 . S
C1 H32 0.932 . S
C2 C1 1.393 . S
C2 C3 1.387 . S
C3 C2 1.387 . S
C3 C4 1.392 . S
C3 H33 0.930 1_455 S
C4 C3 1.392 . S
C4 C5 1.402 . S
C5 C0 1.384 . S
C5 C4 1.402 . S
C5 H34 0.930 . S
O6 Tb7 2.288 . S
O6 C19 1.266 . S
Tb7 O6 2.288 . S
Tb7 O9 2.303 . S
Tb7 O11 2.430 . S
Tb7 O13 2.459 1_556 S
Tb7 O15 2.301 . S
Tb7 C16 2.808 1_556 S
Tb8 O10 2.301 . S
Tb8 C12 2.808 1_554 S
Tb8 O14 2.288 . S
Tb8 O21 2.303 . S
Tb8 O30 2.430 . S
Tb8 O31 2.459 1_554 S
O9 Tb7 2.303 . S
O9 C28 1.255 . S
O10 Tb8 2.301 . S
O10 C19 1.224 1_554 S
O11 Tb7 2.430 . S
O11 C16 1.248 1_556 S
C12 Tb8 2.808 1_556 S
C12 C22 1.497 . S
C12 O30 1.248 1_556 S
C12 O31 1.260 . S
O13 Tb7 2.459 1_554 S
O13 C16 1.260 . S
O14 Tb8 2.288 . S
O14 C20 1.257 . S
O15 Tb7 2.301 . S
O15 C20 1.237 1_556 S
C16 C0 1.497 . S
C16 Tb7 2.808 1_554 S
C16 O11 1.248 1_554 S
C16 O13 1.260 . S
C17 O18 1.255 . S
C17 O21 1.255 . S
O18 C17 1.255 . S
C19 O6 1.266 . S
C19 O10 1.224 1_556 S
C20 O14 1.257 . S
C20 O15 1.237 1_554 S
O21 Tb8 2.303 . S
O21 C17 1.255 . S
C22 C12 1.497 . S
C22 C24 1.384 . S
C22 C25 1.386 . S
C23 C24 1.402 . S
C23 C27 1.392 . S
C24 C22 1.384 . S
C24 C23 1.402 . S
C24 H35 0.930 . S
C25 C22 1.386 . S
C25 C26 1.393 . S
C25 H36 0.932 . S
C26 C25 1.393 . S
C26 C27 1.387 . S
C27 C23 1.392 . S
C27 C26 1.387 . S
C27 H37 0.930 . S
C28 O9 1.255 . S
C28 O29 1.255 . S
O29 C28 1.255 . S
O30 Tb8 2.430 . S
O30 C12 1.248 1_554 S
O31 Tb8 2.459 1_556 S
O31 C12 1.260 . S
H32 C1 0.932 . S
H33 C3 0.930 1_655 S
H34 C5 0.930 . S
H35 C24 0.930 . S
H36 C25 0.932 . S
H37 C27 0.930 . S
C38 C39 1.386 . S
C38 C43 1.384 . S
C38 C54 1.497 . S
C39 C38 1.386 . S
C39 C40 1.393 . S
C39 H70 0.932 . S
C40 C39 1.393 . S
C40 C41 1.387 . S
C41 C40 1.387 . S
C41 C42 1.392 . S
C41 H71 0.930 . S
C42 C41 1.392 . S
C42 C43 1.402 . S
C43 C38 1.384 . S
C43 C42 1.402 . S
C43 H72 0.930 . S
O44 Tb45 2.288 . S
O44 C57 1.266 . S
Tb45 O44 2.288 . S
Tb45 O47 2.303 . S
Tb45 O49 2.430 . S
Tb45 O51 2.459 1_556 S
Tb45 O53 2.301 . S
Tb45 C54 2.808 1_556 S
Tb46 O48 2.301 . S
Tb46 C50 2.808 1_554 S
Tb46 O52 2.288 . S
Tb46 O59 2.303 . S
Tb46 O68 2.430 . S
Tb46 O69 2.459 1_554 S
O47 Tb45 2.303 . S
O47 C66 1.255 . S
O48 Tb46 2.301 . S
O48 C57 1.224 1_554 S
O49 Tb45 2.430 . S
O49 C54 1.248 1_556 S
C50 Tb46 2.808 1_556 S
C50 C60 1.497 . S
C50 O68 1.248 1_556 S
C50 O69 1.260 . S
O51 Tb45 2.459 1_554 S
O51 C54 1.260 . S
O52 Tb46 2.288 . S
O52 C58 1.257 . S
O53 Tb45 2.301 . S
O53 C58 1.237 1_556 S
C54 C38 1.497 . S
C54 Tb45 2.808 1_554 S
C54 O49 1.248 1_554 S
C54 O51 1.260 . S
C55 O56 1.255 . S
C55 O59 1.255 . S
O56 C55 1.255 . S
C57 O44 1.266 . S
C57 O48 1.224 1_556 S
C58 O52 1.257 . S
C58 O53 1.237 1_554 S
O59 Tb46 2.303 . S
O59 C55 1.255 . S
C60 C50 1.497 . S
C60 C62 1.384 . S
C60 C63 1.386 . S
C61 C62 1.402 . S
C61 C65 1.392 . S
C62 C60 1.384 . S
C62 C61 1.402 . S
C62 H73 0.930 . S
C63 C60 1.386 . S
C63 C64 1.393 . S
C63 H74 0.932 . S
C64 C63 1.393 . S
C64 C65 1.387 . S
C65 C61 1.392 . S
C65 C64 1.387 . S
C65 H75 0.930 1_655 S
C66 O47 1.255 . S
C66 O67 1.255 . S
O67 C66 1.255 . S
O68 Tb46 2.430 . S
O68 C50 1.248 1_554 S
O69 Tb46 2.459 1_556 S
O69 C50 1.260 . S
H70 C39 0.932 . S
H71 C41 0.930 . S
H72 C43 0.930 . S
H73 C62 0.930 . S
H74 C63 0.932 . S
H75 C65 0.930 1_455 S
C76 C77 1.386 . S
C76 C81 1.384 . S
C76 C92 1.497 . S
C77 C76 1.386 . S
C77 C78 1.393 . S
C77 H108 0.932 . S
C78 C77 1.393 . S
C78 C79 1.387 . S
C79 C78 1.387 . S
C79 C80 1.392 . S
C79 H109 0.930 1_455 S
C80 C79 1.392 . S
C80 C81 1.402 . S
C81 C76 1.384 . S
C81 C80 1.402 . S
C81 H110 0.930 . S
O82 Tb83 2.288 . S
O82 C95 1.257 . S
Tb83 O82 2.288 . S
Tb83 O85 2.303 . S
Tb83 O87 2.430 . S
Tb83 O89 2.459 . S
Tb83 O91 2.301 . S
Tb83 C92 2.808 . S
Tb84 O86 2.301 . S
Tb84 C88 2.808 . S
Tb84 O90 2.288 . S
Tb84 O97 2.303 . S
Tb84 O106 2.430 . S
Tb84 O107 2.459 . S
O85 Tb83 2.303 . S
O85 C104 1.255 . S
O86 Tb84 2.301 . S
O86 C95 1.237 . S
O87 Tb83 2.430 . S
O87 C92 1.248 . S
C88 Tb84 2.808 . S
C88 C98 1.497 . S
C88 O106 1.248 . S
C88 O107 1.260 . S
O89 Tb83 2.459 . S
O89 C92 1.260 . S
O90 Tb84 2.288 . S
O90 C96 1.257 . S
O91 Tb83 2.301 . S
O91 C96 1.237 . S
C92 C76 1.497 . S
C92 Tb83 2.808 . S
C92 O87 1.248 . S
C92 O89 1.260 . S
C93 O94 1.255 . S
C93 O97 1.255 . S
O94 C93 1.255 . S
C95 O82 1.257 . S
C95 O86 1.237 . S
C96 O90 1.257 . S
C96 O91 1.237 . S
O97 Tb84 2.303 . S
O97 C93 1.255 . S
C98 C88 1.497 . S
C98 C100 1.384 . S
C98 C101 1.386 . S
C99 C100 1.402 . S
C99 C103 1.392 . S
C100 C98 1.384 . S
C100 C99 1.402 . S
C100 H111 0.930 . S
C101 C98 1.386 . S
C101 C102 1.393 . S
C101 H112 0.932 . S
C102 C101 1.393 . S
C102 C103 1.387 . S
C103 C99 1.392 . S
C103 C102 1.387 . S
C103 H113 0.930 . S
C104 O85 1.255 . S
C104 O105 1.255 . S
O105 C104 1.255 . S
O106 Tb84 2.430 . S
O106 C88 1.248 . S
O107 Tb84 2.459 . S
O107 C88 1.260 . S
H108 C77 0.932 . S
H109 C79 0.930 1_655 S
H110 C81 0.930 . S
H111 C100 0.930 . S
H112 C101 0.932 . S
H113 C103 0.930 . S
C114 C115 1.386 . S
C114 C119 1.384 . S
C114 C130 1.497 . S
C115 C114 1.386 . S
C115 C116 1.393 . S
C115 H146 0.932 . S
C116 C115 1.393 . S
C116 C117 1.387 . S
C117 C116 1.387 . S
C117 C118 1.392 . S
C117 H147 0.930 . S
C118 C117 1.392 . S
C118 C119 1.402 . S
C119 C114 1.384 . S
C119 C118 1.402 . S
C119 H148 0.930 . S
O120 Tb121 2.288 . S
O120 C133 1.257 . S
Tb121 O120 2.288 . S
Tb121 O123 2.303 . S
Tb121 O125 2.430 . S
Tb121 O127 2.459 . S
Tb121 O129 2.301 . S
Tb121 C130 2.808 . S
Tb122 O124 2.301 . S
Tb122 C126 2.808 . S
Tb122 O128 2.288 . S
Tb122 O135 2.303 . S
Tb122 O144 2.430 . S
Tb122 O145 2.459 . S
O123 Tb121 2.303 . S
O123 C142 1.255 . S
O124 Tb122 2.301 . S
O124 C133 1.237 . S
O125 Tb121 2.430 . S
O125 C130 1.248 . S
C126 Tb122 2.808 . S
C126 C136 1.497 . S
C126 O144 1.248 . S
C126 O145 1.260 . S
O127 Tb121 2.459 . S
O127 C130 1.260 . S
O128 Tb122 2.288 . S
O128 C134 1.257 . S
O129 Tb121 2.301 . S
O129 C134 1.237 . S
C130 C114 1.497 . S
C130 Tb121 2.808 . S
C130 O125 1.248 . S
C130 O127 1.260 . S
C131 O132 1.255 . S
C131 O135 1.255 . S
O132 C131 1.255 . S
C133 O120 1.257 . S
C133 O124 1.237 . S
C134 O128 1.257 . S
C134 O129 1.237 . S
O135 Tb122 2.303 . S
O135 C131 1.255 . S
C136 C126 1.497 . S
C136 C138 1.384 . S
C136 C139 1.386 . S
C137 C138 1.402 . S
C137 C141 1.392 . S
C138 C136 1.384 . S
C138 C137 1.402 . S
C138 H149 0.930 . S
C139 C136 1.386 . S
C139 C140 1.393 . S
C139 H150 0.932 . S
C140 C139 1.393 . S
C140 C141 1.387 . S
C141 C137 1.392 . S
C141 C140 1.387 . S
C141 H151 0.930 1_655 S
C142 O123 1.255 . S
C142 O143 1.255 . S
O143 C142 1.255 . S
O144 Tb122 2.430 . S
O144 C126 1.248 . S
O145 Tb122 2.459 . S
O145 C126 1.260 . S
H146 C115 0.932 . S
H147 C117 0.930 . S
H148 C119 0.930 . S
H149 C138 0.930 . S
H150 C139 0.932 . S
H151 C141 0.930 1_455 S
C152 C153 1.349 . S
C152 C154 1.327 . S
C152 H177 0.950 . S
C153 C152 1.349 . S
C153 C169 1.349 . S
C154 C152 1.327 . S
C154 C173 1.429 . S
C154 H178 0.950 . S
C155 C172 1.574 . S
C155 C174 1.368 1_554 S
C155 H179 0.949 . S
H156 C160 0.949 . S
C157 C158 1.349 . S
C157 C159 1.327 . S
C157 H180 0.950 . S
C158 C157 1.349 . S
C158 C170 1.349 . S
C159 C157 1.327 . S
C159 C175 1.429 . S
C159 H181 0.950 . S
C160 H156 0.949 . S
C160 C168 1.574 . S
C160 C176 1.368 1_556 S
H161 C169 0.950 . S
H162 C167 0.950 1_554 S
H163 C168 0.949 . S
H164 C170 0.950 . S
H165 C171 0.950 1_556 S
H166 C172 0.949 . S
C167 H162 0.950 1_556 S
C167 C169 1.327 . S
C167 C173 1.429 . S
C168 C160 1.574 . S
C168 H163 0.949 . S
C168 C174 1.368 . S
C169 C153 1.349 . S
C169 H161 0.950 . S
C169 C167 1.327 . S
C170 C158 1.349 . S
C170 H164 0.950 . S
C170 C171 1.327 . S
C171 H165 0.950 1_554 S
C171 C170 1.327 . S
C171 C175 1.429 . S
C172 C155 1.574 . S
C172 H166 0.949 . S
C172 C176 1.368 . S
C173 C154 1.429 . S
C173 C167 1.429 . S
C173 C174 1.523 . S
C174 C155 1.368 1_556 S
C174 C168 1.368 . S
C174 C173 1.523 . S
C175 C159 1.429 . S
C175 C171 1.429 . S
C175 C176 1.523 . S
C176 C160 1.368 1_554 S
C176 C172 1.368 . S
C176 C175 1.523 . S
H177 C152 0.950 . S
H178 C154 0.950 . S
H179 C155 0.949 . S
H180 C157 0.950 . S
H181 C159 0.950 . S
C182 C183 1.349 . S
C182 C184 1.327 . S
C182 H207 0.950 . S
C183 C182 1.349 . S
C183 C199 1.349 . S
C184 C182 1.327 . S
C184 C203 1.429 . S
C184 H208 0.950 . S
C185 C202 1.574 . S
C185 C204 1.368 1_554 S
C185 H209 0.949 . S
H186 C190 0.949 . S
C187 C188 1.349 . S
C187 C189 1.327 . S
C187 H210 0.950 . S
C188 C187 1.349 . S
C188 C200 1.349 . S
C189 C187 1.327 . S
C189 C205 1.429 . S
C189 H211 0.950 . S
C190 H186 0.949 . S
C190 C198 1.574 . S
C190 C206 1.368 1_556 S
H191 C199 0.950 . S
H192 C197 0.950 . S
H193 C198 0.949 . S
H194 C200 0.950 . S
H195 C201 0.950 . S
H196 C202 0.949 . S
C197 H192 0.950 . S
C197 C199 1.327 . S
C197 C203 1.429 . S
C198 C190 1.574 . S
C198 H193 0.949 . S
C198 C204 1.368 . S
C199 C183 1.349 . S
C199 H191 0.950 . S
C199 C197 1.327 . S
C200 C188 1.349 . S
C200 H194 0.950 . S
C200 C201 1.327 . S
C201 H195 0.950 . S
C201 C200 1.327 . S
C201 C205 1.429 . S
C202 C185 1.574 . S
C202 H196 0.949 . S
C202 C206 1.368 . S
C203 C184 1.429 . S
C203 C197 1.429 . S
C203 C204 1.523 . S
C204 C185 1.368 1_556 S
C204 C198 1.368 . S
C204 C203 1.523 . S
C205 C189 1.429 . S
C205 C201 1.429 . S
C205 C206 1.523 . S
C206 C190 1.368 1_554 S
C206 C202 1.368 . S
C206 C205 1.523 . S
H207 C182 0.950 . S
H208 C184 0.950 . S
H209 C185 0.949 . S
H210 C187 0.950 . S
H211 C189 0.950 . S
C212 C213 1.349 . S
C212 C214 1.327 . S
C212 H237 0.950 . S
C213 C212 1.349 . S
C213 C229 1.349 . S
C214 C212 1.327 . S
C214 C233 1.429 . S
C214 H238 0.950 . S
C215 C232 1.574 . S
C215 C234 1.368 . S
C215 H239 0.949 . S
H216 C220 0.949 . S
C217 C218 1.349 . S
C217 C219 1.327 . S
C217 H240 0.950 . S
C218 C217 1.349 . S
C218 C230 1.349 . S
C219 C217 1.327 . S
C219 C235 1.429 . S
C219 H241 0.950 . S
C220 H216 0.949 . S
C220 C228 1.574 . S
C220 C236 1.368 . S
H221 C229 0.950 . S
H222 C227 0.950 . S
H223 C228 0.949 . S
H224 C230 0.950 . S
H225 C231 0.950 . S
H226 C232 0.949 . S
C227 H222 0.950 . S
C227 C229 1.327 . S
C227 C233 1.429 . S
C228 C220 1.574 . S
C228 H223 0.949 . S
C228 C234 1.368 . S
C229 C213 1.349 . S
C229 H221 0.950 . S
C229 C227 1.327 . S
C230 C218 1.349 . S
C230 H224 0.950 . S
C230 C231 1.327 . S
C231 H225 0.950 . S
C231 C230 1.327 . S
C231 C235 1.429 . S
C232 C215 1.574 . S
C232 H226 0.949 . S
C232 C236 1.368 . S
C233 C214 1.429 . S
C233 C227 1.429 . S
C233 C234 1.523 . S
C234 C215 1.368 . S
C234 C228 1.368 . S
C234 C233 1.523 . S
C235 C219 1.429 . S
C235 C231 1.429 . S
C235 C236 1.523 . S
C236 C220 1.368 . S
C236 C232 1.368 . S
C236 C235 1.523 . S
H237 C212 0.950 . S
H238 C214 0.950 . S
H239 C215 0.949 . S
H240 C217 0.950 . S
H241 C219 0.950 . S
C242 C243 1.349 . S
C242 C244 1.327 . S
C242 H267 0.950 . S
C243 C242 1.349 . S
C243 C259 1.349 . S
C244 C242 1.327 . S
C244 C263 1.429 . S
C244 H268 0.950 . S
C245 C262 1.574 . S
C245 C264 1.368 . S
C245 H269 0.949 . S
H246 C250 0.949 . S
C247 C248 1.349 . S
C247 C249 1.327 . S
C247 H270 0.950 . S
C248 C247 1.349 . S
C248 C260 1.349 . S
C249 C247 1.327 . S
C249 C265 1.429 . S
C249 H271 0.950 . S
C250 H246 0.949 . S
C250 C258 1.574 . S
C250 C266 1.368 . S
H251 C259 0.950 . S
H252 C257 0.950 . S
H253 C258 0.949 . S
H254 C260 0.950 . S
H255 C261 0.950 . S
H256 C262 0.949 . S
C257 H252 0.950 . S
C257 C259 1.327 . S
C257 C263 1.429 . S
C258 C250 1.574 . S
C258 H253 0.949 . S
C258 C264 1.368 . S
C259 C243 1.349 . S
C259 H251 0.950 . S
C259 C257 1.327 . S
C260 C248 1.349 . S
C260 H254 0.950 . S
C260 C261 1.327 . S
C261 H255 0.950 . S
C261 C260 1.327 . S
C261 C265 1.429 . S
C262 C245 1.574 . S
C262 H256 0.949 . S
C262 C266 1.368 . S
C263 C244 1.429 . S
C263 C257 1.429 . S
C263 C264 1.523 . S
C264 C245 1.368 . S
C264 C258 1.368 . S
C264 C263 1.523 . S
C265 C249 1.429 . S
C265 C261 1.429 . S
C265 C266 1.523 . S
C266 C250 1.368 . S
C266 C262 1.368 . S
C266 C265 1.523 . S
H267 C242 0.950 . S
H268 C244 0.950 . S
H269 C245 0.949 . S
H270 C247 0.950 . S
H271 C249 0.950 . S
C272 C273 1.349 . S
C272 C274 1.327 . S
C272 H297 0.950 . S
C273 C272 1.349 . S
C273 C289 1.349 1_556 S
C274 C272 1.327 . S
C274 C293 1.439 . S
C274 H298 0.950 . S
C275 C292 1.574 . S
C275 C294 1.371 . S
C275 H299 0.949 . S
H276 C280 0.949 . S
C277 C278 1.349 . S
C277 C279 1.327 . S
C277 H300 0.950 . S
C278 C277 1.349 . S
C278 C290 1.349 1_554 S
C279 C277 1.327 . S
C279 C295 1.429 . S
C279 H301 0.950 . S
C280 H276 0.949 . S
C280 C288 1.574 . S
C280 C296 1.368 1_556 S
H281 C289 0.950 . S
H282 C287 0.950 . S
H283 C288 0.949 . S
H284 C290 0.950 . S
H285 C291 0.950 . S
H286 C292 0.949 . S
C287 H282 0.950 . S
C287 C289 1.327 . S
C287 C293 1.416 1_554 S
C288 C280 1.574 . S
C288 H283 0.949 . S
C288 C294 1.366 1_556 S
C289 C273 1.349 1_554 S
C289 H281 0.950 . S
C289 C287 1.327 . S
C290 C278 1.349 1_556 S
C290 H284 0.950 . S
C290 C291 1.327 . S
C291 H285 0.950 . S
C291 C290 1.327 . S
C291 C295 1.429 1_556 S
C292 C275 1.574 . S
C292 H286 0.949 . S
C292 C296 1.368 . S
C293 C274 1.439 . S
C293 C287 1.416 1_556 S
C293 C294 1.525 1_556 S
C294 C275 1.371 . S
C294 C288 1.366 1_554 S
C294 C293 1.525 1_554 S
C295 C279 1.429 . S
C295 C291 1.429 1_554 S
C295 C296 1.523 . S
C296 C280 1.368 1_554 S
C296 C292 1.368 . S
C296 C295 1.523 . S
H297 C272 0.950 . S
H298 C274 0.950 . S
H299 C275 0.949 . S
H300 C277 0.950 . S
H301 C279 0.950 . S
C302 C303 1.349 . S
C302 C304 1.327 . S
C302 H327 0.950 . S
C303 C302 1.349 . S
C303 C319 1.349 . S
C304 C302 1.327 . S
C304 C323 1.429 . S
C304 H328 0.950 . S
C305 C322 1.574 . S
C305 C324 1.368 . S
C305 H329 0.949 . S
H306 C310 0.949 . S
C307 C308 1.349 . S
C307 C309 1.327 . S
C307 H330 0.950 . S
C308 C307 1.349 . S
C308 C320 1.349 . S
C309 C307 1.327 . S
C309 C325 1.429 . S
C309 H331 0.950 . S
C310 H306 0.949 . S
C310 C318 1.574 . S
C310 C326 1.368 . S
H311 C319 0.950 . S
H312 C317 0.950 . S
H313 C318 0.949 . S
H314 C320 0.950 . S
H315 C321 0.950 . S
H316 C322 0.949 . S
C317 H312 0.950 . S
C317 C319 1.327 . S
C317 C323 1.429 . S
C318 C310 1.574 . S
C318 H313 0.949 . S
C318 C324 1.368 . S
C319 C303 1.349 . S
C319 H311 0.950 . S
C319 C317 1.327 . S
C320 C308 1.349 . S
C320 H314 0.950 . S
C320 C321 1.327 . S
C321 H315 0.950 . S
C321 C320 1.327 . S
C321 C325 1.429 . S
C322 C305 1.574 . S
C322 H316 0.949 . S
C322 C326 1.368 . S
C323 C304 1.429 . S
C323 C317 1.429 . S
C323 C324 1.523 . S
C324 C305 1.368 . S
C324 C318 1.368 . S
C324 C323 1.523 . S
C325 C309 1.429 . S
C325 C321 1.429 . S
C325 C326 1.523 . S
C326 C310 1.368 . S
C326 C322 1.368 . S
C326 C325 1.523 . S
H327 C302 0.950 . S
H328 C304 0.950 . S
H329 C305 0.949 . S
H330 C307 0.950 . S
H331 C309 0.950 . S
C332 C333 1.349 1_554 S
C332 C334 1.327 . S
C332 H357 0.950 . S
C333 C332 1.349 1_556 S
C333 C349 1.349 . S
C334 C332 1.327 . S
C334 C353 1.415 1_554 S
C334 H358 0.950 . S
C335 C352 1.574 1_445 S
C335 C354 1.365 1_556 S
C335 H359 0.949 . S
H336 C340 0.949 . S
C337 C338 1.349 1_556 S
C337 C339 1.327 . S
C337 H360 0.950 . S
C338 C337 1.349 1_554 S
C338 C350 1.349 . S
C339 C337 1.327 . S
C339 C355 1.429 1_556 S
C339 H361 0.950 . S
C340 H336 0.949 . S
C340 C348 1.574 1_665 S
C340 C356 1.368 . S
H341 C349 0.950 . S
H342 C347 0.950 . S
H343 C348 0.949 . S
H344 C350 0.950 . S
H345 C351 0.950 . S
H346 C352 0.949 . S
C347 H342 0.950 . S
C347 C349 1.327 . S
C347 C353 1.441 . S
C348 C340 1.574 1_445 S
C348 H343 0.949 . S
C348 C354 1.371 . S
C349 C333 1.349 . S
C349 H341 0.950 . S
C349 C347 1.327 . S
C350 C338 1.349 . S
C350 H344 0.950 . S
C350 C351 1.327 . S
C351 H345 0.950 . S
C351 C350 1.327 . S
C351 C355 1.429 . S
C352 C335 1.574 1_665 S
C352 H346 0.949 . S
C352 C356 1.368 1_556 S
C353 C334 1.415 1_556 S
C353 C347 1.441 . S
C353 C354 1.525 1_556 S
C354 C335 1.365 1_554 S
C354 C348 1.371 . S
C354 C353 1.525 1_554 S
C355 C339 1.429 1_554 S
C355 C351 1.429 . S
C355 C356 1.523 . S
C356 C340 1.368 . S
C356 C352 1.368 1_554 S
C356 C355 1.523 . S
H357 C332 0.950 . S
H358 C334 0.950 . S
H359 C335 0.949 . S
H360 C337 0.950 . S
H361 C339 0.950 . S
C362 C363 1.349 . S
C362 C364 1.327 . S
C362 H387 0.950 . S
C363 C362 1.349 . S
C363 C379 1.349 . S
C364 C362 1.327 . S
C364 C383 1.429 . S
C364 H388 0.950 . S
C365 C382 1.574 . S
C365 C384 1.368 1_565 S
C365 H389 0.949 . S
H366 C370 0.949 . S
C367 C368 1.349 . S
C367 C369 1.327 . S
C367 H390 0.950 . S
C368 C367 1.349 . S
C368 C380 1.349 . S
C369 C367 1.327 . S
C369 C385 1.429 . S
C369 H391 0.950 . S
C370 H366 0.949 . S
C370 C378 1.574 . S
C370 C386 1.368 1_545 S
H371 C379 0.950 . S
H372 C377 0.950 . S
H373 C378 0.949 . S
H374 C380 0.950 . S
H375 C381 0.950 . S
H376 C382 0.949 . S
C377 H372 0.950 . S
C377 C379 1.327 . S
C377 C383 1.429 . S
C378 C370 1.574 . S
C378 H373 0.949 . S
C378 C384 1.368 1_455 S
C379 C363 1.349 . S
C379 H371 0.950 . S
C379 C377 1.327 . S
C380 C368 1.349 . S
C380 H374 0.950 . S
C380 C381 1.327 . S
C381 H375 0.950 . S
C381 C380 1.327 . S
C381 C385 1.429 . S
C382 C365 1.574 . S
C382 H376 0.949 . S
C382 C386 1.368 1_655 S
C383 C364 1.429 . S
C383 C377 1.429 . S
C383 C384 1.523 . S
C384 C365 1.368 1_545 S
C384 C378 1.368 1_655 S
C384 C383 1.523 . S
C385 C369 1.429 . S
C385 C381 1.429 . S
C385 C386 1.523 . S
C386 C370 1.368 1_565 S
C386 C382 1.368 1_455 S
C386 C385 1.523 . S
H387 C362 0.950 . S
H388 C364 0.950 . S
H389 C365 0.949 . S
H390 C367 0.950 . S
H391 C369 0.950 . S
C392 C393 1.349 . S
C392 C394 1.327 . S
C392 H417 0.950 . S
C393 C392 1.349 . S
C393 C409 1.349 . S
C394 C392 1.327 . S
C394 C413 1.429 . S
C394 H418 0.950 . S
C395 C412 1.574 . S
C395 C414 1.368 . S
C395 H419 0.949 . S
H396 C400 0.949 . S
C397 C398 1.349 . S
C397 C399 1.327 . S
C397 H420 0.950 . S
C398 C397 1.349 . S
C398 C410 1.349 . S
C399 C397 1.327 . S
C399 C415 1.429 . S
C399 H421 0.950 . S
C400 H396 0.949 . S
C400 C408 1.574 . S
C400 C416 1.368 . S
H401 C409 0.950 . S
H402 C407 0.950 . S
H403 C408 0.949 . S
H404 C410 0.950 . S
H405 C411 0.950 . S
H406 C412 0.949 . S
C407 H402 0.950 . S
C407 C409 1.327 . S
C407 C413 1.429 . S
C408 C400 1.574 . S
C408 H403 0.949 . S
C408 C414 1.368 . S
C409 C393 1.349 . S
C409 H401 0.950 . S
C409 C407 1.327 . S
C410 C398 1.349 . S
C410 H404 0.950 . S
C410 C411 1.327 . S
C411 H405 0.950 . S
C411 C410 1.327 . S
C411 C415 1.429 . S
C412 C395 1.574 . S
C412 H406 0.949 . S
C412 C416 1.368 . S
C413 C394 1.429 . S
C413 C407 1.429 . S
C413 C414 1.523 . S
C414 C395 1.368 . S
C414 C408 1.368 . S
C414 C413 1.523 . S
C415 C399 1.429 . S
C415 C411 1.429 . S
C415 C416 1.523 . S
C416 C400 1.368 . S
C416 C412 1.368 . S
C416 C415 1.523 . S
H417 C392 0.950 . S
H418 C394 0.950 . S
H419 C395 0.949 . S
H420 C397 0.950 . S
H421 C399 0.950 . S
C422 C423 1.349 . S
C422 C424 1.327 . S
C422 H447 0.950 . S
C423 C422 1.349 . S
C423 C439 1.349 . S
C424 C422 1.327 . S
C424 C443 1.429 . S
C424 H448 0.950 . S
C425 C442 1.574 . S
C425 C444 1.368 . S
C425 H449 0.949 . S
H426 C430 0.949 . S
C427 C428 1.349 . S
C427 C429 1.327 . S
C427 H450 0.950 . S
C428 C427 1.349 . S
C428 C440 1.349 . S
C429 C427 1.327 . S
C429 C445 1.429 . S
C429 H451 0.950 . S
C430 H426 0.949 . S
C430 C438 1.574 . S
C430 C446 1.368 . S
H431 C439 0.950 . S
H432 C437 0.950 . S
H433 C438 0.949 . S
H434 C440 0.950 . S
H435 C441 0.950 . S
H436 C442 0.949 . S
C437 H432 0.950 . S
C437 C439 1.327 . S
C437 C443 1.429 . S
C438 C430 1.574 . S
C438 H433 0.949 . S
C438 C444 1.368 . S
C439 C423 1.349 . S
C439 H431 0.950 . S
C439 C437 1.327 . S
C440 C428 1.349 . S
C440 H434 0.950 . S
C440 C441 1.327 . S
C441 H435 0.950 . S
C441 C440 1.327 . S
C441 C445 1.429 . S
C442 C425 1.574 . S
C442 H436 0.949 . S
C442 C446 1.368 . S
C443 C424 1.429 . S
C443 C437 1.429 . S
C443 C444 1.523 . S
C444 C425 1.368 . S
C444 C438 1.368 . S
C444 C443 1.523 . S
C445 C429 1.429 . S
C445 C441 1.429 . S
C445 C446 1.523 . S
C446 C430 1.368 . S
C446 C442 1.368 . S
C446 C445 1.523 . S
H447 C422 0.950 . S
H448 C424 0.950 . S
H449 C425 0.949 . S
H450 C427 0.950 . S
H451 C429 0.950 . S
C452 C453 1.349 . S
C452 C454 1.327 . S
C452 H477 0.950 . S
C453 C452 1.349 . S
C453 C469 1.349 . S
C454 C452 1.327 . S
C454 C473 1.429 . S
C454 H478 0.950 . S
C455 C472 1.574 . S
C455 C474 1.368 . S
C455 H479 0.949 . S
H456 C460 0.949 . S
C457 C458 1.349 . S
C457 C459 1.327 . S
C457 H480 0.950 . S
C458 C457 1.349 . S
C458 C470 1.349 . S
C459 C457 1.327 . S
C459 C475 1.429 . S
C459 H481 0.950 . S
C460 H456 0.949 . S
C460 C468 1.574 . S
C460 C476 1.368 . S
H461 C469 0.950 . S
H462 C467 0.950 . S
H463 C468 0.949 . S
H464 C470 0.950 . S
H465 C471 0.950 . S
H466 C472 0.949 . S
C467 H462 0.950 . S
C467 C469 1.327 . S
C467 C473 1.429 . S
C468 C460 1.574 . S
C468 H463 0.949 . S
C468 C474 1.368 . S
C469 C453 1.349 . S
C469 H461 0.950 . S
C469 C467 1.327 . S
C470 C458 1.349 . S
C470 H464 0.950 . S
C470 C471 1.327 . S
C471 H465 0.950 . S
C471 C470 1.327 . S
C471 C475 1.429 . S
C472 C455 1.574 . S
C472 H466 0.949 . S
C472 C476 1.368 . S
C473 C454 1.429 . S
C473 C467 1.429 . S
C473 C474 1.523 . S
C474 C455 1.368 . S
C474 C468 1.368 . S
C474 C473 1.523 . S
C475 C459 1.429 . S
C475 C471 1.429 . S
C475 C476 1.523 . S
C476 C460 1.368 . S
C476 C472 1.368 . S
C476 C475 1.523 . S
H477 C452 0.950 . S
H478 C454 0.950 . S
H479 C455 0.949 . S
H480 C457 0.950 . S
H481 C459 0.950 . S
C482 C483 1.349 . S
C482 C484 1.327 . S
C482 H507 0.950 . S
C483 C482 1.349 . S
C483 C499 1.349 . S
C484 C482 1.327 . S
C484 C503 1.429 . S
C484 H508 0.950 . S
C485 C502 1.574 . S
C485 C504 1.368 . S
C485 H509 0.949 . S
H486 C490 0.949 . S
C487 C488 1.349 . S
C487 C489 1.327 . S
C487 H510 0.950 . S
C488 C487 1.349 . S
C488 C500 1.349 . S
C489 C487 1.327 . S
C489 C505 1.429 . S
C489 H511 0.950 . S
C490 H486 0.949 . S
C490 C498 1.574 . S
C490 C506 1.368 . S
H491 C499 0.950 . S
H492 C497 0.950 . S
H493 C498 0.949 . S
H494 C500 0.950 . S
H495 C501 0.950 . S
H496 C502 0.949 . S
C497 H492 0.950 . S
C497 C499 1.327 . S
C497 C503 1.429 . S
C498 C490 1.574 . S
C498 H493 0.949 . S
C498 C504 1.368 . S
C499 C483 1.349 . S
C499 H491 0.950 . S
C499 C497 1.327 . S
C500 C488 1.349 . S
C500 H494 0.950 . S
C500 C501 1.327 . S
C501 H495 0.950 . S
C501 C500 1.327 . S
C501 C505 1.429 . S
C502 C485 1.574 . S
C502 H496 0.949 . S
C502 C506 1.368 . S
C503 C484 1.429 . S
C503 C497 1.429 . S
C503 C504 1.523 . S
C504 C485 1.368 . S
C504 C498 1.368 . S
C504 C503 1.523 . S
C505 C489 1.429 . S
C505 C501 1.429 . S
C505 C506 1.523 . S
C506 C490 1.368 . S
C506 C502 1.368 . S
C506 C505 1.523 . S
H507 C482 0.950 . S
H508 C484 0.950 . S
H509 C485 0.949 . S
H510 C487 0.950 . S
H511 C489 0.950 . S
C512 C513 1.349 . S
C512 C514 1.327 . S
C512 H537 0.950 . S
C513 C512 1.349 . S
C513 C529 1.349 . S
C514 C512 1.327 . S
C514 C533 1.429 . S
C514 H538 0.950 . S
C515 C532 1.574 . S
C515 C534 1.368 . S
C515 H539 0.949 . S
H516 C520 0.949 . S
C517 C518 1.349 . S
C517 C519 1.327 . S
C517 H540 0.950 . S
C518 C517 1.349 . S
C518 C530 1.349 . S
C519 C517 1.327 . S
C519 C535 1.429 . S
C519 H541 0.950 . S
C520 H516 0.949 . S
C520 C528 1.574 1_655 S
C520 C536 1.368 . S
H521 C529 0.950 . S
H522 C527 0.950 1_655 S
H523 C528 0.949 . S
H524 C530 0.950 . S
H525 C531 0.950 . S
H526 C532 0.949 . S
C527 H522 0.950 1_455 S
C527 C529 1.327 . S
C527 C533 1.429 . S
C528 C520 1.574 1_455 S
C528 H523 0.949 . S
C528 C534 1.368 1_455 S
C529 C513 1.349 . S
C529 H521 0.950 . S
C529 C527 1.327 . S
C530 C518 1.349 . S
C530 H524 0.950 . S
C530 C531 1.327 . S
C531 H525 0.950 . S
C531 C530 1.327 . S
C531 C535 1.429 . S
C532 C515 1.574 . S
C532 H526 0.949 . S
C532 C536 1.368 . S
C533 C514 1.429 . S
C533 C527 1.429 . S
C533 C534 1.523 1_455 S
C534 C515 1.368 . S
C534 C528 1.368 1_655 S
C534 C533 1.523 1_655 S
C535 C519 1.429 . S
C535 C531 1.429 . S
C535 C536 1.523 . S
C536 C520 1.368 . S
C536 C532 1.368 . S
C536 C535 1.523 . S
H537 C512 0.950 . S
H538 C514 0.950 . S
H539 C515 0.949 . S
H540 C517 0.950 . S
H541 C519 0.950 . S
C542 C543 1.349 . S
C542 C544 1.327 . S
C542 H567 0.950 . S
C543 C542 1.349 . S
C543 C559 1.349 . S
C544 C542 1.327 . S
C544 C563 1.429 . S
C544 H568 0.950 . S
C545 C562 1.574 . S
C545 C564 1.368 . S
C545 H569 0.949 . S
H546 C550 0.949 . S
C547 C548 1.349 . S
C547 C549 1.327 . S
C547 H570 0.950 . S
C548 C547 1.349 . S
C548 C560 1.349 . S
C549 C547 1.327 . S
C549 C565 1.429 . S
C549 H571 0.950 1_455 S
C550 H546 0.949 . S
C550 C558 1.574 1_455 S
C550 C566 1.368 1_455 S
H551 C559 0.950 . S
H552 C557 0.950 . S
H553 C558 0.949 . S
H554 C560 0.950 . S
H555 C561 0.950 . S
H556 C562 0.949 . S
C557 H552 0.950 . S
C557 C559 1.327 . S
C557 C563 1.429 . S
C558 C550 1.574 1_655 S
C558 H553 0.949 . S
C558 C564 1.368 . S
C559 C543 1.349 . S
C559 H551 0.950 . S
C559 C557 1.327 . S
C560 C548 1.349 . S
C560 H554 0.950 . S
C560 C561 1.327 . S
C561 H555 0.950 . S
C561 C560 1.327 . S
C561 C565 1.429 . S
C562 C545 1.574 . S
C562 H556 0.949 . S
C562 C566 1.368 . S
C563 C544 1.429 . S
C563 C557 1.429 . S
C563 C564 1.523 . S
C564 C545 1.368 . S
C564 C558 1.368 . S
C564 C563 1.523 . S
C565 C549 1.429 . S
C565 C561 1.429 . S
C565 C566 1.523 1_455 S
C566 C550 1.368 1_655 S
C566 C562 1.368 . S
C566 C565 1.523 1_655 S
H567 C542 0.950 . S
H568 C544 0.950 . S
H569 C545 0.949 . S
H570 C547 0.950 . S
H571 C549 0.950 1_655 S
C572 C573 1.349 . S
C572 C574 1.327 . S
C572 H597 0.950 . S
C573 C572 1.349 . S
C573 C589 1.349 . S
C574 C572 1.327 . S
C574 C593 1.429 . S
C574 H598 0.950 . S
C575 C592 1.574 1_455 S
C575 C594 1.368 . S
C575 H599 0.949 . S
H576 C580 0.949 . S
C577 C578 1.349 . S
C577 C579 1.327 . S
C577 H600 0.950 . S
C578 C577 1.349 . S
C578 C590 1.349 . S
C579 C577 1.327 . S
C579 C595 1.429 . S
C579 H601 0.950 . S
C580 H576 0.949 . S
C580 C588 1.574 . S
C580 C596 1.368 . S
H581 C589 0.950 . S
H582 C587 0.950 . S
H583 C588 0.949 . S
H584 C590 0.950 . S
H585 C591 0.950 1_455 S
H586 C592 0.949 . S
C587 H582 0.950 . S
C587 C589 1.327 . S
C587 C593 1.429 . S
C588 C580 1.574 . S
C588 H583 0.949 . S
C588 C594 1.368 . S
C589 C573 1.349 . S
C589 H581 0.950 . S
C589 C587 1.327 . S
C590 C578 1.349 . S
C590 H584 0.950 . S
C590 C591 1.327 . S
C591 H585 0.950 1_655 S
C591 C590 1.327 . S
C591 C595 1.429 . S
C592 C575 1.574 1_655 S
C592 H586 0.949 . S
C592 C596 1.368 1_655 S
C593 C574 1.429 . S
C593 C587 1.429 . S
C593 C594 1.523 . S
C594 C575 1.368 . S
C594 C588 1.368 . S
C594 C593 1.523 . S
C595 C579 1.429 . S
C595 C591 1.429 . S
C595 C596 1.523 1_655 S
C596 C580 1.368 . S
C596 C592 1.368 1_455 S
C596 C595 1.523 1_455 S
H597 C572 0.950 . S
H598 C574 0.950 . S
H599 C575 0.949 . S
H600 C577 0.950 . S
H601 C579 0.950 . S
C602 C603 1.349 . S
C602 C604 1.327 . S
C602 H627 0.950 . S
C603 C602 1.349 . S
C603 C619 1.349 . S
C604 C602 1.327 . S
C604 C623 1.429 . S
C604 H628 0.950 . S
C605 C622 1.574 . S
C605 C624 1.368 . S
C605 H629 0.949 . S
H606 C610 0.949 . S
C607 C608 1.349 . S
C607 C609 1.327 . S
C607 H630 0.950 . S
C608 C607 1.349 . S
C608 C620 1.349 . S
C609 C607 1.327 . S
C609 C625 1.429 . S
C609 H631 0.950 1_655 S
C610 H606 0.949 . S
C610 C618 1.574 1_655 S
C610 C626 1.368 1_655 S
H611 C619 0.950 . S
H612 C617 0.950 . S
H613 C618 0.949 . S
H614 C620 0.950 . S
H615 C621 0.950 . S
H616 C622 0.949 . S
C617 H612 0.950 . S
C617 C619 1.327 . S
C617 C623 1.429 . S
C618 C610 1.574 1_455 S
C618 H613 0.949 . S
C618 C624 1.368 . S
C619 C603 1.349 . S
C619 H611 0.950 . S
C619 C617 1.327 . S
C620 C608 1.349 . S
C620 H614 0.950 . S
C620 C621 1.327 . S
C621 H615 0.950 . S
C621 C620 1.327 . S
C621 C625 1.429 . S
C622 C605 1.574 . S
C622 H616 0.949 . S
C622 C626 1.368 . S
C623 C604 1.429 . S
C623 C617 1.429 . S
C623 C624 1.523 . S
C624 C605 1.368 . S
C624 C618 1.368 . S
C624 C623 1.523 . S
C625 C609 1.429 . S
C625 C621 1.429 . S
C625 C626 1.523 1_655 S
C626 C610 1.368 1_455 S
C626 C622 1.368 . S
C626 C625 1.523 1_455 S
H627 C602 0.950 . S
H628 C604 0.950 . S
H629 C605 0.949 . S
H630 C607 0.950 . S
H631 C609 0.950 1_455 S
C153 C26 1.855 . S
C158 C2 1.855 1_655 S
C183 C64 1.855 1_455 S
C188 C40 1.855 . S
C213 C102 1.855 . S
C218 C78 1.855 1_655 S
C243 C140 1.855 1_455 S
C248 C116 1.855 . S
C273 C57 1.582 . S
C278 C20 1.578 . S
C303 C133 1.578 . S
C308 C96 1.578 . S
C333 C19 1.582 . S
C338 C58 1.578 . S
C363 C134 1.578 . S
C368 C95 1.578 . S
C393 C118 1.088 . S
C398 C17 1.123 . S
C423 C42 1.088 . S
C428 C93 1.123 . S
C453 C99 1.088 . S
C458 C66 1.123 . S
C483 C23 1.088 . S
C488 C142 1.123 . S
C513 C80 1.088 . S
C518 C55 1.123 . S
C543 C131 1.123 . S
C548 C4 1.088 . S
C573 C28 1.123 . S
C578 C137 1.088 . S
C603 C104 1.123 . S
C608 C61 1.088 . S
