# Generated by pormake.
# Topology pcl, (4)-cn, num edge types: 1
# Building blocks:
#     Node 0, Type 0, BuildingBlock: CEKHIL_clean_sbu_0, # of connection points: 4
#     Node 1, Type 0, BuildingBlock: CEKHIL_clean_sbu_0, # of connection points: 4
#     Node 2, Type 0, BuildingBlock: CEKHIL_clean_sbu_0, # of connection points: 4
#     Node 3, Type 0, BuildingBlock: CEKHIL_clean_sbu_0, # of connection points: 4
#     Node 4, Type 0, BuildingBlock: CEKHIL_clean_sbu_0, # of connection points: 4
#     Node 5, Type 0, BuildingBlock: CEKHIL_clean_sbu_0, # of connection points: 4
#     Node 6, Type 0, BuildingBlock: CEKHIL_clean_sbu_0, # of connection points: 4
#     Node 7, Type 0, BuildingBlock: CEKHIL_clean_sbu_0, # of connection points: 4
#     Node 8, Type 0, BuildingBlock: CEKHIL_clean_sbu_0, # of connection points: 4
#     Node 9, Type 0, BuildingBlock: CEKHIL_clean_sbu_0, # of connection points: 4
#     Node 10, Type 0, BuildingBlock: CEKHIL_clean_sbu_0, # of connection points: 4
#     Node 11, Type 0, BuildingBlock: CEKHIL_clean_sbu_0, # of connection points: 4
#     Node 12, Type 0, BuildingBlock: CEKHIL_clean_sbu_0, # of connection points: 4
#     Node 13, Type 0, BuildingBlock: CEKHIL_clean_sbu_0, # of connection points: 4
#     Node 14, Type 0, BuildingBlock: CEKHIL_clean_sbu_0, # of connection points: 4
#     Node 15, Type 0, BuildingBlock: CEKHIL_clean_sbu_0, # of connection points: 4
#     Edge 16, Type (0, 0), BuildingBlock: UVAHIK_clean_linker_0, # of connection points: 2
#     Edge 17, Type (0, 0), BuildingBlock: UVAHIK_clean_linker_0, # of connection points: 2
#     Edge 18, Type (0, 0), BuildingBlock: UVAHIK_clean_linker_0, # of connection points: 2
#     Edge 19, Type (0, 0), BuildingBlock: UVAHIK_clean_linker_0, # of connection points: 2
#     Edge 20, Type (0, 0), BuildingBlock: UVAHIK_clean_linker_0, # of connection points: 2
#     Edge 21, Type (0, 0), BuildingBlock: UVAHIK_clean_linker_0, # of connection points: 2
#     Edge 22, Type (0, 0), BuildingBlock: UVAHIK_clean_linker_0, # of connection points: 2
#     Edge 23, Type (0, 0), BuildingBlock: UVAHIK_clean_linker_0, # of connection points: 2
#     Edge 24, Type (0, 0), BuildingBlock: UVAHIK_clean_linker_0, # of connection points: 2
#     Edge 25, Type (0, 0), BuildingBlock: UVAHIK_clean_linker_0, # of connection points: 2
#     Edge 26, Type (0, 0), BuildingBlock: UVAHIK_clean_linker_0, # of connection points: 2
#     Edge 27, Type (0, 0), BuildingBlock: UVAHIK_clean_linker_0, # of connection points: 2
#     Edge 28, Type (0, 0), BuildingBlock: UVAHIK_clean_linker_0, # of connection points: 2
#     Edge 29, Type (0, 0), BuildingBlock: UVAHIK_clean_linker_0, # of connection points: 2
#     Edge 30, Type (0, 0), BuildingBlock: UVAHIK_clean_linker_0, # of connection points: 2
#     Edge 31, Type (0, 0), BuildingBlock: UVAHIK_clean_linker_0, # of connection points: 2
#     Edge 32, Type (0, 0), BuildingBlock: UVAHIK_clean_linker_0, # of connection points: 2
#     Edge 33, Type (0, 0), BuildingBlock: UVAHIK_clean_linker_0, # of connection points: 2
#     Edge 34, Type (0, 0), BuildingBlock: UVAHIK_clean_linker_0, # of connection points: 2
#     Edge 35, Type (0, 0), BuildingBlock: UVAHIK_clean_linker_0, # of connection points: 2
#     Edge 36, Type (0, 0), BuildingBlock: UVAHIK_clean_linker_0, # of connection points: 2
#     Edge 37, Type (0, 0), BuildingBlock: UVAHIK_clean_linker_0, # of connection points: 2
#     Edge 38, Type (0, 0), BuildingBlock: UVAHIK_clean_linker_0, # of connection points: 2
#     Edge 39, Type (0, 0), BuildingBlock: UVAHIK_clean_linker_0, # of connection points: 2
#     Edge 40, Type (0, 0), BuildingBlock: UVAHIK_clean_linker_0, # of connection points: 2
#     Edge 41, Type (0, 0), BuildingBlock: UVAHIK_clean_linker_0, # of connection points: 2
#     Edge 42, Type (0, 0), BuildingBlock: UVAHIK_clean_linker_0, # of connection points: 2
#     Edge 43, Type (0, 0), BuildingBlock: UVAHIK_clean_linker_0, # of connection points: 2
#     Edge 44, Type (0, 0), BuildingBlock: UVAHIK_clean_linker_0, # of connection points: 2
#     Edge 45, Type (0, 0), BuildingBlock: UVAHIK_clean_linker_0, # of connection points: 2
#     Edge 46, Type (0, 0), BuildingBlock: UVAHIK_clean_linker_0, # of connection points: 2
#     Edge 47, Type (0, 0), BuildingBlock: UVAHIK_clean_linker_0, # of connection points: 2
# Relax obj value: 0.074
# Max RMSD: 0.055
# Mean RMSD: 0.053
data_MOF--net-pcl--node1-CEKHIL_clean_sbu_0--edge1-UVAHIK_clean_linker_0
_symmetry_space_group_name_H-M    P1
_symmetry_Int_Tables_number       1
_symmetry_cell_setting            triclinic
loop_
_symmetry_equiv_pos_as_xyz
'x, y, z'
_cell_length_a     67.969087
_cell_length_b     52.79481
_cell_length_c     55.350662
_cell_angle_alpha  90.0068
_cell_angle_beta   90.022157
_cell_angle_gamma 89.993677
loop_
_atom_site_label
_atom_site_type_symbol
_atom_site_fract_x
_atom_site_fract_y
_atom_site_fract_z
_atom_type_partial_charge
Co0 Co 0.14176 0.33956 0.07258 0.0
O1 O 0.16996 0.33545 0.0712 0.0
O2 O 0.14839 0.30552 0.06226 0.0
C3 C 0.14125 0.37718 0.05303 0.0
O4 O 0.11172 0.33671 0.0709 0.0
Co5 Co 0.12169 0.38476 0.09868 0.0
O6 O 0.0985 0.37473 0.07921 0.0
C7 C 0.1365 0.34096 0.12715 0.0
C8 C 0.1667 0.31254 0.06369 0.0
C9 C 0.09699 0.35209 0.07154 0.0
O10 O 0.14162 0.32912 0.10777 0.0
O11 O 0.12923 0.36336 0.12717 0.0
O12 O 0.14207 0.35611 0.04093 0.0
O13 O 0.14202 0.37492 0.07622 0.0
Co14 Co 0.86609 0.66245 0.57433 0.0
O15 O 0.83787 0.6663 0.57306 0.0
O16 O 0.85918 0.6962 0.5633 0.0
C17 C 0.86663 0.62435 0.55563 0.0
O18 O 0.89616 0.66537 0.57245 0.0
Co19 Co 0.88633 0.61794 0.60138 0.0
O20 O 0.9093 0.6274 0.58132 0.0
C21 C 0.87152 0.6624 0.6289 0.0
C22 C 0.84091 0.68906 0.56505 0.0
C23 C 0.9108 0.64985 0.57317 0.0
O24 O 0.86634 0.67375 0.60928 0.0
O25 O 0.87882 0.64002 0.62939 0.0
O26 O 0.86568 0.6451 0.54306 0.0
O27 O 0.86596 0.62721 0.57876 0.0
Co28 Co 0.14117 0.66421 0.92802 0.0
O29 O 0.16913 0.67016 0.92983 0.0
O30 O 0.14644 0.69826 0.93975 0.0
C31 C 0.1421 0.62584 0.94621 0.0
O32 O 0.11092 0.66447 0.92946 0.0
Co33 Co 0.12409 0.61844 0.89945 0.0
O34 O 0.10044 0.62554 0.91915 0.0
C35 C 0.1366 0.66473 0.87321 0.0
C36 C 0.16502 0.69248 0.9382 0.0
C37 C 0.0973 0.64749 0.9279 0.0
O38 O 0.14082 0.67611 0.89318 0.0
O39 O 0.13064 0.64175 0.87207 0.0
O40 O 0.14199 0.64642 0.95907 0.0
O41 O 0.14314 0.62913 0.92316 0.0
Co42 Co 0.86446 0.33903 0.42741 0.0
O43 O 0.83668 0.33294 0.43088 0.0
O44 O 0.85972 0.30436 0.43791 0.0
C45 C 0.86454 0.37647 0.44734 0.0
O46 O 0.89469 0.33915 0.42654 0.0
Co47 Co 0.87881 0.38643 0.39879 0.0
O48 O 0.90429 0.3779 0.41427 0.0
C49 C 0.86253 0.34235 0.37268 0.0
C50 C 0.8411 0.31019 0.43778 0.0
C51 C 0.9081 0.35609 0.42303 0.0
O52 O 0.86309 0.32889 0.39211 0.0
O53 O 0.86634 0.36611 0.37226 0.0
O54 O 0.86523 0.35531 0.45928 0.0
O55 O 0.86214 0.37417 0.42435 0.0
Co56 Co 0.84621 0.6661 0.91542 0.0
O57 O 0.81858 0.67026 0.92198 0.0
O58 O 0.84242 0.6829 0.94633 0.0
C59 C 0.84463 0.67968 0.87671 0.0
O60 O 0.87639 0.66583 0.91428 0.0
Co61 Co 0.86034 0.62872 0.8756 0.0
O62 O 0.88603 0.64578 0.88044 0.0
C63 C 0.84584 0.60895 0.92229 0.0
C64 C 0.82363 0.68122 0.942 0.0
C65 C 0.88984 0.65897 0.89917 0.0
O66 O 0.84569 0.63151 0.93125 0.0
O67 O 0.84957 0.60437 0.90003 0.0
O68 O 0.84599 0.69599 0.89424 0.0
O69 O 0.8429 0.65638 0.88324 0.0
Co70 Co 0.16006 0.33387 0.41545 0.0
O71 O 0.18773 0.32991 0.42189 0.0
O72 O 0.16407 0.31608 0.44586 0.0
C73 C 0.16175 0.32162 0.37635 0.0
O74 O 0.12984 0.3338 0.41421 0.0
Co75 Co 0.14576 0.3725 0.37683 0.0
O76 O 0.12041 0.35432 0.38052 0.0
C77 C 0.15977 0.39079 0.42432 0.0
C78 C 0.18284 0.31825 0.44159 0.0
C79 C 0.11652 0.34064 0.39889 0.0
O80 O 0.1603 0.36788 0.43239 0.0
O81 O 0.15592 0.3962 0.40225 0.0
O82 O 0.16054 0.30472 0.39336 0.0
O83 O 0.16332 0.34472 0.38359 0.0
Co84 Co 0.84751 0.33307 0.08466 0.0
O85 O 0.81932 0.33061 0.08085 0.0
O86 O 0.84113 0.31594 0.05472 0.0
C87 C 0.84845 0.32058 0.12375 0.0
O88 O 0.87755 0.33112 0.08251 0.0
Co89 Co 0.86679 0.37002 0.12153 0.0
O90 O 0.89058 0.34908 0.11574 0.0
C91 C 0.84979 0.38995 0.0761 0.0
C92 C 0.82276 0.31886 0.06067 0.0
C93 C 0.89219 0.33586 0.0966 0.0
O94 O 0.84739 0.36723 0.06803 0.0
O95 O 0.85585 0.39476 0.09753 0.0
O96 O 0.84733 0.3038 0.10662 0.0
O97 O 0.84732 0.34385 0.11684 0.0
Co98 Co 0.16097 0.66561 0.58681 0.0
O99 O 0.18895 0.66866 0.58177 0.0
O100 O 0.16625 0.682 0.55614 0.0
C101 C 0.16153 0.67932 0.62553 0.0
O102 O 0.13086 0.66669 0.58589 0.0
Co103 Co 0.14336 0.62988 0.62571 0.0
O104 O 0.11873 0.64913 0.61974 0.0
C105 C 0.1592 0.60854 0.58014 0.0
C106 C 0.18481 0.67972 0.56146 0.0
C107 C 0.11647 0.66166 0.60027 0.0
O108 O 0.16114 0.63097 0.5712 0.0
O109 O 0.15385 0.60446 0.60199 0.0
O110 O 0.16121 0.69556 0.60788 0.0
O111 O 0.16264 0.65586 0.61924 0.0
Co112 Co 0.64308 0.84008 0.07336 0.0
O113 O 0.67112 0.83533 0.07116 0.0
O114 O 0.6491 0.80546 0.06395 0.0
C115 C 0.64253 0.87696 0.05252 0.0
O116 O 0.61289 0.83834 0.07287 0.0
Co117 Co 0.62556 0.88739 0.09929 0.0
O118 O 0.60095 0.87666 0.08303 0.0
C119 C 0.64267 0.84529 0.12792 0.0
C120 C 0.66752 0.81222 0.06461 0.0
C121 C 0.59855 0.85422 0.07504 0.0
O122 O 0.64382 0.83111 0.10898 0.0
O123 O 0.63745 0.8686 0.12712 0.0
O124 O 0.64277 0.85549 0.04106 0.0
O125 O 0.64411 0.87538 0.07566 0.0
Co126 Co 0.36534 0.1624 0.57359 0.0
O127 O 0.33729 0.16685 0.57097 0.0
O128 O 0.35914 0.19687 0.56367 0.0
C129 C 0.36622 0.12528 0.55317 0.0
O130 O 0.39555 0.16425 0.57356 0.0
Co131 Co 0.38255 0.11552 0.60054 0.0
O132 O 0.40728 0.12603 0.58447 0.0
C133 C 0.36506 0.15799 0.62822 0.0
C134 C 0.34076 0.18991 0.5642 0.0
C135 C 0.40983 0.14833 0.5762 0.0
O136 O 0.36424 0.17187 0.60907 0.0
O137 O 0.3702 0.13464 0.6279 0.0
O138 O 0.36599 0.14661 0.54148 0.0
O139 O 0.3644 0.12712 0.57626 0.0
Co140 Co 0.64095 0.16323 0.9266 0.0
O141 O 0.66897 0.16886 0.92844 0.0
O142 O 0.64637 0.19709 0.93845 0.0
C143 C 0.64153 0.12474 0.94454 0.0
O144 O 0.6108 0.16413 0.92821 0.0
Co145 Co 0.62294 0.11809 0.89807 0.0
O146 O 0.59914 0.12599 0.91723 0.0
C147 C 0.63619 0.16412 0.87189 0.0
C148 C 0.66492 0.19118 0.93691 0.0
C149 C 0.59666 0.14793 0.92629 0.0
O150 O 0.64061 0.17533 0.89187 0.0
O151 O 0.62988 0.14129 0.87072 0.0
O152 O 0.64167 0.14525 0.95752 0.0
O153 O 0.64248 0.12813 0.92149 0.0
Co154 Co 0.36423 0.83919 0.42703 0.0
O155 O 0.33651 0.83314 0.43077 0.0
O156 O 0.35964 0.80493 0.43876 0.0
C157 C 0.36435 0.87738 0.44556 0.0
O158 O 0.3944 0.83943 0.426 0.0
Co159 Co 0.37812 0.88542 0.39637 0.0
O160 O 0.40385 0.87741 0.41153 0.0
C161 C 0.36146 0.8404 0.3724 0.0
C162 C 0.341 0.81066 0.43836 0.0
C163 C 0.40775 0.85614 0.42137 0.0
O164 O 0.36276 0.82763 0.39218 0.0
O165 O 0.36487 0.86421 0.37105 0.0
O166 O 0.36506 0.85672 0.45828 0.0
O167 O 0.36181 0.87414 0.42269 0.0
Co168 Co 0.34726 0.16682 0.91646 0.0
O169 O 0.31932 0.1706 0.92154 0.0
O170 O 0.34232 0.18414 0.94671 0.0
C171 C 0.34737 0.17942 0.87737 0.0
O172 O 0.3774 0.16738 0.9171 0.0
Co173 Co 0.36392 0.1289 0.87855 0.0
O174 O 0.38896 0.14721 0.88425 0.0
C175 C 0.34729 0.10984 0.92438 0.0
C176 C 0.32371 0.18211 0.94156 0.0
C177 C 0.3916 0.16092 0.90293 0.0
O178 O 0.34663 0.13255 0.93298 0.0
O179 O 0.35203 0.10493 0.90249 0.0
O180 O 0.34731 0.1962 0.89456 0.0
O181 O 0.34568 0.15624 0.88434 0.0
Co182 Co 0.6596 0.83316 0.41736 0.0
O183 O 0.68739 0.82948 0.4234 0.0
O184 O 0.66396 0.81513 0.44748 0.0
C185 C 0.66065 0.82146 0.37802 0.0
O186 O 0.62939 0.83258 0.41657 0.0
Co187 Co 0.64435 0.87209 0.37939 0.0
O188 O 0.6195 0.85279 0.38289 0.0
C189 C 0.65901 0.89003 0.42666 0.0
C190 C 0.68268 0.81751 0.44303 0.0
C191 C 0.61595 0.83895 0.40125 0.0
O192 O 0.65971 0.86707 0.43463 0.0
O193 O 0.65486 0.89554 0.40471 0.0
O194 O 0.66021 0.80427 0.39483 0.0
O195 O 0.66216 0.84444 0.38561 0.0
Co196 Co 0.34887 0.83322 0.08494 0.0
O197 O 0.32074 0.83075 0.08074 0.0
O198 O 0.34269 0.81641 0.05466 0.0
C199 C 0.34945 0.82012 0.12382 0.0
O200 O 0.37904 0.83143 0.08348 0.0
Co201 Co 0.36692 0.87037 0.12264 0.0
O202 O 0.39132 0.85089 0.11638 0.0
C203 C 0.35035 0.89032 0.07713 0.0
C204 C 0.32427 0.81925 0.06048 0.0
C205 C 0.3935 0.83724 0.09758 0.0
O206 O 0.34876 0.86762 0.06869 0.0
O207 O 0.3557 0.89506 0.09885 0.0
O208 O 0.34854 0.8036 0.10645 0.0
O209 O 0.34821 0.84348 0.11724 0.0
Co210 Co 0.66005 0.16692 0.58602 0.0
O211 O 0.68798 0.16953 0.58056 0.0
O212 O 0.66526 0.18326 0.55517 0.0
C213 C 0.66118 0.18077 0.62468 0.0
O214 O 0.62986 0.16836 0.58588 0.0
Co215 Co 0.64329 0.1311 0.62553 0.0
O216 O 0.61847 0.14989 0.61971 0.0
C217 C 0.6586 0.10976 0.57978 0.0
C218 C 0.68385 0.18064 0.5603 0.0
C219 C 0.61574 0.16284 0.60057 0.0
O220 O 0.65989 0.13214 0.57054 0.0
O221 O 0.6539 0.10579 0.60186 0.0
O222 O 0.66074 0.19697 0.607 0.0
O223 O 0.66216 0.15732 0.6184 0.0
C224 C 0.06291 0.3588 0.05592 0.0
C225 C 0.07697 0.34262 0.06637 0.0
C226 C 0.0431 0.35175 0.05498 0.0
C227 C 0.00778 0.32337 0.09166 0.0
H228 H 0.97334 0.31757 0.03612 0.0
C229 C 0.92443 0.31586 0.10623 0.0
C230 C 0.91216 0.32796 0.08948 0.0
C231 C 0.94431 0.31182 0.10099 0.0
C232 C 0.98263 0.31945 0.0519 0.0
H233 H 0.08147 0.30607 0.08329 0.0
H234 H 0.04654 0.29418 0.08251 0.0
H235 H 0.00882 0.32187 0.03021 0.0
H236 H 0.91071 0.34496 0.054 0.0
H237 H 0.94557 0.33955 0.0453 0.0
H238 H 0.98204 0.32325 0.11348 0.0
C239 C 0.05104 0.312 0.07455 0.0
C240 C 1.00299 0.32161 0.04842 0.0
C241 C 0.07097 0.31876 0.07489 0.0
C242 C 0.9199 0.33527 0.06707 0.0
C243 C 0.93995 0.33202 0.06211 0.0
C244 C 0.98746 0.32192 0.09516 0.0
C245 C 0.03693 0.32867 0.06501 0.0
C246 C 0.01568 0.32372 0.06829 0.0
C247 C 0.95262 0.32076 0.07924 0.0
C248 C 0.97447 0.32016 0.07534 0.0
H249 H 0.06716 0.37732 0.04929 0.0
H250 H 0.03242 0.36497 0.04774 0.0
H251 H 0.01731 0.3254 0.10725 0.0
H252 H 0.91871 0.30995 0.12361 0.0
H253 H 0.95322 0.30224 0.11438 0.0
C254 C 0.93908 0.67856 0.5814 0.0
C255 C 0.93082 0.65891 0.56772 0.0
C256 C 0.95935 0.68328 0.58049 0.0
C257 C 0.00594 0.64999 0.563 0.0
H258 H 0.0296 0.71315 0.58383 0.0
C259 C 0.09033 0.66721 0.56872 0.0
C260 C 0.09615 0.66844 0.59307 0.0
C261 C 0.07047 0.66985 0.56238 0.0
C262 C 0.02313 0.6955 0.57779 0.0
H263 H 0.93676 0.62993 0.54114 0.0
H264 H 0.97173 0.63942 0.53781 0.0
H265 H 0.99414 0.71118 0.57667 0.0
H266 H 0.08597 0.67485 0.62967 0.0
H267 H 0.05137 0.68048 0.61839 0.0
H268 H 0.03517 0.6347 0.56365 0.0
C269 C 0.96299 0.65044 0.55032 0.0
C270 C 1.00277 0.6942 0.57391 0.0
C271 C 0.94285 0.64522 0.55184 0.0
C272 C 0.0819 0.67379 0.61077 0.0
C273 C 0.06215 0.67709 0.60435 0.0
C274 C 0.02629 0.65153 0.56627 0.0
C275 C 0.97176 0.66879 0.56542 0.0
C276 C 0.99374 0.67124 0.56695 0.0
C277 C 0.05621 0.67451 0.58019 0.0
C278 C 0.03501 0.67412 0.57412 0.0
H279 H 0.9301 0.68906 0.59411 0.0
H280 H 0.9653 0.69733 0.59269 0.0
H281 H 0.9998 0.63174 0.55829 0.0
H282 H 0.10095 0.6629 0.55473 0.0
H283 H 0.06616 0.66766 0.54365 0.0
C284 C 0.92513 0.66012 0.8863 0.0
C285 C 0.91089 0.66476 0.90421 0.0
C286 C 0.94516 0.66216 0.89148 0.0
C287 C 0.98387 0.64628 0.91307 0.0
H288 H 0.01012 0.70028 0.94799 0.0
C289 C 0.06375 0.63418 0.9407 0.0
C290 C 0.07659 0.65375 0.93383 0.0
C291 C 0.04346 0.63809 0.94124 0.0
C292 C 1.00295 0.68509 0.93822 0.0
H293 H 0.90673 0.67676 0.94135 0.0
H294 H 0.94199 0.68028 0.95041 0.0
H295 H 0.97462 0.70328 0.9396 0.0
H296 H 0.07829 0.69338 0.92392 0.0
H297 H 0.04254 0.70022 0.9246 0.0
H298 H 0.01186 0.62811 0.91131 0.0
C299 C 0.93746 0.67504 0.93233 0.0
C300 C 0.98264 0.68674 0.93356 0.0
C301 C 0.91727 0.67296 0.92713 0.0
C302 C 0.06876 0.67796 0.92935 0.0
C303 C 0.04829 0.68186 0.92972 0.0
C304 C 0.00395 0.64453 0.91789 0.0
C305 C 0.9516 0.66889 0.91472 0.0
C306 C 0.97295 0.66742 0.92068 0.0
C307 C 0.03541 0.66162 0.93469 0.0
C308 C 0.0138 0.66387 0.93048 0.0
H309 H 0.92086 0.65417 0.86832 0.0
H310 H 0.95567 0.65782 0.87736 0.0
H311 H 0.97683 0.63092 0.90338 0.0
H312 H 0.06935 0.6154 0.9446 0.0
H313 H 0.03399 0.62228 0.94575 0.0
C314 C 0.08833 0.32855 0.42645 0.0
C315 C 0.09547 0.33435 0.40322 0.0
C316 C 0.06798 0.32668 0.43069 0.0
C317 C 0.02278 0.31548 0.43136 0.0
H318 H 0.99441 0.37048 0.40063 0.0
C319 C 0.93658 0.32537 0.42578 0.0
C320 C 0.92915 0.35018 0.42762 0.0
C321 C 0.95701 0.32101 0.42598 0.0
C322 C 1.00207 0.35508 0.40951 0.0
H323 H 0.08685 0.34053 0.36592 0.0
H324 H 0.05175 0.33705 0.37325 0.0
H325 H 0.02955 0.36632 0.39428 0.0
H326 H 0.93725 0.38947 0.43335 0.0
H327 H 0.97247 0.38185 0.43404 0.0
H328 H 0.99494 0.30447 0.44667 0.0
C329 C 0.06173 0.33459 0.38834 0.0
C330 C 0.02223 0.35251 0.40563 0.0
C331 C 0.08191 0.33652 0.38413 0.0
C332 C 0.94246 0.37018 0.43142 0.0
C333 C 0.96269 0.36583 0.43174 0.0
C334 C 1.00239 0.31795 0.43512 0.0
C335 C 0.05444 0.33055 0.41177 0.0
C336 C 0.03289 0.33269 0.4164 0.0
C337 C 0.97028 0.34137 0.4281 0.0
C338 C 0.99185 0.33794 0.42434 0.0
H339 H 0.09837 0.32673 0.44155 0.0
H340 H 0.06282 0.32353 0.44895 0.0
H341 H 0.03058 0.29998 0.43987 0.0
H342 H 0.92671 0.30956 0.42283 0.0
H343 H 0.9624 0.30193 0.42316 0.0
C344 C 0.4195 0.82472 0.0673 0.0
C345 C 0.41388 0.82946 0.09133 0.0
C346 C 0.43939 0.82098 0.06141 0.0
C347 C 0.48277 0.83541 0.05421 0.0
H348 H 0.51894 0.80078 0.09721 0.0
C349 C 0.56356 0.86456 0.06518 0.0
C350 C 0.57806 0.84615 0.06972 0.0
C351 C 0.54378 0.8578 0.06311 0.0
C352 C 0.50907 0.81018 0.08473 0.0
H353 H 0.4246 0.83238 0.12816 0.0
H354 H 0.45895 0.82578 0.11798 0.0
H355 H 0.48353 0.79587 0.10287 0.0
H356 H 0.58314 0.80595 0.07467 0.0
H357 H 0.54834 0.79409 0.07122 0.0
H358 H 0.5083 0.85031 0.03652 0.0
C359 C 0.44815 0.82496 0.10361 0.0
C360 C 0.48875 0.80757 0.08812 0.0
C361 C 0.42841 0.82896 0.10943 0.0
C362 C 0.57234 0.82059 0.07113 0.0
C363 C 0.55241 0.81382 0.06932 0.0
C364 C 0.50308 0.83812 0.05088 0.0
C365 C 0.45399 0.82152 0.07948 0.0
C366 C 0.47535 0.82075 0.07336 0.0
C367 C 0.53786 0.83244 0.06569 0.0
C368 C 0.51648 0.82614 0.06656 0.0
H369 H 0.40869 0.82503 0.05293 0.0
H370 H 0.4434 0.81819 0.04266 0.0
H371 H 0.47291 0.84594 0.04257 0.0
H372 H 0.56744 0.88441 0.06385 0.0
H373 H 0.53301 0.87269 0.06059 0.0
C374 C 0.58065 0.16979 0.61271 0.0
C375 C 0.59515 0.1701 0.59458 0.0
C376 C 0.56084 0.1737 0.60703 0.0
C377 C 0.52018 0.19173 0.5921 0.0
H378 H 0.50044 0.15142 0.53881 0.0
C379 C 0.43651 0.18148 0.57345 0.0
C380 C 0.43042 0.15613 0.57115 0.0
C381 C 0.45657 0.18777 0.57217 0.0
C382 C 0.50572 0.16293 0.55366 0.0
H383 H 0.60017 0.17574 0.55628 0.0
H384 H 0.5654 0.18242 0.5463 0.0
H385 H 0.53585 0.15488 0.54533 0.0
H386 H 0.4405 0.11783 0.56421 0.0
H387 H 0.47515 0.12876 0.56179 0.0
H388 H 0.49001 0.19879 0.60109 0.0
C389 C 0.56946 0.17906 0.56495 0.0
C390 C 0.52604 0.16511 0.55727 0.0
C391 C 0.58939 0.1754 0.57069 0.0
C392 C 0.44468 0.13753 0.56621 0.0
C393 C 0.46458 0.14383 0.56463 0.0
C394 C 0.49985 0.18966 0.58841 0.0
C395 C 0.55491 0.17785 0.58303 0.0
C396 C 0.53352 0.17892 0.57696 0.0
C397 C 0.47088 0.16891 0.56816 0.0
C398 C 0.49235 0.1746 0.56958 0.0
H399 H 0.58452 0.1659 0.63133 0.0
H400 H 0.55007 0.17234 0.62139 0.0
H401 H 0.52545 0.20277 0.60727 0.0
H402 H 0.42591 0.19623 0.57735 0.0
H403 H 0.46093 0.20731 0.57479 0.0
C404 C 0.56212 0.13665 0.93734 0.0
C405 C 0.57624 0.15543 0.93244 0.0
C406 C 0.54224 0.14289 0.9395 0.0
C407 C 0.50703 0.18874 0.91631 0.0
H408 H 0.47093 0.15363 0.959 0.0
C409 C 0.41758 0.17416 0.93289 0.0
C410 C 0.41212 0.16815 0.90906 0.0
C411 C 0.43742 0.17802 0.93887 0.0
C412 C 0.48079 0.16395 0.9472 0.0
H413 H 0.58063 0.19571 0.92713 0.0
H414 H 0.54568 0.20662 0.93068 0.0
H415 H 0.50635 0.15033 0.9658 0.0
H416 H 0.42312 0.16286 0.87261 0.0
H417 H 0.45747 0.16974 0.88295 0.0
H418 H 0.48149 0.20163 0.89721 0.0
C419 C 0.5501 0.18704 0.93282 0.0
C420 C 0.50109 0.16188 0.95097 0.0
C421 C 0.57011 0.18082 0.93096 0.0
C422 C 0.4268 0.1673 0.89117 0.0
C423 C 0.44652 0.17145 0.89707 0.0
C424 C 0.48674 0.19066 0.91244 0.0
C425 C 0.5359 0.16804 0.93658 0.0
C426 C 0.51446 0.17368 0.93517 0.0
C427 C 0.45214 0.17635 0.92105 0.0
C428 C 0.4734 0.17771 0.92743 0.0
H429 H 0.56637 0.11692 0.93871 0.0
H430 H 0.53171 0.12774 0.94217 0.0
H431 H 0.5169 0.19794 0.90371 0.0
H432 H 0.40665 0.17493 0.9471 0.0
H433 H 0.44129 0.18192 0.95749 0.0
C434 C 0.436 0.82546 0.42682 0.0
C435 C 0.42883 0.85046 0.42604 0.0
C436 C 0.45637 0.82079 0.42737 0.0
C437 C 0.50173 0.81834 0.43706 0.0
H438 H 0.52929 0.86085 0.39104 0.0
C439 C 0.5876 0.82845 0.42899 0.0
C440 C 0.59508 0.83194 0.40553 0.0
C441 C 0.5672 0.82649 0.43283 0.0
C442 C 0.52186 0.84863 0.40383 0.0
H443 H 0.43737 0.89005 0.42743 0.0
H444 H 0.47249 0.88193 0.42866 0.0
H445 H 0.49414 0.86593 0.39647 0.0
H446 H 0.58721 0.83364 0.36758 0.0
H447 H 0.55201 0.8298 0.37419 0.0
H448 H 0.52982 0.80104 0.44426 0.0
C449 C 0.46254 0.86591 0.42817 0.0
C450 C 0.50169 0.85177 0.40717 0.0
C451 C 0.44235 0.87055 0.42752 0.0
C452 C 0.58193 0.83146 0.38593 0.0
C453 C 0.56171 0.82934 0.38972 0.0
C454 C 0.52213 0.8153 0.43383 0.0
C455 C 0.46985 0.84105 0.42721 0.0
C456 C 0.49135 0.83682 0.42389 0.0
C457 C 0.55401 0.82787 0.41324 0.0
C458 C 0.53239 0.83038 0.41706 0.0
H459 H 0.42597 0.80957 0.42573 0.0
H460 H 0.46157 0.80141 0.42665 0.0
H461 H 0.49416 0.80656 0.45011 0.0
H462 H 0.59736 0.82875 0.44446 0.0
H463 H 0.56174 0.82536 0.45117 0.0
C464 C 0.12581 0.33444 0.1697 0.0
C465 C 0.13891 0.32851 0.15089 0.0
C466 C 0.12888 0.32508 0.19294 0.0
C467 C 0.13492 0.29543 0.23938 0.0
H468 H 0.18618 0.31344 0.26488 0.0
C469 C 0.15384 0.29208 0.34198 0.0
C470 C 0.16107 0.31543 0.35033 0.0
C471 C 0.15257 0.28722 0.3171 0.0
C472 C 0.17188 0.30798 0.25796 0.0
H473 H 0.16511 0.30734 0.14145 0.0
H474 H 0.17084 0.29142 0.1826 0.0
H475 H 0.18036 0.31526 0.22135 0.0
H476 H 0.17315 0.35166 0.33933 0.0
H477 H 0.17123 0.34307 0.29624 0.0
H478 H 0.12619 0.28938 0.27615 0.0
C479 C 0.15808 0.30316 0.17912 0.0
C480 C 0.1686 0.30882 0.23304 0.0
C481 C 0.15478 0.31218 0.15562 0.0
C482 C 0.16746 0.33351 0.33346 0.0
C483 C 0.16653 0.32851 0.30876 0.0
C484 C 0.13827 0.29432 0.2643 0.0
C485 C 0.14529 0.30985 0.19807 0.0
C486 C 0.14987 0.3035 0.22358 0.0
C487 C 0.15892 0.30544 0.30028 0.0
C488 C 0.15657 0.30154 0.27388 0.0
H489 H 0.11336 0.34682 0.16655 0.0
H490 H 0.1189 0.33084 0.20718 0.0
H491 H 0.12038 0.29107 0.23255 0.0
H492 H 0.14878 0.27784 0.35462 0.0
H493 H 0.1466 0.2693 0.31101 0.0
C494 C 0.85315 0.69175 0.65673 0.0
C495 C 0.86906 0.67536 0.65238 0.0
C496 C 0.8497 0.70111 0.68007 0.0
C497 C 0.83864 0.69592 0.73375 0.0
H498 H 0.88071 0.71446 0.77776 0.0
C499 C 0.83882 0.66923 0.83353 0.0
C500 C 0.84535 0.6867 0.8509 0.0
C501 C 0.83987 0.67491 0.80898 0.0
C502 C 0.86871 0.70981 0.76566 0.0
H503 H 0.89456 0.65737 0.66851 0.0
H504 H 0.88874 0.67387 0.70886 0.0
H505 H 0.88696 0.71324 0.73425 0.0
H506 H 0.85798 0.72396 0.85624 0.0
H507 H 0.86035 0.73371 0.81287 0.0
H508 H 0.8207 0.69113 0.76524 0.0
C509 C 0.87885 0.67945 0.69446 0.0
C510 C 0.87231 0.70895 0.74079 0.0
C511 C 0.88207 0.66978 0.67137 0.0
C512 C 0.85281 0.71018 0.84321 0.0
C513 C 0.85419 0.71573 0.81847 0.0
C514 C 0.8351 0.69655 0.75862 0.0
C515 C 0.86237 0.69467 0.69925 0.0
C516 C 0.85751 0.70111 0.72467 0.0
C517 C 0.84772 0.69809 0.80114 0.0
C518 C 0.85029 0.7026 0.77487 0.0
H519 H 0.84289 0.69633 0.6424 0.0
H520 H 0.8369 0.71284 0.68328 0.0
H521 H 0.82697 0.68968 0.72183 0.0
H522 H 0.83296 0.651 0.83889 0.0
H523 H 0.83509 0.66077 0.79607 0.0
C524 C 0.12517 0.67318 0.83135 0.0
C525 C 0.13858 0.67834 0.85002 0.0
C526 C 0.12817 0.68283 0.80821 0.0
C527 C 0.13481 0.71159 0.76144 0.0
H528 H 0.18575 0.6914 0.73653 0.0
C529 C 0.15397 0.71055 0.65869 0.0
C530 C 0.1607 0.68659 0.65129 0.0
C531 C 0.15271 0.71648 0.68337 0.0
C532 C 0.17156 0.69749 0.74327 0.0
H533 H 0.16518 0.69859 0.85949 0.0
H534 H 0.17082 0.71507 0.81849 0.0
H535 H 0.1799 0.69098 0.78005 0.0
H536 H 0.17184 0.65038 0.66377 0.0
H537 H 0.16994 0.66082 0.70647 0.0
H538 H 0.12619 0.71677 0.72448 0.0
C539 C 0.15785 0.70372 0.82198 0.0
C540 C 0.16825 0.69746 0.7682 0.0
C541 C 0.15461 0.69441 0.84539 0.0
C542 C 0.16654 0.66898 0.66889 0.0
C543 C 0.16563 0.67503 0.69337 0.0
C544 C 0.13819 0.71188 0.7365 0.0
C545 C 0.14485 0.69756 0.80305 0.0
C546 C 0.1496 0.70351 0.77748 0.0
C547 C 0.15858 0.69874 0.70092 0.0
C548 C 0.15634 0.70382 0.72715 0.0
H549 H 0.11261 0.66096 0.83447 0.0
H550 H 0.11802 0.67747 0.79401 0.0
H551 H 0.12033 0.71651 0.76812 0.0
H552 H 0.14934 0.72445 0.64547 0.0
H553 H 0.14715 0.73486 0.68875 0.0
C554 C 0.84668 0.29013 0.15867 0.0
C555 C 0.85181 0.31402 0.14939 0.0
C556 C 0.84854 0.2851 0.18347 0.0
C557 C 0.8742 0.30528 0.23844 0.0
H558 H 0.82561 0.29326 0.27335 0.0
C559 C 0.84916 0.34421 0.33084 0.0
C560 C 0.8583 0.33011 0.34922 0.0
C561 C 0.84756 0.33445 0.30751 0.0
C562 C 0.83935 0.29593 0.26379 0.0
H563 H 0.86357 0.35097 0.15862 0.0
H564 H 0.86739 0.34195 0.20141 0.0
H565 H 0.82603 0.29007 0.22906 0.0
H566 H 0.87234 0.29436 0.35781 0.0
H567 H 0.87011 0.27756 0.31636 0.0
H568 H 0.88727 0.31234 0.27308 0.0
C569 C 0.86178 0.32719 0.18967 0.0
C570 C 0.83962 0.29409 0.23855 0.0
C571 C 0.85948 0.33239 0.16515 0.0
C572 C 0.8651 0.30554 0.34401 0.0
C573 C 0.86388 0.29596 0.3204 0.0
C574 C 0.87401 0.30664 0.26366 0.0
C575 C 0.85608 0.30367 0.19916 0.0
C576 C 0.85687 0.29974 0.22564 0.0
C577 C 0.85534 0.31057 0.30198 0.0
C578 C 0.85644 0.30281 0.27642 0.0
H579 H 0.84066 0.27566 0.14692 0.0
H580 H 0.84399 0.26685 0.19044 0.0
H581 H 0.88766 0.30977 0.22887 0.0
H582 H 0.84373 0.36316 0.33433 0.0
H583 H 0.84108 0.34608 0.29347 0.0
C584 C 0.65439 0.836 0.33603 0.0
C585 C 0.65785 0.81588 0.35205 0.0
C586 C 0.65153 0.83152 0.31152 0.0
C587 C 0.66392 0.79183 0.26155 0.0
H588 H 0.62012 0.827 0.2316 0.0
C589 C 0.64652 0.80824 0.15664 0.0
C590 C 0.64656 0.83453 0.15224 0.0
C591 C 0.64771 0.79896 0.18042 0.0
C592 C 0.63222 0.81666 0.23971 0.0
H593 H 0.66143 0.77517 0.35482 0.0
H594 H 0.65686 0.76734 0.31122 0.0
H595 H 0.6215 0.82311 0.27549 0.0
H596 H 0.64938 0.87147 0.16928 0.0
H597 H 0.65119 0.85532 0.21018 0.0
H598 H 0.6752 0.78695 0.22549 0.0
C599 C 0.65612 0.78655 0.31803 0.0
C600 C 0.63303 0.81448 0.26476 0.0
C601 C 0.65867 0.79103 0.34288 0.0
C602 C 0.64893 0.85114 0.1719 0.0
C603 C 0.65 0.84195 0.19539 0.0
C604 C 0.6631 0.79403 0.23628 0.0
C605 C 0.6523 0.80681 0.30224 0.0
C606 C 0.6493 0.80308 0.27598 0.0
C607 C 0.64888 0.8159 0.19995 0.0
C608 C 0.64763 0.80742 0.22533 0.0
H609 H 0.6538 0.85538 0.34236 0.0
H610 H 0.64892 0.84752 0.29968 0.0
H611 H 0.67666 0.78307 0.26983 0.0
H612 H 0.64478 0.79494 0.14189 0.0
H613 H 0.64689 0.77875 0.18362 0.0
C614 C 0.35584 0.16629 0.83552 0.0
C615 C 0.35066 0.1857 0.85165 0.0
C616 C 0.35869 0.17141 0.81111 0.0
C617 C 0.34302 0.21027 0.76185 0.0
H618 H 0.38809 0.17969 0.73025 0.0
C619 C 0.36224 0.19545 0.65653 0.0
C620 C 0.36084 0.1692 0.65225 0.0
C621 C 0.36093 0.20498 0.68019 0.0
C622 C 0.37565 0.18883 0.73884 0.0
H623 H 0.34421 0.22578 0.85477 0.0
H624 H 0.34868 0.23465 0.81137 0.0
H625 H 0.38736 0.18292 0.77426 0.0
H626 H 0.35547 0.13274 0.66922 0.0
H627 H 0.35335 0.14936 0.71005 0.0
H628 H 0.33079 0.21443 0.72619 0.0
C629 C 0.3508 0.21554 0.818 0.0
C630 C 0.37519 0.19059 0.76395 0.0
C631 C 0.3483 0.21048 0.84274 0.0
C632 C 0.35693 0.15299 0.67183 0.0
C633 C 0.35564 0.16245 0.69523 0.0
C634 C 0.34348 0.20845 0.73656 0.0
C635 C 0.35615 0.196 0.80204 0.0
C636 C 0.35852 0.20029 0.77575 0.0
C637 C 0.35812 0.18836 0.69969 0.0
C638 C 0.3595 0.19682 0.72503 0.0
H639 H 0.35769 0.14699 0.84167 0.0
H640 H 0.3625 0.1559 0.79917 0.0
H641 H 0.32996 0.21766 0.77056 0.0
H642 H 0.36524 0.20841 0.64183 0.0
H643 H 0.36291 0.22506 0.68337 0.0
C644 C 0.65421 0.19414 0.84442 0.0
C645 C 0.6383 0.17778 0.84874 0.0
C646 C 0.65751 0.20377 0.82114 0.0
C647 C 0.66822 0.19844 0.76734 0.0
H648 H 0.62608 0.21755 0.72365 0.0
C649 C 0.6667 0.17055 0.66795 0.0
C650 C 0.66058 0.18809 0.65043 0.0
C651 C 0.66588 0.17656 0.69244 0.0
C652 C 0.6381 0.21274 0.73566 0.0
H653 H 0.6126 0.16017 0.83276 0.0
H654 H 0.61811 0.17719 0.79253 0.0
H655 H 0.62011 0.21671 0.76725 0.0
H656 H 0.64887 0.22579 0.64474 0.0
H657 H 0.64684 0.23612 0.68805 0.0
H658 H 0.68586 0.19301 0.73569 0.0
C659 C 0.62813 0.18254 0.80687 0.0
C660 C 0.63466 0.21212 0.76058 0.0
C661 C 0.62507 0.17259 0.82988 0.0
C662 C 0.65372 0.21195 0.6579 0.0
C663 C 0.65255 0.21783 0.6826 0.0
C664 C 0.67159 0.19882 0.74244 0.0
C665 C 0.64468 0.19763 0.80204 0.0
C666 C 0.64948 0.20405 0.77659 0.0
C667 C 0.65865 0.20014 0.70008 0.0
C668 C 0.65636 0.20506 0.72632 0.0
H669 H 0.66464 0.19838 0.85866 0.0
H670 H 0.67037 0.21539 0.81789 0.0
H671 H 0.67988 0.192 0.77918 0.0
H672 H 0.67211 0.15203 0.66276 0.0
H673 H 0.67038 0.16239 0.70548 0.0
C674 C 0.36114 0.83038 0.16532 0.0
C675 C 0.35228 0.81309 0.1494 0.0
C676 C 0.36273 0.82486 0.18987 0.0
C677 C 0.33705 0.79597 0.23801 0.0
H678 H 0.38573 0.8041 0.27384 0.0
C679 C 0.36706 0.80514 0.34297 0.0
C680 C 0.3569 0.82724 0.34959 0.0
C681 C 0.36553 0.79569 0.31937 0.0
C682 C 0.37208 0.80125 0.2641 0.0
H683 H 0.3383 0.77633 0.14658 0.0
H684 H 0.34034 0.7671 0.19013 0.0
H685 H 0.38652 0.80202 0.22965 0.0
H686 H 0.33624 0.8558 0.33758 0.0
H687 H 0.33295 0.83876 0.29676 0.0
H688 H 0.32247 0.79733 0.27238 0.0
C689 C 0.34641 0.78466 0.18329 0.0
C690 C 0.37253 0.80018 0.23887 0.0
C691 C 0.34529 0.78992 0.15848 0.0
C692 C 0.34418 0.83869 0.33288 0.0
C693 C 0.34224 0.82889 0.30958 0.0
C694 C 0.33656 0.79757 0.26324 0.0
C695 C 0.35509 0.80219 0.19916 0.0
C696 C 0.35499 0.7982 0.22561 0.0
C697 C 0.35338 0.80782 0.30236 0.0
C698 C 0.35403 0.80089 0.27645 0.0
H699 H 0.36668 0.84836 0.15887 0.0
H700 H 0.3693 0.83878 0.2018 0.0
H701 H 0.32332 0.79468 0.22813 0.0
H702 H 0.37712 0.79616 0.35552 0.0
H703 H 0.37431 0.77946 0.31416 0.0
C704 C 0.28825 0.18755 0.95283 0.0
C705 C 0.30818 0.19305 0.95722 0.0
C706 C 0.27345 0.19875 0.96677 0.0
C707 C 0.26327 0.25516 0.00329 0.0
H708 H 0.21829 0.21687 0.02611 0.0
C709 C 0.20268 0.30301 0.06014 0.0
C710 C 0.18308 0.29613 0.05543 0.0
C711 C 0.21827 0.28903 0.05043 0.0
C712 C 0.23062 0.22794 0.01966 0.0
H713 H 0.32819 0.21441 0.97993 0.0
H714 H 0.30228 0.23421 0.00414 0.0
H715 H 0.24483 0.19518 0.0048 0.0
H716 H 0.16448 0.2688 0.03724 0.0
H717 H 0.1916 0.24475 0.01976 0.0
H718 H 0.24893 0.28803 0.01733 0.0
C719 C 0.29814 0.22121 0.98987 0.0
C720 C 0.24587 0.21546 0.00751 0.0
C721 C 0.31298 0.20977 0.97609 0.0
C722 C 0.17942 0.27451 0.04133 0.0
C723 C 0.19503 0.26065 0.03137 0.0
C724 C 0.24794 0.26769 0.01521 0.0
C725 C 0.2782 0.21594 0.98527 0.0
C726 C 0.26234 0.22894 0.9991 0.0
C727 C 0.2147 0.26794 0.03548 0.0
C728 C 0.23134 0.25429 0.02351 0.0
H729 H 0.28405 0.17474 0.93844 0.0
H730 H 0.25823 0.19447 0.96262 0.0
H731 H 0.2756 0.26617 0.99672 0.0
H732 H 0.20601 0.31947 0.07108 0.0
H733 H 0.23316 0.29493 0.05452 0.0
C734 C 0.82766 0.72681 0.54262 0.0
C735 C 0.82432 0.70513 0.55674 0.0
C736 C 0.81184 0.74039 0.53278 0.0
C737 C 0.75892 0.73252 0.51692 0.0
H738 H 0.76111 0.80517 0.50721 0.0
C739 C 0.69327 0.7894 0.47742 0.0
C740 C 0.69807 0.8066 0.45896 0.0
C741 C 0.70811 0.77807 0.49133 0.0
C742 C 0.76031 0.78485 0.50972 0.0
H743 H 0.80171 0.68136 0.57251 0.0
H744 H 0.77421 0.70537 0.55608 0.0
H745 H 0.78799 0.78381 0.52817 0.0
H746 H 0.72219 0.82588 0.44108 0.0
H747 H 0.74794 0.80635 0.46539 0.0
H748 H 0.7312 0.73365 0.49849 0.0
C749 C 0.78901 0.71156 0.55192 0.0
C750 C 0.77577 0.77256 0.52167 0.0
C751 C 0.80481 0.69787 0.56154 0.0
C752 C 0.71797 0.81269 0.45513 0.0
C753 C 0.73275 0.8016 0.46918 0.0
C754 C 0.7434 0.74485 0.50515 0.0
C755 C 0.79227 0.73274 0.53701 0.0
C756 C 0.7754 0.74616 0.52525 0.0
C757 C 0.72805 0.78394 0.48727 0.0
C758 C 0.74399 0.77112 0.50118 0.0
H759 H 0.84252 0.73281 0.53846 0.0
H760 H 0.81502 0.75639 0.52119 0.0
H761 H 0.75819 0.71214 0.51886 0.0
H762 H 0.67808 0.7843 0.48081 0.0
H763 H 0.70399 0.7647 0.50528 0.0
C764 C 0.28839 0.81578 0.05065 0.0
C765 C 0.30797 0.80922 0.04538 0.0
C766 C 0.2728 0.80544 0.03739 0.0
C767 C 0.26087 0.77036 0.98056 0.0
H768 H 0.21336 0.75287 0.01557 0.0
C769 C 0.2007 0.70349 0.94253 0.0
C770 C 0.18088 0.70943 0.94715 0.0
C771 C 0.21588 0.71778 0.95283 0.0
C772 C 0.22641 0.75795 0.00543 0.0
H773 H 0.32653 0.78684 0.02179 0.0
H774 H 0.29934 0.76826 0.99901 0.0
H775 H 0.2405 0.77311 0.03678 0.0
H776 H 0.16148 0.73549 0.96576 0.0
H777 H 0.18803 0.76045 0.98389 0.0
H778 H 0.24683 0.75443 0.94934 0.0
C779 C 0.29598 0.78181 0.01309 0.0
C780 C 0.24202 0.76962 0.0176 0.0
C781 C 0.31161 0.79237 0.02625 0.0
C782 C 0.17658 0.73045 0.96181 0.0
C783 C 0.1918 0.74463 0.97234 0.0
C784 C 0.24529 0.75848 0.96843 0.0
C785 C 0.27632 0.78802 0.01863 0.0
C786 C 0.25953 0.77597 0.00538 0.0
C787 C 0.21164 0.73826 0.96821 0.0
C788 C 0.22788 0.75205 0.98074 0.0
H789 H 0.28505 0.82887 0.06514 0.0
H790 H 0.25796 0.81117 0.04191 0.0
H791 H 0.27392 0.7753 0.97039 0.0
H792 H 0.20454 0.68741 0.93133 0.0
H793 H 0.23096 0.7122 0.94942 0.0
C794 C 0.69584 0.20785 0.5259 0.0
C795 C 0.69978 0.19053 0.54455 0.0
C796 C 0.71127 0.21851 0.51247 0.0
C797 C 0.76537 0.23002 0.51598 0.0
H798 H 0.75962 0.24744 0.44833 0.0
C799 C 0.83006 0.27113 0.46017 0.0
C800 C 0.82549 0.29273 0.44644 0.0
C801 C 0.81502 0.25646 0.47046 0.0
C802 C 0.76143 0.24275 0.46725 0.0
H803 H 0.72296 0.17001 0.56303 0.0
H804 H 0.74965 0.18784 0.53931 0.0
H805 H 0.73273 0.22614 0.46935 0.0
H806 H 0.80154 0.31523 0.43192 0.0
H807 H 0.77547 0.28962 0.44959 0.0
H808 H 0.79408 0.2466 0.51383 0.0
C809 C 0.73477 0.19391 0.53542 0.0
C810 C 0.74596 0.23062 0.47936 0.0
C811 C 0.7194 0.1835 0.54895 0.0
C812 C 0.80559 0.29873 0.44244 0.0
C813 C 0.7906 0.28396 0.45247 0.0
C814 C 0.78087 0.24193 0.50383 0.0
C815 C 0.731 0.21192 0.51725 0.0
C816 C 0.74765 0.22422 0.50397 0.0
C817 C 0.7951 0.2629 0.46698 0.0
C818 C 0.77906 0.24864 0.47936 0.0
H819 H 0.68088 0.21374 0.52213 0.0
H820 H 0.70774 0.23248 0.49882 0.0
H821 H 0.76716 0.22593 0.53502 0.0
H822 H 0.84524 0.26604 0.46363 0.0
H823 H 0.81898 0.2402 0.48136 0.0
C824 C 0.70335 0.802 0.06155 0.0
C825 C 0.68373 0.79533 0.05669 0.0
C826 C 0.71891 0.7878 0.05208 0.0
C827 C 0.73129 0.72658 0.0217 0.0
H828 H 0.77631 0.76472 0.9987 0.0
C829 C 0.78852 0.68608 0.95469 0.0
C830 C 0.80849 0.69187 0.95842 0.0
C831 C 0.77392 0.69714 0.96901 0.0
C832 C 0.76399 0.75373 0.00533 0.0
H833 H 0.66503 0.7681 0.03855 0.0
H834 H 0.69216 0.74359 0.02145 0.0
H835 H 0.74957 0.78667 0.01906 0.0
H836 H 0.82881 0.7135 0.98043 0.0
H837 H 0.80319 0.73309 0.0054 0.0
H838 H 0.74558 0.69374 0.00715 0.0
C839 C 0.6956 0.75954 0.03299 0.0
C840 C 0.74861 0.76631 0.01708 0.0
C841 C 0.68 0.77364 0.04273 0.0
C842 C 0.81356 0.70865 0.97712 0.0
C843 C 0.79889 0.71996 0.99131 0.0
C844 C 0.74662 0.71403 0.00975 0.0
C845 C 0.71529 0.7667 0.03719 0.0
C846 C 0.73197 0.75296 0.02537 0.0
C847 C 0.77887 0.71447 0.98729 0.0
C848 C 0.76311 0.72748 0.0013 0.0
H849 H 0.70674 0.81849 0.07243 0.0
H850 H 0.7338 0.79358 0.05627 0.0
H851 H 0.71893 0.71556 0.02814 0.0
H852 H 0.7841 0.6732 0.94046 0.0
H853 H 0.75867 0.69268 0.96524 0.0
C854 C 0.32795 0.22809 0.54187 0.0
C855 C 0.32442 0.20648 0.55602 0.0
C856 C 0.31221 0.24183 0.53195 0.0
C857 C 0.25924 0.23405 0.516 0.0
H858 H 0.26136 0.30664 0.50594 0.0
C859 C 0.1934 0.29042 0.47628 0.0
C860 C 0.19817 0.30755 0.45776 0.0
C861 C 0.20827 0.27927 0.4903 0.0
C862 C 0.26058 0.28633 0.50855 0.0
H863 H 0.3016 0.1831 0.57187 0.0
H864 H 0.27432 0.20736 0.55539 0.0
H865 H 0.28836 0.2854 0.52684 0.0
H866 H 0.22227 0.32694 0.43992 0.0
H867 H 0.24803 0.30773 0.46437 0.0
H868 H 0.23145 0.23505 0.49773 0.0
C869 C 0.28916 0.21336 0.55119 0.0
C870 C 0.27611 0.27411 0.52047 0.0
C871 C 0.30485 0.19954 0.56085 0.0
C872 C 0.21806 0.31379 0.45402 0.0
C873 C 0.23286 0.30288 0.46815 0.0
C874 C 0.24367 0.2463 0.50428 0.0
C875 C 0.29257 0.23438 0.53614 0.0
C876 C 0.27574 0.24774 0.52421 0.0
C877 C 0.2282 0.28526 0.48629 0.0
C878 C 0.24421 0.27256 0.5002 0.0
H879 H 0.34286 0.23384 0.53769 0.0
H880 H 0.31549 0.25774 0.5203 0.0
H881 H 0.25852 0.21368 0.51805 0.0
H882 H 0.17822 0.28522 0.47961 0.0
H883 H 0.20418 0.26592 0.50428 0.0
C884 C 0.81028 0.29186 0.02655 0.0
C885 C 0.80648 0.30866 0.04568 0.0
C886 C 0.79477 0.28122 0.0133 0.0
C887 C 0.7409 0.26862 0.01726 0.0
H888 H 0.74636 0.25358 0.94903 0.0
C889 C 0.67625 0.22918 0.96048 0.0
C890 C 0.68072 0.20805 0.94604 0.0
C891 C 0.69131 0.24341 0.97119 0.0
C892 C 0.74465 0.25759 0.9681 0.0
H893 H 0.78343 0.32808 0.0654 0.0
H894 H 0.75649 0.31022 0.04195 0.0
H895 H 0.7731 0.2748 0.97041 0.0
H896 H 0.70454 0.18588 0.9308 0.0
H897 H 0.73076 0.21084 0.94923 0.0
H898 H 0.71239 0.2515 0.01485 0.0
C899 C 0.77138 0.30462 0.03752 0.0
C900 C 0.76002 0.26967 0.98043 0.0
C901 C 0.78687 0.31504 0.05089 0.0
C902 C 0.70058 0.20205 0.94183 0.0
C903 C 0.71563 0.21642 0.95231 0.0
C904 C 0.72548 0.25676 0.00489 0.0
C905 C 0.77507 0.2873 0.0187 0.0
C906 C 0.75844 0.27519 0.00525 0.0
C907 C 0.71119 0.23701 0.96748 0.0
C908 C 0.72721 0.25092 0.98021 0.0
H909 H 0.82522 0.28646 0.02214 0.0
H910 H 0.79825 0.26772 0.99921 0.0
H911 H 0.7392 0.27204 0.03643 0.0
H912 H 0.6611 0.23428 0.96412 0.0
H913 H 0.68741 0.25933 0.98257 0.0
C914 C 0.22045 0.68487 0.55099 0.0
C915 C 0.2006 0.69005 0.5458 0.0
C916 C 0.23551 0.69576 0.53724 0.0
C917 C 0.24582 0.75121 0.49934 0.0
H918 H 0.29233 0.71374 0.48005 0.0
C919 C 0.30564 0.79847 0.4416 0.0
C920 C 0.32541 0.79336 0.4472 0.0
C921 C 0.2905 0.78409 0.45171 0.0
C922 C 0.27955 0.72457 0.48552 0.0
H923 H 0.18099 0.71035 0.52174 0.0
H924 H 0.20731 0.72951 0.49778 0.0
H925 H 0.26564 0.69196 0.50111 0.0
H926 H 0.34484 0.76861 0.4673 0.0
H927 H 0.31833 0.74372 0.48553 0.0
H928 H 0.25976 0.78392 0.48449 0.0
C929 C 0.21121 0.71708 0.51259 0.0
C930 C 0.26422 0.71205 0.49753 0.0
C931 C 0.19613 0.70599 0.52622 0.0
C932 C 0.32974 0.77293 0.46256 0.0
C933 C 0.31452 0.75864 0.47295 0.0
C934 C 0.26117 0.76375 0.48754 0.0
C935 C 0.23109 0.71227 0.51808 0.0
C936 C 0.24717 0.72523 0.50458 0.0
C937 C 0.29465 0.76436 0.46801 0.0
C938 C 0.27826 0.75064 0.48041 0.0
H939 H 0.22441 0.67265 0.56594 0.0
H940 H 0.25064 0.69184 0.5421 0.0
H941 H 0.23307 0.76204 0.50493 0.0
H942 H 0.30179 0.81392 0.42961 0.0
H943 H 0.27547 0.78867 0.4469 0.0
C944 C 0.14004 0.57879 0.94198 0.0
C945 C 0.14035 0.60029 0.95695 0.0
C946 C 0.13888 0.55452 0.95193 0.0
C947 C 0.12515 0.51979 0.00746 0.0
H948 H 0.15833 0.46709 0.98057 0.0
C949 C 0.13808 0.42424 0.05551 0.0
C950 C 0.13924 0.40222 0.04132 0.0
C951 C 0.13698 0.4481 0.0447 0.0
C952 C 0.14875 0.48147 0.98807 0.0
H953 H 0.13946 0.61323 0.99409 0.0
H954 H 0.13761 0.57077 0.01154 0.0
H955 H 0.15887 0.50937 0.96296 0.0
H956 H 0.13981 0.3879 0.00463 0.0
H957 H 0.13772 0.42965 0.98566 0.0
H958 H 0.11514 0.4919 0.0327 0.0
C959 C 0.13806 0.5727 0.99207 0.0
C960 C 0.14908 0.50574 0.97799 0.0
C961 C 0.13923 0.59703 0.9821 0.0
C962 C 0.13898 0.40453 0.01604 0.0
C963 C 0.1379 0.42845 0.00519 0.0
C964 C 0.12482 0.4955 0.01754 0.0
C965 C 0.138 0.55115 0.97709 0.0
C966 C 0.13735 0.52523 0.98762 0.0
C967 C 0.13702 0.45053 0.01942 0.0
C968 C 0.1367 0.47608 0.00805 0.0
H969 H 0.14079 0.58067 0.92252 0.0
H970 H 0.13856 0.53838 0.93986 0.0
H971 H 0.1157 0.53425 0.01507 0.0
H972 H 0.13828 0.42311 0.07505 0.0
H973 H 0.13658 0.46469 0.0562 0.0
C974 C 0.87023 0.57742 0.5592 0.0
C975 C 0.86862 0.59902 0.54449 0.0
C976 C 0.87124 0.55328 0.54897 0.0
C977 C 0.88172 0.51917 0.49196 0.0
H978 H 0.851 0.46573 0.52176 0.0
C979 C 0.86653 0.42364 0.44481 0.0
C980 C 0.86679 0.40153 0.45894 0.0
C981 C 0.86804 0.44747 0.4556 0.0
C982 C 0.85989 0.48033 0.51341 0.0
H983 H 0.86713 0.61229 0.50749 0.0
H984 H 0.8687 0.57002 0.48954 0.0
H985 H 0.8512 0.50789 0.53964 0.0
H986 H 0.8691 0.38703 0.49545 0.0
H987 H 0.87183 0.42876 0.51438 0.0
H988 H 0.89024 0.49161 0.46558 0.0
C989 C 0.86939 0.57179 0.50902 0.0
C990 C 0.86 0.50453 0.52365 0.0
C991 C 0.86839 0.596 0.51929 0.0
C992 C 0.86881 0.40374 0.4841 0.0
C993 C 0.87027 0.42763 0.49493 0.0
C994 C 0.8816 0.49496 0.4817 0.0
C995 C 0.87063 0.55012 0.52377 0.0
C996 C 0.87085 0.52428 0.51301 0.0
C997 C 0.8698 0.44979 0.4808 0.0
C998 C 0.8706 0.47528 0.49224 0.0
H999 H 0.87055 0.57911 0.5787 0.0
H1000 H 0.87253 0.53706 0.56085 0.0
H1001 H 0.89048 0.53384 0.48352 0.0
H1002 H 0.86496 0.42259 0.42536 0.0
H1003 H 0.86736 0.46413 0.4442 0.0
C1004 C 0.84676 0.43667 0.06913 0.0
C1005 C 0.84596 0.41183 0.0599 0.0
C1006 C 0.84418 0.45752 0.05398 0.0
C1007 C 0.84906 0.47675 0.99061 0.0
H1008 H 0.82064 0.53651 0.01174 0.0
C1009 C 0.83937 0.5627 0.92818 0.0
C1010 C 0.84238 0.58684 0.93831 0.0
C1011 C 0.83768 0.54134 0.94285 0.0
C1012 C 0.82876 0.52005 0.00567 0.0
H1013 H 0.84134 0.38958 0.02743 0.0
H1014 H 0.83679 0.42617 0.00092 0.0
H1015 H 0.82118 0.4988 0.03728 0.0
H1016 H 0.8453 0.60747 0.97201 0.0
H1017 H 0.84259 0.56999 0.99772 0.0
H1018 H 0.85696 0.49803 0.95924 0.0
C1019 C 0.8396 0.42937 0.01993 0.0
C1020 C 0.82904 0.49842 0.02027 0.0
C1021 C 0.8421 0.40842 0.03515 0.0
C1022 C 0.84298 0.58918 0.9636 0.0
C1023 C 0.84136 0.5677 0.97834 0.0
C1024 C 0.84881 0.49835 0.97605 0.0
C1025 C 0.84077 0.45418 0.02917 0.0
C1026 C 0.83932 0.47658 0.01298 0.0
C1027 C 0.83903 0.54347 0.96809 0.0
C1028 C 0.83875 0.52033 0.98344 0.0
H1029 H 0.84963 0.44012 0.08808 0.0
H1030 H 0.84543 0.47634 0.06165 0.0
H1031 H 0.8574 0.46042 0.98465 0.0
H1032 H 0.83855 0.56016 0.90878 0.0
H1033 H 0.83544 0.52308 0.93437 0.0
C1034 C 0.1642 0.4084 0.46631 0.0
C1035 C 0.16308 0.41224 0.4412 0.0
C1036 C 0.16609 0.42905 0.48204 0.0
C1037 C 0.17973 0.49714 0.48421 0.0
H1038 H 0.14564 0.49866 0.54029 0.0
C1039 C 0.16464 0.58857 0.53932 0.0
C1040 C 0.16263 0.58613 0.56449 0.0
C1041 C 0.16651 0.56704 0.52469 0.0
C1042 C 0.15549 0.49842 0.52492 0.0
H1043 H 0.1637 0.44088 0.413 0.0
H1044 H 0.16684 0.47657 0.44032 0.0
H1045 H 0.14614 0.46127 0.51456 0.0
H1046 H 0.16187 0.55906 0.59405 0.0
H1047 H 0.16543 0.52185 0.56869 0.0
H1048 H 0.18893 0.53444 0.49446 0.0
C1049 C 0.1664 0.45767 0.44789 0.0
C1050 C 0.15578 0.47694 0.51018 0.0
C1051 C 0.16444 0.43712 0.43222 0.0
C1052 C 0.16314 0.56172 0.57471 0.0
C1053 C 0.16508 0.54031 0.56014 0.0
C1054 C 0.17947 0.51863 0.49899 0.0
C1055 C 0.16703 0.45394 0.47299 0.0
C1056 C 0.16778 0.47611 0.48954 0.0
C1057 C 0.16648 0.54263 0.53493 0.0
C1058 C 0.16725 0.51959 0.51945 0.0
H1059 H 0.16326 0.38952 0.47386 0.0
H1060 H 0.16674 0.42555 0.5013 0.0
H1061 H 0.18933 0.49698 0.46859 0.0
H1062 H 0.16428 0.60705 0.53083 0.0
H1063 H 0.1674 0.56951 0.5053 0.0
C1064 C 0.63899 0.07777 0.94006 0.0
C1065 C 0.63967 0.09915 0.95515 0.0
C1066 C 0.63778 0.05345 0.94988 0.0
C1067 C 0.62473 0.01857 0.00559 0.0
H1068 H 0.65735 0.96573 0.97791 0.0
C1069 C 0.63933 0.92399 0.05417 0.0
C1070 C 0.64014 0.9017 0.04034 0.0
C1071 C 0.6378 0.9476 0.04301 0.0
C1072 C 0.64792 0.98015 0.98563 0.0
H1073 H 0.63942 0.11187 0.99237 0.0
H1074 H 0.63751 0.06932 0.0096 0.0
H1075 H 0.6576 0.00798 0.96017 0.0
H1076 H 0.6397 0.88662 0.00394 0.0
H1077 H 0.63692 0.92803 0.98431 0.0
H1078 H 0.61522 0.9908 0.03121 0.0
C1079 C 0.63768 0.07138 0.99014 0.0
C1080 C 0.64808 0.0044 0.97548 0.0
C1081 C 0.63889 0.09574 0.98029 0.0
C1082 C 0.63914 0.90348 0.01506 0.0
C1083 C 0.63765 0.92719 0.00384 0.0
C1084 C 0.62457 0.99433 0.01574 0.0
C1085 C 0.63724 0.04993 0.97504 0.0
C1086 C 0.6366 0.02396 0.98545 0.0
C1087 C 0.63706 0.94954 0.01771 0.0
C1088 C 0.6363 0.97488 0.00601 0.0
H1089 H 0.63948 0.07976 0.92059 0.0
H1090 H 0.63717 0.03739 0.93772 0.0
H1091 H 0.61546 0.03308 0.01346 0.0
H1092 H 0.64012 0.92329 0.0737 0.0
H1093 H 0.63767 0.96441 0.05423 0.0
C1094 C 0.36688 0.92435 0.44119 0.0
C1095 C 0.36671 0.90288 0.45619 0.0
C1096 C 0.36846 0.9486 0.45107 0.0
C1097 C 0.38305 0.98328 0.50645 0.0
H1098 H 0.34987 0.0362 0.47992 0.0
C1099 C 0.36957 0.07825 0.55517 0.0
C1100 C 0.36857 0.10043 0.54119 0.0
C1101 C 0.3709 0.05454 0.54414 0.0
C1102 C 0.35945 0.02175 0.48731 0.0
H1103 H 0.3683 0.88995 0.49329 0.0
H1104 H 0.37078 0.93239 0.51065 0.0
H1105 H 0.34909 0.99397 0.46223 0.0
H1106 H 0.36853 0.11521 0.50467 0.0
H1107 H 0.37092 0.07365 0.48529 0.0
H1108 H 0.39318 0.01105 0.53176 0.0
C1109 C 0.36995 0.93046 0.4912 0.0
C1110 C 0.359 0.99751 0.47718 0.0
C1111 C 0.36842 0.90614 0.48128 0.0
C1112 C 0.36924 0.09844 0.51591 0.0
C1113 C 0.3705 0.07464 0.50483 0.0
C1114 C 0.38347 0.00752 0.51661 0.0
C1115 C 0.36984 0.952 0.4762 0.0
C1116 C 0.37072 0.97793 0.4867 0.0
C1117 C 0.37121 0.05241 0.51884 0.0
C1118 C 0.37158 0.027 0.50725 0.0
H1119 H 0.36569 0.92247 0.42176 0.0
H1120 H 0.36865 0.96472 0.43897 0.0
H1121 H 0.3925 0.96876 0.51397 0.0
H1122 H 0.36906 0.07913 0.57471 0.0
H1123 H 0.37116 0.03781 0.55546 0.0
C1124 C 0.34687 0.93705 0.07051 0.0
C1125 C 0.34642 0.91229 0.06106 0.0
C1126 C 0.34421 0.95801 0.05551 0.0
C1127 C 0.34943 0.97776 0.99229 0.0
H1128 H 0.32081 0.03729 0.01363 0.0
C1129 C 0.34002 0.06384 0.93022 0.0
C1130 C 0.34325 0.08791 0.9404 0.0
C1131 C 0.33805 0.0425 0.94484 0.0
C1132 C 0.32898 0.02089 0.0075 0.0
H1133 H 0.34227 0.89028 0.02835 0.0
H1134 H 0.33755 0.92703 0.00211 0.0
H1135 H 0.3213 0.99938 0.03892 0.0
H1136 H 0.34612 0.10849 0.97412 0.0
H1137 H 0.34292 0.07098 0.9998 0.0
H1138 H 0.3574 0.99928 0.96111 0.0
C1139 C 0.34018 0.93011 0.02118 0.0
C1140 C 0.32923 0.99915 0.02196 0.0
C1141 C 0.34279 0.90905 0.03624 0.0
C1142 C 0.34365 0.09024 0.9657 0.0
C1143 C 0.34176 0.06875 0.9804 0.0
C1144 C 0.34919 0.99946 0.97787 0.0
C1145 C 0.34104 0.95485 0.03063 0.0
C1146 C 0.33959 0.97738 0.01459 0.0
C1147 C 0.33934 0.04456 0.97008 0.0
C1148 C 0.33905 0.02135 0.98534 0.0
H1149 H 0.34956 0.94039 0.08953 0.0
H1150 H 0.34522 0.97676 0.06336 0.0
H1151 H 0.35785 0.96152 0.98627 0.0
H1152 H 0.33931 0.06134 0.91081 0.0
H1153 H 0.33572 0.02428 0.93631 0.0
C1154 C 0.66316 0.06299 0.57493 0.0
C1155 C 0.66205 0.08719 0.56434 0.0
C1156 C 0.66515 0.04135 0.56068 0.0
C1157 C 0.67892 0.01876 0.49973 0.0
H1158 H 0.64635 0.96115 0.51684 0.0
C1159 C 0.66379 0.93634 0.4343 0.0
C1160 C 0.6625 0.91152 0.44346 0.0
C1161 C 0.66587 0.957 0.44978 0.0
C1162 C 0.65579 0.97688 0.51203 0.0
H1163 H 0.66276 0.10753 0.5303 0.0
H1164 H 0.66602 0.06956 0.50531 0.0
H1165 H 0.64577 0.999 0.54195 0.0
H1166 H 0.66293 0.88903 0.47625 0.0
H1167 H 0.66665 0.92532 0.50341 0.0
H1168 H 0.6887 0.9967 0.46958 0.0
C1169 C 0.66551 0.06745 0.52476 0.0
C1170 C 0.65544 0.99864 0.5264 0.0
C1171 C 0.66356 0.08922 0.53907 0.0
C1172 C 0.66382 0.90787 0.46857 0.0
C1173 C 0.66584 0.92867 0.48414 0.0
C1174 C 0.67927 0.99698 0.48534 0.0
C1175 C 0.66604 0.04324 0.53541 0.0
C1176 C 0.66689 0.01992 0.52034 0.0
C1177 C 0.66671 0.95349 0.47489 0.0
C1178 C 0.66756 0.97587 0.4912 0.0
H1179 H 0.6623 0.06063 0.59434 0.0
H1180 H 0.66593 0.02308 0.56952 0.0
H1181 H 0.68815 0.03465 0.49477 0.0
H1182 H 0.66291 0.93999 0.41507 0.0
H1183 H 0.66622 0.97584 0.44204 0.0
loop_
_geom_bond_atom_site_label_1
_geom_bond_atom_site_label_2
_geom_bond_distance
_geom_bond_site_symmetry_2
_ccdc_geom_bond_type
Co0 O1 2.216 . S
Co0 O2 2.091 . S
Co0 O4 2.004 . S
Co0 O10 2.021 . S
Co0 O12 2.137 . S
Co0 O13 2.244 . S
O1 Co0 2.216 . S
O1 C8 1.247 . S
O2 Co0 2.091 . S
O2 C8 1.261 . S
C3 O12 1.247 . S
C3 O13 1.272 . S
O4 Co0 2.004 . S
O4 C9 1.259 . S
Co5 O6 2.061 . S
Co5 O11 2.052 . S
Co5 O13 2.135 . S
O6 Co5 2.061 . S
O6 C9 1.235 . S
C7 O10 1.238 . S
C7 O11 1.241 . S
C8 O1 1.247 . S
C8 O2 1.261 . S
C9 O4 1.259 . S
C9 O6 1.235 . S
O10 Co0 2.021 . S
O10 C7 1.238 . S
O11 Co5 2.052 . S
O11 C7 1.241 . S
O12 Co0 2.137 . S
O12 C3 1.247 . S
O13 Co0 2.244 . S
O13 C3 1.272 . S
O13 Co5 2.135 . S
Co14 O15 2.216 . S
Co14 O16 2.091 . S
Co14 O18 2.004 . S
Co14 O24 2.021 . S
Co14 O26 2.137 . S
Co14 O27 2.244 . S
O15 Co14 2.216 . S
O15 C22 1.247 . S
O16 Co14 2.091 . S
O16 C22 1.261 . S
C17 O26 1.247 . S
C17 O27 1.272 . S
O18 Co14 2.004 . S
O18 C23 1.259 . S
Co19 O20 2.061 . S
Co19 O25 2.052 . S
Co19 O27 2.135 . S
O20 Co19 2.061 . S
O20 C23 1.235 . S
C21 O24 1.238 . S
C21 O25 1.241 . S
C22 O15 1.247 . S
C22 O16 1.261 . S
C23 O18 1.259 . S
C23 O20 1.235 . S
O24 Co14 2.021 . S
O24 C21 1.238 . S
O25 Co19 2.052 . S
O25 C21 1.241 . S
O26 Co14 2.137 . S
O26 C17 1.247 . S
O27 Co14 2.244 . S
O27 C17 1.272 . S
O27 Co19 2.135 . S
Co28 O29 2.216 . S
Co28 O30 2.091 . S
Co28 O32 2.004 . S
Co28 O38 2.021 . S
Co28 O40 2.137 . S
Co28 O41 2.244 . S
O29 Co28 2.216 . S
O29 C36 1.247 . S
O30 Co28 2.091 . S
O30 C36 1.261 . S
C31 O40 1.247 . S
C31 O41 1.272 . S
O32 Co28 2.004 . S
O32 C37 1.259 . S
Co33 O34 2.061 . S
Co33 O39 2.052 . S
Co33 O41 2.135 . S
O34 Co33 2.061 . S
O34 C37 1.235 . S
C35 O38 1.238 . S
C35 O39 1.241 . S
C36 O29 1.247 . S
C36 O30 1.261 . S
C37 O32 1.259 . S
C37 O34 1.235 . S
O38 Co28 2.021 . S
O38 C35 1.238 . S
O39 Co33 2.052 . S
O39 C35 1.241 . S
O40 Co28 2.137 . S
O40 C31 1.247 . S
O41 Co28 2.244 . S
O41 C31 1.272 . S
O41 Co33 2.135 . S
Co42 O43 2.216 . S
Co42 O44 2.091 . S
Co42 O46 2.004 . S
Co42 O52 2.021 . S
Co42 O54 2.137 . S
Co42 O55 2.244 . S
O43 Co42 2.216 . S
O43 C50 1.247 . S
O44 Co42 2.091 . S
O44 C50 1.261 . S
C45 O54 1.247 . S
C45 O55 1.272 . S
O46 Co42 2.004 . S
O46 C51 1.259 . S
Co47 O48 2.061 . S
Co47 O53 2.052 . S
Co47 O55 2.135 . S
O48 Co47 2.061 . S
O48 C51 1.235 . S
C49 O52 1.238 . S
C49 O53 1.241 . S
C50 O43 1.247 . S
C50 O44 1.261 . S
C51 O46 1.259 . S
C51 O48 1.235 . S
O52 Co42 2.021 . S
O52 C49 1.238 . S
O53 Co47 2.052 . S
O53 C49 1.241 . S
O54 Co42 2.137 . S
O54 C45 1.247 . S
O55 Co42 2.244 . S
O55 C45 1.272 . S
O55 Co47 2.135 . S
Co56 O57 2.216 . S
Co56 O58 2.091 . S
Co56 O60 2.004 . S
Co56 O66 2.021 . S
Co56 O68 2.137 . S
Co56 O69 2.244 . S
O57 Co56 2.216 . S
O57 C64 1.247 . S
O58 Co56 2.091 . S
O58 C64 1.261 . S
C59 O68 1.247 . S
C59 O69 1.272 . S
O60 Co56 2.004 . S
O60 C65 1.259 . S
Co61 O62 2.061 . S
Co61 O67 2.052 . S
Co61 O69 2.135 . S
O62 Co61 2.061 . S
O62 C65 1.235 . S
C63 O66 1.238 . S
C63 O67 1.241 . S
C64 O57 1.247 . S
C64 O58 1.261 . S
C65 O60 1.259 . S
C65 O62 1.235 . S
O66 Co56 2.021 . S
O66 C63 1.238 . S
O67 Co61 2.052 . S
O67 C63 1.241 . S
O68 Co56 2.137 . S
O68 C59 1.247 . S
O69 Co56 2.244 . S
O69 C59 1.272 . S
O69 Co61 2.135 . S
Co70 O71 2.216 . S
Co70 O72 2.091 . S
Co70 O74 2.004 . S
Co70 O80 2.021 . S
Co70 O82 2.137 . S
Co70 O83 2.244 . S
O71 Co70 2.216 . S
O71 C78 1.247 . S
O72 Co70 2.091 . S
O72 C78 1.261 . S
C73 O82 1.247 . S
C73 O83 1.272 . S
O74 Co70 2.004 . S
O74 C79 1.259 . S
Co75 O76 2.061 . S
Co75 O81 2.052 . S
Co75 O83 2.135 . S
O76 Co75 2.061 . S
O76 C79 1.235 . S
C77 O80 1.238 . S
C77 O81 1.241 . S
C78 O71 1.247 . S
C78 O72 1.261 . S
C79 O74 1.259 . S
C79 O76 1.235 . S
O80 Co70 2.021 . S
O80 C77 1.238 . S
O81 Co75 2.052 . S
O81 C77 1.241 . S
O82 Co70 2.137 . S
O82 C73 1.247 . S
O83 Co70 2.244 . S
O83 C73 1.272 . S
O83 Co75 2.135 . S
Co84 O85 2.216 . S
Co84 O86 2.091 . S
Co84 O88 2.004 . S
Co84 O94 2.021 . S
Co84 O96 2.137 . S
Co84 O97 2.244 . S
O85 Co84 2.216 . S
O85 C92 1.247 . S
O86 Co84 2.091 . S
O86 C92 1.261 . S
C87 O96 1.247 . S
C87 O97 1.272 . S
O88 Co84 2.004 . S
O88 C93 1.259 . S
Co89 O90 2.061 . S
Co89 O95 2.052 . S
Co89 O97 2.135 . S
O90 Co89 2.061 . S
O90 C93 1.235 . S
C91 O94 1.238 . S
C91 O95 1.241 . S
C92 O85 1.247 . S
C92 O86 1.261 . S
C93 O88 1.259 . S
C93 O90 1.235 . S
O94 Co84 2.021 . S
O94 C91 1.238 . S
O95 Co89 2.052 . S
O95 C91 1.241 . S
O96 Co84 2.137 . S
O96 C87 1.247 . S
O97 Co84 2.244 . S
O97 C87 1.272 . S
O97 Co89 2.135 . S
Co98 O99 2.216 . S
Co98 O100 2.091 . S
Co98 O102 2.004 . S
Co98 O108 2.021 . S
Co98 O110 2.137 . S
Co98 O111 2.244 . S
O99 Co98 2.216 . S
O99 C106 1.247 . S
O100 Co98 2.091 . S
O100 C106 1.261 . S
C101 O110 1.247 . S
C101 O111 1.272 . S
O102 Co98 2.004 . S
O102 C107 1.259 . S
Co103 O104 2.061 . S
Co103 O109 2.052 . S
Co103 O111 2.135 . S
O104 Co103 2.061 . S
O104 C107 1.235 . S
C105 O108 1.238 . S
C105 O109 1.241 . S
C106 O99 1.247 . S
C106 O100 1.261 . S
C107 O102 1.259 . S
C107 O104 1.235 . S
O108 Co98 2.021 . S
O108 C105 1.238 . S
O109 Co103 2.052 . S
O109 C105 1.241 . S
O110 Co98 2.137 . S
O110 C101 1.247 . S
O111 Co98 2.244 . S
O111 C101 1.272 . S
O111 Co103 2.135 . S
Co112 O113 2.216 . S
Co112 O114 2.091 . S
Co112 O116 2.004 . S
Co112 O122 2.021 . S
Co112 O124 2.137 . S
Co112 O125 2.244 . S
O113 Co112 2.216 . S
O113 C120 1.247 . S
O114 Co112 2.091 . S
O114 C120 1.261 . S
C115 O124 1.247 . S
C115 O125 1.272 . S
O116 Co112 2.004 . S
O116 C121 1.259 . S
Co117 O118 2.061 . S
Co117 O123 2.052 . S
Co117 O125 2.135 . S
O118 Co117 2.061 . S
O118 C121 1.235 . S
C119 O122 1.238 . S
C119 O123 1.241 . S
C120 O113 1.247 . S
C120 O114 1.261 . S
C121 O116 1.259 . S
C121 O118 1.235 . S
O122 Co112 2.021 . S
O122 C119 1.238 . S
O123 Co117 2.052 . S
O123 C119 1.241 . S
O124 Co112 2.137 . S
O124 C115 1.247 . S
O125 Co112 2.244 . S
O125 C115 1.272 . S
O125 Co117 2.135 . S
Co126 O127 2.216 . S
Co126 O128 2.091 . S
Co126 O130 2.004 . S
Co126 O136 2.021 . S
Co126 O138 2.137 . S
Co126 O139 2.244 . S
O127 Co126 2.216 . S
O127 C134 1.247 . S
O128 Co126 2.091 . S
O128 C134 1.261 . S
C129 O138 1.247 . S
C129 O139 1.272 . S
O130 Co126 2.004 . S
O130 C135 1.259 . S
Co131 O132 2.061 . S
Co131 O137 2.052 . S
Co131 O139 2.135 . S
O132 Co131 2.061 . S
O132 C135 1.235 . S
C133 O136 1.238 . S
C133 O137 1.241 . S
C134 O127 1.247 . S
C134 O128 1.261 . S
C135 O130 1.259 . S
C135 O132 1.235 . S
O136 Co126 2.021 . S
O136 C133 1.238 . S
O137 Co131 2.052 . S
O137 C133 1.241 . S
O138 Co126 2.137 . S
O138 C129 1.247 . S
O139 Co126 2.244 . S
O139 C129 1.272 . S
O139 Co131 2.135 . S
Co140 O141 2.216 . S
Co140 O142 2.091 . S
Co140 O144 2.004 . S
Co140 O150 2.021 . S
Co140 O152 2.137 . S
Co140 O153 2.244 . S
O141 Co140 2.216 . S
O141 C148 1.247 . S
O142 Co140 2.091 . S
O142 C148 1.261 . S
C143 O152 1.247 . S
C143 O153 1.272 . S
O144 Co140 2.004 . S
O144 C149 1.259 . S
Co145 O146 2.061 . S
Co145 O151 2.052 . S
Co145 O153 2.135 . S
O146 Co145 2.061 . S
O146 C149 1.235 . S
C147 O150 1.238 . S
C147 O151 1.241 . S
C148 O141 1.247 . S
C148 O142 1.261 . S
C149 O144 1.259 . S
C149 O146 1.235 . S
O150 Co140 2.021 . S
O150 C147 1.238 . S
O151 Co145 2.052 . S
O151 C147 1.241 . S
O152 Co140 2.137 . S
O152 C143 1.247 . S
O153 Co140 2.244 . S
O153 C143 1.272 . S
O153 Co145 2.135 . S
Co154 O155 2.216 . S
Co154 O156 2.091 . S
Co154 O158 2.004 . S
Co154 O164 2.021 . S
Co154 O166 2.137 . S
Co154 O167 2.244 . S
O155 Co154 2.216 . S
O155 C162 1.247 . S
O156 Co154 2.091 . S
O156 C162 1.261 . S
C157 O166 1.247 . S
C157 O167 1.272 . S
O158 Co154 2.004 . S
O158 C163 1.259 . S
Co159 O160 2.061 . S
Co159 O165 2.052 . S
Co159 O167 2.135 . S
O160 Co159 2.061 . S
O160 C163 1.235 . S
C161 O164 1.238 . S
C161 O165 1.241 . S
C162 O155 1.247 . S
C162 O156 1.261 . S
C163 O158 1.259 . S
C163 O160 1.235 . S
O164 Co154 2.021 . S
O164 C161 1.238 . S
O165 Co159 2.052 . S
O165 C161 1.241 . S
O166 Co154 2.137 . S
O166 C157 1.247 . S
O167 Co154 2.244 . S
O167 C157 1.272 . S
O167 Co159 2.135 . S
Co168 O169 2.216 . S
Co168 O170 2.091 . S
Co168 O172 2.004 . S
Co168 O178 2.021 . S
Co168 O180 2.137 . S
Co168 O181 2.244 . S
O169 Co168 2.216 . S
O169 C176 1.247 . S
O170 Co168 2.091 . S
O170 C176 1.261 . S
C171 O180 1.247 . S
C171 O181 1.272 . S
O172 Co168 2.004 . S
O172 C177 1.259 . S
Co173 O174 2.061 . S
Co173 O179 2.052 . S
Co173 O181 2.135 . S
O174 Co173 2.061 . S
O174 C177 1.235 . S
C175 O178 1.238 . S
C175 O179 1.241 . S
C176 O169 1.247 . S
C176 O170 1.261 . S
C177 O172 1.259 . S
C177 O174 1.235 . S
O178 Co168 2.021 . S
O178 C175 1.238 . S
O179 Co173 2.052 . S
O179 C175 1.241 . S
O180 Co168 2.137 . S
O180 C171 1.247 . S
O181 Co168 2.244 . S
O181 C171 1.272 . S
O181 Co173 2.135 . S
Co182 O183 2.216 . S
Co182 O184 2.091 . S
Co182 O186 2.004 . S
Co182 O192 2.021 . S
Co182 O194 2.137 . S
Co182 O195 2.244 . S
O183 Co182 2.216 . S
O183 C190 1.247 . S
O184 Co182 2.091 . S
O184 C190 1.261 . S
C185 O194 1.247 . S
C185 O195 1.272 . S
O186 Co182 2.004 . S
O186 C191 1.259 . S
Co187 O188 2.061 . S
Co187 O193 2.052 . S
Co187 O195 2.135 . S
O188 Co187 2.061 . S
O188 C191 1.235 . S
C189 O192 1.238 . S
C189 O193 1.241 . S
C190 O183 1.247 . S
C190 O184 1.261 . S
C191 O186 1.259 . S
C191 O188 1.235 . S
O192 Co182 2.021 . S
O192 C189 1.238 . S
O193 Co187 2.052 . S
O193 C189 1.241 . S
O194 Co182 2.137 . S
O194 C185 1.247 . S
O195 Co182 2.244 . S
O195 C185 1.272 . S
O195 Co187 2.135 . S
Co196 O197 2.216 . S
Co196 O198 2.091 . S
Co196 O200 2.004 . S
Co196 O206 2.021 . S
Co196 O208 2.137 . S
Co196 O209 2.244 . S
O197 Co196 2.216 . S
O197 C204 1.247 . S
O198 Co196 2.091 . S
O198 C204 1.261 . S
C199 O208 1.247 . S
C199 O209 1.272 . S
O200 Co196 2.004 . S
O200 C205 1.259 . S
Co201 O202 2.061 . S
Co201 O207 2.052 . S
Co201 O209 2.135 . S
O202 Co201 2.061 . S
O202 C205 1.235 . S
C203 O206 1.238 . S
C203 O207 1.241 . S
C204 O197 1.247 . S
C204 O198 1.261 . S
C205 O200 1.259 . S
C205 O202 1.235 . S
O206 Co196 2.021 . S
O206 C203 1.238 . S
O207 Co201 2.052 . S
O207 C203 1.241 . S
O208 Co196 2.137 . S
O208 C199 1.247 . S
O209 Co196 2.244 . S
O209 C199 1.272 . S
O209 Co201 2.135 . S
Co210 O211 2.216 . S
Co210 O212 2.091 . S
Co210 O214 2.004 . S
Co210 O220 2.021 . S
Co210 O222 2.137 . S
Co210 O223 2.244 . S
O211 Co210 2.216 . S
O211 C218 1.247 . S
O212 Co210 2.091 . S
O212 C218 1.261 . S
C213 O222 1.247 . S
C213 O223 1.272 . S
O214 Co210 2.004 . S
O214 C219 1.259 . S
Co215 O216 2.061 . S
Co215 O221 2.052 . S
Co215 O223 2.135 . S
O216 Co215 2.061 . S
O216 C219 1.235 . S
C217 O220 1.238 . S
C217 O221 1.241 . S
C218 O211 1.247 . S
C218 O212 1.261 . S
C219 O214 1.259 . S
C219 O216 1.235 . S
O220 Co210 2.021 . S
O220 C217 1.238 . S
O221 Co215 2.052 . S
O221 C217 1.241 . S
O222 Co210 2.137 . S
O222 C213 1.247 . S
O223 Co210 2.244 . S
O223 C213 1.272 . S
O223 Co215 2.135 . S
C224 C225 1.349 . S
C224 C226 1.327 . S
C224 H249 0.950 . S
C225 C224 1.349 . S
C225 C241 1.349 . S
C226 C224 1.327 . S
C226 C245 1.429 . S
C226 H250 0.950 . S
C227 C244 1.574 1_455 S
C227 C246 1.368 . S
C227 H251 0.949 . S
H228 C232 0.949 . S
C229 C230 1.349 . S
C229 C231 1.327 . S
C229 H252 0.950 . S
C230 C229 1.349 . S
C230 C242 1.349 . S
C231 C229 1.327 . S
C231 C247 1.429 . S
C231 H253 0.950 . S
C232 H228 0.949 . S
C232 C240 1.574 1_655 S
C232 C248 1.368 . S
H233 C241 0.950 . S
H234 C239 0.950 . S
H235 C240 0.949 . S
H236 C242 0.950 . S
H237 C243 0.950 . S
H238 C244 0.949 . S
C239 H234 0.950 . S
C239 C241 1.327 . S
C239 C245 1.429 . S
C240 C232 1.574 1_455 S
C240 H235 0.949 . S
C240 C246 1.368 . S
C241 C225 1.349 . S
C241 H233 0.950 . S
C241 C239 1.327 . S
C242 C230 1.349 . S
C242 H236 0.950 . S
C242 C243 1.327 . S
C243 H237 0.950 . S
C243 C242 1.327 . S
C243 C247 1.429 . S
C244 C227 1.574 1_655 S
C244 H238 0.949 . S
C244 C248 1.368 . S
C245 C226 1.429 . S
C245 C239 1.429 . S
C245 C246 1.523 . S
C246 C227 1.368 . S
C246 C240 1.368 . S
C246 C245 1.523 . S
C247 C231 1.429 . S
C247 C243 1.429 . S
C247 C248 1.523 . S
C248 C232 1.368 . S
C248 C244 1.368 . S
C248 C247 1.523 . S
H249 C224 0.950 . S
H250 C226 0.950 . S
H251 C227 0.949 . S
H252 C229 0.950 . S
H253 C231 0.950 . S
C254 C255 1.349 . S
C254 C256 1.327 . S
C254 H279 0.950 . S
C255 C254 1.349 . S
C255 C271 1.349 . S
C256 C254 1.327 . S
C256 C275 1.429 . S
C256 H280 0.950 . S
C257 C274 1.574 1_655 S
C257 C276 1.368 . S
C257 H281 0.949 . S
H258 C262 0.949 . S
C259 C260 1.349 . S
C259 C261 1.327 . S
C259 H282 0.950 . S
C260 C259 1.349 . S
C260 C272 1.349 . S
C261 C259 1.327 . S
C261 C277 1.429 . S
C261 H283 0.950 . S
C262 H258 0.949 . S
C262 C270 1.574 1_455 S
C262 C278 1.368 . S
H263 C271 0.950 . S
H264 C269 0.950 . S
H265 C270 0.949 . S
H266 C272 0.950 . S
H267 C273 0.950 . S
H268 C274 0.949 . S
C269 H264 0.950 . S
C269 C271 1.327 . S
C269 C275 1.429 . S
C270 C262 1.574 1_655 S
C270 H265 0.949 . S
C270 C276 1.368 . S
C271 C255 1.349 . S
C271 H263 0.950 . S
C271 C269 1.327 . S
C272 C260 1.349 . S
C272 H266 0.950 . S
C272 C273 1.327 . S
C273 H267 0.950 . S
C273 C272 1.327 . S
C273 C277 1.429 . S
C274 C257 1.574 1_455 S
C274 H268 0.949 . S
C274 C278 1.368 . S
C275 C256 1.429 . S
C275 C269 1.429 . S
C275 C276 1.523 . S
C276 C257 1.368 . S
C276 C270 1.368 . S
C276 C275 1.523 . S
C277 C261 1.429 . S
C277 C273 1.429 . S
C277 C278 1.523 . S
C278 C262 1.368 . S
C278 C274 1.368 . S
C278 C277 1.523 . S
H279 C254 0.950 . S
H280 C256 0.950 . S
H281 C257 0.949 . S
H282 C259 0.950 . S
H283 C261 0.950 . S
C284 C285 1.349 . S
C284 C286 1.327 . S
C284 H309 0.950 . S
C285 C284 1.349 . S
C285 C301 1.349 . S
C286 C284 1.327 . S
C286 C305 1.429 . S
C286 H310 0.950 . S
C287 C304 1.574 1_655 S
C287 C306 1.368 . S
C287 H311 0.949 . S
H288 C292 0.949 . S
C289 C290 1.349 . S
C289 C291 1.327 . S
C289 H312 0.950 . S
C290 C289 1.349 . S
C290 C302 1.349 . S
C291 C289 1.327 . S
C291 C307 1.429 . S
C291 H313 0.950 . S
C292 H288 0.949 . S
C292 C300 1.574 1_455 S
C292 C308 1.368 . S
H293 C301 0.950 . S
H294 C299 0.950 . S
H295 C300 0.949 . S
H296 C302 0.950 . S
H297 C303 0.950 . S
H298 C304 0.949 . S
C299 H294 0.950 . S
C299 C301 1.327 . S
C299 C305 1.429 . S
C300 C292 1.574 1_655 S
C300 H295 0.949 . S
C300 C306 1.368 . S
C301 C285 1.349 . S
C301 H293 0.950 . S
C301 C299 1.327 . S
C302 C290 1.349 . S
C302 H296 0.950 . S
C302 C303 1.327 . S
C303 H297 0.950 . S
C303 C302 1.327 . S
C303 C307 1.429 . S
C304 C287 1.574 1_455 S
C304 H298 0.949 . S
C304 C308 1.368 . S
C305 C286 1.429 . S
C305 C299 1.429 . S
C305 C306 1.523 . S
C306 C287 1.368 . S
C306 C300 1.368 . S
C306 C305 1.523 . S
C307 C291 1.429 . S
C307 C303 1.429 . S
C307 C308 1.523 . S
C308 C292 1.368 . S
C308 C304 1.368 . S
C308 C307 1.523 . S
H309 C284 0.950 . S
H310 C286 0.950 . S
H311 C287 0.949 . S
H312 C289 0.950 . S
H313 C291 0.950 . S
C314 C315 1.349 . S
C314 C316 1.327 . S
C314 H339 0.950 . S
C315 C314 1.349 . S
C315 C331 1.349 . S
C316 C314 1.327 . S
C316 C335 1.429 . S
C316 H340 0.950 . S
C317 C334 1.574 1_455 S
C317 C336 1.368 . S
C317 H341 0.949 . S
H318 C322 0.949 . S
C319 C320 1.349 . S
C319 C321 1.327 . S
C319 H342 0.950 . S
C320 C319 1.349 . S
C320 C332 1.349 . S
C321 C319 1.327 . S
C321 C337 1.429 . S
C321 H343 0.950 . S
C322 H318 0.949 . S
C322 C330 1.574 1_655 S
C322 C338 1.368 . S
H323 C331 0.950 . S
H324 C329 0.950 . S
H325 C330 0.949 . S
H326 C332 0.950 . S
H327 C333 0.950 . S
H328 C334 0.949 . S
C329 H324 0.950 . S
C329 C331 1.327 . S
C329 C335 1.429 . S
C330 C322 1.574 1_455 S
C330 H325 0.949 . S
C330 C336 1.368 . S
C331 C315 1.349 . S
C331 H323 0.950 . S
C331 C329 1.327 . S
C332 C320 1.349 . S
C332 H326 0.950 . S
C332 C333 1.327 . S
C333 H327 0.950 . S
C333 C332 1.327 . S
C333 C337 1.429 . S
C334 C317 1.574 1_655 S
C334 H328 0.949 . S
C334 C338 1.368 . S
C335 C316 1.429 . S
C335 C329 1.429 . S
C335 C336 1.523 . S
C336 C317 1.368 . S
C336 C330 1.368 . S
C336 C335 1.523 . S
C337 C321 1.429 . S
C337 C333 1.429 . S
C337 C338 1.523 . S
C338 C322 1.368 . S
C338 C334 1.368 . S
C338 C337 1.523 . S
H339 C314 0.950 . S
H340 C316 0.950 . S
H341 C317 0.949 . S
H342 C319 0.950 . S
H343 C321 0.950 . S
C344 C345 1.349 . S
C344 C346 1.327 . S
C344 H369 0.950 . S
C345 C344 1.349 . S
C345 C361 1.349 . S
C346 C344 1.327 . S
C346 C365 1.429 . S
C346 H370 0.950 . S
C347 C364 1.574 . S
C347 C366 1.368 . S
C347 H371 0.949 . S
H348 C352 0.949 . S
C349 C350 1.349 . S
C349 C351 1.327 . S
C349 H372 0.950 . S
C350 C349 1.349 . S
C350 C362 1.349 . S
C351 C349 1.327 . S
C351 C367 1.429 . S
C351 H373 0.950 . S
C352 H348 0.949 . S
C352 C360 1.574 . S
C352 C368 1.368 . S
H353 C361 0.950 . S
H354 C359 0.950 . S
H355 C360 0.949 . S
H356 C362 0.950 . S
H357 C363 0.950 . S
H358 C364 0.949 . S
C359 H354 0.950 . S
C359 C361 1.327 . S
C359 C365 1.429 . S
C360 C352 1.574 . S
C360 H355 0.949 . S
C360 C366 1.368 . S
C361 C345 1.349 . S
C361 H353 0.950 . S
C361 C359 1.327 . S
C362 C350 1.349 . S
C362 H356 0.950 . S
C362 C363 1.327 . S
C363 H357 0.950 . S
C363 C362 1.327 . S
C363 C367 1.429 . S
C364 C347 1.574 . S
C364 H358 0.949 . S
C364 C368 1.368 . S
C365 C346 1.429 . S
C365 C359 1.429 . S
C365 C366 1.523 . S
C366 C347 1.368 . S
C366 C360 1.368 . S
C366 C365 1.523 . S
C367 C351 1.429 . S
C367 C363 1.429 . S
C367 C368 1.523 . S
C368 C352 1.368 . S
C368 C364 1.368 . S
C368 C367 1.523 . S
H369 C344 0.950 . S
H370 C346 0.950 . S
H371 C347 0.949 . S
H372 C349 0.950 . S
H373 C351 0.950 . S
C374 C375 1.349 . S
C374 C376 1.327 . S
C374 H399 0.950 . S
C375 C374 1.349 . S
C375 C391 1.349 . S
C376 C374 1.327 . S
C376 C395 1.429 . S
C376 H400 0.950 . S
C377 C394 1.574 . S
C377 C396 1.368 . S
C377 H401 0.949 . S
H378 C382 0.949 . S
C379 C380 1.349 . S
C379 C381 1.327 . S
C379 H402 0.950 . S
C380 C379 1.349 . S
C380 C392 1.349 . S
C381 C379 1.327 . S
C381 C397 1.429 . S
C381 H403 0.950 . S
C382 H378 0.949 . S
C382 C390 1.574 . S
C382 C398 1.368 . S
H383 C391 0.950 . S
H384 C389 0.950 . S
H385 C390 0.949 . S
H386 C392 0.950 . S
H387 C393 0.950 . S
H388 C394 0.949 . S
C389 H384 0.950 . S
C389 C391 1.327 . S
C389 C395 1.429 . S
C390 C382 1.574 . S
C390 H385 0.949 . S
C390 C396 1.368 . S
C391 C375 1.349 . S
C391 H383 0.950 . S
C391 C389 1.327 . S
C392 C380 1.349 . S
C392 H386 0.950 . S
C392 C393 1.327 . S
C393 H387 0.950 . S
C393 C392 1.327 . S
C393 C397 1.429 . S
C394 C377 1.574 . S
C394 H388 0.949 . S
C394 C398 1.368 . S
C395 C376 1.429 . S
C395 C389 1.429 . S
C395 C396 1.523 . S
C396 C377 1.368 . S
C396 C390 1.368 . S
C396 C395 1.523 . S
C397 C381 1.429 . S
C397 C393 1.429 . S
C397 C398 1.523 . S
C398 C382 1.368 . S
C398 C394 1.368 . S
C398 C397 1.523 . S
H399 C374 0.950 . S
H400 C376 0.950 . S
H401 C377 0.949 . S
H402 C379 0.950 . S
H403 C381 0.950 . S
C404 C405 1.349 . S
C404 C406 1.327 . S
C404 H429 0.950 . S
C405 C404 1.349 . S
C405 C421 1.349 . S
C406 C404 1.327 . S
C406 C425 1.429 . S
C406 H430 0.950 . S
C407 C424 1.574 . S
C407 C426 1.368 . S
C407 H431 0.949 . S
H408 C412 0.949 . S
C409 C410 1.349 . S
C409 C411 1.327 . S
C409 H432 0.950 . S
C410 C409 1.349 . S
C410 C422 1.349 . S
C411 C409 1.327 . S
C411 C427 1.429 . S
C411 H433 0.950 . S
C412 H408 0.949 . S
C412 C420 1.574 . S
C412 C428 1.368 . S
H413 C421 0.950 . S
H414 C419 0.950 . S
H415 C420 0.949 . S
H416 C422 0.950 . S
H417 C423 0.950 . S
H418 C424 0.949 . S
C419 H414 0.950 . S
C419 C421 1.327 . S
C419 C425 1.429 . S
C420 C412 1.574 . S
C420 H415 0.949 . S
C420 C426 1.368 . S
C421 C405 1.349 . S
C421 H413 0.950 . S
C421 C419 1.327 . S
C422 C410 1.349 . S
C422 H416 0.950 . S
C422 C423 1.327 . S
C423 H417 0.950 . S
C423 C422 1.327 . S
C423 C427 1.429 . S
C424 C407 1.574 . S
C424 H418 0.949 . S
C424 C428 1.368 . S
C425 C406 1.429 . S
C425 C419 1.429 . S
C425 C426 1.523 . S
C426 C407 1.368 . S
C426 C420 1.368 . S
C426 C425 1.523 . S
C427 C411 1.429 . S
C427 C423 1.429 . S
C427 C428 1.523 . S
C428 C412 1.368 . S
C428 C424 1.368 . S
C428 C427 1.523 . S
H429 C404 0.950 . S
H430 C406 0.950 . S
H431 C407 0.949 . S
H432 C409 0.950 . S
H433 C411 0.950 . S
C434 C435 1.349 . S
C434 C436 1.327 . S
C434 H459 0.950 . S
C435 C434 1.349 . S
C435 C451 1.349 . S
C436 C434 1.327 . S
C436 C455 1.429 . S
C436 H460 0.950 . S
C437 C454 1.574 . S
C437 C456 1.368 . S
C437 H461 0.949 . S
H438 C442 0.949 . S
C439 C440 1.349 . S
C439 C441 1.327 . S
C439 H462 0.950 . S
C440 C439 1.349 . S
C440 C452 1.349 . S
C441 C439 1.327 . S
C441 C457 1.429 . S
C441 H463 0.950 . S
C442 H438 0.949 . S
C442 C450 1.574 . S
C442 C458 1.368 . S
H443 C451 0.950 . S
H444 C449 0.950 . S
H445 C450 0.949 . S
H446 C452 0.950 . S
H447 C453 0.950 . S
H448 C454 0.949 . S
C449 H444 0.950 . S
C449 C451 1.327 . S
C449 C455 1.429 . S
C450 C442 1.574 . S
C450 H445 0.949 . S
C450 C456 1.368 . S
C451 C435 1.349 . S
C451 H443 0.950 . S
C451 C449 1.327 . S
C452 C440 1.349 . S
C452 H446 0.950 . S
C452 C453 1.327 . S
C453 H447 0.950 . S
C453 C452 1.327 . S
C453 C457 1.429 . S
C454 C437 1.574 . S
C454 H448 0.949 . S
C454 C458 1.368 . S
C455 C436 1.429 . S
C455 C449 1.429 . S
C455 C456 1.523 . S
C456 C437 1.368 . S
C456 C450 1.368 . S
C456 C455 1.523 . S
C457 C441 1.429 . S
C457 C453 1.429 . S
C457 C458 1.523 . S
C458 C442 1.368 . S
C458 C454 1.368 . S
C458 C457 1.523 . S
H459 C434 0.950 . S
H460 C436 0.950 . S
H461 C437 0.949 . S
H462 C439 0.950 . S
H463 C441 0.950 . S
C464 C465 1.349 . S
C464 C466 1.327 . S
C464 H489 0.950 . S
C465 C464 1.349 . S
C465 C481 1.349 . S
C466 C464 1.327 . S
C466 C485 1.429 . S
C466 H490 0.950 . S
C467 C484 1.574 . S
C467 C486 1.368 . S
C467 H491 0.949 . S
H468 C472 0.949 . S
C469 C470 1.349 . S
C469 C471 1.327 . S
C469 H492 0.950 . S
C470 C469 1.349 . S
C470 C482 1.349 . S
C471 C469 1.327 . S
C471 C487 1.429 . S
C471 H493 0.950 . S
C472 H468 0.949 . S
C472 C480 1.574 . S
C472 C488 1.368 . S
H473 C481 0.950 . S
H474 C479 0.950 . S
H475 C480 0.949 . S
H476 C482 0.950 . S
H477 C483 0.950 . S
H478 C484 0.949 . S
C479 H474 0.950 . S
C479 C481 1.327 . S
C479 C485 1.429 . S
C480 C472 1.574 . S
C480 H475 0.949 . S
C480 C486 1.368 . S
C481 C465 1.349 . S
C481 H473 0.950 . S
C481 C479 1.327 . S
C482 C470 1.349 . S
C482 H476 0.950 . S
C482 C483 1.327 . S
C483 H477 0.950 . S
C483 C482 1.327 . S
C483 C487 1.429 . S
C484 C467 1.574 . S
C484 H478 0.949 . S
C484 C488 1.368 . S
C485 C466 1.429 . S
C485 C479 1.429 . S
C485 C486 1.523 . S
C486 C467 1.368 . S
C486 C480 1.368 . S
C486 C485 1.523 . S
C487 C471 1.429 . S
C487 C483 1.429 . S
C487 C488 1.523 . S
C488 C472 1.368 . S
C488 C484 1.368 . S
C488 C487 1.523 . S
H489 C464 0.950 . S
H490 C466 0.950 . S
H491 C467 0.949 . S
H492 C469 0.950 . S
H493 C471 0.950 . S
C494 C495 1.349 . S
C494 C496 1.327 . S
C494 H519 0.950 . S
C495 C494 1.349 . S
C495 C511 1.349 . S
C496 C494 1.327 . S
C496 C515 1.429 . S
C496 H520 0.950 . S
C497 C514 1.574 . S
C497 C516 1.368 . S
C497 H521 0.949 . S
H498 C502 0.949 . S
C499 C500 1.349 . S
C499 C501 1.327 . S
C499 H522 0.950 . S
C500 C499 1.349 . S
C500 C512 1.349 . S
C501 C499 1.327 . S
C501 C517 1.429 . S
C501 H523 0.950 . S
C502 H498 0.949 . S
C502 C510 1.574 . S
C502 C518 1.368 . S
H503 C511 0.950 . S
H504 C509 0.950 . S
H505 C510 0.949 . S
H506 C512 0.950 . S
H507 C513 0.950 . S
H508 C514 0.949 . S
C509 H504 0.950 . S
C509 C511 1.327 . S
C509 C515 1.429 . S
C510 C502 1.574 . S
C510 H505 0.949 . S
C510 C516 1.368 . S
C511 C495 1.349 . S
C511 H503 0.950 . S
C511 C509 1.327 . S
C512 C500 1.349 . S
C512 H506 0.950 . S
C512 C513 1.327 . S
C513 H507 0.950 . S
C513 C512 1.327 . S
C513 C517 1.429 . S
C514 C497 1.574 . S
C514 H508 0.949 . S
C514 C518 1.368 . S
C515 C496 1.429 . S
C515 C509 1.429 . S
C515 C516 1.523 . S
C516 C497 1.368 . S
C516 C510 1.368 . S
C516 C515 1.523 . S
C517 C501 1.429 . S
C517 C513 1.429 . S
C517 C518 1.523 . S
C518 C502 1.368 . S
C518 C514 1.368 . S
C518 C517 1.523 . S
H519 C494 0.950 . S
H520 C496 0.950 . S
H521 C497 0.949 . S
H522 C499 0.950 . S
H523 C501 0.950 . S
C524 C525 1.349 . S
C524 C526 1.327 . S
C524 H549 0.950 . S
C525 C524 1.349 . S
C525 C541 1.349 . S
C526 C524 1.327 . S
C526 C545 1.429 . S
C526 H550 0.950 . S
C527 C544 1.574 . S
C527 C546 1.368 . S
C527 H551 0.949 . S
H528 C532 0.949 . S
C529 C530 1.349 . S
C529 C531 1.327 . S
C529 H552 0.950 . S
C530 C529 1.349 . S
C530 C542 1.349 . S
C531 C529 1.327 . S
C531 C547 1.429 . S
C531 H553 0.950 . S
C532 H528 0.949 . S
C532 C540 1.574 . S
C532 C548 1.368 . S
H533 C541 0.950 . S
H534 C539 0.950 . S
H535 C540 0.949 . S
H536 C542 0.950 . S
H537 C543 0.950 . S
H538 C544 0.949 . S
C539 H534 0.950 . S
C539 C541 1.327 . S
C539 C545 1.429 . S
C540 C532 1.574 . S
C540 H535 0.949 . S
C540 C546 1.368 . S
C541 C525 1.349 . S
C541 H533 0.950 . S
C541 C539 1.327 . S
C542 C530 1.349 . S
C542 H536 0.950 . S
C542 C543 1.327 . S
C543 H537 0.950 . S
C543 C542 1.327 . S
C543 C547 1.429 . S
C544 C527 1.574 . S
C544 H538 0.949 . S
C544 C548 1.368 . S
C545 C526 1.429 . S
C545 C539 1.429 . S
C545 C546 1.523 . S
C546 C527 1.368 . S
C546 C540 1.368 . S
C546 C545 1.523 . S
C547 C531 1.429 . S
C547 C543 1.429 . S
C547 C548 1.523 . S
C548 C532 1.368 . S
C548 C544 1.368 . S
C548 C547 1.523 . S
H549 C524 0.950 . S
H550 C526 0.950 . S
H551 C527 0.949 . S
H552 C529 0.950 . S
H553 C531 0.950 . S
C554 C555 1.349 . S
C554 C556 1.327 . S
C554 H579 0.950 . S
C555 C554 1.349 . S
C555 C571 1.349 . S
C556 C554 1.327 . S
C556 C575 1.429 . S
C556 H580 0.950 . S
C557 C574 1.574 . S
C557 C576 1.368 . S
C557 H581 0.949 . S
H558 C562 0.949 . S
C559 C560 1.349 . S
C559 C561 1.327 . S
C559 H582 0.950 . S
C560 C559 1.349 . S
C560 C572 1.349 . S
C561 C559 1.327 . S
C561 C577 1.429 . S
C561 H583 0.950 . S
C562 H558 0.949 . S
C562 C570 1.574 . S
C562 C578 1.368 . S
H563 C571 0.950 . S
H564 C569 0.950 . S
H565 C570 0.949 . S
H566 C572 0.950 . S
H567 C573 0.950 . S
H568 C574 0.949 . S
C569 H564 0.950 . S
C569 C571 1.327 . S
C569 C575 1.429 . S
C570 C562 1.574 . S
C570 H565 0.949 . S
C570 C576 1.368 . S
C571 C555 1.349 . S
C571 H563 0.950 . S
C571 C569 1.327 . S
C572 C560 1.349 . S
C572 H566 0.950 . S
C572 C573 1.327 . S
C573 H567 0.950 . S
C573 C572 1.327 . S
C573 C577 1.429 . S
C574 C557 1.574 . S
C574 H568 0.949 . S
C574 C578 1.368 . S
C575 C556 1.429 . S
C575 C569 1.429 . S
C575 C576 1.523 . S
C576 C557 1.368 . S
C576 C570 1.368 . S
C576 C575 1.523 . S
C577 C561 1.429 . S
C577 C573 1.429 . S
C577 C578 1.523 . S
C578 C562 1.368 . S
C578 C574 1.368 . S
C578 C577 1.523 . S
H579 C554 0.950 . S
H580 C556 0.950 . S
H581 C557 0.949 . S
H582 C559 0.950 . S
H583 C561 0.950 . S
C584 C585 1.349 . S
C584 C586 1.327 . S
C584 H609 0.950 . S
C585 C584 1.349 . S
C585 C601 1.349 . S
C586 C584 1.327 . S
C586 C605 1.429 . S
C586 H610 0.950 . S
C587 C604 1.574 . S
C587 C606 1.368 . S
C587 H611 0.949 . S
H588 C592 0.949 . S
C589 C590 1.349 . S
C589 C591 1.327 . S
C589 H612 0.950 . S
C590 C589 1.349 . S
C590 C602 1.349 . S
C591 C589 1.327 . S
C591 C607 1.429 . S
C591 H613 0.950 . S
C592 H588 0.949 . S
C592 C600 1.574 . S
C592 C608 1.368 . S
H593 C601 0.950 . S
H594 C599 0.950 . S
H595 C600 0.949 . S
H596 C602 0.950 . S
H597 C603 0.950 . S
H598 C604 0.949 . S
C599 H594 0.950 . S
C599 C601 1.327 . S
C599 C605 1.429 . S
C600 C592 1.574 . S
C600 H595 0.949 . S
C600 C606 1.368 . S
C601 C585 1.349 . S
C601 H593 0.950 . S
C601 C599 1.327 . S
C602 C590 1.349 . S
C602 H596 0.950 . S
C602 C603 1.327 . S
C603 H597 0.950 . S
C603 C602 1.327 . S
C603 C607 1.429 . S
C604 C587 1.574 . S
C604 H598 0.949 . S
C604 C608 1.368 . S
C605 C586 1.429 . S
C605 C599 1.429 . S
C605 C606 1.523 . S
C606 C587 1.368 . S
C606 C600 1.368 . S
C606 C605 1.523 . S
C607 C591 1.429 . S
C607 C603 1.429 . S
C607 C608 1.523 . S
C608 C592 1.368 . S
C608 C604 1.368 . S
C608 C607 1.523 . S
H609 C584 0.950 . S
H610 C586 0.950 . S
H611 C587 0.949 . S
H612 C589 0.950 . S
H613 C591 0.950 . S
C614 C615 1.349 . S
C614 C616 1.327 . S
C614 H639 0.950 . S
C615 C614 1.349 . S
C615 C631 1.349 . S
C616 C614 1.327 . S
C616 C635 1.429 . S
C616 H640 0.950 . S
C617 C634 1.574 . S
C617 C636 1.368 . S
C617 H641 0.949 . S
H618 C622 0.949 . S
C619 C620 1.349 . S
C619 C621 1.327 . S
C619 H642 0.950 . S
C620 C619 1.349 . S
C620 C632 1.349 . S
C621 C619 1.327 . S
C621 C637 1.429 . S
C621 H643 0.950 . S
C622 H618 0.949 . S
C622 C630 1.574 . S
C622 C638 1.368 . S
H623 C631 0.950 . S
H624 C629 0.950 . S
H625 C630 0.949 . S
H626 C632 0.950 . S
H627 C633 0.950 . S
H628 C634 0.949 . S
C629 H624 0.950 . S
C629 C631 1.327 . S
C629 C635 1.429 . S
C630 C622 1.574 . S
C630 H625 0.949 . S
C630 C636 1.368 . S
C631 C615 1.349 . S
C631 H623 0.950 . S
C631 C629 1.327 . S
C632 C620 1.349 . S
C632 H626 0.950 . S
C632 C633 1.327 . S
C633 H627 0.950 . S
C633 C632 1.327 . S
C633 C637 1.429 . S
C634 C617 1.574 . S
C634 H628 0.949 . S
C634 C638 1.368 . S
C635 C616 1.429 . S
C635 C629 1.429 . S
C635 C636 1.523 . S
C636 C617 1.368 . S
C636 C630 1.368 . S
C636 C635 1.523 . S
C637 C621 1.429 . S
C637 C633 1.429 . S
C637 C638 1.523 . S
C638 C622 1.368 . S
C638 C634 1.368 . S
C638 C637 1.523 . S
H639 C614 0.950 . S
H640 C616 0.950 . S
H641 C617 0.949 . S
H642 C619 0.950 . S
H643 C621 0.950 . S
C644 C645 1.349 . S
C644 C646 1.327 . S
C644 H669 0.950 . S
C645 C644 1.349 . S
C645 C661 1.349 . S
C646 C644 1.327 . S
C646 C665 1.429 . S
C646 H670 0.950 . S
C647 C664 1.574 . S
C647 C666 1.368 . S
C647 H671 0.949 . S
H648 C652 0.949 . S
C649 C650 1.349 . S
C649 C651 1.327 . S
C649 H672 0.950 . S
C650 C649 1.349 . S
C650 C662 1.349 . S
C651 C649 1.327 . S
C651 C667 1.429 . S
C651 H673 0.950 . S
C652 H648 0.949 . S
C652 C660 1.574 . S
C652 C668 1.368 . S
H653 C661 0.950 . S
H654 C659 0.950 . S
H655 C660 0.949 . S
H656 C662 0.950 . S
H657 C663 0.950 . S
H658 C664 0.949 . S
C659 H654 0.950 . S
C659 C661 1.327 . S
C659 C665 1.429 . S
C660 C652 1.574 . S
C660 H655 0.949 . S
C660 C666 1.368 . S
C661 C645 1.349 . S
C661 H653 0.950 . S
C661 C659 1.327 . S
C662 C650 1.349 . S
C662 H656 0.950 . S
C662 C663 1.327 . S
C663 H657 0.950 . S
C663 C662 1.327 . S
C663 C667 1.429 . S
C664 C647 1.574 . S
C664 H658 0.949 . S
C664 C668 1.368 . S
C665 C646 1.429 . S
C665 C659 1.429 . S
C665 C666 1.523 . S
C666 C647 1.368 . S
C666 C660 1.368 . S
C666 C665 1.523 . S
C667 C651 1.429 . S
C667 C663 1.429 . S
C667 C668 1.523 . S
C668 C652 1.368 . S
C668 C664 1.368 . S
C668 C667 1.523 . S
H669 C644 0.950 . S
H670 C646 0.950 . S
H671 C647 0.949 . S
H672 C649 0.950 . S
H673 C651 0.950 . S
C674 C675 1.349 . S
C674 C676 1.327 . S
C674 H699 0.950 . S
C675 C674 1.349 . S
C675 C691 1.349 . S
C676 C674 1.327 . S
C676 C695 1.429 . S
C676 H700 0.950 . S
C677 C694 1.574 . S
C677 C696 1.368 . S
C677 H701 0.949 . S
H678 C682 0.949 . S
C679 C680 1.349 . S
C679 C681 1.327 . S
C679 H702 0.950 . S
C680 C679 1.349 . S
C680 C692 1.349 . S
C681 C679 1.327 . S
C681 C697 1.429 . S
C681 H703 0.950 . S
C682 H678 0.949 . S
C682 C690 1.574 . S
C682 C698 1.368 . S
H683 C691 0.950 . S
H684 C689 0.950 . S
H685 C690 0.949 . S
H686 C692 0.950 . S
H687 C693 0.950 . S
H688 C694 0.949 . S
C689 H684 0.950 . S
C689 C691 1.327 . S
C689 C695 1.429 . S
C690 C682 1.574 . S
C690 H685 0.949 . S
C690 C696 1.368 . S
C691 C675 1.349 . S
C691 H683 0.950 . S
C691 C689 1.327 . S
C692 C680 1.349 . S
C692 H686 0.950 . S
C692 C693 1.327 . S
C693 H687 0.950 . S
C693 C692 1.327 . S
C693 C697 1.429 . S
C694 C677 1.574 . S
C694 H688 0.949 . S
C694 C698 1.368 . S
C695 C676 1.429 . S
C695 C689 1.429 . S
C695 C696 1.523 . S
C696 C677 1.368 . S
C696 C690 1.368 . S
C696 C695 1.523 . S
C697 C681 1.429 . S
C697 C693 1.429 . S
C697 C698 1.523 . S
C698 C682 1.368 . S
C698 C694 1.368 . S
C698 C697 1.523 . S
H699 C674 0.950 . S
H700 C676 0.950 . S
H701 C677 0.949 . S
H702 C679 0.950 . S
H703 C681 0.950 . S
C704 C705 1.349 . S
C704 C706 1.327 . S
C704 H729 0.950 . S
C705 C704 1.349 . S
C705 C721 1.349 . S
C706 C704 1.327 . S
C706 C725 1.429 . S
C706 H730 0.950 . S
C707 C724 1.574 1_556 S
C707 C726 1.368 . S
C707 H731 0.949 . S
H708 C712 0.949 . S
C709 C710 1.349 . S
C709 C711 1.327 . S
C709 H732 0.950 . S
C710 C709 1.349 . S
C710 C722 1.349 . S
C711 C709 1.327 . S
C711 C727 1.429 . S
C711 H733 0.950 . S
C712 H708 0.949 . S
C712 C720 1.574 1_554 S
C712 C728 1.368 . S
H713 C721 0.950 . S
H714 C719 0.950 . S
H715 C720 0.949 . S
H716 C722 0.950 . S
H717 C723 0.950 . S
H718 C724 0.949 . S
C719 H714 0.950 . S
C719 C721 1.327 . S
C719 C725 1.429 . S
C720 C712 1.574 1_556 S
C720 H715 0.949 . S
C720 C726 1.368 . S
C721 C705 1.349 . S
C721 H713 0.950 . S
C721 C719 1.327 . S
C722 C710 1.349 . S
C722 H716 0.950 . S
C722 C723 1.327 . S
C723 H717 0.950 . S
C723 C722 1.327 . S
C723 C727 1.429 . S
C724 C707 1.574 1_554 S
C724 H718 0.949 . S
C724 C728 1.368 . S
C725 C706 1.429 . S
C725 C719 1.429 . S
C725 C726 1.523 . S
C726 C707 1.368 . S
C726 C720 1.368 . S
C726 C725 1.523 . S
C727 C711 1.429 . S
C727 C723 1.429 . S
C727 C728 1.523 . S
C728 C712 1.368 . S
C728 C724 1.368 . S
C728 C727 1.523 . S
H729 C704 0.950 . S
H730 C706 0.950 . S
H731 C707 0.949 . S
H732 C709 0.950 . S
H733 C711 0.950 . S
C734 C735 1.349 . S
C734 C736 1.327 . S
C734 H759 0.950 . S
C735 C734 1.349 . S
C735 C751 1.349 . S
C736 C734 1.327 . S
C736 C755 1.429 . S
C736 H760 0.950 . S
C737 C754 1.574 . S
C737 C756 1.368 . S
C737 H761 0.949 . S
H738 C742 0.949 . S
C739 C740 1.349 . S
C739 C741 1.327 . S
C739 H762 0.950 . S
C740 C739 1.349 . S
C740 C752 1.349 . S
C741 C739 1.327 . S
C741 C757 1.429 . S
C741 H763 0.950 . S
C742 H738 0.949 . S
C742 C750 1.574 . S
C742 C758 1.368 . S
H743 C751 0.950 . S
H744 C749 0.950 . S
H745 C750 0.949 . S
H746 C752 0.950 . S
H747 C753 0.950 . S
H748 C754 0.949 . S
C749 H744 0.950 . S
C749 C751 1.327 . S
C749 C755 1.429 . S
C750 C742 1.574 . S
C750 H745 0.949 . S
C750 C756 1.368 . S
C751 C735 1.349 . S
C751 H743 0.950 . S
C751 C749 1.327 . S
C752 C740 1.349 . S
C752 H746 0.950 . S
C752 C753 1.327 . S
C753 H747 0.950 . S
C753 C752 1.327 . S
C753 C757 1.429 . S
C754 C737 1.574 . S
C754 H748 0.949 . S
C754 C758 1.368 . S
C755 C736 1.429 . S
C755 C749 1.429 . S
C755 C756 1.523 . S
C756 C737 1.368 . S
C756 C750 1.368 . S
C756 C755 1.523 . S
C757 C741 1.429 . S
C757 C753 1.429 . S
C757 C758 1.523 . S
C758 C742 1.368 . S
C758 C754 1.368 . S
C758 C757 1.523 . S
H759 C734 0.950 . S
H760 C736 0.950 . S
H761 C737 0.949 . S
H762 C739 0.950 . S
H763 C741 0.950 . S
C764 C765 1.349 . S
C764 C766 1.327 . S
C764 H789 0.950 . S
C765 C764 1.349 . S
C765 C781 1.349 . S
C766 C764 1.327 . S
C766 C785 1.429 . S
C766 H790 0.950 . S
C767 C784 1.574 . S
C767 C786 1.368 1_556 S
C767 H791 0.949 . S
H768 C772 0.949 . S
C769 C770 1.349 . S
C769 C771 1.327 . S
C769 H792 0.950 . S
C770 C769 1.349 . S
C770 C782 1.349 . S
C771 C769 1.327 . S
C771 C787 1.429 . S
C771 H793 0.950 . S
C772 H768 0.949 . S
C772 C780 1.574 . S
C772 C788 1.368 1_554 S
H773 C781 0.950 . S
H774 C779 0.950 1_556 S
H775 C780 0.949 . S
H776 C782 0.950 . S
H777 C783 0.950 1_554 S
H778 C784 0.949 . S
C779 H774 0.950 1_554 S
C779 C781 1.327 . S
C779 C785 1.429 . S
C780 C772 1.574 . S
C780 H775 0.949 . S
C780 C786 1.368 . S
C781 C765 1.349 . S
C781 H773 0.950 . S
C781 C779 1.327 . S
C782 C770 1.349 . S
C782 H776 0.950 . S
C782 C783 1.327 . S
C783 H777 0.950 1_556 S
C783 C782 1.327 . S
C783 C787 1.429 . S
C784 C767 1.574 . S
C784 H778 0.949 . S
C784 C788 1.368 . S
C785 C766 1.429 . S
C785 C779 1.429 . S
C785 C786 1.523 . S
C786 C767 1.368 1_554 S
C786 C780 1.368 . S
C786 C785 1.523 . S
C787 C771 1.429 . S
C787 C783 1.429 . S
C787 C788 1.523 . S
C788 C772 1.368 1_556 S
C788 C784 1.368 . S
C788 C787 1.523 . S
H789 C764 0.950 . S
H790 C766 0.950 . S
H791 C767 0.949 . S
H792 C769 0.950 . S
H793 C771 0.950 . S
C794 C795 1.349 . S
C794 C796 1.327 . S
C794 H819 0.950 . S
C795 C794 1.349 . S
C795 C811 1.349 . S
C796 C794 1.327 . S
C796 C815 1.429 . S
C796 H820 0.950 . S
C797 C814 1.574 . S
C797 C816 1.368 . S
C797 H821 0.949 . S
H798 C802 0.949 . S
C799 C800 1.349 . S
C799 C801 1.327 . S
C799 H822 0.950 . S
C800 C799 1.349 . S
C800 C812 1.349 . S
C801 C799 1.327 . S
C801 C817 1.429 . S
C801 H823 0.950 . S
C802 H798 0.949 . S
C802 C810 1.574 . S
C802 C818 1.368 . S
H803 C811 0.950 . S
H804 C809 0.950 . S
H805 C810 0.949 . S
H806 C812 0.950 . S
H807 C813 0.950 . S
H808 C814 0.949 . S
C809 H804 0.950 . S
C809 C811 1.327 . S
C809 C815 1.429 . S
C810 C802 1.574 . S
C810 H805 0.949 . S
C810 C816 1.368 . S
C811 C795 1.349 . S
C811 H803 0.950 . S
C811 C809 1.327 . S
C812 C800 1.349 . S
C812 H806 0.950 . S
C812 C813 1.327 . S
C813 H807 0.950 . S
C813 C812 1.327 . S
C813 C817 1.429 . S
C814 C797 1.574 . S
C814 H808 0.949 . S
C814 C818 1.368 . S
C815 C796 1.429 . S
C815 C809 1.429 . S
C815 C816 1.523 . S
C816 C797 1.368 . S
C816 C810 1.368 . S
C816 C815 1.523 . S
C817 C801 1.429 . S
C817 C813 1.429 . S
C817 C818 1.523 . S
C818 C802 1.368 . S
C818 C814 1.368 . S
C818 C817 1.523 . S
H819 C794 0.950 . S
H820 C796 0.950 . S
H821 C797 0.949 . S
H822 C799 0.950 . S
H823 C801 0.950 . S
C824 C825 1.349 . S
C824 C826 1.327 . S
C824 H849 0.950 . S
C825 C824 1.349 . S
C825 C841 1.349 . S
C826 C824 1.327 . S
C826 C845 1.429 . S
C826 H850 0.950 . S
C827 C844 1.574 1_554 S
C827 C846 1.368 . S
C827 H851 0.949 . S
H828 C832 0.949 . S
C829 C830 1.349 . S
C829 C831 1.327 . S
C829 H852 0.950 . S
C830 C829 1.349 . S
C830 C842 1.349 . S
C831 C829 1.327 . S
C831 C847 1.429 . S
C831 H853 0.950 . S
C832 H828 0.949 . S
C832 C840 1.574 1_556 S
C832 C848 1.368 . S
H833 C841 0.950 . S
H834 C839 0.950 . S
H835 C840 0.949 . S
H836 C842 0.950 . S
H837 C843 0.950 . S
H838 C844 0.949 . S
C839 H834 0.950 . S
C839 C841 1.327 . S
C839 C845 1.429 . S
C840 C832 1.574 1_554 S
C840 H835 0.949 . S
C840 C846 1.368 . S
C841 C825 1.349 . S
C841 H833 0.950 . S
C841 C839 1.327 . S
C842 C830 1.349 . S
C842 H836 0.950 . S
C842 C843 1.327 . S
C843 H837 0.950 . S
C843 C842 1.327 . S
C843 C847 1.429 . S
C844 C827 1.574 1_556 S
C844 H838 0.949 . S
C844 C848 1.368 . S
C845 C826 1.429 . S
C845 C839 1.429 . S
C845 C846 1.523 . S
C846 C827 1.368 . S
C846 C840 1.368 . S
C846 C845 1.523 . S
C847 C831 1.429 . S
C847 C843 1.429 . S
C847 C848 1.523 . S
C848 C832 1.368 . S
C848 C844 1.368 . S
C848 C847 1.523 . S
H849 C824 0.950 . S
H850 C826 0.950 . S
H851 C827 0.949 . S
H852 C829 0.950 . S
H853 C831 0.950 . S
C854 C855 1.349 . S
C854 C856 1.327 . S
C854 H879 0.950 . S
C855 C854 1.349 . S
C855 C871 1.349 . S
C856 C854 1.327 . S
C856 C875 1.429 . S
C856 H880 0.950 . S
C857 C874 1.574 . S
C857 C876 1.368 . S
C857 H881 0.949 . S
H858 C862 0.949 . S
C859 C860 1.349 . S
C859 C861 1.327 . S
C859 H882 0.950 . S
C860 C859 1.349 . S
C860 C872 1.349 . S
C861 C859 1.327 . S
C861 C877 1.429 . S
C861 H883 0.950 . S
C862 H858 0.949 . S
C862 C870 1.574 . S
C862 C878 1.368 . S
H863 C871 0.950 . S
H864 C869 0.950 . S
H865 C870 0.949 . S
H866 C872 0.950 . S
H867 C873 0.950 . S
H868 C874 0.949 . S
C869 H864 0.950 . S
C869 C871 1.327 . S
C869 C875 1.429 . S
C870 C862 1.574 . S
C870 H865 0.949 . S
C870 C876 1.368 . S
C871 C855 1.349 . S
C871 H863 0.950 . S
C871 C869 1.327 . S
C872 C860 1.349 . S
C872 H866 0.950 . S
C872 C873 1.327 . S
C873 H867 0.950 . S
C873 C872 1.327 . S
C873 C877 1.429 . S
C874 C857 1.574 . S
C874 H868 0.949 . S
C874 C878 1.368 . S
C875 C856 1.429 . S
C875 C869 1.429 . S
C875 C876 1.523 . S
C876 C857 1.368 . S
C876 C870 1.368 . S
C876 C875 1.523 . S
C877 C861 1.429 . S
C877 C873 1.429 . S
C877 C878 1.523 . S
C878 C862 1.368 . S
C878 C874 1.368 . S
C878 C877 1.523 . S
H879 C854 0.950 . S
H880 C856 0.950 . S
H881 C857 0.949 . S
H882 C859 0.950 . S
H883 C861 0.950 . S
C884 C885 1.349 . S
C884 C886 1.327 . S
C884 H909 0.950 . S
C885 C884 1.349 . S
C885 C901 1.349 . S
C886 C884 1.327 . S
C886 C905 1.429 . S
C886 H910 0.928 1_554 S
C887 C904 1.574 . S
C887 C906 1.368 . S
C887 H911 0.949 . S
H888 C892 0.949 . S
C889 C890 1.349 . S
C889 C891 1.327 . S
C889 H912 0.950 . S
C890 C889 1.349 . S
C890 C902 1.349 . S
C891 C889 1.327 . S
C891 C907 1.429 . S
C891 H913 0.950 1_556 S
C892 H888 0.949 . S
C892 C900 1.574 . S
C892 C908 1.368 . S
H893 C901 0.950 . S
H894 C899 0.950 . S
H895 C900 0.949 . S
H896 C902 0.950 . S
H897 C903 0.950 . S
H898 C904 0.949 . S
C899 H894 0.950 . S
C899 C901 1.327 . S
C899 C905 1.429 . S
C900 C892 1.574 . S
C900 H895 0.949 . S
C900 C906 1.368 1_556 S
C901 C885 1.349 . S
C901 H893 0.950 . S
C901 C899 1.327 . S
C902 C890 1.349 . S
C902 H896 0.950 . S
C902 C903 1.327 . S
C903 H897 0.950 . S
C903 C902 1.327 . S
C903 C907 1.429 . S
C904 C887 1.574 . S
C904 H898 0.949 . S
C904 C908 1.368 1_554 S
C905 C886 1.429 . S
C905 C899 1.429 . S
C905 C906 1.523 . S
C906 C887 1.368 . S
C906 C900 1.368 1_554 S
C906 C905 1.523 . S
C907 C891 1.429 . S
C907 C903 1.429 . S
C907 C908 1.523 . S
C908 C892 1.368 . S
C908 C904 1.368 1_556 S
C908 C907 1.523 . S
H909 C884 0.950 . S
H910 C886 0.928 1_556 S
H911 C887 0.949 . S
H912 C889 0.950 . S
H913 C891 0.950 1_554 S
C914 C915 1.349 . S
C914 C916 1.327 . S
C914 H939 0.950 . S
C915 C914 1.349 . S
C915 C931 1.349 . S
C916 C914 1.327 . S
C916 C935 1.429 . S
C916 H940 0.950 . S
C917 C934 1.574 . S
C917 C936 1.368 . S
C917 H941 0.949 . S
H918 C922 0.949 . S
C919 C920 1.349 . S
C919 C921 1.327 . S
C919 H942 0.950 . S
C920 C919 1.349 . S
C920 C932 1.349 . S
C921 C919 1.327 . S
C921 C937 1.429 . S
C921 H943 0.950 . S
C922 H918 0.949 . S
C922 C930 1.574 . S
C922 C938 1.368 . S
H923 C931 0.950 . S
H924 C929 0.950 . S
H925 C930 0.949 . S
H926 C932 0.950 . S
H927 C933 0.950 . S
H928 C934 0.949 . S
C929 H924 0.950 . S
C929 C931 1.327 . S
C929 C935 1.429 . S
C930 C922 1.574 . S
C930 H925 0.949 . S
C930 C936 1.368 . S
C931 C915 1.349 . S
C931 H923 0.950 . S
C931 C929 1.327 . S
C932 C920 1.349 . S
C932 H926 0.950 . S
C932 C933 1.327 . S
C933 H927 0.950 . S
C933 C932 1.327 . S
C933 C937 1.429 . S
C934 C917 1.574 . S
C934 H928 0.949 . S
C934 C938 1.368 . S
C935 C916 1.429 . S
C935 C929 1.429 . S
C935 C936 1.523 . S
C936 C917 1.368 . S
C936 C930 1.368 . S
C936 C935 1.523 . S
C937 C921 1.429 . S
C937 C933 1.429 . S
C937 C938 1.523 . S
C938 C922 1.368 . S
C938 C934 1.368 . S
C938 C937 1.523 . S
H939 C914 0.950 . S
H940 C916 0.950 . S
H941 C917 0.949 . S
H942 C919 0.950 . S
H943 C921 0.950 . S
C944 C945 1.349 . S
C944 C946 1.327 . S
C944 H969 0.950 . S
C945 C944 1.349 . S
C945 C961 1.349 . S
C946 C944 1.327 . S
C946 C965 1.429 . S
C946 H970 0.950 . S
C947 C964 1.574 . S
C947 C966 1.368 1_554 S
C947 H971 0.949 . S
H948 C952 0.949 . S
C949 C950 1.349 . S
C949 C951 1.327 . S
C949 H972 0.950 . S
C950 C949 1.349 . S
C950 C962 1.349 . S
C951 C949 1.327 . S
C951 C967 1.429 . S
C951 H973 0.950 . S
C952 H948 0.949 . S
C952 C960 1.574 . S
C952 C968 1.368 1_556 S
H953 C961 0.950 . S
H954 C959 0.950 1_554 S
H955 C960 0.949 . S
H956 C962 0.950 . S
H957 C963 0.950 1_556 S
H958 C964 0.949 . S
C959 H954 0.950 1_556 S
C959 C961 1.327 . S
C959 C965 1.429 . S
C960 C952 1.574 . S
C960 H955 0.949 . S
C960 C966 1.368 . S
C961 C945 1.349 . S
C961 H953 0.950 . S
C961 C959 1.327 . S
C962 C950 1.349 . S
C962 H956 0.950 . S
C962 C963 1.327 . S
C963 H957 0.950 1_554 S
C963 C962 1.327 . S
C963 C967 1.429 . S
C964 C947 1.574 . S
C964 H958 0.949 . S
C964 C968 1.368 . S
C965 C946 1.429 . S
C965 C959 1.429 . S
C965 C966 1.523 . S
C966 C947 1.368 1_556 S
C966 C960 1.368 . S
C966 C965 1.523 . S
C967 C951 1.429 . S
C967 C963 1.429 . S
C967 C968 1.523 . S
C968 C952 1.368 1_554 S
C968 C964 1.368 . S
C968 C967 1.523 . S
H969 C944 0.950 . S
H970 C946 0.950 . S
H971 C947 0.949 . S
H972 C949 0.950 . S
H973 C951 0.950 . S
C974 C975 1.349 . S
C974 C976 1.327 . S
C974 H999 0.950 . S
C975 C974 1.349 . S
C975 C991 1.349 . S
C976 C974 1.327 . S
C976 C995 1.429 . S
C976 H1000 0.950 . S
C977 C994 1.574 . S
C977 C996 1.368 . S
C977 H1001 0.949 . S
H978 C982 0.949 . S
C979 C980 1.349 . S
C979 C981 1.327 . S
C979 H1002 0.950 . S
C980 C979 1.349 . S
C980 C992 1.349 . S
C981 C979 1.327 . S
C981 C997 1.429 . S
C981 H1003 0.950 . S
C982 H978 0.949 . S
C982 C990 1.574 . S
C982 C998 1.368 . S
H983 C991 0.950 . S
H984 C989 0.950 . S
H985 C990 0.949 . S
H986 C992 0.950 . S
H987 C993 0.950 . S
H988 C994 0.949 . S
C989 H984 0.950 . S
C989 C991 1.327 . S
C989 C995 1.429 . S
C990 C982 1.574 . S
C990 H985 0.949 . S
C990 C996 1.368 . S
C991 C975 1.349 . S
C991 H983 0.950 . S
C991 C989 1.327 . S
C992 C980 1.349 . S
C992 H986 0.950 . S
C992 C993 1.327 . S
C993 H987 0.950 . S
C993 C992 1.327 . S
C993 C997 1.429 . S
C994 C977 1.574 . S
C994 H988 0.949 . S
C994 C998 1.368 . S
C995 C976 1.429 . S
C995 C989 1.429 . S
C995 C996 1.523 . S
C996 C977 1.368 . S
C996 C990 1.368 . S
C996 C995 1.523 . S
C997 C981 1.429 . S
C997 C993 1.429 . S
C997 C998 1.523 . S
C998 C982 1.368 . S
C998 C994 1.368 . S
C998 C997 1.523 . S
H999 C974 0.950 . S
H1000 C976 0.950 . S
H1001 C977 0.949 . S
H1002 C979 0.950 . S
H1003 C981 0.950 . S
C1004 C1005 1.349 . S
C1004 C1006 1.327 . S
C1004 H1029 0.950 . S
C1005 C1004 1.349 . S
C1005 C1021 1.349 . S
C1006 C1004 1.327 . S
C1006 C1025 1.429 . S
C1006 H1030 0.950 . S
C1007 C1024 1.574 . S
C1007 C1026 1.368 1_556 S
C1007 H1031 0.949 . S
H1008 C1012 0.949 . S
C1009 C1010 1.349 . S
C1009 C1011 1.327 . S
C1009 H1032 0.950 . S
C1010 C1009 1.349 . S
C1010 C1022 1.349 . S
C1011 C1009 1.327 . S
C1011 C1027 1.429 . S
C1011 H1033 0.950 . S
C1012 H1008 0.949 . S
C1012 C1020 1.574 . S
C1012 C1028 1.368 1_554 S
H1013 C1021 0.950 . S
H1014 C1019 0.950 . S
H1015 C1020 0.949 . S
H1016 C1022 0.950 . S
H1017 C1023 0.950 . S
H1018 C1024 0.949 . S
C1019 H1014 0.950 . S
C1019 C1021 1.327 . S
C1019 C1025 1.429 . S
C1020 C1012 1.574 . S
C1020 H1015 0.949 . S
C1020 C1026 1.368 . S
C1021 C1005 1.349 . S
C1021 H1013 0.950 . S
C1021 C1019 1.327 . S
C1022 C1010 1.349 . S
C1022 H1016 0.950 . S
C1022 C1023 1.327 . S
C1023 H1017 0.950 . S
C1023 C1022 1.327 . S
C1023 C1027 1.429 . S
C1024 C1007 1.574 . S
C1024 H1018 0.949 . S
C1024 C1028 1.368 . S
C1025 C1006 1.429 . S
C1025 C1019 1.429 . S
C1025 C1026 1.523 . S
C1026 C1007 1.368 1_554 S
C1026 C1020 1.368 . S
C1026 C1025 1.523 . S
C1027 C1011 1.429 . S
C1027 C1023 1.429 . S
C1027 C1028 1.523 . S
C1028 C1012 1.368 1_556 S
C1028 C1024 1.368 . S
C1028 C1027 1.523 . S
H1029 C1004 0.950 . S
H1030 C1006 0.950 . S
H1031 C1007 0.949 . S
H1032 C1009 0.950 . S
H1033 C1011 0.950 . S
C1034 C1035 1.349 . S
C1034 C1036 1.327 . S
C1034 H1059 0.950 . S
C1035 C1034 1.349 . S
C1035 C1051 1.349 . S
C1036 C1034 1.327 . S
C1036 C1055 1.429 . S
C1036 H1060 0.950 . S
C1037 C1054 1.574 . S
C1037 C1056 1.368 . S
C1037 H1061 0.949 . S
H1038 C1042 0.949 . S
C1039 C1040 1.349 . S
C1039 C1041 1.327 . S
C1039 H1062 0.950 . S
C1040 C1039 1.349 . S
C1040 C1052 1.349 . S
C1041 C1039 1.327 . S
C1041 C1057 1.429 . S
C1041 H1063 0.950 . S
C1042 H1038 0.949 . S
C1042 C1050 1.574 . S
C1042 C1058 1.368 . S
H1043 C1051 0.950 . S
H1044 C1049 0.950 . S
H1045 C1050 0.949 . S
H1046 C1052 0.950 . S
H1047 C1053 0.950 . S
H1048 C1054 0.949 . S
C1049 H1044 0.950 . S
C1049 C1051 1.327 . S
C1049 C1055 1.429 . S
C1050 C1042 1.574 . S
C1050 H1045 0.949 . S
C1050 C1056 1.368 . S
C1051 C1035 1.349 . S
C1051 H1043 0.950 . S
C1051 C1049 1.327 . S
C1052 C1040 1.349 . S
C1052 H1046 0.950 . S
C1052 C1053 1.327 . S
C1053 H1047 0.950 . S
C1053 C1052 1.327 . S
C1053 C1057 1.429 . S
C1054 C1037 1.574 . S
C1054 H1048 0.949 . S
C1054 C1058 1.368 . S
C1055 C1036 1.429 . S
C1055 C1049 1.429 . S
C1055 C1056 1.523 . S
C1056 C1037 1.368 . S
C1056 C1050 1.368 . S
C1056 C1055 1.523 . S
C1057 C1041 1.429 . S
C1057 C1053 1.429 . S
C1057 C1058 1.523 . S
C1058 C1042 1.368 . S
C1058 C1054 1.368 . S
C1058 C1057 1.523 . S
H1059 C1034 0.950 . S
H1060 C1036 0.950 . S
H1061 C1037 0.949 . S
H1062 C1039 0.950 . S
H1063 C1041 0.950 . S
C1064 C1065 1.349 . S
C1064 C1066 1.327 . S
C1064 H1089 0.950 . S
C1065 C1064 1.349 . S
C1065 C1081 1.349 . S
C1066 C1064 1.327 . S
C1066 C1085 1.429 . S
C1066 H1090 0.950 . S
C1067 C1084 1.574 1_545 S
C1067 C1086 1.368 1_554 S
C1067 H1091 0.949 . S
H1068 C1072 0.949 . S
C1069 C1070 1.349 . S
C1069 C1071 1.327 . S
C1069 H1092 0.950 . S
C1070 C1069 1.349 . S
C1070 C1082 1.349 . S
C1071 C1069 1.327 . S
C1071 C1087 1.429 . S
C1071 H1093 0.950 . S
C1072 H1068 0.949 . S
C1072 C1080 1.574 1_565 S
C1072 C1088 1.368 1_556 S
H1073 C1081 0.950 . S
H1074 C1079 0.950 . S
H1075 C1080 0.949 . S
H1076 C1082 0.950 . S
H1077 C1083 0.950 . S
H1078 C1084 0.949 . S
C1079 H1074 0.950 . S
C1079 C1081 1.327 . S
C1079 C1085 1.429 . S
C1080 C1072 1.574 1_545 S
C1080 H1075 0.949 . S
C1080 C1086 1.368 . S
C1081 C1065 1.349 . S
C1081 H1073 0.950 . S
C1081 C1079 1.327 . S
C1082 C1070 1.349 . S
C1082 H1076 0.950 . S
C1082 C1083 1.327 . S
C1083 H1077 0.950 . S
C1083 C1082 1.327 . S
C1083 C1087 1.429 . S
C1084 C1067 1.574 1_565 S
C1084 H1078 0.949 . S
C1084 C1088 1.368 . S
C1085 C1066 1.429 . S
C1085 C1079 1.429 . S
C1085 C1086 1.523 . S
C1086 C1067 1.368 1_556 S
C1086 C1080 1.368 . S
C1086 C1085 1.523 . S
C1087 C1071 1.429 . S
C1087 C1083 1.429 . S
C1087 C1088 1.523 . S
C1088 C1072 1.368 1_554 S
C1088 C1084 1.368 . S
C1088 C1087 1.523 . S
H1089 C1064 0.950 . S
H1090 C1066 0.950 . S
H1091 C1067 0.949 . S
H1092 C1069 0.950 . S
H1093 C1071 0.950 . S
C1094 C1095 1.349 . S
C1094 C1096 1.327 . S
C1094 H1119 0.950 . S
C1095 C1094 1.349 . S
C1095 C1111 1.349 . S
C1096 C1094 1.327 . S
C1096 C1115 1.429 . S
C1096 H1120 0.950 . S
C1097 C1114 1.574 1_565 S
C1097 C1116 1.368 . S
C1097 H1121 0.949 . S
H1098 C1102 0.949 . S
C1099 C1100 1.349 . S
C1099 C1101 1.327 . S
C1099 H1122 0.950 . S
C1100 C1099 1.349 . S
C1100 C1112 1.349 . S
C1101 C1099 1.327 . S
C1101 C1117 1.429 . S
C1101 H1123 0.950 . S
C1102 H1098 0.949 . S
C1102 C1110 1.574 1_545 S
C1102 C1118 1.368 . S
H1103 C1111 0.950 . S
H1104 C1109 0.950 . S
H1105 C1110 0.949 . S
H1106 C1112 0.950 . S
H1107 C1113 0.950 . S
H1108 C1114 0.949 . S
C1109 H1104 0.950 . S
C1109 C1111 1.327 . S
C1109 C1115 1.429 . S
C1110 C1102 1.574 1_565 S
C1110 H1105 0.949 . S
C1110 C1116 1.368 . S
C1111 C1095 1.349 . S
C1111 H1103 0.950 . S
C1111 C1109 1.327 . S
C1112 C1100 1.349 . S
C1112 H1106 0.950 . S
C1112 C1113 1.327 . S
C1113 H1107 0.950 . S
C1113 C1112 1.327 . S
C1113 C1117 1.429 . S
C1114 C1097 1.574 1_545 S
C1114 H1108 0.949 . S
C1114 C1118 1.368 . S
C1115 C1096 1.429 . S
C1115 C1109 1.429 . S
C1115 C1116 1.523 . S
C1116 C1097 1.368 . S
C1116 C1110 1.368 . S
C1116 C1115 1.523 . S
C1117 C1101 1.429 . S
C1117 C1113 1.429 . S
C1117 C1118 1.523 . S
C1118 C1102 1.368 . S
C1118 C1114 1.368 . S
C1118 C1117 1.523 . S
H1119 C1094 0.950 . S
H1120 C1096 0.950 . S
H1121 C1097 0.949 . S
H1122 C1099 0.950 . S
H1123 C1101 0.950 . S
C1124 C1125 1.349 . S
C1124 C1126 1.327 . S
C1124 H1149 0.950 . S
C1125 C1124 1.349 . S
C1125 C1141 1.349 . S
C1126 C1124 1.327 . S
C1126 C1145 1.429 . S
C1126 H1150 0.950 . S
C1127 C1144 1.574 1_565 S
C1127 C1146 1.368 1_556 S
C1127 H1151 0.949 . S
H1128 C1132 0.949 . S
C1129 C1130 1.349 . S
C1129 C1131 1.327 . S
C1129 H1152 0.950 . S
C1130 C1129 1.349 . S
C1130 C1142 1.349 . S
C1131 C1129 1.327 . S
C1131 C1147 1.429 . S
C1131 H1153 0.950 . S
C1132 H1128 0.949 . S
C1132 C1140 1.574 1_545 S
C1132 C1148 1.368 1_554 S
H1133 C1141 0.950 . S
H1134 C1139 0.950 1_556 S
H1135 C1140 0.949 . S
H1136 C1142 0.950 . S
H1137 C1143 0.950 1_554 S
H1138 C1144 0.949 . S
C1139 H1134 0.950 1_554 S
C1139 C1141 1.327 . S
C1139 C1145 1.429 . S
C1140 C1132 1.574 1_565 S
C1140 H1135 0.949 . S
C1140 C1146 1.368 . S
C1141 C1125 1.349 . S
C1141 H1133 0.950 . S
C1141 C1139 1.327 . S
C1142 C1130 1.349 . S
C1142 H1136 0.950 . S
C1142 C1143 1.327 . S
C1143 H1137 0.950 1_556 S
C1143 C1142 1.327 . S
C1143 C1147 1.429 . S
C1144 C1127 1.574 1_545 S
C1144 H1138 0.949 . S
C1144 C1148 1.368 . S
C1145 C1126 1.429 . S
C1145 C1139 1.429 . S
C1145 C1146 1.523 . S
C1146 C1127 1.368 1_554 S
C1146 C1140 1.368 . S
C1146 C1145 1.523 . S
C1147 C1131 1.429 . S
C1147 C1143 1.429 . S
C1147 C1148 1.523 . S
C1148 C1132 1.368 1_556 S
C1148 C1144 1.368 . S
C1148 C1147 1.523 . S
H1149 C1124 0.950 . S
H1150 C1126 0.950 . S
H1151 C1127 0.949 . S
H1152 C1129 0.950 . S
H1153 C1131 0.950 . S
C1154 C1155 1.349 . S
C1154 C1156 1.327 . S
C1154 H1179 0.950 . S
C1155 C1154 1.349 . S
C1155 C1171 1.349 . S
C1156 C1154 1.327 . S
C1156 C1175 1.429 . S
C1156 H1180 0.950 . S
C1157 C1174 1.574 1_545 S
C1157 C1176 1.368 . S
C1157 H1181 0.949 . S
H1158 C1162 0.949 . S
C1159 C1160 1.349 . S
C1159 C1161 1.327 . S
C1159 H1182 0.950 . S
C1160 C1159 1.349 . S
C1160 C1172 1.349 . S
C1161 C1159 1.327 . S
C1161 C1177 1.429 . S
C1161 H1183 0.950 . S
C1162 H1158 0.949 . S
C1162 C1170 1.574 1_565 S
C1162 C1178 1.368 . S
H1163 C1171 0.950 . S
H1164 C1169 0.950 . S
H1165 C1170 0.949 . S
H1166 C1172 0.950 . S
H1167 C1173 0.950 . S
H1168 C1174 0.949 . S
C1169 H1164 0.950 . S
C1169 C1171 1.327 . S
C1169 C1175 1.429 . S
C1170 C1162 1.574 1_545 S
C1170 H1165 0.949 . S
C1170 C1176 1.368 . S
C1171 C1155 1.349 . S
C1171 H1163 0.950 . S
C1171 C1169 1.327 . S
C1172 C1160 1.349 . S
C1172 H1166 0.950 . S
C1172 C1173 1.327 . S
C1173 H1167 0.950 . S
C1173 C1172 1.327 . S
C1173 C1177 1.429 . S
C1174 C1157 1.574 1_565 S
C1174 H1168 0.949 . S
C1174 C1178 1.368 . S
C1175 C1156 1.429 . S
C1175 C1169 1.429 . S
C1175 C1176 1.523 . S
C1176 C1157 1.368 . S
C1176 C1170 1.368 . S
C1176 C1175 1.523 . S
C1177 C1161 1.429 . S
C1177 C1173 1.429 . S
C1177 C1178 1.523 . S
C1178 C1162 1.368 . S
C1178 C1174 1.368 . S
C1178 C1177 1.523 . S
H1179 C1154 0.950 . S
H1180 C1156 0.950 . S
H1181 C1157 0.949 . S
H1182 C1159 0.950 . S
H1183 C1161 0.950 . S
C225 C9 1.399 . S
C230 C93 1.400 . S
C255 C23 1.399 . S
C260 C107 1.400 . S
C285 C65 1.400 . S
C290 C37 1.399 . S
C315 C79 1.400 . S
C320 C51 1.399 . S
C345 C205 1.400 . S
C350 C121 1.400 . S
C375 C219 1.400 . S
C380 C135 1.400 . S
C405 C149 1.399 . S
C410 C177 1.400 . S
C435 C163 1.399 . S
C440 C191 1.400 . S
C465 C7 1.417 . S
C470 C73 1.475 . S
C495 C21 1.417 . S
C500 C59 1.475 . S
C525 C35 1.417 . S
C530 C101 1.475 . S
C555 C87 1.475 . S
C560 C49 1.417 . S
C585 C185 1.475 . S
C590 C119 1.417 . S
C615 C171 1.475 . S
C620 C133 1.417 . S
C645 C147 1.417 . S
C650 C213 1.475 . S
C675 C199 1.475 . S
C680 C161 1.417 . S
C705 C176 1.357 . S
C710 C8 1.351 . S
C735 C22 1.351 . S
C740 C190 1.357 . S
C765 C204 1.357 . S
C770 C36 1.351 . S
C795 C218 1.357 . S
C800 C50 1.351 . S
C825 C120 1.351 . S
C830 C64 1.357 . S
C855 C134 1.351 . S
C860 C78 1.357 . S
C885 C92 1.357 . S
C890 C148 1.351 . S
C915 C106 1.357 . S
C920 C162 1.351 . S
C945 C31 1.498 . S
C950 C3 1.498 . S
C975 C17 1.498 . S
C980 C45 1.498 . S
C1005 C91 1.406 . S
C1010 C63 1.406 . S
C1035 C77 1.406 . S
C1040 C105 1.406 . S
C1065 C143 1.498 . S
C1070 C115 1.498 . S
C1095 C157 1.498 . S
C1100 C129 1.498 . S
C1125 C203 1.406 . S
C1130 C175 1.406 . S
C1155 C217 1.406 . S
C1160 C189 1.406 . S
