# Generated by pormake.
# Topology tes, (8)-cn, num edge types: 1
# Building blocks:
#     Node 0, Type 0, BuildingBlock: EBIMEJ_clean_sbu_0, # of connection points: 8
#     Node 1, Type 0, BuildingBlock: EBIMEJ_clean_sbu_0, # of connection points: 8
#     Node 2, Type 0, BuildingBlock: EBIMEJ_clean_sbu_0, # of connection points: 8
#     Node 3, Type 0, BuildingBlock: EBIMEJ_clean_sbu_0, # of connection points: 8
#     Node 4, Type 0, BuildingBlock: EBIMEJ_clean_sbu_0, # of connection points: 8
#     Node 5, Type 0, BuildingBlock: EBIMEJ_clean_sbu_0, # of connection points: 8
#     Node 6, Type 0, BuildingBlock: EBIMEJ_clean_sbu_0, # of connection points: 8
#     Node 7, Type 0, BuildingBlock: EBIMEJ_clean_sbu_0, # of connection points: 8
#     Node 8, Type 0, BuildingBlock: EBIMEJ_clean_sbu_0, # of connection points: 8
#     Node 9, Type 0, BuildingBlock: EBIMEJ_clean_sbu_0, # of connection points: 8
#     Node 10, Type 0, BuildingBlock: EBIMEJ_clean_sbu_0, # of connection points: 8
#     Node 11, Type 0, BuildingBlock: EBIMEJ_clean_sbu_0, # of connection points: 8
#     Node 12, Type 0, BuildingBlock: EBIMEJ_clean_sbu_0, # of connection points: 8
#     Node 13, Type 0, BuildingBlock: EBIMEJ_clean_sbu_0, # of connection points: 8
#     Node 14, Type 0, BuildingBlock: EBIMEJ_clean_sbu_0, # of connection points: 8
#     Node 15, Type 0, BuildingBlock: EBIMEJ_clean_sbu_0, # of connection points: 8
#     Node 16, Type 0, BuildingBlock: EBIMEJ_clean_sbu_0, # of connection points: 8
#     Node 17, Type 0, BuildingBlock: EBIMEJ_clean_sbu_0, # of connection points: 8
#     Node 18, Type 0, BuildingBlock: EBIMEJ_clean_sbu_0, # of connection points: 8
#     Node 19, Type 0, BuildingBlock: EBIMEJ_clean_sbu_0, # of connection points: 8
#     Node 20, Type 0, BuildingBlock: EBIMEJ_clean_sbu_0, # of connection points: 8
#     Node 21, Type 0, BuildingBlock: EBIMEJ_clean_sbu_0, # of connection points: 8
#     Node 22, Type 0, BuildingBlock: EBIMEJ_clean_sbu_0, # of connection points: 8
#     Node 23, Type 0, BuildingBlock: EBIMEJ_clean_sbu_0, # of connection points: 8
#     Edge 24, Type (0, 0), BuildingBlock: AJUNOK_clean_linker_0, # of connection points: 2
#     Edge 25, Type (0, 0), BuildingBlock: AJUNOK_clean_linker_0, # of connection points: 2
#     Edge 26, Type (0, 0), BuildingBlock: AJUNOK_clean_linker_0, # of connection points: 2
#     Edge 27, Type (0, 0), BuildingBlock: AJUNOK_clean_linker_0, # of connection points: 2
#     Edge 28, Type (0, 0), BuildingBlock: AJUNOK_clean_linker_0, # of connection points: 2
#     Edge 29, Type (0, 0), BuildingBlock: AJUNOK_clean_linker_0, # of connection points: 2
#     Edge 30, Type (0, 0), BuildingBlock: AJUNOK_clean_linker_0, # of connection points: 2
#     Edge 31, Type (0, 0), BuildingBlock: AJUNOK_clean_linker_0, # of connection points: 2
#     Edge 32, Type (0, 0), BuildingBlock: AJUNOK_clean_linker_0, # of connection points: 2
#     Edge 33, Type (0, 0), BuildingBlock: AJUNOK_clean_linker_0, # of connection points: 2
#     Edge 34, Type (0, 0), BuildingBlock: AJUNOK_clean_linker_0, # of connection points: 2
#     Edge 35, Type (0, 0), BuildingBlock: AJUNOK_clean_linker_0, # of connection points: 2
#     Edge 36, Type (0, 0), BuildingBlock: AJUNOK_clean_linker_0, # of connection points: 2
#     Edge 37, Type (0, 0), BuildingBlock: AJUNOK_clean_linker_0, # of connection points: 2
#     Edge 38, Type (0, 0), BuildingBlock: AJUNOK_clean_linker_0, # of connection points: 2
#     Edge 39, Type (0, 0), BuildingBlock: AJUNOK_clean_linker_0, # of connection points: 2
#     Edge 40, Type (0, 0), BuildingBlock: AJUNOK_clean_linker_0, # of connection points: 2
#     Edge 41, Type (0, 0), BuildingBlock: AJUNOK_clean_linker_0, # of connection points: 2
#     Edge 42, Type (0, 0), BuildingBlock: AJUNOK_clean_linker_0, # of connection points: 2
#     Edge 43, Type (0, 0), BuildingBlock: AJUNOK_clean_linker_0, # of connection points: 2
#     Edge 44, Type (0, 0), BuildingBlock: AJUNOK_clean_linker_0, # of connection points: 2
#     Edge 45, Type (0, 0), BuildingBlock: AJUNOK_clean_linker_0, # of connection points: 2
#     Edge 46, Type (0, 0), BuildingBlock: AJUNOK_clean_linker_0, # of connection points: 2
#     Edge 47, Type (0, 0), BuildingBlock: AJUNOK_clean_linker_0, # of connection points: 2
#     Edge 48, Type (0, 0), BuildingBlock: AJUNOK_clean_linker_0, # of connection points: 2
#     Edge 49, Type (0, 0), BuildingBlock: AJUNOK_clean_linker_0, # of connection points: 2
#     Edge 50, Type (0, 0), BuildingBlock: AJUNOK_clean_linker_0, # of connection points: 2
#     Edge 51, Type (0, 0), BuildingBlock: AJUNOK_clean_linker_0, # of connection points: 2
#     Edge 52, Type (0, 0), BuildingBlock: AJUNOK_clean_linker_0, # of connection points: 2
#     Edge 53, Type (0, 0), BuildingBlock: AJUNOK_clean_linker_0, # of connection points: 2
#     Edge 54, Type (0, 0), BuildingBlock: AJUNOK_clean_linker_0, # of connection points: 2
#     Edge 55, Type (0, 0), BuildingBlock: AJUNOK_clean_linker_0, # of connection points: 2
#     Edge 56, Type (0, 0), BuildingBlock: AJUNOK_clean_linker_0, # of connection points: 2
#     Edge 57, Type (0, 0), BuildingBlock: AJUNOK_clean_linker_0, # of connection points: 2
#     Edge 58, Type (0, 0), BuildingBlock: AJUNOK_clean_linker_0, # of connection points: 2
#     Edge 59, Type (0, 0), BuildingBlock: AJUNOK_clean_linker_0, # of connection points: 2
#     Edge 60, Type (0, 0), BuildingBlock: AJUNOK_clean_linker_0, # of connection points: 2
#     Edge 61, Type (0, 0), BuildingBlock: AJUNOK_clean_linker_0, # of connection points: 2
#     Edge 62, Type (0, 0), BuildingBlock: AJUNOK_clean_linker_0, # of connection points: 2
#     Edge 63, Type (0, 0), BuildingBlock: AJUNOK_clean_linker_0, # of connection points: 2
#     Edge 64, Type (0, 0), BuildingBlock: AJUNOK_clean_linker_0, # of connection points: 2
#     Edge 65, Type (0, 0), BuildingBlock: AJUNOK_clean_linker_0, # of connection points: 2
#     Edge 66, Type (0, 0), BuildingBlock: AJUNOK_clean_linker_0, # of connection points: 2
#     Edge 67, Type (0, 0), BuildingBlock: AJUNOK_clean_linker_0, # of connection points: 2
#     Edge 68, Type (0, 0), BuildingBlock: AJUNOK_clean_linker_0, # of connection points: 2
#     Edge 69, Type (0, 0), BuildingBlock: AJUNOK_clean_linker_0, # of connection points: 2
#     Edge 70, Type (0, 0), BuildingBlock: AJUNOK_clean_linker_0, # of connection points: 2
#     Edge 71, Type (0, 0), BuildingBlock: AJUNOK_clean_linker_0, # of connection points: 2
#     Edge 72, Type (0, 0), BuildingBlock: AJUNOK_clean_linker_0, # of connection points: 2
#     Edge 73, Type (0, 0), BuildingBlock: AJUNOK_clean_linker_0, # of connection points: 2
#     Edge 74, Type (0, 0), BuildingBlock: AJUNOK_clean_linker_0, # of connection points: 2
#     Edge 75, Type (0, 0), BuildingBlock: AJUNOK_clean_linker_0, # of connection points: 2
#     Edge 76, Type (0, 0), BuildingBlock: AJUNOK_clean_linker_0, # of connection points: 2
#     Edge 77, Type (0, 0), BuildingBlock: AJUNOK_clean_linker_0, # of connection points: 2
#     Edge 78, Type (0, 0), BuildingBlock: AJUNOK_clean_linker_0, # of connection points: 2
#     Edge 79, Type (0, 0), BuildingBlock: AJUNOK_clean_linker_0, # of connection points: 2
#     Edge 80, Type (0, 0), BuildingBlock: AJUNOK_clean_linker_0, # of connection points: 2
#     Edge 81, Type (0, 0), BuildingBlock: AJUNOK_clean_linker_0, # of connection points: 2
#     Edge 82, Type (0, 0), BuildingBlock: AJUNOK_clean_linker_0, # of connection points: 2
#     Edge 83, Type (0, 0), BuildingBlock: AJUNOK_clean_linker_0, # of connection points: 2
#     Edge 84, Type (0, 0), BuildingBlock: AJUNOK_clean_linker_0, # of connection points: 2
#     Edge 85, Type (0, 0), BuildingBlock: AJUNOK_clean_linker_0, # of connection points: 2
#     Edge 86, Type (0, 0), BuildingBlock: AJUNOK_clean_linker_0, # of connection points: 2
#     Edge 87, Type (0, 0), BuildingBlock: AJUNOK_clean_linker_0, # of connection points: 2
#     Edge 88, Type (0, 0), BuildingBlock: AJUNOK_clean_linker_0, # of connection points: 2
#     Edge 89, Type (0, 0), BuildingBlock: AJUNOK_clean_linker_0, # of connection points: 2
#     Edge 90, Type (0, 0), BuildingBlock: AJUNOK_clean_linker_0, # of connection points: 2
#     Edge 91, Type (0, 0), BuildingBlock: AJUNOK_clean_linker_0, # of connection points: 2
#     Edge 92, Type (0, 0), BuildingBlock: AJUNOK_clean_linker_0, # of connection points: 2
#     Edge 93, Type (0, 0), BuildingBlock: AJUNOK_clean_linker_0, # of connection points: 2
#     Edge 94, Type (0, 0), BuildingBlock: AJUNOK_clean_linker_0, # of connection points: 2
#     Edge 95, Type (0, 0), BuildingBlock: AJUNOK_clean_linker_0, # of connection points: 2
#     Edge 96, Type (0, 0), BuildingBlock: AJUNOK_clean_linker_0, # of connection points: 2
#     Edge 97, Type (0, 0), BuildingBlock: AJUNOK_clean_linker_0, # of connection points: 2
#     Edge 98, Type (0, 0), BuildingBlock: AJUNOK_clean_linker_0, # of connection points: 2
#     Edge 99, Type (0, 0), BuildingBlock: AJUNOK_clean_linker_0, # of connection points: 2
#     Edge 100, Type (0, 0), BuildingBlock: AJUNOK_clean_linker_0, # of connection points: 2
#     Edge 101, Type (0, 0), BuildingBlock: AJUNOK_clean_linker_0, # of connection points: 2
#     Edge 102, Type (0, 0), BuildingBlock: AJUNOK_clean_linker_0, # of connection points: 2
#     Edge 103, Type (0, 0), BuildingBlock: AJUNOK_clean_linker_0, # of connection points: 2
#     Edge 104, Type (0, 0), BuildingBlock: AJUNOK_clean_linker_0, # of connection points: 2
#     Edge 105, Type (0, 0), BuildingBlock: AJUNOK_clean_linker_0, # of connection points: 2
#     Edge 106, Type (0, 0), BuildingBlock: AJUNOK_clean_linker_0, # of connection points: 2
#     Edge 107, Type (0, 0), BuildingBlock: AJUNOK_clean_linker_0, # of connection points: 2
#     Edge 108, Type (0, 0), BuildingBlock: AJUNOK_clean_linker_0, # of connection points: 2
#     Edge 109, Type (0, 0), BuildingBlock: AJUNOK_clean_linker_0, # of connection points: 2
#     Edge 110, Type (0, 0), BuildingBlock: AJUNOK_clean_linker_0, # of connection points: 2
#     Edge 111, Type (0, 0), BuildingBlock: AJUNOK_clean_linker_0, # of connection points: 2
#     Edge 112, Type (0, 0), BuildingBlock: AJUNOK_clean_linker_0, # of connection points: 2
#     Edge 113, Type (0, 0), BuildingBlock: AJUNOK_clean_linker_0, # of connection points: 2
#     Edge 114, Type (0, 0), BuildingBlock: AJUNOK_clean_linker_0, # of connection points: 2
#     Edge 115, Type (0, 0), BuildingBlock: AJUNOK_clean_linker_0, # of connection points: 2
#     Edge 116, Type (0, 0), BuildingBlock: AJUNOK_clean_linker_0, # of connection points: 2
#     Edge 117, Type (0, 0), BuildingBlock: AJUNOK_clean_linker_0, # of connection points: 2
#     Edge 118, Type (0, 0), BuildingBlock: AJUNOK_clean_linker_0, # of connection points: 2
#     Edge 119, Type (0, 0), BuildingBlock: AJUNOK_clean_linker_0, # of connection points: 2
# Relax obj value: 0.227
# Max RMSD: 0.300
# Mean RMSD: 0.292
data_MOF--net-tes--node1-EBIMEJ_clean_sbu_0--edge1-AJUNOK_clean_linker_0
_symmetry_space_group_name_H-M    P1
_symmetry_Int_Tables_number       1
_symmetry_cell_setting            triclinic
loop_
_symmetry_equiv_pos_as_xyz
'x, y, z'
_cell_length_a     38.523644
_cell_length_b     38.230338
_cell_length_c     39.422435
_cell_angle_alpha  90.731645
_cell_angle_beta   91.912182
_cell_angle_gamma 91.604582
loop_
_atom_site_label
_atom_site_type_symbol
_atom_site_fract_x
_atom_site_fract_y
_atom_site_fract_z
_atom_type_partial_charge
Co0 Co 0.08824 0.38386 0.44836 0.0
Co1 Co 0.13025 0.43284 0.38158 0.0
Co2 Co 0.13815 0.35347 0.39871 0.0
H3 H 0.12079 0.38017 0.42191 0.0
O4 O 0.13178 0.40041 0.42435 0.0
H5 H 0.14867 0.40434 0.36166 0.0
O6 O 0.13633 0.38518 0.35823 0.0
Co7 Co 0.18324 0.39486 0.34036 0.0
O8 O 0.16632 0.43251 0.30801 0.0
O9 O 0.12739 0.46033 0.33822 0.0
O10 O 0.19925 0.34844 0.35961 0.0
O11 O 0.15287 0.31555 0.37018 0.0
O12 O 0.03569 0.38586 0.44808 0.0
O13 O 0.06693 0.41073 0.48637 0.0
O14 O 0.21623 0.43478 0.35546 0.0
O15 O 0.17992 0.45618 0.39217 0.0
C16 C 0.12824 0.32102 0.47016 0.0
C17 C 0.0982 0.46043 0.42818 0.0
C18 C 0.22581 0.37866 0.29997 0.0
C19 C 0.06414 0.32267 0.40965 0.0
C20 C 0.14433 0.45665 0.31104 0.0
C21 C 0.18341 0.31867 0.3598 0.0
C22 C 0.03691 0.40506 0.47406 0.0
C23 C 0.20987 0.4574 0.37804 0.0
O24 O 0.10696 0.34467 0.47799 0.0
O25 O 0.14236 0.32123 0.4408 0.0
O26 O 0.115 0.47484 0.40559 0.0
O27 O 0.09417 0.42774 0.42298 0.0
O28 O 0.23277 0.39729 0.32591 0.0
O29 O 0.19454 0.36838 0.29733 0.0
O30 O 0.06209 0.33824 0.43809 0.0
O31 O 0.08807 0.33224 0.38906 0.0
Co32 Co 0.88445 0.94175 0.59525 0.0
Co33 Co 0.9322 0.88112 0.63537 0.0
Co34 Co 0.85522 0.8918 0.64822 0.0
H35 H 0.87953 0.91659 0.62855 0.0
O36 O 0.89931 0.92111 0.6391 0.0
H37 H 0.90746 0.85626 0.6542 0.0
O38 O 0.88777 0.85218 0.64341 0.0
Co39 Co 0.90217 0.82934 0.68611 0.0
O40 O 0.94317 0.80222 0.66904 0.0
O41 O 0.96512 0.83954 0.63165 0.0
O42 O 0.85989 0.84942 0.70908 0.0
O43 O 0.82128 0.86062 0.66755 0.0
O44 O 0.87558 0.953 0.54622 0.0
O45 O 0.89897 0.99069 0.57912 0.0
O46 O 0.94575 0.84456 0.71308 0.0
O47 O 0.95538 0.89251 0.6834 0.0
C48 C 0.81984 0.96176 0.63526 0.0
C49 C 0.96267 0.92571 0.58852 0.0
C50 C 0.88661 0.77655 0.71592 0.0
C51 C 0.82953 0.89276 0.57132 0.0
C52 C 0.96604 0.81021 0.64756 0.0
C53 C 0.82855 0.85347 0.69819 0.0
C54 C 0.88813 0.98352 0.54928 0.0
C55 C 0.96311 0.8728 0.70895 0.0
O56 O 0.84201 0.9685 0.61244 0.0
O57 O 0.82249 0.93366 0.65309 0.0
O58 O 0.96723 0.91139 0.61715 0.0
O59 O 0.93246 0.93182 0.57568 0.0
O60 O 0.91493 0.79323 0.72051 0.0
O61 O 0.86663 0.78998 0.69423 0.0
O62 O 0.85017 0.91736 0.56361 0.0
O63 O 0.83035 0.88004 0.60152 0.0
Co64 Co 0.43729 0.63994 0.94947 0.0
Co65 Co 0.39448 0.58784 0.88109 0.0
Co66 Co 0.38493 0.66727 0.89573 0.0
H67 H 0.40485 0.64276 0.92027 0.0
O68 O 0.39424 0.62255 0.92241 0.0
H69 H 0.3741 0.61437 0.85929 0.0
O70 O 0.38593 0.63357 0.8558 0.0
Co71 Co 0.33803 0.622 0.83673 0.0
O72 O 0.35438 0.58254 0.8066 0.0
O73 O 0.39487 0.55664 0.83871 0.0
O74 O 0.32203 0.66409 0.86373 0.0
O75 O 0.36553 0.70245 0.8667 0.0
O76 O 0.48299 0.61578 0.95666 0.0
O77 O 0.45311 0.62867 0.99811 0.0
O78 O 0.31127 0.57715 0.8478 0.0
O79 O 0.34565 0.56684 0.89241 0.0
C80 C 0.39878 0.70579 0.96503 0.0
C81 C 0.42936 0.564 0.93029 0.0
C82 C 0.296 0.64968 0.79803 0.0
C83 C 0.46025 0.69784 0.90716 0.0
C84 C 0.37644 0.55852 0.81103 0.0
C85 C 0.3336 0.69551 0.86078 0.0
C86 C 0.48009 0.61455 0.98817 0.0
C87 C 0.31781 0.55957 0.87424 0.0
O88 O 0.42282 0.68489 0.97368 0.0
O89 O 0.38092 0.70096 0.93694 0.0
O90 O 0.41097 0.54824 0.908 0.0
O91 O 0.43674 0.59544 0.92253 0.0
O92 O 0.28755 0.6293 0.82127 0.0
O93 O 0.32835 0.65414 0.79666 0.0
O94 O 0.46331 0.68338 0.93589 0.0
O95 O 0.4341 0.68947 0.88678 0.0
Co96 Co 0.64095 0.18423 0.20022 0.0
Co97 Co 0.67781 0.14662 0.13535 0.0
Co98 Co 0.60054 0.13589 0.14811 0.0
H99 H 0.62884 0.15247 0.17277 0.0
O100 O 0.64717 0.13998 0.17486 0.0
H101 H 0.6501 0.12967 0.11055 0.0
O102 O 0.63133 0.14152 0.10856 0.0
Co103 Co 0.64075 0.09927 0.08097 0.0
O104 O 0.68185 0.11828 0.05571 0.0
O105 O 0.70816 0.15346 0.0948 0.0
O106 O 0.58913 0.08634 0.08547 0.0
O107 O 0.56078 0.12324 0.11863 0.0
O108 O 0.6486 0.23643 0.18976 0.0
O109 O 0.67444 0.21353 0.23054 0.0
O110 O 0.6816 0.06806 0.09303 0.0
O111 O 0.6967 0.09618 0.14087 0.0
C112 C 0.57362 0.14522 0.21962 0.0
C113 C 0.71829 0.16504 0.19542 0.0
C114 C 0.62827 0.06688 0.02817 0.0
C115 C 0.57852 0.21011 0.16474 0.0
C116 C 0.70645 0.13942 0.06507 0.0
C117 C 0.56107 0.09886 0.09654 0.0
C118 C 0.66985 0.24111 0.21432 0.0
C119 C 0.70066 0.07036 0.12 0.0
O120 O 0.59978 0.16554 0.22772 0.0
O121 O 0.57016 0.13097 0.18978 0.0
O122 O 0.7174 0.1602 0.16372 0.0
O123 O 0.69123 0.17026 0.21284 0.0
O124 O 0.65692 0.06666 0.04431 0.0
O125 O 0.60631 0.08517 0.04243 0.0
O126 O 0.59704 0.2116 0.19207 0.0
O127 O 0.5839 0.18622 0.14247 0.0
Co128 Co 0.09146 0.64745 0.07789 0.0
Co129 Co 0.12889 0.60049 0.14045 0.0
Co130 Co 0.14075 0.67935 0.13355 0.0
H131 H 0.12298 0.65432 0.10683 0.0
O132 O 0.13476 0.63567 0.10335 0.0
H133 H 0.14774 0.6257 0.16659 0.0
O134 O 0.13588 0.64421 0.17046 0.0
Co135 Co 0.18035 0.63321 0.19436 0.0
O136 O 0.16647 0.58645 0.2146 0.0
O137 O 0.12283 0.56689 0.17959 0.0
O138 O 0.20123 0.67956 0.1775 0.0
O139 O 0.1568 0.71397 0.16675 0.0
O140 O 0.04664 0.61747 0.07387 0.0
O141 O 0.06734 0.64175 0.03158 0.0
O142 O 0.21031 0.59279 0.17983 0.0
O143 O 0.17861 0.57938 0.13319 0.0
C144 C 0.12853 0.71732 0.06611 0.0
C145 C 0.10967 0.57187 0.07686 0.0
C146 C 0.20148 0.66068 0.24748 0.0
C147 C 0.06324 0.70086 0.12241 0.0
C148 C 0.14197 0.56435 0.20679 0.0
C149 C 0.18849 0.7101 0.1745 0.0
C150 C 0.04385 0.62192 0.04237 0.0
C151 C 0.20606 0.57463 0.1526 0.0
O152 O 0.10471 0.69466 0.05744 0.0
O153 O 0.14664 0.71424 0.09417 0.0
O154 O 0.11143 0.56499 0.10825 0.0
O155 O 0.11624 0.6027 0.06622 0.0
O156 O 0.21678 0.66324 0.21999 0.0
O157 O 0.17457 0.64144 0.24524 0.0
O158 O 0.05854 0.68285 0.09533 0.0
O159 O 0.09159 0.69862 0.14055 0.0
Co160 Co 0.63361 0.83579 0.32403 0.0
Co161 Co 0.68876 0.87564 0.39151 0.0
Co162 Co 0.6089 0.88594 0.37739 0.0
H163 H 0.63273 0.86769 0.35274 0.0
O164 O 0.65291 0.87822 0.35035 0.0
H165 H 0.66276 0.89253 0.41451 0.0
O166 O 0.64342 0.88073 0.41694 0.0
Co167 Co 0.65681 0.92513 0.44097 0.0
O168 O 0.69519 0.90594 0.4714 0.0
O169 O 0.72146 0.87253 0.43378 0.0
O170 O 0.61408 0.94542 0.41657 0.0
O171 O 0.57487 0.90299 0.40773 0.0
O172 O 0.65754 0.79093 0.31389 0.0
O173 O 0.64434 0.82624 0.27539 0.0
O174 O 0.70064 0.95418 0.43156 0.0
O175 O 0.70766 0.92668 0.38286 0.0
C176 C 0.56916 0.87612 0.30672 0.0
C177 C 0.71086 0.84283 0.3422 0.0
C178 C 0.63023 0.95791 0.48486 0.0
C179 C 0.57502 0.81237 0.36383 0.0
C180 C 0.7196 0.88569 0.46395 0.0
C181 C 0.58269 0.93371 0.41786 0.0
C182 C 0.65876 0.79825 0.28301 0.0
C183 C 0.71614 0.95219 0.40368 0.0
O184 O 0.58995 0.85215 0.29852 0.0
O185 O 0.57404 0.89264 0.33567 0.0
O186 O 0.72741 0.86128 0.36392 0.0
O187 O 0.67929 0.83708 0.34966 0.0
O188 O 0.64028 0.97096 0.45767 0.0
O189 O 0.63592 0.9259 0.48772 0.0
O190 O 0.58899 0.80954 0.33521 0.0
O191 O 0.58597 0.83667 0.385 0.0
Co192 Co 0.32415 0.38301 0.68526 0.0
Co193 Co 0.39492 0.33677 0.64607 0.0
Co194 Co 0.37722 0.41497 0.63566 0.0
H195 H 0.35334 0.38843 0.65476 0.0
O196 O 0.35165 0.36832 0.64417 0.0
H197 H 0.41721 0.36509 0.62862 0.0
O198 O 0.41951 0.38459 0.64008 0.0
Co199 Co 0.44285 0.37415 0.59673 0.0
O200 O 0.47414 0.33492 0.61351 0.0
O201 O 0.43813 0.30733 0.64823 0.0
O202 O 0.4144 0.41355 0.57627 0.0
O203 O 0.40513 0.45249 0.61677 0.0
O204 O 0.31197 0.3555 0.72754 0.0
O205 O 0.27458 0.38533 0.70302 0.0
O206 O 0.43162 0.32984 0.56933 0.0
O207 O 0.38372 0.31763 0.59684 0.0
C208 C 0.30482 0.44772 0.64551 0.0
C209 C 0.34881 0.31041 0.68113 0.0
C210 C 0.48501 0.40264 0.5602 0.0
C211 C 0.36587 0.44406 0.70818 0.0
C212 C 0.46741 0.30992 0.6337 0.0
C213 C 0.41248 0.44533 0.5864 0.0
C214 C 0.28115 0.36503 0.727 0.0
C215 C 0.40361 0.31187 0.57165 0.0
O216 O 0.29705 0.42566 0.6685 0.0
O217 O 0.33359 0.44534 0.62962 0.0
O218 O 0.3688 0.29574 0.66141 0.0
O219 O 0.35585 0.34275 0.68606 0.0
O220 O 0.49247 0.39281 0.58979 0.0
O221 O 0.45388 0.39607 0.55153 0.0
O222 O 0.33833 0.42574 0.71128 0.0
O223 O 0.38648 0.43817 0.68356 0.0
Co224 Co 0.88901 0.18489 0.82978 0.0
Co225 Co 0.84114 0.14296 0.89526 0.0
Co226 Co 0.91889 0.13159 0.87953 0.0
H227 H 0.89306 0.15163 0.85633 0.0
O228 O 0.87288 0.1408 0.85374 0.0
H229 H 0.86845 0.12421 0.91759 0.0
O230 O 0.88809 0.13583 0.92011 0.0
Co231 Co 0.87632 0.09119 0.94336 0.0
O232 O 0.83905 0.11067 0.97309 0.0
O233 O 0.81282 0.14711 0.93723 0.0
O234 O 0.91481 0.07143 0.9156 0.0
O235 O 0.95508 0.11201 0.90791 0.0
O236 O 0.86708 0.23168 0.82036 0.0
O237 O 0.88602 0.20093 0.78109 0.0
O238 O 0.8343 0.06022 0.92985 0.0
O239 O 0.818 0.09271 0.88621 0.0
C240 C 0.94927 0.1417 0.80813 0.0
C241 C 0.81548 0.18135 0.84988 0.0
C242 C 0.90473 0.06063 0.99032 0.0
C243 C 0.95128 0.20656 0.86972 0.0
C244 C 0.81556 0.13264 0.9663 0.0
C245 C 0.94646 0.08202 0.91867 0.0
C246 C 0.87093 0.22834 0.78904 0.0
C247 C 0.81413 0.06463 0.90415 0.0
O248 O 0.92678 0.16463 0.80079 0.0
O249 O 0.94937 0.12628 0.83724 0.0
O250 O 0.80128 0.15962 0.86885 0.0
O251 O 0.84716 0.18828 0.85797 0.0
O252 O 0.89606 0.04659 0.96227 0.0
O253 O 0.89675 0.0922 0.99211 0.0
O254 O 0.9332 0.21153 0.84281 0.0
O255 O 0.94406 0.1802 0.88889 0.0
Co256 Co 0.44755 0.08938 0.39076 0.0
Co257 Co 0.38333 0.13144 0.43322 0.0
Co258 Co 0.3977 0.14117 0.35762 0.0
H259 H 0.42158 0.12273 0.38388 0.0
O260 O 0.42486 0.1343 0.40285 0.0
H261 H 0.36032 0.14957 0.4062 0.0
O262 O 0.35706 0.13747 0.38761 0.0
Co263 Co 0.33433 0.18219 0.39703 0.0
O264 O 0.305 0.16374 0.43548 0.0
O265 O 0.34155 0.12796 0.46186 0.0
O266 O 0.34737 0.20102 0.35002 0.0
O267 O 0.36833 0.15664 0.32035 0.0
O268 O 0.45721 0.04302 0.4136 0.0
O269 O 0.4937 0.0677 0.38282 0.0
O270 O 0.34677 0.21053 0.44015 0.0
O271 O 0.39416 0.18143 0.45268 0.0
C272 C 0.47008 0.12997 0.32876 0.0
C273 C 0.42758 0.09108 0.46219 0.0
C274 C 0.28457 0.21734 0.38445 0.0
C275 C 0.40784 0.06702 0.3305 0.0
C276 C 0.3124 0.14291 0.45948 0.0
C277 C 0.35435 0.18619 0.32177 0.0
C278 C 0.48637 0.04168 0.40051 0.0
C279 C 0.37399 0.20694 0.45872 0.0
O280 O 0.47729 0.10896 0.35286 0.0
O281 O 0.44043 0.14504 0.32724 0.0
O282 O 0.41045 0.11634 0.47217 0.0
O283 O 0.41983 0.08009 0.43227 0.0
O284 O 0.30647 0.22413 0.40809 0.0
O285 O 0.29164 0.19103 0.3668 0.0
O286 O 0.4358 0.0638 0.34765 0.0
O287 O 0.38696 0.09151 0.33772 0.0
Co288 Co 0.07843 0.08117 0.64001 0.0
Co289 Co 0.14284 0.1288 0.59491 0.0
Co290 Co 0.12662 0.13809 0.67165 0.0
H291 H 0.10348 0.11703 0.64546 0.0
O292 O 0.10028 0.12773 0.62627 0.0
H293 H 0.16492 0.14909 0.62196 0.0
O294 O 0.16824 0.13808 0.64086 0.0
Co295 Co 0.18968 0.18443 0.62928 0.0
O296 O 0.22097 0.16798 0.59244 0.0
O297 O 0.18545 0.12813 0.56665 0.0
O298 O 0.15811 0.19323 0.66766 0.0
O299 O 0.15491 0.15734 0.70902 0.0
O300 O 0.08366 0.03172 0.62176 0.0
O301 O 0.03563 0.05627 0.61903 0.0
O302 O 0.17786 0.21233 0.588 0.0
O303 O 0.13157 0.17826 0.57518 0.0
C304 C 0.05456 0.12168 0.70126 0.0
C305 C 0.0981 0.08774 0.5685 0.0
C306 C 0.23019 0.2271 0.65467 0.0
C307 C 0.12057 0.06326 0.69843 0.0
C308 C 0.21442 0.14534 0.56895 0.0
C309 C 0.1679 0.1851 0.69752 0.0
C310 C 0.0525 0.02971 0.61166 0.0
C311 C 0.15044 0.20626 0.57009 0.0
O312 O 0.0474 0.09883 0.67778 0.0
O313 O 0.08396 0.13884 0.70216 0.0
O314 O 0.1168 0.11051 0.55513 0.0
O315 O 0.10741 0.08114 0.5989 0.0
O316 O 0.20574 0.23476 0.63457 0.0
O317 O 0.23212 0.19486 0.65983 0.0
O318 O 0.09153 0.05694 0.68321 0.0
O319 O 0.13938 0.09017 0.6908 0.0
Co320 Co 0.19221 0.84373 0.89688 0.0
Co321 Co 0.14925 0.89964 0.84754 0.0
Co322 Co 0.13685 0.89245 0.92334 0.0
H323 H 0.15769 0.86772 0.90084 0.0
O324 O 0.1466 0.86171 0.88202 0.0
H325 H 0.13094 0.92524 0.87077 0.0
O326 O 0.14212 0.93086 0.88959 0.0
Co327 Co 0.09678 0.94959 0.87511 0.0
O328 O 0.11707 0.97798 0.8365 0.0
O329 O 0.15239 0.93932 0.8137 0.0
O330 O 0.07444 0.92297 0.91422 0.0
O331 O 0.11485 0.92329 0.95503 0.0
O332 O 0.24224 0.83363 0.88703 0.0
O333 O 0.20655 0.79328 0.89812 0.0
O334 O 0.07186 0.93718 0.83051 0.0
O335 O 0.09916 0.88732 0.8268 0.0
C336 C 0.1502 0.82511 0.96002 0.0
C337 C 0.19215 0.84932 0.81819 0.0
C338 C 0.05356 0.98745 0.89761 0.0
C339 C 0.21446 0.89151 0.95225 0.0
C340 C 0.13773 0.96914 0.81338 0.0
C341 C 0.08319 0.92551 0.94575 0.0
C342 C 0.23738 0.80136 0.89135 0.0
C343 C 0.07459 0.90752 0.81627 0.0
O344 O 0.17519 0.81929 0.94019 0.0
O345 O 0.13079 0.85167 0.95575 0.0
O346 O 0.16521 0.8673 0.81385 0.0
O347 O 0.20762 0.84595 0.84713 0.0
O348 O 0.04666 0.95855 0.88315 0.0
O349 O 0.08552 0.99511 0.89941 0.0
O350 O 0.22228 0.86624 0.93335 0.0
O351 O 0.18419 0.90527 0.94906 0.0
Co352 Co 0.33196 0.84853 0.12156 0.0
Co353 Co 0.37711 0.90364 0.17417 0.0
Co354 Co 0.3923 0.89338 0.0989 0.0
H355 H 0.36882 0.87038 0.12023 0.0
O356 O 0.37816 0.86451 0.13962 0.0
H357 H 0.3981 0.92813 0.15125 0.0
O358 O 0.38773 0.93295 0.13205 0.0
Co359 Co 0.43384 0.95233 0.14673 0.0
O360 O 0.42083 0.97708 0.18975 0.0
O361 O 0.3762 0.9448 0.20812 0.0
O362 O 0.45806 0.92694 0.10858 0.0
O363 O 0.41679 0.92323 0.06815 0.0
O364 O 0.28798 0.84128 0.1478 0.0
O365 O 0.2952 0.81531 0.10155 0.0
O366 O 0.46074 0.93696 0.18892 0.0
O367 O 0.42598 0.89054 0.1959 0.0
C368 C 0.3762 0.82405 0.06255 0.0
C369 C 0.34624 0.84165 0.20011 0.0
C370 C 0.45868 1.00049 0.11547 0.0
C371 C 0.31485 0.89661 0.06846 0.0
C372 C 0.39741 0.97143 0.21125 0.0
C373 C 0.44851 0.92619 0.07715 0.0
C374 C 0.27629 0.81873 0.12661 0.0
C375 C 0.45414 0.90864 0.20422 0.0
O376 O 0.34919 0.82049 0.0805 0.0
O377 O 0.39731 0.85068 0.06736 0.0
O378 O 0.35779 0.87236 0.20768 0.0
O379 O 0.33997 0.83102 0.16958 0.0
O380 O 0.47577 0.97537 0.12668 0.0
O381 O 0.4272 0.99893 0.12265 0.0
O382 O 0.30229 0.87609 0.08988 0.0
O383 O 0.34759 0.9051 0.07011 0.0
Co384 Co 0.38133 0.44543 0.09064 0.0
Co385 Co 0.43027 0.37668 0.13301 0.0
Co386 Co 0.3544 0.39769 0.14708 0.0
H387 H 0.37924 0.41957 0.12462 0.0
O388 O 0.40021 0.42161 0.13351 0.0
H389 H 0.40377 0.35681 0.15466 0.0
O390 O 0.38337 0.35443 0.14486 0.0
Co391 Co 0.39697 0.33279 0.18857 0.0
O392 O 0.44261 0.3078 0.18096 0.0
O393 O 0.45789 0.33176 0.13215 0.0
O394 O 0.35749 0.35889 0.2102 0.0
O395 O 0.31837 0.37135 0.16932 0.0
O396 O 0.403 0.45675 0.04564 0.0
O397 O 0.38231 0.49653 0.07495 0.0
O398 O 0.43418 0.35507 0.21893 0.0
O399 O 0.45582 0.39013 0.1797 0.0
C400 C 0.31869 0.46847 0.1294 0.0
C401 C 0.45239 0.41812 0.09033 0.0
C402 C 0.37566 0.27753 0.21188 0.0
C403 C 0.32523 0.39683 0.07185 0.0
C404 C 0.46232 0.30903 0.15554 0.0
C405 C 0.32607 0.36206 0.1993 0.0
C406 C 0.39771 0.48878 0.04842 0.0
C407 C 0.45629 0.37823 0.21042 0.0
O408 O 0.33822 0.47311 0.10401 0.0
O409 O 0.32407 0.44245 0.14966 0.0
O410 O 0.46895 0.39989 0.11114 0.0
O411 O 0.41986 0.41142 0.08879 0.0
O412 O 0.40703 0.28723 0.21262 0.0
O413 O 0.35639 0.29875 0.19712 0.0
O414 O 0.34255 0.4236 0.06311 0.0
O415 O 0.32939 0.3834 0.10153 0.0
Co416 Co 0.82291 0.88843 0.17588 0.0
Co417 Co 0.88863 0.84372 0.13721 0.0
Co418 Co 0.87704 0.92292 0.12921 0.0
H419 H 0.85144 0.89608 0.14553 0.0
O420 O 0.84825 0.87692 0.13359 0.0
H421 H 0.9137 0.87067 0.12105 0.0
O422 O 0.91702 0.88975 0.133 0.0
Co423 Co 0.94197 0.87798 0.09076 0.0
O424 O 0.97041 0.83847 0.11119 0.0
O425 O 0.9302 0.81135 0.14166 0.0
O426 O 0.93547 0.92933 0.07753 0.0
O427 O 0.90796 0.96109 0.11579 0.0
O428 O 0.81724 0.86346 0.22102 0.0
O429 O 0.77598 0.8903 0.19934 0.0
O430 O 0.93018 0.83297 0.06371 0.0
O431 O 0.87956 0.82417 0.08735 0.0
C432 C 0.80611 0.95729 0.1401 0.0
C433 C 0.83383 0.80603 0.16939 0.0
C434 C 0.9842 0.89089 0.04712 0.0
C435 C 0.86616 0.94747 0.20355 0.0
C436 C 0.96096 0.81308 0.12982 0.0
C437 C 0.92657 0.95873 0.08991 0.0
C438 C 0.78629 0.87237 0.22397 0.0
C439 C 0.90136 0.81603 0.06433 0.0
O440 O 0.79805 0.93348 0.16132 0.0
O441 O 0.83498 0.95587 0.12422 0.0
O442 O 0.85939 0.80475 0.1502 0.0
O443 O 0.82037 0.83468 0.17862 0.0
O444 O 0.95533 0.87551 0.04126 0.0
O445 O 0.98856 0.89999 0.07776 0.0
O446 O 0.8375 0.9305 0.20441 0.0
O447 O 0.88671 0.942 0.17884 0.0
Co448 Co 0.14081 0.68925 0.69781 0.0
Co449 Co 0.18719 0.64257 0.63559 0.0
Co450 Co 0.10813 0.63571 0.64679 0.0
H451 H 0.13454 0.65486 0.67175 0.0
O452 O 0.15323 0.64297 0.6755 0.0
H453 H 0.15898 0.62672 0.6108 0.0
O454 O 0.1409 0.63948 0.60794 0.0
Co455 Co 0.14907 0.59489 0.5829 0.0
O456 O 0.18642 0.61769 0.55425 0.0
O457 O 0.21873 0.64415 0.5956 0.0
O458 O 0.10544 0.57605 0.60491 0.0
O459 O 0.07105 0.61926 0.61579 0.0
O460 O 0.16139 0.73883 0.69663 0.0
O461 O 0.16056 0.71094 0.74193 0.0
O462 O 0.19176 0.56648 0.59255 0.0
O463 O 0.20084 0.59042 0.64351 0.0
C464 C 0.07514 0.64768 0.71617 0.0
C465 C 0.21531 0.67903 0.68253 0.0
C466 C 0.12753 0.55111 0.54091 0.0
C467 C 0.08159 0.71137 0.65742 0.0
C468 C 0.21402 0.63436 0.56455 0.0
C469 C 0.07531 0.58906 0.60346 0.0
C470 C 0.16959 0.73878 0.72764 0.0
C471 C 0.20749 0.56639 0.62132 0.0
O472 O 0.09825 0.6716 0.72384 0.0
O473 O 0.07597 0.63053 0.68766 0.0
O474 O 0.22761 0.65531 0.66476 0.0
O475 O 0.18506 0.6878 0.67264 0.0
O476 O 0.14753 0.54457 0.56562 0.0
O477 O 0.11941 0.58273 0.54015 0.0
O478 O 0.09805 0.7161 0.68558 0.0
O479 O 0.08823 0.68499 0.63807 0.0
Co480 Co 0.59157 0.87231 0.94279 0.0
Co481 Co 0.62542 0.91868 0.87955 0.0
Co482 Co 0.64181 0.84148 0.8922 0.0
H483 H 0.62327 0.86675 0.91604 0.0
O484 O 0.63367 0.88703 0.91912 0.0
H485 H 0.64647 0.89426 0.85727 0.0
O486 O 0.63637 0.87404 0.85296 0.0
Co487 Co 0.68109 0.89006 0.83441 0.0
O488 O 0.65914 0.92786 0.80561 0.0
O489 O 0.61787 0.94875 0.83811 0.0
O490 O 0.69916 0.84087 0.8412 0.0
O491 O 0.65896 0.80509 0.86275 0.0
O492 O 0.56675 0.86099 0.98538 0.0
O493 O 0.54629 0.89682 0.95072 0.0
O494 O 0.71265 0.92821 0.8553 0.0
O495 O 0.67258 0.94778 0.88917 0.0
C496 C 0.63138 0.80741 0.96175 0.0
C497 C 0.6018 0.95245 0.93873 0.0
C498 C 0.72377 0.88745 0.79083 0.0
C499 C 0.56515 0.81357 0.89951 0.0
C500 C 0.63484 0.94907 0.81062 0.0
C501 C 0.68662 0.81023 0.84664 0.0
C502 C 0.54296 0.88174 0.97867 0.0
C503 C 0.70352 0.95043 0.87711 0.0
O504 O 0.60883 0.83001 0.96878 0.0
O505 O 0.64766 0.80897 0.93358 0.0
O506 O 0.60546 0.95461 0.90711 0.0
O507 O 0.60256 0.92376 0.95503 0.0
O508 O 0.73045 0.89887 0.82043 0.0
O509 O 0.6928 0.87671 0.78629 0.0
O510 O 0.56034 0.8324 0.92545 0.0
O511 O 0.59309 0.81764 0.88258 0.0
Co512 Co 0.9374 0.14564 0.45372 0.0
Co513 Co 0.90092 0.093 0.38039 0.0
Co514 Co 0.88659 0.17141 0.39859 0.0
H515 H 0.90655 0.14704 0.42287 0.0
O516 O 0.89758 0.12586 0.4236 0.0
H517 H 0.88165 0.11985 0.35913 0.0
O518 O 0.8923 0.14004 0.35768 0.0
Co519 Co 0.84828 0.12574 0.33301 0.0
O520 O 0.85482 0.07898 0.30902 0.0
O521 O 0.90321 0.0628 0.33629 0.0
O522 O 0.82402 0.1687 0.35224 0.0
O523 O 0.86651 0.20632 0.36981 0.0
O524 O 0.97825 0.11478 0.46257 0.0
O525 O 0.95845 0.14508 0.50177 0.0
O526 O 0.81611 0.08582 0.34796 0.0
O527 O 0.85189 0.07065 0.3899 0.0
C528 C 0.89712 0.21049 0.46898 0.0
C529 C 0.92539 0.06457 0.43334 0.0
C530 C 0.8377 0.14677 0.27554 0.0
C531 C 0.96129 0.20437 0.41232 0.0
C532 C 0.88036 0.05857 0.3117 0.0
C533 C 0.83536 0.19988 0.35983 0.0
C534 C 0.98019 0.12289 0.49345 0.0
C535 C 0.8225 0.06648 0.37333 0.0
O536 O 0.92228 0.19083 0.47749 0.0
O537 O 0.87924 0.20394 0.44097 0.0
O538 O 0.91664 0.05227 0.4049 0.0
O539 O 0.93042 0.09763 0.4328 0.0
O540 O 0.83315 0.11558 0.28423 0.0
O541 O 0.84915 0.16598 0.29962 0.0
O542 O 0.96528 0.18836 0.4402 0.0
O543 O 0.93475 0.19685 0.39217 0.0
Co544 Co 0.59532 0.14294 0.58033 0.0
Co545 Co 0.63231 0.09422 0.64248 0.0
Co546 Co 0.64404 0.17332 0.6363 0.0
H547 H 0.62682 0.14857 0.60929 0.0
O548 O 0.63823 0.12972 0.60552 0.0
H549 H 0.6505 0.11919 0.66912 0.0
O550 O 0.63875 0.13772 0.67301 0.0
Co551 Co 0.68309 0.12556 0.69722 0.0
O552 O 0.65812 0.0868 0.72285 0.0
O553 O 0.62596 0.06035 0.68109 0.0
O554 O 0.70223 0.17093 0.67748 0.0
O555 O 0.65936 0.20723 0.67029 0.0
O556 O 0.54813 0.1178 0.57438 0.0
O557 O 0.57011 0.1458 0.53475 0.0
O558 O 0.7078 0.08036 0.68714 0.0
O559 O 0.68254 0.07496 0.63606 0.0
C560 C 0.63331 0.2119 0.56807 0.0
C561 C 0.60621 0.06205 0.5803 0.0
C562 C 0.72797 0.14939 0.73741 0.0
C563 C 0.56865 0.19762 0.62372 0.0
C564 C 0.63756 0.062 0.71203 0.0
C565 C 0.69064 0.20188 0.6785 0.0
C566 C 0.54484 0.12734 0.54403 0.0
C567 C 0.70632 0.06566 0.65802 0.0
O568 O 0.61028 0.18886 0.55865 0.0
O569 O 0.65025 0.20919 0.59699 0.0
O570 O 0.6168 0.05758 0.61066 0.0
O571 O 0.60191 0.09207 0.56736 0.0
O572 O 0.73423 0.13079 0.71201 0.0
O573 O 0.69608 0.15455 0.73996 0.0
O574 O 0.56561 0.18187 0.59538 0.0
O575 O 0.59497 0.19227 0.64379 0.0
Co576 Co 0.13265 0.32705 0.83146 0.0
Co577 Co 0.18583 0.36939 0.89651 0.0
Co578 Co 0.10611 0.37826 0.88388 0.0
H579 H 0.13006 0.35972 0.85929 0.0
O580 O 0.14977 0.37086 0.85626 0.0
H581 H 0.15989 0.3865 0.91946 0.0
O582 O 0.14096 0.37438 0.9229 0.0
Co583 Co 0.15326 0.4205 0.94394 0.0
O584 O 0.18992 0.39967 0.97504 0.0
O585 O 0.21855 0.36766 0.93802 0.0
O586 O 0.10998 0.43907 0.91991 0.0
O587 O 0.07172 0.39575 0.91395 0.0
O588 O 0.15521 0.28083 0.8237 0.0
O589 O 0.14764 0.31667 0.78422 0.0
O590 O 0.19505 0.45111 0.93277 0.0
O591 O 0.20457 0.41996 0.88673 0.0
C592 C 0.06864 0.36808 0.81363 0.0
C593 C 0.2094 0.33583 0.84725 0.0
C594 C 0.13215 0.46251 0.98336 0.0
C595 C 0.07406 0.30393 0.87139 0.0
C596 C 0.21526 0.38046 0.96801 0.0
C597 C 0.07915 0.42688 0.92319 0.0
C598 C 0.15988 0.28799 0.79319 0.0
C599 C 0.21139 0.44731 0.90563 0.0
O600 O 0.09048 0.34527 0.805 0.0
O601 O 0.07143 0.38354 0.843 0.0
O602 O 0.22443 0.35606 0.86844 0.0
O603 O 0.17918 0.32581 0.85597 0.0
O604 O 0.14209 0.4701 0.95429 0.0
O605 O 0.13431 0.43065 0.99031 0.0
O606 O 0.08841 0.30059 0.84302 0.0
O607 O 0.08409 0.32893 0.89213 0.0
Co608 Co 0.38946 0.68481 0.32929 0.0
Co609 Co 0.35025 0.6473 0.39635 0.0
Co610 Co 0.42694 0.63902 0.38147 0.0
H611 H 0.39887 0.65421 0.35739 0.0
O612 O 0.37966 0.64183 0.35544 0.0
H613 H 0.37816 0.62836 0.41828 0.0
O614 O 0.39689 0.64123 0.42159 0.0
Co615 Co 0.38839 0.59417 0.44159 0.0
O616 O 0.34835 0.61121 0.47004 0.0
O617 O 0.32299 0.65224 0.43871 0.0
O618 O 0.43989 0.58251 0.43375 0.0
O619 O 0.46605 0.62889 0.4107 0.0
O620 O 0.3813 0.73712 0.32454 0.0
O621 O 0.3746 0.70209 0.2833 0.0
O622 O 0.3489 0.56077 0.42475 0.0
O623 O 0.32532 0.59804 0.38887 0.0
C624 C 0.45305 0.64531 0.30883 0.0
C625 C 0.30911 0.67691 0.3418 0.0
C626 C 0.39895 0.54995 0.48413 0.0
C627 C 0.45188 0.71412 0.36634 0.0
C628 C 0.32499 0.63404 0.46576 0.0
C629 C 0.46726 0.60032 0.42627 0.0
C630 C 0.37365 0.73328 0.2934 0.0
C631 C 0.32504 0.56766 0.40296 0.0
O632 O 0.42705 0.66369 0.30034 0.0
O633 O 0.45718 0.63439 0.33948 0.0
O634 O 0.31027 0.66279 0.37056 0.0
O635 O 0.33591 0.68385 0.32456 0.0
O636 O 0.39244 0.54309 0.45326 0.0
O637 O 0.40101 0.58222 0.49057 0.0
O638 O 0.43313 0.71476 0.3393 0.0
O639 O 0.44604 0.69004 0.38818 0.0
Co640 Co 0.94888 0.58404 0.88556 0.0
Co641 Co 0.88285 0.62703 0.92953 0.0
Co642 Co 0.89747 0.6343 0.85338 0.0
H643 H 0.92198 0.61694 0.87978 0.0
O644 O 0.92518 0.62862 0.8988 0.0
H645 H 0.86064 0.64522 0.90191 0.0
O646 O 0.85695 0.63228 0.88385 0.0
Co647 Co 0.8367 0.67892 0.89165 0.0
O648 O 0.80876 0.6656 0.93251 0.0
O649 O 0.83992 0.62402 0.95724 0.0
O650 O 0.85596 0.69563 0.84628 0.0
O651 O 0.86728 0.64831 0.81622 0.0
O652 O 0.95773 0.54003 0.91235 0.0
O653 O 0.99545 0.56157 0.88078 0.0
O654 O 0.84905 0.70939 0.93358 0.0
O655 O 0.89366 0.67766 0.9497 0.0
C656 C 0.96902 0.62332 0.82213 0.0
C657 C 0.92729 0.58761 0.95841 0.0
C658 C 0.78937 0.71025 0.865 0.0
C659 C 0.90803 0.55899 0.82627 0.0
C660 C 0.81307 0.64295 0.95564 0.0
C661 C 0.8564 0.67907 0.81787 0.0
C662 C 0.9875 0.53772 0.90091 0.0
C663 C 0.87517 0.70519 0.95359 0.0
O664 O 0.97697 0.60093 0.84483 0.0
O665 O 0.93983 0.63905 0.82276 0.0
O666 O 0.90921 0.61189 0.96893 0.0
O667 O 0.92067 0.57798 0.92771 0.0
O668 O 0.82005 0.72221 0.86822 0.0
O669 O 0.78548 0.68017 0.87691 0.0
O670 O 0.93679 0.55699 0.84261 0.0
O671 O 0.88728 0.58378 0.83373 0.0
Co672 Co 0.5748 0.57909 0.13803 0.0
Co673 Co 0.645 0.61994 0.09275 0.0
Co674 Co 0.62464 0.6363 0.16728 0.0
H675 H 0.60224 0.61341 0.14189 0.0
O676 O 0.60065 0.62214 0.12158 0.0
H677 H 0.66561 0.64195 0.11963 0.0
O678 O 0.66761 0.63226 0.13934 0.0
Co679 Co 0.69013 0.6774 0.12712 0.0
O680 O 0.7174 0.66687 0.08579 0.0
O681 O 0.68963 0.61792 0.06689 0.0
O682 O 0.65394 0.69303 0.15892 0.0
O683 O 0.65101 0.66023 0.20329 0.0
O684 O 0.5646 0.53352 0.11319 0.0
O685 O 0.52416 0.565 0.12909 0.0
O686 O 0.67526 0.70674 0.08764 0.0
O687 O 0.6348 0.66767 0.06929 0.0
C688 C 0.55296 0.62163 0.19833 0.0
C689 C 0.59883 0.57977 0.06646 0.0
C690 C 0.739 0.70008 0.16194 0.0
C691 C 0.61706 0.56251 0.19791 0.0
C692 C 0.71445 0.64088 0.06528 0.0
C693 C 0.66043 0.6888 0.1903 0.0
C694 C 0.53252 0.53799 0.11324 0.0
C695 C 0.6506 0.69786 0.06693 0.0
O696 O 0.54645 0.5959 0.17782 0.0
O697 O 0.58093 0.6407 0.19586 0.0
O698 O 0.62075 0.59912 0.05274 0.0
O699 O 0.60519 0.57564 0.09804 0.0
O700 O 0.71591 0.71864 0.14894 0.0
O701 O 0.73541 0.66829 0.15403 0.0
O702 O 0.5896 0.55455 0.18057 0.0
O703 O 0.63528 0.59032 0.19175 0.0
Co704 Co 0.68246 0.33807 0.3913 0.0
Co705 Co 0.64191 0.40094 0.34745 0.0
Co706 Co 0.62749 0.38486 0.42171 0.0
H707 H 0.64808 0.36225 0.39697 0.0
O708 O 0.63763 0.35876 0.37731 0.0
H709 H 0.62196 0.42349 0.37276 0.0
O710 O 0.63273 0.42643 0.39222 0.0
Co711 Co 0.58914 0.44954 0.38006 0.0
O712 O 0.60138 0.47477 0.3361 0.0
O713 O 0.6462 0.4442 0.31861 0.0
O714 O 0.56581 0.43295 0.42369 0.0
O715 O 0.60835 0.41284 0.45737 0.0
O716 O 0.73423 0.32925 0.3947 0.0
O717 O 0.69889 0.29201 0.37293 0.0
O718 O 0.55668 0.4296 0.34301 0.0
O719 O 0.59345 0.39104 0.32336 0.0
C720 C 0.64645 0.31736 0.45707 0.0
C721 C 0.67496 0.34593 0.31148 0.0
C722 C 0.57215 0.50742 0.39828 0.0
C723 C 0.70582 0.3867 0.44573 0.0
C724 C 0.62581 0.47002 0.31548 0.0
C725 C 0.57839 0.42527 0.45318 0.0
C726 C 0.73004 0.29943 0.3812 0.0
C727 C 0.56362 0.40574 0.32177 0.0
O728 O 0.67155 0.31404 0.43679 0.0
O729 O 0.62396 0.34138 0.45201 0.0
O730 O 0.65919 0.3744 0.3099 0.0
O731 O 0.68254 0.33069 0.3394 0.0
O732 O 0.56652 0.495 0.36891 0.0
O733 O 0.58774 0.48686 0.4176 0.0
O734 O 0.71468 0.36343 0.42489 0.0
O735 O 0.67449 0.39726 0.44562 0.0
Co736 Co 0.93813 0.44079 0.64918 0.0
Co737 Co 0.87524 0.40447 0.59825 0.0
Co738 Co 0.88427 0.38721 0.67389 0.0
H739 H 0.91002 0.40786 0.65216 0.0
O740 O 0.91383 0.39778 0.63283 0.0
H741 H 0.84946 0.38588 0.62037 0.0
O742 O 0.84554 0.39561 0.63981 0.0
Co743 Co 0.82192 0.35285 0.62116 0.0
O744 O 0.79357 0.37602 0.58418 0.0
O745 O 0.83511 0.41062 0.56368 0.0
O746 O 0.84334 0.32751 0.66158 0.0
O747 O 0.852 0.36504 0.70425 0.0
O748 O 0.93924 0.48654 0.62324 0.0
O749 O 0.97781 0.47456 0.65976 0.0
O750 O 0.83441 0.3256 0.57903 0.0
O751 O 0.88448 0.35463 0.57657 0.0
C752 C 0.95618 0.39431 0.70948 0.0
C753 C 0.93764 0.42968 0.57036 0.0
C754 C 0.7753 0.31218 0.63087 0.0
C755 C 0.89819 0.45983 0.70847 0.0
C756 C 0.80404 0.39734 0.56199 0.0
C757 C 0.84197 0.33492 0.69318 0.0
C758 C 0.96747 0.49582 0.63799 0.0
C759 C 0.86411 0.32866 0.56635 0.0
O760 O 0.96451 0.41825 0.68865 0.0
O761 O 0.92579 0.37887 0.70742 0.0
O762 O 0.906 0.42163 0.56507 0.0
O763 O 0.95255 0.43335 0.5998 0.0
O764 O 0.79903 0.30658 0.61064 0.0
O765 O 0.77795 0.34151 0.64569 0.0
O766 O 0.92615 0.4644 0.69294 0.0
O767 O 0.8767 0.43452 0.69949 0.0
C768 C 0.22151 0.28739 0.39788 0.0
C769 C 0.20485 0.28924 0.36595 0.0
C770 C 0.24627 0.26256 0.40396 0.0
C771 C 0.25481 0.23893 0.37826 0.0
H772 H 0.21632 0.30617 0.4178 0.0
H773 H 0.25961 0.2627 0.42862 0.0
S774 S 0.21493 0.23127 0.2915 0.0
N775 N 0.19581 0.26477 0.30916 0.0
N776 N 0.24224 0.21648 0.32083 0.0
C777 C 0.23645 0.23897 0.34687 0.0
C778 C 0.21143 0.26479 0.34056 0.0
C779 C 0.98665 0.9772 0.56107 0.0
C780 C 0.9927 0.9441 0.57468 0.0
C781 C 1.00809 1.00545 0.57127 0.0
C782 C 0.03745 1.00025 0.59235 0.0
H783 H 0.96231 0.98266 0.54805 0.0
H784 H 0.99978 0.03159 0.56537 0.0
S785 S 0.07339 0.91564 0.61837 0.0
N786 N 0.03581 0.90539 0.59882 0.0
N787 N 0.07796 0.95864 0.61609 0.0
C788 C 0.04839 0.96619 0.59821 0.0
C789 C 0.02581 0.9376 0.58884 0.0
C790 C 0.25199 0.74022 0.88186 0.0
C791 C 0.26269 0.77551 0.88305 0.0
C792 C 0.27474 0.7147 0.8726 0.0
C793 C 0.30921 0.72359 0.8649 0.0
H794 H 0.2258 0.73211 0.88806 0.0
H795 H 0.26535 0.68772 0.87263 0.0
S796 S 0.34866 0.813 0.86085 0.0
N797 N 0.3087 0.81883 0.87324 0.0
N798 N 0.35217 0.7703 0.85604 0.0
C799 C 0.31988 0.75901 0.8646 0.0
C800 C 0.29646 0.78515 0.87383 0.0
C801 C 0.50436 0.02039 0.07908 0.0
C802 C 0.47535 0.02877 0.0976 0.0
C803 C 0.53086 0.04505 0.07514 0.0
C804 C 0.52858 0.07898 0.08892 0.0
H805 H 0.50869 0.99353 0.07145 0.0
H806 H 0.5548 0.03586 0.06507 0.0
S807 S 0.45209 0.11598 0.12974 0.0
N808 N 0.44152 0.07422 0.12302 0.0
N809 N 0.49102 0.12192 0.11406 0.0
C810 C 0.4968 0.08916 0.10209 0.0
C811 C 0.46996 0.06361 0.10666 0.0
C812 C 0.20811 0.77177 0.17496 0.0
C813 C 0.21142 0.73746 0.16298 0.0
C814 C 0.22813 0.79883 0.16164 0.0
C815 C 0.25111 0.79202 0.13565 0.0
H816 H 0.19026 0.77753 0.19482 0.0
H817 H 0.22615 0.82501 0.17214 0.0
S818 S 0.26716 0.70626 0.09466 0.0
N819 N 0.23756 0.69791 0.12293 0.0
N820 N 0.27578 0.74866 0.09814 0.0
C821 C 0.25388 0.75778 0.12295 0.0
C822 C 0.23382 0.73038 0.13665 0.0
C823 C 0.53185 0.96493 0.43718 0.0
C824 C 0.55597 0.95862 0.41223 0.0
C825 C 0.50829 0.99168 0.43291 0.0
C826 C 0.50866 0.0121 0.40357 0.0
H827 H 0.53226 0.95024 0.46051 0.0
H828 H 0.49076 0.9973 0.45308 0.0
S829 S 0.56267 1.00036 0.32846 0.0
N830 N 0.57632 0.97105 0.35586 0.0
N831 N 0.53148 0.02107 0.34738 0.0
C832 C 0.53117 1.00422 0.37755 0.0
C833 C 0.55507 0.97732 0.38199 0.0
C834 C 0.31041 0.26302 0.69882 0.0
C835 C 0.31411 0.29542 0.68308 0.0
C836 C 0.28105 0.24186 0.69193 0.0
C837 C 0.25509 0.25277 0.66895 0.0
H838 H 0.3315 0.25285 0.71432 0.0
H839 H 0.28 0.21588 0.70257 0.0
S840 S 0.2501 0.33812 0.62594 0.0
N841 N 0.28796 0.33924 0.64676 0.0
N842 N 0.23182 0.30003 0.63505 0.0
C843 C 0.25662 0.2868 0.65626 0.0
C844 C 0.28669 0.30808 0.66286 0.0
C845 C 0.03484 0.04434 0.91906 0.0
C846 C 0.02687 1.00929 0.91065 0.0
C847 C 1.00834 0.06751 0.92437 0.0
C848 C 0.97339 0.05609 0.92111 0.0
H849 H 0.06142 0.05441 0.91942 0.0
H850 H 0.01522 0.09488 0.92897 0.0
S851 S 0.94009 0.96465 0.90659 0.0
N852 N 0.98269 0.96254 0.9053 0.0
N853 N 0.93249 1.00624 0.9139 0.0
C854 C 0.96539 0.0202 0.91608 0.0
C855 C 0.99239 0.99666 0.91115 0.0
C856 C 0.37964 0.21903 0.23633 0.0
C857 C 0.36282 0.25089 0.23452 0.0
C858 C 0.37447 0.19685 0.26356 0.0
C859 C 0.35327 0.20658 0.29042 0.0
H860 H 0.39827 0.2121 0.21753 0.0
H861 H 0.38922 0.17315 0.26459 0.0
S862 S 0.30232 0.28724 0.29605 0.0
N863 N 0.32252 0.29048 0.25991 0.0
N864 N 0.31383 0.2495 0.31218 0.0
C865 C 0.33495 0.23773 0.28785 0.0
C866 C 0.33949 0.25979 0.25955 0.0
C867 C 0.04121 0.11455 0.56786 0.0
C868 C 0.06213 0.08734 0.55701 0.0
C869 C 1.01259 0.12431 0.5482 0.0
C870 C 1.00466 0.10731 0.51716 0.0
H871 H 0.04855 0.13054 0.58984 0.0
H872 H 0.9985 0.14704 0.55598 0.0
S873 S 0.04657 0.02908 0.48235 0.0
N874 N 0.07001 0.03991 0.51693 0.0
N875 N 0.01527 0.05768 0.47982 0.0
C876 C 0.02291 0.07748 0.50811 0.0
C877 C 0.05212 0.06769 0.52813 0.0
C878 C 0.2096 0.79092 0.79978 0.0
C879 C 0.20045 0.825 0.79086 0.0
C880 C 0.20222 0.76289 0.77764 0.0
C881 C 0.18622 0.76844 0.74582 0.0
H882 H 0.21837 0.78502 0.82527 0.0
H883 H 0.20646 0.73659 0.78656 0.0
S884 S 0.16781 0.85375 0.7066 0.0
N885 N 0.18238 0.86372 0.74551 0.0
N886 N 0.16908 0.81071 0.70322 0.0
C887 C 0.18231 0.80277 0.73448 0.0
C888 C 0.18944 0.83131 0.75725 0.0
C889 C 0.49453 0.91805 0.99585 0.0
C890 C 0.51734 0.89094 1.0031 0.0
C891 C 0.47237 0.92984 0.02039 0.0
C892 C 0.47297 0.91504 0.05267 0.0
H893 H 0.49419 0.93062 0.97136 0.0
H894 H 0.45496 0.95082 0.01428 0.0
S895 S 0.52569 0.84153 0.08331 0.0
N896 N 0.53776 0.8482 0.0441 0.0
N897 N 0.49591 0.8707 0.09032 0.0
C898 C 0.49498 0.88743 0.06006 0.0
C899 C 0.51725 0.87519 0.0351 0.0
C900 C 0.36161 0.82283 0.25855 0.0
C901 C 0.34592 0.81512 0.2265 0.0
C902 C 0.3694 0.7961 0.28096 0.0
C903 C 0.36209 0.76114 0.27162 0.0
H904 H 0.36973 0.84935 0.26569 0.0
H905 H 0.38268 0.80271 0.30494 0.0
S906 S 0.31444 0.72769 0.19402 0.0
N907 N 0.31768 0.77042 0.18931 0.0
N908 N 0.33408 0.72013 0.23087 0.0
C909 C 0.34415 0.7532 0.24087 0.0
C910 C 0.33535 0.78034 0.21849 0.0
C911 C 0.49234 0.09011 0.53216 0.0
C912 C 0.51743 0.11404 0.52065 0.0
C913 C 0.46503 0.07827 0.51064 0.0
C914 C 0.4623 0.08994 0.47716 0.0
H915 H 0.49297 0.08158 0.55827 0.0
H916 H 0.44439 0.06228 0.52104 0.0
S917 S 0.52421 0.14853 0.43354 0.0
N918 N 0.54029 0.14584 0.47269 0.0
N919 N 0.48849 0.1237 0.43239 0.0
C920 C 0.48874 0.11153 0.46457 0.0
C921 C 0.51644 0.12377 0.48644 0.0
C922 C 0.17691 0.24739 0.71124 0.0
C923 C 0.18069 0.21243 0.72091 0.0
C924 C 0.17529 0.27348 0.73557 0.0
C925 C 0.17615 0.26476 0.76988 0.0
H926 H 0.17083 0.25436 0.68525 0.0
H927 H 0.16891 0.29955 0.72735 0.0
S928 S 0.19965 0.18002 0.8074 0.0
N929 N 0.19641 0.17239 0.76606 0.0
N930 N 0.19167 0.22193 0.81263 0.0
C931 C 0.18644 0.23145 0.77979 0.0
C932 C 0.18897 0.2049 0.75485 0.0
C933 C 0.03872 0.92018 0.02922 0.0
C934 C 1.00869 0.89978 0.0208 0.0
C935 C 0.06255 0.92888 1.00457 0.0
C936 C 0.05688 0.91769 0.97076 0.0
H937 H 0.04396 0.92939 0.05504 0.0
H938 H 0.08557 0.94443 1.01201 0.0
S939 S 0.9825 0.86283 0.93603 0.0
N940 N 0.97471 0.86808 0.97664 0.0
N941 N 0.01936 0.88456 0.93013 0.0
C942 C 0.02677 0.89742 0.96196 0.0
C943 C 1.00269 0.88838 0.98709 0.0
C944 C 0.30574 0.3899 0.25038 0.0
C945 C 0.29997 0.36529 0.22415 0.0
C946 C 0.28152 0.39353 0.27523 0.0
C947 C 0.25109 0.37246 0.27445 0.0
H948 H 0.32892 0.40668 0.25144 0.0
H949 H 0.28649 0.41335 0.29483 0.0
S950 S 0.22623 0.30196 0.21224 0.0
N951 N 0.26347 0.31839 0.19906 0.0
N952 N 0.21736 0.32477 0.24661 0.0
C953 C 0.24535 0.34723 0.24858 0.0
C954 C 0.27003 0.34379 0.22303 0.0
C955 C 0.76861 0.19912 0.81166 0.0
C956 C 0.80077 0.18314 0.81551 0.0
C957 C 0.74579 0.18976 0.78468 0.0
C958 C 0.75475 0.16431 0.76081 0.0
H959 H 0.7597 0.21645 0.83133 0.0
H960 H 0.7202 0.20084 0.78381 0.0
S961 S 0.8383 0.11907 0.75659 0.0
N962 N 0.84188 0.14335 0.79149 0.0
N963 N 0.79974 0.12727 0.73953 0.0
C964 C 0.78835 0.1511 0.76221 0.0
C965 C 0.81128 0.16011 0.79006 0.0
C966 C 0.12002 0.48186 0.04117 0.0
C967 C 0.11983 0.48851 1.00637 0.0
C968 C 0.11463 0.50883 0.06411 0.0
C969 C 0.1092 0.54295 0.05258 0.0
H970 H 0.12633 0.4563 0.05081 0.0
H971 H 0.11671 0.50319 0.09095 0.0
S972 S 0.09929 0.57113 0.96301 0.0
N973 N 0.10809 0.52926 0.96078 0.0
N974 N 0.09899 0.5806 1.00391 0.0
C975 C 0.10595 0.54898 0.01755 0.0
C976 C 0.11105 0.52147 0.99433 0.0
C977 C 0.73246 0.87689 0.25689 0.0
C978 C 0.76422 0.86074 0.25161 0.0
C979 C 0.71282 0.86852 0.28507 0.0
C980 C 0.72388 0.84296 0.30795 0.0
H981 H 0.72369 0.89744 0.24026 0.0
H982 H 0.6901 0.88358 0.29009 0.0
S983 S 0.80273 0.79039 0.30354 0.0
N984 N 0.80458 0.81649 0.27058 0.0
N985 N 0.76653 0.79983 0.32251 0.0
C986 C 0.75419 0.82506 0.30172 0.0
C987 C 0.77469 0.83415 0.27373 0.0
C988 C 0.93711 1.01016 1.01082 0.0
C989 C 0.91946 0.04069 0.01839 0.0
C990 C 0.94327 0.98532 0.0356 0.0
C991 C 0.93115 0.98987 0.06863 0.0
H992 H 0.94417 1.00427 0.98506 0.0
H993 H 0.95479 0.96112 0.02778 0.0
S994 S 0.8915 0.06978 0.1029 0.0
N995 N 0.89619 0.07773 0.0622 0.0
N996 N 0.90725 0.03059 0.10924 0.0
C997 C 0.91751 0.02242 0.07752 0.0
C998 C 0.91167 0.04799 0.05218 0.0
C999 C 0.23799 0.64883 0.76898 0.0
C1000 C 0.27106 0.66486 0.77398 0.0
C1001 C 0.21702 0.65697 0.74074 0.0
C1002 C 0.22837 0.68189 0.71745 0.0
H1003 H 0.22955 0.62774 0.78514 0.0
H1004 H 0.19341 0.64151 0.73549 0.0
S1005 S 0.30914 0.73642 0.72335 0.0
N1006 N 0.31161 0.71066 0.75662 0.0
N1007 N 0.27174 0.72606 0.70354 0.0
C1008 C 0.2594 0.70086 0.72434 0.0
C1009 C 0.28095 0.69235 0.75278 0.0
C1010 C 0.09239 0.53446 0.48925 0.0
C1011 C 0.11546 0.52484 0.51556 0.0
C1012 C 0.08418 0.51151 0.46223 0.0
C1013 C 0.09825 0.47809 0.46106 0.0
H1014 H 0.08178 0.5604 0.4887 0.0
H1015 H 0.06804 0.52056 0.44125 0.0
S1016 S 0.15954 0.44019 0.52407 0.0
N1017 N 0.15133 0.47927 0.53962 0.0
N1018 N 0.13649 0.43646 0.48811 0.0
C1019 C 0.12034 0.46762 0.48781 0.0
C1020 C 0.12865 0.49092 0.51542 0.0
C1021 C 0.43979 0.50806 1.00628 0.0
C1022 C 0.4089 0.5138 0.0232 0.0
C1023 C 0.44795 0.52715 0.97757 0.0
C1024 C 0.42557 0.55256 0.96516 0.0
H1025 H 0.45678 0.48737 0.01414 0.0
H1026 H 0.47057 0.52021 0.96365 0.0
S1027 S 0.34112 0.57666 1.00039 0.0
N1028 N 0.35617 0.54665 0.02631 0.0
N1029 N 0.37097 0.58218 0.9717 0.0
C1030 C 0.39521 0.55946 0.98271 0.0
C1031 C 0.38709 0.54022 1.01214 0.0
C1032 C 0.70139 0.74819 0.85643 0.0
C1033 C 0.70936 0.78055 0.84145 0.0
C1034 C 0.72702 0.72355 0.86138 0.0
C1035 C 0.7611 0.73087 0.85165 0.0
H1036 H 0.67617 0.74296 0.86694 0.0
H1037 H 0.72081 0.70014 0.87544 0.0
S1038 S 0.79316 0.80735 0.80402 0.0
N1039 N 0.75195 0.81489 0.81049 0.0
N1040 N 0.80039 0.76926 0.82155 0.0
C1041 C 0.76838 0.76105 0.83324 0.0
C1042 C 0.74227 0.78573 0.82753 0.0
C1043 C 0.45453 0.48007 0.1061 0.0
C1044 C 0.46636 0.45294 0.08559 0.0
C1045 C 0.47472 0.51025 0.11179 0.0
C1046 C 0.50769 0.51301 0.09818 0.0
H1047 H 0.43109 0.47696 0.12018 0.0
H1048 H 0.46607 0.52957 0.12977 0.0
S1049 S 0.54693 0.45219 0.03746 0.0
N1050 N 0.5098 0.43284 0.0473 0.0
N1051 N 0.54884 0.48974 0.0587 0.0
C1052 C 0.51814 0.48788 0.07468 0.0
C1053 C 0.49722 0.45744 0.06845 0.0
C1054 C 0.75079 0.24571 0.35492 0.0
C1055 C 0.75818 0.27623 0.37421 0.0
C1056 C 0.77643 0.22175 0.34935 0.0
C1057 C 0.81034 0.22769 0.3627 0.0
H1058 H 0.72484 0.23987 0.34452 0.0
H1059 H 0.76927 0.19801 0.33521 0.0
S1060 S 0.84292 0.30476 0.4141 0.0
N1061 N 0.80148 0.31205 0.40599 0.0
N1062 N 0.85035 0.26707 0.39524 0.0
C1063 C 0.81839 0.25887 0.38113 0.0
C1064 C 0.79207 0.28318 0.38698 0.0
C1065 C 1.01227 0.57757 0.61031 0.0
C1066 C 0.04526 0.5649 0.60291 0.0
C1067 C 0.98576 0.55473 0.62012 0.0
C1068 C 0.99198 0.51911 0.62262 0.0
H1069 H 1.00761 0.60539 0.61092 0.0
H1070 H 0.9613 0.56512 0.62779 0.0
S1071 S 0.06958 0.47166 0.59682 0.0
N1072 N 0.07957 0.51343 0.59167 0.0
N1073 N 0.02979 0.47082 0.61104 0.0
C1074 C 0.0232 0.50564 0.61181 0.0
C1075 C 0.04987 0.52857 0.60135 0.0
C1076 C 0.73133 0.29005 0.66934 0.0
C1077 C 0.75193 0.28465 0.64114 0.0
C1078 C 0.71225 0.26239 0.68251 0.0
C1079 C 0.71398 0.22902 0.66795 0.0
H1080 H 0.73038 0.31551 0.6816 0.0
H1081 H 0.696 0.26704 0.70395 0.0
S1082 S 0.76214 0.20207 0.59247 0.0
N1083 N 0.77154 0.24414 0.59793 0.0
N1084 N 0.73571 0.19191 0.62309 0.0
C1085 C 0.73396 0.22338 0.63942 0.0
C1086 C 0.75292 0.25144 0.62578 0.0
C1087 C 0.02419 0.49179 0.88005 0.0
C1088 C 1.00917 0.50839 0.90752 0.0
C1089 C 0.04533 0.46349 0.88545 0.0
C1090 C 0.05211 0.45164 0.91843 0.0
H1091 H 0.01964 0.50079 0.85435 0.0
H1092 H 0.05751 0.45164 0.86391 0.0
S1093 S 0.01961 0.48735 0.99856 0.0
N1094 N 1.00205 0.5116 0.96851 0.0
N1095 N 0.04309 0.45836 0.97881 0.0
C1096 C 0.0371 0.46782 0.94608 0.0
C1097 C 0.01509 0.49636 0.94054 0.0
C1098 C 0.78651 0.77441 0.19798 0.0
C1099 C 0.81658 0.77303 0.1789 0.0
C1100 C 0.76348 0.74597 0.19867 0.0
C1101 C 0.76929 0.71603 0.17917 0.0
H1102 H 0.77845 0.7986 0.20924 0.0
H1103 H 0.73869 0.74962 0.21009 0.0
S1104 S 0.84923 0.69456 0.13506 0.0
N1105 N 0.85575 0.73536 0.1486 0.0
N1106 N 0.81057 0.6823 0.14826 0.0
C1107 C 0.80183 0.7117 0.16535 0.0
C1108 C 0.82593 0.74048 0.16523 0.0
C1109 C 0.54186 0.56055 0.38463 0.0
C1110 C 0.55475 0.53839 0.40972 0.0
C1111 C 0.51478 0.58227 0.39134 0.0
C1112 C 0.49974 0.58242 0.42332 0.0
H1113 H 0.55066 0.55892 0.35881 0.0
H1114 H 0.50389 0.59699 0.37047 0.0
S1115 S 0.53066 0.53647 0.49997 0.0
N1116 N 0.55601 0.52317 0.46962 0.0
N1117 N 0.50344 0.56388 0.48195 0.0
C1118 C 0.51477 0.56336 0.4497 0.0
C1119 C 0.54309 0.54154 0.44301 0.0
C1120 C 0.90419 0.73112 0.75519 0.0
C1121 C 0.87732 0.74704 0.7368 0.0
C1122 C 0.89672 0.70784 0.78068 0.0
C1123 C 0.86225 0.69963 0.78818 0.0
H1124 H 0.93121 0.73794 0.75103 0.0
H1125 H 0.91805 0.69745 0.79564 0.0
S1126 S 0.78266 0.72998 0.74413 0.0
N1127 N 0.81492 0.75052 0.72531 0.0
N1128 N 0.80099 0.70534 0.77348 0.0
C1129 C 0.83504 0.71319 0.76857 0.0
C1130 C 0.8426 0.73725 0.74253 0.0
C1131 C 0.53923 0.60204 0.06402 0.0
C1132 C 0.56403 0.57968 0.05102 0.0
C1133 C 0.51016 0.61098 0.04432 0.0
C1134 C 0.50619 0.59916 1.01058 0.0
H1135 H 0.54339 0.61465 0.08857 0.0
H1136 H 0.49232 0.62946 0.05461 0.0
S1137 S 0.56301 0.53842 0.96568 0.0
N1138 N 0.58161 0.54388 1.00378 0.0
N1139 N 0.52786 0.56214 0.9657 0.0
C1140 C 0.52991 0.57547 0.99786 0.0
C1141 C 0.55881 0.56554 0.01834 0.0
C1142 C 0.70666 0.27649 0.2544 0.0
C1143 C 0.68055 0.27531 0.22869 0.0
C1144 C 0.70705 0.3021 0.27971 0.0
C1145 C 0.68157 0.32751 0.27965 0.0
H1146 H 0.7246 0.25559 0.25725 0.0
H1147 H 0.7255 0.30013 0.30091 0.0
S1148 S 0.61548 0.3427 0.21109 0.0
N1149 N 0.6345 0.30649 0.19952 0.0
N1150 N 0.63538 0.35557 0.24706 0.0
C1151 C 0.65933 0.33034 0.25077 0.0
C1152 C 0.65888 0.30393 0.22503 0.0
C1153 C 0.98216 0.38863 0.49902 0.0
C1154 C 1.00674 0.4148 0.49175 0.0
C1155 C 0.95833 0.39455 0.52386 0.0
C1156 C 0.95882 0.42672 0.54141 0.0
H1157 H 0.98315 0.36275 0.48756 0.0
H1158 H 0.94087 0.37329 0.53078 0.0
S1159 S 1.01124 0.50616 0.52375 0.0
N1160 N 0.02615 0.4755 0.49868 0.0
N1161 N 0.97993 0.48703 0.54507 0.0
C1162 C 0.98064 0.45415 0.53173 0.0
C1163 C 1.00513 0.44803 0.50673 0.0
C1164 C 0.84219 0.31289 0.752 0.0
C1165 C 0.84308 0.30585 0.717 0.0
C1166 C 0.84991 0.28704 0.7754 0.0
C1167 C 0.85896 0.25359 0.76438 0.0
H1168 H 0.83693 0.3389 0.7614 0.0
H1169 H 0.85027 0.29377 0.80219 0.0
S1170 S 0.85945 0.21996 0.67582 0.0
N1171 N 0.8492 0.2614 0.67253 0.0
N1172 N 0.86433 0.21311 0.71689 0.0
C1173 C 0.85747 0.24534 0.72965 0.0
C1174 C 0.84921 0.27143 0.70578 0.0
C1175 C 0.99015 0.59994 0.9632 0.0
C1176 C 0.96047 0.58401 0.97638 0.0
C1177 C 0.01802 0.61048 0.98479 0.0
C1178 C 0.01675 0.60556 0.02007 0.0
H1179 H 0.99048 0.60739 0.9368 0.0
H1180 H 0.0397 0.62455 0.97398 0.0
S1181 S 0.94574 0.56178 0.06601 0.0
N1182 N 0.93218 0.56102 0.02582 0.0
N1183 N 0.98479 0.58076 0.06665 0.0
C1184 C 0.98834 0.58709 0.03307 0.0
C1185 C 0.96007 0.57629 1.01106 0.0
C1186 C 0.68027 0.71336 0.24555 0.0
C1187 C 0.66994 0.71877 0.21169 0.0
C1188 C 0.68112 0.74102 0.26862 0.0
C1189 C 0.67135 0.77431 0.25806 0.0
H1190 H 0.68519 0.68731 0.25476 0.0
H1191 H 0.68609 0.73553 0.29521 0.0
S1192 S 0.65324 0.8038 0.17036 0.0
N1193 N 0.65752 0.7611 0.16717 0.0
N1194 N 0.66002 0.8134 0.21099 0.0
C1195 C 0.66656 0.78115 0.2235 0.0
C1196 C 0.66536 0.75304 0.20001 0.0
C1197 C 0.56735 0.4102 0.51309 0.0
C1198 C 0.55616 0.42615 0.48272 0.0
C1199 C 0.54474 0.4051 0.53956 0.0
C1200 C 0.51034 0.41577 0.53643 0.0
H1201 H 0.59311 0.39971 0.51585 0.0
H1202 H 0.55358 0.3906 0.5615 0.0
S1203 S 0.4704 0.46519 0.46561 0.0
N1204 N 0.50995 0.45717 0.45337 0.0
N1205 N 0.46755 0.44771 0.50352 0.0
C1206 C 0.49975 0.43453 0.50772 0.0
C1207 C 0.52268 0.4397 0.4807 0.0
C1208 C 0.76767 0.85267 0.71483 0.0
C1209 C 0.80255 0.86177 0.7225 0.0
C1210 C 0.74187 0.86251 0.73655 0.0
C1211 C 0.75039 0.88189 0.76629 0.0
H1212 H 0.76037 0.83765 0.69207 0.0
H1213 H 0.71527 0.85415 0.73039 0.0
S1214 S 0.8378 0.915 0.79575 0.0
N1215 N 0.84435 0.89307 0.76032 0.0
N1216 N 0.79558 0.91185 0.8013 0.0
C1217 C 0.78507 0.89228 0.77358 0.0
C1218 C 0.81135 0.88196 0.75166 0.0
C1219 C 0.22291 0.64759 0.30474 0.0
C1220 C 0.21823 0.67228 0.2792 0.0
C1221 C 0.25111 0.65121 0.32767 0.0
C1222 C 0.2749 0.67961 0.32535 0.0
H1223 H 0.20748 0.62343 0.30444 0.0
H1224 H 0.25622 0.6299 0.34485 0.0
S1225 S 0.26482 0.75745 0.27151 0.0
N1226 N 0.23301 0.73014 0.25853 0.0
N1227 N 0.28621 0.73735 0.30231 0.0
C1228 C 0.26709 0.70703 0.30345 0.0
C1229 C 0.23842 0.70329 0.28015 0.0
C1230 C 0.61516 0.99919 0.56824 0.0
C1231 C 0.60247 0.03161 0.55763 0.0
C1232 C 0.62084 0.97287 0.54451 0.0
C1233 C 0.61397 0.97879 0.51004 0.0
H1234 H 0.6235 0.99512 0.59437 0.0
H1235 H 0.63372 0.94945 0.55275 0.0
S1236 S 0.57214 0.05476 0.47044 0.0
N1237 N 0.57641 0.06469 0.51118 0.0
N1238 N 0.58803 0.01543 0.46682 0.0
C1239 C 0.59709 1.00887 0.49975 0.0
C1240 C 0.59103 0.0354 0.52365 0.0
C1241 C 0.26072 0.32295 0.76966 0.0
C1242 C 0.25672 0.35496 0.75303 0.0
C1243 C 0.24249 0.31541 0.79887 0.0
C1244 C 0.21964 0.33957 0.81208 0.0
H1245 H 0.27931 0.30434 0.76098 0.0
H1246 H 0.24776 0.29146 0.81228 0.0
S1247 S 0.19938 0.42659 0.77722 0.0
N1248 N 0.22728 0.41027 0.75077 0.0
N1249 N 0.19331 0.39633 0.80612 0.0
C1250 C 0.21414 0.37093 0.79472 0.0
C1251 C 0.2325 0.37849 0.76486 0.0
C1252 C 0.41618 0.50714 0.56818 0.0
C1253 C 0.40739 0.47199 0.56064 0.0
C1254 C 0.41337 0.53248 0.54314 0.0
C1255 C 0.40173 0.52321 0.51 0.0
H1256 H 0.42592 0.51495 0.59333 0.0
H1257 H 0.4207 0.55935 0.54968 0.0
S1258 S 0.37233 0.43516 0.47839 0.0
N1259 N 0.38397 0.42957 0.51851 0.0
N1260 N 0.37927 0.47716 0.4714 0.0
C1261 C 0.39175 0.48837 0.50247 0.0
C1262 C 0.39439 0.4627 0.52789 0.0
C1263 C 0.76005 0.18603 0.24032 0.0
C1264 C 0.75247 0.16427 0.21219 0.0
C1265 C 0.79214 0.18509 0.25733 0.0
C1266 C 0.81632 0.1602 0.2482 0.0
H1267 H 0.74058 0.20261 0.25017 0.0
H1268 H 0.79614 0.20083 0.28022 0.0
S1269 S 0.81029 0.09907 0.17471 0.0
N1270 N 0.77333 0.11997 0.17323 0.0
N1271 N 0.83262 0.1156 0.20792 0.0
C1272 C 0.81017 0.1398 0.21885 0.0
C1273 C 0.77817 0.14206 0.2004 0.0
C1274 C 0.64112 0.99667 0.96438 0.0
C1275 C 0.60698 0.98452 0.95774 0.0
C1276 C 0.64769 0.02575 0.98521 0.0
C1277 C 0.62017 0.04335 0.9996 0.0
H1278 H 0.66286 0.98273 0.95459 0.0
H1279 H 0.67448 0.03331 0.9915 0.0
S1280 S 0.52592 0.02499 0.98357 0.0
N1281 N 0.54534 0.99367 0.96281 0.0
N1282 N 0.55743 0.05017 1.00095 0.0
C1283 C 0.58574 0.03341 0.99016 0.0
C1284 C 0.57915 1.00319 0.96952 0.0
C1285 C 0.91745 0.05913 0.49597 0.0
C1286 C 0.91708 0.04389 0.46338 0.0
C1287 C 0.90779 0.03963 0.52406 0.0
C1288 C 0.89534 1.00498 0.5199 0.0
H1289 H 0.92409 0.08637 0.49986 0.0
H1290 H 0.90964 0.05185 0.54902 0.0
S1291 S 0.88218 0.95478 0.43905 0.0
N1292 N 0.90009 0.99249 0.42837 0.0
N1293 N 0.87872 0.95741 0.48051 0.0
C1294 C 0.89228 0.99015 0.4872 0.0
C1295 C 0.90383 1.00922 0.45904 0.0
C1296 C 0.14284 0.25718 0.48549 0.0
C1297 C 0.13434 0.29153 0.49565 0.0
C1298 C 0.14566 0.22918 0.50906 0.0
C1299 C 0.14067 0.23401 0.54425 0.0
H1300 H 0.14715 0.25171 0.45898 0.0
H1301 H 0.15292 0.20373 0.49973 0.0
S1302 S 0.12168 0.319 0.5853 0.0
N1303 N 0.12279 0.32832 0.54455 0.0
N1304 N 0.12942 0.27685 0.58799 0.0
C1305 C 0.13326 0.26832 0.55479 0.0
C1306 C 0.1297 0.29655 0.5309 0.0
C1307 C 0.02851 0.92387 0.7708 0.0
C1308 C 0.04773 0.89749 0.78764 0.0
C1309 C 1.00238 0.91626 0.74501 0.0
C1310 C 0.99308 0.88164 0.73477 0.0
H1311 H 0.03367 0.95108 0.77764 0.0
H1312 H 0.98872 0.93779 0.73366 0.0
S1313 S 0.03605 0.80239 0.7685 0.0
N1314 N 0.05601 0.83493 0.78996 0.0
N1315 N 1.00709 0.82056 0.74293 0.0
C1316 C 1.01247 0.855 0.75092 0.0
C1317 C 0.03954 0.86284 0.77672 0.0
C1318 C 0.35474 0.77371 0.02265 0.0
C1319 C 0.38256 0.79564 0.03576 0.0
C1320 C 0.35971 0.74585 0.9991 0.0
C1321 C 0.39298 0.73751 0.98793 0.0
H1322 H 0.32859 0.778 0.03075 0.0
H1323 H 0.33735 0.73001 0.99039 0.0
S1324 S 0.47469 0.78693 0.01242 0.0
N1325 N 0.44476 0.80731 0.03358 0.0
N1326 N 0.45411 0.75476 0.99099 0.0
C1327 C 0.42093 0.75938 1.00039 0.0
C1328 C 0.41578 0.78832 0.02368 0.0
C1329 C 0.48793 0.14908 0.26884 0.0
C1330 C 0.49658 0.13437 0.30077 0.0
C1331 C 0.51215 0.15128 0.24224 0.0
C1332 C 0.54644 0.13916 0.24619 0.0
H1333 H 0.46211 0.15883 0.26418 0.0
H1334 H 0.50418 0.16335 0.21863 0.0
S1335 S 0.58299 0.09793 0.32363 0.0
N1336 N 0.54289 0.10688 0.33358 0.0
N1337 N 0.58738 0.11166 0.28445 0.0
C1338 C 0.55536 0.12444 0.27769 0.0
C1339 C 0.53085 0.12182 0.30456 0.0
C1340 C 0.11181 0.78355 0.99396 0.0
C1341 C 0.1444 0.80013 0.98915 0.0
C1342 C 0.10711 0.75774 0.01916 0.0
C1343 C 0.13443 0.74758 0.04172 0.0
H1344 H 0.08994 0.78967 0.97732 0.0
H1345 H 0.0816 0.74532 0.02073 0.0
S1346 S 0.22435 0.7854 0.04158 0.0
N1347 N 0.20416 0.80556 1.01018 0.0
N1348 N 0.1952 0.75851 0.05793 0.0
C1349 C 0.16681 0.76516 0.038 0.0
C1350 C 0.17178 0.79084 1.01173 0.0
C1351 C 0.4886 0.91914 0.26108 0.0
C1352 C 0.48056 0.89751 0.23208 0.0
C1353 C 0.5161 0.91205 0.28524 0.0
C1354 C 0.53819 0.88328 0.2816 0.0
H1355 H 0.47349 0.94216 0.26515 0.0
H1356 H 0.52043 0.92982 0.30666 0.0
S1357 S 0.52889 0.81824 0.20996 0.0
N1358 N 0.49746 0.8457 0.20176 0.0
N1359 N 0.5486 0.83255 0.24551 0.0
C1360 C 0.53006 0.86128 0.25268 0.0
C1361 C 0.50171 0.86829 0.22854 0.0
C1362 C 0.41524 0.24519 0.49753 0.0
C1363 C 0.38133 0.23276 0.48834 0.0
C1364 C 0.42176 0.27038 0.5241 0.0
C1365 C 0.39496 0.28404 0.54394 0.0
H1366 H 0.437 0.236 0.48354 0.0
H1367 H 0.44842 0.27911 0.52926 0.0
S1368 S 0.30162 0.25777 0.53271 0.0
N1369 N 0.32058 0.23527 0.5028 0.0
N1370 N 0.33296 0.28084 0.55297 0.0
C1371 C 0.36107 0.27078 0.53582 0.0
C1372 C 0.3543 0.24582 0.50814 0.0
C1373 C 1.01231 0.13341 0.78937 0.0
C1374 C 0.97617 0.13415 0.78145 0.0
C1375 C 0.03748 0.13047 0.76368 0.0
C1376 C 0.0279 0.12724 0.72868 0.0
H1377 H 0.02134 0.13613 0.81561 0.0
H1378 H 0.06471 0.13017 0.77139 0.0
S1379 S 0.93696 0.1277 0.69402 0.0
N1380 N 0.93275 0.13197 0.7354 0.0
N1381 N 0.97906 0.125 0.68816 0.0
C1382 C 0.99188 0.12751 0.72066 0.0
C1383 C 0.96647 0.13139 0.74658 0.0
C1384 C 0.25485 0.53317 0.17224 0.0
C1385 C 0.23364 0.54655 0.1453 0.0
C1386 C 0.28095 0.50773 0.16732 0.0
C1387 C 0.28875 0.49434 0.13487 0.0
H1388 H 0.25114 0.54236 0.19793 0.0
H1389 H 0.29582 0.49912 0.18931 0.0
S1390 S 0.24093 0.51854 0.05511 0.0
N1391 N 0.2222 0.54202 0.08448 0.0
N1392 N 0.27143 0.49633 0.07508 0.0
C1393 C 0.26772 0.50727 0.10763 0.0
C1394 C 0.24039 0.53249 0.1128 0.0
C1395 C 0.75135 0.04287 0.88439 0.0
C1396 C 0.78574 0.03571 0.89602 0.0
C1397 C 0.72446 0.01604 0.88026 0.0
C1398 C 0.73024 0.98017 0.88708 0.0
H1399 H 0.74487 0.06963 0.87887 0.0
H1400 H 0.69908 0.02343 0.87068 0.0
S1401 S 0.81539 0.94628 0.91683 0.0
N1402 N 0.82314 0.98883 0.91398 0.0
N1403 N 0.77416 0.93963 0.90507 0.0
C1404 C 0.76455 0.97277 0.89816 0.0
C1405 C 0.79157 0.99995 0.90301 0.0
C1406 C 0.77294 0.02185 0.3564 0.0
C1407 C 0.79585 0.03709 0.38192 0.0
C1408 C 0.74834 0.9942 0.36302 0.0
C1409 C 0.74411 0.98054 0.39589 0.0
H1410 H 0.77423 0.03115 0.33063 0.0
H1411 H 0.7319 0.98398 0.34217 0.0
S1412 S 0.7975 1.00987 0.47219 0.0
N1413 N 0.81275 0.03454 0.44165 0.0
N1414 N 0.76629 0.98468 0.45431 0.0
C1415 C 0.76683 0.99553 0.42165 0.0
C1416 C 0.79255 0.02296 0.4147 0.0
C1417 C 0.76982 0.99938 0.10281 0.0
C1418 C 0.78102 0.98782 0.13524 0.0
C1419 C 0.74413 0.02546 0.09843 0.0
C1420 C 0.72857 0.04256 0.12613 0.0
H1421 H 0.78024 0.98744 0.08042 0.0
H1422 H 0.73651 0.03245 0.07277 0.0
S1423 S 0.75033 0.02431 0.21667 0.0
N1424 N 0.77467 0.99705 0.19574 0.0
N1425 N 0.72843 0.04627 0.1876 0.0
C1426 C 0.74047 0.03207 0.15867 0.0
C1427 C 0.7659 1.00486 0.16313 0.0
C1428 C 0.2587 0.49108 0.6644 0.0
C1429 C 0.28024 0.47816 0.63874 0.0
C1430 C 0.23671 0.5202 0.65953 0.0
C1431 C 0.23332 0.5371 0.62798 0.0
H1432 H 0.25866 0.47847 0.68874 0.0
H1433 H 0.22132 0.52871 0.68043 0.0
S1434 S 0.28042 0.51169 0.55067 0.0
N1435 N 0.29506 0.48463 0.57981 0.0
N1436 N 0.25233 0.53651 0.56972 0.0
C1437 C 0.25363 0.52352 0.60164 0.0
C1438 C 0.27718 0.49497 0.60713 0.0
C1439 C 0.23246 0.52218 0.38687 0.0
C1440 C 0.23856 0.48566 0.38694 0.0
C1441 C 0.26004 0.54829 0.39068 0.0
C1442 C 0.29556 0.5397 0.3955 0.0
H1443 H 0.20612 0.53081 0.38289 0.0
H1444 H 0.25327 0.57559 0.39042 0.0
S1445 S 0.32635 0.44826 0.39723 0.0
N1446 N 0.28388 0.44311 0.39137 0.0
N1447 N 0.33432 0.4909 0.39987 0.0
C1448 C 0.30176 0.5033 0.39592 0.0
C1449 C 0.27393 0.47691 0.39122 0.0
C1450 C 0.2396 0.50907 0.91282 0.0
C1451 C 0.23868 0.47563 0.89653 0.0
C1452 C 0.26532 0.53551 0.9063 0.0
C1453 C 0.29224 0.53007 0.8835 0.0
H1454 H 0.21992 0.51517 0.9308 0.0
H1455 H 0.26388 0.56064 0.91908 0.0
S1456 S 0.30392 0.44729 0.83511 0.0
N1457 N 0.2686 0.43912 0.85666 0.0
N1458 N 0.31673 0.48779 0.84536 0.0
C1459 C 0.29202 0.49676 0.86736 0.0
C1460 C 0.26555 0.46997 0.87361 0.0
C1461 C 0.6305 0.75704 0.04656 0.0
C1462 C 0.64213 0.72334 0.03869 0.0
C1463 C 0.62737 0.78343 0.02172 0.0
C1464 C 0.63715 0.77841 0.98765 0.0
H1465 H 0.62392 0.76326 0.07241 0.0
H1466 H 0.61763 0.80844 0.02966 0.0
S1467 S 0.6711 0.6953 0.95377 0.0
N1468 N 0.66369 0.6865 0.99388 0.0
N1469 N 0.66012 0.73636 0.94809 0.0
C1470 C 0.64967 0.74497 0.9796 0.0
C1471 C 0.65154 0.71757 1.00472 0.0
C1472 C 0.54561 0.39292 0.2589 0.0
C1473 C 0.53655 0.39735 0.29325 0.0
C1474 C 0.52003 0.38891 0.23183 0.0
C1475 C 0.48391 0.38901 0.23766 0.0
H1476 H 0.57276 0.39331 0.25275 0.0
H1477 H 0.52867 0.38468 0.20628 0.0
S1478 S 0.44589 0.40008 0.32251 0.0
N1479 N 0.48821 0.40216 0.33075 0.0
N1480 N 0.44106 0.39409 0.28106 0.0
C1481 C 0.47473 0.39354 0.27185 0.0
C1482 C 0.50059 0.39796 0.29913 0.0
C1483 C 0.85559 0.25506 0.49582 0.0
C1484 C 0.88941 0.24208 0.49252 0.0
C1485 C 0.84819 0.28277 0.51909 0.0
C1486 C 0.87416 0.30038 0.54008 0.0
H1487 H 0.83424 0.2431 0.48086 0.0
H1488 H 0.82145 0.29051 0.5206 0.0
S1489 S 0.96764 0.27872 0.54047 0.0
N1490 N 0.94954 0.25069 0.51245 0.0
N1491 N 0.93583 0.30253 0.55448 0.0
C1492 C 0.90824 0.28844 0.53626 0.0
C1493 C 0.9157 0.25963 0.51317 0.0
C1494 C 1.01028 0.66271 0.78847 0.0
C1495 C 0.99406 0.62967 0.7934 0.0
C1496 C 0.03588 0.66805 0.76361 0.0
C1497 C 0.04619 0.64096 0.74141 0.0
H1498 H 1.00388 0.68454 0.80465 0.0
H1499 H 0.04776 0.69394 0.76179 0.0
S1500 S 1.00963 0.54986 0.74179 0.0
N1501 N 0.98956 0.56958 0.77279 0.0
N1502 N 0.03584 0.57982 0.72563 0.0
C1503 C 0.02906 0.60809 0.74527 0.0
C1504 C 1.0037 0.60244 0.77124 0.0
C1505 C 0.61241 0.28497 0.50334 0.0
C1506 C 0.64414 0.29249 0.4875 0.0
C1507 C 0.60972 0.2603 0.53008 0.0
C1508 C 0.63873 0.24241 0.54369 0.0
H1509 H 0.58901 0.29738 0.49426 0.0
H1510 H 0.58426 0.25471 0.53991 0.0
S1511 S 0.72847 0.25322 0.5131 0.0
N1512 N 0.70579 0.27985 0.48889 0.0
N1513 N 0.70061 0.23502 0.53903 0.0
C1514 C 0.6708 0.25053 0.52897 0.0
C1515 C 0.67349 0.27501 0.50116 0.0
C1516 C 0.97694 0.38141 0.77119 0.0
C1517 C 0.98392 0.38532 0.73634 0.0
C1518 C 1.0041 0.37726 0.79637 0.0
C1519 C 0.03954 0.37609 0.78789 0.0
H1520 H 0.95038 0.38247 0.77923 0.0
H1521 H 0.99717 0.37431 0.82259 0.0
S1522 S 0.07216 0.38529 0.70071 0.0
N1523 N 0.02966 0.38826 0.69547 0.0
N1524 N 0.07947 0.3795 0.74172 0.0
C1525 C 0.0466 0.37973 0.7532 0.0
C1526 C 0.01929 0.38461 0.72789 0.0
C1527 C 0.86157 0.78062 0.02046 0.0
C1528 C 0.89426 0.78659 0.0373 0.0
C1529 C 0.85622 0.75515 0.99364 0.0
C1530 C 0.88271 0.73279 0.98246 0.0
H1531 H 0.83999 0.7965 0.02732 0.0
H1532 H 0.83067 0.75302 0.98149 0.0
S1533 S 0.97317 0.73625 0.01867 0.0
N1534 N 0.95384 0.76716 0.04009 0.0
N1535 N 0.94324 0.71885 0.99207 0.0
C1536 C 0.91529 0.73796 0.99971 0.0
C1537 C 0.9211 0.76469 0.02622 0.0
C1538 C 0.53852 0.6413 0.25907 0.0
C1539 C 0.52747 0.62823 0.22652 0.0
C1540 C 0.51498 0.64535 0.286 0.0
C1541 C 0.479 0.6373 0.28162 0.0
H1542 H 0.56573 0.64799 0.264 0.0
H1543 H 0.52495 0.65573 0.31021 0.0
S1544 S 0.43615 0.60238 0.20192 0.0
N1545 N 0.47745 0.60682 0.19241 0.0
N1546 N 0.43389 0.61565 0.2418 0.0
C1547 C 0.46772 0.62449 0.24925 0.0
C1548 C 0.49163 0.61961 0.22222 0.0
C1549 C 0.77234 0.99036 0.67115 0.0
C1550 C 0.78988 0.98751 0.64024 0.0
C1551 C 0.74567 0.01507 0.6762 0.0
C1552 C 0.73371 0.03798 0.65043 0.0
H1553 H 0.7798 0.97381 0.6921 0.0
H1554 H 0.73411 0.01612 0.70085 0.0
S1555 S 0.76923 0.04099 0.56399 0.0
N1556 N 0.79202 1.01047 0.58299 0.0
N1557 N 0.7419 0.05505 0.59221 0.0
C1558 C 0.75028 0.03479 0.61913 0.0
C1559 C 0.7781 1.01029 0.61419 0.0
C1560 C 0.1667 0.51152 0.23385 0.0
C1561 C 0.13844 0.53374 0.2296 0.0
C1562 C 0.16758 0.48614 0.25936 0.0
C1563 C 0.14061 0.48226 0.28255 0.0
H1564 H 0.18888 0.51445 0.21782 0.0
H1565 H 0.19041 0.4703 0.26165 0.0
S1566 S 0.06028 0.5339 0.28192 0.0
N1567 N 0.08235 0.54986 0.25008 0.0
N1568 N 0.08408 0.50271 0.29853 0.0
C1569 C 0.11182 0.50404 0.27817 0.0
C1570 C 0.11072 0.52958 0.25164 0.0
C1571 C 0.7831 0.88244 0.48365 0.0
C1572 C 0.74759 0.88013 0.49113 0.0
C1573 C 0.80943 0.88404 0.5097 0.0
C1574 C 0.80181 0.88244 0.5446 0.0
H1575 H 0.79059 0.88528 0.45757 0.0
H1576 H 0.8361 0.88804 0.50241 0.0
S1577 S 0.71307 0.87415 0.57794 0.0
N1578 N 0.70644 0.87493 0.53634 0.0
N1579 N 0.75562 0.87688 0.58466 0.0
C1580 C 0.76651 0.87823 0.55228 0.0
C1581 C 0.73963 0.87741 0.52582 0.0
C1582 C 0.40315 0.48705 0.74657 0.0
C1583 C 0.3706 0.47449 0.73306 0.0
C1584 C 0.40556 0.5137 0.77233 0.0
C1585 C 0.37558 0.52945 0.78477 0.0
H1586 H 0.42675 0.47566 0.73791 0.0
H1587 H 0.43099 0.5223 0.78219 0.0
S1588 S 0.28433 0.50655 0.75798 0.0
N1589 N 0.30789 0.48046 0.73511 0.0
N1590 N 0.31264 0.53028 0.78123 0.0
C1591 C 0.34324 0.51745 0.77095 0.0
C1592 C 0.34072 0.49019 0.74578 0.0
C1593 C 0.75432 0.14525 0.98224 0.0
C1594 C 0.78908 0.13944 0.99236 0.0
C1595 C 0.72799 0.14703 1.00611 0.0
C1596 C 0.7354 0.14422 0.04122 0.0
H1597 H 0.74703 0.14664 0.95552 0.0
H1598 H 0.70138 0.14963 0.99692 0.0
S1599 S 0.82233 0.13113 0.08137 0.0
N1600 N 0.82954 0.13223 0.04031 0.0
N1601 N 0.78025 0.13668 0.08495 0.0
C1602 C 0.77022 0.14011 0.05183 0.0
C1603 C 0.79695 0.13741 0.0275 0.0
C1604 C 0.22887 0.13396 0.5081 0.0
C1605 C 0.2402 0.14123 0.54191 0.0
C1606 C 0.25236 0.13387 0.48149 0.0
C1607 C 0.28819 0.13986 0.48784 0.0
H1608 H 0.20145 0.12974 0.50192 0.0
H1609 H 0.2424 0.12942 0.45573 0.0
S1610 S 0.33144 0.16009 0.57153 0.0
N1611 N 0.28991 0.15492 0.57995 0.0
N1612 N 0.33393 0.15333 0.53024 0.0
C1613 C 0.29999 0.14627 0.52153 0.0
C1614 C 0.27606 0.14732 0.54846 0.0
C1615 C 0.14119 0.02946 0.78759 0.0
C1616 C 0.14028 0.99269 0.78322 0.0
C1617 C 0.1375 0.05224 0.75976 0.0
C1618 C 0.1316 0.03926 0.72639 0.0
H1619 H 0.14372 0.04074 0.81293 0.0
H1620 H 0.13719 0.08017 0.76468 0.0
S1621 S 0.12701 0.94545 0.70076 0.0
N1622 N 0.13412 0.9447 0.74231 0.0
N1623 N 0.12568 0.98719 0.69058 0.0
C1624 C 0.13129 1.00266 0.72157 0.0
C1625 C 0.13606 0.97951 0.74974 0.0
C1626 C 0.23125 0.91004 0.01363 0.0
C1627 C 0.24115 0.90172 0.98037 0.0
C1628 C 0.25563 0.91095 0.04164 0.0
C1629 C 0.29143 0.9046 0.03788 0.0
H1630 H 0.20405 0.91342 0.01855 0.0
H1631 H 0.24602 0.91512 0.06683 0.0
S1632 S 0.3314 0.88204 0.95638 0.0
N1633 N 0.2901 0.88749 0.94574 0.0
N1634 N 0.33508 0.88995 0.99764 0.0
C1635 C 0.30187 0.89788 1.00459 0.0
C1636 C 0.27709 0.89628 0.97623 0.0
C1637 C 0.37116 0.02756 0.28869 0.0
C1638 C 0.4031 0.04395 0.29936 0.0
C1639 C 0.369 1.0035 0.26072 0.0
C1640 C 0.39856 0.99553 0.24199 0.0
H1641 H 0.34795 0.0327 0.30246 0.0
H1642 H 0.34404 0.99142 0.25352 0.0
S1643 S 0.48821 0.03224 0.2594 0.0
N1644 N 0.4646 0.05064 0.28837 0.0
N1645 N 0.46081 1.00663 0.23695 0.0
C1646 C 0.4304 0.01226 0.25251 0.0
C1647 C 0.43257 0.03611 0.28074 0.0
C1648 C 0.5159 0.28441 0.18385 0.0
C1649 C 0.49288 0.28507 0.15534 0.0
C1650 C 0.54375 0.26112 0.18589 0.0
C1651 C 0.5499 0.23648 0.1598 0.0
H1652 H 0.51232 0.30216 0.20503 0.0
H1653 H 0.56023 0.26212 0.2087 0.0
S1654 S 0.49626 0.22645 0.07981 0.0
N1655 N 0.47802 0.25879 0.10025 0.0
N1656 N 0.52936 0.21441 0.10429 0.0
C1657 C 0.52696 0.23692 0.13097 0.0
C1658 C 0.49886 0.26125 0.12869 0.0
C1659 C 0.97999 0.26716 0.86546 0.0
C1660 C 0.98182 0.23229 0.87709 0.0
C1661 C 1.0093 0.29053 0.86599 0.0
C1662 C 0.04245 0.28053 0.8779 0.0
H1663 H 0.95571 0.2763 0.85467 0.0
H1664 H 1.00624 0.31635 0.85547 0.0
S1665 S 0.06255 0.1926 0.91109 0.0
N1666 N 0.02046 0.18951 0.90148 0.0
N1667 N 0.07522 0.23293 0.90176 0.0
C1668 C 0.04473 0.24608 0.89026 0.0
C1669 C 0.01465 0.22228 0.89016 0.0
C1670 C 0.02141 0.78928 0.14161 0.0
C1671 C 0.98561 0.78303 0.13393 0.0
C1672 C 0.0459 0.76217 0.14052 0.0
C1673 C 0.0361 0.72758 0.13047 0.0
H1674 H 0.03079 0.81565 0.14774 0.0
H1675 H 0.07309 0.76889 0.14566 0.0
S1676 S 0.9458 0.6971 0.10708 0.0
N1677 N 0.94183 0.73898 0.11659 0.0
N1678 N 0.98747 0.68896 0.1128 0.0
C1679 C 1.00029 0.72096 0.1231 0.0
C1680 C 0.97527 0.74829 0.12528 0.0
C1681 C 0.54346 0.75742 0.38701 0.0
C1682 C 0.54253 0.78979 0.36993 0.0
C1683 C 0.5138 0.73402 0.38771 0.0
C1684 C 0.48175 0.74145 0.37087 0.0
H1685 H 0.56765 0.74948 0.39896 0.0
H1686 H 0.5166 0.70912 0.40016 0.0
S1687 S 0.46503 0.82353 0.32385 0.0
N1688 N 0.506 0.82827 0.33716 0.0
N1689 N 0.45143 0.7852 0.33792 0.0
C1690 C 0.48052 0.77425 0.35458 0.0
C1691 C 0.51042 0.79797 0.3542 0.0
C1692 C 0.03074 0.7966 0.64539 0.0
C1693 C 0.99556 0.78495 0.64374 0.0
C1694 C 0.05845 0.77281 0.6484 0.0
C1695 C 0.05254 0.73607 0.64863 0.0
H1696 H 0.0369 0.82443 0.64636 0.0
H1697 H 0.08478 0.78334 0.65141 0.0
S1698 S 0.96564 0.69158 0.64479 0.0
N1699 N 0.95688 0.73359 0.6429 0.0
N1700 N 1.00844 0.6896 0.64686 0.0
C1701 C 0.01763 0.72413 0.64585 0.0
C1702 C 0.98944 0.74826 0.64383 0.0
C1703 C 1.00402 0.29522 0.39332 0.0
C1704 C 0.03956 0.29129 0.4026 0.0
C1705 C 0.97923 0.2667 0.39382 0.0
C1706 C 0.98844 0.23293 0.40471 0.0
H1707 H 0.99497 0.32093 0.38684 0.0
H1708 H 0.95225 0.27173 0.38763 0.0
S1709 S 0.07787 0.20844 0.43179 0.0
N1710 N 0.08224 0.25025 0.42228 0.0
N1711 N 0.03644 0.19778 0.42442 0.0
C1712 C 0.02401 0.22873 0.41347 0.0
C1713 C 0.04919 0.25744 0.4122 0.0
C1714 C 0.482 0.75568 0.88029 0.0
C1715 C 0.48857 0.72495 0.89889 0.0
C1716 C 0.50736 0.78361 0.87844 0.0
C1717 C 0.54087 0.78179 0.89424 0.0
H1718 H 0.45646 0.7591 0.86872 0.0
H1719 H 0.50019 0.80736 0.86563 0.0
S1720 S 0.57188 0.70733 0.94535 0.0
N1721 N 0.53211 0.69494 0.93281 0.0
N1722 N 0.57866 0.74626 0.9288 0.0
C1723 C 0.54794 0.75082 0.91176 0.0
C1724 C 0.52229 0.72284 0.9141 0.0
C1725 C 0.62428 0.03882 0.77014 0.0
C1726 C 0.6307 0.03237 0.7356 0.0
C1727 C 0.62294 1.01145 0.7939 0.0
C1728 C 0.62902 0.97656 0.78432 0.0
H1729 H 0.6212 0.06543 0.77909 0.0
H1730 H 0.61917 0.018 0.82031 0.0
S1731 S 0.64723 0.94569 0.69704 0.0
N1732 N 0.6425 0.98825 0.69307 0.0
N1733 N 0.64113 0.93725 0.73743 0.0
C1734 C 0.63475 0.96976 0.74967 0.0
C1735 C 0.63529 0.99746 0.72544 0.0
C1736 C 0.30506 0.38123 1.01213 0.0
C1737 C 0.2977 0.38355 0.04694 0.0
C1738 C 0.27842 0.37728 0.9868 0.0
C1739 C 0.24314 0.37651 0.99511 0.0
H1740 H 0.33166 0.38416 1.00428 0.0
H1741 H 0.28549 0.3773 0.96043 0.0
S1742 S 0.2099 0.3802 0.08252 0.0
N1743 N 0.25256 0.38299 0.0883 0.0
N1744 N 0.20253 0.37653 0.04109 0.0
C1745 C 0.23554 0.37734 0.02994 0.0
C1746 C 0.26273 0.38059 0.05571 0.0
C1747 C 0.84513 0.98489 0.25189 0.0
C1748 C 0.87321 0.97493 0.23186 0.0
C1749 C 0.84851 1.01075 0.27772 0.0
C1750 C 0.8804 0.02813 0.28632 0.0
H1751 H 0.81955 0.973 0.24727 0.0
H1752 H 0.82542 0.01743 0.29109 0.0
S1753 S 0.96312 0.01218 0.24347 0.0
N1754 N 0.93489 0.98511 0.22342 0.0
N1755 N 0.94137 0.03293 0.2727 0.0
C1756 C 0.9092 0.01812 0.26739 0.0
C1757 C 0.90559 0.99196 0.24017 0.0
C1758 C 0.2379 0.6499 0.50742 0.0
C1759 C 0.24333 0.63785 0.54076 0.0
C1760 C 0.2648 0.65022 0.48388 0.0
C1761 C 0.298 0.63741 0.4923 0.0
H1762 H 0.21255 0.65888 0.49937 0.0
H1763 H 0.25907 0.65934 0.45846 0.0
S1764 S 0.325 0.60167 0.57618 0.0
N1765 N 0.28435 0.61286 0.58099 0.0
N1766 N 0.33419 0.61196 0.53687 0.0
C1767 C 0.30359 0.62529 0.5257 0.0
C1768 C 0.27652 0.62589 0.54983 0.0
C1769 C 0.754 0.60949 0.02544 0.0
C1770 C 0.73872 0.64042 0.03671 0.0
C1771 C 0.77847 0.6102 0.99948 0.0
C1772 C 0.78743 0.64164 0.98313 0.0
H1773 H 0.74769 0.58482 0.03731 0.0
H1774 H 0.79013 0.58598 0.99191 0.0
S1775 S 0.75383 0.72956 1.00274 0.0
N1776 N 0.73459 0.70325 0.02958 0.0
N1777 N 0.77841 0.70425 0.98004 0.0
C1778 C 0.77161 0.67246 0.99382 0.0
C1779 C 0.74784 0.67193 0.02076 0.0
C1780 C 0.62163 0.53011 0.28927 0.0
C1781 C 0.6287 0.4942 0.28575 0.0
C1782 C 0.62058 0.55261 0.26104 0.0
C1783 C 0.6257 0.5401 0.22783 0.0
H1784 H 0.61617 0.54082 0.31404 0.0
H1785 H 0.61389 0.57966 0.26503 0.0
S1786 S 0.64397 0.44834 0.20422 0.0
N1787 N 0.64114 0.44753 0.24593 0.0
N1788 N 0.63761 0.48927 0.19313 0.0
C1789 C 0.63295 0.50439 0.22395 0.0
C1790 C 0.63493 0.48167 0.25276 0.0
C1791 C 0.74377 0.40311 0.53564 0.0
C1792 C 0.78008 0.40271 0.53168 0.0
C1793 C 0.72001 0.40092 0.50753 0.0
C1794 C 0.73135 0.39722 0.47406 0.0
H1795 H 0.73352 0.40374 0.56089 0.0
H1796 H 0.69248 0.39977 0.51231 0.0
S1797 S 0.82359 0.39615 0.44937 0.0
N1798 N 0.82604 0.40018 0.49116 0.0
N1799 N 0.78173 0.39493 0.43867 0.0
C1800 C 0.76761 0.39802 0.46965 0.0
C1801 C 0.79181 0.4011 0.49825 0.0
C1802 C 0.9222 0.48127 0.76521 0.0
C1803 C 0.89481 0.48174 0.74061 0.0
C1804 C 0.92483 0.50511 0.79289 0.0
C1805 C 0.90053 0.53174 0.79785 0.0
H1806 H 0.9427 0.46269 0.76249 0.0
H1807 H 0.94718 0.50311 0.81008 0.0
S1808 S 0.82309 0.54471 0.74092 0.0
N1809 N 0.84209 0.51101 0.7234 0.0
N1810 N 0.84707 0.55609 0.77508 0.0
C1811 C 0.87231 0.53211 0.77382 0.0
C1812 C 0.86949 0.50727 0.74545 0.0
C1813 C 0.52623 0.28401 0.64926 0.0
C1814 C 0.49197 0.27997 0.63555 0.0
C1815 C 0.55029 0.25653 0.64773 0.0
C1816 C 0.54146 0.22415 0.63152 0.0
H1817 H 0.53471 0.30883 0.66072 0.0
H1818 H 0.57653 0.26138 0.65774 0.0
S1819 S 0.45518 0.20072 0.59081 0.0
N1820 N 0.45061 0.2409 0.60553 0.0
N1821 N 0.49534 0.19023 0.60154 0.0
C1822 C 0.50705 0.21992 0.61805 0.0
C1823 C 0.48254 0.24748 0.62031 0.0
loop_
_geom_bond_atom_site_label_1
_geom_bond_atom_site_label_2
_geom_bond_distance
_geom_bond_site_symmetry_2
_ccdc_geom_bond_type
Co0 H3 2.400 . S
Co0 O4 2.009 . S
Co0 O12 2.115 . S
Co0 O13 2.315 . S
Co0 O24 2.053 . S
Co0 O27 2.094 . S
Co0 O30 2.122 . S
Co1 O4 2.126 . S
Co1 H5 2.388 . S
Co1 O6 2.053 . S
Co1 O9 2.047 . S
Co1 O15 2.113 . S
Co1 O26 2.063 . S
Co2 H3 2.388 . S
Co2 O4 2.053 . S
Co2 O6 2.126 . S
Co2 O11 2.063 . S
Co2 O25 2.047 . S
Co2 O31 2.113 . S
H3 Co0 2.400 . S
H3 Co2 2.388 . S
H3 O4 0.760 . S
O4 Co0 2.009 . S
O4 Co1 2.126 . S
O4 Co2 2.053 . S
O4 H3 0.760 . S
H5 Co1 2.388 . S
H5 O6 0.760 . S
H5 Co7 2.400 . S
O6 Co1 2.053 . S
O6 Co2 2.126 . S
O6 H5 0.760 . S
O6 Co7 2.009 . S
Co7 H5 2.400 . S
Co7 O6 2.009 . S
Co7 O8 2.053 . S
Co7 O10 2.094 . S
Co7 O14 2.122 . S
Co7 O28 2.115 . S
Co7 O29 2.315 . S
O8 Co7 2.053 . S
O8 C20 1.259 . S
O9 Co1 2.047 . S
O9 C20 1.257 . S
O10 Co7 2.094 . S
O10 C21 1.253 . S
O11 Co2 2.063 . S
O11 C21 1.268 . S
O12 Co0 2.115 . S
O12 C22 1.281 . S
O13 Co0 2.315 . S
O13 C22 1.252 . S
O14 Co7 2.122 . S
O14 C23 1.272 . S
O15 Co1 2.113 . S
O15 C23 1.245 . S
C16 O24 1.259 . S
C16 O25 1.257 . S
C17 O26 1.268 . S
C17 O27 1.253 . S
C18 O28 1.281 . S
C18 O29 1.252 . S
C19 O30 1.272 . S
C19 O31 1.245 . S
C20 O8 1.259 . S
C20 O9 1.257 . S
C21 O10 1.253 . S
C21 O11 1.268 . S
C22 O12 1.281 . S
C22 O13 1.252 . S
C23 O14 1.272 . S
C23 O15 1.245 . S
O24 Co0 2.053 . S
O24 C16 1.259 . S
O25 Co2 2.047 . S
O25 C16 1.257 . S
O26 Co1 2.063 . S
O26 C17 1.268 . S
O27 Co0 2.094 . S
O27 C17 1.253 . S
O28 Co7 2.115 . S
O28 C18 1.281 . S
O29 Co7 2.315 . S
O29 C18 1.252 . S
O30 Co0 2.122 . S
O30 C19 1.272 . S
O31 Co2 2.113 . S
O31 C19 1.245 . S
Co32 H35 2.400 . S
Co32 O36 2.009 . S
Co32 O44 2.115 . S
Co32 O45 2.315 . S
Co32 O56 2.053 . S
Co32 O59 2.094 . S
Co32 O62 2.122 . S
Co33 O36 2.126 . S
Co33 H37 2.388 . S
Co33 O38 2.053 . S
Co33 O41 2.047 . S
Co33 O47 2.113 . S
Co33 O58 2.063 . S
Co34 H35 2.388 . S
Co34 O36 2.053 . S
Co34 O38 2.126 . S
Co34 O43 2.063 . S
Co34 O57 2.047 . S
Co34 O63 2.113 . S
H35 Co32 2.400 . S
H35 Co34 2.388 . S
H35 O36 0.760 . S
O36 Co32 2.009 . S
O36 Co33 2.126 . S
O36 Co34 2.053 . S
O36 H35 0.760 . S
H37 Co33 2.388 . S
H37 O38 0.760 . S
H37 Co39 2.400 . S
O38 Co33 2.053 . S
O38 Co34 2.126 . S
O38 H37 0.760 . S
O38 Co39 2.009 . S
Co39 H37 2.400 . S
Co39 O38 2.009 . S
Co39 O40 2.053 . S
Co39 O42 2.094 . S
Co39 O46 2.122 . S
Co39 O60 2.115 . S
Co39 O61 2.315 . S
O40 Co39 2.053 . S
O40 C52 1.259 . S
O41 Co33 2.047 . S
O41 C52 1.257 . S
O42 Co39 2.094 . S
O42 C53 1.253 . S
O43 Co34 2.063 . S
O43 C53 1.268 . S
O44 Co32 2.115 . S
O44 C54 1.281 . S
O45 Co32 2.315 . S
O45 C54 1.252 . S
O46 Co39 2.122 . S
O46 C55 1.272 . S
O47 Co33 2.113 . S
O47 C55 1.245 . S
C48 O56 1.259 . S
C48 O57 1.257 . S
C49 O58 1.268 . S
C49 O59 1.253 . S
C50 O60 1.281 . S
C50 O61 1.252 . S
C51 O62 1.272 . S
C51 O63 1.245 . S
C52 O40 1.259 . S
C52 O41 1.257 . S
C53 O42 1.253 . S
C53 O43 1.268 . S
C54 O44 1.281 . S
C54 O45 1.252 . S
C55 O46 1.272 . S
C55 O47 1.245 . S
O56 Co32 2.053 . S
O56 C48 1.259 . S
O57 Co34 2.047 . S
O57 C48 1.257 . S
O58 Co33 2.063 . S
O58 C49 1.268 . S
O59 Co32 2.094 . S
O59 C49 1.253 . S
O60 Co39 2.115 . S
O60 C50 1.281 . S
O61 Co39 2.315 . S
O61 C50 1.252 . S
O62 Co32 2.122 . S
O62 C51 1.272 . S
O63 Co34 2.113 . S
O63 C51 1.245 . S
Co64 H67 2.400 . S
Co64 O68 2.009 . S
Co64 O76 2.115 . S
Co64 O77 2.315 . S
Co64 O88 2.053 . S
Co64 O91 2.094 . S
Co64 O94 2.122 . S
Co65 O68 2.126 . S
Co65 H69 2.388 . S
Co65 O70 2.053 . S
Co65 O73 2.047 . S
Co65 O79 2.113 . S
Co65 O90 2.063 . S
Co66 H67 2.388 . S
Co66 O68 2.053 . S
Co66 O70 2.126 . S
Co66 O75 2.063 . S
Co66 O89 2.047 . S
Co66 O95 2.113 . S
H67 Co64 2.400 . S
H67 Co66 2.388 . S
H67 O68 0.760 . S
O68 Co64 2.009 . S
O68 Co65 2.126 . S
O68 Co66 2.053 . S
O68 H67 0.760 . S
H69 Co65 2.388 . S
H69 O70 0.760 . S
H69 Co71 2.400 . S
O70 Co65 2.053 . S
O70 Co66 2.126 . S
O70 H69 0.760 . S
O70 Co71 2.009 . S
Co71 H69 2.400 . S
Co71 O70 2.009 . S
Co71 O72 2.053 . S
Co71 O74 2.094 . S
Co71 O78 2.122 . S
Co71 O92 2.115 . S
Co71 O93 2.315 . S
O72 Co71 2.053 . S
O72 C84 1.259 . S
O73 Co65 2.047 . S
O73 C84 1.257 . S
O74 Co71 2.094 . S
O74 C85 1.253 . S
O75 Co66 2.063 . S
O75 C85 1.268 . S
O76 Co64 2.115 . S
O76 C86 1.281 . S
O77 Co64 2.315 . S
O77 C86 1.252 . S
O78 Co71 2.122 . S
O78 C87 1.272 . S
O79 Co65 2.113 . S
O79 C87 1.245 . S
C80 O88 1.259 . S
C80 O89 1.257 . S
C81 O90 1.268 . S
C81 O91 1.253 . S
C82 O92 1.281 . S
C82 O93 1.252 . S
C83 O94 1.272 . S
C83 O95 1.245 . S
C84 O72 1.259 . S
C84 O73 1.257 . S
C85 O74 1.253 . S
C85 O75 1.268 . S
C86 O76 1.281 . S
C86 O77 1.252 . S
C87 O78 1.272 . S
C87 O79 1.245 . S
O88 Co64 2.053 . S
O88 C80 1.259 . S
O89 Co66 2.047 . S
O89 C80 1.257 . S
O90 Co65 2.063 . S
O90 C81 1.268 . S
O91 Co64 2.094 . S
O91 C81 1.253 . S
O92 Co71 2.115 . S
O92 C82 1.281 . S
O93 Co71 2.315 . S
O93 C82 1.252 . S
O94 Co64 2.122 . S
O94 C83 1.272 . S
O95 Co66 2.113 . S
O95 C83 1.245 . S
Co96 H99 2.400 . S
Co96 O100 2.009 . S
Co96 O108 2.115 . S
Co96 O109 2.315 . S
Co96 O120 2.053 . S
Co96 O123 2.094 . S
Co96 O126 2.122 . S
Co97 O100 2.126 . S
Co97 H101 2.388 . S
Co97 O102 2.053 . S
Co97 O105 2.047 . S
Co97 O111 2.113 . S
Co97 O122 2.063 . S
Co98 H99 2.388 . S
Co98 O100 2.053 . S
Co98 O102 2.126 . S
Co98 O107 2.063 . S
Co98 O121 2.047 . S
Co98 O127 2.113 . S
H99 Co96 2.400 . S
H99 Co98 2.388 . S
H99 O100 0.760 . S
O100 Co96 2.009 . S
O100 Co97 2.126 . S
O100 Co98 2.053 . S
O100 H99 0.760 . S
H101 Co97 2.388 . S
H101 O102 0.760 . S
H101 Co103 2.400 . S
O102 Co97 2.053 . S
O102 Co98 2.126 . S
O102 H101 0.760 . S
O102 Co103 2.009 . S
Co103 H101 2.400 . S
Co103 O102 2.009 . S
Co103 O104 2.053 . S
Co103 O106 2.094 . S
Co103 O110 2.122 . S
Co103 O124 2.115 . S
Co103 O125 2.315 . S
O104 Co103 2.053 . S
O104 C116 1.259 . S
O105 Co97 2.047 . S
O105 C116 1.257 . S
O106 Co103 2.094 . S
O106 C117 1.253 . S
O107 Co98 2.063 . S
O107 C117 1.268 . S
O108 Co96 2.115 . S
O108 C118 1.281 . S
O109 Co96 2.315 . S
O109 C118 1.252 . S
O110 Co103 2.122 . S
O110 C119 1.272 . S
O111 Co97 2.113 . S
O111 C119 1.245 . S
C112 O120 1.259 . S
C112 O121 1.257 . S
C113 O122 1.268 . S
C113 O123 1.253 . S
C114 O124 1.281 . S
C114 O125 1.252 . S
C115 O126 1.272 . S
C115 O127 1.245 . S
C116 O104 1.259 . S
C116 O105 1.257 . S
C117 O106 1.253 . S
C117 O107 1.268 . S
C118 O108 1.281 . S
C118 O109 1.252 . S
C119 O110 1.272 . S
C119 O111 1.245 . S
O120 Co96 2.053 . S
O120 C112 1.259 . S
O121 Co98 2.047 . S
O121 C112 1.257 . S
O122 Co97 2.063 . S
O122 C113 1.268 . S
O123 Co96 2.094 . S
O123 C113 1.253 . S
O124 Co103 2.115 . S
O124 C114 1.281 . S
O125 Co103 2.315 . S
O125 C114 1.252 . S
O126 Co96 2.122 . S
O126 C115 1.272 . S
O127 Co98 2.113 . S
O127 C115 1.245 . S
Co128 H131 2.400 . S
Co128 O132 2.009 . S
Co128 O140 2.115 . S
Co128 O141 2.315 . S
Co128 O152 2.053 . S
Co128 O155 2.094 . S
Co128 O158 2.122 . S
Co129 O132 2.126 . S
Co129 H133 2.388 . S
Co129 O134 2.053 . S
Co129 O137 2.047 . S
Co129 O143 2.113 . S
Co129 O154 2.063 . S
Co130 H131 2.388 . S
Co130 O132 2.053 . S
Co130 O134 2.126 . S
Co130 O139 2.063 . S
Co130 O153 2.047 . S
Co130 O159 2.113 . S
H131 Co128 2.400 . S
H131 Co130 2.388 . S
H131 O132 0.760 . S
O132 Co128 2.009 . S
O132 Co129 2.126 . S
O132 Co130 2.053 . S
O132 H131 0.760 . S
H133 Co129 2.388 . S
H133 O134 0.760 . S
H133 Co135 2.400 . S
O134 Co129 2.053 . S
O134 Co130 2.126 . S
O134 H133 0.760 . S
O134 Co135 2.009 . S
Co135 H133 2.400 . S
Co135 O134 2.009 . S
Co135 O136 2.053 . S
Co135 O138 2.094 . S
Co135 O142 2.122 . S
Co135 O156 2.115 . S
Co135 O157 2.315 . S
O136 Co135 2.053 . S
O136 C148 1.259 . S
O137 Co129 2.047 . S
O137 C148 1.257 . S
O138 Co135 2.094 . S
O138 C149 1.253 . S
O139 Co130 2.063 . S
O139 C149 1.268 . S
O140 Co128 2.115 . S
O140 C150 1.281 . S
O141 Co128 2.315 . S
O141 C150 1.252 . S
O142 Co135 2.122 . S
O142 C151 1.272 . S
O143 Co129 2.113 . S
O143 C151 1.245 . S
C144 O152 1.259 . S
C144 O153 1.257 . S
C145 O154 1.268 . S
C145 O155 1.253 . S
C146 O156 1.281 . S
C146 O157 1.252 . S
C147 O158 1.272 . S
C147 O159 1.245 . S
C148 O136 1.259 . S
C148 O137 1.257 . S
C149 O138 1.253 . S
C149 O139 1.268 . S
C150 O140 1.281 . S
C150 O141 1.252 . S
C151 O142 1.272 . S
C151 O143 1.245 . S
O152 Co128 2.053 . S
O152 C144 1.259 . S
O153 Co130 2.047 . S
O153 C144 1.257 . S
O154 Co129 2.063 . S
O154 C145 1.268 . S
O155 Co128 2.094 . S
O155 C145 1.253 . S
O156 Co135 2.115 . S
O156 C146 1.281 . S
O157 Co135 2.315 . S
O157 C146 1.252 . S
O158 Co128 2.122 . S
O158 C147 1.272 . S
O159 Co130 2.113 . S
O159 C147 1.245 . S
Co160 H163 2.400 . S
Co160 O164 2.009 . S
Co160 O172 2.115 . S
Co160 O173 2.315 . S
Co160 O184 2.053 . S
Co160 O187 2.094 . S
Co160 O190 2.122 . S
Co161 O164 2.126 . S
Co161 H165 2.388 . S
Co161 O166 2.053 . S
Co161 O169 2.047 . S
Co161 O175 2.113 . S
Co161 O186 2.063 . S
Co162 H163 2.388 . S
Co162 O164 2.053 . S
Co162 O166 2.126 . S
Co162 O171 2.063 . S
Co162 O185 2.047 . S
Co162 O191 2.113 . S
H163 Co160 2.400 . S
H163 Co162 2.388 . S
H163 O164 0.760 . S
O164 Co160 2.009 . S
O164 Co161 2.126 . S
O164 Co162 2.053 . S
O164 H163 0.760 . S
H165 Co161 2.388 . S
H165 O166 0.760 . S
H165 Co167 2.400 . S
O166 Co161 2.053 . S
O166 Co162 2.126 . S
O166 H165 0.760 . S
O166 Co167 2.009 . S
Co167 H165 2.400 . S
Co167 O166 2.009 . S
Co167 O168 2.053 . S
Co167 O170 2.094 . S
Co167 O174 2.122 . S
Co167 O188 2.115 . S
Co167 O189 2.315 . S
O168 Co167 2.053 . S
O168 C180 1.259 . S
O169 Co161 2.047 . S
O169 C180 1.257 . S
O170 Co167 2.094 . S
O170 C181 1.253 . S
O171 Co162 2.063 . S
O171 C181 1.268 . S
O172 Co160 2.115 . S
O172 C182 1.281 . S
O173 Co160 2.315 . S
O173 C182 1.252 . S
O174 Co167 2.122 . S
O174 C183 1.272 . S
O175 Co161 2.113 . S
O175 C183 1.245 . S
C176 O184 1.259 . S
C176 O185 1.257 . S
C177 O186 1.268 . S
C177 O187 1.253 . S
C178 O188 1.281 . S
C178 O189 1.252 . S
C179 O190 1.272 . S
C179 O191 1.245 . S
C180 O168 1.259 . S
C180 O169 1.257 . S
C181 O170 1.253 . S
C181 O171 1.268 . S
C182 O172 1.281 . S
C182 O173 1.252 . S
C183 O174 1.272 . S
C183 O175 1.245 . S
O184 Co160 2.053 . S
O184 C176 1.259 . S
O185 Co162 2.047 . S
O185 C176 1.257 . S
O186 Co161 2.063 . S
O186 C177 1.268 . S
O187 Co160 2.094 . S
O187 C177 1.253 . S
O188 Co167 2.115 . S
O188 C178 1.281 . S
O189 Co167 2.315 . S
O189 C178 1.252 . S
O190 Co160 2.122 . S
O190 C179 1.272 . S
O191 Co162 2.113 . S
O191 C179 1.245 . S
Co192 H195 2.400 . S
Co192 O196 2.009 . S
Co192 O204 2.115 . S
Co192 O205 2.315 . S
Co192 O216 2.053 . S
Co192 O219 2.094 . S
Co192 O222 2.122 . S
Co193 O196 2.126 . S
Co193 H197 2.388 . S
Co193 O198 2.053 . S
Co193 O201 2.047 . S
Co193 O207 2.113 . S
Co193 O218 2.063 . S
Co194 H195 2.388 . S
Co194 O196 2.053 . S
Co194 O198 2.126 . S
Co194 O203 2.063 . S
Co194 O217 2.047 . S
Co194 O223 2.113 . S
H195 Co192 2.400 . S
H195 Co194 2.388 . S
H195 O196 0.760 . S
O196 Co192 2.009 . S
O196 Co193 2.126 . S
O196 Co194 2.053 . S
O196 H195 0.760 . S
H197 Co193 2.388 . S
H197 O198 0.760 . S
H197 Co199 2.400 . S
O198 Co193 2.053 . S
O198 Co194 2.126 . S
O198 H197 0.760 . S
O198 Co199 2.009 . S
Co199 H197 2.400 . S
Co199 O198 2.009 . S
Co199 O200 2.053 . S
Co199 O202 2.094 . S
Co199 O206 2.122 . S
Co199 O220 2.115 . S
Co199 O221 2.315 . S
O200 Co199 2.053 . S
O200 C212 1.259 . S
O201 Co193 2.047 . S
O201 C212 1.257 . S
O202 Co199 2.094 . S
O202 C213 1.253 . S
O203 Co194 2.063 . S
O203 C213 1.268 . S
O204 Co192 2.115 . S
O204 C214 1.281 . S
O205 Co192 2.315 . S
O205 C214 1.252 . S
O206 Co199 2.122 . S
O206 C215 1.272 . S
O207 Co193 2.113 . S
O207 C215 1.245 . S
C208 O216 1.259 . S
C208 O217 1.257 . S
C209 O218 1.268 . S
C209 O219 1.253 . S
C210 O220 1.281 . S
C210 O221 1.252 . S
C211 O222 1.272 . S
C211 O223 1.245 . S
C212 O200 1.259 . S
C212 O201 1.257 . S
C213 O202 1.253 . S
C213 O203 1.268 . S
C214 O204 1.281 . S
C214 O205 1.252 . S
C215 O206 1.272 . S
C215 O207 1.245 . S
O216 Co192 2.053 . S
O216 C208 1.259 . S
O217 Co194 2.047 . S
O217 C208 1.257 . S
O218 Co193 2.063 . S
O218 C209 1.268 . S
O219 Co192 2.094 . S
O219 C209 1.253 . S
O220 Co199 2.115 . S
O220 C210 1.281 . S
O221 Co199 2.315 . S
O221 C210 1.252 . S
O222 Co192 2.122 . S
O222 C211 1.272 . S
O223 Co194 2.113 . S
O223 C211 1.245 . S
Co224 H227 2.400 . S
Co224 O228 2.009 . S
Co224 O236 2.115 . S
Co224 O237 2.315 . S
Co224 O248 2.053 . S
Co224 O251 2.094 . S
Co224 O254 2.122 . S
Co225 O228 2.126 . S
Co225 H229 2.388 . S
Co225 O230 2.053 . S
Co225 O233 2.047 . S
Co225 O239 2.113 . S
Co225 O250 2.063 . S
Co226 H227 2.388 . S
Co226 O228 2.053 . S
Co226 O230 2.126 . S
Co226 O235 2.063 . S
Co226 O249 2.047 . S
Co226 O255 2.113 . S
H227 Co224 2.400 . S
H227 Co226 2.388 . S
H227 O228 0.760 . S
O228 Co224 2.009 . S
O228 Co225 2.126 . S
O228 Co226 2.053 . S
O228 H227 0.760 . S
H229 Co225 2.388 . S
H229 O230 0.760 . S
H229 Co231 2.400 . S
O230 Co225 2.053 . S
O230 Co226 2.126 . S
O230 H229 0.760 . S
O230 Co231 2.009 . S
Co231 H229 2.400 . S
Co231 O230 2.009 . S
Co231 O232 2.053 . S
Co231 O234 2.094 . S
Co231 O238 2.122 . S
Co231 O252 2.115 . S
Co231 O253 2.315 . S
O232 Co231 2.053 . S
O232 C244 1.259 . S
O233 Co225 2.047 . S
O233 C244 1.257 . S
O234 Co231 2.094 . S
O234 C245 1.253 . S
O235 Co226 2.063 . S
O235 C245 1.268 . S
O236 Co224 2.115 . S
O236 C246 1.281 . S
O237 Co224 2.315 . S
O237 C246 1.252 . S
O238 Co231 2.122 . S
O238 C247 1.272 . S
O239 Co225 2.113 . S
O239 C247 1.245 . S
C240 O248 1.259 . S
C240 O249 1.257 . S
C241 O250 1.268 . S
C241 O251 1.253 . S
C242 O252 1.281 . S
C242 O253 1.252 . S
C243 O254 1.272 . S
C243 O255 1.245 . S
C244 O232 1.259 . S
C244 O233 1.257 . S
C245 O234 1.253 . S
C245 O235 1.268 . S
C246 O236 1.281 . S
C246 O237 1.252 . S
C247 O238 1.272 . S
C247 O239 1.245 . S
O248 Co224 2.053 . S
O248 C240 1.259 . S
O249 Co226 2.047 . S
O249 C240 1.257 . S
O250 Co225 2.063 . S
O250 C241 1.268 . S
O251 Co224 2.094 . S
O251 C241 1.253 . S
O252 Co231 2.115 . S
O252 C242 1.281 . S
O253 Co231 2.315 . S
O253 C242 1.252 . S
O254 Co224 2.122 . S
O254 C243 1.272 . S
O255 Co226 2.113 . S
O255 C243 1.245 . S
Co256 H259 2.400 . S
Co256 O260 2.009 . S
Co256 O268 2.115 . S
Co256 O269 2.315 . S
Co256 O280 2.053 . S
Co256 O283 2.094 . S
Co256 O286 2.122 . S
Co257 O260 2.126 . S
Co257 H261 2.388 . S
Co257 O262 2.053 . S
Co257 O265 2.047 . S
Co257 O271 2.113 . S
Co257 O282 2.063 . S
Co258 H259 2.388 . S
Co258 O260 2.053 . S
Co258 O262 2.126 . S
Co258 O267 2.063 . S
Co258 O281 2.047 . S
Co258 O287 2.113 . S
H259 Co256 2.400 . S
H259 Co258 2.388 . S
H259 O260 0.760 . S
O260 Co256 2.009 . S
O260 Co257 2.126 . S
O260 Co258 2.053 . S
O260 H259 0.760 . S
H261 Co257 2.388 . S
H261 O262 0.760 . S
H261 Co263 2.400 . S
O262 Co257 2.053 . S
O262 Co258 2.126 . S
O262 H261 0.760 . S
O262 Co263 2.009 . S
Co263 H261 2.400 . S
Co263 O262 2.009 . S
Co263 O264 2.053 . S
Co263 O266 2.094 . S
Co263 O270 2.122 . S
Co263 O284 2.115 . S
Co263 O285 2.315 . S
O264 Co263 2.053 . S
O264 C276 1.259 . S
O265 Co257 2.047 . S
O265 C276 1.257 . S
O266 Co263 2.094 . S
O266 C277 1.253 . S
O267 Co258 2.063 . S
O267 C277 1.268 . S
O268 Co256 2.115 . S
O268 C278 1.281 . S
O269 Co256 2.315 . S
O269 C278 1.252 . S
O270 Co263 2.122 . S
O270 C279 1.272 . S
O271 Co257 2.113 . S
O271 C279 1.245 . S
C272 O280 1.259 . S
C272 O281 1.257 . S
C273 O282 1.268 . S
C273 O283 1.253 . S
C274 O284 1.281 . S
C274 O285 1.252 . S
C275 O286 1.272 . S
C275 O287 1.245 . S
C276 O264 1.259 . S
C276 O265 1.257 . S
C277 O266 1.253 . S
C277 O267 1.268 . S
C278 O268 1.281 . S
C278 O269 1.252 . S
C279 O270 1.272 . S
C279 O271 1.245 . S
O280 Co256 2.053 . S
O280 C272 1.259 . S
O281 Co258 2.047 . S
O281 C272 1.257 . S
O282 Co257 2.063 . S
O282 C273 1.268 . S
O283 Co256 2.094 . S
O283 C273 1.253 . S
O284 Co263 2.115 . S
O284 C274 1.281 . S
O285 Co263 2.315 . S
O285 C274 1.252 . S
O286 Co256 2.122 . S
O286 C275 1.272 . S
O287 Co258 2.113 . S
O287 C275 1.245 . S
Co288 H291 2.400 . S
Co288 O292 2.009 . S
Co288 O300 2.115 . S
Co288 O301 2.315 . S
Co288 O312 2.053 . S
Co288 O315 2.094 . S
Co288 O318 2.122 . S
Co289 O292 2.126 . S
Co289 H293 2.388 . S
Co289 O294 2.053 . S
Co289 O297 2.047 . S
Co289 O303 2.113 . S
Co289 O314 2.063 . S
Co290 H291 2.388 . S
Co290 O292 2.053 . S
Co290 O294 2.126 . S
Co290 O299 2.063 . S
Co290 O313 2.047 . S
Co290 O319 2.113 . S
H291 Co288 2.400 . S
H291 Co290 2.388 . S
H291 O292 0.760 . S
O292 Co288 2.009 . S
O292 Co289 2.126 . S
O292 Co290 2.053 . S
O292 H291 0.760 . S
H293 Co289 2.388 . S
H293 O294 0.760 . S
H293 Co295 2.400 . S
O294 Co289 2.053 . S
O294 Co290 2.126 . S
O294 H293 0.760 . S
O294 Co295 2.009 . S
Co295 H293 2.400 . S
Co295 O294 2.009 . S
Co295 O296 2.053 . S
Co295 O298 2.094 . S
Co295 O302 2.122 . S
Co295 O316 2.115 . S
Co295 O317 2.315 . S
O296 Co295 2.053 . S
O296 C308 1.259 . S
O297 Co289 2.047 . S
O297 C308 1.257 . S
O298 Co295 2.094 . S
O298 C309 1.253 . S
O299 Co290 2.063 . S
O299 C309 1.268 . S
O300 Co288 2.115 . S
O300 C310 1.281 . S
O301 Co288 2.315 . S
O301 C310 1.252 . S
O302 Co295 2.122 . S
O302 C311 1.272 . S
O303 Co289 2.113 . S
O303 C311 1.245 . S
C304 O312 1.259 . S
C304 O313 1.257 . S
C305 O314 1.268 . S
C305 O315 1.253 . S
C306 O316 1.281 . S
C306 O317 1.252 . S
C307 O318 1.272 . S
C307 O319 1.245 . S
C308 O296 1.259 . S
C308 O297 1.257 . S
C309 O298 1.253 . S
C309 O299 1.268 . S
C310 O300 1.281 . S
C310 O301 1.252 . S
C311 O302 1.272 . S
C311 O303 1.245 . S
O312 Co288 2.053 . S
O312 C304 1.259 . S
O313 Co290 2.047 . S
O313 C304 1.257 . S
O314 Co289 2.063 . S
O314 C305 1.268 . S
O315 Co288 2.094 . S
O315 C305 1.253 . S
O316 Co295 2.115 . S
O316 C306 1.281 . S
O317 Co295 2.315 . S
O317 C306 1.252 . S
O318 Co288 2.122 . S
O318 C307 1.272 . S
O319 Co290 2.113 . S
O319 C307 1.245 . S
Co320 H323 2.400 . S
Co320 O324 2.009 . S
Co320 O332 2.115 . S
Co320 O333 2.315 . S
Co320 O344 2.053 . S
Co320 O347 2.094 . S
Co320 O350 2.122 . S
Co321 O324 2.126 . S
Co321 H325 2.388 . S
Co321 O326 2.053 . S
Co321 O329 2.047 . S
Co321 O335 2.113 . S
Co321 O346 2.063 . S
Co322 H323 2.388 . S
Co322 O324 2.053 . S
Co322 O326 2.126 . S
Co322 O331 2.063 . S
Co322 O345 2.047 . S
Co322 O351 2.113 . S
H323 Co320 2.400 . S
H323 Co322 2.388 . S
H323 O324 0.760 . S
O324 Co320 2.009 . S
O324 Co321 2.126 . S
O324 Co322 2.053 . S
O324 H323 0.760 . S
H325 Co321 2.388 . S
H325 O326 0.760 . S
H325 Co327 2.400 . S
O326 Co321 2.053 . S
O326 Co322 2.126 . S
O326 H325 0.760 . S
O326 Co327 2.009 . S
Co327 H325 2.400 . S
Co327 O326 2.009 . S
Co327 O328 2.053 . S
Co327 O330 2.094 . S
Co327 O334 2.122 . S
Co327 O348 2.115 . S
Co327 O349 2.315 . S
O328 Co327 2.053 . S
O328 C340 1.259 . S
O329 Co321 2.047 . S
O329 C340 1.257 . S
O330 Co327 2.094 . S
O330 C341 1.253 . S
O331 Co322 2.063 . S
O331 C341 1.268 . S
O332 Co320 2.115 . S
O332 C342 1.281 . S
O333 Co320 2.315 . S
O333 C342 1.252 . S
O334 Co327 2.122 . S
O334 C343 1.272 . S
O335 Co321 2.113 . S
O335 C343 1.245 . S
C336 O344 1.259 . S
C336 O345 1.257 . S
C337 O346 1.268 . S
C337 O347 1.253 . S
C338 O348 1.281 . S
C338 O349 1.252 . S
C339 O350 1.272 . S
C339 O351 1.245 . S
C340 O328 1.259 . S
C340 O329 1.257 . S
C341 O330 1.253 . S
C341 O331 1.268 . S
C342 O332 1.281 . S
C342 O333 1.252 . S
C343 O334 1.272 . S
C343 O335 1.245 . S
O344 Co320 2.053 . S
O344 C336 1.259 . S
O345 Co322 2.047 . S
O345 C336 1.257 . S
O346 Co321 2.063 . S
O346 C337 1.268 . S
O347 Co320 2.094 . S
O347 C337 1.253 . S
O348 Co327 2.115 . S
O348 C338 1.281 . S
O349 Co327 2.315 . S
O349 C338 1.252 . S
O350 Co320 2.122 . S
O350 C339 1.272 . S
O351 Co322 2.113 . S
O351 C339 1.245 . S
Co352 H355 2.400 . S
Co352 O356 2.009 . S
Co352 O364 2.115 . S
Co352 O365 2.315 . S
Co352 O376 2.053 . S
Co352 O379 2.094 . S
Co352 O382 2.122 . S
Co353 O356 2.126 . S
Co353 H357 2.388 . S
Co353 O358 2.053 . S
Co353 O361 2.047 . S
Co353 O367 2.113 . S
Co353 O378 2.063 . S
Co354 H355 2.388 . S
Co354 O356 2.053 . S
Co354 O358 2.126 . S
Co354 O363 2.063 . S
Co354 O377 2.047 . S
Co354 O383 2.113 . S
H355 Co352 2.400 . S
H355 Co354 2.388 . S
H355 O356 0.760 . S
O356 Co352 2.009 . S
O356 Co353 2.126 . S
O356 Co354 2.053 . S
O356 H355 0.760 . S
H357 Co353 2.388 . S
H357 O358 0.760 . S
H357 Co359 2.400 . S
O358 Co353 2.053 . S
O358 Co354 2.126 . S
O358 H357 0.760 . S
O358 Co359 2.009 . S
Co359 H357 2.400 . S
Co359 O358 2.009 . S
Co359 O360 2.053 . S
Co359 O362 2.094 . S
Co359 O366 2.122 . S
Co359 O380 2.115 . S
Co359 O381 2.315 . S
O360 Co359 2.053 . S
O360 C372 1.259 . S
O361 Co353 2.047 . S
O361 C372 1.257 . S
O362 Co359 2.094 . S
O362 C373 1.253 . S
O363 Co354 2.063 . S
O363 C373 1.268 . S
O364 Co352 2.115 . S
O364 C374 1.281 . S
O365 Co352 2.315 . S
O365 C374 1.252 . S
O366 Co359 2.122 . S
O366 C375 1.272 . S
O367 Co353 2.113 . S
O367 C375 1.245 . S
C368 O376 1.259 . S
C368 O377 1.257 . S
C369 O378 1.268 . S
C369 O379 1.253 . S
C370 O380 1.281 . S
C370 O381 1.252 . S
C371 O382 1.272 . S
C371 O383 1.245 . S
C372 O360 1.259 . S
C372 O361 1.257 . S
C373 O362 1.253 . S
C373 O363 1.268 . S
C374 O364 1.281 . S
C374 O365 1.252 . S
C375 O366 1.272 . S
C375 O367 1.245 . S
O376 Co352 2.053 . S
O376 C368 1.259 . S
O377 Co354 2.047 . S
O377 C368 1.257 . S
O378 Co353 2.063 . S
O378 C369 1.268 . S
O379 Co352 2.094 . S
O379 C369 1.253 . S
O380 Co359 2.115 . S
O380 C370 1.281 . S
O381 Co359 2.315 . S
O381 C370 1.252 . S
O382 Co352 2.122 . S
O382 C371 1.272 . S
O383 Co354 2.113 . S
O383 C371 1.245 . S
Co384 H387 2.400 . S
Co384 O388 2.009 . S
Co384 O396 2.115 . S
Co384 O397 2.315 . S
Co384 O408 2.053 . S
Co384 O411 2.094 . S
Co384 O414 2.122 . S
Co385 O388 2.126 . S
Co385 H389 2.388 . S
Co385 O390 2.053 . S
Co385 O393 2.047 . S
Co385 O399 2.113 . S
Co385 O410 2.063 . S
Co386 H387 2.388 . S
Co386 O388 2.053 . S
Co386 O390 2.126 . S
Co386 O395 2.063 . S
Co386 O409 2.047 . S
Co386 O415 2.113 . S
H387 Co384 2.400 . S
H387 Co386 2.388 . S
H387 O388 0.760 . S
O388 Co384 2.009 . S
O388 Co385 2.126 . S
O388 Co386 2.053 . S
O388 H387 0.760 . S
H389 Co385 2.388 . S
H389 O390 0.760 . S
H389 Co391 2.400 . S
O390 Co385 2.053 . S
O390 Co386 2.126 . S
O390 H389 0.760 . S
O390 Co391 2.009 . S
Co391 H389 2.400 . S
Co391 O390 2.009 . S
Co391 O392 2.053 . S
Co391 O394 2.094 . S
Co391 O398 2.122 . S
Co391 O412 2.115 . S
Co391 O413 2.315 . S
O392 Co391 2.053 . S
O392 C404 1.259 . S
O393 Co385 2.047 . S
O393 C404 1.257 . S
O394 Co391 2.094 . S
O394 C405 1.253 . S
O395 Co386 2.063 . S
O395 C405 1.268 . S
O396 Co384 2.115 . S
O396 C406 1.281 . S
O397 Co384 2.315 . S
O397 C406 1.252 . S
O398 Co391 2.122 . S
O398 C407 1.272 . S
O399 Co385 2.113 . S
O399 C407 1.245 . S
C400 O408 1.259 . S
C400 O409 1.257 . S
C401 O410 1.268 . S
C401 O411 1.253 . S
C402 O412 1.281 . S
C402 O413 1.252 . S
C403 O414 1.272 . S
C403 O415 1.245 . S
C404 O392 1.259 . S
C404 O393 1.257 . S
C405 O394 1.253 . S
C405 O395 1.268 . S
C406 O396 1.281 . S
C406 O397 1.252 . S
C407 O398 1.272 . S
C407 O399 1.245 . S
O408 Co384 2.053 . S
O408 C400 1.259 . S
O409 Co386 2.047 . S
O409 C400 1.257 . S
O410 Co385 2.063 . S
O410 C401 1.268 . S
O411 Co384 2.094 . S
O411 C401 1.253 . S
O412 Co391 2.115 . S
O412 C402 1.281 . S
O413 Co391 2.315 . S
O413 C402 1.252 . S
O414 Co384 2.122 . S
O414 C403 1.272 . S
O415 Co386 2.113 . S
O415 C403 1.245 . S
Co416 H419 2.400 . S
Co416 O420 2.009 . S
Co416 O428 2.115 . S
Co416 O429 2.315 . S
Co416 O440 2.053 . S
Co416 O443 2.094 . S
Co416 O446 2.122 . S
Co417 O420 2.126 . S
Co417 H421 2.388 . S
Co417 O422 2.053 . S
Co417 O425 2.047 . S
Co417 O431 2.113 . S
Co417 O442 2.063 . S
Co418 H419 2.388 . S
Co418 O420 2.053 . S
Co418 O422 2.126 . S
Co418 O427 2.063 . S
Co418 O441 2.047 . S
Co418 O447 2.113 . S
H419 Co416 2.400 . S
H419 Co418 2.388 . S
H419 O420 0.760 . S
O420 Co416 2.009 . S
O420 Co417 2.126 . S
O420 Co418 2.053 . S
O420 H419 0.760 . S
H421 Co417 2.388 . S
H421 O422 0.760 . S
H421 Co423 2.400 . S
O422 Co417 2.053 . S
O422 Co418 2.126 . S
O422 H421 0.760 . S
O422 Co423 2.009 . S
Co423 H421 2.400 . S
Co423 O422 2.009 . S
Co423 O424 2.053 . S
Co423 O426 2.094 . S
Co423 O430 2.122 . S
Co423 O444 2.115 . S
Co423 O445 2.315 . S
O424 Co423 2.053 . S
O424 C436 1.259 . S
O425 Co417 2.047 . S
O425 C436 1.257 . S
O426 Co423 2.094 . S
O426 C437 1.253 . S
O427 Co418 2.063 . S
O427 C437 1.268 . S
O428 Co416 2.115 . S
O428 C438 1.281 . S
O429 Co416 2.315 . S
O429 C438 1.252 . S
O430 Co423 2.122 . S
O430 C439 1.272 . S
O431 Co417 2.113 . S
O431 C439 1.245 . S
C432 O440 1.259 . S
C432 O441 1.257 . S
C433 O442 1.268 . S
C433 O443 1.253 . S
C434 O444 1.281 . S
C434 O445 1.252 . S
C435 O446 1.272 . S
C435 O447 1.245 . S
C436 O424 1.259 . S
C436 O425 1.257 . S
C437 O426 1.253 . S
C437 O427 1.268 . S
C438 O428 1.281 . S
C438 O429 1.252 . S
C439 O430 1.272 . S
C439 O431 1.245 . S
O440 Co416 2.053 . S
O440 C432 1.259 . S
O441 Co418 2.047 . S
O441 C432 1.257 . S
O442 Co417 2.063 . S
O442 C433 1.268 . S
O443 Co416 2.094 . S
O443 C433 1.253 . S
O444 Co423 2.115 . S
O444 C434 1.281 . S
O445 Co423 2.315 . S
O445 C434 1.252 . S
O446 Co416 2.122 . S
O446 C435 1.272 . S
O447 Co418 2.113 . S
O447 C435 1.245 . S
Co448 H451 2.400 . S
Co448 O452 2.009 . S
Co448 O460 2.115 . S
Co448 O461 2.315 . S
Co448 O472 2.053 . S
Co448 O475 2.094 . S
Co448 O478 2.122 . S
Co449 O452 2.126 . S
Co449 H453 2.388 . S
Co449 O454 2.053 . S
Co449 O457 2.047 . S
Co449 O463 2.113 . S
Co449 O474 2.063 . S
Co450 H451 2.388 . S
Co450 O452 2.053 . S
Co450 O454 2.126 . S
Co450 O459 2.063 . S
Co450 O473 2.047 . S
Co450 O479 2.113 . S
H451 Co448 2.400 . S
H451 Co450 2.388 . S
H451 O452 0.760 . S
O452 Co448 2.009 . S
O452 Co449 2.126 . S
O452 Co450 2.053 . S
O452 H451 0.760 . S
H453 Co449 2.388 . S
H453 O454 0.760 . S
H453 Co455 2.400 . S
O454 Co449 2.053 . S
O454 Co450 2.126 . S
O454 H453 0.760 . S
O454 Co455 2.009 . S
Co455 H453 2.400 . S
Co455 O454 2.009 . S
Co455 O456 2.053 . S
Co455 O458 2.094 . S
Co455 O462 2.122 . S
Co455 O476 2.115 . S
Co455 O477 2.315 . S
O456 Co455 2.053 . S
O456 C468 1.259 . S
O457 Co449 2.047 . S
O457 C468 1.257 . S
O458 Co455 2.094 . S
O458 C469 1.253 . S
O459 Co450 2.063 . S
O459 C469 1.268 . S
O460 Co448 2.115 . S
O460 C470 1.281 . S
O461 Co448 2.315 . S
O461 C470 1.252 . S
O462 Co455 2.122 . S
O462 C471 1.272 . S
O463 Co449 2.113 . S
O463 C471 1.245 . S
C464 O472 1.259 . S
C464 O473 1.257 . S
C465 O474 1.268 . S
C465 O475 1.253 . S
C466 O476 1.281 . S
C466 O477 1.252 . S
C467 O478 1.272 . S
C467 O479 1.245 . S
C468 O456 1.259 . S
C468 O457 1.257 . S
C469 O458 1.253 . S
C469 O459 1.268 . S
C470 O460 1.281 . S
C470 O461 1.252 . S
C471 O462 1.272 . S
C471 O463 1.245 . S
O472 Co448 2.053 . S
O472 C464 1.259 . S
O473 Co450 2.047 . S
O473 C464 1.257 . S
O474 Co449 2.063 . S
O474 C465 1.268 . S
O475 Co448 2.094 . S
O475 C465 1.253 . S
O476 Co455 2.115 . S
O476 C466 1.281 . S
O477 Co455 2.315 . S
O477 C466 1.252 . S
O478 Co448 2.122 . S
O478 C467 1.272 . S
O479 Co450 2.113 . S
O479 C467 1.245 . S
Co480 H483 2.400 . S
Co480 O484 2.009 . S
Co480 O492 2.115 . S
Co480 O493 2.315 . S
Co480 O504 2.053 . S
Co480 O507 2.094 . S
Co480 O510 2.122 . S
Co481 O484 2.126 . S
Co481 H485 2.388 . S
Co481 O486 2.053 . S
Co481 O489 2.047 . S
Co481 O495 2.113 . S
Co481 O506 2.063 . S
Co482 H483 2.388 . S
Co482 O484 2.053 . S
Co482 O486 2.126 . S
Co482 O491 2.063 . S
Co482 O505 2.047 . S
Co482 O511 2.113 . S
H483 Co480 2.400 . S
H483 Co482 2.388 . S
H483 O484 0.760 . S
O484 Co480 2.009 . S
O484 Co481 2.126 . S
O484 Co482 2.053 . S
O484 H483 0.760 . S
H485 Co481 2.388 . S
H485 O486 0.760 . S
H485 Co487 2.400 . S
O486 Co481 2.053 . S
O486 Co482 2.126 . S
O486 H485 0.760 . S
O486 Co487 2.009 . S
Co487 H485 2.400 . S
Co487 O486 2.009 . S
Co487 O488 2.053 . S
Co487 O490 2.094 . S
Co487 O494 2.122 . S
Co487 O508 2.115 . S
Co487 O509 2.315 . S
O488 Co487 2.053 . S
O488 C500 1.259 . S
O489 Co481 2.047 . S
O489 C500 1.257 . S
O490 Co487 2.094 . S
O490 C501 1.253 . S
O491 Co482 2.063 . S
O491 C501 1.268 . S
O492 Co480 2.115 . S
O492 C502 1.281 . S
O493 Co480 2.315 . S
O493 C502 1.252 . S
O494 Co487 2.122 . S
O494 C503 1.272 . S
O495 Co481 2.113 . S
O495 C503 1.245 . S
C496 O504 1.259 . S
C496 O505 1.257 . S
C497 O506 1.268 . S
C497 O507 1.253 . S
C498 O508 1.281 . S
C498 O509 1.252 . S
C499 O510 1.272 . S
C499 O511 1.245 . S
C500 O488 1.259 . S
C500 O489 1.257 . S
C501 O490 1.253 . S
C501 O491 1.268 . S
C502 O492 1.281 . S
C502 O493 1.252 . S
C503 O494 1.272 . S
C503 O495 1.245 . S
O504 Co480 2.053 . S
O504 C496 1.259 . S
O505 Co482 2.047 . S
O505 C496 1.257 . S
O506 Co481 2.063 . S
O506 C497 1.268 . S
O507 Co480 2.094 . S
O507 C497 1.253 . S
O508 Co487 2.115 . S
O508 C498 1.281 . S
O509 Co487 2.315 . S
O509 C498 1.252 . S
O510 Co480 2.122 . S
O510 C499 1.272 . S
O511 Co482 2.113 . S
O511 C499 1.245 . S
Co512 H515 2.400 . S
Co512 O516 2.009 . S
Co512 O524 2.115 . S
Co512 O525 2.315 . S
Co512 O536 2.053 . S
Co512 O539 2.094 . S
Co512 O542 2.122 . S
Co513 O516 2.126 . S
Co513 H517 2.388 . S
Co513 O518 2.053 . S
Co513 O521 2.047 . S
Co513 O527 2.113 . S
Co513 O538 2.063 . S
Co514 H515 2.388 . S
Co514 O516 2.053 . S
Co514 O518 2.126 . S
Co514 O523 2.063 . S
Co514 O537 2.047 . S
Co514 O543 2.113 . S
H515 Co512 2.400 . S
H515 Co514 2.388 . S
H515 O516 0.760 . S
O516 Co512 2.009 . S
O516 Co513 2.126 . S
O516 Co514 2.053 . S
O516 H515 0.760 . S
H517 Co513 2.388 . S
H517 O518 0.760 . S
H517 Co519 2.400 . S
O518 Co513 2.053 . S
O518 Co514 2.126 . S
O518 H517 0.760 . S
O518 Co519 2.009 . S
Co519 H517 2.400 . S
Co519 O518 2.009 . S
Co519 O520 2.053 . S
Co519 O522 2.094 . S
Co519 O526 2.122 . S
Co519 O540 2.115 . S
Co519 O541 2.315 . S
O520 Co519 2.053 . S
O520 C532 1.259 . S
O521 Co513 2.047 . S
O521 C532 1.257 . S
O522 Co519 2.094 . S
O522 C533 1.253 . S
O523 Co514 2.063 . S
O523 C533 1.268 . S
O524 Co512 2.115 . S
O524 C534 1.281 . S
O525 Co512 2.315 . S
O525 C534 1.252 . S
O526 Co519 2.122 . S
O526 C535 1.272 . S
O527 Co513 2.113 . S
O527 C535 1.245 . S
C528 O536 1.259 . S
C528 O537 1.257 . S
C529 O538 1.268 . S
C529 O539 1.253 . S
C530 O540 1.281 . S
C530 O541 1.252 . S
C531 O542 1.272 . S
C531 O543 1.245 . S
C532 O520 1.259 . S
C532 O521 1.257 . S
C533 O522 1.253 . S
C533 O523 1.268 . S
C534 O524 1.281 . S
C534 O525 1.252 . S
C535 O526 1.272 . S
C535 O527 1.245 . S
O536 Co512 2.053 . S
O536 C528 1.259 . S
O537 Co514 2.047 . S
O537 C528 1.257 . S
O538 Co513 2.063 . S
O538 C529 1.268 . S
O539 Co512 2.094 . S
O539 C529 1.253 . S
O540 Co519 2.115 . S
O540 C530 1.281 . S
O541 Co519 2.315 . S
O541 C530 1.252 . S
O542 Co512 2.122 . S
O542 C531 1.272 . S
O543 Co514 2.113 . S
O543 C531 1.245 . S
Co544 H547 2.400 . S
Co544 O548 2.009 . S
Co544 O556 2.115 . S
Co544 O557 2.315 . S
Co544 O568 2.053 . S
Co544 O571 2.094 . S
Co544 O574 2.122 . S
Co545 O548 2.126 . S
Co545 H549 2.388 . S
Co545 O550 2.053 . S
Co545 O553 2.047 . S
Co545 O559 2.113 . S
Co545 O570 2.063 . S
Co546 H547 2.388 . S
Co546 O548 2.053 . S
Co546 O550 2.126 . S
Co546 O555 2.063 . S
Co546 O569 2.047 . S
Co546 O575 2.113 . S
H547 Co544 2.400 . S
H547 Co546 2.388 . S
H547 O548 0.760 . S
O548 Co544 2.009 . S
O548 Co545 2.126 . S
O548 Co546 2.053 . S
O548 H547 0.760 . S
H549 Co545 2.388 . S
H549 O550 0.760 . S
H549 Co551 2.400 . S
O550 Co545 2.053 . S
O550 Co546 2.126 . S
O550 H549 0.760 . S
O550 Co551 2.009 . S
Co551 H549 2.400 . S
Co551 O550 2.009 . S
Co551 O552 2.053 . S
Co551 O554 2.094 . S
Co551 O558 2.122 . S
Co551 O572 2.115 . S
Co551 O573 2.315 . S
O552 Co551 2.053 . S
O552 C564 1.259 . S
O553 Co545 2.047 . S
O553 C564 1.257 . S
O554 Co551 2.094 . S
O554 C565 1.253 . S
O555 Co546 2.063 . S
O555 C565 1.268 . S
O556 Co544 2.115 . S
O556 C566 1.281 . S
O557 Co544 2.315 . S
O557 C566 1.252 . S
O558 Co551 2.122 . S
O558 C567 1.272 . S
O559 Co545 2.113 . S
O559 C567 1.245 . S
C560 O568 1.259 . S
C560 O569 1.257 . S
C561 O570 1.268 . S
C561 O571 1.253 . S
C562 O572 1.281 . S
C562 O573 1.252 . S
C563 O574 1.272 . S
C563 O575 1.245 . S
C564 O552 1.259 . S
C564 O553 1.257 . S
C565 O554 1.253 . S
C565 O555 1.268 . S
C566 O556 1.281 . S
C566 O557 1.252 . S
C567 O558 1.272 . S
C567 O559 1.245 . S
O568 Co544 2.053 . S
O568 C560 1.259 . S
O569 Co546 2.047 . S
O569 C560 1.257 . S
O570 Co545 2.063 . S
O570 C561 1.268 . S
O571 Co544 2.094 . S
O571 C561 1.253 . S
O572 Co551 2.115 . S
O572 C562 1.281 . S
O573 Co551 2.315 . S
O573 C562 1.252 . S
O574 Co544 2.122 . S
O574 C563 1.272 . S
O575 Co546 2.113 . S
O575 C563 1.245 . S
Co576 H579 2.400 . S
Co576 O580 2.009 . S
Co576 O588 2.115 . S
Co576 O589 2.315 . S
Co576 O600 2.053 . S
Co576 O603 2.094 . S
Co576 O606 2.122 . S
Co577 O580 2.126 . S
Co577 H581 2.388 . S
Co577 O582 2.053 . S
Co577 O585 2.047 . S
Co577 O591 2.113 . S
Co577 O602 2.063 . S
Co578 H579 2.388 . S
Co578 O580 2.053 . S
Co578 O582 2.126 . S
Co578 O587 2.063 . S
Co578 O601 2.047 . S
Co578 O607 2.113 . S
H579 Co576 2.400 . S
H579 Co578 2.388 . S
H579 O580 0.760 . S
O580 Co576 2.009 . S
O580 Co577 2.126 . S
O580 Co578 2.053 . S
O580 H579 0.760 . S
H581 Co577 2.388 . S
H581 O582 0.760 . S
H581 Co583 2.400 . S
O582 Co577 2.053 . S
O582 Co578 2.126 . S
O582 H581 0.760 . S
O582 Co583 2.009 . S
Co583 H581 2.400 . S
Co583 O582 2.009 . S
Co583 O584 2.053 . S
Co583 O586 2.094 . S
Co583 O590 2.122 . S
Co583 O604 2.115 . S
Co583 O605 2.315 . S
O584 Co583 2.053 . S
O584 C596 1.259 . S
O585 Co577 2.047 . S
O585 C596 1.257 . S
O586 Co583 2.094 . S
O586 C597 1.253 . S
O587 Co578 2.063 . S
O587 C597 1.268 . S
O588 Co576 2.115 . S
O588 C598 1.281 . S
O589 Co576 2.315 . S
O589 C598 1.252 . S
O590 Co583 2.122 . S
O590 C599 1.272 . S
O591 Co577 2.113 . S
O591 C599 1.245 . S
C592 O600 1.259 . S
C592 O601 1.257 . S
C593 O602 1.268 . S
C593 O603 1.253 . S
C594 O604 1.281 . S
C594 O605 1.252 . S
C595 O606 1.272 . S
C595 O607 1.245 . S
C596 O584 1.259 . S
C596 O585 1.257 . S
C597 O586 1.253 . S
C597 O587 1.268 . S
C598 O588 1.281 . S
C598 O589 1.252 . S
C599 O590 1.272 . S
C599 O591 1.245 . S
O600 Co576 2.053 . S
O600 C592 1.259 . S
O601 Co578 2.047 . S
O601 C592 1.257 . S
O602 Co577 2.063 . S
O602 C593 1.268 . S
O603 Co576 2.094 . S
O603 C593 1.253 . S
O604 Co583 2.115 . S
O604 C594 1.281 . S
O605 Co583 2.315 . S
O605 C594 1.252 . S
O606 Co576 2.122 . S
O606 C595 1.272 . S
O607 Co578 2.113 . S
O607 C595 1.245 . S
Co608 H611 2.400 . S
Co608 O612 2.009 . S
Co608 O620 2.115 . S
Co608 O621 2.315 . S
Co608 O632 2.053 . S
Co608 O635 2.094 . S
Co608 O638 2.122 . S
Co609 O612 2.126 . S
Co609 H613 2.388 . S
Co609 O614 2.053 . S
Co609 O617 2.047 . S
Co609 O623 2.113 . S
Co609 O634 2.063 . S
Co610 H611 2.388 . S
Co610 O612 2.053 . S
Co610 O614 2.126 . S
Co610 O619 2.063 . S
Co610 O633 2.047 . S
Co610 O639 2.113 . S
H611 Co608 2.400 . S
H611 Co610 2.388 . S
H611 O612 0.760 . S
O612 Co608 2.009 . S
O612 Co609 2.126 . S
O612 Co610 2.053 . S
O612 H611 0.760 . S
H613 Co609 2.388 . S
H613 O614 0.760 . S
H613 Co615 2.400 . S
O614 Co609 2.053 . S
O614 Co610 2.126 . S
O614 H613 0.760 . S
O614 Co615 2.009 . S
Co615 H613 2.400 . S
Co615 O614 2.009 . S
Co615 O616 2.053 . S
Co615 O618 2.094 . S
Co615 O622 2.122 . S
Co615 O636 2.115 . S
Co615 O637 2.315 . S
O616 Co615 2.053 . S
O616 C628 1.259 . S
O617 Co609 2.047 . S
O617 C628 1.257 . S
O618 Co615 2.094 . S
O618 C629 1.253 . S
O619 Co610 2.063 . S
O619 C629 1.268 . S
O620 Co608 2.115 . S
O620 C630 1.281 . S
O621 Co608 2.315 . S
O621 C630 1.252 . S
O622 Co615 2.122 . S
O622 C631 1.272 . S
O623 Co609 2.113 . S
O623 C631 1.245 . S
C624 O632 1.259 . S
C624 O633 1.257 . S
C625 O634 1.268 . S
C625 O635 1.253 . S
C626 O636 1.281 . S
C626 O637 1.252 . S
C627 O638 1.272 . S
C627 O639 1.245 . S
C628 O616 1.259 . S
C628 O617 1.257 . S
C629 O618 1.253 . S
C629 O619 1.268 . S
C630 O620 1.281 . S
C630 O621 1.252 . S
C631 O622 1.272 . S
C631 O623 1.245 . S
O632 Co608 2.053 . S
O632 C624 1.259 . S
O633 Co610 2.047 . S
O633 C624 1.257 . S
O634 Co609 2.063 . S
O634 C625 1.268 . S
O635 Co608 2.094 . S
O635 C625 1.253 . S
O636 Co615 2.115 . S
O636 C626 1.281 . S
O637 Co615 2.315 . S
O637 C626 1.252 . S
O638 Co608 2.122 . S
O638 C627 1.272 . S
O639 Co610 2.113 . S
O639 C627 1.245 . S
Co640 H643 2.400 . S
Co640 O644 2.009 . S
Co640 O652 2.115 . S
Co640 O653 2.315 . S
Co640 O664 2.053 . S
Co640 O667 2.094 . S
Co640 O670 2.122 . S
Co641 O644 2.126 . S
Co641 H645 2.388 . S
Co641 O646 2.053 . S
Co641 O649 2.047 . S
Co641 O655 2.113 . S
Co641 O666 2.063 . S
Co642 H643 2.388 . S
Co642 O644 2.053 . S
Co642 O646 2.126 . S
Co642 O651 2.063 . S
Co642 O665 2.047 . S
Co642 O671 2.113 . S
H643 Co640 2.400 . S
H643 Co642 2.388 . S
H643 O644 0.760 . S
O644 Co640 2.009 . S
O644 Co641 2.126 . S
O644 Co642 2.053 . S
O644 H643 0.760 . S
H645 Co641 2.388 . S
H645 O646 0.760 . S
H645 Co647 2.400 . S
O646 Co641 2.053 . S
O646 Co642 2.126 . S
O646 H645 0.760 . S
O646 Co647 2.009 . S
Co647 H645 2.400 . S
Co647 O646 2.009 . S
Co647 O648 2.053 . S
Co647 O650 2.094 . S
Co647 O654 2.122 . S
Co647 O668 2.115 . S
Co647 O669 2.315 . S
O648 Co647 2.053 . S
O648 C660 1.259 . S
O649 Co641 2.047 . S
O649 C660 1.257 . S
O650 Co647 2.094 . S
O650 C661 1.253 . S
O651 Co642 2.063 . S
O651 C661 1.268 . S
O652 Co640 2.115 . S
O652 C662 1.281 . S
O653 Co640 2.315 . S
O653 C662 1.252 . S
O654 Co647 2.122 . S
O654 C663 1.272 . S
O655 Co641 2.113 . S
O655 C663 1.245 . S
C656 O664 1.259 . S
C656 O665 1.257 . S
C657 O666 1.268 . S
C657 O667 1.253 . S
C658 O668 1.281 . S
C658 O669 1.252 . S
C659 O670 1.272 . S
C659 O671 1.245 . S
C660 O648 1.259 . S
C660 O649 1.257 . S
C661 O650 1.253 . S
C661 O651 1.268 . S
C662 O652 1.281 . S
C662 O653 1.252 . S
C663 O654 1.272 . S
C663 O655 1.245 . S
O664 Co640 2.053 . S
O664 C656 1.259 . S
O665 Co642 2.047 . S
O665 C656 1.257 . S
O666 Co641 2.063 . S
O666 C657 1.268 . S
O667 Co640 2.094 . S
O667 C657 1.253 . S
O668 Co647 2.115 . S
O668 C658 1.281 . S
O669 Co647 2.315 . S
O669 C658 1.252 . S
O670 Co640 2.122 . S
O670 C659 1.272 . S
O671 Co642 2.113 . S
O671 C659 1.245 . S
Co672 H675 2.400 . S
Co672 O676 2.009 . S
Co672 O684 2.115 . S
Co672 O685 2.315 . S
Co672 O696 2.053 . S
Co672 O699 2.094 . S
Co672 O702 2.122 . S
Co673 O676 2.126 . S
Co673 H677 2.388 . S
Co673 O678 2.053 . S
Co673 O681 2.047 . S
Co673 O687 2.113 . S
Co673 O698 2.063 . S
Co674 H675 2.388 . S
Co674 O676 2.053 . S
Co674 O678 2.126 . S
Co674 O683 2.063 . S
Co674 O697 2.047 . S
Co674 O703 2.113 . S
H675 Co672 2.400 . S
H675 Co674 2.388 . S
H675 O676 0.760 . S
O676 Co672 2.009 . S
O676 Co673 2.126 . S
O676 Co674 2.053 . S
O676 H675 0.760 . S
H677 Co673 2.388 . S
H677 O678 0.760 . S
H677 Co679 2.400 . S
O678 Co673 2.053 . S
O678 Co674 2.126 . S
O678 H677 0.760 . S
O678 Co679 2.009 . S
Co679 H677 2.400 . S
Co679 O678 2.009 . S
Co679 O680 2.053 . S
Co679 O682 2.094 . S
Co679 O686 2.122 . S
Co679 O700 2.115 . S
Co679 O701 2.315 . S
O680 Co679 2.053 . S
O680 C692 1.259 . S
O681 Co673 2.047 . S
O681 C692 1.257 . S
O682 Co679 2.094 . S
O682 C693 1.253 . S
O683 Co674 2.063 . S
O683 C693 1.268 . S
O684 Co672 2.115 . S
O684 C694 1.281 . S
O685 Co672 2.315 . S
O685 C694 1.252 . S
O686 Co679 2.122 . S
O686 C695 1.272 . S
O687 Co673 2.113 . S
O687 C695 1.245 . S
C688 O696 1.259 . S
C688 O697 1.257 . S
C689 O698 1.268 . S
C689 O699 1.253 . S
C690 O700 1.281 . S
C690 O701 1.252 . S
C691 O702 1.272 . S
C691 O703 1.245 . S
C692 O680 1.259 . S
C692 O681 1.257 . S
C693 O682 1.253 . S
C693 O683 1.268 . S
C694 O684 1.281 . S
C694 O685 1.252 . S
C695 O686 1.272 . S
C695 O687 1.245 . S
O696 Co672 2.053 . S
O696 C688 1.259 . S
O697 Co674 2.047 . S
O697 C688 1.257 . S
O698 Co673 2.063 . S
O698 C689 1.268 . S
O699 Co672 2.094 . S
O699 C689 1.253 . S
O700 Co679 2.115 . S
O700 C690 1.281 . S
O701 Co679 2.315 . S
O701 C690 1.252 . S
O702 Co672 2.122 . S
O702 C691 1.272 . S
O703 Co674 2.113 . S
O703 C691 1.245 . S
Co704 H707 2.400 . S
Co704 O708 2.009 . S
Co704 O716 2.115 . S
Co704 O717 2.315 . S
Co704 O728 2.053 . S
Co704 O731 2.094 . S
Co704 O734 2.122 . S
Co705 O708 2.126 . S
Co705 H709 2.388 . S
Co705 O710 2.053 . S
Co705 O713 2.047 . S
Co705 O719 2.113 . S
Co705 O730 2.063 . S
Co706 H707 2.388 . S
Co706 O708 2.053 . S
Co706 O710 2.126 . S
Co706 O715 2.063 . S
Co706 O729 2.047 . S
Co706 O735 2.113 . S
H707 Co704 2.400 . S
H707 Co706 2.388 . S
H707 O708 0.760 . S
O708 Co704 2.009 . S
O708 Co705 2.126 . S
O708 Co706 2.053 . S
O708 H707 0.760 . S
H709 Co705 2.388 . S
H709 O710 0.760 . S
H709 Co711 2.400 . S
O710 Co705 2.053 . S
O710 Co706 2.126 . S
O710 H709 0.760 . S
O710 Co711 2.009 . S
Co711 H709 2.400 . S
Co711 O710 2.009 . S
Co711 O712 2.053 . S
Co711 O714 2.094 . S
Co711 O718 2.122 . S
Co711 O732 2.115 . S
Co711 O733 2.315 . S
O712 Co711 2.053 . S
O712 C724 1.259 . S
O713 Co705 2.047 . S
O713 C724 1.257 . S
O714 Co711 2.094 . S
O714 C725 1.253 . S
O715 Co706 2.063 . S
O715 C725 1.268 . S
O716 Co704 2.115 . S
O716 C726 1.281 . S
O717 Co704 2.315 . S
O717 C726 1.252 . S
O718 Co711 2.122 . S
O718 C727 1.272 . S
O719 Co705 2.113 . S
O719 C727 1.245 . S
C720 O728 1.259 . S
C720 O729 1.257 . S
C721 O730 1.268 . S
C721 O731 1.253 . S
C722 O732 1.281 . S
C722 O733 1.252 . S
C723 O734 1.272 . S
C723 O735 1.245 . S
C724 O712 1.259 . S
C724 O713 1.257 . S
C725 O714 1.253 . S
C725 O715 1.268 . S
C726 O716 1.281 . S
C726 O717 1.252 . S
C727 O718 1.272 . S
C727 O719 1.245 . S
O728 Co704 2.053 . S
O728 C720 1.259 . S
O729 Co706 2.047 . S
O729 C720 1.257 . S
O730 Co705 2.063 . S
O730 C721 1.268 . S
O731 Co704 2.094 . S
O731 C721 1.253 . S
O732 Co711 2.115 . S
O732 C722 1.281 . S
O733 Co711 2.315 . S
O733 C722 1.252 . S
O734 Co704 2.122 . S
O734 C723 1.272 . S
O735 Co706 2.113 . S
O735 C723 1.245 . S
Co736 H739 2.400 . S
Co736 O740 2.009 . S
Co736 O748 2.115 . S
Co736 O749 2.315 . S
Co736 O760 2.053 . S
Co736 O763 2.094 . S
Co736 O766 2.122 . S
Co737 O740 2.126 . S
Co737 H741 2.388 . S
Co737 O742 2.053 . S
Co737 O745 2.047 . S
Co737 O751 2.113 . S
Co737 O762 2.063 . S
Co738 H739 2.388 . S
Co738 O740 2.053 . S
Co738 O742 2.126 . S
Co738 O747 2.063 . S
Co738 O761 2.047 . S
Co738 O767 2.113 . S
H739 Co736 2.400 . S
H739 Co738 2.388 . S
H739 O740 0.760 . S
O740 Co736 2.009 . S
O740 Co737 2.126 . S
O740 Co738 2.053 . S
O740 H739 0.760 . S
H741 Co737 2.388 . S
H741 O742 0.760 . S
H741 Co743 2.400 . S
O742 Co737 2.053 . S
O742 Co738 2.126 . S
O742 H741 0.760 . S
O742 Co743 2.009 . S
Co743 H741 2.400 . S
Co743 O742 2.009 . S
Co743 O744 2.053 . S
Co743 O746 2.094 . S
Co743 O750 2.122 . S
Co743 O764 2.115 . S
Co743 O765 2.315 . S
O744 Co743 2.053 . S
O744 C756 1.259 . S
O745 Co737 2.047 . S
O745 C756 1.257 . S
O746 Co743 2.094 . S
O746 C757 1.253 . S
O747 Co738 2.063 . S
O747 C757 1.268 . S
O748 Co736 2.115 . S
O748 C758 1.281 . S
O749 Co736 2.315 . S
O749 C758 1.252 . S
O750 Co743 2.122 . S
O750 C759 1.272 . S
O751 Co737 2.113 . S
O751 C759 1.245 . S
C752 O760 1.259 . S
C752 O761 1.257 . S
C753 O762 1.268 . S
C753 O763 1.253 . S
C754 O764 1.281 . S
C754 O765 1.252 . S
C755 O766 1.272 . S
C755 O767 1.245 . S
C756 O744 1.259 . S
C756 O745 1.257 . S
C757 O746 1.253 . S
C757 O747 1.268 . S
C758 O748 1.281 . S
C758 O749 1.252 . S
C759 O750 1.272 . S
C759 O751 1.245 . S
O760 Co736 2.053 . S
O760 C752 1.259 . S
O761 Co738 2.047 . S
O761 C752 1.257 . S
O762 Co737 2.063 . S
O762 C753 1.268 . S
O763 Co736 2.094 . S
O763 C753 1.253 . S
O764 Co743 2.115 . S
O764 C754 1.281 . S
O765 Co743 2.315 . S
O765 C754 1.252 . S
O766 Co736 2.122 . S
O766 C755 1.272 . S
O767 Co738 2.113 . S
O767 C755 1.245 . S
C768 C769 1.369 . S
C768 C770 1.419 . S
C768 H772 0.930 . S
C769 C768 1.369 . S
C769 C778 1.429 . S
C770 C768 1.419 . S
C770 C771 1.363 . S
C770 H773 0.929 . S
C771 C770 1.363 . S
C771 C777 1.428 . S
H772 C768 0.930 . S
H773 C770 0.929 . S
S774 N775 1.613 . S
S774 N776 1.610 . S
N775 S774 1.613 . S
N775 C778 1.350 . S
N776 S774 1.610 . S
N776 C777 1.351 . S
C777 C771 1.428 . S
C777 N776 1.351 . S
C777 C778 1.434 . S
C778 C769 1.429 . S
C778 N775 1.350 . S
C778 C777 1.434 . S
C779 C780 1.369 . S
C779 C781 1.419 1_565 S
C779 H783 0.930 . S
C780 C779 1.369 . S
C780 C789 1.429 . S
C781 C779 1.419 1_545 S
C781 C782 1.363 . S
C781 H784 0.929 . S
C782 C781 1.363 . S
C782 C788 1.428 1_545 S
H783 C779 0.930 . S
H784 C781 0.929 . S
S785 N786 1.613 . S
S785 N787 1.610 . S
N786 S785 1.613 . S
N786 C789 1.350 1_455 S
N787 S785 1.610 . S
N787 C788 1.352 1_455 S
C788 C782 1.428 1_565 S
C788 N787 1.352 1_655 S
C788 C789 1.434 . S
C789 C780 1.429 . S
C789 N786 1.350 1_655 S
C789 C788 1.434 . S
C790 C791 1.369 . S
C790 C792 1.419 . S
C790 H794 0.930 . S
C791 C790 1.369 . S
C791 C800 1.429 . S
C792 C790 1.419 . S
C792 C793 1.363 . S
C792 H795 0.929 . S
C793 C792 1.363 . S
C793 C799 1.428 . S
H794 C790 0.930 . S
H795 C792 0.929 . S
S796 N797 1.613 . S
S796 N798 1.610 . S
N797 S796 1.613 . S
N797 C800 1.350 . S
N798 S796 1.610 . S
N798 C799 1.351 . S
C799 C793 1.428 . S
C799 N798 1.351 . S
C799 C800 1.434 . S
C800 C791 1.429 . S
C800 N797 1.350 . S
C800 C799 1.434 . S
C801 C802 1.369 1_565 S
C801 C803 1.419 1_565 S
C801 H805 0.930 . S
C802 C801 1.369 1_545 S
C802 C811 1.429 . S
C803 C801 1.419 1_545 S
C803 C804 1.363 . S
C803 H806 0.929 . S
C804 C803 1.363 . S
C804 C810 1.428 . S
H805 C801 0.930 . S
H806 C803 0.929 . S
S807 N808 1.613 . S
S807 N809 1.610 . S
N808 S807 1.613 . S
N808 C811 1.350 . S
N809 S807 1.610 . S
N809 C810 1.351 . S
C810 C804 1.428 . S
C810 N809 1.351 . S
C810 C811 1.434 . S
C811 C802 1.429 . S
C811 N808 1.350 . S
C811 C810 1.434 . S
C812 C813 1.369 . S
C812 C814 1.419 . S
C812 H816 0.930 . S
C813 C812 1.369 . S
C813 C822 1.429 . S
C814 C812 1.419 . S
C814 C815 1.363 . S
C814 H817 0.929 . S
C815 C814 1.363 . S
C815 C821 1.428 . S
H816 C812 0.930 . S
H817 C814 0.929 . S
S818 N819 1.613 . S
S818 N820 1.610 . S
N819 S818 1.613 . S
N819 C822 1.350 . S
N820 S818 1.610 . S
N820 C821 1.351 . S
C821 C815 1.428 . S
C821 N820 1.351 . S
C821 C822 1.434 . S
C822 C813 1.429 . S
C822 N819 1.350 . S
C822 C821 1.434 . S
C823 C824 1.369 . S
C823 C825 1.419 1_565 S
C823 H827 0.930 . S
C824 C823 1.369 . S
C824 C833 1.429 . S
C825 C823 1.419 1_545 S
C825 C826 1.363 . S
C825 H828 0.929 . S
C826 C825 1.363 . S
C826 C832 1.428 . S
H827 C823 0.930 . S
H828 C825 0.929 . S
S829 N830 1.613 . S
S829 N831 1.610 1_565 S
N830 S829 1.613 . S
N830 C833 1.350 . S
N831 S829 1.610 1_545 S
N831 C832 1.351 . S
C832 C826 1.428 . S
C832 N831 1.351 . S
C832 C833 1.434 1_545 S
C833 C824 1.429 . S
C833 N830 1.350 . S
C833 C832 1.434 1_565 S
C834 C835 1.369 . S
C834 C836 1.419 . S
C834 H838 0.930 . S
C835 C834 1.369 . S
C835 C844 1.429 . S
C836 C834 1.419 . S
C836 C837 1.363 . S
C836 H839 0.929 . S
C837 C836 1.363 . S
C837 C843 1.428 . S
H838 C834 0.930 . S
H839 C836 0.929 . S
S840 N841 1.613 . S
S840 N842 1.610 . S
N841 S840 1.613 . S
N841 C844 1.350 . S
N842 S840 1.610 . S
N842 C843 1.351 . S
C843 C837 1.428 . S
C843 N842 1.351 . S
C843 C844 1.434 . S
C844 C835 1.429 . S
C844 N841 1.350 . S
C844 C843 1.434 . S
C845 C846 1.369 . S
C845 C847 1.397 1_455 S
C845 H849 0.930 . S
C846 C845 1.369 . S
C846 C855 1.450 . S
C847 C845 1.397 1_655 S
C847 C848 1.385 . S
C847 H850 0.930 . S
C848 C847 1.385 . S
C848 C854 1.428 . S
H849 C845 0.930 . S
H850 C847 0.930 . S
S851 N852 1.613 . S
S851 N853 1.595 1_565 S
N852 S851 1.613 . S
N852 C855 1.348 1_665 S
N853 S851 1.595 1_545 S
N853 C854 1.360 . S
C854 C848 1.428 . S
C854 N853 1.360 . S
C854 C855 1.412 1_655 S
C855 C846 1.450 . S
C855 N852 1.348 1_445 S
C855 C854 1.412 1_455 S
C856 C857 1.369 . S
C856 C858 1.419 . S
C856 H860 0.930 . S
C857 C856 1.369 . S
C857 C866 1.429 . S
C858 C856 1.419 . S
C858 C859 1.363 . S
C858 H861 0.929 . S
C859 C858 1.363 . S
C859 C865 1.428 . S
H860 C856 0.930 . S
H861 C858 0.929 . S
S862 N863 1.613 . S
S862 N864 1.610 . S
N863 S862 1.613 . S
N863 C866 1.350 . S
N864 S862 1.610 . S
N864 C865 1.351 . S
C865 C859 1.428 . S
C865 N864 1.351 . S
C865 C866 1.434 . S
C866 C857 1.429 . S
C866 N863 1.350 . S
C866 C865 1.434 . S
C867 C868 1.369 . S
C867 C869 1.419 . S
C867 H871 0.930 . S
C868 C867 1.369 . S
C868 C877 1.429 . S
C869 C867 1.419 . S
C869 C870 1.363 1_455 S
C869 H872 0.929 . S
C870 C869 1.363 1_655 S
C870 C876 1.428 . S
H871 C867 0.930 . S
H872 C869 0.929 . S
S873 N874 1.613 1_665 S
S873 N875 1.610 1_565 S
N874 S873 1.613 1_445 S
N874 C877 1.350 . S
N875 S873 1.610 1_545 S
N875 C876 1.351 . S
C876 C870 1.428 . S
C876 N875 1.351 . S
C876 C877 1.434 1_655 S
C877 C868 1.429 . S
C877 N874 1.350 . S
C877 C876 1.434 1_455 S
C878 C879 1.369 . S
C878 C880 1.419 . S
C878 H882 0.930 . S
C879 C878 1.369 . S
C879 C888 1.429 . S
C880 C878 1.419 . S
C880 C881 1.363 . S
C880 H883 0.929 . S
C881 C880 1.363 . S
C881 C887 1.428 . S
H882 C878 0.930 . S
H883 C880 0.929 . S
S884 N885 1.613 . S
S884 N886 1.610 . S
N885 S884 1.613 . S
N885 C888 1.350 . S
N886 S884 1.610 . S
N886 C887 1.351 . S
C887 C881 1.428 . S
C887 N886 1.351 . S
C887 C888 1.434 . S
C888 C879 1.429 . S
C888 N885 1.350 . S
C888 C887 1.434 . S
C889 C890 1.369 . S
C889 C891 1.419 . S
C889 H893 0.930 1_554 S
C890 C889 1.369 . S
C890 C899 1.429 . S
C891 C889 1.419 . S
C891 C892 1.363 . S
C891 H894 0.929 . S
C892 C891 1.363 . S
C892 C898 1.428 . S
H893 C889 0.930 1_556 S
H894 C891 0.929 . S
S895 N896 1.613 . S
S895 N897 1.610 . S
N896 S895 1.613 . S
N896 C899 1.350 . S
N897 S895 1.610 . S
N897 C898 1.351 . S
C898 C892 1.428 . S
C898 N897 1.351 . S
C898 C899 1.434 . S
C899 C890 1.429 . S
C899 N896 1.350 . S
C899 C898 1.434 . S
C900 C901 1.369 . S
C900 C902 1.419 . S
C900 H904 0.930 . S
C901 C900 1.369 . S
C901 C910 1.429 . S
C902 C900 1.419 . S
C902 C903 1.363 . S
C902 H905 0.929 . S
C903 C902 1.363 . S
C903 C909 1.428 . S
H904 C900 0.930 . S
H905 C902 0.929 . S
S906 N907 1.613 . S
S906 N908 1.610 . S
N907 S906 1.613 . S
N907 C910 1.350 . S
N908 S906 1.610 . S
N908 C909 1.351 . S
C909 C903 1.428 . S
C909 N908 1.351 . S
C909 C910 1.434 . S
C910 C901 1.429 . S
C910 N907 1.350 . S
C910 C909 1.434 . S
C911 C912 1.369 . S
C911 C913 1.419 . S
C911 H915 0.930 . S
C912 C911 1.369 . S
C912 C921 1.429 . S
C913 C911 1.419 . S
C913 C914 1.363 . S
C913 H916 0.929 . S
C914 C913 1.363 . S
C914 C920 1.428 . S
H915 C911 0.930 . S
H916 C913 0.929 . S
S917 N918 1.613 . S
S917 N919 1.610 . S
N918 S917 1.613 . S
N918 C921 1.350 . S
N919 S917 1.610 . S
N919 C920 1.351 . S
C920 C914 1.428 . S
C920 N919 1.351 . S
C920 C921 1.434 . S
C921 C912 1.429 . S
C921 N918 1.350 . S
C921 C920 1.434 . S
C922 C923 1.369 . S
C922 C924 1.419 . S
C922 H926 0.930 . S
C923 C922 1.369 . S
C923 C932 1.429 . S
C924 C922 1.419 . S
C924 C925 1.363 . S
C924 H927 0.929 . S
C925 C924 1.363 . S
C925 C931 1.428 . S
H926 C922 0.930 . S
H927 C924 0.929 . S
S928 N929 1.613 . S
S928 N930 1.610 . S
N929 S928 1.613 . S
N929 C932 1.350 . S
N930 S928 1.610 . S
N930 C931 1.351 . S
C931 C925 1.428 . S
C931 N930 1.351 . S
C931 C932 1.434 . S
C932 C923 1.429 . S
C932 N929 1.350 . S
C932 C931 1.434 . S
C933 C934 1.369 . S
C933 C935 1.419 1_554 S
C933 H937 0.930 . S
C934 C933 1.369 . S
C934 C943 1.429 1_554 S
C935 C933 1.419 1_556 S
C935 C936 1.363 . S
C935 H938 0.929 . S
C936 C935 1.363 . S
C936 C942 1.428 . S
H937 C933 0.930 . S
H938 C935 0.929 . S
S939 N940 1.613 . S
S939 N941 1.610 1_655 S
N940 S939 1.613 . S
N940 C943 1.350 1_655 S
N941 S939 1.610 1_455 S
N941 C942 1.351 . S
C942 C936 1.428 . S
C942 N941 1.351 . S
C942 C943 1.434 . S
C943 C934 1.429 1_556 S
C943 N940 1.350 1_455 S
C943 C942 1.434 . S
C944 C945 1.369 . S
C944 C946 1.419 . S
C944 H948 0.930 . S
C945 C944 1.369 . S
C945 C954 1.429 . S
C946 C944 1.419 . S
C946 C947 1.363 . S
C946 H949 0.929 . S
C947 C946 1.363 . S
C947 C953 1.428 . S
H948 C944 0.930 . S
H949 C946 0.929 . S
S950 N951 1.613 . S
S950 N952 1.610 . S
N951 S950 1.613 . S
N951 C954 1.350 . S
N952 S950 1.610 . S
N952 C953 1.351 . S
C953 C947 1.428 . S
C953 N952 1.351 . S
C953 C954 1.434 . S
C954 C945 1.429 . S
C954 N951 1.350 . S
C954 C953 1.434 . S
C955 C956 1.369 . S
C955 C957 1.419 . S
C955 H959 0.930 . S
C956 C955 1.369 . S
C956 C965 1.429 . S
C957 C955 1.419 . S
C957 C958 1.363 . S
C957 H960 0.929 . S
C958 C957 1.363 . S
C958 C964 1.428 . S
H959 C955 0.930 . S
H960 C957 0.929 . S
S961 N962 1.613 . S
S961 N963 1.610 . S
N962 S961 1.613 . S
N962 C965 1.350 . S
N963 S961 1.610 . S
N963 C964 1.351 . S
C964 C958 1.428 . S
C964 N963 1.351 . S
C964 C965 1.434 . S
C965 C956 1.429 . S
C965 N962 1.350 . S
C965 C964 1.434 . S
C966 C967 1.369 . S
C966 C968 1.419 . S
C966 H970 0.930 . S
C967 C966 1.369 . S
C967 C976 1.429 . S
C968 C966 1.419 . S
C968 C969 1.363 . S
C968 H971 0.929 . S
C969 C968 1.363 . S
C969 C975 1.428 . S
H970 C966 0.930 . S
H971 C968 0.929 . S
S972 N973 1.613 . S
S972 N974 1.610 1_556 S
N973 S972 1.613 . S
N973 C976 1.350 1_556 S
N974 S972 1.610 1_554 S
N974 C975 1.351 . S
C975 C969 1.428 . S
C975 N974 1.351 . S
C975 C976 1.434 . S
C976 C967 1.429 . S
C976 N973 1.350 1_554 S
C976 C975 1.434 . S
C977 C978 1.369 . S
C977 C979 1.419 . S
C977 H981 0.930 . S
C978 C977 1.369 . S
C978 C987 1.429 . S
C979 C977 1.419 . S
C979 C980 1.363 . S
C979 H982 0.929 . S
C980 C979 1.363 . S
C980 C986 1.428 . S
H981 C977 0.930 . S
H982 C979 0.929 . S
S983 N984 1.613 . S
S983 N985 1.610 . S
N984 S983 1.613 . S
N984 C987 1.350 . S
N985 S983 1.610 . S
N985 C986 1.351 . S
C986 C980 1.428 . S
C986 N985 1.351 . S
C986 C987 1.434 . S
C987 C978 1.429 . S
C987 N984 1.350 . S
C987 C986 1.434 . S
C988 C989 1.369 1_556 S
C988 C990 1.419 1_546 S
C988 H992 0.930 . S
C989 C988 1.369 1_554 S
C989 C998 1.429 . S
C990 C988 1.419 1_564 S
C990 C991 1.363 . S
C990 H993 0.929 . S
C991 C990 1.363 . S
C991 C997 1.428 . S
H992 C988 0.930 . S
H993 C990 0.929 . S
S994 N995 1.613 . S
S994 N996 1.610 1_545 S
N995 S994 1.613 . S
N995 C998 1.350 . S
N996 S994 1.610 1_565 S
N996 C997 1.351 . S
C997 C991 1.428 . S
C997 N996 1.351 . S
C997 C998 1.434 1_565 S
C998 C989 1.429 . S
C998 N995 1.350 . S
C998 C997 1.434 1_545 S
C999 C1000 1.369 . S
C999 C1001 1.419 . S
C999 H1003 0.930 . S
C1000 C999 1.369 . S
C1000 C1009 1.429 . S
C1001 C999 1.419 . S
C1001 C1002 1.363 . S
C1001 H1004 0.929 . S
C1002 C1001 1.363 . S
C1002 C1008 1.428 . S
H1003 C999 0.930 . S
H1004 C1001 0.929 . S
S1005 N1006 1.613 . S
S1005 N1007 1.610 . S
N1006 S1005 1.613 . S
N1006 C1009 1.350 . S
N1007 S1005 1.610 . S
N1007 C1008 1.351 . S
C1008 C1002 1.428 . S
C1008 N1007 1.351 . S
C1008 C1009 1.434 . S
C1009 C1000 1.429 . S
C1009 N1006 1.350 . S
C1009 C1008 1.434 . S
C1010 C1011 1.369 . S
C1010 C1012 1.419 . S
C1010 H1014 0.930 . S
C1011 C1010 1.369 . S
C1011 C1020 1.429 . S
C1012 C1010 1.419 . S
C1012 C1013 1.363 . S
C1012 H1015 0.929 . S
C1013 C1012 1.363 . S
C1013 C1019 1.428 . S
H1014 C1010 0.930 . S
H1015 C1012 0.929 . S
S1016 N1017 1.613 . S
S1016 N1018 1.610 . S
N1017 S1016 1.613 . S
N1017 C1020 1.350 . S
N1018 S1016 1.610 . S
N1018 C1019 1.351 . S
C1019 C1013 1.428 . S
C1019 N1018 1.351 . S
C1019 C1020 1.434 . S
C1020 C1011 1.429 . S
C1020 N1017 1.350 . S
C1020 C1019 1.434 . S
C1021 C1022 1.369 . S
C1021 C1023 1.419 1_554 S
C1021 H1025 0.930 . S
C1022 C1021 1.369 . S
C1022 C1031 1.429 1_554 S
C1023 C1021 1.419 1_556 S
C1023 C1024 1.363 . S
C1023 H1026 0.929 . S
C1024 C1023 1.363 . S
C1024 C1030 1.428 . S
H1025 C1021 0.930 . S
H1026 C1023 0.929 . S
S1027 N1028 1.613 . S
S1027 N1029 1.610 . S
N1028 S1027 1.613 . S
N1028 C1031 1.350 . S
N1029 S1027 1.610 . S
N1029 C1030 1.351 . S
C1030 C1024 1.428 . S
C1030 N1029 1.351 . S
C1030 C1031 1.434 . S
C1031 C1022 1.429 1_556 S
C1031 N1028 1.350 . S
C1031 C1030 1.434 . S
C1032 C1033 1.369 . S
C1032 C1034 1.419 . S
C1032 H1036 0.930 . S
C1033 C1032 1.369 . S
C1033 C1042 1.429 . S
C1034 C1032 1.419 . S
C1034 C1035 1.363 . S
C1034 H1037 0.929 . S
C1035 C1034 1.363 . S
C1035 C1041 1.428 . S
H1036 C1032 0.930 . S
H1037 C1034 0.929 . S
S1038 N1039 1.613 . S
S1038 N1040 1.610 . S
N1039 S1038 1.613 . S
N1039 C1042 1.350 . S
N1040 S1038 1.610 . S
N1040 C1041 1.351 . S
C1041 C1035 1.428 . S
C1041 N1040 1.351 . S
C1041 C1042 1.434 . S
C1042 C1033 1.429 . S
C1042 N1039 1.350 . S
C1042 C1041 1.434 . S
C1043 C1044 1.369 . S
C1043 C1045 1.419 . S
C1043 H1047 0.930 . S
C1044 C1043 1.369 . S
C1044 C1053 1.429 . S
C1045 C1043 1.419 . S
C1045 C1046 1.363 . S
C1045 H1048 0.929 . S
C1046 C1045 1.363 . S
C1046 C1052 1.428 . S
H1047 C1043 0.930 . S
H1048 C1045 0.929 . S
S1049 N1050 1.613 . S
S1049 N1051 1.610 . S
N1050 S1049 1.613 . S
N1050 C1053 1.350 . S
N1051 S1049 1.610 . S
N1051 C1052 1.351 . S
C1052 C1046 1.428 . S
C1052 N1051 1.351 . S
C1052 C1053 1.434 . S
C1053 C1044 1.429 . S
C1053 N1050 1.350 . S
C1053 C1052 1.434 . S
C1054 C1055 1.369 . S
C1054 C1056 1.419 . S
C1054 H1058 0.930 . S
C1055 C1054 1.369 . S
C1055 C1064 1.429 . S
C1056 C1054 1.419 . S
C1056 C1057 1.363 . S
C1056 H1059 0.929 . S
C1057 C1056 1.363 . S
C1057 C1063 1.428 . S
H1058 C1054 0.930 . S
H1059 C1056 0.929 . S
S1060 N1061 1.613 . S
S1060 N1062 1.610 . S
N1061 S1060 1.613 . S
N1061 C1064 1.350 . S
N1062 S1060 1.610 . S
N1062 C1063 1.351 . S
C1063 C1057 1.428 . S
C1063 N1062 1.351 . S
C1063 C1064 1.434 . S
C1064 C1055 1.429 . S
C1064 N1061 1.350 . S
C1064 C1063 1.434 . S
C1065 C1066 1.369 . S
C1065 C1067 1.419 . S
C1065 H1069 0.930 . S
C1066 C1065 1.369 . S
C1066 C1075 1.429 . S
C1067 C1065 1.419 . S
C1067 C1068 1.363 . S
C1067 H1070 0.938 . S
C1068 C1067 1.363 . S
C1068 C1074 1.428 . S
H1069 C1065 0.930 . S
H1070 C1067 0.938 . S
S1071 N1072 1.613 . S
S1071 N1073 1.610 . S
N1072 S1071 1.613 . S
N1072 C1075 1.350 . S
N1073 S1071 1.610 . S
N1073 C1074 1.351 . S
C1074 C1068 1.428 . S
C1074 N1073 1.351 . S
C1074 C1075 1.434 . S
C1075 C1066 1.429 . S
C1075 N1072 1.350 . S
C1075 C1074 1.434 . S
C1076 C1077 1.369 . S
C1076 C1078 1.419 . S
C1076 H1080 0.930 . S
C1077 C1076 1.369 . S
C1077 C1086 1.429 . S
C1078 C1076 1.419 . S
C1078 C1079 1.363 . S
C1078 H1081 0.929 . S
C1079 C1078 1.363 . S
C1079 C1085 1.428 . S
H1080 C1076 0.930 . S
H1081 C1078 0.929 . S
S1082 N1083 1.613 . S
S1082 N1084 1.610 . S
N1083 S1082 1.613 . S
N1083 C1086 1.350 . S
N1084 S1082 1.610 . S
N1084 C1085 1.351 . S
C1085 C1079 1.428 . S
C1085 N1084 1.351 . S
C1085 C1086 1.434 . S
C1086 C1077 1.429 . S
C1086 N1083 1.350 . S
C1086 C1085 1.434 . S
C1087 C1088 1.369 . S
C1087 C1089 1.419 . S
C1087 H1091 0.930 . S
C1088 C1087 1.369 . S
C1088 C1097 1.429 . S
C1089 C1087 1.419 . S
C1089 C1090 1.363 . S
C1089 H1092 0.929 . S
C1090 C1089 1.363 . S
C1090 C1096 1.428 . S
H1091 C1087 0.930 . S
H1092 C1089 0.929 . S
S1093 N1094 1.613 . S
S1093 N1095 1.610 . S
N1094 S1093 1.613 . S
N1094 C1097 1.350 . S
N1095 S1093 1.610 . S
N1095 C1096 1.351 . S
C1096 C1090 1.428 . S
C1096 N1095 1.351 . S
C1096 C1097 1.434 . S
C1097 C1088 1.429 . S
C1097 N1094 1.350 . S
C1097 C1096 1.434 . S
C1098 C1099 1.369 . S
C1098 C1100 1.419 . S
C1098 H1102 0.930 . S
C1099 C1098 1.369 . S
C1099 C1108 1.429 . S
C1100 C1098 1.419 . S
C1100 C1101 1.363 . S
C1100 H1103 0.929 . S
C1101 C1100 1.363 . S
C1101 C1107 1.428 . S
H1102 C1098 0.930 . S
H1103 C1100 0.929 . S
S1104 N1105 1.613 . S
S1104 N1106 1.610 . S
N1105 S1104 1.613 . S
N1105 C1108 1.350 . S
N1106 S1104 1.610 . S
N1106 C1107 1.351 . S
C1107 C1101 1.428 . S
C1107 N1106 1.351 . S
C1107 C1108 1.434 . S
C1108 C1099 1.429 . S
C1108 N1105 1.350 . S
C1108 C1107 1.434 . S
C1109 C1110 1.369 . S
C1109 C1111 1.419 . S
C1109 H1113 0.930 . S
C1110 C1109 1.369 . S
C1110 C1119 1.429 . S
C1111 C1109 1.419 . S
C1111 C1112 1.363 . S
C1111 H1114 0.929 . S
C1112 C1111 1.363 . S
C1112 C1118 1.428 . S
H1113 C1109 0.930 . S
H1114 C1111 0.929 . S
S1115 N1116 1.613 . S
S1115 N1117 1.610 . S
N1116 S1115 1.613 . S
N1116 C1119 1.350 . S
N1117 S1115 1.610 . S
N1117 C1118 1.351 . S
C1118 C1112 1.428 . S
C1118 N1117 1.351 . S
C1118 C1119 1.434 . S
C1119 C1110 1.429 . S
C1119 N1116 1.350 . S
C1119 C1118 1.434 . S
C1120 C1121 1.369 . S
C1120 C1122 1.419 . S
C1120 H1124 0.930 . S
C1121 C1120 1.369 . S
C1121 C1130 1.429 . S
C1122 C1120 1.419 . S
C1122 C1123 1.363 . S
C1122 H1125 0.929 . S
C1123 C1122 1.363 . S
C1123 C1129 1.428 . S
H1124 C1120 0.930 . S
H1125 C1122 0.929 . S
S1126 N1127 1.613 . S
S1126 N1128 1.610 . S
N1127 S1126 1.613 . S
N1127 C1130 1.350 . S
N1128 S1126 1.610 . S
N1128 C1129 1.351 . S
C1129 C1123 1.428 . S
C1129 N1128 1.351 . S
C1129 C1130 1.434 . S
C1130 C1121 1.429 . S
C1130 N1127 1.350 . S
C1130 C1129 1.434 . S
C1131 C1132 1.369 . S
C1131 C1133 1.419 . S
C1131 H1135 0.930 . S
C1132 C1131 1.369 . S
C1132 C1141 1.395 1_554 S
C1133 C1131 1.419 . S
C1133 C1134 1.363 . S
C1133 H1136 0.929 . S
C1134 C1133 1.363 . S
C1134 C1140 1.428 1_554 S
H1135 C1131 0.930 . S
H1136 C1133 0.929 . S
S1137 N1138 1.613 . S
S1137 N1139 1.610 . S
N1138 S1137 1.613 . S
N1138 C1141 1.376 . S
N1139 S1137 1.610 . S
N1139 C1140 1.351 . S
C1140 C1134 1.428 1_556 S
C1140 N1139 1.351 . S
C1140 C1141 1.445 . S
C1141 C1132 1.395 1_556 S
C1141 N1138 1.376 . S
C1141 C1140 1.445 . S
C1142 C1143 1.369 . S
C1142 C1144 1.419 . S
C1142 H1146 0.930 . S
C1143 C1142 1.369 . S
C1143 C1152 1.429 . S
C1144 C1142 1.419 . S
C1144 C1145 1.363 . S
C1144 H1147 0.929 . S
C1145 C1144 1.363 . S
C1145 C1151 1.428 . S
H1146 C1142 0.930 . S
H1147 C1144 0.929 . S
S1148 N1149 1.613 . S
S1148 N1150 1.610 . S
N1149 S1148 1.613 . S
N1149 C1152 1.350 . S
N1150 S1148 1.610 . S
N1150 C1151 1.351 . S
C1151 C1145 1.428 . S
C1151 N1150 1.351 . S
C1151 C1152 1.434 . S
C1152 C1143 1.429 . S
C1152 N1149 1.350 . S
C1152 C1151 1.434 . S
C1153 C1154 1.369 1_655 S
C1153 C1155 1.419 . S
C1153 H1157 0.930 . S
C1154 C1153 1.369 1_455 S
C1154 C1163 1.429 . S
C1155 C1153 1.419 . S
C1155 C1156 1.363 . S
C1155 H1158 0.929 . S
C1156 C1155 1.363 . S
C1156 C1162 1.428 . S
H1157 C1153 0.930 . S
H1158 C1155 0.929 . S
S1159 N1160 1.613 . S
S1159 N1161 1.610 1_455 S
N1160 S1159 1.613 . S
N1160 C1163 1.350 . S
N1161 S1159 1.610 1_655 S
N1161 C1162 1.351 . S
C1162 C1156 1.428 . S
C1162 N1161 1.351 . S
C1162 C1163 1.434 1_655 S
C1163 C1154 1.429 . S
C1163 N1160 1.350 . S
C1163 C1162 1.434 1_455 S
C1164 C1165 1.369 . S
C1164 C1166 1.419 . S
C1164 H1168 0.930 . S
C1165 C1164 1.369 . S
C1165 C1174 1.429 . S
C1166 C1164 1.419 . S
C1166 C1167 1.363 . S
C1166 H1169 0.929 . S
C1167 C1166 1.363 . S
C1167 C1173 1.428 . S
H1168 C1164 0.930 . S
H1169 C1166 0.929 . S
S1170 N1171 1.613 . S
S1170 N1172 1.610 . S
N1171 S1170 1.613 . S
N1171 C1174 1.350 . S
N1172 S1170 1.610 . S
N1172 C1173 1.351 . S
C1173 C1167 1.428 . S
C1173 N1172 1.351 . S
C1173 C1174 1.434 . S
C1174 C1165 1.429 . S
C1174 N1171 1.350 . S
C1174 C1173 1.434 . S
C1175 C1176 1.369 . S
C1175 C1177 1.419 1_655 S
C1175 H1179 0.930 . S
C1176 C1175 1.369 . S
C1176 C1185 1.429 . S
C1177 C1175 1.419 1_455 S
C1177 C1178 1.363 . S
C1177 H1180 0.929 . S
C1178 C1177 1.363 . S
C1178 C1184 1.428 1_456 S
H1179 C1175 0.930 . S
H1180 C1177 0.929 . S
S1181 N1182 1.613 . S
S1181 N1183 1.610 . S
N1182 S1181 1.613 . S
N1182 C1185 1.350 1_554 S
N1183 S1181 1.610 . S
N1183 C1184 1.351 . S
C1184 C1178 1.428 1_654 S
C1184 N1183 1.351 . S
C1184 C1185 1.434 1_554 S
C1185 C1176 1.429 . S
C1185 N1182 1.350 1_556 S
C1185 C1184 1.434 1_556 S
C1186 C1187 1.369 . S
C1186 C1188 1.419 . S
C1186 H1190 0.930 . S
C1187 C1186 1.369 . S
C1187 C1196 1.429 . S
C1188 C1186 1.419 . S
C1188 C1189 1.363 . S
C1188 H1191 0.929 . S
C1189 C1188 1.363 . S
C1189 C1195 1.428 . S
H1190 C1186 0.930 . S
H1191 C1188 0.929 . S
S1192 N1193 1.613 . S
S1192 N1194 1.610 . S
N1193 S1192 1.613 . S
N1193 C1196 1.350 . S
N1194 S1192 1.610 . S
N1194 C1195 1.351 . S
C1195 C1189 1.428 . S
C1195 N1194 1.351 . S
C1195 C1196 1.434 . S
C1196 C1187 1.429 . S
C1196 N1193 1.350 . S
C1196 C1195 1.434 . S
C1197 C1198 1.369 . S
C1197 C1199 1.419 . S
C1197 H1201 0.930 . S
C1198 C1197 1.369 . S
C1198 C1207 1.429 . S
C1199 C1197 1.419 . S
C1199 C1200 1.363 . S
C1199 H1202 0.929 . S
C1200 C1199 1.363 . S
C1200 C1206 1.428 . S
H1201 C1197 0.930 . S
H1202 C1199 0.929 . S
S1203 N1204 1.613 . S
S1203 N1205 1.610 . S
N1204 S1203 1.613 . S
N1204 C1207 1.350 . S
N1205 S1203 1.610 . S
N1205 C1206 1.351 . S
C1206 C1200 1.428 . S
C1206 N1205 1.351 . S
C1206 C1207 1.434 . S
C1207 C1198 1.429 . S
C1207 N1204 1.350 . S
C1207 C1206 1.434 . S
C1208 C1209 1.369 . S
C1208 C1210 1.419 . S
C1208 H1212 0.930 . S
C1209 C1208 1.369 . S
C1209 C1218 1.429 . S
C1210 C1208 1.419 . S
C1210 C1211 1.363 . S
C1210 H1213 0.929 . S
C1211 C1210 1.363 . S
C1211 C1217 1.428 . S
H1212 C1208 0.930 . S
H1213 C1210 0.929 . S
S1214 N1215 1.613 . S
S1214 N1216 1.610 . S
N1215 S1214 1.613 . S
N1215 C1218 1.350 . S
N1216 S1214 1.610 . S
N1216 C1217 1.351 . S
C1217 C1211 1.428 . S
C1217 N1216 1.351 . S
C1217 C1218 1.434 . S
C1218 C1209 1.429 . S
C1218 N1215 1.350 . S
C1218 C1217 1.434 . S
C1219 C1220 1.369 . S
C1219 C1221 1.419 . S
C1219 H1223 0.930 . S
C1220 C1219 1.369 . S
C1220 C1229 1.429 . S
C1221 C1219 1.419 . S
C1221 C1222 1.363 . S
C1221 H1224 0.929 . S
C1222 C1221 1.363 . S
C1222 C1228 1.428 . S
H1223 C1219 0.930 . S
H1224 C1221 0.929 . S
S1225 N1226 1.613 . S
S1225 N1227 1.610 . S
N1226 S1225 1.613 . S
N1226 C1229 1.350 . S
N1227 S1225 1.610 . S
N1227 C1228 1.351 . S
C1228 C1222 1.428 . S
C1228 N1227 1.351 . S
C1228 C1229 1.434 . S
C1229 C1220 1.429 . S
C1229 N1226 1.350 . S
C1229 C1228 1.434 . S
C1230 C1231 1.369 1_565 S
C1230 C1232 1.419 . S
C1230 H1234 0.930 . S
C1231 C1230 1.369 1_545 S
C1231 C1240 1.429 . S
C1232 C1230 1.419 . S
C1232 C1233 1.363 . S
C1232 H1235 0.929 . S
C1233 C1232 1.363 . S
C1233 C1239 1.428 1_565 S
H1234 C1230 0.930 . S
H1235 C1232 0.929 . S
S1236 N1237 1.613 . S
S1236 N1238 1.610 . S
N1237 S1236 1.613 . S
N1237 C1240 1.350 . S
N1238 S1236 1.610 . S
N1238 C1239 1.351 . S
C1239 C1233 1.428 1_545 S
C1239 N1238 1.351 . S
C1239 C1240 1.434 . S
C1240 C1231 1.429 . S
C1240 N1237 1.350 . S
C1240 C1239 1.434 . S
C1241 C1242 1.369 . S
C1241 C1243 1.419 . S
C1241 H1245 0.930 . S
C1242 C1241 1.369 . S
C1242 C1251 1.429 . S
C1243 C1241 1.419 . S
C1243 C1244 1.363 . S
C1243 H1246 0.929 . S
C1244 C1243 1.363 . S
C1244 C1250 1.428 . S
H1245 C1241 0.930 . S
H1246 C1243 0.929 . S
S1247 N1248 1.613 . S
S1247 N1249 1.610 . S
N1248 S1247 1.613 . S
N1248 C1251 1.350 . S
N1249 S1247 1.610 . S
N1249 C1250 1.351 . S
C1250 C1244 1.428 . S
C1250 N1249 1.351 . S
C1250 C1251 1.434 . S
C1251 C1242 1.429 . S
C1251 N1248 1.350 . S
C1251 C1250 1.434 . S
C1252 C1253 1.369 . S
C1252 C1254 1.419 . S
C1252 H1256 0.930 . S
C1253 C1252 1.369 . S
C1253 C1262 1.429 . S
C1254 C1252 1.419 . S
C1254 C1255 1.363 . S
C1254 H1257 0.929 . S
C1255 C1254 1.363 . S
C1255 C1261 1.428 . S
H1256 C1252 0.930 . S
H1257 C1254 0.929 . S
S1258 N1259 1.613 . S
S1258 N1260 1.610 . S
N1259 S1258 1.613 . S
N1259 C1262 1.350 . S
N1260 S1258 1.610 . S
N1260 C1261 1.351 . S
C1261 C1255 1.428 . S
C1261 N1260 1.351 . S
C1261 C1262 1.434 . S
C1262 C1253 1.429 . S
C1262 N1259 1.350 . S
C1262 C1261 1.434 . S
C1263 C1264 1.369 . S
C1263 C1265 1.419 . S
C1263 H1267 0.930 . S
C1264 C1263 1.369 . S
C1264 C1273 1.429 . S
C1265 C1263 1.419 . S
C1265 C1266 1.363 . S
C1265 H1268 0.929 . S
C1266 C1265 1.363 . S
C1266 C1272 1.428 . S
H1267 C1263 0.930 . S
H1268 C1265 0.929 . S
S1269 N1270 1.613 . S
S1269 N1271 1.610 . S
N1270 S1269 1.613 . S
N1270 C1273 1.350 . S
N1271 S1269 1.610 . S
N1271 C1272 1.351 . S
C1272 C1266 1.428 . S
C1272 N1271 1.351 . S
C1272 C1273 1.434 . S
C1273 C1264 1.429 . S
C1273 N1270 1.350 . S
C1273 C1272 1.434 . S
C1274 C1275 1.369 . S
C1274 C1276 1.419 1_565 S
C1274 H1278 0.930 . S
C1275 C1274 1.369 . S
C1275 C1284 1.429 . S
C1276 C1274 1.419 1_545 S
C1276 C1277 1.363 . S
C1276 H1279 0.929 . S
C1277 C1276 1.363 . S
C1277 C1283 1.428 . S
H1278 C1274 0.930 . S
H1279 C1276 0.929 . S
S1280 N1281 1.613 1_554 S
S1280 N1282 1.610 1_565 S
N1281 S1280 1.613 1_556 S
N1281 C1284 1.350 . S
N1282 S1280 1.610 1_545 S
N1282 C1283 1.351 1_554 S
C1283 C1277 1.428 . S
C1283 N1282 1.351 1_556 S
C1283 C1284 1.434 1_545 S
C1284 C1275 1.429 . S
C1284 N1281 1.350 . S
C1284 C1283 1.434 1_565 S
C1285 C1286 1.369 . S
C1285 C1287 1.419 . S
C1285 H1289 0.930 . S
C1286 C1285 1.369 . S
C1286 C1295 1.429 . S
C1287 C1285 1.419 . S
C1287 C1288 1.363 . S
C1287 H1290 0.929 . S
C1288 C1287 1.363 . S
C1288 C1294 1.428 . S
H1289 C1285 0.930 . S
H1290 C1287 0.929 . S
S1291 N1292 1.613 . S
S1291 N1293 1.610 . S
N1292 S1291 1.613 . S
N1292 C1295 1.350 . S
N1293 S1291 1.610 . S
N1293 C1294 1.351 . S
C1294 C1288 1.428 . S
C1294 N1293 1.351 . S
C1294 C1295 1.434 . S
C1295 C1286 1.429 . S
C1295 N1292 1.350 . S
C1295 C1294 1.434 . S
C1296 C1297 1.369 . S
C1296 C1298 1.419 . S
C1296 H1300 0.930 . S
C1297 C1296 1.369 . S
C1297 C1306 1.429 . S
C1298 C1296 1.419 . S
C1298 C1299 1.363 . S
C1298 H1301 0.929 . S
C1299 C1298 1.363 . S
C1299 C1305 1.428 . S
H1300 C1296 0.930 . S
H1301 C1298 0.929 . S
S1302 N1303 1.613 . S
S1302 N1304 1.610 . S
N1303 S1302 1.613 . S
N1303 C1306 1.350 . S
N1304 S1302 1.610 . S
N1304 C1305 1.351 . S
C1305 C1299 1.428 . S
C1305 N1304 1.351 . S
C1305 C1306 1.434 . S
C1306 C1297 1.429 . S
C1306 N1303 1.350 . S
C1306 C1305 1.434 . S
C1307 C1308 1.369 . S
C1307 C1309 1.419 1_455 S
C1307 H1311 0.930 . S
C1308 C1307 1.369 . S
C1308 C1317 1.429 . S
C1309 C1307 1.419 1_655 S
C1309 C1310 1.363 . S
C1309 H1312 0.929 . S
C1310 C1309 1.363 . S
C1310 C1316 1.428 . S
H1311 C1307 0.930 . S
H1312 C1309 0.929 . S
S1313 N1314 1.613 1_655 S
S1313 N1315 1.610 . S
N1314 S1313 1.613 1_455 S
N1314 C1317 1.350 . S
N1315 S1313 1.610 . S
N1315 C1316 1.351 . S
C1316 C1310 1.428 . S
C1316 N1315 1.351 . S
C1316 C1317 1.434 1_655 S
C1317 C1308 1.429 . S
C1317 N1314 1.350 . S
C1317 C1316 1.434 1_455 S
C1318 C1319 1.369 . S
C1318 C1320 1.419 1_554 S
C1318 H1322 0.930 . S
C1319 C1318 1.369 . S
C1319 C1328 1.429 . S
C1320 C1318 1.419 1_556 S
C1320 C1321 1.363 . S
C1320 H1323 0.929 . S
C1321 C1320 1.363 . S
C1321 C1327 1.428 . S
H1322 C1318 0.930 . S
H1323 C1320 0.929 . S
S1324 N1325 1.606 1_556 S
S1324 N1326 1.617 . S
N1325 S1324 1.606 1_554 S
N1325 C1328 1.350 . S
N1326 S1324 1.617 . S
N1326 C1327 1.351 . S
C1327 C1321 1.428 . S
C1327 N1326 1.351 . S
C1327 C1328 1.434 1_556 S
C1328 C1319 1.429 . S
C1328 N1325 1.350 . S
C1328 C1327 1.434 1_554 S
C1329 C1330 1.369 . S
C1329 C1331 1.419 . S
C1329 H1333 0.930 . S
C1330 C1329 1.369 . S
C1330 C1339 1.429 . S
C1331 C1329 1.419 . S
C1331 C1332 1.363 . S
C1331 H1334 0.929 . S
C1332 C1331 1.363 . S
C1332 C1338 1.428 . S
H1333 C1329 0.930 . S
H1334 C1331 0.929 . S
S1335 N1336 1.613 . S
S1335 N1337 1.610 . S
N1336 S1335 1.613 . S
N1336 C1339 1.350 . S
N1337 S1335 1.610 . S
N1337 C1338 1.351 . S
C1338 C1332 1.428 . S
C1338 N1337 1.351 . S
C1338 C1339 1.434 . S
C1339 C1330 1.429 . S
C1339 N1336 1.350 . S
C1339 C1338 1.434 . S
C1340 C1341 1.369 . S
C1340 C1342 1.435 . S
C1340 H1344 0.930 . S
C1341 C1340 1.369 . S
C1341 C1350 1.429 1_556 S
C1342 C1340 1.435 . S
C1342 C1343 1.345 1_556 S
C1342 H1345 0.931 . S
C1343 C1342 1.345 1_554 S
C1343 C1349 1.428 . S
H1344 C1340 0.930 . S
H1345 C1342 0.931 . S
S1346 N1347 1.613 . S
S1346 N1348 1.610 . S
N1347 S1346 1.613 . S
N1347 C1350 1.350 . S
N1348 S1346 1.610 . S
N1348 C1349 1.351 . S
C1349 C1343 1.428 . S
C1349 N1348 1.351 . S
C1349 C1350 1.434 . S
C1350 C1341 1.429 1_554 S
C1350 N1347 1.350 . S
C1350 C1349 1.434 . S
C1351 C1352 1.369 . S
C1351 C1353 1.419 . S
C1351 H1355 0.930 . S
C1352 C1351 1.369 . S
C1352 C1361 1.429 . S
C1353 C1351 1.419 . S
C1353 C1354 1.363 . S
C1353 H1356 0.929 . S
C1354 C1353 1.363 . S
C1354 C1360 1.428 . S
H1355 C1351 0.930 . S
H1356 C1353 0.929 . S
S1357 N1358 1.613 . S
S1357 N1359 1.610 . S
N1358 S1357 1.613 . S
N1358 C1361 1.350 . S
N1359 S1357 1.610 . S
N1359 C1360 1.351 . S
C1360 C1354 1.428 . S
C1360 N1359 1.351 . S
C1360 C1361 1.434 . S
C1361 C1352 1.429 . S
C1361 N1358 1.350 . S
C1361 C1360 1.434 . S
C1362 C1363 1.369 . S
C1362 C1364 1.419 . S
C1362 H1366 0.930 . S
C1363 C1362 1.369 . S
C1363 C1372 1.429 . S
C1364 C1362 1.419 . S
C1364 C1365 1.363 . S
C1364 H1367 0.929 . S
C1365 C1364 1.363 . S
C1365 C1371 1.428 . S
H1366 C1362 0.930 . S
H1367 C1364 0.929 . S
S1368 N1369 1.613 . S
S1368 N1370 1.610 . S
N1369 S1368 1.613 . S
N1369 C1372 1.350 . S
N1370 S1368 1.610 . S
N1370 C1371 1.351 . S
C1371 C1365 1.428 . S
C1371 N1370 1.351 . S
C1371 C1372 1.434 . S
C1372 C1363 1.429 . S
C1372 N1369 1.350 . S
C1372 C1371 1.434 . S
C1373 C1374 1.369 1_455 S
C1373 C1375 1.419 . S
C1373 H1377 0.930 . S
C1374 C1373 1.369 1_655 S
C1374 C1383 1.429 . S
C1375 C1373 1.419 . S
C1375 C1376 1.363 . S
C1375 H1378 0.929 . S
C1376 C1375 1.363 . S
C1376 C1382 1.428 1_455 S
H1377 C1373 0.930 . S
H1378 C1375 0.929 . S
S1379 N1380 1.613 . S
S1379 N1381 1.610 . S
N1380 S1379 1.613 . S
N1380 C1383 1.350 . S
N1381 S1379 1.610 . S
N1381 C1382 1.351 . S
C1382 C1376 1.428 1_655 S
C1382 N1381 1.351 . S
C1382 C1383 1.434 . S
C1383 C1374 1.429 . S
C1383 N1380 1.350 . S
C1383 C1382 1.434 . S
C1384 C1385 1.369 . S
C1384 C1386 1.419 . S
C1384 H1388 0.930 . S
C1385 C1384 1.369 . S
C1385 C1394 1.429 . S
C1386 C1384 1.419 . S
C1386 C1387 1.363 . S
C1386 H1389 0.929 . S
C1387 C1386 1.363 . S
C1387 C1393 1.428 . S
H1388 C1384 0.930 . S
H1389 C1386 0.929 . S
S1390 N1391 1.613 . S
S1390 N1392 1.610 . S
N1391 S1390 1.613 . S
N1391 C1394 1.350 . S
N1392 S1390 1.610 . S
N1392 C1393 1.351 . S
C1393 C1387 1.428 . S
C1393 N1392 1.351 . S
C1393 C1394 1.434 . S
C1394 C1385 1.429 . S
C1394 N1391 1.350 . S
C1394 C1393 1.434 . S
C1395 C1396 1.369 . S
C1395 C1397 1.419 1_545 S
C1395 H1399 0.930 . S
C1396 C1395 1.369 . S
C1396 C1405 1.429 1_545 S
C1397 C1395 1.419 1_565 S
C1397 C1398 1.363 . S
C1397 H1400 0.933 . S
C1398 C1397 1.363 . S
C1398 C1404 1.428 . S
H1399 C1395 0.930 . S
H1400 C1397 0.933 . S
S1401 N1402 1.613 . S
S1401 N1403 1.610 . S
N1402 S1401 1.613 . S
N1402 C1405 1.350 . S
N1403 S1401 1.610 . S
N1403 C1404 1.351 . S
C1404 C1398 1.428 . S
C1404 N1403 1.351 . S
C1404 C1405 1.434 . S
C1405 C1396 1.429 1_565 S
C1405 N1402 1.350 . S
C1405 C1404 1.434 . S
C1406 C1407 1.369 . S
C1406 C1408 1.419 1_545 S
C1406 H1410 0.930 . S
C1407 C1406 1.369 . S
C1407 C1416 1.429 . S
C1408 C1406 1.419 1_565 S
C1408 C1409 1.363 . S
C1408 H1411 0.929 . S
C1409 C1408 1.363 . S
C1409 C1415 1.428 . S
H1410 C1406 0.930 . S
H1411 C1408 0.929 . S
S1412 N1413 1.613 1_565 S
S1412 N1414 1.610 . S
N1413 S1412 1.613 1_545 S
N1413 C1416 1.350 . S
N1414 S1412 1.610 . S
N1414 C1415 1.351 . S
C1415 C1409 1.428 . S
C1415 N1414 1.351 . S
C1415 C1416 1.434 1_565 S
C1416 C1407 1.429 . S
C1416 N1413 1.350 . S
C1416 C1415 1.434 1_545 S
C1417 C1418 1.369 . S
C1417 C1419 1.419 1_565 S
C1417 H1421 0.930 . S
C1418 C1417 1.369 . S
C1418 C1427 1.429 1_565 S
C1419 C1417 1.419 1_545 S
C1419 C1420 1.363 . S
C1419 H1422 0.929 1_545 S
C1420 C1419 1.363 . S
C1420 C1426 1.428 . S
H1421 C1417 0.930 . S
H1422 C1419 0.929 1_565 S
S1423 N1424 1.613 . S
S1423 N1425 1.610 . S
N1424 S1423 1.613 . S
N1424 C1427 1.350 . S
N1425 S1423 1.610 . S
N1425 C1426 1.351 . S
C1426 C1420 1.428 . S
C1426 N1425 1.351 . S
C1426 C1427 1.434 . S
C1427 C1418 1.429 1_545 S
C1427 N1424 1.350 . S
C1427 C1426 1.434 . S
C1428 C1429 1.369 . S
C1428 C1430 1.419 . S
C1428 H1432 0.930 . S
C1429 C1428 1.369 . S
C1429 C1438 1.429 . S
C1430 C1428 1.419 . S
C1430 C1431 1.363 . S
C1430 H1433 0.929 . S
C1431 C1430 1.363 . S
C1431 C1437 1.428 . S
H1432 C1428 0.930 . S
H1433 C1430 0.929 . S
S1434 N1435 1.613 . S
S1434 N1436 1.610 . S
N1435 S1434 1.613 . S
N1435 C1438 1.350 . S
N1436 S1434 1.610 . S
N1436 C1437 1.351 . S
C1437 C1431 1.428 . S
C1437 N1436 1.351 . S
C1437 C1438 1.434 . S
C1438 C1429 1.429 . S
C1438 N1435 1.350 . S
C1438 C1437 1.434 . S
C1439 C1440 1.369 . S
C1439 C1441 1.419 . S
C1439 H1443 0.930 . S
C1440 C1439 1.369 . S
C1440 C1449 1.429 . S
C1441 C1439 1.419 . S
C1441 C1442 1.363 . S
C1441 H1444 0.929 . S
C1442 C1441 1.363 . S
C1442 C1448 1.428 . S
H1443 C1439 0.930 . S
H1444 C1441 0.929 . S
S1445 N1446 1.613 . S
S1445 N1447 1.610 . S
N1446 S1445 1.613 . S
N1446 C1449 1.350 . S
N1447 S1445 1.610 . S
N1447 C1448 1.351 . S
C1448 C1442 1.428 . S
C1448 N1447 1.351 . S
C1448 C1449 1.434 . S
C1449 C1440 1.429 . S
C1449 N1446 1.350 . S
C1449 C1448 1.434 . S
C1450 C1451 1.369 . S
C1450 C1452 1.419 . S
C1450 H1454 0.930 . S
C1451 C1450 1.369 . S
C1451 C1460 1.429 . S
C1452 C1450 1.419 . S
C1452 C1453 1.363 . S
C1452 H1455 0.929 . S
C1453 C1452 1.363 . S
C1453 C1459 1.428 . S
H1454 C1450 0.930 . S
H1455 C1452 0.929 . S
S1456 N1457 1.613 . S
S1456 N1458 1.610 . S
N1457 S1456 1.613 . S
N1457 C1460 1.350 . S
N1458 S1456 1.610 . S
N1458 C1459 1.351 . S
C1459 C1453 1.428 . S
C1459 N1458 1.351 . S
C1459 C1460 1.434 . S
C1460 C1451 1.429 . S
C1460 N1457 1.350 . S
C1460 C1459 1.434 . S
C1461 C1462 1.369 . S
C1461 C1463 1.419 . S
C1461 H1465 0.930 . S
C1462 C1461 1.369 . S
C1462 C1471 1.429 . S
C1463 C1461 1.419 . S
C1463 C1464 1.363 1_554 S
C1463 H1466 0.929 . S
C1464 C1463 1.363 1_556 S
C1464 C1470 1.428 . S
H1465 C1461 0.930 . S
H1466 C1463 0.929 . S
S1467 N1468 1.613 1_556 S
S1467 N1469 1.610 . S
N1468 S1467 1.613 1_554 S
N1468 C1471 1.350 . S
N1469 S1467 1.610 . S
N1469 C1470 1.351 . S
C1470 C1464 1.428 . S
C1470 N1469 1.351 . S
C1470 C1471 1.434 1_556 S
C1471 C1462 1.429 . S
C1471 N1468 1.350 . S
C1471 C1470 1.434 1_554 S
C1472 C1473 1.369 . S
C1472 C1474 1.419 . S
C1472 H1476 0.930 . S
C1473 C1472 1.369 . S
C1473 C1482 1.429 . S
C1474 C1472 1.419 . S
C1474 C1475 1.363 . S
C1474 H1477 0.929 . S
C1475 C1474 1.363 . S
C1475 C1481 1.428 . S
H1476 C1472 0.930 . S
H1477 C1474 0.929 . S
S1478 N1479 1.613 . S
S1478 N1480 1.610 . S
N1479 S1478 1.613 . S
N1479 C1482 1.350 . S
N1480 S1478 1.610 . S
N1480 C1481 1.351 . S
C1481 C1475 1.428 . S
C1481 N1480 1.351 . S
C1481 C1482 1.434 . S
C1482 C1473 1.429 . S
C1482 N1479 1.350 . S
C1482 C1481 1.434 . S
C1483 C1484 1.369 . S
C1483 C1485 1.419 . S
C1483 H1487 0.930 . S
C1484 C1483 1.369 . S
C1484 C1493 1.429 . S
C1485 C1483 1.419 . S
C1485 C1486 1.363 . S
C1485 H1488 0.929 . S
C1486 C1485 1.363 . S
C1486 C1492 1.428 . S
H1487 C1483 0.930 . S
H1488 C1485 0.929 . S
S1489 N1490 1.613 . S
S1489 N1491 1.610 . S
N1490 S1489 1.613 . S
N1490 C1493 1.350 . S
N1491 S1489 1.610 . S
N1491 C1492 1.351 . S
C1492 C1486 1.428 . S
C1492 N1491 1.351 . S
C1492 C1493 1.434 . S
C1493 C1484 1.429 . S
C1493 N1490 1.350 . S
C1493 C1492 1.434 . S
C1494 C1495 1.369 . S
C1494 C1496 1.419 1_655 S
C1494 H1498 0.930 . S
C1495 C1494 1.369 . S
C1495 C1504 1.429 . S
C1496 C1494 1.419 1_455 S
C1496 C1497 1.363 . S
C1496 H1499 0.929 . S
C1497 C1496 1.363 . S
C1497 C1503 1.428 . S
H1498 C1494 0.930 . S
H1499 C1496 0.929 . S
S1500 N1501 1.613 . S
S1500 N1502 1.610 1_655 S
N1501 S1500 1.613 . S
N1501 C1504 1.350 . S
N1502 S1500 1.610 1_455 S
N1502 C1503 1.351 . S
C1503 C1497 1.428 . S
C1503 N1502 1.351 . S
C1503 C1504 1.434 1_455 S
C1504 C1495 1.429 . S
C1504 N1501 1.350 . S
C1504 C1503 1.434 1_655 S
C1505 C1506 1.369 . S
C1505 C1507 1.419 . S
C1505 H1509 0.930 . S
C1506 C1505 1.369 . S
C1506 C1515 1.429 . S
C1507 C1505 1.419 . S
C1507 C1508 1.363 . S
C1507 H1510 0.929 . S
C1508 C1507 1.363 . S
C1508 C1514 1.428 . S
H1509 C1505 0.930 . S
H1510 C1507 0.929 . S
S1511 N1512 1.613 . S
S1511 N1513 1.610 . S
N1512 S1511 1.613 . S
N1512 C1515 1.350 . S
N1513 S1511 1.610 . S
N1513 C1514 1.351 . S
C1514 C1508 1.428 . S
C1514 N1513 1.351 . S
C1514 C1515 1.434 . S
C1515 C1506 1.429 . S
C1515 N1512 1.350 . S
C1515 C1514 1.434 . S
C1516 C1517 1.369 . S
C1516 C1518 1.419 . S
C1516 H1520 0.930 . S
C1517 C1516 1.369 . S
C1517 C1526 1.429 1_655 S
C1518 C1516 1.419 . S
C1518 C1519 1.363 1_655 S
C1518 H1521 0.929 . S
C1519 C1518 1.363 1_455 S
C1519 C1525 1.428 . S
H1520 C1516 0.930 . S
H1521 C1518 0.929 . S
S1522 N1523 1.613 . S
S1522 N1524 1.610 . S
N1523 S1522 1.613 . S
N1523 C1526 1.350 . S
N1524 S1522 1.610 . S
N1524 C1525 1.351 . S
C1525 C1519 1.428 . S
C1525 N1524 1.351 . S
C1525 C1526 1.434 . S
C1526 C1517 1.429 1_455 S
C1526 N1523 1.350 . S
C1526 C1525 1.434 . S
C1527 C1528 1.360 1_556 S
C1527 C1529 1.430 . S
C1527 H1531 0.928 1_556 S
C1528 C1527 1.360 1_554 S
C1528 C1537 1.429 . S
C1529 C1527 1.430 . S
C1529 C1530 1.363 . S
C1529 H1532 0.929 . S
C1530 C1529 1.363 . S
C1530 C1536 1.428 . S
H1531 C1527 0.928 1_554 S
H1532 C1529 0.929 . S
S1533 N1534 1.613 . S
S1533 N1535 1.610 1_554 S
N1534 S1533 1.613 . S
N1534 C1537 1.350 . S
N1535 S1533 1.610 1_556 S
N1535 C1536 1.351 . S
C1536 C1530 1.428 . S
C1536 N1535 1.351 . S
C1536 C1537 1.434 1_556 S
C1537 C1528 1.429 . S
C1537 N1534 1.350 . S
C1537 C1536 1.434 1_554 S
C1538 C1539 1.369 . S
C1538 C1540 1.419 . S
C1538 H1542 0.930 . S
C1539 C1538 1.369 . S
C1539 C1548 1.429 . S
C1540 C1538 1.419 . S
C1540 C1541 1.363 . S
C1540 H1543 0.929 . S
C1541 C1540 1.363 . S
C1541 C1547 1.428 . S
H1542 C1538 0.930 . S
H1543 C1540 0.929 . S
S1544 N1545 1.613 . S
S1544 N1546 1.610 . S
N1545 S1544 1.613 . S
N1545 C1548 1.350 . S
N1546 S1544 1.610 . S
N1546 C1547 1.351 . S
C1547 C1541 1.428 . S
C1547 N1546 1.351 . S
C1547 C1548 1.434 . S
C1548 C1539 1.429 . S
C1548 N1545 1.350 . S
C1548 C1547 1.434 . S
C1549 C1550 1.369 . S
C1549 C1551 1.419 1_565 S
C1549 H1553 0.930 . S
C1550 C1549 1.369 . S
C1550 C1559 1.429 1_565 S
C1551 C1549 1.419 1_545 S
C1551 C1552 1.363 . S
C1551 H1554 0.929 . S
C1552 C1551 1.363 . S
C1552 C1558 1.428 . S
H1553 C1549 0.930 . S
H1554 C1551 0.929 . S
S1555 N1556 1.613 . S
S1555 N1557 1.610 . S
N1556 S1555 1.613 . S
N1556 C1559 1.350 . S
N1557 S1555 1.610 . S
N1557 C1558 1.351 . S
C1558 C1552 1.428 . S
C1558 N1557 1.351 . S
C1558 C1559 1.434 . S
C1559 C1550 1.429 1_545 S
C1559 N1556 1.350 . S
C1559 C1558 1.434 . S
C1560 C1561 1.369 . S
C1560 C1562 1.419 . S
C1560 H1564 0.930 . S
C1561 C1560 1.369 . S
C1561 C1570 1.429 . S
C1562 C1560 1.419 . S
C1562 C1563 1.363 . S
C1562 H1565 0.929 . S
C1563 C1562 1.363 . S
C1563 C1569 1.428 . S
H1564 C1560 0.930 . S
H1565 C1562 0.929 . S
S1566 N1567 1.613 . S
S1566 N1568 1.610 . S
N1567 S1566 1.613 . S
N1567 C1570 1.350 . S
N1568 S1566 1.610 . S
N1568 C1569 1.351 . S
C1569 C1563 1.428 . S
C1569 N1568 1.351 . S
C1569 C1570 1.434 . S
C1570 C1561 1.429 . S
C1570 N1567 1.350 . S
C1570 C1569 1.434 . S
C1571 C1572 1.369 . S
C1571 C1573 1.419 . S
C1571 H1575 0.930 . S
C1572 C1571 1.369 . S
C1572 C1581 1.429 . S
C1573 C1571 1.419 . S
C1573 C1574 1.363 . S
C1573 H1576 0.929 . S
C1574 C1573 1.363 . S
C1574 C1580 1.428 . S
H1575 C1571 0.930 . S
H1576 C1573 0.929 . S
S1577 N1578 1.613 . S
S1577 N1579 1.610 . S
N1578 S1577 1.613 . S
N1578 C1581 1.350 . S
N1579 S1577 1.610 . S
N1579 C1580 1.351 . S
C1580 C1574 1.428 . S
C1580 N1579 1.351 . S
C1580 C1581 1.434 . S
C1581 C1572 1.429 . S
C1581 N1578 1.350 . S
C1581 C1580 1.434 . S
C1582 C1583 1.369 . S
C1582 C1584 1.419 . S
C1582 H1586 0.930 . S
C1583 C1582 1.369 . S
C1583 C1592 1.429 . S
C1584 C1582 1.419 . S
C1584 C1585 1.363 . S
C1584 H1587 0.929 . S
C1585 C1584 1.363 . S
C1585 C1591 1.428 . S
H1586 C1582 0.930 . S
H1587 C1584 0.929 . S
S1588 N1589 1.613 . S
S1588 N1590 1.610 . S
N1589 S1588 1.613 . S
N1589 C1592 1.350 . S
N1590 S1588 1.610 . S
N1590 C1591 1.351 . S
C1591 C1585 1.428 . S
C1591 N1590 1.351 . S
C1591 C1592 1.434 . S
C1592 C1583 1.429 . S
C1592 N1589 1.350 . S
C1592 C1591 1.434 . S
C1593 C1594 1.369 . S
C1593 C1595 1.419 . S
C1593 H1597 0.930 . S
C1594 C1593 1.369 . S
C1594 C1603 1.429 1_556 S
C1595 C1593 1.419 . S
C1595 C1596 1.363 1_556 S
C1595 H1598 0.929 . S
C1596 C1595 1.363 1_554 S
C1596 C1602 1.428 . S
H1597 C1593 0.930 . S
H1598 C1595 0.929 . S
S1599 N1600 1.613 . S
S1599 N1601 1.610 . S
N1600 S1599 1.613 . S
N1600 C1603 1.350 . S
N1601 S1599 1.610 . S
N1601 C1602 1.351 . S
C1602 C1596 1.428 . S
C1602 N1601 1.351 . S
C1602 C1603 1.434 . S
C1603 C1594 1.429 1_554 S
C1603 N1600 1.350 . S
C1603 C1602 1.434 . S
C1604 C1605 1.369 . S
C1604 C1606 1.419 . S
C1604 H1608 0.930 . S
C1605 C1604 1.369 . S
C1605 C1614 1.429 . S
C1606 C1604 1.419 . S
C1606 C1607 1.363 . S
C1606 H1609 0.929 . S
C1607 C1606 1.363 . S
C1607 C1613 1.428 . S
H1608 C1604 0.930 . S
H1609 C1606 0.929 . S
S1610 N1611 1.613 . S
S1610 N1612 1.610 . S
N1611 S1610 1.613 . S
N1611 C1614 1.350 . S
N1612 S1610 1.610 . S
N1612 C1613 1.351 . S
C1613 C1607 1.428 . S
C1613 N1612 1.351 . S
C1613 C1614 1.434 . S
C1614 C1605 1.429 . S
C1614 N1611 1.350 . S
C1614 C1613 1.434 . S
C1615 C1616 1.369 1_545 S
C1615 C1617 1.419 . S
C1615 H1619 0.930 . S
C1616 C1615 1.369 1_565 S
C1616 C1625 1.429 . S
C1617 C1615 1.419 . S
C1617 C1618 1.363 . S
C1617 H1620 0.929 . S
C1618 C1617 1.363 . S
C1618 C1624 1.428 1_545 S
H1619 C1615 0.930 . S
H1620 C1617 0.929 . S
S1621 N1622 1.613 . S
S1621 N1623 1.610 . S
N1622 S1621 1.613 . S
N1622 C1625 1.350 . S
N1623 S1621 1.610 . S
N1623 C1624 1.351 . S
C1624 C1618 1.428 1_565 S
C1624 N1623 1.351 . S
C1624 C1625 1.434 . S
C1625 C1616 1.429 . S
C1625 N1622 1.350 . S
C1625 C1624 1.434 . S
C1626 C1627 1.341 1_554 S
C1626 C1628 1.444 . S
C1626 H1630 0.934 . S
C1627 C1626 1.341 1_556 S
C1627 C1636 1.429 . S
C1628 C1626 1.444 . S
C1628 C1629 1.363 . S
C1628 H1631 0.929 . S
C1629 C1628 1.363 . S
C1629 C1635 1.428 1_554 S
H1630 C1626 0.934 . S
H1631 C1628 0.929 . S
S1632 N1633 1.613 . S
S1632 N1634 1.610 . S
N1633 S1632 1.613 . S
N1633 C1636 1.350 . S
N1634 S1632 1.610 . S
N1634 C1635 1.351 . S
C1635 C1629 1.428 1_556 S
C1635 N1634 1.351 . S
C1635 C1636 1.434 . S
C1636 C1627 1.429 . S
C1636 N1633 1.350 . S
C1636 C1635 1.434 . S
C1637 C1638 1.369 . S
C1637 C1639 1.419 1_545 S
C1637 H1641 0.930 . S
C1638 C1637 1.369 . S
C1638 C1647 1.429 . S
C1639 C1637 1.419 1_565 S
C1639 C1640 1.363 . S
C1639 H1642 0.929 . S
C1640 C1639 1.363 . S
C1640 C1646 1.428 . S
H1641 C1637 0.930 . S
H1642 C1639 0.929 . S
S1643 N1644 1.613 . S
S1643 N1645 1.610 1_545 S
N1644 S1643 1.613 . S
N1644 C1647 1.350 . S
N1645 S1643 1.610 1_565 S
N1645 C1646 1.351 . S
C1646 C1640 1.428 . S
C1646 N1645 1.351 . S
C1646 C1647 1.434 1_565 S
C1647 C1638 1.429 . S
C1647 N1644 1.350 . S
C1647 C1646 1.434 1_545 S
C1648 C1649 1.369 . S
C1648 C1650 1.419 . S
C1648 H1652 0.930 . S
C1649 C1648 1.369 . S
C1649 C1658 1.429 . S
C1650 C1648 1.419 . S
C1650 C1651 1.363 . S
C1650 H1653 0.929 . S
C1651 C1650 1.363 . S
C1651 C1657 1.428 . S
H1652 C1648 0.930 . S
H1653 C1650 0.929 . S
S1654 N1655 1.613 . S
S1654 N1656 1.610 . S
N1655 S1654 1.613 . S
N1655 C1658 1.350 . S
N1656 S1654 1.610 . S
N1656 C1657 1.351 . S
C1657 C1651 1.428 . S
C1657 N1656 1.351 . S
C1657 C1658 1.434 . S
C1658 C1649 1.429 . S
C1658 N1655 1.350 . S
C1658 C1657 1.434 . S
C1659 C1660 1.369 . S
C1659 C1661 1.440 . S
C1659 H1663 0.930 . S
C1660 C1659 1.369 . S
C1660 C1669 1.429 1_655 S
C1661 C1659 1.440 . S
C1661 C1662 1.338 1_655 S
C1661 H1664 0.934 . S
C1662 C1661 1.338 1_455 S
C1662 C1668 1.428 . S
H1663 C1659 0.930 . S
H1664 C1661 0.934 . S
S1665 N1666 1.613 . S
S1665 N1667 1.610 . S
N1666 S1665 1.613 . S
N1666 C1669 1.350 . S
N1667 S1665 1.610 . S
N1667 C1668 1.351 . S
C1668 C1662 1.428 . S
C1668 N1667 1.351 . S
C1668 C1669 1.434 . S
C1669 C1660 1.429 1_455 S
C1669 N1666 1.350 . S
C1669 C1668 1.434 . S
C1670 C1671 1.369 1_455 S
C1670 C1672 1.419 . S
C1670 H1674 0.930 . S
C1671 C1670 1.369 1_655 S
C1671 C1680 1.429 . S
C1672 C1670 1.419 . S
C1672 C1673 1.363 . S
C1672 H1675 0.929 . S
C1673 C1672 1.363 . S
C1673 C1679 1.428 . S
H1674 C1670 0.930 . S
H1675 C1672 0.929 . S
S1676 N1677 1.613 . S
S1676 N1678 1.610 . S
N1677 S1676 1.613 . S
N1677 C1680 1.350 . S
N1678 S1676 1.610 . S
N1678 C1679 1.351 1_655 S
C1679 C1673 1.428 . S
C1679 N1678 1.351 1_455 S
C1679 C1680 1.434 1_455 S
C1680 C1671 1.429 . S
C1680 N1677 1.350 . S
C1680 C1679 1.434 1_655 S
C1681 C1682 1.369 . S
C1681 C1683 1.419 . S
C1681 H1685 0.930 . S
C1682 C1681 1.369 . S
C1682 C1691 1.429 . S
C1683 C1681 1.419 . S
C1683 C1684 1.363 . S
C1683 H1686 0.929 . S
C1684 C1683 1.363 . S
C1684 C1690 1.428 . S
H1685 C1681 0.930 . S
H1686 C1683 0.929 . S
S1687 N1688 1.613 . S
S1687 N1689 1.610 . S
N1688 S1687 1.613 . S
N1688 C1691 1.350 . S
N1689 S1687 1.610 . S
N1689 C1690 1.351 . S
C1690 C1684 1.428 . S
C1690 N1689 1.351 . S
C1690 C1691 1.434 . S
C1691 C1682 1.429 . S
C1691 N1688 1.350 . S
C1691 C1690 1.434 . S
C1692 C1693 1.369 1_455 S
C1692 C1694 1.419 . S
C1692 H1696 0.930 . S
C1693 C1692 1.369 1_655 S
C1693 C1702 1.429 . S
C1694 C1692 1.419 . S
C1694 C1695 1.363 . S
C1694 H1697 0.929 . S
C1695 C1694 1.363 . S
C1695 C1701 1.428 . S
H1696 C1692 0.930 . S
H1697 C1694 0.929 . S
S1698 N1699 1.613 . S
S1698 N1700 1.610 . S
N1699 S1698 1.613 . S
N1699 C1702 1.350 . S
N1700 S1698 1.610 . S
N1700 C1701 1.351 1_655 S
C1701 C1695 1.428 . S
C1701 N1700 1.351 1_455 S
C1701 C1702 1.434 1_455 S
C1702 C1693 1.429 . S
C1702 N1699 1.350 . S
C1702 C1701 1.434 1_655 S
C1703 C1704 1.369 1_655 S
C1703 C1705 1.419 . S
C1703 H1707 0.930 . S
C1704 C1703 1.369 1_455 S
C1704 C1713 1.429 . S
C1705 C1703 1.419 . S
C1705 C1706 1.363 . S
C1705 H1708 0.929 . S
C1706 C1705 1.363 . S
C1706 C1712 1.428 1_655 S
H1707 C1703 0.930 . S
H1708 C1705 0.929 . S
S1709 N1710 1.613 . S
S1709 N1711 1.610 . S
N1710 S1709 1.613 . S
N1710 C1713 1.350 . S
N1711 S1709 1.610 . S
N1711 C1712 1.351 . S
C1712 C1706 1.428 1_455 S
C1712 N1711 1.351 . S
C1712 C1713 1.434 . S
C1713 C1704 1.429 . S
C1713 N1710 1.350 . S
C1713 C1712 1.434 . S
C1714 C1715 1.369 . S
C1714 C1716 1.419 . S
C1714 H1718 0.930 . S
C1715 C1714 1.369 . S
C1715 C1724 1.429 . S
C1716 C1714 1.419 . S
C1716 C1717 1.363 . S
C1716 H1719 0.929 . S
C1717 C1716 1.363 . S
C1717 C1723 1.428 . S
H1718 C1714 0.930 . S
H1719 C1716 0.929 . S
S1720 N1721 1.613 . S
S1720 N1722 1.610 . S
N1721 S1720 1.613 . S
N1721 C1724 1.350 . S
N1722 S1720 1.610 . S
N1722 C1723 1.351 . S
C1723 C1717 1.428 . S
C1723 N1722 1.351 . S
C1723 C1724 1.434 . S
C1724 C1715 1.429 . S
C1724 N1721 1.350 . S
C1724 C1723 1.434 . S
C1725 C1726 1.369 . S
C1725 C1727 1.419 . S
C1725 H1729 0.930 . S
C1726 C1725 1.369 . S
C1726 C1735 1.429 1_545 S
C1727 C1725 1.419 . S
C1727 C1728 1.363 1_545 S
C1727 H1730 0.929 . S
C1728 C1727 1.363 1_565 S
C1728 C1734 1.428 . S
H1729 C1725 0.930 . S
H1730 C1727 0.929 . S
S1731 N1732 1.613 . S
S1731 N1733 1.610 . S
N1732 S1731 1.613 . S
N1732 C1735 1.350 . S
N1733 S1731 1.610 . S
N1733 C1734 1.351 . S
C1734 C1728 1.428 . S
C1734 N1733 1.351 . S
C1734 C1735 1.434 . S
C1735 C1726 1.429 1_565 S
C1735 N1732 1.350 . S
C1735 C1734 1.434 . S
C1736 C1737 1.366 1_556 S
C1736 C1738 1.421 . S
C1736 H1740 0.931 . S
C1737 C1736 1.366 1_554 S
C1737 C1746 1.429 . S
C1738 C1736 1.421 . S
C1738 C1739 1.363 . S
C1738 H1741 0.929 . S
C1739 C1738 1.363 . S
C1739 C1745 1.428 1_556 S
H1740 C1736 0.931 . S
H1741 C1738 0.929 . S
S1742 N1743 1.613 . S
S1742 N1744 1.610 . S
N1743 S1742 1.613 . S
N1743 C1746 1.350 . S
N1744 S1742 1.610 . S
N1744 C1745 1.351 . S
C1745 C1739 1.428 1_554 S
C1745 N1744 1.351 . S
C1745 C1746 1.434 . S
C1746 C1737 1.429 . S
C1746 N1743 1.350 . S
C1746 C1745 1.434 . S
C1747 C1748 1.369 . S
C1747 C1749 1.431 . S
C1747 H1751 0.930 . S
C1748 C1747 1.369 . S
C1748 C1757 1.429 . S
C1749 C1747 1.431 . S
C1749 C1750 1.356 1_565 S
C1749 H1752 0.923 1_565 S
C1750 C1749 1.356 1_545 S
C1750 C1756 1.438 . S
H1751 C1747 0.930 . S
H1752 C1749 0.923 1_545 S
S1753 N1754 1.613 . S
S1753 N1755 1.610 1_565 S
N1754 S1753 1.613 . S
N1754 C1757 1.350 . S
N1755 S1753 1.610 1_545 S
N1755 C1756 1.358 . S
C1756 C1750 1.438 . S
C1756 N1755 1.358 . S
C1756 C1757 1.415 1_545 S
C1757 C1748 1.429 . S
C1757 N1754 1.350 . S
C1757 C1756 1.415 1_565 S
C1758 C1759 1.369 . S
C1758 C1760 1.419 . S
C1758 H1762 0.930 . S
C1759 C1758 1.369 . S
C1759 C1768 1.429 . S
C1760 C1758 1.419 . S
C1760 C1761 1.363 . S
C1760 H1763 0.929 . S
C1761 C1760 1.363 . S
C1761 C1767 1.428 . S
H1762 C1758 0.930 . S
H1763 C1760 0.929 . S
S1764 N1765 1.613 . S
S1764 N1766 1.610 . S
N1765 S1764 1.613 . S
N1765 C1768 1.350 . S
N1766 S1764 1.610 . S
N1766 C1767 1.351 . S
C1767 C1761 1.428 . S
C1767 N1766 1.351 . S
C1767 C1768 1.434 . S
C1768 C1759 1.429 . S
C1768 N1765 1.350 . S
C1768 C1767 1.434 . S
C1769 C1770 1.369 . S
C1769 C1771 1.419 1_554 S
C1769 H1773 0.930 . S
C1770 C1769 1.369 . S
C1770 C1779 1.429 . S
C1771 C1769 1.419 1_556 S
C1771 C1772 1.363 . S
C1771 H1774 0.929 . S
C1772 C1771 1.363 . S
C1772 C1778 1.428 . S
H1773 C1769 0.930 . S
H1774 C1771 0.929 . S
S1775 N1776 1.613 1_556 S
S1775 N1777 1.610 . S
N1776 S1775 1.613 1_554 S
N1776 C1779 1.350 . S
N1777 S1775 1.610 . S
N1777 C1778 1.351 . S
C1778 C1772 1.428 . S
C1778 N1777 1.351 . S
C1778 C1779 1.434 1_556 S
C1779 C1770 1.429 . S
C1779 N1776 1.350 . S
C1779 C1778 1.434 1_554 S
C1780 C1781 1.369 . S
C1780 C1782 1.419 . S
C1780 H1784 0.930 . S
C1781 C1780 1.369 . S
C1781 C1790 1.429 . S
C1782 C1780 1.419 . S
C1782 C1783 1.363 . S
C1782 H1785 0.929 . S
C1783 C1782 1.363 . S
C1783 C1789 1.428 . S
H1784 C1780 0.930 . S
H1785 C1782 0.929 . S
S1786 N1787 1.613 . S
S1786 N1788 1.610 . S
N1787 S1786 1.613 . S
N1787 C1790 1.350 . S
N1788 S1786 1.610 . S
N1788 C1789 1.351 . S
C1789 C1783 1.428 . S
C1789 N1788 1.351 . S
C1789 C1790 1.434 . S
C1790 C1781 1.429 . S
C1790 N1787 1.350 . S
C1790 C1789 1.434 . S
C1791 C1792 1.369 . S
C1791 C1793 1.419 . S
C1791 H1795 0.930 . S
C1792 C1791 1.369 . S
C1792 C1801 1.429 . S
C1793 C1791 1.419 . S
C1793 C1794 1.363 . S
C1793 H1796 0.929 . S
C1794 C1793 1.363 . S
C1794 C1800 1.428 . S
H1795 C1791 0.930 . S
H1796 C1793 0.929 . S
S1797 N1798 1.613 . S
S1797 N1799 1.610 . S
N1798 S1797 1.613 . S
N1798 C1801 1.350 . S
N1799 S1797 1.610 . S
N1799 C1800 1.351 . S
C1800 C1794 1.428 . S
C1800 N1799 1.351 . S
C1800 C1801 1.434 . S
C1801 C1792 1.429 . S
C1801 N1798 1.350 . S
C1801 C1800 1.434 . S
C1802 C1803 1.369 . S
C1802 C1804 1.419 . S
C1802 H1806 0.930 . S
C1803 C1802 1.369 . S
C1803 C1812 1.429 . S
C1804 C1802 1.419 . S
C1804 C1805 1.363 . S
C1804 H1807 0.929 . S
C1805 C1804 1.363 . S
C1805 C1811 1.428 . S
H1806 C1802 0.930 . S
H1807 C1804 0.929 . S
S1808 N1809 1.613 . S
S1808 N1810 1.610 . S
N1809 S1808 1.613 . S
N1809 C1812 1.350 . S
N1810 S1808 1.610 . S
N1810 C1811 1.351 . S
C1811 C1805 1.428 . S
C1811 N1810 1.351 . S
C1811 C1812 1.434 . S
C1812 C1803 1.429 . S
C1812 N1809 1.350 . S
C1812 C1811 1.434 . S
C1813 C1814 1.369 . S
C1813 C1815 1.419 . S
C1813 H1817 0.930 . S
C1814 C1813 1.369 . S
C1814 C1823 1.429 . S
C1815 C1813 1.419 . S
C1815 C1816 1.363 . S
C1815 H1818 0.929 . S
C1816 C1815 1.363 . S
C1816 C1822 1.428 . S
H1817 C1813 0.930 . S
H1818 C1815 0.929 . S
S1819 N1820 1.613 . S
S1819 N1821 1.610 . S
N1820 S1819 1.613 . S
N1820 C1823 1.350 . S
N1821 S1819 1.610 . S
N1821 C1822 1.351 . S
C1822 C1816 1.428 . S
C1822 N1821 1.351 . S
C1822 C1823 1.434 . S
C1823 C1814 1.429 . S
C1823 N1820 1.350 . S
C1823 C1822 1.434 . S
C769 C21 1.164 . S
C771 C274 1.173 . S
C780 C49 1.582 . S
C782 C310 1.849 1_655 S
C791 C342 1.400 . S
C793 C85 1.354 . S
C802 C370 1.176 1_545 S
C804 C117 1.155 . S
C813 C149 1.166 . S
C815 C374 1.232 . S
C824 C181 1.307 . S
C826 C278 1.344 . S
C835 C209 1.415 . S
C837 C306 1.642 . S
C846 C338 1.216 1_545 S
C848 C245 1.214 . S
C857 C402 1.228 . S
C859 C277 1.241 . S
C868 C305 1.657 . S
C870 C534 1.933 . S
C879 C337 1.727 . S
C881 C470 1.979 . S
C890 C502 1.404 1_554 S
C892 C373 1.352 . S
C901 C369 1.783 . S
C903 C630 2.053 . S
C912 C566 1.813 . S
C914 C273 1.563 . S
C923 C309 1.192 . S
C925 C598 1.224 . S
C934 C434 1.384 1_455 S
C936 C341 1.372 . S
C945 C405 1.397 . S
C947 C18 1.395 . S
C956 C241 1.572 . S
C958 C562 1.792 . S
C967 C594 1.754 1_554 S
C969 C145 1.495 . S
C978 C438 2.133 . S
C980 C177 1.870 . S
C989 C242 1.305 1_554 S
C991 C437 1.298 . S
C1000 C82 1.757 . S
C1002 C465 1.513 . S
C1011 C466 1.769 . S
C1013 C17 1.531 . S
C1022 C406 2.137 . S
C1024 C81 1.849 . S
C1033 C501 1.156 . S
C1035 C658 1.148 . S
C1044 C401 1.584 . S
C1046 C694 1.843 . S
C1055 C726 1.398 . S
C1057 C533 1.368 . S
C1066 C469 1.171 . S
C1068 C758 1.217 1_455 S
C1077 C754 1.176 . S
C1079 C565 1.157 . S
C1088 C662 1.347 1_455 S
C1090 C597 1.293 . S
C1099 C433 1.431 . S
C1101 C690 1.654 . S
C1110 C722 1.238 . S
C1112 C629 1.227 . S
C1121 C50 1.249 . S
C1123 C661 1.249 . S
C1132 C689 1.643 . S
C1134 C86 1.909 1_554 S
C1143 C118 1.854 . S
C1145 C721 1.613 . S
C1154 C22 2.077 . S
C1156 C753 1.788 . S
C1165 C757 1.351 . S
C1167 C246 1.398 . S
C1176 C657 1.684 . S
C1178 C150 1.933 1_556 S
C1187 C693 1.187 . S
C1189 C182 1.244 . S
C1198 C725 1.375 . S
C1200 C210 1.369 . S
C1209 C53 1.358 . S
C1211 C498 1.349 . S
C1220 C146 1.765 . S
C1222 C625 1.526 . S
C1231 C561 1.563 . S
C1233 C178 1.817 . S
C1242 C214 2.151 . S
C1244 C593 1.880 . S
C1253 C213 1.342 . S
C1255 C626 1.342 . S
C1264 C113 1.561 . S
C1266 C530 1.821 . S
C1275 C497 1.593 . S
C1277 C114 1.798 1_556 S
C1286 C529 1.828 . S
C1288 C54 2.118 1_545 S
C1297 C16 1.885 . S
C1299 C311 1.839 . S
C1308 C343 2.137 . S
C1310 C55 2.129 . S
C1319 C368 1.637 . S
C1321 C80 1.634 . S
C1330 C272 1.648 . S
C1332 C112 1.641 . S
C1341 C336 1.680 . S
C1343 C144 1.677 . S
C1352 C375 1.808 . S
C1354 C176 1.842 . S
C1363 C279 2.025 . S
C1365 C215 2.027 . S
C1374 C240 1.634 . S
C1376 C304 1.639 . S
C1385 C151 1.790 . S
C1387 C400 1.834 . S
C1396 C247 2.121 . S
C1398 C503 2.121 . S
C1407 C535 2.069 . S
C1409 C183 2.064 . S
C1418 C432 1.968 . S
C1420 C119 1.917 . S
C1429 C208 1.906 . S
C1431 C471 1.854 . S
C1440 C23 2.114 . S
C1442 C631 2.111 . S
C1451 C599 1.974 . S
C1453 C87 1.971 . S
C1462 C695 1.793 . S
C1464 C496 1.846 . S
C1473 C727 2.024 . S
C1475 C407 2.019 . S
C1484 C528 1.866 . S
C1486 C759 1.837 . S
C1495 C656 1.641 . S
C1497 C464 1.641 . S
C1506 C720 1.687 . S
C1508 C560 1.678 . S
C1517 C752 1.605 . S
C1519 C592 1.603 . S
C1528 C439 2.131 . S
C1530 C663 2.142 . S
C1539 C688 1.683 . S
C1541 C624 1.679 . S
C1550 C48 1.895 . S
C1552 C567 1.848 . S
C1561 C148 1.606 . S
C1563 C20 1.607 . S
C1572 C180 1.928 . S
C1574 C51 1.830 . S
C1583 C211 1.728 . S
C1585 C84 1.836 . S
C1594 C244 1.598 . S
C1596 C116 1.599 . S
C1605 C308 1.702 . S
C1607 C276 1.707 . S
C1616 C340 1.945 . S
C1618 C307 1.851 . S
C1627 C339 2.140 . S
C1629 C371 2.161 . S
C1638 C275 1.845 . S
C1640 C372 1.949 . S
C1649 C404 1.931 . S
C1651 C115 1.832 . S
C1660 C243 2.142 . S
C1662 C595 2.153 . S
C1671 C436 1.888 . S
C1673 C147 1.799 . S
C1682 C179 2.112 . S
C1684 C627 2.091 . S
C1693 C52 1.974 . S
C1695 C467 1.876 . S
C1704 C19 2.015 . S
C1706 C531 2.024 . S
C1715 C83 2.063 . S
C1717 C499 2.065 . S
C1726 C564 1.656 . S
C1728 C500 1.653 . S
C1737 C403 1.725 . S
C1739 C596 1.822 . S
C1748 C435 1.843 . S
C1750 C532 1.943 . S
C1759 C468 1.552 . S
C1761 C628 1.548 . S
C1770 C692 1.723 . S
C1772 C660 1.721 . S
C1781 C724 1.928 . S
C1783 C691 1.831 . S
C1792 C756 1.969 . S
C1794 C723 1.865 . S
C1803 C755 2.144 . S
C1805 C659 2.134 . S
C1814 C212 1.843 . S
C1816 C563 1.749 . S
