# Generated by pormake.
# Topology bcg, (8)-cn, num edge types: 1
# Building blocks:
#     Node 0, Type 0, BuildingBlock: XADDAJ01_clean_sbu_3, # of connection points: 8
#     Node 1, Type 0, BuildingBlock: XADDAJ01_clean_sbu_3, # of connection points: 8
#     Node 2, Type 0, BuildingBlock: XADDAJ01_clean_sbu_3, # of connection points: 8
#     Node 3, Type 0, BuildingBlock: XADDAJ01_clean_sbu_3, # of connection points: 8
#     Edge 4, Type (0, 0), BuildingBlock: ZUJKAS_clean_linker_0, # of connection points: 2
#     Edge 5, Type (0, 0), BuildingBlock: ZUJKAS_clean_linker_0, # of connection points: 2
#     Edge 6, Type (0, 0), BuildingBlock: ZUJKAS_clean_linker_0, # of connection points: 2
#     Edge 7, Type (0, 0), BuildingBlock: ZUJKAS_clean_linker_0, # of connection points: 2
#     Edge 8, Type (0, 0), BuildingBlock: ZUJKAS_clean_linker_0, # of connection points: 2
#     Edge 9, Type (0, 0), BuildingBlock: ZUJKAS_clean_linker_0, # of connection points: 2
#     Edge 10, Type (0, 0), BuildingBlock: ZUJKAS_clean_linker_0, # of connection points: 2
#     Edge 11, Type (0, 0), BuildingBlock: ZUJKAS_clean_linker_0, # of connection points: 2
#     Edge 12, Type (0, 0), BuildingBlock: ZUJKAS_clean_linker_0, # of connection points: 2
#     Edge 13, Type (0, 0), BuildingBlock: ZUJKAS_clean_linker_0, # of connection points: 2
#     Edge 14, Type (0, 0), BuildingBlock: ZUJKAS_clean_linker_0, # of connection points: 2
#     Edge 15, Type (0, 0), BuildingBlock: ZUJKAS_clean_linker_0, # of connection points: 2
#     Edge 16, Type (0, 0), BuildingBlock: ZUJKAS_clean_linker_0, # of connection points: 2
#     Edge 17, Type (0, 0), BuildingBlock: ZUJKAS_clean_linker_0, # of connection points: 2
#     Edge 18, Type (0, 0), BuildingBlock: ZUJKAS_clean_linker_0, # of connection points: 2
#     Edge 19, Type (0, 0), BuildingBlock: ZUJKAS_clean_linker_0, # of connection points: 2
# Relax obj value: 0.147
# Max RMSD: 0.212
# Mean RMSD: 0.212
data_MOF--net-bcg--node1-XADDAJ01_clean_sbu_3--edge1-ZUJKAS_clean_linker_0
_symmetry_space_group_name_H-M    P1
_symmetry_Int_Tables_number       1
_symmetry_cell_setting            triclinic
loop_
_symmetry_equiv_pos_as_xyz
'x, y, z'
_cell_length_a     26.694821
_cell_length_b     26.049925
_cell_length_c     41.055276
_cell_angle_alpha  81.254432
_cell_angle_beta   90.166221
_cell_angle_gamma 90.151874
loop_
_atom_site_label
_atom_site_type_symbol
_atom_site_fract_x
_atom_site_fract_y
_atom_site_fract_z
_atom_type_partial_charge
C0 C 0.11825 0.27854 0.04407 0.0
C1 C 0.07363 0.27122 0.02657 0.0
C2 C 0.02875 0.25682 0.04383 0.0
C3 C 0.02909 0.25069 0.07839 0.0
C4 C 0.07266 0.25901 0.09604 0.0
C5 C 0.11719 0.27241 0.07867 0.0
O6 O 0.21636 0.20816 0.967 0.0
Tb7 Tb 0.21875 0.28675 0.9785 0.0
Tb8 Tb 0.31845 0.21054 0.01216 0.0
O9 O 0.17518 0.30937 0.93413 0.0
O10 O 0.24987 0.16459 0.01453 0.0
O11 O 0.16248 0.32737 -0.00103 0.0
C12 C 0.37592 0.19785 0.96585 0.0
O13 O 0.20276 0.2629 0.02865 0.0
O14 O 0.32119 0.28968 0.02247 0.0
O15 O 0.28788 0.33227 0.97462 0.0
C16 C 0.16581 0.29663 0.02746 0.0
C17 C 0.32937 0.18866 0.08641 0.0
O18 O 0.28385 0.20799 0.08426 0.0
C19 C 0.21797 0.16703 0.98985 0.0
C20 C 0.32005 0.33018 -0.00084 0.0
O21 O 0.35322 0.18337 0.05922 0.0
C22 C 0.42252 0.21758 0.94858 0.0
C23 C 0.46644 0.23734 0.89603 0.0
C24 C 0.42286 0.22236 0.91403 0.0
C25 C 0.46719 0.22738 0.96536 0.0
C26 C 0.51119 0.24317 0.94742 0.0
C27 C 0.50992 0.24845 0.91288 0.0
C28 C 0.18978 0.34551 0.91018 0.0
O29 O 0.232 0.37044 0.91311 0.0
O30 O 0.38019 0.1722 -0.00409 0.0
O31 O 0.33606 0.228 0.96183 0.0
H32 H 0.07369 0.27698 -0.00013 0.0
H33 H 0.99419 0.24221 0.0916 0.0
H34 H 0.15102 0.27919 0.09209 0.0
H35 H 0.38924 0.21332 0.90109 0.0
H36 H 0.46789 0.22236 0.99204 0.0
H37 H 0.54406 0.25827 0.89904 0.0
C38 C 0.60346 0.78051 0.05335 0.0
C39 C 0.56155 0.76516 0.03651 0.0
C40 C 0.51561 0.75637 0.05292 0.0
C41 C 0.51213 0.76301 0.08611 0.0
C42 C 0.55365 0.77914 0.10291 0.0
C43 C 0.59937 0.78792 0.08634 0.0
O44 O 0.74164 0.72358 0.97893 0.0
Tb45 Tb 0.69257 0.78938 0.98231 0.0
Tb46 Tb 0.84283 0.71379 0.00784 0.0
O47 O 0.64146 0.79445 0.94075 0.0
O48 O 0.77973 0.66009 0.01295 0.0
O49 O 0.65864 0.8306 0.01627 0.0
C50 C 0.88136 0.716 0.95221 0.0
O51 O 0.67088 0.74642 0.02712 0.0
O52 O 0.79313 0.7785 0.01214 0.0
O53 O 0.7561 0.84265 0.97816 0.0
C54 C 0.6523 0.7877 0.03738 0.0
C55 C 0.88797 0.68165 0.07598 0.0
O56 O 0.84975 0.64944 0.07807 0.0
C57 C 0.73851 0.67794 -0.00237 0.0
C58 C 0.79673 0.82449 0.99403 0.0
O59 O 0.896 0.71232 0.04801 0.0
C60 C 0.9297 0.72532 0.93581 0.0
C61 C 0.97871 0.73073 0.88563 0.0
C62 C 0.9332 0.72082 0.90231 0.0
C63 C 0.97191 0.73916 0.95297 0.0
C64 C 0.01772 0.74889 0.93649 0.0
C65 C 0.02061 0.74503 0.90284 0.0
C66 C 0.65986 0.78562 0.91247 0.0
O67 O 0.70795 0.77567 0.91083 0.0
O68 O 0.87736 0.67328 0.97379 0.0
O69 O 0.86104 0.75663 0.96224 0.0
H70 H 0.56472 0.76007 0.01086 0.0
H71 H 0.4762 0.75815 0.09848 0.0
H72 H 0.63186 0.80004 0.09918 0.0
H73 H 0.90048 0.7098 0.88922 0.0
H74 H 0.96912 0.74208 0.97897 0.0
H75 H 0.05639 0.75044 0.89033 0.0
C76 C 0.11436 0.73073 0.44427 0.0
C77 C 0.07047 0.73974 0.4619 0.0
C78 C 0.0259 0.75633 0.44476 0.0
C79 C 0.02587 0.76311 0.41017 0.0
C80 C 0.06858 0.75282 0.39248 0.0
C81 C 0.11275 0.7372 0.4097 0.0
O82 O 0.21377 0.7955 0.52201 0.0
Tb83 Tb 0.21725 0.71821 0.50875 0.0
Tb84 Tb 0.31679 0.79608 0.47836 0.0
O85 O 0.17851 0.68864 0.55382 0.0
O86 O 0.24719 0.84048 0.47515 0.0
O87 O 0.15748 0.68041 0.48939 0.0
C88 C 0.37135 0.80794 0.52646 0.0
O89 O 0.20049 0.74158 0.45862 0.0
O90 O 0.32307 0.71829 0.46568 0.0
O91 O 0.28569 0.67223 0.51119 0.0
C92 C 0.16141 0.71017 0.46061 0.0
C93 C 0.33333 0.82635 0.40474 0.0
O94 O 0.28643 0.81112 0.40402 0.0
C95 C 0.21504 0.83715 0.49962 0.0
C96 C 0.31872 0.67564 0.48718 0.0
O97 O 0.35562 0.82567 0.43332 0.0
C98 C 0.41954 0.79188 0.54301 0.0
C99 C 0.46716 0.78024 0.59444 0.0
C100 C 0.42165 0.78926 0.57743 0.0
C101 C 0.46398 0.78443 0.52547 0.0
C102 C 0.50968 0.77336 0.54261 0.0
C103 C 0.51045 0.77131 0.57695 0.0
C104 C 0.2004 0.68918 0.58241 0.0
O105 O 0.24711 0.70504 0.58314 0.0
O106 O 0.37367 0.8378 0.49764 0.0
O107 O 0.33478 0.77343 0.52843 0.0
H108 H 0.0708 0.73345 0.4886 0.0
H109 H 0.99123 0.77335 0.39692 0.0
H110 H 0.1458 0.72881 0.39613 0.0
H111 H 0.3882 0.79695 0.59083 0.0
H112 H 0.46311 0.78754 0.49886 0.0
H113 H 0.54561 0.76422 0.59016 0.0
C114 C 0.59975 0.21995 0.44478 0.0
C115 C 0.5621 0.24434 0.46061 0.0
C116 C 0.51596 0.25567 0.44484 0.0
C117 C 0.50752 0.24163 0.41365 0.0
C118 C 0.54449 0.2162 0.39802 0.0
C119 C 0.59102 0.20612 0.41353 0.0
O120 O 0.73994 0.2861 0.51142 0.0
Tb121 Tb 0.69361 0.21694 0.51273 0.0
Tb122 Tb 0.83932 0.29745 0.48045 0.0
O123 O 0.64534 0.22304 0.55441 0.0
O124 O 0.77357 0.34765 0.47396 0.0
O125 O 0.65126 0.17126 0.48504 0.0
C126 C 0.88076 0.30475 0.53434 0.0
O127 O 0.67439 0.25072 0.465 0.0
O128 O 0.79283 0.22825 0.48122 0.0
O129 O 0.75858 0.16599 0.5182 0.0
C130 C 0.64886 0.20948 0.46007 0.0
C131 C 0.86869 0.29417 0.41009 0.0
O132 O 0.81983 0.28847 0.40868 0.0
C133 C 0.73384 0.32944 0.4908 0.0
C134 C 0.79847 0.18435 0.50151 0.0
O135 O 0.88903 0.30003 0.43848 0.0
C136 C 0.93009 0.30186 0.55005 0.0
C137 C 0.97983 0.30231 0.59967 0.0
C138 C 0.93364 0.30838 0.58331 0.0
C139 C 0.97311 0.29086 0.53277 0.0
C140 C 0.01946 0.28511 0.54907 0.0
C141 C 0.0223 0.29027 0.5825 0.0
C142 C 0.61987 0.18389 0.57032 0.0
O143 O 0.62187 0.1383 0.56043 0.0
O144 O 0.87233 0.34496 0.5114 0.0
O145 O 0.86374 0.26091 0.52651 0.0
H146 H 0.56871 0.25451 0.48492 0.0
H147 H 0.47141 0.24954 0.40177 0.0
H148 H 0.62009 0.18678 0.40157 0.0
H149 H 0.9005 0.31741 0.59655 0.0
H150 H 0.97045 0.28658 0.50696 0.0
H151 H 0.05834 0.28733 0.59494 0.0
H152 H 0.55936 0.17586 -0.00477 0.0
H153 H 0.64749 0.1798 0.01226 0.0
H154 H 0.66333 0.32873 0.95096 0.0
H155 H 0.57551 0.32524 0.93441 0.0
H156 H 0.72779 0.18329 0.96955 0.0
H157 H 0.73434 0.35531 0.03399 0.0
H158 H 0.67627 0.32393 0.02576 0.0
H159 H 0.70623 0.36834 0.99385 0.0
C160 C 0.58122 0.21019 0.98632 0.0
C161 C 0.56037 0.25033 0.9636 0.0
C162 C 0.63176 0.21221 -0.00422 0.0
C163 C 0.66228 0.25469 0.98305 0.0
C164 C 0.64069 0.29592 0.96162 0.0
H165 H 0.98258 0.32681 -0.00355 0.0
H166 H 0.89466 0.32522 0.97846 0.0
C167 C 0.59039 0.29382 0.95208 0.0
C168 C 0.7174 0.25404 0.98981 0.0
H169 H 0.81283 0.32227 0.0192 0.0
C170 C 0.74628 0.2135 0.98065 0.0
C171 C 0.7419 0.2938 0.00384 0.0
C172 C 0.71308 0.33757 0.01521 0.0
C173 C 0.79871 0.2119 0.98476 0.0
C174 C 0.82319 0.25139 -0.00094 0.0
C175 C 0.79434 0.2921 0.00806 0.0
C176 C 0.87814 0.24985 0.00653 0.0
C177 C 0.82746 0.16841 0.97304 0.0
C178 C 0.8987 0.20762 0.02765 0.0
C179 C 0.94885 0.20832 0.03764 0.0
C180 C 0.97978 0.25144 0.027 0.0
C181 C 0.95997 0.29273 0.00466 0.0
C182 C 0.90955 0.29207 0.99469 0.0
H183 H 0.80656 0.15182 0.95362 0.0
H184 H 0.8647 0.18187 0.96315 0.0
H185 H 0.83329 0.13678 0.99406 0.0
H186 H 0.87536 0.17499 0.03768 0.0
H187 H 0.96292 0.17606 0.05502 0.0
H188 H 0.05179 0.69457 0.99422 0.0
H189 H 0.13678 0.69691 0.01663 0.0
H190 H 0.17403 0.82396 0.94029 0.0
H191 H 0.08914 0.82232 0.91816 0.0
H192 H 0.21863 0.67801 0.97735 0.0
H193 H 0.23893 0.86742 0.02227 0.0
H194 H 0.17862 0.83887 0.01592 0.0
H195 H 0.21303 0.87243 0.98151 0.0
C196 C 0.07758 0.72422 0.98301 0.0
C197 C 0.06414 0.75813 0.9544 0.0
C198 C 0.12612 0.72525 -0.00435 0.0
C199 C 0.1615 0.7606 0.98009 0.0
C200 C 0.14707 0.79684 0.9529 0.0
H201 H 0.48019 0.80831 -0.005 0.0
H202 H 0.39485 0.80386 0.97347 0.0
C203 C 0.0987 0.79571 0.9402 0.0
C204 C 0.21483 0.75556 0.98949 0.0
H205 H 0.31436 0.82221 0.01425 0.0
C206 C 0.23956 0.70931 0.98573 0.0
C207 C 0.24189 0.79671 0.0 0.0
C208 C 0.21672 0.8465 0.00547 0.0
C209 C 0.2911 0.70345 0.99169 0.0
C210 C 0.31821 0.74473 0.00201 0.0
C211 C 0.29342 0.79087 0.00593 0.0
C212 C 0.37186 0.74027 0.01065 0.0
C213 C 0.31627 0.65365 0.9863 0.0
C214 C 0.38744 0.70458 0.03782 0.0
C215 C 0.43606 0.70689 0.04999 0.0
C216 C 0.46958 0.74515 0.03529 0.0
C217 C 0.45512 0.77823 0.00659 0.0
C218 C 0.40639 0.77599 0.99446 0.0
H219 H 0.29377 0.63221 0.96992 0.0
H220 H 0.35407 0.66138 0.97539 0.0
H221 H 0.32066 0.62816 0.01037 0.0
H222 H 0.36118 0.67711 0.05085 0.0
H223 H 0.44656 0.68082 0.07207 0.0
H224 H 0.57525 0.69293 0.55532 0.0
H225 H 0.66289 0.69131 0.53816 0.0
H226 H 0.64325 0.839 0.47612 0.0
H227 H 0.55526 0.84094 0.49364 0.0
H228 H 0.71227 0.69656 0.47798 0.0
H229 H 0.75751 0.86832 0.53794 0.0
H230 H 0.69903 0.83347 0.54474 0.0
H231 H 0.70864 0.87833 0.50747 0.0
C232 C 0.58933 0.72453 0.53744 0.0
C233 C 0.55833 0.76709 0.52584 0.0
C234 C 0.63955 0.72369 0.52776 0.0
C235 C 0.66024 0.76559 0.50646 0.0
C236 C 0.62854 0.80669 0.49315 0.0
H237 H 0.96173 0.83859 0.43408 0.0
H238 H 0.87412 0.84063 0.45115 0.0
C239 C 0.57803 0.80743 0.50275 0.0
C240 C 0.71527 0.7668 0.49949 0.0
H241 H 0.82326 0.83412 0.5094 0.0
C242 C 0.73652 0.72662 0.48488 0.0
C243 C 0.74717 0.80583 0.50866 0.0
C244 C 0.72719 0.84874 0.52584 0.0
C245 C 0.78834 0.72494 0.47858 0.0
C246 C 0.82031 0.76386 0.48786 0.0
C247 C 0.79902 0.80409 0.50245 0.0
C248 C 0.87545 0.7648 0.48115 0.0
C249 C 0.8081 0.68218 0.46117 0.0
C250 C 0.90653 0.72273 0.49368 0.0
C251 C 0.95697 0.72161 0.48402 0.0
C252 C 0.97731 0.7626 0.46169 0.0
C253 C 0.94709 0.80625 0.45116 0.0
C254 C 0.89689 0.8074 0.46085 0.0
H255 H 0.77777 0.66365 0.44842 0.0
H256 H 0.83703 0.69724 0.44275 0.0
H257 H 0.82552 0.65173 0.47952 0.0
H258 H 0.89137 0.68994 0.51009 0.0
H259 H 0.97912 0.68735 0.49243 0.0
H260 H 0.09108 0.21212 0.56622 0.0
H261 H 0.17763 0.21567 0.54647 0.0
H262 H 0.14101 0.34758 0.47353 0.0
H263 H 0.05412 0.34416 0.49324 0.0
H264 H 0.21035 0.26906 0.45334 0.0
H265 H 0.26437 0.34098 0.56923 0.0
H266 H 0.22848 0.28182 0.57458 0.0
H267 H 0.2004 0.34105 0.55473 0.0
C268 C 0.10129 0.24099 0.54541 0.0
C269 C 0.06638 0.27825 0.53142 0.0
C270 C 0.15061 0.24318 0.53433 0.0
C271 C 0.16565 0.28276 0.50924 0.0
C272 C 0.12993 0.31714 0.4932 0.0
H273 H 0.4614 0.34193 0.42259 0.0
H274 H 0.37671 0.35996 0.44074 0.0
C275 C 0.08038 0.31488 0.50425 0.0
C276 C 0.21929 0.29035 0.50158 0.0
H277 H 0.33088 0.31938 0.5354 0.0
C278 C 0.23675 0.28064 0.47102 0.0
C279 C 0.25324 0.30567 0.52485 0.0
C280 C 0.23578 0.31846 0.55761 0.0
C281 C 0.28798 0.28358 0.46358 0.0
C282 C 0.32217 0.29782 0.48715 0.0
C283 C 0.30446 0.30882 0.5174 0.0
C284 C 0.37672 0.29691 0.48165 0.0
C285 C 0.30531 0.26917 0.43118 0.0
C286 C 0.40588 0.2585 0.50046 0.0
C287 C 0.45441 0.24873 0.49047 0.0
C288 C 0.47389 0.27715 0.4615 0.0
C289 C 0.44673 0.31936 0.44488 0.0
C290 C 0.39843 0.32941 0.45506 0.0
H291 H 0.27545 0.24935 0.41882 0.0
H292 H 0.31627 0.30491 0.41441 0.0
H293 H 0.33849 0.24327 0.43486 0.0
H294 H 0.38974 0.23334 0.52125 0.0
H295 H 0.47471 0.2159 0.50353 0.0
H296 H 0.71563 0.59315 0.04325 0.0
H297 H 0.64016 0.53902 0.04541 0.0
H298 H 0.57967 0.6396 0.96143 0.0
H299 H 0.65466 0.69389 0.95946 0.0
H300 H 0.5079 0.6093 0.00819 0.0
H301 H 0.61475 0.43838 0.98093 0.0
H302 H 0.63651 0.46285 0.017 0.0
H303 H 0.64203 0.50243 0.97725 0.0
C304 C 0.68605 0.60396 0.02544 0.0
C305 C 0.69109 0.64788 0.00115 0.0
C306 C 0.64306 0.57283 0.02657 0.0
C307 C 0.60469 0.58461 0.00313 0.0
C308 C 0.60883 0.62958 0.97969 0.0
H309 H 0.33331 0.42028 0.95521 0.0
H310 H 0.3997 0.48554 0.95607 0.0
C311 C 0.65166 0.66078 0.97866 0.0
C312 C 0.56103 0.54928 0.00231 0.0
H313 H 0.52918 0.42447 -0.00511 0.0
C314 C 0.5125 0.56893 0.00514 0.0
C315 C 0.56704 0.49672 -0.002 0.0
C316 C 0.61782 0.47389 0.99278 0.0
C317 C 0.46995 0.53704 0.00469 0.0
C318 C 0.47616 0.48433 0.00103 0.0
C319 C 0.52458 0.46488 -0.00216 0.0
C320 C 0.43329 0.44783 0.00149 0.0
C321 C 0.4188 0.55954 0.00888 0.0
C322 C 0.43024 0.40508 0.02664 0.0
C323 C 0.39261 0.36791 0.02621 0.0
C324 C 0.35724 0.37235 0.00043 0.0
C325 C 0.35977 0.41577 0.97548 0.0
C326 C 0.39755 0.45321 0.97601 0.0
H327 H 0.42103 0.59796 0.01742 0.0
H328 H 0.39878 0.56458 0.98489 0.0
H329 H 0.39626 0.53278 0.02679 0.0
H330 H 0.45755 0.40007 0.04644 0.0
H331 H 0.392 0.33506 0.04586 0.0
H332 H 0.7027 0.40455 0.44054 0.0
H333 H 0.62459 0.45476 0.43781 0.0
H334 H 0.57651 0.36529 0.52946 0.0
H335 H 0.6549 0.31677 0.53286 0.0
H336 H 0.5178 0.42394 0.441 0.0
H337 H 0.58076 0.51817 0.5469 0.0
H338 H 0.62305 0.48318 0.52404 0.0
H339 H 0.58126 0.44837 0.55382 0.0
C340 C 0.67519 0.39524 0.45988 0.0
C341 C 0.68471 0.35619 0.48679 0.0
C342 C 0.63053 0.42378 0.45823 0.0
C343 C 0.59495 0.41402 0.48358 0.0
C344 C 0.60355 0.37369 0.50973 0.0
H345 H 0.33216 0.58681 0.53175 0.0
H346 H 0.39477 0.51869 0.52986 0.0
C347 C 0.64811 0.34539 0.51141 0.0
C348 C 0.55072 0.44837 0.48406 0.0
H349 H 0.4996 0.53865 0.52632 0.0
C350 C 0.51374 0.44906 0.45961 0.0
C351 C 0.54546 0.48095 0.50846 0.0
C352 C 0.58485 0.48317 0.53468 0.0
C353 C 0.47153 0.4815 0.45901 0.0
C354 C 0.46663 0.51448 0.48322 0.0
C355 C 0.5033 0.51318 0.50788 0.0
C356 C 0.42524 0.55265 0.48268 0.0
C357 C 0.4322 0.47992 0.43274 0.0
C358 C 0.42153 0.59434 0.45679 0.0
C359 C 0.38605 0.63347 0.45788 0.0
C360 C 0.35346 0.63181 0.48494 0.0
C361 C 0.35646 0.58928 0.51049 0.0
C362 C 0.39224 0.55029 0.50946 0.0
H363 H 0.43555 0.44458 0.4208 0.0
H364 H 0.39404 0.48114 0.44329 0.0
H365 H 0.43666 0.51436 0.41343 0.0
H366 H 0.44724 0.59757 0.43621 0.0
H367 H 0.38494 0.66561 0.43778 0.0
H368 H 0.14983 0.15829 0.94114 0.0
H369 H 0.08363 0.09343 0.94117 0.0
H370 H 0.1351 0.01539 0.0354 0.0
H371 H 0.20151 0.08045 0.03579 0.0
H372 H 0.08749 0.98183 0.94691 0.0
H373 H 0.98584 0.05043 0.05024 0.0
H374 H 0.03423 0.08836 0.02719 0.0
H375 H 0.05069 0.03438 0.05795 0.0
C376 C 0.14746 0.12715 0.96181 0.0
C377 C 0.18088 0.12482 0.9886 0.0
C378 C 0.10959 0.09004 0.96172 0.0
C379 C 0.10408 0.05003 0.98845 0.0
C380 C 0.13833 0.04643 0.01472 0.0
H381 H 0.87687 0.81086 0.03533 0.0
H382 H 0.95437 0.86164 0.03246 0.0
C383 C 0.1764 0.08351 0.01482 0.0
C384 C 0.06126 0.01344 0.98926 0.0
H385 H 0.95247 0.97726 0.03012 0.0
C386 C 0.05798 0.98073 0.9651 0.0
C387 C 0.02268 0.0124 0.01292 0.0
C388 C 0.02304 0.0485 0.03842 0.0
C389 C 0.01721 0.94666 0.96417 0.0
C390 C 0.97876 0.94571 0.98782 0.0
C391 C 0.98222 0.97807 0.0121 0.0
C392 C 0.93401 0.91203 0.98759 0.0
C393 C 1.01554 0.91151 0.9382 0.0
C394 C 0.89703 0.92343 0.96319 0.0
C395 C 0.85265 0.89436 0.96477 0.0
C396 C 0.84481 0.85324 0.99066 0.0
C397 C 0.88237 0.84145 0.01468 0.0
C398 C 0.92649 0.87067 0.01323 0.0
H399 H 0.05161 0.91145 0.92478 0.0
H400 H 1.00638 0.87112 0.94956 0.0
H401 H 0.98561 0.9248 0.92008 0.0
H402 H 0.90193 0.95569 0.94345 0.0
H403 H 0.82426 0.90448 0.946 0.0
H404 H 0.82418 0.10057 0.547 0.0
H405 H 0.9002 0.04791 0.54822 0.0
H406 H 0.9569 0.14972 0.46362 0.0
H407 H 0.88112 0.20233 0.46236 0.0
H408 H 0.9298 0.99597 0.49776 0.0
H409 H 0.07923 0.13275 0.52403 0.0
H410 H 1.01373 0.14429 0.531 0.0
H411 H 0.03912 0.15737 0.49009 0.0
C412 C 0.85324 0.11229 0.52903 0.0
C413 C 0.84681 0.15602 0.50474 0.0
C414 C 0.89666 0.08213 0.52973 0.0
C415 C 0.9346 0.09515 0.50626 0.0
C416 C 0.92879 0.13952 0.48248 0.0
H417 H 0.20126 0.92782 0.45646 0.0
H418 H 0.13422 0.99196 0.45741 0.0
C419 C 0.88537 0.16965 0.48177 0.0
C420 C 0.97795 0.05979 0.50495 0.0
H421 H 0.10582 0.05291 0.50837 0.0
C422 C 0.96826 0.00839 0.50027 0.0
C423 C 0.02817 0.07621 0.5078 0.0
C424 C 0.04085 0.13051 0.51379 0.0
C425 C 1.00728 0.97299 0.49828 0.0
C426 C 0.05745 0.98912 0.50161 0.0
C427 C 0.06732 0.04069 0.50585 0.0
C428 C 0.09981 0.9522 0.50188 0.0
C429 C 0.9945 0.91874 0.49216 0.0
C430 C 0.10333 0.90934 0.52695 0.0
C431 C 0.14146 0.87284 0.52654 0.0
C432 C 0.17714 0.87842 0.50104 0.0
C433 C 0.17442 0.92228 0.47642 0.0
C434 C 0.13616 0.95897 0.47692 0.0
H435 H 0.95617 0.91657 0.48181 0.0
H436 H 0.02168 0.90502 0.47497 0.0
H437 H 0.99611 0.89177 0.51582 0.0
H438 H 0.07616 0.90381 0.54674 0.0
H439 H 0.14238 0.83975 0.54601 0.0
H440 H 0.60116 0.23248 0.34192 0.0
H441 H 0.57626 0.21589 0.28676 0.0
H442 H 0.43773 0.14784 0.3265 0.0
H443 H 0.46254 0.16367 0.38147 0.0
H444 H 0.48587 0.09505 0.27668 0.0
H445 H 0.46085 0.30843 0.23998 0.0
H446 H 0.52101 0.28654 0.25632 0.0
H447 H 0.46695 0.27891 0.28251 0.0
C448 C 0.56594 0.21298 0.3389 0.0
C449 C 0.5334 0.20001 0.36574 0.0
C450 C 0.5517 0.20375 0.30747 0.0
C451 C 0.50495 0.18123 0.30264 0.0
C452 C 0.4739 0.16536 0.32978 0.0
H453 H 0.29405 0.20544 0.14619 0.0
H454 H 0.34032 0.19807 0.19812 0.0
C455 C 0.48794 0.17476 0.36105 0.0
C456 C 0.48569 0.17866 0.26917 0.0
H457 H 0.43686 0.25478 0.20165 0.0
C458 C 0.47579 0.12987 0.25998 0.0
C459 C 0.47199 0.2243 0.24783 0.0
C460 C 0.48032 0.27762 0.25705 0.0
C461 C 0.4517 0.12559 0.23004 0.0
C462 C 0.43725 0.17124 0.20906 0.0
C463 C 0.44814 0.21994 0.21793 0.0
C464 C 0.40829 0.16978 0.17854 0.0
C465 C 0.44003 0.07253 0.22155 0.0
C466 C 0.4312 0.15565 0.15055 0.0
C467 C 0.40493 0.16002 0.12075 0.0
C468 C 0.3554 0.17865 0.11856 0.0
C469 C 0.33211 0.191 0.14702 0.0
C470 C 0.35846 0.18683 0.17671 0.0
H471 H 0.44933 0.04104 0.24208 0.0
H472 H 0.39969 0.06976 0.21534 0.0
H473 H 0.4619 0.06631 0.19954 0.0
H474 H 0.46985 0.14293 0.1515 0.0
H475 H 0.4239 0.15018 0.09925 0.0
H476 H 0.58246 0.86523 0.12877 0.0
H477 H 0.56151 0.88635 0.18342 0.0
H478 H 0.48885 0.73743 0.20802 0.0
H479 H 0.51009 0.71602 0.15384 0.0
H480 H 0.46229 0.89162 0.20521 0.0
H481 H 0.57159 0.7496 0.29082 0.0
H482 H 0.58687 0.76598 0.24763 0.0
H483 H 0.53812 0.71961 0.26071 0.0
C484 C 0.56322 0.83655 0.14624 0.0
C485 C 0.54777 0.78905 0.1372 0.0
C486 C 0.5511 0.84873 0.17729 0.0
C487 C 0.52413 0.81322 0.1998 0.0
C488 C 0.5105 0.76497 0.19123 0.0
H489 H 0.30149 0.82301 0.34179 0.0
H490 H 0.35281 0.83118 0.29216 0.0
C491 C 0.52227 0.75295 0.16022 0.0
C492 C 0.5053 0.82803 0.23086 0.0
H493 H 0.49741 0.78396 0.31318 0.0
C494 C 0.47072 0.86887 0.22896 0.0
C495 C 0.51687 0.79873 0.26179 0.0
C496 C 0.5558 0.75637 0.26546 0.0
C497 C 0.44473 0.87881 0.25698 0.0
C498 C 0.45331 0.84666 0.28742 0.0
C499 C 0.49047 0.80823 0.28971 0.0
C500 C 0.42137 0.84888 0.31654 0.0
C501 C 0.40747 0.92273 0.25359 0.0
C502 C 0.44293 0.85594 0.34672 0.0
C503 C 0.41376 0.85083 0.37522 0.0
C504 C 0.36259 0.83813 0.37402 0.0
C505 C 0.34073 0.83295 0.34352 0.0
C506 C 0.36995 0.83803 0.31506 0.0
H507 H 0.41574 0.95225 0.23176 0.0
H508 H 0.36938 0.90715 0.25025 0.0
H509 H 0.40728 0.94193 0.27596 0.0
H510 H 0.48263 0.86395 0.34838 0.0
H511 H 0.43173 0.85513 0.39834 0.0
H512 H 0.40826 0.73271 0.64508 0.0
H513 H 0.41989 0.73453 0.70443 0.0
H514 H 0.54672 0.83689 0.68295 0.0
H515 H 0.53503 0.83564 0.62415 0.0
H516 H 0.50661 0.70133 0.74023 0.0
H517 H 0.46785 0.90696 0.74924 0.0
H518 H 0.44727 0.87673 0.7147 0.0
H519 H 0.51042 0.90068 0.71635 0.0
C520 C 0.43803 0.75621 0.65313 0.0
C521 C 0.47099 0.78371 0.6301 0.0
C522 C 0.44468 0.75718 0.68693 0.0
C523 C 0.48372 0.78647 0.69804 0.0
C524 C 0.51574 0.8149 0.67494 0.0
H525 H 0.68679 0.75909 0.85339 0.0
H526 H 0.63429 0.75611 0.80511 0.0
C527 C 0.5094 0.81363 0.64136 0.0
C528 C 0.49466 0.78402 0.73367 0.0
H529 H 0.52255 0.86148 0.79132 0.0
C530 C 0.50894 0.73614 0.75169 0.0
C531 C 0.49707 0.8293 0.74879 0.0
C532 C 0.47931 0.88123 0.73135 0.0
C533 C 0.5293 0.73306 0.78349 0.0
C534 C 0.53599 0.77909 0.79737 0.0
C535 C 0.518 0.82631 0.78045 0.0
C536 C 0.56657 0.77981 0.82747 0.0
C537 C 0.54523 0.6808 0.80148 0.0
C538 C 0.54612 0.7953 0.8559 0.0
C539 C 0.57623 0.79711 0.88376 0.0
C540 C 0.62735 0.78418 0.88333 0.0
C541 C 0.64759 0.76923 0.85463 0.0
C542 C 0.61754 0.76712 0.82704 0.0
H543 H 0.52411 0.64875 0.79265 0.0
H544 H 0.58562 0.67499 0.79691 0.0
H545 H 0.53963 0.67832 0.82847 0.0
H546 H 0.50693 0.80574 0.85656 0.0
H547 H 0.55956 0.80884 0.90549 0.0
H548 H 0.43426 0.16106 0.86199 0.0
H549 H 0.45075 0.15414 0.80411 0.0
H550 H 0.52037 0.30544 0.79083 0.0
H551 H 0.50473 0.31216 0.84877 0.0
H552 H 0.42812 0.21275 0.74315 0.0
H553 H 0.63261 0.21193 0.7678 0.0
H554 H 0.58678 0.20526 0.80037 0.0
H555 H 0.60146 0.26832 0.77797 0.0
C556 C 0.45215 0.19327 0.84653 0.0
C557 C 0.46869 0.23694 0.85993 0.0
C558 C 0.46171 0.18919 0.81351 0.0
C559 C 0.48784 0.22873 0.79339 0.0
C560 C 0.5013 0.27389 0.80616 0.0
H561 H 0.61241 0.27246 0.59788 0.0
H562 H 0.57526 0.28258 0.65075 0.0
C563 C 0.49218 0.27779 0.83918 0.0
C564 C 0.50383 0.22146 0.75979 0.0
H565 H 0.60769 0.21679 0.71196 0.0
C566 C 0.46736 0.21342 0.73632 0.0
C567 C 0.55513 0.22173 0.75106 0.0
C568 C 0.59631 0.22674 0.77569 0.0
C569 C 0.48088 0.20711 0.70406 0.0
C570 C 0.53205 0.20862 0.69527 0.0
C571 C 0.56844 0.21605 0.7188 0.0
C572 C 0.54916 0.20322 0.66168 0.0
C573 C 0.44054 0.19993 0.67937 0.0
C574 C 0.54633 0.15523 0.65017 0.0
C575 C 0.56792 0.14909 0.61993 0.0
C576 C 0.59273 0.19089 0.6008 0.0
C577 C 0.59385 0.23934 0.612 0.0
C578 C 0.57255 0.24531 0.6422 0.0
H579 H 0.40259 0.20773 0.68849 0.0
H580 H 0.44731 0.22604 0.65578 0.0
H581 H 0.44145 0.15935 0.6742 0.0
H582 H 0.52895 0.12211 0.66508 0.0
H583 H 0.56636 0.11131 0.61201 0.0
H584 H 0.09973 0.67833 0.35701 0.0
H585 H 0.08038 0.67234 0.29947 0.0
H586 H 1.00827 0.82199 0.28889 0.0
H587 H 0.02699 0.8278 0.34663 0.0
H588 H 0.948 0.74947 0.2705 0.0
H589 H 0.13223 0.7384 0.21045 0.0
H590 H 0.1258 0.6916 0.24707 0.0
H591 H 0.12544 0.75982 0.25002 0.0
C592 C 0.0811 0.71064 0.34214 0.0
C593 C 0.06479 0.75351 0.35631 0.0
C594 C 0.07013 0.70723 0.30919 0.0
C595 C 0.04326 0.74693 0.28971 0.0
C596 C 0.02911 0.79093 0.30342 0.0
H597 H 0.95887 0.7556 0.08284 0.0
H598 H 0.99935 0.7719 0.13394 0.0
C599 C 0.03976 0.7942 0.33639 0.0
C600 C 0.02474 0.73984 0.25653 0.0
H601 H 0.06093 0.71093 0.18161 0.0
C602 C 0.97281 0.74158 0.25098 0.0
C603 C 0.05706 0.72991 0.23094 0.0
C604 C 0.11326 0.73033 0.23475 0.0
C605 C 0.95221 0.73238 0.22096 0.0
C606 C 0.98432 0.71992 0.19596 0.0
C607 C 0.03636 0.7197 0.20102 0.0
C608 C 0.96406 0.70696 0.16453 0.0
C609 C 0.89617 0.73638 0.21622 0.0
C610 C 0.93215 0.66403 0.16465 0.0
C611 C 0.90885 0.65471 0.1356 0.0
C612 C 0.91735 0.68791 0.10579 0.0
C613 C 0.95142 0.72933 0.10541 0.0
C614 C 0.97461 0.73873 0.13457 0.0
H615 H 0.87868 0.75953 0.23375 0.0
H616 H 0.88656 0.75445 0.19072 0.0
H617 H 0.87954 0.69686 0.22064 0.0
H618 H 0.92431 0.63843 0.18742 0.0
H619 H 0.8832 0.6222 0.1367 0.0
H620 H 0.83569 0.28563 0.34836 0.0
H621 H 0.88543 0.28072 0.29928 0.0
H622 H 0.02115 0.29369 0.35469 0.0
H623 H 0.97136 0.29812 0.40443 0.0
H624 H 0.95371 0.35461 0.26829 0.0
H625 H 0.04424 0.16348 0.30983 0.0
H626 H 0.98996 0.18499 0.33011 0.0
H627 H 0.05049 0.21192 0.3365 0.0
C628 C 0.87612 0.28738 0.35027 0.0
C629 C 0.89956 0.29222 0.38036 0.0
C630 C 0.9045 0.28461 0.32212 0.0
C631 C 0.95697 0.28635 0.32339 0.0
C632 C 0.9807 0.29152 0.3533 0.0
H633 H 0.11283 0.32879 0.13258 0.0
H634 H 0.09515 0.33556 0.19029 0.0
C635 C 0.9522 0.29437 0.38162 0.0
C636 C 0.98598 0.28355 0.29294 0.0
H637 H 0.06221 0.20448 0.25597 0.0
C638 C 0.97801 0.32217 0.26567 0.0
C639 C 0.01727 0.24092 0.28962 0.0
C640 C 0.02595 0.19765 0.31792 0.0
C641 C 0.99911 0.31857 0.23485 0.0
C642 C 0.02987 0.27556 0.23133 0.0
C643 C 0.03903 0.23762 0.25884 0.0
C644 C 0.04832 0.26691 0.19853 0.0
C645 C 0.98613 0.35945 0.20591 0.0
C646 C 0.03025 0.22445 0.18466 0.0
C647 C 0.04078 0.22012 0.15188 0.0
C648 C 0.06961 0.25821 0.1323 0.0
C649 C 0.09063 0.29872 0.14698 0.0
C650 C 0.08015 0.30295 0.17986 0.0
H651 H 0.95435 0.38418 0.21143 0.0
H652 H 0.01908 0.385 0.19952 0.0
H653 H 0.9762 0.34124 0.18399 0.0
H654 H 1.0059 0.19599 0.1987 0.0
H655 H 0.02473 0.18799 0.14144 0.0
H656 H 0.21049 0.41287 0.85366 0.0
H657 H 0.16526 0.4211 0.80111 0.0
H658 H 0.05876 0.30566 0.84408 0.0
H659 H 0.10275 0.29804 0.89656 0.0
H660 H 0.15491 0.34486 0.76497 0.0
H661 H 0.96637 0.41172 0.79394 0.0
H662 H 0.01953 0.41539 0.82082 0.0
H663 H 0.98471 0.35572 0.82241 0.0
C664 C 0.17688 0.39 0.85206 0.0
C665 C 0.16034 0.35468 0.87926 0.0
C666 C 0.15105 0.39479 0.82205 0.0
C667 C 0.10816 0.36459 0.8188 0.0
C668 C 0.09091 0.33039 0.84619 0.0
H669 H 1.0156 0.23397 0.65069 0.0
H670 H 0.04238 0.25321 0.70462 0.0
C671 C 0.11652 0.3257 0.87615 0.0
C672 C 0.08482 0.36393 0.78606 0.0
H673 H 0.97201 0.36737 0.74626 0.0
C674 C 0.11505 0.35067 0.76074 0.0
C675 C 0.03292 0.37213 0.78036 0.0
C676 C 0.99915 0.39009 0.80575 0.0
C677 C 0.09445 0.34277 0.73048 0.0
C678 C 0.04201 0.34696 0.72572 0.0
C679 C 1.01205 0.36305 0.75029 0.0
C680 C 0.01803 0.33334 0.69563 0.0
C681 C 0.12911 0.32948 0.70399 0.0
C682 C 0.99238 0.371 0.67373 0.0
C683 C 0.97618 0.3597 0.64314 0.0
C684 C 0.98566 0.3107 0.63421 0.0
C685 C 1.00814 0.27207 0.6571 0.0
C686 C 0.02375 0.28316 0.6877 0.0
H687 H 0.16801 0.34288 0.70761 0.0
H688 H 0.1301 0.28669 0.70497 0.0
H689 H 0.11607 0.34714 0.6791 0.0
H690 H 0.9873 0.40983 0.67956 0.0
H691 H 0.95923 0.39013 0.62569 0.0
H692 H 0.23225 0.69151 0.6455 0.0
H693 H 0.18066 0.68454 0.69501 0.0
H694 H 0.05001 0.65636 0.63821 0.0
H695 H 0.1012 0.66367 0.58844 0.0
H696 H 0.03793 0.73674 0.67439 0.0
H697 H 0.11294 0.56238 0.75315 0.0
H698 H 0.16132 0.60698 0.73697 0.0
H699 H 0.12382 0.5756 0.70924 0.0
C700 C 0.19273 0.68288 0.64362 0.0
C701 C 0.17079 0.67837 0.61303 0.0
C702 C 0.16335 0.67857 0.67198 0.0
C703 C 0.11165 0.66937 0.67029 0.0
C704 C 0.08991 0.66316 0.64001 0.0
H705 H 0.94862 0.64749 0.85728 0.0
H706 H 0.9698 0.62955 0.80197 0.0
C707 C 0.11927 0.66735 0.61163 0.0
C708 C 0.07981 0.67173 0.69941 0.0
H709 H 0.06852 0.62343 0.78101 0.0
C710 C 0.04389 0.71134 0.69757 0.0
C711 C 0.08712 0.63809 0.72944 0.0
C712 C 0.12304 0.59302 0.7323 0.0
C713 C 0.01736 0.7203 0.72556 0.0
C714 C 0.02758 0.68924 0.75614 0.0
C715 C 0.06107 0.6475 0.75754 0.0
C716 C 1.00825 0.70264 0.78746 0.0
C717 C 0.97962 0.76379 0.72233 0.0
C718 C 0.02226 0.74993 0.79729 0.0
C719 C 1.01025 0.76019 0.82867 0.0
C720 C 0.9842 0.72324 0.85084 0.0
C721 C 0.96825 0.67683 0.8405 0.0
C722 C 0.98053 0.66644 0.80907 0.0
H723 H 0.9644 0.77216 0.69686 0.0
H724 H 0.94804 0.75436 0.73978 0.0
H725 H 0.9982 0.79961 0.72793 0.0
H726 H 0.04448 0.77795 0.78123 0.0
H727 H 0.02284 0.7963 0.83605 0.0
loop_
_geom_bond_atom_site_label_1
_geom_bond_atom_site_label_2
_geom_bond_distance
_geom_bond_site_symmetry_2
_ccdc_geom_bond_type
C0 C1 1.386 . S
C0 C5 1.384 . S
C0 C16 1.497 . S
C1 C0 1.386 . S
C1 C2 1.393 . S
C1 H32 0.932 . S
C2 C1 1.393 . S
C2 C3 1.387 . S
C3 C2 1.387 . S
C3 C4 1.392 . S
C3 H33 0.930 1_455 S
C4 C3 1.392 . S
C4 C5 1.402 . S
C5 C0 1.384 . S
C5 C4 1.402 . S
C5 H34 0.930 . S
O6 Tb7 2.288 . S
O6 C19 1.266 . S
Tb7 O6 2.288 . S
Tb7 O9 2.303 . S
Tb7 O11 2.430 . S
Tb7 O13 2.459 1_556 S
Tb7 O15 2.301 . S
Tb7 C16 2.808 1_556 S
Tb8 O10 2.301 . S
Tb8 C12 2.808 1_554 S
Tb8 O14 2.288 . S
Tb8 O21 2.303 . S
Tb8 O30 2.430 . S
Tb8 O31 2.459 1_554 S
O9 Tb7 2.303 . S
O9 C28 1.255 . S
O10 Tb8 2.301 . S
O10 C19 1.224 1_554 S
O11 Tb7 2.430 . S
O11 C16 1.248 1_556 S
C12 Tb8 2.808 1_556 S
C12 C22 1.497 . S
C12 O30 1.248 1_556 S
C12 O31 1.260 . S
O13 Tb7 2.459 1_554 S
O13 C16 1.260 . S
O14 Tb8 2.288 . S
O14 C20 1.257 . S
O15 Tb7 2.301 . S
O15 C20 1.237 1_556 S
C16 C0 1.497 . S
C16 Tb7 2.808 1_554 S
C16 O11 1.248 1_554 S
C16 O13 1.260 . S
C17 O18 1.255 . S
C17 O21 1.255 . S
O18 C17 1.255 . S
C19 O6 1.266 . S
C19 O10 1.224 1_556 S
C20 O14 1.257 . S
C20 O15 1.237 1_554 S
O21 Tb8 2.303 . S
O21 C17 1.255 . S
C22 C12 1.497 . S
C22 C24 1.384 . S
C22 C25 1.386 . S
C23 C24 1.402 . S
C23 C27 1.392 . S
C24 C22 1.384 . S
C24 C23 1.402 . S
C24 H35 0.930 . S
C25 C22 1.386 . S
C25 C26 1.393 . S
C25 H36 0.932 . S
C26 C25 1.393 . S
C26 C27 1.387 . S
C27 C23 1.392 . S
C27 C26 1.387 . S
C27 H37 0.930 . S
C28 O9 1.255 . S
C28 O29 1.255 . S
O29 C28 1.255 . S
O30 Tb8 2.430 . S
O30 C12 1.248 1_554 S
O31 Tb8 2.459 1_556 S
O31 C12 1.260 . S
H32 C1 0.932 . S
H33 C3 0.930 1_655 S
H34 C5 0.930 . S
H35 C24 0.930 . S
H36 C25 0.932 . S
H37 C27 0.930 . S
C38 C39 1.386 . S
C38 C43 1.384 . S
C38 C54 1.497 . S
C39 C38 1.386 . S
C39 C40 1.393 . S
C39 H70 0.932 . S
C40 C39 1.393 . S
C40 C41 1.387 . S
C41 C40 1.387 . S
C41 C42 1.392 . S
C41 H71 0.930 . S
C42 C41 1.392 . S
C42 C43 1.402 . S
C43 C38 1.384 . S
C43 C42 1.402 . S
C43 H72 0.930 . S
O44 Tb45 2.288 . S
O44 C57 1.266 . S
Tb45 O44 2.288 . S
Tb45 O47 2.303 . S
Tb45 O49 2.430 . S
Tb45 O51 2.459 1_556 S
Tb45 O53 2.301 . S
Tb45 C54 2.808 1_556 S
Tb46 O48 2.301 . S
Tb46 C50 2.808 1_554 S
Tb46 O52 2.288 . S
Tb46 O59 2.303 . S
Tb46 O68 2.430 . S
Tb46 O69 2.459 1_554 S
O47 Tb45 2.303 . S
O47 C66 1.255 . S
O48 Tb46 2.301 . S
O48 C57 1.224 1_554 S
O49 Tb45 2.430 . S
O49 C54 1.248 1_556 S
C50 Tb46 2.808 1_556 S
C50 C60 1.497 . S
C50 O68 1.248 1_556 S
C50 O69 1.260 . S
O51 Tb45 2.459 1_554 S
O51 C54 1.260 . S
O52 Tb46 2.288 . S
O52 C58 1.257 . S
O53 Tb45 2.301 . S
O53 C58 1.237 1_556 S
C54 C38 1.497 . S
C54 Tb45 2.808 1_554 S
C54 O49 1.248 1_554 S
C54 O51 1.260 . S
C55 O56 1.255 . S
C55 O59 1.255 . S
O56 C55 1.255 . S
C57 O44 1.266 . S
C57 O48 1.224 1_556 S
C58 O52 1.257 . S
C58 O53 1.237 1_554 S
O59 Tb46 2.303 . S
O59 C55 1.255 . S
C60 C50 1.497 . S
C60 C62 1.384 . S
C60 C63 1.386 . S
C61 C62 1.402 . S
C61 C65 1.392 . S
C62 C60 1.384 . S
C62 C61 1.402 . S
C62 H73 0.930 . S
C63 C60 1.386 . S
C63 C64 1.393 . S
C63 H74 0.932 . S
C64 C63 1.393 . S
C64 C65 1.387 . S
C65 C61 1.392 . S
C65 C64 1.387 . S
C65 H75 0.930 1_655 S
C66 O47 1.255 . S
C66 O67 1.255 . S
O67 C66 1.255 . S
O68 Tb46 2.430 . S
O68 C50 1.248 1_554 S
O69 Tb46 2.459 1_556 S
O69 C50 1.260 . S
H70 C39 0.932 . S
H71 C41 0.930 . S
H72 C43 0.930 . S
H73 C62 0.930 . S
H74 C63 0.932 . S
H75 C65 0.930 1_455 S
C76 C77 1.386 . S
C76 C81 1.384 . S
C76 C92 1.497 . S
C77 C76 1.386 . S
C77 C78 1.393 . S
C77 H108 0.932 . S
C78 C77 1.393 . S
C78 C79 1.387 . S
C79 C78 1.387 . S
C79 C80 1.392 . S
C79 H109 0.930 1_455 S
C80 C79 1.392 . S
C80 C81 1.402 . S
C81 C76 1.384 . S
C81 C80 1.402 . S
C81 H110 0.930 . S
O82 Tb83 2.288 . S
O82 C95 1.257 . S
Tb83 O82 2.288 . S
Tb83 O85 2.303 . S
Tb83 O87 2.430 . S
Tb83 O89 2.459 . S
Tb83 O91 2.301 . S
Tb83 C92 2.808 . S
Tb84 O86 2.301 . S
Tb84 C88 2.808 . S
Tb84 O90 2.288 . S
Tb84 O97 2.303 . S
Tb84 O106 2.430 . S
Tb84 O107 2.459 . S
O85 Tb83 2.303 . S
O85 C104 1.255 . S
O86 Tb84 2.301 . S
O86 C95 1.237 . S
O87 Tb83 2.430 . S
O87 C92 1.248 . S
C88 Tb84 2.808 . S
C88 C98 1.497 . S
C88 O106 1.248 . S
C88 O107 1.260 . S
O89 Tb83 2.459 . S
O89 C92 1.260 . S
O90 Tb84 2.288 . S
O90 C96 1.257 . S
O91 Tb83 2.301 . S
O91 C96 1.237 . S
C92 C76 1.497 . S
C92 Tb83 2.808 . S
C92 O87 1.248 . S
C92 O89 1.260 . S
C93 O94 1.255 . S
C93 O97 1.255 . S
O94 C93 1.255 . S
C95 O82 1.257 . S
C95 O86 1.237 . S
C96 O90 1.257 . S
C96 O91 1.237 . S
O97 Tb84 2.303 . S
O97 C93 1.255 . S
C98 C88 1.497 . S
C98 C100 1.384 . S
C98 C101 1.386 . S
C99 C100 1.402 . S
C99 C103 1.392 . S
C100 C98 1.384 . S
C100 C99 1.402 . S
C100 H111 0.930 . S
C101 C98 1.386 . S
C101 C102 1.393 . S
C101 H112 0.932 . S
C102 C101 1.393 . S
C102 C103 1.387 . S
C103 C99 1.392 . S
C103 C102 1.387 . S
C103 H113 0.930 . S
C104 O85 1.255 . S
C104 O105 1.255 . S
O105 C104 1.255 . S
O106 Tb84 2.430 . S
O106 C88 1.248 . S
O107 Tb84 2.459 . S
O107 C88 1.260 . S
H108 C77 0.932 . S
H109 C79 0.930 1_655 S
H110 C81 0.930 . S
H111 C100 0.930 . S
H112 C101 0.932 . S
H113 C103 0.930 . S
C114 C115 1.386 . S
C114 C119 1.384 . S
C114 C130 1.497 . S
C115 C114 1.386 . S
C115 C116 1.393 . S
C115 H146 0.932 . S
C116 C115 1.393 . S
C116 C117 1.387 . S
C117 C116 1.387 . S
C117 C118 1.392 . S
C117 H147 0.930 . S
C118 C117 1.392 . S
C118 C119 1.402 . S
C119 C114 1.384 . S
C119 C118 1.402 . S
C119 H148 0.930 . S
O120 Tb121 2.288 . S
O120 C133 1.257 . S
Tb121 O120 2.288 . S
Tb121 O123 2.303 . S
Tb121 O125 2.430 . S
Tb121 O127 2.459 . S
Tb121 O129 2.301 . S
Tb121 C130 2.808 . S
Tb122 O124 2.301 . S
Tb122 C126 2.808 . S
Tb122 O128 2.288 . S
Tb122 O135 2.303 . S
Tb122 O144 2.430 . S
Tb122 O145 2.459 . S
O123 Tb121 2.303 . S
O123 C142 1.255 . S
O124 Tb122 2.301 . S
O124 C133 1.237 . S
O125 Tb121 2.430 . S
O125 C130 1.248 . S
C126 Tb122 2.808 . S
C126 C136 1.497 . S
C126 O144 1.248 . S
C126 O145 1.260 . S
O127 Tb121 2.459 . S
O127 C130 1.260 . S
O128 Tb122 2.288 . S
O128 C134 1.257 . S
O129 Tb121 2.301 . S
O129 C134 1.237 . S
C130 C114 1.497 . S
C130 Tb121 2.808 . S
C130 O125 1.248 . S
C130 O127 1.260 . S
C131 O132 1.255 . S
C131 O135 1.255 . S
O132 C131 1.255 . S
C133 O120 1.257 . S
C133 O124 1.237 . S
C134 O128 1.257 . S
C134 O129 1.237 . S
O135 Tb122 2.303 . S
O135 C131 1.255 . S
C136 C126 1.497 . S
C136 C138 1.384 . S
C136 C139 1.386 . S
C137 C138 1.402 . S
C137 C141 1.392 . S
C138 C136 1.384 . S
C138 C137 1.402 . S
C138 H149 0.930 . S
C139 C136 1.386 . S
C139 C140 1.393 . S
C139 H150 0.932 . S
C140 C139 1.393 . S
C140 C141 1.387 . S
C141 C137 1.392 . S
C141 C140 1.387 . S
C141 H151 0.930 1_655 S
C142 O123 1.255 . S
C142 O143 1.255 . S
O143 C142 1.255 . S
O144 Tb122 2.430 . S
O144 C126 1.248 . S
O145 Tb122 2.459 . S
O145 C126 1.260 . S
H146 C115 0.932 . S
H147 C117 0.930 . S
H148 C119 0.930 . S
H149 C138 0.930 . S
H150 C139 0.932 . S
H151 C141 0.930 1_455 S
H152 C160 0.929 . S
H153 C162 0.930 . S
H154 C164 0.930 1_554 S
H155 C167 0.929 . S
H156 C170 0.930 . S
H157 C172 0.960 . S
H158 C172 0.960 . S
H159 C172 0.960 . S
C160 H152 0.929 . S
C160 C161 1.377 . S
C160 C162 1.384 . S
C161 C160 1.377 . S
C161 C167 1.390 . S
C162 H153 0.930 . S
C162 C160 1.384 . S
C162 C163 1.372 . S
C163 C162 1.372 . S
C163 C164 1.400 . S
C163 C168 1.490 . S
C164 H154 0.930 1_556 S
C164 C163 1.400 . S
C164 C167 1.386 . S
H165 C181 0.930 . S
H166 C182 0.931 . S
C167 H155 0.929 . S
C167 C161 1.390 . S
C167 C164 1.386 . S
C168 C163 1.490 . S
C168 C170 1.395 . S
C168 C171 1.403 1_556 S
H169 C175 0.930 . S
C170 H156 0.930 . S
C170 C168 1.395 . S
C170 C173 1.403 . S
C171 C168 1.403 1_554 S
C171 C172 1.524 . S
C171 C175 1.400 . S
C172 H157 0.960 . S
C172 H158 0.960 . S
C172 H159 0.960 . S
C172 C171 1.524 . S
C173 C170 1.403 . S
C173 C174 1.392 1_556 S
C173 C177 1.495 . S
C174 C173 1.392 1_554 S
C174 C175 1.385 . S
C174 C176 1.478 . S
C175 H169 0.930 . S
C175 C171 1.400 . S
C175 C174 1.385 . S
C176 C174 1.478 . S
C176 C178 1.381 . S
C176 C182 1.383 . S
C177 C173 1.495 . S
C177 H183 0.959 . S
C177 H184 0.961 . S
C177 H185 0.960 . S
C178 C176 1.381 . S
C178 C179 1.394 . S
C178 H186 0.930 1_554 S
C179 C178 1.394 . S
C179 C180 1.383 . S
C179 H187 0.929 . S
C180 C179 1.383 . S
C180 C181 1.377 . S
C181 H165 0.930 . S
C181 C180 1.377 . S
C181 C182 1.379 . S
C182 H166 0.931 . S
C182 C176 1.383 . S
C182 C181 1.379 . S
H183 C177 0.959 . S
H184 C177 0.961 . S
H185 C177 0.960 . S
H186 C178 0.930 1_556 S
H187 C179 0.929 . S
H188 C196 0.929 . S
H189 C198 0.930 . S
H190 C200 0.930 1_554 S
H191 C203 0.929 . S
H192 C206 0.930 . S
H193 C208 0.960 . S
H194 C208 0.960 . S
H195 C208 0.960 . S
C196 H188 0.929 . S
C196 C197 1.377 . S
C196 C198 1.384 . S
C197 C196 1.377 . S
C197 C203 1.390 . S
C198 H189 0.930 . S
C198 C196 1.384 . S
C198 C199 1.372 . S
C199 C198 1.372 . S
C199 C200 1.400 . S
C199 C204 1.490 . S
C200 H190 0.930 1_556 S
C200 C199 1.400 . S
C200 C203 1.386 . S
H201 C217 0.930 . S
H202 C218 0.931 . S
C203 H191 0.929 . S
C203 C197 1.390 . S
C203 C200 1.386 . S
C204 C199 1.490 . S
C204 C206 1.395 . S
C204 C207 1.403 1_556 S
H205 C211 0.930 . S
C206 H192 0.930 . S
C206 C204 1.395 . S
C206 C209 1.403 . S
C207 C204 1.403 1_554 S
C207 C208 1.524 . S
C207 C211 1.400 . S
C208 H193 0.960 . S
C208 H194 0.960 . S
C208 H195 0.960 . S
C208 C207 1.524 . S
C209 C206 1.403 . S
C209 C210 1.392 1_556 S
C209 C213 1.495 . S
C210 C209 1.392 1_554 S
C210 C211 1.385 . S
C210 C212 1.478 . S
C211 H205 0.930 . S
C211 C207 1.400 . S
C211 C210 1.385 . S
C212 C210 1.478 . S
C212 C214 1.381 . S
C212 C218 1.383 . S
C213 C209 1.495 . S
C213 H219 0.959 . S
C213 H220 0.961 . S
C213 H221 0.960 . S
C214 C212 1.381 . S
C214 C215 1.394 . S
C214 H222 0.930 1_554 S
C215 C214 1.394 . S
C215 C216 1.383 . S
C215 H223 0.929 . S
C216 C215 1.383 . S
C216 C217 1.377 . S
C217 H201 0.930 . S
C217 C216 1.377 . S
C217 C218 1.379 . S
C218 H202 0.931 . S
C218 C212 1.383 . S
C218 C217 1.379 . S
H219 C213 0.959 . S
H220 C213 0.961 . S
H221 C213 0.960 . S
H222 C214 0.930 1_556 S
H223 C215 0.929 . S
H224 C232 0.929 . S
H225 C234 0.930 . S
H226 C236 0.930 . S
H227 C239 0.929 . S
H228 C242 0.930 . S
H229 C244 0.960 . S
H230 C244 0.960 . S
H231 C244 0.960 . S
C232 H224 0.929 . S
C232 C233 1.377 . S
C232 C234 1.384 . S
C233 C232 1.377 . S
C233 C239 1.390 . S
C234 H225 0.930 . S
C234 C232 1.384 . S
C234 C235 1.372 . S
C235 C234 1.372 . S
C235 C236 1.400 . S
C235 C240 1.490 . S
C236 H226 0.930 . S
C236 C235 1.400 . S
C236 C239 1.386 . S
H237 C253 0.930 . S
H238 C254 0.931 . S
C239 H227 0.929 . S
C239 C233 1.390 . S
C239 C236 1.386 . S
C240 C235 1.490 . S
C240 C242 1.395 . S
C240 C243 1.403 . S
H241 C247 0.930 . S
C242 H228 0.930 . S
C242 C240 1.395 . S
C242 C245 1.403 . S
C243 C240 1.403 . S
C243 C244 1.524 . S
C243 C247 1.400 . S
C244 H229 0.960 . S
C244 H230 0.960 . S
C244 H231 0.960 . S
C244 C243 1.524 . S
C245 C242 1.403 . S
C245 C246 1.392 . S
C245 C249 1.495 . S
C246 C245 1.392 . S
C246 C247 1.385 . S
C246 C248 1.478 . S
C247 H241 0.930 . S
C247 C243 1.400 . S
C247 C246 1.385 . S
C248 C246 1.478 . S
C248 C250 1.381 . S
C248 C254 1.383 . S
C249 C245 1.495 . S
C249 H255 0.959 . S
C249 H256 0.961 . S
C249 H257 0.960 . S
C250 C248 1.381 . S
C250 C251 1.394 . S
C250 H258 0.930 . S
C251 C250 1.394 . S
C251 C252 1.383 . S
C251 H259 0.929 . S
C252 C251 1.383 . S
C252 C253 1.377 . S
C253 H237 0.930 . S
C253 C252 1.377 . S
C253 C254 1.379 . S
C254 H238 0.931 . S
C254 C248 1.383 . S
C254 C253 1.379 . S
H255 C249 0.959 . S
H256 C249 0.961 . S
H257 C249 0.960 . S
H258 C250 0.930 . S
H259 C251 0.929 . S
H260 C268 0.929 . S
H261 C270 0.930 . S
H262 C272 0.930 . S
H263 C275 0.929 . S
H264 C278 0.930 . S
H265 C280 0.960 . S
H266 C280 0.960 . S
H267 C280 0.960 . S
C268 H260 0.929 . S
C268 C269 1.377 . S
C268 C270 1.384 . S
C269 C268 1.377 . S
C269 C275 1.390 . S
C270 H261 0.930 . S
C270 C268 1.384 . S
C270 C271 1.372 . S
C271 C270 1.372 . S
C271 C272 1.400 . S
C271 C276 1.490 . S
C272 H262 0.930 . S
C272 C271 1.400 . S
C272 C275 1.386 . S
H273 C289 0.930 . S
H274 C290 0.931 . S
C275 H263 0.929 . S
C275 C269 1.390 . S
C275 C272 1.386 . S
C276 C271 1.490 . S
C276 C278 1.395 . S
C276 C279 1.403 . S
H277 C283 0.930 . S
C278 H264 0.930 . S
C278 C276 1.395 . S
C278 C281 1.403 . S
C279 C276 1.403 . S
C279 C280 1.524 . S
C279 C283 1.400 . S
C280 H265 0.960 . S
C280 H266 0.960 . S
C280 H267 0.960 . S
C280 C279 1.524 . S
C281 C278 1.403 . S
C281 C282 1.392 . S
C281 C285 1.495 . S
C282 C281 1.392 . S
C282 C283 1.385 . S
C282 C284 1.478 . S
C283 H277 0.930 . S
C283 C279 1.400 . S
C283 C282 1.385 . S
C284 C282 1.478 . S
C284 C286 1.381 . S
C284 C290 1.383 . S
C285 C281 1.495 . S
C285 H291 0.959 . S
C285 H292 0.961 . S
C285 H293 0.960 . S
C286 C284 1.381 . S
C286 C287 1.394 . S
C286 H294 0.930 . S
C287 C286 1.394 . S
C287 C288 1.383 . S
C287 H295 0.929 . S
C288 C287 1.383 . S
C288 C289 1.377 . S
C289 H273 0.930 . S
C289 C288 1.377 . S
C289 C290 1.379 . S
C290 H274 0.931 . S
C290 C284 1.383 . S
C290 C289 1.379 . S
H291 C285 0.959 . S
H292 C285 0.961 . S
H293 C285 0.960 . S
H294 C286 0.930 . S
H295 C287 0.929 . S
H296 C304 0.929 . S
H297 C306 0.930 . S
H298 C308 0.930 . S
H299 C311 0.929 . S
H300 C314 0.930 . S
H301 C316 0.966 . S
H302 C316 0.939 1_554 S
H303 C316 0.979 . S
C304 H296 0.929 . S
C304 C305 1.377 1_554 S
C304 C306 1.384 . S
C305 C304 1.377 1_556 S
C305 C311 1.390 . S
C306 H297 0.930 . S
C306 C304 1.384 . S
C306 C307 1.372 . S
C307 C306 1.372 . S
C307 C308 1.400 1_554 S
C307 C312 1.490 . S
C308 H298 0.930 . S
C308 C307 1.400 1_556 S
C308 C311 1.386 . S
H309 C325 0.930 . S
H310 C326 0.931 . S
C311 H299 0.929 . S
C311 C305 1.390 . S
C311 C308 1.386 . S
C312 C307 1.490 . S
C312 C314 1.395 . S
C312 C315 1.405 . S
H313 C319 0.927 1_556 S
C314 H300 0.930 . S
C314 C312 1.395 . S
C314 C317 1.403 . S
C315 C312 1.405 . S
C315 C316 1.520 1_554 S
C315 C319 1.400 . S
C316 H301 0.966 . S
C316 H302 0.939 1_556 S
C316 H303 0.979 . S
C316 C315 1.520 1_556 S
C317 C314 1.403 . S
C317 C318 1.392 . S
C317 C321 1.495 . S
C318 C317 1.392 . S
C318 C319 1.387 . S
C318 C320 1.478 . S
C319 H313 0.927 1_554 S
C319 C315 1.400 . S
C319 C318 1.387 . S
C320 C318 1.478 . S
C320 C322 1.381 . S
C320 C326 1.383 1_554 S
C321 C317 1.495 . S
C321 H327 0.959 . S
C321 H328 0.961 1_554 S
C321 H329 0.960 . S
C322 C320 1.381 . S
C322 C323 1.394 . S
C322 H330 0.930 . S
C323 C322 1.394 . S
C323 C324 1.383 . S
C323 H331 0.929 . S
C324 C323 1.383 . S
C324 C325 1.377 1_554 S
C325 H309 0.930 . S
C325 C324 1.377 1_556 S
C325 C326 1.379 . S
C326 H310 0.931 . S
C326 C320 1.383 1_556 S
C326 C325 1.379 . S
H327 C321 0.959 . S
H328 C321 0.961 1_556 S
H329 C321 0.960 . S
H330 C322 0.930 . S
H331 C323 0.929 . S
H332 C340 0.929 . S
H333 C342 0.930 . S
H334 C344 0.930 . S
H335 C347 0.929 . S
H336 C350 0.930 . S
H337 C352 0.960 . S
H338 C352 0.960 . S
H339 C352 0.960 . S
C340 H332 0.929 . S
C340 C341 1.377 . S
C340 C342 1.384 . S
C341 C340 1.377 . S
C341 C347 1.390 . S
C342 H333 0.930 . S
C342 C340 1.384 . S
C342 C343 1.372 . S
C343 C342 1.372 . S
C343 C344 1.400 . S
C343 C348 1.490 . S
C344 H334 0.930 . S
C344 C343 1.400 . S
C344 C347 1.386 . S
H345 C361 0.930 . S
H346 C362 0.931 . S
C347 H335 0.929 . S
C347 C341 1.390 . S
C347 C344 1.386 . S
C348 C343 1.490 . S
C348 C350 1.395 . S
C348 C351 1.403 . S
H349 C355 0.930 . S
C350 H336 0.930 . S
C350 C348 1.395 . S
C350 C353 1.403 . S
C351 C348 1.403 . S
C351 C352 1.524 . S
C351 C355 1.400 . S
C352 H337 0.960 . S
C352 H338 0.960 . S
C352 H339 0.960 . S
C352 C351 1.524 . S
C353 C350 1.403 . S
C353 C354 1.392 . S
C353 C357 1.495 . S
C354 C353 1.392 . S
C354 C355 1.385 . S
C354 C356 1.478 . S
C355 H349 0.930 . S
C355 C351 1.400 . S
C355 C354 1.385 . S
C356 C354 1.478 . S
C356 C358 1.381 . S
C356 C362 1.383 . S
C357 C353 1.495 . S
C357 H363 0.959 . S
C357 H364 0.961 . S
C357 H365 0.960 . S
C358 C356 1.381 . S
C358 C359 1.394 . S
C358 H366 0.930 . S
C359 C358 1.394 . S
C359 C360 1.383 . S
C359 H367 0.929 . S
C360 C359 1.383 . S
C360 C361 1.377 . S
C361 H345 0.930 . S
C361 C360 1.377 . S
C361 C362 1.379 . S
C362 H346 0.931 . S
C362 C356 1.383 . S
C362 C361 1.379 . S
H363 C357 0.959 . S
H364 C357 0.961 . S
H365 C357 0.960 . S
H366 C358 0.930 . S
H367 C359 0.929 . S
H368 C376 0.929 . S
H369 C378 0.930 . S
H370 C380 0.930 . S
H371 C383 0.929 . S
H372 C386 0.930 . S
H373 C388 0.960 1_565 S
H374 C388 0.960 . S
H375 C388 0.960 1_565 S
C376 H368 0.929 . S
C376 C377 1.377 . S
C376 C378 1.384 . S
C377 C376 1.377 . S
C377 C383 1.390 1_556 S
C378 H369 0.930 . S
C378 C376 1.384 . S
C378 C379 1.374 . S
C379 C378 1.374 . S
C379 C380 1.395 1_556 S
C379 C384 1.493 . S
C380 H370 0.930 . S
C380 C379 1.395 1_554 S
C380 C383 1.386 . S
H381 C397 0.930 . S
H382 C398 0.931 . S
C383 H371 0.929 . S
C383 C377 1.390 1_554 S
C383 C380 1.386 . S
C384 C379 1.493 . S
C384 C386 1.395 . S
C384 C387 1.403 1_556 S
H385 C391 0.930 . S
C386 H372 0.930 . S
C386 C384 1.395 . S
C386 C389 1.403 1_455 S
C387 C384 1.403 1_554 S
C387 C388 1.524 . S
C387 C391 1.400 1_445 S
C388 H373 0.960 1_545 S
C388 H374 0.960 . S
C388 H375 0.960 1_545 S
C388 C387 1.524 . S
C389 C386 1.403 1_655 S
C389 C390 1.392 1_545 S
C389 C393 1.495 . S
C390 C389 1.392 1_565 S
C390 C391 1.385 1_556 S
C390 C392 1.478 . S
C391 H385 0.930 . S
C391 C387 1.400 1_665 S
C391 C390 1.385 1_554 S
C392 C390 1.478 . S
C392 C394 1.381 . S
C392 C398 1.383 1_556 S
C393 C389 1.495 . S
C393 H399 0.959 . S
C393 H400 0.961 1_545 S
C393 H401 0.960 . S
C394 C392 1.381 . S
C394 C395 1.394 . S
C394 H402 0.930 . S
C395 C394 1.394 . S
C395 C396 1.383 1_556 S
C395 H403 0.929 . S
C396 C395 1.383 1_554 S
C396 C397 1.379 . S
C397 H381 0.930 . S
C397 C396 1.379 . S
C397 C398 1.379 . S
C398 H382 0.931 . S
C398 C392 1.383 1_554 S
C398 C397 1.379 . S
H399 C393 0.959 . S
H400 C393 0.961 1_565 S
H401 C393 0.960 . S
H402 C394 0.930 . S
H403 C395 0.929 . S
H404 C412 0.929 . S
H405 C414 0.930 . S
H406 C416 0.930 . S
H407 C419 0.929 . S
H408 C422 0.930 . S
H409 C424 0.960 1_455 S
H410 C424 0.960 1_455 S
H411 C424 0.960 . S
C412 H404 0.929 . S
C412 C413 1.377 . S
C412 C414 1.384 . S
C413 C412 1.377 . S
C413 C419 1.390 . S
C414 H405 0.930 . S
C414 C412 1.384 . S
C414 C415 1.372 . S
C415 C414 1.372 . S
C415 C416 1.400 . S
C415 C420 1.490 . S
C416 H406 0.930 . S
C416 C415 1.400 . S
C416 C419 1.386 . S
H417 C433 0.930 . S
H418 C434 0.931 . S
C419 H407 0.929 . S
C419 C413 1.390 . S
C419 C416 1.386 . S
C420 C415 1.490 . S
C420 C422 1.395 1_545 S
C420 C423 1.403 . S
H421 C427 0.930 . S
C422 H408 0.930 . S
C422 C420 1.395 1_565 S
C422 C425 1.403 1_655 S
C423 C420 1.403 . S
C423 C424 1.524 . S
C423 C427 1.400 1_655 S
C424 H409 0.960 1_655 S
C424 H410 0.960 1_655 S
C424 H411 0.960 . S
C424 C423 1.524 . S
C425 C422 1.403 1_455 S
C425 C426 1.392 . S
C425 C429 1.495 . S
C426 C425 1.392 . S
C426 C427 1.385 1_565 S
C426 C428 1.478 . S
C427 H421 0.930 . S
C427 C423 1.400 1_455 S
C427 C426 1.385 1_545 S
C428 C426 1.478 . S
C428 C430 1.381 . S
C428 C434 1.383 . S
C429 C425 1.495 . S
C429 H435 0.959 1_455 S
C429 H436 0.962 . S
C429 H437 0.960 . S
C430 C428 1.381 . S
C430 C431 1.394 . S
C430 H438 0.930 . S
C431 C430 1.394 . S
C431 C432 1.383 . S
C431 H439 0.929 . S
C432 C431 1.383 . S
C432 C433 1.377 . S
C433 H417 0.930 . S
C433 C432 1.377 . S
C433 C434 1.379 . S
C434 H418 0.931 . S
C434 C428 1.383 . S
C434 C433 1.379 . S
H435 C429 0.959 1_655 S
H436 C429 0.962 . S
H437 C429 0.960 . S
H438 C430 0.930 . S
H439 C431 0.929 . S
H440 C448 0.929 . S
H441 C450 0.930 . S
H442 C452 0.930 . S
H443 C455 0.929 . S
H444 C458 0.930 . S
H445 C460 0.960 . S
H446 C460 0.960 . S
H447 C460 0.960 . S
C448 H440 0.929 . S
C448 C449 1.377 . S
C448 C450 1.384 . S
C449 C448 1.377 . S
C449 C455 1.390 . S
C450 H441 0.930 . S
C450 C448 1.384 . S
C450 C451 1.372 . S
C451 C450 1.372 . S
C451 C452 1.400 . S
C451 C456 1.490 . S
C452 H442 0.930 . S
C452 C451 1.400 . S
C452 C455 1.386 . S
H453 C469 0.930 . S
H454 C470 0.931 . S
C455 H443 0.929 . S
C455 C449 1.390 . S
C455 C452 1.386 . S
C456 C451 1.490 . S
C456 C458 1.395 . S
C456 C459 1.403 . S
H457 C463 0.930 . S
C458 H444 0.930 . S
C458 C456 1.395 . S
C458 C461 1.403 . S
C459 C456 1.403 . S
C459 C460 1.524 . S
C459 C463 1.400 . S
C460 H445 0.960 . S
C460 H446 0.960 . S
C460 H447 0.960 . S
C460 C459 1.524 . S
C461 C458 1.403 . S
C461 C462 1.392 . S
C461 C465 1.495 . S
C462 C461 1.392 . S
C462 C463 1.385 . S
C462 C464 1.478 . S
C463 H457 0.930 . S
C463 C459 1.400 . S
C463 C462 1.385 . S
C464 C462 1.478 . S
C464 C466 1.381 . S
C464 C470 1.383 . S
C465 C461 1.495 . S
C465 H471 0.959 . S
C465 H472 0.961 . S
C465 H473 0.960 . S
C466 C464 1.381 . S
C466 C467 1.394 . S
C466 H474 0.930 . S
C467 C466 1.394 . S
C467 C468 1.383 . S
C467 H475 0.929 . S
C468 C467 1.383 . S
C468 C469 1.377 . S
C469 H453 0.930 . S
C469 C468 1.377 . S
C469 C470 1.379 . S
C470 H454 0.931 . S
C470 C464 1.383 . S
C470 C469 1.379 . S
H471 C465 0.959 . S
H472 C465 0.961 . S
H473 C465 0.960 . S
H474 C466 0.930 . S
H475 C467 0.929 . S
H476 C484 0.929 . S
H477 C486 0.930 . S
H478 C488 0.930 . S
H479 C491 0.929 . S
H480 C494 0.930 . S
H481 C496 0.960 . S
H482 C496 0.960 . S
H483 C496 0.960 . S
C484 H476 0.929 . S
C484 C485 1.377 . S
C484 C486 1.384 . S
C485 C484 1.377 . S
C485 C491 1.390 . S
C486 H477 0.930 . S
C486 C484 1.384 . S
C486 C487 1.372 . S
C487 C486 1.372 . S
C487 C488 1.400 . S
C487 C492 1.490 . S
C488 H478 0.930 . S
C488 C487 1.400 . S
C488 C491 1.386 . S
H489 C505 0.930 . S
H490 C506 0.931 . S
C491 H479 0.929 . S
C491 C485 1.390 . S
C491 C488 1.386 . S
C492 C487 1.490 . S
C492 C494 1.395 . S
C492 C495 1.403 . S
H493 C499 0.930 . S
C494 H480 0.930 . S
C494 C492 1.395 . S
C494 C497 1.403 . S
C495 C492 1.403 . S
C495 C496 1.524 . S
C495 C499 1.400 . S
C496 H481 0.960 . S
C496 H482 0.960 . S
C496 H483 0.960 . S
C496 C495 1.524 . S
C497 C494 1.403 . S
C497 C498 1.392 . S
C497 C501 1.495 . S
C498 C497 1.392 . S
C498 C499 1.385 . S
C498 C500 1.478 . S
C499 H493 0.930 . S
C499 C495 1.400 . S
C499 C498 1.385 . S
C500 C498 1.478 . S
C500 C502 1.381 . S
C500 C506 1.383 . S
C501 C497 1.495 . S
C501 H507 0.959 . S
C501 H508 0.961 . S
C501 H509 0.960 . S
C502 C500 1.381 . S
C502 C503 1.394 . S
C502 H510 0.930 . S
C503 C502 1.394 . S
C503 C504 1.383 . S
C503 H511 0.929 . S
C504 C503 1.383 . S
C504 C505 1.377 . S
C505 H489 0.930 . S
C505 C504 1.377 . S
C505 C506 1.379 . S
C506 H490 0.931 . S
C506 C500 1.383 . S
C506 C505 1.379 . S
H507 C501 0.959 . S
H508 C501 0.961 . S
H509 C501 0.960 . S
H510 C502 0.930 . S
H511 C503 0.929 . S
H512 C520 0.929 . S
H513 C522 0.930 . S
H514 C524 0.930 . S
H515 C527 0.929 . S
H516 C530 0.930 . S
H517 C532 0.960 . S
H518 C532 0.960 . S
H519 C532 0.960 . S
C520 H512 0.929 . S
C520 C521 1.377 . S
C520 C522 1.384 . S
C521 C520 1.377 . S
C521 C527 1.390 . S
C522 H513 0.930 . S
C522 C520 1.384 . S
C522 C523 1.372 . S
C523 C522 1.372 . S
C523 C524 1.400 . S
C523 C528 1.490 . S
C524 H514 0.930 . S
C524 C523 1.400 . S
C524 C527 1.386 . S
H525 C541 0.930 . S
H526 C542 0.931 . S
C527 H515 0.929 . S
C527 C521 1.390 . S
C527 C524 1.386 . S
C528 C523 1.490 . S
C528 C530 1.395 . S
C528 C531 1.403 . S
H529 C535 0.930 . S
C530 H516 0.930 . S
C530 C528 1.395 . S
C530 C533 1.403 . S
C531 C528 1.403 . S
C531 C532 1.524 . S
C531 C535 1.400 . S
C532 H517 0.960 . S
C532 H518 0.960 . S
C532 H519 0.960 . S
C532 C531 1.524 . S
C533 C530 1.403 . S
C533 C534 1.392 . S
C533 C537 1.495 . S
C534 C533 1.392 . S
C534 C535 1.385 . S
C534 C536 1.478 . S
C535 H529 0.930 . S
C535 C531 1.400 . S
C535 C534 1.385 . S
C536 C534 1.478 . S
C536 C538 1.381 . S
C536 C542 1.383 . S
C537 C533 1.495 . S
C537 H543 0.959 . S
C537 H544 0.961 . S
C537 H545 0.960 . S
C538 C536 1.381 . S
C538 C539 1.394 . S
C538 H546 0.930 . S
C539 C538 1.394 . S
C539 C540 1.383 . S
C539 H547 0.929 . S
C540 C539 1.383 . S
C540 C541 1.377 . S
C541 H525 0.930 . S
C541 C540 1.377 . S
C541 C542 1.379 . S
C542 H526 0.931 . S
C542 C536 1.383 . S
C542 C541 1.379 . S
H543 C537 0.959 . S
H544 C537 0.961 . S
H545 C537 0.960 . S
H546 C538 0.930 . S
H547 C539 0.929 . S
H548 C556 0.929 . S
H549 C558 0.930 . S
H550 C560 0.930 . S
H551 C563 0.929 . S
H552 C566 0.930 . S
H553 C568 0.960 . S
H554 C568 0.960 . S
H555 C568 0.960 . S
C556 H548 0.929 . S
C556 C557 1.377 . S
C556 C558 1.384 . S
C557 C556 1.377 . S
C557 C563 1.390 . S
C558 H549 0.930 . S
C558 C556 1.384 . S
C558 C559 1.372 . S
C559 C558 1.372 . S
C559 C560 1.400 . S
C559 C564 1.490 . S
C560 H550 0.930 . S
C560 C559 1.400 . S
C560 C563 1.386 . S
H561 C577 0.930 . S
H562 C578 0.931 . S
C563 H551 0.929 . S
C563 C557 1.390 . S
C563 C560 1.386 . S
C564 C559 1.490 . S
C564 C566 1.395 . S
C564 C567 1.403 . S
H565 C571 0.930 . S
C566 H552 0.930 . S
C566 C564 1.395 . S
C566 C569 1.403 . S
C567 C564 1.403 . S
C567 C568 1.524 . S
C567 C571 1.400 . S
C568 H553 0.960 . S
C568 H554 0.960 . S
C568 H555 0.960 . S
C568 C567 1.524 . S
C569 C566 1.403 . S
C569 C570 1.392 . S
C569 C573 1.495 . S
C570 C569 1.392 . S
C570 C571 1.385 . S
C570 C572 1.478 . S
C571 H565 0.930 . S
C571 C567 1.400 . S
C571 C570 1.385 . S
C572 C570 1.478 . S
C572 C574 1.381 . S
C572 C578 1.383 . S
C573 C569 1.495 . S
C573 H579 0.959 . S
C573 H580 0.961 . S
C573 H581 0.960 . S
C574 C572 1.381 . S
C574 C575 1.394 . S
C574 H582 0.930 . S
C575 C574 1.394 . S
C575 C576 1.383 . S
C575 H583 0.929 . S
C576 C575 1.383 . S
C576 C577 1.377 . S
C577 H561 0.930 . S
C577 C576 1.377 . S
C577 C578 1.379 . S
C578 H562 0.931 . S
C578 C572 1.383 . S
C578 C577 1.379 . S
H579 C573 0.959 . S
H580 C573 0.961 . S
H581 C573 0.960 . S
H582 C574 0.930 . S
H583 C575 0.929 . S
H584 C592 0.929 . S
H585 C594 0.930 1_655 S
H586 C596 0.930 . S
H587 C599 0.929 . S
H588 C602 0.930 . S
H589 C604 0.960 . S
H590 C604 0.960 . S
H591 C604 0.960 . S
C592 H584 0.929 . S
C592 C593 1.377 . S
C592 C594 1.384 . S
C593 C592 1.377 . S
C593 C599 1.390 . S
C594 H585 0.930 1_455 S
C594 C592 1.384 . S
C594 C595 1.372 . S
C595 C594 1.372 . S
C595 C596 1.400 . S
C595 C600 1.490 1_455 S
C596 H586 0.930 . S
C596 C595 1.400 . S
C596 C599 1.386 . S
H597 C613 0.930 . S
H598 C614 0.931 . S
C599 H587 0.929 . S
C599 C593 1.390 . S
C599 C596 1.386 . S
C600 C595 1.490 1_655 S
C600 C602 1.395 . S
C600 C603 1.403 1_655 S
H601 C607 0.930 . S
C602 H588 0.930 . S
C602 C600 1.395 . S
C602 C605 1.403 . S
C603 C600 1.403 1_455 S
C603 C604 1.524 . S
C603 C607 1.400 1_455 S
C604 H589 0.960 . S
C604 H590 0.960 . S
C604 H591 0.960 . S
C604 C603 1.524 . S
C605 C602 1.403 . S
C605 C606 1.392 . S
C605 C609 1.495 . S
C606 C605 1.392 . S
C606 C607 1.385 . S
C606 C608 1.478 . S
C607 H601 0.930 . S
C607 C603 1.400 1_655 S
C607 C606 1.385 . S
C608 C606 1.478 . S
C608 C610 1.381 . S
C608 C614 1.383 . S
C609 C605 1.495 . S
C609 H615 0.959 . S
C609 H616 0.961 . S
C609 H617 0.960 . S
C610 C608 1.381 . S
C610 C611 1.394 . S
C610 H618 0.930 . S
C611 C610 1.394 . S
C611 C612 1.383 . S
C611 H619 0.929 . S
C612 C611 1.383 . S
C612 C613 1.377 . S
C613 H597 0.930 . S
C613 C612 1.377 . S
C613 C614 1.379 . S
C614 H598 0.931 . S
C614 C608 1.383 . S
C614 C613 1.379 . S
H615 C609 0.959 . S
H616 C609 0.961 . S
H617 C609 0.960 . S
H618 C610 0.930 . S
H619 C611 0.929 . S
H620 C628 0.929 . S
H621 C630 0.930 . S
H622 C632 0.930 . S
H623 C635 0.929 . S
H624 C638 0.930 . S
H625 C640 0.960 . S
H626 C640 0.960 1_655 S
H627 C640 0.960 . S
C628 H620 0.929 . S
C628 C629 1.377 . S
C628 C630 1.384 . S
C629 C628 1.377 . S
C629 C635 1.390 . S
C630 H621 0.930 . S
C630 C628 1.384 . S
C630 C631 1.372 . S
C631 C630 1.372 . S
C631 C632 1.400 . S
C631 C636 1.490 . S
C632 H622 0.930 . S
C632 C631 1.400 . S
C632 C635 1.386 . S
H633 C649 0.930 . S
H634 C650 0.931 . S
C635 H623 0.929 . S
C635 C629 1.390 . S
C635 C632 1.386 . S
C636 C631 1.490 . S
C636 C638 1.395 . S
C636 C639 1.403 . S
H637 C643 0.930 . S
C638 H624 0.930 . S
C638 C636 1.395 . S
C638 C641 1.403 . S
C639 C636 1.403 . S
C639 C640 1.524 1_655 S
C639 C643 1.400 1_655 S
C640 H625 0.960 . S
C640 H626 0.960 1_455 S
C640 H627 0.960 . S
C640 C639 1.524 1_455 S
C641 C638 1.403 . S
C641 C642 1.392 . S
C641 C645 1.495 . S
C642 C641 1.392 . S
C642 C643 1.385 1_655 S
C642 C644 1.478 1_655 S
C643 H637 0.930 . S
C643 C639 1.400 1_455 S
C643 C642 1.385 1_455 S
C644 C642 1.478 1_455 S
C644 C646 1.381 1_455 S
C644 C650 1.383 . S
C645 C641 1.495 . S
C645 H651 0.959 . S
C645 H652 0.961 . S
C645 H653 0.960 . S
C646 C644 1.381 1_655 S
C646 C647 1.394 1_655 S
C646 H654 0.930 . S
C647 C646 1.394 1_455 S
C647 C648 1.383 . S
C647 H655 0.929 . S
C648 C647 1.383 . S
C648 C649 1.377 . S
C649 H633 0.930 . S
C649 C648 1.377 . S
C649 C650 1.379 . S
C650 H634 0.931 . S
C650 C644 1.383 . S
C650 C649 1.379 . S
H651 C645 0.959 . S
H652 C645 0.961 . S
H653 C645 0.960 . S
H654 C646 0.930 . S
H655 C647 0.929 . S
H656 C664 0.929 . S
H657 C666 0.930 . S
H658 C668 0.930 . S
H659 C671 0.929 . S
H660 C674 0.930 . S
H661 C676 0.960 . S
H662 C676 0.960 1_455 S
H663 C676 0.960 . S
C664 H656 0.929 . S
C664 C665 1.377 . S
C664 C666 1.384 . S
C665 C664 1.377 . S
C665 C671 1.390 . S
C666 H657 0.930 . S
C666 C664 1.384 . S
C666 C667 1.372 . S
C667 C666 1.372 . S
C667 C668 1.400 . S
C667 C672 1.490 . S
C668 H658 0.930 . S
C668 C667 1.400 . S
C668 C671 1.386 . S
H669 C685 0.930 . S
H670 C686 0.931 . S
C671 H659 0.929 . S
C671 C665 1.390 . S
C671 C668 1.386 . S
C672 C667 1.490 . S
C672 C674 1.395 . S
C672 C675 1.403 . S
H673 C679 0.930 . S
C674 H660 0.930 . S
C674 C672 1.395 . S
C674 C677 1.403 . S
C675 C672 1.403 . S
C675 C676 1.524 1_455 S
C675 C679 1.400 1_455 S
C676 H661 0.960 . S
C676 H662 0.960 1_655 S
C676 H663 0.960 . S
C676 C675 1.524 1_655 S
C677 C674 1.403 . S
C677 C678 1.392 . S
C677 C681 1.495 . S
C678 C677 1.392 . S
C678 C679 1.385 1_455 S
C678 C680 1.478 1_455 S
C679 H673 0.930 . S
C679 C675 1.400 1_655 S
C679 C678 1.385 1_655 S
C680 C678 1.478 1_655 S
C680 C682 1.381 1_655 S
C680 C686 1.383 . S
C681 C677 1.495 . S
C681 H687 0.959 . S
C681 H688 0.961 . S
C681 H689 0.960 . S
C682 C680 1.381 1_455 S
C682 C683 1.394 1_455 S
C682 H690 0.930 . S
C683 C682 1.394 1_655 S
C683 C684 1.383 . S
C683 H691 0.929 . S
C684 C683 1.383 . S
C684 C685 1.377 . S
C685 H669 0.930 . S
C685 C684 1.377 . S
C685 C686 1.379 . S
C686 H670 0.931 . S
C686 C680 1.383 . S
C686 C685 1.379 . S
H687 C681 0.959 . S
H688 C681 0.961 . S
H689 C681 0.960 . S
H690 C682 0.930 . S
H691 C683 0.929 . S
H692 C700 0.929 . S
H693 C702 0.930 . S
H694 C704 0.930 . S
H695 C707 0.929 . S
H696 C710 0.930 . S
H697 C712 0.960 . S
H698 C712 0.960 . S
H699 C712 0.960 . S
C700 H692 0.929 . S
C700 C701 1.377 . S
C700 C702 1.384 . S
C701 C700 1.377 . S
C701 C707 1.390 . S
C702 H693 0.930 . S
C702 C700 1.384 . S
C702 C703 1.372 . S
C703 C702 1.372 . S
C703 C704 1.400 . S
C703 C708 1.490 . S
C704 H694 0.930 . S
C704 C703 1.400 . S
C704 C707 1.386 . S
H705 C721 0.930 . S
H706 C722 0.931 . S
C707 H695 0.929 . S
C707 C701 1.390 . S
C707 C704 1.386 . S
C708 C703 1.490 . S
C708 C710 1.395 . S
C708 C711 1.403 . S
H709 C715 0.930 1_655 S
C710 H696 0.930 . S
C710 C708 1.395 . S
C710 C713 1.403 . S
C711 C708 1.403 . S
C711 C712 1.524 . S
C711 C715 1.400 . S
C712 H697 0.960 . S
C712 H698 0.960 . S
C712 H699 0.960 . S
C712 C711 1.524 . S
C713 C710 1.403 . S
C713 C714 1.392 . S
C713 C717 1.495 . S
C714 C713 1.392 . S
C714 C715 1.385 . S
C714 C716 1.478 1_455 S
C715 H709 0.930 1_455 S
C715 C711 1.400 . S
C715 C714 1.385 . S
C716 C714 1.478 1_655 S
C716 C718 1.381 1_655 S
C716 C722 1.383 . S
C717 C713 1.495 . S
C717 H723 0.959 . S
C717 H724 0.961 . S
C717 H725 0.960 . S
C718 C716 1.381 1_455 S
C718 C719 1.394 1_455 S
C718 H726 0.930 . S
C719 C718 1.394 1_655 S
C719 C720 1.383 . S
C719 H727 0.929 . S
C720 C719 1.383 . S
C720 C721 1.377 . S
C721 H705 0.930 . S
C721 C720 1.377 . S
C721 C722 1.379 . S
C722 H706 0.931 . S
C722 C716 1.383 . S
C722 C721 1.379 . S
H723 C717 0.959 . S
H724 C717 0.961 . S
H725 C717 0.960 . S
H726 C718 0.930 . S
H727 C719 0.929 . S
C161 C26 1.852 . S
C180 C2 1.844 1_655 S
C197 C64 1.852 1_455 S
C216 C40 1.844 . S
C233 C102 1.853 . S
C252 C78 1.846 1_655 S
C269 C140 1.853 1_455 S
C288 C116 1.853 . S
C305 C57 1.580 . S
C324 C20 1.575 . S
C341 C133 1.576 . S
C360 C96 1.574 . S
C377 C19 1.579 . S
C396 C58 1.568 . S
C413 C134 1.576 . S
C432 C95 1.575 . S
C449 C118 1.088 . S
C468 C17 1.112 . S
C485 C42 1.094 . S
C504 C93 1.085 . S
C521 C99 1.094 . S
C540 C66 1.151 . S
C557 C23 1.076 . S
C576 C142 1.117 . S
C593 C80 1.088 . S
C612 C55 1.106 . S
C629 C131 1.127 . S
C648 C4 1.043 . S
C665 C28 1.113 . S
C684 C137 1.045 . S
C701 C104 1.113 . S
C720 C61 1.074 . S
