# Generated by pormake.
# Topology uol, (4)-cn, num edge types: 1
# Building blocks:
#     Node 0, Type 0, BuildingBlock: ESEHIV_clean_sbu_0, # of connection points: 4
#     Node 1, Type 0, BuildingBlock: ESEHIV_clean_sbu_0, # of connection points: 4
#     Node 2, Type 0, BuildingBlock: ESEHIV_clean_sbu_0, # of connection points: 4
#     Node 3, Type 0, BuildingBlock: ESEHIV_clean_sbu_0, # of connection points: 4
#     Node 4, Type 0, BuildingBlock: ESEHIV_clean_sbu_0, # of connection points: 4
#     Node 5, Type 0, BuildingBlock: ESEHIV_clean_sbu_0, # of connection points: 4
#     Node 6, Type 0, BuildingBlock: ESEHIV_clean_sbu_0, # of connection points: 4
#     Node 7, Type 0, BuildingBlock: ESEHIV_clean_sbu_0, # of connection points: 4
#     Node 8, Type 0, BuildingBlock: ESEHIV_clean_sbu_0, # of connection points: 4
#     Node 9, Type 0, BuildingBlock: ESEHIV_clean_sbu_0, # of connection points: 4
#     Node 10, Type 0, BuildingBlock: ESEHIV_clean_sbu_0, # of connection points: 4
#     Node 11, Type 0, BuildingBlock: ESEHIV_clean_sbu_0, # of connection points: 4
#     Edge 12, Type (0, 0), BuildingBlock: CIFDUS_clean_linker_0, # of connection points: 2
#     Edge 13, Type (0, 0), BuildingBlock: CIFDUS_clean_linker_0, # of connection points: 2
#     Edge 14, Type (0, 0), BuildingBlock: CIFDUS_clean_linker_0, # of connection points: 2
#     Edge 15, Type (0, 0), BuildingBlock: CIFDUS_clean_linker_0, # of connection points: 2
#     Edge 16, Type (0, 0), BuildingBlock: CIFDUS_clean_linker_0, # of connection points: 2
#     Edge 17, Type (0, 0), BuildingBlock: CIFDUS_clean_linker_0, # of connection points: 2
#     Edge 18, Type (0, 0), BuildingBlock: CIFDUS_clean_linker_0, # of connection points: 2
#     Edge 19, Type (0, 0), BuildingBlock: CIFDUS_clean_linker_0, # of connection points: 2
#     Edge 20, Type (0, 0), BuildingBlock: CIFDUS_clean_linker_0, # of connection points: 2
#     Edge 21, Type (0, 0), BuildingBlock: CIFDUS_clean_linker_0, # of connection points: 2
#     Edge 22, Type (0, 0), BuildingBlock: CIFDUS_clean_linker_0, # of connection points: 2
#     Edge 23, Type (0, 0), BuildingBlock: CIFDUS_clean_linker_0, # of connection points: 2
#     Edge 24, Type (0, 0), BuildingBlock: CIFDUS_clean_linker_0, # of connection points: 2
#     Edge 25, Type (0, 0), BuildingBlock: CIFDUS_clean_linker_0, # of connection points: 2
#     Edge 26, Type (0, 0), BuildingBlock: CIFDUS_clean_linker_0, # of connection points: 2
#     Edge 27, Type (0, 0), BuildingBlock: CIFDUS_clean_linker_0, # of connection points: 2
#     Edge 28, Type (0, 0), BuildingBlock: CIFDUS_clean_linker_0, # of connection points: 2
#     Edge 29, Type (0, 0), BuildingBlock: CIFDUS_clean_linker_0, # of connection points: 2
#     Edge 30, Type (0, 0), BuildingBlock: CIFDUS_clean_linker_0, # of connection points: 2
#     Edge 31, Type (0, 0), BuildingBlock: CIFDUS_clean_linker_0, # of connection points: 2
#     Edge 32, Type (0, 0), BuildingBlock: CIFDUS_clean_linker_0, # of connection points: 2
#     Edge 33, Type (0, 0), BuildingBlock: CIFDUS_clean_linker_0, # of connection points: 2
#     Edge 34, Type (0, 0), BuildingBlock: CIFDUS_clean_linker_0, # of connection points: 2
#     Edge 35, Type (0, 0), BuildingBlock: CIFDUS_clean_linker_0, # of connection points: 2
# Relax obj value: 0.156
# Max RMSD: 0.226
# Mean RMSD: 0.226
data_MOF--net-uol--node1-ESEHIV_clean_sbu_0--edge1-CIFDUS_clean_linker_0
_symmetry_space_group_name_H-M    P1
_symmetry_Int_Tables_number       1
_symmetry_cell_setting            triclinic
loop_
_symmetry_equiv_pos_as_xyz
'x, y, z'
_cell_length_a     34.863631
_cell_length_b     35.166333
_cell_length_c     49.833796
_cell_angle_alpha  89.931269
_cell_angle_beta   89.764249
_cell_angle_gamma 120.22952
loop_
_atom_site_label
_atom_site_type_symbol
_atom_site_fract_x
_atom_site_fract_y
_atom_site_fract_z
_atom_type_partial_charge
Cu0 Cu 0.15858 0.34682 0.115 0.0
N1 N 0.20312 0.36105 0.14017 0.0
N2 N 0.25162 0.35344 0.16541 0.0
C3 C 0.22538 0.33936 0.14358 0.0
C4 C 0.24563 0.38529 0.17619 0.0
C5 C 0.2157 0.38998 0.1605 0.0
O6 O 0.16758 0.31433 0.08639 0.0
C7 C 0.06535 0.30359 0.12445 0.0
O8 O 0.06443 0.32178 0.1016 0.0
H9 H 0.22056 0.31212 0.13111 0.0
H10 H 0.20276 0.41172 0.16421 0.0
N11 N 0.16049 0.3977 0.10185 0.0
N12 N 0.15373 0.45775 0.09954 0.0
C13 C 0.15225 0.42588 0.11557 0.0
C14 C 0.16726 0.41201 0.07629 0.0
C15 C 0.16325 0.44898 0.0748 0.0
C16 C 0.2042 0.33178 0.07348 0.0
O17 O 0.23439 0.37278 0.07862 0.0
H18 H 0.1448 0.42258 0.13682 0.0
H19 H 0.17343 0.39596 0.05972 0.0
O20 O 0.1023 0.30979 0.13318 0.0
H21 H 0.26104 0.4032 0.19438 0.0
H22 H 0.16556 0.46693 0.05664 0.0
Cu23 Cu 0.83378 0.15587 0.28641 0.0
N24 N 0.86732 0.18946 0.31533 0.0
N25 N 0.92562 0.22994 0.34168 0.0
C26 C 0.91144 0.20748 0.31842 0.0
C27 C 0.88881 0.22579 0.3536 0.0
C28 C 0.85294 0.20087 0.33726 0.0
O29 O 0.87539 0.16738 0.25705 0.0
C30 C 0.8203 0.07578 0.30925 0.0
O31 O 0.86334 0.09809 0.31333 0.0
H32 H 0.93247 0.20341 0.30407 0.0
H33 H 0.81877 0.19171 0.34104 0.0
N34 N 0.79242 0.17293 0.27787 0.0
N35 N 0.72785 0.17034 0.27035 0.0
C36 C 0.74811 0.14688 0.27547 0.0
C37 C 0.80059 0.21425 0.27425 0.0
C38 C 0.76094 0.21279 0.26954 0.0
C39 C 0.87219 0.17958 0.2335 0.0
O40 O 0.83657 0.18118 0.22698 0.0
H41 H 0.73112 0.11152 0.27802 0.0
H42 H 0.83316 0.24339 0.27511 0.0
O43 O 0.80194 0.09431 0.29712 0.0
H44 H 0.88784 0.24006 0.37264 0.0
H45 H 0.75699 0.24088 0.26556 0.0
Cu46 Cu 0.68553 0.81562 0.45031 0.0
N47 N 0.67738 0.8568 0.46904 0.0
N48 N 0.69202 0.92163 0.4857 0.0
C49 C 0.7052 0.90059 0.46865 0.0
C50 C 0.65437 0.88971 0.49726 0.0
C51 C 0.64541 0.8497 0.48691 0.0
O52 O 0.71877 0.84602 0.41807 0.0
C53 C 0.73765 0.77722 0.4689 0.0
O54 O 0.73081 0.75763 0.44554 0.0
H55 H 0.73551 0.91645 0.45689 0.0
H56 H 0.61812 0.81763 0.49244 0.0
N57 N 0.62943 0.7672 0.44268 0.0
N58 N 0.57061 0.69909 0.4388 0.0
C59 C 0.61486 0.72361 0.44354 0.0
C60 C 0.59329 0.77025 0.43742 0.0
C61 C 0.55725 0.72868 0.43499 0.0
C62 C 0.70239 0.86237 0.4021 0.0
O63 O 0.66151 0.85364 0.4062 0.0
H64 H 0.63615 0.71031 0.44801 0.0
H65 H 0.59283 0.80073 0.43644 0.0
O66 O 0.72054 0.80101 0.4739 0.0
H67 H 0.63501 0.89481 0.51235 0.0
H68 H 0.52345 0.7211 0.43181 0.0
Cu69 Cu 0.89169 0.66698 0.60827 0.0
N70 N 0.85628 0.66896 0.63579 0.0
N71 N 0.81168 0.68521 0.65926 0.0
C72 C 0.82999 0.68678 0.63505 0.0
C73 C 0.8267 0.66513 0.67575 0.0
C74 C 0.85411 0.65508 0.66119 0.0
O75 O 0.87626 0.68452 0.57469 0.0
C76 C 0.96768 0.73806 0.63246 0.0
O77 O 0.93991 0.75166 0.63863 0.0
H78 H 0.82561 0.702 0.61738 0.0
H79 H 0.87206 0.63963 0.66869 0.0
N80 N 0.87755 0.60851 0.6049 0.0
N81 N 0.88082 0.54653 0.60515 0.0
C82 C 0.9037 0.59083 0.60822 0.0
C83 C 0.8369 0.57453 0.59963 0.0
C84 C 0.83874 0.53636 0.59977 0.0
C85 C 0.87981 0.72198 0.57097 0.0
O86 O 0.89874 0.75237 0.58947 0.0
H87 H 0.93869 0.61016 0.61283 0.0
H88 H 0.80777 0.57735 0.59639 0.0
O89 O 0.95397 0.70334 0.6184 0.0
H90 H 0.81888 0.65854 0.69689 0.0
H91 H 0.81081 0.50357 0.59686 0.0
Cu92 Cu 0.23217 0.90388 0.77035 0.0
N93 N 0.19949 0.85421 0.79181 0.0
N94 N 0.13845 0.8019 0.81237 0.0
C95 C 0.1549 0.83021 0.79151 0.0
C96 C 0.17425 0.80827 0.82639 0.0
C97 C 0.21193 0.84067 0.81366 0.0
O98 O 0.1945 0.89609 0.73965 0.0
C99 C 0.27753 0.98765 0.79742 0.0
O100 O 0.31417 0.99249 0.78662 0.0
H101 H 0.13476 0.83605 0.77749 0.0
H102 H 0.24561 0.85526 0.82087 0.0
N103 N 0.28624 0.90974 0.75884 0.0
N104 N 0.35123 0.91109 0.75734 0.0
C105 C 0.31553 0.90288 0.77256 0.0
C106 C 0.30397 0.92276 0.7342 0.0
C107 C 0.34385 0.92356 0.73317 0.0
C108 C 0.18282 0.86328 0.72416 0.0
O109 O 0.19997 0.83789 0.72788 0.0
H110 H 0.31104 0.89272 0.79336 0.0
H111 H 0.28874 0.93091 0.71802 0.0
O112 O 0.24052 0.95364 0.79191 0.0
H113 H 0.17323 0.79216 0.84512 0.0
H114 H 0.36522 0.93186 0.71574 0.0
Cu115 Cu 0.38418 0.21537 0.95986 0.0
N116 N 0.3762 0.17328 0.98558 0.0
N117 N 0.35269 0.1086 1.00624 0.0
C118 C 0.35068 0.12921 0.98378 0.0
C119 C 0.38078 0.14134 0.02267 0.0
C120 C 0.39504 0.18103 1.00992 0.0
O121 O 0.37097 0.18821 0.9246 0.0
C122 C 0.31346 0.22365 0.98311 0.0
O123 O 0.29567 0.18165 0.98893 0.0
H124 H 0.33051 0.11279 0.96648 0.0
H125 H 0.41769 0.21336 1.0178 0.0
N126 N 0.44381 0.25955 0.95951 0.0
N127 N 0.5053 0.32465 0.95275 0.0
C128 C 0.46062 0.30106 0.95046 0.0
C129 C 0.47896 0.25661 0.9677 0.0
C130 C 0.51693 0.29677 0.96366 0.0
C131 C 0.33265 0.15986 0.91618 0.0
O132 O 0.29766 0.14927 0.93126 0.0
H133 H 0.44034 0.3137 0.94254 0.0
H134 H 0.47714 0.2272 0.9758 0.0
O135 O 0.34947 0.24277 0.96961 0.0
H136 H 0.39079 0.1372 0.04246 0.0
H137 H 0.55052 0.30449 0.96787 0.0
Cu138 Cu 0.6905 0.90729 0.75968 0.0
N139 N 0.68402 0.86272 0.73684 0.0
N140 N 0.69717 0.813 0.7177 0.0
C141 C 0.71009 0.84472 0.73647 0.0
C142 C 0.66152 0.81111 0.70577 0.0
C143 C 0.65343 0.84182 0.7177 0.0
O144 O 0.7269 0.90643 0.78912 0.0
C145 C 0.73076 0.99955 0.74807 0.0
O146 O 0.71488 1.00242 0.77145 0.0
H147 H 0.73845 0.85531 0.74947 0.0
H148 H 0.62712 0.84843 0.71284 0.0
N149 N 0.63334 0.89457 0.77 0.0
N150 N 0.56876 0.89409 0.7722 0.0
C151 C 0.6121 0.91695 0.76469 0.0
C152 C 0.60227 0.85612 0.78077 0.0
C153 C 0.56275 0.85584 0.78236 0.0
C154 C 0.71422 0.89088 0.81268 0.0
O155 O 0.67361 0.8786 0.82049 0.0
H156 H 0.62777 0.94861 0.75471 0.0
H157 H 0.60754 0.82922 0.78593 0.0
O158 O 0.72311 0.96221 0.73976 0.0
H159 H 0.64236 0.78887 0.6898 0.0
H160 H 0.53145 0.82844 0.78914 0.0
Cu161 Cu 0.80225 0.69231 0.92446 0.0
N162 N 0.83784 0.68825 0.8979 0.0
N163 N 0.898 0.698 0.87568 0.0
C164 C 0.88241 0.70776 0.89794 0.0
C165 C 0.8616 0.67112 0.8612 0.0
C166 C 0.82457 0.66511 0.875 0.0
O167 O 0.82868 0.69308 0.95885 0.0
C168 C 0.81312 0.77068 0.89933 0.0
O169 O 0.8449 0.77014 0.8854 0.0
H170 H 0.90293 0.72946 0.91374 0.0
H171 H 0.79036 0.64529 0.8688 0.0
N172 N 0.74573 0.64265 0.92262 0.0
N173 N 0.6873 0.57459 0.92694 0.0
C174 C 0.7311 0.60154 0.93189 0.0
C175 C 0.71028 0.64179 0.91148 0.0
C176 C 0.67429 0.60006 0.91412 0.0
C177 C 0.86012 0.72738 0.96963 0.0
O178 O 0.87364 0.76598 0.95846 0.0
H179 H 0.75225 0.5917 0.94188 0.0
H180 H 0.71058 0.66982 0.90229 0.0
O181 O 0.79404 0.74263 0.91813 0.0
H182 H 0.86156 0.65649 0.84211 0.0
H183 H 0.6409 0.58971 0.9076 0.0
Cu184 Cu 0.11508 0.77544 0.10764 0.0
N185 N 0.16136 0.80589 0.08318 0.0
N186 N 0.21571 0.86443 0.06192 0.0
C187 C 0.19062 0.84931 0.08435 0.0
C188 C 0.20172 0.82886 0.04597 0.0
C189 C 0.16809 0.79276 0.05916 0.0
O190 O 0.13363 0.80756 0.14131 0.0
C191 C 0.03739 0.74418 0.07655 0.0
O192 O 0.04435 0.71139 0.07185 0.0
H193 H 0.19145 0.87 0.10063 0.0
H194 H 0.14847 0.75983 0.05126 0.0
N195 N 0.10402 0.71818 0.11366 0.0
N196 N 0.10853 0.65681 0.11391 0.0
C197 C 0.12709 0.69901 0.10524 0.0
C198 C 0.06993 0.68727 0.12816 0.0
C199 C 0.0725 0.64948 0.12831 0.0
C200 C 0.13345 0.8432 0.14537 0.0
O201 O 0.11628 0.85714 0.12709 0.0
H202 H 0.15706 0.71585 0.09325 0.0
H203 H 0.0447 0.6919 0.13776 0.0
O204 O 0.06315 0.77465 0.09248 0.0
H205 H 0.21385 0.82909 0.02591 0.0
H206 H 0.04901 0.61874 0.13787 0.0
Cu207 Cu 0.36956 0.12886 0.24802 0.0
N208 N 0.38376 0.17516 0.2244 0.0
N209 N 0.37728 0.22549 0.20067 0.0
C210 C 0.3614 0.19684 0.22143 0.0
C211 C 0.41102 0.22172 0.19026 0.0
C212 C 0.41501 0.19069 0.20501 0.0
O213 O 0.3662 0.14931 0.2837 0.0
C214 C 0.29822 0.03955 0.24042 0.0
O215 O 0.31956 0.02786 0.2571 0.0
H216 H 0.33268 0.19016 0.23342 0.0
H217 H 0.43809 0.17921 0.20134 0.0
N218 N 0.41434 0.1144 0.24593 0.0
N219 N 0.48032 0.11833 0.24946 0.0
C220 C 0.45468 0.13511 0.25753 0.0
C221 C 0.41447 0.08375 0.2299 0.0
C222 C 0.45487 0.08592 0.23211 0.0
C223 C 0.33041 0.1442 0.294 0.0
O224 O 0.29282 0.12051 0.28123 0.0
H225 H 0.46515 0.16246 0.27117 0.0
H226 H 0.38758 0.06234 0.21676 0.0
O227 O 0.31342 0.08019 0.23547 0.0
H228 H 0.43083 0.23953 0.17295 0.0
H229 H 0.46524 0.06634 0.22083 0.0
Cu230 Cu 0.26146 0.33459 0.43025 0.0
N231 N 0.23589 0.34932 0.40232 0.0
N232 N 0.18166 0.34336 0.37569 0.0
C233 C 0.1919 0.33223 0.39942 0.0
C234 C 0.22103 0.36857 0.36316 0.0
C235 C 0.25442 0.37201 0.3796 0.0
O236 O 0.22171 0.32066 0.461 0.0
C237 C 0.2988 0.28997 0.40393 0.0
O238 O 0.33262 0.33008 0.40095 0.0
H239 H 0.16778 0.3098 0.41384 0.0
H240 H 0.28944 0.38816 0.37479 0.0
N241 N 0.31777 0.38143 0.43929 0.0
N242 N 0.37899 0.44816 0.44179 0.0
C243 C 0.33919 0.42302 0.42975 0.0
C244 C 0.34467 0.38008 0.45802 0.0
C245 C 0.3823 0.42097 0.45962 0.0
C246 C 0.21721 0.35231 0.46959 0.0
O247 O 0.24102 0.39116 0.45825 0.0
H248 H 0.32556 0.43449 0.41443 0.0
H249 H 0.33706 0.35139 0.46995 0.0
O250 O 0.26517 0.28414 0.41749 0.0
H251 H 0.22542 0.38254 0.34325 0.0
H252 H 0.40936 0.42996 0.47343 0.0
Cu253 Cu 0.93032 0.23639 0.5975 0.0
N254 N 0.88695 0.21178 0.57115 0.0
N255 N 0.83164 0.15903 0.5474 0.0
C256 C 0.85391 0.16961 0.5708 0.0
C257 C 0.85143 0.19614 0.53242 0.0
C258 C 0.88561 0.2287 0.54717 0.0
O259 O 0.91055 0.19371 0.62676 0.0
C260 C 1.00987 0.28087 0.5679 0.0
O261 O 0.99779 0.31062 0.566 0.0
H262 H 0.8483 0.14633 0.58669 0.0
H263 H 0.90913 0.26169 0.54043 0.0
N264 N 0.93644 0.28947 0.60974 0.0
N265 N 0.92975 0.34932 0.61363 0.0
C266 C 0.91804 0.31211 0.59962 0.0
C267 C 0.96053 0.31294 0.63086 0.0
C268 C 0.95649 0.34979 0.63334 0.0
C269 C 0.87973 0.18946 0.64252 0.0
O270 O 0.86405 0.21629 0.63988 0.0
H271 H 0.89689 0.30163 0.58216 0.0
H272 H 0.97948 0.30365 0.64366 0.0
O273 O 0.98578 0.24605 0.58152 0.0
H274 H 0.84283 0.19911 0.51199 0.0
H275 H 0.97149 0.37449 0.64882 0.0
H276 H 0.09038 0.58483 0.14331 0.0
H277 H 0.15959 0.65781 0.07222 0.0
H278 H 0.18152 0.60349 0.06219 0.0
H279 H 0.17908 0.53403 0.07276 0.0
H280 H 0.10662 0.45942 0.14271 0.0
H281 H 0.08819 0.51571 0.15397 0.0
C282 C 0.10995 0.58883 0.12549 0.0
C283 C 0.12298 0.62549 0.10851 0.0
C284 C 0.12198 0.5571 0.11961 0.0
C285 C 0.1493 0.63033 0.08584 0.0
C286 C 0.16166 0.59904 0.07997 0.0
C287 C 0.15898 0.52976 0.09037 0.0
C288 C 0.14423 0.49209 0.10673 0.0
C289 C 0.14784 0.56207 0.09658 0.0
C290 C 0.11898 0.488 0.12981 0.0
C291 C 0.10809 0.52015 0.13621 0.0
H292 H 0.6835 0.21443 0.27769 0.0
H293 H 0.66568 0.0884 0.25429 0.0
H294 H 0.58686 0.06055 0.24704 0.0
H295 H 0.52327 0.07233 0.24624 0.0
H296 H 0.54169 0.19936 0.26768 0.0
H297 H 0.61978 0.22619 0.27692 0.0
C298 C 0.66259 0.18099 0.27079 0.0
C299 C 0.68092 0.15373 0.2665 0.0
C300 C 0.61719 0.16522 0.26636 0.0
C301 C 0.65273 0.11013 0.25807 0.0
C302 C 0.60756 0.09418 0.25375 0.0
C303 C 0.54429 0.106 0.25273 0.0
C304 C 0.52623 0.13369 0.25609 0.0
C305 C 0.58948 0.12151 0.25766 0.0
C306 C 0.55417 0.17698 0.26513 0.0
C307 C 0.59908 0.19253 0.27026 0.0
H308 H 0.48871 0.65099 0.4173 0.0
H309 H 0.58809 0.63909 0.46194 0.0
H310 H 0.53819 0.55977 0.46552 0.0
H311 H 0.46525 0.4943 0.45771 0.0
H312 H 0.36445 0.50808 0.41591 0.0
H313 H 0.41617 0.58608 0.40968 0.0
C314 C 0.49958 0.63139 0.42809 0.0
C315 C 0.54227 0.65164 0.43957 0.0
C316 C 0.47032 0.58588 0.43066 0.0
C317 C 0.55574 0.62488 0.45273 0.0
C318 C 0.527 0.57936 0.45496 0.0
C319 C 0.45418 0.51414 0.44742 0.0
C320 C 0.41041 0.49456 0.43746 0.0
C321 C 0.48397 0.55958 0.44431 0.0
C322 C 0.39766 0.52141 0.42367 0.0
C323 C 0.42728 0.56638 0.42019 0.0
H324 H 0.84364 0.46392 0.58526 0.0
H325 H 0.95487 0.55987 0.63148 0.0
H326 H 0.98073 0.50764 0.63734 0.0
H327 H 0.97088 0.43414 0.63031 0.0
H328 H 0.85718 0.33711 0.58622 0.0
H329 H 0.83333 0.39044 0.57868 0.0
C330 C 0.8733 0.47348 0.59686 0.0
C331 C 0.89698 0.51602 0.60798 0.0
C332 C 0.88766 0.443 0.60056 0.0
C333 C 0.93601 0.52774 0.62241 0.0
C334 C 0.95074 0.49769 0.62594 0.0
C335 C 0.94066 0.42436 0.61926 0.0
C336 C 0.91598 0.38133 0.60892 0.0
C337 C 0.92664 0.45511 0.61528 0.0
C338 C 0.87732 0.36992 0.59418 0.0
C339 C 0.86342 0.40041 0.58997 0.0
H340 H 0.49093 0.86219 0.79909 0.0
H341 H 0.56891 0.95148 0.7354 0.0
H342 H 0.50907 0.96638 0.72615 0.0
H343 H 0.43323 0.95149 0.73468 0.0
H344 H 0.35404 0.85936 0.79691 0.0
H345 H 0.41572 0.84827 0.80812 0.0
C346 C 0.4949 0.88472 0.78306 0.0
C347 C 0.53455 0.9053 0.76786 0.0
C348 C 0.45998 0.89261 0.77751 0.0
C349 C 0.53917 0.93529 0.74762 0.0
C350 C 0.50472 0.94363 0.74216 0.0
C351 C 0.42921 0.92875 0.75059 0.0
C352 C 0.38861 0.90613 0.76476 0.0
C353 C 0.46473 0.92201 0.75673 0.0
C354 C 0.38475 0.87757 0.78575 0.0
C355 C 0.42003 0.87097 0.79209 0.0
H356 H 0.5848 0.38224 0.97415 0.0
H357 H 0.49174 0.36882 0.91289 0.0
H358 H 0.54059 0.44507 0.89913 0.0
H359 H 0.60958 0.51525 0.9043 0.0
H360 H 0.70222 0.52985 0.96624 0.0
H361 H 0.65432 0.45306 0.97932 0.0
C362 C 0.57538 0.39588 0.95765 0.0
C363 C 0.53451 0.36975 0.94465 0.0
C364 C 0.60371 0.43989 0.94981 0.0
C365 C 0.5226 0.38825 0.92353 0.0
C366 C 0.55069 0.43181 0.91552 0.0
C367 C 0.61928 0.50198 0.92085 0.0
C368 C 0.6596 0.52874 0.93426 0.0
C369 C 0.59122 0.45797 0.92858 0.0
C370 C 0.67175 0.51022 0.95529 0.0
C371 C 0.64416 0.46626 0.96294 0.0
H372 H 0.341 0.26456 0.2291 0.0
H373 H 0.37218 0.24375 0.14861 0.0
H374 H 0.33717 0.28338 0.13044 0.0
H375 H 0.29485 0.32128 0.13739 0.0
H376 H 0.26461 0.34333 0.2178 0.0
H377 H 0.30231 0.3063 0.23613 0.0
C378 C 0.34008 0.2688 0.2076 0.0
C379 C 0.35892 0.25109 0.19021 0.0
C380 C 0.3201 0.29185 0.19732 0.0
C381 C 0.35822 0.25737 0.1624 0.0
C382 C 0.33799 0.27981 0.152 0.0
C383 C 0.29662 0.31797 0.15891 0.0
C384 C 0.27676 0.33473 0.17621 0.0
C385 C 0.31842 0.29677 0.16926 0.0
C386 C 0.27991 0.33097 0.20409 0.0
C387 C 0.3012 0.30955 0.21456 0.0
H388 H 1.00188 0.26519 0.3129 0.0
H389 H 0.95055 0.24561 0.3938 0.0
H390 H 1.02587 0.28165 0.41141 0.0
H391 H 0.10613 0.31639 0.40401 0.0
H392 H 0.15751 0.33336 0.32325 0.0
H393 H 0.08247 0.30111 0.30547 0.0
C394 C 1.00709 0.2685 0.33439 0.0
C395 C 0.97038 0.25242 0.35195 0.0
C396 C 0.05058 0.28896 0.34443 0.0
C397 C 0.978 0.25795 0.37975 0.0
C398 C 1.02114 0.27838 0.38988 0.0
C399 C 0.10099 0.31286 0.38252 0.0
C400 C 0.13761 0.3271 0.36507 0.0
C401 C 0.05764 0.29365 0.37242 0.0
C402 C 0.1302 0.32313 0.33722 0.0
C403 C 0.08716 0.30433 0.327 0.0
H404 H 0.81989 0.12492 0.4977 0.0
H405 H 0.76955 0.09478 0.57876 0.0
H406 H 0.71901 0.01824 0.56628 0.0
H407 H 0.69337 0.95889 0.53315 0.0
H408 H 0.74476 0.98862 0.45227 0.0
H409 H 0.79057 0.06638 0.46377 0.0
C410 C 0.79724 0.1018 0.51247 0.0
C411 C 0.79856 0.11544 0.53914 0.0
C412 C 0.76881 0.0577 0.50524 0.0
C413 C 0.76946 0.0849 0.55818 0.0
C414 C 0.74055 0.04119 0.55105 0.0
C415 C 0.71396 0.98248 0.51792 0.0
C416 C 0.71584 0.96791 0.49194 0.0
C417 C 0.74056 0.02703 0.52476 0.0
C418 C 0.74323 0.99889 0.47253 0.0
C419 C 0.7693 0.04338 0.47906 0.0
H420 H 0.80578 0.71574 0.70782 0.0
H421 H 0.75795 0.69906 0.62652 0.0
H422 H 0.71701 0.73645 0.63764 0.0
H423 H 0.69711 0.7764 0.67008 0.0
H424 H 0.74425 0.7919 0.7515 0.0
H425 H 0.78295 0.75228 0.74071 0.0
C426 C 0.78586 0.7196 0.69261 0.0
C427 C 0.78516 0.70468 0.66634 0.0
C428 C 0.76246 0.7412 0.69913 0.0
C429 C 0.75966 0.71072 0.64681 0.0
C430 C 0.73605 0.73196 0.65318 0.0
C431 C 0.71533 0.77061 0.68555 0.0
C432 C 0.71797 0.78746 0.71151 0.0
C433 C 0.73757 0.74773 0.67922 0.0
C434 C 0.74226 0.78005 0.73123 0.0
C435 C 0.76423 0.75714 0.72513 0.0
H436 H 0.93194 0.70667 0.82575 0.0
H437 H 0.96802 0.7264 0.90942 0.0
H438 H 0.04609 0.75802 0.89723 0.0
H439 H 0.1046 0.78363 0.86265 0.0
H440 H 0.06826 0.76363 0.7791 0.0
H441 H 0.98975 0.72788 0.79141 0.0
C442 C 0.95668 0.7172 0.84138 0.0
C443 C 0.9439 0.71436 0.86848 0.0
C444 C 1.00159 0.73537 0.83423 0.0
C445 C 0.97679 0.72885 0.88838 0.0
C446 C 1.02152 0.74672 0.88144 0.0
C447 C 0.07948 0.77069 0.84718 0.0
C448 C 0.09228 0.77644 0.81998 0.0
C449 C 0.03437 0.75063 0.85441 0.0
C450 C 0.05926 0.76004 0.80016 0.0
C451 C 1.01438 0.73958 0.80719 0.0
H452 H 0.23631 0.90213 1.01259 0.0
H453 H 0.26401 0.92995 0.09687 0.0
H454 H 0.30943 1.00827 0.08698 0.0
H455 H 0.33799 0.06897 0.05487 0.0
H456 H 0.31301 0.04156 0.97025 0.0
H457 H 0.26972 0.96307 0.97992 0.0
C458 C 0.25288 0.92518 0.02875 0.0
C459 C 0.24629 0.91003 0.05549 0.0
C460 C 0.27908 0.97038 0.02293 0.0
C461 C 0.26777 0.94065 0.07617 0.0
C462 C 0.29391 0.9855 0.07053 0.0
C463 C 0.3238 0.04608 0.03838 0.0
C464 C 0.32878 0.0618 1.01183 0.0
C465 C 0.29926 1.0008 0.04402 0.0
C466 C 0.3093 0.03099 0.99095 0.0
C467 C 0.28467 0.98585 0.99644 0.0
H468 H 0.27341 0.36143 0.03841 0.0
H469 H 0.15924 0.24225 0.0673 0.0
H470 H 0.18141 0.19824 0.04051 0.0
H471 H 0.23613 0.19351 1.01137 0.0
H472 H 0.34993 0.31303 0.98235 0.0
H473 H 0.32473 0.3568 1.0065 0.0
C474 C 0.25313 0.32583 0.03869 0.0
C475 C 0.2149 0.30522 0.05505 0.0
C476 C 0.2661 0.3007 0.02327 0.0
C477 C 0.18883 0.25904 0.05493 0.0
C478 C 0.20159 0.2338 0.03968 0.0
C479 C 0.25521 0.22912 1.01008 0.0
C480 C 0.29511 0.24983 0.99519 0.0
C481 C 0.24059 0.25425 0.02414 0.0
C482 C 0.31917 0.29608 0.99365 0.0
C483 C 0.30486 0.32123 1.00756 0.0
H484 H 0.87889 0.21332 0.18325 0.0
H485 H 0.95231 0.18493 0.24165 0.0
H486 H 1.01782 0.21916 0.21266 0.0
H487 H 0.05557 0.26057 0.17182 0.0
H488 H 0.98243 0.28965 0.11362 0.0
H489 H 0.91569 0.25168 0.14142 0.0
C490 C 0.90907 0.21422 0.18956 0.0
C491 C 0.91055 0.19664 0.21469 0.0
C492 C 0.94688 0.23436 0.17289 0.0
C493 C 0.95007 0.19817 0.22246 0.0
C494 C 0.98768 0.21788 0.20591 0.0
C495 C 1.02499 0.25843 0.16511 0.0
C496 C 1.02422 0.27822 0.14068 0.0
C497 C 0.98667 0.23665 0.18126 0.0
C498 C 0.98415 0.27487 0.13232 0.0
C499 C 0.94589 0.25316 0.14824 0.0
H500 H 0.8478 0.02821 0.3386 0.0
H501 H 0.73013 0.02342 0.30726 0.0
H502 H 0.6836 0.95456 0.33118 0.0
H503 H 0.67591 0.8993 0.36402 0.0
H504 H 0.79296 0.90406 0.39623 0.0
H505 H 0.83999 0.96886 0.36863 0.0
C506 C 0.812 1.01188 0.33675 0.0
C507 C 0.79259 0.03138 0.32133 0.0
C508 C 0.78524 0.97229 0.35079 0.0
C509 C 0.74609 1.00947 0.31907 0.0
C510 C 0.71936 0.97003 0.3328 0.0
C511 C 0.71171 0.91411 0.36478 0.0
C512 C 0.73081 0.89699 0.38238 0.0
C513 C 0.73853 0.95169 0.34918 0.0
C514 C 0.77729 0.91648 0.3829 0.0
C515 C 0.80424 0.95374 0.36722 0.0
H516 H 0.85619 0.78432 0.56643 0.0
H517 H 0.85016 0.67412 0.52461 0.0
H518 H 0.8068 0.68211 0.48881 0.0
H519 H 0.76809 0.71894 0.47021 0.0
H520 H 0.77176 0.82674 0.51384 0.0
H521 H 0.81829 0.82099 0.548 0.0
C522 C 0.84589 0.76234 0.54934 0.0
C523 C 0.85669 0.72885 0.54815 0.0
C524 C 0.8201 0.76644 0.5292 0.0
C525 C 0.8424 0.70026 0.52602 0.0
C526 C 0.8175 0.70475 0.50556 0.0
C527 C 0.77921 0.74124 0.48714 0.0
C528 C 0.76627 0.77316 0.48938 0.0
C529 C 0.80571 0.73745 0.50707 0.0
C530 C 0.78088 0.80167 0.51158 0.0
C531 C 0.80767 0.79852 0.53116 0.0
H532 H 0.15138 0.79619 0.68808 0.0
H533 H 0.13009 0.89963 0.71738 0.0
H534 H 0.06334 0.87172 0.69005 0.0
H535 H 1.00785 0.81461 0.66067 0.0
H536 H 1.02871 0.71075 0.63165 0.0
H537 H 0.09892 0.74243 0.65586 0.0
C538 C 0.13246 0.81298 0.68829 0.0
C539 C 0.14567 0.84981 0.70499 0.0
C540 C 0.09382 0.79651 0.67267 0.0
C541 C 0.12078 0.87122 0.70481 0.0
C542 C 0.08244 0.85515 0.68924 0.0
C543 C 1.02792 0.79908 0.6594 0.0
C544 C 1.0127 0.76007 0.6445 0.0
C545 C 0.06815 0.8173 0.67354 0.0
C546 C 0.03944 0.7407 0.64296 0.0
C547 C 0.07958 0.75873 0.6569 0.0
H548 H 0.25742 0.09235 0.89426 0.0
H549 H 0.39893 0.1721 0.88156 0.0
H550 H 0.39398 0.12759 0.84284 0.0
H551 H 0.35045 0.06311 0.8143 0.0
H552 H 0.20903 0.9829 0.8271 0.0
H553 H 0.21308 0.03063 0.86379 0.0
C554 C 0.28713 0.10032 0.88288 0.0
C555 C 0.32852 0.13542 0.89103 0.0
C556 C 0.28417 0.07431 0.86065 0.0
C557 C 0.36662 0.14522 0.87591 0.0
C558 C 0.36387 0.11969 0.85374 0.0
C559 C 0.32041 0.05623 0.82494 0.0
C560 C 0.27957 0.01919 0.81799 0.0
C561 C 0.32296 0.08369 0.8462 0.0
C562 C 0.24099 1.01105 0.83199 0.0
C563 C 0.24326 0.03831 0.85307 0.0
H564 H 0.69453 0.84882 0.86125 0.0
H565 H 0.79781 0.907 0.80098 0.0
H566 H 0.83976 0.87874 0.8242 0.0
H567 H 0.84358 0.83112 0.85882 0.0
H568 H 0.73959 0.77121 0.91851 0.0
H569 H 0.70201 0.80701 0.89852 0.0
C570 C 0.72654 0.85595 0.8534 0.0
C571 C 0.74264 0.8797 0.8292 0.0
C572 C 0.75035 0.839 0.86666 0.0
C573 C 0.78435 0.88867 0.81945 0.0
C574 C 0.80839 0.87237 0.83269 0.0
C575 C 0.81303 0.82636 0.86774 0.0
C576 C 0.79431 0.79807 0.89001 0.0
C577 C 0.79116 0.8465 0.85589 0.0
C578 C 0.7548 0.79263 0.90134 0.0
C579 C 0.73312 0.81296 0.88983 0.0
H580 H 0.92258 0.79238 1.00134 0.0
H581 H 0.85437 0.65193 0.98862 0.0
H582 H 0.90133 0.64454 0.02181 0.0
H583 H 0.96552 0.67836 0.05183 0.0
H584 H 0.03297 0.81828 0.06585 0.0
H585 H 0.98233 0.82536 0.03508 0.0
C586 C 0.91768 0.76011 1.00604 0.0
C587 C 0.88522 0.72287 0.99223 0.0
C588 C 0.94482 0.75597 0.02533 0.0
C589 C 0.87908 0.68123 0.99881 0.0
C590 C 0.90607 0.67693 1.01777 0.0
C591 C 0.96887 0.71036 0.04837 0.0
C592 C 1.00325 0.74778 0.06091 0.0
C593 C 0.93961 0.71415 0.03073 0.0
C594 C 1.00678 0.78892 0.05648 0.0
C595 C 0.97796 0.79302 0.03876 0.0
H596 H 0.15087 0.92655 0.15548 0.0
H597 H 0.17435 0.82525 0.18617 0.0
H598 H 0.22446 0.876 0.21994 0.0
H599 H 0.2668 0.95104 0.23816 0.0
H600 H 0.24469 0.05268 0.20643 0.0
H601 H 0.18877 0.99985 0.17595 0.0
C602 C 0.16643 0.9153 0.16977 0.0
C603 C 0.15901 0.87215 0.16808 0.0
C604 C 0.19582 0.9449 0.18891 0.0
C605 C 0.17953 0.8583 0.18686 0.0
C606 C 0.20834 0.88737 0.20617 0.0
C607 C 0.24932 0.96154 0.22486 0.0
C608 C 0.26033 1.00596 0.22451 0.0
C609 C 0.21754 0.93105 0.207 0.0
C610 C 0.23723 0.01884 0.20707 0.0
C611 C 0.20522 0.98863 0.18955 0.0
H612 H 0.26103 0.13615 0.32413 0.0
H613 H 0.40396 0.21103 0.31765 0.0
H614 H 0.40689 0.2605 0.35283 0.0
H615 H 0.36866 0.28679 0.38233 0.0
H616 H 0.22596 0.21184 0.38961 0.0
H617 H 0.22325 0.1579 0.35756 0.0
C618 C 0.29286 0.16296 0.33065 0.0
C619 C 0.33215 0.17009 0.31796 0.0
C620 C 0.29437 0.19147 0.35098 0.0
C621 C 0.37314 0.20475 0.32691 0.0
C622 C 0.37488 0.23324 0.34701 0.0
C623 C 0.33699 0.25834 0.37719 0.0
C624 C 0.29755 0.25364 0.38813 0.0
C625 C 0.33567 0.22756 0.3587 0.0
C626 C 0.25684 0.21629 0.3815 0.0
C627 C 0.25524 0.18555 0.36303 0.0
H628 H 0.15814 0.27613 0.49627 0.0
H629 H 0.19963 0.41402 0.48897 0.0
H630 H 0.14087 0.40426 0.51947 0.0
H631 H 0.07537 0.35658 0.54637 0.0
H632 H 0.03284 0.21886 0.55498 0.0
H633 H 0.09438 0.22868 0.52617 0.0
C634 C 0.15452 0.30406 0.50155 0.0
C635 C 0.18323 0.34568 0.49007 0.0
C636 C 0.12032 0.29831 0.51932 0.0
C637 C 0.17807 0.38153 0.49728 0.0
C638 C 0.14434 0.37605 0.51477 0.0
C639 C 0.07962 0.32867 0.5421 0.0
C640 C 0.0493 0.287 0.55266 0.0
C641 C 0.11492 0.33455 0.52558 0.0
C642 C 0.0557 0.25135 0.54713 0.0
C643 C 0.09081 0.25692 0.53055 0.0
H644 H 0.78885 1.01081 0.70795 0.0
H645 H 0.73283 0.07808 0.75087 0.0
H646 H 0.77504 0.1432 0.72259 0.0
H647 H 0.82615 0.18026 0.68479 0.0
H648 H 0.88444 0.11412 0.64296 0.0
H649 H 0.84344 0.04956 0.67186 0.0
C650 C 0.78587 0.03973 0.71111 0.0
C651 C 0.75739 0.03942 0.73136 0.0
C652 C 0.81078 0.07733 0.69503 0.0
C653 C 0.75444 0.0774 0.73544 0.0
C654 C 0.77854 0.11465 0.71924 0.0
C655 C 0.83011 0.15183 0.68209 0.0
C656 C 0.85821 0.15201 0.66165 0.0
C657 C 0.8066 0.11489 0.69888 0.0
C658 C 0.86321 0.11499 0.65859 0.0
C659 C 0.83957 0.07794 0.67503 0.0
loop_
_geom_bond_atom_site_label_1
_geom_bond_atom_site_label_2
_geom_bond_distance
_geom_bond_site_symmetry_2
_ccdc_geom_bond_type
Cu0 N1 1.999 . S
Cu0 O6 1.974 . S
Cu0 N11 1.985 . S
Cu0 O20 1.959 . S
N1 Cu0 1.999 . S
N1 C3 1.263 . S
N1 C5 1.389 . S
N2 C3 1.358 . S
N2 C4 1.400 . S
C3 N1 1.263 . S
C3 N2 1.358 . S
C3 H9 0.930 . S
C4 N2 1.400 . S
C4 C5 1.351 . S
C4 H21 0.930 . S
C5 N1 1.389 . S
C5 C4 1.351 . S
C5 H10 0.930 . S
O6 Cu0 1.974 . S
O6 C16 1.282 . S
C7 O8 1.261 . S
C7 O20 1.251 . S
O8 C7 1.261 . S
H9 C3 0.930 . S
H10 C5 0.930 . S
N11 Cu0 1.985 . S
N11 C13 1.335 . S
N11 C14 1.390 . S
N12 C13 1.345 . S
N12 C15 1.336 . S
C13 N11 1.335 . S
C13 N12 1.345 . S
C13 H18 0.930 . S
C14 N11 1.390 . S
C14 C15 1.346 . S
C14 H19 0.930 . S
C15 N12 1.336 . S
C15 C14 1.346 . S
C15 H22 0.929 . S
C16 O6 1.282 . S
C16 O17 1.216 . S
O17 C16 1.216 . S
H18 C13 0.930 . S
H19 C14 0.930 . S
O20 Cu0 1.959 . S
O20 C7 1.251 . S
H21 C4 0.930 . S
H22 C15 0.929 . S
Cu23 N24 1.999 . S
Cu23 O29 1.974 . S
Cu23 N34 1.985 . S
Cu23 O43 1.959 . S
N24 Cu23 1.999 . S
N24 C26 1.263 . S
N24 C28 1.389 . S
N25 C26 1.358 . S
N25 C27 1.400 . S
C26 N24 1.263 . S
C26 N25 1.358 . S
C26 H32 0.930 . S
C27 N25 1.400 . S
C27 C28 1.351 . S
C27 H44 0.930 . S
C28 N24 1.389 . S
C28 C27 1.351 . S
C28 H33 0.930 . S
O29 Cu23 1.974 . S
O29 C39 1.282 . S
C30 O31 1.261 . S
C30 O43 1.251 . S
O31 C30 1.261 . S
H32 C26 0.930 . S
H33 C28 0.930 . S
N34 Cu23 1.985 . S
N34 C36 1.335 . S
N34 C37 1.390 . S
N35 C36 1.345 . S
N35 C38 1.336 . S
C36 N34 1.335 . S
C36 N35 1.345 . S
C36 H41 0.930 . S
C37 N34 1.390 . S
C37 C38 1.346 . S
C37 H42 0.930 . S
C38 N35 1.336 . S
C38 C37 1.346 . S
C38 H45 0.929 . S
C39 O29 1.282 . S
C39 O40 1.216 . S
O40 C39 1.216 . S
H41 C36 0.930 . S
H42 C37 0.930 . S
O43 Cu23 1.959 . S
O43 C30 1.251 . S
H44 C27 0.930 . S
H45 C38 0.929 . S
Cu46 N47 1.999 . S
Cu46 O52 1.974 . S
Cu46 N57 1.985 . S
Cu46 O66 1.959 . S
N47 Cu46 1.999 . S
N47 C49 1.263 . S
N47 C51 1.389 . S
N48 C49 1.358 . S
N48 C50 1.400 . S
C49 N47 1.263 . S
C49 N48 1.358 . S
C49 H55 0.930 . S
C50 N48 1.400 . S
C50 C51 1.351 . S
C50 H67 0.930 . S
C51 N47 1.389 . S
C51 C50 1.351 . S
C51 H56 0.930 . S
O52 Cu46 1.974 . S
O52 C62 1.282 . S
C53 O54 1.261 . S
C53 O66 1.251 . S
O54 C53 1.261 . S
H55 C49 0.930 . S
H56 C51 0.930 . S
N57 Cu46 1.985 . S
N57 C59 1.335 . S
N57 C60 1.390 . S
N58 C59 1.345 . S
N58 C61 1.336 . S
C59 N57 1.335 . S
C59 N58 1.345 . S
C59 H64 0.930 . S
C60 N57 1.390 . S
C60 C61 1.346 . S
C60 H65 0.930 . S
C61 N58 1.336 . S
C61 C60 1.346 . S
C61 H68 0.929 . S
C62 O52 1.282 . S
C62 O63 1.216 . S
O63 C62 1.216 . S
H64 C59 0.930 . S
H65 C60 0.930 . S
O66 Cu46 1.959 . S
O66 C53 1.251 . S
H67 C50 0.930 . S
H68 C61 0.929 . S
Cu69 N70 1.999 . S
Cu69 O75 1.974 . S
Cu69 N80 1.985 . S
Cu69 O89 1.959 . S
N70 Cu69 1.999 . S
N70 C72 1.263 . S
N70 C74 1.389 . S
N71 C72 1.358 . S
N71 C73 1.400 . S
C72 N70 1.263 . S
C72 N71 1.358 . S
C72 H78 0.930 . S
C73 N71 1.400 . S
C73 C74 1.351 . S
C73 H90 0.930 . S
C74 N70 1.389 . S
C74 C73 1.351 . S
C74 H79 0.930 . S
O75 Cu69 1.974 . S
O75 C85 1.282 . S
C76 O77 1.261 . S
C76 O89 1.251 . S
O77 C76 1.261 . S
H78 C72 0.930 . S
H79 C74 0.930 . S
N80 Cu69 1.985 . S
N80 C82 1.335 . S
N80 C83 1.390 . S
N81 C82 1.345 . S
N81 C84 1.336 . S
C82 N80 1.335 . S
C82 N81 1.345 . S
C82 H87 0.930 . S
C83 N80 1.390 . S
C83 C84 1.346 . S
C83 H88 0.930 . S
C84 N81 1.336 . S
C84 C83 1.346 . S
C84 H91 0.929 . S
C85 O75 1.282 . S
C85 O86 1.216 . S
O86 C85 1.216 . S
H87 C82 0.930 . S
H88 C83 0.930 . S
O89 Cu69 1.959 . S
O89 C76 1.251 . S
H90 C73 0.930 . S
H91 C84 0.929 . S
Cu92 N93 1.999 . S
Cu92 O98 1.974 . S
Cu92 N103 1.985 . S
Cu92 O112 1.959 . S
N93 Cu92 1.999 . S
N93 C95 1.263 . S
N93 C97 1.389 . S
N94 C95 1.358 . S
N94 C96 1.400 . S
C95 N93 1.263 . S
C95 N94 1.358 . S
C95 H101 0.930 . S
C96 N94 1.400 . S
C96 C97 1.351 . S
C96 H113 0.930 . S
C97 N93 1.389 . S
C97 C96 1.351 . S
C97 H102 0.930 . S
O98 Cu92 1.974 . S
O98 C108 1.282 . S
C99 O100 1.261 . S
C99 O112 1.251 . S
O100 C99 1.261 . S
H101 C95 0.930 . S
H102 C97 0.930 . S
N103 Cu92 1.985 . S
N103 C105 1.335 . S
N103 C106 1.390 . S
N104 C105 1.345 . S
N104 C107 1.336 . S
C105 N103 1.335 . S
C105 N104 1.345 . S
C105 H110 0.930 . S
C106 N103 1.390 . S
C106 C107 1.346 . S
C106 H111 0.930 . S
C107 N104 1.336 . S
C107 C106 1.346 . S
C107 H114 0.929 . S
C108 O98 1.282 . S
C108 O109 1.216 . S
O109 C108 1.216 . S
H110 C105 0.930 . S
H111 C106 0.930 . S
O112 Cu92 1.959 . S
O112 C99 1.251 . S
H113 C96 0.930 . S
H114 C107 0.929 . S
Cu115 N116 1.999 . S
Cu115 O121 1.974 . S
Cu115 N126 1.985 . S
Cu115 O135 1.959 . S
N116 Cu115 1.999 . S
N116 C118 1.263 . S
N116 C120 1.389 . S
N117 C118 1.358 . S
N117 C119 1.400 . S
C118 N116 1.263 . S
C118 N117 1.358 . S
C118 H124 0.930 . S
C119 N117 1.400 . S
C119 C120 1.351 . S
C119 H136 0.930 1_556 S
C120 N116 1.389 . S
C120 C119 1.351 . S
C120 H125 0.930 . S
O121 Cu115 1.974 . S
O121 C131 1.282 . S
C122 O123 1.261 . S
C122 O135 1.251 . S
O123 C122 1.261 . S
H124 C118 0.930 . S
H125 C120 0.930 . S
N126 Cu115 1.985 . S
N126 C128 1.335 . S
N126 C129 1.390 . S
N127 C128 1.345 . S
N127 C130 1.336 . S
C128 N126 1.335 . S
C128 N127 1.345 . S
C128 H133 0.930 . S
C129 N126 1.390 . S
C129 C130 1.346 . S
C129 H134 0.930 . S
C130 N127 1.336 . S
C130 C129 1.346 . S
C130 H137 0.929 . S
C131 O121 1.282 . S
C131 O132 1.216 . S
O132 C131 1.216 . S
H133 C128 0.930 . S
H134 C129 0.930 . S
O135 Cu115 1.959 . S
O135 C122 1.251 . S
H136 C119 0.930 1_554 S
H137 C130 0.929 . S
Cu138 N139 1.999 . S
Cu138 O144 1.974 . S
Cu138 N149 1.985 . S
Cu138 O158 1.959 . S
N139 Cu138 1.999 . S
N139 C141 1.263 . S
N139 C143 1.389 . S
N140 C141 1.358 . S
N140 C142 1.400 . S
C141 N139 1.263 . S
C141 N140 1.358 . S
C141 H147 0.930 . S
C142 N140 1.400 . S
C142 C143 1.351 . S
C142 H159 0.930 . S
C143 N139 1.389 . S
C143 C142 1.351 . S
C143 H148 0.930 . S
O144 Cu138 1.974 . S
O144 C154 1.282 . S
C145 O146 1.261 . S
C145 O158 1.251 . S
O146 C145 1.261 . S
H147 C141 0.930 . S
H148 C143 0.930 . S
N149 Cu138 1.985 . S
N149 C151 1.335 . S
N149 C152 1.390 . S
N150 C151 1.345 . S
N150 C153 1.336 . S
C151 N149 1.335 . S
C151 N150 1.345 . S
C151 H156 0.930 . S
C152 N149 1.390 . S
C152 C153 1.346 . S
C152 H157 0.930 . S
C153 N150 1.336 . S
C153 C152 1.346 . S
C153 H160 0.929 . S
C154 O144 1.282 . S
C154 O155 1.216 . S
O155 C154 1.216 . S
H156 C151 0.930 . S
H157 C152 0.930 . S
O158 Cu138 1.959 . S
O158 C145 1.251 . S
H159 C142 0.930 . S
H160 C153 0.929 . S
Cu161 N162 1.999 . S
Cu161 O167 1.974 . S
Cu161 N172 1.985 . S
Cu161 O181 1.959 . S
N162 Cu161 1.999 . S
N162 C164 1.263 . S
N162 C166 1.389 . S
N163 C164 1.358 . S
N163 C165 1.400 . S
C164 N162 1.263 . S
C164 N163 1.358 . S
C164 H170 0.930 . S
C165 N163 1.400 . S
C165 C166 1.351 . S
C165 H182 0.930 . S
C166 N162 1.389 . S
C166 C165 1.351 . S
C166 H171 0.930 . S
O167 Cu161 1.974 . S
O167 C177 1.282 . S
C168 O169 1.261 . S
C168 O181 1.251 . S
O169 C168 1.261 . S
H170 C164 0.930 . S
H171 C166 0.930 . S
N172 Cu161 1.985 . S
N172 C174 1.335 . S
N172 C175 1.390 . S
N173 C174 1.345 . S
N173 C176 1.336 . S
C174 N172 1.335 . S
C174 N173 1.345 . S
C174 H179 0.930 . S
C175 N172 1.390 . S
C175 C176 1.346 . S
C175 H180 0.930 . S
C176 N173 1.336 . S
C176 C175 1.346 . S
C176 H183 0.929 . S
C177 O167 1.282 . S
C177 O178 1.216 . S
O178 C177 1.216 . S
H179 C174 0.930 . S
H180 C175 0.930 . S
O181 Cu161 1.959 . S
O181 C168 1.251 . S
H182 C165 0.930 . S
H183 C176 0.929 . S
Cu184 N185 1.999 . S
Cu184 O190 1.974 . S
Cu184 N195 1.985 . S
Cu184 O204 1.959 . S
N185 Cu184 1.999 . S
N185 C187 1.263 . S
N185 C189 1.389 . S
N186 C187 1.358 . S
N186 C188 1.400 . S
C187 N185 1.263 . S
C187 N186 1.358 . S
C187 H193 0.930 . S
C188 N186 1.400 . S
C188 C189 1.351 . S
C188 H205 0.930 1_554 S
C189 N185 1.389 . S
C189 C188 1.351 . S
C189 H194 0.930 . S
O190 Cu184 1.974 . S
O190 C200 1.282 . S
C191 O192 1.261 . S
C191 O204 1.251 . S
O192 C191 1.261 . S
H193 C187 0.930 . S
H194 C189 0.930 . S
N195 Cu184 1.985 . S
N195 C197 1.335 . S
N195 C198 1.390 . S
N196 C197 1.345 . S
N196 C199 1.336 . S
C197 N195 1.335 . S
C197 N196 1.345 . S
C197 H202 0.930 . S
C198 N195 1.390 . S
C198 C199 1.346 . S
C198 H203 0.930 . S
C199 N196 1.336 . S
C199 C198 1.346 . S
C199 H206 0.929 . S
C200 O190 1.282 . S
C200 O201 1.216 . S
O201 C200 1.216 . S
H202 C197 0.930 . S
H203 C198 0.930 . S
O204 Cu184 1.959 . S
O204 C191 1.251 . S
H205 C188 0.930 1_556 S
H206 C199 0.929 . S
Cu207 N208 1.999 . S
Cu207 O213 1.974 . S
Cu207 N218 1.985 . S
Cu207 O227 1.959 . S
N208 Cu207 1.999 . S
N208 C210 1.263 . S
N208 C212 1.389 . S
N209 C210 1.358 . S
N209 C211 1.400 . S
C210 N208 1.263 . S
C210 N209 1.358 . S
C210 H216 0.930 . S
C211 N209 1.400 . S
C211 C212 1.351 . S
C211 H228 0.930 . S
C212 N208 1.389 . S
C212 C211 1.351 . S
C212 H217 0.930 . S
O213 Cu207 1.974 . S
O213 C223 1.282 . S
C214 O215 1.261 . S
C214 O227 1.251 . S
O215 C214 1.261 . S
H216 C210 0.930 . S
H217 C212 0.930 . S
N218 Cu207 1.985 . S
N218 C220 1.335 . S
N218 C221 1.390 . S
N219 C220 1.345 . S
N219 C222 1.336 . S
C220 N218 1.335 . S
C220 N219 1.345 . S
C220 H225 0.930 . S
C221 N218 1.390 . S
C221 C222 1.346 . S
C221 H226 0.930 . S
C222 N219 1.336 . S
C222 C221 1.346 . S
C222 H229 0.929 . S
C223 O213 1.282 . S
C223 O224 1.216 . S
O224 C223 1.216 . S
H225 C220 0.930 . S
H226 C221 0.930 . S
O227 Cu207 1.959 . S
O227 C214 1.251 . S
H228 C211 0.930 . S
H229 C222 0.929 . S
Cu230 N231 1.999 . S
Cu230 O236 1.974 . S
Cu230 N241 1.985 . S
Cu230 O250 1.959 . S
N231 Cu230 1.999 . S
N231 C233 1.263 . S
N231 C235 1.389 . S
N232 C233 1.358 . S
N232 C234 1.400 . S
C233 N231 1.263 . S
C233 N232 1.358 . S
C233 H239 0.930 . S
C234 N232 1.400 . S
C234 C235 1.351 . S
C234 H251 0.930 . S
C235 N231 1.389 . S
C235 C234 1.351 . S
C235 H240 0.930 . S
O236 Cu230 1.974 . S
O236 C246 1.282 . S
C237 O238 1.261 . S
C237 O250 1.251 . S
O238 C237 1.261 . S
H239 C233 0.930 . S
H240 C235 0.930 . S
N241 Cu230 1.985 . S
N241 C243 1.335 . S
N241 C244 1.390 . S
N242 C243 1.345 . S
N242 C245 1.336 . S
C243 N241 1.335 . S
C243 N242 1.345 . S
C243 H248 0.930 . S
C244 N241 1.390 . S
C244 C245 1.346 . S
C244 H249 0.930 . S
C245 N242 1.336 . S
C245 C244 1.346 . S
C245 H252 0.929 . S
C246 O236 1.282 . S
C246 O247 1.216 . S
O247 C246 1.216 . S
H248 C243 0.930 . S
H249 C244 0.930 . S
O250 Cu230 1.959 . S
O250 C237 1.251 . S
H251 C234 0.930 . S
H252 C245 0.929 . S
Cu253 N254 1.999 . S
Cu253 O259 1.974 . S
Cu253 N264 1.985 . S
Cu253 O273 1.959 . S
N254 Cu253 1.999 . S
N254 C256 1.263 . S
N254 C258 1.389 . S
N255 C256 1.358 . S
N255 C257 1.400 . S
C256 N254 1.263 . S
C256 N255 1.358 . S
C256 H262 0.930 . S
C257 N255 1.400 . S
C257 C258 1.351 . S
C257 H274 0.930 . S
C258 N254 1.389 . S
C258 C257 1.351 . S
C258 H263 0.930 . S
O259 Cu253 1.974 . S
O259 C269 1.282 . S
C260 O261 1.261 . S
C260 O273 1.251 . S
O261 C260 1.261 . S
H262 C256 0.930 . S
H263 C258 0.930 . S
N264 Cu253 1.985 . S
N264 C266 1.335 . S
N264 C267 1.390 . S
N265 C266 1.345 . S
N265 C268 1.336 . S
C266 N264 1.335 . S
C266 N265 1.345 . S
C266 H271 0.930 . S
C267 N264 1.390 . S
C267 C268 1.346 . S
C267 H272 0.930 . S
C268 N265 1.336 . S
C268 C267 1.346 . S
C268 H275 0.929 . S
C269 O259 1.282 . S
C269 O270 1.216 . S
O270 C269 1.216 . S
H271 C266 0.930 . S
H272 C267 0.930 . S
O273 Cu253 1.959 . S
O273 C260 1.251 . S
H274 C257 0.930 . S
H275 C268 0.929 . S
H276 C282 0.930 . S
H277 C285 0.930 . S
H278 C286 0.930 . S
H279 C287 0.930 . S
H280 C290 0.930 . S
H281 C291 0.930 . S
C282 H276 0.930 . S
C282 C283 1.355 . S
C282 C284 1.415 . S
C283 C282 1.355 . S
C283 C285 1.419 . S
C284 C282 1.415 . S
C284 C289 1.425 . S
C284 C291 1.409 . S
C285 H277 0.930 . S
C285 C283 1.419 . S
C285 C286 1.362 . S
C286 H278 0.930 . S
C286 C285 1.362 . S
C286 C289 1.409 . S
C287 H279 0.930 . S
C287 C288 1.355 . S
C287 C289 1.415 . S
C288 C287 1.355 . S
C288 C290 1.419 . S
C289 C284 1.425 . S
C289 C286 1.409 . S
C289 C287 1.415 . S
C290 H280 0.930 . S
C290 C288 1.419 . S
C290 C291 1.362 . S
C291 H281 0.930 . S
C291 C284 1.409 . S
C291 C290 1.362 . S
H292 C298 0.930 . S
H293 C301 0.930 . S
H294 C302 0.930 . S
H295 C303 0.930 . S
H296 C306 0.930 . S
H297 C307 0.930 . S
C298 H292 0.930 . S
C298 C299 1.355 . S
C298 C300 1.415 . S
C299 C298 1.355 . S
C299 C301 1.419 . S
C300 C298 1.415 . S
C300 C305 1.425 . S
C300 C307 1.409 . S
C301 H293 0.930 . S
C301 C299 1.419 . S
C301 C302 1.362 . S
C302 H294 0.930 . S
C302 C301 1.362 . S
C302 C305 1.409 . S
C303 H295 0.930 . S
C303 C304 1.355 . S
C303 C305 1.415 . S
C304 C303 1.355 . S
C304 C306 1.419 . S
C305 C300 1.425 . S
C305 C302 1.409 . S
C305 C303 1.415 . S
C306 H296 0.930 . S
C306 C304 1.419 . S
C306 C307 1.362 . S
C307 H297 0.930 . S
C307 C300 1.409 . S
C307 C306 1.362 . S
H308 C314 0.930 . S
H309 C317 0.930 . S
H310 C318 0.930 . S
H311 C319 0.930 . S
H312 C322 0.930 . S
H313 C323 0.930 . S
C314 H308 0.930 . S
C314 C315 1.355 . S
C314 C316 1.415 . S
C315 C314 1.355 . S
C315 C317 1.419 . S
C316 C314 1.415 . S
C316 C321 1.425 . S
C316 C323 1.409 . S
C317 H309 0.930 . S
C317 C315 1.419 . S
C317 C318 1.362 . S
C318 H310 0.930 . S
C318 C317 1.362 . S
C318 C321 1.409 . S
C319 H311 0.930 . S
C319 C320 1.355 . S
C319 C321 1.415 . S
C320 C319 1.355 . S
C320 C322 1.419 . S
C321 C316 1.425 . S
C321 C318 1.409 . S
C321 C319 1.415 . S
C322 H312 0.930 . S
C322 C320 1.419 . S
C322 C323 1.362 . S
C323 H313 0.930 . S
C323 C316 1.409 . S
C323 C322 1.362 . S
H324 C330 0.930 . S
H325 C333 0.930 . S
H326 C334 0.930 . S
H327 C335 0.930 . S
H328 C338 0.930 . S
H329 C339 0.930 . S
C330 H324 0.930 . S
C330 C331 1.355 . S
C330 C332 1.415 . S
C331 C330 1.355 . S
C331 C333 1.419 . S
C332 C330 1.415 . S
C332 C337 1.425 . S
C332 C339 1.409 . S
C333 H325 0.930 . S
C333 C331 1.419 . S
C333 C334 1.362 . S
C334 H326 0.930 . S
C334 C333 1.362 . S
C334 C337 1.409 . S
C335 H327 0.930 . S
C335 C336 1.355 . S
C335 C337 1.415 . S
C336 C335 1.355 . S
C336 C338 1.419 . S
C337 C332 1.425 . S
C337 C334 1.409 . S
C337 C335 1.415 . S
C338 H328 0.930 . S
C338 C336 1.419 . S
C338 C339 1.362 . S
C339 H329 0.930 . S
C339 C332 1.409 . S
C339 C338 1.362 . S
H340 C346 0.930 . S
H341 C349 0.930 . S
H342 C350 0.930 1_545 S
H343 C351 0.930 . S
H344 C354 0.930 . S
H345 C355 0.930 . S
C346 H340 0.930 . S
C346 C347 1.355 . S
C346 C348 1.415 . S
C347 C346 1.355 . S
C347 C349 1.419 . S
C348 C346 1.415 . S
C348 C353 1.425 . S
C348 C355 1.409 . S
C349 H341 0.930 . S
C349 C347 1.419 . S
C349 C350 1.362 . S
C350 H342 0.930 1_565 S
C350 C349 1.362 . S
C350 C353 1.409 . S
C351 H343 0.930 . S
C351 C352 1.355 . S
C351 C353 1.415 . S
C352 C351 1.355 . S
C352 C354 1.419 . S
C353 C348 1.425 . S
C353 C350 1.409 . S
C353 C351 1.415 . S
C354 H344 0.930 . S
C354 C352 1.419 . S
C354 C355 1.362 . S
C355 H345 0.930 . S
C355 C348 1.409 . S
C355 C354 1.362 . S
H356 C362 0.930 . S
H357 C365 0.930 . S
H358 C366 0.930 . S
H359 C367 0.930 . S
H360 C370 0.930 . S
H361 C371 0.930 . S
C362 H356 0.930 . S
C362 C363 1.355 . S
C362 C364 1.415 . S
C363 C362 1.355 . S
C363 C365 1.419 . S
C364 C362 1.415 . S
C364 C369 1.425 . S
C364 C371 1.409 . S
C365 H357 0.930 . S
C365 C363 1.419 . S
C365 C366 1.362 . S
C366 H358 0.930 . S
C366 C365 1.362 . S
C366 C369 1.409 . S
C367 H359 0.930 . S
C367 C368 1.355 . S
C367 C369 1.415 . S
C368 C367 1.355 . S
C368 C370 1.419 . S
C369 C364 1.425 . S
C369 C366 1.409 . S
C369 C367 1.415 . S
C370 H360 0.930 . S
C370 C368 1.419 . S
C370 C371 1.362 . S
C371 H361 0.930 . S
C371 C364 1.409 . S
C371 C370 1.362 . S
H372 C378 0.930 . S
H373 C381 0.930 . S
H374 C382 0.930 . S
H375 C383 0.930 . S
H376 C386 0.930 . S
H377 C387 0.930 . S
C378 H372 0.930 . S
C378 C379 1.355 . S
C378 C380 1.415 . S
C379 C378 1.355 . S
C379 C381 1.419 . S
C380 C378 1.415 . S
C380 C385 1.425 . S
C380 C387 1.409 . S
C381 H373 0.930 . S
C381 C379 1.419 . S
C381 C382 1.362 . S
C382 H374 0.930 . S
C382 C381 1.362 . S
C382 C385 1.409 . S
C383 H375 0.930 . S
C383 C384 1.355 . S
C383 C385 1.415 . S
C384 C383 1.355 . S
C384 C386 1.419 . S
C385 C380 1.425 . S
C385 C382 1.409 . S
C385 C383 1.415 . S
C386 H376 0.930 . S
C386 C384 1.419 . S
C386 C387 1.362 . S
C387 H377 0.930 . S
C387 C380 1.409 . S
C387 C386 1.362 . S
H388 C394 0.930 . S
H389 C397 0.930 . S
H390 C398 0.930 . S
H391 C399 0.930 . S
H392 C402 0.930 . S
H393 C403 0.930 . S
C394 H388 0.930 . S
C394 C395 1.355 . S
C394 C396 1.415 1_655 S
C395 C394 1.355 . S
C395 C397 1.419 . S
C396 C394 1.415 1_455 S
C396 C401 1.425 1_455 S
C396 C403 1.409 . S
C397 H389 0.930 . S
C397 C395 1.419 . S
C397 C398 1.362 . S
C398 H390 0.930 . S
C398 C397 1.362 . S
C398 C401 1.409 . S
C399 H391 0.930 . S
C399 C400 1.355 . S
C399 C401 1.415 1_455 S
C400 C399 1.355 . S
C400 C402 1.419 . S
C401 C396 1.425 1_655 S
C401 C398 1.409 . S
C401 C399 1.415 1_655 S
C402 H392 0.930 . S
C402 C400 1.419 . S
C402 C403 1.362 . S
C403 H393 0.930 . S
C403 C396 1.409 . S
C403 C402 1.362 . S
H404 C410 0.930 . S
H405 C413 0.930 . S
H406 C414 0.930 . S
H407 C415 0.930 . S
H408 C418 0.930 . S
H409 C419 0.930 . S
C410 H404 0.930 . S
C410 C411 1.355 . S
C410 C412 1.415 . S
C411 C410 1.355 . S
C411 C413 1.419 . S
C412 C410 1.415 . S
C412 C417 1.425 1_545 S
C412 C419 1.409 . S
C413 H405 0.930 . S
C413 C411 1.419 . S
C413 C414 1.362 1_545 S
C414 H406 0.930 . S
C414 C413 1.362 1_565 S
C414 C417 1.409 . S
C415 H407 0.930 . S
C415 C416 1.355 . S
C415 C417 1.415 . S
C416 C415 1.355 . S
C416 C418 1.419 . S
C417 C412 1.425 1_565 S
C417 C414 1.409 . S
C417 C415 1.415 . S
C418 H408 0.930 . S
C418 C416 1.419 . S
C418 C419 1.362 1_565 S
C419 H409 0.930 . S
C419 C412 1.409 . S
C419 C418 1.362 1_545 S
H420 C426 0.930 . S
H421 C429 0.930 . S
H422 C430 0.930 . S
H423 C431 0.930 . S
H424 C434 0.930 . S
H425 C435 0.930 . S
C426 H420 0.930 . S
C426 C427 1.355 . S
C426 C428 1.415 . S
C427 C426 1.355 . S
C427 C429 1.419 . S
C428 C426 1.415 . S
C428 C433 1.425 . S
C428 C435 1.409 . S
C429 H421 0.930 . S
C429 C427 1.419 . S
C429 C430 1.362 . S
C430 H422 0.930 . S
C430 C429 1.362 . S
C430 C433 1.409 . S
C431 H423 0.930 . S
C431 C432 1.355 . S
C431 C433 1.415 . S
C432 C431 1.355 . S
C432 C434 1.419 . S
C433 C428 1.425 . S
C433 C430 1.409 . S
C433 C431 1.415 . S
C434 H424 0.930 . S
C434 C432 1.419 . S
C434 C435 1.362 . S
C435 H425 0.930 . S
C435 C428 1.409 . S
C435 C434 1.362 . S
H436 C442 0.930 . S
H437 C445 0.930 . S
H438 C446 0.930 . S
H439 C447 0.930 . S
H440 C450 0.930 . S
H441 C451 0.930 . S
C442 H436 0.930 . S
C442 C443 1.355 . S
C442 C444 1.415 . S
C443 C442 1.355 . S
C443 C445 1.419 . S
C444 C442 1.415 . S
C444 C449 1.425 1_655 S
C444 C451 1.409 1_655 S
C445 H437 0.930 . S
C445 C443 1.419 . S
C445 C446 1.362 . S
C446 H438 0.930 . S
C446 C445 1.362 . S
C446 C449 1.409 1_655 S
C447 H439 0.930 . S
C447 C448 1.355 . S
C447 C449 1.415 . S
C448 C447 1.355 . S
C448 C450 1.419 . S
C449 C444 1.425 1_455 S
C449 C446 1.409 1_455 S
C449 C447 1.415 . S
C450 H440 0.930 . S
C450 C448 1.419 . S
C450 C451 1.362 . S
C451 H441 0.930 . S
C451 C444 1.409 1_455 S
C451 C450 1.362 . S
H452 C458 0.930 . S
H453 C461 0.930 . S
H454 C462 0.930 . S
H455 C463 0.930 . S
H456 C466 0.930 . S
H457 C467 0.930 . S
C458 H452 0.930 . S
C458 C459 1.355 . S
C458 C460 1.415 1_554 S
C459 C458 1.355 . S
C459 C461 1.419 . S
C460 C458 1.415 1_556 S
C460 C465 1.425 1_566 S
C460 C467 1.409 . S
C461 H453 0.930 . S
C461 C459 1.419 . S
C461 C462 1.362 1_565 S
C462 H454 0.930 . S
C462 C461 1.362 1_545 S
C462 C465 1.409 . S
C463 H455 0.930 . S
C463 C464 1.355 . S
C463 C465 1.415 1_556 S
C464 C463 1.355 . S
C464 C466 1.419 . S
C465 C460 1.425 1_544 S
C465 C462 1.409 . S
C465 C463 1.415 1_554 S
C466 H456 0.930 . S
C466 C464 1.419 . S
C466 C467 1.362 1_545 S
C467 H457 0.930 . S
C467 C460 1.409 . S
C467 C466 1.362 1_565 S
H468 C474 0.930 . S
H469 C477 0.930 . S
H470 C478 0.930 . S
H471 C479 0.930 . S
H472 C482 0.930 . S
H473 C483 0.930 . S
C474 H468 0.930 . S
C474 C475 1.355 . S
C474 C476 1.415 . S
C475 C474 1.355 . S
C475 C477 1.419 . S
C476 C474 1.415 . S
C476 C481 1.425 . S
C476 C483 1.409 1_554 S
C477 H469 0.930 . S
C477 C475 1.419 . S
C477 C478 1.362 . S
C478 H470 0.930 . S
C478 C477 1.362 . S
C478 C481 1.409 . S
C479 H471 0.930 . S
C479 C480 1.355 1_554 S
C479 C481 1.415 . S
C480 C479 1.355 1_556 S
C480 C482 1.419 . S
C481 C476 1.425 . S
C481 C478 1.409 . S
C481 C479 1.415 . S
C482 H472 0.930 . S
C482 C480 1.419 . S
C482 C483 1.362 . S
C483 H473 0.930 . S
C483 C476 1.409 1_556 S
C483 C482 1.362 . S
H484 C490 0.930 . S
H485 C493 0.930 . S
H486 C494 0.930 . S
H487 C495 0.910 1_455 S
H488 C498 0.930 . S
H489 C499 0.930 . S
C490 H484 0.930 . S
C490 C491 1.355 . S
C490 C492 1.415 . S
C491 C490 1.355 . S
C491 C493 1.419 . S
C492 C490 1.415 . S
C492 C497 1.425 . S
C492 C499 1.409 . S
C493 H485 0.930 . S
C493 C491 1.419 . S
C493 C494 1.362 . S
C494 H486 0.930 . S
C494 C493 1.362 . S
C494 C497 1.409 . S
C495 H487 0.910 1_655 S
C495 C496 1.354 1_655 S
C495 C497 1.435 . S
C496 C495 1.354 1_455 S
C496 C498 1.419 1_455 S
C497 C492 1.425 . S
C497 C494 1.409 . S
C497 C495 1.435 . S
C498 H488 0.930 . S
C498 C496 1.419 1_655 S
C498 C499 1.362 . S
C499 H489 0.930 . S
C499 C492 1.409 . S
C499 C498 1.362 . S
H500 C506 0.930 1_545 S
H501 C509 0.930 . S
H502 C510 0.930 . S
H503 C511 0.930 . S
H504 C514 0.930 . S
H505 C515 0.930 . S
C506 H500 0.930 1_565 S
C506 C507 1.355 1_565 S
C506 C508 1.415 . S
C507 C506 1.355 1_545 S
C507 C509 1.419 1_545 S
C508 C506 1.415 . S
C508 C513 1.425 . S
C508 C515 1.409 . S
C509 H501 0.930 . S
C509 C507 1.419 1_565 S
C509 C510 1.362 . S
C510 H502 0.930 . S
C510 C509 1.362 . S
C510 C513 1.409 . S
C511 H503 0.930 . S
C511 C512 1.355 . S
C511 C513 1.415 . S
C512 C511 1.355 . S
C512 C514 1.419 . S
C513 C508 1.425 . S
C513 C510 1.409 . S
C513 C511 1.415 . S
C514 H504 0.930 . S
C514 C512 1.419 . S
C514 C515 1.362 . S
C515 H505 0.930 . S
C515 C508 1.409 . S
C515 C514 1.362 . S
H516 C522 0.930 . S
H517 C525 0.930 . S
H518 C526 0.930 . S
H519 C527 0.930 . S
H520 C530 0.930 . S
H521 C531 0.930 . S
C522 H516 0.930 . S
C522 C523 1.355 . S
C522 C524 1.415 . S
C523 C522 1.355 . S
C523 C525 1.419 . S
C524 C522 1.415 . S
C524 C529 1.425 . S
C524 C531 1.409 . S
C525 H517 0.930 . S
C525 C523 1.419 . S
C525 C526 1.362 . S
C526 H518 0.930 . S
C526 C525 1.362 . S
C526 C529 1.409 . S
C527 H519 0.930 . S
C527 C528 1.355 . S
C527 C529 1.415 . S
C528 C527 1.355 . S
C528 C530 1.419 . S
C529 C524 1.425 . S
C529 C526 1.409 . S
C529 C527 1.415 . S
C530 H520 0.930 . S
C530 C528 1.419 . S
C530 C531 1.362 . S
C531 H521 0.930 . S
C531 C524 1.409 . S
C531 C530 1.362 . S
H532 C538 0.930 . S
H533 C541 0.930 . S
H534 C542 0.930 . S
H535 C543 0.930 1_655 S
H536 C546 0.930 . S
H537 C547 0.930 . S
C538 H532 0.930 . S
C538 C539 1.355 . S
C538 C540 1.415 . S
C539 C538 1.355 . S
C539 C541 1.419 . S
C540 C538 1.415 . S
C540 C545 1.425 . S
C540 C547 1.409 . S
C541 H533 0.930 . S
C541 C539 1.419 . S
C541 C542 1.362 . S
C542 H534 0.930 . S
C542 C541 1.362 . S
C542 C545 1.409 . S
C543 H535 0.930 1_455 S
C543 C544 1.355 1_455 S
C543 C545 1.415 . S
C544 C543 1.355 1_655 S
C544 C546 1.419 1_655 S
C545 C540 1.425 . S
C545 C542 1.409 . S
C545 C543 1.415 . S
C546 H536 0.930 . S
C546 C544 1.419 1_455 S
C546 C547 1.362 . S
C547 H537 0.930 . S
C547 C540 1.409 . S
C547 C546 1.362 . S
H548 C554 0.930 . S
H549 C557 0.930 . S
H550 C558 0.930 . S
H551 C559 0.930 . S
H552 C562 0.930 . S
H553 C563 0.930 . S
C554 H548 0.930 . S
C554 C555 1.355 . S
C554 C556 1.415 . S
C555 C554 1.355 . S
C555 C557 1.419 . S
C556 C554 1.415 . S
C556 C561 1.425 . S
C556 C563 1.409 . S
C557 H549 0.930 . S
C557 C555 1.419 . S
C557 C558 1.362 . S
C558 H550 0.930 . S
C558 C557 1.362 . S
C558 C561 1.409 . S
C559 H551 0.930 . S
C559 C560 1.355 1_545 S
C559 C561 1.415 . S
C560 C559 1.355 1_565 S
C560 C562 1.419 . S
C561 C556 1.425 . S
C561 C558 1.409 . S
C561 C559 1.415 . S
C562 H552 0.930 . S
C562 C560 1.419 . S
C562 C563 1.362 1_565 S
C563 H553 0.930 . S
C563 C556 1.409 . S
C563 C562 1.362 1_545 S
H564 C570 0.930 . S
H565 C573 0.930 . S
H566 C574 0.930 . S
H567 C575 0.930 . S
H568 C578 0.930 . S
H569 C579 0.930 . S
C570 H564 0.930 . S
C570 C571 1.355 . S
C570 C572 1.415 . S
C571 C570 1.355 . S
C571 C573 1.419 . S
C572 C570 1.415 . S
C572 C577 1.425 . S
C572 C579 1.409 . S
C573 H565 0.930 . S
C573 C571 1.419 . S
C573 C574 1.362 . S
C574 H566 0.930 . S
C574 C573 1.362 . S
C574 C577 1.409 . S
C575 H567 0.930 . S
C575 C576 1.355 . S
C575 C577 1.415 . S
C576 C575 1.355 . S
C576 C578 1.419 . S
C577 C572 1.425 . S
C577 C574 1.409 . S
C577 C575 1.415 . S
C578 H568 0.930 . S
C578 C576 1.419 . S
C578 C579 1.362 . S
C579 H569 0.930 . S
C579 C572 1.409 . S
C579 C578 1.362 . S
H580 C586 0.930 . S
H581 C589 0.930 . S
H582 C590 0.930 . S
H583 C591 0.930 1_556 S
H584 C594 0.930 1_455 S
H585 C595 0.930 . S
C586 H580 0.930 . S
C586 C587 1.355 . S
C586 C588 1.415 . S
C587 C586 1.355 . S
C587 C589 1.419 . S
C588 C586 1.415 . S
C588 C593 1.425 . S
C588 C595 1.409 1_556 S
C589 H581 0.930 . S
C589 C587 1.419 . S
C589 C590 1.362 . S
C590 H582 0.930 . S
C590 C589 1.362 . S
C590 C593 1.409 . S
C591 H583 0.930 1_554 S
C591 C592 1.355 1_655 S
C591 C593 1.415 1_554 S
C592 C591 1.355 1_455 S
C592 C594 1.419 1_455 S
C593 C588 1.425 . S
C593 C590 1.409 . S
C593 C591 1.415 1_556 S
C594 H584 0.930 1_655 S
C594 C592 1.419 1_655 S
C594 C595 1.362 . S
C595 H585 0.930 . S
C595 C588 1.409 1_554 S
C595 C594 1.362 . S
H596 C602 0.930 . S
H597 C605 0.930 . S
H598 C606 0.930 . S
H599 C607 0.930 1_545 S
H600 C610 0.930 . S
H601 C611 0.930 . S
C602 H596 0.930 . S
C602 C603 1.355 . S
C602 C604 1.415 . S
C603 C602 1.355 . S
C603 C605 1.419 . S
C604 C602 1.415 . S
C604 C609 1.425 . S
C604 C611 1.409 . S
C605 H597 0.930 . S
C605 C603 1.419 . S
C605 C606 1.362 . S
C606 H598 0.930 . S
C606 C605 1.362 . S
C606 C609 1.409 . S
C607 H599 0.930 1_565 S
C607 C608 1.355 1_565 S
C607 C609 1.415 . S
C608 C607 1.355 1_545 S
C608 C610 1.419 1_545 S
C609 C604 1.425 . S
C609 C606 1.409 . S
C609 C607 1.415 . S
C610 H600 0.930 . S
C610 C608 1.419 1_565 S
C610 C611 1.362 . S
C611 H601 0.930 . S
C611 C604 1.409 . S
C611 C610 1.362 . S
H612 C618 0.930 . S
H613 C621 0.930 . S
H614 C622 0.930 . S
H615 C623 0.930 . S
H616 C626 0.930 . S
H617 C627 0.930 . S
C618 H612 0.930 . S
C618 C619 1.355 . S
C618 C620 1.415 . S
C619 C618 1.355 . S
C619 C621 1.419 . S
C620 C618 1.415 . S
C620 C625 1.425 . S
C620 C627 1.409 . S
C621 H613 0.930 . S
C621 C619 1.419 . S
C621 C622 1.362 . S
C622 H614 0.930 . S
C622 C621 1.362 . S
C622 C625 1.409 . S
C623 H615 0.930 . S
C623 C624 1.355 . S
C623 C625 1.415 . S
C624 C623 1.355 . S
C624 C626 1.419 . S
C625 C620 1.425 . S
C625 C622 1.409 . S
C625 C623 1.415 . S
C626 H616 0.930 . S
C626 C624 1.419 . S
C626 C627 1.362 . S
C627 H617 0.930 . S
C627 C620 1.409 . S
C627 C626 1.362 . S
H628 C634 0.930 . S
H629 C637 0.930 . S
H630 C638 0.930 . S
H631 C639 0.930 . S
H632 C642 0.930 . S
H633 C643 0.930 . S
C634 H628 0.930 . S
C634 C635 1.355 . S
C634 C636 1.415 . S
C635 C634 1.355 . S
C635 C637 1.419 . S
C636 C634 1.415 . S
C636 C641 1.425 . S
C636 C643 1.409 . S
C637 H629 0.930 . S
C637 C635 1.419 . S
C637 C638 1.362 . S
C638 H630 0.930 . S
C638 C637 1.362 . S
C638 C641 1.409 . S
C639 H631 0.930 . S
C639 C640 1.355 1_455 S
C639 C641 1.415 . S
C640 C639 1.355 1_655 S
C640 C642 1.419 . S
C641 C636 1.425 . S
C641 C638 1.409 . S
C641 C639 1.415 . S
C642 H632 0.930 . S
C642 C640 1.419 . S
C642 C643 1.362 1_655 S
C643 H633 0.930 . S
C643 C636 1.409 . S
C643 C642 1.362 1_455 S
H644 C650 0.930 1_565 S
H645 C653 0.930 . S
H646 C654 0.930 . S
H647 C655 0.930 . S
H648 C658 0.930 . S
H649 C659 0.930 . S
C650 H644 0.930 1_545 S
C650 C651 1.355 1_545 S
C650 C652 1.415 . S
C651 C650 1.355 1_565 S
C651 C653 1.419 1_565 S
C652 C650 1.415 . S
C652 C657 1.425 . S
C652 C659 1.409 . S
C653 H645 0.930 . S
C653 C651 1.419 1_545 S
C653 C654 1.362 . S
C654 H646 0.930 . S
C654 C653 1.362 . S
C654 C657 1.409 . S
C655 H647 0.930 . S
C655 C656 1.355 . S
C655 C657 1.415 . S
C656 C655 1.355 . S
C656 C658 1.419 . S
C657 C652 1.425 . S
C657 C654 1.409 . S
C657 C655 1.415 . S
C658 H648 0.930 . S
C658 C656 1.419 . S
C658 C659 1.362 . S
C659 H649 0.930 . S
C659 C652 1.409 . S
C659 C658 1.362 . S
C283 N196 1.736 . S
C288 N12 1.686 . S
C299 N35 1.721 . S
C304 N219 1.699 . S
C315 N58 1.729 . S
C320 N242 1.692 . S
C331 N81 1.725 . S
C336 N265 1.698 . S
C347 N150 1.735 . S
C352 N104 1.687 . S
C363 N127 1.734 . S
C368 N173 1.689 . S
C379 N209 1.209 . S
C384 N2 1.193 . S
C395 N25 1.195 . S
C400 N232 1.204 . S
C411 N255 1.307 . S
C416 N48 1.312 . S
C427 N71 1.314 . S
C432 N140 1.301 . S
C443 N163 1.296 . S
C448 N94 1.254 . S
C459 N186 1.258 . S
C464 N117 1.299 . S
C475 C16 1.919 . S
C480 C122 1.891 . S
C491 C39 1.916 . S
C496 C7 1.896 . S
C507 C30 1.904 . S
C512 C62 1.910 . S
C523 C85 1.916 . S
C528 C53 1.914 . S
C539 C108 1.905 . S
C544 C76 1.922 . S
C555 C131 1.945 . S
C560 C99 1.866 . S
C571 C154 1.922 . S
C576 C168 1.887 . S
C587 C177 1.939 . S
C592 C191 1.868 . S
C603 C200 1.933 . S
C608 C214 1.875 . S
C619 C223 1.945 . S
C624 C237 1.871 . S
C635 C246 1.933 . S
C640 C260 1.893 . S
C651 C145 1.910 . S
C656 C269 1.907 . S
